# Generated by pormake.
# Topology zzz, (3,6)-cn, num edge types: 1
# Building blocks:
#     Node 0, Type 0, BuildingBlock: BETDAH_clean_linker_0, # of connection points: 3
#     Node 1, Type 0, BuildingBlock: BETDAH_clean_linker_0, # of connection points: 3
#     Node 2, Type 0, BuildingBlock: BETDAH_clean_linker_0, # of connection points: 3
#     Node 3, Type 0, BuildingBlock: BETDAH_clean_linker_0, # of connection points: 3
#     Node 4, Type 0, BuildingBlock: BETDAH_clean_linker_0, # of connection points: 3
#     Node 5, Type 0, BuildingBlock: BETDAH_clean_linker_0, # of connection points: 3
#     Node 6, Type 0, BuildingBlock: BETDAH_clean_linker_0, # of connection points: 3
#     Node 7, Type 0, BuildingBlock: BETDAH_clean_linker_0, # of connection points: 3
#     Node 8, Type 1, BuildingBlock: KUMJIN_clean_sbu_1, # of connection points: 6
#     Node 9, Type 1, BuildingBlock: KUMJIN_clean_sbu_1, # of connection points: 6
#     Node 10, Type 1, BuildingBlock: KUMJIN_clean_sbu_1, # of connection points: 6
#     Node 11, Type 1, BuildingBlock: KUMJIN_clean_sbu_1, # of connection points: 6
#     Edge 12, Type (0, 1), BuildingBlock: OJICUG_clean_linker_0, # of connection points: 2
#     Edge 13, Type (0, 1), BuildingBlock: OJICUG_clean_linker_0, # of connection points: 2
#     Edge 14, Type (0, 1), BuildingBlock: OJICUG_clean_linker_0, # of connection points: 2
#     Edge 15, Type (0, 1), BuildingBlock: OJICUG_clean_linker_0, # of connection points: 2
#     Edge 16, Type (0, 1), BuildingBlock: OJICUG_clean_linker_0, # of connection points: 2
#     Edge 17, Type (0, 1), BuildingBlock: OJICUG_clean_linker_0, # of connection points: 2
#     Edge 18, Type (0, 1), BuildingBlock: OJICUG_clean_linker_0, # of connection points: 2
#     Edge 19, Type (0, 1), BuildingBlock: OJICUG_clean_linker_0, # of connection points: 2
#     Edge 20, Type (0, 1), BuildingBlock: OJICUG_clean_linker_0, # of connection points: 2
#     Edge 21, Type (0, 1), BuildingBlock: OJICUG_clean_linker_0, # of connection points: 2
#     Edge 22, Type (0, 1), BuildingBlock: OJICUG_clean_linker_0, # of connection points: 2
#     Edge 23, Type (0, 1), BuildingBlock: OJICUG_clean_linker_0, # of connection points: 2
#     Edge 24, Type (0, 1), BuildingBlock: OJICUG_clean_linker_0, # of connection points: 2
#     Edge 25, Type (0, 1), BuildingBlock: OJICUG_clean_linker_0, # of connection points: 2
#     Edge 26, Type (0, 1), BuildingBlock: OJICUG_clean_linker_0, # of connection points: 2
#     Edge 27, Type (0, 1), BuildingBlock: OJICUG_clean_linker_0, # of connection points: 2
#     Edge 28, Type (0, 1), BuildingBlock: OJICUG_clean_linker_0, # of connection points: 2
#     Edge 29, Type (0, 1), BuildingBlock: OJICUG_clean_linker_0, # of connection points: 2
#     Edge 30, Type (0, 1), BuildingBlock: OJICUG_clean_linker_0, # of connection points: 2
#     Edge 31, Type (0, 1), BuildingBlock: OJICUG_clean_linker_0, # of connection points: 2
#     Edge 32, Type (0, 1), BuildingBlock: OJICUG_clean_linker_0, # of connection points: 2
#     Edge 33, Type (0, 1), BuildingBlock: OJICUG_clean_linker_0, # of connection points: 2
#     Edge 34, Type (0, 1), BuildingBlock: OJICUG_clean_linker_0, # of connection points: 2
#     Edge 35, Type (0, 1), BuildingBlock: OJICUG_clean_linker_0, # of connection points: 2
# Relax obj value: 0.244
# Max RMSD: 0.125
# Mean RMSD: 0.085
data_MOF--net-zzz--node1-KUMJIN_clean_sbu_1--node2-BETDAH_clean_linker_0--edge1-OJICUG_clean_linker_0
_symmetry_space_group_name_H-M    P1
_symmetry_Int_Tables_number       1
_symmetry_cell_setting            triclinic
loop_
_symmetry_equiv_pos_as_xyz
'x, y, z'
_cell_length_a     35.900867
_cell_length_b     35.720231
_cell_length_c     11.520659
_cell_angle_alpha  90.137077
_cell_angle_beta   90.157737
_cell_angle_gamma 90.264771
loop_
_atom_site_label
_atom_site_type_symbol
_atom_site_fract_x
_atom_site_fract_y
_atom_site_fract_z
_atom_type_partial_charge
H0 H 0.8505 0.48498 0.38702 0.0
H1 H 0.74488 0.51254 0.24288 0.0
H2 H 0.7844 0.57093 0.54869 0.0
C3 C 0.82475 0.50046 0.395 0.0
C4 C 0.82087 0.52698 0.48436 0.0
C5 C 0.7973 0.49484 0.31018 0.0
C6 C 0.76537 0.51686 0.31048 0.0
C7 C 0.76029 0.5447 0.39495 0.0
C8 C 0.7882 0.54965 0.48278 0.0
N9 N 0.72781 0.56801 0.39103 0.0
C10 C 0.70024 0.56643 0.30335 0.0
H11 H 0.05303 0.87728 0.33408 0.0
H12 H 0.03632 0.76604 0.20937 0.0
H13 H 1.0208 0.79052 0.57432 0.0
C14 C 0.04485 0.84864 0.35235 0.0
C15 C 0.03699 0.83798 0.46692 0.0
C16 C 0.0446 0.82273 0.26124 0.0
C17 C 0.03548 0.78548 0.28157 0.0
C18 C 1.02639 0.77317 0.39335 0.0
C19 C 1.02693 0.79976 0.48697 0.0
N20 N 1.01804 0.73424 0.41188 0.0
C21 C 1.019 0.70666 0.3236 0.0
H22 H 0.71134 1.00099 0.28673 0.0
H23 H 0.82459 0.99997 0.17181 0.0
H24 H 0.79891 1.02596 0.5293 0.0
C25 C 0.74084 1.00272 0.30632 0.0
C26 C 0.75124 1.01355 0.41884 0.0
C27 C 0.76682 1.00062 0.21544 0.0
C28 C 0.80477 1.00215 0.24215 0.0
C29 C 0.81702 1.01085 0.35501 0.0
C30 C 0.78996 1.01689 0.44388 0.0
N31 N 0.85595 1.01704 0.3766 0.0
C32 C 0.88312 1.01884 0.28855 0.0
H33 H 0.47474 0.74109 0.37776 0.0
H34 H 0.50211 0.84763 0.23443 0.0
H35 H 0.56439 0.80568 0.52816 0.0
C36 C 0.49076 0.76676 0.38465 0.0
C37 C 0.51867 0.76986 0.47001 0.0
C38 C 0.48452 0.79471 0.30166 0.0
C39 C 0.50701 0.82661 0.30025 0.0
C40 C 0.53624 0.83097 0.38007 0.0
C41 C 0.54198 0.80247 0.46594 0.0
N42 N 0.56017 0.86328 0.37282 0.0
C43 C 0.55831 0.89094 0.28512 0.0
H44 H 0.21256 0.6093 0.17557 0.0
H45 H 0.31819 0.58492 0.32819 0.0
H46 H 0.28154 0.52404 0.02346 0.0
C47 C 0.2387 0.59429 0.17123 0.0
C48 C 0.24367 0.56712 0.08462 0.0
C49 C 0.26545 0.60091 0.25773 0.0
C50 C 0.29813 0.57987 0.25963 0.0
C51 C 0.30453 0.55207 0.17568 0.0
C52 C 0.27697 0.54558 0.08811 0.0
N53 N 0.33797 0.53022 0.17953 0.0
C54 C 0.36609 0.53393 0.2646 0.0
H55 H 0.97552 0.22977 0.15053 0.0
H56 H 1.00001 0.33636 0.29897 0.0
H57 H 0.0637 0.29708 1.0053 0.0
C58 C 0.99084 0.2559 0.14507 0.0
C59 C 1.01881 0.25998 0.06094 0.0
C60 C 0.98369 0.28345 0.22867 0.0
C61 C 1.00546 0.31583 0.23214 0.0
C62 C 0.03472 0.32117 0.15339 0.0
C63 C 0.04129 0.2931 0.06678 0.0
N64 N 0.0579 0.35397 0.16255 0.0
C65 C 0.0547 0.38147 0.25046 0.0
H66 H 0.35535 0.98279 0.10844 0.0
H67 H 0.25329 1.0098 0.28105 0.0
H68 H 0.3007 0.08661 0.03201 0.0
C69 C 0.33148 1.00106 0.11775 0.0
C70 C 0.33118 0.03489 0.05672 0.0
C71 C 0.30392 0.99216 0.19951 0.0
C72 C 0.27416 1.01676 0.21694 0.0
C73 C 0.27227 0.05079 0.15615 0.0
C74 C 0.30132 0.06002 0.07695 0.0
N75 N 0.24237 0.07648 0.17635 0.0
C76 C 0.21356 0.07142 0.25773 0.0
H77 H 0.59211 0.37209 0.17303 0.0
H78 H 0.56598 0.26468 0.31453 0.0
H79 H 0.50677 0.30449 1.01158 0.0
C80 C 0.57672 0.346 0.16557 0.0
C81 C 0.54994 0.34198 0.07747 0.0
C82 C 0.58263 0.31833 0.24961 0.0
C83 C 0.56136 0.2855 0.24789 0.0
C84 C 0.53389 0.27985 0.16262 0.0
C85 C 0.52802 0.30847 0.07738 0.0
N86 N 0.51183 0.24612 0.16273 0.0
C87 C 0.51509 0.21655 0.24364 0.0
Eu88 Eu 1.00367 0.05407 0.64255 0.0
C89 C 0.1112 0.11787 1.00956 0.0
N90 N 0.11902 0.09729 0.91377 0.0
C91 C 0.16969 0.13855 0.86748 0.0
C92 C 0.13139 0.15084 0.03548 0.0
C93 C 0.14817 0.10669 0.84364 0.0
C94 C 0.16114 0.16088 0.96347 0.0
C95 C 0.07148 0.1285 0.17543 0.0
C96 C 0.08239 0.10624 0.08006 0.0
C97 C 0.0902 0.16235 0.19851 0.0
C98 C 0.12054 0.17317 0.1299 0.0
Eu99 Eu 0.08278 0.04303 0.8786 0.0
N100 N 0.06569 0.07278 0.05714 0.0
C101 C 0.04251 0.11574 0.24596 0.0
C102 C 0.04095 0.05832 0.13507 0.0
C103 C 0.0275 0.08025 0.22646 0.0
H104 H 0.15455 0.08971 0.76858 0.0
H105 H 1.00601 0.06949 0.28314 0.0
H106 H 0.92321 0.03665 0.78938 0.0
H107 H 0.05902 0.98201 0.26026 0.0
H108 H 0.03139 1.02988 0.12784 0.0
H109 H 0.03271 0.13231 0.31854 0.0
H110 H 0.05465 0.03276 0.40519 0.0
H111 H 0.19261 0.14607 0.81121 0.0
H112 H 0.08206 0.17984 0.27103 0.0
H113 H 0.13521 0.19897 0.14993 0.0
H114 H 0.87612 0.98689 0.80283 0.0
H115 H 0.17741 0.18592 0.98058 0.0
H116 H 1.01427 0.92936 0.26486 0.0
N117 N 0.95555 1.00866 0.66107 0.0
C118 C 0.95637 0.97992 0.58312 0.0
C119 C 0.89889 0.98424 0.742 0.0
C120 C 0.92916 0.95124 0.5857 0.0
C121 C 0.92627 1.01209 0.73586 0.0
C122 C 0.90064 0.95339 0.66784 0.0
N123 N 1.00903 1.00811 0.49467 0.0
C124 C 0.03518 1.00975 0.40873 0.0
C125 C 0.98499 0.95034 0.41544 0.0
C126 C 0.98362 0.97973 0.49741 0.0
C127 C 1.01255 0.95124 0.32983 0.0
C128 C 0.03772 0.98106 0.32649 0.0
H129 H 0.87922 0.93198 0.67238 0.0
H130 H 0.91034 0.89934 0.50672 0.0
H131 H 0.95951 0.89831 0.35876 0.0
O132 O 0.99858 0.10437 0.53535 0.0
O133 O 0.04136 1.00284 0.64157 0.0
O134 O 0.05233 0.98803 0.82977 0.0
O135 O 0.95214 0.06618 0.54991 0.0
O136 O 0.06115 0.07505 0.58078 0.0
O137 O 0.10121 0.03903 0.69039 0.0
O138 O 0.11531 1.01325 1.01046 0.0
O139 O 0.06958 0.10164 0.8062 0.0
O140 O 1.00693 0.09747 0.78777 0.0
O141 O 0.13762 1.02137 0.83873 0.0
O142 O 1.02569 1.0179 0.92806 0.0
O143 O 0.98522 0.05681 0.83217 0.0
C144 C 0.04369 0.97755 0.72323 0.0
C145 C 0.93908 0.13017 0.56443 0.0
C146 C 0.9185 0.19462 0.54939 0.0
C147 C 0.90062 0.19185 0.65684 0.0
C148 C 0.92083 0.1274 0.67218 0.0
C149 C 0.90143 0.15801 0.71739 0.0
C150 C 0.93739 0.16368 0.50311 0.0
C151 C 0.09434 0.06002 0.59913 0.0
C152 C 0.9628 0.09966 0.52143 0.0
C153 C 0.93079 0.92173 0.50513 0.0
C154 C 0.95872 0.92119 0.42063 0.0
C155 C 0.0367 0.1176 0.81165 0.0
C156 C 0.14852 0.96349 0.91982 0.0
C157 C 0.12599 0.89908 0.92565 0.0
C158 C 0.15584 0.88805 0.85497 0.0
C159 C 0.17843 0.95206 0.85006 0.0
C160 C 0.12272 0.93685 0.95776 0.0
C161 C 0.18198 0.9145 0.81778 0.0
C162 C 0.99265 0.03381 0.91827 0.0
C163 C 0.14099 1.00357 0.93605 0.0
H164 H 0.88669 0.21584 0.69422 0.0
H165 H 0.92229 0.10196 0.72275 0.0
H166 H 0.88787 0.15578 0.80089 0.0
H167 H 0.95233 0.16632 0.42171 0.0
H168 H 0.15907 0.85906 0.82928 0.0
H169 H 0.19832 0.97237 0.81765 0.0
H170 H 0.10002 0.94563 1.01317 0.0
H171 H 0.20489 0.90592 0.76307 0.0
Eu172 Eu 0.55845 0.09253 0.83069 0.0
C173 C 0.58563 0.93176 0.60977 0.0
N174 N 0.58111 0.96568 0.55864 0.0
C175 C 0.62948 0.9516 0.4223 0.0
C176 C 0.61294 0.90658 0.57005 0.0
C177 C 0.60161 0.97535 0.46349 0.0
C178 C 0.63546 0.91722 0.47658 0.0
C179 C 0.56346 0.8853 0.74698 0.0
C180 C 0.56143 0.92133 0.69776 0.0
C181 C 0.59135 0.86056 0.71019 0.0
C182 C 0.6161 0.87121 0.62221 0.0
Eu183 Eu 0.53455 1.00468 0.63852 0.0
N184 N 0.5348 0.9459 0.73179 0.0
C185 C 0.53677 0.87491 0.82949 0.0
C186 C 0.50746 0.93526 0.80717 0.0
C187 C 0.50839 0.89984 0.85861 0.0
H188 H 0.5964 1.00141 0.41892 0.0
H189 H 0.48722 0.89178 0.92055 0.0
H190 H 0.48433 0.1478 0.87457 0.0
H191 H 0.69466 0.13525 0.65097 0.0
H192 H 0.4854 0.95444 0.82922 0.0
H193 H 0.53736 0.84746 0.86928 0.0
H194 H 0.65347 0.09981 0.77975 0.0
H195 H 0.64605 0.95965 0.34798 0.0
H196 H 0.5935 0.83282 0.7474 0.0
H197 H 0.63694 0.8515 0.59297 0.0
H198 H 0.4599 0.20796 0.802 0.0
H199 H 0.65675 0.89867 0.44354 0.0
H200 H 0.66953 0.18686 0.5323 0.0
N201 N 0.5331 0.14993 0.77049 0.0
C202 C 0.55446 0.17039 0.69629 0.0
C203 C 0.48632 0.19755 0.77089 0.0
C204 C 0.54151 0.20491 0.65295 0.0
C205 C 0.50008 0.16342 0.81122 0.0
C206 C 0.50686 0.21814 0.69026 0.0
N207 N 0.60363 0.12632 0.72048 0.0
C208 C 0.64131 0.12057 0.72355 0.0
C209 C 0.61341 0.18025 0.59773 0.0
C210 C 0.5902 0.15787 0.66858 0.0
C211 C 0.65087 0.17046 0.58595 0.0
C212 C 0.66515 0.14132 0.65254 0.0
H213 H 0.49605 0.24453 0.6589 0.0
H214 H 0.55359 0.25143 0.53893 0.0
H215 H 0.6166 0.23007 0.49094 0.0
O216 O 0.56647 0.09174 1.01933 0.0
O217 O 0.51681 0.09802 0.67977 0.0
O218 O 0.54223 0.06039 0.54269 0.0
O219 O 0.57458 0.14287 0.92788 0.0
O220 O 0.60622 0.05376 0.76957 0.0
O221 O 0.5835 0.0413 0.59051 0.0
O222 O 0.47704 1.00295 0.57503 0.0
O223 O 0.56279 0.9914 0.812 0.0
O224 O 0.5469 0.03914 0.93698 0.0
O225 O 0.52016 0.97247 0.48452 0.0
O226 O 0.48686 1.0228 0.76007 0.0
O227 O 0.49717 0.0793 0.85754 0.0
C228 C 0.52577 0.09198 0.57073 0.0
C229 C 0.61997 0.12707 0.06062 0.0
C230 C 0.68241 0.10069 0.05052 0.0
C231 C 0.69593 0.13223 0.11188 0.0
C232 C 0.63399 0.15871 0.11804 0.0
C233 C 0.67189 0.16108 0.14433 0.0
C234 C 0.64433 0.09876 0.02501 0.0
C235 C 0.612 0.0435 0.66112 0.0
C236 C 0.58114 0.12499 0.02257 0.0
C237 C 0.56358 0.22541 0.57527 0.0
C238 C 0.59936 0.21306 0.54731 0.0
C239 C 0.55605 1.00391 0.9174 0.0
C240 C 0.4608 0.94378 0.49634 0.0
C241 C 0.39924 0.91633 0.46654 0.0
C242 C 0.4139 0.88051 0.48513 0.0
C243 C 0.4752 0.90776 0.51618 0.0
C244 C 0.42287 0.94775 0.47308 0.0
C245 C 0.45172 0.87639 0.51155 0.0
C246 C 0.4757 0.05061 0.82823 0.0
C247 C 0.48457 0.97759 0.49679 0.0
H248 H 0.72486 0.13439 0.13775 0.0
H249 H 0.61594 0.1818 0.14052 0.0
H250 H 0.68268 0.18528 0.19033 0.0
H251 H 0.63345 0.07536 0.97554 0.0
H252 H 0.3963 0.85592 0.47755 0.0
H253 H 0.50451 0.90372 0.53374 0.0
H254 H 0.412 0.97542 0.45467 0.0
H255 H 0.46302 0.84875 0.52614 0.0
Eu256 Eu 0.57376 0.54937 0.66161 0.0
C257 C 0.44572 0.49429 0.98072 0.0
N258 N 0.44497 0.51967 0.8927 0.0
C259 C 0.38783 0.49328 0.82102 0.0
C260 C 0.41769 0.46661 0.9898 0.0
C261 C 0.41643 0.51981 0.81405 0.0
C262 C 0.38852 0.46646 0.90889 0.0
C263 C 0.47745 0.46777 0.1478 0.0
C264 C 0.47535 0.49511 0.05958 0.0
C265 C 0.44995 0.43982 0.1552 0.0
C266 C 0.41998 0.43948 0.07735 0.0
Eu267 Eu 0.4943 0.56353 0.88958 0.0
N268 N 0.5023 0.522 0.04905 0.0
C269 C 0.50716 0.46922 0.22634 0.0
C270 C 0.52975 0.52489 0.13094 0.0
C271 C 0.53315 0.49815 0.2186 0.0
H272 H 0.4151 0.54103 0.74777 0.0
H273 H 0.55548 0.50031 0.28163 0.0
H274 H 0.6487 0.58704 0.79196 0.0
H275 H 0.5033 0.59142 0.25713 0.0
H276 H 0.54856 0.54822 0.13273 0.0
H277 H 0.50977 0.4487 0.29496 0.0
H278 H 0.51978 0.54806 0.41299 0.0
H279 H 0.36521 0.49357 0.75872 0.0
H280 H 0.45137 0.41855 0.22197 0.0
H281 H 0.39887 0.41786 0.08496 0.0
H282 H 0.6925 0.63975 0.76216 0.0
H283 H 0.36645 0.44573 0.91338 0.0
H284 H 0.53894 0.65009 0.23234 0.0
N285 N 0.61624 0.59954 0.64259 0.0
C286 C 0.61151 0.62201 0.54847 0.0
C287 C 0.66979 0.63514 0.70178 0.0
C288 C 0.63559 0.65273 0.52924 0.0
C289 C 0.64486 0.60551 0.71885 0.0
C290 C 0.66512 0.65888 0.60672 0.0
N291 N 0.55917 0.58487 0.49264 0.0
C292 C 0.53339 0.57487 0.41071 0.0
C293 C 0.57472 0.6398 0.38038 0.0
C294 C 0.58146 0.61532 0.47425 0.0
C295 C 0.54519 0.63186 0.30481 0.0
C296 C 0.5249 0.59886 0.31882 0.0
H297 H 0.68419 0.68214 0.59476 0.0
H298 H 0.64654 0.70112 0.42132 0.0
H299 H 0.59307 0.69007 0.29193 0.0
O300 O 0.58495 0.50252 0.54331 0.0
O301 O 0.56313 0.60945 0.72882 0.0
O302 O 0.50036 0.60879 0.75034 0.0
O303 O 0.63032 0.53626 0.60739 0.0
O304 O 0.51466 0.52932 0.6077 0.0
O305 O 0.47638 0.57064 0.70218 0.0
O306 O 0.48809 0.61299 1.00133 0.0
O307 O 0.50518 0.50293 0.82962 0.0
O308 O 0.56775 0.50291 0.79739 0.0
O309 O 0.44029 0.57883 0.96051 0.0
O310 O 0.55364 0.5795 0.95387 0.0
O311 O 0.5939 0.54279 0.847 0.0
C312 C 0.53107 0.62711 0.72414 0.0
C313 C 0.64001 0.47134 0.60024 0.0
C314 C 0.6514 0.40458 0.58147 0.0
C315 C 0.66956 0.40435 0.68911 0.0
C316 C 0.65872 0.47104 0.70801 0.0
C317 C 0.67359 0.43773 0.75151 0.0
C318 C 0.63701 0.43809 0.53703 0.0
C319 C 0.48255 0.5472 0.61643 0.0
C320 C 0.62091 0.50512 0.5575 0.0
C321 C 0.62864 0.67713 0.43641 0.0
C322 C 0.59804 0.67097 0.36318 0.0
C323 C 0.53721 0.48522 0.8294 0.0
C324 C 0.43186 0.64368 0.95426 0.0
C325 C 0.41641 0.70957 0.97169 0.0
C326 C 0.39991 0.70891 0.86147 0.0
C327 C 0.41479 0.64302 0.84395 0.0
C328 C 0.43208 0.67689 1.01797 0.0
C329 C 0.39869 0.67545 0.79846 0.0
C330 C 0.58636 0.56298 0.93962 0.0
C331 C 0.45182 0.61084 0.99952 0.0
H332 H 0.6802 0.37849 0.72487 0.0
H333 H 0.66119 0.49626 0.75987 0.0
H334 H 0.68752 0.43767 0.83496 0.0
H335 H 0.62204 0.43791 0.45501 0.0
H336 H 0.38849 0.7342 0.8241 0.0
H337 H 0.41457 0.61774 0.79184 0.0
H338 H 0.44597 0.67777 0.10178 0.0
H339 H 0.38607 0.67483 0.71303 0.0
Eu340 Eu 0.03781 0.58491 0.66887 0.0
C341 C 0.09563 0.45248 0.97319 0.0
N342 N 0.06943 0.45272 0.88752 0.0
C343 C 0.09359 0.39551 0.80944 0.0
C344 C 0.12258 0.42385 0.97788 0.0
C345 C 0.06777 0.42463 0.80697 0.0
C346 C 0.12121 0.39519 0.89488 0.0
C347 C 0.1243 0.48247 0.1409 0.0
C348 C 0.09623 0.48152 0.05469 0.0
C349 C 0.1514 0.45429 0.14422 0.0
C350 C 0.15035 0.42493 0.06375 0.0
Eu351 Eu 1.02683 0.50278 0.89258 0.0
N352 N 0.07018 0.5092 0.04806 0.0
C353 C 0.12448 0.51181 0.22138 0.0
C354 C 0.06921 0.53662 0.13083 0.0
C355 C 0.09661 0.53874 0.21698 0.0
H356 H 0.04588 0.42398 0.7427 0.0
H357 H 0.09589 0.56095 0.28104 0.0
H358 H 0.99571 0.65792 0.79459 0.0
H359 H 1.00324 0.5129 0.25863 0.0
H360 H 0.04705 0.55654 0.13418 0.0
H361 H 0.1456 0.51352 0.28861 0.0
H362 H 0.0449 0.5337 0.41537 0.0
H363 H 0.09209 0.37325 0.74568 0.0
H364 H 0.17317 0.45478 0.20957 0.0
H365 H 0.17136 0.40329 0.06813 0.0
H366 H 0.94074 0.69814 0.76132 0.0
H367 H 0.14133 0.37267 0.89606 0.0
H368 H 0.94138 0.5419 0.23585 0.0
N369 N 0.98536 0.62385 0.64642 0.0
C370 C 0.96332 0.61699 0.55242 0.0
C371 C 0.94673 0.67537 0.70219 0.0
C372 C 0.93133 0.63882 0.53145 0.0
C373 C 0.97768 0.65255 0.72105 0.0
C374 C 0.92343 0.66847 0.60713 0.0
N375 N 1.00421 0.56793 0.49757 0.0
C376 C 1.01685 0.54414 0.41356 0.0
C377 C 0.94841 0.57838 0.3848 0.0
C378 C 0.97209 0.58727 0.47921 0.0
C379 C 0.95893 0.54982 0.30865 0.0
C380 C 0.99378 0.53333 0.32135 0.0
H381 H 0.89915 0.68586 0.59382 0.0
H382 H 0.88258 0.64567 0.42234 0.0
H383 H 0.89724 0.59246 0.29501 0.0
O384 O 0.0833 0.5996 0.55042 0.0
O385 O 0.97932 0.57239 0.74213 0.0
O386 O 0.9816 0.50919 0.75502 0.0
O387 O 0.04881 0.64294 0.62147 0.0
O388 O 0.05953 0.52641 0.61323 0.0
O389 O 1.01899 0.48623 0.70356 0.0
O390 O 0.97848 0.49612 1.00694 0.0
O391 O 0.08645 0.51638 0.83351 0.0
O392 O 0.0845 0.57942 0.80289 0.0
O393 O 1.01166 0.44818 0.96221 0.0
O394 O 1.011 0.56147 0.96402 0.0
O395 O 0.04363 0.60516 0.8552 0.0
C396 C 0.96235 0.53976 0.73625 0.0
C397 C 0.11301 0.65559 0.6105 0.0
C398 C 0.17907 0.66897 0.5891 0.0
C399 C 0.17968 0.68667 0.6976 0.0
C400 C 0.11364 0.67394 0.71897 0.0
C401 C 0.14679 0.68959 0.7616 0.0
C402 C 0.1457 0.65386 0.54555 0.0
C403 C 0.04209 0.49369 0.61836 0.0
C404 C 0.07962 0.63542 0.56852 0.0
C405 C 0.90757 0.6296 0.43859 0.0
C406 C 0.91577 0.59911 0.36663 0.0
C407 C 0.10301 0.54926 0.83303 0.0
C408 C 0.94695 0.43991 0.95952 0.0
C409 C 0.8809 0.4263 0.97744 0.0
C410 C 0.88083 0.4089 0.86847 0.0
C411 C 0.94687 0.42199 0.85037 0.0
C412 C 0.914 0.44146 0.02291 0.0
C413 C 0.91399 0.40635 0.80577 0.0
C414 C 1.02537 0.59551 0.94973 0.0
C415 C 0.98023 0.45966 1.00349 0.0
H416 H 0.20546 0.69782 0.73281 0.0
H417 H 0.08884 0.67546 0.77209 0.0
H418 H 0.14715 0.70319 0.84566 0.0
H419 H 0.14562 0.63916 0.46296 0.0
H420 H 0.85524 0.39778 0.83186 0.0
H421 H 0.97192 0.4208 0.79832 0.0
H422 H 0.9137 0.45597 0.10584 0.0
H423 H 0.91406 0.39306 0.72125 0.0
C424 C 0.15201 0.09189 0.33606 0.0
C425 C 0.18315 0.06821 0.34209 0.0
H426 H 0.09988 0.10849 0.41261 0.0
C427 C 0.1848 0.04197 0.43229 0.0
H428 H 0.1503 0.1126 0.26805 0.0
C429 C 0.15601 0.03944 0.51456 0.0
C430 C 0.12458 0.06309 0.50919 0.0
H431 H 0.20848 1.02344 0.43985 0.0
H432 H 0.15849 1.01872 0.58258 0.0
C433 C 0.12308 0.0894 0.41852 0.0
C434 C 0.49039 0.1797 0.41254 0.0
C435 C 0.51706 0.1846 0.32452 0.0
H436 H 0.47183 0.14663 0.55785 0.0
C437 C 0.54536 0.15772 0.31468 0.0
H438 H 0.46803 0.1997 0.42231 0.0
C439 C 0.54753 0.12719 0.39189 0.0
C440 C 0.52149 0.12273 0.48222 0.0
H441 H 0.566 0.16041 0.24749 0.0
H442 H 0.57028 0.1076 0.38268 0.0
C443 C 0.49256 0.1492 0.49021 0.0
C444 C 0.42026 0.50739 0.37366 0.0
C445 C 0.3957 0.53719 0.35241 0.0
H446 H 0.46732 0.48709 0.47136 0.0
C447 C 0.4001 0.57015 0.41777 0.0
H448 H 0.41703 0.48144 0.32627 0.0
C449 C 0.42814 0.57312 0.50295 0.0
C450 C 0.45309 0.54345 0.52396 0.0
H451 H 0.38176 0.59369 0.40351 0.0
H452 H 0.43051 0.59897 0.55186 0.0
C453 C 0.44891 0.51058 0.45731 0.0
C454 C 1.01824 0.41482 0.40389 0.0
C455 C 0.05164 0.41008 0.34238 0.0
H456 H 0.98927 0.4443 0.53892 0.0
C457 C 0.08209 0.4332 0.37197 0.0
H458 H 0.99415 0.39766 0.38349 0.0
C459 C 0.07907 0.46083 0.45941 0.0
C460 C 0.04576 0.46527 0.52218 0.0
H461 H 0.10842 0.42967 0.32818 0.0
H462 H 0.10305 0.4782 0.47951 0.0
C463 C 1.01547 0.44168 0.49323 0.0
C464 C 0.93631 0.99337 0.1726 0.0
C465 C 0.91057 1.02205 0.19473 0.0
H466 H 0.98249 0.97439 0.06908 0.0
C467 C 0.91148 0.05403 0.12414 0.0
H468 H 0.93579 0.96813 0.22424 0.0
C469 C 0.93771 0.05744 0.0341 0.0
C470 C 0.96405 1.02908 1.01259 0.0
H471 H 0.89189 0.07653 0.13865 0.0
H472 H 0.93768 0.0827 0.98224 0.0
C473 C 0.9629 0.9969 0.0832 0.0
C474 C 0.53428 0.9511 0.20037 0.0
C475 C 0.55808 0.91995 0.19388 0.0
H476 H 0.51548 1.00236 0.12121 0.0
C477 C 0.58194 0.91733 0.09765 0.0
H478 H 0.51493 0.95357 0.27154 0.0
C479 C 0.58177 0.94487 1.00994 0.0
C480 C 0.55809 0.97628 1.01632 0.0
H481 H 0.60058 0.89372 0.08945 0.0
H482 H 0.60018 0.94144 0.9364 0.0
C483 C 0.53459 0.97911 0.11377 0.0
C484 C 0.67022 0.53675 0.1293 0.0
C485 C 0.67134 0.56559 0.21235 0.0
H486 H 0.64304 0.51339 0.97949 0.0
C487 C 0.64424 0.59383 0.20546 0.0
H488 H 0.69048 0.51444 0.13174 0.0
C489 C 0.61652 0.59318 0.11812 0.0
C490 C 0.61546 0.56439 0.03429 0.0
H491 H 0.64475 0.61657 0.26742 0.0
H492 H 0.59626 0.6155 0.1151 0.0
C493 C 0.64289 0.53626 0.04141 0.0
C494 C 0.04864 0.67985 0.14542 0.0
C495 C 1.0205 0.67851 0.22988 0.0
H496 H 0.0722 0.65521 0.99206 0.0
C497 C 0.99367 0.64981 0.22141 0.0
H498 H 0.06972 0.70163 0.14906 0.0
C499 C 0.99512 0.62281 0.13158 0.0
C500 C 1.02329 0.62403 0.04665 0.0
H501 H 0.97138 0.64854 0.28404 0.0
H502 H 0.97379 0.60136 0.12724 0.0
C503 C 0.04992 0.65319 0.05498 0.0
C504 C 0.96928 0.2762 0.43831 0.0
C505 C 0.95704 0.27485 0.32243 0.0
H506 H 0.96466 0.25132 0.60643 0.0
C507 C 0.92343 0.25641 0.29563 0.0
H508 H 0.99502 0.29033 0.46143 0.0
C509 C 0.9063 0.23389 0.37852 0.0
C510 C 0.92233 0.23037 0.48889 0.0
H511 H 0.91312 0.25564 0.20716 0.0
H512 H 0.88357 0.21569 0.35209 0.0
C513 C 0.95184 0.25399 0.52157 0.0
C514 C 0.31462 0.97032 0.40054 0.0
C515 C 0.31159 0.96145 0.28205 0.0
H516 H 0.34555 0.96121 0.55674 0.0
C517 C 0.32739 0.92796 0.24131 0.0
H518 H 0.30243 0.99573 0.43481 0.0
C519 C 0.35229 0.90826 0.31135 0.0
C520 C 0.36114 0.92193 0.4223 0.0
H521 H 0.32479 0.92015 0.1507 0.0
H522 H 0.3685 0.88598 0.27271 0.0
C523 C 0.33941 0.95058 0.47055 0.0
C524 C 0.59382 0.32788 0.46048 0.0
C525 C 0.608 0.32695 0.34708 0.0
H526 H 0.59803 0.35353 0.62827 0.0
C527 C 0.64296 0.34313 0.32433 0.0
H528 H 0.56673 0.31598 0.47963 0.0
C529 C 0.66059 0.36486 0.40887 0.0
C530 C 0.64366 0.37002 0.51708 0.0
H531 H 0.65448 0.34247 0.23751 0.0
H532 H 0.68512 0.38093 0.38555 0.0
C533 C 0.61168 0.34936 0.54546 0.0
C534 C 0.25655 0.61345 0.46851 0.0
C535 C 0.25607 0.62665 0.35374 0.0
H536 H 0.23214 0.61808 0.63741 0.0
C537 C 0.23857 0.66084 0.32907 0.0
H538 H 0.26981 0.58714 0.48971 0.0
C539 C 0.21694 0.67832 0.41331 0.0
C540 C 0.2132 0.66207 0.52322 0.0
H541 H 0.2383 0.67179 0.24144 0.0
H542 H 0.19996 0.70205 0.38886 0.0
C543 C 0.23512 0.63117 0.55314 0.0
C544 C 0.04303 0.86307 0.08623 0.0
C545 C 0.05965 0.83396 0.14848 0.0
H546 H 0.05066 0.90534 0.95765 0.0
C547 C 0.0946 0.82045 0.11493 0.0
H548 H 1.01582 0.87345 0.11052 0.0
C549 C 0.11502 0.83926 0.03043 0.0
C550 C 0.10037 0.8715 0.97827 0.0
H551 H 0.10768 0.79785 0.16236 0.0
H552 H 0.14358 0.83093 1.01562 0.0
C553 C 0.06305 0.88128 0.99959 0.0
C554 C 0.71704 1.00213 0.06607 0.0
C555 C 0.75389 1.01102 0.09708 0.0
H556 H 0.66342 1.02521 0.03834 0.0
C557 C 0.76931 0.0441 0.05103 0.0
H558 H 0.705 0.97556 0.09198 0.0
C559 C 0.74563 0.07297 1.01746 0.0
C560 C 0.70691 0.06804 0.02651 0.0
H561 H 0.79847 0.05093 0.06353 0.0
H562 H 0.75756 0.10026 0.99975 0.0
C563 C 0.69298 1.03116 0.03639 0.0
C564 C 0.42373 0.76956 0.23103 0.0
C565 C 0.45794 0.78703 0.2064 0.0
H566 H 0.38254 0.7306 0.17068 0.0
C567 C 0.47046 0.78843 0.09102 0.0
H568 H 0.41321 0.7688 0.31907 0.0
C569 C 0.45246 0.7672 1.00583 0.0
C570 C 0.42204 0.74453 0.03601 0.0
H571 H 0.49667 0.80186 0.06955 0.0
H572 H 0.46528 0.76455 0.92114 0.0
C573 C 0.406 0.74804 0.1462 0.0
C574 C 0.80461 0.48251 0.0989 0.0
C575 C 0.80517 0.46899 0.21327 0.0
H576 H 0.82854 0.47782 0.92947 0.0
C577 C 0.82155 0.43415 0.23641 0.0
H578 H 0.79213 0.5093 0.07891 0.0
C579 C 0.84242 0.41631 0.1511 0.0
C580 C 0.84651 0.43296 0.04189 0.0
H581 H 0.82179 0.42296 0.32376 0.0
H582 H 0.85887 0.3921 0.17451 0.0
C583 C 0.82529 0.46446 1.01323 0.0
C584 C 0.99286 0.20545 0.94247 0.0
C585 C 1.02393 0.22773 0.97539 0.0
H586 H 0.97244 0.15379 0.87142 0.0
C587 C 0.05913 0.21581 0.93615 0.0
H588 H 0.96484 0.21412 0.96371 0.0
C589 C 0.06311 0.1814 0.87571 0.0
C590 C 0.03247 0.15708 0.85758 0.0
H591 H 0.08381 0.23213 0.95612 0.0
H592 H 0.09042 0.17336 0.84588 0.0
C593 C 0.99709 0.17062 0.88741 0.0
C594 C 0.3773 1.01608 0.90226 0.0
C595 C 0.36443 0.04333 0.98126 0.0
H596 H 0.42155 0.99676 0.79299 0.0
C597 C 0.38751 0.07453 1.00289 0.0
H598 H 0.36047 0.99149 0.88401 0.0
C599 C 0.4231 0.07739 0.95151 0.0
C600 C 0.43667 0.04917 0.87657 0.0
H601 H 0.37897 0.09569 0.06471 0.0
H602 H 0.44043 0.10124 0.97373 0.0
C603 C 0.41266 1.01896 0.85067 0.0
C604 C 0.57752 0.39496 0.95746 0.0
C605 C 0.54566 0.3745 0.99305 0.0
H606 H 0.60001 0.44508 0.88256 0.0
C607 C 0.5107 0.38891 0.96013 0.0
H608 H 0.60515 0.38467 0.97713 0.0
C609 C 0.50788 0.42367 0.9014 0.0
C610 C 0.53975 0.44568 0.87655 0.0
H611 H 0.48543 0.37427 0.98434 0.0
H612 H 0.48056 0.43373 0.87814 0.0
C613 C 0.57464 0.42987 0.90194 0.0
C614 C 0.19868 0.52591 0.96684 0.0
C615 C 0.2122 0.56162 0.9981 0.0
H616 H 0.15489 0.49394 0.88526 0.0
C617 C 0.19174 0.59294 0.95908 0.0
H618 H 0.21349 0.50105 0.99378 0.0
C619 C 0.15728 0.5888 0.90246 0.0
C620 C 0.14221 0.55316 0.87943 0.0
H621 H 0.20153 0.62107 0.97745 0.0
H622 H 0.14181 0.61377 0.88076 0.0
C623 C 0.16446 0.52182 0.90678 0.0
C624 C 0.07389 0.89103 0.55736 0.0
C625 C 0.04185 0.86787 0.55981 0.0
H626 H 0.09948 0.94328 0.60646 0.0
C627 C 1.01277 0.87858 0.63489 0.0
H628 H 0.09703 0.8839 0.50148 0.0
C629 C 1.01465 0.91281 0.69764 0.0
C630 C 0.04549 0.93722 0.68636 0.0
H631 H 0.98747 0.86202 0.63839 0.0
H632 H 0.9908 0.92145 0.74827 0.0
C633 C 0.07547 0.92519 0.61812 0.0
C634 C 0.69297 0.05095 0.4505 0.0
C635 C 0.72004 1.02662 0.49726 0.0
H636 H 0.6382 0.07421 0.46314 0.0
C637 C 0.71285 1.01105 0.60747 0.0
H638 H 0.69742 0.06396 0.36674 0.0
C639 C 0.67862 1.01798 0.6651 0.0
C640 C 0.65062 0.03988 0.61238 0.0
H641 H 0.7327 0.99202 0.6461 0.0
H642 H 0.67323 1.00454 0.74757 0.0
C643 C 0.65876 0.0568 0.5056 0.0
C644 C 0.55732 0.72411 0.59593 0.0
C645 C 0.52265 0.73723 0.5551 0.0
H646 H 0.58698 0.68088 0.68825 0.0
C647 C 0.49084 0.71589 0.58649 0.0
H648 H 0.58257 0.73959 0.57701 0.0
C649 C 0.49377 0.68113 0.64271 0.0
C650 C 0.52852 0.66651 0.67533 0.0
H651 H 0.46317 0.72535 0.56369 0.0
H652 H 0.46853 0.66517 0.65751 0.0
C653 C 0.56003 0.68969 0.65712 0.0
C654 C 0.87434 0.49855 0.59876 0.0
C655 C 0.85273 0.53043 0.57137 0.0
H656 H 0.92542 0.4766 0.66547 0.0
C657 C 0.865 0.56501 0.61725 0.0
H658 H 0.86533 0.47085 0.57218 0.0
C659 C 0.89925 0.56779 0.6784 0.0
C660 C 0.92295 0.53659 0.69079 0.0
H661 H 0.84914 0.5902 0.60161 0.0
H662 H 0.90773 0.59468 0.71283 0.0
C663 C 0.90898 0.50167 0.65456 0.0
loop_
_geom_bond_atom_site_label_1
_geom_bond_atom_site_label_2
_geom_bond_distance
_geom_bond_site_symmetry_2
_ccdc_geom_bond_type
H0 C3 0.929 . S
H1 C6 0.929 . S
H2 C8 0.930 . S
C3 H0 0.929 . S
C3 C4 1.398 . S
C3 C5 1.396 . S
C4 C3 1.398 . S
C4 C8 1.407 . S
C5 C3 1.396 . S
C5 C6 1.394 . S
C6 H1 0.929 . S
C6 C5 1.394 . S
C6 C7 1.382 . S
C7 C6 1.382 . S
C7 C8 1.392 . S
C7 N9 1.420 . S
C8 H2 0.930 . S
C8 C4 1.407 . S
C8 C7 1.392 . S
N9 C7 1.420 . S
N9 C10 1.244 . S
C10 N9 1.244 . S
H11 C14 0.929 . S
H12 C17 0.929 . S
H13 C19 0.930 . S
C14 H11 0.929 . S
C14 C15 1.398 . S
C14 C16 1.396 . S
C15 C14 1.398 . S
C15 C19 1.407 . S
C16 C14 1.396 . S
C16 C17 1.394 . S
C17 H12 0.929 . S
C17 C16 1.394 . S
C17 C18 1.382 . S
C18 C17 1.382 . S
C18 C19 1.392 . S
C18 N20 1.420 1_655 S
C19 H13 0.930 . S
C19 C15 1.407 . S
C19 C18 1.392 . S
N20 C18 1.420 1_455 S
N20 C21 1.244 1_455 S
C21 N20 1.244 1_655 S
H22 C25 0.929 . S
H23 C28 0.929 . S
H24 C30 0.932 . S
C25 H22 0.929 . S
C25 C26 1.398 . S
C25 C27 1.396 . S
C26 C25 1.398 . S
C26 C30 1.407 . S
C27 C25 1.396 . S
C27 C28 1.394 . S
C28 H23 0.929 . S
C28 C27 1.394 . S
C28 C29 1.382 . S
C29 C28 1.382 . S
C29 C30 1.392 . S
C29 N31 1.420 1_565 S
C30 H24 0.932 . S
C30 C26 1.407 . S
C30 C29 1.392 . S
N31 C29 1.420 1_545 S
N31 C32 1.244 1_545 S
C32 N31 1.244 1_565 S
H33 C36 0.929 . S
H34 C39 0.929 . S
H35 C41 0.930 . S
C36 H33 0.929 . S
C36 C37 1.398 . S
C36 C38 1.396 . S
C37 C36 1.398 . S
C37 C41 1.407 . S
C38 C36 1.396 . S
C38 C39 1.394 . S
C39 H34 0.929 . S
C39 C38 1.394 . S
C39 C40 1.382 . S
C40 C39 1.382 . S
C40 C41 1.392 . S
C40 N42 1.420 . S
C41 H35 0.930 . S
C41 C37 1.407 . S
C41 C40 1.392 . S
N42 C40 1.420 . S
N42 C43 1.244 . S
C43 N42 1.244 . S
H44 C47 0.929 . S
H45 C50 0.929 . S
H46 C52 0.930 . S
C47 H44 0.929 . S
C47 C48 1.398 1_554 S
C47 C49 1.396 . S
C48 C47 1.398 1_556 S
C48 C52 1.407 . S
C49 C47 1.396 . S
C49 C50 1.394 . S
C50 H45 0.929 . S
C50 C49 1.394 . S
C50 C51 1.382 . S
C51 C50 1.382 . S
C51 C52 1.392 1_554 S
C51 N53 1.420 . S
C52 H46 0.930 . S
C52 C48 1.407 . S
C52 C51 1.392 1_556 S
N53 C51 1.420 . S
N53 C54 1.244 . S
C54 N53 1.244 . S
H55 C58 0.929 . S
H56 C61 0.929 . S
H57 C63 0.930 . S
C58 H55 0.929 . S
C58 C59 1.398 1_554 S
C58 C60 1.396 . S
C59 C58 1.398 1_556 S
C59 C63 1.407 . S
C60 C58 1.396 . S
C60 C61 1.394 . S
C61 H56 0.929 . S
C61 C60 1.394 . S
C61 C62 1.382 . S
C62 C61 1.382 . S
C62 C63 1.392 1_554 S
C62 N64 1.420 . S
C63 H57 0.930 . S
C63 C59 1.407 . S
C63 C62 1.392 1_556 S
N64 C62 1.420 . S
N64 C65 1.244 . S
C65 N64 1.244 . S
H66 C69 0.929 . S
H67 C72 0.929 . S
H68 C74 0.930 . S
C69 H66 0.929 . S
C69 C70 1.398 1_554 S
C69 C71 1.396 . S
C70 C69 1.398 1_556 S
C70 C74 1.407 . S
C71 C69 1.396 . S
C71 C72 1.394 . S
C72 H67 0.929 . S
C72 C71 1.394 . S
C72 C73 1.382 . S
C73 C72 1.382 . S
C73 C74 1.392 1_554 S
C73 N75 1.420 . S
C74 H68 0.930 . S
C74 C70 1.407 . S
C74 C73 1.392 1_556 S
N75 C73 1.420 . S
N75 C76 1.244 . S
C76 N75 1.244 . S
H77 C80 0.929 . S
H78 C83 0.929 . S
H79 C85 0.930 . S
C80 H77 0.929 . S
C80 C81 1.398 1_554 S
C80 C82 1.396 . S
C81 C80 1.398 1_556 S
C81 C85 1.407 . S
C82 C80 1.396 . S
C82 C83 1.394 . S
C83 H78 0.929 . S
C83 C82 1.394 . S
C83 C84 1.382 . S
C84 C83 1.382 . S
C84 C85 1.392 1_554 S
C84 N86 1.420 . S
C85 H79 0.930 . S
C85 C81 1.407 . S
C85 C84 1.392 1_556 S
N86 C84 1.420 . S
N86 C87 1.244 . S
C87 N86 1.244 . S
Eu88 N117 2.600 . S
Eu88 N123 2.562 . S
Eu88 O132 2.462 . S
Eu88 O133 2.373 1_545 S
Eu88 O135 2.432 . S
Eu88 O136 2.291 1_655 S
Eu88 O140 2.335 1_655 S
Eu88 O143 2.372 . S
Eu88 C152 2.787 . S
C89 N90 1.365 1_554 S
C89 C92 1.405 . S
C89 C96 1.448 . S
N90 C89 1.365 1_556 S
N90 C93 1.319 . S
N90 Eu99 2.600 1_545 S
C91 C93 1.397 . S
C91 C94 1.367 . S
C91 H111 0.931 . S
C92 C89 1.405 . S
C92 C94 1.403 1_554 S
C92 C98 1.439 . S
C93 N90 1.319 . S
C93 C91 1.397 . S
C93 H104 0.930 1_545 S
C94 C91 1.367 . S
C94 C92 1.403 1_556 S
C94 H115 0.929 . S
C95 C96 1.430 . S
C95 C97 1.387 . S
C95 C101 1.404 . S
C96 C89 1.448 . S
C96 C95 1.430 . S
C96 N100 1.351 . S
C97 C95 1.387 . S
C97 C98 1.374 . S
C97 H112 0.931 . S
C98 C92 1.439 . S
C98 C97 1.374 . S
C98 H113 0.931 . S
Eu99 N90 2.600 1_565 S
Eu99 N100 2.562 1_566 S
Eu99 O134 2.335 . S
Eu99 O137 2.372 . S
Eu99 O138 2.462 . S
Eu99 O139 2.373 1_565 S
Eu99 O141 2.432 . S
Eu99 O142 2.291 1_465 S
Eu99 C163 2.787 . S
N100 C96 1.351 . S
N100 Eu99 2.562 1_544 S
N100 C102 1.325 . S
C101 C95 1.404 . S
C101 C103 1.366 . S
C101 H109 0.930 . S
C102 N100 1.325 . S
C102 C103 1.416 . S
C102 H108 0.929 . S
C103 C101 1.366 . S
C103 C102 1.416 . S
C103 H105 0.930 . S
H104 C93 0.930 1_565 S
H105 C103 0.930 . S
H106 C121 0.930 . S
H107 C128 0.930 1_455 S
H108 C102 0.929 . S
H109 C101 0.930 . S
H110 C124 0.929 1_455 S
H111 C91 0.931 . S
H112 C97 0.931 . S
H113 C98 0.931 . S
H114 C119 0.931 . S
H115 C94 0.929 . S
H116 C127 0.930 . S
N117 Eu88 2.600 . S
N117 C118 1.365 1_545 S
N117 C121 1.319 . S
C118 N117 1.365 1_565 S
C118 C120 1.405 . S
C118 C126 1.448 . S
C119 H114 0.931 . S
C119 C121 1.397 . S
C119 C122 1.367 1_545 S
C120 C118 1.405 . S
C120 C122 1.403 . S
C120 C153 1.439 . S
C121 H106 0.930 . S
C121 N117 1.319 . S
C121 C119 1.397 . S
C122 C119 1.367 1_565 S
C122 C120 1.403 . S
C122 H129 0.929 . S
N123 Eu88 2.562 . S
N123 C124 1.325 . S
N123 C126 1.351 1_545 S
C124 H110 0.929 1_655 S
C124 N123 1.325 . S
C124 C128 1.416 1_545 S
C125 C126 1.430 . S
C125 C127 1.404 . S
C125 C154 1.387 . S
C126 C118 1.448 . S
C126 N123 1.351 1_565 S
C126 C125 1.430 . S
C127 H116 0.930 . S
C127 C125 1.404 . S
C127 C128 1.366 . S
C128 H107 0.930 1_655 S
C128 C124 1.416 1_565 S
C128 C127 1.366 . S
H129 C122 0.929 . S
H130 C153 0.931 . S
H131 C154 0.931 . S
O132 Eu88 2.462 . S
O132 C152 1.252 . S
O133 Eu88 2.373 1_565 S
O133 C144 1.249 . S
O134 Eu99 2.335 . S
O134 C144 1.264 1_455 S
O135 Eu88 2.432 . S
O135 C152 1.268 . S
O136 Eu88 2.291 1_455 S
O136 C151 1.255 . S
O137 Eu99 2.372 . S
O137 C151 1.257 1_565 S
O138 Eu99 2.462 . S
O138 C163 1.252 . S
O139 Eu99 2.373 1_545 S
O139 C155 1.249 . S
O140 Eu88 2.335 1_455 S
O140 C155 1.264 . S
O141 Eu99 2.432 . S
O141 C163 1.268 . S
O142 Eu99 2.291 1_645 S
O142 C162 1.255 . S
O143 Eu88 2.372 . S
O143 C162 1.257 . S
C144 O133 1.249 . S
C144 O134 1.264 1_655 S
C145 C148 1.382 . S
C145 C150 1.390 . S
C145 C152 1.506 . S
C146 C147 1.398 . S
C146 C150 1.392 . S
C147 C146 1.398 . S
C147 C149 1.372 . S
C147 H164 0.931 . S
C148 C145 1.382 . S
C148 C149 1.390 . S
C148 H165 0.931 . S
C149 C147 1.372 . S
C149 C148 1.390 . S
C149 H166 0.929 . S
C150 C145 1.390 . S
C150 C146 1.392 . S
C150 H167 0.930 1_655 S
C151 O136 1.255 . S
C151 O137 1.257 1_545 S
C152 Eu88 2.787 . S
C152 O132 1.252 . S
C152 O135 1.268 . S
C152 C145 1.506 . S
C153 C120 1.439 . S
C153 H130 0.931 . S
C153 C154 1.374 . S
C154 C125 1.387 . S
C154 H131 0.931 . S
C154 C153 1.374 . S
C155 O139 1.249 . S
C155 O140 1.264 . S
C156 C159 1.382 . S
C156 C160 1.390 . S
C156 C163 1.506 1_554 S
C157 C158 1.398 . S
C157 C160 1.392 . S
C158 C157 1.398 . S
C158 C161 1.372 . S
C158 H168 0.931 . S
C159 C156 1.382 . S
C159 C161 1.390 . S
C159 H169 0.931 1_554 S
C160 C156 1.390 . S
C160 C157 1.392 . S
C160 H170 0.930 . S
C161 C158 1.372 . S
C161 C159 1.390 . S
C161 H171 0.929 . S
C162 O142 1.255 . S
C162 O143 1.257 . S
C163 Eu99 2.787 . S
C163 O138 1.252 . S
C163 O141 1.268 . S
C163 C156 1.506 1_556 S
H164 C147 0.931 . S
H165 C148 0.931 . S
H166 C149 0.929 . S
H167 C150 0.930 1_455 S
H168 C158 0.931 . S
H169 C159 0.931 1_556 S
H170 C160 0.930 . S
H171 C161 0.929 . S
Eu172 N201 2.600 . S
Eu172 N207 2.562 . S
Eu172 O216 2.462 . S
Eu172 O217 2.373 . S
Eu172 O219 2.432 1_556 S
Eu172 O220 2.291 . S
Eu172 O224 2.335 1_545 S
Eu172 O227 2.372 . S
Eu172 C236 2.787 1_556 S
C173 N174 1.365 . S
C173 C176 1.405 . S
C173 C180 1.448 . S
N174 C173 1.365 . S
N174 C177 1.319 . S
N174 Eu183 2.600 . S
C175 C177 1.397 . S
C175 C178 1.367 . S
C175 H195 0.931 . S
C176 C173 1.405 . S
C176 C178 1.403 . S
C176 C182 1.439 . S
C177 N174 1.319 . S
C177 C175 1.397 . S
C177 H188 0.930 . S
C178 C175 1.367 . S
C178 C176 1.403 . S
C178 H199 0.929 . S
C179 C180 1.430 . S
C179 C181 1.387 . S
C179 C185 1.404 . S
C180 C173 1.448 . S
C180 C179 1.430 . S
C180 N184 1.351 . S
C181 C179 1.387 . S
C181 C182 1.374 . S
C181 H196 0.931 . S
C182 C176 1.439 . S
C182 C181 1.374 . S
C182 H197 0.931 . S
Eu183 N174 2.600 . S
Eu183 N184 2.562 . S
Eu183 O218 2.335 1_565 S
Eu183 O221 2.372 . S
Eu183 O222 2.462 . S
Eu183 O223 2.373 . S
Eu183 O225 2.432 . S
Eu183 O226 2.291 1_565 S
Eu183 C247 2.787 . S
N184 C180 1.351 . S
N184 Eu183 2.562 . S
N184 C186 1.325 . S
C185 C179 1.404 . S
C185 C187 1.366 . S
C185 H193 0.930 . S
C186 N184 1.325 . S
C186 C187 1.416 . S
C186 H192 0.929 . S
C187 C185 1.366 . S
C187 C186 1.416 . S
C187 H189 0.930 . S
H188 C177 0.930 . S
H189 C187 0.930 . S
H190 C205 0.928 1_554 S
H191 C212 0.930 . S
H192 C186 0.929 . S
H193 C185 0.930 . S
H194 C208 0.929 . S
H195 C175 0.931 . S
H196 C181 0.931 . S
H197 C182 0.931 . S
H198 C203 0.931 . S
H199 C178 0.929 . S
H200 C211 0.930 . S
N201 Eu172 2.600 . S
N201 C202 1.365 . S
N201 C205 1.321 . S
C202 N201 1.365 . S
C202 C204 1.405 . S
C202 C210 1.448 . S
C203 H198 0.931 . S
C203 C205 1.396 1_554 S
C203 C206 1.367 1_554 S
C204 C202 1.405 . S
C204 C206 1.403 . S
C204 C237 1.439 . S
C205 H190 0.928 1_556 S
C205 N201 1.321 . S
C205 C203 1.396 1_556 S
C206 C203 1.367 1_556 S
C206 C204 1.403 . S
C206 H213 0.929 1_556 S
N207 Eu172 2.562 . S
N207 C208 1.325 . S
N207 C210 1.351 . S
C208 H194 0.929 . S
C208 N207 1.325 . S
C208 C212 1.416 . S
C209 C210 1.430 . S
C209 C211 1.404 . S
C209 C238 1.387 . S
C210 C202 1.448 . S
C210 N207 1.351 . S
C210 C209 1.430 . S
C211 H200 0.930 . S
C211 C209 1.404 . S
C211 C212 1.366 . S
C212 H191 0.930 . S
C212 C208 1.416 . S
C212 C211 1.366 . S
H213 C206 0.929 1_554 S
H214 C237 0.931 . S
H215 C238 0.931 . S
O216 Eu172 2.462 . S
O216 C236 1.252 1_556 S
O217 Eu172 2.373 . S
O217 C228 1.249 . S
O218 Eu183 2.335 1_545 S
O218 C228 1.264 . S
O219 Eu172 2.432 1_554 S
O219 C236 1.268 . S
O220 Eu172 2.291 . S
O220 C235 1.261 . S
O221 Eu183 2.372 . S
O221 C235 1.253 1_565 S
O222 Eu183 2.462 . S
O222 C247 1.252 . S
O223 Eu183 2.373 . S
O223 C239 1.249 . S
O224 Eu172 2.335 1_565 S
O224 C239 1.264 . S
O225 Eu183 2.432 . S
O225 C247 1.268 . S
O226 Eu183 2.291 1_545 S
O226 C246 1.255 . S
O227 Eu172 2.372 . S
O227 C246 1.257 . S
C228 O217 1.249 . S
C228 O218 1.264 . S
C229 C232 1.382 . S
C229 C234 1.390 . S
C229 C236 1.506 . S
C230 C231 1.398 . S
C230 C234 1.392 . S
C231 C230 1.398 . S
C231 C233 1.372 . S
C231 H248 0.931 . S
C232 C229 1.382 . S
C232 C233 1.390 . S
C232 H249 0.931 . S
C233 C231 1.372 . S
C233 C232 1.390 . S
C233 H250 0.929 . S
C234 C229 1.390 . S
C234 C230 1.392 . S
C234 H251 0.930 . S
C235 O220 1.261 . S
C235 O221 1.253 1_545 S
C236 Eu172 2.787 1_554 S
C236 O216 1.252 1_554 S
C236 O219 1.268 . S
C236 C229 1.506 . S
C237 C204 1.439 . S
C237 H214 0.931 . S
C237 C238 1.374 . S
C238 C209 1.387 . S
C238 H215 0.931 . S
C238 C237 1.374 . S
C239 O223 1.249 . S
C239 O224 1.264 . S
C240 C243 1.382 . S
C240 C244 1.390 . S
C240 C247 1.506 . S
C241 C242 1.398 . S
C241 C244 1.392 . S
C242 C241 1.398 . S
C242 C245 1.372 . S
C242 H252 0.931 . S
C243 C240 1.382 . S
C243 C245 1.390 . S
C243 H253 0.931 . S
C244 C240 1.390 . S
C244 C241 1.392 . S
C244 H254 0.930 1_565 S
C245 C242 1.372 . S
C245 C243 1.390 . S
C245 H255 0.929 . S
C246 O226 1.255 . S
C246 O227 1.257 . S
C247 Eu183 2.787 . S
C247 O222 1.252 . S
C247 O225 1.268 . S
C247 C240 1.506 . S
H248 C231 0.931 . S
H249 C232 0.931 . S
H250 C233 0.929 . S
H251 C234 0.930 . S
H252 C242 0.931 . S
H253 C243 0.931 . S
H254 C244 0.930 1_545 S
H255 C245 0.929 . S
Eu256 N285 2.600 . S
Eu256 N291 2.562 . S
Eu256 O300 2.462 . S
Eu256 O301 2.373 . S
Eu256 O303 2.432 . S
Eu256 O304 2.291 . S
Eu256 O308 2.335 . S
Eu256 O311 2.372 . S
Eu256 C320 2.787 . S
C257 N258 1.365 1_554 S
C257 C260 1.405 . S
C257 C264 1.448 . S
N258 C257 1.365 1_556 S
N258 C261 1.319 . S
N258 Eu267 2.600 . S
C259 C261 1.397 . S
C259 C262 1.367 . S
C259 H279 0.931 . S
C260 C257 1.405 . S
C260 C262 1.403 1_554 S
C260 C266 1.439 . S
C261 N258 1.319 . S
C261 C259 1.397 . S
C261 H272 0.930 . S
C262 C259 1.367 . S
C262 C260 1.403 1_556 S
C262 H283 0.929 . S
C263 C264 1.430 . S
C263 C265 1.387 . S
C263 C269 1.404 . S
C264 C257 1.448 . S
C264 C263 1.430 . S
C264 N268 1.351 . S
C265 C263 1.387 . S
C265 C266 1.374 . S
C265 H280 0.931 . S
C266 C260 1.439 . S
C266 C265 1.374 . S
C266 H281 0.931 . S
Eu267 N258 2.600 . S
Eu267 N268 2.562 1_556 S
Eu267 O302 2.335 . S
Eu267 O305 2.372 . S
Eu267 O306 2.462 . S
Eu267 O307 2.373 . S
Eu267 O309 2.432 . S
Eu267 O310 2.291 . S
Eu267 C331 2.787 . S
N268 C264 1.351 . S
N268 Eu267 2.562 1_554 S
N268 C270 1.325 . S
C269 C263 1.404 . S
C269 C271 1.366 . S
C269 H277 0.930 . S
C270 N268 1.325 . S
C270 C271 1.416 . S
C270 H276 0.929 . S
C271 C269 1.366 . S
C271 C270 1.416 . S
C271 H273 0.930 . S
H272 C261 0.930 . S
H273 C271 0.930 . S
H274 C289 0.930 . S
H275 C296 0.930 . S
H276 C270 0.929 . S
H277 C269 0.930 . S
H278 C292 0.929 . S
H279 C259 0.931 . S
H280 C265 0.931 . S
H281 C266 0.931 . S
H282 C287 0.931 . S
H283 C262 0.929 . S
H284 C295 0.930 . S
N285 Eu256 2.600 . S
N285 C286 1.365 . S
N285 C289 1.319 . S
C286 N285 1.365 . S
C286 C288 1.405 . S
C286 C294 1.448 . S
C287 H282 0.931 . S
C287 C289 1.397 . S
C287 C290 1.367 . S
C288 C286 1.405 . S
C288 C290 1.403 . S
C288 C321 1.439 . S
C289 H274 0.930 . S
C289 N285 1.319 . S
C289 C287 1.397 . S
C290 C287 1.367 . S
C290 C288 1.403 . S
C290 H297 0.929 . S
N291 Eu256 2.562 . S
N291 C292 1.325 . S
N291 C294 1.351 . S
C292 H278 0.929 . S
C292 N291 1.325 . S
C292 C296 1.416 . S
C293 C294 1.430 . S
C293 C295 1.404 . S
C293 C322 1.387 . S
C294 C286 1.448 . S
C294 N291 1.351 . S
C294 C293 1.430 . S
C295 H284 0.930 . S
C295 C293 1.404 . S
C295 C296 1.366 . S
C296 H275 0.930 . S
C296 C292 1.416 . S
C296 C295 1.366 . S
H297 C290 0.929 . S
H298 C321 0.931 . S
H299 C322 0.931 . S
O300 Eu256 2.462 . S
O300 C320 1.252 . S
O301 Eu256 2.373 . S
O301 C312 1.249 . S
O302 Eu267 2.335 . S
O302 C312 1.264 . S
O303 Eu256 2.432 . S
O303 C320 1.268 . S
O304 Eu256 2.291 . S
O304 C319 1.255 . S
O305 Eu267 2.372 . S
O305 C319 1.257 . S
O306 Eu267 2.462 . S
O306 C331 1.252 . S
O307 Eu267 2.373 . S
O307 C323 1.249 . S
O308 Eu256 2.335 . S
O308 C323 1.264 . S
O309 Eu267 2.432 . S
O309 C331 1.268 . S
O310 Eu267 2.291 . S
O310 C330 1.255 . S
O311 Eu256 2.372 . S
O311 C330 1.257 . S
C312 O301 1.249 . S
C312 O302 1.264 . S
C313 C316 1.382 . S
C313 C318 1.390 . S
C313 C320 1.506 . S
C314 C315 1.398 . S
C314 C318 1.392 . S
C315 C314 1.398 . S
C315 C317 1.372 . S
C315 H332 0.931 . S
C316 C313 1.382 . S
C316 C317 1.390 . S
C316 H333 0.931 . S
C317 C315 1.372 . S
C317 C316 1.390 . S
C317 H334 0.929 . S
C318 C313 1.390 . S
C318 C314 1.392 . S
C318 H335 0.930 . S
C319 O304 1.255 . S
C319 O305 1.257 . S
C320 Eu256 2.787 . S
C320 O300 1.252 . S
C320 O303 1.268 . S
C320 C313 1.506 . S
C321 C288 1.439 . S
C321 H298 0.931 . S
C321 C322 1.374 . S
C322 C293 1.387 . S
C322 H299 0.931 . S
C322 C321 1.374 . S
C323 O307 1.249 . S
C323 O308 1.264 . S
C324 C327 1.382 . S
C324 C328 1.390 . S
C324 C331 1.506 1_554 S
C325 C326 1.398 . S
C325 C328 1.392 . S
C326 C325 1.398 . S
C326 C329 1.372 . S
C326 H336 0.931 . S
C327 C324 1.382 . S
C327 C329 1.390 . S
C327 H337 0.931 1_554 S
C328 C324 1.390 . S
C328 C325 1.392 . S
C328 H338 0.930 . S
C329 C326 1.372 . S
C329 C327 1.390 . S
C329 H339 0.929 . S
C330 O310 1.255 . S
C330 O311 1.257 . S
C331 Eu267 2.787 . S
C331 O306 1.252 . S
C331 O309 1.268 . S
C331 C324 1.506 1_556 S
H332 C315 0.931 . S
H333 C316 0.931 . S
H334 C317 0.929 . S
H335 C318 0.930 . S
H336 C326 0.931 . S
H337 C327 0.931 1_556 S
H338 C328 0.930 . S
H339 C329 0.929 . S
Eu340 N369 2.600 . S
Eu340 N375 2.562 . S
Eu340 O384 2.462 . S
Eu340 O385 2.373 1_455 S
Eu340 O387 2.432 . S
Eu340 O388 2.291 . S
Eu340 O392 2.335 . S
Eu340 O395 2.372 . S
Eu340 C404 2.787 . S
C341 N342 1.365 1_554 S
C341 C344 1.405 . S
C341 C348 1.448 . S
N342 C341 1.365 1_556 S
N342 C345 1.320 . S
N342 Eu351 2.600 1_455 S
C343 C345 1.401 . S
C343 C346 1.367 . S
C343 H363 0.931 . S
C344 C341 1.405 . S
C344 C346 1.403 1_554 S
C344 C350 1.439 . S
C345 N342 1.320 . S
C345 C343 1.401 . S
C345 H356 0.924 1_455 S
C346 C343 1.367 . S
C346 C344 1.403 1_556 S
C346 H367 0.929 . S
C347 C348 1.430 . S
C347 C349 1.387 . S
C347 C353 1.404 . S
C348 C341 1.448 . S
C348 C347 1.430 . S
C348 N352 1.351 . S
C349 C347 1.387 . S
C349 C350 1.374 . S
C349 H364 0.931 . S
C350 C344 1.439 . S
C350 C349 1.374 . S
C350 H365 0.931 . S
Eu351 N342 2.600 1_655 S
Eu351 N352 2.562 1_656 S
Eu351 O386 2.335 . S
Eu351 O389 2.372 . S
Eu351 O390 2.462 . S
Eu351 O391 2.373 1_655 S
Eu351 O393 2.432 . S
Eu351 O394 2.291 1_655 S
Eu351 C415 2.787 . S
N352 C348 1.351 . S
N352 Eu351 2.562 1_454 S
N352 C354 1.325 . S
C353 C347 1.404 . S
C353 C355 1.366 . S
C353 H361 0.930 . S
C354 N352 1.325 . S
C354 C355 1.416 . S
C354 H360 0.929 . S
C355 C353 1.366 . S
C355 C354 1.416 . S
C355 H357 0.930 . S
H356 C345 0.924 1_655 S
H357 C355 0.930 . S
H358 C373 0.930 . S
H359 C380 0.930 . S
H360 C354 0.929 . S
H361 C353 0.930 . S
H362 C376 0.929 . S
H363 C343 0.931 . S
H364 C349 0.931 . S
H365 C350 0.931 . S
H366 C371 0.931 . S
H367 C346 0.929 . S
H368 C379 0.930 . S
N369 Eu340 2.600 . S
N369 C370 1.365 1_455 S
N369 C373 1.319 . S
C370 N369 1.365 1_655 S
C370 C372 1.405 . S
C370 C378 1.448 . S
C371 H366 0.931 . S
C371 C373 1.397 . S
C371 C374 1.367 1_455 S
C372 C370 1.405 . S
C372 C374 1.403 . S
C372 C405 1.439 . S
C373 H358 0.930 . S
C373 N369 1.319 . S
C373 C371 1.397 . S
C374 C371 1.367 1_655 S
C374 C372 1.403 . S
C374 H381 0.929 . S
N375 Eu340 2.562 . S
N375 C376 1.325 . S
N375 C378 1.351 1_455 S
C376 H362 0.929 . S
C376 N375 1.325 . S
C376 C380 1.416 1_455 S
C377 C378 1.430 . S
C377 C379 1.404 . S
C377 C406 1.387 . S
C378 C370 1.448 . S
C378 N375 1.351 1_655 S
C378 C377 1.430 . S
C379 H368 0.930 . S
C379 C377 1.404 . S
C379 C380 1.366 . S
C380 H359 0.930 . S
C380 C376 1.416 1_655 S
C380 C379 1.366 . S
H381 C374 0.929 . S
H382 C405 0.931 . S
H383 C406 0.931 . S
O384 Eu340 2.462 . S
O384 C404 1.252 . S
O385 Eu340 2.373 1_655 S
O385 C396 1.249 . S
O386 Eu351 2.335 . S
O386 C396 1.264 . S
O387 Eu340 2.432 . S
O387 C404 1.268 . S
O388 Eu340 2.291 . S
O388 C403 1.255 . S
O389 Eu351 2.372 . S
O389 C403 1.257 1_655 S
O390 Eu351 2.462 . S
O390 C415 1.252 . S
O391 Eu351 2.373 1_455 S
O391 C407 1.249 . S
O392 Eu340 2.335 . S
O392 C407 1.264 . S
O393 Eu351 2.432 . S
O393 C415 1.268 . S
O394 Eu351 2.291 1_455 S
O394 C414 1.255 . S
O395 Eu340 2.372 . S
O395 C414 1.257 . S
C396 O385 1.249 . S
C396 O386 1.264 . S
C397 C400 1.382 . S
C397 C402 1.390 . S
C397 C404 1.506 . S
C398 C399 1.398 . S
C398 C402 1.392 . S
C399 C398 1.398 . S
C399 C401 1.372 . S
C399 H416 0.931 . S
C400 C397 1.382 . S
C400 C401 1.390 . S
C400 H417 0.931 . S
C401 C399 1.372 . S
C401 C400 1.390 . S
C401 H418 0.929 . S
C402 C397 1.390 . S
C402 C398 1.392 . S
C402 H419 0.930 . S
C403 O388 1.255 . S
C403 O389 1.257 1_455 S
C404 Eu340 2.787 . S
C404 O384 1.252 . S
C404 O387 1.268 . S
C404 C397 1.506 . S
C405 C372 1.439 . S
C405 H382 0.931 . S
C405 C406 1.374 . S
C406 C377 1.387 . S
C406 H383 0.931 . S
C406 C405 1.374 . S
C407 O391 1.249 . S
C407 O392 1.264 . S
C408 C411 1.382 . S
C408 C412 1.390 . S
C408 C415 1.506 1_554 S
C409 C410 1.398 . S
C409 C412 1.392 . S
C410 C409 1.398 . S
C410 C413 1.372 . S
C410 H420 0.931 . S
C411 C408 1.382 . S
C411 C413 1.390 . S
C411 H421 0.931 1_554 S
C412 C408 1.390 . S
C412 C409 1.392 . S
C412 H422 0.930 . S
C413 C410 1.372 . S
C413 C411 1.390 . S
C413 H423 0.929 . S
C414 O394 1.255 . S
C414 O395 1.257 . S
C415 Eu351 2.787 . S
C415 O390 1.252 . S
C415 O393 1.268 . S
C415 C408 1.506 1_556 S
H416 C399 0.931 . S
H417 C400 0.931 . S
H418 C401 0.929 . S
H419 C402 0.930 . S
H420 C410 0.931 . S
H421 C411 0.931 1_556 S
H422 C412 0.930 . S
H423 C413 0.929 . S
C424 C425 1.387 . S
C424 H428 0.950 . S
C424 C433 1.390 . S
C425 C424 1.387 . S
C425 C427 1.378 1_545 S
H426 C433 0.950 . S
C427 C425 1.378 1_565 S
C427 C429 1.391 . S
C427 H431 0.958 . S
H428 C424 0.950 . S
C429 C427 1.391 . S
C429 C430 1.387 1_565 S
C429 H432 0.950 . S
C430 C429 1.387 1_545 S
C430 C433 1.387 . S
H431 C427 0.958 . S
H432 C429 0.950 . S
C433 C424 1.390 . S
C433 H426 0.950 . S
C433 C430 1.387 . S
C434 C435 1.387 . S
C434 H438 0.950 . S
C434 C443 1.390 . S
C435 C434 1.387 . S
C435 C437 1.387 . S
H436 C443 0.950 . S
C437 C435 1.387 . S
C437 C439 1.390 . S
C437 H441 0.950 . S
H438 C434 0.950 . S
C439 C437 1.390 . S
C439 C440 1.387 . S
C439 H442 0.950 . S
C440 C439 1.387 . S
C440 C443 1.387 . S
H441 C437 0.950 . S
H442 C439 0.950 . S
C443 C434 1.390 . S
C443 H436 0.950 . S
C443 C440 1.387 . S
C444 C445 1.387 . S
C444 H448 0.950 . S
C444 C453 1.390 . S
C445 C444 1.387 . S
C445 C447 1.387 . S
H446 C453 0.950 . S
C447 C445 1.387 . S
C447 C449 1.390 . S
C447 H451 0.950 . S
H448 C444 0.950 . S
C449 C447 1.390 . S
C449 C450 1.387 . S
C449 H452 0.950 . S
C450 C449 1.387 . S
C450 C453 1.387 . S
H451 C447 0.950 . S
H452 C449 0.950 . S
C453 C444 1.390 . S
C453 H446 0.950 . S
C453 C450 1.387 . S
C454 C455 1.387 . S
C454 H458 0.950 1_455 S
C454 C463 1.390 . S
C455 C454 1.387 . S
C455 C457 1.387 . S
H456 C463 0.950 1_655 S
C457 C455 1.387 . S
C457 C459 1.390 . S
C457 H461 0.950 . S
H458 C454 0.950 1_655 S
C459 C457 1.390 . S
C459 C460 1.387 . S
C459 H462 0.950 . S
C460 C459 1.387 . S
C460 C463 1.387 . S
H461 C457 0.950 . S
H462 C459 0.950 . S
C463 C454 1.390 . S
C463 H456 0.950 1_455 S
C463 C460 1.387 . S
C464 C465 1.387 . S
C464 H468 0.950 . S
C464 C473 1.390 . S
C465 C464 1.387 . S
C465 C467 1.387 1_565 S
H466 C473 0.950 . S
C467 C465 1.387 1_545 S
C467 C469 1.390 . S
C467 H471 0.950 . S
H468 C464 0.950 . S
C469 C467 1.390 . S
C469 C470 1.371 1_545 S
C469 H472 0.950 . S
C470 C469 1.371 1_565 S
C470 C473 1.407 . S
H471 C467 0.950 . S
H472 C469 0.950 . S
C473 C464 1.390 . S
C473 H466 0.950 . S
C473 C470 1.407 . S
C474 C475 1.387 . S
C474 H478 0.950 . S
C474 C483 1.390 . S
C475 C474 1.387 . S
C475 C477 1.387 . S
H476 C483 0.950 . S
C477 C475 1.387 . S
C477 C479 1.390 . S
C477 H481 0.950 . S
H478 C474 0.950 . S
C479 C477 1.390 . S
C479 C480 1.387 . S
C479 H482 0.950 1_554 S
C480 C479 1.387 . S
C480 C483 1.387 . S
H481 C477 0.950 . S
H482 C479 0.950 1_556 S
C483 C474 1.390 . S
C483 H476 0.950 . S
C483 C480 1.387 . S
C484 C485 1.387 . S
C484 H488 0.950 . S
C484 C493 1.390 . S
C485 C484 1.387 . S
C485 C487 1.387 . S
H486 C493 0.950 . S
C487 C485 1.387 . S
C487 C489 1.390 . S
C487 H491 0.950 . S
H488 C484 0.950 . S
C489 C487 1.390 . S
C489 C490 1.387 . S
C489 H492 0.950 . S
C490 C489 1.387 . S
C490 C493 1.387 . S
H491 C487 0.950 . S
H492 C489 0.950 . S
C493 C484 1.390 . S
C493 H486 0.950 . S
C493 C490 1.387 . S
C494 C495 1.387 1_455 S
C494 H498 0.950 . S
C494 C503 1.390 . S
C495 C494 1.387 1_655 S
C495 C497 1.387 . S
H496 C503 0.950 . S
C497 C495 1.387 . S
C497 C499 1.390 . S
C497 H501 0.950 . S
H498 C494 0.950 . S
C499 C497 1.390 . S
C499 C500 1.387 . S
C499 H502 0.950 1_554 S
C500 C499 1.387 . S
C500 C503 1.387 1_655 S
H501 C497 0.950 . S
H502 C499 0.950 1_556 S
C503 C494 1.390 . S
C503 H496 0.950 . S
C503 C500 1.387 1_455 S
C504 C505 1.387 . S
C504 H508 0.950 . S
C504 C513 1.390 . S
C505 C504 1.387 . S
C505 C507 1.387 . S
H506 C513 0.950 . S
C507 C505 1.387 . S
C507 C509 1.390 1_455 S
C507 H511 0.947 1_455 S
H508 C504 0.950 . S
C509 C507 1.390 1_655 S
C509 C510 1.387 . S
C509 H512 0.950 . S
C510 C509 1.387 . S
C510 C513 1.387 1_655 S
H511 C507 0.947 1_655 S
H512 C509 0.950 . S
C513 C504 1.390 . S
C513 H506 0.950 . S
C513 C510 1.387 1_455 S
C514 C515 1.387 . S
C514 H518 0.950 . S
C514 C523 1.390 . S
C515 C514 1.387 . S
C515 C517 1.387 . S
H516 C523 0.950 . S
C517 C515 1.387 . S
C517 C519 1.390 1_545 S
C517 H521 0.950 1_545 S
H518 C514 0.950 . S
C519 C517 1.390 1_565 S
C519 C520 1.381 1_565 S
C519 H522 0.950 . S
C520 C519 1.381 1_545 S
C520 C523 1.404 . S
H521 C517 0.950 1_565 S
H522 C519 0.950 . S
C523 C514 1.390 . S
C523 H516 0.950 . S
C523 C520 1.404 . S
C524 C525 1.387 . S
C524 H528 0.950 . S
C524 C533 1.390 . S
C525 C524 1.387 . S
C525 C527 1.387 . S
H526 C533 0.950 . S
C527 C525 1.387 . S
C527 C529 1.390 . S
C527 H531 0.950 . S
H528 C524 0.950 . S
C529 C527 1.390 . S
C529 C530 1.387 . S
C529 H532 0.950 . S
C530 C529 1.387 . S
C530 C533 1.387 . S
H531 C527 0.950 . S
H532 C529 0.950 . S
C533 C524 1.390 . S
C533 H526 0.950 . S
C533 C530 1.387 . S
C534 C535 1.387 . S
C534 H538 0.950 . S
C534 C543 1.390 . S
C535 C534 1.387 . S
C535 C537 1.387 . S
H536 C543 0.950 . S
C537 C535 1.387 . S
C537 C539 1.390 . S
C537 H541 0.950 . S
H538 C534 0.950 . S
C539 C537 1.390 . S
C539 C540 1.387 . S
C539 H542 0.950 . S
C540 C539 1.387 . S
C540 C543 1.387 . S
H541 C537 0.950 . S
H542 C539 0.950 . S
C543 C534 1.390 . S
C543 H536 0.950 . S
C543 C540 1.387 . S
C544 C545 1.387 . S
C544 H548 0.950 . S
C544 C553 1.390 1_655 S
C545 C544 1.387 . S
C545 C547 1.395 . S
H546 C553 0.950 . S
C547 C545 1.395 . S
C547 C549 1.380 1_655 S
C547 H551 0.953 . S
H548 C544 0.950 . S
C549 C547 1.380 1_455 S
C549 C550 1.387 . S
C549 H552 0.950 . S
C550 C549 1.387 . S
C550 C553 1.387 . S
H551 C547 0.953 . S
H552 C549 0.950 . S
C553 C544 1.390 1_455 S
C553 H546 0.950 . S
C553 C550 1.387 . S
C554 C555 1.387 . S
C554 H558 0.950 . S
C554 C563 1.390 . S
C555 C554 1.387 . S
C555 C557 1.387 1_565 S
H556 C563 0.950 . S
C557 C555 1.387 1_545 S
C557 C559 1.390 . S
C557 H561 0.950 . S
H558 C554 0.950 . S
C559 C557 1.390 . S
C559 C560 1.387 . S
C559 H562 0.950 . S
C560 C559 1.387 . S
C560 C563 1.387 1_545 S
H561 C557 0.950 . S
H562 C559 0.950 . S
C563 C554 1.390 . S
C563 H556 0.950 . S
C563 C560 1.387 1_565 S
C564 C565 1.387 . S
C564 H568 0.950 . S
C564 C573 1.390 . S
C565 C564 1.387 . S
C565 C567 1.387 . S
H566 C573 0.950 . S
C567 C565 1.387 . S
C567 C569 1.390 . S
C567 H571 0.950 . S
H568 C564 0.950 . S
C569 C567 1.390 . S
C569 C570 1.387 . S
C569 H572 0.950 . S
C570 C569 1.387 . S
C570 C573 1.387 . S
H571 C567 0.950 . S
H572 C569 0.950 . S
C573 C564 1.390 . S
C573 H566 0.950 . S
C573 C570 1.387 . S
C574 C575 1.387 . S
C574 H578 0.950 . S
C574 C583 1.390 . S
C575 C574 1.387 . S
C575 C577 1.387 . S
H576 C583 0.950 . S
C577 C575 1.387 . S
C577 C579 1.390 . S
C577 H581 0.950 . S
H578 C574 0.950 . S
C579 C577 1.390 . S
C579 C580 1.387 . S
C579 H582 0.950 . S
C580 C579 1.387 . S
C580 C583 1.387 . S
H581 C577 0.950 . S
H582 C579 0.950 . S
C583 C574 1.390 . S
C583 H576 0.950 . S
C583 C580 1.387 . S
C584 C585 1.387 . S
C584 H588 0.950 1_455 S
C584 C593 1.390 . S
C585 C584 1.387 . S
C585 C587 1.387 . S
H586 C593 0.950 1_655 S
C587 C585 1.387 . S
C587 C589 1.390 . S
C587 H591 0.950 . S
H588 C584 0.950 1_655 S
C589 C587 1.390 . S
C589 C590 1.387 . S
C589 H592 0.950 . S
C590 C589 1.387 . S
C590 C593 1.387 . S
H591 C587 0.950 . S
H592 C589 0.950 . S
C593 C584 1.390 . S
C593 H586 0.950 1_455 S
C593 C590 1.387 . S
C594 C595 1.387 . S
C594 H598 0.950 1_545 S
C594 C603 1.390 . S
C595 C594 1.387 . S
C595 C597 1.387 . S
H596 C603 0.950 1_565 S
C597 C595 1.387 . S
C597 C599 1.390 . S
C597 H601 0.950 . S
H598 C594 0.950 1_565 S
C599 C597 1.390 . S
C599 C600 1.387 . S
C599 H602 0.950 . S
C600 C599 1.387 . S
C600 C603 1.387 . S
H601 C597 0.950 . S
H602 C599 0.950 . S
C603 C594 1.390 . S
C603 H596 0.950 1_545 S
C603 C600 1.387 . S
C604 C605 1.387 . S
C604 H608 0.950 1_556 S
C604 C613 1.390 . S
C605 C604 1.387 . S
C605 C607 1.387 . S
H606 C613 0.954 . S
C607 C605 1.387 . S
C607 C609 1.390 . S
C607 H611 0.950 . S
H608 C604 0.950 1_554 S
C609 C607 1.390 . S
C609 C610 1.387 . S
C609 H612 0.950 . S
C610 C609 1.387 . S
C610 C613 1.387 . S
H611 C607 0.950 . S
H612 C609 0.950 . S
C613 C604 1.390 . S
C613 H606 0.954 . S
C613 C610 1.387 . S
C614 C615 1.387 . S
C614 H618 0.950 . S
C614 C623 1.390 . S
C615 C614 1.387 . S
C615 C617 1.387 . S
H616 C623 0.950 . S
C617 C615 1.387 . S
C617 C619 1.390 . S
C617 H621 0.950 . S
H618 C614 0.950 . S
C619 C617 1.390 . S
C619 C620 1.387 . S
C619 H622 0.950 . S
C620 C619 1.387 . S
C620 C623 1.387 . S
H621 C617 0.950 . S
H622 C619 0.950 . S
C623 C614 1.390 . S
C623 H616 0.950 . S
C623 C620 1.387 . S
C624 C625 1.387 . S
C624 H628 0.950 . S
C624 C633 1.390 . S
C625 C624 1.387 . S
C625 C627 1.387 . S
H626 C633 0.950 . S
C627 C625 1.387 . S
C627 C629 1.390 . S
C627 H631 0.950 . S
H628 C624 0.950 . S
C629 C627 1.390 . S
C629 C630 1.387 . S
C629 H632 0.950 . S
C630 C629 1.387 . S
C630 C633 1.387 . S
H631 C627 0.950 . S
H632 C629 0.950 . S
C633 C624 1.390 . S
C633 H626 0.950 . S
C633 C630 1.387 . S
C634 C635 1.387 1_545 S
C634 H638 0.950 . S
C634 C643 1.390 . S
C635 C634 1.387 1_565 S
C635 C637 1.387 . S
H636 C643 0.950 . S
C637 C635 1.387 . S
C637 C639 1.390 . S
C637 H641 0.950 . S
H638 C634 0.950 . S
C639 C637 1.390 . S
C639 C640 1.387 . S
C639 H642 0.950 . S
C640 C639 1.387 . S
C640 C643 1.387 1_565 S
H641 C637 0.950 . S
H642 C639 0.950 . S
C643 C634 1.390 . S
C643 H636 0.950 . S
C643 C640 1.387 1_545 S
C644 C645 1.387 . S
C644 H648 0.950 . S
C644 C653 1.390 . S
C645 C644 1.387 . S
C645 C647 1.387 . S
H646 C653 0.950 . S
C647 C645 1.387 . S
C647 C649 1.390 . S
C647 H651 0.950 . S
H648 C644 0.950 . S
C649 C647 1.390 . S
C649 C650 1.387 . S
C649 H652 0.950 . S
C650 C649 1.387 . S
C650 C653 1.387 . S
H651 C647 0.950 . S
H652 C649 0.950 . S
C653 C644 1.390 . S
C653 H646 0.950 . S
C653 C650 1.387 . S
C654 C655 1.387 . S
C654 H658 0.950 . S
C654 C663 1.390 . S
C655 C654 1.387 . S
C655 C657 1.387 . S
H656 C663 0.950 . S
C657 C655 1.387 . S
C657 C659 1.390 . S
C657 H661 0.950 . S
H658 C654 0.950 . S
C659 C657 1.390 . S
C659 C660 1.387 . S
C659 H662 0.950 . S
C660 C659 1.387 . S
C660 C663 1.387 . S
H661 C657 0.950 . S
H662 C659 0.950 . S
C663 C654 1.390 . S
C663 H656 0.950 . S
C663 C660 1.387 . S
C425 C76 1.972 . S
C430 C151 2.183 . S
C440 C228 2.187 . S
C435 C87 1.968 . S
C450 C319 2.184 . S
C445 C54 1.971 . S
C460 C403 2.173 . S
C455 C65 1.966 . S
C470 C162 2.179 1_564 S
C465 C32 1.981 . S
C475 C43 1.972 . S
C480 C239 2.186 1_554 S
C485 C10 1.975 . S
C490 C330 2.183 1_554 S
C495 C21 1.968 . S
C500 C414 2.172 1_654 S
C510 C146 0.765 . S
C505 C60 0.767 . S
C520 C241 0.753 1_545 S
C515 C71 0.754 . S
C530 C314 0.770 . S
C525 C82 0.772 . S
C535 C49 0.755 . S
C540 C398 0.752 . S
C545 C16 0.763 . S
C550 C157 0.770 . S
C560 C230 0.752 . S
C555 C27 0.755 . S
C570 C325 0.770 . S
C565 C38 0.769 . S
C575 C5 0.757 . S
C580 C409 0.756 . S
C585 C59 2.025 . S
C590 C155 2.294 . S
C595 C70 2.035 . S
C600 C246 2.345 . S
C610 C323 2.307 . S
C605 C81 2.036 . S
C620 C407 2.313 . S
C615 C48 2.044 . S
C625 C15 2.024 . S
C630 C144 2.295 . S
C640 C235 2.344 1_565 S
C635 C26 2.034 . S
C650 C312 2.307 . S
C645 C37 2.033 . S
C655 C4 2.040 . S
C660 C396 2.312 . S
