# Generated by pormake.
# Topology llk, (3,12)-cn, num edge types: 1
# Building blocks:
#     Node 0, Type 0, BuildingBlock: BETDIP_clean_linker_0, # of connection points: 3
#     Node 1, Type 0, BuildingBlock: BETDIP_clean_linker_0, # of connection points: 3
#     Node 2, Type 0, BuildingBlock: BETDIP_clean_linker_0, # of connection points: 3
#     Node 3, Type 0, BuildingBlock: BETDIP_clean_linker_0, # of connection points: 3
#     Node 4, Type 0, BuildingBlock: BETDIP_clean_linker_0, # of connection points: 3
#     Node 5, Type 0, BuildingBlock: BETDIP_clean_linker_0, # of connection points: 3
#     Node 6, Type 0, BuildingBlock: BETDIP_clean_linker_0, # of connection points: 3
#     Node 7, Type 0, BuildingBlock: BETDIP_clean_linker_0, # of connection points: 3
#     Node 8, Type 0, BuildingBlock: BETDIP_clean_linker_0, # of connection points: 3
#     Node 9, Type 0, BuildingBlock: BETDIP_clean_linker_0, # of connection points: 3
#     Node 10, Type 0, BuildingBlock: BETDIP_clean_linker_0, # of connection points: 3
#     Node 11, Type 0, BuildingBlock: BETDIP_clean_linker_0, # of connection points: 3
#     Node 12, Type 0, BuildingBlock: BETDIP_clean_linker_0, # of connection points: 3
#     Node 13, Type 0, BuildingBlock: BETDIP_clean_linker_0, # of connection points: 3
#     Node 14, Type 0, BuildingBlock: BETDIP_clean_linker_0, # of connection points: 3
#     Node 15, Type 0, BuildingBlock: BETDIP_clean_linker_0, # of connection points: 3
#     Node 16, Type 0, BuildingBlock: BETDIP_clean_linker_0, # of connection points: 3
#     Node 17, Type 0, BuildingBlock: BETDIP_clean_linker_0, # of connection points: 3
#     Node 18, Type 0, BuildingBlock: BETDIP_clean_linker_0, # of connection points: 3
#     Node 19, Type 0, BuildingBlock: BETDIP_clean_linker_0, # of connection points: 3
#     Node 20, Type 0, BuildingBlock: BETDIP_clean_linker_0, # of connection points: 3
#     Node 21, Type 0, BuildingBlock: BETDIP_clean_linker_0, # of connection points: 3
#     Node 22, Type 0, BuildingBlock: BETDIP_clean_linker_0, # of connection points: 3
#     Node 23, Type 0, BuildingBlock: BETDIP_clean_linker_0, # of connection points: 3
#     Node 24, Type 1, BuildingBlock: EZIPEK_clean_sbu_0, # of connection points: 12
#     Node 25, Type 1, BuildingBlock: EZIPEK_clean_sbu_0, # of connection points: 12
#     Node 26, Type 1, BuildingBlock: EZIPEK_clean_sbu_0, # of connection points: 12
#     Node 27, Type 1, BuildingBlock: EZIPEK_clean_sbu_0, # of connection points: 12
#     Node 28, Type 1, BuildingBlock: EZIPEK_clean_sbu_0, # of connection points: 12
#     Node 29, Type 1, BuildingBlock: EZIPEK_clean_sbu_0, # of connection points: 12
#     Edge 30, Type (0, 1), BuildingBlock: UVAHIK_clean_linker_0, # of connection points: 2
#     Edge 31, Type (0, 1), BuildingBlock: UVAHIK_clean_linker_0, # of connection points: 2
#     Edge 32, Type (0, 1), BuildingBlock: UVAHIK_clean_linker_0, # of connection points: 2
#     Edge 33, Type (0, 1), BuildingBlock: UVAHIK_clean_linker_0, # of connection points: 2
#     Edge 34, Type (0, 1), BuildingBlock: UVAHIK_clean_linker_0, # of connection points: 2
#     Edge 35, Type (0, 1), BuildingBlock: UVAHIK_clean_linker_0, # of connection points: 2
#     Edge 36, Type (0, 1), BuildingBlock: UVAHIK_clean_linker_0, # of connection points: 2
#     Edge 37, Type (0, 1), BuildingBlock: UVAHIK_clean_linker_0, # of connection points: 2
#     Edge 38, Type (0, 1), BuildingBlock: UVAHIK_clean_linker_0, # of connection points: 2
#     Edge 39, Type (0, 1), BuildingBlock: UVAHIK_clean_linker_0, # of connection points: 2
#     Edge 40, Type (0, 1), BuildingBlock: UVAHIK_clean_linker_0, # of connection points: 2
#     Edge 41, Type (0, 1), BuildingBlock: UVAHIK_clean_linker_0, # of connection points: 2
#     Edge 42, Type (0, 1), BuildingBlock: UVAHIK_clean_linker_0, # of connection points: 2
#     Edge 43, Type (0, 1), BuildingBlock: UVAHIK_clean_linker_0, # of connection points: 2
#     Edge 44, Type (0, 1), BuildingBlock: UVAHIK_clean_linker_0, # of connection points: 2
#     Edge 45, Type (0, 1), BuildingBlock: UVAHIK_clean_linker_0, # of connection points: 2
#     Edge 46, Type (0, 1), BuildingBlock: UVAHIK_clean_linker_0, # of connection points: 2
#     Edge 47, Type (0, 1), BuildingBlock: UVAHIK_clean_linker_0, # of connection points: 2
#     Edge 48, Type (0, 1), BuildingBlock: UVAHIK_clean_linker_0, # of connection points: 2
#     Edge 49, Type (0, 1), BuildingBlock: UVAHIK_clean_linker_0, # of connection points: 2
#     Edge 50, Type (0, 1), BuildingBlock: UVAHIK_clean_linker_0, # of connection points: 2
#     Edge 51, Type (0, 1), BuildingBlock: UVAHIK_clean_linker_0, # of connection points: 2
#     Edge 52, Type (0, 1), BuildingBlock: UVAHIK_clean_linker_0, # of connection points: 2
#     Edge 53, Type (0, 1), BuildingBlock: UVAHIK_clean_linker_0, # of connection points: 2
#     Edge 54, Type (0, 1), BuildingBlock: UVAHIK_clean_linker_0, # of connection points: 2
#     Edge 55, Type (0, 1), BuildingBlock: UVAHIK_clean_linker_0, # of connection points: 2
#     Edge 56, Type (0, 1), BuildingBlock: UVAHIK_clean_linker_0, # of connection points: 2
#     Edge 57, Type (0, 1), BuildingBlock: UVAHIK_clean_linker_0, # of connection points: 2
#     Edge 58, Type (0, 1), BuildingBlock: UVAHIK_clean_linker_0, # of connection points: 2
#     Edge 59, Type (0, 1), BuildingBlock: UVAHIK_clean_linker_0, # of connection points: 2
#     Edge 60, Type (0, 1), BuildingBlock: UVAHIK_clean_linker_0, # of connection points: 2
#     Edge 61, Type (0, 1), BuildingBlock: UVAHIK_clean_linker_0, # of connection points: 2
#     Edge 62, Type (0, 1), BuildingBlock: UVAHIK_clean_linker_0, # of connection points: 2
#     Edge 63, Type (0, 1), BuildingBlock: UVAHIK_clean_linker_0, # of connection points: 2
#     Edge 64, Type (0, 1), BuildingBlock: UVAHIK_clean_linker_0, # of connection points: 2
#     Edge 65, Type (0, 1), BuildingBlock: UVAHIK_clean_linker_0, # of connection points: 2
#     Edge 66, Type (0, 1), BuildingBlock: UVAHIK_clean_linker_0, # of connection points: 2
#     Edge 67, Type (0, 1), BuildingBlock: UVAHIK_clean_linker_0, # of connection points: 2
#     Edge 68, Type (0, 1), BuildingBlock: UVAHIK_clean_linker_0, # of connection points: 2
#     Edge 69, Type (0, 1), BuildingBlock: UVAHIK_clean_linker_0, # of connection points: 2
#     Edge 70, Type (0, 1), BuildingBlock: UVAHIK_clean_linker_0, # of connection points: 2
#     Edge 71, Type (0, 1), BuildingBlock: UVAHIK_clean_linker_0, # of connection points: 2
#     Edge 72, Type (0, 1), BuildingBlock: UVAHIK_clean_linker_0, # of connection points: 2
#     Edge 73, Type (0, 1), BuildingBlock: UVAHIK_clean_linker_0, # of connection points: 2
#     Edge 74, Type (0, 1), BuildingBlock: UVAHIK_clean_linker_0, # of connection points: 2
#     Edge 75, Type (0, 1), BuildingBlock: UVAHIK_clean_linker_0, # of connection points: 2
#     Edge 76, Type (0, 1), BuildingBlock: UVAHIK_clean_linker_0, # of connection points: 2
#     Edge 77, Type (0, 1), BuildingBlock: UVAHIK_clean_linker_0, # of connection points: 2
#     Edge 78, Type (0, 1), BuildingBlock: UVAHIK_clean_linker_0, # of connection points: 2
#     Edge 79, Type (0, 1), BuildingBlock: UVAHIK_clean_linker_0, # of connection points: 2
#     Edge 80, Type (0, 1), BuildingBlock: UVAHIK_clean_linker_0, # of connection points: 2
#     Edge 81, Type (0, 1), BuildingBlock: UVAHIK_clean_linker_0, # of connection points: 2
#     Edge 82, Type (0, 1), BuildingBlock: UVAHIK_clean_linker_0, # of connection points: 2
#     Edge 83, Type (0, 1), BuildingBlock: UVAHIK_clean_linker_0, # of connection points: 2
#     Edge 84, Type (0, 1), BuildingBlock: UVAHIK_clean_linker_0, # of connection points: 2
#     Edge 85, Type (0, 1), BuildingBlock: UVAHIK_clean_linker_0, # of connection points: 2
#     Edge 86, Type (0, 1), BuildingBlock: UVAHIK_clean_linker_0, # of connection points: 2
#     Edge 87, Type (0, 1), BuildingBlock: UVAHIK_clean_linker_0, # of connection points: 2
#     Edge 88, Type (0, 1), BuildingBlock: UVAHIK_clean_linker_0, # of connection points: 2
#     Edge 89, Type (0, 1), BuildingBlock: UVAHIK_clean_linker_0, # of connection points: 2
#     Edge 90, Type (0, 1), BuildingBlock: UVAHIK_clean_linker_0, # of connection points: 2
#     Edge 91, Type (0, 1), BuildingBlock: UVAHIK_clean_linker_0, # of connection points: 2
#     Edge 92, Type (0, 1), BuildingBlock: UVAHIK_clean_linker_0, # of connection points: 2
#     Edge 93, Type (0, 1), BuildingBlock: UVAHIK_clean_linker_0, # of connection points: 2
#     Edge 94, Type (0, 1), BuildingBlock: UVAHIK_clean_linker_0, # of connection points: 2
#     Edge 95, Type (0, 1), BuildingBlock: UVAHIK_clean_linker_0, # of connection points: 2
#     Edge 96, Type (0, 1), BuildingBlock: UVAHIK_clean_linker_0, # of connection points: 2
#     Edge 97, Type (0, 1), BuildingBlock: UVAHIK_clean_linker_0, # of connection points: 2
#     Edge 98, Type (0, 1), BuildingBlock: UVAHIK_clean_linker_0, # of connection points: 2
#     Edge 99, Type (0, 1), BuildingBlock: UVAHIK_clean_linker_0, # of connection points: 2
#     Edge 100, Type (0, 1), BuildingBlock: UVAHIK_clean_linker_0, # of connection points: 2
#     Edge 101, Type (0, 1), BuildingBlock: UVAHIK_clean_linker_0, # of connection points: 2
# Relax obj value: 0.073
# Max RMSD: 0.173
# Mean RMSD: 0.134
data_MOF--net-llk--node1-EZIPEK_clean_sbu_0--node2-BETDIP_clean_linker_0--edge1-UVAHIK_clean_linker_0
_symmetry_space_group_name_H-M    P1
_symmetry_Int_Tables_number       1
_symmetry_cell_setting            triclinic
loop_
_symmetry_equiv_pos_as_xyz
'x, y, z'
_cell_length_a     59.244057
_cell_length_b     59.698031
_cell_length_c     60.14285
_cell_angle_alpha  89.960014
_cell_angle_beta   90.014838
_cell_angle_gamma 89.9588
loop_
_atom_site_label
_atom_site_type_symbol
_atom_site_fract_x
_atom_site_fract_y
_atom_site_fract_z
_atom_type_partial_charge
H0 H 0.00153 0.25006 0.22868 0.0
H1 H 0.01357 0.25442 0.29907 0.0
H2 H 0.01626 0.31381 0.25856 0.0
H3 H 0.03855 0.21558 0.27029 0.0
C4 C 0.02124 0.21245 0.27543 0.0
C5 C 0.00538 0.26003 0.24324 0.0
C6 C 0.00951 0.28316 0.24112 0.0
C7 C 0.00729 0.24966 0.26419 0.0
C8 C 0.01234 0.26257 0.28301 0.0
C9 C 0.01536 0.28579 0.28125 0.0
C10 C 0.01418 0.29584 0.26019 0.0
N11 N 0.00384 0.22629 0.26671 0.0
H12 H 0.79058 0.99744 0.2576 0.0
H13 H 0.7184 0.99481 0.26588 0.0
H14 H 0.76049 0.01293 0.32097 0.0
H15 H 0.73078 0.9597 0.24215 0.0
C16 C 0.73472 0.97294 0.23033 0.0
C17 C 0.77576 0.99961 0.26792 0.0
C18 C 0.77809 0.00609 0.29035 0.0
C19 C 0.75417 0.9954 0.25904 0.0
C20 C 0.73507 0.9978 0.27267 0.0
C21 C 0.73724 0.00432 0.2949 0.0
C22 C 0.75872 0.00864 0.30353 0.0
N23 N 0.75151 0.98882 0.23645 0.0
H24 H 0.00131 0.78698 0.25831 0.0
H25 H 0.01569 0.71666 0.26532 0.0
H26 H 0.00741 0.75785 0.32344 0.0
H27 H 0.0422 0.73837 0.2296 0.0
C28 C 0.02477 0.73655 0.22423 0.0
C29 C 0.00439 0.77256 0.26882 0.0
C30 C 0.00444 0.7749 0.29211 0.0
C31 C 0.00856 0.75147 0.25915 0.0
C32 C 0.0126 0.73286 0.27286 0.0
C33 C 0.01212 0.73492 0.29608 0.0
C34 C 0.00803 0.75602 0.30551 0.0
N35 N 0.00767 0.7486 0.23573 0.0
H36 H 0.2193 0.00572 0.25685 0.0
H37 H 0.29105 0.01135 0.26697 0.0
H38 H 0.24796 0.99357 0.32152 0.0
H39 H 0.27878 0.04422 0.24145 0.0
C40 C 0.27511 0.03067 0.22992 0.0
C41 C 0.23389 0.00449 0.26765 0.0
C42 C 0.23112 0.999 0.29028 0.0
C43 C 0.25559 0.0089 0.25915 0.0
C44 C 0.27437 0.00774 0.27341 0.0
C45 C 0.27176 0.00237 0.29593 0.0
C46 C 0.25014 0.99771 0.3041 0.0
N47 N 0.25867 0.01455 0.23636 0.0
H48 H 0.99802 0.75303 0.79486 0.0
H49 H 0.00576 0.74804 0.72393 0.0
H50 H 0.00088 0.6883 0.76344 0.0
H51 H 0.03782 0.78184 0.74707 0.0
C52 C 0.02058 0.7878 0.74519 0.0
C53 C 0.99971 0.7428 0.78008 0.0
C54 C 0.99882 0.71925 0.78169 0.0
C55 C 0.00283 0.75312 0.75922 0.0
C56 C 0.00442 0.73991 0.73999 0.0
C57 C 0.00303 0.71652 0.74132 0.0
C58 C 0.00087 0.70643 0.76224 0.0
N59 N 0.00311 0.77681 0.75718 0.0
H60 H 0.22114 0.99462 0.76543 0.0
H61 H 0.29328 0.99291 0.75657 0.0
H62 H 0.25052 0.01152 0.70208 0.0
H63 H 0.28148 0.95721 0.77967 0.0
C64 C 0.2774 0.97009 0.79182 0.0
C65 C 0.23585 0.99714 0.75504 0.0
C66 C 0.23326 0.00398 0.73273 0.0
C67 C 0.25755 0.993 0.76368 0.0
C68 C 0.27652 0.99585 0.74995 0.0
C69 C 0.27409 0.00273 0.72784 0.0
C70 C 0.25249 0.00696 0.71944 0.0
N71 N 0.26046 0.98601 0.78612 0.0
H72 H 0.00901 0.21895 0.76414 0.0
H73 H 0.01003 0.29052 0.75524 0.0
H74 H 0.99619 0.24766 0.69962 0.0
H75 H 0.04594 0.27678 0.78206 0.0
C76 C 0.03118 0.27411 0.79247 0.0
C77 C 0.00713 0.23348 0.7535 0.0
C78 C 0.0021 0.23072 0.73074 0.0
C79 C 0.01012 0.25512 0.76236 0.0
C80 C 0.00802 0.27385 0.74839 0.0
C81 C 0.00268 0.27128 0.72587 0.0
C82 C 0.99963 0.24972 0.71722 0.0
N83 N 0.01474 0.25827 0.78535 0.0
H84 H 0.75917 0.993 0.79523 0.0
H85 H 0.74723 0.99262 0.72463 0.0
H86 H 0.69425 0.01221 0.76927 0.0
H87 H 0.77091 0.95728 0.73396 0.0
C88 C 0.78357 0.96976 0.73821 0.0
C89 C 0.74807 0.996 0.78122 0.0
C90 C 0.72569 0.00311 0.7848 0.0
C91 C 0.75592 0.99228 0.75945 0.0
C92 C 0.74128 0.99575 0.74138 0.0
C93 C 0.71899 0.00284 0.74474 0.0
C94 C 0.71149 0.00677 0.76648 0.0
N95 N 0.77849 0.9851 0.7556 0.0
H96 H 0.22042 0.24762 0.00414 0.0
H97 H 0.29268 0.25466 1.00088 0.0
H98 H 0.2519 0.31024 0.02152 0.0
H99 H 0.27913 0.23226 0.96511 0.0
C100 C 0.27522 0.22006 0.97798 0.0
C101 C 0.23546 0.25765 0.00651 0.0
C102 C 0.23363 0.28 0.01381 0.0
C103 C 0.25677 0.24848 1.00168 0.0
C104 C 0.27619 0.26171 0.00436 0.0
C105 C 0.27455 0.28387 0.01175 0.0
C106 C 0.25328 0.29281 0.01662 0.0
N107 N 0.2588 0.22599 0.99419 0.0
H108 H 0.21983 0.75636 0.01989 0.0
H109 H 0.29217 0.74971 0.0224 0.0
H110 H 0.25161 0.6942 1.0013 0.0
H111 H 0.27834 0.77154 0.05897 0.0
C112 C 0.27461 0.78378 0.04607 0.0
C113 C 0.23492 0.74646 0.01722 0.0
C114 C 0.23319 0.72421 0.0096 0.0
C115 C 0.25621 0.75567 0.022 0.0
C116 C 0.2757 0.74262 0.01895 0.0
C117 C 0.27416 0.72057 0.01122 0.0
C118 C 0.2529 0.71157 0.00642 0.0
N119 N 0.25813 0.77803 0.02986 0.0
H120 H 0.76126 0.2165 1.00112 0.0
H121 H 0.75166 0.28799 0.9971 0.0
H122 H 0.69554 0.24534 0.01222 0.0
H123 H 0.77739 0.27526 0.9632 0.0
C124 C 0.78891 0.27175 0.97686 0.0
C125 C 0.75038 0.23105 1.00237 0.0
C126 C 0.72735 0.22842 0.00748 0.0
C127 C 0.7592 0.25256 0.9984 0.0
C128 C 0.74496 0.27135 0.99998 0.0
C129 C 0.72204 0.26877 0.00485 0.0
C130 C 0.71338 0.24734 0.00863 0.0
N131 N 0.78231 0.25541 0.99278 0.0
H132 H 0.76205 0.78734 0.01971 0.0
H133 H 0.75116 0.71624 0.02494 0.0
H134 H 0.69719 0.75923 0.00368 0.0
H135 H 0.77558 0.72812 0.05883 0.0
C136 C 0.78779 0.73184 0.04584 0.0
C137 C 0.75113 0.77292 0.01781 0.0
C138 C 0.7286 0.77577 0.01096 0.0
C139 C 0.75934 0.75141 0.02282 0.0
C140 C 0.74493 0.73281 0.02084 0.0
C141 C 0.72246 0.73548 0.01405 0.0
C142 C 0.71459 0.75697 0.00883 0.0
N143 N 0.78205 0.74844 0.02985 0.0
H144 H 0.49934 0.75125 0.72776 0.0
H145 H 0.50732 0.75489 0.79873 0.0
H146 H 0.5027 0.81539 0.76034 0.0
H147 H 0.53917 0.72109 0.77456 0.0
C148 C 0.52188 0.7154 0.77663 0.0
C149 C 0.50116 0.76121 0.74271 0.0
C150 C 0.50041 0.78479 0.74151 0.0
C151 C 0.50429 0.75049 0.76337 0.0
C152 C 0.50601 0.76332 0.78282 0.0
C153 C 0.50473 0.78674 0.78193 0.0
C154 C 0.5026 0.79725 0.76119 0.0
N155 N 0.5044 0.72677 0.76498 0.0
H156 H 0.28978 0.49589 0.75743 0.0
H157 H 0.21764 0.49359 0.7661 0.0
H158 H 0.2601 0.51174 0.82091 0.0
H159 H 0.22959 0.45844 0.74251 0.0
C160 C 0.23369 0.4715 0.73055 0.0
C161 C 0.27502 0.49816 0.76783 0.0
C162 C 0.27751 0.50472 0.79022 0.0
C163 C 0.25338 0.494 0.75907 0.0
C164 C 0.23436 0.49653 0.77279 0.0
C165 C 0.23667 0.50312 0.79499 0.0
C166 C 0.25822 0.50739 0.8035 0.0
N167 N 0.25058 0.48733 0.73653 0.0
H168 H 0.5045 0.28522 0.75927 0.0
H169 H 0.50644 0.21355 0.76613 0.0
H170 H 0.5111 0.2555 0.82413 0.0
H171 H 0.53921 0.2372 0.73015 0.0
C172 C 0.5218 0.23493 0.7249 0.0
C173 C 0.50572 0.2705 0.76975 0.0
C174 C 0.50801 0.2728 0.79293 0.0
C175 C 0.50597 0.24902 0.7601 0.0
C176 C 0.50726 0.22999 0.77372 0.0
C177 C 0.50848 0.23211 0.79691 0.0
C178 C 0.50943 0.2536 0.80627 0.0
N179 N 0.50443 0.24623 0.73673 0.0
H180 H 0.72108 0.50625 0.75592 0.0
H181 H 0.79271 0.51163 0.76705 0.0
H182 H 0.74877 0.49392 0.82096 0.0
H183 H 0.78148 0.54418 0.74142 0.0
C184 C 0.77749 0.53088 0.72971 0.0
C185 C 0.73552 0.50497 0.76691 0.0
C186 C 0.73242 0.49946 0.78949 0.0
C187 C 0.75735 0.50933 0.75873 0.0
C188 C 0.77592 0.50809 0.77325 0.0
C189 C 0.77297 0.50271 0.79573 0.0
C190 C 0.75122 0.4981 0.80357 0.0
N191 N 0.76077 0.51497 0.73597 0.0
H192 H 0.5146 0.25318 0.2941 0.0
H193 H 0.50605 0.24964 0.22315 0.0
H194 H 0.50487 0.18937 0.26214 0.0
H195 H 0.54674 0.27661 0.24064 0.0
C196 C 0.53099 0.28589 0.24189 0.0
C197 C 0.51159 0.24335 0.27927 0.0
C198 C 0.51 0.2198 0.28066 0.0
C199 C 0.5107 0.25399 0.25835 0.0
C200 C 0.50715 0.24124 0.2391 0.0
C201 C 0.50463 0.21796 0.24036 0.0
C202 C 0.50621 0.20745 0.26114 0.0
N203 N 0.51391 0.27746 0.25627 0.0
H204 H 0.72039 0.49618 0.26502 0.0
H205 H 0.79263 0.49444 0.25708 0.0
H206 H 0.75059 0.51268 0.20193 0.0
H207 H 0.78012 0.45855 0.28026 0.0
C208 C 0.77628 0.47171 0.29217 0.0
C209 C 0.73524 0.49863 0.25479 0.0
C210 C 0.73293 0.50534 0.23241 0.0
C211 C 0.75683 0.49456 0.26373 0.0
C212 C 0.77596 0.49733 0.25023 0.0
C213 C 0.77382 0.50406 0.22804 0.0
C214 C 0.75232 0.50823 0.21934 0.0
N215 N 0.75948 0.48769 0.28624 0.0
H216 H 0.50504 0.71702 0.26399 0.0
H217 H 0.50746 0.78882 0.25864 0.0
H218 H 0.4981 0.74865 0.20006 0.0
H219 H 0.54362 0.7704 0.2863 0.0
C220 C 0.52788 0.76935 0.29556 0.0
C221 C 0.50429 0.73203 0.25389 0.0
C222 C 0.50086 0.73042 0.23076 0.0
C223 C 0.50707 0.75319 0.26386 0.0
C224 C 0.50602 0.77259 0.25072 0.0
C225 C 0.50243 0.77121 0.22772 0.0
C226 C 0.50004 0.75002 0.21793 0.0
N227 N 0.51053 0.75524 0.28715 0.0
H228 H 0.26139 0.49421 0.29483 0.0
H229 H 0.24928 0.49281 0.22426 0.0
H230 H 0.19638 0.5129 0.26876 0.0
H231 H 0.27322 0.45768 0.23401 0.0
C232 C 0.28578 0.47033 0.23804 0.0
C233 C 0.25026 0.49698 0.2808 0.0
C234 C 0.22787 0.50409 0.28432 0.0
C235 C 0.25806 0.49297 0.25907 0.0
C236 C 0.24337 0.49614 0.24098 0.0
C237 C 0.22107 0.50323 0.2443 0.0
C238 C 0.21362 0.50745 0.266 0.0
N239 N 0.28065 0.48582 0.25528 0.0
H240 H 0.72006 0.74727 0.50329 0.0
H241 H 0.79229 0.75487 0.50061 0.0
H242 H 0.75095 0.80998 0.52137 0.0
H243 H 0.77901 0.73264 0.46444 0.0
C244 C 0.77528 0.72036 0.4773 0.0
C245 C 0.73501 0.75739 0.50586 0.0
C246 C 0.73297 0.77967 0.51333 0.0
C247 C 0.75643 0.74842 0.50112 0.0
C248 C 0.77573 0.76176 0.50404 0.0
C249 C 0.77387 0.78385 0.51158 0.0
C250 C 0.7525 0.79259 0.51637 0.0
N251 N 0.75869 0.72601 0.49344 0.0
H252 H 0.72039 0.25462 0.50045 0.0
H253 H 0.79226 0.25268 0.51023 0.0
H254 H 0.75258 0.19345 0.52136 0.0
H255 H 0.75565 0.29388 0.53214 0.0
C256 C 0.7636 0.29526 0.5159 0.0
C257 C 0.73545 0.2454 0.50502 0.0
C258 C 0.73392 0.22281 0.51153 0.0
C259 C 0.75648 0.25625 0.50514 0.0
C260 C 0.77604 0.24429 0.5107 0.0
C261 C 0.77477 0.22159 0.51646 0.0
C262 C 0.75363 0.21111 0.51725 0.0
N263 N 0.75832 0.27915 0.49939 0.0
H264 H 0.26178 0.71716 0.50306 0.0
H265 H 0.25036 0.78812 0.49681 0.0
H266 H 0.19677 0.74516 0.51884 0.0
H267 H 0.27491 0.77626 0.46327 0.0
C268 C 0.28716 0.77255 0.47625 0.0
C269 C 0.25075 0.73155 0.50473 0.0
C270 C 0.22827 0.72868 0.51171 0.0
C271 C 0.25879 0.75302 0.49937 0.0
C272 C 0.24425 0.77157 0.50112 0.0
C273 C 0.22184 0.76888 0.50803 0.0
C274 C 0.21412 0.74743 0.51358 0.0
N275 N 0.28147 0.75601 0.4923 0.0
H276 H 0.26135 0.28711 0.51838 0.0
H277 H 0.25121 0.21602 0.52508 0.0
H278 H 0.19653 0.2581 0.50383 0.0
H279 H 0.27607 0.2288 0.55845 0.0
C280 C 0.28799 0.23229 0.54514 0.0
C281 C 0.25053 0.27255 0.51693 0.0
C282 C 0.22788 0.27507 0.51034 0.0
C283 C 0.25902 0.25122 0.52222 0.0
C284 C 0.24476 0.23245 0.52079 0.0
C285 C 0.22218 0.23479 0.51427 0.0
C286 C 0.21402 0.25611 0.50878 0.0
N287 N 0.28186 0.24857 0.52897 0.0
C288 C 0.00517 0.94775 0.5662 0.0
C289 C 0.00388 0.94847 0.45782 0.0
C290 C 0.00458 0.05614 0.567 0.0
C291 C 0.00617 0.05691 0.45864 0.0
C292 C 0.95071 0.0571 0.51417 0.0
C293 C 0.94991 0.94836 0.51214 0.0
C294 C 0.06014 0.05609 0.51262 0.0
C295 C 0.05931 0.94762 0.51234 0.0
C296 C 0.0596 1.00115 0.45826 0.0
C297 C 0.95069 0.00402 0.45771 0.0
C298 C 0.05922 0.00247 0.56685 0.0
C299 C 0.94999 0.00124 0.56607 0.0
Eu300 Eu 0.00463 0.95977 0.51213 0.0
O301 O 0.9847 0.98257 0.49242 0.0
O302 O 0.02483 0.98207 0.53201 0.0
Eu303 Eu 0.96198 0.00262 0.512 0.0
Eu304 Eu 0.04787 0.00195 0.51253 0.0
O305 O 0.98458 0.98245 0.53173 0.0
O306 O 0.025 0.98233 0.49269 0.0
Eu307 Eu 0.0047 0.00204 0.55419 0.0
Eu308 Eu 0.0051 0.0026 0.47059 0.0
O309 O 0.98488 0.02221 0.53192 0.0
O310 O 0.98501 0.0227 0.4927 0.0
O311 O 0.02527 0.02227 0.49298 0.0
O312 O 0.02514 0.02199 0.53226 0.0
Eu313 Eu 0.00527 0.0449 0.51271 0.0
O314 O 0.00425 0.94075 0.54509 0.0
O315 O 0.00416 0.94127 0.47891 0.0
O316 O 0.0056 0.06337 0.54595 0.0
O317 O 0.00488 0.0639 0.47974 0.0
O318 O 0.94352 0.03591 0.51321 0.0
O319 O 0.94305 0.96967 0.51139 0.0
O320 O 0.06692 0.03477 0.51224 0.0
O321 O 0.0664 0.96882 0.5129 0.0
O322 O 0.03805 0.00139 0.45189 0.0
O323 O 0.9723 0.00396 0.45152 0.0
O324 O 0.03763 0.00267 0.57313 0.0
O325 O 0.97146 0.00166 0.57277 0.0
O326 O 0.03874 0.06313 0.51295 0.0
O327 O 0.97222 0.06371 0.51409 0.0
O328 O 0.0378 0.94094 0.51182 0.0
O329 O 0.97131 0.94141 0.51266 0.0
O330 O 0.00406 0.96992 0.45153 0.0
O331 O 0.0069 0.03558 0.45206 0.0
O332 O 0.00575 0.96908 0.57279 0.0
O333 O 0.00388 0.0347 0.57325 0.0
O334 O 0.943 0.00129 0.54492 0.0
O335 O 0.94335 0.00345 0.47876 0.0
O336 O 0.0665 0.00204 0.54578 0.0
O337 O 0.06679 0.00148 0.47937 0.0
C338 C 0.50481 0.94936 0.06825 0.0
C339 C 0.5033 0.05769 0.06352 0.0
C340 C 0.5062 0.94459 0.96071 0.0
C341 C 0.5054 0.0531 0.95585 0.0
C342 C 0.56098 1.00004 0.95902 0.0
C343 C 0.55962 0.00314 0.06648 0.0
C344 C 0.451 0.9989 0.95765 0.0
C345 C 0.44981 0.00273 0.06526 0.0
C346 C 0.45006 0.05502 0.00922 0.0
C347 C 0.55995 0.05575 0.01087 0.0
C348 C 0.45094 0.94665 0.01365 0.0
C349 C 0.56089 0.94777 0.01385 0.0
Eu350 Eu 0.50485 0.00298 0.05418 0.0
O351 O 0.52494 0.02235 0.03136 0.0
O352 O 0.48531 0.98197 0.03243 0.0
Eu353 Eu 0.5477 0.00168 0.01261 0.0
Eu354 Eu 0.4628 1.00092 0.01158 0.0
O355 O 0.5253 0.9822 0.03299 0.0
O356 O 0.48504 0.02183 0.03067 0.0
Eu357 Eu 0.50575 0.95871 0.01393 0.0
Eu358 Eu 0.50505 0.0438 0.01024 0.0
O359 O 0.52564 0.98066 0.99338 0.0
O360 O 0.52532 0.02053 0.99159 0.0
O361 O 0.4855 0.02016 0.99121 0.0
O362 O 0.48579 0.98026 0.99292 0.0
Eu363 Eu 0.50582 0.9994 0.96985 0.0
O364 O 0.50483 0.97089 0.07419 0.0
O365 O 0.50356 0.0367 0.07115 0.0
O366 O 0.50587 0.96554 0.95293 0.0
O367 O 0.50591 0.03156 0.9499 0.0
O368 O 0.56722 0.00123 0.9803 0.0
O369 O 0.56651 0.00282 0.04536 0.0
O370 O 0.4441 1.0003 0.97873 0.0
O371 O 0.44334 0.00129 0.04404 0.0
O372 O 0.47144 0.06214 0.00846 0.0
O373 O 0.5385 0.06274 0.00992 0.0
O374 O 0.4724 0.93982 0.01485 0.0
O375 O 0.53957 0.94041 0.01459 0.0
O376 O 0.47252 0.99808 0.95096 0.0
O377 O 0.53965 0.99897 0.95177 0.0
O378 O 0.47117 0.00377 0.07237 0.0
O379 O 0.5381 0.00323 0.07322 0.0
O380 O 0.50404 0.06384 0.04219 0.0
O381 O 0.50497 0.06087 0.97666 0.0
O382 O 0.50508 0.94155 0.04747 0.0
O383 O 0.5064 0.9386 0.98208 0.0
O384 O 0.56711 0.96921 0.01314 0.0
O385 O 0.56655 0.03443 0.01197 0.0
O386 O 0.44409 0.96789 0.01197 0.0
O387 O 0.44352 0.03369 0.0108 0.0
C388 C 0.00465 0.4483 0.06663 0.0
C389 C 0.00672 0.44652 0.95899 0.0
C390 C 0.00598 0.55744 0.0648 0.0
C391 C 0.00512 0.55575 0.95717 0.0
C392 C 0.95103 0.55655 0.01194 0.0
C393 C 0.95092 0.44766 0.01169 0.0
C394 C 0.06013 0.55652 0.01034 0.0
C395 C 0.05996 0.44735 0.01366 0.0
C396 C 0.06028 0.50182 0.9581 0.0
C397 C 0.95101 0.50147 0.9578 0.0
C398 C 0.06007 0.50349 0.0659 0.0
C399 C 0.95068 0.50304 0.06556 0.0
Eu400 Eu 0.00547 0.45993 0.01264 0.0
O401 O 0.98543 0.4819 0.9923 0.0
O402 O 0.0256 0.48254 0.03217 0.0
Eu403 Eu 0.96271 0.50209 0.01173 0.0
Eu404 Eu 0.04842 0.50196 0.01201 0.0
O405 O 0.98528 0.48258 0.03204 0.0
O406 O 0.02566 0.4819 0.99245 0.0
Eu407 Eu 0.00536 0.50273 0.05413 0.0
Eu408 Eu 0.00559 0.50131 0.96962 0.0
O409 O 0.98546 0.52219 0.03122 0.0
O410 O 0.98548 0.5216 0.99163 0.0
O411 O 0.02567 0.52143 0.99179 0.0
O412 O 0.02556 0.52212 0.03139 0.0
Eu413 Eu 0.0056 0.54422 0.01113 0.0
O414 O 0.0049 0.44147 0.04551 0.0
O415 O 0.00647 0.44041 0.98035 0.0
O416 O 0.00667 0.56365 0.04348 0.0
O417 O 0.00584 0.56267 0.97824 0.0
O418 O 0.94393 0.53531 0.01258 0.0
O419 O 0.94384 0.46892 0.01093 0.0
O420 O 0.06729 0.53527 0.0111 0.0
O421 O 0.06718 0.46858 0.01292 0.0
O422 O 0.03886 0.50215 0.95125 0.0
O423 O 0.97244 0.50039 0.95106 0.0
O424 O 0.03859 0.50311 0.07261 0.0
O425 O 0.97208 0.50373 0.07243 0.0
O426 O 0.03859 0.56301 0.01021 0.0
O427 O 0.97251 0.56316 0.01101 0.0
O428 O 0.0384 0.44096 0.01377 0.0
O429 O 0.9724 0.44103 0.01267 0.0
O430 O 0.00632 0.46768 0.9516 0.0
O431 O 0.00455 0.53435 0.95055 0.0
O432 O 0.00478 0.4697 0.07326 0.0
O433 O 0.00498 0.53632 0.07219 0.0
O434 O 0.94382 0.50189 0.04444 0.0
O435 O 0.94406 0.50266 0.97888 0.0
O436 O 0.06712 0.50329 0.04482 0.0
O437 O 0.06721 0.50129 0.97923 0.0
C438 C 0.50622 0.44899 0.066 0.0
C439 C 0.50456 0.55727 0.06443 0.0
C440 C 0.50561 0.44745 0.95749 0.0
C441 C 0.50643 0.55594 0.95607 0.0
C442 C 0.56039 0.50112 0.95678 0.0
C443 C 0.55982 0.50363 0.06537 0.0
C444 C 0.45144 0.50249 0.95624 0.0
C445 C 0.45064 0.50205 0.06458 0.0
C446 C 0.45076 0.55651 0.00967 0.0
C447 C 0.56023 0.55679 0.01044 0.0
C448 C 0.45119 0.4478 0.01152 0.0
C449 C 0.56058 0.44832 0.01227 0.0
Eu450 Eu 0.50531 0.503 0.0526 0.0
O451 O 0.5256 0.52268 0.03029 0.0
O452 O 0.48542 0.48258 0.03067 0.0
Eu453 Eu 0.54859 0.50251 0.01101 0.0
Eu454 Eu 0.46271 0.50218 0.01054 0.0
O455 O 0.52571 0.48282 0.03085 0.0
O456 O 0.4852 0.52262 0.03007 0.0
Eu457 Eu 0.5058 0.45977 0.0116 0.0
Eu458 Eu 0.50548 0.545 0.01034 0.0
O459 O 0.52593 0.48215 0.99164 0.0
O460 O 0.52581 0.52222 0.99105 0.0
O461 O 0.48561 0.522 0.99089 0.0
O462 O 0.48573 0.48201 0.99138 0.0
Eu463 Eu 0.50589 0.50184 0.96911 0.0
O464 O 0.50602 0.47051 0.07198 0.0
O465 O 0.50459 0.53595 0.07105 0.0
O466 O 0.5055 0.46877 0.95079 0.0
O467 O 0.50721 0.53448 0.94989 0.0
O468 O 0.56756 0.50192 0.97789 0.0
O469 O 0.56714 0.503 0.04431 0.0
O470 O 0.44412 0.5022 0.9773 0.0
O471 O 0.44367 0.50143 0.04343 0.0
O472 O 0.47217 0.56342 0.00936 0.0
O473 O 0.53875 0.5636 0.01055 0.0
O474 O 0.47265 0.44106 0.01235 0.0
O475 O 0.53917 0.44138 0.01265 0.0
O476 O 0.47304 0.5025 0.95002 0.0
O477 O 0.53885 0.50084 0.95042 0.0
O478 O 0.47211 0.50294 0.07123 0.0
O479 O 0.5382 0.50386 0.07159 0.0
O480 O 0.50496 0.56413 0.04323 0.0
O481 O 0.50528 0.56333 0.97703 0.0
O482 O 0.50597 0.44153 0.04501 0.0
O483 O 0.50582 0.44065 0.97872 0.0
O484 O 0.56751 0.46956 0.01136 0.0
O485 O 0.56724 0.53554 0.01039 0.0
O486 O 0.44414 0.46903 0.01038 0.0
O487 O 0.44386 0.53523 0.01046 0.0
C488 C 0.00419 0.44855 0.5643 0.0
C489 C 0.0083 0.44782 0.45665 0.0
C490 C 0.00616 0.55725 0.56336 0.0
C491 C 0.00854 0.55631 0.45573 0.0
C492 C 0.95186 0.55719 0.5086 0.0
C493 C 0.95093 0.44879 0.50982 0.0
C494 C 0.06171 0.55603 0.51151 0.0
C495 C 0.06081 0.44803 0.51038 0.0
C496 C 0.06208 0.50256 0.45731 0.0
C497 C 0.952 0.50186 0.45558 0.0
C498 C 0.06023 0.5016 0.56484 0.0
C499 C 0.95046 0.50382 0.5632 0.0
Eu500 Eu 0.00589 0.45995 0.51033 0.0
O501 O 0.98632 0.48257 0.49008 0.0
O502 O 0.02568 0.48242 0.53047 0.0
Eu503 Eu 0.96373 0.50288 0.50956 0.0
Eu504 Eu 0.04856 0.50215 0.51087 0.0
O505 O 0.98582 0.48283 0.52976 0.0
O506 O 0.02624 0.48234 0.49078 0.0
Eu507 Eu 0.00551 0.50277 0.55237 0.0
Eu508 Eu 0.00685 0.50218 0.46782 0.0
O509 O 0.9862 0.52281 0.52944 0.0
O510 O 0.98672 0.52251 0.4898 0.0
O511 O 0.02664 0.5221 0.4904 0.0
O512 O 0.02596 0.52244 0.53016 0.0
Eu513 Eu 0.00668 0.54502 0.50969 0.0
O514 O 0.00519 0.44159 0.54323 0.0
O515 O 0.00676 0.44103 0.47774 0.0
O516 O 0.00658 0.56394 0.54219 0.0
O517 O 0.0088 0.56325 0.47682 0.0
O518 O 0.94501 0.53592 0.50954 0.0
O519 O 0.94448 0.4702 0.51016 0.0
O520 O 0.06798 0.53459 0.51169 0.0
O521 O 0.06741 0.46937 0.51047 0.0
O522 O 0.04077 0.50239 0.44991 0.0
O523 O 0.97352 0.50104 0.44887 0.0
O524 O 0.03869 0.50155 0.5715 0.0
O525 O 0.9718 0.50414 0.57042 0.0
O526 O 0.04039 0.56338 0.51064 0.0
O527 O 0.97336 0.56402 0.50811 0.0
O528 O 0.03936 0.44102 0.51063 0.0
O529 O 0.97227 0.44149 0.5094 0.0
O530 O 0.00873 0.46906 0.44971 0.0
O531 O 0.00723 0.53505 0.44897 0.0
O532 O 0.00384 0.46986 0.57102 0.0
O533 O 0.00567 0.53605 0.57046 0.0
O534 O 0.94407 0.50304 0.54193 0.0
O535 O 0.94509 0.50297 0.47668 0.0
O536 O 0.0672 0.502 0.54375 0.0
O537 O 0.06823 0.50255 0.47865 0.0
C538 C 0.50449 0.9479 0.56523 0.0
C539 C 0.50574 0.94677 0.45758 0.0
C540 C 0.50516 0.05699 0.56406 0.0
C541 C 0.50548 0.056 0.4564 0.0
C542 C 0.45053 0.05639 0.51094 0.0
C543 C 0.45061 0.94754 0.51008 0.0
C544 C 0.55967 0.05644 0.51034 0.0
C545 C 0.55965 0.94725 0.51246 0.0
C546 C 0.56036 0.0018 0.4574 0.0
C547 C 0.45111 0.00206 0.45639 0.0
C548 C 0.5593 0.0032 0.56519 0.0
C549 C 0.44995 0.00261 0.56417 0.0
Eu550 Eu 0.50516 0.95979 0.51134 0.0
O551 O 0.48533 0.982 0.49107 0.0
O552 O 0.5251 0.98235 0.53109 0.0
Eu553 Eu 0.46235 0.00196 0.51042 0.0
Eu554 Eu 0.54807 0.00186 0.51119 0.0
O555 O 0.48476 0.98227 0.53075 0.0
O556 O 0.52554 0.98183 0.49135 0.0
Eu557 Eu 0.50468 0.00237 0.55303 0.0
Eu558 Eu 0.50563 0.0015 0.46859 0.0
O559 O 0.48488 0.02201 0.53019 0.0
O560 O 0.48524 0.02159 0.49054 0.0
O561 O 0.52546 0.02154 0.49101 0.0
O562 O 0.52497 0.02185 0.53048 0.0
Eu563 Eu 0.50511 0.04415 0.51032 0.0
O564 O 0.50528 0.94109 0.54412 0.0
O565 O 0.5054 0.94048 0.4789 0.0
O566 O 0.50589 0.06336 0.5428 0.0
O567 O 0.50486 0.06282 0.47752 0.0
O568 O 0.44347 0.03514 0.51138 0.0
O569 O 0.44354 0.96879 0.50919 0.0
O570 O 0.56686 0.03519 0.51048 0.0
O571 O 0.56686 0.96849 0.51213 0.0
O572 O 0.53898 0.00199 0.45042 0.0
O573 O 0.47259 0.00121 0.44978 0.0
O574 O 0.53778 0.00269 0.57174 0.0
O575 O 0.47131 0.0033 0.57116 0.0
O576 O 0.53813 0.06294 0.51024 0.0
O577 O 0.47201 0.06304 0.51023 0.0
O578 O 0.5381 0.94084 0.51214 0.0
O579 O 0.47207 0.9409 0.51139 0.0
O580 O 0.50598 0.96799 0.4504 0.0
O581 O 0.50606 0.03464 0.44969 0.0
O582 O 0.50385 0.96926 0.57194 0.0
O583 O 0.50421 0.03582 0.57131 0.0
O584 O 0.44321 0.00154 0.54301 0.0
O585 O 0.444 0.0028 0.47744 0.0
O586 O 0.56651 0.00314 0.54416 0.0
O587 O 0.56714 0.00137 0.47857 0.0
C588 C 0.21384 0.19433 0.50612 0.0
C589 C 0.20676 0.21524 0.5143 0.0
C590 C 0.19918 0.17599 0.50641 0.0
C591 C 0.1469 0.15561 0.53335 0.0
H592 H 0.14329 0.11613 0.48229 0.0
C593 C 0.07267 0.09549 0.51935 0.0
C594 C 0.07788 0.07346 0.51291 0.0
C595 C 0.08945 0.11185 0.51996 0.0
C596 C 0.14432 0.12689 0.49675 0.0
H597 H 0.17892 0.23318 0.52957 0.0
H598 H 0.15322 0.20153 0.52939 0.0
H599 H 0.17091 0.1465 0.48258 0.0
H600 H 0.10478 0.0514 0.50179 0.0
H601 H 0.13406 0.08015 0.50277 0.0
H602 H 0.11996 0.13632 0.54727 0.0
C603 C 0.17016 0.19915 0.52303 0.0
C604 C 0.16014 0.14422 0.49696 0.0
C605 C 0.18479 0.2174 0.52282 0.0
C606 C 0.10022 0.0682 0.50692 0.0
C607 C 0.11696 0.08465 0.50734 0.0
C608 C 0.13101 0.1384 0.53307 0.0
C609 C 0.17718 0.17822 0.5149 0.0
C610 C 0.16141 0.15894 0.51516 0.0
C611 C 0.11174 0.10658 0.51399 0.0
C612 C 0.1294 0.12405 0.51467 0.0
H613 H 0.23062 0.1922 0.49932 0.0
H614 H 0.20516 0.16004 0.50019 0.0
H615 H 0.14778 0.16635 0.54783 0.0
H616 H 0.05567 0.10011 0.52414 0.0
H617 H 0.08492 0.12871 0.52491 0.0
C618 C 0.79692 0.19313 0.53788 0.0
C619 C 0.79546 0.20819 0.52 0.0
C620 C 0.81513 0.17838 0.53954 0.0
C621 C 0.87216 0.1659 0.5167 0.0
H622 H 0.85672 0.10504 0.53334 0.0
C623 C 0.93937 0.09635 0.52344 0.0
C624 C 0.93343 0.07488 0.51583 0.0
C625 C 0.9231 0.11314 0.52532 0.0
C626 C 0.86129 0.12191 0.52847 0.0
H627 H 0.8121 0.22015 0.49021 0.0
H628 H 0.84368 0.19414 0.4928 0.0
H629 H 0.82792 0.13401 0.53445 0.0
H630 H 0.90576 0.05429 0.50401 0.0
H631 H 0.87747 0.08377 0.50675 0.0
H632 H 0.90527 0.15354 0.50969 0.0
C633 C 0.83107 0.19397 0.50583 0.0
C634 C 0.84485 0.13863 0.52947 0.0
C635 C 0.81297 0.20887 0.50431 0.0
C636 C 0.91086 0.0706 0.51008 0.0
C637 C 0.89462 0.08748 0.51177 0.0
C638 C 0.88856 0.14913 0.51553 0.0
C639 C 0.83211 0.17821 0.52321 0.0
C640 C 0.85004 0.1608 0.52346 0.0
C641 C 0.90054 0.10894 0.51947 0.0
C642 C 0.88327 0.1269 0.52126 0.0
H643 H 0.78372 0.19247 0.55033 0.0
H644 H 0.81567 0.16681 0.55341 0.0
H645 H 0.8768 0.18284 0.51218 0.0
H646 H 0.95656 0.10015 0.52826 0.0
H647 H 0.92818 0.12935 0.53167 0.0
C648 C 0.79732 0.81226 0.53163 0.0
C649 C 0.79401 0.79838 0.51306 0.0
C650 C 0.81533 0.82731 0.53216 0.0
C651 C 0.85115 0.8597 0.49501 0.0
H652 H 0.88904 0.86813 0.54694 0.0
C653 C 0.91017 0.93569 0.50572 0.0
C654 C 0.93232 0.93087 0.5126 0.0
C655 C 0.89365 0.91902 0.506 0.0
C656 C 0.87862 0.86587 0.53231 0.0
H657 H 0.80704 0.78905 0.48069 0.0
H658 H 0.83856 0.8154 0.48162 0.0
H659 H 0.86006 0.83893 0.54714 0.0
H660 H 0.95441 0.90489 0.52555 0.0
H661 H 0.92547 0.87589 0.52613 0.0
H662 H 0.86959 0.88669 0.4802 0.0
C663 C 0.8272 0.81463 0.49572 0.0
C664 C 0.862 0.8493 0.53248 0.0
C665 C 0.80932 0.79943 0.49527 0.0
C666 C 0.93754 0.90912 0.51999 0.0
C667 C 0.92096 0.89254 0.5205 0.0
C668 C 0.86759 0.87641 0.49492 0.0
C669 C 0.83019 0.82889 0.51404 0.0
C670 C 0.84814 0.84606 0.51381 0.0
C671 C 0.89891 0.89732 0.51341 0.0
C672 C 0.88147 0.87964 0.51357 0.0
H673 H 0.7858 0.81165 0.54561 0.0
H674 H 0.81721 0.83821 0.54643 0.0
H675 H 0.84052 0.85769 0.48048 0.0
H676 H 0.90562 0.95226 0.4999 0.0
H677 H 0.8767 0.92316 0.50062 0.0
C678 C 0.21305 0.80918 0.51657 0.0
C679 C 0.20611 0.78822 0.50843 0.0
C680 C 0.19812 0.82732 0.5167 0.0
C681 C 0.14497 0.84718 0.49097 0.0
H682 H 0.14235 0.88674 0.54202 0.0
C683 C 0.07128 0.90797 0.50581 0.0
C684 C 0.07681 0.92997 0.51206 0.0
C685 C 0.08786 0.89139 0.50512 0.0
C686 C 0.14308 0.87595 0.52757 0.0
H687 H 0.17819 0.76998 0.49369 0.0
H688 H 0.15202 0.80128 0.49461 0.0
H689 H 0.17006 0.85644 0.54121 0.0
H690 H 0.10409 0.95173 0.5228 0.0
H691 H 0.13301 0.92263 0.52167 0.0
H692 H 0.11768 0.86641 0.47756 0.0
C693 C 0.16906 0.80386 0.50061 0.0
C694 C 0.15896 0.85864 0.52706 0.0
C695 C 0.18398 0.78581 0.50039 0.0
C696 C 0.09927 0.93497 0.51782 0.0
C697 C 0.11581 0.91831 0.51731 0.0
C698 C 0.12902 0.86435 0.49155 0.0
C699 C 0.17596 0.82484 0.50869 0.0
C700 C 0.15992 0.84393 0.50884 0.0
C701 C 0.11028 0.89641 0.51083 0.0
C702 C 0.12779 0.87877 0.50993 0.0
H703 H 0.22996 0.81152 0.52301 0.0
H704 H 0.20401 0.84333 0.52285 0.0
H705 H 0.14559 0.83644 0.47647 0.0
H706 H 0.05418 0.90354 0.5012 0.0
H707 H 0.0831 0.87456 0.50029 0.0
C708 C 0.48654 0.18582 0.22045 0.0
C709 C 0.50122 0.20431 0.22004 0.0
C710 C 0.48516 0.17143 0.20228 0.0
C711 C 0.49561 0.16526 0.14284 0.0
H712 H 0.50601 0.10287 0.15767 0.0
C713 C 0.51043 0.09705 0.07599 0.0
C714 C 0.50177 0.07559 0.08029 0.0
C715 C 0.50952 0.11368 0.09231 0.0
C716 C 0.50269 0.12013 0.15321 0.0
H717 H 0.52514 0.22278 0.19976 0.0
H718 H 0.52225 0.19777 0.16771 0.0
H719 H 0.5048 0.1307 0.1871 0.0
H720 H 0.48446 0.05495 0.10458 0.0
H721 H 0.48218 0.08402 0.13269 0.0
H722 H 0.49305 0.15465 0.10894 0.0
C723 C 0.51196 0.19448 0.18223 0.0
C724 C 0.50209 0.13607 0.1701 0.0
C725 C 0.51355 0.20879 0.20055 0.0
C726 C 0.49165 0.07122 0.10094 0.0
C727 C 0.49043 0.08789 0.11709 0.0
C728 C 0.4959 0.14923 0.1259 0.0
C729 C 0.49818 0.17538 0.1832 0.0
C730 C 0.49851 0.15874 0.16508 0.0
C731 C 0.49965 0.10922 0.11313 0.0
C732 C 0.49939 0.12646 0.13092 0.0
H733 H 0.47641 0.18222 0.23501 0.0
H734 H 0.47415 0.15697 0.20325 0.0
H735 H 0.49276 0.18268 0.13862 0.0
H736 H 0.5184 0.10084 0.06021 0.0
H737 H 0.51702 0.12983 0.08879 0.0
C738 C 0.79686 0.52372 0.19912 0.0
C739 C 0.79388 0.5054 0.21348 0.0
C740 C 0.81495 0.52414 0.18425 0.0
C741 C 0.85176 0.48652 0.15348 0.0
H742 H 0.88892 0.53917 0.1441 0.0
C743 C 0.91099 0.49648 0.07817 0.0
C744 C 0.93305 0.50369 0.08289 0.0
C745 C 0.89441 0.49694 0.09464 0.0
C746 C 0.87871 0.52434 0.14664 0.0
H747 H 0.8075 0.47332 0.22383 0.0
H748 H 0.83912 0.47405 0.19777 0.0
H749 H 0.85961 0.53968 0.17279 0.0
H750 H 0.95493 0.51742 0.10846 0.0
H751 H 0.92584 0.51833 0.13714 0.0
H752 H 0.8707 0.47122 0.12726 0.0
C753 C 0.82747 0.48805 0.19804 0.0
C754 C 0.8619 0.52468 0.16291 0.0
C755 C 0.80953 0.48773 0.21305 0.0
C756 C 0.93813 0.5116 0.10433 0.0
C757 C 0.92147 0.51228 0.12072 0.0
C758 C 0.86838 0.48626 0.13707 0.0
C759 C 0.83019 0.50613 0.18334 0.0
C760 C 0.84831 0.50576 0.16648 0.0
C761 C 0.89951 0.50485 0.11604 0.0
C762 C 0.88198 0.50516 0.1335 0.0
H763 H 0.78507 0.5376 0.19924 0.0
H764 H 0.81662 0.53821 0.17299 0.0
H765 H 0.84135 0.47179 0.15577 0.0
H766 H 0.90655 0.49026 0.06183 0.0
H767 H 0.87753 0.49128 0.09059 0.0
C768 C 0.48626 0.79297 0.19577 0.0
C769 C 0.50133 0.79175 0.21379 0.0
C770 C 0.48598 0.81168 0.18191 0.0
C771 C 0.52125 0.85992 0.16494 0.0
H772 H 0.46569 0.87883 0.13638 0.0
C773 C 0.51347 0.93755 0.1072 0.0
C774 C 0.50415 0.93267 0.08627 0.0
C775 C 0.51286 0.92162 0.12422 0.0
C776 C 0.4813 0.87369 0.14428 0.0
H777 H 0.5276 0.80962 0.23161 0.0
H778 H 0.5263 0.84276 0.20808 0.0
H779 H 0.46462 0.84933 0.16441 0.0
H780 H 0.48659 0.90758 0.06677 0.0
H781 H 0.48513 0.87994 0.0967 0.0
H782 H 0.53774 0.88471 0.1449 0.0
C783 C 0.51513 0.82894 0.20429 0.0
C784 C 0.48075 0.85672 0.16023 0.0
C785 C 0.51564 0.81004 0.218 0.0
C786 C 0.49403 0.91172 0.0827 0.0
C787 C 0.49304 0.89599 0.09982 0.0
C788 C 0.52171 0.87716 0.14925 0.0
C789 C 0.50048 0.82987 0.18591 0.0
C790 C 0.50079 0.8493 0.17044 0.0
C791 C 0.50252 0.90079 0.12067 0.0
C792 C 0.5018 0.88386 0.13852 0.0
H793 H 0.4747 0.77938 0.19225 0.0
H794 H 0.47469 0.8116 0.16775 0.0
H795 H 0.53705 0.85445 0.17218 0.0
H796 H 0.52148 0.95355 0.11035 0.0
H797 H 0.52024 0.92564 0.1402 0.0
C798 C 0.18284 0.49773 0.2274 0.0
C799 C 0.20523 0.50522 0.22527 0.0
C800 C 0.16789 0.49933 0.20959 0.0
C801 C 0.16538 0.50166 0.14916 0.0
H802 H 0.10465 0.5237 0.15931 0.0
C803 C 0.0998 0.51071 0.07837 0.0
C804 C 0.07751 0.50445 0.08345 0.0
C805 C 0.11605 0.51216 0.09514 0.0
C806 C 0.12147 0.51729 0.15625 0.0
H807 H 0.22942 0.52034 0.20271 0.0
H808 H 0.20325 0.52267 0.17133 0.0
H809 H 0.13191 0.52393 0.18965 0.0
H810 H 0.05497 0.4943 0.11007 0.0
H811 H 0.08334 0.49636 0.13912 0.0
H812 H 0.1548 0.49443 0.11592 0.0
C813 C 0.19741 0.51559 0.18689 0.0
C814 C 0.13707 0.51751 0.1736 0.0
C815 C 0.21236 0.5142 0.20481 0.0
C816 C 0.0719 0.49942 0.10559 0.0
C817 C 0.08816 0.50072 0.1223 0.0
C818 C 0.1497 0.50127 0.13181 0.0
C819 C 0.17502 0.50823 0.18917 0.0
C820 C 0.15907 0.50944 0.1703 0.0
C821 C 0.11037 0.50726 0.11731 0.0
C822 C 0.12748 0.50881 0.13526 0.0
H823 H 0.17693 0.49024 0.24273 0.0
H824 H 0.15082 0.49316 0.21166 0.0
H825 H 0.1822 0.49516 0.14626 0.0
H826 H 0.10465 0.51485 0.06149 0.0
H827 H 0.13296 0.51746 0.09079 0.0
C828 C 0.51845 0.79508 0.82073 0.0
C829 C 0.50447 0.80038 0.80257 0.0
C830 C 0.51817 0.80833 0.83991 0.0
C831 C 0.48397 0.85205 0.86851 0.0
H832 H 0.54067 0.86713 0.89703 0.0
C833 C 0.49614 0.92985 0.92321 0.0
C834 C 0.50606 0.92642 0.94415 0.0
C835 C 0.49558 0.91257 0.90764 0.0
C836 C 0.52471 0.86283 0.88934 0.0
H837 H 0.4787 0.82333 0.79068 0.0
H838 H 0.47902 0.84687 0.8234 0.0
H839 H 0.54027 0.83998 0.86663 0.0
H840 H 0.52351 0.90241 0.96511 0.0
H841 H 0.52297 0.87226 0.93749 0.0
H842 H 0.46866 0.87575 0.89056 0.0
C843 C 0.48991 0.8323 0.82315 0.0
C844 C 0.52443 0.84723 0.87202 0.0
C845 C 0.49003 0.81899 0.80416 0.0
C846 C 0.51564 0.90545 0.94913 0.0
C847 C 0.51544 0.88828 0.93336 0.0
C848 C 0.48433 0.86786 0.88555 0.0
C849 C 0.50396 0.82717 0.84128 0.0
C850 C 0.50409 0.84197 0.86112 0.0
C851 C 0.50525 0.89168 0.91257 0.0
C852 C 0.50474 0.87362 0.89585 0.0
H853 H 0.52985 0.7809 0.82001 0.0
H854 H 0.52906 0.80378 0.85366 0.0
H855 H 0.46792 0.84798 0.8609 0.0
H856 H 0.48851 0.9458 0.91897 0.0
H857 H 0.48778 0.9156 0.89161 0.0
C858 C 0.21372 0.52255 0.82413 0.0
C859 C 0.21676 0.50426 0.80976 0.0
C860 C 0.19575 0.52282 0.83913 0.0
C861 C 0.15939 0.48505 0.87024 0.0
H862 H 0.12163 0.53739 0.87925 0.0
C863 C 0.09999 0.4952 0.94552 0.0
C864 C 0.07787 0.50222 0.94072 0.0
C865 C 0.11656 0.49554 0.92903 0.0
C866 C 0.13201 0.52265 0.87682 0.0
H867 H 0.20339 0.47207 0.79957 0.0
H868 H 0.17197 0.47253 0.8259 0.0
H869 H 0.15094 0.53802 0.85055 0.0
H870 H 0.05586 0.51539 0.91494 0.0
H871 H 0.08493 0.51612 0.88624 0.0
H872 H 0.14062 0.46974 0.89659 0.0
C873 C 0.18348 0.48662 0.82552 0.0
C874 C 0.14882 0.52306 0.86055 0.0
C875 C 0.2013 0.48645 0.81036 0.0
C876 C 0.07271 0.50974 0.91915 0.0
C877 C 0.08936 0.51033 0.90275 0.0
C878 C 0.14278 0.48474 0.88667 0.0
C879 C 0.18069 0.5047 0.84018 0.0
C880 C 0.16262 0.50425 0.85711 0.0
C881 C 0.11139 0.50315 0.90753 0.0
C882 C 0.12895 0.50352 0.89009 0.0
H883 H 0.22537 0.53653 0.82388 0.0
H884 H 0.19401 0.5369 0.85036 0.0
H885 H 0.16996 0.47041 0.86805 0.0
H886 H 0.10449 0.48925 0.96196 0.0
H887 H 0.1335 0.49007 0.93316 0.0
C888 C 0.49518 0.21247 0.83126 0.0
C889 C 0.50783 0.21205 0.8115 0.0
C890 C 0.49443 0.19381 0.84514 0.0
C891 C 0.52485 0.14155 0.85859 0.0
H892 H 0.46952 0.12817 0.89041 0.0
C893 C 0.51372 0.06467 0.91668 0.0
C894 C 0.50514 0.06988 0.93785 0.0
C895 C 0.51368 0.08075 0.89979 0.0
C896 C 0.48507 0.13176 0.88164 0.0
H897 H 0.52954 0.19154 0.79078 0.0
H898 H 0.52764 0.15858 0.81476 0.0
H899 H 0.46991 0.15825 0.86301 0.0
H900 H 0.48944 0.09585 0.95782 0.0
H901 H 0.48915 0.12378 0.92824 0.0
H902 H 0.53987 0.11482 0.87727 0.0
C903 C 0.51863 0.17356 0.81968 0.0
C904 C 0.48536 0.14902 0.86602 0.0
C905 C 0.51951 0.19236 0.80581 0.0
C906 C 0.4963 0.09137 0.94173 0.0
C907 C 0.49596 0.1073 0.92477 0.0
C908 C 0.52448 0.12409 0.87406 0.0
C909 C 0.50608 0.1741 0.83952 0.0
C910 C 0.50537 0.15444 0.85464 0.0
C911 C 0.50472 0.10217 0.90369 0.0
C912 C 0.50469 0.11934 0.886 0.0
H913 H 0.48565 0.22721 0.83597 0.0
H914 H 0.4849 0.19497 0.86046 0.0
H915 H 0.5406 0.14543 0.85031 0.0
H916 H 0.52073 0.04827 0.91324 0.0
H917 H 0.52045 0.07641 0.88363 0.0
C918 C 0.81331 0.49372 0.80514 0.0
C919 C 0.79236 0.50286 0.81131 0.0
C920 C 0.83146 0.49398 0.81999 0.0
C921 C 0.85164 0.52206 0.87117 0.0
H922 H 0.88992 0.46963 0.87684 0.0
C923 C 0.91136 0.50847 0.94529 0.0
C924 C 0.93347 0.50153 0.94035 0.0
C925 C 0.89489 0.50893 0.92872 0.0
C926 C 0.87948 0.48446 0.87525 0.0
H927 H 0.77418 0.51986 0.8377 0.0
H928 H 0.80545 0.51958 0.86377 0.0
H929 H 0.85977 0.47001 0.84914 0.0
H930 H 0.95552 0.48927 0.91419 0.0
H931 H 0.92661 0.48996 0.88531 0.0
H932 H 0.87103 0.53626 0.89766 0.0
C933 C 0.80804 0.5125 0.84739 0.0
C934 C 0.86228 0.48472 0.85937 0.0
C935 C 0.78999 0.51236 0.83255 0.0
C936 C 0.93868 0.49482 0.91853 0.0
C937 C 0.92213 0.49507 0.90202 0.0
C938 C 0.86869 0.52172 0.88714 0.0
C939 C 0.82899 0.50336 0.84129 0.0
C940 C 0.84803 0.50345 0.8573 0.0
C941 C 0.90013 0.50225 0.90695 0.0
C942 C 0.88263 0.50285 0.88945 0.0
H943 H 0.81562 0.48615 0.78894 0.0
H944 H 0.84746 0.48698 0.81472 0.0
H945 H 0.84127 0.53694 0.8697 0.0
H946 H 0.90678 0.5138 0.96191 0.0
H947 H 0.87797 0.51432 0.93299 0.0
C948 C 0.71382 0.6952 0.00532 0.0
C949 C 0.70682 0.71609 0.01359 0.0
C950 C 0.69899 0.67699 0.00525 0.0
C951 C 0.64619 0.65688 0.03141 0.0
H952 H 0.64325 0.61736 0.98033 0.0
C953 C 0.57234 0.5964 0.01679 0.0
C954 C 0.57779 0.57434 0.01062 0.0
C955 C 0.58897 0.6129 0.01741 0.0
C956 C 0.64408 0.62814 0.99479 0.0
H957 H 0.67892 0.73414 0.02862 0.0
H958 H 0.65293 0.70275 0.02777 0.0
H959 H 0.6709 0.6477 0.98098 0.0
H960 H 0.60497 0.55241 0.99994 0.0
H961 H 0.634 0.58139 1.00092 0.0
H962 H 0.61904 0.63762 0.04498 0.0
C963 C 0.66993 0.70027 0.02163 0.0
C964 C 0.65992 0.64546 0.9952 0.0
C965 C 0.68474 0.71838 0.0218 0.0
C966 C 0.60022 0.56921 0.00487 0.0
C967 C 0.61682 0.5858 0.00528 0.0
C968 C 0.63027 0.6397 0.03092 0.0
C969 C 0.67689 0.67934 0.01345 0.0
C970 C 0.66097 0.66017 0.01342 0.0
C971 C 0.61136 0.60775 0.0117 0.0
C972 C 0.62892 0.62531 0.01252 0.0
H973 H 0.73069 0.69296 0.99875 0.0
H974 H 0.70492 0.66103 0.99899 0.0
H975 H 0.64689 0.6676 0.04591 0.0
H976 H 0.55526 0.60091 0.02139 0.0
H977 H 0.58428 0.62976 0.02218 0.0
C978 C 0.30991 0.70533 0.02729 0.0
C979 C 0.29451 0.70632 0.00956 0.0
C980 C 0.32797 0.69033 0.0267 0.0
C981 C 0.36295 0.65599 0.9897 0.0
H982 H 0.37075 0.61832 0.04176 0.0
C983 C 0.43846 0.5958 1.00172 0.0
C984 C 0.43319 0.57405 0.00908 0.0
C985 C 0.42193 0.61245 1.00127 0.0
C986 C 0.3687 0.62869 0.0271 0.0
H987 H 0.28637 0.69318 0.97695 0.0
H988 H 0.31809 0.66695 0.97587 0.0
H989 H 0.34165 0.64732 0.04171 0.0
H990 H 0.40642 0.55275 0.02173 0.0
H991 H 0.3776 0.58197 0.02109 0.0
H992 H 0.38996 0.63721 0.97506 0.0
C993 C 0.31614 0.67776 0.99021 0.0
C994 C 0.35224 0.6454 0.02715 0.0
C995 C 0.29795 0.69261 0.99089 0.0
C996 C 0.41102 0.56931 0.01593 0.0
C997 C 0.39456 0.58605 0.0157 0.0
C998 C 0.37959 0.63941 0.98974 0.0
C999 C 0.33106 0.6762 0.00829 0.0
C1000 C 0.34914 0.65912 0.00842 0.0
C1001 C 0.39988 0.60776 0.00838 0.0
C1002 C 0.3825 0.62553 0.00839 0.0
H1003 H 0.30755 0.71559 0.04196 0.0
H1004 H 0.33938 0.68957 0.04077 0.0
H1005 H 0.36093 0.66642 0.97509 0.0
H1006 H 0.45534 0.59997 0.99618 0.0
H1007 H 0.42649 0.6291 0.99569 0.0
C1008 C 0.29836 0.31219 0.03154 0.0
C1009 C 0.29484 0.29824 0.01307 0.0
C1010 C 0.31655 0.32704 0.03194 0.0
C1011 C 0.35264 0.35882 0.99451 0.0
H1012 H 0.39058 0.36736 0.04639 0.0
C1013 C 0.41156 0.43485 0.00502 0.0
C1014 C 0.43371 0.43018 0.01199 0.0
C1015 C 0.39513 0.41811 0.00529 0.0
C1016 C 0.38016 0.36506 0.03177 0.0
H1017 H 0.30769 0.28856 0.98072 0.0
H1018 H 0.33951 0.31457 0.98142 0.0
H1019 H 0.36142 0.33833 0.04677 0.0
H1020 H 0.4559 0.40434 0.02505 0.0
H1021 H 0.42709 0.37519 0.02563 0.0
H1022 H 0.37121 0.38563 0.97956 0.0
C1023 C 0.32818 0.31401 0.99555 0.0
C1024 C 0.36343 0.34858 0.03204 0.0
C1025 C 0.31012 0.29902 0.99524 0.0
C1026 C 0.43902 0.40847 0.01944 0.0
C1027 C 0.42252 0.3918 0.01993 0.0
C1028 C 0.36918 0.37543 0.99433 0.0
C1029 C 0.33139 0.32834 0.01378 0.0
C1030 C 0.34953 0.34533 0.0134 0.0
C1031 C 0.40046 0.39645 0.01276 0.0
C1032 C 0.38307 0.37872 0.01296 0.0
H1033 H 0.28687 0.3118 0.04555 0.0
H1034 H 0.31858 0.33801 0.04614 0.0
H1035 H 0.34199 0.35679 0.98001 0.0
H1036 H 0.40692 0.45138 0.99913 0.0
H1037 H 0.37817 0.42215 0.99985 0.0
C1038 C 0.68728 0.28836 0.99213 0.0
C1039 C 0.70683 0.28831 0.00526 0.0
C1040 C 0.67235 0.30639 0.99295 0.0
C1041 C 0.66696 0.36544 0.01177 0.0
H1042 H 0.60315 0.35191 0.00709 0.0
C1043 C 0.5993 0.43457 0.00302 0.0
C1044 C 0.57812 0.43083 0.0128 0.0
C1045 C 0.61555 0.41762 0.00278 0.0
C1046 C 0.62087 0.35602 0.00876 0.0
H1047 H 0.72641 0.30689 0.02937 0.0
H1048 H 0.69987 0.33821 0.03153 0.0
H1049 H 0.6304 0.32171 0.00583 0.0
H1050 H 0.55761 0.40686 0.03082 0.0
H1051 H 0.58617 0.37761 0.03118 0.0
H1052 H 0.65726 0.39971 0.01572 0.0
C1053 C 0.69629 0.32462 0.02015 0.0
C1054 C 0.63658 0.33868 0.00762 0.0
C1055 C 0.71143 0.3067 0.01903 0.0
C1056 C 0.57368 0.41008 0.02285 0.0
C1057 C 0.59004 0.39328 0.02295 0.0
C1058 C 0.65119 0.38279 0.01323 0.0
C1059 C 0.67646 0.32459 0.00724 0.0
C1060 C 0.65983 0.34316 0.00891 0.0
C1061 C 0.61107 0.3967 0.01263 0.0
C1062 C 0.62795 0.3783 0.01162 0.0
H1063 H 0.6836 0.27445 0.98115 0.0
H1064 H 0.65759 0.30603 0.98234 0.0
H1065 H 0.68474 0.36956 0.01261 0.0
H1066 H 0.60311 0.45039 0.99502 0.0
H1067 H 0.6314 0.42076 0.99438 0.0
C1068 C 0.01692 0.7073 0.7028 0.0
C1069 C 0.00281 0.70247 0.72096 0.0
C1070 C 0.01686 0.69353 0.68399 0.0
C1071 C 0.98323 0.6488 0.65632 0.0
H1072 H 0.0403 0.63371 0.62851 0.0
C1073 C 0.99603 0.57114 0.6012 0.0
C1074 C 0.00608 0.57496 0.5804 0.0
C1075 C 0.9954 0.58814 0.61709 0.0
C1076 C 0.02425 0.63797 0.63603 0.0
H1077 H 0.97696 0.67985 0.73322 0.0
H1078 H 0.97766 0.65539 0.70119 0.0
H1079 H 0.03941 0.66132 0.65846 0.0
H1080 H 0.02378 0.59929 0.56003 0.0
H1081 H 0.02308 0.62889 0.58814 0.0
H1082 H 0.96831 0.62467 0.63447 0.0
C1083 C 0.9885 0.66999 0.70113 0.0
C1084 C 0.02368 0.65385 0.65307 0.0
C1085 C 0.98839 0.68383 0.71974 0.0
C1086 C 0.01579 0.59595 0.57589 0.0
C1087 C 0.01552 0.61282 0.59195 0.0
C1088 C 0.98387 0.63271 0.63955 0.0
C1089 C 0.00274 0.6746 0.68303 0.0
C1090 C 0.00319 0.65921 0.66364 0.0
C1091 C 0.00515 0.60909 0.61259 0.0
C1092 C 0.00441 0.62698 0.62947 0.0
H1093 H 0.02829 0.72149 0.70325 0.0
H1094 H 0.02785 0.69771 0.67023 0.0
H1095 H 0.96707 0.65291 0.66368 0.0
H1096 H 0.98832 0.55516 0.60506 0.0
H1097 H 0.98746 0.58487 0.63299 0.0
C1098 C 0.29674 0.02258 0.69875 0.0
C1099 C 0.29394 0.00416 0.71302 0.0
C1100 C 0.31459 0.0231 0.68361 0.0
C1101 C 0.35102 0.98572 0.65206 0.0
H1102 H 0.38816 0.03841 0.64284 0.0
C1103 C 0.4102 0.99607 0.57665 0.0
C1104 C 0.43226 0.00322 0.58144 0.0
C1105 C 0.39359 0.99646 0.59311 0.0
C1106 C 0.37795 0.02357 0.64532 0.0
H1107 H 0.30767 0.97199 0.72291 0.0
H1108 H 0.33889 0.97287 0.69639 0.0
H1109 H 0.35908 0.03871 0.67174 0.0
H1110 H 0.4541 0.01678 0.60713 0.0
H1111 H 0.42499 0.01757 0.63577 0.0
H1112 H 0.36977 0.97062 0.62559 0.0
C1113 C 0.32727 0.98688 0.69693 0.0
C1114 C 0.36127 0.0238 0.66172 0.0
C1115 C 0.30956 0.98647 0.71221 0.0
C1116 C 0.4373 0.01101 0.60294 0.0
C1117 C 0.42062 0.01163 0.6193 0.0
C1118 C 0.36752 0.98559 0.63552 0.0
C1119 C 0.32979 0.00508 0.68234 0.0
C1120 C 0.3477 0.00485 0.66525 0.0
C1121 C 0.39866 0.00425 0.61456 0.0
C1122 C 0.38113 0.0045 0.63202 0.0
H1123 H 0.28497 0.03648 0.69915 0.0
H1124 H 0.31612 0.03726 0.67245 0.0
H1125 H 0.34062 0.97098 0.65432 0.0
H1126 H 0.40578 0.98994 0.56027 0.0
H1127 H 0.3767 0.99085 0.58901 0.0
C1128 C 0.0178 0.30753 0.7113 0.0
C1129 C 0.00094 0.29102 0.71111 0.0
C1130 C 0.01691 0.32543 0.69638 0.0
C1131 C 0.99191 0.34125 0.64241 0.0
H1132 H 0.01269 0.40058 0.65872 0.0
C1133 C 0.00934 0.40889 0.5767 0.0
C1134 C 0.0033 0.43108 0.5817 0.0
C1135 C 0.00837 0.39232 0.59304 0.0
C1136 C 0.00659 0.38417 0.65395 0.0
H1137 H 0.96948 0.28067 0.6959 0.0
H1138 H 0.96761 0.31218 0.67013 0.0
H1139 H 0.01111 0.37122 0.68682 0.0
H1140 H 0.99138 0.45327 0.60776 0.0
H1141 H 0.98925 0.42424 0.63614 0.0
H1142 H 0.98682 0.35429 0.60971 0.0
C1143 C 0.98184 0.31104 0.68138 0.0
C1144 C 0.00596 0.36727 0.67 0.0
C1145 C 0.98285 0.29304 0.69616 0.0
C1146 C 0.99631 0.43636 0.6034 0.0
C1147 C 0.99517 0.41973 0.6197 0.0
C1148 C 0.99239 0.35817 0.62642 0.0
C1149 C 0.99903 0.32727 0.68109 0.0
C1150 C 0.99877 0.34556 0.66437 0.0
C1151 C 0.00116 0.39751 0.6147 0.0
C1152 C 0.99994 0.37977 0.63194 0.0
H1153 H 0.03205 0.30621 0.72251 0.0
H1154 H 0.0306 0.33743 0.6964 0.0
H1155 H 0.98655 0.32466 0.63741 0.0
H1156 H 0.01504 0.40428 0.56022 0.0
H1157 H 0.01354 0.37547 0.58873 0.0
C1158 C 0.68079 0.99763 0.72766 0.0
C1159 C 0.7032 0.0051 0.72569 0.0
C1160 C 0.66594 0.99932 0.70977 0.0
C1161 C 0.66392 0.00174 0.64934 0.0
H1162 H 0.60302 0.02354 0.65899 0.0
C1163 C 0.59892 0.01048 0.57798 0.0
C1164 C 0.5766 0.00418 0.58288 0.0
C1165 C 0.61502 0.01199 0.5949 0.0
C1166 C 0.61989 0.0172 0.65606 0.0
H1167 H 0.72751 0.02037 0.70335 0.0
H1168 H 0.70153 0.02287 0.67184 0.0
H1169 H 0.63001 0.02386 0.68956 0.0
H1170 H 0.55385 0.99402 0.60933 0.0
H1171 H 0.58196 0.99618 0.63861 0.0
H1172 H 0.65366 0.99448 0.61601 0.0
C1173 C 0.69559 0.01572 0.68733 0.0
C1174 C 0.63535 0.01747 0.67354 0.0
C1175 C 0.71044 0.01423 0.70533 0.0
C1176 C 0.57082 0.99916 0.60498 0.0
C1177 C 0.58692 1.00053 0.62183 0.0
C1178 C 0.64839 0.0013 0.63186 0.0
C1179 C 0.6732 0.00831 0.68943 0.0
C1180 C 0.65741 0.0095 0.67043 0.0
C1181 C 0.60917 0.00712 0.61703 0.0
C1182 C 0.62611 0.00875 0.63512 0.0
H1183 H 0.6748 0.99003 0.74291 0.0
H1184 H 0.64887 0.99313 0.7117 0.0
H1185 H 0.68079 0.99532 0.64658 0.0
H1186 H 0.60391 0.0146 0.56115 0.0
H1187 H 0.63196 0.01734 0.59068 0.0
C1188 C 0.033 0.31857 0.30074 0.0
C1189 C 0.01858 0.29987 0.30135 0.0
C1190 C 0.03381 0.33345 0.31858 0.0
C1191 C 0.02161 0.34074 0.37772 0.0
H1192 H 0.01027 0.40263 0.36152 0.0
C1193 C 0.00185 0.40866 0.44326 0.0
C1194 C 0.0102 0.43033 0.43945 0.0
C1195 C 0.00375 0.39218 0.42689 0.0
C1196 C 0.01385 0.38552 0.36637 0.0
H1197 H 0.99452 0.28163 0.32169 0.0
H1198 H 0.99648 0.3074 0.35311 0.0
H1199 H 0.01353 0.37439 0.33257 0.0
H1200 H 0.02766 0.45161 0.4158 0.0
H1201 H 0.03162 0.42278 0.38759 0.0
H1202 H 0.02233 0.35186 0.41151 0.0
C1203 C 0.00702 0.31049 0.33871 0.0
C1204 C 0.01565 0.36935 0.34976 0.0
C1205 C 0.00598 0.29572 0.32075 0.0
C1206 C 0.02074 0.43514 0.41909 0.0
C1207 C 0.02293 0.41861 0.40288 0.0
C1208 C 0.02013 0.35699 0.39437 0.0
C1209 C 0.02049 0.32978 0.33752 0.0
C1210 C 0.01948 0.34683 0.35528 0.0
C1211 C 0.01433 0.39695 0.40649 0.0
C1212 C 0.01616 0.37959 0.38889 0.0
H1213 H 0.04332 0.32197 0.28627 0.0
H1214 H 0.04459 0.34807 0.31744 0.0
H1215 H 0.02466 0.32346 0.38234 0.0
H1216 H 0.99352 0.40452 0.45876 0.0
H1217 H 0.9966 0.37581 0.43012 0.0
C1218 C 0.70185 0.98748 0.31005 0.0
C1219 C 0.71725 0.00535 0.30956 0.0
C1220 C 0.68399 0.98753 0.32516 0.0
C1221 C 0.64914 0.02373 0.36026 0.0
H1222 H 0.64102 0.97022 0.39606 0.0
C1223 C 0.57294 0.00997 0.41857 0.0
C1224 C 0.57802 0.00232 0.44012 0.0
C1225 C 0.58964 0.01068 0.40225 0.0
C1226 C 0.64316 0.98528 0.38621 0.0
H1227 H 0.72569 0.0376 0.32383 0.0
H1228 H 0.69427 0.03776 0.35021 0.0
H1229 H 0.67041 0.9711 0.36757 0.0
H1230 H 0.60456 0.98928 0.4614 0.0
H1231 H 0.6337 0.99032 0.43271 0.0
H1232 H 0.6219 0.03791 0.37899 0.0
C1233 C 0.69608 0.02373 0.33894 0.0
C1234 C 0.65979 0.98571 0.36981 0.0
C1235 C 0.71409 0.02358 0.32398 0.0
C1236 C 0.60013 0.99532 0.44497 0.0
C1237 C 0.61677 0.99578 0.42855 0.0
C1238 C 0.63232 0.0232 0.37651 0.0
C1239 C 0.68109 0.00554 0.33988 0.0
C1240 C 0.66299 0.00496 0.35676 0.0
C1241 C 0.61167 0.00351 0.40707 0.0
C1242 C 0.62928 0.00401 0.3897 0.0
H1243 H 0.70403 0.97314 0.29922 0.0
H1244 H 0.67253 0.9734 0.32545 0.0
H1245 H 0.65123 0.03873 0.35034 0.0
H1246 H 0.5561 0.01563 0.41434 0.0
H1247 H 0.58527 0.01657 0.38575 0.0
C1248 C 0.02729 0.71672 0.33057 0.0
C1249 C 0.01502 0.71504 0.31063 0.0
C1250 C 0.02819 0.69872 0.34534 0.0
C1251 C 0.02065 0.63806 0.35074 0.0
H1252 H 0.00489 0.65222 0.41171 0.0
C1253 C 0.00293 0.56964 0.41659 0.0
C1254 C 0.01019 0.5738 0.43844 0.0
C1255 C 0.00431 0.58641 0.40042 0.0
C1256 C 0.00969 0.64798 0.39486 0.0
H1257 H 0.99473 0.69283 0.29022 0.0
H1258 H 0.99673 0.66121 0.31592 0.0
H1259 H 0.00704 0.68208 0.38427 0.0
H1260 H 0.02528 0.59852 0.46031 0.0
H1261 H 0.02822 0.62746 0.43208 0.0
H1262 H 0.02362 0.60396 0.36137 0.0
C1263 C 0.00561 0.67651 0.32004 0.0
C1264 C 0.01085 0.6651 0.37914 0.0
C1265 C 0.00453 0.6946 0.30533 0.0
C1266 C 0.0192 0.59489 0.44371 0.0
C1267 C 0.02081 0.61153 0.42752 0.0
C1268 C 0.01973 0.6209 0.36654 0.0
C1269 C 0.01704 0.67859 0.34038 0.0
C1270 C 0.01634 0.66031 0.35695 0.0
C1271 C 0.01319 0.60759 0.40573 0.0
C1272 C 0.01423 0.62568 0.3888 0.0
H1273 H 0.03597 0.73206 0.33492 0.0
H1274 H 0.03742 0.70061 0.36078 0.0
H1275 H 0.02504 0.63398 0.33373 0.0
H1276 H 0.99582 0.55357 0.41206 0.0
H1277 H 0.99801 0.58289 0.38389 0.0
C1278 C 0.2893 0.01221 0.33246 0.0
C1279 C 0.29138 0.00264 0.31122 0.0
C1280 C 0.30761 0.01256 0.34699 0.0
C1281 C 0.36223 0.98524 0.35823 0.0
H1282 H 0.37115 0.03704 0.39613 0.0
C1283 C 0.43892 0.99572 0.41703 0.0
C1284 C 0.43366 0.00233 0.43887 0.0
C1285 C 0.42238 0.99601 0.40049 0.0
C1286 C 0.36878 0.02244 0.38571 0.0
H1287 H 0.31436 0.98598 0.28854 0.0
H1288 H 0.34664 0.98715 0.31378 0.0
H1289 H 0.34105 0.03741 0.36852 0.0
H1290 H 0.40695 0.01453 0.46042 0.0
H1291 H 0.37818 0.01513 0.43149 0.0
H1292 H 0.39014 0.9704 0.37547 0.0
C1293 C 0.33068 0.99406 0.31929 0.0
C1294 C 0.35153 0.0226 0.36994 0.0
C1295 C 0.31228 0.9936 0.30475 0.0
C1296 C 0.41155 0.00927 0.4438 0.0
C1297 C 0.39511 0.00978 0.42722 0.0
C1298 C 0.37962 0.98517 0.37391 0.0
C1299 C 0.32852 0.00355 0.34057 0.0
C1300 C 0.34783 0.00388 0.35626 0.0
C1301 C 0.40037 0.00315 0.40543 0.0
C1302 C 0.38282 0.00364 0.38798 0.0
H1303 H 0.27354 0.01964 0.33783 0.0
H1304 H 0.30526 0.01971 0.36338 0.0
H1305 H 0.35966 0.97046 0.34812 0.0
H1306 H 0.45576 0.99017 0.41271 0.0
H1307 H 0.42686 0.99092 0.38378 0.0
C1308 C 0.03324 0.17902 0.29709 0.0
C1309 C 0.01712 0.19576 0.29322 0.0
C1310 C 0.03098 0.16429 0.31503 0.0
C1311 C 0.99047 0.14465 0.35896 0.0
H1312 H 0.04578 0.12322 0.38619 0.0
C1313 C 0.99599 0.09473 0.44291 0.0
C1314 C 0.00717 0.07405 0.4408 0.0
C1315 C 0.99637 0.11034 0.42544 0.0
C1316 C 0.0302 0.12909 0.37874 0.0
H1317 H 0.98588 0.21033 0.30507 0.0
H1318 H 0.98229 0.18527 0.337 0.0
H1319 H 0.04775 0.14896 0.35489 0.0
H1320 H 0.02794 0.05376 0.41898 0.0
H1321 H 0.02924 0.08128 0.38894 0.0
H1322 H 0.9731 0.12513 0.38368 0.0
C1323 C 0.99639 0.1829 0.3258 0.0
C1324 C 0.03126 0.14369 0.36059 0.0
C1325 C 0.99843 0.19736 0.30749 0.0
C1326 C 0.01906 0.06949 0.42108 0.0
C1327 C 0.01988 0.08525 0.40391 0.0
C1328 C 0.98944 0.13036 0.37747 0.0
C1329 C 0.01281 0.16629 0.33003 0.0
C1330 C 0.01143 0.15142 0.35011 0.0
C1331 C 0.00843 0.10575 0.40583 0.0
C1332 C 0.00931 0.12219 0.3873 0.0
H1333 H 0.04778 0.17741 0.28627 0.0
H1334 H 0.04365 0.15139 0.31713 0.0
H1335 H 0.97479 0.14992 0.35133 0.0
H1336 H 0.98658 0.09865 0.45786 0.0
H1337 H 0.98747 0.12608 0.42733 0.0
C1338 C 0.80503 0.02793 0.31369 0.0
C1339 C 0.80038 0.00857 0.30126 0.0
C1340 C 0.8231 0.02838 0.3286 0.0
C1341 C 0.87465 0.99786 0.34733 0.0
H1342 H 0.85994 0.0254 0.40391 0.0
C1343 C 0.94068 0.00792 0.41732 0.0
C1344 C 0.93369 0.00477 0.43949 0.0
C1345 C 0.92499 0.0085 0.39999 0.0
C1346 C 0.86428 0.01745 0.3883 0.0
H1347 H 0.81158 0.97491 0.2938 0.0
H1348 H 0.84318 0.97554 0.32 0.0
H1349 H 0.83272 0.02658 0.37368 0.0
H1350 H 0.90447 0.99965 0.46062 0.0
H1351 H 0.87709 1.00038 0.43029 0.0
H1352 H 0.90597 0.98812 0.36227 0.0
C1353 C 0.83306 0.99052 0.31806 0.0
C1354 C 0.84879 0.01844 0.37079 0.0
C1355 C 0.81503 0.99015 0.30296 0.0
C1356 C 0.9105 0.00222 0.44382 0.0
C1357 C 0.89477 0.00274 0.4264 0.0
C1358 C 0.89015 0.99683 0.36489 0.0
C1359 C 0.83681 0.00937 0.33166 0.0
C1360 C 0.85376 0.00872 0.35003 0.0
C1361 C 0.90183 0.00587 0.40424 0.0
C1362 C 0.88518 0.00663 0.38562 0.0
H1363 H 0.79395 0.04234 0.31267 0.0
H1364 H 0.82583 0.0434 0.33833 0.0
H1365 H 0.87912 0.99026 0.33159 0.0
H1366 H 0.95835 0.0101 0.41324 0.0
H1367 H 0.93105 0.01134 0.38324 0.0
C1368 C 0.0192 0.81197 0.30464 0.0
C1369 C 0.00122 0.79676 0.30327 0.0
C1370 C 0.01838 0.82989 0.31968 0.0
C1371 C 0.98997 0.84571 0.37251 0.0
H1372 H 0.01951 0.90273 0.36265 0.0
C1373 C 0.0056 0.90843 0.44438 0.0
C1374 C 0.00323 0.93141 0.43974 0.0
C1375 C 0.00505 0.89257 0.4272 0.0
C1376 C 0.01097 0.88699 0.36566 0.0
H1377 H 0.96797 0.78869 0.31568 0.0
H1378 H 0.96593 0.82049 0.34116 0.0
H1379 H 0.0177 0.87545 0.3326 0.0
H1380 H 0.9982 0.95555 0.41312 0.0
H1381 H 0.99685 0.92803 0.38348 0.0
H1382 H 0.98275 0.85741 0.40537 0.0
C1383 C 0.98097 0.81841 0.33114 0.0
C1384 C 0.01017 0.8712 0.34844 0.0
C1385 C 0.98192 0.8004 0.31629 0.0
C1386 C 0.00024 0.93805 0.41745 0.0
C1387 C 0.9996 0.92222 0.40033 0.0
C1388 C 0.99068 0.86152 0.38967 0.0
C1389 C 0.99949 0.83298 0.33362 0.0
C1390 C 0.99968 0.85029 0.35162 0.0
C1391 C 0.00202 0.89924 0.40491 0.0
C1392 C 0.00125 0.88237 0.38654 0.0
H1393 H 0.03446 0.80916 0.29512 0.0
H1394 H 0.03307 0.84054 0.32121 0.0
H1395 H 0.9821 0.82969 0.37582 0.0
H1396 H 0.00805 0.90264 0.46128 0.0
H1397 H 0.0073 0.87507 0.43139 0.0
C1398 C 0.20407 0.97689 0.31317 0.0
C1399 C 0.20868 0.99629 0.30077 0.0
C1400 C 0.18611 0.97644 0.32823 0.0
C1401 C 0.13495 0.0072 0.34755 0.0
H1402 H 0.15023 0.97963 0.40402 0.0
C1403 C 0.06957 0.99721 0.41791 0.0
C1404 C 0.07662 1.00037 0.44006 0.0
C1405 C 0.08518 0.99661 0.40054 0.0
C1406 C 0.14574 0.98759 0.38845 0.0
H1407 H 0.19755 0.03 0.29347 0.0
H1408 H 0.16613 0.02937 0.31985 0.0
H1409 H 0.17707 0.97828 0.37345 0.0
H1410 H 0.1059 0.00541 0.46113 0.0
H1411 H 0.13321 0.00462 0.43067 0.0
H1412 H 0.10389 0.01712 0.36283 0.0
C1413 C 0.17617 0.01435 0.31779 0.0
C1414 C 0.161 0.9865 0.37074 0.0
C1415 C 0.19408 0.01472 0.30257 0.0
C1416 C 0.09983 0.00286 0.44433 0.0
C1417 C 0.11551 0.00231 0.42685 0.0
C1418 C 0.11969 0.00833 0.36529 0.0
C1419 C 0.1725 0.99549 0.33143 0.0
C1420 C 0.1558 0.99622 0.35001 0.0
C1421 C 0.10835 0.99923 0.40471 0.0
C1422 C 0.12486 0.99849 0.38598 0.0
H1423 H 0.21518 0.9625 0.31213 0.0
H1424 H 0.18345 0.96142 0.33799 0.0
H1425 H 0.13031 0.01481 0.33184 0.0
H1426 H 0.05189 0.99503 0.41385 0.0
H1427 H 0.07904 0.99376 0.38382 0.0
C1428 C 0.99516 0.80676 0.71732 0.0
C1429 C 0.01593 0.80555 0.72858 0.0
C1430 C 0.9921 0.82212 0.6999 0.0
C1431 C 0.0086 0.8759 0.67877 0.0
H1432 H 0.00174 0.85314 0.61879 0.0
C1433 C 0.01799 0.93487 0.60364 0.0
C1434 C 0.00579 0.93064 0.58408 0.0
C1435 C 0.01813 0.91937 0.62106 0.0
C1436 C 0.00317 0.85994 0.63541 0.0
H1437 H 0.04951 0.81961 0.73086 0.0
H1438 H 0.04375 0.84721 0.70118 0.0
H1439 H 0.00255 0.82712 0.65015 0.0
H1440 H 0.98407 0.90684 0.56741 0.0
H1441 H 0.98332 0.88014 0.59822 0.0
H1442 H 0.00846 0.90866 0.66459 0.0
C1443 C 0.03003 0.83607 0.70559 0.0
C1444 C 0.00374 0.84493 0.65336 0.0
C1445 C 0.03329 0.82035 0.72255 0.0
C1446 C 0.99378 0.91046 0.58225 0.0
C1447 C 0.99347 0.89511 0.59994 0.0
C1448 C 0.0075 0.89094 0.66095 0.0
C1449 C 0.00955 0.83687 0.69389 0.0
C1450 C 0.00683 0.85278 0.67513 0.0
C1451 C 0.00557 0.89937 0.61972 0.0
C1452 C 0.00524 0.88322 0.63888 0.0
H1453 H 0.9816 0.79532 0.72142 0.0
H1454 H 0.97616 0.82247 0.69107 0.0
H1455 H 0.01085 0.88234 0.69546 0.0
H1456 H 0.02768 0.95016 0.60543 0.0
H1457 H 0.0283 0.92312 0.63553 0.0
C1458 C 0.20586 0.0258 0.70982 0.0
C1459 C 0.21085 0.00636 0.72203 0.0
C1460 C 0.18762 0.02624 0.6951 0.0
C1461 C 0.13619 0.99545 0.67666 0.0
H1462 H 0.15008 0.02359 0.62014 0.0
C1463 C 0.06945 0.00566 0.60725 0.0
C1464 C 0.07631 0.00286 0.585 0.0
C1465 C 0.08526 0.0061 0.62449 0.0
C1466 C 0.14597 0.01547 0.63572 0.0
H1467 H 0.20006 0.97254 0.72935 0.0
H1468 H 0.16817 0.97315 0.7035 0.0
H1469 H 0.17758 0.02475 0.65012 0.0
H1470 H 0.10541 0.99813 0.56363 0.0
H1471 H 0.13299 0.99861 0.59377 0.0
H1472 H 0.10483 0.98556 0.66194 0.0
C1473 C 0.17816 0.9882 0.70545 0.0
C1474 C 0.16162 0.01645 0.6531 0.0
C1475 C 0.19636 0.98784 0.72035 0.0
C1476 C 0.09947 1.00044 0.5805 0.0
C1477 C 0.11532 1.00082 0.59781 0.0
C1478 C 0.12053 0.99443 0.65923 0.0
C1479 C 0.17407 0.00714 0.69204 0.0
C1480 C 0.15694 0.00651 0.67384 0.0
C1481 C 0.10841 0.00368 0.62004 0.0
C1482 C 0.12521 0.00444 0.63853 0.0
H1483 H 0.2168 0.0403 0.71084 0.0
H1484 H 0.18464 0.04132 0.68552 0.0
H1485 H 0.13195 0.98768 0.69239 0.0
H1486 H 0.0518 0.00772 0.61148 0.0
H1487 H 0.0793 0.00872 0.64131 0.0
C1488 C 0.01976 0.19452 0.71886 0.0
C1489 C 0.00065 0.20839 0.72004 0.0
C1490 C 0.02011 0.17611 0.70439 0.0
C1491 C 0.98417 0.13852 0.67041 0.0
H1492 H 0.03615 0.13548 0.63131 0.0
C1493 C 0.99705 0.06699 0.60664 0.0
C1494 C 0.0041 0.07311 0.58511 0.0
C1495 C 0.9967 0.08268 0.62388 0.0
C1496 C 0.0215 0.13615 0.64205 0.0
H1497 H 0.96659 0.21334 0.70797 0.0
H1498 H 0.96692 0.18091 0.6832 0.0
H1499 H 0.03527 0.16307 0.66133 0.0
H1500 H 0.01638 0.10069 0.56499 0.0
H1501 H 0.01592 0.12809 0.59525 0.0
H1502 H 0.97028 0.11178 0.65099 0.0
C1503 C 0.98167 0.18421 0.69333 0.0
C1504 C 0.02111 0.15177 0.65943 0.0
C1505 C 0.98145 0.20275 0.70753 0.0
C1506 C 0.01081 0.09539 0.58132 0.0
C1507 C 0.01069 0.11106 0.5987 0.0
C1508 C 0.98467 0.12274 0.6532 0.0
C1509 C 0.00125 0.17107 0.69105 0.0
C1510 C 0.00236 0.15328 0.6737 0.0
C1511 C 0.00359 0.10488 0.62018 0.0
C1512 C 0.00325 0.12148 0.63869 0.0
H1513 H 0.03488 0.19872 0.72809 0.0
H1514 H 0.03537 0.16617 0.70316 0.0
H1515 H 0.96951 0.13921 0.68114 0.0
H1516 H 0.99165 0.05004 0.61022 0.0
H1517 H 0.99131 0.07733 0.64025 0.0
C1518 C 0.81932 0.9893 0.72605 0.0
C1519 C 0.8019 0.97388 0.72197 0.0
C1520 C 0.83576 0.99348 0.70976 0.0
C1521 C 0.84439 0.99183 0.64949 0.0
H1522 H 0.90829 0.98821 0.66273 0.0
C1523 C 0.91133 0.99073 0.57964 0.0
C1524 C 0.93258 1.00027 0.58376 0.0
C1525 C 0.89542 0.98874 0.59674 0.0
C1526 C 0.89054 0.98973 0.65874 0.0
H1527 H 0.78804 0.95067 0.69791 0.0
H1528 H 0.8164 0.95823 0.66944 0.0
H1529 H 0.88078 0.983 0.69247 0.0
H1530 H 0.95349 0.01597 0.60891 0.0
H1531 H 0.92556 0.01334 0.63843 0.0
H1532 H 0.85387 0.99902 0.61596 0.0
C1533 C 0.81743 0.96706 0.68514 0.0
C1534 C 0.87479 0.98664 0.67584 0.0
C1535 C 0.8013 0.96264 0.70149 0.0
C1536 C 0.93736 0.00828 0.60523 0.0
C1537 C 0.92134 0.00663 0.62224 0.0
C1538 C 0.86009 0.99527 0.63247 0.0
C1539 C 0.83476 0.98259 0.68903 0.0
C1540 C 0.85156 0.98735 0.67131 0.0
C1541 C 0.90021 0.9966 0.61834 0.0
C1542 C 0.88343 0.99397 0.63676 0.0
H1543 H 0.82018 0.9982 0.74172 0.0
H1544 H 0.84894 0.00556 0.71317 0.0
H1545 H 0.82656 0.99276 0.64559 0.0
H1546 H 0.90719 0.9842 0.56334 0.0
H1547 H 0.87956 0.98055 0.59308 0.0
C1548 C 0.28793 0.0101 0.19542 0.0
C1549 C 0.29152 0.02649 0.2118 0.0
C1550 C 0.30438 0.00611 0.17908 0.0
C1551 C 0.36516 0.0103 0.16939 0.0
H1552 H 0.35089 0.01221 0.10654 0.0
C1553 C 0.43544 0.01358 0.10302 0.0
C1554 C 0.43166 0.00353 0.08224 0.0
C1555 C 0.41803 0.01509 0.11869 0.0
C1556 C 0.3552 0.01117 0.124 0.0
H1557 H 0.31489 0.05153 0.22396 0.0
H1558 H 0.34368 0.04424 0.19585 0.0
H1559 H 0.32077 0.01648 0.13391 0.0
H1560 H 0.40676 0.98661 0.06187 0.0
H1561 H 0.37672 0.98841 0.08941 0.0
H1562 H 0.39938 0.00452 0.15981 0.0
C1563 C 0.32822 0.03456 0.19552 0.0
C1564 C 0.33788 0.01372 0.13967 0.0
C1565 C 0.31169 0.03882 0.2115 0.0
C1566 C 0.41018 0.99467 0.07764 0.0
C1567 C 0.39287 0.99584 0.09344 0.0
C1568 C 0.38241 0.00739 0.15379 0.0
C1569 C 0.32481 0.01813 0.17918 0.0
C1570 C 0.34275 0.01366 0.16251 0.0
C1571 C 0.39646 0.00623 0.11416 0.0
C1572 C 0.37778 0.00814 0.13082 0.0
H1573 H 0.27252 1.00036 0.19526 0.0
H1574 H 0.30136 0.99332 0.16666 0.0
H1575 H 0.36934 0.00991 0.18692 0.0
H1576 H 0.45171 0.0208 0.10701 0.0
H1577 H 0.42145 0.02364 0.13419 0.0
C1578 C 0.0288 0.30657 0.21268 0.0
C1579 C 0.00943 0.29483 0.21937 0.0
C1580 C 0.02797 0.32149 0.19482 0.0
C1581 C 0.99361 0.34063 0.14662 0.0
H1582 H 0.02593 0.3962 0.1567 0.0
C1583 C 0.00504 0.4077 0.07789 0.0
C1584 C 0.0042 0.43047 0.08398 0.0
C1585 C 0.00481 0.39082 0.09403 0.0
C1586 C 0.01661 0.38091 0.15366 0.0
H1587 H 0.97421 0.28875 0.21217 0.0
H1588 H 0.97257 0.31507 0.18082 0.0
H1589 H 0.02718 0.36679 0.18461 0.0
H1590 H 0.00217 0.45314 0.1121 0.0
H1591 H 0.00154 0.4237 0.14021 0.0
H1592 H 0.98264 0.35508 0.11582 0.0
C1593 C 0.98853 0.31253 0.18923 0.0
C1594 C 0.0176 0.36384 0.16956 0.0
C1595 C 0.98943 0.29741 0.20711 0.0
C1596 C 0.00296 0.43585 0.10672 0.0
C1597 C 0.0027 0.41892 0.12288 0.0
C1598 C 0.99261 0.35776 0.13068 0.0
C1599 C 0.00764 0.32529 0.18332 0.0
C1600 C 0.00627 0.34339 0.16621 0.0
C1601 C 0.00371 0.39617 0.11675 0.0
C1602 C 0.00417 0.37811 0.13395 0.0
H1603 H 0.04443 0.30485 0.22191 0.0
H1604 H 0.04317 0.33052 0.1904 0.0
H1605 H 0.98472 0.32512 0.14344 0.0
H1606 H 0.00606 0.40278 0.06059 0.0
H1607 H 0.00596 0.37355 0.08865 0.0
C1608 C 0.72197 0.99344 0.19574 0.0
C1609 C 0.71813 0.97739 0.21242 0.0
C1610 C 0.70538 0.99774 0.17961 0.0
C1611 C 0.64435 0.9953 0.17074 0.0
H1612 H 0.65786 0.99228 0.10779 0.0
C1613 C 0.57341 0.99344 0.10478 0.0
C1614 C 0.5775 0.00282 0.08375 0.0
C1615 C 0.59079 0.99181 0.1205 0.0
C1616 C 0.65377 0.99365 0.12528 0.0
H1617 H 0.69417 0.95327 0.22531 0.0
H1618 H 0.66515 0.96112 0.19754 0.0
H1619 H 0.68811 0.98734 0.13489 0.0
H1620 H 0.60283 0.01863 0.06301 0.0
H1621 H 0.63279 0.0167 0.09061 0.0
H1622 H 0.61022 0.00209 0.16142 0.0
C1623 C 0.68091 0.97029 0.19683 0.0
C1624 C 0.67117 0.99071 0.14079 0.0
C1625 C 0.69756 0.96572 0.21262 0.0
C1626 C 0.59918 0.01108 0.079 0.0
C1627 C 0.61645 0.00981 0.09482 0.0
C1628 C 0.62703 0.99862 0.15527 0.0
C1629 C 0.68458 0.98639 0.1802 0.0
C1630 C 0.66656 0.99117 0.16367 0.0
C1631 C 0.61263 0.99988 0.11573 0.0
C1632 C 0.63138 0.99752 0.13228 0.0
H1633 H 0.73769 0.00267 0.1952 0.0
H1634 H 0.70861 0.01026 0.16695 0.0
H1635 H 0.64038 0.996 0.18831 0.0
H1636 H 0.55695 0.9867 0.10888 0.0
H1637 H 0.58716 0.98367 0.13618 0.0
C1638 C 0.99881 0.70884 0.20571 0.0
C1639 C 0.01957 0.7202 0.20643 0.0
C1640 C 0.99529 0.69157 0.19026 0.0
C1641 C 0.0104 0.67099 0.13608 0.0
H1642 H 0.00394 0.61039 0.15839 0.0
C1643 C 0.01843 0.59553 0.07694 0.0
C1644 C 0.00653 0.57572 0.08149 0.0
C1645 C 0.01876 0.61311 0.09229 0.0
C1646 C 0.00524 0.62718 0.15172 0.0
H1647 H 0.05264 0.72288 0.19139 0.0
H1648 H 0.04606 0.6935 0.16368 0.0
H1649 H 0.00538 0.64173 0.18441 0.0
H1650 H 0.98541 0.55887 0.10563 0.0
H1651 H 0.98496 0.58992 0.132 0.0
H1652 H 0.00951 0.65698 0.10347 0.0
C1653 C 0.0327 0.6977 0.17525 0.0
C1654 C 0.00618 0.64512 0.16673 0.0
C1655 C 0.03644 0.71448 0.19105 0.0
C1656 C 0.99491 0.57388 0.10176 0.0
C1657 C 0.99478 0.59172 0.11694 0.0
C1658 C 0.00892 0.65316 0.12104 0.0
C1659 C 0.01225 0.68585 0.17494 0.0
C1660 C 0.00913 0.66713 0.15904 0.0
C1661 C 0.0067 0.61168 0.11245 0.0
C1662 C 0.00678 0.63087 0.12859 0.0
H1663 H 0.98563 0.7127 0.2176 0.0
H1664 H 0.97939 0.68262 0.19031 0.0
H1665 H 0.01255 0.68785 0.12977 0.0
H1666 H 0.02781 0.59735 0.06158 0.0
H1667 H 0.02875 0.62774 0.08831 0.0
C1668 C 0.31417 0.96201 0.80997 0.0
C1669 C 0.29376 0.97399 0.81005 0.0
C1670 C 0.33067 0.96612 0.82603 0.0
C1671 C 0.33998 0.98625 0.88237 0.0
H1672 H 0.40144 0.99616 0.8625 0.0
C1673 C 0.4115 0.00657 0.94469 0.0
C1674 C 0.43314 0.99791 0.94038 0.0
C1675 C 0.39438 0.00509 0.92874 0.0
C1676 C 0.38447 0.9931 0.86844 0.0
H1677 H 0.27432 0.99932 0.82733 0.0
H1678 H 0.30312 0.00613 0.856 0.0
H1679 H 0.37155 0.99055 0.83524 0.0
H1680 H 0.4537 0.98077 0.91593 0.0
H1681 H 0.42372 0.97742 0.88842 0.0
H1682 H 0.35285 0.98786 0.91554 0.0
C1683 C 0.30635 0.99371 0.84326 0.0
C1684 C 0.36731 0.99004 0.85276 0.0
C1685 C 0.28991 0.98985 0.82688 0.0
C1686 C 0.43729 0.98781 0.91969 0.0
C1687 C 0.42005 0.98601 0.90385 0.0
C1688 C 0.35721 0.98896 0.8981 0.0
C1689 C 0.32701 0.98207 0.84279 0.0
C1690 C 0.34492 0.98646 0.85955 0.0
C1691 C 0.3983 0.99459 0.90814 0.0
C1692 C 0.37976 0.99231 0.89137 0.0
H1693 H 0.31757 0.9497 0.79717 0.0
H1694 H 0.34631 0.95672 0.82541 0.0
H1695 H 0.32289 0.98331 0.88807 0.0
H1696 H 0.4078 0.01467 0.96038 0.0
H1697 H 0.37809 0.01235 0.93257 0.0
C1698 C 0.00636 0.29187 0.82177 0.0
C1699 C 0.02758 0.28936 0.81162 0.0
C1700 C 0.00313 0.30802 0.83844 0.0
C1701 C 0.03389 0.34238 0.87964 0.0
H1702 H 0.98236 0.38234 0.87619 0.0
C1703 C 0.01349 0.40622 0.94894 0.0
C1704 C 0.00787 0.42815 0.94227 0.0
C1705 C 0.01501 0.38888 0.93339 0.0
C1706 C 0.99687 0.37135 0.87733 0.0
H1707 H 0.06202 0.30141 0.81109 0.0
H1708 H 0.05655 0.32918 0.84036 0.0
H1709 H 0.98661 0.35222 0.84885 0.0
H1710 H 0.99908 0.44878 0.91384 0.0
H1711 H 0.00164 0.41837 0.88669 0.0
H1712 H 0.0443 0.36153 0.90793 0.0
C1713 C 0.04241 0.31876 0.83556 0.0
C1714 C 0.99917 0.35395 0.86182 0.0
C1715 C 0.04554 0.30289 0.81876 0.0
C1716 C 0.00353 0.43216 0.9196 0.0
C1717 C 0.00484 0.4147 0.90405 0.0
C1718 C 0.03147 0.35958 0.89525 0.0
C1719 C 0.02112 0.32172 0.84546 0.0
C1720 C 0.01783 0.33938 0.86268 0.0
C1721 C 0.01076 0.39288 0.91075 0.0
C1722 C 0.01301 0.37438 0.89422 0.0
H1723 H 0.99215 0.2818 0.81648 0.0
H1724 H 0.98657 0.3098 0.84586 0.0
H1725 H 0.04839 0.33138 0.88086 0.0
H1726 H 0.017 0.40241 0.96621 0.0
H1727 H 0.01938 0.37224 0.93916 0.0
C1728 C 0.71411 0.98633 0.82117 0.0
C1729 C 0.71582 0.0052 0.80734 0.0
C1730 C 0.69965 0.98657 0.83962 0.0
C1731 C 0.64772 0.01548 0.85797 0.0
H1732 H 0.65716 0.98266 0.91279 0.0
C1733 C 0.57468 0.99835 0.91935 0.0
C1734 C 0.57941 1.0002 0.94219 0.0
C1735 C 0.59214 0.9989 0.90366 0.0
C1736 C 0.6543 0.99206 0.89765 0.0
H1737 H 0.70527 0.03961 0.80279 0.0
H1738 H 0.68072 0.04038 0.83535 0.0
H1739 H 0.68762 0.9851 0.88556 0.0
H1740 H 0.60649 0.00402 0.9663 0.0
H1741 H 0.63665 0.00528 0.93903 0.0
H1742 H 0.6146 0.02278 0.87012 0.0
C1743 C 0.68992 0.02515 0.83169 0.0
C1744 C 0.67172 0.99328 0.88194 0.0
C1745 C 0.7042 0.02483 0.81322 0.0
C1746 C 0.60208 0.00246 0.9489 0.0
C1747 C 0.61949 0.00305 0.93322 0.0
C1748 C 0.63035 0.01429 0.87365 0.0
C1749 C 0.68671 0.00574 0.84459 0.0
C1750 C 0.66865 0.00502 0.86188 0.0
C1751 C 0.61478 0.00135 0.91039 0.0
C1752 C 0.63336 0.00251 0.89368 0.0
H1753 H 0.72265 0.9709 0.8168 0.0
H1754 H 0.69756 0.97129 0.8491 0.0
H1755 H 0.64453 0.02433 0.84256 0.0
H1756 H 0.55749 0.9965 0.91352 0.0
H1757 H 0.58789 0.99722 0.88623 0.0
C1758 C 0.98085 0.68896 0.80425 0.0
C1759 C 0.9958 0.70724 0.80319 0.0
C1760 C 0.98118 0.67434 0.82234 0.0
C1761 C 0.99742 0.66568 0.88018 0.0
H1762 H 0.00624 0.60398 0.86192 0.0
C1763 C 0.01342 0.59489 0.94436 0.0
C1764 C 0.00471 0.57345 0.93983 0.0
C1765 C 0.01263 0.61184 0.92828 0.0
C1766 C 0.00338 0.62101 0.86742 0.0
H1767 H 0.02154 0.72551 0.82119 0.0
H1768 H 0.02166 0.70006 0.85341 0.0
H1769 H 0.003 0.63323 0.83395 0.0
H1770 H 0.9881 0.55312 0.91491 0.0
H1771 H 0.98592 0.58278 0.88718 0.0
H1772 H 0.99702 0.65348 0.91364 0.0
C1773 C 0.00994 0.69702 0.83992 0.0
C1774 C 0.00168 0.63782 0.85133 0.0
C1775 C 0.00979 0.71163 0.82157 0.0
C1776 C 0.99518 0.56937 0.91884 0.0
C1777 C 0.99405 0.58643 0.90288 0.0
C1778 C 0.99875 0.64878 0.89635 0.0
C1779 C 0.99622 0.67777 0.84003 0.0
C1780 C 0.99857 0.6603 0.8575 0.0
C1781 C 0.0028 0.60794 0.90733 0.0
C1782 C 0.00167 0.62614 0.8902 0.0
H1783 H 0.96958 0.68535 0.79052 0.0
H1784 H 0.97012 0.6599 0.82219 0.0
H1785 H 0.99492 0.68288 0.88537 0.0
H1786 H 0.02109 0.59855 0.9603 0.0
H1787 H 0.01999 0.62793 0.93228 0.0
C1788 C 0.19626 0.29257 0.99893 0.0
C1789 C 0.21152 0.29123 0.01674 0.0
C1790 C 0.17811 0.30761 0.9997 0.0
C1791 C 0.16279 0.36089 0.02713 0.0
H1792 H 0.10472 0.35121 0.99911 0.0
C1793 C 0.10012 0.43356 0.01108 0.0
C1794 C 0.07707 0.42914 0.01446 0.0
C1795 C 0.11597 0.41613 0.0116 0.0
C1796 C 0.12078 0.35415 0.00718 0.0
H1797 H 0.21889 0.30312 0.04994 0.0
H1798 H 0.18685 0.32876 0.05168 0.0
H1799 H 0.1319 0.32058 1.00097 0.0
H1800 H 0.05275 0.40277 0.02138 0.0
H1801 H 0.08028 0.37273 0.02263 0.0
H1802 H 0.15157 0.3943 0.03372 0.0
C1803 C 0.1892 0.3188 0.03681 0.0
C1804 C 0.13647 0.33662 0.00805 0.0
C1805 C 0.20739 0.30394 0.03595 0.0
C1806 C 0.07031 0.40689 0.0185 0.0
C1807 C 0.08612 0.38954 0.0191 0.0
C1808 C 0.14711 0.37838 0.02631 0.0
C1809 C 0.17484 0.32148 0.01837 0.0
C1810 C 0.15768 0.33976 0.01804 0.0
C1811 C 0.10915 0.39389 0.0156 0.0
C1812 C 0.12591 0.37527 0.0163 0.0
H1813 H 0.19925 0.28316 0.98382 0.0
H1814 H 0.16747 0.30928 0.98515 0.0
H1815 H 0.1791 0.36409 0.0346 0.0
H1816 H 0.10595 0.45043 0.0078 0.0
H1817 H 0.13354 0.42006 0.00856 0.0
C1818 C 0.20694 0.70016 0.9876 0.0
C1819 C 0.21113 0.71287 0.00681 0.0
C1820 C 0.18885 0.6852 0.98685 0.0
C1821 C 0.13638 0.66721 0.0158 0.0
H1822 H 0.15173 0.6095 0.9903 0.0
C1823 C 0.07049 0.59691 0.00528 0.0
C1824 C 0.07724 0.57469 0.00951 0.0
C1825 C 0.08628 0.61424 0.00467 0.0
C1826 C 0.14721 0.62543 0.99766 0.0
H1827 H 0.19903 0.72086 0.03981 0.0
H1828 H 0.1674 0.69461 0.03863 0.0
H1829 H 0.17913 0.6398 0.98931 0.0
H1830 H 0.10609 0.5534 0.01645 0.0
H1831 H 0.13368 0.58377 0.01564 0.0
H1832 H 0.1047 0.65256 0.02476 0.0
C1833 C 0.17793 0.69633 0.02403 0.0
C1834 C 0.16281 0.64297 0.99678 0.0
C1835 C 0.19599 0.71145 0.0247 0.0
C1836 C 0.10028 0.57026 0.01304 0.0
C1837 C 0.11611 0.58768 0.01249 0.0
C1838 C 0.12079 0.64964 0.01671 0.0
C1839 C 0.17464 0.68245 0.00537 0.0
C1840 C 0.1576 0.66411 0.0058 0.0
C1841 C 0.10928 0.6099 0.00834 0.0
C1842 C 0.126 0.62852 0.00765 0.0
H1843 H 0.21833 0.70105 0.97353 0.0
H1844 H 0.18647 0.67523 0.972 0.0
H1845 H 0.13176 0.68327 0.02282 0.0
H1846 H 0.05295 0.60103 1.00226 0.0
H1847 H 0.08044 0.63104 1.00101 0.0
C1848 C 0.31189 0.20172 0.96973 0.0
C1849 C 0.29159 0.2017 0.98176 0.0
C1850 C 0.32846 0.18564 0.97392 0.0
C1851 C 0.33828 0.12927 0.99462 0.0
H1852 H 0.3994 0.15005 0.00495 0.0
C1853 C 0.41033 0.0676 0.01635 0.0
C1854 C 0.43196 0.07211 0.00786 0.0
C1855 C 0.39302 0.08342 0.01452 0.0
C1856 C 0.38253 0.14386 1.00177 0.0
H1857 H 0.27234 0.18448 0.00719 0.0
H1858 H 0.30127 0.15578 0.01414 0.0
H1859 H 0.36927 0.17713 0.99872 0.0
H1860 H 0.4523 0.09675 0.99058 0.0
H1861 H 0.42201 0.12401 0.98663 0.0
H1862 H 0.35151 0.09601 0.99674 0.0
C1863 C 0.30436 0.16848 1.00163 0.0
C1864 C 0.36525 0.15944 0.99835 0.0
C1865 C 0.28786 0.18488 0.99769 0.0
C1866 C 0.4359 0.09285 0.99753 0.0
C1867 C 0.41848 0.10855 0.99538 0.0
C1868 C 0.35565 0.11364 0.99768 0.0
C1869 C 0.32496 0.16894 0.98999 0.0
C1870 C 0.34298 0.1523 0.99462 0.0
C1871 C 0.39676 0.10407 0.00382 0.0
C1872 C 0.37807 0.12071 1.00119 0.0
H1873 H 0.31517 0.21453 0.95737 0.0
H1874 H 0.34406 0.18623 0.96454 0.0
H1875 H 0.32129 0.12333 0.99158 0.0
H1876 H 0.4068 0.05185 0.02461 0.0
H1877 H 0.37673 0.07947 0.02166 0.0
C1878 C 0.82287 0.28505 0.99841 0.0
C1879 C 0.80668 0.28844 0.98166 0.0
C1880 C 0.83876 0.30177 0.0032 0.0
C1881 C 0.84681 0.36231 1.00056 0.0
H1882 H 0.91101 0.34986 1.00048 0.0
C1883 C 0.91275 0.43343 1.00052 0.0
C1884 C 0.93365 0.42977 0.01093 0.0
C1885 C 0.8971 0.416 0.99853 0.0
C1886 C 0.89314 0.35363 1.00103 0.0
H1887 H 0.79439 0.31168 0.95678 0.0
H1888 H 0.82177 0.34097 0.96544 0.0
H1889 H 0.88425 0.3194 0.99457 0.0
H1890 H 0.95416 0.40523 0.02824 0.0
H1891 H 0.92661 0.37516 0.02562 0.0
H1892 H 0.8554 0.39635 0.00746 0.0
C1893 C 0.82227 0.32546 0.97478 0.0
C1894 C 0.87785 0.33613 0.99753 0.0
C1895 C 0.80673 0.30866 0.96974 0.0
C1896 C 0.9383 0.40851 0.01988 0.0
C1897 C 0.92252 0.3912 0.01823 0.0
C1898 C 0.86205 0.37974 0.00443 0.0
C1899 C 0.83837 0.32224 0.99161 0.0
C1900 C 0.85456 0.34038 0.99693 0.0
C1901 C 0.90181 0.39457 0.00724 0.0
C1902 C 0.88547 0.37574 0.00438 0.0
H1903 H 0.82319 0.26959 0.00783 0.0
H1904 H 0.85102 0.29892 0.01626 0.0
H1905 H 0.82889 0.36596 1.00044 0.0
H1906 H 0.90876 0.44958 0.99328 0.0
H1907 H 0.88157 0.41924 0.98961 0.0
C1908 C 0.71712 0.81297 0.02609 0.0
C1909 C 0.71836 0.79817 0.00802 0.0
C1910 C 0.70229 0.83123 0.02551 0.0
C1911 C 0.64884 0.84708 0.9982 0.0
H1912 H 0.65818 0.90373 0.0282 0.0
C1913 C 0.57515 0.90803 0.01615 0.0
C1914 C 0.57943 0.93101 0.01335 0.0
C1915 C 0.59285 0.89247 0.01533 0.0
C1916 C 0.65533 0.88806 0.01958 0.0
H1917 H 0.70666 0.79171 0.97455 0.0
H1918 H 0.68142 0.82402 0.97312 0.0
H1919 H 0.68926 0.8771 0.02538 0.0
H1920 H 0.60586 0.95554 0.00725 0.0
H1921 H 0.63633 0.92855 0.0055 0.0
H1922 H 0.61508 0.85816 0.99202 0.0
C1923 C 0.69129 0.82123 0.98803 0.0
C1924 C 0.67312 0.87271 0.01815 0.0
C1925 C 0.70594 0.80291 0.9887 0.0
C1926 C 0.60182 0.93802 0.0097 0.0
C1927 C 0.61943 0.92251 0.0088 0.0
C1928 C 0.6311 0.86244 0.99957 0.0
C1929 C 0.68854 0.83504 0.00678 0.0
C1930 C 0.67009 0.852 0.00745 0.0
C1931 C 0.61521 0.89955 0.0116 0.0
C1932 C 0.63408 0.88311 0.01033 0.0
H1933 H 0.72631 0.80946 0.04128 0.0
H1934 H 0.70056 0.84143 0.04029 0.0
H1935 H 0.64572 0.83113 0.99021 0.0
H1936 H 0.55816 0.90201 0.01905 0.0
H1937 H 0.58902 0.87492 0.01784 0.0
C1938 C 0.80552 0.69493 0.05337 0.0
C1939 C 0.80586 0.71528 0.04168 0.0
C1940 C 0.82131 0.67822 0.04873 0.0
C1941 C 0.87763 0.6678 0.02736 0.0
H1942 H 0.85548 0.60775 0.01608 0.0
C1943 C 0.93844 0.59586 0.00435 0.0
C1944 C 0.93375 0.57445 0.01289 0.0
C1945 C 0.92263 0.61315 0.00621 0.0
C1946 C 0.86204 0.62431 0.0195 0.0
H1947 H 0.82334 0.73447 0.01638 0.0
H1948 H 0.85151 0.70528 0.00865 0.0
H1949 H 0.82879 0.63802 0.02308 0.0
H1950 H 0.90877 0.55435 0.03004 0.0
H1951 H 0.88151 0.58462 0.03402 0.0
H1952 H 0.91087 0.65413 0.02474 0.0
C1953 C 0.8388 0.70226 0.02124 0.0
C1954 C 0.8467 0.64167 0.02337 0.0
C1955 C 0.8227 0.7189 0.02563 0.0
C1956 C 0.91279 0.57061 0.0231 0.0
C1957 C 0.89711 0.58801 0.02528 0.0
C1958 C 0.89302 0.65037 0.02385 0.0
C1959 C 0.83801 0.68165 0.03254 0.0
C1960 C 0.85435 0.66355 0.02746 0.0
C1961 C 0.90185 0.60957 0.01697 0.0
C1962 C 0.88544 0.62833 0.01998 0.0
H1963 H 0.79269 0.69174 0.0658 0.0
H1964 H 0.82048 0.66258 0.05785 0.0
H1965 H 0.88396 0.68449 0.03067 0.0
H1966 H 0.95435 0.59929 0.99616 0.0
H1967 H 0.92675 0.62932 0.99914 0.0
C1968 C 0.28794 0.81844 0.02599 0.0
C1969 C 0.29133 0.80175 0.04214 0.0
C1970 C 0.30474 0.83446 0.02189 0.0
C1971 C 0.3658 0.84262 0.02552 0.0
H1972 H 0.35263 0.90621 0.02549 0.0
C1973 C 0.43686 0.90885 0.02552 0.0
C1974 C 0.43302 0.92938 0.01475 0.0
C1975 C 0.41942 0.8932 0.02773 0.0
C1976 C 0.35661 0.88852 0.025 0.0
H1977 H 0.31463 0.78877 0.06673 0.0
H1978 H 0.34403 0.81645 0.05932 0.0
H1979 H 0.32213 0.87935 0.03103 0.0
H1980 H 0.40812 0.94925 0.99712 0.0
H1981 H 0.37806 0.92171 1.00016 0.0
H1982 H 0.40011 0.85151 0.01903 0.0
C1983 C 0.32847 0.8172 0.04988 0.0
C1984 C 0.33909 0.87316 0.02829 0.0
C1985 C 0.3116 0.80149 0.05421 0.0
C1986 C 0.41156 0.93368 0.00574 0.0
C1987 C 0.39424 0.9179 0.00763 0.0
C1988 C 0.38326 0.85793 0.02189 0.0
C1989 C 0.32529 0.83377 0.03359 0.0
C1990 C 0.34356 0.85008 0.02885 0.0
C1991 C 0.39781 0.89754 0.01891 0.0
C1992 C 0.37899 0.88113 0.02184 0.0
H1993 H 0.27245 0.81902 0.01645 0.0
H1994 H 0.30189 0.84705 0.00922 0.0
H1995 H 0.36966 0.82488 0.02559 0.0
H1996 H 0.45315 0.90513 0.03284 0.0
H1997 H 0.42281 0.87793 0.03687 0.0
C1998 C 0.71508 0.19141 0.99242 0.0
C1999 C 0.7168 0.2062 0.01045 0.0
C2000 C 0.70006 0.17332 0.99329 0.0
C2001 C 0.64708 0.15779 0.02172 0.0
H2002 H 0.65606 0.1005 0.9928 0.0
C2003 C 0.57356 0.09564 0.00743 0.0
C2004 C 0.57823 0.07279 0.01081 0.0
C2005 C 0.59106 0.11141 0.00733 0.0
C2006 C 0.65332 0.11636 1.0011 0.0
H2007 H 0.70562 0.21298 0.04402 0.0
H2008 H 0.68011 0.18096 0.04596 0.0
H2009 H 0.687 0.1274 0.99418 0.0
H2010 H 0.60515 0.04878 0.01698 0.0
H2011 H 0.63529 0.07616 0.01711 0.0
H2012 H 0.61359 0.14664 0.02904 0.0
C2013 C 0.68975 0.18358 0.03089 0.0
C2014 C 0.67102 0.13186 1.00171 0.0
C2015 C 0.70457 0.20172 0.02993 0.0
C2016 C 0.6008 0.06617 0.01414 0.0
C2017 C 0.61821 0.08189 0.01409 0.0
C2018 C 0.62943 0.14229 0.02116 0.0
C2019 C 0.6866 0.1697 0.01226 0.0
C2020 C 0.66814 0.15277 0.01207 0.0
C2021 C 0.61362 0.10471 0.01065 0.0
C2022 C 0.63231 0.12137 0.01085 0.0
H2023 H 0.7241 0.19478 0.97711 0.0
H2024 H 0.69801 0.16304 0.9786 0.0
H2025 H 0.64407 0.17388 0.02947 0.0
H2026 H 0.55642 0.10136 0.00473 0.0
H2027 H 0.58694 0.12884 0.00438 0.0
C2028 C 0.5344 0.68243 0.79881 0.0
C2029 C 0.5172 0.69758 0.79316 0.0
C2030 C 0.53116 0.66665 0.81571 0.0
C2031 C 0.50512 0.65813 0.86828 0.0
H2032 H 0.50987 0.59437 0.85718 0.0
C2033 C 0.49502 0.59301 0.93959 0.0
C2034 C 0.50698 0.57276 0.93792 0.0
C2035 C 0.49472 0.60821 0.92178 0.0
C2036 C 0.5089 0.6121 0.86079 0.0
H2037 H 0.48317 0.70838 0.80091 0.0
H2038 H 0.47778 0.68113 0.83117 0.0
H2039 H 0.51228 0.62063 0.82625 0.0
H2040 H 0.52872 0.55294 0.9167 0.0
H2041 H 0.52939 0.57975 0.88637 0.0
H2042 H 0.5031 0.65 0.90285 0.0
C2043 C 0.49357 0.68124 0.82209 0.0
C2044 C 0.51002 0.62711 0.84293 0.0
C2045 C 0.4966 0.69666 0.80472 0.0
C2046 C 0.51909 0.56829 0.91836 0.0
C2047 C 0.51926 0.58366 0.90082 0.0
C2048 C 0.50454 0.64316 0.88625 0.0
C2049 C 0.51086 0.66614 0.82774 0.0
C2050 C 0.50821 0.65024 0.84652 0.0
C2051 C 0.50681 0.60376 0.90204 0.0
C2052 C 0.5066 0.61986 0.88283 0.0
H2053 H 0.55049 0.68294 0.79026 0.0
H2054 H 0.54477 0.65525 0.81985 0.0
H2055 H 0.50391 0.67595 0.87146 0.0
H2056 H 0.48535 0.59681 0.9544 0.0
H2057 H 0.48463 0.62323 0.92341 0.0
C2058 C 0.30468 0.52646 0.81339 0.0
C2059 C 0.29988 0.50712 0.80099 0.0
C2060 C 0.32292 0.52688 0.82812 0.0
C2061 C 0.37462 0.49624 0.84629 0.0
H2062 H 0.36053 0.52376 0.90303 0.0
C2063 C 0.44126 0.50602 0.91585 0.0
C2064 C 0.43439 0.50298 0.93806 0.0
C2065 C 0.42547 0.50658 0.8986 0.0
C2066 C 0.3647 0.51581 0.88738 0.0
H2067 H 0.31097 0.47347 0.79336 0.0
H2068 H 0.34284 0.47403 0.81923 0.0
H2069 H 0.33303 0.52505 0.87306 0.0
H2070 H 0.40527 0.49796 0.95936 0.0
H2071 H 0.37773 0.49864 0.9292 0.0
H2072 H 0.40605 0.48638 0.86093 0.0
C2073 C 0.33272 0.48902 0.81742 0.0
C2074 C 0.34904 0.51687 0.87001 0.0
C2075 C 0.31453 0.4887 0.80251 0.0
C2076 C 0.41122 0.50045 0.94252 0.0
C2077 C 0.3954 0.50094 0.92519 0.0
C2078 C 0.39029 0.49513 0.86371 0.0
C2079 C 0.33664 0.50785 0.831 0.0
C2080 C 0.35379 0.50715 0.8492 0.0
C2081 C 0.40232 0.50404 0.90299 0.0
C2082 C 0.38553 0.50492 0.8845 0.0
H2083 H 0.29362 0.5409 0.8125 0.0
H2084 H 0.32577 0.54188 0.83783 0.0
H2085 H 0.37892 0.48865 0.8305 0.0
H2086 H 0.45891 0.50818 0.91167 0.0
H2087 H 0.43143 0.50938 0.88181 0.0
C2088 C 0.48926 0.30756 0.80707 0.0
C2089 C 0.50896 0.29488 0.80405 0.0
C2090 C 0.48902 0.32552 0.82209 0.0
C2091 C 0.51946 0.34478 0.87246 0.0
H2092 H 0.48395 0.39877 0.86484 0.0
C2093 C 0.50474 0.40712 0.94481 0.0
C2094 C 0.50551 0.43011 0.93968 0.0
C2095 C 0.50474 0.39102 0.92786 0.0
C2096 C 0.4941 0.38386 0.86719 0.0
H2097 H 0.54404 0.29144 0.81336 0.0
H2098 H 0.544 0.32325 0.83885 0.0
H2099 H 0.48575 0.37135 0.83481 0.0
H2100 H 0.50691 0.45399 0.9124 0.0
H2101 H 0.50722 0.42605 0.88314 0.0
H2102 H 0.5282 0.35742 0.9046 0.0
C2103 C 0.52854 0.31914 0.83015 0.0
C2104 C 0.49494 0.36801 0.85003 0.0
C2105 C 0.5287 0.30114 0.81531 0.0
C2106 C 0.50622 0.4365 0.91713 0.0
C2107 C 0.50624 0.42043 0.90024 0.0
C2108 C 0.51864 0.3606 0.88958 0.0
C2109 C 0.50851 0.3311 0.83435 0.0
C2110 C 0.50771 0.34829 0.85239 0.0
C2111 C 0.50552 0.39746 0.90533 0.0
C2112 C 0.50598 0.38038 0.88719 0.0
H2113 H 0.47373 0.30272 0.79887 0.0
H2114 H 0.47324 0.33422 0.82498 0.0
H2115 H 0.52914 0.32962 0.87511 0.0
H2116 H 0.50409 0.40152 0.96193 0.0
H2117 H 0.5039 0.37349 0.93242 0.0
C2118 C 0.69539 0.51529 0.80162 0.0
C2119 C 0.70983 0.49675 0.79967 0.0
C2120 C 0.67738 0.51488 0.81673 0.0
C2121 C 0.66182 0.4866 0.8693 0.0
H2122 H 0.60495 0.51771 0.86156 0.0
C2123 C 0.60064 0.5028 0.94292 0.0
C2124 C 0.57744 0.50043 0.9386 0.0
C2125 C 0.61635 0.50232 0.92546 0.0
C2126 C 0.62068 0.50879 0.86397 0.0
H2127 H 0.71597 0.46278 0.81065 0.0
H2128 H 0.68408 0.46164 0.83631 0.0
H2129 H 0.63143 0.5155 0.83061 0.0
H2130 H 0.55273 0.49537 0.91231 0.0
H2131 H 0.57992 0.49421 0.88232 0.0
H2132 H 0.65094 0.47952 0.9025 0.0
C2133 C 0.68692 0.47675 0.82674 0.0
C2134 C 0.63597 0.50771 0.84625 0.0
C2135 C 0.70497 0.47723 0.81179 0.0
C2136 C 0.5704 0.49745 0.91642 0.0
C2137 C 0.58604 0.49692 0.89907 0.0
C2138 C 0.64654 0.48765 0.887 0.0
C2139 C 0.67348 0.49589 0.83012 0.0
C2140 C 0.65673 0.49655 0.84865 0.0
C2141 C 0.60921 0.49941 0.90329 0.0
C2142 C 0.62574 0.49873 0.88458 0.0
H2143 H 0.69906 0.53066 0.79275 0.0
H2144 H 0.66746 0.52996 0.81892 0.0
H2145 H 0.67782 0.47824 0.87196 0.0
H2146 H 0.60671 0.5052 0.95974 0.0
H2147 H 0.63406 0.50452 0.92932 0.0
C2148 C 0.54523 0.31249 0.21337 0.0
C2149 C 0.52696 0.30434 0.22582 0.0
C2150 C 0.54194 0.32864 0.19685 0.0
C2151 C 0.4993 0.35132 0.15851 0.0
H2152 H 0.54174 0.40041 0.15265 0.0
C2153 C 0.50423 0.4092 0.08038 0.0
C2154 C 0.50715 0.43225 0.08438 0.0
C2155 C 0.50547 0.39369 0.09791 0.0
C2156 C 0.52965 0.38688 0.15409 0.0
H2157 H 0.4908 0.30668 0.23074 0.0
H2158 H 0.48498 0.33499 0.20166 0.0
H2159 H 0.5457 0.374 0.18333 0.0
H2160 H 0.51358 0.45689 0.11021 0.0
H2161 H 0.51576 0.43001 0.14041 0.0
H2162 H 0.48331 0.36429 0.12914 0.0
C2163 C 0.50189 0.32885 0.20476 0.0
C2164 C 0.53202 0.37164 0.1716 0.0
C2165 C 0.50524 0.3128 0.22153 0.0
C2166 C 0.51122 0.43933 0.10635 0.0
C2167 C 0.51263 0.42387 0.12375 0.0
C2168 C 0.49704 0.3665 0.14082 0.0
C2169 C 0.52023 0.3369 0.19218 0.0
C2170 C 0.51694 0.35362 0.17402 0.0
C2171 C 0.50989 0.40085 0.11978 0.0
C2172 C 0.51219 0.38448 0.13841 0.0
H2173 H 0.56212 0.30611 0.21621 0.0
H2174 H 0.55639 0.33424 0.18733 0.0
H2175 H 0.48752 0.33752 0.15978 0.0
H2176 H 0.50102 0.40309 0.06373 0.0
H2177 H 0.50344 0.37604 0.09426 0.0
C2178 C 0.70585 0.52707 0.20902 0.0
C2179 C 0.71064 0.50769 0.22142 0.0
C2180 C 0.68775 0.52748 0.19413 0.0
C2181 C 0.63629 0.49682 0.17552 0.0
H2182 H 0.65061 0.52472 0.11899 0.0
C2183 C 0.56991 0.50709 0.10579 0.0
C2184 C 0.57685 0.50416 0.08357 0.0
C2185 C 0.58565 0.50755 0.12308 0.0
C2186 C 0.64638 0.51667 0.13457 0.0
H2187 H 0.69965 0.47397 0.22884 0.0
H2188 H 0.66801 0.47453 0.2027 0.0
H2189 H 0.67796 0.52583 0.14909 0.0
H2190 H 0.60603 0.49929 0.06233 0.0
H2191 H 0.63349 0.49981 0.09258 0.0
H2192 H 0.60496 0.48705 0.16068 0.0
C2193 C 0.67804 0.48955 0.20464 0.0
C2194 C 0.66195 0.51762 0.15202 0.0
C2195 C 0.69611 0.48922 0.21971 0.0
C2196 C 0.60003 0.50169 0.07917 0.0
C2197 C 0.61581 0.50209 0.09654 0.0
C2198 C 0.62072 0.49583 0.15802 0.0
C2199 C 0.67414 0.50842 0.19108 0.0
C2200 C 0.65712 0.50777 0.17277 0.0
C2201 C 0.60882 0.50504 0.11874 0.0
C2202 C 0.62554 0.50576 0.13731 0.0
H2203 H 0.71683 0.54154 0.21006 0.0
H2204 H 0.68491 0.54252 0.18444 0.0
H2205 H 0.63194 0.48913 0.19125 0.0
H2206 H 0.55225 0.5092 0.10994 0.0
H2207 H 0.57963 0.51025 0.13987 0.0
C2208 C 0.51702 0.69363 0.21841 0.0
C2209 C 0.49879 0.70864 0.21909 0.0
C2210 C 0.51709 0.67584 0.20316 0.0
C2211 C 0.49134 0.66063 0.14894 0.0
H2212 H 0.51919 0.6029 0.15968 0.0
C2213 C 0.50751 0.59733 0.07763 0.0
C2214 C 0.50397 0.57451 0.08231 0.0
C2215 C 0.50711 0.61329 0.09473 0.0
C2216 C 0.51117 0.61887 0.15642 0.0
H2217 H 0.4658 0.71613 0.20553 0.0
H2218 H 0.46545 0.68472 0.17964 0.0
H2219 H 0.51677 0.63012 0.18981 0.0
H2220 H 0.49694 0.55078 0.10885 0.0
H2221 H 0.49588 0.57847 0.1383 0.0
H2222 H 0.48525 0.64927 0.11575 0.0
C2223 C 0.48003 0.68693 0.19027 0.0
C2224 C 0.51001 0.63459 0.17368 0.0
C2225 C 0.48006 0.70474 0.20532 0.0
C2226 C 0.49994 0.56813 0.10451 0.0
C2227 C 0.49947 0.58406 0.12153 0.0
C2228 C 0.49245 0.64492 0.13173 0.0
C2229 C 0.49888 0.67271 0.18838 0.0
C2230 C 0.49999 0.65567 0.17021 0.0
C2231 C 0.50309 0.60686 0.11693 0.0
C2232 C 0.50234 0.62379 0.13521 0.0
H2233 H 0.5318 0.6965 0.22862 0.0
H2234 H 0.53195 0.66533 0.20215 0.0
H2235 H 0.48388 0.67682 0.14545 0.0
H2236 H 0.51079 0.60288 0.06079 0.0
H2237 H 0.51026 0.63065 0.09056 0.0
C2238 C 0.32117 0.4902 0.22541 0.0
C2239 C 0.30393 0.4745 0.22162 0.0
C2240 C 0.33741 0.49443 0.20896 0.0
C2241 C 0.34559 0.49228 0.14863 0.0
H2242 H 0.40963 0.48981 0.16148 0.0
C2243 C 0.41214 0.49134 0.07841 0.0
C2244 C 0.43327 0.50123 0.08231 0.0
C2245 C 0.39633 0.48938 0.0956 0.0
C2246 C 0.39183 0.49101 0.15759 0.0
H2247 H 0.29019 0.45088 0.19791 0.0
H2248 H 0.31821 0.45853 0.16914 0.0
H2249 H 0.38242 0.48447 0.19145 0.0
H2250 H 0.45406 0.51759 0.10714 0.0
H2251 H 0.42629 0.515 0.1368 0.0
H2252 H 0.35473 0.49926 0.11497 0.0
C2253 C 0.31925 0.46752 0.18474 0.0
C2254 C 0.37626 0.48784 0.17482 0.0
C2255 C 0.30332 0.46305 0.20125 0.0
C2256 C 0.43802 0.50964 0.10363 0.0
C2257 C 0.4221 0.508 0.12073 0.0
C2258 C 0.36112 0.49579 0.13148 0.0
C2259 C 0.3364 0.48333 0.18834 0.0
C2260 C 0.35299 0.48814 0.17045 0.0
C2261 C 0.40111 0.49759 0.11707 0.0
C2262 C 0.3845 0.49491 0.13562 0.0
H2263 H 0.32204 0.49927 0.24098 0.0
H2264 H 0.35045 0.50673 0.21213 0.0
H2265 H 0.32772 0.49288 0.14485 0.0
H2266 H 0.40803 0.4845 0.06222 0.0
H2267 H 0.38058 0.4809 0.09213 0.0
C2268 C 0.81398 0.53877 0.71104 0.0
C2269 C 0.79359 0.5268 0.71131 0.0
C2270 C 0.83023 0.53459 0.69477 0.0
C2271 C 0.83898 0.51497 0.63838 0.0
H2272 H 0.90041 0.50389 0.65779 0.0
C2273 C 0.91061 0.49639 0.57535 0.0
C2274 C 0.93229 0.50464 0.58016 0.0
C2275 C 0.89336 0.49746 0.59123 0.0
C2276 C 0.88345 0.50729 0.65198 0.0
H2277 H 0.77391 0.5014 0.69442 0.0
H2278 H 0.80229 0.4945 0.66532 0.0
H2279 H 0.87069 0.50912 0.68527 0.0
H2280 H 0.95275 0.52077 0.60536 0.0
H2281 H 0.92263 0.52345 0.63268 0.0
H2282 H 0.85173 0.51418 0.60513 0.0
C2283 C 0.80568 0.50694 0.67798 0.0
C2284 C 0.86639 0.51011 0.66779 0.0
C2285 C 0.78951 0.51085 0.6946 0.0
C2286 C 0.93632 0.51402 0.6012 0.0
C2287 C 0.91899 0.51542 0.61695 0.0
C2288 C 0.85613 0.51253 0.62252 0.0
C2289 C 0.82633 0.51858 0.67812 0.0
C2290 C 0.84402 0.51416 0.66117 0.0
C2291 C 0.89723 0.50713 0.61225 0.0
C2292 C 0.87869 0.50884 0.62908 0.0
H2293 H 0.81756 0.55115 0.72373 0.0
H2294 H 0.84588 0.54397 0.69514 0.0
H2295 H 0.82189 0.51827 0.63284 0.0
H2296 H 0.90699 0.48886 0.55936 0.0
H2297 H 0.87705 0.49048 0.58704 0.0
C2298 C 0.51075 0.79246 0.70144 0.0
C2299 C 0.49737 0.79716 0.72018 0.0
C2300 C 0.5107 0.80704 0.68307 0.0
C2301 C 0.50289 0.86639 0.67148 0.0
H2302 H 0.49646 0.85025 0.60943 0.0
C2303 C 0.49504 0.93437 0.6037 0.0
C2304 C 0.50413 0.93015 0.58255 0.0
C2305 C 0.49415 0.91738 0.61974 0.0
C2306 C 0.49868 0.85507 0.62664 0.0
H2307 H 0.47194 0.81963 0.73346 0.0
H2308 H 0.47216 0.84504 0.70177 0.0
H2309 H 0.49487 0.82111 0.63799 0.0
H2310 H 0.51987 0.90483 0.56184 0.0
H2311 H 0.51914 0.87555 0.59 0.0
H2312 H 0.50741 0.90008 0.66049 0.0
C2313 C 0.48294 0.83038 0.70137 0.0
C2314 C 0.49765 0.83832 0.64298 0.0
C2315 C 0.48282 0.81579 0.71949 0.0
C2316 C 0.51255 0.90861 0.57792 0.0
C2317 C 0.51199 0.89173 0.59407 0.0
C2318 C 0.50428 0.88304 0.6552 0.0
C2319 C 0.49737 0.82658 0.68326 0.0
C2320 C 0.49943 0.84388 0.66559 0.0
C2321 C 0.50268 0.8958 0.61523 0.0
C2322 C 0.50191 0.87773 0.63252 0.0
H2323 H 0.52217 0.77829 0.7015 0.0
H2324 H 0.52194 0.8037 0.66926 0.0
H2325 H 0.50471 0.87111 0.68878 0.0
H2326 H 0.48818 0.95069 0.60774 0.0
H2327 H 0.48639 0.92117 0.6356 0.0
C2328 C 0.22135 0.49161 0.6956 0.0
C2329 C 0.21733 0.47573 0.71239 0.0
C2330 C 0.20495 0.49575 0.67924 0.0
C2331 C 0.14399 0.49311 0.66978 0.0
H2332 H 0.15822 0.48997 0.60698 0.0
C2333 C 0.07377 0.49126 0.60309 0.0
C2334 C 0.07805 0.50081 0.58216 0.0
C2335 C 0.09101 0.48949 0.61894 0.0
C2336 C 0.15394 0.49137 0.62442 0.0
H2337 H 0.19324 0.45172 0.72524 0.0
H2338 H 0.16455 0.45925 0.69707 0.0
H2339 H 0.18818 0.48516 0.63443 0.0
H2340 H 0.10361 0.51672 0.56176 0.0
H2341 H 0.13333 0.51448 0.58958 0.0
H2342 H 0.10996 0.4998 0.66007 0.0
C2343 C 0.1803 0.46844 0.69644 0.0
C2344 C 0.17116 0.4885 0.64013 0.0
C2345 C 0.19678 0.46404 0.71247 0.0
C2346 C 0.09981 0.50902 0.57764 0.0
C2347 C 0.11694 0.50759 0.5936 0.0
C2348 C 0.12684 0.49635 0.65411 0.0
C2349 C 0.18415 0.48438 0.67971 0.0
C2350 C 0.1663 0.48902 0.66296 0.0
C2351 C 0.1129 0.49757 0.61442 0.0
C2352 C 0.13146 0.49521 0.63117 0.0
H2353 H 0.23706 0.50086 0.69514 0.0
H2354 H 0.20831 0.50815 0.66651 0.0
H2355 H 0.13982 0.49387 0.6873 0.0
H2356 H 0.05725 0.48458 0.60702 0.0
H2357 H 0.08722 0.48128 0.63455 0.0
C2358 C 0.49633 0.20699 0.70608 0.0
C2359 C 0.51694 0.21862 0.70698 0.0
C2360 C 0.49312 0.18982 0.69048 0.0
C2361 C 0.50885 0.1699 0.63623 0.0
H2362 H 0.50258 0.10909 0.65801 0.0
C2363 C 0.51754 0.09496 0.57657 0.0
C2364 C 0.5056 0.07512 0.58088 0.0
C2365 C 0.51777 0.11241 0.59205 0.0
C2366 C 0.50383 0.12594 0.65149 0.0
H2367 H 0.55004 0.22187 0.69214 0.0
H2368 H 0.54401 0.19262 0.66418 0.0
H2369 H 0.50366 0.14022 0.68429 0.0
H2370 H 0.48431 0.05806 0.60472 0.0
H2371 H 0.48368 0.08889 0.63134 0.0
H2372 H 0.50826 0.15616 0.60349 0.0
C2373 C 0.53054 0.19655 0.67571 0.0
C2374 C 0.50456 0.14376 0.66664 0.0
C2375 C 0.53396 0.21326 0.69165 0.0
C2376 C 0.49384 0.0731 0.60104 0.0
C2377 C 0.4936 0.09081 0.61636 0.0
C2378 C 0.50758 0.1522 0.62104 0.0
C2379 C 0.51024 0.18445 0.6752 0.0
C2380 C 0.50743 0.16584 0.65914 0.0
C2381 C 0.50556 0.1108 0.61211 0.0
C2382 C 0.5055 0.12984 0.6284 0.0
H2383 H 0.48304 0.21058 0.71792 0.0
H2384 H 0.47734 0.18067 0.69037 0.0
H2385 H 0.51094 0.18683 0.63006 0.0
H2386 H 0.52704 0.09689 0.56129 0.0
H2387 H 0.52778 0.12707 0.58828 0.0
C2388 C 0.78941 0.4921 0.32666 0.0
C2389 C 0.79299 0.47596 0.31003 0.0
C2390 C 0.80611 0.49622 0.34271 0.0
C2391 C 0.86721 0.49271 0.35143 0.0
H2392 H 0.85362 0.49108 0.41442 0.0
C2393 C 0.93807 0.49108 0.41758 0.0
C2394 C 0.93409 0.50111 0.43833 0.0
C2395 C 0.92068 0.48928 0.40189 0.0
C2396 C 0.85774 0.49205 0.39691 0.0
H2397 H 0.8166 0.45149 0.29714 0.0
H2398 H 0.8458 0.45898 0.32479 0.0
H2399 H 0.8233 0.48624 0.3874 0.0
H2400 H 0.90893 0.51791 0.45853 0.0
H2401 H 0.87899 0.51562 0.43097 0.0
H2402 H 0.90147 0.49898 0.36066 0.0
C2403 C 0.83017 0.46838 0.32552 0.0
C2404 C 0.8403 0.48917 0.38144 0.0
C2405 C 0.8134 0.46401 0.3098 0.0
C2406 C 0.91251 0.50982 0.4428 0.0
C2407 C 0.89524 0.50836 0.42699 0.0
C2408 C 0.88459 0.49595 0.36685 0.0
C2409 C 0.82678 0.48458 0.3421 0.0
C2410 C 0.84491 0.48916 0.35856 0.0
C2411 C 0.89896 0.49781 0.40638 0.0
C2412 C 0.8802 0.49537 0.38986 0.0
H2413 H 0.77382 0.50155 0.32722 0.0
H2414 H 0.80309 0.50882 0.35532 0.0
H2415 H 0.87121 0.49305 0.33386 0.0
H2416 H 0.95444 0.48402 0.41369 0.0
H2417 H 0.92422 0.48068 0.38643 0.0
C2418 C 0.54232 0.79865 0.3212 0.0
C2419 C 0.52408 0.78569 0.31376 0.0
C2420 C 0.53913 0.81563 0.33686 0.0
C2421 C 0.49936 0.83741 0.37941 0.0
H2422 H 0.53368 0.89207 0.37109 0.0
C2423 C 0.507 0.93343 0.41777 0.0
C2424 C 0.50605 0.92854 0.44064 0.0
C2425 C 0.50776 0.91615 0.402 0.0
C2426 C 0.52375 0.87706 0.37358 0.0
H2427 H 0.48811 0.78009 0.31716 0.0
H2428 H 0.48239 0.81002 0.34445 0.0
H2429 H 0.53742 0.8617 0.34443 0.0
H2430 H 0.50486 0.90136 0.46468 0.0
H2431 H 0.50646 0.87151 0.43733 0.0
H2432 H 0.48541 0.85301 0.40841 0.0
C2433 C 0.49929 0.80685 0.33836 0.0
C2434 C 0.52614 0.85945 0.35842 0.0
C2435 C 0.50254 0.78971 0.3227 0.0
C2436 C 0.50559 0.9059 0.44726 0.0
C2437 C 0.50633 0.88868 0.43151 0.0
C2438 C 0.49695 0.85506 0.3946 0.0
C2439 C 0.51752 0.82026 0.3454 0.0
C2440 C 0.51417 0.83927 0.36123 0.0
C2441 C 0.50755 0.89353 0.40867 0.0
C2442 C 0.50926 0.87507 0.39198 0.0
H2443 H 0.55911 0.79586 0.31462 0.0
H2444 H 0.55367 0.8252 0.34222 0.0
H2445 H 0.48994 0.82212 0.3822 0.0
H2446 H 0.50728 0.9506 0.41197 0.0
H2447 H 0.5084 0.92056 0.38454 0.0
C2448 C 0.20654 0.52625 0.31249 0.0
C2449 C 0.21804 0.50649 0.30684 0.0
C2450 C 0.19217 0.52682 0.33089 0.0
C2451 C 0.17339 0.49548 0.38125 0.0
H2452 H 0.11648 0.52507 0.36868 0.0
C2453 C 0.10321 0.50529 0.44749 0.0
C2454 C 0.08061 0.50292 0.44062 0.0
C2455 C 0.12075 0.50583 0.43196 0.0
C2456 C 0.13218 0.51656 0.37242 0.0
H2457 H 0.22458 0.47222 0.31661 0.0
H2458 H 0.19933 0.47305 0.34878 0.0
H2459 H 0.14668 0.5263 0.34138 0.0
H2460 H 0.05893 0.49896 0.4118 0.0
H2461 H 0.08956 0.49964 0.38474 0.0
H2462 H 0.15851 0.48515 0.41205 0.0
C2463 C 0.20158 0.48824 0.33919 0.0
C2464 C 0.14969 0.51757 0.35689 0.0
C2465 C 0.21614 0.48775 0.32082 0.0
C2466 C 0.07606 0.50096 0.41775 0.0
C2467 C 0.09365 0.50145 0.4022 0.0
C2468 C 0.15583 0.49445 0.39681 0.0
C2469 C 0.18875 0.50754 0.34393 0.0
C2470 C 0.17055 0.50706 0.36107 0.0
C2471 C 0.11623 0.50396 0.40911 0.0
C2472 C 0.13496 0.50494 0.39256 0.0
H2473 H 0.20774 0.54092 0.30194 0.0
H2474 H 0.18304 0.54214 0.33437 0.0
H2475 H 0.18922 0.48726 0.38507 0.0
H2476 H 0.10746 0.50695 0.46493 0.0
H2477 H 0.13785 0.50811 0.43789 0.0
C2478 C 0.50005 0.21232 0.32087 0.0
C2479 C 0.51291 0.20726 0.30188 0.0
C2480 C 0.49992 0.19763 0.33917 0.0
C2481 C 0.50642 0.13788 0.35038 0.0
H2482 H 0.51398 0.15366 0.41239 0.0
C2483 C 0.51456 0.06956 0.41784 0.0
C2484 C 0.50573 0.07378 0.4391 0.0
C2485 C 0.5154 0.08659 0.40182 0.0
C2486 C 0.51145 0.14895 0.3952 0.0
H2487 H 0.5372 0.18398 0.28798 0.0
H2488 H 0.53678 0.15845 0.31956 0.0
H2489 H 0.51565 0.1829 0.38392 0.0
H2490 H 0.49038 0.09916 0.46002 0.0
H2491 H 0.49105 0.12852 0.43196 0.0
H2492 H 0.50159 0.1042 0.36131 0.0
C2493 C 0.5265 0.17346 0.32024 0.0
C2494 C 0.51251 0.16575 0.3789 0.0
C2495 C 0.52677 0.18812 0.30219 0.0
C2496 C 0.4975 0.09536 0.44387 0.0
C2497 C 0.49803 0.1123 0.42776 0.0
C2498 C 0.50503 0.12118 0.36661 0.0
C2499 C 0.51256 0.17764 0.33863 0.0
C2500 C 0.51033 0.16032 0.3563 0.0
C2501 C 0.50708 0.10823 0.4065 0.0
C2502 C 0.50782 0.12636 0.38928 0.0
H2503 H 0.48917 0.22691 0.32108 0.0
H2504 H 0.48907 0.20129 0.3532 0.0
H2505 H 0.50428 0.13324 0.33309 0.0
H2506 H 0.52129 0.05321 0.41368 0.0
H2507 H 0.52293 0.08281 0.38587 0.0
C2508 C 0.70642 0.80331 0.53541 0.0
C2509 C 0.71077 0.79076 0.51614 0.0
C2510 C 0.68825 0.8182 0.53617 0.0
C2511 C 0.63593 0.8364 0.50697 0.0
H2512 H 0.65103 0.89391 0.53301 0.0
C2513 C 0.56992 0.90678 0.5173 0.0
C2514 C 0.57674 0.92902 0.51331 0.0
C2515 C 0.58569 0.88941 0.51795 0.0
C2516 C 0.64658 0.87804 0.5255 0.0
H2517 H 0.69889 0.78298 0.48301 0.0
H2518 H 0.66713 0.80913 0.48419 0.0
H2519 H 0.67843 0.86359 0.53401 0.0
H2520 H 0.60568 0.95029 0.50687 0.0
H2521 H 0.63323 0.91985 0.50774 0.0
H2522 H 0.60431 0.85115 0.49784 0.0
C2523 C 0.67758 0.80732 0.49885 0.0
C2524 C 0.66217 0.86049 0.52638 0.0
C2525 C 0.69572 0.79226 0.49817 0.0
C2526 C 0.59982 0.93341 0.51008 0.0
C2527 C 0.61563 0.91595 0.51066 0.0
C2528 C 0.62032 0.854 0.50605 0.0
C2529 C 0.67413 0.82106 0.51758 0.0
C2530 C 0.65706 0.83942 0.51717 0.0
C2531 C 0.60874 0.89371 0.51457 0.0
C2532 C 0.62545 0.87505 0.51531 0.0
H2533 H 0.71776 0.80237 0.54952 0.0
H2534 H 0.68575 0.82806 0.55108 0.0
H2535 H 0.63137 0.82041 0.49978 0.0
H2536 H 0.55234 0.90269 0.5201 0.0
H2537 H 0.5798 0.8726 0.52142 0.0
C2538 C 0.70588 0.19868 0.53102 0.0
C2539 C 0.71216 0.21067 0.5119 0.0
C2540 C 0.68746 0.18414 0.53056 0.0
C2541 C 0.65639 0.1484 0.49215 0.0
H2542 H 0.61431 0.14242 0.54118 0.0
C2543 C 0.59939 0.07037 0.50467 0.0
C2544 C 0.57676 0.07459 0.51036 0.0
C2545 C 0.61516 0.08785 0.50428 0.0
C2546 C 0.62585 0.14395 0.52729 0.0
H2547 H 0.70378 0.21749 0.47753 0.0
H2548 H 0.67138 0.19186 0.47664 0.0
H2549 H 0.6418 0.17287 0.54131 0.0
H2550 H 0.55312 0.10053 0.52044 0.0
H2551 H 0.58056 0.13074 0.51984 0.0
H2552 H 0.64054 0.11932 0.47824 0.0
C2553 C 0.68078 0.19375 0.49198 0.0
C2554 C 0.64165 0.16132 0.52743 0.0
C2555 C 0.69911 0.20856 0.49253 0.0
C2556 C 0.57036 0.09661 0.51586 0.0
C2557 C 0.58612 0.11397 0.51567 0.0
C2558 C 0.6407 0.13089 0.49211 0.0
C2559 C 0.67505 0.18107 0.51089 0.0
C2560 C 0.65717 0.16367 0.50992 0.0
C2561 C 0.60867 0.10983 0.50983 0.0
C2562 C 0.62532 0.12843 0.50973 0.0
H2563 H 0.71575 0.2 0.54613 0.0
H2564 H 0.68359 0.1745 0.54534 0.0
H2565 H 0.66831 0.14963 0.47855 0.0
H2566 H 0.60488 0.05364 0.5003 0.0
H2567 H 0.63249 0.08412 0.49991 0.0
C2568 C 0.78861 0.68552 0.49714 0.0
C2569 C 0.79207 0.70242 0.48124 0.0
C2570 C 0.80543 0.66948 0.50119 0.0
C2571 C 0.86654 0.66141 0.49808 0.0
H2572 H 0.85358 0.59782 0.49649 0.0
C2573 C 0.93787 0.59531 0.49754 0.0
C2574 C 0.93393 0.57447 0.50765 0.0
C2575 C 0.92042 0.611 0.49547 0.0
C2576 C 0.85751 0.6155 0.49744 0.0
H2577 H 0.81556 0.71578 0.45705 0.0
H2578 H 0.84501 0.6881 0.4644 0.0
H2579 H 0.82306 0.62474 0.49123 0.0
H2580 H 0.9088 0.5541 0.52434 0.0
H2581 H 0.87872 0.58168 0.52159 0.0
H2582 H 0.9008 0.65244 0.50477 0.0
C2583 C 0.82937 0.68717 0.47368 0.0
C2584 C 0.83997 0.63091 0.49431 0.0
C2585 C 0.81247 0.7029 0.46938 0.0
C2586 C 0.91233 0.56991 0.5162 0.0
C2587 C 0.895 0.58572 0.51447 0.0
C2588 C 0.88402 0.64605 0.50156 0.0
C2589 C 0.82609 0.67037 0.48969 0.0
C2590 C 0.84436 0.654 0.49432 0.0
C2591 C 0.89867 0.60639 0.50381 0.0
C2592 C 0.87983 0.62284 0.50103 0.0
H2593 H 0.77302 0.68477 0.50652 0.0
H2594 H 0.80251 0.6567 0.51365 0.0
H2595 H 0.87034 0.67916 0.49844 0.0
H2596 H 0.95427 0.59925 0.4906 0.0
H2597 H 0.92391 0.62652 0.48682 0.0
C2598 C 0.30493 0.80937 0.46853 0.0
C2599 C 0.30529 0.78907 0.48029 0.0
C2600 C 0.32076 0.82606 0.47306 0.0
C2601 C 0.37717 0.83641 0.49432 0.0
H2602 H 0.35507 0.89653 0.50551 0.0
C2603 C 0.43799 0.90822 0.5175 0.0
C2604 C 0.43333 0.92966 0.50899 0.0
C2605 C 0.42218 0.89096 0.51555 0.0
C2606 C 0.36161 0.87995 0.50211 0.0
H2607 H 0.32283 0.76991 0.50558 0.0
H2608 H 0.35108 0.79904 0.51313 0.0
H2609 H 0.32836 0.86632 0.49854 0.0
H2610 H 0.40842 0.94982 0.49176 0.0
H2611 H 0.38117 0.91961 0.48762 0.0
H2612 H 0.41042 0.85001 0.49695 0.0
C2613 C 0.33832 0.80206 0.50058 0.0
C2614 C 0.34626 0.86262 0.49826 0.0
C2615 C 0.32218 0.78545 0.49629 0.0
C2616 C 0.41242 0.93354 0.49869 0.0
C2617 C 0.39674 0.91618 0.49641 0.0
C2618 C 0.39257 0.85382 0.49782 0.0
C2619 C 0.33752 0.82264 0.48921 0.0
C2620 C 0.35389 0.84072 0.49421 0.0
C2621 C 0.40144 0.89459 0.50472 0.0
C2622 C 0.38502 0.87587 0.50166 0.0
H2623 H 0.29205 0.81257 0.45612 0.0
H2624 H 0.31993 0.84167 0.46389 0.0
H2625 H 0.38348 0.8197 0.49104 0.0
H2626 H 0.45386 0.90474 0.52576 0.0
H2627 H 0.42627 0.87477 0.52262 0.0
C2628 C 0.20473 0.30147 0.48769 0.0
C2629 C 0.21741 0.29731 0.50698 0.0
C2630 C 0.19001 0.31972 0.48668 0.0
C2631 C 0.17228 0.37211 0.51542 0.0
H2632 H 0.11397 0.35709 0.49015 0.0
C2633 C 0.10149 0.43767 0.50554 0.0
C2634 C 0.07909 0.43101 0.5097 0.0
C2635 C 0.11892 0.42197 0.50483 0.0
C2636 C 0.13007 0.36151 0.49745 0.0
H2637 H 0.22571 0.30955 0.53982 0.0
H2638 H 0.19984 0.34142 0.53824 0.0
H2639 H 0.14445 0.32983 0.48899 0.0
H2640 H 0.05759 0.40241 0.51643 0.0
H2641 H 0.08816 0.37495 0.51552 0.0
H2642 H 0.1576 0.40354 0.52457 0.0
C2643 C 0.20142 0.33079 0.52374 0.0
C2644 C 0.14771 0.346 0.49646 0.0
C2645 C 0.21632 0.3126 0.52465 0.0
C2646 C 0.07459 0.40814 0.5131 0.0
C2647 C 0.09212 0.39239 0.51248 0.0
C2648 C 0.1546 0.38762 0.51647 0.0
C2649 C 0.18745 0.33406 0.50505 0.0
C2650 C 0.16907 0.35109 0.5054 0.0
C2651 C 0.11452 0.39913 0.50835 0.0
C2652 C 0.13326 0.38251 0.5075 0.0
H2653 H 0.20533 0.28989 0.47383 0.0
H2654 H 0.17997 0.32206 0.4718 0.0
H2655 H 0.1885 0.37665 0.52239 0.0
H2656 H 0.10567 0.45508 0.50259 0.0
H2657 H 0.13585 0.42774 0.50117 0.0
C2658 C 0.30572 0.1954 0.5528 0.0
C2659 C 0.30592 0.21561 0.54085 0.0
C2660 C 0.32138 0.17858 0.5481 0.0
C2661 C 0.37735 0.1678 0.52608 0.0
H2662 H 0.35498 0.10766 0.51572 0.0
C2663 C 0.43785 0.09561 0.50312 0.0
C2664 C 0.43324 0.07427 0.51187 0.0
C2665 C 0.42206 0.11291 0.50497 0.0
C2666 C 0.36161 0.12425 0.51888 0.0
H2667 H 0.323 0.23442 0.51503 0.0
H2668 H 0.35098 0.20506 0.50721 0.0
H2669 H 0.32842 0.13803 0.52276 0.0
H2670 H 0.40842 0.05429 0.52938 0.0
H2671 H 0.3812 0.0846 0.53339 0.0
H2672 H 0.41053 0.15406 0.52319 0.0
C2673 C 0.33846 0.20223 0.52003 0.0
C2674 C 0.34634 0.14167 0.52277 0.0
C2675 C 0.32248 0.21897 0.52447 0.0
C2676 C 0.41237 0.07051 0.52228 0.0
C2677 C 0.39671 0.08792 0.52447 0.0
C2678 C 0.39267 0.15031 0.52256 0.0
C2679 C 0.33782 0.18176 0.5316 0.0
C2680 C 0.35407 0.16358 0.52652 0.0
C2681 C 0.40138 0.10943 0.51597 0.0
C2682 C 0.38502 0.12824 0.51901 0.0
H2683 H 0.2931 0.1924 0.56548 0.0
H2684 H 0.32068 0.16307 0.55743 0.0
H2685 H 0.38374 0.18451 0.52914 0.0
H2686 H 0.45369 0.09896 0.49477 0.0
H2687 H 0.42611 0.12902 0.49774 0.0
C2688 C 0.78411 0.32953 0.5278 0.0
C2689 C 0.7821 0.31162 0.5129 0.0
C2690 C 0.80251 0.34411 0.52657 0.0
C2691 C 0.85095 0.36119 0.49037 0.0
H2692 H 0.87351 0.38529 0.54596 0.0
C2693 C 0.9353 0.41097 0.49983 0.0
C2694 C 0.93266 0.43191 0.51019 0.0
C2695 C 0.91748 0.39553 0.49962 0.0
C2696 C 0.86736 0.37868 0.53032 0.0
H2697 H 0.79769 0.29481 0.4849 0.0
H2698 H 0.83027 0.31969 0.48319 0.0
H2699 H 0.84138 0.35993 0.54632 0.0
H2700 H 0.90956 0.45288 0.52891 0.0
H2701 H 0.87881 0.42572 0.52905 0.0
H2702 H 0.87763 0.37965 0.47461 0.0
C2703 C 0.81735 0.32302 0.49547 0.0
C2704 C 0.84879 0.36429 0.53045 0.0
C2705 C 0.79867 0.30867 0.49646 0.0
C2706 C 0.91207 0.43694 0.52067 0.0
C2707 C 0.8945 0.42137 0.52086 0.0
C2708 C 0.86982 0.37531 0.49032 0.0
C2709 C 0.81967 0.34081 0.51069 0.0
C2710 C 0.84005 0.35558 0.51045 0.0
C2711 C 0.89696 0.40059 0.51022 0.0
C2712 C 0.87799 0.38441 0.51027 0.0
H2713 H 0.7715 0.33217 0.54058 0.0
H2714 H 0.80326 0.35791 0.53821 0.0
H2715 H 0.84464 0.3551 0.4746 0.0
H2716 H 0.95095 0.4067 0.49153 0.0
H2717 H 0.91979 0.37956 0.49138 0.0
C2718 C 0.21705 0.69103 0.4975 0.0
C2719 C 0.21824 0.70627 0.5152 0.0
C2720 C 0.20241 0.67266 0.49861 0.0
C2721 C 0.14924 0.65717 0.52647 0.0
H2722 H 0.15891 0.59976 0.49799 0.0
C2723 C 0.0759 0.59574 0.50919 0.0
C2724 C 0.08016 0.57282 0.51249 0.0
C2725 C 0.09355 0.61131 0.51002 0.0
C2726 C 0.15598 0.61564 0.50619 0.0
H2727 H 0.2067 0.71343 0.54859 0.0
H2728 H 0.1818 0.68096 0.55093 0.0
H2729 H 0.18984 0.62662 0.50009 0.0
H2730 H 0.10647 0.54841 0.5196 0.0
H2731 H 0.13691 0.57546 0.52134 0.0
H2732 H 0.11553 0.64612 0.53289 0.0
C2733 C 0.19155 0.68347 0.5359 0.0
C2734 C 0.17368 0.63112 0.50721 0.0
C2735 C 0.20601 0.70188 0.53471 0.0
C2736 C 0.10247 0.56588 0.51676 0.0
C2737 C 0.12005 0.58141 0.51765 0.0
C2738 C 0.13159 0.6417 0.52549 0.0
C2739 C 0.18882 0.66919 0.51751 0.0
C2740 C 0.17051 0.6521 0.51733 0.0
C2741 C 0.11585 0.60431 0.51425 0.0
C2742 C 0.13469 0.62077 0.51528 0.0
H2743 H 0.2261 0.69425 0.48218 0.0
H2744 H 0.20069 0.66207 0.48409 0.0
H2745 H 0.14603 0.67331 0.53403 0.0
H2746 H 0.05897 0.60169 0.50576 0.0
H2747 H 0.08976 0.6288 0.50705 0.0
loop_
_geom_bond_atom_site_label_1
_geom_bond_atom_site_label_2
_geom_bond_distance
_geom_bond_site_symmetry_2
_ccdc_geom_bond_type
H0 C5 0.929 1_655 S
H1 C8 0.929 1_655 S
H2 C10 0.930 . S
H3 C4 1.016 . S
C4 H3 1.016 . S
C4 N11 1.286 1_455 S
C5 H0 0.929 1_455 S
C5 C6 1.398 . S
C5 C7 1.360 1_455 S
C6 C5 1.398 . S
C6 C10 1.390 . S
C7 C5 1.360 1_655 S
C7 C8 1.390 1_655 S
C7 N11 1.420 . S
C8 H1 0.929 1_455 S
C8 C7 1.390 1_455 S
C8 C9 1.399 . S
C9 C8 1.399 . S
C9 C10 1.381 . S
C10 H2 0.930 . S
C10 C6 1.390 . S
C10 C9 1.381 . S
N11 C4 1.286 1_655 S
N11 C7 1.420 . S
H12 C17 0.930 . S
H13 C20 0.930 . S
H14 C22 0.939 . S
H15 C16 1.010 1_565 S
C16 H15 1.010 1_545 S
C16 N23 1.295 . S
C17 H12 0.930 . S
C17 C18 1.397 . S
C17 C19 1.361 . S
C18 C17 1.397 . S
C18 C22 1.386 1_545 S
C19 C17 1.361 . S
C19 C20 1.393 . S
C19 N23 1.413 . S
C20 H13 0.930 . S
C20 C19 1.393 . S
C20 C21 1.399 . S
C21 C20 1.399 . S
C21 C22 1.378 1_545 S
C22 H14 0.939 . S
C22 C18 1.386 1_565 S
C22 C21 1.378 1_565 S
N23 C16 1.295 . S
N23 C19 1.413 . S
H24 C29 0.929 1_655 S
H25 C32 0.931 . S
H26 C34 0.930 . S
H27 C28 1.016 . S
C28 H27 1.016 . S
C28 N35 1.286 1_455 S
C29 H24 0.929 1_455 S
C29 C30 1.397 . S
C29 C31 1.361 1_455 S
C30 C29 1.397 . S
C30 C34 1.390 . S
C31 C29 1.361 1_655 S
C31 C32 1.391 1_655 S
C31 N35 1.417 . S
C32 H25 0.931 . S
C32 C31 1.391 1_455 S
C32 C33 1.399 . S
C33 C32 1.399 . S
C33 C34 1.381 . S
C34 H26 0.930 . S
C34 C30 1.390 . S
C34 C33 1.381 . S
N35 C28 1.286 1_655 S
N35 C31 1.417 . S
H36 C41 0.930 . S
H37 C44 0.930 . S
H38 C46 0.930 . S
H39 C40 1.016 . S
C40 H39 1.016 . S
C40 N47 1.286 1_545 S
C41 H36 0.930 . S
C41 C42 1.397 1_565 S
C41 C43 1.361 . S
C42 C41 1.397 1_545 S
C42 C46 1.390 . S
C43 C41 1.361 . S
C43 C44 1.393 . S
C43 N47 1.413 . S
C44 H37 0.930 . S
C44 C43 1.393 . S
C44 C45 1.395 1_565 S
C45 C44 1.395 1_545 S
C45 C46 1.384 . S
C46 H38 0.930 . S
C46 C42 1.390 . S
C46 C45 1.384 . S
N47 C40 1.286 1_565 S
N47 C43 1.413 . S
H48 C53 0.932 . S
H49 C56 0.927 1_655 S
H50 C58 0.930 . S
H51 C52 1.016 . S
C52 H51 1.016 . S
C52 N59 1.286 1_455 S
C53 H48 0.932 . S
C53 C54 1.394 1_655 S
C53 C55 1.362 . S
C54 C53 1.394 1_455 S
C54 C58 1.390 . S
C55 C53 1.362 . S
C55 C56 1.392 1_655 S
C55 N59 1.413 . S
C56 H49 0.927 1_455 S
C56 C55 1.392 1_455 S
C56 C57 1.402 . S
C57 C56 1.402 . S
C57 C58 1.381 . S
C58 H50 0.930 . S
C58 C54 1.390 . S
C58 C57 1.381 . S
N59 C52 1.286 1_655 S
N59 C55 1.413 . S
H60 C65 0.930 . S
H61 C68 0.930 . S
H62 C70 0.930 . S
H63 C64 1.025 . S
C64 H63 1.025 . S
C64 N71 1.273 1_565 S
C65 H60 0.930 . S
C65 C66 1.397 . S
C65 C67 1.361 . S
C66 C65 1.397 . S
C66 C70 1.390 1_545 S
C67 C65 1.361 . S
C67 C68 1.393 . S
C67 N71 1.413 . S
C68 H61 0.930 . S
C68 C67 1.393 . S
C68 C69 1.404 . S
C69 C68 1.404 . S
C69 C70 1.378 1_545 S
C70 H62 0.930 . S
C70 C66 1.390 1_565 S
C70 C69 1.378 1_565 S
N71 C64 1.273 1_545 S
N71 C67 1.413 . S
H72 C77 0.933 . S
H73 C80 0.928 1_655 S
H74 C82 0.930 . S
H75 C76 1.016 . S
C76 H75 1.016 . S
C76 N83 1.286 1_455 S
C77 H72 0.933 . S
C77 C78 1.393 1_655 S
C77 C79 1.362 . S
C78 C77 1.393 1_455 S
C78 C82 1.390 . S
C79 C77 1.362 . S
C79 C80 1.390 1_655 S
C79 N83 1.413 . S
C80 H73 0.928 1_455 S
C80 C79 1.390 1_455 S
C80 C81 1.406 . S
C81 C80 1.406 . S
C81 C82 1.381 . S
C82 H74 0.930 . S
C82 C78 1.390 . S
C82 C81 1.381 . S
N83 C76 1.286 1_655 S
N83 C79 1.413 . S
H84 C89 0.930 . S
H85 C92 0.930 . S
H86 C94 0.930 . S
H87 C88 1.025 . S
C88 H87 1.025 . S
C88 N95 1.273 1_565 S
C89 H84 0.930 . S
C89 C90 1.397 . S
C89 C91 1.361 . S
C90 C89 1.397 . S
C90 C94 1.390 1_545 S
C91 C89 1.361 . S
C91 C92 1.393 . S
C91 N95 1.413 . S
C92 H85 0.930 . S
C92 C91 1.393 . S
C92 C93 1.404 . S
C93 C92 1.404 . S
C93 C94 1.378 1_545 S
C94 H86 0.930 . S
C94 C90 1.390 1_565 S
C94 C93 1.378 1_565 S
N95 C88 1.273 1_545 S
N95 C91 1.413 . S
H96 C101 0.930 . S
H97 C104 0.930 . S
H98 C106 0.930 . S
H99 C100 1.016 . S
C100 H99 1.016 . S
C100 N107 1.286 . S
C101 H96 0.930 . S
C101 C102 1.397 . S
C101 C103 1.361 . S
C102 C101 1.397 . S
C102 C106 1.390 . S
C103 C101 1.361 . S
C103 C104 1.393 . S
C103 N107 1.413 . S
C104 H97 0.930 . S
C104 C103 1.393 . S
C104 C105 1.399 . S
C105 C104 1.399 . S
C105 C106 1.381 . S
C106 H98 0.930 . S
C106 C102 1.390 . S
C106 C105 1.381 . S
N107 C100 1.286 . S
N107 C103 1.413 . S
H108 C113 0.930 . S
H109 C116 0.930 . S
H110 C118 0.930 . S
H111 C112 1.016 . S
C112 H111 1.016 . S
C112 N119 1.288 1_554 S
C113 H108 0.930 . S
C113 C114 1.397 . S
C113 C115 1.361 . S
C114 C113 1.397 . S
C114 C118 1.390 . S
C115 C113 1.361 . S
C115 C116 1.393 . S
C115 N119 1.413 1_554 S
C116 H109 0.930 . S
C116 C115 1.393 . S
C116 C117 1.399 . S
C117 C116 1.399 . S
C117 C118 1.381 . S
C118 H110 0.930 . S
C118 C114 1.390 . S
C118 C117 1.381 . S
N119 C112 1.288 1_556 S
N119 C115 1.413 1_556 S
H120 C125 0.930 . S
H121 C128 0.930 . S
H122 C130 0.930 . S
H123 C124 1.016 . S
C124 H123 1.016 . S
C124 N131 1.286 . S
C125 H120 0.930 . S
C125 C126 1.397 . S
C125 C127 1.361 . S
C126 C125 1.397 . S
C126 C130 1.390 . S
C127 C125 1.361 . S
C127 C128 1.393 . S
C127 N131 1.413 . S
C128 H121 0.930 . S
C128 C127 1.393 . S
C128 C129 1.399 . S
C129 C128 1.399 . S
C129 C130 1.381 . S
C130 H122 0.930 . S
C130 C126 1.390 . S
C130 C129 1.381 . S
N131 C124 1.286 . S
N131 C127 1.413 . S
H132 C137 0.930 . S
H133 C140 0.930 . S
H134 C142 0.930 . S
H135 C136 1.016 . S
C136 H135 1.016 . S
C136 N143 1.286 . S
C137 H132 0.930 . S
C137 C138 1.397 . S
C137 C139 1.361 . S
C138 C137 1.397 . S
C138 C142 1.390 . S
C139 C137 1.361 . S
C139 C140 1.393 . S
C139 N143 1.413 . S
C140 H133 0.930 . S
C140 C139 1.393 . S
C140 C141 1.399 . S
C141 C140 1.399 . S
C141 C142 1.381 . S
C142 H134 0.930 . S
C142 C138 1.390 . S
C142 C141 1.381 . S
N143 C136 1.286 . S
N143 C139 1.413 . S
H144 C149 0.930 . S
H145 C152 0.930 . S
H146 C154 0.930 . S
H147 C148 1.016 . S
C148 H147 1.016 . S
C148 N155 1.286 . S
C149 H144 0.930 . S
C149 C150 1.397 . S
C149 C151 1.361 . S
C150 C149 1.397 . S
C150 C154 1.390 . S
C151 C149 1.361 . S
C151 C152 1.393 . S
C151 N155 1.413 . S
C152 H145 0.930 . S
C152 C151 1.393 . S
C152 C153 1.399 . S
C153 C152 1.399 . S
C153 C154 1.381 . S
C154 H146 0.930 . S
C154 C150 1.390 . S
C154 C153 1.381 . S
N155 C148 1.286 . S
N155 C151 1.413 . S
H156 C161 0.930 . S
H157 C164 0.930 . S
H158 C166 0.930 . S
H159 C160 1.016 . S
C160 H159 1.016 . S
C160 N167 1.286 . S
C161 H156 0.930 . S
C161 C162 1.397 . S
C161 C163 1.361 . S
C162 C161 1.397 . S
C162 C166 1.390 . S
C163 C161 1.361 . S
C163 C164 1.393 . S
C163 N167 1.413 . S
C164 H157 0.930 . S
C164 C163 1.393 . S
C164 C165 1.399 . S
C165 C164 1.399 . S
C165 C166 1.381 . S
C166 H158 0.930 . S
C166 C162 1.390 . S
C166 C165 1.381 . S
N167 C160 1.286 . S
N167 C163 1.413 . S
H168 C173 0.930 . S
H169 C176 0.930 . S
H170 C178 0.930 . S
H171 C172 1.016 . S
C172 H171 1.016 . S
C172 N179 1.286 . S
C173 H168 0.930 . S
C173 C174 1.397 . S
C173 C175 1.361 . S
C174 C173 1.397 . S
C174 C178 1.390 . S
C175 C173 1.361 . S
C175 C176 1.393 . S
C175 N179 1.413 . S
C176 H169 0.930 . S
C176 C175 1.393 . S
C176 C177 1.399 . S
C177 C176 1.399 . S
C177 C178 1.381 . S
C178 H170 0.930 . S
C178 C174 1.390 . S
C178 C177 1.381 . S
N179 C172 1.286 . S
N179 C175 1.413 . S
H180 C185 0.930 . S
H181 C188 0.930 . S
H182 C190 0.930 . S
H183 C184 1.016 . S
C184 H183 1.016 . S
C184 N191 1.286 . S
C185 H180 0.930 . S
C185 C186 1.397 . S
C185 C187 1.361 . S
C186 C185 1.397 . S
C186 C190 1.390 . S
C187 C185 1.361 . S
C187 C188 1.393 . S
C187 N191 1.413 . S
C188 H181 0.930 . S
C188 C187 1.393 . S
C188 C189 1.399 . S
C189 C188 1.399 . S
C189 C190 1.381 . S
C190 H182 0.930 . S
C190 C186 1.390 . S
C190 C189 1.381 . S
N191 C184 1.286 . S
N191 C187 1.413 . S
H192 C197 0.930 . S
H193 C200 0.930 . S
H194 C202 0.930 . S
H195 C196 1.016 . S
C196 H195 1.016 . S
C196 N203 1.286 . S
C197 H192 0.930 . S
C197 C198 1.397 . S
C197 C199 1.361 . S
C198 C197 1.397 . S
C198 C202 1.390 . S
C199 C197 1.361 . S
C199 C200 1.393 . S
C199 N203 1.413 . S
C200 H193 0.930 . S
C200 C199 1.393 . S
C200 C201 1.399 . S
C201 C200 1.399 . S
C201 C202 1.381 . S
C202 H194 0.930 . S
C202 C198 1.390 . S
C202 C201 1.381 . S
N203 C196 1.286 . S
N203 C199 1.413 . S
H204 C209 0.930 . S
H205 C212 0.930 . S
H206 C214 0.930 . S
H207 C208 1.016 . S
C208 H207 1.016 . S
C208 N215 1.286 . S
C209 H204 0.930 . S
C209 C210 1.397 . S
C209 C211 1.361 . S
C210 C209 1.397 . S
C210 C214 1.390 . S
C211 C209 1.361 . S
C211 C212 1.393 . S
C211 N215 1.413 . S
C212 H205 0.930 . S
C212 C211 1.393 . S
C212 C213 1.399 . S
C213 C212 1.399 . S
C213 C214 1.381 . S
C214 H206 0.930 . S
C214 C210 1.390 . S
C214 C213 1.381 . S
N215 C208 1.286 . S
N215 C211 1.413 . S
H216 C221 0.930 . S
H217 C224 0.930 . S
H218 C226 0.930 . S
H219 C220 1.016 . S
C220 H219 1.016 . S
C220 N227 1.286 . S
C221 H216 0.930 . S
C221 C222 1.397 . S
C221 C223 1.361 . S
C222 C221 1.397 . S
C222 C226 1.390 . S
C223 C221 1.361 . S
C223 C224 1.393 . S
C223 N227 1.413 . S
C224 H217 0.930 . S
C224 C223 1.393 . S
C224 C225 1.399 . S
C225 C224 1.399 . S
C225 C226 1.381 . S
C226 H218 0.930 . S
C226 C222 1.390 . S
C226 C225 1.381 . S
N227 C220 1.286 . S
N227 C223 1.413 . S
H228 C233 0.930 . S
H229 C236 0.930 . S
H230 C238 0.930 . S
H231 C232 1.016 . S
C232 H231 1.016 . S
C232 N239 1.286 . S
C233 H228 0.930 . S
C233 C234 1.397 . S
C233 C235 1.361 . S
C234 C233 1.397 . S
C234 C238 1.390 . S
C235 C233 1.361 . S
C235 C236 1.393 . S
C235 N239 1.413 . S
C236 H229 0.930 . S
C236 C235 1.393 . S
C236 C237 1.399 . S
C237 C236 1.399 . S
C237 C238 1.381 . S
C238 H230 0.930 . S
C238 C234 1.390 . S
C238 C237 1.381 . S
N239 C232 1.286 . S
N239 C235 1.413 . S
H240 C245 0.930 . S
H241 C248 0.930 . S
H242 C250 0.930 . S
H243 C244 1.016 . S
C244 H243 1.016 . S
C244 N251 1.286 . S
C245 H240 0.930 . S
C245 C246 1.397 . S
C245 C247 1.361 . S
C246 C245 1.397 . S
C246 C250 1.390 . S
C247 C245 1.361 . S
C247 C248 1.393 . S
C247 N251 1.413 . S
C248 H241 0.930 . S
C248 C247 1.393 . S
C248 C249 1.399 . S
C249 C248 1.399 . S
C249 C250 1.381 . S
C250 H242 0.930 . S
C250 C246 1.390 . S
C250 C249 1.381 . S
N251 C244 1.286 . S
N251 C247 1.413 . S
H252 C257 0.930 . S
H253 C260 0.930 . S
H254 C262 0.930 . S
H255 C256 1.016 . S
C256 H255 1.016 . S
C256 N263 1.286 . S
C257 H252 0.930 . S
C257 C258 1.397 . S
C257 C259 1.361 . S
C258 C257 1.397 . S
C258 C262 1.390 . S
C259 C257 1.361 . S
C259 C260 1.393 . S
C259 N263 1.413 . S
C260 H253 0.930 . S
C260 C259 1.393 . S
C260 C261 1.399 . S
C261 C260 1.399 . S
C261 C262 1.381 . S
C262 H254 0.930 . S
C262 C258 1.390 . S
C262 C261 1.381 . S
N263 C256 1.286 . S
N263 C259 1.413 . S
H264 C269 0.930 . S
H265 C272 0.930 . S
H266 C274 0.930 . S
H267 C268 1.016 . S
C268 H267 1.016 . S
C268 N275 1.286 . S
C269 H264 0.930 . S
C269 C270 1.397 . S
C269 C271 1.361 . S
C270 C269 1.397 . S
C270 C274 1.390 . S
C271 C269 1.361 . S
C271 C272 1.393 . S
C271 N275 1.413 . S
C272 H265 0.930 . S
C272 C271 1.393 . S
C272 C273 1.399 . S
C273 C272 1.399 . S
C273 C274 1.381 . S
C274 H266 0.930 . S
C274 C270 1.390 . S
C274 C273 1.381 . S
N275 C268 1.286 . S
N275 C271 1.413 . S
H276 C281 0.930 . S
H277 C284 0.930 . S
H278 C286 0.930 . S
H279 C280 1.016 . S
C280 H279 1.016 . S
C280 N287 1.286 . S
C281 H276 0.930 . S
C281 C282 1.397 . S
C281 C283 1.361 . S
C282 C281 1.397 . S
C282 C286 1.390 . S
C283 C281 1.361 . S
C283 C284 1.393 . S
C283 N287 1.413 . S
C284 H277 0.930 . S
C284 C283 1.393 . S
C284 C285 1.399 . S
C285 C284 1.399 . S
C285 C286 1.381 . S
C286 H278 0.930 . S
C286 C282 1.390 . S
C286 C285 1.381 . S
N287 C280 1.286 . S
N287 C283 1.413 . S
C288 O314 1.283 . S
C288 O332 1.283 . S
C289 O315 1.283 . S
C289 O330 1.283 . S
C290 O316 1.283 . S
C290 O333 1.283 . S
C291 O317 1.283 . S
C291 O331 1.283 . S
C292 O318 1.283 . S
C292 O327 1.283 . S
C293 O319 1.283 . S
C293 O329 1.283 . S
C294 O320 1.283 . S
C294 O326 1.283 . S
C295 O321 1.283 . S
C295 O328 1.283 . S
C296 O322 1.283 . S
C296 O337 1.283 . S
C297 O323 1.283 . S
C297 O335 1.283 . S
C298 O324 1.283 . S
C298 O336 1.283 . S
C299 O325 1.283 . S
C299 O334 1.283 . S
Eu300 O301 2.370 1_455 S
Eu300 O302 2.370 . S
Eu300 O305 2.370 1_455 S
Eu300 O306 2.370 . S
Eu300 O314 2.363 . S
Eu300 O315 2.363 . S
Eu300 O328 2.363 . S
Eu300 O329 2.363 1_455 S
O301 Eu300 2.370 1_655 S
O301 Eu303 2.356 1_565 S
O301 Eu308 2.354 1_665 S
O302 Eu300 2.370 . S
O302 Eu304 2.356 1_565 S
O302 Eu307 2.358 1_565 S
Eu303 O301 2.356 1_545 S
Eu303 O305 2.356 1_545 S
Eu303 O309 2.385 . S
Eu303 O310 2.385 . S
Eu303 O318 2.387 . S
Eu303 O319 2.338 1_545 S
Eu303 O334 2.363 . S
Eu303 O335 2.363 . S
Eu304 O302 2.356 1_545 S
Eu304 O306 2.356 1_545 S
Eu304 O311 2.385 . S
Eu304 O312 2.385 . S
Eu304 O320 2.387 . S
Eu304 O321 2.338 1_545 S
Eu304 O336 2.363 . S
Eu304 O337 2.363 . S
O305 Eu300 2.370 1_655 S
O305 Eu303 2.356 1_565 S
O305 Eu307 2.358 1_665 S
O306 Eu300 2.370 . S
O306 Eu304 2.356 1_565 S
O306 Eu308 2.354 1_565 S
Eu307 O302 2.358 1_545 S
Eu307 O305 2.358 1_445 S
Eu307 O309 2.383 1_455 S
Eu307 O312 2.383 . S
Eu307 O324 2.363 . S
Eu307 O325 2.363 1_455 S
Eu307 O332 2.342 1_545 S
Eu307 O333 2.384 . S
Eu308 O301 2.354 1_445 S
Eu308 O306 2.354 1_545 S
Eu308 O310 2.387 1_455 S
Eu308 O311 2.387 . S
Eu308 O322 2.363 . S
Eu308 O323 2.363 1_455 S
Eu308 O330 2.335 1_545 S
Eu308 O331 2.391 . S
O309 Eu303 2.385 . S
O309 Eu307 2.383 1_655 S
O309 Eu313 2.370 1_655 S
O310 Eu303 2.385 . S
O310 Eu308 2.387 1_655 S
O310 Eu313 2.370 1_655 S
O311 Eu304 2.385 . S
O311 Eu308 2.387 . S
O311 Eu313 2.370 . S
O312 Eu304 2.385 . S
O312 Eu307 2.383 . S
O312 Eu313 2.370 . S
Eu313 O309 2.370 1_455 S
Eu313 O310 2.370 1_455 S
Eu313 O311 2.370 . S
Eu313 O312 2.370 . S
Eu313 O316 2.363 . S
Eu313 O317 2.363 . S
Eu313 O326 2.363 . S
Eu313 O327 2.363 1_455 S
O314 C288 1.283 . S
O314 Eu300 2.363 . S
O315 C289 1.283 . S
O315 Eu300 2.363 . S
O316 C290 1.283 . S
O316 Eu313 2.363 . S
O317 C291 1.283 . S
O317 Eu313 2.363 . S
O318 C292 1.283 . S
O318 Eu303 2.387 . S
O319 C293 1.283 . S
O319 Eu303 2.338 1_565 S
O320 C294 1.283 . S
O320 Eu304 2.387 . S
O321 C295 1.283 . S
O321 Eu304 2.338 1_565 S
O322 C296 1.283 . S
O322 Eu308 2.363 . S
O323 C297 1.283 . S
O323 Eu308 2.363 1_655 S
O324 C298 1.283 . S
O324 Eu307 2.363 . S
O325 C299 1.283 . S
O325 Eu307 2.363 1_655 S
O326 C294 1.283 . S
O326 Eu313 2.363 . S
O327 C292 1.283 . S
O327 Eu313 2.363 1_655 S
O328 C295 1.283 . S
O328 Eu300 2.363 . S
O329 C293 1.283 . S
O329 Eu300 2.363 1_655 S
O330 C289 1.283 . S
O330 Eu308 2.335 1_565 S
O331 C291 1.283 . S
O331 Eu308 2.391 . S
O332 C288 1.283 . S
O332 Eu307 2.342 1_565 S
O333 C290 1.283 . S
O333 Eu307 2.384 . S
O334 C299 1.283 . S
O334 Eu303 2.363 . S
O335 C297 1.283 . S
O335 Eu303 2.363 . S
O336 C298 1.283 . S
O336 Eu304 2.363 . S
O337 C296 1.283 . S
O337 Eu304 2.363 . S
C338 O364 1.283 . S
C338 O382 1.283 . S
C339 O365 1.283 . S
C339 O380 1.283 . S
C340 O366 1.283 . S
C340 O383 1.283 . S
C341 O367 1.283 . S
C341 O381 1.283 . S
C342 O368 1.283 . S
C342 O377 1.283 . S
C343 O369 1.283 . S
C343 O379 1.283 . S
C344 O370 1.283 . S
C344 O376 1.283 . S
C345 O371 1.283 . S
C345 O378 1.283 . S
C346 O372 1.283 . S
C346 O387 1.283 . S
C347 O373 1.283 . S
C347 O385 1.283 . S
C348 O374 1.283 . S
C348 O386 1.283 . S
C349 O375 1.283 . S
C349 O384 1.283 . S
Eu350 O351 2.390 . S
Eu350 O352 2.350 1_545 S
Eu350 O355 2.350 1_545 S
Eu350 O356 2.390 . S
Eu350 O364 2.329 1_545 S
Eu350 O365 2.397 . S
Eu350 O378 2.363 . S
Eu350 O379 2.363 . S
O351 Eu350 2.390 . S
O351 Eu353 2.385 . S
O351 Eu358 2.370 . S
O352 Eu350 2.350 1_565 S
O352 Eu354 2.356 1_565 S
O352 Eu357 2.370 . S
Eu353 O351 2.385 . S
Eu353 O355 2.356 1_545 S
Eu353 O359 2.356 1_544 S
Eu353 O360 2.385 1_554 S
Eu353 O368 2.363 1_554 S
Eu353 O369 2.363 . S
Eu353 O384 2.338 1_545 S
Eu353 O385 2.387 . S
Eu354 O352 2.356 1_545 S
Eu354 O356 2.385 . S
Eu354 O361 2.385 1_554 S
Eu354 O362 2.356 1_544 S
Eu354 O370 2.363 1_554 S
Eu354 O371 2.363 . S
Eu354 O386 2.338 1_545 S
Eu354 O387 2.387 . S
O355 Eu350 2.350 1_565 S
O355 Eu353 2.356 1_565 S
O355 Eu357 2.370 . S
O356 Eu350 2.390 . S
O356 Eu354 2.385 . S
O356 Eu358 2.370 . S
Eu357 O352 2.370 . S
Eu357 O355 2.370 . S
Eu357 O359 2.370 1_554 S
Eu357 O362 2.370 1_554 S
Eu357 O374 2.363 . S
Eu357 O375 2.363 . S
Eu357 O382 2.363 . S
Eu357 O383 2.363 1_554 S
Eu358 O351 2.370 . S
Eu358 O356 2.370 . S
Eu358 O360 2.370 1_554 S
Eu358 O361 2.370 1_554 S
Eu358 O372 2.363 . S
Eu358 O373 2.363 . S
Eu358 O380 2.363 . S
Eu358 O381 2.363 1_554 S
O359 Eu353 2.356 1_566 S
O359 Eu357 2.370 1_556 S
O359 Eu363 2.361 1_565 S
O360 Eu353 2.385 1_556 S
O360 Eu358 2.370 1_556 S
O360 Eu363 2.379 . S
O361 Eu354 2.385 1_556 S
O361 Eu358 2.370 1_556 S
O361 Eu363 2.379 . S
O362 Eu354 2.356 1_566 S
O362 Eu357 2.370 1_556 S
O362 Eu363 2.361 1_565 S
Eu363 O359 2.361 1_545 S
Eu363 O360 2.379 . S
Eu363 O361 2.379 . S
Eu363 O362 2.361 1_545 S
Eu363 O366 2.348 1_545 S
Eu363 O367 2.378 . S
Eu363 O376 2.363 . S
Eu363 O377 2.363 . S
O364 C338 1.283 . S
O364 Eu350 2.329 1_565 S
O365 C339 1.283 . S
O365 Eu350 2.397 . S
O366 C340 1.283 . S
O366 Eu363 2.348 1_565 S
O367 C341 1.283 . S
O367 Eu363 2.378 . S
O368 C342 1.283 . S
O368 Eu353 2.363 1_556 S
O369 C343 1.283 . S
O369 Eu353 2.363 . S
O370 C344 1.283 . S
O370 Eu354 2.363 1_556 S
O371 C345 1.283 . S
O371 Eu354 2.363 . S
O372 C346 1.283 . S
O372 Eu358 2.363 . S
O373 C347 1.283 . S
O373 Eu358 2.363 . S
O374 C348 1.283 . S
O374 Eu357 2.363 . S
O375 C349 1.283 . S
O375 Eu357 2.363 . S
O376 C344 1.283 . S
O376 Eu363 2.363 . S
O377 C342 1.283 . S
O377 Eu363 2.363 . S
O378 C345 1.283 . S
O378 Eu350 2.363 . S
O379 C343 1.283 . S
O379 Eu350 2.363 . S
O380 C339 1.283 . S
O380 Eu358 2.363 . S
O381 C341 1.283 . S
O381 Eu358 2.363 1_556 S
O382 C338 1.283 . S
O382 Eu357 2.363 . S
O383 C340 1.283 . S
O383 Eu357 2.363 1_556 S
O384 C349 1.283 . S
O384 Eu353 2.338 1_565 S
O385 C347 1.283 . S
O385 Eu353 2.387 . S
O386 C348 1.283 . S
O386 Eu354 2.338 1_565 S
O387 C346 1.283 . S
O387 Eu354 2.387 . S
C388 O414 1.283 . S
C388 O432 1.283 . S
C389 O415 1.283 . S
C389 O430 1.283 . S
C390 O416 1.283 . S
C390 O433 1.283 . S
C391 O417 1.283 . S
C391 O431 1.283 . S
C392 O418 1.283 . S
C392 O427 1.283 . S
C393 O419 1.283 . S
C393 O429 1.283 . S
C394 O420 1.283 . S
C394 O426 1.283 . S
C395 O421 1.283 . S
C395 O428 1.283 . S
C396 O422 1.283 . S
C396 O437 1.283 . S
C397 O423 1.283 . S
C397 O435 1.283 . S
C398 O424 1.283 . S
C398 O436 1.283 . S
C399 O425 1.283 . S
C399 O434 1.283 . S
Eu400 O401 2.370 1_454 S
Eu400 O402 2.370 . S
Eu400 O405 2.370 1_455 S
Eu400 O406 2.370 1_554 S
Eu400 O414 2.363 . S
Eu400 O415 2.363 1_554 S
Eu400 O428 2.363 . S
Eu400 O429 2.363 1_455 S
O401 Eu400 2.370 1_656 S
O401 Eu403 2.370 1_556 S
O401 Eu408 2.370 1_655 S
O402 Eu400 2.370 . S
O402 Eu404 2.370 . S
O402 Eu407 2.370 . S
Eu403 O401 2.370 1_554 S
Eu403 O405 2.370 . S
Eu403 O409 2.370 . S
Eu403 O410 2.370 1_554 S
Eu403 O418 2.363 . S
Eu403 O419 2.363 . S
Eu403 O434 2.363 . S
Eu403 O435 2.363 1_554 S
Eu404 O402 2.370 . S
Eu404 O406 2.370 1_554 S
Eu404 O411 2.370 1_554 S
Eu404 O412 2.370 . S
Eu404 O420 2.363 . S
Eu404 O421 2.363 . S
Eu404 O436 2.363 . S
Eu404 O437 2.363 1_554 S
O405 Eu400 2.370 1_655 S
O405 Eu403 2.370 . S
O405 Eu407 2.370 1_655 S
O406 Eu400 2.370 1_556 S
O406 Eu404 2.370 1_556 S
O406 Eu408 2.370 . S
Eu407 O402 2.370 . S
Eu407 O405 2.370 1_455 S
Eu407 O409 2.370 1_455 S
Eu407 O412 2.370 . S
Eu407 O424 2.363 . S
Eu407 O425 2.363 1_455 S
Eu407 O432 2.363 . S
Eu407 O433 2.363 . S
Eu408 O401 2.370 1_455 S
Eu408 O406 2.370 . S
Eu408 O410 2.370 1_455 S
Eu408 O411 2.370 . S
Eu408 O422 2.363 . S
Eu408 O423 2.363 1_455 S
Eu408 O430 2.363 . S
Eu408 O431 2.363 . S
O409 Eu403 2.370 . S
O409 Eu407 2.370 1_655 S
O409 Eu413 2.370 1_655 S
O410 Eu403 2.370 1_556 S
O410 Eu408 2.370 1_655 S
O410 Eu413 2.370 1_656 S
O411 Eu404 2.370 1_556 S
O411 Eu408 2.370 . S
O411 Eu413 2.370 1_556 S
O412 Eu404 2.370 . S
O412 Eu407 2.370 . S
O412 Eu413 2.370 . S
Eu413 O409 2.370 1_455 S
Eu413 O410 2.370 1_454 S
Eu413 O411 2.370 1_554 S
Eu413 O412 2.370 . S
Eu413 O416 2.363 . S
Eu413 O417 2.363 1_554 S
Eu413 O426 2.363 . S
Eu413 O427 2.363 1_455 S
O414 C388 1.283 . S
O414 Eu400 2.363 . S
O415 C389 1.283 . S
O415 Eu400 2.363 1_556 S
O416 C390 1.283 . S
O416 Eu413 2.363 . S
O417 C391 1.283 . S
O417 Eu413 2.363 1_556 S
O418 C392 1.283 . S
O418 Eu403 2.363 . S
O419 C393 1.283 . S
O419 Eu403 2.363 . S
O420 C394 1.283 . S
O420 Eu404 2.363 . S
O421 C395 1.283 . S
O421 Eu404 2.363 . S
O422 C396 1.283 . S
O422 Eu408 2.363 . S
O423 C397 1.283 . S
O423 Eu408 2.363 1_655 S
O424 C398 1.283 . S
O424 Eu407 2.363 . S
O425 C399 1.283 . S
O425 Eu407 2.363 1_655 S
O426 C394 1.283 . S
O426 Eu413 2.363 . S
O427 C392 1.283 . S
O427 Eu413 2.363 1_655 S
O428 C395 1.283 . S
O428 Eu400 2.363 . S
O429 C393 1.283 . S
O429 Eu400 2.363 1_655 S
O430 C389 1.283 . S
O430 Eu408 2.363 . S
O431 C391 1.283 . S
O431 Eu408 2.363 . S
O432 C388 1.283 . S
O432 Eu407 2.363 . S
O433 C390 1.283 . S
O433 Eu407 2.363 . S
O434 C399 1.283 . S
O434 Eu403 2.363 . S
O435 C397 1.283 . S
O435 Eu403 2.363 1_556 S
O436 C398 1.283 . S
O436 Eu404 2.363 . S
O437 C396 1.283 . S
O437 Eu404 2.363 1_556 S
C438 O464 1.283 . S
C438 O482 1.283 . S
C439 O465 1.283 . S
C439 O480 1.283 . S
C440 O466 1.283 . S
C440 O483 1.283 . S
C441 O467 1.283 . S
C441 O481 1.283 . S
C442 O468 1.283 . S
C442 O477 1.283 . S
C443 O469 1.283 . S
C443 O479 1.283 . S
C444 O470 1.283 . S
C444 O476 1.283 . S
C445 O471 1.283 . S
C445 O478 1.283 . S
C446 O472 1.283 . S
C446 O487 1.283 . S
C447 O473 1.283 . S
C447 O485 1.283 . S
C448 O474 1.283 . S
C448 O486 1.283 . S
C449 O475 1.283 . S
C449 O484 1.283 . S
Eu450 O451 2.370 . S
Eu450 O452 2.370 . S
Eu450 O455 2.370 . S
Eu450 O456 2.370 . S
Eu450 O464 2.363 . S
Eu450 O465 2.363 . S
Eu450 O478 2.363 . S
Eu450 O479 2.363 . S
O451 Eu450 2.370 . S
O451 Eu453 2.370 . S
O451 Eu458 2.370 . S
O452 Eu450 2.370 . S
O452 Eu454 2.370 . S
O452 Eu457 2.370 . S
Eu453 O451 2.370 . S
Eu453 O455 2.370 . S
Eu453 O459 2.370 1_554 S
Eu453 O460 2.370 1_554 S
Eu453 O468 2.363 1_554 S
Eu453 O469 2.363 . S
Eu453 O484 2.363 . S
Eu453 O485 2.363 . S
Eu454 O452 2.370 . S
Eu454 O456 2.370 . S
Eu454 O461 2.370 1_554 S
Eu454 O462 2.370 1_554 S
Eu454 O470 2.363 1_554 S
Eu454 O471 2.363 . S
Eu454 O486 2.363 . S
Eu454 O487 2.363 . S
O455 Eu450 2.370 . S
O455 Eu453 2.370 . S
O455 Eu457 2.370 . S
O456 Eu450 2.370 . S
O456 Eu454 2.370 . S
O456 Eu458 2.370 . S
Eu457 O452 2.370 . S
Eu457 O455 2.370 . S
Eu457 O459 2.370 1_554 S
Eu457 O462 2.370 1_554 S
Eu457 O474 2.363 . S
Eu457 O475 2.363 . S
Eu457 O482 2.363 . S
Eu457 O483 2.363 1_554 S
Eu458 O451 2.370 . S
Eu458 O456 2.370 . S
Eu458 O460 2.370 1_554 S
Eu458 O461 2.370 1_554 S
Eu458 O472 2.363 . S
Eu458 O473 2.363 . S
Eu458 O480 2.363 . S
Eu458 O481 2.363 1_554 S
O459 Eu453 2.370 1_556 S
O459 Eu457 2.370 1_556 S
O459 Eu463 2.370 . S
O460 Eu453 2.370 1_556 S
O460 Eu458 2.370 1_556 S
O460 Eu463 2.370 . S
O461 Eu454 2.370 1_556 S
O461 Eu458 2.370 1_556 S
O461 Eu463 2.370 . S
O462 Eu454 2.370 1_556 S
O462 Eu457 2.370 1_556 S
O462 Eu463 2.370 . S
Eu463 O459 2.370 . S
Eu463 O460 2.370 . S
Eu463 O461 2.370 . S
Eu463 O462 2.370 . S
Eu463 O466 2.363 . S
Eu463 O467 2.363 . S
Eu463 O476 2.363 . S
Eu463 O477 2.363 . S
O464 C438 1.283 . S
O464 Eu450 2.363 . S
O465 C439 1.283 . S
O465 Eu450 2.363 . S
O466 C440 1.283 . S
O466 Eu463 2.363 . S
O467 C441 1.283 . S
O467 Eu463 2.363 . S
O468 C442 1.283 . S
O468 Eu453 2.363 1_556 S
O469 C443 1.283 . S
O469 Eu453 2.363 . S
O470 C444 1.283 . S
O470 Eu454 2.363 1_556 S
O471 C445 1.283 . S
O471 Eu454 2.363 . S
O472 C446 1.283 . S
O472 Eu458 2.363 . S
O473 C447 1.283 . S
O473 Eu458 2.363 . S
O474 C448 1.283 . S
O474 Eu457 2.363 . S
O475 C449 1.283 . S
O475 Eu457 2.363 . S
O476 C444 1.283 . S
O476 Eu463 2.363 . S
O477 C442 1.283 . S
O477 Eu463 2.363 . S
O478 C445 1.283 . S
O478 Eu450 2.363 . S
O479 C443 1.283 . S
O479 Eu450 2.363 . S
O480 C439 1.283 . S
O480 Eu458 2.363 . S
O481 C441 1.283 . S
O481 Eu458 2.363 1_556 S
O482 C438 1.283 . S
O482 Eu457 2.363 . S
O483 C440 1.283 . S
O483 Eu457 2.363 1_556 S
O484 C449 1.283 . S
O484 Eu453 2.363 . S
O485 C447 1.283 . S
O485 Eu453 2.363 . S
O486 C448 1.283 . S
O486 Eu454 2.363 . S
O487 C446 1.283 . S
O487 Eu454 2.363 . S
C488 O514 1.283 . S
C488 O532 1.283 . S
C489 O515 1.283 . S
C489 O530 1.283 . S
C490 O516 1.283 . S
C490 O533 1.283 . S
C491 O517 1.283 . S
C491 O531 1.283 . S
C492 O518 1.283 . S
C492 O527 1.283 . S
C493 O519 1.283 . S
C493 O529 1.283 . S
C494 O520 1.283 . S
C494 O526 1.283 . S
C495 O521 1.283 . S
C495 O528 1.283 . S
C496 O522 1.283 . S
C496 O537 1.283 . S
C497 O523 1.283 . S
C497 O535 1.283 . S
C498 O524 1.283 . S
C498 O536 1.283 . S
C499 O525 1.283 . S
C499 O534 1.283 . S
Eu500 O501 2.370 1_455 S
Eu500 O502 2.370 . S
Eu500 O505 2.370 1_455 S
Eu500 O506 2.370 . S
Eu500 O514 2.363 . S
Eu500 O515 2.363 . S
Eu500 O528 2.363 . S
Eu500 O529 2.363 1_455 S
O501 Eu500 2.370 1_655 S
O501 Eu503 2.370 . S
O501 Eu508 2.370 1_655 S
O502 Eu500 2.370 . S
O502 Eu504 2.370 . S
O502 Eu507 2.370 . S
Eu503 O501 2.370 . S
Eu503 O505 2.370 . S
Eu503 O509 2.370 . S
Eu503 O510 2.370 . S
Eu503 O518 2.363 . S
Eu503 O519 2.363 . S
Eu503 O534 2.363 . S
Eu503 O535 2.363 . S
Eu504 O502 2.370 . S
Eu504 O506 2.370 . S
Eu504 O511 2.370 . S
Eu504 O512 2.370 . S
Eu504 O520 2.363 . S
Eu504 O521 2.363 . S
Eu504 O536 2.363 . S
Eu504 O537 2.363 . S
O505 Eu500 2.370 1_655 S
O505 Eu503 2.370 . S
O505 Eu507 2.370 1_655 S
O506 Eu500 2.370 . S
O506 Eu504 2.370 . S
O506 Eu508 2.370 . S
Eu507 O502 2.370 . S
Eu507 O505 2.370 1_455 S
Eu507 O509 2.370 1_455 S
Eu507 O512 2.370 . S
Eu507 O524 2.363 . S
Eu507 O525 2.363 1_455 S
Eu507 O532 2.363 . S
Eu507 O533 2.363 . S
Eu508 O501 2.370 1_455 S
Eu508 O506 2.370 . S
Eu508 O510 2.370 1_455 S
Eu508 O511 2.370 . S
Eu508 O522 2.363 . S
Eu508 O523 2.363 1_455 S
Eu508 O530 2.363 . S
Eu508 O531 2.363 . S
O509 Eu503 2.370 . S
O509 Eu507 2.370 1_655 S
O509 Eu513 2.370 1_655 S
O510 Eu503 2.370 . S
O510 Eu508 2.370 1_655 S
O510 Eu513 2.370 1_655 S
O511 Eu504 2.370 . S
O511 Eu508 2.370 . S
O511 Eu513 2.370 . S
O512 Eu504 2.370 . S
O512 Eu507 2.370 . S
O512 Eu513 2.370 . S
Eu513 O509 2.370 1_455 S
Eu513 O510 2.370 1_455 S
Eu513 O511 2.370 . S
Eu513 O512 2.370 . S
Eu513 O516 2.363 . S
Eu513 O517 2.363 . S
Eu513 O526 2.363 . S
Eu513 O527 2.363 1_455 S
O514 C488 1.283 . S
O514 Eu500 2.363 . S
O515 C489 1.283 . S
O515 Eu500 2.363 . S
O516 C490 1.283 . S
O516 Eu513 2.363 . S
O517 C491 1.283 . S
O517 Eu513 2.363 . S
O518 C492 1.283 . S
O518 Eu503 2.363 . S
O519 C493 1.283 . S
O519 Eu503 2.363 . S
O520 C494 1.283 . S
O520 Eu504 2.363 . S
O521 C495 1.283 . S
O521 Eu504 2.363 . S
O522 C496 1.283 . S
O522 Eu508 2.363 . S
O523 C497 1.283 . S
O523 Eu508 2.363 1_655 S
O524 C498 1.283 . S
O524 Eu507 2.363 . S
O525 C499 1.283 . S
O525 Eu507 2.363 1_655 S
O526 C494 1.283 . S
O526 Eu513 2.363 . S
O527 C492 1.283 . S
O527 Eu513 2.363 1_655 S
O528 C495 1.283 . S
O528 Eu500 2.363 . S
O529 C493 1.283 . S
O529 Eu500 2.363 1_655 S
O530 C489 1.283 . S
O530 Eu508 2.363 . S
O531 C491 1.283 . S
O531 Eu508 2.363 . S
O532 C488 1.283 . S
O532 Eu507 2.363 . S
O533 C490 1.283 . S
O533 Eu507 2.363 . S
O534 C499 1.283 . S
O534 Eu503 2.363 . S
O535 C497 1.283 . S
O535 Eu503 2.363 . S
O536 C498 1.283 . S
O536 Eu504 2.363 . S
O537 C496 1.283 . S
O537 Eu504 2.363 . S
C538 O564 1.283 . S
C538 O582 1.283 . S
C539 O565 1.283 . S
C539 O580 1.283 . S
C540 O566 1.283 . S
C540 O583 1.283 . S
C541 O567 1.283 . S
C541 O581 1.283 . S
C542 O568 1.283 . S
C542 O577 1.283 . S
C543 O569 1.283 . S
C543 O579 1.283 . S
C544 O570 1.283 . S
C544 O576 1.283 . S
C545 O571 1.283 . S
C545 O578 1.283 . S
C546 O572 1.283 . S
C546 O587 1.283 . S
C547 O573 1.283 . S
C547 O585 1.283 . S
C548 O574 1.283 . S
C548 O586 1.283 . S
C549 O575 1.283 . S
C549 O584 1.283 . S
Eu550 O551 2.370 . S
Eu550 O552 2.370 . S
Eu550 O555 2.370 . S
Eu550 O556 2.370 . S
Eu550 O564 2.363 . S
Eu550 O565 2.363 . S
Eu550 O578 2.363 . S
Eu550 O579 2.363 . S
O551 Eu550 2.370 . S
O551 Eu553 2.355 1_565 S
O551 Eu558 2.353 1_565 S
O552 Eu550 2.370 . S
O552 Eu554 2.355 1_565 S
O552 Eu557 2.357 1_565 S
Eu553 O551 2.355 1_545 S
Eu553 O555 2.355 1_545 S
Eu553 O559 2.386 . S
Eu553 O560 2.386 . S
Eu553 O568 2.389 . S
Eu553 O569 2.337 1_545 S
Eu553 O584 2.363 . S
Eu553 O585 2.363 . S
Eu554 O552 2.355 1_545 S
Eu554 O556 2.355 1_545 S
Eu554 O561 2.386 . S
Eu554 O562 2.386 . S
Eu554 O570 2.389 . S
Eu554 O571 2.337 1_545 S
Eu554 O586 2.363 . S
Eu554 O587 2.363 . S
O555 Eu550 2.370 . S
O555 Eu553 2.355 1_565 S
O555 Eu557 2.357 1_565 S
O556 Eu550 2.370 . S
O556 Eu554 2.355 1_565 S
O556 Eu558 2.353 1_565 S
Eu557 O552 2.357 1_545 S
Eu557 O555 2.357 1_545 S
Eu557 O559 2.384 . S
Eu557 O562 2.384 . S
Eu557 O574 2.363 . S
Eu557 O575 2.363 . S
Eu557 O582 2.340 1_545 S
Eu557 O583 2.386 . S
Eu558 O551 2.353 1_545 S
Eu558 O556 2.353 1_545 S
Eu558 O560 2.388 . S
Eu558 O561 2.388 . S
Eu558 O572 2.363 . S
Eu558 O573 2.363 . S
Eu558 O580 2.334 1_545 S
Eu558 O581 2.392 . S
O559 Eu553 2.386 . S
O559 Eu557 2.384 . S
O559 Eu563 2.370 . S
O560 Eu553 2.386 . S
O560 Eu558 2.388 . S
O560 Eu563 2.370 . S
O561 Eu554 2.386 . S
O561 Eu558 2.388 . S
O561 Eu563 2.370 . S
O562 Eu554 2.386 . S
O562 Eu557 2.384 . S
O562 Eu563 2.370 . S
Eu563 O559 2.370 . S
Eu563 O560 2.370 . S
Eu563 O561 2.370 . S
Eu563 O562 2.370 . S
Eu563 O566 2.363 . S
Eu563 O567 2.363 . S
Eu563 O576 2.363 . S
Eu563 O577 2.363 . S
O564 C538 1.283 . S
O564 Eu550 2.363 . S
O565 C539 1.283 . S
O565 Eu550 2.363 . S
O566 C540 1.283 . S
O566 Eu563 2.363 . S
O567 C541 1.283 . S
O567 Eu563 2.363 . S
O568 C542 1.283 . S
O568 Eu553 2.389 . S
O569 C543 1.283 . S
O569 Eu553 2.337 1_565 S
O570 C544 1.283 . S
O570 Eu554 2.389 . S
O571 C545 1.283 . S
O571 Eu554 2.337 1_565 S
O572 C546 1.283 . S
O572 Eu558 2.363 . S
O573 C547 1.283 . S
O573 Eu558 2.363 . S
O574 C548 1.283 . S
O574 Eu557 2.363 . S
O575 C549 1.283 . S
O575 Eu557 2.363 . S
O576 C544 1.283 . S
O576 Eu563 2.363 . S
O577 C542 1.283 . S
O577 Eu563 2.363 . S
O578 C545 1.283 . S
O578 Eu550 2.363 . S
O579 C543 1.283 . S
O579 Eu550 2.363 . S
O580 C539 1.283 . S
O580 Eu558 2.334 1_565 S
O581 C541 1.283 . S
O581 Eu558 2.392 . S
O582 C538 1.283 . S
O582 Eu557 2.340 1_565 S
O583 C540 1.283 . S
O583 Eu557 2.386 . S
O584 C549 1.283 . S
O584 Eu553 2.363 . S
O585 C547 1.283 . S
O585 Eu553 2.363 . S
O586 C548 1.283 . S
O586 Eu554 2.363 . S
O587 C546 1.283 . S
O587 Eu554 2.363 . S
C588 C589 1.349 . S
C588 C590 1.327 . S
C588 H613 0.950 . S
C589 C588 1.349 . S
C589 C605 1.349 . S
C590 C588 1.327 . S
C590 C609 1.429 . S
C590 H614 0.950 . S
C591 C608 1.574 . S
C591 C610 1.368 . S
C591 H615 0.949 . S
H592 C596 0.949 . S
C593 C594 1.349 . S
C593 C595 1.327 . S
C593 H616 0.950 . S
C594 C593 1.349 . S
C594 C606 1.349 . S
C595 C593 1.327 . S
C595 C611 1.429 . S
C595 H617 0.950 . S
C596 H592 0.949 . S
C596 C604 1.574 . S
C596 C612 1.368 . S
H597 C605 0.950 . S
H598 C603 0.950 . S
H599 C604 0.949 . S
H600 C606 0.950 . S
H601 C607 0.950 . S
H602 C608 0.949 . S
C603 H598 0.950 . S
C603 C605 1.327 . S
C603 C609 1.429 . S
C604 C596 1.574 . S
C604 H599 0.949 . S
C604 C610 1.368 . S
C605 C589 1.349 . S
C605 H597 0.950 . S
C605 C603 1.327 . S
C606 C594 1.349 . S
C606 H600 0.950 . S
C606 C607 1.327 . S
C607 H601 0.950 . S
C607 C606 1.327 . S
C607 C611 1.429 . S
C608 C591 1.574 . S
C608 H602 0.949 . S
C608 C612 1.368 . S
C609 C590 1.429 . S
C609 C603 1.429 . S
C609 C610 1.523 . S
C610 C591 1.368 . S
C610 C604 1.368 . S
C610 C609 1.523 . S
C611 C595 1.429 . S
C611 C607 1.429 . S
C611 C612 1.523 . S
C612 C596 1.368 . S
C612 C608 1.368 . S
C612 C611 1.523 . S
H613 C588 0.950 . S
H614 C590 0.950 . S
H615 C591 0.949 . S
H616 C593 0.950 . S
H617 C595 0.950 . S
C618 C619 1.349 . S
C618 C620 1.327 . S
C618 H643 0.950 . S
C619 C618 1.349 . S
C619 C635 1.349 . S
C620 C618 1.327 . S
C620 C639 1.429 . S
C620 H644 0.950 . S
C621 C638 1.574 . S
C621 C640 1.368 . S
C621 H645 0.949 . S
H622 C626 0.949 . S
C623 C624 1.349 . S
C623 C625 1.327 . S
C623 H646 0.950 . S
C624 C623 1.349 . S
C624 C636 1.349 . S
C625 C623 1.327 . S
C625 C641 1.429 . S
C625 H647 0.950 . S
C626 H622 0.949 . S
C626 C634 1.574 . S
C626 C642 1.368 . S
H627 C635 0.950 . S
H628 C633 0.950 . S
H629 C634 0.949 . S
H630 C636 0.950 . S
H631 C637 0.950 . S
H632 C638 0.949 . S
C633 H628 0.950 . S
C633 C635 1.327 . S
C633 C639 1.429 . S
C634 C626 1.574 . S
C634 H629 0.949 . S
C634 C640 1.368 . S
C635 C619 1.349 . S
C635 H627 0.950 . S
C635 C633 1.327 . S
C636 C624 1.349 . S
C636 H630 0.950 . S
C636 C637 1.327 . S
C637 H631 0.950 . S
C637 C636 1.327 . S
C637 C641 1.429 . S
C638 C621 1.574 . S
C638 H632 0.949 . S
C638 C642 1.368 . S
C639 C620 1.429 . S
C639 C633 1.429 . S
C639 C640 1.523 . S
C640 C621 1.368 . S
C640 C634 1.368 . S
C640 C639 1.523 . S
C641 C625 1.429 . S
C641 C637 1.429 . S
C641 C642 1.523 . S
C642 C626 1.368 . S
C642 C638 1.368 . S
C642 C641 1.523 . S
H643 C618 0.950 . S
H644 C620 0.950 . S
H645 C621 0.949 . S
H646 C623 0.950 . S
H647 C625 0.950 . S
C648 C649 1.349 . S
C648 C650 1.327 . S
C648 H673 0.950 . S
C649 C648 1.349 . S
C649 C665 1.349 . S
C650 C648 1.327 . S
C650 C669 1.429 . S
C650 H674 0.950 . S
C651 C668 1.574 . S
C651 C670 1.368 . S
C651 H675 0.949 . S
H652 C656 0.949 . S
C653 C654 1.349 . S
C653 C655 1.327 . S
C653 H676 0.950 . S
C654 C653 1.349 . S
C654 C666 1.349 . S
C655 C653 1.327 . S
C655 C671 1.429 . S
C655 H677 0.950 . S
C656 H652 0.949 . S
C656 C664 1.574 . S
C656 C672 1.368 . S
H657 C665 0.950 . S
H658 C663 0.950 . S
H659 C664 0.949 . S
H660 C666 0.950 . S
H661 C667 0.950 . S
H662 C668 0.949 . S
C663 H658 0.950 . S
C663 C665 1.327 . S
C663 C669 1.429 . S
C664 C656 1.574 . S
C664 H659 0.949 . S
C664 C670 1.368 . S
C665 C649 1.349 . S
C665 H657 0.950 . S
C665 C663 1.327 . S
C666 C654 1.349 . S
C666 H660 0.950 . S
C666 C667 1.327 . S
C667 H661 0.950 . S
C667 C666 1.327 . S
C667 C671 1.429 . S
C668 C651 1.574 . S
C668 H662 0.949 . S
C668 C672 1.368 . S
C669 C650 1.429 . S
C669 C663 1.429 . S
C669 C670 1.523 . S
C670 C651 1.368 . S
C670 C664 1.368 . S
C670 C669 1.523 . S
C671 C655 1.429 . S
C671 C667 1.429 . S
C671 C672 1.523 . S
C672 C656 1.368 . S
C672 C668 1.368 . S
C672 C671 1.523 . S
H673 C648 0.950 . S
H674 C650 0.950 . S
H675 C651 0.949 . S
H676 C653 0.950 . S
H677 C655 0.950 . S
C678 C679 1.349 . S
C678 C680 1.327 . S
C678 H703 0.950 . S
C679 C678 1.349 . S
C679 C695 1.349 . S
C680 C678 1.327 . S
C680 C699 1.429 . S
C680 H704 0.950 . S
C681 C698 1.574 . S
C681 C700 1.368 . S
C681 H705 0.949 . S
H682 C686 0.949 . S
C683 C684 1.349 . S
C683 C685 1.327 . S
C683 H706 0.950 . S
C684 C683 1.349 . S
C684 C696 1.349 . S
C685 C683 1.327 . S
C685 C701 1.429 . S
C685 H707 0.950 . S
C686 H682 0.949 . S
C686 C694 1.574 . S
C686 C702 1.368 . S
H687 C695 0.950 . S
H688 C693 0.950 . S
H689 C694 0.949 . S
H690 C696 0.950 . S
H691 C697 0.950 . S
H692 C698 0.949 . S
C693 H688 0.950 . S
C693 C695 1.327 . S
C693 C699 1.429 . S
C694 C686 1.574 . S
C694 H689 0.949 . S
C694 C700 1.368 . S
C695 C679 1.349 . S
C695 H687 0.950 . S
C695 C693 1.327 . S
C696 C684 1.349 . S
C696 H690 0.950 . S
C696 C697 1.327 . S
C697 H691 0.950 . S
C697 C696 1.327 . S
C697 C701 1.429 . S
C698 C681 1.574 . S
C698 H692 0.949 . S
C698 C702 1.368 . S
C699 C680 1.429 . S
C699 C693 1.429 . S
C699 C700 1.523 . S
C700 C681 1.368 . S
C700 C694 1.368 . S
C700 C699 1.523 . S
C701 C685 1.429 . S
C701 C697 1.429 . S
C701 C702 1.523 . S
C702 C686 1.368 . S
C702 C698 1.368 . S
C702 C701 1.523 . S
H703 C678 0.950 . S
H704 C680 0.950 . S
H705 C681 0.949 . S
H706 C683 0.950 . S
H707 C685 0.950 . S
C708 C709 1.349 . S
C708 C710 1.327 . S
C708 H733 0.950 . S
C709 C708 1.349 . S
C709 C725 1.349 . S
C710 C708 1.327 . S
C710 C729 1.429 . S
C710 H734 0.950 . S
C711 C728 1.574 . S
C711 C730 1.368 . S
C711 H735 0.949 . S
H712 C716 0.949 . S
C713 C714 1.349 . S
C713 C715 1.327 . S
C713 H736 0.950 . S
C714 C713 1.349 . S
C714 C726 1.349 . S
C715 C713 1.327 . S
C715 C731 1.429 . S
C715 H737 0.950 . S
C716 H712 0.949 . S
C716 C724 1.574 . S
C716 C732 1.368 . S
H717 C725 0.950 . S
H718 C723 0.950 . S
H719 C724 0.949 . S
H720 C726 0.950 . S
H721 C727 0.950 . S
H722 C728 0.949 . S
C723 H718 0.950 . S
C723 C725 1.327 . S
C723 C729 1.429 . S
C724 C716 1.574 . S
C724 H719 0.949 . S
C724 C730 1.368 . S
C725 C709 1.349 . S
C725 H717 0.950 . S
C725 C723 1.327 . S
C726 C714 1.349 . S
C726 H720 0.950 . S
C726 C727 1.327 . S
C727 H721 0.950 . S
C727 C726 1.327 . S
C727 C731 1.429 . S
C728 C711 1.574 . S
C728 H722 0.949 . S
C728 C732 1.368 . S
C729 C710 1.429 . S
C729 C723 1.429 . S
C729 C730 1.523 . S
C730 C711 1.368 . S
C730 C724 1.368 . S
C730 C729 1.523 . S
C731 C715 1.429 . S
C731 C727 1.429 . S
C731 C732 1.523 . S
C732 C716 1.368 . S
C732 C728 1.368 . S
C732 C731 1.523 . S
H733 C708 0.950 . S
H734 C710 0.950 . S
H735 C711 0.949 . S
H736 C713 0.950 . S
H737 C715 0.950 . S
C738 C739 1.349 . S
C738 C740 1.327 . S
C738 H763 0.950 . S
C739 C738 1.349 . S
C739 C755 1.349 . S
C740 C738 1.327 . S
C740 C759 1.429 . S
C740 H764 0.950 . S
C741 C758 1.574 . S
C741 C760 1.368 . S
C741 H765 0.949 . S
H742 C746 0.949 . S
C743 C744 1.349 . S
C743 C745 1.327 . S
C743 H766 0.950 . S
C744 C743 1.349 . S
C744 C756 1.349 . S
C745 C743 1.327 . S
C745 C761 1.429 . S
C745 H767 0.950 . S
C746 H742 0.949 . S
C746 C754 1.574 . S
C746 C762 1.368 . S
H747 C755 0.950 . S
H748 C753 0.950 . S
H749 C754 0.949 . S
H750 C756 0.950 . S
H751 C757 0.950 . S
H752 C758 0.949 . S
C753 H748 0.950 . S
C753 C755 1.327 . S
C753 C759 1.429 . S
C754 C746 1.574 . S
C754 H749 0.949 . S
C754 C760 1.368 . S
C755 C739 1.349 . S
C755 H747 0.950 . S
C755 C753 1.327 . S
C756 C744 1.349 . S
C756 H750 0.950 . S
C756 C757 1.327 . S
C757 H751 0.950 . S
C757 C756 1.327 . S
C757 C761 1.429 . S
C758 C741 1.574 . S
C758 H752 0.949 . S
C758 C762 1.368 . S
C759 C740 1.429 . S
C759 C753 1.429 . S
C759 C760 1.523 . S
C760 C741 1.368 . S
C760 C754 1.368 . S
C760 C759 1.523 . S
C761 C745 1.429 . S
C761 C757 1.429 . S
C761 C762 1.523 . S
C762 C746 1.368 . S
C762 C758 1.368 . S
C762 C761 1.523 . S
H763 C738 0.950 . S
H764 C740 0.950 . S
H765 C741 0.949 . S
H766 C743 0.950 . S
H767 C745 0.950 . S
C768 C769 1.349 . S
C768 C770 1.327 . S
C768 H793 0.950 . S
C769 C768 1.349 . S
C769 C785 1.349 . S
C770 C768 1.327 . S
C770 C789 1.429 . S
C770 H794 0.950 . S
C771 C788 1.574 . S
C771 C790 1.368 . S
C771 H795 0.949 . S
H772 C776 0.949 . S
C773 C774 1.349 . S
C773 C775 1.327 . S
C773 H796 0.950 . S
C774 C773 1.349 . S
C774 C786 1.349 . S
C775 C773 1.327 . S
C775 C791 1.429 . S
C775 H797 0.950 . S
C776 H772 0.949 . S
C776 C784 1.574 . S
C776 C792 1.368 . S
H777 C785 0.950 . S
H778 C783 0.950 . S
H779 C784 0.949 . S
H780 C786 0.950 . S
H781 C787 0.950 . S
H782 C788 0.949 . S
C783 H778 0.950 . S
C783 C785 1.327 . S
C783 C789 1.429 . S
C784 C776 1.574 . S
C784 H779 0.949 . S
C784 C790 1.368 . S
C785 C769 1.349 . S
C785 H777 0.950 . S
C785 C783 1.327 . S
C786 C774 1.349 . S
C786 H780 0.950 . S
C786 C787 1.327 . S
C787 H781 0.950 . S
C787 C786 1.327 . S
C787 C791 1.429 . S
C788 C771 1.574 . S
C788 H782 0.949 . S
C788 C792 1.368 . S
C789 C770 1.429 . S
C789 C783 1.429 . S
C789 C790 1.523 . S
C790 C771 1.368 . S
C790 C784 1.368 . S
C790 C789 1.523 . S
C791 C775 1.429 . S
C791 C787 1.429 . S
C791 C792 1.523 . S
C792 C776 1.368 . S
C792 C788 1.368 . S
C792 C791 1.523 . S
H793 C768 0.950 . S
H794 C770 0.950 . S
H795 C771 0.949 . S
H796 C773 0.950 . S
H797 C775 0.950 . S
C798 C799 1.349 . S
C798 C800 1.327 . S
C798 H823 0.950 . S
C799 C798 1.349 . S
C799 C815 1.349 . S
C800 C798 1.327 . S
C800 C819 1.429 . S
C800 H824 0.950 . S
C801 C818 1.574 . S
C801 C820 1.368 . S
C801 H825 0.949 . S
H802 C806 0.949 . S
C803 C804 1.349 . S
C803 C805 1.327 . S
C803 H826 0.950 . S
C804 C803 1.349 . S
C804 C816 1.349 . S
C805 C803 1.327 . S
C805 C821 1.429 . S
C805 H827 0.950 . S
C806 H802 0.949 . S
C806 C814 1.574 . S
C806 C822 1.368 . S
H807 C815 0.950 . S
H808 C813 0.950 . S
H809 C814 0.949 . S
H810 C816 0.950 . S
H811 C817 0.950 . S
H812 C818 0.949 . S
C813 H808 0.950 . S
C813 C815 1.327 . S
C813 C819 1.429 . S
C814 C806 1.574 . S
C814 H809 0.949 . S
C814 C820 1.368 . S
C815 C799 1.349 . S
C815 H807 0.950 . S
C815 C813 1.327 . S
C816 C804 1.349 . S
C816 H810 0.950 . S
C816 C817 1.327 . S
C817 H811 0.950 . S
C817 C816 1.327 . S
C817 C821 1.429 . S
C818 C801 1.574 . S
C818 H812 0.949 . S
C818 C822 1.368 . S
C819 C800 1.429 . S
C819 C813 1.429 . S
C819 C820 1.523 . S
C820 C801 1.368 . S
C820 C814 1.368 . S
C820 C819 1.523 . S
C821 C805 1.429 . S
C821 C817 1.429 . S
C821 C822 1.523 . S
C822 C806 1.368 . S
C822 C818 1.368 . S
C822 C821 1.523 . S
H823 C798 0.950 . S
H824 C800 0.950 . S
H825 C801 0.949 . S
H826 C803 0.950 . S
H827 C805 0.950 . S
C828 C829 1.349 . S
C828 C830 1.327 . S
C828 H853 0.950 . S
C829 C828 1.349 . S
C829 C845 1.349 . S
C830 C828 1.327 . S
C830 C849 1.429 . S
C830 H854 0.950 . S
C831 C848 1.574 . S
C831 C850 1.368 . S
C831 H855 0.949 . S
H832 C836 0.949 . S
C833 C834 1.349 . S
C833 C835 1.327 . S
C833 H856 0.950 . S
C834 C833 1.349 . S
C834 C846 1.349 . S
C835 C833 1.327 . S
C835 C851 1.429 . S
C835 H857 0.950 . S
C836 H832 0.949 . S
C836 C844 1.574 . S
C836 C852 1.368 . S
H837 C845 0.950 . S
H838 C843 0.950 . S
H839 C844 0.949 . S
H840 C846 0.950 . S
H841 C847 0.950 . S
H842 C848 0.949 . S
C843 H838 0.950 . S
C843 C845 1.327 . S
C843 C849 1.429 . S
C844 C836 1.574 . S
C844 H839 0.949 . S
C844 C850 1.368 . S
C845 C829 1.349 . S
C845 H837 0.950 . S
C845 C843 1.327 . S
C846 C834 1.349 . S
C846 H840 0.950 . S
C846 C847 1.327 . S
C847 H841 0.950 . S
C847 C846 1.327 . S
C847 C851 1.429 . S
C848 C831 1.574 . S
C848 H842 0.949 . S
C848 C852 1.368 . S
C849 C830 1.429 . S
C849 C843 1.429 . S
C849 C850 1.523 . S
C850 C831 1.368 . S
C850 C844 1.368 . S
C850 C849 1.523 . S
C851 C835 1.429 . S
C851 C847 1.429 . S
C851 C852 1.523 . S
C852 C836 1.368 . S
C852 C848 1.368 . S
C852 C851 1.523 . S
H853 C828 0.950 . S
H854 C830 0.950 . S
H855 C831 0.949 . S
H856 C833 0.950 . S
H857 C835 0.950 . S
C858 C859 1.349 . S
C858 C860 1.327 . S
C858 H883 0.950 . S
C859 C858 1.349 . S
C859 C875 1.349 . S
C860 C858 1.327 . S
C860 C879 1.429 . S
C860 H884 0.950 . S
C861 C878 1.574 . S
C861 C880 1.368 . S
C861 H885 0.949 . S
H862 C866 0.949 . S
C863 C864 1.349 . S
C863 C865 1.327 . S
C863 H886 0.950 . S
C864 C863 1.349 . S
C864 C876 1.349 . S
C865 C863 1.327 . S
C865 C881 1.429 . S
C865 H887 0.950 . S
C866 H862 0.949 . S
C866 C874 1.574 . S
C866 C882 1.368 . S
H867 C875 0.950 . S
H868 C873 0.950 . S
H869 C874 0.949 . S
H870 C876 0.950 . S
H871 C877 0.950 . S
H872 C878 0.949 . S
C873 H868 0.950 . S
C873 C875 1.327 . S
C873 C879 1.429 . S
C874 C866 1.574 . S
C874 H869 0.949 . S
C874 C880 1.368 . S
C875 C859 1.349 . S
C875 H867 0.950 . S
C875 C873 1.327 . S
C876 C864 1.349 . S
C876 H870 0.950 . S
C876 C877 1.327 . S
C877 H871 0.950 . S
C877 C876 1.327 . S
C877 C881 1.429 . S
C878 C861 1.574 . S
C878 H872 0.949 . S
C878 C882 1.368 . S
C879 C860 1.429 . S
C879 C873 1.429 . S
C879 C880 1.523 . S
C880 C861 1.368 . S
C880 C874 1.368 . S
C880 C879 1.523 . S
C881 C865 1.429 . S
C881 C877 1.429 . S
C881 C882 1.523 . S
C882 C866 1.368 . S
C882 C878 1.368 . S
C882 C881 1.523 . S
H883 C858 0.950 . S
H884 C860 0.950 . S
H885 C861 0.949 . S
H886 C863 0.950 . S
H887 C865 0.950 . S
C888 C889 1.349 . S
C888 C890 1.327 . S
C888 H913 0.950 . S
C889 C888 1.349 . S
C889 C905 1.349 . S
C890 C888 1.327 . S
C890 C909 1.429 . S
C890 H914 0.950 . S
C891 C908 1.574 . S
C891 C910 1.368 . S
C891 H915 0.949 . S
H892 C896 0.949 . S
C893 C894 1.349 . S
C893 C895 1.327 . S
C893 H916 0.950 . S
C894 C893 1.349 . S
C894 C906 1.349 . S
C895 C893 1.327 . S
C895 C911 1.429 . S
C895 H917 0.950 . S
C896 H892 0.949 . S
C896 C904 1.574 . S
C896 C912 1.368 . S
H897 C905 0.950 . S
H898 C903 0.950 . S
H899 C904 0.949 . S
H900 C906 0.950 . S
H901 C907 0.950 . S
H902 C908 0.949 . S
C903 H898 0.950 . S
C903 C905 1.327 . S
C903 C909 1.429 . S
C904 C896 1.574 . S
C904 H899 0.949 . S
C904 C910 1.368 . S
C905 C889 1.349 . S
C905 H897 0.950 . S
C905 C903 1.327 . S
C906 C894 1.349 . S
C906 H900 0.950 . S
C906 C907 1.327 . S
C907 H901 0.950 . S
C907 C906 1.327 . S
C907 C911 1.429 . S
C908 C891 1.574 . S
C908 H902 0.949 . S
C908 C912 1.368 . S
C909 C890 1.429 . S
C909 C903 1.429 . S
C909 C910 1.523 . S
C910 C891 1.368 . S
C910 C904 1.368 . S
C910 C909 1.523 . S
C911 C895 1.429 . S
C911 C907 1.429 . S
C911 C912 1.523 . S
C912 C896 1.368 . S
C912 C908 1.368 . S
C912 C911 1.523 . S
H913 C888 0.950 . S
H914 C890 0.950 . S
H915 C891 0.949 . S
H916 C893 0.950 . S
H917 C895 0.950 . S
C918 C919 1.349 . S
C918 C920 1.327 . S
C918 H943 0.950 . S
C919 C918 1.349 . S
C919 C935 1.349 . S
C920 C918 1.327 . S
C920 C939 1.429 . S
C920 H944 0.950 . S
C921 C938 1.574 . S
C921 C940 1.368 . S
C921 H945 0.949 . S
H922 C926 0.949 . S
C923 C924 1.349 . S
C923 C925 1.327 . S
C923 H946 0.950 . S
C924 C923 1.349 . S
C924 C936 1.349 . S
C925 C923 1.327 . S
C925 C941 1.429 . S
C925 H947 0.950 . S
C926 H922 0.949 . S
C926 C934 1.574 . S
C926 C942 1.368 . S
H927 C935 0.950 . S
H928 C933 0.950 . S
H929 C934 0.949 . S
H930 C936 0.950 . S
H931 C937 0.950 . S
H932 C938 0.949 . S
C933 H928 0.950 . S
C933 C935 1.327 . S
C933 C939 1.429 . S
C934 C926 1.574 . S
C934 H929 0.949 . S
C934 C940 1.368 . S
C935 C919 1.349 . S
C935 H927 0.950 . S
C935 C933 1.327 . S
C936 C924 1.349 . S
C936 H930 0.950 . S
C936 C937 1.327 . S
C937 H931 0.950 . S
C937 C936 1.327 . S
C937 C941 1.429 . S
C938 C921 1.574 . S
C938 H932 0.949 . S
C938 C942 1.368 . S
C939 C920 1.429 . S
C939 C933 1.429 . S
C939 C940 1.523 . S
C940 C921 1.368 . S
C940 C934 1.368 . S
C940 C939 1.523 . S
C941 C925 1.429 . S
C941 C937 1.429 . S
C941 C942 1.523 . S
C942 C926 1.368 . S
C942 C938 1.368 . S
C942 C941 1.523 . S
H943 C918 0.950 . S
H944 C920 0.950 . S
H945 C921 0.949 . S
H946 C923 0.950 . S
H947 C925 0.950 . S
C948 C949 1.349 1_556 S
C948 C950 1.327 . S
C948 H973 0.950 . S
C949 C948 1.349 1_554 S
C949 C965 1.349 . S
C950 C948 1.327 . S
C950 C969 1.429 1_556 S
C950 H974 0.950 . S
C951 C968 1.574 . S
C951 C970 1.368 . S
C951 H975 0.949 . S
H952 C956 0.949 . S
C953 C954 1.349 . S
C953 C955 1.327 . S
C953 H976 0.950 . S
C954 C953 1.349 . S
C954 C966 1.349 1_554 S
C955 C953 1.327 . S
C955 C971 1.429 . S
C955 H977 0.950 . S
C956 H952 0.949 . S
C956 C964 1.574 . S
C956 C972 1.368 1_556 S
H957 C965 0.950 . S
H958 C963 0.950 . S
H959 C964 0.949 . S
H960 C966 0.950 . S
H961 C967 0.950 . S
H962 C968 0.949 . S
C963 H958 0.950 . S
C963 C965 1.327 . S
C963 C969 1.429 . S
C964 C956 1.574 . S
C964 H959 0.949 . S
C964 C970 1.368 1_556 S
C965 C949 1.349 . S
C965 H957 0.950 . S
C965 C963 1.327 . S
C966 C954 1.349 1_556 S
C966 H960 0.950 . S
C966 C967 1.327 . S
C967 H961 0.950 . S
C967 C966 1.327 . S
C967 C971 1.429 1_556 S
C968 C951 1.574 . S
C968 H962 0.949 . S
C968 C972 1.368 . S
C969 C950 1.429 1_554 S
C969 C963 1.429 . S
C969 C970 1.523 . S
C970 C951 1.368 . S
C970 C964 1.368 1_554 S
C970 C969 1.523 . S
C971 C955 1.429 . S
C971 C967 1.429 1_554 S
C971 C972 1.523 . S
C972 C956 1.368 1_554 S
C972 C968 1.368 . S
C972 C971 1.523 . S
H973 C948 0.950 . S
H974 C950 0.950 . S
H975 C951 0.949 . S
H976 C953 0.950 . S
H977 C955 0.950 . S
C978 C979 1.349 . S
C978 C980 1.327 . S
C978 H1003 0.950 . S
C979 C978 1.349 . S
C979 C995 1.349 1_554 S
C980 C978 1.327 . S
C980 C999 1.429 . S
C980 H1004 0.950 . S
C981 C998 1.574 . S
C981 C1000 1.368 1_556 S
C981 H1005 0.949 . S
H982 C986 0.949 . S
C983 C984 1.349 1_556 S
C983 C985 1.327 . S
C983 H1006 0.950 . S
C984 C983 1.349 1_554 S
C984 C996 1.349 . S
C985 C983 1.327 . S
C985 C1001 1.429 1_556 S
C985 H1007 0.950 . S
C986 H982 0.949 . S
C986 C994 1.574 . S
C986 C1002 1.368 . S
H987 C995 0.950 . S
H988 C993 0.950 . S
H989 C994 0.949 . S
H990 C996 0.950 . S
H991 C997 0.950 . S
H992 C998 0.949 . S
C993 H988 0.950 . S
C993 C995 1.327 . S
C993 C999 1.429 1_556 S
C994 C986 1.574 . S
C994 H989 0.949 . S
C994 C1000 1.368 . S
C995 C979 1.349 1_556 S
C995 H987 0.950 . S
C995 C993 1.327 . S
C996 C984 1.349 . S
C996 H990 0.950 . S
C996 C997 1.327 . S
C997 H991 0.950 . S
C997 C996 1.327 . S
C997 C1001 1.429 . S
C998 C981 1.574 . S
C998 H992 0.949 . S
C998 C1002 1.368 1_556 S
C999 C980 1.429 . S
C999 C993 1.429 1_554 S
C999 C1000 1.523 . S
C1000 C981 1.368 1_554 S
C1000 C994 1.368 . S
C1000 C999 1.523 . S
C1001 C985 1.429 1_554 S
C1001 C997 1.429 . S
C1001 C1002 1.523 . S
C1002 C986 1.368 . S
C1002 C998 1.368 1_554 S
C1002 C1001 1.523 . S
H1003 C978 0.950 . S
H1004 C980 0.950 . S
H1005 C981 0.949 . S
H1006 C983 0.950 . S
H1007 C985 0.950 . S
C1008 C1009 1.349 . S
C1008 C1010 1.327 . S
C1008 H1033 0.950 . S
C1009 C1008 1.349 . S
C1009 C1025 1.349 1_554 S
C1010 C1008 1.327 . S
C1010 C1029 1.429 . S
C1010 H1034 0.950 . S
C1011 C1028 1.574 . S
C1011 C1030 1.368 1_556 S
C1011 H1035 0.949 . S
H1012 C1016 0.949 . S
C1013 C1014 1.349 1_556 S
C1013 C1015 1.327 . S
C1013 H1036 0.950 . S
C1014 C1013 1.349 1_554 S
C1014 C1026 1.349 . S
C1015 C1013 1.327 . S
C1015 C1031 1.429 1_556 S
C1015 H1037 0.950 . S
C1016 H1012 0.949 . S
C1016 C1024 1.574 . S
C1016 C1032 1.368 . S
H1017 C1025 0.950 . S
H1018 C1023 0.950 . S
H1019 C1024 0.949 . S
H1020 C1026 0.950 . S
H1021 C1027 0.950 . S
H1022 C1028 0.949 . S
C1023 H1018 0.950 . S
C1023 C1025 1.327 . S
C1023 C1029 1.429 1_556 S
C1024 C1016 1.574 . S
C1024 H1019 0.949 . S
C1024 C1030 1.368 . S
C1025 C1009 1.349 1_556 S
C1025 H1017 0.950 . S
C1025 C1023 1.327 . S
C1026 C1014 1.349 . S
C1026 H1020 0.950 . S
C1026 C1027 1.327 . S
C1027 H1021 0.950 . S
C1027 C1026 1.327 . S
C1027 C1031 1.429 . S
C1028 C1011 1.574 . S
C1028 H1022 0.949 . S
C1028 C1032 1.368 1_556 S
C1029 C1010 1.429 . S
C1029 C1023 1.429 1_554 S
C1029 C1030 1.523 . S
C1030 C1011 1.368 1_554 S
C1030 C1024 1.368 . S
C1030 C1029 1.523 . S
C1031 C1015 1.429 1_554 S
C1031 C1027 1.429 . S
C1031 C1032 1.523 . S
C1032 C1016 1.368 . S
C1032 C1028 1.368 1_554 S
C1032 C1031 1.523 . S
H1033 C1008 0.950 . S
H1034 C1010 0.950 . S
H1035 C1011 0.949 . S
H1036 C1013 0.950 . S
H1037 C1015 0.950 . S
C1038 C1039 1.349 1_556 S
C1038 C1040 1.327 . S
C1038 H1063 0.950 . S
C1039 C1038 1.349 1_554 S
C1039 C1055 1.349 . S
C1040 C1038 1.327 . S
C1040 C1059 1.429 1_556 S
C1040 H1064 0.950 . S
C1041 C1058 1.574 . S
C1041 C1060 1.368 . S
C1041 H1065 0.949 . S
H1042 C1046 0.949 . S
C1043 C1044 1.349 . S
C1043 C1045 1.327 . S
C1043 H1066 0.950 . S
C1044 C1043 1.349 . S
C1044 C1056 1.349 1_554 S
C1045 C1043 1.327 . S
C1045 C1061 1.429 . S
C1045 H1067 0.950 . S
C1046 H1042 0.949 . S
C1046 C1054 1.574 . S
C1046 C1062 1.368 1_556 S
H1047 C1055 0.950 . S
H1048 C1053 0.950 . S
H1049 C1054 0.949 . S
H1050 C1056 0.950 . S
H1051 C1057 0.950 . S
H1052 C1058 0.949 . S
C1053 H1048 0.950 . S
C1053 C1055 1.327 . S
C1053 C1059 1.429 . S
C1054 C1046 1.574 . S
C1054 H1049 0.949 . S
C1054 C1060 1.368 1_556 S
C1055 C1039 1.349 . S
C1055 H1047 0.950 . S
C1055 C1053 1.327 . S
C1056 C1044 1.349 1_556 S
C1056 H1050 0.950 . S
C1056 C1057 1.327 . S
C1057 H1051 0.950 . S
C1057 C1056 1.327 . S
C1057 C1061 1.429 1_556 S
C1058 C1041 1.574 . S
C1058 H1052 0.949 . S
C1058 C1062 1.368 . S
C1059 C1040 1.429 1_554 S
C1059 C1053 1.429 . S
C1059 C1060 1.523 . S
C1060 C1041 1.368 . S
C1060 C1054 1.368 1_554 S
C1060 C1059 1.523 . S
C1061 C1045 1.429 . S
C1061 C1057 1.429 1_554 S
C1061 C1062 1.523 . S
C1062 C1046 1.368 1_554 S
C1062 C1058 1.368 . S
C1062 C1061 1.523 . S
H1063 C1038 0.950 . S
H1064 C1040 0.950 . S
H1065 C1041 0.949 . S
H1066 C1043 0.950 . S
H1067 C1045 0.950 . S
C1068 C1069 1.349 . S
C1068 C1070 1.327 . S
C1068 H1093 0.950 . S
C1069 C1068 1.349 . S
C1069 C1085 1.349 1_455 S
C1070 C1068 1.327 . S
C1070 C1089 1.429 . S
C1070 H1094 0.950 . S
C1071 C1088 1.574 . S
C1071 C1090 1.368 1_655 S
C1071 H1095 0.949 . S
H1072 C1076 0.949 . S
C1073 C1074 1.349 1_655 S
C1073 C1075 1.327 . S
C1073 H1096 0.950 . S
C1074 C1073 1.349 1_455 S
C1074 C1086 1.349 . S
C1075 C1073 1.327 . S
C1075 C1091 1.429 1_655 S
C1075 H1097 0.950 . S
C1076 H1072 0.949 . S
C1076 C1084 1.574 . S
C1076 C1092 1.368 . S
H1077 C1085 0.950 . S
H1078 C1083 0.950 . S
H1079 C1084 0.949 . S
H1080 C1086 0.950 . S
H1081 C1087 0.950 . S
H1082 C1088 0.949 . S
C1083 H1078 0.950 . S
C1083 C1085 1.327 . S
C1083 C1089 1.429 1_655 S
C1084 C1076 1.574 . S
C1084 H1079 0.949 . S
C1084 C1090 1.368 . S
C1085 C1069 1.349 1_655 S
C1085 H1077 0.950 . S
C1085 C1083 1.327 . S
C1086 C1074 1.349 . S
C1086 H1080 0.950 . S
C1086 C1087 1.327 . S
C1087 H1081 0.950 . S
C1087 C1086 1.327 . S
C1087 C1091 1.429 . S
C1088 C1071 1.574 . S
C1088 H1082 0.949 . S
C1088 C1092 1.368 1_655 S
C1089 C1070 1.429 . S
C1089 C1083 1.429 1_455 S
C1089 C1090 1.523 . S
C1090 C1071 1.368 1_455 S
C1090 C1084 1.368 . S
C1090 C1089 1.523 . S
C1091 C1075 1.429 1_455 S
C1091 C1087 1.429 . S
C1091 C1092 1.523 . S
C1092 C1076 1.368 . S
C1092 C1088 1.368 1_455 S
C1092 C1091 1.523 . S
H1093 C1068 0.950 . S
H1094 C1070 0.950 . S
H1095 C1071 0.949 . S
H1096 C1073 0.950 . S
H1097 C1075 0.950 . S
C1098 C1099 1.350 . S
C1098 C1100 1.327 . S
C1098 H1123 0.950 . S
C1099 C1098 1.350 . S
C1099 C1115 1.348 1_545 S
C1100 C1098 1.327 . S
C1100 C1119 1.434 . S
C1100 H1124 0.950 . S
C1101 C1118 1.574 . S
C1101 C1120 1.360 1_565 S
C1101 H1125 0.949 . S
H1102 C1106 0.949 . S
C1103 C1104 1.329 1_565 S
C1103 C1105 1.327 . S
C1103 H1126 0.950 . S
C1104 C1103 1.329 1_545 S
C1104 C1116 1.369 . S
C1105 C1103 1.327 . S
C1105 C1121 1.414 1_565 S
C1105 H1127 0.950 . S
C1106 H1102 0.949 . S
C1106 C1114 1.574 . S
C1106 C1122 1.382 . S
H1107 C1115 0.950 . S
H1108 C1113 0.950 . S
H1109 C1114 0.949 . S
H1110 C1116 0.950 . S
H1111 C1117 0.950 . S
H1112 C1118 0.949 . S
C1113 H1108 0.950 . S
C1113 C1115 1.327 . S
C1113 C1119 1.423 1_565 S
C1114 C1106 1.574 . S
C1114 H1109 0.949 . S
C1114 C1120 1.377 . S
C1115 C1099 1.348 1_565 S
C1115 H1107 0.950 . S
C1115 C1113 1.327 . S
C1116 C1104 1.369 . S
C1116 H1110 0.950 . S
C1116 C1117 1.327 . S
C1117 H1111 0.950 . S
C1117 C1116 1.327 . S
C1117 C1121 1.443 . S
C1118 C1101 1.574 . S
C1118 H1112 0.949 . S
C1118 C1122 1.355 1_565 S
C1119 C1100 1.434 . S
C1119 C1113 1.423 1_545 S
C1119 C1120 1.523 . S
C1120 C1101 1.360 1_545 S
C1120 C1114 1.377 . S
C1120 C1119 1.523 . S
C1121 C1105 1.414 1_545 S
C1121 C1117 1.443 . S
C1121 C1122 1.523 . S
C1122 C1106 1.382 . S
C1122 C1118 1.355 1_545 S
C1122 C1121 1.523 . S
H1123 C1098 0.950 . S
H1124 C1100 0.950 . S
H1125 C1101 0.949 . S
H1126 C1103 0.950 . S
H1127 C1105 0.950 . S
C1128 C1129 1.349 . S
C1128 C1130 1.327 . S
C1128 H1153 0.950 . S
C1129 C1128 1.349 . S
C1129 C1145 1.349 1_455 S
C1130 C1128 1.327 . S
C1130 C1149 1.429 . S
C1130 H1154 0.950 . S
C1131 C1148 1.574 . S
C1131 C1150 1.368 1_655 S
C1131 H1155 0.949 . S
H1132 C1136 0.949 . S
C1133 C1134 1.349 1_655 S
C1133 C1135 1.327 . S
C1133 H1156 0.950 . S
C1134 C1133 1.349 1_455 S
C1134 C1146 1.349 . S
C1135 C1133 1.327 . S
C1135 C1151 1.429 1_655 S
C1135 H1157 0.950 . S
C1136 H1132 0.949 . S
C1136 C1144 1.574 . S
C1136 C1152 1.368 . S
H1137 C1145 0.950 . S
H1138 C1143 0.950 . S
H1139 C1144 0.949 . S
H1140 C1146 0.950 . S
H1141 C1147 0.950 . S
H1142 C1148 0.949 . S
C1143 H1138 0.950 . S
C1143 C1145 1.327 . S
C1143 C1149 1.429 1_655 S
C1144 C1136 1.574 . S
C1144 H1139 0.949 . S
C1144 C1150 1.368 . S
C1145 C1129 1.349 1_655 S
C1145 H1137 0.950 . S
C1145 C1143 1.327 . S
C1146 C1134 1.349 . S
C1146 H1140 0.950 . S
C1146 C1147 1.327 . S
C1147 H1141 0.950 . S
C1147 C1146 1.327 . S
C1147 C1151 1.429 . S
C1148 C1131 1.574 . S
C1148 H1142 0.949 . S
C1148 C1152 1.368 1_655 S
C1149 C1130 1.429 . S
C1149 C1143 1.429 1_455 S
C1149 C1150 1.523 . S
C1150 C1131 1.368 1_455 S
C1150 C1144 1.368 . S
C1150 C1149 1.523 . S
C1151 C1135 1.429 1_455 S
C1151 C1147 1.429 . S
C1151 C1152 1.523 . S
C1152 C1136 1.368 . S
C1152 C1148 1.368 1_455 S
C1152 C1151 1.523 . S
H1153 C1128 0.950 . S
H1154 C1130 0.950 . S
H1155 C1131 0.949 . S
H1156 C1133 0.950 . S
H1157 C1135 0.950 . S
C1158 C1159 1.348 1_565 S
C1158 C1160 1.327 . S
C1158 H1183 0.950 . S
C1159 C1158 1.348 1_545 S
C1159 C1175 1.350 . S
C1160 C1158 1.327 . S
C1160 C1179 1.423 1_565 S
C1160 H1184 0.950 . S
C1161 C1178 1.574 . S
C1161 C1180 1.377 . S
C1161 H1185 0.949 . S
H1162 C1166 0.949 . S
C1163 C1164 1.369 . S
C1163 C1165 1.327 . S
C1163 H1186 0.950 . S
C1164 C1163 1.369 . S
C1164 C1176 1.329 1_545 S
C1165 C1163 1.327 . S
C1165 C1181 1.443 . S
C1165 H1187 0.950 . S
C1166 H1162 0.949 . S
C1166 C1174 1.574 . S
C1166 C1182 1.355 1_565 S
H1167 C1175 0.950 . S
H1168 C1173 0.950 . S
H1169 C1174 0.949 . S
H1170 C1176 0.950 . S
H1171 C1177 0.950 . S
H1172 C1178 0.949 . S
C1173 H1168 0.950 . S
C1173 C1175 1.327 . S
C1173 C1179 1.434 . S
C1174 C1166 1.574 . S
C1174 H1169 0.949 . S
C1174 C1180 1.360 1_565 S
C1175 C1159 1.350 . S
C1175 H1167 0.950 . S
C1175 C1173 1.327 . S
C1176 C1164 1.329 1_565 S
C1176 H1170 0.950 . S
C1176 C1177 1.327 . S
C1177 H1171 0.950 . S
C1177 C1176 1.327 . S
C1177 C1181 1.414 1_565 S
C1178 C1161 1.574 . S
C1178 H1172 0.949 . S
C1178 C1182 1.382 . S
C1179 C1160 1.423 1_545 S
C1179 C1173 1.434 . S
C1179 C1180 1.523 . S
C1180 C1161 1.377 . S
C1180 C1174 1.360 1_545 S
C1180 C1179 1.523 . S
C1181 C1165 1.443 . S
C1181 C1177 1.414 1_545 S
C1181 C1182 1.523 . S
C1182 C1166 1.355 1_545 S
C1182 C1178 1.382 . S
C1182 C1181 1.523 . S
H1183 C1158 0.950 . S
H1184 C1160 0.950 . S
H1185 C1161 0.949 . S
H1186 C1163 0.950 . S
H1187 C1165 0.950 . S
C1188 C1189 1.349 . S
C1188 C1190 1.327 . S
C1188 H1213 0.950 . S
C1189 C1188 1.349 . S
C1189 C1205 1.349 1_455 S
C1190 C1188 1.327 . S
C1190 C1209 1.429 . S
C1190 H1214 0.950 . S
C1191 C1208 1.574 . S
C1191 C1210 1.368 1_655 S
C1191 H1215 0.949 . S
H1192 C1196 0.949 . S
C1193 C1194 1.349 1_655 S
C1193 C1195 1.327 . S
C1193 H1216 0.950 . S
C1194 C1193 1.349 1_455 S
C1194 C1206 1.349 . S
C1195 C1193 1.327 . S
C1195 C1211 1.429 1_655 S
C1195 H1217 0.950 . S
C1196 H1192 0.949 . S
C1196 C1204 1.574 . S
C1196 C1212 1.368 . S
H1197 C1205 0.950 . S
H1198 C1203 0.950 . S
H1199 C1204 0.949 . S
H1200 C1206 0.950 . S
H1201 C1207 0.950 . S
H1202 C1208 0.949 . S
C1203 H1198 0.950 . S
C1203 C1205 1.327 . S
C1203 C1209 1.429 1_655 S
C1204 C1196 1.574 . S
C1204 H1199 0.949 . S
C1204 C1210 1.368 . S
C1205 C1189 1.349 1_655 S
C1205 H1197 0.950 . S
C1205 C1203 1.327 . S
C1206 C1194 1.349 . S
C1206 H1200 0.950 . S
C1206 C1207 1.327 . S
C1207 H1201 0.950 . S
C1207 C1206 1.327 . S
C1207 C1211 1.429 . S
C1208 C1191 1.574 . S
C1208 H1202 0.949 . S
C1208 C1212 1.368 1_655 S
C1209 C1190 1.429 . S
C1209 C1203 1.429 1_455 S
C1209 C1210 1.523 . S
C1210 C1191 1.368 1_455 S
C1210 C1204 1.368 . S
C1210 C1209 1.523 . S
C1211 C1195 1.429 1_455 S
C1211 C1207 1.429 . S
C1211 C1212 1.523 . S
C1212 C1196 1.368 . S
C1212 C1208 1.368 1_455 S
C1212 C1211 1.523 . S
H1213 C1188 0.950 . S
H1214 C1190 0.950 . S
H1215 C1191 0.949 . S
H1216 C1193 0.950 . S
H1217 C1195 0.950 . S
C1218 C1219 1.349 1_565 S
C1218 C1220 1.327 . S
C1218 H1243 0.950 . S
C1219 C1218 1.349 1_545 S
C1219 C1235 1.349 . S
C1220 C1218 1.327 . S
C1220 C1239 1.393 1_565 S
C1220 H1244 0.950 . S
C1221 C1238 1.574 . S
C1221 C1240 1.406 . S
C1221 H1245 0.949 . S
H1222 C1226 0.949 . S
C1223 C1224 1.374 . S
C1223 C1225 1.327 . S
C1223 H1246 0.950 . S
C1224 C1223 1.374 . S
C1224 C1236 1.325 1_545 S
C1225 C1223 1.327 . S
C1225 C1241 1.457 . S
C1225 H1247 0.950 . S
C1226 H1222 0.949 . S
C1226 C1234 1.574 . S
C1226 C1242 1.336 1_565 S
H1227 C1235 0.950 . S
H1228 C1233 0.950 . S
H1229 C1234 0.949 . S
H1230 C1236 0.950 . S
H1231 C1237 0.950 . S
H1232 C1238 0.949 . S
C1233 H1228 0.950 . S
C1233 C1235 1.327 . S
C1233 C1239 1.465 . S
C1234 C1226 1.574 . S
C1234 H1229 0.949 . S
C1234 C1240 1.331 1_565 S
C1235 C1219 1.349 . S
C1235 H1227 0.950 . S
C1235 C1233 1.327 . S
C1236 C1224 1.325 1_565 S
C1236 H1230 0.950 . S
C1236 C1237 1.327 . S
C1237 H1231 0.950 . S
C1237 C1236 1.327 . S
C1237 C1241 1.401 1_565 S
C1238 C1221 1.574 . S
C1238 H1232 0.949 . S
C1238 C1242 1.402 . S
C1239 C1220 1.393 1_545 S
C1239 C1233 1.465 . S
C1239 C1240 1.523 . S
C1240 C1221 1.406 . S
C1240 C1234 1.331 1_545 S
C1240 C1239 1.523 . S
C1241 C1225 1.457 . S
C1241 C1237 1.401 1_545 S
C1241 C1242 1.523 . S
C1242 C1226 1.336 1_545 S
C1242 C1238 1.402 . S
C1242 C1241 1.523 . S
H1243 C1218 0.950 . S
H1244 C1220 0.950 . S
H1245 C1221 0.949 . S
H1246 C1223 0.950 . S
H1247 C1225 0.950 . S
C1248 C1249 1.349 . S
C1248 C1250 1.327 . S
C1248 H1273 0.950 . S
C1249 C1248 1.349 . S
C1249 C1265 1.349 1_455 S
C1250 C1248 1.327 . S
C1250 C1269 1.429 . S
C1250 H1274 0.950 . S
C1251 C1268 1.574 . S
C1251 C1270 1.368 1_655 S
C1251 H1275 0.949 . S
H1252 C1256 0.949 . S
C1253 C1254 1.349 1_655 S
C1253 C1255 1.327 . S
C1253 H1276 0.950 . S
C1254 C1253 1.349 1_455 S
C1254 C1266 1.349 . S
C1255 C1253 1.327 . S
C1255 C1271 1.429 1_655 S
C1255 H1277 0.950 . S
C1256 H1252 0.949 . S
C1256 C1264 1.574 . S
C1256 C1272 1.368 . S
H1257 C1265 0.950 . S
H1258 C1263 0.950 . S
H1259 C1264 0.949 . S
H1260 C1266 0.950 . S
H1261 C1267 0.950 . S
H1262 C1268 0.949 . S
C1263 H1258 0.950 . S
C1263 C1265 1.327 . S
C1263 C1269 1.429 1_655 S
C1264 C1256 1.574 . S
C1264 H1259 0.949 . S
C1264 C1270 1.368 . S
C1265 C1249 1.349 1_655 S
C1265 H1257 0.950 . S
C1265 C1263 1.327 . S
C1266 C1254 1.349 . S
C1266 H1260 0.950 . S
C1266 C1267 1.327 . S
C1267 H1261 0.950 . S
C1267 C1266 1.327 . S
C1267 C1271 1.429 . S
C1268 C1251 1.574 . S
C1268 H1262 0.949 . S
C1268 C1272 1.368 1_655 S
C1269 C1250 1.429 . S
C1269 C1263 1.429 1_455 S
C1269 C1270 1.523 . S
C1270 C1251 1.368 1_455 S
C1270 C1264 1.368 . S
C1270 C1269 1.523 . S
C1271 C1255 1.429 1_455 S
C1271 C1267 1.429 . S
C1271 C1272 1.523 . S
C1272 C1256 1.368 . S
C1272 C1268 1.368 1_455 S
C1272 C1271 1.523 . S
H1273 C1248 0.950 . S
H1274 C1250 0.950 . S
H1275 C1251 0.949 . S
H1276 C1253 0.950 . S
H1277 C1255 0.950 . S
C1278 C1279 1.349 . S
C1278 C1280 1.327 . S
C1278 H1303 0.950 . S
C1279 C1278 1.349 . S
C1279 C1295 1.349 1_545 S
C1280 C1278 1.327 . S
C1280 C1299 1.465 . S
C1280 H1304 0.950 . S
C1281 C1298 1.574 . S
C1281 C1300 1.332 1_565 S
C1281 H1305 0.949 . S
H1282 C1286 0.949 . S
C1283 C1284 1.324 1_565 S
C1283 C1285 1.327 . S
C1283 H1306 0.950 . S
C1284 C1283 1.324 1_545 S
C1284 C1296 1.374 . S
C1285 C1283 1.327 . S
C1285 C1301 1.401 1_565 S
C1285 H1307 0.950 . S
C1286 H1282 0.949 . S
C1286 C1294 1.574 . S
C1286 C1302 1.402 . S
H1287 C1295 0.950 . S
H1288 C1293 0.950 . S
H1289 C1294 0.949 . S
H1290 C1296 0.950 . S
H1291 C1297 0.950 . S
H1292 C1298 0.949 . S
C1293 H1288 0.950 . S
C1293 C1295 1.327 . S
C1293 C1299 1.393 1_565 S
C1294 C1286 1.574 . S
C1294 H1289 0.949 . S
C1294 C1300 1.406 . S
C1295 C1279 1.349 1_565 S
C1295 H1287 0.950 . S
C1295 C1293 1.327 . S
C1296 C1284 1.374 . S
C1296 H1290 0.950 . S
C1296 C1297 1.327 . S
C1297 H1291 0.950 . S
C1297 C1296 1.327 . S
C1297 C1301 1.457 . S
C1298 C1281 1.574 . S
C1298 H1292 0.949 . S
C1298 C1302 1.336 1_565 S
C1299 C1280 1.465 . S
C1299 C1293 1.393 1_545 S
C1299 C1300 1.523 . S
C1300 C1281 1.332 1_545 S
C1300 C1294 1.406 . S
C1300 C1299 1.523 . S
C1301 C1285 1.401 1_545 S
C1301 C1297 1.457 . S
C1301 C1302 1.523 . S
C1302 C1286 1.402 . S
C1302 C1298 1.336 1_545 S
C1302 C1301 1.523 . S
H1303 C1278 0.950 . S
H1304 C1280 0.950 . S
H1305 C1281 0.949 . S
H1306 C1283 0.950 . S
H1307 C1285 0.950 . S
C1308 C1309 1.349 . S
C1308 C1310 1.327 . S
C1308 H1333 0.950 . S
C1309 C1308 1.349 . S
C1309 C1325 1.349 1_455 S
C1310 C1308 1.327 . S
C1310 C1329 1.429 . S
C1310 H1334 0.950 . S
C1311 C1328 1.574 . S
C1311 C1330 1.368 1_655 S
C1311 H1335 0.949 . S
H1312 C1316 0.949 . S
C1313 C1314 1.349 1_655 S
C1313 C1315 1.327 . S
C1313 H1336 0.950 . S
C1314 C1313 1.349 1_455 S
C1314 C1326 1.349 . S
C1315 C1313 1.327 . S
C1315 C1331 1.429 1_655 S
C1315 H1337 0.950 . S
C1316 H1312 0.949 . S
C1316 C1324 1.574 . S
C1316 C1332 1.368 . S
H1317 C1325 0.950 . S
H1318 C1323 0.950 . S
H1319 C1324 0.949 . S
H1320 C1326 0.950 . S
H1321 C1327 0.950 . S
H1322 C1328 0.949 . S
C1323 H1318 0.950 . S
C1323 C1325 1.327 . S
C1323 C1329 1.429 1_655 S
C1324 C1316 1.574 . S
C1324 H1319 0.949 . S
C1324 C1330 1.368 . S
C1325 C1309 1.349 1_655 S
C1325 H1317 0.950 . S
C1325 C1323 1.327 . S
C1326 C1314 1.349 . S
C1326 H1320 0.950 . S
C1326 C1327 1.327 . S
C1327 H1321 0.950 . S
C1327 C1326 1.327 . S
C1327 C1331 1.429 . S
C1328 C1311 1.574 . S
C1328 H1322 0.949 . S
C1328 C1332 1.368 1_655 S
C1329 C1310 1.429 . S
C1329 C1323 1.429 1_455 S
C1329 C1330 1.523 . S
C1330 C1311 1.368 1_455 S
C1330 C1324 1.368 . S
C1330 C1329 1.523 . S
C1331 C1315 1.429 1_455 S
C1331 C1327 1.429 . S
C1331 C1332 1.523 . S
C1332 C1316 1.368 . S
C1332 C1328 1.368 1_455 S
C1332 C1331 1.523 . S
H1333 C1308 0.950 . S
H1334 C1310 0.950 . S
H1335 C1311 0.949 . S
H1336 C1313 0.950 . S
H1337 C1315 0.950 . S
C1338 C1339 1.349 . S
C1338 C1340 1.327 . S
C1338 H1363 0.950 . S
C1339 C1338 1.349 . S
C1339 C1355 1.349 1_545 S
C1340 C1338 1.327 . S
C1340 C1359 1.465 . S
C1340 H1364 0.950 . S
C1341 C1358 1.574 . S
C1341 C1360 1.332 1_565 S
C1341 H1365 0.949 . S
H1342 C1346 0.949 . S
C1343 C1344 1.325 1_565 S
C1343 C1345 1.327 . S
C1343 H1366 0.950 . S
C1344 C1343 1.325 1_545 S
C1344 C1356 1.373 . S
C1345 C1343 1.327 . S
C1345 C1361 1.402 1_565 S
C1345 H1367 0.950 . S
C1346 H1342 0.949 . S
C1346 C1354 1.574 . S
C1346 C1362 1.401 . S
H1347 C1355 0.950 . S
H1348 C1353 0.950 . S
H1349 C1354 0.949 . S
H1350 C1356 0.950 . S
H1351 C1357 0.950 . S
H1352 C1358 0.949 . S
C1353 H1348 0.950 . S
C1353 C1355 1.327 . S
C1353 C1359 1.393 1_565 S
C1354 C1346 1.574 . S
C1354 H1349 0.949 . S
C1354 C1360 1.405 . S
C1355 C1339 1.349 1_565 S
C1355 H1347 0.950 . S
C1355 C1353 1.327 . S
C1356 C1344 1.373 . S
C1356 H1350 0.950 . S
C1356 C1357 1.327 . S
C1357 H1351 0.950 . S
C1357 C1356 1.327 . S
C1357 C1361 1.456 . S
C1358 C1341 1.574 . S
C1358 H1352 0.949 . S
C1358 C1362 1.336 1_565 S
C1359 C1340 1.465 . S
C1359 C1353 1.393 1_545 S
C1359 C1360 1.523 . S
C1360 C1341 1.332 1_545 S
C1360 C1354 1.405 . S
C1360 C1359 1.523 . S
C1361 C1345 1.402 1_545 S
C1361 C1357 1.456 . S
C1361 C1362 1.523 . S
C1362 C1346 1.401 . S
C1362 C1358 1.336 1_545 S
C1362 C1361 1.523 . S
H1363 C1338 0.950 . S
H1364 C1340 0.950 . S
H1365 C1341 0.949 . S
H1366 C1343 0.950 . S
H1367 C1345 0.950 . S
C1368 C1369 1.349 . S
C1368 C1370 1.327 . S
C1368 H1393 0.950 . S
C1369 C1368 1.349 . S
C1369 C1385 1.349 1_455 S
C1370 C1368 1.327 . S
C1370 C1389 1.429 . S
C1370 H1394 0.950 . S
C1371 C1388 1.574 . S
C1371 C1390 1.368 1_655 S
C1371 H1395 0.949 . S
H1372 C1376 0.949 . S
C1373 C1374 1.349 1_655 S
C1373 C1375 1.327 . S
C1373 H1396 0.950 . S
C1374 C1373 1.349 1_455 S
C1374 C1386 1.349 . S
C1375 C1373 1.327 . S
C1375 C1391 1.429 1_655 S
C1375 H1397 0.950 . S
C1376 H1372 0.949 . S
C1376 C1384 1.574 . S
C1376 C1392 1.368 . S
H1377 C1385 0.950 . S
H1378 C1383 0.950 . S
H1379 C1384 0.949 . S
H1380 C1386 0.950 . S
H1381 C1387 0.950 . S
H1382 C1388 0.949 . S
C1383 H1378 0.950 . S
C1383 C1385 1.327 . S
C1383 C1389 1.429 1_655 S
C1384 C1376 1.574 . S
C1384 H1379 0.949 . S
C1384 C1390 1.368 . S
C1385 C1369 1.349 1_655 S
C1385 H1377 0.950 . S
C1385 C1383 1.327 . S
C1386 C1374 1.349 . S
C1386 H1380 0.950 . S
C1386 C1387 1.327 . S
C1387 H1381 0.950 . S
C1387 C1386 1.327 . S
C1387 C1391 1.429 . S
C1388 C1371 1.574 . S
C1388 H1382 0.949 . S
C1388 C1392 1.368 1_655 S
C1389 C1370 1.429 . S
C1389 C1383 1.429 1_455 S
C1389 C1390 1.523 . S
C1390 C1371 1.368 1_455 S
C1390 C1384 1.368 . S
C1390 C1389 1.523 . S
C1391 C1375 1.429 1_455 S
C1391 C1387 1.429 . S
C1391 C1392 1.523 . S
C1392 C1376 1.368 . S
C1392 C1388 1.368 1_455 S
C1392 C1391 1.523 . S
H1393 C1368 0.950 . S
H1394 C1370 0.950 . S
H1395 C1371 0.949 . S
H1396 C1373 0.950 . S
H1397 C1375 0.950 . S
C1398 C1399 1.349 1_565 S
C1398 C1400 1.327 . S
C1398 H1423 0.950 . S
C1399 C1398 1.349 1_545 S
C1399 C1415 1.349 . S
C1400 C1398 1.327 . S
C1400 C1419 1.393 1_565 S
C1400 H1424 0.950 . S
C1401 C1418 1.574 . S
C1401 C1420 1.405 . S
C1401 H1425 0.949 . S
H1402 C1406 0.949 . S
C1403 C1404 1.373 . S
C1403 C1405 1.327 . S
C1403 H1426 0.950 . S
C1404 C1403 1.373 . S
C1404 C1416 1.325 1_545 S
C1405 C1403 1.327 . S
C1405 C1421 1.456 . S
C1405 H1427 0.950 . S
C1406 H1402 0.949 . S
C1406 C1414 1.574 . S
C1406 C1422 1.336 1_565 S
H1407 C1415 0.950 . S
H1408 C1413 0.950 . S
H1409 C1414 0.949 . S
H1410 C1416 0.950 . S
H1411 C1417 0.950 . S
H1412 C1418 0.949 . S
C1413 H1408 0.950 . S
C1413 C1415 1.327 . S
C1413 C1419 1.465 . S
C1414 C1406 1.574 . S
C1414 H1409 0.949 . S
C1414 C1420 1.332 1_565 S
C1415 C1399 1.349 . S
C1415 H1407 0.950 . S
C1415 C1413 1.327 . S
C1416 C1404 1.325 1_565 S
C1416 H1410 0.950 . S
C1416 C1417 1.327 . S
C1417 H1411 0.950 . S
C1417 C1416 1.327 . S
C1417 C1421 1.401 1_565 S
C1418 C1401 1.574 . S
C1418 H1412 0.949 . S
C1418 C1422 1.401 . S
C1419 C1400 1.393 1_545 S
C1419 C1413 1.465 . S
C1419 C1420 1.523 . S
C1420 C1401 1.405 . S
C1420 C1414 1.332 1_545 S
C1420 C1419 1.523 . S
C1421 C1405 1.456 . S
C1421 C1417 1.401 1_545 S
C1421 C1422 1.523 . S
C1422 C1406 1.336 1_545 S
C1422 C1418 1.401 . S
C1422 C1421 1.523 . S
H1423 C1398 0.950 . S
H1424 C1400 0.950 . S
H1425 C1401 0.949 . S
H1426 C1403 0.950 . S
H1427 C1405 0.950 . S
C1428 C1429 1.349 1_655 S
C1428 C1430 1.327 . S
C1428 H1453 0.950 . S
C1429 C1428 1.349 1_455 S
C1429 C1445 1.349 . S
C1430 C1428 1.327 . S
C1430 C1449 1.429 1_655 S
C1430 H1454 0.950 . S
C1431 C1448 1.574 . S
C1431 C1450 1.368 . S
C1431 H1455 0.949 . S
H1432 C1436 0.949 . S
C1433 C1434 1.349 . S
C1433 C1435 1.327 . S
C1433 H1456 0.950 . S
C1434 C1433 1.349 . S
C1434 C1446 1.349 1_455 S
C1435 C1433 1.327 . S
C1435 C1451 1.429 . S
C1435 H1457 0.950 . S
C1436 H1432 0.949 . S
C1436 C1444 1.574 . S
C1436 C1452 1.368 1_655 S
H1437 C1445 0.950 . S
H1438 C1443 0.950 . S
H1439 C1444 0.949 . S
H1440 C1446 0.950 . S
H1441 C1447 0.950 . S
H1442 C1448 0.949 . S
C1443 H1438 0.950 . S
C1443 C1445 1.327 . S
C1443 C1449 1.429 . S
C1444 C1436 1.574 . S
C1444 H1439 0.949 . S
C1444 C1450 1.368 1_655 S
C1445 C1429 1.349 . S
C1445 H1437 0.950 . S
C1445 C1443 1.327 . S
C1446 C1434 1.349 1_655 S
C1446 H1440 0.950 . S
C1446 C1447 1.327 . S
C1447 H1441 0.950 . S
C1447 C1446 1.327 . S
C1447 C1451 1.429 1_655 S
C1448 C1431 1.574 . S
C1448 H1442 0.949 . S
C1448 C1452 1.368 . S
C1449 C1430 1.429 1_455 S
C1449 C1443 1.429 . S
C1449 C1450 1.523 . S
C1450 C1431 1.368 . S
C1450 C1444 1.368 1_455 S
C1450 C1449 1.523 . S
C1451 C1435 1.429 . S
C1451 C1447 1.429 1_455 S
C1451 C1452 1.523 . S
C1452 C1436 1.368 1_455 S
C1452 C1448 1.368 . S
C1452 C1451 1.523 . S
H1453 C1428 0.950 . S
H1454 C1430 0.950 . S
H1455 C1431 0.949 . S
H1456 C1433 0.950 . S
H1457 C1435 0.950 . S
C1458 C1459 1.346 . S
C1458 C1460 1.327 . S
C1458 H1483 0.950 . S
C1459 C1458 1.346 . S
C1459 C1475 1.352 1_545 S
C1460 C1458 1.327 . S
C1460 C1479 1.430 . S
C1460 H1484 0.950 . S
C1461 C1478 1.574 . S
C1461 C1480 1.364 1_565 S
C1461 H1485 0.949 . S
H1462 C1466 0.949 . S
C1463 C1464 1.335 1_565 S
C1463 C1465 1.327 . S
C1463 H1486 0.950 . S
C1464 C1463 1.335 1_545 S
C1464 C1476 1.363 . S
C1465 C1463 1.327 . S
C1465 C1481 1.419 1_565 S
C1465 H1487 0.950 . S
C1466 H1462 0.949 . S
C1466 C1474 1.574 . S
C1466 C1482 1.376 . S
H1467 C1475 0.950 . S
H1468 C1473 0.950 . S
H1469 C1474 0.949 . S
H1470 C1476 0.950 . S
H1471 C1477 0.950 . S
H1472 C1478 0.949 . S
C1473 H1468 0.950 . S
C1473 C1475 1.327 . S
C1473 C1479 1.427 1_565 S
C1474 C1466 1.574 . S
C1474 H1469 0.949 . S
C1474 C1480 1.372 . S
C1475 C1459 1.352 1_565 S
C1475 H1467 0.950 . S
C1475 C1473 1.327 . S
C1476 C1464 1.363 . S
C1476 H1470 0.950 . S
C1476 C1477 1.327 . S
C1477 H1471 0.950 . S
C1477 C1476 1.327 . S
C1477 C1481 1.438 . S
C1478 C1461 1.574 . S
C1478 H1472 0.949 . S
C1478 C1482 1.360 1_565 S
C1479 C1460 1.430 . S
C1479 C1473 1.427 1_545 S
C1479 C1480 1.523 . S
C1480 C1461 1.364 1_545 S
C1480 C1474 1.372 . S
C1480 C1479 1.523 . S
C1481 C1465 1.419 1_545 S
C1481 C1477 1.438 . S
C1481 C1482 1.523 . S
C1482 C1466 1.376 . S
C1482 C1478 1.360 1_545 S
C1482 C1481 1.523 . S
H1483 C1458 0.950 . S
H1484 C1460 0.950 . S
H1485 C1461 0.949 . S
H1486 C1463 0.950 . S
H1487 C1465 0.950 . S
C1488 C1489 1.349 . S
C1488 C1490 1.327 . S
C1488 H1513 0.950 . S
C1489 C1488 1.349 . S
C1489 C1505 1.349 1_455 S
C1490 C1488 1.327 . S
C1490 C1509 1.429 . S
C1490 H1514 0.950 . S
C1491 C1508 1.574 . S
C1491 C1510 1.368 1_655 S
C1491 H1515 0.949 . S
H1492 C1496 0.949 . S
C1493 C1494 1.349 1_655 S
C1493 C1495 1.327 . S
C1493 H1516 0.950 . S
C1494 C1493 1.349 1_455 S
C1494 C1506 1.349 . S
C1495 C1493 1.327 . S
C1495 C1511 1.429 1_655 S
C1495 H1517 0.950 . S
C1496 H1492 0.949 . S
C1496 C1504 1.574 . S
C1496 C1512 1.368 . S
H1497 C1505 0.950 . S
H1498 C1503 0.950 . S
H1499 C1504 0.949 . S
H1500 C1506 0.950 . S
H1501 C1507 0.950 . S
H1502 C1508 0.949 . S
C1503 H1498 0.950 . S
C1503 C1505 1.327 . S
C1503 C1509 1.429 1_655 S
C1504 C1496 1.574 . S
C1504 H1499 0.949 . S
C1504 C1510 1.368 . S
C1505 C1489 1.349 1_655 S
C1505 H1497 0.950 . S
C1505 C1503 1.327 . S
C1506 C1494 1.349 . S
C1506 H1500 0.950 . S
C1506 C1507 1.327 . S
C1507 H1501 0.950 . S
C1507 C1506 1.327 . S
C1507 C1511 1.429 . S
C1508 C1491 1.574 . S
C1508 H1502 0.949 . S
C1508 C1512 1.368 1_655 S
C1509 C1490 1.429 . S
C1509 C1503 1.429 1_455 S
C1509 C1510 1.523 . S
C1510 C1491 1.368 1_455 S
C1510 C1504 1.368 . S
C1510 C1509 1.523 . S
C1511 C1495 1.429 1_455 S
C1511 C1507 1.429 . S
C1511 C1512 1.523 . S
C1512 C1496 1.368 . S
C1512 C1508 1.368 1_455 S
C1512 C1511 1.523 . S
H1513 C1488 0.950 . S
H1514 C1490 0.950 . S
H1515 C1491 0.949 . S
H1516 C1493 0.950 . S
H1517 C1495 0.950 . S
C1518 C1519 1.345 . S
C1518 C1520 1.327 . S
C1518 H1543 0.950 . S
C1519 C1518 1.345 . S
C1519 C1535 1.353 1_545 S
C1520 C1518 1.327 . S
C1520 C1539 1.430 . S
C1520 H1544 0.950 . S
C1521 C1538 1.574 . S
C1521 C1540 1.365 1_565 S
C1521 H1545 0.949 . S
H1522 C1526 0.949 . S
C1523 C1524 1.334 1_565 S
C1523 C1525 1.327 . S
C1523 H1546 0.950 . S
C1524 C1523 1.334 1_545 S
C1524 C1536 1.364 . S
C1525 C1523 1.327 . S
C1525 C1541 1.418 1_565 S
C1525 H1547 0.950 . S
C1526 H1522 0.949 . S
C1526 C1534 1.574 . S
C1526 C1542 1.377 . S
H1527 C1535 0.950 . S
H1528 C1533 0.950 . S
H1529 C1534 0.949 . S
H1530 C1536 0.950 . S
H1531 C1537 0.950 . S
H1532 C1538 0.949 . S
C1533 H1528 0.950 . S
C1533 C1535 1.327 . S
C1533 C1539 1.428 1_565 S
C1534 C1526 1.574 . S
C1534 H1529 0.949 . S
C1534 C1540 1.372 . S
C1535 C1519 1.353 1_565 S
C1535 H1527 0.950 . S
C1535 C1533 1.327 . S
C1536 C1524 1.364 . S
C1536 H1530 0.950 . S
C1536 C1537 1.327 . S
C1537 H1531 0.950 . S
C1537 C1536 1.327 . S
C1537 C1541 1.439 . S
C1538 C1521 1.574 . S
C1538 H1532 0.949 . S
C1538 C1542 1.360 1_565 S
C1539 C1520 1.430 . S
C1539 C1533 1.428 1_545 S
C1539 C1540 1.523 . S
C1540 C1521 1.365 1_545 S
C1540 C1534 1.372 . S
C1540 C1539 1.523 . S
C1541 C1525 1.418 1_545 S
C1541 C1537 1.439 . S
C1541 C1542 1.523 . S
C1542 C1526 1.377 . S
C1542 C1538 1.360 1_545 S
C1542 C1541 1.523 . S
H1543 C1518 0.950 . S
H1544 C1520 0.950 . S
H1545 C1521 0.949 . S
H1546 C1523 0.950 . S
H1547 C1525 0.950 . S
C1548 C1549 1.349 1_565 S
C1548 C1550 1.327 . S
C1548 H1573 0.950 . S
C1549 C1548 1.349 1_545 S
C1549 C1565 1.349 . S
C1550 C1548 1.327 . S
C1550 C1569 1.429 1_565 S
C1550 H1574 0.950 . S
C1551 C1568 1.574 . S
C1551 C1570 1.408 . S
C1551 H1575 0.949 . S
H1552 C1556 0.949 . S
C1553 C1554 1.379 . S
C1553 C1555 1.327 . S
C1553 H1576 0.950 . S
C1554 C1553 1.379 . S
C1554 C1566 1.320 1_545 S
C1555 C1553 1.327 . S
C1555 C1571 1.460 . S
C1555 H1577 0.950 . S
C1556 H1552 0.949 . S
C1556 C1564 1.574 . S
C1556 C1572 1.333 1_565 S
H1557 C1565 0.950 . S
H1558 C1563 0.950 . S
H1559 C1564 0.949 . S
H1560 C1566 0.950 . S
H1561 C1567 0.950 . S
H1562 C1568 0.949 . S
C1563 H1558 0.950 . S
C1563 C1565 1.327 . S
C1563 C1569 1.429 . S
C1564 C1556 1.574 . S
C1564 H1559 0.949 . S
C1564 C1570 1.330 1_565 S
C1565 C1549 1.349 . S
C1565 H1557 0.950 . S
C1565 C1563 1.327 . S
C1566 C1554 1.320 1_565 S
C1566 H1560 0.950 . S
C1566 C1567 1.327 . S
C1567 H1561 0.950 . S
C1567 C1566 1.327 . S
C1567 C1571 1.398 1_565 S
C1568 C1551 1.574 . S
C1568 H1562 0.949 . S
C1568 C1572 1.405 . S
C1569 C1550 1.429 1_545 S
C1569 C1563 1.429 . S
C1569 C1570 1.524 . S
C1570 C1551 1.408 . S
C1570 C1564 1.330 1_545 S
C1570 C1569 1.524 . S
C1571 C1555 1.460 . S
C1571 C1567 1.398 1_545 S
C1571 C1572 1.523 . S
C1572 C1556 1.333 1_545 S
C1572 C1568 1.405 . S
C1572 C1571 1.523 . S
H1573 C1548 0.950 . S
H1574 C1550 0.950 . S
H1575 C1551 0.949 . S
H1576 C1553 0.950 . S
H1577 C1555 0.950 . S
C1578 C1579 1.349 . S
C1578 C1580 1.327 . S
C1578 H1603 0.950 . S
C1579 C1578 1.349 . S
C1579 C1595 1.349 1_455 S
C1580 C1578 1.327 . S
C1580 C1599 1.429 . S
C1580 H1604 0.950 . S
C1581 C1598 1.574 . S
C1581 C1600 1.368 1_655 S
C1581 H1605 0.949 . S
H1582 C1586 0.949 . S
C1583 C1584 1.349 1_655 S
C1583 C1585 1.327 . S
C1583 H1606 0.950 . S
C1584 C1583 1.349 1_455 S
C1584 C1596 1.349 . S
C1585 C1583 1.327 . S
C1585 C1601 1.429 1_655 S
C1585 H1607 0.950 . S
C1586 H1582 0.949 . S
C1586 C1594 1.574 . S
C1586 C1602 1.368 . S
H1587 C1595 0.950 . S
H1588 C1593 0.950 . S
H1589 C1594 0.949 . S
H1590 C1596 0.950 . S
H1591 C1597 0.950 . S
H1592 C1598 0.949 . S
C1593 H1588 0.950 . S
C1593 C1595 1.327 . S
C1593 C1599 1.429 1_655 S
C1594 C1586 1.574 . S
C1594 H1589 0.949 . S
C1594 C1600 1.368 . S
C1595 C1579 1.349 1_655 S
C1595 H1587 0.950 . S
C1595 C1593 1.327 . S
C1596 C1584 1.349 . S
C1596 H1590 0.950 . S
C1596 C1597 1.327 . S
C1597 H1591 0.950 . S
C1597 C1596 1.327 . S
C1597 C1601 1.429 . S
C1598 C1581 1.574 . S
C1598 H1592 0.949 . S
C1598 C1602 1.368 1_655 S
C1599 C1580 1.429 . S
C1599 C1593 1.429 1_455 S
C1599 C1600 1.523 . S
C1600 C1581 1.368 1_455 S
C1600 C1594 1.368 . S
C1600 C1599 1.523 . S
C1601 C1585 1.429 1_455 S
C1601 C1597 1.429 . S
C1601 C1602 1.523 . S
C1602 C1586 1.368 . S
C1602 C1598 1.368 1_455 S
C1602 C1601 1.523 . S
H1603 C1578 0.950 . S
H1604 C1580 0.950 . S
H1605 C1581 0.949 . S
H1606 C1583 0.950 . S
H1607 C1585 0.950 . S
C1608 C1609 1.349 . S
C1608 C1610 1.327 . S
C1608 H1633 0.950 . S
C1609 C1608 1.349 . S
C1609 C1625 1.349 1_545 S
C1610 C1608 1.327 . S
C1610 C1629 1.429 . S
C1610 H1634 0.950 . S
C1611 C1628 1.574 . S
C1611 C1630 1.329 1_565 S
C1611 H1635 0.949 . S
H1612 C1616 0.949 . S
C1613 C1614 1.319 1_565 S
C1613 C1615 1.327 . S
C1613 H1636 0.950 . S
C1614 C1613 1.319 1_545 S
C1614 C1626 1.379 . S
C1615 C1613 1.327 . S
C1615 C1631 1.397 1_565 S
C1615 H1637 0.950 . S
C1616 H1612 0.949 . S
C1616 C1624 1.574 . S
C1616 C1632 1.405 . S
H1617 C1625 0.950 . S
H1618 C1623 0.950 . S
H1619 C1624 0.949 . S
H1620 C1626 0.950 . S
H1621 C1627 0.950 . S
H1622 C1628 0.949 . S
C1623 H1618 0.950 . S
C1623 C1625 1.327 . S
C1623 C1629 1.429 1_565 S
C1624 C1616 1.574 . S
C1624 H1619 0.949 . S
C1624 C1630 1.408 . S
C1625 C1609 1.349 1_565 S
C1625 H1617 0.950 . S
C1625 C1623 1.327 . S
C1626 C1614 1.379 . S
C1626 H1620 0.950 . S
C1626 C1627 1.327 . S
C1627 H1621 0.950 . S
C1627 C1626 1.327 . S
C1627 C1631 1.461 . S
C1628 C1611 1.574 . S
C1628 H1622 0.949 . S
C1628 C1632 1.332 1_565 S
C1629 C1610 1.429 . S
C1629 C1623 1.429 1_545 S
C1629 C1630 1.524 . S
C1630 C1611 1.329 1_545 S
C1630 C1624 1.408 . S
C1630 C1629 1.524 . S
C1631 C1615 1.397 1_545 S
C1631 C1627 1.461 . S
C1631 C1632 1.523 . S
C1632 C1616 1.405 . S
C1632 C1628 1.332 1_545 S
C1632 C1631 1.523 . S
H1633 C1608 0.950 . S
H1634 C1610 0.950 . S
H1635 C1611 0.949 . S
H1636 C1613 0.950 . S
H1637 C1615 0.950 . S
C1638 C1639 1.349 1_655 S
C1638 C1640 1.327 . S
C1638 H1663 0.950 . S
C1639 C1638 1.349 1_455 S
C1639 C1655 1.349 . S
C1640 C1638 1.327 . S
C1640 C1659 1.429 1_655 S
C1640 H1664 0.950 . S
C1641 C1658 1.574 . S
C1641 C1660 1.368 . S
C1641 H1665 0.949 . S
H1642 C1646 0.949 . S
C1643 C1644 1.349 . S
C1643 C1645 1.327 . S
C1643 H1666 0.950 . S
C1644 C1643 1.349 . S
C1644 C1656 1.349 1_455 S
C1645 C1643 1.327 . S
C1645 C1661 1.429 . S
C1645 H1667 0.950 . S
C1646 H1642 0.949 . S
C1646 C1654 1.574 . S
C1646 C1662 1.368 1_655 S
H1647 C1655 0.950 . S
H1648 C1653 0.950 . S
H1649 C1654 0.949 . S
H1650 C1656 0.950 . S
H1651 C1657 0.950 . S
H1652 C1658 0.949 . S
C1653 H1648 0.950 . S
C1653 C1655 1.327 . S
C1653 C1659 1.429 . S
C1654 C1646 1.574 . S
C1654 H1649 0.949 . S
C1654 C1660 1.368 1_655 S
C1655 C1639 1.349 . S
C1655 H1647 0.950 . S
C1655 C1653 1.327 . S
C1656 C1644 1.349 1_655 S
C1656 H1650 0.950 . S
C1656 C1657 1.327 . S
C1657 H1651 0.950 . S
C1657 C1656 1.327 . S
C1657 C1661 1.429 1_655 S
C1658 C1641 1.574 . S
C1658 H1652 0.949 . S
C1658 C1662 1.368 . S
C1659 C1640 1.429 1_455 S
C1659 C1653 1.429 . S
C1659 C1660 1.523 . S
C1660 C1641 1.368 . S
C1660 C1654 1.368 1_455 S
C1660 C1659 1.523 . S
C1661 C1645 1.429 . S
C1661 C1657 1.429 1_455 S
C1661 C1662 1.523 . S
C1662 C1646 1.368 1_455 S
C1662 C1658 1.368 . S
C1662 C1661 1.523 . S
H1663 C1638 0.950 . S
H1664 C1640 0.950 . S
H1665 C1641 0.949 . S
H1666 C1643 0.950 . S
H1667 C1645 0.950 . S
C1668 C1669 1.348 1_565 S
C1668 C1670 1.327 . S
C1668 H1693 0.950 . S
C1669 C1668 1.348 1_545 S
C1669 C1685 1.349 . S
C1670 C1668 1.327 . S
C1670 C1689 1.425 1_565 S
C1670 H1694 0.950 . S
C1671 C1688 1.574 . S
C1671 C1690 1.374 . S
C1671 H1695 0.949 . S
H1672 C1676 0.949 . S
C1673 C1674 1.362 . S
C1673 C1675 1.327 . S
C1673 H1696 0.950 . S
C1674 C1673 1.362 . S
C1674 C1686 1.336 1_545 S
C1675 C1673 1.327 . S
C1675 C1691 1.438 . S
C1675 H1697 0.950 . S
C1676 H1672 0.949 . S
C1676 C1684 1.574 . S
C1676 C1692 1.360 1_565 S
H1677 C1685 0.950 . S
H1678 C1683 0.950 . S
H1679 C1684 0.949 . S
H1680 C1686 0.950 . S
H1681 C1687 0.950 . S
H1682 C1688 0.949 . S
C1683 H1678 0.950 . S
C1683 C1685 1.327 . S
C1683 C1689 1.432 . S
C1684 C1676 1.574 . S
C1684 H1679 0.949 . S
C1684 C1690 1.363 1_565 S
C1685 C1669 1.349 . S
C1685 H1677 0.950 . S
C1685 C1683 1.327 . S
C1686 C1674 1.336 1_565 S
C1686 H1680 0.950 . S
C1686 C1687 1.327 . S
C1687 H1681 0.950 . S
C1687 C1686 1.327 . S
C1687 C1691 1.419 1_565 S
C1688 C1671 1.574 . S
C1688 H1682 0.949 . S
C1688 C1692 1.377 . S
C1689 C1670 1.425 1_545 S
C1689 C1683 1.432 . S
C1689 C1690 1.523 . S
C1690 C1671 1.374 . S
C1690 C1684 1.363 1_545 S
C1690 C1689 1.523 . S
C1691 C1675 1.438 . S
C1691 C1687 1.419 1_545 S
C1691 C1692 1.523 . S
C1692 C1676 1.360 1_545 S
C1692 C1688 1.377 . S
C1692 C1691 1.523 . S
H1693 C1668 0.950 . S
H1694 C1670 0.950 . S
H1695 C1671 0.949 . S
H1696 C1673 0.950 . S
H1697 C1675 0.950 . S
C1698 C1699 1.349 1_655 S
C1698 C1700 1.327 . S
C1698 H1723 0.950 . S
C1699 C1698 1.349 1_455 S
C1699 C1715 1.349 . S
C1700 C1698 1.327 . S
C1700 C1719 1.429 1_655 S
C1700 H1724 0.950 . S
C1701 C1718 1.574 . S
C1701 C1720 1.368 . S
C1701 H1725 0.949 . S
H1702 C1706 0.949 . S
C1703 C1704 1.349 . S
C1703 C1705 1.327 . S
C1703 H1726 0.950 . S
C1704 C1703 1.349 . S
C1704 C1716 1.349 1_455 S
C1705 C1703 1.327 . S
C1705 C1721 1.429 . S
C1705 H1727 0.950 . S
C1706 H1702 0.949 . S
C1706 C1714 1.574 . S
C1706 C1722 1.368 1_655 S
H1707 C1715 0.950 . S
H1708 C1713 0.950 . S
H1709 C1714 0.949 . S
H1710 C1716 0.950 . S
H1711 C1717 0.950 . S
H1712 C1718 0.949 . S
C1713 H1708 0.950 . S
C1713 C1715 1.327 . S
C1713 C1719 1.429 . S
C1714 C1706 1.574 . S
C1714 H1709 0.949 . S
C1714 C1720 1.368 1_655 S
C1715 C1699 1.349 . S
C1715 H1707 0.950 . S
C1715 C1713 1.327 . S
C1716 C1704 1.349 1_655 S
C1716 H1710 0.950 . S
C1716 C1717 1.327 . S
C1717 H1711 0.950 . S
C1717 C1716 1.327 . S
C1717 C1721 1.429 1_655 S
C1718 C1701 1.574 . S
C1718 H1712 0.949 . S
C1718 C1722 1.368 . S
C1719 C1700 1.429 1_455 S
C1719 C1713 1.429 . S
C1719 C1720 1.523 . S
C1720 C1701 1.368 . S
C1720 C1714 1.368 1_455 S
C1720 C1719 1.523 . S
C1721 C1705 1.429 . S
C1721 C1717 1.429 1_455 S
C1721 C1722 1.523 . S
C1722 C1706 1.368 1_455 S
C1722 C1718 1.368 . S
C1722 C1721 1.523 . S
H1723 C1698 0.950 . S
H1724 C1700 0.950 . S
H1725 C1701 0.949 . S
H1726 C1703 0.950 . S
H1727 C1705 0.950 . S
C1728 C1729 1.352 1_565 S
C1728 C1730 1.327 . S
C1728 H1753 0.950 . S
C1729 C1728 1.352 1_545 S
C1729 C1745 1.346 . S
C1730 C1728 1.327 . S
C1730 C1749 1.429 1_565 S
C1730 H1754 0.950 . S
C1731 C1748 1.574 . S
C1731 C1750 1.369 . S
C1731 H1755 0.949 . S
H1732 C1736 0.949 . S
C1733 C1734 1.357 . S
C1733 C1735 1.327 . S
C1733 H1756 0.950 . S
C1734 C1733 1.357 . S
C1734 C1746 1.341 1_545 S
C1735 C1733 1.327 . S
C1735 C1751 1.434 . S
C1735 H1757 0.950 . S
C1736 H1732 0.949 . S
C1736 C1744 1.574 . S
C1736 C1752 1.364 1_565 S
H1737 C1745 0.950 . S
H1738 C1743 0.950 . S
H1739 C1744 0.949 . S
H1740 C1746 0.950 . S
H1741 C1747 0.950 . S
H1742 C1748 0.949 . S
C1743 H1738 0.950 . S
C1743 C1745 1.327 . S
C1743 C1749 1.428 . S
C1744 C1736 1.574 . S
C1744 H1739 0.949 . S
C1744 C1750 1.367 1_565 S
C1745 C1729 1.346 . S
C1745 H1737 0.950 . S
C1745 C1743 1.327 . S
C1746 C1734 1.341 1_565 S
C1746 H1740 0.950 . S
C1746 C1747 1.327 . S
C1747 H1741 0.950 . S
C1747 C1746 1.327 . S
C1747 C1751 1.424 1_565 S
C1748 C1731 1.574 . S
C1748 H1742 0.949 . S
C1748 C1752 1.372 . S
C1749 C1730 1.429 1_545 S
C1749 C1743 1.428 . S
C1749 C1750 1.523 . S
C1750 C1731 1.369 . S
C1750 C1744 1.367 1_545 S
C1750 C1749 1.523 . S
C1751 C1735 1.434 . S
C1751 C1747 1.424 1_545 S
C1751 C1752 1.523 . S
C1752 C1736 1.364 1_545 S
C1752 C1748 1.372 . S
C1752 C1751 1.523 . S
H1753 C1728 0.950 . S
H1754 C1730 0.950 . S
H1755 C1731 0.949 . S
H1756 C1733 0.950 . S
H1757 C1735 0.950 . S
C1758 C1759 1.349 . S
C1758 C1760 1.327 . S
C1758 H1783 0.950 . S
C1759 C1758 1.349 . S
C1759 C1775 1.349 . S
C1760 C1758 1.327 . S
C1760 C1779 1.429 . S
C1760 H1784 0.950 . S
C1761 C1778 1.574 . S
C1761 C1780 1.368 . S
C1761 H1785 0.949 . S
H1762 C1766 0.949 . S
C1763 C1764 1.349 . S
C1763 C1765 1.327 . S
C1763 H1786 0.950 . S
C1764 C1763 1.349 . S
C1764 C1776 1.349 . S
C1765 C1763 1.327 . S
C1765 C1781 1.429 . S
C1765 H1787 0.950 . S
C1766 H1762 0.949 . S
C1766 C1774 1.574 . S
C1766 C1782 1.368 . S
H1767 C1775 0.950 . S
H1768 C1773 0.950 . S
H1769 C1774 0.949 . S
H1770 C1776 0.950 . S
H1771 C1777 0.950 . S
H1772 C1778 0.949 . S
C1773 H1768 0.950 . S
C1773 C1775 1.327 . S
C1773 C1779 1.429 . S
C1774 C1766 1.574 . S
C1774 H1769 0.949 . S
C1774 C1780 1.368 . S
C1775 C1759 1.349 . S
C1775 H1767 0.950 . S
C1775 C1773 1.327 . S
C1776 C1764 1.349 . S
C1776 H1770 0.950 . S
C1776 C1777 1.327 . S
C1777 H1771 0.950 . S
C1777 C1776 1.327 . S
C1777 C1781 1.429 . S
C1778 C1761 1.574 . S
C1778 H1772 0.949 . S
C1778 C1782 1.368 . S
C1779 C1760 1.429 . S
C1779 C1773 1.429 . S
C1779 C1780 1.523 . S
C1780 C1761 1.368 . S
C1780 C1774 1.368 . S
C1780 C1779 1.523 . S
C1781 C1765 1.429 . S
C1781 C1777 1.429 . S
C1781 C1782 1.523 . S
C1782 C1766 1.368 . S
C1782 C1778 1.368 . S
C1782 C1781 1.523 . S
H1783 C1758 0.950 . S
H1784 C1760 0.950 . S
H1785 C1761 0.949 . S
H1786 C1763 0.950 . S
H1787 C1765 0.950 . S
C1788 C1789 1.349 1_556 S
C1788 C1790 1.327 . S
C1788 H1813 0.950 . S
C1789 C1788 1.349 1_554 S
C1789 C1805 1.349 . S
C1790 C1788 1.327 . S
C1790 C1809 1.429 1_556 S
C1790 H1814 0.950 . S
C1791 C1808 1.574 . S
C1791 C1810 1.368 . S
C1791 H1815 0.949 . S
H1792 C1796 0.949 . S
C1793 C1794 1.349 . S
C1793 C1795 1.327 . S
C1793 H1816 0.950 . S
C1794 C1793 1.349 . S
C1794 C1806 1.349 1_554 S
C1795 C1793 1.327 . S
C1795 C1811 1.429 . S
C1795 H1817 0.950 . S
C1796 H1792 0.949 . S
C1796 C1804 1.574 . S
C1796 C1812 1.368 1_556 S
H1797 C1805 0.950 . S
H1798 C1803 0.950 . S
H1799 C1804 0.949 . S
H1800 C1806 0.950 . S
H1801 C1807 0.950 . S
H1802 C1808 0.949 . S
C1803 H1798 0.950 . S
C1803 C1805 1.327 . S
C1803 C1809 1.429 . S
C1804 C1796 1.574 . S
C1804 H1799 0.949 . S
C1804 C1810 1.368 1_556 S
C1805 C1789 1.349 . S
C1805 H1797 0.950 . S
C1805 C1803 1.327 . S
C1806 C1794 1.349 1_556 S
C1806 H1800 0.950 . S
C1806 C1807 1.327 . S
C1807 H1801 0.950 . S
C1807 C1806 1.327 . S
C1807 C1811 1.429 1_556 S
C1808 C1791 1.574 . S
C1808 H1802 0.949 . S
C1808 C1812 1.368 . S
C1809 C1790 1.429 1_554 S
C1809 C1803 1.429 . S
C1809 C1810 1.523 . S
C1810 C1791 1.368 . S
C1810 C1804 1.368 1_554 S
C1810 C1809 1.523 . S
C1811 C1795 1.429 . S
C1811 C1807 1.429 1_554 S
C1811 C1812 1.523 . S
C1812 C1796 1.368 1_554 S
C1812 C1808 1.368 . S
C1812 C1811 1.523 . S
H1813 C1788 0.950 . S
H1814 C1790 0.950 . S
H1815 C1791 0.949 . S
H1816 C1793 0.950 . S
H1817 C1795 0.950 . S
C1818 C1819 1.349 1_556 S
C1818 C1820 1.327 . S
C1818 H1843 0.950 . S
C1819 C1818 1.349 1_554 S
C1819 C1835 1.349 . S
C1820 C1818 1.327 . S
C1820 C1839 1.429 1_556 S
C1820 H1844 0.950 . S
C1821 C1838 1.574 . S
C1821 C1840 1.368 . S
C1821 H1845 0.949 . S
H1822 C1826 0.949 . S
C1823 C1824 1.349 . S
C1823 C1825 1.327 . S
C1823 H1846 0.950 . S
C1824 C1823 1.349 . S
C1824 C1836 1.349 1_554 S
C1825 C1823 1.327 . S
C1825 C1841 1.429 . S
C1825 H1847 0.950 . S
C1826 H1822 0.949 . S
C1826 C1834 1.574 . S
C1826 C1842 1.368 1_556 S
H1827 C1835 0.950 . S
H1828 C1833 0.950 . S
H1829 C1834 0.949 . S
H1830 C1836 0.950 . S
H1831 C1837 0.950 . S
H1832 C1838 0.949 . S
C1833 H1828 0.950 . S
C1833 C1835 1.327 . S
C1833 C1839 1.429 . S
C1834 C1826 1.574 . S
C1834 H1829 0.949 . S
C1834 C1840 1.368 1_556 S
C1835 C1819 1.349 . S
C1835 H1827 0.950 . S
C1835 C1833 1.327 . S
C1836 C1824 1.349 1_556 S
C1836 H1830 0.950 . S
C1836 C1837 1.327 . S
C1837 H1831 0.950 . S
C1837 C1836 1.327 . S
C1837 C1841 1.429 1_556 S
C1838 C1821 1.574 . S
C1838 H1832 0.949 . S
C1838 C1842 1.368 . S
C1839 C1820 1.429 1_554 S
C1839 C1833 1.429 . S
C1839 C1840 1.523 . S
C1840 C1821 1.368 . S
C1840 C1834 1.368 1_554 S
C1840 C1839 1.523 . S
C1841 C1825 1.429 . S
C1841 C1837 1.429 1_554 S
C1841 C1842 1.523 . S
C1842 C1826 1.368 1_554 S
C1842 C1838 1.368 . S
C1842 C1841 1.523 . S
H1843 C1818 0.950 . S
H1844 C1820 0.950 . S
H1845 C1821 0.949 . S
H1846 C1823 0.950 . S
H1847 C1825 0.950 . S
C1848 C1849 1.349 1_556 S
C1848 C1850 1.327 . S
C1848 H1873 0.950 . S
C1849 C1848 1.349 1_554 S
C1849 C1865 1.349 . S
C1850 C1848 1.327 . S
C1850 C1869 1.429 1_556 S
C1850 H1874 0.950 . S
C1851 C1868 1.574 . S
C1851 C1870 1.368 . S
C1851 H1875 0.949 . S
H1852 C1856 0.949 . S
C1853 C1854 1.349 . S
C1853 C1855 1.327 . S
C1853 H1876 0.950 . S
C1854 C1853 1.349 . S
C1854 C1866 1.349 1_554 S
C1855 C1853 1.327 . S
C1855 C1871 1.429 . S
C1855 H1877 0.950 . S
C1856 H1852 0.949 . S
C1856 C1864 1.574 . S
C1856 C1872 1.368 1_556 S
H1857 C1865 0.950 . S
H1858 C1863 0.950 . S
H1859 C1864 0.949 . S
H1860 C1866 0.950 . S
H1861 C1867 0.950 . S
H1862 C1868 0.949 . S
C1863 H1858 0.950 . S
C1863 C1865 1.327 . S
C1863 C1869 1.429 . S
C1864 C1856 1.574 . S
C1864 H1859 0.949 . S
C1864 C1870 1.368 1_556 S
C1865 C1849 1.349 . S
C1865 H1857 0.950 . S
C1865 C1863 1.327 . S
C1866 C1854 1.349 1_556 S
C1866 H1860 0.950 . S
C1866 C1867 1.327 . S
C1867 H1861 0.950 . S
C1867 C1866 1.327 . S
C1867 C1871 1.429 1_556 S
C1868 C1851 1.574 . S
C1868 H1862 0.949 . S
C1868 C1872 1.368 . S
C1869 C1850 1.429 1_554 S
C1869 C1863 1.429 . S
C1869 C1870 1.523 . S
C1870 C1851 1.368 . S
C1870 C1864 1.368 1_554 S
C1870 C1869 1.523 . S
C1871 C1855 1.429 . S
C1871 C1867 1.429 1_554 S
C1871 C1872 1.523 . S
C1872 C1856 1.368 1_554 S
C1872 C1868 1.368 . S
C1872 C1871 1.523 . S
H1873 C1848 0.950 . S
H1874 C1850 0.950 . S
H1875 C1851 0.949 . S
H1876 C1853 0.950 . S
H1877 C1855 0.950 . S
C1878 C1879 1.349 . S
C1878 C1880 1.327 . S
C1878 H1903 0.950 . S
C1879 C1878 1.349 . S
C1879 C1895 1.349 1_554 S
C1880 C1878 1.327 . S
C1880 C1899 1.429 . S
C1880 H1904 0.950 . S
C1881 C1898 1.574 . S
C1881 C1900 1.368 1_556 S
C1881 H1905 0.949 . S
H1882 C1886 0.949 . S
C1883 C1884 1.349 1_556 S
C1883 C1885 1.327 . S
C1883 H1906 0.950 . S
C1884 C1883 1.349 1_554 S
C1884 C1896 1.349 . S
C1885 C1883 1.327 . S
C1885 C1901 1.429 1_556 S
C1885 H1907 0.950 . S
C1886 H1882 0.949 . S
C1886 C1894 1.574 . S
C1886 C1902 1.368 . S
H1887 C1895 0.950 . S
H1888 C1893 0.950 . S
H1889 C1894 0.949 . S
H1890 C1896 0.950 . S
H1891 C1897 0.950 . S
H1892 C1898 0.949 . S
C1893 H1888 0.950 . S
C1893 C1895 1.327 . S
C1893 C1899 1.429 1_556 S
C1894 C1886 1.574 . S
C1894 H1889 0.949 . S
C1894 C1900 1.368 . S
C1895 C1879 1.349 1_556 S
C1895 H1887 0.950 . S
C1895 C1893 1.327 . S
C1896 C1884 1.349 . S
C1896 H1890 0.950 . S
C1896 C1897 1.327 . S
C1897 H1891 0.950 . S
C1897 C1896 1.327 . S
C1897 C1901 1.429 . S
C1898 C1881 1.574 . S
C1898 H1892 0.949 . S
C1898 C1902 1.368 1_556 S
C1899 C1880 1.429 . S
C1899 C1893 1.429 1_554 S
C1899 C1900 1.523 . S
C1900 C1881 1.368 1_554 S
C1900 C1894 1.368 . S
C1900 C1899 1.523 . S
C1901 C1885 1.429 1_554 S
C1901 C1897 1.429 . S
C1901 C1902 1.523 . S
C1902 C1886 1.368 . S
C1902 C1898 1.368 1_554 S
C1902 C1901 1.523 . S
H1903 C1878 0.950 . S
H1904 C1880 0.950 . S
H1905 C1881 0.949 . S
H1906 C1883 0.950 . S
H1907 C1885 0.950 . S
C1908 C1909 1.349 . S
C1908 C1910 1.327 . S
C1908 H1933 0.950 . S
C1909 C1908 1.349 . S
C1909 C1925 1.349 1_554 S
C1910 C1908 1.327 . S
C1910 C1929 1.429 . S
C1910 H1934 0.950 . S
C1911 C1928 1.574 . S
C1911 C1930 1.368 1_556 S
C1911 H1935 0.949 . S
H1912 C1916 0.949 . S
C1913 C1914 1.349 1_556 S
C1913 C1915 1.327 . S
C1913 H1936 0.950 . S
C1914 C1913 1.349 1_554 S
C1914 C1926 1.349 . S
C1915 C1913 1.327 . S
C1915 C1931 1.429 1_556 S
C1915 H1937 0.950 . S
C1916 H1912 0.949 . S
C1916 C1924 1.574 . S
C1916 C1932 1.368 . S
H1917 C1925 0.950 . S
H1918 C1923 0.950 . S
H1919 C1924 0.949 . S
H1920 C1926 0.950 . S
H1921 C1927 0.950 . S
H1922 C1928 0.949 . S
C1923 H1918 0.950 . S
C1923 C1925 1.327 . S
C1923 C1929 1.429 1_556 S
C1924 C1916 1.574 . S
C1924 H1919 0.949 . S
C1924 C1930 1.368 . S
C1925 C1909 1.349 1_556 S
C1925 H1917 0.950 . S
C1925 C1923 1.327 . S
C1926 C1914 1.349 . S
C1926 H1920 0.950 . S
C1926 C1927 1.327 . S
C1927 H1921 0.950 . S
C1927 C1926 1.327 . S
C1927 C1931 1.429 . S
C1928 C1911 1.574 . S
C1928 H1922 0.949 . S
C1928 C1932 1.368 1_556 S
C1929 C1910 1.429 . S
C1929 C1923 1.429 1_554 S
C1929 C1930 1.523 . S
C1930 C1911 1.368 1_554 S
C1930 C1924 1.368 . S
C1930 C1929 1.523 . S
C1931 C1915 1.429 1_554 S
C1931 C1927 1.429 . S
C1931 C1932 1.523 . S
C1932 C1916 1.368 . S
C1932 C1928 1.368 1_554 S
C1932 C1931 1.523 . S
H1933 C1908 0.950 . S
H1934 C1910 0.950 . S
H1935 C1911 0.949 . S
H1936 C1913 0.950 . S
H1937 C1915 0.950 . S
C1938 C1939 1.349 . S
C1938 C1940 1.327 . S
C1938 H1963 0.950 . S
C1939 C1938 1.349 . S
C1939 C1955 1.349 1_554 S
C1940 C1938 1.327 . S
C1940 C1959 1.429 . S
C1940 H1964 0.950 . S
C1941 C1958 1.574 . S
C1941 C1960 1.368 1_556 S
C1941 H1965 0.949 . S
H1942 C1946 0.949 . S
C1943 C1944 1.349 1_556 S
C1943 C1945 1.327 . S
C1943 H1966 0.950 . S
C1944 C1943 1.349 1_554 S
C1944 C1956 1.349 . S
C1945 C1943 1.327 . S
C1945 C1961 1.429 1_556 S
C1945 H1967 0.950 . S
C1946 H1942 0.949 . S
C1946 C1954 1.574 . S
C1946 C1962 1.368 . S
H1947 C1955 0.950 . S
H1948 C1953 0.950 . S
H1949 C1954 0.949 . S
H1950 C1956 0.950 . S
H1951 C1957 0.950 . S
H1952 C1958 0.949 . S
C1953 H1948 0.950 . S
C1953 C1955 1.327 . S
C1953 C1959 1.429 1_556 S
C1954 C1946 1.574 . S
C1954 H1949 0.949 . S
C1954 C1960 1.368 . S
C1955 C1939 1.349 1_556 S
C1955 H1947 0.950 . S
C1955 C1953 1.327 . S
C1956 C1944 1.349 . S
C1956 H1950 0.950 . S
C1956 C1957 1.327 . S
C1957 H1951 0.950 . S
C1957 C1956 1.327 . S
C1957 C1961 1.429 . S
C1958 C1941 1.574 . S
C1958 H1952 0.949 . S
C1958 C1962 1.368 1_556 S
C1959 C1940 1.429 . S
C1959 C1953 1.429 1_554 S
C1959 C1960 1.523 . S
C1960 C1941 1.368 1_554 S
C1960 C1954 1.368 . S
C1960 C1959 1.523 . S
C1961 C1945 1.429 1_554 S
C1961 C1957 1.429 . S
C1961 C1962 1.523 . S
C1962 C1946 1.368 . S
C1962 C1958 1.368 1_554 S
C1962 C1961 1.523 . S
H1963 C1938 0.950 . S
H1964 C1940 0.950 . S
H1965 C1941 0.949 . S
H1966 C1943 0.950 . S
H1967 C1945 0.950 . S
C1968 C1969 1.349 1_556 S
C1968 C1970 1.327 . S
C1968 H1993 0.950 . S
C1969 C1968 1.349 1_554 S
C1969 C1985 1.349 . S
C1970 C1968 1.327 . S
C1970 C1989 1.429 1_556 S
C1970 H1994 0.950 . S
C1971 C1988 1.574 . S
C1971 C1990 1.368 . S
C1971 H1995 0.949 . S
H1972 C1976 0.949 . S
C1973 C1974 1.349 . S
C1973 C1975 1.327 . S
C1973 H1996 0.950 . S
C1974 C1973 1.349 . S
C1974 C1986 1.349 1_554 S
C1975 C1973 1.327 . S
C1975 C1991 1.429 . S
C1975 H1997 0.950 . S
C1976 H1972 0.949 . S
C1976 C1984 1.574 . S
C1976 C1992 1.368 1_556 S
H1977 C1985 0.950 . S
H1978 C1983 0.950 . S
H1979 C1984 0.949 . S
H1980 C1986 0.950 . S
H1981 C1987 0.950 . S
H1982 C1988 0.949 . S
C1983 H1978 0.950 . S
C1983 C1985 1.327 . S
C1983 C1989 1.429 . S
C1984 C1976 1.574 . S
C1984 H1979 0.949 . S
C1984 C1990 1.368 1_556 S
C1985 C1969 1.349 . S
C1985 H1977 0.950 . S
C1985 C1983 1.327 . S
C1986 C1974 1.349 1_556 S
C1986 H1980 0.950 . S
C1986 C1987 1.327 . S
C1987 H1981 0.950 . S
C1987 C1986 1.327 . S
C1987 C1991 1.429 1_556 S
C1988 C1971 1.574 . S
C1988 H1982 0.949 . S
C1988 C1992 1.368 . S
C1989 C1970 1.429 1_554 S
C1989 C1983 1.429 . S
C1989 C1990 1.523 . S
C1990 C1971 1.368 . S
C1990 C1984 1.368 1_554 S
C1990 C1989 1.523 . S
C1991 C1975 1.429 . S
C1991 C1987 1.429 1_554 S
C1991 C1992 1.523 . S
C1992 C1976 1.368 1_554 S
C1992 C1988 1.368 . S
C1992 C1991 1.523 . S
H1993 C1968 0.950 . S
H1994 C1970 0.950 . S
H1995 C1971 0.949 . S
H1996 C1973 0.950 . S
H1997 C1975 0.950 . S
C1998 C1999 1.349 1_556 S
C1998 C2000 1.327 . S
C1998 H2023 0.950 . S
C1999 C1998 1.349 1_554 S
C1999 C2015 1.349 . S
C2000 C1998 1.327 . S
C2000 C2019 1.429 1_556 S
C2000 H2024 0.950 . S
C2001 C2018 1.574 . S
C2001 C2020 1.368 . S
C2001 H2025 0.949 . S
H2002 C2006 0.949 . S
C2003 C2004 1.349 . S
C2003 C2005 1.327 . S
C2003 H2026 0.950 . S
C2004 C2003 1.349 . S
C2004 C2016 1.349 1_554 S
C2005 C2003 1.327 . S
C2005 C2021 1.429 . S
C2005 H2027 0.950 . S
C2006 H2002 0.949 . S
C2006 C2014 1.574 . S
C2006 C2022 1.368 1_556 S
H2007 C2015 0.950 . S
H2008 C2013 0.950 . S
H2009 C2014 0.949 . S
H2010 C2016 0.950 . S
H2011 C2017 0.950 . S
H2012 C2018 0.949 . S
C2013 H2008 0.950 . S
C2013 C2015 1.327 . S
C2013 C2019 1.429 . S
C2014 C2006 1.574 . S
C2014 H2009 0.949 . S
C2014 C2020 1.368 1_556 S
C2015 C1999 1.349 . S
C2015 H2007 0.950 . S
C2015 C2013 1.327 . S
C2016 C2004 1.349 1_556 S
C2016 H2010 0.950 . S
C2016 C2017 1.327 . S
C2017 H2011 0.950 . S
C2017 C2016 1.327 . S
C2017 C2021 1.429 1_556 S
C2018 C2001 1.574 . S
C2018 H2012 0.949 . S
C2018 C2022 1.368 . S
C2019 C2000 1.429 1_554 S
C2019 C2013 1.429 . S
C2019 C2020 1.523 . S
C2020 C2001 1.368 . S
C2020 C2014 1.368 1_554 S
C2020 C2019 1.523 . S
C2021 C2005 1.429 . S
C2021 C2017 1.429 1_554 S
C2021 C2022 1.523 . S
C2022 C2006 1.368 1_554 S
C2022 C2018 1.368 . S
C2022 C2021 1.523 . S
H2023 C1998 0.950 . S
H2024 C2000 0.950 . S
H2025 C2001 0.949 . S
H2026 C2003 0.950 . S
H2027 C2005 0.950 . S
C2028 C2029 1.349 . S
C2028 C2030 1.327 . S
C2028 H2053 0.950 . S
C2029 C2028 1.349 . S
C2029 C2045 1.349 . S
C2030 C2028 1.327 . S
C2030 C2049 1.429 . S
C2030 H2054 0.950 . S
C2031 C2048 1.574 . S
C2031 C2050 1.368 . S
C2031 H2055 0.949 . S
H2032 C2036 0.949 . S
C2033 C2034 1.349 . S
C2033 C2035 1.327 . S
C2033 H2056 0.950 . S
C2034 C2033 1.349 . S
C2034 C2046 1.349 . S
C2035 C2033 1.327 . S
C2035 C2051 1.429 . S
C2035 H2057 0.950 . S
C2036 H2032 0.949 . S
C2036 C2044 1.574 . S
C2036 C2052 1.368 . S
H2037 C2045 0.950 . S
H2038 C2043 0.950 . S
H2039 C2044 0.949 . S
H2040 C2046 0.950 . S
H2041 C2047 0.950 . S
H2042 C2048 0.949 . S
C2043 H2038 0.950 . S
C2043 C2045 1.327 . S
C2043 C2049 1.429 . S
C2044 C2036 1.574 . S
C2044 H2039 0.949 . S
C2044 C2050 1.368 . S
C2045 C2029 1.349 . S
C2045 H2037 0.950 . S
C2045 C2043 1.327 . S
C2046 C2034 1.349 . S
C2046 H2040 0.950 . S
C2046 C2047 1.327 . S
C2047 H2041 0.950 . S
C2047 C2046 1.327 . S
C2047 C2051 1.429 . S
C2048 C2031 1.574 . S
C2048 H2042 0.949 . S
C2048 C2052 1.368 . S
C2049 C2030 1.429 . S
C2049 C2043 1.429 . S
C2049 C2050 1.523 . S
C2050 C2031 1.368 . S
C2050 C2044 1.368 . S
C2050 C2049 1.523 . S
C2051 C2035 1.429 . S
C2051 C2047 1.429 . S
C2051 C2052 1.523 . S
C2052 C2036 1.368 . S
C2052 C2048 1.368 . S
C2052 C2051 1.523 . S
H2053 C2028 0.950 . S
H2054 C2030 0.950 . S
H2055 C2031 0.949 . S
H2056 C2033 0.950 . S
H2057 C2035 0.950 . S
C2058 C2059 1.349 . S
C2058 C2060 1.327 . S
C2058 H2083 0.950 . S
C2059 C2058 1.349 . S
C2059 C2075 1.349 . S
C2060 C2058 1.327 . S
C2060 C2079 1.429 . S
C2060 H2084 0.950 . S
C2061 C2078 1.574 . S
C2061 C2080 1.368 . S
C2061 H2085 0.949 . S
H2062 C2066 0.949 . S
C2063 C2064 1.349 . S
C2063 C2065 1.327 . S
C2063 H2086 0.950 . S
C2064 C2063 1.349 . S
C2064 C2076 1.349 . S
C2065 C2063 1.327 . S
C2065 C2081 1.429 . S
C2065 H2087 0.950 . S
C2066 H2062 0.949 . S
C2066 C2074 1.574 . S
C2066 C2082 1.368 . S
H2067 C2075 0.950 . S
H2068 C2073 0.950 . S
H2069 C2074 0.949 . S
H2070 C2076 0.950 . S
H2071 C2077 0.950 . S
H2072 C2078 0.949 . S
C2073 H2068 0.950 . S
C2073 C2075 1.327 . S
C2073 C2079 1.429 . S
C2074 C2066 1.574 . S
C2074 H2069 0.949 . S
C2074 C2080 1.368 . S
C2075 C2059 1.349 . S
C2075 H2067 0.950 . S
C2075 C2073 1.327 . S
C2076 C2064 1.349 . S
C2076 H2070 0.950 . S
C2076 C2077 1.327 . S
C2077 H2071 0.950 . S
C2077 C2076 1.327 . S
C2077 C2081 1.429 . S
C2078 C2061 1.574 . S
C2078 H2072 0.949 . S
C2078 C2082 1.368 . S
C2079 C2060 1.429 . S
C2079 C2073 1.429 . S
C2079 C2080 1.523 . S
C2080 C2061 1.368 . S
C2080 C2074 1.368 . S
C2080 C2079 1.523 . S
C2081 C2065 1.429 . S
C2081 C2077 1.429 . S
C2081 C2082 1.523 . S
C2082 C2066 1.368 . S
C2082 C2078 1.368 . S
C2082 C2081 1.523 . S
H2083 C2058 0.950 . S
H2084 C2060 0.950 . S
H2085 C2061 0.949 . S
H2086 C2063 0.950 . S
H2087 C2065 0.950 . S
C2088 C2089 1.349 . S
C2088 C2090 1.327 . S
C2088 H2113 0.950 . S
C2089 C2088 1.349 . S
C2089 C2105 1.349 . S
C2090 C2088 1.327 . S
C2090 C2109 1.429 . S
C2090 H2114 0.950 . S
C2091 C2108 1.574 . S
C2091 C2110 1.368 . S
C2091 H2115 0.949 . S
H2092 C2096 0.949 . S
C2093 C2094 1.349 . S
C2093 C2095 1.327 . S
C2093 H2116 0.950 . S
C2094 C2093 1.349 . S
C2094 C2106 1.349 . S
C2095 C2093 1.327 . S
C2095 C2111 1.429 . S
C2095 H2117 0.950 . S
C2096 H2092 0.949 . S
C2096 C2104 1.574 . S
C2096 C2112 1.368 . S
H2097 C2105 0.950 . S
H2098 C2103 0.950 . S
H2099 C2104 0.949 . S
H2100 C2106 0.950 . S
H2101 C2107 0.950 . S
H2102 C2108 0.949 . S
C2103 H2098 0.950 . S
C2103 C2105 1.327 . S
C2103 C2109 1.429 . S
C2104 C2096 1.574 . S
C2104 H2099 0.949 . S
C2104 C2110 1.368 . S
C2105 C2089 1.349 . S
C2105 H2097 0.950 . S
C2105 C2103 1.327 . S
C2106 C2094 1.349 . S
C2106 H2100 0.950 . S
C2106 C2107 1.327 . S
C2107 H2101 0.950 . S
C2107 C2106 1.327 . S
C2107 C2111 1.429 . S
C2108 C2091 1.574 . S
C2108 H2102 0.949 . S
C2108 C2112 1.368 . S
C2109 C2090 1.429 . S
C2109 C2103 1.429 . S
C2109 C2110 1.523 . S
C2110 C2091 1.368 . S
C2110 C2104 1.368 . S
C2110 C2109 1.523 . S
C2111 C2095 1.429 . S
C2111 C2107 1.429 . S
C2111 C2112 1.523 . S
C2112 C2096 1.368 . S
C2112 C2108 1.368 . S
C2112 C2111 1.523 . S
H2113 C2088 0.950 . S
H2114 C2090 0.950 . S
H2115 C2091 0.949 . S
H2116 C2093 0.950 . S
H2117 C2095 0.950 . S
C2118 C2119 1.349 . S
C2118 C2120 1.327 . S
C2118 H2143 0.950 . S
C2119 C2118 1.349 . S
C2119 C2135 1.349 . S
C2120 C2118 1.327 . S
C2120 C2139 1.429 . S
C2120 H2144 0.950 . S
C2121 C2138 1.574 . S
C2121 C2140 1.368 . S
C2121 H2145 0.949 . S
H2122 C2126 0.949 . S
C2123 C2124 1.349 . S
C2123 C2125 1.327 . S
C2123 H2146 0.950 . S
C2124 C2123 1.349 . S
C2124 C2136 1.349 . S
C2125 C2123 1.327 . S
C2125 C2141 1.429 . S
C2125 H2147 0.950 . S
C2126 H2122 0.949 . S
C2126 C2134 1.574 . S
C2126 C2142 1.368 . S
H2127 C2135 0.950 . S
H2128 C2133 0.950 . S
H2129 C2134 0.949 . S
H2130 C2136 0.950 . S
H2131 C2137 0.950 . S
H2132 C2138 0.949 . S
C2133 H2128 0.950 . S
C2133 C2135 1.327 . S
C2133 C2139 1.429 . S
C2134 C2126 1.574 . S
C2134 H2129 0.949 . S
C2134 C2140 1.368 . S
C2135 C2119 1.349 . S
C2135 H2127 0.950 . S
C2135 C2133 1.327 . S
C2136 C2124 1.349 . S
C2136 H2130 0.950 . S
C2136 C2137 1.327 . S
C2137 H2131 0.950 . S
C2137 C2136 1.327 . S
C2137 C2141 1.429 . S
C2138 C2121 1.574 . S
C2138 H2132 0.949 . S
C2138 C2142 1.368 . S
C2139 C2120 1.429 . S
C2139 C2133 1.429 . S
C2139 C2140 1.523 . S
C2140 C2121 1.368 . S
C2140 C2134 1.368 . S
C2140 C2139 1.523 . S
C2141 C2125 1.429 . S
C2141 C2137 1.429 . S
C2141 C2142 1.523 . S
C2142 C2126 1.368 . S
C2142 C2138 1.368 . S
C2142 C2141 1.523 . S
H2143 C2118 0.950 . S
H2144 C2120 0.950 . S
H2145 C2121 0.949 . S
H2146 C2123 0.950 . S
H2147 C2125 0.950 . S
C2148 C2149 1.349 . S
C2148 C2150 1.327 . S
C2148 H2173 0.950 . S
C2149 C2148 1.349 . S
C2149 C2165 1.349 . S
C2150 C2148 1.327 . S
C2150 C2169 1.429 . S
C2150 H2174 0.950 . S
C2151 C2168 1.574 . S
C2151 C2170 1.368 . S
C2151 H2175 0.949 . S
H2152 C2156 0.949 . S
C2153 C2154 1.349 . S
C2153 C2155 1.327 . S
C2153 H2176 0.950 . S
C2154 C2153 1.349 . S
C2154 C2166 1.349 . S
C2155 C2153 1.327 . S
C2155 C2171 1.429 . S
C2155 H2177 0.950 . S
C2156 H2152 0.949 . S
C2156 C2164 1.574 . S
C2156 C2172 1.368 . S
H2157 C2165 0.950 . S
H2158 C2163 0.950 . S
H2159 C2164 0.949 . S
H2160 C2166 0.950 . S
H2161 C2167 0.950 . S
H2162 C2168 0.949 . S
C2163 H2158 0.950 . S
C2163 C2165 1.327 . S
C2163 C2169 1.429 . S
C2164 C2156 1.574 . S
C2164 H2159 0.949 . S
C2164 C2170 1.368 . S
C2165 C2149 1.349 . S
C2165 H2157 0.950 . S
C2165 C2163 1.327 . S
C2166 C2154 1.349 . S
C2166 H2160 0.950 . S
C2166 C2167 1.327 . S
C2167 H2161 0.950 . S
C2167 C2166 1.327 . S
C2167 C2171 1.429 . S
C2168 C2151 1.574 . S
C2168 H2162 0.949 . S
C2168 C2172 1.368 . S
C2169 C2150 1.429 . S
C2169 C2163 1.429 . S
C2169 C2170 1.523 . S
C2170 C2151 1.368 . S
C2170 C2164 1.368 . S
C2170 C2169 1.523 . S
C2171 C2155 1.429 . S
C2171 C2167 1.429 . S
C2171 C2172 1.523 . S
C2172 C2156 1.368 . S
C2172 C2168 1.368 . S
C2172 C2171 1.523 . S
H2173 C2148 0.950 . S
H2174 C2150 0.950 . S
H2175 C2151 0.949 . S
H2176 C2153 0.950 . S
H2177 C2155 0.950 . S
C2178 C2179 1.349 . S
C2178 C2180 1.327 . S
C2178 H2203 0.950 . S
C2179 C2178 1.349 . S
C2179 C2195 1.349 . S
C2180 C2178 1.327 . S
C2180 C2199 1.429 . S
C2180 H2204 0.950 . S
C2181 C2198 1.574 . S
C2181 C2200 1.368 . S
C2181 H2205 0.949 . S
H2182 C2186 0.949 . S
C2183 C2184 1.349 . S
C2183 C2185 1.327 . S
C2183 H2206 0.950 . S
C2184 C2183 1.349 . S
C2184 C2196 1.349 . S
C2185 C2183 1.327 . S
C2185 C2201 1.429 . S
C2185 H2207 0.950 . S
C2186 H2182 0.949 . S
C2186 C2194 1.574 . S
C2186 C2202 1.368 . S
H2187 C2195 0.950 . S
H2188 C2193 0.950 . S
H2189 C2194 0.949 . S
H2190 C2196 0.950 . S
H2191 C2197 0.950 . S
H2192 C2198 0.949 . S
C2193 H2188 0.950 . S
C2193 C2195 1.327 . S
C2193 C2199 1.429 . S
C2194 C2186 1.574 . S
C2194 H2189 0.949 . S
C2194 C2200 1.368 . S
C2195 C2179 1.349 . S
C2195 H2187 0.950 . S
C2195 C2193 1.327 . S
C2196 C2184 1.349 . S
C2196 H2190 0.950 . S
C2196 C2197 1.327 . S
C2197 H2191 0.950 . S
C2197 C2196 1.327 . S
C2197 C2201 1.429 . S
C2198 C2181 1.574 . S
C2198 H2192 0.949 . S
C2198 C2202 1.368 . S
C2199 C2180 1.429 . S
C2199 C2193 1.429 . S
C2199 C2200 1.523 . S
C2200 C2181 1.368 . S
C2200 C2194 1.368 . S
C2200 C2199 1.523 . S
C2201 C2185 1.429 . S
C2201 C2197 1.429 . S
C2201 C2202 1.523 . S
C2202 C2186 1.368 . S
C2202 C2198 1.368 . S
C2202 C2201 1.523 . S
H2203 C2178 0.950 . S
H2204 C2180 0.950 . S
H2205 C2181 0.949 . S
H2206 C2183 0.950 . S
H2207 C2185 0.950 . S
C2208 C2209 1.349 . S
C2208 C2210 1.327 . S
C2208 H2233 0.950 . S
C2209 C2208 1.349 . S
C2209 C2225 1.349 . S
C2210 C2208 1.327 . S
C2210 C2229 1.429 . S
C2210 H2234 0.950 . S
C2211 C2228 1.574 . S
C2211 C2230 1.368 . S
C2211 H2235 0.949 . S
H2212 C2216 0.949 . S
C2213 C2214 1.349 . S
C2213 C2215 1.327 . S
C2213 H2236 0.950 . S
C2214 C2213 1.349 . S
C2214 C2226 1.349 . S
C2215 C2213 1.327 . S
C2215 C2231 1.429 . S
C2215 H2237 0.950 . S
C2216 H2212 0.949 . S
C2216 C2224 1.574 . S
C2216 C2232 1.368 . S
H2217 C2225 0.950 . S
H2218 C2223 0.950 . S
H2219 C2224 0.949 . S
H2220 C2226 0.950 . S
H2221 C2227 0.950 . S
H2222 C2228 0.949 . S
C2223 H2218 0.950 . S
C2223 C2225 1.327 . S
C2223 C2229 1.429 . S
C2224 C2216 1.574 . S
C2224 H2219 0.949 . S
C2224 C2230 1.368 . S
C2225 C2209 1.349 . S
C2225 H2217 0.950 . S
C2225 C2223 1.327 . S
C2226 C2214 1.349 . S
C2226 H2220 0.950 . S
C2226 C2227 1.327 . S
C2227 H2221 0.950 . S
C2227 C2226 1.327 . S
C2227 C2231 1.429 . S
C2228 C2211 1.574 . S
C2228 H2222 0.949 . S
C2228 C2232 1.368 . S
C2229 C2210 1.429 . S
C2229 C2223 1.429 . S
C2229 C2230 1.523 . S
C2230 C2211 1.368 . S
C2230 C2224 1.368 . S
C2230 C2229 1.523 . S
C2231 C2215 1.429 . S
C2231 C2227 1.429 . S
C2231 C2232 1.523 . S
C2232 C2216 1.368 . S
C2232 C2228 1.368 . S
C2232 C2231 1.523 . S
H2233 C2208 0.950 . S
H2234 C2210 0.950 . S
H2235 C2211 0.949 . S
H2236 C2213 0.950 . S
H2237 C2215 0.950 . S
C2238 C2239 1.349 . S
C2238 C2240 1.327 . S
C2238 H2263 0.950 . S
C2239 C2238 1.349 . S
C2239 C2255 1.349 . S
C2240 C2238 1.327 . S
C2240 C2259 1.429 . S
C2240 H2264 0.950 . S
C2241 C2258 1.574 . S
C2241 C2260 1.368 . S
C2241 H2265 0.949 . S
H2242 C2246 0.949 . S
C2243 C2244 1.349 . S
C2243 C2245 1.327 . S
C2243 H2266 0.950 . S
C2244 C2243 1.349 . S
C2244 C2256 1.349 . S
C2245 C2243 1.327 . S
C2245 C2261 1.429 . S
C2245 H2267 0.950 . S
C2246 H2242 0.949 . S
C2246 C2254 1.574 . S
C2246 C2262 1.368 . S
H2247 C2255 0.950 . S
H2248 C2253 0.950 . S
H2249 C2254 0.949 . S
H2250 C2256 0.950 . S
H2251 C2257 0.950 . S
H2252 C2258 0.949 . S
C2253 H2248 0.950 . S
C2253 C2255 1.327 . S
C2253 C2259 1.429 . S
C2254 C2246 1.574 . S
C2254 H2249 0.949 . S
C2254 C2260 1.368 . S
C2255 C2239 1.349 . S
C2255 H2247 0.950 . S
C2255 C2253 1.327 . S
C2256 C2244 1.349 . S
C2256 H2250 0.950 . S
C2256 C2257 1.327 . S
C2257 H2251 0.950 . S
C2257 C2256 1.327 . S
C2257 C2261 1.429 . S
C2258 C2241 1.574 . S
C2258 H2252 0.949 . S
C2258 C2262 1.368 . S
C2259 C2240 1.429 . S
C2259 C2253 1.429 . S
C2259 C2260 1.523 . S
C2260 C2241 1.368 . S
C2260 C2254 1.368 . S
C2260 C2259 1.523 . S
C2261 C2245 1.429 . S
C2261 C2257 1.429 . S
C2261 C2262 1.523 . S
C2262 C2246 1.368 . S
C2262 C2258 1.368 . S
C2262 C2261 1.523 . S
H2263 C2238 0.950 . S
H2264 C2240 0.950 . S
H2265 C2241 0.949 . S
H2266 C2243 0.950 . S
H2267 C2245 0.950 . S
C2268 C2269 1.349 . S
C2268 C2270 1.327 . S
C2268 H2293 0.950 . S
C2269 C2268 1.349 . S
C2269 C2285 1.349 . S
C2270 C2268 1.327 . S
C2270 C2289 1.429 . S
C2270 H2294 0.950 . S
C2271 C2288 1.574 . S
C2271 C2290 1.368 . S
C2271 H2295 0.949 . S
H2272 C2276 0.949 . S
C2273 C2274 1.349 . S
C2273 C2275 1.327 . S
C2273 H2296 0.950 . S
C2274 C2273 1.349 . S
C2274 C2286 1.349 . S
C2275 C2273 1.327 . S
C2275 C2291 1.429 . S
C2275 H2297 0.950 . S
C2276 H2272 0.949 . S
C2276 C2284 1.574 . S
C2276 C2292 1.368 . S
H2277 C2285 0.950 . S
H2278 C2283 0.950 . S
H2279 C2284 0.949 . S
H2280 C2286 0.950 . S
H2281 C2287 0.950 . S
H2282 C2288 0.949 . S
C2283 H2278 0.950 . S
C2283 C2285 1.327 . S
C2283 C2289 1.429 . S
C2284 C2276 1.574 . S
C2284 H2279 0.949 . S
C2284 C2290 1.368 . S
C2285 C2269 1.349 . S
C2285 H2277 0.950 . S
C2285 C2283 1.327 . S
C2286 C2274 1.349 . S
C2286 H2280 0.950 . S
C2286 C2287 1.327 . S
C2287 H2281 0.950 . S
C2287 C2286 1.327 . S
C2287 C2291 1.429 . S
C2288 C2271 1.574 . S
C2288 H2282 0.949 . S
C2288 C2292 1.368 . S
C2289 C2270 1.429 . S
C2289 C2283 1.429 . S
C2289 C2290 1.523 . S
C2290 C2271 1.368 . S
C2290 C2284 1.368 . S
C2290 C2289 1.523 . S
C2291 C2275 1.429 . S
C2291 C2287 1.429 . S
C2291 C2292 1.523 . S
C2292 C2276 1.368 . S
C2292 C2288 1.368 . S
C2292 C2291 1.523 . S
H2293 C2268 0.950 . S
H2294 C2270 0.950 . S
H2295 C2271 0.949 . S
H2296 C2273 0.950 . S
H2297 C2275 0.950 . S
C2298 C2299 1.349 . S
C2298 C2300 1.327 . S
C2298 H2323 0.950 . S
C2299 C2298 1.349 . S
C2299 C2315 1.349 . S
C2300 C2298 1.327 . S
C2300 C2319 1.429 . S
C2300 H2324 0.950 . S
C2301 C2318 1.574 . S
C2301 C2320 1.368 . S
C2301 H2325 0.949 . S
H2302 C2306 0.949 . S
C2303 C2304 1.349 . S
C2303 C2305 1.327 . S
C2303 H2326 0.950 . S
C2304 C2303 1.349 . S
C2304 C2316 1.349 . S
C2305 C2303 1.327 . S
C2305 C2321 1.429 . S
C2305 H2327 0.950 . S
C2306 H2302 0.949 . S
C2306 C2314 1.574 . S
C2306 C2322 1.368 . S
H2307 C2315 0.950 . S
H2308 C2313 0.950 . S
H2309 C2314 0.949 . S
H2310 C2316 0.950 . S
H2311 C2317 0.950 . S
H2312 C2318 0.949 . S
C2313 H2308 0.950 . S
C2313 C2315 1.327 . S
C2313 C2319 1.429 . S
C2314 C2306 1.574 . S
C2314 H2309 0.949 . S
C2314 C2320 1.368 . S
C2315 C2299 1.349 . S
C2315 H2307 0.950 . S
C2315 C2313 1.327 . S
C2316 C2304 1.349 . S
C2316 H2310 0.950 . S
C2316 C2317 1.327 . S
C2317 H2311 0.950 . S
C2317 C2316 1.327 . S
C2317 C2321 1.429 . S
C2318 C2301 1.574 . S
C2318 H2312 0.949 . S
C2318 C2322 1.368 . S
C2319 C2300 1.429 . S
C2319 C2313 1.429 . S
C2319 C2320 1.523 . S
C2320 C2301 1.368 . S
C2320 C2314 1.368 . S
C2320 C2319 1.523 . S
C2321 C2305 1.429 . S
C2321 C2317 1.429 . S
C2321 C2322 1.523 . S
C2322 C2306 1.368 . S
C2322 C2318 1.368 . S
C2322 C2321 1.523 . S
H2323 C2298 0.950 . S
H2324 C2300 0.950 . S
H2325 C2301 0.949 . S
H2326 C2303 0.950 . S
H2327 C2305 0.950 . S
C2328 C2329 1.349 . S
C2328 C2330 1.327 . S
C2328 H2353 0.950 . S
C2329 C2328 1.349 . S
C2329 C2345 1.349 . S
C2330 C2328 1.327 . S
C2330 C2349 1.429 . S
C2330 H2354 0.950 . S
C2331 C2348 1.574 . S
C2331 C2350 1.368 . S
C2331 H2355 0.949 . S
H2332 C2336 0.949 . S
C2333 C2334 1.349 . S
C2333 C2335 1.327 . S
C2333 H2356 0.950 . S
C2334 C2333 1.349 . S
C2334 C2346 1.349 . S
C2335 C2333 1.327 . S
C2335 C2351 1.429 . S
C2335 H2357 0.950 . S
C2336 H2332 0.949 . S
C2336 C2344 1.574 . S
C2336 C2352 1.368 . S
H2337 C2345 0.950 . S
H2338 C2343 0.950 . S
H2339 C2344 0.949 . S
H2340 C2346 0.950 . S
H2341 C2347 0.950 . S
H2342 C2348 0.949 . S
C2343 H2338 0.950 . S
C2343 C2345 1.327 . S
C2343 C2349 1.429 . S
C2344 C2336 1.574 . S
C2344 H2339 0.949 . S
C2344 C2350 1.368 . S
C2345 C2329 1.349 . S
C2345 H2337 0.950 . S
C2345 C2343 1.327 . S
C2346 C2334 1.349 . S
C2346 H2340 0.950 . S
C2346 C2347 1.327 . S
C2347 H2341 0.950 . S
C2347 C2346 1.327 . S
C2347 C2351 1.429 . S
C2348 C2331 1.574 . S
C2348 H2342 0.949 . S
C2348 C2352 1.368 . S
C2349 C2330 1.429 . S
C2349 C2343 1.429 . S
C2349 C2350 1.523 . S
C2350 C2331 1.368 . S
C2350 C2344 1.368 . S
C2350 C2349 1.523 . S
C2351 C2335 1.429 . S
C2351 C2347 1.429 . S
C2351 C2352 1.523 . S
C2352 C2336 1.368 . S
C2352 C2348 1.368 . S
C2352 C2351 1.523 . S
H2353 C2328 0.950 . S
H2354 C2330 0.950 . S
H2355 C2331 0.949 . S
H2356 C2333 0.950 . S
H2357 C2335 0.950 . S
C2358 C2359 1.349 . S
C2358 C2360 1.327 . S
C2358 H2383 0.950 . S
C2359 C2358 1.349 . S
C2359 C2375 1.349 . S
C2360 C2358 1.327 . S
C2360 C2379 1.429 . S
C2360 H2384 0.950 . S
C2361 C2378 1.574 . S
C2361 C2380 1.368 . S
C2361 H2385 0.949 . S
H2362 C2366 0.949 . S
C2363 C2364 1.349 . S
C2363 C2365 1.327 . S
C2363 H2386 0.950 . S
C2364 C2363 1.349 . S
C2364 C2376 1.349 . S
C2365 C2363 1.327 . S
C2365 C2381 1.429 . S
C2365 H2387 0.950 . S
C2366 H2362 0.949 . S
C2366 C2374 1.574 . S
C2366 C2382 1.368 . S
H2367 C2375 0.950 . S
H2368 C2373 0.950 . S
H2369 C2374 0.949 . S
H2370 C2376 0.950 . S
H2371 C2377 0.950 . S
H2372 C2378 0.949 . S
C2373 H2368 0.950 . S
C2373 C2375 1.327 . S
C2373 C2379 1.429 . S
C2374 C2366 1.574 . S
C2374 H2369 0.949 . S
C2374 C2380 1.368 . S
C2375 C2359 1.349 . S
C2375 H2367 0.950 . S
C2375 C2373 1.327 . S
C2376 C2364 1.349 . S
C2376 H2370 0.950 . S
C2376 C2377 1.327 . S
C2377 H2371 0.950 . S
C2377 C2376 1.327 . S
C2377 C2381 1.429 . S
C2378 C2361 1.574 . S
C2378 H2372 0.949 . S
C2378 C2382 1.368 . S
C2379 C2360 1.429 . S
C2379 C2373 1.429 . S
C2379 C2380 1.523 . S
C2380 C2361 1.368 . S
C2380 C2374 1.368 . S
C2380 C2379 1.523 . S
C2381 C2365 1.429 . S
C2381 C2377 1.429 . S
C2381 C2382 1.523 . S
C2382 C2366 1.368 . S
C2382 C2378 1.368 . S
C2382 C2381 1.523 . S
H2383 C2358 0.950 . S
H2384 C2360 0.950 . S
H2385 C2361 0.949 . S
H2386 C2363 0.950 . S
H2387 C2365 0.950 . S
C2388 C2389 1.349 . S
C2388 C2390 1.327 . S
C2388 H2413 0.950 . S
C2389 C2388 1.349 . S
C2389 C2405 1.349 . S
C2390 C2388 1.327 . S
C2390 C2409 1.429 . S
C2390 H2414 0.950 . S
C2391 C2408 1.574 . S
C2391 C2410 1.368 . S
C2391 H2415 0.949 . S
H2392 C2396 0.949 . S
C2393 C2394 1.349 . S
C2393 C2395 1.327 . S
C2393 H2416 0.950 . S
C2394 C2393 1.349 . S
C2394 C2406 1.349 . S
C2395 C2393 1.327 . S
C2395 C2411 1.429 . S
C2395 H2417 0.950 . S
C2396 H2392 0.949 . S
C2396 C2404 1.574 . S
C2396 C2412 1.368 . S
H2397 C2405 0.950 . S
H2398 C2403 0.950 . S
H2399 C2404 0.949 . S
H2400 C2406 0.950 . S
H2401 C2407 0.950 . S
H2402 C2408 0.949 . S
C2403 H2398 0.950 . S
C2403 C2405 1.327 . S
C2403 C2409 1.429 . S
C2404 C2396 1.574 . S
C2404 H2399 0.949 . S
C2404 C2410 1.368 . S
C2405 C2389 1.349 . S
C2405 H2397 0.950 . S
C2405 C2403 1.327 . S
C2406 C2394 1.349 . S
C2406 H2400 0.950 . S
C2406 C2407 1.327 . S
C2407 H2401 0.950 . S
C2407 C2406 1.327 . S
C2407 C2411 1.429 . S
C2408 C2391 1.574 . S
C2408 H2402 0.949 . S
C2408 C2412 1.368 . S
C2409 C2390 1.429 . S
C2409 C2403 1.429 . S
C2409 C2410 1.523 . S
C2410 C2391 1.368 . S
C2410 C2404 1.368 . S
C2410 C2409 1.523 . S
C2411 C2395 1.429 . S
C2411 C2407 1.429 . S
C2411 C2412 1.523 . S
C2412 C2396 1.368 . S
C2412 C2408 1.368 . S
C2412 C2411 1.523 . S
H2413 C2388 0.950 . S
H2414 C2390 0.950 . S
H2415 C2391 0.949 . S
H2416 C2393 0.950 . S
H2417 C2395 0.950 . S
C2418 C2419 1.349 . S
C2418 C2420 1.327 . S
C2418 H2443 0.950 . S
C2419 C2418 1.349 . S
C2419 C2435 1.349 . S
C2420 C2418 1.327 . S
C2420 C2439 1.429 . S
C2420 H2444 0.950 . S
C2421 C2438 1.574 . S
C2421 C2440 1.368 . S
C2421 H2445 0.949 . S
H2422 C2426 0.949 . S
C2423 C2424 1.349 . S
C2423 C2425 1.327 . S
C2423 H2446 0.950 . S
C2424 C2423 1.349 . S
C2424 C2436 1.349 . S
C2425 C2423 1.327 . S
C2425 C2441 1.429 . S
C2425 H2447 0.950 . S
C2426 H2422 0.949 . S
C2426 C2434 1.574 . S
C2426 C2442 1.368 . S
H2427 C2435 0.950 . S
H2428 C2433 0.950 . S
H2429 C2434 0.949 . S
H2430 C2436 0.950 . S
H2431 C2437 0.950 . S
H2432 C2438 0.949 . S
C2433 H2428 0.950 . S
C2433 C2435 1.327 . S
C2433 C2439 1.429 . S
C2434 C2426 1.574 . S
C2434 H2429 0.949 . S
C2434 C2440 1.368 . S
C2435 C2419 1.349 . S
C2435 H2427 0.950 . S
C2435 C2433 1.327 . S
C2436 C2424 1.349 . S
C2436 H2430 0.950 . S
C2436 C2437 1.327 . S
C2437 H2431 0.950 . S
C2437 C2436 1.327 . S
C2437 C2441 1.429 . S
C2438 C2421 1.574 . S
C2438 H2432 0.949 . S
C2438 C2442 1.368 . S
C2439 C2420 1.429 . S
C2439 C2433 1.429 . S
C2439 C2440 1.523 . S
C2440 C2421 1.368 . S
C2440 C2434 1.368 . S
C2440 C2439 1.523 . S
C2441 C2425 1.429 . S
C2441 C2437 1.429 . S
C2441 C2442 1.523 . S
C2442 C2426 1.368 . S
C2442 C2438 1.368 . S
C2442 C2441 1.523 . S
H2443 C2418 0.950 . S
H2444 C2420 0.950 . S
H2445 C2421 0.949 . S
H2446 C2423 0.950 . S
H2447 C2425 0.950 . S
C2448 C2449 1.349 . S
C2448 C2450 1.327 . S
C2448 H2473 0.950 . S
C2449 C2448 1.349 . S
C2449 C2465 1.349 . S
C2450 C2448 1.327 . S
C2450 C2469 1.429 . S
C2450 H2474 0.950 . S
C2451 C2468 1.574 . S
C2451 C2470 1.368 . S
C2451 H2475 0.949 . S
H2452 C2456 0.949 . S
C2453 C2454 1.349 . S
C2453 C2455 1.327 . S
C2453 H2476 0.950 . S
C2454 C2453 1.349 . S
C2454 C2466 1.349 . S
C2455 C2453 1.327 . S
C2455 C2471 1.429 . S
C2455 H2477 0.950 . S
C2456 H2452 0.949 . S
C2456 C2464 1.574 . S
C2456 C2472 1.368 . S
H2457 C2465 0.950 . S
H2458 C2463 0.950 . S
H2459 C2464 0.949 . S
H2460 C2466 0.950 . S
H2461 C2467 0.950 . S
H2462 C2468 0.949 . S
C2463 H2458 0.950 . S
C2463 C2465 1.327 . S
C2463 C2469 1.429 . S
C2464 C2456 1.574 . S
C2464 H2459 0.949 . S
C2464 C2470 1.368 . S
C2465 C2449 1.349 . S
C2465 H2457 0.950 . S
C2465 C2463 1.327 . S
C2466 C2454 1.349 . S
C2466 H2460 0.950 . S
C2466 C2467 1.327 . S
C2467 H2461 0.950 . S
C2467 C2466 1.327 . S
C2467 C2471 1.429 . S
C2468 C2451 1.574 . S
C2468 H2462 0.949 . S
C2468 C2472 1.368 . S
C2469 C2450 1.429 . S
C2469 C2463 1.429 . S
C2469 C2470 1.523 . S
C2470 C2451 1.368 . S
C2470 C2464 1.368 . S
C2470 C2469 1.523 . S
C2471 C2455 1.429 . S
C2471 C2467 1.429 . S
C2471 C2472 1.523 . S
C2472 C2456 1.368 . S
C2472 C2468 1.368 . S
C2472 C2471 1.523 . S
H2473 C2448 0.950 . S
H2474 C2450 0.950 . S
H2475 C2451 0.949 . S
H2476 C2453 0.950 . S
H2477 C2455 0.950 . S
C2478 C2479 1.349 . S
C2478 C2480 1.327 . S
C2478 H2503 0.950 . S
C2479 C2478 1.349 . S
C2479 C2495 1.349 . S
C2480 C2478 1.327 . S
C2480 C2499 1.429 . S
C2480 H2504 0.950 . S
C2481 C2498 1.574 . S
C2481 C2500 1.368 . S
C2481 H2505 0.949 . S
H2482 C2486 0.949 . S
C2483 C2484 1.349 . S
C2483 C2485 1.327 . S
C2483 H2506 0.950 . S
C2484 C2483 1.349 . S
C2484 C2496 1.349 . S
C2485 C2483 1.327 . S
C2485 C2501 1.429 . S
C2485 H2507 0.950 . S
C2486 H2482 0.949 . S
C2486 C2494 1.574 . S
C2486 C2502 1.368 . S
H2487 C2495 0.950 . S
H2488 C2493 0.950 . S
H2489 C2494 0.949 . S
H2490 C2496 0.950 . S
H2491 C2497 0.950 . S
H2492 C2498 0.949 . S
C2493 H2488 0.950 . S
C2493 C2495 1.327 . S
C2493 C2499 1.429 . S
C2494 C2486 1.574 . S
C2494 H2489 0.949 . S
C2494 C2500 1.368 . S
C2495 C2479 1.349 . S
C2495 H2487 0.950 . S
C2495 C2493 1.327 . S
C2496 C2484 1.349 . S
C2496 H2490 0.950 . S
C2496 C2497 1.327 . S
C2497 H2491 0.950 . S
C2497 C2496 1.327 . S
C2497 C2501 1.429 . S
C2498 C2481 1.574 . S
C2498 H2492 0.949 . S
C2498 C2502 1.368 . S
C2499 C2480 1.429 . S
C2499 C2493 1.429 . S
C2499 C2500 1.523 . S
C2500 C2481 1.368 . S
C2500 C2494 1.368 . S
C2500 C2499 1.523 . S
C2501 C2485 1.429 . S
C2501 C2497 1.429 . S
C2501 C2502 1.523 . S
C2502 C2486 1.368 . S
C2502 C2498 1.368 . S
C2502 C2501 1.523 . S
H2503 C2478 0.950 . S
H2504 C2480 0.950 . S
H2505 C2481 0.949 . S
H2506 C2483 0.950 . S
H2507 C2485 0.950 . S
C2508 C2509 1.349 . S
C2508 C2510 1.327 . S
C2508 H2533 0.950 . S
C2509 C2508 1.349 . S
C2509 C2525 1.349 . S
C2510 C2508 1.327 . S
C2510 C2529 1.429 . S
C2510 H2534 0.950 . S
C2511 C2528 1.574 . S
C2511 C2530 1.368 . S
C2511 H2535 0.949 . S
H2512 C2516 0.949 . S
C2513 C2514 1.349 . S
C2513 C2515 1.327 . S
C2513 H2536 0.950 . S
C2514 C2513 1.349 . S
C2514 C2526 1.349 . S
C2515 C2513 1.327 . S
C2515 C2531 1.429 . S
C2515 H2537 0.950 . S
C2516 H2512 0.949 . S
C2516 C2524 1.574 . S
C2516 C2532 1.368 . S
H2517 C2525 0.950 . S
H2518 C2523 0.950 . S
H2519 C2524 0.949 . S
H2520 C2526 0.950 . S
H2521 C2527 0.950 . S
H2522 C2528 0.949 . S
C2523 H2518 0.950 . S
C2523 C2525 1.327 . S
C2523 C2529 1.429 . S
C2524 C2516 1.574 . S
C2524 H2519 0.949 . S
C2524 C2530 1.368 . S
C2525 C2509 1.349 . S
C2525 H2517 0.950 . S
C2525 C2523 1.327 . S
C2526 C2514 1.349 . S
C2526 H2520 0.950 . S
C2526 C2527 1.327 . S
C2527 H2521 0.950 . S
C2527 C2526 1.327 . S
C2527 C2531 1.429 . S
C2528 C2511 1.574 . S
C2528 H2522 0.949 . S
C2528 C2532 1.368 . S
C2529 C2510 1.429 . S
C2529 C2523 1.429 . S
C2529 C2530 1.523 . S
C2530 C2511 1.368 . S
C2530 C2524 1.368 . S
C2530 C2529 1.523 . S
C2531 C2515 1.429 . S
C2531 C2527 1.429 . S
C2531 C2532 1.523 . S
C2532 C2516 1.368 . S
C2532 C2528 1.368 . S
C2532 C2531 1.523 . S
H2533 C2508 0.950 . S
H2534 C2510 0.950 . S
H2535 C2511 0.949 . S
H2536 C2513 0.950 . S
H2537 C2515 0.950 . S
C2538 C2539 1.349 . S
C2538 C2540 1.327 . S
C2538 H2563 0.950 . S
C2539 C2538 1.349 . S
C2539 C2555 1.349 . S
C2540 C2538 1.327 . S
C2540 C2559 1.429 . S
C2540 H2564 0.950 . S
C2541 C2558 1.574 . S
C2541 C2560 1.368 . S
C2541 H2565 0.949 . S
H2542 C2546 0.949 . S
C2543 C2544 1.349 . S
C2543 C2545 1.327 . S
C2543 H2566 0.950 . S
C2544 C2543 1.349 . S
C2544 C2556 1.349 . S
C2545 C2543 1.327 . S
C2545 C2561 1.429 . S
C2545 H2567 0.950 . S
C2546 H2542 0.949 . S
C2546 C2554 1.574 . S
C2546 C2562 1.368 . S
H2547 C2555 0.950 . S
H2548 C2553 0.950 . S
H2549 C2554 0.949 . S
H2550 C2556 0.950 . S
H2551 C2557 0.950 . S
H2552 C2558 0.949 . S
C2553 H2548 0.950 . S
C2553 C2555 1.327 . S
C2553 C2559 1.429 . S
C2554 C2546 1.574 . S
C2554 H2549 0.949 . S
C2554 C2560 1.368 . S
C2555 C2539 1.349 . S
C2555 H2547 0.950 . S
C2555 C2553 1.327 . S
C2556 C2544 1.349 . S
C2556 H2550 0.950 . S
C2556 C2557 1.327 . S
C2557 H2551 0.950 . S
C2557 C2556 1.327 . S
C2557 C2561 1.429 . S
C2558 C2541 1.574 . S
C2558 H2552 0.949 . S
C2558 C2562 1.368 . S
C2559 C2540 1.429 . S
C2559 C2553 1.429 . S
C2559 C2560 1.523 . S
C2560 C2541 1.368 . S
C2560 C2554 1.368 . S
C2560 C2559 1.523 . S
C2561 C2545 1.429 . S
C2561 C2557 1.429 . S
C2561 C2562 1.523 . S
C2562 C2546 1.368 . S
C2562 C2558 1.368 . S
C2562 C2561 1.523 . S
H2563 C2538 0.950 . S
H2564 C2540 0.950 . S
H2565 C2541 0.949 . S
H2566 C2543 0.950 . S
H2567 C2545 0.950 . S
C2568 C2569 1.349 . S
C2568 C2570 1.327 . S
C2568 H2593 0.950 . S
C2569 C2568 1.349 . S
C2569 C2585 1.349 . S
C2570 C2568 1.327 . S
C2570 C2589 1.429 . S
C2570 H2594 0.950 . S
C2571 C2588 1.574 . S
C2571 C2590 1.368 . S
C2571 H2595 0.949 . S
H2572 C2576 0.949 . S
C2573 C2574 1.349 . S
C2573 C2575 1.327 . S
C2573 H2596 0.950 . S
C2574 C2573 1.349 . S
C2574 C2586 1.349 . S
C2575 C2573 1.327 . S
C2575 C2591 1.429 . S
C2575 H2597 0.950 . S
C2576 H2572 0.949 . S
C2576 C2584 1.574 . S
C2576 C2592 1.368 . S
H2577 C2585 0.950 . S
H2578 C2583 0.950 . S
H2579 C2584 0.949 . S
H2580 C2586 0.950 . S
H2581 C2587 0.950 . S
H2582 C2588 0.949 . S
C2583 H2578 0.950 . S
C2583 C2585 1.327 . S
C2583 C2589 1.429 . S
C2584 C2576 1.574 . S
C2584 H2579 0.949 . S
C2584 C2590 1.368 . S
C2585 C2569 1.349 . S
C2585 H2577 0.950 . S
C2585 C2583 1.327 . S
C2586 C2574 1.349 . S
C2586 H2580 0.950 . S
C2586 C2587 1.327 . S
C2587 H2581 0.950 . S
C2587 C2586 1.327 . S
C2587 C2591 1.429 . S
C2588 C2571 1.574 . S
C2588 H2582 0.949 . S
C2588 C2592 1.368 . S
C2589 C2570 1.429 . S
C2589 C2583 1.429 . S
C2589 C2590 1.523 . S
C2590 C2571 1.368 . S
C2590 C2584 1.368 . S
C2590 C2589 1.523 . S
C2591 C2575 1.429 . S
C2591 C2587 1.429 . S
C2591 C2592 1.523 . S
C2592 C2576 1.368 . S
C2592 C2588 1.368 . S
C2592 C2591 1.523 . S
H2593 C2568 0.950 . S
H2594 C2570 0.950 . S
H2595 C2571 0.949 . S
H2596 C2573 0.950 . S
H2597 C2575 0.950 . S
C2598 C2599 1.349 . S
C2598 C2600 1.327 . S
C2598 H2623 0.950 . S
C2599 C2598 1.349 . S
C2599 C2615 1.349 . S
C2600 C2598 1.327 . S
C2600 C2619 1.429 . S
C2600 H2624 0.950 . S
C2601 C2618 1.574 . S
C2601 C2620 1.368 . S
C2601 H2625 0.949 . S
H2602 C2606 0.949 . S
C2603 C2604 1.349 . S
C2603 C2605 1.327 . S
C2603 H2626 0.950 . S
C2604 C2603 1.349 . S
C2604 C2616 1.349 . S
C2605 C2603 1.327 . S
C2605 C2621 1.429 . S
C2605 H2627 0.950 . S
C2606 H2602 0.949 . S
C2606 C2614 1.574 . S
C2606 C2622 1.368 . S
H2607 C2615 0.950 . S
H2608 C2613 0.950 . S
H2609 C2614 0.949 . S
H2610 C2616 0.950 . S
H2611 C2617 0.950 . S
H2612 C2618 0.949 . S
C2613 H2608 0.950 . S
C2613 C2615 1.327 . S
C2613 C2619 1.429 . S
C2614 C2606 1.574 . S
C2614 H2609 0.949 . S
C2614 C2620 1.368 . S
C2615 C2599 1.349 . S
C2615 H2607 0.950 . S
C2615 C2613 1.327 . S
C2616 C2604 1.349 . S
C2616 H2610 0.950 . S
C2616 C2617 1.327 . S
C2617 H2611 0.950 . S
C2617 C2616 1.327 . S
C2617 C2621 1.429 . S
C2618 C2601 1.574 . S
C2618 H2612 0.949 . S
C2618 C2622 1.368 . S
C2619 C2600 1.429 . S
C2619 C2613 1.429 . S
C2619 C2620 1.523 . S
C2620 C2601 1.368 . S
C2620 C2614 1.368 . S
C2620 C2619 1.523 . S
C2621 C2605 1.429 . S
C2621 C2617 1.429 . S
C2621 C2622 1.523 . S
C2622 C2606 1.368 . S
C2622 C2618 1.368 . S
C2622 C2621 1.523 . S
H2623 C2598 0.950 . S
H2624 C2600 0.950 . S
H2625 C2601 0.949 . S
H2626 C2603 0.950 . S
H2627 C2605 0.950 . S
C2628 C2629 1.349 . S
C2628 C2630 1.327 . S
C2628 H2653 0.950 . S
C2629 C2628 1.349 . S
C2629 C2645 1.349 . S
C2630 C2628 1.327 . S
C2630 C2649 1.429 . S
C2630 H2654 0.950 . S
C2631 C2648 1.574 . S
C2631 C2650 1.368 . S
C2631 H2655 0.949 . S
H2632 C2636 0.949 . S
C2633 C2634 1.349 . S
C2633 C2635 1.327 . S
C2633 H2656 0.950 . S
C2634 C2633 1.349 . S
C2634 C2646 1.349 . S
C2635 C2633 1.327 . S
C2635 C2651 1.429 . S
C2635 H2657 0.950 . S
C2636 H2632 0.949 . S
C2636 C2644 1.574 . S
C2636 C2652 1.368 . S
H2637 C2645 0.950 . S
H2638 C2643 0.950 . S
H2639 C2644 0.949 . S
H2640 C2646 0.950 . S
H2641 C2647 0.950 . S
H2642 C2648 0.949 . S
C2643 H2638 0.950 . S
C2643 C2645 1.327 . S
C2643 C2649 1.429 . S
C2644 C2636 1.574 . S
C2644 H2639 0.949 . S
C2644 C2650 1.368 . S
C2645 C2629 1.349 . S
C2645 H2637 0.950 . S
C2645 C2643 1.327 . S
C2646 C2634 1.349 . S
C2646 H2640 0.950 . S
C2646 C2647 1.327 . S
C2647 H2641 0.950 . S
C2647 C2646 1.327 . S
C2647 C2651 1.429 . S
C2648 C2631 1.574 . S
C2648 H2642 0.949 . S
C2648 C2652 1.368 . S
C2649 C2630 1.429 . S
C2649 C2643 1.429 . S
C2649 C2650 1.523 . S
C2650 C2631 1.368 . S
C2650 C2644 1.368 . S
C2650 C2649 1.523 . S
C2651 C2635 1.429 . S
C2651 C2647 1.429 . S
C2651 C2652 1.523 . S
C2652 C2636 1.368 . S
C2652 C2648 1.368 . S
C2652 C2651 1.523 . S
H2653 C2628 0.950 . S
H2654 C2630 0.950 . S
H2655 C2631 0.949 . S
H2656 C2633 0.950 . S
H2657 C2635 0.950 . S
C2658 C2659 1.349 . S
C2658 C2660 1.327 . S
C2658 H2683 0.950 . S
C2659 C2658 1.349 . S
C2659 C2675 1.349 . S
C2660 C2658 1.327 . S
C2660 C2679 1.429 . S
C2660 H2684 0.950 . S
C2661 C2678 1.574 . S
C2661 C2680 1.368 . S
C2661 H2685 0.949 . S
H2662 C2666 0.949 . S
C2663 C2664 1.349 . S
C2663 C2665 1.327 . S
C2663 H2686 0.950 . S
C2664 C2663 1.349 . S
C2664 C2676 1.349 . S
C2665 C2663 1.327 . S
C2665 C2681 1.429 . S
C2665 H2687 0.950 . S
C2666 H2662 0.949 . S
C2666 C2674 1.574 . S
C2666 C2682 1.368 . S
H2667 C2675 0.950 . S
H2668 C2673 0.950 . S
H2669 C2674 0.949 . S
H2670 C2676 0.950 . S
H2671 C2677 0.950 . S
H2672 C2678 0.949 . S
C2673 H2668 0.950 . S
C2673 C2675 1.327 . S
C2673 C2679 1.429 . S
C2674 C2666 1.574 . S
C2674 H2669 0.949 . S
C2674 C2680 1.368 . S
C2675 C2659 1.349 . S
C2675 H2667 0.950 . S
C2675 C2673 1.327 . S
C2676 C2664 1.349 . S
C2676 H2670 0.950 . S
C2676 C2677 1.327 . S
C2677 H2671 0.950 . S
C2677 C2676 1.327 . S
C2677 C2681 1.429 . S
C2678 C2661 1.574 . S
C2678 H2672 0.949 . S
C2678 C2682 1.368 . S
C2679 C2660 1.429 . S
C2679 C2673 1.429 . S
C2679 C2680 1.523 . S
C2680 C2661 1.368 . S
C2680 C2674 1.368 . S
C2680 C2679 1.523 . S
C2681 C2665 1.429 . S
C2681 C2677 1.429 . S
C2681 C2682 1.523 . S
C2682 C2666 1.368 . S
C2682 C2678 1.368 . S
C2682 C2681 1.523 . S
H2683 C2658 0.950 . S
H2684 C2660 0.950 . S
H2685 C2661 0.949 . S
H2686 C2663 0.950 . S
H2687 C2665 0.950 . S
C2688 C2689 1.349 . S
C2688 C2690 1.327 . S
C2688 H2713 0.950 . S
C2689 C2688 1.349 . S
C2689 C2705 1.349 . S
C2690 C2688 1.327 . S
C2690 C2709 1.429 . S
C2690 H2714 0.950 . S
C2691 C2708 1.574 . S
C2691 C2710 1.368 . S
C2691 H2715 0.949 . S
H2692 C2696 0.949 . S
C2693 C2694 1.349 . S
C2693 C2695 1.327 . S
C2693 H2716 0.950 . S
C2694 C2693 1.349 . S
C2694 C2706 1.349 . S
C2695 C2693 1.327 . S
C2695 C2711 1.429 . S
C2695 H2717 0.950 . S
C2696 H2692 0.949 . S
C2696 C2704 1.574 . S
C2696 C2712 1.368 . S
H2697 C2705 0.950 . S
H2698 C2703 0.950 . S
H2699 C2704 0.949 . S
H2700 C2706 0.950 . S
H2701 C2707 0.950 . S
H2702 C2708 0.949 . S
C2703 H2698 0.950 . S
C2703 C2705 1.327 . S
C2703 C2709 1.429 . S
C2704 C2696 1.574 . S
C2704 H2699 0.949 . S
C2704 C2710 1.368 . S
C2705 C2689 1.349 . S
C2705 H2697 0.950 . S
C2705 C2703 1.327 . S
C2706 C2694 1.349 . S
C2706 H2700 0.950 . S
C2706 C2707 1.327 . S
C2707 H2701 0.950 . S
C2707 C2706 1.327 . S
C2707 C2711 1.429 . S
C2708 C2691 1.574 . S
C2708 H2702 0.949 . S
C2708 C2712 1.368 . S
C2709 C2690 1.429 . S
C2709 C2703 1.429 . S
C2709 C2710 1.523 . S
C2710 C2691 1.368 . S
C2710 C2704 1.368 . S
C2710 C2709 1.523 . S
C2711 C2695 1.429 . S
C2711 C2707 1.429 . S
C2711 C2712 1.523 . S
C2712 C2696 1.368 . S
C2712 C2708 1.368 . S
C2712 C2711 1.523 . S
H2713 C2688 0.950 . S
H2714 C2690 0.950 . S
H2715 C2691 0.949 . S
H2716 C2693 0.950 . S
H2717 C2695 0.950 . S
C2718 C2719 1.349 . S
C2718 C2720 1.327 . S
C2718 H2743 0.950 . S
C2719 C2718 1.349 . S
C2719 C2735 1.349 . S
C2720 C2718 1.327 . S
C2720 C2739 1.429 . S
C2720 H2744 0.950 . S
C2721 C2738 1.574 . S
C2721 C2740 1.368 . S
C2721 H2745 0.949 . S
H2722 C2726 0.949 . S
C2723 C2724 1.349 . S
C2723 C2725 1.327 . S
C2723 H2746 0.950 . S
C2724 C2723 1.349 . S
C2724 C2736 1.349 . S
C2725 C2723 1.327 . S
C2725 C2741 1.429 . S
C2725 H2747 0.950 . S
C2726 H2722 0.949 . S
C2726 C2734 1.574 . S
C2726 C2742 1.368 . S
H2727 C2735 0.950 . S
H2728 C2733 0.950 . S
H2729 C2734 0.949 . S
H2730 C2736 0.950 . S
H2731 C2737 0.950 . S
H2732 C2738 0.949 . S
C2733 H2728 0.950 . S
C2733 C2735 1.327 . S
C2733 C2739 1.429 . S
C2734 C2726 1.574 . S
C2734 H2729 0.949 . S
C2734 C2740 1.368 . S
C2735 C2719 1.349 . S
C2735 H2727 0.950 . S
C2735 C2733 1.327 . S
C2736 C2724 1.349 . S
C2736 H2730 0.950 . S
C2736 C2737 1.327 . S
C2737 H2731 0.950 . S
C2737 C2736 1.327 . S
C2737 C2741 1.429 . S
C2738 C2721 1.574 . S
C2738 H2732 0.949 . S
C2738 C2742 1.368 . S
C2739 C2720 1.429 . S
C2739 C2733 1.429 . S
C2739 C2740 1.523 . S
C2740 C2721 1.368 . S
C2740 C2734 1.368 . S
C2740 C2739 1.523 . S
C2741 C2725 1.429 . S
C2741 C2737 1.429 . S
C2741 C2742 1.523 . S
C2742 C2726 1.368 . S
C2742 C2738 1.368 . S
C2742 C2741 1.523 . S
H2743 C2718 0.950 . S
H2744 C2720 0.950 . S
H2745 C2721 0.949 . S
H2746 C2723 0.950 . S
H2747 C2725 0.950 . S
C594 C294 1.433 . S
C589 C285 1.432 . S
C619 C261 1.319 . S
C624 C292 1.320 . S
C654 C293 1.320 . S
C649 C249 1.319 . S
C679 C273 1.432 . S
C684 C295 1.433 . S
C714 C339 1.496 . S
C709 C201 1.496 . S
C744 C399 1.412 . S
C739 C213 1.412 . S
C769 C225 1.489 . S
C774 C338 1.490 . S
C804 C398 1.289 . S
C799 C237 1.289 . S
C829 C153 1.373 . S
C834 C340 1.373 . S
C864 C396 1.400 . S
C859 C165 1.398 . S
C889 C177 1.374 . S
C894 C341 1.374 . S
C919 C189 1.518 . S
C924 C397 1.519 . S
C954 C447 1.433 . S
C949 C141 1.432 . S
C979 C117 1.319 . S
C984 C446 1.320 . S
C1009 C105 1.319 . S
C1014 C448 1.320 . S
C1044 C449 1.433 . S
C1039 C129 1.432 . S
C1069 C57 1.496 . S
C1074 C490 1.496 . S
C1099 C69 1.412 . S
C1104 C549 1.412 . S
C1129 C81 1.489 . S
C1134 C488 1.490 . S
C1159 C93 1.289 . S
C1164 C548 1.290 . S
C1194 C489 1.373 . S
C1189 C9 1.373 . S
C1224 C546 1.400 . S
C1219 C21 1.398 . S
C1249 C33 1.374 . S
C1254 C491 1.374 . S
C1284 C547 1.519 . S
C1279 C45 1.519 . S
C1314 C291 1.359 . S
C1309 C4 1.263 . S
C1339 C18 1.555 . S
C1344 C297 1.596 . S
C1369 C30 1.679 . S
C1374 C289 1.719 . S
C1399 C42 1.720 . S
C1404 C296 1.759 . S
C1429 C52 1.273 . S
C1434 C288 1.370 . S
C1464 C298 1.701 . S
C1459 C66 1.663 . S
C1489 C78 1.693 . S
C1494 C290 1.732 . S
C1524 C299 1.190 . S
C1519 C88 1.104 1_545 S
C1554 C345 1.397 . S
C1549 C40 1.306 . S
C1579 C6 1.655 . S
C1584 C388 1.694 . S
C1614 C343 1.429 . S
C1609 C16 1.336 . S
C1644 C390 1.336 . S
C1639 C28 1.241 . S
C1669 C64 1.211 1_545 S
C1674 C344 1.303 . S
C1704 C389 1.456 . S
C1699 C76 1.360 . S
C1734 C342 1.696 . S
C1729 C90 1.657 . S
C1764 C391 1.831 . S
C1759 C54 1.796 . S
C1794 C395 1.583 . S
C1789 C102 1.542 . S
C1819 C114 1.541 . S
C1824 C394 1.582 . S
C1854 C346 1.242 . S
C1849 C100 1.158 . S
C1884 C393 1.294 . S
C1879 C124 1.206 . S
C1909 C138 1.671 . S
C1914 C349 1.709 . S
C1939 C136 1.205 . S
C1944 C392 1.293 . S
C1974 C348 1.242 . S
C1969 C112 1.158 . S
C2004 C347 1.710 . S
C1999 C126 1.672 . S
C2034 C441 1.359 . S
C2029 C148 1.263 . S
C2064 C444 1.596 . S
C2059 C162 1.555 . S
C2089 C174 1.679 . S
C2094 C440 1.719 . S
C2124 C442 1.759 . S
C2119 C186 1.720 . S
C2154 C438 1.370 . S
C2149 C196 1.273 . S
C2179 C210 1.663 . S
C2184 C443 1.700 . S
C2209 C222 1.693 . S
C2214 C439 1.732 . S
C2244 C445 1.191 . S
C2239 C232 1.105 . S
C2274 C499 1.397 . S
C2269 C184 1.306 . S
C2299 C150 1.655 . S
C2304 C538 1.694 . S
C2334 C498 1.429 . S
C2329 C160 1.335 . S
C2364 C540 1.336 . S
C2359 C172 1.241 . S
C2394 C497 1.303 . S
C2389 C208 1.211 . S
C2419 C220 1.360 . S
C2424 C539 1.456 . S
C2454 C496 1.696 . S
C2449 C234 1.657 . S
C2484 C541 1.831 . S
C2479 C198 1.796 . S
C2514 C545 1.583 . S
C2509 C246 1.542 . S
C2539 C258 1.541 . S
C2544 C544 1.582 . S
C2574 C492 1.242 . S
C2569 C244 1.158 . S
C2599 C268 1.206 . S
C2604 C543 1.294 . S
C2634 C495 1.709 . S
C2629 C282 1.671 . S
C2664 C542 1.293 . S
C2659 C280 1.205 . S
C2694 C493 1.242 . S
C2689 C256 1.158 . S
C2719 C270 1.672 . S
C2724 C494 1.710 . S
