# Generated by pormake.
# Topology ant, (3,6)-cn, num edge types: 1
# Building blocks:
#     Node 0, Type 0, BuildingBlock: BETDAH_clean_linker_0, # of connection points: 3
#     Node 1, Type 0, BuildingBlock: BETDAH_clean_linker_0, # of connection points: 3
#     Node 2, Type 0, BuildingBlock: BETDAH_clean_linker_0, # of connection points: 3
#     Node 3, Type 0, BuildingBlock: BETDAH_clean_linker_0, # of connection points: 3
#     Node 4, Type 0, BuildingBlock: BETDAH_clean_linker_0, # of connection points: 3
#     Node 5, Type 0, BuildingBlock: BETDAH_clean_linker_0, # of connection points: 3
#     Node 6, Type 0, BuildingBlock: BETDAH_clean_linker_0, # of connection points: 3
#     Node 7, Type 0, BuildingBlock: BETDAH_clean_linker_0, # of connection points: 3
#     Node 8, Type 1, BuildingBlock: MIDCAF_clean_sbu_0, # of connection points: 6
#     Node 9, Type 1, BuildingBlock: MIDCAF_clean_sbu_0, # of connection points: 6
#     Node 10, Type 1, BuildingBlock: MIDCAF_clean_sbu_0, # of connection points: 6
#     Node 11, Type 1, BuildingBlock: MIDCAF_clean_sbu_0, # of connection points: 6
#     Edge 12, Type (0, 1), BuildingBlock: XUDNAN_clean_linker_2, # of connection points: 2
#     Edge 13, Type (0, 1), BuildingBlock: XUDNAN_clean_linker_2, # of connection points: 2
#     Edge 14, Type (0, 1), BuildingBlock: XUDNAN_clean_linker_2, # of connection points: 2
#     Edge 15, Type (0, 1), BuildingBlock: XUDNAN_clean_linker_2, # of connection points: 2
#     Edge 16, Type (0, 1), BuildingBlock: XUDNAN_clean_linker_2, # of connection points: 2
#     Edge 17, Type (0, 1), BuildingBlock: XUDNAN_clean_linker_2, # of connection points: 2
#     Edge 18, Type (0, 1), BuildingBlock: XUDNAN_clean_linker_2, # of connection points: 2
#     Edge 19, Type (0, 1), BuildingBlock: XUDNAN_clean_linker_2, # of connection points: 2
#     Edge 20, Type (0, 1), BuildingBlock: XUDNAN_clean_linker_2, # of connection points: 2
#     Edge 21, Type (0, 1), BuildingBlock: XUDNAN_clean_linker_2, # of connection points: 2
#     Edge 22, Type (0, 1), BuildingBlock: XUDNAN_clean_linker_2, # of connection points: 2
#     Edge 23, Type (0, 1), BuildingBlock: XUDNAN_clean_linker_2, # of connection points: 2
#     Edge 24, Type (0, 1), BuildingBlock: XUDNAN_clean_linker_2, # of connection points: 2
#     Edge 25, Type (0, 1), BuildingBlock: XUDNAN_clean_linker_2, # of connection points: 2
#     Edge 26, Type (0, 1), BuildingBlock: XUDNAN_clean_linker_2, # of connection points: 2
#     Edge 27, Type (0, 1), BuildingBlock: XUDNAN_clean_linker_2, # of connection points: 2
#     Edge 28, Type (0, 1), BuildingBlock: XUDNAN_clean_linker_2, # of connection points: 2
#     Edge 29, Type (0, 1), BuildingBlock: XUDNAN_clean_linker_2, # of connection points: 2
#     Edge 30, Type (0, 1), BuildingBlock: XUDNAN_clean_linker_2, # of connection points: 2
#     Edge 31, Type (0, 1), BuildingBlock: XUDNAN_clean_linker_2, # of connection points: 2
#     Edge 32, Type (0, 1), BuildingBlock: XUDNAN_clean_linker_2, # of connection points: 2
#     Edge 33, Type (0, 1), BuildingBlock: XUDNAN_clean_linker_2, # of connection points: 2
#     Edge 34, Type (0, 1), BuildingBlock: XUDNAN_clean_linker_2, # of connection points: 2
#     Edge 35, Type (0, 1), BuildingBlock: XUDNAN_clean_linker_2, # of connection points: 2
# Relax obj value: 0.057
# Max RMSD: 0.149
# Mean RMSD: 0.092
data_MOF--net-ant--node1-MIDCAF_clean_sbu_0--node2-BETDAH_clean_linker_0--edge1-XUDNAN_clean_linker_2
_symmetry_space_group_name_H-M    P1
_symmetry_Int_Tables_number       1
_symmetry_cell_setting            triclinic
loop_
_symmetry_equiv_pos_as_xyz
'x, y, z'
_cell_length_a     29.474568
_cell_length_b     29.042399
_cell_length_c     70.069289
_cell_angle_alpha  94.197702
_cell_angle_beta   98.263062
_cell_angle_gamma 89.723717
loop_
_atom_site_label
_atom_site_type_symbol
_atom_site_fract_x
_atom_site_fract_y
_atom_site_fract_z
_atom_type_partial_charge
H0 H 0.16933 0.30797 0.04054 0.0
H1 H 0.21696 0.18107 0.06442 0.0
H2 H 0.24078 0.30983 0.09862 0.0
C3 C 0.18633 0.28981 0.05249 0.0
C4 C 0.20355 0.31513 0.06989 0.0
C5 C 0.1911 0.24143 0.05029 0.0
C6 C 0.21341 0.21824 0.06591 0.0
C7 C 0.23127 0.24294 0.08337 0.0
C8 C 0.22632 0.29111 0.08519 0.0
N9 N 0.2549 0.22069 0.09931 0.0
C10 C 0.25716 0.17302 0.10054 0.0
H11 H 0.17395 0.77434 0.3015 0.0
H12 H 0.03282 0.79982 0.30677 0.0
H13 H 0.13456 0.81747 0.35707 0.0
C14 C 0.14833 0.78465 0.31056 0.0
C15 C 0.16116 0.79565 0.33054 0.0
C16 C 0.10241 0.78727 0.30187 0.0
C17 C 0.06829 0.7985 0.31342 0.0
C18 C 0.08009 0.80794 0.33348 0.0
C19 C 0.1263 0.80791 0.34175 0.0
N20 N 0.04653 0.81778 0.34582 0.0
C21 C -0.00026 0.81036 0.3404 0.0
H22 H 0.67923 0.81403 0.54064 0.0
H23 H 0.72353 0.68642 0.56441 0.0
H24 H 0.74821 0.81477 0.59923 0.0
C25 C 0.6957 0.79588 0.55273 0.0
C26 C 0.71315 0.82079 0.57019 0.0
C27 C 0.69922 0.74757 0.55071 0.0
C28 C 0.72052 0.72363 0.5662 0.0
C29 C 0.73811 0.74781 0.58383 0.0
C30 C 0.73414 0.79622 0.5857 0.0
N31 N 0.76055 0.72483 0.59983 0.0
C32 C 0.76373 0.67701 0.6006 0.0
H33 H 0.66652 0.26982 0.7965 0.0
H34 H 0.52451 0.2894 0.80147 0.0
H35 H 0.62653 0.32835 0.85003 0.0
C36 C 0.64084 0.28224 0.80519 0.0
C37 C 0.65352 0.29923 0.82457 0.0
C38 C 0.59466 0.27975 0.79678 0.0
C39 C 0.56014 0.29222 0.80793 0.0
C40 C 0.57197 0.30911 0.82731 0.0
C41 C 0.61834 0.31382 0.83527 0.0
N42 N 0.53831 0.32207 0.83926 0.0
C43 C 0.49306 0.30661 0.83598 0.0
H44 H 0.01045 0.60163 0.93876 0.0
H45 H 0.0219 0.75034 0.94277 0.0
H46 H 0.97376 0.6758 0.88829 0.0
C47 C 0.00589 0.63443 0.93229 0.0
C48 C 0.98984 0.63421 0.91253 0.0
C49 C 0.01758 0.67592 0.94353 0.0
C50 C 0.01376 0.71789 0.93438 0.0
C51 C -0.00216 0.71786 0.9144 0.0
C52 C 0.98591 0.67591 0.90365 0.0
N53 N 0.99189 0.75904 0.90456 0.0
C54 C 0.01156 0.80201 0.91085 0.0
H55 H 0.57975 0.78219 0.199 0.0
H56 H 0.72279 0.80684 0.19813 0.0
H57 H 0.62434 0.84388 0.15059 0.0
C58 C 0.60658 0.79463 0.19161 0.0
C59 C 0.59552 0.81309 0.17347 0.0
C60 C 0.6522 0.79331 0.20072 0.0
C61 C 0.68758 0.80795 0.19113 0.0
C62 C 0.67731 0.82501 0.17277 0.0
C63 C 0.63152 0.82861 0.16434 0.0
N64 N 0.71198 0.84011 0.16255 0.0
C65 C 0.75788 0.828 0.16636 0.0
H66 H 0.51643 0.10639 0.44257 0.0
H67 H 0.56033 0.24687 0.43949 0.0
H68 H 0.49838 0.16771 0.38821 0.0
C69 C 0.51989 0.13609 0.43439 0.0
C70 C 0.50518 0.13226 0.41443 0.0
C71 C 0.5408 0.1768 0.44366 0.0
C72 C 0.54414 0.21528 0.43269 0.0
C73 C 0.5279 0.21228 0.41271 0.0
C74 C 0.5093 0.1705 0.40371 0.0
N75 N 0.5307 0.24971 0.40094 0.0
C76 C 0.54706 0.294 0.40714 0.0
H77 H 0.09285 0.28466 0.70203 0.0
H78 H 0.23693 0.3003 0.70115 0.0
H79 H 0.14132 0.34198 0.65345 0.0
C80 C 0.12031 0.2956 0.69464 0.0
C81 C 0.11034 0.31426 0.6765 0.0
C82 C 0.16569 0.2916 0.70374 0.0
C83 C 0.20195 0.30382 0.69417 0.0
C84 C 0.19299 0.32077 0.67575 0.0
C85 C 0.14742 0.32699 0.66727 0.0
N86 N 0.22893 0.33251 0.66543 0.0
C87 C 0.27463 0.32026 0.67036 0.0
Zn88 Zn 0.21217 0.69945 0.14771 0.0
Zn89 Zn 0.11423 0.80185 0.10609 0.0
Zn90 Zn 0.16322 0.75033 0.12454 0.0
C91 C 0.13233 0.73208 0.07992 0.0
C92 C 0.18595 0.85679 0.11912 0.0
O93 O 0.13277 0.74818 0.15218 0.0
O94 O 0.18171 0.70704 0.17079 0.0
C95 C 0.18187 0.64187 0.11459 0.0
O96 O 0.14364 0.7127 0.09588 0.0
O97 O 0.12353 0.77464 0.08033 0.0
O98 O 0.1434 0.86158 0.11453 0.0
O99 O 0.20241 0.81597 0.12161 0.0
O100 O 0.20182 0.64065 0.13173 0.0
O101 O 0.16657 0.6806 0.10836 0.0
O102 O 0.23213 0.78281 0.13022 0.0
O103 O 0.27079 0.73307 0.14874 0.0
C104 C 0.2698 0.76945 0.13989 0.0
O105 O 0.09978 0.7643 0.13819 0.0
O106 O 0.05421 0.79367 0.11439 0.0
C107 C 0.14583 0.731 0.16858 0.0
C108 C 0.05989 0.77874 0.131 0.0
Zn109 Zn 0.5464 0.66131 0.3458 0.0
Zn110 Zn 0.64687 0.77453 0.39391 0.0
Zn111 Zn 0.59465 0.7184 0.37232 0.0
C112 C 0.56616 0.82155 0.38305 0.0
C113 C 0.69647 0.75578 0.3657 0.0
O114 O 0.5946 0.65041 0.38538 0.0
O115 O 0.5633 0.60553 0.36005 0.0
C116 C 0.48626 0.72913 0.35803 0.0
O117 O 0.55241 0.78003 0.3776 0.0
O118 O 0.60786 0.82952 0.38936 0.0
O119 O 0.70405 0.77271 0.3829 0.0
O120 O 0.65701 0.73734 0.3589 0.0
O121 O 0.48608 0.69193 0.34749 0.0
O122 O 0.52384 0.74523 0.36788 0.0
O123 O 0.62346 0.71676 0.34448 0.0
O124 O 0.57657 0.67286 0.3232 0.0
C125 C 0.61075 0.69965 0.32696 0.0
O126 O 0.61379 0.68443 0.39987 0.0
O127 O 0.64726 0.74396 0.4179 0.0
C128 C 0.58237 0.61001 0.37744 0.0
C129 C 0.63254 0.70299 0.4164 0.0
Zn130 Zn 0.62223 0.31331 0.61307 0.0
Zn131 Zn 0.72903 0.20013 0.64879 0.0
Zn132 Zn 0.67685 0.25402 0.6269 0.0
C133 C 0.78382 0.27491 0.64356 0.0
C134 C 0.70025 0.14922 0.613 0.0
O135 O 0.61534 0.26583 0.64299 0.0
O136 O 0.56993 0.31524 0.62711 0.0
C137 C 0.70207 0.36159 0.6215 0.0
O138 O 0.74633 0.28666 0.6332 0.0
O139 O 0.78526 0.23865 0.65251 0.0
O140 O 0.72313 0.14669 0.62956 0.0
O141 O 0.68035 0.18742 0.60831 0.0
O142 O 0.65986 0.36886 0.61714 0.0
O143 O 0.71637 0.32031 0.62475 0.0
O144 O 0.65358 0.22218 0.59744 0.0
O145 O 0.61375 0.28223 0.58697 0.0
C146 C 0.62944 0.24239 0.58366 0.0
O147 O 0.64837 0.24126 0.6541 0.0
O148 O 0.69574 0.19466 0.67087 0.0
C149 C 0.57778 0.28939 0.64084 0.0
C150 C 0.65949 0.21805 0.66911 0.0
Zn151 Zn 0.03891 0.16321 0.84452 0.0
Zn152 Zn 0.13031 0.27464 0.89315 0.0
Zn153 Zn 0.08492 0.21887 0.87161 0.0
C154 C 0.10611 0.20864 0.91604 0.0
C155 C 0.0593 0.32519 0.87818 0.0
O156 O 0.12012 0.21592 0.84541 0.0
O157 O 0.07392 0.17403 0.82318 0.0
C158 C 0.06686 0.11175 0.87703 0.0
O159 O 0.09937 0.186 0.89938 0.0
O160 O 0.11412 0.25146 0.91719 0.0
O161 O 0.10122 0.33196 0.88431 0.0
O162 O 0.04385 0.28347 0.87472 0.0
O163 O 0.05104 0.10705 0.85923 0.0
O164 O 0.07943 0.15201 0.88497 0.0
O165 O 0.01519 0.24806 0.86519 0.0
O166 O 0.97863 0.19519 0.84422 0.0
C167 C 0.97827 0.23267 0.85455 0.0
O168 O 0.15209 0.23155 0.86102 0.0
O169 O 0.19301 0.26439 0.88725 0.0
C170 C 0.10916 0.1992 0.82775 0.0
C171 C 0.19094 0.2469 0.87015 0.0
H172 H 0.18468 0.36848 0.10193 0.0
H173 H 0.20937 0.3786 0.04278 0.0
H174 H 0.19899 0.4631 0.04642 0.0
H175 H 0.09976 0.45904 0.10287 0.0
H176 H 0.1209 0.47957 0.12742 0.0
H177 H 0.12704 0.41965 0.11962 0.0
H178 H 0.21482 0.42538 0.13056 0.0
H179 H 0.20884 0.48509 0.13856 0.0
H180 H 0.2474 0.46913 0.12146 0.0
H181 H 0.18901 0.54884 0.05739 0.0
H182 H 0.18577 0.62556 0.0754 0.0
H183 H 0.16919 0.55759 0.12701 0.0
C184 C 0.18812 0.3883 0.08971 0.0
C185 C 0.19764 0.36645 0.07203 0.0
C186 C 0.20128 0.39411 0.0564 0.0
C187 C 0.19558 0.44231 0.05834 0.0
C188 C 0.18618 0.46263 0.07599 0.0
C189 C 0.1827 0.43634 0.09141 0.0
C190 C 0.17458 0.46635 0.10915 0.0
C191 C 0.12779 0.45549 0.11511 0.0
C192 C 0.21374 0.46118 0.12591 0.0
C193 C 0.17492 0.51372 0.10147 0.0
C194 C 0.18102 0.51116 0.08225 0.0
C195 C 0.18384 0.55109 0.07241 0.0
C196 C 0.18153 0.59455 0.08266 0.0
C197 C 0.17678 0.59754 0.10251 0.0
C198 C 0.17263 0.55645 0.11179 0.0
H199 H 0.95259 0.73561 0.34767 0.0
H200 H 0.93738 0.87167 0.3262 0.0
H201 H 0.85312 0.86575 0.3247 0.0
H202 H 0.84149 0.68503 0.31984 0.0
H203 H 0.8316 0.65269 0.33987 0.0
H204 H 0.8894 0.66388 0.33573 0.0
H205 H 0.9086 0.701 0.37073 0.0
H206 H 0.85108 0.68999 0.37493 0.0
H207 H 0.87394 0.74792 0.3787 0.0
H208 H 0.77491 0.85233 0.3321 0.0
H209 H 0.70692 0.83083 0.34634 0.0
H210 H 0.7696 0.7007 0.36092 0.0
C211 C 0.93113 0.76331 0.34202 0.0
C212 C 0.95075 0.80384 0.33678 0.0
C213 C 0.92243 0.84018 0.33 0.0
C214 C 0.87469 0.837 0.32907 0.0
C215 C 0.85609 0.79699 0.33478 0.0
C216 C 0.88335 0.76046 0.3409 0.0
C217 C 0.8553 0.72357 0.34819 0.0
C218 C 0.8544 0.67863 0.33512 0.0
C219 C 0.8733 0.71518 0.36939 0.0
C220 C 0.80856 0.74618 0.34624 0.0
C221 C 0.80971 0.78825 0.33822 0.0
C222 C 0.77287 0.81859 0.33754 0.0
C223 C 0.73425 0.80599 0.34553 0.0
C224 C 0.73196 0.76283 0.35345 0.0
C225 C 0.76948 0.73248 0.35373 0.0
H226 H 0.72031 0.63045 0.62456 0.0
H227 H 0.81461 0.61361 0.58263 0.0
H228 H 0.81985 0.52965 0.58748 0.0
H229 H 0.77221 0.54453 0.65719 0.0
H230 H 0.71731 0.52526 0.66212 0.0
H231 H 0.72486 0.58417 0.65664 0.0
H232 H 0.65719 0.57508 0.6285 0.0
H233 H 0.64898 0.51666 0.63419 0.0
H234 H 0.65791 0.52841 0.6101 0.0
H235 H 0.80905 0.44544 0.59538 0.0
H236 H 0.77727 0.37077 0.60282 0.0
H237 H 0.69157 0.44452 0.63984 0.0
C238 C 0.7424 0.60902 0.61658 0.0
C239 C 0.76716 0.62803 0.60328 0.0
C240 C 0.79547 0.59931 0.59291 0.0
C241 C 0.79884 0.55175 0.59569 0.0
C242 C 0.77394 0.53376 0.60901 0.0
C243 C 0.74615 0.56171 0.61922 0.0
C244 C 0.72011 0.5339 0.63155 0.0
C245 C 0.7345 0.54781 0.65315 0.0
C246 C 0.66799 0.53879 0.62572 0.0
C247 C 0.73631 0.4857 0.62628 0.0
C248 C 0.76802 0.48608 0.61355 0.0
C249 C 0.78486 0.44491 0.60561 0.0
C250 C 0.76714 0.40255 0.61009 0.0
C251 C 0.73275 0.40198 0.6222 0.0
C252 C 0.71872 0.44403 0.63092 0.0
H253 H 0.73192 0.30709 0.8071 0.0
H254 H 0.68854 0.29034 0.863 0.0
H255 H 0.76902 0.28565 0.87756 0.0
H256 H 0.81302 0.21992 0.81164 0.0
H257 H 0.85328 0.24734 0.79895 0.0
H258 H 0.79313 0.25954 0.79365 0.0
H259 H 0.81038 0.34698 0.8011 0.0
H260 H 0.87073 0.33491 0.80656 0.0
H261 H 0.84183 0.36714 0.82416 0.0
H262 H 0.85423 0.27526 0.8858 0.0
H263 H 0.93495 0.25081 0.88589 0.0
H264 H 0.92143 0.26417 0.82421 0.0
C265 C 0.73882 0.30254 0.82242 0.0
C266 C 0.70287 0.2997 0.83376 0.0
C267 C 0.71468 0.29425 0.85386 0.0
C268 C 0.76063 0.29123 0.86236 0.0
C269 C 0.79481 0.29309 0.85063 0.0
C270 C 0.78439 0.29808 0.83104 0.0
C271 C 0.82679 0.29285 0.82113 0.0
C272 C 0.82121 0.25251 0.80542 0.0
C273 C 0.83809 0.33817 0.81274 0.0
C274 C 0.86235 0.28241 0.83809 0.0
C275 C 0.84356 0.28426 0.85511 0.0
C276 C 0.8694 0.2742 0.87259 0.0
C277 C 0.91517 0.26056 0.87256 0.0
C278 C 0.9342 0.25638 0.85513 0.0
C279 C 0.90768 0.26802 0.83776 0.0
H280 H 0.04021 0.59262 0.88691 0.0
H281 H 0.92074 0.57394 0.91487 0.0
H282 H 0.91516 0.49216 0.90196 0.0
H283 H 0.00907 0.50406 0.84375 0.0
H284 H 0.06802 0.48608 0.84521 0.0
H285 H 0.05461 0.54529 0.85173 0.0
H286 H 0.10382 0.53994 0.88526 0.0
H287 H 0.11715 0.48101 0.8789 0.0
H288 H 0.09132 0.49534 0.90037 0.0
H289 H 0.93198 0.4099 0.89184 0.0
H290 H 0.9722 0.33572 0.88731 0.0
H291 H 0.08159 0.40754 0.86655 0.0
C292 C 0.01158 0.57173 0.88939 0.0
C293 C 0.9801 0.58945 0.90133 0.0
C294 C 0.9444 0.5609 0.9053 0.0
C295 C 0.941 0.51453 0.89801 0.0
C296 C 0.97371 0.4973 0.88684 0.0
C297 C 0.00826 0.52523 0.88247 0.0
C298 C 0.04374 0.49707 0.87325 0.0
C299 C 0.04384 0.50883 0.85223 0.0
C300 C 0.09179 0.50372 0.88516 0.0
C301 C 0.02529 0.44885 0.87412 0.0
C302 C 0.98415 0.44956 0.88144 0.0
C303 C 0.96347 0.40892 0.88557 0.0
C304 C 0.98627 0.36681 0.88281 0.0
C305 C 0.02942 0.36597 0.87627 0.0
C306 C 0.04815 0.40727 0.87125 0.0
H307 H 0.82049 0.87617 0.1521 0.0
H308 H 0.80169 0.75388 0.18189 0.0
H309 H 0.88226 0.73092 0.17955 0.0
H310 H 0.88123 0.82414 0.11821 0.0
H311 H 0.91896 0.87233 0.1173 0.0
H312 H 0.86309 0.88217 0.12415 0.0
H313 H 0.89967 0.92572 0.15628 0.0
H314 H 0.95582 0.91622 0.14944 0.0
H315 H 0.94321 0.89779 0.17213 0.0
H316 H 0.96316 0.71816 0.17061 0.0
H317 H 0.03416 0.71592 0.15521 0.0
H318 H -0.00293 0.84633 0.13107 0.0
C319 C 0.83393 0.84526 0.1586 0.0
C320 C 0.80581 0.81698 0.16741 0.0
C321 C 0.82349 0.77613 0.17533 0.0
C322 C 0.86905 0.76297 0.17407 0.0
C323 C 0.89604 0.79126 0.16489 0.0
C324 C 0.879 0.83173 0.15739 0.0
C325 C 0.91291 0.85409 0.14666 0.0
C326 C 0.89284 0.85839 0.12533 0.0
C327 C 0.92885 0.90125 0.15674 0.0
C328 C 0.95111 0.8192 0.14864 0.0
C329 C 0.94144 0.78354 0.15948 0.0
C330 C 0.97124 0.74625 0.16232 0.0
C331 C 0.01143 0.74522 0.15358 0.0
C332 C 0.02093 0.78103 0.14207 0.0
C333 C 0.99062 0.81856 0.13987 0.0
H334 H 0.57887 0.33902 0.3799 0.0
H335 H 0.54463 0.3568 0.43798 0.0
H336 H 0.56037 0.4411 0.43869 0.0
H337 H 0.66971 0.42951 0.38527 0.0
H338 H 0.65207 0.44632 0.36108 0.0
H339 H 0.64483 0.38737 0.36657 0.0
H340 H 0.55818 0.39138 0.35339 0.0
H341 H 0.56515 0.45014 0.34788 0.0
H342 H 0.52379 0.43619 0.3632 0.0
H343 H 0.57213 0.52539 0.4311 0.0
H344 H 0.57493 0.59935 0.41565 0.0
H345 H 0.60076 0.5244 0.36266 0.0
C346 C 0.576 0.3606 0.39296 0.0
C347 C 0.5614 0.34186 0.40901 0.0
C348 C 0.55657 0.37085 0.42568 0.0
C349 C 0.56546 0.41862 0.42617 0.0
C350 C 0.57919 0.43645 0.40987 0.0
C351 C 0.58455 0.40805 0.39361 0.0
C352 C 0.5953 0.43556 0.37729 0.0
C353 C 0.64334 0.424 0.37227 0.0
C354 C 0.5584 0.42787 0.3594 0.0
C355 C 0.59373 0.48407 0.38659 0.0
C356 C 0.58524 0.48418 0.40549 0.0
C357 C 0.57962 0.52553 0.41643 0.0
C358 C 0.58168 0.56749 0.40765 0.0
C359 C 0.58874 0.56768 0.38811 0.0
C360 C 0.59577 0.52538 0.37771 0.0
H361 H 0.03339 0.33014 0.69459 0.0
H362 H 0.07494 0.31055 0.63748 0.0
H363 H 0.99428 0.3157 0.62281 0.0
H364 H 0.94275 0.25268 0.68385 0.0
H365 H 0.90647 0.28359 0.69897 0.0
H366 H 0.96769 0.28889 0.70468 0.0
H367 H 0.9607 0.37786 0.70404 0.0
H368 H 0.8993 0.37261 0.698 0.0
H369 H 0.93178 0.40241 0.68272 0.0
H370 H 0.90758 0.315 0.61422 0.0
H371 H 0.82523 0.29599 0.61293 0.0
H372 H 0.84141 0.30615 0.67546 0.0
C373 C 0.02609 0.32687 0.67899 0.0
C374 C 0.06149 0.32015 0.66736 0.0
C375 C 0.04928 0.31696 0.64693 0.0
C376 C 0.00324 0.31971 0.63838 0.0
C377 C 0.9694 0.32524 0.65035 0.0
C378 C 0.98038 0.32813 0.67025 0.0
C379 C 0.93781 0.32698 0.68 0.0
C380 C 0.93874 0.28557 0.6926 0.0
C381 C 0.93208 0.3727 0.69189 0.0
C382 C 0.90114 0.32128 0.66249 0.0
C383 C 0.91976 0.32205 0.64549 0.0
C384 C 0.89263 0.31492 0.62745 0.0
C385 C 0.84582 0.30458 0.62682 0.0
C386 C 0.82713 0.30041 0.64409 0.0
C387 C 0.85484 0.31023 0.66207 0.0
H388 H 0.34542 0.3778 0.66988 0.0
H389 H 0.31092 0.23565 0.67613 0.0
H390 H 0.39237 0.21362 0.67596 0.0
H391 H 0.41542 0.35642 0.63638 0.0
H392 H 0.45653 0.40174 0.64493 0.0
H393 H 0.39873 0.40726 0.64998 0.0
H394 H 0.42886 0.41926 0.68657 0.0
H395 H 0.48715 0.41291 0.68176 0.0
H396 H 0.4654 0.37649 0.69817 0.0
H397 H 0.47455 0.20557 0.66937 0.0
H398 H 0.54653 0.21184 0.65524 0.0
H399 H 0.52693 0.35937 0.65363 0.0
C400 C 0.35557 0.3424 0.67193 0.0
C401 C 0.32263 0.30841 0.67332 0.0
C402 C 0.33623 0.26213 0.67536 0.0
C403 C 0.38236 0.24944 0.67535 0.0
C404 C 0.41426 0.28364 0.67346 0.0
C405 C 0.40136 0.32932 0.67194 0.0
C406 C 0.44039 0.35849 0.66752 0.0
C407 C 0.42695 0.38232 0.64858 0.0
C408 C 0.4564 0.39388 0.68452 0.0
C409 C 0.47626 0.32173 0.66547 0.0
C410 C 0.46129 0.27894 0.66951 0.0
C411 C 0.48702 0.23909 0.66663 0.0
C412 C 0.52798 0.24291 0.6587 0.0
C413 C 0.54236 0.28615 0.6536 0.0
C414 C 0.51694 0.32602 0.6577 0.0
H415 H 0.51831 0.82708 0.19136 0.0
H416 H 0.56093 0.80595 0.13451 0.0
H417 H 0.48038 0.8094 0.11952 0.0
H418 H 0.42791 0.7492 0.18101 0.0
H419 H 0.39111 0.78082 0.19569 0.0
H420 H 0.45226 0.78651 0.2016 0.0
H421 H 0.44493 0.87527 0.20008 0.0
H422 H 0.38361 0.86961 0.19383 0.0
H423 H 0.41637 0.89857 0.1784 0.0
H424 H 0.39439 0.80708 0.11064 0.0
H425 H 0.31211 0.78754 0.10918 0.0
H426 H 0.32648 0.80211 0.17166 0.0
C427 C 0.51114 0.82323 0.17575 0.0
C428 C 0.5467 0.8167 0.16424 0.0
C429 C 0.53493 0.81234 0.1438 0.0
C430 C 0.48904 0.81415 0.13508 0.0
C431 C 0.45501 0.81998 0.14692 0.0
C432 C 0.46556 0.82383 0.16684 0.0
C433 C 0.42277 0.82315 0.17643 0.0
C434 C 0.42357 0.7825 0.18943 0.0
C435 C 0.41657 0.86942 0.18786 0.0
C436 C 0.38655 0.81646 0.15882 0.0
C437 C 0.40557 0.81633 0.14189 0.0
C438 C 0.37904 0.80782 0.12379 0.0
C439 C 0.33234 0.79714 0.12305 0.0
C440 C 0.31323 0.79426 0.1403 0.0
C441 C 0.34032 0.80529 0.1583 0.0
H442 H 0.43304 0.34804 0.85672 0.0
H443 H 0.4487 0.23248 0.81561 0.0
H444 H 0.37002 0.20523 0.81823 0.0
H445 H 0.37612 0.28779 0.88772 0.0
H446 H 0.33879 0.33465 0.89333 0.0
H447 H 0.39395 0.34673 0.88663 0.0
H448 H 0.35526 0.39428 0.85888 0.0
H449 H 0.29994 0.38263 0.86561 0.0
H450 H 0.31058 0.36808 0.8412 0.0
H451 H 0.29005 0.18893 0.82735 0.0
H452 H 0.21833 0.18526 0.84206 0.0
H453 H 0.25799 0.31167 0.87715 0.0
C454 C 0.41942 0.31749 0.84801 0.0
C455 C 0.44612 0.29247 0.83581 0.0
C456 C 0.42807 0.2522 0.82487 0.0
C457 C 0.38359 0.23657 0.8263 0.0
C458 C 0.35801 0.26178 0.83873 0.0
C459 C 0.3754 0.30154 0.84932 0.0
C460 C 0.34253 0.32133 0.86239 0.0
C461 C 0.36415 0.32267 0.88378 0.0
C462 C 0.3261 0.36943 0.85667 0.0
C463 C 0.30421 0.28614 0.85788 0.0
C464 C 0.31323 0.25219 0.84408 0.0
C465 C 0.28263 0.21558 0.83806 0.0
C466 C 0.24202 0.21374 0.84645 0.0
C467 C 0.23261 0.24825 0.86066 0.0
C468 C 0.26425 0.28472 0.86633 0.0
H469 H 0.23962 0.80795 0.3136 0.0
H470 H 0.19621 0.77727 0.36813 0.0
H471 H 0.27675 0.77149 0.38249 0.0
H472 H 0.32171 0.72085 0.31517 0.0
H473 H 0.36136 0.75201 0.30348 0.0
H474 H 0.30099 0.76355 0.29865 0.0
H475 H 0.31703 0.85023 0.3089 0.0
H476 H 0.37757 0.83875 0.31398 0.0
H477 H 0.3482 0.86678 0.33245 0.0
H478 H 0.36252 0.7633 0.39056 0.0
H479 H 0.44371 0.74127 0.38989 0.0
H480 H 0.42921 0.76549 0.32909 0.0
C481 C 0.24642 0.79989 0.32856 0.0
C482 C 0.21048 0.79374 0.33961 0.0
C483 C 0.2223 0.78385 0.35928 0.0
C484 C 0.26829 0.7802 0.36765 0.0
C485 C 0.30246 0.78571 0.35618 0.0
C486 C 0.29198 0.79455 0.33696 0.0
C487 C 0.33434 0.79248 0.32698 0.0
C488 C 0.32929 0.75499 0.31009 0.0
C489 C 0.34489 0.83989 0.32018 0.0
C490 C 0.37009 0.77966 0.34346 0.0
C491 C 0.35138 0.77756 0.36038 0.0
C492 C 0.37757 0.76513 0.37743 0.0
C493 C 0.42359 0.75291 0.37697 0.0
C494 C 0.44232 0.75221 0.3595 0.0
C495 C 0.41556 0.76652 0.34267 0.0
H496 H 0.6866 0.87607 0.60021 0.0
H497 H 0.73253 0.88215 0.54438 0.0
H498 H 0.72815 0.96747 0.54756 0.0
H499 H 0.60622 0.97172 0.59506 0.0
H500 H 0.61879 0.99211 0.62019 0.0
H501 H 0.6241 0.93163 0.61311 0.0
H502 H 0.70843 0.93287 0.62993 0.0
H503 H 0.70318 0.99314 0.6372 0.0
H504 H 0.74804 0.97423 0.62352 0.0
H505 H 0.72449 0.05392 0.55842 0.0
H506 H 0.72079 0.13131 0.57586 0.0
H507 H 0.67286 0.06752 0.62326 0.0
C508 C 0.69573 0.89533 0.58865 0.0
C509 C 0.70996 0.8723 0.57205 0.0
C510 C 0.72116 0.89893 0.55717 0.0
C511 C 0.71884 0.94746 0.55886 0.0
C512 C 0.70465 0.9691 0.57542 0.0
C513 C 0.69302 0.94373 0.58999 0.0
C514 C 0.67954 0.97504 0.60646 0.0
C515 C 0.62917 0.96715 0.60884 0.0
C516 C 0.71173 0.96843 0.62539 0.0
C517 C 0.6863 0.02199 0.59913 0.0
C518 C 0.70072 0.01814 0.58118 0.0
C519 C 0.71217 0.05725 0.57228 0.0
C520 C 0.70955 0.10114 0.58215 0.0
C521 C 0.69475 0.10554 0.60052 0.0
C522 C 0.68275 0.06531 0.60891 0.0
H523 H 0.2013 0.12683 0.11968 0.0
H524 H 0.31658 0.10982 0.08795 0.0
H525 H 0.31875 0.02603 0.09326 0.0
H526 H 0.23738 0.04263 0.15545 0.0
H527 H 0.17954 0.02296 0.15561 0.0
H528 H 0.19006 0.0817 0.15067 0.0
H529 H 0.13511 0.07087 0.11822 0.0
H530 H 0.12394 0.01254 0.12326 0.0
H531 H 0.14447 0.02378 0.10102 0.0
H532 H 0.30379 0.9421 0.10043 0.0
H533 H 0.26892 0.86741 0.10601 0.0
H534 H 0.16486 0.9415 0.13339 0.0
C535 C 0.22722 0.10539 0.11402 0.0
C536 C 0.25883 0.12423 0.10347 0.0
C537 C 0.29213 0.09556 0.09611 0.0
C538 C 0.29374 0.04813 0.09917 0.0
C539 C 0.26198 0.03029 0.10973 0.0
C540 C 0.22927 0.05822 0.11698 0.0
C541 C 0.197 0.03061 0.12668 0.0
C542 C 0.20128 0.04537 0.14839 0.0
C543 C 0.14721 0.03468 0.11669 0.0
C544 C 0.21565 0.98255 0.12332 0.0
C545 C 0.25361 0.98281 0.11382 0.0
C546 C 0.27451 0.94166 0.10813 0.0
C547 C 0.2549 0.89935 0.11154 0.0
C548 C 0.21468 0.89879 0.12036 0.0
C549 C 0.19604 0.94097 0.12686 0.0
H550 H 0.54282 0.08693 0.38553 0.0
H551 H 0.43996 0.0731 0.42303 0.0
H552 H 0.43095 0.99022 0.41214 0.0
H553 H 0.49694 0.99254 0.3462 0.0
H554 H 0.55472 0.97496 0.34382 0.0
H555 H 0.54254 0.03481 0.34975 0.0
H556 H 0.60402 0.03498 0.38019 0.0
H557 H 0.61614 0.97549 0.37444 0.0
H558 H 0.59984 0.99323 0.39769 0.0
H559 H 0.44478 0.90672 0.40246 0.0
H560 H 0.4842 0.83219 0.39709 0.0
H561 H 0.58037 0.90072 0.36732 0.0
C562 C 0.51667 0.06689 0.39062 0.0
C563 C 0.4914 0.08636 0.40476 0.0
C564 C 0.45909 0.05878 0.41192 0.0
C565 C 0.45365 0.01176 0.40575 0.0
C566 C 0.48079 0.99289 0.39242 0.0
C567 C 0.51155 0.01985 0.38486 0.0
C568 C 0.54278 0.99047 0.37371 0.0
C569 C 0.53368 0.99869 0.35208 0.0
C570 C 0.59365 0.99904 0.38202 0.0
C571 C 0.52706 0.94279 0.37729 0.0
C572 C 0.4901 0.94461 0.38745 0.0
C573 C 0.47296 0.90484 0.39409 0.0
C574 C 0.49534 0.86262 0.39095 0.0
C575 C 0.53486 0.86111 0.38168 0.0
C576 C 0.54968 0.90121 0.37418 0.0
H577 H 0.04607 0.8423 0.88306 0.0
H578 H 0.0126 0.86764 0.94101 0.0
H579 H 0.03267 0.95071 0.94056 0.0
H580 H 0.14132 0.92734 0.88707 0.0
H581 H 0.12453 0.94272 0.8626 0.0
H582 H 0.11413 0.88507 0.86894 0.0
H583 H 0.02784 0.89309 0.85579 0.0
H584 H 0.03795 0.95063 0.84946 0.0
H585 H -0.00403 0.94072 0.86508 0.0
H586 H 0.04947 0.03341 0.93182 0.0
H587 H 0.05747 0.10536 0.91547 0.0
H588 H 0.07854 0.02354 0.86329 0.0
C589 C 0.04432 0.8652 0.89586 0.0
C590 C 0.02877 0.8489 0.9122 0.0
C591 C 0.02534 0.8797 0.9285 0.0
C592 C 0.03664 0.92682 0.92832 0.0
C593 C 0.05123 0.94221 0.91173 0.0
C594 C 0.05518 0.91201 0.89583 0.0
C595 C 0.06735 0.93712 0.87909 0.0
C596 C 0.11465 0.92217 0.87414 0.0
C597 C 0.03005 0.92997 0.86132 0.0
C598 C 0.06844 0.9864 0.88774 0.0
C599 C 0.05985 0.98895 0.90668 0.0
C600 C 0.05687 0.03157 0.9171 0.0
C601 C 0.06179 0.07233 0.90777 0.0
C602 C 0.06906 0.07007 0.88818 0.0
C603 C 0.07327 0.02644 0.87831 0.0
H604 H 0.11226 0.25646 0.02559 0.0
H605 H 0.23284 0.16962 0.03177 0.0
H606 H 0.2105 0.1354 0.9985 0.0
H607 H 0.03491 0.17541 0.99047 0.0
H608 H 0.01137 0.22313 0.97729 0.0
H609 H 0.02942 0.23114 0.00302 0.0
H610 H 0.08287 0.2985 0.99789 0.0
H611 H 0.06455 0.29099 0.97234 0.0
H612 H 0.12475 0.28867 0.98166 0.0
H613 H 0.18389 0.12203 0.96276 0.0
H614 H 0.16036 0.137 0.92838 0.0
H615 H 0.05977 0.23483 0.94523 0.0
C616 C 0.13352 0.22954 0.02012 0.0
C617 C 0.17429 0.21579 0.03138 0.0
C618 C 0.20098 0.18028 0.02362 0.0
C619 C 0.18852 0.16055 0.00468 0.0
C620 C 0.14905 0.17634 0.99368 0.0
C621 C 0.12188 0.21003 0.00121 0.0
C622 C 0.08573 0.22674 0.98574 0.0
C623 C 0.0375 0.21328 0.98935 0.0
C624 C 0.08978 0.27929 0.98432 0.0
C625 C 0.09875 0.19965 0.96807 0.0
C626 C 0.1342 0.16938 0.97296 0.0
C627 C 0.15537 0.14469 0.9588 0.0
C628 C 0.14165 0.15307 0.9393 0.0
C629 C 0.10784 0.18645 0.93432 0.0
C630 C 0.08482 0.20822 0.94877 0.0
H631 H 0.12768 0.71509 0.27862 0.0
H632 H 0.05327 0.84405 0.27721 0.0
H633 H 0.04544 0.83814 0.24143 0.0
H634 H 0.1933 0.73542 0.24409 0.0
H635 H 0.19278 0.67715 0.23324 0.0
H636 H 0.18493 0.68738 0.25814 0.0
H637 H 0.10799 0.64212 0.25128 0.0
H638 H 0.11574 0.6315 0.22629 0.0
H639 H 0.0641 0.65868 0.2324 0.0
H640 H 0.05873 0.82499 0.20646 0.0
H641 H 0.08909 0.8041 0.17585 0.0
H642 H 0.15076 0.68164 0.20019 0.0
C643 C 0.10867 0.74139 0.27071 0.0
C644 C 0.09096 0.77992 0.28057 0.0
C645 C 0.06657 0.81395 0.26984 0.0
C646 C 0.06203 0.81088 0.24955 0.0
C647 C 0.08133 0.77312 0.24025 0.0
C648 C 0.10348 0.73857 0.25052 0.0
C649 C 0.1248 0.70375 0.23743 0.0
C650 C 0.17702 0.7008 0.24359 0.0
C651 C 0.10176 0.65619 0.23682 0.0
C652 C 0.11331 0.72526 0.21834 0.0
C653 C 0.08772 0.76494 0.2201 0.0
C654 C 0.07753 0.7932 0.20477 0.0
C655 C 0.09467 0.78096 0.18737 0.0
C656 C 0.12136 0.74068 0.18545 0.0
C657 C 0.12973 0.7122 0.20106 0.0
H658 H 0.74802 0.72079 0.52191 0.0
H659 H 0.61114 0.72132 0.53734 0.0
H660 H 0.58053 0.68862 0.50433 0.0
H661 H 0.71887 0.7625 0.47821 0.0
H662 H 0.75934 0.72951 0.46589 0.0
H663 H 0.77089 0.74176 0.49158 0.0
H664 H 0.77953 0.65409 0.49602 0.0
H665 H 0.76725 0.64165 0.47019 0.0
H666 H 0.73344 0.6151 0.48592 0.0
H667 H 0.56345 0.67051 0.46858 0.0
H668 H 0.56078 0.67614 0.43341 0.0
H669 H 0.70857 0.68658 0.44094 0.0
C670 C 0.7119 0.71228 0.51843 0.0
C671 C 0.68185 0.72251 0.53204 0.0
C672 C 0.63455 0.71282 0.52703 0.0
C673 C 0.61704 0.69404 0.5084 0.0
C674 C 0.64742 0.68506 0.49503 0.0
C675 C 0.69395 0.69384 0.49986 0.0
C676 C 0.71832 0.68821 0.48224 0.0
C677 C 0.74326 0.73315 0.47931 0.0
C678 C 0.7516 0.64732 0.48368 0.0
C679 C 0.67795 0.6778 0.46655 0.0
C680 C 0.63747 0.6746 0.47423 0.0
C681 C 0.59502 0.67135 0.46241 0.0
C682 C 0.59375 0.674 0.44239 0.0
C683 C 0.63461 0.67997 0.43449 0.0
C684 C 0.67714 0.67983 0.44662 0.0
H685 H 0.59216 0.33067 0.76568 0.0
H686 H 0.57639 0.1917 0.78223 0.0
H687 H 0.57502 0.1615 0.7482 0.0
H688 H 0.52268 0.31057 0.71407 0.0
H689 H 0.56131 0.34779 0.70458 0.0
H690 H 0.54853 0.35962 0.72887 0.0
H691 H 0.63551 0.35885 0.74188 0.0
H692 H 0.64839 0.34672 0.71777 0.0
H693 H 0.6688 0.30865 0.73631 0.0
H694 H 0.59408 0.14535 0.71527 0.0
H695 H 0.6291 0.14446 0.68527 0.0
H696 H 0.62948 0.29387 0.6888 0.0
C697 C 0.58615 0.29419 0.76183 0.0
C698 C 0.58341 0.26335 0.77626 0.0
C699 C 0.57751 0.21564 0.77115 0.0
C700 C 0.57661 0.19834 0.75189 0.0
C701 C 0.58104 0.22939 0.73796 0.0
C702 C 0.58477 0.27651 0.74259 0.0
C703 C 0.59527 0.30173 0.7255 0.0
C704 C 0.55452 0.33171 0.71781 0.0
C705 C 0.63962 0.33064 0.73068 0.0
C706 C 0.60104 0.26122 0.71119 0.0
C707 C 0.5914 0.21988 0.71848 0.0
C708 C 0.60016 0.17746 0.70911 0.0
C709 C 0.62024 0.17723 0.69216 0.0
C710 C 0.63099 0.21909 0.6847 0.0
C711 C 0.62008 0.26153 0.69399 0.0
H712 H 0.08295 0.73104 0.96668 0.0
H713 H 0.98839 0.61772 0.96862 0.0
H714 H 0.01863 0.61084 0.00283 0.0
H715 H 0.17795 0.69139 0.00074 0.0
H716 H 0.19123 0.74847 0.01199 0.0
H717 H 0.16646 0.74115 0.98689 0.0
H718 H 0.09967 0.79577 0.9935 0.0
H719 H 0.12486 0.80399 0.01845 0.0
H720 H 0.06643 0.78396 0.01229 0.0
H721 H 0.0564 0.61826 0.03747 0.0
H722 H 0.0889 0.64871 0.07057 0.0
H723 H 0.15493 0.7594 0.0465 0.0
C724 C 0.06847 0.70478 0.97424 0.0
C725 C 0.03398 0.67424 0.96464 0.0
C726 C 0.01596 0.6406 0.97531 0.0
C727 C 0.03287 0.63636 0.99483 0.0
C728 C 0.0675 0.66634 0.0037 0.0
C729 C 0.08446 0.70048 0.99385 0.0
C730 C 0.11805 0.73144 0.00724 0.0
C731 C 0.16628 0.72788 0.00136 0.0
C732 C 0.10123 0.78174 0.00791 0.0
C733 C 0.11638 0.71007 0.02621 0.0
C734 C 0.08797 0.67179 0.02382 0.0
C735 C 0.07911 0.64793 0.03951 0.0
C736 C 0.09799 0.6651 0.05823 0.0
C737 C 0.1247 0.70594 0.06095 0.0
C738 C 0.1352 0.7276 0.04471 0.0
H739 H 0.62742 0.71415 0.21577 0.0
H740 H 0.69701 0.84555 0.23128 0.0
H741 H 0.7028 0.83123 0.26589 0.0
H742 H 0.56019 0.71858 0.25179 0.0
H743 H 0.56426 0.65846 0.25661 0.0
H744 H 0.57139 0.67576 0.2331 0.0
H745 H 0.65082 0.63624 0.23565 0.0
H746 H 0.64382 0.61848 0.25919 0.0
H747 H 0.69367 0.65141 0.25619 0.0
H748 H 0.68497 0.81101 0.29795 0.0
H749 H 0.65421 0.78099 0.32552 0.0
H750 H 0.6074 0.6572 0.29046 0.0
C751 C 0.645 0.73917 0.22649 0.0
C752 C 0.66203 0.78081 0.22098 0.0
C753 C 0.68435 0.81319 0.23529 0.0
C754 C 0.68767 0.80539 0.25494 0.0
C755 C 0.66946 0.76453 0.25998 0.0
C756 C 0.64954 0.73141 0.24617 0.0
C757 C 0.6304 0.6917 0.25549 0.0
C758 C 0.5785 0.68582 0.24885 0.0
C759 C 0.65623 0.6468 0.25139 0.0
C760 C 0.64059 0.70879 0.27663 0.0
C761 C 0.66316 0.75089 0.27889 0.0
C762 C 0.66993 0.7768 0.2966 0.0
C763 C 0.65347 0.75909 0.31238 0.0
C764 C 0.63224 0.71523 0.31069 0.0
C765 C 0.62572 0.68983 0.29249 0.0
H766 H 0.54332 0.25008 0.47121 0.0
H767 H 0.58286 0.10626 0.46375 0.0
H768 H 0.60874 0.10614 0.49872 0.0
H769 H 0.64235 0.2828 0.507 0.0
H770 H 0.61006 0.32367 0.52019 0.0
H771 H 0.59392 0.31182 0.49452 0.0
H772 H 0.51177 0.29053 0.50014 0.0
H773 H 0.52777 0.30189 0.52582 0.0
H774 H 0.50405 0.24646 0.51624 0.0
H775 H 0.62496 0.12048 0.53547 0.0
H776 H 0.63778 0.15165 0.56979 0.0
H777 H 0.5973 0.28716 0.5518 0.0
C778 C 0.55802 0.21868 0.47678 0.0
C779 C 0.55991 0.17797 0.46461 0.0
C780 C 0.57935 0.13762 0.47274 0.0
C781 C 0.59463 0.13722 0.49262 0.0
C782 C 0.59132 0.17768 0.50422 0.0
C783 C 0.57432 0.21787 0.49651 0.0
C784 C 0.57547 0.25708 0.51197 0.0
C785 C 0.60736 0.29614 0.50819 0.0
C786 C 0.52687 0.27502 0.51364 0.0
C787 C 0.59517 0.2325 0.52957 0.0
C788 C 0.60377 0.18662 0.52495 0.0
C789 C 0.6196 0.15674 0.53917 0.0
C790 C 0.62749 0.17464 0.55859 0.0
C791 C 0.62055 0.22193 0.56347 0.0
C792 C 0.60378 0.25086 0.54866 0.0
H793 H 0.13258 0.21519 0.71783 0.0
H794 H 0.21691 0.3372 0.73483 0.0
H795 H 0.22129 0.32054 0.76917 0.0
H796 H 0.06593 0.22745 0.75362 0.0
H797 H 0.06181 0.16706 0.75756 0.0
H798 H 0.07194 0.18407 0.73439 0.0
H799 H 0.14547 0.13426 0.73642 0.0
H800 H 0.1354 0.1168 0.75963 0.0
H801 H 0.18934 0.143 0.75712 0.0
H802 H 0.20303 0.29942 0.80138 0.0
H803 H 0.16889 0.27215 0.82864 0.0
H804 H 0.10254 0.15958 0.79093 0.0
C805 C 0.15301 0.23758 0.72879 0.0
C806 C 0.17457 0.27731 0.72379 0.0
C807 C 0.20068 0.30623 0.73843 0.0
C808 C 0.20327 0.29707 0.75794 0.0
C809 C 0.18036 0.25833 0.76248 0.0
C810 C 0.15649 0.22852 0.74827 0.0
C811 C 0.13193 0.19138 0.75696 0.0
C812 C 0.07984 0.19261 0.75024 0.0
C813 C 0.15174 0.14352 0.75225 0.0
C814 C 0.14367 0.20634 0.77824 0.0
C815 C 0.17192 0.2448 0.78118 0.0
C816 C 0.18245 0.26822 0.79937 0.0
C817 C 0.16322 0.25218 0.81487 0.0
C818 C 0.1346 0.21252 0.8122 0.0
C819 C 0.12544 0.18912 0.79364 0.0
loop_
_geom_bond_atom_site_label_1
_geom_bond_atom_site_label_2
_geom_bond_distance
_geom_bond_site_symmetry_2
_ccdc_geom_bond_type
H0 C3 0.929 . S
H1 C6 0.929 . S
H2 C8 0.930 . S
C3 H0 0.929 . S
C3 C4 1.398 . S
C3 C5 1.396 . S
C4 C3 1.398 . S
C4 C8 1.407 . S
C5 C3 1.396 . S
C5 C6 1.394 . S
C6 H1 0.929 . S
C6 C5 1.394 . S
C6 C7 1.382 . S
C7 C6 1.382 . S
C7 C8 1.392 . S
C7 N9 1.420 . S
C8 H2 0.930 . S
C8 C4 1.407 . S
C8 C7 1.392 . S
N9 C7 1.420 . S
N9 C10 1.244 . S
C10 N9 1.244 . S
H11 C14 0.929 . S
H12 C17 0.929 . S
H13 C19 0.930 . S
C14 H11 0.929 . S
C14 C15 1.398 . S
C14 C16 1.396 . S
C15 C14 1.398 . S
C15 C19 1.407 . S
C16 C14 1.396 . S
C16 C17 1.394 . S
C17 H12 0.929 . S
C17 C16 1.394 . S
C17 C18 1.382 . S
C18 C17 1.382 . S
C18 C19 1.392 . S
C18 N20 1.420 . S
C19 H13 0.930 . S
C19 C15 1.407 . S
C19 C18 1.392 . S
N20 C18 1.420 . S
N20 C21 1.244 . S
C21 N20 1.244 . S
H22 C25 0.929 . S
H23 C28 0.929 . S
H24 C30 0.930 . S
C25 H22 0.929 . S
C25 C26 1.398 . S
C25 C27 1.396 . S
C26 C25 1.398 . S
C26 C30 1.407 . S
C27 C25 1.396 . S
C27 C28 1.394 . S
C28 H23 0.929 . S
C28 C27 1.394 . S
C28 C29 1.382 . S
C29 C28 1.382 . S
C29 C30 1.392 . S
C29 N31 1.420 . S
C30 H24 0.930 . S
C30 C26 1.407 . S
C30 C29 1.392 . S
N31 C29 1.420 . S
N31 C32 1.244 . S
C32 N31 1.244 . S
H33 C36 0.929 . S
H34 C39 0.929 . S
H35 C41 0.930 . S
C36 H33 0.929 . S
C36 C37 1.398 . S
C36 C38 1.396 . S
C37 C36 1.398 . S
C37 C41 1.407 . S
C38 C36 1.396 . S
C38 C39 1.394 . S
C39 H34 0.929 . S
C39 C38 1.394 . S
C39 C40 1.382 . S
C40 C39 1.382 . S
C40 C41 1.392 . S
C40 N42 1.420 . S
C41 H35 0.930 . S
C41 C37 1.407 . S
C41 C40 1.392 . S
N42 C40 1.420 . S
N42 C43 1.244 . S
C43 N42 1.244 . S
H44 C47 0.929 . S
H45 C50 0.929 . S
H46 C52 0.930 . S
C47 H44 0.929 . S
C47 C48 1.398 . S
C47 C49 1.396 . S
C48 C47 1.398 . S
C48 C52 1.407 . S
C49 C47 1.396 . S
C49 C50 1.394 . S
C50 H45 0.929 . S
C50 C49 1.394 . S
C50 C51 1.382 . S
C51 C50 1.382 . S
C51 C52 1.392 . S
C51 N53 1.420 . S
C52 H46 0.930 . S
C52 C48 1.407 . S
C52 C51 1.392 . S
N53 C51 1.420 . S
N53 C54 1.244 . S
C54 N53 1.244 . S
H55 C58 0.929 . S
H56 C61 0.929 . S
H57 C63 0.930 . S
C58 H55 0.929 . S
C58 C59 1.398 . S
C58 C60 1.396 . S
C59 C58 1.398 . S
C59 C63 1.407 . S
C60 C58 1.396 . S
C60 C61 1.394 . S
C61 H56 0.929 . S
C61 C60 1.394 . S
C61 C62 1.382 . S
C62 C61 1.382 . S
C62 C63 1.392 . S
C62 N64 1.420 . S
C63 H57 0.930 . S
C63 C59 1.407 . S
C63 C62 1.392 . S
N64 C62 1.420 . S
N64 C65 1.244 . S
C65 N64 1.244 . S
H66 C69 0.929 . S
H67 C72 0.929 . S
H68 C74 0.930 . S
C69 H66 0.929 . S
C69 C70 1.398 . S
C69 C71 1.396 . S
C70 C69 1.398 . S
C70 C74 1.407 . S
C71 C69 1.396 . S
C71 C72 1.394 . S
C72 H67 0.929 . S
C72 C71 1.394 . S
C72 C73 1.382 . S
C73 C72 1.382 . S
C73 C74 1.392 . S
C73 N75 1.420 . S
C74 H68 0.930 . S
C74 C70 1.407 . S
C74 C73 1.392 . S
N75 C73 1.420 . S
N75 C76 1.244 . S
C76 N75 1.244 . S
H77 C80 0.929 . S
H78 C83 0.929 . S
H79 C85 0.930 . S
C80 H77 0.929 . S
C80 C81 1.398 . S
C80 C82 1.396 . S
C81 C80 1.398 . S
C81 C85 1.407 . S
C82 C80 1.396 . S
C82 C83 1.394 . S
C83 H78 0.929 . S
C83 C82 1.394 . S
C83 C84 1.382 . S
C84 C83 1.382 . S
C84 C85 1.392 . S
C84 N86 1.420 . S
C85 H79 0.930 . S
C85 C81 1.407 . S
C85 C84 1.392 . S
N86 C84 1.420 . S
N86 C87 1.244 . S
C87 N86 1.244 . S
Zn88 O94 1.920 . S
Zn88 O100 1.898 . S
Zn88 O103 1.905 . S
Zn89 O97 1.905 . S
Zn89 O98 1.898 . S
Zn89 O106 1.920 . S
Zn90 O93 2.080 . S
Zn90 O96 2.114 . S
Zn90 O99 2.120 . S
Zn90 O101 2.120 . S
Zn90 O102 2.114 . S
Zn90 O105 2.080 . S
C91 O96 1.166 . S
C91 O97 1.182 . S
C92 O98 1.167 . S
C92 O99 1.299 . S
O93 Zn90 2.080 . S
O93 C107 1.305 . S
O94 Zn88 1.920 . S
O94 C107 1.234 . S
C95 O100 1.167 . S
C95 O101 1.299 . S
O96 Zn90 2.114 . S
O96 C91 1.166 . S
O97 Zn89 1.905 . S
O97 C91 1.182 . S
O98 Zn89 1.898 . S
O98 C92 1.167 . S
O99 Zn90 2.120 . S
O99 C92 1.299 . S
O100 Zn88 1.898 . S
O100 C95 1.167 . S
O101 Zn90 2.120 . S
O101 C95 1.299 . S
O102 Zn90 2.114 . S
O102 C104 1.166 . S
O103 Zn88 1.905 . S
O103 C104 1.182 . S
C104 O102 1.166 . S
C104 O103 1.182 . S
O105 Zn90 2.080 . S
O105 C108 1.305 . S
O106 Zn89 1.920 . S
O106 C108 1.234 . S
C107 O93 1.305 . S
C107 O94 1.234 . S
C108 O105 1.305 . S
C108 O106 1.234 . S
Zn109 O115 1.920 . S
Zn109 O121 1.898 . S
Zn109 O124 1.905 . S
Zn110 O118 1.905 . S
Zn110 O119 1.898 . S
Zn110 O127 1.920 . S
Zn111 O114 2.080 . S
Zn111 O117 2.114 . S
Zn111 O120 2.120 . S
Zn111 O122 2.120 . S
Zn111 O123 2.114 . S
Zn111 O126 2.080 . S
C112 O117 1.166 . S
C112 O118 1.182 . S
C113 O119 1.167 . S
C113 O120 1.299 . S
O114 Zn111 2.080 . S
O114 C128 1.305 . S
O115 Zn109 1.920 . S
O115 C128 1.234 . S
C116 O121 1.167 . S
C116 O122 1.299 . S
O117 Zn111 2.114 . S
O117 C112 1.166 . S
O118 Zn110 1.905 . S
O118 C112 1.182 . S
O119 Zn110 1.898 . S
O119 C113 1.167 . S
O120 Zn111 2.120 . S
O120 C113 1.299 . S
O121 Zn109 1.898 . S
O121 C116 1.167 . S
O122 Zn111 2.120 . S
O122 C116 1.299 . S
O123 Zn111 2.114 . S
O123 C125 1.166 . S
O124 Zn109 1.905 . S
O124 C125 1.182 . S
C125 O123 1.166 . S
C125 O124 1.182 . S
O126 Zn111 2.080 . S
O126 C129 1.305 . S
O127 Zn110 1.920 . S
O127 C129 1.234 . S
C128 O114 1.305 . S
C128 O115 1.234 . S
C129 O126 1.305 . S
C129 O127 1.234 . S
Zn130 O136 1.920 . S
Zn130 O142 1.898 . S
Zn130 O145 1.905 . S
Zn131 O139 1.905 . S
Zn131 O140 1.898 . S
Zn131 O148 1.920 . S
Zn132 O135 2.080 . S
Zn132 O138 2.114 . S
Zn132 O141 2.120 . S
Zn132 O143 2.120 . S
Zn132 O144 2.114 . S
Zn132 O147 2.080 . S
C133 O138 1.166 . S
C133 O139 1.182 . S
C134 O140 1.167 . S
C134 O141 1.299 . S
O135 Zn132 2.080 . S
O135 C149 1.305 . S
O136 Zn130 1.920 . S
O136 C149 1.234 . S
C137 O142 1.167 . S
C137 O143 1.299 . S
O138 Zn132 2.114 . S
O138 C133 1.166 . S
O139 Zn131 1.905 . S
O139 C133 1.182 . S
O140 Zn131 1.898 . S
O140 C134 1.167 . S
O141 Zn132 2.120 . S
O141 C134 1.299 . S
O142 Zn130 1.898 . S
O142 C137 1.167 . S
O143 Zn132 2.120 . S
O143 C137 1.299 . S
O144 Zn132 2.114 . S
O144 C146 1.166 . S
O145 Zn130 1.905 . S
O145 C146 1.182 . S
C146 O144 1.166 . S
C146 O145 1.182 . S
O147 Zn132 2.080 . S
O147 C150 1.305 . S
O148 Zn131 1.920 . S
O148 C150 1.234 . S
C149 O135 1.305 . S
C149 O136 1.234 . S
C150 O147 1.305 . S
C150 O148 1.234 . S
Zn151 O157 1.920 . S
Zn151 O163 1.898 . S
Zn151 O166 1.905 1_455 S
Zn152 O160 1.905 . S
Zn152 O161 1.898 . S
Zn152 O169 1.920 . S
Zn153 O156 2.080 . S
Zn153 O159 2.114 . S
Zn153 O162 2.120 . S
Zn153 O164 2.120 . S
Zn153 O165 2.114 . S
Zn153 O168 2.080 . S
C154 O159 1.166 . S
C154 O160 1.182 . S
C155 O161 1.167 . S
C155 O162 1.299 . S
O156 Zn153 2.080 . S
O156 C170 1.305 . S
O157 Zn151 1.920 . S
O157 C170 1.234 . S
C158 O163 1.167 . S
C158 O164 1.299 . S
O159 Zn153 2.114 . S
O159 C154 1.166 . S
O160 Zn152 1.905 . S
O160 C154 1.182 . S
O161 Zn152 1.898 . S
O161 C155 1.167 . S
O162 Zn153 2.120 . S
O162 C155 1.299 . S
O163 Zn151 1.898 . S
O163 C158 1.167 . S
O164 Zn153 2.120 . S
O164 C158 1.299 . S
O165 Zn153 2.114 . S
O165 C167 1.163 1_455 S
O166 Zn151 1.905 1_655 S
O166 C167 1.184 . S
C167 O165 1.163 1_655 S
C167 O166 1.184 . S
O168 Zn153 2.080 . S
O168 C171 1.305 . S
O169 Zn152 1.920 . S
O169 C171 1.234 . S
C170 O156 1.305 . S
C170 O157 1.234 . S
C171 O168 1.305 . S
C171 O169 1.234 . S
H172 C184 0.930 . S
H173 C186 0.930 . S
H174 C187 0.930 . S
H175 C191 0.959 . S
H176 C191 0.959 . S
H177 C191 0.961 . S
H178 C192 0.960 . S
H179 C192 0.961 . S
H180 C192 0.959 . S
H181 C195 0.929 . S
H182 C196 0.931 . S
H183 C198 0.930 . S
C184 H172 0.930 . S
C184 C185 1.399 . S
C184 C189 1.399 . S
C185 C184 1.399 . S
C185 C186 1.376 . S
C186 H173 0.930 . S
C186 C185 1.376 . S
C186 C187 1.388 . S
C187 H174 0.930 . S
C187 C186 1.388 . S
C187 C188 1.390 . S
C188 C187 1.390 . S
C188 C189 1.394 . S
C188 C194 1.465 . S
C189 C184 1.399 . S
C189 C188 1.394 . S
C189 C190 1.516 . S
C190 C189 1.516 . S
C190 C191 1.502 . S
C190 C192 1.561 . S
C190 C193 1.526 . S
C191 H175 0.959 . S
C191 H176 0.959 . S
C191 H177 0.961 . S
C191 C190 1.502 . S
C192 H178 0.960 . S
C192 H179 0.961 . S
C192 H180 0.959 . S
C192 C190 1.561 . S
C193 C190 1.526 . S
C193 C194 1.396 . S
C193 C198 1.390 . S
C194 C188 1.465 . S
C194 C193 1.396 . S
C194 C195 1.399 . S
C195 H181 0.929 . S
C195 C194 1.399 . S
C195 C196 1.385 . S
C196 H182 0.931 . S
C196 C195 1.385 . S
C196 C197 1.389 . S
C197 C196 1.389 . S
C197 C198 1.387 . S
C198 H183 0.930 . S
C198 C193 1.390 . S
C198 C197 1.387 . S
H199 C211 0.930 . S
H200 C213 0.930 . S
H201 C214 0.930 . S
H202 C218 0.959 . S
H203 C218 0.959 . S
H204 C218 0.961 . S
H205 C219 0.960 . S
H206 C219 0.961 . S
H207 C219 0.959 . S
H208 C222 0.929 . S
H209 C223 0.931 . S
H210 C225 0.930 . S
C211 H199 0.930 . S
C211 C212 1.399 . S
C211 C216 1.399 . S
C212 C211 1.399 . S
C212 C213 1.376 . S
C213 H200 0.930 . S
C213 C212 1.376 . S
C213 C214 1.388 . S
C214 H201 0.930 . S
C214 C213 1.388 . S
C214 C215 1.390 . S
C215 C214 1.390 . S
C215 C216 1.394 . S
C215 C221 1.465 . S
C216 C211 1.399 . S
C216 C215 1.394 . S
C216 C217 1.516 . S
C217 C216 1.516 . S
C217 C218 1.502 . S
C217 C219 1.561 . S
C217 C220 1.526 . S
C218 H202 0.959 . S
C218 H203 0.959 . S
C218 H204 0.961 . S
C218 C217 1.502 . S
C219 H205 0.960 . S
C219 H206 0.961 . S
C219 H207 0.959 . S
C219 C217 1.561 . S
C220 C217 1.526 . S
C220 C221 1.396 . S
C220 C225 1.390 . S
C221 C215 1.465 . S
C221 C220 1.396 . S
C221 C222 1.399 . S
C222 H208 0.929 . S
C222 C221 1.399 . S
C222 C223 1.385 . S
C223 H209 0.931 . S
C223 C222 1.385 . S
C223 C224 1.389 . S
C224 C223 1.389 . S
C224 C225 1.387 . S
C225 H210 0.930 . S
C225 C220 1.390 . S
C225 C224 1.387 . S
H226 C238 0.930 . S
H227 C240 0.930 . S
H228 C241 0.930 . S
H229 C245 0.959 . S
H230 C245 0.959 . S
H231 C245 0.961 . S
H232 C246 0.960 . S
H233 C246 0.961 . S
H234 C246 0.959 . S
H235 C249 0.929 . S
H236 C250 0.931 . S
H237 C252 0.930 . S
C238 H226 0.930 . S
C238 C239 1.399 . S
C238 C243 1.399 . S
C239 C238 1.399 . S
C239 C240 1.376 . S
C240 H227 0.930 . S
C240 C239 1.376 . S
C240 C241 1.388 . S
C241 H228 0.930 . S
C241 C240 1.388 . S
C241 C242 1.390 . S
C242 C241 1.390 . S
C242 C243 1.394 . S
C242 C248 1.465 . S
C243 C238 1.399 . S
C243 C242 1.394 . S
C243 C244 1.516 . S
C244 C243 1.516 . S
C244 C245 1.502 . S
C244 C246 1.561 . S
C244 C247 1.526 . S
C245 H229 0.959 . S
C245 H230 0.959 . S
C245 H231 0.961 . S
C245 C244 1.502 . S
C246 H232 0.960 . S
C246 H233 0.961 . S
C246 H234 0.959 . S
C246 C244 1.561 . S
C247 C244 1.526 . S
C247 C248 1.396 . S
C247 C252 1.390 . S
C248 C242 1.465 . S
C248 C247 1.396 . S
C248 C249 1.399 . S
C249 H235 0.929 . S
C249 C248 1.399 . S
C249 C250 1.385 . S
C250 H236 0.931 . S
C250 C249 1.385 . S
C250 C251 1.389 . S
C251 C250 1.389 . S
C251 C252 1.387 . S
C252 H237 0.930 . S
C252 C247 1.390 . S
C252 C251 1.387 . S
H253 C265 0.930 . S
H254 C267 0.930 . S
H255 C268 0.930 . S
H256 C272 0.959 . S
H257 C272 0.959 . S
H258 C272 0.961 . S
H259 C273 0.960 . S
H260 C273 0.961 . S
H261 C273 0.959 . S
H262 C276 0.929 . S
H263 C277 0.931 . S
H264 C279 0.930 . S
C265 H253 0.930 . S
C265 C266 1.399 . S
C265 C270 1.399 . S
C266 C265 1.399 . S
C266 C267 1.376 . S
C267 H254 0.930 . S
C267 C266 1.376 . S
C267 C268 1.388 . S
C268 H255 0.930 . S
C268 C267 1.388 . S
C268 C269 1.390 . S
C269 C268 1.390 . S
C269 C270 1.394 . S
C269 C275 1.465 . S
C270 C265 1.399 . S
C270 C269 1.394 . S
C270 C271 1.516 . S
C271 C270 1.516 . S
C271 C272 1.502 . S
C271 C273 1.561 . S
C271 C274 1.526 . S
C272 H256 0.959 . S
C272 H257 0.959 . S
C272 H258 0.961 . S
C272 C271 1.502 . S
C273 H259 0.960 . S
C273 H260 0.961 . S
C273 H261 0.959 . S
C273 C271 1.561 . S
C274 C271 1.526 . S
C274 C275 1.396 . S
C274 C279 1.390 . S
C275 C269 1.465 . S
C275 C274 1.396 . S
C275 C276 1.399 . S
C276 H262 0.929 . S
C276 C275 1.399 . S
C276 C277 1.385 . S
C277 H263 0.931 . S
C277 C276 1.385 . S
C277 C278 1.389 . S
C278 C277 1.389 . S
C278 C279 1.387 . S
C279 H264 0.930 . S
C279 C274 1.390 . S
C279 C278 1.387 . S
H280 C292 0.930 . S
H281 C294 0.930 1_655 S
H282 C295 0.930 1_655 S
H283 C299 0.959 . S
H284 C299 0.959 . S
H285 C299 0.961 . S
H286 C300 0.960 . S
H287 C300 0.961 . S
H288 C300 0.959 . S
H289 C303 0.929 1_655 S
H290 C304 0.931 . S
H291 C306 0.930 . S
C292 H280 0.930 . S
C292 C293 1.399 . S
C292 C297 1.399 . S
C293 C292 1.399 . S
C293 C294 1.376 . S
C294 H281 0.930 1_455 S
C294 C293 1.376 . S
C294 C295 1.388 . S
C295 H282 0.930 1_455 S
C295 C294 1.388 . S
C295 C296 1.390 . S
C296 C295 1.390 . S
C296 C297 1.394 . S
C296 C302 1.465 . S
C297 C292 1.399 . S
C297 C296 1.394 . S
C297 C298 1.516 . S
C298 C297 1.516 . S
C298 C299 1.502 . S
C298 C300 1.561 . S
C298 C301 1.526 . S
C299 H283 0.959 . S
C299 H284 0.959 . S
C299 H285 0.961 . S
C299 C298 1.502 . S
C300 H286 0.960 . S
C300 H287 0.961 . S
C300 H288 0.959 . S
C300 C298 1.561 . S
C301 C298 1.526 . S
C301 C302 1.396 . S
C301 C306 1.390 . S
C302 C296 1.465 . S
C302 C301 1.396 . S
C302 C303 1.399 . S
C303 H289 0.929 1_455 S
C303 C302 1.399 . S
C303 C304 1.385 . S
C304 H290 0.931 . S
C304 C303 1.385 . S
C304 C305 1.389 . S
C305 C304 1.389 . S
C305 C306 1.387 . S
C306 H291 0.930 . S
C306 C301 1.390 . S
C306 C305 1.387 . S
H307 C319 0.930 . S
H308 C321 0.930 . S
H309 C322 0.930 . S
H310 C326 0.959 . S
H311 C326 0.959 . S
H312 C326 0.961 . S
H313 C327 0.960 . S
H314 C327 0.961 . S
H315 C327 0.959 . S
H316 C330 0.929 . S
H317 C331 0.931 . S
H318 C333 0.930 . S
C319 H307 0.930 . S
C319 C320 1.399 . S
C319 C324 1.399 . S
C320 C319 1.399 . S
C320 C321 1.376 . S
C321 H308 0.930 . S
C321 C320 1.376 . S
C321 C322 1.388 . S
C322 H309 0.930 . S
C322 C321 1.388 . S
C322 C323 1.390 . S
C323 C322 1.390 . S
C323 C324 1.394 . S
C323 C329 1.465 . S
C324 C319 1.399 . S
C324 C323 1.394 . S
C324 C325 1.516 . S
C325 C324 1.516 . S
C325 C326 1.502 . S
C325 C327 1.561 . S
C325 C328 1.526 . S
C326 H310 0.959 . S
C326 H311 0.959 . S
C326 H312 0.961 . S
C326 C325 1.502 . S
C327 H313 0.960 . S
C327 H314 0.961 . S
C327 H315 0.959 . S
C327 C325 1.561 . S
C328 C325 1.526 . S
C328 C329 1.396 . S
C328 C333 1.390 . S
C329 C323 1.465 . S
C329 C328 1.396 . S
C329 C330 1.399 . S
C330 H316 0.929 . S
C330 C329 1.399 . S
C330 C331 1.385 1_655 S
C331 H317 0.931 . S
C331 C330 1.385 1_455 S
C331 C332 1.389 . S
C332 C331 1.389 . S
C332 C333 1.387 1_455 S
C333 H318 0.930 . S
C333 C328 1.390 . S
C333 C332 1.387 1_655 S
H334 C346 0.930 . S
H335 C348 0.930 . S
H336 C349 0.930 . S
H337 C353 0.959 . S
H338 C353 0.959 . S
H339 C353 0.961 . S
H340 C354 0.960 . S
H341 C354 0.961 . S
H342 C354 0.959 . S
H343 C357 0.929 . S
H344 C358 0.931 . S
H345 C360 0.930 . S
C346 H334 0.930 . S
C346 C347 1.399 . S
C346 C351 1.399 . S
C347 C346 1.399 . S
C347 C348 1.376 . S
C348 H335 0.930 . S
C348 C347 1.376 . S
C348 C349 1.388 . S
C349 H336 0.930 . S
C349 C348 1.388 . S
C349 C350 1.390 . S
C350 C349 1.390 . S
C350 C351 1.394 . S
C350 C356 1.465 . S
C351 C346 1.399 . S
C351 C350 1.394 . S
C351 C352 1.516 . S
C352 C351 1.516 . S
C352 C353 1.502 . S
C352 C354 1.561 . S
C352 C355 1.526 . S
C353 H337 0.959 . S
C353 H338 0.959 . S
C353 H339 0.961 . S
C353 C352 1.502 . S
C354 H340 0.960 . S
C354 H341 0.961 . S
C354 H342 0.959 . S
C354 C352 1.561 . S
C355 C352 1.526 . S
C355 C356 1.396 . S
C355 C360 1.390 . S
C356 C350 1.465 . S
C356 C355 1.396 . S
C356 C357 1.399 . S
C357 H343 0.929 . S
C357 C356 1.399 . S
C357 C358 1.385 . S
C358 H344 0.931 . S
C358 C357 1.385 . S
C358 C359 1.389 . S
C359 C358 1.389 . S
C359 C360 1.387 . S
C360 H345 0.930 . S
C360 C355 1.390 . S
C360 C359 1.387 . S
H361 C373 0.930 . S
H362 C375 0.930 . S
H363 C376 0.930 . S
H364 C380 0.959 . S
H365 C380 0.959 . S
H366 C380 0.961 . S
H367 C381 0.960 . S
H368 C381 0.961 . S
H369 C381 0.959 . S
H370 C384 0.929 . S
H371 C385 0.931 . S
H372 C387 0.930 . S
C373 H361 0.930 . S
C373 C374 1.399 . S
C373 C378 1.399 1_455 S
C374 C373 1.399 . S
C374 C375 1.376 . S
C375 H362 0.930 . S
C375 C374 1.376 . S
C375 C376 1.388 1_455 S
C376 H363 0.930 . S
C376 C375 1.388 1_655 S
C376 C377 1.390 . S
C377 C376 1.390 . S
C377 C378 1.394 . S
C377 C383 1.465 . S
C378 C373 1.399 1_655 S
C378 C377 1.394 . S
C378 C379 1.516 . S
C379 C378 1.516 . S
C379 C380 1.502 . S
C379 C381 1.561 . S
C379 C382 1.526 . S
C380 H364 0.959 . S
C380 H365 0.959 . S
C380 H366 0.961 . S
C380 C379 1.502 . S
C381 H367 0.960 . S
C381 H368 0.961 . S
C381 H369 0.959 . S
C381 C379 1.561 . S
C382 C379 1.526 . S
C382 C383 1.396 . S
C382 C387 1.390 . S
C383 C377 1.465 . S
C383 C382 1.396 . S
C383 C384 1.399 . S
C384 H370 0.929 . S
C384 C383 1.399 . S
C384 C385 1.385 . S
C385 H371 0.931 . S
C385 C384 1.385 . S
C385 C386 1.389 . S
C386 C385 1.389 . S
C386 C387 1.387 . S
C387 H372 0.930 . S
C387 C382 1.390 . S
C387 C386 1.387 . S
H388 C400 0.930 . S
H389 C402 0.930 . S
H390 C403 0.930 . S
H391 C407 0.959 . S
H392 C407 0.959 . S
H393 C407 0.961 . S
H394 C408 0.960 . S
H395 C408 0.961 . S
H396 C408 0.959 . S
H397 C411 0.929 . S
H398 C412 0.931 . S
H399 C414 0.930 . S
C400 H388 0.930 . S
C400 C401 1.399 . S
C400 C405 1.399 . S
C401 C400 1.399 . S
C401 C402 1.376 . S
C402 H389 0.930 . S
C402 C401 1.376 . S
C402 C403 1.388 . S
C403 H390 0.930 . S
C403 C402 1.388 . S
C403 C404 1.390 . S
C404 C403 1.390 . S
C404 C405 1.394 . S
C404 C410 1.465 . S
C405 C400 1.399 . S
C405 C404 1.394 . S
C405 C406 1.516 . S
C406 C405 1.516 . S
C406 C407 1.502 . S
C406 C408 1.561 . S
C406 C409 1.526 . S
C407 H391 0.959 . S
C407 H392 0.959 . S
C407 H393 0.961 . S
C407 C406 1.502 . S
C408 H394 0.960 . S
C408 H395 0.961 . S
C408 H396 0.959 . S
C408 C406 1.561 . S
C409 C406 1.526 . S
C409 C410 1.396 . S
C409 C414 1.390 . S
C410 C404 1.465 . S
C410 C409 1.396 . S
C410 C411 1.399 . S
C411 H397 0.929 . S
C411 C410 1.399 . S
C411 C412 1.385 . S
C412 H398 0.931 . S
C412 C411 1.385 . S
C412 C413 1.389 . S
C413 C412 1.389 . S
C413 C414 1.387 . S
C414 H399 0.930 . S
C414 C409 1.390 . S
C414 C413 1.387 . S
H415 C427 0.930 . S
H416 C429 0.930 . S
H417 C430 0.930 . S
H418 C434 0.959 . S
H419 C434 0.959 . S
H420 C434 0.961 . S
H421 C435 0.960 . S
H422 C435 0.961 . S
H423 C435 0.959 . S
H424 C438 0.929 . S
H425 C439 0.931 . S
H426 C441 0.930 . S
C427 H415 0.930 . S
C427 C428 1.399 . S
C427 C432 1.399 . S
C428 C427 1.399 . S
C428 C429 1.376 . S
C429 H416 0.930 . S
C429 C428 1.376 . S
C429 C430 1.388 . S
C430 H417 0.930 . S
C430 C429 1.388 . S
C430 C431 1.390 . S
C431 C430 1.390 . S
C431 C432 1.394 . S
C431 C437 1.465 . S
C432 C427 1.399 . S
C432 C431 1.394 . S
C432 C433 1.516 . S
C433 C432 1.516 . S
C433 C434 1.502 . S
C433 C435 1.561 . S
C433 C436 1.526 . S
C434 H418 0.959 . S
C434 H419 0.959 . S
C434 H420 0.961 . S
C434 C433 1.502 . S
C435 H421 0.960 . S
C435 H422 0.961 . S
C435 H423 0.959 . S
C435 C433 1.561 . S
C436 C433 1.526 . S
C436 C437 1.396 . S
C436 C441 1.390 . S
C437 C431 1.465 . S
C437 C436 1.396 . S
C437 C438 1.399 . S
C438 H424 0.929 . S
C438 C437 1.399 . S
C438 C439 1.385 . S
C439 H425 0.931 . S
C439 C438 1.385 . S
C439 C440 1.389 . S
C440 C439 1.389 . S
C440 C441 1.387 . S
C441 H426 0.930 . S
C441 C436 1.390 . S
C441 C440 1.387 . S
H442 C454 0.930 . S
H443 C456 0.930 . S
H444 C457 0.930 . S
H445 C461 0.959 . S
H446 C461 0.959 . S
H447 C461 0.961 . S
H448 C462 0.960 . S
H449 C462 0.961 . S
H450 C462 0.959 . S
H451 C465 0.929 . S
H452 C466 0.931 . S
H453 C468 0.930 . S
C454 H442 0.930 . S
C454 C455 1.399 . S
C454 C459 1.399 . S
C455 C454 1.399 . S
C455 C456 1.376 . S
C456 H443 0.930 . S
C456 C455 1.376 . S
C456 C457 1.388 . S
C457 H444 0.930 . S
C457 C456 1.388 . S
C457 C458 1.390 . S
C458 C457 1.390 . S
C458 C459 1.394 . S
C458 C464 1.465 . S
C459 C454 1.399 . S
C459 C458 1.394 . S
C459 C460 1.516 . S
C460 C459 1.516 . S
C460 C461 1.502 . S
C460 C462 1.561 . S
C460 C463 1.526 . S
C461 H445 0.959 . S
C461 H446 0.959 . S
C461 H447 0.961 . S
C461 C460 1.502 . S
C462 H448 0.960 . S
C462 H449 0.961 . S
C462 H450 0.959 . S
C462 C460 1.561 . S
C463 C460 1.526 . S
C463 C464 1.396 . S
C463 C468 1.390 . S
C464 C458 1.465 . S
C464 C463 1.396 . S
C464 C465 1.399 . S
C465 H451 0.929 . S
C465 C464 1.399 . S
C465 C466 1.385 . S
C466 H452 0.931 . S
C466 C465 1.385 . S
C466 C467 1.389 . S
C467 C466 1.389 . S
C467 C468 1.387 . S
C468 H453 0.930 . S
C468 C463 1.390 . S
C468 C467 1.387 . S
H469 C481 0.930 . S
H470 C483 0.930 . S
H471 C484 0.930 . S
H472 C488 0.959 . S
H473 C488 0.959 . S
H474 C488 0.961 . S
H475 C489 0.960 . S
H476 C489 0.961 . S
H477 C489 0.959 . S
H478 C492 0.929 . S
H479 C493 0.931 . S
H480 C495 0.930 . S
C481 H469 0.930 . S
C481 C482 1.399 . S
C481 C486 1.399 . S
C482 C481 1.399 . S
C482 C483 1.376 . S
C483 H470 0.930 . S
C483 C482 1.376 . S
C483 C484 1.388 . S
C484 H471 0.930 . S
C484 C483 1.388 . S
C484 C485 1.390 . S
C485 C484 1.390 . S
C485 C486 1.394 . S
C485 C491 1.465 . S
C486 C481 1.399 . S
C486 C485 1.394 . S
C486 C487 1.516 . S
C487 C486 1.516 . S
C487 C488 1.502 . S
C487 C489 1.561 . S
C487 C490 1.526 . S
C488 H472 0.959 . S
C488 H473 0.959 . S
C488 H474 0.961 . S
C488 C487 1.502 . S
C489 H475 0.960 . S
C489 H476 0.961 . S
C489 H477 0.959 . S
C489 C487 1.561 . S
C490 C487 1.526 . S
C490 C491 1.396 . S
C490 C495 1.390 . S
C491 C485 1.465 . S
C491 C490 1.396 . S
C491 C492 1.399 . S
C492 H478 0.929 . S
C492 C491 1.399 . S
C492 C493 1.385 . S
C493 H479 0.931 . S
C493 C492 1.385 . S
C493 C494 1.389 . S
C494 C493 1.389 . S
C494 C495 1.387 . S
C495 H480 0.930 . S
C495 C490 1.390 . S
C495 C494 1.387 . S
H496 C508 0.930 . S
H497 C510 0.930 . S
H498 C511 0.930 . S
H499 C515 0.959 . S
H500 C515 0.959 . S
H501 C515 0.961 . S
H502 C516 0.960 . S
H503 C516 0.961 . S
H504 C516 0.959 . S
H505 C519 0.929 . S
H506 C520 0.931 . S
H507 C522 0.930 . S
C508 H496 0.930 . S
C508 C509 1.399 . S
C508 C513 1.399 . S
C509 C508 1.399 . S
C509 C510 1.376 . S
C510 H497 0.930 . S
C510 C509 1.376 . S
C510 C511 1.388 . S
C511 H498 0.930 . S
C511 C510 1.388 . S
C511 C512 1.390 . S
C512 C511 1.390 . S
C512 C513 1.394 . S
C512 C518 1.465 . S
C513 C508 1.399 . S
C513 C512 1.394 . S
C513 C514 1.516 . S
C514 C513 1.516 . S
C514 C515 1.502 . S
C514 C516 1.561 . S
C514 C517 1.526 . S
C515 H499 0.959 . S
C515 H500 0.959 . S
C515 H501 0.961 . S
C515 C514 1.502 . S
C516 H502 0.960 . S
C516 H503 0.961 . S
C516 H504 0.959 . S
C516 C514 1.561 . S
C517 C514 1.526 . S
C517 C518 1.396 . S
C517 C522 1.390 1_565 S
C518 C512 1.465 . S
C518 C517 1.396 . S
C518 C519 1.399 1_565 S
C519 H505 0.929 . S
C519 C518 1.399 1_545 S
C519 C520 1.385 . S
C520 H506 0.931 . S
C520 C519 1.385 . S
C520 C521 1.389 . S
C521 C520 1.389 . S
C521 C522 1.387 . S
C522 H507 0.930 . S
C522 C517 1.390 1_545 S
C522 C521 1.387 . S
H523 C535 0.930 . S
H524 C537 0.930 . S
H525 C538 0.930 1_565 S
H526 C542 0.959 1_565 S
H527 C542 0.959 1_565 S
H528 C542 0.961 . S
H529 C543 0.960 . S
H530 C543 0.961 1_565 S
H531 C543 0.960 . S
H532 C546 0.929 . S
H533 C547 0.931 . S
H534 C549 0.930 . S
C535 H523 0.930 . S
C535 C536 1.399 . S
C535 C540 1.399 . S
C536 C535 1.399 . S
C536 C537 1.376 . S
C537 H524 0.930 . S
C537 C536 1.376 . S
C537 C538 1.388 . S
C538 H525 0.930 1_545 S
C538 C537 1.388 . S
C538 C539 1.390 1_545 S
C539 C538 1.390 1_565 S
C539 C540 1.394 1_565 S
C539 C545 1.465 . S
C540 C535 1.399 . S
C540 C539 1.394 1_545 S
C540 C541 1.516 1_545 S
C541 C540 1.516 1_565 S
C541 C542 1.502 1_565 S
C541 C543 1.561 1_565 S
C541 C544 1.526 . S
C542 H526 0.959 1_545 S
C542 H527 0.959 1_545 S
C542 H528 0.961 . S
C542 C541 1.502 1_545 S
C543 H529 0.960 . S
C543 H530 0.961 1_545 S
C543 H531 0.960 . S
C543 C541 1.561 1_545 S
C544 C541 1.526 . S
C544 C545 1.396 . S
C544 C549 1.390 . S
C545 C539 1.465 . S
C545 C544 1.396 . S
C545 C546 1.399 . S
C546 H532 0.929 . S
C546 C545 1.399 . S
C546 C547 1.385 . S
C547 H533 0.931 . S
C547 C546 1.385 . S
C547 C548 1.389 . S
C548 C547 1.389 . S
C548 C549 1.387 . S
C549 H534 0.930 . S
C549 C544 1.390 . S
C549 C548 1.387 . S
H550 C562 0.930 . S
H551 C564 0.930 . S
H552 C565 0.930 . S
H553 C569 0.959 . S
H554 C569 0.959 1_565 S
H555 C569 0.961 . S
H556 C570 0.960 . S
H557 C570 0.961 . S
H558 C570 0.959 . S
H559 C573 0.929 . S
H560 C574 0.931 . S
H561 C576 0.930 . S
C562 H550 0.930 . S
C562 C563 1.399 . S
C562 C567 1.399 . S
C563 C562 1.399 . S
C563 C564 1.376 . S
C564 H551 0.930 . S
C564 C563 1.376 . S
C564 C565 1.388 . S
C565 H552 0.930 . S
C565 C564 1.388 . S
C565 C566 1.390 . S
C566 C565 1.390 . S
C566 C567 1.394 . S
C566 C572 1.465 1_545 S
C567 C562 1.399 . S
C567 C566 1.394 . S
C567 C568 1.516 . S
C568 C567 1.516 . S
C568 C569 1.502 . S
C568 C570 1.561 . S
C568 C571 1.526 1_545 S
C569 H553 0.959 . S
C569 H554 0.959 1_545 S
C569 H555 0.961 . S
C569 C568 1.502 . S
C570 H556 0.960 . S
C570 H557 0.961 . S
C570 H558 0.959 . S
C570 C568 1.561 . S
C571 C568 1.526 1_565 S
C571 C572 1.396 . S
C571 C576 1.390 . S
C572 C566 1.465 1_565 S
C572 C571 1.396 . S
C572 C573 1.399 . S
C573 H559 0.929 . S
C573 C572 1.399 . S
C573 C574 1.385 . S
C574 H560 0.931 . S
C574 C573 1.385 . S
C574 C575 1.389 . S
C575 C574 1.389 . S
C575 C576 1.387 . S
C576 H561 0.930 . S
C576 C571 1.390 . S
C576 C575 1.387 . S
H577 C589 0.930 . S
H578 C591 0.930 . S
H579 C592 0.930 . S
H580 C596 0.959 . S
H581 C596 0.959 . S
H582 C596 0.961 . S
H583 C597 0.960 . S
H584 C597 0.967 . S
H585 C597 0.959 . S
H586 C600 0.929 . S
H587 C601 0.931 . S
H588 C603 0.930 . S
C589 H577 0.930 . S
C589 C590 1.399 . S
C589 C594 1.399 . S
C590 C589 1.399 . S
C590 C591 1.376 . S
C591 H578 0.930 . S
C591 C590 1.376 . S
C591 C592 1.388 . S
C592 H579 0.930 . S
C592 C591 1.388 . S
C592 C593 1.390 . S
C593 C592 1.390 . S
C593 C594 1.394 . S
C593 C599 1.465 1_565 S
C594 C589 1.399 . S
C594 C593 1.394 . S
C594 C595 1.516 . S
C595 C594 1.516 . S
C595 C596 1.502 . S
C595 C597 1.561 . S
C595 C598 1.526 1_565 S
C596 H580 0.959 . S
C596 H581 0.959 . S
C596 H582 0.961 . S
C596 C595 1.502 . S
C597 H583 0.960 . S
C597 H584 0.967 . S
C597 H585 0.959 . S
C597 C595 1.561 . S
C598 C595 1.526 1_545 S
C598 C599 1.396 . S
C598 C603 1.390 . S
C599 C593 1.465 1_545 S
C599 C598 1.396 . S
C599 C600 1.399 . S
C600 H586 0.929 . S
C600 C599 1.399 . S
C600 C601 1.385 . S
C601 H587 0.931 . S
C601 C600 1.385 . S
C601 C602 1.389 . S
C602 C601 1.389 . S
C602 C603 1.387 . S
C603 H588 0.930 . S
C603 C598 1.390 . S
C603 C602 1.387 . S
H604 C616 0.930 . S
H605 C618 0.930 . S
H606 C619 0.899 1_556 S
H607 C623 0.959 . S
H608 C623 0.959 . S
H609 C623 0.961 . S
H610 C624 0.960 1_554 S
H611 C624 0.961 . S
H612 C624 0.959 . S
H613 C627 0.929 . S
H614 C628 0.931 . S
H615 C630 0.930 . S
C616 H604 0.930 . S
C616 C617 1.399 . S
C616 C621 1.399 . S
C617 C616 1.399 . S
C617 C618 1.376 . S
C618 H605 0.930 . S
C618 C617 1.376 . S
C618 C619 1.388 . S
C619 H606 0.899 1_554 S
C619 C618 1.388 . S
C619 C620 1.390 1_554 S
C620 C619 1.390 1_556 S
C620 C621 1.394 1_556 S
C620 C626 1.465 . S
C621 C616 1.399 . S
C621 C620 1.394 1_554 S
C621 C622 1.516 1_554 S
C622 C621 1.516 1_556 S
C622 C623 1.502 . S
C622 C624 1.561 . S
C622 C625 1.526 . S
C623 H607 0.959 . S
C623 H608 0.959 . S
C623 H609 0.961 . S
C623 C622 1.502 . S
C624 H610 0.960 1_556 S
C624 H611 0.961 . S
C624 H612 0.959 . S
C624 C622 1.561 . S
C625 C622 1.526 . S
C625 C626 1.396 . S
C625 C630 1.390 . S
C626 C620 1.465 . S
C626 C625 1.396 . S
C626 C627 1.399 . S
C627 H613 0.929 . S
C627 C626 1.399 . S
C627 C628 1.385 . S
C628 H614 0.931 . S
C628 C627 1.385 . S
C628 C629 1.389 . S
C629 C628 1.389 . S
C629 C630 1.387 . S
C630 H615 0.930 . S
C630 C625 1.390 . S
C630 C629 1.387 . S
H631 C643 0.930 . S
H632 C645 0.930 . S
H633 C646 0.930 . S
H634 C650 0.959 . S
H635 C650 0.959 . S
H636 C650 0.961 . S
H637 C651 0.960 . S
H638 C651 0.961 . S
H639 C651 0.959 . S
H640 C654 0.929 . S
H641 C655 0.931 . S
H642 C657 0.930 . S
C643 H631 0.930 . S
C643 C644 1.399 . S
C643 C648 1.399 . S
C644 C643 1.399 . S
C644 C645 1.376 . S
C645 H632 0.930 . S
C645 C644 1.376 . S
C645 C646 1.388 . S
C646 H633 0.930 . S
C646 C645 1.388 . S
C646 C647 1.390 . S
C647 C646 1.390 . S
C647 C648 1.394 . S
C647 C653 1.465 . S
C648 C643 1.399 . S
C648 C647 1.394 . S
C648 C649 1.516 . S
C649 C648 1.516 . S
C649 C650 1.502 . S
C649 C651 1.561 . S
C649 C652 1.526 . S
C650 H634 0.959 . S
C650 H635 0.959 . S
C650 H636 0.961 . S
C650 C649 1.502 . S
C651 H637 0.960 . S
C651 H638 0.961 . S
C651 H639 0.959 . S
C651 C649 1.561 . S
C652 C649 1.526 . S
C652 C653 1.396 . S
C652 C657 1.390 . S
C653 C647 1.465 . S
C653 C652 1.396 . S
C653 C654 1.399 . S
C654 H640 0.929 . S
C654 C653 1.399 . S
C654 C655 1.385 . S
C655 H641 0.931 . S
C655 C654 1.385 . S
C655 C656 1.389 . S
C656 C655 1.389 . S
C656 C657 1.387 . S
C657 H642 0.930 . S
C657 C652 1.390 . S
C657 C656 1.387 . S
H658 C670 0.930 . S
H659 C672 0.930 . S
H660 C673 0.930 . S
H661 C677 0.959 . S
H662 C677 0.959 . S
H663 C677 0.961 . S
H664 C678 0.960 . S
H665 C678 0.961 . S
H666 C678 0.959 . S
H667 C681 0.929 . S
H668 C682 0.931 . S
H669 C684 0.930 . S
C670 H658 0.930 . S
C670 C671 1.399 . S
C670 C675 1.399 . S
C671 C670 1.399 . S
C671 C672 1.376 . S
C672 H659 0.930 . S
C672 C671 1.376 . S
C672 C673 1.388 . S
C673 H660 0.930 . S
C673 C672 1.388 . S
C673 C674 1.390 . S
C674 C673 1.390 . S
C674 C675 1.394 . S
C674 C680 1.465 . S
C675 C670 1.399 . S
C675 C674 1.394 . S
C675 C676 1.516 . S
C676 C675 1.516 . S
C676 C677 1.502 . S
C676 C678 1.561 . S
C676 C679 1.526 . S
C677 H661 0.959 . S
C677 H662 0.959 . S
C677 H663 0.961 . S
C677 C676 1.502 . S
C678 H664 0.960 . S
C678 H665 0.961 . S
C678 H666 0.959 . S
C678 C676 1.561 . S
C679 C676 1.526 . S
C679 C680 1.396 . S
C679 C684 1.390 . S
C680 C674 1.465 . S
C680 C679 1.396 . S
C680 C681 1.399 . S
C681 H667 0.929 . S
C681 C680 1.399 . S
C681 C682 1.385 . S
C682 H668 0.931 . S
C682 C681 1.385 . S
C682 C683 1.389 . S
C683 C682 1.389 . S
C683 C684 1.387 . S
C684 H669 0.930 . S
C684 C679 1.390 . S
C684 C683 1.387 . S
H685 C697 0.930 . S
H686 C699 0.930 . S
H687 C700 0.930 . S
H688 C704 0.959 . S
H689 C704 0.959 . S
H690 C704 0.961 . S
H691 C705 0.960 . S
H692 C705 0.961 . S
H693 C705 0.959 . S
H694 C708 0.929 . S
H695 C709 0.931 . S
H696 C711 0.930 . S
C697 H685 0.930 . S
C697 C698 1.399 . S
C697 C702 1.399 . S
C698 C697 1.399 . S
C698 C699 1.376 . S
C699 H686 0.930 . S
C699 C698 1.376 . S
C699 C700 1.388 . S
C700 H687 0.930 . S
C700 C699 1.388 . S
C700 C701 1.390 . S
C701 C700 1.390 . S
C701 C702 1.394 . S
C701 C707 1.465 . S
C702 C697 1.399 . S
C702 C701 1.394 . S
C702 C703 1.516 . S
C703 C702 1.516 . S
C703 C704 1.502 . S
C703 C705 1.561 . S
C703 C706 1.526 . S
C704 H688 0.959 . S
C704 H689 0.959 . S
C704 H690 0.961 . S
C704 C703 1.502 . S
C705 H691 0.960 . S
C705 H692 0.961 . S
C705 H693 0.959 . S
C705 C703 1.561 . S
C706 C703 1.526 . S
C706 C707 1.396 . S
C706 C711 1.390 . S
C707 C701 1.465 . S
C707 C706 1.396 . S
C707 C708 1.399 . S
C708 H694 0.929 . S
C708 C707 1.399 . S
C708 C709 1.385 . S
C709 H695 0.931 . S
C709 C708 1.385 . S
C709 C710 1.389 . S
C710 C709 1.389 . S
C710 C711 1.387 . S
C711 H696 0.930 . S
C711 C706 1.390 . S
C711 C710 1.387 . S
H712 C724 0.930 . S
H713 C726 0.930 . S
H714 C727 0.930 . S
H715 C731 0.959 . S
H716 C731 0.959 . S
H717 C731 0.961 . S
H718 C732 0.960 . S
H719 C732 0.961 . S
H720 C732 0.959 . S
H721 C735 0.929 . S
H722 C736 0.931 . S
H723 C738 0.930 . S
C724 H712 0.930 . S
C724 C725 1.399 . S
C724 C729 1.446 . S
C725 C724 1.399 . S
C725 C726 1.376 . S
C726 H713 0.930 . S
C726 C725 1.376 . S
C726 C727 1.388 . S
C727 H714 0.930 . S
C727 C726 1.388 . S
C727 C728 1.390 1_556 S
C728 C727 1.390 1_554 S
C728 C729 1.380 1_554 S
C728 C734 1.465 . S
C729 C724 1.446 . S
C729 C728 1.380 1_556 S
C729 C730 1.478 1_556 S
C730 C729 1.478 1_554 S
C730 C731 1.502 . S
C730 C732 1.561 . S
C730 C733 1.526 . S
C731 H715 0.959 . S
C731 H716 0.959 . S
C731 H717 0.961 . S
C731 C730 1.502 . S
C732 H718 0.960 . S
C732 H719 0.961 . S
C732 H720 0.959 . S
C732 C730 1.561 . S
C733 C730 1.526 . S
C733 C734 1.396 . S
C733 C738 1.390 . S
C734 C728 1.465 . S
C734 C733 1.396 . S
C734 C735 1.399 . S
C735 H721 0.929 . S
C735 C734 1.399 . S
C735 C736 1.385 . S
C736 H722 0.931 . S
C736 C735 1.385 . S
C736 C737 1.389 . S
C737 C736 1.389 . S
C737 C738 1.387 . S
C738 H723 0.930 . S
C738 C733 1.390 . S
C738 C737 1.387 . S
H739 C751 0.930 . S
H740 C753 0.930 . S
H741 C754 0.930 . S
H742 C758 0.959 . S
H743 C758 0.959 . S
H744 C758 0.961 . S
H745 C759 0.960 . S
H746 C759 0.961 . S
H747 C759 0.959 . S
H748 C762 0.929 . S
H749 C763 0.931 . S
H750 C765 0.930 . S
C751 H739 0.930 . S
C751 C752 1.399 . S
C751 C756 1.399 . S
C752 C751 1.399 . S
C752 C753 1.376 . S
C753 H740 0.930 . S
C753 C752 1.376 . S
C753 C754 1.388 . S
C754 H741 0.930 . S
C754 C753 1.388 . S
C754 C755 1.390 . S
C755 C754 1.390 . S
C755 C756 1.394 . S
C755 C761 1.465 . S
C756 C751 1.399 . S
C756 C755 1.394 . S
C756 C757 1.516 . S
C757 C756 1.516 . S
C757 C758 1.502 . S
C757 C759 1.561 . S
C757 C760 1.526 . S
C758 H742 0.959 . S
C758 H743 0.959 . S
C758 H744 0.961 . S
C758 C757 1.502 . S
C759 H745 0.960 . S
C759 H746 0.961 . S
C759 H747 0.959 . S
C759 C757 1.561 . S
C760 C757 1.526 . S
C760 C761 1.396 . S
C760 C765 1.390 . S
C761 C755 1.465 . S
C761 C760 1.396 . S
C761 C762 1.399 . S
C762 H748 0.929 . S
C762 C761 1.399 . S
C762 C763 1.385 . S
C763 H749 0.931 . S
C763 C762 1.385 . S
C763 C764 1.389 . S
C764 C763 1.389 . S
C764 C765 1.387 . S
C765 H750 0.930 . S
C765 C760 1.390 . S
C765 C764 1.387 . S
H766 C778 0.930 . S
H767 C780 0.930 . S
H768 C781 0.930 . S
H769 C785 0.959 . S
H770 C785 0.959 . S
H771 C785 0.961 . S
H772 C786 0.960 . S
H773 C786 0.961 . S
H774 C786 0.959 . S
H775 C789 0.929 . S
H776 C790 0.931 . S
H777 C792 0.930 . S
C778 H766 0.930 . S
C778 C779 1.399 . S
C778 C783 1.399 . S
C779 C778 1.399 . S
C779 C780 1.376 . S
C780 H767 0.930 . S
C780 C779 1.376 . S
C780 C781 1.388 . S
C781 H768 0.930 . S
C781 C780 1.388 . S
C781 C782 1.390 . S
C782 C781 1.390 . S
C782 C783 1.394 . S
C782 C788 1.465 . S
C783 C778 1.399 . S
C783 C782 1.394 . S
C783 C784 1.516 . S
C784 C783 1.516 . S
C784 C785 1.502 . S
C784 C786 1.561 . S
C784 C787 1.526 . S
C785 H769 0.959 . S
C785 H770 0.959 . S
C785 H771 0.961 . S
C785 C784 1.502 . S
C786 H772 0.960 . S
C786 H773 0.961 . S
C786 H774 0.959 . S
C786 C784 1.561 . S
C787 C784 1.526 . S
C787 C788 1.396 . S
C787 C792 1.390 . S
C788 C782 1.465 . S
C788 C787 1.396 . S
C788 C789 1.399 . S
C789 H775 0.929 . S
C789 C788 1.399 . S
C789 C790 1.385 . S
C790 H776 0.931 . S
C790 C789 1.385 . S
C790 C791 1.389 . S
C791 C790 1.389 . S
C791 C792 1.387 . S
C792 H777 0.930 . S
C792 C787 1.390 . S
C792 C791 1.387 . S
H793 C805 0.930 . S
H794 C807 0.930 . S
H795 C808 0.930 . S
H796 C812 0.959 . S
H797 C812 0.959 . S
H798 C812 0.961 . S
H799 C813 0.960 . S
H800 C813 0.961 . S
H801 C813 0.959 . S
H802 C816 0.929 . S
H803 C817 0.931 . S
H804 C819 0.930 . S
C805 H793 0.930 . S
C805 C806 1.399 . S
C805 C810 1.399 . S
C806 C805 1.399 . S
C806 C807 1.376 . S
C807 H794 0.930 . S
C807 C806 1.376 . S
C807 C808 1.388 . S
C808 H795 0.930 . S
C808 C807 1.388 . S
C808 C809 1.390 . S
C809 C808 1.390 . S
C809 C810 1.394 . S
C809 C815 1.465 . S
C810 C805 1.399 . S
C810 C809 1.394 . S
C810 C811 1.516 . S
C811 C810 1.516 . S
C811 C812 1.502 . S
C811 C813 1.561 . S
C811 C814 1.526 . S
C812 H796 0.959 . S
C812 H797 0.959 . S
C812 H798 0.961 . S
C812 C811 1.502 . S
C813 H799 0.960 . S
C813 H800 0.961 . S
C813 H801 0.959 . S
C813 C811 1.561 . S
C814 C811 1.526 . S
C814 C815 1.396 . S
C814 C819 1.390 . S
C815 C809 1.465 . S
C815 C814 1.396 . S
C815 C816 1.399 . S
C816 H802 0.929 . S
C816 C815 1.399 . S
C816 C817 1.385 . S
C817 H803 0.931 . S
C817 C816 1.385 . S
C817 C818 1.389 . S
C818 C817 1.389 . S
C818 C819 1.387 . S
C819 H804 0.930 . S
C819 C814 1.390 . S
C819 C818 1.387 . S
C197 C95 1.426 . S
C185 C4 1.550 . S
C224 C113 1.310 . S
C212 C21 1.463 1_655 S
C239 C32 1.358 . S
C251 C137 1.223 . S
C278 C167 1.225 . S
C266 C37 1.417 . S
C305 C155 1.302 . S
C293 C48 1.359 . S
C320 C65 1.435 . S
C332 C108 1.431 . S
C347 C76 1.585 . S
C359 C128 1.504 . S
C374 C81 1.435 . S
C386 C133 1.294 . S
C401 C87 1.435 . S
C413 C149 1.414 . S
C428 C59 1.430 . S
C440 C104 1.264 . S
C467 C171 1.413 . S
C455 C43 1.436 . S
C494 C116 1.259 . S
C482 C15 1.428 . S
C509 C26 1.537 . S
C521 C134 1.443 . S
C536 C10 1.369 . S
C548 C92 1.259 . S
C575 C112 1.178 . S
C563 C70 1.298 . S
C602 C158 1.502 . S
C590 C54 1.586 . S
C629 C154 1.328 . S
C617 C5 1.515 . S
C656 C107 1.491 . S
C644 C16 1.531 . S
C671 C27 1.479 . S
C683 C129 1.343 . S
C698 C38 1.505 . S
C710 C150 1.445 . S
C737 C91 1.385 . S
C725 C49 1.565 . S
C752 C60 1.524 . S
C764 C125 1.476 . S
C791 C146 1.408 . S
C779 C71 1.577 . S
C818 C170 1.451 . S
C806 C82 1.502 . S
