# Generated by pormake.
# Topology pyr, (3,6)-cn, num edge types: 1
# Building blocks:
#     Node 0, Type 0, BuildingBlock: QEWDON_clean_linker_0, # of connection points: 3
#     Node 1, Type 0, BuildingBlock: QEWDON_clean_linker_0, # of connection points: 3
#     Node 2, Type 0, BuildingBlock: QEWDON_clean_linker_0, # of connection points: 3
#     Node 3, Type 0, BuildingBlock: QEWDON_clean_linker_0, # of connection points: 3
#     Node 4, Type 0, BuildingBlock: QEWDON_clean_linker_0, # of connection points: 3
#     Node 5, Type 0, BuildingBlock: QEWDON_clean_linker_0, # of connection points: 3
#     Node 6, Type 0, BuildingBlock: QEWDON_clean_linker_0, # of connection points: 3
#     Node 7, Type 0, BuildingBlock: QEWDON_clean_linker_0, # of connection points: 3
#     Node 8, Type 1, BuildingBlock: VOLQOD_clean_sbu_1, # of connection points: 6
#     Node 9, Type 1, BuildingBlock: VOLQOD_clean_sbu_1, # of connection points: 6
#     Node 10, Type 1, BuildingBlock: VOLQOD_clean_sbu_1, # of connection points: 6
#     Node 11, Type 1, BuildingBlock: VOLQOD_clean_sbu_1, # of connection points: 6
#     Edge 12, Type (0, 1), BuildingBlock: OJICUG_clean_linker_0, # of connection points: 2
#     Edge 13, Type (0, 1), BuildingBlock: OJICUG_clean_linker_0, # of connection points: 2
#     Edge 14, Type (0, 1), BuildingBlock: OJICUG_clean_linker_0, # of connection points: 2
#     Edge 15, Type (0, 1), BuildingBlock: OJICUG_clean_linker_0, # of connection points: 2
#     Edge 16, Type (0, 1), BuildingBlock: OJICUG_clean_linker_0, # of connection points: 2
#     Edge 17, Type (0, 1), BuildingBlock: OJICUG_clean_linker_0, # of connection points: 2
#     Edge 18, Type (0, 1), BuildingBlock: OJICUG_clean_linker_0, # of connection points: 2
#     Edge 19, Type (0, 1), BuildingBlock: OJICUG_clean_linker_0, # of connection points: 2
#     Edge 20, Type (0, 1), BuildingBlock: OJICUG_clean_linker_0, # of connection points: 2
#     Edge 21, Type (0, 1), BuildingBlock: OJICUG_clean_linker_0, # of connection points: 2
#     Edge 22, Type (0, 1), BuildingBlock: OJICUG_clean_linker_0, # of connection points: 2
#     Edge 23, Type (0, 1), BuildingBlock: OJICUG_clean_linker_0, # of connection points: 2
#     Edge 24, Type (0, 1), BuildingBlock: OJICUG_clean_linker_0, # of connection points: 2
#     Edge 25, Type (0, 1), BuildingBlock: OJICUG_clean_linker_0, # of connection points: 2
#     Edge 26, Type (0, 1), BuildingBlock: OJICUG_clean_linker_0, # of connection points: 2
#     Edge 27, Type (0, 1), BuildingBlock: OJICUG_clean_linker_0, # of connection points: 2
#     Edge 28, Type (0, 1), BuildingBlock: OJICUG_clean_linker_0, # of connection points: 2
#     Edge 29, Type (0, 1), BuildingBlock: OJICUG_clean_linker_0, # of connection points: 2
#     Edge 30, Type (0, 1), BuildingBlock: OJICUG_clean_linker_0, # of connection points: 2
#     Edge 31, Type (0, 1), BuildingBlock: OJICUG_clean_linker_0, # of connection points: 2
#     Edge 32, Type (0, 1), BuildingBlock: OJICUG_clean_linker_0, # of connection points: 2
#     Edge 33, Type (0, 1), BuildingBlock: OJICUG_clean_linker_0, # of connection points: 2
#     Edge 34, Type (0, 1), BuildingBlock: OJICUG_clean_linker_0, # of connection points: 2
#     Edge 35, Type (0, 1), BuildingBlock: OJICUG_clean_linker_0, # of connection points: 2
# Relax obj value: 0.175
# Max RMSD: 0.273
# Mean RMSD: 0.201
data_MOF--net-pry--node1-VOLQOD_clean_sbu_1--node2-QEWDON_clean_linker_0--edge1-OJICUG_clean_linker_0
_symmetry_space_group_name_H-M    P1
_symmetry_Int_Tables_number       1
_symmetry_cell_setting            triclinic
loop_
_symmetry_equiv_pos_as_xyz
'x, y, z'
_cell_length_a     27.746896
_cell_length_b     27.659053
_cell_length_c     29.637002
_cell_angle_alpha  90.159366
_cell_angle_beta   90.622063
_cell_angle_gamma 98.392337
loop_
_atom_site_label
_atom_site_type_symbol
_atom_site_fract_x
_atom_site_fract_y
_atom_site_fract_z
_atom_type_partial_charge
H0 H 0.24613 0.22631 0.14372 0.0
C1 C 0.22621 0.20891 0.17195 0.0
C2 C 0.23627 0.16355 0.18819 0.0
C3 C 0.1925 0.23413 0.19349 0.0
H4 H 0.21764 0.10892 0.23983 0.0
C5 C 0.20971 0.14285 0.22545 0.0
C6 C 0.17428 0.16669 0.24618 0.0
C7 C 0.16576 0.21243 0.22991 0.0
C8 C 0.19435 0.28688 0.18452 0.0
H9 H 0.14103 0.23264 0.24758 0.0
C10 C 0.1593 0.30545 0.15739 0.0
C11 C 0.16542 0.35567 0.14679 0.0
C12 C 0.23431 0.31882 0.20182 0.0
H13 H 0.2616 0.30507 0.22267 0.0
C14 C 0.23982 0.3685 0.19202 0.0
H15 H 0.12859 0.28098 0.14356 0.0
C16 C 0.20583 0.38682 0.16445 0.0
H17 H 0.21098 0.42555 0.15695 0.0
H18 H 0.27079 0.39282 0.20545 0.0
H19 H 0.36281 0.95069 0.81621 0.0
C20 C 0.38083 0.92395 0.79884 0.0
C21 C 0.42347 0.90957 0.81701 0.0
C22 C 0.35956 0.90337 0.75904 0.0
H23 H 0.48055 0.86572 0.80479 0.0
C24 C 0.44731 0.87669 0.79165 0.0
C25 C 0.42752 0.85712 0.74987 0.0
C26 C 0.383 0.87051 0.73459 0.0
C27 C 0.3099 0.91219 0.74638 0.0
H28 H 0.36483 0.85349 0.70482 0.0
C29 C 0.29904 0.92853 0.703 0.0
C30 C 0.2515 0.93701 0.69255 0.0
C31 C 0.2728 0.90409 0.77865 0.0
H32 H 0.2803 0.89112 0.8121 0.0
C33 C 0.22562 0.91213 0.76799 0.0
H34 H 0.32733 0.93509 0.67788 0.0
C35 C 0.21496 0.92853 0.72517 0.0
H36 H 0.17812 0.93484 0.71745 0.0
H37 H 0.19727 0.90568 0.79298 0.0
H38 H 0.64761 0.50107 0.98398 0.0
C39 C 0.63707 0.46324 0.99358 0.0
C40 C 0.67284 0.4337 1.00316 0.0
C41 C 0.5875 0.44444 0.99643 0.0
H42 H 0.68578 0.3613 0.02122 0.0
C43 C 0.65837 0.38486 0.01551 0.0
C44 C 0.60884 0.36568 0.01911 0.0
C45 C 0.57347 0.39587 0.00975 0.0
C46 C 0.55067 0.47427 0.98105 0.0
H47 H 0.53509 0.38138 0.01179 0.0
C48 C 0.55419 0.49389 0.93749 0.0
C49 C 0.5178 0.51897 0.92016 0.0
C50 C 0.51096 0.48105 0.00805 0.0
H51 H 0.50763 0.46602 0.04178 0.0
C52 C 0.47523 0.50733 0.99144 0.0
H53 H 0.58396 0.48705 0.91607 0.0
C54 C 0.47829 0.52585 0.94753 0.0
H55 H 0.44961 0.54495 0.93474 0.0
H56 H 0.44463 0.51255 0.01232 0.0
H57 H 0.8548 0.75099 0.35906 0.0
C58 C 0.83653 0.73439 0.38854 0.0
C59 C 0.84835 0.75479 0.43131 0.0
C60 C 0.80086 0.69313 0.38369 0.0
H61 H 0.83239 0.75034 0.5025 0.0
C62 C 0.82403 0.73403 0.4695 0.0
C63 C 0.78821 0.693 0.46523 0.0
C64 C 0.77714 0.67254 0.42223 0.0
C65 C 0.78775 0.67183 0.33843 0.0
H66 H 0.74925 0.64094 0.41865 0.0
C67 C 0.82418 0.6663 0.30695 0.0
C68 C 0.81183 0.64407 0.26496 0.0
C69 C 0.73867 0.65597 0.32679 0.0
H70 H 0.70976 0.66059 0.34997 0.0
C71 C 0.72633 0.63425 0.28491 0.0
H72 H 0.86222 0.67758 0.31563 0.0
C73 C 0.76266 0.62798 0.25422 0.0
H74 H 0.75239 0.61084 0.22193 0.0
H75 H 0.68849 0.62208 0.27628 0.0
H76 H 0.86779 0.88298 0.92236 0.0
C77 C 0.88703 0.89886 0.89307 0.0
C78 C 0.92869 0.88028 0.87823 0.0
C79 C 0.86786 0.93489 0.86821 0.0
H80 H 0.98326 0.88389 0.82628 0.0
C81 C 0.95168 0.89875 0.83829 0.0
C82 C 0.93388 0.93632 0.81399 0.0
C83 C 0.89229 0.95415 0.82964 0.0
C84 C 0.82021 0.94986 0.87972 0.0
H85 H 0.87748 0.98204 0.81054 0.0
C86 C 0.80786 0.95849 0.92473 0.0
C87 C 0.76302 0.97391 0.93423 0.0
C88 C 0.78646 0.95556 0.84493 0.0
H89 H 0.79419 0.94781 0.81012 0.0
C90 C 0.74203 0.97083 0.85457 0.0
H91 H 0.83308 0.95404 0.95206 0.0
C92 C 0.7304 0.98021 0.89897 0.0
H93 H 0.69554 0.99175 0.90597 0.0
H94 H 0.71645 0.97516 0.82757 0.0
H95 H 0.70187 0.17433 0.51963 0.0
C96 C 0.68778 0.16453 0.48609 0.0
C97 C 0.71678 0.14414 0.45447 0.0
C98 C 0.6399 0.17138 0.47502 0.0
H99 H 0.71768 0.11347 0.38737 0.0
C100 C 0.69684 0.13124 0.41139 0.0
C101 C 0.64918 0.13848 0.39963 0.0
C102 C 0.62093 0.15856 0.43185 0.0
C103 C 0.60724 0.18565 0.51014 0.0
H104 H 0.58382 0.16363 0.4237 0.0
C105 C 0.60311 0.23499 0.51879 0.0
C106 C 0.56961 0.24743 0.55101 0.0
C107 C 0.57829 0.14875 0.53396 0.0
H108 H 0.58091 0.11064 0.52753 0.0
C109 C 0.54529 0.16062 0.56576 0.0
H110 H 0.62593 0.26329 0.50048 0.0
C111 C 0.54067 0.20938 0.57406 0.0
H112 H 0.51358 0.21706 0.59802 0.0
H113 H 0.5227 0.13185 0.58368 0.0
H114 H 0.41563 0.69561 0.22954 0.0
C115 C 0.38141 0.69021 0.2109 0.0
C116 C 0.36724 0.72927 0.18675 0.0
C117 C 0.3519 0.64436 0.21074 0.0
H118 H 0.3135 0.75274 0.1422 0.0
C119 C 0.3237 0.72263 0.16174 0.0
C120 C 0.29465 0.67683 0.15981 0.0
C121 C 0.30875 0.6378 0.18454 0.0
C122 C 0.36654 0.60356 0.23766 0.0
H123 H 0.2856 0.60267 0.18401 0.0
C124 C 0.38694 0.61231 0.2812 0.0
C125 C 0.40246 0.57428 0.30632 0.0
C126 C 0.36108 0.55591 0.21982 0.0
H127 H 0.34605 0.54811 0.18626 0.0
C128 C 0.37599 0.51792 0.24478 0.0
H129 H 0.39111 0.64881 0.29547 0.0
C130 C 0.39669 0.52696 0.28766 0.0
H131 H 0.40772 0.49679 0.30644 0.0
H132 H 0.3717 0.48135 0.23075 0.0
H133 H 0.14883 0.5177 0.63363 0.0
C134 C 0.13889 0.48027 0.62216 0.0
C135 C 0.17525 0.45267 0.60988 0.0
C136 C 0.0898 0.45909 0.62177 0.0
H137 H 0.19024 0.38193 0.58865 0.0
C138 C 0.16206 0.4036 0.59711 0.0
C139 C 0.11306 0.38191 0.59661 0.0
C140 C 0.07701 0.41028 0.60823 0.0
C141 C 0.05249 0.4856 0.64113 0.0
H142 H 0.03905 0.39392 0.6085 0.0
C143 C 0.05894 0.50403 0.68526 0.0
C144 C 0.02145 0.52369 0.707 0.0
C145 C 0.00883 0.48863 0.61776 0.0
H146 H 0.00315 0.47431 0.58375 0.0
C147 C 0.97199 0.50972 0.63845 0.0
H148 H 0.09277 0.50147 0.7031 0.0
C149 C 0.97793 0.52672 0.68289 0.0
H150 H 0.94783 0.54085 0.69867 0.0
H151 H 0.93824 0.51181 0.6204 0.0
O152 O 0.02485 0.15239 0.57406 0.0
Zn153 Zn 0.98994 0.0843 0.56361 0.0
O154 O 0.02677 0.05093 0.52061 0.0
Zn155 Zn 0.99256 0.04493 0.46242 0.0
Zn156 Zn 0.0921 0.08605 0.51287 0.0
Zn157 Zn 0.03386 0.9874 0.54448 0.0
O158 O 0.96881 0.97337 0.44866 0.0
O159 O -0.00226 0.93514 0.50656 0.0
O160 O 0.92335 0.09226 0.53785 0.0
O161 O 0.9323 0.07827 0.46468 0.0
O162 O 0.03649 0.07432 0.41192 0.0
O163 O 0.10805 0.09401 0.44683 0.0
O164 O 0.14317 0.05241 0.545 0.0
O165 O 0.98264 0.04877 0.62373 0.0
O166 O 0.10331 0.9771 0.54954 0.0
O167 O 0.00877 0.97868 0.60788 0.0
C168 C 0.06554 0.17497 0.56083 0.0
C169 C 0.97364 0.93421 0.46979 0.0
C170 C 0.08195 0.09055 0.41096 0.0
C171 C 0.90768 0.09203 0.49719 0.0
C172 C 0.14229 0.00725 0.55402 0.0
C173 C 0.99108 0.00645 0.63555 0.0
O174 O 0.09458 0.15383 0.53739 0.0
O175 O 0.52056 0.13649 0.04869 0.0
Zn176 Zn 0.48504 0.06961 0.064 0.0
O177 O 0.52296 0.03758 0.10821 0.0
Zn178 Zn 0.53675 0.97559 0.08364 0.0
Zn179 Zn 0.58503 0.07798 0.12111 0.0
Zn180 Zn 0.48685 0.02685 0.1644 0.0
O181 O 0.50547 0.91934 0.12087 0.0
O182 O 0.46707 0.95513 0.17416 0.0
O183 O 0.47145 0.02842 1.00666 0.0
O184 O 0.5108 0.96522 0.01977 0.0
O185 O 0.6082 0.97356 0.07806 0.0
O186 O 0.64056 0.05033 0.09192 0.0
O187 O 0.59765 0.08662 0.18802 0.0
O188 O 0.42177 0.08354 0.09109 0.0
O189 O 0.52737 0.05494 0.21843 0.0
O190 O 0.42483 0.05687 0.1617 0.0
C191 C 0.55813 0.16209 0.06607 0.0
C192 C 0.47778 0.9169 0.15503 0.0
C193 C 0.64461 0.00734 0.07848 0.0
C194 C 0.4855 0.98863 0.99399 0.0
C195 C 0.57094 0.07692 0.22248 0.0
C196 C 0.40354 0.07719 0.13027 0.0
O197 O 0.58447 0.1444 0.09534 0.0
O198 O 0.55785 0.58374 0.71052 0.0
Zn199 Zn 0.55559 0.61532 0.64874 0.0
O200 O 0.51013 0.57461 0.60799 0.0
Zn201 Zn 0.54331 0.55198 0.55687 0.0
Zn202 Zn 0.48166 0.51607 0.63906 0.0
Zn203 Zn 0.45968 0.61244 0.58676 0.0
O204 O 0.51093 0.56741 0.49923 0.0
O205 O 0.4595 0.61828 0.51828 0.0
O206 O 0.6226 0.63159 0.61944 0.0
O207 O 0.61095 0.58596 0.55708 0.0
O208 O 0.54731 0.47985 0.55695 0.0
O209 O 0.50831 0.45475 0.61925 0.0
O210 O 0.40956 0.50534 0.62993 0.0
O211 O 0.52941 0.67798 0.66364 0.0
O212 O 0.39359 0.57495 0.60007 0.0
O213 O 0.46452 0.67851 0.6191 0.0
C214 C 0.52623 0.55149 0.72839 0.0
C215 C 0.4798 0.59501 0.48837 0.0
C216 C 0.5328 0.4461 0.58478 0.0
C217 C 0.63805 0.61565 0.58259 0.0
C218 C 0.37938 0.53241 0.61556 0.0
C219 C 0.49356 0.6982 0.64991 0.0
O220 O 0.49378 0.52542 0.70473 0.0
O221 O 0.94777 0.56931 0.1125 0.0
Zn222 Zn 0.96741 0.53876 0.05605 0.0
O223 O -0.0022 0.58908 0.01595 0.0
Zn224 Zn 0.95379 0.59715 0.96677 0.0
Zn225 Zn 0.01093 0.6517 0.04775 0.0
Zn226 Zn 0.0571 0.56793 0.9937 0.0
O227 O 0.9812 0.57712 0.90966 0.0
O228 O 0.05703 0.56425 0.92496 0.0
O229 O 0.90391 0.50673 0.03021 0.0
O230 O 0.888 0.5571 0.97554 0.0
O231 O 0.94857 0.66747 0.95563 0.0
O232 O -0.00401 0.70841 0.00795 0.0
O233 O 0.08185 0.66171 0.06632 0.0
O234 O 0.01002 0.48751 0.07115 0.0
O235 O 0.11469 0.61178 0.02039 0.0
O236 O 0.06679 0.5021 0.01896 0.0
C237 C 0.94793 0.61297 0.12616 0.0
C238 C 0.02234 0.5675 0.89697 0.0
C239 C 0.96907 0.70762 0.97265 0.0
C240 C 0.87503 0.52037 1.00077 0.0
C241 C 0.11876 0.64417 0.05151 0.0
C242 C 0.04759 0.47647 0.05156 0.0
O243 O 0.96932 0.64931 0.10405 0.0
C244 C 0.17804 0.1317 0.32372 0.0
C245 C 0.15001 0.14599 0.28772 0.0
H246 H 0.17862 0.10316 0.3907 0.0
C247 C 0.09914 0.14077 0.29196 0.0
H248 H 0.21738 0.13575 0.32153 0.0
C249 C 0.07674 0.12141 0.33147 0.0
C250 C 0.10492 0.10786 0.36781 0.0
H251 H 0.07673 0.15142 0.26463 0.0
H252 H 0.03747 0.1181 0.33393 0.0
C253 C 0.15582 0.11318 0.36339 0.0
C254 C 0.49021 0.93588 0.87568 0.0
C255 C 0.4405 0.92785 0.8632 0.0
H256 H 0.5434 0.96097 0.92723 0.0
C257 C 0.40628 0.9387 0.89537 0.0
H258 H 0.51783 0.9283 0.85225 0.0
C259 C 0.42118 0.95946 0.93714 0.0
C260 C 0.47055 0.96791 0.94909 0.0
H261 H 0.36751 0.93106 0.88861 0.0
H262 H 0.39388 0.96792 0.96062 0.0
C263 C 0.50498 0.95505 0.91847 0.0
C264 C 0.56199 0.5561 0.85235 0.0
C265 C 0.51893 0.53259 0.87199 0.0
H266 H 0.59821 0.58088 0.79123 0.0
C267 C 0.47827 0.51708 0.8444 0.0
H268 H 0.59386 0.56831 0.87308 0.0
C269 C 0.48102 0.52336 0.79786 0.0
C270 C 0.52434 0.54584 0.77789 0.0
H271 H 0.44491 0.49828 0.85861 0.0
H272 H 0.44909 0.51027 0.7775 0.0
C273 C 0.56454 0.5631 0.80564 0.0
C274 C 0.8512 0.58917 0.21522 0.0
C275 C 0.85007 0.63609 0.23266 0.0
H276 H 0.88363 0.54495 0.16886 0.0
C277 C 0.88422 0.67518 0.21777 0.0
H278 H 0.82556 0.55841 0.22663 0.0
C279 C 0.91747 0.66774 0.18411 0.0
C280 C 0.9175 0.62091 0.16549 0.0
H281 H 0.88393 0.71171 0.23094 0.0
H282 H 0.94224 0.69875 0.17195 0.0
C283 C 0.88475 0.58156 0.1823 0.0
C284 C 0.31851 0.16918 0.15069 0.0
C285 C 0.27742 0.14028 0.16935 0.0
H286 H 0.38972 0.17138 0.12262 0.0
C287 C 0.27762 0.08934 0.17214 0.0
H288 H 0.32118 0.20851 0.14889 0.0
C289 C 0.31839 0.06856 0.15895 0.0
C290 C 0.35902 0.09784 0.14089 0.0
H291 H 0.24658 0.06531 0.18501 0.0
H292 H 0.31821 0.0296 0.16286 0.0
C293 C 0.35835 0.14805 0.13594 0.0
C294 C 0.21139 0.92227 0.61787 0.0
C295 C 0.23833 0.95492 0.64808 0.0
H296 H 0.16072 0.91366 0.56266 0.0
C297 C 0.24196 0.00537 0.64055 0.0
H298 H 0.20793 0.88322 0.62346 0.0
C299 C 0.21479 0.02304 0.60582 0.0
C300 C 0.18327 0.99029 0.57874 0.0
H301 H 0.2622 0.03104 0.66397 0.0
H302 H 0.21478 0.06209 0.60325 0.0
C303 C 0.18426 0.93981 0.58327 0.0
C304 C 0.74269 0.48635 0.96612 0.0
C305 C 0.72525 0.45383 1.00063 0.0
H306 H 0.80387 0.53269 0.93879 0.0
C307 C 0.75808 0.44141 0.03352 0.0
H308 H 0.71845 0.49596 0.93981 0.0
C309 C 0.80702 0.46176 0.03251 0.0
C310 C 0.82424 0.49539 0.99883 0.0
H311 H 0.74573 0.41698 0.06088 0.0
H312 H 0.83101 0.45216 0.05905 0.0
C313 C 0.79169 0.50708 0.96531 0.0
C314 C 0.74759 0.62252 0.50996 0.0
C315 C 0.75946 0.67323 0.50466 0.0
H316 H 0.69994 0.56435 0.54041 0.0
C317 C 0.73836 0.70456 0.53359 0.0
H318 H 0.76412 0.59754 0.48888 0.0
C319 C 0.70203 0.68544 0.56376 0.0
C320 C 0.68639 0.6349 0.56503 0.0
H321 H 0.74688 0.74385 0.53024 0.0
H322 H 0.68305 0.71031 0.58264 0.0
C323 C 0.71125 0.60354 0.53974 0.0
C324 C 0.14845 0.40221 0.0781 0.0
C325 C 0.13096 0.37702 0.11701 0.0
H326 H 0.13554 0.45243 0.02631 0.0
C327 C 0.08312 0.37936 0.13076 0.0
H328 H 0.18531 0.40096 0.06693 0.0
C329 C 0.05454 0.40947 0.10782 0.0
C330 C 0.0733 0.43742 0.07057 0.0
H331 H 0.06905 0.36051 0.16092 0.0
H332 H 0.01876 0.41272 0.12068 0.0
C333 C 0.11986 0.43178 0.05492 0.0
C334 C 0.55639 0.28428 0.00882 0.0
C335 C 0.5946 0.31379 0.03163 0.0
H336 H 0.51502 0.21299 1.00149 0.0
C337 C 0.62037 0.29306 0.06577 0.0
H338 H 0.53626 0.29912 0.98195 0.0
C339 C 0.6087 0.24379 0.07651 0.0
C340 C 0.57074 0.21406 0.05359 0.0
H341 H 0.64951 0.31503 0.0844 0.0
H342 H 0.62938 0.22916 0.10313 0.0
C343 C 0.54451 0.23486 0.01973 0.0
C344 C 0.88171 0.84054 0.41002 0.0
C345 C 0.88485 0.79894 0.43637 0.0
H346 H 0.90771 0.91645 0.39976 0.0
C347 C 0.92105 0.80074 0.46989 0.0
H348 H 0.85395 0.83991 0.38396 0.0
C349 C 0.95186 0.84415 0.47876 0.0
C350 C 0.94679 0.88684 0.45454 0.0
H351 H 0.92462 0.76884 0.49011 0.0
H352 H 0.97833 0.8446 0.50595 0.0
C353 C 0.91242 0.88427 0.4191 0.0
C354 C 0.4757 0.78589 0.74508 0.0
C355 C 0.45032 0.81998 0.72339 0.0
H356 H 0.50985 0.72151 0.73875 0.0
C357 C 0.44367 0.81586 0.67609 0.0
H358 H 0.48127 0.78692 0.78127 0.0
C359 C 0.45854 0.77707 0.65196 0.0
C360 C 0.48226 0.7423 0.67405 0.0
H361 H 0.42594 0.84208 0.65752 0.0
H362 H 0.45108 0.77403 0.61602 0.0
C363 C 0.49192 0.74797 0.72064 0.0
C364 C 0.96772 0.92276 0.73714 0.0
C365 C 0.95521 0.95502 0.77029 0.0
H366 H 0.98853 0.91353 0.66861 0.0
C367 C 0.95787 0.0049 0.75948 0.0
H368 H 0.96563 0.8841 0.74411 0.0
C369 C 0.96993 0.02163 0.716 0.0
C370 C 0.98039 0.98906 0.68229 0.0
H371 H 0.94937 0.03098 0.78444 0.0
H372 H 0.97052 0.06007 0.70873 0.0
C373 C 0.98033 0.93962 0.69368 0.0
C374 C 0.5807 0.0989 0.34928 0.0
C375 C 0.62864 0.1233 0.35422 0.0
H376 H 0.52499 0.06482 0.30416 0.0
C377 C 0.6573 0.13226 0.31546 0.0
H378 H 0.55783 0.09081 0.37848 0.0
C379 C 0.63862 0.11708 0.27289 0.0
C380 C 0.59076 0.09248 0.26791 0.0
H381 H 0.69416 0.15145 0.31796 0.0
H382 H 0.66182 0.1248 0.24385 0.0
C383 C 0.56199 0.08364 0.30666 0.0
C384 C 0.40406 0.61221 0.38374 0.0
C385 C 0.42474 0.58376 0.35188 0.0
H386 H 0.40532 0.63847 0.45193 0.0
C387 C 0.46624 0.5631 0.36421 0.0
H388 H 0.37196 0.62851 0.37523 0.0
C389 C 0.48544 0.56893 0.40792 0.0
C390 C 0.4635 0.59542 0.44054 0.0
H391 H 0.48358 0.54184 0.34015 0.0
H392 H 0.51674 0.55136 0.41642 0.0
C393 C 0.4232 0.61793 0.42768 0.0
C394 C 0.00502 0.57765 0.77157 0.0
C395 C 0.02666 0.53825 0.75538 0.0
H396 H 0.98703 0.6177 0.82926 0.0
C397 C 0.05133 0.51145 0.78625 0.0
H398 H 0.98686 0.5999 0.74883 0.0
C399 C 0.05273 0.52276 0.83231 0.0
C400 C 0.02858 0.56027 0.84836 0.0
H401 H 0.06782 0.48036 0.77527 0.0
H402 H 0.07028 0.50047 0.85554 0.0
C403 C 0.00553 0.58818 0.81758 0.0
C404 C 0.72435 0.94259 1.00525 0.0
C405 C 0.74798 0.98211 0.98067 0.0
H406 H 0.6733 0.91972 0.05726 0.0
C407 C 0.74623 0.02993 0.99564 0.0
H408 H 0.72505 0.90545 0.99384 0.0
C409 C 0.71699 0.03828 0.0321 0.0
C410 C 0.68827 -0.00118 0.05322 0.0
H411 H 0.764 0.06082 0.9767 0.0
H412 H 0.71298 0.07564 0.04038 0.0
C413 C 0.69464 0.95087 0.04137 0.0
C414 C 0.80354 0.13723 0.43382 0.0
C415 C 0.76681 0.13384 0.4666 0.0
H416 H 0.87619 0.12634 0.41758 0.0
C417 C 0.77785 0.11842 0.51031 0.0
H418 H 0.79713 0.15009 0.40013 0.0
C419 C 0.82389 0.10592 0.5206 0.0
C420 C 0.85975 0.10771 0.48727 0.0
H421 H 0.75055 0.11454 0.53637 0.0
H422 H 0.83088 0.09348 0.55434 0.0
C423 C 0.84913 0.12385 0.44388 0.0
C424 C 0.21637 0.70262 0.13297 0.0
C425 C 0.25042 0.66976 0.13082 0.0
H426 H 0.14798 0.72058 0.10927 0.0
C427 C 0.2426 0.63071 0.10005 0.0
H428 H 0.22169 0.73311 0.15641 0.0
C429 C 0.20103 0.62405 0.07248 0.0
C430 C 0.16601 0.65592 0.07562 0.0
H431 H 0.26871 0.60531 0.0973 0.0
H432 H 0.19557 0.59285 0.04987 0.0
C433 C 0.17435 0.69556 0.10588 0.0
C434 C 0.26143 0.44743 0.63204 0.0
C435 C 0.22724 0.47413 0.61262 0.0
H436 H 0.33607 0.44492 0.64845 0.0
C437 C 0.24311 0.52102 0.5956 0.0
H438 H 0.25008 0.41159 0.64624 0.0
C439 C 0.29249 0.5404 0.59709 0.0
C440 C 0.32684 0.51322 0.61572 0.0
H441 H 0.21748 0.54228 0.58029 0.0
H442 H 0.30376 0.57633 0.58308 0.0
C443 C 0.31067 0.46673 0.63354 0.0
C444 C 0.94744 0.79463 0.87864 0.0
C445 C 0.94452 0.83811 0.90223 0.0
H446 H 0.95684 0.71936 0.88262 0.0
C447 C 0.95232 0.83933 0.94928 0.0
H448 H 0.94109 0.79252 0.8425 0.0
C449 C 0.96212 0.79752 0.97235 0.0
C450 C 0.96286 0.75345 0.94888 0.0
H451 H 0.9501 0.87247 0.96823 0.0
H452 H 0.9673 0.79917 0.00863 0.0
C453 C 0.956 0.75268 0.90173 0.0
C454 C 0.38109 0.81916 0.19895 0.0
C455 C 0.3989 0.77667 0.18523 0.0
H456 H 0.39292 0.8972 0.2011 0.0
C457 C 0.44513 0.78015 0.16583 0.0
H458 H 0.34541 0.81699 0.21398 0.0
C459 C 0.47203 0.82593 0.15768 0.0
C460 C 0.45333 0.86871 0.16961 0.0
H461 H 0.45926 0.7476 0.15485 0.0
H462 H 0.50669 0.82788 0.1408 0.0
C463 C 0.40835 0.86487 0.19168 0.0
C464 C 0.06437 0.30005 0.61221 0.0
C465 C 0.10012 0.32897 0.58682 0.0
H466 H 0.02551 0.22864 0.62407 0.0
C467 C 0.12468 0.3066 0.5532 0.0
H468 H 0.04547 0.31591 0.63902 0.0
C469 C 0.11405 0.25643 0.5454 0.0
C470 C 0.07815 0.22762 0.57064 0.0
H471 H 0.15193 0.32792 0.53262 0.0
H472 H 0.13342 0.24039 0.51902 0.0
C473 C 0.05327 0.24994 0.604 0.0
C474 C 0.55135 0.31429 0.6036 0.0
C475 C 0.56331 0.29942 0.56009 0.0
H476 H 0.53188 0.3716 0.64538 0.0
C477 C 0.56687 0.33411 0.52517 0.0
H478 H 0.54944 0.28923 0.63173 0.0
C479 C 0.55778 0.38186 0.53337 0.0
C480 C 0.54426 0.39602 0.57654 0.0
H481 H 0.5753 0.32413 0.49112 0.0
H482 H 0.56018 0.40737 0.50554 0.0
C483 C 0.54149 0.36173 0.6116 0.0
loop_
_geom_bond_atom_site_label_1
_geom_bond_atom_site_label_2
_geom_bond_distance
_geom_bond_site_symmetry_2
_ccdc_geom_bond_type
H0 C1 0.949 . S
C1 H0 0.949 . S
C1 C2 1.395 . S
C1 C3 1.391 . S
C2 C1 1.395 . S
C2 C5 1.390 . S
C3 C1 1.391 . S
C3 C7 1.387 . S
C3 C8 1.491 . S
H4 C5 0.950 . S
C5 C2 1.390 . S
C5 H4 0.950 . S
C5 C6 1.378 . S
C6 C5 1.378 . S
C6 C7 1.409 . S
C7 C3 1.387 . S
C7 C6 1.409 . S
C7 H9 0.951 . S
C8 C3 1.491 . S
C8 C10 1.382 . S
C8 C12 1.404 . S
H9 C7 0.951 . S
C10 C8 1.382 . S
C10 C11 1.390 . S
C10 H15 0.949 . S
C11 C10 1.390 . S
C11 C16 1.399 . S
C12 C8 1.404 . S
C12 H13 0.950 . S
C12 C14 1.375 . S
H13 C12 0.950 . S
C14 C12 1.375 . S
C14 C16 1.382 . S
C14 H18 0.950 . S
H15 C10 0.949 . S
C16 C11 1.399 . S
C16 C14 1.382 . S
C16 H17 0.952 . S
H17 C16 0.952 . S
H18 C14 0.950 . S
H19 C20 0.949 . S
C20 H19 0.949 . S
C20 C21 1.395 . S
C20 C22 1.391 . S
C21 C20 1.395 . S
C21 C24 1.390 . S
C22 C20 1.391 . S
C22 C26 1.387 . S
C22 C27 1.491 . S
H23 C24 0.950 . S
C24 C21 1.390 . S
C24 H23 0.950 . S
C24 C25 1.378 . S
C25 C24 1.378 . S
C25 C26 1.409 . S
C26 C22 1.387 . S
C26 C25 1.409 . S
C26 H28 0.951 . S
C27 C22 1.491 . S
C27 C29 1.382 . S
C27 C31 1.404 . S
H28 C26 0.951 . S
C29 C27 1.382 . S
C29 C30 1.390 . S
C29 H34 0.949 . S
C30 C29 1.390 . S
C30 C35 1.399 . S
C31 C27 1.404 . S
C31 H32 0.950 . S
C31 C33 1.375 . S
H32 C31 0.950 . S
C33 C31 1.375 . S
C33 C35 1.382 . S
C33 H37 0.950 . S
H34 C29 0.949 . S
C35 C30 1.399 . S
C35 C33 1.382 . S
C35 H36 0.952 . S
H36 C35 0.952 . S
H37 C33 0.950 . S
H38 C39 0.949 . S
C39 H38 0.949 . S
C39 C40 1.395 . S
C39 C41 1.391 . S
C40 C39 1.395 . S
C40 C43 1.390 1_556 S
C41 C39 1.391 . S
C41 C45 1.387 . S
C41 C46 1.491 . S
H42 C43 0.950 . S
C43 C40 1.390 1_554 S
C43 H42 0.950 . S
C43 C44 1.378 1_554 S
C44 C43 1.378 1_556 S
C44 C45 1.409 . S
C45 C41 1.387 . S
C45 C44 1.409 . S
C45 H47 0.951 . S
C46 C41 1.491 . S
C46 C48 1.382 . S
C46 C50 1.404 . S
H47 C45 0.951 . S
C48 C46 1.382 . S
C48 C49 1.390 . S
C48 H53 0.949 . S
C49 C48 1.390 . S
C49 C54 1.399 . S
C50 C46 1.404 . S
C50 H51 0.950 . S
C50 C52 1.375 . S
H51 C50 0.950 . S
C52 C50 1.375 . S
C52 C54 1.382 . S
C52 H56 0.950 . S
H53 C48 0.949 . S
C54 C49 1.399 . S
C54 C52 1.382 . S
C54 H55 0.952 . S
H55 C54 0.952 . S
H56 C52 0.950 . S
H57 C58 0.949 . S
C58 H57 0.949 . S
C58 C59 1.395 . S
C58 C60 1.391 . S
C59 C58 1.395 . S
C59 C62 1.390 . S
C60 C58 1.391 . S
C60 C64 1.387 . S
C60 C65 1.491 . S
H61 C62 0.950 . S
C62 C59 1.390 . S
C62 H61 0.950 . S
C62 C63 1.378 . S
C63 C62 1.378 . S
C63 C64 1.409 . S
C64 C60 1.387 . S
C64 C63 1.409 . S
C64 H66 0.951 . S
C65 C60 1.491 . S
C65 C67 1.382 . S
C65 C69 1.404 . S
H66 C64 0.951 . S
C67 C65 1.382 . S
C67 C68 1.390 . S
C67 H72 0.949 . S
C68 C67 1.390 . S
C68 C73 1.399 . S
C69 C65 1.404 . S
C69 H70 0.950 . S
C69 C71 1.375 . S
H70 C69 0.950 . S
C71 C69 1.375 . S
C71 C73 1.382 . S
C71 H75 0.950 . S
H72 C67 0.949 . S
C73 C68 1.399 . S
C73 C71 1.382 . S
C73 H74 0.952 . S
H74 C73 0.952 . S
H75 C71 0.950 . S
H76 C77 0.949 . S
C77 H76 0.949 . S
C77 C78 1.395 . S
C77 C79 1.383 1_565 S
C78 C77 1.395 . S
C78 C81 1.390 . S
C79 C77 1.383 1_545 S
C79 C83 1.390 . S
C79 C84 1.496 . S
H80 C81 0.950 1_455 S
C81 C78 1.390 . S
C81 H80 0.950 1_655 S
C81 C82 1.378 1_565 S
C82 C81 1.378 1_545 S
C82 C83 1.409 . S
C83 C79 1.390 . S
C83 C82 1.409 . S
C83 H85 0.951 . S
C84 C79 1.496 . S
C84 C86 1.382 . S
C84 C88 1.404 . S
H85 C83 0.951 . S
C86 C84 1.382 . S
C86 C87 1.390 . S
C86 H91 0.949 1_556 S
C87 C86 1.390 . S
C87 C92 1.399 . S
C88 C84 1.404 . S
C88 H89 0.950 . S
C88 C90 1.375 . S
H89 C88 0.950 . S
C90 C88 1.375 . S
C90 C92 1.382 . S
C90 H94 0.950 . S
H91 C86 0.949 1_554 S
C92 C87 1.399 . S
C92 C90 1.382 . S
C92 H93 0.952 . S
H93 C92 0.952 . S
H94 C90 0.950 . S
H95 C96 0.949 . S
C96 H95 0.949 . S
C96 C97 1.395 . S
C96 C98 1.391 . S
C97 C96 1.395 . S
C97 C100 1.390 . S
C98 C96 1.391 . S
C98 C102 1.387 . S
C98 C103 1.491 . S
H99 C100 0.950 . S
C100 C97 1.390 . S
C100 H99 0.950 . S
C100 C101 1.378 . S
C101 C100 1.378 . S
C101 C102 1.409 . S
C102 C98 1.387 . S
C102 C101 1.409 . S
C102 H104 0.951 . S
C103 C98 1.491 . S
C103 C105 1.382 . S
C103 C107 1.404 . S
H104 C102 0.951 . S
C105 C103 1.382 . S
C105 C106 1.390 . S
C105 H110 0.949 . S
C106 C105 1.390 . S
C106 C111 1.399 . S
C107 C103 1.404 . S
C107 H108 0.950 . S
C107 C109 1.375 . S
H108 C107 0.950 . S
C109 C107 1.375 . S
C109 C111 1.382 . S
C109 H113 0.950 . S
H110 C105 0.949 . S
C111 C106 1.399 . S
C111 C109 1.382 . S
C111 H112 0.952 . S
H112 C111 0.952 . S
H113 C109 0.950 . S
H114 C115 0.949 . S
C115 H114 0.949 . S
C115 C116 1.395 . S
C115 C117 1.391 . S
C116 C115 1.395 . S
C116 C119 1.390 . S
C117 C115 1.391 . S
C117 C121 1.387 . S
C117 C122 1.491 . S
H118 C119 0.950 . S
C119 C116 1.390 . S
C119 H118 0.950 . S
C119 C120 1.378 . S
C120 C119 1.378 . S
C120 C121 1.409 . S
C121 C117 1.387 . S
C121 C120 1.409 . S
C121 H123 0.951 . S
C122 C117 1.491 . S
C122 C124 1.382 . S
C122 C126 1.404 . S
H123 C121 0.951 . S
C124 C122 1.382 . S
C124 C125 1.390 . S
C124 H129 0.949 . S
C125 C124 1.390 . S
C125 C130 1.399 . S
C126 C122 1.404 . S
C126 H127 0.950 . S
C126 C128 1.375 . S
H127 C126 0.950 . S
C128 C126 1.375 . S
C128 C130 1.382 . S
C128 H132 0.950 . S
H129 C124 0.949 . S
C130 C125 1.399 . S
C130 C128 1.382 . S
C130 H131 0.952 . S
H131 C130 0.952 . S
H132 C128 0.950 . S
H133 C134 0.949 . S
C134 H133 0.949 . S
C134 C135 1.395 . S
C134 C136 1.391 . S
C135 C134 1.395 . S
C135 C138 1.390 . S
C136 C134 1.391 . S
C136 C140 1.387 . S
C136 C141 1.491 . S
H137 C138 0.950 . S
C138 C135 1.390 . S
C138 H137 0.950 . S
C138 C139 1.378 . S
C139 C138 1.378 . S
C139 C140 1.409 . S
C140 C136 1.387 . S
C140 C139 1.409 . S
C140 H142 0.951 . S
C141 C136 1.491 . S
C141 C143 1.382 . S
C141 C145 1.404 . S
H142 C140 0.951 . S
C143 C141 1.382 . S
C143 C144 1.390 . S
C143 H148 0.949 . S
C144 C143 1.390 . S
C144 C149 1.399 . S
C145 C141 1.404 . S
C145 H146 0.950 . S
C145 C147 1.375 . S
H146 C145 0.950 . S
C147 C145 1.375 . S
C147 C149 1.382 . S
C147 H151 0.950 . S
H148 C143 0.949 . S
C149 C144 1.399 . S
C149 C147 1.382 . S
C149 H150 0.952 . S
H150 C149 0.952 . S
H151 C147 0.950 . S
O152 Zn153 1.948 1_455 S
O152 C168 1.241 . S
Zn153 O152 1.948 1_655 S
Zn153 O154 1.949 1_655 S
Zn153 O160 1.919 . S
Zn153 O165 1.924 . S
O154 Zn153 1.949 1_455 S
O154 Zn155 1.923 1_455 S
O154 Zn156 1.950 . S
O154 Zn157 1.945 1_545 S
Zn155 O154 1.923 1_655 S
Zn155 O158 1.933 1_545 S
Zn155 O161 1.941 . S
Zn155 O162 1.965 1_655 S
Zn156 O154 1.950 . S
Zn156 O163 1.938 . S
Zn156 O164 1.906 . S
Zn156 O174 1.953 . S
Zn157 O154 1.945 1_565 S
Zn157 O159 1.932 1_455 S
Zn157 O166 1.977 . S
Zn157 O167 1.910 1_455 S
O158 Zn155 1.933 1_565 S
O158 C169 1.226 . S
O159 Zn157 1.932 1_655 S
O159 C169 1.307 . S
O160 Zn153 1.919 . S
O160 C171 1.253 . S
O161 Zn155 1.941 . S
O161 C171 1.283 . S
O162 Zn155 1.965 1_455 S
O162 C170 1.303 . S
O163 Zn156 1.938 . S
O163 C170 1.247 . S
O164 Zn156 1.906 . S
O164 C172 1.304 . S
O165 Zn153 1.924 . S
O165 C173 1.311 . S
O166 Zn157 1.977 . S
O166 C172 1.272 1_565 S
O167 Zn157 1.910 1_655 S
O167 C173 1.231 1_565 S
C168 O152 1.241 . S
C168 O174 1.298 . S
C169 O158 1.226 . S
C169 O159 1.307 . S
C170 O162 1.303 . S
C170 O163 1.247 . S
C171 O160 1.253 . S
C171 O161 1.283 . S
C172 O164 1.304 . S
C172 O166 1.272 1_545 S
C173 O165 1.311 . S
C173 O167 1.231 1_545 S
O174 Zn156 1.953 . S
O174 C168 1.298 . S
O175 Zn176 1.953 . S
O175 C191 1.225 . S
Zn176 O175 1.953 . S
Zn176 O177 1.949 . S
Zn176 O183 1.919 1_554 S
Zn176 O188 1.924 . S
O177 Zn176 1.949 . S
O177 Zn178 1.923 1_545 S
O177 Zn179 1.950 . S
O177 Zn180 1.945 . S
Zn178 O177 1.923 1_565 S
Zn178 O181 1.933 . S
Zn178 O184 1.936 1_554 S
Zn178 O185 1.965 . S
Zn179 O177 1.950 . S
Zn179 O186 1.938 . S
Zn179 O187 1.906 . S
Zn179 O197 1.953 . S
Zn180 O177 1.945 . S
Zn180 O182 1.932 1_545 S
Zn180 O189 1.977 . S
Zn180 O190 1.910 . S
O181 Zn178 1.933 . S
O181 C192 1.226 . S
O182 Zn180 1.932 1_565 S
O182 C192 1.307 . S
O183 Zn176 1.919 1_556 S
O183 C194 1.253 1_545 S
O184 Zn178 1.936 1_556 S
O184 C194 1.286 . S
O185 Zn178 1.965 . S
O185 C193 1.303 1_565 S
O186 Zn179 1.938 . S
O186 C193 1.247 . S
O187 Zn179 1.906 . S
O187 C195 1.304 . S
O188 Zn176 1.924 . S
O188 C196 1.311 . S
O189 Zn180 1.977 . S
O189 C195 1.272 . S
O190 Zn180 1.910 . S
O190 C196 1.231 . S
C191 O175 1.225 . S
C191 O197 1.298 . S
C192 O181 1.226 . S
C192 O182 1.307 . S
C193 O185 1.303 1_545 S
C193 O186 1.247 . S
C194 O183 1.253 1_565 S
C194 O184 1.286 . S
C195 O187 1.304 . S
C195 O189 1.272 . S
C196 O188 1.311 . S
C196 O190 1.231 . S
O197 Zn179 1.953 . S
O197 C191 1.298 . S
O198 Zn199 1.953 . S
O198 C214 1.225 . S
Zn199 O198 1.953 . S
Zn199 O200 1.949 . S
Zn199 O206 1.919 . S
Zn199 O211 1.924 . S
O200 Zn199 1.949 . S
O200 Zn201 1.923 . S
O200 Zn202 1.950 . S
O200 Zn203 1.945 . S
Zn201 O200 1.923 . S
Zn201 O204 1.933 . S
Zn201 O207 1.941 . S
Zn201 O208 1.965 . S
Zn202 O200 1.950 . S
Zn202 O209 1.938 . S
Zn202 O210 1.906 . S
Zn202 O220 1.953 . S
Zn203 O200 1.945 . S
Zn203 O205 1.932 . S
Zn203 O212 1.977 . S
Zn203 O213 1.910 . S
O204 Zn201 1.933 . S
O204 C215 1.226 . S
O205 Zn203 1.932 . S
O205 C215 1.307 . S
O206 Zn199 1.919 . S
O206 C217 1.253 . S
O207 Zn201 1.941 . S
O207 C217 1.283 . S
O208 Zn201 1.965 . S
O208 C216 1.303 . S
O209 Zn202 1.938 . S
O209 C216 1.247 . S
O210 Zn202 1.906 . S
O210 C218 1.304 . S
O211 Zn199 1.924 . S
O211 C219 1.311 . S
O212 Zn203 1.977 . S
O212 C218 1.272 . S
O213 Zn203 1.910 . S
O213 C219 1.231 . S
C214 O198 1.225 . S
C214 O220 1.298 . S
C215 O204 1.226 . S
C215 O205 1.307 . S
C216 O208 1.303 . S
C216 O209 1.247 . S
C217 O206 1.253 . S
C217 O207 1.283 . S
C218 O210 1.304 . S
C218 O212 1.272 . S
C219 O211 1.311 . S
C219 O213 1.231 . S
O220 Zn202 1.953 . S
O220 C214 1.298 . S
O221 Zn222 1.953 . S
O221 C237 1.225 . S
Zn222 O221 1.953 . S
Zn222 O223 1.949 1_655 S
Zn222 O229 1.919 . S
Zn222 O234 1.924 . S
O223 Zn222 1.949 1_455 S
O223 Zn224 1.923 1_454 S
O223 Zn225 1.950 . S
O223 Zn226 1.945 . S
Zn224 O223 1.923 1_656 S
Zn224 O227 1.933 1_655 S
Zn224 O230 1.941 . S
Zn224 O231 1.965 . S
Zn225 O223 1.950 . S
Zn225 O232 1.938 . S
Zn225 O233 1.906 . S
Zn225 O243 1.953 . S
Zn226 O223 1.945 . S
Zn226 O228 1.932 1_554 S
Zn226 O235 1.977 . S
Zn226 O236 1.910 . S
O227 Zn224 1.933 1_455 S
O227 C238 1.226 . S
O228 Zn226 1.932 1_556 S
O228 C238 1.307 . S
O229 Zn222 1.919 . S
O229 C240 1.253 1_554 S
O230 Zn224 1.941 . S
O230 C240 1.283 . S
O231 Zn224 1.965 . S
O231 C239 1.303 1_656 S
O232 Zn225 1.938 . S
O232 C239 1.247 . S
O233 Zn225 1.906 . S
O233 C241 1.304 . S
O234 Zn222 1.924 . S
O234 C242 1.311 1_655 S
O235 Zn226 1.977 . S
O235 C241 1.272 . S
O236 Zn226 1.910 . S
O236 C242 1.231 . S
C237 O221 1.225 . S
C237 O243 1.298 1_655 S
C238 O227 1.226 . S
C238 O228 1.307 . S
C239 O231 1.303 1_454 S
C239 O232 1.247 . S
C240 O229 1.253 1_556 S
C240 O230 1.283 . S
C241 O233 1.304 . S
C241 O235 1.272 . S
C242 O234 1.311 1_455 S
C242 O236 1.231 . S
O243 Zn225 1.953 . S
O243 C237 1.298 1_455 S
C244 C245 1.387 . S
C244 H248 0.950 . S
C244 C253 1.390 . S
C245 C244 1.387 . S
C245 C247 1.387 . S
H246 C253 0.950 . S
C247 C245 1.387 . S
C247 C249 1.390 . S
C247 H251 0.950 . S
H248 C244 0.950 . S
C249 C247 1.390 . S
C249 C250 1.387 . S
C249 H252 0.950 . S
C250 C249 1.387 . S
C250 C253 1.387 . S
H251 C247 0.950 . S
H252 C249 0.950 . S
C253 C244 1.390 . S
C253 H246 0.950 . S
C253 C250 1.387 . S
C254 C255 1.387 . S
C254 H258 0.950 . S
C254 C263 1.390 . S
C255 C254 1.387 . S
C255 C257 1.387 . S
H256 C263 0.950 . S
C257 C255 1.387 . S
C257 C259 1.390 . S
C257 H261 0.950 . S
H258 C254 0.950 . S
C259 C257 1.390 . S
C259 C260 1.387 . S
C259 H262 0.950 . S
C260 C259 1.387 . S
C260 C263 1.387 . S
H261 C257 0.950 . S
H262 C259 0.950 . S
C263 C254 1.390 . S
C263 H256 0.950 . S
C263 C260 1.387 . S
C264 C265 1.387 . S
C264 H268 0.950 . S
C264 C273 1.390 . S
C265 C264 1.387 . S
C265 C267 1.387 . S
H266 C273 0.950 . S
C267 C265 1.387 . S
C267 C269 1.390 . S
C267 H271 0.950 . S
H268 C264 0.950 . S
C269 C267 1.390 . S
C269 C270 1.387 . S
C269 H272 0.950 . S
C270 C269 1.387 . S
C270 C273 1.387 . S
H271 C267 0.950 . S
H272 C269 0.950 . S
C273 C264 1.390 . S
C273 H266 0.950 . S
C273 C270 1.387 . S
C274 C275 1.387 . S
C274 H278 0.950 . S
C274 C283 1.390 . S
C275 C274 1.387 . S
C275 C277 1.387 . S
H276 C283 0.950 . S
C277 C275 1.387 . S
C277 C279 1.390 . S
C277 H281 0.950 1_655 S
H278 C274 0.950 . S
C279 C277 1.390 . S
C279 C280 1.387 . S
C279 H282 0.950 1_655 S
C280 C279 1.387 . S
C280 C283 1.387 . S
H281 C277 0.950 1_455 S
H282 C279 0.950 1_455 S
C283 C274 1.390 . S
C283 H276 0.950 . S
C283 C280 1.387 . S
C284 C285 1.387 . S
C284 H288 0.950 . S
C284 C293 1.390 . S
C285 C284 1.387 . S
C285 C287 1.387 . S
H286 C293 0.950 . S
C287 C285 1.387 . S
C287 C289 1.390 . S
C287 H291 0.950 . S
H288 C284 0.950 . S
C289 C287 1.390 . S
C289 C290 1.387 . S
C289 H292 0.950 . S
C290 C289 1.387 . S
C290 C293 1.387 . S
H291 C287 0.950 . S
H292 C289 0.950 . S
C293 C284 1.390 . S
C293 H286 0.950 . S
C293 C290 1.387 . S
C294 C295 1.387 . S
C294 H298 0.950 . S
C294 C303 1.390 . S
C295 C294 1.387 . S
C295 C297 1.387 1_565 S
H296 C303 0.950 . S
C297 C295 1.387 1_545 S
C297 C299 1.390 . S
C297 H301 0.950 . S
H298 C294 0.950 . S
C299 C297 1.390 . S
C299 C300 1.387 1_545 S
C299 H302 0.950 . S
C300 C299 1.387 1_565 S
C300 C303 1.387 . S
H301 C297 0.950 . S
H302 C299 0.950 . S
C303 C294 1.390 . S
C303 H296 0.950 . S
C303 C300 1.387 . S
C304 C305 1.387 . S
C304 H308 0.950 . S
C304 C313 1.390 . S
C305 C304 1.387 . S
C305 C307 1.387 1_556 S
H306 C313 0.950 . S
C307 C305 1.387 1_554 S
C307 C309 1.390 . S
C307 H311 0.950 . S
H308 C304 0.950 . S
C309 C307 1.390 . S
C309 C310 1.387 1_554 S
C309 H312 0.950 . S
C310 C309 1.387 1_556 S
C310 C313 1.387 . S
H311 C307 0.950 . S
H312 C309 0.950 . S
C313 C304 1.390 . S
C313 H306 0.950 . S
C313 C310 1.387 . S
C314 C315 1.387 . S
C314 H318 0.950 . S
C314 C323 1.390 . S
C315 C314 1.387 . S
C315 C317 1.387 . S
H316 C323 0.950 . S
C317 C315 1.387 . S
C317 C319 1.390 . S
C317 H321 0.950 . S
H318 C314 0.950 . S
C319 C317 1.390 . S
C319 C320 1.387 . S
C319 H322 0.950 . S
C320 C319 1.387 . S
C320 C323 1.387 . S
H321 C317 0.950 . S
H322 C319 0.950 . S
C323 C314 1.390 . S
C323 H316 0.950 . S
C323 C320 1.387 . S
C324 C325 1.387 . S
C324 H328 0.950 . S
C324 C333 1.390 . S
C325 C324 1.387 . S
C325 C327 1.387 . S
H326 C333 0.950 . S
C327 C325 1.387 . S
C327 C329 1.390 . S
C327 H331 0.950 . S
H328 C324 0.950 . S
C329 C327 1.390 . S
C329 C330 1.387 . S
C329 H332 0.950 . S
C330 C329 1.387 . S
C330 C333 1.387 . S
H331 C327 0.950 . S
H332 C329 0.950 . S
C333 C324 1.390 . S
C333 H326 0.950 . S
C333 C330 1.387 . S
C334 C335 1.387 1_556 S
C334 H338 0.950 . S
C334 C343 1.390 . S
C335 C334 1.387 1_554 S
C335 C337 1.387 . S
H336 C343 0.950 . S
C337 C335 1.387 . S
C337 C339 1.390 . S
C337 H341 0.950 . S
H338 C334 0.950 . S
C339 C337 1.390 . S
C339 C340 1.387 . S
C339 H342 0.950 . S
C340 C339 1.387 . S
C340 C343 1.387 1_554 S
H341 C337 0.950 . S
H342 C339 0.950 . S
C343 C334 1.390 . S
C343 H336 0.950 . S
C343 C340 1.387 1_556 S
C344 C345 1.387 . S
C344 H348 0.950 . S
C344 C353 1.390 . S
C345 C344 1.387 . S
C345 C347 1.387 . S
H346 C353 0.950 . S
C347 C345 1.387 . S
C347 C349 1.390 . S
C347 H351 0.950 . S
H348 C344 0.950 . S
C349 C347 1.390 . S
C349 C350 1.387 . S
C349 H352 0.950 . S
C350 C349 1.387 . S
C350 C353 1.387 . S
H351 C347 0.950 . S
H352 C349 0.950 . S
C353 C344 1.390 . S
C353 H346 0.950 . S
C353 C350 1.387 . S
C354 C355 1.387 . S
C354 H358 0.950 . S
C354 C363 1.390 . S
C355 C354 1.387 . S
C355 C357 1.387 . S
H356 C363 0.950 . S
C357 C355 1.387 . S
C357 C359 1.390 . S
C357 H361 0.950 . S
H358 C354 0.950 . S
C359 C357 1.390 . S
C359 C360 1.387 . S
C359 H362 0.950 . S
C360 C359 1.387 . S
C360 C363 1.387 . S
H361 C357 0.950 . S
H362 C359 0.950 . S
C363 C354 1.390 . S
C363 H356 0.950 . S
C363 C360 1.387 . S
C364 C365 1.387 1_565 S
C364 H368 0.950 . S
C364 C373 1.390 . S
C365 C364 1.387 1_545 S
C365 C367 1.384 1_655 S
H366 C373 0.950 . S
C367 C365 1.384 1_455 S
C367 C369 1.389 1_455 S
C367 H371 0.955 . S
H368 C364 0.950 . S
C369 C367 1.389 1_655 S
C369 C370 1.387 . S
C369 H372 0.950 1_655 S
C370 C369 1.387 . S
C370 C373 1.387 1_545 S
H371 C367 0.955 . S
H372 C369 0.950 1_455 S
C373 C364 1.390 . S
C373 H366 0.950 . S
C373 C370 1.387 1_565 S
C374 C375 1.387 . S
C374 H378 0.950 1_545 S
C374 C383 1.390 . S
C375 C374 1.387 . S
C375 C377 1.387 . S
H376 C383 0.950 1_565 S
C377 C375 1.387 . S
C377 C379 1.390 . S
C377 H381 0.950 . S
H378 C374 0.950 1_565 S
C379 C377 1.390 . S
C379 C380 1.387 . S
C379 H382 0.950 . S
C380 C379 1.387 . S
C380 C383 1.387 . S
H381 C377 0.950 . S
H382 C379 0.950 . S
C383 C374 1.390 . S
C383 H376 0.950 1_545 S
C383 C380 1.387 . S
C384 C385 1.387 . S
C384 H388 0.950 . S
C384 C393 1.390 . S
C385 C384 1.387 . S
C385 C387 1.387 . S
H386 C393 0.950 . S
C387 C385 1.387 . S
C387 C389 1.390 . S
C387 H391 0.950 . S
H388 C384 0.950 . S
C389 C387 1.390 . S
C389 C390 1.387 . S
C389 H392 0.950 . S
C390 C389 1.387 . S
C390 C393 1.387 . S
H391 C387 0.950 . S
H392 C389 0.950 . S
C393 C384 1.390 . S
C393 H386 0.950 . S
C393 C390 1.387 . S
C394 C395 1.387 . S
C394 H398 0.950 . S
C394 C403 1.390 . S
C395 C394 1.387 . S
C395 C397 1.387 . S
H396 C403 0.959 . S
C397 C395 1.387 . S
C397 C399 1.390 . S
C397 H401 0.950 . S
H398 C394 0.950 . S
C399 C397 1.390 . S
C399 C400 1.387 . S
C399 H402 0.950 . S
C400 C399 1.387 . S
C400 C403 1.387 . S
H401 C397 0.950 . S
H402 C399 0.950 . S
C403 C394 1.390 . S
C403 H396 0.959 . S
C403 C400 1.387 . S
C404 C405 1.389 . S
C404 H408 0.947 1_545 S
C404 C413 1.391 1_545 S
C405 C404 1.389 . S
C405 C407 1.387 . S
H406 C413 0.950 . S
C407 C405 1.387 . S
C407 C409 1.390 . S
C407 H411 0.942 1_554 S
H408 C404 0.947 1_565 S
C409 C407 1.390 . S
C409 C410 1.387 . S
C409 H412 0.950 . S
C410 C409 1.387 . S
C410 C413 1.387 1_545 S
H411 C407 0.942 1_556 S
H412 C409 0.950 . S
C413 C404 1.391 1_565 S
C413 H406 0.950 . S
C413 C410 1.387 1_565 S
C414 C415 1.387 . S
C414 H418 0.950 . S
C414 C423 1.390 . S
C415 C414 1.387 . S
C415 C417 1.387 . S
H416 C423 0.950 . S
C417 C415 1.387 . S
C417 C419 1.390 . S
C417 H421 0.950 . S
H418 C414 0.950 . S
C419 C417 1.390 . S
C419 C420 1.387 . S
C419 H422 0.950 . S
C420 C419 1.387 . S
C420 C423 1.387 . S
H421 C417 0.950 . S
H422 C419 0.950 . S
C423 C414 1.390 . S
C423 H416 0.950 . S
C423 C420 1.387 . S
C424 C425 1.387 . S
C424 H428 0.950 . S
C424 C433 1.390 . S
C425 C424 1.387 . S
C425 C427 1.387 . S
H426 C433 0.950 . S
C427 C425 1.387 . S
C427 C429 1.390 . S
C427 H431 0.950 . S
H428 C424 0.950 . S
C429 C427 1.390 . S
C429 C430 1.387 . S
C429 H432 0.950 . S
C430 C429 1.387 . S
C430 C433 1.387 . S
H431 C427 0.950 . S
H432 C429 0.950 . S
C433 C424 1.390 . S
C433 H426 0.950 . S
C433 C430 1.387 . S
C434 C435 1.387 . S
C434 H438 0.950 . S
C434 C443 1.390 . S
C435 C434 1.387 . S
C435 C437 1.387 . S
H436 C443 0.950 . S
C437 C435 1.387 . S
C437 C439 1.390 . S
C437 H441 0.950 . S
H438 C434 0.950 . S
C439 C437 1.390 . S
C439 C440 1.387 . S
C439 H442 0.950 . S
C440 C439 1.387 . S
C440 C443 1.387 . S
H441 C437 0.950 . S
H442 C439 0.950 . S
C443 C434 1.390 . S
C443 H436 0.950 . S
C443 C440 1.387 . S
C444 C445 1.387 . S
C444 H448 0.950 . S
C444 C453 1.390 . S
C445 C444 1.387 . S
C445 C447 1.387 1_556 S
H446 C453 0.950 . S
C447 C445 1.387 1_554 S
C447 C449 1.390 . S
C447 H451 0.950 . S
H448 C444 0.950 . S
C449 C447 1.390 . S
C449 C450 1.387 1_554 S
C449 H452 0.950 1_655 S
C450 C449 1.387 1_556 S
C450 C453 1.387 . S
H451 C447 0.950 . S
H452 C449 0.950 1_455 S
C453 C444 1.390 . S
C453 H446 0.950 . S
C453 C450 1.387 . S
C454 C455 1.387 . S
C454 H458 0.950 . S
C454 C463 1.390 . S
C455 C454 1.387 . S
C455 C457 1.387 . S
H456 C463 0.950 . S
C457 C455 1.387 . S
C457 C459 1.390 . S
C457 H461 0.950 . S
H458 C454 0.950 . S
C459 C457 1.390 . S
C459 C460 1.387 . S
C459 H462 0.950 . S
C460 C459 1.387 . S
C460 C463 1.387 . S
H461 C457 0.950 . S
H462 C459 0.950 . S
C463 C454 1.390 . S
C463 H456 0.950 . S
C463 C460 1.387 . S
C464 C465 1.387 . S
C464 H468 0.950 . S
C464 C473 1.390 . S
C465 C464 1.387 . S
C465 C467 1.387 . S
H466 C473 0.950 . S
C467 C465 1.387 . S
C467 C469 1.390 . S
C467 H471 0.950 . S
H468 C464 0.950 . S
C469 C467 1.390 . S
C469 C470 1.387 . S
C469 H472 0.950 . S
C470 C469 1.387 . S
C470 C473 1.387 . S
H471 C467 0.950 . S
H472 C469 0.950 . S
C473 C464 1.390 . S
C473 H466 0.950 . S
C473 C470 1.387 . S
C474 C475 1.387 . S
C474 H478 0.950 . S
C474 C483 1.390 . S
C475 C474 1.387 . S
C475 C477 1.387 . S
H476 C483 0.950 . S
C477 C475 1.387 . S
C477 C479 1.390 . S
C477 H481 0.950 . S
H478 C474 0.950 . S
C479 C477 1.390 . S
C479 C480 1.387 . S
C479 H482 0.950 . S
C480 C479 1.387 . S
C480 C483 1.387 . S
H481 C477 0.950 . S
H482 C479 0.950 . S
C483 C474 1.390 . S
C483 H476 0.950 . S
C483 C480 1.387 . S
C245 C6 1.823 . S
C250 C170 1.781 . S
C255 C21 2.091 . S
C260 C194 2.007 . S
C270 C214 1.034 . S
C265 C49 1.009 . S
C275 C68 1.198 . S
C280 C237 1.360 . S
C290 C196 2.205 . S
C285 C2 2.225 . S
C300 C172 1.405 1_565 S
C295 C30 1.289 . S
C310 C240 1.533 . S
C305 C40 1.629 . S
C320 C217 1.387 . S
C315 C63 1.412 . S
C325 C11 1.346 . S
C330 C242 1.506 . S
C340 C191 1.766 . S
C335 C44 1.741 1_554 S
C345 C59 1.310 . S
C350 C169 1.328 . S
C355 C25 1.728 . S
C360 C219 1.705 . S
C370 C173 2.056 . S
C365 C82 2.008 . S
C375 C101 1.830 . S
C380 C195 1.866 . S
C385 C125 1.539 . S
C390 C215 1.581 . S
C395 C144 1.188 . S
C400 C238 1.382 . S
C405 C87 1.184 1_554 S
C410 C193 1.387 . S
C420 C171 2.069 . S
C415 C97 2.064 . S
C430 C241 1.368 . S
C425 C120 1.457 . S
C440 C218 1.456 . S
C435 C135 1.434 . S
C445 C78 2.059 . S
C450 C239 2.033 1_656 S
C460 C192 1.276 . S
C455 C116 1.246 . S
C470 C168 1.727 . S
C465 C139 1.677 . S
C475 C106 1.633 . S
C480 C216 1.705 . S
