# Generated by pormake.
# Topology dag, (6,3)-cn, num edge types: 1
# Building blocks:
#     Node 0, Type 0, BuildingBlock: IZENUY_clean_sbu_0, # of connection points: 6
#     Node 1, Type 0, BuildingBlock: IZENUY_clean_sbu_0, # of connection points: 6
#     Node 2, Type 0, BuildingBlock: IZENUY_clean_sbu_0, # of connection points: 6
#     Node 3, Type 0, BuildingBlock: IZENUY_clean_sbu_0, # of connection points: 6
#     Node 4, Type 1, BuildingBlock: CUQRIR_clean_linker_1, # of connection points: 3
#     Node 5, Type 1, BuildingBlock: CUQRIR_clean_linker_1, # of connection points: 3
#     Node 6, Type 1, BuildingBlock: CUQRIR_clean_linker_1, # of connection points: 3
#     Node 7, Type 1, BuildingBlock: CUQRIR_clean_linker_1, # of connection points: 3
#     Node 8, Type 1, BuildingBlock: CUQRIR_clean_linker_1, # of connection points: 3
#     Node 9, Type 1, BuildingBlock: CUQRIR_clean_linker_1, # of connection points: 3
#     Node 10, Type 1, BuildingBlock: CUQRIR_clean_linker_1, # of connection points: 3
#     Node 11, Type 1, BuildingBlock: CUQRIR_clean_linker_1, # of connection points: 3
#     Edge 12, Type (0, 1), BuildingBlock: XIVTED_clean_linker_0, # of connection points: 2
#     Edge 13, Type (0, 1), BuildingBlock: XIVTED_clean_linker_0, # of connection points: 2
#     Edge 14, Type (0, 1), BuildingBlock: XIVTED_clean_linker_0, # of connection points: 2
#     Edge 15, Type (0, 1), BuildingBlock: XIVTED_clean_linker_0, # of connection points: 2
#     Edge 16, Type (0, 1), BuildingBlock: XIVTED_clean_linker_0, # of connection points: 2
#     Edge 17, Type (0, 1), BuildingBlock: XIVTED_clean_linker_0, # of connection points: 2
#     Edge 18, Type (0, 1), BuildingBlock: XIVTED_clean_linker_0, # of connection points: 2
#     Edge 19, Type (0, 1), BuildingBlock: XIVTED_clean_linker_0, # of connection points: 2
#     Edge 20, Type (0, 1), BuildingBlock: XIVTED_clean_linker_0, # of connection points: 2
#     Edge 21, Type (0, 1), BuildingBlock: XIVTED_clean_linker_0, # of connection points: 2
#     Edge 22, Type (0, 1), BuildingBlock: XIVTED_clean_linker_0, # of connection points: 2
#     Edge 23, Type (0, 1), BuildingBlock: XIVTED_clean_linker_0, # of connection points: 2
#     Edge 24, Type (0, 1), BuildingBlock: XIVTED_clean_linker_0, # of connection points: 2
#     Edge 25, Type (0, 1), BuildingBlock: XIVTED_clean_linker_0, # of connection points: 2
#     Edge 26, Type (0, 1), BuildingBlock: XIVTED_clean_linker_0, # of connection points: 2
#     Edge 27, Type (0, 1), BuildingBlock: XIVTED_clean_linker_0, # of connection points: 2
#     Edge 28, Type (0, 1), BuildingBlock: XIVTED_clean_linker_0, # of connection points: 2
#     Edge 29, Type (0, 1), BuildingBlock: XIVTED_clean_linker_0, # of connection points: 2
#     Edge 30, Type (0, 1), BuildingBlock: XIVTED_clean_linker_0, # of connection points: 2
#     Edge 31, Type (0, 1), BuildingBlock: XIVTED_clean_linker_0, # of connection points: 2
#     Edge 32, Type (0, 1), BuildingBlock: XIVTED_clean_linker_0, # of connection points: 2
#     Edge 33, Type (0, 1), BuildingBlock: XIVTED_clean_linker_0, # of connection points: 2
#     Edge 34, Type (0, 1), BuildingBlock: XIVTED_clean_linker_0, # of connection points: 2
#     Edge 35, Type (0, 1), BuildingBlock: XIVTED_clean_linker_0, # of connection points: 2
# Relax obj value: 0.081
# Max RMSD: 0.077
# Mean RMSD: 0.071
data_MOF--net-dag--node1-IZENUY_clean_sbu_0--node2-CUQRIR_clean_linker_1--edge1-XIVTED_clean_linker_0
_symmetry_space_group_name_H-M    P1
_symmetry_Int_Tables_number       1
_symmetry_cell_setting            triclinic
loop_
_symmetry_equiv_pos_as_xyz
'x, y, z'
_cell_length_a     37.089958
_cell_length_b     37.591084
_cell_length_c     33.654743
_cell_angle_alpha  92.457521
_cell_angle_beta   90.056123
_cell_angle_gamma 89.945078
loop_
_atom_site_label
_atom_site_type_symbol
_atom_site_fract_x
_atom_site_fract_y
_atom_site_fract_z
_atom_type_partial_charge
Fe0 Fe 0.16643 0.88788 0.04409 0.0
Fe1 Fe 0.08907 0.90954 0.02456 0.0
O2 O 0.12119 0.87594 0.03334 0.0
Fe3 Fe 0.10828 0.83047 0.03167 0.0
O4 O 0.12219 0.8254 0.08302 0.0
O5 O 0.17496 0.85063 0.07599 0.0
O6 O 0.15298 0.91365 0.0885 0.0
C7 C 0.13081 0.93912 0.08833 0.0
C8 C 0.1772 0.82959 0.9947 0.0
O9 O 0.10951 0.94264 0.05932 0.0
C10 C 0.07131 0.8547 0.96776 0.0
O11 O 0.1665 0.92762 0.01431 0.0
O12 O 0.1147 0.92536 0.98286 0.0
O13 O 0.15188 0.81413 0.01247 0.0
O14 O 0.18254 0.8626 0.00043 0.0
C15 C 0.04891 0.8652 0.06954 0.0
O16 O 0.06314 0.88252 0.98827 0.0
O17 O 0.09338 0.83224 0.98039 0.0
C18 C 0.14666 0.93651 0.98581 0.0
O19 O 0.06111 0.89617 0.06559 0.0
O20 O 0.06248 0.83874 0.0504 0.0
C21 C 0.15379 0.83156 0.09536 0.0
Fe22 Fe 0.662 0.61071 0.50003 0.0
Fe23 Fe 0.60521 0.66801 0.5213 0.0
O24 O 0.61767 0.62256 0.51533 0.0
Fe25 Fe 0.58562 0.58907 0.52491 0.0
O26 O 0.61851 0.55734 0.54283 0.0
O27 O 0.67006 0.58615 0.54461 0.0
O28 O 0.68364 0.64917 0.52576 0.0
C29 C 0.6728 0.67013 0.55376 0.0
C30 C 0.61775 0.56054 0.45778 0.0
O31 O 0.63963 0.67621 0.55886 0.0
C32 C 0.54419 0.64095 0.48652 0.0
O33 O 0.6574 0.63416 0.45433 0.0
O34 O 0.63476 0.68323 0.48183 0.0
O35 O 0.58874 0.57035 0.4745 0.0
O36 O 0.64812 0.57042 0.47146 0.0
C37 C 0.57098 0.63652 0.58625 0.0
O38 O 0.56989 0.6627 0.48401 0.0
O39 O 0.54654 0.61477 0.50882 0.0
C40 C 0.64962 0.6667 0.45267 0.0
O41 O 0.57339 0.66134 0.56212 0.0
O42 O 0.58061 0.6053 0.57606 0.0
C43 C 0.65003 0.56167 0.55646 0.0
Fe44 Fe 0.89008 0.16631 0.0195 0.0
Fe45 Fe 0.9119 0.08745 0.01498 0.0
O46 O 0.87858 0.12082 0.01128 0.0
Fe47 Fe 0.83365 0.10865 -0.00086 0.0
O48 O 0.83506 0.13382 0.95443 0.0
O49 O 0.85745 0.18256 0.9833 0.0
O50 O 0.92285 0.16434 0.97947 0.0
C51 C 0.94834 0.14218 0.97648 0.0
C52 C 0.82475 0.16564 0.05641 0.0
O53 O 0.94875 0.11471 0.99689 0.0
C54 C 0.85029 0.0567 0.04988 0.0
O55 O 0.92482 0.15812 0.05695 0.0
O56 O 0.92123 0.10075 0.06647 0.0
O57 O 0.8129 0.14592 0.02788 0.0
O58 O 0.85807 0.17153 0.0601 0.0
C59 C 0.87505 0.06084 0.95021 0.0
O60 O 0.88094 0.05404 0.03347 0.0
O61 O 0.82961 0.08244 0.04312 0.0
C62 C 0.93052 0.13172 0.07828 0.0
O63 O 0.90492 0.07189 0.96371 0.0
O64 O 0.84596 0.06919 0.96796 0.0
C65 C 0.84217 0.16661 0.95392 0.0
Fe66 Fe 0.41287 0.41461 0.52653 0.0
Fe67 Fe 0.33639 0.39164 0.54813 0.0
O68 O 0.38105 0.38048 0.53391 0.0
Fe69 Fe 0.39397 0.33537 0.52709 0.0
O70 O 0.42873 0.3402 0.56508 0.0
O71 O 0.45204 0.38881 0.54202 0.0
O72 O 0.40853 0.43102 0.57789 0.0
C73 C 0.37902 0.44128 0.59318 0.0
C74 C 0.42863 0.36898 0.46368 0.0
O75 O 0.34923 0.43213 0.57733 0.0
C76 C 0.32693 0.33287 0.49344 0.0
O77 O 0.37961 0.44685 0.50972 0.0
O78 O 0.32938 0.41622 0.50344 0.0
O79 O 0.42604 0.34349 0.487 0.0
O80 O 0.41906 0.40011 0.47478 0.0
C81 C 0.34859 0.33535 0.59494 0.0
O82 O 0.3155 0.35312 0.52172 0.0
O83 O 0.36024 0.32747 0.48871 0.0
C84 C 0.34869 0.44224 0.49451 0.0
O85 O 0.34044 0.36786 0.59363 0.0
O86 O 0.364 0.31927 0.56579 0.0
C87 C 0.4543 0.36218 0.56364 0.0
C88 C 0.12023 0.18661 0.32315 0.0
N89 N 0.10936 0.1599 0.2976 0.0
N90 N 0.15311 0.17923 0.33841 0.0
C91 C 0.10012 0.22093 0.33106 0.0
C92 C 0.16173 0.14704 0.32139 0.0
N93 N 0.13514 0.13527 0.29672 0.0
C94 C 0.19745 0.12868 0.32603 0.0
H95 H 0.11171 0.24165 0.31234 0.0
H96 H 0.10302 0.23023 0.36258 0.0
H97 H 0.07104 0.21785 0.32401 0.0
H98 H 0.19368 0.09954 0.32762 0.0
H99 H 0.21176 0.13876 0.3532 0.0
H100 H 0.21441 0.1335 0.29966 0.0
C101 C 0.34927 0.64151 0.83432 0.0
N102 N 0.37685 0.62986 0.81085 0.0
N103 N 0.35727 0.67357 0.85213 0.0
C104 C 0.31329 0.6233 0.83718 0.0
C105 C 0.39058 0.68106 0.83832 0.0
N106 N 0.40252 0.65447 0.81341 0.0
C107 C 0.4112 0.71464 0.84837 0.0
H108 H 0.29136 0.64245 0.83118 0.0
H109 H 0.30956 0.61429 0.86784 0.0
H110 H 0.31099 0.59976 0.81636 0.0
H111 H 0.4033 0.72602 0.87807 0.0
H112 H 0.40521 0.73448 0.82579 0.0
H113 H 0.44064 0.70933 0.84783 0.0
C114 C 0.7619 0.83655 0.22901 0.0
N115 N 0.78998 0.84902 0.20816 0.0
N116 N 0.77175 0.80709 0.24821 0.0
C117 C 0.72435 0.85162 0.22842 0.0
C118 C 0.8069 0.80222 0.23835 0.0
N119 N 0.81794 0.82768 0.21391 0.0
C120 C 0.83109 0.77438 0.25503 0.0
H121 H 0.72178 0.87247 0.2526 0.0
H122 H 0.70401 0.83063 0.2333 0.0
H123 H 0.71877 0.86403 0.19972 0.0
H124 H 0.8299 0.74995 0.23537 0.0
H125 H 0.8222 0.76753 0.28522 0.0
H126 H 0.85946 0.78367 0.25648 0.0
C127 C 0.74144 0.33577 0.72346 0.0
N128 N 0.71424 0.34712 0.70041 0.0
N129 N 0.73476 0.30241 0.73528 0.0
C130 C 0.77299 0.35827 0.73705 0.0
C131 C 0.70239 0.29395 0.71873 0.0
N132 N 0.68981 0.32125 0.69771 0.0
C133 C 0.68219 0.25997 0.72514 0.0
H134 H 0.78349 0.37376 0.7123 0.0
H135 H 0.79506 0.3417 0.74867 0.0
H136 H 0.76391 0.37747 0.76095 0.0
H137 H 0.66774 0.26253 0.75397 0.0
H138 H 0.70083 0.23703 0.72641 0.0
H139 H 0.66229 0.25435 0.70106 0.0
C140 C 0.61674 0.31449 0.22037 0.0
N141 N 0.60437 0.34086 0.24546 0.0
N142 N 0.65114 0.32118 0.20938 0.0
C143 C 0.59635 0.28101 0.20893 0.0
C144 C 0.6592 0.3526 0.22858 0.0
N145 N 0.63076 0.36457 0.25046 0.0
C146 C 0.69575 0.36994 0.22865 0.0
H147 H 0.60677 0.25895 0.22658 0.0
H148 H 0.60044 0.27349 0.17709 0.0
H149 H 0.56704 0.28421 0.21452 0.0
H150 H 0.69323 0.39925 0.22781 0.0
H151 H 0.71214 0.36017 0.20287 0.0
H152 H 0.71003 0.36376 0.25651 0.0
C153 C 0.18946 0.19844 0.80513 0.0
N154 N 0.17619 0.17212 0.82705 0.0
N155 N 0.22335 0.19035 0.79257 0.0
C156 C 0.16816 0.23024 0.79285 0.0
C157 C 0.23003 0.15805 0.80744 0.0
N158 N 0.20135 0.14703 0.82827 0.0
C159 C 0.26497 0.13798 0.8032 0.0
H160 H 0.17672 0.23863 0.7631 0.0
H161 H 0.17292 0.25267 0.81473 0.0
H162 H 0.13886 0.22438 0.79214 0.0
H163 H 0.28783 0.15639 0.79871 0.0
H164 H 0.26312 0.11908 0.77704 0.0
H165 H 0.27019 0.12235 0.82985 0.0
C166 C 0.25456 0.66949 0.33223 0.0
N167 N 0.2807 0.65871 0.35703 0.0
N168 N 0.26303 0.70154 0.31787 0.0
C169 C 0.22227 0.64761 0.31963 0.0
C170 C 0.29544 0.70958 0.33463 0.0
N171 N 0.30627 0.68346 0.35829 0.0
C172 C 0.3159 0.74352 0.32899 0.0
H173 H 0.21742 0.64959 0.28725 0.0
H174 H 0.19817 0.65827 0.3356 0.0
H175 H 0.22561 0.61924 0.32664 0.0
H176 H 0.29724 0.76551 0.3221 0.0
H177 H 0.33499 0.73947 0.30385 0.0
H178 H 0.33169 0.75108 0.35608 0.0
C179 C 0.84868 0.8522 0.71957 0.0
N180 N 0.87634 0.86271 0.74344 0.0
N181 N 0.85411 0.81864 0.70453 0.0
C182 C 0.81574 0.87428 0.71221 0.0
C183 C 0.88602 0.80895 0.72046 0.0
N184 N 0.89953 0.83576 0.74415 0.0
C185 C 0.90205 0.77223 0.71592 0.0
H186 H 0.79551 0.86956 0.73567 0.0
H187 H 0.80364 0.86685 0.68284 0.0
H188 H 0.82259 0.90304 0.71355 0.0
H189 H 0.90192 0.76291 0.68424 0.0
H190 H 0.8853 0.75353 0.73261 0.0
H191 H 0.93014 0.77156 0.7272 0.0
H192 H 0.1071 0.00736 0.08389 0.0
H193 H 0.1384 0.06504 0.31063 0.0
H194 H 0.15834 0.93612 0.16396 0.0
H195 H 0.1371 0.1398 0.21732 0.0
H196 H 0.13933 0.0157 0.25991 0.0
H197 H 0.11017 0.05489 0.13534 0.0
C198 C 0.11891 0.00167 0.11238 0.0
C199 C 0.13253 0.96774 0.11969 0.0
C200 C 0.13911 0.04293 0.25063 0.0
C201 C 0.13597 0.02208 0.17874 0.0
C202 C 0.1387 0.07086 0.2794 0.0
C203 C 0.13769 0.10616 0.26775 0.0
C204 C 0.13783 0.05066 0.21018 0.0
C205 C 0.13758 0.11277 0.22716 0.0
C206 C 0.12084 0.02889 0.14163 0.0
C207 C 0.14771 0.96198 0.15711 0.0
N208 N 0.1373 0.08526 0.19976 0.0
N209 N 0.14881 0.98889 0.18547 0.0
H210 H 0.5338 0.69626 0.61126 0.0
H211 H 0.46177 0.61278 0.81099 0.0
H212 H 0.56394 0.59159 0.6479 0.0
H213 H 0.41038 0.70001 0.75467 0.0
H214 H 0.50802 0.61082 0.75861 0.0
H215 H 0.49723 0.70432 0.67122 0.0
C216 C 0.53303 0.67508 0.63207 0.0
C217 C 0.55162 0.64299 0.62426 0.0
C218 C 0.48683 0.63063 0.75792 0.0
C219 C 0.50982 0.65216 0.69299 0.0
C220 C 0.46058 0.63163 0.78762 0.0
C221 C 0.43237 0.65627 0.78646 0.0
C222 C 0.48482 0.65474 0.72722 0.0
C223 C 0.43198 0.68075 0.75632 0.0
C224 C 0.51206 0.6797 0.66624 0.0
C225 C 0.54972 0.61659 0.65248 0.0
N226 N 0.45774 0.67927 0.72766 0.0
N227 N 0.529 0.62169 0.68552 0.0
H228 H 0.87252 0.98809 0.04142 0.0
H229 H 0.77288 0.91723 0.22884 0.0
H230 H 0.7976 0.05563 0.10757 0.0
H231 H 0.80801 0.84862 0.13074 0.0
H232 H 0.78233 0.96919 0.1879 0.0
H233 H 0.85167 0.93739 0.07746 0.0
C234 C 0.85167 0.99228 0.06367 0.0
C235 C 0.83691 0.02619 0.07174 0.0
C236 C 0.7874 0.94271 0.17518 0.0
C237 C 0.81287 0.96801 0.11319 0.0
C238 C 0.78189 0.91324 0.19838 0.0
C239 C 0.79009 0.87896 0.18298 0.0
C240 C 0.80164 0.93759 0.13671 0.0
C241 C 0.80195 0.87481 0.14362 0.0
C242 C 0.83955 0.96321 0.08398 0.0
C243 C 0.80965 0.02989 0.10053 0.0
N244 N 0.80791 0.90384 0.12198 0.0
N245 N 0.79872 0.00113 0.12067 0.0
H246 H 0.5204 0.38881 0.54595 0.0
H247 H 0.62373 0.31064 0.72926 0.0
H248 H 0.46741 0.31877 0.62579 0.0
H249 H 0.67791 0.33866 0.62195 0.0
H250 H 0.56541 0.31835 0.69601 0.0
H251 H 0.57781 0.37661 0.57802 0.0
C252 C 0.52081 0.37091 0.57033 0.0
C253 C 0.48903 0.35478 0.58325 0.0
C254 C 0.59007 0.32246 0.67965 0.0
C255 C 0.55478 0.34086 0.62018 0.0
C256 C 0.62322 0.31786 0.69848 0.0
C257 C 0.65544 0.32364 0.67799 0.0
C258 C 0.5893 0.33367 0.64041 0.0
C259 C 0.65354 0.33402 0.63858 0.0
C260 C 0.55365 0.36381 0.58844 0.0
C261 C 0.49129 0.33165 0.61483 0.0
N262 N 0.621 0.33898 0.62111 0.0
N263 N 0.52363 0.32557 0.63248 0.0
H264 H 0.57252 0.50354 0.44836 0.0
H265 H 0.63908 0.43435 0.23651 0.0
H266 H 0.66151 0.55607 0.39294 0.0
H267 H 0.62103 0.36137 0.32961 0.0
H268 H 0.6351 0.4844 0.28617 0.0
H269 H 0.57591 0.45566 0.39635 0.0
C270 C 0.59235 0.50522 0.42489 0.0
C271 C 0.61687 0.53356 0.4248 0.0
C272 C 0.6321 0.45736 0.29555 0.0
C273 C 0.62049 0.4796 0.36553 0.0
C274 C 0.63468 0.429 0.26748 0.0
C275 C 0.63062 0.39397 0.27931 0.0
C276 C 0.62432 0.45042 0.33525 0.0
C277 C 0.62404 0.38815 0.31952 0.0
C278 C 0.59442 0.4779 0.39556 0.0
C279 C 0.6423 0.53445 0.39402 0.0
N280 N 0.62063 0.41615 0.34609 0.0
N281 N 0.64335 0.5079 0.36534 0.0
H282 H 0.97563 0.20656 0.95504 0.0
H283 H 0.12813 0.11897 0.81553 0.0
H284 H 0.99189 0.09311 0.93975 0.0
H285 H 0.14382 0.22059 0.87698 0.0
H286 H 0.07022 0.11293 0.84948 0.0
H287 H 0.03003 0.21606 0.91499 0.0
C288 C 0.99046 0.18373 0.94298 0.0
C289 C 0.97955 0.14902 0.95088 0.0
C290 C 0.08627 0.13663 0.85543 0.0
C291 C 0.04091 0.15964 0.90498 0.0
C292 C 0.11927 0.13993 0.83631 0.0
C293 C 0.14081 0.16994 0.84425 0.0
C294 C 0.07448 0.16388 0.88213 0.0
C295 C 0.12778 0.19706 0.8703 0.0
C296 C 0.02145 0.18916 0.92038 0.0
C297 C 0.99966 0.12031 0.9347 0.0
N298 N 0.09534 0.1934 0.88851 0.0
N299 N 0.02929 0.12625 0.9124 0.0
H300 H 0.3375 0.50868 0.52512 0.0
H301 H 0.30925 0.59912 0.32312 0.0
H302 H 0.32355 0.44296 0.41814 0.0
H303 H 0.25906 0.64184 0.42994 0.0
H304 H 0.31997 0.54264 0.35599 0.0
H305 H 0.31438 0.55991 0.49029 0.0
C306 C 0.32923 0.50515 0.4943 0.0
C307 C 0.33223 0.47189 0.47424 0.0
C308 C 0.30614 0.56421 0.37199 0.0
C309 C 0.30662 0.53007 0.43424 0.0
C310 C 0.30016 0.59616 0.35336 0.0
C311 C 0.28357 0.62464 0.37429 0.0
C312 C 0.29615 0.56141 0.41196 0.0
C313 C 0.27212 0.62019 0.4133 0.0
C314 C 0.31595 0.5342 0.47457 0.0
C315 C 0.32136 0.46835 0.43441 0.0
N316 N 0.27922 0.58929 0.43128 0.0
N317 N 0.30951 0.49737 0.41535 0.0
H318 H 0.04463 0.79111 0.9375 0.0
H319 H 0.96033 0.87478 0.74414 0.0
H320 H 0.05364 0.90244 0.91307 0.0
H321 H 0.90622 0.79209 0.80535 0.0
H322 H 0.00738 0.87658 0.79568 0.0
H323 H 0.00605 0.78244 0.8782 0.0
C324 C 0.039 0.8135 0.91923 0.0
C325 C 0.05196 0.84757 0.93009 0.0
C326 C 0.98537 0.85781 0.79759 0.0
C327 C 0.00875 0.83781 0.86265 0.0
C328 C 0.95858 0.857 0.76849 0.0
C329 C 0.92932 0.83384 0.7713 0.0
C330 C 0.9831 0.8347 0.82915 0.0
C331 C 0.92852 0.81035 0.80252 0.0
C332 C 0.01693 0.8086 0.88572 0.0
C333 C 0.0438 0.87584 0.90576 0.0
N334 N 0.95505 0.8114 0.83046 0.0
N335 N 0.02274 0.87033 0.8731 0.0
H336 H 0.81946 0.01659 0.92851 0.0
H337 H 0.9179 0.92173 0.7419 0.0
H338 H 0.92868 0.04288 0.8966 0.0
H339 H 0.8333 0.8722 0.80705 0.0
H340 H 0.91803 0.97192 0.79145 0.0
H341 H 0.8193 0.96942 0.87645 0.0
C342 C 0.84335 0.01266 0.91036 0.0
C343 C 0.87422 0.03366 0.91708 0.0
C344 C 0.89952 0.95001 0.79493 0.0
C345 C 0.87407 0.97964 0.85727 0.0
C346 C 0.89962 0.92146 0.76691 0.0
C347 C 0.87603 0.89285 0.7712 0.0
C348 C 0.87502 0.95008 0.82675 0.0
C349 C 0.85192 0.89392 0.80316 0.0
C350 C 0.84326 0.98557 0.88078 0.0
C351 C 0.90439 0.02717 0.8926 0.0
N352 N 0.85194 0.92214 0.82974 0.0
N353 N 0.90355 0.00074 0.86367 0.0
H354 H 0.45414 0.30587 0.43173 0.0
H355 H 0.55524 0.39384 0.2506 0.0
H356 H 0.44675 0.4177 0.40816 0.0
H357 H 0.57992 0.29022 0.29307 0.0
H358 H 0.50597 0.39962 0.29927 0.0
H359 H 0.49067 0.2965 0.37214 0.0
C360 C 0.45998 0.32848 0.41391 0.0
C361 C 0.44779 0.36278 0.42541 0.0
C362 C 0.5217 0.37532 0.29739 0.0
C363 C 0.48972 0.35207 0.35687 0.0
C364 C 0.54954 0.37199 0.26957 0.0
C365 C 0.5713 0.34146 0.26788 0.0
C366 C 0.51561 0.34778 0.32349 0.0
C367 C 0.56329 0.31388 0.2931 0.0
C368 C 0.48087 0.32305 0.37983 0.0
C369 C 0.45588 0.39088 0.40071 0.0
N370 N 0.53624 0.31779 0.32009 0.0
N371 N 0.47662 0.38496 0.36775 0.0
H372 H 0.19553 0.98851 0.00462 0.0
H373 H 0.19445 0.08037 0.7967 0.0
H374 H 0.12512 0.95035 0.90991 0.0
H375 H 0.20062 0.1414 0.90752 0.0
H376 H 0.18325 0.02617 0.83381 0.0
H377 H 0.21227 0.03887 0.96485 0.0
C378 C 0.18397 0.99045 0.97522 0.0
C379 C 0.15882 0.96529 0.9605 0.0
C380 C 0.1874 0.05141 0.8499 0.0
C381 C 0.17823 0.02253 0.91493 0.0
C382 C 0.194 0.08199 0.82889 0.0
C383 C 0.19843 0.11484 0.84946 0.0
C384 C 0.18627 0.0539 0.89161 0.0
C385 C 0.19736 0.11626 0.89101 0.0
C386 C 0.19339 0.01927 0.95274 0.0
C387 C 0.14446 0.96931 0.92235 0.0
N388 N 0.19156 0.0861 0.91088 0.0
N389 N 0.15451 0.99741 0.90069 0.0
H390 H 0.47779 0.61841 0.50899 0.0
H391 H 0.3713 0.68576 0.32251 0.0
H392 H 0.53076 0.68044 0.42123 0.0
H393 H 0.32026 0.67357 0.43591 0.0
H394 H 0.43042 0.67748 0.35394 0.0
H395 H 0.41981 0.63082 0.47808 0.0
C396 C 0.47724 0.63455 0.48309 0.0
C397 C 0.50916 0.64841 0.46759 0.0
C398 C 0.40626 0.67673 0.37192 0.0
C399 C 0.44284 0.66246 0.432 0.0
C400 C 0.37269 0.68156 0.35409 0.0
C401 C 0.34108 0.68003 0.37674 0.0
C402 C 0.408 0.6697 0.41249 0.0
C403 C 0.34402 0.67401 0.41737 0.0
C404 C 0.44411 0.64179 0.46566 0.0
C405 C 0.50676 0.66937 0.43416 0.0
N406 N 0.3769 0.66873 0.43395 0.0
N407 N 0.47413 0.67554 0.4172 0.0
H408 H 0.43282 0.45597 0.64754 0.0
H409 H 0.33637 0.62755 0.74459 0.0
H410 H 0.32519 0.48754 0.61501 0.0
H411 H 0.41465 0.56838 0.80919 0.0
H412 H 0.33649 0.58039 0.69167 0.0
H413 H 0.4318 0.50131 0.70234 0.0
C414 C 0.40903 0.47241 0.65192 0.0
C415 C 0.37902 0.46796 0.62676 0.0
C416 C 0.35357 0.57763 0.71748 0.0
C417 C 0.37787 0.51985 0.68881 0.0
C418 C 0.3534 0.60439 0.74748 0.0
C419 C 0.37551 0.60148 0.78087 0.0
C420 C 0.37654 0.54816 0.72071 0.0
C421 C 0.39753 0.57142 0.78352 0.0
C422 C 0.40841 0.49809 0.68323 0.0
C423 C 0.34883 0.48989 0.63382 0.0
N424 N 0.39775 0.5459 0.75361 0.0
N425 N 0.34915 0.51507 0.66397 0.0
H426 H 0.0113 0.91491 0.11543 0.0
H427 H 0.85499 0.77856 0.16985 0.0
H428 H 0.01203 0.80322 0.07949 0.0
H429 H 0.86069 0.88594 0.21918 0.0
H430 H 0.91312 0.78704 0.13697 0.0
H431 H 0.95635 0.90523 0.1537 0.0
C432 C 1.00001 0.88836 0.11563 0.0
C433 C 0.01628 0.85989 0.09399 0.0
C434 C 0.90187 0.80874 0.15519 0.0
C435 C 0.95338 0.84865 0.13774 0.0
C436 C 0.86888 0.80376 0.17405 0.0
C437 C 0.85333 0.8316 0.19706 0.0
C438 C 0.91927 0.84193 0.15922 0.0
C439 C 0.8719 0.864 0.20134 0.0
C440 C 0.96866 0.88284 0.13756 0.0
C441 C 0.00045 0.82603 0.09555 0.0
N442 N 0.90384 0.8684 0.18237 0.0
N443 N 0.96986 0.82142 0.11685 0.0
H444 H 0.71962 0.53755 0.5651 0.0
H445 H 0.66177 0.39342 0.7217 0.0
H446 H 0.61152 0.52547 0.60974 0.0
H447 H 0.755 0.38008 0.64656 0.0
H448 H 0.64916 0.45049 0.69177 0.0
H449 H 0.7392 0.48812 0.60575 0.0
C450 C 0.7002 0.52488 0.5839 0.0
C451 C 0.66386 0.53525 0.58384 0.0
C452 C 0.67266 0.43534 0.68214 0.0
C453 C 0.68594 0.47931 0.63026 0.0
C454 C 0.67979 0.40296 0.69922 0.0
C455 C 0.70934 0.3824 0.68638 0.0
C456 C 0.69542 0.44725 0.65211 0.0
C457 C 0.73216 0.3956 0.65732 0.0
C458 C 0.7113 0.49664 0.60684 0.0
C459 C 0.63971 0.51795 0.60857 0.0
N460 N 0.72464 0.42722 0.64091 0.0
N461 N 0.65115 0.49082 0.63069 0.0
H462 H 0.94851 0.08221 0.13287 0.0
H463 H 0.08975 0.20999 0.24646 0.0
H464 H 0.96254 0.19299 0.1075 0.0
H465 H 0.0601 0.10744 0.28822 0.0
H466 H 0.04188 0.20483 0.19644 0.0
H467 H 0.98823 0.09086 0.1906 0.0
C468 C 0.95973 0.10839 0.13953 0.0
C469 C 0.95236 0.13683 0.11502 0.0
C470 C 0.04538 0.18364 0.21689 0.0
C471 C 0.99795 0.14686 0.181 0.0
C472 C 0.07244 0.18681 0.24566 0.0
C473 C 0.07836 0.15931 0.2717 0.0
C474 C 0.02448 0.15245 0.21374 0.0
C475 C 0.0561 0.1292 0.26865 0.0
C476 C 0.98235 0.11332 0.17256 0.0
C477 C 0.96755 0.1702 0.12532 0.0
N478 N 0.03031 0.12638 0.23993 0.0
N479 N 0.98982 0.17419 0.15727 0.0
H480 H 0.22413 0.82622 0.1169 0.0
H481 H 0.19296 0.72196 0.3147 0.0
H482 H 0.11732 0.79396 0.15154 0.0
H483 H 0.29277 0.72126 0.24945 0.0
H484 H 0.16393 0.75348 0.26037 0.0
H485 H 0.24927 0.79425 0.1715 0.0
C486 C 0.20584 0.81249 0.13609 0.0
C487 C 0.16848 0.81269 0.12947 0.0
C488 C 0.19216 0.74635 0.25806 0.0
C489 C 0.19741 0.77583 0.19242 0.0
C490 C 0.20861 0.72843 0.28886 0.0
C491 C 0.24531 0.71959 0.28651 0.0
C492 C 0.21284 0.75562 0.22513 0.0
C493 C 0.26466 0.72848 0.25269 0.0
C494 C 0.22033 0.79405 0.16721 0.0
C495 C 0.14629 0.7943 0.15546 0.0
N496 N 0.24827 0.7462 0.22346 0.0
N497 N 0.16111 0.77662 0.18601 0.0
H498 H 0.66124 0.71233 0.6211 0.0
H499 H 0.86359 0.78537 0.63266 0.0
H500 H 0.7455 0.67515 0.54112 0.0
H501 H 0.78702 0.80159 0.7277 0.0
H502 H 0.81966 0.74737 0.59643 0.0
H503 H 0.70584 0.74795 0.65867 0.0
C504 C 0.6891 0.71158 0.61148 0.0
C505 C 0.6996 0.69076 0.57783 0.0
C506 C 0.81246 0.75911 0.62528 0.0
C507 C 0.75071 0.73162 0.62057 0.0
C508 C 0.83754 0.78059 0.64587 0.0
C509 C 0.82872 0.79628 0.68305 0.0
C510 C 0.77826 0.75367 0.64195 0.0
C511 C 0.7945 0.79005 0.69887 0.0
C512 C 0.71456 0.73187 0.63299 0.0
C513 C 0.73614 0.69075 0.56687 0.0
N514 N 0.77041 0.76929 0.67819 0.0
N515 N 0.76031 0.71101 0.58803 0.0
H516 H 0.8377 0.20313 0.12684 0.0
H517 H 0.6449 0.29679 0.13316 0.0
H518 H 0.75283 0.17564 0.04316 0.0
H519 H 0.71256 0.29254 0.2368 0.0
H520 H 0.68671 0.25646 0.0969 0.0
H521 H 0.79473 0.24017 0.16548 0.0
C522 C 0.81004 0.20474 0.1167 0.0
C523 C 0.79888 0.18629 0.08168 0.0
C524 C 0.69234 0.26418 0.12765 0.0
C525 C 0.74985 0.22887 0.12538 0.0
C526 C 0.66848 0.287 0.14823 0.0
C527 C 0.67537 0.29753 0.18787 0.0
C528 C 0.72357 0.25235 0.14679 0.0
C529 C 0.70661 0.28495 0.20612 0.0
C530 C 0.78556 0.2258 0.13878 0.0
C531 C 0.76266 0.18928 0.07 0.0
N532 N 0.72973 0.26312 0.18537 0.0
N533 N 0.73955 0.21041 0.09159 0.0
H534 H 0.3161 0.35996 0.6641 0.0
H535 H 0.25547 0.16645 0.72471 0.0
H536 H 0.35037 0.26311 0.60143 0.0
H537 H 0.24176 0.25973 0.80199 0.0
H538 H 0.29098 0.20161 0.67937 0.0
H539 H 0.28927 0.32423 0.71542 0.0
C540 C 0.31823 0.33123 0.66125 0.0
C541 C 0.33521 0.31452 0.62817 0.0
C542 C 0.28052 0.21441 0.70639 0.0
C543 C 0.30439 0.27353 0.68663 0.0
C544 C 0.26044 0.1943 0.73225 0.0
C545 C 0.24585 0.21036 0.76692 0.0
C546 C 0.28564 0.25096 0.7151 0.0
C547 C 0.25236 0.24664 0.77522 0.0
C548 C 0.30295 0.31085 0.6906 0.0
C549 C 0.33737 0.27719 0.62624 0.0
N550 N 0.27158 0.26586 0.74932 0.0
N551 N 0.32183 0.25797 0.65483 0.0
H552 H 0.64296 0.73818 0.44225 0.0
H553 H 0.76196 0.73585 0.24381 0.0
H554 H 0.68594 0.64184 0.3859 0.0
H555 H 0.73314 0.83131 0.31166 0.0
H556 H 0.7282 0.70055 0.2909 0.0
H557 H 0.66914 0.77229 0.38953 0.0
C558 C 0.65769 0.72411 0.41865 0.0
C559 C 0.66258 0.68706 0.41881 0.0
C560 C 0.72907 0.72923 0.2954 0.0
C561 C 0.69276 0.72615 0.35827 0.0
C562 C 0.74837 0.74925 0.26867 0.0
C563 C 0.75032 0.78635 0.27421 0.0
C564 C 0.71155 0.74657 0.32778 0.0
C565 C 0.73195 0.80275 0.30638 0.0
C566 C 0.67271 0.74367 0.38857 0.0
C567 C 0.68173 0.67036 0.38721 0.0
N568 N 0.71342 0.78274 0.33208 0.0
N569 N 0.69631 0.69007 0.35833 0.0
H570 H 0.83531 0.23893 0.95147 0.0
H571 H 0.76609 0.23769 0.72648 0.0
H572 H 0.81942 0.14187 0.8803 0.0
H573 H 0.74615 0.32429 0.81141 0.0
H574 H 0.79477 0.20415 0.7792 0.0
H575 H 0.81181 0.27286 0.8968 0.0
C576 C 0.82704 0.22475 0.92428 0.0
C577 C 0.8291 0.18746 0.92054 0.0
C578 C 0.78419 0.23052 0.78627 0.0
C579 C 0.80242 0.22622 0.85783 0.0
C580 C 0.76787 0.24949 0.75633 0.0
C581 C 0.7536 0.28341 0.76506 0.0
C582 C 0.78662 0.24597 0.82493 0.0
C583 C 0.75699 0.29814 0.80379 0.0
C584 C 0.81353 0.24414 0.89317 0.0
C585 C 0.818 0.17055 0.88458 0.0
N586 N 0.77317 0.27932 0.8324 0.0
N587 N 0.80517 0.19007 0.85456 0.0
H588 H 0.33945 0.29477 0.42354 0.0
H589 H 0.14358 0.20704 0.41296 0.0
H590 H 0.25488 0.32339 0.50704 0.0
H591 H 0.2163 0.20529 0.31335 0.0
H592 H 0.18532 0.24684 0.45024 0.0
H593 H 0.29616 0.25859 0.38468 0.0
C594 C 0.31178 0.29352 0.43366 0.0
C595 C 0.30081 0.31209 0.46864 0.0
C596 C 0.19207 0.23792 0.42014 0.0
C597 C 0.25124 0.27055 0.4245 0.0
C598 C 0.16827 0.21541 0.39899 0.0
C599 C 0.17671 0.20323 0.36025 0.0
C600 C 0.22469 0.24783 0.40244 0.0
C601 C 0.20916 0.21414 0.34334 0.0
C602 C 0.28707 0.27295 0.41141 0.0
C603 C 0.26454 0.3096 0.48023 0.0
N604 N 0.23213 0.23569 0.36462 0.0
N605 N 0.24112 0.289 0.45837 0.0
H606 H 0.22947 0.85141 0.9432 0.0
H607 H 0.32119 0.65935 0.91916 0.0
H608 H 0.18621 0.75758 0.99542 0.0
H609 H 0.33821 0.74058 0.83481 0.0
H610 H 0.27695 0.69797 0.95388 0.0
H611 H 0.27491 0.81395 0.90876 0.0
C612 C 0.22947 0.82299 0.94735 0.0
C613 C 0.20395 0.80761 0.97216 0.0
C614 C 0.29043 0.7074 0.92782 0.0
C615 C 0.25599 0.76487 0.93343 0.0
C616 C 0.31551 0.68537 0.90808 0.0
C617 C 0.33311 0.69691 0.87421 0.0
C618 C 0.28322 0.74134 0.91372 0.0
C619 C 0.32547 0.73106 0.86121 0.0
C620 C 0.25534 0.80167 0.92769 0.0
C621 C 0.20519 0.77062 0.97644 0.0
N622 N 0.30107 0.75218 0.88103 0.0
N623 N 0.23089 0.75059 0.95749 0.0
loop_
_geom_bond_atom_site_label_1
_geom_bond_atom_site_label_2
_geom_bond_distance
_geom_bond_site_symmetry_2
_ccdc_geom_bond_type
Fe0 O2 1.918 . S
Fe0 O5 1.997 . S
Fe0 O6 2.002 . S
Fe0 O11 1.976 . S
Fe0 O14 1.996 . S
Fe1 O2 1.918 . S
Fe1 O9 1.997 . S
Fe1 O12 1.996 1_554 S
Fe1 O16 1.976 1_554 S
Fe1 O19 2.002 . S
O2 Fe0 1.918 . S
O2 Fe1 1.918 . S
O2 Fe3 1.918 . S
Fe3 O2 1.918 . S
Fe3 O4 2.002 . S
Fe3 O13 1.976 1_554 S
Fe3 O17 1.996 1_554 S
Fe3 O20 1.997 . S
O4 Fe3 2.002 . S
O4 C21 1.295 . S
O5 Fe0 1.997 . S
O5 C21 1.235 . S
O6 Fe0 2.002 . S
O6 C7 1.295 . S
C7 O6 1.295 . S
C7 O9 1.235 . S
C8 O13 1.287 . S
C8 O14 1.255 1_556 S
O9 Fe1 1.997 . S
O9 C7 1.235 . S
C10 O16 1.287 . S
C10 O17 1.255 . S
O11 Fe0 1.976 . S
O11 C18 1.287 1_554 S
O12 Fe1 1.996 1_556 S
O12 C18 1.255 . S
O13 Fe3 1.976 1_556 S
O13 C8 1.287 . S
O14 Fe0 1.996 . S
O14 C8 1.255 1_554 S
C15 O19 1.295 . S
C15 O20 1.235 . S
O16 Fe1 1.976 1_556 S
O16 C10 1.287 . S
O17 Fe3 1.996 1_556 S
O17 C10 1.255 . S
C18 O11 1.287 1_556 S
C18 O12 1.255 . S
O19 Fe1 2.002 . S
O19 C15 1.295 . S
O20 Fe3 1.997 . S
O20 C15 1.235 . S
C21 O4 1.295 . S
C21 O5 1.235 . S
Fe22 O24 1.918 . S
Fe22 O27 1.997 . S
Fe22 O28 2.002 . S
Fe22 O33 1.976 . S
Fe22 O36 1.996 . S
Fe23 O24 1.918 . S
Fe23 O31 1.997 . S
Fe23 O34 1.996 . S
Fe23 O38 1.976 . S
Fe23 O41 2.002 . S
O24 Fe22 1.918 . S
O24 Fe23 1.918 . S
O24 Fe25 1.918 . S
Fe25 O24 1.918 . S
Fe25 O26 2.002 . S
Fe25 O35 1.976 . S
Fe25 O39 1.996 . S
Fe25 O42 1.997 . S
O26 Fe25 2.002 . S
O26 C43 1.295 . S
O27 Fe22 1.997 . S
O27 C43 1.235 . S
O28 Fe22 2.002 . S
O28 C29 1.295 . S
C29 O28 1.295 . S
C29 O31 1.235 . S
C30 O35 1.287 . S
C30 O36 1.255 . S
O31 Fe23 1.997 . S
O31 C29 1.235 . S
C32 O38 1.287 . S
C32 O39 1.255 . S
O33 Fe22 1.976 . S
O33 C40 1.287 . S
O34 Fe23 1.996 . S
O34 C40 1.255 . S
O35 Fe25 1.976 . S
O35 C30 1.287 . S
O36 Fe22 1.996 . S
O36 C30 1.255 . S
C37 O41 1.295 . S
C37 O42 1.235 . S
O38 Fe23 1.976 . S
O38 C32 1.287 . S
O39 Fe25 1.996 . S
O39 C32 1.255 . S
C40 O33 1.287 . S
C40 O34 1.255 . S
O41 Fe23 2.002 . S
O41 C37 1.295 . S
O42 Fe25 1.997 . S
O42 C37 1.235 . S
C43 O26 1.295 . S
C43 O27 1.235 . S
Fe44 O46 1.918 . S
Fe44 O49 1.997 1_554 S
Fe44 O50 2.002 1_554 S
Fe44 O55 1.976 . S
Fe44 O58 1.996 . S
Fe45 O46 1.918 . S
Fe45 O53 1.997 1_554 S
Fe45 O56 1.996 . S
Fe45 O60 1.976 . S
Fe45 O63 2.002 1_554 S
O46 Fe44 1.918 . S
O46 Fe45 1.918 . S
O46 Fe47 1.918 . S
Fe47 O46 1.918 . S
Fe47 O48 2.002 1_554 S
Fe47 O57 1.976 . S
Fe47 O61 1.996 . S
Fe47 O64 1.997 1_554 S
O48 Fe47 2.002 1_556 S
O48 C65 1.295 . S
O49 Fe44 1.997 1_556 S
O49 C65 1.235 . S
O50 Fe44 2.002 1_556 S
O50 C51 1.295 . S
C51 O50 1.295 . S
C51 O53 1.235 . S
C52 O57 1.287 . S
C52 O58 1.255 . S
O53 Fe45 1.997 1_556 S
O53 C51 1.235 . S
C54 O60 1.287 . S
C54 O61 1.255 . S
O55 Fe44 1.976 . S
O55 C62 1.287 . S
O56 Fe45 1.996 . S
O56 C62 1.255 . S
O57 Fe47 1.976 . S
O57 C52 1.287 . S
O58 Fe44 1.996 . S
O58 C52 1.255 . S
C59 O63 1.295 . S
C59 O64 1.235 . S
O60 Fe45 1.976 . S
O60 C54 1.287 . S
O61 Fe47 1.996 . S
O61 C54 1.255 . S
C62 O55 1.287 . S
C62 O56 1.255 . S
O63 Fe45 2.002 1_556 S
O63 C59 1.295 . S
O64 Fe47 1.997 1_556 S
O64 C59 1.235 . S
C65 O48 1.295 . S
C65 O49 1.235 . S
Fe66 O68 1.918 . S
Fe66 O71 1.997 . S
Fe66 O72 2.002 . S
Fe66 O77 1.976 . S
Fe66 O80 1.996 . S
Fe67 O68 1.918 . S
Fe67 O75 1.997 . S
Fe67 O78 1.996 . S
Fe67 O82 1.976 . S
Fe67 O85 2.002 . S
O68 Fe66 1.918 . S
O68 Fe67 1.918 . S
O68 Fe69 1.918 . S
Fe69 O68 1.918 . S
Fe69 O70 2.002 . S
Fe69 O79 1.976 . S
Fe69 O83 1.996 . S
Fe69 O86 1.997 . S
O70 Fe69 2.002 . S
O70 C87 1.295 . S
O71 Fe66 1.997 . S
O71 C87 1.235 . S
O72 Fe66 2.002 . S
O72 C73 1.295 . S
C73 O72 1.295 . S
C73 O75 1.235 . S
C74 O79 1.287 . S
C74 O80 1.255 . S
O75 Fe67 1.997 . S
O75 C73 1.235 . S
C76 O82 1.287 . S
C76 O83 1.255 . S
O77 Fe66 1.976 . S
O77 C84 1.287 . S
O78 Fe67 1.996 . S
O78 C84 1.255 . S
O79 Fe69 1.976 . S
O79 C74 1.287 . S
O80 Fe66 1.996 . S
O80 C74 1.255 . S
C81 O85 1.295 . S
C81 O86 1.235 . S
O82 Fe67 1.976 . S
O82 C76 1.287 . S
O83 Fe69 1.996 . S
O83 C76 1.255 . S
C84 O77 1.287 . S
C84 O78 1.255 . S
O85 Fe67 2.002 . S
O85 C81 1.295 . S
O86 Fe69 1.997 . S
O86 C81 1.235 . S
C87 O70 1.295 . S
C87 O71 1.235 . S
C88 N89 1.317 . S
C88 N90 1.348 . S
C88 C91 1.485 . S
N89 C88 1.317 . S
N89 N93 1.370 . S
N90 C88 1.348 . S
N90 C92 1.346 . S
C91 C88 1.485 . S
C91 H95 0.960 . S
C91 H96 0.961 . S
C91 H97 0.960 . S
C92 N90 1.346 . S
C92 N93 1.307 . S
C92 C94 1.486 . S
N93 N89 1.370 . S
N93 C92 1.307 . S
C94 C92 1.486 . S
C94 H98 0.960 . S
C94 H99 0.960 . S
C94 H100 0.959 . S
H95 C91 0.960 . S
H96 C91 0.961 . S
H97 C91 0.960 . S
H98 C94 0.960 . S
H99 C94 0.960 . S
H100 C94 0.959 . S
C101 N102 1.317 . S
C101 N103 1.348 . S
C101 C104 1.485 . S
N102 C101 1.317 . S
N102 N106 1.370 . S
N103 C101 1.348 . S
N103 C105 1.346 . S
C104 C101 1.485 . S
C104 H108 0.960 . S
C104 H109 0.961 . S
C104 H110 0.960 . S
C105 N103 1.346 . S
C105 N106 1.307 . S
C105 C107 1.486 . S
N106 N102 1.370 . S
N106 C105 1.307 . S
C107 C105 1.486 . S
C107 H111 0.960 . S
C107 H112 0.960 . S
C107 H113 0.959 . S
H108 C104 0.960 . S
H109 C104 0.961 . S
H110 C104 0.960 . S
H111 C107 0.960 . S
H112 C107 0.960 . S
H113 C107 0.959 . S
C114 N115 1.317 . S
C114 N116 1.348 . S
C114 C117 1.485 . S
N115 C114 1.317 . S
N115 N119 1.370 . S
N116 C114 1.348 . S
N116 C118 1.346 . S
C117 C114 1.485 . S
C117 H121 0.960 . S
C117 H122 0.961 . S
C117 H123 0.960 . S
C118 N116 1.346 . S
C118 N119 1.307 . S
C118 C120 1.486 . S
N119 N115 1.370 . S
N119 C118 1.307 . S
C120 C118 1.486 . S
C120 H124 0.960 . S
C120 H125 0.960 . S
C120 H126 0.959 . S
H121 C117 0.960 . S
H122 C117 0.961 . S
H123 C117 0.960 . S
H124 C120 0.960 . S
H125 C120 0.960 . S
H126 C120 0.959 . S
C127 N128 1.317 . S
C127 N129 1.348 . S
C127 C130 1.485 . S
N128 C127 1.317 . S
N128 N132 1.370 . S
N129 C127 1.348 . S
N129 C131 1.346 . S
C130 C127 1.485 . S
C130 H134 0.960 . S
C130 H135 0.961 . S
C130 H136 0.960 . S
C131 N129 1.346 . S
C131 N132 1.307 . S
C131 C133 1.486 . S
N132 N128 1.370 . S
N132 C131 1.307 . S
C133 C131 1.486 . S
C133 H137 0.960 . S
C133 H138 0.960 . S
C133 H139 0.959 . S
H134 C130 0.960 . S
H135 C130 0.961 . S
H136 C130 0.960 . S
H137 C133 0.960 . S
H138 C133 0.960 . S
H139 C133 0.959 . S
C140 N141 1.317 . S
C140 N142 1.348 . S
C140 C143 1.485 . S
N141 C140 1.317 . S
N141 N145 1.370 . S
N142 C140 1.348 . S
N142 C144 1.346 . S
C143 C140 1.485 . S
C143 H147 0.960 . S
C143 H148 0.961 . S
C143 H149 0.960 . S
C144 N142 1.346 . S
C144 N145 1.307 . S
C144 C146 1.486 . S
N145 N141 1.370 . S
N145 C144 1.307 . S
C146 C144 1.486 . S
C146 H150 0.960 . S
C146 H151 0.960 . S
C146 H152 0.959 . S
H147 C143 0.960 . S
H148 C143 0.961 . S
H149 C143 0.960 . S
H150 C146 0.960 . S
H151 C146 0.960 . S
H152 C146 0.959 . S
C153 N154 1.317 . S
C153 N155 1.348 . S
C153 C156 1.485 . S
N154 C153 1.317 . S
N154 N158 1.370 . S
N155 C153 1.348 . S
N155 C157 1.346 . S
C156 C153 1.485 . S
C156 H160 0.960 . S
C156 H161 0.961 . S
C156 H162 0.960 . S
C157 N155 1.346 . S
C157 N158 1.307 . S
C157 C159 1.486 . S
N158 N154 1.370 . S
N158 C157 1.307 . S
C159 C157 1.486 . S
C159 H163 0.960 . S
C159 H164 0.960 . S
C159 H165 0.959 . S
H160 C156 0.960 . S
H161 C156 0.961 . S
H162 C156 0.960 . S
H163 C159 0.960 . S
H164 C159 0.960 . S
H165 C159 0.959 . S
C166 N167 1.317 . S
C166 N168 1.348 . S
C166 C169 1.485 . S
N167 C166 1.317 . S
N167 N171 1.370 . S
N168 C166 1.348 . S
N168 C170 1.346 . S
C169 C166 1.485 . S
C169 H173 0.960 . S
C169 H174 0.961 . S
C169 H175 0.960 . S
C170 N168 1.346 . S
C170 N171 1.307 . S
C170 C172 1.486 . S
N171 N167 1.370 . S
N171 C170 1.307 . S
C172 C170 1.486 . S
C172 H176 0.960 . S
C172 H177 0.960 . S
C172 H178 0.959 . S
H173 C169 0.960 . S
H174 C169 0.961 . S
H175 C169 0.960 . S
H176 C172 0.960 . S
H177 C172 0.960 . S
H178 C172 0.959 . S
C179 N180 1.317 . S
C179 N181 1.348 . S
C179 C182 1.485 . S
N180 C179 1.317 . S
N180 N184 1.370 . S
N181 C179 1.348 . S
N181 C183 1.346 . S
C182 C179 1.485 . S
C182 H186 0.960 . S
C182 H187 0.961 . S
C182 H188 0.960 . S
C183 N181 1.346 . S
C183 N184 1.307 . S
C183 C185 1.486 . S
N184 N180 1.370 . S
N184 C183 1.307 . S
C185 C183 1.486 . S
C185 H189 0.960 . S
C185 H190 0.960 . S
C185 H191 0.959 . S
H186 C182 0.960 . S
H187 C182 0.961 . S
H188 C182 0.960 . S
H189 C185 0.960 . S
H190 C185 0.960 . S
H191 C185 0.959 . S
H192 C198 0.930 . S
H193 C202 0.930 . S
H194 C207 0.929 . S
H195 C205 0.929 . S
H196 C200 0.929 . S
H197 C206 0.929 . S
C198 H192 0.930 . S
C198 C199 1.367 . S
C198 C206 1.378 1_565 S
C199 C198 1.367 . S
C199 C207 1.433 . S
C200 H196 0.929 . S
C200 C202 1.378 . S
C200 C204 1.350 . S
C201 C204 1.463 . S
C201 C206 1.350 . S
C201 N209 1.427 1_545 S
C202 H193 0.930 . S
C202 C200 1.378 . S
C202 C203 1.367 . S
C203 C202 1.367 . S
C203 C205 1.433 . S
C204 C200 1.350 . S
C204 C201 1.463 . S
C204 N208 1.427 . S
C205 H195 0.929 . S
C205 C203 1.433 . S
C205 N208 1.384 . S
C206 H197 0.929 . S
C206 C198 1.378 1_545 S
C206 C201 1.350 . S
C207 H194 0.929 . S
C207 C199 1.433 . S
C207 N209 1.384 . S
N208 C204 1.427 . S
N208 C205 1.384 . S
N209 C201 1.427 1_565 S
N209 C207 1.384 . S
H210 C216 0.930 . S
H211 C220 0.930 . S
H212 C225 0.929 . S
H213 C223 0.929 . S
H214 C218 0.929 . S
H215 C224 0.929 . S
C216 H210 0.930 . S
C216 C217 1.367 . S
C216 C224 1.378 . S
C217 C216 1.367 . S
C217 C225 1.433 . S
C218 H214 0.929 . S
C218 C220 1.378 . S
C218 C222 1.350 . S
C219 C222 1.463 . S
C219 C224 1.350 . S
C219 N227 1.427 . S
C220 H211 0.930 . S
C220 C218 1.378 . S
C220 C221 1.367 . S
C221 C220 1.367 . S
C221 C223 1.433 . S
C222 C218 1.350 . S
C222 C219 1.463 . S
C222 N226 1.427 . S
C223 H213 0.929 . S
C223 C221 1.433 . S
C223 N226 1.384 . S
C224 H215 0.929 . S
C224 C216 1.378 . S
C224 C219 1.350 . S
C225 H212 0.929 . S
C225 C217 1.433 . S
C225 N227 1.384 . S
N226 C222 1.427 . S
N226 C223 1.384 . S
N227 C219 1.427 . S
N227 C225 1.384 . S
H228 C234 0.930 . S
H229 C238 0.930 . S
H230 C243 0.929 . S
H231 C241 0.929 . S
H232 C236 0.929 . S
H233 C242 0.929 . S
C234 H228 0.930 . S
C234 C235 1.367 . S
C234 C242 1.378 1_545 S
C235 C234 1.367 . S
C235 C243 1.433 . S
C236 H232 0.929 . S
C236 C238 1.378 . S
C236 C240 1.350 . S
C237 C240 1.463 . S
C237 C242 1.350 . S
C237 N245 1.427 1_565 S
C238 H229 0.930 . S
C238 C236 1.378 . S
C238 C239 1.367 . S
C239 C238 1.367 . S
C239 C241 1.433 . S
C240 C236 1.350 . S
C240 C237 1.463 . S
C240 N244 1.427 . S
C241 H231 0.929 . S
C241 C239 1.433 . S
C241 N244 1.384 . S
C242 H233 0.929 . S
C242 C234 1.378 1_565 S
C242 C237 1.350 . S
C243 H230 0.929 . S
C243 C235 1.433 . S
C243 N245 1.384 . S
N244 C240 1.427 . S
N244 C241 1.384 . S
N245 C237 1.427 1_545 S
N245 C243 1.384 . S
H246 C252 0.930 . S
H247 C256 0.930 . S
H248 C261 0.929 . S
H249 C259 0.929 . S
H250 C254 0.929 . S
H251 C260 0.929 . S
C252 H246 0.930 . S
C252 C253 1.367 . S
C252 C260 1.378 . S
C253 C252 1.367 . S
C253 C261 1.433 . S
C254 H250 0.929 . S
C254 C256 1.378 . S
C254 C258 1.350 . S
C255 C258 1.463 . S
C255 C260 1.350 . S
C255 N263 1.427 . S
C256 H247 0.930 . S
C256 C254 1.378 . S
C256 C257 1.367 . S
C257 C256 1.367 . S
C257 C259 1.433 . S
C258 C254 1.350 . S
C258 C255 1.463 . S
C258 N262 1.427 . S
C259 H249 0.929 . S
C259 C257 1.433 . S
C259 N262 1.384 . S
C260 H251 0.929 . S
C260 C252 1.378 . S
C260 C255 1.350 . S
C261 H248 0.929 . S
C261 C253 1.433 . S
C261 N263 1.384 . S
N262 C258 1.427 . S
N262 C259 1.384 . S
N263 C255 1.427 . S
N263 C261 1.384 . S
H264 C270 0.930 . S
H265 C274 0.930 . S
H266 C279 0.929 . S
H267 C277 0.929 . S
H268 C272 0.929 . S
H269 C278 0.929 . S
C270 H264 0.930 . S
C270 C271 1.367 . S
C270 C278 1.378 . S
C271 C270 1.367 . S
C271 C279 1.433 . S
C272 H268 0.929 . S
C272 C274 1.378 . S
C272 C276 1.350 . S
C273 C276 1.463 . S
C273 C278 1.350 . S
C273 N281 1.427 . S
C274 H265 0.930 . S
C274 C272 1.378 . S
C274 C275 1.367 . S
C275 C274 1.367 . S
C275 C277 1.433 . S
C276 C272 1.350 . S
C276 C273 1.463 . S
C276 N280 1.427 . S
C277 H267 0.929 . S
C277 C275 1.433 . S
C277 N280 1.384 . S
C278 H269 0.929 . S
C278 C270 1.378 . S
C278 C273 1.350 . S
C279 H266 0.929 . S
C279 C271 1.433 . S
C279 N281 1.384 . S
N280 C276 1.427 . S
N280 C277 1.384 . S
N281 C273 1.427 . S
N281 C279 1.384 . S
H282 C288 0.930 . S
H283 C292 0.930 . S
H284 C297 0.929 . S
H285 C295 0.929 . S
H286 C290 0.929 . S
H287 C296 0.929 . S
C288 H282 0.930 . S
C288 C289 1.367 . S
C288 C296 1.378 1_655 S
C289 C288 1.367 . S
C289 C297 1.433 . S
C290 H286 0.929 . S
C290 C292 1.378 . S
C290 C294 1.350 . S
C291 C294 1.463 . S
C291 C296 1.350 . S
C291 N299 1.427 . S
C292 H283 0.930 . S
C292 C290 1.378 . S
C292 C293 1.367 . S
C293 C292 1.367 . S
C293 C295 1.433 . S
C294 C290 1.350 . S
C294 C291 1.463 . S
C294 N298 1.427 . S
C295 H285 0.929 . S
C295 C293 1.433 . S
C295 N298 1.384 . S
C296 H287 0.929 . S
C296 C288 1.378 1_455 S
C296 C291 1.350 . S
C297 H284 0.929 . S
C297 C289 1.433 . S
C297 N299 1.384 1_655 S
N298 C294 1.427 . S
N298 C295 1.384 . S
N299 C291 1.427 . S
N299 C297 1.384 1_455 S
H300 C306 0.930 . S
H301 C310 0.930 . S
H302 C315 0.929 . S
H303 C313 0.929 . S
H304 C308 0.929 . S
H305 C314 0.929 . S
C306 H300 0.930 . S
C306 C307 1.367 . S
C306 C314 1.378 . S
C307 C306 1.367 . S
C307 C315 1.433 . S
C308 H304 0.929 . S
C308 C310 1.378 . S
C308 C312 1.350 . S
C309 C312 1.463 . S
C309 C314 1.350 . S
C309 N317 1.427 . S
C310 H301 0.930 . S
C310 C308 1.378 . S
C310 C311 1.367 . S
C311 C310 1.367 . S
C311 C313 1.433 . S
C312 C308 1.350 . S
C312 C309 1.463 . S
C312 N316 1.427 . S
C313 H303 0.929 . S
C313 C311 1.433 . S
C313 N316 1.384 . S
C314 H305 0.929 . S
C314 C306 1.378 . S
C314 C309 1.350 . S
C315 H302 0.929 . S
C315 C307 1.433 . S
C315 N317 1.384 . S
N316 C312 1.427 . S
N316 C313 1.384 . S
N317 C309 1.427 . S
N317 C315 1.384 . S
H318 C324 0.930 . S
H319 C328 0.930 . S
H320 C333 0.929 . S
H321 C331 0.929 . S
H322 C326 0.929 . S
H323 C332 0.929 . S
C324 H318 0.930 . S
C324 C325 1.367 . S
C324 C332 1.378 . S
C325 C324 1.367 . S
C325 C333 1.433 . S
C326 H322 0.929 . S
C326 C328 1.378 . S
C326 C330 1.350 . S
C327 C330 1.448 1_455 S
C327 C332 1.360 . S
C327 N335 1.431 . S
C328 H319 0.930 . S
C328 C326 1.378 . S
C328 C329 1.367 . S
C329 C328 1.367 . S
C329 C331 1.433 . S
C330 C326 1.350 . S
C330 C327 1.448 1_655 S
C330 N334 1.427 . S
C331 H321 0.929 . S
C331 C329 1.433 . S
C331 N334 1.384 . S
C332 H323 0.929 . S
C332 C324 1.378 . S
C332 C327 1.360 . S
C333 H320 0.929 . S
C333 C325 1.433 . S
C333 N335 1.384 . S
N334 C330 1.427 . S
N334 C331 1.384 . S
N335 C327 1.431 . S
N335 C333 1.384 . S
H336 C342 0.930 . S
H337 C346 0.930 . S
H338 C351 0.929 . S
H339 C349 0.929 . S
H340 C344 0.929 . S
H341 C350 0.929 . S
C342 H336 0.930 . S
C342 C343 1.367 . S
C342 C350 1.378 1_545 S
C343 C342 1.367 . S
C343 C351 1.433 . S
C344 H340 0.929 . S
C344 C346 1.378 . S
C344 C348 1.350 . S
C345 C348 1.463 . S
C345 C350 1.350 . S
C345 N353 1.427 1_565 S
C346 H337 0.930 . S
C346 C344 1.378 . S
C346 C347 1.367 . S
C347 C346 1.367 . S
C347 C349 1.433 . S
C348 C344 1.350 . S
C348 C345 1.463 . S
C348 N352 1.427 . S
C349 H339 0.929 . S
C349 C347 1.433 . S
C349 N352 1.384 . S
C350 H341 0.929 . S
C350 C342 1.378 1_565 S
C350 C345 1.350 . S
C351 H338 0.929 . S
C351 C343 1.433 . S
C351 N353 1.384 . S
N352 C348 1.427 . S
N352 C349 1.384 . S
N353 C345 1.427 1_545 S
N353 C351 1.384 . S
H354 C360 0.930 . S
H355 C364 0.930 . S
H356 C369 0.929 . S
H357 C367 0.929 . S
H358 C362 0.929 . S
H359 C368 0.929 . S
C360 H354 0.930 . S
C360 C361 1.367 . S
C360 C368 1.378 . S
C361 C360 1.367 . S
C361 C369 1.433 . S
C362 H358 0.929 . S
C362 C364 1.378 . S
C362 C366 1.350 . S
C363 C366 1.463 . S
C363 C368 1.350 . S
C363 N371 1.427 . S
C364 H355 0.930 . S
C364 C362 1.378 . S
C364 C365 1.367 . S
C365 C364 1.367 . S
C365 C367 1.433 . S
C366 C362 1.350 . S
C366 C363 1.463 . S
C366 N370 1.427 . S
C367 H357 0.929 . S
C367 C365 1.433 . S
C367 N370 1.384 . S
C368 H359 0.929 . S
C368 C360 1.378 . S
C368 C363 1.350 . S
C369 H356 0.929 . S
C369 C361 1.433 . S
C369 N371 1.384 . S
N370 C366 1.427 . S
N370 C367 1.384 . S
N371 C363 1.427 . S
N371 C369 1.384 . S
H372 C378 0.930 . S
H373 C382 0.930 . S
H374 C387 0.929 . S
H375 C385 0.929 . S
H376 C380 0.929 . S
H377 C386 0.929 . S
C378 H372 0.930 . S
C378 C379 1.367 . S
C378 C386 1.378 1_565 S
C379 C378 1.367 . S
C379 C387 1.433 . S
C380 H376 0.929 . S
C380 C382 1.378 . S
C380 C384 1.350 . S
C381 C384 1.463 . S
C381 C386 1.350 . S
C381 N389 1.427 . S
C382 H373 0.930 . S
C382 C380 1.378 . S
C382 C383 1.367 . S
C383 C382 1.367 . S
C383 C385 1.433 . S
C384 C380 1.350 . S
C384 C381 1.463 . S
C384 N388 1.427 . S
C385 H375 0.929 . S
C385 C383 1.433 . S
C385 N388 1.384 . S
C386 H377 0.929 . S
C386 C378 1.378 1_545 S
C386 C381 1.350 . S
C387 H374 0.929 . S
C387 C379 1.433 . S
C387 N389 1.384 1_565 S
N388 C384 1.427 . S
N388 C385 1.384 . S
N389 C381 1.427 . S
N389 C387 1.384 1_545 S
H390 C396 0.930 . S
H391 C400 0.930 . S
H392 C405 0.929 . S
H393 C403 0.929 . S
H394 C398 0.929 . S
H395 C404 0.929 . S
C396 H390 0.930 . S
C396 C397 1.367 . S
C396 C404 1.378 . S
C397 C396 1.367 . S
C397 C405 1.433 . S
C398 H394 0.929 . S
C398 C400 1.378 . S
C398 C402 1.350 . S
C399 C402 1.463 . S
C399 C404 1.350 . S
C399 N407 1.427 . S
C400 H391 0.930 . S
C400 C398 1.378 . S
C400 C401 1.367 . S
C401 C400 1.367 . S
C401 C403 1.433 . S
C402 C398 1.350 . S
C402 C399 1.463 . S
C402 N406 1.427 . S
C403 H393 0.929 . S
C403 C401 1.433 . S
C403 N406 1.384 . S
C404 H395 0.929 . S
C404 C396 1.378 . S
C404 C399 1.350 . S
C405 H392 0.929 . S
C405 C397 1.433 . S
C405 N407 1.384 . S
N406 C402 1.427 . S
N406 C403 1.384 . S
N407 C399 1.427 . S
N407 C405 1.384 . S
H408 C414 0.930 . S
H409 C418 0.930 . S
H410 C423 0.929 . S
H411 C421 0.929 . S
H412 C416 0.929 . S
H413 C422 0.929 . S
C414 H408 0.930 . S
C414 C415 1.367 . S
C414 C422 1.378 . S
C415 C414 1.367 . S
C415 C423 1.433 . S
C416 H412 0.929 . S
C416 C418 1.378 . S
C416 C420 1.350 . S
C417 C420 1.463 . S
C417 C422 1.350 . S
C417 N425 1.427 . S
C418 H409 0.930 . S
C418 C416 1.378 . S
C418 C419 1.367 . S
C419 C418 1.367 . S
C419 C421 1.433 . S
C420 C416 1.350 . S
C420 C417 1.463 . S
C420 N424 1.427 . S
C421 H411 0.929 . S
C421 C419 1.433 . S
C421 N424 1.384 . S
C422 H413 0.929 . S
C422 C414 1.378 . S
C422 C417 1.350 . S
C423 H410 0.929 . S
C423 C415 1.433 . S
C423 N425 1.384 . S
N424 C420 1.427 . S
N424 C421 1.384 . S
N425 C417 1.427 . S
N425 C423 1.384 . S
H426 C432 0.930 . S
H427 C436 0.930 . S
H428 C441 0.929 . S
H429 C439 0.929 . S
H430 C434 0.929 . S
H431 C440 0.929 . S
C432 H426 0.930 . S
C432 C433 1.367 . S
C432 C440 1.378 1_455 S
C433 C432 1.367 . S
C433 C441 1.433 . S
C434 H430 0.929 . S
C434 C436 1.378 . S
C434 C438 1.350 . S
C435 C438 1.463 . S
C435 C440 1.350 . S
C435 N443 1.427 . S
C436 H427 0.930 . S
C436 C434 1.378 . S
C436 C437 1.367 . S
C437 C436 1.367 . S
C437 C439 1.433 . S
C438 C434 1.350 . S
C438 C435 1.463 . S
C438 N442 1.427 . S
C439 H429 0.929 . S
C439 C437 1.433 . S
C439 N442 1.384 . S
C440 H431 0.929 . S
C440 C432 1.378 1_655 S
C440 C435 1.350 . S
C441 H428 0.929 . S
C441 C433 1.433 . S
C441 N443 1.384 1_455 S
N442 C438 1.427 . S
N442 C439 1.384 . S
N443 C435 1.427 . S
N443 C441 1.384 1_655 S
H444 C450 0.930 . S
H445 C454 0.930 . S
H446 C459 0.929 . S
H447 C457 0.929 . S
H448 C452 0.929 . S
H449 C458 0.929 . S
C450 H444 0.930 . S
C450 C451 1.367 . S
C450 C458 1.378 . S
C451 C450 1.367 . S
C451 C459 1.433 . S
C452 H448 0.929 . S
C452 C454 1.378 . S
C452 C456 1.350 . S
C453 C456 1.463 . S
C453 C458 1.350 . S
C453 N461 1.427 . S
C454 H445 0.930 . S
C454 C452 1.378 . S
C454 C455 1.367 . S
C455 C454 1.367 . S
C455 C457 1.433 . S
C456 C452 1.350 . S
C456 C453 1.463 . S
C456 N460 1.427 . S
C457 H447 0.929 . S
C457 C455 1.433 . S
C457 N460 1.384 . S
C458 H449 0.929 . S
C458 C450 1.378 . S
C458 C453 1.350 . S
C459 H446 0.929 . S
C459 C451 1.433 . S
C459 N461 1.384 . S
N460 C456 1.427 . S
N460 C457 1.384 . S
N461 C453 1.427 . S
N461 C459 1.384 . S
H462 C468 0.930 . S
H463 C472 0.930 . S
H464 C477 0.929 . S
H465 C475 0.929 . S
H466 C470 0.929 . S
H467 C476 0.929 . S
C468 H462 0.930 . S
C468 C469 1.367 . S
C468 C476 1.378 . S
C469 C468 1.367 . S
C469 C477 1.433 . S
C470 H466 0.929 . S
C470 C472 1.378 . S
C470 C474 1.350 . S
C471 C474 1.441 1_655 S
C471 C476 1.377 . S
C471 N479 1.420 1_655 S
C472 H463 0.930 . S
C472 C470 1.378 . S
C472 C473 1.367 . S
C473 C472 1.367 . S
C473 C475 1.433 . S
C474 C470 1.350 . S
C474 C471 1.441 1_455 S
C474 N478 1.427 . S
C475 H465 0.929 . S
C475 C473 1.433 . S
C475 N478 1.384 . S
C476 H467 0.929 . S
C476 C468 1.378 . S
C476 C471 1.377 . S
C477 H464 0.929 . S
C477 C469 1.433 . S
C477 N479 1.384 1_655 S
N478 C474 1.427 . S
N478 C475 1.384 . S
N479 C471 1.420 1_455 S
N479 C477 1.384 1_455 S
H480 C486 0.930 . S
H481 C490 0.930 . S
H482 C495 0.929 . S
H483 C493 0.929 . S
H484 C488 0.929 . S
H485 C494 0.929 . S
C486 H480 0.930 . S
C486 C487 1.367 . S
C486 C494 1.378 . S
C487 C486 1.367 . S
C487 C495 1.433 . S
C488 H484 0.929 . S
C488 C490 1.378 . S
C488 C492 1.350 . S
C489 C492 1.463 . S
C489 C494 1.350 . S
C489 N497 1.427 . S
C490 H481 0.930 . S
C490 C488 1.378 . S
C490 C491 1.367 . S
C491 C490 1.367 . S
C491 C493 1.433 . S
C492 C488 1.350 . S
C492 C489 1.463 . S
C492 N496 1.427 . S
C493 H483 0.929 . S
C493 C491 1.433 . S
C493 N496 1.384 . S
C494 H485 0.929 . S
C494 C486 1.378 . S
C494 C489 1.350 . S
C495 H482 0.929 . S
C495 C487 1.433 . S
C495 N497 1.384 . S
N496 C492 1.427 . S
N496 C493 1.384 . S
N497 C489 1.427 . S
N497 C495 1.384 . S
H498 C504 0.930 . S
H499 C508 0.930 . S
H500 C513 0.929 . S
H501 C511 0.929 . S
H502 C506 0.929 . S
H503 C512 0.929 . S
C504 H498 0.930 . S
C504 C505 1.367 . S
C504 C512 1.378 . S
C505 C504 1.367 . S
C505 C513 1.433 . S
C506 H502 0.929 . S
C506 C508 1.378 . S
C506 C510 1.350 . S
C507 C510 1.463 . S
C507 C512 1.350 . S
C507 N515 1.427 . S
C508 H499 0.930 . S
C508 C506 1.378 . S
C508 C509 1.367 . S
C509 C508 1.367 . S
C509 C511 1.433 . S
C510 C506 1.350 . S
C510 C507 1.463 . S
C510 N514 1.427 . S
C511 H501 0.929 . S
C511 C509 1.433 . S
C511 N514 1.384 . S
C512 H503 0.929 . S
C512 C504 1.378 . S
C512 C507 1.350 . S
C513 H500 0.929 . S
C513 C505 1.433 . S
C513 N515 1.384 . S
N514 C510 1.427 . S
N514 C511 1.384 . S
N515 C507 1.427 . S
N515 C513 1.384 . S
H516 C522 0.930 . S
H517 C526 0.930 . S
H518 C531 0.929 . S
H519 C529 0.929 . S
H520 C524 0.929 . S
H521 C530 0.929 . S
C522 H516 0.930 . S
C522 C523 1.367 . S
C522 C530 1.378 . S
C523 C522 1.367 . S
C523 C531 1.433 . S
C524 H520 0.929 . S
C524 C526 1.378 . S
C524 C528 1.350 . S
C525 C528 1.463 . S
C525 C530 1.350 . S
C525 N533 1.427 . S
C526 H517 0.930 . S
C526 C524 1.378 . S
C526 C527 1.367 . S
C527 C526 1.367 . S
C527 C529 1.433 . S
C528 C524 1.350 . S
C528 C525 1.463 . S
C528 N532 1.427 . S
C529 H519 0.929 . S
C529 C527 1.433 . S
C529 N532 1.384 . S
C530 H521 0.929 . S
C530 C522 1.378 . S
C530 C525 1.350 . S
C531 H518 0.929 . S
C531 C523 1.433 . S
C531 N533 1.384 . S
N532 C528 1.427 . S
N532 C529 1.384 . S
N533 C525 1.427 . S
N533 C531 1.384 . S
H534 C540 0.930 . S
H535 C544 0.930 . S
H536 C549 0.929 . S
H537 C547 0.929 . S
H538 C542 0.929 . S
H539 C548 0.929 . S
C540 H534 0.930 . S
C540 C541 1.367 . S
C540 C548 1.378 . S
C541 C540 1.367 . S
C541 C549 1.433 . S
C542 H538 0.929 . S
C542 C544 1.378 . S
C542 C546 1.350 . S
C543 C546 1.463 . S
C543 C548 1.350 . S
C543 N551 1.427 . S
C544 H535 0.930 . S
C544 C542 1.378 . S
C544 C545 1.367 . S
C545 C544 1.367 . S
C545 C547 1.433 . S
C546 C542 1.350 . S
C546 C543 1.463 . S
C546 N550 1.427 . S
C547 H537 0.929 . S
C547 C545 1.433 . S
C547 N550 1.384 . S
C548 H539 0.929 . S
C548 C540 1.378 . S
C548 C543 1.350 . S
C549 H536 0.929 . S
C549 C541 1.433 . S
C549 N551 1.384 . S
N550 C546 1.427 . S
N550 C547 1.384 . S
N551 C543 1.427 . S
N551 C549 1.384 . S
H552 C558 0.930 . S
H553 C562 0.930 . S
H554 C567 0.929 . S
H555 C565 0.929 . S
H556 C560 0.929 . S
H557 C566 0.929 . S
C558 H552 0.930 . S
C558 C559 1.367 . S
C558 C566 1.378 . S
C559 C558 1.367 . S
C559 C567 1.433 . S
C560 H556 0.929 . S
C560 C562 1.378 . S
C560 C564 1.350 . S
C561 C564 1.463 . S
C561 C566 1.350 . S
C561 N569 1.427 . S
C562 H553 0.930 . S
C562 C560 1.378 . S
C562 C563 1.367 . S
C563 C562 1.367 . S
C563 C565 1.433 . S
C564 C560 1.350 . S
C564 C561 1.463 . S
C564 N568 1.427 . S
C565 H555 0.929 . S
C565 C563 1.433 . S
C565 N568 1.384 . S
C566 H557 0.929 . S
C566 C558 1.378 . S
C566 C561 1.350 . S
C567 H554 0.929 . S
C567 C559 1.433 . S
C567 N569 1.384 . S
N568 C564 1.427 . S
N568 C565 1.384 . S
N569 C561 1.427 . S
N569 C567 1.384 . S
H570 C576 0.930 . S
H571 C580 0.930 . S
H572 C585 0.929 . S
H573 C583 0.929 . S
H574 C578 0.929 . S
H575 C584 0.929 . S
C576 H570 0.930 . S
C576 C577 1.367 . S
C576 C584 1.378 . S
C577 C576 1.367 . S
C577 C585 1.433 . S
C578 H574 0.929 . S
C578 C580 1.378 . S
C578 C582 1.350 . S
C579 C582 1.463 . S
C579 C584 1.350 . S
C579 N587 1.427 . S
C580 H571 0.930 . S
C580 C578 1.378 . S
C580 C581 1.367 . S
C581 C580 1.367 . S
C581 C583 1.433 . S
C582 C578 1.350 . S
C582 C579 1.463 . S
C582 N586 1.427 . S
C583 H573 0.929 . S
C583 C581 1.433 . S
C583 N586 1.384 . S
C584 H575 0.929 . S
C584 C576 1.378 . S
C584 C579 1.350 . S
C585 H572 0.929 . S
C585 C577 1.433 . S
C585 N587 1.384 . S
N586 C582 1.427 . S
N586 C583 1.384 . S
N587 C579 1.427 . S
N587 C585 1.384 . S
H588 C594 0.930 . S
H589 C598 0.930 . S
H590 C603 0.929 . S
H591 C601 0.929 . S
H592 C596 0.929 . S
H593 C602 0.929 . S
C594 H588 0.930 . S
C594 C595 1.367 . S
C594 C602 1.378 . S
C595 C594 1.367 . S
C595 C603 1.433 . S
C596 H592 0.929 . S
C596 C598 1.378 . S
C596 C600 1.350 . S
C597 C600 1.463 . S
C597 C602 1.350 . S
C597 N605 1.427 . S
C598 H589 0.930 . S
C598 C596 1.378 . S
C598 C599 1.367 . S
C599 C598 1.367 . S
C599 C601 1.433 . S
C600 C596 1.350 . S
C600 C597 1.463 . S
C600 N604 1.427 . S
C601 H591 0.929 . S
C601 C599 1.433 . S
C601 N604 1.384 . S
C602 H593 0.929 . S
C602 C594 1.378 . S
C602 C597 1.350 . S
C603 H590 0.929 . S
C603 C595 1.433 . S
C603 N605 1.384 . S
N604 C600 1.427 . S
N604 C601 1.384 . S
N605 C597 1.427 . S
N605 C603 1.384 . S
H606 C612 0.930 . S
H607 C616 0.930 . S
H608 C621 0.929 1_554 S
H609 C619 0.929 . S
H610 C614 0.929 . S
H611 C620 0.929 . S
C612 H606 0.930 . S
C612 C613 1.367 . S
C612 C620 1.378 . S
C613 C612 1.367 . S
C613 C621 1.433 . S
C614 H610 0.929 . S
C614 C616 1.378 . S
C614 C618 1.350 . S
C615 C618 1.463 . S
C615 C620 1.350 . S
C615 N623 1.427 . S
C616 H607 0.930 . S
C616 C614 1.378 . S
C616 C617 1.367 . S
C617 C616 1.367 . S
C617 C619 1.433 . S
C618 C614 1.350 . S
C618 C615 1.463 . S
C618 N622 1.427 . S
C619 H609 0.929 . S
C619 C617 1.433 . S
C619 N622 1.384 . S
C620 H611 0.929 . S
C620 C612 1.378 . S
C620 C615 1.350 . S
C621 H608 0.929 1_556 S
C621 C613 1.433 . S
C621 N623 1.384 . S
N622 C618 1.427 . S
N622 C619 1.384 . S
N623 C615 1.427 . S
N623 C621 1.384 . S
C199 C7 1.360 . S
C203 N93 1.375 . S
C217 C37 1.298 . S
C221 N106 1.313 . S
C235 C54 1.285 . S
C239 N115 1.294 . S
C257 N132 1.387 . S
C253 C87 1.368 . S
C275 N145 1.339 . S
C271 C30 1.337 . S
C289 C51 1.377 . S
C293 N154 1.399 . S
C307 C84 1.323 . S
C311 N167 1.331 . S
C325 C10 1.279 . S
C329 N184 1.275 . S
C343 C59 1.381 . S
C347 N180 1.399 . S
C365 N141 1.281 . S
C361 C74 1.280 . S
C383 N158 1.320 . S
C379 C18 1.319 . S
C397 C32 1.367 . S
C401 N171 1.376 . S
C419 N102 1.386 . S
C415 C73 1.375 . S
C433 C15 1.372 . S
C437 N119 1.395 . S
C455 N128 1.348 . S
C451 C43 1.342 . S
C473 N89 1.277 . S
C469 C62 1.273 . S
C491 N168 1.405 . S
C487 C21 1.403 . S
C509 N181 1.384 . S
C505 C29 1.377 . S
C523 C52 1.354 . S
C527 N142 1.354 . S
C545 N155 1.394 . S
C541 C81 1.393 . S
C563 N116 1.374 . S
C559 C40 1.377 . S
C577 C65 1.402 . S
C581 N129 1.399 . S
C599 N90 1.358 . S
C595 C76 1.357 . S
C617 N103 1.388 . S
C613 C8 1.391 . S
