# Generated by pormake.
# Topology zzz, (3,6)-cn, num edge types: 1
# Building blocks:
#     Node 0, Type 0, BuildingBlock: ESEHIV_clean_linker_0, # of connection points: 3
#     Node 1, Type 0, BuildingBlock: ESEHIV_clean_linker_0, # of connection points: 3
#     Node 2, Type 0, BuildingBlock: ESEHIV_clean_linker_0, # of connection points: 3
#     Node 3, Type 0, BuildingBlock: ESEHIV_clean_linker_0, # of connection points: 3
#     Node 4, Type 0, BuildingBlock: ESEHIV_clean_linker_0, # of connection points: 3
#     Node 5, Type 0, BuildingBlock: ESEHIV_clean_linker_0, # of connection points: 3
#     Node 6, Type 0, BuildingBlock: ESEHIV_clean_linker_0, # of connection points: 3
#     Node 7, Type 0, BuildingBlock: ESEHIV_clean_linker_0, # of connection points: 3
#     Node 8, Type 1, BuildingBlock: PAMTOO_clean_sbu_0, # of connection points: 6
#     Node 9, Type 1, BuildingBlock: PAMTOO_clean_sbu_0, # of connection points: 6
#     Node 10, Type 1, BuildingBlock: PAMTOO_clean_sbu_0, # of connection points: 6
#     Node 11, Type 1, BuildingBlock: PAMTOO_clean_sbu_0, # of connection points: 6
#     Edge 12, Type (0, 1), BuildingBlock: KIFKEQ_clean_linker_1, # of connection points: 2
#     Edge 13, Type (0, 1), BuildingBlock: KIFKEQ_clean_linker_1, # of connection points: 2
#     Edge 14, Type (0, 1), BuildingBlock: KIFKEQ_clean_linker_1, # of connection points: 2
#     Edge 15, Type (0, 1), BuildingBlock: KIFKEQ_clean_linker_1, # of connection points: 2
#     Edge 16, Type (0, 1), BuildingBlock: KIFKEQ_clean_linker_1, # of connection points: 2
#     Edge 17, Type (0, 1), BuildingBlock: KIFKEQ_clean_linker_1, # of connection points: 2
#     Edge 18, Type (0, 1), BuildingBlock: KIFKEQ_clean_linker_1, # of connection points: 2
#     Edge 19, Type (0, 1), BuildingBlock: KIFKEQ_clean_linker_1, # of connection points: 2
#     Edge 20, Type (0, 1), BuildingBlock: KIFKEQ_clean_linker_1, # of connection points: 2
#     Edge 21, Type (0, 1), BuildingBlock: KIFKEQ_clean_linker_1, # of connection points: 2
#     Edge 22, Type (0, 1), BuildingBlock: KIFKEQ_clean_linker_1, # of connection points: 2
#     Edge 23, Type (0, 1), BuildingBlock: KIFKEQ_clean_linker_1, # of connection points: 2
#     Edge 24, Type (0, 1), BuildingBlock: KIFKEQ_clean_linker_1, # of connection points: 2
#     Edge 25, Type (0, 1), BuildingBlock: KIFKEQ_clean_linker_1, # of connection points: 2
#     Edge 26, Type (0, 1), BuildingBlock: KIFKEQ_clean_linker_1, # of connection points: 2
#     Edge 27, Type (0, 1), BuildingBlock: KIFKEQ_clean_linker_1, # of connection points: 2
#     Edge 28, Type (0, 1), BuildingBlock: KIFKEQ_clean_linker_1, # of connection points: 2
#     Edge 29, Type (0, 1), BuildingBlock: KIFKEQ_clean_linker_1, # of connection points: 2
#     Edge 30, Type (0, 1), BuildingBlock: KIFKEQ_clean_linker_1, # of connection points: 2
#     Edge 31, Type (0, 1), BuildingBlock: KIFKEQ_clean_linker_1, # of connection points: 2
#     Edge 32, Type (0, 1), BuildingBlock: KIFKEQ_clean_linker_1, # of connection points: 2
#     Edge 33, Type (0, 1), BuildingBlock: KIFKEQ_clean_linker_1, # of connection points: 2
#     Edge 34, Type (0, 1), BuildingBlock: KIFKEQ_clean_linker_1, # of connection points: 2
#     Edge 35, Type (0, 1), BuildingBlock: KIFKEQ_clean_linker_1, # of connection points: 2
# Relax obj value: 0.386
# Max RMSD: 0.286
# Mean RMSD: 0.222
data_MOF--net-zzz--node1-PAMTOO_clean_sbu_0--node2-ESEHIV_clean_linker_0--edge1-KIFKEQ_clean_linker_1
_symmetry_space_group_name_H-M    P1
_symmetry_Int_Tables_number       1
_symmetry_cell_setting            triclinic
loop_
_symmetry_equiv_pos_as_xyz
'x, y, z'
_cell_length_a     51.112889
_cell_length_b     43.34167
_cell_length_c     16.471328
_cell_angle_alpha  91.69923
_cell_angle_beta   79.728183
_cell_angle_gamma 84.479807
loop_
_atom_site_label
_atom_site_type_symbol
_atom_site_fract_x
_atom_site_fract_y
_atom_site_fract_z
_atom_type_partial_charge
H0 H 0.82563 0.55524 0.55692 0.0
H1 H 0.76551 0.56913 0.40608 0.0
H2 H 0.76533 0.49257 0.56773 0.0
C3 C 0.80704 0.54966 0.53984 0.0
C4 C 0.79586 0.52363 0.57347 0.0
C5 C 0.79714 0.56542 0.47676 0.0
C6 C 0.77347 0.55699 0.45441 0.0
C7 C 0.7616 0.5309 0.48682 0.0
C8 C 0.77338 0.51357 0.54521 0.0
H9 H 0.06623 0.7693 0.37375 0.0
H10 H 0.05819 0.69048 0.21989 0.0
H11 H 0.99789 0.71802 0.43453 0.0
C12 C 0.05586 0.74936 0.36242 0.0
C13 C 0.03177 0.7452 0.41499 0.0
C14 C 0.06525 0.73021 0.29113 0.0
C15 C 0.05109 0.70535 0.27513 0.0
C16 C 0.02697 0.70056 0.32668 0.0
C17 C 1.01691 0.72099 0.39596 0.0
H18 H 0.71566 0.06488 0.35813 0.0
H19 H 0.78891 0.06661 0.18566 0.0
H20 H 0.78374 1.00065 0.37808 0.0
C21 C 0.73655 0.05641 0.33765 0.0
C22 C 0.74783 0.03189 0.37797 0.0
C23 C 0.75105 0.06869 0.26805 0.0
C24 C 0.77773 0.05712 0.23984 0.0
C25 C 0.78998 0.03299 0.27957 0.0
C26 C 0.77474 0.01973 0.34804 0.0
H27 H 0.49164 0.68742 0.35333 0.0
H28 H 0.52515 0.77434 0.35492 0.0
H29 H 0.48709 0.74739 0.15305 0.0
C30 C 0.49567 0.70895 0.32387 0.0
C31 C 0.48783 0.71473 0.2483 0.0
C32 C 0.50989 0.72957 0.36085 0.0
C33 C 0.51456 0.75816 0.32516 0.0
C34 C 0.5051 0.76566 0.25145 0.0
C35 C 0.49244 0.74321 0.21277 0.0
H36 H 0.21205 0.42306 0.097 0.0
H37 H 0.28425 0.41974 0.19805 0.0
H38 H 0.27232 0.48181 1.00568 0.0
C39 C 0.23202 0.42947 0.09652 0.0
C40 C 0.24134 0.45115 0.03975 0.0
C41 C 0.24642 0.41928 0.15767 0.0
C42 C 0.27222 0.42826 0.15394 0.0
C43 C 0.28148 0.45142 0.10174 0.0
C44 C 0.26579 0.46331 0.04469 0.0
H45 H 0.9591 0.26003 0.12882 0.0
H46 H 0.97134 0.31506 0.33741 0.0
H47 H 0.03386 0.29833 0.12546 0.0
C48 C 0.97137 0.27424 0.15805 0.0
C49 C 0.99763 0.27702 0.1176 0.0
C50 C 0.96206 0.28591 0.23959 0.0
C51 C 0.97773 0.30564 0.27461 0.0
C52 C 1.00299 0.31143 0.23227 0.0
C53 C 1.01349 0.29603 0.15508 0.0
H54 H 0.31621 0.99223 0.29008 0.0
H55 H 0.23835 0.98909 0.43564 0.0
H56 H 0.24634 0.01986 0.18588 0.0
C57 C 0.29464 0.99621 0.296 0.0
C58 C 0.28356 0.00668 0.22871 0.0
C59 C 0.27846 0.98986 0.36996 0.0
C60 C 0.25073 0.99424 0.37797 0.0
C61 C 0.23877 0.0055 0.31283 0.0
C62 C 0.25528 0.01175 0.23722 0.0
H63 H 0.54921 0.30889 0.26296 0.0
H64 H 0.50748 0.2288 0.23492 0.0
H65 H 0.54717 0.23926 0.44301 0.0
C66 C 0.54384 0.28643 0.28369 0.0
C67 C 0.55046 0.27591 0.35764 0.0
C68 C 0.52864 0.26974 0.23858 0.0
C69 C 0.51983 0.24151 0.26809 0.0
C70 C 0.52666 0.23039 0.34233 0.0
C71 C 0.54212 0.24765 0.38579 0.0
Dy72 Dy 0.99246 0.02322 0.71473 0.0
Dy73 Dy 0.03133 0.99807 0.84044 0.0
C74 C 0.05565 0.01102 0.65346 0.0
O75 O 1.00383 0.9735 0.67368 0.0
O76 O 1.01638 0.95522 0.79215 0.0
O77 O 0.98323 0.03836 0.59808 0.0
O78 O 0.95145 0.03501 0.70248 0.0
O79 O 0.99155 0.0144 0.91937 0.0
O80 O 0.96804 1.00174 0.82132 0.0
O81 O 0.03386 0.0493 0.84259 0.0
O82 O 0.99676 0.06596 0.7885 0.0
O83 O 0.03752 0.97411 0.94915 0.0
O84 O 0.07031 0.99469 0.87543 0.0
C85 C 1.00948 0.95041 0.71977 0.0
O86 O 0.03426 0.03032 0.65135 0.0
O87 O 0.05577 0.99141 0.71276 0.0
C88 C 0.94518 0.07555 0.6156 0.0
C89 C 0.92001 0.13478 0.59403 0.0
C90 C 0.94735 0.1307 0.59934 0.0
C91 C 0.95975 0.10143 0.61061 0.0
C92 C 0.91781 0.07954 0.61285 0.0
C93 C 0.90529 0.10889 0.60243 0.0
C94 C 0.95779 0.0446 0.6282 0.0
C95 C 0.96896 0.00787 0.89909 0.0
C96 C 1.01648 0.07156 0.82635 0.0
C97 C 0.08076 0.94866 0.9406 0.0
C98 C 0.11028 0.89304 0.96884 0.0
C99 C 0.09041 0.89283 0.91961 0.0
C100 C 0.07584 0.92043 0.9054 0.0
C101 C 0.10177 0.94933 0.98455 0.0
C102 C 0.11653 0.92176 0.99825 0.0
C103 C 0.06309 0.97708 0.9365 0.0
H104 H 0.95955 0.14986 0.59156 0.0
H105 H 0.98081 0.09899 0.61423 0.0
H106 H 0.90614 0.05987 0.61839 0.0
H107 H 0.88419 0.1112 0.59966 0.0
H108 H 0.08478 0.87122 0.89669 0.0
H109 H 0.05985 0.91955 0.87039 0.0
H110 H 0.10604 0.97104 0.01115 0.0
H111 H 0.13199 0.92278 0.03522 0.0
Dy112 Dy 0.51431 0.97589 0.73772 0.0
Dy113 Dy 0.52452 0.02649 0.87699 0.0
C114 C 0.51419 0.04788 0.69967 0.0
O115 O 0.55604 0.98679 0.6899 0.0
O116 O 0.56586 0.00838 0.8089 0.0
O117 O 0.50453 0.96225 0.62015 0.0
O118 O 0.51281 0.92749 0.7059 0.0
O119 O 0.5159 0.98288 0.94186 0.0
O120 O 0.53368 0.95044 0.83118 0.0
O121 O 0.4797 0.02978 0.89223 0.0
O122 O 0.47495 0.9839 0.82567 0.0
O123 O 0.54051 0.03618 0.9862 0.0
O124 O 0.5198 0.07347 0.9299 0.0
C125 C 0.57331 0.9971 0.73192 0.0
O126 O 0.50292 0.02234 0.68982 0.0
O127 O 0.52767 0.05142 0.75953 0.0
C128 C 0.47702 0.92193 0.63666 0.0
C129 C 0.42374 0.91325 0.62852 0.0
C130 C 0.44327 0.91177 0.55603 0.0
C131 C 0.46972 0.91615 0.56015 0.0
C132 C 0.45805 0.92097 0.70947 0.0
C133 C 0.43164 0.91657 0.70542 0.0
C134 C 0.50289 0.93353 0.63996 0.0
C135 C 0.52558 0.95507 0.91102 0.0
C136 C 0.46476 0.0083 0.87457 0.0
C137 C 0.5559 0.08525 0.99255 0.0
C138 C 0.59953 0.11559 0.02462 0.0
C139 C 0.60293 0.09285 0.95968 0.0
C140 C 0.58127 0.0779 0.94363 0.0
C141 C 0.55194 0.1094 0.05319 0.0
C142 C 0.57355 0.12462 0.06883 0.0
C143 C 0.53421 0.06607 0.98559 0.0
H144 H 0.43776 0.90965 0.49573 0.0
H145 H 0.48405 0.917 0.50341 0.0
H146 H 0.46321 0.92542 0.76942 0.0
H147 H 0.41709 0.91754 0.76223 0.0
H148 H 0.62259 0.08498 0.92485 0.0
H149 H 0.58461 0.05943 0.89603 0.0
H150 H 0.53237 0.11556 0.0909 0.0
H151 H 0.57013 0.14242 0.11822 0.0
Dy152 Dy 0.54417 0.50904 0.84153 0.0
Dy153 Dy 0.4926 0.49227 0.74736 0.0
C154 C 0.51088 0.45032 0.89252 0.0
O155 O 0.55692 0.46618 0.76071 0.0
O156 O 0.53173 0.47944 0.66318 0.0
O157 O 0.55579 0.52756 0.95091 0.0
O158 O 0.58641 0.51173 0.84483 0.0
O159 O 0.50333 0.53879 0.70536 0.0
O160 O 0.5459 0.54036 0.73438 0.0
O161 O 0.47494 0.51496 0.87119 0.0
O162 O 0.50937 0.54467 0.87703 0.0
O163 O 0.45424 0.50524 0.71279 0.0
O164 O 0.47508 0.45971 0.67526 0.0
C165 C 0.55146 0.46234 0.68645 0.0
O166 O 0.52473 0.47214 0.91539 0.0
O167 O 0.49935 0.45219 0.8271 0.0
C168 C 0.59946 0.51252 0.97904 0.0
C169 C 0.63309 0.50363 0.09882 0.0
C170 C 0.60611 0.49753 0.11647 0.0
C171 C 0.58952 0.50189 0.05742 0.0
C172 C 0.62661 0.51739 0.96018 0.0
C173 C 0.64322 0.51292 0.01903 0.0
C174 C 0.58137 0.52294 0.92128 0.0
C175 C 0.52583 0.55181 0.69992 0.0
C176 C 0.48424 0.53971 0.8981 0.0
C177 C 0.44274 0.47921 0.59506 0.0
C178 C 0.41568 0.47959 0.45788 0.0
C179 C 0.42873 0.50531 0.47793 0.0
C180 C 0.44206 0.50516 0.54583 0.0
C181 C 0.43022 0.45344 0.57431 0.0
C182 C 0.41687 0.4536 0.50707 0.0
C183 C 0.45405 0.47896 0.67229 0.0
H184 H 0.59764 0.48988 0.17659 0.0
H185 H 0.56868 0.49795 0.07426 0.0
H186 H 0.63477 0.52597 0.90083 0.0
H187 H 0.66374 0.51821 1.00308 0.0
H188 H 0.42861 0.52565 0.44135 0.0
H189 H 0.45145 0.52546 0.56048 0.0
H190 H 0.43011 0.4333 0.6118 0.0
H191 H 0.40671 0.43357 0.4955 0.0
Dy192 Dy 0.02003 0.51812 0.76041 0.0
Dy193 Dy 1.00819 0.46302 0.88552 0.0
C194 C 0.0298 0.44704 0.69297 0.0
O195 O 0.98153 0.50227 0.73796 0.0
O196 O 0.96769 0.48307 0.86412 0.0
O197 O 1.01613 0.53984 0.64623 0.0
O198 O 0.03838 0.56024 0.72975 0.0
O199 O 1.00735 0.50699 0.96101 0.0
O200 O 0.99459 0.54242 0.87266 0.0
O201 O 0.05289 0.45904 0.85075 0.0
O202 O 0.05588 0.50986 0.8222 0.0
O203 O 0.01746 0.44024 0.99346 0.0
O204 O 0.98558 0.42595 0.93563 0.0
C205 C 0.96265 0.4924 0.79269 0.0
O206 O 0.03879 0.4745 0.68807 0.0
O207 O 1.0149 0.4388 0.76086 0.0
C208 C 0.05941 0.5515 0.59033 0.0
C209 C 0.10509 0.51448 0.50858 0.0
C210 C 0.08118 0.51532 0.47769 0.0
C211 C 0.05855 0.534 0.51766 0.0
C212 C 0.08435 0.55414 0.61334 0.0
C213 C 0.10699 0.53555 0.57313 0.0
C214 C 0.03481 0.55768 0.6534 0.0
C215 C 0.99711 0.53487 0.94753 0.0
C216 C 0.06683 0.48304 0.84164 0.0
C217 C 0.97559 0.43965 0.07883 0.0
C218 C 0.94448 0.48812 0.17914 0.0
C219 C 0.96953 0.47694 0.19603 0.0
C220 C 0.98502 0.45274 0.14613 0.0
C221 C 0.94879 0.44756 0.0716 0.0
C222 C 0.93353 0.47187 0.12059 0.0
C223 C 0.995 0.42761 1.00423 0.0
H224 H 0.07951 0.50005 0.42598 0.0
H225 H 0.03978 0.53199 0.49708 0.0
H226 H 0.08585 0.56785 0.66808 0.0
H227 H 0.12534 0.53576 0.59733 0.0
H228 H 0.97807 0.48866 0.24251 0.0
H229 H 1.00545 0.44681 0.15425 0.0
H230 H 0.94052 0.43752 0.02197 0.0
H231 H 0.91373 0.4793 0.10897 0.0
H232 H 0.20552 0.05818 0.36523 0.0
H233 H 0.20548 0.9608 0.30579 0.0
H234 H 0.15897 0.06034 0.43709 0.0
H235 H 0.159 0.96275 0.37658 0.0
H236 H 0.09883 0.96723 0.6226 0.0
H237 H 0.14014 0.96755 0.52352 0.0
H238 H 0.11064 0.05503 0.43766 0.0
H239 H 0.06886 0.05475 0.53793 0.0
C240 C 0.19511 0.03759 0.36404 0.0
C241 C 0.20899 0.00948 0.32822 0.0
C242 C 0.16846 0.03871 0.40595 0.0
C243 C 0.1552 0.0116 0.41403 0.0
C244 C 0.1686 0.984 0.37295 0.0
C245 C 0.19512 0.98295 0.33095 0.0
C246 C 0.10092 0.98652 0.58239 0.0
C247 C 0.08033 0.01098 0.58875 0.0
C248 C 0.12467 0.98656 0.52476 0.0
C249 C 0.12885 0.01121 0.4717 0.0
C250 C 0.10822 0.03568 0.47751 0.0
C251 C 0.08419 0.03545 0.53482 0.0
H252 H 0.53952 0.16957 0.28516 0.0
H253 H 0.49336 0.22739 0.48818 0.0
H254 H 0.53305 0.12353 0.36763 0.0
H255 H 0.48679 0.18184 0.57005 0.0
H256 H 0.52319 0.10805 0.7242 0.0
H257 H 0.52155 0.15013 0.63048 0.0
H258 H 0.49954 0.0885 0.44915 0.0
H259 H 0.501 0.04587 0.54415 0.0
C260 C 0.52717 0.17224 0.34614 0.0
C261 C 0.51689 0.20198 0.38036 0.0
C262 C 0.52357 0.14596 0.39354 0.0
C263 C 0.5098 0.14912 0.47598 0.0
C264 C 0.49787 0.17866 0.50737 0.0
C265 C 0.5014 0.20471 0.46024 0.0
C266 C 0.51787 0.10332 0.66461 0.0
C267 C 0.51218 0.0735 0.64199 0.0
C268 C 0.51676 0.12759 0.61093 0.0
C269 C 0.5102 0.12279 0.53246 0.0
C270 C 0.50465 0.09294 0.50917 0.0
C271 C 0.50536 0.0686 0.56374 0.0
H272 H 0.2816 0.50164 0.20292 0.0
H273 H 0.33415 0.43007 0.05296 0.0
H274 H 0.31696 0.51177 0.27837 0.0
H275 H 0.37033 0.44105 0.12497 0.0
H276 H 0.41026 0.43102 0.35241 0.0
H277 H 0.38105 0.42965 0.25202 0.0
H278 H 0.3575 0.52791 0.2992 0.0
H279 H 0.38547 0.52876 0.40442 0.0
C280 C 0.30128 0.4893 0.18295 0.0
C281 C 0.30523 0.4655 0.12086 0.0
C282 C 0.32166 0.4949 0.22679 0.0
C283 C 0.34667 0.47688 0.20951 0.0
C284 C 0.35125 0.45492 0.1421 0.0
C285 C 0.33071 0.44906 0.09912 0.0
C286 C 0.39878 0.45239 0.34208 0.0
C287 C 0.4001 0.47989 0.38835 0.0
C288 C 0.38223 0.45174 0.28282 0.0
C289 C 0.36657 0.47866 0.26662 0.0
C290 C 0.36879 0.50651 0.31029 0.0
C291 C 0.38521 0.5071 0.37027 0.0
H292 H 0.03796 0.29292 0.33156 0.0
H293 H 1.00063 0.37425 0.23741 0.0
H294 H 0.05195 0.32539 0.43704 0.0
H295 H 1.01436 0.40687 0.34275 0.0
H296 H 0.04805 0.46052 0.53227 0.0
H297 H 0.04989 0.42751 0.40797 0.0
H298 H 0.02377 0.3528 0.55987 0.0
H299 H 0.0221 0.38556 0.68362 0.0
C300 C 0.03378 0.3179 0.3314 0.0
C301 C 0.01863 0.33121 0.27582 0.0
C302 C 0.04143 0.33647 0.39239 0.0
C303 C 0.03401 0.36871 0.39906 0.0
C304 C 0.02064 0.3822 0.33907 0.0
C305 C 1.01286 0.36358 0.27844 0.0
C306 C 0.04325 0.43683 0.53919 0.0
C307 C 0.03478 0.42576 0.6181 0.0
C308 C 0.04415 0.41798 0.46784 0.0
C309 C 0.0369 0.38751 0.47378 0.0
C310 C 0.0298 0.37599 0.55282 0.0
C311 C 0.02866 0.39489 0.62398 0.0
H312 H 0.83314 0.06368 0.29038 0.0
H313 H 0.81064 0.98032 0.1849 0.0
H314 H 0.87765 0.05443 0.20496 0.0
H315 H 0.85538 0.97058 0.09935 0.0
H316 H 0.91986 0.99215 0.87769 0.0
H317 H 0.87886 0.99373 0.97954 0.0
H318 H 0.92055 0.02379 0.16898 0.0
H319 H 0.96169 0.02259 0.06631 0.0
C320 C 0.83813 0.04269 0.25104 0.0
C321 C 0.81856 0.02242 0.24552 0.0
C322 C 0.86366 0.0374 0.20162 0.0
C323 C 0.87027 0.01186 0.14424 0.0
C324 C 0.85102 0.99072 0.14185 0.0
C325 C 0.82549 0.99595 0.19186 0.0
C326 C 0.92044 0.99891 0.94112 0.0
C327 C 0.94424 0.00736 0.9633 0.0
C328 C 0.89684 0.99957 0.99999 0.0
C329 C 0.89617 0.00882 0.0831 0.0
C330 C 0.92011 0.01681 0.10562 0.0
C331 C 0.9438 0.01601 0.04666 0.0
H332 H 0.47049 0.79955 0.17066 0.0
H333 H 0.54767 0.8015 0.24262 0.0
H334 H 0.47804 0.84539 0.09136 0.0
H335 H 0.55433 0.84881 0.16607 0.0
H336 H 0.52238 0.95566 0.07966 0.0
H337 H 0.51917 0.91116 0.16895 0.0
H338 H 0.52434 0.84963 0.95505 0.0
H339 H 0.52826 0.8936 0.86559 0.0
C340 C 0.48908 0.80968 0.16995 0.0
C341 C 0.50871 0.79615 0.21202 0.0
C342 C 0.49323 0.83615 0.1249 0.0
C343 C 0.51681 0.85042 0.12219 0.0
C344 C 0.53595 0.83816 0.16736 0.0
C345 C 0.53202 0.81117 0.21153 0.0
C346 C 0.5232 0.93259 0.05161 0.0
C347 C 0.52559 0.92823 0.96539 0.0
C348 C 0.52147 0.90718 0.10271 0.0
C349 C 0.52157 0.87706 0.06867 0.0
C350 C 0.52432 0.87264 0.98266 0.0
C351 C 0.5266 0.89785 0.93154 0.0
H352 H 0.75856 0.47581 0.40419 0.0
H353 H 0.71429 0.56462 0.48149 0.0
H354 H 0.72597 0.46503 0.3168 0.0
H355 H 0.68193 0.55422 0.39444 0.0
H356 H 0.61859 0.52215 0.2632 0.0
H357 H 0.64688 0.52371 0.36751 0.0
H358 H 0.71495 0.4848 0.18753 0.0
H359 H 0.68647 0.48237 0.08367 0.0
C360 C 0.7414 0.49258 0.4045 0.0
C361 C 0.73885 0.52093 0.45037 0.0
C362 C 0.72292 0.48666 0.35347 0.0
C363 C 0.70132 0.50884 0.34772 0.0
C364 C 0.69804 0.5364 0.39755 0.0
C365 C 0.7166 0.54241 0.4477 0.0
C366 C 0.63947 0.51332 0.24603 0.0
C367 C 0.65014 0.50223 0.16442 0.0
C368 C 0.6558 0.51452 0.30589 0.0
C369 C 0.68334 0.50455 0.28627 0.0
C370 C 0.69384 0.49245 0.20545 0.0
C371 C 0.67752 0.4914 0.14541 0.0
H372 H 0.04115 0.63896 0.32921 0.0
H373 H 0.98157 0.7053 0.2606 0.0
H374 H 0.02631 0.59814 0.24911 0.0
H375 H 0.96617 0.66429 0.18045 0.0
H376 H 0.98721 0.59808 0.93986 0.0
H377 H 0.98645 0.63728 0.04978 0.0
H378 H 0.99345 0.56509 0.22227 0.0
H379 H 0.9952 0.52599 0.11175 0.0
C380 C 0.02404 0.64442 0.29975 0.0
C381 C 1.0123 0.67511 0.30168 0.0
C382 C 1.0155 0.62106 0.25355 0.0
C383 C 0.99516 0.6279 0.20737 0.0
C384 C 0.9821 0.65827 0.21436 0.0
C385 C 0.9906 0.68167 0.26118 0.0
C386 C 0.98809 0.59058 1.00154 0.0
C387 C 0.99173 0.55884 0.01655 0.0
C388 C 0.98747 0.61311 0.06493 0.0
C389 C 0.99028 0.60441 0.14493 0.0
C390 C 0.99182 0.57267 0.16114 0.0
C391 C 0.99268 0.55021 0.09771 0.0
H392 H 0.92777 0.31147 0.38197 0.0
H393 H 0.94479 0.22827 0.22071 0.0
H394 H 0.90197 0.28226 0.48693 0.0
H395 H 0.91779 0.20111 0.32051 0.0
H396 H 0.88402 0.14467 0.49004 0.0
H397 H 0.87695 0.19115 0.41514 0.0
H398 H 0.92339 0.23955 0.56249 0.0
H399 H 0.92906 0.19365 0.64136 0.0
C400 C 0.92556 0.28747 0.36726 0.0
C401 C 0.93939 0.27237 0.29259 0.0
C402 C 0.91038 0.27093 0.42721 0.0
C403 C 0.908 0.23932 0.41238 0.0
C404 C 0.91883 0.22553 0.33401 0.0
C405 C 0.93453 0.24157 0.27561 0.0
C406 C 0.89155 0.1656 0.50978 0.0
C407 C 0.90819 0.165 0.56929 0.0
C408 C 0.88749 0.19232 0.46651 0.0
C409 C 0.9005 0.21855 0.48073 0.0
C410 C 0.91337 0.21958 0.54921 0.0
C411 C 0.91709 0.193 0.59341 0.0
H412 H 0.31036 0.01912 0.45399 0.0
H413 H 0.27566 0.93299 0.43437 0.0
H414 H 0.33861 0.99589 0.54523 0.0
H415 H 0.30427 0.90927 0.52559 0.0
H416 H 0.38465 0.95475 0.71548 0.0
H417 H 0.34131 0.97058 0.67981 0.0
H418 H 0.355 0.89714 0.48949 0.0
H419 H 0.39822 0.88076 0.52632 0.0
C420 C 0.30832 0.99544 0.47146 0.0
C421 C 0.29109 0.97769 0.43756 0.0
C422 C 0.3243 0.98216 0.52399 0.0
C423 C 0.3236 0.95075 0.54243 0.0
C424 C 0.30514 0.93351 0.51228 0.0
C425 C 0.2888 0.94702 0.46055 0.0
C426 C 0.37797 0.94108 0.66844 0.0
C427 C 0.39504 0.91682 0.62256 0.0
C428 C 0.3532 0.95032 0.64776 0.0
C429 C 0.34506 0.93542 0.58109 0.0
C430 C 0.36077 0.90901 0.54132 0.0
C431 C 0.38562 0.89982 0.5618 0.0
H432 H 0.53804 0.28666 0.52515 0.0
H433 H 0.59038 0.31309 0.30786 0.0
H434 H 0.54954 0.32991 0.60421 0.0
H435 H 0.60101 0.35729 0.38701 0.0
H436 H 0.555 0.45316 0.52037 0.0
H437 H 0.56577 0.40373 0.44129 0.0
H438 H 0.58554 0.35918 0.65663 0.0
H439 H 0.5751 0.40877 0.73582 0.0
C440 C 0.55276 0.30095 0.49484 0.0
C441 C 0.56285 0.29676 0.40966 0.0
C442 C 0.55932 0.32583 0.54028 0.0
C443 C 0.57587 0.34713 0.50128 0.0
C444 C 0.58796 0.34134 0.41815 0.0
C445 C 0.58172 0.31617 0.37293 0.0
C446 C 0.56245 0.43303 0.5501 0.0
C447 C 0.56392 0.43472 0.63435 0.0
C448 C 0.5688 0.40478 0.50472 0.0
C449 C 0.57633 0.37766 0.54317 0.0
C450 C 0.57973 0.37978 0.62577 0.0
C451 C 0.57382 0.40818 0.67086 0.0
H452 H 0.20197 0.38555 0.18233 0.0
H453 H 0.25704 0.42521 0.31717 0.0
H454 H 0.16605 0.39975 0.29818 0.0
H455 H 0.22202 0.43545 0.43519 0.0
H456 H 0.15819 0.52101 0.47061 0.0
H457 H 0.19434 0.48139 0.41797 0.0
H458 H 0.13813 0.41237 0.42936 0.0
H459 H 0.10167 0.45266 0.48155 0.0
C460 C 0.20681 0.39614 0.23739 0.0
C461 C 0.23174 0.40767 0.23601 0.0
C462 C 0.18616 0.40376 0.30487 0.0
C463 C 0.19092 0.42118 0.37311 0.0
C464 C 0.2175 0.42395 0.38079 0.0
C465 C 0.23783 0.41764 0.31224 0.0
C466 C 0.15361 0.49732 0.46302 0.0
C467 C 0.12716 0.49003 0.4786 0.0
C468 C 0.17438 0.47436 0.43394 0.0
C469 C 0.16924 0.44342 0.42016 0.0
C470 C 0.14278 0.4359 0.43895 0.0
C471 C 0.12192 0.45902 0.46787 0.0
H472 H 0.06516 0.73329 0.12665 0.0
H473 H 0.11312 0.75051 0.31089 0.0
H474 H 0.09093 0.76552 0.03293 0.0
H475 H 0.13953 0.78275 0.21577 0.0
H476 H 0.12481 0.83603 0.88609 0.0
H477 H 0.12817 0.78602 0.95011 0.0
H478 H 0.12206 0.83368 0.18806 0.0
H479 H 0.11873 0.88293 0.12496 0.0
C480 C 0.08211 0.74272 0.14573 0.0
C481 C 0.08665 0.74009 0.22698 0.0
C482 C 0.09706 0.76126 0.09158 0.0
C483 C 0.11686 0.77752 0.11764 0.0
C484 C 0.12391 0.77121 0.19468 0.0
C485 C 0.10882 0.75276 0.24914 0.0
C486 C 0.12496 0.8357 0.95172 0.0
C487 C 0.12077 0.8635 1.00067 0.0
C488 C 0.12697 0.80706 0.98834 0.0
C489 C 0.12474 0.80577 0.07452 0.0
C490 C 0.12401 0.83357 0.1215 0.0
C491 C 0.12201 0.86209 0.08504 0.0
H492 H 0.72017 0.12266 0.32382 0.0
H493 H 0.74899 0.06341 0.1048 0.0
H494 H 0.68633 0.14926 0.25569 0.0
H495 H 0.71484 0.08906 0.03749 0.0
H496 H 0.64751 0.12854 0.93282 0.0
H497 H 0.6895 0.13084 0.98308 0.0
H498 H 0.64716 0.12694 0.23372 0.0
H499 H 0.6058 0.1245 0.1842 0.0
C500 C 0.71976 0.11604 0.26015 0.0
C501 C 0.73679 0.09069 0.21992 0.0
C502 C 0.70035 0.13113 0.22123 0.0
C503 C 0.69738 0.12076 0.14196 0.0
C504 C 0.71652 0.0978 0.09842 0.0
C505 C 0.73612 0.08295 0.13706 0.0
C506 C 0.64716 0.1289 0.99878 0.0
C507 C 0.62333 0.12568 0.05427 0.0
C508 C 0.6712 0.13029 0.02754 0.0
C509 C 0.67183 0.12857 0.11231 0.0
C510 C 0.64754 0.12866 0.16808 0.0
C511 C 0.62361 0.12721 0.13945 0.0
H512 H 0.50315 0.65258 0.24367 0.0
H513 H 0.44878 0.71967 0.1511 0.0
H514 H 0.48756 0.6113 0.17023 0.0
H515 H 0.43406 0.67756 0.07273 0.0
H516 H 0.47256 0.59791 0.85496 0.0
H517 H 0.46159 0.64289 0.95148 0.0
H518 H 0.44785 0.58207 0.15438 0.0
H519 H 0.45896 0.53695 0.0569 0.0
C520 C 0.48728 0.65857 0.20952 0.0
C521 C 0.47703 0.68963 0.20444 0.0
C522 C 0.47828 0.6347 0.16731 0.0
C523 C 0.45918 0.64109 0.11704 0.0
C524 C 0.44858 0.672 0.11199 0.0
C525 C 0.45727 0.69608 0.15593 0.0
C526 C 0.46566 0.59431 0.91981 0.0
C527 C 0.46664 0.56423 0.9491 0.0
C528 C 0.45935 0.62005 0.97511 0.0
C529 C 0.4544 0.61591 0.06045 0.0
C530 C 0.45185 0.5858 0.08877 0.0
C531 C 0.45799 0.56001 0.03318 0.0
H532 H 0.83294 0.60513 0.51628 0.0
H533 H 0.80443 0.56609 0.30789 0.0
H534 H 0.87743 0.604 0.43209 0.0
H535 H 0.84778 0.56681 0.22406 0.0
H536 H 0.92554 0.53725 0.10058 0.0
H537 H 0.89288 0.58018 0.16232 0.0
H538 H 0.89914 0.54849 0.40512 0.0
H539 H 0.93184 0.50584 0.34311 0.0
C540 C 0.83567 0.59792 0.45153 0.0
C541 C 0.81569 0.58335 0.42077 0.0
C542 C 0.86118 0.59744 0.40329 0.0
C543 C 0.86638 0.58373 0.32297 0.0
C544 C 0.84464 0.57682 0.28652 0.0
C545 C 0.81942 0.57651 0.33521 0.0
C546 C 0.92036 0.54007 0.1673 0.0
C547 C 0.93024 0.51771 0.21738 0.0
C548 C 0.90197 0.56482 0.20251 0.0
C549 C 0.89305 0.56742 0.28834 0.0
C550 C 0.90565 0.54729 0.33871 0.0
C551 C 0.92415 0.52257 0.30337 0.0
H552 H 0.97521 0.26376 0.98328 0.0
H553 H 0.04468 0.23903 0.09179 0.0
H554 H 0.98353 0.2154 0.90156 0.0
H555 H 0.05468 0.19155 1.00429 0.0
H556 H 0.03809 0.09116 0.95632 0.0
H557 H 0.03911 0.14399 1.00767 0.0
H558 H 1.00318 0.17841 0.8046 0.0
H559 H 1.00045 0.12522 0.75742 0.0
C560 C 0.99299 0.24848 0.98703 0.0
C561 C 1.00885 0.25495 0.04577 0.0
C562 C 0.99791 0.22054 0.93958 0.0
C563 C 0.01936 0.19856 0.9477 0.0
C564 C 0.03727 0.20706 0.99854 0.0
C565 C 0.03195 0.23479 0.04749 0.0
C566 C 0.03052 0.11007 0.92253 0.0
C567 C 0.01889 0.10398 0.85346 0.0
C568 C 0.03137 0.1406 0.95143 0.0
C569 C 0.02118 0.16607 0.91089 0.0
C570 C 1.01064 0.15976 0.83926 0.0
C571 C 1.00917 0.12916 0.81168 0.0
H572 H 0.30394 0.05974 0.1717 0.0
H573 H 0.30944 0.96127 0.11879 0.0
H574 H 0.34591 0.06255 0.07495 0.0
H575 H 0.35169 0.96344 0.02475 0.0
H576 H 0.42537 0.97428 0.8365 0.0
H577 H 0.37872 0.97679 0.9043 0.0
H578 H 0.39164 0.05008 0.07188 0.0
H579 H 0.43795 0.04826 1.00187 0.0
C580 C 0.31359 0.03889 0.13675 0.0
C581 C 0.30294 0.01043 0.15123 0.0
C582 C 0.33807 0.04028 0.08255 0.0
C583 C 0.35282 0.01314 0.04217 0.0
C584 C 0.34113 0.98501 0.05316 0.0
C585 C 0.31665 0.98371 0.10688 0.0
C586 C 0.41824 0.9911 0.88745 0.0
C587 C 0.4357 0.01095 0.91364 0.0
C588 C 0.39134 0.99247 0.92691 0.0
C589 C 0.38097 0.01356 0.99456 0.0
C590 C 0.39839 0.03384 0.01945 0.0
C591 C 0.42522 0.03265 0.97947 0.0
H592 H 0.56163 0.27876 0.09574 0.0
H593 H 0.47984 0.29765 0.22089 0.0
H594 H 0.55497 0.32096 1.00411 0.0
H595 H 0.47296 0.33986 0.12803 0.0
H596 H 0.47557 0.40582 0.89636 0.0
H597 H 0.47675 0.35658 0.96687 0.0
H598 H 0.54635 0.37959 0.06079 0.0
H599 H 0.54496 0.42868 0.99267 0.0
C600 C 0.54181 0.29088 0.10067 0.0
C601 C 0.52118 0.28467 0.16482 0.0
C602 C 0.5381 0.31536 0.04908 0.0
C603 C 0.51358 0.33404 0.05989 0.0
C604 C 0.49205 0.32581 0.11824 0.0
C605 C 0.49588 0.30141 0.17072 0.0
C606 C 0.49099 0.40044 0.93261 0.0
C607 C 0.51012 0.42133 0.93897 0.0
C608 C 0.49164 0.37226 0.97284 0.0
C609 C 0.51185 0.36407 0.01835 0.0
C610 C 0.53076 0.38506 0.02518 0.0
C611 C 0.52979 0.41337 0.98668 0.0
H612 H 0.20931 0.50605 0.05178 0.0
H613 H 0.22928 0.41943 0.90927 0.0
H614 H 0.16842 0.51544 0.99392 0.0
H615 H 0.18879 0.42874 0.85033 0.0
H616 H 0.09723 0.4308 0.87519 0.0
H617 H 0.14208 0.4266 0.90753 0.0
H618 H 0.14552 0.52475 0.87629 0.0
H619 H 0.1004 0.52902 0.84433 0.0
C620 C 0.20562 0.48978 1.00493 0.0
C621 C 0.22284 0.46231 0.9838 0.0
C622 C 0.18199 0.49495 0.97229 0.0
C623 C 0.17489 0.47259 0.91832 0.0
C624 C 0.19321 0.44622 0.89283 0.0
C625 C 0.21675 0.44113 0.92532 0.0
C626 C 0.10754 0.45151 0.87457 0.0
C627 C 0.09496 0.48026 0.8572 0.0
C628 C 0.13347 0.44907 0.89263 0.0
C629 C 0.14771 0.47531 0.89435 0.0
C630 C 0.13523 0.50405 0.8762 0.0
C631 C 0.10932 0.50646 0.85748 0.0
H632 H 0.05767 0.76205 0.537 0.0
H633 H 0.98462 0.78289 0.44396 0.0
H634 H 0.04845 0.81003 0.62244 0.0
H635 H 0.97486 0.8309 0.53108 0.0
H636 H 0.02225 0.89551 0.79058 0.0
H637 H 0.02219 0.84272 0.73423 0.0
H638 H 0.99453 0.87945 0.52004 0.0
H639 H 0.99407 0.93189 0.57672 0.0
C640 C 0.03909 0.77643 0.53733 0.0
C641 C 0.02188 0.76877 0.48379 0.0
C642 C 0.03377 0.804 0.58635 0.0
C643 C 1.0111 0.82472 0.58287 0.0
C644 C 0.99277 0.81578 0.53419 0.0
C645 C 0.99809 0.78805 0.48522 0.0
C646 C 1.01592 0.89232 0.73183 0.0
C647 C 1.00835 0.91809 0.68808 0.0
C648 C 1.01594 0.862 0.69938 0.0
C649 C 1.00831 0.85667 0.62248 0.0
C650 C 1.00008 0.88249 0.58 0.0
C651 C 1.0001 0.91271 0.61227 0.0
H652 H 0.72507 0.06172 0.52434 0.0
H653 H 0.72756 0.97549 0.38518 0.0
H654 H 0.68498 0.04969 0.61684 0.0
H655 H 0.68757 0.96273 0.47903 0.0
H656 H 0.59592 0.97654 0.57325 0.0
H657 H 0.64114 0.98006 0.49995 0.0
H658 H 0.6614 0.02067 0.72027 0.0
H659 H 0.61577 0.0178 0.79331 0.0
C660 C 0.71766 0.03946 0.51587 0.0
C661 C 0.72977 0.01937 0.44807 0.0
C662 C 0.69448 0.03256 0.56882 0.0
C663 C 0.68251 0.00535 0.5554 0.0
C664 C 0.69577 0.98419 0.4908 0.0
C665 C 0.71907 0.99114 0.43778 0.0
C666 C 0.61 0.98601 0.60663 0.0
C667 C 0.60187 0.99705 0.68952 0.0
C668 C 0.6362 0.98779 0.56446 0.0
C669 C 0.65528 1.00067 0.60358 0.0
C670 C 0.64735 0.01095 0.68728 0.0
C671 C 0.62109 0.00917 0.72954 0.0
H672 H 0.55802 0.69757 0.36071 0.0
H673 H 0.48418 0.73218 0.52022 0.0
H674 H 0.56519 0.65677 0.45595 0.0
H675 H 0.49142 0.69185 0.61665 0.0
H676 H 0.48521 0.58751 0.65057 0.0
H677 H 0.48625 0.63716 0.58732 0.0
H678 H 0.57049 0.63543 0.59298 0.0
H679 H 0.56954 0.58499 0.65714 0.0
C680 C 0.54423 0.69771 0.41894 0.0
C681 C 0.52066 0.71822 0.43344 0.0
C682 C 0.54815 0.67405 0.47317 0.0
C683 C 0.52849 0.67048 0.54281 0.0
C684 C 0.50666 0.69352 0.56257 0.0
C685 C 0.50276 0.7171 0.5083 0.0
C686 C 0.50407 0.5975 0.63857 0.0
C687 C 0.52735 0.58194 0.65871 0.0
C688 C 0.50456 0.62636 0.60319 0.0
C689 C 0.52835 0.64067 0.5862 0.0
C690 C 0.55179 0.62514 0.60562 0.0
C691 C 0.55125 0.5962 0.64217 0.0
H692 H 0.79893 0.53802 0.7332 0.0
H693 H 0.83097 0.47227 0.53049 0.0
H694 H 0.83823 0.52482 0.79593 0.0
H695 H 0.87036 0.45896 0.59272 0.0
H696 H 0.94986 0.49408 0.63924 0.0
H697 H 0.90635 0.49309 0.60004 0.0
H698 H 0.87001 0.48669 0.8556 0.0
H699 H 0.91414 0.48741 0.8954 0.0
C700 C 0.81365 0.51939 0.70459 0.0
C701 C 0.81158 0.50578 0.62761 0.0
C702 C 0.83639 0.51206 0.74004 0.0
C703 C 0.85777 0.49126 0.69865 0.0
C704 C 0.85446 0.47542 0.62575 0.0
C705 C 0.83161 0.48255 0.5908 0.0
C706 C 0.93271 0.49232 0.68745 0.0
C707 C 0.93562 0.49104 0.77071 0.0
C708 C 0.90768 0.49139 0.66469 0.0
C709 C 0.88458 0.4895 0.72442 0.0
C710 C 0.88737 0.4881 0.80793 0.0
C711 C 0.91266 0.48851 0.83074 0.0
loop_
_geom_bond_atom_site_label_1
_geom_bond_atom_site_label_2
_geom_bond_distance
_geom_bond_site_symmetry_2
_ccdc_geom_bond_type
H0 C3 0.931 . S
H1 C6 0.928 . S
H2 C8 0.930 . S
C3 H0 0.931 . S
C3 C4 1.413 . S
C3 C5 1.360 . S
C4 C3 1.413 . S
C4 C8 1.429 . S
C5 C3 1.360 . S
C5 C6 1.372 . S
C6 H1 0.928 . S
C6 C5 1.372 . S
C6 C7 1.404 . S
C7 C6 1.404 . S
C7 C8 1.391 . S
C8 H2 0.930 . S
C8 C4 1.429 . S
C8 C7 1.391 . S
H9 C12 0.931 . S
H10 C15 0.928 . S
H11 C17 0.929 . S
C12 H9 0.931 . S
C12 C13 1.413 . S
C12 C14 1.360 . S
C13 C12 1.413 . S
C13 C17 1.430 1_655 S
C14 C12 1.360 . S
C14 C15 1.375 . S
C15 H10 0.928 . S
C15 C14 1.375 . S
C15 C16 1.405 . S
C16 C15 1.405 . S
C16 C17 1.388 1_655 S
C17 H11 0.929 . S
C17 C13 1.430 1_455 S
C17 C16 1.388 1_455 S
H18 C21 0.930 . S
H19 C24 0.928 . S
H20 C26 0.929 . S
C21 H18 0.930 . S
C21 C22 1.413 . S
C21 C23 1.360 . S
C22 C21 1.413 . S
C22 C26 1.428 1_565 S
C23 C21 1.360 . S
C23 C24 1.370 . S
C24 H19 0.928 . S
C24 C23 1.370 . S
C24 C25 1.405 . S
C25 C24 1.405 . S
C25 C26 1.392 1_565 S
C26 H20 0.929 . S
C26 C22 1.428 1_545 S
C26 C25 1.392 1_545 S
H27 C30 0.931 . S
H28 C33 0.928 . S
H29 C35 0.930 . S
C30 H27 0.931 . S
C30 C31 1.413 . S
C30 C32 1.360 . S
C31 C30 1.413 . S
C31 C35 1.429 . S
C32 C30 1.360 . S
C32 C33 1.372 . S
C33 H28 0.928 . S
C33 C32 1.372 . S
C33 C34 1.404 . S
C34 C33 1.404 . S
C34 C35 1.391 . S
C35 H29 0.930 . S
C35 C31 1.429 . S
C35 C34 1.391 . S
H36 C39 0.931 . S
H37 C42 0.928 . S
H38 C44 0.930 . S
C39 H36 0.931 . S
C39 C40 1.413 . S
C39 C41 1.360 1_556 S
C40 C39 1.413 . S
C40 C44 1.429 . S
C41 C39 1.360 1_554 S
C41 C42 1.372 . S
C42 H37 0.928 . S
C42 C41 1.372 . S
C42 C43 1.404 . S
C43 C42 1.404 . S
C43 C44 1.391 1_554 S
C44 H38 0.930 . S
C44 C40 1.429 . S
C44 C43 1.391 1_556 S
H45 C48 0.930 . S
H46 C51 0.928 . S
H47 C53 0.931 . S
C48 H45 0.930 . S
C48 C49 1.414 . S
C48 C50 1.360 . S
C49 C48 1.414 . S
C49 C53 1.428 1_655 S
C50 C48 1.360 . S
C50 C51 1.371 . S
C51 H46 0.928 . S
C51 C50 1.371 . S
C51 C52 1.404 . S
C52 C51 1.404 . S
C52 C53 1.393 1_655 S
C53 H47 0.931 . S
C53 C49 1.428 1_455 S
C53 C52 1.393 1_455 S
H54 C57 0.931 . S
H55 C60 0.928 . S
H56 C62 0.931 . S
C57 H54 0.931 . S
C57 C58 1.414 . S
C57 C59 1.360 . S
C58 C57 1.414 . S
C58 C62 1.430 1_565 S
C59 C57 1.360 . S
C59 C60 1.373 . S
C60 H55 0.928 . S
C60 C59 1.373 . S
C60 C61 1.404 . S
C61 C60 1.404 . S
C61 C62 1.389 1_565 S
C62 H56 0.931 . S
C62 C58 1.430 1_545 S
C62 C61 1.389 1_545 S
H63 C66 0.931 . S
H64 C69 0.928 . S
H65 C71 0.930 . S
C66 H63 0.931 . S
C66 C67 1.413 . S
C66 C68 1.360 . S
C67 C66 1.413 . S
C67 C71 1.429 . S
C68 C66 1.360 . S
C68 C69 1.372 . S
C69 H64 0.928 . S
C69 C68 1.372 . S
C69 C70 1.404 . S
C70 C69 1.404 . S
C70 C71 1.391 . S
C71 H65 0.930 . S
C71 C67 1.429 . S
C71 C70 1.391 . S
Dy72 O75 2.307 1_545 S
Dy72 O77 2.379 1_655 S
Dy72 O78 2.379 . S
Dy72 O80 2.339 . S
Dy72 O82 2.298 . S
Dy72 O86 2.275 1_655 S
Dy72 C94 2.738 . S
Dy73 O76 2.298 . S
Dy73 O79 2.275 1_455 S
Dy73 O81 2.307 1_565 S
Dy73 O83 2.383 1_455 S
Dy73 O84 2.379 . S
Dy73 O87 2.339 . S
Dy73 C103 2.738 . S
C74 O86 1.254 1_565 S
C74 O87 1.257 . S
O75 Dy72 2.307 1_565 S
O75 C85 1.266 . S
O76 Dy73 2.298 . S
O76 C85 1.236 1_455 S
O77 Dy72 2.379 1_455 S
O77 C94 1.220 1_455 S
O78 Dy72 2.379 . S
O78 C94 1.249 . S
O79 Dy73 2.275 1_655 S
O79 C95 1.254 1_565 S
O80 Dy72 2.339 . S
O80 C95 1.257 . S
O81 Dy73 2.307 1_545 S
O81 C96 1.266 . S
O82 Dy72 2.298 . S
O82 C96 1.236 1_655 S
O83 Dy73 2.383 1_655 S
O83 C103 1.229 1_655 S
O84 Dy73 2.379 . S
O84 C103 1.249 . S
C85 O75 1.266 . S
C85 O76 1.236 1_655 S
O86 Dy72 2.275 1_455 S
O86 C74 1.254 1_545 S
O87 Dy73 2.339 . S
O87 C74 1.257 . S
C88 C91 1.344 . S
C88 C92 1.328 . S
C88 C94 1.516 . S
C89 C90 1.304 . S
C89 C93 1.323 . S
C90 C89 1.304 . S
C90 C91 1.371 . S
C90 H104 0.930 1_655 S
C91 C88 1.344 . S
C91 C90 1.371 . S
C91 H105 0.931 1_655 S
C92 C88 1.328 . S
C92 C93 1.433 . S
C92 H106 0.931 . S
C93 C89 1.323 . S
C93 C92 1.433 . S
C93 H107 0.933 . S
C94 Dy72 2.738 . S
C94 O77 1.220 1_655 S
C94 O78 1.249 . S
C94 C88 1.516 . S
C95 O79 1.254 1_545 S
C95 O80 1.257 . S
C96 O81 1.266 . S
C96 O82 1.236 1_455 S
C97 C100 1.344 1_556 S
C97 C101 1.328 1_556 S
C97 C103 1.516 . S
C98 C99 1.304 . S
C98 C102 1.323 . S
C99 C98 1.304 . S
C99 C100 1.371 . S
C99 H108 0.930 1_455 S
C100 C97 1.344 1_554 S
C100 C99 1.371 . S
C100 H109 0.931 1_455 S
C101 C97 1.328 1_554 S
C101 C102 1.433 . S
C101 H110 0.931 1_554 S
C102 C98 1.323 . S
C102 C101 1.433 . S
C102 H111 0.933 . S
C103 Dy73 2.738 . S
C103 O83 1.229 1_455 S
C103 O84 1.249 . S
C103 C97 1.516 . S
H104 C90 0.930 1_455 S
H105 C91 0.931 1_455 S
H106 C92 0.931 . S
H107 C93 0.933 . S
H108 C99 0.930 1_655 S
H109 C100 0.931 1_655 S
H110 C101 0.931 1_556 S
H111 C102 0.933 . S
Dy112 O115 2.307 . S
Dy112 O117 2.395 1_565 S
Dy112 O118 2.379 . S
Dy112 O120 2.339 . S
Dy112 O122 2.298 . S
Dy112 O126 2.275 1_565 S
Dy112 C134 2.738 . S
Dy113 O116 2.298 . S
Dy113 O119 2.275 1_545 S
Dy113 O121 2.307 . S
Dy113 O123 2.395 1_545 S
Dy113 O124 2.379 . S
Dy113 O127 2.339 . S
Dy113 C143 2.738 . S
C114 O126 1.254 . S
C114 O127 1.257 . S
O115 Dy112 2.307 . S
O115 C125 1.266 . S
O116 Dy113 2.298 . S
O116 C125 1.236 1_545 S
O117 Dy112 2.395 1_545 S
O117 C134 1.255 1_545 S
O118 Dy112 2.379 . S
O118 C134 1.249 . S
O119 Dy113 2.275 1_565 S
O119 C135 1.254 . S
O120 Dy112 2.339 . S
O120 C135 1.257 . S
O121 Dy113 2.307 . S
O121 C136 1.266 . S
O122 Dy112 2.298 . S
O122 C136 1.236 1_565 S
O123 Dy113 2.395 1_565 S
O123 C143 1.255 1_565 S
O124 Dy113 2.379 . S
O124 C143 1.249 . S
C125 O115 1.266 . S
C125 O116 1.236 1_565 S
O126 Dy112 2.275 1_545 S
O126 C114 1.254 . S
O127 Dy113 2.339 . S
O127 C114 1.257 . S
C128 C131 1.344 . S
C128 C132 1.328 . S
C128 C134 1.516 . S
C129 C130 1.304 . S
C129 C133 1.323 . S
C130 C129 1.304 . S
C130 C131 1.371 . S
C130 H144 0.930 1_565 S
C131 C128 1.344 . S
C131 C130 1.371 . S
C131 H145 0.931 1_565 S
C132 C128 1.328 . S
C132 C133 1.433 . S
C132 H146 0.931 . S
C133 C129 1.323 . S
C133 C132 1.433 . S
C133 H147 0.933 . S
C134 Dy112 2.738 . S
C134 O117 1.255 1_565 S
C134 O118 1.249 . S
C134 C128 1.516 . S
C135 O119 1.254 . S
C135 O120 1.257 . S
C136 O121 1.266 . S
C136 O122 1.236 1_545 S
C137 C140 1.344 . S
C137 C141 1.328 1_556 S
C137 C143 1.516 . S
C138 C139 1.304 . S
C138 C142 1.323 . S
C139 C138 1.304 . S
C139 C140 1.371 1_554 S
C139 H148 0.930 1_545 S
C140 C137 1.344 . S
C140 C139 1.371 1_556 S
C140 H149 0.931 1_545 S
C141 C137 1.328 1_554 S
C141 C142 1.433 . S
C141 H150 0.931 . S
C142 C138 1.323 . S
C142 C141 1.433 . S
C142 H151 0.933 . S
C143 Dy113 2.738 . S
C143 O123 1.255 1_545 S
C143 O124 1.249 . S
C143 C137 1.516 . S
H144 C130 0.930 1_545 S
H145 C131 0.931 1_545 S
H146 C132 0.931 . S
H147 C133 0.933 . S
H148 C139 0.930 1_565 S
H149 C140 0.931 1_565 S
H150 C141 0.931 . S
H151 C142 0.933 . S
Dy152 O155 2.307 . S
Dy152 O157 2.395 . S
Dy152 O158 2.379 . S
Dy152 O160 2.339 . S
Dy152 O162 2.298 . S
Dy152 O166 2.275 . S
Dy152 C174 2.738 . S
Dy153 O156 2.298 . S
Dy153 O159 2.275 . S
Dy153 O161 2.307 . S
Dy153 O163 2.395 . S
Dy153 O164 2.379 . S
Dy153 O167 2.339 . S
Dy153 C183 2.738 . S
C154 O166 1.254 . S
C154 O167 1.257 . S
O155 Dy152 2.307 . S
O155 C165 1.266 . S
O156 Dy153 2.298 . S
O156 C165 1.236 . S
O157 Dy152 2.395 . S
O157 C174 1.255 . S
O158 Dy152 2.379 . S
O158 C174 1.249 . S
O159 Dy153 2.275 . S
O159 C175 1.254 . S
O160 Dy152 2.339 . S
O160 C175 1.257 . S
O161 Dy153 2.307 . S
O161 C176 1.266 . S
O162 Dy152 2.298 . S
O162 C176 1.236 . S
O163 Dy153 2.395 . S
O163 C183 1.255 . S
O164 Dy153 2.379 . S
O164 C183 1.249 . S
C165 O155 1.266 . S
C165 O156 1.236 . S
O166 Dy152 2.275 . S
O166 C154 1.254 . S
O167 Dy153 2.339 . S
O167 C154 1.257 . S
C168 C171 1.344 1_556 S
C168 C172 1.328 . S
C168 C174 1.516 . S
C169 C170 1.304 . S
C169 C173 1.323 1_554 S
C170 C169 1.304 . S
C170 C171 1.371 . S
C170 H184 0.930 . S
C171 C168 1.344 1_554 S
C171 C170 1.371 . S
C171 H185 0.931 . S
C172 C168 1.328 . S
C172 C173 1.433 . S
C172 H186 0.931 . S
C173 C169 1.323 1_556 S
C173 C172 1.433 . S
C173 H187 0.933 . S
C174 Dy152 2.738 . S
C174 O157 1.255 . S
C174 O158 1.249 . S
C174 C168 1.516 . S
C175 O159 1.254 . S
C175 O160 1.257 . S
C176 O161 1.266 . S
C176 O162 1.236 . S
C177 C180 1.344 . S
C177 C181 1.328 . S
C177 C183 1.516 . S
C178 C179 1.304 . S
C178 C182 1.323 . S
C179 C178 1.304 . S
C179 C180 1.371 . S
C179 H188 0.930 . S
C180 C177 1.344 . S
C180 C179 1.371 . S
C180 H189 0.931 . S
C181 C177 1.328 . S
C181 C182 1.433 . S
C181 H190 0.931 . S
C182 C178 1.323 . S
C182 C181 1.433 . S
C182 H191 0.933 . S
C183 Dy153 2.738 . S
C183 O163 1.255 . S
C183 O164 1.249 . S
C183 C177 1.516 . S
H184 C170 0.930 . S
H185 C171 0.931 . S
H186 C172 0.931 . S
H187 C173 0.933 . S
H188 C179 0.930 . S
H189 C180 0.931 . S
H190 C181 0.931 . S
H191 C182 0.933 . S
Dy192 O195 2.307 1_455 S
Dy192 O197 2.395 . S
Dy192 O198 2.379 . S
Dy192 O200 2.339 . S
Dy192 O202 2.298 . S
Dy192 O206 2.275 . S
Dy192 C214 2.738 . S
Dy193 O196 2.298 . S
Dy193 O199 2.275 . S
Dy193 O201 2.307 1_655 S
Dy193 O203 2.395 . S
Dy193 O204 2.379 . S
Dy193 O207 2.339 . S
Dy193 C223 2.738 . S
C194 O206 1.254 1_655 S
C194 O207 1.257 . S
O195 Dy192 2.307 1_655 S
O195 C205 1.266 . S
O196 Dy193 2.298 . S
O196 C205 1.236 . S
O197 Dy192 2.395 . S
O197 C214 1.255 . S
O198 Dy192 2.379 . S
O198 C214 1.249 . S
O199 Dy193 2.275 . S
O199 C215 1.254 1_655 S
O200 Dy192 2.339 . S
O200 C215 1.257 . S
O201 Dy193 2.307 1_455 S
O201 C216 1.266 . S
O202 Dy192 2.298 . S
O202 C216 1.236 . S
O203 Dy193 2.395 . S
O203 C223 1.255 . S
O204 Dy193 2.379 . S
O204 C223 1.249 . S
C205 O195 1.266 . S
C205 O196 1.236 . S
O206 Dy192 2.275 . S
O206 C194 1.254 1_455 S
O207 Dy193 2.339 . S
O207 C194 1.257 . S
C208 C211 1.344 . S
C208 C212 1.328 . S
C208 C214 1.516 . S
C209 C210 1.304 . S
C209 C213 1.323 . S
C210 C209 1.304 . S
C210 C211 1.371 . S
C210 H224 0.930 . S
C211 C208 1.344 . S
C211 C210 1.371 . S
C211 H225 0.931 . S
C212 C208 1.328 . S
C212 C213 1.433 . S
C212 H226 0.931 . S
C213 C209 1.323 . S
C213 C212 1.433 . S
C213 H227 0.933 . S
C214 Dy192 2.738 . S
C214 O197 1.255 . S
C214 O198 1.249 . S
C214 C208 1.516 . S
C215 O199 1.254 1_455 S
C215 O200 1.257 . S
C216 O201 1.266 . S
C216 O202 1.236 . S
C217 C220 1.344 . S
C217 C221 1.328 . S
C217 C223 1.516 1_554 S
C218 C219 1.304 . S
C218 C222 1.323 . S
C219 C218 1.304 . S
C219 C220 1.371 . S
C219 H228 0.930 . S
C220 C217 1.344 . S
C220 C219 1.371 . S
C220 H229 0.931 . S
C221 C217 1.328 . S
C221 C222 1.433 . S
C221 H230 0.931 . S
C222 C218 1.323 . S
C222 C221 1.433 . S
C222 H231 0.933 . S
C223 Dy193 2.738 . S
C223 O203 1.255 . S
C223 O204 1.249 . S
C223 C217 1.516 1_556 S
H224 C210 0.930 . S
H225 C211 0.931 . S
H226 C212 0.931 . S
H227 C213 0.933 . S
H228 C219 0.930 . S
H229 C220 0.931 . S
H230 C221 0.931 . S
H231 C222 0.933 . S
H232 C240 0.950 . S
H233 C245 0.950 . S
H234 C242 0.950 . S
H235 C244 0.950 . S
H236 C246 0.950 . S
H237 C248 0.950 . S
H238 C250 0.950 . S
H239 C251 0.950 . S
C240 H232 0.950 . S
C240 C241 1.392 . S
C240 C242 1.391 . S
C241 C240 1.392 . S
C241 C245 1.386 1_545 S
C242 H234 0.950 . S
C242 C240 1.391 . S
C242 C243 1.417 . S
C243 C242 1.417 . S
C243 C244 1.383 1_545 S
C243 C249 1.491 . S
C244 H235 0.950 . S
C244 C243 1.383 1_565 S
C244 C245 1.391 . S
C245 H233 0.950 . S
C245 C241 1.386 1_565 S
C245 C244 1.391 . S
C246 H236 0.950 . S
C246 C247 1.360 1_565 S
C246 C248 1.391 . S
C247 C246 1.360 1_545 S
C247 C251 1.423 . S
C248 H237 0.950 . S
C248 C246 1.391 . S
C248 C249 1.381 1_565 S
C249 C243 1.491 . S
C249 C248 1.381 1_545 S
C249 C250 1.415 . S
C250 H238 0.950 . S
C250 C249 1.415 . S
C250 C251 1.391 . S
C251 H239 0.950 . S
C251 C247 1.423 . S
C251 C250 1.391 . S
H252 C260 0.950 . S
H253 C265 0.950 . S
H254 C262 0.950 . S
H255 C264 0.950 . S
H256 C266 0.950 . S
H257 C268 0.950 . S
H258 C270 0.950 . S
H259 C271 0.950 . S
C260 H252 0.950 . S
C260 C261 1.386 . S
C260 C262 1.391 . S
C261 C260 1.386 . S
C261 C265 1.393 . S
C262 H254 0.950 . S
C262 C260 1.391 . S
C262 C263 1.400 . S
C263 C262 1.400 . S
C263 C264 1.398 . S
C263 C269 1.491 . S
C264 H255 0.950 . S
C264 C263 1.398 . S
C264 C265 1.391 . S
C265 H253 0.950 . S
C265 C261 1.393 . S
C265 C264 1.391 . S
C266 H256 0.950 . S
C266 C267 1.386 . S
C266 C268 1.391 . S
C267 C266 1.386 . S
C267 C271 1.393 . S
C268 H257 0.950 . S
C268 C266 1.391 . S
C268 C269 1.400 . S
C269 C263 1.491 . S
C269 C268 1.400 . S
C269 C270 1.398 . S
C270 H258 0.950 . S
C270 C269 1.398 . S
C270 C271 1.391 . S
C271 H259 0.950 . S
C271 C267 1.393 . S
C271 C270 1.391 . S
H272 C280 0.950 . S
H273 C285 0.950 . S
H274 C282 0.950 . S
H275 C284 0.950 . S
H276 C286 0.950 . S
H277 C288 0.950 . S
H278 C290 0.950 . S
H279 C291 0.950 . S
C280 H272 0.950 . S
C280 C281 1.386 . S
C280 C282 1.391 . S
C281 C280 1.386 . S
C281 C285 1.393 . S
C282 H274 0.950 . S
C282 C280 1.391 . S
C282 C283 1.400 . S
C283 C282 1.400 . S
C283 C284 1.398 . S
C283 C289 1.491 . S
C284 H275 0.950 . S
C284 C283 1.398 . S
C284 C285 1.391 . S
C285 H273 0.950 . S
C285 C281 1.393 . S
C285 C284 1.391 . S
C286 H276 0.950 . S
C286 C287 1.386 . S
C286 C288 1.391 . S
C287 C286 1.386 . S
C287 C291 1.393 . S
C288 H277 0.950 . S
C288 C286 1.391 . S
C288 C289 1.400 . S
C289 C283 1.491 . S
C289 C288 1.400 . S
C289 C290 1.398 . S
C290 H278 0.950 . S
C290 C289 1.398 . S
C290 C291 1.391 . S
C291 H279 0.950 . S
C291 C287 1.393 . S
C291 C290 1.391 . S
H292 C300 0.950 . S
H293 C305 0.950 . S
H294 C302 0.950 . S
H295 C304 0.950 . S
H296 C306 0.950 . S
H297 C308 0.950 . S
H298 C310 0.950 . S
H299 C311 0.950 . S
C300 H292 0.950 . S
C300 C301 1.386 . S
C300 C302 1.391 . S
C301 C300 1.386 . S
C301 C305 1.393 1_455 S
C302 H294 0.950 . S
C302 C300 1.391 . S
C302 C303 1.400 . S
C303 C302 1.400 . S
C303 C304 1.398 1_455 S
C303 C309 1.484 . S
C304 H295 0.950 . S
C304 C303 1.398 1_655 S
C304 C305 1.391 . S
C305 H293 0.950 . S
C305 C301 1.393 1_655 S
C305 C304 1.391 . S
C306 H296 0.950 . S
C306 C307 1.386 1_655 S
C306 C308 1.391 . S
C307 C306 1.386 1_455 S
C307 C311 1.393 . S
C308 H297 0.950 . S
C308 C306 1.391 . S
C308 C309 1.399 1_655 S
C309 C303 1.484 . S
C309 C308 1.399 1_455 S
C309 C310 1.408 . S
C310 H298 0.950 . S
C310 C309 1.408 . S
C310 C311 1.391 . S
C311 H299 0.950 . S
C311 C307 1.393 . S
C311 C310 1.391 . S
H312 C320 0.950 . S
H313 C325 0.950 . S
H314 C322 0.950 . S
H315 C324 0.950 . S
H316 C326 0.950 . S
H317 C328 0.950 . S
H318 C330 0.950 . S
H319 C331 0.950 1_556 S
C320 H312 0.950 . S
C320 C321 1.366 1_545 S
C320 C322 1.391 . S
C321 C320 1.366 1_565 S
C321 C325 1.410 . S
C322 H314 0.950 . S
C322 C320 1.391 . S
C322 C323 1.385 1_545 S
C323 C322 1.385 1_565 S
C323 C324 1.417 . S
C323 C329 1.488 . S
C324 H315 0.950 . S
C324 C323 1.417 . S
C324 C325 1.391 . S
C325 H313 0.950 . S
C325 C321 1.410 . S
C325 C324 1.391 . S
C326 H316 0.950 . S
C326 C327 1.386 . S
C326 C328 1.391 1_556 S
C327 C326 1.386 . S
C327 C331 1.393 1_566 S
C328 H317 0.950 . S
C328 C326 1.391 1_554 S
C328 C329 1.401 . S
C329 C323 1.488 . S
C329 C328 1.401 . S
C329 C330 1.397 1_565 S
C330 H318 0.950 . S
C330 C329 1.397 1_545 S
C330 C331 1.391 . S
C331 H319 0.950 1_554 S
C331 C327 1.393 1_544 S
C331 C330 1.391 . S
H332 C340 0.950 . S
H333 C345 0.950 . S
H334 C342 0.950 1_556 S
H335 C344 0.950 . S
H336 C346 0.950 . S
H337 C348 0.945 1_554 S
H338 C350 0.950 . S
H339 C351 0.950 . S
C340 H332 0.950 . S
C340 C341 1.386 . S
C340 C342 1.391 . S
C341 C340 1.386 . S
C341 C345 1.393 . S
C342 H334 0.950 1_554 S
C342 C340 1.391 . S
C342 C343 1.400 . S
C343 C342 1.400 . S
C343 C344 1.398 . S
C343 C349 1.491 1_554 S
C344 H335 0.950 . S
C344 C343 1.398 . S
C344 C345 1.391 . S
C345 H333 0.950 . S
C345 C341 1.393 . S
C345 C344 1.391 . S
C346 H336 0.950 . S
C346 C347 1.386 . S
C346 C348 1.395 . S
C347 C346 1.386 . S
C347 C351 1.393 . S
C348 H337 0.945 1_556 S
C348 C346 1.395 . S
C348 C349 1.402 . S
C349 C343 1.491 1_556 S
C349 C348 1.402 . S
C349 C350 1.398 . S
C350 H338 0.950 . S
C350 C349 1.398 . S
C350 C351 1.391 . S
C351 H339 0.950 . S
C351 C347 1.393 . S
C351 C350 1.391 . S
H352 C360 0.950 . S
H353 C365 0.950 . S
H354 C362 0.950 . S
H355 C364 0.950 . S
H356 C366 0.950 . S
H357 C368 0.950 . S
H358 C370 0.950 . S
H359 C371 0.950 . S
C360 H352 0.950 . S
C360 C361 1.386 . S
C360 C362 1.391 . S
C361 C360 1.386 . S
C361 C365 1.393 . S
C362 H354 0.950 . S
C362 C360 1.391 . S
C362 C363 1.400 . S
C363 C362 1.400 . S
C363 C364 1.398 . S
C363 C369 1.491 . S
C364 H355 0.950 . S
C364 C363 1.398 . S
C364 C365 1.391 . S
C365 H353 0.950 . S
C365 C361 1.393 . S
C365 C364 1.391 . S
C366 H356 0.950 . S
C366 C367 1.386 . S
C366 C368 1.391 . S
C367 C366 1.386 . S
C367 C371 1.393 . S
C368 H357 0.950 . S
C368 C366 1.391 . S
C368 C369 1.400 . S
C369 C363 1.491 . S
C369 C368 1.400 . S
C369 C370 1.398 . S
C370 H358 0.950 . S
C370 C369 1.398 . S
C370 C371 1.391 . S
C371 H359 0.950 . S
C371 C367 1.393 . S
C371 C370 1.391 . S
H372 C380 0.950 . S
H373 C385 0.950 . S
H374 C382 0.950 . S
H375 C384 0.950 . S
H376 C386 0.950 . S
H377 C388 0.950 . S
H378 C390 0.950 . S
H379 C391 0.950 . S
C380 H372 0.950 . S
C380 C381 1.386 1_455 S
C380 C382 1.391 . S
C381 C380 1.386 1_655 S
C381 C385 1.393 . S
C382 H374 0.950 . S
C382 C380 1.391 . S
C382 C383 1.400 1_455 S
C383 C382 1.400 1_655 S
C383 C384 1.398 . S
C383 C389 1.484 . S
C384 H375 0.950 . S
C384 C383 1.398 . S
C384 C385 1.391 . S
C385 H373 0.950 . S
C385 C381 1.393 . S
C385 C384 1.391 . S
C386 H376 0.950 . S
C386 C387 1.386 . S
C386 C388 1.391 1_556 S
C387 C386 1.386 . S
C387 C391 1.393 1_656 S
C388 H377 0.950 . S
C388 C386 1.391 1_554 S
C388 C389 1.413 . S
C389 C383 1.484 . S
C389 C388 1.413 . S
C389 C390 1.394 1_655 S
C390 H378 0.950 . S
C390 C389 1.394 1_455 S
C390 C391 1.391 . S
C391 H379 0.950 . S
C391 C387 1.393 1_454 S
C391 C390 1.391 . S
H392 C400 0.950 . S
H393 C405 0.950 . S
H394 C402 0.950 . S
H395 C404 0.950 . S
H396 C406 0.950 . S
H397 C408 0.950 . S
H398 C410 0.950 . S
H399 C411 0.950 . S
C400 H392 0.950 . S
C400 C401 1.386 . S
C400 C402 1.391 1_455 S
C401 C400 1.386 . S
C401 C405 1.393 1_455 S
C402 H394 0.950 . S
C402 C400 1.391 1_655 S
C402 C403 1.400 . S
C403 C402 1.400 . S
C403 C404 1.398 . S
C403 C409 1.491 . S
C404 H395 0.950 . S
C404 C403 1.398 . S
C404 C405 1.391 . S
C405 H393 0.950 . S
C405 C401 1.393 1_655 S
C405 C404 1.391 . S
C406 H396 0.950 . S
C406 C407 1.386 . S
C406 C408 1.391 . S
C407 C406 1.386 . S
C407 C411 1.393 . S
C408 H397 0.950 . S
C408 C406 1.391 . S
C408 C409 1.400 . S
C409 C403 1.491 . S
C409 C408 1.400 . S
C409 C410 1.398 . S
C410 H398 0.950 . S
C410 C409 1.398 . S
C410 C411 1.391 . S
C411 H399 0.950 . S
C411 C407 1.393 . S
C411 C410 1.391 . S
H412 C420 0.950 . S
H413 C425 0.950 . S
H414 C422 0.950 . S
H415 C424 0.950 . S
H416 C426 0.950 . S
H417 C428 0.950 . S
H418 C430 0.950 1_545 S
H419 C431 0.945 1_545 S
C420 H412 0.950 . S
C420 C421 1.386 . S
C420 C422 1.391 . S
C421 C420 1.386 . S
C421 C425 1.393 1_545 S
C422 H414 0.950 . S
C422 C420 1.391 . S
C422 C423 1.400 1_545 S
C423 C422 1.400 1_565 S
C423 C424 1.398 . S
C423 C429 1.491 . S
C424 H415 0.950 . S
C424 C423 1.398 . S
C424 C425 1.391 . S
C425 H413 0.950 . S
C425 C421 1.393 1_565 S
C425 C424 1.391 . S
C426 H416 0.950 . S
C426 C427 1.386 . S
C426 C428 1.391 . S
C427 C426 1.386 . S
C427 C431 1.393 . S
C428 H417 0.950 . S
C428 C426 1.391 . S
C428 C429 1.400 . S
C429 C423 1.491 . S
C429 C428 1.400 . S
C429 C430 1.398 . S
C430 H418 0.950 1_565 S
C430 C429 1.398 . S
C430 C431 1.391 . S
C431 H419 0.945 1_565 S
C431 C427 1.393 . S
C431 C430 1.391 . S
H432 C440 0.950 . S
H433 C445 0.950 . S
H434 C442 0.950 . S
H435 C444 0.950 . S
H436 C446 0.950 . S
H437 C448 0.950 . S
H438 C450 0.950 . S
H439 C451 0.950 . S
C440 H432 0.950 . S
C440 C441 1.386 . S
C440 C442 1.391 . S
C441 C440 1.386 . S
C441 C445 1.393 . S
C442 H434 0.950 . S
C442 C440 1.391 . S
C442 C443 1.400 . S
C443 C442 1.400 . S
C443 C444 1.398 . S
C443 C449 1.491 . S
C444 H435 0.950 . S
C444 C443 1.398 . S
C444 C445 1.391 . S
C445 H433 0.950 . S
C445 C441 1.393 . S
C445 C444 1.391 . S
C446 H436 0.950 . S
C446 C447 1.386 . S
C446 C448 1.391 . S
C447 C446 1.386 . S
C447 C451 1.393 . S
C448 H437 0.950 . S
C448 C446 1.391 . S
C448 C449 1.400 . S
C449 C443 1.491 . S
C449 C448 1.400 . S
C449 C450 1.398 . S
C450 H438 0.950 . S
C450 C449 1.398 . S
C450 C451 1.391 . S
C451 H439 0.950 . S
C451 C447 1.393 . S
C451 C450 1.391 . S
H452 C460 0.950 . S
H453 C465 0.950 . S
H454 C462 0.950 . S
H455 C464 0.950 . S
H456 C466 0.950 . S
H457 C468 0.950 . S
H458 C470 0.950 . S
H459 C471 0.950 . S
C460 H452 0.950 . S
C460 C461 1.386 . S
C460 C462 1.391 . S
C461 C460 1.386 . S
C461 C465 1.393 . S
C462 H454 0.950 . S
C462 C460 1.391 . S
C462 C463 1.400 . S
C463 C462 1.400 . S
C463 C464 1.398 . S
C463 C469 1.491 . S
C464 H455 0.950 . S
C464 C463 1.398 . S
C464 C465 1.391 . S
C465 H453 0.950 . S
C465 C461 1.393 . S
C465 C464 1.391 . S
C466 H456 0.950 . S
C466 C467 1.386 . S
C466 C468 1.391 . S
C467 C466 1.386 . S
C467 C471 1.393 . S
C468 H457 0.950 . S
C468 C466 1.391 . S
C468 C469 1.400 . S
C469 C463 1.491 . S
C469 C468 1.400 . S
C469 C470 1.398 . S
C470 H458 0.950 . S
C470 C469 1.398 . S
C470 C471 1.391 . S
C471 H459 0.950 . S
C471 C467 1.393 . S
C471 C470 1.391 . S
H472 C480 0.950 . S
H473 C485 0.950 . S
H474 C482 0.954 . S
H475 C484 0.950 . S
H476 C486 0.950 . S
H477 C488 0.950 . S
H478 C490 0.950 . S
H479 C491 0.950 . S
C480 H472 0.950 . S
C480 C481 1.386 . S
C480 C482 1.400 . S
C481 C480 1.386 . S
C481 C485 1.393 1_655 S
C482 H474 0.954 . S
C482 C480 1.400 . S
C482 C483 1.389 1_655 S
C483 C482 1.389 1_455 S
C483 C484 1.398 . S
C483 C489 1.491 . S
C484 H475 0.950 . S
C484 C483 1.398 . S
C484 C485 1.391 . S
C485 H473 0.950 . S
C485 C481 1.393 1_455 S
C485 C484 1.391 . S
C486 H476 0.950 . S
C486 C487 1.386 . S
C486 C488 1.391 . S
C487 C486 1.386 . S
C487 C491 1.393 . S
C488 H477 0.950 . S
C488 C486 1.391 . S
C488 C489 1.400 . S
C489 C483 1.491 . S
C489 C488 1.400 . S
C489 C490 1.398 . S
C490 H478 0.950 . S
C490 C489 1.398 . S
C490 C491 1.391 . S
C491 H479 0.950 . S
C491 C487 1.393 . S
C491 C490 1.391 . S
H492 C500 0.950 . S
H493 C505 0.950 . S
H494 C502 0.950 . S
H495 C504 0.950 . S
H496 C506 0.946 1_556 S
H497 C508 0.950 1_565 S
H498 C510 0.950 . S
H499 C511 0.950 . S
C500 H492 0.950 . S
C500 C501 1.387 1_545 S
C500 C502 1.391 . S
C501 C500 1.387 1_565 S
C501 C505 1.392 . S
C502 H494 0.950 . S
C502 C500 1.391 . S
C502 C503 1.400 . S
C503 C502 1.400 . S
C503 C504 1.398 1_545 S
C503 C509 1.491 . S
C504 H495 0.950 . S
C504 C503 1.398 1_565 S
C504 C505 1.391 . S
C505 H493 0.950 . S
C505 C501 1.392 . S
C505 C504 1.391 . S
C506 H496 0.946 1_554 S
C506 C507 1.386 . S
C506 C508 1.391 . S
C507 C506 1.386 . S
C507 C511 1.393 . S
C508 H497 0.950 1_545 S
C508 C506 1.391 . S
C508 C509 1.400 . S
C509 C503 1.491 . S
C509 C508 1.400 . S
C509 C510 1.398 . S
C510 H498 0.950 . S
C510 C509 1.398 . S
C510 C511 1.391 . S
C511 H499 0.950 . S
C511 C507 1.393 . S
C511 C510 1.391 . S
H512 C520 0.950 . S
H513 C525 0.950 . S
H514 C522 0.950 . S
H515 C524 0.950 1_556 S
H516 C526 0.950 . S
H517 C528 0.950 . S
H518 C530 0.950 . S
H519 C531 0.950 . S
C520 H512 0.950 . S
C520 C521 1.386 . S
C520 C522 1.391 . S
C521 C520 1.386 . S
C521 C525 1.393 . S
C522 H514 0.950 . S
C522 C520 1.391 . S
C522 C523 1.400 . S
C523 C522 1.400 . S
C523 C524 1.398 . S
C523 C529 1.491 1_554 S
C524 H515 0.950 1_554 S
C524 C523 1.398 . S
C524 C525 1.391 . S
C525 H513 0.950 . S
C525 C521 1.393 . S
C525 C524 1.391 . S
C526 H516 0.950 . S
C526 C527 1.386 . S
C526 C528 1.391 . S
C527 C526 1.386 . S
C527 C531 1.393 . S
C528 H517 0.950 . S
C528 C526 1.391 . S
C528 C529 1.400 . S
C529 C523 1.491 1_556 S
C529 C528 1.400 . S
C529 C530 1.398 1_556 S
C530 H518 0.950 . S
C530 C529 1.398 1_554 S
C530 C531 1.391 1_554 S
C531 H519 0.950 . S
C531 C527 1.393 . S
C531 C530 1.391 1_556 S
H532 C540 0.950 . S
H533 C545 0.950 . S
H534 C542 0.950 . S
H535 C544 0.950 . S
H536 C546 0.950 . S
H537 C548 0.950 . S
H538 C550 0.950 . S
H539 C551 0.950 . S
C540 H532 0.950 . S
C540 C541 1.386 . S
C540 C542 1.391 . S
C541 C540 1.386 . S
C541 C545 1.393 . S
C542 H534 0.950 . S
C542 C540 1.391 . S
C542 C543 1.400 . S
C543 C542 1.400 . S
C543 C544 1.398 . S
C543 C549 1.491 . S
C544 H535 0.950 . S
C544 C543 1.398 . S
C544 C545 1.391 . S
C545 H533 0.950 . S
C545 C541 1.393 . S
C545 C544 1.391 . S
C546 H536 0.950 . S
C546 C547 1.386 . S
C546 C548 1.391 . S
C547 C546 1.386 . S
C547 C551 1.393 . S
C548 H537 0.950 . S
C548 C546 1.391 . S
C548 C549 1.400 . S
C549 C543 1.491 . S
C549 C548 1.400 . S
C549 C550 1.398 . S
C550 H538 0.950 . S
C550 C549 1.398 . S
C550 C551 1.391 . S
C551 H539 0.950 . S
C551 C547 1.393 . S
C551 C550 1.391 . S
H552 C560 0.950 . S
H553 C565 0.950 . S
H554 C562 0.950 . S
H555 C564 0.950 . S
H556 C566 0.950 . S
H557 C568 0.950 1_554 S
H558 C570 0.950 . S
H559 C571 0.950 . S
C560 H552 0.950 . S
C560 C561 1.386 1_656 S
C560 C562 1.391 . S
C561 C560 1.386 1_454 S
C561 C565 1.393 . S
C562 H554 0.950 . S
C562 C560 1.391 . S
C562 C563 1.400 1_655 S
C563 C562 1.400 1_455 S
C563 C564 1.398 1_556 S
C563 C569 1.491 . S
C564 H555 0.950 . S
C564 C563 1.398 1_554 S
C564 C565 1.391 . S
C565 H553 0.950 . S
C565 C561 1.393 . S
C565 C564 1.391 . S
C566 H556 0.950 . S
C566 C567 1.386 . S
C566 C568 1.391 . S
C567 C566 1.386 . S
C567 C571 1.393 1_455 S
C568 H557 0.950 1_556 S
C568 C566 1.391 . S
C568 C569 1.400 . S
C569 C563 1.491 . S
C569 C568 1.400 . S
C569 C570 1.398 1_455 S
C570 H558 0.950 . S
C570 C569 1.398 1_655 S
C570 C571 1.391 . S
C571 H559 0.950 . S
C571 C567 1.393 1_655 S
C571 C570 1.391 . S
H572 C580 0.950 . S
H573 C585 0.950 . S
H574 C582 0.950 1_556 S
H575 C584 0.950 . S
H576 C586 0.950 . S
H577 C588 0.950 . S
H578 C590 0.950 . S
H579 C591 0.950 . S
C580 H572 0.950 . S
C580 C581 1.386 . S
C580 C582 1.391 . S
C581 C580 1.386 . S
C581 C585 1.393 1_545 S
C582 H574 0.950 1_554 S
C582 C580 1.391 . S
C582 C583 1.400 . S
C583 C582 1.400 . S
C583 C584 1.398 1_545 S
C583 C589 1.491 1_554 S
C584 H575 0.950 . S
C584 C583 1.398 1_565 S
C584 C585 1.391 . S
C585 H573 0.950 . S
C585 C581 1.393 1_565 S
C585 C584 1.391 . S
C586 H576 0.950 . S
C586 C587 1.386 1_565 S
C586 C588 1.391 . S
C587 C586 1.386 1_545 S
C587 C591 1.393 . S
C588 H577 0.950 . S
C588 C586 1.391 . S
C588 C589 1.400 1_565 S
C589 C583 1.491 1_556 S
C589 C588 1.400 1_545 S
C589 C590 1.398 . S
C590 H578 0.950 . S
C590 C589 1.398 . S
C590 C591 1.391 . S
C591 H579 0.950 . S
C591 C587 1.393 . S
C591 C590 1.391 . S
H592 C600 0.950 . S
H593 C605 0.950 . S
H594 C602 0.950 . S
H595 C604 0.950 . S
H596 C606 0.950 . S
H597 C608 0.950 . S
H598 C610 0.950 . S
H599 C611 0.950 . S
C600 H592 0.950 . S
C600 C601 1.386 . S
C600 C602 1.391 . S
C601 C600 1.386 . S
C601 C605 1.393 . S
C602 H594 0.950 . S
C602 C600 1.391 . S
C602 C603 1.400 . S
C603 C602 1.400 . S
C603 C604 1.398 . S
C603 C609 1.491 . S
C604 H595 0.950 . S
C604 C603 1.398 . S
C604 C605 1.391 . S
C605 H593 0.950 . S
C605 C601 1.393 . S
C605 C604 1.391 . S
C606 H596 0.950 . S
C606 C607 1.386 . S
C606 C608 1.391 1_556 S
C607 C606 1.386 . S
C607 C611 1.393 1_556 S
C608 H597 0.950 . S
C608 C606 1.391 1_554 S
C608 C609 1.400 . S
C609 C603 1.491 . S
C609 C608 1.400 . S
C609 C610 1.398 . S
C610 H598 0.950 . S
C610 C609 1.398 . S
C610 C611 1.391 . S
C611 H599 0.950 . S
C611 C607 1.393 1_554 S
C611 C610 1.391 . S
H612 C620 0.950 . S
H613 C625 0.950 . S
H614 C622 0.950 . S
H615 C624 0.950 . S
H616 C626 0.950 . S
H617 C628 0.950 . S
H618 C630 0.950 . S
H619 C631 0.950 . S
C620 H612 0.950 . S
C620 C621 1.386 . S
C620 C622 1.391 . S
C621 C620 1.386 . S
C621 C625 1.393 . S
C622 H614 0.950 . S
C622 C620 1.391 . S
C622 C623 1.400 . S
C623 C622 1.400 . S
C623 C624 1.398 . S
C623 C629 1.491 . S
C624 H615 0.950 . S
C624 C623 1.398 . S
C624 C625 1.391 . S
C625 H613 0.950 . S
C625 C621 1.393 . S
C625 C624 1.391 . S
C626 H616 0.950 . S
C626 C627 1.386 . S
C626 C628 1.391 . S
C627 C626 1.386 . S
C627 C631 1.393 . S
C628 H617 0.950 . S
C628 C626 1.391 . S
C628 C629 1.400 . S
C629 C623 1.491 . S
C629 C628 1.400 . S
C629 C630 1.398 . S
C630 H618 0.950 . S
C630 C629 1.398 . S
C630 C631 1.391 . S
C631 H619 0.950 . S
C631 C627 1.393 . S
C631 C630 1.391 . S
H632 C640 0.950 . S
H633 C645 0.950 . S
H634 C642 0.957 . S
H635 C644 0.950 . S
H636 C646 0.950 . S
H637 C648 0.950 . S
H638 C650 0.950 . S
H639 C651 0.950 1_455 S
C640 H632 0.950 . S
C640 C641 1.386 1_455 S
C640 C642 1.387 . S
C641 C640 1.386 1_655 S
C641 C645 1.393 . S
C642 H634 0.957 . S
C642 C640 1.387 . S
C642 C643 1.400 1_455 S
C643 C642 1.400 1_655 S
C643 C644 1.398 . S
C643 C649 1.491 . S
C644 H635 0.950 . S
C644 C643 1.398 . S
C644 C645 1.391 . S
C645 H633 0.950 . S
C645 C641 1.393 . S
C645 C644 1.391 . S
C646 H636 0.950 . S
C646 C647 1.386 . S
C646 C648 1.391 . S
C647 C646 1.386 . S
C647 C651 1.393 . S
C648 H637 0.950 . S
C648 C646 1.391 . S
C648 C649 1.400 . S
C649 C643 1.491 . S
C649 C648 1.400 . S
C649 C650 1.399 1_655 S
C650 H638 0.950 . S
C650 C649 1.399 1_455 S
C650 C651 1.390 1_455 S
C651 H639 0.950 1_655 S
C651 C647 1.393 . S
C651 C650 1.390 1_655 S
H652 C660 0.950 . S
H653 C665 0.950 . S
H654 C662 0.950 . S
H655 C664 0.950 . S
H656 C666 0.950 . S
H657 C668 0.950 . S
H658 C670 0.950 . S
H659 C671 0.950 . S
C660 H652 0.950 . S
C660 C661 1.386 1_545 S
C660 C662 1.391 . S
C661 C660 1.386 1_565 S
C661 C665 1.393 . S
C662 H654 0.950 . S
C662 C660 1.391 . S
C662 C663 1.400 1_545 S
C663 C662 1.400 1_565 S
C663 C664 1.398 . S
C663 C669 1.491 . S
C664 H655 0.950 . S
C664 C663 1.398 . S
C664 C665 1.391 . S
C665 H653 0.950 . S
C665 C661 1.393 . S
C665 C664 1.391 . S
C666 H656 0.950 . S
C666 C667 1.386 . S
C666 C668 1.391 . S
C667 C666 1.386 . S
C667 C671 1.393 1_565 S
C668 H657 0.950 . S
C668 C666 1.391 . S
C668 C669 1.400 . S
C669 C663 1.491 . S
C669 C668 1.400 . S
C669 C670 1.398 1_565 S
C670 H658 0.950 . S
C670 C669 1.398 1_545 S
C670 C671 1.391 . S
C671 H659 0.950 . S
C671 C667 1.393 1_545 S
C671 C670 1.391 . S
H672 C680 0.950 . S
H673 C685 0.950 . S
H674 C682 0.950 . S
H675 C684 0.950 . S
H676 C686 0.950 . S
H677 C688 0.950 . S
H678 C690 0.950 . S
H679 C691 0.950 . S
C680 H672 0.950 . S
C680 C681 1.386 . S
C680 C682 1.391 . S
C681 C680 1.386 . S
C681 C685 1.393 . S
C682 H674 0.950 . S
C682 C680 1.391 . S
C682 C683 1.400 . S
C683 C682 1.400 . S
C683 C684 1.398 . S
C683 C689 1.491 . S
C684 H675 0.950 . S
C684 C683 1.398 . S
C684 C685 1.391 . S
C685 H673 0.950 . S
C685 C681 1.393 . S
C685 C684 1.391 . S
C686 H676 0.950 . S
C686 C687 1.386 . S
C686 C688 1.391 . S
C687 C686 1.386 . S
C687 C691 1.393 . S
C688 H677 0.950 . S
C688 C686 1.391 . S
C688 C689 1.400 . S
C689 C683 1.491 . S
C689 C688 1.400 . S
C689 C690 1.398 . S
C690 H678 0.950 . S
C690 C689 1.398 . S
C690 C691 1.391 . S
C691 H679 0.950 . S
C691 C687 1.393 . S
C691 C690 1.391 . S
H692 C700 0.950 . S
H693 C705 0.950 . S
H694 C702 0.950 . S
H695 C704 0.950 . S
H696 C706 0.950 . S
H697 C708 0.950 . S
H698 C710 0.950 . S
H699 C711 0.950 . S
C700 H692 0.950 . S
C700 C701 1.386 . S
C700 C702 1.391 . S
C701 C700 1.386 . S
C701 C705 1.393 . S
C702 H694 0.950 . S
C702 C700 1.391 . S
C702 C703 1.400 . S
C703 C702 1.400 . S
C703 C704 1.398 . S
C703 C709 1.491 . S
C704 H695 0.950 . S
C704 C703 1.398 . S
C704 C705 1.391 . S
C705 H693 0.950 . S
C705 C701 1.393 . S
C705 C704 1.391 . S
C706 H696 0.950 . S
C706 C707 1.386 . S
C706 C708 1.391 . S
C707 C706 1.386 . S
C707 C711 1.393 . S
C708 H697 0.950 . S
C708 C706 1.391 . S
C708 C709 1.400 . S
C709 C703 1.491 . S
C709 C708 1.400 . S
C709 C710 1.398 . S
C710 H698 0.950 . S
C710 C709 1.398 . S
C710 C711 1.391 . S
C711 H699 0.950 . S
C711 C707 1.393 . S
C711 C710 1.391 . S
C241 C61 1.910 1_545 S
C247 C74 1.953 1_545 S
C267 C114 1.958 . S
C261 C70 1.921 . S
C287 C178 1.911 . S
C281 C43 1.816 . S
C307 C194 1.614 1_455 S
C301 C52 1.476 1_455 S
C327 C95 1.961 1_565 S
C321 C25 1.913 . S
C341 C34 1.928 . S
C347 C135 1.960 . S
C361 C7 1.851 . S
C367 C169 1.933 . S
C381 C16 1.475 . S
C387 C215 1.611 1_655 S
C407 C89 0.386 . S
C401 C50 0.325 1_455 S
C427 C129 0.624 . S
C421 C59 0.614 1_545 S
C447 C165 0.502 . S
C441 C67 0.477 . S
C461 C41 0.625 . S
C467 C209 0.640 . S
C481 C14 0.324 . S
C487 C98 0.383 . S
C507 C138 0.591 . S
C501 C23 0.597 . S
C527 C176 0.470 . S
C521 C31 0.454 . S
C541 C5 0.597 . S
C547 C218 0.621 . S
C561 C49 1.808 1_455 S
C567 C96 2.001 . S
C581 C58 1.798 1_545 S
C587 C136 1.987 . S
C607 C154 1.664 . S
C601 C68 1.634 . S
C627 C216 2.295 . S
C621 C40 2.062 . S
C641 C13 1.796 . S
C647 C85 2.008 . S
C667 C125 1.985 . S
C661 C22 1.800 . S
C687 C175 1.659 . S
C681 C32 1.624 . S
C701 C4 2.052 . S
C707 C205 2.306 . S
