# Generated by pormake.
# Topology anh, (6,3)-cn, num edge types: 1
# Building blocks:
#     Node 0, Type 0, BuildingBlock: GEDQOX_clean_sbu_0, # of connection points: 6
#     Node 1, Type 0, BuildingBlock: GEDQOX_clean_sbu_0, # of connection points: 6
#     Node 2, Type 0, BuildingBlock: GEDQOX_clean_sbu_0, # of connection points: 6
#     Node 3, Type 1, BuildingBlock: PAMTOO_clean_linker_0, # of connection points: 3
#     Node 4, Type 1, BuildingBlock: PAMTOO_clean_linker_0, # of connection points: 3
#     Node 5, Type 1, BuildingBlock: PAMTOO_clean_linker_0, # of connection points: 3
#     Node 6, Type 1, BuildingBlock: PAMTOO_clean_linker_0, # of connection points: 3
#     Node 7, Type 1, BuildingBlock: PAMTOO_clean_linker_0, # of connection points: 3
#     Node 8, Type 1, BuildingBlock: PAMTOO_clean_linker_0, # of connection points: 3
#     Edge 9, Type (0, 1), BuildingBlock: AJUNOK_clean_linker_0, # of connection points: 2
#     Edge 10, Type (0, 1), BuildingBlock: AJUNOK_clean_linker_0, # of connection points: 2
#     Edge 11, Type (0, 1), BuildingBlock: AJUNOK_clean_linker_0, # of connection points: 2
#     Edge 12, Type (0, 1), BuildingBlock: AJUNOK_clean_linker_0, # of connection points: 2
#     Edge 13, Type (0, 1), BuildingBlock: AJUNOK_clean_linker_0, # of connection points: 2
#     Edge 14, Type (0, 1), BuildingBlock: AJUNOK_clean_linker_0, # of connection points: 2
#     Edge 15, Type (0, 1), BuildingBlock: AJUNOK_clean_linker_0, # of connection points: 2
#     Edge 16, Type (0, 1), BuildingBlock: AJUNOK_clean_linker_0, # of connection points: 2
#     Edge 17, Type (0, 1), BuildingBlock: AJUNOK_clean_linker_0, # of connection points: 2
#     Edge 18, Type (0, 1), BuildingBlock: AJUNOK_clean_linker_0, # of connection points: 2
#     Edge 19, Type (0, 1), BuildingBlock: AJUNOK_clean_linker_0, # of connection points: 2
#     Edge 20, Type (0, 1), BuildingBlock: AJUNOK_clean_linker_0, # of connection points: 2
#     Edge 21, Type (0, 1), BuildingBlock: AJUNOK_clean_linker_0, # of connection points: 2
#     Edge 22, Type (0, 1), BuildingBlock: AJUNOK_clean_linker_0, # of connection points: 2
#     Edge 23, Type (0, 1), BuildingBlock: AJUNOK_clean_linker_0, # of connection points: 2
#     Edge 24, Type (0, 1), BuildingBlock: AJUNOK_clean_linker_0, # of connection points: 2
#     Edge 25, Type (0, 1), BuildingBlock: AJUNOK_clean_linker_0, # of connection points: 2
#     Edge 26, Type (0, 1), BuildingBlock: AJUNOK_clean_linker_0, # of connection points: 2
# Relax obj value: 0.223
# Max RMSD: 0.215
# Mean RMSD: 0.135
data_MOF--net-anh--node1-GEDQOX_clean_sbu_0--node2-PAMTOO_clean_linker_0--edge1-AJUNOK_clean_linker_0
_symmetry_space_group_name_H-M    P1
_symmetry_Int_Tables_number       1
_symmetry_cell_setting            triclinic
loop_
_symmetry_equiv_pos_as_xyz
'x, y, z'
_cell_length_a     21.620501
_cell_length_b     21.314527
_cell_length_c     36.573769
_cell_angle_alpha  88.96067
_cell_angle_beta   91.113644
_cell_angle_gamma 93.216987
loop_
_atom_site_label
_atom_site_type_symbol
_atom_site_fract_x
_atom_site_fract_y
_atom_site_fract_z
_atom_type_partial_charge
Nd0 Nd 0.22106 0.59199 0.1251 0.0
Nd1 Nd 0.20401 0.4667 0.15947 0.0
C2 C 0.26163 0.69774 0.0923 0.0
C3 C 0.30831 0.74774 0.10293 0.0
C4 C 0.34628 0.77763 0.07646 0.0
C5 C 0.39146 0.82419 0.08654 0.0
C6 C 0.39925 0.84199 0.12331 0.0
C7 C 0.36158 0.81124 0.1498 0.0
C8 C 0.31679 0.7645 0.13975 0.0
C9 C 0.20822 0.5932 0.20008 0.0
C10 C 0.34605 0.51599 0.1473 0.0
C11 C 0.16386 0.36844 0.1996 0.0
C12 C 1.10394 0.33235 0.20349 0.0
C13 C 1.04772 0.36188 0.1994 0.0
C14 C 0.99117 0.32686 0.20148 0.0
C15 C 0.9896 0.26153 0.20794 0.0
C16 C 1.04608 0.23224 0.21259 0.0
C17 C 1.10267 0.2673 0.21015 0.0
C18 C 0.22571 0.45985 0.08649 0.0
C19 C 1.08067 0.53796 0.12525 0.0
O20 O 0.28292 0.64316 0.08528 0.0
O21 O 0.21131 0.69277 0.11163 0.0
O22 O 0.18182 0.63164 0.17786 0.0
O23 O 0.24055 0.55726 0.1828 0.0
O24 O 0.32047 0.55781 0.12567 0.0
O25 O 0.3107 0.47807 0.16833 0.0
O26 O 0.16687 0.42617 0.21139 0.0
O27 O 0.19114 0.36342 0.16833 0.0
O28 O 0.25001 0.42448 0.11147 0.0
O29 O 0.18999 0.49813 0.1002 0.0
O30 O 1.10201 0.49762 0.14985 0.0
O31 O 1.12003 0.5747 0.10646 0.0
H32 H 0.34123 0.7647 0.048 0.0
H33 H 0.42076 0.84574 0.06559 0.0
H34 H 0.3663 0.82381 0.17832 0.0
H35 H 0.28873 0.74147 0.16082 0.0
H36 H 1.04746 0.41206 0.19455 0.0
H37 H 0.9486 0.35091 0.19783 0.0
H38 H 1.0466 0.18237 0.21867 0.0
H39 H 1.14551 0.2436 0.21352 0.0
Nd40 Nd 0.60901 0.0735 0.50754 0.0
Nd41 Nd 0.74282 0.08386 0.48741 0.0
C42 C 0.49713 0.04069 0.5318 0.0
C43 C 0.45007 0.98944 0.52307 0.0
C44 C 0.45708 0.92733 0.5356 0.0
C45 C 0.41425 0.87889 0.52523 0.0
C46 C 0.3637 0.89142 0.50203 0.0
C47 C 0.35571 0.95367 0.49038 0.0
C48 C 0.39831 1.00213 0.50085 0.0
C49 C 0.6303 0.07222 0.43338 0.0
C50 C 0.68593 0.94448 0.50328 0.0
C51 C 0.84924 0.11437 0.45529 0.0
C52 C 0.8906 0.17121 0.45027 0.0
C53 C 0.9129 0.18668 0.41531 0.0
C54 C 0.95077 0.24116 0.40959 0.0
C55 C 0.96748 0.28094 0.43881 0.0
C56 C 0.94532 0.26537 0.47387 0.0
C57 C 0.90696 0.21108 0.47955 0.0
C58 C 0.72627 0.07648 0.56136 0.0
C59 C 0.66775 0.21277 0.49975 0.0
O60 O 0.54814 1.02494 0.5486 0.0
O61 O 0.50744 0.08341 0.50619 0.0
O62 O 0.58667 0.10248 0.44757 0.0
O63 O 0.65928 0.04338 0.45781 0.0
O64 O 0.64033 0.97337 0.51801 0.0
O65 O 0.72916 0.97636 0.48446 0.0
O66 O 0.79561 0.11442 0.43813 0.0
O67 O 0.84545 0.09002 0.48832 0.0
O68 O 0.77036 0.05089 0.54447 0.0
O69 O 0.69405 0.10874 0.53955 0.0
O70 O 0.71156 0.18619 0.48175 0.0
O71 O 0.62627 0.17812 0.5182 0.0
H72 H 0.49606 0.91585 0.55301 0.0
H73 H 0.42135 0.83135 0.53474 0.0
H74 H 0.31636 0.96491 0.47319 0.0
H75 H 0.39114 0.04954 0.49114 0.0
H76 H 0.90065 0.15675 0.39235 0.0
H77 H 0.96732 0.2521 0.38231 0.0
H78 H 0.95675 0.29577 0.49672 0.0
H79 H 0.88976 0.20065 0.50673 0.0
Nd80 Nd 0.62226 0.5944 0.81801 0.0
Nd81 Nd 0.75678 0.60141 0.81808 0.0
C82 C 0.50388 0.5602 0.80957 0.0
C83 C 0.4712 0.50293 0.82361 0.0
C84 C 0.41319 0.48252 0.80928 0.0
C85 C 0.38493 0.42535 0.82129 0.0
C86 C 0.41464 0.38773 0.84757 0.0
C87 C 0.47277 0.40876 0.86182 0.0
C88 C 0.50073 0.4658 0.84998 0.0
C89 C 0.67512 0.60522 0.88724 0.0
C90 C 0.68281 0.73111 0.81333 0.0
C91 C 0.87754 0.62452 0.82545 0.0
C92 C 0.93144 0.58891 0.8175 0.0
C93 C 0.92674 0.54007 0.79216 0.0
C94 C 0.9755 0.50051 0.78854 0.0
C95 C 1.02931 0.50901 0.81044 0.0
C96 C 1.03482 0.56015 0.83437 0.0
C97 C 0.98629 0.59988 0.83776 0.0
C98 C 0.70654 0.58116 0.74978 0.0
C99 C 0.69519 0.46188 0.81836 0.0
O100 O 0.52453 0.59993 0.83437 0.0
O101 O 0.54508 0.55055 0.78493 0.0
O102 O 0.62713 0.63459 0.8763 0.0
O103 O 0.69199 0.56999 0.86258 0.0
O104 O 0.63534 0.6967 0.80035 0.0
O105 O 0.73028 0.70352 0.82862 0.0
O106 O 0.84289 0.60171 0.852 0.0
O107 O 0.84535 0.64293 0.79707 0.0
O108 O 0.75301 0.55221 0.7634 0.0
O109 O 0.68764 0.62024 0.77215 0.0
O110 O 0.74751 0.49431 0.82585 0.0
O111 O 0.64379 0.49078 0.81177 0.0
H112 H 0.39004 0.51048 0.78872 0.0
H113 H 0.33969 0.4109 0.81023 0.0
H114 H 0.49706 0.38065 0.8818 0.0
H115 H 0.54599 0.48054 0.86103 0.0
H116 H 0.88437 0.53079 0.7764 0.0
H117 H 0.96985 0.46125 0.77014 0.0
H118 H 1.07474 0.56688 0.85251 0.0
H119 H 0.99033 0.63709 0.85761 0.0
H120 H 0.76784 0.13268 0.28985 0.0
H121 H 0.60697 1.01652 0.25932 0.0
H122 H 0.73117 0.08897 0.17647 0.0
H123 H 0.59614 0.07223 0.1492 0.0
C124 C 0.57974 0.04085 0.17204 0.0
O125 O 0.63093 1.01697 0.18942 0.0
H126 H 0.55378 0.06895 0.19132 0.0
C127 C 0.7391 0.1101 0.26872 0.0
C128 C 0.75656 0.1158 0.23194 0.0
C129 C 0.68514 0.07503 0.2787 0.0
C130 C 0.64829 0.04454 0.25176 0.0
C131 C 0.66523 0.04915 0.21497 0.0
C132 C 0.71901 0.08508 0.20504 0.0
H133 H 0.68204 0.70495 0.59604 0.0
H134 H 0.68811 0.50621 0.57817 0.0
H135 H 0.7004 0.63614 0.48717 0.0
H136 H 0.65315 0.50017 0.46039 0.0
C137 C 0.65249 0.48607 0.48979 0.0
O138 O 0.70177 0.51718 0.50761 0.0
H139 H 0.60727 0.49983 0.50034 0.0
C140 C 0.68391 0.66578 0.57767 0.0
C141 C 0.68978 0.67797 0.54 0.0
C142 C 0.68282 0.60415 0.59191 0.0
C143 C 0.68834 0.55419 0.56782 0.0
C144 C 0.69491 0.56573 0.53022 0.0
C145 C 0.69584 0.62761 0.51631 0.0
H146 H 0.17662 0.41954 0.91444 0.0
H147 H 0.22671 0.2495 0.96987 0.0
H148 H 0.17904 0.24719 0.85528 0.0
H149 H 0.28037 0.12179 0.88827 0.0
C150 C 0.28174 0.16348 0.9061 0.0
O151 O 0.22154 0.18132 0.91072 0.0
H152 H 0.30085 0.14828 0.93306 0.0
C153 C 0.18463 0.36979 0.91395 0.0
C154 C 0.17586 0.33714 0.88118 0.0
C155 C 0.20143 0.33864 0.94629 0.0
C156 C 0.21221 0.27427 0.94532 0.0
C157 C 0.20548 0.24173 0.91235 0.0
C158 C 0.18569 0.27282 0.88049 0.0
H159 H 1.11817 0.48356 0.34766 0.0
H160 H 0.22668 0.65225 0.37438 0.0
H161 H 1.13991 0.54055 0.45995 0.0
H162 H 0.15376 0.67616 0.48129 0.0
C163 C 0.18277 0.69133 0.45761 0.0
O164 O 0.21229 0.64029 0.44515 0.0
H165 H 0.15115 0.70999 0.43612 0.0
C166 C 1.13675 0.51629 0.36799 0.0
C167 C 1.12401 0.50523 0.40515 0.0
C168 C 0.17316 0.56932 0.35667 0.0
C169 C 0.19785 0.61153 0.3828 0.0
C170 C 0.18638 0.60062 0.42001 0.0
C171 C 1.14937 0.54776 0.43115 0.0
H172 H 0.6891 0.96535 0.71827 0.0
H173 H 0.72202 0.16489 0.73066 0.0
H174 H 0.71294 0.04315 0.82569 0.0
H175 H 0.69157 0.17371 0.85195 0.0
C176 C 0.68384 0.18622 0.82267 0.0
O177 O 0.72892 0.16013 0.80241 0.0
H178 H 0.63695 0.16568 0.81507 0.0
C179 C 0.69621 1.00577 0.73577 0.0
C180 C 0.69882 0.99676 0.77383 0.0
C181 C 0.70579 0.06583 0.71985 0.0
C182 C 0.71436 0.11821 0.74252 0.0
C183 C 0.71707 0.10993 0.78068 0.0
C184 C 0.71026 0.04917 0.79623 0.0
H185 H 0.83497 0.56019 0.03315 0.0
H186 H 0.64083 0.55291 0.05686 0.0
H187 H 0.77397 0.52472 0.14368 0.0
H188 H 0.63185 0.45065 0.15441 0.0
C189 C 0.6138 0.4793 0.13129 0.0
O190 O 0.65362 0.5324 0.12689 0.0
H191 H 0.61322 0.45001 0.10638 0.0
C192 C 0.79815 0.55453 0.05283 0.0
C193 C 0.81305 0.54327 0.09001 0.0
C194 C 0.73637 0.55813 0.04061 0.0
C195 C 0.68852 0.54927 0.06589 0.0
C196 C 0.70138 0.53652 0.10291 0.0
C197 C 0.76384 0.53296 0.11494 0.0
C198 C 0.44393 0.45912 0.16207 0.0
C199 C 0.41525 0.51082 0.14597 0.0
C200 C 0.50792 0.45116 0.15826 0.0
C201 C 0.54668 0.49481 0.13858 0.0
H202 H 0.4165 0.42337 0.1769 0.0
H203 H 0.52707 0.40944 0.17019 0.0
S204 S 0.49578 0.64003 0.09212 0.0
N205 N 0.43212 0.60802 0.11044 0.0
N206 N 0.55099 0.59231 0.10308 0.0
C207 C 0.51885 0.54725 0.12282 0.0
C208 C 0.4538 0.55554 0.12672 0.0
C209 C 0.99035 0.38157 0.40429 0.0
C210 C 1.00681 0.33925 0.43226 0.0
C211 C 1.02776 0.43575 0.39644 0.0
C212 C 1.08341 0.44959 0.41607 0.0
H213 H 0.94815 0.37269 0.38831 0.0
H214 H 1.0131 0.46696 0.37463 0.0
S215 S 1.14828 0.35251 0.49119 0.0
N216 N 1.08259 0.31416 0.47943 0.0
N217 N 0.15358 0.41565 0.46433 0.0
C218 C 1.10015 0.40787 0.44435 0.0
C219 C 1.06174 0.35279 0.4525 0.0
C220 C 0.63767 0.82789 0.7869 0.0
C221 C 0.68458 0.80061 0.80807 0.0
C222 C 0.6413 0.89197 0.77753 0.0
C223 C 0.69169 0.93173 0.78912 0.0
H224 H 0.59868 0.79924 0.77626 0.0
H225 H 0.60514 0.91028 0.76013 0.0
S226 S 0.82455 0.88566 0.8473 0.0
N227 N 0.78139 0.81985 0.84231 0.0
N228 N 0.78803 0.94036 0.82438 0.0
C229 C 0.73746 0.90607 0.81173 0.0
C230 C 0.73399 0.84054 0.82123 0.0
C231 C 0.96922 0.49298 0.13006 0.0
C232 C 1.01195 0.54126 0.11799 0.0
C233 C 0.90489 0.49463 0.12225 0.0
C234 C 0.88033 0.54458 0.10189 0.0
H235 H 0.9856 0.45268 0.14493 0.0
H236 H 0.87444 0.45551 0.13122 0.0
S237 S 0.97039 0.68606 0.06709 0.0
N238 N 1.02314 0.64285 0.08666 0.0
N239 N 0.90358 0.64594 0.07241 0.0
C240 C 0.9222 0.59408 0.09079 0.0
C241 C 0.9874 0.5924 0.09865 0.0
C242 C 0.29188 0.7978 0.51607 0.0
C243 C 0.31918 0.83976 0.4901 0.0
C244 C 0.24823 0.74996 0.50547 0.0
C245 C 0.2303 0.74247 0.46854 0.0
H246 H 0.30355 0.80265 0.54485 0.0
H247 H 0.22792 0.71899 0.52633 0.0
S248 S 0.29258 0.83561 0.38962 0.0
N249 N 0.32838 0.86762 0.42559 0.0
N250 N 0.24622 0.77789 0.40582 0.0
C251 C 0.25868 0.78272 0.44225 0.0
C252 C 0.30295 0.83146 0.45299 0.0
C253 C 0.74417 0.35832 0.8288 0.0
C254 C 0.69272 0.39186 0.81731 0.0
C255 C 0.74144 0.29222 0.82952 0.0
C256 C 0.68739 0.2571 0.81854 0.0
H257 H 0.78656 0.38317 0.83797 0.0
H258 H 0.78156 0.26828 0.83936 0.0
S259 S 0.54057 0.32127 0.78456 0.0
N260 N 0.58642 0.38386 0.79337 0.0
N261 N 0.58185 0.26041 0.79493 0.0
C262 C 0.63613 0.2898 0.80625 0.0
C263 C 0.63868 0.35692 0.80556 0.0
C264 C 0.638 0.84356 0.52785 0.0
C265 C 0.68697 0.87519 0.50887 0.0
C266 C 0.63855 0.77947 0.53643 0.0
C267 C 0.68784 0.74378 0.52627 0.0
H268 H 0.59907 0.86858 0.53699 0.0
H269 H 0.60046 0.75781 0.55184 0.0
S270 S 0.82596 0.80182 0.47458 0.0
N271 N 0.7852 0.86452 0.47872 0.0
N272 N 0.78594 0.74341 0.49505 0.0
C273 C 0.7361 0.77368 0.50611 0.0
C274 C 0.73577 0.83948 0.4974 0.0
C275 C 1.05 0.3968 0.8219 0.0
C276 C 1.07348 0.45857 0.81435 0.0
C277 C 1.0871 0.35314 0.83929 0.0
C278 C 1.14843 0.37022 0.84971 0.0
H279 H 1.00108 0.38412 0.81824 0.0
H280 H 1.06553 0.30863 0.84847 0.0
S281 S 0.23634 0.5193 0.82676 0.0
N282 N 0.16545 0.52939 0.81088 0.0
N283 N 0.23471 0.44756 0.84472 0.0
C284 C 0.17476 0.4284 0.83763 0.0
C285 C 1.13726 0.47266 0.81963 0.0
C286 C 0.48511 0.88333 0.16526 0.0
C287 C 0.4465 0.89222 0.13433 0.0
C288 C 0.52851 0.93062 0.17695 0.0
C289 C 0.53587 0.98843 0.15781 0.0
H290 H 0.4817 0.83943 0.18067 0.0
H291 H 0.5562 0.92188 0.20131 0.0
S292 S 0.44293 0.03753 0.07699 0.0
N293 N 0.41602 0.96504 0.0862 0.0
N294 N 0.4983 0.05325 0.10775 0.0
C295 C 0.497 0.99826 0.1272 0.0
C296 C 0.45253 0.95028 0.11541 0.0
C297 C 0.69596 0.31815 0.47127 0.0
C298 C 0.66536 0.28237 0.49895 0.0
C299 C 0.69213 0.38363 0.46876 0.0
C300 C 0.65757 0.41587 0.4938 0.0
H301 H 0.7222 0.29538 0.45088 0.0
H302 H 0.71568 0.4092 0.44674 0.0
S303 S 0.57471 0.34587 0.57379 0.0
N304 N 0.60319 0.28533 0.55365 0.0
N305 N 0.59654 0.4083 0.54887 0.0
C306 C 0.62893 0.38126 0.52247 0.0
C307 C 0.63245 0.31455 0.52497 0.0
C308 C 0.38421 0.31447 0.8991 0.0
C309 C 0.38465 0.3277 0.86124 0.0
C310 C 0.35431 0.25953 0.91308 0.0
C311 C 0.32345 0.21587 0.88978 0.0
H312 H 0.40546 0.34777 0.91823 0.0
H313 H 0.35302 0.25239 0.94246 0.0
S314 S 0.31363 0.22621 0.78863 0.0
N315 N 0.35471 0.29051 0.80057 0.0
N316 N 0.29638 0.18821 0.82718 0.0
C317 C 0.32466 0.22761 0.8519 0.0
C318 C 0.35562 0.28334 0.83757 0.0
C319 C 0.88243 0.24783 0.23298 0.0
C320 C 0.92913 0.22482 0.21145 0.0
C321 C 0.82628 0.21311 0.23841 0.0
C322 C 0.81426 0.15383 0.22257 0.0
H323 H 0.88989 0.29241 0.24659 0.0
H324 H 0.79219 0.23261 0.25562 0.0
S325 S 0.91969 0.07381 0.16207 0.0
N326 N 0.9581 0.14051 0.17239 0.0
N327 N 0.85324 0.07437 0.18354 0.0
C328 C 0.85981 0.1309 0.20017 0.0
C329 C 0.91709 0.16644 0.19452 0.0
C330 C 0.26808 0.40045 0.03604 0.0
C331 C 0.22152 0.43796 0.04849 0.0
C332 C 0.26148 0.36903 0.00282 0.0
C333 C 0.20796 0.37387 0.98085 0.0
H334 H 0.30937 0.3939 0.05263 0.0
H335 H 0.29831 0.3403 -0.00557 0.0
S336 S 1.07267 0.46684 0.00085 0.0
N337 N 1.12074 0.47951 0.03591 0.0
N338 N 1.10763 0.41963 0.97359 0.0
C339 C 0.16166 0.41266 -0.00753 0.0
C340 C 0.16866 0.44505 0.02625 0.0
C341 C 0.60575 0.10112 0.36824 0.0
C342 C 0.64281 0.06937 0.3938 0.0
C343 C 0.6183 0.10098 0.3307 0.0
C344 C 0.66868 0.06969 0.31765 0.0
H345 H 0.56722 0.12686 0.37729 0.0
H346 H 0.58952 0.12689 0.31188 0.0
S347 S 0.77784 0.97689 0.37252 0.0
N348 N 0.73009 1.00289 0.40276 0.0
N349 N 0.75443 1.0046 0.33245 0.0
C350 C 0.70533 1.03693 0.34266 0.0
C351 C 0.69217 1.03622 0.38071 0.0
C352 C 0.72967 0.54805 0.68685 0.0
C353 C 0.69327 0.58241 0.70995 0.0
C354 C 0.72405 0.55341 0.64877 0.0
C355 C 0.68143 0.59295 0.63217 0.0
H356 H 0.7646 0.5184 0.69817 0.0
H357 H 0.75535 0.52839 0.63227 0.0
S358 S 0.56868 0.68573 0.6804 0.0
N359 N 0.60899 0.65266 0.71361 0.0
N360 N 0.59714 0.6616 0.64182 0.0
C361 C 0.64204 0.62468 0.65495 0.0
C362 C 0.64819 0.61958 0.69386 0.0
C363 C 0.67892 0.11104 0.61961 0.0
C364 C 0.72182 0.07533 0.60177 0.0
C365 C 0.67471 0.10946 0.65802 0.0
C366 C 0.71289 0.0717 0.67964 0.0
H367 H 0.64827 0.14009 0.60385 0.0
H368 H 0.64057 0.13674 0.67081 0.0
S369 S 0.83467 0.97197 0.64667 0.0
N370 N 0.80441 1.00267 0.60913 0.0
N371 N 0.79667 1.00045 0.68075 0.0
C372 C 0.7566 1.03693 0.66216 0.0
C373 C 0.76097 0.03848 0.62337 0.0
C374 C 0.66299 0.54327 0.94536 0.0
C375 C 0.69069 0.59486 0.9262 0.0
C376 C 0.6778 0.53194 0.98238 0.0
C377 C 0.72146 0.57135 0.00136 0.0
H378 H 0.62964 0.51151 0.93161 0.0
H379 H 0.65549 0.49157 -0.00385 0.0
S380 S 0.80588 0.7134 0.96312 0.0
N381 N 0.76272 0.68609 0.92852 0.0
N382 N 0.79111 0.66492 -0.00196 0.0
C383 C 0.74938 0.62317 0.98229 0.0
C384 C 0.73381 0.63491 0.94471 0.0
C385 C 0.22602 0.54094 0.26063 0.0
C386 C 0.2017 0.59088 0.24028 0.0
C387 C 0.21741 0.53492 0.29841 0.0
C388 C 0.18555 0.57946 0.31735 0.0
H389 H 0.25088 0.50543 0.24719 0.0
H390 H 0.23545 0.4949 0.31293 0.0
S391 S 1.11589 0.72071 0.27756 0.0
N392 N 1.14593 0.68677 0.24227 0.0
N393 N 1.13135 0.67608 0.31363 0.0
C394 C 0.16281 0.63071 0.29772 0.0
C395 C 0.17053 0.6363 0.25908 0.0
loop_
_geom_bond_atom_site_label_1
_geom_bond_atom_site_label_2
_geom_bond_distance
_geom_bond_site_symmetry_2
_ccdc_geom_bond_type
Nd0 C2 2.836 . S
Nd0 O20 2.500 . S
Nd0 O21 2.492 . S
Nd0 O22 2.487 . S
Nd0 O23 2.682 1_455 S
Nd0 O24 2.410 . S
Nd0 O29 2.414 . S
Nd0 O31 2.424 1_455 S
Nd1 C11 2.836 . S
Nd1 O23 2.414 . S
Nd1 O25 2.424 1_655 S
Nd1 O26 2.500 . S
Nd1 O27 2.492 . S
Nd1 O28 2.487 . S
Nd1 O29 2.682 1_655 S
Nd1 O30 2.410 . S
C2 Nd0 2.836 . S
C2 C3 1.498 . S
C2 O20 1.258 . S
C2 O21 1.239 . S
C3 C2 1.498 . S
C3 C4 1.366 . S
C3 C8 1.407 . S
C4 C3 1.366 . S
C4 C5 1.392 . S
C4 H32 0.930 . S
C5 C4 1.392 . S
C5 C6 1.398 . S
C5 H33 0.929 . S
C6 C5 1.398 . S
C6 C7 1.352 . S
C7 C6 1.352 . S
C7 C8 1.384 . S
C7 H34 0.930 . S
C8 C3 1.407 . S
C8 C7 1.384 . S
C8 H35 0.929 . S
C9 O22 1.241 . S
C9 O23 1.273 1_455 S
C10 O24 1.251 . S
C10 O25 1.268 . S
C11 Nd1 2.836 . S
C11 C12 1.498 . S
C11 O26 1.258 . S
C11 O27 1.239 . S
C12 C11 1.498 . S
C12 C13 1.366 . S
C12 C17 1.407 . S
C13 C12 1.366 . S
C13 C14 1.392 . S
C13 H36 0.930 . S
C14 C13 1.392 . S
C14 C15 1.398 . S
C14 H37 0.929 . S
C15 C14 1.398 . S
C15 C16 1.352 . S
C16 C15 1.352 . S
C16 C17 1.384 . S
C16 H38 0.930 . S
C17 C12 1.407 . S
C17 C16 1.384 . S
C17 H39 0.929 . S
C18 O28 1.241 1_455 S
C18 O29 1.273 . S
C19 O30 1.251 . S
C19 O31 1.268 . S
O20 Nd0 2.500 . S
O20 C2 1.258 . S
O21 Nd0 2.492 . S
O21 C2 1.239 . S
O22 Nd0 2.487 . S
O22 C9 1.241 . S
O23 Nd0 2.682 1_655 S
O23 Nd1 2.414 . S
O23 C9 1.273 1_655 S
O24 Nd0 2.410 . S
O24 C10 1.251 . S
O25 Nd1 2.424 1_455 S
O25 C10 1.268 . S
O26 Nd1 2.500 . S
O26 C11 1.258 . S
O27 Nd1 2.492 . S
O27 C11 1.239 . S
O28 Nd1 2.487 . S
O28 C18 1.241 1_655 S
O29 Nd0 2.414 . S
O29 Nd1 2.682 1_455 S
O29 C18 1.273 . S
O30 Nd1 2.410 . S
O30 C19 1.251 . S
O31 Nd0 2.424 1_655 S
O31 C19 1.268 . S
H32 C4 0.930 . S
H33 C5 0.929 . S
H34 C7 0.930 . S
H35 C8 0.929 . S
H36 C13 0.930 . S
H37 C14 0.929 . S
H38 C16 0.930 . S
H39 C17 0.929 . S
Nd40 C42 2.836 . S
Nd40 O60 2.500 . S
Nd40 O61 2.492 . S
Nd40 O62 2.487 . S
Nd40 O63 2.682 1_565 S
Nd40 O64 2.410 . S
Nd40 O69 2.414 . S
Nd40 O71 2.424 1_565 S
Nd41 C51 2.836 . S
Nd41 O63 2.414 . S
Nd41 O65 2.424 1_545 S
Nd41 O66 2.500 . S
Nd41 O67 2.492 . S
Nd41 O68 2.487 . S
Nd41 O69 2.682 1_545 S
Nd41 O70 2.410 . S
C42 Nd40 2.836 . S
C42 C43 1.498 . S
C42 O60 1.258 . S
C42 O61 1.239 . S
C43 C42 1.498 . S
C43 C44 1.366 . S
C43 C48 1.407 . S
C44 C43 1.366 . S
C44 C45 1.392 . S
C44 H72 0.930 . S
C45 C44 1.392 . S
C45 C46 1.398 . S
C45 H73 0.929 . S
C46 C45 1.398 . S
C46 C47 1.352 . S
C47 C46 1.352 . S
C47 C48 1.384 . S
C47 H74 0.930 . S
C48 C43 1.407 . S
C48 C47 1.384 . S
C48 H75 0.929 . S
C49 O62 1.241 1_545 S
C49 O63 1.273 . S
C50 O64 1.251 . S
C50 O65 1.268 . S
C51 Nd41 2.836 . S
C51 C52 1.498 . S
C51 O66 1.258 . S
C51 O67 1.239 . S
C52 C51 1.498 . S
C52 C53 1.366 . S
C52 C57 1.407 . S
C53 C52 1.366 . S
C53 C54 1.392 . S
C53 H76 0.930 . S
C54 C53 1.392 . S
C54 C55 1.398 . S
C54 H77 0.929 . S
C55 C54 1.398 . S
C55 C56 1.352 . S
C56 C55 1.352 . S
C56 C57 1.384 . S
C56 H78 0.930 . S
C57 C52 1.407 . S
C57 C56 1.384 . S
C57 H79 0.929 . S
C58 O68 1.241 . S
C58 O69 1.273 1_545 S
C59 O70 1.251 . S
C59 O71 1.268 . S
O60 Nd40 2.500 . S
O60 C42 1.258 . S
O61 Nd40 2.492 . S
O61 C42 1.239 . S
O62 Nd40 2.487 . S
O62 C49 1.241 1_565 S
O63 Nd40 2.682 1_545 S
O63 Nd41 2.414 . S
O63 C49 1.273 . S
O64 Nd40 2.410 . S
O64 C50 1.251 . S
O65 Nd41 2.424 1_565 S
O65 C50 1.268 . S
O66 Nd41 2.500 . S
O66 C51 1.258 . S
O67 Nd41 2.492 . S
O67 C51 1.239 . S
O68 Nd41 2.487 . S
O68 C58 1.241 . S
O69 Nd40 2.414 . S
O69 Nd41 2.682 1_565 S
O69 C58 1.273 1_565 S
O70 Nd41 2.410 . S
O70 C59 1.251 . S
O71 Nd40 2.424 1_545 S
O71 C59 1.268 . S
H72 C44 0.930 . S
H73 C45 0.929 . S
H74 C47 0.930 . S
H75 C48 0.929 . S
H76 C53 0.930 . S
H77 C54 0.929 . S
H78 C56 0.930 . S
H79 C57 0.929 . S
Nd80 C82 2.836 . S
Nd80 O100 2.500 . S
Nd80 O101 2.492 . S
Nd80 O102 2.487 . S
Nd80 O103 2.682 . S
Nd80 O104 2.410 . S
Nd80 O109 2.414 . S
Nd80 O111 2.424 . S
Nd81 C91 2.836 . S
Nd81 O103 2.414 . S
Nd81 O105 2.424 . S
Nd81 O106 2.500 . S
Nd81 O107 2.492 . S
Nd81 O108 2.487 . S
Nd81 O109 2.682 . S
Nd81 O110 2.410 . S
C82 Nd80 2.836 . S
C82 C83 1.498 . S
C82 O100 1.258 . S
C82 O101 1.239 . S
C83 C82 1.498 . S
C83 C84 1.366 . S
C83 C88 1.407 . S
C84 C83 1.366 . S
C84 C85 1.392 . S
C84 H112 0.930 . S
C85 C84 1.392 . S
C85 C86 1.398 . S
C85 H113 0.929 . S
C86 C85 1.398 . S
C86 C87 1.352 . S
C87 C86 1.352 . S
C87 C88 1.384 . S
C87 H114 0.930 . S
C88 C83 1.407 . S
C88 C87 1.384 . S
C88 H115 0.929 . S
C89 O102 1.241 . S
C89 O103 1.273 . S
C90 O104 1.251 . S
C90 O105 1.268 . S
C91 Nd81 2.836 . S
C91 C92 1.498 . S
C91 O106 1.258 . S
C91 O107 1.239 . S
C92 C91 1.498 . S
C92 C93 1.366 . S
C92 C97 1.407 . S
C93 C92 1.366 . S
C93 C94 1.392 . S
C93 H116 0.930 . S
C94 C93 1.392 . S
C94 C95 1.398 . S
C94 H117 0.929 . S
C95 C94 1.398 . S
C95 C96 1.352 . S
C96 C95 1.352 . S
C96 C97 1.384 . S
C96 H118 0.930 . S
C97 C92 1.407 . S
C97 C96 1.384 . S
C97 H119 0.929 . S
C98 O108 1.241 . S
C98 O109 1.273 . S
C99 O110 1.251 . S
C99 O111 1.268 . S
O100 Nd80 2.500 . S
O100 C82 1.258 . S
O101 Nd80 2.492 . S
O101 C82 1.239 . S
O102 Nd80 2.487 . S
O102 C89 1.241 . S
O103 Nd80 2.682 . S
O103 Nd81 2.414 . S
O103 C89 1.273 . S
O104 Nd80 2.410 . S
O104 C90 1.251 . S
O105 Nd81 2.424 . S
O105 C90 1.268 . S
O106 Nd81 2.500 . S
O106 C91 1.258 . S
O107 Nd81 2.492 . S
O107 C91 1.239 . S
O108 Nd81 2.487 . S
O108 C98 1.241 . S
O109 Nd80 2.414 . S
O109 Nd81 2.682 . S
O109 C98 1.273 . S
O110 Nd81 2.410 . S
O110 C99 1.251 . S
O111 Nd80 2.424 . S
O111 C99 1.268 . S
H112 C84 0.930 . S
H113 C85 0.929 . S
H114 C87 0.930 . S
H115 C88 0.929 . S
H116 C93 0.930 . S
H117 C94 0.929 . S
H118 C96 0.930 . S
H119 C97 0.929 . S
H120 C127 0.929 . S
H121 C130 0.930 . S
H122 C132 0.929 . S
H123 C124 0.969 . S
C124 H123 0.969 . S
C124 O125 1.550 . S
C124 H126 0.973 . S
O125 C124 1.550 . S
O125 C131 1.412 1_565 S
H126 C124 0.973 . S
C127 H120 0.929 . S
C127 C128 1.400 . S
C127 C129 1.364 . S
C128 C127 1.400 . S
C128 C132 1.377 . S
C129 C127 1.364 . S
C129 C130 1.374 1_545 S
C130 H121 0.930 . S
C130 C129 1.374 1_565 S
C130 C131 1.383 1_565 S
C131 O125 1.412 1_545 S
C131 C130 1.383 1_545 S
C131 C132 1.394 . S
C132 H122 0.929 . S
C132 C128 1.377 . S
C132 C131 1.394 . S
H133 C140 0.929 . S
H134 C143 0.930 . S
H135 C145 0.929 . S
H136 C137 0.969 . S
C137 H136 0.969 . S
C137 O138 1.550 . S
C137 H139 0.973 . S
O138 C137 1.550 . S
O138 C144 1.412 . S
H139 C137 0.973 . S
C140 H133 0.929 . S
C140 C141 1.400 . S
C140 C142 1.364 . S
C141 C140 1.400 . S
C141 C145 1.377 . S
C142 C140 1.364 . S
C142 C143 1.374 . S
C143 H134 0.930 . S
C143 C142 1.374 . S
C143 C144 1.383 . S
C144 O138 1.412 . S
C144 C143 1.383 . S
C144 C145 1.394 . S
C145 H135 0.929 . S
C145 C141 1.377 . S
C145 C144 1.394 . S
H146 C153 0.929 . S
H147 C156 0.930 . S
H148 C158 0.929 . S
H149 C150 0.969 . S
C150 H149 0.969 . S
C150 O151 1.550 . S
C150 H152 0.973 . S
O151 C150 1.550 . S
O151 C157 1.412 . S
H152 C150 0.973 . S
C153 H146 0.929 . S
C153 C154 1.400 . S
C153 C155 1.364 1_655 S
C154 C153 1.400 . S
C154 C158 1.377 1_655 S
C155 C153 1.364 1_455 S
C155 C156 1.374 . S
C156 H147 0.930 . S
C156 C155 1.374 . S
C156 C157 1.383 . S
C157 O151 1.412 . S
C157 C156 1.383 . S
C157 C158 1.394 . S
C158 H148 0.929 . S
C158 C154 1.377 1_455 S
C158 C157 1.394 . S
H159 C166 0.929 . S
H160 C169 0.930 . S
H161 C171 0.929 . S
H162 C163 0.969 . S
C163 H162 0.969 . S
C163 O164 1.550 . S
C163 H165 0.973 . S
O164 C163 1.550 . S
O164 C170 1.412 . S
H165 C163 0.973 . S
C166 H159 0.929 . S
C166 C167 1.400 . S
C166 C168 1.364 1_655 S
C167 C166 1.400 . S
C167 C171 1.377 1_655 S
C168 C166 1.364 1_455 S
C168 C169 1.374 . S
C169 H160 0.930 . S
C169 C168 1.374 . S
C169 C170 1.383 . S
C170 O164 1.412 . S
C170 C169 1.383 . S
C170 C171 1.394 . S
C171 H161 0.929 . S
C171 C167 1.377 1_455 S
C171 C170 1.394 . S
H172 C179 0.929 . S
H173 C182 0.930 . S
H174 C184 0.929 . S
H175 C176 0.969 . S
C176 H175 0.969 . S
C176 O177 1.550 . S
C176 H178 0.973 . S
O177 C176 1.550 . S
O177 C183 1.412 . S
H178 C176 0.973 . S
C179 H172 0.929 . S
C179 C180 1.400 . S
C179 C181 1.364 . S
C180 C179 1.400 . S
C180 C184 1.377 . S
C181 C179 1.364 . S
C181 C182 1.374 1_565 S
C182 H173 0.930 . S
C182 C181 1.374 1_545 S
C182 C183 1.383 . S
C183 O177 1.412 . S
C183 C182 1.383 . S
C183 C184 1.394 1_545 S
C184 H174 0.929 . S
C184 C180 1.377 . S
C184 C183 1.394 1_565 S
H185 C192 0.929 . S
H186 C195 0.930 . S
H187 C197 0.929 . S
H188 C189 0.969 . S
C189 H188 0.969 . S
C189 O190 1.550 . S
C189 H191 0.973 . S
O190 C189 1.550 . S
O190 C196 1.412 . S
H191 C189 0.973 . S
C192 H185 0.929 . S
C192 C193 1.400 . S
C192 C194 1.364 . S
C193 C192 1.400 . S
C193 C197 1.377 . S
C194 C192 1.364 . S
C194 C195 1.374 . S
C195 H186 0.930 . S
C195 C194 1.374 . S
C195 C196 1.383 . S
C196 O190 1.412 . S
C196 C195 1.383 . S
C196 C197 1.394 . S
C197 H187 0.929 . S
C197 C193 1.377 . S
C197 C196 1.394 . S
C198 C199 1.369 . S
C198 C200 1.419 . S
C198 H202 0.930 . S
C199 C198 1.369 . S
C199 C208 1.429 . S
C200 C198 1.419 . S
C200 C201 1.363 . S
C200 H203 0.929 . S
C201 C200 1.363 . S
C201 C207 1.428 . S
H202 C198 0.930 . S
H203 C200 0.929 . S
S204 N205 1.613 . S
S204 N206 1.610 . S
N205 S204 1.613 . S
N205 C208 1.350 . S
N206 S204 1.610 . S
N206 C207 1.351 . S
C207 C201 1.428 . S
C207 N206 1.351 . S
C207 C208 1.434 . S
C208 C199 1.429 . S
C208 N205 1.350 . S
C208 C207 1.434 . S
C209 C210 1.369 . S
C209 C211 1.419 . S
C209 H213 0.930 . S
C210 C209 1.369 . S
C210 C219 1.429 . S
C211 C209 1.419 . S
C211 C212 1.363 . S
C211 H214 0.929 . S
C212 C211 1.363 . S
C212 C218 1.428 . S
H213 C209 0.930 . S
H214 C211 0.929 . S
S215 N216 1.613 . S
S215 N217 1.610 . S
N216 S215 1.613 . S
N216 C219 1.350 . S
N217 S215 1.610 . S
N217 C218 1.351 . S
C218 C212 1.428 . S
C218 N217 1.351 . S
C218 C219 1.434 . S
C219 C210 1.429 . S
C219 N216 1.350 . S
C219 C218 1.434 . S
C220 C221 1.369 . S
C220 C222 1.419 . S
C220 H224 0.930 . S
C221 C220 1.369 . S
C221 C230 1.429 . S
C222 C220 1.419 . S
C222 C223 1.363 . S
C222 H225 0.929 . S
C223 C222 1.363 . S
C223 C229 1.428 . S
H224 C220 0.930 . S
H225 C222 0.929 . S
S226 N227 1.613 . S
S226 N228 1.610 . S
N227 S226 1.613 . S
N227 C230 1.350 . S
N228 S226 1.610 . S
N228 C229 1.351 . S
C229 C223 1.428 . S
C229 N228 1.351 . S
C229 C230 1.434 . S
C230 C221 1.429 . S
C230 N227 1.350 . S
C230 C229 1.434 . S
C231 C232 1.369 . S
C231 C233 1.419 . S
C231 H235 0.930 . S
C232 C231 1.369 . S
C232 C241 1.429 . S
C233 C231 1.419 . S
C233 C234 1.363 . S
C233 H236 0.929 . S
C234 C233 1.363 . S
C234 C240 1.428 . S
H235 C231 0.930 . S
H236 C233 0.929 . S
S237 N238 1.613 . S
S237 N239 1.610 . S
N238 S237 1.613 . S
N238 C241 1.350 . S
N239 S237 1.610 . S
N239 C240 1.351 . S
C240 C234 1.428 . S
C240 N239 1.351 . S
C240 C241 1.434 . S
C241 C232 1.429 . S
C241 N238 1.350 . S
C241 C240 1.434 . S
C242 C243 1.369 . S
C242 C244 1.419 . S
C242 H246 0.930 . S
C243 C242 1.369 . S
C243 C252 1.429 . S
C244 C242 1.419 . S
C244 C245 1.363 . S
C244 H247 0.929 . S
C245 C244 1.363 . S
C245 C251 1.428 . S
H246 C242 0.930 . S
H247 C244 0.929 . S
S248 N249 1.613 . S
S248 N250 1.610 . S
N249 S248 1.613 . S
N249 C252 1.350 . S
N250 S248 1.610 . S
N250 C251 1.351 . S
C251 C245 1.428 . S
C251 N250 1.351 . S
C251 C252 1.434 . S
C252 C243 1.429 . S
C252 N249 1.350 . S
C252 C251 1.434 . S
C253 C254 1.369 . S
C253 C255 1.419 . S
C253 H257 0.930 . S
C254 C253 1.369 . S
C254 C263 1.429 . S
C255 C253 1.419 . S
C255 C256 1.363 . S
C255 H258 0.929 . S
C256 C255 1.363 . S
C256 C262 1.428 . S
H257 C253 0.930 . S
H258 C255 0.929 . S
S259 N260 1.613 . S
S259 N261 1.610 . S
N260 S259 1.613 . S
N260 C263 1.350 . S
N261 S259 1.610 . S
N261 C262 1.351 . S
C262 C256 1.428 . S
C262 N261 1.351 . S
C262 C263 1.434 . S
C263 C254 1.429 . S
C263 N260 1.350 . S
C263 C262 1.434 . S
C264 C265 1.369 . S
C264 C266 1.419 . S
C264 H268 0.930 . S
C265 C264 1.369 . S
C265 C274 1.429 . S
C266 C264 1.419 . S
C266 C267 1.363 . S
C266 H269 0.929 . S
C267 C266 1.363 . S
C267 C273 1.428 . S
H268 C264 0.930 . S
H269 C266 0.929 . S
S270 N271 1.613 . S
S270 N272 1.610 . S
N271 S270 1.613 . S
N271 C274 1.350 . S
N272 S270 1.610 . S
N272 C273 1.351 . S
C273 C267 1.428 . S
C273 N272 1.351 . S
C273 C274 1.434 . S
C274 C265 1.429 . S
C274 N271 1.350 . S
C274 C273 1.434 . S
C275 C276 1.369 . S
C275 C277 1.419 . S
C275 H279 0.930 . S
C276 C275 1.369 . S
C276 C285 1.429 . S
C277 C275 1.419 . S
C277 C278 1.363 . S
C277 H280 0.929 . S
C278 C277 1.363 . S
C278 C284 1.428 . S
H279 C275 0.930 . S
H280 C277 0.929 . S
S281 N282 1.613 . S
S281 N283 1.610 . S
N282 S281 1.613 . S
N282 C285 1.350 . S
N283 S281 1.610 . S
N283 C284 1.351 . S
C284 C278 1.428 . S
C284 N283 1.351 . S
C284 C285 1.434 . S
C285 C276 1.429 . S
C285 N282 1.350 . S
C285 C284 1.434 . S
C286 C287 1.369 . S
C286 C288 1.419 . S
C286 H290 0.930 . S
C287 C286 1.369 . S
C287 C296 1.429 . S
C288 C286 1.419 . S
C288 C289 1.363 . S
C288 H291 0.929 . S
C289 C288 1.363 . S
C289 C295 1.428 . S
H290 C286 0.930 . S
H291 C288 0.929 . S
S292 N293 1.613 . S
S292 N294 1.610 . S
N293 S292 1.613 . S
N293 C296 1.350 . S
N294 S292 1.610 . S
N294 C295 1.351 . S
C295 C289 1.428 . S
C295 N294 1.351 . S
C295 C296 1.434 . S
C296 C287 1.429 . S
C296 N293 1.350 . S
C296 C295 1.434 . S
C297 C298 1.369 . S
C297 C299 1.419 . S
C297 H301 0.930 . S
C298 C297 1.369 . S
C298 C307 1.429 . S
C299 C297 1.419 . S
C299 C300 1.363 . S
C299 H302 0.929 . S
C300 C299 1.363 . S
C300 C306 1.428 . S
H301 C297 0.930 . S
H302 C299 0.929 . S
S303 N304 1.613 . S
S303 N305 1.610 . S
N304 S303 1.613 . S
N304 C307 1.350 . S
N305 S303 1.610 . S
N305 C306 1.351 . S
C306 C300 1.428 . S
C306 N305 1.351 . S
C306 C307 1.434 . S
C307 C298 1.429 . S
C307 N304 1.350 . S
C307 C306 1.434 . S
C308 C309 1.369 . S
C308 C310 1.419 . S
C308 H312 0.930 . S
C309 C308 1.369 . S
C309 C318 1.429 . S
C310 C308 1.419 . S
C310 C311 1.363 . S
C310 H313 0.929 . S
C311 C310 1.363 . S
C311 C317 1.428 . S
H312 C308 0.930 . S
H313 C310 0.929 . S
S314 N315 1.613 . S
S314 N316 1.610 . S
N315 S314 1.613 . S
N315 C318 1.350 . S
N316 S314 1.610 . S
N316 C317 1.351 . S
C317 C311 1.428 . S
C317 N316 1.351 . S
C317 C318 1.434 . S
C318 C309 1.429 . S
C318 N315 1.350 . S
C318 C317 1.434 . S
C319 C320 1.369 . S
C319 C321 1.419 . S
C319 H323 0.930 . S
C320 C319 1.369 . S
C320 C329 1.429 . S
C321 C319 1.419 . S
C321 C322 1.363 . S
C321 H324 0.929 . S
C322 C321 1.363 . S
C322 C328 1.428 . S
H323 C319 0.930 . S
H324 C321 0.929 . S
S325 N326 1.613 . S
S325 N327 1.610 . S
N326 S325 1.613 . S
N326 C329 1.350 . S
N327 S325 1.610 . S
N327 C328 1.351 . S
C328 C322 1.428 . S
C328 N327 1.351 . S
C328 C329 1.434 . S
C329 C320 1.429 . S
C329 N326 1.350 . S
C329 C328 1.434 . S
C330 C331 1.369 . S
C330 C332 1.414 1_554 S
C330 H334 0.930 . S
C331 C330 1.369 . S
C331 C340 1.429 1_455 S
C332 C330 1.414 1_556 S
C332 C333 1.366 . S
C332 H335 0.931 . S
C333 C332 1.366 . S
C333 C339 1.428 1_455 S
H334 C330 0.930 . S
H335 C332 0.931 . S
S336 N337 1.613 1_556 S
S336 N338 1.610 . S
N337 S336 1.613 1_554 S
N337 C340 1.350 . S
N338 S336 1.610 . S
N338 C339 1.351 . S
C339 C333 1.428 1_655 S
C339 N338 1.351 . S
C339 C340 1.434 1_556 S
C340 C331 1.429 1_655 S
C340 N337 1.350 . S
C340 C339 1.434 1_554 S
C341 C342 1.369 . S
C341 C343 1.419 . S
C341 H345 0.930 . S
C342 C341 1.369 . S
C342 C351 1.429 1_545 S
C343 C341 1.419 . S
C343 C344 1.363 . S
C343 H346 0.929 . S
C344 C343 1.363 . S
C344 C350 1.428 1_545 S
H345 C341 0.930 . S
H346 C343 0.929 . S
S347 N348 1.613 . S
S347 N349 1.610 . S
N348 S347 1.613 . S
N348 C351 1.350 . S
N349 S347 1.610 . S
N349 C350 1.351 . S
C350 C344 1.428 1_565 S
C350 N349 1.351 . S
C350 C351 1.434 . S
C351 C342 1.429 1_565 S
C351 N348 1.350 . S
C351 C350 1.434 . S
C352 C353 1.369 . S
C352 C354 1.419 . S
C352 H356 0.930 . S
C353 C352 1.369 . S
C353 C362 1.429 . S
C354 C352 1.419 . S
C354 C355 1.363 . S
C354 H357 0.929 . S
C355 C354 1.363 . S
C355 C361 1.428 . S
H356 C352 0.930 . S
H357 C354 0.929 . S
S358 N359 1.613 . S
S358 N360 1.610 . S
N359 S358 1.613 . S
N359 C362 1.350 . S
N360 S358 1.610 . S
N360 C361 1.351 . S
C361 C355 1.428 . S
C361 N360 1.351 . S
C361 C362 1.434 . S
C362 C353 1.429 . S
C362 N359 1.350 . S
C362 C361 1.434 . S
C363 C364 1.369 1_545 S
C363 C365 1.419 . S
C363 H367 0.930 . S
C364 C363 1.369 1_565 S
C364 C373 1.429 . S
C365 C363 1.419 . S
C365 C366 1.363 1_545 S
C365 H368 0.929 . S
C366 C365 1.363 1_565 S
C366 C372 1.428 . S
H367 C363 0.930 . S
H368 C365 0.929 . S
S369 N370 1.613 . S
S369 N371 1.610 . S
N370 S369 1.613 . S
N370 C373 1.350 . S
N371 S369 1.610 . S
N371 C372 1.351 . S
C372 C366 1.428 . S
C372 N371 1.351 . S
C372 C373 1.434 . S
C373 C364 1.429 . S
C373 N370 1.350 . S
C373 C372 1.434 . S
C374 C375 1.369 . S
C374 C376 1.419 . S
C374 H378 0.930 . S
C375 C374 1.369 . S
C375 C384 1.429 . S
C376 C374 1.419 . S
C376 C377 1.363 1_556 S
C376 H379 0.929 1_556 S
C377 C376 1.363 1_554 S
C377 C383 1.428 . S
H378 C374 0.930 . S
H379 C376 0.929 1_554 S
S380 N381 1.607 1_554 S
S380 N382 1.615 . S
N381 S380 1.607 1_556 S
N381 C384 1.350 . S
N382 S380 1.615 . S
N382 C383 1.351 . S
C383 C377 1.428 . S
C383 N382 1.351 . S
C383 C384 1.434 1_554 S
C384 C375 1.429 . S
C384 N381 1.350 . S
C384 C383 1.434 1_556 S
C385 C386 1.369 . S
C385 C387 1.419 . S
C385 H389 0.930 . S
C386 C385 1.369 . S
C386 C395 1.429 1_455 S
C387 C385 1.419 . S
C387 C388 1.363 . S
C387 H390 0.929 . S
C388 C387 1.363 . S
C388 C394 1.428 1_455 S
H389 C385 0.930 . S
H390 C387 0.929 . S
S391 N392 1.613 . S
S391 N393 1.610 . S
N392 S391 1.613 . S
N392 C395 1.350 . S
N393 S391 1.610 . S
N393 C394 1.351 . S
C394 C388 1.428 1_655 S
C394 N393 1.351 . S
C394 C395 1.434 . S
C395 C386 1.429 1_655 S
C395 N392 1.350 . S
C395 C394 1.434 . S
C199 C10 3.168 . S
C201 C189 2.942 . S
C210 C55 1.169 . S
C212 C167 1.179 . S
C221 C90 1.884 . S
C223 C180 1.878 . S
C232 C19 3.022 . S
C234 C193 3.003 . S
C245 C163 1.455 . S
C243 C46 1.419 . S
C256 C176 1.931 . S
C254 C99 2.066 . S
C265 C50 1.882 . S
C267 C141 1.850 . S
C276 C95 0.733 . S
C278 C154 0.710 . S
C287 C6 1.358 . S
C289 C124 1.332 . S
C300 C137 1.869 . S
C298 C59 2.041 . S
C311 C150 0.989 . S
C309 C86 0.860 . S
C320 C15 1.301 . S
C322 C128 1.321 . S
C333 C155 1.176 . S
C331 C18 1.159 . S
C342 C49 1.453 . S
C344 C129 1.535 . S
C353 C98 1.431 . S
C355 C142 1.460 . S
C366 C181 1.478 . S
C364 C58 1.447 1_565 S
C377 C194 1.779 . S
C375 C89 1.691 . S
C386 C9 1.487 . S
C388 C168 1.568 . S
