# Generated by pormake.
# Topology zzz, (3,6)-cn, num edge types: 1
# Building blocks:
#     Node 0, Type 0, BuildingBlock: BETDIP_clean_linker_0, # of connection points: 3
#     Node 1, Type 0, BuildingBlock: BETDIP_clean_linker_0, # of connection points: 3
#     Node 2, Type 0, BuildingBlock: BETDIP_clean_linker_0, # of connection points: 3
#     Node 3, Type 0, BuildingBlock: BETDIP_clean_linker_0, # of connection points: 3
#     Node 4, Type 0, BuildingBlock: BETDIP_clean_linker_0, # of connection points: 3
#     Node 5, Type 0, BuildingBlock: BETDIP_clean_linker_0, # of connection points: 3
#     Node 6, Type 0, BuildingBlock: BETDIP_clean_linker_0, # of connection points: 3
#     Node 7, Type 0, BuildingBlock: BETDIP_clean_linker_0, # of connection points: 3
#     Node 8, Type 1, BuildingBlock: HISSIN_clean_sbu_0, # of connection points: 6
#     Node 9, Type 1, BuildingBlock: HISSIN_clean_sbu_0, # of connection points: 6
#     Node 10, Type 1, BuildingBlock: HISSIN_clean_sbu_0, # of connection points: 6
#     Node 11, Type 1, BuildingBlock: HISSIN_clean_sbu_0, # of connection points: 6
#     Edge 12, Type (0, 1), BuildingBlock: XUDNAN_clean_linker_2, # of connection points: 2
#     Edge 13, Type (0, 1), BuildingBlock: XUDNAN_clean_linker_2, # of connection points: 2
#     Edge 14, Type (0, 1), BuildingBlock: XUDNAN_clean_linker_2, # of connection points: 2
#     Edge 15, Type (0, 1), BuildingBlock: XUDNAN_clean_linker_2, # of connection points: 2
#     Edge 16, Type (0, 1), BuildingBlock: XUDNAN_clean_linker_2, # of connection points: 2
#     Edge 17, Type (0, 1), BuildingBlock: XUDNAN_clean_linker_2, # of connection points: 2
#     Edge 18, Type (0, 1), BuildingBlock: XUDNAN_clean_linker_2, # of connection points: 2
#     Edge 19, Type (0, 1), BuildingBlock: XUDNAN_clean_linker_2, # of connection points: 2
#     Edge 20, Type (0, 1), BuildingBlock: XUDNAN_clean_linker_2, # of connection points: 2
#     Edge 21, Type (0, 1), BuildingBlock: XUDNAN_clean_linker_2, # of connection points: 2
#     Edge 22, Type (0, 1), BuildingBlock: XUDNAN_clean_linker_2, # of connection points: 2
#     Edge 23, Type (0, 1), BuildingBlock: XUDNAN_clean_linker_2, # of connection points: 2
#     Edge 24, Type (0, 1), BuildingBlock: XUDNAN_clean_linker_2, # of connection points: 2
#     Edge 25, Type (0, 1), BuildingBlock: XUDNAN_clean_linker_2, # of connection points: 2
#     Edge 26, Type (0, 1), BuildingBlock: XUDNAN_clean_linker_2, # of connection points: 2
#     Edge 27, Type (0, 1), BuildingBlock: XUDNAN_clean_linker_2, # of connection points: 2
#     Edge 28, Type (0, 1), BuildingBlock: XUDNAN_clean_linker_2, # of connection points: 2
#     Edge 29, Type (0, 1), BuildingBlock: XUDNAN_clean_linker_2, # of connection points: 2
#     Edge 30, Type (0, 1), BuildingBlock: XUDNAN_clean_linker_2, # of connection points: 2
#     Edge 31, Type (0, 1), BuildingBlock: XUDNAN_clean_linker_2, # of connection points: 2
#     Edge 32, Type (0, 1), BuildingBlock: XUDNAN_clean_linker_2, # of connection points: 2
#     Edge 33, Type (0, 1), BuildingBlock: XUDNAN_clean_linker_2, # of connection points: 2
#     Edge 34, Type (0, 1), BuildingBlock: XUDNAN_clean_linker_2, # of connection points: 2
#     Edge 35, Type (0, 1), BuildingBlock: XUDNAN_clean_linker_2, # of connection points: 2
# Relax obj value: 0.270
# Max RMSD: 0.187
# Mean RMSD: 0.096
data_MOF--net-zzz--node1-HISSIN_clean_sbu_0--node2-BETDIP_clean_linker_0--edge1-XUDNAN_clean_linker_2
_symmetry_space_group_name_H-M    P1
_symmetry_Int_Tables_number       1
_symmetry_cell_setting            triclinic
loop_
_symmetry_equiv_pos_as_xyz
'x, y, z'
_cell_length_a     50.036933
_cell_length_b     50.067401
_cell_length_c     16.17603
_cell_angle_alpha  90.045125
_cell_angle_beta   91.561445
_cell_angle_gamma 90.813188
loop_
_atom_site_label
_atom_site_type_symbol
_atom_site_fract_x
_atom_site_fract_y
_atom_site_fract_z
_atom_type_partial_charge
H0 H 0.76435 0.53941 0.45284 0.0
H1 H 0.75177 0.55831 0.19482 0.0
H2 H 0.83051 0.56281 0.30188 0.0
H3 H 0.70823 0.57872 0.28705 0.0
C4 C 0.70677 0.55705 0.2846 0.0
C5 C 0.77221 0.54627 0.39478 0.0
C6 C 0.79999 0.55235 0.38861 0.0
C7 C 0.75448 0.54935 0.32526 0.0
C8 C 0.76476 0.55753 0.2495 0.0
C9 C 0.792 0.56265 0.242 0.0
C10 C 0.80924 0.56037 0.31105 0.0
N11 N 0.7268 0.54214 0.32848 0.0
H12 H 1.01763 0.7753 0.38195 0.0
H13 H 0.96738 0.75658 0.16818 0.0
H14 H 0.95842 0.8309 0.29361 0.0
H15 H 1.01493 0.74613 0.13185 0.0
C16 C 1.01346 0.73031 0.17764 0.0
C17 C 1.00113 0.78032 0.34043 0.0
C18 C 0.9887 0.8057 0.34701 0.0
C19 C 0.99331 0.76229 0.27553 0.0
C20 C 0.9728 0.76966 0.21957 0.0
C21 C 0.96129 0.79486 0.22305 0.0
C22 C 0.9679 0.81165 0.29016 0.0
N23 N 1.00727 0.73795 0.26056 0.0
H24 H 0.78398 0.02871 0.37351 0.0
H25 H 0.80289 0.96544 0.20461 0.0
H26 H 0.73041 0.9614 0.33859 0.0
H27 H 0.84783 0.97808 0.25782 0.0
C28 C 0.84426 0.9982 0.23525 0.0
C29 C 0.77936 1.00934 0.3465 0.0
C30 C 0.75479 0.99607 0.36495 0.0
C31 C 0.79757 0.99775 0.2906 0.0
C32 C 0.79041 0.97338 0.25221 0.0
C33 C 0.76562 0.96099 0.26562 0.0
C34 C 0.74921 0.9714 0.32648 0.0
N35 N 0.82119 1.01183 0.26447 0.0
H36 H 0.555 0.76501 0.33248 0.0
H37 H 0.49653 0.78256 0.14019 0.0
H38 H 0.48731 0.71213 0.28639 0.0
H39 H 0.53844 0.7939 0.07734 0.0
C40 C 0.5433 0.8085 0.12546 0.0
C41 C 0.53648 0.76008 0.29943 0.0
C42 C 0.5218 0.7366 0.32033 0.0
C43 C 0.52758 0.77676 0.23371 0.0
C44 C 0.50369 0.77005 0.1905 0.0
C45 C 0.48907 0.74705 0.21017 0.0
C46 C 0.49803 0.73068 0.27513 0.0
N47 N 0.54263 0.79995 0.20991 0.0
H48 H 0.29404 0.52005 0.99013 0.0
H49 H 0.30285 0.48404 0.23121 0.0
H50 H 0.22559 0.48696 0.10933 0.0
H51 H 0.3226 0.53237 0.23973 0.0
C52 C 0.3377 0.52416 0.20018 0.0
C53 C 0.2855 0.50935 0.04146 0.0
C54 C 0.25776 0.50285 0.04013 0.0
C55 C 0.30169 0.50335 0.11255 0.0
C56 C 0.29031 0.48931 0.17825 0.0
C57 C 0.26289 0.48358 0.17894 0.0
C58 C 0.24702 0.49029 0.10921 0.0
N59 N 0.32873 0.5129 0.1225 0.0
H60 H 0.03611 0.28874 1.0128 0.0
H61 H 0.08628 0.30481 0.22872 0.0
H62 H 0.09018 0.22918 0.10691 0.0
H63 H 0.08464 0.34989 0.15863 0.0
C64 C 0.06326 0.34837 0.16835 0.0
C65 C 0.05193 0.28276 0.05558 0.0
C66 C 0.06268 0.25663 0.05017 0.0
C67 C 0.06117 0.30081 0.11875 0.0
C68 C 0.08062 0.29216 0.17655 0.0
C69 C 0.09041 0.26616 0.17425 0.0
C70 C 0.0825 0.24929 0.10854 0.0
N71 N 0.04887 0.3262 0.13122 0.0
H72 H 0.28024 0.03619 0.06649 0.0
H73 H 0.26764 0.08621 0.27844 0.0
H74 H 0.34352 0.08747 0.16392 0.0
H75 H 0.25316 0.03915 0.32035 0.0
C76 C 0.23735 0.04163 0.27362 0.0
C77 C 0.2875 0.05144 0.10924 0.0
C78 C 0.31392 0.06249 0.1016 0.0
C79 C 0.27082 0.05961 0.17481 0.0
C80 C 0.28023 0.07962 0.22912 0.0
C81 C 0.30636 0.08957 0.22578 0.0
C82 C 0.32275 0.08114 0.16195 0.0
N83 N 0.24529 0.04721 0.19028 0.0
H84 H 0.50643 0.27303 0.07236 0.0
H85 H 0.56756 0.24829 0.2469 0.0
H86 H 0.57236 0.32583 0.13298 0.0
H87 H 0.54944 0.20357 0.16664 0.0
C88 C 0.53219 0.20947 0.20139 0.0
C89 C 0.52517 0.277 0.10549 0.0
C90 C 0.53908 0.30143 0.09295 0.0
C91 C 0.53539 0.25781 0.16191 0.0
C92 C 0.5598 0.26306 0.20416 0.0
C93 C 0.57327 0.28768 0.19566 0.0
C94 C 0.56263 0.30655 0.1397 0.0
N95 N 0.5201 0.23452 0.1824 0.0
Eu96 Eu 1.00598 0.04175 0.6285 0.0
Eu97 Eu 0.04555 0.02115 0.77509 0.0
C98 C 0.03569 0.0845 0.75225 0.0
C99 C 0.98752 0.09025 0.47522 0.0
C100 C 0.98845 0.11368 0.52343 0.0
C101 C 0.02067 0.10993 0.38591 0.0
C102 C 1.00675 0.13405 0.50667 0.0
C103 C 1.00245 0.08943 0.40299 0.0
C104 C 0.0242 0.13165 0.44058 0.0
C105 C 0.97829 0.06495 0.51266 0.0
O106 O 1.00377 1.01218 0.82333 0.0
O107 O 0.98047 0.04148 0.74226 0.0
C108 C 0.98215 0.02624 0.8082 0.0
O109 O 1.00002 0.99674 0.61718 0.0
O110 O 0.05676 0.01893 0.90629 0.0
O111 O 0.08057 0.99877 0.81689 0.0
O112 O 0.03462 0.98335 0.70315 0.0
C113 C 1.01556 0.97793 0.64774 0.0
O114 O 0.04557 0.0374 0.56613 0.0
O115 O 0.0748 0.0357 0.67729 0.0
O116 O 0.04004 0.06504 0.80514 0.0
O117 O 0.99321 0.04439 0.4985 0.0
O118 O 0.97207 0.06628 0.59032 0.0
O119 O 0.02819 0.07912 0.67533 0.0
C120 C 0.06604 0.9739 0.93175 0.0
C121 C 0.06485 0.95067 0.88264 0.0
C122 C 0.03609 0.95253 0.02787 0.0
C123 C 0.04796 0.92946 0.9029 0.0
C124 C 0.05298 0.97382 1.00749 0.0
C125 C 0.03207 0.93094 0.97293 0.0
C126 C 0.07352 0.9997 0.89392 0.0
C127 C 0.07015 0.03785 0.59684 0.0
H128 H 0.977 0.11525 0.57905 0.0
H129 H 0.03286 0.10809 0.33196 0.0
H130 H 1.00846 0.15066 0.54944 0.0
H131 H 1.0019 0.07183 0.36391 0.0
H132 H 0.07488 0.94981 0.8242 0.0
H133 H 0.02505 0.95373 0.08439 0.0
H134 H 0.0458 0.91295 0.85987 0.0
H135 H 0.05377 0.9913 0.04709 0.0
Eu136 Eu 0.54416 0.04638 0.80765 0.0
Eu137 Eu 0.52377 1.00607 0.66278 0.0
C138 C 0.54581 0.98139 0.83145 0.0
C139 C 0.59254 0.05824 0.96932 0.0
C140 C 0.61441 0.05375 0.91866 0.0
C141 C 0.60987 0.02484 0.06504 0.0
C142 C 0.63245 0.03363 0.93741 0.0
C143 C 0.59127 0.04458 0.04496 0.0
C144 C 0.62988 0.01813 1.00926 0.0
C145 C 0.56801 0.06971 0.93196 0.0
O146 O 0.48829 1.01251 0.74728 0.0
O147 O 0.49927 0.05096 0.81721 0.0
C148 C 0.48157 0.03244 0.79553 0.0
O149 O 0.53036 0.07638 0.71262 0.0
O150 O 0.49951 0.97092 0.62767 0.0
O151 O 0.51696 0.99539 0.53297 0.0
O152 O 0.51959 0.04743 0.60587 0.0
C153 C 0.52267 0.0718 0.63559 0.0
O154 O 0.58197 0.03586 0.73732 0.0
O155 O 0.56736 1.00873 0.6302 0.0
O156 O 0.54488 0.97799 0.75104 0.0
O157 O 0.56989 0.0787 0.85647 0.0
O158 O 0.54665 0.05482 0.94018 0.0
O159 O 0.5414 1.00493 0.8638 0.0
C160 C 0.47077 0.98859 0.52404 0.0
C161 C 0.46853 1.00272 0.4493 0.0
C162 C 0.43277 1.01276 0.57528 0.0
C163 C 0.4499 0.02306 0.4403 0.0
C164 C 0.45121 0.9923 0.58392 0.0
C165 C 0.43305 0.02936 0.50551 0.0
C166 C 0.49738 0.97914 0.55122 0.0
C167 C 0.58664 0.02201 0.66965 0.0
H168 H 0.61626 0.06404 0.86022 0.0
H169 H 0.60786 1.01422 0.12285 0.0
H170 H 0.64742 0.02934 0.8925 0.0
H171 H 0.57467 0.04763 0.08539 0.0
H172 H 0.48312 1.00015 0.40175 0.0
H173 H 0.41967 1.01673 0.62594 0.0
H174 H 0.44967 0.03474 0.38396 0.0
H175 H 0.45197 0.98149 0.64188 0.0
Eu176 Eu 0.51388 0.52923 0.76609 0.0
Eu177 Eu 0.55886 0.50825 0.64163 0.0
C178 C 0.57428 0.52085 0.83121 0.0
C179 C 0.45693 0.56556 0.8696 0.0
C180 C 0.45321 0.58344 0.80372 0.0
C181 C 0.42842 0.59234 0.95385 0.0
C182 C 0.43806 0.60639 0.81431 0.0
C183 C 0.4434 0.5694 0.94299 0.0
C184 C 0.42683 0.61188 0.89132 0.0
C185 C 0.47786 0.54547 0.86792 0.0
O186 O 0.53862 0.47018 0.68656 0.0
O187 O 0.52258 0.48678 0.80713 0.0
C188 C 0.52913 0.4664 0.76086 0.0
O189 O 0.49 0.51711 0.65022 0.0
O190 O 0.60131 0.50713 0.6131 0.0
O191 O 0.57191 0.48813 0.53093 0.0
O192 O 0.52334 0.51608 0.55569 0.0
C193 C 0.49782 0.51611 0.57322 0.0
O194 O 0.51998 0.56426 0.67944 0.0
O195 O 0.56193 0.55356 0.63861 0.0
O196 O 0.57635 0.50347 0.77113 0.0
O197 O 0.47406 0.52532 0.8177 0.0
O198 O 0.50221 0.55503 0.86646 0.0
O199 O 0.55424 0.53755 0.83052 0.0
C200 C 0.61329 0.46731 0.54711 0.0
C201 C 0.60463 0.44433 0.58835 0.0
C202 C 0.64869 0.44195 0.48605 0.0
C203 C 0.61704 0.42001 0.57522 0.0
C204 C 0.63597 0.46629 0.49844 0.0
C205 C 0.63857 0.41825 0.52114 0.0
C206 C 0.59728 0.49157 0.5492 0.0
C207 C 0.54236 0.57076 0.64321 0.0
H208 H 0.4635 0.5806 0.74634 0.0
H209 H 0.42038 0.59584 0.01431 0.0
H210 H 0.43691 0.62082 0.76451 0.0
H211 H 0.4461 0.55572 0.99436 0.0
H212 H 0.58725 0.44486 0.62683 0.0
H213 H 0.66552 0.44148 0.4454 0.0
H214 H 0.60827 0.40235 0.60267 0.0
H215 H 0.64308 0.48401 0.46701 0.0
Eu216 Eu 0.03573 0.54635 0.65553 0.0
Eu217 Eu 0.02079 0.50122 0.78733 0.0
C218 C 0.08199 0.51723 0.76331 0.0
C219 C 0.07457 0.56825 0.48509 0.0
C220 C 0.07248 0.54281 0.44841 0.0
C221 C 0.12267 0.56704 0.47111 0.0
C222 C 0.09531 0.52881 0.42995 0.0
C223 C 0.09972 0.58092 0.49141 0.0
C224 C 0.12076 0.54019 0.44513 0.0
C225 C 0.05318 0.57686 0.5393 0.0
O226 O 0.02407 0.53998 0.86174 0.0
O227 O 0.02087 0.57174 0.76005 0.0
C228 C 0.02103 0.56505 0.83869 0.0
O229 O 0.99079 0.54147 0.6364 0.0
O230 O 0.02242 0.48582 0.9137 0.0
O231 O 1.00337 0.46227 0.81685 0.0
O232 O 0.98026 0.51848 0.75404 0.0
C233 C 0.97298 0.53131 0.68633 0.0
O234 O 0.04557 0.50625 0.59576 0.0
O235 O 1.01451 0.48162 0.66231 0.0
O236 O 0.06547 0.49682 0.77065 0.0
O237 O 0.03064 0.56351 0.53205 0.0
O238 O 0.06078 0.57986 0.61655 0.0
O239 O 0.07317 0.54027 0.73622 0.0
C240 C 0.97902 0.46919 0.93725 0.0
C241 C 0.95522 0.46221 0.89334 0.0
C242 C 0.95366 0.49823 0.02481 0.0
C243 C 0.93135 0.47485 0.91086 0.0
C244 C 0.97746 0.48552 1.00762 0.0
C245 C 0.93096 0.49436 0.97297 0.0
C246 C 1.00493 0.46693 0.89612 0.0
C247 C 0.03026 0.48475 0.59962 0.0
H248 H 0.05341 0.53239 0.44205 0.0
H249 H 0.14194 0.57687 0.48013 0.0
H250 H 0.09288 0.50832 0.40996 0.0
H251 H 0.10187 0.60054 0.51932 0.0
H252 H 0.95556 0.44926 0.83971 0.0
H253 H 0.95349 0.51246 0.07529 0.0
H254 H 0.91391 0.47111 0.87115 0.0
H255 H 0.99527 0.49084 0.04393 0.0
H256 H 0.22136 0.03207 0.43082 0.0
H257 H 0.18956 0.05196 0.18709 0.0
H258 H 0.14395 0.05378 0.24392 0.0
H259 H 0.16595 0.98989 0.49305 0.0
H260 H 0.16766 1.00094 0.59916 0.0
H261 H 0.19741 1.00105 0.53887 0.0
H262 H 0.20492 0.05127 0.57116 0.0
H263 H 0.17512 0.05135 0.63123 0.0
H264 H 0.17868 0.07453 0.54692 0.0
H265 H 0.10147 0.05394 0.32991 0.0
H266 H 0.06619 0.05111 0.43273 0.0
H267 H 0.12542 0.03092 0.62275 0.0
C268 C 0.20476 0.03667 0.38912 0.0
C269 C 0.20916 0.04176 0.30401 0.0
C270 C 0.18685 0.04784 0.25205 0.0
C271 C 0.16084 0.04899 0.28412 0.0
C272 C 0.1573 0.04401 0.36848 0.0
C273 C 0.17873 0.03786 0.42016 0.0
C274 C 0.16968 0.03331 0.50845 0.0
C275 C 0.17552 1.00459 0.53652 0.0
C276 C 0.18289 0.05384 0.56795 0.0
C277 C 0.13972 0.03783 0.49894 0.0
C278 C 0.13304 0.04403 0.41763 0.0
C279 C 0.10662 0.049 0.39343 0.0
C280 C 0.0866 0.0473 0.45288 0.0
C281 C 0.09267 0.04068 0.53679 0.0
C282 C 0.11985 0.03611 0.5597 0.0
H283 H 0.54118 0.15619 0.22006 0.0
H284 H 0.50533 0.22341 0.34163 0.0
H285 H 0.49695 0.19505 0.46421 0.0
H286 H 0.4944 0.10501 0.30146 0.0
H287 H 0.52008 0.08021 0.3103 0.0
H288 H 0.52182 0.10552 0.23136 0.0
H289 H 0.56921 0.11929 0.28579 0.0
H290 H 0.56752 0.0942 0.36514 0.0
H291 H 0.57412 0.12858 0.3929 0.0
H292 H 0.49755 0.16012 0.58038 0.0
H293 H 0.50254 0.12094 0.67287 0.0
H294 H 0.53423 0.07538 0.4708 0.0
C295 C 0.5311 0.16478 0.27196 0.0
C296 C 0.52378 0.192 0.27112 0.0
C297 C 0.51082 0.20258 0.34039 0.0
C298 C 0.50611 0.1866 0.41048 0.0
C299 C 0.51397 0.1599 0.40982 0.0
C300 C 0.52569 0.14894 0.34148 0.0
C301 C 0.53238 0.11979 0.35623 0.0
C302 C 0.5162 0.10156 0.29627 0.0
C303 C 0.5626 0.11521 0.34963 0.0
C304 C 0.52338 0.11617 0.44444 0.0
C305 C 0.51294 0.13957 0.47458 0.0
C306 C 0.50519 0.1416 0.55665 0.0
C307 C 0.50818 0.11926 0.60892 0.0
C308 C 0.51839 0.09495 0.57892 0.0
C309 C 0.52578 0.09346 0.49517 0.0
H310 H 0.35232 0.53329 0.36 0.0
H311 H 0.38474 0.50776 0.12768 0.0
H312 H 0.42944 0.50309 0.19707 0.0
H313 H 0.40948 0.57121 0.43544 0.0
H314 H 0.40557 0.56108 0.54137 0.0
H315 H 0.37676 0.5628 0.47248 0.0
H316 H 0.36494 0.51342 0.50472 0.0
H317 H 0.39372 0.51155 0.57367 0.0
H318 H 0.38956 0.48805 0.48967 0.0
H319 H 0.47128 0.50221 0.29505 0.0
H320 H 0.50499 0.50324 0.40982 0.0
H321 H 0.444 0.52759 0.57869 0.0
C322 C 0.36886 0.52678 0.32349 0.0
C323 C 0.36505 0.52101 0.23818 0.0
C324 C 0.38714 0.51232 0.19292 0.0
C325 C 0.4126 0.50965 0.23201 0.0
C326 C 0.41559 0.5155 0.31654 0.0
C327 C 0.39416 0.52374 0.36164 0.0
C328 C 0.40218 0.52826 0.45187 0.0
C329 C 0.39826 0.55758 0.47672 0.0
C330 C 0.38668 0.50918 0.50829 0.0
C331 C 0.4316 0.5214 0.45113 0.0
C332 C 0.43907 0.51425 0.37249 0.0
C333 C 0.46547 0.50766 0.3567 0.0
C334 C 0.48455 0.50834 0.42253 0.0
C335 C 0.47729 0.51533 0.50392 0.0
C336 C 0.45031 0.52189 0.51774 0.0
H337 H 0.08824 0.39164 0.23981 0.0
H338 H 1.01254 0.34847 0.2348 0.0
H339 H 0.99575 0.37929 0.34132 0.0
H340 H 0.09157 0.40504 0.45998 0.0
H341 H 0.10715 0.43734 0.44557 0.0
H342 H 0.11162 0.41108 0.37111 0.0
H343 H 0.09329 0.44362 0.25513 0.0
H344 H 0.08907 0.46869 0.33311 0.0
H345 H 0.06105 0.45845 0.26778 0.0
H346 H 0.98842 0.41368 0.45557 0.0
H347 H 0.98986 0.44941 0.56072 0.0
H348 H 0.06994 0.47181 0.48845 0.0
C349 C 0.068 0.38881 0.26056 0.0
C350 C 0.05166 0.36763 0.22836 0.0
C351 C 0.02539 0.36456 0.25773 0.0
C352 C 1.01574 0.38198 0.31856 0.0
C353 C 0.0325 0.40254 0.34938 0.0
C354 C 0.05805 0.40609 0.32086 0.0
C355 C 0.07218 0.42957 0.36412 0.0
C356 C 0.09711 0.42022 0.41308 0.0
C357 C 0.0793 0.45138 0.30131 0.0
C358 C 0.05068 0.43881 0.42203 0.0
C359 C 0.02802 0.42275 0.41291 0.0
C360 C 1.00598 0.42644 0.46236 0.0
C361 C 1.00705 0.44684 0.52239 0.0
C362 C 0.0299 0.46377 0.53297 0.0
C363 C 0.05196 0.45966 0.48127 0.0
H364 H 0.89017 0.97544 0.1831 0.0
H365 H 0.84012 0.04417 0.13891 0.0
H366 H 0.86986 0.05867 0.02635 0.0
H367 H 0.9535 1.00822 0.14772 0.0
H368 H 0.96807 0.98039 0.09601 0.0
H369 H 0.9432 0.9746 0.1727 0.0
H370 H 0.91434 0.94747 0.06968 0.0
H371 H 0.93755 0.95279 0.98771 0.0
H372 H 0.90326 0.96227 0.97337 0.0
H373 H 0.90462 0.06428 0.91275 0.0
H374 H 0.94169 0.06236 0.8158 0.0
H375 H 0.97056 0.99056 0.93658 0.0
C376 C 0.88559 0.99374 0.15035 0.0
C377 C 0.86275 1.00875 0.17057 0.0
C378 C 0.85747 0.03241 0.12545 0.0
C379 C 0.87429 0.04073 0.06107 0.0
C380 C 0.89651 0.02531 0.04242 0.0
C381 C 0.90227 1.0024 0.08644 0.0
C382 C 0.92715 0.98917 0.0539 0.0
C383 C 0.94928 0.988 0.1216 0.0
C384 C 0.92017 0.96126 0.01926 0.0
C385 C 0.9348 1.00822 0.9849 0.0
C386 C 0.91666 0.02879 0.97876 0.0
C387 C 0.91894 0.04832 0.91782 0.0
C388 C 0.94017 0.04696 0.86248 0.0
C389 C 0.9594 0.02634 0.86778 0.0
C390 C 0.9565 1.00673 0.93054 0.0
H391 H 0.54047 0.82749 0.96858 0.0
H392 H 0.55545 0.8534 0.22151 0.0
H393 H 0.56039 0.9002 0.17273 0.0
H394 H 0.5865 0.87419 0.87061 0.0
H395 H 0.56458 0.87913 0.78184 0.0
H396 H 0.56388 0.84781 0.8366 0.0
H397 H 0.51304 0.85271 0.8575 0.0
H398 H 0.51358 0.884 0.80285 0.0
H399 H 0.50089 0.88244 0.90598 0.0
H400 H 0.56179 0.94479 0.09471 0.0
H401 H 0.55842 0.98267 0.99749 0.0
H402 H 0.54216 0.92735 0.79508 0.0
C403 C 0.54509 0.84299 0.01371 0.0
C404 C 0.54773 0.83675 0.09891 0.0
C405 C 0.55347 0.85763 0.15602 0.0
C406 C 0.55632 0.88428 0.1287 0.0
C407 C 0.55338 0.88974 0.04409 0.0
C408 C 0.54789 0.86959 0.98752 0.0
C409 C 0.54459 0.88065 0.90045 0.0
C410 C 0.56618 0.8698 0.84406 0.0
C411 C 0.51635 0.87459 0.86462 0.0
C412 C 0.54872 0.9103 0.91652 0.0
C413 C 0.55395 0.91515 0.99969 0.0
C414 C 0.55775 0.9411 0.0296 0.0
C415 C 0.55574 0.96256 0.97367 0.0
C416 C 0.54996 0.95815 0.88825 0.0
C417 C 0.5468 0.93151 0.85961 0.0
H418 H 0.66526 0.58185 0.20551 0.0
H419 H 0.70421 0.50524 0.22411 0.0
H420 H 0.67373 0.48739 0.1132 0.0
H421 H 0.59729 0.55514 0.16625 0.0
H422 H 0.58848 0.58163 0.09565 0.0
H423 H 0.61257 0.58778 0.17855 0.0
H424 H 0.64697 0.60418 0.07249 0.0
H425 H 0.62308 0.59794 0.98926 0.0
H426 H 0.65546 0.58264 0.98806 0.0
H427 H 0.6409 0.47913 0.99199 0.0
H428 H 0.60691 0.47995 0.87849 0.0
H429 H 0.5877 0.56149 0.94239 0.0
C430 C 0.66712 0.56118 0.187 0.0
C431 C 0.68708 0.5449 0.22386 0.0
C432 C 0.68899 0.51804 0.1975 0.0
C433 C 0.67178 0.50778 0.13422 0.0
C434 C 0.65255 0.52452 0.09838 0.0
C435 C 0.64992 0.55058 0.12465 0.0
C436 C 0.62783 0.56455 0.07562 0.0
C437 C 0.6052 0.57275 0.13241 0.0
C438 C 0.63901 0.58876 0.02858 0.0
C439 C 0.61866 0.54247 0.0165 0.0
C440 C 0.63325 0.51956 0.03048 0.0
C441 C 0.62922 0.49689 0.9813 0.0
C442 C 0.60988 0.4976 0.91656 0.0
C443 C 0.59443 0.52073 0.90132 0.0
C444 C 0.59889 0.54338 0.95274 0.0
H445 H 1.01848 0.71497 0.01811 0.0
H446 H 1.01003 0.68204 0.26376 0.0
H447 H 1.01069 0.63619 0.2044 0.0
H448 H 0.9761 0.66682 0.91127 0.0
H449 H 0.99623 0.66613 0.82059 0.0
H450 H 0.99551 0.69587 0.88314 0.0
H451 H 0.04708 0.69515 0.90075 0.0
H452 H 0.04798 0.66545 0.83808 0.0
H453 H 0.06299 0.66557 0.94065 0.0
H454 H 1.01256 0.59329 0.11446 0.0
H455 H 1.01522 0.55851 1.0065 0.0
H456 H 0.02159 0.62015 0.8194 0.0
C457 C 1.01687 0.6981 0.05967 0.0
C458 C 1.01433 0.70217 0.14588 0.0
C459 C 1.01208 0.67953 0.19777 0.0
C460 C 1.01241 0.65339 0.16434 0.0
C461 C 1.01486 0.65015 0.07877 0.0
C462 C 1.01701 0.67203 0.0273 0.0
C463 C 1.01916 0.66348 0.93752 0.0
C464 C 0.99533 0.67368 0.88505 0.0
C465 C 0.0459 0.67298 0.9022 0.0
C466 C 1.01806 0.63329 0.94586 0.0
C467 C 1.0156 0.62592 0.02777 0.0
C468 C 1.01446 0.59901 0.05036 0.0
C469 C 1.01601 0.57931 0.98826 0.0
C470 C 1.0186 0.58634 0.90374 0.0
C471 C 0.01949 0.61386 0.88295 0.0
H472 H 0.07136 0.27125 0.32673 0.0
H473 H 0.13222 0.23108 0.19114 0.0
H474 H 0.13075 0.19373 0.28923 0.0
H475 H 0.08439 0.23238 0.54429 0.0
H476 H 0.04871 0.23219 0.55666 0.0
H477 H 0.06516 0.26097 0.51285 0.0
H478 H 0.0327 0.25772 0.38633 0.0
H479 H 1.01688 0.22868 0.42698 0.0
H480 H 0.03118 0.22735 0.32592 0.0
H481 H 0.10944 0.15526 0.35273 0.0
H482 H 0.07486 0.12201 0.38678 0.0
H483 H 0.0241 0.18539 0.47123 0.0
C484 C 0.08586 0.25556 0.32178 0.0
C485 C 0.10141 0.25364 0.25069 0.0
C486 C 0.11996 0.23275 0.24503 0.0
C487 C 0.11916 0.21137 0.30069 0.0
C488 C 0.10008 0.21158 0.36215 0.0
C489 C 0.08438 0.23374 0.37525 0.0
C490 C 0.06086 0.22683 0.42884 0.0
C491 C 0.06504 0.23879 0.51583 0.0
C492 C 0.03388 0.23562 0.38947 0.0
C493 C 0.06319 0.19682 0.43144 0.0
C494 C 0.08675 0.18852 0.39739 0.0
C495 C 0.09137 0.16159 0.38183 0.0
C496 C 0.07129 0.14286 0.39961 0.0
C497 C 0.0465 0.15116 0.43048 0.0
C498 C 0.04296 0.17837 0.44915 0.0
H499 H 0.29939 0.07638 0.38518 0.0
H500 H 0.34288 0.13132 0.2311 0.0
H501 H 0.37855 0.13474 0.33757 0.0
H502 H 0.33858 0.10019 0.60352 0.0
H503 H 0.33665 0.06572 0.63505 0.0
H504 H 0.30862 0.08081 0.58137 0.0
H505 H 0.3089 0.04278 0.47396 0.0
H506 H 0.3369 0.02808 0.52518 0.0
H507 H 0.3389 0.03687 0.41729 0.0
H508 H 0.41556 0.11491 0.41 0.0
H509 H 0.44647 0.07887 0.44637 0.0
H510 H 0.3816 0.03371 0.55282 0.0
C511 C 0.31549 0.09068 0.37697 0.0
C512 C 0.31891 0.1029 0.29941 0.0
C513 C 0.34018 0.12137 0.28979 0.0
C514 C 0.36052 0.12348 0.35054 0.0
C515 C 0.35903 0.1073 0.42068 0.0
C516 C 0.33625 0.09213 0.43642 0.0
C517 C 0.34195 0.07123 0.50228 0.0
C518 C 0.3308 0.08003 0.58547 0.0
C519 C 0.33109 0.04313 0.4779 0.0
C520 C 0.37214 0.0727 0.50537 0.0
C521 C 0.38151 0.09501 0.46373 0.0
C522 C 0.40845 0.09794 0.44492 0.0
C523 C 0.42581 0.07708 0.46426 0.0
C524 C 0.4161 0.05333 0.50075 0.0
C525 C 0.38941 0.05187 0.52586 0.0
H526 H 0.61529 0.32213 0.16397 0.0
H527 H 0.58355 0.27141 0.35671 0.0
H528 H 0.61422 0.29249 0.45746 0.0
H529 H 0.68437 0.33994 0.26881 0.0
H530 H 0.68066 0.37411 0.23602 0.0
H531 H 0.66771 0.34726 0.17143 0.0
H532 H 0.62083 0.36876 0.16941 0.0
H533 H 0.63372 0.39547 0.23262 0.0
H534 H 0.60539 0.37604 0.26616 0.0
H535 H 0.63674 0.32619 0.54428 0.0
H536 H 0.64182 0.37073 0.60704 0.0
H537 H 0.65183 0.40508 0.3637 0.0
C538 C 0.61511 0.31499 0.22701 0.0
C539 C 0.59653 0.29518 0.25152 0.0
C540 C 0.5977 0.28609 0.33457 0.0
C541 C 0.61523 0.29808 0.393 0.0
C542 C 0.63127 0.31948 0.36838 0.0
C543 C 0.63129 0.32791 0.28689 0.0
C544 C 0.64384 0.35551 0.27961 0.0
C545 C 0.67075 0.35411 0.23643 0.0
C546 C 0.62479 0.37506 0.23448 0.0
C547 C 0.64796 0.36247 0.37026 0.0
C548 C 0.64243 0.34075 0.42011 0.0
C549 C 0.64149 0.34319 0.50585 0.0
C550 C 0.64412 0.3687 0.54098 0.0
C551 C 0.64654 0.39157 0.49012 0.0
C552 C 0.6504 0.38807 0.40455 0.0
H553 H 0.21715 0.45357 0.1961 0.0
H554 H 0.27806 0.49703 0.33916 0.0
H555 H 0.24723 0.50193 0.45157 0.0
H556 H 0.17791 0.50137 0.2064 0.0
H557 H 0.14609 0.48407 0.20949 0.0
H558 H 0.17393 0.46804 0.16502 0.0
H559 H 0.16984 0.42807 0.2664 0.0
H560 H 0.14095 0.44383 0.30781 0.0
H561 H 0.16824 0.43427 0.37601 0.0
H562 H 0.20838 0.51818 0.5213 0.0
H563 H 0.16692 0.54277 0.54127 0.0
H564 H 0.12946 0.49985 0.33459 0.0
C565 C 0.22423 0.4633 0.25245 0.0
C566 C 0.24971 0.4757 0.25693 0.0
C567 C 0.25869 0.48727 0.33291 0.0
C568 C 0.24106 0.49032 0.39773 0.0
C569 C 0.21448 0.48227 0.38504 0.0
C570 C 0.20608 0.46866 0.31405 0.0
C571 C 0.17602 0.46996 0.30121 0.0
C572 C 0.16807 0.48158 0.21562 0.0
C573 C 0.16302 0.44236 0.31372 0.0
C574 C 0.16931 0.48875 0.37047 0.0
C575 C 0.1914 0.49427 0.42107 0.0
C576 C 0.19083 0.51356 0.48312 0.0
C577 C 0.16733 0.52792 0.49268 0.0
C578 C 0.14495 0.5236 0.43852 0.0
C579 C 0.14592 0.50327 0.37817 0.0
H580 H 0.98109 0.79016 0.07071 0.0
H581 H 0.91898 0.82947 0.20357 0.0
H582 H 0.92293 0.86835 0.11227 0.0
H583 H 0.02225 0.83293 0.08356 0.0
H584 H 0.03798 0.8331 0.98456 0.0
H585 H 0.02101 0.80367 0.01814 0.0
H586 H 0.99006 0.80305 0.88794 0.0
H587 H 1.00784 0.83202 0.85048 0.0
H588 H 0.972 0.83259 0.85835 0.0
H589 H 0.94709 0.90718 0.06238 0.0
H590 H 0.98247 0.94014 0.03335 0.0
H591 H 0.03195 0.87715 0.94034 0.0
C592 C 0.96685 0.80606 0.07636 0.0
C593 C 0.95055 0.80738 0.14608 0.0
C594 C 0.93207 0.82837 0.15146 0.0
C595 C 0.93431 0.85065 0.09978 0.0
C596 C 0.95447 0.85102 0.04171 0.0
C597 C 0.96968 0.82867 0.02674 0.0
C598 C 0.99409 0.83581 0.97716 0.0
C599 C 0.02032 0.82582 0.01849 0.0
C600 C 0.99079 0.82525 0.88819 0.0
C601 C 0.99257 0.86589 0.97876 0.0
C602 C 0.96897 0.87425 1.01245 0.0
C603 C 0.96506 0.90094 0.03257 0.0
C604 C 0.98558 0.91945 0.01778 0.0
C605 C 1.01008 0.91122 0.98497 0.0
C606 C 1.01324 0.88416 0.96363 0.0
H607 H 0.76922 0.96749 0.10078 0.0
H608 H 0.7313 0.91727 0.28139 0.0
H609 H 0.69053 0.91524 0.19392 0.0
H610 H 0.72955 1.0094 0.09248 0.0
H611 H 0.72695 0.01855 0.98473 0.0
H612 H 0.75639 1.00282 0.02312 0.0
H613 H 0.75086 0.96475 0.91613 0.0
H614 H 0.72155 0.981 0.87409 0.0
H615 H 0.71961 0.94656 0.90596 0.0
H616 H 0.6508 0.93616 0.13267 0.0
H617 H 0.61888 0.97093 0.09168 0.0
H618 H 0.68185 1.01287 0.96333 0.0
C619 C 0.75306 0.95441 0.11893 0.0
C620 C 0.75268 0.94399 0.19985 0.0
C621 C 0.7316 0.92631 0.22059 0.0
C622 C 0.7082 0.92517 0.17103 0.0
C623 C 0.70686 0.94094 0.09987 0.0
C624 C 0.72932 0.95434 0.07143 0.0
C625 C 0.72165 0.97545 1.00826 0.0
C626 C 0.73433 1.00313 0.02865 0.0
C627 C 0.72883 0.96639 0.92094 0.0
C628 C 0.69171 0.97524 0.01756 0.0
C629 C 0.68333 0.95413 0.06596 0.0
C630 C 0.65707 0.95224 0.09261 0.0
C631 C 0.6392 0.97254 0.0707 0.0
C632 C 0.64785 0.99506 0.02497 0.0
C633 C 0.67425 0.99576 0.99638 0.0
H634 H 0.4906 0.74017 0.04512 0.0
H635 H 0.43889 0.73052 0.25312 0.0
H636 H 0.40685 0.7044 0.16562 0.0
H637 H 0.43487 0.73442 0.86944 0.0
H638 H 0.45742 0.71543 0.80817 0.0
H639 H 0.4702 0.74202 0.87408 0.0
H640 H 0.5029 0.70904 0.94562 0.0
H641 H 0.49039 0.68277 0.88003 0.0
H642 H 0.48976 0.67883 0.99081 0.0
H643 H 0.38771 0.6701 0.07229 0.0
H644 H 0.38662 0.62822 0.99248 0.0
H645 H 0.452 0.65783 0.84644 0.0
C646 C 0.47173 0.73384 0.07046 0.0
C647 C 0.46685 0.73764 0.15497 0.0
C648 C 0.44269 0.72806 0.18797 0.0
C649 C 0.42432 0.71339 0.13841 0.0
C650 C 0.43045 0.70848 0.05609 0.0
C651 C 0.4536 0.71864 0.02213 0.0
C652 C 0.45896 0.70557 0.9399 0.0
C653 C 0.45512 0.72556 0.86869 0.0
C654 C 0.48712 0.69331 0.93925 0.0
C655 C 0.43704 0.68441 0.93751 0.0
C656 C 0.41988 0.68738 1.00246 0.0
C657 C 0.40063 0.66793 0.0202 0.0
C658 C 0.40023 0.64408 0.97475 0.0
C659 C 0.41949 0.63958 0.9139 0.0
C660 C 0.43667 0.66081 0.89128 0.0
H661 H 0.79034 0.52484 0.12527 0.0
H662 H 0.82277 0.60327 0.18273 0.0
H663 H 0.857 0.59758 0.07791 0.0
H664 H 0.84377 0.49478 0.13855 0.0
H665 H 0.8403 0.47051 0.05638 0.0
H666 H 0.8111 0.48436 0.09978 0.0
H667 H 0.79444 0.50076 0.95616 0.0
H668 H 0.82335 0.48607 0.91087 0.0
H669 H 0.81618 0.52083 0.89353 0.0
H670 H 0.89521 0.57835 1.01307 0.0
H671 H 0.93262 0.54852 0.98571 0.0
H672 H 0.87795 0.48067 0.97497 0.0
C673 C 0.80347 0.54146 0.1107 0.0
C674 C 0.80387 0.56461 0.16011 0.0
C675 C 0.82198 0.58567 0.1437 0.0
C676 C 0.84148 0.58251 0.0843 0.0
C677 C 0.84251 0.55817 0.04238 0.0
C678 C 0.82351 0.53813 0.05328 0.0
C679 C 0.8325 0.51182 0.01754 0.0
C680 C 0.83191 0.48909 0.08196 0.0
C681 C 0.81562 0.50445 0.93989 0.0
C682 C 0.86074 0.51932 0.99512 0.0
C683 C 0.86567 0.5464 1.00612 0.0
C684 C 0.89135 0.55733 1.00163 0.0
C685 C 0.91254 0.54018 0.98753 0.0
C686 C 0.908 0.51234 0.97923 0.0
C687 C 0.88172 0.50196 0.98001 0.0
H688 H 0.04976 0.20418 0.08288 0.0
H689 H 0.05472 0.26026 0.87978 0.0
H690 H 0.04704 0.22279 0.78039 0.0
H691 H 0.08646 0.15336 0.99134 0.0
H692 H 0.06712 0.12624 0.03366 0.0
H693 H 0.06969 0.15767 0.08759 0.0
H694 H 1.01813 0.16104 0.08652 0.0
H695 H 1.01533 0.12944 0.03344 0.0
H696 H 0.99949 0.15851 0.98979 0.0
H697 H 0.04231 0.17713 0.7026 0.0
H698 H 0.03912 0.12995 0.65667 0.0
H699 H 0.03908 0.10422 0.91236 0.0
C700 C 0.04888 0.20878 0.01745 0.0
C701 C 0.05293 0.23543 0.98949 0.0
C702 C 0.0514 0.24026 0.90318 0.0
C703 C 0.04728 0.21897 0.84624 0.0
C704 C 0.04459 0.19281 0.87626 0.0
C705 C 0.04509 0.18782 0.96023 0.0
C706 C 0.04303 0.15803 0.97768 0.0
C707 C 0.06806 0.14826 0.02538 0.0
C708 C 1.01747 0.15137 0.02462 0.0
C709 C 0.04155 0.14674 0.89046 0.0
C710 C 0.0423 0.16706 0.83254 0.0
C711 C 0.04149 0.16126 0.74791 0.0
C712 C 0.03961 0.13429 0.7222 0.0
C713 C 0.03867 0.11311 0.78041 0.0
C714 C 0.03982 0.11971 0.8658 0.0
H715 H 0.35531 0.09206 0.03174 0.0
H716 H 0.31971 1.01245 0.02786 0.0
H717 H 0.3568 0.997 0.94224 0.0
H718 H 0.38418 0.09172 0.82717 0.0
H719 H 0.41409 0.10932 0.86196 0.0
H720 H 0.38302 0.11473 0.91277 0.0
H721 H 0.40547 0.10217 0.05323 0.0
H722 H 0.43656 0.09663 1.0029 0.0
H723 H 0.42183 0.07047 0.06394 0.0
H724 H 0.40035 0.98977 0.86135 0.0
H725 H 0.44503 0.99097 0.80017 0.0
H726 H 0.45451 0.07426 0.87019 0.0
C727 C 0.35504 0.07126 1.01349 0.0
C728 C 0.33409 0.05355 0.03837 0.0
C729 C 0.33489 0.02674 1.00982 0.0
C730 C 0.35618 0.01769 0.96142 0.0
C731 C 0.37693 0.0355 0.9417 0.0
C732 C 0.37643 0.06177 0.96717 0.0
C733 C 0.4019 0.07664 0.94317 0.0
C734 C 0.3954 0.09945 0.88267 0.0
C735 C 0.41735 0.08709 0.0204 0.0
C736 C 0.41715 0.05462 0.90083 0.0
C737 C 0.4022 0.03113 0.8993 0.0
C738 C 0.41205 1.00812 0.86267 0.0
C739 C 0.43762 1.00903 0.82771 0.0
C740 C 0.45374 0.03266 0.83007 0.0
C741 C 0.44303 0.05577 0.8673 0.0
H742 H 0.53316 0.35539 0.11795 0.0
H743 H 0.52664 0.29458 0.92754 0.0
H744 H 0.52133 0.32993 0.8211 0.0
H745 H 0.48525 0.40268 0.02198 0.0
H746 H 0.50479 0.43139 0.05568 0.0
H747 H 0.50532 0.40117 0.11609 0.0
H748 H 0.55694 0.4004 0.10815 0.0
H749 H 0.55656 0.4304 0.0469 0.0
H750 H 0.57217 0.40082 1.00844 0.0
H751 H 0.5227 0.37295 0.73374 0.0
H752 H 0.52534 0.41872 0.67597 0.0
H753 H 0.52923 0.45123 0.92458 0.0
C754 C 0.52996 0.34946 0.05401 0.0
C755 C 0.53015 0.32208 0.03125 0.0
C756 C 0.52612 0.31529 0.94677 0.0
C757 C 0.52335 0.33531 0.8858 0.0
C758 C 0.52428 0.36214 0.91019 0.0
C759 C 0.52698 0.36916 0.99267 0.0
C760 C 0.5283 0.39933 1.00297 0.0
C761 C 0.50449 0.40922 0.05208 0.0
C762 C 0.55508 0.40825 0.04404 0.0
C763 C 0.52633 0.40831 0.9134 0.0
C764 C 0.5242 0.3866 0.8606 0.0
C765 C 0.52385 0.39002 0.77482 0.0
C766 C 0.52546 0.41614 0.74244 0.0
C767 C 0.52708 0.43872 0.79541 0.0
C768 C 0.52743 0.43453 0.88212 0.0
H769 H 0.21484 0.53587 0.0468 0.0
H770 H 0.25468 0.48193 0.88299 0.0
H771 H 0.21471 0.48162 0.78855 0.0
H772 H 0.15309 0.50524 0.03325 0.0
H773 H 0.13344 0.5351 0.03635 0.0
H774 H 0.16642 0.5349 0.08342 0.0
H775 H 0.18082 0.57527 0.99466 0.0
H776 H 0.14765 0.57619 0.94854 0.0
H777 H 0.17628 0.57382 0.88379 0.0
H778 H 0.16699 0.48169 0.72389 0.0
H779 H 0.11873 0.48636 0.68737 0.0
H780 H 0.11048 0.54145 0.89115 0.0
C781 C 0.21563 0.52503 0.98895 0.0
C782 C 0.2383 0.50949 0.9712 0.0
C783 C 0.23803 0.49464 0.89667 0.0
C784 C 0.21518 0.4941 0.84325 0.0
C785 C 0.1927 0.50865 0.86475 0.0
C786 C 0.19303 0.52432 0.93516 0.0
C787 C 0.16584 0.53669 0.94784 0.0
C788 C 0.15401 0.52742 0.03007 0.0
C789 C 0.16777 0.56731 0.94341 0.0
C790 C 0.1499 0.52528 0.87437 0.0
C791 C 0.16566 0.50901 0.82729 0.0
C792 C 0.15473 0.49478 0.7597 0.0
C793 C 0.12725 0.49741 0.73956 0.0
C794 C 0.11094 0.5144 0.78593 0.0
C795 C 0.12256 0.5286 0.85387 0.0
H796 H 0.99317 0.85985 0.31551 0.0
H797 H 1.00501 0.8023 0.51306 0.0
H798 H 1.01393 0.83979 0.61144 0.0
H799 H 0.04117 0.91011 0.38498 0.0
H800 H 0.02004 0.93742 0.35422 0.0
H801 H 1.01752 0.90608 0.29964 0.0
H802 H 0.96694 0.90348 0.32806 0.0
H803 H 0.96927 0.93471 0.38326 0.0
H804 H 0.95588 0.90543 0.43302 0.0
H805 H 0.0201 0.88519 0.68951 0.0
H806 H 0.02265 0.93219 0.73757 0.0
H807 H 1.00193 0.9593 0.49033 0.0
C808 C 0.99747 0.85484 0.37955 0.0
C809 C 0.99791 0.8277 0.40617 0.0
C810 C 1.00459 0.82263 0.49038 0.0
C811 C 1.00948 0.84393 0.54691 0.0
C812 C 1.00757 0.87035 0.51873 0.0
C813 C 1.00171 0.87573 0.43666 0.0
C814 C 0.99946 0.90563 0.42158 0.0
C815 C 0.02082 0.91538 0.36156 0.0
C816 C 0.97121 0.91272 0.3896 0.0
C817 C 1.00487 0.91654 0.50816 0.0
C818 C 1.00986 0.89592 0.56332 0.0
C819 C 1.01612 0.90128 0.64645 0.0
C820 C 1.01754 0.92811 0.67337 0.0
C821 C 1.01228 0.94956 0.61828 0.0
C822 C 1.00562 0.94347 0.53456 0.0
H823 H 0.70005 0.99577 0.33539 0.0
H824 H 0.76006 0.02136 0.51817 0.0
H825 H 0.72387 0.03247 0.61427 0.0
H826 H 0.64826 0.04356 0.3841 0.0
H827 H 0.6216 0.01939 0.36767 0.0
H828 H 0.65202 1.01665 0.31139 0.0
H829 H 0.65782 0.96843 0.36527 0.0
H830 H 0.62757 0.971 0.4223 0.0
H831 H 0.6584 0.96225 0.47509 0.0
H832 H 0.6797 0.03805 0.6944 0.0
H833 H 0.63387 0.03818 0.7476 0.0
H834 H 0.60333 1.00547 0.51508 0.0
C835 C 0.7058 1.00385 0.39549 0.0
C836 C 0.73331 1.00743 0.41888 0.0
C837 C 0.73942 0.01858 0.49786 0.0
C838 C 0.71886 0.02474 0.55322 0.0
C839 C 0.6921 0.01971 0.52915 0.0
C840 C 0.68564 1.00962 0.45162 0.0
C841 C 0.65563 1.00457 0.44136 0.0
C842 C 0.64368 0.02209 0.37203 0.0
C843 C 0.64951 0.97479 0.42506 0.0
C844 C 0.64597 1.01311 0.52559 0.0
C845 C 0.66724 0.02206 0.5752 0.0
C846 C 0.66308 0.03106 0.65558 0.0
C847 C 0.63681 0.03101 0.68559 0.0
C848 C 0.61463 0.02167 0.63651 0.0
C849 C 0.6196 1.01257 0.55513 0.0
H850 H 0.49261 0.70689 0.43152 0.0
H851 H 0.57339 0.71915 0.34687 0.0
H852 H 0.58816 0.68022 0.42943 0.0
H853 H 0.51057 0.68207 0.64181 0.0
H854 H 0.48343 0.65801 0.64028 0.0
H855 H 0.48013 0.68889 0.58397 0.0
H856 H 0.46889 0.66224 0.44986 0.0
H857 H 0.47237 0.63133 0.50553 0.0
H858 H 0.49188 0.63746 0.41527 0.0
H859 H 0.59295 0.63642 0.50838 0.0
H860 H 0.58795 0.59344 0.58135 0.0
H861 H 0.50377 0.60909 0.61332 0.0
C862 C 0.51355 0.70174 0.43131 0.0
C863 C 0.53182 0.71638 0.38229 0.0
C864 C 0.55902 0.70877 0.38454 0.0
C865 C 0.56756 0.68646 0.4309 0.0
C866 C 0.54877 0.67191 0.4756 0.0
C867 C 0.52235 0.67949 0.47697 0.0
C868 C 0.50576 0.65961 0.52577 0.0
C869 C 0.4943 0.67294 0.60251 0.0
C870 C 0.48341 0.64691 0.47081 0.0
C871 C 0.52679 0.63925 0.55006 0.0
C872 C 0.55151 0.64681 0.52097 0.0
C873 C 0.57374 0.63057 0.53224 0.0
C874 C 0.57066 0.60605 0.57377 0.0
C875 C 0.5455 0.59772 0.60397 0.0
C876 C 0.52338 0.61486 0.59225 0.0
H877 H 0.84637 0.58177 0.42055 0.0
H878 H 0.80117 0.51409 0.51363 0.0
H879 H 0.83886 0.50404 0.61068 0.0
H880 H 0.90659 0.54769 0.41009 0.0
H881 H 0.92749 0.57624 0.43639 0.0
H882 H 0.89535 0.58094 0.38636 0.0
H883 H 0.88159 0.61206 0.50544 0.0
H884 H 0.91378 0.60755 0.5558 0.0
H885 H 0.88367 0.60024 0.61063 0.0
H886 H 0.88419 0.49948 0.69109 0.0
H887 H 0.93161 0.49938 0.73884 0.0
H888 H 0.94819 0.56686 0.57953 0.0
C889 C 0.84409 0.56481 0.46133 0.0
C890 C 0.82046 0.54865 0.45813 0.0
C891 C 0.81862 0.52711 0.51478 0.0
C892 C 0.84015 0.52111 0.56992 0.0
C893 C 0.86358 0.5367 0.56785 0.0
C894 C 0.86556 0.55812 0.51462 0.0
C895 C 0.89356 0.5703 0.51768 0.0
C896 C 0.9065 0.56868 0.43259 0.0
C897 C 0.89311 0.59926 0.54928 0.0
C898 C 0.90738 0.55216 0.57998 0.0
C899 C 0.88967 0.53324 0.60979 0.0
C900 C 0.89807 0.51428 0.6679 0.0
C901 C 0.92512 0.51443 0.69497 0.0
C902 C 0.94383 0.53306 0.66305 0.0
C903 C 0.93455 0.55227 0.60519 0.0
loop_
_geom_bond_atom_site_label_1
_geom_bond_atom_site_label_2
_geom_bond_distance
_geom_bond_site_symmetry_2
_ccdc_geom_bond_type
H0 C5 0.930 . S
H1 C8 0.930 . S
H2 C10 0.930 . S
H3 C4 1.016 . S
C4 H3 1.016 . S
C4 N11 1.286 . S
C5 H0 0.930 . S
C5 C6 1.397 . S
C5 C7 1.361 . S
C6 C5 1.397 . S
C6 C10 1.390 . S
C7 C5 1.361 . S
C7 C8 1.393 . S
C7 N11 1.413 . S
C8 H1 0.930 . S
C8 C7 1.393 . S
C8 C9 1.399 . S
C9 C8 1.399 . S
C9 C10 1.381 . S
C10 H2 0.930 . S
C10 C6 1.390 . S
C10 C9 1.381 . S
N11 C4 1.286 . S
N11 C7 1.413 . S
H12 C17 0.930 . S
H13 C20 0.930 . S
H14 C22 0.930 . S
H15 C16 1.016 . S
C16 H15 1.016 . S
C16 N23 1.286 . S
C17 H12 0.930 . S
C17 C18 1.397 . S
C17 C19 1.361 . S
C18 C17 1.397 . S
C18 C22 1.390 . S
C19 C17 1.361 . S
C19 C20 1.393 . S
C19 N23 1.413 . S
C20 H13 0.930 . S
C20 C19 1.393 . S
C20 C21 1.399 . S
C21 C20 1.399 . S
C21 C22 1.381 . S
C22 H14 0.930 . S
C22 C18 1.390 . S
C22 C21 1.381 . S
N23 C16 1.286 . S
N23 C19 1.413 . S
H24 C29 0.930 . S
H25 C32 0.930 . S
H26 C34 0.930 . S
H27 C28 1.016 . S
C28 H27 1.016 . S
C28 N35 1.286 . S
C29 H24 0.930 . S
C29 C30 1.397 . S
C29 C31 1.361 . S
C30 C29 1.397 . S
C30 C34 1.390 . S
C31 C29 1.361 . S
C31 C32 1.393 . S
C31 N35 1.413 . S
C32 H25 0.930 . S
C32 C31 1.393 . S
C32 C33 1.399 . S
C33 C32 1.399 . S
C33 C34 1.381 . S
C34 H26 0.930 . S
C34 C30 1.390 . S
C34 C33 1.381 . S
N35 C28 1.286 . S
N35 C31 1.413 . S
H36 C41 0.930 . S
H37 C44 0.930 . S
H38 C46 0.930 . S
H39 C40 1.016 . S
C40 H39 1.016 . S
C40 N47 1.286 . S
C41 H36 0.930 . S
C41 C42 1.397 . S
C41 C43 1.361 . S
C42 C41 1.397 . S
C42 C46 1.390 . S
C43 C41 1.361 . S
C43 C44 1.393 . S
C43 N47 1.413 . S
C44 H37 0.930 . S
C44 C43 1.393 . S
C44 C45 1.399 . S
C45 C44 1.399 . S
C45 C46 1.381 . S
C46 H38 0.930 . S
C46 C42 1.390 . S
C46 C45 1.381 . S
N47 C40 1.286 . S
N47 C43 1.413 . S
H48 C53 0.930 1_556 S
H49 C56 0.930 . S
H50 C58 0.930 . S
H51 C52 1.016 . S
C52 H51 1.016 . S
C52 N59 1.286 . S
C53 H48 0.930 1_554 S
C53 C54 1.397 1_554 S
C53 C55 1.361 . S
C54 C53 1.397 1_556 S
C54 C58 1.391 1_556 S
C55 C53 1.361 . S
C55 C56 1.393 . S
C55 N59 1.413 . S
C56 H49 0.930 . S
C56 C55 1.393 . S
C56 C57 1.399 . S
C57 C56 1.399 . S
C57 C58 1.381 . S
C58 H50 0.930 . S
C58 C54 1.391 1_554 S
C58 C57 1.381 . S
N59 C52 1.286 . S
N59 C55 1.413 . S
H60 C65 0.930 . S
H61 C68 0.930 . S
H62 C70 0.930 . S
H63 C64 1.016 . S
C64 H63 1.016 . S
C64 N71 1.286 . S
C65 H60 0.930 . S
C65 C66 1.397 . S
C65 C67 1.361 1_556 S
C66 C65 1.397 . S
C66 C70 1.390 1_556 S
C67 C65 1.361 1_554 S
C67 C68 1.393 . S
C67 N71 1.413 . S
C68 H61 0.930 . S
C68 C67 1.393 . S
C68 C69 1.399 . S
C69 C68 1.399 . S
C69 C70 1.381 . S
C70 H62 0.930 . S
C70 C66 1.390 1_554 S
C70 C69 1.381 . S
N71 C64 1.286 . S
N71 C67 1.413 . S
H72 C77 0.930 . S
H73 C80 0.930 . S
H74 C82 0.930 1_556 S
H75 C76 1.016 . S
C76 H75 1.016 . S
C76 N83 1.286 . S
C77 H72 0.930 . S
C77 C78 1.397 . S
C77 C79 1.361 1_556 S
C78 C77 1.397 . S
C78 C82 1.390 1_556 S
C79 C77 1.361 1_554 S
C79 C80 1.393 . S
C79 N83 1.413 . S
C80 H73 0.930 . S
C80 C79 1.393 . S
C80 C81 1.399 . S
C81 C80 1.399 . S
C81 C82 1.381 . S
C82 H74 0.930 1_554 S
C82 C78 1.390 1_554 S
C82 C81 1.381 . S
N83 C76 1.286 . S
N83 C79 1.413 . S
H84 C89 0.919 1_556 S
H85 C92 0.930 . S
H86 C94 0.930 . S
H87 C88 1.016 . S
C88 H87 1.016 . S
C88 N95 1.286 . S
C89 H84 0.919 1_554 S
C89 C90 1.395 1_554 S
C89 C91 1.374 . S
C90 C89 1.395 1_556 S
C90 C94 1.390 1_556 S
C91 C89 1.374 . S
C91 C92 1.393 . S
C91 N95 1.413 . S
C92 H85 0.930 . S
C92 C91 1.393 . S
C92 C93 1.399 . S
C93 C92 1.399 . S
C93 C94 1.381 . S
C94 H86 0.930 . S
C94 C90 1.390 1_554 S
C94 C93 1.381 . S
N95 C88 1.286 . S
N95 C91 1.413 . S
Eu96 C105 2.828 . S
Eu96 O107 2.392 . S
Eu96 O109 2.418 1_545 S
Eu96 O114 2.373 1_655 S
Eu96 O117 2.488 . S
Eu96 O118 2.469 1_655 S
Eu96 O119 2.349 1_655 S
Eu97 O106 2.373 1_455 S
Eu97 O110 2.488 . S
Eu97 O111 2.471 . S
Eu97 O112 2.349 . S
Eu97 O115 2.392 1_565 S
Eu97 O116 2.418 1_565 S
Eu97 C126 2.828 . S
C98 O116 1.244 . S
C98 O119 1.265 . S
C99 C100 1.379 1_655 S
C99 C103 1.373 . S
C99 C105 1.505 . S
C100 C99 1.379 1_455 S
C100 C102 1.369 . S
C100 H128 0.930 . S
C101 C103 1.383 . S
C101 C104 1.382 1_655 S
C101 H129 0.930 . S
C102 C100 1.369 . S
C102 C104 1.392 . S
C102 H130 0.930 . S
C103 C99 1.373 . S
C103 C101 1.383 . S
C103 H131 0.931 . S
C104 C101 1.382 1_455 S
C104 C102 1.392 . S
C105 Eu96 2.828 . S
C105 C99 1.505 . S
C105 O117 1.249 . S
C105 O118 1.243 1_655 S
O106 Eu97 2.373 1_655 S
O106 C108 1.258 1_565 S
O107 Eu96 2.392 . S
O107 C108 1.242 . S
C108 O106 1.258 1_545 S
C108 O107 1.242 . S
O109 Eu96 2.418 1_565 S
O109 C113 1.244 . S
O110 Eu97 2.488 . S
O110 C126 1.249 . S
O111 Eu97 2.471 . S
O111 C126 1.244 . S
O112 Eu97 2.349 . S
O112 C113 1.265 1_455 S
C113 O109 1.244 . S
C113 O112 1.265 1_655 S
O114 Eu96 2.373 1_455 S
O114 C127 1.258 . S
O115 Eu97 2.392 1_545 S
O115 C127 1.242 . S
O116 Eu97 2.418 1_545 S
O116 C98 1.244 . S
O117 Eu96 2.488 . S
O117 C105 1.249 . S
O118 Eu96 2.469 1_455 S
O118 C105 1.243 1_455 S
O119 Eu96 2.349 1_455 S
O119 C98 1.265 . S
C120 C121 1.379 . S
C120 C124 1.373 1_556 S
C120 C126 1.505 . S
C121 C120 1.379 . S
C121 C123 1.369 1_556 S
C121 H132 0.930 1_455 S
C122 C124 1.383 . S
C122 C125 1.382 . S
C122 H133 0.930 . S
C123 C121 1.369 1_554 S
C123 C125 1.392 . S
C123 H134 0.930 1_455 S
C124 C120 1.373 1_554 S
C124 C122 1.383 . S
C124 H135 0.931 . S
C125 C122 1.382 . S
C125 C123 1.392 . S
C126 Eu97 2.828 . S
C126 O110 1.249 . S
C126 O111 1.244 . S
C126 C120 1.505 . S
C127 O114 1.258 . S
C127 O115 1.242 . S
H128 C100 0.930 . S
H129 C101 0.930 . S
H130 C102 0.930 . S
H131 C103 0.931 . S
H132 C121 0.930 1_655 S
H133 C122 0.930 . S
H134 C123 0.930 1_655 S
H135 C124 0.931 . S
Eu136 C145 2.828 . S
Eu136 O147 2.392 . S
Eu136 O149 2.418 . S
Eu136 O154 2.373 . S
Eu136 O157 2.488 . S
Eu136 O158 2.471 . S
Eu136 O159 2.349 1_545 S
Eu137 O146 2.373 1_565 S
Eu137 O150 2.488 . S
Eu137 O151 2.471 1_565 S
Eu137 O152 2.349 1_565 S
Eu137 O155 2.392 . S
Eu137 O156 2.418 . S
Eu137 C166 2.828 . S
C138 O156 1.244 . S
C138 O159 1.265 . S
C139 C140 1.379 . S
C139 C143 1.373 . S
C139 C145 1.505 . S
C140 C139 1.379 . S
C140 C142 1.369 . S
C140 H168 0.930 1_545 S
C141 C143 1.383 . S
C141 C144 1.382 1_556 S
C141 H169 0.930 . S
C142 C140 1.369 . S
C142 C144 1.392 1_556 S
C142 H170 0.930 1_546 S
C143 C139 1.373 . S
C143 C141 1.383 . S
C143 H171 0.931 . S
C144 C141 1.382 1_554 S
C144 C142 1.392 1_554 S
C145 Eu136 2.828 . S
C145 C139 1.505 . S
C145 O157 1.249 . S
C145 O158 1.244 . S
O146 Eu137 2.373 1_545 S
O146 C148 1.258 . S
O147 Eu136 2.392 . S
O147 C148 1.242 . S
C148 O146 1.258 . S
C148 O147 1.242 . S
O149 Eu136 2.418 . S
O149 C153 1.244 . S
O150 Eu137 2.488 . S
O150 C166 1.249 . S
O151 Eu137 2.471 1_545 S
O151 C166 1.244 1_545 S
O152 Eu137 2.349 1_545 S
O152 C153 1.265 . S
C153 O149 1.244 . S
C153 O152 1.265 . S
O154 Eu136 2.373 . S
O154 C167 1.258 1_545 S
O155 Eu137 2.392 . S
O155 C167 1.242 . S
O156 Eu137 2.418 . S
O156 C138 1.244 . S
O157 Eu136 2.488 . S
O157 C145 1.249 . S
O158 Eu136 2.471 . S
O158 C145 1.244 . S
O159 Eu136 2.349 1_565 S
O159 C138 1.265 . S
C160 C161 1.379 1_565 S
C160 C164 1.373 . S
C160 C166 1.505 . S
C161 C160 1.379 1_545 S
C161 C163 1.369 . S
C161 H172 0.930 . S
C162 C164 1.383 . S
C162 C165 1.382 . S
C162 H173 0.930 . S
C163 C161 1.369 . S
C163 C165 1.392 1_545 S
C163 H174 0.930 . S
C164 C160 1.373 . S
C164 C162 1.383 . S
C164 H175 0.931 . S
C165 C162 1.382 . S
C165 C163 1.392 1_565 S
C166 Eu137 2.828 . S
C166 O150 1.249 . S
C166 O151 1.244 1_565 S
C166 C160 1.505 . S
C167 O154 1.258 1_565 S
C167 O155 1.242 . S
H168 C140 0.930 1_565 S
H169 C141 0.930 . S
H170 C142 0.930 1_564 S
H171 C143 0.931 . S
H172 C161 0.930 . S
H173 C162 0.930 . S
H174 C163 0.930 . S
H175 C164 0.931 . S
Eu176 C185 2.828 . S
Eu176 O187 2.392 . S
Eu176 O189 2.418 . S
Eu176 O194 2.373 . S
Eu176 O197 2.488 . S
Eu176 O198 2.471 . S
Eu176 O199 2.349 . S
Eu177 O186 2.373 . S
Eu177 O190 2.488 . S
Eu177 O191 2.471 . S
Eu177 O192 2.349 . S
Eu177 O195 2.392 . S
Eu177 O196 2.418 . S
Eu177 C206 2.828 . S
C178 O196 1.244 . S
C178 O199 1.265 . S
C179 C180 1.379 . S
C179 C183 1.373 . S
C179 C185 1.505 . S
C180 C179 1.379 . S
C180 C182 1.369 . S
C180 H208 0.930 . S
C181 C183 1.383 . S
C181 C184 1.382 . S
C181 H209 0.930 . S
C182 C180 1.369 . S
C182 C184 1.392 . S
C182 H210 0.930 . S
C183 C179 1.373 . S
C183 C181 1.383 . S
C183 H211 0.931 . S
C184 C181 1.382 . S
C184 C182 1.392 . S
C185 Eu176 2.828 . S
C185 C179 1.505 . S
C185 O197 1.249 . S
C185 O198 1.244 . S
O186 Eu177 2.373 . S
O186 C188 1.258 . S
O187 Eu176 2.392 . S
O187 C188 1.242 . S
C188 O186 1.258 . S
C188 O187 1.242 . S
O189 Eu176 2.418 . S
O189 C193 1.244 . S
O190 Eu177 2.488 . S
O190 C206 1.249 . S
O191 Eu177 2.471 . S
O191 C206 1.244 . S
O192 Eu177 2.349 . S
O192 C193 1.265 . S
C193 O189 1.244 . S
C193 O192 1.265 . S
O194 Eu176 2.373 . S
O194 C207 1.258 . S
O195 Eu177 2.392 . S
O195 C207 1.242 . S
O196 Eu177 2.418 . S
O196 C178 1.244 . S
O197 Eu176 2.488 . S
O197 C185 1.249 . S
O198 Eu176 2.471 . S
O198 C185 1.244 . S
O199 Eu176 2.349 . S
O199 C178 1.265 . S
C200 C201 1.379 . S
C200 C204 1.373 . S
C200 C206 1.505 . S
C201 C200 1.379 . S
C201 C203 1.369 . S
C201 H212 0.930 . S
C202 C204 1.383 . S
C202 C205 1.382 . S
C202 H213 0.930 . S
C203 C201 1.369 . S
C203 C205 1.392 . S
C203 H214 0.930 . S
C204 C200 1.373 . S
C204 C202 1.383 . S
C204 H215 0.931 . S
C205 C202 1.382 . S
C205 C203 1.392 . S
C206 Eu177 2.828 . S
C206 O190 1.249 . S
C206 O191 1.244 . S
C206 C200 1.505 . S
C207 O194 1.258 . S
C207 O195 1.242 . S
H208 C180 0.930 . S
H209 C181 0.930 . S
H210 C182 0.930 . S
H211 C183 0.931 . S
H212 C201 0.930 . S
H213 C202 0.930 . S
H214 C203 0.930 . S
H215 C204 0.931 . S
Eu216 C225 2.828 . S
Eu216 O227 2.392 . S
Eu216 O229 2.418 1_455 S
Eu216 O234 2.373 . S
Eu216 O237 2.488 . S
Eu216 O238 2.471 . S
Eu216 O239 2.349 . S
Eu217 O226 2.373 . S
Eu217 O230 2.488 . S
Eu217 O231 2.471 . S
Eu217 O232 2.349 . S
Eu217 O235 2.392 1_655 S
Eu217 O236 2.418 1_655 S
Eu217 C246 2.828 . S
C218 O236 1.244 . S
C218 O239 1.265 . S
C219 C220 1.379 . S
C219 C223 1.373 . S
C219 C225 1.505 . S
C220 C219 1.379 . S
C220 C222 1.369 . S
C220 H248 0.930 . S
C221 C223 1.383 . S
C221 C224 1.382 . S
C221 H249 0.930 . S
C222 C220 1.369 . S
C222 C224 1.392 . S
C222 H250 0.930 . S
C223 C219 1.373 . S
C223 C221 1.383 . S
C223 H251 0.931 . S
C224 C221 1.382 . S
C224 C222 1.392 . S
C225 Eu216 2.828 . S
C225 C219 1.505 . S
C225 O237 1.249 . S
C225 O238 1.244 . S
O226 Eu217 2.373 . S
O226 C228 1.258 1_655 S
O227 Eu216 2.392 . S
O227 C228 1.242 . S
C228 O226 1.258 1_455 S
C228 O227 1.242 . S
O229 Eu216 2.418 1_655 S
O229 C233 1.244 . S
O230 Eu217 2.488 . S
O230 C246 1.249 . S
O231 Eu217 2.471 . S
O231 C246 1.244 . S
O232 Eu217 2.349 . S
O232 C233 1.265 . S
C233 O229 1.244 . S
C233 O232 1.265 . S
O234 Eu216 2.373 . S
O234 C247 1.258 . S
O235 Eu217 2.392 1_455 S
O235 C247 1.242 . S
O236 Eu217 2.418 1_455 S
O236 C218 1.244 . S
O237 Eu216 2.488 . S
O237 C225 1.249 . S
O238 Eu216 2.471 . S
O238 C225 1.244 . S
O239 Eu216 2.349 . S
O239 C218 1.265 . S
C240 C241 1.379 . S
C240 C244 1.373 1_556 S
C240 C246 1.505 . S
C241 C240 1.379 . S
C241 C243 1.369 1_556 S
C241 H252 0.930 . S
C242 C244 1.383 . S
C242 C245 1.382 . S
C242 H253 0.930 . S
C243 C241 1.369 1_554 S
C243 C245 1.392 . S
C243 H254 0.930 1_554 S
C244 C240 1.373 1_554 S
C244 C242 1.383 . S
C244 H255 0.931 . S
C245 C242 1.382 . S
C245 C243 1.392 . S
C246 Eu217 2.828 . S
C246 O230 1.249 . S
C246 O231 1.244 . S
C246 C240 1.505 . S
C247 O234 1.258 . S
C247 O235 1.242 . S
H248 C220 0.930 . S
H249 C221 0.930 . S
H250 C222 0.930 . S
H251 C223 0.931 . S
H252 C241 0.930 . S
H253 C242 0.930 . S
H254 C243 0.930 1_556 S
H255 C244 0.931 . S
H256 C268 0.957 . S
H257 C270 0.930 . S
H258 C271 0.930 . S
H259 C275 0.959 . S
H260 C275 0.959 . S
H261 C275 0.961 . S
H262 C276 0.960 . S
H263 C276 0.961 . S
H264 C276 0.959 . S
H265 C279 0.929 . S
H266 C280 0.931 . S
H267 C282 0.930 1_565 S
C268 H256 0.957 . S
C268 C269 1.399 . S
C268 C273 1.399 . S
C269 C268 1.399 . S
C269 C270 1.376 . S
C270 H257 0.930 . S
C270 C269 1.376 . S
C270 C271 1.388 . S
C271 H258 0.930 . S
C271 C270 1.388 . S
C271 C272 1.390 . S
C272 C271 1.390 . S
C272 C273 1.394 . S
C272 C278 1.465 . S
C273 C268 1.399 . S
C273 C272 1.394 . S
C273 C274 1.516 1_545 S
C274 C273 1.516 1_565 S
C274 C275 1.502 . S
C274 C276 1.561 . S
C274 C277 1.526 1_565 S
C275 H259 0.959 . S
C275 H260 0.959 . S
C275 H261 0.961 . S
C275 C274 1.502 . S
C276 H262 0.960 . S
C276 H263 0.961 . S
C276 H264 0.959 . S
C276 C274 1.561 . S
C277 C274 1.526 1_545 S
C277 C278 1.396 . S
C277 C282 1.390 . S
C278 C272 1.465 . S
C278 C277 1.396 . S
C278 C279 1.399 . S
C279 H265 0.929 . S
C279 C278 1.399 . S
C279 C280 1.385 . S
C280 H266 0.931 . S
C280 C279 1.385 . S
C280 C281 1.389 . S
C281 C280 1.389 . S
C281 C282 1.387 . S
C282 H267 0.930 1_545 S
C282 C277 1.390 . S
C282 C281 1.387 . S
H283 C295 0.930 . S
H284 C297 0.930 . S
H285 C298 0.930 . S
H286 C302 0.959 . S
H287 C302 0.959 . S
H288 C302 0.961 . S
H289 C303 0.960 . S
H290 C303 0.961 . S
H291 C303 0.959 . S
H292 C306 0.929 . S
H293 C307 0.931 . S
H294 C309 0.930 . S
C295 H283 0.930 . S
C295 C296 1.399 . S
C295 C300 1.399 . S
C296 C295 1.399 . S
C296 C297 1.376 . S
C297 H284 0.930 . S
C297 C296 1.376 . S
C297 C298 1.388 . S
C298 H285 0.930 . S
C298 C297 1.388 . S
C298 C299 1.390 . S
C299 C298 1.390 . S
C299 C300 1.394 . S
C299 C305 1.465 . S
C300 C295 1.399 . S
C300 C299 1.394 . S
C300 C301 1.516 . S
C301 C300 1.516 . S
C301 C302 1.502 . S
C301 C303 1.561 . S
C301 C304 1.526 . S
C302 H286 0.959 . S
C302 H287 0.959 . S
C302 H288 0.961 . S
C302 C301 1.502 . S
C303 H289 0.960 . S
C303 H290 0.961 . S
C303 H291 0.959 . S
C303 C301 1.561 . S
C304 C301 1.526 . S
C304 C305 1.396 . S
C304 C309 1.390 . S
C305 C299 1.465 . S
C305 C304 1.396 . S
C305 C306 1.399 . S
C306 H292 0.929 . S
C306 C305 1.399 . S
C306 C307 1.385 . S
C307 H293 0.931 . S
C307 C306 1.385 . S
C307 C308 1.389 . S
C308 C307 1.389 . S
C308 C309 1.387 . S
C309 H294 0.930 . S
C309 C304 1.390 . S
C309 C308 1.387 . S
H310 C322 0.930 . S
H311 C324 0.930 . S
H312 C325 0.930 . S
H313 C329 0.959 . S
H314 C329 0.959 . S
H315 C329 0.961 . S
H316 C330 0.960 . S
H317 C330 0.961 . S
H318 C330 0.959 . S
H319 C333 0.929 . S
H320 C334 0.931 . S
H321 C336 0.930 . S
C322 H310 0.930 . S
C322 C323 1.399 . S
C322 C327 1.399 . S
C323 C322 1.399 . S
C323 C324 1.376 . S
C324 H311 0.930 . S
C324 C323 1.376 . S
C324 C325 1.388 . S
C325 H312 0.930 . S
C325 C324 1.388 . S
C325 C326 1.390 . S
C326 C325 1.390 . S
C326 C327 1.394 . S
C326 C332 1.465 . S
C327 C322 1.399 . S
C327 C326 1.394 . S
C327 C328 1.516 . S
C328 C327 1.516 . S
C328 C329 1.502 . S
C328 C330 1.561 . S
C328 C331 1.526 . S
C329 H313 0.959 . S
C329 H314 0.959 . S
C329 H315 0.961 . S
C329 C328 1.502 . S
C330 H316 0.960 . S
C330 H317 0.961 . S
C330 H318 0.959 . S
C330 C328 1.561 . S
C331 C328 1.526 . S
C331 C332 1.396 . S
C331 C336 1.390 . S
C332 C326 1.465 . S
C332 C331 1.396 . S
C332 C333 1.399 . S
C333 H319 0.929 . S
C333 C332 1.399 . S
C333 C334 1.385 . S
C334 H320 0.931 . S
C334 C333 1.385 . S
C334 C335 1.389 . S
C335 C334 1.389 . S
C335 C336 1.387 . S
C336 H321 0.930 . S
C336 C331 1.390 . S
C336 C335 1.387 . S
H337 C349 0.930 . S
H338 C351 0.930 . S
H339 C352 0.930 1_655 S
H340 C356 0.959 . S
H341 C356 0.959 . S
H342 C356 0.961 . S
H343 C357 0.960 . S
H344 C357 0.961 . S
H345 C357 0.959 . S
H346 C360 0.929 1_655 S
H347 C361 0.931 1_655 S
H348 C363 0.930 . S
C349 H337 0.930 . S
C349 C350 1.399 . S
C349 C354 1.399 . S
C350 C349 1.399 . S
C350 C351 1.376 . S
C351 H338 0.930 . S
C351 C350 1.376 . S
C351 C352 1.388 . S
C352 H339 0.930 1_455 S
C352 C351 1.388 . S
C352 C353 1.390 . S
C353 C352 1.390 . S
C353 C354 1.394 . S
C353 C359 1.465 . S
C354 C349 1.399 . S
C354 C353 1.394 . S
C354 C355 1.516 . S
C355 C354 1.516 . S
C355 C356 1.502 . S
C355 C357 1.561 . S
C355 C358 1.526 . S
C356 H340 0.959 . S
C356 H341 0.959 . S
C356 H342 0.961 . S
C356 C355 1.502 . S
C357 H343 0.960 . S
C357 H344 0.961 . S
C357 H345 0.959 . S
C357 C355 1.561 . S
C358 C355 1.526 . S
C358 C359 1.396 . S
C358 C363 1.390 . S
C359 C353 1.465 . S
C359 C358 1.396 . S
C359 C360 1.399 . S
C360 H346 0.929 1_455 S
C360 C359 1.399 . S
C360 C361 1.385 . S
C361 H347 0.931 1_455 S
C361 C360 1.385 . S
C361 C362 1.389 . S
C362 C361 1.389 . S
C362 C363 1.387 . S
C363 H348 0.930 . S
C363 C358 1.390 . S
C363 C362 1.387 . S
H364 C376 0.930 . S
H365 C378 0.930 . S
H366 C379 0.930 . S
H367 C383 0.959 . S
H368 C383 0.959 . S
H369 C383 0.961 . S
H370 C384 0.960 . S
H371 C384 0.961 . S
H372 C384 0.959 . S
H373 C387 0.929 . S
H374 C388 0.931 . S
H375 C390 0.930 . S
C376 H364 0.930 . S
C376 C377 1.399 . S
C376 C381 1.399 . S
C377 C376 1.399 . S
C377 C378 1.376 . S
C378 H365 0.930 . S
C378 C377 1.376 . S
C378 C379 1.388 . S
C379 H366 0.930 . S
C379 C378 1.388 . S
C379 C380 1.390 . S
C380 C379 1.390 . S
C380 C381 1.394 . S
C380 C386 1.465 . S
C381 C376 1.399 . S
C381 C380 1.394 . S
C381 C382 1.516 . S
C382 C381 1.516 . S
C382 C383 1.502 1_565 S
C382 C384 1.561 . S
C382 C385 1.526 . S
C383 H367 0.959 . S
C383 H368 0.959 . S
C383 H369 0.961 . S
C383 C382 1.502 1_545 S
C384 H370 0.960 . S
C384 H371 0.961 . S
C384 H372 0.959 . S
C384 C382 1.561 . S
C385 C382 1.526 . S
C385 C386 1.396 . S
C385 C390 1.390 1_554 S
C386 C380 1.465 . S
C386 C385 1.396 . S
C386 C387 1.399 1_554 S
C387 H373 0.929 . S
C387 C386 1.399 1_556 S
C387 C388 1.385 . S
C388 H374 0.931 . S
C388 C387 1.385 . S
C388 C389 1.389 . S
C389 C388 1.389 . S
C389 C390 1.387 . S
C390 H375 0.930 . S
C390 C385 1.390 1_556 S
C390 C389 1.387 . S
H391 C403 0.930 . S
H392 C405 0.930 . S
H393 C406 0.930 . S
H394 C410 0.959 . S
H395 C410 0.959 . S
H396 C410 0.961 . S
H397 C411 0.960 1_554 S
H398 C411 0.961 . S
H399 C411 0.959 . S
H400 C414 0.929 . S
H401 C415 0.931 . S
H402 C417 0.930 . S
C403 H391 0.930 . S
C403 C404 1.399 . S
C403 C408 1.399 . S
C404 C403 1.399 . S
C404 C405 1.376 . S
C405 H392 0.930 . S
C405 C404 1.376 . S
C405 C406 1.388 . S
C406 H393 0.930 . S
C406 C405 1.388 . S
C406 C407 1.390 . S
C407 C406 1.390 . S
C407 C408 1.394 . S
C407 C413 1.465 1_554 S
C408 C403 1.399 . S
C408 C407 1.394 . S
C408 C409 1.516 . S
C409 C408 1.516 . S
C409 C410 1.502 . S
C409 C411 1.561 1_554 S
C409 C412 1.526 1_554 S
C410 H394 0.959 . S
C410 H395 0.959 . S
C410 H396 0.961 . S
C410 C409 1.502 . S
C411 H397 0.960 1_556 S
C411 H398 0.961 . S
C411 H399 0.959 . S
C411 C409 1.561 1_556 S
C412 C409 1.526 1_556 S
C412 C413 1.396 . S
C412 C417 1.390 . S
C413 C407 1.465 1_556 S
C413 C412 1.396 . S
C413 C414 1.399 . S
C414 H400 0.929 . S
C414 C413 1.399 . S
C414 C415 1.385 . S
C415 H401 0.931 . S
C415 C414 1.385 . S
C415 C416 1.389 . S
C416 C415 1.389 . S
C416 C417 1.387 . S
C417 H402 0.930 . S
C417 C412 1.390 . S
C417 C416 1.387 . S
H418 C430 0.930 . S
H419 C432 0.930 . S
H420 C433 0.930 . S
H421 C437 0.959 . S
H422 C437 0.959 . S
H423 C437 0.961 . S
H424 C438 0.960 . S
H425 C438 0.961 . S
H426 C438 0.959 . S
H427 C441 0.929 . S
H428 C442 0.931 . S
H429 C444 0.930 . S
C430 H418 0.930 . S
C430 C431 1.399 . S
C430 C435 1.399 . S
C431 C430 1.399 . S
C431 C432 1.376 . S
C432 H419 0.930 . S
C432 C431 1.376 . S
C432 C433 1.388 . S
C433 H420 0.930 . S
C433 C432 1.388 . S
C433 C434 1.390 . S
C434 C433 1.390 . S
C434 C435 1.394 . S
C434 C440 1.465 1_554 S
C435 C430 1.399 . S
C435 C434 1.394 . S
C435 C436 1.516 . S
C436 C435 1.516 . S
C436 C437 1.502 . S
C436 C438 1.561 . S
C436 C439 1.526 1_554 S
C437 H421 0.959 . S
C437 H422 0.959 . S
C437 H423 0.961 . S
C437 C436 1.502 . S
C438 H424 0.960 . S
C438 H425 0.961 . S
C438 H426 0.959 . S
C438 C436 1.561 . S
C439 C436 1.526 1_556 S
C439 C440 1.396 . S
C439 C444 1.390 . S
C440 C434 1.465 1_556 S
C440 C439 1.396 . S
C440 C441 1.399 . S
C441 H427 0.929 . S
C441 C440 1.399 . S
C441 C442 1.385 . S
C442 H428 0.931 . S
C442 C441 1.385 . S
C442 C443 1.389 . S
C443 C442 1.389 . S
C443 C444 1.387 . S
C444 H429 0.930 . S
C444 C439 1.390 . S
C444 C443 1.387 . S
H445 C457 0.930 . S
H446 C459 0.930 . S
H447 C460 0.930 . S
H448 C464 0.959 . S
H449 C464 0.959 . S
H450 C464 0.961 . S
H451 C465 0.960 1_655 S
H452 C465 0.961 . S
H453 C465 0.959 . S
H454 C468 0.929 . S
H455 C469 0.931 . S
H456 C471 0.930 . S
C457 H445 0.930 . S
C457 C458 1.399 . S
C457 C462 1.399 . S
C458 C457 1.399 . S
C458 C459 1.376 . S
C459 H446 0.930 . S
C459 C458 1.376 . S
C459 C460 1.388 . S
C460 H447 0.930 . S
C460 C459 1.388 . S
C460 C461 1.390 . S
C461 C460 1.390 . S
C461 C462 1.394 . S
C461 C467 1.465 . S
C462 C457 1.399 . S
C462 C461 1.394 . S
C462 C463 1.516 1_554 S
C463 C462 1.516 1_556 S
C463 C464 1.502 . S
C463 C465 1.561 1_655 S
C463 C466 1.526 . S
C464 H448 0.959 . S
C464 H449 0.959 . S
C464 H450 0.961 . S
C464 C463 1.502 . S
C465 H451 0.960 1_455 S
C465 H452 0.961 . S
C465 H453 0.959 . S
C465 C463 1.561 1_455 S
C466 C463 1.526 . S
C466 C467 1.396 1_556 S
C466 C471 1.390 . S
C467 C461 1.465 . S
C467 C466 1.396 1_554 S
C467 C468 1.400 1_655 S
C468 H454 0.929 . S
C468 C467 1.400 1_455 S
C468 C469 1.385 1_554 S
C469 H455 0.931 . S
C469 C468 1.385 1_556 S
C469 C470 1.389 1_455 S
C470 C469 1.389 1_655 S
C470 C471 1.387 . S
C471 H456 0.930 . S
C471 C466 1.390 . S
C471 C470 1.387 . S
H472 C484 0.930 . S
H473 C486 0.930 . S
H474 C487 0.930 . S
H475 C491 0.959 . S
H476 C491 0.959 . S
H477 C491 0.961 . S
H478 C492 0.960 . S
H479 C492 0.961 . S
H480 C492 0.959 . S
H481 C495 0.929 . S
H482 C496 0.931 . S
H483 C498 0.950 . S
C484 H472 0.930 . S
C484 C485 1.399 . S
C484 C489 1.399 . S
C485 C484 1.399 . S
C485 C486 1.376 . S
C486 H473 0.930 . S
C486 C485 1.376 . S
C486 C487 1.388 . S
C487 H474 0.930 . S
C487 C486 1.388 . S
C487 C488 1.390 . S
C488 C487 1.390 . S
C488 C489 1.394 . S
C488 C494 1.465 . S
C489 C484 1.399 . S
C489 C488 1.394 . S
C489 C490 1.516 . S
C490 C489 1.516 . S
C490 C491 1.502 . S
C490 C492 1.561 1_455 S
C490 C493 1.526 . S
C491 H475 0.959 . S
C491 H476 0.959 . S
C491 H477 0.961 . S
C491 C490 1.502 . S
C492 H478 0.960 . S
C492 H479 0.961 . S
C492 H480 0.959 . S
C492 C490 1.561 1_655 S
C493 C490 1.526 . S
C493 C494 1.396 . S
C493 C498 1.390 . S
C494 C488 1.465 . S
C494 C493 1.396 . S
C494 C495 1.399 . S
C495 H481 0.929 . S
C495 C494 1.399 . S
C495 C496 1.385 . S
C496 H482 0.931 . S
C496 C495 1.385 . S
C496 C497 1.389 . S
C497 C496 1.389 . S
C497 C498 1.387 . S
C498 H483 0.950 . S
C498 C493 1.390 . S
C498 C497 1.387 . S
H499 C511 0.930 . S
H500 C513 0.930 . S
H501 C514 0.930 . S
H502 C518 0.959 . S
H503 C518 0.959 . S
H504 C518 0.961 . S
H505 C519 0.960 . S
H506 C519 0.961 . S
H507 C519 0.959 . S
H508 C522 0.929 . S
H509 C523 0.931 . S
H510 C525 0.930 . S
C511 H499 0.930 . S
C511 C512 1.399 . S
C511 C516 1.399 . S
C512 C511 1.399 . S
C512 C513 1.376 . S
C513 H500 0.930 . S
C513 C512 1.376 . S
C513 C514 1.388 . S
C514 H501 0.930 . S
C514 C513 1.388 . S
C514 C515 1.390 . S
C515 C514 1.390 . S
C515 C516 1.394 . S
C515 C521 1.465 . S
C516 C511 1.399 . S
C516 C515 1.394 . S
C516 C517 1.516 1_545 S
C517 C516 1.516 1_565 S
C517 C518 1.502 . S
C517 C519 1.561 . S
C517 C520 1.526 . S
C518 H502 0.959 . S
C518 H503 0.959 . S
C518 H504 0.961 . S
C518 C517 1.502 . S
C519 H505 0.960 . S
C519 H506 0.961 . S
C519 H507 0.959 . S
C519 C517 1.561 . S
C520 C517 1.526 . S
C520 C521 1.396 1_565 S
C520 C525 1.390 . S
C521 C515 1.465 . S
C521 C520 1.396 1_545 S
C521 C522 1.399 . S
C522 H508 0.929 . S
C522 C521 1.399 . S
C522 C523 1.385 . S
C523 H509 0.931 . S
C523 C522 1.385 . S
C523 C524 1.389 1_545 S
C524 C523 1.389 1_565 S
C524 C525 1.387 . S
C525 H510 0.930 . S
C525 C520 1.390 . S
C525 C524 1.387 . S
H526 C538 0.930 . S
H527 C540 0.930 . S
H528 C541 0.930 . S
H529 C545 0.959 . S
H530 C545 0.959 . S
H531 C545 0.961 . S
H532 C546 0.960 . S
H533 C546 0.961 . S
H534 C546 0.959 . S
H535 C549 0.929 . S
H536 C550 0.931 . S
H537 C552 0.930 . S
C538 H526 0.930 . S
C538 C539 1.399 . S
C538 C543 1.399 . S
C539 C538 1.399 . S
C539 C540 1.376 . S
C540 H527 0.930 . S
C540 C539 1.376 . S
C540 C541 1.388 . S
C541 H528 0.930 . S
C541 C540 1.388 . S
C541 C542 1.390 . S
C542 C541 1.390 . S
C542 C543 1.394 . S
C542 C548 1.465 . S
C543 C538 1.399 . S
C543 C542 1.394 . S
C543 C544 1.516 . S
C544 C543 1.516 . S
C544 C545 1.502 . S
C544 C546 1.561 . S
C544 C547 1.526 . S
C545 H529 0.959 . S
C545 H530 0.959 . S
C545 H531 0.961 . S
C545 C544 1.502 . S
C546 H532 0.960 . S
C546 H533 0.961 . S
C546 H534 0.959 . S
C546 C544 1.561 . S
C547 C544 1.526 . S
C547 C548 1.396 . S
C547 C552 1.390 . S
C548 C542 1.465 . S
C548 C547 1.396 . S
C548 C549 1.399 . S
C549 H535 0.929 . S
C549 C548 1.399 . S
C549 C550 1.385 . S
C550 H536 0.931 . S
C550 C549 1.385 . S
C550 C551 1.389 . S
C551 C550 1.389 . S
C551 C552 1.387 . S
C552 H537 0.930 . S
C552 C547 1.390 . S
C552 C551 1.387 . S
H553 C565 0.930 . S
H554 C567 0.930 . S
H555 C568 0.930 . S
H556 C572 0.959 . S
H557 C572 0.959 . S
H558 C572 0.961 . S
H559 C573 0.960 . S
H560 C573 0.961 . S
H561 C573 0.959 . S
H562 C576 0.929 . S
H563 C577 0.931 . S
H564 C579 0.930 . S
C565 H553 0.930 . S
C565 C566 1.399 . S
C565 C570 1.399 . S
C566 C565 1.399 . S
C566 C567 1.376 . S
C567 H554 0.930 . S
C567 C566 1.376 . S
C567 C568 1.388 . S
C568 H555 0.930 . S
C568 C567 1.388 . S
C568 C569 1.390 . S
C569 C568 1.390 . S
C569 C570 1.394 . S
C569 C575 1.465 . S
C570 C565 1.399 . S
C570 C569 1.394 . S
C570 C571 1.516 . S
C571 C570 1.516 . S
C571 C572 1.502 . S
C571 C573 1.561 . S
C571 C574 1.526 . S
C572 H556 0.959 . S
C572 H557 0.959 . S
C572 H558 0.961 . S
C572 C571 1.502 . S
C573 H559 0.960 . S
C573 H560 0.961 . S
C573 H561 0.959 . S
C573 C571 1.561 . S
C574 C571 1.526 . S
C574 C575 1.396 . S
C574 C579 1.390 . S
C575 C569 1.465 . S
C575 C574 1.396 . S
C575 C576 1.399 . S
C576 H562 0.929 . S
C576 C575 1.399 . S
C576 C577 1.385 . S
C577 H563 0.931 . S
C577 C576 1.385 . S
C577 C578 1.389 . S
C578 C577 1.389 . S
C578 C579 1.387 . S
C579 H564 0.930 . S
C579 C574 1.390 . S
C579 C578 1.387 . S
H580 C592 0.930 . S
H581 C594 0.930 . S
H582 C595 0.930 . S
H583 C599 0.959 . S
H584 C599 0.959 . S
H585 C599 0.961 . S
H586 C600 0.960 . S
H587 C600 0.961 1_556 S
H588 C600 0.959 . S
H589 C603 0.929 . S
H590 C604 0.931 1_655 S
H591 C606 0.930 . S
C592 H580 0.930 . S
C592 C593 1.399 . S
C592 C597 1.399 . S
C593 C592 1.399 . S
C593 C594 1.376 . S
C594 H581 0.930 . S
C594 C593 1.376 . S
C594 C595 1.388 . S
C595 H582 0.930 . S
C595 C594 1.388 . S
C595 C596 1.390 . S
C596 C595 1.390 . S
C596 C597 1.394 . S
C596 C602 1.465 . S
C597 C592 1.399 . S
C597 C596 1.394 . S
C597 C598 1.516 . S
C598 C597 1.516 . S
C598 C599 1.502 1_655 S
C598 C600 1.561 . S
C598 C601 1.524 1_655 S
C599 H583 0.959 . S
C599 H584 0.959 . S
C599 H585 0.961 . S
C599 C598 1.502 1_455 S
C600 H586 0.960 . S
C600 H587 0.961 1_554 S
C600 H588 0.959 . S
C600 C598 1.561 . S
C601 C598 1.524 1_455 S
C601 C602 1.382 1_455 S
C601 C606 1.402 . S
C602 C596 1.465 . S
C602 C601 1.382 1_655 S
C602 C603 1.399 . S
C603 H589 0.929 . S
C603 C602 1.399 . S
C603 C604 1.387 1_655 S
C604 H590 0.931 1_455 S
C604 C603 1.387 1_455 S
C604 C605 1.387 . S
C605 C604 1.387 . S
C605 C606 1.387 . S
C606 H591 0.930 . S
C606 C601 1.402 . S
C606 C605 1.387 . S
H607 C619 0.930 . S
H608 C621 0.930 . S
H609 C622 0.930 . S
H610 C626 0.959 . S
H611 C626 0.959 . S
H612 C626 0.961 . S
H613 C627 0.960 . S
H614 C627 0.963 1_546 S
H615 C627 0.955 . S
H616 C630 0.929 . S
H617 C631 0.931 . S
H618 C633 0.930 1_556 S
C619 H607 0.930 . S
C619 C620 1.399 . S
C619 C624 1.399 . S
C620 C619 1.399 . S
C620 C621 1.376 . S
C621 H608 0.930 . S
C621 C620 1.376 . S
C621 C622 1.388 . S
C622 H609 0.930 . S
C622 C621 1.388 . S
C622 C623 1.390 . S
C623 C622 1.390 . S
C623 C624 1.394 . S
C623 C629 1.465 . S
C624 C619 1.399 . S
C624 C623 1.394 . S
C624 C625 1.516 1_565 S
C625 C624 1.516 1_545 S
C625 C626 1.502 . S
C625 C627 1.564 1_545 S
C625 C628 1.526 . S
C626 H610 0.959 . S
C626 H611 0.959 . S
C626 H612 0.961 . S
C626 C625 1.502 . S
C627 H613 0.960 . S
C627 H614 0.963 1_564 S
C627 H615 0.955 . S
C627 C625 1.564 1_565 S
C628 C625 1.526 . S
C628 C629 1.396 1_545 S
C628 C633 1.390 . S
C629 C623 1.465 . S
C629 C628 1.396 1_565 S
C629 C630 1.399 . S
C630 H616 0.929 . S
C630 C629 1.399 . S
C630 C631 1.385 1_565 S
C631 H617 0.931 . S
C631 C630 1.385 1_545 S
C631 C632 1.389 . S
C632 C631 1.389 . S
C632 C633 1.387 . S
C633 H618 0.930 1_554 S
C633 C628 1.390 . S
C633 C632 1.387 . S
H634 C646 0.930 . S
H635 C648 0.930 . S
H636 C649 0.930 . S
H637 C653 0.959 . S
H638 C653 0.959 . S
H639 C653 0.961 . S
H640 C654 0.960 . S
H641 C654 0.961 . S
H642 C654 0.959 . S
H643 C657 0.929 . S
H644 C658 0.931 . S
H645 C660 0.930 . S
C646 H634 0.930 . S
C646 C647 1.399 . S
C646 C651 1.399 . S
C647 C646 1.399 . S
C647 C648 1.376 . S
C648 H635 0.930 . S
C648 C647 1.376 . S
C648 C649 1.388 . S
C649 H636 0.930 . S
C649 C648 1.388 . S
C649 C650 1.390 . S
C650 C649 1.390 . S
C650 C651 1.394 . S
C650 C656 1.465 . S
C651 C646 1.399 . S
C651 C650 1.394 . S
C651 C652 1.516 . S
C652 C651 1.516 . S
C652 C653 1.502 . S
C652 C654 1.561 . S
C652 C655 1.526 . S
C653 H637 0.959 . S
C653 H638 0.959 . S
C653 H639 0.961 . S
C653 C652 1.502 . S
C654 H640 0.960 . S
C654 H641 0.961 . S
C654 H642 0.959 . S
C654 C652 1.561 . S
C655 C652 1.526 . S
C655 C656 1.396 . S
C655 C660 1.390 . S
C656 C650 1.465 . S
C656 C655 1.396 . S
C656 C657 1.399 1_554 S
C657 H643 0.929 . S
C657 C656 1.399 1_556 S
C657 C658 1.385 . S
C658 H644 0.931 . S
C658 C657 1.385 . S
C658 C659 1.389 . S
C659 C658 1.389 . S
C659 C660 1.387 1_556 S
C660 H645 0.930 . S
C660 C655 1.390 . S
C660 C659 1.387 1_554 S
H661 C673 0.930 . S
H662 C675 0.930 . S
H663 C676 0.930 . S
H664 C680 0.959 . S
H665 C680 0.959 . S
H666 C680 0.961 . S
H667 C681 0.960 . S
H668 C681 0.961 1_556 S
H669 C681 0.959 . S
H670 C684 0.929 . S
H671 C685 0.931 . S
H672 C687 0.930 . S
C673 H661 0.930 . S
C673 C674 1.399 . S
C673 C678 1.399 . S
C674 C673 1.399 . S
C674 C675 1.376 . S
C675 H662 0.930 . S
C675 C674 1.376 . S
C675 C676 1.388 . S
C676 H663 0.930 . S
C676 C675 1.388 . S
C676 C677 1.390 . S
C677 C676 1.390 . S
C677 C678 1.394 . S
C677 C683 1.465 . S
C678 C673 1.399 . S
C678 C677 1.394 . S
C678 C679 1.516 . S
C679 C678 1.516 . S
C679 C680 1.502 . S
C679 C681 1.561 . S
C679 C682 1.526 . S
C680 H664 0.959 . S
C680 H665 0.959 . S
C680 H666 0.961 . S
C680 C679 1.502 . S
C681 H667 0.960 . S
C681 H668 0.961 1_554 S
C681 H669 0.959 . S
C681 C679 1.561 . S
C682 C679 1.526 . S
C682 C683 1.396 . S
C682 C687 1.390 . S
C683 C677 1.465 . S
C683 C682 1.396 . S
C683 C684 1.399 . S
C684 H670 0.929 . S
C684 C683 1.399 . S
C684 C685 1.385 . S
C685 H671 0.931 . S
C685 C684 1.385 . S
C685 C686 1.389 . S
C686 C685 1.389 . S
C686 C687 1.387 . S
C687 H672 0.930 . S
C687 C682 1.390 . S
C687 C686 1.387 . S
H688 C700 0.930 . S
H689 C702 0.930 1_554 S
H690 C703 0.930 1_554 S
H691 C707 0.959 1_655 S
H692 C707 0.959 . S
H693 C707 0.961 . S
H694 C708 0.960 . S
H695 C708 0.961 . S
H696 C708 0.959 . S
H697 C711 0.929 . S
H698 C712 0.931 . S
H699 C714 0.930 . S
C700 H688 0.930 . S
C700 C701 1.399 . S
C700 C705 1.399 . S
C701 C700 1.399 . S
C701 C702 1.376 . S
C702 H689 0.930 1_556 S
C702 C701 1.376 . S
C702 C703 1.388 . S
C703 H690 0.930 1_556 S
C703 C702 1.388 . S
C703 C704 1.390 . S
C704 C703 1.390 . S
C704 C705 1.394 . S
C704 C710 1.465 . S
C705 C700 1.399 . S
C705 C704 1.394 . S
C705 C706 1.516 . S
C706 C705 1.516 . S
C706 C707 1.502 . S
C706 C708 1.561 . S
C706 C709 1.526 . S
C707 H691 0.959 1_455 S
C707 H692 0.959 . S
C707 H693 0.961 . S
C707 C706 1.502 . S
C708 H694 0.960 . S
C708 H695 0.961 . S
C708 H696 0.959 . S
C708 C706 1.561 . S
C709 C706 1.526 . S
C709 C710 1.396 . S
C709 C714 1.390 . S
C710 C704 1.465 . S
C710 C709 1.396 . S
C710 C711 1.399 . S
C711 H697 0.929 . S
C711 C710 1.399 . S
C711 C712 1.385 . S
C712 H698 0.931 . S
C712 C711 1.385 . S
C712 C713 1.389 . S
C713 C712 1.389 . S
C713 C714 1.387 . S
C714 H699 0.930 . S
C714 C709 1.390 . S
C714 C713 1.387 . S
H715 C727 0.930 . S
H716 C729 0.930 . S
H717 C730 0.930 . S
H718 C734 0.959 . S
H719 C734 0.959 . S
H720 C734 0.961 . S
H721 C735 0.960 . S
H722 C735 0.961 . S
H723 C735 0.959 . S
H724 C738 0.917 1_565 S
H725 C739 0.931 . S
H726 C741 0.930 . S
C727 H715 0.930 . S
C727 C728 1.399 . S
C727 C732 1.399 . S
C728 C727 1.399 . S
C728 C729 1.376 . S
C729 H716 0.930 . S
C729 C728 1.376 . S
C729 C730 1.388 . S
C730 H717 0.930 . S
C730 C729 1.388 . S
C730 C731 1.390 . S
C731 C730 1.390 . S
C731 C732 1.394 . S
C731 C737 1.465 . S
C732 C727 1.399 . S
C732 C731 1.394 . S
C732 C733 1.516 . S
C733 C732 1.516 . S
C733 C734 1.502 . S
C733 C735 1.561 . S
C733 C736 1.526 . S
C734 H718 0.959 . S
C734 H719 0.959 . S
C734 H720 0.961 . S
C734 C733 1.502 . S
C735 H721 0.960 . S
C735 H722 0.961 . S
C735 H723 0.959 . S
C735 C733 1.561 . S
C736 C733 1.526 . S
C736 C737 1.396 . S
C736 C741 1.390 . S
C737 C731 1.465 . S
C737 C736 1.396 . S
C737 C738 1.399 . S
C738 H724 0.917 1_545 S
C738 C737 1.399 . S
C738 C739 1.385 . S
C739 H725 0.931 . S
C739 C738 1.385 . S
C739 C740 1.389 . S
C740 C739 1.389 . S
C740 C741 1.387 . S
C741 H726 0.930 . S
C741 C736 1.390 . S
C741 C740 1.387 . S
H742 C754 0.930 1_554 S
H743 C756 0.930 . S
H744 C757 0.930 . S
H745 C761 0.959 . S
H746 C761 0.959 1_554 S
H747 C761 0.961 1_554 S
H748 C762 0.960 . S
H749 C762 0.961 . S
H750 C762 0.959 1_556 S
H751 C765 0.929 . S
H752 C766 0.931 . S
H753 C768 0.930 . S
C754 H742 0.930 1_556 S
C754 C755 1.399 . S
C754 C759 1.399 . S
C755 C754 1.399 . S
C755 C756 1.376 . S
C756 H743 0.930 . S
C756 C755 1.376 . S
C756 C757 1.388 . S
C757 H744 0.930 . S
C757 C756 1.388 . S
C757 C758 1.390 . S
C758 C757 1.390 . S
C758 C759 1.394 . S
C758 C764 1.465 . S
C759 C754 1.399 . S
C759 C758 1.394 . S
C759 C760 1.516 . S
C760 C759 1.516 . S
C760 C761 1.502 . S
C760 C762 1.561 1_556 S
C760 C763 1.526 . S
C761 H745 0.959 . S
C761 H746 0.959 1_556 S
C761 H747 0.961 1_556 S
C761 C760 1.502 . S
C762 H748 0.960 . S
C762 H749 0.961 . S
C762 H750 0.959 1_554 S
C762 C760 1.561 1_554 S
C763 C760 1.526 . S
C763 C764 1.396 . S
C763 C768 1.390 . S
C764 C758 1.465 . S
C764 C763 1.396 . S
C764 C765 1.399 . S
C765 H751 0.929 . S
C765 C764 1.399 . S
C765 C766 1.385 . S
C766 H752 0.931 . S
C766 C765 1.385 . S
C766 C767 1.389 . S
C767 C766 1.389 . S
C767 C768 1.387 . S
C768 H753 0.930 . S
C768 C763 1.390 . S
C768 C767 1.387 . S
H769 C781 0.930 . S
H770 C783 0.930 . S
H771 C784 0.930 . S
H772 C788 0.959 1_554 S
H773 C788 0.959 . S
H774 C788 0.961 . S
H775 C789 0.960 . S
H776 C789 0.961 . S
H777 C789 0.959 . S
H778 C792 0.929 . S
H779 C793 0.931 . S
H780 C795 0.930 . S
C781 H769 0.930 . S
C781 C782 1.399 . S
C781 C786 1.399 . S
C782 C781 1.399 . S
C782 C783 1.376 . S
C783 H770 0.930 . S
C783 C782 1.376 . S
C783 C784 1.388 . S
C784 H771 0.930 . S
C784 C783 1.388 . S
C784 C785 1.390 . S
C785 C784 1.390 . S
C785 C786 1.394 . S
C785 C791 1.465 . S
C786 C781 1.399 . S
C786 C785 1.394 . S
C786 C787 1.516 . S
C787 C786 1.516 . S
C787 C788 1.502 . S
C787 C789 1.561 . S
C787 C790 1.526 . S
C788 H772 0.959 1_556 S
C788 H773 0.959 . S
C788 H774 0.961 . S
C788 C787 1.502 . S
C789 H775 0.960 . S
C789 H776 0.961 . S
C789 H777 0.959 . S
C789 C787 1.561 . S
C790 C787 1.526 . S
C790 C791 1.396 . S
C790 C795 1.390 . S
C791 C785 1.465 . S
C791 C790 1.396 . S
C791 C792 1.399 . S
C792 H778 0.929 . S
C792 C791 1.399 . S
C792 C793 1.385 . S
C793 H779 0.931 . S
C793 C792 1.385 . S
C793 C794 1.389 . S
C794 C793 1.389 . S
C794 C795 1.387 . S
C795 H780 0.930 . S
C795 C790 1.390 . S
C795 C794 1.387 . S
H796 C808 0.930 . S
H797 C810 0.930 . S
H798 C811 0.930 . S
H799 C815 0.959 . S
H800 C815 0.959 . S
H801 C815 0.961 . S
H802 C816 0.960 . S
H803 C816 0.961 . S
H804 C816 0.959 . S
H805 C819 0.929 . S
H806 C820 0.931 . S
H807 C822 0.930 . S
C808 H796 0.930 . S
C808 C809 1.399 . S
C808 C813 1.399 . S
C809 C808 1.399 . S
C809 C810 1.376 . S
C810 H797 0.930 . S
C810 C809 1.376 . S
C810 C811 1.388 . S
C811 H798 0.930 . S
C811 C810 1.388 . S
C811 C812 1.390 . S
C812 C811 1.390 . S
C812 C813 1.394 . S
C812 C818 1.465 . S
C813 C808 1.399 . S
C813 C812 1.394 . S
C813 C814 1.516 . S
C814 C813 1.516 . S
C814 C815 1.502 1_655 S
C814 C816 1.561 . S
C814 C817 1.526 . S
C815 H799 0.959 . S
C815 H800 0.959 . S
C815 H801 0.961 . S
C815 C814 1.502 1_455 S
C816 H802 0.960 . S
C816 H803 0.961 . S
C816 H804 0.959 . S
C816 C814 1.561 . S
C817 C814 1.526 . S
C817 C818 1.396 . S
C817 C822 1.390 . S
C818 C812 1.465 . S
C818 C817 1.396 . S
C818 C819 1.399 . S
C819 H805 0.929 . S
C819 C818 1.399 . S
C819 C820 1.385 . S
C820 H806 0.931 . S
C820 C819 1.385 . S
C820 C821 1.389 . S
C821 C820 1.389 . S
C821 C822 1.387 . S
C822 H807 0.930 . S
C822 C817 1.390 . S
C822 C821 1.387 . S
H823 C835 0.930 1_545 S
H824 C837 0.930 . S
H825 C838 0.930 . S
H826 C842 0.959 . S
H827 C842 0.959 . S
H828 C842 0.961 . S
H829 C843 0.960 . S
H830 C843 0.961 . S
H831 C843 0.959 . S
H832 C846 0.929 . S
H833 C847 0.931 . S
H834 C849 0.930 . S
C835 H823 0.930 1_565 S
C835 C836 1.399 . S
C835 C840 1.399 . S
C836 C835 1.399 . S
C836 C837 1.376 . S
C837 H824 0.930 . S
C837 C836 1.376 . S
C837 C838 1.388 . S
C838 H825 0.930 . S
C838 C837 1.388 . S
C838 C839 1.390 . S
C839 C838 1.390 . S
C839 C840 1.394 . S
C839 C845 1.465 . S
C840 C835 1.399 . S
C840 C839 1.394 . S
C840 C841 1.516 1_565 S
C841 C840 1.516 1_545 S
C841 C842 1.502 . S
C841 C843 1.561 . S
C841 C844 1.526 1_545 S
C842 H826 0.959 . S
C842 H827 0.959 . S
C842 H828 0.961 . S
C842 C841 1.502 . S
C843 H829 0.960 . S
C843 H830 0.961 . S
C843 H831 0.959 . S
C843 C841 1.561 . S
C844 C841 1.526 1_565 S
C844 C845 1.396 . S
C844 C849 1.390 1_565 S
C845 C839 1.465 . S
C845 C844 1.396 . S
C845 C846 1.399 . S
C846 H832 0.929 . S
C846 C845 1.399 . S
C846 C847 1.385 . S
C847 H833 0.931 . S
C847 C846 1.385 . S
C847 C848 1.389 . S
C848 C847 1.389 . S
C848 C849 1.387 1_565 S
C849 H834 0.930 . S
C849 C844 1.390 1_545 S
C849 C848 1.387 1_545 S
H850 C862 0.930 . S
H851 C864 0.930 . S
H852 C865 0.930 . S
H853 C869 0.959 . S
H854 C869 0.959 . S
H855 C869 0.961 . S
H856 C870 0.960 . S
H857 C870 0.961 . S
H858 C870 0.959 . S
H859 C873 0.929 . S
H860 C874 0.931 . S
H861 C876 0.930 . S
C862 H850 0.930 . S
C862 C863 1.399 . S
C862 C867 1.399 . S
C863 C862 1.399 . S
C863 C864 1.376 . S
C864 H851 0.930 . S
C864 C863 1.376 . S
C864 C865 1.388 . S
C865 H852 0.930 . S
C865 C864 1.388 . S
C865 C866 1.390 . S
C866 C865 1.390 . S
C866 C867 1.394 . S
C866 C872 1.465 . S
C867 C862 1.399 . S
C867 C866 1.394 . S
C867 C868 1.516 . S
C868 C867 1.516 . S
C868 C869 1.502 . S
C868 C870 1.561 . S
C868 C871 1.526 . S
C869 H853 0.959 . S
C869 H854 0.959 . S
C869 H855 0.961 . S
C869 C868 1.502 . S
C870 H856 0.960 . S
C870 H857 0.961 . S
C870 H858 0.959 . S
C870 C868 1.561 . S
C871 C868 1.526 . S
C871 C872 1.396 . S
C871 C876 1.390 . S
C872 C866 1.465 . S
C872 C871 1.396 . S
C872 C873 1.399 . S
C873 H859 0.929 . S
C873 C872 1.399 . S
C873 C874 1.385 . S
C874 H860 0.931 . S
C874 C873 1.385 . S
C874 C875 1.389 . S
C875 C874 1.389 . S
C875 C876 1.387 . S
C876 H861 0.930 . S
C876 C871 1.390 . S
C876 C875 1.387 . S
H877 C889 0.930 . S
H878 C891 0.930 . S
H879 C892 0.930 . S
H880 C896 0.959 . S
H881 C896 0.959 . S
H882 C896 0.961 . S
H883 C897 0.960 . S
H884 C897 0.961 . S
H885 C897 0.959 . S
H886 C900 0.929 . S
H887 C901 0.931 . S
H888 C903 0.930 . S
C889 H877 0.930 . S
C889 C890 1.399 . S
C889 C894 1.399 . S
C890 C889 1.399 . S
C890 C891 1.376 . S
C891 H878 0.930 . S
C891 C890 1.376 . S
C891 C892 1.388 . S
C892 H879 0.930 . S
C892 C891 1.388 . S
C892 C893 1.390 . S
C893 C892 1.390 . S
C893 C894 1.394 . S
C893 C899 1.465 . S
C894 C889 1.399 . S
C894 C893 1.394 . S
C894 C895 1.516 . S
C895 C894 1.516 . S
C895 C896 1.502 . S
C895 C897 1.561 . S
C895 C898 1.526 . S
C896 H880 0.959 . S
C896 H881 0.959 . S
C896 H882 0.961 . S
C896 C895 1.502 . S
C897 H883 0.960 . S
C897 H884 0.961 . S
C897 H885 0.959 . S
C897 C895 1.561 . S
C898 C895 1.526 . S
C898 C899 1.396 . S
C898 C903 1.390 . S
C899 C893 1.465 . S
C899 C898 1.396 . S
C899 C900 1.399 . S
C900 H886 0.929 . S
C900 C899 1.399 . S
C900 C901 1.385 . S
C901 H887 0.931 . S
C901 C900 1.385 . S
C901 C902 1.389 . S
C902 C901 1.389 . S
C902 C903 1.387 . S
C903 H888 0.930 . S
C903 C898 1.390 . S
C903 C902 1.387 . S
C269 C76 2.115 . S
C281 C127 2.338 . S
C308 C153 1.892 . S
C296 C88 1.662 . S
C335 C193 1.950 . S
C323 C52 1.822 . S
C362 C247 2.375 . S
C350 C64 2.185 . S
C389 C108 2.346 1_565 S
C377 C28 2.101 . S
C404 C40 1.704 . S
C416 C138 1.877 . S
C431 C4 1.796 . S
C443 C178 1.962 . S
C458 C16 2.230 . S
C470 C228 2.363 1_655 S
C497 C104 0.605 . S
C485 C69 0.437 . S
C524 C165 0.605 . S
C512 C81 0.693 . S
C551 C205 0.591 . S
C539 C93 0.589 . S
C566 C57 0.590 . S
C578 C224 0.336 . S
C593 C21 0.545 . S
C605 C125 0.591 . S
C632 C144 0.594 . S
C620 C33 0.707 . S
C659 C184 0.615 . S
C647 C45 0.551 . S
C674 C9 0.488 . S
C686 C245 0.510 . S
C701 C66 1.872 . S
C713 C98 2.123 . S
C728 C78 2.352 . S
C740 C148 2.597 . S
C767 C188 2.381 . S
C755 C90 2.219 . S
C794 C218 1.882 . S
C782 C54 1.733 . S
C809 C18 1.941 . S
C821 C113 2.124 . S
C848 C167 2.608 . S
C836 C30 2.353 . S
C875 C207 2.391 . S
C863 C42 2.221 . S
C890 C6 1.675 . S
C902 C233 1.897 . S
