# Generated by pormake.
# Topology nom, (4,4)-cn, num edge types: 1
# Building blocks:
#     Node 0, Type 0, BuildingBlock: MUDLON_clean_linker_0, # of connection points: 4
#     Node 1, Type 0, BuildingBlock: MUDLON_clean_linker_0, # of connection points: 4
#     Node 2, Type 0, BuildingBlock: MUDLON_clean_linker_0, # of connection points: 4
#     Node 3, Type 0, BuildingBlock: MUDLON_clean_linker_0, # of connection points: 4
#     Node 4, Type 0, BuildingBlock: MUDLON_clean_linker_0, # of connection points: 4
#     Node 5, Type 0, BuildingBlock: MUDLON_clean_linker_0, # of connection points: 4
#     Node 6, Type 1, BuildingBlock: NAHDIM_clean_sbu_0, # of connection points: 4
#     Node 7, Type 1, BuildingBlock: NAHDIM_clean_sbu_0, # of connection points: 4
#     Node 8, Type 1, BuildingBlock: NAHDIM_clean_sbu_0, # of connection points: 4
#     Node 9, Type 1, BuildingBlock: NAHDIM_clean_sbu_0, # of connection points: 4
#     Node 10, Type 1, BuildingBlock: NAHDIM_clean_sbu_0, # of connection points: 4
#     Node 11, Type 1, BuildingBlock: NAHDIM_clean_sbu_0, # of connection points: 4
#     Edge 12, Type (0, 1), BuildingBlock: OJICUG_clean_linker_0, # of connection points: 2
#     Edge 13, Type (0, 1), BuildingBlock: OJICUG_clean_linker_0, # of connection points: 2
#     Edge 14, Type (0, 1), BuildingBlock: OJICUG_clean_linker_0, # of connection points: 2
#     Edge 15, Type (0, 1), BuildingBlock: OJICUG_clean_linker_0, # of connection points: 2
#     Edge 16, Type (0, 1), BuildingBlock: OJICUG_clean_linker_0, # of connection points: 2
#     Edge 17, Type (0, 1), BuildingBlock: OJICUG_clean_linker_0, # of connection points: 2
#     Edge 18, Type (0, 1), BuildingBlock: OJICUG_clean_linker_0, # of connection points: 2
#     Edge 19, Type (0, 1), BuildingBlock: OJICUG_clean_linker_0, # of connection points: 2
#     Edge 20, Type (0, 1), BuildingBlock: OJICUG_clean_linker_0, # of connection points: 2
#     Edge 21, Type (0, 1), BuildingBlock: OJICUG_clean_linker_0, # of connection points: 2
#     Edge 22, Type (0, 1), BuildingBlock: OJICUG_clean_linker_0, # of connection points: 2
#     Edge 23, Type (0, 1), BuildingBlock: OJICUG_clean_linker_0, # of connection points: 2
#     Edge 24, Type (0, 1), BuildingBlock: OJICUG_clean_linker_0, # of connection points: 2
#     Edge 25, Type (0, 1), BuildingBlock: OJICUG_clean_linker_0, # of connection points: 2
#     Edge 26, Type (0, 1), BuildingBlock: OJICUG_clean_linker_0, # of connection points: 2
#     Edge 27, Type (0, 1), BuildingBlock: OJICUG_clean_linker_0, # of connection points: 2
#     Edge 28, Type (0, 1), BuildingBlock: OJICUG_clean_linker_0, # of connection points: 2
#     Edge 29, Type (0, 1), BuildingBlock: OJICUG_clean_linker_0, # of connection points: 2
#     Edge 30, Type (0, 1), BuildingBlock: OJICUG_clean_linker_0, # of connection points: 2
#     Edge 31, Type (0, 1), BuildingBlock: OJICUG_clean_linker_0, # of connection points: 2
#     Edge 32, Type (0, 1), BuildingBlock: OJICUG_clean_linker_0, # of connection points: 2
#     Edge 33, Type (0, 1), BuildingBlock: OJICUG_clean_linker_0, # of connection points: 2
#     Edge 34, Type (0, 1), BuildingBlock: OJICUG_clean_linker_0, # of connection points: 2
#     Edge 35, Type (0, 1), BuildingBlock: OJICUG_clean_linker_0, # of connection points: 2
# Relax obj value: 0.027
# Max RMSD: 0.123
# Mean RMSD: 0.105
data_MOF--net-nom--node1-NAHDIM_clean_sbu_0--node2-MUDLON_clean_linker_0--edge1-OJICUG_clean_linker_0
_symmetry_space_group_name_H-M    P1
_symmetry_Int_Tables_number       1
_symmetry_cell_setting            triclinic
loop_
_symmetry_equiv_pos_as_xyz
'x, y, z'
_cell_length_a     47.603511
_cell_length_b     49.631831
_cell_length_c     48.476772
_cell_angle_alpha  90.431921
_cell_angle_beta   90.380269
_cell_angle_gamma 121.47374
loop_
_atom_site_label
_atom_site_type_symbol
_atom_site_fract_x
_atom_site_fract_y
_atom_site_fract_z
_atom_type_partial_charge
H0 H 0.17496 0.56173 0.30906 0.0
N1 N 0.11855 0.55281 0.32714 0.0
H2 H 0.21553 0.60478 0.28096 0.0
H3 H 0.11011 0.59763 0.30197 0.0
H4 H 0.14986 0.64008 0.2726 0.0
H5 H 0.1272 0.60544 0.35389 0.0
H6 H 0.14922 0.62296 0.40049 0.0
H7 H 0.13083 0.52115 0.36428 0.0
H8 H 0.15211 0.53806 0.4114 0.0
H9 H 0.08802 0.49801 0.30028 0.0
H10 H 0.07092 0.56616 0.33982 0.0
H11 H 0.02902 0.46409 0.2903 0.0
H12 H 0.01199 0.53263 0.32971 0.0
H13 H 0.8436 0.35645 0.26029 0.0
H14 H 0.821 0.34788 0.21331 0.0
H15 H 0.86289 0.4485 0.20549 0.0
H16 H 0.88447 0.45659 0.25259 0.0
H17 H 0.87223 0.46294 0.29901 0.0
H18 H 0.82833 0.46369 0.32458 0.0
H19 H 0.78372 0.36431 0.34112 0.0
H20 H 0.82795 0.36378 0.31593 0.0
H21 H 0.92749 0.4262 0.25348 0.0
H22 H 0.98572 0.46242 0.262 0.0
H23 H 0.96512 0.48054 0.34431 0.0
N24 N 0.87657 0.41079 0.28834 0.0
H25 H 0.9067 0.44464 0.33598 0.0
C26 C 0.13951 0.57624 0.30746 0.0
C27 C 0.16918 0.5785 0.30076 0.0
C28 C 0.19225 0.6031 0.28452 0.0
C29 C 0.18601 0.62598 0.27429 0.0
C30 C 0.15569 0.62313 0.28034 0.0
C31 C 0.13271 0.5986 0.29692 0.0
C32 C 0.12762 0.562 0.35559 0.0
C33 C 0.13216 0.5904 0.3664 0.0
C34 C 0.14464 0.60033 0.39315 0.0
C35 C 0.1527 0.58203 0.4096 0.0
C36 C 0.14671 0.55297 0.39909 0.0
C37 C 0.13433 0.54313 0.37233 0.0
C38 C 0.08384 0.53442 0.32081 0.0
C39 C 0.07149 0.5057 0.3066 0.0
C40 C 0.03786 0.48649 0.30083 0.0
C41 C 0.01584 0.4957 0.30923 0.0
C42 C 0.0283 0.52474 0.32327 0.0
C43 C 0.06203 0.544 0.32895 0.0
C44 C 0.86561 0.407 0.25992 0.0
C45 C 0.848 0.37658 0.24827 0.0
C46 C 0.83531 0.3718 0.22141 0.0
C47 C 0.84005 0.39749 0.20563 0.0
C48 C 0.85828 0.42812 0.21721 0.0
C49 C 0.87076 0.43283 0.24412 0.0
C50 C 0.85342 0.4132 0.30576 0.0
C51 C 0.8533 0.44144 0.30849 0.0
C52 C 0.82834 0.44191 0.32317 0.0
C53 C 0.80274 0.41405 0.33471 0.0
C54 C 0.8032 0.38607 0.33233 0.0
C55 C 0.82842 0.38574 0.31812 0.0
C56 C 0.91147 0.43397 0.29316 0.0
C57 C 0.93497 0.43859 0.27314 0.0
C58 C 0.9686 0.45905 0.27814 0.0
C59 C 0.97999 0.47483 0.30364 0.0
C60 C 0.957 0.46952 0.32411 0.0
C61 C 0.9233 0.44896 0.31916 0.0
H62 H 0.48148 0.85994 0.47391 0.0
N63 N 0.4735 0.90436 0.45224 0.0
H64 H 0.4451 0.81862 0.50593 0.0
H65 H 0.42016 0.89999 0.47822 0.0
H66 H 0.38351 0.85863 0.51005 0.0
H67 H 0.41233 0.88424 0.43008 0.0
H68 H 0.39288 0.86239 0.38415 0.0
H69 H 0.50851 0.90085 0.41144 0.0
H70 H 0.48965 0.8803 0.36452 0.0
H71 H 0.53184 0.94249 0.4754 0.0
H72 H 0.44665 0.94079 0.44239 0.0
H73 H 0.55785 0.9989 0.48583 0.0
H74 H 0.4727 0.99732 0.45211 0.0
H75 H 0.62605 0.1416 0.53944 0.0
H76 H 0.6274 0.1586 0.58735 0.0
H77 H 0.53687 0.15686 0.57257 0.0
H78 H 0.53584 0.1402 0.52499 0.0
H79 H 0.53345 0.13738 0.47504 0.0
H80 H 0.53931 0.1837 0.45187 0.0
H81 H 0.64513 0.23036 0.45987 0.0
H82 H 0.63894 0.18436 0.48369 0.0
H83 H 0.60958 0.10438 0.47543 0.0
H84 H 0.58197 0.04856 0.46204 0.0
H85 H 0.48958 0.03474 0.49067 0.0
N86 N 0.58359 0.13402 0.49982 0.0
H87 H 0.51727 0.09069 0.50325 0.0
C88 C 0.45353 0.88286 0.47352 0.0
C89 C 0.46046 0.86008 0.48215 0.0
C90 C 0.43974 0.83663 0.50051 0.0
C91 C 0.41141 0.83538 0.51045 0.0
C92 C 0.40504 0.8589 0.50255 0.0
C93 C 0.42603 0.88259 0.48438 0.0
C94 C 0.46193 0.89386 0.42438 0.0
C95 C 0.42947 0.88355 0.41602 0.0
C96 C 0.41841 0.87128 0.38948 0.0
C97 C 0.43963 0.86942 0.37052 0.0
C98 C 0.47243 0.88079 0.37868 0.0
C99 C 0.48336 0.89279 0.40537 0.0
C100 C 0.48753 0.93748 0.45806 0.0
C101 C 0.51887 0.9544 0.47031 0.0
C102 C 0.53373 0.98663 0.47604 0.0
C103 C 0.51747 0.0027 0.46957 0.0
C104 C 0.48579 0.98562 0.45751 0.0
C105 C 0.47091 0.95327 0.45181 0.0
C106 C 0.58109 0.13982 0.5286 0.0
C107 C 0.60624 0.14436 0.54678 0.0
C108 C 0.6069 0.15396 0.57409 0.0
C109 C 0.58239 0.15933 0.5836 0.0
C110 C 0.55634 0.15333 0.56569 0.0
C111 C 0.55564 0.14361 0.53846 0.0
C112 C 0.5859 0.15767 0.48137 0.0
C113 C 0.55789 0.15733 0.47138 0.0
C114 C 0.56128 0.1838 0.45803 0.0
C115 C 0.59266 0.21089 0.45451 0.0
C116 C 0.62059 0.21011 0.4628 0.0
C117 C 0.61717 0.18381 0.47616 0.0
C118 C 0.56566 0.10165 0.49045 0.0
C119 C 0.58331 0.08929 0.4785 0.0
C120 C 0.56753 0.05738 0.4711 0.0
C121 C 0.53362 0.03709 0.47561 0.0
C122 C 0.51567 0.04976 0.48678 0.0
C123 C 0.53154 0.08179 0.49412 0.0
H124 H 0.48785 0.66564 0.64166 0.0
N125 N 0.4908 0.6166 0.65888 0.0
H126 H 0.44356 0.6646 0.6151 0.0
H127 H 0.44045 0.56464 0.63153 0.0
H128 H 0.39677 0.56351 0.60423 0.0
H129 H 0.43146 0.57511 0.68241 0.0
H130 H 0.41364 0.57936 0.72804 0.0
H131 H 0.52716 0.65773 0.69873 0.0
H132 H 0.50976 0.66159 0.7454 0.0
H133 H 0.54473 0.63377 0.63017 0.0
H134 H 0.46699 0.55491 0.67384 0.0
H135 H 0.56879 0.602 0.61852 0.0
H136 H 0.49124 0.52353 0.66308 0.0
H137 H 0.64754 0.50311 0.59223 0.0
H138 H 0.65845 0.49266 0.54523 0.0
H139 H 0.55568 0.45204 0.52401 0.0
H140 H 0.54504 0.46251 0.5708 0.0
H141 H 0.53463 0.42687 0.60788 0.0
H142 H 0.52347 0.37985 0.6324 0.0
H143 H 0.61418 0.43541 0.67903 0.0
H144 H 0.62417 0.48283 0.65528 0.0
H145 H 0.62107 0.54681 0.62829 0.0
H146 H 0.59726 0.57883 0.6398 0.0
H147 H 0.49979 0.49775 0.62453 0.0
N148 N 0.58967 0.48631 0.61382 0.0
H149 H 0.52362 0.46598 0.61388 0.0
C150 C 0.46769 0.61543 0.63869 0.0
C151 C 0.46843 0.6434 0.63296 0.0
C152 C 0.44309 0.64272 0.6177 0.0
C153 C 0.4164 0.61389 0.60769 0.0
C154 C 0.41667 0.58603 0.61202 0.0
C155 C 0.44195 0.58673 0.62744 0.0
C156 C 0.48079 0.61629 0.68701 0.0
C157 C 0.44893 0.59391 0.69598 0.0
C158 C 0.43879 0.59625 0.72233 0.0
C159 C 0.46024 0.62085 0.7405 0.0
C160 C 0.49246 0.64261 0.73182 0.0
C161 C 0.50256 0.6403 0.7053 0.0
C162 C 0.50429 0.59704 0.653 0.0
C163 C 0.53303 0.60972 0.63741 0.0
C164 C 0.54679 0.59158 0.63093 0.0
C165 C 0.53199 0.56022 0.63994 0.0
C166 C 0.50308 0.54747 0.65555 0.0
C167 C 0.48931 0.56561 0.66197 0.0
C168 C 0.5956 0.48354 0.58513 0.0
C169 C 0.62756 0.4925 0.57723 0.0
C170 C 0.63373 0.48658 0.5504 0.0
C171 C 0.60786 0.47131 0.53101 0.0
C172 C 0.57602 0.46346 0.53864 0.0
C173 C 0.56993 0.46957 0.56542 0.0
C174 C 0.58026 0.45863 0.62994 0.0
C175 C 0.55166 0.42927 0.62392 0.0
C176 C 0.54549 0.40215 0.63777 0.0
C177 C 0.56802 0.40365 0.65758 0.0
C178 C 0.59597 0.4333 0.66424 0.0
C179 C 0.60189 0.46045 0.65059 0.0
C180 C 0.57435 0.50407 0.62027 0.0
C181 C 0.59457 0.53605 0.6275 0.0
C182 C 0.58092 0.5543 0.63388 0.0
C183 C 0.54658 0.54086 0.63308 0.0
C184 C 0.5263 0.50875 0.62573 0.0
C185 C 0.54 0.49051 0.61942 0.0
H186 H 0.15715 0.57433 0.77765 0.0
N187 N 0.11197 0.51157 0.76701 0.0
H188 H 0.20425 0.59534 0.80841 0.0
H189 H 0.12535 0.47971 0.8033 0.0
H190 H 0.17139 0.50081 0.83625 0.0
H191 H 0.1345 0.49029 0.72797 0.0
H192 H 0.15625 0.51365 0.68294 0.0
H193 H 0.11171 0.56215 0.74487 0.0
H194 H 0.13364 0.58582 0.69994 0.0
H195 H 0.09736 0.54907 0.79817 0.0
H196 H 0.05482 0.45974 0.75498 0.0
H197 H 0.04287 0.53536 0.81366 0.0
H198 H -9e-05 0.44647 0.76896 0.0
H199 H 0.85191 0.47626 0.8521 0.0
H200 H 0.83003 0.46435 0.8988 0.0
H201 H 0.88373 0.41762 0.91445 0.0
H202 H 0.90432 0.42846 0.86773 0.0
H203 H 0.85356 0.3918 0.83357 0.0
H204 H 0.80511 0.35277 0.80759 0.0
H205 H 0.81249 0.42662 0.75571 0.0
H206 H 0.86067 0.46584 0.78256 0.0
H207 H 0.93677 0.51335 0.81508 0.0
H208 H 0.9919 0.52827 0.79978 0.0
H209 H 0.96578 0.4311 0.80741 0.0
N210 N 0.88697 0.45606 0.82703 0.0
H211 H 0.91064 0.41638 0.82108 0.0
C212 C 0.13804 0.52517 0.78756 0.0
C213 C 0.16002 0.55798 0.79015 0.0
C214 C 0.18691 0.5701 0.80828 0.0
C215 C 0.19207 0.54987 0.82488 0.0
C216 C 0.16888 0.51716 0.82335 0.0
C217 C 0.14233 0.50501 0.80473 0.0
C218 C 0.12158 0.5244 0.73973 0.0
C219 C 0.1338 0.51085 0.72175 0.0
C220 C 0.14612 0.52418 0.69607 0.0
C221 C 0.14668 0.5516 0.68798 0.0
C222 C 0.13373 0.56483 0.70576 0.0
C223 C 0.12104 0.55123 0.73135 0.0
C224 C 0.08016 0.50504 0.77579 0.0
C225 C 0.07627 0.52652 0.79193 0.0
C226 C 0.04494 0.51875 0.80055 0.0
C227 C 0.01684 0.48963 0.79281 0.0
C228 C 0.02092 0.46871 0.77598 0.0
C229 C 0.05224 0.47632 0.76774 0.0
C230 C 0.87975 0.45341 0.85615 0.0
C231 C 0.85946 0.46402 0.86585 0.0
C232 C 0.84705 0.45723 0.89259 0.0
C233 C 0.85485 0.43973 0.91035 0.0
C234 C 0.87669 0.43061 0.90114 0.0
C235 C 0.88885 0.43716 0.87432 0.0
C236 C 0.86058 0.43193 0.81015 0.0
C237 C 0.84508 0.39964 0.81644 0.0
C238 C 0.8174 0.37723 0.80138 0.0
C239 C 0.80472 0.38656 0.77966 0.0
C240 C 0.82126 0.41869 0.77262 0.0
C241 C 0.84887 0.44111 0.78777 0.0
C242 C 0.91961 0.46392 0.81937 0.0
C243 C 0.94312 0.49539 0.81345 0.0
C244 C 0.97466 0.50385 0.80487 0.0
C245 C 0.98343 0.48091 0.80229 0.0
C246 C 0.95984 0.44936 0.80861 0.0
C247 C 0.92822 0.4409 0.81677 0.0
H248 H 0.50923 0.17747 0.98177 0.0
N249 N 0.51661 0.13352 0.95766 0.0
H250 H 0.54882 0.22089 0.0118 0.0
H251 H 0.57211 0.13901 0.98104 0.0
H252 H 0.61196 0.18246 0.01082 0.0
H253 H 0.5749 0.15014 0.93257 0.0
H254 H 0.59331 0.17584 0.88817 0.0
H255 H 0.48111 0.14233 0.92034 0.0
H256 H 0.49953 0.16823 0.87555 0.0
H257 H 0.45832 0.09522 0.97939 0.0
H258 H 0.54315 0.09691 0.94662 0.0
H259 H 0.43169 0.03845 0.98719 0.0
H260 H 0.51653 0.04009 0.95384 0.0
H261 H 0.35611 0.89082 0.02914 0.0
H262 H 0.35048 0.87196 0.07658 0.0
H263 H 0.44417 0.87814 0.07023 0.0
H264 H 0.4493 0.89644 0.02302 0.0
H265 H 0.45429 0.89705 0.97396 0.0
H266 H 0.44878 0.85073 0.95047 0.0
H267 H 0.34312 0.80819 0.9472 0.0
H268 H 0.34888 0.85412 0.97163 0.0
H269 H 0.37868 0.93343 0.97042 0.0
H270 H 0.40736 0.98986 0.96029 0.0
H271 H 0.4984 0.00089 0.99067 0.0
N272 N 0.40322 0.902 0.99371 0.0
H273 H 0.46964 0.94439 0.00012 0.0
C274 C 0.5377 0.15516 0.97901 0.0
C275 C 0.53122 0.17803 0.98865 0.0
C276 C 0.55384 0.20275 0.00581 0.0
C277 C 0.58362 0.20519 0.01348 0.0
C278 C 0.58937 0.18135 0.00497 0.0
C279 C 0.56652 0.15642 0.98801 0.0
C280 C 0.52654 0.14445 0.92992 0.0
C281 C 0.55799 0.15342 0.9202 0.0
C282 C 0.56861 0.16831 0.89481 0.0
C283 C 0.54798 0.17434 0.87855 0.0
C284 C 0.5159 0.16375 0.88758 0.0
C285 C 0.50537 0.14904 0.91311 0.0
C286 C 0.50253 0.1003 0.96239 0.0
C287 C 0.47113 0.08326 0.97386 0.0
C288 C 0.45591 0.05083 0.97808 0.0
C289 C 0.47186 0.03466 0.97087 0.0
C290 C 0.50366 0.05187 0.95976 0.0
C291 C 0.51889 0.08442 0.95551 0.0
C292 C 0.40295 0.89497 0.02251 0.0
C293 C 0.37562 0.88859 0.03825 0.0
C294 C 0.37252 0.87791 0.0653 0.0
C295 C 0.39677 0.87331 0.07704 0.0
C296 C 0.42484 0.881 0.0616 0.0
C297 C 0.42794 0.89174 0.0346 0.0
C298 C 0.40182 0.87878 0.97485 0.0
C299 C 0.43001 0.87802 0.9678 0.0
C300 C 0.42683 0.85154 0.95421 0.0
C301 C 0.39546 0.8255 0.94742 0.0
C302 C 0.36759 0.82752 0.95271 0.0
C303 C 0.37081 0.85383 0.96637 0.0
C304 C 0.42184 0.93471 0.98607 0.0
C305 C 0.4049 0.94804 0.97457 0.0
C306 C 0.42128 0.98029 0.96904 0.0
C307 C 0.45511 0.99997 0.97499 0.0
C308 C 0.47238 0.98636 0.9857 0.0
C309 C 0.4559 0.95399 0.99122 0.0
H310 H 0.55272 0.43224 0.14743 0.0
N311 N 0.58081 0.49181 0.17003 0.0
H312 H 0.57876 0.41389 0.11567 0.0
H313 H 0.63802 0.52651 0.14507 0.0
H314 H 0.66408 0.50854 0.11242 0.0
H315 H 0.62218 0.5181 0.2123 0.0
H316 H 0.61842 0.49562 0.25796 0.0
H317 H 0.52994 0.43507 0.18837 0.0
H318 H 0.52653 0.41203 0.23365 0.0
H319 H 0.51958 0.45484 0.14656 0.0
H320 H 0.59035 0.5491 0.17528 0.0
H321 H 0.48186 0.47202 0.13312 0.0
H322 H 0.55252 0.56651 0.16243 0.0
H323 H 0.3875 0.52127 0.07241 0.0
H324 H 0.38378 0.53542 0.02467 0.0
H325 H 0.46185 0.63151 0.04198 0.0
H326 H 0.46534 0.61743 0.08923 0.0
H327 H 0.4702 0.61559 0.13922 0.0
H328 H 0.45791 0.65234 0.1616 0.0
H329 H 0.35376 0.58424 0.15178 0.0
H330 H 0.36638 0.54806 0.1284 0.0
H331 H 0.40996 0.50707 0.13877 0.0
H332 H 0.44737 0.48973 0.15335 0.0
H333 H 0.52958 0.57576 0.12139 0.0
N334 N 0.42498 0.55983 0.11314 0.0
H335 H 0.49233 0.59307 0.10753 0.0
C336 C 0.59369 0.48082 0.1489 0.0
C337 C 0.57684 0.44917 0.13976 0.0
C338 C 0.59171 0.43871 0.12134 0.0
C339 C 0.62364 0.45968 0.11163 0.0
C340 C 0.63971 0.49165 0.11985 0.0
C341 C 0.62485 0.50202 0.13833 0.0
C342 C 0.57668 0.47822 0.19689 0.0
C343 C 0.60111 0.49508 0.21698 0.0
C344 C 0.59885 0.48226 0.24297 0.0
C345 C 0.57219 0.45208 0.24924 0.0
C346 C 0.54744 0.43524 0.22921 0.0
C347 C 0.54946 0.44836 0.20331 0.0
C348 C 0.55787 0.50086 0.16181 0.0
C349 C 0.52698 0.47921 0.15007 0.0
C350 C 0.50533 0.48906 0.14254 0.0
C351 C 0.5142 0.52067 0.14667 0.0
C352 C 0.54511 0.54213 0.15859 0.0
C353 C 0.56667 0.53226 0.16606 0.0
C354 C 0.42643 0.56814 0.0845 0.0
C355 C 0.40413 0.54522 0.06569 0.0
C356 C 0.4021 0.55333 0.03849 0.0
C357 C 0.42231 0.58466 0.02974 0.0
C358 C 0.44563 0.6073 0.04829 0.0
C359 C 0.44775 0.59916 0.07536 0.0
C360 C 0.41906 0.57909 0.13177 0.0
C361 C 0.44473 0.60824 0.14231 0.0
C362 C 0.43765 0.62929 0.15525 0.0
C363 C 0.40485 0.62149 0.158 0.0
C364 C 0.37931 0.5913 0.14939 0.0
C365 C 0.38641 0.57045 0.13632 0.0
C366 C 0.44815 0.55123 0.12208 0.0
C367 C 0.4361 0.52218 0.13509 0.0
C368 C 0.45746 0.51225 0.14319 0.0
C369 C 0.49145 0.53132 0.13843 0.0
C370 C 0.50358 0.56066 0.12564 0.0
C371 C 0.48219 0.57055 0.11755 0.0
C372 C 0.61209 0.32988 0.41697 0.0
O373 O 0.63514 0.35589 0.42926 0.0
O374 O 0.66235 0.39254 0.37316 0.0
Zn375 Zn 0.61634 0.37803 0.38592 0.0
O376 O 0.61453 0.40071 0.42015 0.0
C377 C 0.58604 0.40524 0.35355 0.0
O378 O 0.59155 0.42221 0.37607 0.0
O379 O 0.59734 0.33231 0.39602 0.0
C380 C 0.63204 0.42983 0.42674 0.0
O381 O 0.65509 0.4496 0.40999 0.0
C382 C 0.69015 0.40801 0.38543 0.0
O383 O 0.69214 0.4189 0.41059 0.0
O384 O 0.59269 0.38352 0.35352 0.0
C385 C 0.32131 0.71768 0.56237 0.0
O386 O 0.33236 0.70574 0.58048 0.0
O387 O 0.30708 0.64248 0.56009 0.0
Zn388 Zn 0.27127 0.65231 0.55499 0.0
O389 O 0.24556 0.63139 0.52023 0.0
C390 C 0.21626 0.60894 0.58756 0.0
O391 O 0.21011 0.59134 0.56532 0.0
O392 O 0.29401 0.6994 0.55007 0.0
C393 C 0.22168 0.63459 0.51327 0.0
O394 O 0.21408 0.65135 0.52919 0.0
C395 C 0.30273 0.61719 0.57053 0.0
O396 O 0.27297 0.59499 0.57769 0.0
O397 O 0.24122 0.63696 0.58798 0.0
C398 C 0.56997 0.29542 0.69763 0.0
O399 O 0.56055 0.27082 0.68132 0.0
O400 O 0.65468 0.30102 0.73306 0.0
Zn401 Zn 0.60624 0.27125 0.72554 0.0
O402 O 0.59984 0.24544 0.69127 0.0
C403 C 0.59844 0.25286 0.7821 0.0
O404 O 0.62484 0.28124 0.7846 0.0
O405 O 0.58784 0.29921 0.71866 0.0
C406 C 0.59907 0.21948 0.69016 0.0
O407 O 0.60305 0.20755 0.71289 0.0
C408 C 0.67618 0.29339 0.7359 0.0
O409 O 0.66736 0.26363 0.73314 0.0
O410 O 0.58508 0.24315 0.75842 0.0
C411 C 0.37972 0.7065 0.91198 0.0
O412 O 0.35672 0.6803 0.9234 0.0
O413 O 0.33796 0.63503 0.87605 0.0
Zn414 Zn 0.3865 0.66012 0.88573 0.0
O415 O 0.39558 0.64369 0.92057 0.0
C416 C 0.40202 0.63258 0.8406 0.0
O417 O 0.37454 0.60752 0.84857 0.0
O418 O 0.39782 0.70469 0.8938 0.0
C419 C 0.40192 0.62184 0.92227 0.0
O420 O 0.40301 0.60761 0.89973 0.0
C421 C 0.31818 0.60588 0.88071 0.0
O422 O 0.32895 0.58939 0.89292 0.0
O423 O 0.41264 0.65866 0.85344 0.0
C424 C 0.6892 0.40494 0.05533 0.0
O425 O 0.67365 0.38202 0.03703 0.0
O426 O 0.70813 0.34275 0.04699 0.0
Zn427 Zn 0.74068 0.38857 0.05624 0.0
O428 O 0.76637 0.39288 0.0907 0.0
C429 C 0.78151 0.39313 0.01152 0.0
O430 O 0.77219 0.36458 0.01993 0.0
O431 O 0.71705 0.41139 0.06474 0.0
C432 C 0.77748 0.37565 0.09807 0.0
O433 O 0.77295 0.35228 0.08194 0.0
C434 C 0.68241 0.32537 0.06091 0.0
O435 O 0.67657 0.33726 0.0829 0.0
O436 O 0.77132 0.40883 0.02426 0.0
C437 C 0.37525 0.71635 0.1911 0.0
O438 O 0.35091 0.71683 0.17863 0.0
O439 O 0.32441 0.73233 0.22724 0.0
Zn440 Zn 0.37225 0.76359 0.21943 0.0
O441 O 0.37834 0.78943 0.1855 0.0
C442 C 0.38322 0.80421 0.26672 0.0
O443 O 0.35513 0.8006 0.25849 0.0
O444 O 0.39067 0.73609 0.21058 0.0
C445 C 0.3742 0.81261 0.18298 0.0
O446 O 0.36447 0.82209 0.20422 0.0
C447 C 0.29907 0.73464 0.22784 0.0
O448 O 0.30163 0.76182 0.22298 0.0
O449 O 0.39544 0.79076 0.2532 0.0
C450 C 0.23366 0.65006 0.24172 0.0
C451 C 0.21208 0.65357 0.25895 0.0
H452 H 0.27812 0.67303 0.21852 0.0
C453 C 0.21747 0.68405 0.26317 0.0
H454 H 0.22982 0.62694 0.23729 0.0
C455 C 0.2448 0.71048 0.25168 0.0
C456 C 0.26749 0.70692 0.2362 0.0
H457 H 0.2016 0.68778 0.27647 0.0
H458 H 0.24916 0.73377 0.25623 0.0
C459 C 0.26124 0.67644 0.23077 0.0
C460 C 0.61857 0.26931 0.45854 0.0
C461 C 0.59649 0.2409 0.4447 0.0
H462 H 0.64046 0.31923 0.46084 0.0
C463 C 0.57825 0.24165 0.42207 0.0
H464 H 0.63241 0.26949 0.47645 0.0
C465 C 0.58278 0.27046 0.41308 0.0
C466 C 0.60543 0.2989 0.42672 0.0
H467 H 0.56101 0.22009 0.41105 0.0
H468 H 0.56888 0.27049 0.39532 0.0
C469 C 0.62298 0.29787 0.44969 0.0
C470 C 0.35518 0.58842 0.60214 0.0
C471 C 0.38715 0.61269 0.59517 0.0
H472 H 0.30349 0.57068 0.5997 0.0
C473 C 0.39082 0.63706 0.57806 0.0
H474 H 0.35139 0.56951 0.61558 0.0
C475 C 0.3633 0.63793 0.56923 0.0
C476 C 0.33147 0.61438 0.57721 0.0
H477 H 0.41504 0.65584 0.57193 0.0
H478 H 0.36708 0.65752 0.55672 0.0
C479 C 0.32766 0.58921 0.59319 0.0
C480 C 0.74948 0.37145 0.76003 0.0
C481 C 0.773 0.36324 0.76594 0.0
H482 H 0.70074 0.35602 0.74586 0.0
C483 C 0.76505 0.33216 0.76027 0.0
H484 H 0.75453 0.39499 0.76451 0.0
C485 C 0.73391 0.30959 0.74977 0.0
C486 C 0.7101 0.31764 0.74472 0.0
H487 H 0.78276 0.32517 0.76425 0.0
H488 H 0.72831 0.28571 0.74616 0.0
C489 C 0.71847 0.34896 0.74951 0.0
C490 C 0.36637 0.76654 0.94826 0.0
C491 C 0.39136 0.79525 0.93735 0.0
H492 H 0.34322 0.71638 0.94892 0.0
C493 C 0.41273 0.79462 0.91779 0.0
H494 H 0.34992 0.76615 0.96381 0.0
C495 C 0.409 0.76584 0.9093 0.0
C496 C 0.38397 0.7372 0.92036 0.0
H497 H 0.43217 0.81634 0.90893 0.0
H498 H 0.42577 0.76605 0.89419 0.0
C499 C 0.36271 0.73794 0.93988 0.0
C500 C 0.67434 0.45852 0.10068 0.0
C501 C 0.6411 0.44775 0.09495 0.0
H502 H 0.71554 0.45371 0.09259 0.0
C503 C 0.6244 0.4242 0.07452 0.0
H504 H 0.68786 0.47628 0.11653 0.0
C505 C 0.6403 0.41099 0.06084 0.0
C506 C 0.67318 0.42102 0.06737 0.0
H507 H 0.59889 0.41565 0.06939 0.0
H508 H 0.62654 0.39236 0.04571 0.0
C509 C 0.69017 0.44536 0.08706 0.0
C510 C 0.35373 0.79165 0.52 0.0
C511 C 0.38741 0.80808 0.52705 0.0
H512 H 0.30627 0.75017 0.52577 0.0
C513 C 0.3983 0.79641 0.54822 0.0
H514 H 0.34465 0.79998 0.50364 0.0
C515 C 0.37631 0.76793 0.56097 0.0
C516 C 0.34303 0.75038 0.55261 0.0
H517 H 0.42406 0.8088 0.5543 0.0
H518 H 0.38579 0.75896 0.57643 0.0
C519 C 0.33178 0.76303 0.53259 0.0
C520 C 0.55259 0.34708 0.65268 0.0
C521 C 0.56408 0.37425 0.66939 0.0
H522 H 0.54496 0.30081 0.64861 0.0
C523 C 0.5742 0.37377 0.69663 0.0
H524 H 0.545 0.34662 0.63149 0.0
C525 C 0.57464 0.34752 0.70634 0.0
C526 C 0.56473 0.32107 0.68909 0.0
H527 H 0.58256 0.39399 0.71028 0.0
H528 H 0.58373 0.34838 0.72707 0.0
C529 C 0.55274 0.32077 0.66247 0.0
C530 C 0.23806 0.54546 0.84605 0.0
C531 C 0.22252 0.56281 0.8423 0.0
H532 H 0.28028 0.54537 0.86158 0.0
C533 C 0.23767 0.59353 0.8537 0.0
H534 H 0.22762 0.52197 0.8373 0.0
C535 C 0.26841 0.60723 0.86682 0.0
C536 C 0.28427 0.59022 0.8696 0.0
H537 H 0.22616 0.60737 0.85208 0.0
H538 H 0.27998 0.63131 0.87452 0.0
C539 C 0.26843 0.55892 0.85984 0.0
C540 C 0.60195 0.24751 0.05003 0.0
C541 C 0.6097 0.23406 0.02798 0.0
H542 H 0.61897 0.28675 0.07803 0.0
C543 C 0.64215 0.24985 0.01823 0.0
H544 H 0.57718 0.23576 0.05808 0.0
C545 C 0.66598 0.27909 0.02948 0.0
C546 C 0.65798 0.29308 0.0509 0.0
H547 H 0.64879 0.24027 0.00107 0.0
H548 H 0.69051 0.29107 0.02093 0.0
C549 C 0.62591 0.27665 0.0615 0.0
C550 C 0.37267 0.64811 0.15349 0.0
C551 C 0.39723 0.64557 0.16731 0.0
H552 H 0.34671 0.67231 0.15004 0.0
C553 C 0.41497 0.6669 0.18902 0.0
H554 H 0.35905 0.6326 0.13625 0.0
C555 C 0.40808 0.69009 0.19681 0.0
C556 C 0.38338 0.69242 0.18297 0.0
H557 H 0.43398 0.66551 0.20012 0.0
H558 H 0.42199 0.70608 0.2137 0.0
C559 C 0.3658 0.67115 0.16124 0.0
C560 C 0.77879 0.4346 0.36898 0.0
C561 C 0.77434 0.41345 0.34756 0.0
H562 H 0.75545 0.44925 0.39817 0.0
C563 C 0.74233 0.39133 0.33827 0.0
H564 H 0.80332 0.45187 0.37645 0.0
C565 C 0.71518 0.39016 0.35024 0.0
C566 C 0.71939 0.41077 0.3721 0.0
H567 H 0.73831 0.37499 0.32159 0.0
H568 H 0.69081 0.37263 0.34265 0.0
C569 C 0.75147 0.43304 0.38139 0.0
C570 C 0.15954 0.61027 0.45474 0.0
C571 C 0.16912 0.59411 0.4369 0.0
H572 H 0.16852 0.63564 0.4929 0.0
C573 C 0.19555 0.59067 0.44479 0.0
H574 H 0.13905 0.61302 0.44941 0.0
C575 C 0.2123 0.60345 0.46973 0.0
C576 C 0.20308 0.62006 0.48735 0.0
H577 H 0.20392 0.5788 0.43134 0.0
H578 H 0.23281 0.6007 0.47498 0.0
C579 C 0.17635 0.62312 0.47971 0.0
C580 C 0.59435 0.1629 0.63459 0.0
C581 C 0.58531 0.17352 0.6113 0.0
H582 H 0.6055 0.16889 0.67795 0.0
C583 C 0.58031 0.19887 0.61433 0.0
H584 H 0.59824 0.14331 0.63286 0.0
C585 C 0.58461 0.21357 0.63995 0.0
C586 C 0.59384 0.20315 0.66325 0.0
H587 H 0.57382 0.2079 0.5967 0.0
H588 H 0.58085 0.23325 0.64143 0.0
C589 C 0.59839 0.17747 0.66038 0.0
C590 C 0.45689 0.65435 0.77811 0.0
C591 C 0.44822 0.62435 0.76776 0.0
H592 H 0.4492 0.68057 0.80939 0.0
C593 C 0.42614 0.59747 0.78279 0.0
H594 H 0.47357 0.67555 0.76694 0.0
C595 C 0.41179 0.60035 0.80675 0.0
C596 C 0.4195 0.6302 0.81651 0.0
H597 H 0.41949 0.57406 0.77582 0.0
H598 H 0.39431 0.57907 0.81745 0.0
C599 C 0.44278 0.65725 0.80234 0.0
C600 C 0.82742 0.39813 0.94645 0.0
C601 C 0.83825 0.42889 0.93743 0.0
H602 H 0.80125 0.36286 0.97679 0.0
C603 C 0.83139 0.44832 0.95371 0.0
H604 H 0.83168 0.38226 0.93425 0.0
C605 C 0.81344 0.43697 0.97803 0.0
C606 C 0.80209 0.40598 0.98667 0.0
H607 H 0.8397 0.47226 0.94757 0.0
H608 H 0.80819 0.45237 0.9899 0.0
C609 C 0.80968 0.38687 0.9708 0.0
C610 C 0.3988 0.83471 0.10865 0.0
C611 C 0.39185 0.85865 0.10456 0.0
H612 H 0.39856 0.80137 0.13642 0.0
C613 C 0.37925 0.86759 0.12659 0.0
H614 H 0.40802 0.82691 0.09197 0.0
C615 C 0.37371 0.85284 0.15217 0.0
C616 C 0.38044 0.82871 0.15614 0.0
H617 H 0.37384 0.8861 0.12409 0.0
H618 H 0.36396 0.86023 0.16874 0.0
C619 C 0.39312 0.81989 0.1341 0.0
C620 C 0.56712 0.40797 0.2779 0.0
C621 C 0.57116 0.43805 0.27633 0.0
H622 H 0.56871 0.37387 0.30367 0.0
C623 C 0.57677 0.45572 0.30068 0.0
H624 H 0.56289 0.39395 0.25937 0.0
C625 C 0.57973 0.44416 0.326 0.0
C626 C 0.57765 0.41488 0.32744 0.0
H627 H 0.57966 0.47885 0.30003 0.0
H628 H 0.5851 0.45887 0.34425 0.0
C629 C 0.57056 0.39656 0.30322 0.0
C630 C 0.40355 0.85842 0.32864 0.0
C631 C 0.4271 0.85459 0.34281 0.0
H632 H 0.37129 0.84554 0.29362 0.0
C633 C 0.4374 0.83527 0.33084 0.0
H634 H 0.39555 0.87364 0.33687 0.0
C635 C 0.42387 0.81958 0.30571 0.0
C636 C 0.39948 0.82257 0.29218 0.0
H637 H 0.45514 0.83139 0.34129 0.0
H638 H 0.4318 0.80435 0.29735 0.0
C639 C 0.38975 0.84244 0.30373 0.0
C640 C 0.59174 0.43086 0.49345 0.0
C641 C 0.61358 0.46155 0.50363 0.0
H642 H 0.58053 0.3968 0.46143 0.0
C643 C 0.64142 0.48207 0.48808 0.0
H644 H 0.57034 0.41434 0.50514 0.0
C645 C 0.64732 0.47201 0.46289 0.0
C646 C 0.62567 0.44112 0.45295 0.0
H647 H 0.6586 0.5059 0.49538 0.0
H648 H 0.66902 0.48828 0.4514 0.0
C649 C 0.59776 0.42074 0.46848 0.0
C650 C 0.18509 0.59962 0.66076 0.0
C651 C 0.16216 0.56695 0.66161 0.0
H652 H 0.22035 0.63861 0.63668 0.0
C653 C 0.15564 0.5487 0.63747 0.0
H654 H 0.19078 0.61422 0.67913 0.0
C655 C 0.17242 0.56263 0.6132 0.0
C656 C 0.19635 0.59508 0.61259 0.0
H657 H 0.13782 0.52353 0.63747 0.0
H658 H 0.16724 0.54772 0.59512 0.0
C659 C 0.20213 0.61354 0.6365 0.0
C660 C 0.54216 0.18504 0.82883 0.0
C661 C 0.56084 0.19374 0.85342 0.0
H662 H 0.5395 0.19676 0.78679 0.0
C663 C 0.5918 0.22188 0.85428 0.0
H664 H 0.51824 0.16342 0.82761 0.0
C665 C 0.60379 0.24102 0.83114 0.0
C666 C 0.58525 0.23237 0.80649 0.0
H667 H 0.60654 0.22943 0.87306 0.0
H668 H 0.62771 0.26262 0.8326 0.0
C669 C 0.55436 0.20407 0.8055 0.0
C670 C 0.41417 0.576 0.97844 0.0
C671 C 0.41777 0.59425 0.002 0.0
H672 H 0.40667 0.57057 0.93464 0.0
C673 C 0.41629 0.62163 -0.00092 0.0
H674 H 0.41534 0.55486 0.98011 0.0
C675 C 0.41117 0.63053 0.9732 0.0
C676 C 0.40765 0.61238 0.94959 0.0
H677 H 0.4185 0.63591 0.01693 0.0
H678 H 0.40997 0.65168 0.97174 0.0
C679 C 0.40935 0.58509 0.95244 0.0
C680 C 0.81077 0.40968 0.16925 0.0
C681 C 0.82494 0.3923 0.17765 0.0
H682 H 0.78488 0.41814 0.13774 0.0
C683 C 0.8238 0.36955 0.15938 0.0
H684 H 0.81063 0.42696 0.18293 0.0
C685 C 0.8086 0.36419 0.13342 0.0
C686 C 0.79433 0.38153 0.12518 0.0
H687 H 0.83482 0.356 0.16508 0.0
H688 H 0.80802 0.34645 0.11987 0.0
C689 C 0.79577 0.40445 0.14334 0.0
loop_
_geom_bond_atom_site_label_1
_geom_bond_atom_site_label_2
_geom_bond_distance
_geom_bond_site_symmetry_2
_ccdc_geom_bond_type
H0 C27 0.929 . S
N1 C26 1.433 . S
N1 C32 1.435 . S
N1 C38 1.423 . S
H2 C28 0.930 . S
H3 C31 0.931 . S
H4 C30 0.929 . S
H5 C33 0.930 . S
H6 C34 0.932 . S
H7 C37 0.929 . S
H8 C36 0.931 . S
H9 C39 0.929 . S
H10 C43 0.932 . S
H11 C40 0.931 . S
H12 C42 0.929 . S
H13 C45 0.929 . S
H14 C46 0.930 . S
H15 C48 0.929 . S
H16 C49 0.931 . S
H17 C51 0.930 . S
H18 C52 0.932 . S
H19 C54 0.931 . S
H20 C55 0.929 . S
H21 C57 0.929 . S
H22 C58 0.931 . S
H23 C60 0.929 . S
N24 C44 1.433 . S
N24 C50 1.435 . S
N24 C56 1.423 . S
H25 C61 0.932 . S
C26 N1 1.433 . S
C26 C27 1.363 . S
C26 C31 1.370 . S
C27 H0 0.929 . S
C27 C26 1.363 . S
C27 C28 1.385 . S
C28 H2 0.930 . S
C28 C27 1.385 . S
C28 C29 1.357 . S
C29 C28 1.357 . S
C29 C30 1.406 . S
C30 H4 0.929 . S
C30 C29 1.406 . S
C30 C31 1.391 . S
C31 H3 0.931 . S
C31 C26 1.370 . S
C31 C30 1.391 . S
C32 N1 1.435 . S
C32 C33 1.358 . S
C32 C37 1.371 . S
C33 H5 0.930 . S
C33 C32 1.358 . S
C33 C34 1.405 . S
C34 H6 0.932 . S
C34 C33 1.405 . S
C34 C35 1.383 . S
C35 C34 1.383 . S
C35 C36 1.393 . S
C36 H8 0.931 . S
C36 C35 1.393 . S
C36 C37 1.382 . S
C37 H7 0.929 . S
C37 C32 1.371 . S
C37 C36 1.382 . S
C38 N1 1.423 . S
C38 C39 1.362 . S
C38 C43 1.388 . S
C39 H9 0.929 . S
C39 C38 1.362 . S
C39 C40 1.376 . S
C40 H11 0.931 . S
C40 C39 1.376 . S
C40 C41 1.396 . S
C41 C40 1.396 . S
C41 C42 1.348 . S
C41 C59 1.472 1_455 S
C42 H12 0.929 . S
C42 C41 1.348 . S
C42 C43 1.443 . S
C43 H10 0.932 . S
C43 C38 1.388 . S
C43 C42 1.443 . S
C44 N24 1.433 . S
C44 C45 1.363 . S
C44 C49 1.370 . S
C45 H13 0.929 . S
C45 C44 1.363 . S
C45 C46 1.385 . S
C46 H14 0.930 . S
C46 C45 1.385 . S
C46 C47 1.357 . S
C47 C46 1.357 . S
C47 C48 1.406 . S
C48 H15 0.929 . S
C48 C47 1.406 . S
C48 C49 1.391 . S
C49 H16 0.931 . S
C49 C44 1.370 . S
C49 C48 1.391 . S
C50 N24 1.435 . S
C50 C51 1.358 . S
C50 C55 1.371 . S
C51 H17 0.930 . S
C51 C50 1.358 . S
C51 C52 1.405 . S
C52 H18 0.932 . S
C52 C51 1.405 . S
C52 C53 1.383 . S
C53 C52 1.383 . S
C53 C54 1.393 . S
C54 H19 0.931 . S
C54 C53 1.393 . S
C54 C55 1.382 . S
C55 H20 0.929 . S
C55 C50 1.371 . S
C55 C54 1.382 . S
C56 N24 1.423 . S
C56 C57 1.362 . S
C56 C61 1.388 . S
C57 H21 0.929 . S
C57 C56 1.362 . S
C57 C58 1.376 . S
C58 H22 0.931 . S
C58 C57 1.376 . S
C58 C59 1.396 . S
C59 C41 1.472 1_655 S
C59 C58 1.396 . S
C59 C60 1.348 . S
C60 H23 0.929 . S
C60 C59 1.348 . S
C60 C61 1.443 . S
C61 H25 0.932 . S
C61 C56 1.388 . S
C61 C60 1.443 . S
H62 C89 0.929 . S
N63 C88 1.433 . S
N63 C94 1.435 . S
N63 C100 1.423 . S
H64 C90 0.930 . S
H65 C93 0.931 . S
H66 C92 0.929 . S
H67 C95 0.930 . S
H68 C96 0.932 . S
H69 C99 0.929 . S
H70 C98 0.931 . S
H71 C101 0.929 . S
H72 C105 0.932 . S
H73 C102 0.931 . S
H74 C104 0.929 1_545 S
H75 C107 0.929 . S
H76 C108 0.930 . S
H77 C110 0.929 . S
H78 C111 0.931 . S
H79 C113 0.930 . S
H80 C114 0.932 . S
H81 C116 0.931 . S
H82 C117 0.929 . S
H83 C119 0.929 . S
H84 C120 0.931 . S
H85 C122 0.929 . S
N86 C106 1.433 . S
N86 C112 1.435 . S
N86 C118 1.423 . S
H87 C123 0.932 . S
C88 N63 1.433 . S
C88 C89 1.363 . S
C88 C93 1.370 . S
C89 H62 0.929 . S
C89 C88 1.363 . S
C89 C90 1.385 . S
C90 H64 0.930 . S
C90 C89 1.385 . S
C90 C91 1.357 . S
C91 C90 1.357 . S
C91 C92 1.406 . S
C92 H66 0.929 . S
C92 C91 1.406 . S
C92 C93 1.391 . S
C93 H65 0.931 . S
C93 C88 1.370 . S
C93 C92 1.391 . S
C94 N63 1.435 . S
C94 C95 1.358 . S
C94 C99 1.371 . S
C95 H67 0.930 . S
C95 C94 1.358 . S
C95 C96 1.405 . S
C96 H68 0.932 . S
C96 C95 1.405 . S
C96 C97 1.383 . S
C97 C96 1.383 . S
C97 C98 1.393 . S
C98 H70 0.931 . S
C98 C97 1.393 . S
C98 C99 1.382 . S
C99 H69 0.929 . S
C99 C94 1.371 . S
C99 C98 1.382 . S
C100 N63 1.423 . S
C100 C101 1.362 . S
C100 C105 1.388 . S
C101 H71 0.929 . S
C101 C100 1.362 . S
C101 C102 1.376 . S
C102 H73 0.931 . S
C102 C101 1.376 . S
C102 C103 1.396 1_565 S
C103 C102 1.396 1_545 S
C103 C104 1.348 1_545 S
C103 C121 1.472 . S
C104 H74 0.929 1_565 S
C104 C103 1.348 1_565 S
C104 C105 1.443 . S
C105 H72 0.932 . S
C105 C100 1.388 . S
C105 C104 1.443 . S
C106 N86 1.433 . S
C106 C107 1.363 . S
C106 C111 1.370 . S
C107 H75 0.929 . S
C107 C106 1.363 . S
C107 C108 1.385 . S
C108 H76 0.930 . S
C108 C107 1.385 . S
C108 C109 1.357 . S
C109 C108 1.357 . S
C109 C110 1.406 . S
C110 H77 0.929 . S
C110 C109 1.406 . S
C110 C111 1.391 . S
C111 H78 0.931 . S
C111 C106 1.370 . S
C111 C110 1.391 . S
C112 N86 1.435 . S
C112 C113 1.358 . S
C112 C117 1.371 . S
C113 H79 0.930 . S
C113 C112 1.358 . S
C113 C114 1.405 . S
C114 H80 0.932 . S
C114 C113 1.405 . S
C114 C115 1.383 . S
C115 C114 1.383 . S
C115 C116 1.393 . S
C116 H81 0.931 . S
C116 C115 1.393 . S
C116 C117 1.382 . S
C117 H82 0.929 . S
C117 C112 1.371 . S
C117 C116 1.382 . S
C118 N86 1.423 . S
C118 C119 1.362 . S
C118 C123 1.388 . S
C119 H83 0.929 . S
C119 C118 1.362 . S
C119 C120 1.376 . S
C120 H84 0.931 . S
C120 C119 1.376 . S
C120 C121 1.396 . S
C121 C103 1.472 . S
C121 C120 1.396 . S
C121 C122 1.348 . S
C122 H85 0.929 . S
C122 C121 1.348 . S
C122 C123 1.443 . S
C123 H87 0.932 . S
C123 C118 1.388 . S
C123 C122 1.443 . S
H124 C151 0.929 . S
N125 C150 1.433 . S
N125 C156 1.435 . S
N125 C162 1.423 . S
H126 C152 0.930 . S
H127 C155 0.931 . S
H128 C154 0.929 . S
H129 C157 0.930 . S
H130 C158 0.932 . S
H131 C161 0.929 . S
H132 C160 0.931 . S
H133 C163 0.929 . S
H134 C167 0.932 . S
H135 C164 0.931 . S
H136 C166 0.929 . S
H137 C169 0.929 . S
H138 C170 0.930 . S
H139 C172 0.929 . S
H140 C173 0.931 . S
H141 C175 0.930 . S
H142 C176 0.932 . S
H143 C178 0.931 . S
H144 C179 0.929 . S
H145 C181 0.929 . S
H146 C182 0.931 . S
H147 C184 0.929 . S
N148 C168 1.433 . S
N148 C174 1.435 . S
N148 C180 1.423 . S
H149 C185 0.932 . S
C150 N125 1.433 . S
C150 C151 1.363 . S
C150 C155 1.370 . S
C151 H124 0.929 . S
C151 C150 1.363 . S
C151 C152 1.385 . S
C152 H126 0.930 . S
C152 C151 1.385 . S
C152 C153 1.357 . S
C153 C152 1.357 . S
C153 C154 1.406 . S
C154 H128 0.929 . S
C154 C153 1.406 . S
C154 C155 1.391 . S
C155 H127 0.931 . S
C155 C150 1.370 . S
C155 C154 1.391 . S
C156 N125 1.435 . S
C156 C157 1.358 . S
C156 C161 1.371 . S
C157 H129 0.930 . S
C157 C156 1.358 . S
C157 C158 1.405 . S
C158 H130 0.932 . S
C158 C157 1.405 . S
C158 C159 1.383 . S
C159 C158 1.383 . S
C159 C160 1.393 . S
C160 H132 0.931 . S
C160 C159 1.393 . S
C160 C161 1.382 . S
C161 H131 0.929 . S
C161 C156 1.371 . S
C161 C160 1.382 . S
C162 N125 1.423 . S
C162 C163 1.362 . S
C162 C167 1.388 . S
C163 H133 0.929 . S
C163 C162 1.362 . S
C163 C164 1.376 . S
C164 H135 0.931 . S
C164 C163 1.376 . S
C164 C165 1.396 . S
C165 C164 1.396 . S
C165 C166 1.348 . S
C165 C183 1.472 . S
C166 H136 0.929 . S
C166 C165 1.348 . S
C166 C167 1.443 . S
C167 H134 0.932 . S
C167 C162 1.388 . S
C167 C166 1.443 . S
C168 N148 1.433 . S
C168 C169 1.363 . S
C168 C173 1.370 . S
C169 H137 0.929 . S
C169 C168 1.363 . S
C169 C170 1.385 . S
C170 H138 0.930 . S
C170 C169 1.385 . S
C170 C171 1.357 . S
C171 C170 1.357 . S
C171 C172 1.406 . S
C172 H139 0.929 . S
C172 C171 1.406 . S
C172 C173 1.391 . S
C173 H140 0.931 . S
C173 C168 1.370 . S
C173 C172 1.391 . S
C174 N148 1.435 . S
C174 C175 1.358 . S
C174 C179 1.371 . S
C175 H141 0.930 . S
C175 C174 1.358 . S
C175 C176 1.405 . S
C176 H142 0.932 . S
C176 C175 1.405 . S
C176 C177 1.383 . S
C177 C176 1.383 . S
C177 C178 1.393 . S
C178 H143 0.931 . S
C178 C177 1.393 . S
C178 C179 1.382 . S
C179 H144 0.929 . S
C179 C174 1.371 . S
C179 C178 1.382 . S
C180 N148 1.423 . S
C180 C181 1.362 . S
C180 C185 1.388 . S
C181 H145 0.929 . S
C181 C180 1.362 . S
C181 C182 1.376 . S
C182 H146 0.931 . S
C182 C181 1.376 . S
C182 C183 1.396 . S
C183 C165 1.472 . S
C183 C182 1.396 . S
C183 C184 1.348 . S
C184 H147 0.929 . S
C184 C183 1.348 . S
C184 C185 1.443 . S
C185 H149 0.932 . S
C185 C180 1.388 . S
C185 C184 1.443 . S
H186 C213 0.929 . S
N187 C212 1.433 . S
N187 C218 1.435 . S
N187 C224 1.423 . S
H188 C214 0.930 . S
H189 C217 0.931 . S
H190 C216 0.929 . S
H191 C219 0.930 . S
H192 C220 0.932 . S
H193 C223 0.929 . S
H194 C222 0.931 . S
H195 C225 0.929 . S
H196 C229 0.932 . S
H197 C226 0.931 . S
H198 C228 0.929 . S
H199 C231 0.929 . S
H200 C232 0.930 . S
H201 C234 0.929 . S
H202 C235 0.931 . S
H203 C237 0.930 . S
H204 C238 0.932 . S
H205 C240 0.931 . S
H206 C241 0.929 . S
H207 C243 0.929 . S
H208 C244 0.931 . S
H209 C246 0.929 . S
N210 C230 1.433 . S
N210 C236 1.435 . S
N210 C242 1.423 . S
H211 C247 0.932 . S
C212 N187 1.433 . S
C212 C213 1.363 . S
C212 C217 1.370 . S
C213 H186 0.929 . S
C213 C212 1.363 . S
C213 C214 1.385 . S
C214 H188 0.930 . S
C214 C213 1.385 . S
C214 C215 1.357 . S
C215 C214 1.357 . S
C215 C216 1.406 . S
C216 H190 0.929 . S
C216 C215 1.406 . S
C216 C217 1.391 . S
C217 H189 0.931 . S
C217 C212 1.370 . S
C217 C216 1.391 . S
C218 N187 1.435 . S
C218 C219 1.358 . S
C218 C223 1.371 . S
C219 H191 0.930 . S
C219 C218 1.358 . S
C219 C220 1.405 . S
C220 H192 0.932 . S
C220 C219 1.405 . S
C220 C221 1.383 . S
C221 C220 1.383 . S
C221 C222 1.393 . S
C222 H194 0.931 . S
C222 C221 1.393 . S
C222 C223 1.382 . S
C223 H193 0.929 . S
C223 C218 1.371 . S
C223 C222 1.382 . S
C224 N187 1.423 . S
C224 C225 1.362 . S
C224 C229 1.388 . S
C225 H195 0.929 . S
C225 C224 1.362 . S
C225 C226 1.376 . S
C226 H197 0.931 . S
C226 C225 1.376 . S
C226 C227 1.396 . S
C227 C226 1.396 . S
C227 C228 1.348 . S
C227 C245 1.472 1_455 S
C228 H198 0.929 . S
C228 C227 1.348 . S
C228 C229 1.443 . S
C229 H196 0.932 . S
C229 C224 1.388 . S
C229 C228 1.443 . S
C230 N210 1.433 . S
C230 C231 1.363 . S
C230 C235 1.370 . S
C231 H199 0.929 . S
C231 C230 1.363 . S
C231 C232 1.385 . S
C232 H200 0.930 . S
C232 C231 1.385 . S
C232 C233 1.357 . S
C233 C232 1.357 . S
C233 C234 1.406 . S
C234 H201 0.929 . S
C234 C233 1.406 . S
C234 C235 1.391 . S
C235 H202 0.931 . S
C235 C230 1.370 . S
C235 C234 1.391 . S
C236 N210 1.435 . S
C236 C237 1.358 . S
C236 C241 1.371 . S
C237 H203 0.930 . S
C237 C236 1.358 . S
C237 C238 1.405 . S
C238 H204 0.932 . S
C238 C237 1.405 . S
C238 C239 1.383 . S
C239 C238 1.383 . S
C239 C240 1.393 . S
C240 H205 0.931 . S
C240 C239 1.393 . S
C240 C241 1.382 . S
C241 H206 0.929 . S
C241 C236 1.371 . S
C241 C240 1.382 . S
C242 N210 1.423 . S
C242 C243 1.362 . S
C242 C247 1.388 . S
C243 H207 0.929 . S
C243 C242 1.362 . S
C243 C244 1.376 . S
C244 H208 0.931 . S
C244 C243 1.376 . S
C244 C245 1.396 . S
C245 C227 1.472 1_655 S
C245 C244 1.396 . S
C245 C246 1.348 . S
C246 H209 0.929 . S
C246 C245 1.348 . S
C246 C247 1.443 . S
C247 H211 0.932 . S
C247 C242 1.388 . S
C247 C246 1.443 . S
H248 C275 0.929 . S
N249 C274 1.433 . S
N249 C280 1.435 . S
N249 C286 1.423 . S
H250 C276 0.930 . S
H251 C279 0.931 . S
H252 C278 0.929 . S
H253 C281 0.930 . S
H254 C282 0.932 . S
H255 C285 0.929 . S
H256 C284 0.931 . S
H257 C287 0.929 . S
H258 C291 0.932 . S
H259 C288 0.931 . S
H260 C290 0.929 . S
H261 C293 0.929 . S
H262 C294 0.930 . S
H263 C296 0.929 . S
H264 C297 0.931 . S
H265 C299 0.944 . S
H266 C300 0.932 . S
H267 C302 0.931 . S
H268 C303 0.929 . S
H269 C305 0.929 . S
H270 C306 0.925 1_554 S
H271 C308 0.929 . S
N272 C292 1.433 . S
N272 C298 1.435 1_554 S
N272 C304 1.423 1_554 S
H273 C309 0.932 . S
C274 N249 1.433 . S
C274 C275 1.363 . S
C274 C279 1.370 . S
C275 H248 0.929 . S
C275 C274 1.363 . S
C275 C276 1.385 . S
C276 H250 0.930 . S
C276 C275 1.385 . S
C276 C277 1.357 1_556 S
C277 C276 1.357 1_554 S
C277 C278 1.406 . S
C278 H252 0.929 . S
C278 C277 1.406 . S
C278 C279 1.391 1_554 S
C279 H251 0.931 . S
C279 C274 1.370 . S
C279 C278 1.391 1_556 S
C280 N249 1.435 . S
C280 C281 1.358 . S
C280 C285 1.371 . S
C281 H253 0.930 . S
C281 C280 1.358 . S
C281 C282 1.405 . S
C282 H254 0.932 . S
C282 C281 1.405 . S
C282 C283 1.383 . S
C283 C282 1.383 . S
C283 C284 1.393 . S
C284 H256 0.931 . S
C284 C283 1.393 . S
C284 C285 1.382 . S
C285 H255 0.929 . S
C285 C280 1.371 . S
C285 C284 1.382 . S
C286 N249 1.423 . S
C286 C287 1.362 . S
C286 C291 1.388 . S
C287 H257 0.929 . S
C287 C286 1.362 . S
C287 C288 1.376 . S
C288 H259 0.931 . S
C288 C287 1.376 . S
C288 C289 1.396 . S
C289 C288 1.396 . S
C289 C290 1.348 . S
C289 C307 1.472 1_545 S
C290 H260 0.929 . S
C290 C289 1.348 . S
C290 C291 1.443 . S
C291 H258 0.932 . S
C291 C286 1.388 . S
C291 C290 1.443 . S
C292 N272 1.433 . S
C292 C293 1.363 . S
C292 C297 1.370 . S
C293 H261 0.929 . S
C293 C292 1.363 . S
C293 C294 1.385 . S
C294 H262 0.930 . S
C294 C293 1.385 . S
C294 C295 1.357 . S
C295 C294 1.357 . S
C295 C296 1.406 . S
C296 H263 0.929 . S
C296 C295 1.406 . S
C296 C297 1.391 . S
C297 H264 0.931 . S
C297 C292 1.370 . S
C297 C296 1.391 . S
C298 N272 1.435 1_556 S
C298 C299 1.354 1_556 S
C298 C303 1.371 . S
C299 H265 0.944 . S
C299 C298 1.354 1_554 S
C299 C300 1.396 1_554 S
C300 H266 0.932 . S
C300 C299 1.396 1_556 S
C300 C301 1.383 . S
C301 C300 1.383 . S
C301 C302 1.393 . S
C302 H267 0.931 . S
C302 C301 1.393 . S
C302 C303 1.382 . S
C303 H268 0.929 . S
C303 C298 1.371 . S
C303 C302 1.382 . S
C304 N272 1.423 1_556 S
C304 C305 1.362 1_556 S
C304 C309 1.388 . S
C305 H269 0.929 . S
C305 C304 1.362 1_554 S
C305 C306 1.370 1_554 S
C306 H270 0.925 1_556 S
C306 C305 1.370 1_556 S
C306 C307 1.408 . S
C307 C289 1.472 1_565 S
C307 C306 1.408 . S
C307 C308 1.348 . S
C308 H271 0.929 . S
C308 C307 1.348 . S
C308 C309 1.443 . S
C309 H273 0.932 . S
C309 C304 1.388 . S
C309 C308 1.443 . S
H310 C337 0.929 . S
N311 C336 1.433 . S
N311 C342 1.435 . S
N311 C348 1.423 . S
H312 C338 0.930 . S
H313 C341 0.931 . S
H314 C340 0.929 . S
H315 C343 0.930 . S
H316 C344 0.932 . S
H317 C347 0.929 . S
H318 C346 0.931 . S
H319 C349 0.929 . S
H320 C353 0.932 . S
H321 C350 0.931 . S
H322 C352 0.929 . S
H323 C355 0.929 . S
H324 C356 0.930 . S
H325 C358 0.929 . S
H326 C359 0.931 . S
H327 C361 0.930 . S
H328 C362 0.932 . S
H329 C364 0.931 . S
H330 C365 0.929 . S
H331 C367 0.929 . S
H332 C368 0.931 . S
H333 C370 0.929 . S
N334 C354 1.433 . S
N334 C360 1.435 . S
N334 C366 1.423 . S
H335 C371 0.932 . S
C336 N311 1.433 . S
C336 C337 1.363 . S
C336 C341 1.370 . S
C337 H310 0.929 . S
C337 C336 1.363 . S
C337 C338 1.385 . S
C338 H312 0.930 . S
C338 C337 1.385 . S
C338 C339 1.357 . S
C339 C338 1.357 . S
C339 C340 1.406 . S
C340 H314 0.929 . S
C340 C339 1.406 . S
C340 C341 1.391 . S
C341 H313 0.931 . S
C341 C336 1.370 . S
C341 C340 1.391 . S
C342 N311 1.435 . S
C342 C343 1.358 . S
C342 C347 1.371 . S
C343 H315 0.930 . S
C343 C342 1.358 . S
C343 C344 1.405 . S
C344 H316 0.932 . S
C344 C343 1.405 . S
C344 C345 1.383 . S
C345 C344 1.383 . S
C345 C346 1.393 . S
C346 H318 0.931 . S
C346 C345 1.393 . S
C346 C347 1.382 . S
C347 H317 0.929 . S
C347 C342 1.371 . S
C347 C346 1.382 . S
C348 N311 1.423 . S
C348 C349 1.362 . S
C348 C353 1.388 . S
C349 H319 0.929 . S
C349 C348 1.362 . S
C349 C350 1.376 . S
C350 H321 0.931 . S
C350 C349 1.376 . S
C350 C351 1.396 . S
C351 C350 1.396 . S
C351 C352 1.348 . S
C351 C369 1.472 . S
C352 H322 0.929 . S
C352 C351 1.348 . S
C352 C353 1.443 . S
C353 H320 0.932 . S
C353 C348 1.388 . S
C353 C352 1.443 . S
C354 N334 1.433 . S
C354 C355 1.363 . S
C354 C359 1.370 . S
C355 H323 0.929 . S
C355 C354 1.363 . S
C355 C356 1.385 . S
C356 H324 0.930 . S
C356 C355 1.385 . S
C356 C357 1.357 . S
C357 C356 1.357 . S
C357 C358 1.406 . S
C358 H325 0.929 . S
C358 C357 1.406 . S
C358 C359 1.391 . S
C359 H326 0.931 . S
C359 C354 1.370 . S
C359 C358 1.391 . S
C360 N334 1.435 . S
C360 C361 1.358 . S
C360 C365 1.371 . S
C361 H327 0.930 . S
C361 C360 1.358 . S
C361 C362 1.405 . S
C362 H328 0.932 . S
C362 C361 1.405 . S
C362 C363 1.383 . S
C363 C362 1.383 . S
C363 C364 1.393 . S
C364 H329 0.931 . S
C364 C363 1.393 . S
C364 C365 1.382 . S
C365 H330 0.929 . S
C365 C360 1.371 . S
C365 C364 1.382 . S
C366 N334 1.423 . S
C366 C367 1.362 . S
C366 C371 1.388 . S
C367 H331 0.929 . S
C367 C366 1.362 . S
C367 C368 1.376 . S
C368 H332 0.931 . S
C368 C367 1.376 . S
C368 C369 1.396 . S
C369 C351 1.472 . S
C369 C368 1.396 . S
C369 C370 1.348 . S
C370 H333 0.929 . S
C370 C369 1.348 . S
C370 C371 1.443 . S
C371 H335 0.932 . S
C371 C366 1.388 . S
C371 C370 1.443 . S
C372 O373 1.160 . S
C372 O379 1.185 . S
O373 C372 1.160 . S
O374 Zn375 1.899 . S
O374 C382 1.284 . S
Zn375 O374 1.899 . S
Zn375 O376 2.032 . S
Zn375 O379 2.086 . S
Zn375 O384 1.977 . S
O376 Zn375 2.032 . S
O376 C380 1.278 . S
C377 O378 1.203 . S
C377 O384 1.267 . S
O378 C377 1.203 . S
O379 C372 1.185 . S
O379 Zn375 2.086 . S
C380 O376 1.278 . S
C380 O381 1.211 . S
O381 C380 1.211 . S
C382 O374 1.284 . S
C382 O383 1.273 . S
O383 C382 1.273 . S
O384 Zn375 1.977 . S
O384 C377 1.267 . S
C385 O386 1.160 . S
C385 O392 1.185 . S
O386 C385 1.160 . S
O387 Zn388 1.899 . S
O387 C395 1.284 . S
Zn388 O387 1.899 . S
Zn388 O389 2.032 . S
Zn388 O392 2.086 . S
Zn388 O397 1.977 . S
O389 Zn388 2.032 . S
O389 C393 1.278 . S
C390 O391 1.203 . S
C390 O397 1.267 . S
O391 C390 1.203 . S
O392 C385 1.185 . S
O392 Zn388 2.086 . S
C393 O389 1.278 . S
C393 O394 1.211 . S
O394 C393 1.211 . S
C395 O387 1.284 . S
C395 O396 1.273 . S
O396 C395 1.273 . S
O397 Zn388 1.977 . S
O397 C390 1.267 . S
C398 O399 1.160 . S
C398 O405 1.185 . S
O399 C398 1.160 . S
O400 Zn401 1.899 . S
O400 C408 1.284 . S
Zn401 O400 1.899 . S
Zn401 O402 2.032 . S
Zn401 O405 2.086 . S
Zn401 O410 1.977 . S
O402 Zn401 2.032 . S
O402 C406 1.278 . S
C403 O404 1.203 . S
C403 O410 1.267 . S
O404 C403 1.203 . S
O405 C398 1.185 . S
O405 Zn401 2.086 . S
C406 O402 1.278 . S
C406 O407 1.211 . S
O407 C406 1.211 . S
C408 O400 1.284 . S
C408 O409 1.273 . S
O409 C408 1.273 . S
O410 Zn401 1.977 . S
O410 C403 1.267 . S
C411 O412 1.160 . S
C411 O418 1.185 . S
O412 C411 1.160 . S
O413 Zn414 1.899 . S
O413 C421 1.284 . S
Zn414 O413 1.899 . S
Zn414 O415 2.032 . S
Zn414 O418 2.086 . S
Zn414 O423 1.977 . S
O415 Zn414 2.032 . S
O415 C419 1.278 . S
C416 O417 1.203 . S
C416 O423 1.267 . S
O417 C416 1.203 . S
O418 C411 1.185 . S
O418 Zn414 2.086 . S
C419 O415 1.278 . S
C419 O420 1.211 . S
O420 C419 1.211 . S
C421 O413 1.284 . S
C421 O422 1.273 . S
O422 C421 1.273 . S
O423 Zn414 1.977 . S
O423 C416 1.267 . S
C424 O425 1.160 . S
C424 O431 1.185 . S
O425 C424 1.160 . S
O426 Zn427 1.899 . S
O426 C434 1.284 . S
Zn427 O426 1.899 . S
Zn427 O428 2.032 . S
Zn427 O431 2.086 . S
Zn427 O436 1.977 . S
O428 Zn427 2.032 . S
O428 C432 1.278 . S
C429 O430 1.203 . S
C429 O436 1.267 . S
O430 C429 1.203 . S
O431 C424 1.185 . S
O431 Zn427 2.086 . S
C432 O428 1.278 . S
C432 O433 1.211 . S
O433 C432 1.211 . S
C434 O426 1.284 . S
C434 O435 1.273 . S
O435 C434 1.273 . S
O436 Zn427 1.977 . S
O436 C429 1.267 . S
C437 O438 1.160 . S
C437 O444 1.185 . S
O438 C437 1.160 . S
O439 Zn440 1.899 . S
O439 C447 1.284 . S
Zn440 O439 1.899 . S
Zn440 O441 2.032 . S
Zn440 O444 2.086 . S
Zn440 O449 1.977 . S
O441 Zn440 2.032 . S
O441 C445 1.278 . S
C442 O443 1.203 . S
C442 O449 1.267 . S
O443 C442 1.203 . S
O444 C437 1.185 . S
O444 Zn440 2.086 . S
C445 O441 1.278 . S
C445 O446 1.211 . S
O446 C445 1.211 . S
C447 O439 1.284 . S
C447 O448 1.273 . S
O448 C447 1.273 . S
O449 Zn440 1.977 . S
O449 C442 1.267 . S
C450 C451 1.387 . S
C450 H454 0.950 . S
C450 C459 1.390 . S
C451 C450 1.387 . S
C451 C453 1.387 . S
H452 C459 0.950 . S
C453 C451 1.387 . S
C453 C455 1.390 . S
C453 H457 0.950 . S
H454 C450 0.950 . S
C455 C453 1.390 . S
C455 C456 1.387 . S
C455 H458 0.950 . S
C456 C455 1.387 . S
C456 C459 1.387 . S
H457 C453 0.950 . S
H458 C455 0.950 . S
C459 C450 1.390 . S
C459 H452 0.950 . S
C459 C456 1.387 . S
C460 C461 1.387 . S
C460 H464 0.950 . S
C460 C469 1.390 . S
C461 C460 1.387 . S
C461 C463 1.387 . S
H462 C469 0.950 . S
C463 C461 1.387 . S
C463 C465 1.390 . S
C463 H467 0.950 . S
H464 C460 0.950 . S
C465 C463 1.390 . S
C465 C466 1.387 . S
C465 H468 0.950 . S
C466 C465 1.387 . S
C466 C469 1.387 . S
H467 C463 0.950 . S
H468 C465 0.950 . S
C469 C460 1.390 . S
C469 H462 0.950 . S
C469 C466 1.387 . S
C470 C471 1.387 . S
C470 H474 0.950 . S
C470 C479 1.390 . S
C471 C470 1.387 . S
C471 C473 1.387 . S
H472 C479 0.950 . S
C473 C471 1.387 . S
C473 C475 1.390 . S
C473 H477 0.950 . S
H474 C470 0.950 . S
C475 C473 1.390 . S
C475 C476 1.387 . S
C475 H478 0.950 . S
C476 C475 1.387 . S
C476 C479 1.387 . S
H477 C473 0.950 . S
H478 C475 0.950 . S
C479 C470 1.390 . S
C479 H472 0.950 . S
C479 C476 1.387 . S
C480 C481 1.387 . S
C480 H484 0.950 . S
C480 C489 1.390 . S
C481 C480 1.387 . S
C481 C483 1.387 . S
H482 C489 0.950 . S
C483 C481 1.387 . S
C483 C485 1.390 . S
C483 H487 0.950 . S
H484 C480 0.950 . S
C485 C483 1.390 . S
C485 C486 1.387 . S
C485 H488 0.950 . S
C486 C485 1.387 . S
C486 C489 1.387 . S
H487 C483 0.950 . S
H488 C485 0.950 . S
C489 C480 1.390 . S
C489 H482 0.950 . S
C489 C486 1.387 . S
C490 C491 1.387 . S
C490 H494 0.950 . S
C490 C499 1.390 . S
C491 C490 1.387 . S
C491 C493 1.387 . S
H492 C499 0.950 . S
C493 C491 1.387 . S
C493 C495 1.390 . S
C493 H497 0.950 . S
H494 C490 0.950 . S
C495 C493 1.390 . S
C495 C496 1.387 . S
C495 H498 0.950 . S
C496 C495 1.387 . S
C496 C499 1.387 . S
H497 C493 0.950 . S
H498 C495 0.950 . S
C499 C490 1.390 . S
C499 H492 0.950 . S
C499 C496 1.387 . S
C500 C501 1.387 . S
C500 H504 0.950 . S
C500 C509 1.390 . S
C501 C500 1.387 . S
C501 C503 1.387 . S
H502 C509 0.950 . S
C503 C501 1.387 . S
C503 C505 1.390 . S
C503 H507 0.950 . S
H504 C500 0.950 . S
C505 C503 1.390 . S
C505 C506 1.387 . S
C505 H508 0.950 . S
C506 C505 1.387 . S
C506 C509 1.387 . S
H507 C503 0.950 . S
H508 C505 0.950 . S
C509 C500 1.390 . S
C509 H502 0.950 . S
C509 C506 1.387 . S
C510 C511 1.387 . S
C510 H514 0.950 . S
C510 C519 1.390 . S
C511 C510 1.387 . S
C511 C513 1.387 . S
H512 C519 0.950 . S
C513 C511 1.387 . S
C513 C515 1.390 . S
C513 H517 0.950 . S
H514 C510 0.950 . S
C515 C513 1.390 . S
C515 C516 1.387 . S
C515 H518 0.950 . S
C516 C515 1.387 . S
C516 C519 1.387 . S
H517 C513 0.950 . S
H518 C515 0.950 . S
C519 C510 1.390 . S
C519 H512 0.950 . S
C519 C516 1.387 . S
C520 C521 1.387 . S
C520 H524 0.950 . S
C520 C529 1.390 . S
C521 C520 1.387 . S
C521 C523 1.387 . S
H522 C529 0.950 . S
C523 C521 1.387 . S
C523 C525 1.390 . S
C523 H527 0.950 . S
H524 C520 0.950 . S
C525 C523 1.390 . S
C525 C526 1.387 . S
C525 H528 0.950 . S
C526 C525 1.387 . S
C526 C529 1.387 . S
H527 C523 0.950 . S
H528 C525 0.950 . S
C529 C520 1.390 . S
C529 H522 0.950 . S
C529 C526 1.387 . S
C530 C531 1.387 . S
C530 H534 0.950 . S
C530 C539 1.390 . S
C531 C530 1.387 . S
C531 C533 1.387 . S
H532 C539 0.950 . S
C533 C531 1.387 . S
C533 C535 1.390 . S
C533 H537 0.950 . S
H534 C530 0.950 . S
C535 C533 1.390 . S
C535 C536 1.387 . S
C535 H538 0.950 . S
C536 C535 1.387 . S
C536 C539 1.387 . S
H537 C533 0.950 . S
H538 C535 0.950 . S
C539 C530 1.390 . S
C539 H532 0.950 . S
C539 C536 1.387 . S
C540 C541 1.387 . S
C540 H544 0.950 . S
C540 C549 1.390 . S
C541 C540 1.387 . S
C541 C543 1.387 . S
H542 C549 0.950 . S
C543 C541 1.387 . S
C543 C545 1.390 . S
C543 H547 0.950 1_554 S
H544 C540 0.950 . S
C545 C543 1.390 . S
C545 C546 1.387 . S
C545 H548 0.950 . S
C546 C545 1.387 . S
C546 C549 1.387 . S
H547 C543 0.950 1_556 S
H548 C545 0.950 . S
C549 C540 1.390 . S
C549 H542 0.950 . S
C549 C546 1.387 . S
C550 C551 1.387 . S
C550 H554 0.950 . S
C550 C559 1.390 . S
C551 C550 1.387 . S
C551 C553 1.387 . S
H552 C559 0.950 . S
C553 C551 1.387 . S
C553 C555 1.390 . S
C553 H557 0.950 . S
H554 C550 0.950 . S
C555 C553 1.390 . S
C555 C556 1.387 . S
C555 H558 0.950 . S
C556 C555 1.387 . S
C556 C559 1.387 . S
H557 C553 0.950 . S
H558 C555 0.950 . S
C559 C550 1.390 . S
C559 H552 0.950 . S
C559 C556 1.387 . S
C560 C561 1.387 . S
C560 H564 0.950 . S
C560 C569 1.390 . S
C561 C560 1.387 . S
C561 C563 1.387 . S
H562 C569 0.950 . S
C563 C561 1.387 . S
C563 C565 1.390 . S
C563 H567 0.950 . S
H564 C560 0.950 . S
C565 C563 1.390 . S
C565 C566 1.387 . S
C565 H568 0.950 . S
C566 C565 1.387 . S
C566 C569 1.387 . S
H567 C563 0.950 . S
H568 C565 0.950 . S
C569 C560 1.390 . S
C569 H562 0.950 . S
C569 C566 1.387 . S
C570 C571 1.387 . S
C570 H574 0.950 . S
C570 C579 1.390 . S
C571 C570 1.387 . S
C571 C573 1.387 . S
H572 C579 0.950 . S
C573 C571 1.387 . S
C573 C575 1.390 . S
C573 H577 0.950 . S
H574 C570 0.950 . S
C575 C573 1.390 . S
C575 C576 1.387 . S
C575 H578 0.950 . S
C576 C575 1.387 . S
C576 C579 1.387 . S
H577 C573 0.950 . S
H578 C575 0.950 . S
C579 C570 1.390 . S
C579 H572 0.950 . S
C579 C576 1.387 . S
C580 C581 1.387 . S
C580 H584 0.950 . S
C580 C589 1.390 . S
C581 C580 1.387 . S
C581 C583 1.387 . S
H582 C589 0.950 . S
C583 C581 1.387 . S
C583 C585 1.390 . S
C583 H587 0.950 . S
H584 C580 0.950 . S
C585 C583 1.390 . S
C585 C586 1.387 . S
C585 H588 0.950 . S
C586 C585 1.387 . S
C586 C589 1.387 . S
H587 C583 0.950 . S
H588 C585 0.950 . S
C589 C580 1.390 . S
C589 H582 0.950 . S
C589 C586 1.387 . S
C590 C591 1.387 . S
C590 H594 0.950 . S
C590 C599 1.390 . S
C591 C590 1.387 . S
C591 C593 1.387 . S
H592 C599 0.950 . S
C593 C591 1.387 . S
C593 C595 1.390 . S
C593 H597 0.950 . S
H594 C590 0.950 . S
C595 C593 1.390 . S
C595 C596 1.387 . S
C595 H598 0.950 . S
C596 C595 1.387 . S
C596 C599 1.387 . S
H597 C593 0.950 . S
H598 C595 0.950 . S
C599 C590 1.390 . S
C599 H592 0.950 . S
C599 C596 1.387 . S
C600 C601 1.387 . S
C600 H604 0.950 . S
C600 C609 1.390 . S
C601 C600 1.387 . S
C601 C603 1.387 . S
H602 C609 0.950 . S
C603 C601 1.387 . S
C603 C605 1.390 . S
C603 H607 0.950 . S
H604 C600 0.950 . S
C605 C603 1.390 . S
C605 C606 1.387 . S
C605 H608 0.950 . S
C606 C605 1.387 . S
C606 C609 1.387 . S
H607 C603 0.950 . S
H608 C605 0.950 . S
C609 C600 1.390 . S
C609 H602 0.950 . S
C609 C606 1.387 . S
C610 C611 1.387 . S
C610 H614 0.950 . S
C610 C619 1.390 . S
C611 C610 1.387 . S
C611 C613 1.387 . S
H612 C619 0.950 . S
C613 C611 1.387 . S
C613 C615 1.390 . S
C613 H617 0.950 . S
H614 C610 0.950 . S
C615 C613 1.390 . S
C615 C616 1.387 . S
C615 H618 0.950 . S
C616 C615 1.387 . S
C616 C619 1.387 . S
H617 C613 0.950 . S
H618 C615 0.950 . S
C619 C610 1.390 . S
C619 H612 0.950 . S
C619 C616 1.387 . S
C620 C621 1.387 . S
C620 H624 0.950 . S
C620 C629 1.390 . S
C621 C620 1.387 . S
C621 C623 1.387 . S
H622 C629 0.950 . S
C623 C621 1.387 . S
C623 C625 1.390 . S
C623 H627 0.950 . S
H624 C620 0.950 . S
C625 C623 1.390 . S
C625 C626 1.387 . S
C625 H628 0.950 . S
C626 C625 1.387 . S
C626 C629 1.387 . S
H627 C623 0.950 . S
H628 C625 0.950 . S
C629 C620 1.390 . S
C629 H622 0.950 . S
C629 C626 1.387 . S
C630 C631 1.387 . S
C630 H634 0.950 . S
C630 C639 1.390 . S
C631 C630 1.387 . S
C631 C633 1.387 . S
H632 C639 0.950 . S
C633 C631 1.387 . S
C633 C635 1.390 . S
C633 H637 0.950 . S
H634 C630 0.950 . S
C635 C633 1.390 . S
C635 C636 1.387 . S
C635 H638 0.950 . S
C636 C635 1.387 . S
C636 C639 1.387 . S
H637 C633 0.950 . S
H638 C635 0.950 . S
C639 C630 1.390 . S
C639 H632 0.950 . S
C639 C636 1.387 . S
C640 C641 1.387 . S
C640 H644 0.950 . S
C640 C649 1.390 . S
C641 C640 1.387 . S
C641 C643 1.387 . S
H642 C649 0.950 . S
C643 C641 1.387 . S
C643 C645 1.390 . S
C643 H647 0.950 . S
H644 C640 0.950 . S
C645 C643 1.390 . S
C645 C646 1.387 . S
C645 H648 0.950 . S
C646 C645 1.387 . S
C646 C649 1.387 . S
H647 C643 0.950 . S
H648 C645 0.950 . S
C649 C640 1.390 . S
C649 H642 0.950 . S
C649 C646 1.387 . S
C650 C651 1.387 . S
C650 H654 0.950 . S
C650 C659 1.390 . S
C651 C650 1.387 . S
C651 C653 1.387 . S
H652 C659 0.950 . S
C653 C651 1.387 . S
C653 C655 1.390 . S
C653 H657 0.950 . S
H654 C650 0.950 . S
C655 C653 1.390 . S
C655 C656 1.387 . S
C655 H658 0.950 . S
C656 C655 1.387 . S
C656 C659 1.387 . S
H657 C653 0.950 . S
H658 C655 0.950 . S
C659 C650 1.390 . S
C659 H652 0.950 . S
C659 C656 1.387 . S
C660 C661 1.387 . S
C660 H664 0.950 . S
C660 C669 1.390 . S
C661 C660 1.387 . S
C661 C663 1.387 . S
H662 C669 0.950 . S
C663 C661 1.387 . S
C663 C665 1.390 . S
C663 H667 0.950 . S
H664 C660 0.950 . S
C665 C663 1.390 . S
C665 C666 1.387 . S
C665 H668 0.950 . S
C666 C665 1.387 . S
C666 C669 1.387 . S
H667 C663 0.950 . S
H668 C665 0.950 . S
C669 C660 1.390 . S
C669 H662 0.950 . S
C669 C666 1.387 . S
C670 C671 1.387 . S
C670 H674 0.950 . S
C670 C679 1.390 . S
C671 C670 1.387 . S
C671 C673 1.387 1_556 S
H672 C679 0.950 . S
C673 C671 1.387 1_554 S
C673 C675 1.390 1_554 S
C673 H677 0.950 . S
H674 C670 0.950 . S
C675 C673 1.390 1_556 S
C675 C676 1.387 . S
C675 H678 0.950 . S
C676 C675 1.387 . S
C676 C679 1.387 . S
H677 C673 0.950 . S
H678 C675 0.950 . S
C679 C670 1.390 . S
C679 H672 0.950 . S
C679 C676 1.387 . S
C680 C681 1.387 . S
C680 H684 0.950 . S
C680 C689 1.390 . S
C681 C680 1.387 . S
C681 C683 1.387 . S
H682 C689 0.950 . S
C683 C681 1.387 . S
C683 C685 1.390 . S
C683 H687 0.950 . S
H684 C680 0.950 . S
C685 C683 1.390 . S
C685 C686 1.387 . S
C685 H688 0.950 . S
C686 C685 1.387 . S
C686 C689 1.387 . S
H687 C683 0.950 . S
H688 C685 0.950 . S
C689 C680 1.390 . S
C689 H682 0.950 . S
C689 C686 1.387 . S
C456 C447 1.705 . S
C451 C29 1.624 . S
C461 C115 1.625 . S
C466 C372 1.515 . S
C471 C153 1.610 . S
C476 C395 1.717 . S
C481 C239 1.482 . S
C486 C408 1.494 . S
C496 C411 1.582 . S
C491 C301 1.672 . S
C501 C339 1.748 . S
C506 C424 1.764 . S
C511 C91 1.522 . S
C516 C385 1.538 . S
C521 C177 1.660 . S
C526 C398 1.546 . S
C531 C215 1.469 . S
C536 C421 1.551 . S
C546 C434 1.978 . S
C541 C277 1.853 . S
C556 C437 1.549 . S
C551 C363 1.638 . S
C566 C382 1.649 . S
C561 C53 1.632 . S
C571 C35 1.561 . S
C576 C393 1.557 . S
C581 C109 1.359 . S
C586 C406 1.430 . S
C596 C416 1.437 . S
C591 C159 1.464 . S
C601 C233 1.570 . S
C606 C429 1.660 1_556 S
C616 C445 1.510 . S
C611 C295 1.411 . S
C626 C377 1.328 . S
C621 C345 1.370 . S
C636 C442 1.406 . S
C631 C97 1.426 . S
C641 C171 1.386 . S
C646 C380 1.465 . S
C656 C390 1.516 . S
C651 C221 1.550 . S
C661 C283 1.409 . S
C666 C403 1.364 . S
C671 C357 1.375 1_556 S
C676 C419 1.466 . S
C681 C47 1.586 . S
C686 C432 1.674 . S
