# Generated by pormake.
# Topology rtl, (3,6)-cn, num edge types: 1
# Building blocks:
#     Node 0, Type 0, BuildingBlock: PAMTOO_clean_linker_0, # of connection points: 3
#     Node 1, Type 0, BuildingBlock: PAMTOO_clean_linker_0, # of connection points: 3
#     Node 2, Type 0, BuildingBlock: PAMTOO_clean_linker_0, # of connection points: 3
#     Node 3, Type 0, BuildingBlock: PAMTOO_clean_linker_0, # of connection points: 3
#     Node 4, Type 1, BuildingBlock: FUNLAD_clean_sbu_0, # of connection points: 6
#     Node 5, Type 1, BuildingBlock: FUNLAD_clean_sbu_0, # of connection points: 6
#     Edge 6, Type (0, 1), BuildingBlock: XUDNAN_clean_linker_2, # of connection points: 2
#     Edge 7, Type (0, 1), BuildingBlock: XUDNAN_clean_linker_2, # of connection points: 2
#     Edge 8, Type (0, 1), BuildingBlock: XUDNAN_clean_linker_2, # of connection points: 2
#     Edge 9, Type (0, 1), BuildingBlock: XUDNAN_clean_linker_2, # of connection points: 2
#     Edge 10, Type (0, 1), BuildingBlock: XUDNAN_clean_linker_2, # of connection points: 2
#     Edge 11, Type (0, 1), BuildingBlock: XUDNAN_clean_linker_2, # of connection points: 2
#     Edge 12, Type (0, 1), BuildingBlock: XUDNAN_clean_linker_2, # of connection points: 2
#     Edge 13, Type (0, 1), BuildingBlock: XUDNAN_clean_linker_2, # of connection points: 2
#     Edge 14, Type (0, 1), BuildingBlock: XUDNAN_clean_linker_2, # of connection points: 2
#     Edge 15, Type (0, 1), BuildingBlock: XUDNAN_clean_linker_2, # of connection points: 2
#     Edge 16, Type (0, 1), BuildingBlock: XUDNAN_clean_linker_2, # of connection points: 2
#     Edge 17, Type (0, 1), BuildingBlock: XUDNAN_clean_linker_2, # of connection points: 2
# Relax obj value: 0.003
# Max RMSD: 0.041
# Mean RMSD: 0.031
data_MOF--net-rtl--node1-FUNLAD_clean_sbu_0--node2-PAMTOO_clean_linker_0--edge1-XUDNAN_clean_linker_2
_symmetry_space_group_name_H-M    P1
_symmetry_Int_Tables_number       1
_symmetry_cell_setting            triclinic
loop_
_symmetry_equiv_pos_as_xyz
'x, y, z'
_cell_length_a     40.136141
_cell_length_b     40.070461
_cell_length_c     20.864901
_cell_angle_alpha  92.39676
_cell_angle_beta   91.048765
_cell_angle_gamma 90.001413
loop_
_atom_site_label
_atom_site_type_symbol
_atom_site_fract_x
_atom_site_fract_y
_atom_site_fract_z
_atom_type_partial_charge
H0 H 0.1328 0.88647 0.02104 0.0
H1 H 0.19499 0.81414 0.11257 0.0
H2 H 0.19782 0.82285 0.90849 0.0
H3 H 0.19017 0.7533 0.96755 0.0
C4 C 0.21093 0.75706 0.00331 0.0
O5 O 0.2208 0.79008 0.00612 0.0
H6 H 0.20153 0.75029 0.05089 0.0
C7 C 0.1506 0.86613 0.0179 0.0
C8 C 0.16376 0.85641 0.95808 0.0
C9 C 0.16198 0.85137 0.07412 0.0
C10 C 0.18602 0.82592 0.06974 0.0
C11 C 0.19836 0.81522 0.00999 0.0
C12 C 0.18759 0.83076 0.95438 0.0
H13 H 0.61929 0.63609 0.52915 0.0
H14 H 0.68811 0.69891 0.43351 0.0
H15 H 0.68869 0.69871 0.63869 0.0
H16 H 0.70255 0.7662 0.58369 0.0
C17 C 0.71421 0.75695 0.53836 0.0
O18 O 0.71704 0.72265 0.53876 0.0
H19 H 0.69819 0.7642 0.49716 0.0
C20 C 0.63826 0.6554 0.5312 0.0
C21 C 0.65178 0.66649 0.59098 0.0
C22 C 0.65133 0.66668 0.47391 0.0
C23 C 0.67734 0.69025 0.47708 0.0
C24 C 0.69037 0.70204 0.53641 0.0
C25 C 0.67765 0.69019 0.59312 0.0
H26 H 0.89225 0.11861 0.02055 0.0
H27 H 0.83316 0.19338 0.92899 0.0
H28 H 0.82353 0.17914 0.13057 0.0
H29 H 0.7592 0.19531 0.06316 0.0
C30 C 0.76966 0.20875 0.02249 0.0
O31 O 0.80329 0.21395 0.03373 0.0
H32 H 0.76557 0.19321 0.97757 0.0
C33 C 0.87355 0.13814 0.02301 0.0
C34 C 0.85912 0.14687 0.08208 0.0
C35 C 0.8642 0.15449 0.96728 0.0
C36 C 0.84052 0.18026 0.97136 0.0
C37 C 0.8257 0.18885 0.03006 0.0
C38 C 0.83483 0.17205 0.08523 0.0
H39 H 0.38695 0.39321 0.49709 0.0
H40 H 0.32218 0.328 0.59647 0.0
H41 H 0.31597 0.33067 0.3913 0.0
H42 H 0.25175 0.33529 0.47192 0.0
C43 C 0.25815 0.31362 0.50156 0.0
O44 O 0.29097 0.3046 0.49292 0.0
H45 H 0.2544 0.32142 0.55271 0.0
C46 C 0.36649 0.3755 0.49622 0.0
C47 C 0.35268 0.36377 0.43717 0.0
C48 C 0.35591 0.36248 0.55387 0.0
C49 C 0.33052 0.33836 0.55236 0.0
C50 C 0.31566 0.32755 0.49392 0.0
C51 C 0.32696 0.33994 0.43643 0.0
C52 C 0.05083 0.96771 0.43133 0.0
N53 N 0.06689 0.06526 0.5044 0.0
C54 C 0.10047 0.06065 0.50854 0.0
C55 C 0.12224 0.08729 0.49945 0.0
C56 C 0.10924 0.11867 0.48497 0.0
C57 C 0.07456 0.12275 0.48174 0.0
C58 C 0.05378 0.09571 0.49211 0.0
Zn59 Zn 0.03423 0.02647 0.51438 0.0
C60 C 0.97574 0.03111 0.42496 0.0
N61 N 0.96366 0.94755 0.53416 0.0
C62 C 0.97364 0.91507 0.53226 0.0
C63 C 0.93081 0.95573 0.53775 0.0
C64 C 0.9065 0.93085 0.53814 0.0
C65 C 0.91596 0.89709 0.53449 0.0
C66 C 0.9501 0.88933 0.53224 0.0
Zn67 Zn 0.99759 0.98535 0.52592 0.0
O68 O 0.06109 0.99661 0.44936 0.0
C69 C 0.05548 0.98019 0.61576 0.0
O70 O 0.02383 0.95651 0.45334 0.0
H71 H 0.92332 0.98167 0.53868 0.0
H72 H 0.1104 0.03625 0.51823 0.0
H73 H 0.99987 0.9091 0.5295 0.0
O74 O 0.06382 0.00716 0.5901 0.0
O75 O 0.02862 0.96547 0.59774 0.0
H76 H 0.02706 0.09906 0.48983 0.0
O77 O 0.97268 0.01501 0.59761 0.0
O78 O 0.00706 0.05616 0.5805 0.0
O79 O 0.96676 0.00584 0.45496 0.0
O80 O 1.00392 0.04442 0.43807 0.0
C81 C 0.98208 0.045 0.6093 0.0
H82 H 0.1489 0.08322 0.50217 0.0
H83 H 0.0636 0.14671 0.4716 0.0
H84 H 0.88049 0.93801 0.53904 0.0
H85 H 0.9585 0.86363 0.53007 0.0
C86 C 0.481 0.46794 0.91624 0.0
N87 N 0.56985 0.4513 0.01614 0.0
C88 C 0.56206 0.41821 0.01389 0.0
C89 C 0.58721 0.39413 0.01215 0.0
C90 C 0.62075 0.40415 0.01246 0.0
C91 C 0.62808 0.43847 0.01562 0.0
C92 C 0.60214 0.46171 0.01753 0.0
Zn93 Zn 0.53225 0.48586 0.01454 0.0
C94 C 0.54731 0.54044 0.92683 0.0
N95 N 0.45387 0.55856 0.01043 0.0
C96 C 0.42248 0.54651 0.9995 0.0
C97 C 0.45983 0.59204 0.01561 0.0
C98 C 0.43367 0.6148 0.00829 0.0
C99 C 0.40135 0.60286 0.99438 0.0
C100 C 0.39585 0.56828 0.99072 0.0
Zn101 Zn 0.49209 0.52452 0.01373 0.0
O102 O 0.50824 0.45787 0.94035 0.0
C103 C 0.47745 0.46942 0.10128 0.0
O104 O 0.46863 0.4955 0.93669 0.0
H105 H 0.48497 0.60112 0.02406 0.0
H106 H 0.53625 0.41042 0.01253 0.0
H107 H 0.41813 0.51986 0.99625 0.0
O108 O 0.50541 0.45905 0.08108 0.0
O109 O 0.46571 0.49685 0.0822 0.0
H110 H 0.60783 0.48812 0.01951 0.0
O111 O 0.5168 0.55264 0.09047 0.0
O112 O 0.55602 0.51428 0.08861 0.0
O113 O 0.51921 0.55148 0.94535 0.0
O114 O 0.55839 0.51321 0.94782 0.0
C115 C 0.54455 0.54173 0.11148 0.0
H116 H 0.58042 0.36795 0.00897 0.0
H117 H 0.6536 0.44728 0.01675 0.0
H118 H 0.4388 0.64137 0.01126 0.0
H119 H 0.37116 0.55819 0.98076 0.0
H120 H 0.24843 0.25708 0.56869 0.0
H121 H 0.21774 0.30474 0.39455 0.0
H122 H 0.17868 0.25819 0.36819 0.0
H123 H 0.24356 0.17065 0.50196 0.0
H124 H 0.22806 0.15459 0.57514 0.0
H125 H 0.25504 0.19061 0.57823 0.0
H126 H 0.21077 0.22437 0.64239 0.0
H127 H 0.18368 0.18852 0.63943 0.0
H128 H 0.16904 0.22762 0.6098 0.0
H129 H 0.14005 0.20913 0.3653 0.0
H130 H 0.1056 0.15945 0.38384 0.0
H131 H 0.16224 0.14245 0.55844 0.0
C132 C 0.23365 0.2574 0.52476 0.0
C133 C 0.23573 0.28448 0.48382 0.0
C134 C 0.21624 0.28425 0.42662 0.0
C135 C 0.19409 0.25793 0.41126 0.0
C136 C 0.19212 0.23187 0.45324 0.0
C137 C 0.21155 0.23121 0.50856 0.0
C138 C 0.20386 0.20073 0.54638 0.0
C139 C 0.23445 0.17779 0.55065 0.0
C140 C 0.19107 0.21093 0.61346 0.0
C141 C 0.17655 0.18476 0.50441 0.0
C142 C 0.17026 0.2031 0.45084 0.0
C143 C 0.14499 0.19435 0.40666 0.0
C144 C 0.12548 0.16623 0.41771 0.0
C145 C 0.13142 0.14712 0.47234 0.0
C146 C 0.15756 0.15634 0.51576 0.0
H147 H 0.26751 0.74561 0.07525 0.0
H148 H 0.21901 0.71796 0.89342 0.0
H149 H 0.26435 0.67793 0.86882 0.0
H150 H 0.35383 0.73892 0.01757 0.0
H151 H 0.36932 0.72212 0.09116 0.0
H152 H 0.33428 0.75026 0.09248 0.0
H153 H 0.29923 0.70631 0.14909 0.0
H154 H 0.33406 0.67802 0.14775 0.0
H155 H 0.29458 0.66495 0.11258 0.0
H156 H 0.31181 0.63761 0.86832 0.0
H157 H 0.36017 0.60122 0.88947 0.0
H158 H 0.37952 0.65599 0.06993 0.0
C159 C 0.26685 0.73142 0.02991 0.0
C160 C 0.23988 0.73473 0.98616 0.0
C161 C 0.2395 0.71572 0.92745 0.0
C162 C 0.26513 0.69298 0.91311 0.0
C163 C 0.29109 0.68984 0.95771 0.0
C164 C 0.29237 0.70873 0.01467 0.0
C165 C 0.32253 0.69964 0.05519 0.0
C166 C 0.34641 0.72952 0.06464 0.0
C167 C 0.31195 0.68644 0.11997 0.0
C168 C 0.33759 0.67218 0.01275 0.0
C169 C 0.31904 0.66699 0.95672 0.0
C170 C 0.32679 0.64172 0.91157 0.0
C171 C 0.35415 0.62112 0.92408 0.0
C172 C 0.37355 0.62601 0.98104 0.0
C173 C 0.36536 0.65212 0.02556 0.0
H174 H 0.74059 0.81234 0.60355 0.0
H175 H 0.76334 0.73733 0.45504 0.0
H176 H 0.81857 0.76333 0.44143 0.0
H177 H 0.77827 0.88055 0.52742 0.0
H178 H 0.79367 0.90057 0.60107 0.0
H179 H 0.75678 0.87501 0.60137 0.0
H180 H 0.78386 0.83893 0.68842 0.0
H181 H 0.82085 0.86439 0.68836 0.0
H182 H 0.82384 0.81983 0.67401 0.0
H183 H 0.87092 0.79804 0.44315 0.0
H184 H 0.91529 0.84065 0.45563 0.0
H185 H 0.85803 0.89345 0.60231 0.0
C186 C 0.75741 0.80121 0.56875 0.0
C187 C 0.74816 0.77235 0.53146 0.0
C188 C 0.77036 0.759 0.48504 0.0
C189 C 0.8017 0.77361 0.47697 0.0
C190 C 0.81026 0.8018 0.51513 0.0
C191 C 0.78869 0.81559 0.55984 0.0
C192 C 0.80338 0.84677 0.59283 0.0
C193 C 0.78173 0.87754 0.57987 0.0
C194 C 0.80828 0.84219 0.66519 0.0
C195 C 0.83649 0.84847 0.55945 0.0
C196 C 0.84009 0.82217 0.51516 0.0
C197 C 0.86844 0.81866 0.47792 0.0
C198 C 0.89362 0.84287 0.48565 0.0
C199 C 0.89022 0.87036 0.53005 0.0
C200 C 0.8613 0.87289 0.56766 0.0
H201 H 0.71228 0.23158 0.08009 0.0
H202 H 0.78744 0.25929 0.9455 0.0
H203 H 0.75853 0.31309 0.93042 0.0
H204 H 0.64296 0.26593 0.99523 0.0
H205 H 0.62155 0.2799 0.06663 0.0
H206 H 0.64887 0.2443 0.06864 0.0
H207 H 0.68261 0.2728 0.16287 0.0
H208 H 0.65535 0.30848 0.1612 0.0
H209 H 0.69968 0.31393 0.15395 0.0
H210 H 0.72112 0.36347 0.92958 0.0
H211 H 0.67681 0.40604 0.93969 0.0
H212 H 0.62577 0.34507 0.07433 0.0
C213 C 0.72276 0.24916 0.04795 0.0
C214 C 0.75241 0.24175 0.01488 0.0
C215 C 0.76505 0.26493 0.97206 0.0
C216 C 0.7488 0.29542 0.96318 0.0
C217 C 0.71976 0.30214 0.997 0.0
C218 C 0.70676 0.27962 0.03832 0.0
C219 C 0.67468 0.29248 0.06738 0.0
C220 C 0.64528 0.26927 0.0483 0.0
C221 C 0.67831 0.29721 0.1407 0.0
C222 C 0.67159 0.3257 0.03582 0.0
C223 C 0.69793 0.33089 0.99567 0.0
C224 C 0.70043 0.35974 0.96106 0.0
C225 C 0.67525 0.38386 0.96741 0.0
C226 C 0.64785 0.37894 0.00787 0.0
C227 C 0.64621 0.34945 0.04258 0.0
H228 H 0.09767 0.86337 0.11179 0.0
H229 H 0.20059 0.86955 0.17837 0.0
H230 H 0.18249 0.89625 0.2807 0.0
H231 H 0.07168 0.94097 0.17589 0.0
H232 H 0.03104 0.92737 0.19937 0.0
H233 H 0.05162 0.90613 0.1335 0.0
H234 H 0.0461 0.84991 0.18937 0.0
H235 H 0.02535 0.87097 0.25543 0.0
H236 H 0.06209 0.84637 0.27011 0.0
H237 H 0.15443 0.92831 0.36861 0.0
H238 H 0.11735 0.95989 0.4422 0.0
H239 H 0.03175 0.93004 0.32361 0.0
C240 C 0.11627 0.86994 0.14841 0.0
C241 C 0.15052 0.86433 0.13748 0.0
C242 C 0.17422 0.87326 0.18625 0.0
C243 C 0.16418 0.88852 0.24434 0.0
C244 C 0.13031 0.89418 0.25326 0.0
C245 C 0.10661 0.88475 0.20717 0.0
C246 C 0.07189 0.89465 0.22838 0.0
C247 C 0.05562 0.91871 0.1815 0.0
C248 C 0.05007 0.86362 0.2363 0.0
C249 C 0.07993 0.91209 0.29269 0.0
C250 C 0.11383 0.91153 0.30588 0.0
C251 C 0.1278 0.92832 0.35959 0.0
C252 C 0.10661 0.94627 0.40087 0.0
C253 C 0.07183 0.94688 0.38875 0.0
C254 C 0.05822 0.92922 0.3345 0.0
H255 H 0.58832 0.6546 0.63267 0.0
H256 H 0.69282 0.64062 0.68137 0.0
H257 H 0.67709 0.60881 0.77489 0.0
H258 H 0.5597 0.66398 0.79938 0.0
H259 H 0.52125 0.6419 0.78191 0.0
H260 H 0.54062 0.66519 0.7206 0.0
H261 H 0.54095 0.61206 0.64546 0.0
H262 H 0.52178 0.58857 0.70661 0.0
H263 H 0.56059 0.5746 0.67263 0.0
H264 H 0.65068 0.57408 0.85568 0.0
H265 H 0.61477 0.54255 0.92638 0.0
H266 H 0.52689 0.58127 0.83072 0.0
C267 C 0.6078 0.64516 0.66361 0.0
C268 C 0.64179 0.65022 0.65017 0.0
C269 C 0.66665 0.63747 0.69146 0.0
C270 C 0.65797 0.61921 0.74442 0.0
C271 C 0.62431 0.61428 0.75591 0.0
C272 C 0.59955 0.62725 0.71738 0.0
C273 C 0.56526 0.61784 0.74023 0.0
C274 C 0.54555 0.64909 0.76182 0.0
C275 C 0.54602 0.59703 0.68813 0.0
C276 C 0.5747 0.59698 0.79676 0.0
C277 C 0.60892 0.59514 0.80454 0.0
C278 C 0.62385 0.57572 0.85078 0.0
C279 C 0.60327 0.55777 0.89041 0.0
C280 C 0.56815 0.55972 0.88416 0.0
C281 C 0.55369 0.57978 0.83703 0.0
H282 H 0.92261 0.14007 0.12831 0.0
H283 H 0.81997 0.11471 0.16561 0.0
H284 H 0.8387 0.08218 0.25811 0.0
H285 H 0.9589 0.06247 0.16585 0.0
H286 H 0.99572 0.08045 0.20411 0.0
H287 H 0.97418 0.10234 0.14216 0.0
H288 H 0.96815 0.15427 0.21939 0.0
H289 H 0.9899 0.13262 0.28148 0.0
H290 H 0.94912 0.14982 0.29617 0.0
H291 H 0.86911 0.04933 0.34104 0.0
H292 H 0.90835 0.02304 0.41617 0.0
H293 H 0.99103 0.07254 0.3282 0.0
C294 C 0.90413 0.12779 0.15632 0.0
C295 C 0.8699 0.12964 0.14011 0.0
C296 C 0.84629 0.1136 0.17779 0.0
C297 C 0.85671 0.09501 0.23003 0.0
C298 C 0.89075 0.09323 0.24421 0.0
C299 C 0.91406 0.10962 0.20908 0.0
C300 C 0.94908 0.10405 0.23468 0.0
C301 C 0.97073 0.08626 0.18365 0.0
C302 C 0.96499 0.13716 0.25941 0.0
C303 C 0.94191 0.08153 0.2892 0.0
C304 C 0.90814 0.07538 0.29354 0.0
C305 C 0.89556 0.05424 0.33855 0.0
C306 C 0.91806 0.0393 0.38074 0.0
C307 C 0.95269 0.04587 0.37808 0.0
C308 C 0.96467 0.06728 0.33165 0.0
H309 H 0.36628 0.42562 0.6061 0.0
H310 H 0.38541 0.32102 0.63758 0.0
H311 H 0.41871 0.33678 0.73507 0.0
H312 H 0.44549 0.457 0.65584 0.0
H313 H 0.42993 0.49442 0.69582 0.0
H314 H 0.40665 0.47503 0.62972 0.0
H315 H 0.35478 0.47113 0.70117 0.0
H316 H 0.37784 0.49072 0.76744 0.0
H317 H 0.35822 0.45076 0.77643 0.0
H318 H 0.45364 0.36384 0.82264 0.0
H319 H 0.48353 0.40033 0.90269 0.0
H320 H 0.43872 0.48755 0.81974 0.0
C321 C 0.37727 0.40613 0.63406 0.0
C322 C 0.37338 0.37213 0.61477 0.0
C323 C 0.38795 0.34717 0.65219 0.0
C324 C 0.40698 0.35589 0.70731 0.0
C325 C 0.41069 0.38965 0.72473 0.0
C326 C 0.39583 0.41439 0.68994 0.0
C327 C 0.40364 0.44877 0.71952 0.0
C328 C 0.42256 0.47005 0.67241 0.0
C329 C 0.37172 0.46638 0.74252 0.0
C330 C 0.42578 0.43949 0.77561 0.0
C331 C 0.4297 0.40525 0.7773 0.0
C332 C 0.45041 0.39065 0.82243 0.0
C333 C 0.46741 0.41157 0.8674 0.0
C334 C 0.46322 0.44667 0.86748 0.0
C335 C 0.442 0.46076 0.82115 0.0
H336 H 0.58735 0.65415 0.42871 0.0
H337 H 0.69135 0.64243 0.37901 0.0
H338 H 0.67469 0.61178 0.2787 0.0
H339 H 0.56038 0.57423 0.37175 0.0
H340 H 0.5208 0.58782 0.34003 0.0
H341 H 0.54048 0.61092 0.40625 0.0
H342 H 0.53802 0.66486 0.34208 0.0
H343 H 0.51817 0.64195 0.2757 0.0
H344 H 0.55594 0.66498 0.26349 0.0
H345 H 0.64782 0.57787 0.19058 0.0
H346 H 0.61164 0.54611 0.11331 0.0
H347 H 0.52422 0.58162 0.21468 0.0
C348 C 0.60652 0.64544 0.39621 0.0
C349 C 0.64065 0.65087 0.41134 0.0
C350 C 0.66508 0.63906 0.36786 0.0
C351 C 0.65587 0.62145 0.31095 0.0
C352 C 0.62211 0.61617 0.29781 0.0
C353 C 0.59772 0.62813 0.33858 0.0
C354 C 0.56324 0.61831 0.31318 0.0
C355 C 0.54517 0.59652 0.36063 0.0
C356 C 0.54263 0.64938 0.29769 0.0
C357 C 0.5722 0.59834 0.25255 0.0
C358 C 0.60635 0.59739 0.24502 0.0
C359 C 0.62103 0.57883 0.1953 0.0
C360 C 0.60029 0.56074 0.15193 0.0
C361 C 0.56523 0.56165 0.15796 0.0
C362 C 0.55095 0.58097 0.20856 0.0
H363 H 0.87268 0.09132 0.91547 0.0
H364 H 0.89127 0.19558 0.88061 0.0
H365 H 0.92133 0.17887 0.78186 0.0
H366 H 0.9507 0.06041 0.86671 0.0
H367 H 0.93468 0.02221 0.82925 0.0
H368 H 0.91268 0.04243 0.89448 0.0
H369 H 0.85915 0.04453 0.82341 0.0
H370 H 0.88094 0.02415 0.75796 0.0
H371 H 0.86062 0.06366 0.74682 0.0
H372 H 0.95357 0.15062 0.6932 0.0
H373 H 0.98259 0.11305 0.61591 0.0
H374 H 0.94132 0.02705 0.70641 0.0
C375 C 0.88287 0.11061 0.8867 0.0
C376 C 0.87976 0.14474 0.9055 0.0
C377 C 0.89317 0.16933 0.86659 0.0
C378 C 0.91036 0.16006 0.81068 0.0
C379 C 0.9135 0.12614 0.79414 0.0
C380 C 0.89978 0.10181 0.83055 0.0
C381 C 0.90731 0.0671 0.80302 0.0
C382 C 0.92755 0.04686 0.85124 0.0
C383 C 0.87508 0.04879 0.78151 0.0
C384 C 0.92803 0.07568 0.74611 0.0
C385 C 0.93133 0.10987 0.74194 0.0
C386 C 0.9508 0.12383 0.69545 0.0
C387 C 0.96731 0.10228 0.652 0.0
C388 C 0.96403 0.06717 0.65504 0.0
C389 C 0.94391 0.05379 0.70247 0.0
H390 H 0.36514 0.42741 0.39969 0.0
H391 H 0.37486 0.32298 0.33973 0.0
H392 H 0.40593 0.33903 0.24461 0.0
H393 H 0.35461 0.45859 0.23585 0.0
H394 H 0.37785 0.49626 0.25533 0.0
H395 H 0.35453 0.47664 0.31646 0.0
H396 H 0.40805 0.47389 0.38738 0.0
H397 H 0.43159 0.4932 0.32632 0.0
H398 H 0.44459 0.45347 0.35557 0.0
H399 H 0.44148 0.36569 0.16441 0.0
H400 H 0.47384 0.40189 0.09552 0.0
H401 H 0.43782 0.48959 0.20168 0.0
C402 C 0.37338 0.40805 0.36583 0.0
C403 C 0.36757 0.37397 0.37665 0.0
C404 C 0.37873 0.34922 0.33169 0.0
C405 C 0.39652 0.35809 0.27782 0.0
C406 C 0.40242 0.39185 0.26913 0.0
C407 C 0.39066 0.41652 0.3111 0.0
C408 C 0.40087 0.45091 0.29087 0.0
C409 C 0.37013 0.47183 0.27359 0.0
C410 C 0.42257 0.46891 0.34315 0.0
C411 C 0.42094 0.44164 0.23195 0.0
C412 C 0.42168 0.40739 0.22065 0.0
C413 C 0.44058 0.39255 0.17196 0.0
C414 C 0.45901 0.41326 0.13341 0.0
C415 C 0.458 0.44841 0.14314 0.0
C416 C 0.43852 0.46278 0.19272 0.0
H417 H 0.10082 0.86628 0.91 0.0
H418 H 0.20478 0.88819 0.87787 0.0
H419 H 0.18845 0.92313 0.7873 0.0
H420 H 0.07623 0.86014 0.7406 0.0
H421 H 0.03588 0.87854 0.75442 0.0
H422 H 0.056 0.8552 0.81607 0.0
H423 H 0.05072 0.9062 0.8958 0.0
H424 H 0.03087 0.9298 0.83424 0.0
H425 H 0.06777 0.94589 0.87524 0.0
H426 H 0.16032 0.95887 0.70556 0.0
H427 H 0.12296 0.98721 0.62945 0.0
H428 H 0.03765 0.93879 0.71034 0.0
C429 C 0.12007 0.87826 0.88341 0.0
C430 C 0.15402 0.87469 0.90056 0.0
C431 C 0.17866 0.89053 0.86486 0.0
C432 C 0.1696 0.91053 0.81376 0.0
C433 C 0.13585 0.91396 0.79853 0.0
C434 C 0.11149 0.89778 0.83154 0.0
C435 C 0.07707 0.905 0.80463 0.0
C436 C 0.06032 0.8728 0.77729 0.0
C437 C 0.05534 0.92278 0.85552 0.0
C438 C 0.08581 0.9281 0.75185 0.0
C439 C 0.1198 0.93329 0.7496 0.0
C440 C 0.1337 0.95472 0.7064 0.0
C441 C 0.1123 0.97085 0.66368 0.0
C442 C 0.07751 0.96503 0.66392 0.0
C443 C 0.0642 0.94345 0.70876 0.0
loop_
_geom_bond_atom_site_label_1
_geom_bond_atom_site_label_2
_geom_bond_distance
_geom_bond_site_symmetry_2
_ccdc_geom_bond_type
H0 C7 0.929 . S
H1 C10 0.930 . S
H2 C12 0.929 . S
H3 C4 0.969 . S
C4 H3 0.969 . S
C4 O5 1.550 1_554 S
C4 H6 0.973 . S
O5 C4 1.550 1_556 S
O5 C11 1.411 1_556 S
H6 C4 0.973 . S
C7 H0 0.929 . S
C7 C8 1.400 1_554 S
C7 C9 1.364 . S
C8 C7 1.400 1_556 S
C8 C12 1.377 . S
C9 C7 1.364 . S
C9 C10 1.374 . S
C10 H1 0.930 . S
C10 C9 1.374 . S
C10 C11 1.388 . S
C11 O5 1.411 1_554 S
C11 C10 1.388 . S
C11 C12 1.390 1_554 S
C12 H2 0.929 . S
C12 C8 1.377 . S
C12 C11 1.390 1_556 S
H13 C20 0.929 . S
H14 C23 0.930 . S
H15 C25 0.929 . S
H16 C17 0.969 . S
C17 H16 0.969 . S
C17 O18 1.550 . S
C17 H19 0.973 . S
O18 C17 1.550 . S
O18 C24 1.412 . S
H19 C17 0.973 . S
C20 H13 0.929 . S
C20 C21 1.400 . S
C20 C22 1.364 . S
C21 C20 1.400 . S
C21 C25 1.377 . S
C22 C20 1.364 . S
C22 C23 1.374 . S
C23 H14 0.930 . S
C23 C22 1.374 . S
C23 C24 1.383 . S
C24 O18 1.412 . S
C24 C23 1.383 . S
C24 C25 1.394 . S
C25 H15 0.929 . S
C25 C21 1.377 . S
C25 C24 1.394 . S
H26 C33 0.929 . S
H27 C36 0.930 . S
H28 C38 0.929 . S
H29 C30 0.969 . S
C30 H29 0.969 . S
C30 O31 1.550 1_556 S
C30 H32 0.973 . S
O31 C30 1.550 1_554 S
O31 C37 1.412 . S
H32 C30 0.973 . S
C33 H26 0.929 . S
C33 C34 1.400 . S
C33 C35 1.364 1_554 S
C34 C33 1.400 . S
C34 C38 1.377 . S
C35 C33 1.364 1_556 S
C35 C36 1.374 . S
C36 H27 0.930 . S
C36 C35 1.374 . S
C36 C37 1.383 1_556 S
C37 O31 1.412 . S
C37 C36 1.383 1_554 S
C37 C38 1.394 . S
C38 H28 0.929 . S
C38 C34 1.377 . S
C38 C37 1.394 . S
H39 C46 0.929 . S
H40 C49 0.930 . S
H41 C51 0.929 . S
H42 C43 0.969 . S
C43 H42 0.969 . S
C43 O44 1.550 . S
C43 H45 0.973 . S
O44 C43 1.550 . S
O44 C50 1.412 . S
H45 C43 0.973 . S
C46 H39 0.929 . S
C46 C47 1.400 . S
C46 C48 1.364 . S
C47 C46 1.400 . S
C47 C51 1.377 . S
C48 C46 1.364 . S
C48 C49 1.374 . S
C49 H40 0.930 . S
C49 C48 1.374 . S
C49 C50 1.383 . S
C50 O44 1.412 . S
C50 C49 1.383 . S
C50 C51 1.394 . S
C51 H41 0.929 . S
C51 C47 1.377 . S
C51 C50 1.394 . S
C52 O68 1.251 . S
C52 O70 1.254 . S
N53 C54 1.333 . S
N53 C58 1.307 . S
N53 Zn59 2.020 . S
C54 N53 1.333 . S
C54 C55 1.379 . S
C54 H72 0.952 . S
C55 C54 1.379 . S
C55 C56 1.390 . S
C55 H82 0.949 . S
C56 C55 1.390 . S
C56 C57 1.357 . S
C57 C56 1.357 . S
C57 C58 1.370 . S
C57 H83 0.950 . S
C58 N53 1.307 . S
C58 C57 1.370 . S
C58 H76 0.948 . S
Zn59 N53 2.020 . S
Zn59 O68 2.039 1_545 S
Zn59 O74 2.034 1_545 S
Zn59 O78 2.025 1_455 S
Zn59 O80 2.024 1_455 S
C60 O79 1.246 . S
C60 O80 1.249 . S
N61 C62 1.307 . S
N61 C63 1.333 . S
N61 Zn67 2.020 . S
C62 N61 1.307 . S
C62 C66 1.370 . S
C62 H73 0.948 . S
C63 N61 1.333 . S
C63 C64 1.379 . S
C63 H71 0.952 . S
C64 C63 1.379 . S
C64 C65 1.390 . S
C64 H84 0.949 . S
C65 C64 1.390 . S
C65 C66 1.357 . S
C66 C62 1.370 . S
C66 C65 1.357 . S
C66 H85 0.950 . S
Zn67 N61 2.020 . S
Zn67 O70 2.025 1_655 S
Zn67 O75 2.024 1_655 S
Zn67 O77 2.039 1_565 S
Zn67 O79 2.034 1_565 S
O68 C52 1.251 . S
O68 Zn59 2.039 1_565 S
C69 O74 1.246 . S
C69 O75 1.249 . S
O70 C52 1.254 . S
O70 Zn67 2.025 1_455 S
H71 C63 0.952 . S
H72 C54 0.952 . S
H73 C62 0.948 . S
O74 Zn59 2.034 1_565 S
O74 C69 1.246 . S
O75 Zn67 2.024 1_455 S
O75 C69 1.249 . S
H76 C58 0.948 . S
O77 Zn67 2.039 1_545 S
O77 C81 1.251 . S
O78 Zn59 2.025 1_655 S
O78 C81 1.254 . S
O79 C60 1.246 . S
O79 Zn67 2.034 1_545 S
O80 Zn59 2.024 1_655 S
O80 C60 1.249 . S
C81 O77 1.251 . S
C81 O78 1.254 . S
H82 C55 0.949 . S
H83 C57 0.950 . S
H84 C64 0.949 . S
H85 C66 0.950 . S
C86 O102 1.251 . S
C86 O104 1.254 . S
N87 C88 1.333 1_554 S
N87 C92 1.307 . S
N87 Zn93 2.020 . S
C88 N87 1.333 1_556 S
C88 C89 1.379 . S
C88 H106 0.952 . S
C89 C88 1.379 . S
C89 C90 1.390 1_556 S
C89 H116 0.949 . S
C90 C89 1.390 1_554 S
C90 C91 1.357 . S
C91 C90 1.357 . S
C91 C92 1.370 . S
C91 H117 0.950 . S
C92 N87 1.307 . S
C92 C91 1.370 . S
C92 H110 0.948 . S
Zn93 N87 2.020 . S
Zn93 O102 2.039 1_554 S
Zn93 O108 2.034 . S
Zn93 O112 2.025 . S
Zn93 O114 2.024 1_554 S
C94 O113 1.246 . S
C94 O114 1.249 . S
N95 C96 1.307 1_554 S
N95 C97 1.333 . S
N95 Zn101 2.020 . S
C96 N95 1.307 1_556 S
C96 C100 1.370 . S
C96 H107 0.948 . S
C97 N95 1.333 . S
C97 C98 1.379 . S
C97 H105 0.952 . S
C98 C97 1.379 . S
C98 C99 1.390 . S
C98 H118 0.949 . S
C99 C98 1.390 . S
C99 C100 1.353 1_554 S
C100 C96 1.370 . S
C100 C99 1.353 1_556 S
C100 H119 0.954 . S
Zn101 N95 2.020 . S
Zn101 O104 2.025 1_554 S
Zn101 O109 2.024 . S
Zn101 O111 2.039 . S
Zn101 O113 2.034 1_554 S
O102 C86 1.251 . S
O102 Zn93 2.039 1_556 S
C103 O108 1.246 . S
C103 O109 1.249 . S
O104 C86 1.254 . S
O104 Zn101 2.025 1_556 S
H105 C97 0.952 . S
H106 C88 0.952 . S
H107 C96 0.948 . S
O108 Zn93 2.034 . S
O108 C103 1.246 . S
O109 Zn101 2.024 . S
O109 C103 1.249 . S
H110 C92 0.948 . S
O111 Zn101 2.039 . S
O111 C115 1.251 . S
O112 Zn93 2.025 . S
O112 C115 1.254 . S
O113 C94 1.246 . S
O113 Zn101 2.034 1_556 S
O114 Zn93 2.024 1_556 S
O114 C94 1.249 . S
C115 O111 1.251 . S
C115 O112 1.254 . S
H116 C89 0.949 . S
H117 C91 0.950 . S
H118 C98 0.949 . S
H119 C100 0.954 . S
H120 C132 0.930 . S
H121 C134 0.930 . S
H122 C135 0.930 . S
H123 C139 0.959 . S
H124 C139 0.959 . S
H125 C139 0.961 . S
H126 C140 0.960 . S
H127 C140 0.961 . S
H128 C140 0.959 . S
H129 C143 0.929 . S
H130 C144 0.931 . S
H131 C146 0.930 . S
C132 H120 0.930 . S
C132 C133 1.399 . S
C132 C137 1.399 . S
C133 C132 1.399 . S
C133 C134 1.376 . S
C134 H121 0.930 . S
C134 C133 1.376 . S
C134 C135 1.388 . S
C135 H122 0.930 . S
C135 C134 1.388 . S
C135 C136 1.390 . S
C136 C135 1.390 . S
C136 C137 1.394 . S
C136 C142 1.465 . S
C137 C132 1.399 . S
C137 C136 1.394 . S
C137 C138 1.516 . S
C138 C137 1.516 . S
C138 C139 1.502 . S
C138 C140 1.561 . S
C138 C141 1.526 . S
C139 H123 0.959 . S
C139 H124 0.959 . S
C139 H125 0.961 . S
C139 C138 1.502 . S
C140 H126 0.960 . S
C140 H127 0.961 . S
C140 H128 0.959 . S
C140 C138 1.561 . S
C141 C138 1.526 . S
C141 C142 1.396 . S
C141 C146 1.390 . S
C142 C136 1.465 . S
C142 C141 1.396 . S
C142 C143 1.399 . S
C143 H129 0.929 . S
C143 C142 1.399 . S
C143 C144 1.385 . S
C144 H130 0.931 . S
C144 C143 1.385 . S
C144 C145 1.389 . S
C145 C144 1.389 . S
C145 C146 1.387 . S
C146 H131 0.930 . S
C146 C141 1.390 . S
C146 C145 1.387 . S
H147 C159 0.930 . S
H148 C161 0.930 . S
H149 C162 0.930 . S
H150 C166 0.959 . S
H151 C166 0.959 . S
H152 C166 0.961 . S
H153 C167 0.960 . S
H154 C167 0.961 . S
H155 C167 0.959 . S
H156 C170 0.929 . S
H157 C171 0.931 . S
H158 C173 0.930 . S
C159 H147 0.930 . S
C159 C160 1.399 . S
C159 C164 1.399 . S
C160 C159 1.399 . S
C160 C161 1.376 1_554 S
C161 H148 0.930 . S
C161 C160 1.376 1_556 S
C161 C162 1.388 . S
C162 H149 0.930 . S
C162 C161 1.388 . S
C162 C163 1.390 1_556 S
C163 C162 1.390 1_554 S
C163 C164 1.394 . S
C163 C169 1.465 . S
C164 C159 1.399 . S
C164 C163 1.394 . S
C164 C165 1.516 . S
C165 C164 1.516 . S
C165 C166 1.502 . S
C165 C167 1.561 . S
C165 C168 1.526 . S
C166 H150 0.959 . S
C166 H151 0.959 . S
C166 H152 0.961 . S
C166 C165 1.502 . S
C167 H153 0.960 . S
C167 H154 0.961 . S
C167 H155 0.959 . S
C167 C165 1.561 . S
C168 C165 1.526 . S
C168 C169 1.409 . S
C168 C173 1.390 . S
C169 C163 1.465 . S
C169 C168 1.409 . S
C169 C170 1.389 1_554 S
C170 H156 0.929 . S
C170 C169 1.389 1_556 S
C170 C171 1.385 . S
C171 H157 0.931 . S
C171 C170 1.385 . S
C171 C172 1.389 1_556 S
C172 C171 1.389 1_554 S
C172 C173 1.387 . S
C173 H158 0.930 . S
C173 C168 1.390 . S
C173 C172 1.387 . S
H174 C186 0.930 . S
H175 C188 0.930 . S
H176 C189 0.930 . S
H177 C193 0.959 . S
H178 C193 0.959 . S
H179 C193 0.961 . S
H180 C194 0.960 . S
H181 C194 0.961 . S
H182 C194 0.959 . S
H183 C197 0.929 . S
H184 C198 0.931 . S
H185 C200 0.930 . S
C186 H174 0.930 . S
C186 C187 1.399 . S
C186 C191 1.399 . S
C187 C186 1.399 . S
C187 C188 1.376 . S
C188 H175 0.930 . S
C188 C187 1.376 . S
C188 C189 1.388 . S
C189 H176 0.930 . S
C189 C188 1.388 . S
C189 C190 1.390 . S
C190 C189 1.390 . S
C190 C191 1.394 . S
C190 C196 1.465 . S
C191 C186 1.399 . S
C191 C190 1.394 . S
C191 C192 1.516 . S
C192 C191 1.516 . S
C192 C193 1.502 . S
C192 C194 1.561 . S
C192 C195 1.526 . S
C193 H177 0.959 . S
C193 H178 0.959 . S
C193 H179 0.961 . S
C193 C192 1.502 . S
C194 H180 0.960 . S
C194 H181 0.961 . S
C194 H182 0.959 . S
C194 C192 1.561 . S
C195 C192 1.526 . S
C195 C196 1.396 . S
C195 C200 1.390 . S
C196 C190 1.465 . S
C196 C195 1.396 . S
C196 C197 1.399 . S
C197 H183 0.929 . S
C197 C196 1.399 . S
C197 C198 1.385 . S
C198 H184 0.931 . S
C198 C197 1.385 . S
C198 C199 1.389 . S
C199 C198 1.389 . S
C199 C200 1.387 . S
C200 H185 0.930 . S
C200 C195 1.390 . S
C200 C199 1.387 . S
H201 C213 0.930 . S
H202 C215 0.930 . S
H203 C216 0.930 . S
H204 C220 0.959 . S
H205 C220 0.959 . S
H206 C220 0.961 . S
H207 C221 0.960 . S
H208 C221 0.961 . S
H209 C221 0.959 . S
H210 C224 0.929 . S
H211 C225 0.931 . S
H212 C227 0.930 . S
C213 H201 0.930 . S
C213 C214 1.399 1_554 S
C213 C218 1.399 . S
C214 C213 1.399 1_556 S
C214 C215 1.376 . S
C215 H202 0.930 . S
C215 C214 1.376 . S
C215 C216 1.388 . S
C216 H203 0.930 . S
C216 C215 1.388 . S
C216 C217 1.390 . S
C217 C216 1.390 . S
C217 C218 1.394 1_556 S
C217 C223 1.465 . S
C218 C213 1.399 . S
C218 C217 1.394 1_554 S
C218 C219 1.516 . S
C219 C218 1.516 . S
C219 C220 1.502 . S
C219 C221 1.561 . S
C219 C222 1.526 . S
C220 H204 0.959 . S
C220 H205 0.959 . S
C220 H206 0.961 . S
C220 C219 1.502 . S
C221 H207 0.960 . S
C221 H208 0.961 . S
C221 H209 0.959 . S
C221 C219 1.561 . S
C222 C219 1.526 . S
C222 C223 1.396 1_554 S
C222 C227 1.390 . S
C223 C217 1.465 . S
C223 C222 1.396 1_556 S
C223 C224 1.399 . S
C224 H210 0.929 . S
C224 C223 1.399 . S
C224 C225 1.385 . S
C225 H211 0.931 . S
C225 C224 1.385 . S
C225 C226 1.389 . S
C226 C225 1.389 . S
C226 C227 1.387 1_556 S
C227 H212 0.930 . S
C227 C222 1.390 . S
C227 C226 1.387 1_554 S
H228 C240 0.930 . S
H229 C242 0.930 . S
H230 C243 0.930 . S
H231 C247 0.959 . S
H232 C247 0.959 . S
H233 C247 0.961 . S
H234 C248 0.960 . S
H235 C248 0.961 . S
H236 C248 0.959 . S
H237 C251 0.929 . S
H238 C252 0.931 . S
H239 C254 0.930 . S
C240 H228 0.930 . S
C240 C241 1.399 . S
C240 C245 1.399 . S
C241 C240 1.399 . S
C241 C242 1.376 . S
C242 H229 0.930 . S
C242 C241 1.376 . S
C242 C243 1.388 . S
C243 H230 0.930 . S
C243 C242 1.388 . S
C243 C244 1.390 . S
C244 C243 1.390 . S
C244 C245 1.394 . S
C244 C250 1.465 . S
C245 C240 1.399 . S
C245 C244 1.394 . S
C245 C246 1.516 . S
C246 C245 1.516 . S
C246 C247 1.502 . S
C246 C248 1.561 . S
C246 C249 1.526 . S
C247 H231 0.959 . S
C247 H232 0.959 . S
C247 H233 0.961 . S
C247 C246 1.502 . S
C248 H234 0.960 . S
C248 H235 0.961 . S
C248 H236 0.959 . S
C248 C246 1.561 . S
C249 C246 1.526 . S
C249 C250 1.396 . S
C249 C254 1.390 . S
C250 C244 1.465 . S
C250 C249 1.396 . S
C250 C251 1.399 . S
C251 H237 0.929 . S
C251 C250 1.399 . S
C251 C252 1.385 . S
C252 H238 0.931 . S
C252 C251 1.385 . S
C252 C253 1.389 . S
C253 C252 1.389 . S
C253 C254 1.387 . S
C254 H239 0.930 . S
C254 C249 1.390 . S
C254 C253 1.387 . S
H255 C267 0.930 . S
H256 C269 0.930 . S
H257 C270 0.930 . S
H258 C274 0.959 . S
H259 C274 0.959 . S
H260 C274 0.961 . S
H261 C275 0.960 . S
H262 C275 0.961 . S
H263 C275 0.959 . S
H264 C278 0.929 . S
H265 C279 0.931 . S
H266 C281 0.930 . S
C267 H255 0.930 . S
C267 C268 1.399 . S
C267 C272 1.399 . S
C268 C267 1.399 . S
C268 C269 1.376 . S
C269 H256 0.930 . S
C269 C268 1.376 . S
C269 C270 1.388 . S
C270 H257 0.930 . S
C270 C269 1.388 . S
C270 C271 1.390 . S
C271 C270 1.390 . S
C271 C272 1.394 . S
C271 C277 1.465 . S
C272 C267 1.399 . S
C272 C271 1.394 . S
C272 C273 1.516 . S
C273 C272 1.516 . S
C273 C274 1.502 . S
C273 C275 1.561 . S
C273 C276 1.526 . S
C274 H258 0.959 . S
C274 H259 0.959 . S
C274 H260 0.961 . S
C274 C273 1.502 . S
C275 H261 0.960 . S
C275 H262 0.961 . S
C275 H263 0.959 . S
C275 C273 1.561 . S
C276 C273 1.526 . S
C276 C277 1.396 . S
C276 C281 1.390 . S
C277 C271 1.465 . S
C277 C276 1.396 . S
C277 C278 1.399 . S
C278 H264 0.929 . S
C278 C277 1.399 . S
C278 C279 1.385 . S
C279 H265 0.931 . S
C279 C278 1.385 . S
C279 C280 1.389 . S
C280 C279 1.389 . S
C280 C281 1.387 . S
C281 H266 0.930 . S
C281 C276 1.390 . S
C281 C280 1.387 . S
H282 C294 0.930 . S
H283 C296 0.930 . S
H284 C297 0.930 . S
H285 C301 0.959 . S
H286 C301 0.959 . S
H287 C301 0.961 . S
H288 C302 0.960 . S
H289 C302 0.961 . S
H290 C302 0.959 . S
H291 C305 0.929 . S
H292 C306 0.931 . S
H293 C308 0.930 . S
C294 H282 0.930 . S
C294 C295 1.399 . S
C294 C299 1.399 . S
C295 C294 1.399 . S
C295 C296 1.376 . S
C296 H283 0.930 . S
C296 C295 1.376 . S
C296 C297 1.388 . S
C297 H284 0.930 . S
C297 C296 1.388 . S
C297 C298 1.390 . S
C298 C297 1.390 . S
C298 C299 1.394 . S
C298 C304 1.465 . S
C299 C294 1.399 . S
C299 C298 1.394 . S
C299 C300 1.516 . S
C300 C299 1.516 . S
C300 C301 1.502 . S
C300 C302 1.561 . S
C300 C303 1.526 . S
C301 H285 0.959 . S
C301 H286 0.959 . S
C301 H287 0.961 . S
C301 C300 1.502 . S
C302 H288 0.960 . S
C302 H289 0.961 . S
C302 H290 0.959 . S
C302 C300 1.561 . S
C303 C300 1.526 . S
C303 C304 1.396 . S
C303 C308 1.390 . S
C304 C298 1.465 . S
C304 C303 1.396 . S
C304 C305 1.399 . S
C305 H291 0.929 . S
C305 C304 1.399 . S
C305 C306 1.385 . S
C306 H292 0.931 . S
C306 C305 1.385 . S
C306 C307 1.389 . S
C307 C306 1.389 . S
C307 C308 1.387 . S
C308 H293 0.930 . S
C308 C303 1.390 . S
C308 C307 1.387 . S
H309 C321 0.930 . S
H310 C323 0.930 . S
H311 C324 0.930 . S
H312 C328 0.959 . S
H313 C328 0.959 . S
H314 C328 0.961 . S
H315 C329 0.960 . S
H316 C329 0.961 . S
H317 C329 0.959 . S
H318 C332 0.929 . S
H319 C333 0.931 . S
H320 C335 0.930 . S
C321 H309 0.930 . S
C321 C322 1.399 . S
C321 C326 1.399 . S
C322 C321 1.399 . S
C322 C323 1.376 . S
C323 H310 0.930 . S
C323 C322 1.376 . S
C323 C324 1.388 . S
C324 H311 0.930 . S
C324 C323 1.388 . S
C324 C325 1.390 . S
C325 C324 1.390 . S
C325 C326 1.394 . S
C325 C331 1.465 . S
C326 C321 1.399 . S
C326 C325 1.394 . S
C326 C327 1.516 . S
C327 C326 1.516 . S
C327 C328 1.502 . S
C327 C329 1.561 . S
C327 C330 1.526 . S
C328 H312 0.959 . S
C328 H313 0.959 . S
C328 H314 0.961 . S
C328 C327 1.502 . S
C329 H315 0.960 . S
C329 H316 0.961 . S
C329 H317 0.959 . S
C329 C327 1.561 . S
C330 C327 1.526 . S
C330 C331 1.396 . S
C330 C335 1.390 . S
C331 C325 1.465 . S
C331 C330 1.396 . S
C331 C332 1.399 . S
C332 H318 0.929 . S
C332 C331 1.399 . S
C332 C333 1.385 . S
C333 H319 0.931 . S
C333 C332 1.385 . S
C333 C334 1.389 . S
C334 C333 1.389 . S
C334 C335 1.387 . S
C335 H320 0.930 . S
C335 C330 1.390 . S
C335 C334 1.387 . S
H336 C348 0.930 . S
H337 C350 0.930 . S
H338 C351 0.930 . S
H339 C355 0.959 . S
H340 C355 0.959 . S
H341 C355 0.961 . S
H342 C356 0.960 . S
H343 C356 0.961 . S
H344 C356 0.959 . S
H345 C359 0.929 . S
H346 C360 0.931 . S
H347 C362 0.930 . S
C348 H336 0.930 . S
C348 C349 1.399 . S
C348 C353 1.399 . S
C349 C348 1.399 . S
C349 C350 1.376 . S
C350 H337 0.930 . S
C350 C349 1.376 . S
C350 C351 1.388 . S
C351 H338 0.930 . S
C351 C350 1.388 . S
C351 C352 1.390 . S
C352 C351 1.390 . S
C352 C353 1.394 . S
C352 C358 1.465 . S
C353 C348 1.399 . S
C353 C352 1.394 . S
C353 C354 1.516 . S
C354 C353 1.516 . S
C354 C355 1.502 . S
C354 C356 1.561 . S
C354 C357 1.526 . S
C355 H339 0.959 . S
C355 H340 0.959 . S
C355 H341 0.961 . S
C355 C354 1.502 . S
C356 H342 0.960 . S
C356 H343 0.961 . S
C356 H344 0.959 . S
C356 C354 1.561 . S
C357 C354 1.526 . S
C357 C358 1.396 . S
C357 C362 1.390 . S
C358 C352 1.465 . S
C358 C357 1.396 . S
C358 C359 1.399 . S
C359 H345 0.929 . S
C359 C358 1.399 . S
C359 C360 1.385 . S
C360 H346 0.931 . S
C360 C359 1.385 . S
C360 C361 1.389 . S
C361 C360 1.389 . S
C361 C362 1.387 . S
C362 H347 0.930 . S
C362 C357 1.390 . S
C362 C361 1.387 . S
H363 C375 0.930 . S
H364 C377 0.930 . S
H365 C378 0.930 . S
H366 C382 0.959 . S
H367 C382 0.959 . S
H368 C382 0.961 . S
H369 C383 0.960 . S
H370 C383 0.961 . S
H371 C383 0.959 . S
H372 C386 0.929 . S
H373 C387 0.931 . S
H374 C389 0.930 . S
C375 H363 0.930 . S
C375 C376 1.399 . S
C375 C380 1.399 . S
C376 C375 1.399 . S
C376 C377 1.376 . S
C377 H364 0.930 . S
C377 C376 1.376 . S
C377 C378 1.388 . S
C378 H365 0.930 . S
C378 C377 1.388 . S
C378 C379 1.390 . S
C379 C378 1.390 . S
C379 C380 1.394 . S
C379 C385 1.465 . S
C380 C375 1.399 . S
C380 C379 1.394 . S
C380 C381 1.516 . S
C381 C380 1.516 . S
C381 C382 1.502 . S
C381 C383 1.561 . S
C381 C384 1.526 . S
C382 H366 0.959 . S
C382 H367 0.959 . S
C382 H368 0.961 . S
C382 C381 1.502 . S
C383 H369 0.960 . S
C383 H370 0.961 . S
C383 H371 0.959 . S
C383 C381 1.561 . S
C384 C381 1.526 . S
C384 C385 1.396 . S
C384 C389 1.390 . S
C385 C379 1.465 . S
C385 C384 1.396 . S
C385 C386 1.399 . S
C386 H372 0.929 . S
C386 C385 1.399 . S
C386 C387 1.385 . S
C387 H373 0.931 . S
C387 C386 1.385 . S
C387 C388 1.389 . S
C388 C387 1.389 . S
C388 C389 1.387 . S
C389 H374 0.930 . S
C389 C384 1.390 . S
C389 C388 1.387 . S
H390 C402 0.930 . S
H391 C404 0.930 . S
H392 C405 0.930 . S
H393 C409 0.959 . S
H394 C409 0.959 . S
H395 C409 0.961 . S
H396 C410 0.960 . S
H397 C410 0.961 . S
H398 C410 0.959 . S
H399 C413 0.929 . S
H400 C414 0.931 . S
H401 C416 0.930 . S
C402 H390 0.930 . S
C402 C403 1.399 . S
C402 C407 1.399 . S
C403 C402 1.399 . S
C403 C404 1.376 . S
C404 H391 0.930 . S
C404 C403 1.376 . S
C404 C405 1.388 . S
C405 H392 0.930 . S
C405 C404 1.388 . S
C405 C406 1.390 . S
C406 C405 1.390 . S
C406 C407 1.394 . S
C406 C412 1.465 . S
C407 C402 1.399 . S
C407 C406 1.394 . S
C407 C408 1.516 . S
C408 C407 1.516 . S
C408 C409 1.502 . S
C408 C410 1.561 . S
C408 C411 1.526 . S
C409 H393 0.959 . S
C409 H394 0.959 . S
C409 H395 0.961 . S
C409 C408 1.502 . S
C410 H396 0.960 . S
C410 H397 0.961 . S
C410 H398 0.959 . S
C410 C408 1.561 . S
C411 C408 1.526 . S
C411 C412 1.396 . S
C411 C416 1.390 . S
C412 C406 1.465 . S
C412 C411 1.396 . S
C412 C413 1.399 . S
C413 H399 0.929 . S
C413 C412 1.399 . S
C413 C414 1.385 . S
C414 H400 0.931 . S
C414 C413 1.385 . S
C414 C415 1.389 . S
C415 C414 1.389 . S
C415 C416 1.387 . S
C416 H401 0.930 . S
C416 C411 1.390 . S
C416 C415 1.387 . S
H417 C429 0.930 . S
H418 C431 0.930 . S
H419 C432 0.930 . S
H420 C436 0.959 . S
H421 C436 0.959 . S
H422 C436 0.961 . S
H423 C437 0.960 . S
H424 C437 0.961 . S
H425 C437 0.959 . S
H426 C440 0.929 . S
H427 C441 0.931 . S
H428 C443 0.930 . S
C429 H417 0.930 . S
C429 C430 1.399 . S
C429 C434 1.399 . S
C430 C429 1.399 . S
C430 C431 1.376 . S
C431 H418 0.930 . S
C431 C430 1.376 . S
C431 C432 1.388 . S
C432 H419 0.930 . S
C432 C431 1.388 . S
C432 C433 1.390 . S
C433 C432 1.390 . S
C433 C434 1.394 . S
C433 C439 1.465 . S
C434 C429 1.399 . S
C434 C433 1.394 . S
C434 C435 1.516 . S
C435 C434 1.516 . S
C435 C436 1.502 . S
C435 C437 1.561 . S
C435 C438 1.526 . S
C436 H420 0.959 . S
C436 H421 0.959 . S
C436 H422 0.961 . S
C436 C435 1.502 . S
C437 H423 0.960 . S
C437 H424 0.961 . S
C437 H425 0.959 . S
C437 C435 1.561 . S
C438 C435 1.526 . S
C438 C439 1.396 . S
C438 C443 1.390 . S
C439 C433 1.465 . S
C439 C438 1.396 . S
C439 C440 1.399 . S
C440 H426 0.929 . S
C440 C439 1.399 . S
C440 C441 1.385 . S
C441 H427 0.931 . S
C441 C440 1.385 . S
C441 C442 1.389 . S
C442 C441 1.389 . S
C442 C443 1.387 . S
C443 H428 0.930 . S
C443 C438 1.390 . S
C443 C442 1.387 . S
C145 C56 1.499 . S
C133 C43 1.426 . S
C160 C4 1.445 . S
C172 C99 1.495 . S
C187 C17 1.445 . S
C199 C65 1.494 . S
C214 C30 1.449 . S
C226 C90 1.507 1_556 S
C253 C52 1.506 . S
C241 C9 1.465 . S
C280 C94 1.494 . S
C268 C21 1.505 . S
C295 C34 1.505 . S
C307 C60 1.504 . S
C322 C48 1.467 . S
C334 C86 1.506 . S
C361 C115 1.502 . S
C349 C22 1.483 . S
C388 C81 1.507 . S
C376 C35 1.462 . S
C415 C103 1.499 . S
C403 C47 1.506 . S
C430 C8 1.510 . S
C442 C69 1.495 . S
