# Generated by pormake.
# Topology zzz, (3,6)-cn, num edge types: 1
# Building blocks:
#     Node 0, Type 0, BuildingBlock: BETDAH_clean_linker_0, # of connection points: 3
#     Node 1, Type 0, BuildingBlock: BETDAH_clean_linker_0, # of connection points: 3
#     Node 2, Type 0, BuildingBlock: BETDAH_clean_linker_0, # of connection points: 3
#     Node 3, Type 0, BuildingBlock: BETDAH_clean_linker_0, # of connection points: 3
#     Node 4, Type 0, BuildingBlock: BETDAH_clean_linker_0, # of connection points: 3
#     Node 5, Type 0, BuildingBlock: BETDAH_clean_linker_0, # of connection points: 3
#     Node 6, Type 0, BuildingBlock: BETDAH_clean_linker_0, # of connection points: 3
#     Node 7, Type 0, BuildingBlock: BETDAH_clean_linker_0, # of connection points: 3
#     Node 8, Type 1, BuildingBlock: KUMBOL_clean_sbu_1, # of connection points: 6
#     Node 9, Type 1, BuildingBlock: KUMBOL_clean_sbu_1, # of connection points: 6
#     Node 10, Type 1, BuildingBlock: KUMBOL_clean_sbu_1, # of connection points: 6
#     Node 11, Type 1, BuildingBlock: KUMBOL_clean_sbu_1, # of connection points: 6
#     Edge 12, Type (0, 1), BuildingBlock: OJICUG_clean_linker_0, # of connection points: 2
#     Edge 13, Type (0, 1), BuildingBlock: OJICUG_clean_linker_0, # of connection points: 2
#     Edge 14, Type (0, 1), BuildingBlock: OJICUG_clean_linker_0, # of connection points: 2
#     Edge 15, Type (0, 1), BuildingBlock: OJICUG_clean_linker_0, # of connection points: 2
#     Edge 16, Type (0, 1), BuildingBlock: OJICUG_clean_linker_0, # of connection points: 2
#     Edge 17, Type (0, 1), BuildingBlock: OJICUG_clean_linker_0, # of connection points: 2
#     Edge 18, Type (0, 1), BuildingBlock: OJICUG_clean_linker_0, # of connection points: 2
#     Edge 19, Type (0, 1), BuildingBlock: OJICUG_clean_linker_0, # of connection points: 2
#     Edge 20, Type (0, 1), BuildingBlock: OJICUG_clean_linker_0, # of connection points: 2
#     Edge 21, Type (0, 1), BuildingBlock: OJICUG_clean_linker_0, # of connection points: 2
#     Edge 22, Type (0, 1), BuildingBlock: OJICUG_clean_linker_0, # of connection points: 2
#     Edge 23, Type (0, 1), BuildingBlock: OJICUG_clean_linker_0, # of connection points: 2
#     Edge 24, Type (0, 1), BuildingBlock: OJICUG_clean_linker_0, # of connection points: 2
#     Edge 25, Type (0, 1), BuildingBlock: OJICUG_clean_linker_0, # of connection points: 2
#     Edge 26, Type (0, 1), BuildingBlock: OJICUG_clean_linker_0, # of connection points: 2
#     Edge 27, Type (0, 1), BuildingBlock: OJICUG_clean_linker_0, # of connection points: 2
#     Edge 28, Type (0, 1), BuildingBlock: OJICUG_clean_linker_0, # of connection points: 2
#     Edge 29, Type (0, 1), BuildingBlock: OJICUG_clean_linker_0, # of connection points: 2
#     Edge 30, Type (0, 1), BuildingBlock: OJICUG_clean_linker_0, # of connection points: 2
#     Edge 31, Type (0, 1), BuildingBlock: OJICUG_clean_linker_0, # of connection points: 2
#     Edge 32, Type (0, 1), BuildingBlock: OJICUG_clean_linker_0, # of connection points: 2
#     Edge 33, Type (0, 1), BuildingBlock: OJICUG_clean_linker_0, # of connection points: 2
#     Edge 34, Type (0, 1), BuildingBlock: OJICUG_clean_linker_0, # of connection points: 2
#     Edge 35, Type (0, 1), BuildingBlock: OJICUG_clean_linker_0, # of connection points: 2
# Relax obj value: 0.245
# Max RMSD: 0.127
# Mean RMSD: 0.086
data_MOF--net-zzz--node1-KUMBOL_clean_sbu_1--node2-BETDAH_clean_linker_0--edge1-OJICUG_clean_linker_0
_symmetry_space_group_name_H-M    P1
_symmetry_Int_Tables_number       1
_symmetry_cell_setting            triclinic
loop_
_symmetry_equiv_pos_as_xyz
'x, y, z'
_cell_length_a     36.576365
_cell_length_b     36.539512
_cell_length_c     11.661878
_cell_angle_alpha  89.775166
_cell_angle_beta   90.271975
_cell_angle_gamma 90.318825
loop_
_atom_site_label
_atom_site_type_symbol
_atom_site_fract_x
_atom_site_fract_y
_atom_site_fract_z
_atom_type_partial_charge
H0 H 0.84251 0.47253 0.35931 0.0
H1 H 0.73824 0.49849 0.21842 0.0
H2 H 0.78161 0.5625 0.49946 0.0
C3 C 0.81771 0.4884 0.36568 0.0
C4 C 0.81552 0.51639 0.44787 0.0
C5 C 0.78985 0.48161 0.28539 0.0
C6 C 0.75914 0.50393 0.28203 0.0
C7 C 0.75586 0.53378 0.35594 0.0
C8 C 0.78413 0.53984 0.4406 0.0
N9 N 0.72486 0.5578 0.3436 0.0
C10 C 0.69747 0.55511 0.25689 0.0
H11 H 0.99348 0.86145 0.28554 0.0
H12 H 0.98292 0.74824 0.19939 0.0
H13 H 0.02275 0.77943 0.53442 0.0
C14 C 0.99435 0.83313 0.31193 0.0
C15 C 1.00557 0.82482 0.42451 0.0
C16 C 0.98728 0.80556 0.23043 0.0
C17 C 0.98944 0.76895 0.2626 0.0
C18 C 1.00452 0.75869 0.36762 0.0
C19 C 1.01161 0.78685 0.45141 0.0
N20 N 1.01473 0.72088 0.38409 0.0
C21 C 1.0146 0.69395 0.29583 0.0
H22 H 0.71426 0.10026 0.41544 0.0
H23 H 0.81523 0.08226 0.23801 0.0
H24 H 0.76926 0.99747 0.45409 0.0
C25 C 0.73801 0.08333 0.4 0.0
C26 C 0.73855 0.04817 0.44755 0.0
C27 C 0.76521 0.09562 0.32394 0.0
C28 C 0.7948 0.07283 0.29841 0.0
C29 C 0.79707 0.03745 0.34547 0.0
C30 C 0.76858 0.02512 0.4204 0.0
N31 N 0.82655 1.01352 0.31458 0.0
C32 C 0.85423 1.02092 0.23306 0.0
H33 H 0.53909 0.7045 0.30593 0.0
H34 H 0.54912 0.81508 0.19033 0.0
H35 H 0.54014 0.79202 0.55332 0.0
C36 C 0.54203 0.73319 0.32719 0.0
C37 C 0.54035 0.74378 0.44284 0.0
C38 C 0.54446 0.7588 0.23744 0.0
C39 C 0.54739 0.79598 0.26138 0.0
C40 C 0.54552 0.80894 0.37352 0.0
C41 C 0.54234 0.78251 0.46587 0.0
N42 N 0.54493 0.84809 0.39173 0.0
C43 C 0.54491 0.87537 0.30363 0.0
H44 H 0.20303 0.58964 0.16907 0.0
H45 H 0.30751 0.56686 0.31828 0.0
H46 H 0.26827 0.50252 0.03191 0.0
C47 C 0.22839 0.57445 0.16628 0.0
C48 C 0.23212 0.54646 0.08521 0.0
C49 C 0.2553 0.58183 0.24929 0.0
C50 C 0.28718 0.56096 0.25308 0.0
C51 C 0.2925 0.53216 0.17599 0.0
C52 C 0.26458 0.52476 0.09176 0.0
N53 N 0.32518 0.51037 0.1837 0.0
C54 C 0.35365 0.51461 0.2659 0.0
H55 H 0.96652 0.2154 0.13135 0.0
H56 H 0.99003 0.31796 0.29249 0.0
H57 H 0.06206 0.27668 0.03072 0.0
C58 C 0.98311 0.24003 0.13546 0.0
C59 C 1.01399 0.24277 0.06481 0.0
C60 C 0.97459 0.26673 0.21739 0.0
C61 C 0.99699 0.29761 0.2292 0.0
C62 C 0.0289 0.3017 0.16448 0.0
C63 C 0.0375 0.27392 0.08155 0.0
N64 N 0.05256 0.33285 0.18445 0.0
C65 C 0.04743 0.3603 0.26912 0.0
H66 H 0.34806 0.98374 0.13737 0.0
H67 H 0.24474 1.00306 0.29896 0.0
H68 H 0.29199 0.08476 0.07384 0.0
C69 C 0.32394 1.00062 0.14711 0.0
C70 C 0.32355 0.03496 0.09417 0.0
C71 C 0.2959 0.98908 0.22102 0.0
C72 C 0.2657 1.01179 0.2394 0.0
C73 C 0.2634 0.04621 0.18541 0.0
C74 C 0.29272 0.05779 0.11258 0.0
N75 N 0.23308 0.07008 0.20718 0.0
C76 C 0.20342 0.063 0.2816 0.0
H77 H 0.59173 0.35533 0.1546 0.0
H78 H 0.56924 0.25049 0.30133 0.0
H79 H 0.50269 0.29044 0.02009 0.0
C80 C 0.57636 0.32995 0.15049 0.0
C81 C 0.54776 0.32661 0.07023 0.0
C82 C 0.58435 0.30264 0.23169 0.0
C83 C 0.56291 0.27102 0.23708 0.0
C84 C 0.53309 0.26605 0.16306 0.0
C85 C 0.52551 0.29407 0.07843 0.0
N86 N 0.5107 0.23354 0.17471 0.0
C87 C 0.51484 0.20578 0.25992 0.0
C88 C 0.1326 0.06796 0.92741 0.0
C89 C 0.11378 0.10456 0.08976 0.0
C90 C 0.10577 0.07858 1.00392 0.0
C91 C 0.14901 0.1199 0.09658 0.0
C92 C 0.16822 0.08274 0.9356 0.0
C93 C 0.17617 0.10895 0.01997 0.0
N94 N 0.12396 0.04296 0.84557 0.0
C95 C 0.15006 0.03041 0.77237 0.0
C96 C 0.19483 0.07071 0.85879 0.0
C97 C 0.18574 0.04426 0.77726 0.0
Gd98 Gd 0.98869 0.04595 0.61847 0.0
Gd99 Gd 0.06322 1.02161 0.84335 0.0
N100 N 0.07152 0.06437 0.99202 0.0
C101 C 0.08593 0.11493 0.16461 0.0
C102 C 0.04438 0.07404 0.0659 0.0
C103 C 0.0511 0.09959 0.15257 0.0
H104 H 1.0174 0.06241 0.05819 0.0
H105 H 0.02939 0.1074 0.21011 0.0
H106 H 0.04388 0.05983 0.38299 0.0
H107 H 0.14367 1.00893 0.7122 0.0
H108 H 0.06794 0.02225 0.22669 0.0
H109 H 0.09097 0.13485 0.2315 0.0
H110 H 0.15552 0.14036 0.16054 0.0
H111 H 0.91358 1.00258 0.71404 0.0
H112 H 0.22254 0.08132 0.86263 0.0
H113 H 0.20628 0.03427 0.71882 0.0
H114 H 0.98569 0.92091 0.20972 0.0
H115 H 0.20329 0.12086 0.02684 0.0
H116 H 0.89036 0.913 0.48889 0.0
H117 H 0.87487 0.94964 0.65962 0.0
N118 N 0.95039 0.99586 0.57513 0.0
C119 C 0.95886 0.97668 0.47922 0.0
C120 C 0.92038 0.98676 0.63909 0.0
C121 C 0.90725 0.93633 0.51183 0.0
C122 C 0.89846 0.95688 0.60846 0.0
C123 C 0.93775 0.94601 0.44606 0.0
H124 H 0.93196 0.90225 0.32231 0.0
N125 N 1.00819 1.01801 0.44628 0.0
C126 C 0.98929 0.98725 0.41576 0.0
C127 C 0.02942 0.97854 0.25424 0.0
C128 C 0.99938 0.96686 0.31841 0.0
C129 C 0.03327 0.03249 0.37201 0.0
C130 C 0.04594 1.01196 0.27961 0.0
O131 O 0.05572 0.08369 0.82094 0.0
O132 O 0.99668 0.09059 0.75471 0.0
O133 O 0.97745 0.09344 0.50954 0.0
O134 O 0.9335 0.05845 0.56398 0.0
O135 O 1.00407 1.01673 0.91216 0.0
O136 O 0.96372 0.04837 0.79453 0.0
O137 O 0.99418 0.98645 0.68544 0.0
O138 O 0.05519 0.98117 0.6947 0.0
O139 O 0.04851 0.97882 0.96248 0.0
O140 O 0.10548 0.98716 0.91828 0.0
O141 O 0.04805 0.06573 0.58319 0.0
O142 O 0.07895 1.01754 0.6578 0.0
C143 C 0.02615 0.10384 0.80665 0.0
C144 C 0.97144 0.03122 0.89106 0.0
C145 C 0.92155 0.12124 0.56021 0.0
C146 C 0.90232 0.18421 0.53239 0.0
C147 C 0.88859 0.15303 0.71064 0.0
C148 C 0.90592 0.12159 0.67031 0.0
C149 C 0.88725 0.18456 0.64257 0.0
C150 C 0.91903 0.15237 0.49131 0.0
C151 C 0.94219 0.0895 0.51845 0.0
C152 C 0.97861 0.93622 0.28573 0.0
C153 C 0.94783 0.92586 0.34911 0.0
H154 H 0.03871 0.96294 0.1814 0.0
C155 C 0.02336 0.96614 0.67059 0.0
C156 C 0.07793 0.04546 0.5877 0.0
C157 C 0.08131 0.92723 0.90703 0.0
C158 C 0.04519 0.87232 0.87029 0.0
C159 C 0.09891 0.88535 0.75555 0.0
C160 C 0.10491 0.91766 0.81709 0.0
C161 C 0.06895 0.86286 0.78109 0.0
C162 C 0.0525 0.90384 0.93479 0.0
C163 C 0.08101 0.96425 0.95643 0.0
H164 H 0.87709 0.15324 0.79599 0.0
H165 H 0.90769 0.09791 0.72591 0.0
H166 H 0.87524 0.20929 0.67637 0.0
H167 H 0.93196 0.15251 0.4077 0.0
H168 H 0.11698 0.87821 0.68603 0.0
H169 H 0.12711 0.9356 0.79159 0.0
H170 H 0.06445 0.83816 0.73185 0.0
H171 H 0.03524 0.9109 1.0067 0.0
C172 C 0.54177 0.91797 0.70702 0.0
C173 C 0.50085 0.88784 0.8415 0.0
C174 C 0.51195 0.9194 0.78046 0.0
C175 C 0.52017 0.85503 0.82832 0.0
C176 C 0.5609 0.88488 0.69257 0.0
C177 C 0.55006 0.85354 0.75399 0.0
N178 N 0.55163 0.94872 0.64827 0.0
C179 C 0.57939 0.9477 0.57045 0.0
C180 C 0.59011 0.8841 0.61562 0.0
C181 C 0.59919 0.91558 0.55369 0.0
Gd182 Gd 0.54857 0.07934 0.87682 0.0
Gd183 Gd 0.51537 1.00077 0.67908 0.0
N184 N 0.4941 0.95177 0.79315 0.0
C185 C 0.47058 0.89014 0.91387 0.0
C186 C 0.46335 0.95347 0.8586 0.0
C187 C 0.45155 0.92301 0.92153 0.0
H188 H 0.44724 0.97784 0.86094 0.0
H189 H 0.42744 0.92478 0.97464 0.0
H190 H 0.61761 0.10239 0.69816 0.0
H191 H 0.58549 0.9712 0.51792 0.0
H192 H 0.63745 0.15514 0.5833 0.0
H193 H 0.46129 0.86655 0.96248 0.0
H194 H 0.51207 0.83057 0.87479 0.0
H195 H 0.47771 0.10905 0.03434 0.0
H196 H 0.60533 0.85916 0.60171 0.0
H197 H 0.6211 0.91498 0.49168 0.0
H198 H 0.55194 0.24912 0.67716 0.0
H199 H 0.56449 0.82794 0.74404 0.0
H200 H 0.45779 0.22082 0.94749 0.0
H201 H 0.44182 0.16518 0.05812 0.0
N202 N 0.51184 0.13128 0.90426 0.0
C203 C 0.52179 0.16193 0.84514 0.0
C204 C 0.48385 0.13241 0.98125 0.0
C205 C 0.47311 0.19589 0.93449 0.0
C206 C 0.4639 0.16451 0.99673 0.0
C207 C 0.50255 0.19501 0.85842 0.0
H208 H 0.4991 0.25189 0.80625 0.0
N209 N 0.57003 0.12816 0.76207 0.0
C210 C 0.5519 0.16044 0.77293 0.0
C211 C 0.59374 0.18962 0.64074 0.0
C212 C 0.56313 0.19193 0.71173 0.0
C213 C 0.60116 0.12654 0.69838 0.0
C214 C 0.61303 0.15687 0.63502 0.0
O215 O 0.54723 0.98335 0.84169 0.0
O216 O 0.53495 0.02667 0.97719 0.0
O217 O 0.60242 0.08482 0.95466 0.0
O218 O 0.5552 0.10722 0.0396 0.0
O219 O 0.47071 0.0354 0.76538 0.0
O220 O 0.4958 0.05298 0.93729 0.0
O221 O 0.51587 0.09619 0.71578 0.0
O222 O 0.52933 0.05354 0.57969 0.0
O223 O 0.46117 0.99672 0.60308 0.0
O224 O 0.50754 0.97304 0.51675 0.0
O225 O 0.59347 0.04505 0.78879 0.0
O226 O 0.56802 0.02704 0.61764 0.0
C227 C 0.54248 0.99243 0.95007 0.0
C228 C 0.4669 0.04602 0.87301 0.0
C229 C 0.6106 0.14124 0.04991 0.0
C230 C 0.66862 0.17244 0.08619 0.0
C231 C 0.6134 0.20776 0.05843 0.0
C232 C 0.59312 0.17544 0.04519 0.0
C233 C 0.65097 0.20636 0.08067 0.0
C234 C 0.64825 0.14013 0.06965 0.0
C235 C 0.59065 0.10627 0.03542 0.0
C236 C 0.5437 0.22472 0.72366 0.0
C237 C 0.51356 0.22627 0.79699 0.0
H238 H 0.60312 0.21315 0.592 0.0
C239 C 0.52107 0.08753 0.60738 0.0
C240 C 0.59704 0.03449 0.68077 0.0
C241 C 0.45096 0.94104 0.5057 0.0
C242 C 0.39191 0.91223 0.46605 0.0
C243 C 0.44602 0.8748 0.4902 0.0
C244 C 0.46728 0.90627 0.50772 0.0
C245 C 0.4085 0.87771 0.46822 0.0
C246 C 0.41337 0.94363 0.48581 0.0
C247 C 0.47214 0.97518 0.52147 0.0
H248 H 0.59984 0.23395 0.05349 0.0
H249 H 0.56392 0.17732 0.03268 0.0
H250 H 0.66607 0.2315 0.09545 0.0
H251 H 0.66152 0.11373 0.07721 0.0
H252 H 0.45884 0.84817 0.49106 0.0
H253 H 0.49638 0.90333 0.52097 0.0
H254 H 0.39263 0.85323 0.4506 0.0
H255 H 0.40109 0.97055 0.48018 0.0
C256 C 0.46029 0.4751 1.00703 0.0
C257 C 0.50017 0.46261 0.16809 0.0
C258 C 0.49013 0.48457 0.07327 0.0
C259 C 0.47955 0.43117 0.19471 0.0
C260 C 0.43841 0.44455 0.03609 0.0
C261 C 0.44839 0.42244 0.1298 0.0
N262 N 0.45334 0.49517 0.91148 0.0
C263 C 0.42351 0.48759 0.84463 0.0
C264 C 0.40791 0.43649 0.96763 0.0
C265 C 0.40031 0.45828 0.87185 0.0
Gd266 Gd 0.56536 0.52626 0.63158 0.0
Gd267 Gd 0.49325 0.54405 0.86847 0.0
N268 N 0.509 0.51554 0.0459 0.0
C269 C 0.53047 0.47306 0.23379 0.0
C270 C 0.53556 0.52791 0.11882 0.0
C271 C 0.54809 0.50605 0.20942 0.0
H272 H 0.54705 0.5548 0.10887 0.0
H273 H 0.57072 0.51518 0.26238 0.0
H274 H 0.51397 0.54377 0.39674 0.0
H275 H 0.41773 0.50398 0.76955 0.0
H276 H 0.50835 0.59185 0.24893 0.0
H277 H 0.53957 0.45662 0.30589 0.0
H278 H 0.48701 0.4139 0.26675 0.0
H279 H 0.64657 0.54377 0.76676 0.0
H280 H 0.39032 0.41337 0.98724 0.0
H281 H 0.37682 0.45227 0.8182 0.0
H282 H 0.60752 0.67414 0.32896 0.0
H283 H 0.43238 0.39846 0.15224 0.0
H284 H 0.68807 0.64531 0.64018 0.0
H285 H 0.69252 0.5927 0.77315 0.0
N286 N 0.61303 0.57019 0.64156 0.0
C287 C 0.61177 0.59738 0.5612 0.0
C288 C 0.64269 0.56743 0.71287 0.0
C289 C 0.66704 0.62431 0.63909 0.0
C290 C 0.66954 0.59478 0.7147 0.0
C291 C 0.63843 0.62548 0.55926 0.0
H292 H 0.65641 0.67523 0.47416 0.0
N293 N 0.55955 0.56874 0.4797 0.0
C294 C 0.58466 0.59639 0.47717 0.0
C295 C 0.55508 0.62221 0.30967 0.0
C296 C 0.58286 0.62401 0.39238 0.0
C297 C 0.53312 0.56627 0.39669 0.0
C298 C 0.52997 0.59339 0.31245 0.0
O299 O 0.50174 0.4845 0.8092 0.0
O300 O 0.56271 0.48421 0.7777 0.0
O301 O 0.56819 0.47605 0.5318 0.0
O302 O 0.61419 0.51325 0.53597 0.0
O303 O 0.55132 0.56501 0.91141 0.0
O304 O 0.58694 0.52391 0.81587 0.0
O305 O 0.52981 0.57751 0.62385 0.0
O306 O 0.52515 0.59551 0.80753 0.0
O307 O 0.46671 0.57808 0.99661 0.0
O308 O 0.4409 0.56846 0.83263 0.0
O309 O 0.50753 0.50731 0.57751 0.0
O310 O 0.47097 0.54488 0.68591 0.0
C311 C 0.53305 0.46691 0.8126 0.0
C312 C 0.58237 0.54691 0.90135 0.0
C313 C 0.62688 0.45105 0.55801 0.0
C314 C 0.64958 0.38892 0.54418 0.0
C315 C 0.66425 0.42516 0.71134 0.0
C316 C 0.64428 0.45436 0.66551 0.0
C317 C 0.66655 0.39221 0.6515 0.0
C318 C 0.63004 0.41847 0.49741 0.0
C319 C 0.60311 0.48028 0.51367 0.0
C320 C 0.60861 0.65261 0.39303 0.0
C321 C 0.63635 0.6533 0.47605 0.0
H322 H 0.55288 0.64277 0.24288 0.0
C323 C 0.5298 0.60416 0.69866 0.0
C324 C 0.47566 0.52337 0.59672 0.0
C325 C 0.44091 0.62837 0.89346 0.0
C326 C 0.47341 0.68674 0.88532 0.0
C327 C 0.42135 0.67583 0.76007 0.0
C328 C 0.41688 0.64092 0.80755 0.0
C329 C 0.44968 0.69862 0.79795 0.0
C330 C 0.4685 0.65175 0.93314 0.0
C331 C 0.44207 0.58911 0.92263 0.0
H332 H 0.67715 0.4278 0.79465 0.0
H333 H 0.64182 0.47916 0.71515 0.0
H334 H 0.6809 0.36926 0.68935 0.0
H335 H 0.61578 0.41543 0.41613 0.0
H336 H 0.40314 0.68504 0.69261 0.0
H337 H 0.39569 0.62311 0.77366 0.0
H338 H 0.45281 0.72554 0.75992 0.0
H339 H 0.48646 0.64248 1.00133 0.0
C340 C 0.07548 0.43441 0.96601 0.0
C341 C 0.1061 0.46152 0.13076 0.0
C342 C 0.07892 0.46306 0.04437 0.0
C343 C 0.12955 0.4313 0.13716 0.0
C344 C 0.09849 0.40361 0.97457 0.0
C345 C 0.12552 0.4023 0.0602 0.0
N346 N 0.04981 0.43669 0.88127 0.0
C347 C 0.04469 0.40843 0.80629 0.0
C348 C 0.09382 0.37499 0.89641 0.0
C349 C 0.06665 0.37733 0.81245 0.0
Gd350 Gd 0.03187 0.56677 0.65507 0.0
Gd351 Gd 1.01433 0.49014 0.88009 0.0
N352 N 0.05668 0.49282 0.03387 0.0
C353 C 0.10937 0.49066 0.20745 0.0
C354 C 0.05908 0.52061 0.11167 0.0
C355 C 0.08563 0.52018 0.19819 0.0
H356 H 0.04036 0.54299 0.11061 0.0
H357 H 0.08749 0.54254 0.25862 0.0
H358 H 0.04141 0.51414 0.41198 0.0
H359 H 0.02299 0.40915 0.74357 0.0
H360 H 1.00184 0.49262 0.25554 0.0
H361 H 0.1299 0.49046 0.27474 0.0
H362 H 0.15076 0.42995 0.20221 0.0
H363 H 0.99181 0.64126 0.76245 0.0
H364 H 0.11083 0.35083 0.90077 0.0
H365 H 0.06243 0.35505 0.75284 0.0
H366 H 0.89999 0.57384 0.26503 0.0
H367 H 0.14356 0.37897 0.06741 0.0
H368 H 0.90117 0.66914 0.54583 0.0
H369 H 0.94002 0.68196 0.71531 0.0
N370 N 0.98257 0.60625 0.61989 0.0
C371 C 0.96204 0.59911 0.52485 0.0
C372 C 0.97501 0.63556 0.6881 0.0
C373 C 0.9241 0.65148 0.56521 0.0
C374 C 0.94585 0.6587 0.66137 0.0
C375 C 0.93178 0.62122 0.49626 0.0
H376 H 0.88575 0.62803 0.38053 0.0
N377 N 1.00121 0.54926 0.48392 0.0
C378 C 0.9706 0.56884 0.45834 0.0
C379 C 0.95875 0.53037 0.29387 0.0
C380 C 0.94837 0.55963 0.36318 0.0
C381 C 1.01413 0.52485 0.40554 0.0
C382 C 0.99233 0.5136 0.31326 0.0
O383 O 0.07457 0.50075 0.83524 0.0
O384 O 0.07619 0.56178 0.79328 0.0
O385 O 0.07882 0.57753 0.5449 0.0
O386 O 0.04462 0.6219 0.59854 0.0
O387 O 1.00293 0.54873 0.94835 0.0
O388 O 0.03504 0.59013 0.83528 0.0
O389 O 0.97277 0.55748 0.71804 0.0
O390 O 0.97208 0.49595 0.73651 0.0
O391 O 0.96378 0.48969 0.97875 0.0
O392 O 0.996 0.44069 0.96556 0.0
O393 O 0.05171 0.50817 0.60957 0.0
O394 O 1.00866 0.47191 0.69523 0.0
C395 C 0.09245 0.53208 0.83218 0.0
C396 C 1.01736 0.58185 0.93054 0.0
C397 C 0.10779 0.63314 0.5956 0.0
C398 C 0.17197 0.64896 0.57323 0.0
C399 C 0.14002 0.66707 0.74482 0.0
C400 C 0.10798 0.65066 0.70298 0.0
C401 C 0.1722 0.66581 0.68084 0.0
C402 C 0.13971 0.63296 0.53076 0.0
C403 C 0.07549 0.61288 0.55358 0.0
C404 C 0.91738 0.58069 0.3374 0.0
C405 C 0.90943 0.61172 0.40263 0.0
H406 H 0.94225 0.52216 0.22084 0.0
C407 C 0.95475 0.52631 0.71025 0.0
C408 C 0.03313 0.4769 0.61456 0.0
C409 C 0.93297 0.43374 0.94485 0.0
C410 C 0.86967 0.4144 0.96245 0.0
C411 C 0.90305 0.40039 0.78981 0.0
C412 C 0.93402 0.41783 0.83512 0.0
C413 C 0.87064 0.39907 0.85269 0.0
C414 C 0.90092 0.43149 1.00834 0.0
C415 C 0.96448 0.45419 0.99088 0.0
H416 H 0.14007 0.68004 0.82811 0.0
H417 H 0.08368 0.65106 0.75547 0.0
H418 H 0.19717 0.67753 0.71537 0.0
H419 H 0.13992 0.61887 0.44897 0.0
H420 H 0.90394 0.38868 0.70476 0.0
H421 H 0.95849 0.41945 0.78359 0.0
H422 H 0.84638 0.38671 0.81548 0.0
H423 H 0.89977 0.44451 0.09177 0.0
C424 C 0.1497 0.08902 0.38713 0.0
C425 C 0.1713 0.05871 0.35686 0.0
H426 H 0.1031 0.1089 0.48101 0.0
C427 C 0.16125 0.02424 0.40035 0.0
H428 H 0.15678 0.11605 0.35587 0.0
C429 C 0.13083 1.02022 0.47325 0.0
C430 C 0.10922 0.0505 0.50471 0.0
H431 H 0.17706 1.00029 0.37859 0.0
H432 H 0.1242 0.99312 0.50517 0.0
C433 C 0.11887 0.08495 0.45906 0.0
C434 C 0.49958 0.17942 0.45463 0.0
C435 C 0.51674 0.17594 0.34735 0.0
H436 H 0.48665 0.15483 0.61768 0.0
C437 C 0.53479 0.14269 0.32531 0.0
H438 H 0.48525 0.2044 0.47516 0.0
C439 C 0.53571 0.11395 0.4077 0.0
C440 C 0.51873 0.11745 0.51579 0.0
H441 H 0.54833 0.13887 0.24408 0.0
H442 H 0.55025 0.08911 0.38714 0.0
C443 C 0.50048 0.15078 0.53693 0.0
C444 C 0.38239 0.53877 0.44742 0.0
C445 C 0.38447 0.5169 0.34882 0.0
H446 H 0.4087 0.55803 0.60084 0.0
C447 C 0.41683 0.49686 0.33221 0.0
H448 H 0.358 0.55456 0.46368 0.0
C449 C 0.44621 0.49851 0.4118 0.0
C450 C 0.44433 0.52053 0.51069 0.0
H451 H 0.41929 0.47979 0.25735 0.0
H452 H 0.47041 0.48248 0.39601 0.0
C453 C 0.41173 0.54061 0.52663 0.0
C454 C 1.01095 0.39552 0.41476 0.0
C455 C 0.04393 0.38984 0.3559 0.0
H456 H 0.98183 0.42664 0.54104 0.0
C457 C 0.07355 0.41326 0.38273 0.0
H458 H 0.98749 0.3782 0.39713 0.0
C459 C 0.07016 0.44182 0.46402 0.0
C460 C 0.03723 0.44733 0.5239 0.0
H461 H 0.09961 0.40929 0.34153 0.0
H462 H 0.09361 0.45917 0.48156 0.0
C463 C 1.00775 0.42349 0.49773 0.0
C464 C 0.8774 0.03895 0.03825 0.0
C465 C 0.88405 0.0248 0.14855 0.0
H466 H 0.89895 0.05191 0.87206 0.0
C467 C 0.91975 1.01298 0.1743 0.0
H468 H 0.85025 0.04817 1.01503 0.0
C469 C 0.94795 1.01492 0.09174 0.0
C470 C 0.94148 0.02895 0.98073 0.0
H471 H 0.92579 1.00197 0.25841 0.0
H472 H 0.9749 1.00545 0.11475 0.0
C473 C 0.90558 0.04106 0.95596 0.0
C474 C 0.52759 0.93886 0.23474 0.0
C475 C 0.54467 0.90497 0.21468 0.0
H476 H 0.5136 0.99253 0.17045 0.0
C477 C 0.56162 0.90045 0.10734 0.0
H478 H 0.51402 0.94344 0.31544 0.0
C479 C 0.56143 0.92871 0.02336 0.0
C480 C 0.54419 0.96272 0.04288 0.0
H481 H 0.57512 0.87492 0.08787 0.0
H482 H 0.57496 0.92382 0.94258 0.0
C483 C 0.52746 0.96721 0.15097 0.0
C484 C 0.66574 0.52337 0.09213 0.0
C485 C 0.66849 0.55338 0.16711 0.0
H486 H 0.63716 0.49781 0.95177 0.0
C487 C 0.64277 0.58173 0.15334 0.0
H488 H 0.68481 0.50094 0.09954 0.0
C489 C 0.61521 0.58008 0.06745 0.0
C490 C 0.61228 0.54988 0.99246 0.0
H491 H 0.64397 0.60534 0.20911 0.0
H492 H 0.59608 0.60249 0.06002 0.0
C493 C 0.63826 0.52167 1.00653 0.0
C494 C 0.99359 0.63376 0.21068 0.0
C495 C 1.01485 0.66594 0.20312 0.0
H496 H 0.97691 0.58283 0.13225 0.0
C497 C 0.03636 0.67049 0.10418 0.0
H498 H 0.97662 0.62948 0.28492 0.0
C499 C 0.03683 0.64364 0.01666 0.0
C500 C 1.01577 0.61105 0.0242 0.0
H501 H 0.05306 0.69487 0.0944 0.0
H502 H 0.05414 0.64844 0.94311 0.0
C503 C 0.99393 0.6069 0.123 0.0
C504 C 0.95381 0.26273 0.42035 0.0
C505 C 0.94576 0.25875 0.30293 0.0
H506 H 0.94419 0.2421 0.58933 0.0
C507 C 0.91405 0.23942 0.27035 0.0
H508 H 0.97788 0.2776 0.4487 0.0
C509 C 0.89505 0.21872 0.35133 0.0
C510 C 0.90721 0.2179 0.46549 0.0
H511 H 0.90656 0.23686 0.18074 0.0
H512 H 0.87394 0.19992 0.3224 0.0
C513 C 0.93439 0.24249 0.50146 0.0
C514 C 0.30644 0.96317 0.41438 0.0
C515 C 0.30338 0.95718 0.29588 0.0
H516 H 0.33768 0.9518 0.56571 0.0
C517 C 0.31973 0.92595 0.24866 0.0
H518 H 0.29379 0.98675 0.45347 0.0
C519 C 0.34524 0.90617 0.3128 0.0
C520 C 0.35406 0.91738 0.42453 0.0
H521 H 0.31717 0.92041 0.15775 0.0
H522 H 0.36175 0.886 0.26945 0.0
C523 C 0.33176 0.94324 0.47868 0.0
C524 C 0.60153 0.30797 0.43749 0.0
C525 C 0.6118 0.31053 0.32174 0.0
H526 H 0.60767 0.33131 0.60436 0.0
C527 C 0.64414 0.3293 0.29298 0.0
H528 H 0.57692 0.2934 0.46241 0.0
C529 C 0.66149 0.35124 0.37431 0.0
C530 C 0.64695 0.35379 0.48489 0.0
H531 H 0.6531 0.33084 0.20464 0.0
H532 H 0.68295 0.36982 0.34679 0.0
C533 C 0.61924 0.32954 0.51916 0.0
C534 C 0.249 0.59666 0.45636 0.0
C535 C 0.24692 0.60813 0.34135 0.0
H536 H 0.22654 0.60235 0.62451 0.0
C537 C 0.22884 0.64091 0.31443 0.0
H538 H 0.26281 0.57153 0.47955 0.0
C539 C 0.20795 0.65833 0.39731 0.0
C540 C 0.20557 0.64343 0.50792 0.0
H541 H 0.22746 0.65065 0.22663 0.0
H542 H 0.19037 0.68072 0.37164 0.0
C543 C 0.22836 0.61435 0.53956 0.0
C544 C 0.97155 0.8463 0.06411 0.0
C545 C 0.98778 0.81432 0.10651 0.0
H546 H 0.97564 0.88942 0.94064 0.0
C547 C 1.01215 0.79501 0.03581 0.0
H548 H 0.95169 0.86099 0.11466 0.0
C549 C 0.02621 0.81149 0.93794 0.0
C550 C 1.01617 0.84739 0.91125 0.0
H551 H 0.02475 0.76977 0.06416 0.0
H552 H 0.04931 0.79873 0.89659 0.0
C553 C 0.98505 0.86231 0.96401 0.0
C554 C 0.74008 0.15865 0.30353 0.0
C555 C 0.75724 0.12838 0.25314 0.0
H556 H 0.69728 0.19793 0.28554 0.0
C557 C 0.75517 0.12416 0.13359 0.0
H558 H 0.74206 0.16305 0.39519 0.0
C559 C 0.72988 0.14447 0.07055 0.0
C560 C 0.70663 0.16889 0.12703 0.0
H561 H 0.7685 0.10146 0.09176 0.0
H562 H 0.72454 0.13693 0.98222 0.0
C563 C 0.71457 0.17881 0.24054 0.0
C564 C 0.55069 0.715 0.07481 0.0
C565 C 0.5359 0.74723 0.11931 0.0
H566 H 0.54319 0.67096 0.957 0.0
C567 C 0.50707 0.76452 0.06057 0.0
H568 H 0.5735 0.7017 0.11708 0.0
C569 C 0.48939 0.74677 0.97067 0.0
C570 C 0.50045 0.71162 0.93861 0.0
H571 H 0.4953 0.78963 0.09246 0.0
H572 H 0.46444 0.75859 0.93695 0.0
C573 C 0.53332 0.69752 0.98345 0.0
C574 C 0.79278 0.46525 0.07877 0.0
C575 C 0.79616 0.45445 0.19414 0.0
H576 H 0.81364 0.45873 0.90919 0.0
C577 C 0.81372 0.42136 0.22071 0.0
H578 H 0.77917 0.49048 0.05557 0.0
C579 C 0.8336 0.40336 0.1367 0.0
C580 C 0.83549 0.41813 0.0258 0.0
H581 H 0.81585 0.41201 0.30877 0.0
H582 H 0.85136 0.38106 0.16192 0.0
C583 C 0.81234 0.44694 0.99453 0.0
C584 C 0.98979 0.19565 0.92163 0.0
C585 C 0.02007 0.21124 0.98057 0.0
H586 H 0.96757 0.15088 0.82416 0.0
C587 C 0.05363 0.19262 0.97089 0.0
H588 H 0.96343 0.20897 0.92447 0.0
C589 C 0.05608 0.15893 0.91045 0.0
C590 C 0.02502 0.14212 0.8592 0.0
H591 H 0.07767 0.20314 1.0144 0.0
H592 H 0.08234 0.14561 0.90636 0.0
C593 C 0.99213 0.16194 0.86326 0.0
C594 C 0.39045 0.05126 0.09787 0.0
C595 C 0.35819 0.04632 0.03305 0.0
H596 H 0.44898 0.05417 0.10072 0.0
C597 C 0.36185 0.04299 0.91323 0.0
H598 H 0.38897 0.05256 0.19054 0.0
C599 C 0.39674 0.04396 0.86061 0.0
C600 C 0.42914 0.04787 0.92631 0.0
H601 H 0.33789 0.03778 0.86076 0.0
H602 H 0.39837 0.04043 0.76863 0.0
C603 C 0.42512 0.05193 0.04584 0.0
C604 C 0.5735 0.3795 0.94894 0.0
C605 C 0.54264 0.35885 0.98574 0.0
H606 H 0.59494 0.4286 0.87191 0.0
C607 C 0.50818 0.37241 0.9509 0.0
H608 H 0.60087 0.36995 0.96747 0.0
C609 C 0.505 0.40617 0.8896 0.0
C610 C 0.53586 0.42843 0.86452 0.0
H611 H 0.48354 0.35769 0.97426 0.0
H612 H 0.47817 0.41511 0.86308 0.0
C613 C 0.5702 0.41352 0.89202 0.0
C614 C 0.18481 0.50652 0.97698 0.0
C615 C 0.2004 0.54108 1.00087 0.0
H616 H 0.13998 0.47632 0.90167 0.0
C617 C 0.18179 0.57198 0.95628 0.0
H618 H 0.19786 0.48194 1.00877 0.0
C619 C 0.14779 0.56887 0.89954 0.0
C620 C 0.13094 0.53461 0.88214 0.0
H621 H 0.19287 0.5992 0.96952 0.0
H622 H 0.13416 0.59368 0.87254 0.0
C623 C 0.15094 0.50338 0.9174 0.0
C624 C 0.98704 0.86971 0.58328 0.0
C625 C 1.01337 0.85723 0.50434 0.0
H626 H 0.96925 0.91282 0.69654 0.0
C627 C 0.04357 0.88076 0.48446 0.0
H628 H 0.96274 0.85341 0.59872 0.0
C629 C 0.04731 0.91504 0.5406 0.0
C630 C 0.02058 0.92793 0.61737 0.0
H631 H 0.06391 0.87312 0.4219 0.0
H632 H 0.07069 0.93217 0.52041 0.0
C633 C 0.99056 0.90428 0.63849 0.0
C634 C 0.70178 0.04002 0.63183 0.0
C635 C 0.7046 0.03629 0.51177 0.0
H636 H 0.66641 0.04216 0.77947 0.0
C637 C 0.67193 0.03042 0.44988 0.0
H638 H 0.72603 0.04601 0.68215 0.0
C639 C 0.63771 0.02909 0.50489 0.0
C640 C 0.63453 0.0334 0.62474 0.0
H641 H 0.67266 0.02889 0.35715 0.0
H642 H 0.6135 0.02614 0.45195 0.0
C643 C 0.66736 0.03834 0.68751 0.0
C644 C 0.50584 0.68643 0.50666 0.0
C645 C 0.53333 0.71286 0.53039 0.0
H646 H 0.48341 0.6328 0.53873 0.0
C647 C 0.55724 0.7046 0.62277 0.0
H648 H 0.48679 0.69106 0.43677 0.0
C649 C 0.55477 0.67061 0.6838 0.0
C650 C 0.52854 0.64351 0.65399 0.0
H651 H 0.57929 0.72336 0.64335 0.0
H652 H 0.57491 0.66462 0.74945 0.0
C653 C 0.50381 0.65263 0.56565 0.0
C654 C 0.86063 0.55344 0.57755 0.0
C655 C 0.84761 0.51981 0.53332 0.0
H656 H 0.9027 0.58165 0.67454 0.0
C657 C 0.86821 0.48834 0.56364 0.0
H658 H 0.84579 0.57841 0.56012 0.0
C659 C 0.902 0.49069 0.62157 0.0
C660 C 0.91644 0.52442 0.65803 0.0
H661 H 0.85884 0.46129 0.53951 0.0
H662 H 0.91729 0.46576 0.63518 0.0
C663 C 0.89402 0.55548 0.64094 0.0
loop_
_geom_bond_atom_site_label_1
_geom_bond_atom_site_label_2
_geom_bond_distance
_geom_bond_site_symmetry_2
_ccdc_geom_bond_type
H0 C3 0.929 . S
H1 C6 0.929 . S
H2 C8 0.930 . S
C3 H0 0.929 . S
C3 C4 1.398 . S
C3 C5 1.396 . S
C4 C3 1.398 . S
C4 C8 1.407 . S
C5 C3 1.396 . S
C5 C6 1.394 . S
C6 H1 0.929 . S
C6 C5 1.394 . S
C6 C7 1.382 . S
C7 C6 1.382 . S
C7 C8 1.392 . S
C7 N9 1.420 . S
C8 H2 0.930 . S
C8 C4 1.407 . S
C8 C7 1.392 . S
N9 C7 1.420 . S
N9 C10 1.244 . S
C10 N9 1.244 . S
H11 C14 0.929 . S
H12 C17 0.929 . S
H13 C19 0.930 . S
C14 H11 0.929 . S
C14 C15 1.398 . S
C14 C16 1.396 . S
C15 C14 1.398 . S
C15 C19 1.407 . S
C16 C14 1.396 . S
C16 C17 1.394 . S
C17 H12 0.929 . S
C17 C16 1.394 . S
C17 C18 1.382 . S
C18 C17 1.382 . S
C18 C19 1.392 . S
C18 N20 1.418 1_655 S
C19 H13 0.930 . S
C19 C15 1.407 . S
C19 C18 1.392 . S
N20 C18 1.418 1_455 S
N20 C21 1.238 1_455 S
C21 N20 1.238 1_655 S
H22 C25 0.929 . S
H23 C28 0.929 . S
H24 C30 0.933 . S
C25 H22 0.929 . S
C25 C26 1.398 . S
C25 C27 1.396 . S
C26 C25 1.398 . S
C26 C30 1.407 . S
C27 C25 1.396 . S
C27 C28 1.394 . S
C28 H23 0.929 . S
C28 C27 1.394 . S
C28 C29 1.382 . S
C29 C28 1.382 . S
C29 C30 1.392 . S
C29 N31 1.420 1_565 S
C30 H24 0.933 . S
C30 C26 1.407 . S
C30 C29 1.392 . S
N31 C29 1.420 1_545 S
N31 C32 1.244 1_545 S
C32 N31 1.244 1_565 S
H33 C36 0.929 . S
H34 C39 0.929 . S
H35 C41 0.930 . S
C36 H33 0.929 . S
C36 C37 1.398 . S
C36 C38 1.396 . S
C37 C36 1.398 . S
C37 C41 1.407 . S
C38 C36 1.396 . S
C38 C39 1.394 . S
C39 H34 0.929 . S
C39 C38 1.394 . S
C39 C40 1.382 . S
C40 C39 1.382 . S
C40 C41 1.392 . S
C40 N42 1.420 . S
C41 H35 0.930 . S
C41 C37 1.407 . S
C41 C40 1.392 . S
N42 C40 1.420 . S
N42 C43 1.244 . S
C43 N42 1.244 . S
H44 C47 0.929 . S
H45 C50 0.929 . S
H46 C52 0.930 . S
C47 H44 0.929 . S
C47 C48 1.398 1_554 S
C47 C49 1.396 . S
C48 C47 1.398 1_556 S
C48 C52 1.407 . S
C49 C47 1.396 . S
C49 C50 1.394 . S
C50 H45 0.929 . S
C50 C49 1.394 . S
C50 C51 1.382 . S
C51 C50 1.382 . S
C51 C52 1.392 1_554 S
C51 N53 1.420 . S
C52 H46 0.930 . S
C52 C48 1.407 . S
C52 C51 1.392 1_556 S
N53 C51 1.420 . S
N53 C54 1.244 . S
C54 N53 1.244 . S
H55 C58 0.929 . S
H56 C61 0.929 . S
H57 C63 0.930 . S
C58 H55 0.929 . S
C58 C59 1.398 1_554 S
C58 C60 1.396 . S
C59 C58 1.398 1_556 S
C59 C63 1.407 . S
C60 C58 1.396 . S
C60 C61 1.394 . S
C61 H56 0.929 . S
C61 C60 1.394 . S
C61 C62 1.382 . S
C62 C61 1.382 . S
C62 C63 1.392 1_554 S
C62 N64 1.420 . S
C63 H57 0.930 . S
C63 C59 1.407 . S
C63 C62 1.392 1_556 S
N64 C62 1.420 . S
N64 C65 1.244 . S
C65 N64 1.244 . S
H66 C69 0.929 . S
H67 C72 0.929 . S
H68 C74 0.930 . S
C69 H66 0.929 . S
C69 C70 1.398 1_554 S
C69 C71 1.396 . S
C70 C69 1.398 1_556 S
C70 C74 1.407 . S
C71 C69 1.396 . S
C71 C72 1.394 . S
C72 H67 0.929 . S
C72 C71 1.394 . S
C72 C73 1.382 . S
C73 C72 1.382 . S
C73 C74 1.392 1_554 S
C73 N75 1.420 . S
C74 H68 0.930 . S
C74 C70 1.407 . S
C74 C73 1.392 1_556 S
N75 C73 1.420 . S
N75 C76 1.244 . S
C76 N75 1.244 . S
H77 C80 0.929 . S
H78 C83 0.929 . S
H79 C85 0.930 . S
C80 H77 0.929 . S
C80 C81 1.398 1_554 S
C80 C82 1.396 . S
C81 C80 1.398 1_556 S
C81 C85 1.407 . S
C82 C80 1.396 . S
C82 C83 1.394 . S
C83 H78 0.929 . S
C83 C82 1.394 . S
C83 C84 1.382 . S
C84 C83 1.382 . S
C84 C85 1.392 1_554 S
C84 N86 1.420 . S
C85 H79 0.930 . S
C85 C81 1.407 . S
C85 C84 1.392 1_556 S
N86 C84 1.420 . S
N86 C87 1.244 . S
C87 N86 1.244 . S
C88 C90 1.422 . S
C88 C92 1.415 . S
C88 N94 1.369 1_554 S
C89 C90 1.421 . S
C89 C91 1.417 . S
C89 C101 1.422 . S
C90 C88 1.422 . S
C90 C89 1.421 . S
C90 N100 1.359 . S
C91 C89 1.417 . S
C91 C93 1.329 . S
C91 H110 0.930 . S
C92 C88 1.415 . S
C92 C93 1.437 . S
C92 C96 1.413 1_554 S
C93 C91 1.329 . S
C93 C92 1.437 . S
C93 H115 0.929 . S
N94 C88 1.369 1_556 S
N94 C95 1.338 . S
N94 Gd99 2.622 1_545 S
C95 N94 1.338 . S
C95 C97 1.378 . S
C95 H107 0.929 1_545 S
C96 C92 1.413 1_556 S
C96 C97 1.348 . S
C96 H112 0.931 . S
C97 C95 1.378 . S
C97 C96 1.348 . S
C97 H113 0.930 . S
Gd98 N118 2.622 . S
Gd98 N125 2.570 . S
Gd98 O132 2.353 1_655 S
Gd98 O133 2.468 . S
Gd98 O134 2.427 . S
Gd98 O136 2.388 . S
Gd98 O137 2.386 1_545 S
Gd98 O141 2.307 1_655 S
Gd98 C151 2.805 . S
Gd99 N94 2.622 1_565 S
Gd99 N100 2.570 1_566 S
Gd99 O131 2.386 1_565 S
Gd99 O135 2.307 1_465 S
Gd99 O138 2.353 . S
Gd99 O139 2.468 . S
Gd99 O140 2.427 . S
Gd99 O142 2.388 . S
Gd99 C163 2.805 . S
N100 C90 1.359 . S
N100 Gd99 2.570 1_544 S
N100 C102 1.343 . S
C101 C89 1.422 . S
C101 C103 1.321 . S
C101 H109 0.931 . S
C102 N100 1.343 . S
C102 C103 1.390 . S
C102 H104 0.960 . S
C103 C101 1.321 . S
C103 C102 1.390 . S
C103 H105 0.930 . S
H104 C102 0.960 . S
H105 C103 0.930 . S
H106 C129 0.931 1_455 S
H107 C95 0.929 1_565 S
H108 C130 0.930 1_455 S
H109 C101 0.931 . S
H110 C91 0.930 . S
H111 C120 0.929 . S
H112 C96 0.931 . S
H113 C97 0.930 . S
H114 C152 0.930 . S
H115 C93 0.929 . S
H116 C121 0.931 . S
H117 C122 0.930 . S
N118 Gd98 2.622 . S
N118 C119 1.369 1_545 S
N118 C120 1.338 . S
C119 N118 1.369 1_565 S
C119 C123 1.415 . S
C119 C126 1.422 . S
C120 H111 0.929 . S
C120 N118 1.338 . S
C120 C122 1.378 . S
C121 H116 0.931 . S
C121 C122 1.348 1_565 S
C121 C123 1.413 . S
C122 H117 0.930 . S
C122 C120 1.378 . S
C122 C121 1.348 1_545 S
C123 C119 1.415 . S
C123 C121 1.413 . S
C123 C153 1.437 . S
H124 C153 0.929 . S
N125 Gd98 2.570 . S
N125 C126 1.359 1_545 S
N125 C129 1.343 . S
C126 C119 1.422 . S
C126 N125 1.359 1_565 S
C126 C128 1.421 . S
C127 C128 1.422 . S
C127 C130 1.321 . S
C127 H154 0.931 . S
C128 C126 1.421 . S
C128 C127 1.422 . S
C128 C152 1.417 . S
C129 H106 0.931 1_655 S
C129 N125 1.343 . S
C129 C130 1.390 1_545 S
C130 H108 0.930 1_655 S
C130 C127 1.321 . S
C130 C129 1.390 1_565 S
O131 Gd99 2.386 1_545 S
O131 C143 1.265 . S
O132 Gd98 2.353 1_455 S
O132 C143 1.242 . S
O133 Gd98 2.468 . S
O133 C151 1.263 . S
O134 Gd98 2.427 . S
O134 C151 1.252 . S
O135 Gd99 2.307 1_645 S
O135 C144 1.261 . S
O136 Gd98 2.388 . S
O136 C144 1.252 . S
O137 Gd98 2.386 1_565 S
O137 C155 1.265 . S
O138 Gd99 2.353 . S
O138 C155 1.242 1_455 S
O139 Gd99 2.468 . S
O139 C163 1.263 . S
O140 Gd99 2.427 . S
O140 C163 1.252 . S
O141 Gd98 2.307 1_455 S
O141 C156 1.261 . S
O142 Gd99 2.388 . S
O142 C156 1.252 1_565 S
C143 O131 1.265 . S
C143 O132 1.242 . S
C144 O135 1.261 . S
C144 O136 1.252 . S
C145 C148 1.394 . S
C145 C150 1.370 . S
C145 C151 1.500 . S
C146 C149 1.383 . S
C146 C150 1.395 . S
C147 C148 1.396 . S
C147 C149 1.365 . S
C147 H164 0.929 . S
C148 C145 1.394 . S
C148 C147 1.396 . S
C148 H165 0.930 . S
C149 C146 1.383 . S
C149 C147 1.365 . S
C149 H166 0.931 . S
C150 C145 1.370 . S
C150 C146 1.395 . S
C150 H167 0.930 1_655 S
C151 Gd98 2.805 . S
C151 O133 1.263 . S
C151 O134 1.252 . S
C151 C145 1.500 . S
C152 H114 0.930 . S
C152 C128 1.417 . S
C152 C153 1.329 . S
C153 C123 1.437 . S
C153 H124 0.929 . S
C153 C152 1.329 . S
H154 C127 0.931 . S
C155 O137 1.265 . S
C155 O138 1.242 1_655 S
C156 O141 1.261 . S
C156 O142 1.252 1_545 S
C157 C160 1.394 . S
C157 C162 1.370 . S
C157 C163 1.500 1_554 S
C158 C161 1.383 . S
C158 C162 1.395 . S
C159 C160 1.396 . S
C159 C161 1.365 . S
C159 H168 0.929 . S
C160 C157 1.394 . S
C160 C159 1.396 . S
C160 H169 0.930 1_554 S
C161 C158 1.383 . S
C161 C159 1.365 . S
C161 H170 0.931 . S
C162 C157 1.370 . S
C162 C158 1.395 . S
C162 H171 0.930 . S
C163 Gd99 2.805 . S
C163 O139 1.263 . S
C163 O140 1.252 . S
C163 C157 1.500 1_556 S
H164 C147 0.929 . S
H165 C148 0.930 . S
H166 C149 0.931 . S
H167 C150 0.930 1_455 S
H168 C159 0.929 . S
H169 C160 0.930 1_556 S
H170 C161 0.931 . S
H171 C162 0.930 . S
C172 C174 1.422 . S
C172 C176 1.415 . S
C172 N178 1.369 . S
C173 C174 1.421 . S
C173 C175 1.417 . S
C173 C185 1.422 . S
C174 C172 1.422 . S
C174 C173 1.421 . S
C174 N184 1.359 . S
C175 C173 1.417 . S
C175 C177 1.329 . S
C175 H194 0.930 . S
C176 C172 1.415 . S
C176 C177 1.437 . S
C176 C180 1.413 . S
C177 C175 1.329 . S
C177 C176 1.437 . S
C177 H199 0.929 . S
N178 C172 1.369 . S
N178 C179 1.338 . S
N178 Gd183 2.622 . S
C179 N178 1.338 . S
C179 C181 1.378 . S
C179 H191 0.929 . S
C180 C176 1.413 . S
C180 C181 1.348 . S
C180 H196 0.931 . S
C181 C179 1.378 . S
C181 C180 1.348 . S
C181 H197 0.930 . S
Gd182 N202 2.622 . S
Gd182 N209 2.570 . S
Gd182 O216 2.353 1_545 S
Gd182 O217 2.468 . S
Gd182 O218 2.427 1_556 S
Gd182 O220 2.388 . S
Gd182 O221 2.386 . S
Gd182 O225 2.307 . S
Gd182 C235 2.805 1_556 S
Gd183 N178 2.622 . S
Gd183 N184 2.570 . S
Gd183 O215 2.386 . S
Gd183 O219 2.307 1_565 S
Gd183 O222 2.353 1_565 S
Gd183 O223 2.468 . S
Gd183 O224 2.427 . S
Gd183 O226 2.388 . S
Gd183 C247 2.805 . S
N184 C174 1.359 . S
N184 Gd183 2.570 . S
N184 C186 1.343 . S
C185 C173 1.422 . S
C185 C187 1.321 . S
C185 H193 0.931 . S
C186 N184 1.343 . S
C186 C187 1.390 . S
C186 H188 0.931 . S
C187 C185 1.321 . S
C187 C186 1.390 . S
C187 H189 0.930 . S
H188 C186 0.931 . S
H189 C187 0.930 . S
H190 C213 0.931 . S
H191 C179 0.929 . S
H192 C214 0.930 . S
H193 C185 0.931 . S
H194 C175 0.930 . S
H195 C204 0.929 . S
H196 C180 0.931 . S
H197 C181 0.930 . S
H198 C236 0.930 . S
H199 C177 0.929 . S
H200 C205 0.931 1_554 S
H201 C206 0.930 . S
N202 Gd182 2.622 . S
N202 C203 1.369 . S
N202 C204 1.338 1_556 S
C203 N202 1.369 . S
C203 C207 1.415 . S
C203 C210 1.422 . S
C204 H195 0.929 . S
C204 N202 1.338 1_554 S
C204 C206 1.378 . S
C205 H200 0.931 1_556 S
C205 C206 1.348 1_556 S
C205 C207 1.413 . S
C206 H201 0.930 . S
C206 C204 1.378 . S
C206 C205 1.348 1_554 S
C207 C203 1.415 . S
C207 C205 1.413 . S
C207 C237 1.437 . S
H208 C237 0.929 . S
N209 Gd182 2.570 . S
N209 C210 1.359 . S
N209 C213 1.343 . S
C210 C203 1.422 . S
C210 N209 1.359 . S
C210 C212 1.421 . S
C211 C212 1.422 . S
C211 C214 1.321 . S
C211 H238 0.931 . S
C212 C210 1.421 . S
C212 C211 1.422 . S
C212 C236 1.417 . S
C213 H190 0.931 . S
C213 N209 1.343 . S
C213 C214 1.390 . S
C214 H192 0.930 . S
C214 C211 1.321 . S
C214 C213 1.390 . S
O215 Gd183 2.386 . S
O215 C227 1.265 . S
O216 Gd182 2.353 1_565 S
O216 C227 1.242 . S
O217 Gd182 2.468 . S
O217 C235 1.263 1_556 S
O218 Gd182 2.427 1_554 S
O218 C235 1.252 . S
O219 Gd183 2.307 1_545 S
O219 C228 1.261 . S
O220 Gd182 2.388 . S
O220 C228 1.252 . S
O221 Gd182 2.386 . S
O221 C239 1.265 . S
O222 Gd183 2.353 1_545 S
O222 C239 1.242 . S
O223 Gd183 2.468 . S
O223 C247 1.263 . S
O224 Gd183 2.427 . S
O224 C247 1.252 . S
O225 Gd182 2.307 . S
O225 C240 1.262 . S
O226 Gd183 2.388 . S
O226 C240 1.251 1_565 S
C227 O215 1.265 . S
C227 O216 1.242 . S
C228 O219 1.261 . S
C228 O220 1.252 . S
C229 C232 1.394 . S
C229 C234 1.370 . S
C229 C235 1.500 . S
C230 C233 1.383 . S
C230 C234 1.395 . S
C231 C232 1.396 . S
C231 C233 1.365 . S
C231 H248 0.929 . S
C232 C229 1.394 . S
C232 C231 1.396 . S
C232 H249 0.930 . S
C233 C230 1.383 . S
C233 C231 1.365 . S
C233 H250 0.931 . S
C234 C229 1.370 . S
C234 C230 1.395 . S
C234 H251 0.930 . S
C235 Gd182 2.805 1_554 S
C235 O217 1.263 1_554 S
C235 O218 1.252 . S
C235 C229 1.500 . S
C236 H198 0.930 . S
C236 C212 1.417 . S
C236 C237 1.329 . S
C237 C207 1.437 . S
C237 H208 0.929 . S
C237 C236 1.329 . S
H238 C211 0.931 . S
C239 O221 1.265 . S
C239 O222 1.242 . S
C240 O225 1.262 . S
C240 O226 1.251 1_545 S
C241 C244 1.394 . S
C241 C246 1.370 . S
C241 C247 1.500 . S
C242 C245 1.383 . S
C242 C246 1.395 . S
C243 C244 1.396 . S
C243 C245 1.365 . S
C243 H252 0.929 . S
C244 C241 1.394 . S
C244 C243 1.396 . S
C244 H253 0.930 . S
C245 C242 1.383 . S
C245 C243 1.365 . S
C245 H254 0.931 . S
C246 C241 1.370 . S
C246 C242 1.395 . S
C246 H255 0.930 1_565 S
C247 Gd183 2.805 . S
C247 O223 1.263 . S
C247 O224 1.252 . S
C247 C241 1.500 . S
H248 C231 0.929 . S
H249 C232 0.930 . S
H250 C233 0.931 . S
H251 C234 0.930 . S
H252 C243 0.929 . S
H253 C244 0.930 . S
H254 C245 0.931 . S
H255 C246 0.930 1_545 S
C256 C258 1.422 . S
C256 C260 1.415 . S
C256 N262 1.369 1_554 S
C257 C258 1.421 . S
C257 C259 1.417 . S
C257 C269 1.422 . S
C258 C256 1.422 . S
C258 C257 1.421 . S
C258 N268 1.359 . S
C259 C257 1.417 . S
C259 C261 1.329 . S
C259 H278 0.930 . S
C260 C256 1.415 . S
C260 C261 1.437 . S
C260 C264 1.413 1_554 S
C261 C259 1.329 . S
C261 C260 1.437 . S
C261 H283 0.929 . S
N262 C256 1.369 1_556 S
N262 C263 1.338 . S
N262 Gd267 2.622 . S
C263 N262 1.338 . S
C263 C265 1.378 . S
C263 H275 0.929 . S
C264 C260 1.413 1_556 S
C264 C265 1.348 . S
C264 H280 0.931 . S
C265 C263 1.378 . S
C265 C264 1.348 . S
C265 H281 0.930 . S
Gd266 N286 2.622 . S
Gd266 N293 2.570 . S
Gd266 O300 2.353 . S
Gd266 O301 2.468 . S
Gd266 O302 2.427 . S
Gd266 O304 2.388 . S
Gd266 O305 2.386 . S
Gd266 O309 2.307 . S
Gd266 C319 2.805 . S
Gd267 N262 2.622 . S
Gd267 N268 2.570 1_556 S
Gd267 O299 2.386 . S
Gd267 O303 2.307 . S
Gd267 O306 2.353 . S
Gd267 O307 2.468 . S
Gd267 O308 2.427 . S
Gd267 O310 2.388 . S
Gd267 C331 2.805 . S
N268 C258 1.359 . S
N268 Gd267 2.570 1_554 S
N268 C270 1.343 . S
C269 C257 1.422 . S
C269 C271 1.321 . S
C269 H277 0.931 . S
C270 N268 1.343 . S
C270 C271 1.390 . S
C270 H272 0.931 . S
C271 C269 1.321 . S
C271 C270 1.390 . S
C271 H273 0.930 . S
H272 C270 0.931 . S
H273 C271 0.930 . S
H274 C297 0.931 . S
H275 C263 0.929 . S
H276 C298 0.930 . S
H277 C269 0.931 . S
H278 C259 0.930 . S
H279 C288 0.929 . S
H280 C264 0.931 . S
H281 C265 0.930 . S
H282 C320 0.930 . S
H283 C261 0.929 . S
H284 C289 0.931 . S
H285 C290 0.930 . S
N286 Gd266 2.622 . S
N286 C287 1.369 . S
N286 C288 1.338 . S
C287 N286 1.369 . S
C287 C291 1.415 . S
C287 C294 1.422 . S
C288 H279 0.929 . S
C288 N286 1.338 . S
C288 C290 1.378 . S
C289 H284 0.931 . S
C289 C290 1.348 . S
C289 C291 1.413 . S
C290 H285 0.930 . S
C290 C288 1.378 . S
C290 C289 1.348 . S
C291 C287 1.415 . S
C291 C289 1.413 . S
C291 C321 1.437 . S
H292 C321 0.929 . S
N293 Gd266 2.570 . S
N293 C294 1.359 . S
N293 C297 1.343 . S
C294 C287 1.422 . S
C294 N293 1.359 . S
C294 C296 1.421 . S
C295 C296 1.422 . S
C295 C298 1.321 . S
C295 H322 0.931 . S
C296 C294 1.421 . S
C296 C295 1.422 . S
C296 C320 1.417 . S
C297 H274 0.931 . S
C297 N293 1.343 . S
C297 C298 1.390 . S
C298 H276 0.930 . S
C298 C295 1.321 . S
C298 C297 1.390 . S
O299 Gd267 2.386 . S
O299 C311 1.265 . S
O300 Gd266 2.353 . S
O300 C311 1.242 . S
O301 Gd266 2.468 . S
O301 C319 1.263 . S
O302 Gd266 2.427 . S
O302 C319 1.252 . S
O303 Gd267 2.307 . S
O303 C312 1.261 . S
O304 Gd266 2.388 . S
O304 C312 1.252 . S
O305 Gd266 2.386 . S
O305 C323 1.265 . S
O306 Gd267 2.353 . S
O306 C323 1.242 . S
O307 Gd267 2.468 . S
O307 C331 1.263 . S
O308 Gd267 2.427 . S
O308 C331 1.252 . S
O309 Gd266 2.307 . S
O309 C324 1.261 . S
O310 Gd267 2.388 . S
O310 C324 1.252 . S
C311 O299 1.265 . S
C311 O300 1.242 . S
C312 O303 1.261 . S
C312 O304 1.252 . S
C313 C316 1.394 . S
C313 C318 1.370 . S
C313 C319 1.500 . S
C314 C317 1.383 . S
C314 C318 1.395 . S
C315 C316 1.396 . S
C315 C317 1.365 . S
C315 H332 0.929 . S
C316 C313 1.394 . S
C316 C315 1.396 . S
C316 H333 0.930 . S
C317 C314 1.383 . S
C317 C315 1.365 . S
C317 H334 0.931 . S
C318 C313 1.370 . S
C318 C314 1.395 . S
C318 H335 0.930 . S
C319 Gd266 2.805 . S
C319 O301 1.263 . S
C319 O302 1.252 . S
C319 C313 1.500 . S
C320 H282 0.930 . S
C320 C296 1.417 . S
C320 C321 1.329 . S
C321 C291 1.437 . S
C321 H292 0.929 . S
C321 C320 1.329 . S
H322 C295 0.931 . S
C323 O305 1.265 . S
C323 O306 1.242 . S
C324 O309 1.261 . S
C324 O310 1.252 . S
C325 C328 1.394 . S
C325 C330 1.370 . S
C325 C331 1.500 1_554 S
C326 C329 1.383 . S
C326 C330 1.395 . S
C327 C328 1.396 . S
C327 C329 1.365 . S
C327 H336 0.929 . S
C328 C325 1.394 . S
C328 C327 1.396 . S
C328 H337 0.930 1_554 S
C329 C326 1.383 . S
C329 C327 1.365 . S
C329 H338 0.931 . S
C330 C325 1.370 . S
C330 C326 1.395 . S
C330 H339 0.930 . S
C331 Gd267 2.805 . S
C331 O307 1.263 . S
C331 O308 1.252 . S
C331 C325 1.500 1_556 S
H332 C315 0.929 . S
H333 C316 0.930 . S
H334 C317 0.931 . S
H335 C318 0.930 . S
H336 C327 0.929 . S
H337 C328 0.930 1_556 S
H338 C329 0.931 . S
H339 C330 0.930 . S
C340 C342 1.422 . S
C340 C344 1.415 . S
C340 N346 1.369 1_554 S
C341 C342 1.421 . S
C341 C343 1.417 . S
C341 C353 1.422 . S
C342 C340 1.422 . S
C342 C341 1.421 . S
C342 N352 1.359 . S
C343 C341 1.417 . S
C343 C345 1.329 . S
C343 H362 0.930 . S
C344 C340 1.415 . S
C344 C345 1.437 . S
C344 C348 1.413 1_554 S
C345 C343 1.329 . S
C345 C344 1.437 . S
C345 H367 0.929 . S
N346 C340 1.369 1_556 S
N346 C347 1.340 . S
N346 Gd351 2.622 1_455 S
C347 N346 1.340 . S
C347 C349 1.385 . S
C347 H359 0.921 1_455 S
C348 C344 1.413 1_556 S
C348 C349 1.348 . S
C348 H364 0.931 . S
C349 C347 1.385 . S
C349 C348 1.348 . S
C349 H365 0.930 . S
Gd350 N370 2.622 . S
Gd350 N377 2.570 . S
Gd350 O384 2.353 . S
Gd350 O385 2.468 . S
Gd350 O386 2.427 . S
Gd350 O388 2.388 . S
Gd350 O389 2.386 1_455 S
Gd350 O393 2.307 . S
Gd350 C403 2.805 . S
Gd351 N346 2.622 1_655 S
Gd351 N352 2.570 1_656 S
Gd351 O383 2.386 1_655 S
Gd351 O387 2.307 1_655 S
Gd351 O390 2.353 . S
Gd351 O391 2.468 . S
Gd351 O392 2.427 . S
Gd351 O394 2.388 . S
Gd351 C415 2.805 . S
N352 C342 1.359 . S
N352 Gd351 2.570 1_454 S
N352 C354 1.343 . S
C353 C341 1.422 . S
C353 C355 1.321 . S
C353 H361 0.931 . S
C354 N352 1.343 . S
C354 C355 1.390 . S
C354 H356 0.931 . S
C355 C353 1.321 . S
C355 C354 1.390 . S
C355 H357 0.930 . S
H356 C354 0.931 . S
H357 C355 0.930 . S
H358 C381 0.931 . S
H359 C347 0.921 1_655 S
H360 C382 0.930 . S
H361 C353 0.931 . S
H362 C343 0.930 . S
H363 C372 0.929 . S
H364 C348 0.931 . S
H365 C349 0.930 . S
H366 C404 0.930 . S
H367 C345 0.929 . S
H368 C373 0.931 . S
H369 C374 0.930 . S
N370 Gd350 2.622 . S
N370 C371 1.369 1_455 S
N370 C372 1.338 . S
C371 N370 1.369 1_655 S
C371 C375 1.415 . S
C371 C378 1.422 . S
C372 H363 0.929 . S
C372 N370 1.338 . S
C372 C374 1.378 . S
C373 H368 0.931 . S
C373 C374 1.348 1_655 S
C373 C375 1.413 . S
C374 H369 0.930 . S
C374 C372 1.378 . S
C374 C373 1.348 1_455 S
C375 C371 1.415 . S
C375 C373 1.413 . S
C375 C405 1.437 . S
H376 C405 0.929 . S
N377 Gd350 2.570 . S
N377 C378 1.359 1_455 S
N377 C381 1.343 . S
C378 C371 1.422 . S
C378 N377 1.359 1_655 S
C378 C380 1.421 . S
C379 C380 1.422 . S
C379 C382 1.321 . S
C379 H406 0.931 . S
C380 C378 1.421 . S
C380 C379 1.422 . S
C380 C404 1.417 . S
C381 H358 0.931 . S
C381 N377 1.343 . S
C381 C382 1.390 1_455 S
C382 H360 0.930 . S
C382 C379 1.321 . S
C382 C381 1.390 1_655 S
O383 Gd351 2.386 1_455 S
O383 C395 1.265 . S
O384 Gd350 2.353 . S
O384 C395 1.242 . S
O385 Gd350 2.468 . S
O385 C403 1.263 . S
O386 Gd350 2.427 . S
O386 C403 1.252 . S
O387 Gd351 2.307 1_455 S
O387 C396 1.261 . S
O388 Gd350 2.388 . S
O388 C396 1.252 . S
O389 Gd350 2.386 1_655 S
O389 C407 1.265 . S
O390 Gd351 2.353 . S
O390 C407 1.242 . S
O391 Gd351 2.468 . S
O391 C415 1.263 . S
O392 Gd351 2.427 . S
O392 C415 1.252 . S
O393 Gd350 2.307 . S
O393 C408 1.261 . S
O394 Gd351 2.388 . S
O394 C408 1.252 1_655 S
C395 O383 1.265 . S
C395 O384 1.242 . S
C396 O387 1.261 . S
C396 O388 1.252 . S
C397 C400 1.394 . S
C397 C402 1.370 . S
C397 C403 1.500 . S
C398 C401 1.383 . S
C398 C402 1.395 . S
C399 C400 1.396 . S
C399 C401 1.365 . S
C399 H416 0.929 . S
C400 C397 1.394 . S
C400 C399 1.396 . S
C400 H417 0.930 . S
C401 C398 1.383 . S
C401 C399 1.365 . S
C401 H418 0.931 . S
C402 C397 1.370 . S
C402 C398 1.395 . S
C402 H419 0.930 . S
C403 Gd350 2.805 . S
C403 O385 1.263 . S
C403 O386 1.252 . S
C403 C397 1.500 . S
C404 H366 0.930 . S
C404 C380 1.417 . S
C404 C405 1.329 . S
C405 C375 1.437 . S
C405 H376 0.929 . S
C405 C404 1.329 . S
H406 C379 0.931 . S
C407 O389 1.265 . S
C407 O390 1.242 . S
C408 O393 1.261 . S
C408 O394 1.252 1_455 S
C409 C412 1.394 . S
C409 C414 1.370 . S
C409 C415 1.500 1_554 S
C410 C413 1.383 . S
C410 C414 1.395 . S
C411 C412 1.396 . S
C411 C413 1.365 . S
C411 H420 0.929 . S
C412 C409 1.394 . S
C412 C411 1.396 . S
C412 H421 0.930 1_554 S
C413 C410 1.383 . S
C413 C411 1.365 . S
C413 H422 0.931 . S
C414 C409 1.370 . S
C414 C410 1.395 . S
C414 H423 0.930 . S
C415 Gd351 2.805 . S
C415 O391 1.263 . S
C415 O392 1.252 . S
C415 C409 1.500 1_556 S
H416 C399 0.929 . S
H417 C400 0.930 . S
H418 C401 0.931 . S
H419 C402 0.930 . S
H420 C411 0.929 . S
H421 C412 0.930 1_556 S
H422 C413 0.931 . S
H423 C414 0.930 . S
C424 C425 1.387 . S
C424 H428 0.950 . S
C424 C433 1.390 . S
C425 C424 1.387 . S
C425 C427 1.401 . S
H426 C433 0.950 . S
C427 C425 1.401 . S
C427 C429 1.389 1_545 S
C427 H431 0.937 1_545 S
H428 C424 0.950 . S
C429 C427 1.389 1_565 S
C429 C430 1.387 1_565 S
C429 H432 0.950 . S
C430 C429 1.387 1_545 S
C430 C433 1.387 . S
H431 C427 0.937 1_565 S
H432 C429 0.950 . S
C433 C424 1.390 . S
C433 H426 0.950 . S
C433 C430 1.387 . S
C434 C435 1.387 . S
C434 H438 0.950 . S
C434 C443 1.390 . S
C435 C434 1.387 . S
C435 C437 1.387 . S
H436 C443 0.950 . S
C437 C435 1.387 . S
C437 C439 1.390 . S
C437 H441 0.950 . S
H438 C434 0.950 . S
C439 C437 1.390 . S
C439 C440 1.387 . S
C439 H442 0.950 . S
C440 C439 1.387 . S
C440 C443 1.387 . S
H441 C437 0.950 . S
H442 C439 0.950 . S
C443 C434 1.390 . S
C443 H436 0.950 . S
C443 C440 1.387 . S
C444 C445 1.387 . S
C444 H448 0.950 . S
C444 C453 1.390 . S
C445 C444 1.387 . S
C445 C447 1.387 . S
H446 C453 0.950 . S
C447 C445 1.387 . S
C447 C449 1.390 . S
C447 H451 0.950 . S
H448 C444 0.950 . S
C449 C447 1.390 . S
C449 C450 1.387 . S
C449 H452 0.950 . S
C450 C449 1.387 . S
C450 C453 1.387 . S
H451 C447 0.950 . S
H452 C449 0.950 . S
C453 C444 1.390 . S
C453 H446 0.950 . S
C453 C450 1.387 . S
C454 C455 1.387 1_655 S
C454 H458 0.950 . S
C454 C463 1.390 . S
C455 C454 1.387 1_455 S
C455 C457 1.387 . S
H456 C463 0.950 . S
C457 C455 1.387 . S
C457 C459 1.390 . S
C457 H461 0.950 . S
H458 C454 0.950 . S
C459 C457 1.390 . S
C459 C460 1.387 . S
C459 H462 0.950 . S
C460 C459 1.387 . S
C460 C463 1.387 1_455 S
H461 C457 0.950 . S
H462 C459 0.950 . S
C463 C454 1.390 . S
C463 H456 0.950 . S
C463 C460 1.387 1_655 S
C464 C465 1.387 1_545 S
C464 H468 0.950 . S
C464 C473 1.390 . S
C465 C464 1.387 1_565 S
C465 C467 1.387 . S
H466 C473 0.950 . S
C467 C465 1.387 . S
C467 C469 1.390 . S
C467 H471 0.950 . S
H468 C464 0.950 . S
C469 C467 1.390 . S
C469 C470 1.411 . S
C469 H472 0.950 . S
C470 C469 1.411 . S
C470 C473 1.367 1_565 S
H471 C467 0.950 . S
H472 C469 0.950 . S
C473 C464 1.390 . S
C473 H466 0.950 . S
C473 C470 1.367 1_545 S
C474 C475 1.387 . S
C474 H478 0.950 . S
C474 C483 1.390 . S
C475 C474 1.387 . S
C475 C477 1.387 . S
H476 C483 0.950 . S
C477 C475 1.387 . S
C477 C479 1.390 . S
C477 H481 0.950 . S
H478 C474 0.950 . S
C479 C477 1.390 . S
C479 C480 1.387 . S
C479 H482 0.950 . S
C480 C479 1.387 . S
C480 C483 1.387 . S
H481 C477 0.950 . S
H482 C479 0.950 . S
C483 C474 1.390 . S
C483 H476 0.950 . S
C483 C480 1.387 . S
C484 C485 1.387 . S
C484 H488 0.950 . S
C484 C493 1.390 . S
C485 C484 1.387 . S
C485 C487 1.387 . S
H486 C493 0.950 . S
C487 C485 1.387 . S
C487 C489 1.390 . S
C487 H491 0.950 . S
H488 C484 0.950 . S
C489 C487 1.390 . S
C489 C490 1.387 . S
C489 H492 0.950 . S
C490 C489 1.387 . S
C490 C493 1.387 . S
H491 C487 0.950 . S
H492 C489 0.950 . S
C493 C484 1.390 . S
C493 H486 0.950 . S
C493 C490 1.387 . S
C494 C495 1.387 . S
C494 H498 0.950 . S
C494 C503 1.390 . S
C495 C494 1.387 . S
C495 C497 1.387 . S
H496 C503 0.950 . S
C497 C495 1.387 . S
C497 C499 1.390 . S
C497 H501 0.950 . S
H498 C494 0.950 . S
C499 C497 1.390 . S
C499 C500 1.387 . S
C499 H502 0.950 1_654 S
C500 C499 1.387 . S
C500 C503 1.387 . S
H501 C497 0.950 . S
H502 C499 0.950 1_456 S
C503 C494 1.390 . S
C503 H496 0.950 . S
C503 C500 1.387 . S
C504 C505 1.387 . S
C504 H508 0.950 . S
C504 C513 1.390 . S
C505 C504 1.387 . S
C505 C507 1.387 . S
H506 C513 0.950 . S
C507 C505 1.387 . S
C507 C509 1.390 1_455 S
C507 H511 0.950 . S
H508 C504 0.950 . S
C509 C507 1.390 1_655 S
C509 C510 1.387 . S
C509 H512 0.950 . S
C510 C509 1.387 . S
C510 C513 1.387 1_655 S
H511 C507 0.950 . S
H512 C509 0.950 . S
C513 C504 1.390 . S
C513 H506 0.950 . S
C513 C510 1.387 1_455 S
C514 C515 1.387 . S
C514 H518 0.950 . S
C514 C523 1.390 . S
C515 C514 1.387 . S
C515 C517 1.387 . S
H516 C523 0.950 . S
C517 C515 1.387 . S
C517 C519 1.390 1_545 S
C517 H521 0.950 . S
H518 C514 0.950 . S
C519 C517 1.390 1_565 S
C519 C520 1.383 1_565 S
C519 H522 0.950 . S
C520 C519 1.383 1_545 S
C520 C523 1.404 . S
H521 C517 0.950 . S
H522 C519 0.950 . S
C523 C514 1.390 . S
C523 H516 0.950 . S
C523 C520 1.404 . S
C524 C525 1.387 . S
C524 H528 0.950 . S
C524 C533 1.390 . S
C525 C524 1.387 . S
C525 C527 1.387 . S
H526 C533 0.950 . S
C527 C525 1.387 . S
C527 C529 1.390 . S
C527 H531 0.950 . S
H528 C524 0.950 . S
C529 C527 1.390 . S
C529 C530 1.387 . S
C529 H532 0.950 . S
C530 C529 1.387 . S
C530 C533 1.387 . S
H531 C527 0.950 . S
H532 C529 0.950 . S
C533 C524 1.390 . S
C533 H526 0.950 . S
C533 C530 1.387 . S
C534 C535 1.387 . S
C534 H538 0.950 . S
C534 C543 1.390 . S
C535 C534 1.387 . S
C535 C537 1.387 . S
H536 C543 0.950 . S
C537 C535 1.387 . S
C537 C539 1.390 . S
C537 H541 0.950 . S
H538 C534 0.950 . S
C539 C537 1.390 . S
C539 C540 1.387 . S
C539 H542 0.950 . S
C540 C539 1.387 . S
C540 C543 1.387 . S
H541 C537 0.950 . S
H542 C539 0.950 . S
C543 C534 1.390 . S
C543 H536 0.950 . S
C543 C540 1.387 . S
C544 C545 1.387 . S
C544 H548 0.950 . S
C544 C553 1.390 . S
C545 C544 1.387 . S
C545 C547 1.387 1_655 S
H546 C553 0.950 . S
C547 C545 1.387 1_455 S
C547 C549 1.390 . S
C547 H551 0.950 . S
H548 C544 0.950 . S
C549 C547 1.390 . S
C549 C550 1.387 . S
C549 H552 0.950 . S
C550 C549 1.387 . S
C550 C553 1.387 1_455 S
H551 C547 0.950 . S
H552 C549 0.950 . S
C553 C544 1.390 . S
C553 H546 0.950 . S
C553 C550 1.387 1_655 S
C554 C555 1.387 1_545 S
C554 H558 0.950 . S
C554 C563 1.390 . S
C555 C554 1.387 1_565 S
C555 C557 1.387 . S
H556 C563 0.950 . S
C557 C555 1.387 . S
C557 C559 1.390 . S
C557 H561 0.950 . S
H558 C554 0.950 . S
C559 C557 1.390 . S
C559 C560 1.387 1_565 S
C559 H562 0.950 . S
C560 C559 1.387 1_545 S
C560 C563 1.387 . S
H561 C557 0.950 . S
H562 C559 0.950 . S
C563 C554 1.390 . S
C563 H556 0.950 . S
C563 C560 1.387 . S
C564 C565 1.387 . S
C564 H568 0.950 . S
C564 C573 1.390 . S
C565 C564 1.387 . S
C565 C567 1.387 . S
H566 C573 0.950 . S
C567 C565 1.387 . S
C567 C569 1.390 . S
C567 H571 0.950 . S
H568 C564 0.950 . S
C569 C567 1.390 . S
C569 C570 1.387 . S
C569 H572 0.950 . S
C570 C569 1.387 . S
C570 C573 1.387 . S
H571 C567 0.950 . S
H572 C569 0.950 . S
C573 C564 1.390 . S
C573 H566 0.950 . S
C573 C570 1.387 . S
C574 C575 1.387 . S
C574 H578 0.950 . S
C574 C583 1.390 . S
C575 C574 1.387 . S
C575 C577 1.387 . S
H576 C583 0.950 . S
C577 C575 1.387 . S
C577 C579 1.390 . S
C577 H581 0.950 . S
H578 C574 0.950 . S
C579 C577 1.390 . S
C579 C580 1.387 . S
C579 H582 0.950 . S
C580 C579 1.387 . S
C580 C583 1.387 . S
H581 C577 0.950 . S
H582 C579 0.950 . S
C583 C574 1.390 . S
C583 H576 0.950 . S
C583 C580 1.387 . S
C584 C585 1.387 . S
C584 H588 0.950 1_455 S
C584 C593 1.390 . S
C585 C584 1.387 . S
C585 C587 1.387 . S
H586 C593 0.950 1_655 S
C587 C585 1.387 . S
C587 C589 1.390 . S
C587 H591 0.950 . S
H588 C584 0.950 1_655 S
C589 C587 1.390 . S
C589 C590 1.387 . S
C589 H592 0.950 . S
C590 C589 1.387 . S
C590 C593 1.387 . S
H591 C587 0.950 . S
H592 C589 0.950 . S
C593 C584 1.390 . S
C593 H586 0.950 1_455 S
C593 C590 1.387 . S
C594 C595 1.387 . S
C594 H598 0.950 . S
C594 C603 1.390 . S
C595 C594 1.387 . S
C595 C597 1.387 . S
H596 C603 0.950 . S
C597 C595 1.387 . S
C597 C599 1.390 . S
C597 H601 0.950 1_545 S
H598 C594 0.950 . S
C599 C597 1.390 . S
C599 C600 1.387 . S
C599 H602 0.950 1_545 S
C600 C599 1.387 . S
C600 C603 1.387 . S
H601 C597 0.950 1_565 S
H602 C599 0.950 1_565 S
C603 C594 1.390 . S
C603 H596 0.950 . S
C603 C600 1.387 . S
C604 C605 1.387 . S
C604 H608 0.950 . S
C604 C613 1.390 . S
C605 C604 1.387 . S
C605 C607 1.387 . S
H606 C613 0.950 . S
C607 C605 1.387 . S
C607 C609 1.390 . S
C607 H611 0.950 . S
H608 C604 0.950 . S
C609 C607 1.390 . S
C609 C610 1.387 . S
C609 H612 0.950 . S
C610 C609 1.387 . S
C610 C613 1.387 . S
H611 C607 0.950 . S
H612 C609 0.950 . S
C613 C604 1.390 . S
C613 H606 0.950 . S
C613 C610 1.387 . S
C614 C615 1.387 . S
C614 H618 0.950 . S
C614 C623 1.390 . S
C615 C614 1.387 . S
C615 C617 1.387 . S
H616 C623 0.950 . S
C617 C615 1.387 . S
C617 C619 1.390 . S
C617 H621 0.950 . S
H618 C614 0.950 . S
C619 C617 1.390 . S
C619 C620 1.387 . S
C619 H622 0.950 . S
C620 C619 1.387 . S
C620 C623 1.387 . S
H621 C617 0.950 . S
H622 C619 0.950 . S
C623 C614 1.390 . S
C623 H616 0.950 . S
C623 C620 1.387 . S
C624 C625 1.387 . S
C624 H628 0.950 . S
C624 C633 1.390 . S
C625 C624 1.387 . S
C625 C627 1.387 . S
H626 C633 0.950 . S
C627 C625 1.387 . S
C627 C629 1.390 . S
C627 H631 0.945 1_655 S
H628 C624 0.950 . S
C629 C627 1.390 . S
C629 C630 1.387 . S
C629 H632 0.950 1_655 S
C630 C629 1.387 . S
C630 C633 1.387 . S
H631 C627 0.945 1_455 S
H632 C629 0.950 1_455 S
C633 C624 1.390 . S
C633 H626 0.950 . S
C633 C630 1.387 . S
C634 C635 1.387 . S
C634 H638 0.950 1_565 S
C634 C643 1.390 1_565 S
C635 C634 1.387 . S
C635 C637 1.387 . S
H636 C643 0.951 . S
C637 C635 1.387 . S
C637 C639 1.390 . S
C637 H641 0.950 . S
H638 C634 0.950 1_545 S
C639 C637 1.390 . S
C639 C640 1.387 . S
C639 H642 0.950 . S
C640 C639 1.387 . S
C640 C643 1.386 1_565 S
H641 C637 0.950 . S
H642 C639 0.950 . S
C643 C634 1.390 1_545 S
C643 H636 0.951 . S
C643 C640 1.386 1_545 S
C644 C645 1.387 . S
C644 H648 0.950 . S
C644 C653 1.390 . S
C645 C644 1.387 . S
C645 C647 1.387 . S
H646 C653 0.950 . S
C647 C645 1.387 . S
C647 C649 1.390 . S
C647 H651 0.950 . S
H648 C644 0.950 . S
C649 C647 1.390 . S
C649 C650 1.387 . S
C649 H652 0.950 . S
C650 C649 1.387 . S
C650 C653 1.387 . S
H651 C647 0.950 . S
H652 C649 0.950 . S
C653 C644 1.390 . S
C653 H646 0.950 . S
C653 C650 1.387 . S
C654 C655 1.387 . S
C654 H658 0.950 . S
C654 C663 1.390 . S
C655 C654 1.387 . S
C655 C657 1.387 . S
H656 C663 0.950 . S
C657 C655 1.387 . S
C657 C659 1.390 . S
C657 H661 0.950 . S
H658 C654 0.950 . S
C659 C657 1.390 . S
C659 C660 1.387 . S
C659 H662 0.950 . S
C660 C659 1.387 . S
C660 C663 1.387 . S
H661 C657 0.950 . S
H662 C659 0.950 . S
C663 C654 1.390 . S
C663 H656 0.950 . S
C663 C660 1.387 . S
C425 C76 1.972 . S
C430 C156 2.182 . S
C440 C239 2.188 . S
C435 C87 1.975 . S
C450 C324 2.183 . S
C445 C54 1.973 . S
C460 C408 2.169 . S
C455 C65 1.963 . S
C470 C144 2.176 1_564 S
C465 C32 1.976 . S
C475 C43 1.976 . S
C480 C227 2.187 1_554 S
C485 C10 1.973 . S
C490 C312 2.181 1_554 S
C495 C21 1.966 . S
C500 C396 2.170 1_654 S
C510 C146 0.771 . S
C505 C60 0.765 . S
C520 C242 0.752 1_545 S
C515 C71 0.756 . S
C530 C314 0.776 . S
C525 C82 0.774 . S
C535 C49 0.757 . S
C540 C398 0.754 . S
C545 C16 0.771 . S
C550 C158 0.770 . S
C560 C230 0.758 . S
C555 C27 0.755 . S
C570 C326 0.777 . S
C565 C38 0.777 . S
C575 C5 0.757 . S
C580 C410 0.759 . S
C585 C59 2.025 . S
C590 C143 2.294 . S
C595 C70 2.033 . S
C600 C228 2.341 . S
C610 C311 2.311 . S
C605 C81 2.039 . S
C620 C395 2.316 . S
C615 C48 2.047 . S
C625 C15 2.024 . S
C630 C155 2.295 . S
C640 C240 2.341 1_565 S
C635 C26 2.029 . S
C650 C323 2.311 . S
C645 C37 2.037 . S
C655 C4 2.041 . S
C660 C407 2.314 . S
