# Generated by pormake.
# Topology cml, (3,6)-cn, num edge types: 1
# Building blocks:
#     Node 0, Type 0, BuildingBlock: QEWDON_clean_linker_0, # of connection points: 3
#     Node 1, Type 0, BuildingBlock: QEWDON_clean_linker_0, # of connection points: 3
#     Node 2, Type 0, BuildingBlock: QEWDON_clean_linker_0, # of connection points: 3
#     Node 3, Type 0, BuildingBlock: QEWDON_clean_linker_0, # of connection points: 3
#     Node 4, Type 0, BuildingBlock: QEWDON_clean_linker_0, # of connection points: 3
#     Node 5, Type 0, BuildingBlock: QEWDON_clean_linker_0, # of connection points: 3
#     Node 6, Type 0, BuildingBlock: QEWDON_clean_linker_0, # of connection points: 3
#     Node 7, Type 0, BuildingBlock: QEWDON_clean_linker_0, # of connection points: 3
#     Node 8, Type 1, BuildingBlock: IZENUY_clean_sbu_0, # of connection points: 6
#     Node 9, Type 1, BuildingBlock: IZENUY_clean_sbu_0, # of connection points: 6
#     Node 10, Type 1, BuildingBlock: IZENUY_clean_sbu_0, # of connection points: 6
#     Node 11, Type 1, BuildingBlock: IZENUY_clean_sbu_0, # of connection points: 6
#     Edge 12, Type (0, 1), BuildingBlock: ZUJKAS_clean_linker_0, # of connection points: 2
#     Edge 13, Type (0, 1), BuildingBlock: ZUJKAS_clean_linker_0, # of connection points: 2
#     Edge 14, Type (0, 1), BuildingBlock: ZUJKAS_clean_linker_0, # of connection points: 2
#     Edge 15, Type (0, 1), BuildingBlock: ZUJKAS_clean_linker_0, # of connection points: 2
#     Edge 16, Type (0, 1), BuildingBlock: ZUJKAS_clean_linker_0, # of connection points: 2
#     Edge 17, Type (0, 1), BuildingBlock: ZUJKAS_clean_linker_0, # of connection points: 2
#     Edge 18, Type (0, 1), BuildingBlock: ZUJKAS_clean_linker_0, # of connection points: 2
#     Edge 19, Type (0, 1), BuildingBlock: ZUJKAS_clean_linker_0, # of connection points: 2
#     Edge 20, Type (0, 1), BuildingBlock: ZUJKAS_clean_linker_0, # of connection points: 2
#     Edge 21, Type (0, 1), BuildingBlock: ZUJKAS_clean_linker_0, # of connection points: 2
#     Edge 22, Type (0, 1), BuildingBlock: ZUJKAS_clean_linker_0, # of connection points: 2
#     Edge 23, Type (0, 1), BuildingBlock: ZUJKAS_clean_linker_0, # of connection points: 2
#     Edge 24, Type (0, 1), BuildingBlock: ZUJKAS_clean_linker_0, # of connection points: 2
#     Edge 25, Type (0, 1), BuildingBlock: ZUJKAS_clean_linker_0, # of connection points: 2
#     Edge 26, Type (0, 1), BuildingBlock: ZUJKAS_clean_linker_0, # of connection points: 2
#     Edge 27, Type (0, 1), BuildingBlock: ZUJKAS_clean_linker_0, # of connection points: 2
#     Edge 28, Type (0, 1), BuildingBlock: ZUJKAS_clean_linker_0, # of connection points: 2
#     Edge 29, Type (0, 1), BuildingBlock: ZUJKAS_clean_linker_0, # of connection points: 2
#     Edge 30, Type (0, 1), BuildingBlock: ZUJKAS_clean_linker_0, # of connection points: 2
#     Edge 31, Type (0, 1), BuildingBlock: ZUJKAS_clean_linker_0, # of connection points: 2
#     Edge 32, Type (0, 1), BuildingBlock: ZUJKAS_clean_linker_0, # of connection points: 2
#     Edge 33, Type (0, 1), BuildingBlock: ZUJKAS_clean_linker_0, # of connection points: 2
#     Edge 34, Type (0, 1), BuildingBlock: ZUJKAS_clean_linker_0, # of connection points: 2
#     Edge 35, Type (0, 1), BuildingBlock: ZUJKAS_clean_linker_0, # of connection points: 2
# Relax obj value: 0.009
# Max RMSD: 0.131
# Mean RMSD: 0.095
data_MOF--net-cml--node1-IZENUY_clean_sbu_0--node2-QEWDON_clean_linker_0--edge1-ZUJKAS_clean_linker_0
_symmetry_space_group_name_H-M    P1
_symmetry_Int_Tables_number       1
_symmetry_cell_setting            triclinic
loop_
_symmetry_equiv_pos_as_xyz
'x, y, z'
_cell_length_a     50.413837
_cell_length_b     54.30191
_cell_length_c     47.270628
_cell_angle_alpha  89.958869
_cell_angle_beta   90.049105
_cell_angle_gamma 89.939406
loop_
_atom_site_label
_atom_site_type_symbol
_atom_site_fract_x
_atom_site_fract_y
_atom_site_fract_z
_atom_type_partial_charge
H0 H 0.27922 0.40977 0.98312 0.0
C1 C 0.29003 0.40384 1.00176 0.0
C2 C 0.31657 0.41108 0.00573 0.0
C3 C 0.27696 0.3897 0.02233 0.0
H4 H 0.34981 0.41016 0.03449 0.0
C5 C 0.32985 0.40363 0.0305 0.0
C6 C 0.317 0.38953 0.0513 0.0
C7 C 0.29048 0.38254 0.04695 0.0
C8 C 0.24811 0.38566 0.02028 0.0
H9 H 0.28005 0.37216 0.06306 0.0
C10 C 0.23757 0.36434 0.00765 0.0
C11 C 0.20991 0.36047 0.00732 0.0
C12 C 0.231 0.40322 0.0321 0.0
H13 H 0.23887 0.4197 0.04192 0.0
C14 C 0.20365 0.39958 0.03155 0.0
H15 H 0.25081 0.35067 0.99871 0.0
C16 C 0.19314 0.37834 0.01935 0.0
H17 H 0.1718 0.37599 0.01908 0.0
H18 H 0.19054 0.41321 0.0407 0.0
H19 H 0.74301 0.60718 0.48321 0.0
C20 C 0.73168 0.61344 0.50132 0.0
C21 C 0.70479 0.60696 0.50396 0.0
C22 C 0.74425 0.62707 0.52273 0.0
H23 H 0.67021 0.60853 0.53062 0.0
C24 C 0.69059 0.61447 0.52803 0.0
C25 C 0.70304 0.6277 0.54982 0.0
C26 C 0.72988 0.63407 0.54686 0.0
C27 C 0.77313 0.63154 0.52189 0.0
H28 H 0.73985 0.64411 0.56359 0.0
C29 C 0.78434 0.64879 0.50313 0.0
C30 C 0.8118 0.65392 0.50409 0.0
C31 C 0.78945 0.61915 0.54127 0.0
H32 H 0.78111 0.60591 0.55593 0.0
C33 C 0.81658 0.62385 0.54208 0.0
H34 H 0.77164 0.65834 0.48821 0.0
C35 C 0.82768 0.64117 0.52382 0.0
H36 H 0.84869 0.64497 0.5257 0.0
H37 H 0.82901 0.61432 0.55723 0.0
H38 H 0.69765 0.37762 0.96723 0.0
C39 C 0.69685 0.37661 0.99011 0.0
C40 C 0.6871 0.39671 0.00578 0.0
C41 C 0.70336 0.35437 0.00367 0.0
H42 H 0.67676 0.40962 0.04746 0.0
C43 C 0.68474 0.39441 0.03532 0.0
C44 C 0.69059 0.37211 0.04909 0.0
C45 C 0.70023 0.35224 0.03307 0.0
C46 C 0.70804 0.33191 0.98681 0.0
H47 H 0.7041 0.33469 0.04322 0.0
C48 C 0.73375 0.32446 0.97885 0.0
C49 C 0.73755 0.30223 0.96379 0.0
C50 C 0.68618 0.31727 0.97964 0.0
H51 H 0.66631 0.32273 0.98575 0.0
C52 C 0.68976 0.29534 0.96491 0.0
H53 H 0.75054 0.33595 0.9843 0.0
C54 C 0.71517 0.28776 0.95719 0.0
H55 H 0.71724 0.27027 0.94644 0.0
H56 H 0.6728 0.284 0.95972 0.0
H57 H 0.31621 0.64228 0.46432 0.0
C58 C 0.31984 0.64273 0.48692 0.0
C59 C 0.32946 0.62161 0.50096 0.0
C60 C 0.31643 0.66494 0.50166 0.0
H61 H 0.34351 0.60729 0.54089 0.0
C62 C 0.33479 0.62298 0.53017 0.0
C63 C 0.33143 0.64511 0.54514 0.0
C64 C 0.32207 0.66596 0.53068 0.0
C65 C 0.31136 0.68813 0.48625 0.0
H66 H 0.32 0.68332 0.54178 0.0
C67 C 0.2861 0.69397 0.47544 0.0
C68 C 0.28156 0.71698 0.46229 0.0
C69 C 0.33215 0.7051 0.4835 0.0
H70 H 0.35169 0.70089 0.49179 0.0
C71 C 0.32791 0.72767 0.47028 0.0
H72 H 0.27011 0.68079 0.4776 0.0
C73 C 0.30284 0.73368 0.45992 0.0
H74 H 0.30004 0.75173 0.45062 0.0
H75 H 0.34402 0.74073 0.46842 0.0
H76 H 0.77668 0.91238 0.97826 0.0
C77 C 0.78749 0.90731 0.99723 0.0
C78 C 0.81398 0.91485 1.00082 0.0
C79 C 0.77441 0.89415 0.01863 0.0
H80 H 0.84733 0.91501 0.0295 0.0
C81 C 0.82734 0.90839 0.02592 0.0
C82 C 0.81453 0.89507 0.04744 0.0
C83 C 0.78795 0.88808 0.04361 0.0
C84 C 0.74559 0.88983 0.01668 0.0
H85 H 0.77757 0.87829 0.06024 0.0
C86 C 0.73514 0.87045 1.00038 0.0
C87 C 0.70746 0.86697 0.99871 0.0
C88 C 0.72839 0.90558 0.03138 0.0
H89 H 0.73619 0.92054 0.04404 0.0
C90 C 0.70104 0.90225 0.02971 0.0
H91 H 0.74843 0.85827 0.98904 0.0
C92 C 0.69059 0.88313 0.01349 0.0
H93 H 0.66927 0.88072 0.01289 0.0
H94 H 0.68787 0.91447 0.04111 0.0
H95 H 0.23967 0.10669 0.48001 0.0
C96 C 0.22886 0.1125 0.49868 0.0
C97 C 0.20222 0.10557 0.50215 0.0
C98 C 0.24193 0.12603 0.51982 0.0
H99 H 0.1684 0.10656 0.52995 0.0
C100 C 0.18878 0.11235 0.52696 0.0
C101 C 0.20179 0.1253 0.54862 0.0
C102 C 0.22834 0.13239 0.5447 0.0
C103 C 0.27081 0.13005 0.51798 0.0
H104 H 0.2389 0.1417 0.56158 0.0
C105 C 0.28157 0.14977 0.50239 0.0
C106 C 0.30932 0.15294 0.50084 0.0
C107 C 0.28779 0.11367 0.53209 0.0
H108 H 0.27978 0.09844 0.54419 0.0
C109 C 0.31518 0.11672 0.53062 0.0
H110 H 0.26844 0.16241 0.49146 0.0
C111 C 0.32591 0.13617 0.51513 0.0
H112 H 0.34727 0.13832 0.51473 0.0
H113 H 0.32816 0.10402 0.54161 0.0
H114 H 0.20192 0.87788 0.95888 0.0
C115 C 0.1985 0.87699 0.98149 0.0
C116 C 0.18899 0.89783 0.99608 0.0
C117 C 0.20229 0.85456 0.99574 0.0
H118 H 0.17504 0.91137 0.03631 0.0
C119 C 0.18374 0.89588 0.02524 0.0
C120 C 0.18723 0.87348 0.0397 0.0
C121 C 0.19679 0.85296 0.02476 0.0
C122 C 0.2072 0.83168 0.97972 0.0
H123 H 0.19899 0.83539 0.03542 0.0
C124 C 0.23299 0.82417 0.97217 0.0
C125 C 0.23706 0.8014 0.9583 0.0
C126 C 0.1855 0.8166 0.97321 0.0
H127 H 0.16557 0.82208 0.97905 0.0
C128 C 0.18933 0.7942 0.95951 0.0
H129 H 0.24966 0.83597 0.97717 0.0
C130 C 0.21483 0.78655 0.95227 0.0
H131 H 0.21711 0.76869 0.94241 0.0
H132 H 0.17249 0.78255 0.9548 0.0
H133 H 0.81835 0.13613 0.4624 0.0
C134 C 0.82087 0.13825 0.48505 0.0
C135 C 0.83109 0.1187 0.50126 0.0
C136 C 0.81506 0.16105 0.49756 0.0
H137 H 0.84413 0.10774 0.54282 0.0
C138 C 0.83487 0.1222 0.53046 0.0
C139 C 0.82929 0.14499 0.54334 0.0
C140 C 0.81909 0.16431 0.52669 0.0
C141 C 0.80961 0.18251 0.47926 0.0
H142 H 0.81548 0.18222 0.53606 0.0
C143 C 0.78396 0.19256 0.47658 0.0
C144 C 0.77936 0.21244 0.45792 0.0
C145 C 0.83063 0.19263 0.46372 0.0
H146 H 0.85047 0.18509 0.46557 0.0
C147 C 0.82629 0.21257 0.44576 0.0
H148 H 0.76766 0.18451 0.4883 0.0
C149 C 0.8009 0.22241 0.44282 0.0
H150 H 0.79815 0.23799 0.4288 0.0
H151 H 0.84266 0.22038 0.43399 0.0
Fe152 Fe 0.00747 0.85052 0.33262 0.0
Fe153 Fe 0.0087 0.87997 0.38799 0.0
O154 O 0.00773 0.87921 0.35051 0.0
Fe155 Fe 1.00706 0.90701 0.33092 0.0
O156 O 0.97578 0.89895 0.31436 0.0
O157 O 0.98737 0.86136 0.30263 0.0
O158 O 0.97672 0.84165 0.34962 0.0
C159 C 0.97354 0.84041 0.37604 0.0
C160 C 0.04153 0.87634 0.29888 0.0
O161 O 0.98929 0.85147 0.39268 0.0
C162 C 0.04262 0.91951 0.37215 0.0
O163 O 0.02763 0.83425 0.35924 0.0
O164 O 0.03996 0.8634 0.38858 0.0
O165 O 0.02628 0.89482 0.301 0.0
O166 O 0.03818 0.85762 0.31432 0.0
C167 C 0.97341 0.91723 0.37779 0.0
O168 O 0.02826 0.90849 0.39015 0.0
O169 O 0.03824 0.91721 0.34602 0.0
C170 C 0.04368 0.84257 0.37751 0.0
O171 O 0.97759 0.89686 0.38992 0.0
O172 O 0.98782 0.92415 0.35732 0.0
C173 C 0.97207 0.87973 0.29995 0.0
Fe174 Fe 0.01047 0.13646 0.88919 0.0
Fe175 Fe 0.01115 0.11169 0.8309 0.0
O176 O 0.01105 0.13875 0.85179 0.0
Fe177 Fe 0.01139 0.16813 0.83538 0.0
O178 O 0.04223 0.17631 0.85277 0.0
O179 O 0.02993 0.16465 0.89526 0.0
O180 O 0.04158 0.1195 0.88977 0.0
C181 C 0.04542 0.09952 0.87672 0.0
C182 C 0.97544 0.17432 0.88089 0.0
O183 O 0.0305 0.09334 0.85632 0.0
C184 C 0.9769 0.14384 0.80049 0.0
O185 O 0.99098 0.10789 0.89011 0.0
O186 O 0.97989 0.10141 0.84583 0.0
O187 O 0.99132 0.18333 0.86287 0.0
O188 O 0.97923 0.15308 0.89095 0.0
C189 C 0.0464 0.13985 0.80118 0.0
O190 O 0.99189 0.12512 0.80173 0.0
O191 O 0.98058 0.16197 0.81671 0.0
C192 C 0.97595 0.09801 0.87188 0.0
O193 O 0.04234 0.12001 0.8144 0.0
O194 O 0.03147 0.15836 0.80493 0.0
C195 C 0.04558 0.17641 0.87921 0.0
Fe196 Fe 0.50834 0.35154 0.33949 0.0
Fe197 Fe 0.50699 0.383 0.39358 0.0
O198 O 0.50763 0.38083 0.35614 0.0
Fe199 Fe 0.50758 0.40795 0.33524 0.0
O200 O 0.47683 0.3992 0.31808 0.0
O201 O 0.48891 0.36124 0.30843 0.0
O202 O 0.47724 0.34263 0.35573 0.0
C203 C 0.4727 0.34261 0.38196 0.0
C204 C 0.54316 0.37653 0.30579 0.0
O205 O 0.48722 0.35485 0.39877 0.0
C206 C 0.5419 0.42162 0.37717 0.0
O207 O 0.5279 0.33644 0.36745 0.0
O208 O 0.53804 0.36636 0.39675 0.0
O209 O 0.52761 0.39486 0.30651 0.0
O210 O 0.53955 0.35836 0.32197 0.0
C211 C 0.47231 0.41998 0.38002 0.0
O212 O 0.52673 0.41147 0.39511 0.0
O213 O 0.53829 0.41861 0.35098 0.0
C214 C 0.54266 0.34534 0.38657 0.0
O215 O 0.47589 0.40002 0.39319 0.0
O216 O 0.48763 0.42615 0.36004 0.0
C217 C 0.47354 0.37943 0.30454 0.0
Fe218 Fe 0.51255 0.63525 0.89202 0.0
Fe219 Fe 0.51212 0.60962 0.83416 0.0
O220 O 0.51207 0.63695 0.85455 0.0
Fe221 Fe 0.51133 0.66604 0.83746 0.0
O222 O 0.54252 0.67493 0.8535 0.0
O223 O 0.53199 0.66369 0.89674 0.0
O224 O 0.54381 0.61848 0.89217 0.0
C225 C 0.5477 0.59851 0.87911 0.0
C226 C 0.47682 0.67267 0.88401 0.0
O227 O 0.53246 0.59195 0.85918 0.0
C228 C 0.47627 0.64063 0.80443 0.0
O229 O 0.49336 0.60653 0.89411 0.0
O230 O 0.48149 0.59906 0.85024 0.0
O231 O 0.49205 0.68149 0.8653 0.0
O232 O 0.48116 0.65165 0.89443 0.0
C233 C 0.54579 0.63783 0.80263 0.0
O234 O 0.4918 0.6223 0.80543 0.0
O235 O 0.48003 0.6591 0.82012 0.0
C236 C 0.47818 0.59607 0.87645 0.0
O237 O 0.5427 0.61822 0.81655 0.0
O238 O 0.53048 0.65604 0.80645 0.0
C239 C 0.5468 0.67548 0.87979 0.0
H240 H 0.17283 0.33026 0.03056 0.0
H241 H 0.14926 0.29629 0.00788 0.0
H242 H 0.19579 0.3066 0.93224 0.0
H243 H 0.21986 0.34042 0.95519 0.0
H244 H 0.11848 0.30089 0.96171 0.0
H245 H 0.19776 0.23237 0.94035 0.0
H246 H 0.20241 0.25797 0.96419 0.0
H247 H 0.20446 0.26255 0.92658 0.0
C248 C 0.17829 0.32505 0.00923 0.0
C249 C 0.19809 0.33803 0.99458 0.0
C250 C 0.16484 0.30562 0.99629 0.0
C251 C 0.17082 0.29874 0.9684 0.0
C252 C 0.19117 0.31119 0.95397 0.0
H253 H 0.08356 0.20366 0.85178 0.0
H254 H 0.11516 0.2327 0.87275 0.0
C255 C 0.20486 0.33056 0.96705 0.0
C256 C 0.15411 0.28003 0.95393 0.0
H257 H 0.15545 0.22443 0.91996 0.0
C258 C 0.12661 0.28415 0.95269 0.0
C259 C 0.16471 0.25823 0.94196 0.0
C260 C 0.19392 0.25234 0.9435 0.0
C261 C 0.10946 0.26712 0.93997 0.0
C262 C 0.11999 0.24527 0.92828 0.0
C263 C 0.14749 0.24123 0.92901 0.0
C264 C 0.10245 0.22629 0.91579 0.0
C265 C 0.08013 0.27266 0.93894 0.0
C266 C 0.08526 0.21275 0.93315 0.0
C267 C 0.06724 0.19613 0.92131 0.0
C268 C 0.06599 0.19279 0.89181 0.0
C269 C 0.08385 0.20589 0.87454 0.0
C270 C 0.10198 0.22243 0.88646 0.0
H271 H 0.07583 0.29229 0.94375 0.0
H272 H 0.07185 0.26818 0.91778 0.0
H273 H 0.06973 0.2611 0.9548 0.0
H274 H 0.08549 0.21535 0.95587 0.0
H275 H 0.05392 0.1863 0.93528 0.0
H276 H 0.86045 0.65272 0.47832 0.0
H277 H 0.88319 0.68619 0.45414 0.0
H278 H 0.81348 0.73176 0.46206 0.0
H279 H 0.79108 0.69881 0.48805 0.0
H280 H 0.87543 0.71094 0.40713 0.0
H281 H 0.8678 0.77574 0.49754 0.0
H282 H 0.85869 0.74375 0.50045 0.0
H283 H 0.83634 0.76548 0.48431 0.0
C284 C 0.84995 0.66992 0.47519 0.0
C285 C 0.82407 0.67317 0.48574 0.0
C286 C 0.86294 0.68901 0.46108 0.0
C287 C 0.85035 0.71178 0.45687 0.0
C288 C 0.82393 0.71463 0.46578 0.0
H289 H 0.93004 0.8215 0.34906 0.0
H290 H 0.89787 0.7919 0.3676 0.0
C291 C 0.81097 0.69559 0.48026 0.0
C292 C 0.86539 0.73247 0.44381 0.0
H293 H 0.88798 0.79083 0.45604 0.0
C294 C 0.87808 0.72846 0.41777 0.0
C295 C 0.86918 0.75524 0.45788 0.0
C296 C 0.85751 0.7603 0.4867 0.0
C297 C 0.89482 0.74627 0.40569 0.0
C298 C 0.89829 0.76917 0.41955 0.0
C299 C 0.88519 0.77338 0.44532 0.0
C300 C 0.91666 0.78842 0.40862 0.0
C301 C 0.90952 0.73984 0.37888 0.0
C302 C 0.93721 0.79732 0.4259 0.0
C303 C 0.95527 0.81467 0.41557 0.0
C304 C 0.95332 0.82334 0.38761 0.0
C305 C 0.93232 0.81491 0.37056 0.0
C306 C 0.91401 0.79785 0.38107 0.0
H307 H 0.91045 0.71961 0.37549 0.0
H308 H 0.89901 0.74805 0.36052 0.0
H309 H 0.93009 0.74712 0.37929 0.0
H310 H 0.93964 0.79046 0.44728 0.0
H311 H 0.97119 0.82077 0.42928 0.0
H312 H 0.75173 0.27838 0.915 0.0
H313 H 0.79408 0.25947 0.90353 0.0
H314 H 0.82793 0.2889 0.98021 0.0
H315 H 0.78482 0.30638 0.99301 0.0
H316 H 0.84106 0.27573 0.89282 0.0
H317 H 0.84752 0.21834 0.98969 0.0
H318 H 0.81813 0.23554 0.98064 0.0
H319 H 0.84596 0.25072 0.99693 0.0
C320 C 0.76801 0.28059 0.92974 0.0
C321 C 0.76452 0.29347 0.95532 0.0
C322 C 0.7924 0.26994 0.92296 0.0
C323 C 0.81416 0.27214 0.94131 0.0
C324 C 0.81127 0.28621 0.96609 0.0
H325 H 0.97073 0.2245 0.88008 0.0
H326 H 0.93324 0.24937 0.89621 0.0
C327 C 0.78665 0.29659 0.97316 0.0
C328 C 0.83953 0.25938 0.9343 0.0
H329 H 0.88428 0.21706 0.95878 0.0
C330 C 0.85052 0.26292 0.90729 0.0
C331 C 0.85173 0.24234 0.95297 0.0
C332 C 0.84012 0.23628 0.98156 0.0
C333 C 0.87295 0.24972 0.89825 0.0
C334 C 0.88556 0.23316 0.91717 0.0
C335 C 0.87481 0.22987 0.94433 0.0
C336 C 0.90914 0.21825 0.90882 0.0
C337 C 0.88211 0.25294 0.86807 0.0
C338 C 0.90879 0.19248 0.9118 0.0
C339 C 0.93053 0.17825 0.90329 0.0
C340 C 0.953 0.18947 0.89132 0.0
C341 C 0.95356 0.21527 0.88884 0.0
C342 C 0.93202 0.22952 0.89787 0.0
H343 H 0.86598 0.26016 0.85433 0.0
H344 H 0.89863 0.26642 0.86749 0.0
H345 H 0.88924 0.23528 0.85901 0.0
H346 H 0.89146 0.1833 0.92028 0.0
H347 H 0.92947 0.15841 0.90545 0.0
H348 H 0.26912 0.74332 0.41464 0.0
H349 H 0.22634 0.7608 0.40161 0.0
H350 H 0.18971 0.72371 0.47218 0.0
H351 H 0.23296 0.70748 0.48659 0.0
H352 H 0.18028 0.74321 0.38623 0.0
H353 H 0.1674 0.79304 0.48778 0.0
H354 H 0.19789 0.77769 0.47857 0.0
H355 H 0.17018 0.76029 0.49182 0.0
C356 C 0.25205 0.73902 0.42761 0.0
C357 C 0.2547 0.72442 0.45208 0.0
C358 C 0.22749 0.74886 0.41994 0.0
C359 C 0.20485 0.74416 0.43632 0.0
C360 C 0.20702 0.72826 0.45969 0.0
H361 H 0.04936 0.79264 0.3724 0.0
H362 H 0.08686 0.7673 0.38765 0.0
C363 C 0.23174 0.71864 0.46765 0.0
C364 C 0.17938 0.75657 0.42909 0.0
H365 H 0.1323 0.79589 0.45491 0.0
C366 C 0.16974 0.75467 0.40128 0.0
C367 C 0.16581 0.77186 0.4486 0.0
C368 C 0.17594 0.77609 0.47827 0.0
C369 C 0.14728 0.76789 0.3923 0.0
C370 C 0.13341 0.78278 0.41196 0.0
C371 C 0.14279 0.78436 0.43989 0.0
C372 C 0.10995 0.79785 0.40372 0.0
C373 C 0.13942 0.76654 0.36151 0.0
C374 C 0.10983 0.82336 0.40876 0.0
C375 C 0.08813 0.83781 0.40068 0.0
C376 C 0.06617 0.82709 0.38712 0.0
C377 C 0.06613 0.80151 0.38246 0.0
C378 C 0.08765 0.787 0.391 0.0
H379 H 0.15619 0.76038 0.348 0.0
H380 H 0.12311 0.75302 0.35901 0.0
H381 H 0.13241 0.78468 0.35363 0.0
H382 H 0.12673 0.83218 0.41863 0.0
H383 H 0.0888 0.85746 0.40453 0.0
H384 H 0.72187 0.8183 0.99928 0.0
H385 H 0.6984 0.78379 0.97704 0.0
H386 H 0.64306 0.83471 0.93913 0.0
H387 H 0.66617 0.8691 0.96156 0.0
H388 H 0.6182 0.7983 0.9676 0.0
H389 H 0.69422 0.75819 0.89632 0.0
H390 H 0.70481 0.76139 0.93242 0.0
H391 H 0.6976 0.78841 0.9118 0.0
C392 C 0.70505 0.82212 0.98568 0.0
C393 C 0.69575 0.84636 0.98226 0.0
C394 C 0.69168 0.8024 0.97294 0.0
C395 C 0.66904 0.80666 0.95626 0.0
C396 C 0.66043 0.83096 0.95195 0.0
H397 H 0.5777 0.70819 0.85034 0.0
H398 H 0.60846 0.73866 0.86957 0.0
C399 C 0.67362 0.85059 0.9648 0.0
C400 C 0.65289 0.7859 0.94518 0.0
H401 H 0.65445 0.73525 0.90232 0.0
C402 C 0.62615 0.78453 0.9533 0.0
C403 C 0.66322 0.76803 0.92638 0.0
C404 C 0.69146 0.76912 0.91597 0.0
C405 C 0.60942 0.76589 0.94314 0.0
C406 C 0.61985 0.7477 0.92483 0.0
C407 C 0.64658 0.74905 0.91661 0.0
C408 C 0.6029 0.72777 0.91319 0.0
C409 C 0.58053 0.76627 0.95154 0.0
C410 C 0.59008 0.71106 0.93126 0.0
C411 C 0.57231 0.69371 0.92037 0.0
C412 C 0.56718 0.69257 0.89113 0.0
C413 C 0.581 0.70862 0.87298 0.0
C414 C 0.59868 0.72604 0.88392 0.0
H415 H 0.57437 0.78461 0.95964 0.0
H416 H 0.56761 0.76139 0.93335 0.0
H417 H 0.57719 0.75258 0.96859 0.0
H418 H 0.59348 0.71172 0.95387 0.0
H419 H 0.56228 0.68146 0.93495 0.0
H420 H 0.35139 0.15136 0.46464 0.0
H421 H 0.37516 0.18605 0.44366 0.0
H422 H 0.31883 0.2365 0.4804 0.0
H423 H 0.29479 0.2017 0.50151 0.0
H424 H 0.33433 0.2488 0.42395 0.0
H425 H 0.42112 0.23136 0.4933 0.0
H426 H 0.41112 0.20496 0.47311 0.0
H427 H 0.38915 0.21743 0.49943 0.0
C428 C 0.34396 0.16983 0.46815 0.0
C429 C 0.32143 0.17382 0.48507 0.0
C430 C 0.35759 0.18963 0.45617 0.0
C431 C 0.34912 0.21388 0.46101 0.0
C432 C 0.3258 0.21793 0.47658 0.0
H433 H 0.4564 0.33814 0.43702 0.0
H434 H 0.42409 0.30913 0.45637 0.0
C435 C 0.31204 0.19804 0.48853 0.0
C436 C 0.36541 0.23488 0.45082 0.0
H437 H 0.42743 0.25975 0.45561 0.0
C438 C 0.35463 0.25133 0.43098 0.0
C439 C 0.39174 0.23843 0.4604 0.0
C440 C 0.40393 0.22227 0.48294 0.0
C441 C 0.36981 0.27076 0.41975 0.0
C442 C 0.39658 0.27354 0.42831 0.0
C443 C 0.40701 0.25752 0.44883 0.0
C444 C 0.41441 0.29257 0.41604 0.0
C445 C 0.35696 0.28823 0.39902 0.0
C446 C 0.41972 0.29301 0.38689 0.0
C447 C 0.43814 0.30965 0.37572 0.0
C448 C 0.45191 0.32603 0.39352 0.0
C449 C 0.44626 0.32577 0.42267 0.0
C450 C 0.42776 0.30919 0.43379 0.0
H451 H 0.33503 0.28832 0.40129 0.0
H452 H 0.36441 0.3073 0.40188 0.0
H453 H 0.3617 0.28224 0.37716 0.0
H454 H 0.41019 0.28 0.37283 0.0
H455 H 0.44203 0.30924 0.35319 0.0
H456 H 0.25199 0.77574 0.91102 0.0
H457 H 0.29454 0.75646 0.90127 0.0
H458 H 0.32716 0.78888 0.97695 0.0
H459 H 0.28385 0.8068 0.98806 0.0
H460 H 0.34161 0.77255 0.89058 0.0
H461 H 0.34683 0.71875 0.99021 0.0
H462 H 0.31751 0.73548 0.97982 0.0
H463 H 0.345 0.75135 0.99587 0.0
C464 C 0.26804 0.77855 0.9259 0.0
C465 C 0.26416 0.79242 0.95072 0.0
C466 C 0.29254 0.76767 0.9201 0.0
C467 C 0.314 0.77062 0.93872 0.0
C468 C 0.31073 0.78564 0.96269 0.0
H469 H 0.47173 0.72272 0.88234 0.0
H470 H 0.43381 0.74752 0.89735 0.0
C471 C 0.286 0.79626 0.96877 0.0
C472 C 0.33952 0.75771 0.93277 0.0
H473 H 0.38418 0.71661 0.96007 0.0
C474 C 0.35091 0.76034 0.90582 0.0
C475 C 0.35153 0.74143 0.95246 0.0
C476 C 0.33948 0.73635 0.98109 0.0
C477 C 0.3736 0.747 0.89785 0.0
C478 C 0.38603 0.73126 0.91779 0.0
C479 C 0.37484 0.72882 0.94486 0.0
C480 C 0.41 0.71642 0.91062 0.0
C481 C 0.38323 0.7492 0.86771 0.0
C482 C 0.40998 0.69074 0.91451 0.0
C483 C 0.43198 0.67655 0.90664 0.0
C484 C 0.45435 0.68775 0.89444 0.0
C485 C 0.45463 0.7135 0.89129 0.0
C486 C 0.43286 0.7277 0.89967 0.0
H487 H 0.36724 0.75572 0.85334 0.0
H488 H 0.39958 0.76283 0.86678 0.0
H489 H 0.39072 0.7313 0.85967 0.0
H490 H 0.39267 0.68157 0.92306 0.0
H491 H 0.43115 0.65675 0.90931 0.0
H492 H 0.75604 0.22519 0.40794 0.0
H493 H 0.71402 0.24665 0.40073 0.0
H494 H 0.69912 0.2448 0.49049 0.0
H495 H 0.74157 0.22339 0.498 0.0
H496 H 0.65351 0.23339 0.45391 0.0
H497 H 0.70467 0.32012 0.42444 0.0
H498 H 0.71575 0.29351 0.40518 0.0
H499 H 0.72124 0.29524 0.4427 0.0
C500 C 0.74388 0.22934 0.4262 0.0
C501 C 0.75237 0.22295 0.45361 0.0
C502 C 0.71984 0.24157 0.42202 0.0
C503 C 0.70373 0.24773 0.44511 0.0
C504 C 0.7114 0.24034 0.4724 0.0
H505 H 0.57817 0.35796 0.4281 0.0
H506 H 0.61582 0.33384 0.44548 0.0
C507 C 0.73557 0.22804 0.47664 0.0
C508 C 0.67942 0.26262 0.44052 0.0
H509 H 0.65844 0.31805 0.41465 0.0
C510 C 0.65452 0.25198 0.44558 0.0
C511 C 0.68082 0.287 0.43004 0.0
C512 C 0.70704 0.29979 0.42549 0.0
C513 C 0.63094 0.26479 0.43938 0.0
C514 C 0.63239 0.28871 0.42751 0.0
C515 C 0.65731 0.29964 0.4235 0.0
C516 C 0.60843 0.30254 0.41832 0.0
C517 C 0.60471 0.25261 0.44561 0.0
C518 C 0.59181 0.29303 0.39714 0.0
C519 C 0.57026 0.30676 0.38714 0.0
C520 C 0.56495 0.33039 0.39798 0.0
C521 C 0.58158 0.33981 0.41931 0.0
C522 C 0.60313 0.32605 0.42929 0.0
H523 H 0.6068 0.23796 0.46189 0.0
H524 H 0.58984 0.26625 0.45301 0.0
H525 H 0.59706 0.24392 0.426 0.0
H526 H 0.59587 0.2752 0.38785 0.0
H527 H 0.55801 0.29896 0.37059 0.0
H528 H 0.36834 0.41035 0.98802 0.0
H529 H 0.39179 0.44211 0.96138 0.0
H530 H 0.31849 0.48196 0.95013 0.0
H531 H 0.29512 0.45099 0.97813 0.0
H532 H 0.38814 0.46128 0.9087 0.0
H533 H 0.36424 0.53295 0.98851 0.0
H534 H 0.35779 0.50072 0.99444 0.0
H535 H 0.3357 0.51872 0.9728 0.0
C536 C 0.35717 0.42589 0.97993 0.0
C537 C 0.3299 0.42828 0.98568 0.0
C538 C 0.37058 0.44394 0.96449 0.0
C539 C 0.35703 0.46473 0.95432 0.0
C540 C 0.3295 0.46639 0.95838 0.0
H541 H 0.43925 0.57263 0.84599 0.0
H542 H 0.40794 0.54151 0.86299 0.0
C543 C 0.31608 0.44844 0.97407 0.0
C544 C 0.3721 0.48509 0.94081 0.0
H545 H 0.38841 0.54576 0.94852 0.0
C546 C 0.3881 0.47981 0.91728 0.0
C547 C 0.37231 0.50917 0.9523 0.0
C548 C 0.3568 0.51576 0.97855 0.0
C549 C 0.40459 0.49781 0.90517 0.0
C550 C 0.40458 0.52195 0.9165 0.0
C551 C 0.38824 0.52732 0.93972 0.0
C552 C 0.42274 0.54146 0.90599 0.0
C553 C 0.42267 0.49051 0.88115 0.0
C554 C 0.44081 0.55247 0.92471 0.0
C555 C 0.45841 0.57049 0.91519 0.0
C556 C 0.45844 0.57788 0.88666 0.0
C557 C 0.43995 0.5672 0.86803 0.0
C558 C 0.42214 0.54927 0.87766 0.0
H559 H 0.42504 0.47021 0.87969 0.0
H560 H 0.41407 0.4971 0.8609 0.0
H561 H 0.44259 0.49893 0.88365 0.0
H562 H 0.44157 0.54683 0.94668 0.0
H563 H 0.47233 0.57831 0.93016 0.0
H564 H 0.65772 0.61344 0.47647 0.0
H565 H 0.63272 0.5825 0.44982 0.0
H566 H 0.69693 0.53075 0.46064 0.0
H567 H 0.72235 0.56199 0.48642 0.0
H568 H 0.67411 0.52553 0.40928 0.0
H569 H 0.59634 0.52786 0.49204 0.0
H570 H 0.6011 0.55716 0.4753 0.0
H571 H 0.6275 0.54375 0.49588 0.0
C572 C 0.66666 0.59561 0.47262 0.0
C573 C 0.69187 0.59003 0.48359 0.0
C574 C 0.65231 0.57788 0.45763 0.0
C575 C 0.66261 0.55404 0.45397 0.0
C576 C 0.68848 0.54894 0.46338 0.0
H577 H 0.56313 0.42559 0.43009 0.0
H578 H 0.59434 0.45653 0.44733 0.0
C579 C 0.70304 0.56682 0.47801 0.0
C580 C 0.64586 0.53407 0.44198 0.0
H581 H 0.5871 0.50395 0.45137 0.0
C582 C 0.6551 0.52076 0.41849 0.0
C583 C 0.6213 0.52745 0.45438 0.0
C584 C 0.61108 0.53961 0.48096 0.0
C585 C 0.6403 0.50127 0.40684 0.0
C586 C 0.61525 0.49536 0.41857 0.0
C587 C 0.60618 0.50855 0.4422 0.0
C588 C 0.5981 0.47538 0.40715 0.0
C589 C 0.65203 0.48686 0.38261 0.0
C590 C 0.58991 0.47546 0.37873 0.0
C591 C 0.57233 0.45752 0.3687 0.0
C592 C 0.56212 0.43947 0.38707 0.0
C593 C 0.57051 0.4393 0.41543 0.0
C594 C 0.58837 0.457 0.42531 0.0
H595 H 0.67399 0.48848 0.38208 0.0
H596 H 0.64672 0.46706 0.38398 0.0
H597 H 0.64423 0.49428 0.36236 0.0
H598 H 0.5965 0.48978 0.36444 0.0
H599 H 0.56607 0.4583 0.34679 0.0
H600 H 0.64123 0.4214 0.01773 0.0
H601 H 0.62265 0.45716 0.99374 0.0
H602 H 0.68877 0.45784 0.93599 0.0
H603 H 0.70816 0.4222 0.96064 0.0
H604 H 0.67367 0.50563 0.95695 0.0
H605 H 0.58772 0.4534 0.9153 0.0
H606 H 0.59188 0.45039 0.95286 0.0
H607 H 0.61688 0.43848 0.92943 0.0
C608 C 0.65217 0.42932 1.00025 0.0
C609 C 0.67635 0.41897 0.99125 0.0
C610 C 0.64131 0.44964 0.98634 0.0
C611 C 0.65414 0.45996 0.96287 0.0
C612 C 0.6785 0.45005 0.95401 0.0
H613 H 0.56719 0.55851 0.85125 0.0
H614 H 0.59637 0.52641 0.86967 0.0
C615 C 0.68946 0.42963 0.96799 0.0
C616 C 0.64161 0.4808 0.94751 0.0
H617 H 0.58474 0.49714 0.91307 0.0
C618 C 0.65435 0.50378 0.94708 0.0
C619 C 0.61656 0.47826 0.93433 0.0
C620 C 0.60254 0.45375 0.9327 0.0
C621 C 0.64224 0.52451 0.93464 0.0
C622 C 0.61658 0.52221 0.92273 0.0
C623 C 0.6043 0.49901 0.9224 0.0
C624 C 0.60177 0.54347 0.91062 0.0
C625 C 0.65711 0.54859 0.93422 0.0
C626 C 0.5954 0.56406 0.92732 0.0
C627 C 0.57879 0.58263 0.91672 0.0
C628 C 0.56792 0.58073 0.88939 0.0
C629 C 0.57504 0.56048 0.87246 0.0
C630 C 0.59177 0.54209 0.88295 0.0
H631 H 0.67885 0.54567 0.93619 0.0
H632 H 0.6531 0.559 0.91444 0.0
H633 H 0.65061 0.56002 0.95239 0.0
H634 H 0.60237 0.5653 0.94894 0.0
H635 H 0.57358 0.5979 0.93037 0.0
H636 H 0.32347 0.57315 0.51653 0.0
H637 H 0.34357 0.53701 0.49416 0.0
H638 H 0.37287 0.58275 0.42651 0.0
H639 H 0.35393 0.61906 0.44925 0.0
H640 H 0.33993 0.5144 0.44085 0.0
H641 H 0.44041 0.55271 0.45956 0.0
H642 H 0.41106 0.56553 0.47567 0.0
H643 H 0.41918 0.57277 0.43956 0.0
C644 C 0.33409 0.57551 0.49681 0.0
C645 C 0.33735 0.59912 0.48493 0.0
C646 C 0.34542 0.5548 0.48397 0.0
C647 C 0.36022 0.55728 0.45902 0.0
C648 C 0.36198 0.5805 0.44608 0.0
H649 H 0.46051 0.46484 0.35717 0.0
H650 H 0.43114 0.49646 0.37609 0.0
C651 C 0.3508 0.60123 0.45896 0.0
C652 C 0.3752 0.53598 0.44746 0.0
H653 H 0.43791 0.51666 0.43149 0.0
C654 C 0.36135 0.51482 0.43888 0.0
C655 C 0.4032 0.53645 0.44525 0.0
C656 C 0.4194 0.55797 0.45575 0.0
C657 C 0.37475 0.49442 0.4273 0.0
C658 C 0.40265 0.4952 0.42451 0.0
C659 C 0.41648 0.5162 0.43347 0.0
C660 C 0.41813 0.47476 0.41183 0.0
C661 C 0.35898 0.47244 0.4175 0.0
C662 C 0.42037 0.45189 0.42552 0.0
C663 C 0.4373 0.43365 0.41479 0.0
C664 C 0.45238 0.43807 0.39024 0.0
C665 C 0.44936 0.46077 0.37618 0.0
C666 C 0.43253 0.47891 0.38693 0.0
H667 H 0.33742 0.47655 0.41616 0.0
H668 H 0.36602 0.46612 0.39646 0.0
H669 H 0.36183 0.45707 0.43269 0.0
H670 H 0.4097 0.44844 0.445 0.0
H671 H 0.43914 0.41641 0.42616 0.0
H672 H 0.7921 0.95362 0.97168 0.0
H673 H 0.81492 0.98371 0.94201 0.0
H674 H 0.88874 0.94505 0.95487 0.0
H675 H 0.86583 0.91414 0.9832 0.0
H676 H 0.85183 0.0143 0.95926 0.0
H677 H 0.89388 0.95914 0.87206 0.0
H678 H 0.86871 0.94719 0.89547 0.0
H679 H 0.90315 0.94658 0.90572 0.0
C680 C 0.81301 0.95101 0.96744 0.0
C681 C 0.8271 0.93141 0.97991 0.0
C682 C 0.8261 0.96839 0.95064 0.0
C683 C 0.85353 0.96657 0.94591 0.0
C684 C 0.86748 0.94662 0.95761 0.0
H685 H 0.96663 0.08185 0.92569 0.0
H686 H 0.93475 0.05104 0.94123 0.0
C687 C 0.85439 0.92912 0.97419 0.0
C688 C 0.86802 0.98677 0.93132 0.0
H689 H 0.91502 0.99833 0.88102 0.0
C690 C 0.86533 0.01082 0.94185 0.0
C691 C 0.88535 0.98243 0.90829 0.0
C692 C 0.88772 0.95747 0.89454 0.0
C693 C 0.88036 0.03037 0.93093 0.0
C694 C 0.89915 0.02566 0.90938 0.0
C695 C 0.90091 1.00188 0.89785 0.0
C696 C 0.91809 0.04482 0.89963 0.0
C697 C 0.87601 0.05587 0.94274 0.0
C698 C 0.91987 0.05118 0.87089 0.0
C699 C 0.93839 0.0687 0.86181 0.0
C700 C 0.95556 0.0801 0.88132 0.0
C701 C 0.95363 0.07365 0.91007 0.0
C702 C 0.93526 0.0561 0.91907 0.0
H703 H 0.85568 0.05792 0.9515 0.0
H704 H 0.89027 0.05913 0.96024 0.0
H705 H 0.87909 0.07023 0.92634 0.0
H706 H 0.90694 0.04259 0.85549 0.0
H707 H 0.93936 0.07319 0.8395 0.0
H708 H 0.21989 0.06142 0.48232 0.0
H709 H 0.19476 0.03103 0.45512 0.0
H710 H 0.12924 0.08197 0.44876 0.0
H711 H 0.15402 0.112 0.47694 0.0
H712 H 0.11225 0.03977 0.46645 0.0
H713 H 0.17631 0.02173 0.37394 0.0
H714 H 0.19394 0.01714 0.40647 0.0
H715 H 0.18187 0.04739 0.39743 0.0
C716 C 0.20039 0.06632 0.47445 0.0
C717 C 0.1889 0.08906 0.4816 0.0
C718 C 0.18605 0.04897 0.4588 0.0
C719 C 0.16017 0.05424 0.44949 0.0
C720 C 0.14916 0.07743 0.45564 0.0
H721 H 0.06542 0.95709 0.34198 0.0
H722 H 0.0942 0.98979 0.36002 0.0
C723 C 0.16332 0.09461 0.47166 0.0
C724 C 0.14358 0.03484 0.43598 0.0
H725 H 0.14265 0.99152 0.38354 0.0
C726 C 0.11884 0.02942 0.44813 0.0
C727 C 0.15193 0.02144 0.41187 0.0
C728 C 0.17734 0.0274 0.3965 0.0
C729 C 0.10251 0.01078 0.43729 0.0
C730 C 0.11151 0.99643 0.4142 0.0
C731 C 0.13594 1.0022 0.40155 0.0
C732 C 0.09564 0.9756 0.40279 0.0
C733 C 0.07554 1.00699 0.45046 0.0
C734 C 0.08756 0.95628 0.42057 0.0
C735 C 0.07084 0.93775 0.41042 0.0
C736 C 0.06229 0.93786 0.3821 0.0
C737 C 0.07158 0.95648 0.36392 0.0
C738 C 0.08804 0.9752 0.37421 0.0
H739 H 0.06851 0.02387 0.46142 0.0
H740 H 0.06057 1.00173 0.43432 0.0
H741 H 0.0768 0.99205 0.46643 0.0
H742 H 0.09384 0.95573 0.44247 0.0
H743 H 0.06438 0.92348 0.42487 0.0
H744 H 0.16347 0.90197 0.94507 0.0
H745 H 0.14562 0.93928 0.92328 0.0
H746 H 0.17832 0.98294 0.99096 0.0
H747 H 0.19657 0.94569 0.01278 0.0
H748 H 0.12423 0.99057 0.98206 0.0
H749 H 0.17922 0.99724 0.88087 0.0
H750 H 0.16494 0.96746 0.88717 0.0
H751 H 0.19065 0.97867 0.91018 0.0
C752 C 0.1676 0.91956 0.95491 0.0
C753 C 0.18149 0.9208 0.98071 0.0
C754 C 0.15732 0.94091 0.94242 0.0
C755 C 0.16082 0.96395 0.95535 0.0
C756 C 0.17543 0.96537 0.98058 0.0
H757 H 0.08024 0.10486 0.92117 0.0
H758 H 0.11065 0.07384 0.94039 0.0
C759 C 0.18577 0.94405 0.99306 0.0
C760 C 0.14712 0.98609 0.944 0.0
H761 H 0.13983 0.02155 0.88476 0.0
C762 C 0.12788 0.99758 0.96093 0.0
C763 C 0.15183 0.99512 0.91639 0.0
C764 C 0.17296 0.98415 0.89765 0.0
C765 C 0.11247 0.01722 0.95063 0.0
C766 C 0.11683 0.02599 0.9228 0.0
C767 C 0.13651 0.01485 0.90609 0.0
C768 C 0.10005 0.04563 0.9101 0.0
C769 C 0.09087 0.02764 0.96921 0.0
C770 C 0.08477 0.04045 0.88602 0.0
C771 C 0.06758 0.05817 0.87485 0.0
C772 C 0.06526 0.08154 0.8875 0.0
C773 C 0.0813 0.087 0.91105 0.0
C774 C 0.09861 0.06924 0.92217 0.0
H775 H 0.08606 0.01517 0.98713 0.0
H776 H 0.09756 0.04547 0.97815 0.0
H777 H 0.07248 0.031 0.95684 0.0
H778 H 0.08563 0.02242 0.87626 0.0
H779 H 0.05568 0.0533 0.8566 0.0
H780 H 0.82705 0.07096 0.52029 0.0
H781 H 0.84799 0.03417 0.50011 0.0
H782 H 0.87759 0.07758 0.43061 0.0
H783 H 0.85776 0.11446 0.45104 0.0
H784 H 0.84376 0.01042 0.44684 0.0
H785 H 0.94481 0.04746 0.4649 0.0
H786 H 0.91567 0.06083 0.48088 0.0
H787 H 0.92399 0.06778 0.44475 0.0
C788 C 0.83801 0.07266 0.50069 0.0
C789 C 0.84084 0.09575 0.48742 0.0
C790 C 0.84981 0.0516 0.48911 0.0
C791 C 0.86474 0.05325 0.46415 0.0
C792 C 0.86654 0.07598 0.45017 0.0
H793 H 0.96036 0.96265 0.35735 0.0
H794 H 0.93199 0.99362 0.37915 0.0
C795 C 0.85486 0.09702 0.46173 0.0
C796 C 0.87939 0.03154 0.45318 0.0
H797 H 0.94161 0.01188 0.43574 0.0
C798 C 0.86517 0.01059 0.44463 0.0
C799 C 0.90736 0.03174 0.45061 0.0
C800 C 0.92391 0.05305 0.46103 0.0
C801 C 0.87815 0.99024 0.43243 0.0
C802 C 0.90599 0.99089 0.42897 0.0
C803 C 0.92022 0.01155 0.43823 0.0
C804 C 0.92088 0.97086 0.41475 0.0
C805 C 0.86201 0.96855 0.42246 0.0
C806 C 0.9238 0.94762 0.42741 0.0
C807 C 0.94017 0.92975 0.41501 0.0
C808 C 0.95396 0.93492 0.3898 0.0
C809 C 0.95021 0.95801 0.37681 0.0
C810 C 0.93396 0.97578 0.38923 0.0
H811 H 0.84039 0.97254 0.42255 0.0
H812 H 0.86803 0.96313 0.40074 0.0
H813 H 0.86574 0.95261 0.43663 0.0
H814 H 0.91412 0.94358 0.44733 0.0
H815 H 0.94261 0.9122 0.42559 0.0
H816 H 0.29699 0.39325 0.10503 0.0
H817 H 0.3212 0.38919 0.14973 0.0
H818 H 0.39229 0.37035 0.10394 0.0
H819 H 0.36822 0.37418 0.05916 0.0
H820 H 0.35128 0.34989 0.17436 0.0
H821 H 0.41298 0.43193 0.15031 0.0
H822 H 0.38322 0.42462 0.1308 0.0
H823 H 0.4136 0.40849 0.12353 0.0
C824 C 0.31764 0.38775 0.10448 0.0
C825 C 0.33074 0.38421 0.07851 0.0
C826 C 0.33147 0.38557 0.13004 0.0
C827 C 0.35863 0.37991 0.13009 0.0
C828 C 0.37145 0.37522 0.10432 0.0
H829 H 0.46308 0.34108 0.26864 0.0
H830 H 0.43334 0.34088 0.22783 0.0
C831 C 0.35767 0.37741 0.07877 0.0
C832 C 0.37382 0.37994 0.15696 0.0
H833 H 0.42479 0.40884 0.19097 0.0
C834 C 0.36731 0.36279 0.17807 0.0
C835 C 0.39442 0.39708 0.16191 0.0
C836 C 0.40138 0.41674 0.14059 0.0
C837 C 0.38133 0.36196 0.20379 0.0
C838 C 0.40254 0.37856 0.2083 0.0
C839 C 0.40863 0.39603 0.18741 0.0
C840 C 0.41902 0.37802 0.23433 0.0
C841 C 0.37313 0.34355 0.22602 0.0
C842 C 0.42103 0.39904 0.25145 0.0
C843 C 0.43816 0.3993 0.27474 0.0
C844 C 0.4538 0.37857 0.28124 0.0
C845 C 0.45132 0.35736 0.26433 0.0
C846 C 0.43418 0.35714 0.24106 0.0
H847 H 0.35248 0.33703 0.22263 0.0
H848 H 0.38648 0.32732 0.22497 0.0
H849 H 0.37465 0.35158 0.24756 0.0
H850 H 0.40959 0.4154 0.24656 0.0
H851 H 0.43953 0.41594 0.28728 0.0
H852 H 0.6518 0.64367 0.55622 0.0
H853 H 0.62686 0.64813 0.60035 0.0
H854 H 0.69629 0.62717 0.64799 0.0
H855 H 0.72129 0.62251 0.60405 0.0
H856 H 0.61744 0.61088 0.6392 0.0
H857 H 0.67055 0.6887 0.68987 0.0
H858 H 0.67384 0.68157 0.65273 0.0
H859 H 0.69177 0.66397 0.67869 0.0
C860 C 0.66181 0.64019 0.57611 0.0
C861 C 0.68856 0.6328 0.5766 0.0
C862 C 0.64756 0.64282 0.6013 0.0
C863 C 0.6598 0.63825 0.62747 0.0
C864 C 0.68661 0.63132 0.62809 0.0
H865 H 0.57839 0.60071 0.784 0.0
H866 H 0.60709 0.60102 0.74226 0.0
C867 C 0.70089 0.6287 0.60292 0.0
C868 C 0.64404 0.63909 0.65393 0.0
H869 H 0.63994 0.6667 0.7187 0.0
C870 C 0.62229 0.62314 0.65655 0.0
C871 C 0.65032 0.65523 0.67644 0.0
C872 C 0.67274 0.67352 0.6743 0.0
C873 C 0.60683 0.62266 0.68121 0.0
C874 C 0.61356 0.63828 0.70404 0.0
C875 C 0.63506 0.65452 0.70129 0.0
C876 C 0.59786 0.63859 0.73054 0.0
C877 C 0.58313 0.60573 0.68243 0.0
C878 C 0.58395 0.6599 0.73835 0.0
C879 C 0.56762 0.65983 0.76222 0.0
C880 C 0.56497 0.63846 0.77885 0.0
C881 C 0.5798 0.61742 0.77158 0.0
C882 C 0.59611 0.61752 0.74765 0.0
H883 H 0.57709 0.59935 0.66105 0.0
H884 H 0.5882 0.58928 0.69528 0.0
H885 H 0.56595 0.61505 0.69252 0.0
H886 H 0.58515 0.67639 0.72551 0.0
H887 H 0.55665 0.67641 0.76727 0.0
H888 H 0.66451 0.33311 0.07277 0.0
H889 H 0.64498 0.33079 0.12 0.0
H890 H 0.67821 0.40167 0.14053 0.0
H891 H 0.69838 0.40393 0.09342 0.0
H892 H 0.67873 0.36395 0.18664 0.0
H893 H 0.58068 0.37831 0.13496 0.0
H894 H 0.60033 0.35329 0.12147 0.0
H895 H 0.61161 0.38441 0.11709 0.0
C896 C 0.6684 0.34788 0.08758 0.0
C897 C 0.68289 0.3688 0.07925 0.0
C898 C 0.65702 0.3466 0.11449 0.0
C899 C 0.65988 0.3662 0.13356 0.0
C900 C 0.67572 0.38638 0.12605 0.0
H901 H 0.55526 0.41186 0.2668 0.0
H902 H 0.58569 0.40872 0.22691 0.0
C903 C 0.6871 0.38771 0.0991 0.0
C904 C 0.64419 0.3668 0.16004 0.0
H905 H 0.58074 0.37253 0.1843 0.0
C906 C 0.6573 0.36572 0.18622 0.0
C907 C 0.61628 0.36943 0.15932 0.0
C908 C 0.6013 0.37163 0.13176 0.0
C909 C 0.6431 0.36706 0.21181 0.0
C910 C 0.61517 0.36946 0.21102 0.0
C911 C 0.60215 0.37057 0.18481 0.0
C912 C 0.59889 0.37184 0.237 0.0
C913 C 0.65805 0.36652 0.23944 0.0
C914 C 0.59642 0.35219 0.25613 0.0
C915 C 0.57891 0.35388 0.27906 0.0
C916 C 0.56348 0.37523 0.28313 0.0
C917 C 0.56668 0.3951 0.26431 0.0
C918 C 0.5841 0.39337 0.24146 0.0
H919 H 0.67967 0.36941 0.23638 0.0
H920 H 0.65038 0.38086 0.25405 0.0
H921 H 0.65515 0.34833 0.2497 0.0
H922 H 0.60737 0.33527 0.25283 0.0
H923 H 0.57695 0.33824 0.29313 0.0
H924 H 0.36097 0.68191 0.56876 0.0
H925 H 0.38048 0.68301 0.6161 0.0
H926 H 0.34359 0.61356 0.63594 0.0
H927 H 0.32353 0.61245 0.58862 0.0
H928 H 0.34344 0.65405 0.68144 0.0
H929 H 0.4415 0.63098 0.63421 0.0
H930 H 0.42356 0.6561 0.61831 0.0
H931 H 0.41061 0.62541 0.61595 0.0
C932 C 0.35642 0.66715 0.58339 0.0
C933 C 0.34072 0.64705 0.57491 0.0
C934 C 0.36774 0.66775 0.61036 0.0
C935 C 0.36356 0.64831 0.62935 0.0
C936 C 0.34699 0.62874 0.62151 0.0
H937 H 0.46185 0.60355 0.76879 0.0
H938 H 0.43202 0.6058 0.72828 0.0
C939 C 0.33571 0.62806 0.59446 0.0
C940 C 0.37833 0.64742 0.65638 0.0
H941 H 0.4405 0.6388 0.68317 0.0
C942 C 0.36465 0.65076 0.68194 0.0
C943 C 0.40593 0.64289 0.6568 0.0
C944 C 0.42136 0.63845 0.62992 0.0
C945 C 0.37804 0.64986 0.70805 0.0
C946 C 0.40572 0.64561 0.7084 0.0
C947 C 0.41928 0.64216 0.6828 0.0
C948 C 0.42117 0.64389 0.73501 0.0
C949 C 0.3625 0.65297 0.73505 0.0
C950 C 0.42466 0.66451 0.75252 0.0
C951 C 0.44182 0.66332 0.77582 0.0
C952 C 0.45589 0.64152 0.7818 0.0
C953 C 0.45153 0.6207 0.76472 0.0
C954 C 0.43443 0.62191 0.74155 0.0
H955 H 0.3408 0.65114 0.73148 0.0
H956 H 0.36881 0.63917 0.75106 0.0
H957 H 0.36637 0.67156 0.74388 0.0
H958 H 0.41489 0.68175 0.74758 0.0
H959 H 0.44473 0.67969 0.78852 0.0
H960 H 0.86567 0.87949 0.05501 0.0
H961 H 0.88981 0.87485 0.09963 0.0
H962 H 0.81947 0.89534 0.14585 0.0
H963 H 0.79522 0.90014 0.10132 0.0
H964 H 0.89847 0.91179 0.13902 0.0
H965 H 0.84459 0.8333 0.18756 0.0
H966 H 0.84194 0.84082 0.15044 0.0
H967 H 0.82373 0.85828 0.17623 0.0
C968 C 0.85529 0.88286 0.07468 0.0
C969 C 0.82851 0.89015 0.0746 0.0
C970 C 0.86908 0.88013 0.10015 0.0
C971 C 0.85637 0.8845 0.12607 0.0
C972 C 0.82952 0.89137 0.12613 0.0
H973 H 0.93914 0.91751 0.28375 0.0
H974 H 0.90953 0.91868 0.24271 0.0
C975 C 0.81568 0.89408 0.10064 0.0
C976 C 0.87171 0.88336 0.15283 0.0
H977 H 0.87566 0.85418 0.21676 0.0
C978 C 0.8935 0.89919 0.15602 0.0
C979 C 0.86528 0.86677 0.17487 0.0
C980 C 0.84276 0.84865 0.17212 0.0
C981 C 0.90898 0.89898 0.1807 0.0
C982 C 0.90223 0.88277 0.20299 0.0
C983 C 0.88057 0.86679 0.19976 0.0
C984 C 0.91823 0.88146 0.22928 0.0
C985 C 0.93282 0.91571 0.18243 0.0
C986 C 0.93213 0.85983 0.23593 0.0
C987 C 0.94898 0.85905 0.2594 0.0
C988 C 0.9522 0.87988 0.27677 0.0
C989 C 0.93732 0.9012 0.27073 0.0
C990 C 0.92047 0.90195 0.24721 0.0
H991 H 0.93871 0.9228 0.16129 0.0
H992 H 0.92799 0.93174 0.19605 0.0
H993 H 0.95002 0.90595 0.19194 0.0
H994 H 0.93056 0.84377 0.22244 0.0
H995 H 0.95996 0.84227 0.2635 0.0
H996 H 0.17305 0.0921 0.57904 0.0
H997 H 0.15027 0.09848 0.6241 0.0
H998 H 0.17745 0.17368 0.62605 0.0
H999 H 0.20037 0.16748 0.58065 0.0
H1000 H 0.17825 0.1222 0.67952 0.0
H1001 H 0.08969 0.16883 0.63314 0.0
H1002 H 0.10874 0.14682 0.61292 0.0
H1003 H 0.1225 0.17645 0.62069 0.0
C1004 C 0.17404 0.11007 0.58891 0.0
C1005 C 0.18827 0.12939 0.57615 0.0
C1006 C 0.16118 0.11361 0.61474 0.0
C1007 C 0.16217 0.13653 0.62824 0.0
C1008 C 0.1765 0.15586 0.61583 0.0
H1009 H 0.06425 0.18014 0.77215 0.0
H1010 H 0.09501 0.181 0.73221 0.0
C1011 C 0.18959 0.15228 0.59 0.0
C1012 C 0.14774 0.14008 0.65516 0.0
H1013 H 0.08863 0.15997 0.68175 0.0
C1014 C 0.15876 0.13067 0.68017 0.0
C1015 C 0.12245 0.15122 0.6558 0.0
C1016 C 0.10992 0.16144 0.62929 0.0
C1017 C 0.1449 0.13183 0.70592 0.0
C1018 C 0.11904 0.14205 0.7064 0.0
C1019 C 0.10839 0.15207 0.68141 0.0
C1020 C 0.10218 0.1417 0.73219 0.0
C1021 C 0.15819 0.12222 0.73232 0.0
C1022 C 0.09603 0.11934 0.74562 0.0
C1023 C 0.07862 0.11881 0.76864 0.0
C1024 C 0.06661 0.1406 0.7784 0.0
C1025 C 0.07307 0.16301 0.76514 0.0
C1026 C 0.09066 0.16354 0.74228 0.0
H1027 H 0.18015 0.12285 0.73042 0.0
H1028 H 0.1522 0.13296 0.75126 0.0
H1029 H 0.15241 0.10272 0.73561 0.0
H1030 H 0.10407 0.10216 0.73779 0.0
H1031 H 0.07394 0.1012 0.77818 0.0
H1032 H 0.19406 0.90573 0.08379 0.0
H1033 H 0.1737 0.90372 0.13077 0.0
H1034 H 0.13873 0.83365 0.10971 0.0
H1035 H 0.15835 0.83582 0.06256 0.0
H1036 H 0.1025 0.86809 0.12936 0.0
H1037 H 0.18921 0.86173 0.20146 0.0
H1038 H 0.19102 0.88633 0.17608 0.0
H1039 H 0.19135 0.85493 0.16412 0.0
C1040 C 0.18228 0.88977 0.0893 0.0
C1041 C 0.17787 0.87093 0.06942 0.0
C1042 C 0.17088 0.88853 0.11625 0.0
C1043 C 0.15495 0.8684 0.12384 0.0
C1044 C 0.15114 0.84925 0.10435 0.0
H1045 H 0.07565 0.83876 0.28473 0.0
H1046 H 0.10461 0.83641 0.24315 0.0
C1047 C 0.16254 0.85045 0.07746 0.0
C1048 C 0.14014 0.8684 0.15094 0.0
H1049 H 0.14733 0.87042 0.22282 0.0
C1050 C 0.11232 0.86843 0.14978 0.0
C1051 C 0.15298 0.86869 0.17756 0.0
C1052 C 0.18279 0.86769 0.18003 0.0
C1053 C 0.09699 0.86929 0.17449 0.0
C1054 C 0.1098 0.87041 0.20107 0.0
C1055 C 0.13761 0.86977 0.20236 0.0
C1056 C 0.09438 0.87266 0.22758 0.0
C1057 C 0.06714 0.86897 0.172 0.0
C1058 C 0.07965 0.89406 0.2329 0.0
C1059 C 0.06314 0.89549 0.25654 0.0
C1060 C 0.06101 0.8755 0.27537 0.0
C1061 C 0.07667 0.85442 0.27059 0.0
C1062 C 0.09328 0.85306 0.24689 0.0
H1063 H 0.06051 0.86263 0.1508 0.0
H1064 H 0.05827 0.85681 0.18834 0.0
H1065 H 0.05937 0.88788 0.17536 0.0
H1066 H 0.08051 0.90949 0.21839 0.0
H1067 H 0.05158 0.91209 0.25964 0.0
H1068 H 0.85555 0.18482 0.56507 0.0
H1069 H 0.87556 0.18864 0.61201 0.0
H1070 H 0.84311 0.11818 0.63567 0.0
H1071 H 0.82247 0.11443 0.58893 0.0
H1072 H 0.84232 0.15612 0.68012 0.0
H1073 H 0.94068 0.14334 0.6288 0.0
H1074 H 0.92053 0.16791 0.615 0.0
H1075 H 0.90991 0.13655 0.61091 0.0
C1076 C 0.85199 0.17045 0.5805 0.0
C1077 C 0.83755 0.14922 0.57318 0.0
C1078 C 0.86364 0.17258 0.60724 0.0
C1079 C 0.86113 0.15353 0.62712 0.0
C1080 C 0.84536 0.13304 0.62057 0.0
H1081 H 0.96526 0.10893 0.76087 0.0
H1082 H 0.93532 0.11248 0.72055 0.0
C1083 C 0.83371 0.13087 0.59382 0.0
C1084 C 0.8769 0.1538 0.6536 0.0
H1085 H 0.94045 0.14928 0.67808 0.0
C1086 C 0.86378 0.15479 0.67976 0.0
C1087 C 0.90487 0.15174 0.65297 0.0
C1088 C 0.91993 0.14962 0.62548 0.0
C1089 C 0.87799 0.15378 0.70538 0.0
C1090 C 0.90595 0.1518 0.70468 0.0
C1091 C 0.91901 0.15093 0.67851 0.0
C1092 C 0.92218 0.14934 0.73071 0.0
C1093 C 0.86302 0.1541 0.73299 0.0
C1094 C 0.92455 0.16886 0.75 0.0
C1095 C 0.94179 0.16694 0.77318 0.0
C1096 C 0.95702 0.14548 0.77736 0.0
C1097 C 0.95398 0.12577 0.75832 0.0
C1098 C 0.93684 0.12774 0.73522 0.0
H1099 H 0.8414 0.15126 0.72987 0.0
H1100 H 0.87068 0.13962 0.74745 0.0
H1101 H 0.86596 0.17219 0.74345 0.0
H1102 H 0.91366 0.18582 0.74669 0.0
H1103 H 0.94363 0.18247 0.78742 0.0
loop_
_geom_bond_atom_site_label_1
_geom_bond_atom_site_label_2
_geom_bond_distance
_geom_bond_site_symmetry_2
_ccdc_geom_bond_type
H0 C1 0.959 . S
C1 H0 0.959 . S
C1 C2 1.393 1_556 S
C1 C3 1.383 1_556 S
C2 C1 1.393 1_554 S
C2 C5 1.390 . S
C3 C1 1.383 1_554 S
C3 C7 1.387 . S
C3 C8 1.491 . S
H4 C5 0.950 . S
C5 C2 1.390 . S
C5 H4 0.950 . S
C5 C6 1.378 . S
C6 C5 1.378 . S
C6 C7 1.409 . S
C7 C3 1.387 . S
C7 C6 1.409 . S
C7 H9 0.951 . S
C8 C3 1.491 . S
C8 C10 1.382 1_554 S
C8 C12 1.404 . S
H9 C7 0.951 . S
C10 C8 1.382 1_556 S
C10 C11 1.390 . S
C10 H15 0.949 . S
C11 C10 1.390 . S
C11 C16 1.399 1_556 S
C12 C8 1.404 . S
C12 H13 0.950 . S
C12 C14 1.375 . S
H13 C12 0.950 . S
C14 C12 1.375 . S
C14 C16 1.382 . S
C14 H18 0.950 . S
H15 C10 0.949 . S
C16 C11 1.399 1_554 S
C16 C14 1.382 . S
C16 H17 0.952 . S
H17 C16 0.952 . S
H18 C14 0.950 . S
H19 C20 0.949 . S
C20 H19 0.949 . S
C20 C21 1.395 . S
C20 C22 1.391 . S
C21 C20 1.395 . S
C21 C24 1.390 . S
C22 C20 1.391 . S
C22 C26 1.387 . S
C22 C27 1.491 . S
H23 C24 0.950 . S
C24 C21 1.390 . S
C24 H23 0.950 . S
C24 C25 1.378 . S
C25 C24 1.378 . S
C25 C26 1.409 . S
C26 C22 1.387 . S
C26 C25 1.409 . S
C26 H28 0.951 . S
C27 C22 1.491 . S
C27 C29 1.382 . S
C27 C31 1.404 . S
H28 C26 0.951 . S
C29 C27 1.382 . S
C29 C30 1.390 . S
C29 H34 0.949 . S
C30 C29 1.390 . S
C30 C35 1.399 . S
C31 C27 1.404 . S
C31 H32 0.950 . S
C31 C33 1.375 . S
H32 C31 0.950 . S
C33 C31 1.375 . S
C33 C35 1.382 . S
C33 H37 0.950 . S
H34 C29 0.949 . S
C35 C30 1.399 . S
C35 C33 1.382 . S
C35 H36 0.952 . S
H36 C35 0.952 . S
H37 C33 0.950 . S
H38 C39 0.949 . S
C39 H38 0.949 . S
C39 C40 1.395 1_556 S
C39 C41 1.391 1_556 S
C40 C39 1.395 1_554 S
C40 C43 1.390 . S
C41 C39 1.391 1_554 S
C41 C45 1.387 . S
C41 C46 1.491 . S
H42 C43 0.950 . S
C43 C40 1.390 . S
C43 H42 0.950 . S
C43 C44 1.378 . S
C44 C43 1.378 . S
C44 C45 1.409 . S
C45 C41 1.387 . S
C45 C44 1.409 . S
C45 H47 0.951 . S
C46 C41 1.491 . S
C46 C48 1.382 1_554 S
C46 C50 1.404 . S
H47 C45 0.951 . S
C48 C46 1.382 1_556 S
C48 C49 1.390 . S
C48 H53 0.949 . S
C49 C48 1.390 . S
C49 C54 1.399 . S
C50 C46 1.404 . S
C50 H51 0.950 . S
C50 C52 1.375 . S
H51 C50 0.950 . S
C52 C50 1.375 . S
C52 C54 1.382 1_554 S
C52 H56 0.950 . S
H53 C48 0.949 . S
C54 C49 1.399 . S
C54 C52 1.382 1_556 S
C54 H55 0.952 . S
H55 C54 0.952 . S
H56 C52 0.950 . S
H57 C58 0.949 . S
C58 H57 0.949 . S
C58 C59 1.395 . S
C58 C60 1.391 . S
C59 C58 1.395 . S
C59 C62 1.390 . S
C60 C58 1.391 . S
C60 C64 1.387 . S
C60 C65 1.491 . S
H61 C62 0.950 . S
C62 C59 1.390 . S
C62 H61 0.950 . S
C62 C63 1.378 . S
C63 C62 1.378 . S
C63 C64 1.409 . S
C64 C60 1.387 . S
C64 C63 1.409 . S
C64 H66 0.951 . S
C65 C60 1.491 . S
C65 C67 1.382 . S
C65 C69 1.404 . S
H66 C64 0.951 . S
C67 C65 1.382 . S
C67 C68 1.390 . S
C67 H72 0.949 . S
C68 C67 1.390 . S
C68 C73 1.399 . S
C69 C65 1.404 . S
C69 H70 0.950 . S
C69 C71 1.375 . S
H70 C69 0.950 . S
C71 C69 1.375 . S
C71 C73 1.382 . S
C71 H75 0.950 . S
H72 C67 0.949 . S
C73 C68 1.399 . S
C73 C71 1.382 . S
C73 H74 0.952 . S
H74 C73 0.952 . S
H75 C71 0.950 . S
H76 C77 0.959 . S
C77 H76 0.959 . S
C77 C78 1.393 1_556 S
C77 C79 1.383 1_556 S
C78 C77 1.393 1_554 S
C78 C81 1.390 . S
C79 C77 1.383 1_554 S
C79 C83 1.387 . S
C79 C84 1.491 . S
H80 C81 0.950 . S
C81 C78 1.390 . S
C81 H80 0.950 . S
C81 C82 1.378 . S
C82 C81 1.378 . S
C82 C83 1.409 . S
C83 C79 1.387 . S
C83 C82 1.409 . S
C83 H85 0.951 . S
C84 C79 1.491 . S
C84 C86 1.382 1_554 S
C84 C88 1.404 . S
H85 C83 0.951 . S
C86 C84 1.382 1_556 S
C86 C87 1.390 . S
C86 H91 0.949 . S
C87 C86 1.390 . S
C87 C92 1.399 1_556 S
C88 C84 1.404 . S
C88 H89 0.950 . S
C88 C90 1.375 . S
H89 C88 0.950 . S
C90 C88 1.375 . S
C90 C92 1.382 . S
C90 H94 0.950 . S
H91 C86 0.949 . S
C92 C87 1.399 1_554 S
C92 C90 1.382 . S
C92 H93 0.952 . S
H93 C92 0.952 . S
H94 C90 0.950 . S
H95 C96 0.949 . S
C96 H95 0.949 . S
C96 C97 1.395 . S
C96 C98 1.391 . S
C97 C96 1.395 . S
C97 C100 1.390 . S
C98 C96 1.391 . S
C98 C102 1.387 . S
C98 C103 1.491 . S
H99 C100 0.950 . S
C100 C97 1.390 . S
C100 H99 0.950 . S
C100 C101 1.378 . S
C101 C100 1.378 . S
C101 C102 1.409 . S
C102 C98 1.387 . S
C102 C101 1.409 . S
C102 H104 0.951 . S
C103 C98 1.491 . S
C103 C105 1.382 . S
C103 C107 1.404 . S
H104 C102 0.951 . S
C105 C103 1.382 . S
C105 C106 1.390 . S
C105 H110 0.949 . S
C106 C105 1.390 . S
C106 C111 1.399 . S
C107 C103 1.404 . S
C107 H108 0.950 . S
C107 C109 1.375 . S
H108 C107 0.950 . S
C109 C107 1.375 . S
C109 C111 1.382 . S
C109 H113 0.950 . S
H110 C105 0.949 . S
C111 C106 1.399 . S
C111 C109 1.382 . S
C111 H112 0.952 . S
H112 C111 0.952 . S
H113 C109 0.950 . S
H114 C115 0.949 . S
C115 H114 0.949 . S
C115 C116 1.395 1_556 S
C115 C117 1.391 1_556 S
C116 C115 1.395 1_554 S
C116 C119 1.390 . S
C117 C115 1.391 1_554 S
C117 C121 1.387 . S
C117 C122 1.491 . S
H118 C119 0.950 . S
C119 C116 1.390 . S
C119 H118 0.950 . S
C119 C120 1.378 . S
C120 C119 1.378 . S
C120 C121 1.409 . S
C121 C117 1.387 . S
C121 C120 1.409 . S
C121 H123 0.951 . S
C122 C117 1.491 . S
C122 C124 1.382 1_554 S
C122 C126 1.404 . S
H123 C121 0.951 . S
C124 C122 1.382 1_556 S
C124 C125 1.390 . S
C124 H129 0.949 . S
C125 C124 1.390 . S
C125 C130 1.399 . S
C126 C122 1.404 . S
C126 H127 0.950 . S
C126 C128 1.375 . S
H127 C126 0.950 . S
C128 C126 1.375 . S
C128 C130 1.382 1_554 S
C128 H132 0.950 . S
H129 C124 0.949 . S
C130 C125 1.399 . S
C130 C128 1.382 1_556 S
C130 H131 0.952 . S
H131 C130 0.952 . S
H132 C128 0.950 . S
H133 C134 0.949 . S
C134 H133 0.949 . S
C134 C135 1.395 . S
C134 C136 1.391 . S
C135 C134 1.395 . S
C135 C138 1.390 . S
C136 C134 1.391 . S
C136 C140 1.387 . S
C136 C141 1.491 . S
H137 C138 0.950 . S
C138 C135 1.390 . S
C138 H137 0.950 . S
C138 C139 1.378 . S
C139 C138 1.378 . S
C139 C140 1.409 . S
C140 C136 1.387 . S
C140 C139 1.409 . S
C140 H142 0.951 . S
C141 C136 1.491 . S
C141 C143 1.382 . S
C141 C145 1.404 . S
H142 C140 0.951 . S
C143 C141 1.382 . S
C143 C144 1.390 . S
C143 H148 0.949 . S
C144 C143 1.390 . S
C144 C149 1.399 . S
C145 C141 1.404 . S
C145 H146 0.950 . S
C145 C147 1.375 . S
H146 C145 0.950 . S
C147 C145 1.375 . S
C147 C149 1.382 . S
C147 H151 0.950 . S
H148 C143 0.949 . S
C149 C144 1.399 . S
C149 C147 1.382 . S
C149 H150 0.952 . S
H150 C149 0.952 . S
H151 C147 0.950 . S
Fe152 O154 1.918 . S
Fe152 O157 1.997 1_455 S
Fe152 O158 2.002 1_455 S
Fe152 O163 1.976 . S
Fe152 O166 1.996 . S
Fe153 O154 1.918 . S
Fe153 O161 1.997 1_455 S
Fe153 O164 1.996 . S
Fe153 O168 1.976 . S
Fe153 O171 2.002 1_455 S
O154 Fe152 1.918 . S
O154 Fe153 1.918 . S
O154 Fe155 1.918 . S
Fe155 O154 1.918 . S
Fe155 O156 2.002 1_455 S
Fe155 O165 1.976 . S
Fe155 O169 1.996 . S
Fe155 O172 1.997 1_455 S
O156 Fe155 2.002 1_655 S
O156 C173 1.295 . S
O157 Fe152 1.997 1_655 S
O157 C173 1.235 . S
O158 Fe152 2.002 1_655 S
O158 C159 1.295 . S
C159 O158 1.295 . S
C159 O161 1.235 . S
C160 O165 1.287 . S
C160 O166 1.255 . S
O161 Fe153 1.997 1_655 S
O161 C159 1.235 . S
C162 O168 1.287 . S
C162 O169 1.255 . S
O163 Fe152 1.976 . S
O163 C170 1.287 . S
O164 Fe153 1.996 . S
O164 C170 1.255 . S
O165 Fe155 1.976 . S
O165 C160 1.287 . S
O166 Fe152 1.996 . S
O166 C160 1.255 . S
C167 O171 1.295 . S
C167 O172 1.235 . S
O168 Fe153 1.976 . S
O168 C162 1.287 . S
O169 Fe155 1.996 . S
O169 C162 1.255 . S
C170 O163 1.287 . S
C170 O164 1.255 . S
O171 Fe153 2.002 1_655 S
O171 C167 1.295 . S
O172 Fe155 1.997 1_655 S
O172 C167 1.235 . S
C173 O156 1.295 . S
C173 O157 1.235 . S
Fe174 O176 1.918 1_455 S
Fe174 O179 2.005 . S
Fe174 O180 2.011 . S
Fe174 O185 1.967 1_455 S
Fe174 O188 1.987 1_455 S
Fe175 O176 1.918 1_455 S
Fe175 O183 2.005 . S
Fe175 O186 1.988 1_455 S
Fe175 O190 1.968 1_455 S
Fe175 O193 2.011 . S
O176 Fe174 1.918 1_655 S
O176 Fe175 1.918 1_655 S
O176 Fe177 1.918 1_655 S
Fe177 O176 1.918 1_455 S
Fe177 O178 2.010 . S
Fe177 O187 1.968 1_455 S
Fe177 O191 1.988 1_455 S
Fe177 O194 2.004 . S
O178 Fe177 2.010 . S
O178 C195 1.295 . S
O179 Fe174 2.005 . S
O179 C195 1.235 . S
O180 Fe174 2.011 . S
O180 C181 1.295 . S
C181 O180 1.295 . S
C181 O183 1.235 . S
C182 O187 1.287 . S
C182 O188 1.255 . S
O183 Fe175 2.005 . S
O183 C181 1.235 . S
C184 O190 1.287 . S
C184 O191 1.255 . S
O185 Fe174 1.967 1_655 S
O185 C192 1.287 . S
O186 Fe175 1.988 1_655 S
O186 C192 1.255 . S
O187 Fe177 1.968 1_655 S
O187 C182 1.287 . S
O188 Fe174 1.987 1_655 S
O188 C182 1.255 . S
C189 O193 1.295 . S
C189 O194 1.235 . S
O190 Fe175 1.968 1_655 S
O190 C184 1.287 . S
O191 Fe177 1.988 1_655 S
O191 C184 1.255 . S
C192 O185 1.287 . S
C192 O186 1.255 . S
O193 Fe175 2.011 . S
O193 C189 1.295 . S
O194 Fe177 2.004 . S
O194 C189 1.235 . S
C195 O178 1.295 . S
C195 O179 1.235 . S
Fe196 O198 1.918 . S
Fe196 O201 1.997 . S
Fe196 O202 2.002 . S
Fe196 O207 1.976 . S
Fe196 O210 1.996 . S
Fe197 O198 1.918 . S
Fe197 O205 1.997 . S
Fe197 O208 1.996 . S
Fe197 O212 1.976 . S
Fe197 O215 2.002 . S
O198 Fe196 1.918 . S
O198 Fe197 1.918 . S
O198 Fe199 1.918 . S
Fe199 O198 1.918 . S
Fe199 O200 2.002 . S
Fe199 O209 1.976 . S
Fe199 O213 1.996 . S
Fe199 O216 1.997 . S
O200 Fe199 2.002 . S
O200 C217 1.295 . S
O201 Fe196 1.997 . S
O201 C217 1.235 . S
O202 Fe196 2.002 . S
O202 C203 1.295 . S
C203 O202 1.295 . S
C203 O205 1.235 . S
C204 O209 1.287 . S
C204 O210 1.255 . S
O205 Fe197 1.997 . S
O205 C203 1.235 . S
C206 O212 1.287 . S
C206 O213 1.255 . S
O207 Fe196 1.976 . S
O207 C214 1.287 . S
O208 Fe197 1.996 . S
O208 C214 1.255 . S
O209 Fe199 1.976 . S
O209 C204 1.287 . S
O210 Fe196 1.996 . S
O210 C204 1.255 . S
C211 O215 1.295 . S
C211 O216 1.235 . S
O212 Fe197 1.976 . S
O212 C206 1.287 . S
O213 Fe199 1.996 . S
O213 C206 1.255 . S
C214 O207 1.287 . S
C214 O208 1.255 . S
O215 Fe197 2.002 . S
O215 C211 1.295 . S
O216 Fe199 1.997 . S
O216 C211 1.235 . S
C217 O200 1.295 . S
C217 O201 1.235 . S
Fe218 O220 1.918 . S
Fe218 O223 1.997 . S
Fe218 O224 2.002 . S
Fe218 O229 1.976 . S
Fe218 O232 1.996 . S
Fe219 O220 1.918 . S
Fe219 O227 1.997 . S
Fe219 O230 1.996 . S
Fe219 O234 1.976 . S
Fe219 O237 2.002 . S
O220 Fe218 1.918 . S
O220 Fe219 1.918 . S
O220 Fe221 1.918 . S
Fe221 O220 1.918 . S
Fe221 O222 2.002 . S
Fe221 O231 1.976 . S
Fe221 O235 1.996 . S
Fe221 O238 1.997 . S
O222 Fe221 2.002 . S
O222 C239 1.295 . S
O223 Fe218 1.997 . S
O223 C239 1.235 . S
O224 Fe218 2.002 . S
O224 C225 1.295 . S
C225 O224 1.295 . S
C225 O227 1.235 . S
C226 O231 1.287 . S
C226 O232 1.255 . S
O227 Fe219 1.997 . S
O227 C225 1.235 . S
C228 O234 1.287 . S
C228 O235 1.255 . S
O229 Fe218 1.976 . S
O229 C236 1.287 . S
O230 Fe219 1.996 . S
O230 C236 1.255 . S
O231 Fe221 1.976 . S
O231 C226 1.287 . S
O232 Fe218 1.996 . S
O232 C226 1.255 . S
C233 O237 1.295 . S
C233 O238 1.235 . S
O234 Fe219 1.976 . S
O234 C228 1.287 . S
O235 Fe221 1.996 . S
O235 C228 1.255 . S
C236 O229 1.287 . S
C236 O230 1.255 . S
O237 Fe219 2.002 . S
O237 C233 1.295 . S
O238 Fe221 1.997 . S
O238 C233 1.235 . S
C239 O222 1.295 . S
C239 O223 1.235 . S
H240 C248 0.929 1_554 S
H241 C250 0.930 . S
H242 C252 0.930 . S
H243 C255 0.929 . S
H244 C258 0.930 . S
H245 C260 0.960 . S
H246 C260 0.960 . S
H247 C260 0.960 . S
C248 H240 0.929 1_556 S
C248 C249 1.377 . S
C248 C250 1.384 . S
C249 C248 1.377 . S
C249 C255 1.390 . S
C250 H241 0.930 . S
C250 C248 1.384 . S
C250 C251 1.372 . S
C251 C250 1.372 . S
C251 C252 1.400 . S
C251 C256 1.490 . S
C252 H242 0.930 . S
C252 C251 1.400 . S
C252 C255 1.386 . S
H253 C269 0.930 . S
H254 C270 0.931 . S
C255 H243 0.929 . S
C255 C249 1.390 . S
C255 C252 1.386 . S
C256 C251 1.490 . S
C256 C258 1.395 . S
C256 C259 1.403 . S
H257 C263 0.930 . S
C258 H244 0.930 . S
C258 C256 1.395 . S
C258 C261 1.403 . S
C259 C256 1.403 . S
C259 C260 1.524 . S
C259 C263 1.400 . S
C260 H245 0.960 . S
C260 H246 0.960 . S
C260 H247 0.960 . S
C260 C259 1.524 . S
C261 C258 1.403 . S
C261 C262 1.392 . S
C261 C265 1.495 . S
C262 C261 1.392 . S
C262 C263 1.385 . S
C262 C264 1.478 . S
C263 H257 0.930 . S
C263 C259 1.400 . S
C263 C262 1.385 . S
C264 C262 1.478 . S
C264 C266 1.381 . S
C264 C270 1.383 . S
C265 C261 1.495 . S
C265 H271 0.959 . S
C265 H272 0.961 . S
C265 H273 0.960 . S
C266 C264 1.381 . S
C266 C267 1.394 . S
C266 H274 0.930 . S
C267 C266 1.394 . S
C267 C268 1.383 . S
C267 H275 0.929 . S
C268 C267 1.383 . S
C268 C269 1.377 . S
C269 H253 0.930 . S
C269 C268 1.377 . S
C269 C270 1.379 . S
C270 H254 0.931 . S
C270 C264 1.383 . S
C270 C269 1.379 . S
H271 C265 0.959 . S
H272 C265 0.961 . S
H273 C265 0.960 . S
H274 C266 0.930 . S
H275 C267 0.929 . S
H276 C284 0.929 . S
H277 C286 0.930 . S
H278 C288 0.930 . S
H279 C291 0.929 . S
H280 C294 0.930 . S
H281 C296 0.960 . S
H282 C296 0.960 . S
H283 C296 0.960 . S
C284 H276 0.929 . S
C284 C285 1.377 . S
C284 C286 1.384 . S
C285 C284 1.377 . S
C285 C291 1.390 . S
C286 H277 0.930 . S
C286 C284 1.384 . S
C286 C287 1.372 . S
C287 C286 1.372 . S
C287 C288 1.400 . S
C287 C292 1.490 . S
C288 H278 0.930 . S
C288 C287 1.400 . S
C288 C291 1.386 . S
H289 C305 0.930 . S
H290 C306 0.931 . S
C291 H279 0.929 . S
C291 C285 1.390 . S
C291 C288 1.386 . S
C292 C287 1.490 . S
C292 C294 1.395 . S
C292 C295 1.403 . S
H293 C299 0.930 . S
C294 H280 0.930 . S
C294 C292 1.395 . S
C294 C297 1.403 . S
C295 C292 1.403 . S
C295 C296 1.524 . S
C295 C299 1.400 . S
C296 H281 0.960 . S
C296 H282 0.960 . S
C296 H283 0.960 . S
C296 C295 1.524 . S
C297 C294 1.403 . S
C297 C298 1.392 . S
C297 C301 1.495 . S
C298 C297 1.392 . S
C298 C299 1.385 . S
C298 C300 1.478 . S
C299 H293 0.930 . S
C299 C295 1.400 . S
C299 C298 1.385 . S
C300 C298 1.478 . S
C300 C302 1.381 . S
C300 C306 1.383 . S
C301 C297 1.495 . S
C301 H307 0.959 . S
C301 H308 0.961 . S
C301 H309 0.960 . S
C302 C300 1.381 . S
C302 C303 1.394 . S
C302 H310 0.930 . S
C303 C302 1.394 . S
C303 C304 1.383 . S
C303 H311 0.929 . S
C304 C303 1.383 . S
C304 C305 1.377 . S
C305 H289 0.930 . S
C305 C304 1.377 . S
C305 C306 1.379 . S
C306 H290 0.931 . S
C306 C300 1.383 . S
C306 C305 1.379 . S
H307 C301 0.959 . S
H308 C301 0.961 . S
H309 C301 0.960 . S
H310 C302 0.930 . S
H311 C303 0.929 . S
H312 C320 0.929 . S
H313 C322 0.930 . S
H314 C324 0.930 . S
H315 C327 0.929 . S
H316 C330 0.930 . S
H317 C332 0.960 . S
H318 C332 0.960 . S
H319 C332 0.960 . S
C320 H312 0.929 . S
C320 C321 1.377 . S
C320 C322 1.384 . S
C321 C320 1.377 . S
C321 C327 1.390 . S
C322 H313 0.930 . S
C322 C320 1.384 . S
C322 C323 1.372 . S
C323 C322 1.372 . S
C323 C324 1.400 . S
C323 C328 1.490 . S
C324 H314 0.930 . S
C324 C323 1.400 . S
C324 C327 1.386 . S
H325 C341 0.930 . S
H326 C342 0.931 . S
C327 H315 0.929 . S
C327 C321 1.390 . S
C327 C324 1.386 . S
C328 C323 1.490 . S
C328 C330 1.395 . S
C328 C331 1.403 . S
H329 C335 0.930 . S
C330 H316 0.930 . S
C330 C328 1.395 . S
C330 C333 1.403 . S
C331 C328 1.403 . S
C331 C332 1.524 . S
C331 C335 1.400 . S
C332 H317 0.960 . S
C332 H318 0.960 . S
C332 H319 0.960 . S
C332 C331 1.524 . S
C333 C330 1.403 . S
C333 C334 1.392 . S
C333 C337 1.495 . S
C334 C333 1.392 . S
C334 C335 1.385 . S
C334 C336 1.478 . S
C335 H329 0.930 . S
C335 C331 1.400 . S
C335 C334 1.385 . S
C336 C334 1.478 . S
C336 C338 1.381 . S
C336 C342 1.383 . S
C337 C333 1.495 . S
C337 H343 0.959 . S
C337 H344 0.961 . S
C337 H345 0.960 . S
C338 C336 1.381 . S
C338 C339 1.394 . S
C338 H346 0.930 . S
C339 C338 1.394 . S
C339 C340 1.383 . S
C339 H347 0.929 . S
C340 C339 1.383 . S
C340 C341 1.377 . S
C341 H325 0.930 . S
C341 C340 1.377 . S
C341 C342 1.379 . S
C342 H326 0.931 . S
C342 C336 1.383 . S
C342 C341 1.379 . S
H343 C337 0.959 . S
H344 C337 0.961 . S
H345 C337 0.960 . S
H346 C338 0.930 . S
H347 C339 0.929 . S
H348 C356 0.929 . S
H349 C358 0.930 . S
H350 C360 0.930 . S
H351 C363 0.929 . S
H352 C366 0.930 . S
H353 C368 0.960 . S
H354 C368 0.960 . S
H355 C368 0.960 . S
C356 H348 0.929 . S
C356 C357 1.377 . S
C356 C358 1.384 . S
C357 C356 1.377 . S
C357 C363 1.390 . S
C358 H349 0.930 . S
C358 C356 1.384 . S
C358 C359 1.372 . S
C359 C358 1.372 . S
C359 C360 1.400 . S
C359 C364 1.490 . S
C360 H350 0.930 . S
C360 C359 1.400 . S
C360 C363 1.386 . S
H361 C377 0.930 . S
H362 C378 0.931 . S
C363 H351 0.929 . S
C363 C357 1.390 . S
C363 C360 1.386 . S
C364 C359 1.490 . S
C364 C366 1.395 . S
C364 C367 1.403 . S
H365 C371 0.930 . S
C366 H352 0.930 . S
C366 C364 1.395 . S
C366 C369 1.403 . S
C367 C364 1.403 . S
C367 C368 1.524 . S
C367 C371 1.400 . S
C368 H353 0.960 . S
C368 H354 0.960 . S
C368 H355 0.960 . S
C368 C367 1.524 . S
C369 C366 1.403 . S
C369 C370 1.392 . S
C369 C373 1.495 . S
C370 C369 1.392 . S
C370 C371 1.385 . S
C370 C372 1.478 . S
C371 H365 0.930 . S
C371 C367 1.400 . S
C371 C370 1.385 . S
C372 C370 1.478 . S
C372 C374 1.381 . S
C372 C378 1.383 . S
C373 C369 1.495 . S
C373 H379 0.959 . S
C373 H380 0.961 . S
C373 H381 0.960 . S
C374 C372 1.381 . S
C374 C375 1.394 . S
C374 H382 0.930 . S
C375 C374 1.394 . S
C375 C376 1.383 . S
C375 H383 0.929 . S
C376 C375 1.383 . S
C376 C377 1.377 . S
C377 H361 0.930 . S
C377 C376 1.377 . S
C377 C378 1.379 . S
C378 H362 0.931 . S
C378 C372 1.383 . S
C378 C377 1.379 . S
H379 C373 0.959 . S
H380 C373 0.961 . S
H381 C373 0.960 . S
H382 C374 0.930 . S
H383 C375 0.929 . S
H384 C392 0.929 . S
H385 C394 0.930 . S
H386 C396 0.930 . S
H387 C399 0.929 . S
H388 C402 0.930 . S
H389 C404 0.960 . S
H390 C404 0.960 . S
H391 C404 0.960 . S
C392 H384 0.929 . S
C392 C393 1.377 . S
C392 C394 1.384 . S
C393 C392 1.377 . S
C393 C399 1.390 . S
C394 H385 0.930 . S
C394 C392 1.384 . S
C394 C395 1.372 . S
C395 C394 1.372 . S
C395 C396 1.400 . S
C395 C400 1.490 . S
C396 H386 0.930 . S
C396 C395 1.400 . S
C396 C399 1.386 . S
H397 C413 0.930 . S
H398 C414 0.931 . S
C399 H387 0.929 . S
C399 C393 1.390 . S
C399 C396 1.386 . S
C400 C395 1.490 . S
C400 C402 1.395 . S
C400 C403 1.403 . S
H401 C407 0.930 . S
C402 H388 0.930 . S
C402 C400 1.395 . S
C402 C405 1.403 . S
C403 C400 1.403 . S
C403 C404 1.524 . S
C403 C407 1.400 . S
C404 H389 0.960 . S
C404 H390 0.960 . S
C404 H391 0.960 . S
C404 C403 1.524 . S
C405 C402 1.403 . S
C405 C406 1.392 . S
C405 C409 1.495 . S
C406 C405 1.392 . S
C406 C407 1.385 . S
C406 C408 1.478 . S
C407 H401 0.930 . S
C407 C403 1.400 . S
C407 C406 1.385 . S
C408 C406 1.478 . S
C408 C410 1.381 . S
C408 C414 1.383 . S
C409 C405 1.495 . S
C409 H415 0.959 . S
C409 H416 0.961 . S
C409 H417 0.960 . S
C410 C408 1.381 . S
C410 C411 1.394 . S
C410 H418 0.930 . S
C411 C410 1.394 . S
C411 C412 1.383 . S
C411 H419 0.929 . S
C412 C411 1.383 . S
C412 C413 1.377 . S
C413 H397 0.930 . S
C413 C412 1.377 . S
C413 C414 1.379 . S
C414 H398 0.931 . S
C414 C408 1.383 . S
C414 C413 1.379 . S
H415 C409 0.959 . S
H416 C409 0.961 . S
H417 C409 0.960 . S
H418 C410 0.930 . S
H419 C411 0.929 . S
H420 C428 0.929 . S
H421 C430 0.930 . S
H422 C432 0.930 . S
H423 C435 0.929 . S
H424 C438 0.930 . S
H425 C440 0.960 . S
H426 C440 0.960 . S
H427 C440 0.960 . S
C428 H420 0.929 . S
C428 C429 1.377 . S
C428 C430 1.384 . S
C429 C428 1.377 . S
C429 C435 1.390 . S
C430 H421 0.930 . S
C430 C428 1.384 . S
C430 C431 1.372 . S
C431 C430 1.372 . S
C431 C432 1.400 . S
C431 C436 1.490 . S
C432 H422 0.930 . S
C432 C431 1.400 . S
C432 C435 1.386 . S
H433 C449 0.930 . S
H434 C450 0.931 . S
C435 H423 0.929 . S
C435 C429 1.390 . S
C435 C432 1.386 . S
C436 C431 1.490 . S
C436 C438 1.395 . S
C436 C439 1.403 . S
H437 C443 0.930 . S
C438 H424 0.930 . S
C438 C436 1.395 . S
C438 C441 1.403 . S
C439 C436 1.403 . S
C439 C440 1.524 . S
C439 C443 1.400 . S
C440 H425 0.960 . S
C440 H426 0.960 . S
C440 H427 0.960 . S
C440 C439 1.524 . S
C441 C438 1.403 . S
C441 C442 1.392 . S
C441 C445 1.495 . S
C442 C441 1.392 . S
C442 C443 1.385 . S
C442 C444 1.478 . S
C443 H437 0.930 . S
C443 C439 1.400 . S
C443 C442 1.385 . S
C444 C442 1.478 . S
C444 C446 1.381 . S
C444 C450 1.383 . S
C445 C441 1.495 . S
C445 H451 0.959 . S
C445 H452 0.961 . S
C445 H453 0.960 . S
C446 C444 1.381 . S
C446 C447 1.394 . S
C446 H454 0.930 . S
C447 C446 1.394 . S
C447 C448 1.383 . S
C447 H455 0.929 . S
C448 C447 1.383 . S
C448 C449 1.377 . S
C449 H433 0.930 . S
C449 C448 1.377 . S
C449 C450 1.379 . S
C450 H434 0.931 . S
C450 C444 1.383 . S
C450 C449 1.379 . S
H451 C445 0.959 . S
H452 C445 0.961 . S
H453 C445 0.960 . S
H454 C446 0.930 . S
H455 C447 0.929 . S
H456 C464 0.929 . S
H457 C466 0.930 . S
H458 C468 0.930 . S
H459 C471 0.929 . S
H460 C474 0.930 . S
H461 C476 0.960 . S
H462 C476 0.960 . S
H463 C476 0.960 . S
C464 H456 0.929 . S
C464 C465 1.377 . S
C464 C466 1.384 . S
C465 C464 1.377 . S
C465 C471 1.390 . S
C466 H457 0.930 . S
C466 C464 1.384 . S
C466 C467 1.372 . S
C467 C466 1.372 . S
C467 C468 1.400 . S
C467 C472 1.490 . S
C468 H458 0.930 . S
C468 C467 1.400 . S
C468 C471 1.386 . S
H469 C485 0.930 . S
H470 C486 0.931 . S
C471 H459 0.929 . S
C471 C465 1.390 . S
C471 C468 1.386 . S
C472 C467 1.490 . S
C472 C474 1.395 . S
C472 C475 1.403 . S
H473 C479 0.930 . S
C474 H460 0.930 . S
C474 C472 1.395 . S
C474 C477 1.403 . S
C475 C472 1.403 . S
C475 C476 1.524 . S
C475 C479 1.400 . S
C476 H461 0.960 . S
C476 H462 0.960 . S
C476 H463 0.960 . S
C476 C475 1.524 . S
C477 C474 1.403 . S
C477 C478 1.392 . S
C477 C481 1.495 . S
C478 C477 1.392 . S
C478 C479 1.385 . S
C478 C480 1.478 . S
C479 H473 0.930 . S
C479 C475 1.400 . S
C479 C478 1.385 . S
C480 C478 1.478 . S
C480 C482 1.381 . S
C480 C486 1.383 . S
C481 C477 1.495 . S
C481 H487 0.959 . S
C481 H488 0.961 . S
C481 H489 0.960 . S
C482 C480 1.381 . S
C482 C483 1.394 . S
C482 H490 0.930 . S
C483 C482 1.394 . S
C483 C484 1.383 . S
C483 H491 0.929 . S
C484 C483 1.383 . S
C484 C485 1.377 . S
C485 H469 0.930 . S
C485 C484 1.377 . S
C485 C486 1.379 . S
C486 H470 0.931 . S
C486 C480 1.383 . S
C486 C485 1.379 . S
H487 C481 0.959 . S
H488 C481 0.961 . S
H489 C481 0.960 . S
H490 C482 0.930 . S
H491 C483 0.929 . S
H492 C500 0.929 . S
H493 C502 0.930 . S
H494 C504 0.930 . S
H495 C507 0.929 . S
H496 C510 0.930 . S
H497 C512 0.960 . S
H498 C512 0.960 . S
H499 C512 0.960 . S
C500 H492 0.929 . S
C500 C501 1.377 . S
C500 C502 1.384 . S
C501 C500 1.377 . S
C501 C507 1.390 . S
C502 H493 0.930 . S
C502 C500 1.384 . S
C502 C503 1.372 . S
C503 C502 1.372 . S
C503 C504 1.400 . S
C503 C508 1.490 . S
C504 H494 0.930 . S
C504 C503 1.400 . S
C504 C507 1.386 . S
H505 C521 0.930 . S
H506 C522 0.931 . S
C507 H495 0.929 . S
C507 C501 1.390 . S
C507 C504 1.386 . S
C508 C503 1.490 . S
C508 C510 1.395 . S
C508 C511 1.403 . S
H509 C515 0.930 . S
C510 H496 0.930 . S
C510 C508 1.395 . S
C510 C513 1.403 . S
C511 C508 1.403 . S
C511 C512 1.524 . S
C511 C515 1.400 . S
C512 H497 0.960 . S
C512 H498 0.960 . S
C512 H499 0.960 . S
C512 C511 1.524 . S
C513 C510 1.403 . S
C513 C514 1.392 . S
C513 C517 1.495 . S
C514 C513 1.392 . S
C514 C515 1.385 . S
C514 C516 1.478 . S
C515 H509 0.930 . S
C515 C511 1.400 . S
C515 C514 1.385 . S
C516 C514 1.478 . S
C516 C518 1.381 . S
C516 C522 1.383 . S
C517 C513 1.495 . S
C517 H523 0.959 . S
C517 H524 0.961 . S
C517 H525 0.960 . S
C518 C516 1.381 . S
C518 C519 1.394 . S
C518 H526 0.930 . S
C519 C518 1.394 . S
C519 C520 1.383 . S
C519 H527 0.929 . S
C520 C519 1.383 . S
C520 C521 1.377 . S
C521 H505 0.930 . S
C521 C520 1.377 . S
C521 C522 1.379 . S
C522 H506 0.931 . S
C522 C516 1.383 . S
C522 C521 1.379 . S
H523 C517 0.959 . S
H524 C517 0.961 . S
H525 C517 0.960 . S
H526 C518 0.930 . S
H527 C519 0.929 . S
H528 C536 0.929 1_554 S
H529 C538 0.930 . S
H530 C540 0.930 . S
H531 C543 0.929 . S
H532 C546 0.930 . S
H533 C548 0.960 . S
H534 C548 0.960 . S
H535 C548 0.960 . S
C536 H528 0.929 1_556 S
C536 C537 1.377 . S
C536 C538 1.384 . S
C537 C536 1.377 . S
C537 C543 1.390 . S
C538 H529 0.930 . S
C538 C536 1.384 . S
C538 C539 1.372 . S
C539 C538 1.372 . S
C539 C540 1.400 . S
C539 C544 1.490 . S
C540 H530 0.930 . S
C540 C539 1.400 . S
C540 C543 1.386 . S
H541 C557 0.930 . S
H542 C558 0.931 . S
C543 H531 0.929 . S
C543 C537 1.390 . S
C543 C540 1.386 . S
C544 C539 1.490 . S
C544 C546 1.395 . S
C544 C547 1.403 . S
H545 C551 0.930 . S
C546 H532 0.930 . S
C546 C544 1.395 . S
C546 C549 1.403 . S
C547 C544 1.403 . S
C547 C548 1.524 . S
C547 C551 1.400 . S
C548 H533 0.960 . S
C548 H534 0.960 . S
C548 H535 0.960 . S
C548 C547 1.524 . S
C549 C546 1.403 . S
C549 C550 1.392 . S
C549 C553 1.495 . S
C550 C549 1.392 . S
C550 C551 1.385 . S
C550 C552 1.478 . S
C551 H545 0.930 . S
C551 C547 1.400 . S
C551 C550 1.385 . S
C552 C550 1.478 . S
C552 C554 1.381 . S
C552 C558 1.383 . S
C553 C549 1.495 . S
C553 H559 0.959 . S
C553 H560 0.961 . S
C553 H561 0.960 . S
C554 C552 1.381 . S
C554 C555 1.394 . S
C554 H562 0.930 . S
C555 C554 1.394 . S
C555 C556 1.383 . S
C555 H563 0.929 . S
C556 C555 1.383 . S
C556 C557 1.377 . S
C557 H541 0.930 . S
C557 C556 1.377 . S
C557 C558 1.379 . S
C558 H542 0.931 . S
C558 C552 1.383 . S
C558 C557 1.379 . S
H559 C553 0.959 . S
H560 C553 0.961 . S
H561 C553 0.960 . S
H562 C554 0.930 . S
H563 C555 0.929 . S
H564 C572 0.929 . S
H565 C574 0.930 . S
H566 C576 0.930 . S
H567 C579 0.929 . S
H568 C582 0.930 . S
H569 C584 0.960 . S
H570 C584 0.960 . S
H571 C584 0.960 . S
C572 H564 0.929 . S
C572 C573 1.377 . S
C572 C574 1.384 . S
C573 C572 1.377 . S
C573 C579 1.390 . S
C574 H565 0.930 . S
C574 C572 1.384 . S
C574 C575 1.372 . S
C575 C574 1.372 . S
C575 C576 1.400 . S
C575 C580 1.490 . S
C576 H566 0.930 . S
C576 C575 1.400 . S
C576 C579 1.386 . S
H577 C593 0.930 . S
H578 C594 0.931 . S
C579 H567 0.929 . S
C579 C573 1.390 . S
C579 C576 1.386 . S
C580 C575 1.490 . S
C580 C582 1.395 . S
C580 C583 1.403 . S
H581 C587 0.930 . S
C582 H568 0.930 . S
C582 C580 1.395 . S
C582 C585 1.403 . S
C583 C580 1.403 . S
C583 C584 1.524 . S
C583 C587 1.400 . S
C584 H569 0.960 . S
C584 H570 0.960 . S
C584 H571 0.960 . S
C584 C583 1.524 . S
C585 C582 1.403 . S
C585 C586 1.392 . S
C585 C589 1.495 . S
C586 C585 1.392 . S
C586 C587 1.385 . S
C586 C588 1.478 . S
C587 H581 0.930 . S
C587 C583 1.400 . S
C587 C586 1.385 . S
C588 C586 1.478 . S
C588 C590 1.381 . S
C588 C594 1.383 . S
C589 C585 1.495 . S
C589 H595 0.959 . S
C589 H596 0.961 . S
C589 H597 0.960 . S
C590 C588 1.381 . S
C590 C591 1.394 . S
C590 H598 0.930 . S
C591 C590 1.394 . S
C591 C592 1.383 . S
C591 H599 0.929 . S
C592 C591 1.383 . S
C592 C593 1.377 . S
C593 H577 0.930 . S
C593 C592 1.377 . S
C593 C594 1.379 . S
C594 H578 0.931 . S
C594 C588 1.383 . S
C594 C593 1.379 . S
H595 C589 0.959 . S
H596 C589 0.961 . S
H597 C589 0.960 . S
H598 C590 0.930 . S
H599 C591 0.929 . S
H600 C608 0.929 1_554 S
H601 C610 0.930 . S
H602 C612 0.930 . S
H603 C615 0.929 . S
H604 C618 0.930 . S
H605 C620 0.960 . S
H606 C620 0.960 . S
H607 C620 0.960 . S
C608 H600 0.929 1_556 S
C608 C609 1.377 . S
C608 C610 1.384 . S
C609 C608 1.377 . S
C609 C615 1.390 . S
C610 H601 0.930 . S
C610 C608 1.384 . S
C610 C611 1.372 . S
C611 C610 1.372 . S
C611 C612 1.400 . S
C611 C616 1.490 . S
C612 H602 0.930 . S
C612 C611 1.400 . S
C612 C615 1.386 . S
H613 C629 0.930 . S
H614 C630 0.931 . S
C615 H603 0.929 . S
C615 C609 1.390 . S
C615 C612 1.386 . S
C616 C611 1.490 . S
C616 C618 1.395 . S
C616 C619 1.403 . S
H617 C623 0.930 . S
C618 H604 0.930 . S
C618 C616 1.395 . S
C618 C621 1.403 . S
C619 C616 1.403 . S
C619 C620 1.524 . S
C619 C623 1.400 . S
C620 H605 0.960 . S
C620 H606 0.960 . S
C620 H607 0.960 . S
C620 C619 1.524 . S
C621 C618 1.403 . S
C621 C622 1.392 . S
C621 C625 1.495 . S
C622 C621 1.392 . S
C622 C623 1.385 . S
C622 C624 1.478 . S
C623 H617 0.930 . S
C623 C619 1.400 . S
C623 C622 1.385 . S
C624 C622 1.478 . S
C624 C626 1.381 . S
C624 C630 1.383 . S
C625 C621 1.495 . S
C625 H631 0.959 . S
C625 H632 0.961 . S
C625 H633 0.960 . S
C626 C624 1.381 . S
C626 C627 1.394 . S
C626 H634 0.930 . S
C627 C626 1.394 . S
C627 C628 1.383 . S
C627 H635 0.929 . S
C628 C627 1.383 . S
C628 C629 1.377 . S
C629 H613 0.930 . S
C629 C628 1.377 . S
C629 C630 1.379 . S
C630 H614 0.931 . S
C630 C624 1.383 . S
C630 C629 1.379 . S
H631 C625 0.959 . S
H632 C625 0.961 . S
H633 C625 0.960 . S
H634 C626 0.930 . S
H635 C627 0.929 . S
H636 C644 0.929 . S
H637 C646 0.930 . S
H638 C648 0.930 . S
H639 C651 0.929 . S
H640 C654 0.930 . S
H641 C656 0.960 . S
H642 C656 0.960 . S
H643 C656 0.960 . S
C644 H636 0.929 . S
C644 C645 1.377 . S
C644 C646 1.384 . S
C645 C644 1.377 . S
C645 C651 1.390 . S
C646 H637 0.930 . S
C646 C644 1.384 . S
C646 C647 1.372 . S
C647 C646 1.372 . S
C647 C648 1.400 . S
C647 C652 1.490 . S
C648 H638 0.930 . S
C648 C647 1.400 . S
C648 C651 1.386 . S
H649 C665 0.930 . S
H650 C666 0.931 . S
C651 H639 0.929 . S
C651 C645 1.390 . S
C651 C648 1.386 . S
C652 C647 1.490 . S
C652 C654 1.395 . S
C652 C655 1.403 . S
H653 C659 0.930 . S
C654 H640 0.930 . S
C654 C652 1.395 . S
C654 C657 1.403 . S
C655 C652 1.403 . S
C655 C656 1.524 . S
C655 C659 1.400 . S
C656 H641 0.960 . S
C656 H642 0.960 . S
C656 H643 0.960 . S
C656 C655 1.524 . S
C657 C654 1.403 . S
C657 C658 1.392 . S
C657 C661 1.495 . S
C658 C657 1.392 . S
C658 C659 1.385 . S
C658 C660 1.478 . S
C659 H653 0.930 . S
C659 C655 1.400 . S
C659 C658 1.385 . S
C660 C658 1.478 . S
C660 C662 1.381 . S
C660 C666 1.383 . S
C661 C657 1.495 . S
C661 H667 0.959 . S
C661 H668 0.961 . S
C661 H669 0.960 . S
C662 C660 1.381 . S
C662 C663 1.394 . S
C662 H670 0.930 . S
C663 C662 1.394 . S
C663 C664 1.383 . S
C663 H671 0.929 . S
C664 C663 1.383 . S
C664 C665 1.377 . S
C665 H649 0.930 . S
C665 C664 1.377 . S
C665 C666 1.379 . S
C666 H650 0.931 . S
C666 C660 1.383 . S
C666 C665 1.379 . S
H667 C661 0.959 . S
H668 C661 0.961 . S
H669 C661 0.960 . S
H670 C662 0.930 . S
H671 C663 0.929 . S
H672 C680 0.929 . S
H673 C682 0.930 . S
H674 C684 0.930 . S
H675 C687 0.929 1_554 S
H676 C690 0.930 . S
H677 C692 0.960 . S
H678 C692 0.960 . S
H679 C692 0.960 . S
C680 H672 0.929 . S
C680 C681 1.377 . S
C680 C682 1.384 . S
C681 C680 1.377 . S
C681 C687 1.390 . S
C682 H673 0.930 . S
C682 C680 1.384 . S
C682 C683 1.372 . S
C683 C682 1.372 . S
C683 C684 1.400 . S
C683 C688 1.490 . S
C684 H674 0.930 . S
C684 C683 1.400 . S
C684 C687 1.386 . S
H685 C701 0.930 . S
H686 C702 0.931 . S
C687 H675 0.929 1_556 S
C687 C681 1.390 . S
C687 C684 1.386 . S
C688 C683 1.490 . S
C688 C690 1.395 . S
C688 C691 1.403 . S
H689 C695 0.930 . S
C690 H676 0.930 . S
C690 C688 1.395 . S
C690 C693 1.403 1_565 S
C691 C688 1.403 . S
C691 C692 1.524 . S
C691 C695 1.400 . S
C692 H677 0.960 . S
C692 H678 0.960 . S
C692 H679 0.960 . S
C692 C691 1.524 . S
C693 C690 1.403 1_545 S
C693 C694 1.392 . S
C693 C697 1.495 . S
C694 C693 1.392 . S
C694 C695 1.385 1_545 S
C694 C696 1.478 . S
C695 H689 0.930 . S
C695 C691 1.400 . S
C695 C694 1.385 1_565 S
C696 C694 1.478 . S
C696 C698 1.381 . S
C696 C702 1.383 . S
C697 C693 1.495 . S
C697 H703 0.959 . S
C697 H704 0.961 . S
C697 H705 0.960 . S
C698 C696 1.381 . S
C698 C699 1.394 . S
C698 H706 0.930 . S
C699 C698 1.394 . S
C699 C700 1.383 . S
C699 H707 0.929 . S
C700 C699 1.383 . S
C700 C701 1.377 . S
C701 H685 0.930 . S
C701 C700 1.377 . S
C701 C702 1.379 . S
C702 H686 0.931 . S
C702 C696 1.383 . S
C702 C701 1.379 . S
H703 C697 0.959 . S
H704 C697 0.961 . S
H705 C697 0.960 . S
H706 C698 0.930 . S
H707 C699 0.929 . S
H708 C716 0.929 . S
H709 C718 0.930 . S
H710 C720 0.930 . S
H711 C723 0.929 . S
H712 C726 0.930 . S
H713 C728 0.960 . S
H714 C728 0.960 . S
H715 C728 0.960 . S
C716 H708 0.929 . S
C716 C717 1.377 . S
C716 C718 1.384 . S
C717 C716 1.377 . S
C717 C723 1.390 . S
C718 H709 0.930 . S
C718 C716 1.384 . S
C718 C719 1.372 . S
C719 C718 1.372 . S
C719 C720 1.400 . S
C719 C724 1.490 . S
C720 H710 0.930 . S
C720 C719 1.400 . S
C720 C723 1.386 . S
H721 C737 0.930 . S
H722 C738 0.931 1_545 S
C723 H711 0.929 . S
C723 C717 1.390 . S
C723 C720 1.386 . S
C724 C719 1.490 . S
C724 C726 1.395 . S
C724 C727 1.403 . S
H725 C731 0.930 . S
C726 H712 0.930 . S
C726 C724 1.395 . S
C726 C729 1.403 1_545 S
C727 C724 1.403 . S
C727 C728 1.524 . S
C727 C731 1.400 . S
C728 H713 0.960 . S
C728 H714 0.960 . S
C728 H715 0.960 . S
C728 C727 1.524 . S
C729 C726 1.403 1_565 S
C729 C730 1.397 . S
C729 C733 1.495 . S
C730 C729 1.397 . S
C730 C731 1.351 1_565 S
C730 C732 1.508 . S
C731 H725 0.930 . S
C731 C727 1.400 . S
C731 C730 1.351 1_545 S
C732 C730 1.508 . S
C732 C734 1.381 . S
C732 C738 1.383 . S
C733 C729 1.495 . S
C733 H739 0.959 . S
C733 H740 0.961 . S
C733 H741 0.960 . S
C734 C732 1.381 . S
C734 C735 1.394 . S
C734 H742 0.930 . S
C735 C734 1.394 . S
C735 C736 1.383 . S
C735 H743 0.929 . S
C736 C735 1.383 . S
C736 C737 1.377 . S
C737 H721 0.930 . S
C737 C736 1.377 . S
C737 C738 1.379 . S
C738 H722 0.931 1_565 S
C738 C732 1.383 . S
C738 C737 1.379 . S
H739 C733 0.959 . S
H740 C733 0.961 . S
H741 C733 0.960 . S
H742 C734 0.930 . S
H743 C735 0.929 . S
H744 C752 0.929 . S
H745 C754 0.930 . S
H746 C756 0.930 . S
H747 C759 0.929 . S
H748 C762 0.930 . S
H749 C764 0.960 . S
H750 C764 0.960 . S
H751 C764 0.960 . S
C752 H744 0.929 . S
C752 C753 1.377 . S
C752 C754 1.384 . S
C753 C752 1.377 . S
C753 C759 1.390 . S
C754 H745 0.930 . S
C754 C752 1.384 . S
C754 C755 1.372 . S
C755 C754 1.372 . S
C755 C756 1.400 . S
C755 C760 1.490 . S
C756 H746 0.930 . S
C756 C755 1.400 . S
C756 C759 1.386 . S
H757 C773 0.930 . S
H758 C774 0.931 . S
C759 H747 0.929 . S
C759 C753 1.390 . S
C759 C756 1.386 . S
C760 C755 1.490 . S
C760 C762 1.395 . S
C760 C763 1.403 . S
H761 C767 0.930 . S
C762 H748 0.930 . S
C762 C760 1.395 . S
C762 C765 1.403 . S
C763 C760 1.403 . S
C763 C764 1.524 . S
C763 C767 1.400 . S
C764 H749 0.960 . S
C764 H750 0.960 . S
C764 H751 0.960 . S
C764 C763 1.524 . S
C765 C762 1.403 . S
C765 C766 1.392 1_565 S
C765 C769 1.495 1_565 S
C766 C765 1.392 1_545 S
C766 C767 1.385 1_545 S
C766 C768 1.478 . S
C767 H761 0.930 . S
C767 C763 1.400 . S
C767 C766 1.385 1_565 S
C768 C766 1.478 . S
C768 C770 1.381 . S
C768 C774 1.383 . S
C769 C765 1.495 1_545 S
C769 H775 0.959 . S
C769 H776 0.961 . S
C769 H777 0.960 . S
C770 C768 1.381 . S
C770 C771 1.394 . S
C770 H778 0.916 1_545 S
C771 C770 1.394 . S
C771 C772 1.383 . S
C771 H779 0.929 . S
C772 C771 1.383 . S
C772 C773 1.377 . S
C773 H757 0.930 . S
C773 C772 1.377 . S
C773 C774 1.379 . S
C774 H758 0.931 . S
C774 C768 1.383 . S
C774 C773 1.379 . S
H775 C769 0.959 . S
H776 C769 0.961 . S
H777 C769 0.960 . S
H778 C770 0.916 1_565 S
H779 C771 0.929 . S
H780 C788 0.929 . S
H781 C790 0.930 . S
H782 C792 0.930 . S
H783 C795 0.929 . S
H784 C798 0.930 . S
H785 C800 0.960 . S
H786 C800 0.960 . S
H787 C800 0.960 . S
C788 H780 0.929 . S
C788 C789 1.377 . S
C788 C790 1.384 . S
C789 C788 1.377 . S
C789 C795 1.390 . S
C790 H781 0.930 . S
C790 C788 1.384 . S
C790 C791 1.372 . S
C791 C790 1.372 . S
C791 C792 1.400 . S
C791 C796 1.490 . S
C792 H782 0.930 . S
C792 C791 1.400 . S
C792 C795 1.386 . S
H793 C809 0.930 . S
H794 C810 0.931 1_545 S
C795 H783 0.929 . S
C795 C789 1.390 . S
C795 C792 1.386 . S
C796 C791 1.490 . S
C796 C798 1.395 . S
C796 C799 1.403 . S
H797 C803 0.930 . S
C798 H784 0.930 . S
C798 C796 1.395 . S
C798 C801 1.403 1_545 S
C799 C796 1.403 . S
C799 C800 1.524 . S
C799 C803 1.400 . S
C800 H785 0.960 . S
C800 H786 0.960 . S
C800 H787 0.960 . S
C800 C799 1.524 . S
C801 C798 1.403 1_565 S
C801 C802 1.392 . S
C801 C805 1.495 . S
C802 C801 1.392 . S
C802 C803 1.385 1_565 S
C802 C804 1.478 . S
C803 H797 0.930 . S
C803 C799 1.400 . S
C803 C802 1.385 1_545 S
C804 C802 1.478 . S
C804 C806 1.381 . S
C804 C810 1.383 . S
C805 C801 1.495 . S
C805 H811 0.959 . S
C805 H812 0.961 . S
C805 H813 0.960 . S
C806 C804 1.381 . S
C806 C807 1.394 . S
C806 H814 0.930 . S
C807 C806 1.394 . S
C807 C808 1.383 . S
C807 H815 0.929 . S
C808 C807 1.383 . S
C808 C809 1.377 . S
C809 H793 0.930 . S
C809 C808 1.377 . S
C809 C810 1.379 . S
C810 H794 0.931 1_565 S
C810 C804 1.383 . S
C810 C809 1.379 . S
H811 C805 0.959 . S
H812 C805 0.961 . S
H813 C805 0.960 . S
H814 C806 0.930 . S
H815 C807 0.929 . S
H816 C824 0.929 . S
H817 C826 0.930 . S
H818 C828 0.930 . S
H819 C831 0.929 . S
H820 C834 0.930 . S
H821 C836 0.960 . S
H822 C836 0.960 . S
H823 C836 0.960 . S
C824 H816 0.929 . S
C824 C825 1.377 . S
C824 C826 1.384 . S
C825 C824 1.377 . S
C825 C831 1.390 . S
C826 H817 0.930 . S
C826 C824 1.384 . S
C826 C827 1.372 . S
C827 C826 1.372 . S
C827 C828 1.400 . S
C827 C832 1.490 . S
C828 H818 0.930 . S
C828 C827 1.400 . S
C828 C831 1.386 . S
H829 C845 0.930 . S
H830 C846 0.931 . S
C831 H819 0.929 . S
C831 C825 1.390 . S
C831 C828 1.386 . S
C832 C827 1.490 . S
C832 C834 1.395 . S
C832 C835 1.403 . S
H833 C839 0.930 . S
C834 H820 0.930 . S
C834 C832 1.395 . S
C834 C837 1.403 . S
C835 C832 1.403 . S
C835 C836 1.524 . S
C835 C839 1.400 . S
C836 H821 0.960 . S
C836 H822 0.960 . S
C836 H823 0.960 . S
C836 C835 1.524 . S
C837 C834 1.403 . S
C837 C838 1.392 . S
C837 C841 1.495 . S
C838 C837 1.392 . S
C838 C839 1.385 . S
C838 C840 1.478 . S
C839 H833 0.930 . S
C839 C835 1.400 . S
C839 C838 1.385 . S
C840 C838 1.478 . S
C840 C842 1.381 . S
C840 C846 1.383 . S
C841 C837 1.495 . S
C841 H847 0.959 . S
C841 H848 0.961 . S
C841 H849 0.960 . S
C842 C840 1.381 . S
C842 C843 1.394 . S
C842 H850 0.930 . S
C843 C842 1.394 . S
C843 C844 1.383 . S
C843 H851 0.929 . S
C844 C843 1.383 . S
C844 C845 1.377 . S
C845 H829 0.930 . S
C845 C844 1.377 . S
C845 C846 1.379 . S
C846 H830 0.931 . S
C846 C840 1.383 . S
C846 C845 1.379 . S
H847 C841 0.959 . S
H848 C841 0.961 . S
H849 C841 0.960 . S
H850 C842 0.930 . S
H851 C843 0.929 . S
H852 C860 0.929 . S
H853 C862 0.930 . S
H854 C864 0.930 . S
H855 C867 0.929 . S
H856 C870 0.930 . S
H857 C872 0.960 . S
H858 C872 0.960 . S
H859 C872 0.960 . S
C860 H852 0.929 . S
C860 C861 1.377 . S
C860 C862 1.384 . S
C861 C860 1.377 . S
C861 C867 1.390 . S
C862 H853 0.930 . S
C862 C860 1.384 . S
C862 C863 1.372 . S
C863 C862 1.372 . S
C863 C864 1.400 . S
C863 C868 1.490 . S
C864 H854 0.930 . S
C864 C863 1.400 . S
C864 C867 1.386 . S
H865 C881 0.930 . S
H866 C882 0.931 . S
C867 H855 0.929 . S
C867 C861 1.390 . S
C867 C864 1.386 . S
C868 C863 1.490 . S
C868 C870 1.395 . S
C868 C871 1.403 . S
H869 C875 0.930 . S
C870 H856 0.930 . S
C870 C868 1.395 . S
C870 C873 1.403 . S
C871 C868 1.403 . S
C871 C872 1.524 . S
C871 C875 1.400 . S
C872 H857 0.960 . S
C872 H858 0.960 . S
C872 H859 0.960 . S
C872 C871 1.524 . S
C873 C870 1.403 . S
C873 C874 1.392 . S
C873 C877 1.495 . S
C874 C873 1.392 . S
C874 C875 1.385 . S
C874 C876 1.478 . S
C875 H869 0.930 . S
C875 C871 1.400 . S
C875 C874 1.385 . S
C876 C874 1.478 . S
C876 C878 1.381 . S
C876 C882 1.383 . S
C877 C873 1.495 . S
C877 H883 0.959 . S
C877 H884 0.961 . S
C877 H885 0.960 . S
C878 C876 1.381 . S
C878 C879 1.394 . S
C878 H886 0.930 . S
C879 C878 1.394 . S
C879 C880 1.383 . S
C879 H887 0.929 . S
C880 C879 1.383 . S
C880 C881 1.377 . S
C881 H865 0.930 . S
C881 C880 1.377 . S
C881 C882 1.379 . S
C882 H866 0.931 . S
C882 C876 1.383 . S
C882 C881 1.379 . S
H883 C877 0.959 . S
H884 C877 0.961 . S
H885 C877 0.960 . S
H886 C878 0.930 . S
H887 C879 0.929 . S
H888 C896 0.929 . S
H889 C898 0.930 . S
H890 C900 0.930 . S
H891 C903 0.929 . S
H892 C906 0.930 . S
H893 C908 0.960 . S
H894 C908 0.960 . S
H895 C908 0.960 . S
C896 H888 0.929 . S
C896 C897 1.377 . S
C896 C898 1.384 . S
C897 C896 1.377 . S
C897 C903 1.390 . S
C898 H889 0.930 . S
C898 C896 1.384 . S
C898 C899 1.372 . S
C899 C898 1.372 . S
C899 C900 1.400 . S
C899 C904 1.490 . S
C900 H890 0.930 . S
C900 C899 1.400 . S
C900 C903 1.386 . S
H901 C917 0.930 . S
H902 C918 0.931 . S
C903 H891 0.929 . S
C903 C897 1.390 . S
C903 C900 1.386 . S
C904 C899 1.490 . S
C904 C906 1.395 . S
C904 C907 1.403 . S
H905 C911 0.930 . S
C906 H892 0.930 . S
C906 C904 1.395 . S
C906 C909 1.403 . S
C907 C904 1.403 . S
C907 C908 1.524 . S
C907 C911 1.400 . S
C908 H893 0.960 . S
C908 H894 0.960 . S
C908 H895 0.960 . S
C908 C907 1.524 . S
C909 C906 1.403 . S
C909 C910 1.392 . S
C909 C913 1.495 . S
C910 C909 1.392 . S
C910 C911 1.385 . S
C910 C912 1.478 . S
C911 H905 0.930 . S
C911 C907 1.400 . S
C911 C910 1.385 . S
C912 C910 1.478 . S
C912 C914 1.381 . S
C912 C918 1.383 . S
C913 C909 1.495 . S
C913 H919 0.959 . S
C913 H920 0.961 . S
C913 H921 0.960 . S
C914 C912 1.381 . S
C914 C915 1.394 . S
C914 H922 0.930 . S
C915 C914 1.394 . S
C915 C916 1.383 . S
C915 H923 0.929 . S
C916 C915 1.383 . S
C916 C917 1.377 . S
C917 H901 0.930 . S
C917 C916 1.377 . S
C917 C918 1.379 . S
C918 H902 0.931 . S
C918 C912 1.383 . S
C918 C917 1.379 . S
H919 C913 0.959 . S
H920 C913 0.961 . S
H921 C913 0.960 . S
H922 C914 0.930 . S
H923 C915 0.929 . S
H924 C932 0.929 . S
H925 C934 0.930 . S
H926 C936 0.930 . S
H927 C939 0.929 . S
H928 C942 0.930 . S
H929 C944 0.960 . S
H930 C944 0.960 . S
H931 C944 0.960 . S
C932 H924 0.929 . S
C932 C933 1.377 . S
C932 C934 1.384 . S
C933 C932 1.377 . S
C933 C939 1.390 . S
C934 H925 0.930 . S
C934 C932 1.384 . S
C934 C935 1.372 . S
C935 C934 1.372 . S
C935 C936 1.400 . S
C935 C940 1.490 . S
C936 H926 0.930 . S
C936 C935 1.400 . S
C936 C939 1.386 . S
H937 C953 0.930 . S
H938 C954 0.931 . S
C939 H927 0.929 . S
C939 C933 1.390 . S
C939 C936 1.386 . S
C940 C935 1.490 . S
C940 C942 1.395 . S
C940 C943 1.403 . S
H941 C947 0.930 . S
C942 H928 0.930 . S
C942 C940 1.395 . S
C942 C945 1.403 . S
C943 C940 1.403 . S
C943 C944 1.524 . S
C943 C947 1.400 . S
C944 H929 0.960 . S
C944 H930 0.960 . S
C944 H931 0.960 . S
C944 C943 1.524 . S
C945 C942 1.403 . S
C945 C946 1.392 . S
C945 C949 1.495 . S
C946 C945 1.392 . S
C946 C947 1.385 . S
C946 C948 1.478 . S
C947 H941 0.930 . S
C947 C943 1.400 . S
C947 C946 1.385 . S
C948 C946 1.478 . S
C948 C950 1.381 . S
C948 C954 1.383 . S
C949 C945 1.495 . S
C949 H955 0.959 . S
C949 H956 0.961 . S
C949 H957 0.960 . S
C950 C948 1.381 . S
C950 C951 1.394 . S
C950 H958 0.930 . S
C951 C950 1.394 . S
C951 C952 1.383 . S
C951 H959 0.929 . S
C952 C951 1.383 . S
C952 C953 1.377 . S
C953 H937 0.930 . S
C953 C952 1.377 . S
C953 C954 1.379 . S
C954 H938 0.931 . S
C954 C948 1.383 . S
C954 C953 1.379 . S
H955 C949 0.959 . S
H956 C949 0.961 . S
H957 C949 0.960 . S
H958 C950 0.930 . S
H959 C951 0.929 . S
H960 C968 0.929 . S
H961 C970 0.930 . S
H962 C972 0.930 . S
H963 C975 0.929 . S
H964 C978 0.930 . S
H965 C980 0.960 . S
H966 C980 0.960 . S
H967 C980 0.960 . S
C968 H960 0.929 . S
C968 C969 1.377 . S
C968 C970 1.384 . S
C969 C968 1.377 . S
C969 C975 1.390 . S
C970 H961 0.930 . S
C970 C968 1.384 . S
C970 C971 1.372 . S
C971 C970 1.372 . S
C971 C972 1.400 . S
C971 C976 1.490 . S
C972 H962 0.930 . S
C972 C971 1.400 . S
C972 C975 1.386 . S
H973 C989 0.930 . S
H974 C990 0.931 . S
C975 H963 0.929 . S
C975 C969 1.390 . S
C975 C972 1.386 . S
C976 C971 1.490 . S
C976 C978 1.395 . S
C976 C979 1.403 . S
H977 C983 0.930 . S
C978 H964 0.930 . S
C978 C976 1.395 . S
C978 C981 1.403 . S
C979 C976 1.403 . S
C979 C980 1.524 . S
C979 C983 1.400 . S
C980 H965 0.960 . S
C980 H966 0.960 . S
C980 H967 0.960 . S
C980 C979 1.524 . S
C981 C978 1.403 . S
C981 C982 1.392 . S
C981 C985 1.495 . S
C982 C981 1.392 . S
C982 C983 1.385 . S
C982 C984 1.478 . S
C983 H977 0.930 . S
C983 C979 1.400 . S
C983 C982 1.385 . S
C984 C982 1.478 . S
C984 C986 1.381 . S
C984 C990 1.383 . S
C985 C981 1.495 . S
C985 H991 0.959 . S
C985 H992 0.961 . S
C985 H993 0.960 . S
C986 C984 1.381 . S
C986 C987 1.394 . S
C986 H994 0.930 . S
C987 C986 1.394 . S
C987 C988 1.383 . S
C987 H995 0.929 . S
C988 C987 1.383 . S
C988 C989 1.377 . S
C989 H973 0.930 . S
C989 C988 1.377 . S
C989 C990 1.379 . S
C990 H974 0.931 . S
C990 C984 1.383 . S
C990 C989 1.379 . S
H991 C985 0.959 . S
H992 C985 0.961 . S
H993 C985 0.960 . S
H994 C986 0.930 . S
H995 C987 0.929 . S
H996 C1004 0.929 . S
H997 C1006 0.930 . S
H998 C1008 0.930 . S
H999 C1011 0.929 . S
H1000 C1014 0.930 . S
H1001 C1016 0.960 . S
H1002 C1016 0.960 . S
H1003 C1016 0.960 . S
C1004 H996 0.929 . S
C1004 C1005 1.377 . S
C1004 C1006 1.384 . S
C1005 C1004 1.377 . S
C1005 C1011 1.390 . S
C1006 H997 0.930 . S
C1006 C1004 1.384 . S
C1006 C1007 1.372 . S
C1007 C1006 1.372 . S
C1007 C1008 1.400 . S
C1007 C1012 1.490 . S
C1008 H998 0.930 . S
C1008 C1007 1.400 . S
C1008 C1011 1.386 . S
H1009 C1025 0.930 . S
H1010 C1026 0.931 . S
C1011 H999 0.929 . S
C1011 C1005 1.390 . S
C1011 C1008 1.386 . S
C1012 C1007 1.490 . S
C1012 C1014 1.395 . S
C1012 C1015 1.403 . S
H1013 C1019 0.930 . S
C1014 H1000 0.930 . S
C1014 C1012 1.395 . S
C1014 C1017 1.403 . S
C1015 C1012 1.403 . S
C1015 C1016 1.524 . S
C1015 C1019 1.400 . S
C1016 H1001 0.960 . S
C1016 H1002 0.960 . S
C1016 H1003 0.960 . S
C1016 C1015 1.524 . S
C1017 C1014 1.403 . S
C1017 C1018 1.392 . S
C1017 C1021 1.495 . S
C1018 C1017 1.392 . S
C1018 C1019 1.385 . S
C1018 C1020 1.478 . S
C1019 H1013 0.930 . S
C1019 C1015 1.400 . S
C1019 C1018 1.385 . S
C1020 C1018 1.478 . S
C1020 C1022 1.381 . S
C1020 C1026 1.383 . S
C1021 C1017 1.495 . S
C1021 H1027 0.959 . S
C1021 H1028 0.961 . S
C1021 H1029 0.960 . S
C1022 C1020 1.381 . S
C1022 C1023 1.394 . S
C1022 H1030 0.930 . S
C1023 C1022 1.394 . S
C1023 C1024 1.383 . S
C1023 H1031 0.929 . S
C1024 C1023 1.383 . S
C1024 C1025 1.377 . S
C1025 H1009 0.930 . S
C1025 C1024 1.377 . S
C1025 C1026 1.379 . S
C1026 H1010 0.931 . S
C1026 C1020 1.383 . S
C1026 C1025 1.379 . S
H1027 C1021 0.959 . S
H1028 C1021 0.961 . S
H1029 C1021 0.960 . S
H1030 C1022 0.930 . S
H1031 C1023 0.929 . S
H1032 C1040 0.929 . S
H1033 C1042 0.930 . S
H1034 C1044 0.930 . S
H1035 C1047 0.929 . S
H1036 C1050 0.930 . S
H1037 C1052 0.960 . S
H1038 C1052 0.960 . S
H1039 C1052 0.960 . S
C1040 H1032 0.929 . S
C1040 C1041 1.377 . S
C1040 C1042 1.384 . S
C1041 C1040 1.377 . S
C1041 C1047 1.390 . S
C1042 H1033 0.930 . S
C1042 C1040 1.384 . S
C1042 C1043 1.372 . S
C1043 C1042 1.372 . S
C1043 C1044 1.400 . S
C1043 C1048 1.490 . S
C1044 H1034 0.930 . S
C1044 C1043 1.400 . S
C1044 C1047 1.386 . S
H1045 C1061 0.930 . S
H1046 C1062 0.931 . S
C1047 H1035 0.929 . S
C1047 C1041 1.390 . S
C1047 C1044 1.386 . S
C1048 C1043 1.490 . S
C1048 C1050 1.395 . S
C1048 C1051 1.403 . S
H1049 C1055 0.930 . S
C1050 H1036 0.930 . S
C1050 C1048 1.395 . S
C1050 C1053 1.403 . S
C1051 C1048 1.403 . S
C1051 C1052 1.524 . S
C1051 C1055 1.400 . S
C1052 H1037 0.960 . S
C1052 H1038 0.960 . S
C1052 H1039 0.960 . S
C1052 C1051 1.524 . S
C1053 C1050 1.403 . S
C1053 C1054 1.392 . S
C1053 C1057 1.495 . S
C1054 C1053 1.392 . S
C1054 C1055 1.385 . S
C1054 C1056 1.478 . S
C1055 H1049 0.930 . S
C1055 C1051 1.400 . S
C1055 C1054 1.385 . S
C1056 C1054 1.478 . S
C1056 C1058 1.381 . S
C1056 C1062 1.383 . S
C1057 C1053 1.495 . S
C1057 H1063 0.959 . S
C1057 H1064 0.961 . S
C1057 H1065 0.960 . S
C1058 C1056 1.381 . S
C1058 C1059 1.394 . S
C1058 H1066 0.930 . S
C1059 C1058 1.394 . S
C1059 C1060 1.383 . S
C1059 H1067 0.929 . S
C1060 C1059 1.383 . S
C1060 C1061 1.377 . S
C1061 H1045 0.930 . S
C1061 C1060 1.377 . S
C1061 C1062 1.379 . S
C1062 H1046 0.931 . S
C1062 C1056 1.383 . S
C1062 C1061 1.379 . S
H1063 C1057 0.959 . S
H1064 C1057 0.961 . S
H1065 C1057 0.960 . S
H1066 C1058 0.930 . S
H1067 C1059 0.929 . S
H1068 C1076 0.929 . S
H1069 C1078 0.930 . S
H1070 C1080 0.930 . S
H1071 C1083 0.929 . S
H1072 C1086 0.930 . S
H1073 C1088 0.960 . S
H1074 C1088 0.960 . S
H1075 C1088 0.960 . S
C1076 H1068 0.929 . S
C1076 C1077 1.377 . S
C1076 C1078 1.384 . S
C1077 C1076 1.377 . S
C1077 C1083 1.390 . S
C1078 H1069 0.930 . S
C1078 C1076 1.384 . S
C1078 C1079 1.372 . S
C1079 C1078 1.372 . S
C1079 C1080 1.400 . S
C1079 C1084 1.490 . S
C1080 H1070 0.930 . S
C1080 C1079 1.400 . S
C1080 C1083 1.386 . S
H1081 C1097 0.930 . S
H1082 C1098 0.931 . S
C1083 H1071 0.929 . S
C1083 C1077 1.390 . S
C1083 C1080 1.386 . S
C1084 C1079 1.490 . S
C1084 C1086 1.395 . S
C1084 C1087 1.403 . S
H1085 C1091 0.930 . S
C1086 H1072 0.930 . S
C1086 C1084 1.395 . S
C1086 C1089 1.403 . S
C1087 C1084 1.403 . S
C1087 C1088 1.524 . S
C1087 C1091 1.400 . S
C1088 H1073 0.960 . S
C1088 H1074 0.960 . S
C1088 H1075 0.960 . S
C1088 C1087 1.524 . S
C1089 C1086 1.403 . S
C1089 C1090 1.392 . S
C1089 C1093 1.495 . S
C1090 C1089 1.392 . S
C1090 C1091 1.385 . S
C1090 C1092 1.478 . S
C1091 H1085 0.930 . S
C1091 C1087 1.400 . S
C1091 C1090 1.385 . S
C1092 C1090 1.478 . S
C1092 C1094 1.381 . S
C1092 C1098 1.383 . S
C1093 C1089 1.495 . S
C1093 H1099 0.959 . S
C1093 H1100 0.961 . S
C1093 H1101 0.960 . S
C1094 C1092 1.381 . S
C1094 C1095 1.394 . S
C1094 H1102 0.930 . S
C1095 C1094 1.394 . S
C1095 C1096 1.383 . S
C1095 H1103 0.929 . S
C1096 C1095 1.383 . S
C1096 C1097 1.377 . S
C1097 H1081 0.930 . S
C1097 C1096 1.377 . S
C1097 C1098 1.379 . S
C1098 H1082 0.931 . S
C1098 C1092 1.383 . S
C1098 C1097 1.379 . S
H1099 C1093 0.959 . S
H1100 C1093 0.961 . S
H1101 C1093 0.960 . S
H1102 C1094 0.930 . S
H1103 C1095 0.929 . S
C249 C11 1.480 . S
C268 C195 1.549 . S
C304 C159 1.551 . S
C285 C30 1.477 . S
C340 C182 1.570 . S
C321 C49 1.392 . S
C376 C170 1.566 . S
C357 C68 1.389 . S
C412 C239 1.559 . S
C393 C87 1.488 . S
C448 C203 1.566 . S
C429 C106 1.480 . S
C465 C125 1.393 . S
C484 C226 1.571 . S
C520 C214 1.559 . S
C501 C144 1.403 . S
C537 C2 1.549 1_556 S
C556 C236 1.593 . S
C592 C206 1.595 . S
C573 C21 1.548 . S
C609 C40 1.582 1_556 S
C628 C225 1.616 . S
C645 C59 1.581 . S
C664 C211 1.630 . S
C700 C192 1.595 . S
C681 C78 1.555 1_556 S
C717 C97 1.557 . S
C736 C162 1.592 . S
C772 C181 1.613 . S
C753 C116 1.584 1_556 S
C808 C167 1.630 . S
C789 C135 1.582 . S
C844 C217 1.583 . S
C825 C6 1.585 . S
C880 C233 1.576 . S
C861 C25 1.583 . S
C897 C44 1.532 . S
C916 C204 1.542 . S
C952 C228 1.543 . S
C933 C63 1.532 . S
C988 C173 1.570 . S
C969 C82 1.584 . S
C1005 C101 1.583 . S
C1024 C189 1.589 . S
C1041 C120 1.537 . S
C1060 C160 1.540 . S
C1077 C139 1.532 . S
C1096 C184 1.543 . S
