# Generated by pormake.
# Topology pyr, (3,6)-cn, num edge types: 1
# Building blocks:
#     Node 0, Type 0, BuildingBlock: QEWDON_clean_linker_0, # of connection points: 3
#     Node 1, Type 0, BuildingBlock: QEWDON_clean_linker_0, # of connection points: 3
#     Node 2, Type 0, BuildingBlock: QEWDON_clean_linker_0, # of connection points: 3
#     Node 3, Type 0, BuildingBlock: QEWDON_clean_linker_0, # of connection points: 3
#     Node 4, Type 0, BuildingBlock: QEWDON_clean_linker_0, # of connection points: 3
#     Node 5, Type 0, BuildingBlock: QEWDON_clean_linker_0, # of connection points: 3
#     Node 6, Type 0, BuildingBlock: QEWDON_clean_linker_0, # of connection points: 3
#     Node 7, Type 0, BuildingBlock: QEWDON_clean_linker_0, # of connection points: 3
#     Node 8, Type 1, BuildingBlock: BETDAH_clean_sbu_0, # of connection points: 6
#     Node 9, Type 1, BuildingBlock: BETDAH_clean_sbu_0, # of connection points: 6
#     Node 10, Type 1, BuildingBlock: BETDAH_clean_sbu_0, # of connection points: 6
#     Node 11, Type 1, BuildingBlock: BETDAH_clean_sbu_0, # of connection points: 6
#     Edge 12, Type (0, 1), BuildingBlock: KIFKEQ_clean_linker_1, # of connection points: 2
#     Edge 13, Type (0, 1), BuildingBlock: KIFKEQ_clean_linker_1, # of connection points: 2
#     Edge 14, Type (0, 1), BuildingBlock: KIFKEQ_clean_linker_1, # of connection points: 2
#     Edge 15, Type (0, 1), BuildingBlock: KIFKEQ_clean_linker_1, # of connection points: 2
#     Edge 16, Type (0, 1), BuildingBlock: KIFKEQ_clean_linker_1, # of connection points: 2
#     Edge 17, Type (0, 1), BuildingBlock: KIFKEQ_clean_linker_1, # of connection points: 2
#     Edge 18, Type (0, 1), BuildingBlock: KIFKEQ_clean_linker_1, # of connection points: 2
#     Edge 19, Type (0, 1), BuildingBlock: KIFKEQ_clean_linker_1, # of connection points: 2
#     Edge 20, Type (0, 1), BuildingBlock: KIFKEQ_clean_linker_1, # of connection points: 2
#     Edge 21, Type (0, 1), BuildingBlock: KIFKEQ_clean_linker_1, # of connection points: 2
#     Edge 22, Type (0, 1), BuildingBlock: KIFKEQ_clean_linker_1, # of connection points: 2
#     Edge 23, Type (0, 1), BuildingBlock: KIFKEQ_clean_linker_1, # of connection points: 2
#     Edge 24, Type (0, 1), BuildingBlock: KIFKEQ_clean_linker_1, # of connection points: 2
#     Edge 25, Type (0, 1), BuildingBlock: KIFKEQ_clean_linker_1, # of connection points: 2
#     Edge 26, Type (0, 1), BuildingBlock: KIFKEQ_clean_linker_1, # of connection points: 2
#     Edge 27, Type (0, 1), BuildingBlock: KIFKEQ_clean_linker_1, # of connection points: 2
#     Edge 28, Type (0, 1), BuildingBlock: KIFKEQ_clean_linker_1, # of connection points: 2
#     Edge 29, Type (0, 1), BuildingBlock: KIFKEQ_clean_linker_1, # of connection points: 2
#     Edge 30, Type (0, 1), BuildingBlock: KIFKEQ_clean_linker_1, # of connection points: 2
#     Edge 31, Type (0, 1), BuildingBlock: KIFKEQ_clean_linker_1, # of connection points: 2
#     Edge 32, Type (0, 1), BuildingBlock: KIFKEQ_clean_linker_1, # of connection points: 2
#     Edge 33, Type (0, 1), BuildingBlock: KIFKEQ_clean_linker_1, # of connection points: 2
#     Edge 34, Type (0, 1), BuildingBlock: KIFKEQ_clean_linker_1, # of connection points: 2
#     Edge 35, Type (0, 1), BuildingBlock: KIFKEQ_clean_linker_1, # of connection points: 2
# Relax obj value: 0.168
# Max RMSD: 0.266
# Mean RMSD: 0.196
data_MOF--net-pyr--node1-BETDAH_clean_sbu_0--node2-QEWDON_clean_linker_0--edge1-KIFKEQ_clean_linker_1
_symmetry_space_group_name_H-M    P1
_symmetry_Int_Tables_number       1
_symmetry_cell_setting            triclinic
loop_
_symmetry_equiv_pos_as_xyz
'x, y, z'
_cell_length_a     38.786733
_cell_length_b     41.280433
_cell_length_c     39.915433
_cell_angle_alpha  92.426102
_cell_angle_beta   89.537847
_cell_angle_gamma 108.81748
loop_
_atom_site_label
_atom_site_type_symbol
_atom_site_fract_x
_atom_site_fract_y
_atom_site_fract_z
_atom_type_partial_charge
H0 H 0.44385 0.34858 0.2035 0.0
C1 C 0.42473 0.34108 0.22394 0.0
C2 C 0.41765 0.30859 0.23715 0.0
C3 C 0.40548 0.36293 0.23563 0.0
H4 H 0.38609 0.27303 0.27249 0.0
C5 C 0.39197 0.29838 0.26278 0.0
C6 C 0.37308 0.32009 0.27523 0.0
C7 C 0.38 0.35232 0.26152 0.0
C8 C 0.41061 0.3962 0.22004 0.0
H9 H 0.36561 0.36928 0.27113 0.0
C10 C 0.38019 0.40615 0.21237 0.0
C11 C 0.38444 0.4379 0.19828 0.0
C12 C 0.44562 0.41819 0.21286 0.0
H13 H 0.46953 0.4113 0.21865 0.0
C14 C 0.45012 0.44968 0.19876 0.0
H15 H 0.35308 0.3887 0.21675 0.0
C16 C 0.41985 0.45959 0.19161 0.0
H17 H 0.42425 0.48442 0.18126 0.0
H18 H 0.47723 0.46663 0.1936 0.0
H19 H 0.23527 0.89415 0.73337 0.0
C20 C 0.25477 0.8849 0.71977 0.0
C21 C 0.28974 0.891 0.73317 0.0
C22 C 0.24523 0.86771 0.68834 0.0
H23 H 0.34169 0.8834 0.72549 0.0
C24 C 0.31495 0.87958 0.71489 0.0
C25 C 0.30587 0.86269 0.68341 0.0
C26 C 0.27077 0.85642 0.67044 0.0
C27 C 0.21003 0.86454 0.67242 0.0
H28 H 0.26384 0.8441 0.64575 0.0
C29 C 0.19982 0.89389 0.66931 0.0
C30 C 0.16889 0.89261 0.65055 0.0
C31 C 0.18824 0.8332 0.65775 0.0
H32 H 0.19576 0.81026 0.65978 0.0
C33 C 0.15675 0.8314 0.64003 0.0
H34 H 0.21674 0.91799 0.68075 0.0
C35 C 0.14722 0.86092 0.63615 0.0
H36 H 0.12345 0.859 0.62116 0.0
H37 H 0.1401 0.80721 0.62864 0.0
H38 H 0.71972 0.4633 0.91278 0.0
C39 C 0.70875 0.43701 0.92021 0.0
C40 C 0.72865 0.42404 0.94274 0.0
C41 C 0.6739 0.41663 0.90851 0.0
H42 H 0.72726 0.38039 0.97155 0.0
C43 C 0.71289 0.39027 0.95349 0.0
C44 C 0.67826 0.36938 0.94212 0.0
C45 C 0.65937 0.38267 0.91925 0.0
C46 C 0.64929 0.43211 0.89089 0.0
H47 H 0.63215 0.36722 0.91131 0.0
C48 C 0.65671 0.44699 0.85893 0.0
C49 C 0.63092 0.45978 0.84359 0.0
C50 C 0.61666 0.43119 0.90705 0.0
H51 H 0.61036 0.42036 0.93151 0.0
C52 C 0.59181 0.44417 0.89221 0.0
H53 H 0.6816 0.44788 0.84595 0.0
C54 C 0.59876 0.45818 0.86079 0.0
H55 H 0.57875 0.46781 0.84971 0.0
H56 H 0.56686 0.4432 0.9051 0.0
H57 H 0.91023 0.82162 0.38609 0.0
C58 C 0.89108 0.80188 0.40019 0.0
C59 C 0.88337 0.80907 0.43383 0.0
C60 C 0.87227 0.77022 0.38366 0.0
H61 H 0.8504 0.78838 0.47668 0.0
C62 C 0.85682 0.78346 0.45089 0.0
C63 C 0.83695 0.75212 0.43461 0.0
C64 C 0.84502 0.74565 0.401 0.0
C65 C 0.8751 0.76631 0.34655 0.0
H66 H 0.82901 0.72213 0.38789 0.0
C67 C 0.89314 0.74497 0.33048 0.0
C68 C 0.89541 0.74314 0.29489 0.0
C69 C 0.85884 0.78481 0.32691 0.0
H70 H 0.84477 0.8011 0.33864 0.0
C71 C 0.86013 0.78234 0.29209 0.0
H72 H 0.90604 0.7308 0.34546 0.0
C73 C 0.87814 0.76179 0.27624 0.0
H74 H 0.8784 0.7604 0.24908 0.0
H75 H 0.84714 0.79653 0.27726 0.0
H76 H 0.69746 0.7916 0.94952 0.0
C77 C 0.713 0.80309 0.9279 0.0
C78 C 0.7493 0.8039 0.92419 0.0
C79 C 0.69699 0.81741 0.90354 0.0
H80 H 0.79741 0.81973 0.89386 0.0
C81 C 0.76921 0.81877 0.89616 0.0
C82 C 0.7533 0.83258 0.87141 0.0
C83 C 0.71707 0.83183 0.87537 0.0
C84 C 0.65904 0.81716 0.90646 0.0
H85 H 0.7042 0.84217 0.8564 0.0
C86 C 0.65114 0.84484 0.92263 0.0
C87 C 0.61583 0.84763 0.92083 0.0
C88 C 0.63146 0.79149 0.88927 0.0
H89 H 0.63734 0.77031 0.87627 0.0
C90 C 0.59639 0.79363 0.88772 0.0
H91 H 0.67281 0.86426 0.93603 0.0
C92 C 0.58867 0.82159 0.90291 0.0
H93 H 0.56152 0.82298 0.89979 0.0
H94 H 0.57528 0.77398 0.87395 0.0
H95 H 0.78905 0.21423 0.53774 0.0
C96 C 0.78048 0.21545 0.51216 0.0
C97 C 0.80541 0.21811 0.48604 0.0
C98 C 0.7444 0.2134 0.50538 0.0
H99 H 0.81413 0.22164 0.43305 0.0
C100 C 0.79445 0.21934 0.453 0.0
C101 C 0.75847 0.21734 0.44558 0.0
C102 C 0.73359 0.21465 0.47201 0.0
C103 C 0.71805 0.20951 0.53322 0.0
H104 H 0.7055 0.21216 0.4666 0.0
C105 C 0.69557 0.23016 0.53548 0.0
C106 C 0.67207 0.22821 0.56285 0.0
C107 C 0.7162 0.18613 0.55834 0.0
H108 H 0.73302 0.16966 0.55704 0.0
C109 C 0.69254 0.18379 0.58537 0.0
H110 H 0.69755 0.24887 0.51667 0.0
C111 C 0.67075 0.20489 0.58782 0.0
H112 H 0.65284 0.20299 0.60914 0.0
H113 H 0.69133 0.16577 0.60462 0.0
H114 H 0.45337 0.81736 0.25377 0.0
C115 C 0.42499 0.80404 0.24785 0.0
C116 C 0.40597 0.81911 0.22666 0.0
C117 C 0.40874 0.77083 0.25988 0.0
H118 H 0.35507 0.81086 0.20114 0.0
C119 C 0.36977 0.79991 0.21772 0.0
C120 C 0.35264 0.76641 0.22883 0.0
C121 C 0.37247 0.75239 0.25047 0.0
C122 C 0.43246 0.7534 0.27605 0.0
H123 H 0.36039 0.72662 0.25895 0.0
C124 C 0.42697 0.74044 0.30893 0.0
C125 C 0.4514 0.72479 0.32232 0.0
C126 C 0.46204 0.75006 0.25728 0.0
H127 H 0.46682 0.75943 0.23214 0.0
C128 C 0.48562 0.73448 0.27032 0.0
H129 H 0.40441 0.74279 0.32388 0.0
C130 C 0.48041 0.72201 0.30246 0.0
H131 H 0.49934 0.71015 0.31199 0.0
H132 H 0.50818 0.73211 0.2554 0.0
H133 H 0.26616 0.48702 0.7795 0.0
C134 C 0.24932 0.464 0.76618 0.0
C135 C 0.2574 0.45719 0.73261 0.0
C136 C 0.22069 0.44033 0.78314 0.0
H137 H 0.24261 0.42131 0.69038 0.0
C138 C 0.23629 0.42646 0.71614 0.0
C139 C 0.20861 0.40162 0.73289 0.0
C140 C 0.20082 0.40915 0.76639 0.0
C141 C 0.21692 0.44435 0.82017 0.0
H142 H 0.18065 0.38999 0.78025 0.0
C143 C 0.19983 0.46682 0.83559 0.0
C144 C 0.19784 0.46966 0.87111 0.0
C145 C 0.23128 0.42483 0.84046 0.0
H146 H 0.24437 0.40747 0.82926 0.0
C147 C 0.22931 0.4276 0.87526 0.0
H148 H 0.18853 0.48198 0.82024 0.0
C149 C 0.21289 0.44985 0.89046 0.0
H150 H 0.21165 0.45137 0.91759 0.0
H151 H 0.24062 0.41244 0.89057 0.0
Ho152 Ho 0.06073 0.12154 0.54705 0.0
Ho153 Ho 1.02003 0.09817 0.61268 0.0
C154 C 0.08353 0.1703 0.61383 0.0
C155 C 0.08049 0.14272 0.48779 0.0
C156 C 0.11188 0.16592 0.47057 0.0
C157 C 0.10553 0.18646 0.44586 0.0
C158 C 0.13441 0.20717 0.42747 0.0
C159 C 0.17027 0.20758 0.43331 0.0
C160 C 0.17668 0.18768 0.45884 0.0
C161 C 0.14772 0.16705 0.47737 0.0
C162 C 0.09547 0.09379 0.5902 0.0
C163 C 1.0003 0.0458 0.54694 0.0
C164 C 0.98726 0.06915 0.66521 0.0
C165 C 0.969 0.03488 0.67776 0.0
C166 C 0.97476 1.02875 0.71115 0.0
C167 C 0.95328 0.99876 0.72561 0.0
C168 C 0.92548 0.97448 0.7069 0.0
C169 C 0.92125 0.9797 0.67281 0.0
C170 C 0.94294 1.00964 0.65829 0.0
C171 C 0.9996 0.14436 0.57906 0.0
O172 O 0.08071 0.16937 0.58067 0.0
O173 O 0.06748 0.14297 0.63139 0.0
O174 O 0.08436 0.11481 0.49925 0.0
O175 O 0.06279 0.1572 0.50833 0.0
O176 O 0.11227 0.11765 0.57003 0.0
O177 O 0.06188 0.08448 0.58433 0.0
O178 O 0.99655 0.05005 0.57974 0.0
O179 O 0.02151 0.07059 0.52886 0.0
O180 O 0.97078 0.07869 0.64082 0.0
O181 O 0.02274 0.07864 0.66186 0.0
O182 O 1.00143 0.14426 0.61136 0.0
O183 O 1.00705 0.11906 0.56633 0.0
H184 H 0.07807 0.18608 0.44042 0.0
H185 H 0.1286 0.22267 0.40846 0.0
H186 H 0.20392 0.18719 0.4638 0.0
H187 H 0.15329 0.15151 0.49649 0.0
H188 H 0.99466 0.04795 0.72657 0.0
H189 H 0.95696 0.99564 0.75201 0.0
H190 H 0.90031 0.96121 0.65773 0.0
H191 H 0.93817 1.01369 0.63234 0.0
Ho192 Ho 0.57698 0.10506 0.09016 0.0
Ho193 Ho 0.50029 0.0813 0.07035 0.0
C194 C 0.51951 0.13428 0.13014 0.0
C195 C 0.64235 0.14131 0.1084 0.0
C196 C 0.65801 0.16046 0.13957 0.0
C197 C 0.64019 0.18027 0.15767 0.0
C198 C 0.65304 0.19473 0.18928 0.0
C199 C 0.68378 0.18943 0.20343 0.0
C200 C 0.70226 0.17062 0.18462 0.0
C201 C 0.6895 0.15635 0.15298 0.0
C202 C 0.53739 0.04692 0.12066 0.0
C203 C 0.55653 0.04849 0.03307 0.0
C204 C 0.43408 0.04824 0.05131 0.0
C205 C 0.41739 1.03233 1.0194 0.0
C206 C 0.38088 1.01148 1.01824 0.0
C207 C 0.36504 0.99595 0.98782 0.0
C208 C 0.38561 1.00109 0.95815 0.0
C209 C 0.42224 1.02224 0.95957 0.0
C210 C 0.43802 0.03762 0.98995 0.0
C211 C 0.54123 0.13969 0.04074 0.0
O212 O 0.55316 0.14128 0.11903 0.0
O213 O 0.49392 0.10626 0.11946 0.0
O214 O 0.62943 0.10814 0.11068 0.0
O215 O 0.62097 0.15331 0.0912 0.0
O216 O 0.57082 0.0537 0.11112 0.0
O217 O 0.52696 0.07241 0.11579 0.0
O218 O 0.52277 0.04363 0.043 0.0
O219 O 0.58324 0.07593 0.0433 0.0
O220 O 0.44808 0.08154 0.05207 0.0
O221 O 0.45552 0.03377 0.06501 0.0
O222 O 0.50876 0.1344 0.05227 0.0
O223 O 0.55033 0.1133 0.04445 0.0
H224 H 0.61577 0.18384 0.14789 0.0
H225 H 0.63848 0.20945 0.20291 0.0
H226 H 0.72566 0.16555 0.19493 0.0
H227 H 0.70346 0.14095 0.13949 0.0
H228 H 0.3647 1.00707 0.04087 0.0
H229 H 0.33692 0.97951 0.98762 0.0
H230 H 0.43868 1.02717 0.93713 0.0
H231 H 0.46632 0.0537 0.9905 0.0
Ho232 Ho 0.54564 0.56704 0.56066 0.0
Ho233 Ho 0.55218 0.62729 0.60369 0.0
C234 C 0.57735 0.57001 0.63737 0.0
C235 C 0.55803 0.5173 0.52681 0.0
C236 C 0.56451 0.48526 0.53501 0.0
C237 C 0.59848 0.48151 0.52767 0.0
C238 C 0.60582 0.45192 0.53599 0.0
C239 C 0.57917 0.42533 0.5515 0.0
C240 C 0.54498 0.42882 0.55851 0.0
C241 C 0.53774 0.45863 0.5505 0.0
C242 C 0.48364 0.56237 0.59506 0.0
C243 C 0.51865 0.62329 0.52834 0.0
C244 C 0.54337 0.67898 0.63695 0.0
C245 C 0.52425 0.70352 0.63055 0.0
C246 C 0.48886 0.69255 0.61704 0.0
C247 C 0.47039 0.71601 0.6128 0.0
C248 C 0.48714 0.75092 0.62159 0.0
C249 C 0.52333 0.762 0.63342 0.0
C250 C 0.54162 0.73843 0.63804 0.0
C251 C 0.61405 0.63087 0.56971 0.0
O252 O 0.57313 0.55508 0.60689 0.0
O253 O 0.56834 0.59792 0.64345 0.0
O254 O 0.52534 0.51905 0.532 0.0
O255 O 0.58366 0.54555 0.5362 0.0
O256 O 0.48456 0.55136 0.56428 0.0
O257 O 0.51573 0.57423 0.60653 0.0
O258 O 0.51851 0.6351 0.55975 0.0
O259 O 0.53303 0.59889 0.5213 0.0
O260 O 0.57166 0.68126 0.61818 0.0
O261 O 0.523 0.6473 0.64099 0.0
O262 O 0.61296 0.64004 0.60105 0.0
O263 O 0.58205 0.62013 0.55787 0.0
H264 H 0.61946 0.50159 0.51558 0.0
H265 H 0.63222 0.44963 0.52984 0.0
H266 H 0.52404 0.40867 0.57054 0.0
H267 H 0.5113 0.46082 0.55658 0.0
H268 H 0.47509 0.66574 0.61053 0.0
H269 H 0.44245 0.70646 0.60401 0.0
H270 H 0.53726 0.78878 0.63981 0.0
H271 H 0.56917 0.74739 0.64796 0.0
Ho272 Ho 0.04025 0.56597 0.10047 0.0
Ho273 Ho 0.04003 0.63042 0.0696 0.0
C274 C 0.1094 0.63534 0.11343 0.0
C275 C 0.05727 0.51437 0.12079 0.0
C276 C 0.09173 0.50827 0.12831 0.0
C277 C 0.12324 0.52298 0.10944 0.0
C278 C 0.15574 0.51696 0.11702 0.0
C279 C 0.15741 0.49648 0.14383 0.0
C280 C 0.1259 0.48214 0.16288 0.0
C281 C 0.09333 0.48792 0.1551 0.0
C282 C 1.00393 0.6021 0.13648 0.0
C283 C 0.97019 0.56043 0.05715 0.0
C284 C 0.02469 0.68337 0.05049 0.0
C285 C 0.99219 0.69184 0.04033 0.0
C286 C 0.96049 0.68356 0.05995 0.0
C287 C 0.93105 0.69405 0.05091 0.0
C288 C 0.93269 0.71289 1.02203 0.0
C289 C 0.96406 0.7201 1.00195 0.0
C290 C 0.99351 0.70981 1.0111 0.0
C291 C 0.07853 0.59601 0.0344 0.0
O292 O 0.09834 0.60149 0.10973 0.0
O293 O 0.08894 0.65307 0.10301 0.0
O294 O 0.04861 0.5361 0.14114 0.0
O295 O 0.05126 0.51861 0.08934 0.0
O296 O 0.99327 0.56889 0.13346 0.0
O297 O 0.03368 0.61399 0.12132 0.0
O298 O 0.98259 0.59443 0.05798 0.0
O299 O 0.98947 0.54267 0.06985 0.0
O300 O 0.03557 0.66323 0.02991 0.0
O301 O 0.02669 0.67634 0.08189 0.0
O302 O 0.08826 0.62913 0.0383 0.0
O303 O 0.04815 0.58284 0.04846 0.0
H304 H 0.12279 0.53916 0.08888 0.0
H305 H 0.17968 0.52866 0.10216 0.0
H306 H 0.12629 0.46603 0.1835 0.0
H307 H 0.06936 0.47646 0.17002 0.0
H308 H 0.95865 0.66956 0.08261 0.0
H309 H 0.90745 0.68822 0.06706 0.0
H310 H 0.96598 0.73388 0.97915 0.0
H311 H 1.01758 0.7163 0.9955 0.0
H312 H 0.30522 0.32667 0.2771 0.0
H313 H 0.37682 0.28628 0.33186 0.0
H314 H 0.25693 0.30318 0.31741 0.0
H315 H 0.32813 0.26185 0.3716 0.0
H316 H 0.24008 0.24557 0.45211 0.0
H317 H 0.29001 0.27631 0.41588 0.0
H318 H 0.21854 0.24496 0.3297 0.0
H319 H 0.16895 0.21412 0.36562 0.0
C320 C 0.31078 0.31314 0.29798 0.0
C321 C 0.34476 0.30818 0.30123 0.0
C322 C 0.28302 0.29939 0.32086 0.0
C323 C 0.28864 0.28044 0.34752 0.0
C324 C 0.32302 0.27651 0.35145 0.0
C325 C 0.35077 0.29019 0.32851 0.0
C326 C 0.23509 0.24519 0.42542 0.0
C327 C 0.20048 0.22746 0.41179 0.0
C328 C 0.26366 0.26283 0.4047 0.0
C329 C 0.25815 0.26318 0.36997 0.0
C330 C 0.22348 0.24575 0.35644 0.0
C331 C 0.19502 0.22807 0.37707 0.0
H332 H 0.35324 0.94162 0.74846 0.0
H333 H 0.251 0.8826 0.79177 0.0
H334 H 0.37446 0.9683 0.8033 0.0
H335 H 0.27229 0.90968 0.84694 0.0
H336 H 0.31727 0.99278 0.93352 0.0
H337 H 0.29163 0.967 0.87915 0.0
H338 H 0.39145 0.94612 0.85552 0.0
H339 H 0.41683 0.97125 0.90974 0.0
C340 C 0.33529 0.93438 0.76974 0.0
C341 C 0.30068 0.90963 0.76595 0.0
C342 C 0.34745 0.94965 0.80112 0.0
C343 C 0.32523 0.94066 0.82943 0.0
C344 C 0.28993 0.91711 0.82548 0.0
C345 C 0.27775 0.90168 0.79396 0.0
C346 C 0.33355 0.98231 0.91686 0.0
C347 C 0.36923 0.98437 0.92581 0.0
C348 C 0.31888 0.96764 0.88575 0.0
C349 C 0.33973 0.95496 0.86301 0.0
C350 C 0.37505 0.95637 0.87227 0.0
C351 C 0.3896 0.97082 0.90332 0.0
H352 H 0.60177 0.42757 0.78455 0.0
H353 H 0.66561 0.52598 0.8271 0.0
H354 H 0.59258 0.45436 0.73339 0.0
H355 H 0.65724 0.55312 0.77573 0.0
H356 H 0.59032 0.59385 0.70299 0.0
H357 H 0.60933 0.56737 0.74968 0.0
H358 H 0.61463 0.48383 0.68324 0.0
H359 H 0.59488 0.51015 0.63649 0.0
C360 C 0.61519 0.45482 0.78233 0.0
C361 C 0.63525 0.47449 0.80959 0.0
C362 C 0.60973 0.47035 0.753 0.0
C363 C 0.62377 0.50618 0.75014 0.0
C364 C 0.6454 0.52559 0.77692 0.0
C365 C 0.6509 0.50999 0.80623 0.0
C366 C 0.5957 0.56992 0.69815 0.0
C367 C 0.59085 0.55427 0.66569 0.0
C368 C 0.60697 0.55475 0.72507 0.0
C369 C 0.6138 0.52328 0.72062 0.0
C370 C 0.60938 0.50782 0.68801 0.0
C371 C 0.59817 0.52307 0.66101 0.0
H372 H 0.89492 0.67673 0.30404 0.0
H373 H 0.94166 0.76325 0.24235 0.0
H374 H 0.92243 0.64227 0.26782 0.0
H375 H 0.96737 0.72898 0.20561 0.0
H376 H 0.03396 0.66945 0.15637 0.0
H377 H 1.01135 0.70256 0.19773 0.0
H378 H 0.91714 0.61394 0.21374 0.0
H379 H 0.94084 0.58047 0.17304 0.0
C380 C 0.91136 0.68853 0.28303 0.0
C381 C 0.91576 0.72277 0.27609 0.0
C382 C 0.92675 0.66863 0.26188 0.0
C383 C 0.94711 0.68251 0.23333 0.0
C384 C 0.95242 0.71715 0.22733 0.0
C385 C 0.93725 0.73688 0.24837 0.0
C386 C 1.00839 0.65701 0.16868 0.0
C387 C 0.98915 0.62231 0.16121 0.0
C388 C 0.99522 0.67609 0.19244 0.0
C389 C 0.96209 0.66125 0.20929 0.0
C390 C 0.94294 0.62636 0.20184 0.0
C391 C 0.95634 0.60716 0.1782 0.0
H392 H 0.49034 0.3172 0.23097 0.0
H393 H 0.38356 0.24476 0.21109 0.0
H394 H 0.51813 0.27494 0.20973 0.0
H395 H 0.41075 0.20322 0.18827 0.0
H396 H 0.46253 0.12282 0.17333 0.0
H397 H 0.44069 0.1654 0.20235 0.0
H398 H 0.53014 0.2462 0.16152 0.0
H399 H 0.553 0.20337 0.13424 0.0
C400 C 0.47293 0.29231 0.22168 0.0
C401 C 0.43491 0.28403 0.2228 0.0
C402 C 0.48874 0.2681 0.20942 0.0
C403 C 0.46678 0.23534 0.19754 0.0
C404 C 0.42867 0.22763 0.1981 0.0
C405 C 0.41298 0.25155 0.21086 0.0
C406 C 0.47783 0.1497 0.17112 0.0
C407 C 0.50933 0.1598 0.15146 0.0
C408 C 0.46513 0.1742 0.18744 0.0
C409 C 0.48311 0.20943 0.18377 0.0
C410 C 0.51563 0.21943 0.16524 0.0
C411 C 0.52876 0.19485 0.1495 0.0
H412 H 0.10165 0.90081 0.64737 0.0
H413 H 0.21667 0.9569 0.64078 0.0
H414 H 0.08765 0.95243 0.63607 0.0
H415 H 0.20273 1.00924 0.63252 0.0
H416 H 0.16041 0.08417 0.5749 0.0
H417 H 0.18017 0.03691 0.59216 0.0
H418 H 0.08788 1.00519 0.65884 0.0
H419 H 0.06712 0.05065 0.63954 0.0
C420 C 0.12399 0.92418 0.64377 0.0
C421 C 0.16027 0.92455 0.64504 0.0
C422 C 0.11599 0.95406 0.63791 0.0
C423 C 0.14408 0.98526 0.63373 0.0
C424 C 0.18039 0.98571 0.63535 0.0
C425 C 0.18837 0.95569 0.64065 0.0
C426 C 0.14489 0.06744 0.59374 0.0
C427 C 0.11219 0.07091 0.60589 0.0
C428 C 0.15617 0.04034 0.60372 0.0
C429 C 0.13522 1.01672 0.62647 0.0
C430 C 0.1041 1.02213 0.64051 0.0
C431 C 0.09246 0.04859 0.62992 0.0
H432 H 0.79028 0.40631 0.95103 0.0
H433 H 0.74938 0.49122 0.96707 0.0
H434 H 0.84771 0.43969 0.97761 0.0
H435 H 0.80663 0.5246 0.99463 0.0
H436 H 0.92631 0.5863 1.01967 0.0
H437 H 0.86937 0.55489 0.99065 0.0
H438 H 0.87483 0.46048 0.02935 0.0
H439 H 0.93215 0.49166 0.05716 0.0
C440 C 0.79349 0.43215 0.96036 0.0
C441 C 0.76494 0.44589 0.9569 0.0
C442 C 0.82652 0.45136 0.97592 0.0
C443 C 0.83217 0.48499 0.98895 0.0
C444 C 0.80383 0.49904 0.98477 0.0
C445 C 0.77082 0.47984 0.96889 0.0
C446 C 0.91532 0.55883 1.02204 0.0
C447 C 0.93419 0.54164 0.04077 0.0
C448 C 0.8824 0.54071 1.00543 0.0
C449 C 0.86712 0.50481 1.00716 0.0
C450 C 0.88579 0.48786 0.0265 0.0
C451 C 0.91875 0.5059 0.04284 0.0
H452 H 0.76643 0.72504 0.41268 0.0
H453 H 0.83612 0.72572 0.49644 0.0
H454 H 0.71335 0.69259 0.44432 0.0
H455 H 0.78356 0.69171 0.52768 0.0
H456 H 0.68105 0.67206 0.59055 0.0
H457 H 0.73458 0.69752 0.557 0.0
H458 H 0.67728 0.64276 0.4686 0.0
H459 H 0.62277 0.61867 0.50242 0.0
C460 C 0.77046 0.71742 0.4376 0.0
C461 C 0.80545 0.72804 0.4521 0.0
C462 C 0.73996 0.69867 0.45585 0.0
C463 C 0.74366 0.68959 0.48899 0.0
C464 C 0.77911 0.69888 0.50272 0.0
C465 C 0.80946 0.71813 0.48469 0.0
C466 C 0.6799 0.66525 0.56398 0.0
C467 C 0.64754 0.64343 0.54916 0.0
C468 C 0.71089 0.6797 0.5446 0.0
C469 C 0.71078 0.67239 0.50977 0.0
C470 C 0.67853 0.64965 0.49513 0.0
C471 C 0.64727 0.63552 0.51455 0.0
H472 H 0.32184 0.42667 0.23493 0.0
H473 H 0.37329 0.47256 0.14431 0.0
H474 H 0.26782 0.44118 0.22137 0.0
H475 H 0.32007 0.48908 0.13185 0.0
H476 H 0.20344 0.47838 0.10031 0.0
H477 H 0.25866 0.46531 0.11355 0.0
H478 H 0.24464 0.48742 0.21868 0.0
H479 H 0.1889 0.49951 0.20535 0.0
C480 C 0.32171 0.43991 0.21211 0.0
C481 C 0.35196 0.4482 0.19062 0.0
C482 C 0.29084 0.44873 0.20457 0.0
C483 C 0.28946 0.46639 0.1755 0.0
C484 C 0.3199 0.4751 0.15423 0.0
C485 C 0.35069 0.46603 0.16163 0.0
C486 C 0.21236 0.48066 0.1262 0.0
C487 C 0.19178 0.48982 0.15181 0.0
C488 C 0.2441 0.47328 0.13383 0.0
C489 C 0.2562 0.4752 0.16724 0.0
C490 C 0.23584 0.48498 0.19276 0.0
C491 C 0.20393 0.49203 0.18514 0.0
H492 H 0.64622 0.30734 0.90833 0.0
H493 H 0.66982 0.35315 1.00815 0.0
H494 H 0.61589 0.25125 0.93213 0.0
H495 H 0.63876 0.29747 0.03183 0.0
H496 H 0.53471 0.20262 0.05296 0.0
H497 H 0.56972 0.25713 0.02939 0.0
H498 H 0.63339 0.20639 0.9719 0.0
H499 H 0.5989 0.1516 0.99655 0.0
C500 C 0.645 0.30543 0.93532 0.0
C501 C 0.6606 0.33479 0.9563 0.0
C502 C 0.62781 0.27327 0.94895 0.0
C503 C 0.6249 0.26981 0.98391 0.0
C504 C 0.64046 0.29919 1.00482 0.0
C505 C 0.6584 0.33109 0.99123 0.0
C506 C 0.55631 0.20303 0.03542 0.0
C507 C 0.56395 0.17269 0.02662 0.0
C508 C 0.57645 0.23435 1.02199 0.0
C509 C 0.60432 0.23621 0.99866 0.0
C510 C 0.61198 0.20583 0.98968 0.0
C511 C 0.59237 0.1745 1.00388 0.0
H512 H 0.85214 0.84531 0.47704 0.0
H513 H 0.954 0.85285 0.42806 0.0
H514 H 0.87983 0.90155 0.50412 0.0
H515 H 0.98155 0.90965 0.45487 0.0
H516 H 1.00731 1.02484 0.48168 0.0
H517 H 0.97961 0.96833 0.45469 0.0
H518 H 0.92458 0.93177 0.54685 0.0
H519 H 0.95207 0.9884 0.57387 0.0
C520 C 0.88062 0.85865 0.4723 0.0
C521 C 0.90079 0.84397 0.45044 0.0
C522 C 0.89651 0.89116 0.48786 0.0
C523 C 0.93305 0.91034 0.4819 0.0
C524 C 0.95322 0.8959 0.45984 0.0
C525 C 0.93737 0.86321 0.4444 0.0
C526 C 0.98916 1.00487 0.49625 0.0
C527 C 0.98194 1.01148 0.53007 0.0
C528 C 0.97347 0.97225 0.48076 0.0
C529 C 0.94985 0.94523 0.49849 0.0
C530 C 0.94231 0.95193 0.53221 0.0
C531 C 0.95821 0.9845 0.54779 0.0
H532 H 0.37727 0.89929 0.67388 0.0
H533 H 0.29632 0.80124 0.65009 0.0
H534 H 0.42456 0.87816 0.65017 0.0
H535 H 0.34358 0.78018 0.62624 0.0
H536 H 0.43535 0.75358 0.57604 0.0
H537 H 0.39261 0.78584 0.58276 0.0
H538 H 0.44777 0.83439 0.67418 0.0
H539 H 0.48949 0.80181 0.6682 0.0
C540 C 0.36957 0.87335 0.66322 0.0
C541 C 0.3333 0.85163 0.66442 0.0
C542 C 0.39656 0.86137 0.64951 0.0
C543 C 0.38774 0.82748 0.63669 0.0
C544 C 0.35109 0.80655 0.63567 0.0
C545 C 0.32406 0.81853 0.64945 0.0
C546 C 0.43853 0.7714 0.59739 0.0
C547 C 0.4656 0.7748 0.62179 0.0
C548 C 0.41419 0.78993 0.6011 0.0
C549 C 0.41684 0.81246 0.62902 0.0
C550 C 0.44539 0.81757 0.65213 0.0
C551 C 0.46941 0.79886 0.64863 0.0
H552 H 0.75425 0.89138 0.84171 0.0
H553 H 0.80153 0.80977 0.83466 0.0
H554 H 0.79337 0.91985 0.79649 0.0
H555 H 0.84121 0.83875 0.78976 0.0
H556 H 0.93846 0.93218 0.75267 0.0
H557 H 0.89373 0.89319 0.7882 0.0
H558 H 0.80689 0.91432 0.73574 0.0
H559 H 0.85159 0.9538 0.7007 0.0
C560 C 0.7725 0.87918 0.83012 0.0
C561 C 0.77496 0.84844 0.84201 0.0
C562 C 0.79492 0.89551 0.80419 0.0
C563 C 0.82041 0.88154 0.78967 0.0
C564 C 0.82211 0.85027 0.80077 0.0
C565 C 0.7995 0.83381 0.82657 0.0
C566 C 0.90978 0.92806 0.74843 0.0
C567 C 0.89854 0.9462 0.7241 0.0
C568 C 0.88416 0.90557 0.76857 0.0
C569 C 0.84686 0.901 0.76491 0.0
C570 C 0.8355 0.91767 0.73933 0.0
C571 C 0.86109 0.93998 0.71905 0.0
H572 H 0.77794 0.18392 0.39201 0.0
H573 H 0.71227 0.24805 0.41878 0.0
H574 H 0.76098 0.18347 0.33355 0.0
H575 H 0.69425 0.24648 0.35985 0.0
H576 H 0.6398 0.18802 0.25775 0.0
H577 H 0.65809 0.19942 0.31654 0.0
H578 H 0.77106 0.22699 0.28776 0.0
H579 H 0.75301 0.21649 0.22884 0.0
C580 C 0.76021 0.19829 0.38541 0.0
C581 C 0.74687 0.21643 0.41008 0.0
C582 C 0.75046 0.19795 0.35189 0.0
C583 C 0.72672 0.21532 0.34221 0.0
C584 C 0.71267 0.23293 0.36677 0.0
C585 C 0.72282 0.23364 0.40043 0.0
C586 C 0.66859 0.19746 0.26382 0.0
C587 C 0.69496 0.20098 0.23859 0.0
C588 C 0.67899 0.20389 0.29751 0.0
C589 C 0.71591 0.21367 0.30659 0.0
C590 C 0.74236 0.21894 0.28136 0.0
C591 C 0.73201 0.21281 0.24769 0.0
H592 H 0.47631 0.75952 0.38195 0.0
H593 H 0.42435 0.65813 0.33907 0.0
H594 H 0.48893 0.73501 0.43355 0.0
H595 H 0.43612 0.63337 0.39058 0.0
H596 H 0.51074 0.60199 0.46202 0.0
H597 H 0.48855 0.62638 0.41578 0.0
H598 H 0.46951 0.70276 0.48396 0.0
H599 H 0.49234 0.67837 0.53056 0.0
C600 C 0.46615 0.73199 0.38414 0.0
C601 C 0.44854 0.71083 0.35664 0.0
C602 C 0.47365 0.71781 0.41369 0.0
C603 C 0.46413 0.682 0.41641 0.0
C604 C 0.44462 0.66099 0.38947 0.0
C605 C 0.43717 0.67517 0.36005 0.0
C606 C 0.5017 0.62389 0.46739 0.0
C607 C 0.5035 0.63805 0.50032 0.0
C608 C 0.48858 0.63783 0.44069 0.0
C609 C 0.47679 0.6666 0.44577 0.0
C610 C 0.47846 0.68078 0.47878 0.0
C611 C 0.49144 0.66664 0.50565 0.0
H612 H 0.22985 0.5216 0.91625 0.0
H613 H 0.12641 0.46824 0.86913 0.0
H614 H 0.20056 0.55215 0.95453 0.0
H615 H 0.09664 0.49903 0.90757 0.0
H616 H 0.0534 0.52868 1.01074 0.0
H617 H 0.08136 0.50047 0.96823 0.0
H618 H 0.17007 0.59493 0.95867 0.0
H619 H 0.14233 0.62279 1.00108 0.0
C620 C 0.20088 0.51705 0.91357 0.0
C621 C 0.18056 0.49281 0.88935 0.0
C622 C 0.18398 0.53453 0.93561 0.0
C623 C 0.14607 0.52806 0.93445 0.0
C624 C 0.12581 0.50446 0.90952 0.0
C625 C 0.14289 0.48718 0.88712 0.0
C626 C 0.07891 0.54334 0.99957 0.0
C627 C 0.09564 0.578 1.00941 0.0
C628 C 0.09481 0.52726 0.97495 0.0
C629 C 0.12805 0.54534 0.95976 0.0
C630 C 0.14471 0.57998 0.96987 0.0
C631 C 0.12872 0.59604 0.99422 0.0
H632 H 0.55047 0.85014 0.94642 0.0
H633 H 0.66174 0.91433 0.93139 0.0
H634 H 0.53567 0.89896 0.96883 0.0
H635 H 0.64804 0.96232 0.95825 0.0
H636 H 0.60865 0.05233 0.985 0.0
H637 H 0.62232 1.00456 0.95606 0.0
H638 H 0.53889 0.93354 1.0141 0.0
H639 H 0.52358 0.98093 0.04023 0.0
C640 C 0.57201 0.87456 0.94793 0.0
C641 C 0.6074 0.87779 0.93667 0.0
C642 C 0.56362 0.90275 0.96171 0.0
C643 C 0.59062 0.93502 0.966 0.0
C644 C 0.62616 0.93825 0.95509 0.0
C645 C 0.6343 0.91023 0.94026 0.0
C646 C 0.59303 1.02636 0.99098 0.0
C647 C 0.56473 1.02025 1.01439 0.0
C648 C 0.60106 0.99887 0.97472 0.0
C649 C 0.58172 0.9647 0.98239 0.0
C650 C 0.55376 0.95905 1.00636 0.0
C651 C 0.54503 0.98637 1.02167 0.0
H652 H 0.85777 0.26003 0.52771 0.0
H653 H 0.83409 0.17097 0.46045 0.0
H654 H 0.91447 0.25141 0.54471 0.0
H655 H 0.88905 0.16071 0.4787 0.0
H656 H 0.98952 0.14548 0.51156 0.0
H657 H 0.95144 0.17295 0.48335 0.0
H658 H 0.92769 0.21358 0.57938 0.0
H659 H 0.96767 0.18834 0.60676 0.0
C660 C 0.86504 0.2388 0.51643 0.0
C661 C 0.84177 0.21598 0.49306 0.0
C662 C 0.89729 0.23366 0.52623 0.0
C663 C 0.90622 0.20502 0.51354 0.0
C664 C 0.88362 0.18334 0.48874 0.0
C665 C 0.85189 0.18898 0.47841 0.0
C666 C 0.97689 0.16113 0.52635 0.0
C667 C 0.98107 0.1645 0.5613 0.0
C668 C 0.9548 0.17662 0.51029 0.0
C669 C 0.93582 0.19503 0.52906 0.0
C670 C 0.94203 0.20003 0.56387 0.0
C671 C 0.96469 0.18519 0.57974 0.0
H672 H 0.29552 0.78921 0.21201 0.0
H673 H 0.32355 0.69624 0.21509 0.0
H674 H 0.23939 0.75823 0.18364 0.0
H675 H 0.26496 0.66415 0.19028 0.0
H676 H 0.17145 0.6169 0.11613 0.0
H677 H 0.22878 0.64745 0.14467 0.0
H678 H 0.1822 0.72397 0.18246 0.0
H679 H 0.12657 0.69482 0.15154 0.0
C680 C 0.28979 0.76202 0.20693 0.0
C681 C 0.31516 0.74577 0.21558 0.0
C682 C 0.25666 0.74378 0.19106 0.0
C683 C 0.24667 0.70813 0.18411 0.0
C684 C 0.27136 0.69155 0.19413 0.0
C685 C 0.30507 0.71004 0.20925 0.0
C686 C 0.17377 0.64047 0.13034 0.0
C687 C 0.14454 0.65364 0.13111 0.0
C688 C 0.2067 0.658 0.14719 0.0
C689 C 0.21112 0.68879 0.16624 0.0
C690 C 0.18116 0.70123 0.16749 0.0
C691 C 0.14876 0.68427 0.14983 0.0
H692 H 0.2604 0.48323 0.67037 0.0
H693 H 0.32816 0.48146 0.75486 0.0
H694 H 0.3143 0.51308 0.63845 0.0
H695 H 0.38249 0.51 0.72262 0.0
H696 H 0.4762 0.57784 0.66191 0.0
H697 H 0.42149 0.55792 0.69639 0.0
H698 H 0.36145 0.50146 0.60999 0.0
H699 H 0.41542 0.52261 0.5757 0.0
C700 C 0.28692 0.4895 0.6822 0.0
C701 C 0.28995 0.47995 0.71516 0.0
C702 C 0.31801 0.50633 0.66377 0.0
C703 C 0.35324 0.51361 0.67748 0.0
C704 C 0.35608 0.50528 0.71106 0.0
C705 C 0.32485 0.48885 0.72967 0.0
C706 C 0.45112 0.56147 0.65033 0.0
C707 C 0.45021 0.55184 0.61604 0.0
C708 C 0.41972 0.54976 0.67015 0.0
C709 C 0.38659 0.5279 0.65626 0.0
C710 C 0.3859 0.51874 0.62177 0.0
C711 C 0.4171 0.53068 0.60199 0.0
H712 H 0.80029 0.83841 0.97003 0.0
H713 H 0.74097 0.73674 0.93145 0.0
H714 H 0.84154 0.81584 1.00023 0.0
H715 H 0.7829 0.71394 0.96054 0.0
H716 H 0.85879 0.68037 0.02674 0.0
H717 H 0.80966 0.70194 1.01107 0.0
H718 H 0.88938 0.79584 0.98056 0.0
H719 H 0.93806 0.77514 0.99769 0.0
C720 C 0.79558 0.81104 0.96889 0.0
C721 C 0.76748 0.78917 0.94881 0.0
C722 C 0.81942 0.79813 0.98574 0.0
C723 C 0.81602 0.76314 0.9823 0.0
C724 C 0.78623 0.74095 0.96397 0.0
C725 C 0.76215 0.7539 0.94734 0.0
C726 C 0.86576 0.70584 1.01719 0.0
C727 C 0.90243 0.7259 1.01324 0.0
C728 C 0.83759 0.71808 1.00794 0.0
C729 C 0.84547 0.75069 0.99463 0.0
C730 C 0.88215 0.77087 0.99125 0.0
C731 C 0.91019 0.75872 1.00054 0.0
H732 H 0.39412 0.84342 0.16524 0.0
H733 H 0.46051 0.87494 0.25489 0.0
H734 H 0.42327 0.89945 0.1427 0.0
H735 H 0.4913 0.93019 0.23079 0.0
H736 H 0.56529 1.00234 0.14987 0.0
H737 H 0.53289 0.94917 0.17708 0.0
H738 H 0.43064 0.96555 0.15794 0.0
H739 H 0.46336 1.01978 0.13166 0.0
C740 C 0.41447 0.86214 0.18058 0.0
C741 C 0.42433 0.85397 0.21241 0.0
C742 C 0.43144 0.89441 0.16731 0.0
C743 C 0.45956 0.91941 0.18491 0.0
C744 C 0.46981 0.91145 0.21648 0.0
C745 C 0.45224 0.87946 0.23017 0.0
C746 C 0.53591 0.99487 0.15174 0.0
C747 C 0.51695 1.01541 0.13854 0.0
C748 C 0.51735 0.96438 0.16745 0.0
C749 C 0.47916 0.95301 0.16971 0.0
C750 C 0.46007 0.97351 0.15652 0.0
C751 C 0.47879 1.00461 0.14153 0.0
H752 H 0.13713 0.35953 0.73874 0.0
H753 H 0.23802 0.36436 0.68907 0.0
H754 H 0.1077 0.30341 0.71107 0.0
H755 H 0.20822 0.30922 0.66075 0.0
H756 H 0.13032 0.22868 0.58789 0.0
H757 H 0.15999 0.28387 0.61701 0.0
H758 H 0.11027 0.24284 0.70982 0.0
H759 H 0.0807 0.18751 0.68079 0.0
C760 C 0.15315 0.34878 0.72207 0.0
C761 C 0.19002 0.36709 0.71603 0.0
C762 C 0.13619 0.31655 0.70613 0.0
C763 C 0.1555 0.30186 0.68345 0.0
C764 C 0.19231 0.31999 0.67756 0.0
C765 C 0.20936 0.35189 0.69376 0.0
C766 C 0.12583 0.2313 0.61454 0.0
C767 C 0.10317 0.20347 0.63194 0.0
C768 C 0.14295 0.26297 0.63128 0.0
C769 C 0.13747 0.26789 0.66579 0.0
C770 C 0.11482 0.24008 0.6832 0.0
C771 C 0.09812 0.20824 0.66656 0.0
H772 H 0.66682 0.2683 0.61742 0.0
H773 H 0.62995 0.24224 0.515 0.0
H774 H 0.63841 0.31336 0.61993 0.0
H775 H 0.60188 0.28739 0.51736 0.0
H776 H 0.53709 0.35916 0.53761 0.0
H777 H 0.5534 0.30739 0.54531 0.0
H778 H 0.65564 0.36903 0.59042 0.0
H779 H 0.63918 0.42058 0.58304 0.0
C780 C 0.65196 0.27175 0.59573 0.0
C781 C 0.6507 0.25203 0.56594 0.0
C782 C 0.63596 0.29763 0.59709 0.0
C783 C 0.61811 0.30391 0.5688 0.0
C784 C 0.61519 0.28291 0.53963 0.0
C785 C 0.63148 0.2573 0.53817 0.0
C786 C 0.56269 0.36147 0.54976 0.0
C787 C 0.58705 0.39379 0.55948 0.0
C788 C 0.57209 0.33195 0.55398 0.0
C789 C 0.60579 0.33426 0.56835 0.0
C790 C 0.62933 0.36646 0.57956 0.0
C791 C 0.6201 0.39596 0.57504 0.0
loop_
_geom_bond_atom_site_label_1
_geom_bond_atom_site_label_2
_geom_bond_distance
_geom_bond_site_symmetry_2
_ccdc_geom_bond_type
H0 C1 0.949 . S
C1 H0 0.949 . S
C1 C2 1.395 . S
C1 C3 1.391 . S
C2 C1 1.395 . S
C2 C5 1.390 . S
C3 C1 1.391 . S
C3 C7 1.387 . S
C3 C8 1.491 . S
H4 C5 0.950 . S
C5 C2 1.390 . S
C5 H4 0.950 . S
C5 C6 1.378 . S
C6 C5 1.378 . S
C6 C7 1.409 . S
C7 C3 1.387 . S
C7 C6 1.409 . S
C7 H9 0.951 . S
C8 C3 1.491 . S
C8 C10 1.382 . S
C8 C12 1.404 . S
H9 C7 0.951 . S
C10 C8 1.382 . S
C10 C11 1.390 . S
C10 H15 0.949 . S
C11 C10 1.390 . S
C11 C16 1.399 . S
C12 C8 1.404 . S
C12 H13 0.950 . S
C12 C14 1.375 . S
H13 C12 0.950 . S
C14 C12 1.375 . S
C14 C16 1.382 . S
C14 H18 0.950 . S
H15 C10 0.949 . S
C16 C11 1.399 . S
C16 C14 1.382 . S
C16 H17 0.952 . S
H17 C16 0.952 . S
H18 C14 0.950 . S
H19 C20 0.949 . S
C20 H19 0.949 . S
C20 C21 1.395 . S
C20 C22 1.391 . S
C21 C20 1.395 . S
C21 C24 1.390 . S
C22 C20 1.391 . S
C22 C26 1.387 . S
C22 C27 1.491 . S
H23 C24 0.950 . S
C24 C21 1.390 . S
C24 H23 0.950 . S
C24 C25 1.378 . S
C25 C24 1.378 . S
C25 C26 1.409 . S
C26 C22 1.387 . S
C26 C25 1.409 . S
C26 H28 0.951 . S
C27 C22 1.491 . S
C27 C29 1.382 . S
C27 C31 1.404 . S
H28 C26 0.951 . S
C29 C27 1.382 . S
C29 C30 1.390 . S
C29 H34 0.949 . S
C30 C29 1.390 . S
C30 C35 1.399 . S
C31 C27 1.404 . S
C31 H32 0.950 . S
C31 C33 1.375 . S
H32 C31 0.950 . S
C33 C31 1.375 . S
C33 C35 1.382 . S
C33 H37 0.950 . S
H34 C29 0.949 . S
C35 C30 1.399 . S
C35 C33 1.382 . S
C35 H36 0.952 . S
H36 C35 0.952 . S
H37 C33 0.950 . S
H38 C39 0.949 . S
C39 H38 0.949 . S
C39 C40 1.395 . S
C39 C41 1.391 . S
C40 C39 1.395 . S
C40 C43 1.390 . S
C41 C39 1.391 . S
C41 C45 1.387 . S
C41 C46 1.491 . S
H42 C43 0.950 . S
C43 C40 1.390 . S
C43 H42 0.950 . S
C43 C44 1.378 . S
C44 C43 1.378 . S
C44 C45 1.409 . S
C45 C41 1.387 . S
C45 C44 1.409 . S
C45 H47 0.951 . S
C46 C41 1.491 . S
C46 C48 1.382 . S
C46 C50 1.404 . S
H47 C45 0.951 . S
C48 C46 1.382 . S
C48 C49 1.390 . S
C48 H53 0.949 . S
C49 C48 1.390 . S
C49 C54 1.399 . S
C50 C46 1.404 . S
C50 H51 0.950 . S
C50 C52 1.375 . S
H51 C50 0.950 . S
C52 C50 1.375 . S
C52 C54 1.382 . S
C52 H56 0.950 . S
H53 C48 0.949 . S
C54 C49 1.399 . S
C54 C52 1.382 . S
C54 H55 0.952 . S
H55 C54 0.952 . S
H56 C52 0.950 . S
H57 C58 0.949 . S
C58 H57 0.949 . S
C58 C59 1.395 . S
C58 C60 1.391 . S
C59 C58 1.395 . S
C59 C62 1.390 . S
C60 C58 1.391 . S
C60 C64 1.387 . S
C60 C65 1.491 . S
H61 C62 0.950 . S
C62 C59 1.390 . S
C62 H61 0.950 . S
C62 C63 1.378 . S
C63 C62 1.378 . S
C63 C64 1.409 . S
C64 C60 1.387 . S
C64 C63 1.409 . S
C64 H66 0.951 . S
C65 C60 1.491 . S
C65 C67 1.382 . S
C65 C69 1.404 . S
H66 C64 0.951 . S
C67 C65 1.382 . S
C67 C68 1.390 . S
C67 H72 0.949 . S
C68 C67 1.390 . S
C68 C73 1.399 . S
C69 C65 1.404 . S
C69 H70 0.950 . S
C69 C71 1.375 . S
H70 C69 0.950 . S
C71 C69 1.375 . S
C71 C73 1.382 . S
C71 H75 0.950 . S
H72 C67 0.949 . S
C73 C68 1.399 . S
C73 C71 1.382 . S
C73 H74 0.952 . S
H74 C73 0.952 . S
H75 C71 0.950 . S
H76 C77 0.949 . S
C77 H76 0.949 . S
C77 C78 1.395 . S
C77 C79 1.391 . S
C78 C77 1.395 . S
C78 C81 1.390 . S
C79 C77 1.391 . S
C79 C83 1.387 . S
C79 C84 1.491 . S
H80 C81 0.950 . S
C81 C78 1.390 . S
C81 H80 0.950 . S
C81 C82 1.378 . S
C82 C81 1.378 . S
C82 C83 1.409 . S
C83 C79 1.387 . S
C83 C82 1.409 . S
C83 H85 0.951 . S
C84 C79 1.491 . S
C84 C86 1.382 . S
C84 C88 1.404 . S
H85 C83 0.951 . S
C86 C84 1.382 . S
C86 C87 1.390 . S
C86 H91 0.949 . S
C87 C86 1.390 . S
C87 C92 1.399 . S
C88 C84 1.404 . S
C88 H89 0.950 . S
C88 C90 1.375 . S
H89 C88 0.950 . S
C90 C88 1.375 . S
C90 C92 1.382 . S
C90 H94 0.950 . S
H91 C86 0.949 . S
C92 C87 1.399 . S
C92 C90 1.382 . S
C92 H93 0.952 . S
H93 C92 0.952 . S
H94 C90 0.950 . S
H95 C96 0.949 . S
C96 H95 0.949 . S
C96 C97 1.395 . S
C96 C98 1.391 . S
C97 C96 1.395 . S
C97 C100 1.390 . S
C98 C96 1.391 . S
C98 C102 1.387 . S
C98 C103 1.491 . S
H99 C100 0.950 . S
C100 C97 1.390 . S
C100 H99 0.950 . S
C100 C101 1.378 . S
C101 C100 1.378 . S
C101 C102 1.409 . S
C102 C98 1.387 . S
C102 C101 1.409 . S
C102 H104 0.951 . S
C103 C98 1.491 . S
C103 C105 1.382 . S
C103 C107 1.404 . S
H104 C102 0.951 . S
C105 C103 1.382 . S
C105 C106 1.390 . S
C105 H110 0.949 . S
C106 C105 1.390 . S
C106 C111 1.399 . S
C107 C103 1.404 . S
C107 H108 0.950 . S
C107 C109 1.375 . S
H108 C107 0.950 . S
C109 C107 1.375 . S
C109 C111 1.382 . S
C109 H113 0.950 . S
H110 C105 0.949 . S
C111 C106 1.399 . S
C111 C109 1.382 . S
C111 H112 0.952 . S
H112 C111 0.952 . S
H113 C109 0.950 . S
H114 C115 0.949 . S
C115 H114 0.949 . S
C115 C116 1.395 . S
C115 C117 1.391 . S
C116 C115 1.395 . S
C116 C119 1.390 . S
C117 C115 1.391 . S
C117 C121 1.387 . S
C117 C122 1.491 . S
H118 C119 0.950 . S
C119 C116 1.390 . S
C119 H118 0.950 . S
C119 C120 1.378 . S
C120 C119 1.378 . S
C120 C121 1.409 . S
C121 C117 1.387 . S
C121 C120 1.409 . S
C121 H123 0.951 . S
C122 C117 1.491 . S
C122 C124 1.382 . S
C122 C126 1.404 . S
H123 C121 0.951 . S
C124 C122 1.382 . S
C124 C125 1.390 . S
C124 H129 0.949 . S
C125 C124 1.390 . S
C125 C130 1.399 . S
C126 C122 1.404 . S
C126 H127 0.950 . S
C126 C128 1.375 . S
H127 C126 0.950 . S
C128 C126 1.375 . S
C128 C130 1.382 . S
C128 H132 0.950 . S
H129 C124 0.949 . S
C130 C125 1.399 . S
C130 C128 1.382 . S
C130 H131 0.952 . S
H131 C130 0.952 . S
H132 C128 0.950 . S
H133 C134 0.949 . S
C134 H133 0.949 . S
C134 C135 1.395 . S
C134 C136 1.391 . S
C135 C134 1.395 . S
C135 C138 1.390 . S
C136 C134 1.391 . S
C136 C140 1.387 . S
C136 C141 1.491 . S
H137 C138 0.950 . S
C138 C135 1.390 . S
C138 H137 0.950 . S
C138 C139 1.378 . S
C139 C138 1.378 . S
C139 C140 1.409 . S
C140 C136 1.387 . S
C140 C139 1.409 . S
C140 H142 0.951 . S
C141 C136 1.491 . S
C141 C143 1.382 . S
C141 C145 1.404 . S
H142 C140 0.951 . S
C143 C141 1.382 . S
C143 C144 1.390 . S
C143 H148 0.949 . S
C144 C143 1.390 . S
C144 C149 1.399 . S
C145 C141 1.404 . S
C145 H146 0.950 . S
C145 C147 1.375 . S
H146 C145 0.950 . S
C147 C145 1.375 . S
C147 C149 1.382 . S
C147 H151 0.950 . S
H148 C143 0.949 . S
C149 C144 1.399 . S
C149 C147 1.382 . S
C149 H150 0.952 . S
H150 C149 0.952 . S
H151 C147 0.950 . S
Ho152 C155 2.811 . S
Ho152 O172 2.322 . S
Ho152 O174 2.378 . S
Ho152 O175 2.524 . S
Ho152 O176 2.381 . S
Ho152 O177 2.669 . S
Ho152 O179 2.346 1_545 S
Ho152 O183 2.305 1_455 S
Ho153 C164 2.811 1_545 S
Ho153 O173 2.346 1_655 S
Ho153 O177 2.305 1_655 S
Ho153 O178 2.322 1_545 S
Ho153 O180 2.378 1_545 S
Ho153 O181 2.524 1_545 S
Ho153 O182 2.381 . S
Ho153 O183 2.669 . S
C154 O172 1.259 . S
C154 O173 1.268 . S
C155 Ho152 2.811 . S
C155 C156 1.488 . S
C155 O174 1.215 . S
C155 O175 1.289 . S
C156 C155 1.488 . S
C156 C157 1.348 . S
C156 C161 1.413 . S
C157 C156 1.348 . S
C157 C158 1.442 . S
C157 H184 0.930 . S
C158 C157 1.442 . S
C158 C159 1.381 . S
C158 H185 0.931 . S
C159 C158 1.381 . S
C159 C160 1.321 . S
C160 C159 1.321 . S
C160 C161 1.403 . S
C160 H186 0.934 . S
C161 C156 1.413 . S
C161 C160 1.403 . S
C161 H187 0.930 . S
C162 O176 1.275 . S
C162 O177 1.256 . S
C163 O178 1.259 . S
C163 O179 1.268 1_655 S
C164 Ho153 2.811 1_565 S
C164 C165 1.488 . S
C164 O180 1.215 . S
C164 O181 1.289 . S
C165 C164 1.488 . S
C165 C166 1.348 . S
C165 C170 1.413 . S
C166 C165 1.348 . S
C166 C167 1.442 . S
C166 H188 0.930 . S
C167 C166 1.442 . S
C167 C168 1.381 . S
C167 H189 0.931 . S
C168 C167 1.381 . S
C168 C169 1.321 . S
C169 C168 1.321 . S
C169 C170 1.403 . S
C169 H190 0.934 . S
C170 C165 1.413 . S
C170 C169 1.403 . S
C170 H191 0.930 . S
C171 O182 1.275 . S
C171 O183 1.256 . S
O172 Ho152 2.322 . S
O172 C154 1.259 . S
O173 Ho153 2.346 1_455 S
O173 C154 1.268 . S
O174 Ho152 2.378 . S
O174 C155 1.215 . S
O175 Ho152 2.524 . S
O175 C155 1.289 . S
O176 Ho152 2.381 . S
O176 C162 1.275 . S
O177 Ho152 2.669 . S
O177 Ho153 2.305 1_455 S
O177 C162 1.256 . S
O178 Ho153 2.322 1_565 S
O178 C163 1.259 . S
O179 Ho152 2.346 1_565 S
O179 C163 1.268 1_455 S
O180 Ho153 2.378 1_565 S
O180 C164 1.215 . S
O181 Ho153 2.524 1_565 S
O181 C164 1.289 . S
O182 Ho153 2.381 . S
O182 C171 1.275 . S
O183 Ho152 2.305 1_655 S
O183 Ho153 2.669 . S
O183 C171 1.256 . S
H184 C157 0.930 . S
H185 C158 0.931 . S
H186 C160 0.934 . S
H187 C161 0.930 . S
H188 C166 0.930 . S
H189 C167 0.931 . S
H190 C169 0.934 . S
H191 C170 0.930 . S
Ho192 C195 2.811 . S
Ho192 O212 2.322 . S
Ho192 O214 2.378 . S
Ho192 O215 2.524 . S
Ho192 O216 2.381 1_545 S
Ho192 O217 2.667 1_545 S
Ho192 O219 2.346 . S
Ho192 O223 2.305 . S
Ho193 C204 2.811 1_544 S
Ho193 O213 2.346 . S
Ho193 O217 2.300 1_545 S
Ho193 O218 2.322 . S
Ho193 O220 2.378 1_554 S
Ho193 O221 2.524 1_545 S
Ho193 O222 2.381 . S
Ho193 O223 2.669 . S
C194 O212 1.259 . S
C194 O213 1.268 . S
C195 Ho192 2.811 . S
C195 C196 1.488 . S
C195 O214 1.215 . S
C195 O215 1.289 . S
C196 C195 1.488 . S
C196 C197 1.348 . S
C196 C201 1.413 . S
C197 C196 1.348 . S
C197 C198 1.442 . S
C197 H224 0.930 . S
C198 C197 1.442 . S
C198 C199 1.381 . S
C198 H225 0.931 . S
C199 C198 1.381 . S
C199 C200 1.321 . S
C200 C199 1.321 . S
C200 C201 1.403 . S
C200 H226 0.934 . S
C201 C196 1.413 . S
C201 C200 1.403 . S
C201 H227 0.930 . S
C202 O216 1.275 . S
C202 O217 1.261 . S
C203 O218 1.259 1_565 S
C203 O219 1.268 1_565 S
C204 Ho193 2.811 1_566 S
C204 C205 1.488 . S
C204 O220 1.215 1_565 S
C204 O221 1.289 1_556 S
C205 C204 1.488 . S
C205 C206 1.348 . S
C205 C210 1.413 . S
C206 C205 1.348 . S
C206 C207 1.442 . S
C206 H228 0.930 . S
C207 C206 1.442 . S
C207 C208 1.381 . S
C207 H229 0.931 . S
C208 C207 1.381 . S
C208 C209 1.321 . S
C209 C208 1.321 . S
C209 C210 1.403 . S
C209 H230 0.934 . S
C210 C205 1.413 . S
C210 C209 1.403 . S
C210 H231 0.930 1_565 S
C211 O222 1.275 . S
C211 O223 1.256 . S
O212 Ho192 2.322 . S
O212 C194 1.259 . S
O213 Ho193 2.346 . S
O213 C194 1.268 . S
O214 Ho192 2.378 . S
O214 C195 1.215 . S
O215 Ho192 2.524 . S
O215 C195 1.289 . S
O216 Ho192 2.381 1_565 S
O216 C202 1.275 . S
O217 Ho192 2.667 1_565 S
O217 Ho193 2.300 1_565 S
O217 C202 1.261 . S
O218 Ho193 2.322 . S
O218 C203 1.259 1_545 S
O219 Ho192 2.346 . S
O219 C203 1.268 1_545 S
O220 Ho193 2.378 1_556 S
O220 C204 1.215 1_545 S
O221 Ho193 2.524 1_565 S
O221 C204 1.289 1_554 S
O222 Ho193 2.381 . S
O222 C211 1.275 . S
O223 Ho192 2.305 . S
O223 Ho193 2.669 . S
O223 C211 1.256 . S
H224 C197 0.930 . S
H225 C198 0.931 . S
H226 C200 0.934 . S
H227 C201 0.930 . S
H228 C206 0.930 . S
H229 C207 0.931 . S
H230 C209 0.934 . S
H231 C210 0.930 1_545 S
Ho232 C235 2.811 . S
Ho232 O252 2.322 . S
Ho232 O254 2.378 . S
Ho232 O255 2.524 . S
Ho232 O256 2.381 . S
Ho232 O257 2.669 . S
Ho232 O259 2.346 . S
Ho232 O263 2.305 . S
Ho233 C244 2.811 . S
Ho233 O253 2.346 . S
Ho233 O257 2.305 . S
Ho233 O258 2.322 . S
Ho233 O260 2.378 . S
Ho233 O261 2.524 . S
Ho233 O262 2.381 . S
Ho233 O263 2.669 . S
C234 O252 1.259 . S
C234 O253 1.268 . S
C235 Ho232 2.811 . S
C235 C236 1.488 . S
C235 O254 1.215 . S
C235 O255 1.289 . S
C236 C235 1.488 . S
C236 C237 1.348 . S
C236 C241 1.413 . S
C237 C236 1.348 . S
C237 C238 1.442 . S
C237 H264 0.930 . S
C238 C237 1.442 . S
C238 C239 1.381 . S
C238 H265 0.931 . S
C239 C238 1.381 . S
C239 C240 1.321 . S
C240 C239 1.321 . S
C240 C241 1.403 . S
C240 H266 0.934 . S
C241 C236 1.413 . S
C241 C240 1.403 . S
C241 H267 0.930 . S
C242 O256 1.275 . S
C242 O257 1.256 . S
C243 O258 1.259 . S
C243 O259 1.268 . S
C244 Ho233 2.811 . S
C244 C245 1.488 . S
C244 O260 1.215 . S
C244 O261 1.289 . S
C245 C244 1.488 . S
C245 C246 1.348 . S
C245 C250 1.413 . S
C246 C245 1.348 . S
C246 C247 1.442 . S
C246 H268 0.930 . S
C247 C246 1.442 . S
C247 C248 1.381 . S
C247 H269 0.931 . S
C248 C247 1.381 . S
C248 C249 1.321 . S
C249 C248 1.321 . S
C249 C250 1.403 . S
C249 H270 0.934 . S
C250 C245 1.413 . S
C250 C249 1.403 . S
C250 H271 0.930 . S
C251 O262 1.275 . S
C251 O263 1.256 . S
O252 Ho232 2.322 . S
O252 C234 1.259 . S
O253 Ho233 2.346 . S
O253 C234 1.268 . S
O254 Ho232 2.378 . S
O254 C235 1.215 . S
O255 Ho232 2.524 . S
O255 C235 1.289 . S
O256 Ho232 2.381 . S
O256 C242 1.275 . S
O257 Ho232 2.669 . S
O257 Ho233 2.305 . S
O257 C242 1.256 . S
O258 Ho233 2.322 . S
O258 C243 1.259 . S
O259 Ho232 2.346 . S
O259 C243 1.268 . S
O260 Ho233 2.378 . S
O260 C244 1.215 . S
O261 Ho233 2.524 . S
O261 C244 1.289 . S
O262 Ho233 2.381 . S
O262 C251 1.275 . S
O263 Ho232 2.305 . S
O263 Ho233 2.669 . S
O263 C251 1.256 . S
H264 C237 0.930 . S
H265 C238 0.931 . S
H266 C240 0.934 . S
H267 C241 0.930 . S
H268 C246 0.930 . S
H269 C247 0.931 . S
H270 C249 0.934 . S
H271 C250 0.930 . S
Ho272 C275 2.811 . S
Ho272 O292 2.322 . S
Ho272 O294 2.378 . S
Ho272 O295 2.524 . S
Ho272 O296 2.381 . S
Ho272 O297 2.669 . S
Ho272 O299 2.346 1_455 S
Ho272 O303 2.305 1_554 S
Ho273 C284 2.811 1_455 S
Ho273 O293 2.346 1_556 S
Ho273 O297 2.305 1_556 S
Ho273 O298 2.322 1_455 S
Ho273 O300 2.378 . S
Ho273 O301 2.524 1_455 S
Ho273 O302 2.381 . S
Ho273 O303 2.669 . S
C274 O292 1.259 . S
C274 O293 1.268 . S
C275 Ho272 2.811 . S
C275 C276 1.488 . S
C275 O294 1.215 . S
C275 O295 1.289 . S
C276 C275 1.488 . S
C276 C277 1.348 . S
C276 C281 1.413 . S
C277 C276 1.348 . S
C277 C278 1.442 . S
C277 H304 0.930 . S
C278 C277 1.442 . S
C278 C279 1.381 . S
C278 H305 0.931 . S
C279 C278 1.381 . S
C279 C280 1.321 . S
C280 C279 1.321 . S
C280 C281 1.403 . S
C280 H306 0.934 . S
C281 C276 1.413 . S
C281 C280 1.403 . S
C281 H307 0.930 . S
C282 O296 1.275 . S
C282 O297 1.256 . S
C283 O298 1.259 . S
C283 O299 1.268 1_556 S
C284 Ho273 2.811 1_655 S
C284 C285 1.488 . S
C284 O300 1.215 1_655 S
C284 O301 1.289 . S
C285 C284 1.488 . S
C285 C286 1.348 . S
C285 C290 1.413 . S
C286 C285 1.348 . S
C286 C287 1.442 . S
C286 H308 0.930 . S
C287 C286 1.442 . S
C287 C288 1.381 . S
C287 H309 0.931 . S
C288 C287 1.381 . S
C288 C289 1.321 . S
C289 C288 1.321 . S
C289 C290 1.403 . S
C289 H310 0.934 . S
C290 C285 1.413 . S
C290 C289 1.403 . S
C290 H311 0.930 . S
C291 O302 1.275 . S
C291 O303 1.256 . S
O292 Ho272 2.322 . S
O292 C274 1.259 . S
O293 Ho273 2.346 1_554 S
O293 C274 1.268 . S
O294 Ho272 2.378 . S
O294 C275 1.215 . S
O295 Ho272 2.524 . S
O295 C275 1.289 . S
O296 Ho272 2.381 . S
O296 C282 1.275 . S
O297 Ho272 2.669 . S
O297 Ho273 2.305 1_554 S
O297 C282 1.256 . S
O298 Ho273 2.322 1_655 S
O298 C283 1.259 . S
O299 Ho272 2.346 1_655 S
O299 C283 1.268 1_554 S
O300 Ho273 2.378 . S
O300 C284 1.215 1_455 S
O301 Ho273 2.524 1_655 S
O301 C284 1.289 . S
O302 Ho273 2.381 . S
O302 C291 1.275 . S
O303 Ho272 2.305 1_556 S
O303 Ho273 2.669 . S
O303 C291 1.256 . S
H304 C277 0.930 . S
H305 C278 0.931 . S
H306 C280 0.934 . S
H307 C281 0.930 . S
H308 C286 0.930 . S
H309 C287 0.931 . S
H310 C289 0.934 . S
H311 C290 0.930 . S
H312 C320 0.950 . S
H313 C325 0.950 . S
H314 C322 0.950 . S
H315 C324 0.950 . S
H316 C326 0.950 . S
H317 C328 0.950 . S
H318 C330 0.950 . S
H319 C331 0.950 . S
C320 H312 0.950 . S
C320 C321 1.386 . S
C320 C322 1.391 . S
C321 C320 1.386 . S
C321 C325 1.393 . S
C322 H314 0.950 . S
C322 C320 1.391 . S
C322 C323 1.400 . S
C323 C322 1.400 . S
C323 C324 1.398 . S
C323 C329 1.491 . S
C324 H315 0.950 . S
C324 C323 1.398 . S
C324 C325 1.391 . S
C325 H313 0.950 . S
C325 C321 1.393 . S
C325 C324 1.391 . S
C326 H316 0.950 . S
C326 C327 1.386 . S
C326 C328 1.391 . S
C327 C326 1.386 . S
C327 C331 1.393 . S
C328 H317 0.950 . S
C328 C326 1.391 . S
C328 C329 1.400 . S
C329 C323 1.491 . S
C329 C328 1.400 . S
C329 C330 1.398 . S
C330 H318 0.950 . S
C330 C329 1.398 . S
C330 C331 1.391 . S
C331 H319 0.950 . S
C331 C327 1.393 . S
C331 C330 1.391 . S
H332 C340 0.950 . S
H333 C345 0.950 . S
H334 C342 0.950 . S
H335 C344 0.950 . S
H336 C346 0.950 . S
H337 C348 0.950 . S
H338 C350 0.950 . S
H339 C351 0.950 . S
C340 H332 0.950 . S
C340 C341 1.386 . S
C340 C342 1.391 . S
C341 C340 1.386 . S
C341 C345 1.393 . S
C342 H334 0.950 . S
C342 C340 1.391 . S
C342 C343 1.400 . S
C343 C342 1.400 . S
C343 C344 1.398 . S
C343 C349 1.491 . S
C344 H335 0.950 . S
C344 C343 1.398 . S
C344 C345 1.391 . S
C345 H333 0.950 . S
C345 C341 1.393 . S
C345 C344 1.391 . S
C346 H336 0.950 . S
C346 C347 1.386 . S
C346 C348 1.391 . S
C347 C346 1.386 . S
C347 C351 1.393 . S
C348 H337 0.950 . S
C348 C346 1.391 . S
C348 C349 1.400 . S
C349 C343 1.491 . S
C349 C348 1.400 . S
C349 C350 1.398 . S
C350 H338 0.950 . S
C350 C349 1.398 . S
C350 C351 1.391 . S
C351 H339 0.950 . S
C351 C347 1.393 . S
C351 C350 1.391 . S
H352 C360 0.950 . S
H353 C365 0.950 . S
H354 C362 0.950 . S
H355 C364 0.950 . S
H356 C366 0.950 . S
H357 C368 0.950 . S
H358 C370 0.950 . S
H359 C371 0.950 . S
C360 H352 0.950 . S
C360 C361 1.386 . S
C360 C362 1.391 . S
C361 C360 1.386 . S
C361 C365 1.393 . S
C362 H354 0.950 . S
C362 C360 1.391 . S
C362 C363 1.400 . S
C363 C362 1.400 . S
C363 C364 1.398 . S
C363 C369 1.491 . S
C364 H355 0.950 . S
C364 C363 1.398 . S
C364 C365 1.391 . S
C365 H353 0.950 . S
C365 C361 1.393 . S
C365 C364 1.391 . S
C366 H356 0.950 . S
C366 C367 1.386 . S
C366 C368 1.391 . S
C367 C366 1.386 . S
C367 C371 1.393 . S
C368 H357 0.950 . S
C368 C366 1.391 . S
C368 C369 1.400 . S
C369 C363 1.491 . S
C369 C368 1.400 . S
C369 C370 1.398 . S
C370 H358 0.950 . S
C370 C369 1.398 . S
C370 C371 1.391 . S
C371 H359 0.950 . S
C371 C367 1.393 . S
C371 C370 1.391 . S
H372 C380 0.950 . S
H373 C385 0.950 . S
H374 C382 0.950 . S
H375 C384 0.950 . S
H376 C386 0.950 . S
H377 C388 0.950 . S
H378 C390 0.950 . S
H379 C391 0.950 . S
C380 H372 0.950 . S
C380 C381 1.386 . S
C380 C382 1.391 . S
C381 C380 1.386 . S
C381 C385 1.393 . S
C382 H374 0.950 . S
C382 C380 1.391 . S
C382 C383 1.400 . S
C383 C382 1.400 . S
C383 C384 1.398 . S
C383 C389 1.491 . S
C384 H375 0.950 . S
C384 C383 1.398 . S
C384 C385 1.391 . S
C385 H373 0.950 . S
C385 C381 1.393 . S
C385 C384 1.391 . S
C386 H376 0.950 . S
C386 C387 1.386 . S
C386 C388 1.391 . S
C387 C386 1.386 . S
C387 C391 1.393 . S
C388 H377 0.950 . S
C388 C386 1.391 . S
C388 C389 1.400 . S
C389 C383 1.491 . S
C389 C388 1.400 . S
C389 C390 1.398 . S
C390 H378 0.950 . S
C390 C389 1.398 . S
C390 C391 1.391 . S
C391 H379 0.950 . S
C391 C387 1.393 . S
C391 C390 1.391 . S
H392 C400 0.950 . S
H393 C405 0.950 . S
H394 C402 0.950 . S
H395 C404 0.950 . S
H396 C406 0.950 . S
H397 C408 0.950 . S
H398 C410 0.950 . S
H399 C411 0.950 . S
C400 H392 0.950 . S
C400 C401 1.386 . S
C400 C402 1.391 . S
C401 C400 1.386 . S
C401 C405 1.393 . S
C402 H394 0.950 . S
C402 C400 1.391 . S
C402 C403 1.400 . S
C403 C402 1.400 . S
C403 C404 1.398 . S
C403 C409 1.491 . S
C404 H395 0.950 . S
C404 C403 1.398 . S
C404 C405 1.391 . S
C405 H393 0.950 . S
C405 C401 1.393 . S
C405 C404 1.391 . S
C406 H396 0.950 . S
C406 C407 1.386 . S
C406 C408 1.391 . S
C407 C406 1.386 . S
C407 C411 1.393 . S
C408 H397 0.950 . S
C408 C406 1.391 . S
C408 C409 1.400 . S
C409 C403 1.491 . S
C409 C408 1.400 . S
C409 C410 1.398 . S
C410 H398 0.950 . S
C410 C409 1.398 . S
C410 C411 1.391 . S
C411 H399 0.950 . S
C411 C407 1.393 . S
C411 C410 1.391 . S
H412 C420 0.950 . S
H413 C425 0.950 . S
H414 C422 0.950 . S
H415 C424 0.950 . S
H416 C426 0.957 . S
H417 C428 0.950 . S
H418 C430 0.950 . S
H419 C431 0.950 1_545 S
C420 H412 0.950 . S
C420 C421 1.386 . S
C420 C422 1.391 . S
C421 C420 1.386 . S
C421 C425 1.393 . S
C422 H414 0.950 . S
C422 C420 1.391 . S
C422 C423 1.400 . S
C423 C422 1.400 . S
C423 C424 1.398 . S
C423 C429 1.491 . S
C424 H415 0.950 . S
C424 C423 1.398 . S
C424 C425 1.391 . S
C425 H413 0.950 . S
C425 C421 1.393 . S
C425 C424 1.391 . S
C426 H416 0.957 . S
C426 C427 1.386 1_565 S
C426 C428 1.391 . S
C427 C426 1.386 1_545 S
C427 C431 1.393 1_545 S
C428 H417 0.950 . S
C428 C426 1.391 . S
C428 C429 1.400 . S
C429 C423 1.491 . S
C429 C428 1.400 . S
C429 C430 1.398 . S
C430 H418 0.950 . S
C430 C429 1.398 . S
C430 C431 1.391 . S
C431 H419 0.950 1_565 S
C431 C427 1.393 1_565 S
C431 C430 1.391 . S
H432 C440 0.950 . S
H433 C445 0.950 . S
H434 C442 0.950 . S
H435 C444 0.950 . S
H436 C446 0.960 . S
H437 C448 0.950 1_554 S
H438 C450 0.950 . S
H439 C451 0.950 . S
C440 H432 0.950 . S
C440 C441 1.386 . S
C440 C442 1.391 . S
C441 C440 1.386 . S
C441 C445 1.393 . S
C442 H434 0.950 . S
C442 C440 1.391 . S
C442 C443 1.400 . S
C443 C442 1.400 . S
C443 C444 1.398 . S
C443 C449 1.491 . S
C444 H435 0.950 . S
C444 C443 1.398 . S
C444 C445 1.391 . S
C445 H433 0.950 . S
C445 C441 1.393 . S
C445 C444 1.391 . S
C446 H436 0.960 . S
C446 C447 1.379 1_554 S
C446 C448 1.388 1_554 S
C447 C446 1.379 1_556 S
C447 C451 1.393 . S
C448 H437 0.950 1_556 S
C448 C446 1.388 1_556 S
C448 C449 1.400 . S
C449 C443 1.491 . S
C449 C448 1.400 . S
C449 C450 1.398 . S
C450 H438 0.950 . S
C450 C449 1.398 . S
C450 C451 1.391 . S
C451 H439 0.950 . S
C451 C447 1.393 . S
C451 C450 1.391 . S
H452 C460 0.950 . S
H453 C465 0.950 . S
H454 C462 0.950 . S
H455 C464 0.950 . S
H456 C466 0.950 . S
H457 C468 0.950 . S
H458 C470 0.950 . S
H459 C471 0.950 . S
C460 H452 0.950 . S
C460 C461 1.386 . S
C460 C462 1.391 . S
C461 C460 1.386 . S
C461 C465 1.393 . S
C462 H454 0.950 . S
C462 C460 1.391 . S
C462 C463 1.400 . S
C463 C462 1.400 . S
C463 C464 1.398 . S
C463 C469 1.491 . S
C464 H455 0.950 . S
C464 C463 1.398 . S
C464 C465 1.391 . S
C465 H453 0.950 . S
C465 C461 1.393 . S
C465 C464 1.391 . S
C466 H456 0.950 . S
C466 C467 1.386 . S
C466 C468 1.391 . S
C467 C466 1.386 . S
C467 C471 1.393 . S
C468 H457 0.950 . S
C468 C466 1.391 . S
C468 C469 1.400 . S
C469 C463 1.491 . S
C469 C468 1.400 . S
C469 C470 1.398 . S
C470 H458 0.950 . S
C470 C469 1.398 . S
C470 C471 1.391 . S
C471 H459 0.950 . S
C471 C467 1.393 . S
C471 C470 1.391 . S
H472 C480 0.950 . S
H473 C485 0.950 . S
H474 C482 0.950 . S
H475 C484 0.950 . S
H476 C486 0.950 . S
H477 C488 0.950 . S
H478 C490 0.950 . S
H479 C491 0.950 . S
C480 H472 0.950 . S
C480 C481 1.386 . S
C480 C482 1.391 . S
C481 C480 1.386 . S
C481 C485 1.393 . S
C482 H474 0.950 . S
C482 C480 1.391 . S
C482 C483 1.400 . S
C483 C482 1.400 . S
C483 C484 1.398 . S
C483 C489 1.491 . S
C484 H475 0.950 . S
C484 C483 1.398 . S
C484 C485 1.391 . S
C485 H473 0.950 . S
C485 C481 1.393 . S
C485 C484 1.391 . S
C486 H476 0.950 . S
C486 C487 1.386 . S
C486 C488 1.391 . S
C487 C486 1.386 . S
C487 C491 1.393 . S
C488 H477 0.950 . S
C488 C486 1.391 . S
C488 C489 1.400 . S
C489 C483 1.491 . S
C489 C488 1.400 . S
C489 C490 1.398 . S
C490 H478 0.950 . S
C490 C489 1.398 . S
C490 C491 1.391 . S
C491 H479 0.950 . S
C491 C487 1.393 . S
C491 C490 1.391 . S
H492 C500 0.950 . S
H493 C505 0.950 . S
H494 C502 0.950 . S
H495 C504 0.950 1_554 S
H496 C506 0.950 . S
H497 C508 0.950 . S
H498 C510 0.950 . S
H499 C511 0.950 . S
C500 H492 0.950 . S
C500 C501 1.386 . S
C500 C502 1.391 . S
C501 C500 1.386 . S
C501 C505 1.393 . S
C502 H494 0.950 . S
C502 C500 1.391 . S
C502 C503 1.400 . S
C503 C502 1.400 . S
C503 C504 1.398 . S
C503 C509 1.491 . S
C504 H495 0.950 1_556 S
C504 C503 1.398 . S
C504 C505 1.391 . S
C505 H493 0.950 . S
C505 C501 1.393 . S
C505 C504 1.391 . S
C506 H496 0.950 . S
C506 C507 1.386 . S
C506 C508 1.391 . S
C507 C506 1.386 . S
C507 C511 1.393 1_554 S
C508 H497 0.950 . S
C508 C506 1.391 . S
C508 C509 1.400 1_554 S
C509 C503 1.491 . S
C509 C508 1.400 1_556 S
C509 C510 1.398 . S
C510 H498 0.950 . S
C510 C509 1.398 . S
C510 C511 1.391 . S
C511 H499 0.950 . S
C511 C507 1.393 1_556 S
C511 C510 1.391 . S
H512 C520 0.950 . S
H513 C525 0.950 . S
H514 C522 0.950 . S
H515 C524 0.950 . S
H516 C526 0.950 . S
H517 C528 0.950 . S
H518 C530 0.950 . S
H519 C531 0.950 . S
C520 H512 0.950 . S
C520 C521 1.386 . S
C520 C522 1.391 . S
C521 C520 1.386 . S
C521 C525 1.393 . S
C522 H514 0.950 . S
C522 C520 1.391 . S
C522 C523 1.400 . S
C523 C522 1.400 . S
C523 C524 1.398 . S
C523 C529 1.491 . S
C524 H515 0.950 . S
C524 C523 1.398 . S
C524 C525 1.391 . S
C525 H513 0.950 . S
C525 C521 1.393 . S
C525 C524 1.391 . S
C526 H516 0.950 . S
C526 C527 1.386 . S
C526 C528 1.391 . S
C527 C526 1.386 . S
C527 C531 1.393 . S
C528 H517 0.950 . S
C528 C526 1.391 . S
C528 C529 1.400 . S
C529 C523 1.491 . S
C529 C528 1.400 . S
C529 C530 1.398 . S
C530 H518 0.950 . S
C530 C529 1.398 . S
C530 C531 1.391 . S
C531 H519 0.950 . S
C531 C527 1.393 . S
C531 C530 1.391 . S
H532 C540 0.950 . S
H533 C545 0.950 . S
H534 C542 0.950 . S
H535 C544 0.950 . S
H536 C546 0.950 . S
H537 C548 0.950 . S
H538 C550 0.950 . S
H539 C551 0.950 . S
C540 H532 0.950 . S
C540 C541 1.386 . S
C540 C542 1.391 . S
C541 C540 1.386 . S
C541 C545 1.393 . S
C542 H534 0.950 . S
C542 C540 1.391 . S
C542 C543 1.400 . S
C543 C542 1.400 . S
C543 C544 1.398 . S
C543 C549 1.491 . S
C544 H535 0.950 . S
C544 C543 1.398 . S
C544 C545 1.391 . S
C545 H533 0.950 . S
C545 C541 1.393 . S
C545 C544 1.391 . S
C546 H536 0.950 . S
C546 C547 1.386 . S
C546 C548 1.391 . S
C547 C546 1.386 . S
C547 C551 1.393 . S
C548 H537 0.950 . S
C548 C546 1.391 . S
C548 C549 1.400 . S
C549 C543 1.491 . S
C549 C548 1.400 . S
C549 C550 1.398 . S
C550 H538 0.950 . S
C550 C549 1.398 . S
C550 C551 1.391 . S
C551 H539 0.950 . S
C551 C547 1.393 . S
C551 C550 1.391 . S
H552 C560 0.950 . S
H553 C565 0.950 . S
H554 C562 0.950 . S
H555 C564 0.950 . S
H556 C566 0.950 . S
H557 C568 0.950 . S
H558 C570 0.950 . S
H559 C571 0.950 . S
C560 H552 0.950 . S
C560 C561 1.386 . S
C560 C562 1.391 . S
C561 C560 1.386 . S
C561 C565 1.393 . S
C562 H554 0.950 . S
C562 C560 1.391 . S
C562 C563 1.400 . S
C563 C562 1.400 . S
C563 C564 1.398 . S
C563 C569 1.491 . S
C564 H555 0.950 . S
C564 C563 1.398 . S
C564 C565 1.391 . S
C565 H553 0.950 . S
C565 C561 1.393 . S
C565 C564 1.391 . S
C566 H556 0.950 . S
C566 C567 1.386 . S
C566 C568 1.391 . S
C567 C566 1.386 . S
C567 C571 1.393 . S
C568 H557 0.950 . S
C568 C566 1.391 . S
C568 C569 1.400 . S
C569 C563 1.491 . S
C569 C568 1.400 . S
C569 C570 1.398 . S
C570 H558 0.950 . S
C570 C569 1.398 . S
C570 C571 1.391 . S
C571 H559 0.950 . S
C571 C567 1.393 . S
C571 C570 1.391 . S
H572 C580 0.950 . S
H573 C585 0.950 . S
H574 C582 0.950 . S
H575 C584 0.950 . S
H576 C586 0.950 . S
H577 C588 0.950 . S
H578 C590 0.950 . S
H579 C591 0.950 . S
C580 H572 0.950 . S
C580 C581 1.386 . S
C580 C582 1.391 . S
C581 C580 1.386 . S
C581 C585 1.393 . S
C582 H574 0.950 . S
C582 C580 1.391 . S
C582 C583 1.400 . S
C583 C582 1.400 . S
C583 C584 1.398 . S
C583 C589 1.491 . S
C584 H575 0.950 . S
C584 C583 1.398 . S
C584 C585 1.391 . S
C585 H573 0.950 . S
C585 C581 1.393 . S
C585 C584 1.391 . S
C586 H576 0.950 . S
C586 C587 1.386 . S
C586 C588 1.391 . S
C587 C586 1.386 . S
C587 C591 1.393 . S
C588 H577 0.950 . S
C588 C586 1.391 . S
C588 C589 1.400 . S
C589 C583 1.491 . S
C589 C588 1.400 . S
C589 C590 1.398 . S
C590 H578 0.950 . S
C590 C589 1.398 . S
C590 C591 1.391 . S
C591 H579 0.950 . S
C591 C587 1.393 . S
C591 C590 1.391 . S
H592 C600 0.950 . S
H593 C605 0.950 . S
H594 C602 0.950 . S
H595 C604 0.950 . S
H596 C606 0.950 . S
H597 C608 0.950 . S
H598 C610 0.950 . S
H599 C611 0.950 . S
C600 H592 0.950 . S
C600 C601 1.386 . S
C600 C602 1.391 . S
C601 C600 1.386 . S
C601 C605 1.393 . S
C602 H594 0.950 . S
C602 C600 1.391 . S
C602 C603 1.400 . S
C603 C602 1.400 . S
C603 C604 1.398 . S
C603 C609 1.491 . S
C604 H595 0.950 . S
C604 C603 1.398 . S
C604 C605 1.391 . S
C605 H593 0.950 . S
C605 C601 1.393 . S
C605 C604 1.391 . S
C606 H596 0.950 . S
C606 C607 1.386 . S
C606 C608 1.391 . S
C607 C606 1.386 . S
C607 C611 1.393 . S
C608 H597 0.950 . S
C608 C606 1.391 . S
C608 C609 1.400 . S
C609 C603 1.491 . S
C609 C608 1.400 . S
C609 C610 1.398 . S
C610 H598 0.950 . S
C610 C609 1.398 . S
C610 C611 1.391 . S
C611 H599 0.950 . S
C611 C607 1.393 . S
C611 C610 1.391 . S
H612 C620 0.950 . S
H613 C625 0.950 . S
H614 C622 0.950 . S
H615 C624 0.950 . S
H616 C626 0.950 . S
H617 C628 0.950 . S
H618 C630 0.950 . S
H619 C631 0.950 . S
C620 H612 0.950 . S
C620 C621 1.386 . S
C620 C622 1.391 . S
C621 C620 1.386 . S
C621 C625 1.393 . S
C622 H614 0.950 . S
C622 C620 1.391 . S
C622 C623 1.400 . S
C623 C622 1.400 . S
C623 C624 1.398 . S
C623 C629 1.491 . S
C624 H615 0.950 . S
C624 C623 1.398 . S
C624 C625 1.391 . S
C625 H613 0.950 . S
C625 C621 1.393 . S
C625 C624 1.391 . S
C626 H616 0.950 . S
C626 C627 1.386 . S
C626 C628 1.391 . S
C627 C626 1.386 . S
C627 C631 1.393 . S
C628 H617 0.950 . S
C628 C626 1.391 . S
C628 C629 1.400 . S
C629 C623 1.491 . S
C629 C628 1.400 . S
C629 C630 1.398 . S
C630 H618 0.950 . S
C630 C629 1.398 . S
C630 C631 1.391 . S
C631 H619 0.950 . S
C631 C627 1.393 . S
C631 C630 1.391 . S
H632 C640 0.950 . S
H633 C645 0.950 . S
H634 C642 0.950 . S
H635 C644 0.950 . S
H636 C646 0.950 . S
H637 C648 0.950 . S
H638 C650 0.950 1_554 S
H639 C651 0.950 . S
C640 H632 0.950 . S
C640 C641 1.386 . S
C640 C642 1.391 . S
C641 C640 1.386 . S
C641 C645 1.393 . S
C642 H634 0.950 . S
C642 C640 1.391 . S
C642 C643 1.400 . S
C643 C642 1.400 . S
C643 C644 1.398 . S
C643 C649 1.491 . S
C644 H635 0.950 . S
C644 C643 1.398 . S
C644 C645 1.391 . S
C645 H633 0.950 . S
C645 C641 1.393 . S
C645 C644 1.391 . S
C646 H636 0.950 . S
C646 C647 1.386 1_556 S
C646 C648 1.391 . S
C647 C646 1.386 1_554 S
C647 C651 1.393 . S
C648 H637 0.950 . S
C648 C646 1.391 . S
C648 C649 1.400 . S
C649 C643 1.491 . S
C649 C648 1.400 . S
C649 C650 1.398 . S
C650 H638 0.950 1_556 S
C650 C649 1.398 . S
C650 C651 1.391 1_556 S
C651 H639 0.950 . S
C651 C647 1.393 . S
C651 C650 1.391 1_554 S
H652 C660 0.950 . S
H653 C665 0.950 . S
H654 C662 0.950 . S
H655 C664 0.950 . S
H656 C666 0.950 . S
H657 C668 0.950 . S
H658 C670 0.950 . S
H659 C671 0.950 . S
C660 H652 0.950 . S
C660 C661 1.386 . S
C660 C662 1.391 . S
C661 C660 1.386 . S
C661 C665 1.393 . S
C662 H654 0.950 . S
C662 C660 1.391 . S
C662 C663 1.400 . S
C663 C662 1.400 . S
C663 C664 1.398 . S
C663 C669 1.491 . S
C664 H655 0.950 . S
C664 C663 1.398 . S
C664 C665 1.391 . S
C665 H653 0.950 . S
C665 C661 1.393 . S
C665 C664 1.391 . S
C666 H656 0.950 . S
C666 C667 1.386 . S
C666 C668 1.391 . S
C667 C666 1.386 . S
C667 C671 1.393 . S
C668 H657 0.950 . S
C668 C666 1.391 . S
C668 C669 1.400 . S
C669 C663 1.491 . S
C669 C668 1.400 . S
C669 C670 1.398 . S
C670 H658 0.950 . S
C670 C669 1.398 . S
C670 C671 1.391 . S
C671 H659 0.950 . S
C671 C667 1.393 . S
C671 C670 1.391 . S
H672 C680 0.950 . S
H673 C685 0.950 . S
H674 C682 0.950 . S
H675 C684 0.950 . S
H676 C686 0.950 . S
H677 C688 0.950 . S
H678 C690 0.950 . S
H679 C691 0.950 . S
C680 H672 0.950 . S
C680 C681 1.386 . S
C680 C682 1.391 . S
C681 C680 1.386 . S
C681 C685 1.393 . S
C682 H674 0.950 . S
C682 C680 1.391 . S
C682 C683 1.400 . S
C683 C682 1.400 . S
C683 C684 1.398 . S
C683 C689 1.491 . S
C684 H675 0.950 . S
C684 C683 1.398 . S
C684 C685 1.391 . S
C685 H673 0.950 . S
C685 C681 1.393 . S
C685 C684 1.391 . S
C686 H676 0.950 . S
C686 C687 1.386 . S
C686 C688 1.391 . S
C687 C686 1.386 . S
C687 C691 1.393 . S
C688 H677 0.950 . S
C688 C686 1.391 . S
C688 C689 1.400 . S
C689 C683 1.491 . S
C689 C688 1.400 . S
C689 C690 1.398 . S
C690 H678 0.950 . S
C690 C689 1.398 . S
C690 C691 1.391 . S
C691 H679 0.950 . S
C691 C687 1.393 . S
C691 C690 1.391 . S
H692 C700 0.950 . S
H693 C705 0.950 . S
H694 C702 0.950 . S
H695 C704 0.950 . S
H696 C706 0.950 . S
H697 C708 0.950 . S
H698 C710 0.950 . S
H699 C711 0.950 . S
C700 H692 0.950 . S
C700 C701 1.386 . S
C700 C702 1.391 . S
C701 C700 1.386 . S
C701 C705 1.393 . S
C702 H694 0.950 . S
C702 C700 1.391 . S
C702 C703 1.400 . S
C703 C702 1.400 . S
C703 C704 1.398 . S
C703 C709 1.491 . S
C704 H695 0.950 . S
C704 C703 1.398 . S
C704 C705 1.391 . S
C705 H693 0.950 . S
C705 C701 1.393 . S
C705 C704 1.391 . S
C706 H696 0.950 . S
C706 C707 1.386 . S
C706 C708 1.391 . S
C707 C706 1.386 . S
C707 C711 1.393 . S
C708 H697 0.950 . S
C708 C706 1.391 . S
C708 C709 1.400 . S
C709 C703 1.491 . S
C709 C708 1.400 . S
C709 C710 1.398 . S
C710 H698 0.950 . S
C710 C709 1.398 . S
C710 C711 1.391 . S
C711 H699 0.950 . S
C711 C707 1.393 . S
C711 C710 1.391 . S
H712 C720 0.950 . S
H713 C725 0.950 . S
H714 C722 0.950 . S
H715 C724 0.950 . S
H716 C726 0.950 . S
H717 C728 0.950 . S
H718 C730 0.950 . S
H719 C731 0.950 . S
C720 H712 0.950 . S
C720 C721 1.386 . S
C720 C722 1.391 . S
C721 C720 1.386 . S
C721 C725 1.393 . S
C722 H714 0.950 . S
C722 C720 1.391 . S
C722 C723 1.400 . S
C723 C722 1.400 . S
C723 C724 1.398 . S
C723 C729 1.491 . S
C724 H715 0.950 . S
C724 C723 1.398 . S
C724 C725 1.391 . S
C725 H713 0.950 . S
C725 C721 1.393 . S
C725 C724 1.391 . S
C726 H716 0.950 . S
C726 C727 1.386 . S
C726 C728 1.391 . S
C727 C726 1.386 . S
C727 C731 1.393 . S
C728 H717 0.950 . S
C728 C726 1.391 . S
C728 C729 1.400 . S
C729 C723 1.491 . S
C729 C728 1.400 . S
C729 C730 1.398 . S
C730 H718 0.950 . S
C730 C729 1.398 . S
C730 C731 1.391 . S
C731 H719 0.950 . S
C731 C727 1.393 . S
C731 C730 1.391 . S
H732 C740 0.950 . S
H733 C745 0.950 . S
H734 C742 0.950 . S
H735 C744 0.950 . S
H736 C746 0.950 . S
H737 C748 0.950 . S
H738 C750 0.950 . S
H739 C751 0.950 . S
C740 H732 0.950 . S
C740 C741 1.386 . S
C740 C742 1.391 . S
C741 C740 1.386 . S
C741 C745 1.393 . S
C742 H734 0.950 . S
C742 C740 1.391 . S
C742 C743 1.400 . S
C743 C742 1.400 . S
C743 C744 1.398 . S
C743 C749 1.491 . S
C744 H735 0.950 . S
C744 C743 1.398 . S
C744 C745 1.391 . S
C745 H733 0.950 . S
C745 C741 1.393 . S
C745 C744 1.391 . S
C746 H736 0.950 . S
C746 C747 1.386 . S
C746 C748 1.391 . S
C747 C746 1.386 . S
C747 C751 1.393 . S
C748 H737 0.950 . S
C748 C746 1.391 . S
C748 C749 1.400 . S
C749 C743 1.491 . S
C749 C748 1.400 . S
C749 C750 1.398 . S
C750 H738 0.950 . S
C750 C749 1.398 . S
C750 C751 1.391 . S
C751 H739 0.950 . S
C751 C747 1.393 . S
C751 C750 1.391 . S
H752 C760 0.950 . S
H753 C765 0.950 . S
H754 C762 0.950 . S
H755 C764 0.950 . S
H756 C766 0.950 . S
H757 C768 0.950 . S
H758 C770 0.950 . S
H759 C771 0.950 . S
C760 H752 0.950 . S
C760 C761 1.386 . S
C760 C762 1.391 . S
C761 C760 1.386 . S
C761 C765 1.393 . S
C762 H754 0.950 . S
C762 C760 1.391 . S
C762 C763 1.400 . S
C763 C762 1.400 . S
C763 C764 1.398 . S
C763 C769 1.491 . S
C764 H755 0.950 . S
C764 C763 1.398 . S
C764 C765 1.391 . S
C765 H753 0.950 . S
C765 C761 1.393 . S
C765 C764 1.391 . S
C766 H756 0.950 . S
C766 C767 1.386 . S
C766 C768 1.391 . S
C767 C766 1.386 . S
C767 C771 1.393 . S
C768 H757 0.950 . S
C768 C766 1.391 . S
C768 C769 1.400 . S
C769 C763 1.491 . S
C769 C768 1.400 . S
C769 C770 1.398 . S
C770 H758 0.950 . S
C770 C769 1.398 . S
C770 C771 1.391 . S
C771 H759 0.950 . S
C771 C767 1.393 . S
C771 C770 1.391 . S
H772 C780 0.950 . S
H773 C785 0.950 . S
H774 C782 0.950 . S
H775 C784 0.950 . S
H776 C786 0.950 . S
H777 C788 0.950 . S
H778 C790 0.950 . S
H779 C791 0.950 . S
C780 H772 0.950 . S
C780 C781 1.386 . S
C780 C782 1.391 . S
C781 C780 1.386 . S
C781 C785 1.393 . S
C782 H774 0.950 . S
C782 C780 1.391 . S
C782 C783 1.400 . S
C783 C782 1.400 . S
C783 C784 1.398 . S
C783 C789 1.491 . S
C784 H775 0.950 . S
C784 C783 1.398 . S
C784 C785 1.391 . S
C785 H773 0.950 . S
C785 C781 1.393 . S
C785 C784 1.391 . S
C786 H776 0.950 . S
C786 C787 1.386 . S
C786 C788 1.391 . S
C787 C786 1.386 . S
C787 C791 1.393 . S
C788 H777 0.950 . S
C788 C786 1.391 . S
C788 C789 1.400 . S
C789 C783 1.491 . S
C789 C788 1.400 . S
C789 C790 1.398 . S
C790 H778 0.950 . S
C790 C789 1.398 . S
C790 C791 1.391 . S
C791 H779 0.950 . S
C791 C787 1.393 . S
C791 C790 1.391 . S
C321 C6 1.187 . S
C327 C159 1.219 . S
C341 C21 1.476 . S
C347 C208 1.496 . S
C367 C234 1.849 . S
C361 C49 1.807 . S
C381 C68 2.051 . S
C387 C282 2.121 1_655 S
C407 C194 3.019 . S
C401 C2 2.914 . S
C427 C162 0.392 . S
C421 C30 0.482 . S
C447 C283 1.871 . S
C441 C40 1.920 . S
C467 C251 1.496 . S
C461 C63 1.505 . S
C481 C11 1.411 . S
C487 C279 1.572 . S
C507 C211 2.601 . S
C501 C44 2.678 . S
C521 C59 1.956 . S
C527 C163 1.959 . S
C541 C25 1.248 . S
C547 C248 1.241 . S
C567 C168 1.460 . S
C561 C82 1.445 . S
C581 C101 1.236 . S
C587 C199 1.243 . S
C601 C125 2.257 . S
C607 C243 2.358 . S
C621 C144 1.807 . S
C627 C291 1.890 . S
C641 C87 1.907 . S
C647 C203 2.036 . S
C667 C171 1.793 . S
C661 C97 1.819 . S
C687 C274 1.654 . S
C681 C120 1.720 . S
C707 C242 1.528 . S
C701 C135 1.603 . S
C721 C78 1.932 . S
C727 C288 2.038 . S
C747 C202 1.883 . S
C741 C116 1.930 . S
C767 C154 2.636 . S
C761 C139 2.644 . S
C781 C106 0.840 . S
C787 C239 0.929 . S
