# Generated by pormake.
# Topology dag, (6,3)-cn, num edge types: 1
# Building blocks:
#     Node 0, Type 0, BuildingBlock: IZENUY_clean_sbu_0, # of connection points: 6
#     Node 1, Type 0, BuildingBlock: IZENUY_clean_sbu_0, # of connection points: 6
#     Node 2, Type 0, BuildingBlock: IZENUY_clean_sbu_0, # of connection points: 6
#     Node 3, Type 0, BuildingBlock: IZENUY_clean_sbu_0, # of connection points: 6
#     Node 4, Type 1, BuildingBlock: BETDIP_clean_linker_0, # of connection points: 3
#     Node 5, Type 1, BuildingBlock: BETDIP_clean_linker_0, # of connection points: 3
#     Node 6, Type 1, BuildingBlock: BETDIP_clean_linker_0, # of connection points: 3
#     Node 7, Type 1, BuildingBlock: BETDIP_clean_linker_0, # of connection points: 3
#     Node 8, Type 1, BuildingBlock: BETDIP_clean_linker_0, # of connection points: 3
#     Node 9, Type 1, BuildingBlock: BETDIP_clean_linker_0, # of connection points: 3
#     Node 10, Type 1, BuildingBlock: BETDIP_clean_linker_0, # of connection points: 3
#     Node 11, Type 1, BuildingBlock: BETDIP_clean_linker_0, # of connection points: 3
#     Edge 12, Type (0, 1), BuildingBlock: XIVTED_clean_linker_0, # of connection points: 2
#     Edge 13, Type (0, 1), BuildingBlock: XIVTED_clean_linker_0, # of connection points: 2
#     Edge 14, Type (0, 1), BuildingBlock: XIVTED_clean_linker_0, # of connection points: 2
#     Edge 15, Type (0, 1), BuildingBlock: XIVTED_clean_linker_0, # of connection points: 2
#     Edge 16, Type (0, 1), BuildingBlock: XIVTED_clean_linker_0, # of connection points: 2
#     Edge 17, Type (0, 1), BuildingBlock: XIVTED_clean_linker_0, # of connection points: 2
#     Edge 18, Type (0, 1), BuildingBlock: XIVTED_clean_linker_0, # of connection points: 2
#     Edge 19, Type (0, 1), BuildingBlock: XIVTED_clean_linker_0, # of connection points: 2
#     Edge 20, Type (0, 1), BuildingBlock: XIVTED_clean_linker_0, # of connection points: 2
#     Edge 21, Type (0, 1), BuildingBlock: XIVTED_clean_linker_0, # of connection points: 2
#     Edge 22, Type (0, 1), BuildingBlock: XIVTED_clean_linker_0, # of connection points: 2
#     Edge 23, Type (0, 1), BuildingBlock: XIVTED_clean_linker_0, # of connection points: 2
#     Edge 24, Type (0, 1), BuildingBlock: XIVTED_clean_linker_0, # of connection points: 2
#     Edge 25, Type (0, 1), BuildingBlock: XIVTED_clean_linker_0, # of connection points: 2
#     Edge 26, Type (0, 1), BuildingBlock: XIVTED_clean_linker_0, # of connection points: 2
#     Edge 27, Type (0, 1), BuildingBlock: XIVTED_clean_linker_0, # of connection points: 2
#     Edge 28, Type (0, 1), BuildingBlock: XIVTED_clean_linker_0, # of connection points: 2
#     Edge 29, Type (0, 1), BuildingBlock: XIVTED_clean_linker_0, # of connection points: 2
#     Edge 30, Type (0, 1), BuildingBlock: XIVTED_clean_linker_0, # of connection points: 2
#     Edge 31, Type (0, 1), BuildingBlock: XIVTED_clean_linker_0, # of connection points: 2
#     Edge 32, Type (0, 1), BuildingBlock: XIVTED_clean_linker_0, # of connection points: 2
#     Edge 33, Type (0, 1), BuildingBlock: XIVTED_clean_linker_0, # of connection points: 2
#     Edge 34, Type (0, 1), BuildingBlock: XIVTED_clean_linker_0, # of connection points: 2
#     Edge 35, Type (0, 1), BuildingBlock: XIVTED_clean_linker_0, # of connection points: 2
# Relax obj value: 0.090
# Max RMSD: 0.102
# Mean RMSD: 0.085
data_MOF--net-dag--node1-IZENUY_clean_sbu_0--node2-BETDIP_clean_linker_0--edge1-XIVTED_clean_linker_0
_symmetry_space_group_name_H-M    P1
_symmetry_Int_Tables_number       1
_symmetry_cell_setting            triclinic
loop_
_symmetry_equiv_pos_as_xyz
'x, y, z'
_cell_length_a     40.523129
_cell_length_b     39.748691
_cell_length_c     36.00567
_cell_angle_alpha  85.952915
_cell_angle_beta   89.872721
_cell_angle_gamma 90.077113
loop_
_atom_site_label
_atom_site_type_symbol
_atom_site_fract_x
_atom_site_fract_y
_atom_site_fract_z
_atom_type_partial_charge
Fe0 Fe 0.1925 0.86463 0.98639 0.0
Fe1 Fe 0.12447 0.88138 0.01703 0.0
O2 O 0.1527 0.85139 0.00213 0.0
Fe3 Fe 0.14062 0.80835 0.00294 0.0
O4 O 0.1738 0.79594 0.03426 0.0
O5 O 0.21322 0.8258 0.00509 0.0
O6 O 0.20248 0.88242 0.03008 0.0
C7 C 0.18492 0.90384 0.04491 0.0
C8 C 0.17811 0.81815 0.93616 0.0
O9 O 0.15566 0.90949 0.03436 0.0
C10 C 0.08422 0.83901 0.9772 0.0
O11 O 0.17834 0.90574 0.96486 0.0
O12 O 0.12436 0.90348 0.97161 0.0
O13 O 0.16537 0.79893 0.96194 0.0
O14 O 0.18581 0.84809 0.9416 0.0
C15 C 0.11423 0.83051 0.07015 0.0
O16 O 0.08762 0.85923 0.00246 0.0
O17 O 0.10651 0.81798 0.9712 0.0
C18 C 0.14958 0.91514 0.9547 0.0
O19 O 0.12329 0.86062 0.06317 0.0
O20 O 0.11383 0.81003 0.04459 0.0
C21 C 0.20396 0.80254 0.02885 0.0
Fe22 Fe 0.6829 0.63905 0.55546 0.0
Fe23 Fe 0.63328 0.69431 0.52879 0.0
O24 O 0.64338 0.65118 0.53864 0.0
Fe25 Fe 0.6135 0.61998 0.53182 0.0
O26 O 0.6137 0.60634 0.5807 0.0
O27 O 0.66771 0.60246 0.58534 0.0
O28 O 0.67807 0.66352 0.59556 0.0
C29 C 0.67237 0.6947 0.59411 0.0
C30 C 0.67242 0.5891 0.50924 0.0
O31 O 0.6599 0.70979 0.56532 0.0
C32 C 0.60427 0.66155 0.46951 0.0
O33 O 0.70471 0.67357 0.52875 0.0
O34 O 0.66599 0.69955 0.49471 0.0
O35 O 0.64309 0.58722 0.52115 0.0
O36 O 0.69065 0.61343 0.51645 0.0
C37 C 0.5766 0.67083 0.56238 0.0
O38 O 0.60525 0.68636 0.48989 0.0
O39 O 0.61194 0.63231 0.48257 0.0
C40 C 0.69601 0.69305 0.50104 0.0
O41 O 0.59984 0.6919 0.56279 0.0
O42 O 0.57814 0.64645 0.54176 0.0
C43 C 0.63901 0.59592 0.59823 0.0
Fe44 Fe 0.85179 0.1898 0.04064 0.0
Fe45 Fe 0.86504 0.11568 0.0272 0.0
O46 O 0.83859 0.14709 0.04251 0.0
Fe47 Fe 0.7988 0.13543 0.05966 0.0
O48 O 0.77939 0.16218 0.02326 0.0
O49 O 0.81057 0.20691 0.0296 0.0
O50 O 0.85925 0.1913 0.99072 0.0
C51 C 0.87694 0.17058 0.97484 0.0
C52 C 0.8189 0.18529 0.10727 0.0
O53 O 0.88562 0.14304 0.99152 0.0
C54 C 0.83474 0.08324 0.09097 0.0
O55 O 0.89524 0.17967 0.05124 0.0
O56 O 0.89557 0.12441 0.0618 0.0
O57 O 0.79653 0.16841 0.09263 0.0
O58 O 0.84559 0.19194 0.0903 0.0
C59 C 0.80725 0.09436 -0.00094 0.0
O60 O 0.84942 0.08217 0.06005 0.0
O61 O 0.81611 0.10767 0.09719 0.0
C62 C 0.90842 0.1529 0.0656 0.0
O63 O 0.83593 0.1052 0.99167 0.0
O64 O 0.79355 0.10018 0.02962 0.0
C65 C 0.78546 0.19312 0.01609 0.0
Fe66 Fe 0.3756 0.37604 0.50405 0.0
Fe67 Fe 0.3053 0.3606 0.47982 0.0
O68 O 0.34525 0.34635 0.49377 0.0
Fe69 Fe 0.35483 0.30269 0.49725 0.0
O70 O 0.36549 0.30307 0.54619 0.0
O71 O 0.39633 0.34864 0.53962 0.0
O72 O 0.35069 0.39091 0.54113 0.0
C73 C 0.32225 0.40323 0.53664 0.0
C74 C 0.41235 0.3332 0.46485 0.0
O75 O 0.30558 0.39779 0.50788 0.0
C76 C 0.3178 0.3073 0.43367 0.0
O77 O 0.36063 0.409 0.47025 0.0
O78 O 0.3218 0.38469 0.43912 0.0
O79 O 0.39832 0.30836 0.48251 0.0
O80 O 0.40212 0.36282 0.46757 0.0
C81 C 0.29058 0.30621 0.52784 0.0
O82 O 0.29771 0.32612 0.44946 0.0
O83 O 0.34497 0.29917 0.44867 0.0
C84 C 0.34443 0.40636 0.44061 0.0
O85 O 0.2867 0.33732 0.51949 0.0
O86 O 0.31314 0.28967 0.51276 0.0
C87 C 0.3861 0.32295 0.55893 0.0
H88 H 0.14664 0.19468 0.18075 0.0
H89 H 0.23237 0.13016 0.18432 0.0
H90 H 0.14014 0.0938 0.14541 0.0
H91 H 0.26001 0.17609 0.19688 0.0
C92 C 0.24277 0.19251 0.2099 0.0
C93 C 0.15818 0.17088 0.17551 0.0
C94 C 0.1392 0.1448 0.16212 0.0
C95 C 0.19178 0.16611 0.18369 0.0
C96 C 0.20672 0.13489 0.17766 0.0
C97 C 0.1879 0.10879 0.16419 0.0
C98 C 0.15438 0.11394 0.15645 0.0
N99 N 0.20873 0.19237 0.20056 0.0
H100 H 0.26365 0.62455 0.68341 0.0
H101 H 0.33951 0.69948 0.69502 0.0
H102 H 0.36327 0.60531 0.65018 0.0
H103 H 0.29527 0.73466 0.69843 0.0
C104 C 0.27783 0.71889 0.71467 0.0
C105 C 0.28902 0.63283 0.67977 0.0
C106 C 0.31244 0.61123 0.66557 0.0
C107 C 0.29837 0.66477 0.69042 0.0
C108 C 0.33156 0.67533 0.68613 0.0
C109 C 0.35512 0.65374 0.67195 0.0
C110 C 0.34527 0.62187 0.66175 0.0
N111 N 0.27437 0.68428 0.70804 0.0
H112 H 0.94394 0.80512 0.3054 0.0
H113 H 0.86498 0.87798 0.2965 0.0
H114 H 0.94534 0.88521 0.21876 0.0
H115 H 0.85954 0.86372 0.35775 0.0
C116 C 0.86317 0.8366 0.35908 0.0
C117 C 0.93292 0.82761 0.29194 0.0
C118 C 0.94828 0.84411 0.26082 0.0
C119 C 0.90344 0.8403 0.30599 0.0
C120 C 0.88869 0.86898 0.28757 0.0
C121 C 0.90353 0.88504 0.25588 0.0
C122 C 0.9336 0.8728 0.24316 0.0
N123 N 0.88811 0.82256 0.33711 0.0
H124 H 0.55909 0.29776 0.78517 0.0
H125 H 0.62683 0.38072 0.7928 0.0
H126 H 0.54137 0.39253 0.72336 0.0
H127 H 0.66289 0.33972 0.80539 0.0
C128 C 0.6493 0.32103 0.82278 0.0
C129 C 0.56621 0.32362 0.77751 0.0
C130 C 0.5462 0.34404 0.75347 0.0
C131 C 0.59565 0.33638 0.79147 0.0
C132 C 0.60482 0.37003 0.78142 0.0
C133 C 0.58539 0.39044 0.75685 0.0
C134 C 0.55599 0.37731 0.74333 0.0
N135 N 0.61536 0.31502 0.81576 0.0
H136 H 0.65601 0.29678 0.35386 0.0
H137 H 0.73886 0.36174 0.37332 0.0
H138 H 0.64333 0.38381 0.41663 0.0
H139 H 0.76504 0.33331 0.33215 0.0
C140 C 0.75123 0.31124 0.32525 0.0
C141 C 0.66626 0.31862 0.36613 0.0
C142 C 0.64565 0.33954 0.38557 0.0
C143 C 0.6998 0.3265 0.36088 0.0
C144 C 0.71305 0.35525 0.37638 0.0
C145 C 0.69266 0.37558 0.39694 0.0
C146 C 0.65912 0.36772 0.40116 0.0
N147 N 0.71879 0.3051 0.3392 0.0
H148 H 0.06314 0.2124 0.76376 0.0
H149 H 0.13664 0.13388 0.76626 0.0
H150 H 0.0456 0.11745 0.82545 0.0
H151 H 0.17095 0.17752 0.75618 0.0
C152 C 0.15762 0.19396 0.73606 0.0
C153 C 0.07122 0.1872 0.77298 0.0
C154 C 0.05031 0.16584 0.79506 0.0
C155 C 0.10264 0.17615 0.76279 0.0
C156 C 0.113 0.14331 0.77481 0.0
C157 C 0.09253 0.12198 0.79736 0.0
C158 C 0.06119 0.1334 0.80709 0.0
N159 N 0.12294 0.19808 0.73965 0.0
H160 H 0.4458 0.68139 0.22624 0.0
H161 H 0.37218 0.60314 0.22279 0.0
H162 H 0.45411 0.59057 0.29752 0.0
H163 H 0.36421 0.62563 0.16518 0.0
C164 C 0.36732 0.65257 0.16726 0.0
C165 C 0.4366 0.6566 0.23561 0.0
C166 C 0.45374 0.63692 0.26306 0.0
C167 C 0.40776 0.64421 0.21985 0.0
C168 C 0.3952 0.61246 0.23322 0.0
C169 C 0.41207 0.59272 0.26087 0.0
C170 C 0.44147 0.60508 0.27522 0.0
N171 N 0.39122 0.66479 0.19184 0.0
H172 H 0.76321 0.86798 0.85369 0.0
H173 H 0.85183 0.81079 0.83837 0.0
H174 H 0.8521 0.89301 0.91011 0.0
H175 H 0.82544 0.81771 0.77571 0.0
C176 C 0.80138 0.80807 0.78471 0.0
C177 C 0.78888 0.86285 0.86032 0.0
C178 C 0.80587 0.88323 0.88396 0.0
C179 C 0.80535 0.83678 0.84379 0.0
C180 C 0.83901 0.83078 0.85139 0.0
C181 C 0.85618 0.85111 0.87526 0.0
C182 C 0.83918 0.87697 0.89177 0.0
N183 N 0.78772 0.81768 0.81865 0.0
H184 H 0.16429 0.9097 0.11523 0.0
H185 H 0.23562 0.0939 0.11415 0.0
H186 H 0.23565 0.94887 0.03456 0.0
H187 H 0.17123 0.04851 0.19888 0.0
H188 H 0.24683 0.03771 0.09268 0.0
H189 H 0.17728 0.95558 0.15431 0.0
C190 C 0.18341 0.9276 0.10636 0.0
C191 C 0.19896 0.92576 0.07188 0.0
C192 C 0.23099 0.03991 0.11665 0.0
C193 C 0.21301 0.97924 0.1154 0.0
C194 C 0.2248 0.07191 0.12898 0.0
C195 C 0.20225 0.07558 0.15796 0.0
C196 C 0.21425 0.0117 0.13338 0.0
C197 C 0.18855 0.04656 0.17619 0.0
C198 C 0.19077 0.95391 0.12852 0.0
C199 C 0.22334 0.94955 0.06121 0.0
N200 N 0.19434 0.01591 0.16322 0.0
N201 N 0.22913 0.97587 0.08256 0.0
H202 H 0.54274 0.72814 0.57952 0.0
H203 H 0.40851 0.61803 0.69728 0.0
H204 H 0.54328 0.61978 0.59824 0.0
H205 H 0.38155 0.71093 0.63585 0.0
H206 H 0.46578 0.62712 0.67795 0.0
H207 H 0.49036 0.7296 0.61486 0.0
C208 C 0.53209 0.70482 0.59151 0.0
C209 C 0.54699 0.67375 0.58576 0.0
C210 C 0.44745 0.64583 0.66916 0.0
C211 C 0.48831 0.6753 0.62649 0.0
C212 C 0.41485 0.6407 0.68025 0.0
C213 C 0.39029 0.66344 0.66749 0.0
C214 C 0.45566 0.67385 0.64502 0.0
C215 C 0.39984 0.69272 0.64601 0.0
C216 C 0.50234 0.70566 0.61148 0.0
C217 C 0.53236 0.64421 0.60171 0.0
N218 N 0.43185 0.69688 0.63483 0.0
N219 N 0.50393 0.64573 0.62134 0.0
H220 H 0.84122 0.01874 0.07339 0.0
H221 H 0.877 0.94307 0.28107 0.0
H222 H 0.83277 0.07912 0.1679 0.0
H223 H 0.89219 0.89076 0.18153 0.0
H224 H 0.85356 0.99097 0.24271 0.0
H225 H 0.85178 0.9694 0.1151 0.0
C226 C 0.84143 0.02153 0.10311 0.0
C227 C 0.83662 0.05312 0.11724 0.0
C228 C 0.86182 0.96887 0.22941 0.0
C229 C 0.84924 0.9965 0.16551 0.0
C230 C 0.87508 0.94159 0.25123 0.0
C231 C 0.88695 0.91323 0.23427 0.0
C232 C 0.86022 0.96741 0.19056 0.0
C233 C 0.88391 0.91242 0.19561 0.0
C234 C 0.84748 0.99329 0.127 0.0
C235 C 0.83651 0.05515 0.156 0.0
N236 N 0.87101 0.93911 0.17515 0.0
N237 N 0.84326 0.0272 0.17892 0.0
H238 H 0.37703 0.35912 0.61843 0.0
H239 H 0.53975 0.28675 0.71598 0.0
H240 H 0.42855 0.27252 0.58244 0.0
H241 H 0.48482 0.37179 0.75097 0.0
H242 H 0.49351 0.27296 0.6758 0.0
H243 H 0.40964 0.35601 0.67548 0.0
C244 C 0.39479 0.33894 0.62316 0.0
C245 C 0.40027 0.31605 0.59608 0.0
C246 C 0.49128 0.2942 0.69289 0.0
C247 C 0.4386 0.31288 0.66045 0.0
C248 C 0.51756 0.30192 0.71597 0.0
C249 C 0.51617 0.33072 0.7363 0.0
C250 C 0.46359 0.31552 0.69023 0.0
C251 C 0.48701 0.34967 0.73523 0.0
C252 C 0.41352 0.33718 0.65559 0.0
C253 C 0.42363 0.29046 0.60303 0.0
N254 N 0.46209 0.34202 0.71216 0.0
N255 N 0.44246 0.2899 0.63435 0.0
H256 H 0.67273 0.52723 0.54436 0.0
H257 H 0.71446 0.43508 0.36264 0.0
H258 H 0.7047 0.58187 0.44304 0.0
H259 H 0.69712 0.38423 0.47052 0.0
H260 H 0.71999 0.48874 0.39222 0.0
H261 H 0.68984 0.47467 0.51932 0.0
C262 C 0.68377 0.52802 0.51686 0.0
C263 C 0.6871 0.55861 0.49547 0.0
C264 C 0.71589 0.46571 0.40952 0.0
C265 C 0.70615 0.49851 0.46608 0.0
C266 C 0.71299 0.43515 0.39268 0.0
C267 C 0.70525 0.4055 0.41434 0.0
C268 C 0.71069 0.46633 0.44811 0.0
C269 C 0.70304 0.40671 0.453 0.0
C270 C 0.69363 0.49805 0.50254 0.0
C271 C 0.70174 0.55857 0.46019 0.0
N272 N 0.70528 0.43669 0.46859 0.0
N273 N 0.71021 0.52878 0.44619 0.0
H274 H 0.87647 0.13267 0.91573 0.0
H275 H 0.03598 0.22223 0.8316 0.0
H276 H 0.91177 0.22736 0.95155 0.0
H277 H 0.99109 0.13442 0.7892 0.0
H278 H 0.98523 0.23194 0.86661 0.0
H279 H 0.91154 0.13996 0.86066 0.0
C280 C 0.89113 0.15545 0.91136 0.0
C281 C 0.8915 0.17939 0.93804 0.0
C282 C 0.98616 0.21105 0.8489 0.0
C283 C 0.93277 0.18741 0.87591 0.0
C284 C 0.01504 0.20564 0.82878 0.0
C285 C 0.01776 0.17719 0.80806 0.0
C286 C 0.96009 0.18769 0.84829 0.0
C287 C 0.99008 0.15634 0.8054 0.0
C288 C 0.91126 0.15962 0.88 0.0
C289 C 0.91086 0.20844 0.93137 0.0
N290 N 0.96263 0.16168 0.82577 0.0
N291 N 0.93139 0.21131 0.9013 0.0
H292 H 0.4048 0.42965 0.42072 0.0
H293 H 0.348 0.57746 0.28148 0.0
H294 H 0.30282 0.43546 0.38686 0.0
H295 H 0.44537 0.53396 0.27772 0.0
H296 H 0.32915 0.52718 0.3192 0.0
H297 H 0.41927 0.47003 0.36931 0.0
C298 C 0.38544 0.43943 0.40227 0.0
C299 C 0.35257 0.42947 0.40809 0.0
C300 C 0.35444 0.52846 0.30942 0.0
C301 C 0.36889 0.47608 0.34933 0.0
C302 C 0.3652 0.55704 0.2878 0.0
C303 C 0.39849 0.56017 0.27706 0.0
C304 C 0.37727 0.50324 0.32063 0.0
C305 C 0.41972 0.533 0.28622 0.0
C306 C 0.39374 0.46229 0.37277 0.0
C307 C 0.32846 0.44264 0.3832 0.0
N308 N 0.40891 0.506 0.30801 0.0
N309 N 0.33702 0.46586 0.35513 0.0
H310 H 0.04535 0.89311 0.9612 0.0
H311 H 0.891 0.79243 0.89215 0.0
H312 H 0.05207 0.7867 0.94568 0.0
H313 H 0.90306 0.90021 0.87413 0.0
H314 H 0.94917 0.78797 0.91149 0.0
H315 H 0.99213 0.89487 0.93022 0.0
C316 C 0.03555 0.87005 0.95116 0.0
C317 C 0.05295 0.83966 0.95628 0.0
C318 C 0.93908 0.81249 0.90283 0.0
C319 C 0.99167 0.8414 0.9208 0.0
C320 C 0.90599 0.81503 0.89174 0.0
C321 C 0.89205 0.84682 0.88228 0.0
C322 C 0.95807 0.84196 0.90455 0.0
C323 C 0.91253 0.8753 0.88218 0.0
C324 C 0.00521 0.8711 0.93325 0.0
C325 C 0.03931 0.81063 0.94227 0.0
N326 N 0.94429 0.87222 0.89356 0.0
N327 N 0.00913 0.81208 0.92554 0.0
H328 H 0.81933 0.08462 0.92592 0.0
H329 H 0.78603 0.8931 0.95459 0.0
H330 H 0.76568 0.04286 0.02213 0.0
H331 H 0.79375 0.94236 0.8445 0.0
H332 H 0.77429 0.94775 0.97936 0.0
H333 H 0.80653 0.03394 0.89392 0.0
C334 C 0.80426 0.06508 0.93998 0.0
C335 C 0.79389 0.06771 0.97683 0.0
C336 C 0.77757 0.94653 0.94962 0.0
C337 C 0.77978 0.0095 0.94081 0.0
C338 C 0.78417 0.9154 0.93559 0.0
C339 C 0.79061 0.91356 0.8976 0.0
C340 C 0.77856 0.97594 0.92555 0.0
C341 C 0.78861 0.943 0.87397 0.0
C342 C 0.79689 0.03621 0.92171 0.0
C343 C 0.77428 0.04178 0.99375 0.0
N344 N 0.78345 0.97321 0.88844 0.0
N345 N 0.76852 0.01335 0.97592 0.0
H346 H 0.43952 0.3759 0.411 0.0
H347 H 0.61382 0.28178 0.41253 0.0
H348 H 0.45655 0.28056 0.47289 0.0
H349 H 0.59625 0.38321 0.36648 0.0
H350 H 0.55429 0.27538 0.42505 0.0
H351 H 0.49446 0.37306 0.38418 0.0
C352 C 0.45479 0.35419 0.41875 0.0
C353 C 0.44369 0.32873 0.44476 0.0
C354 C 0.56347 0.29885 0.41178 0.0
C355 C 0.50699 0.32543 0.41431 0.0
C356 C 0.59731 0.30243 0.40452 0.0
C357 C 0.60978 0.3332 0.38891 0.0
C358 C 0.54221 0.32617 0.40299 0.0
C359 C 0.58757 0.35926 0.37906 0.0
C360 C 0.48621 0.35256 0.40339 0.0
C361 C 0.46429 0.30085 0.45315 0.0
N362 N 0.55494 0.35522 0.38647 0.0
N363 N 0.49523 0.30016 0.43837 0.0
H364 H 0.19473 0.96234 0.92671 0.0
H365 H 0.05834 0.06245 0.80214 0.0
H366 H 0.09366 0.93016 0.91548 0.0
H367 H 0.15301 0.10506 0.82729 0.0
H368 H 0.07502 0.00928 0.83465 0.0
H369 H 0.18377 0.0104 0.88175 0.0
C370 C 0.17039 0.96517 0.91451 0.0
C371 C 0.14494 0.94252 0.92523 0.0
C372 C 0.0923 0.03014 0.83283 0.0
C373 C 0.13233 0.9971 0.8739 0.0
C374 C 0.08275 0.06052 0.81432 0.0
C375 C 0.10413 0.08836 0.81248 0.0
C376 C 0.12345 0.02752 0.84981 0.0
C377 C 0.13575 0.08421 0.82806 0.0
C378 C 0.16414 0.99261 0.88897 0.0
C379 C 0.11389 0.9473 0.9085 0.0
N380 N 0.14435 0.05445 0.84646 0.0
N381 N 0.10845 0.97409 0.88387 0.0
H382 H 0.56529 0.71321 0.43966 0.0
H383 H 0.51401 0.60728 0.26884 0.0
H384 H 0.60877 0.61848 0.41409 0.0
H385 H 0.45999 0.69404 0.30064 0.0
H386 H 0.55757 0.61981 0.31256 0.0
H387 H 0.53481 0.71451 0.3808 0.0
C388 C 0.56882 0.69296 0.42143 0.0
C389 C 0.58912 0.66536 0.43211 0.0
C390 C 0.53654 0.63656 0.30957 0.0
C391 C 0.55451 0.66678 0.36485 0.0
C392 C 0.51182 0.6295 0.28445 0.0
C393 C 0.48338 0.64952 0.28151 0.0
C394 C 0.53255 0.66353 0.33237 0.0
C395 C 0.48163 0.67805 0.3022 0.0
C396 C 0.55139 0.69371 0.38789 0.0
C397 C 0.59292 0.63993 0.40733 0.0
N398 N 0.50562 0.68389 0.32737 0.0
N399 N 0.57555 0.64112 0.37509 0.0
H400 H 0.3436 0.41074 0.60714 0.0
H401 H 0.26585 0.59421 0.61509 0.0
H402 H 0.27646 0.45383 0.52402 0.0
H403 H 0.33959 0.55153 0.69045 0.0
H404 H 0.25987 0.53908 0.58877 0.0
H405 H 0.33263 0.45765 0.64521 0.0
C406 C 0.32623 0.42994 0.59707 0.0
C407 C 0.3114 0.42869 0.56205 0.0
C408 C 0.27689 0.54165 0.61154 0.0
C409 C 0.29899 0.48295 0.60539 0.0
C410 C 0.28013 0.57298 0.62665 0.0
C411 C 0.30349 0.57729 0.65459 0.0
C412 C 0.2971 0.51466 0.62469 0.0
C413 C 0.32159 0.54921 0.66859 0.0
C414 C 0.31996 0.45677 0.61885 0.0
C415 C 0.28866 0.45399 0.55072 0.0
N416 N 0.31826 0.51921 0.65325 0.0
N417 N 0.28356 0.48045 0.57207 0.0
H418 H 0.12433 0.85986 0.1351 0.0
H419 H 0.95695 0.78667 0.22473 0.0
H420 H 0.06676 0.78231 0.0876 0.0
H421 H 0.00836 0.87415 0.25895 0.0
H422 H 0.00415 0.77429 0.18487 0.0
H423 H 0.0899 0.8544 0.19074 0.0
C424 C 0.1047 0.84127 0.13665 0.0
C425 C 0.09795 0.822 0.10638 0.0
C426 C 0.00545 0.79569 0.20182 0.0
C427 C 0.05803 0.81594 0.16992 0.0
C428 C 0.97869 0.80256 0.22472 0.0
C429 C 0.97902 0.83142 0.24493 0.0
C430 C 0.0325 0.81794 0.1993 0.0
C431 C 0.00735 0.85164 0.2437 0.0
C432 C 0.08502 0.83818 0.16845 0.0
C433 C 0.07261 0.79788 0.11019 0.0
N434 N 0.03282 0.84472 0.22093 0.0
N435 N 0.0531 0.79598 0.14112 0.0
H436 H 0.58404 0.58591 0.64132 0.0
H437 H 0.64757 0.4102 0.73449 0.0
H438 H 0.68322 0.54915 0.62799 0.0
H439 H 0.54882 0.44833 0.74708 0.0
H440 H 0.6638 0.46448 0.7036 0.0
H441 H 0.57352 0.53965 0.68787 0.0
C442 C 0.60374 0.56826 0.64848 0.0
C443 C 0.63439 0.57108 0.63033 0.0
C444 C 0.63869 0.46113 0.71355 0.0
C445 C 0.62242 0.51775 0.68349 0.0
C446 C 0.62945 0.43021 0.7314 0.0
C447 C 0.59667 0.4246 0.74298 0.0
C448 C 0.61496 0.48659 0.70716 0.0
C449 C 0.57419 0.45134 0.73794 0.0
C450 C 0.59772 0.54183 0.67513 0.0
C451 C 0.65917 0.54781 0.64116 0.0
N452 N 0.58366 0.48102 0.72009 0.0
N453 N 0.65249 0.52179 0.66668 0.0
H454 H 0.95066 0.207 0.06665 0.0
H455 H 0.0893 0.1006 0.18076 0.0
H456 H 0.94019 0.10258 0.1069 0.0
H457 H 0.10782 0.19862 0.12531 0.0
H458 H 0.03181 0.10463 0.16129 0.0
H459 H 0.00558 0.20777 0.09486 0.0
C460 C 0.95978 0.18431 0.08159 0.0
C461 C 0.94089 0.15457 0.0841 0.0
C462 C 0.04834 0.12538 0.1535 0.0
C463 C 0.00357 0.15538 0.11652 0.0
C464 C 0.0812 0.12306 0.16454 0.0
C465 C 0.10349 0.14909 0.15411 0.0
C466 C 0.03753 0.15395 0.1318 0.0
C467 C 0.09144 0.17797 0.13389 0.0
C468 C 0.99115 0.18478 0.09763 0.0
C469 C 0.95397 0.12597 0.10389 0.0
N470 N 0.05929 0.1795 0.12306 0.0
N471 N 0.98448 0.12709 0.11921 0.0
H472 H 0.19477 0.73931 0.06174 0.0
H473 H 0.37219 0.72164 0.15426 0.0
H474 H 0.26947 0.8159 0.04084 0.0
H475 H 0.31216 0.63602 0.13075 0.0
H476 H 0.33312 0.75878 0.11916 0.0
H477 H 0.23561 0.70321 0.09422 0.0
C478 C 0.21977 0.74859 0.06405 0.0
C479 C 0.22875 0.78067 0.04851 0.0
C480 C 0.32867 0.73184 0.12159 0.0
C481 C 0.27558 0.73946 0.08592 0.0
C482 C 0.35082 0.71069 0.14168 0.0
C483 C 0.34519 0.67577 0.14541 0.0
C484 C 0.30054 0.71793 0.10583 0.0
C485 C 0.31729 0.66284 0.12846 0.0
C486 C 0.2431 0.72788 0.08243 0.0
C487 C 0.26158 0.79126 0.05225 0.0
N488 N 0.29583 0.68394 0.10968 0.0
N489 N 0.28383 0.77077 0.07086 0.0
H490 H 0.69714 0.75871 0.58713 0.0
H491 H 0.74762 0.76742 0.79935 0.0
H492 H 0.67997 0.67485 0.66767 0.0
H493 H 0.80746 0.81179 0.70952 0.0
H494 H 0.71265 0.74145 0.75358 0.0
H495 H 0.72712 0.7877 0.63467 0.0
C496 C 0.69913 0.74672 0.61501 0.0
C497 C 0.68621 0.71435 0.62359 0.0
C498 C 0.73341 0.75695 0.74402 0.0
C499 C 0.72019 0.74727 0.67772 0.0
C500 C 0.75328 0.77175 0.76998 0.0
C501 C 0.78038 0.79165 0.75797 0.0
C502 C 0.74035 0.76284 0.70593 0.0
C503 C 0.78682 0.79644 0.71973 0.0
C504 C 0.71645 0.7631 0.64191 0.0
C505 C 0.68976 0.69974 0.65999 0.0
N506 N 0.76675 0.78235 0.69494 0.0
N507 N 0.70641 0.71636 0.68584 0.0
H508 H 0.76737 0.17132 0.1548 0.0
H509 H 0.80832 0.32026 0.2856 0.0
H510 H 0.85444 0.23373 0.14084 0.0
H511 H 0.7247 0.25333 0.30065 0.0
H512 H 0.82807 0.28693 0.23518 0.0
H513 H 0.7537 0.19907 0.21094 0.0
C514 C 0.78371 0.19081 0.1636 0.0
C515 C 0.81192 0.20045 0.14281 0.0
C516 C 0.80554 0.27944 0.24973 0.0
C517 C 0.79629 0.23253 0.20725 0.0
C518 C 0.79431 0.29841 0.27847 0.0
C519 C 0.76473 0.28974 0.29701 0.0
C520 C 0.78693 0.25168 0.23956 0.0
C521 C 0.74748 0.26118 0.28688 0.0
C522 C 0.77591 0.20664 0.19577 0.0
C523 C 0.83235 0.22562 0.1559 0.0
N524 N 0.75874 0.24334 0.25871 0.0
N525 N 0.82397 0.24101 0.18713 0.0
H526 H 0.23204 0.32872 0.55542 0.0
H527 H 0.22043 0.18128 0.7163 0.0
H528 H 0.29905 0.24417 0.56424 0.0
H529 H 0.13695 0.24389 0.68424 0.0
H530 H 0.25163 0.20746 0.66366 0.0
H531 H 0.19829 0.30096 0.60511 0.0
C532 C 0.23954 0.30423 0.56759 0.0
C533 C 0.26844 0.28873 0.55564 0.0
C534 C 0.22645 0.21541 0.66804 0.0
C535 C 0.23021 0.25718 0.61276 0.0
C536 C 0.20874 0.20062 0.69813 0.0
C537 C 0.17617 0.21046 0.7045 0.0
C538 C 0.21161 0.24058 0.64441 0.0
C539 C 0.16203 0.23555 0.6802 0.0
C540 C 0.22024 0.28842 0.5959 0.0
C541 C 0.27693 0.257 0.57243 0.0
N542 N 0.17994 0.24994 0.65126 0.0
N543 N 0.25807 0.24242 0.60035 0.0
H544 H 0.76196 0.67872 0.49469 0.0
H545 H 0.80534 0.85546 0.38856 0.0
H546 H 0.6879 0.7513 0.45719 0.0
H547 H 0.86776 0.76858 0.37953 0.0
H548 H 0.76471 0.81958 0.42265 0.0
H549 H 0.80386 0.71308 0.46019 0.0
C550 C 0.75451 0.70176 0.47913 0.0
C551 C 0.7214 0.71216 0.4788 0.0
C552 C 0.7873 0.80837 0.4132 0.0
C553 C 0.76908 0.75161 0.44003 0.0
C554 C 0.8105 0.82883 0.39397 0.0
C555 C 0.83973 0.81488 0.38114 0.0
C556 C 0.79364 0.77381 0.42017 0.0
C557 C 0.84536 0.78025 0.3888 0.0
C558 C 0.77837 0.72126 0.45946 0.0
C559 C 0.71307 0.7422 0.45812 0.0
N560 N 0.82252 0.76082 0.40803 0.0
N561 N 0.7368 0.76101 0.43987 0.0
H562 H 0.79458 0.25797 0.98734 0.0
H563 H 0.62826 0.26604 0.86778 0.0
H564 H 0.72554 0.17504 0.98792 0.0
H565 H 0.71077 0.33351 0.84702 0.0
H566 H 0.65976 0.23585 0.9178 0.0
H567 H 0.75983 0.28991 0.94236 0.0
C568 C 0.77195 0.24656 0.97832 0.0
C569 C 0.76306 0.21369 0.99136 0.0
C570 C 0.67089 0.25729 0.9023 0.0
C571 C 0.72321 0.25015 0.93961 0.0
C572 C 0.65295 0.27453 0.87383 0.0
C573 C 0.6671 0.3022 0.85328 0.0
C574 C 0.70295 0.26812 0.91038 0.0
C575 C 0.69911 0.31218 0.86219 0.0
C576 C 0.7522 0.26477 0.95246 0.0
C577 C 0.73344 0.20025 0.97851 0.0
N578 N 0.71594 0.2952 0.89012 0.0
N579 N 0.71459 0.21852 0.95327 0.0
H580 H 0.35437 0.26613 0.39151 0.0
H581 H 0.20809 0.23855 0.24796 0.0
H582 H 0.25935 0.31479 0.39585 0.0
H583 H 0.3042 0.19299 0.24002 0.0
H584 H 0.22742 0.26868 0.30048 0.0
H585 H 0.33737 0.24085 0.33469 0.0
C586 C 0.32994 0.27154 0.38054 0.0
C587 C 0.30816 0.29243 0.39872 0.0
C588 C 0.24439 0.25225 0.28718 0.0
C589 C 0.28858 0.26358 0.33355 0.0
C590 C 0.23336 0.23503 0.25714 0.0
C591 C 0.2546 0.21308 0.2398 0.0
C592 C 0.27682 0.24738 0.30012 0.0
C593 C 0.28709 0.20965 0.25276 0.0
C594 C 0.32028 0.25714 0.34802 0.0
C595 C 0.27691 0.29871 0.38297 0.0
N596 N 0.29718 0.22645 0.28233 0.0
N597 N 0.26802 0.28423 0.35142 0.0
H598 H 0.20613 0.85221 0.87534 0.0
H599 H 0.23448 0.68704 0.76463 0.0
H600 H 0.17279 0.75298 0.91564 0.0
H601 H 0.27778 0.78403 0.73266 0.0
H602 H 0.20625 0.71183 0.81619 0.0
H603 H 0.2267 0.82874 0.81909 0.0
C604 C 0.20293 0.82548 0.87232 0.0
C605 C 0.18798 0.80448 0.90056 0.0
C606 C 0.22176 0.72775 0.79777 0.0
C607 C 0.21166 0.7774 0.83595 0.0
C608 C 0.23785 0.71364 0.76827 0.0
C609 C 0.25861 0.73359 0.74446 0.0
C610 C 0.22643 0.76203 0.80343 0.0
C611 C 0.26204 0.76783 0.7505 0.0
C612 C 0.21475 0.81209 0.84013 0.0
C613 C 0.18432 0.7701 0.89477 0.0
N614 N 0.24622 0.78096 0.77947 0.0
N615 N 0.19628 0.75759 0.86321 0.0
loop_
_geom_bond_atom_site_label_1
_geom_bond_atom_site_label_2
_geom_bond_distance
_geom_bond_site_symmetry_2
_ccdc_geom_bond_type
Fe0 O2 1.918 . S
Fe0 O5 1.997 1_556 S
Fe0 O6 2.002 1_556 S
Fe0 O11 1.976 . S
Fe0 O14 1.996 . S
Fe1 O2 1.918 1_554 S
Fe1 O9 1.997 . S
Fe1 O12 1.996 1_554 S
Fe1 O16 1.976 1_554 S
Fe1 O19 2.002 . S
O2 Fe0 1.918 . S
O2 Fe1 1.918 1_556 S
O2 Fe3 1.918 1_556 S
Fe3 O2 1.918 1_554 S
Fe3 O4 2.002 . S
Fe3 O13 1.976 1_554 S
Fe3 O17 1.996 1_554 S
Fe3 O20 1.997 . S
O4 Fe3 2.002 . S
O4 C21 1.295 . S
O5 Fe0 1.997 1_554 S
O5 C21 1.235 . S
O6 Fe0 2.002 1_554 S
O6 C7 1.295 . S
C7 O6 1.295 . S
C7 O9 1.235 . S
C8 O13 1.287 . S
C8 O14 1.255 . S
O9 Fe1 1.997 . S
O9 C7 1.235 . S
C10 O16 1.287 . S
C10 O17 1.255 . S
O11 Fe0 1.976 . S
O11 C18 1.287 . S
O12 Fe1 1.996 1_556 S
O12 C18 1.255 . S
O13 Fe3 1.976 1_556 S
O13 C8 1.287 . S
O14 Fe0 1.996 . S
O14 C8 1.255 . S
C15 O19 1.295 . S
C15 O20 1.235 . S
O16 Fe1 1.976 1_556 S
O16 C10 1.287 . S
O17 Fe3 1.996 1_556 S
O17 C10 1.255 . S
C18 O11 1.287 . S
C18 O12 1.255 . S
O19 Fe1 2.002 . S
O19 C15 1.295 . S
O20 Fe3 1.997 . S
O20 C15 1.235 . S
C21 O4 1.295 . S
C21 O5 1.235 . S
Fe22 O24 1.918 . S
Fe22 O27 1.997 . S
Fe22 O28 2.002 . S
Fe22 O33 1.976 . S
Fe22 O36 1.996 . S
Fe23 O24 1.918 . S
Fe23 O31 1.997 . S
Fe23 O34 1.996 . S
Fe23 O38 1.976 . S
Fe23 O41 2.002 . S
O24 Fe22 1.918 . S
O24 Fe23 1.918 . S
O24 Fe25 1.918 . S
Fe25 O24 1.918 . S
Fe25 O26 2.002 . S
Fe25 O35 1.976 . S
Fe25 O39 1.996 . S
Fe25 O42 1.997 . S
O26 Fe25 2.002 . S
O26 C43 1.295 . S
O27 Fe22 1.997 . S
O27 C43 1.235 . S
O28 Fe22 2.002 . S
O28 C29 1.295 . S
C29 O28 1.295 . S
C29 O31 1.235 . S
C30 O35 1.287 . S
C30 O36 1.255 . S
O31 Fe23 1.997 . S
O31 C29 1.235 . S
C32 O38 1.287 . S
C32 O39 1.255 . S
O33 Fe22 1.976 . S
O33 C40 1.287 . S
O34 Fe23 1.996 . S
O34 C40 1.255 . S
O35 Fe25 1.976 . S
O35 C30 1.287 . S
O36 Fe22 1.996 . S
O36 C30 1.255 . S
C37 O41 1.295 . S
C37 O42 1.235 . S
O38 Fe23 1.976 . S
O38 C32 1.287 . S
O39 Fe25 1.996 . S
O39 C32 1.255 . S
C40 O33 1.287 . S
C40 O34 1.255 . S
O41 Fe23 2.002 . S
O41 C37 1.295 . S
O42 Fe25 1.997 . S
O42 C37 1.235 . S
C43 O26 1.295 . S
C43 O27 1.235 . S
Fe44 O46 1.918 . S
Fe44 O49 1.997 . S
Fe44 O50 2.002 1_554 S
Fe44 O55 1.976 . S
Fe44 O58 1.996 . S
Fe45 O46 1.918 . S
Fe45 O53 1.997 1_554 S
Fe45 O56 1.996 . S
Fe45 O60 1.976 . S
Fe45 O63 2.002 . S
O46 Fe44 1.918 . S
O46 Fe45 1.918 . S
O46 Fe47 1.918 . S
Fe47 O46 1.918 . S
Fe47 O48 2.002 . S
Fe47 O57 1.976 . S
Fe47 O61 1.996 . S
Fe47 O64 1.997 . S
O48 Fe47 2.002 . S
O48 C65 1.295 1_554 S
O49 Fe44 1.997 . S
O49 C65 1.235 1_554 S
O50 Fe44 2.002 1_556 S
O50 C51 1.295 . S
C51 O50 1.295 . S
C51 O53 1.235 . S
C52 O57 1.287 . S
C52 O58 1.255 . S
O53 Fe45 1.997 1_556 S
O53 C51 1.235 . S
C54 O60 1.287 . S
C54 O61 1.255 . S
O55 Fe44 1.976 . S
O55 C62 1.287 . S
O56 Fe45 1.996 . S
O56 C62 1.255 . S
O57 Fe47 1.976 . S
O57 C52 1.287 . S
O58 Fe44 1.996 . S
O58 C52 1.255 . S
C59 O63 1.299 . S
C59 O64 1.250 . S
O60 Fe45 1.976 . S
O60 C54 1.287 . S
O61 Fe47 1.996 . S
O61 C54 1.255 . S
C62 O55 1.287 . S
C62 O56 1.255 . S
O63 Fe45 2.002 . S
O63 C59 1.299 . S
O64 Fe47 1.997 . S
O64 C59 1.250 . S
C65 O48 1.295 1_556 S
C65 O49 1.235 1_556 S
Fe66 O68 1.918 . S
Fe66 O71 1.997 . S
Fe66 O72 2.002 . S
Fe66 O77 1.976 . S
Fe66 O80 1.996 . S
Fe67 O68 1.918 . S
Fe67 O75 1.997 . S
Fe67 O78 1.996 . S
Fe67 O82 1.976 . S
Fe67 O85 2.002 . S
O68 Fe66 1.918 . S
O68 Fe67 1.918 . S
O68 Fe69 1.918 . S
Fe69 O68 1.918 . S
Fe69 O70 2.002 . S
Fe69 O79 1.976 . S
Fe69 O83 1.996 . S
Fe69 O86 1.997 . S
O70 Fe69 2.002 . S
O70 C87 1.295 . S
O71 Fe66 1.997 . S
O71 C87 1.235 . S
O72 Fe66 2.002 . S
O72 C73 1.295 . S
C73 O72 1.295 . S
C73 O75 1.235 . S
C74 O79 1.287 . S
C74 O80 1.255 . S
O75 Fe67 1.997 . S
O75 C73 1.235 . S
C76 O82 1.287 . S
C76 O83 1.255 . S
O77 Fe66 1.976 . S
O77 C84 1.287 . S
O78 Fe67 1.996 . S
O78 C84 1.255 . S
O79 Fe69 1.976 . S
O79 C74 1.287 . S
O80 Fe66 1.996 . S
O80 C74 1.255 . S
C81 O85 1.295 . S
C81 O86 1.235 . S
O82 Fe67 1.976 . S
O82 C76 1.287 . S
O83 Fe69 1.996 . S
O83 C76 1.255 . S
C84 O77 1.287 . S
C84 O78 1.255 . S
O85 Fe67 2.002 . S
O85 C81 1.295 . S
O86 Fe69 1.997 . S
O86 C81 1.235 . S
C87 O70 1.295 . S
C87 O71 1.235 . S
H88 C93 0.930 . S
H89 C96 0.930 . S
H90 C98 0.930 . S
H91 C92 1.016 . S
C92 H91 1.016 . S
C92 N99 1.286 . S
C93 H88 0.930 . S
C93 C94 1.397 . S
C93 C95 1.361 . S
C94 C93 1.397 . S
C94 C98 1.390 . S
C95 C93 1.361 . S
C95 C96 1.393 . S
C95 N99 1.413 . S
C96 H89 0.930 . S
C96 C95 1.393 . S
C96 C97 1.399 . S
C97 C96 1.399 . S
C97 C98 1.381 . S
C98 H90 0.930 . S
C98 C94 1.390 . S
C98 C97 1.381 . S
N99 C92 1.286 . S
N99 C95 1.413 . S
H100 C105 0.930 . S
H101 C108 0.930 . S
H102 C110 0.930 . S
H103 C104 1.016 . S
C104 H103 1.016 . S
C104 N111 1.286 . S
C105 H100 0.930 . S
C105 C106 1.397 . S
C105 C107 1.361 . S
C106 C105 1.397 . S
C106 C110 1.390 . S
C107 C105 1.361 . S
C107 C108 1.393 . S
C107 N111 1.413 . S
C108 H101 0.930 . S
C108 C107 1.393 . S
C108 C109 1.399 . S
C109 C108 1.399 . S
C109 C110 1.381 . S
C110 H102 0.930 . S
C110 C106 1.390 . S
C110 C109 1.381 . S
N111 C104 1.286 . S
N111 C107 1.413 . S
H112 C117 0.930 . S
H113 C120 0.930 . S
H114 C122 0.930 . S
H115 C116 1.016 . S
C116 H115 1.016 . S
C116 N123 1.286 . S
C117 H112 0.930 . S
C117 C118 1.397 . S
C117 C119 1.361 . S
C118 C117 1.397 . S
C118 C122 1.390 . S
C119 C117 1.361 . S
C119 C120 1.393 . S
C119 N123 1.413 . S
C120 H113 0.930 . S
C120 C119 1.393 . S
C120 C121 1.399 . S
C121 C120 1.399 . S
C121 C122 1.381 . S
C122 H114 0.930 . S
C122 C118 1.390 . S
C122 C121 1.381 . S
N123 C116 1.286 . S
N123 C119 1.413 . S
H124 C129 0.930 . S
H125 C132 0.930 . S
H126 C134 0.930 . S
H127 C128 1.016 . S
C128 H127 1.016 . S
C128 N135 1.286 . S
C129 H124 0.930 . S
C129 C130 1.397 . S
C129 C131 1.361 . S
C130 C129 1.397 . S
C130 C134 1.390 . S
C131 C129 1.361 . S
C131 C132 1.393 . S
C131 N135 1.413 . S
C132 H125 0.930 . S
C132 C131 1.393 . S
C132 C133 1.399 . S
C133 C132 1.399 . S
C133 C134 1.381 . S
C134 H126 0.930 . S
C134 C130 1.390 . S
C134 C133 1.381 . S
N135 C128 1.286 . S
N135 C131 1.413 . S
H136 C141 0.930 . S
H137 C144 0.930 . S
H138 C146 0.930 . S
H139 C140 1.016 . S
C140 H139 1.016 . S
C140 N147 1.286 . S
C141 H136 0.930 . S
C141 C142 1.397 . S
C141 C143 1.361 . S
C142 C141 1.397 . S
C142 C146 1.390 . S
C143 C141 1.361 . S
C143 C144 1.393 . S
C143 N147 1.413 . S
C144 H137 0.930 . S
C144 C143 1.393 . S
C144 C145 1.399 . S
C145 C144 1.399 . S
C145 C146 1.381 . S
C146 H138 0.930 . S
C146 C142 1.390 . S
C146 C145 1.381 . S
N147 C140 1.286 . S
N147 C143 1.413 . S
H148 C153 0.930 . S
H149 C156 0.930 . S
H150 C158 0.930 . S
H151 C152 1.016 . S
C152 H151 1.016 . S
C152 N159 1.286 . S
C153 H148 0.930 . S
C153 C154 1.397 . S
C153 C155 1.361 . S
C154 C153 1.397 . S
C154 C158 1.390 . S
C155 C153 1.361 . S
C155 C156 1.393 . S
C155 N159 1.413 . S
C156 H149 0.930 . S
C156 C155 1.393 . S
C156 C157 1.399 . S
C157 C156 1.399 . S
C157 C158 1.381 . S
C158 H150 0.930 . S
C158 C154 1.390 . S
C158 C157 1.381 . S
N159 C152 1.286 . S
N159 C155 1.413 . S
H160 C165 0.930 . S
H161 C168 0.930 . S
H162 C170 0.930 . S
H163 C164 1.016 . S
C164 H163 1.016 . S
C164 N171 1.286 . S
C165 H160 0.930 . S
C165 C166 1.397 . S
C165 C167 1.361 . S
C166 C165 1.397 . S
C166 C170 1.390 . S
C167 C165 1.361 . S
C167 C168 1.393 . S
C167 N171 1.413 . S
C168 H161 0.930 . S
C168 C167 1.393 . S
C168 C169 1.399 . S
C169 C168 1.399 . S
C169 C170 1.381 . S
C170 H162 0.930 . S
C170 C166 1.390 . S
C170 C169 1.381 . S
N171 C164 1.286 . S
N171 C167 1.413 . S
H172 C177 0.930 . S
H173 C180 0.930 . S
H174 C182 0.930 . S
H175 C176 1.016 . S
C176 H175 1.016 . S
C176 N183 1.286 . S
C177 H172 0.930 . S
C177 C178 1.397 . S
C177 C179 1.361 . S
C178 C177 1.397 . S
C178 C182 1.390 . S
C179 C177 1.361 . S
C179 C180 1.393 . S
C179 N183 1.413 . S
C180 H173 0.930 . S
C180 C179 1.393 . S
C180 C181 1.399 . S
C181 C180 1.399 . S
C181 C182 1.381 . S
C182 H174 0.930 . S
C182 C178 1.390 . S
C182 C181 1.381 . S
N183 C176 1.286 . S
N183 C179 1.413 . S
H184 C190 0.930 . S
H185 C194 0.930 . S
H186 C199 0.929 . S
H187 C197 0.929 . S
H188 C192 0.929 . S
H189 C198 0.929 . S
C190 H184 0.930 . S
C190 C191 1.367 . S
C190 C198 1.378 . S
C191 C190 1.367 . S
C191 C199 1.433 . S
C192 H188 0.929 . S
C192 C194 1.378 . S
C192 C196 1.350 . S
C193 C196 1.463 . S
C193 C198 1.350 1_545 S
C193 N201 1.427 . S
C194 H185 0.930 . S
C194 C192 1.378 . S
C194 C195 1.367 . S
C195 C194 1.367 . S
C195 C197 1.433 . S
C196 C192 1.350 . S
C196 C193 1.463 . S
C196 N200 1.427 . S
C197 H187 0.929 . S
C197 C195 1.433 . S
C197 N200 1.384 . S
C198 H189 0.929 . S
C198 C190 1.378 . S
C198 C193 1.350 1_565 S
C199 H186 0.929 . S
C199 C191 1.433 . S
C199 N201 1.384 1_565 S
N200 C196 1.427 . S
N200 C197 1.384 . S
N201 C193 1.427 . S
N201 C199 1.384 1_545 S
H202 C208 0.930 . S
H203 C212 0.930 . S
H204 C217 0.929 . S
H205 C215 0.929 . S
H206 C210 0.929 . S
H207 C216 0.929 . S
C208 H202 0.930 . S
C208 C209 1.367 . S
C208 C216 1.378 . S
C209 C208 1.367 . S
C209 C217 1.433 . S
C210 H206 0.929 . S
C210 C212 1.378 . S
C210 C214 1.350 . S
C211 C214 1.463 . S
C211 C216 1.350 . S
C211 N219 1.427 . S
C212 H203 0.930 . S
C212 C210 1.378 . S
C212 C213 1.367 . S
C213 C212 1.367 . S
C213 C215 1.433 . S
C214 C210 1.350 . S
C214 C211 1.463 . S
C214 N218 1.427 . S
C215 H205 0.929 . S
C215 C213 1.433 . S
C215 N218 1.384 . S
C216 H207 0.929 . S
C216 C208 1.378 . S
C216 C211 1.350 . S
C217 H204 0.929 . S
C217 C209 1.433 . S
C217 N219 1.384 . S
N218 C214 1.427 . S
N218 C215 1.384 . S
N219 C211 1.427 . S
N219 C217 1.384 . S
H220 C226 0.930 . S
H221 C230 0.930 . S
H222 C235 0.929 . S
H223 C233 0.929 . S
H224 C228 0.929 . S
H225 C234 0.929 . S
C226 H220 0.930 . S
C226 C227 1.367 . S
C226 C234 1.378 1_545 S
C227 C226 1.367 . S
C227 C235 1.433 . S
C228 H224 0.929 . S
C228 C230 1.378 . S
C228 C232 1.350 . S
C229 C232 1.463 . S
C229 C234 1.350 . S
C229 N237 1.427 1_565 S
C230 H221 0.930 . S
C230 C228 1.378 . S
C230 C231 1.367 . S
C231 C230 1.367 . S
C231 C233 1.433 . S
C232 C228 1.350 . S
C232 C229 1.463 . S
C232 N236 1.427 . S
C233 H223 0.929 . S
C233 C231 1.433 . S
C233 N236 1.384 . S
C234 H225 0.929 . S
C234 C226 1.378 1_565 S
C234 C229 1.350 . S
C235 H222 0.929 . S
C235 C227 1.433 . S
C235 N237 1.384 . S
N236 C232 1.427 . S
N236 C233 1.384 . S
N237 C229 1.427 1_545 S
N237 C235 1.384 . S
H238 C244 0.930 . S
H239 C248 0.930 . S
H240 C253 0.929 . S
H241 C251 0.929 . S
H242 C246 0.929 . S
H243 C252 0.929 . S
C244 H238 0.930 . S
C244 C245 1.367 . S
C244 C252 1.378 . S
C245 C244 1.367 . S
C245 C253 1.433 . S
C246 H242 0.929 . S
C246 C248 1.378 . S
C246 C250 1.350 . S
C247 C250 1.463 . S
C247 C252 1.350 . S
C247 N255 1.427 . S
C248 H239 0.930 . S
C248 C246 1.378 . S
C248 C249 1.367 . S
C249 C248 1.367 . S
C249 C251 1.433 . S
C250 C246 1.350 . S
C250 C247 1.463 . S
C250 N254 1.427 . S
C251 H241 0.929 . S
C251 C249 1.433 . S
C251 N254 1.384 . S
C252 H243 0.929 . S
C252 C244 1.378 . S
C252 C247 1.350 . S
C253 H240 0.929 . S
C253 C245 1.433 . S
C253 N255 1.384 . S
N254 C250 1.427 . S
N254 C251 1.384 . S
N255 C247 1.427 . S
N255 C253 1.384 . S
H256 C262 0.930 . S
H257 C266 0.930 . S
H258 C271 0.929 . S
H259 C269 0.929 . S
H260 C264 0.929 . S
H261 C270 0.929 . S
C262 H256 0.930 . S
C262 C263 1.367 . S
C262 C270 1.378 . S
C263 C262 1.367 . S
C263 C271 1.433 . S
C264 H260 0.929 . S
C264 C266 1.378 . S
C264 C268 1.350 . S
C265 C268 1.463 . S
C265 C270 1.350 . S
C265 N273 1.427 . S
C266 H257 0.930 . S
C266 C264 1.378 . S
C266 C267 1.367 . S
C267 C266 1.367 . S
C267 C269 1.433 . S
C268 C264 1.350 . S
C268 C265 1.463 . S
C268 N272 1.427 . S
C269 H259 0.929 . S
C269 C267 1.433 . S
C269 N272 1.384 . S
C270 H261 0.929 . S
C270 C262 1.378 . S
C270 C265 1.350 . S
C271 H258 0.929 . S
C271 C263 1.433 . S
C271 N273 1.384 . S
N272 C268 1.427 . S
N272 C269 1.384 . S
N273 C265 1.427 . S
N273 C271 1.384 . S
H274 C280 0.930 . S
H275 C284 0.930 . S
H276 C289 0.929 . S
H277 C287 0.929 . S
H278 C282 0.929 . S
H279 C288 0.929 . S
C280 H274 0.930 . S
C280 C281 1.367 . S
C280 C288 1.378 . S
C281 C280 1.367 . S
C281 C289 1.433 . S
C282 H278 0.929 . S
C282 C284 1.378 . S
C282 C286 1.350 1_455 S
C283 C286 1.463 . S
C283 C288 1.350 . S
C283 N291 1.427 . S
C284 H275 0.930 . S
C284 C282 1.378 . S
C284 C285 1.367 . S
C285 C284 1.367 . S
C285 C287 1.433 . S
C286 C282 1.350 1_655 S
C286 C283 1.463 . S
C286 N290 1.427 . S
C287 H277 0.929 . S
C287 C285 1.433 . S
C287 N290 1.384 1_455 S
C288 H279 0.929 . S
C288 C280 1.378 . S
C288 C283 1.350 . S
C289 H276 0.929 . S
C289 C281 1.433 . S
C289 N291 1.384 . S
N290 C286 1.427 . S
N290 C287 1.384 1_655 S
N291 C283 1.427 . S
N291 C289 1.384 . S
H292 C298 0.930 . S
H293 C302 0.930 . S
H294 C307 0.929 . S
H295 C305 0.929 . S
H296 C300 0.929 . S
H297 C306 0.929 . S
C298 H292 0.930 . S
C298 C299 1.367 . S
C298 C306 1.378 . S
C299 C298 1.367 . S
C299 C307 1.433 . S
C300 H296 0.929 . S
C300 C302 1.378 . S
C300 C304 1.350 . S
C301 C304 1.463 . S
C301 C306 1.350 . S
C301 N309 1.427 . S
C302 H293 0.930 . S
C302 C300 1.378 . S
C302 C303 1.367 . S
C303 C302 1.367 . S
C303 C305 1.433 . S
C304 C300 1.350 . S
C304 C301 1.463 . S
C304 N308 1.427 . S
C305 H295 0.929 . S
C305 C303 1.433 . S
C305 N308 1.384 . S
C306 H297 0.929 . S
C306 C298 1.378 . S
C306 C301 1.350 . S
C307 H294 0.929 . S
C307 C299 1.433 . S
C307 N309 1.384 . S
N308 C304 1.427 . S
N308 C305 1.384 . S
N309 C301 1.427 . S
N309 C307 1.384 . S
H310 C316 0.930 . S
H311 C320 0.930 . S
H312 C325 0.929 . S
H313 C323 0.929 . S
H314 C318 0.929 . S
H315 C324 0.929 . S
C316 H310 0.930 . S
C316 C317 1.367 . S
C316 C324 1.378 1_455 S
C317 C316 1.367 . S
C317 C325 1.433 . S
C318 H314 0.929 . S
C318 C320 1.378 . S
C318 C322 1.350 . S
C319 C322 1.463 . S
C319 C324 1.350 . S
C319 N327 1.427 . S
C320 H311 0.930 . S
C320 C318 1.378 . S
C320 C321 1.367 . S
C321 C320 1.367 . S
C321 C323 1.433 . S
C322 C318 1.350 . S
C322 C319 1.463 . S
C322 N326 1.427 . S
C323 H313 0.929 . S
C323 C321 1.433 . S
C323 N326 1.384 . S
C324 H315 0.929 . S
C324 C316 1.378 1_655 S
C324 C319 1.350 . S
C325 H312 0.929 . S
C325 C317 1.433 . S
C325 N327 1.384 1_455 S
N326 C322 1.427 . S
N326 C323 1.384 . S
N327 C319 1.427 . S
N327 C325 1.384 1_655 S
H328 C334 0.930 . S
H329 C338 0.930 . S
H330 C343 0.929 1_554 S
H331 C341 0.929 . S
H332 C336 0.929 . S
H333 C342 0.929 . S
C334 H328 0.930 . S
C334 C335 1.367 . S
C334 C342 1.378 1_545 S
C335 C334 1.367 . S
C335 C343 1.433 . S
C336 H332 0.929 . S
C336 C338 1.378 . S
C336 C340 1.350 . S
C337 C340 1.463 . S
C337 C342 1.350 . S
C337 N345 1.427 . S
C338 H329 0.930 . S
C338 C336 1.378 . S
C338 C339 1.367 . S
C339 C338 1.367 . S
C339 C341 1.433 . S
C340 C336 1.350 . S
C340 C337 1.463 . S
C340 N344 1.427 . S
C341 H331 0.929 . S
C341 C339 1.433 . S
C341 N344 1.384 . S
C342 H333 0.929 . S
C342 C334 1.378 1_565 S
C342 C337 1.350 . S
C343 H330 0.929 1_556 S
C343 C335 1.433 . S
C343 N345 1.384 1_545 S
N344 C340 1.427 . S
N344 C341 1.384 . S
N345 C337 1.427 . S
N345 C343 1.384 1_565 S
H346 C352 0.930 . S
H347 C356 0.930 . S
H348 C361 0.929 . S
H349 C359 0.929 . S
H350 C354 0.929 . S
H351 C360 0.929 . S
C352 H346 0.930 . S
C352 C353 1.367 . S
C352 C360 1.378 . S
C353 C352 1.367 . S
C353 C361 1.433 . S
C354 H350 0.929 . S
C354 C356 1.378 . S
C354 C358 1.350 . S
C355 C358 1.463 . S
C355 C360 1.350 . S
C355 N363 1.427 . S
C356 H347 0.930 . S
C356 C354 1.378 . S
C356 C357 1.367 . S
C357 C356 1.367 . S
C357 C359 1.433 . S
C358 C354 1.350 . S
C358 C355 1.463 . S
C358 N362 1.427 . S
C359 H349 0.929 . S
C359 C357 1.433 . S
C359 N362 1.384 . S
C360 H351 0.929 . S
C360 C352 1.378 . S
C360 C355 1.350 . S
C361 H348 0.929 . S
C361 C353 1.433 . S
C361 N363 1.384 . S
N362 C358 1.427 . S
N362 C359 1.384 . S
N363 C355 1.427 . S
N363 C361 1.384 . S
H364 C370 0.930 . S
H365 C374 0.930 . S
H366 C379 0.929 . S
H367 C377 0.929 . S
H368 C372 0.929 . S
H369 C378 0.929 . S
C370 H364 0.930 . S
C370 C371 1.367 . S
C370 C378 1.378 1_565 S
C371 C370 1.367 . S
C371 C379 1.433 . S
C372 H368 0.929 . S
C372 C374 1.378 . S
C372 C376 1.350 . S
C373 C376 1.463 . S
C373 C378 1.350 . S
C373 N381 1.427 1_545 S
C374 H365 0.930 . S
C374 C372 1.378 . S
C374 C375 1.367 . S
C375 C374 1.367 . S
C375 C377 1.433 . S
C376 C372 1.350 . S
C376 C373 1.463 . S
C376 N380 1.427 . S
C377 H367 0.929 . S
C377 C375 1.433 . S
C377 N380 1.384 . S
C378 H369 0.929 . S
C378 C370 1.378 1_545 S
C378 C373 1.350 . S
C379 H366 0.929 . S
C379 C371 1.433 . S
C379 N381 1.384 . S
N380 C376 1.427 . S
N380 C377 1.384 . S
N381 C373 1.427 1_565 S
N381 C379 1.384 . S
H382 C388 0.930 . S
H383 C392 0.930 . S
H384 C397 0.929 . S
H385 C395 0.929 . S
H386 C390 0.929 . S
H387 C396 0.929 . S
C388 H382 0.930 . S
C388 C389 1.367 . S
C388 C396 1.378 . S
C389 C388 1.367 . S
C389 C397 1.433 . S
C390 H386 0.929 . S
C390 C392 1.378 . S
C390 C394 1.350 . S
C391 C394 1.463 . S
C391 C396 1.350 . S
C391 N399 1.427 . S
C392 H383 0.930 . S
C392 C390 1.378 . S
C392 C393 1.367 . S
C393 C392 1.367 . S
C393 C395 1.433 . S
C394 C390 1.350 . S
C394 C391 1.463 . S
C394 N398 1.427 . S
C395 H385 0.929 . S
C395 C393 1.433 . S
C395 N398 1.384 . S
C396 H387 0.929 . S
C396 C388 1.378 . S
C396 C391 1.350 . S
C397 H384 0.929 . S
C397 C389 1.433 . S
C397 N399 1.384 . S
N398 C394 1.427 . S
N398 C395 1.384 . S
N399 C391 1.427 . S
N399 C397 1.384 . S
H400 C406 0.930 . S
H401 C410 0.930 . S
H402 C415 0.929 . S
H403 C413 0.929 . S
H404 C408 0.929 . S
H405 C414 0.929 . S
C406 H400 0.930 . S
C406 C407 1.367 . S
C406 C414 1.378 . S
C407 C406 1.367 . S
C407 C415 1.433 . S
C408 H404 0.929 . S
C408 C410 1.378 . S
C408 C412 1.350 . S
C409 C412 1.463 . S
C409 C414 1.350 . S
C409 N417 1.427 . S
C410 H401 0.930 . S
C410 C408 1.378 . S
C410 C411 1.367 . S
C411 C410 1.367 . S
C411 C413 1.433 . S
C412 C408 1.350 . S
C412 C409 1.463 . S
C412 N416 1.427 . S
C413 H403 0.929 . S
C413 C411 1.433 . S
C413 N416 1.384 . S
C414 H405 0.929 . S
C414 C406 1.378 . S
C414 C409 1.350 . S
C415 H402 0.929 . S
C415 C407 1.433 . S
C415 N417 1.384 . S
N416 C412 1.427 . S
N416 C413 1.384 . S
N417 C409 1.427 . S
N417 C415 1.384 . S
H418 C424 0.930 . S
H419 C428 0.930 . S
H420 C433 0.929 . S
H421 C431 0.929 . S
H422 C426 0.929 . S
H423 C432 0.929 . S
C424 H418 0.930 . S
C424 C425 1.367 . S
C424 C432 1.378 . S
C425 C424 1.367 . S
C425 C433 1.433 . S
C426 H422 0.929 . S
C426 C428 1.378 . S
C426 C430 1.350 1_655 S
C427 C430 1.463 . S
C427 C432 1.350 . S
C427 N435 1.427 . S
C428 H419 0.930 . S
C428 C426 1.378 . S
C428 C429 1.367 . S
C429 C428 1.367 . S
C429 C431 1.433 . S
C430 C426 1.350 1_455 S
C430 C427 1.463 . S
C430 N434 1.427 . S
C431 H421 0.929 . S
C431 C429 1.433 . S
C431 N434 1.384 1_655 S
C432 H423 0.929 . S
C432 C424 1.378 . S
C432 C427 1.350 . S
C433 H420 0.929 . S
C433 C425 1.433 . S
C433 N435 1.384 . S
N434 C430 1.427 . S
N434 C431 1.384 1_455 S
N435 C427 1.427 . S
N435 C433 1.384 . S
H436 C442 0.930 . S
H437 C446 0.930 . S
H438 C451 0.929 . S
H439 C449 0.929 . S
H440 C444 0.929 . S
H441 C450 0.929 . S
C442 H436 0.930 . S
C442 C443 1.367 . S
C442 C450 1.378 . S
C443 C442 1.367 . S
C443 C451 1.433 . S
C444 H440 0.929 . S
C444 C446 1.378 . S
C444 C448 1.350 . S
C445 C448 1.463 . S
C445 C450 1.350 . S
C445 N453 1.427 . S
C446 H437 0.930 . S
C446 C444 1.378 . S
C446 C447 1.367 . S
C447 C446 1.367 . S
C447 C449 1.433 . S
C448 C444 1.350 . S
C448 C445 1.463 . S
C448 N452 1.427 . S
C449 H439 0.929 . S
C449 C447 1.433 . S
C449 N452 1.384 . S
C450 H441 0.929 . S
C450 C442 1.378 . S
C450 C445 1.350 . S
C451 H438 0.929 . S
C451 C443 1.433 . S
C451 N453 1.384 . S
N452 C448 1.427 . S
N452 C449 1.384 . S
N453 C445 1.427 . S
N453 C451 1.384 . S
H454 C460 0.930 . S
H455 C464 0.930 . S
H456 C469 0.929 . S
H457 C467 0.929 . S
H458 C462 0.929 . S
H459 C468 0.929 . S
C460 H454 0.930 . S
C460 C461 1.367 . S
C460 C468 1.378 1_655 S
C461 C460 1.367 . S
C461 C469 1.433 . S
C462 H458 0.929 . S
C462 C464 1.378 . S
C462 C466 1.350 . S
C463 C466 1.463 . S
C463 C468 1.350 . S
C463 N471 1.427 . S
C464 H455 0.930 . S
C464 C462 1.378 . S
C464 C465 1.367 . S
C465 C464 1.367 . S
C465 C467 1.433 . S
C466 C462 1.350 . S
C466 C463 1.463 . S
C466 N470 1.427 . S
C467 H457 0.929 . S
C467 C465 1.433 . S
C467 N470 1.384 . S
C468 H459 0.929 . S
C468 C460 1.378 1_455 S
C468 C463 1.350 . S
C469 H456 0.929 . S
C469 C461 1.433 . S
C469 N471 1.384 1_655 S
N470 C466 1.427 . S
N470 C467 1.384 . S
N471 C463 1.427 . S
N471 C469 1.384 1_455 S
H472 C478 0.930 . S
H473 C482 0.930 . S
H474 C487 0.929 . S
H475 C485 0.929 . S
H476 C480 0.929 . S
H477 C486 0.929 . S
C478 H472 0.930 . S
C478 C479 1.367 . S
C478 C486 1.378 . S
C479 C478 1.367 . S
C479 C487 1.433 . S
C480 H476 0.929 . S
C480 C482 1.378 . S
C480 C484 1.350 . S
C481 C484 1.463 . S
C481 C486 1.350 . S
C481 N489 1.427 . S
C482 H473 0.930 . S
C482 C480 1.378 . S
C482 C483 1.367 . S
C483 C482 1.367 . S
C483 C485 1.433 . S
C484 C480 1.350 . S
C484 C481 1.463 . S
C484 N488 1.427 . S
C485 H475 0.929 . S
C485 C483 1.433 . S
C485 N488 1.384 . S
C486 H477 0.929 . S
C486 C478 1.378 . S
C486 C481 1.350 . S
C487 H474 0.929 . S
C487 C479 1.433 . S
C487 N489 1.384 . S
N488 C484 1.427 . S
N488 C485 1.384 . S
N489 C481 1.427 . S
N489 C487 1.384 . S
H490 C496 0.930 . S
H491 C500 0.930 . S
H492 C505 0.929 . S
H493 C503 0.929 . S
H494 C498 0.929 . S
H495 C504 0.929 . S
C496 H490 0.930 . S
C496 C497 1.367 . S
C496 C504 1.378 . S
C497 C496 1.367 . S
C497 C505 1.433 . S
C498 H494 0.929 . S
C498 C500 1.378 . S
C498 C502 1.350 . S
C499 C502 1.463 . S
C499 C504 1.350 . S
C499 N507 1.427 . S
C500 H491 0.930 . S
C500 C498 1.378 . S
C500 C501 1.367 . S
C501 C500 1.367 . S
C501 C503 1.433 . S
C502 C498 1.350 . S
C502 C499 1.463 . S
C502 N506 1.427 . S
C503 H493 0.929 . S
C503 C501 1.433 . S
C503 N506 1.384 . S
C504 H495 0.929 . S
C504 C496 1.378 . S
C504 C499 1.350 . S
C505 H492 0.929 . S
C505 C497 1.433 . S
C505 N507 1.384 . S
N506 C502 1.427 . S
N506 C503 1.384 . S
N507 C499 1.427 . S
N507 C505 1.384 . S
H508 C514 0.930 . S
H509 C518 0.930 . S
H510 C523 0.929 . S
H511 C521 0.929 . S
H512 C516 0.929 . S
H513 C522 0.929 . S
C514 H508 0.930 . S
C514 C515 1.367 . S
C514 C522 1.378 . S
C515 C514 1.367 . S
C515 C523 1.433 . S
C516 H512 0.929 . S
C516 C518 1.378 . S
C516 C520 1.350 . S
C517 C520 1.463 . S
C517 C522 1.350 . S
C517 N525 1.427 . S
C518 H509 0.930 . S
C518 C516 1.378 . S
C518 C519 1.367 . S
C519 C518 1.367 . S
C519 C521 1.433 . S
C520 C516 1.350 . S
C520 C517 1.463 . S
C520 N524 1.427 . S
C521 H511 0.929 . S
C521 C519 1.433 . S
C521 N524 1.384 . S
C522 H513 0.929 . S
C522 C514 1.378 . S
C522 C517 1.350 . S
C523 H510 0.929 . S
C523 C515 1.433 . S
C523 N525 1.384 . S
N524 C520 1.427 . S
N524 C521 1.384 . S
N525 C517 1.427 . S
N525 C523 1.384 . S
H526 C532 0.930 . S
H527 C536 0.930 . S
H528 C541 0.929 . S
H529 C539 0.929 . S
H530 C534 0.929 . S
H531 C540 0.929 . S
C532 H526 0.930 . S
C532 C533 1.367 . S
C532 C540 1.378 . S
C533 C532 1.367 . S
C533 C541 1.433 . S
C534 H530 0.929 . S
C534 C536 1.378 . S
C534 C538 1.350 . S
C535 C538 1.463 . S
C535 C540 1.350 . S
C535 N543 1.427 . S
C536 H527 0.930 . S
C536 C534 1.378 . S
C536 C537 1.367 . S
C537 C536 1.367 . S
C537 C539 1.433 . S
C538 C534 1.350 . S
C538 C535 1.463 . S
C538 N542 1.427 . S
C539 H529 0.929 . S
C539 C537 1.433 . S
C539 N542 1.384 . S
C540 H531 0.929 . S
C540 C532 1.378 . S
C540 C535 1.350 . S
C541 H528 0.929 . S
C541 C533 1.433 . S
C541 N543 1.384 . S
N542 C538 1.427 . S
N542 C539 1.384 . S
N543 C535 1.427 . S
N543 C541 1.384 . S
H544 C550 0.930 . S
H545 C554 0.930 . S
H546 C559 0.929 . S
H547 C557 0.929 . S
H548 C552 0.929 . S
H549 C558 0.929 . S
C550 H544 0.930 . S
C550 C551 1.367 . S
C550 C558 1.378 . S
C551 C550 1.367 . S
C551 C559 1.433 . S
C552 H548 0.929 . S
C552 C554 1.378 . S
C552 C556 1.350 . S
C553 C556 1.463 . S
C553 C558 1.350 . S
C553 N561 1.427 . S
C554 H545 0.930 . S
C554 C552 1.378 . S
C554 C555 1.367 . S
C555 C554 1.367 . S
C555 C557 1.433 . S
C556 C552 1.350 . S
C556 C553 1.463 . S
C556 N560 1.427 . S
C557 H547 0.929 . S
C557 C555 1.433 . S
C557 N560 1.384 . S
C558 H549 0.929 . S
C558 C550 1.378 . S
C558 C553 1.350 . S
C559 H546 0.929 . S
C559 C551 1.433 . S
C559 N561 1.384 . S
N560 C556 1.427 . S
N560 C557 1.384 . S
N561 C553 1.427 . S
N561 C559 1.384 . S
H562 C568 0.930 . S
H563 C572 0.930 . S
H564 C577 0.929 . S
H565 C575 0.929 . S
H566 C570 0.929 . S
H567 C576 0.929 . S
C568 H562 0.930 . S
C568 C569 1.367 . S
C568 C576 1.378 . S
C569 C568 1.367 . S
C569 C577 1.433 . S
C570 H566 0.929 . S
C570 C572 1.378 . S
C570 C574 1.350 . S
C571 C574 1.463 . S
C571 C576 1.350 . S
C571 N579 1.427 . S
C572 H563 0.930 . S
C572 C570 1.378 . S
C572 C573 1.367 . S
C573 C572 1.367 . S
C573 C575 1.433 . S
C574 C570 1.350 . S
C574 C571 1.463 . S
C574 N578 1.427 . S
C575 H565 0.929 . S
C575 C573 1.433 . S
C575 N578 1.384 . S
C576 H567 0.929 . S
C576 C568 1.378 . S
C576 C571 1.350 . S
C577 H564 0.929 . S
C577 C569 1.433 . S
C577 N579 1.384 . S
N578 C574 1.427 . S
N578 C575 1.384 . S
N579 C571 1.427 . S
N579 C577 1.384 . S
H580 C586 0.930 . S
H581 C590 0.930 . S
H582 C595 0.929 . S
H583 C593 0.929 . S
H584 C588 0.929 . S
H585 C594 0.929 . S
C586 H580 0.930 . S
C586 C587 1.367 . S
C586 C594 1.378 . S
C587 C586 1.367 . S
C587 C595 1.433 . S
C588 H584 0.929 . S
C588 C590 1.378 . S
C588 C592 1.350 . S
C589 C592 1.463 . S
C589 C594 1.350 . S
C589 N597 1.427 . S
C590 H581 0.930 . S
C590 C588 1.378 . S
C590 C591 1.367 . S
C591 C590 1.367 . S
C591 C593 1.433 . S
C592 C588 1.350 . S
C592 C589 1.463 . S
C592 N596 1.427 . S
C593 H583 0.929 . S
C593 C591 1.433 . S
C593 N596 1.384 . S
C594 H585 0.929 . S
C594 C586 1.378 . S
C594 C589 1.350 . S
C595 H582 0.929 . S
C595 C587 1.433 . S
C595 N597 1.384 . S
N596 C592 1.427 . S
N596 C593 1.384 . S
N597 C589 1.427 . S
N597 C595 1.384 . S
H598 C604 0.930 . S
H599 C608 0.930 . S
H600 C613 0.929 . S
H601 C611 0.929 . S
H602 C606 0.929 . S
H603 C612 0.929 . S
C604 H598 0.930 . S
C604 C605 1.367 . S
C604 C612 1.378 . S
C605 C604 1.367 . S
C605 C613 1.433 . S
C606 H602 0.929 . S
C606 C608 1.378 . S
C606 C610 1.350 . S
C607 C610 1.463 . S
C607 C612 1.350 . S
C607 N615 1.427 . S
C608 H599 0.930 . S
C608 C606 1.378 . S
C608 C609 1.367 . S
C609 C608 1.367 . S
C609 C611 1.433 . S
C610 C606 1.350 . S
C610 C607 1.463 . S
C610 N614 1.427 . S
C611 H601 0.929 . S
C611 C609 1.433 . S
C611 N614 1.384 . S
C612 H603 0.929 . S
C612 C604 1.378 . S
C612 C607 1.350 . S
C613 H600 0.929 . S
C613 C605 1.433 . S
C613 N615 1.384 . S
N614 C610 1.427 . S
N614 C611 1.384 . S
N615 C607 1.427 . S
N615 C613 1.384 . S
C191 C7 1.400 . S
C195 C97 1.332 . S
C209 C37 1.428 . S
C213 C109 1.396 . S
C227 C54 1.359 . S
C231 C121 1.321 . S
C249 C130 1.267 . S
C245 C87 1.311 . S
C267 C145 1.307 . S
C263 C30 1.365 . S
C281 C51 1.315 . S
C285 C154 1.280 . S
C299 C84 1.366 . S
C303 C169 1.331 . S
C317 C10 1.436 . S
C321 C181 1.392 . S
C335 C59 1.290 1_556 S
C339 C178 1.296 . S
C357 C142 1.272 . S
C353 C74 1.271 . S
C375 C157 1.331 . S
C371 C18 1.363 . S
C389 C32 1.292 . S
C393 C166 1.238 . S
C411 C106 1.252 . S
C407 C73 1.270 . S
C425 C15 1.324 . S
C429 C118 1.273 . S
C447 C133 1.367 . S
C443 C43 1.391 . S
C465 C94 1.254 . S
C461 C62 1.269 . S
C483 C164 1.369 . S
C479 C21 1.373 . S
C501 C176 1.412 . S
C497 C29 1.428 . S
C515 C52 1.384 . S
C519 C140 1.372 . S
C537 C152 1.369 . S
C533 C81 1.393 . S
C555 C116 1.372 . S
C551 C40 1.394 . S
C569 C65 1.390 . S
C573 C128 1.375 . S
C591 C92 1.384 . S
C587 C76 1.394 . S
C609 C104 1.379 . S
C605 C8 1.395 . S
