# Generated by pormake.
# Topology pts, (4,4)-cn, num edge types: 1
# Building blocks:
#     Node 0, Type 0, BuildingBlock: NAHDIM_clean_linker_0, # of connection points: 4
#     Node 1, Type 0, BuildingBlock: NAHDIM_clean_linker_0, # of connection points: 4
#     Node 2, Type 1, BuildingBlock: AZAVOO_clean_sbu_0, # of connection points: 4
#     Node 3, Type 1, BuildingBlock: AZAVOO_clean_sbu_0, # of connection points: 4
#     Edge 4, Type (0, 1), BuildingBlock: FUNLAD_clean_linker_0, # of connection points: 2
#     Edge 5, Type (0, 1), BuildingBlock: FUNLAD_clean_linker_0, # of connection points: 2
#     Edge 6, Type (0, 1), BuildingBlock: FUNLAD_clean_linker_0, # of connection points: 2
#     Edge 7, Type (0, 1), BuildingBlock: FUNLAD_clean_linker_0, # of connection points: 2
#     Edge 8, Type (0, 1), BuildingBlock: FUNLAD_clean_linker_0, # of connection points: 2
#     Edge 9, Type (0, 1), BuildingBlock: FUNLAD_clean_linker_0, # of connection points: 2
#     Edge 10, Type (0, 1), BuildingBlock: FUNLAD_clean_linker_0, # of connection points: 2
#     Edge 11, Type (0, 1), BuildingBlock: FUNLAD_clean_linker_0, # of connection points: 2
# Relax obj value: 0.016
# Max RMSD: 0.067
# Mean RMSD: 0.062
data_MOF--net-pts--node1-AZAVOO_clean_sbu_0--node2-NAHDIM_clean_linker_0--edge1-FUNLAD_clean_linker_0
_symmetry_space_group_name_H-M    P1
_symmetry_Int_Tables_number       1
_symmetry_cell_setting            triclinic
loop_
_symmetry_equiv_pos_as_xyz
'x, y, z'
_cell_length_a     35.473751
_cell_length_b     36.141939
_cell_length_c     59.055938
_cell_angle_alpha  90.401157
_cell_angle_beta   95.524081
_cell_angle_gamma 89.969001
loop_
_atom_site_label
_atom_site_type_symbol
_atom_site_fract_x
_atom_site_fract_y
_atom_site_fract_z
_atom_type_partial_charge
C0 C 0.71257 0.94217 0.13542 0.0
C1 C 0.73545 0.9666 0.12054 0.0
C2 C 0.68371 0.99936 0.09802 0.0
C3 C 0.67074 0.96897 0.08441 0.0
C4 C 0.63755 0.9715 0.06948 0.0
C5 C 0.61718 0.00518 0.06786 0.0
C6 C 0.63066 0.03609 0.08105 0.0
C7 C 0.66379 0.03273 0.09595 0.0
C8 C 0.62396 0.938 0.05562 0.0
C9 C 0.60983 0.07252 0.07955 0.0
C10 C 0.31872 0.98093 0.06839 0.0
C11 C 0.34404 0.99859 0.08797 0.0
C12 C 0.40999 0.98531 0.08139 0.0
C13 C 0.42325 0.02122 0.07781 0.0
C14 C 0.4568 0.0268 0.06746 0.0
C15 C 0.47755 0.99588 0.06063 0.0
C16 C 0.46481 0.95971 0.06479 0.0
C17 C 0.43133 0.95493 0.07534 0.0
C18 C 0.47021 0.06577 0.0639 0.0
C19 C 0.48639 0.92614 0.05789 0.0
C20 C 0.40232 0.02451 0.91271 0.0
C21 C 0.41289 0.05694 0.92505 0.0
C22 C 0.448 0.05938 0.93818 0.0
C23 C 0.47281 0.02864 0.93932 0.0
C24 C 0.46263 0.9963 0.92654 0.0
C25 C 0.42764 0.99484 0.91325 0.0
C26 C 0.45833 0.09462 0.95118 0.0
C27 C 0.48841 0.96302 0.92728 0.0
C28 C 0.77032 0.07493 0.94578 0.0
C29 C 0.74722 0.05805 0.92501 0.0
C30 C 0.67986 0.06668 0.9294 0.0
C31 C 0.65674 0.09461 0.93691 0.0
C32 C 0.62285 0.08613 0.94622 0.0
C33 C 0.6116 0.04873 0.94767 0.0
C34 C 0.63402 0.02041 0.93916 0.0
C35 C 0.66788 0.02968 0.93001 0.0
C36 C 0.59938 0.11703 0.95489 0.0
C37 C 0.62231 0.98035 0.93991 0.0
C38 C 0.58122 0.00768 0.0528 0.0
C39 C 0.54734 0.00112 0.0624 0.0
C40 C 0.51253 0.00153 0.04912 0.0
C41 C 0.51136 0.00799 0.02546 0.0
C42 C 0.47703 0.00703 0.01142 0.0
C43 C 0.47611 0.0137 0.9882 0.0
C44 C 0.50941 0.02216 0.97815 0.0
C45 C 0.50864 0.02968 0.95461 0.0
C46 C 0.54229 0.03821 0.94522 0.0
C47 C 0.57696 0.03919 0.95868 0.0
C48 C 0.57832 0.03136 0.9822 0.0
C49 C 0.61275 0.03169 0.9962 0.0
C50 C 0.61382 0.02382 0.01929 0.0
C51 C 0.58046 0.01568 0.02934 0.0
C52 C 0.5454 0.01555 0.0156 0.0
C53 C 0.54438 0.02304 0.99196 0.0
C54 C 0.31834 0.03703 0.92315 0.0
C55 C 0.33633 0.04262 0.90082 0.0
O56 O 0.71477 0.99775 0.11347 0.0
O57 O 0.71292 0.07653 0.9212 0.0
O58 O 0.36816 0.02039 0.90028 0.0
O59 O 0.37767 0.97884 0.09137 0.0
H60 H 0.74264 0.95052 0.10541 0.0
H61 H 0.68631 0.93196 0.12568 0.0
H62 H 0.70452 0.95802 0.15041 0.0
H63 H 0.72954 0.91767 0.14145 0.0
H64 H 0.68602 0.94306 0.08544 0.0
H65 H 0.67407 0.05612 0.10635 0.0
H66 H 0.59469 0.93087 0.05922 0.0
H67 H 0.64243 0.9135 0.05925 0.0
H68 H 0.62313 0.94439 0.03722 0.0
H69 H 0.62513 0.09453 0.08996 0.0
H70 H 0.58132 0.06896 0.08551 0.0
H71 H 0.60575 0.08168 0.06157 0.0
H72 H 0.34929 0.02765 0.08318 0.0
H73 H 0.29152 0.99624 0.06553 0.0
H74 H 0.31271 0.95154 0.07214 0.0
H75 H 0.33309 0.98194 0.05251 0.0
H76 H 0.40812 0.04499 0.0835 0.0
H77 H 0.42126 0.92734 0.07856 0.0
H78 H 0.49978 0.06915 0.07169 0.0
H79 H 0.45209 0.08684 0.07132 0.0
H80 H 0.47014 0.07109 0.0454 0.0
H81 H 0.4719 0.89987 0.06146 0.0
H82 H 0.5151 0.92609 0.06721 0.0
H83 H 0.48999 0.92728 0.03943 0.0
H84 H 0.34445 0.07214 0.8993 0.0
H85 H 0.39397 0.08043 0.92467 0.0
H86 H 0.41944 0.97005 0.90358 0.0
H87 H 0.45864 0.08946 0.9697 0.0
H88 H 0.43805 0.11739 0.94655 0.0
H89 H 0.48721 0.10372 0.94791 0.0
H90 H 0.47574 0.93946 0.91703 0.0
H91 H 0.49491 0.95389 0.94515 0.0
H92 H 0.51562 0.97063 0.9207 0.0
H93 H 0.74286 0.02846 0.929 0.0
H94 H 0.79832 0.06106 0.94867 0.0
H95 H 0.75503 0.07105 0.96114 0.0
H96 H 0.77473 0.10505 0.94349 0.0
H97 H 0.66584 0.12313 0.93595 0.0
H98 H 0.68449 0.00798 0.9231 0.0
H99 H 0.59682 0.11323 0.97332 0.0
H100 H 0.57035 0.11615 0.94601 0.0
H101 H 0.61183 0.14472 0.95234 0.0
H102 H 0.64212 0.96166 0.93188 0.0
H103 H 0.59346 0.97678 0.93107 0.0
H104 H 0.62115 0.97188 0.95787 0.0
H105 H 0.54807 0.9956 0.08048 0.0
H106 H 0.45046 0.00092 0.01822 0.0
H107 H 0.44885 0.01237 0.97827 0.0
H108 H 0.54149 0.04414 0.92719 0.0
H109 H 0.63932 0.03792 0.98945 0.0
H110 H 0.64112 0.0244 0.02921 0.0
H111 H 0.31044 0.00754 0.92507 0.0
H112 H 0.29257 0.05445 0.92346 0.0
H113 H 0.33841 0.04513 0.93792 0.0
C114 C 0.13894 0.40477 0.66078 0.0
C115 C 0.1111 0.39386 0.64046 0.0
C116 C 0.11237 0.41948 0.60268 0.0
C117 C 0.07458 0.41419 0.59401 0.0
C118 C 0.05799 0.43661 0.57647 0.0
C119 C 0.07948 0.46543 0.56784 0.0
C120 C 0.11802 0.47001 0.57615 0.0
C121 C 0.1342 0.44628 0.59314 0.0
C122 C 0.01711 0.43028 0.56772 0.0
C123 C 0.14163 0.501 0.56792 0.0
C124 C 0.90714 0.63531 0.6379 0.0
C125 C 0.94209 0.64285 0.62539 0.0
C126 C 0.95334 0.61893 0.58821 0.0
C127 C 0.99261 0.62367 0.58884 0.0
C128 C 0.01408 0.60181 0.57513 0.0
C129 C 0.99592 0.57398 0.561 0.0
C130 C 0.95609 0.56969 0.56008 0.0
C131 C 0.9352 0.59298 0.57332 0.0
C132 C 0.05632 0.60783 0.57625 0.0
C133 C 0.9357 0.53963 0.54586 0.0
C134 C 0.96633 0.63026 0.4127 0.0
C135 C 1.00126 0.64016 0.42437 0.0
C136 C 0.02315 0.61394 0.43722 0.0
C137 C 0.00936 0.57737 0.43879 0.0
C138 C 0.97476 0.56711 0.42639 0.0
C139 C 0.95398 0.59365 0.4132 0.0
C140 C 0.06072 0.62546 0.44938 0.0
C141 C 0.9593 0.52833 0.42748 0.0
C142 C 0.21707 0.35275 0.42363 0.0
C143 C 0.17457 0.36055 0.42257 0.0
C144 C 0.14391 0.42041 0.42488 0.0
C145 C 0.15504 0.4572 0.42835 0.0
C146 C 0.13233 0.4824 0.43908 0.0
C147 C 0.0969 0.47069 0.44567 0.0
C148 C 0.08458 0.43388 0.44103 0.0
C149 C 0.10856 0.40893 0.43104 0.0
C150 C 0.14647 0.52139 0.44361 0.0
C151 C 0.04618 0.42081 0.44664 0.0
C152 C 0.06036 0.49333 0.55231 0.0
C153 C 0.03811 0.51982 0.56207 0.0
C154 C 0.01901 0.54725 0.54898 0.0
C155 C 0.02199 0.54843 0.52529 0.0
C156 C 0.00322 0.57565 0.51157 0.0
C157 C 0.00552 0.57599 0.48819 0.0
C158 C 0.02762 0.54979 0.47769 0.0
C159 C 0.03039 0.55015 0.45395 0.0
C160 C 0.05288 0.52391 0.44412 0.0
C161 C 0.07285 0.49705 0.45733 0.0
C162 C 0.07013 0.496 0.48109 0.0
C163 C 0.08957 0.46926 0.49495 0.0
C164 C 0.08598 0.46794 0.51821 0.0
C165 C 0.06379 0.49404 0.52865 0.0
C166 C 0.04441 0.52166 0.51509 0.0
C167 C 0.0474 0.52248 0.49127 0.0
C168 C 0.89724 0.70154 0.40489 0.0
C169 C 0.93943 0.69196 0.40728 0.0
O170 O 0.1281 0.39971 0.62059 0.0
O171 O 0.16785 0.39666 0.41559 0.0
O172 O 0.94382 0.65534 0.40094 0.0
O173 O 0.93249 0.63842 0.60222 0.0
H174 H 0.08584 0.41215 0.641 0.0
H175 H 0.14682 0.43437 0.6595 0.0
H176 H 0.16513 0.38777 0.6612 0.0
H177 H 0.1258 0.40091 0.67695 0.0
H178 H 0.05802 0.39276 0.60113 0.0
H179 H 0.16348 0.44984 0.59991 0.0
H180 H 0.99934 0.45223 0.57454 0.0
H181 H 0.00662 0.403 0.573 0.0
H182 H 0.01345 0.43191 0.54886 0.0
H183 H 0.17012 0.50261 0.57749 0.0
H184 H 0.127 0.52791 0.56964 0.0
H185 H 0.14527 0.4968 0.54964 0.0
H186 H 0.96386 0.62197 0.63151 0.0
H187 H 0.91422 0.63806 0.65658 0.0
H188 H 0.89687 0.60668 0.63412 0.0
H189 H 0.88398 0.65496 0.63241 0.0
H190 H 0.00643 0.64437 0.60012 0.0
H191 H 0.90477 0.58979 0.57295 0.0
H192 H 0.06591 0.60738 0.55889 0.0
H193 H 0.07103 0.58508 0.58606 0.0
H194 H 0.06496 0.6345 0.58466 0.0
H195 H 0.90561 0.53696 0.54936 0.0
H196 H 0.95 0.51258 0.54913 0.0
H197 H 0.93643 0.54594 0.52755 0.0
H198 H 0.94943 0.69593 0.42562 0.0
H199 H 0.01147 0.66828 0.42339 0.0
H200 H 0.92722 0.58624 0.40385 0.0
H201 H 0.05845 0.62638 0.46799 0.0
H202 H 0.0698 0.65317 0.44395 0.0
H203 H 0.08294 0.60492 0.44621 0.0
H204 H 0.93087 0.52541 0.41796 0.0
H205 H 0.95731 0.5205 0.44548 0.0
H206 H 0.97894 0.50856 0.42023 0.0
H207 H 0.16652 0.35708 0.44024 0.0
H208 H 0.22316 0.32392 0.4293 0.0
H209 H 0.2326 0.37194 0.43601 0.0
H210 H 0.2277 0.35677 0.40672 0.0
H211 H 0.18224 0.46581 0.42328 0.0
H212 H 0.0995 0.38062 0.4278 0.0
H213 H 0.1441 0.52918 0.46165 0.0
H214 H 0.12866 0.54089 0.43279 0.0
H215 H 0.17639 0.52481 0.43992 0.0
H216 H 0.03826 0.39383 0.43839 0.0
H217 H 0.02408 0.44153 0.44118 0.0
H218 H 0.04645 0.4175 0.46532 0.0
H219 H 0.03559 0.51906 0.58024 0.0
H220 H 0.98622 0.59681 0.51874 0.0
H221 H 0.9899 0.59726 0.47848 0.0
H222 H 0.05488 0.52442 0.4259 0.0
H223 H 0.10755 0.44878 0.48794 0.0
H224 H 0.10106 0.44636 0.52795 0.0
H225 H 0.89299 0.73081 0.40995 0.0
H226 H 0.88206 0.6835 0.41616 0.0
H227 H 0.88471 0.69731 0.38708 0.0
Mg228 Mg 0.09087 0.01226 0.28616 0.0
O229 O 0.03187 0.01543 0.26603 0.0
O230 O 0.98936 0.01902 0.29153 0.0
Mg231 Mg 0.02006 0.01804 0.32729 0.0
C232 C 0.99763 0.0178 0.27097 0.0
C233 C 0.15356 0.01127 0.2541 0.0
O234 O 0.16921 0.99516 0.27255 0.0
O235 O 0.0889 0.074 0.29498 0.0
O236 O 0.04703 0.07437 0.32098 0.0
O237 O 0.08628 0.95053 0.28786 0.0
O238 O 0.06742 0.98884 0.31373 0.0
C239 C 0.07028 0.09107 0.30933 0.0
C240 C 0.0702 0.95542 0.30642 0.0
O241 O 0.1197 0.02291 0.2539 0.0
Mg242 Mg 0.98511 0.0139 0.72525 0.0
O243 O 0.04087 0.00998 0.74844 0.0
O244 O 0.08667 0.99396 0.72682 0.0
Mg245 Mg 0.06044 0.98824 0.68997 0.0
C246 C 0.07549 0.00238 0.74613 0.0
C247 C 0.92041 0.0298 0.75272 0.0
O248 O 0.90697 0.00966 0.73516 0.0
O249 O 0.00437 0.06935 0.71213 0.0
O250 O 0.04847 0.05106 0.68981 0.0
O251 O 0.97418 0.95399 0.72958 0.0
O252 O 0.00508 0.9765 0.70201 0.0
C253 C 0.02888 0.07652 0.69825 0.0
C254 C 0.99279 0.94807 0.71211 0.0
O255 O 0.95494 0.03976 0.75394 0.0
C256 C 0.30544 0.03064 0.11623 0.0
C257 C 0.32405 0.99863 0.10951 0.0
C258 C 0.28571 0.03052 0.13563 0.0
C259 C 0.28377 0.99814 0.1486 0.0
C260 C 0.30249 0.96622 0.14187 0.0
C261 C 0.32212 0.96632 0.12245 0.0
C262 C 0.26358 0.99678 0.16954 0.0
C263 C 0.23529 0.02002 0.17382 0.0
C264 C 0.21505 0.01794 0.19472 0.0
C265 C 0.17801 0.03192 0.19425 0.0
C266 C 0.15801 0.03008 0.21352 0.0
C267 C 0.17481 0.01447 0.23378 0.0
H268 H 0.26108 0.99331 0.21656 0.0
C269 C 0.21219 0.00131 0.23441 0.0
C270 C 0.23214 0.00313 0.21518 0.0
H271 H 0.22618 0.9895 0.24981 0.0
H272 H 0.3062 0.05584 0.10647 0.0
H273 H 0.27258 0.056 0.14051 0.0
H274 H 0.30163 0.94093 0.15156 0.0
H275 H 0.33572 0.94108 0.11749 0.0
H276 H 0.27125 0.97446 0.1813 0.0
H277 H 0.22505 0.04011 0.1611 0.0
H278 H 0.16429 0.04388 0.17882 0.0
H279 H 0.12932 0.04064 0.21249 0.0
C280 C 0.06643 0.34511 0.65269 0.0
C281 C 0.09939 0.35383 0.64242 0.0
C282 C 0.05715 0.3083 0.65669 0.0
C283 C 0.08095 0.27939 0.65072 0.0
C284 C 0.11337 0.28811 0.63991 0.0
C285 C 0.12275 0.32494 0.63601 0.0
C286 C 0.07306 0.23992 0.65547 0.0
C287 C 0.0537 0.22892 0.67284 0.0
C288 C 0.04751 0.18946 0.67866 0.0
C289 C 0.01915 0.18092 0.69286 0.0
C290 C 0.01294 0.14436 0.69923 0.0
C291 C 0.03514 0.11543 0.69162 0.0
H292 H 0.09302 0.16564 0.66098 0.0
C293 C 0.06373 0.124 0.67757 0.0
C294 C 0.06999 0.16049 0.67126 0.0
H295 H 0.08168 0.10253 0.67156 0.0
H296 H 0.04809 0.36688 0.65793 0.0
H297 H 0.0313 0.30275 0.6644 0.0
H298 H 0.13209 0.26639 0.63501 0.0
H299 H 0.14862 0.33087 0.62838 0.0
H300 H 0.08505 0.21953 0.64469 0.0
H301 H 0.04203 0.24962 0.68359 0.0
H302 H 0.00162 0.20263 0.69902 0.0
H303 H 0.99074 0.13884 0.71012 0.0
C304 C 0.77261 0.00744 0.14996 0.0
C305 C 0.77201 0.9781 0.13417 0.0
C306 C 0.80542 0.01536 0.16423 0.0
C307 C 0.83822 0.99357 0.16337 0.0
C308 C 0.83789 0.96499 0.14712 0.0
C309 C 0.8051 0.95714 0.13281 0.0
C310 C 0.87286 0.99909 0.17942 0.0
C311 C 0.8721 0.01445 0.20025 0.0
C312 C 0.90537 0.0164 0.21765 0.0
C313 C 0.89862 0.02115 0.24052 0.0
C314 C 0.92853 0.02197 0.25768 0.0
C315 C 0.9662 0.01832 0.25244 0.0
H316 H 0.94973 0.01108 0.19481 0.0
C317 C 0.97318 0.01454 0.22948 0.0
C318 C 0.94311 0.01366 0.21225 0.0
H319 H 0.00185 0.012 0.22479 0.0
H320 H 0.74743 0.02385 0.15156 0.0
H321 H 0.80475 0.03841 0.17596 0.0
H322 H 0.86273 0.94788 0.14595 0.0
H323 H 0.80531 0.93406 0.12102 0.0
H324 H 0.899 0.98711 0.17458 0.0
H325 H 0.84519 0.02349 0.20568 0.0
H326 H 0.86993 0.02366 0.24522 0.0
H327 H 0.92196 0.02518 0.27512 0.0
C328 C 0.98563 0.68669 0.64881 0.0
C329 C 0.95692 0.68143 0.63098 0.0
C330 C 0.99661 0.72232 0.65602 0.0
C331 C 0.97873 0.7535 0.64569 0.0
C332 C 0.95109 0.74825 0.62727 0.0
C333 C 0.93998 0.71258 0.62012 0.0
C334 C 0.98718 0.7917 0.65419 0.0
C335 C 0.99761 0.79933 0.67629 0.0
C336 C 1.00007 0.83759 0.68564 0.0
C337 C 0.99131 0.84366 0.70804 0.0
C338 C 0.9901 0.87952 0.71689 0.0
C339 C 0.99836 0.91007 0.70365 0.0
H340 H 0.01794 0.86421 0.65559 0.0
C341 C 0.00922 0.90392 0.68166 0.0
C342 C 0.00996 0.86801 0.67269 0.0
H343 H 0.01593 0.92692 0.67109 0.0
H344 H 0.99903 0.66315 0.65753 0.0
H345 H 0.01881 0.72527 0.66983 0.0
H346 H 0.937 0.77179 0.61893 0.0
H347 H 0.91746 0.70933 0.60652 0.0
H348 H 0.98065 0.81428 0.64241 0.0
H349 H 1.00037 0.77688 0.68847 0.0
H350 H 0.984 0.82067 0.71846 0.0
H351 H 0.98191 0.88334 0.73395 0.0
C352 C 0.28325 0.06087 0.87136 0.0
C353 C 0.30759 0.03323 0.88092 0.0
C354 C 0.2552 0.05238 0.85383 0.0
C355 C 0.2506 0.01586 0.84559 0.0
C356 C 0.27502 0.98826 0.85505 0.0
C357 C 0.30287 0.9967 0.87274 0.0
C358 C 0.22153 0.00604 0.82665 0.0
C359 C 0.18835 0.02421 0.82281 0.0
C360 C 0.15953 0.01569 0.80348 0.0
C361 C 0.1217 0.02591 0.80515 0.0
C362 C 0.09418 0.02057 0.78681 0.0
C363 C 0.10399 0.00532 0.7662 0.0
H364 H 0.19826 0.99244 0.78079 0.0
C365 C 0.14182 0.99469 0.76461 0.0
C366 C 0.16928 -0.00019 0.783 0.0
H367 H 0.15047 0.983 0.74899 0.0
H368 H 0.28592 0.08913 0.87753 0.0
H369 H 0.23757 0.07459 0.84659 0.0
H370 H 0.27218 0.95995 0.84896 0.0
H371 H 0.32062 0.97462 0.88008 0.0
H372 H 0.22715 0.98217 0.81623 0.0
H373 H 0.18133 0.04566 0.83468 0.0
H374 H 0.11343 0.03843 0.82064 0.0
H375 H 0.0654 0.02925 0.78865 0.0
C376 C 0.13227 0.30471 0.4155 0.0
C377 C 0.1528 0.33345 0.40659 0.0
C378 C 0.11468 0.27769 0.40117 0.0
C379 C 0.11767 0.27836 0.37764 0.0
C380 C 0.13734 0.30776 0.36857 0.0
C381 C 0.15477 0.33502 0.38295 0.0
C382 C 0.10031 0.24748 0.36348 0.0
C383 C 0.11177 0.23674 0.3433 0.0
C384 C 0.09806 0.20191 0.33164 0.0
C385 C 0.12214 0.18245 0.31822 0.0
C386 C 0.11226 0.14714 0.30969 0.0
C387 C 0.07802 0.1307 0.31445 0.0
H388 H 0.04225 0.20153 0.34399 0.0
C389 C 0.05268 0.15141 0.32636 0.0
C390 C 0.06241 0.1867 0.3347 0.0
H391 H 0.02568 0.13989 0.32987 0.0
H392 H 0.13035 0.30276 0.43365 0.0
H393 H 0.09951 0.25557 0.40863 0.0
H394 H 0.13942 0.30985 0.35047 0.0
H395 H 0.17038 0.35699 0.37567 0.0
H396 H 0.07977 0.23069 0.37124 0.0
H397 H 0.13479 0.25131 0.33639 0.0
H398 H 0.14952 0.19376 0.31528 0.0
H399 H 0.13232 0.13201 0.30046 0.0
C400 C 0.78151 0.02818 0.89396 0.0
C401 C 0.76868 0.06052 0.90409 0.0
C402 C 0.8021 0.03022 0.875 0.0
C403 C 0.81041 0.06471 0.86574 0.0
C404 C 0.79802 0.09707 0.87602 0.0
C405 C 0.77702 0.09501 0.89486 0.0
C406 C 0.83284 0.06753 0.84581 0.0
C407 C 0.83055 0.04185 0.82911 0.0
C408 C 0.85298 0.04281 0.80913 0.0
C409 C 0.83888 0.02385 0.78932 0.0
C410 C 0.86027 0.02104 0.77077 0.0
C411 C 0.89667 0.03666 0.77166 0.0
H412 H 0.90107 0.07377 0.82504 0.0
C413 C 0.91061 0.05644 0.79129 0.0
C414 C 0.88895 0.05955 0.80988 0.0
H415 H 0.93861 0.06866 0.79255 0.0
H416 H 0.77585 0.00124 0.90081 0.0
H417 H 0.81214 0.00474 0.86793 0.0
H418 H 0.80427 0.12397 0.86932 0.0
H419 H 0.76751 0.12038 0.90235 0.0
H420 H 0.85016 0.09204 0.84442 0.0
H421 H 0.81024 0.01943 0.82962 0.0
H422 H 0.81137 0.0106 0.7883 0.0
H423 H 0.84857 0.00559 0.75595 0.0
C424 C 0.98261 0.74647 0.40294 0.0
C425 C 0.96075 0.7174 0.39275 0.0
C426 C 0.9994 0.77234 0.3896 0.0
C427 C 0.99411 0.77006 0.36569 0.0
C428 C 0.97352 0.74011 0.35553 0.0
C429 C 0.95682 0.71413 0.36891 0.0
C430 C 0.00929 0.7986 0.35092 0.0
C431 C 0.01482 0.83404 0.35774 0.0
C432 C 0.02842 0.86422 0.3435 0.0
C433 C 0.02634 0.90073 0.35158 0.0
C434 C 0.03946 0.93021 0.3394 0.0
C435 C 0.05501 0.92402 0.31872 0.0
H436 H 0.04704 0.83031 0.31602 0.0
C437 C 0.05711 0.88757 0.31049 0.0
C438 C 0.04407 0.85791 0.32276 0.0
H439 H 0.06927 0.88186 0.29469 0.0
H440 H 0.98626 0.74953 0.42128 0.0
H441 H 0.01634 0.79409 0.39815 0.0
H442 H 0.96937 0.73741 0.33718 0.0
H443 H 0.94003 0.69199 0.36063 0.0
H444 H 0.01345 0.79047 0.33363 0.0
H445 H 0.00751 0.84211 0.37452 0.0
H446 H 0.0147 0.90655 0.36753 0.0
H447 H 0.03785 0.95781 0.34645 0.0
loop_
_geom_bond_atom_site_label_1
_geom_bond_atom_site_label_2
_geom_bond_distance
_geom_bond_site_symmetry_2
_ccdc_geom_bond_type
C0 C1 1.560 . S
C0 H61 0.959 . S
C0 H62 0.959 . S
C0 H63 0.960 . S
C1 C0 1.560 . S
C1 O56 1.426 . S
C1 H60 0.980 . S
C2 C3 1.407 1_545 S
C2 C7 1.418 . S
C2 O56 1.334 . S
C3 C2 1.407 1_565 S
C3 C4 1.360 . S
C3 H64 0.929 . S
C4 C3 1.360 . S
C4 C5 1.401 1_565 S
C4 C8 1.527 . S
C5 C4 1.401 1_545 S
C5 C6 1.405 . S
C5 C38 1.587 1_545 S
C6 C5 1.405 . S
C6 C7 1.332 . S
C6 C9 1.496 . S
C7 C2 1.418 . S
C7 C6 1.332 . S
C7 H65 0.929 . S
C8 C4 1.527 . S
C8 H66 0.959 . S
C8 H67 0.961 . S
C8 H68 0.961 . S
C9 C6 1.496 . S
C9 H69 0.960 . S
C9 H70 0.960 . S
C9 H71 0.961 . S
C10 C11 1.517 . S
C10 H73 0.937 1_565 S
C10 H74 0.960 . S
C10 H75 0.959 . S
C11 C10 1.517 . S
C11 O59 1.468 . S
C11 H72 0.980 1_565 S
C12 C13 1.327 1_565 S
C12 C17 1.367 . S
C12 O59 1.408 . S
C13 C12 1.327 1_545 S
C13 C14 1.412 . S
C13 H76 0.949 . S
C14 C13 1.412 . S
C14 C15 1.449 1_545 S
C14 C18 1.535 . S
C15 C14 1.449 1_565 S
C15 C16 1.384 . S
C15 C40 1.553 . S
C16 C15 1.384 . S
C16 C17 1.364 . S
C16 C19 1.450 . S
C17 C12 1.367 . S
C17 C16 1.364 . S
C17 H77 0.931 . S
C18 C14 1.535 . S
C18 H78 0.959 . S
C18 H79 0.961 . S
C18 H80 0.959 . S
C19 C16 1.450 . S
C19 H81 0.960 . S
C19 H82 0.960 . S
C19 H83 0.960 . S
C20 C21 1.309 1_565 S
C20 C25 1.304 . S
C20 O58 1.435 . S
C21 C20 1.309 1_545 S
C21 C22 1.476 . S
C21 H85 0.930 . S
C22 C21 1.476 . S
C22 C23 1.400 1_545 S
C22 C26 1.567 . S
C23 C22 1.400 1_565 S
C23 C24 1.373 . S
C23 C45 1.432 . S
C24 C23 1.373 . S
C24 C25 1.339 . S
C24 C27 1.530 . S
C25 C20 1.304 . S
C25 C24 1.339 . S
C25 H86 0.930 . S
C26 C22 1.567 . S
C26 H87 0.961 . S
C26 H88 0.960 . S
C26 H89 0.958 . S
C27 C24 1.530 . S
C27 H90 0.961 . S
C27 H91 0.960 . S
C27 H92 0.960 . S
C28 C29 1.530 . S
C28 H94 0.961 . S
C28 H95 0.961 . S
C28 H96 0.959 . S
C29 C28 1.530 . S
C29 O57 1.412 . S
C29 H93 0.980 . S
C30 C31 1.288 . S
C30 C35 1.377 1_545 S
C30 O57 1.393 . S
C31 C30 1.288 . S
C31 C32 1.369 . S
C31 H97 0.932 . S
C32 C31 1.369 . S
C32 C33 1.398 . S
C32 C36 1.527 . S
C33 C32 1.398 . S
C33 C34 1.380 1_545 S
C33 C47 1.497 . S
C34 C33 1.380 1_565 S
C34 C35 1.383 . S
C34 C37 1.603 . S
C35 C30 1.377 1_565 S
C35 C34 1.383 . S
C35 H98 0.929 . S
C36 C32 1.527 . S
C36 H99 0.961 . S
C36 H100 0.959 . S
C36 H101 0.959 . S
C37 C34 1.603 . S
C37 H102 0.960 . S
C37 H103 0.962 . S
C37 H104 0.961 . S
C38 C5 1.587 1_565 S
C38 C39 1.360 . S
C38 C51 1.412 . S
C39 C38 1.360 . S
C39 C40 1.365 . S
C39 H105 0.929 . S
C40 C15 1.553 . S
C40 C39 1.365 . S
C40 C41 1.404 . S
C41 C40 1.404 . S
C41 C42 1.395 . S
C41 C52 1.451 . S
C42 C41 1.395 . S
C42 C43 1.314 1_554 S
C42 H106 0.930 . S
C43 C42 1.314 1_556 S
C43 C44 1.463 . S
C43 H107 0.932 . S
C44 C43 1.463 . S
C44 C45 1.445 . S
C44 C53 1.395 . S
C45 C23 1.432 . S
C45 C44 1.445 . S
C45 C46 1.370 . S
C46 C45 1.370 . S
C46 C47 1.438 1_565 S
C46 H108 0.930 . S
C47 C33 1.497 . S
C47 C46 1.438 1_545 S
C47 C48 1.360 1_545 S
C48 C47 1.360 1_565 S
C48 C49 1.401 1_565 S
C48 C53 1.446 . S
C49 C48 1.401 1_545 S
C49 C50 1.347 1_556 S
C49 H109 0.929 . S
C50 C49 1.347 1_554 S
C50 C51 1.455 1_545 S
C50 H110 0.930 . S
C51 C38 1.412 . S
C51 C50 1.455 1_565 S
C51 C52 1.331 . S
C52 C41 1.451 . S
C52 C51 1.331 . S
C52 C53 1.497 1_554 S
C53 C44 1.395 . S
C53 C48 1.446 . S
C53 C52 1.497 1_556 S
C54 C55 1.569 1_565 S
C54 H111 0.962 . S
C54 H112 0.959 . S
C54 H113 0.958 . S
C55 C54 1.569 1_545 S
C55 O58 1.438 1_545 S
C55 H84 0.988 . S
O56 C1 1.426 . S
O56 C2 1.334 . S
O57 C29 1.412 . S
O57 C30 1.393 . S
O58 C20 1.435 . S
O58 C55 1.438 1_565 S
O59 C11 1.468 . S
O59 C12 1.408 . S
H60 C1 0.980 . S
H61 C0 0.959 . S
H62 C0 0.959 . S
H63 C0 0.960 . S
H64 C3 0.929 . S
H65 C7 0.929 . S
H66 C8 0.959 . S
H67 C8 0.961 . S
H68 C8 0.961 . S
H69 C9 0.960 . S
H70 C9 0.960 . S
H71 C9 0.961 . S
H72 C11 0.980 1_545 S
H73 C10 0.937 1_545 S
H74 C10 0.960 . S
H75 C10 0.959 . S
H76 C13 0.949 . S
H77 C17 0.931 . S
H78 C18 0.959 . S
H79 C18 0.961 . S
H80 C18 0.959 . S
H81 C19 0.960 . S
H82 C19 0.960 . S
H83 C19 0.960 . S
H84 C55 0.988 . S
H85 C21 0.930 . S
H86 C25 0.930 . S
H87 C26 0.961 . S
H88 C26 0.960 . S
H89 C26 0.958 . S
H90 C27 0.961 . S
H91 C27 0.960 . S
H92 C27 0.960 . S
H93 C29 0.980 . S
H94 C28 0.961 . S
H95 C28 0.961 . S
H96 C28 0.959 . S
H97 C31 0.932 . S
H98 C35 0.929 . S
H99 C36 0.961 . S
H100 C36 0.959 . S
H101 C36 0.959 . S
H102 C37 0.960 . S
H103 C37 0.962 . S
H104 C37 0.961 . S
H105 C39 0.929 . S
H106 C42 0.930 . S
H107 C43 0.932 . S
H108 C46 0.930 . S
H109 C49 0.929 . S
H110 C50 0.930 . S
H111 C54 0.962 . S
H112 C54 0.959 . S
H113 C54 0.958 . S
C114 C115 1.560 . S
C114 H175 0.959 . S
C114 H176 0.959 . S
C114 H177 0.960 . S
C115 C114 1.560 . S
C115 O170 1.426 . S
C115 H174 0.980 . S
C116 C117 1.407 . S
C116 C121 1.418 . S
C116 O170 1.334 . S
C117 C116 1.407 . S
C117 C118 1.360 . S
C117 H178 0.929 . S
C118 C117 1.360 . S
C118 C119 1.401 . S
C118 C122 1.527 1_455 S
C119 C118 1.401 . S
C119 C120 1.405 . S
C119 C152 1.587 . S
C120 C119 1.405 . S
C120 C121 1.332 . S
C120 C123 1.496 . S
C121 C116 1.418 . S
C121 C120 1.332 . S
C121 H179 0.929 . S
C122 C118 1.527 1_655 S
C122 H180 0.959 . S
C122 H181 0.961 . S
C122 H182 0.961 . S
C123 C120 1.496 . S
C123 H183 0.960 . S
C123 H184 0.960 . S
C123 H185 0.961 . S
C124 C125 1.517 1_655 S
C124 H187 0.961 1_655 S
C124 H188 0.960 . S
C124 H189 0.959 . S
C125 C124 1.517 1_455 S
C125 O173 1.468 1_455 S
C125 H186 0.980 . S
C126 C127 1.349 1_655 S
C126 C131 1.367 . S
C126 O173 1.408 . S
C127 C126 1.349 1_455 S
C127 C128 1.407 . S
C127 H190 0.930 . S
C128 C127 1.407 . S
C128 C129 1.445 1_455 S
C128 C132 1.535 . S
C129 C128 1.445 1_655 S
C129 C130 1.389 . S
C129 C154 1.552 1_655 S
C130 C129 1.389 . S
C130 C131 1.364 . S
C130 C133 1.450 . S
C131 C126 1.367 . S
C131 C130 1.364 . S
C131 H191 0.931 . S
C132 C128 1.535 . S
C132 H192 0.959 . S
C132 H193 0.961 . S
C132 H194 0.959 . S
C133 C130 1.450 . S
C133 H195 0.960 . S
C133 H196 0.960 . S
C133 H197 0.960 . S
C134 C135 1.309 . S
C134 C139 1.304 1_455 S
C134 O172 1.435 . S
C135 C134 1.309 . S
C135 C136 1.476 . S
C135 H199 0.930 . S
C136 C135 1.476 . S
C136 C137 1.400 . S
C136 C140 1.567 . S
C137 C136 1.400 . S
C137 C138 1.373 1_455 S
C137 C159 1.432 . S
C138 C137 1.373 1_655 S
C138 C139 1.339 . S
C138 C141 1.530 . S
C139 C134 1.304 1_655 S
C139 C138 1.339 . S
C139 H200 0.930 . S
C140 C136 1.567 . S
C140 H201 0.961 . S
C140 H202 0.960 . S
C140 H203 0.958 . S
C141 C138 1.530 . S
C141 H204 0.961 . S
C141 H205 0.960 . S
C141 H206 0.960 . S
C142 C143 1.530 . S
C142 H208 0.961 . S
C142 H209 0.961 . S
C142 H210 0.959 . S
C143 C142 1.530 . S
C143 O171 1.412 . S
C143 H207 0.980 . S
C144 C145 1.288 . S
C144 C149 1.377 . S
C144 O171 1.393 . S
C145 C144 1.288 . S
C145 C146 1.369 . S
C145 H211 0.932 . S
C146 C145 1.369 . S
C146 C147 1.398 . S
C146 C150 1.527 . S
C147 C146 1.398 . S
C147 C148 1.380 . S
C147 C161 1.497 . S
C148 C147 1.380 . S
C148 C149 1.383 . S
C148 C151 1.603 1_455 S
C149 C144 1.377 . S
C149 C148 1.383 . S
C149 H212 0.929 . S
C150 C146 1.527 . S
C150 H213 0.961 . S
C150 H214 0.959 . S
C150 H215 0.959 . S
C151 C148 1.603 1_655 S
C151 H216 0.960 . S
C151 H217 0.962 . S
C151 H218 0.961 . S
C152 C119 1.587 . S
C152 C153 1.360 . S
C152 C165 1.412 . S
C153 C152 1.360 . S
C153 C154 1.365 . S
C153 H219 0.929 . S
C154 C129 1.552 1_455 S
C154 C153 1.365 . S
C154 C155 1.404 . S
C155 C154 1.404 . S
C155 C156 1.395 . S
C155 C166 1.451 . S
C156 C155 1.395 . S
C156 C157 1.322 . S
C156 H220 0.930 . S
C157 C156 1.322 . S
C157 C158 1.459 . S
C157 H221 0.929 . S
C158 C157 1.459 . S
C158 C159 1.445 . S
C158 C167 1.395 . S
C159 C137 1.432 . S
C159 C158 1.445 . S
C159 C160 1.370 . S
C160 C159 1.370 . S
C160 C161 1.438 . S
C160 H222 0.930 . S
C161 C147 1.497 . S
C161 C160 1.438 . S
C161 C162 1.360 . S
C162 C161 1.360 . S
C162 C163 1.401 . S
C162 C167 1.446 . S
C163 C162 1.401 . S
C163 C164 1.347 . S
C163 H223 0.929 . S
C164 C163 1.347 . S
C164 C165 1.455 . S
C164 H224 0.930 . S
C165 C152 1.412 . S
C165 C164 1.455 . S
C165 C166 1.331 . S
C166 C155 1.451 . S
C166 C165 1.331 . S
C166 C167 1.497 . S
C167 C158 1.395 . S
C167 C162 1.446 . S
C167 C166 1.497 . S
C168 C169 1.582 . S
C168 H225 0.962 . S
C168 H226 0.959 . S
C168 H227 0.958 . S
C169 C168 1.582 . S
C169 O172 1.458 . S
C169 H198 0.980 . S
O170 C115 1.426 . S
O170 C116 1.334 . S
O171 C143 1.412 . S
O171 C144 1.393 . S
O172 C134 1.435 . S
O172 C169 1.458 . S
O173 C125 1.468 1_655 S
O173 C126 1.408 . S
H174 C115 0.980 . S
H175 C114 0.959 . S
H176 C114 0.959 . S
H177 C114 0.960 . S
H178 C117 0.929 . S
H179 C121 0.929 . S
H180 C122 0.959 . S
H181 C122 0.961 . S
H182 C122 0.961 . S
H183 C123 0.960 . S
H184 C123 0.960 . S
H185 C123 0.961 . S
H186 C125 0.980 . S
H187 C124 0.961 1_455 S
H188 C124 0.960 . S
H189 C124 0.959 . S
H190 C127 0.930 . S
H191 C131 0.931 . S
H192 C132 0.959 . S
H193 C132 0.961 . S
H194 C132 0.959 . S
H195 C133 0.960 . S
H196 C133 0.960 . S
H197 C133 0.960 . S
H198 C169 0.980 . S
H199 C135 0.930 . S
H200 C139 0.930 . S
H201 C140 0.961 . S
H202 C140 0.960 . S
H203 C140 0.958 . S
H204 C141 0.961 . S
H205 C141 0.960 . S
H206 C141 0.960 . S
H207 C143 0.980 . S
H208 C142 0.961 . S
H209 C142 0.961 . S
H210 C142 0.959 . S
H211 C145 0.932 . S
H212 C149 0.929 . S
H213 C150 0.961 . S
H214 C150 0.959 . S
H215 C150 0.959 . S
H216 C151 0.960 . S
H217 C151 0.962 . S
H218 C151 0.961 . S
H219 C153 0.929 . S
H220 C156 0.930 . S
H221 C157 0.929 . S
H222 C160 0.930 . S
H223 C163 0.929 . S
H224 C164 0.930 . S
H225 C168 0.962 . S
H226 C168 0.959 . S
H227 C168 0.958 . S
Mg228 O229 2.028 . S
Mg228 O235 1.986 . S
Mg228 O237 2.114 1_545 S
Mg228 O238 2.251 1_545 S
Mg228 O241 2.010 . S
O229 Mg228 2.028 . S
O229 C232 1.250 . S
O230 Mg231 2.028 1_655 S
O230 C232 1.248 1_655 S
Mg231 O230 2.028 1_455 S
Mg231 O236 2.032 . S
Mg231 O238 2.079 1_545 S
C232 O229 1.250 . S
C232 O230 1.248 1_455 S
C233 O234 1.264 . S
C233 O241 1.249 . S
O234 C233 1.264 . S
O235 Mg228 1.986 . S
O235 C239 1.246 . S
O236 Mg231 2.032 . S
O236 C239 1.259 . S
O237 Mg228 2.114 1_565 S
O237 C240 1.252 . S
O238 Mg228 2.251 1_565 S
O238 Mg231 2.079 1_565 S
O238 C240 1.273 . S
C239 O235 1.246 . S
C239 O236 1.259 . S
C240 O237 1.252 . S
C240 O238 1.273 . S
O241 Mg228 2.010 . S
O241 C233 1.249 . S
Mg242 O243 2.028 1_655 S
Mg242 O249 1.986 . S
Mg242 O251 2.114 1_545 S
Mg242 O252 2.251 1_645 S
Mg242 O255 2.010 . S
O243 Mg242 2.028 1_455 S
O243 C246 1.250 . S
O244 Mg245 2.028 . S
O244 C246 1.248 . S
Mg245 O244 2.028 . S
Mg245 O250 2.032 . S
Mg245 O252 2.079 1_545 S
C246 O243 1.250 . S
C246 O244 1.248 . S
C247 O248 1.264 . S
C247 O255 1.249 . S
O248 C247 1.264 . S
O249 Mg242 1.986 . S
O249 C253 1.246 1_655 S
O250 Mg245 2.032 . S
O250 C253 1.259 . S
O251 Mg242 2.114 1_565 S
O251 C254 1.252 1_655 S
O252 Mg242 2.251 1_465 S
O252 Mg245 2.079 1_565 S
O252 C254 1.273 . S
C253 O249 1.246 1_455 S
C253 O250 1.259 . S
C254 O251 1.252 1_455 S
C254 O252 1.273 . S
O255 Mg242 2.010 . S
O255 C247 1.249 . S
C256 C257 1.386 . S
C256 C258 1.383 . S
C256 H272 0.951 . S
C257 C256 1.386 . S
C257 C261 1.383 1_545 S
C258 C256 1.383 . S
C258 C259 1.402 . S
C258 H273 0.951 . S
C259 C258 1.402 . S
C259 C260 1.375 1_545 S
C259 C262 1.481 . S
C260 C259 1.375 1_565 S
C260 C261 1.367 . S
C260 H274 0.951 . S
C261 C257 1.383 1_565 S
C261 C260 1.367 . S
C261 H275 0.950 . S
C262 C259 1.481 . S
C262 C263 1.297 . S
C262 H276 0.950 1_545 S
C263 C262 1.297 . S
C263 C264 1.479 . S
C263 H277 0.950 . S
C264 C263 1.479 . S
C264 C265 1.375 . S
C264 C270 1.399 1_545 S
C265 C264 1.375 . S
C265 C266 1.369 . S
C265 H278 0.950 . S
C266 C265 1.369 . S
C266 C267 1.392 . S
C266 H279 0.951 . S
C267 C266 1.392 . S
C267 C269 1.384 . S
H268 C270 0.961 . S
C269 C267 1.384 . S
C269 C270 1.379 1_545 S
C269 H271 0.950 . S
C270 C264 1.399 1_565 S
C270 H268 0.961 . S
C270 C269 1.379 1_565 S
H271 C269 0.950 . S
H272 C256 0.951 . S
H273 C258 0.951 . S
H274 C260 0.951 . S
H275 C261 0.950 . S
H276 C262 0.950 1_565 S
H277 C263 0.950 . S
H278 C265 0.950 . S
H279 C266 0.951 . S
C280 C281 1.386 . S
C280 C282 1.383 . S
C280 H296 0.951 . S
C281 C280 1.386 . S
C281 C285 1.383 . S
C282 C280 1.383 . S
C282 C283 1.402 . S
C282 H297 0.951 . S
C283 C282 1.402 . S
C283 C284 1.375 . S
C283 C286 1.481 . S
C284 C283 1.375 . S
C284 C285 1.367 . S
C284 H298 0.951 . S
C285 C281 1.383 . S
C285 C284 1.367 . S
C285 H299 0.950 . S
C286 C283 1.481 . S
C286 C287 1.297 . S
C286 H300 0.950 . S
C287 C286 1.297 . S
C287 C288 1.479 . S
C287 H301 0.951 1_455 S
C288 C287 1.479 . S
C288 C289 1.375 . S
C288 C294 1.404 . S
C289 C288 1.375 . S
C289 C290 1.369 . S
C289 H302 0.950 1_455 S
C290 C289 1.369 . S
C290 C291 1.392 . S
C290 H303 0.951 . S
C291 C290 1.392 . S
C291 C293 1.384 . S
H292 C294 0.949 . S
C293 C291 1.384 . S
C293 C294 1.385 . S
C293 H295 0.950 . S
C294 C288 1.404 . S
C294 H292 0.949 . S
C294 C293 1.385 . S
H295 C293 0.950 . S
H296 C280 0.951 . S
H297 C282 0.951 . S
H298 C284 0.951 . S
H299 C285 0.950 . S
H300 C286 0.950 . S
H301 C287 0.951 1_655 S
H302 C289 0.950 1_655 S
H303 C290 0.951 . S
C304 C305 1.386 . S
C304 C306 1.383 . S
C304 H320 0.951 . S
C305 C304 1.386 . S
C305 C309 1.383 1_545 S
C306 C304 1.383 . S
C306 C307 1.402 . S
C306 H321 0.951 . S
C307 C306 1.402 . S
C307 C308 1.375 1_545 S
C307 C310 1.481 . S
C308 C307 1.375 1_565 S
C308 C309 1.367 . S
C308 H322 0.951 . S
C309 C305 1.383 1_565 S
C309 C308 1.367 . S
C309 H323 0.950 . S
C310 C307 1.481 . S
C310 C311 1.297 . S
C310 H324 0.950 1_545 S
C311 C310 1.297 . S
C311 C312 1.479 . S
C311 H325 0.950 . S
C312 C311 1.479 . S
C312 C313 1.375 . S
C312 C318 1.404 1_545 S
C313 C312 1.375 . S
C313 C314 1.369 . S
C313 H326 0.950 . S
C314 C313 1.369 . S
C314 C315 1.392 . S
C314 H327 0.951 . S
C315 C314 1.392 . S
C315 C317 1.384 1_545 S
H316 C318 0.949 . S
C317 C315 1.384 1_565 S
C317 C318 1.385 . S
C317 H319 0.950 . S
C318 C312 1.404 1_565 S
C318 H316 0.949 . S
C318 C317 1.385 . S
H319 C317 0.950 . S
H320 C304 0.951 . S
H321 C306 0.951 . S
H322 C308 0.951 . S
H323 C309 0.950 . S
H324 C310 0.950 1_565 S
H325 C311 0.950 . S
H326 C313 0.950 . S
H327 C314 0.951 . S
C328 C329 1.386 . S
C328 C330 1.383 . S
C328 H344 0.951 . S
C329 C328 1.386 . S
C329 C333 1.383 1_455 S
C330 C328 1.383 . S
C330 C331 1.402 . S
C330 H345 0.951 . S
C331 C330 1.402 . S
C331 C332 1.375 1_455 S
C331 C334 1.481 . S
C332 C331 1.375 1_655 S
C332 C333 1.367 . S
C332 H346 0.951 . S
C333 C329 1.383 1_655 S
C333 C332 1.367 . S
C333 H347 0.950 . S
C334 C331 1.481 . S
C334 C335 1.297 . S
C334 H348 0.950 1_455 S
C335 C334 1.297 . S
C335 C336 1.479 . S
C335 H349 0.950 . S
C336 C335 1.479 . S
C336 C337 1.375 . S
C336 C342 1.404 . S
C337 C336 1.375 . S
C337 C338 1.369 . S
C337 H350 0.950 . S
C338 C337 1.369 . S
C338 C339 1.392 . S
C338 H351 0.951 . S
C339 C338 1.392 . S
C339 C341 1.384 1_455 S
H340 C342 0.949 1_655 S
C341 C339 1.384 1_655 S
C341 C342 1.385 1_655 S
C341 H343 0.950 . S
C342 C336 1.404 . S
C342 H340 0.949 1_455 S
C342 C341 1.385 1_455 S
H343 C341 0.950 . S
H344 C328 0.951 . S
H345 C330 0.951 . S
H346 C332 0.951 . S
H347 C333 0.950 . S
H348 C334 0.950 1_655 S
H349 C335 0.950 . S
H350 C337 0.950 . S
H351 C338 0.951 . S
C352 C353 1.386 . S
C352 C354 1.383 . S
C352 H368 0.951 . S
C353 C352 1.386 . S
C353 C357 1.383 . S
C354 C352 1.383 . S
C354 C355 1.402 . S
C354 H369 0.951 . S
C355 C354 1.402 . S
C355 C356 1.375 . S
C355 C358 1.481 . S
C356 C355 1.375 . S
C356 C357 1.367 . S
C356 H370 0.951 . S
C357 C353 1.383 . S
C357 C356 1.367 . S
C357 H371 0.950 . S
C358 C355 1.481 . S
C358 C359 1.297 . S
C358 H372 0.950 . S
C359 C358 1.297 . S
C359 C360 1.479 . S
C359 H373 0.950 . S
C360 C359 1.479 . S
C360 C361 1.375 . S
C360 C366 1.404 . S
C361 C360 1.375 . S
C361 C362 1.369 . S
C361 H374 0.950 . S
C362 C361 1.369 . S
C362 C363 1.392 . S
C362 H375 0.951 . S
C363 C362 1.392 . S
C363 C365 1.384 . S
H364 C366 0.949 . S
C365 C363 1.384 . S
C365 C366 1.385 . S
C365 H367 0.950 . S
C366 C360 1.404 . S
C366 H364 0.949 . S
C366 C365 1.385 . S
H367 C365 0.950 . S
H368 C352 0.951 . S
H369 C354 0.951 . S
H370 C356 0.951 . S
H371 C357 0.950 . S
H372 C358 0.950 . S
H373 C359 0.950 . S
H374 C361 0.950 . S
H375 C362 0.951 . S
C376 C377 1.386 . S
C376 C378 1.383 . S
C376 H392 0.951 . S
C377 C376 1.386 . S
C377 C381 1.383 . S
C378 C376 1.383 . S
C378 C379 1.402 . S
C378 H393 0.951 . S
C379 C378 1.402 . S
C379 C380 1.375 . S
C379 C382 1.481 . S
C380 C379 1.375 . S
C380 C381 1.367 . S
C380 H394 0.951 . S
C381 C377 1.383 . S
C381 C380 1.367 . S
C381 H395 0.950 . S
C382 C379 1.481 . S
C382 C383 1.297 . S
C382 H396 0.950 . S
C383 C382 1.297 . S
C383 C384 1.479 . S
C383 H397 0.950 . S
C384 C383 1.479 . S
C384 C385 1.375 . S
C384 C390 1.404 . S
C385 C384 1.375 . S
C385 C386 1.369 . S
C385 H398 0.950 . S
C386 C385 1.369 . S
C386 C387 1.392 . S
C386 H399 0.951 . S
C387 C386 1.392 . S
C387 C389 1.384 . S
H388 C390 0.949 . S
C389 C387 1.384 . S
C389 C390 1.385 . S
C389 H391 0.950 . S
C390 C384 1.404 . S
C390 H388 0.949 . S
C390 C389 1.385 . S
H391 C389 0.950 . S
H392 C376 0.951 . S
H393 C378 0.951 . S
H394 C380 0.951 . S
H395 C381 0.950 . S
H396 C382 0.950 . S
H397 C383 0.950 . S
H398 C385 0.950 . S
H399 C386 0.951 . S
C400 C401 1.386 1_565 S
C400 C402 1.383 . S
C400 H416 0.951 . S
C401 C400 1.386 1_545 S
C401 C405 1.383 . S
C402 C400 1.383 . S
C402 C403 1.402 1_565 S
C402 H417 0.951 . S
C403 C402 1.402 1_545 S
C403 C404 1.375 . S
C403 C406 1.481 . S
C404 C403 1.375 . S
C404 C405 1.367 . S
C404 H418 0.951 . S
C405 C401 1.383 . S
C405 C404 1.367 . S
C405 H419 0.950 . S
C406 C403 1.481 . S
C406 C407 1.297 . S
C406 H420 0.950 . S
C407 C406 1.297 . S
C407 C408 1.479 . S
C407 H421 0.950 1_545 S
C408 C407 1.479 . S
C408 C409 1.375 1_545 S
C408 C414 1.404 . S
C409 C408 1.375 1_565 S
C409 C410 1.369 . S
C409 H422 0.950 . S
C410 C409 1.369 . S
C410 C411 1.392 1_565 S
C410 H423 0.951 . S
C411 C410 1.392 1_545 S
C411 C413 1.384 . S
H412 C414 0.949 . S
C413 C411 1.384 . S
C413 C414 1.385 . S
C413 H415 0.950 . S
C414 C408 1.404 . S
C414 H412 0.949 . S
C414 C413 1.385 . S
H415 C413 0.950 . S
H416 C400 0.951 . S
H417 C402 0.951 . S
H418 C404 0.951 . S
H419 C405 0.950 . S
H420 C406 0.950 . S
H421 C407 0.950 1_565 S
H422 C409 0.950 . S
H423 C410 0.951 . S
C424 C425 1.386 . S
C424 C426 1.383 . S
C424 H440 0.951 . S
C425 C424 1.386 . S
C425 C429 1.383 . S
C426 C424 1.383 . S
C426 C427 1.402 . S
C426 H441 0.951 . S
C427 C426 1.402 . S
C427 C428 1.375 . S
C427 C430 1.481 . S
C428 C427 1.375 . S
C428 C429 1.367 . S
C428 H442 0.951 . S
C429 C425 1.383 . S
C429 C428 1.367 . S
C429 H443 0.950 . S
C430 C427 1.481 . S
C430 C431 1.297 . S
C430 H444 0.950 . S
C431 C430 1.297 . S
C431 C432 1.479 . S
C431 H445 0.950 . S
C432 C431 1.479 . S
C432 C433 1.375 . S
C432 C438 1.404 . S
C433 C432 1.375 . S
C433 C434 1.369 . S
C433 H446 0.950 . S
C434 C433 1.369 . S
C434 C435 1.392 . S
C434 H447 0.951 . S
C435 C434 1.392 . S
C435 C437 1.384 . S
H436 C438 0.949 . S
C437 C435 1.384 . S
C437 C438 1.385 . S
C437 H439 0.950 . S
C438 C432 1.404 . S
C438 H436 0.949 . S
C438 C437 1.385 . S
H439 C437 0.950 . S
H440 C424 0.951 . S
H441 C426 0.951 . S
H442 C428 0.951 . S
H443 C429 0.950 . S
H444 C430 0.950 . S
H445 C431 0.950 . S
H446 C433 0.950 . S
H447 C434 0.951 . S
C267 C233 1.294 . S
C257 C11 0.847 1_545 S
C291 C253 1.323 . S
C281 C115 1.138 . S
C315 C232 1.249 1_655 S
C305 C1 1.083 . S
C339 C254 1.480 . S
C329 C125 0.969 . S
C363 C246 1.561 . S
C353 C55 1.257 . S
C387 C239 1.337 . S
C377 C143 1.185 . S
C411 C247 1.091 . S
C401 C29 1.073 . S
C425 C169 1.189 . S
C435 C240 1.576 . S
