# Generated by pormake.
# Topology pyr, (3,6)-cn, num edge types: 1
# Building blocks:
#     Node 0, Type 0, BuildingBlock: BETDIP_clean_linker_0, # of connection points: 3
#     Node 1, Type 0, BuildingBlock: BETDIP_clean_linker_0, # of connection points: 3
#     Node 2, Type 0, BuildingBlock: BETDIP_clean_linker_0, # of connection points: 3
#     Node 3, Type 0, BuildingBlock: BETDIP_clean_linker_0, # of connection points: 3
#     Node 4, Type 0, BuildingBlock: BETDIP_clean_linker_0, # of connection points: 3
#     Node 5, Type 0, BuildingBlock: BETDIP_clean_linker_0, # of connection points: 3
#     Node 6, Type 0, BuildingBlock: BETDIP_clean_linker_0, # of connection points: 3
#     Node 7, Type 0, BuildingBlock: BETDIP_clean_linker_0, # of connection points: 3
#     Node 8, Type 1, BuildingBlock: MIFKUJ_clean_sbu_0, # of connection points: 6
#     Node 9, Type 1, BuildingBlock: MIFKUJ_clean_sbu_0, # of connection points: 6
#     Node 10, Type 1, BuildingBlock: MIFKUJ_clean_sbu_0, # of connection points: 6
#     Node 11, Type 1, BuildingBlock: MIFKUJ_clean_sbu_0, # of connection points: 6
#     Edge 12, Type (0, 1), BuildingBlock: TEMPAE_clean_linker_10, # of connection points: 2
#     Edge 13, Type (0, 1), BuildingBlock: TEMPAE_clean_linker_10, # of connection points: 2
#     Edge 14, Type (0, 1), BuildingBlock: TEMPAE_clean_linker_10, # of connection points: 2
#     Edge 15, Type (0, 1), BuildingBlock: TEMPAE_clean_linker_10, # of connection points: 2
#     Edge 16, Type (0, 1), BuildingBlock: TEMPAE_clean_linker_10, # of connection points: 2
#     Edge 17, Type (0, 1), BuildingBlock: TEMPAE_clean_linker_10, # of connection points: 2
#     Edge 18, Type (0, 1), BuildingBlock: TEMPAE_clean_linker_10, # of connection points: 2
#     Edge 19, Type (0, 1), BuildingBlock: TEMPAE_clean_linker_10, # of connection points: 2
#     Edge 20, Type (0, 1), BuildingBlock: TEMPAE_clean_linker_10, # of connection points: 2
#     Edge 21, Type (0, 1), BuildingBlock: TEMPAE_clean_linker_10, # of connection points: 2
#     Edge 22, Type (0, 1), BuildingBlock: TEMPAE_clean_linker_10, # of connection points: 2
#     Edge 23, Type (0, 1), BuildingBlock: TEMPAE_clean_linker_10, # of connection points: 2
#     Edge 24, Type (0, 1), BuildingBlock: TEMPAE_clean_linker_10, # of connection points: 2
#     Edge 25, Type (0, 1), BuildingBlock: TEMPAE_clean_linker_10, # of connection points: 2
#     Edge 26, Type (0, 1), BuildingBlock: TEMPAE_clean_linker_10, # of connection points: 2
#     Edge 27, Type (0, 1), BuildingBlock: TEMPAE_clean_linker_10, # of connection points: 2
#     Edge 28, Type (0, 1), BuildingBlock: TEMPAE_clean_linker_10, # of connection points: 2
#     Edge 29, Type (0, 1), BuildingBlock: TEMPAE_clean_linker_10, # of connection points: 2
#     Edge 30, Type (0, 1), BuildingBlock: TEMPAE_clean_linker_10, # of connection points: 2
#     Edge 31, Type (0, 1), BuildingBlock: TEMPAE_clean_linker_10, # of connection points: 2
#     Edge 32, Type (0, 1), BuildingBlock: TEMPAE_clean_linker_10, # of connection points: 2
#     Edge 33, Type (0, 1), BuildingBlock: TEMPAE_clean_linker_10, # of connection points: 2
#     Edge 34, Type (0, 1), BuildingBlock: TEMPAE_clean_linker_10, # of connection points: 2
#     Edge 35, Type (0, 1), BuildingBlock: TEMPAE_clean_linker_10, # of connection points: 2
# Relax obj value: 0.058
# Max RMSD: 0.189
# Mean RMSD: 0.128
data_MOF--net-pyr--node1-MIFKUJ_clean_sbu_0--node2-BETDIP_clean_linker_0--edge1-TEMPAE_clean_linker_10
_symmetry_space_group_name_H-M    P1
_symmetry_Int_Tables_number       1
_symmetry_cell_setting            triclinic
loop_
_symmetry_equiv_pos_as_xyz
'x, y, z'
_cell_length_a     39.42894
_cell_length_b     34.597823
_cell_length_c     39.22005
_cell_angle_alpha  89.051853
_cell_angle_beta   83.960476
_cell_angle_gamma 104.11444
loop_
_atom_site_label
_atom_site_type_symbol
_atom_site_fract_x
_atom_site_fract_y
_atom_site_fract_z
_atom_type_partial_charge
H0 H 0.14319 0.18817 0.24051 0.0
H1 H 0.22142 0.19461 0.15429 0.0
H2 H 0.22171 0.1214 0.24395 0.0
H3 H 0.1764 0.20808 0.12553 0.0
C4 C 0.16619 0.22759 0.14306 0.0
C5 C 0.16598 0.1792 0.22855 0.0
C6 C 0.18062 0.15282 0.24618 0.0
C7 C 0.18004 0.19382 0.19535 0.0
C8 C 0.20975 0.18267 0.17969 0.0
C9 C 0.22525 0.157 0.19736 0.0
C10 C 0.21058 0.14226 0.23065 0.0
N11 N 0.16414 0.2206 0.17905 0.0
H12 H 0.31532 0.87082 0.73795 0.0
H13 H 0.32673 0.80889 0.64494 0.0
H14 H 0.39954 0.8117 0.71951 0.0
H15 H 0.30817 0.86631 0.62551 0.0
C16 C 0.28548 0.8631 0.64462 0.0
C17 C 0.3292 0.85301 0.72203 0.0
C18 C 0.35908 0.84301 0.73271 0.0
C19 C 0.31796 0.84178 0.69007 0.0
C20 C 0.3358 0.81865 0.66924 0.0
C21 C 0.36531 0.80786 0.67976 0.0
C22 C 0.37699 0.82048 0.71126 0.0
N23 N 0.28862 0.85398 0.67947 0.0
H24 H 0.71479 0.44065 0.8207 0.0
H25 H 0.62528 0.34147 0.81715 0.0
H26 H 0.69999 0.33703 0.88821 0.0
H27 H 0.60146 0.39583 0.80316 0.0
C28 C 0.62235 0.41011 0.78332 0.0
C29 C 0.69996 0.41112 0.83012 0.0
C30 C 0.71146 0.39112 0.85654 0.0
C31 C 0.66859 0.39379 0.8163 0.0
C32 C 0.64881 0.35558 0.82854 0.0
C33 C 0.66003 0.33486 0.85455 0.0
C34 C 0.69129 0.35296 0.86822 0.0
N35 N 0.65806 0.41479 0.78939 0.0
H36 H 0.78954 0.65688 0.26856 0.0
H37 H 0.8799 0.75347 0.27942 0.0
H38 H 0.80269 0.71068 0.36574 0.0
H39 H 0.9037 0.73235 0.23342 0.0
C40 C 0.88464 0.7114 0.22049 0.0
C41 C 0.80446 0.67904 0.28409 0.0
C42 C 0.79252 0.6811 0.31875 0.0
C43 C 0.83652 0.70399 0.26975 0.0
C44 C 0.85568 0.7329 0.29004 0.0
C45 C 0.84366 0.73523 0.32474 0.0
C46 C 0.81228 0.70891 0.33899 0.0
N47 N 0.84923 0.69755 0.23558 0.0
H48 H 0.74187 0.79009 0.85134 0.0
H49 H 0.82286 0.79106 0.76864 0.0
H50 H 0.76525 0.88149 0.77035 0.0
H51 H 0.80784 0.72076 0.7867 0.0
C52 C 0.8101 0.72811 0.81334 0.0
C53 C 0.75628 0.80299 0.82709 0.0
C54 C 0.74967 0.83735 0.81238 0.0
C55 C 0.78227 0.78583 0.81137 0.0
C56 C 0.80177 0.80309 0.78046 0.0
C57 C 0.79586 0.83779 0.76593 0.0
C58 C 0.76981 0.85475 0.78185 0.0
N59 N 0.79078 0.75399 0.82903 0.0
H60 H 0.68664 0.1274 0.31026 0.0
H61 H 0.68244 0.19856 0.39869 0.0
H62 H 0.6054 0.19096 0.32779 0.0
H63 H 0.70215 0.14281 0.42059 0.0
C64 C 0.72344 0.14399 0.40029 0.0
C65 C 0.67411 0.14702 0.32544 0.0
C66 C 0.64395 0.1569 0.31533 0.0
C67 C 0.68762 0.16108 0.35583 0.0
C68 C 0.67161 0.18666 0.37569 0.0
C69 C 0.64181 0.19731 0.36571 0.0
C70 C 0.62798 0.18204 0.33577 0.0
N71 N 0.71763 0.14959 0.36557 0.0
H72 H 0.30047 0.61066 0.23513 0.0
H73 H 0.40073 0.69652 0.2182 0.0
H74 H 0.31778 0.70519 0.15789 0.0
H75 H 0.41896 0.64116 0.23676 0.0
C76 C 0.39927 0.63016 0.25851 0.0
C77 C 0.31752 0.63681 0.2213 0.0
C78 C 0.30497 0.65625 0.1954 0.0
C79 C 0.3521 0.65074 0.22945 0.0
C80 C 0.3742 0.68504 0.21177 0.0
C81 C 0.36199 0.70475 0.18575 0.0
C82 C 0.32737 0.69014 0.17791 0.0
N83 N 0.36354 0.63027 0.2561 0.0
H84 H 0.13693 0.27243 0.7434 0.0
H85 H 0.23052 0.36729 0.74594 0.0
H86 H 0.21301 0.3041 0.65401 0.0
H87 H 0.21649 0.36078 0.80263 0.0
C88 C 0.18795 0.35409 0.80518 0.0
C89 C 0.16174 0.2904 0.73094 0.0
C90 C 0.17249 0.28467 0.69652 0.0
C91 C 0.18238 0.32002 0.74918 0.0
C92 C 0.21443 0.34357 0.73282 0.0
C93 C 0.22535 0.33783 0.69856 0.0
C94 C 0.20424 0.30869 0.68045 0.0
N95 N 0.16884 0.32742 0.78278 0.0
Zn96 Zn 0.035 0.98511 0.53158 0.0
Zn97 Zn 0.97803 0.0223 0.50416 0.0
C98 C 0.0772 0.05817 0.55056 0.0
O99 O 0.10082 0.04548 0.53066 0.0
C100 C 0.93595 0.95006 0.48343 0.0
O101 O 0.91232 0.96187 0.50405 0.0
O102 O 0.07015 0.95541 0.54611 0.0
O103 O 0.98705 0.95453 0.55151 0.0
O104 O 0.9655 0.00776 0.5545 0.0
C105 C 0.07923 0.95942 0.57633 0.0
O106 O 0.06442 0.98097 0.59764 0.0
O107 O 0.04561 0.03738 0.5545 0.0
C108 C 0.93363 0.04917 0.45968 0.0
O109 O 0.94723 0.02688 0.43812 0.0
O110 O 0.94374 0.05331 0.4895 0.0
O111 O 0.02711 0.0526 0.4863 0.0
O112 O 0.04486 0.99724 0.48064 0.0
O113 O 0.96749 0.97099 0.47981 0.0
C114 C 0.96537 0.97293 0.56551 0.0
C115 C 0.0467 0.03288 0.47048 0.0
Zn116 Zn 0.52012 0.98509 0.98096 0.0
Zn117 Zn 0.48768 0.04331 0.05125 0.0
C118 C 0.46931 0.92715 0.94848 0.0
O119 O 0.48507 0.90241 0.9623 0.0
C120 C 0.53114 0.08487 0.09824 0.0
O121 O 0.52293 0.11419 0.0819 0.0
O122 O 0.55885 0.96298 0.95843 0.0
O123 O 0.53563 0.04406 0.97061 0.0
O124 O 0.51362 0.07853 0.01063 0.0
C125 C 0.56441 0.96347 0.92591 0.0
O126 O 0.54495 0.97937 0.90742 0.0
O127 O 0.47828 0.96391 0.95495 0.0
C128 C 0.42643 0.04941 0.09389 0.0
O129 O 0.43011 0.01555 0.10674 0.0
O130 O 0.44825 0.06733 0.0691 0.0
O131 O 0.46516 0.98478 0.0459 0.0
O132 O 0.51155 0.96223 0.0297 0.0
O133 O 0.51963 0.04942 0.08901 0.0
C134 C 0.53146 0.07689 0.98202 0.0
C135 C 0.4827 0.95882 0.04854 0.0
Zn136 Zn 0.51947 0.47599 0.49848 0.0
Zn137 Zn 0.50673 0.55059 0.53485 0.0
C138 C 0.57082 0.50953 0.44482 0.0
O139 O 0.54915 0.48244 0.42914 0.0
C140 C 0.45225 0.51264 0.58476 0.0
O141 O 0.47072 0.54023 0.60266 0.0
O142 O 0.52262 0.42243 0.47969 0.0
O143 O 0.52124 0.47175 0.54996 0.0
O144 O 0.54645 0.5351 0.55565 0.0
C145 C 0.54254 0.40346 0.49242 0.0
O146 O 0.55818 0.41736 0.51921 0.0
O147 O 0.56389 0.5135 0.47678 0.0
C148 C 0.47987 0.62083 0.54252 0.0
O149 O 0.46627 0.60856 0.51427 0.0
O150 O 0.49996 0.60207 0.55518 0.0
O151 O 0.50789 0.55678 0.48354 0.0
O152 O 0.48025 0.49414 0.47821 0.0
O153 O 0.46272 0.50998 0.55332 0.0
C154 C 0.5407 0.49874 0.56587 0.0
C155 C 0.48732 0.53064 0.46788 0.0
Zn156 Zn 0.99786 0.55163 0.96961 0.0
Zn157 Zn 0.04261 0.51019 0.03875 0.0
C158 C 0.94642 0.48594 0.94723 0.0
O159 O 0.97247 0.48468 0.92383 0.0
C160 C 0.07963 0.54986 0.09121 0.0
O161 O 0.0518 0.52723 0.10947 0.0
O162 O 0.98488 0.59448 0.94227 0.0
O163 O 0.00776 0.57349 0.01617 0.0
O164 O 0.99678 0.52334 0.05424 0.0
C165 C 0.95544 0.60041 0.95438 0.0
O166 O 0.94019 0.58258 0.98383 0.0
O167 O 0.95243 0.50859 0.97226 0.0
C168 C 0.07815 0.45402 0.05184 0.0
O169 O 0.10189 0.48367 0.0354 0.0
O170 O 0.04653 0.45709 0.05741 0.0
O171 O 0.05402 0.50903 0.98822 0.0
O172 O 0.03678 0.5331 0.94266 0.0
O173 O 0.0811 0.55011 0.05864 0.0
C174 C 0.99065 0.55562 0.04362 0.0
C175 C 0.05591 0.51367 0.95591 0.0
C176 C 0.12704 0.11892 0.28487 0.0
C177 C 0.16351 0.13501 0.28012 0.0
C178 C 0.11007 0.10209 0.31673 0.0
C179 C 0.13007 0.10155 0.34456 0.0
C180 C 0.16698 0.11754 0.33993 0.0
C181 C 0.18334 0.13395 0.3076 0.0
C182 C 0.07069 0.08497 0.3206 0.0
C183 C 0.18903 0.11773 0.36917 0.0
C184 C 0.0769 0.09195 0.43179 0.0
C185 C 0.0705 0.05095 0.43968 0.0
C186 C 0.09763 0.10917 0.40157 0.0
C187 C 0.11196 0.08469 0.37856 0.0
C188 C 0.10654 0.04352 0.38689 0.0
C189 C 0.08599 0.02715 0.41748 0.0
C190 C 0.10318 0.1533 0.39369 0.0
C191 C 0.12125 0.01647 0.36283 0.0
H192 H 0.11177 0.11917 0.26346 0.0
H193 H 0.21154 0.14659 0.30395 0.0
H194 H 0.06434 0.05318 0.32959 0.0
H195 H 0.05785 0.10109 0.34025 0.0
H196 H 0.05915 0.08702 0.29618 0.0
H197 H 0.21747 0.13076 0.36118 0.0
H198 H 0.18015 0.13518 0.39029 0.0
H199 H 0.18556 0.08688 0.37969 0.0
H200 H 0.06533 0.1106 0.44904 0.0
H201 H 0.08118 0.99544 0.42347 0.0
H202 H 0.0897 0.15788 0.37106 0.0
H203 H 0.1316 0.16752 0.38713 0.0
H204 H 0.09284 0.16871 0.41557 0.0
H205 H 0.10861 0.01473 0.33873 0.0
H206 H 0.1168 0.98578 0.3742 0.0
H207 H 0.14991 0.02877 0.35584 0.0
C208 C 0.3485 0.85358 0.79591 0.0
C209 C 0.37201 0.85629 0.76598 0.0
C210 C 0.36074 0.86488 0.82758 0.0
C211 C 0.39733 0.8793 0.82934 0.0
C212 C 0.4211 0.88263 0.79911 0.0
C213 C 0.40817 0.87113 0.76787 0.0
C214 C 0.3346 0.86084 0.85924 0.0
C215 C 0.46031 0.89808 0.79979 0.0
C216 C 0.43427 0.94149 0.90212 0.0
C217 C 0.44625 0.91377 0.92115 0.0
C218 C 0.41684 0.93029 0.87302 0.0
C219 C 0.41116 0.89039 0.86272 0.0
C220 C 0.4215 0.86183 0.88287 0.0
C221 C 0.43891 0.87385 0.91181 0.0
C222 C 0.40612 0.96162 0.85232 0.0
C223 C 0.41575 0.81894 0.87289 0.0
H224 H 0.32056 0.84181 0.7947 0.0
H225 H 0.42644 0.87394 0.74477 0.0
H226 H 0.33976 0.83939 0.87819 0.0
H227 H 0.33769 0.88993 0.87159 0.0
H228 H 0.30697 0.85036 0.85339 0.0
H229 H 0.4752 0.89938 0.77396 0.0
H230 H 0.46617 0.92843 0.81 0.0
H231 H 0.46999 0.87859 0.81719 0.0
H232 H 0.43969 0.97238 0.90914 0.0
H233 H 0.44788 0.85215 0.92641 0.0
H234 H 0.37832 0.95099 0.84716 0.0
H235 H 0.42255 0.96733 0.82713 0.0
H236 H 0.40921 0.99024 0.86552 0.0
H237 H 0.388 0.80675 0.86816 0.0
H238 H 0.42225 0.79969 0.89292 0.0
H239 H 0.43252 0.81734 0.84865 0.0
C240 C 0.57782 0.42824 0.74986 0.0
C241 C 0.61271 0.42637 0.75149 0.0
C242 C 0.56726 0.44205 0.71981 0.0
C243 C 0.59209 0.45363 0.69039 0.0
C244 C 0.62749 0.45208 0.69196 0.0
C245 C 0.63746 0.43872 0.7226 0.0
C246 C 0.52937 0.44369 0.71941 0.0
C247 C 0.65462 0.46358 0.66102 0.0
C248 C 0.554 0.44762 0.60491 0.0
C249 C 0.55517 0.4877 0.5971 0.0
C250 C 0.56681 0.43635 0.63464 0.0
C251 C 0.58052 0.46572 0.65765 0.0
C252 C 0.5819 0.50627 0.64993 0.0
C253 C 0.56948 0.51682 0.61963 0.0
C254 C 0.56526 0.39285 0.6416 0.0
C255 C 0.59578 0.5384 0.67407 0.0
H256 H 0.55866 0.41874 0.7722 0.0
H257 H 0.66443 0.43709 0.72364 0.0
H258 H 0.52806 0.47404 0.71107 0.0
H259 H 0.51682 0.42273 0.70067 0.0
H260 H 0.51385 0.43581 0.74497 0.0
H261 H 0.68124 0.46183 0.66669 0.0
H262 H 0.64678 0.44352 0.6399 0.0
H263 H 0.65605 0.4944 0.65159 0.0
H264 H 0.54298 0.42486 0.58776 0.0
H265 H 0.57031 0.54783 0.61396 0.0
H266 H 0.54734 0.38159 0.6653 0.0
H267 H 0.5917 0.38922 0.64593 0.0
H268 H 0.55582 0.37406 0.62016 0.0
H269 H 0.57934 0.53253 0.69926 0.0
H270 H 0.59587 0.56863 0.664 0.0
H271 H 0.62298 0.53806 0.67868 0.0
C272 C 0.87478 0.66504 0.17206 0.0
C273 C 0.89794 0.69098 0.19115 0.0
C274 C 0.88756 0.64316 0.14607 0.0
C275 C 0.92425 0.64705 0.13946 0.0
C276 C 0.94773 0.67398 0.15811 0.0
C277 C 0.93425 0.69586 0.18358 0.0
C278 C 0.86182 0.61527 0.12623 0.0
C279 C 0.98703 0.67872 0.15194 0.0
C280 C 0.95859 0.56225 0.101 0.0
C281 C 0.97087 0.57732 0.06734 0.0
C282 C 0.94255 0.58427 0.12452 0.0
C283 C 0.93823 0.62194 0.11398 0.0
C284 C 0.9492 0.63656 0.0797 0.0
C285 C 0.96572 0.61427 0.05689 0.0
C286 C 0.93141 0.56785 0.161 0.0
C287 C 0.9445 0.67632 0.06737 0.0
H288 H 0.84664 0.66144 0.17766 0.0
H289 H 0.95212 0.71591 0.1984 0.0
H290 H 0.86917 0.62165 0.09824 0.0
H291 H 0.86279 0.58401 0.13166 0.0
H292 H 0.83436 0.61774 0.13287 0.0
H293 H 0.00171 0.70161 0.1681 0.0
H294 H 0.99327 0.64984 0.15759 0.0
H295 H 0.99659 0.68725 0.12459 0.0
H296 H 0.9624 0.53374 0.10933 0.0
H297 H 0.97519 0.62627 0.031 0.0
H298 H 0.90329 0.56698 0.16841 0.0
H299 H 0.94693 0.58774 0.17873 0.0
H300 H 0.9352 0.53734 0.16469 0.0
H301 H 0.91696 0.67823 0.07432 0.0
H302 H 0.95107 0.68145 0.03915 0.0
H303 H 0.96174 0.70069 0.08015 0.0
C304 C 0.2854 0.14593 0.19869 0.0
C305 C 0.25615 0.1445 0.18087 0.0
C306 C 0.3141 0.13226 0.18407 0.0
C307 C 0.31321 0.11631 0.15108 0.0
C308 C 0.28395 0.11536 0.13277 0.0
C309 C 0.25582 0.12973 0.14783 0.0
C310 C 0.3451 0.13433 0.20414 0.0
C311 C 0.28191 0.09814 0.0977 0.0
C312 C 0.39833 0.10664 0.10102 0.0
C313 C 0.39747 0.06656 0.1083 0.0
C314 C 0.3712 0.12337 0.11498 0.0
C315 C 0.34232 0.09925 0.13625 0.0
C316 C 0.34118 0.05869 0.14346 0.0
C317 C 0.36892 0.04291 0.12959 0.0
C318 C 0.37353 0.1669 0.10718 0.0
C319 C 0.31059 0.03192 0.16572 0.0
H320 H 0.28577 0.15773 0.22412 0.0
H321 H 0.23303 0.12829 0.1342 0.0
H322 H 0.34766 0.10376 0.21003 0.0
H323 H 0.36981 0.15045 0.18858 0.0
H324 H 0.3425 0.14955 0.22865 0.0
H325 H 0.25779 0.10067 0.08647 0.0
H326 H 0.30523 0.11361 0.07994 0.0
H327 H 0.28217 0.06617 0.09948 0.0
H328 H 0.42047 0.12513 0.08475 0.0
H329 H 0.36805 0.01187 0.13517 0.0
H330 H 0.37282 0.18291 0.13142 0.0
H331 H 0.35053 0.16997 0.09431 0.0
H332 H 0.39795 0.18166 0.09045 0.0
H333 H 0.30827 0.04385 0.19171 0.0
H334 H 0.31342 0.00087 0.1683 0.0
H335 H 0.28567 0.03128 0.15471 0.0
C336 C 0.22136 0.86233 0.65449 0.0
C337 C 0.25414 0.87502 0.63476 0.0
C338 C 0.19168 0.87368 0.64485 0.0
C339 C 0.19518 0.89919 0.61536 0.0
C340 C 0.22834 0.91209 0.59545 0.0
C341 C 0.25727 0.89932 0.60512 0.0
C342 C 0.15661 0.85843 0.66623 0.0
C343 C 0.23346 0.94013 0.56437 0.0
C344 C 0.11533 0.90883 0.57205 0.0
C345 C 0.10813 0.94305 0.58669 0.0
C346 C 0.14298 0.89351 0.58183 0.0
C347 C 0.16458 0.91367 0.60598 0.0
C348 C 0.15751 0.94844 0.62058 0.0
C349 C 0.12909 0.96234 0.61113 0.0
C350 C 0.14909 0.85579 0.56636 0.0
C351 C 0.18044 0.97148 0.64565 0.0
H352 H 0.21881 0.84312 0.67722 0.0
H353 H 0.28266 0.90913 0.58989 0.0
H354 H 0.14767 0.88374 0.67788 0.0
H355 H 0.13648 0.84366 0.64972 0.0
H356 H 0.15783 0.83689 0.68711 0.0
H357 H 0.26097 0.94753 0.55177 0.0
H358 H 0.21565 0.92665 0.54534 0.0
H359 H 0.22653 0.96824 0.572 0.0
H360 H 0.09903 0.89374 0.55329 0.0
H361 H 0.12383 0.98906 0.62225 0.0
H362 H 0.149 0.83344 0.58702 0.0
H363 H 0.17531 0.86216 0.5511 0.0
H364 H 0.1288 0.8425 0.54944 0.0
H365 H 0.18028 0.9521 0.6685 0.0
H366 H 0.17167 0.99824 0.65431 0.0
H367 H 0.20807 0.98121 0.63357 0.0
C368 C 0.77435 0.43244 0.85185 0.0
C369 C 0.74458 0.40913 0.87198 0.0
C370 C 0.80633 0.44664 0.86575 0.0
C371 C 0.80901 0.4362 0.90026 0.0
C372 C 0.77894 0.41369 0.92097 0.0
C373 C 0.74702 0.40127 0.90684 0.0
C374 C 0.83744 0.47222 0.84333 0.0
C375 C 0.78067 0.40195 0.95789 0.0
C376 C 0.90073 0.43527 0.92157 0.0
C377 C 0.90991 0.47045 0.93924 0.0
C378 C 0.86751 0.42317 0.90971 0.0
C379 C 0.84349 0.44768 0.91448 0.0
C380 C 0.85257 0.48307 0.93267 0.0
C381 C 0.88549 0.49371 0.94524 0.0
C382 C 0.85832 0.38445 0.89158 0.0
C383 C 0.82854 0.511 0.93728 0.0
H384 H 0.77306 0.43877 0.82494 0.0
H385 H 0.72401 0.38477 0.92319 0.0
H386 H 0.84832 0.50012 0.85624 0.0
H387 H 0.8586 0.45619 0.83922 0.0
H388 H 0.83038 0.48018 0.81791 0.0
H389 H 0.75502 0.3838 0.97043 0.0
H390 H 0.80072 0.3845 0.95919 0.0
H391 H 0.7889 0.42901 0.97274 0.0
H392 H 0.9197 0.41743 0.91674 0.0
H393 H 0.8928 0.52143 0.95819 0.0
H394 H 0.85485 0.39056 0.86448 0.0
H395 H 0.83299 0.36536 0.90386 0.0
H396 H 0.87893 0.36759 0.89195 0.0
H397 H 0.83049 0.52852 0.91288 0.0
H398 H 0.83587 0.53219 0.95779 0.0
H399 H 0.80066 0.49443 0.94359 0.0
C400 C 0.76095 0.62696 0.36115 0.0
C401 C 0.75975 0.65377 0.33449 0.0
C402 C 0.72994 0.60258 0.37819 0.0
C403 C 0.69706 0.60596 0.36876 0.0
C404 C 0.69579 0.63287 0.34158 0.0
C405 C 0.72733 0.65627 0.32445 0.0
C406 C 0.73233 0.57359 0.40653 0.0
C407 C 0.66117 0.63773 0.33128 0.0
C408 C 0.61704 0.521 0.39491 0.0
C409 C 0.60284 0.53451 0.42536 0.0
C410 C 0.64773 0.544 0.37616 0.0
C411 C 0.66406 0.58174 0.38782 0.0
C412 C 0.64945 0.59586 0.41824 0.0
C413 C 0.61917 0.5718 0.43692 0.0
C414 C 0.66301 0.52761 0.34426 0.0
C415 C 0.66583 0.63634 0.43105 0.0
H416 H 0.78625 0.62527 0.36871 0.0
H417 H 0.72669 0.67744 0.30397 0.0
H418 H 0.72003 0.58167 0.43126 0.0
H419 H 0.71762 0.543 0.40129 0.0
H420 H 0.75997 0.57321 0.40944 0.0
H421 H 0.66479 0.65965 0.30937 0.0
H422 H 0.64506 0.60866 0.32408 0.0
H423 H 0.64602 0.64779 0.35338 0.0
H424 H 0.60453 0.49201 0.38606 0.0
H425 H 0.60798 0.5824 0.46031 0.0
H426 H 0.6901 0.52523 0.34732 0.0
H427 H 0.66491 0.54824 0.3218 0.0
H428 H 0.647 0.49773 0.33865 0.0
H429 H 0.69279 0.63733 0.43736 0.0
H430 H 0.65026 0.64365 0.45424 0.0
H431 H 0.66821 0.65976 0.41065 0.0
C432 C 0.14198 0.28765 0.15089 0.0
C433 C 0.151 0.25887 0.1294 0.0
C434 C 0.12826 0.31794 0.13799 0.0
C435 C 0.12312 0.31918 0.10286 0.0
C436 C 0.13156 0.28974 0.08118 0.0
C437 C 0.14569 0.26004 0.0947 0.0
C438 C 0.12016 0.34923 0.16177 0.0
C439 C 0.12617 0.29001 0.04364 0.0
C440 C 0.06406 0.38399 0.07695 0.0
C441 C 0.08898 0.41876 0.06416 0.0
C442 C 0.07474 0.35082 0.08892 0.0
C443 C 0.11111 0.35285 0.08847 0.0
C444 C 0.13631 0.38781 0.0754 0.0
C445 C 0.12493 0.4202 0.06322 0.0
C446 C 0.0472 0.31376 0.10235 0.0
C447 C 0.17533 0.39137 0.07491 0.0
H448 H 0.14623 0.28704 0.17772 0.0
H449 H 0.1526 0.23769 0.07815 0.0
H450 H 0.1371 0.37898 0.15286 0.0
H451 H 0.09243 0.35076 0.16136 0.0
H452 H 0.12449 0.34318 0.18867 0.0
H453 H 0.13197 0.2636 0.03078 0.0
H454 H 0.09863 0.29064 0.04068 0.0
H455 H 0.14352 0.31734 0.03024 0.0
H456 H 0.03625 0.38267 0.07753 0.0
H457 H 0.14439 0.44701 0.05345 0.0
H458 H 0.04906 0.30812 0.12993 0.0
H459 H 0.05191 0.28746 0.08859 0.0
H460 H 0.02009 0.31625 0.0994 0.0
H461 H 0.18187 0.38807 0.10147 0.0
H462 H 0.19148 0.42045 0.06339 0.0
H463 H 0.18289 0.36712 0.06015 0.0
C464 C 0.65638 0.26572 0.8778 0.0
C465 C 0.63917 0.29465 0.86828 0.0
C466 C 0.63765 0.22969 0.8948 0.0
C467 C 0.60058 0.22163 0.90151 0.0
C468 C 0.58276 0.24953 0.89016 0.0
C469 C 0.60228 0.2859 0.874 0.0
C470 C 0.65772 0.20093 0.90677 0.0
C471 C 0.54316 0.24149 0.89604 0.0
C472 C 0.55398 0.11343 0.92549 0.0
C473 C 0.54782 0.11416 0.96133 0.0
C474 C 0.56992 0.14848 0.90552 0.0
C475 C 0.58085 0.18487 0.9219 0.0
C476 C 0.57454 0.18577 0.95809 0.0
C477 C 0.55766 0.15048 0.97733 0.0
C478 C 0.57533 0.14651 0.86696 0.0
C479 C 0.58655 0.22379 0.97659 0.0
H480 H 0.68475 0.27158 0.8726 0.0
H481 H 0.58868 0.30801 0.86693 0.0
H482 H 0.65315 0.19694 0.93516 0.0
H483 H 0.64813 0.17124 0.89616 0.0
H484 H 0.6865 0.2114 0.89904 0.0
H485 H 0.53312 0.26413 0.88249 0.0
H486 H 0.53086 0.21154 0.8872 0.0
H487 H 0.5346 0.24162 0.92389 0.0
H488 H 0.54605 0.08545 0.91299 0.0
H489 H 0.55308 0.15111 0.00504 0.0
H490 H 0.60387 0.15378 0.85797 0.0
H491 H 0.56412 0.16896 0.85466 0.0
H492 H 0.56296 0.11655 0.85808 0.0
H493 H 0.61557 0.23487 0.97142 0.0
H494 H 0.57929 0.21955 0.00479 0.0
H495 H 0.5748 0.24729 0.96691 0.0
C496 C 0.87262 0.80583 0.33551 0.0
C497 C 0.86323 0.7655 0.34635 0.0
C498 C 0.88728 0.83531 0.35753 0.0
C499 C 0.8929 0.82395 0.39093 0.0
C500 C 0.88509 0.7831 0.40132 0.0
C501 C 0.87014 0.75432 0.37892 0.0
C502 C 0.89509 0.87864 0.34567 0.0
C503 C 0.89116 0.76986 0.43657 0.0
C504 C 0.95051 0.90185 0.44091 0.0
C505 C 0.92518 0.91588 0.46157 0.0
C506 C 0.94044 0.87136 0.41816 0.0
C507 C 0.90425 0.85489 0.4159 0.0
C508 C 0.87859 0.86845 0.43712 0.0
C509 C 0.88939 0.89865 0.45985 0.0
C510 C 0.96847 0.85725 0.39618 0.0
C511 C 0.83971 0.8517 0.43526 0.0
H512 H 0.86702 0.81443 0.3104 0.0
H513 H 0.8632 0.72302 0.38709 0.0
H514 H 0.87724 0.89361 0.36117 0.0
H515 H 0.92243 0.89417 0.34962 0.0
H516 H 0.89163 0.88232 0.31815 0.0
H517 H 0.88684 0.73697 0.43943 0.0
H518 H 0.91838 0.78411 0.4419 0.0
H519 H 0.87297 0.77947 0.45628 0.0
H520 H 0.97824 0.91501 0.44221 0.0
H521 H 0.86968 0.90945 0.47564 0.0
H522 H 0.96676 0.8636 0.36868 0.0
H523 H 0.96419 0.82448 0.39986 0.0
H524 H 0.99541 0.87187 0.40217 0.0
H525 H 0.83326 0.85713 0.40902 0.0
H526 H 0.82316 0.86518 0.45385 0.0
H527 H 0.83262 0.81895 0.44051 0.0
C528 C 0.36485 0.74587 0.64781 0.0
C529 C 0.38366 0.78271 0.65822 0.0
C530 C 0.38208 0.72086 0.62873 0.0
C531 C 0.4189 0.73345 0.61919 0.0
C532 C 0.43789 0.77105 0.62907 0.0
C533 C 0.42008 0.79505 0.64884 0.0
C534 C 0.36098 0.68067 0.61929 0.0
C535 C 0.47698 0.78591 0.61878 0.0
C536 C 0.46727 0.65287 0.59751 0.0
C537 C 0.46783 0.65239 0.56172 0.0
C538 C 0.45188 0.6795 0.61652 0.0
C539 C 0.43746 0.70693 0.59923 0.0
C540 C 0.43937 0.70773 0.56295 0.0
C541 C 0.45413 0.6801 0.54466 0.0
C542 C 0.44974 0.67714 0.6552 0.0
C543 C 0.42504 0.73712 0.5435 0.0
H544 H 0.33673 0.73621 0.65537 0.0
H545 H 0.43456 0.82369 0.65675 0.0
H546 H 0.3633 0.67852 0.591 0.0
H547 H 0.37159 0.65667 0.6299 0.0
H548 H 0.33265 0.67514 0.62908 0.0
H549 H 0.48763 0.81646 0.62744 0.0
H550 H 0.4911 0.76551 0.62987 0.0
H551 H 0.48273 0.78607 0.59045 0.0
H552 H 0.47748 0.63122 0.61086 0.0
H553 H 0.45462 0.67991 0.51697 0.0
H554 H 0.42174 0.66863 0.66632 0.0
H555 H 0.46173 0.70672 0.66487 0.0
H556 H 0.46319 0.65503 0.66466 0.0
H557 H 0.39605 0.73058 0.54973 0.0
H558 H 0.43116 0.73608 0.51528 0.0
H559 H 0.4361 0.76789 0.55137 0.0
C560 C 0.82022 0.83872 0.70459 0.0
C561 C 0.81877 0.85808 0.73554 0.0
C562 C 0.84275 0.85756 0.67585 0.0
C563 C 0.86489 0.89606 0.67868 0.0
C564 C 0.86344 0.91562 0.71002 0.0
C565 C 0.84001 0.89651 0.73802 0.0
C566 C 0.84303 0.83624 0.64258 0.0
C567 C 0.88725 0.95625 0.71424 0.0
C568 C 0.94831 0.92645 0.61689 0.0
C569 C 0.93965 0.95341 0.59434 0.0
C570 C 0.92426 0.90776 0.64463 0.0
C571 C 0.89044 0.91542 0.64923 0.0
C572 C 0.88134 0.9421 0.62612 0.0
C573 C 0.90631 0.96128 0.59917 0.0
C574 C 0.9352 0.88029 0.66928 0.0
C575 C 0.84521 0.95017 0.62976 0.0
H576 H 0.80358 0.80898 0.70291 0.0
H577 H 0.83891 0.91113 0.76222 0.0
H578 H 0.83849 0.85546 0.62145 0.0
H579 H 0.86918 0.83011 0.63576 0.0
H580 H 0.82266 0.80753 0.6441 0.0
H581 H 0.88274 0.96734 0.74033 0.0
H582 H 0.91517 0.95494 0.70936 0.0
H583 H 0.88303 0.97815 0.69517 0.0
H584 H 0.97422 0.9206 0.61321 0.0
H585 H 0.89954 0.98185 0.58146 0.0
H586 H 0.91748 0.84994 0.66971 0.0
H587 H 0.93281 0.89114 0.69568 0.0
H588 H 0.96271 0.87812 0.66238 0.0
H589 H 0.82478 0.92171 0.62977 0.0
H590 H 0.84188 0.97043 0.60878 0.0
H591 H 0.84045 0.96382 0.65464 0.0
C592 C 0.59259 0.12908 0.2827 0.0
C593 C 0.62916 0.14159 0.28331 0.0
C594 C 0.57802 0.11732 0.25223 0.0
C595 C 0.60053 0.11776 0.22154 0.0
C596 C 0.63748 0.12891 0.22218 0.0
C597 C 0.65136 0.14079 0.25303 0.0
C598 C 0.53848 0.10563 0.25269 0.0
C599 C 0.66236 0.12961 0.19004 0.0
C600 C 0.55876 0.06212 0.14739 0.0
C601 C 0.55122 0.09313 0.12839 0.0
C602 C 0.57574 0.06975 0.17727 0.0
C603 C 0.58523 0.10927 0.18847 0.0
C604 C 0.57849 0.14077 0.1689 0.0
C605 C 0.56168 0.13233 0.13913 0.0
C606 C 0.58274 0.03544 0.19731 0.0
C607 C 0.58811 0.18332 0.17995 0.0
H608 H 0.57524 0.12882 0.3061 0.0
H609 H 0.67963 0.15068 0.25315 0.0
H610 H 0.53007 0.12719 0.23626 0.0
H611 H 0.52997 0.0758 0.24195 0.0
H612 H 0.52466 0.1049 0.27897 0.0
H613 H 0.69023 0.13554 0.1954 0.0
H614 H 0.65545 0.10074 0.17737 0.0
H615 H 0.65987 0.15315 0.1716 0.0
H616 H 0.55087 0.03176 0.13925 0.0
H617 H 0.5561 0.15655 0.12462 0.0
H618 H 0.56707 0.03155 0.22288 0.0
H619 H 0.61089 0.0419 0.20167 0.0
H620 H 0.57594 0.00694 0.18399 0.0
H621 H 0.57315 0.18568 0.2051 0.0
H622 H 0.58241 0.20459 0.16113 0.0
H623 H 0.61649 0.19245 0.18334 0.0
C624 C 0.44393 0.60634 0.28783 0.0
C625 C 0.40996 0.61236 0.28907 0.0
C626 C 0.45541 0.59069 0.31655 0.0
C627 C 0.4325 0.58135 0.34749 0.0
C628 C 0.39797 0.58697 0.34878 0.0
C629 C 0.38703 0.60223 0.31948 0.0
C630 C 0.49229 0.58482 0.31395 0.0
C631 C 0.37291 0.57788 0.38137 0.0
C632 C 0.45463 0.51479 0.41604 0.0
C633 C 0.47238 0.54307 0.43745 0.0
C634 C 0.44131 0.52672 0.38675 0.0
C635 C 0.44543 0.56786 0.37894 0.0
C636 C 0.46284 0.59646 0.40076 0.0
C637 C 0.47634 0.58376 0.42949 0.0
C638 C 0.4233 0.49534 0.36386 0.0
C639 C 0.4675 0.6406 0.39365 0.0
H640 H 0.46165 0.61407 0.26431 0.0
H641 H 0.36076 0.60696 0.32066 0.0
H642 H 0.50792 0.60478 0.33154 0.0
H643 H 0.49161 0.55372 0.32201 0.0
H644 H 0.50604 0.59117 0.2875 0.0
H645 H 0.34652 0.58234 0.37781 0.0
H646 H 0.3698 0.54662 0.39065 0.0
H647 H 0.38384 0.59746 0.40175 0.0
H648 H 0.45159 0.48331 0.42185 0.0
H649 H 0.49004 0.60592 0.44577 0.0
H650 H 0.43783 0.4997 0.33772 0.0
H651 H 0.39628 0.49834 0.36141 0.0
H652 H 0.42169 0.4646 0.37375 0.0
H653 H 0.48389 0.64999 0.36875 0.0
H654 H 0.48022 0.65889 0.41398 0.0
H655 H 0.44158 0.64711 0.39155 0.0
C656 C 0.13291 0.36732 0.83506 0.0
C657 C 0.16972 0.37717 0.82881 0.0
C658 C 0.11552 0.39063 0.85594 0.0
C659 C 0.13546 0.42475 0.87055 0.0
C660 C 0.17265 0.43461 0.86454 0.0
C661 C 0.18936 0.41048 0.84386 0.0
C662 C 0.07582 0.37882 0.86227 0.0
C663 C 0.19471 0.47085 0.87963 0.0
C664 C 0.08628 0.50257 0.89875 0.0
C665 C 0.07847 0.49331 0.93406 0.0
C666 C 0.10575 0.48121 0.87782 0.0
C667 C 0.11725 0.44966 0.89259 0.0
C668 C 0.10995 0.44068 0.9283 0.0
C669 C 0.0907 0.46261 0.94854 0.0
C670 C 0.11339 0.49181 0.83983 0.0
C671 C 0.12143 0.40702 0.94501 0.0
H672 H 0.11762 0.34145 0.82359 0.0
H673 H 0.21784 0.41811 0.83886 0.0
H674 H 0.0673 0.37406 0.89022 0.0
H675 H 0.06492 0.4032 0.85291 0.0
H676 H 0.06427 0.35115 0.84932 0.0
H677 H 0.22334 0.4745 0.87229 0.0
H678 H 0.18741 0.49809 0.87087 0.0
H679 H 0.18949 0.46858 0.90804 0.0
H680 H 0.0769 0.52623 0.88741 0.0
H681 H 0.08421 0.45467 0.97566 0.0
H682 H 0.10002 0.46641 0.82525 0.0
H683 H 0.14205 0.49744 0.83173 0.0
H684 H 0.10441 0.51859 0.8327 0.0
H685 H 0.10797 0.37818 0.93496 0.0
H686 H 0.11535 0.40539 0.9734 0.0
H687 H 0.15014 0.41065 0.93864 0.0
C688 C 0.68912 0.83206 0.84165 0.0
C689 C 0.72249 0.85576 0.82933 0.0
C690 C 0.66301 0.84923 0.85731 0.0
C691 C 0.67062 0.89103 0.86086 0.0
C692 C 0.70434 0.91507 0.84865 0.0
C693 C 0.72987 0.89713 0.83297 0.0
C694 C 0.62725 0.82271 0.86988 0.0
C695 C 0.71347 0.9597 0.85225 0.0
C696 C 0.59493 0.94109 0.87358 0.0
C697 C 0.59179 0.94533 0.90919 0.0
C698 C 0.6204 0.92327 0.8575 0.0
C699 C 0.64335 0.90964 0.87752 0.0
C700 C 0.64042 0.91398 0.91343 0.0
C701 C 0.61459 0.93168 0.92886 0.0
C702 C 0.62268 0.91893 0.81913 0.0
C703 C 0.66459 0.89998 0.93555 0.0
H704 H 0.68327 0.80012 0.83855 0.0
H705 H 0.75583 0.91545 0.82388 0.0
H706 H 0.62121 0.82578 0.89783 0.0
H707 H 0.60667 0.83207 0.85694 0.0
H708 H 0.62558 0.79078 0.86509 0.0
H709 H 0.74092 0.97411 0.84138 0.0
H710 H 0.69529 0.97311 0.83902 0.0
H711 H 0.71014 0.96663 0.87973 0.0
H712 H 0.5773 0.95141 0.85823 0.0
H713 H 0.61235 0.9349 0.95639 0.0
H714 H 0.61903 0.88704 0.81319 0.0
H715 H 0.64918 0.93501 0.80699 0.0
H716 H 0.60264 0.93074 0.80732 0.0
H717 H 0.66195 0.86752 0.933 0.0
H718 H 0.65893 0.90569 0.9631 0.0
H719 H 0.69238 0.91532 0.9268 0.0
C720 C 0.7871 0.14385 0.3871 0.0
C721 C 0.75546 0.13256 0.40885 0.0
C722 C 0.81744 0.1329 0.39539 0.0
C723 C 0.81572 0.10911 0.4256 0.0
C724 C 0.78372 0.09765 0.44758 0.0
C725 C 0.75416 0.11011 0.4392 0.0
C726 C 0.85128 0.14669 0.37181 0.0
C727 C 0.78044 0.07138 0.47949 0.0
C728 C 0.88152 0.04525 0.42786 0.0
C729 C 0.90436 0.0656 0.45038 0.0
C730 C 0.85256 0.05903 0.41971 0.0
C731 C 0.84689 0.09476 0.43357 0.0
C732 C 0.87042 0.11601 0.45568 0.0
C733 C 0.89856 0.10078 0.46431 0.0
C734 C 0.82758 0.0348 0.39689 0.0
C735 C 0.86586 0.15479 0.47019 0.0
H736 H 0.78826 0.16167 0.36381 0.0
H737 H 0.72965 0.10137 0.45598 0.0
H738 H 0.87279 0.16209 0.38658 0.0
H739 H 0.85909 0.12059 0.36042 0.0
H740 H 0.84888 0.16729 0.35067 0.0
H741 H 0.75367 0.06499 0.49377 0.0
H742 H 0.78649 0.04266 0.47244 0.0
H743 H 0.79978 0.0858 0.49687 0.0
H744 H 0.88569 0.01777 0.41735 0.0
H745 H 0.91631 0.11667 0.48158 0.0
H746 H 0.82644 0.05298 0.37369 0.0
H747 H 0.80061 0.02606 0.41068 0.0
H748 H 0.83543 0.00735 0.38865 0.0
H749 H 0.8647 0.17604 0.44908 0.0
H750 H 0.88758 0.16887 0.48528 0.0
H751 H 0.84062 0.14955 0.48705 0.0
C752 C 0.25684 0.60043 0.17861 0.0
C753 C 0.26901 0.64084 0.18529 0.0
C754 C 0.22473 0.58647 0.165 0.0
C755 C 0.20424 0.61354 0.15813 0.0
C756 C 0.21572 0.65403 0.16618 0.0
C757 C 0.24798 0.66719 0.1796 0.0
C758 C 0.21338 0.54306 0.15674 0.0
C759 C 0.19447 0.68373 0.15961 0.0
C760 C 0.14311 0.58643 0.08878 0.0
C761 C 0.11071 0.56978 0.10823 0.0
C762 C 0.17363 0.60137 0.10474 0.0
C763 C 0.17167 0.59984 0.14103 0.0
C764 C 0.13884 0.58433 0.16082 0.0
C765 C 0.10878 0.5694 0.14419 0.0
C766 C 0.20817 0.61773 0.08273 0.0
C767 C 0.13563 0.58255 0.19955 0.0
H768 H 0.27315 0.58005 0.18267 0.0
H769 H 0.25712 0.69838 0.18514 0.0
H770 H 0.18636 0.52964 0.16918 0.0
H771 H 0.21274 0.54049 0.12863 0.0
H772 H 0.23132 0.52548 0.16526 0.0
H773 H 0.20589 0.7135 0.16938 0.0
H774 H 0.19322 0.68721 0.13163 0.0
H775 H 0.16705 0.67272 0.17192 0.0
H776 H 0.1449 0.58675 0.06101 0.0
H777 H 0.08384 0.5567 0.15945 0.0
H778 H 0.22686 0.59941 0.08741 0.0
H779 H 0.22017 0.64861 0.08972 0.0
H780 H 0.20505 0.61799 0.05491 0.0
H781 H 0.15111 0.56235 0.20855 0.0
H782 H 0.1079 0.57167 0.21119 0.0
H783 H 0.14666 0.6125 0.2091 0.0
C784 C 0.25878 0.38653 0.65231 0.0
C785 C 0.25876 0.36261 0.68143 0.0
C786 C 0.29031 0.41067 0.63597 0.0
C787 C 0.32247 0.40994 0.64868 0.0
C788 C 0.32254 0.38516 0.67776 0.0
C789 C 0.29051 0.36209 0.6941 0.0
C790 C 0.28917 0.43744 0.60552 0.0
C791 C 0.35641 0.38304 0.69157 0.0
C792 C 0.40631 0.44831 0.58841 0.0
C793 C 0.41921 0.48614 0.60091 0.0
C794 C 0.37503 0.42282 0.60406 0.0
C795 C 0.35593 0.43608 0.6322 0.0
C796 C 0.36869 0.47449 0.64459 0.0
C797 C 0.40045 0.49888 0.62903 0.0
C798 C 0.36256 0.38168 0.59072 0.0
C799 C 0.34861 0.48998 0.67403 0.0
H800 H 0.234 0.38684 0.64277 0.0
H801 H 0.29023 0.34321 0.71652 0.0
H802 H 0.30056 0.46902 0.61107 0.0
H803 H 0.30538 0.4303 0.58278 0.0
H804 H 0.26196 0.4345 0.59895 0.0
H805 H 0.35199 0.36076 0.71333 0.0
H806 H 0.3747 0.37512 0.67093 0.0
H807 H 0.3696 0.41264 0.70042 0.0
H808 H 0.421 0.43838 0.56679 0.0
H809 H 0.41029 0.52832 0.63851 0.0
H810 H 0.33631 0.37829 0.58168 0.0
H811 H 0.35962 0.35879 0.6117 0.0
H812 H 0.38098 0.37557 0.56922 0.0
H813 H 0.32166 0.48932 0.66783 0.0
H814 H 0.36173 0.52097 0.67995 0.0
H815 H 0.34586 0.47049 0.69741 0.0
C816 C 0.84091 0.67487 0.82347 0.0
C817 C 0.83263 0.71044 0.83333 0.0
C818 C 0.86201 0.65745 0.84249 0.0
C819 C 0.87593 0.67692 0.8713 0.0
C820 C 0.86843 0.71353 0.88069 0.0
C821 C 0.84646 0.72961 0.86183 0.0
C822 C 0.86871 0.61784 0.83228 0.0
C823 C 0.8833 0.73548 0.91088 0.0
C824 C 0.89945 0.61561 0.94187 0.0
C825 C 0.93594 0.6218 0.93379 0.0
C826 C 0.87964 0.63308 0.92151 0.0
C827 C 0.89683 0.65804 0.89275 0.0
C828 C 0.93377 0.66513 0.8848 0.0
C829 C 0.9529 0.64652 0.90526 0.0
C830 C 0.8402 0.62418 0.93045 0.0
C831 C 0.95302 0.69231 0.85473 0.0
H832 H 0.83023 0.66023 0.80133 0.0
H833 H 0.84052 0.75753 0.86914 0.0
H834 H 0.89742 0.6204 0.82749 0.0
H835 H 0.85807 0.59517 0.85356 0.0
H836 H 0.85643 0.60694 0.80889 0.0
H837 H 0.87679 0.76486 0.91342 0.0
H838 H 0.87276 0.71727 0.93495 0.0
H839 H 0.91235 0.7403 0.9082 0.0
H840 H 0.88609 0.59624 0.96371 0.0
H841 H 0.9811 0.65138 0.89898 0.0
H842 H 0.82691 0.60847 0.90922 0.0
H843 H 0.83167 0.65231 0.93356 0.0
H844 H 0.83108 0.60537 0.95445 0.0
H845 H 0.94322 0.68048 0.83054 0.0
H846 H 0.98191 0.69558 0.85259 0.0
H847 H 0.9478 0.72229 0.85731 0.0
C848 C 0.38504 0.74488 0.13087 0.0
C849 C 0.38478 0.74084 0.16656 0.0
C850 C 0.40317 0.78033 0.1126 0.0
C851 C 0.42179 0.81256 0.13038 0.0
C852 C 0.42293 0.80814 0.16619 0.0
C853 C 0.40436 0.77229 0.1839 0.0
C854 C 0.4014 0.78372 0.07441 0.0
C855 C 0.44271 0.84176 0.18597 0.0
C856 C 0.48762 0.89423 0.07512 0.0
C857 C 0.46788 0.92239 0.07102 0.0
C858 C 0.47338 0.85888 0.09524 0.0
C859 C 0.43851 0.8514 0.11155 0.0
C860 C 0.41872 0.88008 0.10816 0.0
C861 C 0.43364 0.9152 0.08799 0.0
C862 C 0.49537 0.82913 0.0984 0.0
C863 C 0.38138 0.87316 0.12505 0.0
H864 H 0.37048 0.72039 0.11724 0.0
H865 H 0.40409 0.76943 0.2115 0.0
H866 H 0.3879 0.80731 0.06866 0.0
H867 H 0.42832 0.79262 0.06055 0.0
H868 H 0.38707 0.75533 0.06421 0.0
H869 H 0.44337 0.83253 0.21311 0.0
H870 H 0.47014 0.85285 0.17369 0.0
H871 H 0.43003 0.86706 0.18562 0.0
H872 H 0.51418 0.89957 0.0623 0.0
H873 H 0.41813 0.93668 0.085 0.0
H874 H 0.48326 0.80115 0.08622 0.0
H875 H 0.49616 0.82142 0.12582 0.0
H876 H 0.52278 0.84057 0.08605 0.0
H877 H 0.36444 0.84689 0.11415 0.0
H878 H 0.37023 0.8993 0.12143 0.0
H879 H 0.3803 0.86648 0.15296 0.0
C880 C 0.14408 0.26168 0.64414 0.0
C881 C 0.15139 0.25302 0.67721 0.0
C882 C 0.1283 0.23118 0.62362 0.0
C883 C 0.12009 0.19113 0.63645 0.0
C884 C 0.12586 0.18242 0.67046 0.0
C885 C 0.14132 0.21361 0.69057 0.0
C886 C 0.12205 0.24164 0.58767 0.0
C887 C 0.11763 0.14002 0.68491 0.0
C888 C 0.06253 0.10911 0.59017 0.0
C889 C 0.0879 0.09376 0.57085 0.0
C890 C 0.07256 0.14133 0.61127 0.0
C891 C 0.10874 0.1582 0.61326 0.0
C892 C 0.13443 0.14322 0.59341 0.0
C893 C 0.12368 0.11131 0.5723 0.0
C894 C 0.04451 0.15693 0.63177 0.0
C895 C 0.1733 0.16036 0.59502 0.0
H896 H 0.15156 0.2923 0.63402 0.0
H897 H 0.1472 0.20697 0.71609 0.0
H898 H 0.14036 0.23094 0.56883 0.0
H899 H 0.09487 0.22658 0.58276 0.0
H900 H 0.12616 0.2743 0.58303 0.0
H901 H 0.12079 0.13858 0.71269 0.0
H902 H 0.09031 0.12412 0.68123 0.0
H903 H 0.1355 0.12383 0.67095 0.0
H904 H 0.03481 0.09572 0.58904 0.0
H905 H 0.14341 0.09951 0.55754 0.0
H906 H 0.04886 0.18943 0.62621 0.0
H907 H 0.04611 0.1527 0.6596 0.0
H908 H 0.01758 0.14168 0.62614 0.0
H909 H 0.18048 0.1927 0.5878 0.0
H910 H 0.18988 0.14547 0.57774 0.0
H911 H 0.17964 0.15714 0.62166 0.0
C912 C 0.58932 0.2154 0.39661 0.0
C913 C 0.62555 0.22538 0.38586 0.0
C914 C 0.57343 0.24224 0.4148 0.0
C915 C 0.59417 0.28026 0.4217 0.0
C916 C 0.63079 0.29047 0.41075 0.0
C917 C 0.64609 0.26272 0.39328 0.0
C918 C 0.5345 0.2299 0.42667 0.0
C919 C 0.65372 0.33095 0.41703 0.0
C920 C 0.55067 0.36583 0.43947 0.0
C921 C 0.55189 0.3693 0.47492 0.0
C922 C 0.5638 0.33654 0.42187 0.0
C923 C 0.57773 0.30953 0.44029 0.0
C924 C 0.5775 0.31179 0.47633 0.0
C925 C 0.56499 0.34195 0.49314 0.0
C926 C 0.56415 0.3356 0.38336 0.0
C927 C 0.59135 0.28302 0.49703 0.0
H928 H 0.57348 0.18641 0.39099 0.0
H929 H 0.67404 0.27059 0.38462 0.0
H930 H 0.52999 0.23229 0.45488 0.0
H931 H 0.52089 0.25027 0.41474 0.0
H932 H 0.52231 0.19886 0.42012 0.0
H933 H 0.68159 0.33448 0.40632 0.0
H934 H 0.64362 0.35468 0.40526 0.0
H935 H 0.65283 0.33568 0.44498 0.0
H936 H 0.54091 0.38716 0.42522 0.0
H937 H 0.56584 0.34443 0.52058 0.0
H938 H 0.55075 0.30543 0.37585 0.0
H939 H 0.59174 0.34219 0.37112 0.0
H940 H 0.5511 0.35761 0.37301 0.0
H941 H 0.57876 0.25182 0.49132 0.0
H942 H 0.58659 0.28663 0.52509 0.0
H943 H 0.62008 0.28779 0.48982 0.0
loop_
_geom_bond_atom_site_label_1
_geom_bond_atom_site_label_2
_geom_bond_distance
_geom_bond_site_symmetry_2
_ccdc_geom_bond_type
H0 C5 0.930 . S
H1 C8 0.930 . S
H2 C10 0.930 . S
H3 C4 1.016 . S
C4 H3 1.016 . S
C4 N11 1.286 . S
C5 H0 0.930 . S
C5 C6 1.397 . S
C5 C7 1.361 . S
C6 C5 1.397 . S
C6 C10 1.390 . S
C7 C5 1.361 . S
C7 C8 1.393 . S
C7 N11 1.413 . S
C8 H1 0.930 . S
C8 C7 1.393 . S
C8 C9 1.399 . S
C9 C8 1.399 . S
C9 C10 1.381 . S
C10 H2 0.930 . S
C10 C6 1.390 . S
C10 C9 1.381 . S
N11 C4 1.286 . S
N11 C7 1.413 . S
H12 C17 0.930 . S
H13 C20 0.930 . S
H14 C22 0.930 . S
H15 C16 1.016 . S
C16 H15 1.016 . S
C16 N23 1.286 . S
C17 H12 0.930 . S
C17 C18 1.397 . S
C17 C19 1.361 . S
C18 C17 1.397 . S
C18 C22 1.390 . S
C19 C17 1.361 . S
C19 C20 1.393 . S
C19 N23 1.413 . S
C20 H13 0.930 . S
C20 C19 1.393 . S
C20 C21 1.399 . S
C21 C20 1.399 . S
C21 C22 1.381 . S
C22 H14 0.930 . S
C22 C18 1.390 . S
C22 C21 1.381 . S
N23 C16 1.286 . S
N23 C19 1.413 . S
H24 C29 0.930 . S
H25 C32 0.930 . S
H26 C34 0.930 . S
H27 C28 1.016 . S
C28 H27 1.016 . S
C28 N35 1.286 . S
C29 H24 0.930 . S
C29 C30 1.397 . S
C29 C31 1.361 . S
C30 C29 1.397 . S
C30 C34 1.390 . S
C31 C29 1.361 . S
C31 C32 1.393 . S
C31 N35 1.413 . S
C32 H25 0.930 . S
C32 C31 1.393 . S
C32 C33 1.399 . S
C33 C32 1.399 . S
C33 C34 1.381 . S
C34 H26 0.930 . S
C34 C30 1.390 . S
C34 C33 1.381 . S
N35 C28 1.286 . S
N35 C31 1.413 . S
H36 C41 0.930 . S
H37 C44 0.930 . S
H38 C46 0.930 . S
H39 C40 1.016 . S
C40 H39 1.016 . S
C40 N47 1.286 . S
C41 H36 0.930 . S
C41 C42 1.397 . S
C41 C43 1.361 . S
C42 C41 1.397 . S
C42 C46 1.390 . S
C43 C41 1.361 . S
C43 C44 1.393 . S
C43 N47 1.413 . S
C44 H37 0.930 . S
C44 C43 1.393 . S
C44 C45 1.399 . S
C45 C44 1.399 . S
C45 C46 1.381 . S
C46 H38 0.930 . S
C46 C42 1.390 . S
C46 C45 1.381 . S
N47 C40 1.286 . S
N47 C43 1.413 . S
H48 C53 0.930 . S
H49 C56 0.930 . S
H50 C58 0.930 . S
H51 C52 1.016 . S
C52 H51 1.016 . S
C52 N59 1.286 . S
C53 H48 0.930 . S
C53 C54 1.397 . S
C53 C55 1.361 . S
C54 C53 1.397 . S
C54 C58 1.390 . S
C55 C53 1.361 . S
C55 C56 1.393 . S
C55 N59 1.413 . S
C56 H49 0.930 . S
C56 C55 1.393 . S
C56 C57 1.399 . S
C57 C56 1.399 . S
C57 C58 1.381 . S
C58 H50 0.930 . S
C58 C54 1.390 . S
C58 C57 1.381 . S
N59 C52 1.286 . S
N59 C55 1.413 . S
H60 C65 0.930 . S
H61 C68 0.930 . S
H62 C70 0.930 . S
H63 C64 1.016 . S
C64 H63 1.016 . S
C64 N71 1.286 . S
C65 H60 0.930 . S
C65 C66 1.397 . S
C65 C67 1.361 . S
C66 C65 1.397 . S
C66 C70 1.390 . S
C67 C65 1.361 . S
C67 C68 1.393 . S
C67 N71 1.413 . S
C68 H61 0.930 . S
C68 C67 1.393 . S
C68 C69 1.399 . S
C69 C68 1.399 . S
C69 C70 1.381 . S
C70 H62 0.930 . S
C70 C66 1.390 . S
C70 C69 1.381 . S
N71 C64 1.286 . S
N71 C67 1.413 . S
H72 C77 0.930 . S
H73 C80 0.930 . S
H74 C82 0.930 . S
H75 C76 1.016 . S
C76 H75 1.016 . S
C76 N83 1.286 . S
C77 H72 0.930 . S
C77 C78 1.397 . S
C77 C79 1.361 . S
C78 C77 1.397 . S
C78 C82 1.390 . S
C79 C77 1.361 . S
C79 C80 1.393 . S
C79 N83 1.413 . S
C80 H73 0.930 . S
C80 C79 1.393 . S
C80 C81 1.399 . S
C81 C80 1.399 . S
C81 C82 1.381 . S
C82 H74 0.930 . S
C82 C78 1.390 . S
C82 C81 1.381 . S
N83 C76 1.286 . S
N83 C79 1.413 . S
H84 C89 0.930 . S
H85 C92 0.930 . S
H86 C94 0.930 . S
H87 C88 1.016 . S
C88 H87 1.016 . S
C88 N95 1.286 . S
C89 H84 0.930 . S
C89 C90 1.397 . S
C89 C91 1.361 . S
C90 C89 1.397 . S
C90 C94 1.390 . S
C91 C89 1.361 . S
C91 C92 1.393 . S
C91 N95 1.413 . S
C92 H85 0.930 . S
C92 C91 1.393 . S
C92 C93 1.399 . S
C93 C92 1.399 . S
C93 C94 1.381 . S
C94 H86 0.930 . S
C94 C90 1.390 . S
C94 C93 1.381 . S
N95 C88 1.286 . S
N95 C91 1.413 . S
Zn96 O102 1.969 1_545 S
Zn96 O103 1.965 1_545 S
Zn96 O107 2.024 . S
Zn96 O112 1.969 . S
Zn97 O104 1.969 . S
Zn97 O110 1.969 1_565 S
Zn97 O111 1.965 1_665 S
Zn97 O113 2.024 . S
C98 O99 1.229 . S
C98 O107 1.058 . S
O99 C98 1.229 . S
C100 O101 1.229 . S
C100 O113 1.058 . S
O101 C100 1.229 . S
O102 Zn96 1.969 1_565 S
O102 C105 1.267 . S
O103 Zn96 1.965 1_565 S
O103 C114 1.260 1_455 S
O104 Zn97 1.969 . S
O104 C114 1.258 . S
C105 O102 1.267 . S
C105 O106 1.228 . S
O106 C105 1.228 . S
O107 Zn96 2.024 . S
O107 C98 1.058 . S
C108 O109 1.228 . S
C108 O110 1.267 . S
O109 C108 1.228 . S
O110 Zn97 1.969 1_545 S
O110 C108 1.267 . S
O111 Zn97 1.965 1_445 S
O111 C115 1.260 . S
O112 Zn96 1.969 . S
O112 C115 1.258 . S
O113 Zn97 2.024 . S
O113 C100 1.058 . S
C114 O103 1.260 1_655 S
C114 O104 1.258 . S
C115 O111 1.260 . S
C115 O112 1.258 . S
Zn116 O122 1.969 . S
Zn116 O123 1.965 1_565 S
Zn116 O127 2.024 . S
Zn116 O132 1.969 1_556 S
Zn117 O124 1.969 . S
Zn117 O130 1.969 . S
Zn117 O131 1.965 1_545 S
Zn117 O133 2.024 . S
C118 O119 1.229 . S
C118 O127 1.058 . S
O119 C118 1.229 . S
C120 O121 1.229 . S
C120 O133 1.058 . S
O121 C120 1.229 . S
O122 Zn116 1.969 . S
O122 C125 1.267 . S
O123 Zn116 1.965 1_545 S
O123 C134 1.260 . S
O124 Zn117 1.969 . S
O124 C134 1.258 1_554 S
C125 O122 1.267 . S
C125 O126 1.228 . S
O126 C125 1.228 . S
O127 Zn116 2.024 . S
O127 C118 1.058 . S
C128 O129 1.228 . S
C128 O130 1.267 . S
O129 C128 1.228 . S
O130 Zn117 1.969 . S
O130 C128 1.267 . S
O131 Zn117 1.965 1_565 S
O131 C135 1.260 . S
O132 Zn116 1.969 1_554 S
O132 C135 1.258 . S
O133 Zn117 2.024 . S
O133 C120 1.058 . S
C134 O123 1.260 . S
C134 O124 1.258 1_556 S
C135 O131 1.260 . S
C135 O132 1.258 . S
Zn136 O142 1.969 . S
Zn136 O143 1.965 . S
Zn136 O147 2.024 . S
Zn136 O152 1.969 . S
Zn137 O144 1.969 . S
Zn137 O150 1.969 . S
Zn137 O151 1.965 . S
Zn137 O153 2.024 . S
C138 O139 1.229 . S
C138 O147 1.058 . S
O139 C138 1.229 . S
C140 O141 1.229 . S
C140 O153 1.058 . S
O141 C140 1.229 . S
O142 Zn136 1.969 . S
O142 C145 1.267 . S
O143 Zn136 1.965 . S
O143 C154 1.260 . S
O144 Zn137 1.969 . S
O144 C154 1.258 . S
C145 O142 1.267 . S
C145 O146 1.228 . S
O146 C145 1.228 . S
O147 Zn136 2.024 . S
O147 C138 1.058 . S
C148 O149 1.228 . S
C148 O150 1.267 . S
O149 C148 1.228 . S
O150 Zn137 1.969 . S
O150 C148 1.267 . S
O151 Zn137 1.965 . S
O151 C155 1.260 . S
O152 Zn136 1.969 . S
O152 C155 1.258 . S
O153 Zn137 2.024 . S
O153 C140 1.058 . S
C154 O143 1.260 . S
C154 O144 1.258 . S
C155 O151 1.260 . S
C155 O152 1.258 . S
Zn156 O162 1.969 . S
Zn156 O163 1.965 1_556 S
Zn156 O167 2.024 . S
Zn156 O172 1.969 1_655 S
Zn157 O164 1.969 . S
Zn157 O170 1.969 . S
Zn157 O171 1.935 1_554 S
Zn157 O173 2.024 . S
C158 O159 1.229 . S
C158 O167 1.058 . S
O159 C158 1.229 . S
C160 O161 1.229 . S
C160 O173 1.058 . S
O161 C160 1.229 . S
O162 Zn156 1.969 . S
O162 C165 1.267 . S
O163 Zn156 1.965 1_554 S
O163 C174 1.260 . S
O164 Zn157 1.969 . S
O164 C174 1.258 1_455 S
C165 O162 1.267 . S
C165 O166 1.228 . S
O166 C165 1.228 . S
O167 Zn156 2.024 . S
O167 C158 1.058 . S
C168 O169 1.228 . S
C168 O170 1.267 . S
O169 C168 1.228 . S
O170 Zn157 1.969 . S
O170 C168 1.267 . S
O171 Zn157 1.935 1_556 S
O171 C175 1.291 . S
O172 Zn156 1.969 1_455 S
O172 C175 1.258 . S
O173 Zn157 2.024 . S
O173 C160 1.058 . S
C174 O163 1.260 . S
C174 O164 1.258 1_655 S
C175 O171 1.291 . S
C175 O172 1.258 . S
C176 C177 1.391 . S
C176 C178 1.394 . S
C176 H192 0.931 . S
C177 C176 1.391 . S
C177 C181 1.376 . S
C178 C176 1.394 . S
C178 C179 1.369 . S
C178 C182 1.531 . S
C179 C178 1.369 . S
C179 C180 1.410 . S
C179 C187 1.503 . S
C180 C179 1.410 . S
C180 C181 1.392 . S
C180 C183 1.511 . S
C181 C177 1.376 . S
C181 C180 1.392 . S
C181 H193 0.929 . S
C182 C178 1.531 . S
C182 H194 0.960 . S
C182 H195 0.962 . S
C182 H196 0.960 . S
C183 C180 1.511 . S
C183 H197 0.961 . S
C183 H198 0.961 . S
C183 H199 0.961 . S
C184 C185 1.370 . S
C184 C186 1.363 . S
C184 H200 0.931 . S
C185 C184 1.370 . S
C185 C189 1.408 . S
C186 C184 1.363 . S
C186 C187 1.370 . S
C186 C190 1.524 . S
C187 C179 1.503 . S
C187 C186 1.370 . S
C187 C188 1.403 . S
C188 C187 1.403 . S
C188 C189 1.404 . S
C188 C191 1.539 . S
C189 C185 1.408 . S
C189 C188 1.404 . S
C189 H201 0.930 . S
C190 C186 1.524 . S
C190 H202 0.956 . S
C190 H203 0.961 . S
C190 H204 0.961 . S
C191 C188 1.539 . S
C191 H205 0.958 . S
C191 H206 0.961 . S
C191 H207 0.960 . S
H192 C176 0.931 . S
H193 C181 0.929 . S
H194 C182 0.960 . S
H195 C182 0.962 . S
H196 C182 0.960 . S
H197 C183 0.961 . S
H198 C183 0.961 . S
H199 C183 0.961 . S
H200 C184 0.931 . S
H201 C189 0.930 . S
H202 C190 0.956 . S
H203 C190 0.961 . S
H204 C190 0.961 . S
H205 C191 0.958 . S
H206 C191 0.961 . S
H207 C191 0.960 . S
C208 C209 1.391 . S
C208 C210 1.394 . S
C208 H224 0.931 . S
C209 C208 1.391 . S
C209 C213 1.376 . S
C210 C208 1.394 . S
C210 C211 1.369 . S
C210 C214 1.531 . S
C211 C210 1.369 . S
C211 C212 1.410 . S
C211 C219 1.503 . S
C212 C211 1.410 . S
C212 C213 1.392 . S
C212 C215 1.511 . S
C213 C209 1.376 . S
C213 C212 1.392 . S
C213 H225 0.929 . S
C214 C210 1.531 . S
C214 H226 0.960 . S
C214 H227 0.962 . S
C214 H228 0.960 . S
C215 C212 1.511 . S
C215 H229 0.961 . S
C215 H230 0.961 . S
C215 H231 0.961 . S
C216 C217 1.370 . S
C216 C218 1.363 . S
C216 H232 0.931 . S
C217 C216 1.370 . S
C217 C221 1.408 . S
C218 C216 1.363 . S
C218 C219 1.370 . S
C218 C222 1.524 . S
C219 C211 1.503 . S
C219 C218 1.370 . S
C219 C220 1.403 . S
C220 C219 1.403 . S
C220 C221 1.404 . S
C220 C223 1.539 . S
C221 C217 1.408 . S
C221 C220 1.404 . S
C221 H233 0.930 . S
C222 C218 1.524 . S
C222 H234 0.956 . S
C222 H235 0.961 . S
C222 H236 0.961 . S
C223 C220 1.539 . S
C223 H237 0.958 . S
C223 H238 0.961 . S
C223 H239 0.960 . S
H224 C208 0.931 . S
H225 C213 0.929 . S
H226 C214 0.960 . S
H227 C214 0.962 . S
H228 C214 0.960 . S
H229 C215 0.961 . S
H230 C215 0.961 . S
H231 C215 0.961 . S
H232 C216 0.931 . S
H233 C221 0.930 . S
H234 C222 0.956 . S
H235 C222 0.961 . S
H236 C222 0.961 . S
H237 C223 0.958 . S
H238 C223 0.961 . S
H239 C223 0.960 . S
C240 C241 1.391 . S
C240 C242 1.394 . S
C240 H256 0.931 . S
C241 C240 1.391 . S
C241 C245 1.376 . S
C242 C240 1.394 . S
C242 C243 1.369 . S
C242 C246 1.531 . S
C243 C242 1.369 . S
C243 C244 1.410 . S
C243 C251 1.503 . S
C244 C243 1.410 . S
C244 C245 1.392 . S
C244 C247 1.511 . S
C245 C241 1.376 . S
C245 C244 1.392 . S
C245 H257 0.929 . S
C246 C242 1.531 . S
C246 H258 0.960 . S
C246 H259 0.962 . S
C246 H260 0.960 . S
C247 C244 1.511 . S
C247 H261 0.961 . S
C247 H262 0.961 . S
C247 H263 0.961 . S
C248 C249 1.370 . S
C248 C250 1.363 . S
C248 H264 0.931 . S
C249 C248 1.370 . S
C249 C253 1.408 . S
C250 C248 1.363 . S
C250 C251 1.370 . S
C250 C254 1.524 . S
C251 C243 1.503 . S
C251 C250 1.370 . S
C251 C252 1.403 . S
C252 C251 1.403 . S
C252 C253 1.404 . S
C252 C255 1.539 . S
C253 C249 1.408 . S
C253 C252 1.404 . S
C253 H265 0.930 . S
C254 C250 1.524 . S
C254 H266 0.956 . S
C254 H267 0.961 . S
C254 H268 0.961 . S
C255 C252 1.539 . S
C255 H269 0.958 . S
C255 H270 0.961 . S
C255 H271 0.960 . S
H256 C240 0.931 . S
H257 C245 0.929 . S
H258 C246 0.960 . S
H259 C246 0.962 . S
H260 C246 0.960 . S
H261 C247 0.961 . S
H262 C247 0.961 . S
H263 C247 0.961 . S
H264 C248 0.931 . S
H265 C253 0.930 . S
H266 C254 0.956 . S
H267 C254 0.961 . S
H268 C254 0.961 . S
H269 C255 0.958 . S
H270 C255 0.961 . S
H271 C255 0.960 . S
C272 C273 1.391 . S
C272 C274 1.394 . S
C272 H288 0.931 . S
C273 C272 1.391 . S
C273 C277 1.376 . S
C274 C272 1.394 . S
C274 C275 1.369 . S
C274 C278 1.531 . S
C275 C274 1.369 . S
C275 C276 1.410 . S
C275 C283 1.503 . S
C276 C275 1.410 . S
C276 C277 1.392 . S
C276 C279 1.511 . S
C277 C273 1.376 . S
C277 C276 1.392 . S
C277 H289 0.929 . S
C278 C274 1.531 . S
C278 H290 0.960 . S
C278 H291 0.962 . S
C278 H292 0.960 . S
C279 C276 1.511 . S
C279 H293 0.961 . S
C279 H294 0.961 . S
C279 H295 0.961 . S
C280 C281 1.370 . S
C280 C282 1.363 . S
C280 H296 0.931 . S
C281 C280 1.370 . S
C281 C285 1.408 . S
C282 C280 1.363 . S
C282 C283 1.370 . S
C282 C286 1.524 . S
C283 C275 1.503 . S
C283 C282 1.370 . S
C283 C284 1.403 . S
C284 C283 1.403 . S
C284 C285 1.404 . S
C284 C287 1.539 . S
C285 C281 1.408 . S
C285 C284 1.404 . S
C285 H297 0.930 . S
C286 C282 1.524 . S
C286 H298 0.956 . S
C286 H299 0.961 . S
C286 H300 0.961 . S
C287 C284 1.539 . S
C287 H301 0.958 . S
C287 H302 0.961 . S
C287 H303 0.960 . S
H288 C272 0.931 . S
H289 C277 0.929 . S
H290 C278 0.960 . S
H291 C278 0.962 . S
H292 C278 0.960 . S
H293 C279 0.961 . S
H294 C279 0.961 . S
H295 C279 0.961 . S
H296 C280 0.931 . S
H297 C285 0.930 . S
H298 C286 0.956 . S
H299 C286 0.961 . S
H300 C286 0.961 . S
H301 C287 0.958 . S
H302 C287 0.961 . S
H303 C287 0.960 . S
C304 C305 1.391 . S
C304 C306 1.394 . S
C304 H320 0.931 . S
C305 C304 1.391 . S
C305 C309 1.376 . S
C306 C304 1.394 . S
C306 C307 1.369 . S
C306 C310 1.531 . S
C307 C306 1.369 . S
C307 C308 1.410 . S
C307 C315 1.503 . S
C308 C307 1.410 . S
C308 C309 1.392 . S
C308 C311 1.511 . S
C309 C305 1.376 . S
C309 C308 1.392 . S
C309 H321 0.929 . S
C310 C306 1.531 . S
C310 H322 0.960 . S
C310 H323 0.962 . S
C310 H324 0.960 . S
C311 C308 1.511 . S
C311 H325 0.961 . S
C311 H326 0.961 . S
C311 H327 0.961 . S
C312 C313 1.370 . S
C312 C314 1.363 . S
C312 H328 0.931 . S
C313 C312 1.370 . S
C313 C317 1.408 . S
C314 C312 1.363 . S
C314 C315 1.370 . S
C314 C318 1.524 . S
C315 C307 1.503 . S
C315 C314 1.370 . S
C315 C316 1.403 . S
C316 C315 1.403 . S
C316 C317 1.404 . S
C316 C319 1.539 . S
C317 C313 1.408 . S
C317 C316 1.404 . S
C317 H329 0.930 . S
C318 C314 1.524 . S
C318 H330 0.956 . S
C318 H331 0.961 . S
C318 H332 0.961 . S
C319 C316 1.539 . S
C319 H333 0.958 . S
C319 H334 0.961 . S
C319 H335 0.960 . S
H320 C304 0.931 . S
H321 C309 0.929 . S
H322 C310 0.960 . S
H323 C310 0.962 . S
H324 C310 0.960 . S
H325 C311 0.961 . S
H326 C311 0.961 . S
H327 C311 0.961 . S
H328 C312 0.931 . S
H329 C317 0.930 . S
H330 C318 0.956 . S
H331 C318 0.961 . S
H332 C318 0.961 . S
H333 C319 0.958 . S
H334 C319 0.961 . S
H335 C319 0.960 . S
C336 C337 1.391 . S
C336 C338 1.394 . S
C336 H352 0.931 . S
C337 C336 1.391 . S
C337 C341 1.376 . S
C338 C336 1.394 . S
C338 C339 1.369 . S
C338 C342 1.531 . S
C339 C338 1.369 . S
C339 C340 1.410 . S
C339 C347 1.503 . S
C340 C339 1.410 . S
C340 C341 1.392 . S
C340 C343 1.511 . S
C341 C337 1.376 . S
C341 C340 1.392 . S
C341 H353 0.929 . S
C342 C338 1.531 . S
C342 H354 0.960 . S
C342 H355 0.962 . S
C342 H356 0.960 . S
C343 C340 1.511 . S
C343 H357 0.961 . S
C343 H358 0.961 . S
C343 H359 0.961 . S
C344 C345 1.370 . S
C344 C346 1.363 . S
C344 H360 0.931 . S
C345 C344 1.370 . S
C345 C349 1.408 . S
C346 C344 1.363 . S
C346 C347 1.370 . S
C346 C350 1.524 . S
C347 C339 1.503 . S
C347 C346 1.370 . S
C347 C348 1.403 . S
C348 C347 1.403 . S
C348 C349 1.404 . S
C348 C351 1.539 . S
C349 C345 1.408 . S
C349 C348 1.404 . S
C349 H361 0.930 1_565 S
C350 C346 1.524 . S
C350 H362 0.956 . S
C350 H363 0.961 . S
C350 H364 0.961 . S
C351 C348 1.539 . S
C351 H365 0.958 . S
C351 H366 0.961 1_565 S
C351 H367 0.960 . S
H352 C336 0.931 . S
H353 C341 0.929 . S
H354 C342 0.960 . S
H355 C342 0.962 . S
H356 C342 0.960 . S
H357 C343 0.961 . S
H358 C343 0.961 . S
H359 C343 0.961 . S
H360 C344 0.931 . S
H361 C349 0.930 1_545 S
H362 C350 0.956 . S
H363 C350 0.961 . S
H364 C350 0.961 . S
H365 C351 0.958 . S
H366 C351 0.961 1_545 S
H367 C351 0.960 . S
C368 C369 1.391 . S
C368 C370 1.394 . S
C368 H384 0.931 . S
C369 C368 1.391 . S
C369 C373 1.376 . S
C370 C368 1.394 . S
C370 C371 1.369 . S
C370 C374 1.531 . S
C371 C370 1.369 . S
C371 C372 1.410 . S
C371 C379 1.503 . S
C372 C371 1.410 . S
C372 C373 1.392 . S
C372 C375 1.511 . S
C373 C369 1.376 . S
C373 C372 1.392 . S
C373 H385 0.929 . S
C374 C370 1.531 . S
C374 H386 0.960 . S
C374 H387 0.962 . S
C374 H388 0.960 . S
C375 C372 1.511 . S
C375 H389 0.961 . S
C375 H390 0.961 . S
C375 H391 0.961 . S
C376 C377 1.370 . S
C376 C378 1.363 . S
C376 H392 0.931 . S
C377 C376 1.370 . S
C377 C381 1.408 . S
C378 C376 1.363 . S
C378 C379 1.370 . S
C378 C382 1.524 . S
C379 C371 1.503 . S
C379 C378 1.370 . S
C379 C380 1.403 . S
C380 C379 1.403 . S
C380 C381 1.404 . S
C380 C383 1.539 . S
C381 C377 1.408 . S
C381 C380 1.404 . S
C381 H393 0.930 . S
C382 C378 1.524 . S
C382 H394 0.956 . S
C382 H395 0.961 . S
C382 H396 0.961 . S
C383 C380 1.539 . S
C383 H397 0.958 . S
C383 H398 0.961 . S
C383 H399 0.960 . S
H384 C368 0.931 . S
H385 C373 0.929 . S
H386 C374 0.960 . S
H387 C374 0.962 . S
H388 C374 0.960 . S
H389 C375 0.961 . S
H390 C375 0.961 . S
H391 C375 0.961 . S
H392 C376 0.931 . S
H393 C381 0.930 . S
H394 C382 0.956 . S
H395 C382 0.961 . S
H396 C382 0.961 . S
H397 C383 0.958 . S
H398 C383 0.961 . S
H399 C383 0.960 . S
C400 C401 1.391 . S
C400 C402 1.394 . S
C400 H416 0.931 . S
C401 C400 1.391 . S
C401 C405 1.376 . S
C402 C400 1.394 . S
C402 C403 1.369 . S
C402 C406 1.531 . S
C403 C402 1.369 . S
C403 C404 1.410 . S
C403 C411 1.503 . S
C404 C403 1.410 . S
C404 C405 1.392 . S
C404 C407 1.511 . S
C405 C401 1.376 . S
C405 C404 1.392 . S
C405 H417 0.929 . S
C406 C402 1.531 . S
C406 H418 0.960 . S
C406 H419 0.962 . S
C406 H420 0.960 . S
C407 C404 1.511 . S
C407 H421 0.961 . S
C407 H422 0.961 . S
C407 H423 0.961 . S
C408 C409 1.370 . S
C408 C410 1.363 . S
C408 H424 0.931 . S
C409 C408 1.370 . S
C409 C413 1.408 . S
C410 C408 1.363 . S
C410 C411 1.370 . S
C410 C414 1.524 . S
C411 C403 1.503 . S
C411 C410 1.370 . S
C411 C412 1.403 . S
C412 C411 1.403 . S
C412 C413 1.404 . S
C412 C415 1.539 . S
C413 C409 1.408 . S
C413 C412 1.404 . S
C413 H425 0.930 . S
C414 C410 1.524 . S
C414 H426 0.956 . S
C414 H427 0.961 . S
C414 H428 0.961 . S
C415 C412 1.539 . S
C415 H429 0.958 . S
C415 H430 0.961 . S
C415 H431 0.960 . S
H416 C400 0.931 . S
H417 C405 0.929 . S
H418 C406 0.960 . S
H419 C406 0.962 . S
H420 C406 0.960 . S
H421 C407 0.961 . S
H422 C407 0.961 . S
H423 C407 0.961 . S
H424 C408 0.931 . S
H425 C413 0.930 . S
H426 C414 0.956 . S
H427 C414 0.961 . S
H428 C414 0.961 . S
H429 C415 0.958 . S
H430 C415 0.961 . S
H431 C415 0.960 . S
C432 C433 1.391 . S
C432 C434 1.394 . S
C432 H448 0.931 . S
C433 C432 1.391 . S
C433 C437 1.376 . S
C434 C432 1.394 . S
C434 C435 1.369 . S
C434 C438 1.531 . S
C435 C434 1.369 . S
C435 C436 1.410 . S
C435 C443 1.503 . S
C436 C435 1.410 . S
C436 C437 1.392 . S
C436 C439 1.511 . S
C437 C433 1.376 . S
C437 C436 1.392 . S
C437 H449 0.929 . S
C438 C434 1.531 . S
C438 H450 0.960 . S
C438 H451 0.962 . S
C438 H452 0.960 . S
C439 C436 1.511 . S
C439 H453 0.961 . S
C439 H454 0.961 . S
C439 H455 0.961 . S
C440 C441 1.370 . S
C440 C442 1.363 . S
C440 H456 0.931 . S
C441 C440 1.370 . S
C441 C445 1.408 . S
C442 C440 1.363 . S
C442 C443 1.370 . S
C442 C446 1.524 . S
C443 C435 1.503 . S
C443 C442 1.370 . S
C443 C444 1.403 . S
C444 C443 1.403 . S
C444 C445 1.404 . S
C444 C447 1.539 . S
C445 C441 1.408 . S
C445 C444 1.404 . S
C445 H457 0.930 . S
C446 C442 1.524 . S
C446 H458 0.956 . S
C446 H459 0.961 . S
C446 H460 0.961 . S
C447 C444 1.539 . S
C447 H461 0.958 . S
C447 H462 0.961 . S
C447 H463 0.960 . S
H448 C432 0.931 . S
H449 C437 0.929 . S
H450 C438 0.960 . S
H451 C438 0.962 . S
H452 C438 0.960 . S
H453 C439 0.961 . S
H454 C439 0.961 . S
H455 C439 0.961 . S
H456 C440 0.931 . S
H457 C445 0.930 . S
H458 C446 0.956 . S
H459 C446 0.961 . S
H460 C446 0.961 . S
H461 C447 0.958 . S
H462 C447 0.961 . S
H463 C447 0.960 . S
C464 C465 1.391 . S
C464 C466 1.394 . S
C464 H480 0.931 . S
C465 C464 1.391 . S
C465 C469 1.376 . S
C466 C464 1.394 . S
C466 C467 1.369 . S
C466 C470 1.531 . S
C467 C466 1.369 . S
C467 C468 1.410 . S
C467 C475 1.503 . S
C468 C467 1.410 . S
C468 C469 1.392 . S
C468 C471 1.511 . S
C469 C465 1.376 . S
C469 C468 1.392 . S
C469 H481 0.929 . S
C470 C466 1.531 . S
C470 H482 0.960 . S
C470 H483 0.962 . S
C470 H484 0.960 . S
C471 C468 1.511 . S
C471 H485 0.961 . S
C471 H486 0.961 . S
C471 H487 0.961 . S
C472 C473 1.370 . S
C472 C474 1.363 . S
C472 H488 0.931 . S
C473 C472 1.370 . S
C473 C477 1.408 . S
C474 C472 1.363 . S
C474 C475 1.370 . S
C474 C478 1.524 . S
C475 C467 1.503 . S
C475 C474 1.370 . S
C475 C476 1.403 . S
C476 C475 1.403 . S
C476 C477 1.404 . S
C476 C479 1.539 . S
C477 C473 1.408 . S
C477 C476 1.404 . S
C477 H489 0.930 . S
C478 C474 1.524 . S
C478 H490 0.956 . S
C478 H491 0.961 . S
C478 H492 0.961 . S
C479 C476 1.539 . S
C479 H493 0.958 . S
C479 H494 0.961 . S
C479 H495 0.960 . S
H480 C464 0.931 . S
H481 C469 0.929 . S
H482 C470 0.960 . S
H483 C470 0.962 . S
H484 C470 0.960 . S
H485 C471 0.961 . S
H486 C471 0.961 . S
H487 C471 0.961 . S
H488 C472 0.931 . S
H489 C477 0.930 . S
H490 C478 0.956 . S
H491 C478 0.961 . S
H492 C478 0.961 . S
H493 C479 0.958 . S
H494 C479 0.961 . S
H495 C479 0.960 . S
C496 C497 1.391 . S
C496 C498 1.394 . S
C496 H512 0.931 . S
C497 C496 1.391 . S
C497 C501 1.376 . S
C498 C496 1.394 . S
C498 C499 1.369 . S
C498 C502 1.531 . S
C499 C498 1.369 . S
C499 C500 1.410 . S
C499 C507 1.503 . S
C500 C499 1.410 . S
C500 C501 1.392 . S
C500 C503 1.511 . S
C501 C497 1.376 . S
C501 C500 1.392 . S
C501 H513 0.929 . S
C502 C498 1.531 . S
C502 H514 0.960 . S
C502 H515 0.962 . S
C502 H516 0.960 . S
C503 C500 1.511 . S
C503 H517 0.961 . S
C503 H518 0.961 . S
C503 H519 0.961 . S
C504 C505 1.370 . S
C504 C506 1.363 . S
C504 H520 0.931 . S
C505 C504 1.370 . S
C505 C509 1.408 . S
C506 C504 1.363 . S
C506 C507 1.370 . S
C506 C510 1.524 . S
C507 C499 1.503 . S
C507 C506 1.370 . S
C507 C508 1.403 . S
C508 C507 1.403 . S
C508 C509 1.404 . S
C508 C511 1.539 . S
C509 C505 1.408 . S
C509 C508 1.404 . S
C509 H521 0.930 . S
C510 C506 1.524 . S
C510 H522 0.956 . S
C510 H523 0.961 . S
C510 H524 0.961 . S
C511 C508 1.539 . S
C511 H525 0.958 . S
C511 H526 0.961 . S
C511 H527 0.960 . S
H512 C496 0.931 . S
H513 C501 0.929 . S
H514 C502 0.960 . S
H515 C502 0.962 . S
H516 C502 0.960 . S
H517 C503 0.961 . S
H518 C503 0.961 . S
H519 C503 0.961 . S
H520 C504 0.931 . S
H521 C509 0.930 . S
H522 C510 0.956 . S
H523 C510 0.961 . S
H524 C510 0.961 . S
H525 C511 0.958 . S
H526 C511 0.961 . S
H527 C511 0.960 . S
C528 C529 1.391 . S
C528 C530 1.394 . S
C528 H544 0.931 . S
C529 C528 1.391 . S
C529 C533 1.376 . S
C530 C528 1.394 . S
C530 C531 1.369 . S
C530 C534 1.531 . S
C531 C530 1.369 . S
C531 C532 1.410 . S
C531 C539 1.503 . S
C532 C531 1.410 . S
C532 C533 1.392 . S
C532 C535 1.511 . S
C533 C529 1.376 . S
C533 C532 1.392 . S
C533 H545 0.929 . S
C534 C530 1.531 . S
C534 H546 0.960 . S
C534 H547 0.962 . S
C534 H548 0.960 . S
C535 C532 1.511 . S
C535 H549 0.961 . S
C535 H550 0.961 . S
C535 H551 0.961 . S
C536 C537 1.370 . S
C536 C538 1.363 . S
C536 H552 0.931 . S
C537 C536 1.370 . S
C537 C541 1.408 . S
C538 C536 1.363 . S
C538 C539 1.370 . S
C538 C542 1.524 . S
C539 C531 1.503 . S
C539 C538 1.370 . S
C539 C540 1.403 . S
C540 C539 1.403 . S
C540 C541 1.404 . S
C540 C543 1.539 . S
C541 C537 1.408 . S
C541 C540 1.404 . S
C541 H553 0.930 . S
C542 C538 1.524 . S
C542 H554 0.956 . S
C542 H555 0.961 . S
C542 H556 0.961 . S
C543 C540 1.539 . S
C543 H557 0.958 . S
C543 H558 0.961 . S
C543 H559 0.960 . S
H544 C528 0.931 . S
H545 C533 0.929 . S
H546 C534 0.960 . S
H547 C534 0.962 . S
H548 C534 0.960 . S
H549 C535 0.961 . S
H550 C535 0.961 . S
H551 C535 0.961 . S
H552 C536 0.931 . S
H553 C541 0.930 . S
H554 C542 0.956 . S
H555 C542 0.961 . S
H556 C542 0.961 . S
H557 C543 0.958 . S
H558 C543 0.961 . S
H559 C543 0.960 . S
C560 C561 1.391 . S
C560 C562 1.394 . S
C560 H576 0.931 . S
C561 C560 1.391 . S
C561 C565 1.376 . S
C562 C560 1.394 . S
C562 C563 1.369 . S
C562 C566 1.531 . S
C563 C562 1.369 . S
C563 C564 1.410 . S
C563 C571 1.503 . S
C564 C563 1.410 . S
C564 C565 1.392 . S
C564 C567 1.511 . S
C565 C561 1.376 . S
C565 C564 1.392 . S
C565 H577 0.929 . S
C566 C562 1.531 . S
C566 H578 0.960 . S
C566 H579 0.962 . S
C566 H580 0.960 . S
C567 C564 1.511 . S
C567 H581 0.961 . S
C567 H582 0.961 . S
C567 H583 0.961 . S
C568 C569 1.370 . S
C568 C570 1.363 . S
C568 H584 0.931 . S
C569 C568 1.370 . S
C569 C573 1.408 . S
C570 C568 1.363 . S
C570 C571 1.370 . S
C570 C574 1.524 . S
C571 C563 1.503 . S
C571 C570 1.370 . S
C571 C572 1.403 . S
C572 C571 1.403 . S
C572 C573 1.404 . S
C572 C575 1.539 . S
C573 C569 1.408 . S
C573 C572 1.404 . S
C573 H585 0.930 . S
C574 C570 1.524 . S
C574 H586 0.956 . S
C574 H587 0.961 . S
C574 H588 0.961 . S
C575 C572 1.539 . S
C575 H589 0.958 . S
C575 H590 0.961 . S
C575 H591 0.960 . S
H576 C560 0.931 . S
H577 C565 0.929 . S
H578 C566 0.960 . S
H579 C566 0.962 . S
H580 C566 0.960 . S
H581 C567 0.961 . S
H582 C567 0.961 . S
H583 C567 0.961 . S
H584 C568 0.931 . S
H585 C573 0.930 . S
H586 C574 0.956 . S
H587 C574 0.961 . S
H588 C574 0.961 . S
H589 C575 0.958 . S
H590 C575 0.961 . S
H591 C575 0.960 . S
C592 C593 1.391 . S
C592 C594 1.394 . S
C592 H608 0.931 . S
C593 C592 1.391 . S
C593 C597 1.376 . S
C594 C592 1.394 . S
C594 C595 1.369 . S
C594 C598 1.531 . S
C595 C594 1.369 . S
C595 C596 1.410 . S
C595 C603 1.503 . S
C596 C595 1.410 . S
C596 C597 1.392 . S
C596 C599 1.511 . S
C597 C593 1.376 . S
C597 C596 1.392 . S
C597 H609 0.929 . S
C598 C594 1.531 . S
C598 H610 0.960 . S
C598 H611 0.962 . S
C598 H612 0.960 . S
C599 C596 1.511 . S
C599 H613 0.961 . S
C599 H614 0.961 . S
C599 H615 0.961 . S
C600 C601 1.370 . S
C600 C602 1.363 . S
C600 H616 0.931 . S
C601 C600 1.370 . S
C601 C605 1.408 . S
C602 C600 1.363 . S
C602 C603 1.370 . S
C602 C606 1.524 . S
C603 C595 1.503 . S
C603 C602 1.370 . S
C603 C604 1.403 . S
C604 C603 1.403 . S
C604 C605 1.404 . S
C604 C607 1.539 . S
C605 C601 1.408 . S
C605 C604 1.404 . S
C605 H617 0.930 . S
C606 C602 1.524 . S
C606 H618 0.956 . S
C606 H619 0.961 . S
C606 H620 0.961 . S
C607 C604 1.539 . S
C607 H621 0.958 . S
C607 H622 0.961 . S
C607 H623 0.960 . S
H608 C592 0.931 . S
H609 C597 0.929 . S
H610 C598 0.960 . S
H611 C598 0.962 . S
H612 C598 0.960 . S
H613 C599 0.961 . S
H614 C599 0.961 . S
H615 C599 0.961 . S
H616 C600 0.931 . S
H617 C605 0.930 . S
H618 C606 0.956 . S
H619 C606 0.961 . S
H620 C606 0.961 . S
H621 C607 0.958 . S
H622 C607 0.961 . S
H623 C607 0.960 . S
C624 C625 1.391 . S
C624 C626 1.394 . S
C624 H640 0.931 . S
C625 C624 1.391 . S
C625 C629 1.376 . S
C626 C624 1.394 . S
C626 C627 1.369 . S
C626 C630 1.531 . S
C627 C626 1.369 . S
C627 C628 1.410 . S
C627 C635 1.503 . S
C628 C627 1.410 . S
C628 C629 1.392 . S
C628 C631 1.511 . S
C629 C625 1.376 . S
C629 C628 1.392 . S
C629 H641 0.929 . S
C630 C626 1.531 . S
C630 H642 0.960 . S
C630 H643 0.962 . S
C630 H644 0.960 . S
C631 C628 1.511 . S
C631 H645 0.961 . S
C631 H646 0.961 . S
C631 H647 0.961 . S
C632 C633 1.370 . S
C632 C634 1.363 . S
C632 H648 0.931 . S
C633 C632 1.370 . S
C633 C637 1.408 . S
C634 C632 1.363 . S
C634 C635 1.370 . S
C634 C638 1.524 . S
C635 C627 1.503 . S
C635 C634 1.370 . S
C635 C636 1.403 . S
C636 C635 1.403 . S
C636 C637 1.404 . S
C636 C639 1.539 . S
C637 C633 1.408 . S
C637 C636 1.404 . S
C637 H649 0.930 . S
C638 C634 1.524 . S
C638 H650 0.956 . S
C638 H651 0.961 . S
C638 H652 0.961 . S
C639 C636 1.539 . S
C639 H653 0.958 . S
C639 H654 0.961 . S
C639 H655 0.960 . S
H640 C624 0.931 . S
H641 C629 0.929 . S
H642 C630 0.960 . S
H643 C630 0.962 . S
H644 C630 0.960 . S
H645 C631 0.961 . S
H646 C631 0.961 . S
H647 C631 0.961 . S
H648 C632 0.931 . S
H649 C637 0.930 . S
H650 C638 0.956 . S
H651 C638 0.961 . S
H652 C638 0.961 . S
H653 C639 0.958 . S
H654 C639 0.961 . S
H655 C639 0.960 . S
C656 C657 1.391 . S
C656 C658 1.394 . S
C656 H672 0.931 . S
C657 C656 1.391 . S
C657 C661 1.376 . S
C658 C656 1.394 . S
C658 C659 1.369 . S
C658 C662 1.531 . S
C659 C658 1.369 . S
C659 C660 1.410 . S
C659 C667 1.503 . S
C660 C659 1.410 . S
C660 C661 1.392 . S
C660 C663 1.511 . S
C661 C657 1.376 . S
C661 C660 1.392 . S
C661 H673 0.929 . S
C662 C658 1.531 . S
C662 H674 0.960 . S
C662 H675 0.962 . S
C662 H676 0.960 . S
C663 C660 1.511 . S
C663 H677 0.961 . S
C663 H678 0.961 . S
C663 H679 0.961 . S
C664 C665 1.370 . S
C664 C666 1.363 . S
C664 H680 0.931 . S
C665 C664 1.370 . S
C665 C669 1.408 . S
C666 C664 1.363 . S
C666 C667 1.370 . S
C666 C670 1.524 . S
C667 C659 1.503 . S
C667 C666 1.370 . S
C667 C668 1.403 . S
C668 C667 1.403 . S
C668 C669 1.404 . S
C668 C671 1.539 . S
C669 C665 1.408 . S
C669 C668 1.404 . S
C669 H681 0.930 . S
C670 C666 1.524 . S
C670 H682 0.956 . S
C670 H683 0.961 . S
C670 H684 0.961 . S
C671 C668 1.539 . S
C671 H685 0.958 . S
C671 H686 0.961 . S
C671 H687 0.960 . S
H672 C656 0.931 . S
H673 C661 0.929 . S
H674 C662 0.960 . S
H675 C662 0.962 . S
H676 C662 0.960 . S
H677 C663 0.961 . S
H678 C663 0.961 . S
H679 C663 0.961 . S
H680 C664 0.931 . S
H681 C669 0.930 . S
H682 C670 0.956 . S
H683 C670 0.961 . S
H684 C670 0.961 . S
H685 C671 0.958 . S
H686 C671 0.961 . S
H687 C671 0.960 . S
C688 C689 1.391 . S
C688 C690 1.394 . S
C688 H704 0.931 . S
C689 C688 1.391 . S
C689 C693 1.376 . S
C690 C688 1.394 . S
C690 C691 1.369 . S
C690 C694 1.531 . S
C691 C690 1.369 . S
C691 C692 1.410 . S
C691 C699 1.503 . S
C692 C691 1.410 . S
C692 C693 1.392 . S
C692 C695 1.511 . S
C693 C689 1.376 . S
C693 C692 1.392 . S
C693 H705 0.929 . S
C694 C690 1.531 . S
C694 H706 0.960 . S
C694 H707 0.962 . S
C694 H708 0.960 . S
C695 C692 1.511 . S
C695 H709 0.961 . S
C695 H710 0.961 . S
C695 H711 0.961 . S
C696 C697 1.370 . S
C696 C698 1.363 . S
C696 H712 0.931 . S
C697 C696 1.370 . S
C697 C701 1.408 . S
C698 C696 1.363 . S
C698 C699 1.370 . S
C698 C702 1.524 . S
C699 C691 1.503 . S
C699 C698 1.370 . S
C699 C700 1.403 . S
C700 C699 1.403 . S
C700 C701 1.404 . S
C700 C703 1.539 . S
C701 C697 1.408 . S
C701 C700 1.404 . S
C701 H713 0.930 . S
C702 C698 1.524 . S
C702 H714 0.956 . S
C702 H715 0.961 . S
C702 H716 0.961 . S
C703 C700 1.539 . S
C703 H717 0.958 . S
C703 H718 0.961 . S
C703 H719 0.960 . S
H704 C688 0.931 . S
H705 C693 0.929 . S
H706 C694 0.960 . S
H707 C694 0.962 . S
H708 C694 0.960 . S
H709 C695 0.961 . S
H710 C695 0.961 . S
H711 C695 0.961 . S
H712 C696 0.931 . S
H713 C701 0.930 . S
H714 C702 0.956 . S
H715 C702 0.961 . S
H716 C702 0.961 . S
H717 C703 0.958 . S
H718 C703 0.961 . S
H719 C703 0.960 . S
C720 C721 1.391 . S
C720 C722 1.394 . S
C720 H736 0.931 . S
C721 C720 1.391 . S
C721 C725 1.376 . S
C722 C720 1.394 . S
C722 C723 1.369 . S
C722 C726 1.531 . S
C723 C722 1.369 . S
C723 C724 1.410 . S
C723 C731 1.503 . S
C724 C723 1.410 . S
C724 C725 1.392 . S
C724 C727 1.511 . S
C725 C721 1.376 . S
C725 C724 1.392 . S
C725 H737 0.929 . S
C726 C722 1.531 . S
C726 H738 0.960 . S
C726 H739 0.962 . S
C726 H740 0.960 . S
C727 C724 1.511 . S
C727 H741 0.961 . S
C727 H742 0.961 . S
C727 H743 0.961 . S
C728 C729 1.370 . S
C728 C730 1.363 . S
C728 H744 0.931 . S
C729 C728 1.370 . S
C729 C733 1.408 . S
C730 C728 1.363 . S
C730 C731 1.370 . S
C730 C734 1.524 . S
C731 C723 1.503 . S
C731 C730 1.370 . S
C731 C732 1.403 . S
C732 C731 1.403 . S
C732 C733 1.404 . S
C732 C735 1.539 . S
C733 C729 1.408 . S
C733 C732 1.404 . S
C733 H745 0.930 . S
C734 C730 1.524 . S
C734 H746 0.956 . S
C734 H747 0.961 . S
C734 H748 0.961 . S
C735 C732 1.539 . S
C735 H749 0.958 . S
C735 H750 0.961 . S
C735 H751 0.960 . S
H736 C720 0.931 . S
H737 C725 0.929 . S
H738 C726 0.960 . S
H739 C726 0.962 . S
H740 C726 0.960 . S
H741 C727 0.961 . S
H742 C727 0.961 . S
H743 C727 0.961 . S
H744 C728 0.931 . S
H745 C733 0.930 . S
H746 C734 0.956 . S
H747 C734 0.961 . S
H748 C734 0.961 . S
H749 C735 0.958 . S
H750 C735 0.961 . S
H751 C735 0.960 . S
C752 C753 1.391 . S
C752 C754 1.394 . S
C752 H768 0.931 . S
C753 C752 1.391 . S
C753 C757 1.376 . S
C754 C752 1.394 . S
C754 C755 1.369 . S
C754 C758 1.531 . S
C755 C754 1.369 . S
C755 C756 1.410 . S
C755 C763 1.503 . S
C756 C755 1.410 . S
C756 C757 1.392 . S
C756 C759 1.511 . S
C757 C753 1.376 . S
C757 C756 1.392 . S
C757 H769 0.929 . S
C758 C754 1.531 . S
C758 H770 0.960 . S
C758 H771 0.962 . S
C758 H772 0.960 . S
C759 C756 1.511 . S
C759 H773 0.961 . S
C759 H774 0.961 . S
C759 H775 0.961 . S
C760 C761 1.370 . S
C760 C762 1.363 . S
C760 H776 0.931 . S
C761 C760 1.370 . S
C761 C765 1.408 . S
C762 C760 1.363 . S
C762 C763 1.370 . S
C762 C766 1.524 . S
C763 C755 1.503 . S
C763 C762 1.370 . S
C763 C764 1.403 . S
C764 C763 1.403 . S
C764 C765 1.404 . S
C764 C767 1.539 . S
C765 C761 1.408 . S
C765 C764 1.404 . S
C765 H777 0.930 . S
C766 C762 1.524 . S
C766 H778 0.956 . S
C766 H779 0.961 . S
C766 H780 0.961 . S
C767 C764 1.539 . S
C767 H781 0.958 . S
C767 H782 0.961 . S
C767 H783 0.960 . S
H768 C752 0.931 . S
H769 C757 0.929 . S
H770 C758 0.960 . S
H771 C758 0.962 . S
H772 C758 0.960 . S
H773 C759 0.961 . S
H774 C759 0.961 . S
H775 C759 0.961 . S
H776 C760 0.931 . S
H777 C765 0.930 . S
H778 C766 0.956 . S
H779 C766 0.961 . S
H780 C766 0.961 . S
H781 C767 0.958 . S
H782 C767 0.961 . S
H783 C767 0.960 . S
C784 C785 1.391 . S
C784 C786 1.394 . S
C784 H800 0.931 . S
C785 C784 1.391 . S
C785 C789 1.376 . S
C786 C784 1.394 . S
C786 C787 1.369 . S
C786 C790 1.531 . S
C787 C786 1.369 . S
C787 C788 1.410 . S
C787 C795 1.503 . S
C788 C787 1.410 . S
C788 C789 1.392 . S
C788 C791 1.511 . S
C789 C785 1.376 . S
C789 C788 1.392 . S
C789 H801 0.929 . S
C790 C786 1.531 . S
C790 H802 0.960 . S
C790 H803 0.962 . S
C790 H804 0.960 . S
C791 C788 1.511 . S
C791 H805 0.961 . S
C791 H806 0.961 . S
C791 H807 0.961 . S
C792 C793 1.370 . S
C792 C794 1.363 . S
C792 H808 0.931 . S
C793 C792 1.370 . S
C793 C797 1.408 . S
C794 C792 1.363 . S
C794 C795 1.370 . S
C794 C798 1.524 . S
C795 C787 1.503 . S
C795 C794 1.370 . S
C795 C796 1.403 . S
C796 C795 1.403 . S
C796 C797 1.404 . S
C796 C799 1.539 . S
C797 C793 1.408 . S
C797 C796 1.404 . S
C797 H809 0.930 . S
C798 C794 1.524 . S
C798 H810 0.956 . S
C798 H811 0.961 . S
C798 H812 0.961 . S
C799 C796 1.539 . S
C799 H813 0.958 . S
C799 H814 0.961 . S
C799 H815 0.960 . S
H800 C784 0.931 . S
H801 C789 0.929 . S
H802 C790 0.960 . S
H803 C790 0.962 . S
H804 C790 0.960 . S
H805 C791 0.961 . S
H806 C791 0.961 . S
H807 C791 0.961 . S
H808 C792 0.931 . S
H809 C797 0.930 . S
H810 C798 0.956 . S
H811 C798 0.961 . S
H812 C798 0.961 . S
H813 C799 0.958 . S
H814 C799 0.961 . S
H815 C799 0.960 . S
C816 C817 1.391 . S
C816 C818 1.394 . S
C816 H832 0.931 . S
C817 C816 1.391 . S
C817 C821 1.376 . S
C818 C816 1.394 . S
C818 C819 1.369 . S
C818 C822 1.531 . S
C819 C818 1.369 . S
C819 C820 1.410 . S
C819 C827 1.503 . S
C820 C819 1.410 . S
C820 C821 1.392 . S
C820 C823 1.511 . S
C821 C817 1.376 . S
C821 C820 1.392 . S
C821 H833 0.929 . S
C822 C818 1.531 . S
C822 H834 0.960 . S
C822 H835 0.962 . S
C822 H836 0.960 . S
C823 C820 1.511 . S
C823 H837 0.961 . S
C823 H838 0.961 . S
C823 H839 0.961 . S
C824 C825 1.370 . S
C824 C826 1.363 . S
C824 H840 0.931 . S
C825 C824 1.370 . S
C825 C829 1.408 . S
C826 C824 1.363 . S
C826 C827 1.370 . S
C826 C830 1.524 . S
C827 C819 1.503 . S
C827 C826 1.370 . S
C827 C828 1.403 . S
C828 C827 1.403 . S
C828 C829 1.404 . S
C828 C831 1.539 . S
C829 C825 1.408 . S
C829 C828 1.404 . S
C829 H841 0.930 1_655 S
C830 C826 1.524 . S
C830 H842 0.956 . S
C830 H843 0.961 . S
C830 H844 0.961 . S
C831 C828 1.539 . S
C831 H845 0.958 . S
C831 H846 0.961 . S
C831 H847 0.960 . S
H832 C816 0.931 . S
H833 C821 0.929 . S
H834 C822 0.960 . S
H835 C822 0.962 . S
H836 C822 0.960 . S
H837 C823 0.961 . S
H838 C823 0.961 . S
H839 C823 0.961 . S
H840 C824 0.931 . S
H841 C829 0.930 1_455 S
H842 C830 0.956 . S
H843 C830 0.961 . S
H844 C830 0.961 . S
H845 C831 0.958 . S
H846 C831 0.961 . S
H847 C831 0.960 . S
C848 C849 1.391 . S
C848 C850 1.394 . S
C848 H864 0.931 . S
C849 C848 1.391 . S
C849 C853 1.376 . S
C850 C848 1.394 . S
C850 C851 1.369 . S
C850 C854 1.531 . S
C851 C850 1.369 . S
C851 C852 1.410 . S
C851 C859 1.503 . S
C852 C851 1.410 . S
C852 C853 1.392 . S
C852 C855 1.511 . S
C853 C849 1.376 . S
C853 C852 1.392 . S
C853 H865 0.929 . S
C854 C850 1.531 . S
C854 H866 0.960 . S
C854 H867 0.962 . S
C854 H868 0.960 . S
C855 C852 1.511 . S
C855 H869 0.961 . S
C855 H870 0.961 . S
C855 H871 0.961 . S
C856 C857 1.370 . S
C856 C858 1.363 . S
C856 H872 0.931 . S
C857 C856 1.370 . S
C857 C861 1.408 . S
C858 C856 1.363 . S
C858 C859 1.370 . S
C858 C862 1.524 . S
C859 C851 1.503 . S
C859 C858 1.370 . S
C859 C860 1.403 . S
C860 C859 1.403 . S
C860 C861 1.404 . S
C860 C863 1.539 . S
C861 C857 1.408 . S
C861 C860 1.404 . S
C861 H873 0.930 . S
C862 C858 1.524 . S
C862 H874 0.956 . S
C862 H875 0.961 . S
C862 H876 0.961 . S
C863 C860 1.539 . S
C863 H877 0.958 . S
C863 H878 0.961 . S
C863 H879 0.960 . S
H864 C848 0.931 . S
H865 C853 0.929 . S
H866 C854 0.960 . S
H867 C854 0.962 . S
H868 C854 0.960 . S
H869 C855 0.961 . S
H870 C855 0.961 . S
H871 C855 0.961 . S
H872 C856 0.931 . S
H873 C861 0.930 . S
H874 C862 0.956 . S
H875 C862 0.961 . S
H876 C862 0.961 . S
H877 C863 0.958 . S
H878 C863 0.961 . S
H879 C863 0.960 . S
C880 C881 1.391 . S
C880 C882 1.394 . S
C880 H896 0.931 . S
C881 C880 1.391 . S
C881 C885 1.376 . S
C882 C880 1.394 . S
C882 C883 1.369 . S
C882 C886 1.531 . S
C883 C882 1.369 . S
C883 C884 1.410 . S
C883 C891 1.503 . S
C884 C883 1.410 . S
C884 C885 1.392 . S
C884 C887 1.511 . S
C885 C881 1.376 . S
C885 C884 1.392 . S
C885 H897 0.929 . S
C886 C882 1.531 . S
C886 H898 0.960 . S
C886 H899 0.962 . S
C886 H900 0.960 . S
C887 C884 1.511 . S
C887 H901 0.961 . S
C887 H902 0.961 . S
C887 H903 0.961 . S
C888 C889 1.370 . S
C888 C890 1.363 . S
C888 H904 0.931 . S
C889 C888 1.370 . S
C889 C893 1.408 . S
C890 C888 1.363 . S
C890 C891 1.370 . S
C890 C894 1.524 . S
C891 C883 1.503 . S
C891 C890 1.370 . S
C891 C892 1.403 . S
C892 C891 1.403 . S
C892 C893 1.404 . S
C892 C895 1.539 . S
C893 C889 1.408 . S
C893 C892 1.404 . S
C893 H905 0.930 . S
C894 C890 1.524 . S
C894 H906 0.956 . S
C894 H907 0.961 . S
C894 H908 0.961 . S
C895 C892 1.539 . S
C895 H909 0.958 . S
C895 H910 0.961 . S
C895 H911 0.960 . S
H896 C880 0.931 . S
H897 C885 0.929 . S
H898 C886 0.960 . S
H899 C886 0.962 . S
H900 C886 0.960 . S
H901 C887 0.961 . S
H902 C887 0.961 . S
H903 C887 0.961 . S
H904 C888 0.931 . S
H905 C893 0.930 . S
H906 C894 0.956 . S
H907 C894 0.961 . S
H908 C894 0.961 . S
H909 C895 0.958 . S
H910 C895 0.961 . S
H911 C895 0.960 . S
C912 C913 1.391 . S
C912 C914 1.394 . S
C912 H928 0.931 . S
C913 C912 1.391 . S
C913 C917 1.376 . S
C914 C912 1.394 . S
C914 C915 1.369 . S
C914 C918 1.531 . S
C915 C914 1.369 . S
C915 C916 1.410 . S
C915 C923 1.503 . S
C916 C915 1.410 . S
C916 C917 1.392 . S
C916 C919 1.511 . S
C917 C913 1.376 . S
C917 C916 1.392 . S
C917 H929 0.929 . S
C918 C914 1.531 . S
C918 H930 0.960 . S
C918 H931 0.962 . S
C918 H932 0.960 . S
C919 C916 1.511 . S
C919 H933 0.961 . S
C919 H934 0.961 . S
C919 H935 0.961 . S
C920 C921 1.370 . S
C920 C922 1.363 . S
C920 H936 0.931 . S
C921 C920 1.370 . S
C921 C925 1.408 . S
C922 C920 1.363 . S
C922 C923 1.370 . S
C922 C926 1.524 . S
C923 C915 1.503 . S
C923 C922 1.370 . S
C923 C924 1.403 . S
C924 C923 1.403 . S
C924 C925 1.404 . S
C924 C927 1.539 . S
C925 C921 1.408 . S
C925 C924 1.404 . S
C925 H937 0.930 . S
C926 C922 1.524 . S
C926 H938 0.956 . S
C926 H939 0.961 . S
C926 H940 0.961 . S
C927 C924 1.539 . S
C927 H941 0.958 . S
C927 H942 0.961 . S
C927 H943 0.960 . S
H928 C912 0.931 . S
H929 C917 0.929 . S
H930 C918 0.960 . S
H931 C918 0.962 . S
H932 C918 0.960 . S
H933 C919 0.961 . S
H934 C919 0.961 . S
H935 C919 0.961 . S
H936 C920 0.931 . S
H937 C925 0.930 . S
H938 C926 0.956 . S
H939 C926 0.961 . S
H940 C926 0.961 . S
H941 C927 0.958 . S
H942 C927 0.961 . S
H943 C927 0.960 . S
C177 C6 1.577 . S
C185 C115 1.579 . S
C209 C18 1.547 . S
C217 C118 1.481 . S
C249 C154 1.802 . S
C241 C28 1.815 . S
C273 C40 1.129 . S
C281 C174 1.112 . S
C313 C128 1.921 . S
C305 C9 1.921 . S
C345 C105 1.443 . S
C337 C16 1.472 . S
C377 C158 1.465 . S
C369 C30 1.583 . S
C409 C138 1.150 . S
C401 C42 1.183 . S
C433 C4 1.374 . S
C441 C168 1.271 . S
C473 C134 1.749 . S
C465 C33 1.750 . S
C497 C45 1.461 . S
C505 C100 1.396 . S
C529 C21 1.549 . S
C537 C148 1.502 . S
C569 C114 1.601 . S
C561 C57 1.617 . S
C593 C66 1.532 . S
C601 C120 1.471 . S
C625 C76 1.818 . S
C633 C155 1.812 . S
C657 C88 1.081 . S
C665 C175 1.040 . S
C689 C54 1.897 . S
C697 C125 1.903 . S
C729 C108 1.513 . S
C721 C64 1.517 . S
C761 C160 1.394 . S
C753 C78 1.523 . S
C793 C140 1.158 . S
C785 C93 1.231 . S
C817 C52 1.313 . S
C825 C165 1.283 . S
C857 C135 1.752 . S
C849 C81 1.747 . S
C889 C98 1.360 . S
C881 C90 1.438 . S
C913 C69 1.561 . S
C921 C145 1.531 . S
