# Generated by pormake.
# Topology zzz, (3,6)-cn, num edge types: 1
# Building blocks:
#     Node 0, Type 0, BuildingBlock: BETDIP_clean_linker_0, # of connection points: 3
#     Node 1, Type 0, BuildingBlock: BETDIP_clean_linker_0, # of connection points: 3
#     Node 2, Type 0, BuildingBlock: BETDIP_clean_linker_0, # of connection points: 3
#     Node 3, Type 0, BuildingBlock: BETDIP_clean_linker_0, # of connection points: 3
#     Node 4, Type 0, BuildingBlock: BETDIP_clean_linker_0, # of connection points: 3
#     Node 5, Type 0, BuildingBlock: BETDIP_clean_linker_0, # of connection points: 3
#     Node 6, Type 0, BuildingBlock: BETDIP_clean_linker_0, # of connection points: 3
#     Node 7, Type 0, BuildingBlock: BETDIP_clean_linker_0, # of connection points: 3
#     Node 8, Type 1, BuildingBlock: PAMTOO_clean_sbu_0, # of connection points: 6
#     Node 9, Type 1, BuildingBlock: PAMTOO_clean_sbu_0, # of connection points: 6
#     Node 10, Type 1, BuildingBlock: PAMTOO_clean_sbu_0, # of connection points: 6
#     Node 11, Type 1, BuildingBlock: PAMTOO_clean_sbu_0, # of connection points: 6
#     Edge 12, Type (0, 1), BuildingBlock: KIFKEQ_clean_linker_1, # of connection points: 2
#     Edge 13, Type (0, 1), BuildingBlock: KIFKEQ_clean_linker_1, # of connection points: 2
#     Edge 14, Type (0, 1), BuildingBlock: KIFKEQ_clean_linker_1, # of connection points: 2
#     Edge 15, Type (0, 1), BuildingBlock: KIFKEQ_clean_linker_1, # of connection points: 2
#     Edge 16, Type (0, 1), BuildingBlock: KIFKEQ_clean_linker_1, # of connection points: 2
#     Edge 17, Type (0, 1), BuildingBlock: KIFKEQ_clean_linker_1, # of connection points: 2
#     Edge 18, Type (0, 1), BuildingBlock: KIFKEQ_clean_linker_1, # of connection points: 2
#     Edge 19, Type (0, 1), BuildingBlock: KIFKEQ_clean_linker_1, # of connection points: 2
#     Edge 20, Type (0, 1), BuildingBlock: KIFKEQ_clean_linker_1, # of connection points: 2
#     Edge 21, Type (0, 1), BuildingBlock: KIFKEQ_clean_linker_1, # of connection points: 2
#     Edge 22, Type (0, 1), BuildingBlock: KIFKEQ_clean_linker_1, # of connection points: 2
#     Edge 23, Type (0, 1), BuildingBlock: KIFKEQ_clean_linker_1, # of connection points: 2
#     Edge 24, Type (0, 1), BuildingBlock: KIFKEQ_clean_linker_1, # of connection points: 2
#     Edge 25, Type (0, 1), BuildingBlock: KIFKEQ_clean_linker_1, # of connection points: 2
#     Edge 26, Type (0, 1), BuildingBlock: KIFKEQ_clean_linker_1, # of connection points: 2
#     Edge 27, Type (0, 1), BuildingBlock: KIFKEQ_clean_linker_1, # of connection points: 2
#     Edge 28, Type (0, 1), BuildingBlock: KIFKEQ_clean_linker_1, # of connection points: 2
#     Edge 29, Type (0, 1), BuildingBlock: KIFKEQ_clean_linker_1, # of connection points: 2
#     Edge 30, Type (0, 1), BuildingBlock: KIFKEQ_clean_linker_1, # of connection points: 2
#     Edge 31, Type (0, 1), BuildingBlock: KIFKEQ_clean_linker_1, # of connection points: 2
#     Edge 32, Type (0, 1), BuildingBlock: KIFKEQ_clean_linker_1, # of connection points: 2
#     Edge 33, Type (0, 1), BuildingBlock: KIFKEQ_clean_linker_1, # of connection points: 2
#     Edge 34, Type (0, 1), BuildingBlock: KIFKEQ_clean_linker_1, # of connection points: 2
#     Edge 35, Type (0, 1), BuildingBlock: KIFKEQ_clean_linker_1, # of connection points: 2
# Relax obj value: 0.218
# Max RMSD: 0.239
# Mean RMSD: 0.124
data_MOF--net-zzz--node1-PAMTOO_clean_sbu_0--node2-BETDIP_clean_linker_0--edge1-KIFKEQ_clean_linker_1
_symmetry_space_group_name_H-M    P1
_symmetry_Int_Tables_number       1
_symmetry_cell_setting            triclinic
loop_
_symmetry_equiv_pos_as_xyz
'x, y, z'
_cell_length_a     58.06087
_cell_length_b     50.257523
_cell_length_c     15.805377
_cell_angle_alpha  91.709977
_cell_angle_beta   79.642081
_cell_angle_gamma 86.028569
loop_
_atom_site_label
_atom_site_type_symbol
_atom_site_fract_x
_atom_site_fract_y
_atom_site_fract_z
_atom_type_partial_charge
H0 H 0.80319 0.51835 0.58766 0.0
H1 H 0.79302 0.46711 0.37642 0.0
H2 H 0.85038 0.44842 0.50606 0.0
H3 H 0.79168 0.52174 0.33819 0.0
C4 C 0.77516 0.51981 0.3818 0.0
C5 C 0.80834 0.50044 0.54695 0.0
C6 C 0.82827 0.48374 0.55721 0.0
C7 C 0.79556 0.49442 0.48149 0.0
C8 C 0.80255 0.47156 0.42751 0.0
C9 C 0.82196 0.45471 0.43748 0.0
C10 C 0.83455 0.46077 0.50241 0.0
N11 N 0.77625 0.51163 0.46672 0.0
H12 H 1.00267 0.74661 0.58378 0.0
H13 H 0.96429 0.73622 0.37715 0.0
H14 H 0.97229 0.81491 0.47585 0.0
H15 H 0.95316 0.69679 0.48924 0.0
C16 C 0.97169 0.69173 0.46402 0.0
C17 C 0.99192 0.75497 0.5403 0.0
C18 C 0.9873 0.78282 0.53914 0.0
C19 C 0.98269 0.73797 0.48429 0.0
C20 C 0.96994 0.7491 0.42446 0.0
C21 C 0.96632 0.77683 0.42015 0.0
C22 C 0.97426 0.79338 0.48009 0.0
N23 N 0.98811 0.7099 0.4819 0.0
H24 H 0.76966 1.00276 0.40531 0.0
H25 H 0.78218 0.04655 0.17194 0.0
H26 H 0.71467 0.05498 0.3359 0.0
H27 H 0.8027 0.99973 0.13564 0.0
C28 C 0.81399 1.00488 0.18065 0.0
C29 C 0.76362 0.01691 0.36223 0.0
C30 C 0.74011 0.02835 0.38036 0.0
C31 C 0.77913 0.02358 0.28679 0.0
C32 C 0.77075 0.04147 0.23032 0.0
C33 C 0.74775 0.0531 0.24908 0.0
C34 C 0.73278 0.04664 0.32384 0.0
N35 N 0.80302 0.01261 0.26719 0.0
H36 H 0.54182 0.76335 0.37988 0.0
H37 H 0.54124 0.75496 0.10707 0.0
H38 H 0.53835 0.68601 0.26049 0.0
H39 H 0.57246 0.78883 0.12485 0.0
C40 C 0.55804 0.80153 0.16223 0.0
C41 C 0.54154 0.75092 0.32297 0.0
C42 C 0.54015 0.72308 0.32956 0.0
C43 C 0.54256 0.76258 0.24194 0.0
C44 C 0.54139 0.74624 0.16887 0.0
C45 C 0.5399 0.7187 0.17605 0.0
C46 C 0.53966 0.70739 0.25561 0.0
N47 N 0.54386 0.7907 0.2344 0.0
H48 H 0.24448 0.50621 0.00903 0.0
H49 H 0.25165 0.45436 0.21613 0.0
H50 H 0.1927 0.45072 0.08739 0.0
H51 H 0.25344 0.50743 0.25994 0.0
C52 C 0.27037 0.50357 0.21733 0.0
C53 C 0.23869 0.48958 0.04729 0.0
C54 C 0.21789 0.47787 0.03676 0.0
C55 C 0.2511 0.48076 0.11176 0.0
C56 C 0.24253 0.46039 0.16492 0.0
C57 C 0.22115 0.44984 0.1586 0.0
C58 C 0.20974 0.45775 0.09128 0.0
N59 N 0.27047 0.49425 0.13103 0.0
H60 H 0.02739 0.26962 0.12336 0.0
H61 H 0.97198 0.29014 0.34085 0.0
H62 H 0.96993 0.21973 0.1831 0.0
H63 H 0.98189 0.33495 0.26017 0.0
C64 C 0.9988 0.33093 0.27955 0.0
C65 C 1.01073 0.26565 0.16222 0.0
C66 C 0.9992 0.24313 0.14231 0.0
C67 C 1.00038 0.28335 0.23172 0.0
C68 C 0.97923 0.27751 0.28423 0.0
C69 C 0.96816 0.25458 0.26705 0.0
C70 C 0.97794 0.23804 0.19478 0.0
N71 N 1.01183 0.3062 0.25204 0.0
H72 H 0.28948 0.02251 0.17302 0.0
H73 H 0.28192 0.96962 0.38573 0.0
H74 H 0.34901 0.97374 0.22391 0.0
H75 H 0.24734 0.96334 0.32687 0.0
C76 C 0.2412 0.98437 0.33346 0.0
C77 C 0.29691 0.00765 0.2107 0.0
C78 C 0.32116 0.99921 0.18967 0.0
C79 C 0.28221 0.99615 0.2797 0.0
C80 C 0.29246 0.97756 0.32987 0.0
C81 C 0.31637 0.96926 0.30899 0.0
C82 C 0.33036 0.97984 0.23861 0.0
N83 N 0.2574 1.00333 0.29954 0.0
H84 H 0.51955 0.27603 0.19879 0.0
H85 H 0.55677 0.28308 0.41111 0.0
H86 H 0.55147 0.34835 0.24489 0.0
H87 H 0.56806 0.23673 0.35094 0.0
C88 C 0.54988 0.23172 0.35996 0.0
C89 C 0.52961 0.28749 0.23623 0.0
C90 C 0.53503 0.31351 0.21291 0.0
C91 C 0.53801 0.27598 0.3066 0.0
C92 C 0.55093 0.29128 0.35527 0.0
C93 C 0.55603 0.31732 0.33269 0.0
C94 C 0.54807 0.32801 0.26158 0.0
N95 N 0.53324 0.24928 0.32863 0.0
Dy96 Dy 1.01908 0.02256 0.69613 0.0
Dy97 Dy 0.0398 1.00395 0.86563 0.0
C98 C 0.07522 0.0121 0.68401 0.0
O99 O 0.02977 0.97879 0.67462 0.0
O100 O 0.02274 0.96968 0.8164 0.0
O101 O 0.01952 0.04687 0.58608 0.0
O102 O 0.99311 0.01842 0.61476 0.0
O103 O 1.00159 0.01394 0.91942 0.0
O104 O 0.98706 0.01537 0.79373 0.0
O105 O 0.04543 0.04736 0.86158 0.0
O106 O 1.01745 0.05943 0.7812 0.0
O107 O 0.04081 1.00459 1.00198 0.0
O108 O 0.06415 0.97671 0.91381 0.0
C109 C 0.02551 0.96165 0.73545 0.0
O110 O 0.05796 0.02364 0.65142 0.0
O111 O 0.07148 1.00125 0.75957 0.0
C112 C 0.9814 0.05997 0.56452 0.0
C113 C 0.94892 0.10251 0.54297 0.0
C114 C 0.96371 0.10482 0.6039 0.0
C115 C 0.97963 0.08372 0.61498 0.0
C116 C 0.96582 0.05686 0.50745 0.0
C117 C 0.94959 0.07788 0.49712 0.0
C118 C 0.9998 0.0388 0.57004 0.0
C119 C 0.98382 0.01492 0.87825 0.0
C120 C 0.03188 0.06566 0.83279 0.0
C121 C 0.044 0.95922 0.03915 0.0
C122 C 0.01957 0.91393 0.08897 0.0
C123 C 1.00974 0.9397 0.11767 0.0
C124 C 0.02178 0.96212 0.09279 0.0
C125 C 0.05451 0.9334 0.01571 0.0
C126 C 0.04234 0.91104 0.03942 0.0
C127 C 0.05404 0.9822 0.99358 0.0
H128 H 0.96407 0.12344 0.63971 0.0
H129 H 0.99121 0.08639 0.66066 0.0
H130 H 0.96663 0.03845 0.46917 0.0
H131 H 0.93816 0.07514 0.45096 0.0
H132 H 0.99253 0.94262 0.15811 0.0
H133 H 1.01315 0.98171 0.1123 0.0
H134 H 0.07159 0.9305 0.97424 0.0
H135 H 0.05047 0.89156 0.0157 0.0
Dy136 Dy 0.52411 0.99976 0.70592 0.0
Dy137 Dy 0.53379 0.03952 0.85912 0.0
C138 C 0.52544 0.06181 0.68225 0.0
O139 O 0.56363 0.99651 0.68919 0.0
O140 O 0.56858 0.03394 0.7692 0.0
O141 O 0.51068 0.99385 0.58896 0.0
O142 O 0.5258 0.95999 0.64744 0.0
O143 O 0.54591 0.99808 0.89038 0.0
O144 O 0.51975 0.9769 0.82647 0.0
O145 O 0.49645 0.03007 0.9033 0.0
O146 O 0.48809 0.01647 0.77293 0.0
O147 O 0.53791 0.04851 0.99001 0.0
O148 O 0.54072 0.07932 0.89688 0.0
C149 C 0.5772 0.01412 0.71373 0.0
O150 O 0.53377 0.03839 0.64677 0.0
O151 O 0.51777 0.0642 0.76556 0.0
C152 C 0.49303 0.95353 0.58245 0.0
C153 C 0.45168 0.93128 0.55424 0.0
C154 C 0.45098 0.9504 0.62179 0.0
C155 C 0.47148 0.96129 0.63598 0.0
C156 C 0.49417 0.93331 0.51871 0.0
C157 C 0.47368 0.9221 0.50506 0.0
C158 C 0.51384 0.96788 0.58918 0.0
C159 C 0.53401 0.97715 0.88201 0.0
C160 C 0.4812 0.0239 0.85487 0.0
C161 C 0.56708 0.07864 0.9915 0.0
C162 C 0.61178 0.09209 0.01524 0.0
C163 C 0.60925 0.06864 0.96812 0.0
C164 C 0.5871 0.06198 0.95652 0.0
C165 C 0.56941 0.1021 0.03829 0.0
C166 C 0.59163 0.10873 0.05055 0.0
C167 C 0.5442 0.07247 0.97259 0.0
H168 H 0.43446 0.95825 0.6605 0.0
H169 H 0.47035 0.97671 0.68615 0.0
H170 H 0.51075 0.92687 0.4775 0.0
H171 H 0.47497 0.90701 0.45373 0.0
H172 H 0.62435 0.05513 0.94167 0.0
H173 H 0.58558 0.04382 0.91991 0.0
H174 H 0.55412 0.11535 0.06466 0.0
H175 H 0.59309 0.12692 0.08709 0.0
Dy176 Dy 0.55617 0.51841 0.80737 0.0
Dy177 Dy 0.50433 0.51296 0.73254 0.0
C178 C 0.52228 0.47032 0.85972 0.0
O179 O 0.56651 0.49958 0.67572 0.0
O180 O 0.53138 0.4817 0.66722 0.0
O181 O 0.59083 0.50382 0.82562 0.0
O182 O 0.5752 0.54179 0.88541 0.0
O183 O 0.52025 0.5482 0.66857 0.0
O184 O 0.55315 0.55468 0.72927 0.0
O185 O 0.50031 0.54928 0.81981 0.0
O186 O 0.52405 0.53062 0.90383 0.0
O187 O 0.46616 0.51171 0.74599 0.0
O188 O 0.48934 0.50744 0.61905 0.0
C189 C 0.5542 0.48232 0.64304 0.0
O190 O 0.54374 0.47832 0.84351 0.0
O191 O 0.50396 0.48379 0.83835 0.0
C192 C 0.60589 0.51993 0.94868 0.0
C193 C 0.63753 0.51598 0.06681 0.0
C194 C 0.62251 0.53918 0.06615 0.0
C195 C 0.60699 0.54116 0.00763 0.0
C196 C 0.62003 0.49625 0.95228 0.0
C197 C 0.63556 0.49428 0.01068 0.0
C198 C 0.59323 0.52423 0.87549 0.0
C199 C 0.53799 0.56206 0.68002 0.0
C200 C 0.50987 0.5506 0.88864 0.0
C201 C 0.44762 0.50573 0.61766 0.0
C202 C 0.40949 0.50352 0.52749 0.0
C203 C 0.43282 0.4979 0.48454 0.0
C204 C 0.45158 0.49904 0.52889 0.0
C205 C 0.42435 0.51085 0.66133 0.0
C206 C 0.40551 0.50979 0.61682 0.0
C207 C 0.46787 0.50858 0.66236 0.0
H208 H 0.62363 0.5564 0.10762 0.0
H209 H 0.59665 0.55986 0.00581 0.0
H210 H 0.61988 0.47956 0.90748 0.0
H211 H 0.64654 0.47593 0.01015 0.0
H212 H 0.43666 0.49248 0.41637 0.0
H213 H 0.46927 0.49485 0.49313 0.0
H214 H 0.42069 0.51622 0.72956 0.0
H215 H 0.38786 0.51453 0.65219 0.0
Dy216 Dy 0.02104 0.52968 0.78668 0.0
Dy217 Dy 1.00951 0.485 0.93076 0.0
C218 C 0.02208 0.46741 0.72872 0.0
O219 O 0.98174 0.53095 0.81629 0.0
O220 O 0.97801 0.4887 0.86634 0.0
O221 O 1.01541 0.54885 0.67048 0.0
O222 O 0.04287 0.56077 0.7361 0.0
O223 O 0.99745 0.52394 1.0025 0.0
O224 O 1.01657 0.55337 0.91126 0.0
O225 O 0.04417 0.50029 0.94249 0.0
O226 O 0.05501 0.50749 0.80074 0.0
O227 O 0.98914 0.47192 0.04738 0.0
O228 O 0.01983 0.44751 0.98231 0.0
C229 C 0.96935 0.51014 0.83337 0.0
O230 O 1.01929 0.49244 0.70928 0.0
O231 O 0.02212 0.46046 0.80818 0.0
C232 C 0.05374 0.54864 0.58885 0.0
C233 C 0.08832 0.51088 0.5 0.0
C234 C 0.06514 0.51089 0.48614 0.0
C235 C 0.04797 0.52971 0.52995 0.0
C236 C 0.07753 0.55081 0.59288 0.0
C237 C 0.09464 0.5319 0.54958 0.0
C238 C 0.03565 0.55926 0.66257 0.0
C239 C 1.00488 0.54772 0.98691 0.0
C240 C 0.06069 0.50347 0.87615 0.0
C241 C 0.9879 0.42584 0.05768 0.0
C242 C 0.95232 0.39027 0.09313 0.0
C243 C 0.96248 0.40118 0.15972 0.0
C244 C 0.98017 0.4186 0.14201 0.0
C245 C 0.97944 0.41347 0.98982 0.0
C246 C 0.96195 0.39552 0.00738 0.0
C247 C 1.00161 0.44922 0.04448 0.0
H248 H 0.05991 0.49516 0.44689 0.0
H249 H 0.02987 0.52765 0.52412 0.0
H250 H 0.08264 0.56538 0.63657 0.0
H251 H 0.11262 0.53286 0.55871 0.0
H252 H 0.95533 0.3985 0.22665 0.0
H253 H 0.98644 0.4281 0.19514 0.0
H254 H 0.98529 0.4189 0.92403 0.0
H255 H 0.95492 0.38722 0.95424 0.0
H256 H 0.21482 0.03368 0.36348 0.0
H257 H 0.21233 0.95001 0.41464 0.0
H258 H 0.17476 0.04226 0.44819 0.0
H259 H 0.17293 0.95841 0.49828 0.0
H260 H 0.11445 0.98455 0.72052 0.0
H261 H 0.15413 0.98038 0.63682 0.0
H262 H 0.1321 0.03185 0.44799 0.0
H263 H 0.09208 0.03615 0.53227 0.0
C264 C 0.20577 0.01717 0.3926 0.0
C265 C 0.21683 0.99115 0.38249 0.0
C266 C 0.18279 0.02203 0.44088 0.0
C267 C 0.17059 1.00106 0.48103 0.0
C268 C 0.18179 0.97516 0.46988 0.0
C269 C 0.20441 0.97031 0.4213 0.0
C270 C 0.11794 0.99513 0.66142 0.0
C271 C 0.0998 0.01055 0.6333 0.0
C272 C 0.14079 0.99264 0.61303 0.0
C273 C 0.14643 1.00561 0.53503 0.0
C274 C 0.1285 0.02168 0.50785 0.0
C275 C 0.10547 0.02398 0.55604 0.0
H276 H 0.58046 0.19065 0.38082 0.0
H277 H 0.50638 0.21486 0.43089 0.0
H278 H 0.57267 0.14913 0.45315 0.0
H279 H 0.4985 0.17318 0.50513 0.0
H280 H 0.50393 0.112 0.72709 0.0
H281 H 0.50777 0.15226 0.64364 0.0
H282 H 0.55288 0.10671 0.4347 0.0
H283 H 0.54893 0.06647 0.51743 0.0
C284 C 0.56244 0.18696 0.40678 0.0
C285 C 0.54405 0.20596 0.39971 0.0
C286 C 0.55797 0.1631 0.44801 0.0
C287 C 0.53496 0.15775 0.48485 0.0
C288 C 0.51644 0.17674 0.47766 0.0
C289 C 0.52091 0.20052 0.43473 0.0
C290 C 0.51447 0.11049 0.66299 0.0
C291 C 0.52619 0.08594 0.62927 0.0
C292 C 0.51656 0.13357 0.61497 0.0
C293 C 0.53071 0.13276 0.53258 0.0
C294 C 0.542 0.10809 0.49821 0.0
C295 C 0.53964 0.08497 0.54561 0.0
H296 H 0.3172 0.49127 0.14286 0.0
H297 H 0.27173 0.51767 0.38163 0.0
H298 H 0.35122 0.49079 0.21574 0.0
H299 H 0.30538 0.51752 0.45387 0.0
H300 H 0.36557 0.48586 0.58028 0.0
H301 H 0.33301 0.48586 0.50222 0.0
H302 H 0.37541 0.52002 0.28562 0.0
H303 H 0.40797 0.52029 0.36397 0.0
C304 C 0.3145 0.49717 0.21058 0.0
C305 C 0.29179 0.50449 0.25658 0.0
C306 C 0.33398 0.49696 0.25242 0.0
C307 C 0.33108 0.50388 0.34113 0.0
C308 C 0.30832 0.51157 0.38613 0.0
C309 C 0.28902 0.51188 0.34446 0.0
C310 C 0.36796 0.49362 0.51637 0.0
C311 C 0.38952 0.50315 0.47898 0.0
C312 C 0.34924 0.49357 0.47135 0.0
C313 C 0.35147 0.50304 0.38745 0.0
C314 C 0.3731 0.51226 0.34954 0.0
C315 C 0.39182 0.51239 0.3947 0.0
H316 H 0.97965 0.38087 0.31984 0.0
H317 H 0.03437 0.32516 0.3747 0.0
H318 H 0.98895 0.41332 0.42365 0.0
H319 H 0.04361 0.35771 0.4807 0.0
H320 H 0.02332 0.47481 0.55752 0.0
H321 H 0.02147 0.44152 0.44476 0.0
H322 H 0.02239 0.37923 0.62652 0.0
H323 H 0.02434 0.41269 0.74047 0.0
C324 C 0.99392 0.37576 0.35334 0.0
C325 C 1.00639 0.35066 0.3385 0.0
C326 C 0.99928 0.39434 0.41284 0.0
C327 C 1.01709 0.38814 0.46025 0.0
C328 C 0.02975 0.36301 0.44525 0.0
C329 C 0.02458 0.34448 0.38428 0.0
C330 C 0.02341 0.45403 0.57374 0.0
C331 C 0.02371 0.44654 0.65866 0.0
C332 C 0.02228 0.43493 0.50887 0.0
C333 C 0.02153 0.40777 0.52686 0.0
C334 C 0.02306 0.40001 0.61059 0.0
C335 C 0.02407 0.41921 0.67594 0.0
H336 H 0.83631 0.98624 0.02407 0.0
H337 H 0.84975 0.02456 0.2561 0.0
H338 H 0.87705 0.98864 0.9562 0.0
H339 H 0.89094 0.02772 0.18697 0.0
H340 H 0.96914 0.0068 0.05139 0.0
H341 H 0.92896 1.00412 0.12935 0.0
H342 H 0.9026 0.02031 0.89598 0.0
H343 H 0.94248 0.02233 0.81826 0.0
C344 C 0.84807 0.99518 0.06079 0.0
C345 C 0.83969 1.00521 0.1455 0.0
C346 C 0.8715 0.99682 0.02142 0.0
C347 C 0.88749 0.00881 0.06502 0.0
C348 C 0.87928 0.01826 0.15109 0.0
C349 C 0.85564 0.0165 0.19088 0.0
C350 C 0.95476 0.00989 0.01677 0.0
C351 C 0.95925 0.01461 0.92798 0.0
C352 C 0.93162 0.00846 0.06175 0.0
C353 C 0.91229 0.01168 0.01928 0.0
C354 C 0.91687 0.01705 0.931 0.0
C355 C 0.9399 0.01839 0.88618 0.0
H356 H 0.589 0.82902 0.05773 0.0
H357 H 0.51835 0.83658 0.20321 0.0
H358 H 0.58285 0.87299 1.00015 0.0
H359 H 0.51196 0.88065 0.14411 0.0
H360 H 0.50444 0.93706 0.91354 0.0
H361 H 0.50969 0.89666 0.99235 0.0
H362 H 0.57509 0.92234 0.04687 0.0
H363 H 0.56971 0.96307 0.96885 0.0
C364 C 0.57221 0.84028 0.07818 0.0
C365 C 0.55422 0.82939 0.13525 0.0
C366 C 0.56871 0.86552 0.04538 0.0
C367 C 0.54692 0.88038 0.06744 0.0
C368 C 0.52893 0.86965 0.1256 0.0
C369 C 0.53262 0.84451 0.15986 0.0
C370 C 0.51987 0.93425 0.94288 0.0
C371 C 0.53672 0.95332 0.93439 0.0
C372 C 0.52277 0.91114 0.98863 0.0
C373 C 0.54281 0.90622 0.02593 0.0
C374 C 0.55951 0.92546 0.01856 0.0
C375 C 0.55639 0.94884 0.97407 0.0
H376 H 0.77173 0.53125 0.21934 0.0
H377 H 0.72958 0.51026 0.45804 0.0
H378 H 0.73786 0.53005 0.1487 0.0
H379 H 0.69531 0.50885 0.38664 0.0
H380 H 0.63531 0.53585 0.23344 0.0
H381 H 0.66741 0.53728 0.3149 0.0
H382 H 0.71459 0.49567 0.10249 0.0
H383 H 0.68295 0.49483 0.02077 0.0
C384 C 0.75511 0.52649 0.2569 0.0
C385 C 0.75338 0.52078 0.34415 0.0
C386 C 0.7357 0.5256 0.21618 0.0
C387 C 0.71386 0.51899 0.26148 0.0
C388 C 0.71185 0.51405 0.34981 0.0
C389 C 0.73147 0.51482 0.39073 0.0
C390 C 0.65254 0.52699 0.20418 0.0
C391 C 0.65644 0.51523 0.12023 0.0
C392 C 0.6709 0.52762 0.25124 0.0
C393 C 0.69368 0.51679 0.21512 0.0
C394 C 0.69739 0.50455 0.13204 0.0
C395 C 0.67909 0.50377 0.08543 0.0
H396 H 1.01453 0.67752 0.35928 0.0
H397 H 0.94305 0.65567 0.42089 0.0
H398 H 0.02315 0.64222 0.24531 0.0
H399 H 0.95148 0.62071 0.30697 0.0
H400 H 0.98002 0.54428 0.15036 0.0
H401 H 0.9735 0.57788 0.26803 0.0
H402 H 1.01305 0.63218 0.10326 0.0
H403 H 0.01991 0.5984 0.98545 0.0
C404 C 1.00073 0.66503 0.34899 0.0
C405 C 0.97812 0.66925 0.39917 0.0
C406 C 1.0056 0.64496 0.28324 0.0
C407 C 0.988 0.62862 0.26677 0.0
C408 C 0.96554 0.63264 0.31838 0.0
C409 C 0.96068 0.65273 0.38354 0.0
C410 C 0.98733 0.56337 0.13889 0.0
C411 C 1.00041 0.56859 0.05798 0.0
C412 C 0.98352 0.5827 0.2065 0.0
C413 C 0.99273 0.60778 0.19526 0.0
C414 C 1.00594 0.61298 0.11453 0.0
C415 C 1.00968 0.59366 0.04669 0.0
H416 H 0.96742 0.25057 0.43847 0.0
H417 H 0.92725 0.23446 0.24049 0.0
H418 H 0.94799 0.21692 0.52532 0.0
H419 H 0.90751 0.20064 0.32809 0.0
H420 H 0.94179 0.11536 0.38237 0.0
H421 H 0.93162 0.15907 0.33595 0.0
H422 H 0.91725 0.18981 0.59978 0.0
H423 H 0.92677 0.14526 0.64747 0.0
C424 C 0.95342 0.24094 0.41563 0.0
C425 C 0.94939 0.24445 0.33159 0.0
C426 C 0.9422 0.22154 0.46563 0.0
C427 C 0.92681 0.20542 0.43211 0.0
C428 C 0.91975 0.2123 0.35456 0.0
C429 C 0.93101 0.23168 0.30449 0.0
C430 C 0.93536 0.13093 0.4314 0.0
C431 C 0.93583 0.12681 0.51866 0.0
C432 C 0.92943 0.15624 0.40452 0.0
C433 C 0.92405 0.17812 0.46408 0.0
C434 C 0.92172 0.17342 0.55228 0.0
C435 C 0.9274 0.14793 0.57939 0.0
H436 H 0.31911 0.97809 0.4769 0.0
H437 H 0.34079 0.92145 0.26229 0.0
H438 H 0.34937 0.95795 0.54881 0.0
H439 H 0.37066 0.90059 0.33501 0.0
H440 H 0.44353 0.92354 0.39093 0.0
H441 H 0.40613 0.92184 0.34597 0.0
H442 H 0.37119 0.92236 0.6116 0.0
H443 H 0.40917 0.92352 0.65741 0.0
C444 C 0.32958 0.96043 0.4473 0.0
C445 C 0.32795 0.95147 0.36388 0.0
C446 C 0.34694 0.94883 0.48841 0.0
C447 C 0.36281 0.92805 0.4466 0.0
C448 C 0.35904 0.91695 0.36796 0.0
C449 C 0.34187 0.92872 0.32659 0.0
C450 C 0.42812 0.92216 0.44013 0.0
C451 C 0.42946 0.92406 0.52799 0.0
C452 C 0.4065 0.92118 0.41414 0.0
C453 C 0.38558 0.92219 0.47523 0.0
C454 C 0.38698 0.92192 0.56304 0.0
C455 C 0.40873 0.9227 0.58918 0.0
H456 H 0.54596 0.32702 0.50699 0.0
H457 H 0.59183 0.3485 0.27682 0.0
H458 H 0.55539 0.36674 0.58332 0.0
H459 H 0.60057 0.38861 0.35241 0.0
H460 H 0.57997 0.44185 0.69766 0.0
H461 H 0.58953 0.39729 0.62659 0.0
H462 H 0.56402 0.42601 0.40318 0.0
H463 H 0.55353 0.47 0.47583 0.0
C464 C 0.55884 0.33953 0.47387 0.0
C465 C 0.56779 0.33501 0.38561 0.0
C466 C 0.56419 0.36231 0.51743 0.0
C467 C 0.5784 0.38083 0.47302 0.0
C468 C 0.58944 0.37469 0.38765 0.0
C469 C 0.58439 0.35179 0.34459 0.0
C470 C 0.5773 0.43876 0.63207 0.0
C471 C 0.56638 0.45921 0.59121 0.0
C472 C 0.58262 0.41334 0.59188 0.0
C473 C 0.57762 0.40837 0.50948 0.0
C474 C 0.56837 0.42948 0.46625 0.0
C475 C 0.56244 0.45462 0.50741 0.0
H476 H 0.18989 0.41058 0.1608 0.0
H477 H 0.2201 0.4618 0.32934 0.0
H478 H 0.154 0.41171 0.26856 0.0
H479 H 0.18511 0.46216 0.43599 0.0
H480 H 0.11769 0.48349 0.58857 0.0
H481 H 0.15009 0.4507 0.5303 0.0
H482 H 0.12996 0.45456 0.28027 0.0
H483 H 0.09751 0.4869 0.339 0.0
C484 C 0.1894 0.42096 0.22223 0.0
C485 C 0.20724 0.43756 0.23395 0.0
C486 C 0.16883 0.42156 0.28397 0.0
C487 C 0.16629 0.43821 0.3586 0.0
C488 C 0.18622 0.44958 0.37835 0.0
C489 C 0.20658 0.44929 0.31639 0.0
C490 C 0.12006 0.47694 0.52142 0.0
C491 C 0.10566 0.48832 0.46735 0.0
C492 C 0.1384 0.45795 0.48843 0.0
C493 C 0.1428 0.45021 0.40054 0.0
C494 C 0.12697 0.45978 0.34855 0.0
C495 C 0.10853 0.47863 0.38176 0.0
H496 H 0.98266 0.76084 0.25276 0.0
H497 H 0.9365 0.82105 0.41158 0.0
H498 H 0.98912 0.79171 0.13721 0.0
H499 H 0.94371 0.8523 0.29694 0.0
H500 H 0.97221 0.90914 0.09911 0.0
H501 H 0.95014 0.87099 0.14828 0.0
H502 H 1.01491 0.82681 0.17328 0.0
H503 H 0.03665 0.86474 0.12809 0.0
C504 C 0.97279 0.78012 0.26148 0.0
C505 C 0.9599 0.78901 0.34254 0.0
C506 C 0.97668 0.79792 0.19528 0.0
C507 C 0.96783 0.82471 0.20986 0.0
C508 C 0.95112 0.83188 0.28437 0.0
C509 C 0.94705 0.814 0.35035 0.0
C510 C 0.98171 0.89122 0.11498 0.0
C511 C 1.00621 0.89015 0.1107 0.0
C512 C 0.96908 0.86931 0.14182 0.0
C513 C 0.98079 0.84582 0.16342 0.0
C514 C 1.00538 0.84434 0.15479 0.0
C515 C 1.0179 0.86624 0.12927 0.0
H516 H 0.74278 0.03799 0.08819 0.0
H517 H 0.72875 0.10431 0.27403 0.0
H518 H 0.71309 0.05724 0.0127 0.0
H519 H 0.69959 0.12444 0.19672 0.0
H520 H 0.6229 0.10822 0.16773 0.0
H521 H 0.66172 0.10851 0.2035 0.0
H522 H 0.69286 0.08905 0.93728 0.0
H523 H 0.65364 0.08837 0.90185 0.0
C524 C 0.73422 0.05747 0.10991 0.0
C525 C 0.73769 0.06956 0.18719 0.0
C526 C 0.71715 0.06859 0.06674 0.0
C527 C 0.70345 0.09206 0.10014 0.0
C528 C 0.70938 0.10598 0.17076 0.0
C529 C 0.72622 0.09465 0.21452 0.0
C530 C 0.638 0.10486 0.1163 0.0
C531 C 0.63524 0.09781 0.03239 0.0
C532 C 0.66038 0.10515 0.13663 0.0
C533 C 0.68051 0.09852 0.07334 0.0
C534 C 0.67773 0.09377 0.98778 0.0
C535 C 0.6553 0.09334 0.96755 0.0
H536 H 0.50035 0.71341 0.11072 0.0
H537 H 0.57237 0.68229 0.08735 0.0
H538 H 0.49156 0.67333 0.0342 0.0
H539 H 0.5639 0.64248 0.00953 0.0
H540 H 0.5328 0.56214 0.01985 0.0
H541 H 0.54075 0.60601 0.07126 0.0
H542 H 0.49858 0.64311 0.90196 0.0
H543 H 0.49024 0.59904 0.85103 0.0
C544 C 0.51452 0.69856 0.08519 0.0
C545 C 0.53704 0.70085 0.10384 0.0
C546 C 0.50948 0.67553 0.04219 0.0
C547 C 0.52692 0.65451 0.01786 0.0
C548 C 0.54998 0.6581 0.02935 0.0
C549 C 0.55497 0.68103 0.07237 0.0
C550 C 0.52492 0.57959 0.99431 0.0
C551 C 0.51103 0.57703 0.93081 0.0
C552 C 0.52976 0.60476 0.02291 0.0
C553 C 0.52078 0.62799 0.98894 0.0
C554 C 0.50587 0.62555 0.92881 0.0
C555 C 0.50104 0.6003 0.89996 0.0
H556 H 0.83328 0.40208 0.4629 0.0
H557 H 0.8324 0.45921 0.26531 0.0
H558 H 0.8572 0.37005 0.35844 0.0
H559 H 0.85743 0.42879 0.16284 0.0
H560 H 0.91513 0.39398 0.00578 0.0
H561 H 0.87444 0.39486 0.0741 0.0
H562 H 0.89555 0.36483 0.30457 0.0
H563 H 0.93579 0.36028 0.23161 0.0
C564 C 0.83793 0.40753 0.39653 0.0
C565 C 0.83145 0.43319 0.3722 0.0
C566 C 0.85182 0.3893 0.33654 0.0
C567 C 0.86028 0.39685 0.25199 0.0
C568 C 0.85154 0.42168 0.22639 0.0
C569 C 0.83719 0.4395 0.28567 0.0
C570 C 0.91113 0.38609 0.06927 0.0
C571 C 0.92898 0.37902 0.1158 0.0
C572 C 0.88759 0.38718 0.10955 0.0
C573 C 0.88165 0.38252 0.19798 0.0
C574 C 0.89912 0.36995 0.23778 0.0
C575 C 0.92253 0.36766 0.19607 0.0
H576 H 0.04303 0.2166 0.11234 0.0
H577 H 0.97779 0.2232 0.01775 0.0
H578 H 0.05522 0.17569 0.02258 0.0
H579 H 0.9892 0.1821 0.93161 0.0
H580 H 1.01483 0.11037 0.76266 0.0
H581 H 1.01201 0.15642 0.81814 0.0
H582 H 0.04505 0.13097 0.02947 0.0
H583 H 0.04879 0.08514 0.97155 0.0
C584 C 0.03161 0.20972 0.07044 0.0
C585 C 1.00943 0.22301 0.07228 0.0
C586 C 0.03838 0.18602 0.02006 0.0
C587 C 0.02306 0.17512 0.97067 0.0
C588 C 1.00166 0.18973 0.96781 0.0
C589 C 0.99501 0.21336 0.0176 0.0
C590 C 0.02171 0.11465 0.82048 0.0
C591 C 0.03181 0.09397 0.86309 0.0
C592 C 0.02002 0.14111 0.85263 0.0
C593 C 0.02805 0.14762 0.92913 0.0
C594 C 0.03894 0.12699 0.96986 0.0
C595 C 0.04092 0.10056 0.93698 0.0
H596 H 0.34247 0.04585 0.19329 0.0
H597 H 0.34071 0.97517 0.03472 0.0
H598 H 0.37985 0.0554 0.10449 0.0
H599 H 0.37815 0.98419 0.9466 0.0
H600 H 0.46035 0.03794 0.02189 0.0
H601 H 0.41942 0.03641 0.0898 0.0
H602 H 0.40259 0.01012 0.84708 0.0
H603 H 0.44375 0.01132 0.77917 0.0
C604 C 0.34956 0.03301 0.13705 0.0
C605 C 0.33829 0.01013 0.11978 0.0
C606 C 0.3713 0.03812 0.08706 0.0
C607 C 0.38244 0.02038 0.01863 0.0
C608 C 0.37023 0.99852 0.99786 0.0
C609 C 0.34856 0.99341 0.048 0.0
C610 C 0.44796 0.03202 0.9825 0.0
C611 C 0.45563 0.0246 0.89475 0.0
C612 C 0.42429 0.03135 0.02155 0.0
C613 C 0.40739 0.02319 0.97437 0.0
C614 C 0.41498 0.01625 0.88611 0.0
C615 C 0.43869 0.01702 0.84691 0.0
H616 H 0.49193 0.33663 0.19784 0.0
H617 H 0.5635 0.3233 0.06489 0.0
H618 H 0.48492 0.3719 0.09978 0.0
H619 H 0.55736 0.35909 0.97058 0.0
H620 H 0.54466 0.42301 0.79729 0.0
H621 H 0.54314 0.38003 0.86407 0.0
H622 H 0.49306 0.41595 0.08049 0.0
H623 H 0.49346 0.45846 0.00896 0.0
C624 C 0.50587 0.34054 0.1453 0.0
C625 C 0.52812 0.32689 0.13782 0.0
C626 C 0.50209 0.36124 0.09021 0.0
C627 C 0.52064 0.36903 0.02738 0.0
C628 C 0.54239 0.35381 0.01651 0.0
C629 C 0.54599 0.33301 0.07057 0.0
C630 C 0.53309 0.4215 0.85859 0.0
C631 C 0.51934 0.44402 0.8984 0.0
C632 C 0.53231 0.39686 0.89758 0.0
C633 C 0.51834 0.39422 0.97923 0.0
C634 C 0.50387 0.41677 0.01742 0.0
C635 C 0.50418 0.44131 0.9769 0.0
H636 H 0.20547 0.45457 0.89528 0.0
H637 H 0.19085 0.52462 0.06549 0.0
H638 H 0.1684 0.46428 0.84487 0.0
H639 H 0.15361 0.53425 0.01622 0.0
H640 H 0.07714 0.50852 0.02666 0.0
H641 H 0.11774 0.50752 0.04769 0.0
H642 H 0.14181 0.49651 0.77342 0.0
H643 H 0.10088 0.49794 0.75194 0.0
C644 C 0.19487 0.47279 0.91864 0.0
C645 C 0.20129 0.48912 0.9831 0.0
C646 C 0.1735 0.47823 0.89044 0.0
C647 C 0.15785 0.49982 0.92743 0.0
C648 C 0.16515 0.51731 0.98702 0.0
C649 C 0.18668 0.51208 0.0142 0.0
C650 C 0.09102 0.506 0.97059 0.0
C651 C 0.08566 0.50317 0.88761 0.0
C652 C 0.11435 0.50569 0.98264 0.0
C653 C 0.13309 0.50215 0.91223 0.0
C654 C 0.1278 0.49931 0.82902 0.0
C655 C 0.10435 0.50012 0.81676 0.0
H656 H 0.96644 0.81029 0.68663 0.0
H657 H 0.03062 0.80094 0.49971 0.0
H658 H 0.97839 0.85228 0.74124 0.0
H659 H 0.04273 0.84298 0.55376 0.0
H660 H 0.03274 0.93621 0.57564 0.0
H661 H 0.02706 0.88974 0.54079 0.0
H662 H 1.00681 0.87582 0.81134 0.0
H663 H 1.01244 0.92225 0.84641 0.0
C664 C 0.98361 0.81666 0.66007 0.0
C665 C 0.99787 0.80214 0.59041 0.0
C666 C 0.9904 0.84082 0.6907 0.0
C667 C 1.0114 0.85118 0.65114 0.0
C668 C 0.02633 0.83572 0.58498 0.0
C669 C 0.01963 0.81143 0.55501 0.0
C670 C 0.02721 0.92324 0.62776 0.0
C671 C 0.02291 0.93311 0.71373 0.0
C672 C 0.02414 0.8965 0.60784 0.0
C673 C 1.01653 0.87899 0.67332 0.0
C674 C 1.01254 0.88878 0.75935 0.0
C675 C 1.01581 0.91544 0.77934 0.0
H676 H 0.71642 0.06131 0.51087 0.0
H677 H 0.72049 0.98044 0.40853 0.0
H678 H 0.67833 0.05545 0.59783 0.0
H679 H 0.68245 0.97383 0.49862 0.0
H680 H 0.601 0.98509 0.56942 0.0
H681 H 0.64235 0.9853 0.50316 0.0
H682 H 0.65346 0.03846 0.70964 0.0
H683 H 0.61207 0.03921 0.77281 0.0
C684 C 0.7096 0.04179 0.51017 0.0
C685 C 0.72174 0.02125 0.45364 0.0
C686 C 0.68753 0.03837 0.56 0.0
C687 C 0.67676 0.01418 0.5554 0.0
C688 C 0.68973 0.99296 0.50315 0.0
C689 C 0.71188 0.99648 0.45276 0.0
C690 C 0.61231 0.99671 0.60092 0.0
C691 C 0.60295 0.01233 0.67629 0.0
C692 C 0.63622 0.99669 0.56313 0.0
C693 C 0.65165 0.01206 0.60004 0.0
C694 C 0.64234 0.02683 0.6774 0.0
C695 C 0.61843 0.02714 0.71434 0.0
H696 H 0.5021 0.70057 0.41087 0.0
H697 H 0.57426 0.71106 0.42506 0.0
H698 H 0.50199 0.66369 0.50518 0.0
H699 H 0.57407 0.67493 0.52581 0.0
H700 H 0.57622 0.58579 0.59348 0.0
H701 H 0.57625 0.62916 0.52706 0.0
H702 H 0.50187 0.64324 0.62867 0.0
H703 H 0.50178 0.59916 0.68676 0.0
C704 C 0.51761 0.69583 0.4384 0.0
C705 C 0.53806 0.70894 0.41146 0.0
C706 C 0.51768 0.67442 0.49277 0.0
C707 C 0.53816 0.66564 0.52344 0.0
C708 C 0.55809 0.68042 0.50226 0.0
C709 C 0.5581 0.70167 0.44619 0.0
C710 C 0.55994 0.59826 0.6008 0.0
C711 C 0.53891 0.58888 0.6434 0.0
C712 C 0.55992 0.62336 0.56366 0.0
C713 C 0.53896 0.64005 0.57069 0.0
C714 C 0.51826 0.63096 0.61821 0.0
C715 C 0.51817 0.60562 0.6524 0.0
H716 H 0.84972 0.45003 0.65727 0.0
H717 H 0.84352 0.53288 0.59468 0.0
H718 H 0.88169 0.45852 0.73111 0.0
H719 H 0.87467 0.54202 0.67447 0.0
H720 H 0.9516 0.54071 0.71568 0.0
H721 H 0.91519 0.53656 0.66216 0.0
H722 H 0.89662 0.47546 0.84375 0.0
H723 H 0.93371 0.47867 0.89332 0.0
C724 C 0.85487 0.47028 0.66079 0.0
C725 C 0.84416 0.49064 0.61849 0.0
C726 C 0.87319 0.47528 0.70438 0.0
C727 C 0.88127 0.501 0.70877 0.0
C728 C 0.86949 0.5218 0.67119 0.0
C729 C 0.85125 0.51667 0.62651 0.0
C730 C 0.93962 0.52658 0.74481 0.0
C731 C 0.94574 0.50989 0.80848 0.0
C732 C 0.91853 0.52427 0.71433 0.0
C733 C 0.90269 0.50545 0.74754 0.0
C734 C 0.90842 0.48969 0.81436 0.0
C735 C 0.92971 0.49167 0.84362 0.0
loop_
_geom_bond_atom_site_label_1
_geom_bond_atom_site_label_2
_geom_bond_distance
_geom_bond_site_symmetry_2
_ccdc_geom_bond_type
H0 C5 0.930 . S
H1 C8 0.930 . S
H2 C10 0.930 . S
H3 C4 1.016 . S
C4 H3 1.016 . S
C4 N11 1.286 . S
C5 H0 0.930 . S
C5 C6 1.397 . S
C5 C7 1.361 . S
C6 C5 1.397 . S
C6 C10 1.390 . S
C7 C5 1.361 . S
C7 C8 1.393 . S
C7 N11 1.413 . S
C8 H1 0.930 . S
C8 C7 1.393 . S
C8 C9 1.399 . S
C9 C8 1.399 . S
C9 C10 1.381 . S
C10 H2 0.930 . S
C10 C6 1.390 . S
C10 C9 1.381 . S
N11 C4 1.286 . S
N11 C7 1.413 . S
H12 C17 0.930 1_455 S
H13 C20 0.930 . S
H14 C22 0.930 . S
H15 C16 1.016 . S
C16 H15 1.016 . S
C16 N23 1.286 1_655 S
C17 H12 0.930 1_655 S
C17 C18 1.397 . S
C17 C19 1.361 . S
C18 C17 1.397 . S
C18 C22 1.390 . S
C19 C17 1.361 . S
C19 C20 1.394 . S
C19 N23 1.413 1_655 S
C20 H13 0.930 . S
C20 C19 1.394 . S
C20 C21 1.399 . S
C21 C20 1.399 . S
C21 C22 1.381 . S
C22 H14 0.930 . S
C22 C18 1.390 . S
C22 C21 1.381 . S
N23 C16 1.286 1_455 S
N23 C19 1.413 1_455 S
H24 C29 0.930 . S
H25 C32 0.930 . S
H26 C34 0.930 . S
H27 C28 1.029 . S
C28 H27 1.029 . S
C28 N35 1.271 1_565 S
C29 H24 0.930 . S
C29 C30 1.397 . S
C29 C31 1.361 . S
C30 C29 1.397 . S
C30 C34 1.390 1_545 S
C31 C29 1.361 . S
C31 C32 1.393 . S
C31 N35 1.413 . S
C32 H25 0.930 . S
C32 C31 1.393 . S
C32 C33 1.404 . S
C33 C32 1.404 . S
C33 C34 1.377 1_545 S
C34 H26 0.930 . S
C34 C30 1.390 1_565 S
C34 C33 1.377 1_565 S
N35 C28 1.271 1_545 S
N35 C31 1.413 . S
H36 C41 0.930 . S
H37 C44 0.930 . S
H38 C46 0.930 . S
H39 C40 1.016 . S
C40 H39 1.016 . S
C40 N47 1.286 . S
C41 H36 0.930 . S
C41 C42 1.397 . S
C41 C43 1.361 . S
C42 C41 1.397 . S
C42 C46 1.390 . S
C43 C41 1.361 . S
C43 C44 1.393 . S
C43 N47 1.413 . S
C44 H37 0.930 . S
C44 C43 1.393 . S
C44 C45 1.399 . S
C45 C44 1.399 . S
C45 C46 1.381 . S
C46 H38 0.930 . S
C46 C42 1.390 . S
C46 C45 1.381 . S
N47 C40 1.286 . S
N47 C43 1.413 . S
H48 C53 0.930 . S
H49 C56 0.930 . S
H50 C58 0.930 . S
H51 C52 1.016 . S
C52 H51 1.016 . S
C52 N59 1.286 1_554 S
C53 H48 0.930 . S
C53 C54 1.397 . S
C53 C55 1.361 . S
C54 C53 1.397 . S
C54 C58 1.390 . S
C55 C53 1.361 . S
C55 C56 1.393 1_556 S
C55 N59 1.413 . S
C56 H49 0.930 . S
C56 C55 1.393 1_554 S
C56 C57 1.399 . S
C57 C56 1.399 . S
C57 C58 1.381 1_554 S
C58 H50 0.930 . S
C58 C54 1.390 . S
C58 C57 1.381 1_556 S
N59 C52 1.286 1_556 S
N59 C55 1.413 . S
H60 C65 0.930 1_556 S
H61 C68 0.930 . S
H62 C70 0.930 . S
H63 C64 1.016 . S
C64 H63 1.016 . S
C64 N71 1.286 . S
C65 H60 0.930 1_554 S
C65 C66 1.397 . S
C65 C67 1.361 . S
C66 C65 1.397 . S
C66 C70 1.390 . S
C67 C65 1.361 . S
C67 C68 1.393 . S
C67 N71 1.413 . S
C68 H61 0.930 . S
C68 C67 1.393 . S
C68 C69 1.399 . S
C69 C68 1.399 . S
C69 C70 1.381 . S
C70 H62 0.930 . S
C70 C66 1.390 . S
C70 C69 1.381 . S
N71 C64 1.286 . S
N71 C67 1.413 . S
H72 C77 0.930 . S
H73 C80 0.930 . S
H74 C82 0.930 . S
H75 C76 1.026 . S
C76 H75 1.026 . S
C76 N83 1.270 1_565 S
C77 H72 0.930 . S
C77 C78 1.397 . S
C77 C79 1.361 . S
C78 C77 1.397 . S
C78 C82 1.390 1_545 S
C79 C77 1.361 . S
C79 C80 1.393 . S
C79 N83 1.413 . S
C80 H73 0.930 . S
C80 C79 1.393 . S
C80 C81 1.402 . S
C81 C80 1.402 . S
C81 C82 1.380 1_545 S
C82 H74 0.930 . S
C82 C78 1.390 1_565 S
C82 C81 1.380 1_565 S
N83 C76 1.270 1_545 S
N83 C79 1.413 . S
H84 C89 0.930 . S
H85 C92 0.930 . S
H86 C94 0.930 . S
H87 C88 1.016 . S
C88 H87 1.016 . S
C88 N95 1.286 . S
C89 H84 0.930 . S
C89 C90 1.397 . S
C89 C91 1.361 . S
C90 C89 1.397 . S
C90 C94 1.390 . S
C91 C89 1.361 . S
C91 C92 1.393 . S
C91 N95 1.413 . S
C92 H85 0.930 . S
C92 C91 1.393 . S
C92 C93 1.399 . S
C93 C92 1.399 . S
C93 C94 1.381 . S
C94 H86 0.930 . S
C94 C90 1.390 . S
C94 C93 1.381 . S
N95 C88 1.286 . S
N95 C91 1.413 . S
Dy96 O99 2.307 1_545 S
Dy96 O101 2.395 1_655 S
Dy96 O102 2.379 . S
Dy96 O104 2.339 . S
Dy96 O106 2.298 . S
Dy96 O110 2.275 1_655 S
Dy96 C118 2.738 . S
Dy97 O100 2.298 . S
Dy97 O103 2.275 1_455 S
Dy97 O105 2.307 1_565 S
Dy97 O107 2.395 1_455 S
Dy97 O108 2.379 . S
Dy97 O111 2.339 . S
Dy97 C127 2.738 . S
C98 O110 1.254 1_565 S
C98 O111 1.257 . S
O99 Dy96 2.307 1_565 S
O99 C109 1.266 . S
O100 Dy97 2.298 . S
O100 C109 1.236 1_455 S
O101 Dy96 2.395 1_455 S
O101 C118 1.255 1_455 S
O102 Dy96 2.379 . S
O102 C118 1.249 . S
O103 Dy97 2.275 1_655 S
O103 C119 1.254 1_565 S
O104 Dy96 2.339 . S
O104 C119 1.257 . S
O105 Dy97 2.307 1_545 S
O105 C120 1.266 . S
O106 Dy96 2.298 . S
O106 C120 1.236 1_655 S
O107 Dy97 2.395 1_655 S
O107 C127 1.255 1_655 S
O108 Dy97 2.379 . S
O108 C127 1.249 . S
C109 O99 1.266 . S
C109 O100 1.236 1_655 S
O110 Dy96 2.275 1_455 S
O110 C98 1.254 1_545 S
O111 Dy97 2.339 . S
O111 C98 1.257 . S
C112 C115 1.344 1_655 S
C112 C116 1.328 . S
C112 C118 1.516 . S
C113 C114 1.304 1_655 S
C113 C117 1.323 . S
C114 C113 1.304 1_455 S
C114 C115 1.371 . S
C114 H128 0.930 . S
C115 C112 1.344 1_455 S
C115 C114 1.371 . S
C115 H129 0.931 . S
C116 C112 1.328 . S
C116 C117 1.433 . S
C116 H130 0.931 . S
C117 C113 1.323 . S
C117 C116 1.433 . S
C117 H131 0.933 . S
C118 Dy96 2.738 . S
C118 O101 1.255 1_655 S
C118 O102 1.249 . S
C118 C112 1.516 . S
C119 O103 1.254 1_545 S
C119 O104 1.257 . S
C120 O105 1.266 . S
C120 O106 1.236 1_455 S
C121 C124 1.344 1_455 S
C121 C125 1.328 . S
C121 C127 1.516 1_554 S
C122 C123 1.304 1_455 S
C122 C126 1.323 . S
C123 C122 1.304 1_655 S
C123 C124 1.371 . S
C123 H132 0.930 . S
C124 C121 1.344 1_655 S
C124 C123 1.371 . S
C124 H133 0.931 . S
C125 C121 1.328 . S
C125 C126 1.433 . S
C125 H134 0.931 . S
C126 C122 1.323 . S
C126 C125 1.433 . S
C126 H135 0.933 . S
C127 Dy97 2.738 . S
C127 O107 1.255 1_455 S
C127 O108 1.249 . S
C127 C121 1.516 1_556 S
H128 C114 0.930 . S
H129 C115 0.931 . S
H130 C116 0.931 . S
H131 C117 0.933 . S
H132 C123 0.930 . S
H133 C124 0.931 . S
H134 C125 0.931 . S
H135 C126 0.933 . S
Dy136 O139 2.307 . S
Dy136 O141 2.395 1_565 S
Dy136 O142 2.379 . S
Dy136 O144 2.339 . S
Dy136 O146 2.298 . S
Dy136 O150 2.275 1_565 S
Dy136 C158 2.738 . S
Dy137 O140 2.298 . S
Dy137 O143 2.275 1_545 S
Dy137 O145 2.307 . S
Dy137 O147 2.395 1_545 S
Dy137 O148 2.379 . S
Dy137 O151 2.339 . S
Dy137 C167 2.738 . S
C138 O150 1.254 . S
C138 O151 1.257 . S
O139 Dy136 2.307 . S
O139 C149 1.266 . S
O140 Dy137 2.298 . S
O140 C149 1.236 1_545 S
O141 Dy136 2.395 1_545 S
O141 C158 1.255 1_545 S
O142 Dy136 2.379 . S
O142 C158 1.249 . S
O143 Dy137 2.275 1_565 S
O143 C159 1.254 . S
O144 Dy136 2.339 . S
O144 C159 1.257 . S
O145 Dy137 2.307 . S
O145 C160 1.266 . S
O146 Dy136 2.298 . S
O146 C160 1.236 1_565 S
O147 Dy137 2.395 1_565 S
O147 C167 1.255 1_565 S
O148 Dy137 2.379 . S
O148 C167 1.249 . S
C149 O139 1.266 . S
C149 O140 1.236 1_565 S
O150 Dy136 2.275 1_545 S
O150 C138 1.254 . S
O151 Dy137 2.339 . S
O151 C138 1.257 . S
C152 C155 1.344 1_565 S
C152 C156 1.328 . S
C152 C158 1.516 . S
C153 C154 1.304 1_565 S
C153 C157 1.323 . S
C154 C153 1.304 1_545 S
C154 C155 1.371 . S
C154 H168 0.930 . S
C155 C152 1.344 1_545 S
C155 C154 1.371 . S
C155 H169 0.931 . S
C156 C152 1.328 . S
C156 C157 1.433 . S
C156 H170 0.931 . S
C157 C153 1.323 . S
C157 C156 1.433 . S
C157 H171 0.933 . S
C158 Dy136 2.738 . S
C158 O141 1.255 1_565 S
C158 O142 1.249 . S
C158 C152 1.516 . S
C159 O143 1.254 . S
C159 O144 1.257 . S
C160 O145 1.266 . S
C160 O146 1.236 1_545 S
C161 C164 1.341 1_546 S
C161 C165 1.323 1_556 S
C161 C167 1.523 . S
C162 C163 1.304 1_545 S
C162 C166 1.323 . S
C163 C162 1.304 1_565 S
C163 C164 1.371 . S
C163 H172 0.930 . S
C164 C161 1.341 1_564 S
C164 C163 1.371 . S
C164 H173 0.931 1_554 S
C165 C161 1.323 1_554 S
C165 C166 1.433 . S
C165 H174 0.931 . S
C166 C162 1.323 . S
C166 C165 1.433 . S
C166 H175 0.933 . S
C167 Dy137 2.738 . S
C167 O147 1.255 1_545 S
C167 O148 1.249 . S
C167 C161 1.523 . S
H168 C154 0.930 . S
H169 C155 0.931 . S
H170 C156 0.931 . S
H171 C157 0.933 . S
H172 C163 0.930 . S
H173 C164 0.931 1_556 S
H174 C165 0.931 . S
H175 C166 0.933 . S
Dy176 O179 2.307 . S
Dy176 O181 2.395 . S
Dy176 O182 2.379 . S
Dy176 O184 2.339 . S
Dy176 O186 2.298 . S
Dy176 O190 2.275 . S
Dy176 C198 2.738 . S
Dy177 O180 2.298 . S
Dy177 O183 2.275 . S
Dy177 O185 2.307 . S
Dy177 O187 2.395 . S
Dy177 O188 2.379 . S
Dy177 O191 2.339 . S
Dy177 C207 2.738 . S
C178 O190 1.254 . S
C178 O191 1.257 . S
O179 Dy176 2.307 . S
O179 C189 1.266 . S
O180 Dy177 2.298 . S
O180 C189 1.236 . S
O181 Dy176 2.395 . S
O181 C198 1.255 . S
O182 Dy176 2.379 . S
O182 C198 1.249 . S
O183 Dy177 2.275 . S
O183 C199 1.254 . S
O184 Dy176 2.339 . S
O184 C199 1.257 . S
O185 Dy177 2.307 . S
O185 C200 1.266 . S
O186 Dy176 2.298 . S
O186 C200 1.236 . S
O187 Dy177 2.395 . S
O187 C207 1.255 . S
O188 Dy177 2.379 . S
O188 C207 1.249 . S
C189 O179 1.266 . S
C189 O180 1.236 . S
O190 Dy176 2.275 . S
O190 C178 1.254 . S
O191 Dy177 2.339 . S
O191 C178 1.257 . S
C192 C195 1.344 1_556 S
C192 C196 1.328 . S
C192 C198 1.516 . S
C193 C194 1.304 . S
C193 C197 1.323 1_554 S
C194 C193 1.304 . S
C194 C195 1.371 . S
C194 H208 0.930 . S
C195 C192 1.344 1_554 S
C195 C194 1.371 . S
C195 H209 0.931 . S
C196 C192 1.328 . S
C196 C197 1.433 . S
C196 H210 0.931 . S
C197 C193 1.323 1_556 S
C197 C196 1.433 . S
C197 H211 0.933 . S
C198 Dy176 2.738 . S
C198 O181 1.255 . S
C198 O182 1.249 . S
C198 C192 1.516 . S
C199 O183 1.254 . S
C199 O184 1.257 . S
C200 O185 1.266 . S
C200 O186 1.236 . S
C201 C204 1.344 . S
C201 C205 1.328 . S
C201 C207 1.516 . S
C202 C203 1.304 . S
C202 C206 1.323 . S
C203 C202 1.304 . S
C203 C204 1.371 . S
C203 H212 0.930 . S
C204 C201 1.344 . S
C204 C203 1.371 . S
C204 H213 0.931 . S
C205 C201 1.328 . S
C205 C206 1.433 . S
C205 H214 0.931 . S
C206 C202 1.323 . S
C206 C205 1.433 . S
C206 H215 0.933 . S
C207 Dy177 2.738 . S
C207 O187 1.255 . S
C207 O188 1.249 . S
C207 C201 1.516 . S
H208 C194 0.930 . S
H209 C195 0.931 . S
H210 C196 0.931 . S
H211 C197 0.933 . S
H212 C203 0.930 . S
H213 C204 0.931 . S
H214 C205 0.931 . S
H215 C206 0.933 . S
Dy216 O219 2.307 1_455 S
Dy216 O221 2.395 . S
Dy216 O222 2.379 . S
Dy216 O224 2.339 . S
Dy216 O226 2.298 . S
Dy216 O230 2.275 . S
Dy216 C238 2.738 . S
Dy217 O220 2.298 . S
Dy217 O223 2.275 . S
Dy217 O225 2.307 1_655 S
Dy217 O227 2.395 . S
Dy217 O228 2.379 . S
Dy217 O231 2.339 . S
Dy217 C247 2.738 . S
C218 O230 1.268 . S
C218 O231 1.240 1_455 S
O219 Dy216 2.307 1_655 S
O219 C229 1.266 . S
O220 Dy217 2.298 . S
O220 C229 1.236 . S
O221 Dy216 2.395 . S
O221 C238 1.255 . S
O222 Dy216 2.379 . S
O222 C238 1.249 . S
O223 Dy217 2.275 . S
O223 C239 1.254 1_655 S
O224 Dy216 2.339 . S
O224 C239 1.257 . S
O225 Dy217 2.307 1_455 S
O225 C240 1.266 . S
O226 Dy216 2.298 . S
O226 C240 1.236 . S
O227 Dy217 2.395 . S
O227 C247 1.255 . S
O228 Dy217 2.379 . S
O228 C247 1.249 . S
C229 O219 1.266 . S
C229 O220 1.236 . S
O230 Dy216 2.275 . S
O230 C218 1.268 . S
O231 Dy217 2.339 . S
O231 C218 1.240 1_655 S
C232 C235 1.344 . S
C232 C236 1.328 . S
C232 C238 1.516 . S
C233 C234 1.304 . S
C233 C237 1.323 . S
C234 C233 1.304 . S
C234 C235 1.371 . S
C234 H248 0.930 . S
C235 C232 1.344 . S
C235 C234 1.371 . S
C235 H249 0.931 . S
C236 C232 1.328 . S
C236 C237 1.433 . S
C236 H250 0.931 . S
C237 C233 1.323 . S
C237 C236 1.433 . S
C237 H251 0.933 . S
C238 Dy216 2.738 . S
C238 O221 1.255 . S
C238 O222 1.249 . S
C238 C232 1.516 . S
C239 O223 1.254 1_455 S
C239 O224 1.257 . S
C240 O225 1.266 . S
C240 O226 1.236 . S
C241 C244 1.344 . S
C241 C245 1.328 . S
C241 C247 1.516 1_554 S
C242 C243 1.304 . S
C242 C246 1.323 . S
C243 C242 1.304 . S
C243 C244 1.371 . S
C243 H252 0.930 . S
C244 C241 1.344 . S
C244 C243 1.371 . S
C244 H253 0.931 . S
C245 C241 1.328 . S
C245 C246 1.433 . S
C245 H254 0.931 . S
C246 C242 1.323 . S
C246 C245 1.433 . S
C246 H255 0.933 . S
C247 Dy217 2.738 . S
C247 O227 1.255 . S
C247 O228 1.249 . S
C247 C241 1.516 1_556 S
H248 C234 0.930 . S
H249 C235 0.931 . S
H250 C236 0.931 . S
H251 C237 0.933 . S
H252 C243 0.930 . S
H253 C244 0.931 . S
H254 C245 0.931 . S
H255 C246 0.933 . S
H256 C264 0.950 . S
H257 C269 0.950 . S
H258 C266 0.950 . S
H259 C268 0.950 . S
H260 C270 0.950 . S
H261 C272 0.950 . S
H262 C274 0.950 . S
H263 C275 0.950 . S
C264 H256 0.950 . S
C264 C265 1.376 1_545 S
C264 C266 1.391 . S
C265 C264 1.376 1_565 S
C265 C269 1.404 . S
C266 H258 0.950 . S
C266 C264 1.391 . S
C266 C267 1.405 . S
C267 C266 1.405 . S
C267 C268 1.394 1_545 S
C267 C273 1.490 . S
C268 H259 0.950 . S
C268 C267 1.394 1_565 S
C268 C269 1.391 . S
C269 H257 0.950 . S
C269 C265 1.404 . S
C269 C268 1.391 . S
C270 H260 0.950 . S
C270 C271 1.386 1_565 S
C270 C272 1.391 . S
C271 C270 1.386 1_545 S
C271 C275 1.393 . S
C272 H261 0.950 . S
C272 C270 1.391 . S
C272 C273 1.400 1_565 S
C273 C267 1.490 . S
C273 C272 1.400 1_545 S
C273 C274 1.398 . S
C274 H262 0.950 . S
C274 C273 1.398 . S
C274 C275 1.391 . S
C275 H263 0.950 . S
C275 C271 1.393 . S
C275 C274 1.391 . S
H276 C284 0.950 . S
H277 C289 0.950 . S
H278 C286 0.950 . S
H279 C288 0.950 . S
H280 C290 0.950 . S
H281 C292 0.950 . S
H282 C294 0.950 . S
H283 C295 0.950 . S
C284 H276 0.950 . S
C284 C285 1.386 . S
C284 C286 1.391 . S
C285 C284 1.386 . S
C285 C289 1.393 . S
C286 H278 0.950 . S
C286 C284 1.391 . S
C286 C287 1.400 . S
C287 C286 1.400 . S
C287 C288 1.398 . S
C287 C293 1.491 . S
C288 H279 0.950 . S
C288 C287 1.398 . S
C288 C289 1.391 . S
C289 H277 0.950 . S
C289 C285 1.393 . S
C289 C288 1.391 . S
C290 H280 0.950 . S
C290 C291 1.386 . S
C290 C292 1.391 . S
C291 C290 1.386 . S
C291 C295 1.393 . S
C292 H281 0.950 . S
C292 C290 1.391 . S
C292 C293 1.400 . S
C293 C287 1.491 . S
C293 C292 1.400 . S
C293 C294 1.398 . S
C294 H282 0.950 . S
C294 C293 1.398 . S
C294 C295 1.391 . S
C295 H283 0.950 . S
C295 C291 1.393 . S
C295 C294 1.391 . S
H296 C304 0.950 . S
H297 C309 0.950 . S
H298 C306 0.950 . S
H299 C308 0.950 . S
H300 C310 0.950 . S
H301 C312 0.950 . S
H302 C314 0.950 . S
H303 C315 0.950 . S
C304 H296 0.950 . S
C304 C305 1.386 . S
C304 C306 1.391 . S
C305 C304 1.386 . S
C305 C309 1.393 . S
C306 H298 0.950 . S
C306 C304 1.391 . S
C306 C307 1.400 . S
C307 C306 1.400 . S
C307 C308 1.398 . S
C307 C313 1.491 . S
C308 H299 0.950 . S
C308 C307 1.398 . S
C308 C309 1.391 . S
C309 H297 0.950 . S
C309 C305 1.393 . S
C309 C308 1.391 . S
C310 H300 0.950 . S
C310 C311 1.386 . S
C310 C312 1.391 . S
C311 C310 1.386 . S
C311 C315 1.393 . S
C312 H301 0.950 . S
C312 C310 1.391 . S
C312 C313 1.400 . S
C313 C307 1.491 . S
C313 C312 1.400 . S
C313 C314 1.398 . S
C314 H302 0.950 . S
C314 C313 1.398 . S
C314 C315 1.391 . S
C315 H303 0.950 . S
C315 C311 1.393 . S
C315 C314 1.391 . S
H316 C324 0.950 . S
H317 C329 0.950 . S
H318 C326 0.950 . S
H319 C328 0.950 . S
H320 C330 0.950 . S
H321 C332 0.950 . S
H322 C334 0.950 . S
H323 C335 0.950 . S
C324 H316 0.950 . S
C324 C325 1.386 1_655 S
C324 C326 1.391 . S
C325 C324 1.386 1_455 S
C325 C329 1.393 . S
C326 H318 0.950 . S
C326 C324 1.391 . S
C326 C327 1.400 1_655 S
C327 C326 1.400 1_455 S
C327 C328 1.398 . S
C327 C333 1.491 . S
C328 H319 0.950 . S
C328 C327 1.398 . S
C328 C329 1.391 . S
C329 H317 0.950 . S
C329 C325 1.393 . S
C329 C328 1.391 . S
C330 H320 0.950 . S
C330 C331 1.386 . S
C330 C332 1.391 . S
C331 C330 1.386 . S
C331 C335 1.393 1_455 S
C332 H321 0.950 . S
C332 C330 1.391 . S
C332 C333 1.400 . S
C333 C327 1.491 . S
C333 C332 1.400 . S
C333 C334 1.398 1_455 S
C334 H322 0.950 . S
C334 C333 1.398 1_655 S
C334 C335 1.391 . S
C335 H323 0.950 . S
C335 C331 1.393 1_655 S
C335 C334 1.391 . S
H336 C344 0.950 . S
H337 C349 0.950 . S
H338 C346 0.950 . S
H339 C348 0.950 . S
H340 C350 0.952 . S
H341 C352 0.950 . S
H342 C354 0.950 . S
H343 C355 0.950 . S
C344 H336 0.950 . S
C344 C345 1.384 1_565 S
C344 C346 1.391 . S
C345 C344 1.384 1_545 S
C345 C349 1.400 . S
C346 H338 0.950 . S
C346 C344 1.391 . S
C346 C347 1.400 1_565 S
C347 C346 1.400 1_545 S
C347 C348 1.399 . S
C347 C353 1.491 1_545 S
C348 H339 0.950 . S
C348 C347 1.399 . S
C348 C349 1.391 . S
C349 H337 0.950 . S
C349 C345 1.400 . S
C349 C348 1.391 . S
C350 H340 0.952 . S
C350 C351 1.385 1_544 S
C350 C352 1.390 . S
C351 C350 1.385 1_566 S
C351 C355 1.393 . S
C352 H341 0.950 . S
C352 C350 1.390 . S
C352 C353 1.400 1_545 S
C353 C347 1.491 1_565 S
C353 C352 1.400 1_565 S
C353 C354 1.398 1_554 S
C354 H342 0.950 . S
C354 C353 1.398 1_556 S
C354 C355 1.391 . S
C355 H343 0.950 . S
C355 C351 1.393 . S
C355 C354 1.391 . S
H356 C364 0.950 . S
H357 C369 0.950 . S
H358 C366 0.950 1_556 S
H359 C368 0.950 . S
H360 C370 0.950 . S
H361 C372 0.950 . S
H362 C374 0.950 . S
H363 C375 0.950 . S
C364 H356 0.950 . S
C364 C365 1.386 . S
C364 C366 1.391 . S
C365 C364 1.386 . S
C365 C369 1.393 . S
C366 H358 0.950 1_554 S
C366 C364 1.391 . S
C366 C367 1.400 . S
C367 C366 1.400 . S
C367 C368 1.398 . S
C367 C373 1.491 1_554 S
C368 H359 0.950 . S
C368 C367 1.398 . S
C368 C369 1.391 . S
C369 H357 0.950 . S
C369 C365 1.393 . S
C369 C368 1.391 . S
C370 H360 0.950 . S
C370 C371 1.386 . S
C370 C372 1.391 . S
C371 C370 1.386 . S
C371 C375 1.393 . S
C372 H361 0.950 . S
C372 C370 1.391 . S
C372 C373 1.400 . S
C373 C367 1.491 1_556 S
C373 C372 1.400 . S
C373 C374 1.398 . S
C374 H362 0.950 . S
C374 C373 1.398 . S
C374 C375 1.391 . S
C375 H363 0.950 . S
C375 C371 1.393 . S
C375 C374 1.391 . S
H376 C384 0.950 . S
H377 C389 0.950 . S
H378 C386 0.950 . S
H379 C388 0.950 . S
H380 C390 0.950 . S
H381 C392 0.950 . S
H382 C394 0.950 . S
H383 C395 0.950 . S
C384 H376 0.950 . S
C384 C385 1.386 . S
C384 C386 1.391 . S
C385 C384 1.386 . S
C385 C389 1.393 . S
C386 H378 0.950 . S
C386 C384 1.391 . S
C386 C387 1.400 . S
C387 C386 1.400 . S
C387 C388 1.398 . S
C387 C393 1.491 . S
C388 H379 0.950 . S
C388 C387 1.398 . S
C388 C389 1.391 . S
C389 H377 0.950 . S
C389 C385 1.393 . S
C389 C388 1.391 . S
C390 H380 0.950 . S
C390 C391 1.386 . S
C390 C392 1.391 . S
C391 C390 1.386 . S
C391 C395 1.393 . S
C392 H381 0.950 . S
C392 C390 1.391 . S
C392 C393 1.400 . S
C393 C387 1.491 . S
C393 C392 1.400 . S
C393 C394 1.398 . S
C394 H382 0.950 . S
C394 C393 1.398 . S
C394 C395 1.391 . S
C395 H383 0.950 . S
C395 C391 1.393 . S
C395 C394 1.391 . S
H396 C404 0.950 . S
H397 C409 0.950 . S
H398 C406 0.950 . S
H399 C408 0.950 . S
H400 C410 0.950 . S
H401 C412 0.950 . S
H402 C414 0.950 . S
H403 C415 0.950 . S
C404 H396 0.950 . S
C404 C405 1.386 . S
C404 C406 1.391 . S
C405 C404 1.386 . S
C405 C409 1.393 . S
C406 H398 0.950 . S
C406 C404 1.391 . S
C406 C407 1.400 . S
C407 C406 1.400 . S
C407 C408 1.398 . S
C407 C413 1.491 . S
C408 H399 0.950 . S
C408 C407 1.398 . S
C408 C409 1.391 . S
C409 H397 0.950 . S
C409 C405 1.393 . S
C409 C408 1.391 . S
C410 H400 0.950 . S
C410 C411 1.386 1_554 S
C410 C412 1.391 . S
C411 C410 1.386 1_556 S
C411 C415 1.393 . S
C412 H401 0.950 . S
C412 C410 1.391 . S
C412 C413 1.400 . S
C413 C407 1.491 . S
C413 C412 1.400 . S
C413 C414 1.398 . S
C414 H402 0.950 . S
C414 C413 1.398 . S
C414 C415 1.391 1_554 S
C415 H403 0.950 . S
C415 C411 1.393 . S
C415 C414 1.391 1_556 S
H416 C424 0.950 . S
H417 C429 0.950 . S
H418 C426 0.950 . S
H419 C428 0.950 . S
H420 C430 0.950 . S
H421 C432 0.950 . S
H422 C434 0.950 . S
H423 C435 0.974 . S
C424 H416 0.950 . S
C424 C425 1.386 . S
C424 C426 1.391 . S
C425 C424 1.386 . S
C425 C429 1.393 1_455 S
C426 H418 0.950 . S
C426 C424 1.391 . S
C426 C427 1.422 . S
C427 C426 1.422 . S
C427 C428 1.381 1_455 S
C427 C433 1.486 1_455 S
C428 H419 0.950 . S
C428 C427 1.381 1_655 S
C428 C429 1.391 . S
C429 H417 0.950 . S
C429 C425 1.393 1_655 S
C429 C428 1.391 . S
C430 H420 0.950 . S
C430 C431 1.386 . S
C430 C432 1.391 . S
C431 C430 1.386 . S
C431 C435 1.362 1_655 S
C432 H421 0.950 . S
C432 C430 1.391 . S
C432 C433 1.400 . S
C433 C427 1.486 1_655 S
C433 C432 1.400 . S
C433 C434 1.398 1_655 S
C434 H422 0.950 . S
C434 C433 1.398 1_455 S
C434 C435 1.399 . S
C435 H423 0.974 . S
C435 C431 1.362 1_455 S
C435 C434 1.399 . S
H436 C444 0.950 . S
H437 C449 0.950 . S
H438 C446 0.950 . S
H439 C448 0.950 . S
H440 C450 0.950 . S
H441 C452 0.950 . S
H442 C454 0.950 . S
H443 C455 0.950 . S
C444 H436 0.950 . S
C444 C445 1.384 1_545 S
C444 C446 1.391 . S
C445 C444 1.384 1_565 S
C445 C449 1.395 . S
C446 H438 0.950 . S
C446 C444 1.391 . S
C446 C447 1.400 1_545 S
C447 C446 1.400 1_565 S
C447 C448 1.398 . S
C447 C453 1.491 . S
C448 H439 0.950 . S
C448 C447 1.398 . S
C448 C449 1.391 . S
C449 H437 0.950 . S
C449 C445 1.395 . S
C449 C448 1.391 . S
C450 H440 0.950 . S
C450 C451 1.386 . S
C450 C452 1.391 . S
C451 C450 1.386 . S
C451 C455 1.393 1_565 S
C452 H441 0.950 . S
C452 C450 1.391 . S
C452 C453 1.400 . S
C453 C447 1.491 . S
C453 C452 1.400 . S
C453 C454 1.398 1_565 S
C454 H442 0.950 . S
C454 C453 1.398 1_545 S
C454 C455 1.391 . S
C455 H443 0.950 . S
C455 C451 1.393 1_545 S
C455 C454 1.391 . S
H456 C464 0.950 . S
H457 C469 0.950 . S
H458 C466 0.950 . S
H459 C468 0.950 . S
H460 C470 0.950 . S
H461 C472 0.950 . S
H462 C474 0.950 . S
H463 C475 0.950 . S
C464 H456 0.950 . S
C464 C465 1.386 . S
C464 C466 1.391 . S
C465 C464 1.386 . S
C465 C469 1.393 . S
C466 H458 0.950 . S
C466 C464 1.391 . S
C466 C467 1.400 . S
C467 C466 1.400 . S
C467 C468 1.398 . S
C467 C473 1.491 . S
C468 H459 0.950 . S
C468 C467 1.398 . S
C468 C469 1.391 . S
C469 H457 0.950 . S
C469 C465 1.393 . S
C469 C468 1.391 . S
C470 H460 0.950 . S
C470 C471 1.386 . S
C470 C472 1.391 . S
C471 C470 1.386 . S
C471 C475 1.393 . S
C472 H461 0.950 . S
C472 C470 1.391 . S
C472 C473 1.400 . S
C473 C467 1.491 . S
C473 C472 1.400 . S
C473 C474 1.398 . S
C474 H462 0.950 . S
C474 C473 1.398 . S
C474 C475 1.391 . S
C475 H463 0.950 . S
C475 C471 1.393 . S
C475 C474 1.391 . S
H476 C484 0.950 . S
H477 C489 0.950 . S
H478 C486 0.950 . S
H479 C488 0.950 . S
H480 C490 0.950 . S
H481 C492 0.950 . S
H482 C494 0.950 . S
H483 C495 0.950 . S
C484 H476 0.950 . S
C484 C485 1.386 . S
C484 C486 1.391 . S
C485 C484 1.386 . S
C485 C489 1.393 . S
C486 H478 0.950 . S
C486 C484 1.391 . S
C486 C487 1.400 . S
C487 C486 1.400 . S
C487 C488 1.398 . S
C487 C493 1.491 . S
C488 H479 0.950 . S
C488 C487 1.398 . S
C488 C489 1.391 . S
C489 H477 0.950 . S
C489 C485 1.393 . S
C489 C488 1.391 . S
C490 H480 0.950 . S
C490 C491 1.386 . S
C490 C492 1.391 . S
C491 C490 1.386 . S
C491 C495 1.393 . S
C492 H481 0.950 . S
C492 C490 1.391 . S
C492 C493 1.400 . S
C493 C487 1.491 . S
C493 C492 1.400 . S
C493 C494 1.398 . S
C494 H482 0.950 . S
C494 C493 1.398 . S
C494 C495 1.391 . S
C495 H483 0.950 . S
C495 C491 1.393 . S
C495 C494 1.391 . S
H496 C504 0.950 . S
H497 C509 0.950 . S
H498 C506 0.950 . S
H499 C508 0.950 . S
H500 C510 0.950 . S
H501 C512 0.922 1_655 S
H502 C514 0.950 . S
H503 C515 0.950 . S
C504 H496 0.950 . S
C504 C505 1.386 1_455 S
C504 C506 1.391 . S
C505 C504 1.386 1_655 S
C505 C509 1.393 . S
C506 H498 0.950 . S
C506 C504 1.391 . S
C506 C507 1.400 . S
C507 C506 1.400 . S
C507 C508 1.398 1_455 S
C507 C513 1.491 . S
C508 H499 0.950 . S
C508 C507 1.398 1_655 S
C508 C509 1.391 . S
C509 H497 0.950 . S
C509 C505 1.393 . S
C509 C508 1.391 . S
C510 H500 0.950 . S
C510 C511 1.386 . S
C510 C512 1.400 . S
C511 C510 1.386 . S
C511 C515 1.393 . S
C512 H501 0.922 1_455 S
C512 C510 1.400 . S
C512 C513 1.421 . S
C513 C507 1.491 . S
C513 C512 1.421 . S
C513 C514 1.398 . S
C514 H502 0.950 . S
C514 C513 1.398 . S
C514 C515 1.391 . S
C515 H503 0.950 . S
C515 C511 1.393 . S
C515 C514 1.391 . S
H516 C524 0.950 . S
H517 C529 0.950 . S
H518 C526 0.950 . S
H519 C528 0.950 . S
H520 C530 0.950 . S
H521 C532 0.950 . S
H522 C534 0.950 1_565 S
H523 C535 0.950 1_556 S
C524 H516 0.950 . S
C524 C525 1.398 . S
C524 C526 1.391 . S
C525 C524 1.398 . S
C525 C529 1.378 1_565 S
C526 H518 0.950 . S
C526 C524 1.391 . S
C526 C527 1.400 1_565 S
C527 C526 1.400 1_545 S
C527 C528 1.398 . S
C527 C533 1.491 . S
C528 H519 0.950 . S
C528 C527 1.398 . S
C528 C529 1.391 . S
C529 H517 0.950 . S
C529 C525 1.378 1_545 S
C529 C528 1.391 . S
C530 H520 0.950 . S
C530 C531 1.386 . S
C530 C532 1.391 . S
C531 C530 1.386 . S
C531 C535 1.393 . S
C532 H521 0.950 . S
C532 C530 1.391 . S
C532 C533 1.400 . S
C533 C527 1.491 . S
C533 C532 1.400 . S
C533 C534 1.398 . S
C534 H522 0.950 1_545 S
C534 C533 1.398 . S
C534 C535 1.391 . S
C535 H523 0.950 1_554 S
C535 C531 1.393 . S
C535 C534 1.391 . S
H536 C544 0.950 . S
H537 C549 0.950 . S
H538 C546 0.950 1_556 S
H539 C548 0.950 . S
H540 C550 0.950 1_554 S
H541 C552 0.950 . S
H542 C554 0.950 . S
H543 C555 0.950 . S
C544 H536 0.950 . S
C544 C545 1.386 . S
C544 C546 1.391 . S
C545 C544 1.386 . S
C545 C549 1.393 . S
C546 H538 0.950 1_554 S
C546 C544 1.391 . S
C546 C547 1.400 . S
C547 C546 1.400 . S
C547 C548 1.398 . S
C547 C553 1.491 . S
C548 H539 0.950 . S
C548 C547 1.398 . S
C548 C549 1.391 . S
C549 H537 0.950 . S
C549 C545 1.393 . S
C549 C548 1.391 . S
C550 H540 0.950 1_556 S
C550 C551 1.386 . S
C550 C552 1.391 1_556 S
C551 C550 1.386 . S
C551 C555 1.393 . S
C552 H541 0.950 . S
C552 C550 1.391 1_554 S
C552 C553 1.400 . S
C553 C547 1.491 . S
C553 C552 1.400 . S
C553 C554 1.398 1_554 S
C554 H542 0.950 . S
C554 C553 1.398 1_556 S
C554 C555 1.391 . S
C555 H543 0.950 . S
C555 C551 1.393 . S
C555 C554 1.391 . S
H556 C564 0.950 . S
H557 C569 0.950 . S
H558 C566 0.950 . S
H559 C568 0.950 . S
H560 C570 0.950 . S
H561 C572 0.950 . S
H562 C574 0.950 . S
H563 C575 0.950 . S
C564 H556 0.950 . S
C564 C565 1.386 . S
C564 C566 1.391 . S
C565 C564 1.386 . S
C565 C569 1.393 . S
C566 H558 0.950 . S
C566 C564 1.391 . S
C566 C567 1.400 . S
C567 C566 1.400 . S
C567 C568 1.398 . S
C567 C573 1.491 . S
C568 H559 0.950 . S
C568 C567 1.398 . S
C568 C569 1.391 . S
C569 H557 0.950 . S
C569 C565 1.393 . S
C569 C568 1.391 . S
C570 H560 0.950 . S
C570 C571 1.386 . S
C570 C572 1.391 . S
C571 C570 1.386 . S
C571 C575 1.393 . S
C572 H561 0.950 . S
C572 C570 1.391 . S
C572 C573 1.400 . S
C573 C567 1.491 . S
C573 C572 1.400 . S
C573 C574 1.398 . S
C574 H562 0.950 . S
C574 C573 1.398 . S
C574 C575 1.391 . S
C575 H563 0.950 . S
C575 C571 1.393 . S
C575 C574 1.391 . S
H576 C584 0.950 . S
H577 C589 0.950 1_554 S
H578 C586 0.950 . S
H579 C588 0.950 . S
H580 C590 0.950 . S
H581 C592 0.950 . S
H582 C594 0.950 . S
H583 C595 0.950 . S
C584 H576 0.950 . S
C584 C585 1.386 . S
C584 C586 1.391 . S
C585 C584 1.386 . S
C585 C589 1.393 1_455 S
C586 H578 0.950 . S
C586 C584 1.391 . S
C586 C587 1.400 . S
C587 C586 1.400 . S
C587 C588 1.398 1_455 S
C587 C593 1.491 . S
C588 H579 0.950 . S
C588 C587 1.398 1_655 S
C588 C589 1.391 . S
C589 H577 0.950 1_556 S
C589 C585 1.393 1_655 S
C589 C588 1.391 . S
C590 H580 0.950 . S
C590 C591 1.386 1_655 S
C590 C592 1.391 . S
C591 C590 1.386 1_455 S
C591 C595 1.393 . S
C592 H581 0.950 . S
C592 C590 1.391 . S
C592 C593 1.400 1_655 S
C593 C587 1.491 . S
C593 C592 1.400 1_455 S
C593 C594 1.398 . S
C594 H582 0.950 . S
C594 C593 1.398 . S
C594 C595 1.391 . S
C595 H583 0.950 . S
C595 C591 1.393 . S
C595 C594 1.391 . S
H596 C604 0.950 . S
H597 C609 0.950 . S
H598 C606 0.950 . S
H599 C608 0.950 . S
H600 C610 0.956 . S
H601 C612 0.950 . S
H602 C614 0.950 . S
H603 C615 0.950 . S
C604 H596 0.950 . S
C604 C605 1.386 1_556 S
C604 C606 1.391 . S
C605 C604 1.386 1_554 S
C605 C609 1.393 1_545 S
C606 H598 0.950 . S
C606 C604 1.391 . S
C606 C607 1.400 1_556 S
C607 C606 1.400 1_554 S
C607 C608 1.398 1_545 S
C607 C613 1.491 1_554 S
C608 H599 0.950 . S
C608 C607 1.398 1_565 S
C608 C609 1.391 . S
C609 H597 0.950 . S
C609 C605 1.393 1_565 S
C609 C608 1.391 . S
C610 H600 0.956 . S
C610 C611 1.377 1_564 S
C610 C612 1.394 . S
C611 C610 1.377 1_546 S
C611 C615 1.393 . S
C612 H601 0.950 . S
C612 C610 1.394 . S
C612 C613 1.400 1_564 S
C613 C607 1.491 1_556 S
C613 C612 1.400 1_546 S
C613 C614 1.398 . S
C614 H602 0.950 . S
C614 C613 1.398 . S
C614 C615 1.391 . S
C615 H603 0.950 . S
C615 C611 1.393 . S
C615 C614 1.391 . S
H616 C624 0.950 . S
H617 C629 0.950 . S
H618 C626 0.950 . S
H619 C628 0.950 . S
H620 C630 0.950 . S
H621 C632 0.946 1_556 S
H622 C634 0.950 . S
H623 C635 0.950 . S
C624 H616 0.950 . S
C624 C625 1.386 . S
C624 C626 1.391 . S
C625 C624 1.386 . S
C625 C629 1.393 . S
C626 H618 0.950 . S
C626 C624 1.391 . S
C626 C627 1.400 . S
C627 C626 1.400 . S
C627 C628 1.398 . S
C627 C633 1.491 . S
C628 H619 0.950 . S
C628 C627 1.398 . S
C628 C629 1.391 . S
C629 H617 0.950 . S
C629 C625 1.393 . S
C629 C628 1.391 . S
C630 H620 0.950 . S
C630 C631 1.386 . S
C630 C632 1.386 1_556 S
C631 C630 1.386 . S
C631 C635 1.393 1_556 S
C632 H621 0.946 1_554 S
C632 C630 1.386 1_554 S
C632 C633 1.409 . S
C633 C627 1.491 . S
C633 C632 1.409 . S
C633 C634 1.398 . S
C634 H622 0.950 . S
C634 C633 1.398 . S
C634 C635 1.391 . S
C635 H623 0.950 . S
C635 C631 1.393 1_554 S
C635 C634 1.391 . S
H636 C644 0.950 . S
H637 C649 0.950 . S
H638 C646 0.950 . S
H639 C648 0.950 . S
H640 C650 0.950 . S
H641 C652 0.950 . S
H642 C654 0.950 . S
H643 C655 0.950 . S
C644 H636 0.950 . S
C644 C645 1.386 . S
C644 C646 1.391 . S
C645 C644 1.386 . S
C645 C649 1.393 . S
C646 H638 0.950 . S
C646 C644 1.391 . S
C646 C647 1.400 . S
C647 C646 1.400 . S
C647 C648 1.398 . S
C647 C653 1.491 . S
C648 H639 0.950 . S
C648 C647 1.398 . S
C648 C649 1.391 . S
C649 H637 0.950 . S
C649 C645 1.393 . S
C649 C648 1.391 . S
C650 H640 0.950 . S
C650 C651 1.386 . S
C650 C652 1.391 . S
C651 C650 1.386 . S
C651 C655 1.393 . S
C652 H641 0.950 . S
C652 C650 1.391 . S
C652 C653 1.400 . S
C653 C647 1.491 . S
C653 C652 1.400 . S
C653 C654 1.398 . S
C654 H642 0.950 . S
C654 C653 1.398 . S
C654 C655 1.391 . S
C655 H643 0.950 . S
C655 C651 1.393 . S
C655 C654 1.391 . S
H656 C664 0.950 . S
H657 C669 0.950 . S
H658 C666 0.950 . S
H659 C668 0.950 . S
H660 C670 0.950 . S
H661 C672 0.950 . S
H662 C674 0.950 . S
H663 C675 0.950 . S
C664 H656 0.950 . S
C664 C665 1.386 . S
C664 C666 1.391 . S
C665 C664 1.386 . S
C665 C669 1.393 . S
C666 H658 0.950 . S
C666 C664 1.391 . S
C666 C667 1.400 . S
C667 C666 1.400 . S
C667 C668 1.398 . S
C667 C673 1.491 . S
C668 H659 0.950 . S
C668 C667 1.398 . S
C668 C669 1.391 . S
C669 H657 0.950 . S
C669 C665 1.393 . S
C669 C668 1.391 . S
C670 H660 0.950 . S
C670 C671 1.386 . S
C670 C672 1.391 . S
C671 C670 1.386 . S
C671 C675 1.393 . S
C672 H661 0.950 . S
C672 C670 1.391 . S
C672 C673 1.400 . S
C673 C667 1.491 . S
C673 C672 1.400 . S
C673 C674 1.398 . S
C674 H662 0.950 . S
C674 C673 1.398 . S
C674 C675 1.391 . S
C675 H663 0.950 . S
C675 C671 1.393 . S
C675 C674 1.391 . S
H676 C684 0.950 . S
H677 C689 0.950 . S
H678 C686 0.950 . S
H679 C688 0.950 . S
H680 C690 0.950 . S
H681 C692 0.950 . S
H682 C694 0.950 . S
H683 C695 0.950 . S
C684 H676 0.950 . S
C684 C685 1.380 1_545 S
C684 C686 1.391 . S
C685 C684 1.380 1_565 S
C685 C689 1.401 . S
C686 H678 0.950 . S
C686 C684 1.391 . S
C686 C687 1.400 1_545 S
C687 C686 1.400 1_565 S
C687 C688 1.398 . S
C687 C693 1.491 . S
C688 H679 0.950 . S
C688 C687 1.398 . S
C688 C689 1.391 . S
C689 H677 0.950 . S
C689 C685 1.401 . S
C689 C688 1.391 . S
C690 H680 0.950 . S
C690 C691 1.386 . S
C690 C692 1.391 . S
C691 C690 1.386 . S
C691 C695 1.393 1_565 S
C692 H681 0.950 . S
C692 C690 1.391 . S
C692 C693 1.400 . S
C693 C687 1.491 . S
C693 C692 1.400 . S
C693 C694 1.398 1_565 S
C694 H682 0.950 . S
C694 C693 1.398 1_545 S
C694 C695 1.391 . S
C695 H683 0.950 . S
C695 C691 1.393 1_545 S
C695 C694 1.391 . S
H696 C704 0.950 . S
H697 C709 0.950 . S
H698 C706 0.950 . S
H699 C708 0.950 . S
H700 C710 0.950 . S
H701 C712 0.950 . S
H702 C714 0.950 . S
H703 C715 0.950 . S
C704 H696 0.950 . S
C704 C705 1.386 . S
C704 C706 1.391 . S
C705 C704 1.386 . S
C705 C709 1.393 . S
C706 H698 0.950 . S
C706 C704 1.391 . S
C706 C707 1.400 . S
C707 C706 1.400 . S
C707 C708 1.398 . S
C707 C713 1.491 . S
C708 H699 0.950 . S
C708 C707 1.398 . S
C708 C709 1.391 . S
C709 H697 0.950 . S
C709 C705 1.393 . S
C709 C708 1.391 . S
C710 H700 0.950 . S
C710 C711 1.386 . S
C710 C712 1.391 . S
C711 C710 1.386 . S
C711 C715 1.393 . S
C712 H701 0.950 . S
C712 C710 1.391 . S
C712 C713 1.400 . S
C713 C707 1.491 . S
C713 C712 1.400 . S
C713 C714 1.398 . S
C714 H702 0.950 . S
C714 C713 1.398 . S
C714 C715 1.391 . S
C715 H703 0.950 . S
C715 C711 1.393 . S
C715 C714 1.391 . S
H716 C724 0.950 . S
H717 C729 0.950 . S
H718 C726 0.950 . S
H719 C728 0.950 . S
H720 C730 0.950 . S
H721 C732 0.950 . S
H722 C734 0.950 . S
H723 C735 0.950 . S
C724 H716 0.950 . S
C724 C725 1.386 . S
C724 C726 1.391 . S
C725 C724 1.386 . S
C725 C729 1.393 . S
C726 H718 0.950 . S
C726 C724 1.391 . S
C726 C727 1.400 . S
C727 C726 1.400 . S
C727 C728 1.398 . S
C727 C733 1.491 . S
C728 H719 0.950 . S
C728 C727 1.398 . S
C728 C729 1.391 . S
C729 H717 0.950 . S
C729 C725 1.393 . S
C729 C728 1.391 . S
C730 H720 0.950 . S
C730 C731 1.386 . S
C730 C732 1.391 . S
C731 C730 1.386 . S
C731 C735 1.393 . S
C732 H721 0.950 . S
C732 C730 1.391 . S
C732 C733 1.400 . S
C733 C727 1.491 . S
C733 C732 1.400 . S
C733 C734 1.398 . S
C734 H722 0.950 . S
C734 C733 1.398 . S
C734 C735 1.391 . S
C735 H723 0.950 . S
C735 C731 1.393 . S
C735 C734 1.391 . S
C265 C76 1.982 . S
C271 C98 2.051 1_545 S
C291 C138 2.060 . S
C285 C88 1.995 . S
C311 C202 1.889 . S
C305 C52 1.750 . S
C331 C218 1.637 . S
C325 C64 1.456 . S
C351 C119 2.054 1_565 S
C345 C28 1.966 1_545 S
C365 C40 2.010 . S
C371 C159 2.062 . S
C385 C4 1.755 . S
C391 C193 1.886 . S
C405 C16 1.477 . S
C411 C239 1.651 1_655 S
C431 C113 0.400 . S
C425 C69 0.414 . S
C451 C153 0.711 . S
C445 C81 0.732 1_565 S
C471 C189 0.735 . S
C465 C93 0.734 . S
C485 C57 0.585 . S
C491 C233 0.637 . S
C505 C21 0.424 . S
C511 C122 0.405 . S
C531 C162 0.721 . S
C525 C33 0.701 1_565 S
C551 C200 0.733 . S
C545 C45 0.735 . S
C565 C9 0.558 . S
C571 C242 0.570 . S
C585 C66 1.806 1_556 S
C591 C120 2.017 . S
C605 C78 1.872 . S
C611 C160 2.036 . S
C631 C178 1.613 . S
C625 C90 1.606 . S
C651 C240 2.419 . S
C645 C54 2.176 . S
C665 C18 1.817 . S
C671 C109 2.032 . S
C691 C149 2.045 . S
C685 C30 1.871 1_565 S
C711 C199 1.611 . S
C705 C42 1.588 . S
C725 C6 2.164 . S
C731 C229 2.423 . S
