# Generated by pormake.
# Topology zzz, (3,6)-cn, num edge types: 1
# Building blocks:
#     Node 0, Type 0, BuildingBlock: BELTOD_clean_linker_0, # of connection points: 3
#     Node 1, Type 0, BuildingBlock: BELTOD_clean_linker_0, # of connection points: 3
#     Node 2, Type 0, BuildingBlock: BELTOD_clean_linker_0, # of connection points: 3
#     Node 3, Type 0, BuildingBlock: BELTOD_clean_linker_0, # of connection points: 3
#     Node 4, Type 0, BuildingBlock: BELTOD_clean_linker_0, # of connection points: 3
#     Node 5, Type 0, BuildingBlock: BELTOD_clean_linker_0, # of connection points: 3
#     Node 6, Type 0, BuildingBlock: BELTOD_clean_linker_0, # of connection points: 3
#     Node 7, Type 0, BuildingBlock: BELTOD_clean_linker_0, # of connection points: 3
#     Node 8, Type 1, BuildingBlock: MIFKUJ_clean_sbu_0, # of connection points: 6
#     Node 9, Type 1, BuildingBlock: MIFKUJ_clean_sbu_0, # of connection points: 6
#     Node 10, Type 1, BuildingBlock: MIFKUJ_clean_sbu_0, # of connection points: 6
#     Node 11, Type 1, BuildingBlock: MIFKUJ_clean_sbu_0, # of connection points: 6
#     Edge 12, Type (0, 1), BuildingBlock: EZIPEK_clean_linker_0, # of connection points: 2
#     Edge 13, Type (0, 1), BuildingBlock: EZIPEK_clean_linker_0, # of connection points: 2
#     Edge 14, Type (0, 1), BuildingBlock: EZIPEK_clean_linker_0, # of connection points: 2
#     Edge 15, Type (0, 1), BuildingBlock: EZIPEK_clean_linker_0, # of connection points: 2
#     Edge 16, Type (0, 1), BuildingBlock: EZIPEK_clean_linker_0, # of connection points: 2
#     Edge 17, Type (0, 1), BuildingBlock: EZIPEK_clean_linker_0, # of connection points: 2
#     Edge 18, Type (0, 1), BuildingBlock: EZIPEK_clean_linker_0, # of connection points: 2
#     Edge 19, Type (0, 1), BuildingBlock: EZIPEK_clean_linker_0, # of connection points: 2
#     Edge 20, Type (0, 1), BuildingBlock: EZIPEK_clean_linker_0, # of connection points: 2
#     Edge 21, Type (0, 1), BuildingBlock: EZIPEK_clean_linker_0, # of connection points: 2
#     Edge 22, Type (0, 1), BuildingBlock: EZIPEK_clean_linker_0, # of connection points: 2
#     Edge 23, Type (0, 1), BuildingBlock: EZIPEK_clean_linker_0, # of connection points: 2
#     Edge 24, Type (0, 1), BuildingBlock: EZIPEK_clean_linker_0, # of connection points: 2
#     Edge 25, Type (0, 1), BuildingBlock: EZIPEK_clean_linker_0, # of connection points: 2
#     Edge 26, Type (0, 1), BuildingBlock: EZIPEK_clean_linker_0, # of connection points: 2
#     Edge 27, Type (0, 1), BuildingBlock: EZIPEK_clean_linker_0, # of connection points: 2
#     Edge 28, Type (0, 1), BuildingBlock: EZIPEK_clean_linker_0, # of connection points: 2
#     Edge 29, Type (0, 1), BuildingBlock: EZIPEK_clean_linker_0, # of connection points: 2
#     Edge 30, Type (0, 1), BuildingBlock: EZIPEK_clean_linker_0, # of connection points: 2
#     Edge 31, Type (0, 1), BuildingBlock: EZIPEK_clean_linker_0, # of connection points: 2
#     Edge 32, Type (0, 1), BuildingBlock: EZIPEK_clean_linker_0, # of connection points: 2
#     Edge 33, Type (0, 1), BuildingBlock: EZIPEK_clean_linker_0, # of connection points: 2
#     Edge 34, Type (0, 1), BuildingBlock: EZIPEK_clean_linker_0, # of connection points: 2
#     Edge 35, Type (0, 1), BuildingBlock: EZIPEK_clean_linker_0, # of connection points: 2
# Relax obj value: 0.301
# Max RMSD: 0.191
# Mean RMSD: 0.180
data_MOF--net-zzz--node1-MIFKUJ_clean_sbu_0--node2-BELTOD_clean_linker_0--edge1-EZIPEK_clean_linker_0
_symmetry_space_group_name_H-M    P1
_symmetry_Int_Tables_number       1
_symmetry_cell_setting            triclinic
loop_
_symmetry_equiv_pos_as_xyz
'x, y, z'
_cell_length_a     40.386839
_cell_length_b     41.455185
_cell_length_c     15.298529
_cell_angle_alpha  89.774673
_cell_angle_beta   89.981252
_cell_angle_gamma 91.962879
loop_
_atom_site_label
_atom_site_type_symbol
_atom_site_fract_x
_atom_site_fract_y
_atom_site_fract_z
_atom_type_partial_charge
P0 P 0.71337 0.52656 0.10335 0.0
H1 H 0.72188 0.50674 0.28425 0.0
H2 H 0.77088 0.51774 0.37344 0.0
H3 H 0.79556 0.60162 0.21613 0.0
H4 H 0.74629 0.59065 0.12614 0.0
H5 H 0.66369 0.48697 0.0195 0.0
H6 H 0.61941 0.49955 0.91991 0.0
H7 H 0.63324 0.60088 0.97747 0.0
H8 H 0.67847 0.58808 0.0799 0.0
H9 H 0.77162 0.49147 0.05898 0.0
H10 H 0.72307 0.57633 0.96596 0.0
O11 O 0.71138 0.48716 0.12706 0.0
H12 H 0.8162 0.50176 0.95374 0.0
H13 H 0.76813 0.58673 0.86146 0.0
C14 C 0.73112 0.5471 0.19631 0.0
C15 C 0.73669 0.52851 0.27129 0.0
C16 C 0.76488 0.53459 0.32194 0.0
C17 C 0.78729 0.55975 0.29904 0.0
C18 C 0.7787 0.58176 0.23363 0.0
C19 C 0.75039 0.57558 0.18276 0.0
C20 C 0.67406 0.53654 0.05834 0.0
C21 C 0.6566 0.51185 0.01408 0.0
C22 C 0.63152 0.51902 0.95621 0.0
C23 C 0.62347 0.55109 0.94079 0.0
C24 C 0.63937 0.57598 0.98868 0.0
C25 C 0.66474 0.56866 0.04761 0.0
C26 C 0.74343 0.53238 0.01827 0.0
C27 C 0.77012 0.51185 0.01485 0.0
C28 C 0.79563 0.51787 0.95564 0.0
C29 C 0.79497 0.54475 0.90005 0.0
C30 C 0.7686 0.56569 0.90366 0.0
C31 C 0.74281 0.55947 0.96265 0.0
P32 P 0.04217 0.70984 0.11837 0.0
H33 H 0.06109 0.72538 0.2974 0.0
H34 H 0.04432 0.77176 0.38217 0.0
H35 H 0.95841 0.78074 0.21806 0.0
H36 H 0.975 0.73397 0.13313 0.0
H37 H 0.07537 0.66943 -0.00042 0.0
H38 H 0.05629 0.62553 0.90516 0.0
H39 H 0.96028 0.62483 0.02888 0.0
H40 H 0.97944 0.66999 0.12378 0.0
H41 H 0.07786 0.77084 0.089 0.0
H42 H -0.00233 0.71584 0.96753 0.0
O43 O 0.08196 0.70719 0.14616 0.0
H44 H 0.06926 0.81517 0.98576 0.0
H45 H 0.9894 0.7601 0.86442 0.0
C46 C 0.01967 0.72659 0.20775 0.0
C47 C 0.03763 0.736 0.28236 0.0
C48 C 0.02822 0.76268 0.33057 0.0
C49 C 0.00063 0.77998 0.3048 0.0
C50 C 0.97988 0.76768 0.23844 0.0
C51 C 0.98926 0.7408 0.19047 0.0
C52 C 0.02906 0.67234 0.06994 0.0
C53 C 0.05049 0.65934 0.00851 0.0
C54 C 0.03952 0.63461 0.95389 0.0
C55 C 0.00692 0.62231 0.95987 0.0
C56 C 0.98553 0.63431 0.02353 0.0
C57 C 0.99653 0.65964 0.07808 0.0
C58 C 0.03922 0.7397 0.03409 0.0
C59 C 0.05906 0.76796 0.03893 0.0
C60 C 0.054 0.79324 0.98085 0.0
C61 C 0.02889 0.79051 0.91799 0.0
C62 C 0.00902 0.76227 0.91254 0.0
C63 C 0.01405 0.737 0.97081 0.0
P64 P 0.77758 0.95687 0.11592 0.0
H65 H 0.76751 0.98499 0.28785 0.0
H66 H 0.718 0.97682 0.3772 0.0
H67 H 0.69739 0.88562 0.25107 0.0
H68 H 0.74814 0.89291 0.1646 0.0
H69 H 0.78948 0.95302 0.92963 0.0
H70 H 0.83835 0.94834 0.84516 0.0
H71 H 0.89451 0.92899 0.07797 0.0
H72 H 0.84333 0.93217 0.1664 0.0
H73 H 0.72835 0.00218 0.05677 0.0
H74 H 0.7514 0.90237 0.01454 0.0
O75 O 0.78634 -0.00386 0.13034 0.0
H76 H 0.68389 -0.00298 0.94843 0.0
H77 H 0.70661 0.89731 0.907 0.0
C78 C 0.76094 0.94021 0.21648 0.0
C79 C 0.7537 0.96223 0.28275 0.0
C80 C 0.7251 0.95778 0.3334 0.0
C81 C 0.70353 0.93113 0.31863 0.0
C82 C 0.71353 0.90657 0.26258 0.0
C83 C 0.74267 0.91075 0.21338 0.0
C84 C 0.81195 0.94163 0.05535 0.0
C85 C 0.81123 0.94538 0.96397 0.0
C86 C 0.83961 0.94307 0.91459 0.0
C87 C 0.87001 0.93849 0.95513 0.0
C88 C 0.87102 0.93231 0.04565 0.0
C89 C 0.84193 0.93415 0.09593 0.0
C90 C 0.74301 0.9527 0.04339 0.0
C91 C 0.72376 0.97922 0.02479 0.0
C92 C 0.69867 0.97634 0.963 0.0
C93 C 0.69268 0.94695 0.92005 0.0
C94 C 0.71134 0.92014 0.93973 0.0
C95 C 0.73638 0.92299 0.00171 0.0
P96 P 0.41586 0.77802 0.11031 0.0
H97 H 0.39657 0.75256 0.2815 0.0
H98 H 0.42272 0.71115 0.36942 0.0
H99 H 0.51176 0.72258 0.21545 0.0
H100 H 0.48607 0.76423 0.12834 0.0
H101 H 0.38675 0.81951 0.98473 0.0
H102 H 0.41067 0.86333 0.89548 0.0
H103 H 0.49937 0.86424 0.05249 0.0
H104 H 0.47525 0.82036 0.14319 0.0
H105 H 0.38013 0.71918 0.05474 0.0
H106 H 0.46748 0.77515 0.97685 0.0
O107 O 0.37567 0.77849 0.13544 0.0
H108 H 0.3955 0.67628 0.95374 0.0
H109 H 0.48325 0.73191 0.87921 0.0
C110 C 0.43928 0.76147 0.19818 0.0
C111 C 0.42229 0.7475 0.26944 0.0
C112 C 0.43713 0.7238 0.31943 0.0
C113 C 0.46891 0.71385 0.2978 0.0
C114 C 0.48725 0.73024 0.23292 0.0
C115 C 0.47252 0.75411 0.18351 0.0
C116 C 0.42922 0.81677 0.07028 0.0
C117 C 0.41086 0.82983 0.00206 0.0
C118 C 0.42462 0.85442 0.95053 0.0
C119 C 0.45686 0.86624 0.96692 0.0
C120 C 0.47454 0.8549 0.03892 0.0
C121 C 0.4607 0.83007 0.09065 0.0
C122 C 0.42228 0.75054 0.0222 0.0
C123 C 0.40199 0.72265 0.01436 0.0
C124 C 0.41083 0.6982 0.95742 0.0
C125 C 0.44036 0.70124 0.90942 0.0
C126 C 0.46021 0.72947 0.91535 0.0
C127 C 0.45105 0.75411 0.97088 0.0
P128 P 0.27395 0.37561 0.14698 0.0
H129 H 0.24714 0.34989 0.98263 0.0
H130 H 0.2049 0.37075 0.88459 0.0
H131 H 0.21185 0.46265 0.0152 0.0
H132 H 0.25352 0.4417 0.11453 0.0
H133 H 0.3229 0.3489 0.26151 0.0
H134 H 0.3687 0.37413 0.34428 0.0
H135 H 0.35745 0.4627 0.20058 0.0
H136 H 0.31185 0.43735 0.11654 0.0
H137 H 0.20589 0.35308 0.17139 0.0
H138 H 0.27616 0.41672 0.30414 0.0
O139 O 0.27583 0.33592 0.13094 0.0
H140 H 0.1605 0.37838 0.24882 0.0
H141 H 0.23098 0.44131 0.38184 0.0
C142 C 0.25445 0.39446 0.05456 0.0
C143 C 0.24068 0.37492 0.98821 0.0
C144 C 0.2162 0.38665 0.93295 0.0
C145 C 0.20513 0.41814 0.94315 0.0
C146 C 0.22015 0.43831 0.00617 0.0
C147 C 0.2445 0.42652 0.06166 0.0
C148 C 0.314 0.39112 0.18239 0.0
C149 C 0.33107 0.37334 0.24516 0.0
C150 C 0.35702 0.38776 0.29291 0.0
C151 C 0.36621 0.42025 0.27876 0.0
C152 C 0.35066 0.43753 0.21211 0.0
C153 C 0.32465 0.42303 0.16413 0.0
C154 C 0.24445 0.38292 0.2317 0.0
C155 C 0.21173 0.37128 0.22012 0.0
C156 C 0.18585 0.38589 0.26345 0.0
C157 C 0.19265 0.41194 0.31943 0.0
C158 C 0.22549 0.42133 0.33813 0.0
C159 C 0.2513 0.40701 0.29405 0.0
P160 P 0.05411 0.27691 0.10728 0.0
H161 H 0.08229 0.26202 0.93699 0.0
H162 H 0.06614 0.21895 0.83514 0.0
H163 H 0.9716 0.2073 0.96426 0.0
H164 H 0.98762 0.25053 0.06637 0.0
H165 H 0.08675 0.32425 0.21606 0.0
H166 H 0.06533 0.36888 0.29968 0.0
H167 H 0.97258 0.35978 0.16086 0.0
H168 H 0.99409 0.31436 0.0767 0.0
H169 H 0.07404 0.21234 0.1484 0.0
H170 H 0.00435 0.27976 0.24924 0.0
O171 O 0.09535 0.27703 0.09962 0.0
H172 H 0.04902 0.16996 0.24147 0.0
H173 H 0.97961 0.23734 0.34199 0.0
C174 C 0.03636 0.25923 0.01002 0.0
C175 C 0.05753 0.25129 0.94131 0.0
C176 C 0.04847 0.22652 0.88358 0.0
C177 C 0.01806 0.20961 0.89375 0.0
C178 C 0.99528 0.22003 0.95597 0.0
C179 C 0.00434 0.24491 0.01363 0.0
C180 C 0.04218 0.31636 0.13931 0.0
C181 C 0.06229 0.33258 0.20071 0.0
C182 C 0.04999 0.35779 0.24918 0.0
C183 C 0.01738 0.36714 0.23691 0.0
C184 C -0.00215 0.35265 0.17092 0.0
C185 C 0.01021 0.32709 0.12244 0.0
C186 C 0.04149 0.24931 0.19254 0.0
C187 C 0.05415 0.21831 0.19234 0.0
C188 C 0.03973 0.19415 0.24464 0.0
C189 C 0.01239 0.20073 0.29727 0.0
C190 C 0.00064 0.23204 0.30114 0.0
C191 C 0.01502 0.25623 0.24849 0.0
P192 P 0.22225 0.11441 0.1301 0.0
H193 H 0.24661 0.13927 0.96096 0.0
H194 H 0.28868 0.11881 0.8615 0.0
H195 H 0.28763 0.02889 0.00388 0.0
H196 H 0.24673 0.0495 0.1047 0.0
H197 H 0.16491 0.14414 0.20719 0.0
H198 H 0.11843 0.1208 0.2918 0.0
H199 H 0.14613 0.02538 0.21591 0.0
H200 H 0.19132 0.04866 0.1275 0.0
H201 H 0.29208 0.13105 0.15204 0.0
H202 H 0.21539 0.08049 0.30099 0.0
O203 O 0.22048 0.15409 0.11286 0.0
H204 H 0.33421 0.10408 0.2382 0.0
H205 H 0.25747 0.05338 0.38496 0.0
C206 C 0.24249 0.09562 0.03901 0.0
C207 C 0.25442 0.11472 0.96902 0.0
C208 C 0.27872 0.10324 0.91283 0.0
C209 C 0.2912 0.07237 0.92562 0.0
C210 C 0.27804 0.05264 0.99254 0.0
C211 C 0.25405 0.06421 0.049 0.0
C212 C 0.18177 0.09824 0.16066 0.0
C213 C 0.16017 0.11829 0.20533 0.0
C214 C 0.13386 0.10498 0.25452 0.0
C215 C 0.12935 0.07136 0.26167 0.0
C216 C 0.14939 0.05139 0.21184 0.0
C217 C 0.17518 0.06477 0.1609 0.0
C218 C 0.25055 0.10725 0.21823 0.0
C219 C 0.28424 0.11526 0.20528 0.0
C220 C 0.30826 0.09968 0.25365 0.0
C221 C 0.29864 0.0763 0.31583 0.0
C222 C 0.26509 0.07105 0.33591 0.0
C223 C 0.2411 0.08663 0.28764 0.0
P224 P 0.48071 0.21635 0.09401 0.0
H225 H 0.45227 0.21918 0.91911 0.0
H226 H 0.46336 0.26174 0.81076 0.0
H227 H 0.55616 0.28595 0.93783 0.0
H228 H 0.54569 0.24274 0.0442 0.0
H229 H 0.4492 0.17551 0.21944 0.0
H230 H 0.46863 0.13037 0.30348 0.0
H231 H 0.55678 0.128 0.14397 0.0
H232 H 0.53767 0.17523 0.06087 0.0
H233 H 0.46989 0.28412 0.10779 0.0
H234 H 0.52362 0.21316 0.25264 0.0
O235 O 0.43947 0.21751 0.08923 0.0
H236 H 0.48832 0.3255 0.21123 0.0
H237 H 0.54009 0.25439 0.36002 0.0
C238 C 0.49761 0.22889 0.99115 0.0
C239 C 0.47593 0.23226 0.92048 0.0
C240 C 0.48212 0.25663 0.85896 0.0
C241 C 0.50988 0.27748 0.86914 0.0
C242 C 0.53433 0.27027 0.93048 0.0
C243 C 0.52842 0.24549 0.99073 0.0
C244 C 0.49154 0.17781 0.13256 0.0
C245 C 0.47224 0.16485 0.20052 0.0
C246 C 0.48359 0.1395 0.24931 0.0
C247 C 0.51414 0.12622 0.22977 0.0
C248 C 0.53323 0.1383 0.15967 0.0
C249 C 0.52209 0.1646 0.11165 0.0
C250 C 0.49489 0.24562 0.17272 0.0
C251 C 0.4858 0.27751 0.16124 0.0
C252 C 0.49647 0.30104 0.21987 0.0
C253 C 0.51563 0.2928 0.29251 0.0
C254 C 0.52562 0.26105 0.30355 0.0
C255 C 0.51565 0.23753 0.24293 0.0
Zn256 Zn 0.98337 0.04301 0.58686 0.0
Zn257 Zn 0.01428 0.95257 0.5923 0.0
C258 C 0.99014 0.08836 0.71919 0.0
O259 O 0.95833 0.08091 0.71862 0.0
C260 C 0.01508 0.90315 0.46411 0.0
O261 O 0.04656 0.90468 0.48561 0.0
O262 O 0.96048 0.07472 0.51248 0.0
O263 O 0.00918 0.01418 0.5088 0.0
O264 O 0.04948 0.9842 0.54769 0.0
C265 C 0.96948 0.07883 0.43378 0.0
O266 O 0.98501 0.05587 0.39371 0.0
O267 O 0.00934 0.07274 0.66991 0.0
C268 C 0.01294 0.90032 0.69698 0.0
O269 O 0.98302 0.90165 0.66491 0.0
O270 O 0.03432 0.92229 0.67744 0.0
O271 O 0.97478 0.97076 0.65501 0.0
O272 O 0.95073 0.01753 0.65714 0.0
O273 O 0.99609 0.92421 0.49423 0.0
C274 C 0.04004 0.01028 0.51418 0.0
C275 C 0.95194 0.98852 0.68254 0.0
Zn276 Zn 0.44189 -0.00048 0.6032 0.0
Zn277 Zn 0.53824 0.98493 0.5904 0.0
C278 C 0.39752 0.01259 0.74013 0.0
O279 O 0.39103 0.98169 0.72737 0.0
C280 C 0.58059 0.96352 0.46693 0.0
O281 O 0.58644 -0.00524 0.47431 0.0
O282 O 0.40038 0.99157 0.53605 0.0
O283 O 0.47375 0.02797 0.52907 0.0
O284 O 0.52828 0.02315 0.52245 0.0
C285 C 0.39852 -0.00602 0.45399 0.0
O286 O 0.42406 0.98671 0.40572 0.0
O287 O 0.42219 0.02606 0.70087 0.0
C288 C 0.58346 0.96554 0.69673 0.0
O289 O 0.56242 0.94115 0.68434 0.0
O290 O 0.57807 -0.00722 0.6623 0.0
O291 O 0.50544 0.97485 0.68491 0.0
O292 O 0.45627 0.95678 0.64667 0.0
O293 O 0.55557 0.95078 0.50683 0.0
C294 C 0.50224 0.03727 0.50087 0.0
C295 C 0.48337 0.95262 0.68573 0.0
Zn296 Zn 0.51671 0.45306 0.61101 0.0
Zn297 Zn 0.48382 0.54648 0.58484 0.0
C298 C 0.52365 0.40786 0.74327 0.0
O299 O 0.55401 0.42017 0.73922 0.0
C300 C 0.48241 0.59258 0.45644 0.0
O301 O 0.45118 0.58293 0.46293 0.0
O302 O 0.53331 0.42576 0.51604 0.0
O303 O 0.47903 0.47784 0.55698 0.0
O304 O 0.44905 0.51891 0.52293 0.0
C305 C 0.50937 0.40677 0.49506 0.0
O306 O 0.48179 0.40916 0.53966 0.0
O307 O 0.50078 0.42115 0.70094 0.0
C308 C 0.48379 0.59186 0.71658 0.0
O309 O 0.51536 0.59212 0.69631 0.0
O310 O 0.46393 0.57174 0.6803 0.0
O311 O 0.51854 0.51811 0.62719 0.0
O312 O 0.55198 0.48164 0.66845 0.0
O313 O 0.50396 0.57807 0.50019 0.0
C314 C 0.45413 0.48895 0.51765 0.0
C315 C 0.54368 0.51072 0.67074 0.0
Zn316 Zn 0.05509 0.48896 0.61401 0.0
Zn317 Zn 0.95243 0.50724 0.58756 0.0
C318 C 0.09973 0.47257 0.74182 0.0
O319 O 0.10748 0.5029 0.72395 0.0
C320 C 0.90594 0.52512 0.46464 0.0
O321 O 0.90102 0.49371 0.47031 0.0
O322 O 0.09286 0.49559 0.53194 0.0
O323 O 0.01389 0.4687 0.54877 0.0
O324 O 0.95983 0.46678 0.52224 0.0
C325 C 0.08956 0.49054 0.4509 0.0
O326 O 0.06001 0.49109 0.41603 0.0
O327 O 0.07505 0.45895 0.70324 0.0
C328 C 0.91241 0.52898 0.70852 0.0
O329 O 0.92941 0.55423 0.67933 0.0
O330 O 0.92075 0.50104 0.68569 0.0
O331 O 0.99683 0.52103 0.62902 0.0
O332 O 0.04591 0.5297 0.68037 0.0
O333 O 0.93052 0.53831 0.50429 0.0
C334 C 0.98862 0.45636 0.509 0.0
C335 C 0.01566 0.53643 0.68114 0.0
C336 C 0.11134 0.06113 0.41756 0.0
C337 C 0.10556 0.05689 0.32647 0.0
C338 C 0.05863 0.01979 0.35933 0.0
C339 C 0.06229 0.02674 0.44977 0.0
N340 N 0.08871 0.05783 0.56436 0.0
N341 N 0.07004 0.03702 0.21055 0.0
C342 C 0.08761 0.04862 0.4787 0.0
C343 C 0.07809 0.03762 0.29732 0.0
N344 N 0.14031 0.07557 0.44597 0.0
N345 N 0.03756 -0.00477 0.33272 0.0
H346 H 0.08347 0.05013 0.16331 0.0
H347 H 0.04832 0.02603 0.18664 0.0
H348 H 0.02314 0.98119 0.37587 0.0
H349 H 0.03669 0.98677 0.26871 0.0
H350 H 0.14732 0.07631 0.51146 0.0
H351 H 0.15892 0.08412 0.40378 0.0
H352 H 0.10425 0.0765 0.58731 0.0
H353 H 0.07209 0.04863 0.61115 0.0
C354 C 0.50241 0.07164 0.27616 0.0
C355 C 0.52381 0.0988 0.28375 0.0
C356 C 0.53296 0.08567 0.43755 0.0
C357 C 0.50603 0.0626 0.43273 0.0
N358 N 0.45744 0.04517 0.35144 0.0
N359 N 0.56151 0.13178 0.36873 0.0
C360 C 0.48871 0.0583 0.35293 0.0
C361 C 0.54039 0.10545 0.36339 0.0
N362 N 0.49203 0.06158 0.19566 0.0
N363 N 0.55041 0.08945 0.51354 0.0
H364 H 0.56806 0.14555 0.31372 0.0
H365 H 0.57168 0.14041 0.42699 0.0
H366 H 0.54293 0.0784 0.57203 0.0
H367 H 0.57252 0.103 0.51814 0.0
H368 H 0.47709 0.04083 0.18668 0.0
H369 H 0.50125 0.07251 0.13856 0.0
H370 H 0.44331 0.04308 0.29457 0.0
H371 H 0.44368 0.04277 0.40834 0.0
C372 C 0.42354 0.44044 0.32034 0.0
C373 C 0.38934 0.437 0.34055 0.0
C374 C 0.39924 0.46231 0.48344 0.0
C375 C 0.4328 0.4685 0.45995 0.0
N376 N 0.4767 0.46668 0.3532 0.0
N377 N 0.34345 0.4479 0.43583 0.0
C378 C 0.44499 0.4583 0.37773 0.0
C379 C 0.37686 0.44878 0.42074 0.0
N380 N 0.43563 0.42584 0.24756 0.0
N381 N 0.38903 0.4686 0.56671 0.0
H382 H 0.32624 0.43772 0.39229 0.0
H383 H 0.33247 0.45941 0.48819 0.0
H384 H 0.4049 0.47837 0.61429 0.0
H385 H 0.36581 0.46157 0.59107 0.0
H386 H 0.46079 0.42408 0.23442 0.0
H387 H 0.42047 0.41323 0.20324 0.0
H388 H 0.48594 0.46319 0.29055 0.0
H389 H 0.49339 0.47911 0.39395 0.0
C390 C 0.98916 0.37862 0.37809 0.0
C391 C 0.00368 0.39038 0.29913 0.0
C392 C 0.00087 0.44563 0.35229 0.0
C393 C 0.99276 0.43345 0.4367 0.0
N394 N 0.97763 0.38876 0.53123 0.0
N395 N 0.02481 0.43474 0.21087 0.0
C396 C 0.98609 0.40002 0.44985 0.0
C397 C 0.00971 0.42384 0.28583 0.0
N398 N 0.97827 0.34709 0.38395 0.0
N399 N -0.00112 0.47786 0.3347 0.0
H400 H 0.0302 0.41957 0.15886 0.0
H401 H 0.03367 0.45846 0.2026 0.0
H402 H 0.99226 0.49464 0.38171 0.0
H403 H 0.00121 0.48755 0.27197 0.0
H404 H 0.96448 0.33775 0.43627 0.0
H405 H 0.98053 0.33079 0.33275 0.0
H406 H 0.97561 0.36436 0.5474 0.0
H407 H 0.9745 0.40398 0.58455 0.0
C408 C 0.90688 0.92771 0.83029 0.0
C409 C 0.89956 0.94757 0.90217 0.0
C410 C 0.91847 -0.00466 0.8206 0.0
C411 C 0.92834 0.97552 0.75037 0.0
N412 N 0.91995 0.92499 0.67582 0.0
N413 N 0.90668 -0.00127 0.97486 0.0
C414 C 0.91967 0.94202 0.75202 0.0
C415 C 0.90873 0.98076 0.90057 0.0
N416 N 0.90144 0.89514 0.8379 0.0
N417 N 0.914 0.02755 0.80826 0.0
H418 H 0.89936 0.98881 0.03475 0.0
H419 H 0.91584 0.02249 0.97893 0.0
H420 H 0.91247 0.0379 0.74652 0.0
H421 H 0.90502 0.04258 0.85658 0.0
H422 H 0.90883 0.87861 0.79134 0.0
H423 H 0.89225 0.88466 0.8956 0.0
H424 H 0.91116 0.9012 0.67004 0.0
H425 H 0.92603 0.93582 0.61596 0.0
C426 C 0.4635 0.92269 0.91389 0.0
C427 C 0.47167 0.88996 0.90545 0.0
C428 C 0.49152 0.89927 0.75617 0.0
C429 C 0.48183 0.93166 0.76315 0.0
N430 N 0.46567 0.97656 0.8523 0.0
N431 N 0.49973 0.84807 0.82953 0.0
C432 C 0.47023 0.94418 0.84348 0.0
C433 C 0.48801 0.87863 0.83008 0.0
N434 N 0.44773 0.93266 0.98768 0.0
N435 N 0.5029 0.88813 0.678 0.0
H436 H 0.49703 0.83235 0.88265 0.0
H437 H 0.51423 0.83898 0.77977 0.0
H438 H 0.5066 0.90299 0.62339 0.0
H439 H 0.50733 0.86403 0.66537 0.0
H440 H 0.43689 0.95496 0.99373 0.0
H441 H 0.44419 0.91786 0.04247 0.0
H442 H 0.46098 0.9876 0.91178 0.0
H443 H 0.46875 -0.00694 0.80118 0.0
C444 C 0.56598 0.54808 0.88785 0.0
C445 C 0.59933 0.55696 0.87031 0.0
C446 C 0.58995 0.54865 0.71374 0.0
C447 C 0.55934 0.53287 0.73456 0.0
N448 N 0.51725 0.51741 0.84 0.0
N449 N 0.643 0.56967 0.76777 0.0
C450 C 0.54661 0.5333 0.82094 0.0
C451 C 0.61103 0.55937 0.78302 0.0
N452 N 0.55368 0.55256 0.96986 0.0
N453 N 0.59896 0.55238 0.62812 0.0
H454 H 0.65834 0.57866 0.81754 0.0
H455 H 0.65459 0.56868 0.70714 0.0
H456 H 0.58366 0.54445 0.57698 0.0
H457 H 0.62008 0.56532 0.60745 0.0
H458 H 0.52893 0.54837 0.98665 0.0
H459 H 0.56808 0.56335 0.01913 0.0
H460 H 0.50876 0.51323 0.90344 0.0
H461 H 0.50177 0.50731 0.79207 0.0
C462 C 0.00688 0.56509 0.91185 0.0
C463 C 0.9965 0.59691 0.89723 0.0
C464 C 0.9909 0.58659 0.74058 0.0
C465 C 0.00295 0.55532 0.7546 0.0
N466 N 0.01278 0.51129 0.85363 0.0
N467 N 0.9689 0.63475 0.8055 0.0
C468 C 0.00761 0.54337 0.84061 0.0
C469 C 0.98493 0.60645 0.814 0.0
N470 N 0.01787 0.55639 0.99277 0.0
N471 N 0.98691 0.59783 0.6573 0.0
H472 H 0.96455 0.64967 0.85877 0.0
H473 H 0.95727 0.64181 0.74814 0.0
H474 H 0.99026 0.58346 0.60236 0.0
H475 H 0.98164 0.62164 0.64251 0.0
H476 H 0.03007 0.53512 0.00521 0.0
H477 H 0.01602 0.57136 0.04713 0.0
H478 H 0.01378 0.50058 0.91521 0.0
H479 H 0.01298 0.49475 0.80239 0.0
C480 C 0.9683 0.15691 0.30535 0.0
C481 C 0.99558 0.17385 0.34449 0.0
C482 C 0.00459 0.12912 0.44344 0.0
C483 C 0.9769 0.1122 0.40597 0.0
N484 N 0.92828 0.11192 0.31512 0.0
N485 N 0.03243 0.18097 0.46678 0.0
C486 C 0.95726 0.12682 0.34152 0.0
C487 C 0.01115 0.16159 0.41943 0.0
N488 N 0.9541 0.16883 0.23142 0.0
N489 N 0.02587 0.11362 0.49752 0.0
H490 H 0.03756 0.20506 0.44993 0.0
H491 H 0.04203 0.1742 0.52709 0.0
H492 H 0.0231 0.0892 0.51305 0.0
H493 H 0.04807 0.12413 0.5199 0.0
H494 H 0.93676 0.15584 0.19406 0.0
H495 H 0.96096 0.19125 0.20463 0.0
H496 H 0.91127 0.12275 0.27425 0.0
H497 H 0.92005 0.08953 0.33973 0.0
C498 C 0.33029 0.02557 0.3089 0.0
C499 C 0.32343 0.05477 0.35258 0.0
C500 C 0.36782 0.04574 0.45645 0.0
C501 C 0.37278 0.01489 0.41813 0.0
N502 N 0.35527 0.97329 0.31699 0.0
N503 N 0.33069 0.08971 0.47692 0.0
C504 C 0.3531 0.00422 0.34661 0.0
C505 C 0.34058 0.06387 0.42937 0.0
N506 N 0.31541 0.01854 0.23065 0.0
N507 N 0.39011 0.05876 0.51487 0.0
H508 H 0.31133 0.10416 0.45755 0.0
H509 H 0.3397 0.09502 0.53922 0.0
H510 H 0.41159 0.04758 0.53397 0.0
H511 H 0.38931 0.0824 0.53738 0.0
H512 H 0.32226 -0.00043 0.19084 0.0
H513 H 0.29774 0.03304 0.20218 0.0
H514 H 0.33901 0.96298 0.27138 0.0
H515 H 0.37159 0.95691 0.34342 0.0
C516 C 0.49039 0.32475 0.40522 0.0
C517 C 0.51967 0.31701 0.36198 0.0
C518 C 0.54469 0.36956 0.40192 0.0
C519 C 0.51323 0.3786 0.43564 0.0
N520 N 0.45379 0.36801 0.42578 0.0
N521 N 0.57522 0.33081 0.31695 0.0
C522 C 0.48532 0.35711 0.42538 0.0
C523 C 0.5473 0.33886 0.36108 0.0
N524 N 0.46641 0.30146 0.42117 0.0
N525 N 0.57157 0.3904 0.40465 0.0
H526 H 0.57793 0.3079 0.29031 0.0
H527 H 0.59512 0.34678 0.30445 0.0
H528 H 0.5697 0.41529 0.40933 0.0
H529 H 0.59582 0.38307 0.39739 0.0
H530 H 0.44522 0.30588 0.45765 0.0
H531 H 0.46964 0.27726 0.40565 0.0
H532 H 0.43306 0.35315 0.41245 0.0
H533 H 0.44878 0.39246 0.42514 0.0
C534 C 0.1606 0.46245 0.31147 0.0
C535 C 0.16541 0.43176 0.35044 0.0
C536 C 0.11632 0.4377 0.44067 0.0
C537 C 0.11424 0.47004 0.41067 0.0
N538 N 0.13549 0.5146 0.3237 0.0
N539 N 0.15116 0.39196 0.46069 0.0
C540 C 0.13663 0.48285 0.3475 0.0
C541 C 0.14413 0.41979 0.41732 0.0
N542 N 0.17818 0.47161 0.23854 0.0
N543 N 0.09133 0.42388 0.48996 0.0
H544 H 0.17142 0.37811 0.44518 0.0
H545 H 0.13863 0.38413 0.51685 0.0
H546 H 0.07026 0.43609 0.50797 0.0
H547 H 0.08999 0.39943 0.50599 0.0
H548 H 0.17338 0.49222 0.20225 0.0
H549 H 0.19573 0.45717 0.20958 0.0
H550 H 0.15356 0.52631 0.28541 0.0
H551 H 0.1175 0.52984 0.34717 0.0
C552 C 0.04157 0.82017 0.77976 0.0
C553 C 0.02346 0.81785 0.8589 0.0
C554 C 0.00151 0.87139 0.83602 0.0
C555 C 0.0201 0.87399 0.75754 0.0
N556 N 0.06154 0.85391 0.66007 0.0
N557 N 0.98155 0.83734 0.95555 0.0
C558 C 0.04122 0.84924 0.73079 0.0
C559 C 0.00208 0.8424 0.88529 0.0
N560 N 0.05783 0.79397 0.74987 0.0
N561 N 0.98474 0.89739 0.86523 0.0
H562 H 0.98159 0.81636 0.99345 0.0
H563 H 0.9627 0.85259 0.97269 0.0
H564 H 0.98495 0.91944 0.83202 0.0
H565 H 0.97291 0.89834 0.92552 0.0
H566 H 0.06826 0.79256 0.68788 0.0
H567 H 0.0586 0.77228 0.78448 0.0
H568 H 0.07987 0.83822 0.64202 0.0
H569 H 0.06217 0.87502 0.62314 0.0
C570 C 0.67143 0.95328 0.76939 0.0
C571 C 0.6654 0.94466 0.85752 0.0
C572 C 0.60609 0.95002 0.83979 0.0
C573 C 0.61204 0.96059 0.75274 0.0
N574 N 0.6496 0.97431 0.63406 0.0
N575 N 0.62824 0.92554 0.97042 0.0
C576 C 0.6445 0.9626 0.71686 0.0
C577 C 0.63301 0.94001 0.8907 0.0
N578 N 0.70276 0.95153 0.73614 0.0
N579 N 0.57507 0.95166 0.87534 0.0
H580 H 0.64782 0.91781 0.00882 0.0
H581 H 0.60509 0.9184 0.99497 0.0
H582 H 0.55484 0.96029 0.84111 0.0
H583 H 0.56979 0.94731 0.94099 0.0
H584 H 0.70868 0.95441 0.67033 0.0
H585 H 0.72275 0.94439 0.7739 0.0
H586 H 0.67281 0.97923 0.60676 0.0
H587 H 0.63045 0.98094 0.59309 0.0
C588 C 0.44966 0.67365 0.76691 0.0
C589 C 0.45195 0.67352 0.85929 0.0
C590 C 0.47299 0.61887 0.85842 0.0
C591 C 0.47084 0.61899 0.76618 0.0
N592 N 0.45213 0.64335 0.63237 0.0
N593 N 0.47204 0.64972 0.99245 0.0
C594 C 0.45795 0.6456 0.72018 0.0
C595 C 0.46525 0.64708 0.90509 0.0
N596 N 0.44054 0.70097 0.72395 0.0
N597 N 0.48081 0.59119 0.90133 0.0
H598 H 0.46742 0.6704 0.02842 0.0
H599 H 0.48488 0.63275 0.02803 0.0
H600 H 0.48559 0.56992 0.86842 0.0
H601 H 0.47948 0.58826 0.96884 0.0
H602 H 0.44279 0.70435 0.65675 0.0
H603 H 0.43264 0.72146 0.75608 0.0
H604 H 0.43974 0.66036 0.59583 0.0
H605 H 0.45751 0.62301 0.59634 0.0
C606 C 0.82093 0.53504 0.75716 0.0
C607 C 0.82278 0.55005 0.83948 0.0
C608 C 0.88307 0.55245 0.83437 0.0
C609 C 0.8815 0.53425 0.75598 0.0
N610 N 0.8492 0.50664 0.64352 0.0
N611 N 0.85312 0.58216 0.94395 0.0
C612 C 0.8505 0.52534 0.7169 0.0
C613 C 0.85322 0.56183 0.87388 0.0
N614 N 0.79081 0.5308 0.71728 0.0
N615 N 0.91298 0.55866 0.87389 0.0
H616 H 0.83111 0.58946 0.9724 0.0
H617 H 0.87418 0.59406 0.96861 0.0
H618 H 0.93516 0.55035 0.84915 0.0
H619 H 0.91582 0.56961 0.93461 0.0
H620 H 0.78769 0.52319 0.65298 0.0
H621 H 0.76889 0.53809 0.74603 0.0
H622 H 0.82744 0.49647 0.61769 0.0
H623 H 0.87007 0.49918 0.61089 0.0
C624 C -0.0021 0.17863 0.76245 0.0
C625 C 0.01208 0.17864 0.84705 0.0
C626 C 0.01786 0.11981 0.84028 0.0
C627 C 0.00101 0.11949 0.75905 0.0
N628 N 0.97243 0.14774 0.64485 0.0
N629 N 0.03326 0.14975 0.97121 0.0
C630 C 0.99045 0.14871 0.72052 0.0
C631 C 0.02155 0.14934 0.88723 0.0
N632 N 0.99201 0.2073 0.72175 0.0
N633 N 0.03042 0.09189 0.87205 0.0
H634 H 0.03733 0.17093 0.00677 0.0
H635 H 0.03706 0.12908 0.00813 0.0
H636 H 0.02752 0.06986 0.83972 0.0
H637 H 0.04571 0.0908 0.92664 0.0
H638 H 0.98545 0.20927 0.65622 0.0
H639 H 0.99588 0.22962 0.75203 0.0
H640 H 0.96031 0.1674 0.61919 0.0
H641 H 0.96801 0.12668 0.60926 0.0
C642 C 0.35201 0.06241 0.9091 0.0
C643 C 0.31953 0.06111 0.87287 0.0
C644 C 0.33977 0.03317 0.74349 0.0
C645 C 0.37185 0.03235 0.78217 0.0
N646 N 0.40989 0.0479 0.89668 0.0
N647 N 0.28304 0.05091 0.75107 0.0
C648 C 0.37848 0.0479 0.86315 0.0
C649 C 0.31363 0.04825 0.78846 0.0
N650 N 0.35725 0.07773 0.98729 0.0
N651 N 0.3342 0.0188 0.66425 0.0
H652 H 0.26299 0.06059 0.78352 0.0
H653 H 0.27755 0.04533 0.68639 0.0
H654 H 0.35309 0.01005 0.62584 0.0
H655 H 0.31096 0.01468 0.6365 0.0
H656 H 0.37996 0.08013 0.01881 0.0
H657 H 0.33856 0.08918 0.02106 0.0
H658 H 0.41697 0.05774 0.95641 0.0
H659 H 0.42964 0.03784 0.86391 0.0
C660 C 0.49265 0.33471 0.87283 0.0
C661 C 0.51018 0.31005 0.82998 0.0
C662 C 0.53397 0.34927 0.72628 0.0
C663 C 0.51831 0.37425 0.77267 0.0
N664 N 0.47857 0.39119 0.87906 0.0
N665 N 0.5487 0.29306 0.72093 0.0
C666 C 0.4963 0.36708 0.84265 0.0
C667 C 0.53096 0.31708 0.75761 0.0
N668 N 0.47399 0.32733 0.94538 0.0
N669 N 0.55021 0.35609 0.64951 0.0
H670 H 0.5456 0.26886 0.73914 0.0
H671 H 0.56771 0.2971 0.67587 0.0
H672 H 0.55311 0.37927 0.62367 0.0
H673 H 0.55858 0.3386 0.60704 0.0
H674 H 0.46407 0.34433 0.98676 0.0
H675 H 0.46936 0.30382 0.96724 0.0
H676 H 0.45923 0.38735 0.9232 0.0
H677 H 0.48197 0.41542 0.86163 0.0
C678 C 0.14549 0.43373 0.93059 0.0
C679 C 0.17681 0.42953 0.89026 0.0
C680 C 0.15378 0.44559 0.749 0.0
C681 C 0.12395 0.45367 0.7913 0.0
N682 N 0.0916 0.45796 0.92261 0.0
N683 N 0.21216 0.43508 0.76359 0.0
C684 C 0.11973 0.44824 0.8822 0.0
C685 C 0.18127 0.43618 0.79989 0.0
N686 N 0.14019 0.42314 0.01439 0.0
N687 N 0.15566 0.44672 0.65979 0.0
H688 H 0.23302 0.42856 0.79878 0.0
H689 H 0.21773 0.44319 0.70062 0.0
H690 H 0.13602 0.45376 0.62068 0.0
H691 H 0.17538 0.43793 0.62422 0.0
H692 H 0.11709 0.42264 0.04466 0.0
H693 H 0.15839 0.41229 0.05165 0.0
H694 H 0.08857 0.45831 0.99019 0.0
H695 H 0.07182 0.46748 0.88831 0.0
C696 C 0.01664 0.83864 0.29139 0.0
C697 C -0.00219 0.81375 0.33493 0.0
C698 C 0.97954 0.85247 0.44376 0.0
C699 C 0.0026 0.87583 0.40902 0.0
N700 N 0.03616 0.89499 0.28912 0.0
N701 N 0.96183 0.79594 0.45209 0.0
C702 C 0.01899 0.87001 0.32907 0.0
C703 C 0.97901 0.82047 0.41037 0.0
N704 N 0.03326 0.8317 0.21608 0.0
N705 N 0.95753 0.86105 0.50655 0.0
H706 H 0.95993 0.77253 0.4273 0.0
H707 H 0.95113 0.79817 0.51359 0.0
H708 H 0.95507 0.8848 0.52618 0.0
H709 H 0.93877 0.8457 0.53086 0.0
H710 H 0.04939 0.84763 0.18339 0.0
H711 H 0.03126 0.8093 0.18542 0.0
H712 H 0.04821 0.89353 0.22935 0.0
H713 H 0.03668 0.91839 0.31418 0.0
C714 C 0.6461 0.95127 0.29951 0.0
C715 C 0.66845 0.93243 0.34821 0.0
C716 C 0.62648 0.92359 0.46283 0.0
C717 C 0.60533 0.9448 0.41777 0.0
N718 N 0.59033 0.971 0.28431 0.0
N719 N 0.67847 0.89539 0.46569 0.0
C720 C 0.61373 0.95594 0.33278 0.0
C721 C 0.65804 0.91672 0.42643 0.0
N722 N 0.65638 0.96573 0.22313 0.0
N723 N 0.61701 0.91132 0.54221 0.0
H724 H 0.70191 0.89057 0.44131 0.0
H725 H 0.67175 0.88098 0.51902 0.0
H726 H 0.59294 0.91279 0.56541 0.0
H727 H 0.63272 0.8998 0.58523 0.0
H728 H 0.64308 0.98299 0.18993 0.0
H729 H 0.67917 0.96147 0.194 0.0
H730 H 0.59345 0.97783 0.21925 0.0
H731 H 0.56632 0.97404 0.30756 0.0
C732 C 0.46963 0.65403 0.28487 0.0
C733 C 0.4799 0.68247 0.33025 0.0
C734 C 0.50358 0.65034 0.44746 0.0
C735 C 0.49068 0.62204 0.40534 0.0
N736 N 0.47259 0.59585 0.27337 0.0
N737 N 0.51247 0.70871 0.44244 0.0
C738 C 0.47748 0.62365 0.3201 0.0
C739 C 0.49901 0.68091 0.40751 0.0
N740 N 0.4509 0.65607 0.21065 0.0
N741 N 0.51858 0.64818 0.52719 0.0
H742 H 0.50877 0.73142 0.41524 0.0
H743 H 0.52899 0.7094 0.49459 0.0
H744 H 0.52531 0.62643 0.55472 0.0
H745 H 0.52408 0.66783 0.56731 0.0
H746 H 0.43928 0.63621 0.18075 0.0
H747 H 0.44525 0.67792 0.18112 0.0
H748 H 0.46567 0.59532 0.20783 0.0
H749 H 0.47882 0.57336 0.2983 0.0
C750 C 0.82817 0.57028 0.41963 0.0
C751 C 0.82159 0.55919 0.33368 0.0
C752 C 0.87674 0.53618 0.32566 0.0
C753 C 0.88165 0.5439 0.41472 0.0
N754 N 0.86721 0.57562 0.53972 0.0
N755 N 0.8388 0.53171 0.20307 0.0
C756 C 0.85901 0.56346 0.45953 0.0
C757 C 0.846 0.54284 0.28528 0.0
N758 N 0.80412 0.58591 0.46411 0.0
N759 N 0.90189 0.52267 0.28013 0.0
H760 H 0.81685 0.53648 0.17041 0.0
H761 H 0.8537 0.51644 0.16792 0.0
H762 H 0.92476 0.51815 0.30873 0.0
H763 H 0.90148 0.51846 0.21317 0.0
H764 H 0.80518 0.59134 0.53035 0.0
H765 H 0.78205 0.59259 0.43477 0.0
H766 H 0.85286 0.5913 0.57513 0.0
H767 H 0.89017 0.57227 0.56802 0.0
loop_
_geom_bond_atom_site_label_1
_geom_bond_atom_site_label_2
_geom_bond_distance
_geom_bond_site_symmetry_2
_ccdc_geom_bond_type
P0 O11 1.490 . S
P0 C14 1.812 . S
P0 C20 1.803 . S
P0 C26 1.819 1_554 S
H1 C15 0.941 . S
H2 C16 0.939 . S
H3 C18 0.940 . S
H4 C19 0.940 . S
H5 C21 0.939 . S
H6 C22 0.942 . S
H7 C24 0.940 . S
H8 C25 0.939 . S
H9 C27 0.941 . S
H10 C31 0.939 . S
O11 P0 1.490 . S
H12 C28 0.939 . S
H13 C30 0.940 . S
C14 P0 1.812 . S
C14 C15 1.389 . S
C14 C19 1.391 . S
C15 H1 0.941 . S
C15 C14 1.389 . S
C15 C16 1.397 . S
C16 H2 0.939 . S
C16 C15 1.397 . S
C16 C17 1.378 . S
C17 C16 1.378 . S
C17 C18 1.378 . S
C18 H3 0.940 . S
C18 C17 1.378 . S
C18 C19 1.396 . S
C19 H4 0.940 . S
C19 C14 1.391 . S
C19 C18 1.396 . S
C20 P0 1.803 . S
C20 C21 1.378 1_554 S
C20 C25 1.400 . S
C21 H5 0.939 . S
C21 C20 1.378 1_556 S
C21 C22 1.361 . S
C22 H6 0.942 . S
C22 C21 1.361 . S
C22 C23 1.369 . S
C23 C22 1.369 . S
C23 C24 1.404 1_556 S
C24 H7 0.940 . S
C24 C23 1.404 1_554 S
C24 C25 1.389 . S
C25 H8 0.939 . S
C25 C20 1.400 . S
C25 C24 1.389 . S
C26 P0 1.819 1_556 S
C26 C27 1.391 . S
C26 C31 1.391 . S
C27 H9 0.941 . S
C27 C26 1.391 . S
C27 C28 1.396 . S
C28 H12 0.939 . S
C28 C27 1.396 . S
C28 C29 1.397 . S
C29 C28 1.397 . S
C29 C30 1.385 . S
C30 H13 0.940 . S
C30 C29 1.385 . S
C30 C31 1.388 . S
C31 H10 0.939 . S
C31 C26 1.391 . S
C31 C30 1.388 . S
P32 O43 1.490 . S
P32 C46 1.812 . S
P32 C52 1.803 . S
P32 C58 1.819 1_554 S
H33 C47 0.941 . S
H34 C48 0.939 . S
H35 C50 0.940 . S
H36 C51 0.950 . S
H37 C53 0.939 . S
H38 C54 0.942 . S
H39 C56 0.940 . S
H40 C57 0.960 . S
H41 C59 0.941 1_554 S
H42 C63 0.930 1_655 S
O43 P32 1.490 . S
H44 C60 0.939 . S
H45 C62 0.940 . S
C46 P32 1.812 . S
C46 C47 1.389 . S
C46 C51 1.375 1_455 S
C47 H33 0.941 . S
C47 C46 1.389 . S
C47 C48 1.397 . S
C48 H34 0.939 . S
C48 C47 1.397 . S
C48 C49 1.378 . S
C49 C48 1.378 . S
C49 C50 1.378 1_455 S
C50 H35 0.940 . S
C50 C49 1.378 1_655 S
C50 C51 1.403 . S
C51 H36 0.950 . S
C51 C46 1.375 1_655 S
C51 C50 1.403 . S
C52 P32 1.803 . S
C52 C53 1.378 1_554 S
C52 C57 1.369 1_455 S
C53 H37 0.939 . S
C53 C52 1.378 1_556 S
C53 C54 1.361 . S
C54 H38 0.942 . S
C54 C53 1.361 . S
C54 C55 1.369 . S
C55 C54 1.369 . S
C55 C56 1.404 1_456 S
C56 H39 0.940 . S
C56 C55 1.404 1_654 S
C56 C57 1.401 . S
C57 H40 0.960 . S
C57 C52 1.369 1_655 S
C57 C56 1.401 . S
C58 P32 1.819 1_556 S
C58 C59 1.391 . S
C58 C63 1.391 . S
C59 H41 0.941 1_556 S
C59 C58 1.391 . S
C59 C60 1.396 . S
C60 H44 0.939 . S
C60 C59 1.396 . S
C60 C61 1.397 . S
C61 C60 1.397 . S
C61 C62 1.385 1_455 S
C62 H45 0.940 . S
C62 C61 1.385 1_655 S
C62 C63 1.388 1_655 S
C63 H42 0.930 1_455 S
C63 C58 1.391 . S
C63 C62 1.388 1_455 S
P64 O75 1.490 1_565 S
P64 C78 1.812 . S
P64 C84 1.803 . S
P64 C90 1.819 1_554 S
H65 C79 0.910 1_545 S
H66 C80 0.939 . S
H67 C82 0.940 . S
H68 C83 0.940 . S
H69 C85 0.939 1_545 S
H70 C86 0.942 . S
H71 C88 0.940 . S
H72 C89 0.939 . S
H73 C91 0.935 1_554 S
H74 C95 0.939 . S
O75 P64 1.490 1_545 S
H76 C92 0.939 . S
H77 C94 0.940 . S
C78 P64 1.812 . S
C78 C79 1.389 . S
C78 C83 1.391 . S
C79 H65 0.910 1_565 S
C79 C78 1.389 . S
C79 C80 1.397 . S
C80 H66 0.939 . S
C80 C79 1.397 . S
C80 C81 1.378 . S
C81 C80 1.378 . S
C81 C82 1.378 . S
C82 H67 0.940 . S
C82 C81 1.378 . S
C82 C83 1.396 . S
C83 H68 0.940 . S
C83 C78 1.391 . S
C83 C82 1.396 . S
C84 P64 1.803 . S
C84 C85 1.378 1_554 S
C84 C89 1.400 . S
C85 H69 0.939 1_565 S
C85 C84 1.378 1_556 S
C85 C86 1.361 . S
C86 H70 0.942 . S
C86 C85 1.361 . S
C86 C87 1.369 . S
C87 C86 1.369 . S
C87 C88 1.404 1_556 S
C88 H71 0.940 . S
C88 C87 1.404 1_554 S
C88 C89 1.389 . S
C89 H72 0.939 . S
C89 C84 1.400 . S
C89 C88 1.389 . S
C90 P64 1.819 1_556 S
C90 C91 1.391 . S
C90 C95 1.391 . S
C91 H73 0.935 1_556 S
C91 C90 1.391 . S
C91 C92 1.396 . S
C92 H76 0.939 . S
C92 C91 1.396 . S
C92 C93 1.397 . S
C93 C92 1.397 . S
C93 C94 1.385 . S
C94 H77 0.940 . S
C94 C93 1.385 . S
C94 C95 1.388 . S
C95 H74 0.939 . S
C95 C90 1.391 . S
C95 C94 1.388 . S
P96 O107 1.490 . S
P96 C110 1.812 . S
P96 C116 1.803 . S
P96 C122 1.819 1_554 S
H97 C111 0.941 . S
H98 C112 0.939 . S
H99 C114 0.940 . S
H100 C115 0.940 . S
H101 C117 0.939 . S
H102 C118 0.942 . S
H103 C120 0.940 . S
H104 C121 0.939 . S
H105 C123 0.941 1_554 S
H106 C127 0.939 . S
O107 P96 1.490 . S
H108 C124 0.939 . S
H109 C126 0.940 . S
C110 P96 1.812 . S
C110 C111 1.389 . S
C110 C115 1.391 . S
C111 H97 0.941 . S
C111 C110 1.389 . S
C111 C112 1.397 . S
C112 H98 0.939 . S
C112 C111 1.397 . S
C112 C113 1.378 . S
C113 C112 1.378 . S
C113 C114 1.378 . S
C114 H99 0.940 . S
C114 C113 1.378 . S
C114 C115 1.396 . S
C115 H100 0.940 . S
C115 C110 1.391 . S
C115 C114 1.396 . S
C116 P96 1.803 . S
C116 C117 1.378 1_554 S
C116 C121 1.400 . S
C117 H101 0.939 . S
C117 C116 1.378 1_556 S
C117 C118 1.361 . S
C118 H102 0.942 . S
C118 C117 1.361 . S
C118 C119 1.369 . S
C119 C118 1.369 . S
C119 C120 1.404 1_556 S
C120 H103 0.940 . S
C120 C119 1.404 1_554 S
C120 C121 1.389 . S
C121 H104 0.939 . S
C121 C116 1.400 . S
C121 C120 1.389 . S
C122 P96 1.819 1_556 S
C122 C123 1.391 . S
C122 C127 1.391 . S
C123 H105 0.941 1_556 S
C123 C122 1.391 . S
C123 C124 1.396 . S
C124 H108 0.939 . S
C124 C123 1.396 . S
C124 C125 1.397 . S
C125 C124 1.397 . S
C125 C126 1.385 . S
C126 H109 0.940 . S
C126 C125 1.385 . S
C126 C127 1.388 . S
C127 H106 0.939 . S
C127 C122 1.391 . S
C127 C126 1.388 . S
P128 O139 1.490 . S
P128 C142 1.812 . S
P128 C148 1.803 . S
P128 C154 1.819 . S
H129 C143 0.941 1_554 S
H130 C144 0.939 . S
H131 C146 0.940 . S
H132 C147 0.940 . S
H133 C149 0.939 . S
H134 C150 0.942 . S
H135 C152 0.940 . S
H136 C153 0.939 . S
H137 C155 0.941 . S
H138 C159 0.939 . S
O139 P128 1.490 . S
H140 C156 0.939 . S
H141 C158 0.940 . S
C142 P128 1.812 . S
C142 C143 1.389 1_554 S
C142 C147 1.391 . S
C143 H129 0.941 1_556 S
C143 C142 1.389 1_556 S
C143 C144 1.397 . S
C144 H130 0.939 . S
C144 C143 1.397 . S
C144 C145 1.378 . S
C145 C144 1.378 . S
C145 C146 1.378 . S
C146 H131 0.940 . S
C146 C145 1.378 . S
C146 C147 1.396 1_556 S
C147 H132 0.940 . S
C147 C142 1.391 . S
C147 C146 1.396 1_554 S
C148 P128 1.803 . S
C148 C149 1.378 . S
C148 C153 1.400 . S
C149 H133 0.939 . S
C149 C148 1.378 . S
C149 C150 1.361 . S
C150 H134 0.942 . S
C150 C149 1.361 . S
C150 C151 1.369 . S
C151 C150 1.369 . S
C151 C152 1.404 . S
C152 H135 0.940 . S
C152 C151 1.404 . S
C152 C153 1.389 . S
C153 H136 0.939 . S
C153 C148 1.400 . S
C153 C152 1.389 . S
C154 P128 1.819 . S
C154 C155 1.391 . S
C154 C159 1.391 . S
C155 H137 0.941 . S
C155 C154 1.391 . S
C155 C156 1.396 . S
C156 H140 0.939 . S
C156 C155 1.396 . S
C156 C157 1.397 . S
C157 C156 1.397 . S
C157 C158 1.385 . S
C158 H141 0.940 . S
C158 C157 1.385 . S
C158 C159 1.388 . S
C159 H138 0.939 . S
C159 C154 1.391 . S
C159 C158 1.388 . S
P160 O171 1.490 . S
P160 C174 1.812 . S
P160 C180 1.803 . S
P160 C186 1.819 . S
H161 C175 0.941 . S
H162 C176 0.939 . S
H163 C178 0.940 . S
H164 C179 0.945 . S
H165 C181 0.939 . S
H166 C182 0.942 . S
H167 C184 0.940 . S
H168 C185 0.954 . S
H169 C187 0.941 . S
H170 C191 0.931 1_655 S
O171 P160 1.490 . S
H172 C188 0.939 . S
H173 C190 0.940 . S
C174 P160 1.812 . S
C174 C175 1.389 1_554 S
C174 C179 1.382 1_455 S
C175 H161 0.941 . S
C175 C174 1.389 1_556 S
C175 C176 1.397 . S
C176 H162 0.939 . S
C176 C175 1.397 . S
C176 C177 1.378 . S
C177 C176 1.378 . S
C177 C178 1.378 1_455 S
C178 H163 0.940 . S
C178 C177 1.378 1_655 S
C178 C179 1.400 1_556 S
C179 H164 0.945 . S
C179 C174 1.382 1_655 S
C179 C178 1.400 1_554 S
C180 P160 1.803 . S
C180 C181 1.378 . S
C180 C185 1.375 1_455 S
C181 H165 0.939 . S
C181 C180 1.378 . S
C181 C182 1.361 . S
C182 H166 0.942 . S
C182 C181 1.361 . S
C182 C183 1.369 . S
C183 C182 1.369 . S
C183 C184 1.404 1_455 S
C184 H167 0.940 . S
C184 C183 1.404 1_655 S
C184 C185 1.399 . S
C185 H168 0.954 . S
C185 C180 1.375 1_655 S
C185 C184 1.399 . S
C186 P160 1.819 . S
C186 C187 1.391 . S
C186 C191 1.391 . S
C187 H169 0.941 . S
C187 C186 1.391 . S
C187 C188 1.396 . S
C188 H172 0.939 . S
C188 C187 1.396 . S
C188 C189 1.397 . S
C189 C188 1.397 . S
C189 C190 1.385 1_455 S
C190 H173 0.940 . S
C190 C189 1.385 1_655 S
C190 C191 1.388 1_655 S
C191 H170 0.931 1_455 S
C191 C186 1.391 . S
C191 C190 1.388 1_455 S
P192 O203 1.490 . S
P192 C206 1.812 . S
P192 C212 1.803 . S
P192 C218 1.819 . S
H193 C207 0.941 . S
H194 C208 0.939 . S
H195 C210 0.940 . S
H196 C211 0.940 . S
H197 C213 0.939 . S
H198 C214 0.942 . S
H199 C216 0.940 . S
H200 C217 0.939 . S
H201 C219 0.941 . S
H202 C223 0.939 . S
O203 P192 1.490 . S
H204 C220 0.939 . S
H205 C222 0.940 . S
C206 P192 1.812 . S
C206 C207 1.389 1_554 S
C206 C211 1.391 . S
C207 H193 0.941 . S
C207 C206 1.389 1_556 S
C207 C208 1.397 . S
C208 H194 0.939 . S
C208 C207 1.397 . S
C208 C209 1.378 . S
C209 C208 1.378 . S
C209 C210 1.378 . S
C210 H195 0.940 . S
C210 C209 1.378 . S
C210 C211 1.396 1_556 S
C211 H196 0.940 . S
C211 C206 1.391 . S
C211 C210 1.396 1_554 S
C212 P192 1.803 . S
C212 C213 1.378 . S
C212 C217 1.400 . S
C213 H197 0.939 . S
C213 C212 1.378 . S
C213 C214 1.361 . S
C214 H198 0.942 . S
C214 C213 1.361 . S
C214 C215 1.369 . S
C215 C214 1.369 . S
C215 C216 1.404 . S
C216 H199 0.940 . S
C216 C215 1.404 . S
C216 C217 1.389 . S
C217 H200 0.939 . S
C217 C212 1.400 . S
C217 C216 1.389 . S
C218 P192 1.819 . S
C218 C219 1.391 . S
C218 C223 1.391 . S
C219 H201 0.941 . S
C219 C218 1.391 . S
C219 C220 1.396 . S
C220 H204 0.939 . S
C220 C219 1.396 . S
C220 C221 1.397 . S
C221 C220 1.397 . S
C221 C222 1.385 . S
C222 H205 0.940 . S
C222 C221 1.385 . S
C222 C223 1.388 . S
C223 H202 0.939 . S
C223 C218 1.391 . S
C223 C222 1.388 . S
P224 O235 1.490 . S
P224 C238 1.812 . S
P224 C244 1.803 . S
P224 C250 1.819 . S
H225 C239 0.941 . S
H226 C240 0.939 . S
H227 C242 0.940 . S
H228 C243 0.940 . S
H229 C245 0.939 . S
H230 C246 0.942 . S
H231 C248 0.940 . S
H232 C249 0.939 . S
H233 C251 0.941 . S
H234 C255 0.939 . S
O235 P224 1.490 . S
H236 C252 0.939 . S
H237 C254 0.940 . S
C238 P224 1.812 . S
C238 C239 1.389 1_554 S
C238 C243 1.391 . S
C239 H225 0.941 . S
C239 C238 1.389 1_556 S
C239 C240 1.397 . S
C240 H226 0.939 . S
C240 C239 1.397 . S
C240 C241 1.378 . S
C241 C240 1.378 . S
C241 C242 1.378 . S
C242 H227 0.940 . S
C242 C241 1.378 . S
C242 C243 1.396 1_556 S
C243 H228 0.940 . S
C243 C238 1.391 . S
C243 C242 1.396 1_554 S
C244 P224 1.803 . S
C244 C245 1.378 . S
C244 C249 1.400 . S
C245 H229 0.939 . S
C245 C244 1.378 . S
C245 C246 1.361 . S
C246 H230 0.942 . S
C246 C245 1.361 . S
C246 C247 1.369 . S
C247 C246 1.369 . S
C247 C248 1.404 . S
C248 H231 0.940 . S
C248 C247 1.404 . S
C248 C249 1.389 . S
C249 H232 0.939 . S
C249 C244 1.400 . S
C249 C248 1.389 . S
C250 P224 1.819 . S
C250 C251 1.391 . S
C250 C255 1.391 . S
C251 H233 0.941 . S
C251 C250 1.391 . S
C251 C252 1.396 . S
C252 H236 0.939 . S
C252 C251 1.396 . S
C252 C253 1.397 . S
C253 C252 1.397 . S
C253 C254 1.385 . S
C254 H237 0.940 . S
C254 C253 1.385 . S
C254 C255 1.388 . S
C255 H234 0.939 . S
C255 C250 1.391 . S
C255 C254 1.388 . S
Zn256 O262 1.969 . S
Zn256 O263 1.965 1_655 S
Zn256 O267 2.024 1_655 S
Zn256 O272 1.969 . S
Zn257 O264 1.969 . S
Zn257 O270 1.969 . S
Zn257 O271 1.965 1_455 S
Zn257 O273 2.024 1_455 S
C258 O259 1.229 1_455 S
C258 O267 1.058 . S
O259 C258 1.229 1_655 S
C260 O261 1.229 1_655 S
C260 O273 1.058 . S
O261 C260 1.229 1_455 S
O262 Zn256 1.969 . S
O262 C265 1.267 . S
O263 Zn256 1.965 1_455 S
O263 C274 1.260 . S
O264 Zn257 1.969 . S
O264 C274 1.258 1_565 S
C265 O262 1.267 . S
C265 O266 1.228 1_655 S
O266 C265 1.228 1_455 S
O267 Zn256 2.024 1_455 S
O267 C258 1.058 . S
C268 O269 1.228 1_455 S
C268 O270 1.267 . S
O269 C268 1.228 1_655 S
O270 Zn257 1.969 . S
O270 C268 1.267 . S
O271 Zn257 1.965 1_655 S
O271 C275 1.260 . S
O272 Zn256 1.969 . S
O272 C275 1.258 1_545 S
O273 Zn257 2.024 1_655 S
O273 C260 1.058 . S
C274 O263 1.260 . S
C274 O264 1.258 1_545 S
C275 O271 1.260 . S
C275 O272 1.258 1_565 S
Zn276 O282 1.969 1_545 S
Zn276 O283 1.965 . S
Zn276 O287 2.024 . S
Zn276 O292 1.969 1_545 S
Zn277 O284 1.969 1_565 S
Zn277 O290 1.969 1_565 S
Zn277 O291 1.965 . S
Zn277 O293 2.024 . S
C278 O279 1.229 . S
C278 O287 1.058 . S
O279 C278 1.229 . S
C280 O281 1.229 . S
C280 O293 1.058 . S
O281 C280 1.229 . S
O282 Zn276 1.969 1_565 S
O282 C285 1.267 1_565 S
O283 Zn276 1.965 . S
O283 C294 1.260 . S
O284 Zn277 1.969 1_545 S
O284 C294 1.258 . S
C285 O282 1.267 1_545 S
C285 O286 1.228 . S
O286 C285 1.228 . S
O287 Zn276 2.024 . S
O287 C278 1.058 . S
C288 O289 1.228 . S
C288 O290 1.267 1_565 S
O289 C288 1.228 . S
O290 Zn277 1.969 1_545 S
O290 C288 1.267 1_545 S
O291 Zn277 1.965 . S
O291 C295 1.260 . S
O292 Zn276 1.969 1_565 S
O292 C295 1.258 . S
O293 Zn277 2.024 . S
O293 C280 1.058 . S
C294 O283 1.260 . S
C294 O284 1.258 . S
C295 O291 1.260 . S
C295 O292 1.258 . S
Zn296 O302 1.969 . S
Zn296 O303 1.965 . S
Zn296 O307 2.024 . S
Zn296 O312 1.969 . S
Zn297 O304 1.969 . S
Zn297 O310 1.969 . S
Zn297 O311 1.965 . S
Zn297 O313 2.024 . S
C298 O299 1.229 . S
C298 O307 1.058 . S
O299 C298 1.229 . S
C300 O301 1.229 . S
C300 O313 1.058 . S
O301 C300 1.229 . S
O302 Zn296 1.969 . S
O302 C305 1.267 . S
O303 Zn296 1.965 . S
O303 C314 1.260 . S
O304 Zn297 1.969 . S
O304 C314 1.258 . S
C305 O302 1.267 . S
C305 O306 1.228 . S
O306 C305 1.228 . S
O307 Zn296 2.024 . S
O307 C298 1.058 . S
C308 O309 1.228 . S
C308 O310 1.267 . S
O309 C308 1.228 . S
O310 Zn297 1.969 . S
O310 C308 1.267 . S
O311 Zn297 1.965 . S
O311 C315 1.260 . S
O312 Zn296 1.969 . S
O312 C315 1.258 . S
O313 Zn297 2.024 . S
O313 C300 1.058 . S
C314 O303 1.260 . S
C314 O304 1.258 . S
C315 O311 1.260 . S
C315 O312 1.258 . S
Zn316 O322 1.969 . S
Zn316 O323 1.965 . S
Zn316 O327 2.024 . S
Zn316 O332 1.969 . S
Zn317 O324 1.969 . S
Zn317 O330 1.969 . S
Zn317 O331 1.965 . S
Zn317 O333 2.024 . S
C318 O319 1.229 . S
C318 O327 1.058 . S
O319 C318 1.229 . S
C320 O321 1.229 . S
C320 O333 1.058 . S
O321 C320 1.229 . S
O322 Zn316 1.969 . S
O322 C325 1.267 . S
O323 Zn316 1.965 . S
O323 C334 1.260 1_455 S
O324 Zn317 1.969 . S
O324 C334 1.258 . S
C325 O322 1.267 . S
C325 O326 1.228 . S
O326 C325 1.228 . S
O327 Zn316 2.024 . S
O327 C318 1.058 . S
C328 O329 1.228 . S
C328 O330 1.267 . S
O329 C328 1.228 . S
O330 Zn317 1.969 . S
O330 C328 1.267 . S
O331 Zn317 1.965 . S
O331 C335 1.260 1_655 S
O332 Zn316 1.969 . S
O332 C335 1.258 . S
O333 Zn317 2.024 . S
O333 C320 1.058 . S
C334 O323 1.260 1_655 S
C334 O324 1.258 . S
C335 O331 1.260 1_455 S
C335 O332 1.258 . S
C336 C337 1.363 . S
C336 C342 1.379 . S
C336 N344 1.356 . S
C337 C336 1.363 . S
C337 C343 1.363 . S
C338 C339 1.363 . S
C338 C343 1.379 . S
C338 N345 1.356 1_545 S
C339 C338 1.363 . S
C339 C342 1.363 . S
N340 C342 1.356 . S
N340 H352 0.984 . S
N340 H353 0.985 . S
N341 C343 1.356 . S
N341 H346 0.984 . S
N341 H347 0.985 . S
C342 C336 1.379 . S
C342 C339 1.363 . S
C342 N340 1.356 . S
C343 C337 1.363 . S
C343 C338 1.379 . S
C343 N341 1.356 . S
N344 C336 1.356 . S
N344 H350 0.984 . S
N344 H351 0.984 . S
N345 C338 1.356 1_565 S
N345 H348 0.984 . S
N345 H349 0.985 . S
H346 N341 0.984 . S
H347 N341 0.985 . S
H348 N345 0.984 . S
H349 N345 0.985 . S
H350 N344 0.984 . S
H351 N344 0.984 . S
H352 N340 0.984 . S
H353 N340 0.985 . S
C354 C355 1.363 . S
C354 C360 1.379 . S
C354 N362 1.356 . S
C355 C354 1.363 . S
C355 C361 1.363 . S
C356 C357 1.363 . S
C356 C361 1.379 . S
C356 N363 1.356 . S
C357 C356 1.363 . S
C357 C360 1.363 . S
N358 C360 1.356 . S
N358 H370 0.984 . S
N358 H371 0.985 . S
N359 C361 1.356 . S
N359 H364 0.984 . S
N359 H365 0.985 . S
C360 C354 1.379 . S
C360 C357 1.363 . S
C360 N358 1.356 . S
C361 C355 1.363 . S
C361 C356 1.379 . S
C361 N359 1.356 . S
N362 C354 1.356 . S
N362 H368 0.984 . S
N362 H369 0.984 . S
N363 C356 1.356 . S
N363 H366 0.984 . S
N363 H367 0.985 . S
H364 N359 0.984 . S
H365 N359 0.985 . S
H366 N363 0.984 . S
H367 N363 0.985 . S
H368 N362 0.984 . S
H369 N362 0.984 . S
H370 N358 0.984 . S
H371 N358 0.985 . S
C372 C373 1.363 . S
C372 C378 1.379 . S
C372 N380 1.356 . S
C373 C372 1.363 . S
C373 C379 1.363 . S
C374 C375 1.363 . S
C374 C379 1.379 . S
C374 N381 1.356 . S
C375 C374 1.363 . S
C375 C378 1.363 . S
N376 C378 1.356 . S
N376 H388 0.984 . S
N376 H389 0.985 . S
N377 C379 1.356 . S
N377 H382 0.984 . S
N377 H383 0.985 . S
C378 C372 1.379 . S
C378 C375 1.363 . S
C378 N376 1.356 . S
C379 C373 1.363 . S
C379 C374 1.379 . S
C379 N377 1.356 . S
N380 C372 1.356 . S
N380 H386 0.984 . S
N380 H387 0.984 . S
N381 C374 1.356 . S
N381 H384 0.984 . S
N381 H385 0.985 . S
H382 N377 0.984 . S
H383 N377 0.985 . S
H384 N381 0.984 . S
H385 N381 0.985 . S
H386 N380 0.984 . S
H387 N380 0.984 . S
H388 N376 0.984 . S
H389 N376 0.985 . S
C390 C391 1.363 . S
C390 C396 1.379 . S
C390 N398 1.356 . S
C391 C390 1.363 . S
C391 C397 1.363 1_655 S
C392 C393 1.363 1_455 S
C392 C397 1.379 . S
C392 N399 1.356 . S
C393 C392 1.363 1_655 S
C393 C396 1.363 . S
N394 C396 1.356 . S
N394 H406 0.984 . S
N394 H407 0.985 . S
N395 C397 1.356 . S
N395 H400 0.984 . S
N395 H401 0.985 . S
C396 C390 1.379 . S
C396 C393 1.363 . S
C396 N394 1.356 . S
C397 C391 1.363 1_455 S
C397 C392 1.379 . S
C397 N395 1.356 . S
N398 C390 1.356 . S
N398 H404 0.984 . S
N398 H405 0.984 . S
N399 C392 1.356 . S
N399 H402 0.984 . S
N399 H403 0.985 . S
H400 N395 0.984 . S
H401 N395 0.985 . S
H402 N399 0.984 . S
H403 N399 0.985 . S
H404 N398 0.984 . S
H405 N398 0.984 . S
H406 N394 0.984 . S
H407 N394 0.985 . S
C408 C409 1.363 . S
C408 C414 1.379 . S
C408 N416 1.356 . S
C409 C408 1.363 . S
C409 C415 1.363 . S
C410 C411 1.363 . S
C410 C415 1.379 . S
C410 N417 1.356 1_565 S
C411 C410 1.363 . S
C411 C414 1.363 . S
N412 C414 1.356 . S
N412 H424 0.984 . S
N412 H425 0.985 . S
N413 C415 1.356 . S
N413 H418 0.984 . S
N413 H419 0.985 1_565 S
C414 C408 1.379 . S
C414 C411 1.363 . S
C414 N412 1.356 . S
C415 C409 1.363 . S
C415 C410 1.379 . S
C415 N413 1.356 . S
N416 C408 1.356 . S
N416 H422 0.984 . S
N416 H423 0.984 . S
N417 C410 1.356 1_545 S
N417 H420 0.984 . S
N417 H421 0.985 . S
H418 N413 0.984 . S
H419 N413 0.985 1_545 S
H420 N417 0.984 . S
H421 N417 0.985 . S
H422 N416 0.984 . S
H423 N416 0.984 . S
H424 N412 0.984 . S
H425 N412 0.985 . S
C426 C427 1.363 . S
C426 C432 1.379 . S
C426 N434 1.356 . S
C427 C426 1.363 . S
C427 C433 1.363 . S
C428 C429 1.363 . S
C428 C433 1.379 . S
C428 N435 1.356 . S
C429 C428 1.363 . S
C429 C432 1.363 . S
N430 C432 1.356 . S
N430 H442 0.984 . S
N430 H443 0.985 . S
N431 C433 1.356 . S
N431 H436 0.984 . S
N431 H437 0.985 . S
C432 C426 1.379 . S
C432 C429 1.363 . S
C432 N430 1.356 . S
C433 C427 1.363 . S
C433 C428 1.379 . S
C433 N431 1.356 . S
N434 C426 1.356 . S
N434 H440 0.984 . S
N434 H441 0.984 1_556 S
N435 C428 1.356 . S
N435 H438 0.984 . S
N435 H439 0.985 . S
H436 N431 0.984 . S
H437 N431 0.985 . S
H438 N435 0.984 . S
H439 N435 0.985 . S
H440 N434 0.984 . S
H441 N434 0.984 1_554 S
H442 N430 0.984 . S
H443 N430 0.985 . S
C444 C445 1.363 . S
C444 C450 1.379 . S
C444 N452 1.356 . S
C445 C444 1.363 . S
C445 C451 1.363 . S
C446 C447 1.363 . S
C446 C451 1.379 . S
C446 N453 1.356 . S
C447 C446 1.363 . S
C447 C450 1.363 . S
N448 C450 1.356 . S
N448 H460 0.984 . S
N448 H461 0.985 . S
N449 C451 1.356 . S
N449 H454 0.984 . S
N449 H455 0.985 . S
C450 C444 1.379 . S
C450 C447 1.363 . S
C450 N448 1.356 . S
C451 C445 1.363 . S
C451 C446 1.379 . S
C451 N449 1.356 . S
N452 C444 1.356 . S
N452 H458 0.984 . S
N452 H459 0.984 1_556 S
N453 C446 1.356 . S
N453 H456 0.984 . S
N453 H457 0.985 . S
H454 N449 0.984 . S
H455 N449 0.985 . S
H456 N453 0.984 . S
H457 N453 0.985 . S
H458 N452 0.984 . S
H459 N452 0.984 1_554 S
H460 N448 0.984 . S
H461 N448 0.985 . S
C462 C463 1.363 . S
C462 C468 1.379 . S
C462 N470 1.356 . S
C463 C462 1.363 . S
C463 C469 1.363 1_455 S
C464 C465 1.363 1_655 S
C464 C469 1.379 . S
C464 N471 1.356 . S
C465 C464 1.363 1_455 S
C465 C468 1.363 . S
N466 C468 1.356 . S
N466 H478 0.984 . S
N466 H479 0.985 . S
N467 C469 1.356 . S
N467 H472 0.984 . S
N467 H473 0.985 . S
C468 C462 1.379 . S
C468 C465 1.363 . S
C468 N466 1.356 . S
C469 C463 1.363 1_655 S
C469 C464 1.379 . S
C469 N467 1.356 . S
N470 C462 1.356 . S
N470 H476 0.984 . S
N470 H477 0.984 1_556 S
N471 C464 1.356 . S
N471 H474 0.984 . S
N471 H475 0.985 . S
H472 N467 0.984 . S
H473 N467 0.985 . S
H474 N471 0.984 . S
H475 N471 0.985 . S
H476 N470 0.984 . S
H477 N470 0.984 1_554 S
H478 N466 0.984 . S
H479 N466 0.985 . S
C480 C481 1.363 . S
C480 C486 1.379 . S
C480 N488 1.356 . S
C481 C480 1.363 . S
C481 C487 1.363 1_655 S
C482 C483 1.363 1_455 S
C482 C487 1.379 . S
C482 N489 1.356 . S
C483 C482 1.363 1_655 S
C483 C486 1.363 . S
N484 C486 1.356 . S
N484 H496 0.984 . S
N484 H497 0.985 . S
N485 C487 1.356 . S
N485 H490 0.984 . S
N485 H491 0.985 . S
C486 C480 1.379 . S
C486 C483 1.363 . S
C486 N484 1.356 . S
C487 C481 1.363 1_455 S
C487 C482 1.379 . S
C487 N485 1.356 . S
N488 C480 1.356 . S
N488 H494 0.984 . S
N488 H495 0.984 . S
N489 C482 1.356 . S
N489 H492 0.984 1_455 S
N489 H493 0.985 . S
H490 N485 0.984 . S
H491 N485 0.985 . S
H492 N489 0.984 1_655 S
H493 N489 0.985 . S
H494 N488 0.984 . S
H495 N488 0.984 . S
H496 N484 0.984 . S
H497 N484 0.985 . S
C498 C499 1.363 . S
C498 C504 1.379 . S
C498 N506 1.356 . S
C499 C498 1.363 . S
C499 C505 1.363 . S
C500 C501 1.363 . S
C500 C505 1.379 . S
C500 N507 1.356 . S
C501 C500 1.363 . S
C501 C504 1.363 . S
N502 C504 1.356 1_565 S
N502 H514 0.984 . S
N502 H515 0.985 . S
N503 C505 1.356 . S
N503 H508 0.984 . S
N503 H509 0.985 . S
C504 C498 1.379 . S
C504 C501 1.363 . S
C504 N502 1.356 1_545 S
C505 C499 1.363 . S
C505 C500 1.379 . S
C505 N503 1.356 . S
N506 C498 1.356 . S
N506 H512 0.984 . S
N506 H513 0.984 . S
N507 C500 1.356 . S
N507 H510 0.984 . S
N507 H511 0.985 . S
H508 N503 0.984 . S
H509 N503 0.985 . S
H510 N507 0.984 . S
H511 N507 0.985 . S
H512 N506 0.984 . S
H513 N506 0.984 . S
H514 N502 0.984 . S
H515 N502 0.985 . S
C516 C517 1.363 . S
C516 C522 1.379 . S
C516 N524 1.356 . S
C517 C516 1.363 . S
C517 C523 1.363 . S
C518 C519 1.363 . S
C518 C523 1.379 . S
C518 N525 1.356 . S
C519 C518 1.363 . S
C519 C522 1.363 . S
N520 C522 1.356 . S
N520 H532 0.984 . S
N520 H533 0.985 . S
N521 C523 1.356 . S
N521 H526 0.984 . S
N521 H527 0.985 . S
C522 C516 1.379 . S
C522 C519 1.363 . S
C522 N520 1.356 . S
C523 C517 1.363 . S
C523 C518 1.379 . S
C523 N521 1.356 . S
N524 C516 1.356 . S
N524 H530 0.984 . S
N524 H531 0.984 . S
N525 C518 1.356 . S
N525 H528 0.984 . S
N525 H529 0.985 . S
H526 N521 0.984 . S
H527 N521 0.985 . S
H528 N525 0.984 . S
H529 N525 0.985 . S
H530 N524 0.984 . S
H531 N524 0.984 . S
H532 N520 0.984 . S
H533 N520 0.985 . S
C534 C535 1.363 . S
C534 C540 1.379 . S
C534 N542 1.356 . S
C535 C534 1.363 . S
C535 C541 1.363 . S
C536 C537 1.363 . S
C536 C541 1.379 . S
C536 N543 1.356 . S
C537 C536 1.363 . S
C537 C540 1.363 . S
N538 C540 1.356 . S
N538 H550 0.984 . S
N538 H551 0.985 . S
N539 C541 1.356 . S
N539 H544 0.984 . S
N539 H545 0.985 . S
C540 C534 1.379 . S
C540 C537 1.363 . S
C540 N538 1.356 . S
C541 C535 1.363 . S
C541 C536 1.379 . S
C541 N539 1.356 . S
N542 C534 1.356 . S
N542 H548 0.984 . S
N542 H549 0.984 . S
N543 C536 1.356 . S
N543 H546 0.984 . S
N543 H547 0.985 . S
H544 N539 0.984 . S
H545 N539 0.985 . S
H546 N543 0.984 . S
H547 N543 0.985 . S
H548 N542 0.984 . S
H549 N542 0.984 . S
H550 N538 0.984 . S
H551 N538 0.985 . S
C552 C553 1.363 . S
C552 C558 1.379 . S
C552 N560 1.356 . S
C553 C552 1.363 . S
C553 C559 1.363 1_455 S
C554 C555 1.363 1_655 S
C554 C559 1.379 . S
C554 N561 1.356 . S
C555 C554 1.363 1_455 S
C555 C558 1.363 . S
N556 C558 1.356 . S
N556 H568 0.984 . S
N556 H569 0.985 . S
N557 C559 1.356 . S
N557 H562 0.984 . S
N557 H563 0.985 . S
C558 C552 1.379 . S
C558 C555 1.363 . S
C558 N556 1.356 . S
C559 C553 1.363 1_655 S
C559 C554 1.379 . S
C559 N557 1.356 . S
N560 C552 1.356 . S
N560 H566 0.984 . S
N560 H567 0.984 . S
N561 C554 1.356 . S
N561 H564 0.984 . S
N561 H565 0.985 . S
H562 N557 0.984 . S
H563 N557 0.985 . S
H564 N561 0.984 . S
H565 N561 0.985 . S
H566 N560 0.984 . S
H567 N560 0.984 . S
H568 N556 0.984 . S
H569 N556 0.985 . S
C570 C571 1.363 . S
C570 C576 1.379 . S
C570 N578 1.356 . S
C571 C570 1.363 . S
C571 C577 1.363 . S
C572 C573 1.363 . S
C572 C577 1.379 . S
C572 N579 1.356 . S
C573 C572 1.363 . S
C573 C576 1.363 . S
N574 C576 1.356 . S
N574 H586 0.984 . S
N574 H587 0.985 1_565 S
N575 C577 1.356 . S
N575 H580 0.984 . S
N575 H581 0.985 1_556 S
C576 C570 1.379 . S
C576 C573 1.363 . S
C576 N574 1.356 . S
C577 C571 1.363 . S
C577 C572 1.379 . S
C577 N575 1.356 . S
N578 C570 1.356 . S
N578 H584 0.984 . S
N578 H585 0.984 . S
N579 C572 1.356 . S
N579 H582 0.984 1_565 S
N579 H583 0.985 . S
H580 N575 0.984 . S
H581 N575 0.985 1_554 S
H582 N579 0.984 1_545 S
H583 N579 0.985 . S
H584 N578 0.984 . S
H585 N578 0.984 . S
H586 N574 0.984 . S
H587 N574 0.985 1_545 S
C588 C589 1.363 . S
C588 C594 1.379 . S
C588 N596 1.356 . S
C589 C588 1.363 . S
C589 C595 1.363 . S
C590 C591 1.363 . S
C590 C595 1.379 . S
C590 N597 1.356 . S
C591 C590 1.363 . S
C591 C594 1.363 . S
N592 C594 1.356 . S
N592 H604 0.984 . S
N592 H605 0.985 . S
N593 C595 1.356 . S
N593 H598 0.984 . S
N593 H599 0.985 1_556 S
C594 C588 1.379 . S
C594 C591 1.363 . S
C594 N592 1.356 . S
C595 C589 1.363 . S
C595 C590 1.379 . S
C595 N593 1.356 . S
N596 C588 1.356 . S
N596 H602 0.984 . S
N596 H603 0.984 . S
N597 C590 1.356 . S
N597 H600 0.984 . S
N597 H601 0.985 . S
H598 N593 0.984 . S
H599 N593 0.985 1_554 S
H600 N597 0.984 . S
H601 N597 0.985 . S
H602 N596 0.984 . S
H603 N596 0.984 . S
H604 N592 0.984 . S
H605 N592 0.985 . S
C606 C607 1.363 . S
C606 C612 1.379 . S
C606 N614 1.356 . S
C607 C606 1.363 . S
C607 C613 1.363 . S
C608 C609 1.363 . S
C608 C613 1.379 . S
C608 N615 1.356 . S
C609 C608 1.363 . S
C609 C612 1.363 . S
N610 C612 1.356 . S
N610 H622 0.984 . S
N610 H623 0.985 . S
N611 C613 1.356 . S
N611 H616 0.984 . S
N611 H617 0.985 . S
C612 C606 1.379 . S
C612 C609 1.363 . S
C612 N610 1.356 . S
C613 C607 1.363 . S
C613 C608 1.379 . S
C613 N611 1.356 . S
N614 C606 1.356 . S
N614 H620 0.984 . S
N614 H621 0.984 . S
N615 C608 1.356 . S
N615 H618 0.984 . S
N615 H619 0.985 . S
H616 N611 0.984 . S
H617 N611 0.985 . S
H618 N615 0.984 . S
H619 N615 0.985 . S
H620 N614 0.984 . S
H621 N614 0.984 . S
H622 N610 0.984 . S
H623 N610 0.985 . S
C624 C625 1.363 1_655 S
C624 C630 1.379 . S
C624 N632 1.356 . S
C625 C624 1.363 1_455 S
C625 C631 1.363 . S
C626 C627 1.363 . S
C626 C631 1.379 . S
C626 N633 1.356 . S
C627 C626 1.363 . S
C627 C630 1.363 1_455 S
N628 C630 1.356 . S
N628 H640 0.984 . S
N628 H641 0.985 . S
N629 C631 1.356 . S
N629 H634 0.984 . S
N629 H635 0.985 1_556 S
C630 C624 1.379 . S
C630 C627 1.363 1_655 S
C630 N628 1.356 . S
C631 C625 1.363 . S
C631 C626 1.379 . S
C631 N629 1.356 . S
N632 C624 1.356 . S
N632 H638 0.984 . S
N632 H639 0.984 . S
N633 C626 1.356 . S
N633 H636 0.984 . S
N633 H637 0.985 . S
H634 N629 0.984 . S
H635 N629 0.985 1_554 S
H636 N633 0.984 . S
H637 N633 0.985 . S
H638 N632 0.984 . S
H639 N632 0.984 . S
H640 N628 0.984 . S
H641 N628 0.985 . S
C642 C643 1.363 . S
C642 C648 1.379 . S
C642 N650 1.356 . S
C643 C642 1.363 . S
C643 C649 1.363 . S
C644 C645 1.363 . S
C644 C649 1.379 . S
C644 N651 1.356 . S
C645 C644 1.363 . S
C645 C648 1.363 . S
N646 C648 1.356 . S
N646 H658 0.984 . S
N646 H659 0.985 . S
N647 C649 1.356 . S
N647 H652 0.984 . S
N647 H653 0.985 . S
C648 C642 1.379 . S
C648 C645 1.363 . S
C648 N646 1.356 . S
C649 C643 1.363 . S
C649 C644 1.379 . S
C649 N647 1.356 . S
N650 C642 1.356 . S
N650 H656 0.984 1_556 S
N650 H657 0.984 . S
N651 C644 1.356 . S
N651 H654 0.984 . S
N651 H655 0.985 . S
H652 N647 0.984 . S
H653 N647 0.985 . S
H654 N651 0.984 . S
H655 N651 0.985 . S
H656 N650 0.984 1_554 S
H657 N650 0.984 . S
H658 N646 0.984 . S
H659 N646 0.985 . S
C660 C661 1.363 . S
C660 C666 1.379 . S
C660 N668 1.356 . S
C661 C660 1.363 . S
C661 C667 1.363 . S
C662 C663 1.363 . S
C662 C667 1.379 . S
C662 N669 1.356 . S
C663 C662 1.363 . S
C663 C666 1.363 . S
N664 C666 1.356 . S
N664 H676 0.984 . S
N664 H677 0.985 . S
N665 C667 1.356 . S
N665 H670 0.984 . S
N665 H671 0.985 . S
C666 C660 1.379 . S
C666 C663 1.363 . S
C666 N664 1.356 . S
C667 C661 1.363 . S
C667 C662 1.379 . S
C667 N665 1.356 . S
N668 C660 1.356 . S
N668 H674 0.984 . S
N668 H675 0.984 . S
N669 C662 1.356 . S
N669 H672 0.984 . S
N669 H673 0.985 . S
H670 N665 0.984 . S
H671 N665 0.985 . S
H672 N669 0.984 . S
H673 N669 0.985 . S
H674 N668 0.984 . S
H675 N668 0.984 . S
H676 N664 0.984 . S
H677 N664 0.985 . S
C678 C679 1.363 . S
C678 C684 1.379 . S
C678 N686 1.356 . S
C679 C678 1.363 . S
C679 C685 1.363 . S
C680 C681 1.363 . S
C680 C685 1.379 . S
C680 N687 1.356 . S
C681 C680 1.363 . S
C681 C684 1.363 . S
N682 C684 1.356 . S
N682 H694 0.984 . S
N682 H695 0.985 . S
N683 C685 1.356 . S
N683 H688 0.984 . S
N683 H689 0.985 . S
C684 C678 1.379 . S
C684 C681 1.363 . S
C684 N682 1.356 . S
C685 C679 1.363 . S
C685 C680 1.379 . S
C685 N683 1.356 . S
N686 C678 1.356 . S
N686 H692 0.984 1_556 S
N686 H693 0.984 . S
N687 C680 1.356 . S
N687 H690 0.984 . S
N687 H691 0.985 . S
H688 N683 0.984 . S
H689 N683 0.985 . S
H690 N687 0.984 . S
H691 N687 0.985 . S
H692 N686 0.984 1_554 S
H693 N686 0.984 . S
H694 N682 0.984 . S
H695 N682 0.985 . S
C696 C697 1.363 1_455 S
C696 C702 1.379 . S
C696 N704 1.356 . S
C697 C696 1.363 1_655 S
C697 C703 1.363 . S
C698 C699 1.363 . S
C698 C703 1.379 . S
C698 N705 1.356 . S
C699 C698 1.363 . S
C699 C702 1.363 1_655 S
N700 C702 1.356 . S
N700 H712 0.984 . S
N700 H713 0.985 . S
N701 C703 1.356 . S
N701 H706 0.984 . S
N701 H707 0.985 . S
C702 C696 1.379 . S
C702 C699 1.363 1_455 S
C702 N700 1.356 . S
C703 C697 1.363 . S
C703 C698 1.379 . S
C703 N701 1.356 . S
N704 C696 1.356 . S
N704 H710 0.984 . S
N704 H711 0.984 . S
N705 C698 1.356 . S
N705 H708 0.984 . S
N705 H709 0.985 . S
H706 N701 0.984 . S
H707 N701 0.985 . S
H708 N705 0.984 . S
H709 N705 0.985 . S
H710 N704 0.984 . S
H711 N704 0.984 . S
H712 N700 0.984 . S
H713 N700 0.985 . S
C714 C715 1.363 . S
C714 C720 1.379 . S
C714 N722 1.356 . S
C715 C714 1.363 . S
C715 C721 1.363 . S
C716 C717 1.363 . S
C716 C721 1.379 . S
C716 N723 1.356 . S
C717 C716 1.363 . S
C717 C720 1.363 . S
N718 C720 1.356 . S
N718 H730 0.984 . S
N718 H731 0.985 . S
N719 C721 1.356 . S
N719 H724 0.984 . S
N719 H725 0.985 . S
C720 C714 1.379 . S
C720 C717 1.363 . S
C720 N718 1.356 . S
C721 C715 1.363 . S
C721 C716 1.379 . S
C721 N719 1.356 . S
N722 C714 1.356 . S
N722 H728 0.984 . S
N722 H729 0.984 . S
N723 C716 1.356 . S
N723 H726 0.984 . S
N723 H727 0.985 . S
H724 N719 0.984 . S
H725 N719 0.985 . S
H726 N723 0.984 . S
H727 N723 0.985 . S
H728 N722 0.984 . S
H729 N722 0.984 . S
H730 N718 0.984 . S
H731 N718 0.985 . S
C732 C733 1.363 . S
C732 C738 1.379 . S
C732 N740 1.356 . S
C733 C732 1.363 . S
C733 C739 1.363 . S
C734 C735 1.363 . S
C734 C739 1.379 . S
C734 N741 1.356 . S
C735 C734 1.363 . S
C735 C738 1.363 . S
N736 C738 1.356 . S
N736 H748 0.984 . S
N736 H749 0.985 . S
N737 C739 1.356 . S
N737 H742 0.984 . S
N737 H743 0.985 . S
C738 C732 1.379 . S
C738 C735 1.363 . S
C738 N736 1.356 . S
C739 C733 1.363 . S
C739 C734 1.379 . S
C739 N737 1.356 . S
N740 C732 1.356 . S
N740 H746 0.984 . S
N740 H747 0.984 . S
N741 C734 1.356 . S
N741 H744 0.984 . S
N741 H745 0.985 . S
H742 N737 0.984 . S
H743 N737 0.985 . S
H744 N741 0.984 . S
H745 N741 0.985 . S
H746 N740 0.984 . S
H747 N740 0.984 . S
H748 N736 0.984 . S
H749 N736 0.985 . S
C750 C751 1.363 . S
C750 C756 1.379 . S
C750 N758 1.356 . S
C751 C750 1.363 . S
C751 C757 1.363 . S
C752 C753 1.363 . S
C752 C757 1.379 . S
C752 N759 1.356 . S
C753 C752 1.363 . S
C753 C756 1.363 . S
N754 C756 1.356 . S
N754 H766 0.984 . S
N754 H767 0.985 . S
N755 C757 1.356 . S
N755 H760 0.984 . S
N755 H761 0.985 . S
C756 C750 1.379 . S
C756 C753 1.363 . S
C756 N754 1.356 . S
C757 C751 1.363 . S
C757 C752 1.379 . S
C757 N755 1.356 . S
N758 C750 1.356 . S
N758 H764 0.984 . S
N758 H765 0.984 . S
N759 C752 1.356 . S
N759 H762 0.984 . S
N759 H763 0.985 . S
H760 N755 0.984 . S
H761 N755 0.985 . S
H762 N759 0.984 . S
H763 N759 0.985 . S
H764 N758 0.984 . S
H765 N758 0.984 . S
H766 N754 0.984 . S
H767 N754 0.985 . S
C337 C215 1.883 . S
C339 C274 1.858 . S
C357 C294 1.607 . S
C355 C247 1.601 . S
C375 C314 1.832 . S
C373 C151 1.850 . S
C393 C334 1.613 . S
C391 C183 1.634 1_655 S
C411 C275 1.861 . S
C409 C87 1.716 . S
C427 C119 1.655 . S
C429 C295 1.607 . S
C445 C23 1.686 . S
C447 C315 1.832 . S
C463 C55 1.616 . S
C465 C335 1.614 . S
C483 C265 0.872 . S
C481 C189 0.924 1_655 S
C501 C285 1.006 . S
C499 C221 1.135 . S
C519 C305 0.881 . S
C517 C253 0.904 . S
C535 C157 1.155 . S
C537 C325 0.998 . S
C553 C61 0.888 . S
C555 C268 0.869 . S
C573 C288 1.006 . S
C571 C93 0.976 . S
C591 C308 0.880 . S
C589 C125 0.901 . S
C607 C29 0.972 . S
C609 C328 1.004 . S
C625 C177 1.899 . S
C627 C258 1.855 . S
C643 C209 1.988 . S
C645 C278 1.896 . S
C663 C298 1.812 . S
C661 C241 1.837 . S
C681 C318 1.944 . S
C679 C145 2.033 . S
C697 C49 1.933 1_655 S
C699 C260 1.855 . S
C717 C280 1.896 . S
C715 C81 1.902 . S
C735 C300 1.812 . S
C733 C113 1.926 . S
C751 C17 1.942 . S
C753 C320 1.947 . S
