# Generated by pormake.
# Topology anh, (6,3)-cn, num edge types: 1
# Building blocks:
#     Node 0, Type 0, BuildingBlock: GEDQOX_clean_sbu_0, # of connection points: 6
#     Node 1, Type 0, BuildingBlock: GEDQOX_clean_sbu_0, # of connection points: 6
#     Node 2, Type 0, BuildingBlock: GEDQOX_clean_sbu_0, # of connection points: 6
#     Node 3, Type 1, BuildingBlock: BETDIP_clean_linker_0, # of connection points: 3
#     Node 4, Type 1, BuildingBlock: BETDIP_clean_linker_0, # of connection points: 3
#     Node 5, Type 1, BuildingBlock: BETDIP_clean_linker_0, # of connection points: 3
#     Node 6, Type 1, BuildingBlock: BETDIP_clean_linker_0, # of connection points: 3
#     Node 7, Type 1, BuildingBlock: BETDIP_clean_linker_0, # of connection points: 3
#     Node 8, Type 1, BuildingBlock: BETDIP_clean_linker_0, # of connection points: 3
#     Edge 9, Type (0, 1), BuildingBlock: KIFKEQ_clean_linker_1, # of connection points: 2
#     Edge 10, Type (0, 1), BuildingBlock: KIFKEQ_clean_linker_1, # of connection points: 2
#     Edge 11, Type (0, 1), BuildingBlock: KIFKEQ_clean_linker_1, # of connection points: 2
#     Edge 12, Type (0, 1), BuildingBlock: KIFKEQ_clean_linker_1, # of connection points: 2
#     Edge 13, Type (0, 1), BuildingBlock: KIFKEQ_clean_linker_1, # of connection points: 2
#     Edge 14, Type (0, 1), BuildingBlock: KIFKEQ_clean_linker_1, # of connection points: 2
#     Edge 15, Type (0, 1), BuildingBlock: KIFKEQ_clean_linker_1, # of connection points: 2
#     Edge 16, Type (0, 1), BuildingBlock: KIFKEQ_clean_linker_1, # of connection points: 2
#     Edge 17, Type (0, 1), BuildingBlock: KIFKEQ_clean_linker_1, # of connection points: 2
#     Edge 18, Type (0, 1), BuildingBlock: KIFKEQ_clean_linker_1, # of connection points: 2
#     Edge 19, Type (0, 1), BuildingBlock: KIFKEQ_clean_linker_1, # of connection points: 2
#     Edge 20, Type (0, 1), BuildingBlock: KIFKEQ_clean_linker_1, # of connection points: 2
#     Edge 21, Type (0, 1), BuildingBlock: KIFKEQ_clean_linker_1, # of connection points: 2
#     Edge 22, Type (0, 1), BuildingBlock: KIFKEQ_clean_linker_1, # of connection points: 2
#     Edge 23, Type (0, 1), BuildingBlock: KIFKEQ_clean_linker_1, # of connection points: 2
#     Edge 24, Type (0, 1), BuildingBlock: KIFKEQ_clean_linker_1, # of connection points: 2
#     Edge 25, Type (0, 1), BuildingBlock: KIFKEQ_clean_linker_1, # of connection points: 2
#     Edge 26, Type (0, 1), BuildingBlock: KIFKEQ_clean_linker_1, # of connection points: 2
# Relax obj value: 0.151
# Max RMSD: 0.179
# Mean RMSD: 0.124
data_MOF--net-anh--node1-GEDQOX_clean_sbu_0--node2-BETDIP_clean_linker_0--edge1-KIFKEQ_clean_linker_1
_symmetry_space_group_name_H-M    P1
_symmetry_Int_Tables_number       1
_symmetry_cell_setting            triclinic
loop_
_symmetry_equiv_pos_as_xyz
'x, y, z'
_cell_length_a     30.941403
_cell_length_b     30.214509
_cell_length_c     50.493709
_cell_angle_alpha  97.652151
_cell_angle_beta   90.048928
_cell_angle_gamma 102.77773
loop_
_atom_site_label
_atom_site_type_symbol
_atom_site_fract_x
_atom_site_fract_y
_atom_site_fract_z
_atom_type_partial_charge
Nd0 Nd 0.16504 0.59109 0.1336 0.0
Nd1 Nd 0.14508 0.49937 0.15061 0.0
C2 C 0.19939 0.66807 0.11439 0.0
C3 C 0.23879 0.70559 0.12247 0.0
C4 C 0.27747 0.70931 0.10754 0.0
C5 C 0.3161 0.74188 0.11652 0.0
C6 C 0.31681 0.77139 0.14061 0.0
C7 C 0.27761 0.76882 0.15494 0.0
C8 C 0.23909 0.7364 0.14599 0.0
C9 C 0.15657 0.5917 0.18787 0.0
C10 C 0.24945 0.54328 0.14546 0.0
C11 C 0.11269 0.4259 0.17374 0.0
C12 C 1.06852 0.39768 0.17825 0.0
C13 C 1.03519 0.41716 0.19069 0.0
C14 C 0.99364 0.38964 0.1947 0.0
C15 C 0.98434 0.34209 0.18616 0.0
C16 C 1.01774 0.3229 0.17346 0.0
C17 C 1.05936 0.35037 0.16967 0.0
C18 C 0.15757 0.49676 0.09683 0.0
C19 C 1.06144 0.54601 0.13524 0.0
O20 O 0.20711 0.62844 0.10437 0.0
O21 O 0.16656 0.66392 0.13083 0.0
O22 O 0.14049 0.61829 0.17446 0.0
O23 O 0.17718 0.56739 0.17296 0.0
O24 O 0.23482 0.574 0.13367 0.0
O25 O 0.22129 0.51219 0.15684 0.0
O26 O 0.12339 0.46742 0.18682 0.0
O27 O 0.12535 0.42382 0.14902 0.0
O28 O 0.17315 0.47193 0.11186 0.0
O29 O 0.13529 0.52199 0.11017 0.0
O30 O 1.07498 0.51752 0.14955 0.0
O31 O 0.09067 0.5741 0.1227 0.0
H32 H 0.2782 0.6862 0.08928 0.0
H33 H 0.3458 0.74289 0.10507 0.0
H34 H 0.27679 0.79166 0.17329 0.0
H35 H 0.20986 0.73492 0.15792 0.0
H36 H 1.04117 0.45362 0.19742 0.0
H37 H 0.96907 0.40561 0.20487 0.0
H38 H 1.01165 0.28665 0.16616 0.0
H39 H 1.08445 0.33463 0.15988 0.0
Nd40 Nd 0.55291 0.043 0.52252 0.0
Nd41 Nd 0.65677 0.06404 0.50731 0.0
C42 C 0.47433 1.01244 0.54202 0.0
C43 C 0.43948 0.96958 0.5375 0.0
C44 C 0.44739 0.92749 0.54284 0.0
C45 C 0.41478 0.88702 0.53677 0.0
C46 C 0.37355 0.88769 0.52519 0.0
C47 C 0.3655 0.93008 0.52045 0.0
C48 C 0.39797 0.97048 0.52665 0.0
C49 C 0.57132 0.04442 0.46957 0.0
C50 C 0.60774 0.95837 0.51415 0.0
C51 C 0.72937 0.08675 0.48028 0.0
C52 C 0.7654 0.12789 0.48102 0.0
C53 C 0.76046 0.17002 0.49464 0.0
C54 C 0.79387 0.20954 0.49428 0.0
C55 C 0.83304 0.20758 0.48048 0.0
C56 C 0.83825 0.16501 0.4674 0.0
C57 C 0.80462 0.12553 0.46761 0.0
C58 C 0.64663 0.08143 0.56192 0.0
C59 C 0.60358 0.14831 0.52141 0.0
O60 O 0.51168 1.01097 0.5538 0.0
O61 O 0.48023 0.03694 0.52226 0.0
O62 O 0.53739 0.05748 0.48042 0.0
O63 O 0.59199 0.0282 0.48604 0.0
O64 O 0.57152 0.97298 0.52143 0.0
O65 O 0.64372 0.98558 0.50613 0.0
O66 O 0.69031 0.09118 0.47237 0.0
O67 O 0.72771 0.06417 0.50087 0.0
O68 O 0.68529 0.08577 0.55122 0.0
O69 O 0.61756 0.06837 0.54362 0.0
O70 O 0.63525 0.13303 0.50773 0.0
O71 O 0.5719 0.12097 0.53301 0.0
H72 H 0.47894 0.92562 0.55137 0.0
H73 H 0.42198 0.85518 0.54107 0.0
H74 H 0.33453 0.93202 0.51118 0.0
H75 H 0.39096 1.00244 0.52237 0.0
H76 H 0.73053 0.17238 0.50532 0.0
H77 H 0.78908 0.24166 0.50483 0.0
H78 H 0.86783 0.16245 0.4564 0.0
H79 H 0.80898 0.09328 0.45701 0.0
Nd80 Nd 0.53493 0.60723 0.83158 0.0
Nd81 Nd 0.63012 0.64162 0.84851 0.0
C82 C 0.45299 0.5848 0.81152 0.0
C83 C 0.41687 0.54461 0.81272 0.0
C84 C 0.37391 0.54434 0.80391 0.0
C85 C 0.33903 0.50711 0.80672 0.0
C86 C 0.34671 0.46972 0.81849 0.0
C87 C 0.39014 0.46989 0.82679 0.0
C88 C 0.4249 0.50706 0.82397 0.0
C89 C 0.55188 0.60816 0.88495 0.0
C90 C 0.57788 0.71795 0.84082 0.0
C91 C 0.70954 0.65341 0.87075 0.0
C92 C 0.74167 0.62403 0.86743 0.0
C93 C 0.76593 0.61828 0.88965 0.0
C94 C 0.79255 0.58622 0.88721 0.0
C95 C 0.79535 0.55963 0.86246 0.0
C96 C 0.77168 0.56613 0.84012 0.0
C97 C 0.74477 0.5978 0.84263 0.0
C98 C 0.61479 0.63369 0.79427 0.0
C99 C 0.58863 0.52883 0.83573 0.0
O100 O 0.46439 0.61089 0.83436 0.0
O101 O 0.48714 0.57732 0.7978 0.0
O102 O 0.52426 0.57546 0.87042 0.0
O103 O 0.56829 0.63997 0.87159 0.0
O104 O 0.55067 0.68384 0.82584 0.0
O105 O 0.60853 0.7097 0.85643 0.0
O106 O 0.67319 0.63626 0.88249 0.0
O107 O 0.70211 0.67249 0.84991 0.0
O108 O 0.64312 0.6674 0.80764 0.0
O109 O 0.59721 0.60512 0.80927 0.0
O110 O 0.62144 0.56264 0.84631 0.0
O111 O 0.55208 0.5371 0.82607 0.0
H112 H 0.36721 0.57325 0.79533 0.0
H113 H 0.30587 0.50823 0.80041 0.0
H114 H 0.39723 0.44138 0.8356 0.0
H115 H 0.45797 0.50681 0.83093 0.0
H116 H 0.76344 0.63776 0.909 0.0
H117 H 0.81078 0.58205 0.90469 0.0
H118 H 0.7729 0.5457 0.82092 0.0
H119 H 0.72551 0.60092 0.82531 0.0
H120 H 0.61469 0.03027 0.19406 0.0
H121 H 0.66773 0.09638 0.27165 0.0
H122 H 0.55963 0.97835 0.26513 0.0
H123 H 0.67446 0.16047 0.24698 0.0
C124 C 0.69201 0.14565 0.23069 0.0
C125 C 0.61418 0.03217 0.21564 0.0
C126 C 0.58349 0.99965 0.22763 0.0
C127 C 0.64405 0.0676 0.23139 0.0
C128 C 0.64386 0.06995 0.25939 0.0
C129 C 0.61397 0.03738 0.27167 0.0
C130 C 0.58388 1.00248 0.25565 0.0
N131 N 0.675 0.0997 0.21873 0.0
H132 H 0.61476 0.50961 0.51766 0.0
H133 H 0.62054 0.61765 0.58291 0.0
H134 H 0.61189 0.4797 0.59881 0.0
H135 H 0.55076 0.60763 0.53768 0.0
C136 C 0.58294 0.62349 0.53062 0.0
C137 C 0.61578 0.52072 0.53899 0.0
C138 C 0.61285 0.48852 0.55715 0.0
C139 C 0.61751 0.5671 0.54842 0.0
C140 C 0.61811 0.58165 0.57599 0.0
C141 C 0.61667 0.55051 0.59444 0.0
C142 C 0.61379 0.50411 0.58474 0.0
N143 N 0.61759 0.59939 0.53036 0.0
H144 H 0.98252 0.29265 0.8504 0.0
H145 H 1.08861 0.29716 0.90645 0.0
H146 H 1.02653 0.41175 0.9085 0.0
H147 H 1.08203 0.19748 0.86122 0.0
C148 C 1.08054 0.23277 0.8602 0.0
C149 C 1.00446 0.31079 0.86698 0.0
C150 C 1.0022 0.35539 0.87774 0.0
C151 C 1.03635 0.29024 0.87684 0.0
C152 C 1.06461 0.3136 0.89854 0.0
C153 C 1.06127 0.35757 0.9103 0.0
C154 C 1.03037 0.37833 0.89938 0.0
N155 N 1.03947 0.24586 0.86481 0.0
H156 H 0.12549 0.57555 0.46275 0.0
H157 H 1.08176 0.51976 0.38177 0.0
H158 H 0.18091 0.64528 0.3975 0.0
H159 H 0.09582 0.50205 0.47072 0.0
C160 C 1.06863 0.48859 0.4562 0.0
C161 C 0.12762 0.57688 0.44147 0.0
C162 C 0.1563 0.61435 0.43224 0.0
C163 C 0.10047 0.54272 0.42312 0.0
C164 C 0.1026 0.54624 0.39576 0.0
C165 C 0.13199 0.58264 0.38627 0.0
C166 C 0.15857 0.61664 0.40466 0.0
N167 N 1.06931 0.50514 0.43111 0.0
H168 H 0.59675 0.16984 0.83769 0.0
H169 H 0.59397 0.07033 0.76798 0.0
H170 H 0.61412 0.21306 0.75965 0.0
H171 H 0.52795 0.03875 0.79982 0.0
C172 C 0.5554 0.03835 0.8132 0.0
C173 C 0.59901 0.16185 0.81625 0.0
C174 C 0.60591 0.19726 0.80003 0.0
C175 C 0.59435 0.11592 0.80467 0.0
C176 C 0.59731 0.10565 0.77687 0.0
C177 C 0.60465 0.14049 0.76051 0.0
C178 C 0.60878 0.18607 0.77225 0.0
N179 N 0.58728 0.08001 0.82091 0.0
H180 H 0.61696 0.54306 0.14833 0.0
H181 H 0.68189 0.5664 0.07399 0.0
H182 H 0.54502 0.57055 0.08146 0.0
H183 H 0.73858 0.60306 0.10321 0.0
C184 C 0.73909 0.5759 0.11525 0.0
C185 C 0.6161 0.55043 0.12796 0.0
C186 C 0.57579 0.55589 0.11652 0.0
C187 C 0.65559 0.55571 0.113 0.0
C188 C 0.65305 0.56422 0.08628 0.0
C189 C 0.61365 0.5703 0.07507 0.0
C190 C 0.5756 0.56637 0.09032 0.0
N191 N 0.69737 0.55228 0.12444 0.0
H192 H 0.31659 0.6083 0.12874 0.0
H193 H 0.29425 0.48102 0.16193 0.0
H194 H 0.39539 0.61006 0.12682 0.0
H195 H 0.37393 0.48304 0.16029 0.0
H196 H 0.51137 0.47848 0.11979 0.0
H197 H 0.43317 0.47476 0.12967 0.0
H198 H 0.46291 0.62151 0.15198 0.0
H199 H 0.54065 0.62479 0.14161 0.0
C200 C 0.32842 0.58068 0.13585 0.0
C201 C 0.29845 0.54445 0.14549 0.0
C202 C 0.37409 0.58191 0.13495 0.0
C203 C 0.39184 0.54687 0.14354 0.0
C204 C 0.3619 0.51061 0.15331 0.0
C205 C 0.31602 0.50954 0.15439 0.0
C206 C 0.50145 0.50964 0.12787 0.0
C207 C 0.53267 0.55179 0.1306 0.0
C208 C 0.45635 0.50765 0.13334 0.0
C209 C 0.44094 0.54789 0.14135 0.0
C210 C 0.47286 0.58974 0.14542 0.0
C211 C 0.51783 0.59164 0.13999 0.0
H212 H 0.92323 0.21993 0.48627 0.0
H213 H 0.82102 0.29111 0.47115 0.0
H214 H 0.97995 0.28894 0.48179 0.0
H215 H 0.87757 0.36015 0.46713 0.0
H216 H 0.99165 0.45041 0.42697 0.0
H217 H 0.93514 0.38353 0.43447 0.0
H218 H 1.0091 0.36959 0.50429 0.0
H219 H 1.06613 0.4369 0.49667 0.0
C220 C 0.9129 0.25033 0.48206 0.0
C221 C 0.86764 0.25001 0.479 0.0
C222 C 0.94534 0.28996 0.47975 0.0
C223 C 0.93323 0.32996 0.47404 0.0
C224 C 0.88797 0.32976 0.4713 0.0
C225 C 0.85557 0.29032 0.47384 0.0
C226 C 0.99592 0.43322 0.44396 0.0
C227 C 1.03345 0.44878 0.46121 0.0
C228 C 0.96334 0.39502 0.44835 0.0
C229 C 0.9676 0.37127 0.46998 0.0
C230 C 1.00507 0.38695 0.48732 0.0
C231 C 1.03755 0.42554 0.48306 0.0
H232 H 0.61914 0.79738 0.87274 0.0
H233 H 0.53054 0.74739 0.80386 0.0
H234 H 0.61362 0.87581 0.86879 0.0
H235 H 0.52636 0.82515 0.79926 0.0
H236 H 0.49109 0.96135 0.80914 0.0
H237 H 0.49598 0.88555 0.81822 0.0
H238 H 0.63361 0.93783 0.8431 0.0
H239 H 0.62772 0.01455 0.83507 0.0
C240 C 0.59862 0.8031 0.85671 0.0
C241 C 0.575 0.76593 0.83876 0.0
C242 C 0.59565 0.84816 0.85433 0.0
C243 C 0.56921 0.85718 0.83383 0.0
C244 C 0.54615 0.81983 0.81576 0.0
C245 C 0.54877 0.77498 0.81828 0.0
C246 C 0.52224 0.95672 0.81689 0.0
C247 C 0.55896 0.99382 0.82136 0.0
C248 C 0.52526 0.91308 0.82184 0.0
C249 C 0.56545 0.90498 0.83097 0.0
C250 C 0.602 0.9426 0.83626 0.0
C251 C 0.59873 0.98663 0.8316 0.0
H252 H 0.98726 0.4849 0.1503 0.0
H253 H 1.02537 0.61125 0.11663 0.0
H254 H 0.90895 0.48814 0.14615 0.0
H255 H 0.94846 0.6158 0.11368 0.0
H256 H 0.80934 0.59768 0.08479 0.0
H257 H 0.88398 0.58713 0.08952 0.0
H258 H 0.84734 0.52097 0.15955 0.0
H259 H 0.77062 0.52979 0.15366 0.0
C260 C 0.97908 0.51349 0.14211 0.0
C261 C 1.01309 0.54745 0.13344 0.0
C262 C 0.93394 0.51556 0.13988 0.0
C263 C 0.92132 0.55187 0.1291 0.0
C264 C 0.95577 0.5863 0.12122 0.0
C265 C 1.00049 0.58391 0.12312 0.0
C266 C 0.81692 0.58054 0.10117 0.0
C267 C 0.7837 0.56484 0.11886 0.0
C268 C 0.86033 0.57491 0.10414 0.0
C269 C 0.87306 0.55419 0.12539 0.0
C270 C 0.8394 0.53712 0.14286 0.0
C271 C 0.79522 0.54221 0.13956 0.0
H272 H 0.38734 0.8039 0.50321 0.0
H273 H 0.28294 0.87314 0.52814 0.0
H274 H 0.33185 0.73556 0.48553 0.0
H275 H 0.22766 0.8051 0.50974 0.0
H276 H 0.15785 0.70493 0.43537 0.0
H277 H 0.20838 0.76867 0.46217 0.0
H278 H 0.26773 0.67307 0.49768 0.0
H279 H 0.21656 0.60894 0.47075 0.0
C280 C 0.35263 0.80438 0.50542 0.0
C281 C 0.33975 0.8444 0.51689 0.0
C282 C 0.32082 0.76514 0.49524 0.0
C283 C 0.27543 0.7651 0.49608 0.0
C284 C 0.26244 0.80435 0.50848 0.0
C285 C 0.29418 0.84342 0.51889 0.0
C286 C 0.18128 0.69759 0.44921 0.0
C287 C 0.18348 0.65216 0.451 0.0
C288 C 0.21004 0.73401 0.46464 0.0
C289 C 0.24206 0.72587 0.482 0.0
C290 C 0.2435 0.68032 0.48436 0.0
C291 C 0.21414 0.64371 0.46915 0.0
H292 H 0.52353 0.45096 0.82422 0.0
H293 H 0.66362 0.49707 0.8439 0.0
H294 H 0.53059 0.37165 0.8201 0.0
H295 H 0.67058 0.41732 0.83982 0.0
H296 H 0.54868 0.23189 0.8339 0.0
H297 H 0.54628 0.31256 0.84619 0.0
H298 H 0.6656 0.35311 0.80285 0.0
H299 H 0.66807 0.27273 0.79083 0.0
C300 C 0.55585 0.44422 0.82779 0.0
C301 C 0.59305 0.48052 0.83423 0.0
C302 C 0.55979 0.39863 0.82567 0.0
C303 C 0.60112 0.38801 0.82969 0.0
C304 C 0.6383 0.42429 0.83644 0.0
C305 C 0.63427 0.47 0.83886 0.0
C306 C 0.57491 0.25814 0.82756 0.0
C307 C 0.60842 0.24597 0.8113 0.0
C308 C 0.57332 0.30431 0.83434 0.0
C309 C 0.60552 0.33934 0.82528 0.0
C310 C 0.6404 0.32714 0.81029 0.0
C311 C 0.6417 0.28105 0.80328 0.0
H312 H 0.54807 0.89808 0.53886 0.0
H313 H 0.66554 0.90679 0.49192 0.0
H314 H 0.54468 0.81789 0.54069 0.0
H315 H 0.66133 0.82506 0.49303 0.0
H316 H 0.66128 0.687 0.5262 0.0
H317 H 0.66919 0.76789 0.52084 0.0
H318 H 0.52658 0.74659 0.51391 0.0
H319 H 0.51903 0.66699 0.52042 0.0
C320 C 0.57302 0.88279 0.52862 0.0
C321 C 0.60687 0.90908 0.51504 0.0
C322 C 0.5709 0.8364 0.52953 0.0
C323 C 0.60228 0.81439 0.51663 0.0
C324 C 0.63666 0.84075 0.5033 0.0
C325 C 0.63898 0.88761 0.50257 0.0
C326 C 0.63177 0.69968 0.52322 0.0
C327 C 0.58948 0.67083 0.52388 0.0
C328 C 0.63625 0.74603 0.52009 0.0
C329 C 0.59852 0.76427 0.51738 0.0
C330 C 0.55643 0.73441 0.51671 0.0
C331 C 0.55202 0.68854 0.52017 0.0
H332 H 0.79562 0.49491 0.89509 0.0
H333 H 0.85508 0.54502 0.82437 0.0
H334 H 0.84248 0.43932 0.89266 0.0
H335 H 0.90183 0.48903 0.82179 0.0
H336 H 1.01881 0.43852 0.86058 0.0
H337 H 0.96488 0.48326 0.85192 0.0
H338 H 0.85815 0.36935 0.86406 0.0
H339 H 0.91249 0.32453 0.87276 0.0
C340 C 0.8186 0.4938 0.87897 0.0
C341 C 0.82217 0.5245 0.8601 0.0
C342 C 0.84494 0.46163 0.87735 0.0
C343 C 0.87564 0.45982 0.85698 0.0
C344 C 0.87846 0.4898 0.83771 0.0
C345 C 0.85173 0.52168 0.83916 0.0
C346 C 0.98377 0.42279 0.86076 0.0
C347 C 0.96959 0.37837 0.86747 0.0
C348 C 0.95294 0.44823 0.85569 0.0
C349 C 0.90739 0.42984 0.85754 0.0
C350 C 0.89313 0.38438 0.86274 0.0
C351 C 0.92407 0.35869 0.86751 0.0
H352 H 0.37961 0.82637 0.11369 0.0
H353 H 0.34856 0.7887 0.19219 0.0
H354 H 0.44787 0.87932 0.13222 0.0
H355 H 0.41563 0.84223 0.21074 0.0
H356 H 0.55737 0.90903 0.23335 0.0
H357 H 0.49573 0.85233 0.21037 0.0
H358 H 0.47064 0.95248 0.16225 0.0
H359 H 0.53257 1.00926 0.18523 0.0
C360 C 0.38741 0.82929 0.13486 0.0
C361 C 0.35854 0.80351 0.15149 0.0
C362 C 0.4263 0.85986 0.1455 0.0
C363 C 0.43729 0.86492 0.17295 0.0
C364 C 0.40854 0.83877 0.18946 0.0
C365 C 0.36973 0.80849 0.17888 0.0
C366 C 0.53884 0.91888 0.21776 0.0
C367 C 0.54957 0.96378 0.21131 0.0
C368 C 0.50347 0.88642 0.20463 0.0
C369 C 0.47786 0.89804 0.18472 0.0
C370 C 0.48987 0.94232 0.17736 0.0
C371 C 0.52537 0.97486 0.19052 0.0
H372 H 0.53415 0.18884 0.53351 0.0
H373 H 0.67255 0.22003 0.5143 0.0
H374 H 0.53355 0.26975 0.53803 0.0
H375 H 0.67279 0.30152 0.52019 0.0
H376 H 0.65505 0.44595 0.51639 0.0
H377 H 0.65075 0.36378 0.50477 0.0
H378 H 0.55694 0.33629 0.56719 0.0
H379 H 0.55897 0.41717 0.57731 0.0
C380 C 0.56464 0.21306 0.53049 0.0
C381 C 0.60348 0.19787 0.52378 0.0
C382 C 0.56441 0.25971 0.53321 0.0
C383 C 0.60327 0.29276 0.52983 0.0
C384 C 0.64201 0.27737 0.52265 0.0
C385 C 0.64201 0.23052 0.51948 0.0
C386 C 0.63286 0.42217 0.52721 0.0
C387 C 0.60784 0.43841 0.54804 0.0
C388 C 0.63083 0.375 0.52082 0.0
C389 C 0.60375 0.34292 0.53513 0.0
C390 C 0.5778 0.35938 0.55538 0.0
C391 C 0.5795 0.40618 0.56153 0.0
H392 H 0.27672 0.42665 0.7844 0.0
H393 H 0.33209 0.42671 0.86299 0.0
H394 H 0.21354 0.36639 0.79292 0.0
H395 H 0.269 0.36662 0.8715 0.0
H396 H 0.16656 0.23171 0.86958 0.0
H397 H 0.23282 0.28591 0.8579 0.0
H398 H 0.14963 0.35988 0.82127 0.0
H399 H 1.08407 0.30501 0.832 0.0
C400 C 0.27535 0.41385 0.8035 0.0
C401 C 0.30933 0.43153 0.82304 0.0
C402 C 0.2392 0.37934 0.80838 0.0
C403 C 0.23621 0.36183 0.83292 0.0
C404 C 0.27063 0.37889 0.85225 0.0
C405 C 0.30678 0.41336 0.84737 0.0
C406 C 0.1627 0.25954 0.85894 0.0
C407 C 0.12033 0.26498 0.85237 0.0
C408 C 0.20048 0.29065 0.85239 0.0
C409 C 0.19645 0.3274 0.83884 0.0
C410 C 0.15392 0.33186 0.83159 0.0
C411 C 0.11629 0.30085 0.83816 0.0
H412 H 0.90217 0.36225 0.18334 0.0
H413 H 0.96638 0.25484 0.19951 0.0
H414 H 0.83053 0.31468 0.19237 0.0
H415 H 0.89459 0.20703 0.20769 0.0
H416 H 0.75263 0.11889 0.19581 0.0
H417 H 0.82244 0.1663 0.18331 0.0
H418 H 0.79383 0.28378 0.23275 0.0
H419 H 0.72417 0.23635 0.2453 0.0
C420 C 0.90115 0.32864 0.18889 0.0
C421 C 0.94028 0.31257 0.19076 0.0
C422 C 0.86003 0.30132 0.19393 0.0
C423 C 0.85696 0.25712 0.20068 0.0
C424 C 0.89584 0.24071 0.20215 0.0
C425 C 0.93701 0.26816 0.19739 0.0
C426 C 0.7611 0.1549 0.20382 0.0
C427 C 0.73303 0.17407 0.22151 0.0
C428 C 0.80115 0.18196 0.19678 0.0
C429 C 0.81359 0.22873 0.20708 0.0
C430 C 0.78494 0.24798 0.22429 0.0
C431 C 0.74521 0.22083 0.23155 0.0
H432 H 0.10915 0.52815 0.06085 0.0
H433 H 0.1969 0.43657 0.06678 0.0
H434 H 0.0944 0.49755 0.01347 0.0
H435 H 0.18216 0.40614 0.01969 0.0
H436 H 1.08073 0.31849 0.95338 0.0
H437 H 0.1123 0.3573 -0.00331 0.0
H438 H 0.12927 0.48805 0.96779 0.0
H439 H 0.09894 0.44919 0.92398 0.0
C440 C 0.12589 0.50217 0.05191 0.0
C441 C 0.15364 0.48426 0.06753 0.0
C442 C 0.11759 0.48476 0.02482 0.0
C443 C 0.13678 0.44908 0.01303 0.0
C444 C 0.16644 0.43313 0.02836 0.0
C445 C 0.17493 0.45067 0.05529 0.0
C446 C 0.09239 0.35538 0.9559 0.0
C447 C 1.08687 0.38067 0.93521 0.0
C448 C 0.11032 0.37766 0.9808 0.0
C449 C 0.12285 0.42574 0.98566 0.0
C450 C 0.11926 0.451 0.96469 0.0
C451 C 0.10182 0.42868 0.93965 0.0
H452 H 0.63147 1.00493 0.44113 0.0
H453 H 0.53556 0.08743 0.43422 0.0
H454 H 0.64654 1.00518 0.39348 0.0
H455 H 0.55047 0.08766 0.38681 0.0
H456 H 0.61651 0.1133 0.30821 0.0
H457 H 0.61107 0.11725 0.35673 0.0
H458 H 0.6035 0.97176 0.35032 0.0
H459 H 0.60956 0.96792 0.30184 0.0
C460 C 0.61385 0.0233 0.42944 0.0
C461 C 0.58225 0.04602 0.44125 0.0
C462 C 0.62232 0.0233 0.40221 0.0
C463 C 0.59968 0.04645 0.38644 0.0
C464 C 0.56879 0.06996 0.3985 0.0
C465 C 0.56005 0.06957 0.42559 0.0
C466 C 0.6143 0.08231 0.31722 0.0
C467 C 0.61326 0.04027 0.30124 0.0
C468 C 0.61085 0.08451 0.34494 0.0
C469 C 0.6067 0.04479 0.35729 0.0
C470 C 0.60699 1.00299 0.34139 0.0
C471 C 0.61003 1.00072 0.31364 0.0
H472 H 0.58262 0.55162 0.76391 0.0
H473 H 0.64214 0.69346 0.75847 0.0
H474 H 0.58371 0.53375 0.71527 0.0
H475 H 0.64207 0.67559 0.70955 0.0
H476 H 0.57815 0.61672 0.62131 0.0
H477 H 0.5777 0.63965 0.66959 0.0
H478 H 0.65423 0.54085 0.68251 0.0
H479 H 0.65724 0.51958 0.63441 0.0
C480 C 0.59549 0.57903 0.75227 0.0
C481 C 0.61256 0.62387 0.76487 0.0
C482 C 0.59623 0.56876 0.72452 0.0
C483 C 0.61314 0.60331 0.70884 0.0
C484 C 0.62882 0.64847 0.72131 0.0
C485 C 0.62896 0.6586 0.74918 0.0
C486 C 0.59571 0.60046 0.63433 0.0
C487 C 0.61744 0.56593 0.6238 0.0
C488 C 0.59515 0.61347 0.66196 0.0
C489 C 0.61557 0.59164 0.6796 0.0
C490 C 0.63773 0.55769 0.66924 0.0
C491 C 0.63911 0.54534 0.64167 0.0
H492 H 0.70798 0.0974 0.60244 0.0
H493 H 0.56796 0.08154 0.58641 0.0
H494 H 0.6961 0.10984 0.65038 0.0
H495 H 0.55583 0.09361 0.63453 0.0
H496 H 0.56582 0.17298 0.72073 0.0
H497 H 0.57463 0.15719 0.67253 0.0
H498 H 0.66018 0.06655 0.68588 0.0
H499 H 0.65208 0.08306 0.73406 0.0
C500 C 0.67461 0.09638 0.60923 0.0
C501 C 0.63883 0.08833 0.59081 0.0
C502 C 0.66776 0.10322 0.63666 0.0
C503 C 0.62501 0.10251 0.64623 0.0
C504 C 0.58919 0.09462 0.62774 0.0
C505 C 0.59604 0.08742 0.60025 0.0
C506 C 0.58658 0.14978 0.71334 0.0
C507 C 0.60842 0.12941 0.73117 0.0
C508 C 0.59127 0.1404 0.68575 0.0
C509 C 0.61818 0.11072 0.67543 0.0
C510 C 0.63957 0.08992 0.69326 0.0
C511 C 0.63462 0.09904 0.72082 0.0
H512 H 0.59779 0.67702 0.9222 0.0
H513 H 0.53687 0.53249 0.90983 0.0
H514 H 0.61833 0.67086 0.96842 0.0
H515 H 0.55789 0.52626 0.95549 0.0
H516 H 0.63964 0.5234 0.03015 0.0
H517 H 0.62966 0.53524 0.98366 0.0
H518 H 0.5727 0.65092 0.01059 0.0
H519 H 0.58243 0.63888 0.05704 0.0
C520 C 0.58901 0.64403 0.92934 0.0
C521 C 0.56548 0.60532 0.91258 0.0
C522 C 0.60069 0.6405 0.95569 0.0
C523 C 0.58984 0.59803 0.96545 0.0
C524 C 0.56709 0.5593 0.94843 0.0
C525 C 0.55477 0.56297 0.92236 0.0
C526 C 0.62561 0.55172 0.0261 0.0
C527 C 0.61157 0.58007 0.04712 0.0
C528 C 0.61971 0.55837 -0.00044 0.0
C529 C 0.60031 0.59393 0.99357 0.0
C530 C 0.58801 0.62346 0.01465 0.0
C531 C 0.59327 0.61637 0.04117 0.0
H532 H 0.1989 0.54698 0.21923 0.0
H533 H 0.10546 0.63445 0.22187 0.0
H534 H 0.19263 0.5454 0.26736 0.0
H535 H 0.09903 0.63271 0.27008 0.0
H536 H 0.20709 0.59915 0.35758 0.0
H537 H 0.21279 0.60204 0.30953 0.0
H538 H 1.07005 0.57382 0.30121 0.0
H539 H 1.06435 0.57119 0.34936 0.0
C540 C 0.17708 0.56591 0.23014 0.0
C541 C 0.15278 0.59099 0.21691 0.0
C542 C 0.17363 0.56514 0.25767 0.0
C543 C 0.14543 0.58901 0.27244 0.0
C544 C 0.1208 0.61377 0.25914 0.0
C545 C 0.12465 0.61496 0.23163 0.0
C546 C 0.17697 0.59386 0.34549 0.0
C547 C 0.13528 0.58495 0.35717 0.0
C548 C 0.18022 0.59516 0.318 0.0
C549 C 0.14186 0.58808 0.30166 0.0
C550 C 0.10016 0.57968 0.31337 0.0
C551 C 0.09689 0.57783 0.34084 0.0
loop_
_geom_bond_atom_site_label_1
_geom_bond_atom_site_label_2
_geom_bond_distance
_geom_bond_site_symmetry_2
_ccdc_geom_bond_type
Nd0 C2 2.836 . S
Nd0 O20 2.500 . S
Nd0 O21 2.492 . S
Nd0 O22 2.487 . S
Nd0 O23 2.682 . S
Nd0 O24 2.410 . S
Nd0 O29 2.414 . S
Nd0 O31 2.424 1_455 S
Nd1 C11 2.836 1_455 S
Nd1 O23 2.414 . S
Nd1 O25 2.424 . S
Nd1 O26 2.500 1_455 S
Nd1 O27 2.492 1_455 S
Nd1 O28 2.487 . S
Nd1 O29 2.682 . S
Nd1 O30 2.410 1_455 S
C2 Nd0 2.836 . S
C2 C3 1.498 . S
C2 O20 1.258 . S
C2 O21 1.239 . S
C3 C2 1.498 . S
C3 C4 1.366 . S
C3 C8 1.407 . S
C4 C3 1.366 . S
C4 C5 1.392 . S
C4 H32 0.930 . S
C5 C4 1.392 . S
C5 C6 1.398 . S
C5 H33 0.929 . S
C6 C5 1.398 . S
C6 C7 1.352 . S
C7 C6 1.352 . S
C7 C8 1.384 . S
C7 H34 0.930 . S
C8 C3 1.407 . S
C8 C7 1.384 . S
C8 H35 0.929 . S
C9 O22 1.241 . S
C9 O23 1.273 . S
C10 O24 1.251 . S
C10 O25 1.268 . S
C11 Nd1 2.836 1_655 S
C11 C12 1.498 . S
C11 O26 1.258 . S
C11 O27 1.239 . S
C12 C11 1.498 . S
C12 C13 1.366 . S
C12 C17 1.407 . S
C13 C12 1.366 . S
C13 C14 1.392 . S
C13 H36 0.930 . S
C14 C13 1.392 . S
C14 C15 1.398 . S
C14 H37 0.929 . S
C15 C14 1.398 . S
C15 C16 1.352 . S
C16 C15 1.352 . S
C16 C17 1.384 . S
C16 H38 0.930 . S
C17 C12 1.407 . S
C17 C16 1.384 . S
C17 H39 0.929 . S
C18 O28 1.241 . S
C18 O29 1.273 . S
C19 O30 1.251 . S
C19 O31 1.268 . S
O20 Nd0 2.500 . S
O20 C2 1.258 . S
O21 Nd0 2.492 . S
O21 C2 1.239 . S
O22 Nd0 2.487 . S
O22 C9 1.241 . S
O23 Nd0 2.682 . S
O23 Nd1 2.414 . S
O23 C9 1.273 . S
O24 Nd0 2.410 . S
O24 C10 1.251 . S
O25 Nd1 2.424 . S
O25 C10 1.268 . S
O26 Nd1 2.500 1_655 S
O26 C11 1.258 . S
O27 Nd1 2.492 1_655 S
O27 C11 1.239 . S
O28 Nd1 2.487 . S
O28 C18 1.241 . S
O29 Nd0 2.414 . S
O29 Nd1 2.682 . S
O29 C18 1.273 . S
O30 Nd1 2.410 1_655 S
O30 C19 1.251 . S
O31 Nd0 2.424 1_655 S
O31 C19 1.268 . S
H32 C4 0.930 . S
H33 C5 0.929 . S
H34 C7 0.930 . S
H35 C8 0.929 . S
H36 C13 0.930 . S
H37 C14 0.929 . S
H38 C16 0.930 . S
H39 C17 0.929 . S
Nd40 C42 2.836 1_545 S
Nd40 O60 2.500 1_545 S
Nd40 O61 2.492 1_545 S
Nd40 O62 2.487 . S
Nd40 O63 2.682 . S
Nd40 O64 2.410 1_545 S
Nd40 O69 2.414 . S
Nd40 O71 2.424 . S
Nd41 C51 2.836 . S
Nd41 O63 2.414 . S
Nd41 O65 2.424 1_545 S
Nd41 O66 2.500 . S
Nd41 O67 2.492 . S
Nd41 O68 2.487 . S
Nd41 O69 2.682 . S
Nd41 O70 2.410 . S
C42 Nd40 2.836 1_565 S
C42 C43 1.498 . S
C42 O60 1.258 . S
C42 O61 1.239 . S
C43 C42 1.498 . S
C43 C44 1.366 . S
C43 C48 1.407 . S
C44 C43 1.366 . S
C44 C45 1.392 . S
C44 H72 0.930 . S
C45 C44 1.392 . S
C45 C46 1.398 . S
C45 H73 0.929 . S
C46 C45 1.398 . S
C46 C47 1.352 . S
C47 C46 1.352 . S
C47 C48 1.384 . S
C47 H74 0.930 . S
C48 C43 1.407 . S
C48 C47 1.384 . S
C48 H75 0.929 . S
C49 O62 1.241 . S
C49 O63 1.273 . S
C50 O64 1.251 . S
C50 O65 1.268 . S
C51 Nd41 2.836 . S
C51 C52 1.498 . S
C51 O66 1.258 . S
C51 O67 1.239 . S
C52 C51 1.498 . S
C52 C53 1.366 . S
C52 C57 1.407 . S
C53 C52 1.366 . S
C53 C54 1.392 . S
C53 H76 0.930 . S
C54 C53 1.392 . S
C54 C55 1.398 . S
C54 H77 0.929 . S
C55 C54 1.398 . S
C55 C56 1.352 . S
C56 C55 1.352 . S
C56 C57 1.384 . S
C56 H78 0.930 . S
C57 C52 1.407 . S
C57 C56 1.384 . S
C57 H79 0.929 . S
C58 O68 1.241 . S
C58 O69 1.273 . S
C59 O70 1.251 . S
C59 O71 1.268 . S
O60 Nd40 2.500 1_565 S
O60 C42 1.258 . S
O61 Nd40 2.492 1_565 S
O61 C42 1.239 . S
O62 Nd40 2.487 . S
O62 C49 1.241 . S
O63 Nd40 2.682 . S
O63 Nd41 2.414 . S
O63 C49 1.273 . S
O64 Nd40 2.410 1_565 S
O64 C50 1.251 . S
O65 Nd41 2.424 1_565 S
O65 C50 1.268 . S
O66 Nd41 2.500 . S
O66 C51 1.258 . S
O67 Nd41 2.492 . S
O67 C51 1.239 . S
O68 Nd41 2.487 . S
O68 C58 1.241 . S
O69 Nd40 2.414 . S
O69 Nd41 2.682 . S
O69 C58 1.273 . S
O70 Nd41 2.410 . S
O70 C59 1.251 . S
O71 Nd40 2.424 . S
O71 C59 1.268 . S
H72 C44 0.930 . S
H73 C45 0.929 . S
H74 C47 0.930 . S
H75 C48 0.929 . S
H76 C53 0.930 . S
H77 C54 0.929 . S
H78 C56 0.930 . S
H79 C57 0.929 . S
Nd80 C82 2.836 . S
Nd80 O100 2.500 . S
Nd80 O101 2.492 . S
Nd80 O102 2.487 . S
Nd80 O103 2.682 . S
Nd80 O104 2.410 . S
Nd80 O109 2.414 . S
Nd80 O111 2.424 . S
Nd81 C91 2.836 . S
Nd81 O103 2.414 . S
Nd81 O105 2.424 . S
Nd81 O106 2.500 . S
Nd81 O107 2.492 . S
Nd81 O108 2.487 . S
Nd81 O109 2.682 . S
Nd81 O110 2.410 . S
C82 Nd80 2.836 . S
C82 C83 1.498 . S
C82 O100 1.258 . S
C82 O101 1.239 . S
C83 C82 1.498 . S
C83 C84 1.366 . S
C83 C88 1.407 . S
C84 C83 1.366 . S
C84 C85 1.392 . S
C84 H112 0.930 . S
C85 C84 1.392 . S
C85 C86 1.398 . S
C85 H113 0.929 . S
C86 C85 1.398 . S
C86 C87 1.352 . S
C87 C86 1.352 . S
C87 C88 1.384 . S
C87 H114 0.930 . S
C88 C83 1.407 . S
C88 C87 1.384 . S
C88 H115 0.929 . S
C89 O102 1.241 . S
C89 O103 1.273 . S
C90 O104 1.251 . S
C90 O105 1.268 . S
C91 Nd81 2.836 . S
C91 C92 1.498 . S
C91 O106 1.258 . S
C91 O107 1.239 . S
C92 C91 1.498 . S
C92 C93 1.366 . S
C92 C97 1.407 . S
C93 C92 1.366 . S
C93 C94 1.392 . S
C93 H116 0.930 . S
C94 C93 1.392 . S
C94 C95 1.398 . S
C94 H117 0.929 . S
C95 C94 1.398 . S
C95 C96 1.352 . S
C96 C95 1.352 . S
C96 C97 1.384 . S
C96 H118 0.930 . S
C97 C92 1.407 . S
C97 C96 1.384 . S
C97 H119 0.929 . S
C98 O108 1.241 . S
C98 O109 1.273 . S
C99 O110 1.251 . S
C99 O111 1.268 . S
O100 Nd80 2.500 . S
O100 C82 1.258 . S
O101 Nd80 2.492 . S
O101 C82 1.239 . S
O102 Nd80 2.487 . S
O102 C89 1.241 . S
O103 Nd80 2.682 . S
O103 Nd81 2.414 . S
O103 C89 1.273 . S
O104 Nd80 2.410 . S
O104 C90 1.251 . S
O105 Nd81 2.424 . S
O105 C90 1.268 . S
O106 Nd81 2.500 . S
O106 C91 1.258 . S
O107 Nd81 2.492 . S
O107 C91 1.239 . S
O108 Nd81 2.487 . S
O108 C98 1.241 . S
O109 Nd80 2.414 . S
O109 Nd81 2.682 . S
O109 C98 1.273 . S
O110 Nd81 2.410 . S
O110 C99 1.251 . S
O111 Nd80 2.424 . S
O111 C99 1.268 . S
H112 C84 0.930 . S
H113 C85 0.929 . S
H114 C87 0.930 . S
H115 C88 0.929 . S
H116 C93 0.930 . S
H117 C94 0.929 . S
H118 C96 0.930 . S
H119 C97 0.929 . S
H120 C125 0.930 . S
H121 C128 0.930 . S
H122 C130 0.930 . S
H123 C124 1.016 . S
C124 H123 1.016 . S
C124 N131 1.286 . S
C125 H120 0.930 . S
C125 C126 1.397 . S
C125 C127 1.361 . S
C126 C125 1.397 . S
C126 C130 1.390 . S
C127 C125 1.361 . S
C127 C128 1.393 . S
C127 N131 1.413 . S
C128 H121 0.930 . S
C128 C127 1.393 . S
C128 C129 1.399 . S
C129 C128 1.399 . S
C129 C130 1.381 . S
C130 H122 0.930 . S
C130 C126 1.390 . S
C130 C129 1.381 . S
N131 C124 1.286 . S
N131 C127 1.413 . S
H132 C137 0.930 . S
H133 C140 0.930 . S
H134 C142 0.930 . S
H135 C136 1.016 . S
C136 H135 1.016 . S
C136 N143 1.286 . S
C137 H132 0.930 . S
C137 C138 1.397 . S
C137 C139 1.361 . S
C138 C137 1.397 . S
C138 C142 1.390 . S
C139 C137 1.361 . S
C139 C140 1.393 . S
C139 N143 1.413 . S
C140 H133 0.930 . S
C140 C139 1.393 . S
C140 C141 1.399 . S
C141 C140 1.399 . S
C141 C142 1.381 . S
C142 H134 0.930 . S
C142 C138 1.390 . S
C142 C141 1.381 . S
N143 C136 1.286 . S
N143 C139 1.413 . S
H144 C149 0.930 . S
H145 C152 0.930 . S
H146 C154 0.930 1_655 S
H147 C148 1.016 . S
C148 H147 1.016 . S
C148 N155 1.286 . S
C149 H144 0.930 . S
C149 C150 1.397 1_455 S
C149 C151 1.361 . S
C150 C149 1.397 1_655 S
C150 C154 1.390 1_655 S
C151 C149 1.361 . S
C151 C152 1.393 . S
C151 N155 1.413 . S
C152 H145 0.930 . S
C152 C151 1.393 . S
C152 C153 1.399 . S
C153 C152 1.399 . S
C153 C154 1.381 . S
C154 H146 0.930 1_455 S
C154 C150 1.390 1_455 S
C154 C153 1.381 . S
N155 C148 1.286 . S
N155 C151 1.413 . S
H156 C161 0.930 . S
H157 C164 0.930 . S
H158 C166 0.930 . S
H159 C160 1.016 . S
C160 H159 1.016 . S
C160 N167 1.286 . S
C161 H156 0.930 . S
C161 C162 1.397 . S
C161 C163 1.361 1_455 S
C162 C161 1.397 . S
C162 C166 1.390 . S
C163 C161 1.361 1_655 S
C163 C164 1.393 . S
C163 N167 1.413 . S
C164 H157 0.930 . S
C164 C163 1.393 . S
C164 C165 1.399 1_655 S
C165 C164 1.399 1_455 S
C165 C166 1.381 . S
C166 H158 0.930 . S
C166 C162 1.390 . S
C166 C165 1.381 . S
N167 C160 1.286 . S
N167 C163 1.413 . S
H168 C173 0.930 . S
H169 C176 0.930 . S
H170 C178 0.930 . S
H171 C172 1.016 . S
C172 H171 1.016 . S
C172 N179 1.286 . S
C173 H168 0.930 . S
C173 C174 1.397 . S
C173 C175 1.361 . S
C174 C173 1.397 . S
C174 C178 1.390 . S
C175 C173 1.361 . S
C175 C176 1.393 1_545 S
C175 N179 1.413 1_545 S
C176 H169 0.930 . S
C176 C175 1.393 1_565 S
C176 C177 1.399 1_565 S
C177 C176 1.399 1_545 S
C177 C178 1.381 . S
C178 H170 0.930 . S
C178 C174 1.390 . S
C178 C177 1.381 . S
N179 C172 1.286 . S
N179 C175 1.413 1_565 S
H180 C185 0.930 . S
H181 C188 0.930 . S
H182 C190 0.930 . S
H183 C184 1.016 . S
C184 H183 1.016 . S
C184 N191 1.286 . S
C185 H180 0.930 . S
C185 C186 1.397 . S
C185 C187 1.361 . S
C186 C185 1.397 . S
C186 C190 1.390 . S
C187 C185 1.361 . S
C187 C188 1.393 . S
C187 N191 1.413 . S
C188 H181 0.930 . S
C188 C187 1.393 . S
C188 C189 1.399 . S
C189 C188 1.399 . S
C189 C190 1.381 . S
C190 H182 0.930 . S
C190 C186 1.390 . S
C190 C189 1.381 . S
N191 C184 1.286 . S
N191 C187 1.413 . S
H192 C200 0.950 . S
H193 C205 0.950 . S
H194 C202 0.950 . S
H195 C204 0.950 . S
H196 C206 0.950 . S
H197 C208 0.950 . S
H198 C210 0.950 . S
H199 C211 0.950 . S
C200 H192 0.950 . S
C200 C201 1.386 . S
C200 C202 1.391 . S
C201 C200 1.386 . S
C201 C205 1.393 . S
C202 H194 0.950 . S
C202 C200 1.391 . S
C202 C203 1.400 . S
C203 C202 1.400 . S
C203 C204 1.398 . S
C203 C209 1.491 . S
C204 H195 0.950 . S
C204 C203 1.398 . S
C204 C205 1.391 . S
C205 H193 0.950 . S
C205 C201 1.393 . S
C205 C204 1.391 . S
C206 H196 0.950 . S
C206 C207 1.386 . S
C206 C208 1.391 . S
C207 C206 1.386 . S
C207 C211 1.393 . S
C208 H197 0.950 . S
C208 C206 1.391 . S
C208 C209 1.400 . S
C209 C203 1.491 . S
C209 C208 1.400 . S
C209 C210 1.398 . S
C210 H198 0.950 . S
C210 C209 1.398 . S
C210 C211 1.391 . S
C211 H199 0.950 . S
C211 C207 1.393 . S
C211 C210 1.391 . S
H212 C220 0.950 . S
H213 C225 0.950 . S
H214 C222 0.950 . S
H215 C224 0.950 . S
H216 C226 0.950 . S
H217 C228 0.950 . S
H218 C230 0.950 . S
H219 C231 0.950 . S
C220 H212 0.950 . S
C220 C221 1.386 . S
C220 C222 1.391 . S
C221 C220 1.386 . S
C221 C225 1.393 . S
C222 H214 0.950 . S
C222 C220 1.391 . S
C222 C223 1.400 . S
C223 C222 1.400 . S
C223 C224 1.398 . S
C223 C229 1.491 . S
C224 H215 0.950 . S
C224 C223 1.398 . S
C224 C225 1.391 . S
C225 H213 0.950 . S
C225 C221 1.393 . S
C225 C224 1.391 . S
C226 H216 0.950 . S
C226 C227 1.386 . S
C226 C228 1.391 . S
C227 C226 1.386 . S
C227 C231 1.393 . S
C228 H217 0.950 . S
C228 C226 1.391 . S
C228 C229 1.400 . S
C229 C223 1.491 . S
C229 C228 1.400 . S
C229 C230 1.398 . S
C230 H218 0.950 . S
C230 C229 1.398 . S
C230 C231 1.391 . S
C231 H219 0.950 . S
C231 C227 1.393 . S
C231 C230 1.391 . S
H232 C240 0.950 . S
H233 C245 0.950 . S
H234 C242 0.950 . S
H235 C244 0.950 . S
H236 C246 0.950 . S
H237 C248 0.950 . S
H238 C250 0.950 . S
H239 C251 0.950 . S
C240 H232 0.950 . S
C240 C241 1.386 . S
C240 C242 1.391 . S
C241 C240 1.386 . S
C241 C245 1.393 . S
C242 H234 0.950 . S
C242 C240 1.391 . S
C242 C243 1.400 . S
C243 C242 1.400 . S
C243 C244 1.398 . S
C243 C249 1.491 . S
C244 H235 0.950 . S
C244 C243 1.398 . S
C244 C245 1.391 . S
C245 H233 0.950 . S
C245 C241 1.393 . S
C245 C244 1.391 . S
C246 H236 0.950 . S
C246 C247 1.386 . S
C246 C248 1.391 . S
C247 C246 1.386 . S
C247 C251 1.393 . S
C248 H237 0.950 . S
C248 C246 1.391 . S
C248 C249 1.400 . S
C249 C243 1.491 . S
C249 C248 1.400 . S
C249 C250 1.398 . S
C250 H238 0.950 . S
C250 C249 1.398 . S
C250 C251 1.391 . S
C251 H239 0.950 . S
C251 C247 1.393 . S
C251 C250 1.391 . S
H252 C260 0.950 . S
H253 C265 0.950 . S
H254 C262 0.950 . S
H255 C264 0.950 . S
H256 C266 0.950 . S
H257 C268 0.950 . S
H258 C270 0.950 . S
H259 C271 0.950 . S
C260 H252 0.950 . S
C260 C261 1.386 . S
C260 C262 1.391 . S
C261 C260 1.386 . S
C261 C265 1.393 . S
C262 H254 0.950 . S
C262 C260 1.391 . S
C262 C263 1.400 . S
C263 C262 1.400 . S
C263 C264 1.398 . S
C263 C269 1.491 . S
C264 H255 0.950 . S
C264 C263 1.398 . S
C264 C265 1.391 . S
C265 H253 0.950 . S
C265 C261 1.393 . S
C265 C264 1.391 . S
C266 H256 0.950 . S
C266 C267 1.386 . S
C266 C268 1.391 . S
C267 C266 1.386 . S
C267 C271 1.393 . S
C268 H257 0.950 . S
C268 C266 1.391 . S
C268 C269 1.400 . S
C269 C263 1.491 . S
C269 C268 1.400 . S
C269 C270 1.398 . S
C270 H258 0.950 . S
C270 C269 1.398 . S
C270 C271 1.391 . S
C271 H259 0.950 . S
C271 C267 1.393 . S
C271 C270 1.391 . S
H272 C280 0.950 . S
H273 C285 0.950 . S
H274 C282 0.950 . S
H275 C284 0.950 . S
H276 C286 0.950 . S
H277 C288 0.950 . S
H278 C290 0.950 . S
H279 C291 0.950 . S
C280 H272 0.950 . S
C280 C281 1.386 . S
C280 C282 1.391 . S
C281 C280 1.386 . S
C281 C285 1.393 . S
C282 H274 0.950 . S
C282 C280 1.391 . S
C282 C283 1.400 . S
C283 C282 1.400 . S
C283 C284 1.398 . S
C283 C289 1.491 . S
C284 H275 0.950 . S
C284 C283 1.398 . S
C284 C285 1.391 . S
C285 H273 0.950 . S
C285 C281 1.393 . S
C285 C284 1.391 . S
C286 H276 0.950 . S
C286 C287 1.386 . S
C286 C288 1.391 . S
C287 C286 1.386 . S
C287 C291 1.393 . S
C288 H277 0.950 . S
C288 C286 1.391 . S
C288 C289 1.400 . S
C289 C283 1.491 . S
C289 C288 1.400 . S
C289 C290 1.398 . S
C290 H278 0.950 . S
C290 C289 1.398 . S
C290 C291 1.391 . S
C291 H279 0.950 . S
C291 C287 1.393 . S
C291 C290 1.391 . S
H292 C300 0.950 . S
H293 C305 0.950 . S
H294 C302 0.950 . S
H295 C304 0.950 . S
H296 C306 0.950 . S
H297 C308 0.950 . S
H298 C310 0.950 . S
H299 C311 0.950 . S
C300 H292 0.950 . S
C300 C301 1.386 . S
C300 C302 1.391 . S
C301 C300 1.386 . S
C301 C305 1.393 . S
C302 H294 0.950 . S
C302 C300 1.391 . S
C302 C303 1.400 . S
C303 C302 1.400 . S
C303 C304 1.398 . S
C303 C309 1.491 . S
C304 H295 0.950 . S
C304 C303 1.398 . S
C304 C305 1.391 . S
C305 H293 0.950 . S
C305 C301 1.393 . S
C305 C304 1.391 . S
C306 H296 0.950 . S
C306 C307 1.386 . S
C306 C308 1.391 . S
C307 C306 1.386 . S
C307 C311 1.393 . S
C308 H297 0.950 . S
C308 C306 1.391 . S
C308 C309 1.400 . S
C309 C303 1.491 . S
C309 C308 1.400 . S
C309 C310 1.398 . S
C310 H298 0.950 . S
C310 C309 1.398 . S
C310 C311 1.391 . S
C311 H299 0.950 . S
C311 C307 1.393 . S
C311 C310 1.391 . S
H312 C320 0.950 . S
H313 C325 0.950 . S
H314 C322 0.950 . S
H315 C324 0.950 . S
H316 C326 0.950 . S
H317 C328 0.950 . S
H318 C330 0.950 . S
H319 C331 0.950 . S
C320 H312 0.950 . S
C320 C321 1.386 . S
C320 C322 1.391 . S
C321 C320 1.386 . S
C321 C325 1.393 . S
C322 H314 0.950 . S
C322 C320 1.391 . S
C322 C323 1.400 . S
C323 C322 1.400 . S
C323 C324 1.398 . S
C323 C329 1.491 . S
C324 H315 0.950 . S
C324 C323 1.398 . S
C324 C325 1.391 . S
C325 H313 0.950 . S
C325 C321 1.393 . S
C325 C324 1.391 . S
C326 H316 0.950 . S
C326 C327 1.386 . S
C326 C328 1.391 . S
C327 C326 1.386 . S
C327 C331 1.393 . S
C328 H317 0.950 . S
C328 C326 1.391 . S
C328 C329 1.400 . S
C329 C323 1.491 . S
C329 C328 1.400 . S
C329 C330 1.398 . S
C330 H318 0.950 . S
C330 C329 1.398 . S
C330 C331 1.391 . S
C331 H319 0.950 . S
C331 C327 1.393 . S
C331 C330 1.391 . S
H332 C340 0.950 . S
H333 C345 0.950 . S
H334 C342 0.950 . S
H335 C344 0.950 . S
H336 C346 0.950 . S
H337 C348 0.950 . S
H338 C350 0.950 . S
H339 C351 0.950 . S
C340 H332 0.950 . S
C340 C341 1.386 . S
C340 C342 1.391 . S
C341 C340 1.386 . S
C341 C345 1.393 . S
C342 H334 0.950 . S
C342 C340 1.391 . S
C342 C343 1.400 . S
C343 C342 1.400 . S
C343 C344 1.398 . S
C343 C349 1.491 . S
C344 H335 0.950 . S
C344 C343 1.398 . S
C344 C345 1.391 . S
C345 H333 0.950 . S
C345 C341 1.393 . S
C345 C344 1.391 . S
C346 H336 0.950 . S
C346 C347 1.386 . S
C346 C348 1.391 . S
C347 C346 1.386 . S
C347 C351 1.393 . S
C348 H337 0.950 . S
C348 C346 1.391 . S
C348 C349 1.400 . S
C349 C343 1.491 . S
C349 C348 1.400 . S
C349 C350 1.398 . S
C350 H338 0.950 . S
C350 C349 1.398 . S
C350 C351 1.391 . S
C351 H339 0.950 . S
C351 C347 1.393 . S
C351 C350 1.391 . S
H352 C360 0.950 . S
H353 C365 0.950 . S
H354 C362 0.950 . S
H355 C364 0.950 . S
H356 C366 0.950 . S
H357 C368 0.950 . S
H358 C370 0.950 . S
H359 C371 0.950 1_545 S
C360 H352 0.950 . S
C360 C361 1.386 . S
C360 C362 1.391 . S
C361 C360 1.386 . S
C361 C365 1.393 . S
C362 H354 0.950 . S
C362 C360 1.391 . S
C362 C363 1.400 . S
C363 C362 1.400 . S
C363 C364 1.398 . S
C363 C369 1.491 . S
C364 H355 0.950 . S
C364 C363 1.398 . S
C364 C365 1.391 . S
C365 H353 0.950 . S
C365 C361 1.393 . S
C365 C364 1.391 . S
C366 H356 0.950 . S
C366 C367 1.386 . S
C366 C368 1.391 . S
C367 C366 1.386 . S
C367 C371 1.393 . S
C368 H357 0.950 . S
C368 C366 1.391 . S
C368 C369 1.400 . S
C369 C363 1.491 . S
C369 C368 1.400 . S
C369 C370 1.398 . S
C370 H358 0.950 . S
C370 C369 1.398 . S
C370 C371 1.391 . S
C371 H359 0.950 1_565 S
C371 C367 1.393 . S
C371 C370 1.391 . S
H372 C380 0.950 . S
H373 C385 0.950 . S
H374 C382 0.950 . S
H375 C384 0.950 . S
H376 C386 0.950 . S
H377 C388 0.950 . S
H378 C390 0.950 . S
H379 C391 0.950 . S
C380 H372 0.950 . S
C380 C381 1.386 . S
C380 C382 1.391 . S
C381 C380 1.386 . S
C381 C385 1.393 . S
C382 H374 0.950 . S
C382 C380 1.391 . S
C382 C383 1.400 . S
C383 C382 1.400 . S
C383 C384 1.398 . S
C383 C389 1.491 . S
C384 H375 0.950 . S
C384 C383 1.398 . S
C384 C385 1.391 . S
C385 H373 0.950 . S
C385 C381 1.393 . S
C385 C384 1.391 . S
C386 H376 0.950 . S
C386 C387 1.386 . S
C386 C388 1.391 . S
C387 C386 1.386 . S
C387 C391 1.393 . S
C388 H377 0.950 . S
C388 C386 1.391 . S
C388 C389 1.400 . S
C389 C383 1.491 . S
C389 C388 1.400 . S
C389 C390 1.398 . S
C390 H378 0.950 . S
C390 C389 1.398 . S
C390 C391 1.391 . S
C391 H379 0.950 . S
C391 C387 1.393 . S
C391 C390 1.391 . S
H392 C400 0.950 . S
H393 C405 0.950 . S
H394 C402 0.950 . S
H395 C404 0.950 . S
H396 C406 0.950 . S
H397 C408 0.950 . S
H398 C410 0.950 . S
H399 C411 0.950 . S
C400 H392 0.950 . S
C400 C401 1.386 . S
C400 C402 1.391 . S
C401 C400 1.386 . S
C401 C405 1.393 . S
C402 H394 0.950 . S
C402 C400 1.391 . S
C402 C403 1.400 . S
C403 C402 1.400 . S
C403 C404 1.398 . S
C403 C409 1.491 . S
C404 H395 0.950 . S
C404 C403 1.398 . S
C404 C405 1.391 . S
C405 H393 0.950 . S
C405 C401 1.393 . S
C405 C404 1.391 . S
C406 H396 0.950 . S
C406 C407 1.386 . S
C406 C408 1.391 . S
C407 C406 1.386 . S
C407 C411 1.393 . S
C408 H397 0.950 . S
C408 C406 1.391 . S
C408 C409 1.400 . S
C409 C403 1.491 . S
C409 C408 1.400 . S
C409 C410 1.398 . S
C410 H398 0.950 . S
C410 C409 1.398 . S
C410 C411 1.391 . S
C411 H399 0.950 . S
C411 C407 1.393 . S
C411 C410 1.391 . S
H412 C420 0.950 . S
H413 C425 0.950 . S
H414 C422 0.950 . S
H415 C424 0.950 . S
H416 C426 0.950 . S
H417 C428 0.950 . S
H418 C430 0.950 . S
H419 C431 0.950 . S
C420 H412 0.950 . S
C420 C421 1.386 . S
C420 C422 1.391 . S
C421 C420 1.386 . S
C421 C425 1.393 . S
C422 H414 0.950 . S
C422 C420 1.391 . S
C422 C423 1.400 . S
C423 C422 1.400 . S
C423 C424 1.398 . S
C423 C429 1.491 . S
C424 H415 0.950 . S
C424 C423 1.398 . S
C424 C425 1.391 . S
C425 H413 0.950 . S
C425 C421 1.393 . S
C425 C424 1.391 . S
C426 H416 0.950 . S
C426 C427 1.386 . S
C426 C428 1.391 . S
C427 C426 1.386 . S
C427 C431 1.393 . S
C428 H417 0.950 . S
C428 C426 1.391 . S
C428 C429 1.400 . S
C429 C423 1.491 . S
C429 C428 1.400 . S
C429 C430 1.398 . S
C430 H418 0.950 . S
C430 C429 1.398 . S
C430 C431 1.391 . S
C431 H419 0.950 . S
C431 C427 1.393 . S
C431 C430 1.391 . S
H432 C440 0.950 . S
H433 C445 0.950 . S
H434 C442 0.950 . S
H435 C444 0.950 . S
H436 C446 0.950 . S
H437 C448 0.950 . S
H438 C450 0.950 1_554 S
H439 C451 0.950 . S
C440 H432 0.950 . S
C440 C441 1.386 . S
C440 C442 1.391 . S
C441 C440 1.386 . S
C441 C445 1.393 . S
C442 H434 0.950 . S
C442 C440 1.391 . S
C442 C443 1.400 . S
C443 C442 1.400 . S
C443 C444 1.398 . S
C443 C449 1.491 . S
C444 H435 0.950 . S
C444 C443 1.398 . S
C444 C445 1.391 . S
C445 H433 0.950 . S
C445 C441 1.393 . S
C445 C444 1.391 . S
C446 H436 0.950 . S
C446 C447 1.386 . S
C446 C448 1.391 . S
C447 C446 1.386 . S
C447 C451 1.393 . S
C448 H437 0.950 . S
C448 C446 1.391 . S
C448 C449 1.400 1_556 S
C449 C443 1.491 . S
C449 C448 1.400 1_554 S
C449 C450 1.398 1_554 S
C450 H438 0.950 1_556 S
C450 C449 1.398 1_556 S
C450 C451 1.391 . S
C451 H439 0.950 . S
C451 C447 1.393 . S
C451 C450 1.391 . S
H452 C460 0.950 1_565 S
H453 C465 0.950 . S
H454 C462 0.934 1_565 S
H455 C464 0.950 . S
H456 C466 0.950 . S
H457 C468 0.950 . S
H458 C470 0.950 . S
H459 C471 0.950 . S
C460 H452 0.950 1_545 S
C460 C461 1.386 . S
C460 C462 1.391 . S
C461 C460 1.386 . S
C461 C465 1.393 . S
C462 H454 0.934 1_545 S
C462 C460 1.391 . S
C462 C463 1.400 . S
C463 C462 1.400 . S
C463 C464 1.398 . S
C463 C469 1.491 . S
C464 H455 0.950 . S
C464 C463 1.398 . S
C464 C465 1.391 . S
C465 H453 0.950 . S
C465 C461 1.393 . S
C465 C464 1.391 . S
C466 H456 0.950 . S
C466 C467 1.386 . S
C466 C468 1.391 . S
C467 C466 1.386 . S
C467 C471 1.393 . S
C468 H457 0.950 . S
C468 C466 1.391 . S
C468 C469 1.400 . S
C469 C463 1.491 . S
C469 C468 1.400 . S
C469 C470 1.398 . S
C470 H458 0.950 . S
C470 C469 1.398 . S
C470 C471 1.391 . S
C471 H459 0.950 . S
C471 C467 1.393 . S
C471 C470 1.391 . S
H472 C480 0.950 . S
H473 C485 0.950 . S
H474 C482 0.950 . S
H475 C484 0.950 . S
H476 C486 0.950 . S
H477 C488 0.950 . S
H478 C490 0.950 . S
H479 C491 0.950 . S
C480 H472 0.950 . S
C480 C481 1.386 . S
C480 C482 1.391 . S
C481 C480 1.386 . S
C481 C485 1.393 . S
C482 H474 0.950 . S
C482 C480 1.391 . S
C482 C483 1.400 . S
C483 C482 1.400 . S
C483 C484 1.398 . S
C483 C489 1.491 . S
C484 H475 0.950 . S
C484 C483 1.398 . S
C484 C485 1.391 . S
C485 H473 0.950 . S
C485 C481 1.393 . S
C485 C484 1.391 . S
C486 H476 0.950 . S
C486 C487 1.386 . S
C486 C488 1.391 . S
C487 C486 1.386 . S
C487 C491 1.393 . S
C488 H477 0.950 . S
C488 C486 1.391 . S
C488 C489 1.400 . S
C489 C483 1.491 . S
C489 C488 1.400 . S
C489 C490 1.398 . S
C490 H478 0.950 . S
C490 C489 1.398 . S
C490 C491 1.391 . S
C491 H479 0.950 . S
C491 C487 1.393 . S
C491 C490 1.391 . S
H492 C500 0.950 . S
H493 C505 0.950 1_565 S
H494 C502 0.950 . S
H495 C504 0.950 1_565 S
H496 C506 0.950 . S
H497 C508 0.950 . S
H498 C510 0.950 . S
H499 C511 0.950 . S
C500 H492 0.950 . S
C500 C501 1.386 . S
C500 C502 1.391 . S
C501 C500 1.386 . S
C501 C505 1.393 . S
C502 H494 0.950 . S
C502 C500 1.391 . S
C502 C503 1.400 . S
C503 C502 1.400 . S
C503 C504 1.398 . S
C503 C509 1.491 . S
C504 H495 0.950 1_545 S
C504 C503 1.398 . S
C504 C505 1.391 . S
C505 H493 0.950 1_545 S
C505 C501 1.393 . S
C505 C504 1.391 . S
C506 H496 0.950 . S
C506 C507 1.386 1_565 S
C506 C508 1.391 . S
C507 C506 1.386 1_545 S
C507 C511 1.393 . S
C508 H497 0.950 . S
C508 C506 1.391 . S
C508 C509 1.400 1_565 S
C509 C503 1.491 . S
C509 C508 1.400 1_545 S
C509 C510 1.398 . S
C510 H498 0.950 . S
C510 C509 1.398 . S
C510 C511 1.391 . S
C511 H499 0.950 . S
C511 C507 1.393 . S
C511 C510 1.391 . S
H512 C520 0.950 . S
H513 C525 0.950 . S
H514 C522 0.950 . S
H515 C524 0.950 . S
H516 C526 0.950 . S
H517 C528 0.950 . S
H518 C530 0.950 . S
H519 C531 0.950 . S
C520 H512 0.950 . S
C520 C521 1.386 . S
C520 C522 1.391 . S
C521 C520 1.386 . S
C521 C525 1.393 . S
C522 H514 0.950 . S
C522 C520 1.391 . S
C522 C523 1.400 . S
C523 C522 1.400 . S
C523 C524 1.398 . S
C523 C529 1.451 1_556 S
C524 H515 0.950 . S
C524 C523 1.398 . S
C524 C525 1.391 . S
C525 H513 0.950 . S
C525 C521 1.393 . S
C525 C524 1.391 . S
C526 H516 0.950 . S
C526 C527 1.386 . S
C526 C528 1.391 . S
C527 C526 1.386 . S
C527 C531 1.393 . S
C528 H517 0.950 . S
C528 C526 1.391 . S
C528 C529 1.424 . S
C529 C523 1.451 1_554 S
C529 C528 1.424 . S
C529 C530 1.417 . S
C530 H518 0.950 . S
C530 C529 1.417 . S
C530 C531 1.391 . S
C531 H519 0.950 . S
C531 C527 1.393 . S
C531 C530 1.391 . S
H532 C540 0.950 1_655 S
H533 C545 0.950 . S
H534 C542 0.950 . S
H535 C544 0.950 . S
H536 C546 0.950 . S
H537 C548 0.950 . S
H538 C550 0.950 . S
H539 C551 0.950 . S
C540 H532 0.950 1_455 S
C540 C541 1.386 . S
C540 C542 1.391 1_455 S
C541 C540 1.386 . S
C541 C545 1.393 . S
C542 H534 0.950 . S
C542 C540 1.391 1_655 S
C542 C543 1.400 1_655 S
C543 C542 1.400 1_455 S
C543 C544 1.398 . S
C543 C549 1.491 . S
C544 H535 0.950 . S
C544 C543 1.398 . S
C544 C545 1.391 . S
C545 H533 0.950 . S
C545 C541 1.393 . S
C545 C544 1.391 . S
C546 H536 0.950 . S
C546 C547 1.386 . S
C546 C548 1.391 . S
C547 C546 1.386 . S
C547 C551 1.393 1_455 S
C548 H537 0.950 . S
C548 C546 1.391 . S
C548 C549 1.400 . S
C549 C543 1.491 . S
C549 C548 1.400 . S
C549 C550 1.398 1_455 S
C550 H538 0.950 . S
C550 C549 1.398 1_655 S
C550 C551 1.391 . S
C551 H539 0.950 . S
C551 C547 1.393 1_655 S
C551 C550 1.391 . S
C201 C10 3.358 . S
C207 C186 3.332 . S
C221 C55 1.293 . S
C227 C160 1.280 . S
C241 C90 1.956 . S
C247 C172 1.911 . S
C261 C19 2.777 . S
C267 C184 2.682 . S
C287 C162 1.146 . S
C281 C46 1.154 . S
C307 C174 1.881 . S
C301 C99 1.896 . S
C321 C50 1.942 . S
C327 C136 1.883 . S
C341 C95 0.840 . S
C347 C150 0.837 . S
C361 C6 1.143 . S
C367 C126 1.152 1_565 S
C387 C138 1.849 . S
C381 C59 1.868 . S
C407 C148 0.304 . S
C401 C86 0.305 . S
C421 C15 1.298 . S
C427 C124 1.286 . S
C447 C153 1.248 . S
C441 C18 1.228 . S
C461 C49 1.508 . S
C467 C129 1.536 . S
C481 C98 1.415 . S
C487 C141 1.440 . S
C507 C177 1.475 . S
C501 C58 1.420 . S
C527 C189 1.773 . S
C521 C89 1.680 . S
C541 C9 1.505 . S
C547 C165 1.523 . S
