# Generated by pormake.
# Topology ctn, (3,4)-cn, num edge types: 1
# Building blocks:
#     Node 0, Type 0, BuildingBlock: BETDAH_clean_linker_0, # of connection points: 3
#     Node 1, Type 0, BuildingBlock: BETDAH_clean_linker_0, # of connection points: 3
#     Node 2, Type 0, BuildingBlock: BETDAH_clean_linker_0, # of connection points: 3
#     Node 3, Type 0, BuildingBlock: BETDAH_clean_linker_0, # of connection points: 3
#     Node 4, Type 0, BuildingBlock: BETDAH_clean_linker_0, # of connection points: 3
#     Node 5, Type 0, BuildingBlock: BETDAH_clean_linker_0, # of connection points: 3
#     Node 6, Type 0, BuildingBlock: BETDAH_clean_linker_0, # of connection points: 3
#     Node 7, Type 0, BuildingBlock: BETDAH_clean_linker_0, # of connection points: 3
#     Node 8, Type 0, BuildingBlock: BETDAH_clean_linker_0, # of connection points: 3
#     Node 9, Type 0, BuildingBlock: BETDAH_clean_linker_0, # of connection points: 3
#     Node 10, Type 0, BuildingBlock: BETDAH_clean_linker_0, # of connection points: 3
#     Node 11, Type 0, BuildingBlock: BETDAH_clean_linker_0, # of connection points: 3
#     Node 12, Type 0, BuildingBlock: BETDAH_clean_linker_0, # of connection points: 3
#     Node 13, Type 0, BuildingBlock: BETDAH_clean_linker_0, # of connection points: 3
#     Node 14, Type 0, BuildingBlock: BETDAH_clean_linker_0, # of connection points: 3
#     Node 15, Type 0, BuildingBlock: BETDAH_clean_linker_0, # of connection points: 3
#     Node 16, Type 1, BuildingBlock: NAHDIM_clean_sbu_0, # of connection points: 4
#     Node 17, Type 1, BuildingBlock: NAHDIM_clean_sbu_0, # of connection points: 4
#     Node 18, Type 1, BuildingBlock: NAHDIM_clean_sbu_0, # of connection points: 4
#     Node 19, Type 1, BuildingBlock: NAHDIM_clean_sbu_0, # of connection points: 4
#     Node 20, Type 1, BuildingBlock: NAHDIM_clean_sbu_0, # of connection points: 4
#     Node 21, Type 1, BuildingBlock: NAHDIM_clean_sbu_0, # of connection points: 4
#     Node 22, Type 1, BuildingBlock: NAHDIM_clean_sbu_0, # of connection points: 4
#     Node 23, Type 1, BuildingBlock: NAHDIM_clean_sbu_0, # of connection points: 4
#     Node 24, Type 1, BuildingBlock: NAHDIM_clean_sbu_0, # of connection points: 4
#     Node 25, Type 1, BuildingBlock: NAHDIM_clean_sbu_0, # of connection points: 4
#     Node 26, Type 1, BuildingBlock: NAHDIM_clean_sbu_0, # of connection points: 4
#     Node 27, Type 1, BuildingBlock: NAHDIM_clean_sbu_0, # of connection points: 4
#     Edge 28, Type (0, 1), BuildingBlock: CIFDUS_clean_linker_0, # of connection points: 2
#     Edge 29, Type (0, 1), BuildingBlock: CIFDUS_clean_linker_0, # of connection points: 2
#     Edge 30, Type (0, 1), BuildingBlock: CIFDUS_clean_linker_0, # of connection points: 2
#     Edge 31, Type (0, 1), BuildingBlock: CIFDUS_clean_linker_0, # of connection points: 2
#     Edge 32, Type (0, 1), BuildingBlock: CIFDUS_clean_linker_0, # of connection points: 2
#     Edge 33, Type (0, 1), BuildingBlock: CIFDUS_clean_linker_0, # of connection points: 2
#     Edge 34, Type (0, 1), BuildingBlock: CIFDUS_clean_linker_0, # of connection points: 2
#     Edge 35, Type (0, 1), BuildingBlock: CIFDUS_clean_linker_0, # of connection points: 2
#     Edge 36, Type (0, 1), BuildingBlock: CIFDUS_clean_linker_0, # of connection points: 2
#     Edge 37, Type (0, 1), BuildingBlock: CIFDUS_clean_linker_0, # of connection points: 2
#     Edge 38, Type (0, 1), BuildingBlock: CIFDUS_clean_linker_0, # of connection points: 2
#     Edge 39, Type (0, 1), BuildingBlock: CIFDUS_clean_linker_0, # of connection points: 2
#     Edge 40, Type (0, 1), BuildingBlock: CIFDUS_clean_linker_0, # of connection points: 2
#     Edge 41, Type (0, 1), BuildingBlock: CIFDUS_clean_linker_0, # of connection points: 2
#     Edge 42, Type (0, 1), BuildingBlock: CIFDUS_clean_linker_0, # of connection points: 2
#     Edge 43, Type (0, 1), BuildingBlock: CIFDUS_clean_linker_0, # of connection points: 2
#     Edge 44, Type (0, 1), BuildingBlock: CIFDUS_clean_linker_0, # of connection points: 2
#     Edge 45, Type (0, 1), BuildingBlock: CIFDUS_clean_linker_0, # of connection points: 2
#     Edge 46, Type (0, 1), BuildingBlock: CIFDUS_clean_linker_0, # of connection points: 2
#     Edge 47, Type (0, 1), BuildingBlock: CIFDUS_clean_linker_0, # of connection points: 2
#     Edge 48, Type (0, 1), BuildingBlock: CIFDUS_clean_linker_0, # of connection points: 2
#     Edge 49, Type (0, 1), BuildingBlock: CIFDUS_clean_linker_0, # of connection points: 2
#     Edge 50, Type (0, 1), BuildingBlock: CIFDUS_clean_linker_0, # of connection points: 2
#     Edge 51, Type (0, 1), BuildingBlock: CIFDUS_clean_linker_0, # of connection points: 2
#     Edge 52, Type (0, 1), BuildingBlock: CIFDUS_clean_linker_0, # of connection points: 2
#     Edge 53, Type (0, 1), BuildingBlock: CIFDUS_clean_linker_0, # of connection points: 2
#     Edge 54, Type (0, 1), BuildingBlock: CIFDUS_clean_linker_0, # of connection points: 2
#     Edge 55, Type (0, 1), BuildingBlock: CIFDUS_clean_linker_0, # of connection points: 2
#     Edge 56, Type (0, 1), BuildingBlock: CIFDUS_clean_linker_0, # of connection points: 2
#     Edge 57, Type (0, 1), BuildingBlock: CIFDUS_clean_linker_0, # of connection points: 2
#     Edge 58, Type (0, 1), BuildingBlock: CIFDUS_clean_linker_0, # of connection points: 2
#     Edge 59, Type (0, 1), BuildingBlock: CIFDUS_clean_linker_0, # of connection points: 2
#     Edge 60, Type (0, 1), BuildingBlock: CIFDUS_clean_linker_0, # of connection points: 2
#     Edge 61, Type (0, 1), BuildingBlock: CIFDUS_clean_linker_0, # of connection points: 2
#     Edge 62, Type (0, 1), BuildingBlock: CIFDUS_clean_linker_0, # of connection points: 2
#     Edge 63, Type (0, 1), BuildingBlock: CIFDUS_clean_linker_0, # of connection points: 2
#     Edge 64, Type (0, 1), BuildingBlock: CIFDUS_clean_linker_0, # of connection points: 2
#     Edge 65, Type (0, 1), BuildingBlock: CIFDUS_clean_linker_0, # of connection points: 2
#     Edge 66, Type (0, 1), BuildingBlock: CIFDUS_clean_linker_0, # of connection points: 2
#     Edge 67, Type (0, 1), BuildingBlock: CIFDUS_clean_linker_0, # of connection points: 2
#     Edge 68, Type (0, 1), BuildingBlock: CIFDUS_clean_linker_0, # of connection points: 2
#     Edge 69, Type (0, 1), BuildingBlock: CIFDUS_clean_linker_0, # of connection points: 2
#     Edge 70, Type (0, 1), BuildingBlock: CIFDUS_clean_linker_0, # of connection points: 2
#     Edge 71, Type (0, 1), BuildingBlock: CIFDUS_clean_linker_0, # of connection points: 2
#     Edge 72, Type (0, 1), BuildingBlock: CIFDUS_clean_linker_0, # of connection points: 2
#     Edge 73, Type (0, 1), BuildingBlock: CIFDUS_clean_linker_0, # of connection points: 2
#     Edge 74, Type (0, 1), BuildingBlock: CIFDUS_clean_linker_0, # of connection points: 2
#     Edge 75, Type (0, 1), BuildingBlock: CIFDUS_clean_linker_0, # of connection points: 2
# Relax obj value: 0.049
# Max RMSD: 0.159
# Mean RMSD: 0.099
data_MOF--net-ctn--node1-NAHDIM_clean_sbu_0--node2-BETDAH_clean_linker_0--edge1-CIFDUS_clean_linker_0
_symmetry_space_group_name_H-M    P1
_symmetry_Int_Tables_number       1
_symmetry_cell_setting            triclinic
loop_
_symmetry_equiv_pos_as_xyz
'x, y, z'
_cell_length_a     46.910134
_cell_length_b     47.270344
_cell_length_c     47.310358
_cell_angle_alpha  100.46737
_cell_angle_beta   90.301255
_cell_angle_gamma 97.293344
loop_
_atom_site_label
_atom_site_type_symbol
_atom_site_fract_x
_atom_site_fract_y
_atom_site_fract_z
_atom_type_partial_charge
H0 H 0.09703 0.01419 0.09694 0.0
H1 H 0.13963 0.05736 0.03308 0.0
H2 H 0.06211 0.08501 0.06925 0.0
C3 C 0.09831 0.03061 0.08358 0.0
C4 C 0.07723 0.04964 0.0859 0.0
C5 C 0.12081 0.03263 0.06418 0.0
C6 C 0.12188 0.05424 0.04722 0.0
C7 C 0.10055 0.07247 0.04828 0.0
C8 C 0.07802 0.0701 0.06753 0.0
N9 N 0.10373 0.09389 0.03066 0.0
C10 C 0.08209 0.10842 0.02232 0.0
H11 H 0.31663 0.6789 0.26062 0.0
H12 H 0.32404 0.75918 0.22842 0.0
H13 H 0.24556 0.70054 0.21476 0.0
C14 C 0.30746 0.69368 0.24924 0.0
C15 C 0.27908 0.6865 0.23827 0.0
C16 C 0.32395 0.71993 0.24601 0.0
C17 C 0.31183 0.73875 0.23077 0.0
C18 C 0.28342 0.73165 0.21967 0.0
C19 C 0.26733 0.70578 0.22365 0.0
N20 N 0.26965 0.75019 0.20518 0.0
C21 C 0.28331 0.77299 0.19342 0.0
H22 H 0.01716 0.42074 0.063 0.0
H23 H 0.99724 0.50875 0.07456 0.0
H24 H 0.98529 0.45379 0.99173 0.0
C25 C 0.00965 0.43832 0.05443 0.0
C26 C 1.0009 0.43373 0.02531 0.0
C27 C 0.00863 0.46536 0.07255 0.0
C28 C 0.99765 0.48757 0.06128 0.0
C29 C 0.98913 0.48318 0.03217 0.0
C30 C 0.99115 0.45655 0.01436 0.0
N31 N 0.9809 0.50601 0.01962 0.0
C32 C 0.95947 0.52239 0.03036 0.0
H33 H 0.7815 0.82679 0.16771 0.0
H34 H 0.71979 0.78048 0.21573 0.0
H35 H 0.75984 0.86612 0.25272 0.0
C36 C 0.76883 0.82606 0.18673 0.0
C37 C 0.77268 0.8497 0.20971 0.0
C38 C 0.75003 0.80084 0.18874 0.0
C39 C 0.73424 0.7998 0.21389 0.0
C40 C 0.7378 0.82354 0.23692 0.0
C41 C 0.75721 0.84803 0.23477 0.0
N42 N 0.7234 0.82331 0.26318 0.0
C43 C 0.69691 0.8075 0.26633 0.0
H44 H 0.07124 0.01165 0.43288 0.0
H45 H 0.07489 0.96816 0.50514 0.0
H46 H 0.00441 0.94365 0.44353 0.0
C47 C 0.06182 0.99578 0.44519 0.0
C48 C 0.03616 0.97813 0.4351 0.0
C49 C 0.07603 0.99235 0.4704 0.0
C50 C 0.06421 0.97083 0.48562 0.0
C51 C 0.03821 0.95332 0.47589 0.0
C52 C 0.02447 0.95716 0.45078 0.0
N53 N 0.02481 0.93182 0.49067 0.0
C54 C 0.03642 0.92291 0.51418 0.0
H55 H 0.3215 0.74572 0.84953 0.0
H56 H 0.24343 0.76477 0.81275 0.0
H57 H 0.28638 0.69531 0.7691 0.0
C58 C 0.30502 0.74117 0.83261 0.0
C59 C 0.30644 0.71801 0.80954 0.0
C60 C 0.28244 0.7584 0.83395 0.0
C61 C 0.26118 0.75208 0.81175 0.0
C62 C 0.2627 0.72932 0.78836 0.0
C63 C 0.28531 0.71262 0.78741 0.0
N64 N 0.24204 0.72254 0.76528 0.0
C65 C 0.21684 0.73504 0.76459 0.0
H66 H 0.95241 0.57379 0.54396 0.0
H67 H 0.04155 0.58687 0.52257 0.0
H68 H 0.99048 0.50552 0.49023 0.0
C69 C 0.97078 0.56579 0.53291 0.0
C70 C 0.96799 0.53737 0.51689 0.0
C71 C 0.99712 0.58398 0.53497 0.0
C72 C 0.02077 0.57359 0.52038 0.0
C73 C 0.01815 0.54563 0.5038 0.0
C74 C 0.99182 0.5276 0.50197 0.0
N75 N 0.04307 0.53449 0.49234 0.0
C76 C 0.04844 0.53011 0.46315 0.0
H77 H 0.85799 0.74109 0.82537 0.0
H78 H 0.81473 0.80547 0.79458 0.0
H79 H 0.77962 0.76572 0.86347 0.0
C80 C 0.84068 0.7544 0.82672 0.0
C81 C 0.819 0.75111 0.84673 0.0
C82 C 0.83904 0.77371 0.80739 0.0
C83 C 0.81599 0.79036 0.80909 0.0
C84 C 0.79464 0.78747 0.82945 0.0
C85 C 0.79631 0.76789 0.84794 0.0
N86 N 0.77083 0.80341 0.83189 0.0
C87 C 0.76585 0.82383 0.81537 0.0
H88 H 0.34832 0.25754 0.34447 0.0
H89 H 0.30443 0.3136 0.30167 0.0
H90 H 0.25961 0.26632 0.36089 0.0
C91 C 0.32931 0.26744 0.34094 0.0
C92 C 0.30409 0.25994 0.35525 0.0
C93 C 0.32964 0.28646 0.32112 0.0
C94 C 0.30442 0.29864 0.31651 0.0
C95 C 0.27916 0.29129 0.33092 0.0
C96 C 0.27918 0.27184 0.34987 0.0
N97 N 0.25307 0.30246 0.32678 0.0
C98 C 0.24981 0.32479 0.31204 0.0
H99 H 0.53099 0.92367 0.55987 0.0
H100 H 0.48809 0.98665 0.6147 0.0
H101 H 0.45453 0.95191 0.52908 0.0
C102 C 0.51363 0.93691 0.5632 0.0
C103 C 0.49282 0.93515 0.54114 0.0
C104 C 0.5119 0.95514 0.58986 0.0
C105 C 0.48956 0.97234 0.59421 0.0
C106 C 0.46927 0.97181 0.57233 0.0
C107 C 0.47082 0.95313 0.54571 0.0
N108 N 0.44735 0.98995 0.5785 0.0
C109 C 0.42782 0.99557 0.55872 0.0
H110 H 0.2974 0.33129 0.68772 0.0
H111 H 0.23709 0.27262 0.72473 0.0
H112 H 0.28527 0.34585 0.77903 0.0
C113 C 0.28639 0.32528 0.70627 0.0
C114 C 0.29349 0.342 0.73367 0.0
C115 C 0.26633 0.30001 0.70279 0.0
C116 C 0.25256 0.29203 0.72709 0.0
C117 C 0.25949 0.30871 0.75457 0.0
C118 C 0.28016 0.33321 0.7577 0.0
N119 N 0.24715 0.30079 0.77974 0.0
C120 C 0.2186 0.28926 0.78146 0.0
H121 H 0.82155 0.17937 0.76357 0.0
H122 H 0.83513 0.24741 0.71344 0.0
H123 H 0.7611 0.18268 0.69626 0.0
C124 C 0.81488 0.18977 0.74648 0.0
C125 C 0.78961 0.17784 0.73046 0.0
C126 C 0.83172 0.21474 0.74046 0.0
C127 C 0.82239 0.22827 0.71842 0.0
C128 C 0.7968 0.21652 0.7025 0.0
C129 C 0.78081 0.19146 0.70861 0.0
N130 N 0.78612 0.22874 0.67996 0.0
C131 C 0.79831 0.25347 0.67033 0.0
H132 H 0.6035 0.53331 0.60313 0.0
H133 H 0.59984 0.52549 0.51109 0.0
H134 H 0.53889 0.57081 0.56237 0.0
C135 C 0.59396 0.53805 0.58389 0.0
C136 C 0.56986 0.55322 0.58611 0.0
C137 C 0.60523 0.52816 0.55695 0.0
C138 C 0.59212 0.53375 0.53215 0.0
C139 C 0.56878 0.54962 0.53402 0.0
C140 C 0.55758 0.55937 0.56102 0.0
N141 N 0.55566 0.55328 0.50811 0.0
C142 C 0.54692 0.57916 0.50364 0.0
H143 H 0.57321 0.52934 0.95359 0.0
H144 H 0.56736 0.48026 0.02221 0.0
H145 H 0.49683 0.47096 0.9615 0.0
C146 C 0.56154 0.51331 0.96442 0.0
C147 C 0.53376 0.50079 0.95434 0.0
C148 C 0.57377 0.50633 0.98912 0.0
C149 C 0.55802 0.48599 1.00338 0.0
C150 C 0.53022 0.4732 0.99336 0.0
C151 C 0.51825 0.48092 0.96912 0.0
N152 N 0.51343 0.45274 0.00713 0.0
C153 C 0.52335 0.4401 0.02901 0.0
H154 H 0.79692 0.21026 0.34245 0.0
H155 H 0.7269 0.25034 0.31477 0.0
H156 H 0.76738 0.19005 0.25395 0.0
C157 C 0.78216 0.21276 0.32564 0.0
C158 C 0.78455 0.19744 0.29755 0.0
C159 C 0.76158 0.23204 0.33207 0.0
C160 C 0.74296 0.23572 0.30997 0.0
C161 C 0.74515 0.22059 0.28174 0.0
C162 C 0.76608 0.20183 0.27571 0.0
N163 N 0.72686 0.22373 0.25878 0.0
C164 C 0.70137 0.23601 0.26216 0.0
H165 H 0.45606 0.0925 0.04375 0.0
H166 H 0.54264 0.12409 0.02493 0.0
H167 H 0.5035 0.04087 0.98067 0.0
C168 C 0.47556 0.08945 0.03204 0.0
C169 C 0.47691 0.06368 0.01199 0.0
C170 C 0.49897 0.11162 0.03655 0.0
C171 C 0.52405 0.10759 0.02115 0.0
C172 C 0.52554 0.08259 1.00065 0.0
C173 C 0.50192 0.06066 0.99591 0.0
N174 N 0.55162 0.07983 0.98605 0.0
C175 C 0.5533 0.06525 0.95798 0.0
C176 C 0.25534 0.94507 0.02866 0.0
O177 O 0.27571 0.95233 0.01139 0.0
O178 O 0.29415 0.87497 0.0042 0.0
Zn179 Zn 0.29489 0.90604 0.04028 0.0
O180 O 0.32969 0.93645 0.04169 0.0
C181 C 0.31583 0.86752 0.07317 0.0
O182 O 0.33237 0.8634 0.05086 0.0
O183 O 0.25857 0.92565 0.04338 0.0
C184 C 0.34334 0.94194 0.01974 0.0
O185 O 0.33492 0.92711 0.99419 0.0
C186 C 0.2828 0.87521 0.97977 0.0
O187 O 0.26996 0.89744 0.97611 0.0
O188 O 0.29786 0.88566 0.07401 0.0
C189 C 0.19595 0.46797 0.28 0.0
O190 O 0.20612 0.49524 0.28967 0.0
O191 O 0.12358 0.50208 0.29782 0.0
Zn192 Zn 0.14719 0.49341 0.26203 0.0
O193 O 0.173 0.5298 0.25723 0.0
C194 C 0.09812 0.48816 0.22142 0.0
O195 O 0.08713 0.50568 0.24207 0.0
O196 O 0.17146 0.46203 0.26711 0.0
C197 C 0.16235 0.55347 0.25895 0.0
O198 O 0.13478 0.55354 0.26362 0.0
C199 C 0.13616 0.51906 0.31952 0.0
O200 O 0.16307 0.53003 0.31744 0.0
O201 O 0.12231 0.47996 0.22578 0.0
C202 C 0.84215 0.62835 0.02927 0.0
O203 O 0.84564 0.65581 0.02679 0.0
O204 O 0.79374 0.65259 0.98087 0.0
Zn205 Zn 0.78354 0.63386 0.01578 0.0
O206 O 0.74849 0.60383 0.00581 0.0
C207 C 0.76288 0.68608 0.04463 0.0
O208 O 0.75628 0.68774 0.01801 0.0
O209 O 0.81703 0.61429 0.02594 0.0
C210 C 0.72943 0.59759 0.02349 0.0
O211 O 0.73262 0.61042 0.05059 0.0
C212 C 0.77664 0.64751 0.95904 0.0
O213 O 0.75263 0.62997 0.95936 0.0
O214 O 0.77492 0.66466 0.04931 0.0
C215 C 0.89006 0.07517 0.285 0.0
O216 O 0.89101 0.05566 0.30143 0.0
O217 O 0.95348 0.04144 0.29342 0.0
Zn218 Zn 0.93069 0.04136 0.25669 0.0
O219 O 0.90393 0.00368 0.24996 0.0
C220 C 0.98453 0.04874 0.22762 0.0
O221 O 0.99457 0.0532 0.25424 0.0
O222 O 0.90611 0.07419 0.26333 0.0
C223 C 0.88758 0.99266 0.22821 0.0
O224 O 0.88731 0.00621 0.20631 0.0
C225 C 0.96094 0.01751 0.29756 0.0
O226 O 0.95445 0.99423 0.27765 0.0
O227 O 0.95744 0.04368 0.22295 0.0
C228 C 0.30846 0.08273 0.51159 0.0
O229 O 0.28532 0.06591 0.50005 0.0
O230 O 0.2797 0.15461 0.48445 0.0
Zn231 Zn 0.27318 0.13085 0.51611 0.0
O232 O 0.23635 0.10284 0.50835 0.0
C233 C 0.26389 0.18298 0.55769 0.0
O234 O 0.25965 0.19416 0.53478 0.0
O235 O 0.30763 0.10982 0.51927 0.0
C236 C 0.21301 0.11347 0.50628 0.0
O237 O 0.214 0.14174 0.50893 0.0
C238 C 0.26895 0.14522 0.45923 0.0
O239 O 0.25346 0.11958 0.4536 0.0
O240 O 0.26983 0.15709 0.55456 0.0
C241 C 0.41242 0.59619 0.78549 0.0
O242 O 0.43953 0.60682 0.79115 0.0
O243 O 0.45858 0.53996 0.80271 0.0
Zn244 Zn 0.43338 0.53933 0.76757 0.0
O245 O 0.4089 0.50038 0.75937 0.0
C246 C 0.47903 0.55913 0.72887 0.0
O247 O 0.49294 0.57433 0.75199 0.0
O248 O 0.4059 0.56922 0.77578 0.0
C249 C 0.39106 0.49443 0.73815 0.0
O250 O 0.38931 0.5138 0.72172 0.0
C251 C 0.48184 0.52863 0.80159 0.0
O252 O 0.4913 0.5176 0.77642 0.0
O253 O 0.45509 0.54395 0.73138 0.0
C254 C 0.74201 0.44462 0.51789 0.0
O255 O 0.76212 0.44927 0.49944 0.0
O256 O 0.76723 0.37189 0.48505 0.0
Zn257 Zn 0.77414 0.39797 0.52412 0.0
O258 O 0.8121 0.42319 0.52381 0.0
C259 C 0.7961 0.36601 0.56569 0.0
O260 O 0.82121 0.37224 0.55457 0.0
O261 O 0.74259 0.4236 0.53117 0.0
C262 C 0.82135 0.44182 0.54583 0.0
O263 O 0.80606 0.44405 0.56913 0.0
C264 C 0.76601 0.34441 0.48091 0.0
O265 O 0.76887 0.33163 0.50302 0.0
O266 O 0.774 0.37459 0.55598 0.0
C267 C 0.70808 0.96321 0.78017 0.0
O268 O 0.71517 0.99028 0.79309 0.0
O269 O 0.64084 0.99531 0.80259 0.0
Zn270 Zn 0.65981 0.98795 0.76425 0.0
O271 O 0.68467 0.02434 0.75865 0.0
C272 C 0.60489 0.96485 0.73394 0.0
O273 O 0.59677 0.95868 0.75889 0.0
O274 O 0.68477 0.9565 0.76525 0.0
C275 C 0.6937 0.02622 0.73371 0.0
O276 O 0.68652 0.00435 0.71241 0.0
C277 C 0.62099 0.01129 0.80812 0.0
O278 O 0.61171 0.0239 0.78792 0.0
O279 O 0.63046 0.97653 0.73145 0.0
C280 C 0.02141 0.20665 0.92377 0.0
O281 O 0.00726 0.22665 0.93811 0.0
O282 O 0.9876 0.2292 0.85075 0.0
Zn283 Zn 0.02234 0.24123 0.87777 0.0
O284 O 0.0172 0.27703 0.9069 0.0
C285 C 0.06331 0.2737 0.84609 0.0
O286 O 0.04581 0.29342 0.85226 0.0
O287 O 0.02904 0.20845 0.8983 0.0
C288 C 0.03749 0.2883 0.92496 0.0
O289 O 0.06128 0.27624 0.9242 0.0
C290 C 0.97345 0.24734 0.84197 0.0
O291 O 0.98113 0.27523 0.85118 0.0
O292 O 0.05752 0.24967 0.85463 0.0
C293 C 0.51742 0.70658 0.42288 0.0
O294 O 0.50578 0.72709 0.43962 0.0
O295 O 0.47793 0.73732 0.35991 0.0
Zn296 Zn 0.51664 0.74496 0.38079 0.0
O297 O 0.51606 0.77839 0.414 0.0
C298 C 0.56497 0.7354 0.34362 0.0
O299 O 0.56015 0.70927 0.34985 0.0
O300 O 0.52342 0.70948 0.39725 0.0
C301 C 0.50771 0.80262 0.41233 0.0
O302 O 0.49951 0.80741 0.38722 0.0
C303 C 0.47283 0.74543 0.33637 0.0
O304 O 0.49383 0.75936 0.32403 0.0
O305 O 0.54891 0.75426 0.35408 0.0
C306 C 0.04269 0.82818 0.63552 0.0
O307 O 0.06602 0.81533 0.63388 0.0
O308 O 0.9977 0.79018 0.70678 0.0
Zn309 Zn 0.02589 0.78837 0.6743 0.0
O310 O 0.01695 0.7499 0.64708 0.0
C311 C 0.07132 0.77954 0.71189 0.0
O312 O 0.04948 0.76833 0.72532 0.0
O313 O 0.02282 0.82064 0.65191 0.0
C314 C 0.00682 0.72708 0.65621 0.0
O315 O 1.00168 0.7288 0.6837 0.0
C316 C 0.97077 0.78686 0.70139 0.0
O317 O 0.96159 0.78341 0.67454 0.0
O318 O 0.06644 0.79037 0.68989 0.0
C319 C 0.52835 0.34238 0.14829 0.0
O320 O 0.54851 0.32534 0.14325 0.0
O321 O 0.47878 0.30602 0.21798 0.0
Zn322 Zn 0.51097 0.30527 0.18944 0.0
O323 O 0.50401 0.26783 0.16055 0.0
C324 C 0.55485 0.28975 0.22519 0.0
O325 O 0.53299 0.27281 0.23286 0.0
O326 O 0.51031 0.33837 0.16764 0.0
C327 C 0.49204 0.24417 0.16684 0.0
O328 O 0.48319 0.24386 0.1931 0.0
C329 C 0.45355 0.30477 0.20741 0.0
O330 O 0.45043 0.30384 0.17961 0.0
O331 O 0.55032 0.30662 0.20799 0.0
H332 H 0.29503 0.76051 0.89088 0.0
H333 H 0.26682 0.81192 0.83202 0.0
H334 H 0.26367 0.85202 0.87184 0.0
H335 H 0.26937 0.87285 0.9233 0.0
H336 H 0.29978 0.8224 0.9819 0.0
H337 H 0.30211 0.78186 0.94217 0.0
C338 C 0.28853 0.78059 0.88665 0.0
C339 C 0.28106 0.78301 0.85839 0.0
C340 C 0.28721 0.80384 0.90963 0.0
C341 C 0.27221 0.80913 0.85354 0.0
C342 C 0.27059 0.83222 0.8763 0.0
C343 C 0.27646 0.85298 0.92742 0.0
C344 C 0.2843 0.85069 0.95558 0.0
C345 C 0.27801 0.82982 0.90443 0.0
C346 C 0.29364 0.82481 0.96045 0.0
C347 C 0.29496 0.80158 0.93773 0.0
H348 H 0.09564 0.55854 0.44588 0.0
H349 H 0.02421 0.49306 0.41616 0.0
H350 H 0.04434 0.48454 0.3679 0.0
H351 H 0.08386 0.49435 0.33504 0.0
H352 H 0.15568 0.55941 0.36626 0.0
H353 H 0.13383 0.56957 0.41291 0.0
C354 C 0.08442 0.54264 0.42866 0.0
C355 C 0.0586 0.52648 0.43416 0.0
C356 C 0.0963 0.53772 0.40133 0.0
C357 C 0.04414 0.50578 0.41207 0.0
C358 C 0.05569 0.50089 0.38461 0.0
C359 C 0.09459 0.51088 0.35199 0.0
C360 C 0.12148 0.52595 0.34713 0.0
C361 C 0.08199 0.5165 0.37907 0.0
C362 C 0.1351 0.54731 0.36938 0.0
C363 C 0.12262 0.5532 0.39613 0.0
H364 H 0.7762 0.70888 0.85155 0.0
H365 H 0.86073 0.74603 0.88561 0.0
H366 H 0.8559 0.71604 0.9231 0.0
H367 H 0.82543 0.68237 0.94858 0.0
H368 H 0.74071 0.64599 0.91345 0.0
H369 H 0.74778 0.67261 0.87413 0.0
C370 C 0.7937 0.71009 0.86699 0.0
C371 C 0.81867 0.72969 0.86607 0.0
C372 C 0.79055 0.6932 0.88851 0.0
C373 C 0.84136 0.73095 0.88591 0.0
C374 C 0.83846 0.71401 0.90745 0.0
C375 C 0.80862 0.68014 0.93221 0.0
C376 C 0.78244 0.66241 0.93424 0.0
C377 C 0.81282 0.69557 0.9094 0.0
C378 C 0.761 0.65955 0.91264 0.0
C379 C 0.76499 0.67479 0.89006 0.0
H380 H 0.0256 0.02787 0.41758 0.0
H381 H 0.01475 0.93475 0.39133 0.0
H382 H 0.99093 0.93884 0.34653 0.0
H383 H 0.97301 0.96863 0.31493 0.0
H384 H 0.98292 0.06178 0.34095 0.0
H385 H 0.00748 0.05793 0.3856 0.0
C386 C 0.01817 0.00852 0.40194 0.0
C387 C 0.02187 0.98104 0.40783 0.0
C388 C 0.00436 0.01102 0.3762 0.0
C389 C 0.01185 0.95612 0.3875 0.0
C390 C 0.99836 0.95845 0.36181 0.0
C391 C 0.9806 0.98815 0.33029 0.0
C392 C 0.97616 0.01546 0.32453 0.0
C393 C 0.99444 0.98576 0.35597 0.0
C394 C 0.98602 0.04047 0.34482 0.0
C395 C 1.00008 0.03829 0.37036 0.0
H396 H 0.2668 0.24174 0.68903 0.0
H397 H 0.25562 0.31651 0.65181 0.0
H398 H 0.25274 0.28668 0.60363 0.0
H399 H 0.25599 0.23991 0.57198 0.0
H400 H 0.26855 0.16539 0.60927 0.0
H401 H 0.26812 0.19449 0.65743 0.0
C402 C 0.26322 0.25136 0.67039 0.0
C403 C 0.2614 0.28126 0.67395 0.0
C404 C 0.26209 0.23417 0.64273 0.0
C405 C 0.25725 0.29355 0.64957 0.0
C406 C 0.25561 0.27652 0.62204 0.0
C407 C 0.25848 0.22996 0.59062 0.0
C408 C 0.26245 0.20051 0.58692 0.0
C409 C 0.25848 0.2469 0.61833 0.0
C410 C 0.26562 0.18803 0.6114 0.0
C411 C 0.26534 0.20465 0.63901 0.0
H412 H 0.51379 0.54118 0.59856 0.0
H413 H 0.5961 0.58036 0.6373 0.0
H414 H 0.57499 0.58716 0.6849 0.0
H415 H 0.53366 0.57926 0.71578 0.0
H416 H 0.45191 0.53792 0.67682 0.0
H417 H 0.47218 0.53484 0.62918 0.0
C418 C 0.52695 0.55169 0.61739 0.0
C419 C 0.55641 0.56037 0.61445 0.0
C420 C 0.51481 0.55489 0.64471 0.0
C421 C 0.57336 0.57345 0.63908 0.0
C422 C 0.56131 0.57729 0.66627 0.0
C423 C 0.52022 0.56978 0.69686 0.0
C424 C 0.49132 0.55874 0.69997 0.0
C425 C 0.53215 0.56765 0.66942 0.0
C426 C 0.47427 0.54643 0.67515 0.0
C427 C 0.48582 0.54468 0.64784 0.0
H428 H 0.76064 0.28631 0.65655 0.0
H429 H 0.84948 0.27258 0.64935 0.0
H430 H 0.85732 0.30807 0.61713 0.0
H431 H 0.83754 0.34001 0.58818 0.0
H432 H 0.74783 0.35179 0.59458 0.0
H433 H 0.74165 0.32014 0.62997 0.0
C434 C 0.78183 0.29162 0.64832 0.0
C435 C 0.80457 0.27736 0.6553 0.0
C436 C 0.78586 0.31137 0.62942 0.0
C437 C 0.83184 0.28376 0.64435 0.0
C438 C 0.8362 0.30382 0.62583 0.0
C439 C 0.8167 0.33584 0.59747 0.0
C440 C 0.79314 0.34812 0.58849 0.0
C441 C 0.81318 0.31731 0.61773 0.0
C442 C 0.7663 0.3425 0.60087 0.0
C443 C 0.76271 0.32441 0.62117 0.0
H444 H 0.5009 0.94982 0.64493 0.0
H445 H 0.57041 0.96223 0.58735 0.0
H446 H 0.60549 0.96558 0.62674 0.0
H447 H 0.61621 0.96658 0.67788 0.0
H448 H 0.5465 0.95295 0.73514 0.0
H449 H 0.51167 0.94844 0.69553 0.0
C450 C 0.52375 0.95331 0.64109 0.0
C451 C 0.53313 0.95601 0.61342 0.0
C452 C 0.5437 0.955 0.66374 0.0
C453 C 0.56275 0.96002 0.6085 0.0
C454 C 0.58276 0.96203 0.63101 0.0
C455 C 0.5934 0.96251 0.68168 0.0
C456 C 0.58398 0.96026 0.70948 0.0
C457 C 0.57347 0.95977 0.65876 0.0
C458 C 0.55435 0.95473 0.71396 0.0
C459 C 0.5344 0.95224 0.69134 0.0
H460 H 0.8718 0.18368 0.75674 0.0
H461 H 0.85292 0.27147 0.76224 0.0
H462 H 0.8957 0.28947 0.79332 0.0
H463 H 0.93704 0.27989 0.82101 0.0
H464 H 0.95416 0.19157 0.81664 0.0
H465 H 0.91311 0.17418 0.78353 0.0
C466 C 0.87688 0.20677 0.76487 0.0
C467 C 0.85894 0.22615 0.75738 0.0
C468 C 0.90107 0.21685 0.78318 0.0
C469 C 0.8664 0.25606 0.76749 0.0
C470 C 0.89074 0.26634 0.78547 0.0
C471 C 0.93184 0.25684 0.81278 0.0
C472 C 0.94865 0.23708 0.82148 0.0
C473 C 0.90801 0.24689 0.79378 0.0
C474 C 0.94158 0.20729 0.81049 0.0
C475 C 0.91811 0.19729 0.79148 0.0
H476 H 0.5051 0.87985 0.53559 0.0
H477 H 0.48215 0.94185 0.48564 0.0
H478 H 0.48441 0.9063 0.44135 0.0
H479 H 0.49375 0.8577 0.41681 0.0
H480 H 0.51831 0.79691 0.46755 0.0
H481 H 0.51519 0.83221 0.51143 0.0
C482 C 0.50096 0.88582 0.51502 0.0
C483 C 0.49369 0.91362 0.51401 0.0
C484 C 0.50273 0.86551 0.48972 0.0
C485 C 0.4876 0.92057 0.48713 0.0
C486 C 0.48907 0.9003 0.46177 0.0
C487 C 0.49846 0.8522 0.43746 0.0
C488 C 0.50628 0.82464 0.43879 0.0
C489 C 0.49672 0.87272 0.4628 0.0
C490 C 0.51232 0.81792 0.46578 0.0
C491 C 0.51049 0.8381 0.49096 0.0
H492 H 0.17664 0.32277 0.79008 0.0
H493 H 0.19601 0.23605 0.78949 0.0
H494 H 0.14846 0.22281 0.8083 0.0
H495 H 0.10293 0.2372 0.82817 0.0
H496 H 0.08416 0.32451 0.82943 0.0
H497 H 0.12978 0.33623 0.80702 0.0
C498 C 0.17009 0.30085 0.79361 0.0
C499 C 0.18935 0.28025 0.78833 0.0
C500 C 0.14302 0.29365 0.80482 0.0
C501 C 0.18117 0.25205 0.79323 0.0
C502 C 0.15413 0.24459 0.80412 0.0
C503 C 0.10872 0.25874 0.82338 0.0
C504 C 0.09019 0.28 0.83073 0.0
C505 C 0.1351 0.2654 0.81054 0.0
C506 C 0.098 0.30774 0.82416 0.0
C507 C 0.12413 0.3145 0.81133 0.0
H508 H 0.55393 0.59017 0.4509 0.0
H509 H 0.52352 0.6244 0.53425 0.0
H510 H 0.51126 0.66724 0.51644 0.0
H511 H 0.50955 0.69477 0.47694 0.0
H512 H 0.54045 0.65996 0.39361 0.0
H513 H 0.55213 0.61749 0.41155 0.0
C514 C 0.54459 0.6071 0.46507 0.0
C515 C 0.53953 0.60447 0.4937 0.0
C516 C 0.53771 0.63144 0.45465 0.0
C517 C 0.5275 0.62624 0.51208 0.0
C518 C 0.52053 0.65062 0.50188 0.0
C519 C 0.51879 0.67788 0.46267 0.0
C520 C 0.52408 0.68062 0.43392 0.0
C521 C 0.52557 0.65345 0.47318 0.0
C522 C 0.53612 0.65849 0.4158 0.0
C523 C 0.54284 0.63416 0.42604 0.0
H524 H 0.89763 0.7784 0.81251 0.0
H525 H 0.82834 0.77334 0.75074 0.0
H526 H 0.86282 0.77743 0.71282 0.0
H527 H 0.91251 0.7823 0.69701 0.0
H528 H 0.98225 0.7877 0.75842 0.0
H529 H 0.94782 0.7836 0.79654 0.0
C530 C 0.89014 0.77802 0.7907 0.0
C531 C 0.86046 0.77568 0.78451 0.0
C532 C 0.91016 0.78052 0.76892 0.0
C533 C 0.85107 0.77549 0.75618 0.0
C534 C 0.87077 0.77772 0.73444 0.0
C535 C 0.92024 0.78264 0.71873 0.0
C536 C 0.94996 0.78531 0.72477 0.0
C537 C 0.90035 0.78031 0.74056 0.0
C538 C 0.95951 0.78575 0.75311 0.0
C539 C 0.93982 0.78333 0.77495 0.0
H540 H 1.00285 0.91172 0.55717 0.0
H541 H 0.08665 0.90294 0.52263 0.0
H542 H 0.09691 0.87393 0.55871 0.0
H543 H 0.08039 0.84821 0.59771 0.0
H544 H 0.99584 0.85635 0.63139 0.0
H545 H 0.98754 0.88858 0.5982 0.0
C546 C 0.02352 0.90382 0.55798 0.0
C547 C 0.04412 0.90942 0.53765 0.0
C548 C 0.02896 0.88685 0.57843 0.0
C549 C 0.07068 0.89896 0.5384 0.0
C550 C 0.07643 0.88228 0.55888 0.0
C551 C 0.06023 0.8572 0.59798 0.0
C552 C 0.03869 0.84962 0.61692 0.0
C553 C 0.05549 0.87562 0.57865 0.0
C554 C 0.01276 0.86165 0.617 0.0
C555 C 0.00796 0.8801 0.59799 0.0
H556 H 0.20254 0.76533 0.72525 0.0
H557 H 0.1703 0.72676 0.79644 0.0
H558 H 0.12216 0.73903 0.78762 0.0
H559 H 0.0888 0.75757 0.75744 0.0
H560 H 0.12103 0.79553 0.68558 0.0
H561 H 0.16965 0.78696 0.69698 0.0
C562 C 0.18496 0.76008 0.73901 0.0
C563 C 0.18959 0.74532 0.76144 0.0
C564 C 0.1574 0.76691 0.73356 0.0
C565 C 0.16694 0.73829 0.77913 0.0
C566 C 0.1395 0.74519 0.77401 0.0
C567 C 0.10647 0.76422 0.74441 0.0
C568 C 0.10117 0.77696 0.72053 0.0
C569 C 0.13437 0.75902 0.75095 0.0
C570 C 0.12442 0.78558 0.70401 0.0
C571 C 0.15226 0.78064 0.71047 0.0
H572 H 0.9782 0.59815 0.58919 0.0
H573 H 0.02366 0.63512 0.52276 0.0
H574 H 0.03006 0.68288 0.55407 0.0
H575 H 0.02336 0.71392 0.60068 0.0
H576 H 0.97865 0.67636 0.6673 0.0
H577 H 0.97106 0.62915 0.63543 0.0
C578 C 0.98921 0.61674 0.58145 0.0
C579 C 1.00034 0.61314 0.55366 0.0
C580 C 0.99297 0.64402 0.59961 0.0
C581 C 0.01506 0.63731 0.54413 0.0
C582 C 0.01863 0.66462 0.56199 0.0
C583 C 0.01183 0.69544 0.60818 0.0
C584 C 1.0016 0.69872 0.63636 0.0
C585 C 0.00779 0.66821 0.58983 0.0
C586 C 0.98684 0.67448 0.64577 0.0
C587 C 0.98246 0.64744 0.62755 0.0
H588 H 0.81199 0.87891 0.25039 0.0
H589 H 0.77979 0.87907 0.16489 0.0
H590 H 0.8129 0.92297 0.16262 0.0
H591 H 0.85019 0.9621 0.18561 0.0
H592 H 0.88191 0.96137 0.27133 0.0
H593 H 0.84966 0.91712 0.27285 0.0
C594 C 0.81208 0.88867 0.23133 0.0
C595 C 0.79332 0.87588 0.20794 0.0
C596 C 0.83107 0.91387 0.23022 0.0
C597 C 0.79414 0.88842 0.18314 0.0
C598 C 0.81296 0.91359 0.18188 0.0
C599 C 0.85009 0.95223 0.20459 0.0
C600 C 0.86841 0.9652 0.22834 0.0
C601 C 0.83143 0.92662 0.20538 0.0
C602 C 0.86804 0.95199 0.25272 0.0
C603 C 0.84957 0.92663 0.25366 0.0
H604 H 0.79787 0.15817 0.32937 0.0
H605 H 0.81952 0.18985 0.25122 0.0
H606 H 0.85425 0.1552 0.24046 0.0
H607 H 0.87838 0.11556 0.2532 0.0
H608 H 0.85634 0.08431 0.33159 0.0
H609 H 0.82229 0.11936 0.34241 0.0
C610 C 0.81041 0.15775 0.31013 0.0
C611 C 0.80606 0.17665 0.29117 0.0
C612 C 0.83037 0.13782 0.30411 0.0
C613 C 0.82216 0.17536 0.26606 0.0
C614 C 0.84216 0.15564 0.25996 0.0
C615 C 0.86621 0.11649 0.2727 0.0
C616 C 0.86999 0.09725 0.29151 0.0
C617 C 0.84641 0.13669 0.2788 0.0
C618 C 0.85392 0.09876 0.31665 0.0
C619 C 0.83438 0.11882 0.3229 0.0
H620 H 0.44498 0.04406 0.05398 0.0
H621 H 0.454 0.02947 0.96193 0.0
H622 H 0.41393 0.99021 0.95624 0.0
H623 H 0.37588 0.96047 0.97739 0.0
H624 H 0.36659 0.97589 0.06948 0.0
H625 H 0.40697 0.01461 0.07506 0.0
C626 C 0.43801 0.03252 0.03263 0.0
C627 C 0.45245 0.03982 0.00842 0.0
C628 C 0.41486 0.01012 0.0295 0.0
C629 C 0.44347 0.02417 0.98097 0.0
C630 C 0.42045 1.0018 0.97768 0.0
C631 C 0.38269 0.97226 0.9987 0.0
C632 C 0.36814 0.96523 0.02296 0.0
C633 C 0.40595 0.99462 1.00179 0.0
C634 C 0.37732 0.9808 0.0504 0.0
C635 C 0.40044 0.00298 0.05364 0.0
H636 H 0.26855 0.38167 0.32701 0.0
H637 H 0.21064 0.31911 0.26926 0.0
H638 H 0.18956 0.35828 0.25266 0.0
H639 H 0.18496 0.41019 0.25772 0.0
H640 H 0.24286 0.4729 0.31581 0.0
H641 H 0.26669 0.43398 0.329 0.0
C642 C 0.25173 0.3768 0.31036 0.0
C643 C 0.24114 0.34783 0.29912 0.0
C644 C 0.23951 0.39943 0.30127 0.0
C645 C 0.21917 0.34144 0.27789 0.0
C646 C 0.20702 0.36378 0.26858 0.0
C647 C 0.20293 0.41537 0.2731 0.0
C648 C 0.21187 0.44442 0.28597 0.0
C649 C 0.21657 0.39285 0.28062 0.0
C650 C 0.23541 0.45074 0.30564 0.0
C651 C 0.24906 0.42848 0.31325 0.0
H652 H 0.08712 0.05062 0.47426 0.0
H653 H 0.12618 0.97649 0.48871 0.0
H654 H 0.17208 0.00739 0.50153 0.0
H655 H 0.20156 0.05533 0.50669 0.0
H656 H 0.1617 0.12915 0.49224 0.0
H657 H 0.11583 0.09845 0.48106 0.0
C658 C 0.1057 0.04122 0.48018 0.0
C659 C 0.10332 0.01129 0.48033 0.0
C660 C 0.13195 0.05903 0.48733 0.0
C661 C 0.12743 0.99951 0.48859 0.0
C662 C 0.15371 0.01713 0.49572 0.0
C663 C 0.18283 0.06469 0.50112 0.0
C664 C 0.18517 0.09451 0.50016 0.0
C665 C 0.15631 0.04689 0.49485 0.0
C666 C 0.16059 0.1063 0.49313 0.0
C667 C 0.1343 0.08876 0.48671 0.0
H668 H 0.76759 0.13081 0.6913 0.0
H669 H 0.77345 0.16455 0.78247 0.0
H670 H 0.74448 0.12048 0.79163 0.0
H671 H 0.71682 0.07272 0.77355 0.0
H672 H 0.71133 0.03918 0.6822 0.0
H673 H 0.74061 0.08295 0.67331 0.0
C674 C 0.76235 0.12858 0.71316 0.0
C675 C 0.7725 0.15093 0.73616 0.0
C676 C 0.74571 0.10327 0.71823 0.0
C677 C 0.76603 0.14754 0.76442 0.0
C678 C 0.74936 0.12243 0.76964 0.0
C679 C 0.72202 0.07498 0.75169 0.0
C680 C 0.7118 0.05271 0.72858 0.0
C681 C 0.739 0.10019 0.74669 0.0
C682 C 0.71889 0.05594 0.70041 0.0
C683 C 0.73563 0.08099 0.69527 0.0
H684 H 0.42559 0.05051 0.55452 0.0
H685 H 0.38098 0.96403 0.52977 0.0
H686 H 0.34023 0.98338 0.51058 0.0
H687 H 0.31584 0.02546 0.50503 0.0
H688 H 0.36052 0.11204 0.53175 0.0
H689 H 0.40273 0.09218 0.54581 0.0
C690 C 0.40713 0.03596 0.54436 0.0
C691 C 0.40606 0.00603 0.54322 0.0
C692 C 0.38372 0.04732 0.53408 0.0
C693 C 0.38211 0.98719 0.5305 0.0
C694 C 0.35884 0.99828 0.51975 0.0
C695 C 0.3349 0.03997 0.51364 0.0
C696 C 0.33482 0.07023 0.51758 0.0
C697 C 0.35912 0.02839 0.52205 0.0
C698 C 0.35981 0.08869 0.52871 0.0
C699 C 0.38403 0.07736 0.53676 0.0
H700 H 0.65121 0.53316 0.52256 0.0
H701 H 0.61463 0.48448 0.58541 0.0
H702 H 0.65403 0.4549 0.5795 0.0
H703 H 0.69801 0.44172 0.55522 0.0
H704 H 0.73396 0.49002 0.49172 0.0
H705 H 0.69549 0.52057 0.49891 0.0
C706 C 0.65178 0.51599 0.53488 0.0
C707 C 0.62993 0.51104 0.55435 0.0
C708 C 0.67431 0.49885 0.53114 0.0
C709 C 0.6313 0.48901 0.57051 0.0
C710 C 0.65373 0.47193 0.56698 0.0
C711 C 0.69747 0.45895 0.54297 0.0
C712 C 0.71883 0.46344 0.52286 0.0
C713 C 0.67523 0.4765 0.54719 0.0
C714 C 0.71781 0.48597 0.50728 0.0
C715 C 0.6958 0.5035 0.51138 0.0
H716 H 0.75689 0.28953 0.34843 0.0
H717 H 0.76335 0.21181 0.38247 0.0
H718 H 0.76443 0.2395 0.43145 0.0
H719 H 0.7653 0.28604 0.46457 0.0
H720 H 0.75923 0.36394 0.43059 0.0
H721 H 0.75589 0.33588 0.38172 0.0
C722 C 0.75812 0.2786 0.36658 0.0
C723 C 0.76016 0.24866 0.36179 0.0
C724 C 0.7589 0.2947 0.39472 0.0
C725 C 0.76212 0.23489 0.38556 0.0
C726 C 0.76265 0.25069 0.41358 0.0
C727 C 0.76311 0.2969 0.44651 0.0
C728 C 0.76265 0.32711 0.45132 0.0
C729 C 0.76139 0.28067 0.41842 0.0
C730 C 0.75975 0.34075 0.42758 0.0
C731 C 0.75784 0.32471 0.39958 0.0
H732 H 0.59098 0.02853 0.93963 0.0
H733 H 0.52885 0.07758 0.91093 0.0
H734 H 0.54345 0.06403 0.86107 0.0
H735 H 0.57638 0.04107 0.82641 0.0
H736 H 0.63904 0.99247 0.8556 0.0
H737 H 0.62173 0.00283 0.90442 0.0
C738 C 0.58036 0.03571 0.92227 0.0
C739 C 0.55884 0.05373 0.92851 0.0
C740 C 0.58919 0.02818 0.89388 0.0
C741 C 0.54532 0.06339 0.90625 0.0
C742 C 0.55379 0.05581 0.87788 0.0
C743 C 0.58615 0.0326 0.8434 0.0
C744 C 0.60917 0.01626 0.83734 0.0
C745 C 0.57611 0.03869 0.87152 0.0
C746 C 0.6214 0.00525 0.85963 0.0
C747 C 0.61152 0.01116 0.8876 0.0
H748 H 0.26568 0.21216 0.35556 0.0
H749 H 0.34065 0.26237 0.40099 0.0
H750 H 0.33662 0.23126 0.43738 0.0
H751 H 0.31036 0.1909 0.45725 0.0
H752 H 0.23638 0.13986 0.41038 0.0
H753 H 0.24133 0.17021 0.37369 0.0
C754 C 0.28117 0.21618 0.3734 0.0
C755 C 0.30329 0.23959 0.37578 0.0
C756 C 0.27877 0.19817 0.39406 0.0
C757 C 0.32351 0.24438 0.39871 0.0
C758 C 0.32109 0.22672 0.41957 0.0
C759 C 0.29536 0.18643 0.43898 0.0
C760 C 0.27289 0.16328 0.43669 0.0
C761 C 0.29858 0.20376 0.41765 0.0
C762 C 0.25386 0.15752 0.41269 0.0
C763 C 0.25664 0.1749 0.39169 0.0
H764 H 0.55787 0.50273 0.90238 0.0
H765 H 0.48035 0.51642 0.94861 0.0
H766 H 0.45809 0.52801 0.90601 0.0
H767 H 0.46003 0.53262 0.85515 0.0
H768 H 0.53667 0.51664 0.80809 0.0
H769 H 0.56 0.50794 0.85148 0.0
C770 C 0.5362 0.50851 0.90314 0.0
C771 C 0.52075 0.50867 0.92858 0.0
C772 C 0.52339 0.51475 0.87841 0.0
C773 C 0.49257 0.51587 0.9292 0.0
C774 C 0.47988 0.5226 0.90488 0.0
C775 C 0.48194 0.52753 0.85444 0.0
C776 C 0.4966 0.52537 0.8284 0.0
C777 C 0.49499 0.52189 0.8793 0.0
C778 C 0.52488 0.51841 0.82782 0.0
C779 C 0.53823 0.51339 0.85263 0.0
H780 H 0.74355 0.79975 0.1315 0.0
H781 H 0.75413 0.74466 0.19307 0.0
H782 H 0.75834 0.70383 0.15392 0.0
H783 H 0.76222 0.68475 0.10211 0.0
H784 H 0.75088 0.74011 0.04081 0.0
H785 H 0.74398 0.77983 0.07987 0.0
C786 C 0.74657 0.77872 0.1363 0.0
C787 C 0.74868 0.77524 0.1651 0.0
C788 C 0.74915 0.75547 0.11373 0.0
C789 C 0.75222 0.74781 0.17106 0.0
C790 C 0.75488 0.72454 0.14869 0.0
C791 C 0.75816 0.70549 0.09732 0.0
C792 C 0.75737 0.70951 0.06857 0.0
C793 C 0.75392 0.72826 0.11994 0.0
C794 C 0.75169 0.7364 0.06272 0.0
C795 C 0.74775 0.75918 0.08505 0.0
H796 H 0.0872 0.04822 0.14191 0.0
H797 H 0.01898 0.05083 0.08144 0.0
H798 H 0.98395 0.05048 0.11974 0.0
H799 H 0.97287 0.04934 0.17077 0.0
H800 H 0.04224 0.04813 0.23074 0.0
H801 H 0.07649 0.0478 0.19231 0.0
C802 C 0.06461 0.04842 0.13704 0.0
C803 C 0.05566 0.04926 0.10883 0.0
C804 C 0.04476 0.0485 0.15914 0.0
C805 C 0.02641 0.05021 0.10301 0.0
C806 C 0.00639 0.04994 0.12488 0.0
C807 C 0.99547 0.04897 0.17538 0.0
C808 C 0.00488 0.04872 0.20368 0.0
C809 C 0.01532 0.04908 0.15309 0.0
C810 C 0.03431 0.04842 0.20927 0.0
C811 C 0.05399 0.04818 0.18726 0.0
H812 H 0.31932 0.77139 0.14946 0.0
H813 H 0.26499 0.82522 0.20185 0.0
H814 H 0.27178 0.86089 0.16999 0.0
H815 H 0.28943 0.87421 0.12471 0.0
H816 H 0.34358 0.81999 0.07201 0.0
H817 H 0.34084 0.7872 0.10648 0.0
C818 C 0.3096 0.79131 0.15414 0.0
C819 C 0.2919 0.79604 0.17785 0.0
C820 C 0.31326 0.81141 0.13547 0.0
C821 C 0.27897 0.82152 0.18374 0.0
C822 C 0.28267 0.84173 0.16544 0.0
C823 C 0.30084 0.85537 0.12089 0.0
C824 C 0.31638 0.84941 0.09562 0.0
C825 C 0.29916 0.83652 0.14082 0.0
C826 C 0.33132 0.82506 0.09119 0.0
C827 C 0.32975 0.80622 0.11089 0.0
H828 H 0.05692 0.44739 0.09159 0.0
H829 H 0.98751 0.49605 0.12118 0.0
H830 H 0.00864 0.50685 0.16992 0.0
H831 H 0.04749 0.50336 0.20392 0.0
H832 H 0.11627 0.45389 0.17391 0.0
H833 H 0.09429 0.44204 0.12573 0.0
C834 C 0.04606 0.45993 0.10874 0.0
C835 C 0.02059 0.47083 0.10261 0.0
C836 C 0.05822 0.46593 0.13671 0.0
C837 C 0.00729 0.48763 0.12513 0.0
C838 C 0.01929 0.49371 0.15306 0.0
C839 C 0.05759 0.48983 0.1869 0.0
C840 C 0.08359 0.47964 0.19262 0.0
C841 C 0.04487 0.48314 0.15907 0.0
C842 C 0.09631 0.46211 0.17022 0.0
C843 C 0.08378 0.45533 0.14259 0.0
H844 H 0.34188 0.71227 0.29855 0.0
H845 H 0.3724 0.74537 0.22345 0.0
H846 H 0.42098 0.75683 0.24498 0.0
H847 H 0.45506 0.75617 0.28469 0.0
H848 H 0.42419 0.72131 0.35881 0.0
H849 H 0.37562 0.71131 0.33777 0.0
C850 C 0.35918 0.72169 0.28668 0.0
C851 C 0.35345 0.72773 0.25929 0.0
C852 C 0.38708 0.72778 0.29896 0.0
C853 C 0.37608 0.74068 0.24464 0.0
C854 C 0.40393 0.74706 0.25687 0.0
C855 C 0.43771 0.7464 0.29626 0.0
C856 C 0.44337 0.73947 0.3233 0.0
C857 C 0.40972 0.74054 0.28396 0.0
C858 C 0.42057 0.72681 0.33795 0.0
C859 C 0.39272 0.7211 0.32595 0.0
H860 H 0.04506 0.40107 0.02121 0.0
H861 H 0.96063 0.40325 0.98573 0.0
H862 H 0.96429 0.35834 0.95183 0.0
H863 H 0.9919 0.31908 0.93149 0.0
H864 H 0.07648 0.31696 0.96681 0.0
H865 H 0.0722 0.361 1.00165 0.0
C866 C 0.02733 0.3915 0.0063 0.0
C867 C 1.00265 0.40552 0.00595 0.0
C868 C 0.02963 0.36572 0.98676 0.0
C869 C 0.98 0.39305 0.98622 0.0
C870 C 0.98203 0.36733 0.96689 0.0
C871 C 0.00938 0.32819 0.94685 0.0
C872 C 0.0345 0.31473 0.94643 0.0
C873 C 0.00685 0.35361 0.96679 0.0
C874 C 0.05692 0.32686 0.96655 0.0
C875 C 0.0545 0.35208 0.98653 0.0
H876 H 0.68257 0.75515 0.28083 0.0
H877 H 0.64986 0.8344 0.27243 0.0
H878 H 0.60499 0.81858 0.29464 0.0
H879 H 0.57672 0.78383 0.31981 0.0
H880 H 0.60943 0.70432 0.32814 0.0
H881 H 0.65241 0.71843 0.30255 0.0
C882 C 0.66528 0.76856 0.28339 0.0
C883 C 0.66913 0.7957 0.27496 0.0
C884 C 0.63972 0.75943 0.29646 0.0
C885 C 0.647 0.81325 0.2786 0.0
C886 C 0.62149 0.80431 0.29145 0.0
C887 C 0.59317 0.76951 0.31587 0.0
C888 C 0.58995 0.7432 0.32618 0.0
C889 C 0.61786 0.77771 0.30104 0.0
C890 C 0.61135 0.72475 0.32058 0.0
C891 C 0.63601 0.73281 0.30595 0.0
H892 H 0.07698 0.10644 0.96615 0.0
H893 H 0.04943 0.14869 0.04792 0.0
H894 H 0.02589 0.18202 0.02407 0.0
H895 H 0.01687 0.20141 0.98022 0.0
H896 H 0.04656 0.15972 0.8988 0.0
H897 H 0.0654 0.12379 0.92214 0.0
C898 C 0.06531 0.12264 0.97858 0.0
C899 C 0.06456 0.1252 0.00853 0.0
C900 C 0.05252 0.14195 0.96479 0.0
C901 C 0.04989 0.14635 0.02472 0.0
C902 C 0.03664 0.16543 0.0111 0.0
C903 C 0.02717 0.18428 0.96752 0.0
C904 C 0.03046 0.18345 0.93779 0.0
C905 C 0.03836 0.16382 0.98119 0.0
C906 C 0.0439 0.16107 0.92171 0.0
C907 C 0.05469 0.14046 0.93504 0.0
H908 H 0.33243 0.28974 0.2643 0.0
H909 H 0.38601 0.29628 0.34022 0.0
H910 H 0.42906 0.3029 0.31204 0.0
H911 H 0.45158 0.30558 0.2654 0.0
H912 H 0.39745 0.29966 0.1899 0.0
H913 H 0.35471 0.29455 0.21845 0.0
C914 C 0.35349 0.2931 0.27484 0.0
C915 C 0.35587 0.29244 0.30438 0.0
C916 C 0.37816 0.29696 0.25853 0.0
C917 C 0.38346 0.2963 0.31746 0.0
C918 C 0.40813 0.30021 0.30137 0.0
C919 C 0.43044 0.30331 0.25523 0.0
C920 C 0.42784 0.30292 0.22548 0.0
C921 C 0.40576 0.30031 0.27181 0.0
C922 C 0.40021 0.3 0.21271 0.0
C923 C 0.37567 0.29704 0.22902 0.0
H924 H 0.4932 0.4331 0.07563 0.0
H925 H 0.56905 0.41104 0.03041 0.0
H926 H 0.57836 0.37965 0.06455 0.0
H927 H 0.5631 0.35634 0.10547 0.0
H928 H 0.48663 0.37812 0.15028 0.0
H929 H 0.47946 0.41187 0.1183 0.0
C930 C 0.51196 0.42167 0.07362 0.0
C931 C 0.53054 0.42425 0.05084 0.0
C932 C 0.51691 0.40351 0.09311 0.0
C933 C 0.55464 0.40933 0.04802 0.0
C934 C 0.55985 0.39136 0.06743 0.0
C935 C 0.54497 0.36861 0.10841 0.0
C936 C 0.52534 0.36449 0.13019 0.0
C937 C 0.54087 0.38792 0.0898 0.0
C938 C 0.50205 0.38073 0.13369 0.0
C939 C 0.49789 0.40004 0.11537 0.0
H940 H 0.68709 0.27862 0.23655 0.0
H941 H 0.65378 0.21555 0.28725 0.0
H942 H 0.60517 0.22834 0.28225 0.0
H943 H 0.57182 0.25468 0.26011 0.0
H944 H 0.60514 0.31728 0.20854 0.0
H945 H 0.65403 0.30777 0.21745 0.0
C946 C 0.66916 0.26811 0.24685 0.0
C947 C 0.67368 0.24632 0.26229 0.0
C948 C 0.64131 0.27536 0.24355 0.0
C949 C 0.65055 0.23253 0.27541 0.0
C950 C 0.62282 0.23975 0.27243 0.0
C951 C 0.58977 0.26651 0.25107 0.0
C952 C 0.58469 0.2865 0.23346 0.0
C953 C 0.61786 0.26072 0.25605 0.0
C954 C 0.60832 0.3017 0.22208 0.0
C955 C 0.63633 0.29622 0.2271 0.0
H956 H 0.47794 0.11836 0.09071 0.0
H957 H 0.51683 0.16666 0.02858 0.0
H958 H 0.51746 0.21188 0.06308 0.0
H959 H 0.50845 0.23757 0.11127 0.0
H960 H 0.46951 0.18962 0.1737 0.0
H961 H 0.46708 0.14451 0.1386 0.0
C962 C 0.48621 0.13883 0.08463 0.0
C963 C 0.49753 0.1391 0.05719 0.0
C964 C 0.48656 0.16482 0.10463 0.0
C965 C 0.50842 0.1658 0.04972 0.0
C966 C 0.50868 0.19169 0.06939 0.0
C967 C 0.49931 0.21729 0.11721 0.0
C968 C 0.48931 0.21702 0.14514 0.0
C969 C 0.4981 0.19143 0.097 0.0
C970 C 0.47745 0.1905 0.15238 0.0
C971 C 0.47606 0.16466 0.13232 0.0
H972 H 0.29825 0.38438 0.70131 0.0
H973 H 0.33677 0.35923 0.77442 0.0
H974 H 0.37056 0.40385 0.78199 0.0
H975 H 0.38854 0.45046 0.7685 0.0
H976 H 0.35015 0.47562 0.69525 0.0
H977 H 0.31724 0.4304 0.6869 0.0
C978 C 0.31427 0.38851 0.71868 0.0
C979 C 0.31487 0.36855 0.73734 0.0
C980 C 0.33366 0.41423 0.72292 0.0
C981 C 0.33555 0.37441 0.75999 0.0
C982 C 0.35498 0.39986 0.76426 0.0
C983 C 0.37305 0.44604 0.75064 0.0
C984 C 0.3718 0.46649 0.7326 0.0
C985 C 0.35409 0.42003 0.746 0.0
C986 C 0.35159 0.46033 0.70953 0.0
C987 C 0.33272 0.43445 0.70473 0.0
H988 H 0.30119 0.65934 0.79451 0.0
H989 H 0.36408 0.73441 0.82193 0.0
H990 H 0.4024 0.70337 0.81779 0.0
H991 H 0.41818 0.65492 0.80462 0.0
H992 H 0.35474 0.58035 0.77623 0.0
H993 H 0.31666 0.61126 0.78215 0.0
C994 C 0.3233 0.66897 0.7994 0.0
C995 C 0.32974 0.69919 0.80832 0.0
C996 C 0.3452 0.65108 0.79665 0.0
C997 C 0.35846 0.7112 0.81521 0.0
C998 C 0.38042 0.69348 0.81266 0.0
C999 C 0.39603 0.64542 0.79979 0.0
C1000 C 0.38944 0.61531 0.78988 0.0
C1001 C 0.37406 0.66339 0.80316 0.0
C1002 C 0.36055 0.60341 0.7838 0.0
C1003 C 0.33868 0.62108 0.78718 0.0
H1004 H 0.93453 0.53148 0.56272 0.0
H1005 H 0.94049 0.49824 0.47205 0.0
H1006 H 0.89605 0.46527 0.47313 0.0
H1007 H 0.85519 0.44638 0.49976 0.0
H1008 H 0.84896 0.48078 0.59022 0.0
H1009 H 0.89365 0.51312 0.58912 0.0
C1010 C 0.92594 0.51732 0.54307 0.0
C1011 C 0.94077 0.5175 0.51729 0.0
C1012 C 0.90032 0.49863 0.5438 0.0
C1013 C 0.92965 0.49843 0.49222 0.0
C1014 C 0.90416 0.47966 0.4928 0.0
C1015 C 0.86363 0.4609 0.51926 0.0
C1016 C 0.8487 0.46111 0.54505 0.0
C1017 C 0.88931 0.47959 0.51847 0.0
C1018 C 0.85994 0.48016 0.57007 0.0
C1019 C 0.88552 0.49867 0.56948 0.0
H1020 H 0.78415 0.88067 0.82787 0.0
H1021 H 0.72629 0.8158 0.77245 0.0
H1022 H 0.70451 0.85374 0.7543 0.0
H1023 H 0.69886 0.90529 0.75808 0.0
H1024 H 0.75623 0.97017 0.81461 0.0
H1025 H 0.78147 0.93245 0.82822 0.0
C1026 C 0.76719 0.87501 0.81135 0.0
C1027 C 0.75675 0.8458 0.80126 0.0
C1028 C 0.75452 0.89692 0.80151 0.0
C1029 C 0.73465 0.83834 0.7802 0.0
C1030 C 0.72213 0.85999 0.77001 0.0
C1031 C 0.71709 0.91121 0.77312 0.0
C1032 C 0.72536 0.9405 0.78558 0.0
C1033 C 0.73138 0.88936 0.78109 0.0
C1034 C 0.74921 0.94779 0.80485 0.0
C1035 C 0.76367 0.92622 0.81271 0.0
H1036 H 0.6218 0.51779 0.95889 0.0
H1037 H 0.59008 0.52879 0.04512 0.0
H1038 H 0.63595 0.5566 0.06362 0.0
H1039 H 0.68408 0.58025 0.05494 0.0
H1040 H 0.71525 0.56999 0.96842 0.0
H1041 H 0.67057 0.53969 0.95047 0.0
C1042 C 0.62491 0.5263 0.98173 0.0
C1043 C 0.60245 0.52132 1.00055 0.0
C1044 C 0.65121 0.54259 0.99219 0.0
C1045 C 0.60706 0.53206 0.03017 0.0
C1046 C 0.63323 0.54816 0.04075 0.0
C1047 C 0.68119 0.57125 0.03218 0.0
C1048 C 0.70299 0.57759 0.01308 0.0
C1049 C 0.65532 0.5539 0.02191 0.0
C1050 C 0.69886 0.56559 0.98365 0.0
C1051 C 0.67327 0.54826 0.97332 0.0
H1052 H 0.22279 0.679 0.25214 0.0
H1053 H 0.29579 0.63232 0.23335 0.0
H1054 H 0.26639 0.58717 0.23873 0.0
H1055 H 0.21954 0.56074 0.24756 0.0
H1056 H 0.14641 0.60764 0.26482 0.0
H1057 H 0.17621 0.65277 0.26072 0.0
C1058 C 0.23225 0.65891 0.24894 0.0
C1059 C 0.26145 0.65908 0.24223 0.0
C1060 C 0.21515 0.63301 0.25164 0.0
C1061 C 0.27346 0.63291 0.23881 0.0
C1062 C 0.2566 0.60703 0.24169 0.0
C1063 C 0.21012 0.58083 0.25043 0.0
C1064 C 0.18074 0.58073 0.25642 0.0
C1065 C 0.22737 0.6068 0.24795 0.0
C1066 C 0.16892 0.607 0.26011 0.0
C1067 C 0.18595 0.63287 0.25781 0.0
H1068 H 0.96109 0.57963 0.0333 0.0
H1069 H 0.90486 0.50167 0.03925 0.0
H1070 H 0.86303 0.52823 0.04139 0.0
H1071 H 0.84238 0.5727 0.03738 0.0
H1072 H 0.89887 0.65061 0.03064 0.0
H1073 H 0.94064 0.62517 0.03321 0.0
C1074 C 0.93967 0.56874 0.03567 0.0
C1075 C 0.93577 0.53898 0.03634 0.0
C1076 C 0.91581 0.58406 0.03641 0.0
C1077 C 0.90813 0.52473 0.039 0.0
C1078 C 0.88428 0.53985 0.04002 0.0
C1079 C 0.86382 0.5842 0.03673 0.0
C1080 C 0.86741 0.61347 0.03351 0.0
C1081 C 0.88781 0.56939 0.03808 0.0
C1082 C 0.89541 0.62806 0.03294 0.0
C1083 C 0.91936 0.61352 0.03438 0.0
H1084 H 0.14908 0.01126 0.0162 0.0
H1085 H 0.14456 0.00964 0.10709 0.0
H1086 H 0.18387 0.98009 0.10354 0.0
H1087 H 0.22202 0.95745 0.07524 0.0
H1088 H 0.2297 0.9647 0.98595 0.0
H1089 H 0.18723 0.98995 0.98848 0.0
C1090 C 0.15682 0.0049 0.03544 0.0
C1091 C 0.14375 0.01307 0.06193 0.0
C1092 C 0.1803 0.98904 0.03357 0.0
C1093 C 0.15373 0.00353 0.08627 0.0
C1094 C 0.1765 0.98682 0.08435 0.0
C1095 C 0.21419 0.96441 0.05634 0.0
C1096 C 0.2289 0.95923 0.03043 0.0
C1097 C 0.19024 0.9798 0.05819 0.0
C1098 C 0.21881 0.9686 0.00616 0.0
C1099 C 0.1945 0.98298 0.00758 0.0
loop_
_geom_bond_atom_site_label_1
_geom_bond_atom_site_label_2
_geom_bond_distance
_geom_bond_site_symmetry_2
_ccdc_geom_bond_type
H0 C3 0.929 . S
H1 C6 0.929 . S
H2 C8 0.930 . S
C3 H0 0.929 . S
C3 C4 1.398 . S
C3 C5 1.396 . S
C4 C3 1.398 . S
C4 C8 1.407 . S
C5 C3 1.396 . S
C5 C6 1.394 . S
C6 H1 0.929 . S
C6 C5 1.394 . S
C6 C7 1.382 . S
C7 C6 1.382 . S
C7 C8 1.392 . S
C7 N9 1.420 . S
C8 H2 0.930 . S
C8 C4 1.407 . S
C8 C7 1.392 . S
N9 C7 1.420 . S
N9 C10 1.244 . S
C10 N9 1.244 . S
H11 C14 0.929 . S
H12 C17 0.929 . S
H13 C19 0.930 . S
C14 H11 0.929 . S
C14 C15 1.398 . S
C14 C16 1.396 . S
C15 C14 1.398 . S
C15 C19 1.407 . S
C16 C14 1.396 . S
C16 C17 1.394 . S
C17 H12 0.929 . S
C17 C16 1.394 . S
C17 C18 1.382 . S
C18 C17 1.382 . S
C18 C19 1.392 . S
C18 N20 1.420 . S
C19 H13 0.930 . S
C19 C15 1.407 . S
C19 C18 1.392 . S
N20 C18 1.420 . S
N20 C21 1.244 . S
C21 N20 1.244 . S
H22 C25 0.929 . S
H23 C28 0.929 . S
H24 C30 0.930 1_556 S
C25 H22 0.929 . S
C25 C26 1.398 . S
C25 C27 1.396 . S
C26 C25 1.398 . S
C26 C30 1.407 1_455 S
C27 C25 1.396 . S
C27 C28 1.394 1_455 S
C28 H23 0.929 . S
C28 C27 1.394 1_655 S
C28 C29 1.382 . S
C29 C28 1.382 . S
C29 C30 1.392 . S
C29 N31 1.420 . S
C30 H24 0.930 1_554 S
C30 C26 1.407 1_655 S
C30 C29 1.392 . S
N31 C29 1.420 . S
N31 C32 1.244 . S
C32 N31 1.244 . S
H33 C36 0.929 . S
H34 C39 0.929 . S
H35 C41 0.930 . S
C36 H33 0.929 . S
C36 C37 1.398 . S
C36 C38 1.396 . S
C37 C36 1.398 . S
C37 C41 1.407 . S
C38 C36 1.396 . S
C38 C39 1.394 . S
C39 H34 0.929 . S
C39 C38 1.394 . S
C39 C40 1.382 . S
C40 C39 1.382 . S
C40 C41 1.392 . S
C40 N42 1.420 . S
C41 H35 0.930 . S
C41 C37 1.407 . S
C41 C40 1.392 . S
N42 C40 1.420 . S
N42 C43 1.244 . S
C43 N42 1.244 . S
H44 C47 0.929 . S
H45 C50 0.929 . S
H46 C52 0.930 . S
C47 H44 0.929 . S
C47 C48 1.398 1_545 S
C47 C49 1.396 . S
C48 C47 1.398 1_565 S
C48 C52 1.407 . S
C49 C47 1.396 . S
C49 C50 1.394 1_545 S
C50 H45 0.929 . S
C50 C49 1.394 1_565 S
C50 C51 1.382 . S
C51 C50 1.382 . S
C51 C52 1.392 . S
C51 N53 1.420 . S
C52 H46 0.930 . S
C52 C48 1.407 . S
C52 C51 1.392 . S
N53 C51 1.420 . S
N53 C54 1.244 . S
C54 N53 1.244 . S
H55 C58 0.929 . S
H56 C61 0.929 . S
H57 C63 0.930 . S
C58 H55 0.929 . S
C58 C59 1.398 . S
C58 C60 1.396 . S
C59 C58 1.398 . S
C59 C63 1.407 . S
C60 C58 1.396 . S
C60 C61 1.394 . S
C61 H56 0.929 . S
C61 C60 1.394 . S
C61 C62 1.382 . S
C62 C61 1.382 . S
C62 C63 1.392 . S
C62 N64 1.420 . S
C63 H57 0.930 . S
C63 C59 1.407 . S
C63 C62 1.392 . S
N64 C62 1.420 . S
N64 C65 1.244 . S
C65 N64 1.244 . S
H66 C69 0.929 . S
H67 C72 0.929 . S
H68 C74 0.930 . S
C69 H66 0.929 . S
C69 C70 1.398 . S
C69 C71 1.396 . S
C70 C69 1.398 . S
C70 C74 1.407 . S
C71 C69 1.396 . S
C71 C72 1.394 1_655 S
C72 H67 0.929 . S
C72 C71 1.394 1_455 S
C72 C73 1.382 1_455 S
C73 C72 1.382 1_655 S
C73 C74 1.392 . S
C73 N75 1.420 1_655 S
C74 H68 0.930 . S
C74 C70 1.407 . S
C74 C73 1.392 . S
N75 C73 1.420 1_455 S
N75 C76 1.244 . S
C76 N75 1.244 . S
H77 C80 0.929 . S
H78 C83 0.929 . S
H79 C85 0.930 . S
C80 H77 0.929 . S
C80 C81 1.398 . S
C80 C82 1.396 . S
C81 C80 1.398 . S
C81 C85 1.407 . S
C82 C80 1.396 . S
C82 C83 1.394 . S
C83 H78 0.929 . S
C83 C82 1.394 . S
C83 C84 1.382 . S
C84 C83 1.382 . S
C84 C85 1.392 . S
C84 N86 1.420 . S
C85 H79 0.930 . S
C85 C81 1.407 . S
C85 C84 1.392 . S
N86 C84 1.420 . S
N86 C87 1.244 . S
C87 N86 1.244 . S
H88 C91 0.929 . S
H89 C94 0.929 . S
H90 C96 0.930 . S
C91 H88 0.929 . S
C91 C92 1.398 . S
C91 C93 1.396 . S
C92 C91 1.398 . S
C92 C96 1.407 . S
C93 C91 1.396 . S
C93 C94 1.394 . S
C94 H89 0.929 . S
C94 C93 1.394 . S
C94 C95 1.382 . S
C95 C94 1.382 . S
C95 C96 1.392 . S
C95 N97 1.420 . S
C96 H90 0.930 . S
C96 C92 1.407 . S
C96 C95 1.392 . S
N97 C95 1.420 . S
N97 C98 1.244 . S
C98 N97 1.244 . S
H99 C102 0.929 . S
H100 C105 0.900 1_545 S
H101 C107 0.930 . S
C102 H99 0.929 . S
C102 C103 1.398 . S
C102 C104 1.396 . S
C103 C102 1.398 . S
C103 C107 1.407 . S
C104 C102 1.396 . S
C104 C105 1.422 . S
C105 H100 0.900 1_565 S
C105 C104 1.422 . S
C105 C106 1.383 . S
C106 C105 1.383 . S
C106 C107 1.392 . S
C106 N108 1.420 1_565 S
C107 H101 0.930 . S
C107 C103 1.407 . S
C107 C106 1.392 . S
N108 C106 1.420 1_545 S
N108 C109 1.244 . S
C109 N108 1.244 . S
H110 C113 0.929 . S
H111 C116 0.929 . S
H112 C118 0.930 . S
C113 H110 0.929 . S
C113 C114 1.398 . S
C113 C115 1.396 . S
C114 C113 1.398 . S
C114 C118 1.407 . S
C115 C113 1.396 . S
C115 C116 1.394 . S
C116 H111 0.929 . S
C116 C115 1.394 . S
C116 C117 1.382 . S
C117 C116 1.382 . S
C117 C118 1.392 . S
C117 N119 1.420 . S
C118 H112 0.930 . S
C118 C114 1.407 . S
C118 C117 1.392 . S
N119 C117 1.420 . S
N119 C120 1.244 . S
C120 N119 1.244 . S
H121 C124 0.929 . S
H122 C127 0.929 . S
H123 C129 0.930 . S
C124 H121 0.929 . S
C124 C125 1.398 . S
C124 C126 1.396 . S
C125 C124 1.398 . S
C125 C129 1.407 . S
C126 C124 1.396 . S
C126 C127 1.394 . S
C127 H122 0.929 . S
C127 C126 1.394 . S
C127 C128 1.382 . S
C128 C127 1.382 . S
C128 C129 1.392 . S
C128 N130 1.420 . S
C129 H123 0.930 . S
C129 C125 1.407 . S
C129 C128 1.392 . S
N130 C128 1.420 . S
N130 C131 1.244 . S
C131 N130 1.244 . S
H132 C135 0.929 . S
H133 C138 0.929 . S
H134 C140 0.930 . S
C135 H132 0.929 . S
C135 C136 1.398 . S
C135 C137 1.396 . S
C136 C135 1.398 . S
C136 C140 1.407 . S
C137 C135 1.396 . S
C137 C138 1.394 . S
C138 H133 0.929 . S
C138 C137 1.394 . S
C138 C139 1.382 . S
C139 C138 1.382 . S
C139 C140 1.392 . S
C139 N141 1.420 . S
C140 H134 0.930 . S
C140 C136 1.407 . S
C140 C139 1.392 . S
N141 C139 1.420 . S
N141 C142 1.244 . S
C142 N141 1.244 . S
H143 C146 0.929 . S
H144 C149 0.929 . S
H145 C151 0.930 . S
C146 H143 0.929 . S
C146 C147 1.398 . S
C146 C148 1.396 . S
C147 C146 1.398 . S
C147 C151 1.407 . S
C148 C146 1.396 . S
C148 C149 1.394 1_556 S
C149 H144 0.929 . S
C149 C148 1.394 1_554 S
C149 C150 1.382 1_554 S
C150 C149 1.382 1_556 S
C150 C151 1.392 . S
C150 N152 1.420 1_556 S
C151 H145 0.930 . S
C151 C147 1.407 . S
C151 C150 1.392 . S
N152 C150 1.420 1_554 S
N152 C153 1.244 . S
C153 N152 1.244 . S
H154 C157 0.929 . S
H155 C160 0.929 . S
H156 C162 0.930 . S
C157 H154 0.929 . S
C157 C158 1.398 . S
C157 C159 1.396 . S
C158 C157 1.398 . S
C158 C162 1.407 . S
C159 C157 1.396 . S
C159 C160 1.394 . S
C160 H155 0.929 . S
C160 C159 1.394 . S
C160 C161 1.382 . S
C161 C160 1.382 . S
C161 C162 1.392 . S
C161 N163 1.420 . S
C162 H156 0.930 . S
C162 C158 1.407 . S
C162 C161 1.392 . S
N163 C161 1.420 . S
N163 C164 1.244 . S
C164 N163 1.244 . S
H165 C168 0.929 . S
H166 C171 0.929 . S
H167 C173 0.930 1_565 S
C168 H165 0.929 . S
C168 C169 1.398 1_554 S
C168 C170 1.396 1_554 S
C169 C168 1.398 1_556 S
C169 C173 1.407 . S
C170 C168 1.396 1_556 S
C170 C171 1.394 . S
C171 H166 0.929 . S
C171 C170 1.394 . S
C171 C172 1.382 . S
C172 C171 1.382 . S
C172 C173 1.392 . S
C172 N174 1.420 . S
C173 H167 0.930 1_545 S
C173 C169 1.407 . S
C173 C172 1.392 . S
N174 C172 1.420 . S
N174 C175 1.244 . S
C175 N174 1.244 . S
C176 O177 1.160 . S
C176 O183 1.185 . S
O177 C176 1.160 . S
O178 Zn179 1.899 . S
O178 C186 1.290 . S
Zn179 O178 1.899 . S
Zn179 O180 2.032 . S
Zn179 O183 2.086 . S
Zn179 O188 1.977 . S
O180 Zn179 2.032 . S
O180 C184 1.278 . S
C181 O182 1.203 . S
C181 O188 1.267 . S
O182 C181 1.203 . S
O183 C176 1.185 . S
O183 Zn179 2.086 . S
C184 O180 1.278 . S
C184 O185 1.211 . S
O185 C184 1.211 . S
C186 O178 1.290 . S
C186 O187 1.272 1_554 S
O187 C186 1.272 1_556 S
O188 Zn179 1.977 . S
O188 C181 1.267 . S
C189 O190 1.160 . S
C189 O196 1.185 . S
O190 C189 1.160 . S
O191 Zn192 1.899 . S
O191 C199 1.284 . S
Zn192 O191 1.899 . S
Zn192 O193 2.032 . S
Zn192 O196 2.086 . S
Zn192 O201 1.977 . S
O193 Zn192 2.032 . S
O193 C197 1.278 . S
C194 O195 1.203 . S
C194 O201 1.267 . S
O195 C194 1.203 . S
O196 C189 1.185 . S
O196 Zn192 2.086 . S
C197 O193 1.278 . S
C197 O198 1.211 . S
O198 C197 1.211 . S
C199 O191 1.284 . S
C199 O200 1.273 . S
O200 C199 1.273 . S
O201 Zn192 1.977 . S
O201 C194 1.267 . S
C202 O203 1.172 . S
C202 O209 1.177 1_556 S
O203 C202 1.172 . S
O204 Zn205 1.899 1_556 S
O204 C212 1.284 . S
Zn205 O204 1.899 1_554 S
Zn205 O206 2.032 1_554 S
Zn205 O209 2.086 . S
Zn205 O214 1.977 . S
O206 Zn205 2.032 1_556 S
O206 C210 1.278 . S
C207 O208 1.203 . S
C207 O214 1.267 . S
O208 C207 1.203 . S
O209 C202 1.177 1_554 S
O209 Zn205 2.086 . S
C210 O206 1.278 . S
C210 O211 1.211 1_556 S
O211 C210 1.211 1_554 S
C212 O204 1.284 . S
C212 O213 1.273 . S
O213 C212 1.273 . S
O214 Zn205 1.977 . S
O214 C207 1.267 . S
C215 O216 1.160 . S
C215 O222 1.185 . S
O216 C215 1.160 . S
O217 Zn218 1.899 . S
O217 C225 1.284 . S
Zn218 O217 1.899 . S
Zn218 O219 2.032 . S
Zn218 O222 2.086 . S
Zn218 O227 1.977 . S
O219 Zn218 2.032 . S
O219 C223 1.278 1_545 S
C220 O221 1.203 . S
C220 O227 1.267 . S
O221 C220 1.203 . S
O222 C215 1.185 . S
O222 Zn218 2.086 . S
C223 O219 1.278 1_565 S
C223 O224 1.211 . S
O224 C223 1.211 . S
C225 O217 1.284 . S
C225 O226 1.303 . S
O226 C225 1.303 . S
O227 Zn218 1.977 . S
O227 C220 1.267 . S
C228 O229 1.160 . S
C228 O235 1.185 . S
O229 C228 1.160 . S
O230 Zn231 1.899 . S
O230 C238 1.284 . S
Zn231 O230 1.899 . S
Zn231 O232 2.032 . S
Zn231 O235 2.086 . S
Zn231 O240 1.977 . S
O232 Zn231 2.032 . S
O232 C236 1.278 . S
C233 O234 1.203 . S
C233 O240 1.267 . S
O234 C233 1.203 . S
O235 C228 1.185 . S
O235 Zn231 2.086 . S
C236 O232 1.278 . S
C236 O237 1.211 . S
O237 C236 1.211 . S
C238 O230 1.284 . S
C238 O239 1.273 . S
O239 C238 1.273 . S
O240 Zn231 1.977 . S
O240 C233 1.267 . S
C241 O242 1.160 . S
C241 O248 1.185 . S
O242 C241 1.160 . S
O243 Zn244 1.899 . S
O243 C251 1.284 . S
Zn244 O243 1.899 . S
Zn244 O245 2.032 . S
Zn244 O248 2.086 . S
Zn244 O253 1.977 . S
O245 Zn244 2.032 . S
O245 C249 1.278 . S
C246 O247 1.203 . S
C246 O253 1.267 . S
O247 C246 1.203 . S
O248 C241 1.185 . S
O248 Zn244 2.086 . S
C249 O245 1.278 . S
C249 O250 1.211 . S
O250 C249 1.211 . S
C251 O243 1.284 . S
C251 O252 1.273 . S
O252 C251 1.273 . S
O253 Zn244 1.977 . S
O253 C246 1.267 . S
C254 O255 1.160 . S
C254 O261 1.185 . S
O255 C254 1.160 . S
O256 Zn257 1.899 . S
O256 C264 1.284 . S
Zn257 O256 1.899 . S
Zn257 O258 2.032 . S
Zn257 O261 2.086 . S
Zn257 O266 1.977 . S
O258 Zn257 2.032 . S
O258 C262 1.278 . S
C259 O260 1.203 . S
C259 O266 1.267 . S
O260 C259 1.203 . S
O261 C254 1.185 . S
O261 Zn257 2.086 . S
C262 O258 1.278 . S
C262 O263 1.211 . S
O263 C262 1.211 . S
C264 O256 1.284 . S
C264 O265 1.273 . S
O265 C264 1.273 . S
O266 Zn257 1.977 . S
O266 C259 1.267 . S
C267 O268 1.160 . S
C267 O274 1.185 . S
O268 C267 1.160 . S
O269 Zn270 1.899 . S
O269 C277 1.284 1_565 S
Zn270 O269 1.899 . S
Zn270 O271 2.032 1_565 S
Zn270 O274 2.086 . S
Zn270 O279 1.977 . S
O271 Zn270 2.032 1_545 S
O271 C275 1.278 . S
C272 O273 1.203 1_565 S
C272 O279 1.267 . S
O273 C272 1.203 1_545 S
O274 C267 1.185 . S
O274 Zn270 2.086 . S
C275 O271 1.278 . S
C275 O276 1.211 . S
O276 C275 1.211 . S
C277 O269 1.284 1_545 S
C277 O278 1.273 . S
O278 C277 1.273 . S
O279 Zn270 1.977 . S
O279 C272 1.267 . S
C280 O281 1.160 1_455 S
C280 O287 1.185 . S
O281 C280 1.160 1_655 S
O282 Zn283 1.899 1_655 S
O282 C290 1.284 . S
Zn283 O282 1.899 1_455 S
Zn283 O284 2.032 . S
Zn283 O287 2.086 . S
Zn283 O292 1.977 . S
O284 Zn283 2.032 . S
O284 C288 1.278 . S
C285 O286 1.203 . S
C285 O292 1.267 . S
O286 C285 1.203 . S
O287 C280 1.185 . S
O287 Zn283 2.086 . S
C288 O284 1.278 . S
C288 O289 1.211 . S
O289 C288 1.211 . S
C290 O282 1.284 . S
C290 O291 1.273 . S
O291 C290 1.273 . S
O292 Zn283 1.977 . S
O292 C285 1.267 . S
C293 O294 1.160 . S
C293 O300 1.185 . S
O294 C293 1.160 . S
O295 Zn296 1.899 . S
O295 C303 1.284 . S
Zn296 O295 1.899 . S
Zn296 O297 2.032 . S
Zn296 O300 2.086 . S
Zn296 O305 1.977 . S
O297 Zn296 2.032 . S
O297 C301 1.278 . S
C298 O299 1.203 . S
C298 O305 1.267 . S
O299 C298 1.203 . S
O300 C293 1.185 . S
O300 Zn296 2.086 . S
C301 O297 1.278 . S
C301 O302 1.211 . S
O302 C301 1.211 . S
C303 O295 1.284 . S
C303 O304 1.273 . S
O304 C303 1.273 . S
O305 Zn296 1.977 . S
O305 C298 1.267 . S
C306 O307 1.160 1_455 S
C306 O313 1.185 . S
O307 C306 1.160 1_655 S
O308 Zn309 1.899 1_655 S
O308 C316 1.284 . S
Zn309 O308 1.899 1_455 S
Zn309 O310 2.032 . S
Zn309 O313 2.086 . S
Zn309 O318 1.977 . S
O310 Zn309 2.032 . S
O310 C314 1.278 . S
C311 O312 1.203 . S
C311 O318 1.267 . S
O312 C311 1.203 . S
O313 C306 1.185 . S
O313 Zn309 2.086 . S
C314 O310 1.278 . S
C314 O315 1.211 . S
O315 C314 1.211 . S
C316 O308 1.284 . S
C316 O317 1.273 . S
O317 C316 1.273 . S
O318 Zn309 1.977 . S
O318 C311 1.267 . S
C319 O320 1.160 . S
C319 O326 1.185 . S
O320 C319 1.160 . S
O321 Zn322 1.899 . S
O321 C329 1.284 . S
Zn322 O321 1.899 . S
Zn322 O323 2.032 . S
Zn322 O326 2.086 . S
Zn322 O331 1.977 . S
O323 Zn322 2.032 . S
O323 C327 1.278 . S
C324 O325 1.203 . S
C324 O331 1.267 . S
O325 C324 1.203 . S
O326 C319 1.185 . S
O326 Zn322 2.086 . S
C327 O323 1.278 . S
C327 O328 1.211 . S
O328 C327 1.211 . S
C329 O321 1.284 . S
C329 O330 1.273 . S
O330 C329 1.273 . S
O331 Zn322 1.977 . S
O331 C324 1.267 . S
H332 C338 0.930 . S
H333 C341 0.930 . S
H334 C342 0.930 . S
H335 C343 0.930 . S
H336 C346 0.930 1_554 S
H337 C347 0.930 . S
C338 H332 0.930 . S
C338 C339 1.355 . S
C338 C340 1.415 . S
C339 C338 1.355 . S
C339 C341 1.419 . S
C340 C338 1.415 . S
C340 C345 1.425 . S
C340 C347 1.409 . S
C341 H333 0.930 . S
C341 C339 1.419 . S
C341 C342 1.362 . S
C342 H334 0.930 . S
C342 C341 1.362 . S
C342 C345 1.409 . S
C343 H335 0.930 . S
C343 C344 1.355 . S
C343 C345 1.415 . S
C344 C343 1.355 . S
C344 C346 1.419 . S
C345 C340 1.425 . S
C345 C342 1.409 . S
C345 C343 1.415 . S
C346 H336 0.930 1_556 S
C346 C344 1.419 . S
C346 C347 1.362 . S
C347 H337 0.930 . S
C347 C340 1.409 . S
C347 C346 1.362 . S
H348 C354 0.930 . S
H349 C357 0.930 . S
H350 C358 0.930 . S
H351 C359 0.930 . S
H352 C362 0.930 . S
H353 C363 0.930 . S
C354 H348 0.930 . S
C354 C355 1.355 . S
C354 C356 1.415 . S
C355 C354 1.355 . S
C355 C357 1.419 . S
C356 C354 1.415 . S
C356 C361 1.425 . S
C356 C363 1.409 . S
C357 H349 0.930 . S
C357 C355 1.419 . S
C357 C358 1.362 . S
C358 H350 0.930 . S
C358 C357 1.362 . S
C358 C361 1.409 . S
C359 H351 0.930 . S
C359 C360 1.355 . S
C359 C361 1.415 . S
C360 C359 1.355 . S
C360 C362 1.419 . S
C361 C356 1.425 . S
C361 C358 1.409 . S
C361 C359 1.415 . S
C362 H352 0.930 . S
C362 C360 1.419 . S
C362 C363 1.362 . S
C363 H353 0.930 . S
C363 C356 1.409 . S
C363 C362 1.362 . S
H364 C370 0.930 . S
H365 C373 0.930 . S
H366 C374 0.930 . S
H367 C375 0.930 . S
H368 C378 0.930 . S
H369 C379 0.930 . S
C370 H364 0.930 . S
C370 C371 1.355 . S
C370 C372 1.415 . S
C371 C370 1.355 . S
C371 C373 1.419 . S
C372 C370 1.415 . S
C372 C377 1.425 . S
C372 C379 1.409 . S
C373 H365 0.930 . S
C373 C371 1.419 . S
C373 C374 1.362 . S
C374 H366 0.930 . S
C374 C373 1.362 . S
C374 C377 1.409 . S
C375 H367 0.930 . S
C375 C376 1.355 . S
C375 C377 1.415 . S
C376 C375 1.355 . S
C376 C378 1.419 . S
C377 C372 1.425 . S
C377 C374 1.409 . S
C377 C375 1.415 . S
C378 H368 0.930 . S
C378 C376 1.419 . S
C378 C379 1.362 . S
C379 H369 0.930 . S
C379 C372 1.409 . S
C379 C378 1.362 . S
H380 C386 0.926 1_665 S
H381 C389 0.930 1_565 S
H382 C390 0.930 . S
H383 C391 0.930 . S
H384 C394 0.930 . S
H385 C395 0.930 . S
C386 H380 0.926 1_445 S
C386 C387 1.355 1_545 S
C386 C388 1.415 1_455 S
C387 C386 1.355 1_565 S
C387 C389 1.419 1_565 S
C388 C386 1.415 1_655 S
C388 C393 1.425 1_655 S
C388 C395 1.409 . S
C389 H381 0.930 1_545 S
C389 C387 1.419 1_545 S
C389 C390 1.362 . S
C390 H382 0.930 . S
C390 C389 1.362 . S
C390 C393 1.409 . S
C391 H383 0.930 . S
C391 C392 1.355 1_455 S
C391 C393 1.415 . S
C392 C391 1.355 1_655 S
C392 C394 1.419 . S
C393 C388 1.425 1_455 S
C393 C390 1.409 . S
C393 C391 1.415 . S
C394 H384 0.930 . S
C394 C392 1.419 . S
C394 C395 1.362 . S
C395 H385 0.930 . S
C395 C388 1.409 . S
C395 C394 1.362 . S
H396 C402 0.930 . S
H397 C405 0.930 . S
H398 C406 0.930 . S
H399 C407 0.930 . S
H400 C410 0.930 . S
H401 C411 0.930 . S
C402 H396 0.930 . S
C402 C403 1.355 . S
C402 C404 1.415 . S
C403 C402 1.355 . S
C403 C405 1.419 . S
C404 C402 1.415 . S
C404 C409 1.425 . S
C404 C411 1.409 . S
C405 H397 0.930 . S
C405 C403 1.419 . S
C405 C406 1.362 . S
C406 H398 0.930 . S
C406 C405 1.362 . S
C406 C409 1.409 . S
C407 H399 0.930 . S
C407 C408 1.355 . S
C407 C409 1.415 . S
C408 C407 1.355 . S
C408 C410 1.419 . S
C409 C404 1.425 . S
C409 C406 1.409 . S
C409 C407 1.415 . S
C410 H400 0.930 . S
C410 C408 1.419 . S
C410 C411 1.362 . S
C411 H401 0.930 . S
C411 C404 1.409 . S
C411 C410 1.362 . S
H412 C418 0.930 . S
H413 C421 0.930 . S
H414 C422 0.930 . S
H415 C423 0.930 . S
H416 C426 0.930 . S
H417 C427 0.930 . S
C418 H412 0.930 . S
C418 C419 1.355 . S
C418 C420 1.415 . S
C419 C418 1.355 . S
C419 C421 1.419 . S
C420 C418 1.415 . S
C420 C425 1.425 . S
C420 C427 1.409 . S
C421 H413 0.930 . S
C421 C419 1.419 . S
C421 C422 1.362 . S
C422 H414 0.930 . S
C422 C421 1.362 . S
C422 C425 1.409 . S
C423 H415 0.930 . S
C423 C424 1.355 . S
C423 C425 1.415 . S
C424 C423 1.355 . S
C424 C426 1.419 . S
C425 C420 1.425 . S
C425 C422 1.409 . S
C425 C423 1.415 . S
C426 H416 0.930 . S
C426 C424 1.419 . S
C426 C427 1.362 . S
C427 H417 0.930 . S
C427 C420 1.409 . S
C427 C426 1.362 . S
H428 C434 0.930 . S
H429 C437 0.930 . S
H430 C438 0.930 . S
H431 C439 0.930 . S
H432 C442 0.930 . S
H433 C443 0.930 . S
C434 H428 0.930 . S
C434 C435 1.355 . S
C434 C436 1.415 . S
C435 C434 1.355 . S
C435 C437 1.419 . S
C436 C434 1.415 . S
C436 C441 1.425 . S
C436 C443 1.409 . S
C437 H429 0.930 . S
C437 C435 1.419 . S
C437 C438 1.362 . S
C438 H430 0.930 . S
C438 C437 1.362 . S
C438 C441 1.409 . S
C439 H431 0.930 . S
C439 C440 1.355 . S
C439 C441 1.415 . S
C440 C439 1.355 . S
C440 C442 1.419 . S
C441 C436 1.425 . S
C441 C438 1.409 . S
C441 C439 1.415 . S
C442 H432 0.930 . S
C442 C440 1.419 . S
C442 C443 1.362 . S
C443 H433 0.930 . S
C443 C436 1.409 . S
C443 C442 1.362 . S
H444 C450 0.930 . S
H445 C453 0.930 . S
H446 C454 0.930 . S
H447 C455 0.930 . S
H448 C458 0.930 . S
H449 C459 0.930 . S
C450 H444 0.930 . S
C450 C451 1.355 . S
C450 C452 1.415 . S
C451 C450 1.355 . S
C451 C453 1.419 . S
C452 C450 1.415 . S
C452 C457 1.425 . S
C452 C459 1.409 . S
C453 H445 0.930 . S
C453 C451 1.419 . S
C453 C454 1.362 . S
C454 H446 0.930 . S
C454 C453 1.362 . S
C454 C457 1.409 . S
C455 H447 0.930 . S
C455 C456 1.355 . S
C455 C457 1.415 . S
C456 C455 1.355 . S
C456 C458 1.419 . S
C457 C452 1.425 . S
C457 C454 1.409 . S
C457 C455 1.415 . S
C458 H448 0.930 . S
C458 C456 1.419 . S
C458 C459 1.362 . S
C459 H449 0.930 . S
C459 C452 1.409 . S
C459 C458 1.362 . S
H460 C466 0.930 . S
H461 C469 0.930 . S
H462 C470 0.930 . S
H463 C471 0.930 . S
H464 C474 0.930 . S
H465 C475 0.930 . S
C466 H460 0.930 . S
C466 C467 1.355 . S
C466 C468 1.415 . S
C467 C466 1.355 . S
C467 C469 1.419 . S
C468 C466 1.415 . S
C468 C473 1.425 . S
C468 C475 1.409 . S
C469 H461 0.930 . S
C469 C467 1.419 . S
C469 C470 1.362 . S
C470 H462 0.930 . S
C470 C469 1.362 . S
C470 C473 1.409 . S
C471 H463 0.930 . S
C471 C472 1.355 . S
C471 C473 1.415 . S
C472 C471 1.355 . S
C472 C474 1.419 . S
C473 C468 1.425 . S
C473 C470 1.409 . S
C473 C471 1.415 . S
C474 H464 0.930 . S
C474 C472 1.419 . S
C474 C475 1.362 . S
C475 H465 0.930 . S
C475 C468 1.409 . S
C475 C474 1.362 . S
H476 C482 0.930 . S
H477 C485 0.930 . S
H478 C486 0.930 . S
H479 C487 0.930 . S
H480 C490 0.930 . S
H481 C491 0.930 . S
C482 H476 0.930 . S
C482 C483 1.355 . S
C482 C484 1.415 . S
C483 C482 1.355 . S
C483 C485 1.419 . S
C484 C482 1.415 . S
C484 C489 1.425 . S
C484 C491 1.409 . S
C485 H477 0.930 . S
C485 C483 1.419 . S
C485 C486 1.362 . S
C486 H478 0.930 . S
C486 C485 1.362 . S
C486 C489 1.409 . S
C487 H479 0.930 . S
C487 C488 1.355 . S
C487 C489 1.415 . S
C488 C487 1.355 . S
C488 C490 1.419 . S
C489 C484 1.425 . S
C489 C486 1.409 . S
C489 C487 1.415 . S
C490 H480 0.930 . S
C490 C488 1.419 . S
C490 C491 1.362 . S
C491 H481 0.930 . S
C491 C484 1.409 . S
C491 C490 1.362 . S
H492 C498 0.930 . S
H493 C501 0.930 . S
H494 C502 0.930 . S
H495 C503 0.930 . S
H496 C506 0.930 . S
H497 C507 0.930 . S
C498 H492 0.930 . S
C498 C499 1.355 . S
C498 C500 1.415 . S
C499 C498 1.355 . S
C499 C501 1.419 . S
C500 C498 1.415 . S
C500 C505 1.425 . S
C500 C507 1.409 . S
C501 H493 0.930 . S
C501 C499 1.419 . S
C501 C502 1.362 . S
C502 H494 0.930 . S
C502 C501 1.362 . S
C502 C505 1.409 . S
C503 H495 0.930 . S
C503 C504 1.355 . S
C503 C505 1.415 . S
C504 C503 1.355 . S
C504 C506 1.419 . S
C505 C500 1.425 . S
C505 C502 1.409 . S
C505 C503 1.415 . S
C506 H496 0.930 . S
C506 C504 1.419 . S
C506 C507 1.362 . S
C507 H497 0.930 . S
C507 C500 1.409 . S
C507 C506 1.362 . S
H508 C514 0.930 . S
H509 C517 0.930 . S
H510 C518 0.930 . S
H511 C519 0.930 . S
H512 C522 0.930 . S
H513 C523 0.930 . S
C514 H508 0.930 . S
C514 C515 1.355 . S
C514 C516 1.415 . S
C515 C514 1.355 . S
C515 C517 1.419 . S
C516 C514 1.415 . S
C516 C521 1.425 . S
C516 C523 1.409 . S
C517 H509 0.930 . S
C517 C515 1.419 . S
C517 C518 1.362 . S
C518 H510 0.930 . S
C518 C517 1.362 . S
C518 C521 1.409 . S
C519 H511 0.930 . S
C519 C520 1.355 . S
C519 C521 1.415 . S
C520 C519 1.355 . S
C520 C522 1.419 . S
C521 C516 1.425 . S
C521 C518 1.409 . S
C521 C519 1.415 . S
C522 H512 0.930 . S
C522 C520 1.419 . S
C522 C523 1.362 . S
C523 H513 0.930 . S
C523 C516 1.409 . S
C523 C522 1.362 . S
H524 C530 0.930 . S
H525 C533 0.930 . S
H526 C534 0.930 . S
H527 C535 0.930 . S
H528 C538 0.930 . S
H529 C539 0.930 . S
C530 H524 0.930 . S
C530 C531 1.355 . S
C530 C532 1.415 . S
C531 C530 1.355 . S
C531 C533 1.419 . S
C532 C530 1.415 . S
C532 C537 1.425 . S
C532 C539 1.409 . S
C533 H525 0.930 . S
C533 C531 1.419 . S
C533 C534 1.362 . S
C534 H526 0.930 . S
C534 C533 1.362 . S
C534 C537 1.409 . S
C535 H527 0.930 . S
C535 C536 1.355 . S
C535 C537 1.415 . S
C536 C535 1.355 . S
C536 C538 1.419 . S
C537 C532 1.425 . S
C537 C534 1.409 . S
C537 C535 1.415 . S
C538 H528 0.930 . S
C538 C536 1.419 . S
C538 C539 1.362 . S
C539 H529 0.930 . S
C539 C532 1.409 . S
C539 C538 1.362 . S
H540 C546 0.930 . S
H541 C549 0.930 . S
H542 C550 0.930 . S
H543 C551 0.930 . S
H544 C554 0.930 . S
H545 C555 0.930 . S
C546 H540 0.930 . S
C546 C547 1.355 . S
C546 C548 1.415 . S
C547 C546 1.355 . S
C547 C549 1.419 . S
C548 C546 1.415 . S
C548 C553 1.425 . S
C548 C555 1.409 . S
C549 H541 0.930 . S
C549 C547 1.419 . S
C549 C550 1.362 . S
C550 H542 0.930 . S
C550 C549 1.362 . S
C550 C553 1.409 . S
C551 H543 0.930 . S
C551 C552 1.355 . S
C551 C553 1.415 . S
C552 C551 1.355 . S
C552 C554 1.419 . S
C553 C548 1.425 . S
C553 C550 1.409 . S
C553 C551 1.415 . S
C554 H544 0.930 . S
C554 C552 1.419 . S
C554 C555 1.362 . S
C555 H545 0.930 . S
C555 C548 1.409 . S
C555 C554 1.362 . S
H556 C562 0.930 . S
H557 C565 0.930 . S
H558 C566 0.930 . S
H559 C567 0.930 . S
H560 C570 0.930 . S
H561 C571 0.930 . S
C562 H556 0.930 . S
C562 C563 1.355 . S
C562 C564 1.415 . S
C563 C562 1.355 . S
C563 C565 1.419 . S
C564 C562 1.415 . S
C564 C569 1.425 . S
C564 C571 1.409 . S
C565 H557 0.930 . S
C565 C563 1.419 . S
C565 C566 1.362 . S
C566 H558 0.930 . S
C566 C565 1.362 . S
C566 C569 1.409 . S
C567 H559 0.930 . S
C567 C568 1.355 . S
C567 C569 1.415 . S
C568 C567 1.355 . S
C568 C570 1.419 . S
C569 C564 1.425 . S
C569 C566 1.409 . S
C569 C567 1.415 . S
C570 H560 0.930 . S
C570 C568 1.419 . S
C570 C571 1.362 . S
C571 H561 0.930 . S
C571 C564 1.409 . S
C571 C570 1.362 . S
H572 C578 0.930 . S
H573 C581 0.930 . S
H574 C582 0.930 . S
H575 C583 0.930 . S
H576 C586 0.930 . S
H577 C587 0.930 . S
C578 H572 0.930 . S
C578 C579 1.355 . S
C578 C580 1.415 . S
C579 C578 1.355 . S
C579 C581 1.419 1_655 S
C580 C578 1.415 . S
C580 C585 1.425 1_655 S
C580 C587 1.409 . S
C581 H573 0.930 . S
C581 C579 1.419 1_455 S
C581 C582 1.362 . S
C582 H574 0.930 . S
C582 C581 1.362 . S
C582 C585 1.409 . S
C583 H575 0.930 . S
C583 C584 1.347 1_455 S
C583 C585 1.415 . S
C584 C583 1.347 1_655 S
C584 C586 1.429 . S
C585 C580 1.425 1_455 S
C585 C582 1.409 . S
C585 C583 1.415 . S
C586 H576 0.930 . S
C586 C584 1.429 . S
C586 C587 1.362 . S
C587 H577 0.930 . S
C587 C580 1.409 . S
C587 C586 1.362 . S
H588 C594 0.930 . S
H589 C597 0.930 . S
H590 C598 0.930 . S
H591 C599 0.930 . S
H592 C602 0.930 . S
H593 C603 0.930 . S
C594 H588 0.930 . S
C594 C595 1.355 . S
C594 C596 1.415 . S
C595 C594 1.355 . S
C595 C597 1.419 . S
C596 C594 1.415 . S
C596 C601 1.425 . S
C596 C603 1.409 . S
C597 H589 0.930 . S
C597 C595 1.419 . S
C597 C598 1.362 . S
C598 H590 0.930 . S
C598 C597 1.362 . S
C598 C601 1.409 . S
C599 H591 0.930 . S
C599 C600 1.355 . S
C599 C601 1.415 . S
C600 C599 1.355 . S
C600 C602 1.419 . S
C601 C596 1.425 . S
C601 C598 1.409 . S
C601 C599 1.415 . S
C602 H592 0.930 . S
C602 C600 1.419 . S
C602 C603 1.362 . S
C603 H593 0.930 . S
C603 C596 1.409 . S
C603 C602 1.362 . S
H604 C610 0.930 . S
H605 C613 0.930 . S
H606 C614 0.930 . S
H607 C615 0.930 . S
H608 C618 0.930 . S
H609 C619 0.930 . S
C610 H604 0.930 . S
C610 C611 1.355 . S
C610 C612 1.415 . S
C611 C610 1.355 . S
C611 C613 1.419 . S
C612 C610 1.415 . S
C612 C617 1.425 . S
C612 C619 1.409 . S
C613 H605 0.930 . S
C613 C611 1.419 . S
C613 C614 1.362 . S
C614 H606 0.930 . S
C614 C613 1.362 . S
C614 C617 1.409 . S
C615 H607 0.930 . S
C615 C616 1.355 . S
C615 C617 1.415 . S
C616 C615 1.355 . S
C616 C618 1.419 . S
C617 C612 1.425 . S
C617 C614 1.409 . S
C617 C615 1.415 . S
C618 H608 0.930 . S
C618 C616 1.419 . S
C618 C619 1.362 . S
C619 H609 0.930 . S
C619 C612 1.409 . S
C619 C618 1.362 . S
H620 C626 0.930 . S
H621 C629 0.930 . S
H622 C630 0.930 . S
H623 C631 0.930 1_556 S
H624 C634 0.930 . S
H625 C635 0.930 1_545 S
C626 H620 0.930 . S
C626 C627 1.355 1_554 S
C626 C628 1.415 1_545 S
C627 C626 1.355 1_556 S
C627 C629 1.419 1_545 S
C628 C626 1.415 1_565 S
C628 C633 1.425 . S
C628 C635 1.409 . S
C629 H621 0.930 . S
C629 C627 1.419 1_565 S
C629 C630 1.362 . S
C630 H622 0.930 . S
C630 C629 1.362 . S
C630 C633 1.409 1_556 S
C631 H623 0.930 1_554 S
C631 C632 1.355 . S
C631 C633 1.415 . S
C632 C631 1.355 . S
C632 C634 1.419 . S
C633 C628 1.425 . S
C633 C630 1.409 1_554 S
C633 C631 1.415 . S
C634 H624 0.930 . S
C634 C632 1.419 . S
C634 C635 1.362 . S
C635 H625 0.930 1_565 S
C635 C628 1.409 . S
C635 C634 1.362 . S
H636 C642 0.930 . S
H637 C645 0.930 . S
H638 C646 0.930 . S
H639 C647 0.930 . S
H640 C650 0.930 . S
H641 C651 0.930 . S
C642 H636 0.930 . S
C642 C643 1.355 . S
C642 C644 1.415 . S
C643 C642 1.355 . S
C643 C645 1.419 . S
C644 C642 1.415 . S
C644 C649 1.425 . S
C644 C651 1.409 . S
C645 H637 0.930 . S
C645 C643 1.419 . S
C645 C646 1.362 . S
C646 H638 0.930 . S
C646 C645 1.362 . S
C646 C649 1.409 . S
C647 H639 0.930 . S
C647 C648 1.355 . S
C647 C649 1.415 . S
C648 C647 1.355 . S
C648 C650 1.419 . S
C649 C644 1.425 . S
C649 C646 1.409 . S
C649 C647 1.415 . S
C650 H640 0.930 . S
C650 C648 1.419 . S
C650 C651 1.362 . S
C651 H641 0.930 . S
C651 C644 1.409 . S
C651 C650 1.362 . S
H652 C658 0.930 . S
H653 C661 0.930 1_565 S
H654 C662 0.930 . S
H655 C663 0.930 . S
H656 C666 0.930 . S
H657 C667 0.930 . S
C658 H652 0.930 . S
C658 C659 1.355 . S
C658 C660 1.415 . S
C659 C658 1.355 . S
C659 C661 1.419 . S
C660 C658 1.415 . S
C660 C665 1.425 . S
C660 C667 1.409 . S
C661 H653 0.930 1_545 S
C661 C659 1.419 . S
C661 C662 1.362 . S
C662 H654 0.930 . S
C662 C661 1.362 . S
C662 C665 1.409 . S
C663 H655 0.930 . S
C663 C664 1.355 . S
C663 C665 1.415 . S
C664 C663 1.355 . S
C664 C666 1.419 . S
C665 C660 1.425 . S
C665 C662 1.409 . S
C665 C663 1.415 . S
C666 H656 0.930 . S
C666 C664 1.419 . S
C666 C667 1.362 . S
C667 H657 0.930 . S
C667 C660 1.409 . S
C667 C666 1.362 . S
H668 C674 0.930 . S
H669 C677 0.930 . S
H670 C678 0.930 . S
H671 C679 0.930 . S
H672 C682 0.930 . S
H673 C683 0.930 . S
C674 H668 0.930 . S
C674 C675 1.355 . S
C674 C676 1.415 . S
C675 C674 1.355 . S
C675 C677 1.419 . S
C676 C674 1.415 . S
C676 C681 1.425 . S
C676 C683 1.409 . S
C677 H669 0.930 . S
C677 C675 1.419 . S
C677 C678 1.362 . S
C678 H670 0.930 . S
C678 C677 1.362 . S
C678 C681 1.409 . S
C679 H671 0.930 . S
C679 C680 1.355 . S
C679 C681 1.415 . S
C680 C679 1.355 . S
C680 C682 1.419 . S
C681 C676 1.425 . S
C681 C678 1.409 . S
C681 C679 1.415 . S
C682 H672 0.930 . S
C682 C680 1.419 . S
C682 C683 1.362 . S
C683 H673 0.930 . S
C683 C676 1.409 . S
C683 C682 1.362 . S
H684 C690 0.930 . S
H685 C693 0.930 . S
H686 C694 0.930 . S
H687 C695 0.930 . S
H688 C698 0.930 . S
H689 C699 0.930 . S
C690 H684 0.930 . S
C690 C691 1.355 . S
C690 C692 1.415 . S
C691 C690 1.355 . S
C691 C693 1.419 . S
C692 C690 1.415 . S
C692 C697 1.425 . S
C692 C699 1.409 . S
C693 H685 0.930 . S
C693 C691 1.419 . S
C693 C694 1.362 . S
C694 H686 0.930 . S
C694 C693 1.362 . S
C694 C697 1.409 . S
C695 H687 0.930 . S
C695 C696 1.355 . S
C695 C697 1.415 . S
C696 C695 1.355 . S
C696 C698 1.419 . S
C697 C692 1.425 . S
C697 C694 1.409 . S
C697 C695 1.415 . S
C698 H688 0.930 . S
C698 C696 1.419 . S
C698 C699 1.362 . S
C699 H689 0.930 . S
C699 C692 1.409 . S
C699 C698 1.362 . S
H700 C706 0.930 . S
H701 C709 0.930 . S
H702 C710 0.930 . S
H703 C711 0.930 . S
H704 C714 0.930 . S
H705 C715 0.930 . S
C706 H700 0.930 . S
C706 C707 1.355 . S
C706 C708 1.415 . S
C707 C706 1.355 . S
C707 C709 1.419 . S
C708 C706 1.415 . S
C708 C713 1.425 . S
C708 C715 1.409 . S
C709 H701 0.930 . S
C709 C707 1.419 . S
C709 C710 1.362 . S
C710 H702 0.930 . S
C710 C709 1.362 . S
C710 C713 1.409 . S
C711 H703 0.930 . S
C711 C712 1.355 . S
C711 C713 1.415 . S
C712 C711 1.355 . S
C712 C714 1.419 . S
C713 C708 1.425 . S
C713 C710 1.409 . S
C713 C711 1.415 . S
C714 H704 0.930 . S
C714 C712 1.419 . S
C714 C715 1.362 . S
C715 H705 0.930 . S
C715 C708 1.409 . S
C715 C714 1.362 . S
H716 C722 0.930 . S
H717 C725 0.930 . S
H718 C726 0.930 . S
H719 C727 0.930 . S
H720 C730 0.930 . S
H721 C731 0.930 . S
C722 H716 0.930 . S
C722 C723 1.355 . S
C722 C724 1.415 . S
C723 C722 1.355 . S
C723 C725 1.419 . S
C724 C722 1.415 . S
C724 C729 1.425 . S
C724 C731 1.409 . S
C725 H717 0.930 . S
C725 C723 1.419 . S
C725 C726 1.362 . S
C726 H718 0.930 . S
C726 C725 1.362 . S
C726 C729 1.409 . S
C727 H719 0.930 . S
C727 C728 1.355 . S
C727 C729 1.415 . S
C728 C727 1.355 . S
C728 C730 1.419 . S
C729 C724 1.425 . S
C729 C726 1.409 . S
C729 C727 1.415 . S
C730 H720 0.930 . S
C730 C728 1.419 . S
C730 C731 1.362 . S
C731 H721 0.930 . S
C731 C724 1.409 . S
C731 C730 1.362 . S
H732 C738 0.930 . S
H733 C741 0.930 . S
H734 C742 0.930 . S
H735 C743 0.930 . S
H736 C746 0.930 . S
H737 C747 0.930 . S
C738 H732 0.930 . S
C738 C739 1.355 . S
C738 C740 1.415 . S
C739 C738 1.355 . S
C739 C741 1.419 . S
C740 C738 1.415 . S
C740 C745 1.425 . S
C740 C747 1.409 . S
C741 H733 0.930 . S
C741 C739 1.419 . S
C741 C742 1.362 . S
C742 H734 0.930 . S
C742 C741 1.362 . S
C742 C745 1.409 . S
C743 H735 0.930 . S
C743 C744 1.355 . S
C743 C745 1.415 . S
C744 C743 1.355 . S
C744 C746 1.419 . S
C745 C740 1.425 . S
C745 C742 1.409 . S
C745 C743 1.415 . S
C746 H736 0.930 . S
C746 C744 1.419 . S
C746 C747 1.362 . S
C747 H737 0.930 . S
C747 C740 1.409 . S
C747 C746 1.362 . S
H748 C754 0.930 . S
H749 C757 0.930 . S
H750 C758 0.930 . S
H751 C759 0.930 . S
H752 C762 0.930 . S
H753 C763 0.930 . S
C754 H748 0.930 . S
C754 C755 1.355 . S
C754 C756 1.415 . S
C755 C754 1.355 . S
C755 C757 1.419 . S
C756 C754 1.415 . S
C756 C761 1.425 . S
C756 C763 1.409 . S
C757 H749 0.930 . S
C757 C755 1.419 . S
C757 C758 1.362 . S
C758 H750 0.930 . S
C758 C757 1.362 . S
C758 C761 1.409 . S
C759 H751 0.930 . S
C759 C760 1.355 . S
C759 C761 1.415 . S
C760 C759 1.355 . S
C760 C762 1.419 . S
C761 C756 1.425 . S
C761 C758 1.409 . S
C761 C759 1.415 . S
C762 H752 0.930 . S
C762 C760 1.419 . S
C762 C763 1.362 . S
C763 H753 0.930 . S
C763 C756 1.409 . S
C763 C762 1.362 . S
H764 C770 0.930 . S
H765 C773 0.930 . S
H766 C774 0.930 . S
H767 C775 0.930 . S
H768 C778 0.930 . S
H769 C779 0.930 . S
C770 H764 0.930 . S
C770 C771 1.355 . S
C770 C772 1.415 . S
C771 C770 1.355 . S
C771 C773 1.419 . S
C772 C770 1.415 . S
C772 C777 1.425 . S
C772 C779 1.409 . S
C773 H765 0.930 . S
C773 C771 1.419 . S
C773 C774 1.362 . S
C774 H766 0.930 . S
C774 C773 1.362 . S
C774 C777 1.409 . S
C775 H767 0.930 . S
C775 C776 1.355 . S
C775 C777 1.415 . S
C776 C775 1.355 . S
C776 C778 1.419 . S
C777 C772 1.425 . S
C777 C774 1.409 . S
C777 C775 1.415 . S
C778 H768 0.930 . S
C778 C776 1.419 . S
C778 C779 1.362 . S
C779 H769 0.930 . S
C779 C772 1.409 . S
C779 C778 1.362 . S
H780 C786 0.930 . S
H781 C789 0.930 . S
H782 C790 0.930 . S
H783 C791 0.930 . S
H784 C794 0.930 . S
H785 C795 0.930 . S
C786 H780 0.930 . S
C786 C787 1.355 . S
C786 C788 1.415 . S
C787 C786 1.355 . S
C787 C789 1.419 . S
C788 C786 1.415 . S
C788 C793 1.425 . S
C788 C795 1.409 . S
C789 H781 0.930 . S
C789 C787 1.419 . S
C789 C790 1.362 . S
C790 H782 0.930 . S
C790 C789 1.362 . S
C790 C793 1.409 . S
C791 H783 0.930 . S
C791 C792 1.355 . S
C791 C793 1.415 . S
C792 C791 1.355 . S
C792 C794 1.419 . S
C793 C788 1.425 . S
C793 C790 1.409 . S
C793 C791 1.415 . S
C794 H784 0.930 . S
C794 C792 1.419 . S
C794 C795 1.362 . S
C795 H785 0.930 . S
C795 C788 1.409 . S
C795 C794 1.362 . S
H796 C802 0.930 . S
H797 C805 0.933 . S
H798 C806 0.930 . S
H799 C807 0.930 . S
H800 C810 0.930 . S
H801 C811 0.930 . S
C802 H796 0.930 . S
C802 C803 1.355 . S
C802 C804 1.415 . S
C803 C802 1.355 . S
C803 C805 1.419 . S
C804 C802 1.415 . S
C804 C809 1.425 1_455 S
C804 C811 1.409 . S
C805 H797 0.933 . S
C805 C803 1.419 . S
C805 C806 1.362 1_455 S
C806 H798 0.930 . S
C806 C805 1.362 1_655 S
C806 C809 1.409 . S
C807 H799 0.930 . S
C807 C808 1.355 . S
C807 C809 1.415 . S
C808 C807 1.355 . S
C808 C810 1.419 1_655 S
C809 C804 1.425 1_655 S
C809 C806 1.409 . S
C809 C807 1.415 . S
C810 H800 0.930 . S
C810 C808 1.419 1_455 S
C810 C811 1.362 . S
C811 H801 0.930 . S
C811 C804 1.409 . S
C811 C810 1.362 . S
H812 C818 0.930 . S
H813 C821 0.930 . S
H814 C822 0.930 . S
H815 C823 0.930 . S
H816 C826 0.930 . S
H817 C827 0.930 . S
C818 H812 0.930 . S
C818 C819 1.355 . S
C818 C820 1.415 . S
C819 C818 1.355 . S
C819 C821 1.419 . S
C820 C818 1.415 . S
C820 C825 1.425 . S
C820 C827 1.409 . S
C821 H813 0.930 . S
C821 C819 1.419 . S
C821 C822 1.362 . S
C822 H814 0.930 . S
C822 C821 1.362 . S
C822 C825 1.409 . S
C823 H815 0.930 . S
C823 C824 1.355 . S
C823 C825 1.415 . S
C824 C823 1.355 . S
C824 C826 1.419 . S
C825 C820 1.425 . S
C825 C822 1.409 . S
C825 C823 1.415 . S
C826 H816 0.930 . S
C826 C824 1.419 . S
C826 C827 1.362 . S
C827 H817 0.930 . S
C827 C820 1.409 . S
C827 C826 1.362 . S
H828 C834 0.930 . S
H829 C837 0.930 . S
H830 C838 0.930 . S
H831 C839 0.930 . S
H832 C842 0.930 . S
H833 C843 0.930 . S
C834 H828 0.930 . S
C834 C835 1.355 . S
C834 C836 1.415 . S
C835 C834 1.355 . S
C835 C837 1.419 . S
C836 C834 1.415 . S
C836 C841 1.425 . S
C836 C843 1.409 . S
C837 H829 0.930 . S
C837 C835 1.419 . S
C837 C838 1.362 . S
C838 H830 0.930 . S
C838 C837 1.362 . S
C838 C841 1.409 . S
C839 H831 0.930 . S
C839 C840 1.355 . S
C839 C841 1.415 . S
C840 C839 1.355 . S
C840 C842 1.419 . S
C841 C836 1.425 . S
C841 C838 1.409 . S
C841 C839 1.415 . S
C842 H832 0.930 . S
C842 C840 1.419 . S
C842 C843 1.362 . S
C843 H833 0.930 . S
C843 C836 1.409 . S
C843 C842 1.362 . S
H844 C850 0.930 . S
H845 C853 0.930 . S
H846 C854 0.930 . S
H847 C855 0.930 . S
H848 C858 0.930 . S
H849 C859 0.930 . S
C850 H844 0.930 . S
C850 C851 1.355 . S
C850 C852 1.415 . S
C851 C850 1.355 . S
C851 C853 1.419 . S
C852 C850 1.415 . S
C852 C857 1.425 . S
C852 C859 1.409 . S
C853 H845 0.930 . S
C853 C851 1.419 . S
C853 C854 1.362 . S
C854 H846 0.930 . S
C854 C853 1.362 . S
C854 C857 1.409 . S
C855 H847 0.930 . S
C855 C856 1.355 . S
C855 C857 1.415 . S
C856 C855 1.355 . S
C856 C858 1.419 . S
C857 C852 1.425 . S
C857 C854 1.409 . S
C857 C855 1.415 . S
C858 H848 0.930 . S
C858 C856 1.419 . S
C858 C859 1.362 . S
C859 H849 0.930 . S
C859 C852 1.409 . S
C859 C858 1.362 . S
H860 C866 0.930 . S
H861 C869 0.919 1_554 S
H862 C870 0.930 . S
H863 C871 0.930 . S
H864 C874 0.930 . S
H865 C875 0.930 . S
C866 H860 0.930 . S
C866 C867 1.355 . S
C866 C868 1.415 . S
C867 C866 1.355 . S
C867 C869 1.423 1_455 S
C868 C866 1.415 . S
C868 C873 1.425 1_455 S
C868 C875 1.409 . S
C869 H861 0.919 1_556 S
C869 C867 1.423 1_655 S
C869 C870 1.371 . S
C870 H862 0.930 . S
C870 C869 1.371 . S
C870 C873 1.409 . S
C871 H863 0.930 . S
C871 C872 1.355 1_655 S
C871 C873 1.415 . S
C872 C871 1.355 1_455 S
C872 C874 1.419 . S
C873 C868 1.425 1_655 S
C873 C870 1.409 . S
C873 C871 1.415 . S
C874 H864 0.930 . S
C874 C872 1.419 . S
C874 C875 1.362 . S
C875 H865 0.930 . S
C875 C868 1.409 . S
C875 C874 1.362 . S
H876 C882 0.930 . S
H877 C885 0.930 . S
H878 C886 0.930 . S
H879 C887 0.930 . S
H880 C890 0.930 . S
H881 C891 0.930 . S
C882 H876 0.930 . S
C882 C883 1.355 . S
C882 C884 1.415 . S
C883 C882 1.355 . S
C883 C885 1.419 . S
C884 C882 1.415 . S
C884 C889 1.425 . S
C884 C891 1.409 . S
C885 H877 0.930 . S
C885 C883 1.419 . S
C885 C886 1.362 . S
C886 H878 0.930 . S
C886 C885 1.362 . S
C886 C889 1.409 . S
C887 H879 0.930 . S
C887 C888 1.355 . S
C887 C889 1.415 . S
C888 C887 1.355 . S
C888 C890 1.419 . S
C889 C884 1.425 . S
C889 C886 1.409 . S
C889 C887 1.415 . S
C890 H880 0.930 . S
C890 C888 1.419 . S
C890 C891 1.362 . S
C891 H881 0.930 . S
C891 C884 1.409 . S
C891 C890 1.362 . S
H892 C898 0.930 . S
H893 C901 0.930 . S
H894 C902 0.930 . S
H895 C903 0.930 . S
H896 C906 0.930 . S
H897 C907 0.930 . S
C898 H892 0.930 . S
C898 C899 1.355 1_556 S
C898 C900 1.415 . S
C899 C898 1.355 1_554 S
C899 C901 1.419 . S
C900 C898 1.415 . S
C900 C905 1.425 . S
C900 C907 1.409 . S
C901 H893 0.930 . S
C901 C899 1.419 . S
C901 C902 1.362 . S
C902 H894 0.930 . S
C902 C901 1.362 . S
C902 C905 1.409 1_554 S
C903 H895 0.930 . S
C903 C904 1.355 . S
C903 C905 1.415 . S
C904 C903 1.355 . S
C904 C906 1.419 . S
C905 C900 1.425 . S
C905 C902 1.409 1_556 S
C905 C903 1.415 . S
C906 H896 0.930 . S
C906 C904 1.419 . S
C906 C907 1.362 . S
C907 H897 0.930 . S
C907 C900 1.409 . S
C907 C906 1.362 . S
H908 C914 0.930 . S
H909 C917 0.930 . S
H910 C918 0.930 . S
H911 C919 0.930 . S
H912 C922 0.930 . S
H913 C923 0.930 . S
C914 H908 0.930 . S
C914 C915 1.355 . S
C914 C916 1.415 . S
C915 C914 1.355 . S
C915 C917 1.419 . S
C916 C914 1.415 . S
C916 C921 1.425 . S
C916 C923 1.409 . S
C917 H909 0.930 . S
C917 C915 1.419 . S
C917 C918 1.362 . S
C918 H910 0.930 . S
C918 C917 1.362 . S
C918 C921 1.409 . S
C919 H911 0.930 . S
C919 C920 1.355 . S
C919 C921 1.415 . S
C920 C919 1.355 . S
C920 C922 1.419 . S
C921 C916 1.425 . S
C921 C918 1.409 . S
C921 C919 1.415 . S
C922 H912 0.930 . S
C922 C920 1.419 . S
C922 C923 1.362 . S
C923 H913 0.930 . S
C923 C916 1.409 . S
C923 C922 1.362 . S
H924 C930 0.930 . S
H925 C933 0.930 . S
H926 C934 0.930 . S
H927 C935 0.930 . S
H928 C938 0.930 . S
H929 C939 0.930 . S
C930 H924 0.930 . S
C930 C931 1.355 . S
C930 C932 1.415 . S
C931 C930 1.355 . S
C931 C933 1.419 . S
C932 C930 1.415 . S
C932 C937 1.425 . S
C932 C939 1.409 . S
C933 H925 0.930 . S
C933 C931 1.419 . S
C933 C934 1.362 . S
C934 H926 0.930 . S
C934 C933 1.362 . S
C934 C937 1.409 . S
C935 H927 0.930 . S
C935 C936 1.355 . S
C935 C937 1.415 . S
C936 C935 1.355 . S
C936 C938 1.419 . S
C937 C932 1.425 . S
C937 C934 1.409 . S
C937 C935 1.415 . S
C938 H928 0.930 . S
C938 C936 1.419 . S
C938 C939 1.362 . S
C939 H929 0.930 . S
C939 C932 1.409 . S
C939 C938 1.362 . S
H940 C946 0.930 . S
H941 C949 0.930 . S
H942 C950 0.930 . S
H943 C951 0.930 . S
H944 C954 0.930 . S
H945 C955 0.930 . S
C946 H940 0.930 . S
C946 C947 1.355 . S
C946 C948 1.415 . S
C947 C946 1.355 . S
C947 C949 1.419 . S
C948 C946 1.415 . S
C948 C953 1.425 . S
C948 C955 1.409 . S
C949 H941 0.930 . S
C949 C947 1.419 . S
C949 C950 1.362 . S
C950 H942 0.930 . S
C950 C949 1.362 . S
C950 C953 1.409 . S
C951 H943 0.930 . S
C951 C952 1.355 . S
C951 C953 1.415 . S
C952 C951 1.355 . S
C952 C954 1.419 . S
C953 C948 1.425 . S
C953 C950 1.409 . S
C953 C951 1.415 . S
C954 H944 0.930 . S
C954 C952 1.419 . S
C954 C955 1.362 . S
C955 H945 0.930 . S
C955 C948 1.409 . S
C955 C954 1.362 . S
H956 C962 0.930 . S
H957 C965 0.930 1_556 S
H958 C966 0.930 . S
H959 C967 0.930 . S
H960 C970 0.930 . S
H961 C971 0.930 . S
C962 H956 0.930 . S
C962 C963 1.355 . S
C962 C964 1.415 . S
C963 C962 1.355 . S
C963 C965 1.419 . S
C964 C962 1.415 . S
C964 C969 1.425 . S
C964 C971 1.409 . S
C965 H957 0.930 1_554 S
C965 C963 1.419 . S
C965 C966 1.362 . S
C966 H958 0.930 . S
C966 C965 1.362 . S
C966 C969 1.409 . S
C967 H959 0.930 . S
C967 C968 1.355 . S
C967 C969 1.415 . S
C968 C967 1.355 . S
C968 C970 1.419 . S
C969 C964 1.425 . S
C969 C966 1.409 . S
C969 C967 1.415 . S
C970 H960 0.930 . S
C970 C968 1.419 . S
C970 C971 1.362 . S
C971 H961 0.930 . S
C971 C964 1.409 . S
C971 C970 1.362 . S
H972 C978 0.930 . S
H973 C981 0.930 . S
H974 C982 0.930 . S
H975 C983 0.930 . S
H976 C986 0.930 . S
H977 C987 0.930 . S
C978 H972 0.930 . S
C978 C979 1.355 . S
C978 C980 1.415 . S
C979 C978 1.355 . S
C979 C981 1.419 . S
C980 C978 1.415 . S
C980 C985 1.425 . S
C980 C987 1.409 . S
C981 H973 0.930 . S
C981 C979 1.419 . S
C981 C982 1.362 . S
C982 H974 0.930 . S
C982 C981 1.362 . S
C982 C985 1.409 . S
C983 H975 0.930 . S
C983 C984 1.355 . S
C983 C985 1.415 . S
C984 C983 1.355 . S
C984 C986 1.419 . S
C985 C980 1.425 . S
C985 C982 1.409 . S
C985 C983 1.415 . S
C986 H976 0.930 . S
C986 C984 1.419 . S
C986 C987 1.362 . S
C987 H977 0.930 . S
C987 C980 1.409 . S
C987 C986 1.362 . S
H988 C994 0.930 . S
H989 C997 0.930 . S
H990 C998 0.930 . S
H991 C999 0.930 . S
H992 C1002 0.930 . S
H993 C1003 0.930 . S
C994 H988 0.930 . S
C994 C995 1.355 . S
C994 C996 1.415 . S
C995 C994 1.355 . S
C995 C997 1.419 . S
C996 C994 1.415 . S
C996 C1001 1.425 . S
C996 C1003 1.409 . S
C997 H989 0.930 . S
C997 C995 1.419 . S
C997 C998 1.362 . S
C998 H990 0.930 . S
C998 C997 1.362 . S
C998 C1001 1.409 . S
C999 H991 0.930 . S
C999 C1000 1.355 . S
C999 C1001 1.415 . S
C1000 C999 1.355 . S
C1000 C1002 1.419 . S
C1001 C996 1.425 . S
C1001 C998 1.409 . S
C1001 C999 1.415 . S
C1002 H992 0.930 . S
C1002 C1000 1.419 . S
C1002 C1003 1.362 . S
C1003 H993 0.930 . S
C1003 C996 1.409 . S
C1003 C1002 1.362 . S
H1004 C1010 0.930 . S
H1005 C1013 0.930 . S
H1006 C1014 0.930 . S
H1007 C1015 0.930 . S
H1008 C1018 0.930 . S
H1009 C1019 0.930 . S
C1010 H1004 0.930 . S
C1010 C1011 1.355 . S
C1010 C1012 1.415 . S
C1011 C1010 1.355 . S
C1011 C1013 1.419 . S
C1012 C1010 1.415 . S
C1012 C1017 1.425 . S
C1012 C1019 1.409 . S
C1013 H1005 0.930 . S
C1013 C1011 1.419 . S
C1013 C1014 1.362 . S
C1014 H1006 0.930 . S
C1014 C1013 1.362 . S
C1014 C1017 1.409 . S
C1015 H1007 0.930 . S
C1015 C1016 1.355 . S
C1015 C1017 1.415 . S
C1016 C1015 1.355 . S
C1016 C1018 1.419 . S
C1017 C1012 1.425 . S
C1017 C1014 1.409 . S
C1017 C1015 1.415 . S
C1018 H1008 0.930 . S
C1018 C1016 1.419 . S
C1018 C1019 1.362 . S
C1019 H1009 0.930 . S
C1019 C1012 1.409 . S
C1019 C1018 1.362 . S
H1020 C1026 0.930 . S
H1021 C1029 0.930 . S
H1022 C1030 0.930 . S
H1023 C1031 0.930 . S
H1024 C1034 0.930 . S
H1025 C1035 0.930 . S
C1026 H1020 0.930 . S
C1026 C1027 1.355 . S
C1026 C1028 1.415 . S
C1027 C1026 1.355 . S
C1027 C1029 1.419 . S
C1028 C1026 1.415 . S
C1028 C1033 1.425 . S
C1028 C1035 1.409 . S
C1029 H1021 0.930 . S
C1029 C1027 1.419 . S
C1029 C1030 1.362 . S
C1030 H1022 0.930 . S
C1030 C1029 1.362 . S
C1030 C1033 1.409 . S
C1031 H1023 0.930 . S
C1031 C1032 1.355 . S
C1031 C1033 1.415 . S
C1032 C1031 1.355 . S
C1032 C1034 1.419 . S
C1033 C1028 1.425 . S
C1033 C1030 1.409 . S
C1033 C1031 1.415 . S
C1034 H1024 0.930 . S
C1034 C1032 1.419 . S
C1034 C1035 1.362 . S
C1035 H1025 0.930 . S
C1035 C1028 1.409 . S
C1035 C1034 1.362 . S
H1036 C1042 0.930 . S
H1037 C1045 0.930 . S
H1038 C1046 0.930 . S
H1039 C1047 0.930 . S
H1040 C1050 0.930 . S
H1041 C1051 0.930 . S
C1042 H1036 0.930 . S
C1042 C1043 1.355 . S
C1042 C1044 1.415 . S
C1043 C1042 1.355 . S
C1043 C1045 1.419 1_556 S
C1044 C1042 1.415 . S
C1044 C1049 1.425 1_556 S
C1044 C1051 1.409 . S
C1045 H1037 0.930 . S
C1045 C1043 1.419 1_554 S
C1045 C1046 1.362 . S
C1046 H1038 0.930 . S
C1046 C1045 1.362 . S
C1046 C1049 1.409 . S
C1047 H1039 0.930 . S
C1047 C1048 1.355 1_554 S
C1047 C1049 1.415 . S
C1048 C1047 1.355 1_556 S
C1048 C1050 1.419 . S
C1049 C1044 1.425 1_554 S
C1049 C1046 1.409 . S
C1049 C1047 1.415 . S
C1050 H1040 0.930 . S
C1050 C1048 1.419 . S
C1050 C1051 1.362 . S
C1051 H1041 0.930 . S
C1051 C1044 1.409 . S
C1051 C1050 1.362 . S
H1052 C1058 0.930 . S
H1053 C1061 0.930 . S
H1054 C1062 0.930 . S
H1055 C1063 0.930 . S
H1056 C1066 0.930 . S
H1057 C1067 0.930 . S
C1058 H1052 0.930 . S
C1058 C1059 1.355 . S
C1058 C1060 1.415 . S
C1059 C1058 1.355 . S
C1059 C1061 1.419 . S
C1060 C1058 1.415 . S
C1060 C1065 1.425 . S
C1060 C1067 1.409 . S
C1061 H1053 0.930 . S
C1061 C1059 1.419 . S
C1061 C1062 1.362 . S
C1062 H1054 0.930 . S
C1062 C1061 1.362 . S
C1062 C1065 1.409 . S
C1063 H1055 0.930 . S
C1063 C1064 1.355 . S
C1063 C1065 1.415 . S
C1064 C1063 1.355 . S
C1064 C1066 1.419 . S
C1065 C1060 1.425 . S
C1065 C1062 1.409 . S
C1065 C1063 1.415 . S
C1066 H1056 0.930 . S
C1066 C1064 1.419 . S
C1066 C1067 1.362 . S
C1067 H1057 0.930 . S
C1067 C1060 1.409 . S
C1067 C1066 1.362 . S
H1068 C1074 0.930 . S
H1069 C1077 0.930 . S
H1070 C1078 0.930 . S
H1071 C1079 0.930 . S
H1072 C1082 0.930 . S
H1073 C1083 0.930 . S
C1074 H1068 0.930 . S
C1074 C1075 1.355 . S
C1074 C1076 1.415 . S
C1075 C1074 1.355 . S
C1075 C1077 1.419 . S
C1076 C1074 1.415 . S
C1076 C1081 1.425 . S
C1076 C1083 1.409 1_554 S
C1077 H1069 0.930 . S
C1077 C1075 1.419 . S
C1077 C1078 1.362 . S
C1078 H1070 0.930 . S
C1078 C1077 1.362 . S
C1078 C1081 1.409 . S
C1079 H1071 0.930 . S
C1079 C1080 1.355 . S
C1079 C1081 1.415 . S
C1080 C1079 1.355 . S
C1080 C1082 1.419 1_554 S
C1081 C1076 1.425 . S
C1081 C1078 1.409 . S
C1081 C1079 1.415 . S
C1082 H1072 0.930 . S
C1082 C1080 1.419 1_556 S
C1082 C1083 1.362 . S
C1083 H1073 0.930 . S
C1083 C1076 1.409 1_556 S
C1083 C1082 1.362 . S
H1084 C1090 0.930 . S
H1085 C1093 0.930 . S
H1086 C1094 0.941 . S
H1087 C1095 0.930 . S
H1088 C1098 0.930 . S
H1089 C1099 0.930 . S
C1090 H1084 0.930 . S
C1090 C1091 1.355 . S
C1090 C1092 1.415 1_545 S
C1091 C1090 1.355 . S
C1091 C1093 1.419 . S
C1092 C1090 1.415 1_565 S
C1092 C1097 1.425 . S
C1092 C1099 1.409 . S
C1093 H1085 0.930 . S
C1093 C1091 1.419 . S
C1093 C1094 1.362 . S
C1094 H1086 0.941 . S
C1094 C1093 1.362 . S
C1094 C1097 1.409 1_545 S
C1095 H1087 0.930 . S
C1095 C1096 1.355 . S
C1095 C1097 1.415 . S
C1096 C1095 1.355 . S
C1096 C1098 1.419 . S
C1097 C1092 1.425 . S
C1097 C1094 1.409 1_565 S
C1097 C1095 1.415 . S
C1098 H1088 0.930 . S
C1098 C1096 1.419 . S
C1098 C1099 1.362 . S
C1099 H1089 0.930 . S
C1099 C1092 1.409 . S
C1099 C1098 1.362 . S
C344 C186 1.501 1_556 S
C339 C60 1.524 . S
C360 C199 1.398 . S
C355 C76 1.427 . S
C371 C81 1.614 . S
C376 C212 1.576 . S
C392 C225 1.561 . S
C387 C48 1.595 . S
C408 C233 1.468 . S
C403 C115 1.472 . S
C424 C246 1.530 . S
C419 C136 1.544 . S
C435 C131 1.414 . S
C440 C259 1.396 . S
C456 C272 1.476 . S
C451 C104 1.503 . S
C467 C126 1.461 . S
C472 C290 1.453 . S
C488 C301 1.446 . S
C483 C103 1.460 . S
C499 C120 1.386 . S
C504 C285 1.328 . S
C520 C293 1.423 . S
C515 C142 1.441 . S
C531 C82 1.491 . S
C536 C316 1.491 . S
C547 C54 1.729 . S
C552 C306 1.691 . S
C563 C65 1.455 . S
C568 C311 1.456 . S
C579 C71 1.363 . S
C584 C314 1.316 1_655 S
C595 C37 1.534 . S
C600 C223 1.509 . S
C611 C158 1.826 . S
C616 C215 1.814 . S
C632 C184 1.466 . S
C627 C169 1.471 . S
C648 C189 1.249 . S
C643 C98 1.299 . S
C659 C49 1.710 . S
C664 C236 1.650 . S
C680 C275 1.435 . S
C675 C125 1.488 . S
C696 C228 1.395 . S
C691 C109 1.409 . S
C712 C254 1.689 . S
C707 C137 1.712 . S
C728 C264 1.512 . S
C723 C159 1.525 . S
C739 C175 1.418 . S
C744 C277 1.416 . S
C755 C92 1.610 . S
C760 C238 1.575 . S
C776 C251 1.556 . S
C771 C147 1.594 . S
C787 C38 1.489 . S
C792 C207 1.462 . S
C808 C220 1.514 . S
C803 C4 1.543 . S
C824 C181 1.352 . S
C819 C21 1.410 . S
C840 C194 1.511 . S
C835 C27 1.517 . S
C851 C16 1.472 . S
C856 C303 1.442 . S
C867 C26 1.457 1_556 S
C872 C288 1.396 . S
C883 C43 1.397 . S
C888 C298 1.366 . S
C899 C10 1.439 . S
C904 C280 1.413 . S
C920 C329 1.468 . S
C915 C93 1.478 . S
C936 C319 1.721 . S
C931 C153 1.738 . S
C952 C324 1.450 . S
C947 C164 1.460 . S
C963 C170 1.351 1_554 S
C968 C327 1.303 . S
C979 C114 1.513 . S
C984 C249 1.486 . S
C1000 C241 1.836 . S
C995 C59 1.830 . S
C1016 C262 1.456 . S
C1011 C70 1.475 . S
C1032 C267 1.286 . S
C1027 C87 1.314 . S
C1043 C148 1.717 . S
C1048 C210 1.704 . S
C1064 C197 1.426 . S
C1059 C15 1.487 . S
C1075 C32 1.404 . S
C1080 C202 1.383 1_554 S
C1096 C176 1.649 . S
C1091 C5 1.702 . S
