# Generated by pormake.
# Topology pth, (4,4)-cn, num edge types: 1
# Building blocks:
#     Node 0, Type 0, BuildingBlock: GALJAG_clean_sbu_0, # of connection points: 4
#     Node 1, Type 0, BuildingBlock: GALJAG_clean_sbu_0, # of connection points: 4
#     Node 2, Type 0, BuildingBlock: GALJAG_clean_sbu_0, # of connection points: 4
#     Node 3, Type 1, BuildingBlock: MUDLON_clean_linker_0, # of connection points: 4
#     Node 4, Type 1, BuildingBlock: MUDLON_clean_linker_0, # of connection points: 4
#     Node 5, Type 1, BuildingBlock: MUDLON_clean_linker_0, # of connection points: 4
#     Edge 6, Type (0, 1), BuildingBlock: MIFKUJ_clean_linker_0, # of connection points: 2
#     Edge 7, Type (0, 1), BuildingBlock: MIFKUJ_clean_linker_0, # of connection points: 2
#     Edge 8, Type (0, 1), BuildingBlock: MIFKUJ_clean_linker_0, # of connection points: 2
#     Edge 9, Type (0, 1), BuildingBlock: MIFKUJ_clean_linker_0, # of connection points: 2
#     Edge 10, Type (0, 1), BuildingBlock: MIFKUJ_clean_linker_0, # of connection points: 2
#     Edge 11, Type (0, 1), BuildingBlock: MIFKUJ_clean_linker_0, # of connection points: 2
#     Edge 12, Type (0, 1), BuildingBlock: MIFKUJ_clean_linker_0, # of connection points: 2
#     Edge 13, Type (0, 1), BuildingBlock: MIFKUJ_clean_linker_0, # of connection points: 2
#     Edge 14, Type (0, 1), BuildingBlock: MIFKUJ_clean_linker_0, # of connection points: 2
#     Edge 15, Type (0, 1), BuildingBlock: MIFKUJ_clean_linker_0, # of connection points: 2
#     Edge 16, Type (0, 1), BuildingBlock: MIFKUJ_clean_linker_0, # of connection points: 2
#     Edge 17, Type (0, 1), BuildingBlock: MIFKUJ_clean_linker_0, # of connection points: 2
# Relax obj value: 0.013
# Max RMSD: 0.066
# Mean RMSD: 0.062
data_MOF--net-pth--node1-GALJAG_clean_sbu_0--node2-MUDLON_clean_linker_0--edge1-MIFKUJ_clean_linker_0
_symmetry_space_group_name_H-M    P1
_symmetry_Int_Tables_number       1
_symmetry_cell_setting            triclinic
loop_
_symmetry_equiv_pos_as_xyz
'x, y, z'
_cell_length_a     41.90694
_cell_length_b     41.897789
_cell_length_c     80.916944
_cell_angle_alpha  90.167382
_cell_angle_beta   90.12583
_cell_angle_gamma 120.01683
loop_
_atom_site_label
_atom_site_type_symbol
_atom_site_fract_x
_atom_site_fract_y
_atom_site_fract_z
_atom_type_partial_charge
In0 In 0.00686 0.00266 0.03518 0.0
O1 O 0.97942 0.03565 0.04246 0.0
O2 O 0.01766 0.03448 0.05945 0.0
C3 C 0.95255 0.9578 0.01405 0.0
C4 C 0.06273 0.05404 0.01683 0.0
C5 C 0.01566 0.95555 0.05477 0.0
O6 O 0.94657 0.97024 0.02714 0.0
O7 O 0.98603 0.96846 0.01142 0.0
O8 O 0.04249 0.9824 0.04775 0.0
O9 O 0.98479 0.95283 0.05202 0.0
C10 C 0.9959 0.04627 0.05618 0.0
O11 O 0.05965 0.02307 0.01981 0.0
O12 O 0.03767 0.05863 0.0229 0.0
In13 In 0.01071 0.01691 0.36682 0.0
O14 O 0.03049 0.07601 0.35854 0.0
O15 O 0.99134 0.03245 0.34343 0.0
C16 C 0.06705 0.02948 0.38713 0.0
C17 C 0.95451 0.00724 0.3863 0.0
C18 C 0.00899 0.96199 0.34866 0.0
O19 O 0.07184 0.04657 0.37372 0.0
O20 O 0.03391 0.00653 0.39038 0.0
O21 O 0.98262 0.95703 0.35786 0.0
O22 O 0.03582 0.99455 0.34853 0.0
C23 C 0.01052 0.06673 0.34576 0.0
O24 O 0.95205 0.98241 0.37661 0.0
O25 O 0.98536 0.03656 0.38627 0.0
In26 In 0.00527 0.99364 0.70154 0.0
O27 O 0.97253 0.93288 0.70883 0.0
O28 O 0.97442 0.97231 0.72588 0.0
C29 C 0.05026 0.98604 0.68011 0.0
C30 C 0.95579 0.00048 0.68262 0.0
C31 C 0.05413 0.05058 0.72038 0.0
O32 O 0.0394 0.96789 0.69334 0.0
O33 O 0.03813 0.00777 0.67761 0.0
O34 O 0.0233 0.04667 0.71624 0.0
O35 O 0.06003 0.0256 0.71521 0.0
C36 C 0.96242 0.93877 0.72261 0.0
O37 O 0.98288 0.02784 0.68936 0.0
O38 O 0.95396 0.97001 0.68533 0.0
H39 H 0.98631 0.64483 0.21141 0.0
N40 N 0.04841 0.64075 0.20512 0.0
H41 H 0.97759 0.67763 0.23425 0.0
H42 H 0.09157 0.66949 0.23153 0.0
H43 H 0.08262 0.7017 0.25484 0.0
H44 H 0.10197 0.70403 0.19339 0.0
H45 H 0.09859 0.73976 0.17036 0.0
H46 H 0.9905 0.61804 0.18352 0.0
H47 H 0.98725 0.65274 0.16001 0.0
H48 H 0.98416 0.5849 0.21897 0.0
H49 H 0.07704 0.60671 0.18832 0.0
H50 H 0.96153 0.51949 0.21697 0.0
H51 H 0.05291 0.54065 0.1852 0.0
H52 H 0.89454 0.30875 0.2123 0.0
H53 H 0.89577 0.27296 0.23594 0.0
H54 H 0.00995 0.35428 0.24469 0.0
H55 H 0.00835 0.38988 0.2215 0.0
H56 H 0.01466 0.36577 0.19433 0.0
H57 H 0.02494 0.33104 0.17301 0.0
H58 H 0.91713 0.29677 0.15253 0.0
H59 H 0.90766 0.33311 0.17368 0.0
H60 H 0.91136 0.40124 0.20031 0.0
H61 H 0.93333 0.46735 0.2005 0.0
H62 H 0.04576 0.4893 0.19879 0.0
N63 N 0.95102 0.36807 0.19929 0.0
H64 H 0.02343 0.42381 0.19728 0.0
C65 C 0.03989 0.655 0.2197 0.0
C66 C 0.00729 0.65676 0.22091 0.0
C67 C 0.00219 0.6753 0.23409 0.0
C68 C 0.02954 0.69253 0.24632 0.0
C69 C 0.06128 0.68918 0.24549 0.0
C70 C 0.06634 0.6706 0.23228 0.0
C71 C 0.04671 0.65847 0.19014 0.0
C72 C 0.07709 0.69254 0.18596 0.0
C73 C 0.07511 0.71278 0.17274 0.0
C74 C 0.04259 0.6992 0.16331 0.0
C75 C 0.01252 0.6643 0.16715 0.0
C76 C 0.01445 0.64421 0.18049 0.0
C77 C 0.03296 0.60124 0.20395 0.0
C78 C -0.00026 0.57588 0.21168 0.0
C79 C 0.98639 0.53801 0.21034 0.0
C80 C 0.0053 0.52441 0.20094 0.0
C81 C 0.03794 0.54985 0.19289 0.0
C82 C 0.05169 0.58771 0.19453 0.0
C83 C 0.95114 0.35196 0.21501 0.0
C84 C 0.91947 0.31928 0.21964 0.0
C85 C 0.92035 0.29876 0.23303 0.0
C86 C 0.95308 0.31062 0.24207 0.0
C87 C 0.98419 0.34454 0.23808 0.0
C88 C 0.9833 0.36499 0.22468 0.0
C89 C 0.96032 0.35234 0.18553 0.0
C90 C 0.99363 0.35184 0.18501 0.0
C91 C 0.99929 0.33142 0.1729 0.0
C92 C 0.9717 0.31072 0.16117 0.0
C93 C 0.93913 0.31264 0.16127 0.0
C94 C 0.93359 0.33331 0.17334 0.0
C95 C 0.9655 0.40735 0.199 0.0
C96 C 0.94071 0.42049 0.19984 0.0
C97 C 0.95343 0.45833 0.20011 0.0
C98 C 0.99148 0.484 0.19984 0.0
C99 C 0.01628 0.47064 0.19878 0.0
C100 C 0.00346 0.43282 0.19815 0.0
H101 H 0.66006 0.02394 0.54399 0.0
N102 N 0.60086 0.95615 0.53681 0.0
H103 H 0.70293 0.03786 0.56693 0.0
H104 H 0.58996 0.91504 0.56333 0.0
H105 H 0.63137 0.92937 0.58698 0.0
H106 H 0.61366 0.90531 0.52404 0.0
H107 H 0.65347 0.91201 0.50065 0.0
H108 H 0.63387 0.01554 0.51607 0.0
H109 H 0.6732 0.02235 0.4926 0.0
H110 H 0.59742 0.01967 0.53697 0.0
H111 H 0.53227 0.9013 0.53483 0.0
H112 H 0.54165 0.02407 0.53362 0.0
H113 H 0.47618 0.90496 0.53263 0.0
H114 H 0.37885 0.02712 0.54261 0.0
H115 H 0.34464 0.03193 0.56588 0.0
H116 H 0.28326 0.91318 0.56964 0.0
H117 H 0.31809 0.90867 0.54634 0.0
H118 H 0.31198 0.92261 0.50704 0.0
H119 H 0.28963 0.94402 0.48404 0.0
H120 H 0.37808 0.05539 0.4926 0.0
H121 H 0.40095 0.03336 0.51537 0.0
H122 H 0.42916 0.01499 0.54391 0.0
H123 H 0.487 0.01467 0.54634 0.0
H124 H 0.44358 0.91972 0.51385 0.0
N125 N 0.36669 0.96327 0.52762 0.0
H126 H 0.38506 0.91889 0.51248 0.0
C127 C 0.62231 0.968 0.55178 0.0
C128 C 0.65343 0.00331 0.5534 0.0
C129 C 0.67782 0.01135 0.56666 0.0
C130 C 0.67111 0.98442 0.57865 0.0
C131 C 0.63806 0.95037 0.57772 0.0
C132 C 0.61412 0.9422 0.56433 0.0
C133 C 0.62079 0.95977 0.52181 0.0
C134 C 0.62613 0.93066 0.51702 0.0
C135 C 0.64875 0.93452 0.50363 0.0
C136 C 0.6666 0.96779 0.49481 0.0
C137 C 0.66016 0.99655 0.49928 0.0
C138 C 0.63744 0.99259 0.51266 0.0
C139 C 0.56879 0.96005 0.53578 0.0
C140 C 0.57105 0.99464 0.53578 0.0
C141 C 0.53904 0.99704 0.53406 0.0
C142 C 0.50427 0.96487 0.53261 0.0
C143 C 0.50239 0.93038 0.53318 0.0
C144 C 0.53433 0.92812 0.53462 0.0
C145 C 0.35086 0.96736 0.5427 0.0
C146 C 0.35852 0.00212 0.54856 0.0
C147 C 0.33878 0.00484 0.56184 0.0
C148 C 0.31103 0.97293 0.56949 0.0
C149 C 0.30469 0.93829 0.5641 0.0
C150 C 0.32443 0.93562 0.5508 0.0
C151 C 0.35767 0.97639 0.51295 0.0
C152 C 0.32696 0.95147 0.50368 0.0
C153 C 0.31438 0.96374 0.49056 0.0
C154 C 0.33215 0.00138 0.48659 0.0
C155 C 0.36383 0.02628 0.4955 0.0
C156 C 0.37681 0.01378 0.5085 0.0
C157 C 0.4024 0.96627 0.52829 0.0
C158 C 0.43196 0.99398 0.5374 0.0
C159 C 0.4653 0.99399 0.53864 0.0
C160 C 0.46991 0.96677 0.53053 0.0
C161 C 0.44078 0.9404 0.52073 0.0
C162 C 0.4074 0.94003 0.51977 0.0
H163 H 0.59145 0.69555 0.88748 0.0
N164 N 0.59397 0.64833 0.86639 0.0
H165 H 0.63354 0.72703 0.91058 0.0
H166 H 0.64368 0.6307 0.87921 0.0
H167 H 0.68509 0.66114 0.90246 0.0
H168 H 0.62797 0.61583 0.85043 0.0
H169 H 0.67489 0.64456 0.82891 0.0
H170 H 0.61019 0.70855 0.84959 0.0
H171 H 0.65615 0.73701 0.82776 0.0
H172 H 0.52788 0.63635 0.85817 0.0
H173 H 0.58558 0.58057 0.87376 0.0
H174 H 0.4697 0.57793 0.85835 0.0
H175 H 0.5274 0.52215 0.87462 0.0
H176 H 0.2917 0.39521 0.88534 0.0
H177 H 0.26611 0.35296 0.90862 0.0
H178 H 0.36172 0.33925 0.90886 0.0
H179 H 0.38692 0.38148 0.88538 0.0
H180 H 0.36187 0.35623 0.85782 0.0
H181 H 0.33089 0.31627 0.83425 0.0
H182 H 0.28383 0.38423 0.82137 0.0
H183 H 0.3137 0.42308 0.8456 0.0
H184 H 0.36861 0.47943 0.87873 0.0
H185 H 0.42846 0.53601 0.87832 0.0
H186 H 0.47781 0.47534 0.85797 0.0
N187 N 0.35259 0.41294 0.86878 0.0
H188 H 0.41788 0.41859 0.85905 0.0
C189 C 0.6143 0.66084 0.88165 0.0
C190 C 0.61126 0.68735 0.891 0.0
C191 C 0.6353 0.70521 0.90419 0.0
C192 C 0.66292 0.69681 0.90826 0.0
C193 C 0.66448 0.66862 0.89947 0.0
C194 C 0.64048 0.65085 0.88625 0.0
C195 C 0.61594 0.6604 0.85167 0.0
C196 C 0.63357 0.64196 0.84534 0.0
C197 C 0.66027 0.65835 0.833 0.0
C198 C 0.66966 0.69335 0.82686 0.0
C199 C 0.6501 0.71041 0.83249 0.0
C200 C 0.62361 0.69409 0.84481 0.0
C201 C 0.56087 0.61294 0.86611 0.0
C202 C 0.52787 0.61141 0.86168 0.0
C203 C 0.49468 0.57806 0.86193 0.0
C204 C 0.49375 0.54537 0.86675 0.0
C205 C 0.52712 0.54675 0.87078 0.0
C206 C 0.56046 0.58026 0.87041 0.0
C207 C 0.34101 0.39143 0.88367 0.0
C208 C 0.30735 0.38355 0.89063 0.0
C209 C 0.29291 0.35952 0.90396 0.0
C210 C 0.31192 0.34276 0.91062 0.0
C211 C 0.3463 0.3515 0.90391 0.0
C212 C 0.36082 0.37576 0.89056 0.0
C213 C 0.33955 0.39236 0.85359 0.0
C214 C 0.3452 0.36277 0.84987 0.0
C215 C 0.32762 0.34004 0.83625 0.0
C216 C 0.30442 0.3467 0.82598 0.0
C217 C 0.30077 0.37775 0.82921 0.0
C218 C 0.31806 0.4002 0.84293 0.0
C219 C 0.38873 0.44507 0.86878 0.0
C220 C 0.39245 0.47844 0.87427 0.0
C221 C 0.42661 0.51073 0.87388 0.0
C222 C 0.4579 0.51037 0.86786 0.0
C223 C 0.45432 0.47658 0.86274 0.0
C224 C 0.42002 0.44412 0.86324 0.0
H225 H 0.02232 0.06735 0.08757 0.0
H226 H 0.01692 0.1121 0.10516 0.0
H227 H 0.95484 0.12862 0.06691 0.0
H228 H 0.95993 0.08379 0.0493 0.0
H229 H 0.01166 0.1944 0.08016 0.0
H230 H 0.91034 0.08003 0.09916 0.0
H231 H 0.88061 0.01647 0.10976 0.0
H232 H 0.94958 0.05414 0.15298 0.0
H233 H 0.98012 0.1179 0.14252 0.0
H234 H 0.95112 0.29635 0.12851 0.0
H235 H 0.95457 0.25131 0.1104 0.0
H236 H 0.00544 0.22285 0.14971 0.0
H237 H 0.00064 0.26651 0.16804 0.0
H238 H 0.95316 0.16263 0.13545 0.0
H239 H 0.05555 0.27613 0.11677 0.0
H240 H 0.0872 0.33987 0.10633 0.0
H241 H 0.0189 0.30456 0.06287 0.0
H242 H 0.98648 0.24064 0.07316 0.0
C243 C 0.00735 0.08037 0.08296 0.0
C244 C 0.99147 0.07205 0.0671 0.0
C245 C 0.00424 0.10585 0.09302 0.0
C246 C 0.98537 0.12352 0.08733 0.0
C247 C 0.96952 0.11527 0.0715 0.0
C248 C 0.97231 0.08955 0.0615 0.0
C249 C 0.98266 0.15105 0.09783 0.0
C250 C 0.99842 0.18742 0.09216 0.0
C251 C 0.96618 0.14199 0.11362 0.0
C252 C 0.94777 0.10369 0.11997 0.0
C253 C 0.91939 0.07472 0.11086 0.0
C254 C 0.90235 0.03866 0.11685 0.0
C255 C 0.91327 0.03125 0.13201 0.0
C256 C 0.94119 0.05991 0.14123 0.0
C257 C 0.95835 0.09602 0.13528 0.0
C258 C 0.96295 0.28043 0.1333 0.0
C259 C 0.97577 0.2852 0.14971 0.0
C260 C 0.96521 0.25493 0.1229 0.0
C261 C 0.9806 0.23395 0.12865 0.0
C262 C 0.99355 0.23879 0.14498 0.0
C263 C 0.99117 0.26412 0.1554 0.0
C264 C 0.98237 0.20621 0.11784 0.0
C265 C 0.96639 0.16972 0.12345 0.0
C266 C 0.99891 0.21525 0.10203 0.0
C267 C 0.01832 0.25366 0.09582 0.0
C268 C 0.04706 0.282 0.10505 0.0
C269 C 0.06519 0.31816 0.09915 0.0
C270 C 0.055 0.32628 0.08397 0.0
C271 C 0.02672 0.29824 0.07464 0.0
C272 C 0.00848 0.26203 0.08049 0.0
H273 H 0.06908 0.35429 0.07942 0.0
H274 H 0.90003 0.00331 0.13663 0.0
H275 H 0.95436 0.057 0.40797 0.0
H276 H 0.90355 0.04982 0.4253 0.0
H277 H 0.83427 0.94032 0.40566 0.0
H278 H 0.88503 0.94747 0.3881 0.0
H279 H 0.79799 0.97946 0.40742 0.0
H280 H 0.87131 0.95092 0.44333 0.0
H281 H 0.92844 0.9614 0.45699 0.0
H282 H 0.94142 0.05996 0.47972 0.0
H283 H 0.88461 0.05035 0.466 0.0
H284 H 0.66069 0.91926 0.47056 0.0
H285 H 0.70812 0.92642 0.45089 0.0
H286 H 0.78111 0.03564 0.46996 0.0
H287 H 0.73427 0.02833 0.48991 0.0
H288 H 0.81468 0.99523 0.4682 0.0
H289 H 0.74126 0.02378 0.43232 0.0
H290 H 0.68424 0.01342 0.4186 0.0
H291 H 0.6712 0.9148 0.3959 0.0
H292 H 0.72791 0.92431 0.40968 0.0
C293 C 0.92832 0.03137 0.40734 0.0
C294 C 0.9237 0.00269 0.39676 0.0
C295 C 0.89935 0.02728 0.41727 0.0
C296 C 0.86528 0.99438 0.41689 0.0
C297 C 0.86038 0.9659 0.40614 0.0
C298 C 0.88941 0.96996 0.39619 0.0
C299 C 0.83499 0.98974 0.42785 0.0
C300 C 0.8014 0.98237 0.42073 0.0
C301 C 0.8398 0.99432 0.44518 0.0
C302 C 0.87389 9e-05 0.45351 0.0
C303 C 0.8865 0.97498 0.45114 0.0
C304 C 0.9188 0.98074 0.45891 0.0
C305 C 0.9386 0.01137 0.46918 0.0
C306 C 0.92608 0.03627 0.47174 0.0
C307 C 0.89381 0.03066 0.46398 0.0
C308 C 0.6868 0.94485 0.47051 0.0
C309 C 0.69374 0.97322 0.48179 0.0
C310 C 0.71375 0.94901 0.45918 0.0
C311 C 0.74806 0.98164 0.45892 0.0
C312 C 0.75478 0.01026 0.46995 0.0
C313 C 0.72786 0.00616 0.48124 0.0
C314 C 0.77771 0.98525 0.44778 0.0
C315 C 0.81121 0.99231 0.45489 0.0
C316 C 0.77275 0.98035 0.43047 0.0
C317 C 0.73863 0.97456 0.42217 0.0
C318 C 0.72606 0.99971 0.42452 0.0
C319 C 0.69383 0.99402 0.41671 0.0
C320 C 0.67405 0.96341 0.40642 0.0
C321 C 0.68652 0.93847 0.40389 0.0
C322 C 0.71872 0.94401 0.41169 0.0
H323 H 0.64911 0.95907 0.40037 0.0
H324 H 0.9636 0.01578 0.47519 0.0
H325 H 0.93939 0.94532 0.75323 0.0
H326 H 0.89341 0.89617 0.77049 0.0
H327 H 0.88115 0.81537 0.73405 0.0
H328 H 0.92712 0.8646 0.71661 0.0
H329 H 0.81507 0.80567 0.7438 0.0
H330 H 0.92274 0.8197 0.77022 0.0
H331 H 0.98437 0.8529 0.7831 0.0
H332 H 0.9425 0.89284 0.82144 0.0
H333 H 0.88071 0.86031 0.80866 0.0
H334 H 0.68884 0.66684 0.79977 0.0
H335 H 0.74211 0.70129 0.78158 0.0
H336 H 0.77542 0.7996 0.81063 0.0
H337 H 0.72318 0.76538 0.82895 0.0
H338 H 0.83355 0.79117 0.80329 0.0
H339 H 0.72918 0.78529 0.77425 0.0
H340 H 0.66766 0.75324 0.76118 0.0
H341 H 0.704 0.69832 0.72771 0.0
H342 H 0.76565 0.72973 0.74073 0.0
C343 C 0.92721 0.91706 0.74897 0.0
C344 C 0.93682 0.90878 0.73358 0.0
C345 C 0.90106 0.88897 0.75888 0.0
C346 C 0.8841 0.85207 0.75362 0.0
C347 C 0.894 0.84365 0.73835 0.0
C348 C 0.92031 0.87177 0.72844 0.0
C349 C 0.85455 0.82278 0.76372 0.0
C350 C 0.81929 0.80187 0.75672 0.0
C351 C 0.85998 0.81818 0.78062 0.0
C352 C 0.8971 0.83772 0.78841 0.0
C353 C 0.92671 0.83577 0.78133 0.0
C354 C 0.96168 0.85444 0.78862 0.0
C355 C 0.96736 0.87502 0.80306 0.0
C356 C 0.93806 0.8769 0.81025 0.0
C357 C 0.90304 0.8583 0.803 0.0
C358 C 0.7077 0.69574 0.8023 0.0
C359 C 0.70157 0.71352 0.81566 0.0
C360 C 0.73798 0.7154 0.79188 0.0
C361 C 0.76256 0.75307 0.7947 0.0
C362 C 0.75681 0.77058 0.80822 0.0
C363 C 0.72666 0.75106 0.81856 0.0
C364 C 0.79395 0.77497 0.78349 0.0
C365 C 0.82955 0.79445 0.79029 0.0
C366 C 0.78883 0.77829 0.76642 0.0
C367 C 0.75184 0.75947 0.75859 0.0
C368 C 0.72394 0.76614 0.76419 0.0
C369 C 0.68908 0.74814 0.75678 0.0
C370 C 0.68189 0.72366 0.74366 0.0
C371 C 0.70959 0.71722 0.73789 0.0
C372 C 0.74449 0.73511 0.74528 0.0
H373 H 0.65488 0.70976 0.73793 0.0
H374 H 0.99446 0.88945 0.80869 0.0
H375 H 0.96202 0.89867 0.07222 0.0
H376 H 0.96826 0.85474 0.08975 0.0
H377 H 0.08437 0.90837 0.07875 0.0
H378 H 0.0783 0.95254 0.06107 0.0
H379 H 0.04963 0.83163 0.077 0.0
H380 H 0.05854 0.92419 0.11493 0.0
H381 H 0.03868 0.9648 0.12779 0.0
H382 H 0.9376 0.87029 0.14315 0.0
H383 H 0.95662 0.8291 0.13016 0.0
H384 H 0.09537 0.7453 0.14132 0.0
H385 H 0.09174 0.7881 0.12205 0.0
H386 H 0.97868 0.74781 0.13608 0.0
H387 H 0.98273 0.70652 0.15604 0.0
H388 H 0.01423 0.81947 0.13609 0.0
H389 H 0.00352 0.72659 0.09802 0.0
H390 H 0.0216 0.68501 0.08472 0.0
H391 H 0.12365 0.77814 0.06925 0.0
H392 H 0.10637 0.82029 0.08265 0.0
C393 C 0.98891 0.90116 0.07353 0.0
C394 C 0.01973 0.92914 0.06535 0.0
C395 C 0.99243 0.87608 0.08357 0.0
C396 C 0.02683 0.87854 0.08565 0.0
C397 C 0.0576 0.90608 0.0773 0.0
C398 C 0.05412 0.93134 0.06728 0.0
C399 C 0.03053 0.85243 0.09669 0.0
C400 C 0.04243 0.82926 0.08998 0.0
C401 C 0.02025 0.84885 0.11351 0.0
C402 C 0.00888 0.87357 0.12145 0.0
C403 C 0.03195 0.91207 0.12094 0.0
C404 C 0.02087 0.93519 0.12827 0.0
C405 C 0.98686 0.92013 0.13625 0.0
C406 C 0.96392 0.88191 0.13695 0.0
C407 C 0.97485 0.85866 0.12962 0.0
C408 C 0.06974 0.74557 0.14034 0.0
C409 C 0.03938 0.72246 0.15029 0.0
C410 C 0.06757 0.76978 0.12916 0.0
C411 C 0.03483 0.77098 0.1275 0.0
C412 C 0.00423 0.74735 0.13712 0.0
C413 C 0.00647 0.72341 0.14841 0.0
C414 C 0.03293 0.79815 0.1164 0.0
C415 C 0.02147 0.8217 0.12311 0.0
C416 C 0.04338 0.80185 0.09957 0.0
C417 C 0.0538 0.77657 0.09148 0.0
C418 C 0.02994 0.73819 0.09189 0.0
C419 C 0.04002 0.71453 0.08432 0.0
C420 C 0.0738 0.72892 0.07618 0.0
C421 C 0.09752 0.76703 0.07557 0.0
C422 C 0.08758 0.79082 0.08314 0.0
H423 H 0.08155 0.71055 0.07032 0.0
H424 H 0.97833 0.93808 0.14191 0.0
H425 H 0.06317 0.00526 0.41862 0.0
H426 H 0.11335 0.00905 0.43551 0.0
H427 H 0.19018 0.06643 0.39614 0.0
H428 H 0.14021 0.06391 0.37945 0.0
H429 H 0.15207 0.97857 0.4307 0.0
H430 H 0.27702 0.11907 0.41138 0.0
H431 H 0.28991 0.18099 0.40304 0.0
H432 H 0.1938 0.16506 0.429 0.0
H433 H 0.18061 0.10328 0.43768 0.0
H434 H 0.30854 0.97446 0.45549 0.0
H435 H 0.26978 0.98774 0.4374 0.0
H436 H 0.27722 0.06959 0.47212 0.0
H437 H 0.3167 0.05693 0.49006 0.0
H438 H 0.27367 0.09008 0.441 0.0
H439 H 0.20663 0.98259 0.47439 0.0
H440 H 0.1915 0.92215 0.48582 0.0
H441 H 0.166 0.87471 0.43711 0.0
H442 H 0.18158 0.93507 0.42535 0.0
C443 C 0.09087 0.01913 0.41367 0.0
C444 C 0.09783 0.03427 0.39774 0.0
C445 C 0.11951 0.0212 0.42331 0.0
C446 C 0.15563 0.03815 0.41715 0.0
C447 C 0.16272 0.05382 0.40131 0.0
C448 C 0.13412 0.05221 0.39175 0.0
C449 C 0.18522 0.0372 0.42692 0.0
C450 C 0.1786 0.00304 0.43293 0.0
C451 C 0.21977 0.06912 0.43006 0.0
C452 C 0.22764 0.10639 0.42503 0.0
C453 C 0.25872 0.12884 0.41536 0.0
C454 C 0.26606 0.16391 0.41056 0.0
C455 C 0.24262 0.1769 0.41544 0.0
C456 C 0.21185 0.1549 0.42517 0.0
C457 C 0.2044 0.11984 0.43002 0.0
C458 C 0.30256 0.99586 0.45905 0.0
C459 C 0.31524 0.01442 0.47422 0.0
C460 C 0.28042 0.0034 0.44874 0.0
C461 C 0.26996 0.02907 0.4536 0.0
C462 C 0.28488 0.04961 0.46815 0.0
C463 C 0.30743 0.04239 0.47838 0.0
C464 C 0.24046 0.03146 0.44452 0.0
C465 C 0.24711 0.06574 0.43866 0.0
C466 C 0.20543 0.99986 0.44193 0.0
C467 C 0.1956 0.96341 0.44897 0.0
C468 C 0.19802 0.95932 0.4661 0.0
C469 C 0.18936 0.92508 0.47264 0.0
C470 C 0.17788 0.89463 0.46219 0.0
C471 C 0.17495 0.89834 0.44518 0.0
C472 C 0.18368 0.93255 0.43857 0.0
H473 H 0.17118 0.86814 0.46728 0.0
H474 H 0.24835 0.20404 0.41171 0.0
H475 H 0.12526 0.06949 0.72693 0.0
H476 H 0.17075 0.12202 0.74313 0.0
H477 H 0.09006 0.15503 0.75269 0.0
H478 H 0.04474 0.10309 0.73605 0.0
H479 H 0.15398 0.21325 0.74564 0.0
H480 H 0.11361 0.10986 0.78204 0.0
H481 H 0.10075 0.048 0.79042 0.0
H482 H 0.21499 0.0812 0.78444 0.0
H483 H 0.22845 0.14315 0.77581 0.0
H484 H 0.23312 0.3241 0.81719 0.0
H485 H 0.19473 0.27697 0.79705 0.0
H486 H 0.28524 0.25961 0.78533 0.0
H487 H 0.32447 0.30773 0.80516 0.0
H488 H 0.21998 0.19481 0.79232 0.0
H489 H 0.26005 0.30057 0.75776 0.0
H490 H 0.27141 0.36242 0.75035 0.0
H491 H 0.1557 0.32459 0.75404 0.0
H492 H 0.14368 0.26262 0.76172 0.0
C493 C 0.11721 0.08793 0.7325 0.0
C494 C 0.08142 0.08212 0.73032 0.0
C495 C 0.1432 0.11787 0.74181 0.0
C496 C 0.13368 0.14219 0.74933 0.0
C497 C 0.09802 0.13661 0.74701 0.0
C498 C 0.07212 0.10687 0.73756 0.0
C499 C 0.16085 0.1734 0.75965 0.0
C500 C 0.1681 0.20915 0.75596 0.0
C501 C 0.17996 0.1682 0.77288 0.0
C502 C 0.17196 0.13101 0.77811 0.0
C503 C 0.13594 0.10388 0.78239 0.0
C504 C 0.12855 0.06882 0.7872 0.0
C505 C 0.15702 0.06064 0.78791 0.0
C506 C 0.19296 0.08755 0.78386 0.0
C507 C 0.20049 0.12265 0.77901 0.0
C508 C 0.2453 0.31103 0.81006 0.0
C509 C 0.28203 0.31989 0.81279 0.0
C510 C 0.22318 0.2839 0.7986 0.0
C511 C 0.23721 0.26496 0.78966 0.0
C512 C 0.27392 0.27393 0.79215 0.0
C513 C 0.29622 0.30132 0.80353 0.0
C514 C 0.21281 0.23448 0.77838 0.0
C515 C 0.20605 0.19889 0.78191 0.0
C516 C 0.1939 0.23978 0.76513 0.0
C517 C 0.20101 0.27701 0.76046 0.0
C518 C 0.23705 0.3055 0.75713 0.0
C519 C 0.24361 0.34058 0.75285 0.0
C520 C 0.21431 0.34745 0.75176 0.0
C521 C 0.17837 0.31924 0.7549 0.0
C522 C 0.17167 0.28412 0.7592 0.0
H523 H 0.21944 0.37463 0.74844 0.0
H524 H 0.15124 0.03348 0.79165 0.0
H525 H 0.89679 0.94514 0.66667 0.0
H526 H 0.85146 0.94975 0.64943 0.0
H527 H 0.90692 0.06713 0.65802 0.0
H528 H 0.95251 0.06267 0.6755 0.0
H529 H 0.83066 0.03406 0.66036 0.0
H530 H 0.91863 0.03742 0.62201 0.0
H531 H 0.95901 0.01705 0.60941 0.0
H532 H 0.86464 0.91252 0.59713 0.0
H533 H 0.82371 0.93205 0.60988 0.0
H534 H 0.71938 0.04818 0.59544 0.0
H535 H 0.77065 0.05789 0.61341 0.0
H536 H 0.73893 0.94331 0.6079 0.0
H537 H 0.68932 0.93386 0.58937 0.0
H538 H 0.80993 0.98527 0.60302 0.0
H539 H 0.72274 0.97966 0.64387 0.0
H540 H 0.68228 0.99945 0.6569 0.0
H541 H 0.77495 0.10798 0.66447 0.0
H542 H 0.8159 0.08894 0.65129 0.0
C543 C 0.8994 0.97196 0.66491 0.0
C544 C 0.92832 0.00359 0.67235 0.0
C545 C 0.87351 0.97456 0.65503 0.0
C546 C 0.87611 0.00885 0.65229 0.0
C547 C 0.90453 0.04045 0.65995 0.0
C548 C 0.93057 0.03787 0.66986 0.0
C549 C 0.84916 0.01128 0.64125 0.0
C550 C 0.82648 0.02402 0.64771 0.0
C551 C 0.8436 0.99789 0.62482 0.0
C552 C 0.86811 0.98614 0.617 0.0
C553 C 0.9065 0.01 0.61672 0.0
C554 C 0.92949 0.99861 0.60954 0.0
C555 C 0.91441 0.96349 0.6025 0.0
C556 C 0.87629 0.93971 0.60259 0.0
C557 C 0.85317 0.95095 0.60978 0.0
C558 C 0.72335 0.02506 0.59806 0.0
C559 C 0.70001 0.99018 0.59097 0.0
C560 C 0.75247 0.03059 0.60846 0.0
C561 C 0.75854 0.00127 0.61207 0.0
C562 C 0.73483 0.96636 0.60529 0.0
C563 C 0.70605 0.9609 0.59484 0.0
C564 C 0.79036 0.0067 0.62228 0.0
C565 C 0.81423 0.99567 0.6156 0.0
C566 C 0.79689 0.02161 0.63848 0.0
C567 C 0.77229 0.03301 0.64642 0.0
C568 C 0.73443 0.00783 0.64819 0.0
C569 C 0.71142 0.01889 0.65563 0.0
C570 C 0.72601 0.05498 0.66146 0.0
C571 C 0.76367 0.08006 0.65991 0.0
C572 C 0.78679 0.06914 0.65247 0.0
H573 H 0.70816 0.06349 0.66722 0.0
H574 H 0.93226 0.95473 0.59695 0.0
H575 H 0.95876 0.92615 0.98561 0.0
H576 H 0.90883 0.88075 0.96814 0.0
H577 H 0.82886 0.8848 0.00025 0.0
H578 H 0.87866 0.92988 0.01789 0.0
H579 H 0.80968 0.81463 0.99262 0.0
H580 H 0.84856 0.92722 0.96309 0.0
H581 H 0.89308 0.9852 0.94951 0.0
H582 H 0.92065 0.92474 0.91502 0.0
H583 H 0.87664 0.86641 0.92855 0.0
H584 H 0.65494 0.72342 0.9381 0.0
H585 H 0.70393 0.76645 0.95667 0.0
H586 H 0.78545 0.76489 0.92474 0.0
H587 H 0.73688 0.72299 0.90588 0.0
H588 H 0.8034 0.83386 0.93251 0.0
H589 H 0.76448 0.7212 0.96201 0.0
H590 H 0.72008 0.66323 0.97563 0.0
H591 H 0.6925 0.72366 0.01013 0.0
H592 H 0.7364 0.78199 0.99656 0.0
C593 C 0.93055 0.91751 0.98889 0.0
C594 C 0.92259 0.93162 0.00308 0.0
C595 C 0.90206 0.89164 0.97889 0.0
C596 C 0.86515 0.87962 0.98283 0.0
C597 C 0.85716 0.8937 0.99699 0.0
C598 C 0.88563 0.91955 0.00701 0.0
C599 C 0.83485 0.85201 0.97229 0.0
C600 C 0.80798 0.81901 0.97952 0.0
C601 C 0.83316 0.85744 0.95514 0.0
C602 C 0.85956 0.89247 0.94694 0.0
C603 C 0.86433 0.92631 0.95269 0.0
C604 C 0.88944 0.95923 0.94499 0.0
C605 C 0.90975 0.95866 0.93144 0.0
C606 C 0.90493 0.92514 0.92553 0.0
C607 C 0.87988 0.89214 0.93321 0.0
C608 C 0.68329 0.73215 0.93507 0.0
C609 C 0.69197 0.71971 0.92052 0.0
C610 C 0.71124 0.7565 0.94576 0.0
C611 C 0.74834 0.76872 0.94212 0.0
C612 C 0.75701 0.75578 0.92779 0.0
C613 C 0.72914 0.73149 0.91711 0.0
C614 C 0.77828 0.79635 0.95281 0.0
C615 C 0.80507 0.82943 0.94561 0.0
C616 C 0.77987 0.79097 0.96998 0.0
C617 C 0.75346 0.75593 0.97816 0.0
C618 C 0.74872 0.72211 0.97241 0.0
C619 C 0.72369 0.68919 0.98014 0.0
C620 C 0.70341 0.68975 0.99371 0.0
C621 C 0.70819 0.72326 -0.0004 0.0
C622 C 0.73317 0.75626 0.99191 0.0
H623 H 0.68405 0.66424 -0.00032 0.0
H624 H 0.92918 0.98418 0.92549 0.0
H625 H 0.06616 0.96477 0.33162 0.0
H626 H 0.06645 0.91587 0.31531 0.0
H627 H 0.95189 0.84303 0.32694 0.0
H628 H 0.95176 0.89178 0.34375 0.0
H629 H 0.98894 0.80698 0.32876 0.0
H630 H 0.9779 0.88467 0.28894 0.0
H631 H 0.99367 0.94311 0.27514 0.0
H632 H 0.10061 0.95966 0.26304 0.0
H633 H 0.08567 0.90155 0.27698 0.0
H634 H 0.96813 0.67987 0.26377 0.0
H635 H 0.9619 0.72278 0.28227 0.0
H636 H 0.07726 0.80199 0.27605 0.0
H637 H 0.08345 0.75988 0.25721 0.0
H638 H 0.03454 0.83236 0.27107 0.0
H639 H 0.04456 0.75406 0.31202 0.0
H640 H 0.02677 0.69478 0.32551 0.0
H641 H 0.91858 0.67805 0.33469 0.0
H642 H 0.93558 0.73703 0.32106 0.0
C643 C 0.04101 0.93836 0.3307 0.0
C644 C 0.00886 0.93215 0.33885 0.0
C645 C 0.04117 0.91045 0.32133 0.0
C646 C 0.00901 0.87597 0.31965 0.0
C647 C 0.97698 0.86947 0.32801 0.0
C648 C 0.9769 0.89734 0.33755 0.0
C649 C 0.00907 0.84692 0.30913 0.0
C650 C 0.99837 0.81233 0.31606 0.0
C651 C 0.02172 0.85399 0.29261 0.0
C652 C 0.03075 0.88889 0.28413 0.0
C653 C 0.00487 0.9009 0.28344 0.0
C654 C 0.01365 0.93395 0.27558 0.0
C655 C 0.04814 0.95512 0.26825 0.0
C656 C 0.0739 0.94324 0.26873 0.0
C657 C 0.06528 0.91023 0.2766 0.0
C658 C 0.99219 0.70637 0.26641 0.0
C659 C 0.02629 0.71645 0.259 0.0
C660 C 0.98865 0.73073 0.27709 0.0
C661 C 0.01916 0.76552 0.28058 0.0
C662 C 0.05337 0.77525 0.27353 0.0
C663 C 0.05694 0.75098 0.26288 0.0
C664 C 0.01523 0.79276 0.29081 0.0
C665 C 0.02501 0.82699 0.28376 0.0
C666 C 0.0014 0.78516 0.30713 0.0
C667 C 0.99123 0.74977 0.31537 0.0
C668 C 0.01688 0.73759 0.3168 0.0
C669 C 0.00696 0.70408 0.32449 0.0
C670 C 0.97154 0.68261 0.33091 0.0
C671 C 0.94599 0.69468 0.32969 0.0
C672 C 0.95577 0.72816 0.322 0.0
H673 H 0.96391 0.65667 0.33686 0.0
H674 H 0.05489 0.98071 0.26217 0.0
H675 H 0.08256 0.94383 0.68382 0.0
H676 H 0.12747 0.9409 0.66553 0.0
H677 H 0.122 0.0191 0.63276 0.0
H678 H 0.07681 0.02188 0.6509 0.0
H679 H 0.12041 0.96255 0.61587 0.0
H680 H 0.1937 0.04638 0.65898 0.0
H681 H 0.21268 0.06642 0.68778 0.0
H682 H 0.23593 0.97848 0.69467 0.0
H683 H 0.21656 0.95757 0.66596 0.0
H684 H 0.28021 0.01681 0.56882 0.0
H685 H 0.23685 0.01829 0.58846 0.0
H686 H 0.24254 0.93579 0.61804 0.0
H687 H 0.28667 0.93465 0.59852 0.0
H688 H 0.2437 0.99233 0.6369 0.0
H689 H 0.1715 0.90961 0.5933 0.0
H690 H 0.15317 0.89064 0.56436 0.0
H691 H 0.12833 0.97771 0.55829 0.0
H692 H 0.14707 0.99756 0.58715 0.0
C693 C 0.09083 0.96029 0.67268 0.0
C694 C 0.07629 0.98318 0.6688 0.0
C695 C 0.1166 0.95872 0.6623 0.0
C696 C 0.12837 0.98012 0.6479 0.0
C697 C 0.11332 0.00242 0.64383 0.0
C698 C 0.08759 0.00404 0.65422 0.0
C699 C 0.15646 0.97937 0.63707 0.0
C700 C 0.14751 0.96948 0.62042 0.0
C701 C 0.1915 0.98759 0.64313 0.0
C702 C 0.2033 0.00017 0.66038 0.0
C703 C 0.20256 0.03113 0.66668 0.0
C704 C 0.21344 0.04268 0.68298 0.0
C705 C 0.2254 0.02367 0.69306 0.0
C706 C 0.2266 0.99314 0.68685 0.0
C707 C 0.2157 0.98144 0.67056 0.0
C708 C 0.27278 0.99944 0.57965 0.0
C709 C 0.28685 0.97558 0.58213 0.0
C710 C 0.24775 9e-05 0.59078 0.0
C711 C 0.23618 0.97682 0.60457 0.0
C712 C 0.25105 0.95384 0.60742 0.0
C713 C 0.27604 0.95306 0.59623 0.0
C714 C 0.20769 0.97579 0.6157 0.0
C715 C 0.21654 0.98529 0.63239 0.0
C716 C 0.17257 0.96732 0.60968 0.0
C717 C 0.16102 0.95528 0.59235 0.0
C718 C 0.16241 0.9249 0.58576 0.0
C719 C 0.1519 0.91395 0.56938 0.0
C720 C 0.13968 0.93301 0.55948 0.0
C721 C 0.13785 0.963 0.56597 0.0
C722 C 0.14838 0.97409 0.58234 0.0
H723 H 0.13156 0.9245 0.5468 0.0
H724 H 0.23382 0.03267 0.70568 0.0
H725 H 0.08068 0.12557 0.01413 0.0
H726 H 0.12836 0.17322 0.99702 0.0
H727 H 0.16036 0.09572 0.97979 0.0
H728 H 0.11301 0.04784 0.99742 0.0
H729 H 0.22018 0.16288 0.98491 0.0
H730 H 0.10649 0.11592 0.95576 0.0
H731 H 0.04083 0.09635 0.95189 0.0
H732 H 0.06383 0.20639 0.96241 0.0
H733 H 0.12958 0.22652 0.96658 0.0
H734 H 0.30945 0.27632 0.91313 0.0
H735 H 0.27308 0.22654 0.93257 0.0
H736 H 0.23765 0.29521 0.95686 0.0
H737 H 0.27434 0.34523 0.93769 0.0
H738 H 0.18009 0.22832 0.94652 0.0
H739 H 0.29524 0.27392 0.97607 0.0
H740 H 0.36065 0.29169 0.97902 0.0
H741 H 0.33457 0.18182 0.96593 0.0
H742 H 0.26904 0.16352 0.96267 0.0
C743 C 0.09793 0.11864 0.00676 0.0
C744 C 0.09288 0.08289 0.00695 0.0
C745 C 0.12515 0.1459 0.99696 0.0
C746 C 0.14741 0.13783 0.98686 0.0
C747 C 0.14333 0.10247 0.98743 0.0
C748 C 0.11625 0.07515 0.99744 0.0
C749 C 0.17389 0.16623 0.97537 0.0
C750 C 0.21139 0.17684 0.97632 0.0
C751 C 0.16243 0.18456 0.96423 0.0
C752 C 0.12293 0.17265 0.9616 0.0
C753 C 0.09751 0.13589 0.95735 0.0
C754 C 0.06028 0.12471 0.95509 0.0
C755 C 0.04815 0.1501 0.95693 0.0
C756 C 0.07326 0.18675 0.961 0.0
C757 C 0.11052 0.19807 0.96329 0.0
C758 C 0.29471 0.28117 0.92289 0.0
C759 C 0.29448 0.31461 0.92378 0.0
C760 C 0.27386 0.25265 0.93395 0.0
C761 C 0.25258 0.25718 0.94609 0.0
C762 C 0.25372 0.29111 0.94749 0.0
C763 C 0.27458 0.3196 0.9365 0.0
C764 C 0.2265 0.22573 0.95639 0.0
C765 C 0.18892 0.21432 0.95508 0.0
C766 C 0.23791 0.20647 0.96697 0.0
C767 C 0.27729 0.21746 0.96895 0.0
C768 C 0.3035 0.25363 0.97367 0.0
C769 C 0.34059 0.26378 0.97543 0.0
C770 C 0.35178 0.23793 0.97261 0.0
C771 C 0.32588 0.20184 0.96808 0.0
C772 C 0.28875 0.19155 0.96629 0.0
H773 H 0.38051 0.24584 0.97399 0.0
H774 H 0.01932 0.14139 0.95518 0.0
H775 H 0.04028 0.14067 0.35096 0.0
H776 H 0.03185 0.18421 0.33396 0.0
H777 H 0.96628 0.09702 0.29933 0.0
H778 H 0.97451 0.05336 0.31626 0.0
H779 H 0.01655 0.16197 0.284 0.0
H780 H 0.92431 0.12185 0.3265 0.0
H781 H 0.90186 0.11102 0.35521 0.0
H782 H 0.96728 0.22683 0.36571 0.0
H783 H 0.99058 0.23829 0.3371 0.0
H784 H 0.92614 0.23659 0.23947 0.0
H785 H 0.93675 0.19723 0.25815 0.0
H786 H 0.99894 0.28972 0.29083 0.0
H787 H 0.9876 0.32929 0.27233 0.0
H788 H 0.95367 0.22527 0.30775 0.0
H789 H 0.04413 0.26589 0.26499 0.0
H790 H 0.06649 0.27685 0.23626 0.0
H791 H 0.00508 0.16054 0.22631 0.0
H792 H 0.98186 0.14893 0.25493 0.0
C793 C 0.02434 0.13088 0.33965 0.0
C794 C 0.00793 0.09363 0.33495 0.0
C795 C 0.01942 0.15572 0.33 0.0
C796 C 0.99814 0.14369 0.31549 0.0
C797 C 0.98274 0.10679 0.31051 0.0
C798 C 0.98741 0.0819 0.3202 0.0
C799 C 0.99113 0.16932 0.30567 0.0
C800 C 0.00249 0.17554 0.28913 0.0
C801 C 0.9736 0.18766 0.31253 0.0
C802 C 0.95952 0.18087 0.32971 0.0
C803 C 0.93417 0.14497 0.33497 0.0
C804 C 0.92124 0.13872 0.35122 0.0
C805 C 0.93322 0.1682 0.3623 0.0
C806 C 0.95808 0.20401 0.35713 0.0
C807 C 0.97114 0.2104 0.34089 0.0
C808 C 0.94134 0.24844 0.25082 0.0
C809 C 0.9561 0.28611 0.25441 0.0
C810 C 0.94772 0.22598 0.26139 0.0
C811 C 0.96913 0.24074 0.27571 0.0
C812 C 0.98252 0.27789 0.27977 0.0
C813 C 0.9762 0.30047 0.26916 0.0
C814 C 0.97873 0.21759 0.28603 0.0
C815 C 0.96792 0.21187 0.30265 0.0
C816 C 0.99685 0.19974 0.27926 0.0
C817 C 0.01098 0.20658 0.26207 0.0
C818 C 0.03516 0.24267 0.25664 0.0
C819 C 0.04802 0.249 0.24038 0.0
C820 C 0.03714 0.21942 0.22946 0.0
C821 C 0.01344 0.18343 0.23478 0.0
C822 C 0.00045 0.17696 0.25103 0.0
H823 H 0.04713 0.22437 0.21687 0.0
H824 H 0.92317 0.16332 0.37487 0.0
loop_
_geom_bond_atom_site_label_1
_geom_bond_atom_site_label_2
_geom_bond_distance
_geom_bond_site_symmetry_2
_ccdc_geom_bond_type
In0 O1 2.294 1_455 S
In0 O2 2.326 . S
In0 O6 2.266 1_445 S
In0 O7 2.326 1_445 S
In0 O8 2.266 1_545 S
In0 O9 2.326 1_445 S
In0 O11 2.294 . S
In0 O12 2.326 . S
O1 In0 2.294 1_655 S
O1 C10 1.240 1_655 S
O2 In0 2.326 . S
O2 C10 1.252 . S
C3 O6 1.252 . S
C3 O7 1.260 . S
C4 O11 1.240 . S
C4 O12 1.252 . S
C5 O8 1.250 1_655 S
C5 O9 1.264 . S
O6 In0 2.266 1_665 S
O6 C3 1.252 . S
O7 In0 2.326 1_665 S
O7 C3 1.260 . S
O8 In0 2.266 1_565 S
O8 C5 1.250 1_455 S
O9 In0 2.326 1_665 S
O9 C5 1.264 . S
C10 O1 1.240 1_455 S
C10 O2 1.252 . S
O11 In0 2.294 . S
O11 C4 1.240 . S
O12 In0 2.326 . S
O12 C4 1.252 . S
In13 O14 2.292 . S
In13 O15 2.306 1_455 S
In13 O19 2.290 . S
In13 O20 2.342 1_545 S
In13 O21 2.269 1_445 S
In13 O22 2.346 1_545 S
In13 O24 2.270 1_445 S
In13 O25 2.309 1_455 S
O14 In13 2.292 . S
O14 C23 1.240 1_455 S
O15 In13 2.306 1_655 S
O15 C23 1.252 . S
C16 O19 1.249 1_565 S
C16 O20 1.261 . S
C17 O24 1.240 1_545 S
C17 O25 1.252 . S
C18 O21 1.252 1_455 S
C18 O22 1.260 . S
O19 In13 2.290 . S
O19 C16 1.249 1_545 S
O20 In13 2.342 1_565 S
O20 C16 1.261 . S
O21 In13 2.269 1_665 S
O21 C18 1.252 1_655 S
O22 In13 2.346 1_565 S
O22 C18 1.260 . S
C23 O14 1.240 1_655 S
C23 O15 1.252 . S
O24 In13 2.270 1_665 S
O24 C17 1.240 1_565 S
O25 In13 2.309 1_655 S
O25 C17 1.252 . S
In26 O27 2.271 1_445 S
In26 O28 2.305 1_445 S
In26 O32 2.274 1_545 S
In26 O33 2.348 . S
In26 O34 2.290 . S
In26 O35 2.346 . S
In26 O37 2.286 1_455 S
In26 O38 2.303 1_445 S
O27 In26 2.271 1_665 S
O27 C36 1.240 . S
O28 In26 2.305 1_665 S
O28 C36 1.252 . S
C29 O32 1.252 1_545 S
C29 O33 1.260 . S
C30 O37 1.240 1_565 S
C30 O38 1.252 . S
C31 O34 1.252 . S
C31 O35 1.260 . S
O32 In26 2.274 1_565 S
O32 C29 1.252 1_565 S
O33 In26 2.348 . S
O33 C29 1.260 . S
O34 In26 2.290 . S
O34 C31 1.252 . S
O35 In26 2.346 . S
O35 C31 1.260 . S
C36 O27 1.240 . S
C36 O28 1.252 . S
O37 In26 2.286 1_655 S
O37 C30 1.240 1_545 S
O38 In26 2.303 1_665 S
O38 C30 1.252 . S
H39 C66 0.929 . S
N40 C65 1.433 . S
N40 C71 1.435 . S
N40 C77 1.423 . S
H41 C67 0.930 . S
H42 C70 0.931 . S
H43 C69 0.929 . S
H44 C72 0.930 . S
H45 C73 0.932 . S
H46 C76 0.929 . S
H47 C75 0.931 . S
H48 C78 0.929 . S
H49 C82 0.932 1_455 S
H50 C79 0.931 . S
H51 C81 0.929 1_455 S
H52 C84 0.929 . S
H53 C85 0.930 . S
H54 C87 0.929 . S
H55 C88 0.931 . S
H56 C90 0.930 . S
H57 C91 0.932 . S
H58 C93 0.931 . S
H59 C94 0.929 . S
H60 C96 0.929 . S
H61 C97 0.931 . S
H62 C99 0.929 1_455 S
N63 C83 1.433 . S
N63 C89 1.435 . S
N63 C95 1.423 . S
H64 C100 0.931 1_455 S
C65 N40 1.433 . S
C65 C66 1.363 . S
C65 C70 1.370 1_655 S
C66 H39 0.929 . S
C66 C65 1.363 . S
C66 C67 1.385 . S
C67 H41 0.930 . S
C67 C66 1.385 . S
C67 C68 1.357 . S
C68 C67 1.357 . S
C68 C69 1.406 1_655 S
C69 H43 0.929 . S
C69 C68 1.406 1_455 S
C69 C70 1.391 . S
C70 H42 0.931 . S
C70 C65 1.370 1_455 S
C70 C69 1.391 . S
C71 N40 1.435 . S
C71 C72 1.358 1_655 S
C71 C76 1.371 . S
C72 H44 0.930 . S
C72 C71 1.358 1_455 S
C72 C73 1.405 . S
C73 H45 0.932 . S
C73 C72 1.405 . S
C73 C74 1.394 . S
C74 C73 1.394 . S
C74 C75 1.387 1_455 S
C75 H47 0.931 . S
C75 C74 1.387 1_655 S
C75 C76 1.382 . S
C76 H46 0.929 . S
C76 C71 1.371 . S
C76 C75 1.382 . S
C77 N40 1.423 . S
C77 C78 1.362 . S
C77 C82 1.389 . S
C78 H48 0.929 . S
C78 C77 1.362 . S
C78 C79 1.376 . S
C79 H50 0.931 . S
C79 C78 1.376 . S
C79 C80 1.396 . S
C80 C79 1.396 . S
C80 C81 1.348 . S
C80 C98 1.472 . S
C81 H51 0.929 1_655 S
C81 C80 1.348 . S
C81 C82 1.442 . S
C82 H49 0.932 1_655 S
C82 C77 1.389 . S
C82 C81 1.442 . S
C83 N63 1.433 . S
C83 C84 1.363 . S
C83 C88 1.370 1_655 S
C84 H52 0.929 . S
C84 C83 1.363 . S
C84 C85 1.385 . S
C85 H53 0.930 . S
C85 C84 1.385 . S
C85 C86 1.357 . S
C86 C85 1.357 . S
C86 C87 1.406 1_655 S
C87 H54 0.929 . S
C87 C86 1.406 1_455 S
C87 C88 1.391 . S
C88 H55 0.931 . S
C88 C83 1.370 1_455 S
C88 C87 1.391 . S
C89 N63 1.435 . S
C89 C90 1.358 1_655 S
C89 C94 1.371 . S
C90 H56 0.930 . S
C90 C89 1.358 1_455 S
C90 C91 1.405 . S
C91 H57 0.932 . S
C91 C90 1.405 . S
C91 C92 1.396 . S
C92 C91 1.396 . S
C92 C93 1.369 1_455 S
C93 H58 0.931 . S
C93 C92 1.369 1_655 S
C93 C94 1.382 . S
C94 H59 0.929 . S
C94 C89 1.371 . S
C94 C93 1.382 . S
C95 N63 1.423 . S
C95 C96 1.362 . S
C95 C100 1.389 . S
C96 H60 0.929 . S
C96 C95 1.362 . S
C96 C97 1.376 . S
C97 H61 0.931 . S
C97 C96 1.376 . S
C97 C98 1.396 . S
C98 C80 1.472 . S
C98 C97 1.396 . S
C98 C99 1.348 . S
C99 H62 0.929 1_655 S
C99 C98 1.348 . S
C99 C100 1.443 . S
C100 H64 0.931 1_655 S
C100 C95 1.389 . S
C100 C99 1.443 . S
H101 C128 0.929 . S
N102 C127 1.433 . S
N102 C133 1.435 . S
N102 C139 1.423 . S
H103 C129 0.930 . S
H104 C132 0.931 . S
H105 C131 0.929 . S
H106 C134 0.930 . S
H107 C135 0.932 . S
H108 C138 0.929 . S
H109 C137 0.931 . S
H110 C140 0.929 . S
H111 C144 0.932 1_565 S
H112 C141 0.931 . S
H113 C143 0.929 1_565 S
H114 C146 0.929 . S
H115 C147 0.930 . S
H116 C149 0.929 . S
H117 C150 0.931 . S
H118 C152 0.930 . S
H119 C153 0.932 . S
H120 C155 0.931 . S
H121 C156 0.929 . S
H122 C158 0.929 . S
H123 C159 0.931 . S
H124 C161 0.929 1_565 S
N125 C145 1.433 . S
N125 C151 1.435 . S
N125 C157 1.423 . S
H126 C162 0.932 1_565 S
C127 N102 1.433 . S
C127 C128 1.363 . S
C127 C132 1.370 1_545 S
C128 H101 0.929 . S
C128 C127 1.363 . S
C128 C129 1.385 . S
C129 H103 0.930 . S
C129 C128 1.385 . S
C129 C130 1.357 . S
C130 C129 1.357 . S
C130 C131 1.406 1_545 S
C131 H105 0.929 . S
C131 C130 1.406 1_565 S
C131 C132 1.391 . S
C132 H104 0.931 . S
C132 C127 1.370 1_565 S
C132 C131 1.391 . S
C133 N102 1.435 . S
C133 C134 1.358 1_545 S
C133 C138 1.371 . S
C134 H106 0.930 . S
C134 C133 1.358 1_565 S
C134 C135 1.405 . S
C135 H107 0.932 . S
C135 C134 1.405 . S
C135 C136 1.383 1_565 S
C136 C135 1.383 1_545 S
C136 C137 1.393 . S
C137 H109 0.931 . S
C137 C136 1.393 . S
C137 C138 1.382 . S
C138 H108 0.929 . S
C138 C133 1.371 . S
C138 C137 1.382 . S
C139 N102 1.423 . S
C139 C140 1.362 . S
C139 C144 1.388 . S
C140 H110 0.929 . S
C140 C139 1.362 . S
C140 C141 1.376 . S
C141 H112 0.931 . S
C141 C140 1.376 . S
C141 C142 1.396 . S
C142 C141 1.396 . S
C142 C143 1.348 . S
C142 C160 1.472 . S
C143 H113 0.929 1_545 S
C143 C142 1.348 . S
C143 C144 1.443 . S
C144 H111 0.932 1_545 S
C144 C139 1.388 . S
C144 C143 1.443 . S
C145 N125 1.433 . S
C145 C146 1.363 . S
C145 C150 1.370 1_545 S
C146 H114 0.929 . S
C146 C145 1.363 . S
C146 C147 1.385 . S
C147 H115 0.930 . S
C147 C146 1.385 . S
C147 C148 1.357 . S
C148 C147 1.357 . S
C148 C149 1.406 1_545 S
C149 H116 0.929 . S
C149 C148 1.406 1_565 S
C149 C150 1.391 . S
C150 H117 0.931 . S
C150 C145 1.370 1_565 S
C150 C149 1.391 . S
C151 N125 1.435 . S
C151 C152 1.358 1_545 S
C151 C156 1.371 . S
C152 H118 0.930 . S
C152 C151 1.358 1_565 S
C152 C153 1.405 . S
C153 H119 0.932 . S
C153 C152 1.405 . S
C153 C154 1.383 1_565 S
C154 C153 1.383 1_545 S
C154 C155 1.393 . S
C155 H120 0.931 . S
C155 C154 1.393 . S
C155 C156 1.382 . S
C156 H121 0.929 . S
C156 C151 1.371 . S
C156 C155 1.382 . S
C157 N125 1.423 . S
C157 C158 1.362 . S
C157 C162 1.388 . S
C158 H122 0.929 . S
C158 C157 1.362 . S
C158 C159 1.376 . S
C159 H123 0.931 . S
C159 C158 1.376 . S
C159 C160 1.396 . S
C160 C142 1.472 . S
C160 C159 1.396 . S
C160 C161 1.348 . S
C161 H124 0.929 1_545 S
C161 C160 1.348 . S
C161 C162 1.443 . S
C162 H126 0.932 1_545 S
C162 C157 1.388 . S
C162 C161 1.443 . S
H163 C190 0.929 . S
N164 C189 1.433 . S
N164 C195 1.435 . S
N164 C201 1.423 . S
H165 C191 0.930 . S
H166 C194 0.931 . S
H167 C193 0.929 . S
H168 C196 0.930 . S
H169 C197 0.932 . S
H170 C200 0.929 . S
H171 C199 0.931 . S
H172 C202 0.929 . S
H173 C206 0.932 . S
H174 C203 0.931 . S
H175 C205 0.929 . S
H176 C208 0.929 . S
H177 C209 0.930 . S
H178 C211 0.929 . S
H179 C212 0.931 . S
H180 C214 0.930 . S
H181 C215 0.932 . S
H182 C217 0.931 . S
H183 C218 0.929 . S
H184 C220 0.929 . S
H185 C221 0.931 . S
H186 C223 0.929 . S
N187 C207 1.433 . S
N187 C213 1.435 . S
N187 C219 1.423 . S
H188 C224 0.932 . S
C189 N164 1.433 . S
C189 C190 1.363 . S
C189 C194 1.370 . S
C190 H163 0.929 . S
C190 C189 1.363 . S
C190 C191 1.385 . S
C191 H165 0.930 . S
C191 C190 1.385 . S
C191 C192 1.357 . S
C192 C191 1.357 . S
C192 C193 1.406 . S
C193 H167 0.929 . S
C193 C192 1.406 . S
C193 C194 1.391 . S
C194 H166 0.931 . S
C194 C189 1.370 . S
C194 C193 1.391 . S
C195 N164 1.435 . S
C195 C196 1.358 . S
C195 C200 1.371 . S
C196 H168 0.930 . S
C196 C195 1.358 . S
C196 C197 1.405 . S
C197 H169 0.932 . S
C197 C196 1.405 . S
C197 C198 1.383 . S
C198 C197 1.383 . S
C198 C199 1.393 . S
C199 H171 0.931 . S
C199 C198 1.393 . S
C199 C200 1.382 . S
C200 H170 0.929 . S
C200 C195 1.371 . S
C200 C199 1.382 . S
C201 N164 1.423 . S
C201 C202 1.362 . S
C201 C206 1.388 . S
C202 H172 0.929 . S
C202 C201 1.362 . S
C202 C203 1.376 . S
C203 H174 0.931 . S
C203 C202 1.376 . S
C203 C204 1.396 . S
C204 C203 1.396 . S
C204 C205 1.348 . S
C204 C222 1.472 . S
C205 H175 0.929 . S
C205 C204 1.348 . S
C205 C206 1.443 . S
C206 H173 0.932 . S
C206 C201 1.388 . S
C206 C205 1.443 . S
C207 N187 1.433 . S
C207 C208 1.363 . S
C207 C212 1.370 . S
C208 H176 0.929 . S
C208 C207 1.363 . S
C208 C209 1.385 . S
C209 H177 0.930 . S
C209 C208 1.385 . S
C209 C210 1.357 . S
C210 C209 1.357 . S
C210 C211 1.406 . S
C211 H178 0.929 . S
C211 C210 1.406 . S
C211 C212 1.391 . S
C212 H179 0.931 . S
C212 C207 1.370 . S
C212 C211 1.391 . S
C213 N187 1.435 . S
C213 C214 1.358 . S
C213 C218 1.371 . S
C214 H180 0.930 . S
C214 C213 1.358 . S
C214 C215 1.405 . S
C215 H181 0.932 . S
C215 C214 1.405 . S
C215 C216 1.383 . S
C216 C215 1.383 . S
C216 C217 1.393 . S
C217 H182 0.931 . S
C217 C216 1.393 . S
C217 C218 1.382 . S
C218 H183 0.929 . S
C218 C213 1.371 . S
C218 C217 1.382 . S
C219 N187 1.423 . S
C219 C220 1.362 . S
C219 C224 1.388 . S
C220 H184 0.929 . S
C220 C219 1.362 . S
C220 C221 1.376 . S
C221 H185 0.931 . S
C221 C220 1.376 . S
C221 C222 1.396 . S
C222 C204 1.472 . S
C222 C221 1.396 . S
C222 C223 1.348 . S
C223 H186 0.929 . S
C223 C222 1.348 . S
C223 C224 1.443 . S
C224 H188 0.932 . S
C224 C219 1.388 . S
C224 C223 1.443 . S
H225 C243 0.946 . S
H226 C245 0.951 . S
H227 C247 0.950 . S
H228 C248 0.950 . S
H229 C250 0.950 . S
H230 C253 0.950 . S
H231 C254 0.950 . S
H232 C256 0.950 . S
H233 C257 0.950 . S
H234 C258 0.951 . S
H235 C260 0.951 . S
H236 C262 0.950 . S
H237 C263 0.950 . S
H238 C265 0.950 . S
H239 C268 0.950 . S
H240 C269 0.950 . S
H241 C271 0.950 . S
H242 C272 0.950 . S
C243 H225 0.946 . S
C243 C244 1.364 1_655 S
C243 C245 1.394 . S
C244 C243 1.364 1_455 S
C244 C248 1.385 . S
C245 H226 0.951 . S
C245 C243 1.394 . S
C245 C246 1.366 1_655 S
C246 C245 1.366 1_455 S
C246 C247 1.414 . S
C246 C249 1.499 . S
C247 H227 0.950 . S
C247 C246 1.414 . S
C247 C248 1.374 . S
C248 H228 0.950 . S
C248 C244 1.385 . S
C248 C247 1.374 . S
C249 C246 1.499 . S
C249 C250 1.373 . S
C249 C251 1.389 1_455 S
C250 H229 0.950 . S
C250 C249 1.373 . S
C250 C266 1.377 . S
C251 C249 1.389 1_655 S
C251 C252 1.524 . S
C251 C265 1.377 . S
C252 C251 1.524 . S
C252 C253 1.397 . S
C252 C257 1.363 . S
C253 H230 0.950 . S
C253 C252 1.397 . S
C253 C254 1.334 . S
C254 H231 0.950 . S
C254 C253 1.334 . S
C254 C255 1.287 . S
C255 C254 1.287 . S
C255 C256 1.524 . S
C255 H274 0.913 . S
C256 H232 0.950 . S
C256 C255 1.524 . S
C256 C257 1.415 . S
C257 H233 0.950 . S
C257 C252 1.363 . S
C257 C256 1.415 . S
C258 H234 0.951 . S
C258 C259 1.366 . S
C258 C260 1.388 . S
C259 C258 1.366 . S
C259 C263 1.385 1_455 S
C260 H235 0.951 . S
C260 C258 1.388 . S
C260 C261 1.366 . S
C261 C260 1.366 . S
C261 C262 1.414 1_455 S
C261 C264 1.499 . S
C262 H236 0.950 . S
C262 C261 1.414 1_655 S
C262 C263 1.374 . S
C263 H237 0.950 . S
C263 C259 1.385 1_655 S
C263 C262 1.374 . S
C264 C261 1.499 . S
C264 C265 1.373 1_455 S
C264 C266 1.389 . S
C265 H238 0.950 . S
C265 C251 1.377 . S
C265 C264 1.373 1_655 S
C266 C250 1.377 . S
C266 C264 1.389 . S
C266 C267 1.524 . S
C267 C266 1.524 . S
C267 C268 1.397 . S
C267 C272 1.363 . S
C268 H239 0.950 . S
C268 C267 1.397 . S
C268 C269 1.334 . S
C269 H240 0.950 . S
C269 C268 1.334 . S
C269 C270 1.287 . S
C270 C269 1.287 . S
C270 C271 1.524 . S
C270 H273 0.999 . S
C271 H241 0.950 . S
C271 C270 1.524 . S
C271 C272 1.415 . S
C272 H242 0.950 . S
C272 C267 1.363 . S
C272 C271 1.415 . S
H273 C270 0.999 . S
H274 C255 0.913 . S
H275 C293 0.951 . S
H276 C295 0.951 . S
H277 C297 0.950 . S
H278 C298 0.950 . S
H279 C300 0.951 . S
H280 C303 0.950 . S
H281 C304 0.950 . S
H282 C306 0.950 . S
H283 C307 0.950 . S
H284 C308 0.951 . S
H285 C310 0.951 . S
H286 C312 0.950 . S
H287 C313 0.950 . S
H288 C315 0.950 . S
H289 C318 0.950 . S
H290 C319 0.950 . S
H291 C321 0.950 . S
H292 C322 0.950 . S
C293 H275 0.951 . S
C293 C294 1.366 . S
C293 C295 1.388 . S
C294 C293 1.366 . S
C294 C298 1.385 1_545 S
C295 H276 0.951 . S
C295 C293 1.388 . S
C295 C296 1.366 . S
C296 C295 1.366 . S
C296 C297 1.414 1_545 S
C296 C299 1.499 . S
C297 H277 0.950 . S
C297 C296 1.414 1_565 S
C297 C298 1.374 . S
C298 H278 0.950 . S
C298 C294 1.385 1_565 S
C298 C297 1.374 . S
C299 C296 1.499 . S
C299 C300 1.373 . S
C299 C301 1.389 . S
C300 H279 0.951 . S
C300 C299 1.373 . S
C300 C316 1.377 . S
C301 C299 1.389 . S
C301 C302 1.524 . S
C301 C315 1.377 . S
C302 C301 1.524 . S
C302 C303 1.397 1_545 S
C302 C307 1.363 . S
C303 H280 0.950 . S
C303 C302 1.397 1_565 S
C303 C304 1.334 . S
C304 H281 0.950 . S
C304 C303 1.334 . S
C304 C305 1.287 . S
C305 C304 1.287 . S
C305 C306 1.524 1_565 S
C305 H324 0.913 . S
C306 H282 0.950 . S
C306 C305 1.524 1_545 S
C306 C307 1.415 . S
C307 H283 0.950 . S
C307 C302 1.363 . S
C307 C306 1.415 . S
C308 H284 0.951 . S
C308 C309 1.366 1_565 S
C308 C310 1.388 . S
C309 C308 1.366 1_545 S
C309 C313 1.385 . S
C310 H285 0.951 . S
C310 C308 1.388 . S
C310 C311 1.366 1_565 S
C311 C310 1.366 1_545 S
C311 C312 1.414 . S
C311 C314 1.499 . S
C312 H286 0.950 . S
C312 C311 1.414 . S
C312 C313 1.374 . S
C313 H287 0.950 . S
C313 C309 1.385 . S
C313 C312 1.374 . S
C314 C311 1.499 . S
C314 C315 1.373 . S
C314 C316 1.389 . S
C315 H288 0.950 . S
C315 C301 1.377 . S
C315 C314 1.373 . S
C316 C300 1.377 . S
C316 C314 1.389 . S
C316 C317 1.524 . S
C317 C316 1.524 . S
C317 C318 1.397 . S
C317 C322 1.363 1_545 S
C318 H289 0.950 . S
C318 C317 1.397 . S
C318 C319 1.334 . S
C319 H290 0.950 . S
C319 C318 1.334 . S
C319 C320 1.287 . S
C320 C319 1.287 . S
C320 C321 1.524 1_545 S
C320 H323 0.999 . S
C321 H291 0.950 . S
C321 C320 1.524 1_565 S
C321 C322 1.415 . S
C322 H292 0.950 . S
C322 C317 1.363 1_565 S
C322 C321 1.415 . S
H323 C320 0.999 . S
H324 C305 0.913 . S
H325 C343 0.951 . S
H326 C345 0.951 . S
H327 C347 0.950 . S
H328 C348 0.950 . S
H329 C350 0.950 . S
H330 C353 0.950 . S
H331 C354 0.950 . S
H332 C356 0.950 . S
H333 C357 0.950 . S
H334 C358 0.951 . S
H335 C360 0.951 . S
H336 C362 0.950 . S
H337 C363 0.950 . S
H338 C365 0.950 . S
H339 C368 0.950 . S
H340 C369 0.950 . S
H341 C371 0.950 . S
H342 C372 0.950 . S
C343 H325 0.951 . S
C343 C344 1.366 . S
C343 C345 1.388 . S
C344 C343 1.366 . S
C344 C348 1.385 . S
C345 H326 0.951 . S
C345 C343 1.388 . S
C345 C346 1.366 . S
C346 C345 1.366 . S
C346 C347 1.414 . S
C346 C349 1.499 . S
C347 H327 0.950 . S
C347 C346 1.414 . S
C347 C348 1.374 . S
C348 H328 0.950 . S
C348 C344 1.385 . S
C348 C347 1.374 . S
C349 C346 1.499 . S
C349 C350 1.373 . S
C349 C351 1.389 . S
C350 H329 0.950 . S
C350 C349 1.373 . S
C350 C366 1.377 . S
C351 C349 1.389 . S
C351 C352 1.524 . S
C351 C365 1.377 . S
C352 C351 1.524 . S
C352 C353 1.397 . S
C352 C357 1.363 . S
C353 H330 0.950 . S
C353 C352 1.397 . S
C353 C354 1.334 . S
C354 H331 0.950 . S
C354 C353 1.334 . S
C354 C355 1.287 . S
C355 C354 1.287 . S
C355 C356 1.524 . S
C355 H374 0.913 . S
C356 H332 0.950 . S
C356 C355 1.524 . S
C356 C357 1.415 . S
C357 H333 0.950 . S
C357 C352 1.363 . S
C357 C356 1.415 . S
C358 H334 0.951 . S
C358 C359 1.366 . S
C358 C360 1.388 . S
C359 C358 1.366 . S
C359 C363 1.385 . S
C360 H335 0.951 . S
C360 C358 1.388 . S
C360 C361 1.366 . S
C361 C360 1.366 . S
C361 C362 1.414 . S
C361 C364 1.499 . S
C362 H336 0.950 . S
C362 C361 1.414 . S
C362 C363 1.374 . S
C363 H337 0.950 . S
C363 C359 1.385 . S
C363 C362 1.374 . S
C364 C361 1.499 . S
C364 C365 1.373 . S
C364 C366 1.389 . S
C365 H338 0.950 . S
C365 C351 1.377 . S
C365 C364 1.373 . S
C366 C350 1.377 . S
C366 C364 1.389 . S
C366 C367 1.524 . S
C367 C366 1.524 . S
C367 C368 1.397 . S
C367 C372 1.363 . S
C368 H339 0.950 . S
C368 C367 1.397 . S
C368 C369 1.334 . S
C369 H340 0.950 . S
C369 C368 1.334 . S
C369 C370 1.287 . S
C370 C369 1.287 . S
C370 C371 1.524 . S
C370 H373 0.999 . S
C371 H341 0.950 . S
C371 C370 1.524 . S
C371 C372 1.415 . S
C372 H342 0.950 . S
C372 C367 1.363 . S
C372 C371 1.415 . S
H373 C370 0.999 . S
H374 C355 0.913 . S
H375 C393 0.951 . S
H376 C395 0.951 . S
H377 C397 0.950 . S
H378 C398 0.950 . S
H379 C400 0.950 . S
H380 C403 0.950 . S
H381 C404 0.950 . S
H382 C406 0.950 . S
H383 C407 0.950 . S
H384 C408 0.951 . S
H385 C410 0.951 . S
H386 C412 0.950 . S
H387 C413 0.950 . S
H388 C415 0.950 . S
H389 C418 0.950 . S
H390 C419 0.950 . S
H391 C421 0.950 . S
H392 C422 0.950 . S
C393 H375 0.951 . S
C393 C394 1.366 1_655 S
C393 C395 1.388 . S
C394 C393 1.366 1_455 S
C394 C398 1.383 . S
C395 H376 0.951 . S
C395 C393 1.388 . S
C395 C396 1.354 1_655 S
C396 C395 1.354 1_455 S
C396 C397 1.420 . S
C396 C399 1.504 . S
C397 H377 0.950 . S
C397 C396 1.420 . S
C397 C398 1.374 . S
C398 H378 0.950 . S
C398 C394 1.383 . S
C398 C397 1.374 . S
C399 C396 1.504 . S
C399 C400 1.373 . S
C399 C401 1.389 1_455 S
C400 H379 0.950 . S
C400 C399 1.373 . S
C400 C416 1.377 . S
C401 C399 1.389 1_655 S
C401 C402 1.524 . S
C401 C415 1.377 . S
C402 C401 1.524 . S
C402 C403 1.397 . S
C402 C407 1.363 . S
C403 H380 0.950 . S
C403 C402 1.397 . S
C403 C404 1.334 . S
C404 H381 0.950 . S
C404 C403 1.334 . S
C404 C405 1.287 . S
C405 C404 1.287 . S
C405 C406 1.524 . S
C405 H424 0.913 . S
C406 H382 0.950 . S
C406 C405 1.524 . S
C406 C407 1.415 . S
C407 H383 0.950 . S
C407 C402 1.363 . S
C407 C406 1.415 . S
C408 H384 0.951 . S
C408 C409 1.366 . S
C408 C410 1.388 . S
C409 C408 1.366 . S
C409 C413 1.385 1_455 S
C410 H385 0.951 . S
C410 C408 1.388 . S
C410 C411 1.366 . S
C411 C410 1.366 . S
C411 C412 1.414 1_455 S
C411 C414 1.509 . S
C412 H386 0.950 . S
C412 C411 1.414 1_655 S
C412 C413 1.374 . S
C413 H387 0.950 . S
C413 C409 1.385 1_655 S
C413 C412 1.374 . S
C414 C411 1.509 . S
C414 C415 1.350 1_455 S
C414 C416 1.402 . S
C415 H388 0.950 . S
C415 C401 1.377 . S
C415 C414 1.350 1_655 S
C416 C400 1.377 . S
C416 C414 1.402 . S
C416 C417 1.524 . S
C417 C416 1.524 . S
C417 C418 1.397 . S
C417 C422 1.363 . S
C418 H389 0.950 . S
C418 C417 1.397 . S
C418 C419 1.334 . S
C419 H390 0.950 . S
C419 C418 1.334 . S
C419 C420 1.287 . S
C420 C419 1.287 . S
C420 C421 1.524 . S
C420 H423 0.999 . S
C421 H391 0.950 . S
C421 C420 1.524 . S
C421 C422 1.415 . S
C422 H392 0.950 . S
C422 C417 1.363 . S
C422 C421 1.415 . S
H423 C420 0.999 . S
H424 C405 0.913 . S
H425 C443 0.951 . S
H426 C445 0.951 . S
H427 C447 0.950 . S
H428 C448 0.950 . S
H429 C450 0.950 . S
H430 C453 0.950 . S
H431 C454 0.950 . S
H432 C456 0.950 . S
H433 C457 0.950 . S
H434 C458 0.951 . S
H435 C460 0.951 . S
H436 C462 0.950 . S
H437 C463 0.950 . S
H438 C465 0.950 . S
H439 C468 0.950 . S
H440 C469 0.950 . S
H441 C471 0.950 . S
H442 C472 0.950 . S
C443 H425 0.951 . S
C443 C444 1.364 . S
C443 C445 1.388 . S
C444 C443 1.364 . S
C444 C448 1.388 1_545 S
C445 H426 0.951 . S
C445 C443 1.388 . S
C445 C446 1.366 . S
C446 C445 1.366 . S
C446 C447 1.414 1_545 S
C446 C449 1.499 . S
C447 H427 0.950 . S
C447 C446 1.414 1_565 S
C447 C448 1.374 . S
C448 H428 0.950 . S
C448 C444 1.388 1_565 S
C448 C447 1.374 . S
C449 C446 1.499 . S
C449 C450 1.373 1_545 S
C449 C451 1.389 . S
C450 H429 0.950 . S
C450 C449 1.373 1_565 S
C450 C466 1.377 . S
C451 C449 1.389 . S
C451 C452 1.524 . S
C451 C465 1.377 . S
C452 C451 1.524 . S
C452 C453 1.397 . S
C452 C457 1.363 . S
C453 H430 0.950 . S
C453 C452 1.397 . S
C453 C454 1.334 . S
C454 H431 0.950 . S
C454 C453 1.334 . S
C454 C455 1.287 . S
C455 C454 1.287 . S
C455 C456 1.524 . S
C455 H474 0.913 . S
C456 H432 0.950 . S
C456 C455 1.524 . S
C456 C457 1.415 . S
C457 H433 0.950 . S
C457 C452 1.363 . S
C457 C456 1.415 . S
C458 H434 0.951 . S
C458 C459 1.366 1_565 S
C458 C460 1.388 . S
C459 C458 1.366 1_545 S
C459 C463 1.385 . S
C460 H435 0.951 . S
C460 C458 1.388 . S
C460 C461 1.357 1_565 S
C461 C460 1.357 1_545 S
C461 C462 1.418 . S
C461 C464 1.496 . S
C462 H436 0.950 . S
C462 C461 1.418 . S
C462 C463 1.374 . S
C463 H437 0.950 . S
C463 C459 1.385 . S
C463 C462 1.374 . S
C464 C461 1.496 . S
C464 C465 1.390 . S
C464 C466 1.380 1_545 S
C465 H438 0.950 . S
C465 C451 1.377 . S
C465 C464 1.390 . S
C466 C450 1.377 . S
C466 C464 1.380 1_565 S
C466 C467 1.524 . S
C467 C466 1.524 . S
C467 C468 1.397 . S
C467 C472 1.363 . S
C468 H439 0.950 . S
C468 C467 1.397 . S
C468 C469 1.334 . S
C469 H440 0.950 . S
C469 C468 1.334 . S
C469 C470 1.287 . S
C470 C469 1.287 . S
C470 C471 1.524 . S
C470 H473 0.999 . S
C471 H441 0.950 . S
C471 C470 1.524 . S
C471 C472 1.415 . S
C472 H442 0.950 . S
C472 C467 1.363 . S
C472 C471 1.415 . S
H473 C470 0.999 . S
H474 C455 0.913 . S
H475 C493 0.951 . S
H476 C495 0.951 . S
H477 C497 0.950 . S
H478 C498 0.950 . S
H479 C500 0.950 . S
H480 C503 0.950 . S
H481 C504 0.950 . S
H482 C506 0.950 . S
H483 C507 0.950 . S
H484 C508 0.951 . S
H485 C510 0.951 . S
H486 C512 0.950 . S
H487 C513 0.950 . S
H488 C515 0.950 . S
H489 C518 0.950 . S
H490 C519 0.950 . S
H491 C521 0.950 . S
H492 C522 0.950 . S
C493 H475 0.951 . S
C493 C494 1.366 . S
C493 C495 1.388 . S
C494 C493 1.366 . S
C494 C498 1.385 . S
C495 H476 0.951 . S
C495 C493 1.388 . S
C495 C496 1.366 . S
C496 C495 1.366 . S
C496 C497 1.414 . S
C496 C499 1.499 . S
C497 H477 0.950 . S
C497 C496 1.414 . S
C497 C498 1.374 . S
C498 H478 0.950 . S
C498 C494 1.385 . S
C498 C497 1.374 . S
C499 C496 1.499 . S
C499 C500 1.373 . S
C499 C501 1.389 . S
C500 H479 0.950 . S
C500 C499 1.373 . S
C500 C516 1.377 . S
C501 C499 1.389 . S
C501 C502 1.524 . S
C501 C515 1.377 . S
C502 C501 1.524 . S
C502 C503 1.397 . S
C502 C507 1.363 . S
C503 H480 0.950 . S
C503 C502 1.397 . S
C503 C504 1.334 . S
C504 H481 0.950 . S
C504 C503 1.334 . S
C504 C505 1.287 . S
C505 C504 1.287 . S
C505 C506 1.524 . S
C505 H524 0.913 . S
C506 H482 0.950 . S
C506 C505 1.524 . S
C506 C507 1.415 . S
C507 H483 0.950 . S
C507 C502 1.363 . S
C507 C506 1.415 . S
C508 H484 0.951 . S
C508 C509 1.366 . S
C508 C510 1.388 . S
C509 C508 1.366 . S
C509 C513 1.385 . S
C510 H485 0.951 . S
C510 C508 1.388 . S
C510 C511 1.366 . S
C511 C510 1.366 . S
C511 C512 1.414 . S
C511 C514 1.499 . S
C512 H486 0.950 . S
C512 C511 1.414 . S
C512 C513 1.374 . S
C513 H487 0.950 . S
C513 C509 1.385 . S
C513 C512 1.374 . S
C514 C511 1.499 . S
C514 C515 1.373 . S
C514 C516 1.389 . S
C515 H488 0.950 . S
C515 C501 1.377 . S
C515 C514 1.373 . S
C516 C500 1.377 . S
C516 C514 1.389 . S
C516 C517 1.524 . S
C517 C516 1.524 . S
C517 C518 1.397 . S
C517 C522 1.363 . S
C518 H489 0.950 . S
C518 C517 1.397 . S
C518 C519 1.334 . S
C519 H490 0.950 . S
C519 C518 1.334 . S
C519 C520 1.287 . S
C520 C519 1.287 . S
C520 C521 1.524 . S
C520 H523 0.999 . S
C521 H491 0.950 . S
C521 C520 1.524 . S
C521 C522 1.415 . S
C522 H492 0.950 . S
C522 C517 1.363 . S
C522 C521 1.415 . S
H523 C520 0.999 . S
H524 C505 0.913 . S
H525 C543 0.951 . S
H526 C545 0.951 . S
H527 C547 0.950 . S
H528 C548 0.950 . S
H529 C550 0.950 . S
H530 C553 0.950 . S
H531 C554 0.950 . S
H532 C556 0.950 . S
H533 C557 0.950 . S
H534 C558 0.951 . S
H535 C560 0.951 . S
H536 C562 0.950 . S
H537 C563 0.950 . S
H538 C565 0.950 . S
H539 C568 0.950 . S
H540 C569 0.950 . S
H541 C571 0.950 . S
H542 C572 0.950 . S
C543 H525 0.951 . S
C543 C544 1.366 . S
C543 C545 1.388 . S
C544 C543 1.366 . S
C544 C548 1.385 1_565 S
C545 H526 0.951 . S
C545 C543 1.388 . S
C545 C546 1.366 . S
C546 C545 1.366 . S
C546 C547 1.414 1_565 S
C546 C549 1.504 . S
C547 H527 0.950 . S
C547 C546 1.414 1_545 S
C547 C548 1.374 . S
C548 H528 0.950 . S
C548 C544 1.385 1_545 S
C548 C547 1.374 . S
C549 C546 1.504 . S
C549 C550 1.363 1_565 S
C549 C551 1.395 . S
C550 H529 0.950 . S
C550 C549 1.363 1_545 S
C550 C566 1.377 . S
C551 C549 1.395 . S
C551 C552 1.524 . S
C551 C565 1.377 . S
C552 C551 1.524 . S
C552 C553 1.397 . S
C552 C557 1.363 . S
C553 H530 0.950 . S
C553 C552 1.397 . S
C553 C554 1.334 . S
C554 H531 0.950 . S
C554 C553 1.334 . S
C554 C555 1.287 . S
C555 C554 1.287 . S
C555 C556 1.524 . S
C555 H574 0.913 . S
C556 H532 0.950 . S
C556 C555 1.524 . S
C556 C557 1.415 . S
C557 H533 0.950 . S
C557 C552 1.363 . S
C557 C556 1.415 . S
C558 H534 0.951 . S
C558 C559 1.366 . S
C558 C560 1.388 . S
C559 C558 1.366 . S
C559 C563 1.385 1_545 S
C560 H535 0.951 . S
C560 C558 1.388 . S
C560 C561 1.366 . S
C561 C560 1.366 . S
C561 C562 1.414 1_545 S
C561 C564 1.496 1_545 S
C562 H536 0.950 . S
C562 C561 1.414 1_565 S
C562 C563 1.374 . S
C563 H537 0.950 . S
C563 C559 1.385 1_565 S
C563 C562 1.374 . S
C564 C561 1.496 1_565 S
C564 C565 1.379 . S
C564 C566 1.386 1_565 S
C565 H538 0.950 . S
C565 C551 1.377 . S
C565 C564 1.379 . S
C566 C550 1.377 . S
C566 C564 1.386 1_545 S
C566 C567 1.524 . S
C567 C566 1.524 . S
C567 C568 1.397 . S
C567 C572 1.363 . S
C568 H539 0.950 . S
C568 C567 1.397 . S
C568 C569 1.334 . S
C569 H540 0.950 . S
C569 C568 1.334 . S
C569 C570 1.287 . S
C570 C569 1.287 . S
C570 C571 1.524 . S
C570 H573 0.999 . S
C571 H541 0.950 . S
C571 C570 1.524 . S
C571 C572 1.415 . S
C572 H542 0.950 . S
C572 C567 1.363 . S
C572 C571 1.415 . S
H573 C570 0.999 . S
H574 C555 0.913 . S
H575 C593 0.951 . S
H576 C595 0.951 . S
H577 C597 0.948 . S
H578 C598 0.950 . S
H579 C600 0.950 . S
H580 C603 0.950 . S
H581 C604 0.950 . S
H582 C606 0.950 . S
H583 C607 0.950 . S
H584 C608 0.951 . S
H585 C610 0.951 . S
H586 C612 0.950 . S
H587 C613 0.950 . S
H588 C615 0.950 . S
H589 C618 0.950 . S
H590 C619 0.950 . S
H591 C621 0.950 . S
H592 C622 0.956 . S
C593 H575 0.951 . S
C593 C594 1.366 1_556 S
C593 C595 1.388 . S
C594 C593 1.366 1_554 S
C594 C598 1.385 . S
C595 H576 0.951 . S
C595 C593 1.388 . S
C595 C596 1.366 . S
C596 C595 1.366 . S
C596 C597 1.419 1_556 S
C596 C599 1.499 . S
C597 H577 0.948 . S
C597 C596 1.419 1_554 S
C597 C598 1.370 . S
C598 H578 0.950 . S
C598 C594 1.385 . S
C598 C597 1.370 . S
C599 C596 1.499 . S
C599 C600 1.373 . S
C599 C601 1.389 . S
C600 H579 0.950 . S
C600 C599 1.373 . S
C600 C616 1.377 . S
C601 C599 1.389 . S
C601 C602 1.524 . S
C601 C615 1.377 . S
C602 C601 1.524 . S
C602 C603 1.397 . S
C602 C607 1.363 . S
C603 H580 0.950 . S
C603 C602 1.397 . S
C603 C604 1.334 . S
C604 H581 0.950 . S
C604 C603 1.334 . S
C604 C605 1.287 . S
C605 C604 1.287 . S
C605 C606 1.524 . S
C605 H624 0.913 . S
C606 H582 0.950 . S
C606 C605 1.524 . S
C606 C607 1.415 . S
C607 H583 0.950 . S
C607 C602 1.363 . S
C607 C606 1.415 . S
C608 H584 0.951 . S
C608 C609 1.366 . S
C608 C610 1.388 . S
C609 C608 1.366 . S
C609 C613 1.385 . S
C610 H585 0.951 . S
C610 C608 1.388 . S
C610 C611 1.366 . S
C611 C610 1.366 . S
C611 C612 1.414 . S
C611 C614 1.499 . S
C612 H586 0.950 . S
C612 C611 1.414 . S
C612 C613 1.374 . S
C613 H587 0.950 . S
C613 C609 1.385 . S
C613 C612 1.374 . S
C614 C611 1.499 . S
C614 C615 1.373 . S
C614 C616 1.389 . S
C615 H588 0.950 . S
C615 C601 1.377 . S
C615 C614 1.373 . S
C616 C600 1.377 . S
C616 C614 1.389 . S
C616 C617 1.524 . S
C617 C616 1.524 . S
C617 C618 1.397 . S
C617 C622 1.346 1_556 S
C618 H589 0.950 . S
C618 C617 1.397 . S
C618 C619 1.334 . S
C619 H590 0.950 . S
C619 C618 1.334 . S
C619 C620 1.287 1_556 S
C620 C619 1.287 1_554 S
C620 C621 1.524 . S
C620 H623 0.999 . S
C621 H591 0.950 . S
C621 C620 1.524 . S
C621 C622 1.427 . S
C622 H592 0.956 . S
C622 C617 1.346 1_554 S
C622 C621 1.427 . S
H623 C620 0.999 . S
H624 C605 0.913 . S
H625 C643 0.951 . S
H626 C645 0.951 . S
H627 C647 0.950 . S
H628 C648 0.950 . S
H629 C650 0.950 . S
H630 C653 0.950 . S
H631 C654 0.950 . S
H632 C656 0.950 . S
H633 C657 0.950 . S
H634 C658 0.951 . S
H635 C660 0.951 . S
H636 C662 0.950 . S
H637 C663 0.950 . S
H638 C665 0.950 . S
H639 C668 0.950 . S
H640 C669 0.950 . S
H641 C671 0.950 . S
H642 C672 0.950 . S
C643 H625 0.951 . S
C643 C644 1.366 . S
C643 C645 1.388 . S
C644 C643 1.366 . S
C644 C648 1.385 1_455 S
C645 H626 0.951 . S
C645 C643 1.388 . S
C645 C646 1.366 . S
C646 C645 1.366 . S
C646 C647 1.414 1_455 S
C646 C649 1.499 . S
C647 H627 0.950 . S
C647 C646 1.414 1_655 S
C647 C648 1.374 . S
C648 H628 0.950 . S
C648 C644 1.385 1_655 S
C648 C647 1.374 . S
C649 C646 1.499 . S
C649 C650 1.373 1_455 S
C649 C651 1.389 . S
C650 H629 0.950 . S
C650 C649 1.373 1_655 S
C650 C666 1.377 . S
C651 C649 1.389 . S
C651 C652 1.524 . S
C651 C665 1.377 . S
C652 C651 1.524 . S
C652 C653 1.397 . S
C652 C657 1.363 . S
C653 H630 0.950 . S
C653 C652 1.397 . S
C653 C654 1.334 . S
C654 H631 0.950 . S
C654 C653 1.334 . S
C654 C655 1.287 . S
C655 C654 1.287 . S
C655 C656 1.524 . S
C655 H674 0.913 . S
C656 H632 0.950 . S
C656 C655 1.524 . S
C656 C657 1.415 . S
C657 H633 0.950 . S
C657 C652 1.363 . S
C657 C656 1.415 . S
C658 H634 0.951 . S
C658 C659 1.366 1_655 S
C658 C660 1.388 . S
C659 C658 1.366 1_455 S
C659 C663 1.385 . S
C660 H635 0.951 . S
C660 C658 1.388 . S
C660 C661 1.366 1_655 S
C661 C660 1.366 1_455 S
C661 C662 1.414 . S
C661 C664 1.499 . S
C662 H636 0.950 . S
C662 C661 1.414 . S
C662 C663 1.374 . S
C663 H637 0.950 . S
C663 C659 1.385 . S
C663 C662 1.374 . S
C664 C661 1.499 . S
C664 C665 1.373 . S
C664 C666 1.389 1_455 S
C665 H638 0.950 . S
C665 C651 1.377 . S
C665 C664 1.373 . S
C666 C650 1.377 . S
C666 C664 1.389 1_655 S
C666 C667 1.524 . S
C667 C666 1.524 . S
C667 C668 1.397 . S
C667 C672 1.363 . S
C668 H639 0.950 . S
C668 C667 1.397 . S
C668 C669 1.334 . S
C669 H640 0.950 . S
C669 C668 1.334 . S
C669 C670 1.287 . S
C670 C669 1.287 . S
C670 C671 1.524 . S
C670 H673 0.999 . S
C671 H641 0.950 . S
C671 C670 1.524 . S
C671 C672 1.415 . S
C672 H642 0.950 . S
C672 C667 1.363 . S
C672 C671 1.415 . S
H673 C670 0.999 . S
H674 C655 0.913 . S
H675 C693 0.950 1_565 S
H676 C695 0.962 . S
H677 C697 0.950 . S
H678 C698 0.950 . S
H679 C700 0.950 . S
H680 C703 0.950 . S
H681 C704 0.950 . S
H682 C706 0.950 . S
H683 C707 0.950 . S
H684 C708 0.951 . S
H685 C710 0.951 . S
H686 C712 0.950 . S
H687 C713 0.967 . S
H688 C715 0.950 . S
H689 C718 0.950 . S
H690 C719 0.950 . S
H691 C721 0.950 . S
H692 C722 0.950 . S
C693 H675 0.950 1_545 S
C693 C694 1.366 . S
C693 C695 1.388 . S
C694 C693 1.366 . S
C694 C698 1.385 . S
C695 H676 0.962 . S
C695 C693 1.388 . S
C695 C696 1.366 . S
C696 C695 1.366 . S
C696 C697 1.414 . S
C696 C699 1.499 . S
C697 H677 0.950 . S
C697 C696 1.414 . S
C697 C698 1.374 . S
C698 H678 0.950 . S
C698 C694 1.385 . S
C698 C697 1.374 . S
C699 C696 1.499 . S
C699 C700 1.373 1_545 S
C699 C701 1.389 . S
C700 H679 0.950 . S
C700 C699 1.373 1_565 S
C700 C716 1.377 . S
C701 C699 1.389 . S
C701 C702 1.524 . S
C701 C715 1.377 . S
C702 C701 1.524 . S
C702 C703 1.397 . S
C702 C707 1.363 . S
C703 H680 0.950 . S
C703 C702 1.397 . S
C703 C704 1.334 . S
C704 H681 0.950 . S
C704 C703 1.334 . S
C704 C705 1.287 . S
C705 C704 1.287 . S
C705 C706 1.524 . S
C705 H724 0.913 . S
C706 H682 0.950 . S
C706 C705 1.524 . S
C706 C707 1.415 . S
C707 H683 0.950 . S
C707 C702 1.363 . S
C707 C706 1.415 . S
C708 H684 0.951 . S
C708 C709 1.366 . S
C708 C710 1.388 . S
C709 C708 1.366 . S
C709 C713 1.382 1_545 S
C710 H685 0.951 . S
C710 C708 1.388 . S
C710 C711 1.367 . S
C711 C710 1.367 . S
C711 C712 1.405 1_545 S
C711 C714 1.498 . S
C712 H686 0.950 . S
C712 C711 1.405 1_565 S
C712 C713 1.360 . S
C713 H687 0.967 . S
C713 C709 1.382 1_565 S
C713 C712 1.360 . S
C714 C711 1.498 . S
C714 C715 1.386 . S
C714 C716 1.387 1_545 S
C715 H688 0.950 . S
C715 C701 1.377 . S
C715 C714 1.386 . S
C716 C700 1.377 . S
C716 C714 1.387 1_565 S
C716 C717 1.524 . S
C717 C716 1.524 . S
C717 C718 1.397 . S
C717 C722 1.363 . S
C718 H689 0.950 . S
C718 C717 1.397 . S
C718 C719 1.334 . S
C719 H690 0.950 . S
C719 C718 1.334 . S
C719 C720 1.287 . S
C720 C719 1.287 . S
C720 C721 1.524 . S
C720 H723 0.999 . S
C721 H691 0.950 . S
C721 C720 1.524 . S
C721 C722 1.415 . S
C722 H692 0.950 . S
C722 C717 1.363 . S
C722 C721 1.415 . S
H723 C720 0.999 . S
H724 C705 0.913 . S
H725 C743 0.951 . S
H726 C745 0.951 . S
H727 C747 0.950 . S
H728 C748 0.950 . S
H729 C750 0.950 . S
H730 C753 0.950 . S
H731 C754 0.950 . S
H732 C756 0.950 . S
H733 C757 0.950 . S
H734 C758 0.951 . S
H735 C760 0.951 . S
H736 C762 0.950 . S
H737 C763 0.950 . S
H738 C765 0.950 . S
H739 C768 0.950 . S
H740 C769 0.950 . S
H741 C771 0.950 . S
H742 C772 0.950 . S
C743 H725 0.951 . S
C743 C744 1.366 . S
C743 C745 1.388 1_554 S
C744 C743 1.366 . S
C744 C748 1.385 1_554 S
C745 H726 0.951 . S
C745 C743 1.388 1_556 S
C745 C746 1.366 . S
C746 C745 1.366 . S
C746 C747 1.414 . S
C746 C749 1.499 . S
C747 H727 0.950 . S
C747 C746 1.414 . S
C747 C748 1.374 . S
C748 H728 0.950 . S
C748 C744 1.385 1_556 S
C748 C747 1.374 . S
C749 C746 1.499 . S
C749 C750 1.373 . S
C749 C751 1.389 . S
C750 H729 0.950 . S
C750 C749 1.373 . S
C750 C766 1.377 . S
C751 C749 1.389 . S
C751 C752 1.524 . S
C751 C765 1.377 . S
C752 C751 1.524 . S
C752 C753 1.397 . S
C752 C757 1.363 . S
C753 H730 0.950 . S
C753 C752 1.397 . S
C753 C754 1.334 . S
C754 H731 0.950 . S
C754 C753 1.334 . S
C754 C755 1.287 . S
C755 C754 1.287 . S
C755 C756 1.524 . S
C755 H774 0.913 . S
C756 H732 0.950 . S
C756 C755 1.524 . S
C756 C757 1.415 . S
C757 H733 0.950 . S
C757 C752 1.363 . S
C757 C756 1.415 . S
C758 H734 0.951 . S
C758 C759 1.366 . S
C758 C760 1.388 . S
C759 C758 1.366 . S
C759 C763 1.385 . S
C760 H735 0.951 . S
C760 C758 1.388 . S
C760 C761 1.366 . S
C761 C760 1.366 . S
C761 C762 1.414 . S
C761 C764 1.499 . S
C762 H736 0.950 . S
C762 C761 1.414 . S
C762 C763 1.374 . S
C763 H737 0.950 . S
C763 C759 1.385 . S
C763 C762 1.374 . S
C764 C761 1.499 . S
C764 C765 1.373 . S
C764 C766 1.389 . S
C765 H738 0.950 . S
C765 C751 1.377 . S
C765 C764 1.373 . S
C766 C750 1.377 . S
C766 C764 1.389 . S
C766 C767 1.524 . S
C767 C766 1.524 . S
C767 C768 1.397 . S
C767 C772 1.363 . S
C768 H739 0.950 . S
C768 C767 1.397 . S
C768 C769 1.334 . S
C769 H740 0.950 . S
C769 C768 1.334 . S
C769 C770 1.287 . S
C770 C769 1.287 . S
C770 C771 1.524 . S
C770 H773 0.999 . S
C771 H741 0.950 . S
C771 C770 1.524 . S
C771 C772 1.415 . S
C772 H742 0.950 . S
C772 C767 1.363 . S
C772 C771 1.415 . S
H773 C770 0.999 . S
H774 C755 0.913 . S
H775 C793 0.951 . S
H776 C795 0.951 . S
H777 C797 0.950 . S
H778 C798 0.950 . S
H779 C800 0.950 . S
H780 C803 0.950 . S
H781 C804 0.950 . S
H782 C806 0.950 . S
H783 C807 0.950 . S
H784 C808 0.951 . S
H785 C810 0.951 . S
H786 C812 0.950 . S
H787 C813 0.950 . S
H788 C815 0.950 . S
H789 C818 0.950 . S
H790 C819 0.950 . S
H791 C821 0.950 . S
H792 C822 0.950 . S
C793 H775 0.951 . S
C793 C794 1.366 . S
C793 C795 1.388 . S
C794 C793 1.366 . S
C794 C798 1.385 1_655 S
C795 H776 0.951 . S
C795 C793 1.388 . S
C795 C796 1.366 . S
C796 C795 1.366 . S
C796 C797 1.414 1_655 S
C796 C799 1.499 . S
C797 H777 0.950 . S
C797 C796 1.414 1_455 S
C797 C798 1.374 . S
C798 H778 0.950 . S
C798 C794 1.385 1_455 S
C798 C797 1.374 . S
C799 C796 1.499 . S
C799 C800 1.373 1_655 S
C799 C801 1.389 . S
C800 H779 0.950 . S
C800 C799 1.373 1_455 S
C800 C816 1.377 . S
C801 C799 1.389 . S
C801 C802 1.524 . S
C801 C815 1.377 . S
C802 C801 1.524 . S
C802 C803 1.397 . S
C802 C807 1.363 . S
C803 H780 0.950 . S
C803 C802 1.397 . S
C803 C804 1.334 . S
C804 H781 0.950 . S
C804 C803 1.334 . S
C804 C805 1.287 . S
C805 C804 1.287 . S
C805 C806 1.524 . S
C805 H824 0.913 . S
C806 H782 0.950 . S
C806 C805 1.524 . S
C806 C807 1.415 . S
C807 H783 0.950 . S
C807 C802 1.363 . S
C807 C806 1.415 . S
C808 H784 0.951 . S
C808 C809 1.366 . S
C808 C810 1.388 . S
C809 C808 1.366 . S
C809 C813 1.385 1_455 S
C810 H785 0.951 . S
C810 C808 1.388 . S
C810 C811 1.366 . S
C811 C810 1.366 . S
C811 C812 1.414 1_455 S
C811 C814 1.499 . S
C812 H786 0.950 . S
C812 C811 1.414 1_655 S
C812 C813 1.374 . S
C813 H787 0.950 . S
C813 C809 1.385 1_655 S
C813 C812 1.374 . S
C814 C811 1.499 . S
C814 C815 1.373 1_455 S
C814 C816 1.389 . S
C815 H788 0.950 . S
C815 C801 1.377 . S
C815 C814 1.373 1_655 S
C816 C800 1.377 . S
C816 C814 1.389 . S
C816 C817 1.524 . S
C817 C816 1.524 . S
C817 C818 1.397 . S
C817 C822 1.363 . S
C818 H789 0.950 . S
C818 C817 1.397 . S
C818 C819 1.334 . S
C819 H790 0.950 . S
C819 C818 1.334 . S
C819 C820 1.287 . S
C820 C819 1.287 . S
C820 C821 1.524 . S
C820 H823 0.999 . S
C821 H791 0.950 . S
C821 C820 1.524 . S
C821 C822 1.415 . S
C822 H792 0.950 . S
C822 C817 1.363 . S
C822 C821 1.415 . S
H823 C820 0.999 . S
H824 C805 0.913 . S
C259 C92 1.389 . S
C244 C10 1.396 . S
C294 C17 1.396 . S
C309 C136 1.377 . S
C344 C36 1.397 . S
C359 C198 1.379 . S
C394 C5 1.396 1_455 S
C409 C74 1.370 . S
C459 C154 1.379 . S
C444 C16 1.397 1_545 S
C494 C31 1.396 . S
C509 C216 1.377 . S
C559 C130 1.660 . S
C544 C30 1.775 . S
C594 C3 1.776 . S
C609 C192 1.659 . S
C659 C68 1.661 1_455 S
C644 C18 1.777 . S
C709 C148 1.659 . S
C694 C29 1.777 . S
C759 C210 1.659 . S
C744 C4 1.776 . S
C794 C23 1.775 . S
C809 C86 1.659 1_455 S
