# Generated by pormake.
# Topology pyr, (3,6)-cn, num edge types: 1
# Building blocks:
#     Node 0, Type 0, BuildingBlock: KAKCAD_clean_linker_0, # of connection points: 3
#     Node 1, Type 0, BuildingBlock: KAKCAD_clean_linker_0, # of connection points: 3
#     Node 2, Type 0, BuildingBlock: KAKCAD_clean_linker_0, # of connection points: 3
#     Node 3, Type 0, BuildingBlock: KAKCAD_clean_linker_0, # of connection points: 3
#     Node 4, Type 0, BuildingBlock: KAKCAD_clean_linker_0, # of connection points: 3
#     Node 5, Type 0, BuildingBlock: KAKCAD_clean_linker_0, # of connection points: 3
#     Node 6, Type 0, BuildingBlock: KAKCAD_clean_linker_0, # of connection points: 3
#     Node 7, Type 0, BuildingBlock: KAKCAD_clean_linker_0, # of connection points: 3
#     Node 8, Type 1, BuildingBlock: JUFBIX_clean_sbu_0, # of connection points: 6
#     Node 9, Type 1, BuildingBlock: JUFBIX_clean_sbu_0, # of connection points: 6
#     Node 10, Type 1, BuildingBlock: JUFBIX_clean_sbu_0, # of connection points: 6
#     Node 11, Type 1, BuildingBlock: JUFBIX_clean_sbu_0, # of connection points: 6
#     Edge 12, Type (0, 1), BuildingBlock: XUDNAN_clean_linker_2, # of connection points: 2
#     Edge 13, Type (0, 1), BuildingBlock: XUDNAN_clean_linker_2, # of connection points: 2
#     Edge 14, Type (0, 1), BuildingBlock: XUDNAN_clean_linker_2, # of connection points: 2
#     Edge 15, Type (0, 1), BuildingBlock: XUDNAN_clean_linker_2, # of connection points: 2
#     Edge 16, Type (0, 1), BuildingBlock: XUDNAN_clean_linker_2, # of connection points: 2
#     Edge 17, Type (0, 1), BuildingBlock: XUDNAN_clean_linker_2, # of connection points: 2
#     Edge 18, Type (0, 1), BuildingBlock: XUDNAN_clean_linker_2, # of connection points: 2
#     Edge 19, Type (0, 1), BuildingBlock: XUDNAN_clean_linker_2, # of connection points: 2
#     Edge 20, Type (0, 1), BuildingBlock: XUDNAN_clean_linker_2, # of connection points: 2
#     Edge 21, Type (0, 1), BuildingBlock: XUDNAN_clean_linker_2, # of connection points: 2
#     Edge 22, Type (0, 1), BuildingBlock: XUDNAN_clean_linker_2, # of connection points: 2
#     Edge 23, Type (0, 1), BuildingBlock: XUDNAN_clean_linker_2, # of connection points: 2
#     Edge 24, Type (0, 1), BuildingBlock: XUDNAN_clean_linker_2, # of connection points: 2
#     Edge 25, Type (0, 1), BuildingBlock: XUDNAN_clean_linker_2, # of connection points: 2
#     Edge 26, Type (0, 1), BuildingBlock: XUDNAN_clean_linker_2, # of connection points: 2
#     Edge 27, Type (0, 1), BuildingBlock: XUDNAN_clean_linker_2, # of connection points: 2
#     Edge 28, Type (0, 1), BuildingBlock: XUDNAN_clean_linker_2, # of connection points: 2
#     Edge 29, Type (0, 1), BuildingBlock: XUDNAN_clean_linker_2, # of connection points: 2
#     Edge 30, Type (0, 1), BuildingBlock: XUDNAN_clean_linker_2, # of connection points: 2
#     Edge 31, Type (0, 1), BuildingBlock: XUDNAN_clean_linker_2, # of connection points: 2
#     Edge 32, Type (0, 1), BuildingBlock: XUDNAN_clean_linker_2, # of connection points: 2
#     Edge 33, Type (0, 1), BuildingBlock: XUDNAN_clean_linker_2, # of connection points: 2
#     Edge 34, Type (0, 1), BuildingBlock: XUDNAN_clean_linker_2, # of connection points: 2
#     Edge 35, Type (0, 1), BuildingBlock: XUDNAN_clean_linker_2, # of connection points: 2
# Relax obj value: 0.047
# Max RMSD: 0.093
# Mean RMSD: 0.033
data_MOF--net-pry--node1-JUFBIX_clean_sbu_0--node2-KAKCAD_clean_linker_0--edge1-XUDNAN_clean_linker_2
_symmetry_space_group_name_H-M    P1
_symmetry_Int_Tables_number       1
_symmetry_cell_setting            triclinic
loop_
_symmetry_equiv_pos_as_xyz
'x, y, z'
_cell_length_a     46.091095
_cell_length_b     43.855687
_cell_length_c     45.90635
_cell_angle_alpha  85.492739
_cell_angle_beta   90.341315
_cell_angle_gamma 91.690321
loop_
_atom_site_label
_atom_site_type_symbol
_atom_site_fract_x
_atom_site_fract_y
_atom_site_fract_z
_atom_type_partial_charge
C0 C 0.13326 0.11465 0.26399 0.0
C1 C 0.15166 0.10984 0.28852 0.0
C2 C 0.14413 0.12711 0.23684 0.0
C3 C 0.17387 0.13477 0.23303 0.0
C4 C 0.19235 0.12978 0.25728 0.0
C5 C 0.18143 0.11791 0.28455 0.0
C6 C 0.18523 0.14929 0.20431 0.0
C7 C 0.17056 0.17393 0.19001 0.0
C8 C 0.18039 0.18848 0.16321 0.0
C9 C 0.2058 0.17776 0.15073 0.0
C10 C 0.221 0.15255 0.1641 0.0
C11 C 0.21045 0.13886 0.19121 0.0
C12 C 0.24695 0.13987 0.14911 0.0
C13 C 0.24873 0.1415 0.11836 0.0
C14 C 0.26991 0.12548 0.16496 0.0
C15 C 0.29322 0.11269 0.15059 0.0
C16 C 0.29447 0.11382 0.11982 0.0
C17 C 0.16363 0.21462 0.1485 0.0
C18 C 0.13308 0.21428 0.14985 0.0
C19 C 0.17763 0.24049 0.13387 0.0
C20 C 0.16162 0.26559 0.12212 0.0
C21 C 0.13117 0.26563 0.12481 0.0
C22 C 0.11721 0.23929 0.13835 0.0
C23 C 0.27202 0.12909 0.10412 0.0
H24 H 0.11039 0.10846 0.26548 0.0
H25 H 0.12921 0.13048 0.21864 0.0
H26 H 0.21524 0.13588 0.25539 0.0
H27 H 0.19653 0.11564 0.30266 0.0
H28 H 0.15166 0.18237 0.20037 0.0
H29 H 0.2212 0.11932 0.20178 0.0
H30 H 0.21352 0.189 0.13031 0.0
H31 H 0.23171 0.15175 0.10492 0.0
H32 H 0.26999 0.124 0.1886 0.0
H33 H 0.30986 0.10123 0.16368 0.0
H34 H 0.12122 0.19462 0.16004 0.0
H35 H 0.20107 0.24187 0.13236 0.0
H36 H 0.27216 0.13137 0.08047 0.0
H37 H 0.09379 0.23806 0.14033 0.0
H38 H 0.17319 0.28546 0.11197 0.0
C39 C 0.42844 0.94331 0.71097 0.0
C40 C 0.45863 0.94773 0.71208 0.0
C41 C 0.41601 0.92153 0.69396 0.0
C42 C 0.4334 0.90397 0.67701 0.0
C43 C 0.46378 0.90844 0.67806 0.0
C44 C 0.47632 0.92999 0.69572 0.0
C45 C 0.41944 0.88077 0.65905 0.0
C46 C 0.39208 0.88636 0.64631 0.0
C47 C 0.37676 0.86355 0.63254 0.0
C48 C 0.38931 0.83536 0.63002 0.0
C49 C 0.41659 0.82915 0.6425 0.0
C50 C 0.43177 0.85204 0.65674 0.0
C51 C 0.42775 0.79787 0.64242 0.0
C52 C 0.40887 0.77256 0.64892 0.0
C53 C 0.4565 0.79294 0.63451 0.0
C54 C 0.4657 0.76319 0.63161 0.0
C55 C 0.44629 0.73797 0.6367 0.0
C56 C 0.34614 0.86775 0.62449 0.0
C57 C 0.32603 0.87243 0.64639 0.0
C58 C 0.33669 0.86644 0.59551 0.0
C59 C 0.30748 0.8708 0.5884 0.0
C60 C 0.2874 0.87565 0.61036 0.0
C61 C 0.29684 0.87611 0.63942 0.0
C62 C 0.41796 0.74301 0.64595 0.0
H63 H 0.41437 0.95604 0.72411 0.0
H64 H 0.39266 0.91805 0.69475 0.0
H65 H 0.47782 0.89539 0.66524 0.0
H66 H 0.49973 0.93284 0.69659 0.0
H67 H 0.38209 0.90825 0.64773 0.0
H68 H 0.45225 0.8468 0.66742 0.0
H69 H 0.37716 0.81775 0.61944 0.0
H70 H 0.38672 0.77566 0.65564 0.0
H71 H 0.47151 0.81208 0.6295 0.0
H72 H 0.48779 0.76 0.62481 0.0
H73 H 0.33296 0.87318 0.66894 0.0
H74 H 0.35197 0.86267 0.57841 0.0
H75 H 0.40228 0.72426 0.64972 0.0
H76 H 0.28178 0.88025 0.65661 0.0
H77 H 0.30057 0.87056 0.56582 0.0
C78 C 0.7593 0.42498 0.90041 0.0
C79 C 0.78295 0.40694 0.90961 0.0
C80 C 0.73599 0.41258 0.88492 0.0
C81 C 0.73551 0.38167 0.87875 0.0
C82 C 0.75938 0.36379 0.88752 0.0
C83 C 0.78291 0.37634 0.90252 0.0
C84 C 0.70975 0.36758 0.86441 0.0
C85 C 0.69776 0.3813 0.83855 0.0
C86 C 0.67384 0.36751 0.8247 0.0
C87 C 0.66235 0.33923 0.83719 0.0
C88 C 0.67375 0.32511 0.86341 0.0
C89 C 0.69722 0.34007 0.87687 0.0
C90 C 0.66161 0.29483 0.87679 0.0
C91 C 0.63263 0.28498 0.87212 0.0
C92 C 0.67909 0.27533 0.8948 0.0
C93 C 0.66797 0.24782 0.90828 0.0
C94 C 0.63925 0.23749 0.90318 0.0
C95 C 0.66103 0.38266 0.79721 0.0
C96 C 0.65968 0.41478 0.7932 0.0
C97 C 0.65012 0.36538 0.77467 0.0
C98 C 0.63859 0.37979 0.74889 0.0
C99 C 0.63797 0.41188 0.74475 0.0
C100 C 0.64849 0.42913 0.76736 0.0
C101 C 0.6218 0.25665 0.88469 0.0
H102 H 0.75875 0.4487 0.90537 0.0
H103 H 0.71792 0.42691 0.87856 0.0
H104 H 0.75974 0.33995 0.88293 0.0
H105 H 0.80067 0.36178 0.9094 0.0
H106 H 0.70763 0.40239 0.82885 0.0
H107 H 0.70571 0.3308 0.89761 0.0
H108 H 0.64441 0.32831 0.82639 0.0
H109 H 0.61796 0.29913 0.85894 0.0
H110 H 0.70171 0.28096 0.89864 0.0
H111 H 0.68232 0.23494 0.92296 0.0
H112 H 0.66712 0.42899 0.81015 0.0
H113 H 0.65106 0.34068 0.77655 0.0
H114 H 0.59972 0.24993 0.87959 0.0
H115 H 0.64794 0.45388 0.76513 0.0
H116 H 0.63096 0.36581 0.73183 0.0
C117 C 0.88005 0.64489 0.28407 0.0
C118 C 0.9046 0.63095 0.27387 0.0
C119 C 0.87999 0.65504 0.31216 0.0
C120 C 0.90463 0.65179 0.33023 0.0
C121 C 0.92949 0.63878 0.31961 0.0
C122 C 0.92942 0.62828 0.29173 0.0
C123 C 0.90406 0.66094 0.36048 0.0
C124 C 0.8808 0.65138 0.37874 0.0
C125 C 0.8798 0.65993 0.40747 0.0
C126 C 0.90224 0.67838 0.41796 0.0
C127 C 0.92544 0.68878 0.39966 0.0
C128 C 0.92647 0.67939 0.3711 0.0
C129 C 0.94667 0.71201 0.4093 0.0
C130 C 0.95432 0.73764 0.39029 0.0
C131 C 0.95735 0.7103 0.43812 0.0
C132 C 0.97401 0.73451 0.44815 0.0
C133 C 0.98016 0.76086 0.42954 0.0
C134 C 0.85429 0.65085 0.42567 0.0
C135 C 0.82644 0.65698 0.4147 0.0
C136 C 0.85739 0.63482 0.45315 0.0
C137 C 0.8328 0.62394 0.46892 0.0
C138 C 0.80491 0.62953 0.45757 0.0
C139 C 0.80199 0.64654 0.43054 0.0
C140 C 0.97091 0.76177 0.40031 0.0
H141 H 0.86071 0.64716 0.27064 0.0
H142 H 0.86064 0.66529 0.31985 0.0
H143 H 0.94869 0.63595 0.33317 0.0
H144 H 0.94873 0.61788 0.28414 0.0
H145 H 0.86349 0.63696 0.37068 0.0
H146 H 0.9443 0.68714 0.35682 0.0
H147 H 0.90068 0.68602 0.43978 0.0
H148 H 0.94624 0.73984 0.36805 0.0
H149 H 0.95206 0.69066 0.45315 0.0
H150 H 0.98077 0.73327 0.47084 0.0
H151 H 0.82359 0.66945 0.3936 0.0
H152 H 0.87876 0.62983 0.46191 0.0
H153 H 0.97562 0.78169 0.38542 0.0
H154 H 0.78076 0.6508 0.42108 0.0
H155 H 0.83555 0.61087 0.48972 0.0
C156 C 0.89433 0.88005 0.75451 0.0
C157 C 0.88979 0.9112 0.74671 0.0
C158 C 0.88295 0.8656 0.78066 0.0
C159 C 0.86709 0.88193 0.80034 0.0
C160 C 0.86315 0.91335 0.79265 0.0
C161 C 0.87407 0.92761 0.76624 0.0
C162 C 0.85469 0.86623 0.82846 0.0
C163 C 0.86854 0.84098 0.84281 0.0
C164 C 0.85657 0.82436 0.86781 0.0
C165 C 0.83104 0.83534 0.87999 0.0
C166 C 0.81702 0.8615 0.86707 0.0
C167 C 0.82882 0.87598 0.84084 0.0
C168 C 0.7899 0.87368 0.88039 0.0
C169 C 0.76958 0.85436 0.89651 0.0
C170 C 0.78373 0.90513 0.87662 0.0
C171 C 0.75791 0.91647 0.88717 0.0
C172 C 0.73748 0.89708 0.90259 0.0
C173 C 0.87052 0.79507 0.88007 0.0
C174 C 0.88532 0.77686 0.86136 0.0
C175 C 0.86923 0.78461 0.91 0.0
C176 C 0.88201 0.7569 0.92054 0.0
C177 C 0.89665 0.73877 0.90156 0.0
C178 C 0.89846 0.74977 0.8719 0.0
C179 C 0.74391 0.86593 0.9076 0.0
H180 H 0.90594 0.86653 0.7399 0.0
H181 H 0.88613 0.84132 0.78498 0.0
H182 H 0.85177 0.9272 0.8071 0.0
H183 H 0.87033 0.95172 0.76117 0.0
H184 H 0.88913 0.83434 0.83453 0.0
H185 H 0.81733 0.89453 0.8295 0.0
H186 H 0.82198 0.82337 0.89948 0.0
H187 H 0.77289 0.83002 0.89985 0.0
H188 H 0.7988 0.92127 0.86533 0.0
H189 H 0.75376 0.94061 0.88298 0.0
H190 H 0.88655 0.7831 0.83812 0.0
H191 H 0.85847 0.79782 0.92545 0.0
H192 H 0.72849 0.85024 0.91905 0.0
H193 H 0.91012 0.73744 0.85639 0.0
H194 H 0.8799 0.74949 0.9435 0.0
C195 C 0.60225 0.08473 0.31081 0.0
C196 C 0.59704 0.10589 0.28683 0.0
C197 C 0.60537 0.09449 0.33895 0.0
C198 C 0.60377 0.12569 0.34371 0.0
C199 C 0.59809 0.14671 0.31975 0.0
C200 C 0.59444 0.1369 0.2918 0.0
C201 C 0.60978 0.13671 0.37304 0.0
C202 C 0.63179 0.12367 0.39086 0.0
C203 C 0.64021 0.1364 0.41686 0.0
C204 C 0.62631 0.16248 0.42501 0.0
C205 C 0.60472 0.17614 0.4072 0.0
C206 C 0.59585 0.16248 0.3819 0.0
C207 C 0.59467 0.20694 0.41269 0.0
C208 C 0.58847 0.21448 0.44113 0.0
C209 C 0.59392 0.2299 0.38956 0.0
C210 C 0.58811 0.25996 0.39486 0.0
C211 C 0.5829 0.26772 0.42339 0.0
C212 C 0.66592 0.12476 0.43337 0.0
C213 C 0.67074 0.0932 0.4374 0.0
C214 C 0.68696 0.14539 0.44334 0.0
C215 C 0.71259 0.13479 0.45622 0.0
C216 C 0.71787 0.10334 0.45927 0.0
C217 C 0.69652 0.08258 0.45016 0.0
C218 C 0.58253 0.24461 0.44643 0.0
H219 H 0.60464 0.06069 0.30784 0.0
H220 H 0.60938 0.0776 0.3569 0.0
H221 H 0.59724 0.17099 0.3223 0.0
H222 H 0.5898 0.15379 0.27403 0.0
H223 H 0.64381 0.10487 0.38351 0.0
H224 H 0.57874 0.17275 0.36852 0.0
H225 H 0.63344 0.17314 0.44443 0.0
H226 H 0.5888 0.19721 0.45933 0.0
H227 H 0.59902 0.22493 0.36745 0.0
H228 H 0.58815 0.27725 0.37665 0.0
H229 H 0.65479 0.07673 0.43023 0.0
H230 H 0.68428 0.16987 0.44003 0.0
H231 H 0.57869 0.25 0.46868 0.0
H232 H 0.69995 0.05818 0.45251 0.0
H233 H 0.72886 0.15137 0.46254 0.0
C234 C 0.23987 0.61757 0.13982 0.0
C235 C 0.24456 0.6015 0.11487 0.0
C236 C 0.26339 0.62844 0.15616 0.0
C237 C 0.29206 0.62364 0.14783 0.0
C238 C 0.29681 0.60696 0.12355 0.0
C239 C 0.27345 0.59578 0.10749 0.0
C240 C 0.31717 0.63837 0.16231 0.0
C241 C 0.32746 0.6269 0.18976 0.0
C242 C 0.3529 0.63955 0.20198 0.0
C243 C 0.36783 0.66404 0.18606 0.0
C244 C 0.35751 0.67628 0.15864 0.0
C245 C 0.3319 0.66321 0.14733 0.0
C246 C 0.3733 0.7023 0.14143 0.0
C247 C 0.38927 0.72503 0.15525 0.0
C248 C 0.37204 0.70495 0.11067 0.0
C249 C 0.38527 0.72978 0.0944 0.0
C250 C 0.4014 0.75249 0.10805 0.0
C251 C 0.36401 0.62687 0.23114 0.0
C252 C 0.34473 0.61896 0.25433 0.0
C253 C 0.39384 0.62234 0.23607 0.0
C254 C 0.40399 0.6097 0.2632 0.0
C255 C 0.38461 0.6013 0.28627 0.0
C256 C 0.35486 0.60653 0.28145 0.0
C257 C 0.40333 0.74952 0.13884 0.0
H258 H 0.2181 0.62275 0.14619 0.0
H259 H 0.2592 0.64155 0.17465 0.0
H260 H 0.31875 0.60298 0.1167 0.0
H261 H 0.27816 0.58285 0.08903 0.0
H262 H 0.31617 0.6075 0.20113 0.0
H263 H 0.32298 0.67234 0.12669 0.0
H264 H 0.38757 0.67345 0.19511 0.0
H265 H 0.39069 0.7243 0.17883 0.0
H266 H 0.36082 0.68779 0.09878 0.0
H267 H 0.38234 0.73111 0.07095 0.0
H268 H 0.3217 0.62264 0.25161 0.0
H269 H 0.40935 0.62786 0.21868 0.0
H270 H 0.41581 0.76597 0.15049 0.0
H271 H 0.33922 0.60115 0.29873 0.0
H272 H 0.42697 0.60578 0.2658 0.0
C273 C 0.06432 0.28666 0.56915 0.0
C274 C 0.03761 0.27883 0.58267 0.0
C275 C 0.08004 0.31277 0.57611 0.0
C276 C 0.06926 0.33182 0.59656 0.0
C277 C 0.04149 0.32514 0.60842 0.0
C278 C 0.02591 0.29877 0.60169 0.0
C279 C 0.08837 0.35616 0.60787 0.0
C280 C 0.10838 0.37286 0.58939 0.0
C281 C 0.12982 0.39203 0.60087 0.0
C282 C 0.13027 0.39536 0.63106 0.0
C283 C 0.10996 0.37966 0.64967 0.0
C284 C 0.08906 0.36015 0.63798 0.0
C285 C 0.11138 0.38271 0.68154 0.0
C286 C 0.138 0.38087 0.69659 0.0
C287 C 0.08612 0.38804 0.69699 0.0
C288 C 0.08751 0.39209 0.7268 0.0
C289 C 0.11415 0.39052 0.74194 0.0
C290 C 0.15383 0.40578 0.58228 0.0
C291 C 0.16671 0.38869 0.56136 0.0
C292 C 0.16647 0.43434 0.58789 0.0
C293 C 0.19282 0.44415 0.57505 0.0
C294 C 0.20651 0.42599 0.55579 0.0
C295 C 0.1928 0.39884 0.54809 0.0
C296 C 0.13938 0.38467 0.72651 0.0
H297 H 0.07406 0.27149 0.55471 0.0
H298 H 0.10149 0.31683 0.56685 0.0
H299 H 0.03228 0.33965 0.62379 0.0
H300 H 1.0052 0.29336 0.61219 0.0
H301 H 0.10778 0.37029 0.56612 0.0
H302 H 0.07445 0.34676 0.65269 0.0
H303 H 0.14701 0.40952 0.64038 0.0
H304 H 0.15776 0.37634 0.68522 0.0
H305 H 0.06539 0.3899 0.68584 0.0
H306 H 0.06773 0.39727 0.73779 0.0
H307 H 0.15783 0.36645 0.5567 0.0
H308 H 0.15678 0.44842 0.60335 0.0
H309 H 0.16016 0.38298 0.73755 0.0
H310 H 0.20329 0.38442 0.53345 0.0
H311 H 0.20318 0.46523 0.58115 0.0
Co312 Co 0.99799 0.01988 0.50392 0.0
C313 C 0.02017 0.96204 0.501 0.0
Co314 Co 0.03662 0.01138 0.53129 0.0
C315 C 0.93945 0.0364 0.49397 0.0
C316 C 0.95719 0.01888 0.45592 0.0
N317 N 0.96382 0.0252 0.48346 0.0
N318 N 0.9177 0.03745 0.47418 0.0
C319 C 0.92879 0.02639 0.45012 0.0
H320 H 0.9377 0.04324 0.516 0.0
H321 H 0.97202 0.00942 0.44107 0.0
C322 C 0.01385 0.06895 0.53456 0.0
N323 N 0.07105 0.00681 0.55164 0.0
C324 C 0.08375 0.98075 0.56186 0.0
C325 C 0.09132 0.02918 0.55475 0.0
N326 N 0.11129 0.98599 0.57056 0.0
C327 C 0.11609 0.01642 0.56631 0.0
C328 C 0.04769 0.03627 0.47256 0.0
O329 O 0.9962 0.06035 0.51539 0.0
O330 O 0.03318 0.05099 0.54462 0.0
O331 O 0.05859 0.02793 0.49742 0.0
O332 O 0.0202 0.03489 0.46975 0.0
O333 O 0.03937 0.97178 0.51816 0.0
H334 H 0.08895 0.05299 0.5473 0.0
H335 H 0.07385 0.95816 0.56085 0.0
O336 O 0.99977 0.97942 0.49234 0.0
O337 O 0.97603 1.00473 0.53859 0.0
O338 O 0.01486 0.99459 0.56485 0.0
C339 C 0.9873 0.99461 0.56279 0.0
H340 H 0.91742 0.02422 0.42967 0.0
H341 H 0.13653 0.02837 0.56995 0.0
Co342 Co 0.50023 1.00126 0.98456 0.0
C343 C 0.487 0.94733 0.01884 0.0
Co344 Co 0.522 0.99858 0.02723 0.0
C345 C 0.49382 0.00858 0.92211 0.0
C346 C 0.4527 1.00267 0.9436 0.0
N347 N 0.48157 1.00381 0.94877 0.0
N348 N 0.47375 0.01085 0.90073 0.0
C349 C 0.44783 0.00718 0.914 0.0
H350 H 0.51698 0.01068 0.91837 0.0
H351 H 0.43622 0.99866 0.96023 0.0
C352 C 0.53607 0.052 0.99257 0.0
N353 N 0.54058 0.99614 0.0629 0.0
C354 C 0.54664 0.01925 0.07983 0.0
C355 C 0.55024 0.97086 0.07816 0.0
N356 N 0.55952 0.00939 0.10509 0.0
C357 C 0.56173 0.97894 0.1043 0.0
C358 C 0.55489 0.97495 0.9825 0.0
O359 O 0.51746 0.04125 0.97529 0.0
O360 O 0.54129 0.03699 0.01676 0.0
O361 O 0.55478 0.97806 1.00995 0.0
O362 O 0.53283 0.98359 0.96765 0.0
O363 O 0.5029 0.96009 0.03728 0.0
H364 H 0.54882 0.948 0.07085 0.0
H365 H 0.54111 0.04278 0.07405 0.0
O366 O 0.48325 0.96103 0.99366 0.0
O367 O 0.46776 0.01893 1.00174 0.0
O368 O 0.48901 0.0192 0.04433 0.0
C369 C 0.46678 0.02505 0.02831 0.0
H370 H 0.427 0.00693 0.90299 0.0
H371 H 0.57116 0.96375 0.1213 0.0
Co372 Co 0.52838 0.52424 0.50784 0.0
C373 C 0.48107 0.52519 0.47087 0.0
Co374 Co 0.49329 0.49344 0.52591 0.0
C375 C 0.58744 0.54493 0.49935 0.0
C376 C 0.55767 0.5776 0.48067 0.0
N377 N 0.55894 0.54961 0.4949 0.0
N378 N 0.60415 0.56898 0.48868 0.0
C379 C 0.58542 0.58954 0.47674 0.0
H380 H 0.59564 0.52456 0.511 0.0
H381 H 0.53784 0.58883 0.47405 0.0
C382 C 0.5407 0.49246 0.56267 0.0
N383 N 0.46233 0.46838 0.53888 0.0
C384 C 0.43423 0.47294 0.53207 0.0
C385 C 0.46224 0.44177 0.55582 0.0
N386 N 0.41669 0.45027 0.54377 0.0
C387 C 0.43403 0.43065 0.55904 0.0
C388 C 0.5311 0.46535 0.49098 0.0
O389 O 0.55011 0.51178 0.54254 0.0
O390 O 0.51537 0.48073 0.56008 0.0
O391 O 0.50832 0.46134 0.50639 0.0
O392 O 0.54372 0.49159 0.48846 0.0
O393 O 0.47155 0.50633 0.49129 0.0
H394 H 0.48143 0.43091 0.56485 0.0
H395 H 0.42657 0.4926 0.51882 0.0
O396 O 0.50652 0.53662 0.47332 0.0
O397 O 0.51303 0.55656 0.52737 0.0
O398 O 0.47843 0.52565 0.54586 0.0
C399 C 0.49092 0.55191 0.54365 0.0
H400 H 0.59119 0.61168 0.46594 0.0
H401 H 0.42689 0.40948 0.57092 0.0
Co402 Co 0.02202 0.49495 0.99296 0.0
C403 C 0.9635 0.47736 1.00441 0.0
Co404 Co 1.00529 0.50885 0.03433 0.0
C405 C 0.05605 0.47128 0.94681 0.0
C406 C 0.01495 0.48881 0.93257 0.0
N407 N 0.03254 0.48537 0.95614 0.0
N408 N 0.05333 0.46548 0.91849 0.0
C409 C 0.02761 0.47648 0.90947 0.0
H410 H 0.07405 0.46416 0.96074 0.0
H411 H 0.99369 0.49862 0.93247 0.0
C412 C 0.06358 0.52676 0.023 0.0
N413 N 0.99438 0.51774 0.07113 0.0
C414 C 0.97072 0.53162 0.08028 0.0
C415 C 1.01 0.51068 0.09554 0.0
N416 N 0.97094 0.5331 0.10955 0.0
C417 C 0.99566 0.52001 0.11913 0.0
C418 C 0.03257 0.45064 0.03719 0.0
O419 O 0.05914 0.51485 0.99886 0.0
O420 O 0.04288 0.52654 0.04118 0.0
O421 O 0.0184 0.46954 0.05079 0.0
O422 O 0.03731 0.45693 1.01008 0.0
O423 O 0.96765 0.4913 0.02741 0.0
H424 H 0.03071 0.49966 0.09612 0.0
H425 H 0.95368 0.5403 0.06585 0.0
O426 O 0.98475 0.47512 0.98726 0.0
O427 O 1.00666 0.53292 0.97603 0.0
O428 O 0.99192 0.54805 0.01757 0.0
C429 C 0.99411 0.5528 0.98994 0.0
H430 H 0.01844 0.4751 0.88782 0.0
H431 H 1.00326 0.5181 0.14154 0.0
H432 H 0.09594 0.11273 0.31298 0.0
H433 H 0.1808 0.07466 0.33133 0.0
H434 H 0.16373 0.05401 0.37955 0.0
H435 H 0.07968 0.13208 0.38566 0.0
H436 H 0.04191 0.12036 0.38428 0.0
H437 H 0.06072 0.13352 0.35114 0.0
H438 H 0.04637 0.08304 0.32843 0.0
H439 H 0.0274 0.06978 0.36145 0.0
H440 H 0.05532 0.047 0.3475 0.0
H441 H 0.13837 0.03831 0.42688 0.0
H442 H 0.1053 0.02511 0.46819 0.0
H443 H 0.03488 0.06859 0.41914 0.0
C444 C 0.11102 0.09984 0.32685 0.0
C445 C 0.14023 0.09621 0.31785 0.0
C446 C 0.15878 0.07909 0.3374 0.0
C447 C 0.14915 0.06683 0.36501 0.0
C448 C 0.12058 0.07117 0.37313 0.0
C449 C 0.10159 0.08689 0.35453 0.0
C450 C 0.07164 0.08731 0.36854 0.0
C451 C 0.06298 0.12028 0.37264 0.0
C452 C 0.04883 0.0708 0.3504 0.0
C453 C 0.07688 0.06952 0.39793 0.0
C454 C 0.10542 0.06075 0.4001 0.0
C455 C 0.11593 0.04488 0.4253 0.0
C456 C 0.0969 0.03755 0.44879 0.0
C457 C 0.06731 0.04561 0.44716 0.0
C458 C 0.05726 0.06186 0.42117 0.0
H459 H 0.49677 0.93494 0.7564 0.0
H460 H 0.44567 0.00748 0.7149 0.0
H461 H 0.45384 0.03792 0.75725 0.0
H462 H 0.46833 0.93445 0.82107 0.0
H463 H 0.50018 0.92759 0.84333 0.0
H464 H 0.49895 0.91576 0.80683 0.0
H465 H 0.54596 0.94749 0.79372 0.0
H466 H 0.54774 0.95909 0.83055 0.0
H467 H 0.54808 0.98756 0.8 0.0
H468 H 0.45436 0.05255 0.80766 0.0
H469 H 0.45198 0.05288 0.86151 0.0
H470 H 0.50475 0.97288 0.87105 0.0
C471 C 0.48887 0.95801 0.75562 0.0
C472 C 0.47091 0.96914 0.73246 0.0
C473 C 0.45974 0.99882 0.73245 0.0
C474 C 0.46433 0.01626 0.75638 0.0
C475 C 0.48048 1.00382 0.77992 0.0
C476 C 0.49325 0.97566 0.77949 0.0
C477 C 0.50551 0.96535 0.80925 0.0
C478 C 0.49243 0.93396 0.82077 0.0
C479 C 0.53881 0.96486 0.80832 0.0
C480 C 0.49544 0.99074 0.82694 0.0
C481 C 0.48154 0.01303 0.80949 0.0
C482 C 0.46623 0.03602 0.82142 0.0
C483 C 0.46477 0.03598 0.85189 0.0
C484 C 0.47875 0.01333 0.86993 0.0
C485 C 0.49489 0.991 0.85737 0.0
H486 H 0.58873 0.39857 0.71244 0.0
H487 H 0.66372 0.46069 0.71326 0.0
H488 H 0.64712 0.4874 0.66713 0.0
H489 H 0.58606 0.39299 0.634 0.0
H490 H 0.54698 0.39242 0.63201 0.0
H491 H 0.56487 0.37767 0.66494 0.0
H492 H 0.53635 0.41448 0.6948 0.0
H493 H 0.51841 0.42935 0.66196 0.0
H494 H 0.53808 0.45498 0.68432 0.0
H495 H 0.623 0.50715 0.62061 0.0
H496 H 0.59205 0.51989 0.57767 0.0
H497 H 0.53143 0.44624 0.60679 0.0
C498 C 0.60173 0.41767 0.70279 0.0
C499 C 0.62757 0.42754 0.71662 0.0
C500 C 0.64374 0.45288 0.70337 0.0
C501 C 0.63455 0.46812 0.67704 0.0
C502 C 0.60898 0.45797 0.6641 0.0
C503 C 0.59268 0.43343 0.67653 0.0
C504 C 0.56568 0.42771 0.65829 0.0
C505 C 0.56592 0.3958 0.64662 0.0
C506 C 0.53799 0.43188 0.6759 0.0
C507 C 0.56943 0.45281 0.63367 0.0
C508 C 0.59467 0.46985 0.63744 0.0
C509 C 0.60313 0.49402 0.61749 0.0
C510 C 0.58536 0.50107 0.5931 0.0
C511 C 0.55917 0.48421 0.58876 0.0
C512 C 0.55119 0.45972 0.60947 0.0
H513 H 0.91962 0.57396 0.26232 0.0
H514 H 0.88977 0.65956 0.22086 0.0
H515 H 0.89557 0.63961 0.17221 0.0
H516 H 0.97454 0.56454 0.21584 0.0
H517 H 0.9706 0.52353 0.21572 0.0
H518 H 0.95859 0.54226 0.24667 0.0
H519 H 0.90709 0.51776 0.24153 0.0
H520 H 0.91901 0.49883 0.21043 0.0
H521 H 0.88798 0.52296 0.2072 0.0
H522 H 0.91285 0.61344 0.12856 0.0
H523 H 0.94013 0.58389 0.09454 0.0
H524 H 0.95696 0.51521 0.16514 0.0
C525 C 0.91368 0.58819 0.24297 0.0
C526 C 0.90435 0.6182 0.24509 0.0
C527 C 0.89677 0.63636 0.21949 0.0
C528 C 0.89993 0.62519 0.19187 0.0
C529 C 0.9101 0.59568 0.19047 0.0
C530 C 0.91649 0.57732 0.21545 0.0
C531 C 0.92992 0.54785 0.20833 0.0
C532 C 0.9602 0.54438 0.22246 0.0
C533 C 0.90979 0.52022 0.21741 0.0
C534 C 0.93177 0.55321 0.17552 0.0
C535 C 0.91971 0.58056 0.16542 0.0
C536 C 0.9217 0.59164 0.13612 0.0
C537 C 0.93715 0.57472 0.11694 0.0
C538 C 0.95063 0.54737 0.12735 0.0
C539 C 0.94688 0.53608 0.1567 0.0
H540 H 0.35398 0.10593 0.13349 0.0
H541 H 0.28806 0.08444 0.06954 0.0
H542 H 0.32467 0.0609 0.04089 0.0
H543 H 0.41301 0.12269 0.08264 0.0
H544 H 0.44047 0.10448 0.10547 0.0
H545 H 0.40936 0.1202 0.12184 0.0
H546 H 0.39749 0.06775 0.14957 0.0
H547 H 0.42862 0.0519 0.13334 0.0
H548 H 0.39315 0.03425 0.12939 0.0
H549 H 0.36751 0.0412 0.01754 0.0
H550 H 0.4142 0.02336 1.0018 0.0
H551 H 0.45514 0.05334 0.08057 0.0
C552 C 0.34717 0.0961 0.11358 0.0
C553 C 0.31774 0.09803 0.10371 0.0
C554 C 0.31023 0.08457 0.07744 0.0
C555 C 0.33097 0.07073 0.06097 0.0
C556 C 0.35955 0.0698 0.0709 0.0
C557 C 0.36782 0.08176 0.0967 0.0
C558 C 0.40032 0.07705 0.10208 0.0
C559 C 0.41676 0.10795 0.10307 0.0
C560 C 0.40518 0.05651 0.13028 0.0
C561 C 0.40884 0.06089 0.07513 0.0
C562 C 0.38473 0.05721 0.05757 0.0
C563 C 0.3865 0.0438 0.0312 0.0
C564 C 0.41342 0.03377 0.02238 0.0
C565 C 0.43883 0.03674 0.03971 0.0
C566 C 0.43632 0.05048 0.06672 0.0
H567 H 0.26917 0.92128 0.57212 0.0
H568 H 0.23807 0.84784 0.63369 0.0
H569 H 0.18777 0.86557 0.62666 0.0
H570 H 0.22709 0.97656 0.59765 0.0
H571 H 0.22027 0.99677 0.56267 0.0
H572 H 0.25267 0.9752 0.56824 0.0
H573 H 0.23929 0.94386 0.52424 0.0
H574 H 0.20698 0.9657 0.5182 0.0
H575 H 0.20428 0.92453 0.52313 0.0
H576 H 0.14172 0.89431 0.61608 0.0
H577 H 0.10407 0.93267 0.60392 0.0
H578 H 0.16662 0.98834 0.55173 0.0
C579 C 0.25157 0.90834 0.58327 0.0
C580 C 0.25714 0.88297 0.603 0.0
C581 C 0.23392 0.86717 0.61821 0.0
C582 C 0.2054 0.87703 0.61431 0.0
C583 C 0.20068 0.90279 0.59529 0.0
C584 C 0.22316 0.91818 0.57997 0.0
C585 C 0.21302 0.94707 0.56342 0.0
C586 C 0.22922 0.97557 0.57362 0.0
C587 C 0.21607 0.94516 0.53028 0.0
C588 C 0.18154 0.94603 0.57245 0.0
C589 C 0.17461 0.92006 0.59035 0.0
C590 C 0.14685 0.91463 0.60192 0.0
C591 C 0.12568 0.93643 0.59501 0.0
C592 C 0.13271 0.96344 0.57727 0.0
C593 C 0.1609 0.96807 0.56574 0.0
H594 H 0.84228 0.40305 0.90269 0.0
H595 H 0.77753 0.43915 0.95779 0.0
H596 H 0.81645 0.45892 0.98911 0.0
H597 H 0.89339 0.38025 0.95982 0.0
H598 H 0.92501 0.39189 0.93837 0.0
H599 H 0.89214 0.37984 0.9206 0.0
H600 H 0.89209 0.43116 0.88855 0.0
H601 H 0.92504 0.44327 0.90611 0.0
H602 H 0.89354 0.46668 0.90587 0.0
H603 H 0.86248 0.47408 0.01508 0.0
H604 H 0.91209 0.48747 0.03126 0.0
H605 H 0.94744 0.44344 0.95836 0.0
C606 C 0.83633 0.41502 0.92142 0.0
C607 C 0.80678 0.41951 0.9278 0.0
C608 C 0.79995 0.43564 0.95231 0.0
C609 C 0.82193 0.44678 0.97036 0.0
C610 C 0.85079 0.4419 0.96354 0.0
C611 C 0.85808 0.42672 0.93947 0.0
C612 C 0.89084 0.42564 0.93639 0.0
C613 C 0.90093 0.39243 0.93895 0.0
C614 C 0.90097 0.44271 0.90752 0.0
C615 C 0.90081 0.44249 0.96252 0.0
C616 C 0.87733 0.4514 0.97804 0.0
C617 C 0.88101 0.46725 1.00305 0.0
C618 C 0.90935 0.47465 0.01216 0.0
C619 C 0.93381 0.4665 0.99621 0.0
C620 C 0.92929 0.44994 0.97117 0.0
H621 H 0.75459 0.65797 0.4676 0.0
H622 H 0.79578 0.57023 0.47919 0.0
H623 H 0.74879 0.54548 0.49438 0.0
H624 H 0.69971 0.64307 0.5281 0.0
H625 H 0.67247 0.66347 0.50678 0.0
H626 H 0.71023 0.67481 0.50264 0.0
H627 H 0.70609 0.66911 0.44699 0.0
H628 H 0.66858 0.65723 0.45096 0.0
H629 H 0.69366 0.63304 0.43439 0.0
H630 H 0.69629 0.52937 0.4994 0.0
H631 H 0.64307 0.52347 0.49756 0.0
H632 H 0.63641 0.62215 0.48366 0.0
C633 C 0.75383 0.6337 0.47421 0.0
C634 C 0.77868 0.61596 0.47238 0.0
C635 C 0.77699 0.58424 0.48092 0.0
C636 C 0.7504 0.57001 0.48944 0.0
C637 C 0.72595 0.58797 0.48967 0.0
C638 C 0.72756 0.61924 0.48281 0.0
C639 C 0.69783 0.63296 0.48206 0.0
C640 C 0.69489 0.65487 0.50635 0.0
C641 C 0.69117 0.64901 0.4518 0.0
C642 C 0.67911 0.60433 0.48812 0.0
C643 C 0.69569 0.57867 0.49283 0.0
C644 C 0.68308 0.54938 0.49652 0.0
C645 C 0.65274 0.54629 0.49544 0.0
C646 C 0.6353 0.57235 0.49061 0.0
C647 C 0.64889 0.6017 0.48725 0.0
H648 H 0.13475 0.3046 0.07337 0.0
H649 H 0.08828 0.29007 0.15548 0.0
H650 H 0.05838 0.33447 0.14144 0.0
H651 H 0.13521 0.38799 0.06904 0.0
H652 H 0.12954 0.39226 0.03007 0.0
H653 H 0.14786 0.35939 0.04638 0.0
H654 H 0.11054 0.32363 0.02261 0.0
H655 H 0.09206 0.35641 1.00632 0.0
H656 H 0.07236 0.32763 0.02911 0.0
H657 H 0.03368 0.38071 0.11952 0.0
H658 H 0.01513 0.42571 0.09065 0.0
H659 H 0.07558 0.4114 0.02118 0.0
C660 C 0.11837 0.31088 0.08843 0.0
C661 C 0.11386 0.29342 0.11558 0.0
C662 C 0.092 0.30252 0.13445 0.0
C663 C 0.07492 0.32791 0.12672 0.0
C664 C 0.07963 0.3443 0.09984 0.0
C665 C 0.10074 0.33624 0.08087 0.0
C666 C 0.10081 0.35788 0.05312 0.0
C667 C 0.1301 0.37542 0.04944 0.0
C668 C 0.09351 0.34033 0.02619 0.0
C669 C 0.07654 0.3793 0.05959 0.0
C670 C 0.06481 0.37096 0.08678 0.0
C671 C 0.04263 0.38736 0.09814 0.0
C672 C 0.0322 0.41299 0.08149 0.0
C673 C 0.04362 0.42224 0.05344 0.0
C674 C 0.06608 0.40487 0.04234 0.0
H675 H 0.5817 0.21701 0.91492 0.0
H676 H 0.67084 0.18671 0.92221 0.0
H677 H 0.65383 0.13917 0.94847 0.0
H678 H 0.55403 0.18211 0.9821 0.0
H679 H 0.51996 0.16937 0.96708 0.0
H680 H 0.53875 0.20288 0.95049 0.0
H681 H 0.53856 0.17898 0.90067 0.0
H682 H 0.51949 0.14554 0.91703 0.0
H683 H 0.55328 0.14163 0.8983 0.0
H684 H 0.62814 0.09586 0.97681 0.0
H685 H 0.59436 0.0551 0.99724 0.0
H686 H 0.52123 0.10788 0.96468 0.0
C687 C 0.59787 0.20051 0.92159 0.0
C688 C 0.62805 0.20704 0.91712 0.0
C689 C 0.64785 0.18391 0.92645 0.0
C690 C 0.63836 0.15628 0.94121 0.0
C691 C 0.60879 0.15113 0.94576 0.0
C692 C 0.58871 0.1721 0.93548 0.0
C693 C 0.55797 0.15954 0.94141 0.0
C694 C 0.54173 0.17968 0.96146 0.0
C695 C 0.54135 0.15622 0.91264 0.0
C696 C 0.5641 0.12844 0.95692 0.0
C697 C 0.59365 0.12449 0.9597 0.0
C698 C 0.60496 0.09848 0.97443 0.0
C699 C 0.58561 0.07556 0.98615 0.0
C700 C 0.55527 0.07834 0.9825 0.0
C701 C 0.54436 0.10516 0.96765 0.0
H702 H 0.9616 0.81903 0.42032 0.0
H703 H 0.02751 0.76495 0.46598 0.0
H704 H 0.04696 0.81147 0.48759 0.0
H705 H 1.006 0.88854 0.40451 0.0
H706 H 0.97629 0.91312 0.41046 0.0
H707 H 0.96925 0.87601 0.39721 0.0
H708 H 0.93414 0.86209 0.44047 0.0
H709 H 0.94117 0.89905 0.45392 0.0
H710 H 0.94701 0.86484 0.47737 0.0
H711 H 0.05761 0.86386 0.50555 0.0
H712 H 0.05789 0.9172 0.51946 0.0
H713 H 0.98431 0.93579 0.46193 0.0
C714 C 0.98056 0.81707 0.43432 0.0
C715 C 0.99335 0.78855 0.44121 0.0
C716 C 0.0175 0.78668 0.46041 0.0
C717 C 0.02872 0.81295 0.47265 0.0
C718 C 0.01541 0.84072 0.46548 0.0
C719 C 0.99185 0.84287 0.44676 0.0
C720 C 0.98035 0.87487 0.44375 0.0
C721 C 0.98316 0.88896 0.4121 0.0
C722 C 0.94881 0.87521 0.45453 0.0
C723 C 1.00095 0.89045 0.46393 0.0
C724 C 0.02117 0.87052 0.47612 0.0
C725 C 0.04198 0.8797 0.49602 0.0
C726 C 0.04195 0.91002 0.50377 0.0
C727 C 0.02111 0.93062 0.49177 0.0
C728 C 1.00056 0.92063 0.47145 0.0
H729 H 0.47848 0.72179 0.59058 0.0
H730 H 0.43171 0.68346 0.66745 0.0
H731 H 0.43822 0.63154 0.65192 0.0
H732 H 0.45069 0.67217 0.54151 0.0
H733 H 0.48404 0.6686 0.52191 0.0
H734 H 0.47776 0.70278 0.53993 0.0
H735 H 0.52555 0.69574 0.56942 0.0
H736 H 0.53229 0.66182 0.55106 0.0
H737 H 0.53155 0.65998 0.59042 0.0
H738 H 0.4452 0.58458 0.62545 0.0
H739 H 0.45796 0.5447 0.59303 0.0
H740 H 0.50273 0.61344 0.53511 0.0
C741 C 0.47035 0.70249 0.60466 0.0
C742 C 0.45438 0.70675 0.63013 0.0
C743 C 0.44361 0.68081 0.64758 0.0
C744 C 0.44728 0.65122 0.63902 0.0
C745 C 0.46218 0.64796 0.61322 0.0
C746 C 0.4741 0.67281 0.59662 0.0
C747 C 0.48868 0.66305 0.56955 0.0
C748 C 0.47443 0.67751 0.54158 0.0
C749 C 0.52147 0.67059 0.57016 0.0
C750 C 0.48255 0.6289 0.57323 0.0
C751 C 0.46709 0.62069 0.59847 0.0
C752 C 0.45768 0.59063 0.60584 0.0
C753 C 0.46481 0.56822 0.58718 0.0
C754 C 0.4814 0.57604 0.56168 0.0
C755 C 0.49021 0.6068 0.55461 0.0
H756 H 0.94388 0.90887 0.72008 0.0
H757 H 0.85879 0.94758 0.70749 0.0
H758 H 0.87425 0.97208 0.65959 0.0
H759 H 0.98417 0.97536 0.68753 0.0
H760 H 1.01099 0.95335 0.67079 0.0
H761 H 0.99318 0.93808 0.70384 0.0
H762 H 0.97681 0.88983 0.67836 0.0
H763 H 0.99454 0.90499 0.64523 0.0
H764 H 0.95654 0.89408 0.64464 0.0
H765 H 0.89831 0.99128 0.61205 0.0
H766 H 0.93011 0.00684 0.57014 0.0
H767 H 1.00116 0.95864 0.61357 0.0
C768 C 0.92849 0.92243 0.70717 0.0
C769 C 0.89998 0.92621 0.71776 0.0
C770 C 0.88073 0.94446 0.70018 0.0
C771 C 0.8893 0.95838 0.67279 0.0
C772 C 0.91744 0.95428 0.66306 0.0
C773 C 0.9369 0.93701 0.67982 0.0
C774 C 0.96618 0.93714 0.66446 0.0
C775 C 0.99004 0.95186 0.68275 0.0
C776 C 0.97397 0.90457 0.65778 0.0
C777 C 0.96008 0.957 0.63645 0.0
C778 C 0.9317 0.96636 0.63604 0.0
C779 C 0.92061 0.98421 0.61228 0.0
C780 C 0.93891 0.9929 0.58844 0.0
C781 C 0.9683 0.98418 0.58836 0.0
C782 C 0.97891 0.96594 0.61289 0.0
H783 H 0.57288 0.0521 0.26912 0.0
H784 H 0.61666 0.13685 0.23606 0.0
H785 H 0.61165 0.12124 0.18591 0.0
H786 H 0.60756 1.00455 0.21905 0.0
H787 H 0.57567 0.98034 0.21536 0.0
H788 H 0.58212 0.99848 0.24877 0.0
H789 H 0.53162 0.02294 0.24395 0.0
H790 H 0.52505 1.00496 0.2105 0.0
H791 H 0.52261 0.04586 0.21098 0.0
H792 H 0.60004 0.09758 0.13922 0.0
H793 H 0.58541 0.06547 0.09929 0.0
H794 H 0.55307 0.99466 0.16298 0.0
C795 C 0.5818 0.06726 0.25146 0.0
C796 C 0.59485 0.09592 0.25667 0.0
C797 C 0.60587 0.11514 0.23271 0.0
C798 C 0.60338 0.10638 0.20411 0.0
C799 C 0.59024 0.07812 0.19982 0.0
C800 C 0.57994 0.05868 0.22283 0.0
C801 C 0.56712 0.02934 0.21228 0.0
C802 C 0.58414 1.00154 0.2246 0.0
C803 C 0.53468 0.02557 0.21988 0.0
C804 C 0.57161 0.03547 0.17971 0.0
C805 C 0.58478 0.06385 0.17297 0.0
C806 C 0.58999 0.07518 0.14422 0.0
C807 C 0.58154 0.05694 0.12175 0.0
C808 C 0.56843 0.02766 0.12826 0.0
C809 C 0.56355 0.01678 0.15759 0.0
H810 H 0.43595 0.61243 0.3167 0.0
H811 H 0.35715 0.55542 0.32088 0.0
H812 H 0.37299 0.53096 0.36812 0.0
H813 H 0.48341 0.55358 0.34763 0.0
H814 H 0.50526 0.57952 0.36778 0.0
H815 H 0.48764 0.59325 0.33434 0.0
H816 H 0.46257 0.63464 0.36166 0.0
H817 H 0.48005 0.62098 0.3952 0.0
H818 H 0.44109 0.62329 0.3936 0.0
H819 H 0.39685 0.51254 0.41517 0.0
H820 H 0.42776 0.50054 0.45825 0.0
H821 H 0.49237 0.56782 0.42392 0.0
C822 C 0.42207 0.59466 0.32739 0.0
C823 C 0.39498 0.58628 0.31489 0.0
C824 C 0.37759 0.56297 0.33001 0.0
C825 C 0.38652 0.54868 0.35688 0.0
C826 C 0.4131 0.55764 0.36859 0.0
C827 C 0.43073 0.57998 0.35433 0.0
C828 C 0.45842 0.58504 0.37178 0.0
C829 C 0.48527 0.57739 0.35434 0.0
C830 C 0.46065 0.61795 0.38111 0.0
C831 C 0.45354 0.56206 0.39801 0.0
C832 C 0.42717 0.5466 0.39567 0.0
C833 C 0.41758 0.52446 0.41718 0.0
C834 C 0.43535 0.51782 0.44166 0.0
C835 C 0.46263 0.53312 0.44464 0.0
C836 C 0.47173 0.5556 0.42237 0.0
H837 H 0.07474 0.37202 0.78446 0.0
H838 H 0.15602 0.42326 0.77018 0.0
H839 H 0.1541 0.4393 0.82044 0.0
H840 H 0.04092 0.42739 0.81635 0.0
H841 H 0.02003 0.40266 0.84209 0.0
H842 H 0.03171 0.3886 0.80857 0.0
H843 H 0.05711 0.34378 0.83773 0.0
H844 H 0.04547 0.35784 0.87151 0.0
H845 H 0.08342 0.35184 0.86552 0.0
H846 H 0.13882 0.45752 0.86848 0.0
H847 H 0.11013 0.47814 0.90776 0.0
H848 H 0.03812 0.41738 0.88902 0.0
C849 C 0.09248 0.38607 0.79209 0.0
C850 C 0.11552 0.39632 0.77337 0.0
C851 C 0.13836 0.41464 0.78425 0.0
C852 C 0.13745 0.42389 0.81281 0.0
C853 C 0.1137 0.41444 0.83028 0.0
C854 C 0.09169 0.39577 0.82029 0.0
C855 C 0.06641 0.3926 0.84121 0.0
C856 C 0.03814 0.40348 0.82616 0.0
C857 C 0.06291 0.35955 0.8548 0.0
C858 C 0.07681 0.4139 0.86364 0.0
C859 C 0.10453 0.42554 0.8576 0.0
C860 C 0.1174 0.44801 0.87382 0.0
C861 C 0.10111 0.45954 0.89607 0.0
C862 C 0.07223 0.44899 0.90123 0.0
C863 C 0.06039 0.42528 0.88553 0.0
H864 H 0.71077 0.89725 0.95743 0.0
H865 H 0.69864 0.92457 0.86543 0.0
H866 H 0.65121 0.94567 0.87624 0.0
H867 H 0.63481 0.87714 0.97456 0.0
H868 H 0.63559 0.89288 1.00968 0.0
H869 H 0.66825 0.87852 0.99504 0.0
H870 H 0.69455 0.93072 1.00038 0.0
H871 H 0.66197 0.94523 0.01503 0.0
H872 H 0.67913 0.9651 0.98354 0.0
H873 H 0.60504 0.9632 0.89608 0.0
H874 H 0.56381 0.97946 0.92388 0.0
H875 H 0.60468 0.94469 1.00482 0.0
C876 C 0.69795 0.90751 0.93961 0.0
C877 C 0.70849 0.90907 0.91041 0.0
C878 C 0.69118 0.92308 0.88784 0.0
C879 C 0.66412 0.93509 0.8938 0.0
C880 C 0.65443 0.93343 0.92263 0.0
C881 C 0.67082 0.92028 0.9453 0.0
C882 C 0.6554 0.92284 0.97442 0.0
C883 C 0.64808 0.89094 0.98931 0.0
C884 C 0.67387 0.94212 0.99454 0.0
C885 C 0.62785 0.93932 0.96447 0.0
C886 C 0.62785 0.94481 0.9344 0.0
C887 C 0.60489 0.95912 0.91964 0.0
C888 C 0.58137 0.96826 0.93581 0.0
C889 C 0.5806 0.96356 0.96677 0.0
C890 C 0.60441 0.9488 0.98127 0.0
H891 H 0.75149 0.06129 0.43574 0.0
H892 H 0.7494 0.12231 0.50563 0.0
H893 H 0.79992 0.10964 0.51881 0.0
H894 H 0.7977 1.00291 0.47442 0.0
H895 H 0.81657 0.99609 0.44137 0.0
H896 H 0.7793 0.00745 0.43965 0.0
H897 H 0.79375 0.05308 0.40278 0.0
H898 H 0.83108 0.04218 0.4047 0.0
H899 H 0.82155 0.08021 0.41266 0.0
H900 H 0.8517 0.09457 0.52102 0.0
H901 H 0.90083 0.07633 0.51387 0.0
H902 H 0.86886 0.02368 0.44341 0.0
C903 C 0.76136 0.07126 0.45438 0.0
C904 C 0.74655 0.09268 0.46977 0.0
C905 C 0.76046 0.10594 0.4935 0.0
C906 C 0.78906 0.0988 0.5012 0.0
C907 C 0.80332 0.07825 0.48505 0.0
C908 C 0.78987 0.0644 0.46234 0.0
C909 C 0.81058 0.04453 0.44738 0.0
C910 C 0.80043 0.01074 0.45093 0.0
C911 C 0.81446 0.05569 0.41497 0.0
C912 C 0.83797 0.05001 0.46476 0.0
C913 C 0.83324 0.06935 0.48649 0.0
C914 C 0.85556 0.07893 0.50445 0.0
C915 C 0.88345 0.0683 0.50024 0.0
C916 C 0.88885 0.04822 0.47823 0.0
C917 C 0.86564 0.03902 0.46035 0.0
H918 H 0.18862 0.5815 0.13121 0.0
H919 H 0.24375 0.59982 0.05501 0.0
H920 H 0.20406 0.58271 0.0236 0.0
H921 H 0.15147 0.51471 0.10795 0.0
H922 H 0.11675 0.52402 0.12219 0.0
H923 H 0.14968 0.53729 0.13902 0.0
H924 H 0.13258 0.59312 0.13169 0.0
H925 H 0.09957 0.57999 0.11488 0.0
H926 H 0.1226 0.6087 0.09563 0.0
H927 H 0.15844 0.56209 1.00009 0.0
H928 H 0.10988 0.54186 0.98661 0.0
H929 H 0.0834 0.53995 0.07731 0.0
C930 C 0.19238 0.58223 0.10791 0.0
C931 C 0.21979 0.5917 0.0959 0.0
C932 C 0.22346 0.59194 0.06516 0.0
C933 C 0.20086 0.58249 0.04696 0.0
C934 C 0.17435 0.57309 0.05955 0.0
C935 C 0.16991 0.57312 0.0893 0.0
C936 C 0.13916 0.56222 0.09722 0.0
C937 C 0.13928 0.53281 0.11781 0.0
C938 C 0.1225 0.58752 0.11065 0.0
C939 C 0.12711 0.55599 0.06732 0.0
C940 C 0.14781 0.56224 0.04588 0.0
C941 C 0.142 0.55736 0.01669 0.0
C942 C 0.11435 0.54583 1.00921 0.0
C943 C 0.09267 0.53955 0.03077 0.0
C944 C 0.09931 0.54486 0.06018 0.0
H945 H 0.2527 0.42393 0.59202 0.0
H946 H 0.2283 0.44156 0.50113 0.0
H947 H 0.28027 0.45021 0.48788 0.0
H948 H 0.3129 0.47839 0.59324 0.0
H949 H 0.33464 0.45348 0.61697 0.0
H950 H 0.29563 0.45057 0.61904 0.0
H951 H 0.29725 0.39294 0.61037 0.0
H952 H 0.33624 0.3957 0.60807 0.0
H953 H 0.31533 0.38139 0.57848 0.0
H954 H 0.33475 0.4578 0.48531 0.0
H955 H 0.38798 0.46082 0.49285 0.0
H956 H 0.37639 0.43414 0.58497 0.0
C957 C 0.25841 0.43003 0.5694 0.0
C958 C 0.23688 0.43271 0.54753 0.0
C959 C 0.24478 0.43986 0.51805 0.0
C960 C 0.27409 0.44473 0.51043 0.0
C961 C 0.29494 0.44177 0.53257 0.0
C962 C 0.28745 0.43434 0.56142 0.0
C963 C 0.31394 0.4311 0.58089 0.0
C964 C 0.31429 0.4548 0.60389 0.0
C965 C 0.31579 0.39833 0.59529 0.0
C966 C 0.33762 0.43801 0.55854 0.0
C967 C 0.32623 0.44444 0.53085 0.0
C968 C 0.3439 0.45259 0.50683 0.0
C969 C 0.37398 0.4543 0.51129 0.0
C970 C 0.38598 0.44744 0.53942 0.0
C971 C 0.36759 0.43897 0.56323 0.0
H972 H 0.92091 0.71858 0.95619 0.0
H973 H 0.90021 0.68794 0.87045 0.0
H974 H 0.92379 0.63962 0.88379 0.0
H975 H 0.9899 0.68317 0.96612 0.0
H976 H 0.98483 0.67092 1.0042 0.0
H977 H 0.96678 0.70421 0.98838 0.0
H978 H 0.91715 0.68034 1.00541 0.0
H979 H 0.93507 0.64706 0.02146 0.0
H980 H 0.9064 0.64282 0.99508 0.0
H981 H 0.95184 0.59565 0.90424 0.0
H982 H 0.97766 0.5554 0.93305 0.0
H983 H 0.97715 0.6094 1.0084 0.0
C984 C 0.92105 0.70168 0.94025 0.0
C985 C 0.90926 0.70815 0.91168 0.0
C986 C 0.90999 0.68479 0.89191 0.0
C987 C 0.92316 0.65684 0.8994 0.0
C988 C 0.93516 0.65165 0.92716 0.0
C989 C 0.93378 0.67302 0.9476 0.0
C990 C 0.94771 0.66061 0.97629 0.0
C991 C 0.97386 0.68094 0.98421 0.0
C992 C 0.92524 0.65753 1.00103 0.0
C993 C 0.95737 0.62922 0.96847 0.0
C994 C 0.95005 0.62493 0.93982 0.0
C995 C 0.95741 0.59861 0.9268 0.0
C996 C 0.97231 0.57584 0.94342 0.0
C997 C 0.97958 0.57892 0.97314 0.0
C998 C 0.97186 0.60615 0.98583 0.0
H999 H 0.41487 0.81167 0.12367 0.0
H1000 H 0.422 0.75387 0.05134 0.0
H1001 H 0.44191 0.79762 0.02064 0.0
H1002 H 0.3977 0.88121 0.08313 0.0
H1003 H 0.4204 0.90519 0.1045 0.0
H1004 H 0.40512 0.86971 0.12094 0.0
H1005 H 0.4565 0.85186 0.13609 0.0
H1006 H 0.47192 0.88742 0.11994 0.0
H1007 H 0.48434 0.85157 0.1087 0.0
H1008 H 0.45869 0.84866 0.99635 0.0
H1009 H 0.47786 0.90121 0.98289 0.0
H1010 H 0.46643 0.92401 0.07224 0.0
C1011 C 0.42089 0.8078 0.10157 0.0
C1012 C 0.41579 0.77894 0.09009 0.0
C1013 C 0.42421 0.77566 0.06075 0.0
C1014 C 0.43594 0.80045 0.04301 0.0
C1015 C 0.44006 0.82847 0.05489 0.0
C1016 C 0.43345 0.83212 0.08369 0.0
C1017 C 0.44153 0.86433 0.09147 0.0
C1018 C 0.41458 0.88109 0.10054 0.0
C1019 C 0.46497 0.86375 0.11547 0.0
C1020 C 0.45342 0.87821 0.06246 0.0
C1021 C 0.45191 0.85726 0.04151 0.0
C1022 C 0.46034 0.86514 0.01268 0.0
C1023 C 0.47105 0.89505 1.00518 0.0
C1024 C 0.47383 0.91653 0.02654 0.0
C1025 C 0.46484 0.90791 0.05553 0.0
H1026 H 0.02851 0.24935 0.53268 0.0
H1027 H 0.01868 0.23838 0.62686 0.0
H1028 H 1.00594 0.18372 0.62396 0.0
H1029 H 0.96936 0.19173 0.51563 0.0
H1030 H 0.98994 0.17895 0.48585 0.0
H1031 H 0.99341 0.21819 0.49481 0.0
H1032 H 0.04905 0.21266 0.50006 0.0
H1033 H 0.04575 0.17338 0.49157 0.0
H1034 H 0.06307 0.18288 0.52512 0.0
H1035 H 1.00439 0.12945 0.61224 0.0
H1036 H 1.00747 0.07933 0.59132 0.0
H1037 H 0.01487 0.12504 0.50443 0.0
C1038 C 0.02277 0.23558 0.55254 0.0
C1039 C 0.02435 0.24805 0.57997 0.0
C1040 C 0.01706 0.22938 0.60559 0.0
C1041 C 1.00996 0.19828 0.60417 0.0
C1042 C 1.00972 0.18639 0.57692 0.0
C1043 C 0.01525 0.20455 0.55146 0.0
C1044 C 0.01559 0.18562 0.52524 0.0
C1045 C 0.99058 0.19413 0.50414 0.0
C1046 C 0.04512 0.18883 0.5096 0.0
C1047 C 1.0108 0.15386 0.54015 0.0
C1048 C 1.00744 0.15485 0.56998 0.0
C1049 C 1.00609 0.12836 0.58884 0.0
C1050 C 1.00807 0.1001 0.57688 0.0
C1051 C 1.01094 0.09869 0.54641 0.0
C1052 C 1.01194 0.12578 0.52776 0.0
H1053 H 0.54248 0.29059 0.45868 0.0
H1054 H 0.61485 0.31769 0.4014 0.0
H1055 H 0.60905 0.37164 0.41161 0.0
H1056 H 0.49912 0.35626 0.43955 0.0
H1057 H 0.48599 0.35845 0.47621 0.0
H1058 H 0.4956 0.32208 0.46394 0.0
H1059 H 0.53131 0.31405 0.50756 0.0
H1060 H 0.52178 0.35038 0.51995 0.0
H1061 H 0.55921 0.34276 0.51296 0.0
H1062 H 0.59622 0.4224 0.4293 0.0
H1063 H 0.57646 0.46642 0.45241 0.0
H1064 H 0.51246 0.40561 0.49766 0.0
C1065 C 0.55714 0.30788 0.44836 0.0
C1066 C 0.57903 0.30005 0.42919 0.0
C1067 C 0.59766 0.32331 0.41586 0.0
C1068 C 0.59465 0.35395 0.42163 0.0
C1069 C 0.57285 0.36089 0.44069 0.0
C1070 C 0.55437 0.33853 0.45378 0.0
C1071 C 0.53281 0.35199 0.47349 0.0
C1072 C 0.50153 0.3469 0.46263 0.0
C1073 C 0.53652 0.33902 0.50538 0.0
C1074 C 0.54217 0.38537 0.46956 0.0
C1075 C 0.56531 0.39009 0.45062 0.0
C1076 C 0.578 0.41904 0.44408 0.0
C1077 C 0.56667 0.44386 0.45731 0.0
C1078 C 0.54287 0.43945 0.47671 0.0
C1079 C 0.53053 0.40979 0.48277 0.0
loop_
_geom_bond_atom_site_label_1
_geom_bond_atom_site_label_2
_geom_bond_distance
_geom_bond_site_symmetry_2
_ccdc_geom_bond_type
C0 C1 1.386 . S
C0 C2 1.397 . S
C0 H24 0.931 . S
C1 C0 1.386 . S
C1 C5 1.397 . S
C2 C0 1.397 . S
C2 C3 1.384 . S
C2 H25 0.930 . S
C3 C2 1.384 . S
C3 C4 1.377 . S
C3 C6 1.481 . S
C4 C3 1.377 . S
C4 C5 1.389 . S
C4 H26 0.929 . S
C5 C1 1.397 . S
C5 C4 1.389 . S
C5 H27 0.931 . S
C6 C3 1.481 . S
C6 C7 1.387 . S
C6 C11 1.390 . S
C7 C6 1.387 . S
C7 C8 1.401 . S
C7 H28 0.930 . S
C8 C7 1.401 . S
C8 C9 1.376 . S
C8 C17 1.511 . S
C9 C8 1.376 . S
C9 C10 1.392 . S
C9 H30 0.931 . S
C10 C9 1.392 . S
C10 C11 1.361 . S
C10 C12 1.500 . S
C11 C6 1.390 . S
C11 C10 1.361 . S
C11 H29 0.931 . S
C12 C10 1.500 . S
C12 C13 1.371 . S
C12 C14 1.365 . S
C13 C12 1.371 . S
C13 C23 1.386 . S
C13 H31 0.931 . S
C14 C12 1.365 . S
C14 C15 1.409 . S
C14 H32 0.929 . S
C15 C14 1.409 . S
C15 C16 1.380 . S
C15 H33 0.930 . S
C16 C15 1.380 . S
C16 C23 1.357 . S
C17 C8 1.511 . S
C17 C18 1.341 . S
C17 C19 1.371 . S
C18 C17 1.341 . S
C18 C22 1.394 . S
C18 H34 0.930 . S
C19 C17 1.371 . S
C19 C20 1.392 . S
C19 H35 0.931 . S
C20 C19 1.392 . S
C20 C21 1.331 . S
C20 H38 0.932 . S
C21 C20 1.331 . S
C21 C22 1.336 . S
C22 C18 1.394 . S
C22 C21 1.336 . S
C22 H37 0.929 . S
C23 C13 1.386 . S
C23 C16 1.357 . S
C23 H36 0.928 . S
H24 C0 0.931 . S
H25 C2 0.930 . S
H26 C4 0.929 . S
H27 C5 0.931 . S
H28 C7 0.930 . S
H29 C11 0.931 . S
H30 C9 0.931 . S
H31 C13 0.931 . S
H32 C14 0.929 . S
H33 C15 0.930 . S
H34 C18 0.930 . S
H35 C19 0.931 . S
H36 C23 0.928 . S
H37 C22 0.929 . S
H38 C20 0.932 . S
C39 C40 1.386 . S
C39 C41 1.397 . S
C39 H63 0.931 . S
C40 C39 1.386 . S
C40 C44 1.397 . S
C41 C39 1.397 . S
C41 C42 1.384 . S
C41 H64 0.930 . S
C42 C41 1.384 . S
C42 C43 1.377 . S
C42 C45 1.481 . S
C43 C42 1.377 . S
C43 C44 1.389 . S
C43 H65 0.929 . S
C44 C40 1.397 . S
C44 C43 1.389 . S
C44 H66 0.931 . S
C45 C42 1.481 . S
C45 C46 1.387 . S
C45 C50 1.390 . S
C46 C45 1.387 . S
C46 C47 1.401 . S
C46 H67 0.930 . S
C47 C46 1.401 . S
C47 C48 1.376 . S
C47 C56 1.511 . S
C48 C47 1.376 . S
C48 C49 1.392 . S
C48 H69 0.931 . S
C49 C48 1.392 . S
C49 C50 1.361 . S
C49 C51 1.500 . S
C50 C45 1.390 . S
C50 C49 1.361 . S
C50 H68 0.931 . S
C51 C49 1.500 . S
C51 C52 1.371 . S
C51 C53 1.365 . S
C52 C51 1.371 . S
C52 C62 1.386 . S
C52 H70 0.931 . S
C53 C51 1.365 . S
C53 C54 1.409 . S
C53 H71 0.929 . S
C54 C53 1.409 . S
C54 C55 1.380 . S
C54 H72 0.930 . S
C55 C54 1.380 . S
C55 C62 1.357 . S
C56 C47 1.511 . S
C56 C57 1.341 . S
C56 C58 1.371 . S
C57 C56 1.341 . S
C57 C61 1.394 . S
C57 H73 0.930 . S
C58 C56 1.371 . S
C58 C59 1.392 . S
C58 H74 0.931 . S
C59 C58 1.392 . S
C59 C60 1.331 . S
C59 H77 0.932 . S
C60 C59 1.331 . S
C60 C61 1.336 . S
C61 C57 1.394 . S
C61 C60 1.336 . S
C61 H76 0.929 . S
C62 C52 1.386 . S
C62 C55 1.357 . S
C62 H75 0.928 . S
H63 C39 0.931 . S
H64 C41 0.930 . S
H65 C43 0.929 . S
H66 C44 0.931 . S
H67 C46 0.930 . S
H68 C50 0.931 . S
H69 C48 0.931 . S
H70 C52 0.931 . S
H71 C53 0.929 . S
H72 C54 0.930 . S
H73 C57 0.930 . S
H74 C58 0.931 . S
H75 C62 0.928 . S
H76 C61 0.929 . S
H77 C59 0.932 . S
C78 C79 1.386 . S
C78 C80 1.397 . S
C78 H102 0.931 . S
C79 C78 1.386 . S
C79 C83 1.397 . S
C80 C78 1.397 . S
C80 C81 1.384 . S
C80 H103 0.930 . S
C81 C80 1.384 . S
C81 C82 1.377 . S
C81 C84 1.481 . S
C82 C81 1.377 . S
C82 C83 1.389 . S
C82 H104 0.929 . S
C83 C79 1.397 . S
C83 C82 1.389 . S
C83 H105 0.931 . S
C84 C81 1.481 . S
C84 C85 1.387 . S
C84 C89 1.390 . S
C85 C84 1.387 . S
C85 C86 1.401 . S
C85 H106 0.930 . S
C86 C85 1.401 . S
C86 C87 1.376 . S
C86 C95 1.511 . S
C87 C86 1.376 . S
C87 C88 1.392 . S
C87 H108 0.931 . S
C88 C87 1.392 . S
C88 C89 1.361 . S
C88 C90 1.500 . S
C89 C84 1.390 . S
C89 C88 1.361 . S
C89 H107 0.931 . S
C90 C88 1.500 . S
C90 C91 1.371 . S
C90 C92 1.365 . S
C91 C90 1.371 . S
C91 C101 1.386 . S
C91 H109 0.931 . S
C92 C90 1.365 . S
C92 C93 1.409 . S
C92 H110 0.929 . S
C93 C92 1.409 . S
C93 C94 1.380 . S
C93 H111 0.930 . S
C94 C93 1.380 . S
C94 C101 1.357 . S
C95 C86 1.511 . S
C95 C96 1.341 . S
C95 C97 1.371 . S
C96 C95 1.341 . S
C96 C100 1.394 . S
C96 H112 0.930 . S
C97 C95 1.371 . S
C97 C98 1.392 . S
C97 H113 0.931 . S
C98 C97 1.392 . S
C98 C99 1.331 . S
C98 H116 0.932 . S
C99 C98 1.331 . S
C99 C100 1.336 . S
C100 C96 1.394 . S
C100 C99 1.336 . S
C100 H115 0.929 . S
C101 C91 1.386 . S
C101 C94 1.357 . S
C101 H114 0.928 . S
H102 C78 0.931 . S
H103 C80 0.930 . S
H104 C82 0.929 . S
H105 C83 0.931 . S
H106 C85 0.930 . S
H107 C89 0.931 . S
H108 C87 0.931 . S
H109 C91 0.931 . S
H110 C92 0.929 . S
H111 C93 0.930 . S
H112 C96 0.930 . S
H113 C97 0.931 . S
H114 C101 0.928 . S
H115 C100 0.929 . S
H116 C98 0.932 . S
C117 C118 1.386 . S
C117 C119 1.397 . S
C117 H141 0.931 . S
C118 C117 1.386 . S
C118 C122 1.397 . S
C119 C117 1.397 . S
C119 C120 1.384 . S
C119 H142 0.930 . S
C120 C119 1.384 . S
C120 C121 1.377 . S
C120 C123 1.481 . S
C121 C120 1.377 . S
C121 C122 1.389 . S
C121 H143 0.929 . S
C122 C118 1.397 . S
C122 C121 1.389 . S
C122 H144 0.931 . S
C123 C120 1.481 . S
C123 C124 1.387 . S
C123 C128 1.390 . S
C124 C123 1.387 . S
C124 C125 1.401 . S
C124 H145 0.930 . S
C125 C124 1.401 . S
C125 C126 1.376 . S
C125 C134 1.511 . S
C126 C125 1.376 . S
C126 C127 1.392 . S
C126 H147 0.931 . S
C127 C126 1.392 . S
C127 C128 1.361 . S
C127 C129 1.500 . S
C128 C123 1.390 . S
C128 C127 1.361 . S
C128 H146 0.931 . S
C129 C127 1.500 . S
C129 C130 1.371 . S
C129 C131 1.365 . S
C130 C129 1.371 . S
C130 C140 1.386 . S
C130 H148 0.931 . S
C131 C129 1.365 . S
C131 C132 1.409 . S
C131 H149 0.929 . S
C132 C131 1.409 . S
C132 C133 1.380 . S
C132 H150 0.930 . S
C133 C132 1.380 . S
C133 C140 1.357 . S
C134 C125 1.511 . S
C134 C135 1.341 . S
C134 C136 1.371 . S
C135 C134 1.341 . S
C135 C139 1.394 . S
C135 H151 0.930 . S
C136 C134 1.371 . S
C136 C137 1.392 . S
C136 H152 0.931 . S
C137 C136 1.392 . S
C137 C138 1.331 . S
C137 H155 0.932 . S
C138 C137 1.331 . S
C138 C139 1.336 . S
C139 C135 1.394 . S
C139 C138 1.336 . S
C139 H154 0.929 . S
C140 C130 1.386 . S
C140 C133 1.357 . S
C140 H153 0.928 . S
H141 C117 0.931 . S
H142 C119 0.930 . S
H143 C121 0.929 . S
H144 C122 0.931 . S
H145 C124 0.930 . S
H146 C128 0.931 . S
H147 C126 0.931 . S
H148 C130 0.931 . S
H149 C131 0.929 . S
H150 C132 0.930 . S
H151 C135 0.930 . S
H152 C136 0.931 . S
H153 C140 0.928 . S
H154 C139 0.929 . S
H155 C137 0.932 . S
C156 C157 1.386 . S
C156 C158 1.397 . S
C156 H180 0.931 . S
C157 C156 1.386 . S
C157 C161 1.397 . S
C158 C156 1.397 . S
C158 C159 1.384 . S
C158 H181 0.930 . S
C159 C158 1.384 . S
C159 C160 1.377 . S
C159 C162 1.481 . S
C160 C159 1.377 . S
C160 C161 1.389 . S
C160 H182 0.929 . S
C161 C157 1.397 . S
C161 C160 1.389 . S
C161 H183 0.931 . S
C162 C159 1.481 . S
C162 C163 1.387 . S
C162 C167 1.390 . S
C163 C162 1.387 . S
C163 C164 1.401 . S
C163 H184 0.930 . S
C164 C163 1.401 . S
C164 C165 1.376 . S
C164 C173 1.511 . S
C165 C164 1.376 . S
C165 C166 1.392 . S
C165 H186 0.931 . S
C166 C165 1.392 . S
C166 C167 1.361 . S
C166 C168 1.500 . S
C167 C162 1.390 . S
C167 C166 1.361 . S
C167 H185 0.931 . S
C168 C166 1.500 . S
C168 C169 1.371 . S
C168 C170 1.365 . S
C169 C168 1.371 . S
C169 C179 1.386 . S
C169 H187 0.931 . S
C170 C168 1.365 . S
C170 C171 1.409 . S
C170 H188 0.929 . S
C171 C170 1.409 . S
C171 C172 1.380 . S
C171 H189 0.930 . S
C172 C171 1.380 . S
C172 C179 1.357 . S
C173 C164 1.511 . S
C173 C174 1.341 . S
C173 C175 1.371 . S
C174 C173 1.341 . S
C174 C178 1.394 . S
C174 H190 0.930 . S
C175 C173 1.371 . S
C175 C176 1.392 . S
C175 H191 0.931 . S
C176 C175 1.392 . S
C176 C177 1.331 . S
C176 H194 0.932 . S
C177 C176 1.331 . S
C177 C178 1.336 . S
C178 C174 1.394 . S
C178 C177 1.336 . S
C178 H193 0.929 . S
C179 C169 1.386 . S
C179 C172 1.357 . S
C179 H192 0.928 . S
H180 C156 0.931 . S
H181 C158 0.930 . S
H182 C160 0.929 . S
H183 C161 0.931 . S
H184 C163 0.930 . S
H185 C167 0.931 . S
H186 C165 0.931 . S
H187 C169 0.931 . S
H188 C170 0.929 . S
H189 C171 0.930 . S
H190 C174 0.930 . S
H191 C175 0.931 . S
H192 C179 0.928 . S
H193 C178 0.929 . S
H194 C176 0.932 . S
C195 C196 1.386 . S
C195 C197 1.397 . S
C195 H219 0.931 . S
C196 C195 1.386 . S
C196 C200 1.397 . S
C197 C195 1.397 . S
C197 C198 1.384 . S
C197 H220 0.930 . S
C198 C197 1.384 . S
C198 C199 1.377 . S
C198 C201 1.481 . S
C199 C198 1.377 . S
C199 C200 1.389 . S
C199 H221 0.929 . S
C200 C196 1.397 . S
C200 C199 1.389 . S
C200 H222 0.931 . S
C201 C198 1.481 . S
C201 C202 1.387 . S
C201 C206 1.390 . S
C202 C201 1.387 . S
C202 C203 1.401 . S
C202 H223 0.930 . S
C203 C202 1.401 . S
C203 C204 1.376 . S
C203 C212 1.511 . S
C204 C203 1.376 . S
C204 C205 1.392 . S
C204 H225 0.931 . S
C205 C204 1.392 . S
C205 C206 1.361 . S
C205 C207 1.500 . S
C206 C201 1.390 . S
C206 C205 1.361 . S
C206 H224 0.931 . S
C207 C205 1.500 . S
C207 C208 1.371 . S
C207 C209 1.365 . S
C208 C207 1.371 . S
C208 C218 1.386 . S
C208 H226 0.931 . S
C209 C207 1.365 . S
C209 C210 1.409 . S
C209 H227 0.929 . S
C210 C209 1.409 . S
C210 C211 1.380 . S
C210 H228 0.930 . S
C211 C210 1.380 . S
C211 C218 1.357 . S
C212 C203 1.511 . S
C212 C213 1.341 . S
C212 C214 1.371 . S
C213 C212 1.341 . S
C213 C217 1.394 . S
C213 H229 0.930 . S
C214 C212 1.371 . S
C214 C215 1.392 . S
C214 H230 0.931 . S
C215 C214 1.392 . S
C215 C216 1.331 . S
C215 H233 0.932 . S
C216 C215 1.331 . S
C216 C217 1.336 . S
C217 C213 1.394 . S
C217 C216 1.336 . S
C217 H232 0.929 . S
C218 C208 1.386 . S
C218 C211 1.357 . S
C218 H231 0.928 . S
H219 C195 0.931 . S
H220 C197 0.930 . S
H221 C199 0.929 . S
H222 C200 0.931 . S
H223 C202 0.930 . S
H224 C206 0.931 . S
H225 C204 0.931 . S
H226 C208 0.931 . S
H227 C209 0.929 . S
H228 C210 0.930 . S
H229 C213 0.930 . S
H230 C214 0.931 . S
H231 C218 0.928 . S
H232 C217 0.929 . S
H233 C215 0.932 . S
C234 C235 1.386 . S
C234 C236 1.397 . S
C234 H258 0.931 . S
C235 C234 1.386 . S
C235 C239 1.397 . S
C236 C234 1.397 . S
C236 C237 1.384 . S
C236 H259 0.930 . S
C237 C236 1.384 . S
C237 C238 1.377 . S
C237 C240 1.481 . S
C238 C237 1.377 . S
C238 C239 1.389 . S
C238 H260 0.929 . S
C239 C235 1.397 . S
C239 C238 1.389 . S
C239 H261 0.931 . S
C240 C237 1.481 . S
C240 C241 1.387 . S
C240 C245 1.390 . S
C241 C240 1.387 . S
C241 C242 1.401 . S
C241 H262 0.930 . S
C242 C241 1.401 . S
C242 C243 1.376 . S
C242 C251 1.511 . S
C243 C242 1.376 . S
C243 C244 1.392 . S
C243 H264 0.931 . S
C244 C243 1.392 . S
C244 C245 1.361 . S
C244 C246 1.500 . S
C245 C240 1.390 . S
C245 C244 1.361 . S
C245 H263 0.931 . S
C246 C244 1.500 . S
C246 C247 1.371 . S
C246 C248 1.365 . S
C247 C246 1.371 . S
C247 C257 1.386 . S
C247 H265 0.931 . S
C248 C246 1.365 . S
C248 C249 1.409 . S
C248 H266 0.929 . S
C249 C248 1.409 . S
C249 C250 1.380 . S
C249 H267 0.930 . S
C250 C249 1.380 . S
C250 C257 1.357 . S
C251 C242 1.511 . S
C251 C252 1.341 . S
C251 C253 1.371 . S
C252 C251 1.341 . S
C252 C256 1.394 . S
C252 H268 0.930 . S
C253 C251 1.371 . S
C253 C254 1.392 . S
C253 H269 0.931 . S
C254 C253 1.392 . S
C254 C255 1.331 . S
C254 H272 0.932 . S
C255 C254 1.331 . S
C255 C256 1.336 . S
C256 C252 1.394 . S
C256 C255 1.336 . S
C256 H271 0.929 . S
C257 C247 1.386 . S
C257 C250 1.357 . S
C257 H270 0.928 . S
H258 C234 0.931 . S
H259 C236 0.930 . S
H260 C238 0.929 . S
H261 C239 0.931 . S
H262 C241 0.930 . S
H263 C245 0.931 . S
H264 C243 0.931 . S
H265 C247 0.931 . S
H266 C248 0.929 . S
H267 C249 0.930 . S
H268 C252 0.930 . S
H269 C253 0.931 . S
H270 C257 0.928 . S
H271 C256 0.929 . S
H272 C254 0.932 . S
C273 C274 1.386 . S
C273 C275 1.397 . S
C273 H297 0.931 . S
C274 C273 1.386 . S
C274 C278 1.397 . S
C275 C273 1.397 . S
C275 C276 1.384 . S
C275 H298 0.930 . S
C276 C275 1.384 . S
C276 C277 1.377 . S
C276 C279 1.481 . S
C277 C276 1.377 . S
C277 C278 1.389 . S
C277 H299 0.929 . S
C278 C274 1.397 . S
C278 C277 1.389 . S
C278 H300 0.931 . S
C279 C276 1.481 . S
C279 C280 1.387 . S
C279 C284 1.390 . S
C280 C279 1.387 . S
C280 C281 1.401 . S
C280 H301 0.930 . S
C281 C280 1.401 . S
C281 C282 1.376 . S
C281 C290 1.511 . S
C282 C281 1.376 . S
C282 C283 1.392 . S
C282 H303 0.931 . S
C283 C282 1.392 . S
C283 C284 1.361 . S
C283 C285 1.500 . S
C284 C279 1.390 . S
C284 C283 1.361 . S
C284 H302 0.931 . S
C285 C283 1.500 . S
C285 C286 1.371 . S
C285 C287 1.365 . S
C286 C285 1.371 . S
C286 C296 1.386 . S
C286 H304 0.931 . S
C287 C285 1.365 . S
C287 C288 1.409 . S
C287 H305 0.929 . S
C288 C287 1.409 . S
C288 C289 1.380 . S
C288 H306 0.930 . S
C289 C288 1.380 . S
C289 C296 1.357 . S
C290 C281 1.511 . S
C290 C291 1.341 . S
C290 C292 1.371 . S
C291 C290 1.341 . S
C291 C295 1.394 . S
C291 H307 0.930 . S
C292 C290 1.371 . S
C292 C293 1.392 . S
C292 H308 0.931 . S
C293 C292 1.392 . S
C293 C294 1.331 . S
C293 H311 0.932 . S
C294 C293 1.331 . S
C294 C295 1.336 . S
C295 C291 1.394 . S
C295 C294 1.336 . S
C295 H310 0.929 . S
C296 C286 1.386 . S
C296 C289 1.357 . S
C296 H309 0.928 . S
H297 C273 0.931 . S
H298 C275 0.930 . S
H299 C277 0.929 . S
H300 C278 0.931 . S
H301 C280 0.930 . S
H302 C284 0.931 . S
H303 C282 0.931 . S
H304 C286 0.931 . S
H305 C287 0.929 . S
H306 C288 0.930 . S
H307 C291 0.930 . S
H308 C292 0.931 . S
H309 C296 0.928 . S
H310 C295 0.929 . S
H311 C293 0.932 . S
Co312 N317 2.057 . S
Co312 O329 2.021 . S
Co312 O332 2.062 . S
Co312 O336 2.117 1_545 S
Co312 O337 2.020 1_545 S
C313 O333 1.259 1_655 S
C313 O336 1.258 . S
Co314 N323 2.057 . S
Co314 O330 2.117 1_565 S
Co314 O331 2.020 1_565 S
Co314 O333 2.021 . S
Co314 O338 2.062 . S
C315 N317 1.316 . S
C315 N318 1.347 . S
C315 H320 0.931 . S
C316 N317 1.375 1_565 S
C316 C319 1.350 1_565 S
C316 H321 0.930 . S
N317 Co312 2.057 . S
N317 C315 1.316 . S
N317 C316 1.375 1_545 S
N318 C315 1.347 . S
N318 C319 1.373 . S
C319 C316 1.350 1_545 S
C319 N318 1.373 . S
C319 H340 0.931 1_545 S
H320 C315 0.931 . S
H321 C316 0.930 . S
C322 O329 1.259 1_455 S
C322 O330 1.258 . S
N323 Co314 2.057 . S
N323 C324 1.316 . S
N323 C325 1.375 1_565 S
C324 N323 1.316 . S
C324 N326 1.347 . S
C324 H335 0.931 . S
C325 N323 1.375 1_545 S
C325 C327 1.350 1_545 S
C325 H334 0.930 . S
N326 C324 1.347 . S
N326 C327 1.373 . S
C327 C325 1.350 1_565 S
C327 N326 1.373 . S
C327 H341 0.931 1_565 S
C328 O331 1.256 . S
C328 O332 1.255 1_455 S
O329 Co312 2.021 . S
O329 C322 1.259 1_655 S
O330 Co314 2.117 1_545 S
O330 C322 1.258 . S
O331 Co314 2.020 1_545 S
O331 C328 1.256 . S
O332 Co312 2.062 . S
O332 C328 1.255 1_655 S
O333 C313 1.259 1_455 S
O333 Co314 2.021 . S
H334 C325 0.930 . S
H335 C324 0.931 . S
O336 Co312 2.117 1_565 S
O336 C313 1.258 . S
O337 Co312 2.020 1_565 S
O337 C339 1.256 . S
O338 Co314 2.062 . S
O338 C339 1.255 1_455 S
C339 O337 1.256 . S
C339 O338 1.255 1_655 S
H340 C319 0.931 1_565 S
H341 C327 0.931 1_545 S
Co342 N347 2.057 . S
Co342 O359 2.021 1_565 S
Co342 O362 2.062 . S
Co342 O366 2.132 . S
Co342 O367 2.020 1_565 S
C343 O363 1.259 . S
C343 O366 1.232 1_554 S
Co344 N353 2.057 . S
Co344 O360 2.117 . S
Co344 O361 2.020 1_545 S
Co344 O363 2.021 1_545 S
Co344 O368 2.062 . S
C345 N347 1.316 . S
C345 N348 1.347 . S
C345 H350 0.931 1_565 S
C346 N347 1.375 . S
C346 C349 1.350 . S
C346 H351 0.930 . S
N347 Co342 2.057 . S
N347 C345 1.316 . S
N347 C346 1.375 . S
N348 C345 1.347 . S
N348 C349 1.373 . S
C349 C346 1.350 . S
C349 N348 1.373 . S
C349 H370 0.931 . S
H350 C345 0.931 1_545 S
H351 C346 0.930 . S
C352 O359 1.259 . S
C352 O360 1.258 1_556 S
N353 Co344 2.057 . S
N353 C354 1.316 . S
N353 C355 1.375 . S
C354 N353 1.316 . S
C354 N356 1.347 . S
C354 H365 0.931 1_545 S
C355 N353 1.375 . S
C355 C357 1.350 . S
C355 H364 0.930 . S
N356 C354 1.347 . S
N356 C357 1.373 . S
C357 C355 1.350 . S
C357 N356 1.373 . S
C357 H371 0.931 . S
C358 O361 1.256 1_556 S
C358 O362 1.255 . S
O359 Co342 2.021 1_545 S
O359 C352 1.259 . S
O360 Co344 2.117 . S
O360 C352 1.258 1_554 S
O361 Co344 2.020 1_565 S
O361 C358 1.256 1_554 S
O362 Co342 2.062 . S
O362 C358 1.255 . S
O363 C343 1.259 . S
O363 Co344 2.021 1_565 S
H364 C355 0.930 . S
H365 C354 0.931 1_565 S
O366 Co342 2.132 . S
O366 C343 1.232 1_556 S
O367 Co342 2.020 1_545 S
O367 C369 1.256 1_556 S
O368 Co344 2.062 . S
O368 C369 1.255 . S
C369 O367 1.256 1_554 S
C369 O368 1.255 . S
H370 C349 0.931 . S
H371 C357 0.931 . S
Co372 N377 2.057 . S
Co372 O389 2.021 . S
Co372 O392 2.062 . S
Co372 O396 2.117 . S
Co372 O397 2.020 . S
C373 O393 1.259 . S
C373 O396 1.258 . S
Co374 N383 2.057 . S
Co374 O390 2.117 . S
Co374 O391 2.020 . S
Co374 O393 2.021 . S
Co374 O398 2.062 . S
C375 N377 1.316 . S
C375 N378 1.347 . S
C375 H380 0.931 . S
C376 N377 1.375 . S
C376 C379 1.350 . S
C376 H381 0.930 . S
N377 Co372 2.057 . S
N377 C375 1.316 . S
N377 C376 1.375 . S
N378 C375 1.347 . S
N378 C379 1.373 . S
C379 C376 1.350 . S
C379 N378 1.373 . S
C379 H400 0.931 . S
H380 C375 0.931 . S
H381 C376 0.930 . S
C382 O389 1.259 . S
C382 O390 1.258 . S
N383 Co374 2.057 . S
N383 C384 1.316 . S
N383 C385 1.375 . S
C384 N383 1.316 . S
C384 N386 1.347 . S
C384 H395 0.931 . S
C385 N383 1.375 . S
C385 C387 1.350 . S
C385 H394 0.930 . S
N386 C384 1.347 . S
N386 C387 1.373 . S
C387 C385 1.350 . S
C387 N386 1.373 . S
C387 H401 0.931 . S
C388 O391 1.256 . S
C388 O392 1.255 . S
O389 Co372 2.021 . S
O389 C382 1.259 . S
O390 Co374 2.117 . S
O390 C382 1.258 . S
O391 Co374 2.020 . S
O391 C388 1.256 . S
O392 Co372 2.062 . S
O392 C388 1.255 . S
O393 C373 1.259 . S
O393 Co374 2.021 . S
H394 C385 0.930 . S
H395 C384 0.931 . S
O396 Co372 2.117 . S
O396 C373 1.258 . S
O397 Co372 2.020 . S
O397 C399 1.256 . S
O398 Co374 2.062 . S
O398 C399 1.255 . S
C399 O397 1.256 . S
C399 O398 1.255 . S
H400 C379 0.931 . S
H401 C387 0.931 . S
Co402 N407 2.057 . S
Co402 O419 2.021 . S
Co402 O422 2.062 . S
Co402 O426 2.117 1_455 S
Co402 O427 2.020 1_455 S
C403 O423 1.259 1_556 S
C403 O426 1.258 . S
Co404 N413 2.057 . S
Co404 O420 2.117 1_655 S
Co404 O421 2.020 1_655 S
Co404 O423 2.021 . S
Co404 O428 2.062 . S
C405 N407 1.316 . S
C405 N408 1.347 . S
C405 H410 0.931 . S
C406 N407 1.375 1_655 S
C406 C409 1.350 1_655 S
C406 H411 0.930 . S
N407 Co402 2.057 . S
N407 C405 1.316 . S
N407 C406 1.375 1_455 S
N408 C405 1.347 . S
N408 C409 1.373 . S
C409 C406 1.350 1_455 S
C409 N408 1.373 . S
C409 H430 0.931 1_455 S
H410 C405 0.931 . S
H411 C406 0.930 . S
C412 O419 1.259 1_554 S
C412 O420 1.258 . S
N413 Co404 2.057 . S
N413 C414 1.316 . S
N413 C415 1.375 1_655 S
C414 N413 1.316 . S
C414 N416 1.347 . S
C414 H425 0.931 . S
C415 N413 1.375 1_455 S
C415 C417 1.350 1_455 S
C415 H424 0.930 . S
N416 C414 1.347 . S
N416 C417 1.373 . S
C417 C415 1.350 1_655 S
C417 N416 1.373 . S
C417 H431 0.931 1_655 S
C418 O421 1.256 . S
C418 O422 1.255 1_554 S
O419 Co402 2.021 . S
O419 C412 1.259 1_556 S
O420 Co404 2.117 1_455 S
O420 C412 1.258 . S
O421 Co404 2.020 1_455 S
O421 C418 1.256 . S
O422 Co402 2.062 . S
O422 C418 1.255 1_556 S
O423 C403 1.259 1_554 S
O423 Co404 2.021 . S
H424 C415 0.930 . S
H425 C414 0.931 . S
O426 Co402 2.117 1_655 S
O426 C403 1.258 . S
O427 Co402 2.020 1_655 S
O427 C429 1.256 . S
O428 Co404 2.062 . S
O428 C429 1.255 1_554 S
C429 O427 1.256 . S
C429 O428 1.255 1_556 S
H430 C409 0.931 1_655 S
H431 C417 0.931 1_455 S
H432 C444 0.930 . S
H433 C446 0.930 . S
H434 C447 0.930 1_565 S
H435 C451 0.959 . S
H436 C451 0.959 . S
H437 C451 0.961 . S
H438 C452 0.960 . S
H439 C452 0.961 . S
H440 C452 0.959 . S
H441 C455 0.929 . S
H442 C456 0.931 . S
H443 C458 0.930 . S
C444 H432 0.930 . S
C444 C445 1.399 . S
C444 C449 1.399 . S
C445 C444 1.399 . S
C445 C446 1.376 . S
C446 H433 0.930 . S
C446 C445 1.376 . S
C446 C447 1.388 . S
C447 H434 0.930 1_545 S
C447 C446 1.388 . S
C447 C448 1.390 . S
C448 C447 1.390 . S
C448 C449 1.394 . S
C448 C454 1.465 . S
C449 C444 1.399 . S
C449 C448 1.394 . S
C449 C450 1.516 . S
C450 C449 1.516 . S
C450 C451 1.502 . S
C450 C452 1.561 . S
C450 C453 1.526 . S
C451 H435 0.959 . S
C451 H436 0.959 . S
C451 H437 0.961 . S
C451 C450 1.502 . S
C452 H438 0.960 . S
C452 H439 0.961 . S
C452 H440 0.959 . S
C452 C450 1.561 . S
C453 C450 1.526 . S
C453 C454 1.396 . S
C453 C458 1.390 . S
C454 C448 1.465 . S
C454 C453 1.396 . S
C454 C455 1.399 1_545 S
C455 H441 0.929 . S
C455 C454 1.399 1_565 S
C455 C456 1.385 . S
C456 H442 0.931 . S
C456 C455 1.385 . S
C456 C457 1.389 1_565 S
C457 C456 1.389 1_545 S
C457 C458 1.387 . S
C458 H443 0.930 . S
C458 C453 1.390 . S
C458 C457 1.387 . S
H459 C471 0.930 . S
H460 C473 0.930 . S
H461 C474 0.930 . S
H462 C478 0.959 . S
H463 C478 0.959 . S
H464 C478 0.961 . S
H465 C479 0.960 . S
H466 C479 0.961 . S
H467 C479 0.959 . S
H468 C482 0.929 . S
H469 C483 0.931 . S
H470 C485 0.930 . S
C471 H459 0.930 . S
C471 C472 1.399 . S
C471 C476 1.399 . S
C472 C471 1.399 . S
C472 C473 1.376 . S
C473 H460 0.930 . S
C473 C472 1.376 . S
C473 C474 1.388 . S
C474 H461 0.930 . S
C474 C473 1.388 . S
C474 C475 1.390 . S
C475 C474 1.390 . S
C475 C476 1.394 . S
C475 C481 1.465 . S
C476 C471 1.399 . S
C476 C475 1.394 . S
C476 C477 1.516 . S
C477 C476 1.516 . S
C477 C478 1.502 . S
C477 C479 1.561 . S
C477 C480 1.526 . S
C478 H462 0.959 . S
C478 H463 0.959 . S
C478 H464 0.961 . S
C478 C477 1.502 . S
C479 H465 0.960 . S
C479 H466 0.961 . S
C479 H467 0.959 . S
C479 C477 1.561 . S
C480 C477 1.526 . S
C480 C481 1.396 . S
C480 C485 1.390 . S
C481 C475 1.465 . S
C481 C480 1.396 . S
C481 C482 1.399 . S
C482 H468 0.929 . S
C482 C481 1.399 . S
C482 C483 1.385 . S
C483 H469 0.931 . S
C483 C482 1.385 . S
C483 C484 1.389 . S
C484 C483 1.389 . S
C484 C485 1.387 . S
C485 H470 0.930 . S
C485 C480 1.390 . S
C485 C484 1.387 . S
H486 C498 0.930 . S
H487 C500 0.930 . S
H488 C501 0.930 . S
H489 C505 0.959 . S
H490 C505 0.959 . S
H491 C505 0.961 . S
H492 C506 0.960 . S
H493 C506 0.961 . S
H494 C506 0.959 . S
H495 C509 0.929 . S
H496 C510 0.931 . S
H497 C512 0.930 . S
C498 H486 0.930 . S
C498 C499 1.399 . S
C498 C503 1.399 . S
C499 C498 1.399 . S
C499 C500 1.376 . S
C500 H487 0.930 . S
C500 C499 1.376 . S
C500 C501 1.388 . S
C501 H488 0.930 . S
C501 C500 1.388 . S
C501 C502 1.390 . S
C502 C501 1.390 . S
C502 C503 1.394 . S
C502 C508 1.465 . S
C503 C498 1.399 . S
C503 C502 1.394 . S
C503 C504 1.516 . S
C504 C503 1.516 . S
C504 C505 1.502 . S
C504 C506 1.561 . S
C504 C507 1.526 . S
C505 H489 0.959 . S
C505 H490 0.959 . S
C505 H491 0.961 . S
C505 C504 1.502 . S
C506 H492 0.960 . S
C506 H493 0.961 . S
C506 H494 0.959 . S
C506 C504 1.561 . S
C507 C504 1.526 . S
C507 C508 1.396 . S
C507 C512 1.390 . S
C508 C502 1.465 . S
C508 C507 1.396 . S
C508 C509 1.399 . S
C509 H495 0.929 . S
C509 C508 1.399 . S
C509 C510 1.385 . S
C510 H496 0.931 . S
C510 C509 1.385 . S
C510 C511 1.389 . S
C511 C510 1.389 . S
C511 C512 1.387 . S
C512 H497 0.930 . S
C512 C507 1.390 . S
C512 C511 1.387 . S
H513 C525 0.930 . S
H514 C527 0.930 . S
H515 C528 0.930 . S
H516 C532 0.959 1_455 S
H517 C532 0.959 . S
H518 C532 0.961 . S
H519 C533 0.960 . S
H520 C533 0.961 . S
H521 C533 0.959 . S
H522 C536 0.929 . S
H523 C537 0.931 . S
H524 C539 0.930 . S
C525 H513 0.930 . S
C525 C526 1.399 . S
C525 C530 1.399 . S
C526 C525 1.399 . S
C526 C527 1.376 . S
C527 H514 0.930 . S
C527 C526 1.376 . S
C527 C528 1.388 . S
C528 H515 0.930 . S
C528 C527 1.388 . S
C528 C529 1.390 . S
C529 C528 1.390 . S
C529 C530 1.394 . S
C529 C535 1.465 . S
C530 C525 1.399 . S
C530 C529 1.394 . S
C530 C531 1.516 . S
C531 C530 1.516 . S
C531 C532 1.502 . S
C531 C533 1.561 . S
C531 C534 1.526 . S
C532 H516 0.959 1_655 S
C532 H517 0.959 . S
C532 H518 0.961 . S
C532 C531 1.502 . S
C533 H519 0.960 . S
C533 H520 0.961 . S
C533 H521 0.959 . S
C533 C531 1.561 . S
C534 C531 1.526 . S
C534 C535 1.396 . S
C534 C539 1.390 . S
C535 C529 1.465 . S
C535 C534 1.396 . S
C535 C536 1.399 . S
C536 H522 0.929 . S
C536 C535 1.399 . S
C536 C537 1.385 . S
C537 H523 0.931 . S
C537 C536 1.385 . S
C537 C538 1.389 . S
C538 C537 1.389 . S
C538 C539 1.387 . S
C539 H524 0.930 . S
C539 C534 1.390 . S
C539 C538 1.387 . S
H540 C552 0.930 . S
H541 C554 0.930 . S
H542 C555 0.930 . S
H543 C559 0.959 . S
H544 C559 0.959 . S
H545 C559 0.961 . S
H546 C560 0.960 . S
H547 C560 0.961 . S
H548 C560 0.959 . S
H549 C563 0.929 1_565 S
H550 C564 0.931 1_566 S
H551 C566 0.930 . S
C552 H540 0.930 . S
C552 C553 1.399 . S
C552 C557 1.399 . S
C553 C552 1.399 . S
C553 C554 1.376 . S
C554 H541 0.930 . S
C554 C553 1.376 . S
C554 C555 1.388 . S
C555 H542 0.930 . S
C555 C554 1.388 . S
C555 C556 1.390 . S
C556 C555 1.390 . S
C556 C557 1.394 . S
C556 C562 1.465 . S
C557 C552 1.399 . S
C557 C556 1.394 . S
C557 C558 1.516 . S
C558 C557 1.516 . S
C558 C559 1.502 . S
C558 C560 1.561 . S
C558 C561 1.526 . S
C559 H543 0.959 . S
C559 H544 0.959 . S
C559 H545 0.961 . S
C559 C558 1.502 . S
C560 H546 0.960 . S
C560 H547 0.961 . S
C560 H548 0.959 . S
C560 C558 1.561 . S
C561 C558 1.526 . S
C561 C562 1.396 . S
C561 C566 1.390 . S
C562 C556 1.465 . S
C562 C561 1.396 . S
C562 C563 1.399 . S
C563 H549 0.929 1_545 S
C563 C562 1.399 . S
C563 C564 1.385 . S
C564 H550 0.931 1_544 S
C564 C563 1.385 . S
C564 C565 1.389 . S
C565 C564 1.389 . S
C565 C566 1.387 . S
C566 H551 0.930 . S
C566 C561 1.390 . S
C566 C565 1.387 . S
H567 C579 0.930 . S
H568 C581 0.930 . S
H569 C582 0.930 . S
H570 C586 0.959 . S
H571 C586 0.959 . S
H572 C586 0.961 . S
H573 C587 0.960 . S
H574 C587 0.961 . S
H575 C587 0.959 . S
H576 C590 0.929 . S
H577 C591 0.931 . S
H578 C593 0.930 . S
C579 H567 0.930 . S
C579 C580 1.399 . S
C579 C584 1.399 . S
C580 C579 1.399 . S
C580 C581 1.376 . S
C581 H568 0.930 . S
C581 C580 1.376 . S
C581 C582 1.388 . S
C582 H569 0.930 . S
C582 C581 1.388 . S
C582 C583 1.390 . S
C583 C582 1.390 . S
C583 C584 1.394 . S
C583 C589 1.465 . S
C584 C579 1.399 . S
C584 C583 1.394 . S
C584 C585 1.516 . S
C585 C584 1.516 . S
C585 C586 1.502 . S
C585 C587 1.561 . S
C585 C588 1.526 . S
C586 H570 0.959 . S
C586 H571 0.959 . S
C586 H572 0.961 . S
C586 C585 1.502 . S
C587 H573 0.960 . S
C587 H574 0.961 . S
C587 H575 0.959 . S
C587 C585 1.561 . S
C588 C585 1.526 . S
C588 C589 1.396 . S
C588 C593 1.390 . S
C589 C583 1.465 . S
C589 C588 1.396 . S
C589 C590 1.399 . S
C590 H576 0.929 . S
C590 C589 1.399 . S
C590 C591 1.385 . S
C591 H577 0.931 . S
C591 C590 1.385 . S
C591 C592 1.389 . S
C592 C591 1.389 . S
C592 C593 1.387 . S
C593 H578 0.930 . S
C593 C588 1.390 . S
C593 C592 1.387 . S
H594 C606 0.930 . S
H595 C608 0.930 . S
H596 C609 0.930 . S
H597 C613 0.959 . S
H598 C613 0.959 . S
H599 C613 0.961 . S
H600 C614 0.960 . S
H601 C614 0.961 . S
H602 C614 0.959 . S
H603 C617 0.929 1_554 S
H604 C618 0.918 1_554 S
H605 C620 0.930 . S
C606 H594 0.930 . S
C606 C607 1.399 . S
C606 C611 1.399 . S
C607 C606 1.399 . S
C607 C608 1.376 . S
C608 H595 0.930 . S
C608 C607 1.376 . S
C608 C609 1.388 . S
C609 H596 0.930 . S
C609 C608 1.388 . S
C609 C610 1.390 . S
C610 C609 1.390 . S
C610 C611 1.394 . S
C610 C616 1.465 . S
C611 C606 1.399 . S
C611 C610 1.394 . S
C611 C612 1.516 . S
C612 C611 1.516 . S
C612 C613 1.502 . S
C612 C614 1.561 . S
C612 C615 1.526 . S
C613 H597 0.959 . S
C613 H598 0.959 . S
C613 H599 0.961 . S
C613 C612 1.502 . S
C614 H600 0.960 . S
C614 H601 0.961 . S
C614 H602 0.959 . S
C614 C612 1.561 . S
C615 C612 1.526 . S
C615 C616 1.396 . S
C615 C620 1.390 . S
C616 C610 1.465 . S
C616 C615 1.396 . S
C616 C617 1.399 . S
C617 H603 0.929 1_556 S
C617 C616 1.399 . S
C617 C618 1.387 . S
C618 H604 0.918 1_556 S
C618 C617 1.387 . S
C618 C619 1.400 . S
C619 C618 1.400 . S
C619 C620 1.387 . S
C620 H605 0.930 . S
C620 C615 1.390 . S
C620 C619 1.387 . S
H621 C633 0.930 . S
H622 C635 0.930 . S
H623 C636 0.930 . S
H624 C640 0.959 . S
H625 C640 0.959 . S
H626 C640 0.961 . S
H627 C641 0.960 . S
H628 C641 0.961 . S
H629 C641 0.959 . S
H630 C644 0.929 . S
H631 C645 0.931 . S
H632 C647 0.930 . S
C633 H621 0.930 . S
C633 C634 1.399 . S
C633 C638 1.399 . S
C634 C633 1.399 . S
C634 C635 1.376 . S
C635 H622 0.930 . S
C635 C634 1.376 . S
C635 C636 1.388 . S
C636 H623 0.930 . S
C636 C635 1.388 . S
C636 C637 1.390 . S
C637 C636 1.390 . S
C637 C638 1.394 . S
C637 C643 1.465 . S
C638 C633 1.399 . S
C638 C637 1.394 . S
C638 C639 1.516 . S
C639 C638 1.516 . S
C639 C640 1.502 . S
C639 C641 1.561 . S
C639 C642 1.526 . S
C640 H624 0.959 . S
C640 H625 0.959 . S
C640 H626 0.961 . S
C640 C639 1.502 . S
C641 H627 0.960 . S
C641 H628 0.961 . S
C641 H629 0.959 . S
C641 C639 1.561 . S
C642 C639 1.526 . S
C642 C643 1.396 . S
C642 C647 1.390 . S
C643 C637 1.465 . S
C643 C642 1.396 . S
C643 C644 1.399 . S
C644 H630 0.929 . S
C644 C643 1.399 . S
C644 C645 1.385 . S
C645 H631 0.931 . S
C645 C644 1.385 . S
C645 C646 1.389 . S
C646 C645 1.389 . S
C646 C647 1.387 . S
C647 H632 0.930 . S
C647 C642 1.390 . S
C647 C646 1.387 . S
H648 C660 0.930 . S
H649 C662 0.930 . S
H650 C663 0.930 . S
H651 C667 0.959 1_554 S
H652 C667 0.959 . S
H653 C667 0.961 . S
H654 C668 0.960 . S
H655 C668 0.961 . S
H656 C668 0.959 . S
H657 C671 0.929 . S
H658 C672 0.931 . S
H659 C674 0.930 1_556 S
C660 H648 0.930 . S
C660 C661 1.399 . S
C660 C665 1.399 . S
C661 C660 1.399 . S
C661 C662 1.376 . S
C662 H649 0.930 . S
C662 C661 1.376 . S
C662 C663 1.388 . S
C663 H650 0.930 . S
C663 C662 1.388 . S
C663 C664 1.390 . S
C664 C663 1.390 . S
C664 C665 1.394 . S
C664 C670 1.465 . S
C665 C660 1.399 . S
C665 C664 1.394 . S
C665 C666 1.516 . S
C666 C665 1.516 . S
C666 C667 1.502 1_554 S
C666 C668 1.561 1_554 S
C666 C669 1.526 . S
C667 H651 0.959 1_556 S
C667 H652 0.959 . S
C667 H653 0.961 . S
C667 C666 1.502 1_556 S
C668 H654 0.960 . S
C668 H655 0.961 . S
C668 H656 0.959 . S
C668 C666 1.561 1_556 S
C669 C666 1.526 . S
C669 C670 1.396 . S
C669 C674 1.390 . S
C670 C664 1.465 . S
C670 C669 1.396 . S
C670 C671 1.399 . S
C671 H657 0.929 . S
C671 C670 1.399 . S
C671 C672 1.385 . S
C672 H658 0.931 . S
C672 C671 1.385 . S
C672 C673 1.389 . S
C673 C672 1.389 . S
C673 C674 1.387 . S
C674 H659 0.930 1_554 S
C674 C669 1.390 . S
C674 C673 1.387 . S
H675 C687 0.930 . S
H676 C689 0.930 . S
H677 C690 0.930 . S
H678 C694 0.959 . S
H679 C694 0.959 . S
H680 C694 0.961 . S
H681 C695 0.960 . S
H682 C695 0.961 . S
H683 C695 0.959 . S
H684 C698 0.929 . S
H685 C699 0.931 . S
H686 C701 0.930 . S
C687 H675 0.930 . S
C687 C688 1.399 . S
C687 C692 1.399 . S
C688 C687 1.399 . S
C688 C689 1.376 . S
C689 H676 0.930 . S
C689 C688 1.376 . S
C689 C690 1.388 . S
C690 H677 0.930 . S
C690 C689 1.388 . S
C690 C691 1.390 . S
C691 C690 1.390 . S
C691 C692 1.394 . S
C691 C697 1.465 . S
C692 C687 1.399 . S
C692 C691 1.394 . S
C692 C693 1.516 . S
C693 C692 1.516 . S
C693 C694 1.502 . S
C693 C695 1.561 . S
C693 C696 1.526 . S
C694 H678 0.959 . S
C694 H679 0.959 . S
C694 H680 0.961 . S
C694 C693 1.502 . S
C695 H681 0.960 . S
C695 H682 0.961 . S
C695 H683 0.959 . S
C695 C693 1.561 . S
C696 C693 1.526 . S
C696 C697 1.396 . S
C696 C701 1.390 . S
C697 C691 1.465 . S
C697 C696 1.396 . S
C697 C698 1.399 . S
C698 H684 0.929 . S
C698 C697 1.399 . S
C698 C699 1.385 . S
C699 H685 0.931 . S
C699 C698 1.385 . S
C699 C700 1.389 . S
C700 C699 1.389 . S
C700 C701 1.387 . S
C701 H686 0.930 . S
C701 C696 1.390 . S
C701 C700 1.387 . S
H702 C714 0.930 . S
H703 C716 0.930 . S
H704 C717 0.930 . S
H705 C721 0.959 . S
H706 C721 0.959 . S
H707 C721 0.961 . S
H708 C722 0.960 . S
H709 C722 0.961 . S
H710 C722 0.959 . S
H711 C725 0.929 1_455 S
H712 C726 0.931 1_455 S
H713 C728 0.930 . S
C714 H702 0.930 . S
C714 C715 1.399 . S
C714 C719 1.399 . S
C715 C714 1.399 . S
C715 C716 1.376 . S
C716 H703 0.930 . S
C716 C715 1.376 . S
C716 C717 1.388 . S
C717 H704 0.930 . S
C717 C716 1.388 . S
C717 C718 1.390 . S
C718 C717 1.390 . S
C718 C719 1.394 . S
C718 C724 1.465 . S
C719 C714 1.399 . S
C719 C718 1.394 . S
C719 C720 1.516 . S
C720 C719 1.516 . S
C720 C721 1.502 . S
C720 C722 1.561 . S
C720 C723 1.526 . S
C721 H705 0.959 . S
C721 H706 0.959 . S
C721 H707 0.961 . S
C721 C720 1.502 . S
C722 H708 0.960 . S
C722 H709 0.961 . S
C722 H710 0.959 . S
C722 C720 1.561 . S
C723 C720 1.526 . S
C723 C724 1.396 . S
C723 C728 1.390 . S
C724 C718 1.465 . S
C724 C723 1.396 . S
C724 C725 1.399 . S
C725 H711 0.929 1_655 S
C725 C724 1.399 . S
C725 C726 1.385 . S
C726 H712 0.931 1_655 S
C726 C725 1.385 . S
C726 C727 1.389 . S
C727 C726 1.389 . S
C727 C728 1.387 . S
C728 H713 0.930 . S
C728 C723 1.390 . S
C728 C727 1.387 . S
H729 C741 0.930 . S
H730 C743 0.930 . S
H731 C744 0.930 . S
H732 C748 0.959 . S
H733 C748 0.959 . S
H734 C748 0.961 . S
H735 C749 0.960 . S
H736 C749 0.961 . S
H737 C749 0.959 . S
H738 C752 0.929 . S
H739 C753 0.931 . S
H740 C755 0.930 . S
C741 H729 0.930 . S
C741 C742 1.399 . S
C741 C746 1.399 . S
C742 C741 1.399 . S
C742 C743 1.376 . S
C743 H730 0.930 . S
C743 C742 1.376 . S
C743 C744 1.388 . S
C744 H731 0.930 . S
C744 C743 1.388 . S
C744 C745 1.390 . S
C745 C744 1.390 . S
C745 C746 1.394 . S
C745 C751 1.465 . S
C746 C741 1.399 . S
C746 C745 1.394 . S
C746 C747 1.516 . S
C747 C746 1.516 . S
C747 C748 1.502 . S
C747 C749 1.561 . S
C747 C750 1.526 . S
C748 H732 0.959 . S
C748 H733 0.959 . S
C748 H734 0.961 . S
C748 C747 1.502 . S
C749 H735 0.960 . S
C749 H736 0.961 . S
C749 H737 0.959 . S
C749 C747 1.561 . S
C750 C747 1.526 . S
C750 C751 1.396 . S
C750 C755 1.390 . S
C751 C745 1.465 . S
C751 C750 1.396 . S
C751 C752 1.399 . S
C752 H738 0.929 . S
C752 C751 1.399 . S
C752 C753 1.385 . S
C753 H739 0.931 . S
C753 C752 1.385 . S
C753 C754 1.389 . S
C754 C753 1.389 . S
C754 C755 1.387 . S
C755 H740 0.930 . S
C755 C750 1.390 . S
C755 C754 1.387 . S
H756 C768 0.930 . S
H757 C770 0.930 . S
H758 C771 0.930 1_545 S
H759 C775 0.959 1_455 S
H760 C775 0.959 . S
H761 C775 0.961 . S
H762 C776 0.960 . S
H763 C776 0.961 . S
H764 C776 0.959 . S
H765 C779 0.929 . S
H766 C780 0.931 . S
H767 C782 0.930 . S
C768 H756 0.930 . S
C768 C769 1.399 . S
C768 C773 1.399 . S
C769 C768 1.399 . S
C769 C770 1.376 . S
C770 H757 0.930 . S
C770 C769 1.376 . S
C770 C771 1.388 . S
C771 H758 0.930 1_565 S
C771 C770 1.388 . S
C771 C772 1.390 . S
C772 C771 1.390 . S
C772 C773 1.394 . S
C772 C778 1.465 . S
C773 C768 1.399 . S
C773 C772 1.394 . S
C773 C774 1.516 . S
C774 C773 1.516 . S
C774 C775 1.502 . S
C774 C776 1.561 . S
C774 C777 1.526 . S
C775 H759 0.959 1_655 S
C775 H760 0.959 . S
C775 H761 0.961 . S
C775 C774 1.502 . S
C776 H762 0.960 . S
C776 H763 0.961 . S
C776 H764 0.959 . S
C776 C774 1.561 . S
C777 C774 1.526 . S
C777 C778 1.396 . S
C777 C782 1.390 . S
C778 C772 1.465 . S
C778 C777 1.396 . S
C778 C779 1.399 1_565 S
C779 H765 0.929 . S
C779 C778 1.399 1_545 S
C779 C780 1.385 . S
C780 H766 0.931 . S
C780 C779 1.385 . S
C780 C781 1.389 1_545 S
C781 C780 1.389 1_565 S
C781 C782 1.387 . S
C782 H767 0.930 . S
C782 C777 1.390 . S
C782 C781 1.387 . S
H783 C795 0.930 . S
H784 C797 0.930 . S
H785 C798 0.930 . S
H786 C802 0.959 . S
H787 C802 0.959 1_565 S
H788 C802 0.961 . S
H789 C803 0.960 . S
H790 C803 0.961 1_565 S
H791 C803 0.959 . S
H792 C806 0.929 . S
H793 C807 0.931 . S
H794 C809 0.930 . S
C795 H783 0.930 . S
C795 C796 1.399 . S
C795 C800 1.399 . S
C796 C795 1.399 . S
C796 C797 1.376 . S
C797 H784 0.930 . S
C797 C796 1.376 . S
C797 C798 1.388 . S
C798 H785 0.930 . S
C798 C797 1.388 . S
C798 C799 1.390 . S
C799 C798 1.390 . S
C799 C800 1.394 . S
C799 C805 1.465 . S
C800 C795 1.399 . S
C800 C799 1.394 . S
C800 C801 1.516 . S
C801 C800 1.516 . S
C801 C802 1.502 . S
C801 C803 1.561 . S
C801 C804 1.526 . S
C802 H786 0.959 . S
C802 H787 0.959 1_545 S
C802 H788 0.961 . S
C802 C801 1.502 . S
C803 H789 0.960 . S
C803 H790 0.961 1_545 S
C803 H791 0.959 . S
C803 C801 1.561 . S
C804 C801 1.526 . S
C804 C805 1.396 . S
C804 C809 1.390 . S
C805 C799 1.465 . S
C805 C804 1.396 . S
C805 C806 1.399 . S
C806 H792 0.929 . S
C806 C805 1.399 . S
C806 C807 1.385 . S
C807 H793 0.931 . S
C807 C806 1.385 . S
C807 C808 1.389 . S
C808 C807 1.389 . S
C808 C809 1.387 . S
C809 H794 0.930 . S
C809 C804 1.390 . S
C809 C808 1.387 . S
H810 C822 0.930 . S
H811 C824 0.930 . S
H812 C825 0.930 . S
H813 C829 0.959 . S
H814 C829 0.959 . S
H815 C829 0.961 . S
H816 C830 0.960 . S
H817 C830 0.961 . S
H818 C830 0.959 . S
H819 C833 0.929 . S
H820 C834 0.931 . S
H821 C836 0.930 . S
C822 H810 0.930 . S
C822 C823 1.399 . S
C822 C827 1.399 . S
C823 C822 1.399 . S
C823 C824 1.376 . S
C824 H811 0.930 . S
C824 C823 1.376 . S
C824 C825 1.388 . S
C825 H812 0.930 . S
C825 C824 1.388 . S
C825 C826 1.390 . S
C826 C825 1.390 . S
C826 C827 1.394 . S
C826 C832 1.465 . S
C827 C822 1.399 . S
C827 C826 1.394 . S
C827 C828 1.516 . S
C828 C827 1.516 . S
C828 C829 1.502 . S
C828 C830 1.561 . S
C828 C831 1.526 . S
C829 H813 0.959 . S
C829 H814 0.959 . S
C829 H815 0.961 . S
C829 C828 1.502 . S
C830 H816 0.960 . S
C830 H817 0.961 . S
C830 H818 0.959 . S
C830 C828 1.561 . S
C831 C828 1.526 . S
C831 C832 1.396 . S
C831 C836 1.390 . S
C832 C826 1.465 . S
C832 C831 1.396 . S
C832 C833 1.399 . S
C833 H819 0.929 . S
C833 C832 1.399 . S
C833 C834 1.385 . S
C834 H820 0.931 . S
C834 C833 1.385 . S
C834 C835 1.389 . S
C835 C834 1.389 . S
C835 C836 1.387 . S
C836 H821 0.930 . S
C836 C831 1.390 . S
C836 C835 1.387 . S
H837 C849 0.930 . S
H838 C851 0.930 . S
H839 C852 0.930 . S
H840 C856 0.959 . S
H841 C856 0.959 . S
H842 C856 0.961 . S
H843 C857 0.960 . S
H844 C857 0.961 . S
H845 C857 0.959 . S
H846 C860 0.929 . S
H847 C861 0.931 . S
H848 C863 0.930 . S
C849 H837 0.930 . S
C849 C850 1.399 . S
C849 C854 1.399 . S
C850 C849 1.399 . S
C850 C851 1.376 . S
C851 H838 0.930 . S
C851 C850 1.376 . S
C851 C852 1.388 . S
C852 H839 0.930 . S
C852 C851 1.388 . S
C852 C853 1.390 . S
C853 C852 1.390 . S
C853 C854 1.394 . S
C853 C859 1.465 . S
C854 C849 1.399 . S
C854 C853 1.394 . S
C854 C855 1.516 . S
C855 C854 1.516 . S
C855 C856 1.502 . S
C855 C857 1.561 . S
C855 C858 1.526 . S
C856 H840 0.959 . S
C856 H841 0.959 . S
C856 H842 0.961 . S
C856 C855 1.502 . S
C857 H843 0.960 . S
C857 H844 0.961 . S
C857 H845 0.959 . S
C857 C855 1.561 . S
C858 C855 1.526 . S
C858 C859 1.396 . S
C858 C863 1.390 . S
C859 C853 1.465 . S
C859 C858 1.396 . S
C859 C860 1.399 . S
C860 H846 0.929 . S
C860 C859 1.399 . S
C860 C861 1.385 . S
C861 H847 0.931 . S
C861 C860 1.385 . S
C861 C862 1.389 . S
C862 C861 1.389 . S
C862 C863 1.387 . S
C863 H848 0.930 . S
C863 C858 1.390 . S
C863 C862 1.387 . S
H864 C876 0.930 . S
H865 C878 0.930 . S
H866 C879 0.930 . S
H867 C883 0.959 1_556 S
H868 C883 0.959 . S
H869 C883 0.961 . S
H870 C884 0.960 . S
H871 C884 0.961 . S
H872 C884 0.959 . S
H873 C887 0.929 . S
H874 C888 0.931 . S
H875 C890 0.930 1_554 S
C876 H864 0.930 . S
C876 C877 1.399 . S
C876 C881 1.399 . S
C877 C876 1.399 . S
C877 C878 1.376 . S
C878 H865 0.930 . S
C878 C877 1.376 . S
C878 C879 1.388 . S
C879 H866 0.930 . S
C879 C878 1.388 . S
C879 C880 1.390 . S
C880 C879 1.390 . S
C880 C881 1.394 . S
C880 C886 1.465 . S
C881 C876 1.399 . S
C881 C880 1.394 . S
C881 C882 1.516 . S
C882 C881 1.516 . S
C882 C883 1.502 1_556 S
C882 C884 1.561 1_556 S
C882 C885 1.526 . S
C883 H867 0.959 1_554 S
C883 H868 0.959 . S
C883 H869 0.961 . S
C883 C882 1.502 1_554 S
C884 H870 0.960 . S
C884 H871 0.961 . S
C884 H872 0.959 . S
C884 C882 1.561 1_554 S
C885 C882 1.526 . S
C885 C886 1.396 . S
C885 C890 1.390 . S
C886 C880 1.465 . S
C886 C885 1.396 . S
C886 C887 1.399 . S
C887 H873 0.929 . S
C887 C886 1.399 . S
C887 C888 1.385 . S
C888 H874 0.931 . S
C888 C887 1.385 . S
C888 C889 1.389 . S
C889 C888 1.389 . S
C889 C890 1.387 . S
C890 H875 0.930 1_556 S
C890 C885 1.390 . S
C890 C889 1.387 . S
H891 C903 0.930 . S
H892 C905 0.930 . S
H893 C906 0.930 . S
H894 C910 0.959 . S
H895 C910 0.959 . S
H896 C910 0.961 . S
H897 C911 0.960 . S
H898 C911 0.961 . S
H899 C911 0.959 . S
H900 C914 0.929 . S
H901 C915 0.931 . S
H902 C917 0.930 . S
C903 H891 0.930 . S
C903 C904 1.399 . S
C903 C908 1.399 . S
C904 C903 1.399 . S
C904 C905 1.376 . S
C905 H892 0.930 . S
C905 C904 1.376 . S
C905 C906 1.388 . S
C906 H893 0.930 . S
C906 C905 1.388 . S
C906 C907 1.390 . S
C907 C906 1.390 . S
C907 C908 1.394 . S
C907 C913 1.465 . S
C908 C903 1.399 . S
C908 C907 1.394 . S
C908 C909 1.516 . S
C909 C908 1.516 . S
C909 C910 1.502 . S
C909 C911 1.561 . S
C909 C912 1.526 . S
C910 H894 0.959 . S
C910 H895 0.959 . S
C910 H896 0.961 . S
C910 C909 1.502 . S
C911 H897 0.960 . S
C911 H898 0.961 . S
C911 H899 0.959 . S
C911 C909 1.561 . S
C912 C909 1.526 . S
C912 C913 1.396 . S
C912 C917 1.390 . S
C913 C907 1.465 . S
C913 C912 1.396 . S
C913 C914 1.399 . S
C914 H900 0.929 . S
C914 C913 1.399 . S
C914 C915 1.385 . S
C915 H901 0.931 . S
C915 C914 1.385 . S
C915 C916 1.389 . S
C916 C915 1.389 . S
C916 C917 1.387 . S
C917 H902 0.930 . S
C917 C912 1.390 . S
C917 C916 1.387 . S
H918 C930 0.930 . S
H919 C932 0.930 . S
H920 C933 0.930 . S
H921 C937 0.959 . S
H922 C937 0.959 . S
H923 C937 0.961 . S
H924 C938 0.960 . S
H925 C938 0.961 . S
H926 C938 0.959 . S
H927 C941 0.929 . S
H928 C942 0.931 1_556 S
H929 C944 0.930 . S
C930 H918 0.930 . S
C930 C931 1.399 . S
C930 C935 1.399 . S
C931 C930 1.399 . S
C931 C932 1.376 . S
C932 H919 0.930 . S
C932 C931 1.376 . S
C932 C933 1.388 . S
C933 H920 0.930 . S
C933 C932 1.388 . S
C933 C934 1.390 . S
C934 C933 1.390 . S
C934 C935 1.394 . S
C934 C940 1.465 . S
C935 C930 1.399 . S
C935 C934 1.394 . S
C935 C936 1.516 . S
C936 C935 1.516 . S
C936 C937 1.502 . S
C936 C938 1.561 . S
C936 C939 1.526 . S
C937 H921 0.959 . S
C937 H922 0.959 . S
C937 H923 0.961 . S
C937 C936 1.502 . S
C938 H924 0.960 . S
C938 H925 0.961 . S
C938 H926 0.959 . S
C938 C936 1.561 . S
C939 C936 1.526 . S
C939 C940 1.396 . S
C939 C944 1.390 . S
C940 C934 1.465 . S
C940 C939 1.396 . S
C940 C941 1.399 . S
C941 H927 0.929 . S
C941 C940 1.399 . S
C941 C942 1.385 . S
C942 H928 0.931 1_554 S
C942 C941 1.385 . S
C942 C943 1.389 . S
C943 C942 1.389 . S
C943 C944 1.387 . S
C944 H929 0.930 . S
C944 C939 1.390 . S
C944 C943 1.387 . S
H945 C957 0.930 . S
H946 C959 0.930 . S
H947 C960 0.930 . S
H948 C964 0.959 . S
H949 C964 0.959 . S
H950 C964 0.961 . S
H951 C965 0.960 . S
H952 C965 0.961 . S
H953 C965 0.959 . S
H954 C968 0.929 . S
H955 C969 0.931 . S
H956 C971 0.930 . S
C957 H945 0.930 . S
C957 C958 1.399 . S
C957 C962 1.399 . S
C958 C957 1.399 . S
C958 C959 1.376 . S
C959 H946 0.930 . S
C959 C958 1.376 . S
C959 C960 1.388 . S
C960 H947 0.930 . S
C960 C959 1.388 . S
C960 C961 1.390 . S
C961 C960 1.390 . S
C961 C962 1.394 . S
C961 C967 1.465 . S
C962 C957 1.399 . S
C962 C961 1.394 . S
C962 C963 1.516 . S
C963 C962 1.516 . S
C963 C964 1.502 . S
C963 C965 1.561 . S
C963 C966 1.526 . S
C964 H948 0.959 . S
C964 H949 0.959 . S
C964 H950 0.961 . S
C964 C963 1.502 . S
C965 H951 0.960 . S
C965 H952 0.961 . S
C965 H953 0.959 . S
C965 C963 1.561 . S
C966 C963 1.526 . S
C966 C967 1.396 . S
C966 C971 1.390 . S
C967 C961 1.465 . S
C967 C966 1.396 . S
C967 C968 1.399 . S
C968 H954 0.929 . S
C968 C967 1.399 . S
C968 C969 1.385 . S
C969 H955 0.931 . S
C969 C968 1.385 . S
C969 C970 1.389 . S
C970 C969 1.389 . S
C970 C971 1.387 . S
C971 H956 0.930 . S
C971 C966 1.390 . S
C971 C970 1.387 . S
H972 C984 0.930 . S
H973 C986 0.930 . S
H974 C987 0.930 . S
H975 C991 0.959 . S
H976 C991 0.959 1_554 S
H977 C991 0.961 1_554 S
H978 C992 0.960 . S
H979 C992 0.961 . S
H980 C992 0.959 . S
H981 C995 0.929 . S
H982 C996 0.931 . S
H983 C998 0.930 1_554 S
C984 H972 0.930 . S
C984 C985 1.399 . S
C984 C989 1.399 . S
C985 C984 1.399 . S
C985 C986 1.376 . S
C986 H973 0.930 . S
C986 C985 1.376 . S
C986 C987 1.388 . S
C987 H974 0.930 . S
C987 C986 1.388 . S
C987 C988 1.390 . S
C988 C987 1.390 . S
C988 C989 1.394 . S
C988 C994 1.465 . S
C989 C984 1.399 . S
C989 C988 1.394 . S
C989 C990 1.516 . S
C990 C989 1.516 . S
C990 C991 1.502 1_655 S
C990 C992 1.561 1_556 S
C990 C993 1.526 . S
C991 H975 0.959 . S
C991 H976 0.959 1_556 S
C991 H977 0.961 1_556 S
C991 C990 1.502 1_455 S
C992 H978 0.960 . S
C992 H979 0.961 . S
C992 H980 0.959 . S
C992 C990 1.561 1_554 S
C993 C990 1.526 . S
C993 C994 1.396 . S
C993 C998 1.390 . S
C994 C988 1.465 . S
C994 C993 1.396 . S
C994 C995 1.399 . S
C995 H981 0.929 . S
C995 C994 1.399 . S
C995 C996 1.385 . S
C996 H982 0.931 . S
C996 C995 1.385 . S
C996 C997 1.389 . S
C997 C996 1.389 . S
C997 C998 1.387 . S
C998 H983 0.930 1_556 S
C998 C993 1.390 . S
C998 C997 1.387 . S
H999 C1011 0.930 . S
H1000 C1013 0.930 . S
H1001 C1014 0.930 . S
H1002 C1018 0.959 . S
H1003 C1018 0.959 . S
H1004 C1018 0.961 . S
H1005 C1019 0.960 . S
H1006 C1019 0.961 . S
H1007 C1019 0.959 . S
H1008 C1022 0.929 1_556 S
H1009 C1023 0.931 1_556 S
H1010 C1025 0.930 . S
C1011 H999 0.930 . S
C1011 C1012 1.399 . S
C1011 C1016 1.399 . S
C1012 C1011 1.399 . S
C1012 C1013 1.376 . S
C1013 H1000 0.930 . S
C1013 C1012 1.376 . S
C1013 C1014 1.388 . S
C1014 H1001 0.930 . S
C1014 C1013 1.388 . S
C1014 C1015 1.390 . S
C1015 C1014 1.390 . S
C1015 C1016 1.394 . S
C1015 C1021 1.465 . S
C1016 C1011 1.399 . S
C1016 C1015 1.394 . S
C1016 C1017 1.516 . S
C1017 C1016 1.516 . S
C1017 C1018 1.502 . S
C1017 C1019 1.561 . S
C1017 C1020 1.526 . S
C1018 H1002 0.959 . S
C1018 H1003 0.959 . S
C1018 H1004 0.961 . S
C1018 C1017 1.502 . S
C1019 H1005 0.960 . S
C1019 H1006 0.961 . S
C1019 H1007 0.959 . S
C1019 C1017 1.561 . S
C1020 C1017 1.526 . S
C1020 C1021 1.396 . S
C1020 C1025 1.390 . S
C1021 C1015 1.465 . S
C1021 C1020 1.396 . S
C1021 C1022 1.399 . S
C1022 H1008 0.929 1_554 S
C1022 C1021 1.399 . S
C1022 C1023 1.385 . S
C1023 H1009 0.931 1_554 S
C1023 C1022 1.385 . S
C1023 C1024 1.389 . S
C1024 C1023 1.389 . S
C1024 C1025 1.387 . S
C1025 H1010 0.930 . S
C1025 C1020 1.390 . S
C1025 C1024 1.387 . S
H1026 C1038 0.930 . S
H1027 C1040 0.930 . S
H1028 C1041 0.930 . S
H1029 C1045 0.959 . S
H1030 C1045 0.959 . S
H1031 C1045 0.961 . S
H1032 C1046 0.960 . S
H1033 C1046 0.961 . S
H1034 C1046 0.959 . S
H1035 C1049 0.929 . S
H1036 C1050 0.931 . S
H1037 C1052 0.930 . S
C1038 H1026 0.930 . S
C1038 C1039 1.399 . S
C1038 C1043 1.399 . S
C1039 C1038 1.399 . S
C1039 C1040 1.376 . S
C1040 H1027 0.930 . S
C1040 C1039 1.376 . S
C1040 C1041 1.388 . S
C1041 H1028 0.930 . S
C1041 C1040 1.388 . S
C1041 C1042 1.390 . S
C1042 C1041 1.390 . S
C1042 C1043 1.394 . S
C1042 C1048 1.465 . S
C1043 C1038 1.399 . S
C1043 C1042 1.394 . S
C1043 C1044 1.516 . S
C1044 C1043 1.516 . S
C1044 C1045 1.502 1_455 S
C1044 C1046 1.561 . S
C1044 C1047 1.526 . S
C1045 H1029 0.959 . S
C1045 H1030 0.959 . S
C1045 H1031 0.961 . S
C1045 C1044 1.502 1_655 S
C1046 H1032 0.960 . S
C1046 H1033 0.961 . S
C1046 H1034 0.959 . S
C1046 C1044 1.561 . S
C1047 C1044 1.526 . S
C1047 C1048 1.396 . S
C1047 C1052 1.390 . S
C1048 C1042 1.465 . S
C1048 C1047 1.396 . S
C1048 C1049 1.399 . S
C1049 H1035 0.929 . S
C1049 C1048 1.399 . S
C1049 C1050 1.385 . S
C1050 H1036 0.931 . S
C1050 C1049 1.385 . S
C1050 C1051 1.389 . S
C1051 C1050 1.389 . S
C1051 C1052 1.387 . S
C1052 H1037 0.930 . S
C1052 C1047 1.390 . S
C1052 C1051 1.387 . S
H1053 C1065 0.930 . S
H1054 C1067 0.930 . S
H1055 C1068 0.930 . S
H1056 C1072 0.959 . S
H1057 C1072 0.959 . S
H1058 C1072 0.961 . S
H1059 C1073 0.960 . S
H1060 C1073 0.961 . S
H1061 C1073 0.959 . S
H1062 C1076 0.929 . S
H1063 C1077 0.931 . S
H1064 C1079 0.930 . S
C1065 H1053 0.930 . S
C1065 C1066 1.399 . S
C1065 C1070 1.399 . S
C1066 C1065 1.399 . S
C1066 C1067 1.376 . S
C1067 H1054 0.930 . S
C1067 C1066 1.376 . S
C1067 C1068 1.388 . S
C1068 H1055 0.930 . S
C1068 C1067 1.388 . S
C1068 C1069 1.390 . S
C1069 C1068 1.390 . S
C1069 C1070 1.394 . S
C1069 C1075 1.465 . S
C1070 C1065 1.399 . S
C1070 C1069 1.394 . S
C1070 C1071 1.516 . S
C1071 C1070 1.516 . S
C1071 C1072 1.502 . S
C1071 C1073 1.561 . S
C1071 C1074 1.526 . S
C1072 H1056 0.959 . S
C1072 H1057 0.959 . S
C1072 H1058 0.961 . S
C1072 C1071 1.502 . S
C1073 H1059 0.960 . S
C1073 H1060 0.961 . S
C1073 H1061 0.959 . S
C1073 C1071 1.561 . S
C1074 C1071 1.526 . S
C1074 C1075 1.396 . S
C1074 C1079 1.390 . S
C1075 C1069 1.465 . S
C1075 C1074 1.396 . S
C1075 C1076 1.399 . S
C1076 H1062 0.929 . S
C1076 C1075 1.399 . S
C1076 C1077 1.385 . S
C1077 H1063 0.931 . S
C1077 C1076 1.385 . S
C1077 C1078 1.389 . S
C1078 C1077 1.389 . S
C1078 C1079 1.387 . S
C1079 H1064 0.930 . S
C1079 C1074 1.390 . S
C1079 C1078 1.387 . S
C445 C1 2.179 . S
C457 C328 2.178 . S
C472 C40 1.113 . S
C484 N348 1.123 . S
C511 C382 2.004 . S
C499 C99 1.974 . S
C526 C118 1.299 . S
C538 N416 1.318 . S
C565 C369 2.344 . S
C553 C16 2.347 . S
C592 N326 1.209 . S
C580 C60 1.171 . S
C619 C403 2.012 . S
C607 C79 2.005 . S
C646 N378 1.042 . S
C634 C138 1.017 . S
C661 C21 1.827 . S
C673 C418 1.849 . S
C700 C352 1.741 . S
C688 C94 1.698 . S
C715 C133 1.470 . S
C727 C313 1.474 . S
C742 C55 1.454 . S
C754 C399 1.476 . S
C781 C339 2.181 . S
C769 C157 2.169 . S
C796 C196 1.127 . S
C808 N356 1.081 . S
C823 C255 1.977 . S
C835 C373 1.985 . S
C850 C289 1.332 . S
C862 N408 1.275 . S
C877 C172 2.336 . S
C889 C358 2.350 . S
C916 N318 1.185 . S
C904 C216 1.219 . S
C943 C412 2.016 . S
C931 C235 1.986 . S
C970 N386 1.019 . S
C958 C294 0.999 . S
C985 C177 1.801 . S
C997 C429 1.847 . S
C1024 C343 1.728 . S
C1012 C250 1.737 . S
C1051 C322 1.496 . S
C1039 C274 1.428 . S
C1066 C211 1.423 . S
C1078 C388 1.477 . S
