# Generated by pormake.
# Topology nom, (4,4)-cn, num edge types: 1
# Building blocks:
#     Node 0, Type 0, BuildingBlock: GIZVER_clean_linker_0, # of connection points: 4
#     Node 1, Type 0, BuildingBlock: GIZVER_clean_linker_0, # of connection points: 4
#     Node 2, Type 0, BuildingBlock: GIZVER_clean_linker_0, # of connection points: 4
#     Node 3, Type 0, BuildingBlock: GIZVER_clean_linker_0, # of connection points: 4
#     Node 4, Type 0, BuildingBlock: GIZVER_clean_linker_0, # of connection points: 4
#     Node 5, Type 0, BuildingBlock: GIZVER_clean_linker_0, # of connection points: 4
#     Node 6, Type 1, BuildingBlock: NAHDIM_clean_sbu_0, # of connection points: 4
#     Node 7, Type 1, BuildingBlock: NAHDIM_clean_sbu_0, # of connection points: 4
#     Node 8, Type 1, BuildingBlock: NAHDIM_clean_sbu_0, # of connection points: 4
#     Node 9, Type 1, BuildingBlock: NAHDIM_clean_sbu_0, # of connection points: 4
#     Node 10, Type 1, BuildingBlock: NAHDIM_clean_sbu_0, # of connection points: 4
#     Node 11, Type 1, BuildingBlock: NAHDIM_clean_sbu_0, # of connection points: 4
#     Edge 12, Type (0, 1), BuildingBlock: MIFKUJ_clean_linker_0, # of connection points: 2
#     Edge 13, Type (0, 1), BuildingBlock: MIFKUJ_clean_linker_0, # of connection points: 2
#     Edge 14, Type (0, 1), BuildingBlock: MIFKUJ_clean_linker_0, # of connection points: 2
#     Edge 15, Type (0, 1), BuildingBlock: MIFKUJ_clean_linker_0, # of connection points: 2
#     Edge 16, Type (0, 1), BuildingBlock: MIFKUJ_clean_linker_0, # of connection points: 2
#     Edge 17, Type (0, 1), BuildingBlock: MIFKUJ_clean_linker_0, # of connection points: 2
#     Edge 18, Type (0, 1), BuildingBlock: MIFKUJ_clean_linker_0, # of connection points: 2
#     Edge 19, Type (0, 1), BuildingBlock: MIFKUJ_clean_linker_0, # of connection points: 2
#     Edge 20, Type (0, 1), BuildingBlock: MIFKUJ_clean_linker_0, # of connection points: 2
#     Edge 21, Type (0, 1), BuildingBlock: MIFKUJ_clean_linker_0, # of connection points: 2
#     Edge 22, Type (0, 1), BuildingBlock: MIFKUJ_clean_linker_0, # of connection points: 2
#     Edge 23, Type (0, 1), BuildingBlock: MIFKUJ_clean_linker_0, # of connection points: 2
#     Edge 24, Type (0, 1), BuildingBlock: MIFKUJ_clean_linker_0, # of connection points: 2
#     Edge 25, Type (0, 1), BuildingBlock: MIFKUJ_clean_linker_0, # of connection points: 2
#     Edge 26, Type (0, 1), BuildingBlock: MIFKUJ_clean_linker_0, # of connection points: 2
#     Edge 27, Type (0, 1), BuildingBlock: MIFKUJ_clean_linker_0, # of connection points: 2
#     Edge 28, Type (0, 1), BuildingBlock: MIFKUJ_clean_linker_0, # of connection points: 2
#     Edge 29, Type (0, 1), BuildingBlock: MIFKUJ_clean_linker_0, # of connection points: 2
#     Edge 30, Type (0, 1), BuildingBlock: MIFKUJ_clean_linker_0, # of connection points: 2
#     Edge 31, Type (0, 1), BuildingBlock: MIFKUJ_clean_linker_0, # of connection points: 2
#     Edge 32, Type (0, 1), BuildingBlock: MIFKUJ_clean_linker_0, # of connection points: 2
#     Edge 33, Type (0, 1), BuildingBlock: MIFKUJ_clean_linker_0, # of connection points: 2
#     Edge 34, Type (0, 1), BuildingBlock: MIFKUJ_clean_linker_0, # of connection points: 2
#     Edge 35, Type (0, 1), BuildingBlock: MIFKUJ_clean_linker_0, # of connection points: 2
# Relax obj value: 0.022
# Max RMSD: 0.124
# Mean RMSD: 0.093
data_MOF--net-nom--node1-NAHDIM_clean_sbu_0--node2-GIZVER_clean_linker_0--edge1-MIFKUJ_clean_linker_0
_symmetry_space_group_name_H-M    P1
_symmetry_Int_Tables_number       1
_symmetry_cell_setting            triclinic
loop_
_symmetry_equiv_pos_as_xyz
'x, y, z'
_cell_length_a     59.429803
_cell_length_b     61.07578
_cell_length_c     59.179688
_cell_angle_alpha  89.96384
_cell_angle_beta   90.618814
_cell_angle_gamma 120.92332
loop_
_atom_site_label
_atom_site_type_symbol
_atom_site_fract_x
_atom_site_fract_y
_atom_site_fract_z
_atom_type_partial_charge
H0 H 0.97487 0.56243 0.34931 0.0
H1 H 0.98506 0.54474 0.28113 0.0
H2 H 0.91656 0.49208 0.31847 0.0
H3 H 0.00884 0.59477 0.32678 0.0
H4 H 0.00783 0.58988 0.297 0.0
H5 H 0.02948 0.57423 0.35184 0.0
H6 H 0.10028 0.5848 0.32266 0.0
H7 H 0.04307 0.58844 0.28048 0.0
C8 C 0.96851 0.54913 0.33523 0.0
C9 C 0.94437 0.52615 0.33628 0.0
C10 C 0.98376 0.55553 0.31559 0.0
C11 C 0.97418 0.53899 0.29675 0.0
C12 C 0.94963 0.51623 0.29748 0.0
C13 C 0.93557 0.50951 0.31771 0.0
C14 C 0.00826 0.58151 0.31359 0.0
C15 C 0.0329 0.58022 0.31574 0.0
C16 C 0.04131 0.57686 0.33712 0.0
C17 C 0.0658 0.5788 0.33974 0.0
C18 C 0.08121 0.58294 0.32062 0.0
C19 C 0.0733 0.58652 0.29923 0.0
C20 C 0.04902 0.58504 0.29685 0.0
H21 H 0.4311 0.97827 0.51322 0.0
H22 H 0.44308 0.99464 0.44202 0.0
H23 H 0.44164 0.92867 0.4689 0.0
H24 H 0.4225 0.00956 0.49673 0.0
H25 H 0.42236 0.01276 0.46677 0.0
H26 H 0.46484 0.03283 0.51856 0.0
H27 H 0.52473 0.10244 0.48829 0.0
H28 H 0.45894 0.04794 0.44836 0.0
C29 C 0.43537 0.974 0.4966 0.0
C30 C 0.43704 0.95209 0.49338 0.0
C31 C 0.43811 0.98979 0.47817 0.0
C32 C 0.44214 0.98322 0.45642 0.0
C33 C 0.44383 0.96135 0.45309 0.0
C34 C 0.44183 0.94632 0.47169 0.0
C35 C 0.43404 0.01204 0.48126 0.0
C36 C 0.4599 0.03695 0.48299 0.0
C37 C 0.47332 0.04481 0.50389 0.0
C38 C 0.49649 0.06876 0.50615 0.0
C39 C 0.50679 0.08403 0.48687 0.0
C40 C 0.49317 0.077 0.46618 0.0
C41 C 0.46979 0.0533 0.46423 0.0
H42 H 0.41867 0.47101 0.62257 0.0
H43 H 0.45437 0.47344 0.68699 0.0
H44 H 0.43364 0.52951 0.67091 0.0
H45 H 0.42449 0.43661 0.63258 0.0
H46 H 0.42618 0.43188 0.66214 0.0
H47 H 0.46748 0.46364 0.61119 0.0
H48 H 0.52967 0.45285 0.63482 0.0
H49 H 0.46394 0.43291 0.67753 0.0
C50 C 0.42701 0.4805 0.63858 0.0
C51 C 0.42516 0.5017 0.64487 0.0
C52 C 0.43782 0.47035 0.65364 0.0
C53 C 0.44708 0.48182 0.675 0.0
C54 C 0.44588 0.50338 0.68125 0.0
C55 C 0.43539 0.51338 0.66589 0.0
C56 C 0.43641 0.44552 0.64816 0.0
C57 C 0.46331 0.44911 0.64515 0.0
C58 C 0.47649 0.45857 0.62463 0.0
C59 C 0.50062 0.46025 0.62099 0.0
C60 C 0.51174 0.45284 0.63813 0.0
C61 C 0.49857 0.4427 0.65845 0.0
C62 C 0.47443 0.44111 0.662 0.0
H63 H 0.96873 0.42549 0.7774 0.0
H64 H 0.97938 0.43599 0.84965 0.0
H65 H 0.91069 0.42862 0.81752 0.0
H66 H 1.00035 0.41787 0.79764 0.0
H67 H 0.00418 0.42151 0.82758 0.0
H68 H 0.01969 0.45745 0.77281 0.0
H69 H 0.09261 0.51908 0.79843 0.0
H70 H 0.03973 0.45999 0.84344 0.0
C71 C 0.96236 0.42846 0.79361 0.0
C72 C 0.93834 0.42758 0.79506 0.0
C73 C 0.97766 0.43218 0.81322 0.0
C74 C 0.9684 0.43448 0.83439 0.0
C75 C 0.944 0.43275 0.836 0.0
C76 C 0.92971 0.43027 0.81622 0.0
C77 C 1.00207 0.43048 0.81194 0.0
C78 C 0.02635 0.45637 0.80873 0.0
C79 C 0.03263 0.46728 0.78706 0.0
C80 C 0.05638 0.49007 0.78355 0.0
C81 C 0.07369 0.50218 0.80169 0.0
C82 C 0.06804 0.49152 0.82336 0.0
C83 C 0.0441 0.46867 0.82686 0.0
H84 H 0.58727 0.04821 0.01621 0.0
H85 H 0.56316 0.02982 0.94651 0.0
H86 H 0.57702 0.10043 0.97526 0.0
H87 H 0.59118 0.01517 0.99688 0.0
H88 H 0.58407 0.00962 0.96733 0.0
H89 H 0.54797 0.00237 0.02215 0.0
H90 H 0.49032 0.92421 0.00778 0.0
H91 H 0.55042 0.96765 0.95949 0.0
C92 C 0.58117 0.05259 0.00036 0.0
C93 C 0.58158 0.07566 0.99813 0.0
C94 C 0.57403 0.03569 0.98187 0.0
C95 C 0.56769 0.04235 0.96098 0.0
C96 C 0.56862 0.06571 0.95842 0.0
C97 C 0.57495 0.08183 0.97727 0.0
C98 C 0.57653 0.01233 0.98358 0.0
C99 C 0.55085 0.9885 0.98926 0.0
C100 C 0.5392 0.98645 0.01039 0.0
C101 C 0.51705 0.9634 0.01684 0.0
C102 C 0.50674 0.94232 0.00227 0.0
C103 C 0.51896 0.94346 0.98184 0.0
C104 C 0.54055 0.96682 0.97503 0.0
H105 H 0.59875 0.56385 0.12609 0.0
H106 H 0.56971 0.54981 0.19417 0.0
H107 H 0.58658 0.49721 0.16103 0.0
H108 H 0.59702 0.59683 0.14661 0.0
H109 H 0.59188 0.59359 0.17637 0.0
H110 H 0.55521 0.57142 0.12059 0.0
H111 H 0.49242 0.58071 0.14415 0.0
H112 H 0.55373 0.59173 0.19007 0.0
C113 C 0.59171 0.55161 0.14078 0.0
C114 C 0.59299 0.52933 0.14131 0.0
C115 C 0.58245 0.55867 0.15959 0.0
C116 C 0.57524 0.54355 0.17921 0.0
C117 C 0.57721 0.52157 0.18005 0.0
C118 C 0.58498 0.51411 0.16063 0.0
C119 C 0.58357 0.58394 0.15984 0.0
C120 C 0.55687 0.58077 0.15598 0.0
C121 C 0.54535 0.57483 0.13423 0.0
C122 C 0.52184 0.57446 0.12985 0.0
C123 C 0.50972 0.57952 0.14762 0.0
C124 C 0.52101 0.58573 0.16932 0.0
C125 C 0.54457 0.58624 0.17347 0.0
C126 C 0.58956 0.33112 0.40367 0.0
O127 O 0.57311 0.33943 0.40431 0.0
O128 O 0.66871 0.40287 0.40607 0.0
Zn129 Zn 0.62903 0.38533 0.40521 0.0
O130 O 0.61594 0.39419 0.4331 0.0
C131 C 0.59773 0.3999 0.37829 0.0
O132 O 0.58418 0.3947 0.39695 0.0
O133 O 0.61409 0.34721 0.40379 0.0
C134 C 0.6265 0.41711 0.44009 0.0
O135 O 0.64712 0.4351 0.42962 0.0
C136 C 0.68341 0.42441 0.39686 0.0
O137 O 0.67261 0.43593 0.38666 0.0
O138 O 0.61736 0.39685 0.37774 0.0
C139 C 0.30756 0.69482 0.55901 0.0
O140 O 0.31737 0.68101 0.55219 0.0
O141 O 0.28258 0.62797 0.57113 0.0
Zn142 Zn 0.26121 0.6451 0.56802 0.0
O143 O 0.23835 0.63249 0.53996 0.0
C144 C 0.24028 0.6248 0.61217 0.0
O145 O 0.26066 0.62186 0.61326 0.0
O146 O 0.28433 0.68364 0.56661 0.0
C147 C 0.21584 0.61224 0.5404 0.0
O148 O 0.20803 0.59899 0.55915 0.0
C149 C 0.29088 0.62012 0.55518 0.0
O150 O 0.28638 0.62372 0.53412 0.0
O151 O 0.23706 0.63524 0.59482 0.0
C152 C 0.61634 0.30341 0.73605 0.0
O153 O 0.64107 0.31533 0.74252 0.0
O154 O 0.66306 0.28486 0.73142 0.0
Zn155 Zn 0.62384 0.26012 0.73333 0.0
O156 O 0.61166 0.23511 0.70714 0.0
C157 C 0.62627 0.22683 0.76576 0.0
O158 O 0.64232 0.22714 0.75049 0.0
O159 O 0.60468 0.27963 0.73167 0.0
C160 C 0.59435 0.21164 0.70948 0.0
O161 O 0.58356 0.20334 0.7293 0.0
C162 C 0.6788 0.27993 0.72139 0.0
O163 O 0.66956 0.25775 0.71127 0.0
O164 O 0.61587 0.24033 0.76256 0.0
C165 C 0.40739 0.68314 0.92315 0.0
O166 O 0.40045 0.66973 0.94185 0.0
O167 O 0.3442 0.6184 0.90163 0.0
Zn168 Zn 0.38342 0.63285 0.90373 0.0
O169 O 0.39381 0.62062 0.93152 0.0
C170 C 0.39016 0.59823 0.87654 0.0
O171 O 0.37721 0.58321 0.89345 0.0
O172 O 0.40209 0.6715 0.90426 0.0
C173 C 0.4178 0.62699 0.93278 0.0
O174 O 0.43367 0.6411 0.91664 0.0
C175 C 0.32705 0.59647 0.90879 0.0
O176 O 0.33472 0.58216 0.9188 0.0
O177 O 0.39504 0.6211 0.8767 0.0
C178 C 0.74477 0.42577 0.07344 0.0
O179 O 0.7694 0.43842 0.08022 0.0
O180 O 0.73157 0.3472 0.06591 0.0
Zn181 Zn 0.75613 0.38552 0.06752 0.0
O182 O 0.77797 0.39531 0.09626 0.0
C183 C 0.77501 0.38593 0.0223 0.0
O184 O 0.75158 0.36566 0.0193 0.0
O185 O 0.73474 0.40271 0.06699 0.0
C186 C 0.80097 0.39871 0.09633 0.0
O187 O 0.81022 0.39501 0.07758 0.0
C188 C 0.74003 0.33185 0.06642 0.0
O189 O 0.7654 0.3411 0.06827 0.0
O190 O 0.78082 0.39758 0.04116 0.0
C191 C 0.39228 0.71773 0.22457 0.0
O192 O 0.36799 0.70729 0.2171 0.0
O193 O 0.346 0.7362 0.23061 0.0
Zn194 Zn 0.38548 0.76084 0.2319 0.0
O195 O 0.39898 0.78537 0.20558 0.0
C196 C 0.37905 0.78782 0.26893 0.0
O197 O 0.35562 0.77826 0.25971 0.0
O198 O 0.40393 0.74059 0.23195 0.0
C199 C 0.39464 0.80363 0.20347 0.0
O200 O 0.37961 0.80609 0.21809 0.0
C201 C 0.32927 0.73766 0.2181 0.0
O202 O 0.33717 0.75667 0.20389 0.0
O203 O 0.39509 0.78231 0.26039 0.0
H204 H 0.10252 0.56621 0.28562 0.0
H205 H 0.14285 0.58803 0.26375 0.0
H206 H 0.12862 0.64914 0.2495 0.0
H207 H 0.08831 0.62751 0.27159 0.0
H208 H 0.15607 0.6373 0.21332 0.0
H209 H 0.16108 0.65787 0.29357 0.0
H210 H 0.15195 0.6457 0.33362 0.0
H211 H 0.19357 0.60554 0.32909 0.0
H212 H 0.20269 0.6173 0.28899 0.0
H213 H 0.28769 0.74204 0.20421 0.0
H214 H 0.24118 0.71244 0.21134 0.0
H215 H 0.26032 0.66085 0.24422 0.0
H216 H 0.30687 0.69084 0.23793 0.0
H217 H 0.22894 0.66626 0.2692 0.0
H218 H 0.22834 0.64866 0.19043 0.0
H219 H 0.23651 0.65855 0.14989 0.0
H220 H 0.1868 0.69044 0.15015 0.0
H221 H 0.1786 0.68104 0.19079 0.0
C222 C 0.10752 0.58388 0.27719 0.0
C223 C 0.09249 0.59535 0.28057 0.0
C224 C 0.13051 0.59627 0.26466 0.0
C225 C 0.13885 0.62034 0.25531 0.0
C226 C 0.12245 0.63054 0.25656 0.0
C227 C 0.0994 0.61813 0.26915 0.0
C228 C 0.16643 0.63661 0.24813 0.0
C229 C 0.17209 0.64386 0.22546 0.0
C230 C 0.18722 0.64473 0.26397 0.0
C231 C 0.18234 0.63825 0.28826 0.0
C232 C 0.16813 0.64631 0.30112 0.0
C233 C 0.16293 0.63946 0.32384 0.0
C234 C 0.17196 0.62465 0.33392 0.0
C235 C 0.18643 0.61688 0.32132 0.0
C236 C 0.19168 0.62368 0.29859 0.0
C237 C 0.28194 0.72425 0.21275 0.0
C238 C 0.30096 0.71883 0.22062 0.0
C239 C 0.25529 0.70724 0.21669 0.0
C240 C 0.24709 0.68421 0.22814 0.0
C241 C 0.26608 0.67849 0.2354 0.0
C242 C 0.29272 0.69565 0.23179 0.0
C243 C 0.21905 0.66699 0.23412 0.0
C244 C 0.21317 0.65966 0.25679 0.0
C245 C 0.1982 0.6587 0.21816 0.0
C246 C 0.20306 0.66436 0.19372 0.0
C247 C 0.21932 0.65796 0.18189 0.0
C248 C 0.22392 0.66344 0.15888 0.0
C249 C 0.21224 0.67517 0.14747 0.0
C250 C 0.19586 0.68138 0.15903 0.0
C251 C 0.19121 0.67595 0.18204 0.0
H252 H 0.21583 0.6794 0.12965 0.0
H253 H 0.16785 0.61931 0.3515 0.0
H254 H 0.4642 0.09474 0.44639 0.0
H255 H 0.48131 0.13554 0.42708 0.0
H256 H 0.55864 0.14543 0.42751 0.0
H257 H 0.54158 0.10484 0.44736 0.0
H258 H 0.55997 0.18397 0.44736 0.0
H259 H 0.52427 0.14072 0.37729 0.0
H260 H 0.49047 0.10922 0.35124 0.0
H261 H 0.44285 0.14233 0.36208 0.0
H262 H 0.47619 0.17383 0.38845 0.0
H263 H 0.6182 0.3076 0.40133 0.0
H264 H 0.6022 0.262 0.40409 0.0
H265 H 0.52287 0.2461 0.40954 0.0
H266 H 0.53865 0.29169 0.40641 0.0
H267 H 0.52488 0.21044 0.38335 0.0
H268 H 0.55767 0.24964 0.45641 0.0
H269 H 0.59061 0.28074 0.48328 0.0
H270 H 0.6429 0.25418 0.4672 0.0
H271 H 0.61038 0.22314 0.44 0.0
C272 C 0.4846 0.1051 0.44148 0.0
C273 C 0.50159 0.09669 0.44838 0.0
C274 C 0.49442 0.1285 0.43047 0.0
C275 C 0.52134 0.1437 0.42589 0.0
C276 C 0.53784 0.13414 0.43097 0.0
C277 C 0.52808 0.11089 0.44216 0.0
C278 C 0.53281 0.17085 0.41914 0.0
C279 C 0.55269 0.18967 0.43299 0.0
C280 C 0.52278 0.17842 0.40088 0.0
C281 C 0.50268 0.15954 0.38499 0.0
C282 C 0.5065 0.14117 0.37426 0.0
C283 C 0.48744 0.12333 0.35941 0.0
C284 C 0.4645 0.12374 0.35504 0.0
C285 C 0.46062 0.14203 0.36548 0.0
C286 C 0.47961 0.15991 0.38036 0.0
C287 C 0.59732 0.29442 0.40294 0.0
C288 C 0.57974 0.30335 0.40389 0.0
C289 C 0.58821 0.26834 0.40453 0.0
C290 C 0.56137 0.25065 0.40732 0.0
C291 C 0.54366 0.25939 0.4074 0.0
C292 C 0.55275 0.28549 0.40573 0.0
C293 C 0.55196 0.22329 0.41155 0.0
C294 C 0.5324 0.20456 0.39741 0.0
C295 C 0.56218 0.21568 0.4296 0.0
C296 C 0.58173 0.23429 0.44598 0.0
C297 C 0.57628 0.25058 0.45847 0.0
C298 C 0.59486 0.26817 0.47378 0.0
C299 C 0.61887 0.26949 0.47689 0.0
C300 C 0.62432 0.25317 0.46474 0.0
C301 C 0.60582 0.23557 0.44938 0.0
H302 H 0.63322 0.28311 0.48876 0.0
H303 H 0.44977 0.10991 0.34354 0.0
H304 H 0.38856 0.51217 0.65957 0.0
H305 H 0.36536 0.52858 0.63813 0.0
H306 H 0.40298 0.52592 0.5771 0.0
H307 H 0.42728 0.51014 0.59893 0.0
H308 H 0.40365 0.57047 0.58057 0.0
H309 H 0.33807 0.48292 0.58486 0.0
H310 H 0.31073 0.44099 0.60275 0.0
H311 H 0.27761 0.47284 0.64656 0.0
H312 H 0.30502 0.51507 0.62917 0.0
H313 H 0.3166 0.60549 0.52613 0.0
H314 H 0.33882 0.58203 0.53544 0.0
H315 H 0.31847 0.57999 0.60545 0.0
H316 H 0.29642 0.60336 0.5964 0.0
H317 H 0.30777 0.53294 0.58924 0.0
H318 H 0.37909 0.6215 0.58846 0.0
H319 H 0.40691 0.66346 0.57071 0.0
H320 H 0.42876 0.62857 0.51924 0.0
H321 H 0.40076 0.58633 0.53654 0.0
C322 C 0.39209 0.51519 0.6416 0.0
C323 C 0.41003 0.51016 0.63099 0.0
C324 C 0.37852 0.52428 0.62929 0.0
C325 C 0.38213 0.52818 0.60592 0.0
C326 C 0.39981 0.52293 0.5951 0.0
C327 C 0.41354 0.51381 0.60753 0.0
C328 C 0.36796 0.53868 0.59339 0.0
C329 C 0.38258 0.56192 0.58196 0.0
C330 C 0.34049 0.52767 0.59535 0.0
C331 C 0.32371 0.50222 0.60574 0.0
C332 C 0.32507 0.48103 0.59839 0.0
C333 C 0.30954 0.4572 0.60844 0.0
C334 C 0.29246 0.45426 0.62579 0.0
C335 C 0.29083 0.47514 0.6331 0.0
C336 C 0.30633 0.49903 0.62312 0.0
C337 C 0.3169 0.60007 0.54351 0.0
C338 C 0.30476 0.60633 0.56053 0.0
C339 C 0.32964 0.58671 0.54879 0.0
C340 C 0.3303 0.5793 0.57114 0.0
C341 C 0.31811 0.58546 0.58809 0.0
C342 C 0.30561 0.59893 0.58288 0.0
C343 C 0.34359 0.5651 0.57721 0.0
C344 C 0.32874 0.54113 0.58739 0.0
C345 C 0.37076 0.57537 0.57397 0.0
C346 C 0.38757 0.60074 0.56361 0.0
C347 C 0.38963 0.62275 0.57323 0.0
C348 C 0.40547 0.64658 0.56328 0.0
C349 C 0.41952 0.64866 0.54381 0.0
C350 C 0.41782 0.62692 0.53429 0.0
C351 C 0.40197 0.60303 0.54416 0.0
H352 H 0.43178 0.66713 0.53613 0.0
H353 H 0.28047 0.43579 0.63356 0.0
H354 H 0.92044 0.38551 0.76815 0.0
H355 H 0.87932 0.36525 0.74633 0.0
H356 H 0.8718 0.43091 0.75789 0.0
H357 H 0.91288 0.45119 0.77966 0.0
H358 H 0.83186 0.38717 0.77584 0.0
H359 H 0.87554 0.41366 0.70483 0.0
H360 H 0.90732 0.41879 0.67581 0.0
H361 H 0.87121 0.3374 0.67062 0.0
H362 H 0.83942 0.33176 0.69986 0.0
H363 H 0.7038 0.33064 0.73224 0.0
H364 H 0.75096 0.36029 0.73661 0.0
H365 H 0.76561 0.30042 0.71812 0.0
H366 H 0.71848 0.27094 0.71283 0.0
H367 H 0.8027 0.34371 0.70137 0.0
H368 H 0.76356 0.31641 0.77422 0.0
H369 H 0.73266 0.30912 0.80484 0.0
H370 H 0.76162 0.38954 0.80855 0.0
H371 H 0.79245 0.39727 0.77772 0.0
C372 C 0.91068 0.39612 0.76507 0.0
C373 C 0.91969 0.41982 0.77571 0.0
C374 C 0.8871 0.38448 0.75268 0.0
C375 C 0.87235 0.39646 0.75069 0.0
C376 C 0.8828 0.42127 0.75932 0.0
C377 C 0.90631 0.43289 0.77166 0.0
C378 C 0.84439 0.38161 0.74343 0.0
C379 C 0.82551 0.37816 0.75933 0.0
C380 C 0.83613 0.36897 0.72229 0.0
C381 C 0.85521 0.3723 0.70469 0.0
C382 C 0.8745 0.39685 0.69766 0.0
C383 C 0.8925 0.39985 0.68113 0.0
C384 C 0.89132 0.37844 0.67141 0.0
C385 C 0.87211 0.35397 0.67817 0.0
C386 C 0.85407 0.35086 0.6947 0.0
C387 C 0.71708 0.32385 0.7289 0.0
C388 C 0.7074 0.29837 0.72245 0.0
C389 C 0.74405 0.34081 0.73145 0.0
C390 C 0.76187 0.33248 0.72817 0.0
C391 C 0.75229 0.30731 0.72081 0.0
C392 C 0.72532 0.29044 0.71789 0.0
C393 C 0.79022 0.34947 0.73375 0.0
C394 C 0.80911 0.35309 0.7177 0.0
C395 C 0.79865 0.36198 0.75497 0.0
C396 C 0.78009 0.35738 0.77348 0.0
C397 C 0.76318 0.33252 0.78144 0.0
C398 C 0.74571 0.32831 0.79885 0.0
C399 C 0.74512 0.34884 0.80858 0.0
C400 C 0.76206 0.37364 0.80096 0.0
C401 C 0.77954 0.37795 0.78352 0.0
H402 H 0.7316 0.34555 0.82207 0.0
H403 H 0.90526 0.3808 0.65862 0.0
H404 H 0.51417 0.90102 0.00047 0.0
H405 H 0.49912 0.85978 0.9828 0.0
H406 H 0.49308 0.88972 0.91844 0.0
H407 H 0.50746 0.93137 0.93656 0.0
H408 H 0.44999 0.84305 0.9265 0.0
H409 H 0.5417 0.87665 0.92726 0.0
H410 H 0.58671 0.89882 0.94296 0.0
H411 H 0.56347 0.84114 0.99376 0.0
H412 H 0.51822 0.81879 0.97859 0.0
H413 H 0.41747 0.71691 0.88856 0.0
H414 H 0.44014 0.76365 0.89116 0.0
H415 H 0.45158 0.75972 0.9628 0.0
H416 H 0.42898 0.71329 0.96041 0.0
H417 H 0.49669 0.79643 0.94112 0.0
H418 H 0.40377 0.76842 0.94406 0.0
H419 H 0.35854 0.74673 0.92883 0.0
H420 H 0.385 0.79453 0.87016 0.0
H421 H 0.43048 0.81629 0.88493 0.0
C422 C 0.50949 0.89881 0.98258 0.0
C423 C 0.51155 0.91924 0.96996 0.0
C424 C 0.50122 0.87531 0.97242 0.0
C425 C 0.4953 0.87169 0.94923 0.0
C426 C 0.49767 0.89215 0.93636 0.0
C427 C 0.50597 0.91589 0.94664 0.0
C428 C 0.4856 0.84602 0.93917 0.0
C429 C 0.46052 0.83306 0.9291 0.0
C430 C 0.49921 0.83288 0.94272 0.0
C431 C 0.52652 0.84606 0.95178 0.0
C432 C 0.54615 0.86874 0.94184 0.0
C433 C 0.57172 0.88134 0.95065 0.0
C434 C 0.57795 0.8714 0.96934 0.0
C435 C 0.55863 0.8488 0.97926 0.0
C436 C 0.53302 0.83612 0.97053 0.0
C437 C 0.42488 0.72604 0.90484 0.0
C438 C 0.42135 0.71138 0.9243 0.0
C439 C 0.43776 0.75272 0.90629 0.0
C440 C 0.44749 0.76513 0.92718 0.0
C441 C 0.44429 0.75053 0.9465 0.0
C442 C 0.43124 0.72396 0.94512 0.0
C443 C 0.46078 0.7933 0.92933 0.0
C444 C 0.48653 0.80666 0.93791 0.0
C445 C 0.44785 0.8068 0.92428 0.0
C446 C 0.42055 0.79373 0.91544 0.0
C447 C 0.39997 0.77414 0.92781 0.0
C448 C 0.37429 0.76187 0.91929 0.0
C449 C 0.36891 0.76918 0.8985 0.0
C450 C 0.38921 0.78884 0.88623 0.0
C451 C 0.41493 0.80115 0.89467 0.0
H452 H 0.34901 0.75967 0.89193 0.0
H453 H 0.59775 0.88119 0.97615 0.0
H454 H 0.64503 0.55507 0.13375 0.0
H455 H 0.66944 0.539 0.1139 0.0
H456 H 0.59658 0.474 0.09035 0.0
H457 H 0.57221 0.48952 0.11151 0.0
H458 H 0.62337 0.45762 0.10847 0.0
H459 H 0.64581 0.52277 0.05376 0.0
H460 H 0.66147 0.56626 0.03974 0.0
H461 H 0.73685 0.59256 0.07071 0.0
H462 H 0.72155 0.54933 0.08518 0.0
H463 H 0.6944 0.4065 0.05785 0.0
H464 H 0.6672 0.4257 0.06117 0.0
H465 H 0.73111 0.49129 0.09465 0.0
H466 H 0.7586 0.47252 0.09093 0.0
H467 H 0.70604 0.50574 0.06575 0.0
H468 H 0.6807 0.44193 0.1245 0.0
H469 H 0.66483 0.39851 0.13884 0.0
H470 H 0.59409 0.36991 0.09932 0.0
H471 H 0.6097 0.41314 0.08454 0.0
C472 C 0.63432 0.53789 0.12358 0.0
C473 C 0.60683 0.52367 0.12382 0.0
C474 C 0.64828 0.52866 0.11218 0.0
C475 C 0.63496 0.5053 0.10036 0.0
C476 C 0.60737 0.49204 0.09932 0.0
C477 C 0.59342 0.501 0.11117 0.0
C478 C 0.64957 0.49317 0.09188 0.0
C479 C 0.64107 0.46803 0.09859 0.0
C480 C 0.6731 0.50678 0.07949 0.0
C481 C 0.68245 0.53279 0.07066 0.0
C482 C 0.66567 0.53786 0.05769 0.0
C483 C 0.6745 0.56246 0.04965 0.0
C484 C 0.70012 0.58216 0.05436 0.0
C485 C 0.717 0.57728 0.06707 0.0
C486 C 0.70828 0.55271 0.07516 0.0
C487 C 0.70273 0.42509 0.06579 0.0
C488 C 0.72861 0.43787 0.07431 0.0
C489 C 0.68713 0.43603 0.0677 0.0
C490 C 0.69698 0.4598 0.07844 0.0
C491 C 0.72307 0.47294 0.08629 0.0
C492 C 0.73873 0.46211 0.08425 0.0
C493 C 0.67985 0.4705 0.08257 0.0
C494 C 0.68799 0.49531 0.07516 0.0
C495 C 0.6559 0.45662 0.09425 0.0
C496 C 0.64649 0.43069 0.10323 0.0
C497 C 0.66184 0.42634 0.11876 0.0
C498 C 0.65288 0.40178 0.12698 0.0
C499 C 0.6285 0.38145 0.11994 0.0
C500 C 0.61299 0.38566 0.10472 0.0
C501 C 0.62187 0.41019 0.09643 0.0
H502 H 0.6216 0.36245 0.12632 0.0
H503 H 0.70691 0.6012 0.04813 0.0
H504 H 0.46335 0.92843 0.50646 0.0
H505 H 0.44404 0.88706 0.52523 0.0
H506 H 0.37407 0.88937 0.53833 0.0
H507 H 0.39325 0.93075 0.51941 0.0
H508 H 0.38708 0.86247 0.57244 0.0
H509 H 0.37399 0.86512 0.49205 0.0
H510 H 0.38969 0.88016 0.45349 0.0
H511 H 0.43747 0.84622 0.45662 0.0
H512 H 0.4225 0.83148 0.49544 0.0
H513 H 0.29227 0.72903 0.56918 0.0
H514 H 0.31715 0.77528 0.56401 0.0
H515 H 0.38266 0.77078 0.53922 0.0
H516 H 0.35778 0.7245 0.54398 0.0
H517 H 0.37272 0.79968 0.51236 0.0
H518 H 0.38363 0.7947 0.59231 0.0
H519 H 0.36913 0.78134 0.63141 0.0
H520 H 0.32546 0.8196 0.62932 0.0
H521 H 0.33941 0.83291 0.59008 0.0
C522 C 0.44427 0.92058 0.51414 0.0
C523 C 0.42964 0.93259 0.51123 0.0
C524 C 0.43326 0.89696 0.52483 0.0
C525 C 0.40745 0.885 0.53273 0.0
C526 C 0.394 0.89832 0.53229 0.0
C527 C 0.40503 0.922 0.52155 0.0
C528 C 0.39315 0.85729 0.53756 0.0
C529 C 0.38371 0.84866 0.55933 0.0
C530 C 0.38902 0.8394 0.52041 0.0
C531 C 0.39733 0.84742 0.49675 0.0
C532 C 0.38797 0.861 0.48458 0.0
C533 C 0.39674 0.86947 0.46268 0.0
C534 C 0.41461 0.8642 0.45263 0.0
C535 C 0.42366 0.85033 0.46444 0.0
C536 C 0.41504 0.84191 0.4864 0.0
C537 C 0.31204 0.73788 0.56276 0.0
C538 C 0.32301 0.72302 0.55697 0.0
C539 C 0.3263 0.76437 0.55992 0.0
C540 C 0.35189 0.77658 0.55142 0.0
C541 C 0.36296 0.76181 0.54582 0.0
C542 C 0.3487 0.73533 0.5486 0.0
C543 C 0.36675 0.80459 0.54744 0.0
C544 C 0.37617 0.81335 0.52563 0.0
C545 C 0.37073 0.82251 0.56456 0.0
C546 C 0.36237 0.8146 0.58818 0.0
C547 C 0.37076 0.8001 0.60012 0.0
C548 C 0.36268 0.79257 0.62232 0.0
C549 C 0.34633 0.79956 0.63282 0.0
C550 C 0.33809 0.81417 0.62115 0.0
C551 C 0.34611 0.82174 0.59894 0.0
H552 H 0.34009 0.79371 0.65001 0.0
H553 H 0.4214 0.87081 0.43568 0.0
H554 H 0.47218 0.39428 0.67493 0.0
H555 H 0.49117 0.37152 0.69337 0.0
H556 H 0.56695 0.44094 0.69498 0.0
H557 H 0.54807 0.46351 0.67595 0.0
H558 H 0.57138 0.40487 0.67709 0.0
H559 H 0.53071 0.41113 0.74411 0.0
H560 H 0.49464 0.40692 0.76753 0.0
H561 H 0.45192 0.32582 0.75672 0.0
H562 H 0.48758 0.32957 0.73297 0.0
H563 H 0.63768 0.35507 0.73828 0.0
H564 H 0.6163 0.37927 0.72979 0.0
H565 H 0.54318 0.30914 0.71719 0.0
H566 H 0.56445 0.28466 0.72562 0.0
H567 H 0.5375 0.34565 0.74212 0.0
H568 H 0.5778 0.34044 0.67376 0.0
H569 H 0.61419 0.34504 0.65055 0.0
H570 H 0.65813 0.4255 0.66471 0.0
H571 H 0.62214 0.42131 0.68829 0.0
C572 C 0.4927 0.40483 0.67989 0.0
C573 C 0.50866 0.43066 0.6741 0.0
C574 C 0.50358 0.39181 0.69041 0.0
C575 C 0.53054 0.40449 0.69566 0.0
C576 C 0.54614 0.43069 0.69103 0.0
C577 C 0.53534 0.44362 0.68029 0.0
C578 C 0.54296 0.39004 0.70379 0.0
C579 C 0.56424 0.39234 0.69162 0.0
C580 C 0.53321 0.37301 0.72228 0.0
C581 C 0.51173 0.37067 0.73659 0.0
C582 C 0.51353 0.39242 0.74658 0.0
C583 C 0.49318 0.39011 0.75994 0.0
C584 C 0.47097 0.36613 0.76357 0.0
C585 C 0.46911 0.34439 0.75388 0.0
C586 C 0.48941 0.34659 0.74049 0.0
C587 C 0.617 0.34472 0.73389 0.0
C588 C 0.60282 0.31791 0.73247 0.0
C589 C 0.60482 0.35861 0.72901 0.0
C590 C 0.57822 0.346 0.72267 0.0
C591 C 0.56374 0.31923 0.72205 0.0
C592 C 0.57596 0.30529 0.72677 0.0
C593 C 0.56596 0.36086 0.71558 0.0
C594 C 0.54469 0.35845 0.72779 0.0
C595 C 0.57576 0.37794 0.69719 0.0
C596 C 0.5974 0.38051 0.68299 0.0
C597 C 0.59532 0.35908 0.67209 0.0
C598 C 0.61586 0.36162 0.65883 0.0
C599 C 0.63849 0.38554 0.65621 0.0
C600 C 0.64061 0.40698 0.66679 0.0
C601 C 0.62014 0.40453 0.68009 0.0
H602 H 0.65436 0.38747 0.64593 0.0
H603 H 0.45523 0.36438 0.77392 0.0
H604 H 0.08481 0.46658 0.85087 0.0
H605 H 0.12632 0.48575 0.87201 0.0
H606 H 0.14127 0.56085 0.85557 0.0
H607 H 0.09971 0.54183 0.83464 0.0
H608 H 0.17962 0.55287 0.84118 0.0
H609 H 0.13257 0.54093 0.9099 0.0
H610 H 0.09842 0.51649 0.93805 0.0
H611 H 0.12914 0.46713 0.9485 0.0
H612 H 0.16327 0.49105 0.92017 0.0
H613 H 0.30423 0.62271 0.89298 0.0
H614 H 0.25795 0.60584 0.88398 0.0
H615 H 0.2396 0.531 0.90558 0.0
H616 H 0.28579 0.5479 0.9152 0.0
H617 H 0.20232 0.53929 0.91872 0.0
H618 H 0.24695 0.54822 0.84949 0.0
H619 H 0.27979 0.56972 0.81971 0.0
H620 H 0.2521 0.62138 0.8082 0.0
H621 H 0.21939 0.60048 0.83821 0.0
C622 C 0.09642 0.48716 0.85253 0.0
C623 C 0.0891 0.5027 0.84094 0.0
C624 C 0.12022 0.49811 0.86456 0.0
C625 C 0.13697 0.52474 0.86525 0.0
C626 C 0.1287 0.54026 0.85517 0.0
C627 C 0.10495 0.52937 0.84323 0.0
C628 C 0.16442 0.53628 0.87364 0.0
C629 C 0.1846 0.55039 0.8583 0.0
C630 C 0.17083 0.53204 0.89566 0.0
C631 C 0.15035 0.51766 0.91275 0.0
C632 C 0.13192 0.52473 0.91805 0.0
C633 C 0.11259 0.511 0.93407 0.0
C634 C 0.11157 0.49024 0.94502 0.0
C635 C 0.12993 0.4832 0.94 0.0
C636 C 0.14929 0.49686 0.92397 0.0
C637 C 0.29034 0.60269 0.89596 0.0
C638 C 0.29876 0.58661 0.90463 0.0
C639 C 0.26387 0.59304 0.89074 0.0
C640 C 0.24531 0.56703 0.89372 0.0
C641 C 0.25353 0.55112 0.90308 0.0
C642 C 0.27999 0.5608 0.90851 0.0
C643 C 0.21756 0.55627 0.8863 0.0
C644 C 0.19734 0.54209 0.9017 0.0
C645 C 0.21099 0.56013 0.86416 0.0
C646 C 0.23097 0.57301 0.84636 0.0
C647 C 0.24807 0.56436 0.84081 0.0
C648 C 0.26662 0.57641 0.82385 0.0
C649 C 0.2681 0.59697 0.81214 0.0
C650 C 0.251 0.60551 0.81734 0.0
C651 C 0.23246 0.59358 0.83434 0.0
H652 H 0.28245 0.60624 0.79898 0.0
H653 H 0.0966 0.47963 0.95742 0.0
H654 H 0.5598 0.10125 0.01654 0.0
H655 H 0.58349 0.14232 0.03641 0.0
H656 H 0.65324 0.13723 0.03809 0.0
H657 H 0.62941 0.09589 0.01866 0.0
H658 H 0.6508 0.16395 0.07502 0.0
H659 H 0.6403 0.16189 0.99399 0.0
H660 H 0.61335 0.14811 0.95915 0.0
H661 H 0.57561 0.18875 0.97946 0.0
H662 H 0.60145 0.20179 0.015 0.0
H663 H 0.75182 0.29405 0.06626 0.0
H664 H 0.72171 0.24825 0.06112 0.0
H665 H 0.6565 0.26049 0.05647 0.0
H666 H 0.68656 0.30643 0.0613 0.0
H667 H 0.65417 0.22967 0.02341 0.0
H668 H 0.66647 0.23379 0.10368 0.0
H669 H 0.69171 0.24551 0.13948 0.0
H670 H 0.7266 0.20185 0.12031 0.0
H671 H 0.70184 0.19014 0.08424 0.0
C672 C 0.57988 0.10845 0.022 0.0
C673 C 0.59289 0.09559 0.01595 0.0
C674 C 0.59342 0.13192 0.03325 0.0
C675 C 0.62029 0.1431 0.03819 0.0
C676 C 0.63254 0.129 0.03434 0.0
C677 C 0.6189 0.10535 0.02329 0.0
C678 C 0.63643 0.17068 0.04384 0.0
C679 C 0.65167 0.17836 0.06373 0.0
C680 C 0.6373 0.18945 0.02915 0.0
C681 C 0.62262 0.1826 0.0073 0.0
C682 C 0.62616 0.16779 0.99111 0.0
C683 C 0.61107 0.16009 0.97123 0.0
C684 C 0.59288 0.16764 0.96703 0.0
C685 C 0.58971 0.1829 0.98273 0.0
C686 C 0.60449 0.19036 0.0028 0.0
C687 C 0.73106 0.28702 0.06428 0.0
C688 C 0.72162 0.30394 0.06419 0.0
C689 C 0.71383 0.26078 0.06146 0.0
C690 C 0.68678 0.25086 0.05866 0.0
C691 C 0.67728 0.26769 0.05866 0.0
C692 C 0.6945 0.29395 0.06146 0.0
C693 C 0.66859 0.22309 0.0547 0.0
C694 C 0.6531 0.21534 0.03493 0.0
C695 C 0.66759 0.20433 0.06946 0.0
C696 C 0.68246 0.21127 0.09116 0.0
C697 C 0.67968 0.22684 0.10702 0.0
C698 C 0.69387 0.23346 0.12737 0.0
C699 C 0.71079 0.22448 0.13214 0.0
C700 C 0.71351 0.20881 0.11658 0.0
C701 C 0.69937 0.20216 0.09619 0.0
H702 H 0.72176 0.22962 0.14791 0.0
H703 H 0.58123 0.16164 0.95161 0.0
H704 H 0.47032 0.56245 0.18304 0.0
H705 H 0.44916 0.58359 0.20023 0.0
H706 H 0.52459 0.6522 0.20935 0.0
H707 H 0.54589 0.63104 0.19221 0.0
H708 H 0.48613 0.64412 0.24365 0.0
H709 H 0.49641 0.64721 0.16263 0.0
H710 H 0.4927 0.62711 0.12557 0.0
H711 H 0.40905 0.58179 0.13235 0.0
H712 H 0.41233 0.60123 0.16972 0.0
H713 H 0.44398 0.73467 0.23436 0.0
H714 H 0.46661 0.7108 0.23101 0.0
H715 H 0.39413 0.64398 0.20976 0.0
H716 H 0.37156 0.66778 0.21262 0.0
H717 H 0.43218 0.65137 0.18279 0.0
H718 H 0.42142 0.64939 0.26323 0.0
H719 H 0.4252 0.66763 0.30122 0.0
H720 H 0.50913 0.71024 0.29602 0.0
H721 H 0.50584 0.69251 0.25785 0.0
C722 C 0.48245 0.5817 0.18955 0.0
C723 C 0.50967 0.59523 0.1861 0.0
C724 C 0.47037 0.59376 0.19932 0.0
C725 C 0.48529 0.61959 0.20562 0.0
C726 C 0.51275 0.63227 0.20456 0.0
C727 C 0.5249 0.62014 0.19482 0.0
C728 C 0.47209 0.63428 0.20935 0.0
C729 C 0.47451 0.64596 0.23034 0.0
C730 C 0.45678 0.63642 0.19198 0.0
C731 C 0.45464 0.62551 0.16907 0.0
C732 C 0.47723 0.63287 0.15627 0.0
C733 C 0.47522 0.62159 0.13521 0.0
C734 C 0.45067 0.60314 0.12663 0.0
C735 C 0.42807 0.59605 0.13904 0.0
C736 C 0.42999 0.6072 0.16016 0.0
C737 C 0.43283 0.71484 0.22911 0.0
C738 C 0.40596 0.70316 0.2237 0.0
C739 C 0.44577 0.70117 0.22731 0.0
C740 C 0.43204 0.67549 0.22031 0.0
C741 C 0.40516 0.66376 0.21517 0.0
C742 C 0.39227 0.67741 0.21685 0.0
C743 C 0.44577 0.66108 0.21731 0.0
C744 C 0.44365 0.64954 0.19624 0.0
C745 C 0.46133 0.65915 0.23464 0.0
C746 C 0.46336 0.66982 0.25759 0.0
C747 C 0.44068 0.66281 0.27011 0.0
C748 C 0.44273 0.67302 0.29169 0.0
C749 C 0.46739 0.69014 0.301 0.0
C750 C 0.49005 0.69701 0.28877 0.0
C751 C 0.4881 0.68687 0.26717 0.0
H752 H 0.46894 0.69802 0.31771 0.0
H753 H 0.44916 0.59438 0.11035 0.0
H754 H 0.92403 0.4871 0.36655 0.0
H755 H 0.88322 0.47168 0.38744 0.0
H756 H 0.8794 0.53694 0.36492 0.0
H757 H 0.92089 0.553 0.34521 0.0
H758 H 0.85573 0.52163 0.40425 0.0
H759 H 0.85183 0.48007 0.33275 0.0
H760 H 0.86632 0.45738 0.3078 0.0
H761 H 0.84062 0.39705 0.35626 0.0
H762 H 0.82599 0.41939 0.3815 0.0
H763 H 0.72033 0.47185 0.38215 0.0
H764 H 0.76778 0.49034 0.38074 0.0
H765 H 0.75951 0.42211 0.41043 0.0
H766 H 0.71192 0.40337 0.41185 0.0
H767 H 0.78994 0.43669 0.37295 0.0
H768 H 0.78601 0.47631 0.44119 0.0
H769 H 0.77291 0.50056 0.46548 0.0
H770 H 0.8133 0.56571 0.42226 0.0
H771 H 0.82633 0.54172 0.39751 0.0
C772 C 0.91505 0.49868 0.36703 0.0
C773 C 0.92548 0.5212 0.35439 0.0
C774 C 0.89161 0.48976 0.37871 0.0
C775 C 0.87777 0.50272 0.37711 0.0
C776 C 0.88958 0.52651 0.36632 0.0
C777 C 0.91334 0.53574 0.35511 0.0
C778 C 0.8497 0.49001 0.38358 0.0
C779 C 0.84133 0.50309 0.3974 0.0
C780 C 0.83085 0.46565 0.37485 0.0
C781 C 0.83807 0.45148 0.35907 0.0
C782 C 0.8492 0.46192 0.33803 0.0
C783 C 0.85748 0.44916 0.32387 0.0
C784 C 0.8546 0.42593 0.33056 0.0
C785 C 0.84293 0.41511 0.35117 0.0
C786 C 0.83457 0.42776 0.36538 0.0
C787 C 0.72858 0.46081 0.38854 0.0
C788 C 0.7123 0.43609 0.39707 0.0
C789 C 0.75576 0.4715 0.38785 0.0
C790 C 0.76723 0.45771 0.39568 0.0
C791 C 0.75108 0.43312 0.40439 0.0
C792 C 0.72388 0.42246 0.4052 0.0
C793 C 0.79589 0.46842 0.39344 0.0
C794 C 0.80434 0.45502 0.38021 0.0
C795 C 0.81467 0.49259 0.40249 0.0
C796 C 0.80699 0.50713 0.4174 0.0
C797 C 0.79194 0.49574 0.43676 0.0
C798 C 0.78455 0.50946 0.45063 0.0
C799 C 0.79223 0.53465 0.44539 0.0
C800 C 0.80736 0.54619 0.4263 0.0
C801 C 0.81478 0.53255 0.41236 0.0
H802 H 0.78649 0.54523 0.45615 0.0
H803 H 0.86152 0.41635 0.31983 0.0
H804 H 0.11457 0.61294 0.35543 0.0
H805 H 0.13519 0.61213 0.3909 0.0
H806 H 0.063 0.54558 0.41155 0.0
H807 H 0.04216 0.54605 0.37544 0.0
H808 H 0.08886 0.58254 0.44642 0.0
H809 H 0.10851 0.53684 0.39336 0.0
H810 H 0.12305 0.52813 0.35741 0.0
H811 H 0.20033 0.59286 0.36856 0.0
H812 H 0.18604 0.60254 0.40415 0.0
H813 H 0.16493 0.5727 0.53699 0.0
H814 H 0.1351 0.56123 0.50445 0.0
H815 H 0.19647 0.62289 0.4664 0.0
H816 H 0.22644 0.63434 0.49868 0.0
H817 H 0.17043 0.5793 0.4416 0.0
H818 H 0.14798 0.62862 0.49097 0.0
H819 H 0.13375 0.63751 0.52705 0.0
H820 H 0.06206 0.56487 0.52316 0.0
H821 H 0.07604 0.55543 0.48716 0.0
C822 C 0.10308 0.598 0.36741 0.0
C823 C 0.07694 0.57919 0.36242 0.0
C824 C 0.11487 0.59763 0.38773 0.0
C825 C 0.10079 0.5785 0.40365 0.0
C826 C 0.07424 0.56039 0.39936 0.0
C827 C 0.06237 0.56069 0.37881 0.0
C828 C 0.11448 0.57753 0.42437 0.0
C829 C 0.10637 0.58127 0.44546 0.0
C830 C 0.13747 0.57611 0.42304 0.0
C831 C 0.1461 0.57053 0.40141 0.0
C832 C 0.12851 0.54943 0.38802 0.0
C833 C 0.13672 0.54432 0.36768 0.0
C834 C 0.16258 0.55997 0.36066 0.0
C835 C 0.18028 0.58078 0.37397 0.0
C836 C 0.17211 0.58613 0.39421 0.0
C837 C 0.17213 0.58374 0.52165 0.0
C838 C 0.19807 0.6045 0.52045 0.0
C839 C 0.155 0.57721 0.50311 0.0
C840 C 0.16349 0.59136 0.48308 0.0
C841 C 0.18951 0.61172 0.4817 0.0
C842 C 0.20661 0.61829 0.5002 0.0
C843 C 0.14541 0.58531 0.46349 0.0
C844 C 0.15267 0.58015 0.4426 0.0
C845 C 0.12169 0.5854 0.46504 0.0
C846 C 0.11318 0.5912 0.48653 0.0
C847 C 0.12927 0.61447 0.49789 0.0
C848 C 0.12123 0.61963 0.51831 0.0
C849 C 0.09705 0.60173 0.52743 0.0
C850 C 0.08081 0.57869 0.5161 0.0
C851 C 0.08876 0.57344 0.49568 0.0
H852 H 0.09087 0.60575 0.54325 0.0
H853 H 0.16891 0.55594 0.34494 0.0
H854 H 0.50129 0.04377 0.5433 0.0
H855 H 0.51995 0.06225 0.58065 0.0
H856 H 0.53764 0.13619 0.5572 0.0
H857 H 0.51786 0.11802 0.52078 0.0
H858 H 0.58058 0.1338 0.58129 0.0
H859 H 0.48719 0.10713 0.58544 0.0
H860 H 0.44009 0.07438 0.5839 0.0
H861 H 0.45145 0.03242 0.63652 0.0
H862 H 0.49873 0.06479 0.63812 0.0
H863 H 0.6023 0.22327 0.66465 0.0
H864 H 0.58806 0.19368 0.63274 0.0
H865 H 0.55515 0.12997 0.67868 0.0
H866 H 0.56837 0.15956 0.71069 0.0
H867 H 0.52252 0.11924 0.64628 0.0
H868 H 0.61328 0.14893 0.64829 0.0
H869 H 0.66081 0.17996 0.65048 0.0
H870 H 0.65655 0.21311 0.58777 0.0
H871 H 0.60892 0.18253 0.58535 0.0
C872 C 0.50902 0.06392 0.54615 0.0
C873 C 0.50843 0.07941 0.52877 0.0
C874 C 0.51983 0.07445 0.56741 0.0
C875 C 0.53043 0.10062 0.57147 0.0
C876 C 0.52996 0.11604 0.55423 0.0
C877 C 0.51879 0.10556 0.53328 0.0
C878 C 0.54122 0.11233 0.59381 0.0
C879 C 0.56802 0.13064 0.5956 0.0
C880 C 0.52489 0.10746 0.6126 0.0
C881 C 0.4965 0.08816 0.61168 0.0
C882 C 0.47968 0.09079 0.59652 0.0
C883 C 0.45295 0.07233 0.59567 0.0
C884 C 0.4428 0.05128 0.61004 0.0
C885 C 0.45935 0.0487 0.62535 0.0
C886 C 0.4861 0.06709 0.62624 0.0
C887 C 0.59215 0.20297 0.66796 0.0
C888 C 0.58647 0.19375 0.69016 0.0
C889 C 0.58418 0.18603 0.6497 0.0
C890 C 0.57098 0.15953 0.65326 0.0
C891 C 0.56538 0.1503 0.67547 0.0
C892 C 0.57295 0.16724 0.69374 0.0
C893 C 0.56198 0.1416 0.63369 0.0
C894 C 0.53546 0.1221 0.63235 0.0
C895 C 0.57874 0.14508 0.61544 0.0
C896 C 0.60746 0.16348 0.61671 0.0
C897 C 0.62244 0.16293 0.63503 0.0
C898 C 0.64941 0.18044 0.63631 0.0
C899 C 0.66168 0.19851 0.61929 0.0
C900 C 0.64702 0.19909 0.60094 0.0
C901 C 0.62003 0.18164 0.59959 0.0
H902 H 0.68257 0.21206 0.62032 0.0
H903 H 0.4221 0.03702 0.60937 0.0
H904 H 0.42957 0.47606 0.72028 0.0
H905 H 0.42721 0.49239 0.75732 0.0
H906 H 0.47048 0.5694 0.73213 0.0
H907 H 0.47354 0.55322 0.6952 0.0
H908 H 0.48013 0.56731 0.77774 0.0
H909 H 0.40642 0.53791 0.72685 0.0
H910 H 0.37147 0.50678 0.70138 0.0
H911 H 0.33732 0.45415 0.75631 0.0
H912 H 0.37236 0.48486 0.78205 0.0
H913 H 0.42277 0.62541 0.84175 0.0
H914 H 0.43812 0.60919 0.81143 0.0
H915 H 0.39412 0.53344 0.83924 0.0
H916 H 0.37867 0.54941 0.86952 0.0
H917 H 0.3862 0.53415 0.79372 0.0
H918 H 0.45939 0.5673 0.84556 0.0
H919 H 0.4945 0.60016 0.86983 0.0
H920 H 0.52945 0.648 0.81208 0.0
H921 H 0.49432 0.61557 0.78749 0.0
C922 C 0.43959 0.49652 0.72289 0.0
C923 C 0.45139 0.51336 0.70476 0.0
C924 C 0.43804 0.50582 0.74403 0.0
C925 C 0.4481 0.53205 0.74727 0.0
C926 C 0.46242 0.54908 0.72994 0.0
C927 C 0.46404 0.53981 0.70883 0.0
C928 C 0.44025 0.54126 0.76714 0.0
C929 C 0.45962 0.56017 0.78123 0.0
C930 C 0.41347 0.5319 0.77165 0.0
C931 C 0.39216 0.51355 0.75631 0.0
C932 C 0.39156 0.51962 0.73346 0.0
C933 C 0.37173 0.50207 0.71897 0.0
C934 C 0.35223 0.47847 0.7272 0.0
C935 C 0.35247 0.47242 0.74995 0.0
C936 C 0.37231 0.48989 0.7645 0.0
C937 C 0.41638 0.60531 0.84142 0.0
C938 C 0.39947 0.58869 0.85803 0.0
C939 C 0.42531 0.59611 0.82417 0.0
C940 C 0.41745 0.57015 0.82323 0.0
C941 C 0.40048 0.55354 0.83971 0.0
C942 C 0.39168 0.56273 0.85701 0.0
C943 C 0.42604 0.56004 0.80457 0.0
C944 C 0.40672 0.54108 0.7905 0.0
C945 C 0.45285 0.56963 0.79998 0.0
C946 C 0.47408 0.5891 0.81471 0.0
C947 C 0.47444 0.58491 0.83805 0.0
C948 C 0.49437 0.60345 0.85187 0.0
C949 C 0.51416 0.62618 0.84251 0.0
C950 C 0.5141 0.63039 0.8193 0.0
C951 C 0.4942 0.61193 0.80542 0.0
H952 H 0.52957 0.6405 0.85323 0.0
H953 H 0.33689 0.4649 0.71596 0.0
H954 H 0.96381 0.46366 0.87376 0.0
H955 H 0.9396 0.4608 0.90833 0.0
H956 H 0.87154 0.39296 0.88193 0.0
H957 H 0.89541 0.3956 0.8479 0.0
H958 H 0.86056 0.42953 0.89551 0.0
H959 H 0.90743 0.38885 0.92339 0.0
H960 H 0.94728 0.3876 0.93281 0.0
H961 H 0.97284 0.45117 0.97813 0.0
H962 H 0.93328 0.45301 0.96873 0.0
H963 H 0.76934 0.36487 0.98039 0.0
H964 H 0.80236 0.3782 0.95109 0.0
H965 H 0.85864 0.43959 0.99392 0.0
H966 H 0.82574 0.42613 0.02356 0.0
H967 H 0.88044 0.41527 0.97389 0.0
H968 H 0.83111 0.45263 0.94982 0.0
H969 H 0.79154 0.45439 0.9405 0.0
H970 H 0.77131 0.39878 0.88782 0.0
H971 H 0.81055 0.39638 0.89704 0.0
C972 C 0.94382 0.448 0.87561 0.0
C973 C 0.93129 0.43012 0.85805 0.0
C974 C 0.93002 0.4464 0.89526 0.0
C975 C 0.90368 0.42683 0.89752 0.0
C976 C 0.89171 0.40841 0.88039 0.0
C977 C 0.90537 0.40996 0.86096 0.0
C978 C 0.88772 0.42565 0.91705 0.0
C979 C 0.86484 0.42633 0.91265 0.0
C980 C 0.89386 0.42243 0.93949 0.0
C981 C 0.91759 0.42129 0.94514 0.0
C982 C 0.92167 0.40272 0.9352 0.0
C983 C 0.94418 0.40187 0.94057 0.0
C984 C 0.96263 0.41936 0.95599 0.0
C985 C 0.95857 0.43768 0.96614 0.0
C986 C 0.9361 0.43863 0.96081 0.0
C987 C 0.78869 0.38127 0.98359 0.0
C988 C 0.79484 0.3945 0.00428 0.0
C989 C 0.80754 0.38893 0.96678 0.0
C990 C 0.83288 0.41011 0.97021 0.0
C991 C 0.83919 0.42326 0.9909 0.0
C992 C 0.82032 0.41559 0.00777 0.0
C993 C 0.8527 0.41812 0.95216 0.0
C994 C 0.87634 0.41889 0.95683 0.0
C995 C 0.84734 0.4228 0.92991 0.0
C996 C 0.82371 0.42421 0.92424 0.0
C997 C 0.81812 0.44063 0.93636 0.0
C998 C 0.79576 0.44177 0.93107 0.0
C999 C 0.7789 0.42668 0.9136 0.0
C1000 C 0.78439 0.41045 0.90135 0.0
C1001 C 0.80671 0.40922 0.90659 0.0
H1002 H 0.7616 0.42759 0.90954 0.0
H1003 H 0.98003 0.41866 0.96014 0.0
H1004 H 0.54323 0.96418 0.05471 0.0
H1005 H 0.52313 0.94259 0.0902 0.0
H1006 H 0.44825 0.92933 0.06658 0.0
H1007 H 0.46816 0.95026 0.03073 0.0
H1008 H 0.46642 0.94195 0.11982 0.0
H1009 H 0.44946 0.88519 0.05392 0.0
H1010 H 0.46438 0.8714 0.02104 0.0
H1011 H 0.51866 0.86328 0.06351 0.0
H1012 H 0.50434 0.87743 0.09658 0.0
H1013 H 0.37861 0.83431 0.18486 0.0
H1014 H 0.40037 0.86646 0.15552 0.0
H1015 H 0.4624 0.8494 0.15333 0.0
H1016 H 0.43986 0.81625 0.18166 0.0
H1017 H 0.45191 0.85454 0.11357 0.0
H1018 H 0.46821 0.90556 0.17965 0.0
H1019 H 0.45744 0.9207 0.21418 0.0
H1020 H 0.41077 0.94232 0.17501 0.0
H1021 H 0.42098 0.927 0.14025 0.0
C1022 C 0.52276 0.95772 0.05755 0.0
C1023 C 0.50721 0.95898 0.04017 0.0
C1024 C 0.5113 0.94529 0.07773 0.0
C1025 C 0.48425 0.93436 0.08087 0.0
C1026 C 0.4692 0.93785 0.06446 0.0
C1027 C 0.48056 0.94984 0.04408 0.0
C1028 C 0.4711 0.91568 0.09914 0.0
C1029 C 0.46293 0.92273 0.11849 0.0
C1030 C 0.46738 0.89095 0.09755 0.0
C1031 C 0.47606 0.88264 0.07763 0.0
C1032 C 0.46479 0.88075 0.05618 0.0
C1033 C 0.47307 0.87279 0.03754 0.0
C1034 C 0.49246 0.86648 0.04019 0.0
C1035 C 0.50365 0.86818 0.06149 0.0
C1036 C 0.49546 0.87617 0.08017 0.0
C1037 C 0.39686 0.83742 0.17804 0.0
C1038 C 0.40753 0.82277 0.18549 0.0
C1039 C 0.40944 0.85599 0.16141 0.0
C1040 C 0.43338 0.86083 0.15244 0.0
C1041 C 0.44398 0.8461 0.15992 0.0
C1042 C 0.43108 0.82713 0.17612 0.0
C1043 C 0.44696 0.88053 0.1347 0.0
C1044 C 0.45529 0.8737 0.11523 0.0
C1045 C 0.45131 0.90561 0.13653 0.0
C1046 C 0.44516 0.9149 0.15738 0.0
C1047 C 0.4555 0.91337 0.17842 0.0
C1048 C 0.44952 0.92201 0.19803 0.0
C1049 C 0.43337 0.9324 0.1968 0.0
C1050 C 0.42324 0.93424 0.17594 0.0
C1051 C 0.42914 0.9256 0.15627 0.0
H1052 H 0.42877 0.93908 0.212 0.0
H1053 H 0.49878 0.8602 0.02579 0.0
H1054 H 0.54003 0.5079 0.21328 0.0
H1055 H 0.53631 0.48467 0.24842 0.0
H1056 H 0.60499 0.48197 0.2305 0.0
H1057 H 0.60919 0.50538 0.1961 0.0
H1058 H 0.56383 0.435 0.24353 0.0
H1059 H 0.60922 0.52373 0.26876 0.0
H1060 H 0.61306 0.56549 0.27474 0.0
H1061 H 0.54355 0.52999 0.315 0.0
H1062 H 0.53912 0.48795 0.30899 0.0
H1063 H 0.62166 0.41273 0.33722 0.0
H1064 H 0.61084 0.43043 0.30478 0.0
H1065 H 0.54725 0.42773 0.34165 0.0
H1066 H 0.55815 0.41025 0.37439 0.0
H1067 H 0.57541 0.47266 0.32009 0.0
H1068 H 0.53377 0.38504 0.29989 0.0
H1069 H 0.52959 0.34311 0.29418 0.0
H1070 H 0.59017 0.37534 0.24446 0.0
H1071 H 0.595 0.41757 0.2501 0.0
C1072 C 0.55436 0.50243 0.21697 0.0
C1073 C 0.57458 0.50805 0.20167 0.0
C1074 C 0.55218 0.48914 0.23697 0.0
C1075 C 0.57025 0.4814 0.24191 0.0
C1076 C 0.59061 0.4874 0.22685 0.0
C1077 C 0.59287 0.5007 0.20709 0.0
C1078 C 0.56853 0.46708 0.26269 0.0
C1079 C 0.56637 0.44321 0.26029 0.0
C1080 C 0.57093 0.47742 0.28456 0.0
C1081 C 0.57364 0.50268 0.28818 0.0
C1082 C 0.59462 0.5248 0.27871 0.0
C1083 C 0.59693 0.54853 0.28214 0.0
C1084 C 0.5785 0.55038 0.29517 0.0
C1085 C 0.55777 0.52852 0.30486 0.0
C1086 C 0.55536 0.50475 0.30146 0.0
C1087 C 0.60529 0.41576 0.33843 0.0
C1088 C 0.59071 0.40997 0.35837 0.0
C1089 C 0.59905 0.4258 0.31983 0.0
C1090 C 0.57801 0.43009 0.32068 0.0
C1091 C 0.56349 0.42448 0.3406 0.0
C1092 C 0.56972 0.41441 0.35925 0.0
C1093 C 0.57175 0.441 0.30085 0.0
C1094 C 0.57231 0.46414 0.30341 0.0
C1095 C 0.56773 0.42993 0.27908 0.0
C1096 C 0.56485 0.40453 0.27553 0.0
C1097 C 0.54633 0.38324 0.28785 0.0
C1098 C 0.54383 0.35941 0.28461 0.0
C1099 C 0.55963 0.35658 0.26899 0.0
C1100 C 0.57794 0.37757 0.25655 0.0
C1101 C 0.58055 0.40145 0.25974 0.0
H1102 H 0.55766 0.33811 0.26651 0.0
H1103 H 0.58033 0.56876 0.29781 0.0
H1104 H 0.47589 0.94554 0.43661 0.0
H1105 H 0.46806 0.9194 0.4027 0.0
H1106 H 0.4017 0.92679 0.38498 0.0
H1107 H 0.40956 0.95307 0.41876 0.0
H1108 H 0.39077 0.87566 0.39001 0.0
H1109 H 0.45173 0.95362 0.35222 0.0
H1110 H 0.494 0.99368 0.34734 0.0
H1111 H 0.53384 0.9517 0.3452 0.0
H1112 H 0.49182 0.9114 0.35039 0.0
H1113 H 0.35171 0.80815 0.28699 0.0
H1114 H 0.36577 0.84014 0.31687 0.0
H1115 H 0.43879 0.84142 0.32385 0.0
H1116 H 0.42508 0.80976 0.29342 0.0
H1117 H 0.44789 0.88847 0.32474 0.0
H1118 H 0.38975 0.81149 0.36302 0.0
H1119 H 0.34905 0.77051 0.36989 0.0
H1120 H 0.30582 0.80907 0.37386 0.0
H1121 H 0.34622 0.85027 0.3667 0.0
C1122 C 0.46017 0.94225 0.42505 0.0
C1123 C 0.44339 0.95139 0.43019 0.0
C1124 C 0.4557 0.92732 0.40575 0.0
C1125 C 0.43427 0.92115 0.39143 0.0
C1126 C 0.41837 0.93141 0.39586 0.0
C1127 C 0.42302 0.94661 0.415 0.0
C1128 C 0.42676 0.90181 0.37333 0.0
C1129 C 0.40301 0.87859 0.3755 0.0
C1130 C 0.44338 0.90529 0.35507 0.0
C1131 C 0.46865 0.92951 0.35193 0.0
C1132 C 0.46953 0.95294 0.35093 0.0
C1133 C 0.49344 0.97569 0.34806 0.0
C1134 C 0.5166 0.97524 0.34603 0.0
C1135 C 0.51589 0.95203 0.34681 0.0
C1136 C 0.49202 0.92922 0.34969 0.0
C1137 C 0.37071 0.81508 0.29494 0.0
C1138 C 0.38722 0.8063 0.28788 0.0
C1139 C 0.3787 0.83335 0.3121 0.0
C1140 C 0.40322 0.84298 0.32283 0.0
C1141 C 0.41978 0.83426 0.31583 0.0
C1142 C 0.41186 0.81608 0.29851 0.0
C1143 C 0.41156 0.86238 0.34113 0.0
C1144 C 0.43555 0.88552 0.33916 0.0
C1145 C 0.39536 0.85869 0.35986 0.0
C1146 C 0.37098 0.83394 0.36409 0.0
C1147 C 0.37153 0.81121 0.36516 0.0
C1148 C 0.34851 0.78794 0.36915 0.0
C1149 C 0.32485 0.78718 0.37225 0.0
C1150 C 0.32416 0.80969 0.37142 0.0
C1151 C 0.34711 0.83301 0.36742 0.0
H1152 H 0.30706 0.76915 0.37534 0.0
H1153 H 0.53509 0.99287 0.3438 0.0
H1154 H 0.47726 0.43403 0.58256 0.0
H1155 H 0.49974 0.43239 0.54875 0.0
H1156 H 0.57288 0.49453 0.57478 0.0
H1157 H 0.55056 0.4958 0.60899 0.0
H1158 H 0.5581 0.48786 0.52049 0.0
H1159 H 0.57329 0.45127 0.58893 0.0
H1160 H 0.55659 0.42542 0.62349 0.0
H1161 H 0.50209 0.36047 0.5836 0.0
H1162 H 0.51812 0.38616 0.54885 0.0
H1163 H 0.64622 0.46322 0.4614 0.0
H1164 H 0.62534 0.47478 0.49057 0.0
H1165 H 0.55845 0.39804 0.48931 0.0
H1166 H 0.5795 0.38617 0.46054 0.0
H1167 H 0.57064 0.41412 0.53125 0.0
H1168 H 0.55759 0.44824 0.46263 0.0
H1169 H 0.57089 0.47352 0.42761 0.0
H1170 H 0.61839 0.54204 0.46624 0.0
H1171 H 0.60565 0.5171 0.50149 0.0
C1172 C 0.49789 0.44808 0.5806 0.0
C1173 C 0.51225 0.46505 0.59828 0.0
C1174 C 0.5107 0.44706 0.56135 0.0
C1175 C 0.53791 0.46327 0.55942 0.0
C1176 C 0.55183 0.48201 0.57598 0.0
C1177 C 0.53911 0.48271 0.59546 0.0
C1178 C 0.5522 0.45742 0.54254 0.0
C1179 C 0.56124 0.47201 0.52287 0.0
C1180 C 0.55568 0.43639 0.54561 0.0
C1181 C 0.5467 0.42068 0.56635 0.0
C1182 C 0.55761 0.43153 0.58756 0.0
C1183 C 0.54829 0.41692 0.60718 0.0
C1184 C 0.52825 0.39134 0.60575 0.0
C1185 C 0.51759 0.3803 0.58469 0.0
C1186 C 0.52678 0.39487 0.56503 0.0
C1187 C 0.62712 0.44876 0.4674 0.0
C1188 C 0.61448 0.42379 0.45859 0.0
C1189 C 0.61513 0.45545 0.48399 0.0
C1190 C 0.59012 0.43741 0.49187 0.0
C1191 C 0.57773 0.41231 0.48346 0.0
C1192 C 0.58979 0.40555 0.46699 0.0
C1193 C 0.57682 0.44461 0.50889 0.0
C1194 C 0.5678 0.43015 0.52873 0.0
C1195 C 0.57329 0.46571 0.50583 0.0
C1196 C 0.58087 0.48077 0.48468 0.0
C1197 C 0.57102 0.46867 0.46365 0.0
C1198 C 0.57844 0.48294 0.44376 0.0
C1199 C 0.59553 0.50936 0.4447 0.0
C1200 C 0.60518 0.52157 0.46554 0.0
C1201 C 0.59785 0.50738 0.48548 0.0
H1202 H 0.60125 0.52037 0.42928 0.0
H1203 H 0.52104 0.38006 0.62095 0.0
H1204 H 0.0858 0.47834 0.75803 0.0
H1205 H 0.11273 0.50284 0.726 0.0
H1206 H 0.07702 0.54897 0.72659 0.0
H1207 H 0.05034 0.52469 0.75916 0.0
H1208 H 0.09119 0.53228 0.67967 0.0
H1209 H 0.12438 0.57542 0.75188 0.0
H1210 H 0.1356 0.57638 0.79224 0.0
H1211 H 0.19081 0.55361 0.77561 0.0
H1212 H 0.17932 0.55175 0.73516 0.0
H1213 H 0.19717 0.62967 0.61683 0.0
H1214 H 0.16223 0.60871 0.64461 0.0
H1215 H 0.20215 0.5733 0.67455 0.0
H1216 H 0.23742 0.59474 0.64741 0.0
H1217 H 0.18314 0.58805 0.70643 0.0
H1218 H 0.14951 0.54161 0.63632 0.0
H1219 H 0.13792 0.53695 0.59575 0.0
H1220 H 0.0843 0.56296 0.60776 0.0
H1221 H 0.09586 0.56812 0.64838 0.0
C1222 C 0.08298 0.49304 0.75071 0.0
C1223 C 0.06592 0.49956 0.76071 0.0
C1224 C 0.0984 0.50706 0.73254 0.0
C1225 C 0.09687 0.52771 0.7241 0.0
C1226 C 0.07827 0.53296 0.73286 0.0
C1227 C 0.06303 0.51909 0.75132 0.0
C1228 C 0.11727 0.54566 0.70851 0.0
C1229 C 0.11121 0.54492 0.68548 0.0
C1230 C 0.14342 0.5616 0.7162 0.0
C1231 C 0.15073 0.56314 0.74049 0.0
C1232 C 0.13867 0.57031 0.75683 0.0
C1233 C 0.1451 0.57104 0.77973 0.0
C1234 C 0.16385 0.56499 0.78649 0.0
C1235 C 0.17623 0.55823 0.77035 0.0
C1236 C 0.16975 0.55731 0.74743 0.0
C1237 C 0.19861 0.6176 0.62948 0.0
C1238 C 0.22002 0.61377 0.62984 0.0
C1239 C 0.17855 0.60552 0.64527 0.0
C1240 C 0.17932 0.58907 0.66146 0.0
C1241 C 0.20108 0.58587 0.66223 0.0
C1242 C 0.22123 0.59812 0.64664 0.0
C1243 C 0.15732 0.5746 0.6773 0.0
C1244 C 0.16308 0.57587 0.70051 0.0
C1245 C 0.13099 0.55893 0.66969 0.0
C1246 C 0.12377 0.55553 0.64534 0.0
C1247 C 0.13538 0.5465 0.63028 0.0
C1248 C 0.1288 0.54375 0.60728 0.0
C1249 C 0.11045 0.54974 0.59917 0.0
C1250 C 0.09855 0.55839 0.61406 0.0
C1251 C 0.1051 0.56121 0.63707 0.0
H1252 H 0.1054 0.54762 0.58135 0.0
H1253 H 0.16885 0.56564 0.80421 0.0
H1254 H 0.59058 0.06254 0.91909 0.0
H1255 H 0.5962 0.08636 0.88437 0.0
H1256 H 0.55081 0.11654 0.91221 0.0
H1257 H 0.5442 0.09195 0.94669 0.0
H1258 H 0.5418 0.10765 0.86683 0.0
H1259 H 0.61714 0.15081 0.91691 0.0
H1260 H 0.65339 0.15433 0.94059 0.0
H1261 H 0.68529 0.13763 0.8829 0.0
H1262 H 0.64915 0.1338 0.85896 0.0
H1263 H 0.59315 0.22052 0.80042 0.0
H1264 H 0.58 0.1903 0.83174 0.0
H1265 H 0.62871 0.16281 0.80601 0.0
H1266 H 0.64233 0.1932 0.77503 0.0
H1267 H 0.63516 0.16955 0.84999 0.0
H1268 H 0.56132 0.12869 0.79917 0.0
H1269 H 0.52543 0.12544 0.77533 0.0
H1270 H 0.49053 0.13744 0.83356 0.0
H1271 H 0.52644 0.14115 0.85771 0.0
C1272 C 0.58099 0.0735 0.91756 0.0
C1273 C 0.56713 0.0755 0.93577 0.0
C1274 C 0.58451 0.08738 0.89779 0.0
C1275 C 0.57445 0.10369 0.89593 0.0
C1276 C 0.55892 0.10423 0.91335 0.0
C1277 C 0.55526 0.09025 0.93308 0.0
C1278 C 0.58193 0.12173 0.87677 0.0
C1279 C 0.56218 0.12135 0.86324 0.0
C1280 C 0.60855 0.13936 0.87189 0.0
C1281 C 0.63032 0.14175 0.88624 0.0
C1282 C 0.6318 0.1477 0.90936 0.0
C1283 C 0.65231 0.14978 0.9228 0.0
C1284 C 0.67154 0.1461 0.91328 0.0
C1285 C 0.67035 0.14043 0.89027 0.0
C1286 C 0.64989 0.13834 0.87675 0.0
C1287 C 0.60112 0.20809 0.80149 0.0
C1288 C 0.61879 0.20927 0.78522 0.0
C1289 C 0.59344 0.1907 0.81931 0.0
C1290 C 0.60309 0.17403 0.82106 0.0
C1291 C 0.62097 0.17544 0.80499 0.0
C1292 C 0.62873 0.19284 0.78727 0.0
C1293 C 0.59506 0.15542 0.83984 0.0
C1294 C 0.61474 0.15579 0.85343 0.0
C1295 C 0.5684 0.13778 0.84468 0.0
C1296 C 0.54672 0.13545 0.83021 0.0
C1297 C 0.54611 0.13084 0.80686 0.0
C1298 C 0.52574 0.12888 0.7933 0.0
C1299 C 0.50575 0.1313 0.80291 0.0
C1300 C 0.50605 0.13561 0.82613 0.0
C1301 C 0.52639 0.13762 0.83977 0.0
H1302 H 0.48999 0.12977 0.79238 0.0
H1303 H 0.68739 0.14771 0.92371 0.0
H1304 H 0.47057 0.54809 0.11551 0.0
H1305 H 0.45309 0.55305 0.07966 0.0
H1306 H 0.53183 0.60113 0.05529 0.0
H1307 H 0.54947 0.59716 0.09156 0.0
H1308 H 0.50472 0.62397 0.05054 0.0
H1309 H 0.48909 0.54092 0.03239 0.0
H1310 H 0.47263 0.4952 0.03836 0.0
H1311 H 0.39376 0.48011 0.04161 0.0
H1312 H 0.40978 0.52582 0.03597 0.0
H1313 H 0.46825 0.63915 0.94047 0.0
H1314 H 0.48542 0.62621 0.97206 0.0
H1315 H 0.40786 0.58326 2e-05 0.0
H1316 H 0.39036 0.59602 0.96824 0.0
H1317 H 0.43451 0.55696 0.00201 0.0
H1318 H 0.45032 0.6399 0.02201 0.0
H1319 H 0.46651 0.6856 0.01618 0.0
H1320 H 0.54512 0.70063 0.00978 0.0
H1321 H 0.52932 0.65493 0.01524 0.0
C1322 C 0.48418 0.55936 0.10237 0.0
C1323 C 0.51143 0.57239 0.10648 0.0
C1324 C 0.47414 0.56202 0.08179 0.0
C1325 C 0.49113 0.57745 0.06472 0.0
C1326 C 0.51834 0.58915 0.06823 0.0
C1327 C 0.52841 0.58663 0.0889 0.0
C1328 C 0.4806 0.58351 0.0443 0.0
C1329 C 0.48975 0.60928 0.03968 0.0
C1330 C 0.46039 0.56437 0.03057 0.0
C1331 C 0.45068 0.53685 0.03395 0.0
C1332 C 0.46826 0.52789 0.03456 0.0
C1333 C 0.459 0.50197 0.03785 0.0
C1334 C 0.43217 0.48477 0.04041 0.0
C1335 C 0.41454 0.49346 0.03964 0.0
C1336 C 0.4237 0.51937 0.03637 0.0
C1337 C 0.45477 0.62692 0.95329 0.0
C1338 C 0.42794 0.61876 0.95191 0.0
C1339 C 0.46466 0.61957 0.97136 0.0
C1340 C 0.44797 0.60398 0.98849 0.0
C1341 C 0.42107 0.59532 0.98697 0.0
C1342 C 0.41114 0.60273 0.96887 0.0
C1343 C 0.45885 0.59734 0.00825 0.0
C1344 C 0.44966 0.57156 0.01281 0.0
C1345 C 0.47903 0.61644 0.02198 0.0
C1346 C 0.4886 0.64396 0.0188 0.0
C1347 C 0.47103 0.65292 0.01917 0.0
C1348 C 0.48014 0.67883 0.01597 0.0
C1349 C 0.50682 0.696 0.01255 0.0
C1350 C 0.52445 0.6873 0.0124 0.0
C1351 C 0.51543 0.6614 0.01556 0.0
H1352 H 0.51383 0.71605 0.01008 0.0
H1353 H 0.42504 0.4647 0.04295 0.0
H1354 H 0.89892 0.49688 0.28408 0.0
H1355 H 0.87702 0.47268 0.25013 0.0
H1356 H 0.94895 0.47851 0.22845 0.0
H1357 H 0.97119 0.50261 0.26308 0.0
H1358 H 0.92499 0.48991 0.19466 0.0
H1359 H 0.89924 0.42139 0.24604 0.0
H1360 H 0.88176 0.39585 0.28063 0.0
H1361 H 0.80779 0.39083 0.2692 0.0
H1362 H 0.82489 0.41661 0.23469 0.0
H1363 H 0.85108 0.40845 0.10183 0.0
H1364 H 0.87916 0.42508 0.13551 0.0
H1365 H 0.81699 0.42664 0.17103 0.0
H1366 H 0.78867 0.40973 0.13755 0.0
H1367 H 0.84036 0.40759 0.19704 0.0
H1368 H 0.86829 0.48082 0.14864 0.0
H1369 H 0.88494 0.50509 0.1133 0.0
H1370 H 0.95467 0.50083 0.11919 0.0
H1371 H 0.93825 0.47623 0.15444 0.0
C1372 C 0.91005 0.49253 0.27245 0.0
C1373 C 0.93672 0.50122 0.27659 0.0
C1374 C 0.89746 0.47874 0.25294 0.0
C1375 C 0.91118 0.47331 0.23696 0.0
C1376 C 0.93795 0.48229 0.24071 0.0
C1377 C 0.95063 0.49609 0.26042 0.0
C1378 C 0.89748 0.4594 0.21593 0.0
C1379 C 0.9068 0.47161 0.19511 0.0
C1380 C 0.87348 0.43576 0.21657 0.0
C1381 C 0.8634 0.42101 0.23778 0.0
C1382 C 0.87933 0.41506 0.25101 0.0
C1383 C 0.86945 0.40045 0.27056 0.0
C1384 C 0.84363 0.3916 0.27702 0.0
C1385 C 0.82773 0.39759 0.2641 0.0
C1386 C 0.8375 0.41217 0.24453 0.0
C1387 C 0.84333 0.41223 0.11683 0.0
C1388 C 0.81765 0.40785 0.11697 0.0
C1389 C 0.85946 0.42183 0.13604 0.0
C1390 C 0.85028 0.42736 0.1557 0.0
C1391 C 0.82448 0.42252 0.15603 0.0
C1392 C 0.80834 0.4129 0.13685 0.0
C1393 C 0.86748 0.43845 0.17594 0.0
C1394 C 0.85878 0.42568 0.19658 0.0
C1395 C 0.89199 0.46157 0.17513 0.0
C1396 C 0.90191 0.47644 0.15401 0.0
C1397 C 0.88707 0.48489 0.1423 0.0
C1398 C 0.89649 0.49873 0.12231 0.0
C1399 C 0.92081 0.50443 0.11397 0.0
C1400 C 0.93581 0.49636 0.12565 0.0
C1401 C 0.92647 0.48248 0.14563 0.0
H1402 H 0.92807 0.51515 0.09849 0.0
H1403 H 0.83595 0.38013 0.29207 0.0
loop_
_geom_bond_atom_site_label_1
_geom_bond_atom_site_label_2
_geom_bond_distance
_geom_bond_site_symmetry_2
_ccdc_geom_bond_type
H0 C8 0.930 . S
H1 C11 0.930 . S
H2 C13 0.930 . S
H3 C14 0.970 . S
H4 C14 0.970 . S
H5 C16 0.930 . S
H6 C18 0.930 . S
H7 C20 0.930 . S
C8 H0 0.930 . S
C8 C9 1.382 . S
C8 C10 1.426 . S
C9 C8 1.382 . S
C9 C13 1.389 . S
C10 C8 1.426 . S
C10 C11 1.375 . S
C10 C14 1.532 1_655 S
C11 H1 0.930 . S
C11 C10 1.375 . S
C11 C12 1.416 . S
C12 C11 1.416 . S
C12 C13 1.371 . S
C13 H2 0.930 . S
C13 C9 1.389 . S
C13 C12 1.371 . S
C14 H3 0.970 . S
C14 H4 0.970 . S
C14 C10 1.532 1_455 S
C14 C15 1.499 . S
C15 C14 1.499 . S
C15 C16 1.370 . S
C15 C20 1.415 . S
C16 H5 0.930 . S
C16 C15 1.370 . S
C16 C17 1.407 . S
C17 C16 1.407 . S
C17 C18 1.365 . S
C18 H6 0.930 . S
C18 C17 1.365 . S
C18 C19 1.393 . S
C19 C18 1.393 . S
C19 C20 1.387 . S
C20 H7 0.930 . S
C20 C15 1.415 . S
C20 C19 1.387 . S
H21 C29 0.930 . S
H22 C32 0.930 . S
H23 C34 0.930 . S
H24 C35 0.970 . S
H25 C35 0.970 . S
H26 C37 0.930 . S
H27 C39 0.930 . S
H28 C41 0.930 . S
C29 H21 0.930 . S
C29 C30 1.382 . S
C29 C31 1.426 . S
C30 C29 1.382 . S
C30 C34 1.389 . S
C31 C29 1.426 . S
C31 C32 1.375 . S
C31 C35 1.532 1_565 S
C32 H22 0.930 . S
C32 C31 1.375 . S
C32 C33 1.416 . S
C33 C32 1.416 . S
C33 C34 1.371 . S
C34 H23 0.930 . S
C34 C30 1.389 . S
C34 C33 1.371 . S
C35 H24 0.970 . S
C35 H25 0.970 . S
C35 C31 1.532 1_545 S
C35 C36 1.499 . S
C36 C35 1.499 . S
C36 C37 1.370 . S
C36 C41 1.415 . S
C37 H26 0.930 . S
C37 C36 1.370 . S
C37 C38 1.407 . S
C38 C37 1.407 . S
C38 C39 1.365 . S
C39 H27 0.930 . S
C39 C38 1.365 . S
C39 C40 1.393 . S
C40 C39 1.393 . S
C40 C41 1.387 . S
C41 H28 0.930 . S
C41 C36 1.415 . S
C41 C40 1.387 . S
H42 C50 0.930 . S
H43 C53 0.930 . S
H44 C55 0.930 . S
H45 C56 0.970 . S
H46 C56 0.970 . S
H47 C58 0.930 . S
H48 C60 0.930 . S
H49 C62 0.930 . S
C50 H42 0.930 . S
C50 C51 1.382 . S
C50 C52 1.426 . S
C51 C50 1.382 . S
C51 C55 1.389 . S
C52 C50 1.426 . S
C52 C53 1.375 . S
C52 C56 1.532 . S
C53 H43 0.930 . S
C53 C52 1.375 . S
C53 C54 1.416 . S
C54 C53 1.416 . S
C54 C55 1.371 . S
C55 H44 0.930 . S
C55 C51 1.389 . S
C55 C54 1.371 . S
C56 H45 0.970 . S
C56 H46 0.970 . S
C56 C52 1.532 . S
C56 C57 1.499 . S
C57 C56 1.499 . S
C57 C58 1.370 . S
C57 C62 1.415 . S
C58 H47 0.930 . S
C58 C57 1.370 . S
C58 C59 1.407 . S
C59 C58 1.407 . S
C59 C60 1.365 . S
C60 H48 0.930 . S
C60 C59 1.365 . S
C60 C61 1.393 . S
C61 C60 1.393 . S
C61 C62 1.387 . S
C62 H49 0.930 . S
C62 C57 1.415 . S
C62 C61 1.387 . S
H63 C71 0.930 . S
H64 C74 0.930 . S
H65 C76 0.930 . S
H66 C77 0.967 . S
H67 C77 0.970 . S
H68 C79 0.930 . S
H69 C81 0.930 . S
H70 C83 0.930 . S
C71 H63 0.930 . S
C71 C72 1.382 . S
C71 C73 1.426 . S
C72 C71 1.382 . S
C72 C76 1.389 . S
C73 C71 1.426 . S
C73 C74 1.375 . S
C73 C77 1.532 1_655 S
C74 H64 0.930 . S
C74 C73 1.375 . S
C74 C75 1.416 . S
C75 C74 1.416 . S
C75 C76 1.371 . S
C76 H65 0.930 . S
C76 C72 1.389 . S
C76 C75 1.371 . S
C77 H66 0.967 . S
C77 H67 0.970 . S
C77 C73 1.532 1_455 S
C77 C78 1.499 . S
C78 C77 1.499 . S
C78 C79 1.370 . S
C78 C83 1.415 . S
C79 H68 0.930 . S
C79 C78 1.370 . S
C79 C80 1.407 . S
C80 C79 1.407 . S
C80 C81 1.365 . S
C81 H69 0.930 . S
C81 C80 1.365 . S
C81 C82 1.393 . S
C82 C81 1.393 . S
C82 C83 1.387 . S
C83 H70 0.930 . S
C83 C78 1.415 . S
C83 C82 1.387 . S
H84 C92 0.930 . S
H85 C95 0.930 . S
H86 C97 0.930 . S
H87 C98 0.970 1_554 S
H88 C98 0.970 . S
H89 C100 0.930 . S
H90 C102 0.930 . S
H91 C104 0.930 . S
C92 H84 0.930 . S
C92 C93 1.382 1_554 S
C92 C94 1.426 1_554 S
C93 C92 1.382 1_556 S
C93 C97 1.389 . S
C94 C92 1.426 1_556 S
C94 C95 1.375 . S
C94 C98 1.532 . S
C95 H85 0.930 . S
C95 C94 1.375 . S
C95 C96 1.416 . S
C96 C95 1.416 . S
C96 C97 1.371 . S
C97 H86 0.930 . S
C97 C93 1.389 . S
C97 C96 1.371 . S
C98 H87 0.970 1_556 S
C98 H88 0.970 . S
C98 C94 1.532 . S
C98 C99 1.499 1_545 S
C99 C98 1.499 1_565 S
C99 C100 1.370 1_556 S
C99 C104 1.415 . S
C100 H89 0.930 . S
C100 C99 1.370 1_554 S
C100 C101 1.407 . S
C101 C100 1.407 . S
C101 C102 1.365 . S
C102 H90 0.930 . S
C102 C101 1.365 . S
C102 C103 1.393 1_554 S
C103 C102 1.393 1_556 S
C103 C104 1.387 . S
C104 H91 0.930 . S
C104 C99 1.415 . S
C104 C103 1.387 . S
H105 C113 0.930 . S
H106 C116 0.930 . S
H107 C118 0.930 . S
H108 C119 0.970 . S
H109 C119 0.970 . S
H110 C121 0.930 . S
H111 C123 0.930 . S
H112 C125 0.930 . S
C113 H105 0.930 . S
C113 C114 1.382 . S
C113 C115 1.426 . S
C114 C113 1.382 . S
C114 C118 1.389 . S
C115 C113 1.426 . S
C115 C116 1.375 . S
C115 C119 1.532 . S
C116 H106 0.930 . S
C116 C115 1.375 . S
C116 C117 1.416 . S
C117 C116 1.416 . S
C117 C118 1.371 . S
C118 H107 0.930 . S
C118 C114 1.389 . S
C118 C117 1.371 . S
C119 H108 0.970 . S
C119 H109 0.970 . S
C119 C115 1.532 . S
C119 C120 1.499 . S
C120 C119 1.499 . S
C120 C121 1.370 . S
C120 C125 1.415 . S
C121 H110 0.930 . S
C121 C120 1.370 . S
C121 C122 1.407 . S
C122 C121 1.407 . S
C122 C123 1.365 . S
C123 H111 0.930 . S
C123 C122 1.365 . S
C123 C124 1.393 . S
C124 C123 1.393 . S
C124 C125 1.387 . S
C125 H112 0.930 . S
C125 C120 1.415 . S
C125 C124 1.387 . S
C126 O127 1.160 . S
C126 O133 1.185 . S
O127 C126 1.160 . S
O128 Zn129 1.899 . S
O128 C136 1.284 . S
Zn129 O128 1.899 . S
Zn129 O130 2.032 . S
Zn129 O133 2.086 . S
Zn129 O138 1.977 . S
O130 Zn129 2.032 . S
O130 C134 1.278 . S
C131 O132 1.203 . S
C131 O138 1.267 . S
O132 C131 1.203 . S
O133 C126 1.185 . S
O133 Zn129 2.086 . S
C134 O130 1.278 . S
C134 O135 1.211 . S
O135 C134 1.211 . S
C136 O128 1.284 . S
C136 O137 1.273 . S
O137 C136 1.273 . S
O138 Zn129 1.977 . S
O138 C131 1.267 . S
C139 O140 1.160 . S
C139 O146 1.185 . S
O140 C139 1.160 . S
O141 Zn142 1.899 . S
O141 C149 1.284 . S
Zn142 O141 1.899 . S
Zn142 O143 2.032 . S
Zn142 O146 2.086 . S
Zn142 O151 1.977 . S
O143 Zn142 2.032 . S
O143 C147 1.278 . S
C144 O145 1.203 . S
C144 O151 1.267 . S
O145 C144 1.203 . S
O146 C139 1.185 . S
O146 Zn142 2.086 . S
C147 O143 1.278 . S
C147 O148 1.211 . S
O148 C147 1.211 . S
C149 O141 1.284 . S
C149 O150 1.273 . S
O150 C149 1.273 . S
O151 Zn142 1.977 . S
O151 C144 1.267 . S
C152 O153 1.160 . S
C152 O159 1.185 . S
O153 C152 1.160 . S
O154 Zn155 1.899 . S
O154 C162 1.284 . S
Zn155 O154 1.899 . S
Zn155 O156 2.032 . S
Zn155 O159 2.086 . S
Zn155 O164 1.977 . S
O156 Zn155 2.032 . S
O156 C160 1.278 . S
C157 O158 1.203 . S
C157 O164 1.267 . S
O158 C157 1.203 . S
O159 C152 1.185 . S
O159 Zn155 2.086 . S
C160 O156 1.278 . S
C160 O161 1.211 . S
O161 C160 1.211 . S
C162 O154 1.284 . S
C162 O163 1.273 . S
O163 C162 1.273 . S
O164 Zn155 1.977 . S
O164 C157 1.267 . S
C165 O166 1.160 . S
C165 O172 1.185 . S
O166 C165 1.160 . S
O167 Zn168 1.899 . S
O167 C175 1.284 . S
Zn168 O167 1.899 . S
Zn168 O169 2.032 . S
Zn168 O172 2.086 . S
Zn168 O177 1.977 . S
O169 Zn168 2.032 . S
O169 C173 1.278 . S
C170 O171 1.203 . S
C170 O177 1.267 . S
O171 C170 1.203 . S
O172 C165 1.185 . S
O172 Zn168 2.086 . S
C173 O169 1.278 . S
C173 O174 1.211 . S
O174 C173 1.211 . S
C175 O167 1.284 . S
C175 O176 1.273 . S
O176 C175 1.273 . S
O177 Zn168 1.977 . S
O177 C170 1.267 . S
C178 O179 1.160 . S
C178 O185 1.185 . S
O179 C178 1.160 . S
O180 Zn181 1.899 . S
O180 C188 1.284 . S
Zn181 O180 1.899 . S
Zn181 O182 2.032 . S
Zn181 O185 2.086 . S
Zn181 O190 1.977 . S
O182 Zn181 2.032 . S
O182 C186 1.278 . S
C183 O184 1.203 . S
C183 O190 1.267 . S
O184 C183 1.203 . S
O185 C178 1.185 . S
O185 Zn181 2.086 . S
C186 O182 1.278 . S
C186 O187 1.211 . S
O187 C186 1.211 . S
C188 O180 1.284 . S
C188 O189 1.273 . S
O189 C188 1.273 . S
O190 Zn181 1.977 . S
O190 C183 1.267 . S
C191 O192 1.160 . S
C191 O198 1.185 . S
O192 C191 1.160 . S
O193 Zn194 1.899 . S
O193 C201 1.284 . S
Zn194 O193 1.899 . S
Zn194 O195 2.032 . S
Zn194 O198 2.086 . S
Zn194 O203 1.977 . S
O195 Zn194 2.032 . S
O195 C199 1.278 . S
C196 O197 1.203 . S
C196 O203 1.267 . S
O197 C196 1.203 . S
O198 C191 1.185 . S
O198 Zn194 2.086 . S
C199 O195 1.278 . S
C199 O200 1.211 . S
O200 C199 1.211 . S
C201 O193 1.284 . S
C201 O202 1.273 . S
O202 C201 1.273 . S
O203 Zn194 1.977 . S
O203 C196 1.267 . S
H204 C222 0.951 . S
H205 C224 0.951 . S
H206 C226 0.950 . S
H207 C227 0.950 . S
H208 C229 0.950 . S
H209 C232 0.950 . S
H210 C233 0.950 . S
H211 C235 0.950 . S
H212 C236 0.950 . S
H213 C237 0.951 . S
H214 C239 0.951 . S
H215 C241 0.950 . S
H216 C242 0.950 . S
H217 C244 0.950 . S
H218 C247 0.950 . S
H219 C248 0.950 . S
H220 C250 0.950 . S
H221 C251 0.950 . S
C222 H204 0.951 . S
C222 C223 1.366 . S
C222 C224 1.388 . S
C223 C222 1.366 . S
C223 C227 1.385 . S
C224 H205 0.951 . S
C224 C222 1.388 . S
C224 C225 1.366 . S
C225 C224 1.366 . S
C225 C226 1.414 . S
C225 C228 1.499 . S
C226 H206 0.950 . S
C226 C225 1.414 . S
C226 C227 1.374 . S
C227 H207 0.950 . S
C227 C223 1.385 . S
C227 C226 1.374 . S
C228 C225 1.499 . S
C228 C229 1.373 . S
C228 C230 1.389 . S
C229 H208 0.950 . S
C229 C228 1.373 . S
C229 C245 1.377 . S
C230 C228 1.389 . S
C230 C231 1.524 . S
C230 C244 1.377 . S
C231 C230 1.524 . S
C231 C232 1.397 . S
C231 C236 1.363 . S
C232 H209 0.950 . S
C232 C231 1.397 . S
C232 C233 1.334 . S
C233 H210 0.950 . S
C233 C232 1.334 . S
C233 C234 1.287 . S
C234 C233 1.287 . S
C234 C235 1.524 . S
C234 H253 0.913 . S
C235 H211 0.950 . S
C235 C234 1.524 . S
C235 C236 1.415 . S
C236 H212 0.950 . S
C236 C231 1.363 . S
C236 C235 1.415 . S
C237 H213 0.951 . S
C237 C238 1.366 . S
C237 C239 1.388 . S
C238 C237 1.366 . S
C238 C242 1.385 . S
C239 H214 0.951 . S
C239 C237 1.388 . S
C239 C240 1.366 . S
C240 C239 1.366 . S
C240 C241 1.414 . S
C240 C243 1.499 . S
C241 H215 0.950 . S
C241 C240 1.414 . S
C241 C242 1.374 . S
C242 H216 0.950 . S
C242 C238 1.385 . S
C242 C241 1.374 . S
C243 C240 1.499 . S
C243 C244 1.373 . S
C243 C245 1.389 . S
C244 H217 0.950 . S
C244 C230 1.377 . S
C244 C243 1.373 . S
C245 C229 1.377 . S
C245 C243 1.389 . S
C245 C246 1.524 . S
C246 C245 1.524 . S
C246 C247 1.397 . S
C246 C251 1.363 . S
C247 H218 0.950 . S
C247 C246 1.397 . S
C247 C248 1.334 . S
C248 H219 0.950 . S
C248 C247 1.334 . S
C248 C249 1.287 . S
C249 C248 1.287 . S
C249 C250 1.524 . S
C249 H252 0.999 . S
C250 H220 0.950 . S
C250 C249 1.524 . S
C250 C251 1.415 . S
C251 H221 0.950 . S
C251 C246 1.363 . S
C251 C250 1.415 . S
H252 C249 0.999 . S
H253 C234 0.913 . S
H254 C272 0.951 . S
H255 C274 0.951 . S
H256 C276 0.950 . S
H257 C277 0.950 . S
H258 C279 0.950 . S
H259 C282 0.950 . S
H260 C283 0.950 . S
H261 C285 0.950 . S
H262 C286 0.950 . S
H263 C287 0.951 . S
H264 C289 0.951 . S
H265 C291 0.950 . S
H266 C292 0.950 . S
H267 C294 0.950 . S
H268 C297 0.950 . S
H269 C298 0.950 . S
H270 C300 0.950 . S
H271 C301 0.950 . S
C272 H254 0.951 . S
C272 C273 1.366 . S
C272 C274 1.388 . S
C273 C272 1.366 . S
C273 C277 1.385 . S
C274 H255 0.951 . S
C274 C272 1.388 . S
C274 C275 1.366 . S
C275 C274 1.366 . S
C275 C276 1.414 . S
C275 C278 1.499 . S
C276 H256 0.950 . S
C276 C275 1.414 . S
C276 C277 1.374 . S
C277 H257 0.950 . S
C277 C273 1.385 . S
C277 C276 1.374 . S
C278 C275 1.499 . S
C278 C279 1.373 . S
C278 C280 1.389 . S
C279 H258 0.950 . S
C279 C278 1.373 . S
C279 C295 1.377 . S
C280 C278 1.389 . S
C280 C281 1.524 . S
C280 C294 1.377 . S
C281 C280 1.524 . S
C281 C282 1.397 . S
C281 C286 1.363 . S
C282 H259 0.950 . S
C282 C281 1.397 . S
C282 C283 1.334 . S
C283 H260 0.950 . S
C283 C282 1.334 . S
C283 C284 1.287 . S
C284 C283 1.287 . S
C284 C285 1.524 . S
C284 H303 0.913 . S
C285 H261 0.950 . S
C285 C284 1.524 . S
C285 C286 1.415 . S
C286 H262 0.950 . S
C286 C281 1.363 . S
C286 C285 1.415 . S
C287 H263 0.951 . S
C287 C288 1.366 . S
C287 C289 1.388 . S
C288 C287 1.366 . S
C288 C292 1.385 . S
C289 H264 0.951 . S
C289 C287 1.388 . S
C289 C290 1.366 . S
C290 C289 1.366 . S
C290 C291 1.414 . S
C290 C293 1.499 . S
C291 H265 0.950 . S
C291 C290 1.414 . S
C291 C292 1.374 . S
C292 H266 0.950 . S
C292 C288 1.385 . S
C292 C291 1.374 . S
C293 C290 1.499 . S
C293 C294 1.373 . S
C293 C295 1.389 . S
C294 H267 0.950 . S
C294 C280 1.377 . S
C294 C293 1.373 . S
C295 C279 1.377 . S
C295 C293 1.389 . S
C295 C296 1.524 . S
C296 C295 1.524 . S
C296 C297 1.397 . S
C296 C301 1.363 . S
C297 H268 0.950 . S
C297 C296 1.397 . S
C297 C298 1.334 . S
C298 H269 0.950 . S
C298 C297 1.334 . S
C298 C299 1.287 . S
C299 C298 1.287 . S
C299 C300 1.524 . S
C299 H302 0.999 . S
C300 H270 0.950 . S
C300 C299 1.524 . S
C300 C301 1.415 . S
C301 H271 0.950 . S
C301 C296 1.363 . S
C301 C300 1.415 . S
H302 C299 0.999 . S
H303 C284 0.913 . S
H304 C322 0.951 . S
H305 C324 0.951 . S
H306 C326 0.950 . S
H307 C327 0.950 . S
H308 C329 0.950 . S
H309 C332 0.950 . S
H310 C333 0.950 . S
H311 C335 0.950 . S
H312 C336 0.950 . S
H313 C337 0.951 . S
H314 C339 0.951 . S
H315 C341 0.950 . S
H316 C342 0.950 . S
H317 C344 0.950 . S
H318 C347 0.950 . S
H319 C348 0.950 . S
H320 C350 0.950 . S
H321 C351 0.950 . S
C322 H304 0.951 . S
C322 C323 1.366 . S
C322 C324 1.388 . S
C323 C322 1.366 . S
C323 C327 1.385 . S
C324 H305 0.951 . S
C324 C322 1.388 . S
C324 C325 1.366 . S
C325 C324 1.366 . S
C325 C326 1.414 . S
C325 C328 1.499 . S
C326 H306 0.950 . S
C326 C325 1.414 . S
C326 C327 1.374 . S
C327 H307 0.950 . S
C327 C323 1.385 . S
C327 C326 1.374 . S
C328 C325 1.499 . S
C328 C329 1.373 . S
C328 C330 1.389 . S
C329 H308 0.950 . S
C329 C328 1.373 . S
C329 C345 1.377 . S
C330 C328 1.389 . S
C330 C331 1.524 . S
C330 C344 1.377 . S
C331 C330 1.524 . S
C331 C332 1.397 . S
C331 C336 1.363 . S
C332 H309 0.950 . S
C332 C331 1.397 . S
C332 C333 1.334 . S
C333 H310 0.950 . S
C333 C332 1.334 . S
C333 C334 1.287 . S
C334 C333 1.287 . S
C334 C335 1.524 . S
C334 H353 0.913 . S
C335 H311 0.950 . S
C335 C334 1.524 . S
C335 C336 1.415 . S
C336 H312 0.950 . S
C336 C331 1.363 . S
C336 C335 1.415 . S
C337 H313 0.951 . S
C337 C338 1.366 . S
C337 C339 1.388 . S
C338 C337 1.366 . S
C338 C342 1.385 . S
C339 H314 0.951 . S
C339 C337 1.388 . S
C339 C340 1.366 . S
C340 C339 1.366 . S
C340 C341 1.414 . S
C340 C343 1.499 . S
C341 H315 0.950 . S
C341 C340 1.414 . S
C341 C342 1.374 . S
C342 H316 0.950 . S
C342 C338 1.385 . S
C342 C341 1.374 . S
C343 C340 1.499 . S
C343 C344 1.373 . S
C343 C345 1.389 . S
C344 H317 0.950 . S
C344 C330 1.377 . S
C344 C343 1.373 . S
C345 C329 1.377 . S
C345 C343 1.389 . S
C345 C346 1.524 . S
C346 C345 1.524 . S
C346 C347 1.397 . S
C346 C351 1.363 . S
C347 H318 0.950 . S
C347 C346 1.397 . S
C347 C348 1.334 . S
C348 H319 0.950 . S
C348 C347 1.334 . S
C348 C349 1.287 . S
C349 C348 1.287 . S
C349 C350 1.524 . S
C349 H352 0.999 . S
C350 H320 0.950 . S
C350 C349 1.524 . S
C350 C351 1.415 . S
C351 H321 0.950 . S
C351 C346 1.363 . S
C351 C350 1.415 . S
H352 C349 0.999 . S
H353 C334 0.913 . S
H354 C372 0.951 . S
H355 C374 0.951 . S
H356 C376 0.950 . S
H357 C377 0.950 . S
H358 C379 0.950 . S
H359 C382 0.950 . S
H360 C383 0.950 . S
H361 C385 0.950 . S
H362 C386 0.950 . S
H363 C387 0.951 . S
H364 C389 0.951 . S
H365 C391 0.950 . S
H366 C392 0.950 . S
H367 C394 0.950 . S
H368 C397 0.950 . S
H369 C398 0.950 . S
H370 C400 0.950 . S
H371 C401 0.950 . S
C372 H354 0.951 . S
C372 C373 1.366 . S
C372 C374 1.388 . S
C373 C372 1.366 . S
C373 C377 1.385 . S
C374 H355 0.951 . S
C374 C372 1.388 . S
C374 C375 1.366 . S
C375 C374 1.366 . S
C375 C376 1.414 . S
C375 C378 1.499 . S
C376 H356 0.950 . S
C376 C375 1.414 . S
C376 C377 1.374 . S
C377 H357 0.950 . S
C377 C373 1.385 . S
C377 C376 1.374 . S
C378 C375 1.499 . S
C378 C379 1.373 . S
C378 C380 1.389 . S
C379 H358 0.950 . S
C379 C378 1.373 . S
C379 C395 1.377 . S
C380 C378 1.389 . S
C380 C381 1.524 . S
C380 C394 1.377 . S
C381 C380 1.524 . S
C381 C382 1.397 . S
C381 C386 1.363 . S
C382 H359 0.950 . S
C382 C381 1.397 . S
C382 C383 1.334 . S
C383 H360 0.950 . S
C383 C382 1.334 . S
C383 C384 1.287 . S
C384 C383 1.287 . S
C384 C385 1.524 . S
C384 H403 0.913 . S
C385 H361 0.950 . S
C385 C384 1.524 . S
C385 C386 1.415 . S
C386 H362 0.950 . S
C386 C381 1.363 . S
C386 C385 1.415 . S
C387 H363 0.951 . S
C387 C388 1.366 . S
C387 C389 1.388 . S
C388 C387 1.366 . S
C388 C392 1.385 . S
C389 H364 0.951 . S
C389 C387 1.388 . S
C389 C390 1.366 . S
C390 C389 1.366 . S
C390 C391 1.414 . S
C390 C393 1.499 . S
C391 H365 0.950 . S
C391 C390 1.414 . S
C391 C392 1.374 . S
C392 H366 0.950 . S
C392 C388 1.385 . S
C392 C391 1.374 . S
C393 C390 1.499 . S
C393 C394 1.373 . S
C393 C395 1.389 . S
C394 H367 0.950 . S
C394 C380 1.377 . S
C394 C393 1.373 . S
C395 C379 1.377 . S
C395 C393 1.389 . S
C395 C396 1.524 . S
C396 C395 1.524 . S
C396 C397 1.397 . S
C396 C401 1.363 . S
C397 H368 0.950 . S
C397 C396 1.397 . S
C397 C398 1.334 . S
C398 H369 0.950 . S
C398 C397 1.334 . S
C398 C399 1.287 . S
C399 C398 1.287 . S
C399 C400 1.524 . S
C399 H402 0.999 . S
C400 H370 0.950 . S
C400 C399 1.524 . S
C400 C401 1.415 . S
C401 H371 0.950 . S
C401 C396 1.363 . S
C401 C400 1.415 . S
H402 C399 0.999 . S
H403 C384 0.913 . S
H404 C422 0.951 1_554 S
H405 C424 0.951 . S
H406 C426 0.950 . S
H407 C427 0.950 . S
H408 C429 0.950 . S
H409 C432 0.950 . S
H410 C433 0.950 . S
H411 C435 0.950 . S
H412 C436 0.944 1_554 S
H413 C437 0.951 . S
H414 C439 0.951 . S
H415 C441 0.950 . S
H416 C442 0.950 . S
H417 C444 0.950 . S
H418 C447 0.950 . S
H419 C448 0.950 . S
H420 C450 0.950 . S
H421 C451 0.950 . S
C422 H404 0.951 1_556 S
C422 C423 1.366 . S
C422 C424 1.388 . S
C423 C422 1.366 . S
C423 C427 1.385 . S
C424 H405 0.951 . S
C424 C422 1.388 . S
C424 C425 1.366 . S
C425 C424 1.366 . S
C425 C426 1.414 . S
C425 C428 1.499 . S
C426 H406 0.950 . S
C426 C425 1.414 . S
C426 C427 1.374 . S
C427 H407 0.950 . S
C427 C423 1.385 . S
C427 C426 1.374 . S
C428 C425 1.499 . S
C428 C429 1.373 . S
C428 C430 1.389 . S
C429 H408 0.950 . S
C429 C428 1.373 . S
C429 C445 1.377 . S
C430 C428 1.389 . S
C430 C431 1.524 . S
C430 C444 1.377 . S
C431 C430 1.524 . S
C431 C432 1.397 . S
C431 C436 1.363 . S
C432 H409 0.950 . S
C432 C431 1.397 . S
C432 C433 1.334 . S
C433 H410 0.950 . S
C433 C432 1.334 . S
C433 C434 1.287 1_556 S
C434 C433 1.287 1_554 S
C434 C435 1.524 . S
C434 H453 0.913 . S
C435 H411 0.950 . S
C435 C434 1.524 . S
C435 C436 1.415 1_554 S
C436 H412 0.944 1_556 S
C436 C431 1.363 . S
C436 C435 1.415 1_556 S
C437 H413 0.951 . S
C437 C438 1.366 . S
C437 C439 1.388 . S
C438 C437 1.366 . S
C438 C442 1.385 . S
C439 H414 0.951 . S
C439 C437 1.388 . S
C439 C440 1.366 . S
C440 C439 1.366 . S
C440 C441 1.414 . S
C440 C443 1.499 . S
C441 H415 0.950 . S
C441 C440 1.414 . S
C441 C442 1.374 . S
C442 H416 0.950 . S
C442 C438 1.385 . S
C442 C441 1.374 . S
C443 C440 1.499 . S
C443 C444 1.373 . S
C443 C445 1.389 . S
C444 H417 0.950 . S
C444 C430 1.377 . S
C444 C443 1.373 . S
C445 C429 1.377 . S
C445 C443 1.389 . S
C445 C446 1.524 . S
C446 C445 1.524 . S
C446 C447 1.397 . S
C446 C451 1.363 . S
C447 H418 0.950 . S
C447 C446 1.397 . S
C447 C448 1.334 . S
C448 H419 0.950 . S
C448 C447 1.334 . S
C448 C449 1.287 . S
C449 C448 1.287 . S
C449 C450 1.524 . S
C449 H452 0.999 . S
C450 H420 0.950 . S
C450 C449 1.524 . S
C450 C451 1.415 . S
C451 H421 0.950 . S
C451 C446 1.363 . S
C451 C450 1.415 . S
H452 C449 0.999 . S
H453 C434 0.913 . S
H454 C472 0.951 . S
H455 C474 0.951 . S
H456 C476 0.950 . S
H457 C477 0.950 . S
H458 C479 0.950 . S
H459 C482 0.950 . S
H460 C483 0.950 . S
H461 C485 0.950 . S
H462 C486 0.950 . S
H463 C487 0.951 . S
H464 C489 0.951 . S
H465 C491 0.950 . S
H466 C492 0.950 . S
H467 C494 0.950 . S
H468 C497 0.950 . S
H469 C498 0.950 . S
H470 C500 0.950 . S
H471 C501 0.950 . S
C472 H454 0.951 . S
C472 C473 1.366 . S
C472 C474 1.388 . S
C473 C472 1.366 . S
C473 C477 1.385 . S
C474 H455 0.951 . S
C474 C472 1.388 . S
C474 C475 1.366 . S
C475 C474 1.366 . S
C475 C476 1.414 . S
C475 C478 1.499 . S
C476 H456 0.950 . S
C476 C475 1.414 . S
C476 C477 1.374 . S
C477 H457 0.950 . S
C477 C473 1.385 . S
C477 C476 1.374 . S
C478 C475 1.499 . S
C478 C479 1.373 . S
C478 C480 1.389 . S
C479 H458 0.950 . S
C479 C478 1.373 . S
C479 C495 1.377 . S
C480 C478 1.389 . S
C480 C481 1.524 . S
C480 C494 1.377 . S
C481 C480 1.524 . S
C481 C482 1.397 . S
C481 C486 1.363 . S
C482 H459 0.950 . S
C482 C481 1.397 . S
C482 C483 1.334 . S
C483 H460 0.950 . S
C483 C482 1.334 . S
C483 C484 1.287 . S
C484 C483 1.287 . S
C484 C485 1.524 . S
C484 H503 0.913 . S
C485 H461 0.950 . S
C485 C484 1.524 . S
C485 C486 1.415 . S
C486 H462 0.950 . S
C486 C481 1.363 . S
C486 C485 1.415 . S
C487 H463 0.951 . S
C487 C488 1.366 . S
C487 C489 1.388 . S
C488 C487 1.366 . S
C488 C492 1.385 . S
C489 H464 0.951 . S
C489 C487 1.388 . S
C489 C490 1.366 . S
C490 C489 1.366 . S
C490 C491 1.414 . S
C490 C493 1.499 . S
C491 H465 0.950 . S
C491 C490 1.414 . S
C491 C492 1.374 . S
C492 H466 0.950 . S
C492 C488 1.385 . S
C492 C491 1.374 . S
C493 C490 1.499 . S
C493 C494 1.373 . S
C493 C495 1.389 . S
C494 H467 0.950 . S
C494 C480 1.377 . S
C494 C493 1.373 . S
C495 C479 1.377 . S
C495 C493 1.389 . S
C495 C496 1.524 . S
C496 C495 1.524 . S
C496 C497 1.397 . S
C496 C501 1.363 . S
C497 H468 0.950 . S
C497 C496 1.397 . S
C497 C498 1.334 . S
C498 H469 0.950 . S
C498 C497 1.334 . S
C498 C499 1.287 . S
C499 C498 1.287 . S
C499 C500 1.524 . S
C499 H502 0.999 . S
C500 H470 0.950 . S
C500 C499 1.524 . S
C500 C501 1.415 . S
C501 H471 0.950 . S
C501 C496 1.363 . S
C501 C500 1.415 . S
H502 C499 0.999 . S
H503 C484 0.913 . S
H504 C522 0.951 . S
H505 C524 0.951 . S
H506 C526 0.950 . S
H507 C527 0.950 . S
H508 C529 0.950 . S
H509 C532 0.950 . S
H510 C533 0.950 . S
H511 C535 0.950 . S
H512 C536 0.950 . S
H513 C537 0.951 . S
H514 C539 0.951 . S
H515 C541 0.950 . S
H516 C542 0.950 . S
H517 C544 0.950 . S
H518 C547 0.950 . S
H519 C548 0.950 . S
H520 C550 0.950 . S
H521 C551 0.950 . S
C522 H504 0.951 . S
C522 C523 1.366 . S
C522 C524 1.388 . S
C523 C522 1.366 . S
C523 C527 1.385 . S
C524 H505 0.951 . S
C524 C522 1.388 . S
C524 C525 1.366 . S
C525 C524 1.366 . S
C525 C526 1.414 . S
C525 C528 1.499 . S
C526 H506 0.950 . S
C526 C525 1.414 . S
C526 C527 1.374 . S
C527 H507 0.950 . S
C527 C523 1.385 . S
C527 C526 1.374 . S
C528 C525 1.499 . S
C528 C529 1.373 . S
C528 C530 1.389 . S
C529 H508 0.950 . S
C529 C528 1.373 . S
C529 C545 1.377 . S
C530 C528 1.389 . S
C530 C531 1.524 . S
C530 C544 1.377 . S
C531 C530 1.524 . S
C531 C532 1.397 . S
C531 C536 1.363 . S
C532 H509 0.950 . S
C532 C531 1.397 . S
C532 C533 1.334 . S
C533 H510 0.950 . S
C533 C532 1.334 . S
C533 C534 1.287 . S
C534 C533 1.287 . S
C534 C535 1.524 . S
C534 H553 0.913 . S
C535 H511 0.950 . S
C535 C534 1.524 . S
C535 C536 1.415 . S
C536 H512 0.950 . S
C536 C531 1.363 . S
C536 C535 1.415 . S
C537 H513 0.951 . S
C537 C538 1.366 . S
C537 C539 1.388 . S
C538 C537 1.366 . S
C538 C542 1.385 . S
C539 H514 0.951 . S
C539 C537 1.388 . S
C539 C540 1.366 . S
C540 C539 1.366 . S
C540 C541 1.414 . S
C540 C543 1.499 . S
C541 H515 0.950 . S
C541 C540 1.414 . S
C541 C542 1.374 . S
C542 H516 0.950 . S
C542 C538 1.385 . S
C542 C541 1.374 . S
C543 C540 1.499 . S
C543 C544 1.373 . S
C543 C545 1.389 . S
C544 H517 0.950 . S
C544 C530 1.377 . S
C544 C543 1.373 . S
C545 C529 1.377 . S
C545 C543 1.389 . S
C545 C546 1.524 . S
C546 C545 1.524 . S
C546 C547 1.397 . S
C546 C551 1.363 . S
C547 H518 0.950 . S
C547 C546 1.397 . S
C547 C548 1.334 . S
C548 H519 0.950 . S
C548 C547 1.334 . S
C548 C549 1.287 . S
C549 C548 1.287 . S
C549 C550 1.524 . S
C549 H552 0.999 . S
C550 H520 0.950 . S
C550 C549 1.524 . S
C550 C551 1.415 . S
C551 H521 0.950 . S
C551 C546 1.363 . S
C551 C550 1.415 . S
H552 C549 0.999 . S
H553 C534 0.913 . S
H554 C572 0.951 . S
H555 C574 0.951 . S
H556 C576 0.950 . S
H557 C577 0.950 . S
H558 C579 0.950 . S
H559 C582 0.950 . S
H560 C583 0.950 . S
H561 C585 0.950 . S
H562 C586 0.950 . S
H563 C587 0.951 . S
H564 C589 0.951 . S
H565 C591 0.950 . S
H566 C592 0.950 . S
H567 C594 0.950 . S
H568 C597 0.950 . S
H569 C598 0.950 . S
H570 C600 0.950 . S
H571 C601 0.950 . S
C572 H554 0.951 . S
C572 C573 1.366 . S
C572 C574 1.388 . S
C573 C572 1.366 . S
C573 C577 1.385 . S
C574 H555 0.951 . S
C574 C572 1.388 . S
C574 C575 1.366 . S
C575 C574 1.366 . S
C575 C576 1.414 . S
C575 C578 1.499 . S
C576 H556 0.950 . S
C576 C575 1.414 . S
C576 C577 1.374 . S
C577 H557 0.950 . S
C577 C573 1.385 . S
C577 C576 1.374 . S
C578 C575 1.499 . S
C578 C579 1.373 . S
C578 C580 1.389 . S
C579 H558 0.950 . S
C579 C578 1.373 . S
C579 C595 1.377 . S
C580 C578 1.389 . S
C580 C581 1.524 . S
C580 C594 1.377 . S
C581 C580 1.524 . S
C581 C582 1.397 . S
C581 C586 1.363 . S
C582 H559 0.950 . S
C582 C581 1.397 . S
C582 C583 1.334 . S
C583 H560 0.950 . S
C583 C582 1.334 . S
C583 C584 1.287 . S
C584 C583 1.287 . S
C584 C585 1.524 . S
C584 H603 0.913 . S
C585 H561 0.950 . S
C585 C584 1.524 . S
C585 C586 1.415 . S
C586 H562 0.950 . S
C586 C581 1.363 . S
C586 C585 1.415 . S
C587 H563 0.951 . S
C587 C588 1.366 . S
C587 C589 1.388 . S
C588 C587 1.366 . S
C588 C592 1.385 . S
C589 H564 0.951 . S
C589 C587 1.388 . S
C589 C590 1.366 . S
C590 C589 1.366 . S
C590 C591 1.414 . S
C590 C593 1.499 . S
C591 H565 0.950 . S
C591 C590 1.414 . S
C591 C592 1.374 . S
C592 H566 0.950 . S
C592 C588 1.385 . S
C592 C591 1.374 . S
C593 C590 1.499 . S
C593 C594 1.373 . S
C593 C595 1.389 . S
C594 H567 0.950 . S
C594 C580 1.377 . S
C594 C593 1.373 . S
C595 C579 1.377 . S
C595 C593 1.389 . S
C595 C596 1.524 . S
C596 C595 1.524 . S
C596 C597 1.397 . S
C596 C601 1.363 . S
C597 H568 0.950 . S
C597 C596 1.397 . S
C597 C598 1.334 . S
C598 H569 0.950 . S
C598 C597 1.334 . S
C598 C599 1.287 . S
C599 C598 1.287 . S
C599 C600 1.524 . S
C599 H602 0.999 . S
C600 H570 0.950 . S
C600 C599 1.524 . S
C600 C601 1.415 . S
C601 H571 0.950 . S
C601 C596 1.363 . S
C601 C600 1.415 . S
H602 C599 0.999 . S
H603 C584 0.913 . S
H604 C622 0.951 . S
H605 C624 0.951 . S
H606 C626 0.950 . S
H607 C627 0.950 . S
H608 C629 0.950 . S
H609 C632 0.950 . S
H610 C633 0.950 . S
H611 C635 0.950 . S
H612 C636 0.950 . S
H613 C637 0.951 . S
H614 C639 0.951 . S
H615 C641 0.950 . S
H616 C642 0.950 . S
H617 C644 0.950 . S
H618 C647 0.950 . S
H619 C648 0.950 . S
H620 C650 0.950 . S
H621 C651 0.950 . S
C622 H604 0.951 . S
C622 C623 1.366 . S
C622 C624 1.388 . S
C623 C622 1.366 . S
C623 C627 1.385 . S
C624 H605 0.951 . S
C624 C622 1.388 . S
C624 C625 1.366 . S
C625 C624 1.366 . S
C625 C626 1.414 . S
C625 C628 1.499 . S
C626 H606 0.950 . S
C626 C625 1.414 . S
C626 C627 1.374 . S
C627 H607 0.950 . S
C627 C623 1.385 . S
C627 C626 1.374 . S
C628 C625 1.499 . S
C628 C629 1.373 . S
C628 C630 1.389 . S
C629 H608 0.950 . S
C629 C628 1.373 . S
C629 C645 1.377 . S
C630 C628 1.389 . S
C630 C631 1.524 . S
C630 C644 1.377 . S
C631 C630 1.524 . S
C631 C632 1.397 . S
C631 C636 1.363 . S
C632 H609 0.950 . S
C632 C631 1.397 . S
C632 C633 1.334 . S
C633 H610 0.950 . S
C633 C632 1.334 . S
C633 C634 1.287 . S
C634 C633 1.287 . S
C634 C635 1.524 . S
C634 H653 0.913 . S
C635 H611 0.950 . S
C635 C634 1.524 . S
C635 C636 1.415 . S
C636 H612 0.950 . S
C636 C631 1.363 . S
C636 C635 1.415 . S
C637 H613 0.951 . S
C637 C638 1.366 . S
C637 C639 1.388 . S
C638 C637 1.366 . S
C638 C642 1.385 . S
C639 H614 0.951 . S
C639 C637 1.388 . S
C639 C640 1.366 . S
C640 C639 1.366 . S
C640 C641 1.414 . S
C640 C643 1.499 . S
C641 H615 0.950 . S
C641 C640 1.414 . S
C641 C642 1.374 . S
C642 H616 0.950 . S
C642 C638 1.385 . S
C642 C641 1.374 . S
C643 C640 1.499 . S
C643 C644 1.373 . S
C643 C645 1.389 . S
C644 H617 0.950 . S
C644 C630 1.377 . S
C644 C643 1.373 . S
C645 C629 1.377 . S
C645 C643 1.389 . S
C645 C646 1.524 . S
C646 C645 1.524 . S
C646 C647 1.397 . S
C646 C651 1.363 . S
C647 H618 0.950 . S
C647 C646 1.397 . S
C647 C648 1.334 . S
C648 H619 0.950 . S
C648 C647 1.334 . S
C648 C649 1.287 . S
C649 C648 1.287 . S
C649 C650 1.524 . S
C649 H652 0.999 . S
C650 H620 0.950 . S
C650 C649 1.524 . S
C650 C651 1.415 . S
C651 H621 0.950 . S
C651 C646 1.363 . S
C651 C650 1.415 . S
H652 C649 0.999 . S
H653 C634 0.913 . S
H654 C672 0.951 . S
H655 C674 0.951 . S
H656 C676 0.950 . S
H657 C677 0.950 1_556 S
H658 C679 0.950 . S
H659 C682 0.950 . S
H660 C683 0.950 . S
H661 C685 0.950 . S
H662 C686 0.950 . S
H663 C687 0.951 . S
H664 C689 0.951 . S
H665 C691 0.950 . S
H666 C692 0.950 . S
H667 C694 0.950 . S
H668 C697 0.950 . S
H669 C698 0.950 . S
H670 C700 0.950 . S
H671 C701 0.950 . S
C672 H654 0.951 . S
C672 C673 1.366 . S
C672 C674 1.388 . S
C673 C672 1.366 . S
C673 C677 1.385 . S
C674 H655 0.951 . S
C674 C672 1.388 . S
C674 C675 1.366 . S
C675 C674 1.366 . S
C675 C676 1.414 . S
C675 C678 1.499 . S
C676 H656 0.950 . S
C676 C675 1.414 . S
C676 C677 1.374 . S
C677 H657 0.950 1_554 S
C677 C673 1.385 . S
C677 C676 1.374 . S
C678 C675 1.499 . S
C678 C679 1.373 . S
C678 C680 1.389 . S
C679 H658 0.950 . S
C679 C678 1.373 . S
C679 C695 1.377 . S
C680 C678 1.389 . S
C680 C681 1.524 . S
C680 C694 1.377 . S
C681 C680 1.524 . S
C681 C682 1.397 1_554 S
C681 C686 1.363 . S
C682 H659 0.950 . S
C682 C681 1.397 1_556 S
C682 C683 1.334 . S
C683 H660 0.950 . S
C683 C682 1.334 . S
C683 C684 1.287 . S
C684 C683 1.287 . S
C684 C685 1.524 1_556 S
C684 H703 0.913 . S
C685 H661 0.950 . S
C685 C684 1.524 1_554 S
C685 C686 1.415 . S
C686 H662 0.950 . S
C686 C681 1.363 . S
C686 C685 1.415 . S
C687 H663 0.951 . S
C687 C688 1.366 . S
C687 C689 1.388 . S
C688 C687 1.366 . S
C688 C692 1.385 . S
C689 H664 0.951 . S
C689 C687 1.388 . S
C689 C690 1.366 . S
C690 C689 1.366 . S
C690 C691 1.414 . S
C690 C693 1.499 . S
C691 H665 0.950 . S
C691 C690 1.414 . S
C691 C692 1.374 . S
C692 H666 0.950 . S
C692 C688 1.385 . S
C692 C691 1.374 . S
C693 C690 1.499 . S
C693 C694 1.373 . S
C693 C695 1.389 . S
C694 H667 0.950 . S
C694 C680 1.377 . S
C694 C693 1.373 . S
C695 C679 1.377 . S
C695 C693 1.389 . S
C695 C696 1.524 . S
C696 C695 1.524 . S
C696 C697 1.397 . S
C696 C701 1.363 . S
C697 H668 0.950 . S
C697 C696 1.397 . S
C697 C698 1.334 . S
C698 H669 0.950 . S
C698 C697 1.334 . S
C698 C699 1.287 . S
C699 C698 1.287 . S
C699 C700 1.524 . S
C699 H702 0.999 . S
C700 H670 0.950 . S
C700 C699 1.524 . S
C700 C701 1.415 . S
C701 H671 0.950 . S
C701 C696 1.363 . S
C701 C700 1.415 . S
H702 C699 0.999 . S
H703 C684 0.913 . S
H704 C722 0.951 . S
H705 C724 0.951 . S
H706 C726 0.950 . S
H707 C727 0.950 . S
H708 C729 0.950 . S
H709 C732 0.950 . S
H710 C733 0.950 . S
H711 C735 0.950 . S
H712 C736 0.950 . S
H713 C737 0.951 . S
H714 C739 0.951 . S
H715 C741 0.950 . S
H716 C742 0.950 . S
H717 C744 0.950 . S
H718 C747 0.950 . S
H719 C748 0.950 . S
H720 C750 0.950 . S
H721 C751 0.950 . S
C722 H704 0.951 . S
C722 C723 1.366 . S
C722 C724 1.388 . S
C723 C722 1.366 . S
C723 C727 1.385 . S
C724 H705 0.951 . S
C724 C722 1.388 . S
C724 C725 1.366 . S
C725 C724 1.366 . S
C725 C726 1.414 . S
C725 C728 1.499 . S
C726 H706 0.950 . S
C726 C725 1.414 . S
C726 C727 1.374 . S
C727 H707 0.950 . S
C727 C723 1.385 . S
C727 C726 1.374 . S
C728 C725 1.499 . S
C728 C729 1.373 . S
C728 C730 1.389 . S
C729 H708 0.950 . S
C729 C728 1.373 . S
C729 C745 1.377 . S
C730 C728 1.389 . S
C730 C731 1.524 . S
C730 C744 1.377 . S
C731 C730 1.524 . S
C731 C732 1.397 . S
C731 C736 1.363 . S
C732 H709 0.950 . S
C732 C731 1.397 . S
C732 C733 1.334 . S
C733 H710 0.950 . S
C733 C732 1.334 . S
C733 C734 1.287 . S
C734 C733 1.287 . S
C734 C735 1.524 . S
C734 H753 0.913 . S
C735 H711 0.950 . S
C735 C734 1.524 . S
C735 C736 1.415 . S
C736 H712 0.950 . S
C736 C731 1.363 . S
C736 C735 1.415 . S
C737 H713 0.951 . S
C737 C738 1.366 . S
C737 C739 1.388 . S
C738 C737 1.366 . S
C738 C742 1.385 . S
C739 H714 0.951 . S
C739 C737 1.388 . S
C739 C740 1.366 . S
C740 C739 1.366 . S
C740 C741 1.414 . S
C740 C743 1.499 . S
C741 H715 0.950 . S
C741 C740 1.414 . S
C741 C742 1.374 . S
C742 H716 0.950 . S
C742 C738 1.385 . S
C742 C741 1.374 . S
C743 C740 1.499 . S
C743 C744 1.373 . S
C743 C745 1.389 . S
C744 H717 0.950 . S
C744 C730 1.377 . S
C744 C743 1.373 . S
C745 C729 1.377 . S
C745 C743 1.389 . S
C745 C746 1.524 . S
C746 C745 1.524 . S
C746 C747 1.397 . S
C746 C751 1.363 . S
C747 H718 0.950 . S
C747 C746 1.397 . S
C747 C748 1.334 . S
C748 H719 0.950 . S
C748 C747 1.334 . S
C748 C749 1.287 . S
C749 C748 1.287 . S
C749 C750 1.524 . S
C749 H752 0.999 . S
C750 H720 0.950 . S
C750 C749 1.524 . S
C750 C751 1.415 . S
C751 H721 0.950 . S
C751 C746 1.363 . S
C751 C750 1.415 . S
H752 C749 0.999 . S
H753 C734 0.913 . S
H754 C772 0.951 . S
H755 C774 0.951 . S
H756 C776 0.950 . S
H757 C777 0.950 . S
H758 C779 0.950 . S
H759 C782 0.950 . S
H760 C783 0.950 . S
H761 C785 0.950 . S
H762 C786 0.950 . S
H763 C787 0.951 . S
H764 C789 0.951 . S
H765 C791 0.950 . S
H766 C792 0.950 . S
H767 C794 0.950 . S
H768 C797 0.950 . S
H769 C798 0.950 . S
H770 C800 0.950 . S
H771 C801 0.950 . S
C772 H754 0.951 . S
C772 C773 1.366 . S
C772 C774 1.388 . S
C773 C772 1.366 . S
C773 C777 1.385 . S
C774 H755 0.951 . S
C774 C772 1.388 . S
C774 C775 1.366 . S
C775 C774 1.366 . S
C775 C776 1.414 . S
C775 C778 1.499 . S
C776 H756 0.950 . S
C776 C775 1.414 . S
C776 C777 1.374 . S
C777 H757 0.950 . S
C777 C773 1.385 . S
C777 C776 1.374 . S
C778 C775 1.499 . S
C778 C779 1.373 . S
C778 C780 1.389 . S
C779 H758 0.950 . S
C779 C778 1.373 . S
C779 C795 1.377 . S
C780 C778 1.389 . S
C780 C781 1.524 . S
C780 C794 1.377 . S
C781 C780 1.524 . S
C781 C782 1.397 . S
C781 C786 1.363 . S
C782 H759 0.950 . S
C782 C781 1.397 . S
C782 C783 1.334 . S
C783 H760 0.950 . S
C783 C782 1.334 . S
C783 C784 1.287 . S
C784 C783 1.287 . S
C784 C785 1.524 . S
C784 H803 0.913 . S
C785 H761 0.950 . S
C785 C784 1.524 . S
C785 C786 1.415 . S
C786 H762 0.950 . S
C786 C781 1.363 . S
C786 C785 1.415 . S
C787 H763 0.951 . S
C787 C788 1.366 . S
C787 C789 1.388 . S
C788 C787 1.366 . S
C788 C792 1.385 . S
C789 H764 0.951 . S
C789 C787 1.388 . S
C789 C790 1.366 . S
C790 C789 1.366 . S
C790 C791 1.414 . S
C790 C793 1.499 . S
C791 H765 0.950 . S
C791 C790 1.414 . S
C791 C792 1.374 . S
C792 H766 0.950 . S
C792 C788 1.385 . S
C792 C791 1.374 . S
C793 C790 1.499 . S
C793 C794 1.373 . S
C793 C795 1.389 . S
C794 H767 0.950 . S
C794 C780 1.377 . S
C794 C793 1.373 . S
C795 C779 1.377 . S
C795 C793 1.389 . S
C795 C796 1.524 . S
C796 C795 1.524 . S
C796 C797 1.397 . S
C796 C801 1.363 . S
C797 H768 0.950 . S
C797 C796 1.397 . S
C797 C798 1.334 . S
C798 H769 0.950 . S
C798 C797 1.334 . S
C798 C799 1.287 . S
C799 C798 1.287 . S
C799 C800 1.524 . S
C799 H802 0.999 . S
C800 H770 0.950 . S
C800 C799 1.524 . S
C800 C801 1.415 . S
C801 H771 0.950 . S
C801 C796 1.363 . S
C801 C800 1.415 . S
H802 C799 0.999 . S
H803 C784 0.913 . S
H804 C822 0.951 . S
H805 C824 0.951 . S
H806 C826 0.950 . S
H807 C827 0.950 . S
H808 C829 0.950 . S
H809 C832 0.950 . S
H810 C833 0.950 . S
H811 C835 0.950 . S
H812 C836 0.950 . S
H813 C837 0.951 . S
H814 C839 0.951 . S
H815 C841 0.950 . S
H816 C842 0.950 . S
H817 C844 0.950 . S
H818 C847 0.950 . S
H819 C848 0.950 . S
H820 C850 0.950 . S
H821 C851 0.950 . S
C822 H804 0.951 . S
C822 C823 1.366 . S
C822 C824 1.388 . S
C823 C822 1.366 . S
C823 C827 1.385 . S
C824 H805 0.951 . S
C824 C822 1.388 . S
C824 C825 1.366 . S
C825 C824 1.366 . S
C825 C826 1.414 . S
C825 C828 1.499 . S
C826 H806 0.950 . S
C826 C825 1.414 . S
C826 C827 1.374 . S
C827 H807 0.950 . S
C827 C823 1.385 . S
C827 C826 1.374 . S
C828 C825 1.499 . S
C828 C829 1.373 . S
C828 C830 1.389 . S
C829 H808 0.950 . S
C829 C828 1.373 . S
C829 C845 1.377 . S
C830 C828 1.389 . S
C830 C831 1.524 . S
C830 C844 1.377 . S
C831 C830 1.524 . S
C831 C832 1.397 . S
C831 C836 1.363 . S
C832 H809 0.950 . S
C832 C831 1.397 . S
C832 C833 1.334 . S
C833 H810 0.950 . S
C833 C832 1.334 . S
C833 C834 1.287 . S
C834 C833 1.287 . S
C834 C835 1.524 . S
C834 H853 0.913 . S
C835 H811 0.950 . S
C835 C834 1.524 . S
C835 C836 1.415 . S
C836 H812 0.950 . S
C836 C831 1.363 . S
C836 C835 1.415 . S
C837 H813 0.951 . S
C837 C838 1.366 . S
C837 C839 1.388 . S
C838 C837 1.366 . S
C838 C842 1.385 . S
C839 H814 0.951 . S
C839 C837 1.388 . S
C839 C840 1.366 . S
C840 C839 1.366 . S
C840 C841 1.414 . S
C840 C843 1.499 . S
C841 H815 0.950 . S
C841 C840 1.414 . S
C841 C842 1.374 . S
C842 H816 0.950 . S
C842 C838 1.385 . S
C842 C841 1.374 . S
C843 C840 1.499 . S
C843 C844 1.373 . S
C843 C845 1.389 . S
C844 H817 0.950 . S
C844 C830 1.377 . S
C844 C843 1.373 . S
C845 C829 1.377 . S
C845 C843 1.389 . S
C845 C846 1.524 . S
C846 C845 1.524 . S
C846 C847 1.397 . S
C846 C851 1.363 . S
C847 H818 0.950 . S
C847 C846 1.397 . S
C847 C848 1.334 . S
C848 H819 0.950 . S
C848 C847 1.334 . S
C848 C849 1.287 . S
C849 C848 1.287 . S
C849 C850 1.524 . S
C849 H852 0.999 . S
C850 H820 0.950 . S
C850 C849 1.524 . S
C850 C851 1.415 . S
C851 H821 0.950 . S
C851 C846 1.363 . S
C851 C850 1.415 . S
H852 C849 0.999 . S
H853 C834 0.913 . S
H854 C872 0.951 . S
H855 C874 0.951 . S
H856 C876 0.950 . S
H857 C877 0.950 . S
H858 C879 0.950 . S
H859 C882 0.950 . S
H860 C883 0.950 . S
H861 C885 0.950 . S
H862 C886 0.950 . S
H863 C887 0.951 . S
H864 C889 0.951 . S
H865 C891 0.950 . S
H866 C892 0.950 . S
H867 C894 0.950 . S
H868 C897 0.950 . S
H869 C898 0.950 . S
H870 C900 0.950 . S
H871 C901 0.950 . S
C872 H854 0.951 . S
C872 C873 1.366 . S
C872 C874 1.388 . S
C873 C872 1.366 . S
C873 C877 1.385 . S
C874 H855 0.951 . S
C874 C872 1.388 . S
C874 C875 1.366 . S
C875 C874 1.366 . S
C875 C876 1.414 . S
C875 C878 1.499 . S
C876 H856 0.950 . S
C876 C875 1.414 . S
C876 C877 1.374 . S
C877 H857 0.950 . S
C877 C873 1.385 . S
C877 C876 1.374 . S
C878 C875 1.499 . S
C878 C879 1.373 . S
C878 C880 1.389 . S
C879 H858 0.950 . S
C879 C878 1.373 . S
C879 C895 1.377 . S
C880 C878 1.389 . S
C880 C881 1.524 . S
C880 C894 1.377 . S
C881 C880 1.524 . S
C881 C882 1.397 . S
C881 C886 1.363 . S
C882 H859 0.950 . S
C882 C881 1.397 . S
C882 C883 1.334 . S
C883 H860 0.950 . S
C883 C882 1.334 . S
C883 C884 1.287 . S
C884 C883 1.287 . S
C884 C885 1.524 . S
C884 H903 0.913 . S
C885 H861 0.950 . S
C885 C884 1.524 . S
C885 C886 1.415 . S
C886 H862 0.950 . S
C886 C881 1.363 . S
C886 C885 1.415 . S
C887 H863 0.951 . S
C887 C888 1.366 . S
C887 C889 1.388 . S
C888 C887 1.366 . S
C888 C892 1.385 . S
C889 H864 0.951 . S
C889 C887 1.388 . S
C889 C890 1.366 . S
C890 C889 1.366 . S
C890 C891 1.414 . S
C890 C893 1.499 . S
C891 H865 0.950 . S
C891 C890 1.414 . S
C891 C892 1.374 . S
C892 H866 0.950 . S
C892 C888 1.385 . S
C892 C891 1.374 . S
C893 C890 1.499 . S
C893 C894 1.373 . S
C893 C895 1.389 . S
C894 H867 0.950 . S
C894 C880 1.377 . S
C894 C893 1.373 . S
C895 C879 1.377 . S
C895 C893 1.389 . S
C895 C896 1.524 . S
C896 C895 1.524 . S
C896 C897 1.397 . S
C896 C901 1.363 . S
C897 H868 0.950 . S
C897 C896 1.397 . S
C897 C898 1.334 . S
C898 H869 0.950 . S
C898 C897 1.334 . S
C898 C899 1.287 . S
C899 C898 1.287 . S
C899 C900 1.524 . S
C899 H902 0.999 . S
C900 H870 0.950 . S
C900 C899 1.524 . S
C900 C901 1.415 . S
C901 H871 0.950 . S
C901 C896 1.363 . S
C901 C900 1.415 . S
H902 C899 0.999 . S
H903 C884 0.913 . S
H904 C922 0.951 . S
H905 C924 0.951 . S
H906 C926 0.950 . S
H907 C927 0.950 . S
H908 C929 0.950 . S
H909 C932 0.950 . S
H910 C933 0.950 . S
H911 C935 0.950 . S
H912 C936 0.950 . S
H913 C937 0.951 . S
H914 C939 0.951 . S
H915 C941 0.950 . S
H916 C942 0.950 . S
H917 C944 0.950 . S
H918 C947 0.950 . S
H919 C948 0.950 . S
H920 C950 0.950 . S
H921 C951 0.950 . S
C922 H904 0.951 . S
C922 C923 1.366 . S
C922 C924 1.388 . S
C923 C922 1.366 . S
C923 C927 1.385 . S
C924 H905 0.951 . S
C924 C922 1.388 . S
C924 C925 1.366 . S
C925 C924 1.366 . S
C925 C926 1.414 . S
C925 C928 1.499 . S
C926 H906 0.950 . S
C926 C925 1.414 . S
C926 C927 1.374 . S
C927 H907 0.950 . S
C927 C923 1.385 . S
C927 C926 1.374 . S
C928 C925 1.499 . S
C928 C929 1.373 . S
C928 C930 1.389 . S
C929 H908 0.950 . S
C929 C928 1.373 . S
C929 C945 1.377 . S
C930 C928 1.389 . S
C930 C931 1.524 . S
C930 C944 1.377 . S
C931 C930 1.524 . S
C931 C932 1.397 . S
C931 C936 1.363 . S
C932 H909 0.950 . S
C932 C931 1.397 . S
C932 C933 1.334 . S
C933 H910 0.950 . S
C933 C932 1.334 . S
C933 C934 1.287 . S
C934 C933 1.287 . S
C934 C935 1.524 . S
C934 H953 0.913 . S
C935 H911 0.950 . S
C935 C934 1.524 . S
C935 C936 1.415 . S
C936 H912 0.950 . S
C936 C931 1.363 . S
C936 C935 1.415 . S
C937 H913 0.951 . S
C937 C938 1.366 . S
C937 C939 1.388 . S
C938 C937 1.366 . S
C938 C942 1.385 . S
C939 H914 0.951 . S
C939 C937 1.388 . S
C939 C940 1.366 . S
C940 C939 1.366 . S
C940 C941 1.414 . S
C940 C943 1.499 . S
C941 H915 0.950 . S
C941 C940 1.414 . S
C941 C942 1.374 . S
C942 H916 0.950 . S
C942 C938 1.385 . S
C942 C941 1.374 . S
C943 C940 1.499 . S
C943 C944 1.373 . S
C943 C945 1.389 . S
C944 H917 0.950 . S
C944 C930 1.377 . S
C944 C943 1.373 . S
C945 C929 1.377 . S
C945 C943 1.389 . S
C945 C946 1.524 . S
C946 C945 1.524 . S
C946 C947 1.397 . S
C946 C951 1.363 . S
C947 H918 0.950 . S
C947 C946 1.397 . S
C947 C948 1.334 . S
C948 H919 0.950 . S
C948 C947 1.334 . S
C948 C949 1.287 . S
C949 C948 1.287 . S
C949 C950 1.524 . S
C949 H952 0.999 . S
C950 H920 0.950 . S
C950 C949 1.524 . S
C950 C951 1.415 . S
C951 H921 0.950 . S
C951 C946 1.363 . S
C951 C950 1.415 . S
H952 C949 0.999 . S
H953 C934 0.913 . S
H954 C972 0.951 . S
H955 C974 0.951 . S
H956 C976 0.950 . S
H957 C977 0.950 . S
H958 C979 0.950 . S
H959 C982 0.950 . S
H960 C983 0.950 . S
H961 C985 0.950 . S
H962 C986 0.950 . S
H963 C987 0.951 . S
H964 C989 0.951 . S
H965 C991 0.957 . S
H966 C992 0.950 . S
H967 C994 0.950 . S
H968 C997 0.950 . S
H969 C998 0.950 . S
H970 C1000 0.950 . S
H971 C1001 0.950 . S
C972 H954 0.951 . S
C972 C973 1.366 . S
C972 C974 1.388 . S
C973 C972 1.366 . S
C973 C977 1.385 . S
C974 H955 0.951 . S
C974 C972 1.388 . S
C974 C975 1.366 . S
C975 C974 1.366 . S
C975 C976 1.414 . S
C975 C978 1.499 . S
C976 H956 0.950 . S
C976 C975 1.414 . S
C976 C977 1.374 . S
C977 H957 0.950 . S
C977 C973 1.385 . S
C977 C976 1.374 . S
C978 C975 1.499 . S
C978 C979 1.373 . S
C978 C980 1.389 . S
C979 H958 0.950 . S
C979 C978 1.373 . S
C979 C995 1.377 . S
C980 C978 1.389 . S
C980 C981 1.524 . S
C980 C994 1.377 . S
C981 C980 1.524 . S
C981 C982 1.397 . S
C981 C986 1.363 . S
C982 H959 0.950 . S
C982 C981 1.397 . S
C982 C983 1.334 . S
C983 H960 0.950 . S
C983 C982 1.334 . S
C983 C984 1.287 . S
C984 C983 1.287 . S
C984 C985 1.524 . S
C984 H1003 0.913 . S
C985 H961 0.950 . S
C985 C984 1.524 . S
C985 C986 1.415 . S
C986 H962 0.950 . S
C986 C981 1.363 . S
C986 C985 1.415 . S
C987 H963 0.951 . S
C987 C988 1.366 1_556 S
C987 C989 1.388 . S
C988 C987 1.366 1_554 S
C988 C992 1.385 . S
C989 H964 0.951 . S
C989 C987 1.388 . S
C989 C990 1.366 . S
C990 C989 1.366 . S
C990 C991 1.389 1_556 S
C990 C993 1.499 . S
C991 H965 0.957 . S
C991 C990 1.389 1_554 S
C991 C992 1.392 . S
C992 H966 0.950 . S
C992 C988 1.385 . S
C992 C991 1.392 . S
C993 C990 1.499 . S
C993 C994 1.373 . S
C993 C995 1.389 . S
C994 H967 0.950 . S
C994 C980 1.377 . S
C994 C993 1.373 . S
C995 C979 1.377 . S
C995 C993 1.389 . S
C995 C996 1.524 . S
C996 C995 1.524 . S
C996 C997 1.397 . S
C996 C1001 1.363 . S
C997 H968 0.950 . S
C997 C996 1.397 . S
C997 C998 1.334 . S
C998 H969 0.950 . S
C998 C997 1.334 . S
C998 C999 1.287 . S
C999 C998 1.287 . S
C999 C1000 1.524 . S
C999 H1002 0.999 . S
C1000 H970 0.950 . S
C1000 C999 1.524 . S
C1000 C1001 1.415 . S
C1001 H971 0.950 . S
C1001 C996 1.363 . S
C1001 C1000 1.415 . S
H1002 C999 0.999 . S
H1003 C984 0.913 . S
H1004 C1022 0.951 . S
H1005 C1024 0.951 . S
H1006 C1026 0.950 . S
H1007 C1027 0.950 . S
H1008 C1029 0.950 . S
H1009 C1032 0.950 . S
H1010 C1033 0.950 . S
H1011 C1035 0.950 . S
H1012 C1036 0.950 . S
H1013 C1037 0.951 . S
H1014 C1039 0.951 . S
H1015 C1041 0.950 . S
H1016 C1042 0.950 . S
H1017 C1044 0.950 . S
H1018 C1047 0.950 . S
H1019 C1048 0.950 . S
H1020 C1050 0.950 . S
H1021 C1051 0.950 . S
C1022 H1004 0.951 . S
C1022 C1023 1.366 . S
C1022 C1024 1.388 . S
C1023 C1022 1.366 . S
C1023 C1027 1.385 . S
C1024 H1005 0.951 . S
C1024 C1022 1.388 . S
C1024 C1025 1.366 . S
C1025 C1024 1.366 . S
C1025 C1026 1.414 . S
C1025 C1028 1.499 . S
C1026 H1006 0.950 . S
C1026 C1025 1.414 . S
C1026 C1027 1.374 . S
C1027 H1007 0.950 . S
C1027 C1023 1.385 . S
C1027 C1026 1.374 . S
C1028 C1025 1.499 . S
C1028 C1029 1.373 . S
C1028 C1030 1.389 . S
C1029 H1008 0.950 . S
C1029 C1028 1.373 . S
C1029 C1045 1.377 . S
C1030 C1028 1.389 . S
C1030 C1031 1.524 . S
C1030 C1044 1.377 . S
C1031 C1030 1.524 . S
C1031 C1032 1.397 . S
C1031 C1036 1.363 . S
C1032 H1009 0.950 . S
C1032 C1031 1.397 . S
C1032 C1033 1.334 . S
C1033 H1010 0.950 . S
C1033 C1032 1.334 . S
C1033 C1034 1.287 . S
C1034 C1033 1.287 . S
C1034 C1035 1.524 . S
C1034 H1053 0.913 . S
C1035 H1011 0.950 . S
C1035 C1034 1.524 . S
C1035 C1036 1.415 . S
C1036 H1012 0.950 . S
C1036 C1031 1.363 . S
C1036 C1035 1.415 . S
C1037 H1013 0.951 . S
C1037 C1038 1.366 . S
C1037 C1039 1.388 . S
C1038 C1037 1.366 . S
C1038 C1042 1.385 . S
C1039 H1014 0.951 . S
C1039 C1037 1.388 . S
C1039 C1040 1.366 . S
C1040 C1039 1.366 . S
C1040 C1041 1.414 . S
C1040 C1043 1.499 . S
C1041 H1015 0.950 . S
C1041 C1040 1.414 . S
C1041 C1042 1.374 . S
C1042 H1016 0.950 . S
C1042 C1038 1.385 . S
C1042 C1041 1.374 . S
C1043 C1040 1.499 . S
C1043 C1044 1.373 . S
C1043 C1045 1.389 . S
C1044 H1017 0.950 . S
C1044 C1030 1.377 . S
C1044 C1043 1.373 . S
C1045 C1029 1.377 . S
C1045 C1043 1.389 . S
C1045 C1046 1.524 . S
C1046 C1045 1.524 . S
C1046 C1047 1.397 . S
C1046 C1051 1.363 . S
C1047 H1018 0.950 . S
C1047 C1046 1.397 . S
C1047 C1048 1.334 . S
C1048 H1019 0.950 . S
C1048 C1047 1.334 . S
C1048 C1049 1.287 . S
C1049 C1048 1.287 . S
C1049 C1050 1.524 . S
C1049 H1052 0.999 . S
C1050 H1020 0.950 . S
C1050 C1049 1.524 . S
C1050 C1051 1.415 . S
C1051 H1021 0.950 . S
C1051 C1046 1.363 . S
C1051 C1050 1.415 . S
H1052 C1049 0.999 . S
H1053 C1034 0.913 . S
H1054 C1072 0.951 . S
H1055 C1074 0.951 . S
H1056 C1076 0.950 . S
H1057 C1077 0.950 . S
H1058 C1079 0.950 . S
H1059 C1082 0.950 . S
H1060 C1083 0.950 . S
H1061 C1085 0.950 . S
H1062 C1086 0.950 . S
H1063 C1087 0.951 . S
H1064 C1089 0.951 . S
H1065 C1091 0.950 . S
H1066 C1092 0.950 . S
H1067 C1094 0.950 . S
H1068 C1097 0.950 . S
H1069 C1098 0.950 . S
H1070 C1100 0.950 . S
H1071 C1101 0.950 . S
C1072 H1054 0.951 . S
C1072 C1073 1.366 . S
C1072 C1074 1.388 . S
C1073 C1072 1.366 . S
C1073 C1077 1.385 . S
C1074 H1055 0.951 . S
C1074 C1072 1.388 . S
C1074 C1075 1.366 . S
C1075 C1074 1.366 . S
C1075 C1076 1.414 . S
C1075 C1078 1.499 . S
C1076 H1056 0.950 . S
C1076 C1075 1.414 . S
C1076 C1077 1.374 . S
C1077 H1057 0.950 . S
C1077 C1073 1.385 . S
C1077 C1076 1.374 . S
C1078 C1075 1.499 . S
C1078 C1079 1.373 . S
C1078 C1080 1.389 . S
C1079 H1058 0.950 . S
C1079 C1078 1.373 . S
C1079 C1095 1.377 . S
C1080 C1078 1.389 . S
C1080 C1081 1.524 . S
C1080 C1094 1.377 . S
C1081 C1080 1.524 . S
C1081 C1082 1.397 . S
C1081 C1086 1.363 . S
C1082 H1059 0.950 . S
C1082 C1081 1.397 . S
C1082 C1083 1.334 . S
C1083 H1060 0.950 . S
C1083 C1082 1.334 . S
C1083 C1084 1.287 . S
C1084 C1083 1.287 . S
C1084 C1085 1.524 . S
C1084 H1103 0.913 . S
C1085 H1061 0.950 . S
C1085 C1084 1.524 . S
C1085 C1086 1.415 . S
C1086 H1062 0.950 . S
C1086 C1081 1.363 . S
C1086 C1085 1.415 . S
C1087 H1063 0.951 . S
C1087 C1088 1.366 . S
C1087 C1089 1.388 . S
C1088 C1087 1.366 . S
C1088 C1092 1.385 . S
C1089 H1064 0.951 . S
C1089 C1087 1.388 . S
C1089 C1090 1.366 . S
C1090 C1089 1.366 . S
C1090 C1091 1.414 . S
C1090 C1093 1.499 . S
C1091 H1065 0.950 . S
C1091 C1090 1.414 . S
C1091 C1092 1.374 . S
C1092 H1066 0.950 . S
C1092 C1088 1.385 . S
C1092 C1091 1.374 . S
C1093 C1090 1.499 . S
C1093 C1094 1.373 . S
C1093 C1095 1.389 . S
C1094 H1067 0.950 . S
C1094 C1080 1.377 . S
C1094 C1093 1.373 . S
C1095 C1079 1.377 . S
C1095 C1093 1.389 . S
C1095 C1096 1.524 . S
C1096 C1095 1.524 . S
C1096 C1097 1.397 . S
C1096 C1101 1.363 . S
C1097 H1068 0.950 . S
C1097 C1096 1.397 . S
C1097 C1098 1.334 . S
C1098 H1069 0.950 . S
C1098 C1097 1.334 . S
C1098 C1099 1.287 . S
C1099 C1098 1.287 . S
C1099 C1100 1.524 . S
C1099 H1102 0.999 . S
C1100 H1070 0.950 . S
C1100 C1099 1.524 . S
C1100 C1101 1.415 . S
C1101 H1071 0.950 . S
C1101 C1096 1.363 . S
C1101 C1100 1.415 . S
H1102 C1099 0.999 . S
H1103 C1084 0.913 . S
H1104 C1122 0.951 . S
H1105 C1124 0.951 . S
H1106 C1126 0.950 . S
H1107 C1127 0.950 . S
H1108 C1129 0.950 . S
H1109 C1132 0.950 . S
H1110 C1133 0.950 . S
H1111 C1135 0.950 . S
H1112 C1136 0.950 . S
H1113 C1137 0.951 . S
H1114 C1139 0.951 . S
H1115 C1141 0.950 . S
H1116 C1142 0.950 . S
H1117 C1144 0.950 . S
H1118 C1147 0.950 . S
H1119 C1148 0.950 . S
H1120 C1150 0.950 . S
H1121 C1151 0.950 . S
C1122 H1104 0.951 . S
C1122 C1123 1.366 . S
C1122 C1124 1.388 . S
C1123 C1122 1.366 . S
C1123 C1127 1.385 . S
C1124 H1105 0.951 . S
C1124 C1122 1.388 . S
C1124 C1125 1.366 . S
C1125 C1124 1.366 . S
C1125 C1126 1.414 . S
C1125 C1128 1.499 . S
C1126 H1106 0.950 . S
C1126 C1125 1.414 . S
C1126 C1127 1.374 . S
C1127 H1107 0.950 . S
C1127 C1123 1.385 . S
C1127 C1126 1.374 . S
C1128 C1125 1.499 . S
C1128 C1129 1.373 . S
C1128 C1130 1.389 . S
C1129 H1108 0.950 . S
C1129 C1128 1.373 . S
C1129 C1145 1.377 . S
C1130 C1128 1.389 . S
C1130 C1131 1.524 . S
C1130 C1144 1.377 . S
C1131 C1130 1.524 . S
C1131 C1132 1.397 . S
C1131 C1136 1.363 . S
C1132 H1109 0.950 . S
C1132 C1131 1.397 . S
C1132 C1133 1.334 . S
C1133 H1110 0.950 . S
C1133 C1132 1.334 . S
C1133 C1134 1.287 . S
C1134 C1133 1.287 . S
C1134 C1135 1.524 . S
C1134 H1153 0.913 . S
C1135 H1111 0.950 . S
C1135 C1134 1.524 . S
C1135 C1136 1.415 . S
C1136 H1112 0.950 . S
C1136 C1131 1.363 . S
C1136 C1135 1.415 . S
C1137 H1113 0.951 . S
C1137 C1138 1.366 . S
C1137 C1139 1.388 . S
C1138 C1137 1.366 . S
C1138 C1142 1.385 . S
C1139 H1114 0.951 . S
C1139 C1137 1.388 . S
C1139 C1140 1.366 . S
C1140 C1139 1.366 . S
C1140 C1141 1.414 . S
C1140 C1143 1.499 . S
C1141 H1115 0.950 . S
C1141 C1140 1.414 . S
C1141 C1142 1.374 . S
C1142 H1116 0.950 . S
C1142 C1138 1.385 . S
C1142 C1141 1.374 . S
C1143 C1140 1.499 . S
C1143 C1144 1.373 . S
C1143 C1145 1.389 . S
C1144 H1117 0.950 . S
C1144 C1130 1.377 . S
C1144 C1143 1.373 . S
C1145 C1129 1.377 . S
C1145 C1143 1.389 . S
C1145 C1146 1.524 . S
C1146 C1145 1.524 . S
C1146 C1147 1.397 . S
C1146 C1151 1.363 . S
C1147 H1118 0.950 . S
C1147 C1146 1.397 . S
C1147 C1148 1.334 . S
C1148 H1119 0.950 . S
C1148 C1147 1.334 . S
C1148 C1149 1.287 . S
C1149 C1148 1.287 . S
C1149 C1150 1.524 . S
C1149 H1152 0.999 . S
C1150 H1120 0.950 . S
C1150 C1149 1.524 . S
C1150 C1151 1.415 . S
C1151 H1121 0.950 . S
C1151 C1146 1.363 . S
C1151 C1150 1.415 . S
H1152 C1149 0.999 . S
H1153 C1134 0.913 . S
H1154 C1172 0.951 . S
H1155 C1174 0.951 . S
H1156 C1176 0.950 . S
H1157 C1177 0.950 . S
H1158 C1179 0.950 . S
H1159 C1182 0.950 . S
H1160 C1183 0.950 . S
H1161 C1185 0.950 . S
H1162 C1186 0.950 . S
H1163 C1187 0.951 . S
H1164 C1189 0.951 . S
H1165 C1191 0.950 . S
H1166 C1192 0.950 . S
H1167 C1194 0.950 . S
H1168 C1197 0.950 . S
H1169 C1198 0.950 . S
H1170 C1200 0.950 . S
H1171 C1201 0.950 . S
C1172 H1154 0.951 . S
C1172 C1173 1.366 . S
C1172 C1174 1.388 . S
C1173 C1172 1.366 . S
C1173 C1177 1.385 . S
C1174 H1155 0.951 . S
C1174 C1172 1.388 . S
C1174 C1175 1.366 . S
C1175 C1174 1.366 . S
C1175 C1176 1.414 . S
C1175 C1178 1.499 . S
C1176 H1156 0.950 . S
C1176 C1175 1.414 . S
C1176 C1177 1.374 . S
C1177 H1157 0.950 . S
C1177 C1173 1.385 . S
C1177 C1176 1.374 . S
C1178 C1175 1.499 . S
C1178 C1179 1.373 . S
C1178 C1180 1.389 . S
C1179 H1158 0.950 . S
C1179 C1178 1.373 . S
C1179 C1195 1.377 . S
C1180 C1178 1.389 . S
C1180 C1181 1.524 . S
C1180 C1194 1.377 . S
C1181 C1180 1.524 . S
C1181 C1182 1.397 . S
C1181 C1186 1.363 . S
C1182 H1159 0.950 . S
C1182 C1181 1.397 . S
C1182 C1183 1.334 . S
C1183 H1160 0.950 . S
C1183 C1182 1.334 . S
C1183 C1184 1.287 . S
C1184 C1183 1.287 . S
C1184 C1185 1.524 . S
C1184 H1203 0.913 . S
C1185 H1161 0.950 . S
C1185 C1184 1.524 . S
C1185 C1186 1.415 . S
C1186 H1162 0.950 . S
C1186 C1181 1.363 . S
C1186 C1185 1.415 . S
C1187 H1163 0.951 . S
C1187 C1188 1.366 . S
C1187 C1189 1.388 . S
C1188 C1187 1.366 . S
C1188 C1192 1.385 . S
C1189 H1164 0.951 . S
C1189 C1187 1.388 . S
C1189 C1190 1.366 . S
C1190 C1189 1.366 . S
C1190 C1191 1.414 . S
C1190 C1193 1.499 . S
C1191 H1165 0.950 . S
C1191 C1190 1.414 . S
C1191 C1192 1.374 . S
C1192 H1166 0.950 . S
C1192 C1188 1.385 . S
C1192 C1191 1.374 . S
C1193 C1190 1.499 . S
C1193 C1194 1.373 . S
C1193 C1195 1.389 . S
C1194 H1167 0.950 . S
C1194 C1180 1.377 . S
C1194 C1193 1.373 . S
C1195 C1179 1.377 . S
C1195 C1193 1.389 . S
C1195 C1196 1.524 . S
C1196 C1195 1.524 . S
C1196 C1197 1.397 . S
C1196 C1201 1.363 . S
C1197 H1168 0.950 . S
C1197 C1196 1.397 . S
C1197 C1198 1.334 . S
C1198 H1169 0.950 . S
C1198 C1197 1.334 . S
C1198 C1199 1.287 . S
C1199 C1198 1.287 . S
C1199 C1200 1.524 . S
C1199 H1202 0.999 . S
C1200 H1170 0.950 . S
C1200 C1199 1.524 . S
C1200 C1201 1.415 . S
C1201 H1171 0.950 . S
C1201 C1196 1.363 . S
C1201 C1200 1.415 . S
H1202 C1199 0.999 . S
H1203 C1184 0.913 . S
H1204 C1222 0.951 . S
H1205 C1224 0.951 . S
H1206 C1226 0.950 . S
H1207 C1227 0.950 . S
H1208 C1229 0.950 . S
H1209 C1232 0.950 . S
H1210 C1233 0.950 . S
H1211 C1235 0.950 . S
H1212 C1236 0.950 . S
H1213 C1237 0.951 . S
H1214 C1239 0.951 . S
H1215 C1241 0.950 . S
H1216 C1242 0.950 . S
H1217 C1244 0.950 . S
H1218 C1247 0.950 . S
H1219 C1248 0.950 . S
H1220 C1250 0.950 . S
H1221 C1251 0.950 . S
C1222 H1204 0.951 . S
C1222 C1223 1.366 . S
C1222 C1224 1.388 . S
C1223 C1222 1.366 . S
C1223 C1227 1.385 . S
C1224 H1205 0.951 . S
C1224 C1222 1.388 . S
C1224 C1225 1.366 . S
C1225 C1224 1.366 . S
C1225 C1226 1.414 . S
C1225 C1228 1.499 . S
C1226 H1206 0.950 . S
C1226 C1225 1.414 . S
C1226 C1227 1.374 . S
C1227 H1207 0.950 . S
C1227 C1223 1.385 . S
C1227 C1226 1.374 . S
C1228 C1225 1.499 . S
C1228 C1229 1.373 . S
C1228 C1230 1.389 . S
C1229 H1208 0.950 . S
C1229 C1228 1.373 . S
C1229 C1245 1.377 . S
C1230 C1228 1.389 . S
C1230 C1231 1.524 . S
C1230 C1244 1.377 . S
C1231 C1230 1.524 . S
C1231 C1232 1.397 . S
C1231 C1236 1.363 . S
C1232 H1209 0.950 . S
C1232 C1231 1.397 . S
C1232 C1233 1.334 . S
C1233 H1210 0.950 . S
C1233 C1232 1.334 . S
C1233 C1234 1.287 . S
C1234 C1233 1.287 . S
C1234 C1235 1.524 . S
C1234 H1253 0.913 . S
C1235 H1211 0.950 . S
C1235 C1234 1.524 . S
C1235 C1236 1.415 . S
C1236 H1212 0.950 . S
C1236 C1231 1.363 . S
C1236 C1235 1.415 . S
C1237 H1213 0.951 . S
C1237 C1238 1.366 . S
C1237 C1239 1.388 . S
C1238 C1237 1.366 . S
C1238 C1242 1.385 . S
C1239 H1214 0.951 . S
C1239 C1237 1.388 . S
C1239 C1240 1.366 . S
C1240 C1239 1.366 . S
C1240 C1241 1.414 . S
C1240 C1243 1.499 . S
C1241 H1215 0.950 . S
C1241 C1240 1.414 . S
C1241 C1242 1.374 . S
C1242 H1216 0.950 . S
C1242 C1238 1.385 . S
C1242 C1241 1.374 . S
C1243 C1240 1.499 . S
C1243 C1244 1.373 . S
C1243 C1245 1.389 . S
C1244 H1217 0.950 . S
C1244 C1230 1.377 . S
C1244 C1243 1.373 . S
C1245 C1229 1.377 . S
C1245 C1243 1.389 . S
C1245 C1246 1.524 . S
C1246 C1245 1.524 . S
C1246 C1247 1.397 . S
C1246 C1251 1.363 . S
C1247 H1218 0.950 . S
C1247 C1246 1.397 . S
C1247 C1248 1.334 . S
C1248 H1219 0.950 . S
C1248 C1247 1.334 . S
C1248 C1249 1.287 . S
C1249 C1248 1.287 . S
C1249 C1250 1.524 . S
C1249 H1252 0.999 . S
C1250 H1220 0.950 . S
C1250 C1249 1.524 . S
C1250 C1251 1.415 . S
C1251 H1221 0.950 . S
C1251 C1246 1.363 . S
C1251 C1250 1.415 . S
H1252 C1249 0.999 . S
H1253 C1234 0.913 . S
H1254 C1272 0.951 . S
H1255 C1274 0.951 . S
H1256 C1276 0.950 . S
H1257 C1277 0.950 . S
H1258 C1279 0.950 . S
H1259 C1282 0.950 . S
H1260 C1283 0.950 . S
H1261 C1285 0.950 . S
H1262 C1286 0.950 . S
H1263 C1287 0.951 . S
H1264 C1289 0.951 . S
H1265 C1291 0.950 . S
H1266 C1292 0.950 . S
H1267 C1294 0.950 . S
H1268 C1297 0.950 . S
H1269 C1298 0.950 . S
H1270 C1300 0.950 . S
H1271 C1301 0.950 . S
C1272 H1254 0.951 . S
C1272 C1273 1.366 . S
C1272 C1274 1.388 . S
C1273 C1272 1.366 . S
C1273 C1277 1.385 . S
C1274 H1255 0.951 . S
C1274 C1272 1.388 . S
C1274 C1275 1.366 . S
C1275 C1274 1.366 . S
C1275 C1276 1.414 . S
C1275 C1278 1.499 . S
C1276 H1256 0.950 . S
C1276 C1275 1.414 . S
C1276 C1277 1.374 . S
C1277 H1257 0.950 . S
C1277 C1273 1.385 . S
C1277 C1276 1.374 . S
C1278 C1275 1.499 . S
C1278 C1279 1.373 . S
C1278 C1280 1.389 . S
C1279 H1258 0.950 . S
C1279 C1278 1.373 . S
C1279 C1295 1.377 . S
C1280 C1278 1.389 . S
C1280 C1281 1.524 . S
C1280 C1294 1.377 . S
C1281 C1280 1.524 . S
C1281 C1282 1.397 . S
C1281 C1286 1.363 . S
C1282 H1259 0.950 . S
C1282 C1281 1.397 . S
C1282 C1283 1.334 . S
C1283 H1260 0.950 . S
C1283 C1282 1.334 . S
C1283 C1284 1.287 . S
C1284 C1283 1.287 . S
C1284 C1285 1.524 . S
C1284 H1303 0.913 . S
C1285 H1261 0.950 . S
C1285 C1284 1.524 . S
C1285 C1286 1.415 . S
C1286 H1262 0.950 . S
C1286 C1281 1.363 . S
C1286 C1285 1.415 . S
C1287 H1263 0.951 . S
C1287 C1288 1.366 . S
C1287 C1289 1.388 . S
C1288 C1287 1.366 . S
C1288 C1292 1.385 . S
C1289 H1264 0.951 . S
C1289 C1287 1.388 . S
C1289 C1290 1.366 . S
C1290 C1289 1.366 . S
C1290 C1291 1.414 . S
C1290 C1293 1.499 . S
C1291 H1265 0.950 . S
C1291 C1290 1.414 . S
C1291 C1292 1.374 . S
C1292 H1266 0.950 . S
C1292 C1288 1.385 . S
C1292 C1291 1.374 . S
C1293 C1290 1.499 . S
C1293 C1294 1.373 . S
C1293 C1295 1.389 . S
C1294 H1267 0.950 . S
C1294 C1280 1.377 . S
C1294 C1293 1.373 . S
C1295 C1279 1.377 . S
C1295 C1293 1.389 . S
C1295 C1296 1.524 . S
C1296 C1295 1.524 . S
C1296 C1297 1.397 . S
C1296 C1301 1.363 . S
C1297 H1268 0.950 . S
C1297 C1296 1.397 . S
C1297 C1298 1.334 . S
C1298 H1269 0.950 . S
C1298 C1297 1.334 . S
C1298 C1299 1.287 . S
C1299 C1298 1.287 . S
C1299 C1300 1.524 . S
C1299 H1302 0.999 . S
C1300 H1270 0.950 . S
C1300 C1299 1.524 . S
C1300 C1301 1.415 . S
C1301 H1271 0.950 . S
C1301 C1296 1.363 . S
C1301 C1300 1.415 . S
H1302 C1299 0.999 . S
H1303 C1284 0.913 . S
H1304 C1322 0.951 . S
H1305 C1324 0.951 . S
H1306 C1326 0.950 . S
H1307 C1327 0.950 . S
H1308 C1329 0.950 . S
H1309 C1332 0.950 . S
H1310 C1333 0.950 . S
H1311 C1335 0.950 . S
H1312 C1336 0.950 . S
H1313 C1337 0.951 . S
H1314 C1339 0.951 . S
H1315 C1341 0.950 1_554 S
H1316 C1342 0.950 . S
H1317 C1344 0.950 . S
H1318 C1347 0.950 . S
H1319 C1348 0.950 . S
H1320 C1350 0.937 1_556 S
H1321 C1351 0.950 . S
C1322 H1304 0.951 . S
C1322 C1323 1.366 . S
C1322 C1324 1.388 . S
C1323 C1322 1.366 . S
C1323 C1327 1.385 . S
C1324 H1305 0.951 . S
C1324 C1322 1.388 . S
C1324 C1325 1.366 . S
C1325 C1324 1.366 . S
C1325 C1326 1.414 . S
C1325 C1328 1.499 . S
C1326 H1306 0.950 . S
C1326 C1325 1.414 . S
C1326 C1327 1.374 . S
C1327 H1307 0.950 . S
C1327 C1323 1.385 . S
C1327 C1326 1.374 . S
C1328 C1325 1.499 . S
C1328 C1329 1.373 . S
C1328 C1330 1.389 . S
C1329 H1308 0.950 . S
C1329 C1328 1.373 . S
C1329 C1345 1.377 . S
C1330 C1328 1.389 . S
C1330 C1331 1.524 . S
C1330 C1344 1.377 . S
C1331 C1330 1.524 . S
C1331 C1332 1.397 . S
C1331 C1336 1.363 . S
C1332 H1309 0.950 . S
C1332 C1331 1.397 . S
C1332 C1333 1.334 . S
C1333 H1310 0.950 . S
C1333 C1332 1.334 . S
C1333 C1334 1.287 . S
C1334 C1333 1.287 . S
C1334 C1335 1.524 . S
C1334 H1353 0.913 . S
C1335 H1311 0.950 . S
C1335 C1334 1.524 . S
C1335 C1336 1.415 . S
C1336 H1312 0.950 . S
C1336 C1331 1.363 . S
C1336 C1335 1.415 . S
C1337 H1313 0.951 . S
C1337 C1338 1.366 . S
C1337 C1339 1.388 . S
C1338 C1337 1.366 . S
C1338 C1342 1.385 . S
C1339 H1314 0.951 . S
C1339 C1337 1.388 . S
C1339 C1340 1.366 . S
C1340 C1339 1.366 . S
C1340 C1341 1.414 . S
C1340 C1343 1.499 1_556 S
C1341 H1315 0.950 1_556 S
C1341 C1340 1.414 . S
C1341 C1342 1.374 . S
C1342 H1316 0.950 . S
C1342 C1338 1.385 . S
C1342 C1341 1.374 . S
C1343 C1340 1.499 1_554 S
C1343 C1344 1.373 . S
C1343 C1345 1.389 . S
C1344 H1317 0.950 . S
C1344 C1330 1.377 . S
C1344 C1343 1.373 . S
C1345 C1329 1.377 . S
C1345 C1343 1.389 . S
C1345 C1346 1.524 . S
C1346 C1345 1.524 . S
C1346 C1347 1.397 . S
C1346 C1351 1.363 . S
C1347 H1318 0.950 . S
C1347 C1346 1.397 . S
C1347 C1348 1.334 . S
C1348 H1319 0.950 . S
C1348 C1347 1.334 . S
C1348 C1349 1.287 . S
C1349 C1348 1.287 . S
C1349 C1350 1.532 . S
C1349 H1352 0.999 . S
C1350 H1320 0.937 1_554 S
C1350 C1349 1.532 . S
C1350 C1351 1.424 . S
C1351 H1321 0.950 . S
C1351 C1346 1.363 . S
C1351 C1350 1.424 . S
H1352 C1349 0.999 . S
H1353 C1334 0.913 . S
H1354 C1372 0.951 . S
H1355 C1374 0.951 . S
H1356 C1376 0.950 . S
H1357 C1377 0.950 . S
H1358 C1379 0.950 . S
H1359 C1382 0.950 . S
H1360 C1383 0.950 . S
H1361 C1385 0.950 . S
H1362 C1386 0.950 . S
H1363 C1387 0.951 . S
H1364 C1389 0.951 . S
H1365 C1391 0.950 . S
H1366 C1392 0.950 . S
H1367 C1394 0.950 . S
H1368 C1397 0.950 . S
H1369 C1398 0.950 . S
H1370 C1400 0.950 . S
H1371 C1401 0.950 . S
C1372 H1354 0.951 . S
C1372 C1373 1.366 . S
C1372 C1374 1.388 . S
C1373 C1372 1.366 . S
C1373 C1377 1.385 . S
C1374 H1355 0.951 . S
C1374 C1372 1.388 . S
C1374 C1375 1.366 . S
C1375 C1374 1.366 . S
C1375 C1376 1.414 . S
C1375 C1378 1.499 . S
C1376 H1356 0.950 . S
C1376 C1375 1.414 . S
C1376 C1377 1.374 . S
C1377 H1357 0.950 . S
C1377 C1373 1.385 . S
C1377 C1376 1.374 . S
C1378 C1375 1.499 . S
C1378 C1379 1.373 . S
C1378 C1380 1.389 . S
C1379 H1358 0.950 . S
C1379 C1378 1.373 . S
C1379 C1395 1.377 . S
C1380 C1378 1.389 . S
C1380 C1381 1.524 . S
C1380 C1394 1.377 . S
C1381 C1380 1.524 . S
C1381 C1382 1.397 . S
C1381 C1386 1.363 . S
C1382 H1359 0.950 . S
C1382 C1381 1.397 . S
C1382 C1383 1.334 . S
C1383 H1360 0.950 . S
C1383 C1382 1.334 . S
C1383 C1384 1.287 . S
C1384 C1383 1.287 . S
C1384 C1385 1.524 . S
C1384 H1403 0.913 . S
C1385 H1361 0.950 . S
C1385 C1384 1.524 . S
C1385 C1386 1.415 . S
C1386 H1362 0.950 . S
C1386 C1381 1.363 . S
C1386 C1385 1.415 . S
C1387 H1363 0.951 . S
C1387 C1388 1.366 . S
C1387 C1389 1.388 . S
C1388 C1387 1.366 . S
C1388 C1392 1.385 . S
C1389 H1364 0.951 . S
C1389 C1387 1.388 . S
C1389 C1390 1.366 . S
C1390 C1389 1.366 . S
C1390 C1391 1.414 . S
C1390 C1393 1.499 . S
C1391 H1365 0.950 . S
C1391 C1390 1.414 . S
C1391 C1392 1.374 . S
C1392 H1366 0.950 . S
C1392 C1388 1.385 . S
C1392 C1391 1.374 . S
C1393 C1390 1.499 . S
C1393 C1394 1.373 . S
C1393 C1395 1.389 . S
C1394 H1367 0.950 . S
C1394 C1380 1.377 . S
C1394 C1393 1.373 . S
C1395 C1379 1.377 . S
C1395 C1393 1.389 . S
C1395 C1396 1.524 . S
C1396 C1395 1.524 . S
C1396 C1397 1.397 . S
C1396 C1401 1.363 . S
C1397 H1368 0.950 . S
C1397 C1396 1.397 . S
C1397 C1398 1.334 . S
C1398 H1369 0.950 . S
C1398 C1397 1.334 . S
C1398 C1399 1.287 . S
C1399 C1398 1.287 . S
C1399 C1400 1.524 . S
C1399 H1402 0.999 . S
C1400 H1370 0.950 . S
C1400 C1399 1.524 . S
C1400 C1401 1.415 . S
C1401 H1371 0.950 . S
C1401 C1396 1.363 . S
C1401 C1400 1.415 . S
H1402 C1399 0.999 . S
H1403 C1384 0.913 . S
C238 C201 1.560 . S
C223 C19 1.473 . S
C273 C40 1.452 . S
C288 C126 1.492 . S
C323 C51 1.471 . S
C338 C149 1.587 . S
C373 C72 1.384 . S
C388 C162 1.472 . S
C438 C165 1.522 . S
C423 C103 1.480 . S
C473 C114 1.382 . S
C488 C178 1.446 . S
C523 C30 1.389 . S
C538 C139 1.452 . S
C573 C61 1.482 . S
C588 C152 1.524 . S
C623 C82 1.393 . S
C638 C175 1.467 . S
C688 C188 1.577 . S
C673 C93 1.462 1_554 S
C738 C191 1.489 . S
C723 C124 1.450 . S
C788 C136 1.566 . S
C773 C9 1.462 . S
C823 C17 1.425 . S
C838 C147 1.463 . S
C873 C38 1.404 . S
C888 C160 1.447 . S
C938 C170 1.477 . S
C923 C54 1.423 . S
C973 C75 1.409 . S
C988 C183 1.453 . S
C1038 C199 1.484 . S
C1023 C101 1.440 . S
C1088 C131 1.444 . S
C1073 C117 1.389 . S
C1138 C196 1.443 . S
C1123 C33 1.386 . S
C1173 C59 1.441 . S
C1188 C134 1.485 . S
C1238 C144 1.455 . S
C1223 C80 1.413 . S
C1273 C96 1.425 . S
C1288 C157 1.479 . S
C1323 C122 1.402 . S
C1338 C173 1.446 . S
C1373 C12 1.419 . S
C1388 C186 1.463 . S
