# Generated by pormake.
# Topology ssa, (4,4)-cn, num edge types: 1
# Building blocks:
#     Node 0, Type 0, BuildingBlock: IZENUY_clean_linker_0, # of connection points: 4
#     Node 1, Type 0, BuildingBlock: IZENUY_clean_linker_0, # of connection points: 4
#     Node 2, Type 0, BuildingBlock: IZENUY_clean_linker_0, # of connection points: 4
#     Node 3, Type 0, BuildingBlock: IZENUY_clean_linker_0, # of connection points: 4
#     Node 4, Type 0, BuildingBlock: IZENUY_clean_linker_0, # of connection points: 4
#     Node 5, Type 0, BuildingBlock: IZENUY_clean_linker_0, # of connection points: 4
#     Node 6, Type 1, BuildingBlock: NAWXER_clean_sbu_0, # of connection points: 4
#     Node 7, Type 1, BuildingBlock: NAWXER_clean_sbu_0, # of connection points: 4
#     Node 8, Type 1, BuildingBlock: NAWXER_clean_sbu_0, # of connection points: 4
#     Node 9, Type 1, BuildingBlock: NAWXER_clean_sbu_0, # of connection points: 4
#     Node 10, Type 1, BuildingBlock: NAWXER_clean_sbu_0, # of connection points: 4
#     Node 11, Type 1, BuildingBlock: NAWXER_clean_sbu_0, # of connection points: 4
#     Edge 12, Type (0, 1), BuildingBlock: OJICUG_clean_linker_0, # of connection points: 2
#     Edge 13, Type (0, 1), BuildingBlock: OJICUG_clean_linker_0, # of connection points: 2
#     Edge 14, Type (0, 1), BuildingBlock: OJICUG_clean_linker_0, # of connection points: 2
#     Edge 15, Type (0, 1), BuildingBlock: OJICUG_clean_linker_0, # of connection points: 2
#     Edge 16, Type (0, 1), BuildingBlock: OJICUG_clean_linker_0, # of connection points: 2
#     Edge 17, Type (0, 1), BuildingBlock: OJICUG_clean_linker_0, # of connection points: 2
#     Edge 18, Type (0, 1), BuildingBlock: OJICUG_clean_linker_0, # of connection points: 2
#     Edge 19, Type (0, 1), BuildingBlock: OJICUG_clean_linker_0, # of connection points: 2
#     Edge 20, Type (0, 1), BuildingBlock: OJICUG_clean_linker_0, # of connection points: 2
#     Edge 21, Type (0, 1), BuildingBlock: OJICUG_clean_linker_0, # of connection points: 2
#     Edge 22, Type (0, 1), BuildingBlock: OJICUG_clean_linker_0, # of connection points: 2
#     Edge 23, Type (0, 1), BuildingBlock: OJICUG_clean_linker_0, # of connection points: 2
#     Edge 24, Type (0, 1), BuildingBlock: OJICUG_clean_linker_0, # of connection points: 2
#     Edge 25, Type (0, 1), BuildingBlock: OJICUG_clean_linker_0, # of connection points: 2
#     Edge 26, Type (0, 1), BuildingBlock: OJICUG_clean_linker_0, # of connection points: 2
#     Edge 27, Type (0, 1), BuildingBlock: OJICUG_clean_linker_0, # of connection points: 2
#     Edge 28, Type (0, 1), BuildingBlock: OJICUG_clean_linker_0, # of connection points: 2
#     Edge 29, Type (0, 1), BuildingBlock: OJICUG_clean_linker_0, # of connection points: 2
#     Edge 30, Type (0, 1), BuildingBlock: OJICUG_clean_linker_0, # of connection points: 2
#     Edge 31, Type (0, 1), BuildingBlock: OJICUG_clean_linker_0, # of connection points: 2
#     Edge 32, Type (0, 1), BuildingBlock: OJICUG_clean_linker_0, # of connection points: 2
#     Edge 33, Type (0, 1), BuildingBlock: OJICUG_clean_linker_0, # of connection points: 2
#     Edge 34, Type (0, 1), BuildingBlock: OJICUG_clean_linker_0, # of connection points: 2
#     Edge 35, Type (0, 1), BuildingBlock: OJICUG_clean_linker_0, # of connection points: 2
# Relax obj value: 0.000
# Max RMSD: 0.033
# Mean RMSD: 0.016
data_MOF--net-ssa--node1-NAWXER_clean_sbu_0--node2-IZENUY_clean_linker_0--edge1-OJICUG_clean_linker_0
_symmetry_space_group_name_H-M    P1
_symmetry_Int_Tables_number       1
_symmetry_cell_setting            triclinic
loop_
_symmetry_equiv_pos_as_xyz
'x, y, z'
_cell_length_a     36.816287
_cell_length_b     36.671903
_cell_length_c     29.232664
_cell_angle_alpha  90.763694
_cell_angle_beta   90.854332
_cell_angle_gamma 119.86513
loop_
_atom_site_label
_atom_site_type_symbol
_atom_site_fract_x
_atom_site_fract_y
_atom_site_fract_z
_atom_type_partial_charge
H0 H 0.96643 0.41393 0.99083 0.0
H1 H 0.93708 0.5144 0.99565 0.0
H2 H 0.87685 0.41319 0.89563 0.0
H3 H 0.04246 0.54584 0.09504 0.0
H4 H 0.01537 0.41731 0.10341 0.0
H5 H 0.10053 0.5095 0.20073 0.0
N6 N 0.98357 0.48601 1.03632 0.0
N7 N -0.00294 0.46539 0.05681 0.0
C8 C 0.94983 0.42913 0.97753 0.0
C9 C 0.92172 0.41004 0.94056 0.0
C10 C 0.9562 0.46742 0.99738 0.0
C11 C 0.93334 0.4858 0.97984 0.0
C12 C 0.90389 0.46574 0.94367 0.0
C13 C 0.89927 0.42863 0.92373 0.0
C14 C 0.04611 0.5219 0.11237 0.0
C15 C 0.07463 0.53311 0.15003 0.0
C16 C 0.02425 0.47956 0.09593 0.0
C17 C 0.03092 0.44932 0.11707 0.0
C18 C 0.05776 0.45994 0.15504 0.0
C19 C 0.07891 0.50145 0.17173 0.0
H20 H 0.57107 0.01971 0.59579 0.0
H21 H 0.47255 0.0513 0.60023 0.0
H22 H 0.57745 0.10897 0.6957 0.0
H23 H 0.4352 0.94568 0.49858 0.0
H24 H 0.56274 0.97516 0.47838 0.0
H25 H 0.46546 0.88976 0.3854 0.0
N26 N 0.4978 0.00428 0.55507 0.0
N27 N 0.51724 0.99124 0.5317 0.0
C28 C 0.5569 0.03647 0.61128 0.0
C29 C 0.5778 0.06413 0.64821 0.0
C30 C 0.51822 0.03094 0.59412 0.0
C31 C 0.50134 0.05423 0.61419 0.0
C32 C 0.52322 0.08328 0.65026 0.0
C33 C 0.56058 0.08688 0.66769 0.0
C34 C 0.45816 0.94279 0.4785 0.0
C35 C 0.44514 0.91509 0.43989 0.0
C36 C 0.50111 0.96483 0.49204 0.0
C37 C 0.53012 0.95915 0.46711 0.0
C38 C 0.51763 0.93288 0.42835 0.0
C39 C 0.47533 0.91135 0.4147 0.0
H40 H 0.4883 0.44354 1.0022 0.0
H41 H 0.5909 0.57096 0.99342 0.0
H42 H 0.58845 0.47351 0.90893 0.0
H43 H 0.54166 0.57486 0.10192 0.0
H44 H 0.41264 0.47415 0.09564 0.0
H45 H 0.45419 0.57545 0.19567 0.0
N46 N 0.52209 0.5242 1.03697 0.0
N47 N 0.4881 0.50306 0.0566 0.0
C48 C 0.51706 0.46647 0.98664 0.0
C49 C 0.53609 0.45334 0.95379 0.0
C50 C 0.5369 0.50923 1.00085 0.0
C51 C 0.57507 0.53839 0.9816 0.0
C52 C 0.5935 0.52551 0.94842 0.0
C53 C 0.57373 0.48329 0.93447 0.0
C54 C 0.51004 0.55966 0.11454 0.0
C55 C 0.50145 0.57854 0.15121 0.0
C56 C 0.47841 0.52161 0.09434 0.0
C57 C 0.43738 0.50289 0.11148 0.0
C58 C 0.42825 0.52276 0.14775 0.0
C59 C 0.46082 0.55996 0.16779 0.0
H60 H 0.04207 0.49406 0.49875 0.0
H61 H 0.02482 0.60219 0.49559 0.0
H62 H 0.11938 0.59991 0.41474 0.0
H63 H 0.9552 0.54587 0.58777 0.0
H64 H 0.93464 0.41894 0.58657 0.0
H65 H 0.857 0.45195 0.66599 0.0
N66 N -0.00318 0.53002 0.5327 0.0
N67 N 0.9816 0.49501 0.55088 0.0
C68 C 0.05054 0.52473 0.48574 0.0
C69 C 0.08397 0.54456 0.45503 0.0
C70 C 0.02921 0.54592 0.5004 0.0
C71 C 0.04083 0.58583 0.48392 0.0
C72 C 0.07332 0.60514 0.4535 0.0
C73 C 0.09439 0.58446 0.43892 0.0
C74 C 0.93834 0.51364 0.59892 0.0
C75 C 0.90498 0.50197 0.62833 0.0
C76 C 0.94921 0.48368 0.5832 0.0
C77 C 0.92662 0.44207 0.59854 0.0
C78 C 0.89267 0.43016 0.62794 0.0
C79 C 0.88255 0.46051 0.64269 0.0
H80 H 0.44694 0.03087 0.99989 0.0
H81 H 0.57288 0.05112 0.99206 0.0
H82 H 0.5386 0.13394 0.9248 0.0
H83 H 0.50343 0.94025 0.07449 0.0
H84 H 0.38896 0.94556 0.07867 0.0
H85 H 0.39723 0.84788 0.14787 0.0
N86 N 0.49811 0.00127 1.02777 0.0
N87 N 0.4628 0.98264 0.045 0.0
C88 C 0.47877 0.04861 0.98812 0.0
C89 C 0.48985 0.084 0.96174 0.0
C90 C 0.50882 0.03659 0.99965 0.0
C91 C 0.54983 0.06022 0.98342 0.0
C92 C 0.56114 0.09602 0.95691 0.0
C93 C 0.53074 0.10723 0.94628 0.0
C94 C 0.47151 0.92749 0.08556 0.0
C95 C 0.45288 0.89086 0.11221 0.0
C96 C 0.44786 0.94691 0.073 0.0
C97 C 0.40681 0.93043 0.08801 0.0
C98 C 0.38838 0.89444 0.11413 0.0
C99 C 0.41145 0.87503 0.1261 0.0
H100 H 0.40899 0.46347 0.51213 0.0
H101 H 0.52041 0.58592 0.50451 0.0
H102 H 0.4066 0.55792 0.43097 0.0
H103 H 0.54995 0.5078 0.59254 0.0
H104 H 0.4243 0.40225 0.60057 0.0
H105 H 0.52529 0.40047 0.67291 0.0
N106 N 0.48864 0.50986 0.54385 0.0
N107 N 0.46825 0.47514 0.56259 0.0
C108 C 0.42535 0.49527 0.49965 0.0
C109 C 0.40358 0.50812 0.471 0.0
C110 C 0.46751 0.52323 0.51273 0.0
C111 C 0.48797 0.56431 0.495 0.0
C112 C 0.4658 0.57749 0.46587 0.0
C113 C 0.42377 0.54885 0.45427 0.0
C114 C 0.52821 0.47713 0.60551 0.0
C115 C 0.54297 0.45628 0.63398 0.0
C116 C 0.48518 0.45737 0.59316 0.0
C117 C 0.45727 0.4175 0.61019 0.0
C118 C 0.47183 0.39684 0.63845 0.0
C119 C 0.51441 0.41643 0.65023 0.0
C120 C 0.25274 0.43523 0.37274 0.0
C121 C 0.15071 0.40921 0.25154 0.0
O122 O 0.22487 0.39913 0.35772 0.0
Zn123 Zn 0.20254 0.42037 0.31055 0.0
O124 O 0.25717 0.46849 0.35409 0.0
Zn125 Zn 0.23027 0.48616 0.30091 0.0
O126 O 0.2126 0.51954 0.33464 0.0
O127 O 0.17623 0.45222 0.35115 0.0
O128 O 0.17718 0.44814 0.25887 0.0
O129 O 0.15342 0.38109 0.27378 0.0
O130 O 0.25369 0.44602 0.2621 0.0
O131 O 0.27472 0.51358 0.25842 0.0
C132 C 0.18358 0.49016 0.35684 0.0
C133 C 0.27831 0.48232 0.24563 0.0
C134 C 0.79324 0.28093 0.72829 0.0
C135 C 0.70767 0.19528 0.85237 0.0
O136 O 0.76225 0.28081 0.74695 0.0
Zn137 Zn 0.75041 0.23808 0.79027 0.0
O138 O 0.80469 0.25473 0.74122 0.0
Zn139 Zn 0.78403 0.20483 0.79088 0.0
O140 O 0.76359 0.15355 0.75266 0.0
O141 O 0.72387 0.18294 0.74827 0.0
O142 O 0.7341 0.18409 0.84 0.0
O143 O 0.70746 0.22605 0.83321 0.0
O144 O 0.8052 0.26554 0.83258 0.0
O145 O 0.83473 0.22583 0.82989 0.0
C146 C 0.73131 0.15363 0.73665 0.0
C147 C 0.83443 0.25836 0.84501 0.0
C148 C 0.57896 0.84608 0.33199 0.0
C149 C 0.57399 0.73512 0.23502 0.0
O150 O 0.61079 0.84417 0.31897 0.0
Zn151 Zn 0.57859 0.7916 0.28364 0.0
O152 O 0.54196 0.81668 0.32125 0.0
Zn153 Zn 0.51182 0.75901 0.28432 0.0
O154 O 0.48262 0.71907 0.33127 0.0
O155 O 0.55092 0.74446 0.33653 0.0
O156 O 0.53809 0.72902 0.24653 0.0
O157 O 0.60721 0.76848 0.24781 0.0
O158 O 0.54854 0.81091 0.23165 0.0
O159 O 0.48036 0.76931 0.23821 0.0
C160 C 0.51392 0.71941 0.3507 0.0
C161 C 0.51083 0.7994 0.21836 0.0
C162 C 0.79462 0.50925 0.84666 0.0
C163 C 0.69728 0.50747 0.73079 0.0
O164 O 0.76168 0.47822 0.82939 0.0
Zn165 Zn 0.74553 0.50839 0.78908 0.0
O166 O 0.80528 0.54666 0.83416 0.0
Zn167 Zn 0.78077 0.57519 0.78716 0.0
O168 O 0.76567 0.60853 0.82764 0.0
O169 O 0.72565 0.53983 0.83463 0.0
O170 O 0.72579 0.54531 0.74139 0.0
O171 O 0.69756 0.4768 0.75012 0.0
O172 O 0.79384 0.53261 0.7411 0.0
O173 O 0.8274 0.60209 0.74464 0.0
C174 C 0.73528 0.57734 0.84632 0.0
C175 C 0.82267 0.56799 0.72713 0.0
C176 C 0.24887 0.81463 0.22349 0.0
C177 C 0.16253 0.74476 0.35311 0.0
O178 O 0.22191 0.82252 0.24061 0.0
Zn179 Zn 0.2057 0.78138 0.28887 0.0
O180 O 0.25641 0.78745 0.24157 0.0
Zn181 Zn 0.23634 0.74567 0.29654 0.0
O182 O 0.21587 0.69264 0.26489 0.0
O183 O 0.17673 0.7213 0.25023 0.0
O184 O 0.189 0.73299 0.34375 0.0
O185 O 0.16046 0.77248 0.32937 0.0
O186 O 0.26168 0.81052 0.3339 0.0
O187 O 0.28545 0.76601 0.33533 0.0
C188 C 0.18438 0.69096 0.24434 0.0
C189 C 0.28879 0.80072 0.34849 0.0
C190 C 0.4871 0.29624 0.8621 0.0
C191 C 0.48453 0.19537 0.75016 0.0
O192 O 0.51749 0.29482 0.84389 0.0
Zn193 Zn 0.48593 0.24586 0.80612 0.0
O194 O 0.44933 0.26781 0.85153 0.0
Zn195 Zn 0.41921 0.21184 0.80715 0.0
O196 O 0.39142 0.16549 0.85034 0.0
O197 O 0.46054 0.19808 0.85476 0.0
O198 O 0.44733 0.1858 0.76171 0.0
O199 O 0.51578 0.22806 0.76763 0.0
O200 O 0.45601 0.26515 0.75788 0.0
O201 O 0.38733 0.22729 0.76457 0.0
C202 C 0.42496 0.1697 0.86857 0.0
C203 C 0.41911 0.25631 0.74511 0.0
C204 C 0.05898 0.41744 0.21981 0.0
C205 C 0.06863 0.4297 0.17438 0.0
H206 H 0.07708 0.39761 0.28024 0.0
C207 C 0.09728 0.42174 0.15148 0.0
H208 H 0.03724 0.42378 0.23804 0.0
C209 C 0.12032 0.40716 0.17569 0.0
C210 C 0.1143 0.39983 0.22265 0.0
H211 H 0.1054 0.43152 0.11653 0.0
H212 H 0.14628 0.40673 0.15919 0.0
C213 C 0.08141 0.40202 0.24372 0.0
C214 C 0.62568 0.06429 0.70925 0.0
C215 C 0.61999 0.07394 0.66435 0.0
H216 H 0.66766 0.08165 0.76736 0.0
C217 C 0.65501 0.10276 0.64013 0.0
H218 H 0.59891 0.04276 0.72878 0.0
C219 C 0.69424 0.12531 0.66234 0.0
C220 C 0.69897 0.11868 0.70869 0.0
H221 H 0.6511 0.11129 0.6058 0.0
H222 H 0.71967 0.15094 0.64478 0.0
C223 C 0.66503 0.08636 0.7312 0.0
C224 C 0.54368 0.62444 0.2171 0.0
C225 C 0.53365 0.61976 0.17017 0.0
H226 H 0.56773 0.66711 0.27468 0.0
C227 C 0.54851 0.65561 0.14323 0.0
H228 H 0.5324 0.59709 0.23837 0.0
C229 C 0.56863 0.69568 0.16402 0.0
C230 C 0.5746 0.70003 0.21168 0.0
H231 H 0.54075 0.65251 0.10696 0.0
H232 H 0.57518 0.72265 0.14363 0.0
C233 C 0.56437 0.66443 0.23768 0.0
C234 C 0.85227 0.5251 0.62822 0.0
C235 C 0.89139 0.53173 0.64362 0.0
H236 H 0.8 0.53336 0.64271 0.0
C237 C 0.91199 0.55969 0.68072 0.0
H238 H 0.83573 0.50329 0.59998 0.0
C239 C 0.89162 0.57727 0.70505 0.0
C240 C 0.85053 0.5668 0.69246 0.0
H241 H 0.94191 0.56462 0.6935 0.0
H242 H 0.90604 0.59504 0.73645 0.0
C243 C 0.83198 0.54247 0.65249 0.0
C244 C 0.3355 0.90123 0.1606 0.0
C245 C 0.3455 0.87714 0.13103 0.0
H246 H 0.29493 0.8996 0.21359 0.0
C247 C 0.31702 0.83412 0.12443 0.0
H248 H 0.35721 0.93449 0.16618 0.0
C249 C 0.2817 0.81443 0.15114 0.0
C250 C 0.2743 0.83751 0.18469 0.0
H251 H 0.32402 0.81511 0.10145 0.0
H252 H 0.26232 0.78049 0.14862 0.0
C253 C 0.29985 0.88139 0.18744 0.0
C254 C 0.41952 0.34918 0.69433 0.0
C255 C 0.44399 0.35436 0.65592 0.0
H256 H 0.39064 0.31185 0.75309 0.0
C257 C 0.45026 0.32128 0.64163 0.0
H258 H 0.41499 0.37467 0.70635 0.0
C259 C 0.43639 0.2856 0.66813 0.0
C260 C 0.41588 0.28233 0.70923 0.0
H261 H 0.46949 0.32489 0.61244 0.0
H262 H 0.44549 0.26258 0.65897 0.0
C263 C 0.40543 0.31319 0.7209 0.0
C264 C 0.56694 0.90483 0.42836 0.0
C265 C 0.54735 0.9237 0.40461 0.0
H266 H 0.59433 0.86527 0.42271 0.0
C267 C 0.54996 0.92636 0.35687 0.0
H268 H 0.56499 0.90225 0.46523 0.0
C269 C 0.56754 0.90612 0.33284 0.0
C270 C 0.58229 0.8827 0.35622 0.0
H271 H 0.53513 0.94086 0.33799 0.0
H272 H 0.56505 0.90461 0.29578 0.0
C273 C 0.58412 0.8841 0.40417 0.0
C274 C 0.67015 0.55373 0.94899 0.0
C275 C 0.63515 0.55425 0.93018 0.0
H276 H 0.73111 0.56232 0.93657 0.0
C277 C 0.63832 0.57275 0.88761 0.0
H278 H 0.66797 0.53876 0.98135 0.0
C279 C 0.67473 0.58682 0.86225 0.0
C280 C 0.70802 0.58208 0.87908 0.0
H281 H 0.6113 0.57255 0.87212 0.0
H282 H 0.67489 0.59683 0.8275 0.0
C283 C 0.70629 0.56736 0.9235 0.0
C284 C 0.06923 0.65392 0.39822 0.0
C285 C 0.0875 0.64791 0.43774 0.0
H286 H 0.07927 0.69258 0.34009 0.0
C287 C 0.12551 0.68084 0.45537 0.0
H288 H 0.04008 0.6285 0.38398 0.0
C289 C 0.14771 0.71735 0.43055 0.0
C290 C 0.13207 0.72112 0.3879 0.0
H291 H 0.14012 0.67647 0.48567 0.0
H292 H 0.17932 0.74017 0.44183 0.0
C293 C 0.09142 0.69068 0.37342 0.0
C294 C 0.46765 0.13758 0.96549 0.0
C295 C 0.45978 0.09808 0.94928 0.0
H296 H 0.4608 0.19116 0.95263 0.0
C297 C 0.43064 0.07803 0.91302 0.0
H298 H 0.49036 0.15375 0.99308 0.0
C299 C 0.41336 0.09941 0.88997 0.0
C300 C 0.42532 0.14098 0.90297 0.0
H301 H 0.42469 0.04784 0.89956 0.0
H302 H 0.3948 0.08541 0.85892 0.0
C303 C 0.45058 0.15887 0.94249 0.0
C304 C 0.32983 0.49177 0.46653 0.0
C305 C 0.35949 0.47949 0.45746 0.0
H306 H 0.27077 0.48534 0.44702 0.0
C307 C 0.34853 0.44447 0.42849 0.0
H308 H 0.33774 0.5186 0.48897 0.0
C309 C 0.30997 0.42518 0.40456 0.0
C310 C 0.2825 0.441 0.40968 0.0
H311 H 0.37124 0.43474 0.42103 0.0
H312 H 0.3038 0.40131 0.37859 0.0
C313 C 0.29154 0.47259 0.44282 0.0
C314 C 0.92058 0.36546 0.87509 0.0
C315 C 0.91192 0.36866 0.92108 0.0
H316 H 0.90321 0.32595 0.81479 0.0
C317 C 0.88482 0.33199 0.94427 0.0
H318 H 0.94083 0.3935 0.85643 0.0
C319 C 0.86308 0.29338 0.92036 0.0
C320 C 0.86879 0.29101 0.87328 0.0
H321 H 0.8771 0.33397 0.9795 0.0
H322 H 0.83877 0.26645 0.93752 0.0
C323 C 0.89928 0.32681 0.85139 0.0
C324 C 0.83233 0.45206 0.92289 0.0
C325 C 0.87549 0.48085 0.92721 0.0
H326 H 0.77309 0.43852 0.8943 0.0
C327 C 0.89112 0.52138 0.90995 0.0
H328 H 0.81938 0.42075 0.93643 0.0
C329 C 0.86437 0.53173 0.88575 0.0
C330 C 0.82174 0.5016 0.87842 0.0
H331 H 0.92429 0.54405 0.91271 0.0
H332 H 0.87751 0.56243 0.87065 0.0
C333 C 0.80583 0.46221 0.89865 0.0
C334 C 0.37599 0.90134 0.40562 0.0
C335 C 0.40047 0.88634 0.42653 0.0
H336 H 0.32101 0.88591 0.36446 0.0
C337 C 0.38533 0.84278 0.42596 0.0
H338 H 0.38729 0.93482 0.40491 0.0
C339 C 0.34816 0.81504 0.40236 0.0
C340 C 0.32483 0.83002 0.37882 0.0
H341 H 0.40374 0.83041 0.44154 0.0
H342 H 0.33856 0.78191 0.40111 0.0
C343 C 0.33829 0.87334 0.38214 0.0
C344 C 0.54633 0.39217 0.93892 0.0
C345 C 0.51907 0.40863 0.9398 0.0
H346 H 0.55756 0.34385 0.91356 0.0
C347 C 0.47854 0.38461 0.92053 0.0
H348 H 0.57759 0.40981 0.95408 0.0
C349 C 0.46684 0.34634 0.89747 0.0
C350 C 0.49571 0.33197 0.89316 0.0
H351 H 0.45703 0.39671 0.92061 0.0
H352 H 0.4363 0.32948 0.88058 0.0
C353 C 0.53493 0.35449 0.91558 0.0
C354 C 0.15327 0.5516 0.43695 0.0
C355 C 0.10947 0.52576 0.43886 0.0
H356 H 0.21057 0.56086 0.40901 0.0
C357 C 0.0908 0.48531 0.41838 0.0
H358 H 0.16878 0.58266 0.45302 0.0
C359 C 0.11519 0.47244 0.39362 0.0
C360 C 0.15839 0.50009 0.38849 0.0
H361 H 0.05717 0.46478 0.41903 0.0
H362 H 0.09987 0.44198 0.37622 0.0
C363 C 0.17727 0.53921 0.4116 0.0
C364 C 0.62201 0.16584 0.93741 0.0
C365 C 0.60382 0.1218 0.93834 0.0
H366 H 0.66884 0.22344 0.90921 0.0
C367 C 0.62399 0.10288 0.91593 0.0
H368 H 0.60783 0.18153 0.95522 0.0
C369 C 0.65967 0.12722 0.89015 0.0
C370 C 0.67536 0.17071 0.88604 0.0
H371 H 0.61071 0.06907 0.91587 0.0
H372 H 0.67326 0.11162 0.87109 0.0
C373 C 0.65701 0.18991 0.91114 0.0
C374 C 0.52178 0.63661 0.42059 0.0
C375 C 0.48475 0.62013 0.44558 0.0
H376 H 0.56037 0.68148 0.37091 0.0
C377 C 0.46126 0.6409 0.44398 0.0
H378 H 0.54039 0.62121 0.4208 0.0
C379 C 0.47193 0.67437 0.4147 0.0
C380 C 0.50709 0.68888 0.38711 0.0
H381 H 0.43288 0.62943 0.46332 0.0
H382 H 0.4517 0.68792 0.41241 0.0
C383 C 0.53302 0.67092 0.39179 0.0
C384 C 0.46959 0.09789 0.68577 0.0
C385 C 0.50987 0.11255 0.66874 0.0
H386 H 0.42975 0.11284 0.72522 0.0
C387 C 0.53976 0.15548 0.67413 0.0
H388 H 0.44604 0.06495 0.6821 0.0
C389 C 0.53078 0.18257 0.699 0.0
C390 C 0.49149 0.16757 0.7187 0.0
H391 H 0.57086 0.1678 0.66062 0.0
H392 H 0.55517 0.21508 0.70393 0.0
C393 C 0.46042 0.12527 0.71056 0.0
C394 C 0.37002 0.53614 0.16657 0.0
C395 C 0.38509 0.50767 0.16434 0.0
H396 H 0.32482 0.55045 0.19355 0.0
C397 C 0.36182 0.46832 0.18465 0.0
H398 H 0.38721 0.56665 0.15108 0.0
C399 C 0.32569 0.4589 0.20931 0.0
C400 C 0.31242 0.48877 0.21415 0.0
H401 H 0.37292 0.44597 0.18382 0.0
H402 H 0.30948 0.42916 0.22648 0.0
C403 C 0.33432 0.5269 0.19117 0.0
C404 C 0.88562 0.36567 0.66577 0.0
C405 C 0.86695 0.38658 0.64442 0.0
H406 H 0.87658 0.31516 0.70922 0.0
C407 C 0.82312 0.36845 0.64517 0.0
H408 H 0.9193 0.379 0.66587 0.0
C409 C 0.79893 0.33266 0.67044 0.0
C410 C 0.81786 0.31361 0.69486 0.0
H411 H 0.80776 0.38346 0.62832 0.0
H412 H 0.76556 0.32093 0.67242 0.0
C413 C 0.86117 0.32927 0.6907 0.0
C414 C 0.51275 0.88983 0.15435 0.0
C415 C 0.47513 0.86857 0.12843 0.0
H416 H 0.55401 0.88428 0.20313 0.0
C417 C 0.45375 0.82426 0.12662 0.0
H418 H 0.52972 0.92386 0.15679 0.0
C419 C 0.46677 0.80179 0.15404 0.0
C420 C 0.50231 0.82296 0.18291 0.0
H421 H 0.4249 0.80692 0.10659 0.0
H422 H 0.44789 0.7678 0.15422 0.0
C423 C 0.52643 0.86713 0.18114 0.0
C424 C 0.60923 0.51459 0.67057 0.0
C425 C 0.58762 0.47485 0.64858 0.0
H426 H 0.66167 0.55644 0.71406 0.0
C427 C 0.60612 0.4493 0.64804 0.0
H428 H 0.59559 0.5348 0.6717 0.0
C429 C 0.64303 0.46108 0.67295 0.0
C430 C 0.66286 0.49915 0.69811 0.0
H431 H 0.59047 0.41877 0.63075 0.0
H432 H 0.65511 0.43952 0.67406 0.0
C433 C 0.64683 0.52679 0.69501 0.0
C434 C 0.146 0.59121 0.17281 0.0
C435 C 0.1031 0.57741 0.16609 0.0
H436 H 0.20476 0.6372 0.20283 0.0
C437 C 0.08782 0.60374 0.18105 0.0
H438 H 0.15889 0.57191 0.16117 0.0
C439 C 0.11453 0.64181 0.20489 0.0
C440 C 0.15676 0.65382 0.21443 0.0
H441 H 0.05491 0.59385 0.17658 0.0
H442 H 0.10166 0.66072 0.21777 0.0
C443 C 0.17231 0.6286 0.19692 0.0
loop_
_geom_bond_atom_site_label_1
_geom_bond_atom_site_label_2
_geom_bond_distance
_geom_bond_site_symmetry_2
_ccdc_geom_bond_type
H0 C8 0.940 . S
H1 C11 0.940 . S
H2 C13 0.940 . S
H3 C14 0.940 . S
H4 C17 0.940 . S
H5 C19 0.940 . S
N6 N7 1.190 . S
N6 C10 1.477 1_554 S
N7 N6 1.190 . S
N7 C16 1.477 1_655 S
C8 H0 0.940 . S
C8 C9 1.390 . S
C8 C10 1.322 . S
C9 C8 1.390 . S
C9 C13 1.370 . S
C10 N6 1.477 1_556 S
C10 C8 1.322 . S
C10 C11 1.447 . S
C11 H1 0.940 . S
C11 C10 1.447 . S
C11 C12 1.373 . S
C12 C11 1.373 . S
C12 C13 1.417 . S
C13 H2 0.940 . S
C13 C9 1.370 . S
C13 C12 1.417 . S
C14 H3 0.940 . S
C14 C15 1.390 . S
C14 C16 1.322 . S
C15 C14 1.390 . S
C15 C19 1.370 . S
C16 N7 1.477 1_455 S
C16 C14 1.322 . S
C16 C17 1.447 . S
C17 H4 0.940 . S
C17 C16 1.447 . S
C17 C18 1.373 . S
C18 C17 1.373 . S
C18 C19 1.417 . S
C19 H5 0.940 . S
C19 C15 1.370 . S
C19 C18 1.417 . S
H20 C28 0.940 . S
H21 C31 0.940 . S
H22 C33 0.940 . S
H23 C34 0.940 . S
H24 C37 0.940 . S
H25 C39 0.940 . S
N26 N27 1.190 . S
N26 C30 1.477 . S
N27 N26 1.190 . S
N27 C36 1.477 1_545 S
C28 H20 0.940 . S
C28 C29 1.390 . S
C28 C30 1.322 . S
C29 C28 1.390 . S
C29 C33 1.370 . S
C30 N26 1.477 . S
C30 C28 1.322 . S
C30 C31 1.447 . S
C31 H21 0.940 . S
C31 C30 1.447 . S
C31 C32 1.373 . S
C32 C31 1.373 . S
C32 C33 1.417 . S
C33 H22 0.940 . S
C33 C29 1.370 . S
C33 C32 1.417 . S
C34 H23 0.940 . S
C34 C35 1.390 . S
C34 C36 1.322 . S
C35 C34 1.390 . S
C35 C39 1.370 . S
C36 N27 1.477 1_565 S
C36 C34 1.322 . S
C36 C37 1.447 . S
C37 H24 0.940 . S
C37 C36 1.447 . S
C37 C38 1.373 . S
C38 C37 1.373 . S
C38 C39 1.417 . S
C39 H25 0.940 . S
C39 C35 1.370 . S
C39 C38 1.417 . S
H40 C48 0.940 . S
H41 C51 0.940 . S
H42 C53 0.940 . S
H43 C54 0.940 . S
H44 C57 0.940 . S
H45 C59 0.940 . S
N46 N47 1.190 . S
N46 C50 1.477 . S
N47 N46 1.190 . S
N47 C56 1.477 1_556 S
C48 H40 0.940 . S
C48 C49 1.390 . S
C48 C50 1.322 . S
C49 C48 1.390 . S
C49 C53 1.370 . S
C50 N46 1.477 . S
C50 C48 1.322 . S
C50 C51 1.447 . S
C51 H41 0.940 . S
C51 C50 1.447 . S
C51 C52 1.373 . S
C52 C51 1.373 . S
C52 C53 1.417 . S
C53 H42 0.940 . S
C53 C49 1.370 . S
C53 C52 1.417 . S
C54 H43 0.940 . S
C54 C55 1.390 . S
C54 C56 1.322 . S
C55 C54 1.390 . S
C55 C59 1.370 . S
C56 N47 1.477 1_554 S
C56 C54 1.322 . S
C56 C57 1.447 . S
C57 H44 0.940 . S
C57 C56 1.447 . S
C57 C58 1.373 . S
C58 C57 1.373 . S
C58 C59 1.417 . S
C59 H45 0.940 . S
C59 C55 1.370 . S
C59 C58 1.417 . S
H60 C68 0.940 . S
H61 C71 0.940 . S
H62 C73 0.940 . S
H63 C74 0.940 . S
H64 C77 0.940 . S
H65 C79 0.940 . S
N66 N67 1.190 . S
N66 C70 1.477 1_655 S
N67 N66 1.190 . S
N67 C76 1.477 . S
C68 H60 0.940 . S
C68 C69 1.390 . S
C68 C70 1.322 . S
C69 C68 1.390 . S
C69 C73 1.370 . S
C70 N66 1.477 1_455 S
C70 C68 1.322 . S
C70 C71 1.447 . S
C71 H61 0.940 . S
C71 C70 1.447 . S
C71 C72 1.373 . S
C72 C71 1.373 . S
C72 C73 1.417 . S
C73 H62 0.940 . S
C73 C69 1.370 . S
C73 C72 1.417 . S
C74 H63 0.940 . S
C74 C75 1.390 . S
C74 C76 1.322 . S
C75 C74 1.390 . S
C75 C79 1.370 . S
C76 N67 1.477 . S
C76 C74 1.322 . S
C76 C77 1.447 . S
C77 H64 0.940 . S
C77 C76 1.447 . S
C77 C78 1.373 . S
C78 C77 1.373 . S
C78 C79 1.417 . S
C79 H65 0.940 . S
C79 C75 1.370 . S
C79 C78 1.417 . S
H80 C88 0.940 . S
H81 C91 0.940 . S
H82 C93 0.940 . S
H83 C94 0.940 . S
H84 C97 0.940 . S
H85 C99 0.940 . S
N86 N87 1.190 . S
N86 C90 1.477 1_554 S
N87 N86 1.190 . S
N87 C96 1.477 1_545 S
C88 H80 0.940 . S
C88 C89 1.390 . S
C88 C90 1.322 . S
C89 C88 1.390 . S
C89 C93 1.370 . S
C90 N86 1.477 1_556 S
C90 C88 1.322 . S
C90 C91 1.447 . S
C91 H81 0.940 . S
C91 C90 1.447 . S
C91 C92 1.373 . S
C92 C91 1.373 . S
C92 C93 1.417 . S
C93 H82 0.940 . S
C93 C89 1.370 . S
C93 C92 1.417 . S
C94 H83 0.940 . S
C94 C95 1.390 . S
C94 C96 1.322 . S
C95 C94 1.390 . S
C95 C99 1.370 . S
C96 N87 1.477 1_565 S
C96 C94 1.322 . S
C96 C97 1.447 . S
C97 H84 0.940 . S
C97 C96 1.447 . S
C97 C98 1.373 . S
C98 C97 1.373 . S
C98 C99 1.417 . S
C99 H85 0.940 . S
C99 C95 1.370 . S
C99 C98 1.417 . S
H100 C108 0.940 . S
H101 C111 0.940 . S
H102 C113 0.940 . S
H103 C114 0.940 . S
H104 C117 0.940 . S
H105 C119 0.940 . S
N106 N107 1.190 . S
N106 C110 1.477 . S
N107 N106 1.190 . S
N107 C116 1.477 . S
C108 H100 0.940 . S
C108 C109 1.390 . S
C108 C110 1.322 . S
C109 C108 1.390 . S
C109 C113 1.370 . S
C110 N106 1.477 . S
C110 C108 1.322 . S
C110 C111 1.447 . S
C111 H101 0.940 . S
C111 C110 1.447 . S
C111 C112 1.373 . S
C112 C111 1.373 . S
C112 C113 1.417 . S
C113 H102 0.940 . S
C113 C109 1.370 . S
C113 C112 1.417 . S
C114 H103 0.940 . S
C114 C115 1.390 . S
C114 C116 1.322 . S
C115 C114 1.390 . S
C115 C119 1.370 . S
C116 N107 1.477 . S
C116 C114 1.322 . S
C116 C117 1.447 . S
C117 H104 0.940 . S
C117 C116 1.447 . S
C117 C118 1.373 . S
C118 C117 1.373 . S
C118 C119 1.417 . S
C119 H105 0.940 . S
C119 C115 1.370 . S
C119 C118 1.417 . S
C120 O122 1.247 . S
C120 O124 1.258 . S
C121 O128 1.247 . S
C121 O129 1.258 . S
O122 C120 1.247 . S
O122 Zn123 2.028 . S
Zn123 O122 2.028 . S
Zn123 O127 2.035 . S
Zn123 O129 2.035 . S
Zn123 O130 2.028 . S
O124 C120 1.258 . S
O124 Zn125 2.035 . S
Zn125 O124 2.035 . S
Zn125 O126 2.028 . S
Zn125 O128 2.028 . S
Zn125 O131 2.035 . S
O126 Zn125 2.028 . S
O126 C132 1.247 . S
O127 Zn123 2.035 . S
O127 C132 1.258 . S
O128 C121 1.247 . S
O128 Zn125 2.028 . S
O129 C121 1.258 . S
O129 Zn123 2.035 . S
O130 Zn123 2.028 . S
O130 C133 1.247 . S
O131 Zn125 2.035 . S
O131 C133 1.258 . S
C132 O126 1.247 . S
C132 O127 1.258 . S
C133 O130 1.247 . S
C133 O131 1.258 . S
C134 O136 1.247 . S
C134 O138 1.258 . S
C135 O142 1.247 . S
C135 O143 1.258 . S
O136 C134 1.247 . S
O136 Zn137 2.028 . S
Zn137 O136 2.028 . S
Zn137 O141 2.035 . S
Zn137 O143 2.035 . S
Zn137 O144 2.028 . S
O138 C134 1.258 . S
O138 Zn139 2.035 . S
Zn139 O138 2.035 . S
Zn139 O140 2.028 . S
Zn139 O142 2.028 . S
Zn139 O145 2.035 . S
O140 Zn139 2.028 . S
O140 C146 1.247 . S
O141 Zn137 2.035 . S
O141 C146 1.258 . S
O142 C135 1.247 . S
O142 Zn139 2.028 . S
O143 C135 1.258 . S
O143 Zn137 2.035 . S
O144 Zn137 2.028 . S
O144 C147 1.247 . S
O145 Zn139 2.035 . S
O145 C147 1.258 . S
C146 O140 1.247 . S
C146 O141 1.258 . S
C147 O144 1.247 . S
C147 O145 1.258 . S
C148 O150 1.247 . S
C148 O152 1.258 . S
C149 O156 1.247 . S
C149 O157 1.258 . S
O150 C148 1.247 . S
O150 Zn151 2.028 . S
Zn151 O150 2.028 . S
Zn151 O155 2.035 . S
Zn151 O157 2.035 . S
Zn151 O158 2.028 . S
O152 C148 1.258 . S
O152 Zn153 2.035 . S
Zn153 O152 2.035 . S
Zn153 O154 2.028 . S
Zn153 O156 2.028 . S
Zn153 O159 2.035 . S
O154 Zn153 2.028 . S
O154 C160 1.247 . S
O155 Zn151 2.035 . S
O155 C160 1.258 . S
O156 C149 1.247 . S
O156 Zn153 2.028 . S
O157 C149 1.258 . S
O157 Zn151 2.035 . S
O158 Zn151 2.028 . S
O158 C161 1.247 . S
O159 Zn153 2.035 . S
O159 C161 1.258 . S
C160 O154 1.247 . S
C160 O155 1.258 . S
C161 O158 1.247 . S
C161 O159 1.258 . S
C162 O164 1.247 . S
C162 O166 1.258 . S
C163 O170 1.247 . S
C163 O171 1.258 . S
O164 C162 1.247 . S
O164 Zn165 2.028 . S
Zn165 O164 2.028 . S
Zn165 O169 2.035 . S
Zn165 O171 2.035 . S
Zn165 O172 2.028 . S
O166 C162 1.258 . S
O166 Zn167 2.035 . S
Zn167 O166 2.035 . S
Zn167 O168 2.028 . S
Zn167 O170 2.028 . S
Zn167 O173 2.035 . S
O168 Zn167 2.028 . S
O168 C174 1.247 . S
O169 Zn165 2.035 . S
O169 C174 1.258 . S
O170 C163 1.247 . S
O170 Zn167 2.028 . S
O171 C163 1.258 . S
O171 Zn165 2.035 . S
O172 Zn165 2.028 . S
O172 C175 1.247 . S
O173 Zn167 2.035 . S
O173 C175 1.258 . S
C174 O168 1.247 . S
C174 O169 1.258 . S
C175 O172 1.247 . S
C175 O173 1.258 . S
C176 O178 1.247 . S
C176 O180 1.258 . S
C177 O184 1.247 . S
C177 O185 1.258 . S
O178 C176 1.247 . S
O178 Zn179 2.028 . S
Zn179 O178 2.028 . S
Zn179 O183 2.035 . S
Zn179 O185 2.035 . S
Zn179 O186 2.028 . S
O180 C176 1.258 . S
O180 Zn181 2.035 . S
Zn181 O180 2.035 . S
Zn181 O182 2.028 . S
Zn181 O184 2.028 . S
Zn181 O187 2.035 . S
O182 Zn181 2.028 . S
O182 C188 1.247 . S
O183 Zn179 2.035 . S
O183 C188 1.258 . S
O184 C177 1.247 . S
O184 Zn181 2.028 . S
O185 C177 1.258 . S
O185 Zn179 2.035 . S
O186 Zn179 2.028 . S
O186 C189 1.247 . S
O187 Zn181 2.035 . S
O187 C189 1.258 . S
C188 O182 1.247 . S
C188 O183 1.258 . S
C189 O186 1.247 . S
C189 O187 1.258 . S
C190 O192 1.247 . S
C190 O194 1.258 . S
C191 O198 1.247 . S
C191 O199 1.258 . S
O192 C190 1.247 . S
O192 Zn193 2.028 . S
Zn193 O192 2.028 . S
Zn193 O197 2.035 . S
Zn193 O199 2.035 . S
Zn193 O200 2.028 . S
O194 C190 1.258 . S
O194 Zn195 2.035 . S
Zn195 O194 2.035 . S
Zn195 O196 2.028 . S
Zn195 O198 2.028 . S
Zn195 O201 2.035 . S
O196 Zn195 2.028 . S
O196 C202 1.247 . S
O197 Zn193 2.035 . S
O197 C202 1.258 . S
O198 C191 1.247 . S
O198 Zn195 2.028 . S
O199 C191 1.258 . S
O199 Zn193 2.035 . S
O200 Zn193 2.028 . S
O200 C203 1.247 . S
O201 Zn195 2.035 . S
O201 C203 1.258 . S
C202 O196 1.247 . S
C202 O197 1.258 . S
C203 O200 1.247 . S
C203 O201 1.258 . S
C204 C205 1.387 . S
C204 H208 0.950 . S
C204 C213 1.390 . S
C205 C204 1.387 . S
C205 C207 1.387 . S
H206 C213 0.950 . S
C207 C205 1.387 . S
C207 C209 1.390 . S
C207 H211 0.950 . S
H208 C204 0.950 . S
C209 C207 1.390 . S
C209 C210 1.387 . S
C209 H212 0.950 . S
C210 C209 1.387 . S
C210 C213 1.387 . S
H211 C207 0.950 . S
H212 C209 0.950 . S
C213 C204 1.390 . S
C213 H206 0.950 . S
C213 C210 1.387 . S
C214 C215 1.387 . S
C214 H218 0.950 . S
C214 C223 1.390 . S
C215 C214 1.387 . S
C215 C217 1.387 . S
H216 C223 0.950 . S
C217 C215 1.387 . S
C217 C219 1.390 . S
C217 H221 0.950 . S
H218 C214 0.950 . S
C219 C217 1.390 . S
C219 C220 1.387 . S
C219 H222 0.950 . S
C220 C219 1.387 . S
C220 C223 1.387 . S
H221 C217 0.950 . S
H222 C219 0.950 . S
C223 C214 1.390 . S
C223 H216 0.950 . S
C223 C220 1.387 . S
C224 C225 1.387 . S
C224 H228 0.950 . S
C224 C233 1.390 . S
C225 C224 1.387 . S
C225 C227 1.387 . S
H226 C233 0.950 . S
C227 C225 1.387 . S
C227 C229 1.390 . S
C227 H231 0.950 . S
H228 C224 0.950 . S
C229 C227 1.390 . S
C229 C230 1.387 . S
C229 H232 0.950 . S
C230 C229 1.387 . S
C230 C233 1.387 . S
H231 C227 0.950 . S
H232 C229 0.950 . S
C233 C224 1.390 . S
C233 H226 0.950 . S
C233 C230 1.387 . S
C234 C235 1.387 . S
C234 H238 0.950 . S
C234 C243 1.390 . S
C235 C234 1.387 . S
C235 C237 1.387 . S
H236 C243 0.950 . S
C237 C235 1.387 . S
C237 C239 1.390 . S
C237 H241 0.950 . S
H238 C234 0.950 . S
C239 C237 1.390 . S
C239 C240 1.387 . S
C239 H242 0.950 . S
C240 C239 1.387 . S
C240 C243 1.387 . S
H241 C237 0.950 . S
H242 C239 0.950 . S
C243 C234 1.390 . S
C243 H236 0.950 . S
C243 C240 1.387 . S
C244 C245 1.387 . S
C244 H248 0.950 . S
C244 C253 1.390 . S
C245 C244 1.387 . S
C245 C247 1.387 . S
H246 C253 0.950 . S
C247 C245 1.387 . S
C247 C249 1.390 . S
C247 H251 0.950 . S
H248 C244 0.950 . S
C249 C247 1.390 . S
C249 C250 1.387 . S
C249 H252 0.950 . S
C250 C249 1.387 . S
C250 C253 1.387 . S
H251 C247 0.950 . S
H252 C249 0.950 . S
C253 C244 1.390 . S
C253 H246 0.950 . S
C253 C250 1.387 . S
C254 C255 1.387 . S
C254 H258 0.950 . S
C254 C263 1.390 . S
C255 C254 1.387 . S
C255 C257 1.387 . S
H256 C263 0.950 . S
C257 C255 1.387 . S
C257 C259 1.390 . S
C257 H261 0.950 . S
H258 C254 0.950 . S
C259 C257 1.390 . S
C259 C260 1.387 . S
C259 H262 0.950 . S
C260 C259 1.387 . S
C260 C263 1.387 . S
H261 C257 0.950 . S
H262 C259 0.950 . S
C263 C254 1.390 . S
C263 H256 0.950 . S
C263 C260 1.387 . S
C264 C265 1.387 . S
C264 H268 0.950 . S
C264 C273 1.390 . S
C265 C264 1.387 . S
C265 C267 1.387 . S
H266 C273 0.950 . S
C267 C265 1.387 . S
C267 C269 1.390 . S
C267 H271 0.950 . S
H268 C264 0.950 . S
C269 C267 1.390 . S
C269 C270 1.387 . S
C269 H272 0.950 . S
C270 C269 1.387 . S
C270 C273 1.387 . S
H271 C267 0.950 . S
H272 C269 0.950 . S
C273 C264 1.390 . S
C273 H266 0.950 . S
C273 C270 1.387 . S
C274 C275 1.387 . S
C274 H278 0.950 . S
C274 C283 1.390 . S
C275 C274 1.387 . S
C275 C277 1.387 . S
H276 C283 0.950 . S
C277 C275 1.387 . S
C277 C279 1.390 . S
C277 H281 0.950 . S
H278 C274 0.950 . S
C279 C277 1.390 . S
C279 C280 1.387 . S
C279 H282 0.950 . S
C280 C279 1.387 . S
C280 C283 1.387 . S
H281 C277 0.950 . S
H282 C279 0.950 . S
C283 C274 1.390 . S
C283 H276 0.950 . S
C283 C280 1.387 . S
C284 C285 1.387 . S
C284 H288 0.950 . S
C284 C293 1.390 . S
C285 C284 1.387 . S
C285 C287 1.387 . S
H286 C293 0.950 . S
C287 C285 1.387 . S
C287 C289 1.390 . S
C287 H291 0.950 . S
H288 C284 0.950 . S
C289 C287 1.390 . S
C289 C290 1.387 . S
C289 H292 0.950 . S
C290 C289 1.387 . S
C290 C293 1.387 . S
H291 C287 0.950 . S
H292 C289 0.950 . S
C293 C284 1.390 . S
C293 H286 0.950 . S
C293 C290 1.387 . S
C294 C295 1.387 . S
C294 H298 0.950 . S
C294 C303 1.390 . S
C295 C294 1.387 . S
C295 C297 1.387 . S
H296 C303 0.950 . S
C297 C295 1.387 . S
C297 C299 1.390 . S
C297 H301 0.950 . S
H298 C294 0.950 . S
C299 C297 1.390 . S
C299 C300 1.387 . S
C299 H302 0.950 . S
C300 C299 1.387 . S
C300 C303 1.387 . S
H301 C297 0.950 . S
H302 C299 0.950 . S
C303 C294 1.390 . S
C303 H296 0.950 . S
C303 C300 1.387 . S
C304 C305 1.387 . S
C304 H308 0.950 . S
C304 C313 1.390 . S
C305 C304 1.387 . S
C305 C307 1.387 . S
H306 C313 0.950 . S
C307 C305 1.387 . S
C307 C309 1.390 . S
C307 H311 0.950 . S
H308 C304 0.950 . S
C309 C307 1.390 . S
C309 C310 1.387 . S
C309 H312 0.950 . S
C310 C309 1.387 . S
C310 C313 1.387 . S
H311 C307 0.950 . S
H312 C309 0.950 . S
C313 C304 1.390 . S
C313 H306 0.950 . S
C313 C310 1.387 . S
C314 C315 1.387 . S
C314 H318 0.950 . S
C314 C323 1.390 . S
C315 C314 1.387 . S
C315 C317 1.387 . S
H316 C323 0.950 . S
C317 C315 1.387 . S
C317 C319 1.390 . S
C317 H321 0.950 . S
H318 C314 0.950 . S
C319 C317 1.390 . S
C319 C320 1.387 . S
C319 H322 0.950 . S
C320 C319 1.387 . S
C320 C323 1.387 . S
H321 C317 0.950 . S
H322 C319 0.950 . S
C323 C314 1.390 . S
C323 H316 0.950 . S
C323 C320 1.387 . S
C324 C325 1.387 . S
C324 H328 0.950 . S
C324 C333 1.390 . S
C325 C324 1.387 . S
C325 C327 1.387 . S
H326 C333 0.950 . S
C327 C325 1.387 . S
C327 C329 1.390 . S
C327 H331 0.950 . S
H328 C324 0.950 . S
C329 C327 1.390 . S
C329 C330 1.387 . S
C329 H332 0.950 . S
C330 C329 1.387 . S
C330 C333 1.387 . S
H331 C327 0.950 . S
H332 C329 0.950 . S
C333 C324 1.390 . S
C333 H326 0.950 . S
C333 C330 1.387 . S
C334 C335 1.387 . S
C334 H338 0.950 . S
C334 C343 1.390 . S
C335 C334 1.387 . S
C335 C337 1.387 . S
H336 C343 0.950 . S
C337 C335 1.387 . S
C337 C339 1.390 . S
C337 H341 0.950 . S
H338 C334 0.950 . S
C339 C337 1.390 . S
C339 C340 1.387 . S
C339 H342 0.950 . S
C340 C339 1.387 . S
C340 C343 1.387 . S
H341 C337 0.950 . S
H342 C339 0.950 . S
C343 C334 1.390 . S
C343 H336 0.950 . S
C343 C340 1.387 . S
C344 C345 1.387 . S
C344 H348 0.950 . S
C344 C353 1.390 . S
C345 C344 1.387 . S
C345 C347 1.387 . S
H346 C353 0.950 . S
C347 C345 1.387 . S
C347 C349 1.390 . S
C347 H351 0.950 . S
H348 C344 0.950 . S
C349 C347 1.390 . S
C349 C350 1.387 . S
C349 H352 0.950 . S
C350 C349 1.387 . S
C350 C353 1.387 . S
H351 C347 0.950 . S
H352 C349 0.950 . S
C353 C344 1.390 . S
C353 H346 0.950 . S
C353 C350 1.387 . S
C354 C355 1.387 . S
C354 H358 0.950 . S
C354 C363 1.390 . S
C355 C354 1.387 . S
C355 C357 1.387 . S
H356 C363 0.950 . S
C357 C355 1.387 . S
C357 C359 1.390 . S
C357 H361 0.950 . S
H358 C354 0.950 . S
C359 C357 1.390 . S
C359 C360 1.387 . S
C359 H362 0.950 . S
C360 C359 1.387 . S
C360 C363 1.387 . S
H361 C357 0.950 . S
H362 C359 0.950 . S
C363 C354 1.390 . S
C363 H356 0.950 . S
C363 C360 1.387 . S
C364 C365 1.387 . S
C364 H368 0.950 . S
C364 C373 1.390 . S
C365 C364 1.387 . S
C365 C367 1.387 . S
H366 C373 0.950 . S
C367 C365 1.387 . S
C367 C369 1.390 . S
C367 H371 0.950 . S
H368 C364 0.950 . S
C369 C367 1.390 . S
C369 C370 1.387 . S
C369 H372 0.950 . S
C370 C369 1.387 . S
C370 C373 1.387 . S
H371 C367 0.950 . S
H372 C369 0.950 . S
C373 C364 1.390 . S
C373 H366 0.950 . S
C373 C370 1.387 . S
C374 C375 1.387 . S
C374 H378 0.950 . S
C374 C383 1.390 . S
C375 C374 1.387 . S
C375 C377 1.387 . S
H376 C383 0.950 . S
C377 C375 1.387 . S
C377 C379 1.390 . S
C377 H381 0.950 . S
H378 C374 0.950 . S
C379 C377 1.390 . S
C379 C380 1.387 . S
C379 H382 0.950 . S
C380 C379 1.387 . S
C380 C383 1.387 . S
H381 C377 0.950 . S
H382 C379 0.950 . S
C383 C374 1.390 . S
C383 H376 0.950 . S
C383 C380 1.387 . S
C384 C385 1.387 . S
C384 H388 0.950 . S
C384 C393 1.390 . S
C385 C384 1.387 . S
C385 C387 1.387 . S
H386 C393 0.950 . S
C387 C385 1.387 . S
C387 C389 1.390 . S
C387 H391 0.950 . S
H388 C384 0.950 . S
C389 C387 1.390 . S
C389 C390 1.387 . S
C389 H392 0.950 . S
C390 C389 1.387 . S
C390 C393 1.387 . S
H391 C387 0.950 . S
H392 C389 0.950 . S
C393 C384 1.390 . S
C393 H386 0.950 . S
C393 C390 1.387 . S
C394 C395 1.387 . S
C394 H398 0.950 . S
C394 C403 1.390 . S
C395 C394 1.387 . S
C395 C397 1.387 . S
H396 C403 0.950 . S
C397 C395 1.387 . S
C397 C399 1.390 . S
C397 H401 0.950 . S
H398 C394 0.950 . S
C399 C397 1.390 . S
C399 C400 1.387 . S
C399 H402 0.950 . S
C400 C399 1.387 . S
C400 C403 1.387 . S
H401 C397 0.950 . S
H402 C399 0.950 . S
C403 C394 1.390 . S
C403 H396 0.950 . S
C403 C400 1.387 . S
C404 C405 1.387 . S
C404 H408 0.950 . S
C404 C413 1.390 . S
C405 C404 1.387 . S
C405 C407 1.387 . S
H406 C413 0.950 . S
C407 C405 1.387 . S
C407 C409 1.390 . S
C407 H411 0.950 . S
H408 C404 0.950 . S
C409 C407 1.390 . S
C409 C410 1.387 . S
C409 H412 0.950 . S
C410 C409 1.387 . S
C410 C413 1.387 . S
H411 C407 0.950 . S
H412 C409 0.950 . S
C413 C404 1.390 . S
C413 H406 0.950 . S
C413 C410 1.387 . S
C414 C415 1.387 . S
C414 H418 0.950 . S
C414 C423 1.390 . S
C415 C414 1.387 . S
C415 C417 1.387 . S
H416 C423 0.950 . S
C417 C415 1.387 . S
C417 C419 1.390 . S
C417 H421 0.950 . S
H418 C414 0.950 . S
C419 C417 1.390 . S
C419 C420 1.387 . S
C419 H422 0.950 . S
C420 C419 1.387 . S
C420 C423 1.387 . S
H421 C417 0.950 . S
H422 C419 0.950 . S
C423 C414 1.390 . S
C423 H416 0.950 . S
C423 C420 1.387 . S
C424 C425 1.387 . S
C424 H428 0.950 . S
C424 C433 1.390 . S
C425 C424 1.387 . S
C425 C427 1.387 . S
H426 C433 0.950 . S
C427 C425 1.387 . S
C427 C429 1.390 . S
C427 H431 0.950 . S
H428 C424 0.950 . S
C429 C427 1.390 . S
C429 C430 1.387 . S
C429 H432 0.950 . S
C430 C429 1.387 . S
C430 C433 1.387 . S
H431 C427 0.950 . S
H432 C429 0.950 . S
C433 C424 1.390 . S
C433 H426 0.950 . S
C433 C430 1.387 . S
C434 C435 1.387 . S
C434 H438 0.950 . S
C434 C443 1.390 . S
C435 C434 1.387 . S
C435 C437 1.387 . S
H436 C443 0.950 . S
C437 C435 1.387 . S
C437 C439 1.390 . S
C437 H441 0.950 . S
H438 C434 0.950 . S
C439 C437 1.390 . S
C439 C440 1.387 . S
C439 H442 0.950 . S
C440 C439 1.387 . S
C440 C443 1.387 . S
H441 C437 0.950 . S
H442 C439 0.950 . S
C443 C434 1.390 . S
C443 H436 0.950 . S
C443 C440 1.387 . S
C205 C18 1.401 . S
C210 C121 1.453 . S
C215 C29 1.433 . S
C220 C146 1.538 . S
C230 C149 1.491 . S
C225 C55 1.387 . S
C240 C175 1.555 . S
C235 C75 1.449 . S
C250 C176 1.469 . S
C245 C98 1.414 . S
C260 C203 1.516 . S
C255 C118 1.459 . S
C265 C38 1.401 . S
C270 C148 1.456 . S
C275 C52 1.461 . S
C280 C174 1.517 . S
C290 C177 1.469 . S
C285 C72 1.414 . S
C300 C202 1.555 . S
C295 C89 1.446 . S
C305 C109 1.390 . S
C310 C120 1.491 . S
C320 C147 1.539 . S
C315 C9 1.434 . S
C330 C162 1.453 . S
C325 C12 1.404 . S
C335 C35 1.436 . S
C340 C189 1.539 . S
C350 C190 1.489 . S
C345 C49 1.388 . S
C355 C69 1.447 . S
C360 C132 1.552 . S
C365 C92 1.415 . S
C370 C135 1.468 . S
C375 C112 1.464 . S
C380 C160 1.515 . S
C385 C32 1.405 . S
C390 C191 1.452 . S
C400 C133 1.516 . S
C395 C58 1.462 . S
C405 C78 1.418 . S
C410 C134 1.468 . S
C415 C95 1.448 . S
C420 C161 1.554 . S
C425 C115 1.390 . S
C430 C163 1.490 . S
C435 C15 1.433 . S
C440 C188 1.537 . S
