# Generated by pormake.
# Topology ssb, (4,4)-cn, num edge types: 1
# Building blocks:
#     Node 0, Type 0, BuildingBlock: AZAVOO_clean_linker_0, # of connection points: 4
#     Node 1, Type 0, BuildingBlock: AZAVOO_clean_linker_0, # of connection points: 4
#     Node 2, Type 0, BuildingBlock: AZAVOO_clean_linker_0, # of connection points: 4
#     Node 3, Type 0, BuildingBlock: AZAVOO_clean_linker_0, # of connection points: 4
#     Node 4, Type 0, BuildingBlock: AZAVOO_clean_linker_0, # of connection points: 4
#     Node 5, Type 0, BuildingBlock: AZAVOO_clean_linker_0, # of connection points: 4
#     Node 6, Type 0, BuildingBlock: AZAVOO_clean_linker_0, # of connection points: 4
#     Node 7, Type 0, BuildingBlock: AZAVOO_clean_linker_0, # of connection points: 4
#     Node 8, Type 1, BuildingBlock: NAWXER_clean_sbu_0, # of connection points: 4
#     Node 9, Type 1, BuildingBlock: NAWXER_clean_sbu_0, # of connection points: 4
#     Node 10, Type 1, BuildingBlock: NAWXER_clean_sbu_0, # of connection points: 4
#     Node 11, Type 1, BuildingBlock: NAWXER_clean_sbu_0, # of connection points: 4
#     Node 12, Type 1, BuildingBlock: NAWXER_clean_sbu_0, # of connection points: 4
#     Node 13, Type 1, BuildingBlock: NAWXER_clean_sbu_0, # of connection points: 4
#     Node 14, Type 1, BuildingBlock: NAWXER_clean_sbu_0, # of connection points: 4
#     Node 15, Type 1, BuildingBlock: NAWXER_clean_sbu_0, # of connection points: 4
#     Edge 16, Type (0, 1), BuildingBlock: AJUNOK_clean_linker_0, # of connection points: 2
#     Edge 17, Type (0, 1), BuildingBlock: AJUNOK_clean_linker_0, # of connection points: 2
#     Edge 18, Type (0, 1), BuildingBlock: AJUNOK_clean_linker_0, # of connection points: 2
#     Edge 19, Type (0, 1), BuildingBlock: AJUNOK_clean_linker_0, # of connection points: 2
#     Edge 20, Type (0, 1), BuildingBlock: AJUNOK_clean_linker_0, # of connection points: 2
#     Edge 21, Type (0, 1), BuildingBlock: AJUNOK_clean_linker_0, # of connection points: 2
#     Edge 22, Type (0, 1), BuildingBlock: AJUNOK_clean_linker_0, # of connection points: 2
#     Edge 23, Type (0, 1), BuildingBlock: AJUNOK_clean_linker_0, # of connection points: 2
#     Edge 24, Type (0, 1), BuildingBlock: AJUNOK_clean_linker_0, # of connection points: 2
#     Edge 25, Type (0, 1), BuildingBlock: AJUNOK_clean_linker_0, # of connection points: 2
#     Edge 26, Type (0, 1), BuildingBlock: AJUNOK_clean_linker_0, # of connection points: 2
#     Edge 27, Type (0, 1), BuildingBlock: AJUNOK_clean_linker_0, # of connection points: 2
#     Edge 28, Type (0, 1), BuildingBlock: AJUNOK_clean_linker_0, # of connection points: 2
#     Edge 29, Type (0, 1), BuildingBlock: AJUNOK_clean_linker_0, # of connection points: 2
#     Edge 30, Type (0, 1), BuildingBlock: AJUNOK_clean_linker_0, # of connection points: 2
#     Edge 31, Type (0, 1), BuildingBlock: AJUNOK_clean_linker_0, # of connection points: 2
#     Edge 32, Type (0, 1), BuildingBlock: AJUNOK_clean_linker_0, # of connection points: 2
#     Edge 33, Type (0, 1), BuildingBlock: AJUNOK_clean_linker_0, # of connection points: 2
#     Edge 34, Type (0, 1), BuildingBlock: AJUNOK_clean_linker_0, # of connection points: 2
#     Edge 35, Type (0, 1), BuildingBlock: AJUNOK_clean_linker_0, # of connection points: 2
#     Edge 36, Type (0, 1), BuildingBlock: AJUNOK_clean_linker_0, # of connection points: 2
#     Edge 37, Type (0, 1), BuildingBlock: AJUNOK_clean_linker_0, # of connection points: 2
#     Edge 38, Type (0, 1), BuildingBlock: AJUNOK_clean_linker_0, # of connection points: 2
#     Edge 39, Type (0, 1), BuildingBlock: AJUNOK_clean_linker_0, # of connection points: 2
#     Edge 40, Type (0, 1), BuildingBlock: AJUNOK_clean_linker_0, # of connection points: 2
#     Edge 41, Type (0, 1), BuildingBlock: AJUNOK_clean_linker_0, # of connection points: 2
#     Edge 42, Type (0, 1), BuildingBlock: AJUNOK_clean_linker_0, # of connection points: 2
#     Edge 43, Type (0, 1), BuildingBlock: AJUNOK_clean_linker_0, # of connection points: 2
#     Edge 44, Type (0, 1), BuildingBlock: AJUNOK_clean_linker_0, # of connection points: 2
#     Edge 45, Type (0, 1), BuildingBlock: AJUNOK_clean_linker_0, # of connection points: 2
#     Edge 46, Type (0, 1), BuildingBlock: AJUNOK_clean_linker_0, # of connection points: 2
#     Edge 47, Type (0, 1), BuildingBlock: AJUNOK_clean_linker_0, # of connection points: 2
# Relax obj value: 0.064
# Max RMSD: 0.293
# Mean RMSD: 0.115
data_MOF--net-ssb--node1-NAWXER_clean_sbu_0--node2-AZAVOO_clean_linker_0--edge1-AJUNOK_clean_linker_0
_symmetry_space_group_name_H-M    P1
_symmetry_Int_Tables_number       1
_symmetry_cell_setting            triclinic
loop_
_symmetry_equiv_pos_as_xyz
'x, y, z'
_cell_length_a     39.874233
_cell_length_b     41.18182
_cell_length_c     34.53339
_cell_angle_alpha  92.954524
_cell_angle_beta   90.044145
_cell_angle_gamma 90.011969
loop_
_atom_site_label
_atom_site_type_symbol
_atom_site_fract_x
_atom_site_fract_y
_atom_site_fract_z
_atom_type_partial_charge
H0 H 0.08749 0.55308 0.27057 0.0
H1 H 0.35294 0.41136 0.99524 0.0
H2 H 0.2109 0.43016 0.31356 0.0
H3 H 0.17526 0.4206 0.36989 0.0
H4 H 0.1344 0.33486 0.31006 0.0
H5 H 0.17044 0.3442 0.254 0.0
H6 H 0.21297 0.48097 0.24836 0.0
H7 H 0.16648 0.51877 0.2611 0.0
H8 H 0.09613 0.44281 0.2262 0.0
H9 H 0.14293 0.40537 0.21312 0.0
H10 H 0.27333 0.47335 0.18617 0.0
H11 H 0.26496 0.52316 0.15201 0.0
H12 H 0.17006 0.48648 0.10809 0.0
H13 H 0.17933 0.43578 0.14124 0.0
H14 H 0.32369 0.4184 0.18574 0.0
H15 H 0.36249 0.42361 0.13164 0.0
H16 H 0.28238 0.39858 0.05105 0.0
H17 H 0.24395 0.39278 0.10556 0.0
H18 H 0.3233 0.36947 0.24574 0.0
H19 H 0.37453 0.34458 0.2187 0.0
H20 H 0.31807 0.30512 0.12039 0.0
H21 H 0.26694 0.32914 0.14815 0.0
H22 H 0.26521 0.3871 0.31399 0.0
H23 H 0.27184 0.3511 0.36774 0.0
H24 H 0.24882 0.26831 0.29065 0.0
H25 H 0.24098 0.30472 0.23693 0.0
O26 O 0.10553 0.53772 0.26529 0.0
O27 O 0.07039 0.49777 0.24736 0.0
O28 O 0.37855 0.42114 0.05994 0.0
O29 O 0.33804 0.40956 0.01712 0.0
C30 C 0.21578 0.39245 0.24687 0.0
C31 C 0.2096 0.41771 0.22169 0.0
C32 C 0.23119 0.42205 0.18999 0.0
C33 C 0.25806 0.40019 0.18274 0.0
C34 C 0.26378 0.37441 0.20776 0.0
C35 C 0.24365 0.37155 0.24099 0.0
C36 C 0.19308 0.38785 0.27991 0.0
C37 C 0.19411 0.40945 0.31261 0.0
C38 C 0.17404 0.4039 0.34464 0.0
C39 C 0.15249 0.37694 0.34398 0.0
C40 C 0.15096 0.35575 0.31093 0.0
C41 C 0.17137 0.36105 0.27913 0.0
C42 C 0.18128 0.44051 0.22968 0.0
C43 C 0.1875 0.4726 0.24336 0.0
C44 C 0.16089 0.49411 0.25068 0.0
C45 C 0.12758 0.48382 0.24465 0.0
C46 C 0.12148 0.45153 0.23113 0.0
C47 C 0.14813 0.43008 0.2237 0.0
C48 C 0.22697 0.45092 0.16623 0.0
C49 C 0.25097 0.47579 0.16872 0.0
C50 C 0.24588 0.50443 0.14968 0.0
C51 C 0.2164 0.50904 0.12826 0.0
C52 C 0.19285 0.48366 0.12467 0.0
C53 C 0.19811 0.45479 0.14355 0.0
C54 C 0.28108 0.40494 0.14959 0.0
C55 C 0.31459 0.41393 0.15639 0.0
C56 C 0.33669 0.41697 0.12542 0.0
C57 C 0.32556 0.41142 0.08698 0.0
C58 C 0.29178 0.40296 0.08027 0.0
C59 C 0.26974 0.39974 0.11133 0.0
C60 C 0.29151 0.35127 0.19874 0.0
C61 C 0.32172 0.35408 0.21939 0.0
C62 C 0.35096 0.3401 0.20374 0.0
C63 C 0.3503 0.32318 0.16728 0.0
C64 C 0.31933 0.31761 0.14873 0.0
C65 C 0.2901 0.33142 0.1645 0.0
C66 C 0.25249 0.34861 0.27147 0.0
C67 C 0.26179 0.36116 0.30855 0.0
C68 C 0.26541 0.34066 0.33926 0.0
C69 C 0.26065 0.30702 0.33334 0.0
C70 C 0.2527 0.2942 0.29588 0.0
C71 C 0.24844 0.31488 0.26519 0.0
C72 C 0.09936 0.50674 0.25247 0.0
C73 C 0.34906 0.41437 0.05399 0.0
H74 H 0.57524 0.13986 0.28761 0.0
H75 H 0.83967 0.24678 0.58236 0.0
H76 H 0.70232 0.25813 0.26546 0.0
H77 H 0.66649 0.26905 0.21008 0.0
H78 H 0.63014 0.35646 0.27049 0.0
H79 H 0.66615 0.34532 0.32612 0.0
H80 H 0.70325 0.20504 0.32024 0.0
H81 H 0.65543 0.17018 0.30241 0.0
H82 H 0.58787 0.24482 0.34813 0.0
H83 H 0.63599 0.2793 0.3662 0.0
H84 H 0.76111 0.20451 0.37167 0.0
H85 H 0.76076 0.15462 0.40716 0.0
H86 H 0.67904 0.19237 0.47799 0.0
H87 H 0.67902 0.24228 0.4415 0.0
H88 H 0.81533 0.2581 0.39218 0.0
H89 H 0.85214 0.24529 0.44607 0.0
H90 H 0.77202 0.26926 0.5269 0.0
H91 H 0.73566 0.28244 0.47278 0.0
H92 H 0.81558 0.31251 0.33538 0.0
H93 H 0.86802 0.33687 0.36013 0.0
H94 H 0.81684 0.37118 0.46454 0.0
H95 H 0.76447 0.34742 0.43926 0.0
H96 H 0.75561 0.30889 0.26747 0.0
H97 H 0.76183 0.35268 0.22264 0.0
H98 H 0.74248 0.42364 0.31622 0.0
H99 H 0.73488 0.37952 0.36097 0.0
O100 O 0.59381 0.15395 0.29522 0.0
O101 O 0.56014 0.19315 0.31896 0.0
O102 O 0.86598 0.23948 0.51775 0.0
O103 O 0.82564 0.25157 0.56052 0.0
C104 C 0.70832 0.29372 0.3335 0.0
C105 C 0.70207 0.26597 0.35488 0.0
C106 C 0.72374 0.25839 0.38537 0.0
C107 C 0.75063 0.2794 0.39591 0.0
C108 C 0.75685 0.30737 0.37477 0.0
C109 C 0.73625 0.314 0.34277 0.0
C110 C 0.68643 0.30064 0.30004 0.0
C111 C 0.68638 0.27945 0.26693 0.0
C112 C 0.66595 0.28572 0.23538 0.0
C113 C 0.6452 0.31332 0.23635 0.0
C114 C 0.64585 0.33497 0.26914 0.0
C115 C 0.66624 0.3286 0.30086 0.0
C116 C 0.67306 0.24454 0.34483 0.0
C117 C 0.67812 0.21366 0.32675 0.0
C118 C 0.65074 0.19387 0.31642 0.0
C119 C 0.61781 0.20469 0.32388 0.0
C120 C 0.61289 0.23572 0.34202 0.0
C121 C 0.64031 0.25545 0.3524 0.0
C122 C 0.72034 0.22705 0.40434 0.0
C123 C 0.74278 0.20181 0.39442 0.0
C124 C 0.74257 0.17343 0.41471 0.0
C125 C 0.72021 0.16996 0.44565 0.0
C126 C 0.69648 0.19452 0.45423 0.0
C127 C 0.69655 0.22297 0.43362 0.0
C128 C 0.77292 0.27139 0.42863 0.0
C129 C 0.80586 0.26073 0.42157 0.0
C130 C 0.82678 0.25334 0.45239 0.0
C131 C 0.81503 0.25629 0.49084 0.0
C132 C 0.78189 0.26676 0.49769 0.0
C133 C 0.76105 0.27426 0.46685 0.0
C134 C 0.78619 0.32827 0.38547 0.0
C135 C 0.81544 0.32632 0.36294 0.0
C136 C 0.84539 0.33999 0.37726 0.0
C137 C 0.84653 0.35595 0.41427 0.0
C138 C 0.81667 0.35959 0.43567 0.0
C139 C 0.78675 0.34593 0.42133 0.0
C140 C 0.74447 0.34098 0.31742 0.0
C141 C 0.75273 0.33387 0.27838 0.0
C142 C 0.7561 0.35879 0.25281 0.0
C143 C 0.75202 0.39131 0.26603 0.0
C144 C 0.7454 0.39863 0.30546 0.0
C145 C 0.74135 0.37357 0.33098 0.0
C146 C 0.58878 0.18369 0.31261 0.0
C147 C 0.83717 0.24856 0.52371 0.0
H148 H 0.66215 0.98881 0.32853 0.0
H149 H 0.71733 0.63392 0.11548 0.0
H150 H 0.82728 0.86678 0.31163 0.0
H151 H 0.8428 0.90734 0.36347 0.0
H152 H 0.76393 0.8716 0.43544 0.0
H153 H 0.74804 0.83169 0.38337 0.0
H154 H 0.76253 0.89129 0.28065 0.0
H155 H 0.72733 0.93867 0.29702 0.0
H156 H 0.64898 0.87511 0.33516 0.0
H157 H 0.68464 0.82796 0.3192 0.0
H158 H 0.73161 0.85334 0.21023 0.0
H159 H 0.68366 0.86376 0.16842 0.0
H160 H 0.63303 0.7796 0.20977 0.0
H161 H 0.68112 0.76946 0.25222 0.0
H162 H 0.76028 0.78525 0.17411 0.0
H163 H 0.74767 0.74506 0.12143 0.0
H164 H 0.72634 0.67371 0.20568 0.0
H165 H 0.7382 0.71433 0.25807 0.0
H166 H 0.82537 0.75579 0.21068 0.0
H167 H 0.84796 0.70217 0.19183 0.0
H168 H 0.82183 0.66847 0.30434 0.0
H169 H 0.79697 0.72149 0.32191 0.0
H170 H 0.86283 0.79503 0.28621 0.0
H171 H 0.91082 0.78812 0.32977 0.0
H172 H 0.84267 0.77347 0.42439 0.0
H173 H 0.79493 0.77975 0.38072 0.0
O174 O 0.67562 0.96972 0.32214 0.0
O175 O 0.63588 0.93595 0.34067 0.0
O176 O 0.73087 0.6886 0.09368 0.0
O177 O 0.72164 0.65049 0.13577 0.0
C178 C 0.77675 0.82245 0.31237 0.0
C179 C 0.74785 0.8275 0.28982 0.0
C180 C 0.73915 0.80474 0.25938 0.0
C181 C 0.75922 0.77683 0.25183 0.0
C182 C 0.78803 0.77176 0.27475 0.0
C183 C 0.7965 0.79437 0.30519 0.0
C184 C 0.78642 0.84654 0.3438 0.0
C185 C 0.81343 0.86776 0.33864 0.0
C186 C 0.82231 0.89072 0.36811 0.0
C187 C 0.80464 0.89224 0.40328 0.0
C188 C 0.77806 0.87055 0.40862 0.0
C189 C 0.76884 0.84801 0.37896 0.0
C190 C 0.72617 0.85623 0.29886 0.0
C191 C 0.7378 0.88768 0.29268 0.0
C192 C 0.71761 0.91469 0.30197 0.0
C193 C 0.68534 0.91069 0.31744 0.0
C194 C 0.6737 0.87906 0.32331 0.0
C195 C 0.69397 0.85209 0.31414 0.0
C196 C 0.70972 0.81083 0.23445 0.0
C197 C 0.71006 0.83733 0.21059 0.0
C198 C 0.68273 0.84323 0.1868 0.0
C199 C 0.65463 0.82264 0.18633 0.0
C200 C 0.65444 0.79579 0.20977 0.0
C201 C 0.68176 0.79004 0.23393 0.0
C202 C 0.75011 0.75275 0.21991 0.0
C203 C 0.75249 0.76104 0.18112 0.0
C204 C 0.74543 0.73799 0.1511 0.0
C205 C 0.73609 0.70612 0.15934 0.0
C206 C 0.73348 0.698 0.19829 0.0
C207 C 0.74026 0.72115 0.22828 0.0
C208 C 0.80876 0.74221 0.26721 0.0
C209 C 0.82506 0.73698 0.23148 0.0
C210 C 0.83831 0.70647 0.22096 0.0
C211 C 0.83592 0.68098 0.24634 0.0
C212 C 0.82321 0.6875 0.28389 0.0
C213 C 0.80923 0.7178 0.29406 0.0
C214 C 0.82553 0.78826 0.33053 0.0
C215 C 0.85836 0.78985 0.3162 0.0
C216 C 0.8856 0.78573 0.34092 0.0
C217 C 0.88019 0.78018 0.3802 0.0
C218 C 0.84731 0.77774 0.39416 0.0
C219 C 0.82016 0.78151 0.36941 0.0
C220 C 0.66402 0.93945 0.32747 0.0
C221 C 0.72936 0.68133 0.12752 0.0
H222 H 0.40645 0.09124 0.34039 0.0
H223 H 0.2868 0.81645 0.04887 0.0
H224 H 0.30384 0.94076 0.37928 0.0
H225 H 0.31792 0.98894 0.41985 0.0
H226 H 0.23516 0.04032 0.37011 0.0
H227 H 0.22305 0.9926 0.3273 0.0
H228 H 0.34888 0.9605 0.32773 0.0
H229 H 0.3808 0.0109 0.33862 0.0
H230 H 0.30867 0.0612 0.26983 0.0
H231 H 0.27664 0.01068 0.25983 0.0
H232 H 0.36232 0.92385 0.26518 0.0
H233 H 0.40843 0.93152 0.21985 0.0
H234 H 0.33799 0.9643 0.13525 0.0
H235 H 0.29183 0.95713 0.18121 0.0
H236 H 0.32573 0.85917 0.23249 0.0
H237 H 0.33602 0.82514 0.17344 0.0
H238 H 0.25259 0.87102 0.11778 0.0
H239 H 0.24192 0.90411 0.17747 0.0
H240 H 0.2793 0.83706 0.28793 0.0
H241 H 0.27191 0.78883 0.24612 0.0
H242 H 0.18039 0.82919 0.20122 0.0
H243 H 0.19172 0.87986 0.23842 0.0
H244 H 0.25488 0.89625 0.38183 0.0
H245 H 0.21098 0.88254 0.42823 0.0
H246 H 0.13539 0.89767 0.34162 0.0
H247 H 0.1791 0.91284 0.29596 0.0
O248 O 0.39353 0.07156 0.3356 0.0
O249 O 0.35841 0.09521 0.29568 0.0
O250 O 0.32208 0.80304 0.10466 0.0
O251 O 0.28337 0.8297 0.07251 0.0
C252 C 0.2664 0.94244 0.31425 0.0
C253 C 0.29075 0.95156 0.28697 0.0
C254 C 0.296 0.9323 0.25286 0.0
C255 C 0.27658 0.90421 0.24532 0.0
C256 C 0.25228 0.89474 0.27258 0.0
C257 C 0.24671 0.91413 0.3071 0.0
C258 C 0.26281 0.96343 0.34997 0.0
C259 C 0.28781 0.96195 0.3784 0.0
C260 C 0.29609 0.98971 0.40127 0.0
C261 C 0.27879 0.01899 0.39663 0.0
C262 C 0.25019 0.01865 0.37267 0.0
C263 C 0.2425 0.99111 0.34905 0.0
C264 C 0.3103 0.98211 0.29338 0.0
C265 C 0.33996 0.98248 0.31522 0.0
C266 C 0.35815 0.01129 0.32134 0.0
C267 C 0.34725 0.0401 0.30516 0.0
C268 C 0.31775 0.03944 0.28272 0.0
C269 C 0.2994 0.01068 0.27699 0.0
C270 C 0.32384 0.94007 0.22646 0.0
C271 C 0.35696 0.93355 0.23727 0.0
C272 C 0.38324 0.9381 0.2115 0.0
C273 C 0.37672 0.94893 0.17435 0.0
C274 C 0.34359 0.95623 0.16391 0.0
C275 C 0.31731 0.95202 0.18993 0.0
C276 C 0.2829 0.88381 0.20927 0.0
C277 C 0.30962 0.86167 0.20754 0.0
C278 C 0.31543 0.84229 0.1738 0.0
C279 C 0.29498 0.84522 0.14094 0.0
C280 C 0.26865 0.86798 0.14262 0.0
C281 C 0.2625 0.88692 0.17663 0.0
C282 C 0.23657 0.86233 0.26567 0.0
C283 C 0.25693 0.83505 0.27011 0.0
C284 C 0.25263 0.80728 0.24574 0.0
C285 C 0.22668 0.80567 0.21793 0.0
C286 C 0.20229 0.8305 0.2197 0.0
C287 C 0.20785 0.85915 0.24237 0.0
C288 C 0.22033 0.90519 0.3352 0.0
C289 C 0.22885 0.89689 0.37293 0.0
C290 C 0.20383 0.8891 0.3994 0.0
C291 C 0.16991 0.88894 0.38835 0.0
C292 C 0.1614 0.89736 0.35068 0.0
C293 C 0.18636 0.90571 0.32451 0.0
C294 C 0.36663 0.07066 0.31175 0.0
C295 C 0.30106 0.82466 0.10504 0.0
H296 H 0.43573 0.06399 0.7692 0.0
H297 H 0.12135 0.94618 0.55759 0.0
H298 H 0.35398 0.89548 0.76373 0.0
H299 H 0.39816 0.88282 0.81019 0.0
H300 H 0.33337 0.91439 0.90483 0.0
H301 H 0.2888 0.92631 0.85819 0.0
H302 H 0.34479 0.96081 0.71207 0.0
H303 H 0.3877 0.00234 0.72567 0.0
H304 H 0.33977 0.02821 0.83526 0.0
H305 H 0.29681 0.98681 0.82108 0.0
H306 H 0.29059 0.95625 0.65328 0.0
H307 H 0.28906 0.00587 0.61695 0.0
H308 H 0.24368 0.05783 0.71525 0.0
H309 H 0.24518 0.00799 0.75147 0.0
H310 H 0.25331 0.88677 0.64944 0.0
H311 H 0.21755 0.88713 0.59192 0.0
H312 H 0.15612 0.96195 0.64855 0.0
H313 H 0.19182 0.96093 0.70623 0.0
H314 H 0.26363 0.83566 0.70981 0.0
H315 H 0.22678 0.79504 0.67722 0.0
H316 H 0.1406 0.85332 0.71104 0.0
H317 H 0.17744 0.89352 0.74379 0.0
H318 H 0.30875 0.84104 0.78188 0.0
H319 H 0.30305 0.7992 0.82958 0.0
H320 H 0.20997 0.84278 0.86937 0.0
H321 H 0.216 0.88473 0.82198 0.0
O322 O 0.41834 0.04787 0.76428 0.0
O323 O 0.39271 0.06032 0.82026 0.0
O324 O 0.16804 0.90673 0.55249 0.0
O325 O 0.13579 0.94546 0.58002 0.0
C326 C 0.29151 0.91735 0.77939 0.0
C327 C 0.29203 0.94535 0.75739 0.0
C328 C 0.26875 0.94847 0.72693 0.0
C329 C 0.24649 0.92265 0.71713 0.0
C330 C 0.24546 0.89512 0.74002 0.0
C331 C 0.26711 0.89301 0.77199 0.0
C332 C 0.31842 0.91193 0.80776 0.0
C333 C 0.3494 0.89973 0.79449 0.0
C334 C 0.37436 0.89227 0.82088 0.0
C335 C 0.36876 0.89741 0.86078 0.0
C336 C 0.33795 0.91014 0.87407 0.0
C337 C 0.31272 0.91708 0.84764 0.0
C338 C 0.31768 0.97091 0.76554 0.0
C339 C 0.3435 0.97563 0.73887 0.0
C340 C 0.36803 0.99929 0.74678 0.0
C341 C 0.36718 0.01859 0.78157 0.0
C342 C 0.34117 0.01377 0.8082 0.0
C343 C 0.31663 0.99013 0.80021 0.0
C344 C 0.26799 0.97855 0.70496 0.0
C345 C 0.28019 0.9783 0.66689 0.0
C346 C 0.2793 0.00659 0.64625 0.0
C347 C 0.26597 0.03556 0.66323 0.0
C348 C 0.25357 0.03571 0.70131 0.0
C349 C 0.25469 0.00741 0.72206 0.0
C350 C 0.2251 0.92378 0.68198 0.0
C351 C 0.23207 0.90317 0.64939 0.0
C352 C 0.21164 0.90345 0.61655 0.0
C353 C 0.18396 0.92458 0.61563 0.0
C354 C 0.17722 0.94538 0.6483 0.0
C355 C 0.1976 0.94495 0.68123 0.0
C356 C 0.22309 0.86759 0.72868 0.0
C357 C 0.2367 0.83902 0.71128 0.0
C358 C 0.21575 0.81597 0.69262 0.0
C359 C 0.181 0.8213 0.69138 0.0
C360 C 0.1673 0.84855 0.71184 0.0
C361 C 0.18824 0.87159 0.73035 0.0
C362 C 0.26302 0.86619 0.79884 0.0
C363 C 0.28723 0.84162 0.801 0.0
C364 C 0.28397 0.81782 0.82824 0.0
C365 C 0.25627 0.81806 0.85347 0.0
C366 C 0.23154 0.84207 0.85031 0.0
C367 C 0.23497 0.86599 0.82332 0.0
C368 C 0.39343 0.04355 0.79 0.0
C369 C 0.1622 0.92495 0.58077 0.0
H370 H 0.2042 0.62998 0.81186 0.0
H371 H 0.2259 0.29151 0.58786 0.0
H372 H 0.35697 0.50827 0.7905 0.0
H373 H 0.36546 0.55431 0.83761 0.0
H374 H 0.30066 0.50839 0.91857 0.0
H375 H 0.29177 0.46282 0.87122 0.0
H376 H 0.28897 0.52546 0.74524 0.0
H377 H 0.25817 0.57494 0.76542 0.0
H378 H 0.2034 0.52112 0.84914 0.0
H379 H 0.23442 0.47188 0.82862 0.0
H380 H 0.26611 0.46821 0.67071 0.0
H381 H 0.21515 0.4646 0.63073 0.0
H382 H 0.15977 0.43017 0.7277 0.0
H383 H 0.21103 0.43286 0.76729 0.0
H384 H 0.31283 0.42088 0.65556 0.0
H385 H 0.2965 0.3836 0.60131 0.0
H386 H 0.2348 0.33011 0.67887 0.0
H387 H 0.2522 0.367 0.73309 0.0
H388 H 0.36777 0.40689 0.69292 0.0
H389 H 0.37837 0.35701 0.65393 0.0
H390 H 0.33806 0.301 0.74558 0.0
H391 H 0.32428 0.35149 0.78262 0.0
H392 H 0.40025 0.42688 0.77308 0.0
H393 H 0.44408 0.41224 0.81954 0.0
H394 H 0.36815 0.39841 0.90605 0.0
H395 H 0.3246 0.41154 0.85943 0.0
O396 O 0.21574 0.61008 0.80397 0.0
O397 O 0.18965 0.58171 0.84801 0.0
O398 O 0.26703 0.33334 0.57097 0.0
O399 O 0.23249 0.3068 0.60875 0.0
C400 C 0.31293 0.45881 0.79619 0.0
C401 C 0.28385 0.46586 0.77466 0.0
C402 C 0.27428 0.4453 0.74276 0.0
C403 C 0.29467 0.41849 0.73135 0.0
C404 C 0.32394 0.41147 0.75277 0.0
C405 C 0.33228 0.43082 0.78634 0.0
C406 C 0.3239 0.48225 0.82761 0.0
C407 C 0.34554 0.5077 0.8189 0.0
C408 C 0.35033 0.53388 0.84568 0.0
C409 C 0.33373 0.53467 0.88155 0.0
C410 C 0.31405 0.50802 0.89126 0.0
C411 C 0.30894 0.48206 0.86431 0.0
C412 C 0.26373 0.49519 0.78538 0.0
C413 C 0.27009 0.52441 0.76768 0.0
C414 C 0.25253 0.55261 0.77935 0.0
C415 C 0.22831 0.55199 0.8089 0.0
C416 C 0.22187 0.52246 0.82631 0.0
C417 C 0.23944 0.49429 0.81459 0.0
C418 C 0.2423 0.45066 0.72184 0.0
C419 C 0.24281 0.4607 0.68363 0.0
C420 C 0.21378 0.45867 0.6609 0.0
C421 C 0.18373 0.44713 0.67631 0.0
C422 C 0.18263 0.43944 0.71541 0.0
C423 C 0.21181 0.44102 0.73799 0.0
C424 C 0.28403 0.39633 0.69825 0.0
C425 C 0.29596 0.40096 0.66077 0.0
C426 C 0.28655 0.37967 0.62986 0.0
C427 C 0.26458 0.35366 0.63583 0.0
C428 C 0.252 0.34967 0.67333 0.0
C429 C 0.26183 0.37071 0.70433 0.0
C430 C 0.34424 0.38278 0.73991 0.0
C431 C 0.36233 0.38377 0.70518 0.0
C432 C 0.3684 0.35514 0.68289 0.0
C433 C 0.35737 0.32511 0.69576 0.0
C434 C 0.3451 0.32394 0.73393 0.0
C435 C 0.33786 0.35271 0.75558 0.0
C436 C 0.35922 0.42075 0.81303 0.0
C437 C 0.39311 0.42041 0.80194 0.0
C438 C 0.41804 0.4122 0.82842 0.0
C439 C 0.40936 0.40481 0.86642 0.0
C440 C 0.37545 0.40462 0.87713 0.0
C441 C 0.35063 0.41217 0.85057 0.0
C442 C 0.21 0.58206 0.82157 0.0
C443 C 0.25487 0.33073 0.60315 0.0
H444 H 0.9661 0.42485 0.88858 0.0
H445 H 0.82125 0.16999 0.58965 0.0
H446 H 0.85053 0.28896 0.92101 0.0
H447 H 0.8574 0.33252 0.97128 0.0
H448 H 0.77214 0.38253 0.92525 0.0
H449 H 0.76589 0.3391 0.87438 0.0
H450 H 0.90241 0.29854 0.8543 0.0
H451 H 0.93754 0.34609 0.87069 0.0
H452 H 0.85483 0.40916 0.84417 0.0
H453 H 0.82018 0.36145 0.82744 0.0
H454 H 0.89983 0.2462 0.78009 0.0
H455 H 0.93903 0.25717 0.72759 0.0
H456 H 0.88022 0.34107 0.70009 0.0
H457 H 0.84045 0.32908 0.75133 0.0
H458 H 0.8541 0.1934 0.77863 0.0
H459 H 0.85984 0.16025 0.71803 0.0
H460 H 0.80266 0.23148 0.65815 0.0
H461 H 0.79756 0.26457 0.7188 0.0
H462 H 0.80628 0.18655 0.84784 0.0
H463 H 0.79525 0.13337 0.81537 0.0
H464 H 0.73326 0.17946 0.73155 0.0
H465 H 0.74408 0.23221 0.76428 0.0
H466 H 0.78035 0.25307 0.92626 0.0
H467 H 0.72744 0.25489 0.96286 0.0
H468 H 0.67295 0.27014 0.85734 0.0
H469 H 0.72563 0.2696 0.82127 0.0
O470 O 0.95198 0.40639 0.88138 0.0
O471 O 0.90842 0.43768 0.86815 0.0
O472 O 0.84823 0.14641 0.64619 0.0
O473 O 0.81995 0.18287 0.61383 0.0
C474 C 0.81084 0.29055 0.85784 0.0
C475 C 0.83696 0.29775 0.83188 0.0
C476 C 0.84167 0.27817 0.79778 0.0
C477 C 0.82095 0.25101 0.7899 0.0
C478 C 0.79481 0.24381 0.81574 0.0
C479 C 0.78865 0.26438 0.84894 0.0
C480 C 0.80779 0.31101 0.89411 0.0
C481 C 0.83265 0.30879 0.92262 0.0
C482 C 0.8367 0.33375 0.95107 0.0
C483 C 0.81589 0.36121 0.95135 0.0
C484 C 0.78907 0.36195 0.92491 0.0
C485 C 0.78507 0.33697 0.89635 0.0
C486 C 0.85876 0.3266 0.83993 0.0
C487 C 0.89206 0.32266 0.85179 0.0
C488 C 0.912 0.34985 0.86125 0.0
C489 C 0.89893 0.38143 0.85893 0.0
C490 C 0.86564 0.38521 0.84642 0.0
C491 C 0.8458 0.35802 0.83688 0.0
C492 C 0.86732 0.28677 0.7692 0.0
C493 C 0.89555 0.26695 0.76269 0.0
C494 C 0.91785 0.27325 0.73287 0.0
C495 C 0.91219 0.29954 0.70937 0.0
C496 C 0.8846 0.32009 0.71709 0.0
C497 C 0.86218 0.3136 0.74661 0.0
C498 C 0.82526 0.23121 0.75304 0.0
C499 C 0.8429 0.20177 0.75236 0.0
C500 C 0.84605 0.18288 0.71776 0.0
C501 C 0.83136 0.19304 0.68334 0.0
C502 C 0.8141 0.22284 0.68414 0.0
C503 C 0.81118 0.2418 0.71869 0.0
C504 C 0.776 0.21317 0.80834 0.0
C505 C 0.78863 0.18487 0.82394 0.0
C506 C 0.7827 0.1546 0.80509 0.0
C507 C 0.76376 0.1524 0.77075 0.0
C508 C 0.7476 0.18034 0.75823 0.0
C509 C 0.75358 0.21056 0.77706 0.0
C510 C 0.75694 0.26112 0.871 0.0
C511 C 0.75698 0.25648 0.911 0.0
C512 C 0.72683 0.25741 0.9318 0.0
C513 C 0.69621 0.2623 0.91274 0.0
C514 C 0.69615 0.26568 0.87254 0.0
C515 C 0.72623 0.26531 0.85194 0.0
C516 C 0.91995 0.41026 0.8697 0.0
C517 C 0.8338 0.17263 0.64677 0.0
H518 H 0.98693 0.65453 0.82954 0.0
H519 H 0.66607 0.71762 0.03726 0.0
H520 H 0.88016 0.80285 0.8164 0.0
H521 H 0.91972 0.81612 0.76512 0.0
H522 H 0.85084 0.77622 0.67872 0.0
H523 H 0.81119 0.76318 0.73021 0.0
H524 H 0.8805 0.74495 0.87959 0.0
H525 H 0.92971 0.7102 0.86868 0.0
H526 H 0.8865 0.67209 0.76077 0.0
H527 H 0.83726 0.7067 0.77226 0.0
H528 H 0.8209 0.74593 0.94191 0.0
H529 H 0.81914 0.70061 0.98534 0.0
H530 H 0.79757 0.63421 0.88779 0.0
H531 H 0.79803 0.67977 0.84458 0.0
H532 H 0.77227 0.80593 0.93667 0.0
H533 H 0.73914 0.79908 0.99529 0.0
H534 H 0.70016 0.70833 0.94517 0.0
H535 H 0.73294 0.71579 0.88641 0.0
H536 H 0.7709 0.85518 0.86555 0.0
H537 H 0.72445 0.8898 0.88904 0.0
H538 H 0.65678 0.80812 0.87349 0.0
H539 H 0.70274 0.77452 0.84764 0.0
H540 H 0.82256 0.85048 0.79961 0.0
H541 H 0.80908 0.88872 0.74981 0.0
H542 H 0.72196 0.83162 0.7165 0.0
H543 H 0.73587 0.79299 0.76608 0.0
O544 O 0.96721 0.66803 0.83331 0.0
O545 O 0.94396 0.64932 0.778 0.0
O546 O 0.69863 0.76868 0.03792 0.0
O547 O 0.67882 0.72127 0.01407 0.0
C548 C 0.81875 0.77486 0.80845 0.0
C549 C 0.82553 0.74945 0.83348 0.0
C550 C 0.80396 0.74423 0.86509 0.0
C551 C 0.77627 0.76515 0.87239 0.0
C552 C 0.76906 0.79005 0.8469 0.0
C553 C 0.78977 0.79435 0.8144 0.0
C554 C 0.84283 0.782 0.77705 0.0
C555 C 0.87361 0.79698 0.7864 0.0
C556 C 0.89601 0.80478 0.75714 0.0
C557 C 0.88814 0.79747 0.71799 0.0
C558 C 0.85744 0.78217 0.70868 0.0
C559 C 0.83485 0.7747 0.73797 0.0
C560 C 0.85537 0.72837 0.8267 0.0
C561 C 0.88169 0.729 0.85368 0.0
C562 C 0.90978 0.70917 0.84734 0.0
C563 C 0.91206 0.68838 0.81383 0.0
C564 C 0.88557 0.68784 0.78685 0.0
C565 C 0.85747 0.70764 0.79328 0.0
C566 C 0.80934 0.71623 0.89008 0.0
C567 C 0.81618 0.72157 0.92982 0.0
C568 C 0.81504 0.69578 0.95456 0.0
C569 C 0.80799 0.66412 0.9398 0.0
C570 C 0.80311 0.65846 0.89974 0.0
C571 C 0.80359 0.68437 0.87508 0.0
C572 C 0.75507 0.76133 0.90734 0.0
C573 C 0.75634 0.78473 0.93829 0.0
C574 C 0.73749 0.78069 0.97179 0.0
C575 C 0.71711 0.75306 0.975 0.0
C576 C 0.71565 0.72984 0.94371 0.0
C577 C 0.73436 0.73401 0.91012 0.0
C578 C 0.74025 0.81222 0.85533 0.0
C579 C 0.74583 0.84508 0.86625 0.0
C580 C 0.71938 0.86468 0.88019 0.0
C581 C 0.68707 0.85153 0.88405 0.0
C582 C 0.6813 0.8191 0.87084 0.0
C583 C 0.70758 0.79975 0.8563 0.0
C584 C 0.78051 0.81871 0.78602 0.0
C585 C 0.80063 0.84616 0.78153 0.0
C586 C 0.79289 0.86793 0.75321 0.0
C587 C 0.76473 0.86275 0.72915 0.0
C588 C 0.74381 0.83601 0.7347 0.0
C589 C 0.75176 0.81402 0.76285 0.0
C590 C 0.94196 0.66736 0.80716 0.0
C591 C 0.69766 0.74829 0.01091 0.0
C592 C 0.00153 0.33471 0.58745 0.0
C593 C 0.06855 0.35846 0.47653 0.0
O594 O 0.99893 0.36453 0.57904 0.0
Zn595 Zn 0.02028 0.39605 0.5383 0.0
O596 O 0.0213 0.31566 0.56863 0.0
Zn597 Zn 0.03617 0.34671 0.53281 0.0
O598 O 0.06835 0.37782 0.56713 0.0
O599 O 0.04662 0.42703 0.57065 0.0
O600 O 0.06589 0.33154 0.49256 0.0
O601 O 0.05302 0.38377 0.49022 0.0
O602 O 0.98016 0.41016 0.5122 0.0
O603 O 0.99086 0.35788 0.50179 0.0
C604 C 0.06996 0.40766 0.57933 0.0
C605 C 0.97213 0.38262 0.49645 0.0
C606 C 0.77821 0.053 0.64719 0.0
C607 C 0.80385 0.98574 0.53038 0.0
O608 O 0.80726 0.04675 0.63344 0.0
Zn609 Zn 0.79321 0.0196 0.58881 0.0
O610 O 0.7524 0.04084 0.62986 0.0
Zn611 Zn 0.73998 0.01027 0.5806 0.0
O612 O 0.7204 0.9725 0.6048 0.0
O613 O 0.77485 0.97798 0.61478 0.0
O614 O 0.7725 0.98794 0.53807 0.0
O615 O 0.82539 1.0002 0.55232 0.0
O616 O 0.76742 0.05308 0.55489 0.0
O617 O 0.71399 0.03996 0.54962 0.0
C618 C 0.74763 0.96218 0.61908 0.0
C619 C 0.73809 0.05892 0.54191 0.0
C620 C 0.98772 0.82085 0.59855 0.0
C621 C 0.0698 0.84752 0.49846 0.0
O622 O 0.99758 0.84903 0.59012 0.0
Zn623 Zn 0.02895 0.83544 0.54935 0.0
O624 O 0.00032 0.79578 0.58031 0.0
Zn625 Zn 0.03648 0.78475 0.53508 0.0
O626 O 0.07095 0.76092 0.56131 0.0
O627 O 0.06734 0.81285 0.5809 0.0
O628 O 0.06511 0.81691 0.50096 0.0
O629 O 0.05424 0.86741 0.52141 0.0
O630 O 0.99613 0.81415 0.50621 0.0
O631 O 0.00944 0.76229 0.49597 0.0
C632 C 0.08087 0.78484 0.58302 0.0
C633 C 0.99113 0.78645 0.48847 0.0
C634 C 0.33208 0.22863 0.57009 0.0
C635 C 0.31838 0.1404 0.47221 0.0
O636 O 0.35529 0.21479 0.55018 0.0
Zn637 Zn 0.3268 0.1865 0.51727 0.0
O638 O 0.30144 0.22217 0.5617 0.0
Zn639 Zn 0.27333 0.19153 0.52261 0.0
O640 O 0.24855 0.16524 0.55863 0.0
O641 O 0.30312 0.1565 0.55814 0.0
O642 O 0.29066 0.15323 0.48368 0.0
O643 O 0.34629 0.152 0.48438 0.0
O644 O 0.30464 0.21663 0.47552 0.0
O645 O 0.2506 0.22066 0.48832 0.0
C646 C 0.27388 0.14991 0.57094 0.0
C647 C 0.27554 0.22761 0.46736 0.0
C648 C 0.48599 0.92545 0.06754 0.0
C649 C 0.57591 0.90017 0.97544 0.0
O650 O 0.50817 0.94524 0.05663 0.0
Zn651 Zn 0.53193 0.91396 0.02289 0.0
O652 O 0.48706 0.89547 0.05569 0.0
Zn653 Zn 0.51701 0.86382 0.01876 0.0
O654 O 0.53654 0.83389 0.05427 0.0
O655 O 0.5545 0.88429 0.06408 0.0
O656 O 0.55796 0.87543 0.98261 0.0
O657 O 0.57007 0.92756 0.99273 0.0
O658 O 0.49391 0.90135 0.98057 0.0
O659 O 0.48376 0.84863 0.98158 0.0
C660 C 0.55439 0.85463 0.07346 0.0
C661 C 0.47752 0.87613 0.968 0.0
C662 C 0.25355 0.71569 0.08639 0.0
C663 C 0.29944 0.64264 0.98464 0.0
O664 O 0.28368 0.70609 0.08248 0.0
Zn665 Zn 0.27758 0.67977 0.0354 0.0
O666 O 0.23128 0.70643 0.06138 0.0
Zn667 Zn 0.2289 0.67505 0.00977 0.0
O668 O 0.19933 0.63979 0.02421 0.0
O669 O 0.24761 0.64153 0.05566 0.0
O670 O 0.26809 0.64832 0.98054 0.0
O671 O 0.31535 0.65546 0.01345 0.0
O672 O 0.26659 0.71398 0.99191 0.0
O673 O 0.21529 0.70412 0.97056 0.0
C674 C 0.21884 0.62856 0.04941 0.0
C675 C 0.24225 0.72058 0.96928 0.0
C676 C 0.5718 0.29214 0.99443 0.0
C677 C 0.47037 0.30877 0.0723 0.0
O678 O 0.56871 0.32139 0.0086 0.0
Zn679 Zn 0.53323 0.34967 0.04252 0.0
O680 O 0.54854 0.27167 0.99943 0.0
Zn681 Zn 0.51956 0.30009 0.03081 0.0
O682 O 0.50005 0.33286 0.99009 0.0
O683 O 0.51693 0.38225 0.0086 0.0
O684 O 0.47909 0.28278 0.05347 0.0
O685 O 0.4883 0.33442 0.06995 0.0
O686 O 0.56016 0.36282 0.08732 0.0
O687 O 0.54969 0.31016 0.08188 0.0
C688 C 0.50055 0.36349 0.98515 0.0
C689 C 0.56324 0.33461 0.10036 0.0
C690 C 0.83822 0.56107 0.15531 0.0
C691 C 0.83389 0.47248 0.05703 0.0
O692 O 0.86336 0.54536 0.14155 0.0
Zn693 Zn 0.83772 0.51732 0.10547 0.0
O694 O 0.80884 0.55513 0.14175 0.0
Zn695 Zn 0.78456 0.52387 0.09973 0.0
O696 O 0.75392 0.50012 0.13146 0.0
O697 O 0.80729 0.49076 0.14416 0.0
O698 O 0.80537 0.48593 0.06334 0.0
O699 O 0.85978 0.4826 0.07542 0.0
O700 O 0.82286 0.55033 0.06247 0.0
O701 O 0.76764 0.55442 0.06363 0.0
C702 C 0.77613 0.4861 0.15112 0.0
C703 C 0.79572 0.56255 0.04962 0.0
C704 C 0.0964 0.37166 0.37444 0.0
C705 C 0.1315 0.37095 0.37782 0.0
C706 C 0.07598 0.36725 0.40669 0.0
C707 C 0.09017 0.36116 0.44278 0.0
H708 H 0.08476 0.37636 0.34692 0.0
H709 H 0.04899 0.36865 0.40347 0.0
S710 S 0.18054 0.35615 0.46634 0.0
N711 N 0.17956 0.36366 0.4198 0.0
N712 N 0.14097 0.35425 0.48026 0.0
C713 C 0.12513 0.35973 0.44637 0.0
C714 C 0.14591 0.36493 0.41382 0.0
C715 C 0.69734 0.12149 0.47871 0.0
C716 C 0.72426 0.1423 0.47109 0.0
C717 C 0.70177 0.09458 0.50175 0.0
C718 C 0.73323 0.08776 0.51816 0.0
H719 H 0.67289 0.12572 0.46622 0.0
H720 H 0.68049 0.07893 0.50645 0.0
S721 S 0.81095 0.13703 0.50903 0.0
N722 N 0.78265 0.15572 0.48342 0.0
N723 N 0.79138 0.10557 0.52626 0.0
C724 C 0.76009 0.10912 0.51133 0.0
C725 C 0.75549 0.13627 0.48795 0.0
C726 C 0.90885 0.80294 0.43919 0.0
C727 C 0.90855 0.78015 0.40756 0.0
C728 C 0.93572 0.80454 0.46512 0.0
C729 C 0.9631 0.78313 0.46069 0.0
H730 H 0.88838 0.82005 0.44354 0.0
H731 H 0.9349 0.82269 0.48896 0.0
S732 S 0.97381 0.71853 0.38282 0.0
N733 N 0.93742 0.73551 0.37309 0.0
N734 N 0.98809 0.73815 0.42241 0.0
C735 C 0.96289 0.75985 0.42944 0.0
C736 C 0.9356 0.75852 0.40264 0.0
C737 C 0.30469 0.05141 0.45245 0.0
C738 C 0.29223 0.05003 0.41423 0.0
C739 C 0.31649 0.08064 0.47 0.0
C740 C 0.31631 0.10939 0.44989 0.0
H741 H 0.30405 0.03009 0.46953 0.0
H742 H 0.32383 0.08119 0.50026 0.0
S743 S 0.2895 0.1188 0.3486 0.0
N744 N 0.2835 0.0799 0.35582 0.0
N745 N 0.30443 0.13496 0.38983 0.0
C746 C 0.3053 0.1083 0.41142 0.0
C747 C 0.29358 0.07856 0.3933 0.0
C748 C 0.12826 0.79056 0.67607 0.0
C749 C 0.15947 0.80219 0.66382 0.0
C750 C 0.10353 0.78084 0.64904 0.0
C751 C 0.10947 0.78225 0.60912 0.0
H752 H 0.12208 0.7913 0.70665 0.0
H753 H 0.07877 0.77482 0.65943 0.0
S754 S 0.18728 0.80911 0.5621 0.0
N755 N 0.19542 0.81288 0.60901 0.0
N756 N 0.14886 0.7943 0.55842 0.0
C757 C 0.14127 0.79145 0.59647 0.0
C758 C 0.16641 0.80145 0.62385 0.0
C759 C 0.37713 0.28983 0.63838 0.0
C760 C 0.35277 0.29713 0.66711 0.0
C761 C 0.37077 0.26706 0.6075 0.0
C762 C 0.33967 0.25103 0.60399 0.0
H763 H 0.40103 0.30235 0.6393 0.0
H764 H 0.38996 0.26274 0.58566 0.0
S765 S 0.26836 0.25928 0.67301 0.0
N766 N 0.29678 0.28508 0.69067 0.0
N767 N 0.28528 0.24205 0.63356 0.0
C768 C 0.31565 0.25711 0.63333 0.0
C769 C 0.32209 0.28015 0.66466 0.0
C770 C 0.96996 0.30648 0.68283 0.0
C771 C 0.93501 0.30567 0.67685 0.0
C772 C 0.99182 0.31468 0.65312 0.0
C773 C 0.97926 0.3224 0.61681 0.0
H774 H 0.98036 0.3018 0.71099 0.0
H775 H 0.0185 0.31611 0.65895 0.0
S776 S 0.89066 0.31997 0.58474 0.0
N777 N 0.8894 0.31004 0.63046 0.0
N778 N 0.9306 0.32653 0.57515 0.0
C779 C 0.94469 0.32053 0.60993 0.0
C780 C 0.92249 0.31186 0.63986 0.0
C781 C 0.72778 0.90174 0.69515 0.0
C782 C 0.75829 0.88471 0.69738 0.0
C783 C 0.72325 0.92556 0.66781 0.0
C784 C 0.74914 0.9329 0.64203 0.0
H785 H 0.70796 0.8977 0.7158 0.0
H786 H 0.70021 0.9395 0.66835 0.0
S787 S 0.83138 0.89092 0.632 0.0
N788 N 0.81289 0.87381 0.66853 0.0
N789 N 0.80458 0.91827 0.61729 0.0
C790 C 0.77876 0.91429 0.64233 0.0
C791 C 0.78331 0.89028 0.67002 0.0
C792 C 0.92358 0.77947 0.66114 0.0
C793 C 0.91255 0.80462 0.68704 0.0
C794 C 0.94775 0.78512 0.63277 0.0
C795 C 0.96168 0.81627 0.62878 0.0
H796 H 0.91393 0.75503 0.6633 0.0
H797 H 0.95556 0.76473 0.61384 0.0
S798 S 0.93942 0.89086 0.6883 0.0
N799 N 0.91615 0.86205 0.70624 0.0
N800 N 0.9614 0.87293 0.65276 0.0
C801 C 0.95024 0.84183 0.65409 0.0
C802 C 0.92579 0.83594 0.68326 0.0
C803 C 0.29734 0.07572 0.62577 0.0
C804 C 0.2669 0.06584 0.64172 0.0
C805 C 0.2992 0.10341 0.60412 0.0
C806 C 0.2706 0.12242 0.59706 0.0
H807 H 0.32002 0.06182 0.62997 0.0
H808 H 0.32338 0.10946 0.59217 0.0
S809 S 0.1847 0.107 0.63318 0.0
N810 N 0.20747 0.07724 0.64986 0.0
N811 N 0.21079 0.12944 0.60873 0.0
C812 C 0.23996 0.11307 0.61342 0.0
C813 C 0.23817 0.08482 0.63588 0.0
C814 C 0.12407 0.4543 0.65446 0.0
C815 C 0.15521 0.43847 0.65032 0.0
C816 C 0.09667 0.44495 0.63065 0.0
C817 C 0.09939 0.41893 0.60269 0.0
H818 H 0.12091 0.47393 0.67626 0.0
H819 H 0.07302 0.45757 0.63486 0.0
S820 S 0.17594 0.36991 0.58083 0.0
N821 N 0.18744 0.39609 0.61615 0.0
N822 N 0.13621 0.37804 0.572 0.0
C823 C 0.1306 0.40312 0.59836 0.0
C824 C 0.15844 0.41299 0.62205 0.0
C825 C 0.79796 0.1112 0.73303 0.0
C826 C 0.76614 0.12318 0.7441 0.0
C827 C 0.80166 0.08789 0.70234 0.0
C828 C 0.77361 0.07535 0.68189 0.0
H829 H 0.82036 0.12105 0.74695 0.0
H830 H 0.82677 0.08035 0.69398 0.0
S831 S 0.68438 0.09591 0.70328 0.0
N832 N 0.706 0.11889 0.73492 0.0
N833 N 0.71246 0.07474 0.67757 0.0
C834 C 0.74143 0.08579 0.69434 0.0
C835 C 0.73782 0.10977 0.72535 0.0
C836 C 0.90511 0.34179 0.43263 0.0
C837 C 0.87929 0.36501 0.43244 0.0
C838 C 0.93516 0.34815 0.45261 0.0
C839 C 0.94084 0.37808 0.47322 0.0
H840 H 0.90165 0.318 0.41828 0.0
H841 H 0.95386 0.32906 0.45236 0.0
S842 S 0.88183 0.44794 0.47963 0.0
N843 N 0.8618 0.41973 0.4529 0.0
N844 N 0.91833 0.43182 0.49065 0.0
C845 C 0.91557 0.40196 0.4723 0.0
C846 C 0.88479 0.39536 0.45199 0.0
C847 C 0.82101 0.90888 0.47123 0.0
C848 C 0.81211 0.91767 0.43376 0.0
C849 C 0.82197 0.93217 0.50232 0.0
C850 C 0.81375 0.96477 0.4968 0.0
H851 H 0.82559 0.88362 0.47683 0.0
H852 H 0.82669 0.92422 0.53125 0.0
S853 S 0.79025 1.00025 0.40428 0.0
N854 N 0.79672 0.96135 0.39256 0.0
N855 N 0.79778 0.00496 0.45129 0.0
C856 C 0.80645 0.97409 0.45925 0.0
C857 C 0.80588 0.95054 0.42756 0.0
C858 C 0.13829 0.89646 0.45118 0.0
C859 C 0.14349 0.87893 0.41561 0.0
C860 C 0.11353 0.88691 0.47734 0.0
C861 C 0.09381 0.85902 0.46929 0.0
H862 H 0.15338 0.91772 0.45874 0.0
H863 H 0.11043 0.90094 0.50448 0.0
S864 S 0.09743 0.80518 0.37976 0.0
N865 N 0.12645 0.833 0.37329 0.0
N866 N 0.08073 0.81452 0.42265 0.0
C867 C 0.09875 0.84146 0.43367 0.0
C868 C 0.12338 0.85155 0.4068 0.0
C869 C 0.24392 0.29133 0.39993 0.0
C870 C 0.26378 0.28564 0.36655 0.0
C871 C 0.24728 0.27211 0.43223 0.0
C872 C 0.27124 0.24704 0.43263 0.0
H873 H 0.22558 0.31075 0.401 0.0
H874 H 0.23155 0.27739 0.45733 0.0
S875 S 0.32878 0.2219 0.35203 0.0
N876 N 0.30749 0.25267 0.33547 0.0
N877 N 0.31444 0.21701 0.3962 0.0
C878 C 0.29107 0.24103 0.39927 0.0
C879 C 0.28717 0.26018 0.36621 0.0
C880 C 0.62672 0.86792 0.89025 0.0
C881 C 0.65981 0.87021 0.90445 0.0
C882 C 0.59962 0.87984 0.91248 0.0
C883 C 0.60466 0.89527 0.94921 0.0
H884 H 0.62157 0.85544 0.8625 0.0
H885 H 0.57439 0.87575 0.90156 0.0
S886 S 0.6859 0.90889 0.99932 0.0
N887 N 0.69587 0.88988 0.95764 0.0
N888 N 0.64477 0.91355 0.99841 0.0
C889 C 0.63755 0.89965 0.96283 0.0
C890 C 0.6652 0.88688 0.94063 0.0
C891 C 0.22346 0.77557 0.88654 0.0
C892 C 0.25321 0.79358 0.88338 0.0
C893 C 0.22004 0.7523 0.91457 0.0
C894 C 0.24615 0.74629 0.9408 0.0
H895 H 0.20281 0.77919 0.86682 0.0
H896 H 0.19677 0.73879 0.91543 0.0
S897 S 0.32844 0.78893 0.94599 0.0
N898 N 0.30865 0.80513 0.9097 0.0
N899 N 0.3025 0.76159 0.96243 0.0
C900 C 0.27588 0.76469 0.93828 0.0
C901 C 0.27935 0.78824 0.90957 0.0
C902 C 0.45497 0.36867 0.88912 0.0
C903 C 0.4353 0.39677 0.89512 0.0
C904 C 0.47678 0.35853 0.91808 0.0
C905 C 0.48026 0.37659 0.95361 0.0
H906 H 0.45248 0.35375 0.8625 0.0
H907 H 0.49065 0.33611 0.91286 0.0
S908 S 0.43507 0.45268 0.98273 0.0
N909 N 0.42103 0.44286 0.93866 0.0
N910 N 0.46269 0.42438 0.99267 0.0
C911 C 0.4616 0.4054 0.95931 0.0
C912 C 0.43891 0.41532 0.93017 0.0
C913 C 0.82856 0.38593 0.0175 0.0
C914 C 0.82343 0.38977 0.97767 0.0
C915 C 0.83431 0.41293 0.04304 0.0
C916 C 0.83534 0.44442 0.0294 0.0
H917 H 0.82697 0.36205 0.02915 0.0
H918 H 0.83646 0.40932 0.07381 0.0
S919 S 0.82738 0.46728 0.92759 0.0
N920 N 0.82301 0.42733 0.92548 0.0
N921 N 0.83294 0.47806 0.97389 0.0
C922 C 0.83162 0.44852 0.98965 0.0
C923 C 0.82593 0.42115 0.96362 0.0
C924 C 0.62312 0.34914 0.18552 0.0
C925 C 0.62274 0.31913 0.20318 0.0
C926 C 0.60348 0.35422 0.15259 0.0
C927 C 0.5826 0.32949 0.13632 0.0
H928 H 0.63929 0.36856 0.19672 0.0
H929 H 0.60517 0.37748 0.13944 0.0
S930 S 0.56971 0.24781 0.1751 0.0
N931 N 0.59782 0.26542 0.20431 0.0
N932 N 0.56089 0.27466 0.14271 0.0
C933 C 0.58114 0.29976 0.15479 0.0
C934 C 0.60119 0.29466 0.18814 0.0
C935 C 0.86832 0.63859 0.20722 0.0
C936 C 0.84056 0.64707 0.23084 0.0
C937 C 0.86905 0.60905 0.185 0.0
C938 C 0.84183 0.58741 0.18551 0.0
H939 H 0.88874 0.65565 0.20431 0.0
H940 H 0.8898 0.6043 0.16529 0.0
S941 S 0.76508 0.59637 0.24572 0.0
N942 N 0.78651 0.63005 0.25558 0.0
N943 N 0.78833 0.57449 0.21471 0.0
C944 C 0.81525 0.59445 0.21128 0.0
C945 C 0.81448 0.62433 0.23376 0.0
C946 C 0.39936 0.92853 0.11078 0.0
C947 C 0.40372 0.94798 0.14501 0.0
C948 C 0.42601 0.92256 0.08518 0.0
C949 C 0.45785 0.93622 0.09255 0.0
H950 H 0.37563 0.91646 0.10471 0.0
H951 H 0.42188 0.90639 0.05985 0.0
S952 S 0.48156 0.99099 0.17653 0.0
N953 N 0.44166 0.98241 0.18402 0.0
N954 N 0.49187 0.97154 0.13519 0.0
C955 C 0.46217 0.95711 0.12556 0.0
C956 C 0.43507 0.96283 0.15206 0.0
C957 C 0.2023 0.54086 0.07014 0.0
C958 C 0.21072 0.54037 0.10976 0.0
C959 C 0.202 0.57019 0.05096 0.0
C960 C 0.21023 0.59974 0.07087 0.0
H961 H 0.19782 0.51831 0.05339 0.0
H962 H 0.19763 0.56941 0.01996 0.0
S963 S 0.2281 0.61231 0.17586 0.0
N964 N 0.22257 0.57267 0.16916 0.0
N965 N 0.22306 0.62739 0.13285 0.0
C966 C 0.21628 0.59981 0.11089 0.0
C967 C 0.21624 0.57021 0.13043 0.0
C968 C 0.40466 0.34282 0.14239 0.0
C969 C 0.38193 0.31704 0.14555 0.0
C970 C 0.43308 0.33955 0.11895 0.0
C971 C 0.44013 0.31033 0.09746 0.0
H972 H 0.39991 0.3662 0.15722 0.0
H973 H 0.44939 0.36048 0.11739 0.0
S974 S 0.38908 0.23489 0.09706 0.0
N975 N 0.36864 0.26092 0.12641 0.0
N976 N 0.42229 0.25461 0.08196 0.0
C977 C 0.4179 0.28404 0.10087 0.0
C978 C 0.38874 0.28746 0.12489 0.0
C979 C 0.78168 0.43995 0.24291 0.0
C980 C 0.75538 0.41742 0.23849 0.0
C981 C 0.78758 0.46268 0.21486 0.0
C982 C 0.76694 0.46411 0.18188 0.0
H983 H 0.79854 0.43918 0.26747 0.0
H984 H 0.80878 0.479 0.21876 0.0
S985 S 0.69359 0.41145 0.15819 0.0
N986 N 0.70784 0.39841 0.19956 0.0
N987 N 0.71839 0.44179 0.14723 0.0
C988 C 0.73971 0.44255 0.17797 0.0
C989 C 0.73411 0.41898 0.20617 0.0
C990 C 0.6145 0.80598 0.13305 0.0
C991 C 0.62579 0.82949 0.16108 0.0
C992 C 0.59003 0.81368 0.1057 0.0
C993 C 0.57624 0.84513 0.10558 0.0
H994 H 0.62569 0.78198 0.1312 0.0
H995 H 0.58306 0.79538 0.08348 0.0
S996 S 0.59362 0.9135 0.17715 0.0
N997 N 0.61865 0.88401 0.19005 0.0
N998 N 0.57286 0.89863 0.13883 0.0
C999 C 0.58594 0.86814 0.13504 0.0
C1000 C 0.61069 0.86028 0.16275 0.0
C1001 C 0.24342 0.75042 0.18928 0.0
C1002 C 0.22857 0.78109 0.18436 0.0
C1003 C 0.25154 0.72938 0.15745 0.0
C1004 C 0.24398 0.73757 0.11954 0.0
H1005 H 0.24961 0.74276 0.21793 0.0
H1006 H 0.26376 0.70649 0.16255 0.0
S1007 S 0.20298 0.8128 0.0895 0.0
N1008 N 0.20597 0.81761 0.13711 0.0
N1009 N 0.21908 0.77667 0.07816 0.0
C1010 C 0.22745 0.76692 0.11392 0.0
C1011 C 0.22013 0.78895 0.14609 0.0
C1012 C 0.41016 0.91684 0.91032 0.0
C1013 C 0.39576 0.89088 0.8884 0.0
C1014 C 0.43685 0.91168 0.93551 0.0
C1015 C 0.44985 0.88026 0.94008 0.0
H1016 H 0.40101 0.94139 0.90755 0.0
H1017 H 0.44711 0.93256 0.95182 0.0
S1018 S 0.41952 0.80403 0.88969 0.0
N1019 N 0.39549 0.83275 0.87279 0.0
N1020 N 0.44551 0.82268 0.92079 0.0
C1021 C 0.43521 0.85397 0.91857 0.0
C1022 C 0.40822 0.85939 0.8925 0.0
C1023 C 0.34086 0.56556 0.94543 0.0
C1024 C 0.33191 0.5651 0.90599 0.0
C1025 C 0.33308 0.59242 0.97054 0.0
C1026 C 0.31542 0.61911 0.957 0.0
H1027 H 0.35255 0.54445 0.95719 0.0
H1028 H 0.33866 0.59121 0.00114 0.0
S1029 S 0.28836 0.63051 0.85592 0.0
N1030 N 0.30653 0.59444 0.85418 0.0
N1031 N 0.29132 0.64451 0.90148 0.0
C1032 C 0.30793 0.61958 0.91731 0.0
C1033 C 0.31632 0.59263 0.89174 0.0
C1034 C 0.66313 0.29231 0.96416 0.0
C1035 C 0.66476 0.26729 0.93503 0.0
C1036 C 0.63293 0.29994 0.98314 0.0
C1037 C 0.60327 0.28254 0.97416 0.0
H1038 H 0.68516 0.30676 0.97151 0.0
H1039 H 0.63286 0.31975 0.00506 0.0
S1040 S 0.59478 0.21376 0.90113 0.0
N1041 N 0.63461 0.22451 0.89859 0.0
N1042 N 0.57778 0.23842 0.93489 0.0
C1043 C 0.60479 0.25682 0.9458 0.0
C1044 C 0.63553 0.24936 0.92601 0.0
C1045 C 0.77983 0.6391 0.99572 0.0
C1046 C 0.80443 0.6373 0.96648 0.0
C1047 C 0.77626 0.61418 0.02169 0.0
C1048 C 0.79769 0.58702 0.01981 0.0
H1049 H 0.76324 0.65993 0.99848 0.0
H1050 H 0.7573 0.6167 0.04411 0.0
S1051 S 0.8655 0.57054 0.94795 0.0
N1052 N 0.84975 0.60585 0.93636 0.0
N1053 N 0.84375 0.55943 0.98576 0.0
C1054 C 0.82218 0.58487 0.99048 0.0
C1055 C 0.82535 0.60989 0.96362 0.0
loop_
_geom_bond_atom_site_label_1
_geom_bond_atom_site_label_2
_geom_bond_distance
_geom_bond_site_symmetry_2
_ccdc_geom_bond_type
H0 O26 0.856 . S
H1 O29 0.854 . S
H2 C37 0.930 . S
H3 C38 0.930 . S
H4 C40 0.930 . S
H5 C41 0.930 . S
H6 C43 0.931 . S
H7 C44 0.930 . S
H8 C46 0.930 . S
H9 C47 0.929 . S
H10 C49 0.930 . S
H11 C50 0.931 . S
H12 C52 0.930 . S
H13 C53 0.929 . S
H14 C55 0.931 . S
H15 C56 0.930 . S
H16 C58 0.930 . S
H17 C59 0.932 . S
H18 C61 0.930 . S
H19 C62 0.929 . S
H20 C64 0.931 . S
H21 C65 0.930 . S
H22 C67 0.929 . S
H23 C68 0.931 . S
H24 C70 0.930 . S
H25 C71 0.929 . S
O26 H0 0.856 . S
O26 C72 1.300 . S
O27 C72 1.209 . S
O28 C73 1.199 . S
O29 H1 0.854 . S
O29 C73 1.297 . S
C30 C31 1.404 . S
C30 C35 1.397 . S
C30 C36 1.492 . S
C31 C30 1.404 . S
C31 C32 1.396 . S
C31 C42 1.492 . S
C32 C31 1.396 . S
C32 C33 1.397 . S
C32 C48 1.509 . S
C33 C32 1.397 . S
C33 C34 1.412 . S
C33 C54 1.485 . S
C34 C33 1.412 . S
C34 C35 1.388 . S
C34 C60 1.490 . S
C35 C30 1.397 . S
C35 C34 1.388 . S
C35 C66 1.519 . S
C36 C30 1.492 . S
C36 C37 1.363 . S
C36 C41 1.390 . S
C37 H2 0.930 . S
C37 C36 1.363 . S
C37 C38 1.372 . S
C38 H3 0.930 . S
C38 C37 1.372 . S
C38 C39 1.383 . S
C39 C38 1.383 . S
C39 C40 1.395 . S
C40 H4 0.930 . S
C40 C39 1.395 . S
C40 C41 1.362 . S
C41 H5 0.930 . S
C41 C36 1.390 . S
C41 C40 1.362 . S
C42 C31 1.492 . S
C42 C43 1.377 . S
C42 C47 1.397 . S
C43 H6 0.931 . S
C43 C42 1.377 . S
C43 C44 1.376 . S
C44 H7 0.930 . S
C44 C43 1.376 . S
C44 C45 1.376 . S
C45 C44 1.376 . S
C45 C46 1.378 . S
C45 C72 1.486 . S
C46 H8 0.930 . S
C46 C45 1.378 . S
C46 C47 1.376 . S
C47 H9 0.929 . S
C47 C42 1.397 . S
C47 C46 1.376 . S
C48 C32 1.509 . S
C48 C49 1.391 . S
C48 C53 1.386 . S
C49 H10 0.930 . S
C49 C48 1.391 . S
C49 C50 1.375 . S
C50 H11 0.931 . S
C50 C49 1.375 . S
C50 C51 1.375 . S
C51 C50 1.375 . S
C51 C52 1.361 . S
C52 H12 0.930 . S
C52 C51 1.361 . S
C52 C53 1.399 . S
C53 H13 0.929 . S
C53 C48 1.386 . S
C53 C52 1.399 . S
C54 C33 1.485 . S
C54 C55 1.394 . S
C54 C59 1.360 . S
C55 H14 0.931 . S
C55 C54 1.394 . S
C55 C56 1.372 . S
C56 H15 0.930 . S
C56 C55 1.372 . S
C56 C57 1.397 . S
C57 C56 1.397 . S
C57 C58 1.390 . S
C57 C73 1.476 . S
C58 H16 0.930 . S
C58 C57 1.390 . S
C58 C59 1.366 . S
C59 H17 0.932 . S
C59 C54 1.360 . S
C59 C58 1.366 . S
C60 C34 1.490 . S
C60 C61 1.380 . S
C60 C65 1.386 . S
C61 H18 0.930 . S
C61 C60 1.380 . S
C61 C62 1.381 . S
C62 H19 0.929 . S
C62 C61 1.381 . S
C62 C63 1.371 . S
C63 C62 1.371 . S
C63 C64 1.380 . S
C64 H20 0.931 . S
C64 C63 1.380 . S
C64 C65 1.387 . S
C65 H21 0.930 . S
C65 C60 1.386 . S
C65 C64 1.387 . S
C66 C35 1.519 . S
C66 C67 1.377 . S
C66 C71 1.361 . S
C67 H22 0.929 . S
C67 C66 1.377 . S
C67 C68 1.386 . S
C68 H23 0.931 . S
C68 C67 1.386 . S
C68 C69 1.363 . S
C69 C68 1.363 . S
C69 C70 1.385 . S
C70 H24 0.930 . S
C70 C69 1.385 . S
C70 C71 1.396 . S
C71 H25 0.929 . S
C71 C66 1.361 . S
C71 C70 1.396 . S
C72 O26 1.300 . S
C72 O27 1.209 . S
C72 C45 1.486 . S
C73 O28 1.199 . S
C73 O29 1.297 . S
C73 C57 1.476 . S
H74 O100 0.856 . S
H75 O103 0.854 . S
H76 C111 0.930 . S
H77 C112 0.930 . S
H78 C114 0.930 . S
H79 C115 0.930 . S
H80 C117 0.931 . S
H81 C118 0.930 . S
H82 C120 0.930 . S
H83 C121 0.929 . S
H84 C123 0.930 . S
H85 C124 0.931 . S
H86 C126 0.930 . S
H87 C127 0.929 . S
H88 C129 0.931 . S
H89 C130 0.930 . S
H90 C132 0.930 . S
H91 C133 0.932 . S
H92 C135 0.930 . S
H93 C136 0.929 . S
H94 C138 0.931 . S
H95 C139 0.930 . S
H96 C141 0.929 . S
H97 C142 0.931 . S
H98 C144 0.930 . S
H99 C145 0.929 . S
O100 H74 0.856 . S
O100 C146 1.300 . S
O101 C146 1.209 . S
O102 C147 1.199 . S
O103 H75 0.854 . S
O103 C147 1.297 . S
C104 C105 1.404 . S
C104 C109 1.397 . S
C104 C110 1.492 . S
C105 C104 1.404 . S
C105 C106 1.396 . S
C105 C116 1.492 . S
C106 C105 1.396 . S
C106 C107 1.397 . S
C106 C122 1.509 . S
C107 C106 1.397 . S
C107 C108 1.412 . S
C107 C128 1.485 . S
C108 C107 1.412 . S
C108 C109 1.388 . S
C108 C134 1.490 . S
C109 C104 1.397 . S
C109 C108 1.388 . S
C109 C140 1.519 . S
C110 C104 1.492 . S
C110 C111 1.363 . S
C110 C115 1.390 . S
C111 H76 0.930 . S
C111 C110 1.363 . S
C111 C112 1.372 . S
C112 H77 0.930 . S
C112 C111 1.372 . S
C112 C113 1.383 . S
C113 C112 1.383 . S
C113 C114 1.395 . S
C114 H78 0.930 . S
C114 C113 1.395 . S
C114 C115 1.362 . S
C115 H79 0.930 . S
C115 C110 1.390 . S
C115 C114 1.362 . S
C116 C105 1.492 . S
C116 C117 1.377 . S
C116 C121 1.397 . S
C117 H80 0.931 . S
C117 C116 1.377 . S
C117 C118 1.376 . S
C118 H81 0.930 . S
C118 C117 1.376 . S
C118 C119 1.376 . S
C119 C118 1.376 . S
C119 C120 1.378 . S
C119 C146 1.486 . S
C120 H82 0.930 . S
C120 C119 1.378 . S
C120 C121 1.376 . S
C121 H83 0.929 . S
C121 C116 1.397 . S
C121 C120 1.376 . S
C122 C106 1.509 . S
C122 C123 1.391 . S
C122 C127 1.386 . S
C123 H84 0.930 . S
C123 C122 1.391 . S
C123 C124 1.375 . S
C124 H85 0.931 . S
C124 C123 1.375 . S
C124 C125 1.375 . S
C125 C124 1.375 . S
C125 C126 1.361 . S
C126 H86 0.930 . S
C126 C125 1.361 . S
C126 C127 1.399 . S
C127 H87 0.929 . S
C127 C122 1.386 . S
C127 C126 1.399 . S
C128 C107 1.485 . S
C128 C129 1.394 . S
C128 C133 1.360 . S
C129 H88 0.931 . S
C129 C128 1.394 . S
C129 C130 1.372 . S
C130 H89 0.930 . S
C130 C129 1.372 . S
C130 C131 1.397 . S
C131 C130 1.397 . S
C131 C132 1.390 . S
C131 C147 1.476 . S
C132 H90 0.930 . S
C132 C131 1.390 . S
C132 C133 1.366 . S
C133 H91 0.932 . S
C133 C128 1.360 . S
C133 C132 1.366 . S
C134 C108 1.490 . S
C134 C135 1.380 . S
C134 C139 1.386 . S
C135 H92 0.930 . S
C135 C134 1.380 . S
C135 C136 1.381 . S
C136 H93 0.929 . S
C136 C135 1.381 . S
C136 C137 1.371 . S
C137 C136 1.371 . S
C137 C138 1.380 . S
C138 H94 0.931 . S
C138 C137 1.380 . S
C138 C139 1.387 . S
C139 H95 0.930 . S
C139 C134 1.386 . S
C139 C138 1.387 . S
C140 C109 1.519 . S
C140 C141 1.377 . S
C140 C145 1.361 . S
C141 H96 0.929 . S
C141 C140 1.377 . S
C141 C142 1.386 . S
C142 H97 0.931 . S
C142 C141 1.386 . S
C142 C143 1.363 . S
C143 C142 1.363 . S
C143 C144 1.385 . S
C144 H98 0.930 . S
C144 C143 1.385 . S
C144 C145 1.396 . S
C145 H99 0.929 . S
C145 C140 1.361 . S
C145 C144 1.396 . S
C146 O100 1.300 . S
C146 O101 1.209 . S
C146 C119 1.486 . S
C147 O102 1.199 . S
C147 O103 1.297 . S
C147 C131 1.476 . S
H148 O174 0.856 . S
H149 O177 0.854 . S
H150 C185 0.930 . S
H151 C186 0.930 . S
H152 C188 0.930 . S
H153 C189 0.930 . S
H154 C191 0.931 . S
H155 C192 0.930 . S
H156 C194 0.930 . S
H157 C195 0.929 . S
H158 C197 0.930 . S
H159 C198 0.931 . S
H160 C200 0.930 . S
H161 C201 0.929 . S
H162 C203 0.931 . S
H163 C204 0.930 . S
H164 C206 0.930 . S
H165 C207 0.932 . S
H166 C209 0.930 . S
H167 C210 0.929 . S
H168 C212 0.931 . S
H169 C213 0.930 . S
H170 C215 0.929 . S
H171 C216 0.931 . S
H172 C218 0.930 . S
H173 C219 0.929 . S
O174 H148 0.856 . S
O174 C220 1.300 . S
O175 C220 1.209 . S
O176 C221 1.199 . S
O177 H149 0.854 . S
O177 C221 1.297 . S
C178 C179 1.404 . S
C178 C183 1.397 . S
C178 C184 1.492 . S
C179 C178 1.404 . S
C179 C180 1.396 . S
C179 C190 1.492 . S
C180 C179 1.396 . S
C180 C181 1.397 . S
C180 C196 1.509 . S
C181 C180 1.397 . S
C181 C182 1.412 . S
C181 C202 1.485 . S
C182 C181 1.412 . S
C182 C183 1.388 . S
C182 C208 1.490 . S
C183 C178 1.397 . S
C183 C182 1.388 . S
C183 C214 1.519 . S
C184 C178 1.492 . S
C184 C185 1.363 . S
C184 C189 1.390 . S
C185 H150 0.930 . S
C185 C184 1.363 . S
C185 C186 1.372 . S
C186 H151 0.930 . S
C186 C185 1.372 . S
C186 C187 1.383 . S
C187 C186 1.383 . S
C187 C188 1.395 . S
C188 H152 0.930 . S
C188 C187 1.395 . S
C188 C189 1.362 . S
C189 H153 0.930 . S
C189 C184 1.390 . S
C189 C188 1.362 . S
C190 C179 1.492 . S
C190 C191 1.377 . S
C190 C195 1.397 . S
C191 H154 0.931 . S
C191 C190 1.377 . S
C191 C192 1.376 . S
C192 H155 0.930 . S
C192 C191 1.376 . S
C192 C193 1.376 . S
C193 C192 1.376 . S
C193 C194 1.378 . S
C193 C220 1.486 . S
C194 H156 0.930 . S
C194 C193 1.378 . S
C194 C195 1.376 . S
C195 H157 0.929 . S
C195 C190 1.397 . S
C195 C194 1.376 . S
C196 C180 1.509 . S
C196 C197 1.391 . S
C196 C201 1.386 . S
C197 H158 0.930 . S
C197 C196 1.391 . S
C197 C198 1.375 . S
C198 H159 0.931 . S
C198 C197 1.375 . S
C198 C199 1.375 . S
C199 C198 1.375 . S
C199 C200 1.361 . S
C200 H160 0.930 . S
C200 C199 1.361 . S
C200 C201 1.399 . S
C201 H161 0.929 . S
C201 C196 1.386 . S
C201 C200 1.399 . S
C202 C181 1.485 . S
C202 C203 1.394 . S
C202 C207 1.360 . S
C203 H162 0.931 . S
C203 C202 1.394 . S
C203 C204 1.372 . S
C204 H163 0.930 . S
C204 C203 1.372 . S
C204 C205 1.397 . S
C205 C204 1.397 . S
C205 C206 1.390 . S
C205 C221 1.476 . S
C206 H164 0.930 . S
C206 C205 1.390 . S
C206 C207 1.366 . S
C207 H165 0.932 . S
C207 C202 1.360 . S
C207 C206 1.366 . S
C208 C182 1.490 . S
C208 C209 1.380 . S
C208 C213 1.386 . S
C209 H166 0.930 . S
C209 C208 1.380 . S
C209 C210 1.381 . S
C210 H167 0.929 . S
C210 C209 1.381 . S
C210 C211 1.371 . S
C211 C210 1.371 . S
C211 C212 1.380 . S
C212 H168 0.931 . S
C212 C211 1.380 . S
C212 C213 1.387 . S
C213 H169 0.930 . S
C213 C208 1.386 . S
C213 C212 1.387 . S
C214 C183 1.519 . S
C214 C215 1.377 . S
C214 C219 1.361 . S
C215 H170 0.929 . S
C215 C214 1.377 . S
C215 C216 1.386 . S
C216 H171 0.931 . S
C216 C215 1.386 . S
C216 C217 1.363 . S
C217 C216 1.363 . S
C217 C218 1.385 . S
C218 H172 0.930 . S
C218 C217 1.385 . S
C218 C219 1.396 . S
C219 H173 0.929 . S
C219 C214 1.361 . S
C219 C218 1.396 . S
C220 O174 1.300 . S
C220 O175 1.209 . S
C220 C193 1.486 . S
C221 O176 1.199 . S
C221 O177 1.297 . S
C221 C205 1.476 . S
H222 O248 0.856 . S
H223 O251 0.854 . S
H224 C259 0.930 . S
H225 C260 0.930 . S
H226 C262 0.930 . S
H227 C263 0.930 . S
H228 C265 0.931 . S
H229 C266 0.930 . S
H230 C268 0.930 . S
H231 C269 0.929 . S
H232 C271 0.930 . S
H233 C272 0.931 . S
H234 C274 0.930 1_545 S
H235 C275 0.929 . S
H236 C277 0.931 . S
H237 C278 0.930 . S
H238 C280 0.930 . S
H239 C281 0.932 . S
H240 C283 0.930 . S
H241 C284 0.929 . S
H242 C286 0.931 . S
H243 C287 0.930 . S
H244 C289 0.929 . S
H245 C290 0.931 . S
H246 C292 0.930 . S
H247 C293 0.929 . S
O248 H222 0.856 . S
O248 C294 1.300 . S
O249 C294 1.209 . S
O250 C295 1.199 . S
O251 H223 0.854 . S
O251 C295 1.297 . S
C252 C253 1.404 . S
C252 C257 1.397 . S
C252 C258 1.492 . S
C253 C252 1.404 . S
C253 C254 1.396 . S
C253 C264 1.492 . S
C254 C253 1.396 . S
C254 C255 1.397 . S
C254 C270 1.509 . S
C255 C254 1.397 . S
C255 C256 1.412 . S
C255 C276 1.485 . S
C256 C255 1.412 . S
C256 C257 1.388 . S
C256 C282 1.490 . S
C257 C252 1.397 . S
C257 C256 1.388 . S
C257 C288 1.519 . S
C258 C252 1.492 . S
C258 C259 1.363 . S
C258 C263 1.390 . S
C259 H224 0.930 . S
C259 C258 1.363 . S
C259 C260 1.372 . S
C260 H225 0.930 . S
C260 C259 1.372 . S
C260 C261 1.383 1_565 S
C261 C260 1.383 1_545 S
C261 C262 1.395 . S
C262 H226 0.930 . S
C262 C261 1.395 . S
C262 C263 1.362 1_545 S
C263 H227 0.930 . S
C263 C258 1.390 . S
C263 C262 1.362 1_565 S
C264 C253 1.492 . S
C264 C265 1.377 . S
C264 C269 1.397 1_565 S
C265 H228 0.931 . S
C265 C264 1.377 . S
C265 C266 1.376 1_565 S
C266 H229 0.930 . S
C266 C265 1.376 1_545 S
C266 C267 1.376 . S
C267 C266 1.376 . S
C267 C268 1.378 . S
C267 C294 1.486 . S
C268 H230 0.930 . S
C268 C267 1.378 . S
C268 C269 1.376 . S
C269 H231 0.929 . S
C269 C264 1.397 1_545 S
C269 C268 1.376 . S
C270 C254 1.509 . S
C270 C271 1.391 . S
C270 C275 1.386 . S
C271 H232 0.930 . S
C271 C270 1.391 . S
C271 C272 1.375 . S
C272 H233 0.931 . S
C272 C271 1.375 . S
C272 C273 1.375 . S
C273 C272 1.375 . S
C273 C274 1.361 . S
C274 H234 0.930 1_565 S
C274 C273 1.361 . S
C274 C275 1.399 . S
C275 H235 0.929 . S
C275 C270 1.386 . S
C275 C274 1.399 . S
C276 C255 1.485 . S
C276 C277 1.394 . S
C276 C281 1.360 . S
C277 H236 0.931 . S
C277 C276 1.394 . S
C277 C278 1.372 . S
C278 H237 0.930 . S
C278 C277 1.372 . S
C278 C279 1.397 . S
C279 C278 1.397 . S
C279 C280 1.390 . S
C279 C295 1.476 . S
C280 H238 0.930 . S
C280 C279 1.390 . S
C280 C281 1.366 . S
C281 H239 0.932 . S
C281 C276 1.360 . S
C281 C280 1.366 . S
C282 C256 1.490 . S
C282 C283 1.380 . S
C282 C287 1.386 . S
C283 H240 0.930 . S
C283 C282 1.380 . S
C283 C284 1.381 . S
C284 H241 0.929 . S
C284 C283 1.381 . S
C284 C285 1.371 . S
C285 C284 1.371 . S
C285 C286 1.380 . S
C286 H242 0.931 . S
C286 C285 1.380 . S
C286 C287 1.387 . S
C287 H243 0.930 . S
C287 C282 1.386 . S
C287 C286 1.387 . S
C288 C257 1.519 . S
C288 C289 1.377 . S
C288 C293 1.361 . S
C289 H244 0.929 . S
C289 C288 1.377 . S
C289 C290 1.386 . S
C290 H245 0.931 . S
C290 C289 1.386 . S
C290 C291 1.363 . S
C291 C290 1.363 . S
C291 C292 1.385 . S
C292 H246 0.930 . S
C292 C291 1.385 . S
C292 C293 1.396 . S
C293 H247 0.929 . S
C293 C288 1.361 . S
C293 C292 1.396 . S
C294 O248 1.300 . S
C294 O249 1.209 . S
C294 C267 1.486 . S
C295 O250 1.199 . S
C295 O251 1.297 . S
C295 C279 1.476 . S
H296 O322 0.856 . S
H297 O325 0.854 . S
H298 C333 0.930 . S
H299 C334 0.930 . S
H300 C336 0.930 . S
H301 C337 0.930 . S
H302 C339 0.931 . S
H303 C340 0.930 . S
H304 C342 0.930 . S
H305 C343 0.929 . S
H306 C345 0.930 . S
H307 C346 0.931 . S
H308 C348 0.930 . S
H309 C349 0.929 . S
H310 C351 0.931 . S
H311 C352 0.930 . S
H312 C354 0.930 . S
H313 C355 0.932 . S
H314 C357 0.930 . S
H315 C358 0.929 . S
H316 C360 0.931 . S
H317 C361 0.930 . S
H318 C363 0.929 . S
H319 C364 0.931 . S
H320 C366 0.930 . S
H321 C367 0.929 . S
O322 H296 0.856 . S
O322 C368 1.300 . S
O323 C368 1.209 . S
O324 C369 1.199 . S
O325 H297 0.854 . S
O325 C369 1.297 . S
C326 C327 1.404 . S
C326 C331 1.397 . S
C326 C332 1.492 . S
C327 C326 1.404 . S
C327 C328 1.396 . S
C327 C338 1.492 . S
C328 C327 1.396 . S
C328 C329 1.397 . S
C328 C344 1.509 . S
C329 C328 1.397 . S
C329 C330 1.412 . S
C329 C350 1.485 . S
C330 C329 1.412 . S
C330 C331 1.388 . S
C330 C356 1.490 . S
C331 C326 1.397 . S
C331 C330 1.388 . S
C331 C362 1.519 . S
C332 C326 1.492 . S
C332 C333 1.363 . S
C332 C337 1.390 . S
C333 H298 0.930 . S
C333 C332 1.363 . S
C333 C334 1.372 . S
C334 H299 0.930 . S
C334 C333 1.372 . S
C334 C335 1.383 . S
C335 C334 1.383 . S
C335 C336 1.395 . S
C336 H300 0.930 . S
C336 C335 1.395 . S
C336 C337 1.362 . S
C337 H301 0.930 . S
C337 C332 1.390 . S
C337 C336 1.362 . S
C338 C327 1.492 . S
C338 C339 1.377 . S
C338 C343 1.397 . S
C339 H302 0.931 . S
C339 C338 1.377 . S
C339 C340 1.376 . S
C340 H303 0.930 . S
C340 C339 1.376 . S
C340 C341 1.376 1_565 S
C341 C340 1.376 1_545 S
C341 C342 1.378 . S
C341 C368 1.486 . S
C342 H304 0.930 . S
C342 C341 1.378 . S
C342 C343 1.376 1_545 S
C343 H305 0.929 . S
C343 C338 1.397 . S
C343 C342 1.376 1_565 S
C344 C328 1.509 . S
C344 C345 1.391 . S
C344 C349 1.386 1_565 S
C345 H306 0.930 . S
C345 C344 1.391 . S
C345 C346 1.375 1_565 S
C346 H307 0.931 . S
C346 C345 1.375 1_545 S
C346 C347 1.375 . S
C347 C346 1.375 . S
C347 C348 1.361 . S
C348 H308 0.930 . S
C348 C347 1.361 . S
C348 C349 1.399 . S
C349 H309 0.929 . S
C349 C344 1.386 1_545 S
C349 C348 1.399 . S
C350 C329 1.485 . S
C350 C351 1.394 . S
C350 C355 1.360 . S
C351 H310 0.931 . S
C351 C350 1.394 . S
C351 C352 1.372 . S
C352 H311 0.930 . S
C352 C351 1.372 . S
C352 C353 1.397 . S
C353 C352 1.397 . S
C353 C354 1.390 . S
C353 C369 1.476 . S
C354 H312 0.930 . S
C354 C353 1.390 . S
C354 C355 1.366 . S
C355 H313 0.932 . S
C355 C350 1.360 . S
C355 C354 1.366 . S
C356 C330 1.490 . S
C356 C357 1.380 . S
C356 C361 1.386 . S
C357 H314 0.930 . S
C357 C356 1.380 . S
C357 C358 1.381 . S
C358 H315 0.929 . S
C358 C357 1.381 . S
C358 C359 1.371 . S
C359 C358 1.371 . S
C359 C360 1.380 . S
C360 H316 0.931 . S
C360 C359 1.380 . S
C360 C361 1.387 . S
C361 H317 0.930 . S
C361 C356 1.386 . S
C361 C360 1.387 . S
C362 C331 1.519 . S
C362 C363 1.377 . S
C362 C367 1.361 . S
C363 H318 0.929 . S
C363 C362 1.377 . S
C363 C364 1.386 . S
C364 H319 0.931 . S
C364 C363 1.386 . S
C364 C365 1.363 . S
C365 C364 1.363 . S
C365 C366 1.385 . S
C366 H320 0.930 . S
C366 C365 1.385 . S
C366 C367 1.396 . S
C367 H321 0.929 . S
C367 C362 1.361 . S
C367 C366 1.396 . S
C368 O322 1.300 . S
C368 O323 1.209 . S
C368 C341 1.486 . S
C369 O324 1.199 . S
C369 O325 1.297 . S
C369 C353 1.476 . S
H370 O396 0.856 . S
H371 O399 0.854 . S
H372 C407 0.930 . S
H373 C408 0.930 . S
H374 C410 0.930 . S
H375 C411 0.930 . S
H376 C413 0.931 . S
H377 C414 0.930 . S
H378 C416 0.930 . S
H379 C417 0.929 . S
H380 C419 0.930 . S
H381 C420 0.931 . S
H382 C422 0.930 . S
H383 C423 0.929 . S
H384 C425 0.931 . S
H385 C426 0.930 . S
H386 C428 0.930 . S
H387 C429 0.932 . S
H388 C431 0.930 . S
H389 C432 0.929 . S
H390 C434 0.931 . S
H391 C435 0.930 . S
H392 C437 0.929 . S
H393 C438 0.931 . S
H394 C440 0.930 . S
H395 C441 0.929 . S
O396 H370 0.856 . S
O396 C442 1.300 . S
O397 C442 1.209 . S
O398 C443 1.199 . S
O399 H371 0.854 . S
O399 C443 1.297 . S
C400 C401 1.404 . S
C400 C405 1.397 . S
C400 C406 1.492 . S
C401 C400 1.404 . S
C401 C402 1.396 . S
C401 C412 1.492 . S
C402 C401 1.396 . S
C402 C403 1.397 . S
C402 C418 1.509 . S
C403 C402 1.397 . S
C403 C404 1.412 . S
C403 C424 1.485 . S
C404 C403 1.412 . S
C404 C405 1.388 . S
C404 C430 1.490 . S
C405 C400 1.397 . S
C405 C404 1.388 . S
C405 C436 1.519 . S
C406 C400 1.492 . S
C406 C407 1.363 . S
C406 C411 1.390 . S
C407 H372 0.930 . S
C407 C406 1.363 . S
C407 C408 1.372 . S
C408 H373 0.930 . S
C408 C407 1.372 . S
C408 C409 1.383 . S
C409 C408 1.383 . S
C409 C410 1.395 . S
C410 H374 0.930 . S
C410 C409 1.395 . S
C410 C411 1.362 . S
C411 H375 0.930 . S
C411 C406 1.390 . S
C411 C410 1.362 . S
C412 C401 1.492 . S
C412 C413 1.377 . S
C412 C417 1.397 . S
C413 H376 0.931 . S
C413 C412 1.377 . S
C413 C414 1.376 . S
C414 H377 0.930 . S
C414 C413 1.376 . S
C414 C415 1.376 . S
C415 C414 1.376 . S
C415 C416 1.378 . S
C415 C442 1.486 . S
C416 H378 0.930 . S
C416 C415 1.378 . S
C416 C417 1.376 . S
C417 H379 0.929 . S
C417 C412 1.397 . S
C417 C416 1.376 . S
C418 C402 1.509 . S
C418 C419 1.391 . S
C418 C423 1.386 . S
C419 H380 0.930 . S
C419 C418 1.391 . S
C419 C420 1.375 . S
C420 H381 0.931 . S
C420 C419 1.375 . S
C420 C421 1.375 . S
C421 C420 1.375 . S
C421 C422 1.361 . S
C422 H382 0.930 . S
C422 C421 1.361 . S
C422 C423 1.399 . S
C423 H383 0.929 . S
C423 C418 1.386 . S
C423 C422 1.399 . S
C424 C403 1.485 . S
C424 C425 1.394 . S
C424 C429 1.360 . S
C425 H384 0.931 . S
C425 C424 1.394 . S
C425 C426 1.372 . S
C426 H385 0.930 . S
C426 C425 1.372 . S
C426 C427 1.397 . S
C427 C426 1.397 . S
C427 C428 1.390 . S
C427 C443 1.476 . S
C428 H386 0.930 . S
C428 C427 1.390 . S
C428 C429 1.366 . S
C429 H387 0.932 . S
C429 C424 1.360 . S
C429 C428 1.366 . S
C430 C404 1.490 . S
C430 C431 1.380 . S
C430 C435 1.386 . S
C431 H388 0.930 . S
C431 C430 1.380 . S
C431 C432 1.381 . S
C432 H389 0.929 . S
C432 C431 1.381 . S
C432 C433 1.371 . S
C433 C432 1.371 . S
C433 C434 1.380 . S
C434 H390 0.931 . S
C434 C433 1.380 . S
C434 C435 1.387 . S
C435 H391 0.930 . S
C435 C430 1.386 . S
C435 C434 1.387 . S
C436 C405 1.519 . S
C436 C437 1.377 . S
C436 C441 1.361 . S
C437 H392 0.929 . S
C437 C436 1.377 . S
C437 C438 1.386 . S
C438 H393 0.931 . S
C438 C437 1.386 . S
C438 C439 1.363 . S
C439 C438 1.363 . S
C439 C440 1.385 . S
C440 H394 0.930 . S
C440 C439 1.385 . S
C440 C441 1.396 . S
C441 H395 0.929 . S
C441 C436 1.361 . S
C441 C440 1.396 . S
C442 O396 1.300 . S
C442 O397 1.209 . S
C442 C415 1.486 . S
C443 O398 1.199 . S
C443 O399 1.297 . S
C443 C427 1.476 . S
H444 O470 0.856 . S
H445 O473 0.854 . S
H446 C481 0.930 . S
H447 C482 0.930 . S
H448 C484 0.930 . S
H449 C485 0.930 . S
H450 C487 0.931 . S
H451 C488 0.930 . S
H452 C490 0.930 . S
H453 C491 0.929 . S
H454 C493 0.930 . S
H455 C494 0.931 . S
H456 C496 0.930 . S
H457 C497 0.929 . S
H458 C499 0.931 . S
H459 C500 0.930 . S
H460 C502 0.930 . S
H461 C503 0.932 . S
H462 C505 0.930 . S
H463 C506 0.929 . S
H464 C508 0.931 . S
H465 C509 0.930 . S
H466 C511 0.929 . S
H467 C512 0.931 . S
H468 C514 0.930 . S
H469 C515 0.929 . S
O470 H444 0.856 . S
O470 C516 1.300 . S
O471 C516 1.209 . S
O472 C517 1.199 . S
O473 H445 0.854 . S
O473 C517 1.297 . S
C474 C475 1.404 . S
C474 C479 1.397 . S
C474 C480 1.492 . S
C475 C474 1.404 . S
C475 C476 1.396 . S
C475 C486 1.492 . S
C476 C475 1.396 . S
C476 C477 1.397 . S
C476 C492 1.509 . S
C477 C476 1.397 . S
C477 C478 1.412 . S
C477 C498 1.485 . S
C478 C477 1.412 . S
C478 C479 1.388 . S
C478 C504 1.490 . S
C479 C474 1.397 . S
C479 C478 1.388 . S
C479 C510 1.519 . S
C480 C474 1.492 . S
C480 C481 1.363 . S
C480 C485 1.390 . S
C481 H446 0.930 . S
C481 C480 1.363 . S
C481 C482 1.372 . S
C482 H447 0.930 . S
C482 C481 1.372 . S
C482 C483 1.383 . S
C483 C482 1.383 . S
C483 C484 1.395 . S
C484 H448 0.930 . S
C484 C483 1.395 . S
C484 C485 1.362 . S
C485 H449 0.930 . S
C485 C480 1.390 . S
C485 C484 1.362 . S
C486 C475 1.492 . S
C486 C487 1.377 . S
C486 C491 1.397 . S
C487 H450 0.931 . S
C487 C486 1.377 . S
C487 C488 1.376 . S
C488 H451 0.930 . S
C488 C487 1.376 . S
C488 C489 1.376 . S
C489 C488 1.376 . S
C489 C490 1.378 . S
C489 C516 1.486 . S
C490 H452 0.930 . S
C490 C489 1.378 . S
C490 C491 1.376 . S
C491 H453 0.929 . S
C491 C486 1.397 . S
C491 C490 1.376 . S
C492 C476 1.509 . S
C492 C493 1.391 . S
C492 C497 1.386 . S
C493 H454 0.930 . S
C493 C492 1.391 . S
C493 C494 1.375 . S
C494 H455 0.931 . S
C494 C493 1.375 . S
C494 C495 1.375 . S
C495 C494 1.375 . S
C495 C496 1.361 . S
C496 H456 0.930 . S
C496 C495 1.361 . S
C496 C497 1.399 . S
C497 H457 0.929 . S
C497 C492 1.386 . S
C497 C496 1.399 . S
C498 C477 1.485 . S
C498 C499 1.394 . S
C498 C503 1.360 . S
C499 H458 0.931 . S
C499 C498 1.394 . S
C499 C500 1.372 . S
C500 H459 0.930 . S
C500 C499 1.372 . S
C500 C501 1.397 . S
C501 C500 1.397 . S
C501 C502 1.390 . S
C501 C517 1.476 . S
C502 H460 0.930 . S
C502 C501 1.390 . S
C502 C503 1.366 . S
C503 H461 0.932 . S
C503 C498 1.360 . S
C503 C502 1.366 . S
C504 C478 1.490 . S
C504 C505 1.380 . S
C504 C509 1.386 . S
C505 H462 0.930 . S
C505 C504 1.380 . S
C505 C506 1.381 . S
C506 H463 0.929 . S
C506 C505 1.381 . S
C506 C507 1.371 . S
C507 C506 1.371 . S
C507 C508 1.380 . S
C508 H464 0.931 . S
C508 C507 1.380 . S
C508 C509 1.387 . S
C509 H465 0.930 . S
C509 C504 1.386 . S
C509 C508 1.387 . S
C510 C479 1.519 . S
C510 C511 1.377 . S
C510 C515 1.361 . S
C511 H466 0.929 . S
C511 C510 1.377 . S
C511 C512 1.386 . S
C512 H467 0.931 . S
C512 C511 1.386 . S
C512 C513 1.363 . S
C513 C512 1.363 . S
C513 C514 1.385 . S
C514 H468 0.930 . S
C514 C513 1.385 . S
C514 C515 1.396 . S
C515 H469 0.929 . S
C515 C510 1.361 . S
C515 C514 1.396 . S
C516 O470 1.300 . S
C516 O471 1.209 . S
C516 C489 1.486 . S
C517 O472 1.199 . S
C517 O473 1.297 . S
C517 C501 1.476 . S
H518 O544 0.856 . S
H519 O547 0.854 . S
H520 C555 0.930 . S
H521 C556 0.930 . S
H522 C558 0.930 . S
H523 C559 0.930 . S
H524 C561 0.931 . S
H525 C562 0.930 . S
H526 C564 0.930 . S
H527 C565 0.929 . S
H528 C567 0.930 . S
H529 C568 0.931 . S
H530 C570 0.930 . S
H531 C571 0.929 . S
H532 C573 0.931 . S
H533 C574 0.930 1_554 S
H534 C576 0.930 . S
H535 C577 0.932 . S
H536 C579 0.930 . S
H537 C580 0.929 . S
H538 C582 0.931 . S
H539 C583 0.930 . S
H540 C585 0.929 . S
H541 C586 0.931 . S
H542 C588 0.930 . S
H543 C589 0.929 . S
O544 H518 0.856 . S
O544 C590 1.300 . S
O545 C590 1.209 . S
O546 C591 1.199 . S
O547 H519 0.854 . S
O547 C591 1.297 . S
C548 C549 1.404 . S
C548 C553 1.397 . S
C548 C554 1.492 . S
C549 C548 1.404 . S
C549 C550 1.396 . S
C549 C560 1.492 . S
C550 C549 1.396 . S
C550 C551 1.397 . S
C550 C566 1.509 . S
C551 C550 1.397 . S
C551 C552 1.412 . S
C551 C572 1.485 . S
C552 C551 1.412 . S
C552 C553 1.388 . S
C552 C578 1.490 . S
C553 C548 1.397 . S
C553 C552 1.388 . S
C553 C584 1.519 . S
C554 C548 1.492 . S
C554 C555 1.363 . S
C554 C559 1.390 . S
C555 H520 0.930 . S
C555 C554 1.363 . S
C555 C556 1.372 . S
C556 H521 0.930 . S
C556 C555 1.372 . S
C556 C557 1.383 . S
C557 C556 1.383 . S
C557 C558 1.395 . S
C558 H522 0.930 . S
C558 C557 1.395 . S
C558 C559 1.362 . S
C559 H523 0.930 . S
C559 C554 1.390 . S
C559 C558 1.362 . S
C560 C549 1.492 . S
C560 C561 1.377 . S
C560 C565 1.397 . S
C561 H524 0.931 . S
C561 C560 1.377 . S
C561 C562 1.376 . S
C562 H525 0.930 . S
C562 C561 1.376 . S
C562 C563 1.376 . S
C563 C562 1.376 . S
C563 C564 1.378 . S
C563 C590 1.486 . S
C564 H526 0.930 . S
C564 C563 1.378 . S
C564 C565 1.376 . S
C565 H527 0.929 . S
C565 C560 1.397 . S
C565 C564 1.376 . S
C566 C550 1.509 . S
C566 C567 1.391 . S
C566 C571 1.386 . S
C567 H528 0.930 . S
C567 C566 1.391 . S
C567 C568 1.375 . S
C568 H529 0.931 . S
C568 C567 1.375 . S
C568 C569 1.375 . S
C569 C568 1.375 . S
C569 C570 1.361 . S
C570 H530 0.930 . S
C570 C569 1.361 . S
C570 C571 1.399 . S
C571 H531 0.929 . S
C571 C566 1.386 . S
C571 C570 1.399 . S
C572 C551 1.485 . S
C572 C573 1.394 . S
C572 C577 1.360 . S
C573 H532 0.931 . S
C573 C572 1.394 . S
C573 C574 1.372 . S
C574 H533 0.930 1_556 S
C574 C573 1.372 . S
C574 C575 1.397 . S
C575 C574 1.397 . S
C575 C576 1.390 . S
C575 C591 1.476 1_556 S
C576 H534 0.930 . S
C576 C575 1.390 . S
C576 C577 1.366 . S
C577 H535 0.932 . S
C577 C572 1.360 . S
C577 C576 1.366 . S
C578 C552 1.490 . S
C578 C579 1.380 . S
C578 C583 1.386 . S
C579 H536 0.930 . S
C579 C578 1.380 . S
C579 C580 1.381 . S
C580 H537 0.929 . S
C580 C579 1.381 . S
C580 C581 1.371 . S
C581 C580 1.371 . S
C581 C582 1.380 . S
C582 H538 0.931 . S
C582 C581 1.380 . S
C582 C583 1.387 . S
C583 H539 0.930 . S
C583 C578 1.386 . S
C583 C582 1.387 . S
C584 C553 1.519 . S
C584 C585 1.377 . S
C584 C589 1.361 . S
C585 H540 0.929 . S
C585 C584 1.377 . S
C585 C586 1.386 . S
C586 H541 0.931 . S
C586 C585 1.386 . S
C586 C587 1.363 . S
C587 C586 1.363 . S
C587 C588 1.385 . S
C588 H542 0.930 . S
C588 C587 1.385 . S
C588 C589 1.396 . S
C589 H543 0.929 . S
C589 C584 1.361 . S
C589 C588 1.396 . S
C590 O544 1.300 . S
C590 O545 1.209 . S
C590 C563 1.486 . S
C591 O546 1.199 . S
C591 O547 1.297 . S
C591 C575 1.476 1_554 S
C592 O594 1.247 . S
C592 O596 1.258 . S
C593 O600 1.247 . S
C593 O601 1.258 . S
O594 C592 1.247 . S
O594 Zn595 2.028 . S
Zn595 O594 2.028 . S
Zn595 O599 2.035 1_655 S
Zn595 O601 2.035 1_655 S
Zn595 O602 2.028 . S
O596 C592 1.258 . S
O596 Zn597 2.035 1_655 S
Zn597 O596 2.035 1_455 S
Zn597 O598 2.028 . S
Zn597 O600 2.028 . S
Zn597 O603 2.035 1_455 S
O598 Zn597 2.028 . S
O598 C604 1.247 . S
O599 Zn595 2.035 1_455 S
O599 C604 1.258 . S
O600 C593 1.247 . S
O600 Zn597 2.028 . S
O601 C593 1.258 . S
O601 Zn595 2.035 1_455 S
O602 Zn595 2.028 . S
O602 C605 1.247 . S
O603 Zn597 2.035 1_655 S
O603 C605 1.258 . S
C604 O598 1.247 . S
C604 O599 1.258 . S
C605 O602 1.247 . S
C605 O603 1.258 . S
C606 O608 1.247 . S
C606 O610 1.258 . S
C607 O614 1.247 . S
C607 O615 1.258 . S
O608 C606 1.247 . S
O608 Zn609 2.028 . S
Zn609 O608 2.028 . S
Zn609 O613 2.035 1_545 S
Zn609 O615 2.035 1_545 S
Zn609 O616 2.028 . S
O610 C606 1.258 . S
O610 Zn611 2.035 . S
Zn611 O610 2.035 . S
Zn611 O612 2.028 1_545 S
Zn611 O614 2.028 1_545 S
Zn611 O617 2.035 . S
O612 Zn611 2.028 1_565 S
O612 C618 1.247 . S
O613 Zn609 2.035 1_565 S
O613 C618 1.258 . S
O614 C607 1.247 . S
O614 Zn611 2.028 1_565 S
O615 C607 1.258 . S
O615 Zn609 2.035 1_565 S
O616 Zn609 2.028 . S
O616 C619 1.247 . S
O617 Zn611 2.035 . S
O617 C619 1.258 . S
C618 O612 1.247 . S
C618 O613 1.258 . S
C619 O616 1.247 . S
C619 O617 1.258 . S
C620 O622 1.247 . S
C620 O624 1.258 . S
C621 O628 1.247 . S
C621 O629 1.258 . S
O622 C620 1.247 . S
O622 Zn623 2.028 . S
Zn623 O622 2.028 . S
Zn623 O627 2.035 . S
Zn623 O629 2.035 . S
Zn623 O630 2.028 . S
O624 C620 1.258 . S
O624 Zn625 2.035 . S
Zn625 O624 2.035 . S
Zn625 O626 2.028 . S
Zn625 O628 2.028 . S
Zn625 O631 2.035 . S
O626 Zn625 2.028 . S
O626 C632 1.247 . S
O627 Zn623 2.035 . S
O627 C632 1.258 . S
O628 C621 1.247 . S
O628 Zn625 2.028 . S
O629 C621 1.258 . S
O629 Zn623 2.035 . S
O630 Zn623 2.028 . S
O630 C633 1.245 1_455 S
O631 Zn625 2.035 . S
O631 C633 1.250 1_455 S
C632 O626 1.247 . S
C632 O627 1.258 . S
C633 O630 1.245 1_655 S
C633 O631 1.250 1_655 S
C634 O636 1.247 . S
C634 O638 1.258 . S
C635 O642 1.247 . S
C635 O643 1.258 . S
O636 C634 1.247 . S
O636 Zn637 2.028 . S
Zn637 O636 2.028 . S
Zn637 O641 2.035 . S
Zn637 O643 2.035 . S
Zn637 O644 2.028 . S
O638 C634 1.258 . S
O638 Zn639 2.035 . S
Zn639 O638 2.035 . S
Zn639 O640 2.028 . S
Zn639 O642 2.028 . S
Zn639 O645 2.035 . S
O640 Zn639 2.028 . S
O640 C646 1.247 . S
O641 Zn637 2.035 . S
O641 C646 1.258 . S
O642 C635 1.247 . S
O642 Zn639 2.028 . S
O643 C635 1.258 . S
O643 Zn637 2.035 . S
O644 Zn637 2.028 . S
O644 C647 1.247 . S
O645 Zn639 2.035 . S
O645 C647 1.258 . S
C646 O640 1.247 . S
C646 O641 1.258 . S
C647 O644 1.247 . S
C647 O645 1.258 . S
C648 O650 1.247 . S
C648 O652 1.258 . S
C649 O656 1.247 . S
C649 O657 1.258 . S
O650 C648 1.247 . S
O650 Zn651 2.028 . S
Zn651 O650 2.028 . S
Zn651 O655 2.035 . S
Zn651 O657 2.035 1_554 S
Zn651 O658 2.028 1_554 S
O652 C648 1.258 . S
O652 Zn653 2.035 . S
Zn653 O652 2.035 . S
Zn653 O654 2.028 . S
Zn653 O656 2.028 1_554 S
Zn653 O659 2.035 1_554 S
O654 Zn653 2.028 . S
O654 C660 1.247 . S
O655 Zn651 2.035 . S
O655 C660 1.258 . S
O656 C649 1.247 . S
O656 Zn653 2.028 1_556 S
O657 C649 1.258 . S
O657 Zn651 2.035 1_556 S
O658 Zn651 2.028 1_556 S
O658 C661 1.247 . S
O659 Zn653 2.035 1_556 S
O659 C661 1.258 . S
C660 O654 1.247 . S
C660 O655 1.258 . S
C661 O658 1.247 . S
C661 O659 1.258 . S
C662 O664 1.247 . S
C662 O666 1.258 . S
C663 O670 1.247 . S
C663 O671 1.258 . S
O664 C662 1.247 . S
O664 Zn665 2.028 . S
Zn665 O664 2.028 . S
Zn665 O669 2.035 . S
Zn665 O671 2.035 1_554 S
Zn665 O672 2.028 1_554 S
O666 C662 1.258 . S
O666 Zn667 2.035 . S
Zn667 O666 2.035 . S
Zn667 O668 2.028 . S
Zn667 O670 2.028 1_554 S
Zn667 O673 2.035 1_554 S
O668 Zn667 2.028 . S
O668 C674 1.247 . S
O669 Zn665 2.035 . S
O669 C674 1.258 . S
O670 C663 1.247 . S
O670 Zn667 2.028 1_556 S
O671 C663 1.258 . S
O671 Zn665 2.035 1_556 S
O672 Zn665 2.028 1_556 S
O672 C675 1.247 . S
O673 Zn667 2.035 1_556 S
O673 C675 1.258 . S
C674 O668 1.247 . S
C674 O669 1.258 . S
C675 O672 1.247 . S
C675 O673 1.258 . S
C676 O678 1.247 1_556 S
C676 O680 1.258 . S
C677 O684 1.247 . S
C677 O685 1.258 . S
O678 C676 1.247 1_554 S
O678 Zn679 2.028 . S
Zn679 O678 2.028 . S
Zn679 O683 2.035 1_554 S
Zn679 O685 2.035 . S
Zn679 O686 2.028 . S
O680 C676 1.258 . S
O680 Zn681 2.035 1_556 S
Zn681 O680 2.035 1_554 S
Zn681 O682 2.028 1_554 S
Zn681 O684 2.028 . S
Zn681 O687 2.035 . S
O682 Zn681 2.028 1_556 S
O682 C688 1.247 . S
O683 Zn679 2.035 1_556 S
O683 C688 1.258 . S
O684 C677 1.247 . S
O684 Zn681 2.028 . S
O685 C677 1.258 . S
O685 Zn679 2.035 . S
O686 Zn679 2.028 . S
O686 C689 1.247 . S
O687 Zn681 2.035 . S
O687 C689 1.258 . S
C688 O682 1.247 . S
C688 O683 1.258 . S
C689 O686 1.247 . S
C689 O687 1.258 . S
C690 O692 1.247 . S
C690 O694 1.258 . S
C691 O698 1.247 . S
C691 O699 1.258 . S
O692 C690 1.247 . S
O692 Zn693 2.028 . S
Zn693 O692 2.028 . S
Zn693 O697 2.035 . S
Zn693 O699 2.035 . S
Zn693 O700 2.028 . S
O694 C690 1.258 . S
O694 Zn695 2.035 . S
Zn695 O694 2.035 . S
Zn695 O696 2.028 . S
Zn695 O698 2.028 . S
Zn695 O701 2.035 . S
O696 Zn695 2.028 . S
O696 C702 1.247 . S
O697 Zn693 2.035 . S
O697 C702 1.258 . S
O698 C691 1.247 . S
O698 Zn695 2.028 . S
O699 C691 1.258 . S
O699 Zn693 2.035 . S
O700 Zn693 2.028 . S
O700 C703 1.247 . S
O701 Zn695 2.035 . S
O701 C703 1.258 . S
C702 O696 1.247 . S
C702 O697 1.258 . S
C703 O700 1.247 . S
C703 O701 1.258 . S
C704 C705 1.369 . S
C704 C706 1.419 . S
C704 H708 0.930 . S
C705 C704 1.369 . S
C705 C714 1.429 . S
C706 C704 1.419 . S
C706 C707 1.363 . S
C706 H709 0.929 . S
C707 C706 1.363 . S
C707 C713 1.428 . S
H708 C704 0.930 . S
H709 C706 0.929 . S
S710 N711 1.613 . S
S710 N712 1.610 . S
N711 S710 1.613 . S
N711 C714 1.350 . S
N712 S710 1.610 . S
N712 C713 1.351 . S
C713 C707 1.428 . S
C713 N712 1.351 . S
C713 C714 1.434 . S
C714 C705 1.429 . S
C714 N711 1.350 . S
C714 C713 1.434 . S
C715 C716 1.369 . S
C715 C717 1.419 . S
C715 H719 0.930 . S
C716 C715 1.369 . S
C716 C725 1.429 . S
C717 C715 1.419 . S
C717 C718 1.363 . S
C717 H720 0.929 . S
C718 C717 1.363 . S
C718 C724 1.428 . S
H719 C715 0.930 . S
H720 C717 0.929 . S
S721 N722 1.613 . S
S721 N723 1.610 . S
N722 S721 1.613 . S
N722 C725 1.350 . S
N723 S721 1.610 . S
N723 C724 1.351 . S
C724 C718 1.428 . S
C724 N723 1.351 . S
C724 C725 1.434 . S
C725 C716 1.429 . S
C725 N722 1.350 . S
C725 C724 1.434 . S
C726 C727 1.369 . S
C726 C728 1.419 . S
C726 H730 0.930 . S
C727 C726 1.369 . S
C727 C736 1.429 . S
C728 C726 1.419 . S
C728 C729 1.363 . S
C728 H731 0.929 . S
C729 C728 1.363 . S
C729 C735 1.428 . S
H730 C726 0.930 . S
H731 C728 0.929 . S
S732 N733 1.613 . S
S732 N734 1.610 . S
N733 S732 1.613 . S
N733 C736 1.350 . S
N734 S732 1.610 . S
N734 C735 1.351 . S
C735 C729 1.428 . S
C735 N734 1.351 . S
C735 C736 1.434 . S
C736 C727 1.429 . S
C736 N733 1.350 . S
C736 C735 1.434 . S
C737 C738 1.369 . S
C737 C739 1.419 . S
C737 H741 0.930 . S
C738 C737 1.369 . S
C738 C747 1.429 . S
C739 C737 1.419 . S
C739 C740 1.363 . S
C739 H742 0.929 . S
C740 C739 1.363 . S
C740 C746 1.428 . S
H741 C737 0.930 . S
H742 C739 0.929 . S
S743 N744 1.613 . S
S743 N745 1.610 . S
N744 S743 1.613 . S
N744 C747 1.350 . S
N745 S743 1.610 . S
N745 C746 1.351 . S
C746 C740 1.428 . S
C746 N745 1.351 . S
C746 C747 1.434 . S
C747 C738 1.429 . S
C747 N744 1.350 . S
C747 C746 1.434 . S
C748 C749 1.369 . S
C748 C750 1.419 . S
C748 H752 0.930 . S
C749 C748 1.369 . S
C749 C758 1.429 . S
C750 C748 1.419 . S
C750 C751 1.363 . S
C750 H753 0.929 . S
C751 C750 1.363 . S
C751 C757 1.428 . S
H752 C748 0.930 . S
H753 C750 0.929 . S
S754 N755 1.613 . S
S754 N756 1.610 . S
N755 S754 1.613 . S
N755 C758 1.350 . S
N756 S754 1.610 . S
N756 C757 1.351 . S
C757 C751 1.428 . S
C757 N756 1.351 . S
C757 C758 1.434 . S
C758 C749 1.429 . S
C758 N755 1.350 . S
C758 C757 1.434 . S
C759 C760 1.369 . S
C759 C761 1.419 . S
C759 H763 0.930 . S
C760 C759 1.369 . S
C760 C769 1.429 . S
C761 C759 1.419 . S
C761 C762 1.363 . S
C761 H764 0.929 . S
C762 C761 1.363 . S
C762 C768 1.428 . S
H763 C759 0.930 . S
H764 C761 0.929 . S
S765 N766 1.613 . S
S765 N767 1.610 . S
N766 S765 1.613 . S
N766 C769 1.350 . S
N767 S765 1.610 . S
N767 C768 1.351 . S
C768 C762 1.428 . S
C768 N767 1.351 . S
C768 C769 1.434 . S
C769 C760 1.429 . S
C769 N766 1.350 . S
C769 C768 1.434 . S
C770 C771 1.369 . S
C770 C772 1.419 . S
C770 H774 0.930 . S
C771 C770 1.369 . S
C771 C780 1.429 . S
C772 C770 1.419 . S
C772 C773 1.363 . S
C772 H775 0.929 . S
C773 C772 1.363 . S
C773 C779 1.428 . S
H774 C770 0.930 . S
H775 C772 0.929 . S
S776 N777 1.613 . S
S776 N778 1.610 . S
N777 S776 1.613 . S
N777 C780 1.350 . S
N778 S776 1.610 . S
N778 C779 1.351 . S
C779 C773 1.428 . S
C779 N778 1.351 . S
C779 C780 1.434 . S
C780 C771 1.429 . S
C780 N777 1.350 . S
C780 C779 1.434 . S
C781 C782 1.369 . S
C781 C783 1.419 . S
C781 H785 0.930 . S
C782 C781 1.369 . S
C782 C791 1.429 . S
C783 C781 1.419 . S
C783 C784 1.363 . S
C783 H786 0.929 . S
C784 C783 1.363 . S
C784 C790 1.428 . S
H785 C781 0.930 . S
H786 C783 0.929 . S
S787 N788 1.613 . S
S787 N789 1.610 . S
N788 S787 1.613 . S
N788 C791 1.350 . S
N789 S787 1.610 . S
N789 C790 1.351 . S
C790 C784 1.428 . S
C790 N789 1.351 . S
C790 C791 1.434 . S
C791 C782 1.429 . S
C791 N788 1.350 . S
C791 C790 1.434 . S
C792 C793 1.369 . S
C792 C794 1.419 . S
C792 H796 0.930 . S
C793 C792 1.369 . S
C793 C802 1.429 . S
C794 C792 1.419 . S
C794 C795 1.363 . S
C794 H797 0.929 . S
C795 C794 1.363 . S
C795 C801 1.428 . S
H796 C792 0.930 . S
H797 C794 0.929 . S
S798 N799 1.613 1_455 S
S798 N800 1.610 . S
N799 S798 1.613 1_655 S
N799 C802 1.350 . S
N800 S798 1.610 . S
N800 C801 1.351 1_455 S
C801 C795 1.428 . S
C801 N800 1.351 1_655 S
C801 C802 1.434 . S
C802 C793 1.429 . S
C802 N799 1.350 . S
C802 C801 1.434 . S
C803 C804 1.369 . S
C803 C805 1.419 . S
C803 H807 0.930 . S
C804 C803 1.369 . S
C804 C813 1.429 . S
C805 C803 1.419 . S
C805 C806 1.363 . S
C805 H808 0.929 . S
C806 C805 1.363 . S
C806 C812 1.428 . S
H807 C803 0.930 . S
H808 C805 0.929 . S
S809 N810 1.613 . S
S809 N811 1.610 . S
N810 S809 1.613 . S
N810 C813 1.350 . S
N811 S809 1.610 . S
N811 C812 1.351 . S
C812 C806 1.428 . S
C812 N811 1.351 . S
C812 C813 1.434 . S
C813 C804 1.429 . S
C813 N810 1.350 . S
C813 C812 1.434 . S
C814 C815 1.369 . S
C814 C816 1.419 . S
C814 H818 0.930 . S
C815 C814 1.369 . S
C815 C824 1.429 . S
C816 C814 1.419 . S
C816 C817 1.363 . S
C816 H819 0.929 . S
C817 C816 1.363 . S
C817 C823 1.428 . S
H818 C814 0.930 . S
H819 C816 0.929 . S
S820 N821 1.613 . S
S820 N822 1.610 . S
N821 S820 1.613 . S
N821 C824 1.350 . S
N822 S820 1.610 . S
N822 C823 1.351 . S
C823 C817 1.428 . S
C823 N822 1.351 . S
C823 C824 1.434 . S
C824 C815 1.429 . S
C824 N821 1.350 . S
C824 C823 1.434 . S
C825 C826 1.369 . S
C825 C827 1.419 . S
C825 H829 0.930 . S
C826 C825 1.369 . S
C826 C835 1.429 . S
C827 C825 1.419 . S
C827 C828 1.363 . S
C827 H830 0.929 . S
C828 C827 1.363 . S
C828 C834 1.428 . S
H829 C825 0.930 . S
H830 C827 0.929 . S
S831 N832 1.613 . S
S831 N833 1.610 . S
N832 S831 1.613 . S
N832 C835 1.350 . S
N833 S831 1.610 . S
N833 C834 1.351 . S
C834 C828 1.428 . S
C834 N833 1.351 . S
C834 C835 1.434 . S
C835 C826 1.429 . S
C835 N832 1.350 . S
C835 C834 1.434 . S
C836 C837 1.369 . S
C836 C838 1.419 . S
C836 H840 0.930 . S
C837 C836 1.369 . S
C837 C846 1.429 . S
C838 C836 1.419 . S
C838 C839 1.363 . S
C838 H841 0.929 . S
C839 C838 1.363 . S
C839 C845 1.428 . S
H840 C836 0.930 . S
H841 C838 0.929 . S
S842 N843 1.613 . S
S842 N844 1.610 . S
N843 S842 1.613 . S
N843 C846 1.350 . S
N844 S842 1.610 . S
N844 C845 1.351 . S
C845 C839 1.428 . S
C845 N844 1.351 . S
C845 C846 1.434 . S
C846 C837 1.429 . S
C846 N843 1.350 . S
C846 C845 1.434 . S
C847 C848 1.369 . S
C847 C849 1.419 . S
C847 H851 0.930 . S
C848 C847 1.369 . S
C848 C857 1.429 . S
C849 C847 1.419 . S
C849 C850 1.363 . S
C849 H852 0.929 . S
C850 C849 1.363 . S
C850 C856 1.428 . S
H851 C847 0.930 . S
H852 C849 0.929 . S
S853 N854 1.613 . S
S853 N855 1.610 . S
N854 S853 1.613 . S
N854 C857 1.350 . S
N855 S853 1.610 . S
N855 C856 1.351 . S
C856 C850 1.428 . S
C856 N855 1.351 . S
C856 C857 1.434 . S
C857 C848 1.429 . S
C857 N854 1.350 . S
C857 C856 1.434 . S
C858 C859 1.369 . S
C858 C860 1.419 . S
C858 H862 0.930 . S
C859 C858 1.369 . S
C859 C868 1.429 . S
C860 C858 1.419 . S
C860 C861 1.363 . S
C860 H863 0.929 . S
C861 C860 1.363 . S
C861 C867 1.428 . S
H862 C858 0.930 . S
H863 C860 0.929 . S
S864 N865 1.613 . S
S864 N866 1.610 . S
N865 S864 1.613 . S
N865 C868 1.350 . S
N866 S864 1.610 . S
N866 C867 1.351 . S
C867 C861 1.428 . S
C867 N866 1.351 . S
C867 C868 1.434 . S
C868 C859 1.429 . S
C868 N865 1.350 . S
C868 C867 1.434 . S
C869 C870 1.369 . S
C869 C871 1.419 . S
C869 H873 0.930 . S
C870 C869 1.369 . S
C870 C879 1.429 . S
C871 C869 1.419 . S
C871 C872 1.363 . S
C871 H874 0.929 . S
C872 C871 1.363 . S
C872 C878 1.428 . S
H873 C869 0.930 . S
H874 C871 0.929 . S
S875 N876 1.613 . S
S875 N877 1.610 . S
N876 S875 1.613 . S
N876 C879 1.350 . S
N877 S875 1.610 . S
N877 C878 1.351 . S
C878 C872 1.428 . S
C878 N877 1.351 . S
C878 C879 1.434 . S
C879 C870 1.429 . S
C879 N876 1.350 . S
C879 C878 1.434 . S
C880 C881 1.369 . S
C880 C882 1.419 . S
C880 H884 0.930 . S
C881 C880 1.369 . S
C881 C890 1.429 . S
C882 C880 1.419 . S
C882 C883 1.363 . S
C882 H885 0.929 . S
C883 C882 1.363 . S
C883 C889 1.428 . S
H884 C880 0.930 . S
H885 C882 0.929 . S
S886 N887 1.613 . S
S886 N888 1.610 . S
N887 S886 1.613 . S
N887 C890 1.350 . S
N888 S886 1.610 . S
N888 C889 1.351 . S
C889 C883 1.428 . S
C889 N888 1.351 . S
C889 C890 1.434 . S
C890 C881 1.429 . S
C890 N887 1.350 . S
C890 C889 1.434 . S
C891 C892 1.369 . S
C891 C893 1.419 . S
C891 H895 0.930 . S
C892 C891 1.369 . S
C892 C901 1.429 . S
C893 C891 1.419 . S
C893 C894 1.363 . S
C893 H896 0.929 . S
C894 C893 1.363 . S
C894 C900 1.428 . S
H895 C891 0.930 . S
H896 C893 0.929 . S
S897 N898 1.613 . S
S897 N899 1.610 . S
N898 S897 1.613 . S
N898 C901 1.350 . S
N899 S897 1.610 . S
N899 C900 1.351 . S
C900 C894 1.428 . S
C900 N899 1.351 . S
C900 C901 1.434 . S
C901 C892 1.429 . S
C901 N898 1.350 . S
C901 C900 1.434 . S
C902 C903 1.369 . S
C902 C904 1.419 . S
C902 H906 0.930 . S
C903 C902 1.369 . S
C903 C912 1.429 . S
C904 C902 1.419 . S
C904 C905 1.363 . S
C904 H907 0.929 . S
C905 C904 1.363 . S
C905 C911 1.428 . S
H906 C902 0.930 . S
H907 C904 0.929 . S
S908 N909 1.613 . S
S908 N910 1.610 . S
N909 S908 1.613 . S
N909 C912 1.350 . S
N910 S908 1.610 . S
N910 C911 1.351 . S
C911 C905 1.428 . S
C911 N910 1.351 . S
C911 C912 1.434 . S
C912 C903 1.429 . S
C912 N909 1.350 . S
C912 C911 1.434 . S
C913 C914 1.369 1_554 S
C913 C915 1.419 . S
C913 H917 0.930 . S
C914 C913 1.369 1_556 S
C914 C923 1.429 . S
C915 C913 1.419 . S
C915 C916 1.363 . S
C915 H918 0.929 . S
C916 C915 1.363 . S
C916 C922 1.410 1_554 S
H917 C913 0.930 . S
H918 C915 0.929 . S
S919 N920 1.613 . S
S919 N921 1.610 . S
N920 S919 1.613 . S
N920 C923 1.350 . S
N921 S919 1.610 . S
N921 C922 1.362 . S
C922 C916 1.410 1_556 S
C922 N921 1.362 . S
C922 C923 1.444 . S
C923 C914 1.429 . S
C923 N920 1.350 . S
C923 C922 1.444 . S
C924 C925 1.369 . S
C924 C926 1.419 . S
C924 H928 0.930 . S
C925 C924 1.369 . S
C925 C934 1.429 . S
C926 C924 1.419 . S
C926 C927 1.363 . S
C926 H929 0.929 . S
C927 C926 1.363 . S
C927 C933 1.428 . S
H928 C924 0.930 . S
H929 C926 0.929 . S
S930 N931 1.613 . S
S930 N932 1.610 . S
N931 S930 1.613 . S
N931 C934 1.350 . S
N932 S930 1.610 . S
N932 C933 1.351 . S
C933 C927 1.428 . S
C933 N932 1.351 . S
C933 C934 1.434 . S
C934 C925 1.429 . S
C934 N931 1.350 . S
C934 C933 1.434 . S
C935 C936 1.369 . S
C935 C937 1.419 . S
C935 H939 0.930 . S
C936 C935 1.369 . S
C936 C945 1.429 . S
C937 C935 1.419 . S
C937 C938 1.363 . S
C937 H940 0.929 . S
C938 C937 1.363 . S
C938 C944 1.428 . S
H939 C935 0.930 . S
H940 C937 0.929 . S
S941 N942 1.613 . S
S941 N943 1.610 . S
N942 S941 1.613 . S
N942 C945 1.350 . S
N943 S941 1.610 . S
N943 C944 1.351 . S
C944 C938 1.428 . S
C944 N943 1.351 . S
C944 C945 1.434 . S
C945 C936 1.429 . S
C945 N942 1.350 . S
C945 C944 1.434 . S
C946 C947 1.369 . S
C946 C948 1.419 . S
C946 H950 0.930 1_565 S
C947 C946 1.369 . S
C947 C956 1.429 . S
C948 C946 1.419 . S
C948 C949 1.363 . S
C948 H951 0.929 . S
C949 C948 1.363 . S
C949 C955 1.428 . S
H950 C946 0.930 1_545 S
H951 C948 0.929 . S
S952 N953 1.613 . S
S952 N954 1.610 . S
N953 S952 1.613 . S
N953 C956 1.350 . S
N954 S952 1.610 . S
N954 C955 1.351 . S
C955 C949 1.428 . S
C955 N954 1.351 . S
C955 C956 1.434 . S
C956 C947 1.429 . S
C956 N953 1.350 . S
C956 C955 1.434 . S
C957 C958 1.369 . S
C957 C959 1.419 . S
C957 H961 0.930 . S
C958 C957 1.369 . S
C958 C967 1.429 . S
C959 C957 1.419 . S
C959 C960 1.363 . S
C959 H962 0.929 . S
C960 C959 1.363 . S
C960 C966 1.428 . S
H961 C957 0.930 . S
H962 C959 0.929 . S
S963 N964 1.613 . S
S963 N965 1.610 . S
N964 S963 1.613 . S
N964 C967 1.350 . S
N965 S963 1.610 . S
N965 C966 1.351 . S
C966 C960 1.428 . S
C966 N965 1.351 . S
C966 C967 1.434 . S
C967 C958 1.429 . S
C967 N964 1.350 . S
C967 C966 1.434 . S
C968 C969 1.369 . S
C968 C970 1.419 . S
C968 H972 0.930 . S
C969 C968 1.369 . S
C969 C978 1.429 . S
C970 C968 1.419 . S
C970 C971 1.363 . S
C970 H973 0.929 . S
C971 C970 1.363 . S
C971 C977 1.428 . S
H972 C968 0.930 . S
H973 C970 0.929 . S
S974 N975 1.613 . S
S974 N976 1.610 . S
N975 S974 1.613 . S
N975 C978 1.350 . S
N976 S974 1.610 . S
N976 C977 1.351 . S
C977 C971 1.428 . S
C977 N976 1.351 . S
C977 C978 1.434 . S
C978 C969 1.429 . S
C978 N975 1.350 . S
C978 C977 1.434 . S
C979 C980 1.369 . S
C979 C981 1.419 . S
C979 H983 0.930 . S
C980 C979 1.369 . S
C980 C989 1.429 . S
C981 C979 1.419 . S
C981 C982 1.363 . S
C981 H984 0.929 . S
C982 C981 1.363 . S
C982 C988 1.428 . S
H983 C979 0.930 . S
H984 C981 0.929 . S
S985 N986 1.613 . S
S985 N987 1.610 . S
N986 S985 1.613 . S
N986 C989 1.350 . S
N987 S985 1.610 . S
N987 C988 1.351 . S
C988 C982 1.428 . S
C988 N987 1.351 . S
C988 C989 1.434 . S
C989 C980 1.429 . S
C989 N986 1.350 . S
C989 C988 1.434 . S
C990 C991 1.369 . S
C990 C992 1.419 . S
C990 H994 0.930 . S
C991 C990 1.369 . S
C991 C1000 1.429 . S
C992 C990 1.419 . S
C992 C993 1.363 . S
C992 H995 0.929 . S
C993 C992 1.363 . S
C993 C999 1.428 . S
H994 C990 0.930 . S
H995 C992 0.929 . S
S996 N997 1.613 . S
S996 N998 1.610 . S
N997 S996 1.613 . S
N997 C1000 1.350 . S
N998 S996 1.610 . S
N998 C999 1.351 . S
C999 C993 1.428 . S
C999 N998 1.351 . S
C999 C1000 1.434 . S
C1000 C991 1.429 . S
C1000 N997 1.350 . S
C1000 C999 1.434 . S
C1001 C1002 1.369 . S
C1001 C1003 1.419 . S
C1001 H1005 0.930 . S
C1002 C1001 1.369 . S
C1002 C1011 1.429 . S
C1003 C1001 1.419 . S
C1003 C1004 1.363 . S
C1003 H1006 0.929 . S
C1004 C1003 1.363 . S
C1004 C1010 1.428 . S
H1005 C1001 0.930 . S
H1006 C1003 0.929 . S
S1007 N1008 1.613 . S
S1007 N1009 1.610 . S
N1008 S1007 1.613 . S
N1008 C1011 1.350 . S
N1009 S1007 1.610 . S
N1009 C1010 1.351 . S
C1010 C1004 1.428 . S
C1010 N1009 1.351 . S
C1010 C1011 1.434 . S
C1011 C1002 1.429 . S
C1011 N1008 1.350 . S
C1011 C1010 1.434 . S
C1012 C1013 1.369 . S
C1012 C1014 1.419 . S
C1012 H1016 0.930 . S
C1013 C1012 1.369 . S
C1013 C1022 1.429 . S
C1014 C1012 1.419 . S
C1014 C1015 1.363 . S
C1014 H1017 0.929 . S
C1015 C1014 1.363 . S
C1015 C1021 1.428 . S
H1016 C1012 0.930 . S
H1017 C1014 0.929 . S
S1018 N1019 1.613 . S
S1018 N1020 1.610 . S
N1019 S1018 1.613 . S
N1019 C1022 1.350 . S
N1020 S1018 1.610 . S
N1020 C1021 1.351 . S
C1021 C1015 1.428 . S
C1021 N1020 1.351 . S
C1021 C1022 1.434 . S
C1022 C1013 1.429 . S
C1022 N1019 1.350 . S
C1022 C1021 1.434 . S
C1023 C1024 1.369 . S
C1023 C1025 1.419 . S
C1023 H1027 0.930 . S
C1024 C1023 1.369 . S
C1024 C1033 1.429 . S
C1025 C1023 1.419 . S
C1025 C1026 1.363 . S
C1025 H1028 0.929 . S
C1026 C1025 1.363 . S
C1026 C1032 1.428 . S
H1027 C1023 0.930 . S
H1028 C1025 0.929 . S
S1029 N1030 1.613 . S
S1029 N1031 1.610 . S
N1030 S1029 1.613 . S
N1030 C1033 1.350 . S
N1031 S1029 1.610 . S
N1031 C1032 1.351 . S
C1032 C1026 1.428 . S
C1032 N1031 1.351 . S
C1032 C1033 1.434 . S
C1033 C1024 1.429 . S
C1033 N1030 1.350 . S
C1033 C1032 1.434 . S
C1034 C1035 1.369 . S
C1034 C1036 1.419 . S
C1034 H1038 0.930 . S
C1035 C1034 1.369 . S
C1035 C1044 1.429 . S
C1036 C1034 1.419 . S
C1036 C1037 1.363 . S
C1036 H1039 0.929 1_556 S
C1037 C1036 1.363 . S
C1037 C1043 1.428 . S
H1038 C1034 0.930 . S
H1039 C1036 0.929 1_554 S
S1040 N1041 1.613 . S
S1040 N1042 1.610 . S
N1041 S1040 1.613 . S
N1041 C1044 1.350 . S
N1042 S1040 1.610 . S
N1042 C1043 1.351 . S
C1043 C1037 1.428 . S
C1043 N1042 1.351 . S
C1043 C1044 1.434 . S
C1044 C1035 1.429 . S
C1044 N1041 1.350 . S
C1044 C1043 1.434 . S
C1045 C1046 1.369 1_554 S
C1045 C1047 1.419 . S
C1045 H1049 0.930 . S
C1046 C1045 1.369 1_556 S
C1046 C1055 1.429 . S
C1047 C1045 1.419 . S
C1047 C1048 1.363 . S
C1047 H1050 0.929 . S
C1048 C1047 1.363 . S
C1048 C1054 1.428 . S
H1049 C1045 0.930 . S
H1050 C1047 0.929 . S
S1051 N1052 1.613 . S
S1051 N1053 1.610 . S
N1052 S1051 1.613 . S
N1052 C1055 1.350 . S
N1053 S1051 1.610 . S
N1053 C1054 1.351 1_556 S
C1054 C1048 1.428 . S
C1054 N1053 1.351 1_554 S
C1054 C1055 1.434 1_554 S
C1055 C1046 1.429 . S
C1055 N1052 1.350 . S
C1055 C1054 1.434 1_556 S
C707 C593 1.765 . S
C705 C39 1.706 . S
C718 C619 1.668 . S
C716 C125 1.642 . S
C729 C633 2.213 . S
C727 C217 2.074 . S
C740 C635 2.030 . S
C738 C261 1.880 . S
C749 C359 1.507 . S
C751 C632 1.545 . S
C762 C634 1.711 . S
C760 C433 1.522 . S
C773 C592 1.589 . S
C771 C495 1.631 . S
C784 C618 1.705 . S
C782 C587 1.724 . S
C795 C620 1.718 1_655 S
C793 C557 1.724 . S
C806 C646 1.184 . S
C804 C347 1.201 . S
C817 C604 1.216 . S
C815 C421 1.203 . S
C828 C606 1.656 . S
C826 C507 1.611 . S
C839 C605 1.555 . S
C837 C137 1.549 . S
C850 C607 1.690 . S
C848 C187 1.637 . S
C861 C621 2.577 . S
C859 C291 2.515 . S
C872 C647 2.059 . S
C870 C69 2.068 . S
C883 C649 1.476 . S
C881 C581 1.489 . S
C892 C365 1.998 . S
C894 C675 1.963 . S
C903 C439 2.393 . S
C905 C688 2.378 . S
C914 C483 1.542 . S
C916 C691 1.589 . S
C925 C113 1.728 . S
C927 C689 1.758 . S
C936 C211 1.632 . S
C938 C690 1.710 . S
C947 C273 1.441 . S
C949 C648 1.557 . S
C960 C674 1.257 . S
C958 C51 1.239 . S
C971 C677 1.668 . S
C969 C63 1.601 . S
C980 C143 1.787 . S
C982 C702 1.776 . S
C991 C199 1.898 . S
C993 C660 1.914 . S
C1002 C285 1.514 . S
C1004 C662 1.665 . S
C1015 C661 1.682 . S
C1013 C335 1.663 . S
C1026 C663 2.091 . S
C1024 C409 1.922 . S
C1035 C513 1.931 . S
C1037 C676 1.951 . S
C1048 C703 1.632 . S
C1046 C569 1.637 . S
