# Generated by pormake.
# Topology zzz, (3,6)-cn, num edge types: 1
# Building blocks:
#     Node 0, Type 0, BuildingBlock: CUQRIR_clean_linker_1, # of connection points: 3
#     Node 1, Type 0, BuildingBlock: CUQRIR_clean_linker_1, # of connection points: 3
#     Node 2, Type 0, BuildingBlock: CUQRIR_clean_linker_1, # of connection points: 3
#     Node 3, Type 0, BuildingBlock: CUQRIR_clean_linker_1, # of connection points: 3
#     Node 4, Type 0, BuildingBlock: CUQRIR_clean_linker_1, # of connection points: 3
#     Node 5, Type 0, BuildingBlock: CUQRIR_clean_linker_1, # of connection points: 3
#     Node 6, Type 0, BuildingBlock: CUQRIR_clean_linker_1, # of connection points: 3
#     Node 7, Type 0, BuildingBlock: CUQRIR_clean_linker_1, # of connection points: 3
#     Node 8, Type 1, BuildingBlock: LEVNOQ01_clean_sbu_1, # of connection points: 6
#     Node 9, Type 1, BuildingBlock: LEVNOQ01_clean_sbu_1, # of connection points: 6
#     Node 10, Type 1, BuildingBlock: LEVNOQ01_clean_sbu_1, # of connection points: 6
#     Node 11, Type 1, BuildingBlock: LEVNOQ01_clean_sbu_1, # of connection points: 6
#     Edge 12, Type (0, 1), BuildingBlock: ZUJKAS_clean_linker_0, # of connection points: 2
#     Edge 13, Type (0, 1), BuildingBlock: ZUJKAS_clean_linker_0, # of connection points: 2
#     Edge 14, Type (0, 1), BuildingBlock: ZUJKAS_clean_linker_0, # of connection points: 2
#     Edge 15, Type (0, 1), BuildingBlock: ZUJKAS_clean_linker_0, # of connection points: 2
#     Edge 16, Type (0, 1), BuildingBlock: ZUJKAS_clean_linker_0, # of connection points: 2
#     Edge 17, Type (0, 1), BuildingBlock: ZUJKAS_clean_linker_0, # of connection points: 2
#     Edge 18, Type (0, 1), BuildingBlock: ZUJKAS_clean_linker_0, # of connection points: 2
#     Edge 19, Type (0, 1), BuildingBlock: ZUJKAS_clean_linker_0, # of connection points: 2
#     Edge 20, Type (0, 1), BuildingBlock: ZUJKAS_clean_linker_0, # of connection points: 2
#     Edge 21, Type (0, 1), BuildingBlock: ZUJKAS_clean_linker_0, # of connection points: 2
#     Edge 22, Type (0, 1), BuildingBlock: ZUJKAS_clean_linker_0, # of connection points: 2
#     Edge 23, Type (0, 1), BuildingBlock: ZUJKAS_clean_linker_0, # of connection points: 2
#     Edge 24, Type (0, 1), BuildingBlock: ZUJKAS_clean_linker_0, # of connection points: 2
#     Edge 25, Type (0, 1), BuildingBlock: ZUJKAS_clean_linker_0, # of connection points: 2
#     Edge 26, Type (0, 1), BuildingBlock: ZUJKAS_clean_linker_0, # of connection points: 2
#     Edge 27, Type (0, 1), BuildingBlock: ZUJKAS_clean_linker_0, # of connection points: 2
#     Edge 28, Type (0, 1), BuildingBlock: ZUJKAS_clean_linker_0, # of connection points: 2
#     Edge 29, Type (0, 1), BuildingBlock: ZUJKAS_clean_linker_0, # of connection points: 2
#     Edge 30, Type (0, 1), BuildingBlock: ZUJKAS_clean_linker_0, # of connection points: 2
#     Edge 31, Type (0, 1), BuildingBlock: ZUJKAS_clean_linker_0, # of connection points: 2
#     Edge 32, Type (0, 1), BuildingBlock: ZUJKAS_clean_linker_0, # of connection points: 2
#     Edge 33, Type (0, 1), BuildingBlock: ZUJKAS_clean_linker_0, # of connection points: 2
#     Edge 34, Type (0, 1), BuildingBlock: ZUJKAS_clean_linker_0, # of connection points: 2
#     Edge 35, Type (0, 1), BuildingBlock: ZUJKAS_clean_linker_0, # of connection points: 2
# Relax obj value: 0.149
# Max RMSD: 0.186
# Mean RMSD: 0.114
data_MOF--net-zzz--node1-LEVNOQ01_clean_sbu_1--node2-CUQRIR_clean_linker_1--edge1-ZUJKAS_clean_linker_0
_symmetry_space_group_name_H-M    P1
_symmetry_Int_Tables_number       1
_symmetry_cell_setting            triclinic
loop_
_symmetry_equiv_pos_as_xyz
'x, y, z'
_cell_length_a     61.594787
_cell_length_b     61.552456
_cell_length_c     18.761822
_cell_angle_alpha  89.979863
_cell_angle_beta   90.016998
_cell_angle_gamma 89.994061
loop_
_atom_site_label
_atom_site_type_symbol
_atom_site_fract_x
_atom_site_fract_y
_atom_site_fract_z
_atom_type_partial_charge
C0 C 0.7556 0.56414 0.20125 0.0
N1 N 0.77742 0.56608 0.19532 0.0
N2 N 0.74589 0.5685 0.13791 0.0
C3 C 0.74391 0.55719 0.26751 0.0
C4 C 0.76264 0.57256 0.09316 0.0
N5 N 0.78175 0.57124 0.12814 0.0
C6 C 0.76037 0.57518 0.01375 0.0
H7 H 0.74302 0.53918 0.26852 0.0
H8 H 0.72713 0.56374 0.26816 0.0
H9 H 0.75284 0.56264 0.31568 0.0
H10 H 0.75053 0.58986 0.00214 0.0
H11 H 0.75157 0.56098 0.99151 0.0
H12 H 0.77633 0.57682 0.98694 0.0
C13 C 0.95515 0.75567 0.19834 0.0
N14 N 0.95614 0.77749 0.18925 0.0
N15 N 0.95211 0.74559 0.13476 0.0
C16 C 0.95847 0.74433 0.26829 0.0
C17 C 0.95163 0.76203 0.08683 0.0
N18 N 0.95402 0.78135 0.11994 0.0
C19 C 0.95015 0.75895 0.00739 0.0
H20 H 0.97487 0.7483 0.28908 0.0
H21 H 0.95678 0.72646 0.26303 0.0
H22 H 0.94645 0.7504 0.30755 0.0
H23 H 0.9361 0.74843 0.99427 0.0
H24 H 0.96502 0.75057 0.98836 0.0
H25 H 0.9483 0.77459 0.97873 0.0
C26 C 0.7652 0.95513 0.20022 0.0
N27 N 0.74332 0.95468 0.19316 0.0
N28 N 0.77489 0.95144 0.1364 0.0
C29 C 0.77705 0.95952 0.26856 0.0
C30 C 0.7581 0.94923 0.09031 0.0
N31 N 0.73898 0.95107 0.12492 0.0
C32 C 0.76053 0.9478 0.0106 0.0
H33 H 0.77906 0.97733 0.27485 0.0
H34 H 0.79338 0.95192 0.26776 0.0
H35 H 0.76762 0.95335 0.31473 0.0
H36 H 0.76686 0.93149 0.99647 0.0
H37 H 0.77252 0.95999 0.99184 0.0
H38 H 0.7449 0.95034 0.98249 0.0
C39 C 0.55686 0.7641 0.19023 0.0
N40 N 0.5594 0.74229 0.1862 0.0
N41 N 0.5612 0.77346 0.12635 0.0
C42 C 0.54745 0.77581 0.25318 0.0
C43 C 0.56634 0.75654 0.08351 0.0
N44 N 0.56529 0.73762 0.11982 0.0
C45 C 0.57181 0.75858 0.00573 0.0
H46 H 0.52948 0.77486 0.25036 0.0
H47 H 0.55227 0.79318 0.25303 0.0
H48 H 0.55276 0.76804 0.30361 0.0
H49 H 0.58033 0.77415 0.99534 0.0
H50 H 0.55656 0.75852 0.97422 0.0
H51 H 0.58209 0.74481 0.98793 0.0
C52 C 0.26245 0.45377 0.19868 0.0
N53 N 0.24062 0.45155 0.20208 0.0
N54 N 0.27152 0.44989 0.2633 0.0
C55 C 0.27462 0.46148 0.13427 0.0
C56 C 0.25433 0.44588 0.3063 0.0
N57 N 0.23557 0.44682 0.26906 0.0
C58 C 0.25572 0.44386 0.38605 0.0
H59 H 0.2917 0.45573 0.13573 0.0
H60 H 0.27464 0.47951 0.1338 0.0
H61 H 0.26656 0.45574 0.08482 0.0
H62 H 0.25967 0.46 0.40905 0.0
H63 H 0.26895 0.43252 0.40096 0.0
H64 H 0.24021 0.43799 0.40911 0.0
C65 C 0.05654 0.26309 0.20646 0.0
N66 N 0.05829 0.24123 0.21189 0.0
N67 N 0.06408 0.27282 0.26647 0.0
C68 C 0.04641 0.2747 0.14442 0.0
C69 C 0.07022 0.25606 0.30872 0.0
N70 N 0.06678 0.2369 0.27546 0.0
C71 C 0.07823 0.25847 0.38404 0.0
H72 H 0.05616 0.27155 0.0958 0.0
H73 H 0.04548 0.29248 0.1534 0.0
H74 H 0.02989 0.26812 0.13484 0.0
H75 H 0.0643 0.26262 0.41899 0.0
H76 H 0.09015 0.27192 0.38767 0.0
H77 H 0.08592 0.24331 0.40366 0.0
C78 C 0.25582 0.06455 0.18292 0.0
N79 N 0.27769 0.06488 0.19119 0.0
N80 N 0.24583 0.06863 0.24592 0.0
C81 C 0.24421 0.06022 0.11409 0.0
C82 C 0.26233 0.07106 0.29287 0.0
N83 N 0.28163 0.06889 0.25956 0.0
C84 C 0.25937 0.07275 0.37234 0.0
H85 H 0.2281 0.06831 0.1137 0.0
H86 H 0.24163 0.04246 0.10858 0.0
H87 H 0.25401 0.06592 0.06812 0.0
H88 H 0.24869 0.0594 0.39109 0.0
H89 H 0.25116 0.08831 0.38516 0.0
H90 H 0.275 0.07204 0.40155 0.0
C91 C 0.4545 0.25487 0.18917 0.0
N92 N 0.4554 0.27672 0.19754 0.0
N93 N 0.45137 0.24501 0.25305 0.0
C94 C 0.45666 0.24321 0.11938 0.0
C95 C 0.45086 0.26157 0.30044 0.0
N96 N 0.45321 0.28077 0.26666 0.0
C97 C 0.45006 0.25869 0.38007 0.0
H98 H 0.44992 0.2532 0.07536 0.0
H99 H 0.4483 0.22725 0.12132 0.0
H100 H 0.47413 0.24035 0.10851 0.0
H101 H 0.46115 0.24539 0.39654 0.0
H102 H 0.43336 0.25391 0.3957 0.0
H103 H 0.45449 0.27378 0.4088 0.0
O104 O 0.04037 0.98189 0.82473 0.0
Mg105 Mg 0.04278 0.9824 0.71392 0.0
O106 O 0.00737 0.98979 0.79163 0.0
Mg107 Mg 0.00942 0.01111 0.68729 0.0
O108 O 0.0474 0.0109 0.66059 0.0
O109 O 0.0737 0.98661 0.68383 0.0
O110 O 0.01159 0.03185 0.58241 0.0
O111 O 0.01645 0.04181 0.75871 0.0
Mg112 Mg 0.9762 0.04046 0.65685 0.0
O113 O 0.97172 0.0121 0.71292 0.0
O114 O 0.97928 0.04117 0.54567 0.0
O115 O 0.99241 0.06494 0.7155 0.0
O116 O 0.94527 0.03603 0.68826 0.0
C117 C 0.01093 0.96162 0.61514 0.0
C118 C 0.02033 0.98187 0.83781 0.0
C119 C 0.06765 0.00476 0.65578 0.0
C120 C 0.99942 0.04004 0.53449 0.0
C121 C 0.00824 0.06088 0.75663 0.0
C122 C 0.95145 0.01813 0.71775 0.0
O123 O 0.02742 0.95781 0.65358 0.0
O124 O 0.002 0.98036 0.61642 0.0
O125 O 0.4562 0.98809 0.71623 0.0
Mg126 Mg 0.47912 0.97208 0.64871 0.0
O127 O 0.47765 0.0147 0.7547 0.0
Mg128 Mg 0.50936 0.01057 0.68669 0.0
O129 O 0.50798 0.97307 0.7009 0.0
O130 O 0.49079 0.94201 0.67682 0.0
O131 O 0.54072 0.00565 0.61655 0.0
O132 O 0.53005 0.00691 0.79017 0.0
Mg133 Mg 0.53943 0.04556 0.72137 0.0
O134 O 0.50983 0.0489 0.67259 0.0
O135 O 0.56262 0.03216 0.65077 0.0
O136 O 0.54199 0.03807 0.83012 0.0
O137 O 0.53161 0.07673 0.70161 0.0
C138 C 0.48108 0.00162 0.53284 0.0
C139 C 0.4594 0.0047 0.75535 0.0
C140 C 0.50663 0.95208 0.70733 0.0
C141 C 0.55891 0.01562 0.61232 0.0
C142 C 0.53978 0.01786 0.8381 0.0
C143 C 0.514 0.06971 0.67224 0.0
O144 O 0.48011 0.98125 0.54082 0.0
O145 O 0.48902 0.01338 0.58234 0.0
O146 O 0.52712 0.4558 0.72249 0.0
Mg147 Mg 0.5433 0.48005 0.66208 0.0
O148 O 0.50341 0.47892 0.76785 0.0
Mg149 Mg 0.51022 0.50985 0.69761 0.0
O150 O 0.5482 0.50814 0.71802 0.0
O151 O 0.57461 0.48456 0.68986 0.0
O152 O 0.51719 0.54048 0.62643 0.0
O153 O 0.51418 0.53041 0.80302 0.0
Mg154 Mg 0.4787 0.53908 0.73358 0.0
O155 O 0.47214 0.51156 0.67557 0.0
O156 O 0.49535 0.56409 0.67806 0.0
O157 O 0.48198 0.53792 0.84448 0.0
O158 O 0.44741 0.53701 0.70355 0.0
C159 C 0.5181 0.48147 0.54335 0.0
C160 C 0.51153 0.45981 0.76471 0.0
C161 C 0.56858 0.50236 0.72031 0.0
C162 C 0.5101 0.55988 0.63308 0.0
C163 C 0.50225 0.53768 0.85316 0.0
C164 C 0.45225 0.51887 0.67302 0.0
O165 O 0.5384 0.48095 0.55158 0.0
O166 O 0.5064 0.48916 0.5933 0.0
O167 O 0.97359 0.47809 0.82947 0.0
Mg168 Mg 0.97912 0.47108 0.72164 0.0
O169 O 0.98785 0.50958 0.80101 0.0
Mg170 Mg 0.00923 0.50879 0.69863 0.0
O171 O 0.01027 0.47076 0.68279 0.0
O172 O 0.99027 0.44085 0.70195 0.0
O173 O 0.03098 0.50878 0.59556 0.0
O174 O 0.04022 0.50487 0.77113 0.0
Mg175 Mg 0.03925 0.54988 0.68094 0.0
O176 O 0.00842 0.54626 0.71668 0.0
O177 O 0.04406 0.54151 0.57392 0.0
O178 O 0.0598 0.53496 0.75761 0.0
O179 O 0.02433 0.57868 0.70543 0.0
C180 C 0.961 0.50223 0.61326 0.0
C181 C 0.97696 0.49782 0.84401 0.0
C182 C 0.00794 0.4497 0.67899 0.0
C183 C 0.04155 0.52189 0.5557 0.0
C184 C 0.05689 0.51646 0.78619 0.0
C185 C 0.00806 0.56718 0.72657 0.0
O186 O 0.9575 0.48448 0.6457 0.0
O187 O 0.97834 0.51313 0.62518 0.0
H188 H 0.22053 0.0331 0.23755 0.0
H189 H 0.18491 0.02844 0.29459 0.0
H190 H 0.18527 0.09601 0.35555 0.0
H191 H 0.22091 0.10048 0.29872 0.0
H192 H 0.18146 0.06707 0.46935 0.0
H193 H 0.12148 0.04736 0.25829 0.0
H194 H 0.14646 0.03238 0.2526 0.0
H195 H 0.1467 0.06132 0.23993 0.0
C196 C 0.2125 0.04706 0.26071 0.0
C197 C 0.22319 0.06716 0.26371 0.0
C198 C 0.19221 0.04444 0.29326 0.0
C199 C 0.18234 0.06195 0.32882 0.0
C200 C 0.19252 0.08235 0.32803 0.0
H201 H 0.06313 0.04474 0.58994 0.0
H202 H 0.08945 0.06239 0.50939 0.0
C203 C 0.21277 0.08492 0.29561 0.0
C204 C 0.16328 0.05822 0.37561 0.0
H205 H 0.11147 0.0384 0.37838 0.0
C206 C 0.16601 0.06122 0.44925 0.0
C207 C 0.14314 0.05063 0.34939 0.0
C208 C 0.13911 0.04789 0.27065 0.0
C209 C 0.14954 0.05579 0.49761 0.0
C210 C 0.12982 0.04714 0.47174 0.0
C211 C 0.12661 0.04513 0.39795 0.0
C212 C 0.11382 0.03734 0.52093 0.0
C213 C 0.15362 0.05849 0.57639 0.0
C214 C 0.11902 0.01771 0.55438 0.0
C215 C 0.1042 0.00768 0.59967 0.0
C216 C 0.08369 0.01699 0.61248 0.0
C217 C 0.07864 0.037 0.58022 0.0
C218 C 0.09359 0.04707 0.53428 0.0
H219 H 0.16724 0.06988 0.587 0.0
H220 H 0.13883 0.06453 0.60383 0.0
H221 H 0.15788 0.04248 0.59975 0.0
H222 H 0.13454 0.00995 0.54463 0.0
H223 H 0.10877 0.9923 0.62341 0.0
H224 H 0.41821 0.22231 0.30762 0.0
H225 H 0.4209 0.18695 0.36781 0.0
H226 H 0.48795 0.18209 0.30347 0.0
H227 H 0.48498 0.21733 0.24227 0.0
H228 H 0.46384 0.14055 0.30843 0.0
H229 H 0.45696 0.19053 0.55483 0.0
H230 H 0.4352 0.19307 0.49152 0.0
H231 H 0.46191 0.20242 0.46848 0.0
C232 C 0.4332 0.21319 0.30425 0.0
C233 C 0.45138 0.22229 0.27055 0.0
C234 C 0.4348 0.19314 0.33883 0.0
C235 C 0.45471 0.18208 0.341 0.0
C236 C 0.47241 0.19034 0.30227 0.0
H237 H 0.52501 0.11103 0.63766 0.0
H238 H 0.50647 0.13589 0.55821 0.0
C239 C 0.47074 0.21036 0.26719 0.0
C240 C 0.45804 0.16386 0.39167 0.0
H241 H 0.46355 0.15336 0.56952 0.0
C242 C 0.46345 0.14319 0.36556 0.0
C243 C 0.45766 0.16747 0.4662 0.0
C244 C 0.45279 0.18957 0.4973 0.0
C245 C 0.46914 0.12617 0.41216 0.0
C246 C 0.46932 0.12999 0.48655 0.0
C247 C 0.46312 0.15043 0.51253 0.0
C248 C 0.47939 0.11449 0.53734 0.0
C249 C 0.47602 0.10459 0.38162 0.0
C250 C 0.47001 0.09428 0.5538 0.0
C251 C 0.48068 0.07977 0.60001 0.0
C252 C 0.50084 0.08535 0.63013 0.0
C253 C 0.50956 0.10602 0.6155 0.0
C254 C 0.49901 0.12033 0.5697 0.0
H255 H 0.47712 0.10496 0.32253 0.0
H256 H 0.49203 0.09969 0.40367 0.0
H257 H 0.46405 0.09199 0.39706 0.0
H258 H 0.45454 0.08977 0.53085 0.0
H259 H 0.47333 0.06419 0.61157 0.0
H260 H 0.30033 0.42051 0.31062 0.0
H261 H 0.33481 0.42834 0.37206 0.0
H262 H 0.32549 0.49676 0.33325 0.0
H263 H 0.29108 0.48881 0.27166 0.0
H264 H 0.37512 0.46256 0.32394 0.0
H265 H 0.32461 0.47795 0.56512 0.0
H266 H 0.31596 0.45963 0.49548 0.0
H267 H 0.31535 0.48838 0.4806 0.0
C268 C 0.3061 0.4371 0.31358 0.0
C269 C 0.29336 0.45409 0.28641 0.0
C270 C 0.32568 0.44156 0.34847 0.0
C271 C 0.33265 0.4631 0.35691 0.0
C272 C 0.32044 0.48002 0.32661 0.0
H273 H 0.41459 0.53655 0.6258 0.0
H274 H 0.38732 0.52044 0.54895 0.0
C275 C 0.30092 0.47552 0.29142 0.0
C276 C 0.35105 0.46817 0.40484 0.0
H277 H 0.36194 0.48542 0.57379 0.0
C278 C 0.37238 0.4674 0.37877 0.0
C279 C 0.34728 0.47432 0.47625 0.0
C280 C 0.32461 0.47509 0.50666 0.0
C281 C 0.39008 0.47352 0.42191 0.0
C282 C 0.38624 0.48021 0.49306 0.0
C283 C 0.36489 0.48025 0.51938 0.0
C284 C 0.40358 0.48943 0.53914 0.0
C285 C 0.41259 0.47365 0.39022 0.0
C286 C 0.42186 0.47729 0.56011 0.0
C287 C 0.4377 0.48656 0.60467 0.0
C288 C 0.43541 0.50806 0.62898 0.0
C289 C 0.4169 0.51992 0.60855 0.0
C290 C 0.40126 0.51075 0.56422 0.0
H291 H 0.41223 0.47215 0.33121 0.0
H292 H 0.42133 0.4888 0.40459 0.0
H293 H 0.42196 0.45973 0.41186 0.0
H294 H 0.42378 0.46063 0.5427 0.0
H295 H 0.45159 0.47692 0.62052 0.0
H296 H 0.02762 0.29495 0.29585 0.0
H297 H 0.02532 0.33089 0.35212 0.0
H298 H 0.09511 0.33655 0.34324 0.0
H299 H 0.09721 0.30042 0.28766 0.0
H300 H 0.08002 0.34342 0.47541 0.0
H301 H 0.03219 0.39323 0.2874 0.0
H302 H 0.01891 0.36795 0.3064 0.0
H303 H 0.04476 0.36791 0.26153 0.0
C304 C 0.04232 0.30427 0.30413 0.0
C305 C 0.06256 0.29522 0.28735 0.0
C306 C 0.04105 0.32478 0.33599 0.0
C307 C 0.06004 0.33661 0.35112 0.0
C308 C 0.08025 0.32783 0.33165 0.0
H309 H 0.03686 0.46096 0.57452 0.0
H310 H 0.05471 0.4358 0.49089 0.0
C311 C 0.08147 0.30731 0.29987 0.0
C312 C 0.05888 0.35672 0.39482 0.0
H313 H 0.03173 0.40485 0.41094 0.0
C314 C 0.06982 0.35706 0.46053 0.0
C315 C 0.04591 0.37473 0.37519 0.0
C316 C 0.03497 0.37607 0.3034 0.0
C317 C 0.06689 0.37415 0.50913 0.0
C318 C 0.05239 0.39118 0.4921 0.0
C319 C 0.0427 0.39168 0.42433 0.0
C320 C 0.04471 0.40677 0.54696 0.0
C321 C 0.07881 0.37344 0.57931 0.0
C322 C 0.03346 0.39884 0.60648 0.0
C323 C 0.02302 0.41309 0.6529 0.0
C324 C 0.02359 0.43563 0.64097 0.0
C325 C 0.03616 0.4437 0.58448 0.0
C326 C 0.04634 0.42935 0.53692 0.0
H327 H 0.09426 0.36422 0.57457 0.0
H328 H 0.08247 0.39004 0.59909 0.0
H329 H 0.06856 0.36506 0.61943 0.0
H330 H 0.03164 0.38152 0.61477 0.0
H331 H 0.01348 0.40634 0.69606 0.0
H332 H 0.8005 0.98665 0.1504 0.0
H333 H 0.83565 0.99231 0.09089 0.0
H334 H 0.83448 0.92604 0.01644 0.0
H335 H 0.79938 0.92052 0.07586 0.0
H336 H 0.879 0.96799 0.08447 0.0
H337 H 0.82923 0.96729 0.83658 0.0
H338 H 0.81738 0.97085 0.92374 0.0
H339 H 0.82617 0.94443 0.89547 0.0
C340 C 0.80824 0.97315 0.12359 0.0
C341 C 0.79742 0.95318 0.11733 0.0
C342 C 0.82822 0.97636 0.08952 0.0
C343 C 0.83753 0.95962 0.04884 0.0
C344 C 0.82751 0.93916 0.04738 0.0
H345 H 0.95657 0.97887 0.78771 0.0
H346 H 0.93067 0.9616 0.87023 0.0
C347 C 0.80756 0.936 0.08123 0.0
C348 C 0.85574 0.96447 0.99973 0.0
H349 H 0.86657 0.9733 0.82374 0.0
C350 C 0.87644 0.96895 0.02737 0.0
C351 C 0.85219 0.96586 0.92539 0.0
C352 C 0.83005 0.96202 0.89316 0.0
C353 C 0.89366 0.9752 0.98236 0.0
C354 C 0.88998 0.97686 0.90805 0.0
C355 C 0.8694 0.97182 0.8806 0.0
C356 C 0.90613 0.98657 0.85867 0.0
C357 C 0.91533 0.9809 0.01476 0.0
C358 C 0.90074 0.00592 0.82359 0.0
C359 C 0.91528 0.01561 0.77658 0.0
C360 C 0.93573 0.00626 0.76333 0.0
C361 C 0.94106 0.98658 0.79739 0.0
C362 C 0.92633 0.97678 0.84478 0.0
H363 H 0.91455 0.9819 0.07383 0.0
H364 H 0.92738 0.96825 0.00023 0.0
H365 H 0.92125 0.99667 0.99358 0.0
H366 H 0.88525 0.01374 0.83328 0.0
H367 H 0.91053 0.03076 0.75167 0.0
H368 H 0.58396 0.80968 0.15682 0.0
H369 H 0.5783 0.84608 0.10477 0.0
H370 H 0.52277 0.82179 0.98931 0.0
H371 H 0.52841 0.78576 0.04195 0.0
H372 H 0.57958 0.85603 0.96107 0.0
H373 H 0.49946 0.87824 0.07188 0.0
H374 H 0.51592 0.85676 0.10914 0.0
H375 H 0.49916 0.85173 0.03223 0.0
C376 C 0.57031 0.81245 0.12159 0.0
C377 C 0.55646 0.79524 0.10351 0.0
C378 C 0.56713 0.83309 0.09169 0.0
C379 C 0.54992 0.83676 0.04391 0.0
C380 C 0.53584 0.81954 0.02726 0.0
H381 H 0.52703 0.91387 0.68295 0.0
H382 H 0.5414 0.8889 0.77282 0.0
C383 C 0.53907 0.79898 0.05691 0.0
C384 C 0.54752 0.85792 0.00659 0.0
H385 H 0.50995 0.89651 0.96322 0.0
C386 C 0.56451 0.86513 0.96259 0.0
C387 C 0.528 0.87001 0.00929 0.0
C388 C 0.50969 0.86392 0.05879 0.0
C389 C 0.56195 0.88327 0.91781 0.0
C390 C 0.54181 0.89429 0.91635 0.0
C391 C 0.52534 0.88794 0.96376 0.0
C392 C 0.53664 0.9109 0.86144 0.0
C393 C 0.58068 0.89021 0.87133 0.0
C394 C 0.52935 0.93169 0.88111 0.0
C395 C 0.52121 0.94601 0.82952 0.0
C396 C 0.52026 0.93976 0.75762 0.0
C397 C 0.52821 0.91928 0.73777 0.0
C398 C 0.53642 0.90502 0.78912 0.0
H399 H 0.59647 0.88496 0.89418 0.0
H400 H 0.57897 0.88257 0.81807 0.0
H401 H 0.58092 0.90813 0.8642 0.0
H402 H 0.52911 0.93646 0.93667 0.0
H403 H 0.51444 0.96142 0.84642 0.0
H404 H 0.71933 0.59932 0.08714 0.0
H405 H 0.68416 0.5935 0.02848 0.0
H406 H 0.68792 0.5252 0.079 0.0
H407 H 0.72297 0.53126 0.13829 0.0
H408 H 0.68021 0.56816 0.91147 0.0
H409 H 0.62448 0.53795 0.12075 0.0
H410 H 0.64961 0.55172 0.14142 0.0
H411 H 0.64969 0.52335 0.11823 0.0
C412 C 0.71219 0.58325 0.08742 0.0
C413 C 0.72357 0.56576 0.11742 0.0
C414 C 0.69221 0.57989 0.05386 0.0
C415 C 0.68325 0.55895 0.04983 0.0
C416 C 0.6942 0.54159 0.08286 0.0
H417 H 0.61001 0.49013 0.75012 0.0
H418 H 0.63577 0.50742 0.83019 0.0
C419 C 0.71418 0.545 0.11668 0.0
C420 C 0.66408 0.55484 0.0036 0.0
H421 H 0.61423 0.53045 0.99907 0.0
C422 C 0.66561 0.56032 0.93104 0.0
C423 C 0.64499 0.54464 0.02899 0.0
C424 C 0.64196 0.53926 0.10677 0.0
C425 C 0.64908 0.5549 0.88274 0.0
C426 C 0.63056 0.54373 0.90749 0.0
C427 C 0.62849 0.5391 0.98041 0.0
C428 C 0.61472 0.53427 0.85698 0.0
C429 C 0.65182 0.56035 0.80489 0.0
C430 C 0.59441 0.54393 0.84456 0.0
C431 C 0.57951 0.53412 0.79789 0.0
C432 C 0.58469 0.51442 0.76388 0.0
C433 C 0.60534 0.50525 0.77537 0.0
C434 C 0.62014 0.51505 0.82142 0.0
H435 H 0.6652 0.57214 0.79594 0.0
H436 H 0.65555 0.54527 0.77485 0.0
H437 H 0.63653 0.56719 0.78296 0.0
H438 H 0.59013 0.55895 0.871 0.0
H439 H 0.56391 0.54177 0.78909 0.0
H440 H 0.98706 0.71966 0.14522 0.0
H441 H 0.99129 0.68384 0.08875 0.0
H442 H 0.92404 0.68532 0.02484 0.0
H443 H 0.91986 0.72097 0.08236 0.0
H444 H 0.94073 0.64215 0.06514 0.0
H445 H 0.9912 0.68611 0.8663 0.0
H446 H 1.0 0.68881 0.95719 0.0
H447 H 0.97435 0.70004 0.9303 0.0
C448 C 0.97308 0.71187 0.12134 0.0
C449 C 0.95316 0.72285 0.11777 0.0
C450 C 0.97549 0.69157 0.08871 0.0
C451 C 0.95804 0.6821 0.05175 0.0
C452 C 0.93769 0.69234 0.05305 0.0
H453 H 0.97729 0.59677 0.69019 0.0
H454 H 0.96031 0.62292 0.77172 0.0
C455 C 0.9353 0.71261 0.08576 0.0
C456 C 0.96167 0.66315 0.00437 0.0
H457 H 0.98851 0.6481 0.85318 0.0
C458 C 0.95118 0.64337 0.01879 0.0
C459 C 0.97487 0.665 0.94297 0.0
C460 C 0.98562 0.68616 0.92261 0.0
C461 C 0.95409 0.62517 0.97428 0.0
C462 C 0.96787 0.62687 0.91421 0.0
C463 C 0.97793 0.64681 0.8992 0.0
C464 C 0.97317 0.60812 0.8675 0.0
C465 C 0.94216 0.60439 0.99086 0.0
C466 C 0.9855 0.59077 0.89433 0.0
C467 C 0.99513 0.57588 0.84775 0.0
C468 C 0.99226 0.5778 0.77379 0.0
C469 C 0.97901 0.59445 0.74716 0.0
C470 C 0.96945 0.60945 0.79368 0.0
H471 H 0.92894 0.60695 0.03025 0.0
H472 H 0.93509 0.59743 0.94145 0.0
H473 H 0.9537 0.59235 0.01327 0.0
H474 H 0.98913 0.58974 0.95071 0.0
H475 H 0.00609 0.56375 0.86924 0.0
H476 H 0.04665 0.22176 0.39224 0.0
H477 H 0.04298 0.18348 0.42617 0.0
H478 H 0.08599 0.16524 0.25489 0.0
H479 H 0.08998 0.20371 0.22209 0.0
H480 H 0.04347 0.1458 0.25248 0.0
H481 H 0.0837 0.13686 0.51558 0.0
H482 H 0.06621 0.16014 0.50844 0.0
H483 H 0.09021 0.15857 0.45426 0.0
C484 C 0.05604 0.20961 0.36414 0.0
C485 C 0.06873 0.21547 0.30517 0.0
C486 C 0.05387 0.18781 0.38312 0.0
C487 C 0.06433 0.17162 0.34321 0.0
C488 C 0.07794 0.17756 0.28656 0.0
H489 H 0.04114 0.03872 0.48534 0.0
H490 H 0.05977 0.06809 0.42167 0.0
C491 C 0.08028 0.1994 0.26809 0.0
C492 C 0.05882 0.14859 0.35532 0.0
H493 H 0.05773 0.10954 0.48393 0.0
C494 C 0.04695 0.13765 0.30249 0.0
C495 C 0.06349 0.13806 0.42037 0.0
C496 C 0.07677 0.14892 0.47777 0.0
C497 C 0.03854 0.11681 0.31472 0.0
C498 C 0.04209 0.10679 0.38147 0.0
C499 C 0.05504 0.11726 0.43269 0.0
C500 C 0.03059 0.08676 0.40303 0.0
C501 C 0.02542 0.10595 0.25696 0.0
C502 C 0.00793 0.08708 0.41024 0.0
C503 C 0.9973 0.07042 0.4467 0.0
C504 C 0.00925 0.05334 0.47739 0.0
C505 C 0.03165 0.05197 0.46381 0.0
C506 C 0.04228 0.06867 0.42736 0.0
H507 H 0.02985 0.11225 0.20337 0.0
H508 H 0.02775 0.08806 0.25768 0.0
H509 H 0.00794 0.10941 0.26577 0.0
H510 H 0.99862 0.10102 0.39267 0.0
H511 H 0.98003 0.07199 0.45613 0.0
H512 H 0.30657 0.09876 0.32541 0.0
H513 H 0.34356 0.09288 0.37268 0.0
H514 H 0.33949 0.02524 0.31334 0.0
H515 H 0.30273 0.0312 0.26732 0.0
H516 H 0.35568 0.03354 0.45385 0.0
H517 H 0.39686 0.08076 0.24042 0.0
H518 H 0.38028 0.09637 0.3004 0.0
H519 H 0.36779 0.07703 0.24215 0.0
C520 C 0.31368 0.08268 0.32375 0.0
C521 C 0.30221 0.06536 0.29321 0.0
C522 C 0.33468 0.07936 0.35001 0.0
C523 C 0.3442 0.05868 0.34569 0.0
C524 C 0.33237 0.0413 0.31696 0.0
H525 H 0.45353 0.98154 0.43931 0.0
H526 H 0.42169 0.99835 0.38551 0.0
C527 C 0.31152 0.04464 0.29087 0.0
C528 C 0.3666 0.05471 0.36988 0.0
H529 H 0.41963 0.06193 0.32243 0.0
C530 C 0.36969 0.03988 0.42558 0.0
C531 C 0.38477 0.06339 0.3336 0.0
C532 C 0.38233 0.08016 0.27546 0.0
C533 C 0.39046 0.03272 0.44412 0.0
C534 C 0.40851 0.04002 0.40407 0.0
C535 C 0.40562 0.05588 0.35127 0.0
C536 C 0.43035 0.03102 0.41705 0.0
C537 C 0.39286 0.01729 0.50628 0.0
C538 C 0.4467 0.04414 0.44583 0.0
C539 C 0.46519 0.03462 0.47556 0.0
C540 C 0.46722 0.01187 0.478 0.0
C541 C 0.45226 0.99909 0.43989 0.0
C542 C 0.43394 0.00864 0.40955 0.0
H543 H 0.37874 0.01826 0.54298 0.0
H544 H 0.39386 1.00039 0.48599 0.0
H545 H 0.40786 0.02079 0.53708 0.0
H546 H 0.44432 0.06149 0.45047 0.0
H547 H 0.47692 0.04489 0.502 0.0
H548 H 0.42475 0.30628 0.33614 0.0
H549 H 0.43157 0.34363 0.37886 0.0
H550 H 0.49818 0.33859 0.30971 0.0
H551 H 0.49123 0.3015 0.267 0.0
H552 H 0.48624 0.35596 0.46342 0.0
H553 H 0.44806 0.39612 0.22804 0.0
H554 H 0.43477 0.37328 0.26974 0.0
H555 H 0.45962 0.36919 0.22209 0.0
C556 C 0.44083 0.31323 0.33139 0.0
C557 C 0.45755 0.3014 0.29892 0.0
C558 C 0.44468 0.33441 0.35507 0.0
C559 C 0.4653 0.34373 0.34663 0.0
C560 C 0.48216 0.33159 0.31625 0.0
H561 H 0.53872 0.45561 0.44612 0.0
H562 H 0.5231 0.42362 0.3892 0.0
C563 C 0.47827 0.31055 0.29227 0.0
C564 C 0.46953 0.36626 0.3686 0.0
H565 H 0.46546 0.41883 0.31194 0.0
C566 C 0.48151 0.36975 0.4309 0.0
C567 C 0.46333 0.38403 0.32548 0.0
C568 C 0.45077 0.38067 0.25736 0.0
C569 C 0.48784 0.39072 0.45084 0.0
C570 C 0.48228 0.40848 0.40657 0.0
C571 C 0.46973 0.40508 0.34529 0.0
C572 C 0.49026 0.43046 0.42306 0.0
C573 C 0.50076 0.39374 0.51854 0.0
C574 C 0.47661 0.44557 0.45629 0.0
C575 C 0.48547 0.46399 0.48862 0.0
C576 C 0.50808 0.46729 0.48885 0.0
C577 C 0.52127 0.45344 0.44786 0.0
C578 C 0.51241 0.43509 0.41542 0.0
H579 H 0.50015 0.37911 0.55323 0.0
H580 H 0.51799 0.39693 0.50477 0.0
H581 H 0.49463 0.40791 0.54914 0.0
H582 H 0.45942 0.44227 0.46204 0.0
H583 H 0.47487 0.47464 0.51837 0.0
H584 H 0.20136 0.41992 0.25629 0.0
H585 H 0.16337 0.42874 0.28603 0.0
H586 H 0.18418 0.49023 0.37267 0.0
H587 H 0.22195 0.48137 0.34247 0.0
H588 H 0.14427 0.44198 0.42393 0.0
H589 H 0.13854 0.50266 0.20904 0.0
H590 H 0.16267 0.4865 0.22186 0.0
H591 H 0.1586 0.51083 0.2729 0.0
C592 C 0.19767 0.43504 0.2831 0.0
C593 C 0.21427 0.44994 0.29808 0.0
C594 C 0.17613 0.44011 0.29963 0.0
C595 C 0.17108 0.46024 0.33049 0.0
C596 C 0.18782 0.47472 0.34812 0.0
H597 H 0.07782 0.54059 0.50158 0.0
H598 H 0.10594 0.52304 0.43226 0.0
C599 C 0.20929 0.46961 0.33185 0.0
C600 C 0.14832 0.46651 0.34351 0.0
H601 H 0.11119 0.50575 0.30397 0.0
C602 C 0.13677 0.45566 0.39703 0.0
C603 C 0.13872 0.4843 0.30779 0.0
C604 C 0.15029 0.49655 0.24928 0.0
C605 C 0.11643 0.46322 0.41995 0.0
C606 C 0.10717 0.48166 0.38633 0.0
C607 C 0.1182 0.49156 0.32944 0.0
C608 C 0.08812 0.49308 0.41682 0.0
C609 C 0.10585 0.45223 0.48294 0.0
C610 C 0.06814 0.48258 0.42775 0.0
C611 C 0.05188 0.49265 0.46825 0.0
C612 C 0.05541 0.51333 0.49781 0.0
C613 C 0.07455 0.52457 0.48022 0.0
C614 C 0.09076 0.51451 0.44057 0.0
H615 H 0.11732 0.44146 0.51198 0.0
H616 H 0.09932 0.46435 0.52114 0.0
H617 H 0.09222 0.44206 0.46362 0.0
H618 H 0.06548 0.46633 0.40756 0.0
H619 H 0.03692 0.484 0.47858 0.0
H620 H 0.98565 0.79334 0.0299 0.0
H621 H 0.99342 0.83053 0.98921 0.0
H622 H 0.93661 0.85366 0.10006 0.0
H623 H 0.92886 0.81639 0.1405 0.0
H624 H 0.94855 0.86943 0.93977 0.0
H625 H 0.00926 0.8781 0.15703 0.0
H626 H 0.01323 0.85562 0.09722 0.0
H627 H 0.98994 0.85602 0.15425 0.0
C628 C 0.97457 0.80635 0.04357 0.0
C629 C 0.95657 0.80227 0.0873 0.0
C630 C 0.97904 0.82746 0.0209 0.0
C631 C 0.96553 0.84465 0.04181 0.0
C632 C 0.94707 0.84048 0.08319 0.0
H633 H 0.97933 0.97977 0.89521 0.0
H634 H 0.96378 0.94848 0.95819 0.0
C635 C 0.94265 0.81936 0.10606 0.0
C636 C 0.9717 0.86716 0.02507 0.0
H637 H 0.00729 0.90691 0.07254 0.0
C638 C 0.96124 0.87784 0.96887 0.0
C639 C 0.98841 0.87771 0.06303 0.0
C640 C 0.00081 0.86637 0.12162 0.0
C641 C 0.96776 0.89868 0.94731 0.0
C642 C 0.98444 0.90947 0.98577 0.0
C643 C 0.9943 0.89887 0.04373 0.0
C644 C 0.99393 0.93034 0.96123 0.0
C645 C 0.9576 0.90822 0.881 0.0
C646 C 0.01635 0.93147 0.94854 0.0
C647 C 0.02532 0.94955 0.91524 0.0
C648 C 0.01197 0.96672 0.8923 0.0
C649 C 0.98987 0.96653 0.91086 0.0
C650 C 0.98095 0.94856 0.94602 0.0
H651 H 0.94933 0.89563 0.84839 0.0
H652 H 0.94525 0.92044 0.89653 0.0
H653 H 0.96999 0.9163 0.84716 0.0
H654 H 0.0268 0.91778 0.96038 0.0
H655 H 0.04244 0.94915 0.90214 0.0
H656 H 0.72032 0.98985 0.11137 0.0
H657 H 0.68339 0.99738 0.06884 0.0
H658 H 0.67414 0.92908 0.02631 0.0
H659 H 0.7113 0.92169 0.06954 0.0
H660 H 0.66496 0.98773 0.93386 0.0
H661 H 0.62277 0.94708 0.15936 0.0
H662 H 0.65162 0.95232 0.15945 0.0
H663 H 0.64087 0.93005 0.10891 0.0
C664 C 0.71035 0.9766 0.09207 0.0
C665 C 0.71828 0.9553 0.09303 0.0
C666 C 0.68939 0.98082 0.06817 0.0
C667 C 0.67605 0.96373 0.04536 0.0
C668 C 0.68417 0.9424 0.04464 0.0
H669 H 0.55304 0.97584 0.83342 0.0
H670 H 0.58378 0.96005 0.8961 0.0
C671 C 0.70528 0.93821 0.06845 0.0
C672 C 0.65368 0.96856 0.02237 0.0
H673 H 0.60039 0.96231 0.06866 0.0
C674 C 0.65083 0.98212 0.9631 0.0
C675 C 0.63538 0.96123 0.0611 0.0
C676 C 0.63771 0.947 0.12615 0.0
C677 C 0.6301 0.98868 0.94159 0.0
C678 C 0.61184 0.98162 0.98081 0.0
C679 C 0.61455 0.96776 0.03937 0.0
C680 C 0.5899 0.98859 0.95999 0.0
C681 C 0.62776 0.00326 0.87731 0.0
C682 C 0.58256 0.0094 0.97833 0.0
C683 C 0.56455 0.01832 0.94373 0.0
C684 C 0.55383 0.00654 0.89 0.0
C685 C 0.56028 0.98501 0.87634 0.0
C686 C 0.5781 0.97604 0.91143 0.0
H687 H 0.64346 0.00591 0.84947 0.0
H688 H 0.61602 0.99613 0.839 0.0
H689 H 0.62128 0.01928 0.89423 0.0
H690 H 0.59169 0.01931 0.01546 0.0
H691 H 0.56009 0.03499 0.95506 0.0
H692 H 0.54122 0.72208 0.01169 0.0
H693 H 0.53743 0.68388 0.9771 0.0
H694 H 0.5858 0.66592 0.13264 0.0
H695 H 0.58997 0.70436 0.16593 0.0
H696 H 0.57036 0.65058 0.93374 0.0
H697 H 0.52717 0.63401 0.18923 0.0
H698 H 0.5294 0.66099 0.1522 0.0
H699 H 0.55258 0.64841 0.19257 0.0
C700 C 0.55159 0.71005 0.03641 0.0
C701 C 0.56602 0.716 0.09084 0.0
C702 C 0.54929 0.68828 0.01725 0.0
C703 C 0.56121 0.67218 0.05285 0.0
C704 C 0.57639 0.67817 0.10494 0.0
H705 H 0.54442 0.53832 0.89936 0.0
H706 H 0.56216 0.56871 0.96102 0.0
C707 C 0.57882 0.7 0.12367 0.0
C708 C 0.55642 0.6491 0.03863 0.0
H709 H 0.52869 0.60567 0.10572 0.0
C710 C 0.56162 0.64054 0.97163 0.0
C711 C 0.54475 0.63633 0.08816 0.0
C712 C 0.53798 0.64529 0.15961 0.0
C713 C 0.55483 0.61965 0.95178 0.0
C714 C 0.54282 0.60696 0.00094 0.0
C715 C 0.53821 0.61532 0.06879 0.0
C716 C 0.53233 0.58641 0.979 0.0
C717 C 0.55943 0.61187 0.87694 0.0
C718 C 0.50964 0.58557 0.9742 0.0
C719 C 0.49952 0.56826 0.93964 0.0
C720 C 0.51201 0.55161 0.90875 0.0
C721 C 0.53453 0.5513 0.92067 0.0
C722 C 0.54466 0.56862 0.95566 0.0
H723 H 0.56566 0.62509 0.84221 0.0
H724 H 0.57183 0.59881 0.87871 0.0
H725 H 0.54452 0.60506 0.85224 0.0
H726 H 0.49982 0.59906 0.99259 0.0
H727 H 0.48211 0.56896 0.93191 0.0
H728 H 0.79636 0.53361 0.07796 0.0
H729 H 0.83352 0.52558 0.03864 0.0
H730 H 0.85113 0.59273 0.07101 0.0
H731 H 0.81366 0.60064 0.11009 0.0
H732 H 0.85816 0.54637 0.92468 0.0
H733 H 0.89436 0.55479 0.19545 0.0
H734 H 0.86547 0.55223 0.18109 0.0
H735 H 0.87882 0.57743 0.16221 0.0
C736 C 0.80817 0.54661 0.07505 0.0
C737 C 0.80251 0.56767 0.09601 0.0
C738 C 0.82927 0.54207 0.05327 0.0
C739 C 0.84499 0.55854 0.05285 0.0
C740 C 0.83918 0.57981 0.07184 0.0
H741 H 0.97171 0.5409 0.86664 0.0
H742 H 0.9423 0.55823 0.93168 0.0
C743 C 0.81794 0.58437 0.09335 0.0
C744 C 0.86744 0.55305 0.03302 0.0
H745 H 0.91802 0.54423 0.10203 0.0
C746 C 0.87132 0.54613 0.96311 0.0
C747 C 0.88439 0.55263 0.08389 0.0
C748 C 0.88067 0.55951 0.1601 0.0
C749 C 0.89174 0.53838 0.94278 0.0
C750 C 0.90859 0.53755 0.99383 0.0
C751 C 0.90493 0.54493 0.06342 0.0
C752 C 0.92976 0.52822 0.97472 0.0
C753 C 0.89509 0.53054 0.86731 0.0
C754 C 0.93302 0.50575 0.98066 0.0
C755 C 0.95004 0.49581 0.94382 0.0
C756 C 0.96386 0.50828 0.90034 0.0
C757 C 0.96172 0.531 0.90069 0.0
C758 C 0.9448 0.54092 0.93758 0.0
H759 H 0.88022 0.5322 0.83426 0.0
H760 H 0.90836 0.53994 0.84179 0.0
H761 H 0.90005 0.5132 0.86775 0.0
H762 H 0.92137 0.49573 0.00882 0.0
H763 H 0.95123 0.47826 0.94473 0.0
H764 H 0.07348 0.23396 0.07949 0.0
H765 H 0.06503 0.20266 0.00289 0.0
H766 H 0.01971 0.17929 0.16072 0.0
H767 H 0.02722 0.21125 0.23448 0.0
H768 H 0.0715 0.16035 0.02988 0.0
H769 H 0.98355 0.17382 0.98532 0.0
H770 H 0.00084 0.19436 0.02361 0.0
H771 H 0.99062 0.1725 0.0779 0.0
C772 C 0.06116 0.22249 0.09615 0.0
C773 C 0.05079 0.22503 0.16211 0.0
C774 C 0.05657 0.20447 0.05315 0.0
C775 C 0.04156 0.18865 0.07559 0.0
C776 C 0.03093 0.19146 0.14118 0.0
H777 H 0.03158 0.05793 0.882 0.0
H778 H 0.04098 0.08788 0.96316 0.0
C779 C 0.03526 0.20964 0.18345 0.0
C780 C 0.03759 0.16893 0.0315 0.0
H781 H 0.99773 0.13985 0.94847 0.0
C782 C 0.05538 0.1559 0.01181 0.0
C783 C 0.01656 0.16307 0.00798 0.0
C784 C 0.99684 0.17677 0.02419 0.0
C785 C 0.05274 0.1374 0.96858 0.0
C786 C 0.03167 0.13149 0.94559 0.0
C787 C 0.01388 0.14431 0.96631 0.0
C788 C 0.02764 0.11313 0.89563 0.0
C789 C 0.07258 0.12479 0.94608 0.0
C790 C 0.01702 0.11728 0.83092 0.0
C791 C 0.01143 0.1003 0.78534 0.0
C792 C 0.01638 0.07865 0.80297 0.0
C793 C 0.02769 0.07445 0.86669 0.0
C794 C 0.03312 0.09156 0.91298 0.0
H795 H 0.08774 0.13427 0.95417 0.0
H796 H 0.07376 0.10975 0.97848 0.0
H797 H 0.0715 0.12003 0.88911 0.0
H798 H 0.01271 0.13374 0.81608 0.0
H799 H 0.00289 0.10417 0.73648 0.0
H800 H 0.28148 0.03022 0.10269 0.0
H801 H 0.31289 0.02149 0.02667 0.0
H802 H 0.34394 0.08108 0.09119 0.0
H803 H 0.31228 0.09016 0.16478 0.0
H804 H 0.33453 0.05211 0.91241 0.0
H805 H 0.38616 0.02644 0.14109 0.0
H806 H 0.35683 0.0268 0.14588 0.0
H807 H 0.37176 0.05175 0.14897 0.0
C808 C 0.29473 0.0417 0.09872 0.0
C809 C 0.29442 0.06097 0.13878 0.0
C810 C 0.31274 0.03661 0.05617 0.0
C811 C 0.33078 0.05056 0.05396 0.0
C812 C 0.33025 0.07004 0.09257 0.0
H813 H 0.45899 0.0386 0.85198 0.0
H814 H 0.42821 0.05097 0.92495 0.0
C815 C 0.31218 0.07524 0.13422 0.0
C816 C 0.35029 0.04476 0.01179 0.0
H817 H 0.40269 0.02704 0.02735 0.0
C818 C 0.34943 0.0466 0.93739 0.0
C819 C 0.36974 0.03779 0.04477 0.0
C820 C 0.37131 0.03538 0.12459 0.0
C821 C 0.36755 0.04164 0.89493 0.0
C822 C 0.38692 0.03425 0.9277 0.0
C823 C 0.38786 0.03272 0.00231 0.0
C824 C 0.40581 0.0268 0.88492 0.0
C825 C 0.3659 0.04457 0.81527 0.0
C826 C 0.40353 0.00891 0.83938 0.0
C827 C 0.42096 0.00182 0.79798 0.0
C828 C 0.44123 0.01239 0.8012 0.0
C829 C 0.44362 0.03015 0.84786 0.0
C830 C 0.42607 0.03722 0.88965 0.0
H831 H 0.35259 0.05592 0.80067 0.0
H832 H 0.38137 0.05083 0.79281 0.0
H833 H 0.3624 0.02864 0.79014 0.0
H834 H 0.3882 1.00035 0.83589 0.0
H835 H 0.41844 0.98803 0.76313 0.0
H836 H 0.42875 0.31039 0.175 0.0
H837 H 0.43613 0.34263 0.10241 0.0
H838 H 0.49576 0.31345 0.02911 0.0
H839 H 0.48862 0.28144 0.10436 0.0
H840 H 0.50115 0.3557 0.07699 0.0
H841 H 0.43165 0.35175 0.88894 0.0
H842 H 0.42399 0.35089 0.98119 0.0
H843 H 0.43958 0.32899 0.94378 0.0
C844 C 0.44318 0.31075 0.14205 0.0
C845 C 0.45797 0.2934 0.14419 0.0
C846 C 0.44737 0.32911 0.10053 0.0
C847 C 0.46634 0.33037 0.05936 0.0
C848 C 0.48093 0.31277 0.06002 0.0
H849 H 0.52252 0.41701 0.75765 0.0
H850 H 0.51043 0.38734 0.8337 0.0
C851 C 0.47675 0.29439 0.10206 0.0
C852 C 0.47146 0.35049 0.01876 0.0
H853 H 0.45296 0.38388 0.88611 0.0
C854 C 0.49062 0.36182 0.03521 0.0
C855 C 0.45759 0.35863 0.96469 0.0
C856 C 0.43715 0.34686 0.94303 0.0
C857 C 0.49635 0.3809 0.99862 0.0
C858 C 0.48263 0.38884 0.9442 0.0
C859 C 0.46331 0.37781 0.92847 0.0
C860 C 0.48931 0.40725 0.89827 0.0
C861 C 0.51718 0.39243 0.01752 0.0
C862 C 0.48118 0.42832 0.90897 0.0
C863 C 0.48811 0.44555 0.86534 0.0
C864 C 0.50324 0.44187 0.81038 0.0
C865 C 0.51099 0.42058 0.79964 0.0
C866 C 0.5041 0.40352 0.84303 0.0
H867 H 0.52472 0.38577 0.06671 0.0
H868 H 0.5289 0.3907 0.97296 0.0
H869 H 0.51408 0.41005 0.02512 0.0
H870 H 0.4697 0.43146 0.95144 0.0
H871 H 0.48184 0.46171 0.87514 0.0
H872 H 0.22761 0.49182 0.16736 0.0
H873 H 0.19538 0.50129 0.0962 0.0
H874 H 0.18482 0.43336 0.05139 0.0
H875 H 0.21701 0.42409 0.12297 0.0
H876 H 0.18492 0.49284 0.95369 0.0
H877 H 0.12728 0.4539 0.14003 0.0
H878 H 0.15609 0.45432 0.15684 0.0
H879 H 0.14471 0.43436 0.09804 0.0
C880 C 0.21868 0.4791 0.14036 0.0
C881 C 0.22482 0.45733 0.14892 0.0
C882 C 0.2002 0.48442 0.10056 0.0
C883 C 0.1875 0.46799 0.06938 0.0
C884 C 0.19418 0.44626 0.07579 0.0
H885 H 0.06685 0.47411 0.82081 0.0
H886 H 0.09812 0.46142 0.89102 0.0
C887 C 0.21266 0.44099 0.11555 0.0
C888 C 0.16732 0.47368 0.03021 0.0
H889 H 0.11219 0.46699 0.0295 0.0
C890 C 0.16901 0.48723 0.97037 0.0
C891 C 0.14658 0.46612 0.05156 0.0
C892 C 0.14354 0.45154 0.11552 0.0
C893 C 0.15063 0.49336 0.93099 0.0
C894 C 0.1298 0.48633 0.95336 0.0
C895 C 0.1281 0.4725 0.01264 0.0
C896 C 0.10969 0.49371 0.91661 0.0
C897 C 0.1538 0.50698 0.86488 0.0
C898 C 0.1053 0.51598 0.91018 0.0
C899 C 0.08772 0.52321 0.86968 0.0
C900 C 0.0738 0.50833 0.8358 0.0
C901 C 0.07732 0.48596 0.84608 0.0
C902 C 0.09519 0.47871 0.88605 0.0
H903 H 0.17048 0.50518 0.84307 0.0
H904 H 0.14199 0.50253 0.82265 0.0
H905 H 0.15143 0.52436 0.8785 0.0
H906 H 0.11581 0.52785 0.93519 0.0
H907 H 0.08525 0.54055 0.86395 0.0
H908 H 0.93058 0.78934 0.29919 0.0
H909 H 0.93542 0.8215 0.37598 0.0
H910 H 0.99603 0.83556 0.27077 0.0
H911 H 0.99133 0.80328 0.1953 0.0
H912 H 0.97432 0.83322 0.46697 0.0
H913 H 0.94598 0.88741 0.26253 0.0
H914 H 0.95478 0.86076 0.23585 0.0
H915 H 0.97326 0.88361 0.23388 0.0
C916 C 0.94514 0.79905 0.29409 0.0
C917 C 0.96065 0.79391 0.24198 0.0
C918 C 0.94779 0.81749 0.33712 0.0
C919 C 0.96587 0.83111 0.32792 0.0
C920 C 0.9818 0.82545 0.27781 0.0
H921 H 0.03217 0.9249 0.57579 0.0
H922 H 0.01847 0.89431 0.50741 0.0
C923 C 0.97922 0.80699 0.2353 0.0
C924 C 0.96835 0.85123 0.37066 0.0
H925 H 0.97154 0.90652 0.35692 0.0
C926 C 0.97349 0.84926 0.44315 0.0
C927 C 0.96679 0.8722 0.33987 0.0
C928 C 0.9598 0.87582 0.26371 0.0
C929 C 0.97824 0.86762 0.48483 0.0
C930 C 0.97825 0.88847 0.45281 0.0
C931 C 0.97189 0.89054 0.38131 0.0
C932 C 0.98646 0.90791 0.49137 0.0
C933 C 0.98341 0.86446 0.56277 0.0
C934 C 0.97336 0.92634 0.50229 0.0
C935 C 0.98131 0.94419 0.5411 0.0
C936 C 0.00246 0.94382 0.56945 0.0
C937 C 0.01567 0.92563 0.55595 0.0
C938 C 0.00783 0.90801 0.51706 0.0
H939 H 0.97605 0.84926 0.58371 0.0
H940 H 0.00127 0.86318 0.56952 0.0
H941 H 0.97753 0.87835 0.59519 0.0
H942 H 0.95689 0.92672 0.48214 0.0
H943 H 0.97076 0.95799 0.55034 0.0
H944 H 0.73766 0.99087 0.27252 0.0
H945 H 0.7057 0.99958 0.34562 0.0
H946 H 0.67913 0.93613 0.3015 0.0
H947 H 0.71101 0.92767 0.22815 0.0
H948 H 0.64953 0.96808 0.27905 0.0
H949 H 0.68822 0.97967 0.54293 0.0
H950 H 0.70004 0.99617 0.47431 0.0
H951 H 0.70219 0.96705 0.46922 0.0
C952 C 0.7253 0.97862 0.28072 0.0
C953 C 0.72688 0.95845 0.24636 0.0
C954 C 0.707 0.98359 0.322 0.0
C955 C 0.69011 0.96838 0.32997 0.0
C956 C 0.69197 0.94807 0.2966 0.0
H957 H 0.56297 0.9759 0.54531 0.0
H958 H 0.59378 0.96317 0.47323 0.0
C959 C 0.7102 0.94316 0.25532 0.0
C960 C 0.67002 0.97398 0.37001 0.0
H961 H 0.6516 0.99154 0.53162 0.0
C962 C 0.64994 0.97301 0.33446 0.0
C963 C 0.67054 0.98037 0.44238 0.0
C964 C 0.69137 0.98069 0.48472 0.0
C965 C 0.63048 0.97892 0.36862 0.0
C966 C 0.63111 0.98577 0.44055 0.0
C967 C 0.65114 0.98636 0.47638 0.0
C968 C 0.6115 0.99351 0.47917 0.0
C969 C 0.60956 0.97846 0.32681 0.0
C970 C 0.61121 0.01469 0.50649 0.0
C971 C 0.59386 0.02187 0.54801 0.0
C972 C 0.57628 0.00804 0.56336 0.0
C973 C 0.57621 0.98697 0.53424 0.0
C974 C 0.59377 0.97972 0.49281 0.0
H975 H 0.61249 0.97734 0.26848 0.0
H976 H 0.59992 0.96407 0.34315 0.0
H977 H 0.59972 0.9932 0.33775 0.0
H978 H 0.62465 0.02564 0.49653 0.0
H979 H 0.5944 0.03827 0.56889 0.0
H980 H 0.5807 0.73122 0.3061 0.0
H981 H 0.57317 0.69945 0.38199 0.0
H982 H 0.51679 0.68477 0.25412 0.0
H983 H 0.52422 0.71672 0.1798 0.0
H984 H 0.50793 0.67834 0.38806 0.0
H985 H 0.58566 0.63764 0.32731 0.0
H986 H 0.59009 0.66318 0.37091 0.0
H987 H 0.57761 0.66255 0.28419 0.0
C988 C 0.56647 0.72139 0.29575 0.0
C989 C 0.55291 0.72629 0.23796 0.0
C990 C 0.56237 0.70307 0.33802 0.0
C991 C 0.54477 0.68929 0.32248 0.0
C992 C 0.53062 0.69493 0.26668 0.0
H993 H 0.52758 0.55759 0.4981 0.0
H994 H 0.53644 0.5883 0.41922 0.0
C995 C 0.53471 0.71322 0.22468 0.0
C996 C 0.54087 0.66911 0.36442 0.0
H997 H 0.5648 0.62228 0.42352 0.0
C998 C 0.52037 0.66606 0.39541 0.0
C999 C 0.55686 0.65272 0.3726 0.0
C1000 C 0.57868 0.65406 0.33627 0.0
C1001 C 0.51561 0.64752 0.43608 0.0
C1002 C 0.53204 0.63184 0.44831 0.0
C1003 C 0.55232 0.63446 0.41526 0.0
C1004 C 0.52851 0.61305 0.49699 0.0
C1005 C 0.49286 0.64484 0.46471 0.0
C1006 C 0.52196 0.6167 0.56758 0.0
C1007 C 0.51666 0.59932 0.61202 0.0
C1008 C 0.51826 0.57779 0.58757 0.0
C1009 C 0.52616 0.574 0.51835 0.0
C1010 C 0.53117 0.59153 0.47327 0.0
H1011 H 0.48087 0.65394 0.43198 0.0
H1012 H 0.48797 0.62748 0.46613 0.0
H1013 H 0.49212 0.65142 0.51971 0.0
H1014 H 0.52049 0.6331 0.588 0.0
H1015 H 0.51098 0.60278 0.66549 0.0
H1016 H 0.78622 0.52725 0.25584 0.0
H1017 H 0.81876 0.51812 0.32629 0.0
H1018 H 0.83954 0.58496 0.31492 0.0
H1019 H 0.8068 0.59399 0.24656 0.0
H1020 H 0.8619 0.52331 0.28064 0.0
H1021 H 0.8469 0.57138 0.52625 0.0
H1022 H 0.82568 0.56528 0.46293 0.0
H1023 H 0.84488 0.58656 0.44479 0.0
C1024 C 0.79741 0.54001 0.2709 0.0
C1025 C 0.79393 0.56138 0.24753 0.0
C1026 C 0.81609 0.5348 0.31012 0.0
C1027 C 0.83148 0.55092 0.3267 0.0
C1028 C 0.82771 0.57235 0.30435 0.0
H1029 H 0.956 0.54338 0.55703 0.0
H1030 H 0.92628 0.55637 0.48041 0.0
C1031 C 0.80906 0.57752 0.26544 0.0
C1032 C 0.85199 0.54517 0.36413 0.0
H1033 H 0.8815 0.55502 0.51505 0.0
C1034 C 0.86617 0.53024 0.33191 0.0
C1035 C 0.85773 0.55444 0.43057 0.0
C1036 C 0.84295 0.57017 0.4686 0.0
C1037 C 0.88584 0.52426 0.36447 0.0
C1038 C 0.89127 0.53304 0.43187 0.0
C1039 C 0.87735 0.54835 0.46332 0.0
C1040 C 0.91026 0.52514 0.47347 0.0
C1041 C 0.90069 0.50865 0.3262 0.0
C1042 C 0.9111 0.50335 0.49501 0.0
C1043 C 0.92787 0.49597 0.53885 0.0
C1044 C 0.94427 0.5102 0.56241 0.0
C1045 C 0.9437 0.53198 0.5396 0.0
C1046 C 0.92671 0.53943 0.49598 0.0
H1047 H 0.89782 0.50889 0.26771 0.0
H1048 H 0.91801 0.51256 0.3365 0.0
H1049 H 0.89751 0.49192 0.34557 0.0
H1050 H 0.89842 0.49212 0.4795 0.0
H1051 H 0.92777 0.47909 0.55513 0.0
loop_
_geom_bond_atom_site_label_1
_geom_bond_atom_site_label_2
_geom_bond_distance
_geom_bond_site_symmetry_2
_ccdc_geom_bond_type
C0 N1 1.317 . S
C0 N2 1.348 . S
C0 C3 1.485 . S
N1 C0 1.317 . S
N1 N5 1.370 . S
N2 C0 1.348 . S
N2 C4 1.346 . S
C3 C0 1.485 . S
C3 H7 0.960 . S
C3 H8 0.961 . S
C3 H9 0.960 . S
C4 N2 1.346 . S
C4 N5 1.307 . S
C4 C6 1.486 1_554 S
N5 N1 1.370 . S
N5 C4 1.307 . S
C6 C4 1.486 1_556 S
C6 H10 0.960 . S
C6 H11 0.960 . S
C6 H12 0.959 . S
H7 C3 0.960 . S
H8 C3 0.961 . S
H9 C3 0.960 . S
H10 C6 0.960 . S
H11 C6 0.960 . S
H12 C6 0.959 . S
C13 N14 1.317 . S
C13 N15 1.348 . S
C13 C16 1.485 . S
N14 C13 1.317 . S
N14 N18 1.370 . S
N15 C13 1.348 . S
N15 C17 1.346 . S
C16 C13 1.485 . S
C16 H20 0.960 . S
C16 H21 0.961 . S
C16 H22 0.960 . S
C17 N15 1.346 . S
C17 N18 1.307 . S
C17 C19 1.486 1_554 S
N18 N14 1.370 . S
N18 C17 1.307 . S
C19 C17 1.486 1_556 S
C19 H23 0.960 . S
C19 H24 0.960 . S
C19 H25 0.959 . S
H20 C16 0.960 . S
H21 C16 0.961 . S
H22 C16 0.960 . S
H23 C19 0.960 . S
H24 C19 0.960 . S
H25 C19 0.959 . S
C26 N27 1.317 . S
C26 N28 1.348 . S
C26 C29 1.485 . S
N27 C26 1.317 . S
N27 N31 1.370 . S
N28 C26 1.348 . S
N28 C30 1.346 . S
C29 C26 1.485 . S
C29 H33 0.960 . S
C29 H34 0.961 . S
C29 H35 0.960 . S
C30 N28 1.346 . S
C30 N31 1.307 . S
C30 C32 1.486 1_554 S
N31 N27 1.370 . S
N31 C30 1.307 . S
C32 C30 1.486 1_556 S
C32 H36 0.960 . S
C32 H37 0.960 . S
C32 H38 0.959 . S
H33 C29 0.960 . S
H34 C29 0.961 . S
H35 C29 0.960 . S
H36 C32 0.960 . S
H37 C32 0.960 . S
H38 C32 0.959 . S
C39 N40 1.317 . S
C39 N41 1.348 . S
C39 C42 1.485 . S
N40 C39 1.317 . S
N40 N44 1.370 . S
N41 C39 1.348 . S
N41 C43 1.346 . S
C42 C39 1.485 . S
C42 H46 0.960 . S
C42 H47 0.961 . S
C42 H48 0.960 . S
C43 N41 1.346 . S
C43 N44 1.307 . S
C43 C45 1.486 1_554 S
N44 N40 1.370 . S
N44 C43 1.307 . S
C45 C43 1.486 1_556 S
C45 H49 0.960 . S
C45 H50 0.960 . S
C45 H51 0.959 . S
H46 C42 0.960 . S
H47 C42 0.961 . S
H48 C42 0.960 . S
H49 C45 0.960 . S
H50 C45 0.960 . S
H51 C45 0.959 . S
C52 N53 1.317 . S
C52 N54 1.348 . S
C52 C55 1.485 . S
N53 C52 1.317 . S
N53 N57 1.370 . S
N54 C52 1.348 . S
N54 C56 1.346 . S
C55 C52 1.485 . S
C55 H59 0.960 . S
C55 H60 0.961 . S
C55 H61 0.960 . S
C56 N54 1.346 . S
C56 N57 1.307 . S
C56 C58 1.486 . S
N57 N53 1.370 . S
N57 C56 1.307 . S
C58 C56 1.486 . S
C58 H62 0.960 . S
C58 H63 0.960 . S
C58 H64 0.959 . S
H59 C55 0.960 . S
H60 C55 0.961 . S
H61 C55 0.960 . S
H62 C58 0.960 . S
H63 C58 0.960 . S
H64 C58 0.959 . S
C65 N66 1.317 . S
C65 N67 1.348 . S
C65 C68 1.485 . S
N66 C65 1.317 . S
N66 N70 1.370 . S
N67 C65 1.348 . S
N67 C69 1.346 . S
C68 C65 1.485 . S
C68 H72 0.960 . S
C68 H73 0.961 . S
C68 H74 0.960 . S
C69 N67 1.346 . S
C69 N70 1.307 . S
C69 C71 1.486 . S
N70 N66 1.370 . S
N70 C69 1.307 . S
C71 C69 1.486 . S
C71 H75 0.960 . S
C71 H76 0.960 . S
C71 H77 0.959 . S
H72 C68 0.960 . S
H73 C68 0.961 . S
H74 C68 0.960 . S
H75 C71 0.960 . S
H76 C71 0.960 . S
H77 C71 0.959 . S
C78 N79 1.317 . S
C78 N80 1.348 . S
C78 C81 1.485 . S
N79 C78 1.317 . S
N79 N83 1.370 . S
N80 C78 1.348 . S
N80 C82 1.346 . S
C81 C78 1.485 . S
C81 H85 0.960 . S
C81 H86 0.961 . S
C81 H87 0.960 . S
C82 N80 1.346 . S
C82 N83 1.307 . S
C82 C84 1.486 . S
N83 N79 1.370 . S
N83 C82 1.307 . S
C84 C82 1.486 . S
C84 H88 0.960 . S
C84 H89 0.960 . S
C84 H90 0.959 . S
H85 C81 0.960 . S
H86 C81 0.961 . S
H87 C81 0.960 . S
H88 C84 0.960 . S
H89 C84 0.960 . S
H90 C84 0.959 . S
C91 N92 1.317 . S
C91 N93 1.348 . S
C91 C94 1.485 . S
N92 C91 1.317 . S
N92 N96 1.370 . S
N93 C91 1.348 . S
N93 C95 1.346 . S
C94 C91 1.485 . S
C94 H98 0.960 . S
C94 H99 0.961 . S
C94 H100 0.960 . S
C95 N93 1.346 . S
C95 N96 1.307 . S
C95 C97 1.486 . S
N96 N92 1.370 . S
N96 C95 1.307 . S
C97 C95 1.486 . S
C97 H101 0.960 . S
C97 H102 0.960 . S
C97 H103 0.959 . S
H98 C94 0.960 . S
H99 C94 0.961 . S
H100 C94 0.960 . S
H101 C97 0.960 . S
H102 C97 0.960 . S
H103 C97 0.959 . S
O104 Mg105 1.990 . S
O104 C118 1.253 . S
Mg105 O104 1.990 . S
Mg105 O108 2.180 1_565 S
Mg105 O109 2.117 . S
Mg105 O123 2.030 . S
O106 Mg107 2.072 1_565 S
O106 C118 1.260 . S
Mg107 O106 2.072 1_545 S
Mg107 O108 2.099 . S
Mg107 O110 2.079 . S
Mg107 O111 2.072 . S
Mg107 O113 2.099 1_455 S
Mg107 O124 2.079 1_445 S
O108 Mg105 2.180 1_545 S
O108 Mg107 2.099 . S
O108 C119 1.279 . S
O109 Mg105 2.117 . S
O109 C119 1.250 1_565 S
O110 Mg107 2.079 . S
O110 C120 1.264 . S
O111 Mg107 2.072 . S
O111 C121 1.260 . S
Mg112 O113 2.180 . S
Mg112 O114 2.030 . S
Mg112 O115 1.990 . S
Mg112 O116 2.117 . S
O113 Mg107 2.099 1_655 S
O113 Mg112 2.180 . S
O113 C122 1.279 . S
O114 Mg112 2.030 . S
O114 C120 1.248 1_655 S
O115 Mg112 1.990 . S
O115 C121 1.253 1_655 S
O116 Mg112 2.117 . S
O116 C122 1.250 . S
C117 O123 1.252 . S
C117 O124 1.263 1_455 S
C118 O104 1.253 . S
C118 O106 1.260 . S
C119 O108 1.279 . S
C119 O109 1.250 1_545 S
C120 O110 1.264 . S
C120 O114 1.248 1_455 S
C121 O111 1.260 . S
C121 O115 1.253 1_455 S
C122 O113 1.279 . S
C122 O116 1.250 . S
O123 Mg105 2.030 . S
O123 C117 1.252 . S
O124 Mg107 2.079 1_665 S
O124 C117 1.263 1_655 S
O125 Mg126 1.990 . S
O125 C139 1.253 1_565 S
Mg126 O125 1.990 . S
Mg126 O129 2.180 . S
Mg126 O130 2.117 . S
Mg126 O144 2.030 . S
O127 Mg128 2.072 . S
O127 C139 1.260 . S
Mg128 O127 2.072 . S
Mg128 O129 2.099 1_545 S
Mg128 O131 2.079 1_545 S
Mg128 O132 2.072 . S
Mg128 O134 2.099 . S
Mg128 O145 2.079 . S
O129 Mg126 2.180 . S
O129 Mg128 2.099 1_565 S
O129 C140 1.279 . S
O130 Mg126 2.117 . S
O130 C140 1.250 . S
O131 Mg128 2.079 1_565 S
O131 C141 1.257 1_565 S
O132 Mg128 2.072 . S
O132 C142 1.260 . S
Mg133 O134 2.180 . S
Mg133 O135 2.030 . S
Mg133 O136 1.990 . S
Mg133 O137 2.117 . S
O134 Mg128 2.099 . S
O134 Mg133 2.180 . S
O134 C143 1.279 . S
O135 Mg133 2.030 . S
O135 C141 1.279 . S
O136 Mg133 1.990 . S
O136 C142 1.253 . S
O137 Mg133 2.117 . S
O137 C143 1.250 . S
C138 O144 1.248 1_545 S
C138 O145 1.264 . S
C139 O125 1.253 1_545 S
C139 O127 1.260 . S
C140 O129 1.279 . S
C140 O130 1.250 . S
C141 O131 1.257 1_545 S
C141 O135 1.279 . S
C142 O132 1.260 . S
C142 O136 1.253 . S
C143 O134 1.279 . S
C143 O137 1.250 . S
O144 Mg126 2.030 . S
O144 C138 1.248 1_565 S
O145 Mg128 2.079 . S
O145 C138 1.264 . S
O146 Mg147 1.990 . S
O146 C160 1.253 . S
Mg147 O146 1.990 . S
Mg147 O150 2.180 . S
Mg147 O151 2.117 . S
Mg147 O165 2.030 . S
O148 Mg149 2.072 . S
O148 C160 1.260 . S
Mg149 O148 2.072 . S
Mg149 O150 2.099 . S
Mg149 O152 2.079 . S
Mg149 O153 2.072 . S
Mg149 O155 2.099 . S
Mg149 O166 2.079 . S
O150 Mg147 2.180 . S
O150 Mg149 2.099 . S
O150 C161 1.279 . S
O151 Mg147 2.117 . S
O151 C161 1.250 . S
O152 Mg149 2.079 . S
O152 C162 1.264 . S
O153 Mg149 2.072 . S
O153 C163 1.260 . S
Mg154 O155 2.180 . S
Mg154 O156 2.030 . S
Mg154 O157 1.990 . S
Mg154 O158 2.117 . S
O155 Mg149 2.099 . S
O155 Mg154 2.180 . S
O155 C164 1.279 . S
O156 Mg154 2.030 . S
O156 C162 1.248 . S
O157 Mg154 1.990 . S
O157 C163 1.253 . S
O158 Mg154 2.117 . S
O158 C164 1.250 . S
C159 O165 1.248 . S
C159 O166 1.264 . S
C160 O146 1.253 . S
C160 O148 1.260 . S
C161 O150 1.279 . S
C161 O151 1.250 . S
C162 O152 1.264 . S
C162 O156 1.248 . S
C163 O153 1.260 . S
C163 O157 1.253 . S
C164 O155 1.279 . S
C164 O158 1.250 . S
O165 Mg147 2.030 . S
O165 C159 1.248 . S
O166 Mg149 2.079 . S
O166 C159 1.264 . S
O167 Mg168 1.990 . S
O167 C181 1.253 . S
Mg168 O167 1.990 . S
Mg168 O171 2.154 1_655 S
Mg168 O172 2.117 . S
Mg168 O186 2.030 . S
O169 Mg170 2.072 1_655 S
O169 C181 1.260 . S
Mg170 O169 2.072 1_455 S
Mg170 O171 2.106 . S
Mg170 O173 2.079 . S
Mg170 O174 2.072 . S
Mg170 O176 2.099 . S
Mg170 O187 2.079 1_455 S
O171 Mg168 2.154 1_455 S
O171 Mg170 2.106 . S
O171 C182 1.281 . S
O172 Mg168 2.117 . S
O172 C182 1.250 1_655 S
O173 Mg170 2.079 . S
O173 C183 1.264 . S
O174 Mg170 2.072 . S
O174 C184 1.260 . S
Mg175 O176 2.180 . S
Mg175 O177 2.030 . S
Mg175 O178 1.990 . S
Mg175 O179 2.117 . S
O176 Mg170 2.099 . S
O176 Mg175 2.180 . S
O176 C185 1.279 . S
O177 Mg175 2.030 . S
O177 C183 1.248 . S
O178 Mg175 1.990 . S
O178 C184 1.253 . S
O179 Mg175 2.117 . S
O179 C185 1.250 . S
C180 O186 1.248 . S
C180 O187 1.264 . S
C181 O167 1.253 . S
C181 O169 1.260 . S
C182 O171 1.281 . S
C182 O172 1.250 1_455 S
C183 O173 1.264 . S
C183 O177 1.248 . S
C184 O174 1.260 . S
C184 O178 1.253 . S
C185 O176 1.279 . S
C185 O179 1.250 . S
O186 Mg168 2.030 . S
O186 C180 1.248 . S
O187 Mg170 2.079 1_655 S
O187 C180 1.264 . S
H188 C196 0.929 . S
H189 C198 0.930 . S
H190 C200 0.930 . S
H191 C203 0.929 . S
H192 C206 0.930 . S
H193 C208 0.960 . S
H194 C208 0.960 . S
H195 C208 0.960 . S
C196 H188 0.929 . S
C196 C197 1.377 . S
C196 C198 1.384 . S
C197 C196 1.377 . S
C197 C203 1.390 . S
C198 H189 0.930 . S
C198 C196 1.384 . S
C198 C199 1.372 . S
C199 C198 1.372 . S
C199 C200 1.400 . S
C199 C204 1.490 . S
C200 H190 0.930 . S
C200 C199 1.400 . S
C200 C203 1.386 . S
H201 C217 0.930 . S
H202 C218 0.931 . S
C203 H191 0.929 . S
C203 C197 1.390 . S
C203 C200 1.386 . S
C204 C199 1.490 . S
C204 C206 1.395 . S
C204 C207 1.403 . S
H205 C211 0.930 . S
C206 H192 0.930 . S
C206 C204 1.395 . S
C206 C209 1.403 . S
C207 C204 1.403 . S
C207 C208 1.524 . S
C207 C211 1.400 . S
C208 H193 0.960 . S
C208 H194 0.960 . S
C208 H195 0.960 . S
C208 C207 1.524 . S
C209 C206 1.403 . S
C209 C210 1.392 . S
C209 C213 1.495 . S
C210 C209 1.392 . S
C210 C211 1.385 . S
C210 C212 1.478 . S
C211 H205 0.930 . S
C211 C207 1.400 . S
C211 C210 1.385 . S
C212 C210 1.478 . S
C212 C214 1.381 . S
C212 C218 1.383 . S
C213 C209 1.495 . S
C213 H219 0.959 . S
C213 H220 0.961 . S
C213 H221 0.960 . S
C214 C212 1.381 . S
C214 C215 1.390 1_545 S
C214 H222 0.930 1_545 S
C215 C214 1.390 1_565 S
C215 C216 1.364 1_565 S
C215 H223 0.953 . S
C216 C215 1.364 1_545 S
C216 C217 1.377 . S
C217 H201 0.930 . S
C217 C216 1.377 . S
C217 C218 1.379 . S
C218 H202 0.931 . S
C218 C212 1.383 . S
C218 C217 1.379 . S
H219 C213 0.959 . S
H220 C213 0.961 . S
H221 C213 0.960 . S
H222 C214 0.930 1_565 S
H223 C215 0.953 . S
H224 C232 0.929 . S
H225 C234 0.930 . S
H226 C236 0.930 . S
H227 C239 0.929 . S
H228 C242 0.930 . S
H229 C244 0.960 . S
H230 C244 0.960 . S
H231 C244 0.960 . S
C232 H224 0.929 . S
C232 C233 1.377 . S
C232 C234 1.384 . S
C233 C232 1.377 . S
C233 C239 1.390 . S
C234 H225 0.930 . S
C234 C232 1.384 . S
C234 C235 1.372 . S
C235 C234 1.372 . S
C235 C236 1.400 . S
C235 C240 1.490 . S
C236 H226 0.930 . S
C236 C235 1.400 . S
C236 C239 1.386 . S
H237 C253 0.930 . S
H238 C254 0.931 . S
C239 H227 0.929 . S
C239 C233 1.390 . S
C239 C236 1.386 . S
C240 C235 1.490 . S
C240 C242 1.395 . S
C240 C243 1.403 . S
H241 C247 0.930 . S
C242 H228 0.930 . S
C242 C240 1.395 . S
C242 C245 1.403 . S
C243 C240 1.403 . S
C243 C244 1.524 . S
C243 C247 1.400 . S
C244 H229 0.960 . S
C244 H230 0.960 . S
C244 H231 0.960 . S
C244 C243 1.524 . S
C245 C242 1.403 . S
C245 C246 1.392 . S
C245 C249 1.495 . S
C246 C245 1.392 . S
C246 C247 1.385 . S
C246 C248 1.478 . S
C247 H241 0.930 . S
C247 C243 1.400 . S
C247 C246 1.385 . S
C248 C246 1.478 . S
C248 C250 1.381 . S
C248 C254 1.383 . S
C249 C245 1.495 . S
C249 H255 0.959 . S
C249 H256 0.961 . S
C249 H257 0.960 . S
C250 C248 1.381 . S
C250 C251 1.394 . S
C250 H258 0.930 . S
C251 C250 1.394 . S
C251 C252 1.383 . S
C251 H259 0.929 . S
C252 C251 1.383 . S
C252 C253 1.377 . S
C253 H237 0.930 . S
C253 C252 1.377 . S
C253 C254 1.379 . S
C254 H238 0.931 . S
C254 C248 1.383 . S
C254 C253 1.379 . S
H255 C249 0.959 . S
H256 C249 0.961 . S
H257 C249 0.960 . S
H258 C250 0.930 . S
H259 C251 0.929 . S
H260 C268 0.929 . S
H261 C270 0.930 . S
H262 C272 0.930 . S
H263 C275 0.929 . S
H264 C278 0.930 . S
H265 C280 0.960 . S
H266 C280 0.960 . S
H267 C280 0.960 . S
C268 H260 0.929 . S
C268 C269 1.377 . S
C268 C270 1.384 . S
C269 C268 1.377 . S
C269 C275 1.390 . S
C270 H261 0.930 . S
C270 C268 1.384 . S
C270 C271 1.372 . S
C271 C270 1.372 . S
C271 C272 1.400 . S
C271 C276 1.490 . S
C272 H262 0.930 . S
C272 C271 1.400 . S
C272 C275 1.386 . S
H273 C289 0.930 . S
H274 C290 0.931 . S
C275 H263 0.929 . S
C275 C269 1.390 . S
C275 C272 1.386 . S
C276 C271 1.490 . S
C276 C278 1.395 . S
C276 C279 1.403 . S
H277 C283 0.930 . S
C278 H264 0.930 . S
C278 C276 1.395 . S
C278 C281 1.403 . S
C279 C276 1.403 . S
C279 C280 1.524 . S
C279 C283 1.400 . S
C280 H265 0.960 . S
C280 H266 0.960 . S
C280 H267 0.960 . S
C280 C279 1.524 . S
C281 C278 1.403 . S
C281 C282 1.392 . S
C281 C285 1.495 . S
C282 C281 1.392 . S
C282 C283 1.385 . S
C282 C284 1.478 . S
C283 H277 0.930 . S
C283 C279 1.400 . S
C283 C282 1.385 . S
C284 C282 1.478 . S
C284 C286 1.381 . S
C284 C290 1.383 . S
C285 C281 1.495 . S
C285 H291 0.959 . S
C285 H292 0.961 . S
C285 H293 0.960 . S
C286 C284 1.381 . S
C286 C287 1.394 . S
C286 H294 0.930 . S
C287 C286 1.394 . S
C287 C288 1.383 . S
C287 H295 0.929 . S
C288 C287 1.383 . S
C288 C289 1.377 . S
C289 H273 0.930 . S
C289 C288 1.377 . S
C289 C290 1.379 . S
C290 H274 0.931 . S
C290 C284 1.383 . S
C290 C289 1.379 . S
H291 C285 0.959 . S
H292 C285 0.961 . S
H293 C285 0.960 . S
H294 C286 0.930 . S
H295 C287 0.929 . S
H296 C304 0.929 . S
H297 C306 0.930 . S
H298 C308 0.930 . S
H299 C311 0.929 . S
H300 C314 0.930 . S
H301 C316 0.960 . S
H302 C316 0.960 . S
H303 C316 0.960 . S
C304 H296 0.929 . S
C304 C305 1.377 . S
C304 C306 1.384 . S
C305 C304 1.377 . S
C305 C311 1.390 . S
C306 H297 0.930 . S
C306 C304 1.384 . S
C306 C307 1.372 . S
C307 C306 1.372 . S
C307 C308 1.400 . S
C307 C312 1.490 . S
C308 H298 0.930 . S
C308 C307 1.400 . S
C308 C311 1.386 . S
H309 C325 0.930 . S
H310 C326 0.931 . S
C311 H299 0.929 . S
C311 C305 1.390 . S
C311 C308 1.386 . S
C312 C307 1.490 . S
C312 C314 1.395 . S
C312 C315 1.403 . S
H313 C319 0.930 . S
C314 H300 0.930 . S
C314 C312 1.395 . S
C314 C317 1.403 . S
C315 C312 1.403 . S
C315 C316 1.524 . S
C315 C319 1.400 . S
C316 H301 0.960 . S
C316 H302 0.960 . S
C316 H303 0.960 . S
C316 C315 1.524 . S
C317 C314 1.403 . S
C317 C318 1.392 . S
C317 C321 1.495 . S
C318 C317 1.392 . S
C318 C319 1.385 . S
C318 C320 1.478 . S
C319 H313 0.930 . S
C319 C315 1.400 . S
C319 C318 1.385 . S
C320 C318 1.478 . S
C320 C322 1.381 . S
C320 C326 1.383 . S
C321 C317 1.495 . S
C321 H327 0.959 . S
C321 H328 0.961 . S
C321 H329 0.960 . S
C322 C320 1.381 . S
C322 C323 1.398 . S
C322 H330 0.930 1_455 S
C323 C322 1.398 . S
C323 C324 1.397 . S
C323 H331 0.913 1_455 S
C324 C323 1.397 . S
C324 C325 1.377 . S
C325 H309 0.930 . S
C325 C324 1.377 . S
C325 C326 1.379 . S
C326 H310 0.931 . S
C326 C320 1.383 . S
C326 C325 1.379 . S
H327 C321 0.959 . S
H328 C321 0.961 . S
H329 C321 0.960 . S
H330 C322 0.930 1_655 S
H331 C323 0.913 1_655 S
H332 C340 0.929 1_545 S
H333 C342 0.930 1_545 S
H334 C344 0.930 . S
H335 C347 0.929 . S
H336 C350 0.930 1_554 S
H337 C352 0.960 . S
H338 C352 0.960 . S
H339 C352 0.960 . S
C340 H332 0.929 1_565 S
C340 C341 1.377 . S
C340 C342 1.384 . S
C341 C340 1.377 . S
C341 C347 1.390 1_554 S
C342 H333 0.930 1_565 S
C342 C340 1.384 . S
C342 C343 1.372 1_554 S
C343 C342 1.372 1_556 S
C343 C344 1.400 . S
C343 C348 1.490 . S
C344 H334 0.930 . S
C344 C343 1.400 . S
C344 C347 1.386 . S
H345 C361 0.930 . S
H346 C362 0.931 . S
C347 H335 0.929 . S
C347 C341 1.390 1_556 S
C347 C344 1.386 . S
C348 C343 1.490 . S
C348 C350 1.395 . S
C348 C351 1.403 . S
H349 C355 0.930 . S
C350 H336 0.930 1_556 S
C350 C348 1.395 . S
C350 C353 1.403 . S
C351 C348 1.403 . S
C351 C352 1.524 . S
C351 C355 1.400 . S
C352 H337 0.960 . S
C352 H338 0.960 . S
C352 H339 0.960 . S
C352 C351 1.524 . S
C353 C350 1.403 . S
C353 C354 1.392 . S
C353 C357 1.495 1_556 S
C354 C353 1.392 . S
C354 C355 1.385 . S
C354 C356 1.478 . S
C355 H349 0.930 . S
C355 C351 1.400 . S
C355 C354 1.385 . S
C356 C354 1.478 . S
C356 C358 1.381 1_565 S
C356 C362 1.383 . S
C357 C353 1.495 1_554 S
C357 H363 0.959 . S
C357 H364 0.961 1_554 S
C357 H365 0.960 1_564 S
C358 C356 1.381 1_545 S
C358 C359 1.394 . S
C358 H366 0.930 . S
C359 C358 1.394 . S
C359 C360 1.383 . S
C359 H367 0.929 . S
C360 C359 1.383 . S
C360 C361 1.377 1_545 S
C361 H345 0.930 . S
C361 C360 1.377 1_565 S
C361 C362 1.379 . S
C362 H346 0.931 . S
C362 C356 1.383 . S
C362 C361 1.379 . S
H363 C357 0.959 . S
H364 C357 0.961 1_556 S
H365 C357 0.960 1_546 S
H366 C358 0.930 . S
H367 C359 0.929 . S
H368 C376 0.929 . S
H369 C378 0.930 . S
H370 C380 0.930 . S
H371 C383 0.929 . S
H372 C386 0.930 . S
H373 C388 0.960 . S
H374 C388 0.960 . S
H375 C388 0.960 . S
C376 H368 0.929 . S
C376 C377 1.377 . S
C376 C378 1.384 . S
C377 C376 1.377 . S
C377 C383 1.390 1_554 S
C378 H369 0.930 . S
C378 C376 1.384 . S
C378 C379 1.372 1_554 S
C379 C378 1.372 1_556 S
C379 C380 1.400 . S
C379 C384 1.490 . S
C380 H370 0.930 . S
C380 C379 1.400 . S
C380 C383 1.386 . S
H381 C397 0.930 . S
H382 C398 0.931 . S
C383 H371 0.929 . S
C383 C377 1.390 1_556 S
C383 C380 1.386 . S
C384 C379 1.490 . S
C384 C386 1.395 . S
C384 C387 1.403 . S
H385 C391 0.930 . S
C386 H372 0.930 . S
C386 C384 1.395 . S
C386 C389 1.403 . S
C387 C384 1.403 . S
C387 C388 1.524 . S
C387 C391 1.400 . S
C388 H373 0.960 . S
C388 H374 0.960 . S
C388 H375 0.960 . S
C388 C387 1.524 . S
C389 C386 1.403 . S
C389 C390 1.392 . S
C389 C393 1.495 . S
C390 C389 1.392 . S
C390 C391 1.385 . S
C390 C392 1.478 . S
C391 H385 0.930 . S
C391 C387 1.400 . S
C391 C390 1.385 . S
C392 C390 1.478 . S
C392 C394 1.381 . S
C392 C398 1.383 . S
C393 C389 1.495 . S
C393 H399 0.959 . S
C393 H400 0.961 . S
C393 H401 0.960 . S
C394 C392 1.381 . S
C394 C395 1.394 . S
C394 H402 0.930 . S
C395 C394 1.394 . S
C395 C396 1.383 . S
C395 H403 0.929 . S
C396 C395 1.383 . S
C396 C397 1.377 . S
C397 H381 0.930 . S
C397 C396 1.377 . S
C397 C398 1.379 . S
C398 H382 0.931 . S
C398 C392 1.383 . S
C398 C397 1.379 . S
H399 C393 0.959 . S
H400 C393 0.961 . S
H401 C393 0.960 . S
H402 C394 0.930 . S
H403 C395 0.929 . S
H404 C412 0.929 . S
H405 C414 0.930 . S
H406 C416 0.929 1_556 S
H407 C419 0.929 . S
H408 C422 0.930 . S
H409 C424 0.960 . S
H410 C424 0.960 . S
H411 C424 0.960 . S
C412 H404 0.929 . S
C412 C413 1.377 . S
C412 C414 1.384 1_554 S
C413 C412 1.377 . S
C413 C419 1.390 . S
C414 H405 0.930 . S
C414 C412 1.384 1_556 S
C414 C415 1.372 . S
C415 C414 1.372 . S
C415 C416 1.393 1_556 S
C415 C420 1.490 . S
C416 H406 0.929 1_554 S
C416 C415 1.393 1_554 S
C416 C419 1.393 . S
H417 C433 0.930 . S
H418 C434 0.931 . S
C419 H407 0.929 . S
C419 C413 1.390 . S
C419 C416 1.393 . S
C420 C415 1.490 . S
C420 C422 1.395 . S
C420 C423 1.403 . S
H421 C427 0.930 . S
C422 H408 0.930 . S
C422 C420 1.395 . S
C422 C425 1.403 . S
C423 C420 1.403 . S
C423 C424 1.524 1_556 S
C423 C427 1.400 . S
C424 H409 0.960 . S
C424 H410 0.960 . S
C424 H411 0.960 . S
C424 C423 1.524 1_554 S
C425 C422 1.403 . S
C425 C426 1.392 . S
C425 C429 1.495 . S
C426 C425 1.392 . S
C426 C427 1.385 . S
C426 C428 1.478 . S
C427 H421 0.930 . S
C427 C423 1.400 . S
C427 C426 1.385 . S
C428 C426 1.478 . S
C428 C430 1.381 . S
C428 C434 1.383 . S
C429 C425 1.495 . S
C429 H435 0.959 . S
C429 H436 0.961 . S
C429 H437 0.960 . S
C430 C428 1.381 . S
C430 C431 1.394 . S
C430 H438 0.930 . S
C431 C430 1.394 . S
C431 C432 1.383 . S
C431 H439 0.929 . S
C432 C431 1.383 . S
C432 C433 1.377 . S
C433 H417 0.930 . S
C433 C432 1.377 . S
C433 C434 1.379 . S
C434 H418 0.931 . S
C434 C428 1.383 . S
C434 C433 1.379 . S
H435 C429 0.959 . S
H436 C429 0.961 . S
H437 C429 0.960 . S
H438 C430 0.930 . S
H439 C431 0.929 . S
H440 C448 0.929 . S
H441 C450 0.930 . S
H442 C452 0.930 . S
H443 C455 0.929 . S
H444 C458 0.930 . S
H445 C460 0.960 . S
H446 C460 0.960 . S
H447 C460 0.960 . S
C448 H440 0.929 . S
C448 C449 1.377 . S
C448 C450 1.384 . S
C449 C448 1.377 . S
C449 C455 1.390 1_554 S
C450 H441 0.930 . S
C450 C448 1.384 . S
C450 C451 1.372 1_554 S
C451 C450 1.372 1_556 S
C451 C452 1.400 . S
C451 C456 1.490 . S
C452 H442 0.930 . S
C452 C451 1.400 . S
C452 C455 1.386 . S
H453 C469 0.930 . S
H454 C470 0.931 . S
C455 H443 0.929 . S
C455 C449 1.390 1_556 S
C455 C452 1.386 . S
C456 C451 1.490 . S
C456 C458 1.395 . S
C456 C459 1.384 1_655 S
H457 C463 0.930 . S
C458 H444 0.930 . S
C458 C456 1.395 . S
C458 C461 1.403 . S
C459 C456 1.384 1_455 S
C459 C460 1.541 . S
C459 C463 1.402 . S
C460 H445 0.960 . S
C460 H446 0.960 . S
C460 H447 0.960 . S
C460 C459 1.541 . S
C461 C458 1.403 . S
C461 C462 1.392 . S
C461 C465 1.495 . S
C462 C461 1.392 . S
C462 C463 1.385 1_655 S
C462 C464 1.478 . S
C463 H457 0.930 . S
C463 C459 1.402 . S
C463 C462 1.385 1_455 S
C464 C462 1.478 . S
C464 C466 1.381 . S
C464 C470 1.383 . S
C465 C461 1.495 . S
C465 H471 0.959 . S
C465 H472 0.961 . S
C465 H473 0.960 . S
C466 C464 1.381 . S
C466 C467 1.394 1_655 S
C466 H474 0.930 . S
C467 C466 1.394 1_455 S
C467 C468 1.382 1_455 S
C467 H475 0.929 . S
C468 C467 1.382 1_655 S
C468 C469 1.380 . S
C469 H453 0.930 . S
C469 C468 1.380 . S
C469 C470 1.379 . S
C470 H454 0.931 . S
C470 C464 1.383 . S
C470 C469 1.379 . S
H471 C465 0.959 . S
H472 C465 0.961 . S
H473 C465 0.960 . S
H474 C466 0.930 . S
H475 C467 0.929 . S
H476 C484 0.929 . S
H477 C486 0.930 . S
H478 C488 0.930 . S
H479 C491 0.929 . S
H480 C494 0.930 . S
H481 C496 0.960 . S
H482 C496 0.960 . S
H483 C496 0.960 . S
C484 H476 0.929 . S
C484 C485 1.377 . S
C484 C486 1.384 . S
C485 C484 1.377 . S
C485 C491 1.390 . S
C486 H477 0.930 . S
C486 C484 1.384 . S
C486 C487 1.372 . S
C487 C486 1.372 . S
C487 C488 1.400 . S
C487 C492 1.490 . S
C488 H478 0.930 . S
C488 C487 1.400 . S
C488 C491 1.386 . S
H489 C505 0.930 . S
H490 C506 0.931 . S
C491 H479 0.929 . S
C491 C485 1.390 . S
C491 C488 1.386 . S
C492 C487 1.490 . S
C492 C494 1.395 . S
C492 C495 1.403 . S
H493 C499 0.930 . S
C494 H480 0.930 . S
C494 C492 1.395 . S
C494 C497 1.403 . S
C495 C492 1.403 . S
C495 C496 1.524 . S
C495 C499 1.400 . S
C496 H481 0.960 . S
C496 H482 0.960 . S
C496 H483 0.960 . S
C496 C495 1.524 . S
C497 C494 1.403 . S
C497 C498 1.392 . S
C497 C501 1.495 1_455 S
C498 C497 1.392 . S
C498 C499 1.385 . S
C498 C500 1.478 . S
C499 H493 0.930 . S
C499 C495 1.400 . S
C499 C498 1.385 . S
C500 C498 1.478 . S
C500 C502 1.381 1_455 S
C500 C506 1.383 . S
C501 C497 1.495 1_655 S
C501 H507 0.959 . S
C501 H508 0.961 . S
C501 H509 0.960 . S
C502 C500 1.381 1_655 S
C502 C503 1.394 . S
C502 H510 0.930 . S
C503 C502 1.394 . S
C503 C504 1.383 1_655 S
C503 H511 0.929 . S
C504 C503 1.383 1_455 S
C504 C505 1.377 . S
C505 H489 0.930 . S
C505 C504 1.377 . S
C505 C506 1.379 . S
C506 H490 0.931 . S
C506 C500 1.383 . S
C506 C505 1.379 . S
H507 C501 0.959 . S
H508 C501 0.961 . S
H509 C501 0.960 . S
H510 C502 0.930 . S
H511 C503 0.929 . S
H512 C520 0.929 . S
H513 C522 0.930 . S
H514 C524 0.930 . S
H515 C527 0.929 . S
H516 C530 0.930 . S
H517 C532 0.960 . S
H518 C532 0.960 . S
H519 C532 0.960 . S
C520 H512 0.929 . S
C520 C521 1.377 . S
C520 C522 1.384 . S
C521 C520 1.377 . S
C521 C527 1.390 . S
C522 H513 0.930 . S
C522 C520 1.384 . S
C522 C523 1.372 . S
C523 C522 1.372 . S
C523 C524 1.400 . S
C523 C528 1.490 . S
C524 H514 0.930 . S
C524 C523 1.400 . S
C524 C527 1.386 . S
H525 C541 0.930 . S
H526 C542 0.931 . S
C527 H515 0.929 . S
C527 C521 1.390 . S
C527 C524 1.386 . S
C528 C523 1.490 . S
C528 C530 1.395 . S
C528 C531 1.403 . S
H529 C535 0.930 . S
C530 H516 0.930 . S
C530 C528 1.395 . S
C530 C533 1.403 . S
C531 C528 1.403 . S
C531 C532 1.524 . S
C531 C535 1.400 . S
C532 H517 0.960 . S
C532 H518 0.960 . S
C532 H519 0.960 . S
C532 C531 1.524 . S
C533 C530 1.403 . S
C533 C534 1.392 . S
C533 C537 1.495 . S
C534 C533 1.392 . S
C534 C535 1.385 . S
C534 C536 1.478 . S
C535 H529 0.930 . S
C535 C531 1.400 . S
C535 C534 1.385 . S
C536 C534 1.478 . S
C536 C538 1.381 . S
C536 C542 1.383 1_545 S
C537 C533 1.495 . S
C537 H543 0.959 . S
C537 H544 0.961 1_545 S
C537 H545 0.960 . S
C538 C536 1.381 . S
C538 C539 1.394 . S
C538 H546 0.930 . S
C539 C538 1.394 . S
C539 C540 1.383 . S
C539 H547 0.929 . S
C540 C539 1.383 . S
C540 C541 1.377 1_545 S
C541 H525 0.930 . S
C541 C540 1.377 1_565 S
C541 C542 1.379 . S
C542 H526 0.931 . S
C542 C536 1.383 1_565 S
C542 C541 1.379 . S
H543 C537 0.959 . S
H544 C537 0.961 1_565 S
H545 C537 0.960 . S
H546 C538 0.930 . S
H547 C539 0.929 . S
H548 C556 0.929 . S
H549 C558 0.930 . S
H550 C560 0.930 . S
H551 C563 0.929 . S
H552 C566 0.930 . S
H553 C568 0.960 . S
H554 C568 0.960 . S
H555 C568 0.960 . S
C556 H548 0.929 . S
C556 C557 1.377 . S
C556 C558 1.384 . S
C557 C556 1.377 . S
C557 C563 1.390 . S
C558 H549 0.930 . S
C558 C556 1.384 . S
C558 C559 1.372 . S
C559 C558 1.372 . S
C559 C560 1.400 . S
C559 C564 1.490 . S
C560 H550 0.930 . S
C560 C559 1.400 . S
C560 C563 1.386 . S
H561 C577 0.930 . S
H562 C578 0.931 . S
C563 H551 0.929 . S
C563 C557 1.390 . S
C563 C560 1.386 . S
C564 C559 1.490 . S
C564 C566 1.395 . S
C564 C567 1.403 . S
H565 C571 0.930 . S
C566 H552 0.930 . S
C566 C564 1.395 . S
C566 C569 1.403 . S
C567 C564 1.403 . S
C567 C568 1.524 . S
C567 C571 1.400 . S
C568 H553 0.960 . S
C568 H554 0.960 . S
C568 H555 0.960 . S
C568 C567 1.524 . S
C569 C566 1.403 . S
C569 C570 1.392 . S
C569 C573 1.495 . S
C570 C569 1.392 . S
C570 C571 1.385 . S
C570 C572 1.478 . S
C571 H565 0.930 . S
C571 C567 1.400 . S
C571 C570 1.385 . S
C572 C570 1.478 . S
C572 C574 1.381 . S
C572 C578 1.383 . S
C573 C569 1.495 . S
C573 H579 0.959 . S
C573 H580 0.961 . S
C573 H581 0.960 . S
C574 C572 1.381 . S
C574 C575 1.394 . S
C574 H582 0.930 . S
C575 C574 1.394 . S
C575 C576 1.383 . S
C575 H583 0.929 . S
C576 C575 1.383 . S
C576 C577 1.377 . S
C577 H561 0.930 . S
C577 C576 1.377 . S
C577 C578 1.379 . S
C578 H562 0.931 . S
C578 C572 1.383 . S
C578 C577 1.379 . S
H579 C573 0.959 . S
H580 C573 0.961 . S
H581 C573 0.960 . S
H582 C574 0.930 . S
H583 C575 0.929 . S
H584 C592 0.929 . S
H585 C594 0.930 . S
H586 C596 0.930 . S
H587 C599 0.929 . S
H588 C602 0.930 . S
H589 C604 0.960 . S
H590 C604 0.960 . S
H591 C604 0.960 . S
C592 H584 0.929 . S
C592 C593 1.377 . S
C592 C594 1.384 . S
C593 C592 1.377 . S
C593 C599 1.390 . S
C594 H585 0.930 . S
C594 C592 1.384 . S
C594 C595 1.372 . S
C595 C594 1.372 . S
C595 C596 1.400 . S
C595 C600 1.490 . S
C596 H586 0.930 . S
C596 C595 1.400 . S
C596 C599 1.386 . S
H597 C613 0.930 . S
H598 C614 0.931 . S
C599 H587 0.929 . S
C599 C593 1.390 . S
C599 C596 1.386 . S
C600 C595 1.490 . S
C600 C602 1.395 . S
C600 C603 1.403 . S
H601 C607 0.930 . S
C602 H588 0.930 . S
C602 C600 1.395 . S
C602 C605 1.403 . S
C603 C600 1.403 . S
C603 C604 1.524 . S
C603 C607 1.400 . S
C604 H589 0.960 . S
C604 H590 0.960 . S
C604 H591 0.960 . S
C604 C603 1.524 . S
C605 C602 1.403 . S
C605 C606 1.392 . S
C605 C609 1.495 . S
C606 C605 1.392 . S
C606 C607 1.385 . S
C606 C608 1.478 . S
C607 H601 0.930 . S
C607 C603 1.400 . S
C607 C606 1.385 . S
C608 C606 1.478 . S
C608 C610 1.381 . S
C608 C614 1.383 . S
C609 C605 1.495 . S
C609 H615 0.959 . S
C609 H616 0.961 . S
C609 H617 0.960 . S
C610 C608 1.381 . S
C610 C611 1.394 . S
C610 H618 0.930 . S
C611 C610 1.394 . S
C611 C612 1.383 . S
C611 H619 0.929 . S
C612 C611 1.383 . S
C612 C613 1.377 . S
C613 H597 0.930 . S
C613 C612 1.377 . S
C613 C614 1.379 . S
C614 H598 0.931 . S
C614 C608 1.383 . S
C614 C613 1.379 . S
H615 C609 0.959 . S
H616 C609 0.961 . S
H617 C609 0.960 . S
H618 C610 0.930 . S
H619 C611 0.929 . S
H620 C628 0.929 . S
H621 C630 0.963 . S
H622 C632 0.930 . S
H623 C635 0.929 . S
H624 C638 0.930 . S
H625 C640 0.960 . S
H626 C640 0.960 . S
H627 C640 0.960 1_655 S
C628 H620 0.929 . S
C628 C629 1.377 1_556 S
C628 C630 1.384 . S
C629 C628 1.377 1_554 S
C629 C635 1.390 . S
C630 H621 0.963 . S
C630 C628 1.384 . S
C630 C631 1.372 . S
C631 C630 1.372 . S
C631 C632 1.400 1_556 S
C631 C636 1.490 . S
C632 H622 0.930 . S
C632 C631 1.400 1_554 S
C632 C635 1.386 . S
H633 C649 0.930 . S
H634 C650 0.931 . S
C635 H623 0.929 . S
C635 C629 1.390 . S
C635 C632 1.386 . S
C636 C631 1.490 . S
C636 C638 1.395 . S
C636 C639 1.403 . S
H637 C643 0.917 1_455 S
C638 H624 0.930 . S
C638 C636 1.395 . S
C638 C641 1.403 . S
C639 C636 1.403 . S
C639 C640 1.524 1_656 S
C639 C643 1.405 . S
C640 H625 0.960 . S
C640 H626 0.960 . S
C640 H627 0.960 1_455 S
C640 C639 1.524 1_454 S
C641 C638 1.403 . S
C641 C642 1.392 . S
C641 C645 1.495 . S
C642 C641 1.392 . S
C642 C643 1.393 . S
C642 C644 1.478 . S
C643 H637 0.917 1_655 S
C643 C639 1.405 . S
C643 C642 1.393 . S
C644 C642 1.478 . S
C644 C646 1.381 1_655 S
C644 C650 1.383 . S
C645 C641 1.495 . S
C645 H651 0.959 . S
C645 H652 0.961 . S
C645 H653 0.960 . S
C646 C644 1.381 1_455 S
C646 C647 1.394 . S
C646 H654 0.930 . S
C647 C646 1.394 . S
C647 C648 1.383 . S
C647 H655 0.929 . S
C648 C647 1.383 . S
C648 C649 1.377 1_455 S
C649 H633 0.930 . S
C649 C648 1.377 1_655 S
C649 C650 1.379 . S
C650 H634 0.931 . S
C650 C644 1.383 . S
C650 C649 1.379 . S
H651 C645 0.959 . S
H652 C645 0.961 . S
H653 C645 0.960 . S
H654 C646 0.930 . S
H655 C647 0.929 . S
H656 C664 0.933 1_545 S
H657 C666 0.930 1_545 S
H658 C668 0.930 . S
H659 C671 0.929 . S
H660 C674 0.930 . S
H661 C676 0.960 . S
H662 C676 0.960 . S
H663 C676 0.960 1_556 S
C664 H656 0.933 1_565 S
C664 C665 1.377 . S
C664 C666 1.384 . S
C665 C664 1.377 . S
C665 C671 1.390 1_554 S
C666 H657 0.930 1_565 S
C666 C664 1.384 . S
C666 C667 1.372 1_554 S
C667 C666 1.372 1_556 S
C667 C668 1.400 . S
C667 C672 1.490 . S
C668 H658 0.930 . S
C668 C667 1.400 . S
C668 C671 1.386 . S
H669 C685 0.930 . S
H670 C686 0.931 . S
C671 H659 0.929 . S
C671 C665 1.390 1_556 S
C671 C668 1.386 . S
C672 C667 1.490 . S
C672 C674 1.395 1_565 S
C672 C675 1.403 . S
H673 C679 0.930 . S
C674 H660 0.930 . S
C674 C672 1.395 1_545 S
C674 C677 1.403 . S
C675 C672 1.403 . S
C675 C676 1.524 1_556 S
C675 C679 1.400 . S
C676 H661 0.960 . S
C676 H662 0.960 . S
C676 H663 0.960 1_554 S
C676 C675 1.524 1_554 S
C677 C674 1.403 . S
C677 C678 1.377 1_545 S
C677 C681 1.495 . S
C678 C677 1.377 1_565 S
C678 C679 1.407 . S
C678 C680 1.472 1_565 S
C679 H673 0.930 . S
C679 C675 1.400 . S
C679 C678 1.407 . S
C680 C678 1.472 1_545 S
C680 C682 1.381 . S
C680 C686 1.383 1_545 S
C681 C677 1.495 . S
C681 H687 0.959 . S
C681 H688 0.961 . S
C681 H689 0.960 . S
C682 C680 1.381 . S
C682 C683 1.394 . S
C682 H690 0.930 . S
C683 C682 1.394 . S
C683 C684 1.383 . S
C683 H691 0.929 . S
C684 C683 1.383 . S
C684 C685 1.377 1_545 S
C685 H669 0.930 . S
C685 C684 1.377 1_565 S
C685 C686 1.379 . S
C686 H670 0.931 . S
C686 C680 1.383 1_565 S
C686 C685 1.379 . S
H687 C681 0.959 . S
H688 C681 0.961 . S
H689 C681 0.960 . S
H690 C682 0.930 . S
H691 C683 0.929 . S
H692 C700 0.929 . S
H693 C702 0.930 . S
H694 C704 0.930 . S
H695 C707 0.929 . S
H696 C710 0.930 . S
H697 C712 0.960 . S
H698 C712 0.960 . S
H699 C712 0.960 . S
C700 H692 0.929 . S
C700 C701 1.377 1_556 S
C700 C702 1.384 . S
C701 C700 1.377 1_554 S
C701 C707 1.390 . S
C702 H693 0.930 . S
C702 C700 1.384 . S
C702 C703 1.372 . S
C703 C702 1.372 . S
C703 C704 1.400 1_556 S
C703 C708 1.490 . S
C704 H694 0.930 . S
C704 C703 1.400 1_554 S
C704 C707 1.386 . S
H705 C721 0.930 . S
H706 C722 0.931 . S
C707 H695 0.929 . S
C707 C701 1.390 . S
C707 C704 1.386 . S
C708 C703 1.490 . S
C708 C710 1.395 . S
C708 C711 1.403 . S
H709 C715 0.930 . S
C710 H696 0.930 . S
C710 C708 1.395 . S
C710 C713 1.403 . S
C711 C708 1.403 . S
C711 C712 1.524 1_556 S
C711 C715 1.400 . S
C712 H697 0.960 . S
C712 H698 0.960 . S
C712 H699 0.960 . S
C712 C711 1.524 1_554 S
C713 C710 1.403 . S
C713 C714 1.392 . S
C713 C717 1.495 . S
C714 C713 1.392 . S
C714 C715 1.385 . S
C714 C716 1.478 . S
C715 H709 0.930 . S
C715 C711 1.400 . S
C715 C714 1.385 . S
C716 C714 1.478 . S
C716 C718 1.381 . S
C716 C722 1.383 . S
C717 C713 1.495 . S
C717 H723 0.959 . S
C717 H724 0.961 . S
C717 H725 0.960 . S
C718 C716 1.381 . S
C718 C719 1.394 . S
C718 H726 0.930 . S
C719 C718 1.394 . S
C719 C720 1.383 . S
C719 H727 0.929 . S
C720 C719 1.383 . S
C720 C721 1.377 . S
C721 H705 0.930 . S
C721 C720 1.377 . S
C721 C722 1.379 . S
C722 H706 0.931 . S
C722 C716 1.383 . S
C722 C721 1.379 . S
H723 C717 0.959 . S
H724 C717 0.961 . S
H725 C717 0.960 . S
H726 C718 0.930 . S
H727 C719 0.929 . S
H728 C736 0.929 . S
H729 C738 0.929 1_556 S
H730 C740 0.930 . S
H731 C743 0.929 . S
H732 C746 0.930 . S
H733 C748 0.960 . S
H734 C748 0.960 . S
H735 C748 0.960 . S
C736 H728 0.929 . S
C736 C737 1.377 . S
C736 C738 1.384 . S
C737 C736 1.377 . S
C737 C743 1.390 . S
C738 H729 0.929 1_554 S
C738 C736 1.384 . S
C738 C739 1.372 1_554 S
C739 C738 1.372 1_556 S
C739 C740 1.400 . S
C739 C744 1.490 . S
C740 H730 0.930 . S
C740 C739 1.400 . S
C740 C743 1.386 1_556 S
H741 C757 0.930 . S
H742 C758 0.931 . S
C743 H731 0.929 . S
C743 C737 1.390 . S
C743 C740 1.386 1_554 S
C744 C739 1.490 . S
C744 C746 1.395 . S
C744 C747 1.403 . S
H745 C751 0.930 . S
C746 H732 0.930 . S
C746 C744 1.395 . S
C746 C749 1.403 . S
C747 C744 1.403 . S
C747 C748 1.524 1_556 S
C747 C751 1.400 . S
C748 H733 0.960 . S
C748 H734 0.960 . S
C748 H735 0.960 . S
C748 C747 1.524 1_554 S
C749 C746 1.403 . S
C749 C750 1.392 . S
C749 C753 1.495 . S
C750 C749 1.392 . S
C750 C751 1.385 . S
C750 C752 1.478 . S
C751 H745 0.930 . S
C751 C747 1.400 . S
C751 C750 1.385 . S
C752 C750 1.478 . S
C752 C754 1.381 . S
C752 C758 1.383 . S
C753 C749 1.495 . S
C753 H759 0.959 . S
C753 H760 0.961 . S
C753 H761 0.960 . S
C754 C752 1.381 . S
C754 C755 1.394 . S
C754 H762 0.930 . S
C755 C754 1.394 . S
C755 C756 1.383 . S
C755 H763 0.929 . S
C756 C755 1.383 . S
C756 C757 1.377 . S
C757 H741 0.930 . S
C757 C756 1.377 . S
C757 C758 1.379 . S
C758 H742 0.931 . S
C758 C752 1.383 . S
C758 C757 1.379 . S
H759 C753 0.959 . S
H760 C753 0.961 . S
H761 C753 0.960 . S
H762 C754 0.930 . S
H763 C755 0.929 . S
H764 C772 0.929 . S
H765 C774 0.930 . S
H766 C776 0.930 . S
H767 C779 0.929 . S
H768 C782 0.930 . S
H769 C784 0.982 . S
H770 C784 0.972 . S
H771 C784 0.952 1_455 S
C772 H764 0.929 . S
C772 C773 1.377 . S
C772 C774 1.384 . S
C773 C772 1.377 . S
C773 C779 1.390 . S
C774 H765 0.930 . S
C774 C772 1.384 . S
C774 C775 1.372 . S
C775 C774 1.372 . S
C775 C776 1.400 . S
C775 C780 1.490 . S
C776 H766 0.930 . S
C776 C775 1.400 . S
C776 C779 1.386 . S
H777 C793 0.930 . S
H778 C794 0.931 1_554 S
C779 H767 0.929 . S
C779 C773 1.390 . S
C779 C776 1.386 . S
C780 C775 1.490 . S
C780 C782 1.395 . S
C780 C783 1.403 . S
H781 C787 0.930 . S
C782 H768 0.930 . S
C782 C780 1.395 . S
C782 C785 1.403 1_554 S
C783 C780 1.403 . S
C783 C784 1.499 1_455 S
C783 C787 1.400 . S
C784 H769 0.982 . S
C784 H770 0.972 . S
C784 H771 0.952 1_655 S
C784 C783 1.499 1_655 S
C785 C782 1.403 1_556 S
C785 C786 1.392 . S
C785 C789 1.495 . S
C786 C785 1.392 . S
C786 C787 1.385 1_556 S
C786 C788 1.478 . S
C787 H781 0.930 . S
C787 C783 1.400 . S
C787 C786 1.385 1_554 S
C788 C786 1.478 . S
C788 C790 1.381 . S
C788 C794 1.383 . S
C789 C785 1.495 . S
C789 H795 0.959 . S
C789 H796 0.961 . S
C789 H797 0.960 . S
C790 C788 1.381 . S
C790 C791 1.394 . S
C790 H798 0.930 . S
C791 C790 1.394 . S
C791 C792 1.383 . S
C791 H799 0.929 . S
C792 C791 1.383 . S
C792 C793 1.377 . S
C793 H777 0.930 . S
C793 C792 1.377 . S
C793 C794 1.379 . S
C794 H778 0.931 1_556 S
C794 C788 1.383 . S
C794 C793 1.379 . S
H795 C789 0.959 . S
H796 C789 0.961 . S
H797 C789 0.960 . S
H798 C790 0.930 . S
H799 C791 0.929 . S
H800 C808 0.929 . S
H801 C810 0.930 . S
H802 C812 0.930 . S
H803 C815 0.929 . S
H804 C818 0.930 . S
H805 C820 0.960 . S
H806 C820 0.960 . S
H807 C820 0.960 . S
C808 H800 0.929 . S
C808 C809 1.377 . S
C808 C810 1.384 . S
C809 C808 1.377 . S
C809 C815 1.390 . S
C810 H801 0.930 . S
C810 C808 1.384 . S
C810 C811 1.372 . S
C811 C810 1.372 . S
C811 C812 1.400 . S
C811 C816 1.490 . S
C812 H802 0.930 . S
C812 C811 1.400 . S
C812 C815 1.386 . S
H813 C829 0.930 . S
H814 C830 0.931 . S
C815 H803 0.929 . S
C815 C809 1.390 . S
C815 C812 1.386 . S
C816 C811 1.490 . S
C816 C818 1.395 1_554 S
C816 C819 1.403 . S
H817 C823 0.930 . S
C818 H804 0.930 . S
C818 C816 1.395 1_556 S
C818 C821 1.403 . S
C819 C816 1.403 . S
C819 C820 1.524 . S
C819 C823 1.400 . S
C820 H805 0.960 . S
C820 H806 0.960 . S
C820 H807 0.960 . S
C820 C819 1.524 . S
C821 C818 1.403 . S
C821 C822 1.392 . S
C821 C825 1.495 . S
C822 C821 1.392 . S
C822 C823 1.385 1_556 S
C822 C824 1.478 . S
C823 H817 0.930 . S
C823 C819 1.400 . S
C823 C822 1.385 1_554 S
C824 C822 1.478 . S
C824 C826 1.381 . S
C824 C830 1.383 . S
C825 C821 1.495 . S
C825 H831 0.959 . S
C825 H832 0.961 . S
C825 H833 0.960 . S
C826 C824 1.381 . S
C826 C827 1.394 . S
C826 H834 0.930 . S
C827 C826 1.394 . S
C827 C828 1.383 . S
C827 H835 0.929 . S
C828 C827 1.383 . S
C828 C829 1.377 . S
C829 H813 0.930 . S
C829 C828 1.377 . S
C829 C830 1.379 . S
C830 H814 0.931 . S
C830 C824 1.383 . S
C830 C829 1.379 . S
H831 C825 0.959 . S
H832 C825 0.961 . S
H833 C825 0.960 . S
H834 C826 0.930 . S
H835 C827 0.929 . S
H836 C844 0.929 . S
H837 C846 0.930 . S
H838 C848 0.930 . S
H839 C851 0.929 . S
H840 C854 0.930 . S
H841 C856 0.960 1_556 S
H842 C856 0.960 . S
H843 C856 0.960 . S
C844 H836 0.929 . S
C844 C845 1.377 . S
C844 C846 1.384 . S
C845 C844 1.377 . S
C845 C851 1.390 . S
C846 H837 0.930 . S
C846 C844 1.384 . S
C846 C847 1.372 . S
C847 C846 1.372 . S
C847 C848 1.400 . S
C847 C852 1.490 . S
C848 H838 0.930 . S
C848 C847 1.400 . S
C848 C851 1.386 . S
H849 C865 0.930 . S
H850 C866 0.931 . S
C851 H839 0.929 . S
C851 C845 1.390 . S
C851 C848 1.386 . S
C852 C847 1.490 . S
C852 C854 1.395 . S
C852 C855 1.403 . S
H853 C859 0.930 . S
C854 H840 0.930 . S
C854 C852 1.395 . S
C854 C857 1.403 . S
C855 C852 1.403 . S
C855 C856 1.524 . S
C855 C859 1.400 1_554 S
C856 H841 0.960 1_554 S
C856 H842 0.960 . S
C856 H843 0.960 . S
C856 C855 1.524 . S
C857 C854 1.403 . S
C857 C858 1.392 1_554 S
C857 C861 1.495 . S
C858 C857 1.392 1_556 S
C858 C859 1.385 . S
C858 C860 1.478 . S
C859 H853 0.930 . S
C859 C855 1.400 1_556 S
C859 C858 1.385 . S
C860 C858 1.478 . S
C860 C862 1.381 . S
C860 C866 1.383 . S
C861 C857 1.495 . S
C861 H867 0.959 . S
C861 H868 0.961 1_554 S
C861 H869 0.960 . S
C862 C860 1.381 . S
C862 C863 1.394 . S
C862 H870 0.930 1_556 S
C863 C862 1.394 . S
C863 C864 1.383 . S
C863 H871 0.929 . S
C864 C863 1.383 . S
C864 C865 1.377 . S
C865 H849 0.930 . S
C865 C864 1.377 . S
C865 C866 1.379 . S
C866 H850 0.931 . S
C866 C860 1.383 . S
C866 C865 1.379 . S
H867 C861 0.959 . S
H868 C861 0.961 1_556 S
H869 C861 0.960 . S
H870 C862 0.930 1_554 S
H871 C863 0.929 . S
H872 C880 0.929 . S
H873 C882 0.930 . S
H874 C884 0.930 . S
H875 C887 0.929 . S
H876 C890 0.930 1_556 S
H877 C892 0.960 . S
H878 C892 0.960 . S
H879 C892 0.960 . S
C880 H872 0.929 . S
C880 C881 1.377 . S
C880 C882 1.384 . S
C881 C880 1.377 . S
C881 C887 1.390 . S
C882 H873 0.930 . S
C882 C880 1.384 . S
C882 C883 1.372 . S
C883 C882 1.372 . S
C883 C884 1.400 . S
C883 C888 1.490 . S
C884 H874 0.930 . S
C884 C883 1.400 . S
C884 C887 1.386 . S
H885 C901 0.930 . S
H886 C902 0.931 . S
C887 H875 0.929 . S
C887 C881 1.390 . S
C887 C884 1.386 . S
C888 C883 1.490 . S
C888 C890 1.395 . S
C888 C891 1.403 . S
H889 C895 0.930 . S
C890 H876 0.930 1_554 S
C890 C888 1.395 . S
C890 C893 1.403 1_554 S
C891 C888 1.403 . S
C891 C892 1.524 . S
C891 C895 1.400 . S
C892 H877 0.960 . S
C892 H878 0.960 . S
C892 H879 0.960 . S
C892 C891 1.524 . S
C893 C890 1.403 1_556 S
C893 C894 1.392 . S
C893 C897 1.495 . S
C894 C893 1.392 . S
C894 C895 1.385 1_556 S
C894 C896 1.478 . S
C895 H889 0.930 . S
C895 C891 1.400 . S
C895 C894 1.385 1_554 S
C896 C894 1.478 . S
C896 C898 1.381 . S
C896 C902 1.383 . S
C897 C893 1.495 . S
C897 H903 0.959 . S
C897 H904 0.961 . S
C897 H905 0.960 . S
C898 C896 1.381 . S
C898 C899 1.394 . S
C898 H906 0.930 . S
C899 C898 1.394 . S
C899 C900 1.383 . S
C899 H907 0.929 . S
C900 C899 1.383 . S
C900 C901 1.377 . S
C901 H885 0.930 . S
C901 C900 1.377 . S
C901 C902 1.379 . S
C902 H886 0.931 . S
C902 C896 1.383 . S
C902 C901 1.379 . S
H903 C897 0.959 . S
H904 C897 0.961 . S
H905 C897 0.960 . S
H906 C898 0.930 . S
H907 C899 0.929 . S
H908 C916 0.929 . S
H909 C918 0.930 . S
H910 C920 0.900 1_455 S
H911 C923 0.929 . S
H912 C926 0.930 . S
H913 C928 0.960 . S
H914 C928 0.960 . S
H915 C928 0.960 . S
C916 H908 0.929 . S
C916 C917 1.377 . S
C916 C918 1.384 . S
C917 C916 1.377 . S
C917 C923 1.390 . S
C918 H909 0.930 . S
C918 C916 1.384 . S
C918 C919 1.372 . S
C919 C918 1.372 . S
C919 C920 1.400 . S
C919 C924 1.490 . S
C920 H910 0.900 1_655 S
C920 C919 1.400 . S
C920 C923 1.386 . S
H921 C937 0.930 . S
H922 C938 0.931 . S
C923 H911 0.929 . S
C923 C917 1.390 . S
C923 C920 1.386 . S
C924 C919 1.490 . S
C924 C926 1.395 . S
C924 C927 1.403 . S
H925 C931 0.930 . S
C926 H912 0.930 . S
C926 C924 1.395 . S
C926 C929 1.403 . S
C927 C924 1.403 . S
C927 C928 1.524 . S
C927 C931 1.400 . S
C928 H913 0.960 . S
C928 H914 0.960 . S
C928 H915 0.960 . S
C928 C927 1.524 . S
C929 C926 1.403 . S
C929 C930 1.392 . S
C929 C933 1.495 . S
C930 C929 1.392 . S
C930 C931 1.385 . S
C930 C932 1.478 . S
C931 H925 0.930 . S
C931 C927 1.400 . S
C931 C930 1.385 . S
C932 C930 1.478 . S
C932 C934 1.381 . S
C932 C938 1.383 1_655 S
C933 C929 1.495 . S
C933 H939 0.959 . S
C933 H940 0.961 1_655 S
C933 H941 0.960 . S
C934 C932 1.381 . S
C934 C935 1.394 . S
C934 H942 0.930 . S
C935 C934 1.394 . S
C935 C936 1.383 . S
C935 H943 0.929 . S
C936 C935 1.383 . S
C936 C937 1.377 1_655 S
C937 H921 0.930 . S
C937 C936 1.377 1_455 S
C937 C938 1.379 . S
C938 H922 0.931 . S
C938 C932 1.383 1_455 S
C938 C937 1.379 . S
H939 C933 0.959 . S
H940 C933 0.961 1_455 S
H941 C933 0.960 . S
H942 C934 0.930 . S
H943 C935 0.929 . S
H944 C952 0.929 . S
H945 C954 0.930 . S
H946 C956 0.930 . S
H947 C959 0.929 . S
H948 C962 0.930 . S
H949 C964 0.960 1_545 S
H950 C964 0.960 1_545 S
H951 C964 0.960 . S
C952 H944 0.929 . S
C952 C953 1.377 . S
C952 C954 1.384 . S
C953 C952 1.377 . S
C953 C959 1.390 . S
C954 H945 0.930 . S
C954 C952 1.384 . S
C954 C955 1.372 . S
C955 C954 1.372 . S
C955 C956 1.400 . S
C955 C960 1.490 . S
C956 H946 0.930 . S
C956 C955 1.400 . S
C956 C959 1.386 . S
H957 C973 0.930 . S
H958 C974 0.931 . S
C959 H947 0.929 . S
C959 C953 1.390 . S
C959 C956 1.386 . S
C960 C955 1.490 . S
C960 C962 1.395 . S
C960 C963 1.403 . S
H961 C967 0.930 . S
C962 H948 0.930 . S
C962 C960 1.395 . S
C962 C965 1.403 . S
C963 C960 1.403 . S
C963 C964 1.524 . S
C963 C967 1.400 . S
C964 H949 0.960 1_565 S
C964 H950 0.960 1_565 S
C964 H951 0.960 . S
C964 C963 1.524 . S
C965 C962 1.403 . S
C965 C966 1.392 . S
C965 C969 1.495 . S
C966 C965 1.392 . S
C966 C967 1.385 . S
C966 C968 1.478 . S
C967 H961 0.930 . S
C967 C963 1.400 . S
C967 C966 1.385 . S
C968 C966 1.478 . S
C968 C970 1.349 1_565 S
C968 C974 1.383 . S
C969 C965 1.495 . S
C969 H975 0.959 . S
C969 H976 0.961 . S
C969 H977 0.960 . S
C970 C968 1.349 1_545 S
C970 C971 1.401 . S
C970 H978 0.958 . S
C971 C970 1.401 . S
C971 C972 1.383 1_545 S
C971 H979 0.929 . S
C972 C971 1.383 1_565 S
C972 C973 1.377 . S
C973 H957 0.930 . S
C973 C972 1.377 . S
C973 C974 1.379 . S
C974 H958 0.931 . S
C974 C968 1.383 . S
C974 C973 1.379 . S
H975 C969 0.959 . S
H976 C969 0.961 . S
H977 C969 0.960 . S
H978 C970 0.958 . S
H979 C971 0.929 . S
H980 C988 0.929 . S
H981 C990 0.930 . S
H982 C992 0.930 . S
H983 C995 0.929 . S
H984 C998 0.930 . S
H985 C1000 0.960 . S
H986 C1000 0.960 . S
H987 C1000 0.960 . S
C988 H980 0.929 . S
C988 C989 1.377 . S
C988 C990 1.384 . S
C989 C988 1.377 . S
C989 C995 1.390 . S
C990 H981 0.930 . S
C990 C988 1.384 . S
C990 C991 1.372 . S
C991 C990 1.372 . S
C991 C992 1.400 . S
C991 C996 1.490 . S
C992 H982 0.930 . S
C992 C991 1.400 . S
C992 C995 1.386 . S
H993 C1009 0.930 . S
H994 C1010 0.931 . S
C995 H983 0.929 . S
C995 C989 1.390 . S
C995 C992 1.386 . S
C996 C991 1.490 . S
C996 C998 1.395 . S
C996 C999 1.403 . S
H997 C1003 0.930 . S
C998 H984 0.930 . S
C998 C996 1.395 . S
C998 C1001 1.403 . S
C999 C996 1.403 . S
C999 C1000 1.524 . S
C999 C1003 1.400 . S
C1000 H985 0.960 . S
C1000 H986 0.960 . S
C1000 H987 0.960 . S
C1000 C999 1.524 . S
C1001 C998 1.403 . S
C1001 C1002 1.392 . S
C1001 C1005 1.495 . S
C1002 C1001 1.392 . S
C1002 C1003 1.385 . S
C1002 C1004 1.478 . S
C1003 H997 0.930 . S
C1003 C999 1.400 . S
C1003 C1002 1.385 . S
C1004 C1002 1.478 . S
C1004 C1006 1.381 . S
C1004 C1010 1.383 . S
C1005 C1001 1.495 . S
C1005 H1011 0.959 . S
C1005 H1012 0.961 . S
C1005 H1013 0.960 . S
C1006 C1004 1.381 . S
C1006 C1007 1.394 . S
C1006 H1014 0.930 . S
C1007 C1006 1.394 . S
C1007 C1008 1.383 . S
C1007 H1015 0.929 . S
C1008 C1007 1.383 . S
C1008 C1009 1.377 . S
C1009 H993 0.930 . S
C1009 C1008 1.377 . S
C1009 C1010 1.379 . S
C1010 H994 0.931 . S
C1010 C1004 1.383 . S
C1010 C1009 1.379 . S
H1011 C1005 0.959 . S
H1012 C1005 0.961 . S
H1013 C1005 0.960 . S
H1014 C1006 0.930 . S
H1015 C1007 0.929 . S
H1016 C1024 0.929 . S
H1017 C1026 0.930 . S
H1018 C1028 0.930 . S
H1019 C1031 0.929 . S
H1020 C1034 0.930 . S
H1021 C1036 0.960 . S
H1022 C1036 0.960 . S
H1023 C1036 0.960 . S
C1024 H1016 0.929 . S
C1024 C1025 1.377 . S
C1024 C1026 1.384 . S
C1025 C1024 1.377 . S
C1025 C1031 1.390 . S
C1026 H1017 0.930 . S
C1026 C1024 1.384 . S
C1026 C1027 1.372 . S
C1027 C1026 1.372 . S
C1027 C1028 1.400 . S
C1027 C1032 1.490 . S
C1028 H1018 0.930 . S
C1028 C1027 1.400 . S
C1028 C1031 1.386 . S
H1029 C1045 0.930 . S
H1030 C1046 0.931 . S
C1031 H1019 0.929 . S
C1031 C1025 1.390 . S
C1031 C1028 1.386 . S
C1032 C1027 1.490 . S
C1032 C1034 1.395 . S
C1032 C1035 1.403 . S
H1033 C1039 0.930 . S
C1034 H1020 0.930 . S
C1034 C1032 1.395 . S
C1034 C1037 1.403 . S
C1035 C1032 1.403 . S
C1035 C1036 1.524 . S
C1035 C1039 1.400 . S
C1036 H1021 0.960 . S
C1036 H1022 0.960 . S
C1036 H1023 0.960 . S
C1036 C1035 1.524 . S
C1037 C1034 1.403 . S
C1037 C1038 1.392 . S
C1037 C1041 1.495 . S
C1038 C1037 1.392 . S
C1038 C1039 1.385 . S
C1038 C1040 1.478 . S
C1039 H1033 0.930 . S
C1039 C1035 1.400 . S
C1039 C1038 1.385 . S
C1040 C1038 1.478 . S
C1040 C1042 1.381 . S
C1040 C1046 1.383 . S
C1041 C1037 1.495 . S
C1041 H1047 0.959 . S
C1041 H1048 0.961 . S
C1041 H1049 0.960 . S
C1042 C1040 1.381 . S
C1042 C1043 1.394 . S
C1042 H1050 0.930 . S
C1043 C1042 1.394 . S
C1043 C1044 1.383 . S
C1043 H1051 0.929 . S
C1044 C1043 1.383 . S
C1044 C1045 1.377 . S
C1045 H1029 0.930 . S
C1045 C1044 1.377 . S
C1045 C1046 1.379 . S
C1046 H1030 0.931 . S
C1046 C1040 1.383 . S
C1046 C1045 1.379 . S
H1047 C1041 0.959 . S
H1048 C1041 0.961 . S
H1049 C1041 0.960 . S
H1050 C1042 0.930 . S
H1051 C1043 0.929 . S
C197 N80 1.571 . S
C216 C119 1.406 . S
C252 C143 1.389 . S
C233 N93 1.571 . S
C288 C164 1.383 . S
C269 N54 1.572 . S
C324 C182 1.412 . S
C305 N67 1.570 . S
C360 C122 1.324 . S
C341 N28 1.512 . S
C377 N41 1.516 . S
C396 C140 1.380 . S
C413 N2 1.516 . S
C432 C161 1.357 . S
C449 N15 1.514 . S
C468 C185 1.361 1_655 S
C504 C120 0.489 . S
C485 N70 0.344 . S
C540 C138 0.348 . S
C521 N83 0.359 . S
C576 C159 0.356 . S
C557 N96 0.359 . S
C593 N57 0.347 . S
C612 C183 0.414 . S
C629 N18 0.455 . S
C648 C118 0.469 . S
C684 C142 0.434 . S
C665 N31 0.461 . S
C720 C163 0.454 . S
C701 N44 0.455 . S
C737 N5 0.459 . S
C756 C181 0.433 . S
C773 N66 1.629 . S
C792 C121 1.565 . S
C809 N79 1.627 . S
C828 C139 1.543 . S
C864 C160 1.509 . S
C845 N92 1.629 . S
C900 C184 1.523 . S
C881 N53 1.626 . S
C917 N14 1.480 . S
C936 C117 1.362 1_655 S
C972 C141 1.403 1_565 S
C953 N27 1.480 . S
C1008 C162 1.354 . S
C989 N40 1.481 . S
C1025 N1 1.482 . S
C1044 C180 1.385 . S
