# Generated by pormake.
# Topology zzz, (3,6)-cn, num edge types: 1
# Building blocks:
#     Node 0, Type 0, BuildingBlock: MIDCAF_clean_linker_0, # of connection points: 3
#     Node 1, Type 0, BuildingBlock: MIDCAF_clean_linker_0, # of connection points: 3
#     Node 2, Type 0, BuildingBlock: MIDCAF_clean_linker_0, # of connection points: 3
#     Node 3, Type 0, BuildingBlock: MIDCAF_clean_linker_0, # of connection points: 3
#     Node 4, Type 0, BuildingBlock: MIDCAF_clean_linker_0, # of connection points: 3
#     Node 5, Type 0, BuildingBlock: MIDCAF_clean_linker_0, # of connection points: 3
#     Node 6, Type 0, BuildingBlock: MIDCAF_clean_linker_0, # of connection points: 3
#     Node 7, Type 0, BuildingBlock: MIDCAF_clean_linker_0, # of connection points: 3
#     Node 8, Type 1, BuildingBlock: KUMBOL_clean_sbu_0, # of connection points: 6
#     Node 9, Type 1, BuildingBlock: KUMBOL_clean_sbu_0, # of connection points: 6
#     Node 10, Type 1, BuildingBlock: KUMBOL_clean_sbu_0, # of connection points: 6
#     Node 11, Type 1, BuildingBlock: KUMBOL_clean_sbu_0, # of connection points: 6
#     Edge 12, Type (0, 1), BuildingBlock: KIFKEQ_clean_linker_1, # of connection points: 2
#     Edge 13, Type (0, 1), BuildingBlock: KIFKEQ_clean_linker_1, # of connection points: 2
#     Edge 14, Type (0, 1), BuildingBlock: KIFKEQ_clean_linker_1, # of connection points: 2
#     Edge 15, Type (0, 1), BuildingBlock: KIFKEQ_clean_linker_1, # of connection points: 2
#     Edge 16, Type (0, 1), BuildingBlock: KIFKEQ_clean_linker_1, # of connection points: 2
#     Edge 17, Type (0, 1), BuildingBlock: KIFKEQ_clean_linker_1, # of connection points: 2
#     Edge 18, Type (0, 1), BuildingBlock: KIFKEQ_clean_linker_1, # of connection points: 2
#     Edge 19, Type (0, 1), BuildingBlock: KIFKEQ_clean_linker_1, # of connection points: 2
#     Edge 20, Type (0, 1), BuildingBlock: KIFKEQ_clean_linker_1, # of connection points: 2
#     Edge 21, Type (0, 1), BuildingBlock: KIFKEQ_clean_linker_1, # of connection points: 2
#     Edge 22, Type (0, 1), BuildingBlock: KIFKEQ_clean_linker_1, # of connection points: 2
#     Edge 23, Type (0, 1), BuildingBlock: KIFKEQ_clean_linker_1, # of connection points: 2
#     Edge 24, Type (0, 1), BuildingBlock: KIFKEQ_clean_linker_1, # of connection points: 2
#     Edge 25, Type (0, 1), BuildingBlock: KIFKEQ_clean_linker_1, # of connection points: 2
#     Edge 26, Type (0, 1), BuildingBlock: KIFKEQ_clean_linker_1, # of connection points: 2
#     Edge 27, Type (0, 1), BuildingBlock: KIFKEQ_clean_linker_1, # of connection points: 2
#     Edge 28, Type (0, 1), BuildingBlock: KIFKEQ_clean_linker_1, # of connection points: 2
#     Edge 29, Type (0, 1), BuildingBlock: KIFKEQ_clean_linker_1, # of connection points: 2
#     Edge 30, Type (0, 1), BuildingBlock: KIFKEQ_clean_linker_1, # of connection points: 2
#     Edge 31, Type (0, 1), BuildingBlock: KIFKEQ_clean_linker_1, # of connection points: 2
#     Edge 32, Type (0, 1), BuildingBlock: KIFKEQ_clean_linker_1, # of connection points: 2
#     Edge 33, Type (0, 1), BuildingBlock: KIFKEQ_clean_linker_1, # of connection points: 2
#     Edge 34, Type (0, 1), BuildingBlock: KIFKEQ_clean_linker_1, # of connection points: 2
#     Edge 35, Type (0, 1), BuildingBlock: KIFKEQ_clean_linker_1, # of connection points: 2
# Relax obj value: 0.298
# Max RMSD: 0.227
# Mean RMSD: 0.213
data_MOF--net-zzz--node1-KUMBOL_clean_sbu_0--node2-MIDCAF_clean_linker_0--edge1-KIFKEQ_clean_linker_1
_symmetry_space_group_name_H-M    P1
_symmetry_Int_Tables_number       1
_symmetry_cell_setting            triclinic
loop_
_symmetry_equiv_pos_as_xyz
'x, y, z'
_cell_length_a     57.62664
_cell_length_b     57.594705
_cell_length_c     20.106013
_cell_angle_alpha  90.779314
_cell_angle_beta   90.11132
_cell_angle_gamma 89.963138
loop_
_atom_site_label
_atom_site_type_symbol
_atom_site_fract_x
_atom_site_fract_y
_atom_site_fract_z
_atom_type_partial_charge
C0 C 0.79526 0.54587 0.36584 0.0
C1 C 0.81403 0.53125 0.34797 0.0
C2 C 0.81281 0.51965 0.28578 0.0
C3 C 0.79434 0.52359 0.24171 0.0
H4 H 0.68734 0.55112 0.18107 0.0
H5 H 0.65067 0.54524 0.12046 0.0
H6 H 0.68918 0.52291 0.94683 0.0
H7 H 0.72537 0.52956 1.00665 0.0
H8 H 0.75225 0.58968 0.98581 0.0
H9 H 0.77891 0.60578 0.90471 0.0
H10 H 0.8328 0.60798 0.05487 0.0
H11 H 0.80613 0.59318 0.13552 0.0
H12 H 0.76376 0.56268 0.33447 0.0
H13 H 0.79511 0.55485 0.41345 0.0
H14 H 0.82685 0.50859 0.26885 0.0
H15 H 0.79497 0.51571 0.19248 0.0
N16 N 0.74145 0.54106 0.18332 0.0
N17 N 0.74264 0.56594 0.09112 0.0
N18 N 0.77342 0.56573 0.16661 0.0
C19 C 0.73128 0.54971 0.12703 0.0
C20 C 0.76357 0.57422 0.11079 0.0
C21 C 0.76268 0.5494 0.20332 0.0
C22 C 0.7092 0.54057 0.0988 0.0
C23 C 0.68781 0.5443 0.13062 0.0
C24 C 0.6668 0.54106 0.09554 0.0
C25 C 0.66679 0.53403 0.0279 0.0
C26 C 0.68831 0.52896 0.99798 0.0
C27 C 0.70913 0.53239 0.03266 0.0
C28 C 0.77729 0.58935 0.06664 0.0
C29 C 0.7696 0.5943 1.0019 0.0
C30 C 0.78496 0.60345 0.9552 0.0
C31 C 0.80831 0.6076 0.97222 0.0
C32 C 0.81505 0.60514 0.03914 0.0
C33 C 0.79971 0.59626 0.08574 0.0
C34 C 0.77646 0.53921 0.25813 0.0
C35 C 0.77689 0.54998 0.3212 0.0
C36 C 0.97555 0.82124 0.32577 0.0
C37 C 0.99818 0.83034 0.32912 0.0
C38 C 0.01554 0.81945 0.29019 0.0
C39 C 0.01012 0.80082 0.24665 0.0
H40 H 0.97799 0.70315 0.15716 0.0
H41 H 0.98511 0.66634 0.0975 0.0
H42 H 0.01533 0.70416 0.93506 0.0
H43 H 1.00752 0.74058 0.99389 0.0
H44 H 0.93499 0.76127 0.97155 0.0
H45 H 0.92239 0.78356 0.87596 0.0
H46 H 0.93839 0.84713 0.98389 0.0
H47 H 0.94938 0.82503 0.07945 0.0
H48 H 0.95215 0.79758 0.27683 0.0
H49 H 0.96167 0.8292 0.35429 0.0
H50 H 0.0332 0.82585 0.29174 0.0
H51 H 0.02354 0.79382 0.2145 0.0
N52 N 0.9893 0.75784 0.16367 0.0
N53 N 0.96687 0.75758 0.06545 0.0
N54 N 0.96406 0.78888 0.13988 0.0
C55 C 0.98243 0.74697 0.10566 0.0
C56 C 0.95755 0.77842 0.08209 0.0
C57 C 0.97972 0.7789 0.18113 0.0
C58 C 0.99256 0.72474 0.08075 0.0
C59 C 0.98687 0.70343 0.10975 0.0
C60 C 0.99081 0.68233 0.07508 0.0
C61 C 1.00045 0.68208 1.01045 0.0
C62 C 1.00734 0.70347 0.98368 0.0
C63 C 1.00327 0.72441 0.018 0.0
C64 C 0.94393 0.79137 0.03229 0.0
C65 C 0.93505 0.78005 0.97533 0.0
C66 C 0.92796 0.79287 0.9203 0.0
C67 C 0.93017 0.81723 0.92059 0.0
C68 C 0.93635 0.82848 0.98077 0.0
C69 C 0.94295 0.8157 0.03607 0.0
C70 C 0.98716 0.79285 0.24037 0.0
C71 C 0.97009 0.80298 0.28152 0.0
C72 C 0.7032 0.96587 0.33795 0.0
C73 C 0.69412 0.98858 0.33985 0.0
C74 C 0.70491 1.00544 0.29985 0.0
C75 C 0.72314 0.99935 0.25632 0.0
H76 H 0.7916 0.00911 0.07456 0.0
H77 H 0.82762 0.01676 0.01396 0.0
H78 H 0.85309 0.94882 0.06666 0.0
H79 H 0.81677 0.94111 0.1242 0.0
H80 H 0.76143 0.92475 0.98029 0.0
H81 H 0.73744 0.91067 0.88843 0.0
H82 H 0.67681 0.91549 0.01419 0.0
H83 H 0.7007 0.92851 0.10593 0.0
H84 H 0.72661 0.94181 0.2911 0.0
H85 H 0.69599 0.95247 0.36898 0.0
H86 H 0.69843 0.02308 0.29925 0.0
H87 H 0.72997 0.0123 0.22306 0.0
N88 N 0.76637 0.97615 0.17854 0.0
N89 N 0.76735 0.95101 0.08492 0.0
N90 N 0.73474 0.95166 0.1535 0.0
C91 C 0.77788 0.96723 0.12425 0.0
C92 C 0.74573 0.94325 0.09881 0.0
C93 C 0.74473 0.9679 0.19371 0.0
C94 C 0.80156 0.97467 0.10503 0.0
C95 C 0.80528 0.99619 0.07487 0.0
C96 C 0.82594 1.00047 0.03974 0.0
C97 C 0.84335 0.98328 0.034 0.0
C98 C 0.84001 0.96232 0.06807 0.0
C99 C 0.81933 0.958 0.1023 0.0
C100 C 0.73287 0.92865 0.04983 0.0
C101 C 0.74309 0.92209 0.98893 0.0
C102 C 0.72931 0.91403 0.93612 0.0
C103 C 0.70504 0.91266 0.94299 0.0
C104 C 0.69537 0.91634 1.00648 0.0
C105 C 0.70914 0.92415 0.05933 0.0
C106 C 0.73094 0.97627 0.25164 0.0
C107 C 0.72111 0.95979 0.29407 0.0
C108 C 0.62196 0.68954 0.05328 0.0
C109 C 0.61947 0.69124 0.98391 0.0
C110 C 0.61455 0.7131 0.95686 0.0
C111 C 0.60884 0.73187 0.99837 0.0
H112 H 0.57378 0.78854 0.98379 0.0
H113 H 0.56438 0.82368 0.92629 0.0
H114 H 0.53881 0.85441 0.10905 0.0
H115 H 0.54895 0.81862 0.16845 0.0
H116 H 0.52431 0.74421 0.23484 0.0
H117 H 0.5103 0.71637 0.3171 0.0
H118 H 0.58067 0.70634 0.38551 0.0
H119 H 0.59429 0.7341 0.30458 0.0
H120 H 0.61602 0.70568 0.14812 0.0
H121 H 0.62639 0.67311 0.07564 0.0
H122 H 0.61254 0.71517 0.90371 0.0
H123 H 0.60302 0.74778 0.97559 0.0
N124 N 0.58629 0.76564 0.08296 0.0
N125 N 0.56185 0.77195 0.17517 0.0
N126 N 0.58599 0.73893 0.1688 0.0
C127 C 0.57043 0.77912 0.11526 0.0
C128 C 0.56998 0.75178 0.20232 0.0
C129 C 0.59419 0.74561 0.1091 0.0
C130 C 0.56228 0.8006 0.0813 0.0
C131 C 0.5661 0.80263 0.01242 0.0
C132 C 0.56046 0.82288 0.97886 0.0
C133 C 0.55066 0.842 0.01256 0.0
C134 C 0.54646 0.84007 0.08147 0.0
C135 C 0.55208 0.8195 0.11545 0.0
C136 C 0.56037 0.74152 0.26374 0.0
C137 C 0.53655 0.73677 0.26953 0.0
C138 C 0.52863 0.72049 0.31592 0.0
C139 C 0.54435 0.70877 0.35773 0.0
C140 C 0.56793 0.71503 0.355 0.0
C141 C 0.57579 0.73106 0.30853 0.0
C142 C 0.60776 0.72905 0.06764 0.0
C143 C 0.616 0.70824 0.09484 0.0
C144 C 0.21914 0.45713 0.92056 0.0
C145 C 0.20972 0.47969 0.91951 0.0
C146 C 0.21893 0.49642 0.96425 0.0
C147 C 0.23566 0.49019 0.01215 0.0
H148 H 0.31668 0.48803 0.12052 0.0
H149 H 0.35454 0.49612 0.17289 0.0
H150 H 0.34118 0.4431 0.31759 0.0
H151 H 0.30446 0.43476 0.26578 0.0
H152 H 0.25558 0.41979 0.29986 0.0
H153 H 0.2261 0.4059 0.37638 0.0
H154 H 0.17582 0.40522 0.21664 0.0
H155 H 0.20518 0.41849 0.14023 0.0
H156 H 0.24119 0.43299 0.97068 0.0
H157 H 0.21297 0.44386 0.88619 0.0
H158 H 0.21209 0.51393 0.9653 0.0
H159 H 0.24092 0.5029 0.0494 0.0
N160 N 0.27563 0.4645 0.10143 0.0
N161 N 0.26981 0.44075 0.19441 0.0
N162 N 0.24084 0.44347 0.11397 0.0
C163 C 0.28372 0.45534 0.15985 0.0
C164 C 0.24846 0.43472 0.17213 0.0
C165 C 0.25405 0.45826 0.07829 0.0
C166 C 0.30725 0.46072 0.18841 0.0
C167 C 0.32195 0.47803 0.16319 0.0
C168 C 0.34362 0.48275 0.19355 0.0
C169 C 0.35117 0.47014 0.24943 0.0
C170 C 0.33641 0.4529 0.27404 0.0
C171 C 0.315 0.44826 0.2442 0.0
C172 C 0.23256 0.42103 0.2143 0.0
C173 C 0.23841 0.41603 0.28057 0.0
C174 C 0.22151 0.40802 0.32454 0.0
C175 C 0.19846 0.40489 0.30312 0.0
C176 C 0.19337 0.40734 0.23511 0.0
C177 C 0.21022 0.41531 0.19123 0.0
C178 C 0.24363 0.46717 0.01597 0.0
C179 C 0.23569 0.45096 0.96829 0.0
C180 C 0.06347 0.19741 0.9753 0.0
C181 C 0.04219 0.19824 0.941 0.0
C182 C 0.02744 0.21741 0.95459 0.0
C183 C 0.03355 0.23465 1.00236 0.0
H184 H 0.02764 0.28932 0.27249 0.0
H185 H 0.01917 0.3264 0.32713 0.0
H186 H 0.05271 0.36226 0.16637 0.0
H187 H 0.06058 0.32483 0.11102 0.0
H188 H 0.07979 0.25889 0.33095 0.0
H189 H 0.09363 0.23209 0.41352 0.0
H190 H 0.13143 0.19412 0.2614 0.0
H191 H 0.11624 0.22039 0.17785 0.0
H192 H 0.08604 0.2126 0.04746 0.0
H193 H 0.07529 0.18299 0.96826 0.0
H194 H 0.01102 0.21905 0.92887 0.0
H195 H 0.02148 0.24862 0.01302 0.0
N196 N 0.04983 0.26964 0.10931 0.0
N197 N 0.07098 0.27283 0.20979 0.0
N198 N 0.07649 0.2407 0.13994 0.0
C199 C 0.05538 0.28182 0.1665 0.0
C200 C 0.0818 0.25247 0.19656 0.0
C201 C 0.06061 0.24878 0.09591 0.0
C202 C 0.04428 0.30414 0.18663 0.0
C203 C 0.03239 0.3052 0.24758 0.0
C204 C 0.02797 0.32651 0.27961 0.0
C205 C 0.03564 0.34754 0.25223 0.0
C206 C 0.04638 0.34656 0.18913 0.0
C207 C 0.05072 0.3251 0.15684 0.0
C208 C 0.09623 0.2412 0.24766 0.0
C209 C 0.09164 0.24527 0.31534 0.0
C210 C 0.09984 0.22988 0.36305 0.0
C211 C 0.11305 0.2103 0.34402 0.0
C212 C 0.12056 0.20846 0.27756 0.0
C213 C 0.11192 0.22355 0.22961 0.0
C214 C 0.0546 0.23318 0.03776 0.0
C215 C 0.06959 0.21453 0.022 0.0
C216 C 0.31435 0.02667 0.95465 0.0
C217 C 0.32316 0.04149 0.90536 0.0
C218 C 0.31214 0.06304 0.89646 0.0
C219 C 0.29437 0.07043 0.93923 0.0
H220 H 0.21001 0.04552 0.08645 0.0
H221 H 0.17266 0.03873 0.1425 0.0
H222 H 0.19637 0.07922 0.31154 0.0
H223 H 0.23276 0.08611 0.25683 0.0
H224 H 0.27196 0.12151 0.2496 0.0
H225 H 0.30061 0.13711 0.32735 0.0
H226 H 0.35523 0.11839 0.18925 0.0
H227 H 0.3268 0.10431 0.11103 0.0
H228 H 0.29156 0.02324 0.03874 0.0
H229 H 0.3224 0.00999 0.96336 0.0
H230 H 0.31799 0.07474 0.8583 0.0
H231 H 0.28767 0.08792 0.93436 0.0
N232 N 0.25502 0.06155 0.07672 0.0
N233 N 0.2604 0.08936 0.16241 0.0
N234 N 0.28862 0.08485 0.08058 0.0
C235 C 0.24703 0.07262 0.13319 0.0
C236 C 0.28113 0.09558 0.1367 0.0
C237 C 0.27592 0.06803 0.05007 0.0
C238 C 0.2245 0.06665 0.16624 0.0
C239 C 0.20721 0.05289 0.13562 0.0
C240 C 0.1858 0.04898 0.16785 0.0
C241 C 0.18121 0.05882 0.23124 0.0
C242 C 0.19883 0.07191 0.26213 0.0
C243 C 0.21996 0.07575 0.2304 0.0
C244 C 0.29714 0.1108 0.17517 0.0
C245 C 0.29006 0.12145 0.2351 0.0
C246 C 0.30654 0.13031 0.27987 0.0
C247 C 0.33042 0.12821 0.26618 0.0
C248 C 0.33713 0.12033 0.20245 0.0
C249 C 0.32068 0.1119 0.15737 0.0
C250 C 0.28685 0.05644 0.99172 0.0
C251 C 0.29643 0.03411 0.9975 0.0
C252 C 0.39884 0.33319 0.21714 0.0
C253 C 0.40316 0.33033 0.28541 0.0
C254 C 0.40858 0.308 0.30838 0.0
C255 C 0.41281 0.28981 0.2633 0.0
H256 H 0.41378 0.21074 0.17213 0.0
H257 H 0.4218 0.17513 0.23142 0.0
H258 H 0.49541 0.18643 0.20613 0.0
H259 H 0.48703 0.22173 0.14337 0.0
H260 H 0.49294 0.27893 0.01567 0.0
H261 H 0.50747 0.30664 0.93357 0.0
H262 H 0.43695 0.32185 0.87534 0.0
H263 H 0.42276 0.29439 0.95652 0.0
H264 H 0.40191 0.31848 0.1193 0.0
H265 H 0.39401 0.35001 0.19802 0.0
H266 H 0.41203 0.30507 0.36057 0.0
H267 H 0.41908 0.27347 0.28242 0.0
N268 N 0.42976 0.25595 0.16656 0.0
N269 N 0.4537 0.25149 0.07221 0.0
N270 N 0.43261 0.28601 0.09042 0.0
C271 C 0.44431 0.24262 0.12903 0.0
C272 C 0.44735 0.27322 0.05226 0.0
C273 C 0.42393 0.27769 0.14785 0.0
C274 C 0.44977 0.21899 0.15307 0.0
C275 C 0.43168 0.20531 0.17796 0.0
C276 C 0.43634 0.18502 0.21286 0.0
C277 C 0.45932 0.17802 0.22549 0.0
C278 C 0.47748 0.19111 0.19743 0.0
C279 C 0.47273 0.21134 0.16125 0.0
C280 C 0.45674 0.28434 0.99195 0.0
C281 C 0.4807 0.28758 0.98341 0.0
C282 C 0.48896 0.30372 0.93707 0.0
C283 C 0.47339 0.31668 0.89795 0.0
C284 C 0.44952 0.3121 0.90375 0.0
C285 C 0.44134 0.29631 0.95036 0.0
C286 C 0.41191 0.29373 0.19452 0.0
C287 C 0.40336 0.3151 0.17202 0.0
Gd288 Gd 0.98677 0.0227 0.56555 0.0
Gd289 Gd 0.03488 0.01355 0.68253 0.0
C290 C 0.06248 0.0719 0.81824 0.0
C291 C 0.09946 0.08071 0.76666 0.0
C292 C 0.07543 0.04926 0.72325 0.0
C293 C 0.05871 0.05415 0.7703 0.0
C294 C 0.09639 0.06189 0.72237 0.0
C295 C 0.0825 0.08572 0.81456 0.0
C296 C 0.04655 0.07457 0.87007 0.0
C297 C 0.02833 0.05881 0.87547 0.0
N298 N 0.03972 0.04023 0.7727 0.0
C299 C 0.02549 0.04136 0.82706 0.0
H300 H 0.01213 0.02872 0.8348 0.0
C301 C 0.08976 0.02261 0.64301 0.0
N302 N 0.07201 0.03082 0.68199 0.0
C303 C 0.11085 0.03456 0.64021 0.0
C304 C 0.114 0.0546 0.67901 0.0
H305 H 0.08722 1.00736 0.6119 0.0
H306 H 0.08546 0.0997 0.85018 0.0
H307 H 0.01094 0.99789 0.42882 0.0
H308 H 0.04876 0.08802 0.90775 0.0
H309 H 0.01657 0.05993 0.9173 0.0
H310 H 0.11526 0.09088 0.76602 0.0
H311 H 0.93676 0.03265 0.64521 0.0
H312 H 0.96641 0.94364 0.35896 0.0
H313 H 1.00268 0.96623 0.34959 0.0
H314 H 0.89956 0.95106 0.49891 0.0
H315 H 0.12455 0.02843 0.60768 0.0
H316 H 0.13035 0.06383 0.67684 0.0
H317 H 0.92812 0.93784 0.41578 0.0
H318 H 0.89779 0.01505 0.65441 0.0
N319 N 0.98003 0.9932 0.48502 0.0
C320 C 0.96993 0.95761 0.39416 0.0
C321 C 0.99039 0.97035 0.38865 0.0
C322 C 0.95398 0.96348 0.44395 0.0
C323 C 0.95949 0.98176 0.48873 0.0
C324 C 0.99503 0.98838 0.43408 0.0
N325 N 0.94894 1.00752 0.575 0.0
C326 C 0.94345 0.98913 0.53535 0.0
C327 C 0.91048 1.00752 0.62089 0.0
C328 C 0.90503 0.98773 0.58316 0.0
C329 C 0.93251 0.01748 0.61539 0.0
C330 C 0.92144 0.97853 0.53879 0.0
H331 H 0.88794 0.98006 0.58736 0.0
O332 O 0.96261 0.05023 0.54209 0.0
O333 O 0.01177 0.03922 0.63628 0.0
O334 O 0.99941 0.01389 0.73456 0.0
O335 O 0.97436 1.00103 0.65136 0.0
O336 O 0.97842 0.05174 0.64031 0.0
O337 O 0.98978 0.04082 0.47205 0.0
O338 O 0.06138 0.99013 0.71925 0.0
O339 O 0.01128 0.99695 0.6077 0.0
O340 O 0.02156 0.02566 0.51114 0.0
O341 O 0.04807 0.03441 0.59537 0.0
O342 O 0.04594 0.98835 0.60098 0.0
O343 O 0.02569 0.98513 0.7476 0.0
C344 C 0.99901 0.05421 0.66412 0.0
C345 C 0.91628 0.9596 0.49655 0.0
C346 C 0.93253 0.95208 0.44921 0.0
C347 C 0.97377 0.0559 0.48854 0.0
C348 C 0.98017 0.08048 0.48535 0.0
C349 C 0.96338 0.09685 0.46763 0.0
C350 C 1.00251 0.08789 0.504 0.0
C351 C 0.00837 0.11155 0.50293 0.0
C352 C 0.96889 0.12042 0.46779 0.0
C353 C 0.99122 0.12776 0.48495 0.0
C354 C 0.97921 1.00499 0.71481 0.0
C355 C 0.0256 0.98399 0.57727 0.0
C356 C 0.04612 0.9756 0.74181 0.0
C357 C 0.04677 0.95179 0.71277 0.0
C358 C 0.06612 0.94421 0.67575 0.0
C359 C 0.02701 0.93752 0.71514 0.0
C360 C 0.02618 0.91634 0.67947 0.0
C361 C 0.06536 0.9233 0.63999 0.0
C362 C 0.04549 0.90951 0.64128 0.0
C363 C 0.04225 0.03304 0.53167 0.0
H364 H 0.94598 0.0914 0.45418 0.0
H365 H 0.01531 0.07525 0.51922 0.0
H366 H 0.95589 0.13303 0.45378 0.0
H367 H 0.9952 0.14609 0.48203 0.0
H368 H 0.08161 0.95478 0.67258 0.0
H369 H 0.01223 0.94295 0.74477 0.0
H370 H 0.08015 0.91787 0.61056 0.0
H371 H 0.04524 0.89349 0.61245 0.0
Gd372 Gd 0.50499 0.99065 0.56949 0.0
Gd373 Gd 0.5151 0.0375 0.69309 0.0
C374 C 0.45731 0.06748 0.8249 0.0
C375 C 0.45325 0.10652 0.78213 0.0
C376 C 0.48235 0.08025 0.73625 0.0
C377 C 0.47529 0.06309 0.7788 0.0
C378 C 0.47184 0.10238 0.73848 0.0
C379 C 0.44597 0.08907 0.82522 0.0
C380 C 0.45159 0.05022 0.87021 0.0
C381 C 0.46418 0.02955 0.87018 0.0
N382 N 0.48664 0.04242 0.77699 0.0
C383 C 0.48188 0.02603 0.82359 0.0
H384 H 0.4911 0.00984 0.82446 0.0
C385 C 0.50986 0.09296 0.6578 0.0
N386 N 0.50031 0.07566 0.69483 0.0
C387 C 0.50009 0.1152 0.65832 0.0
C388 C 0.48075 0.11984 0.69808 0.0
H389 H 0.52459 0.08934 0.6261 0.0
H390 H 0.43193 0.09263 0.85967 0.0
H391 H 0.53003 0.01735 0.43861 0.0
H392 H 0.43781 0.05284 0.90616 0.0
H393 H 0.46016 0.0162 0.90572 0.0
H394 H 0.44477 0.12331 0.78404 0.0
H395 H 0.49383 0.93946 0.6382 0.0
H396 H 0.58077 0.97185 0.35427 0.0
H397 H 0.56029 0.00957 0.356 0.0
H398 H 0.57125 0.90181 0.47715 0.0
H399 H 0.50735 0.12867 0.62766 0.0
H400 H 0.47317 0.13706 0.69835 0.0
H401 H 0.58505 0.93181 0.40065 0.0
H402 H 0.50947 0.8995 0.63693 0.0
N403 N 0.53316 0.9845 0.48553 0.0
C404 C 0.56734 0.97512 0.39087 0.0
C405 C 0.55579 0.9964 0.39162 0.0
C406 C 0.56105 0.95813 0.43643 0.0
C407 C 0.54351 0.96334 0.48325 0.0
C408 C 0.53849 1.00072 0.43893 0.0
N409 N 0.51827 0.95196 0.56808 0.0
C410 C 0.53585 0.94654 0.52609 0.0
C411 C 0.51711 0.91257 0.60559 0.0
C412 C 0.53598 0.90701 0.56492 0.0
C413 C 0.50824 0.93518 0.60599 0.0
C414 C 0.54538 0.92398 0.52372 0.0
H415 H 0.54282 0.88948 0.56464 0.0
O416 O 0.47487 0.96975 0.54416 0.0
O417 O 0.48933 0.01447 0.64485 0.0
O418 O 0.51764 1.00146 0.73976 0.0
O419 O 0.52699 0.97612 0.65234 0.0
O420 O 0.47777 0.9807 0.64557 0.0
O421 O 0.48561 0.99741 0.47904 0.0
O422 O 0.54282 0.06104 0.72118 0.0
O423 O 0.53079 0.01385 0.61742 0.0
O424 O 0.50313 0.02658 0.5226 0.0
O425 O 0.49328 0.05183 0.60947 0.0
O426 O 0.54241 0.04758 0.61726 0.0
O427 O 0.53646 0.03037 0.7797 0.0
C428 C 0.47503 1.001 0.6719 0.0
C429 C 0.56353 0.91896 0.47926 0.0
C430 C 0.57137 0.93603 0.43569 0.0
C431 C 0.4686 0.98395 0.49746 0.0
C432 C 0.44568 0.9951 0.50711 0.0
C433 C 0.42825 0.98351 0.54252 0.0
C434 C 0.44213 0.01841 0.4895 0.0
C435 C 0.42196 0.03034 0.50928 0.0
C436 C 0.40811 0.9952 0.56189 0.0
C437 C 0.40501 0.01848 0.54589 0.0
C438 C 0.52567 0.98124 0.71671 0.0
C439 C 0.54516 0.02732 0.5907 0.0
C440 C 0.55121 0.04669 0.76454 0.0
C441 C 0.57551 0.03969 0.75254 0.0
C442 C 0.59181 0.05658 0.73454 0.0
C443 C 0.58203 0.01612 0.75128 0.0
C444 C 0.60453 0.00946 0.73199 0.0
C445 C 0.61405 0.05006 0.71447 0.0
C446 C 0.6204 0.02669 0.71298 0.0
C447 C 0.49471 0.04666 0.54522 0.0
H448 H 0.43051 0.96562 0.55714 0.0
H449 H 0.45532 0.02753 0.46194 0.0
H450 H 0.39493 0.98622 0.58991 0.0
H451 H 0.38908 0.02703 0.56088 0.0
H452 H 0.58714 0.0748 0.73443 0.0
H453 H 0.56959 1.00288 0.76446 0.0
H454 H 0.62645 0.06319 0.70023 0.0
H455 H 0.638 0.02221 0.69901 0.0
Gd456 Gd 0.48148 0.52109 0.6645 0.0
Gd457 Gd 0.53871 0.50367 0.59061 0.0
C458 C 0.61109 0.53332 0.63035 0.0
C459 C 0.61693 0.55793 0.53462 0.0
C460 C 0.58121 0.53583 0.54585 0.0
C461 C 0.58882 0.5274 0.60617 0.0
C462 C 0.59514 0.55128 0.5095 0.0
C463 C 0.62495 0.54886 0.59474 0.0
C464 C 0.61905 0.52292 0.68856 0.0
C465 C 0.60509 0.50676 0.72045 0.0
N466 N 0.57484 0.51274 0.63999 0.0
C467 C 0.58296 0.50184 0.69538 0.0
H468 H 0.5723 0.48933 0.7207 0.0
C469 C 0.55198 0.53678 0.46318 0.0
N470 N 0.5601 0.52897 0.5228 0.0
C471 C 0.5651 0.55224 0.42566 0.0
C472 C 0.58676 0.55955 0.44891 0.0
H473 H 0.53504 0.53179 0.44521 0.0
H474 H 0.642 0.55376 0.61285 0.0
H475 H 0.45341 0.53986 0.52958 0.0
H476 H 0.63612 0.52686 0.70843 0.0
H477 H 0.61126 0.49823 0.76476 0.0
H478 H 0.62784 0.56982 0.5075 0.0
H479 H 0.4781 0.49143 0.80721 0.0
H480 H 0.38719 0.50637 0.51868 0.0
H481 H 0.41554 0.53431 0.47392 0.0
H482 H 0.38629 0.45914 0.71315 0.0
H483 H 0.55842 0.55863 0.379 0.0
H484 H 0.59688 0.57154 0.41972 0.0
H485 H 0.37663 0.47798 0.60747 0.0
H486 H 0.45114 0.46484 0.86262 0.0
N487 N 0.4465 0.51547 0.60559 0.0
C488 C 0.40367 0.50892 0.54374 0.0
C489 C 0.41961 0.52472 0.51836 0.0
C490 C 0.40905 0.49691 0.60182 0.0
C491 C 0.43072 0.50095 0.63265 0.0
C492 C 0.44106 0.52777 0.54999 0.0
N493 N 0.45647 0.49604 0.72232 0.0
C494 C 0.43591 0.4908 0.69271 0.0
C495 C 0.44662 0.47206 0.81489 0.0
C496 C 0.42564 0.46611 0.7843 0.0
C497 C 0.4618 0.48731 0.78342 0.0
C498 C 0.41994 0.47567 0.72279 0.0
H499 H 0.41389 0.45432 0.80888 0.0
O500 O 0.47558 0.54544 0.74636 0.0
O501 O 0.5196 0.51856 0.67619 0.0
O502 O 0.52464 0.47906 0.66941 0.0
O503 O 0.48441 0.48199 0.6617 0.0
O504 O 0.5014 0.52253 0.76307 0.0
O505 O 0.46315 0.55328 0.6474 0.0
O506 O 0.54775 0.47846 0.51363 0.0
O507 O 0.50074 0.50657 0.57894 0.0
O508 O 0.49574 0.54525 0.58512 0.0
O509 O 0.53578 0.54286 0.5964 0.0
O510 O 0.51827 0.49788 0.49397 0.0
O511 O 0.55728 0.47246 0.61659 0.0
C512 C 0.52193 0.52069 0.73838 0.0
C513 C 0.39873 0.47081 0.69098 0.0
C514 C 0.39325 0.48149 0.63075 0.0
C515 C 0.46697 0.56119 0.70719 0.0
C516 C 0.47752 0.58436 0.70993 0.0
C517 C 0.46402 0.60372 0.69382 0.0
C518 C 0.50129 0.58717 0.72331 0.0
C519 C 0.51151 0.60935 0.72292 0.0
C520 C 0.47406 0.62571 0.69185 0.0
C521 C 0.49757 0.62859 0.70664 0.0
C522 C 0.5035 0.46991 0.67407 0.0
C523 C 0.49792 0.50122 0.51849 0.0
C524 C 0.55586 0.46368 0.55679 0.0
C525 C 0.54651 0.44002 0.55379 0.0
C526 C 0.56106 0.42128 0.56829 0.0
C527 C 0.52282 0.43614 0.5417 0.0
C528 C 0.51366 0.4135 0.54192 0.0
C529 C 0.5521 0.39882 0.56987 0.0
C530 C 0.52864 0.39488 0.55643 0.0
C531 C 0.51671 0.55482 0.58267 0.0
H532 H 0.44576 0.60176 0.68209 0.0
H533 H 0.51182 0.57205 0.73349 0.0
H534 H 0.46354 0.64062 0.67956 0.0
H535 H 0.50456 0.64603 0.70721 0.0
H536 H 0.57928 0.42408 0.579 0.0
H537 H 0.51153 0.45082 0.53282 0.0
H538 H 0.56342 0.38436 0.58084 0.0
H539 H 0.52248 0.37713 0.55559 0.0
Gd540 Gd 0.00893 0.49139 0.6728 0.0
Gd541 Gd 0.02385 0.5422 0.57269 0.0
C542 C 0.01698 0.61697 0.65139 0.0
C543 C 0.9855 0.63189 0.58377 0.0
C544 C 0.9992 0.59225 0.56753 0.0
C545 C 0.01515 0.5953 0.61809 0.0
C546 C 0.98469 0.61074 0.54827 0.0
C547 C 1.0016 0.63499 0.63538 0.0
C548 C 0.03468 0.62015 0.69824 0.0
C549 C 0.05053 0.60229 0.70893 0.0
N550 N 0.02983 0.57755 0.63191 0.0
C551 C 0.04807 0.58118 0.6744 0.0
H552 H 0.06063 0.56784 0.68342 0.0
C553 C 0.98624 0.56917 0.47685 0.0
N554 N 0.99903 0.57171 0.53399 0.0
C555 C 0.97162 0.587 0.45563 0.0
C556 C 0.97048 0.60773 0.49228 0.0
H557 H 0.98685 0.55303 0.4488 0.0
H558 H 1.00254 0.65162 0.66111 0.0
H559 H 0.97163 0.46555 0.56101 0.0
H560 H 0.03664 0.63648 0.72503 0.0
H561 H 0.06465 0.60473 0.74389 0.0
H562 H 0.97428 0.64619 0.57032 0.0
H563 H 0.04826 0.48155 0.79163 0.0
H564 H 0.99381 0.39602 0.52684 0.0
H565 H 0.96683 0.42831 0.5043 0.0
H566 H 0.05709 0.38679 0.6785 0.0
H567 H 0.9611 0.58466 0.41138 0.0
H568 H 0.95914 0.62152 0.47579 0.0
H569 H 0.02767 0.38084 0.59115 0.0
H570 H 0.07474 0.45032 0.82681 0.0
N571 N 1.00146 0.4555 0.61694 0.0
C572 C 0.99599 0.41249 0.55279 0.0
C573 C 0.98073 0.43065 0.54005 0.0
C574 C 0.01366 0.41569 0.59967 0.0
C575 C 0.01584 0.43756 0.63179 0.0
C576 C 0.98357 0.45199 0.57303 0.0
N577 N 0.03348 0.46177 0.712 0.0
C578 C 0.03242 0.44085 0.68062 0.0
C579 C 0.06297 0.44742 0.78552 0.0
C580 C 0.06286 0.42613 0.75155 0.0
C581 C 0.04789 0.46503 0.76558 0.0
C582 C 0.04725 0.4225 0.69905 0.0
H583 H 0.07456 0.41249 0.76707 0.0
O584 O 0.99999 0.48117 0.77289 0.0
O585 O 0.01035 0.53018 0.66952 0.0
O586 O 0.05455 0.53083 0.63809 0.0
O587 O 0.04772 0.49162 0.6554 0.0
O588 O 0.02276 0.51511 0.75478 0.0
O589 O 0.97286 0.49133 0.70497 0.0
O590 O 0.03325 0.55231 0.47307 0.0
O591 O 0.02263 0.50369 0.57702 0.0
O592 O 0.97848 0.50162 0.60635 0.0
O593 O 0.98448 0.54064 0.58234 0.0
O594 O 0.01315 0.51777 0.48789 0.0
O595 O 0.06007 0.54761 0.5472 0.0
C596 C 0.01817 0.53457 0.72706 0.0
C597 C 0.0457 0.40102 0.66553 0.0
C598 C 0.02894 0.39762 0.61588 0.0
C599 C 0.97876 0.4886 0.76708 0.0
C600 C 0.97177 0.50724 0.81458 0.0
C601 C 0.98508 0.5116 0.87223 0.0
C602 C 0.95346 0.52245 0.79918 0.0
C603 C 0.94894 0.54207 0.83958 0.0
C604 C 0.9808 0.53116 0.91196 0.0
C605 C 0.96297 0.54642 0.89562 0.0
C606 C 0.06165 0.50986 0.65624 0.0
C607 C 0.01639 0.49858 0.51853 0.0
C608 C 0.05536 0.55061 0.48441 0.0
C609 C 0.06788 0.53606 0.43616 0.0
C610 C 0.07339 0.54531 0.37412 0.0
C611 C 0.07247 0.51255 0.44893 0.0
C612 C 0.08257 0.49829 0.39965 0.0
C613 C 0.08341 0.53128 0.32504 0.0
C614 C 0.08799 0.50796 0.33754 0.0
C615 C 0.97089 0.52208 0.5855 0.0
H616 H 0.99932 0.50029 0.88565 0.0
H617 H 0.94301 0.51935 0.75506 0.0
H618 H 0.9914 0.53454 0.95553 0.0
H619 H 0.95974 0.56127 0.92794 0.0
H620 H 0.06963 0.56332 0.36338 0.0
H621 H 0.06794 0.50536 0.4967 0.0
H622 H 0.0877 0.5385 0.27719 0.0
H623 H 0.09636 0.49767 0.29899 0.0
H624 H 0.15372 0.01958 0.23966 0.0
H625 H 0.15675 0.09148 0.3026 0.0
H626 H 0.11879 0.01432 0.30721 0.0
H627 H 0.12217 0.08622 0.36991 0.0
H628 H 0.08047 0.06055 0.54892 0.0
H629 H 0.11247 0.06666 0.4723 0.0
H630 H 0.07742 0.02489 0.32319 0.0
H631 H 0.04556 0.01826 0.40101 0.0
C632 C 0.1468 0.03435 0.26701 0.0
C633 C 0.1584 0.05586 0.26627 0.0
C634 C 0.12675 0.03133 0.30589 0.0
C635 C 0.11777 0.04975 0.34505 0.0
C636 C 0.12883 0.07147 0.3419 0.0
C637 C 0.14874 0.07448 0.3031 0.0
C638 C 0.07959 0.05253 0.49997 0.0
C639 C 0.06048 0.03865 0.48171 0.0
C640 C 0.09788 0.05625 0.45556 0.0
C641 C 0.09768 0.04624 0.39127 0.0
C642 C 0.07834 0.0327 0.37243 0.0
C643 C 0.05992 0.02907 0.41692 0.0
H644 H 0.49462 0.14542 0.2189 0.0
H645 H 0.43496 0.16524 0.33647 0.0
H646 H 0.50242 0.11378 0.2949 0.0
H647 H 0.44166 0.13283 0.40904 0.0
H648 H 0.47106 0.0872 0.56939 0.0
H649 H 0.46332 0.1185 0.49329 0.0
H650 H 0.49203 0.0773 0.33184 0.0
H651 H 0.50147 0.04674 0.40973 0.0
C652 C 0.48306 0.14302 0.26061 0.0
C653 C 0.46404 0.158 0.27075 0.0
C654 C 0.48732 0.12455 0.30393 0.0
C655 C 0.47263 0.12038 0.35857 0.0
C656 C 0.45365 0.1354 0.36846 0.0
C657 C 0.44953 0.15393 0.32569 0.0
C658 C 0.47619 0.08498 0.51796 0.0
C659 C 0.48772 0.06471 0.49655 0.0
C660 C 0.47132 0.10286 0.47359 0.0
C661 C 0.47726 0.10084 0.40573 0.0
C662 C 0.48779 0.08001 0.38377 0.0
C663 C 0.49303 0.06227 0.42855 0.0
H664 H 0.37268 0.51222 0.27492 0.0
H665 H 0.38162 0.43851 0.30217 0.0
H666 H 0.40816 0.51951 0.3388 0.0
H667 H 0.4167 0.4458 0.36634 0.0
H668 H 0.4638 0.46931 0.5413 0.0
H669 H 0.4293 0.46142 0.47312 0.0
H670 H 0.4502 0.51496 0.33724 0.0
H671 H 0.48454 0.52275 0.40596 0.0
C672 C 0.38231 0.49754 0.29362 0.0
C673 C 0.374 0.47478 0.28349 0.0
C674 C 0.4027 0.50171 0.33052 0.0
C675 C 0.41537 0.48326 0.35838 0.0
C676 C 0.40731 0.46051 0.34693 0.0
C677 C 0.38707 0.45634 0.3099 0.0
C678 C 0.46077 0.47955 0.49733 0.0
C679 C 0.47627 0.49729 0.48028 0.0
C680 C 0.4412 0.47482 0.45757 0.0
C681 C 0.43671 0.48769 0.39966 0.0
C682 C 0.45271 0.50502 0.38201 0.0
C683 C 0.4724 0.50951 0.42132 0.0
H684 H 0.02606 0.3916 0.20632 0.0
H685 H 0.0408 0.3548 0.38726 0.0
H686 H 0.02276 0.4278 0.27025 0.0
H687 H 0.03658 0.39074 0.45126 0.0
H688 H 0.04835 0.46389 0.54106 0.0
H689 H 0.05404 0.428 0.47624 0.0
H690 H 0.99738 0.44721 0.34715 0.0
H691 H 0.99207 0.48307 0.41154 0.0
C692 C 0.02861 0.39114 0.25964 0.0
C693 C 0.0335 0.37 0.2912 0.0
C694 C 0.02647 0.41195 0.2966 0.0
C695 C 0.02923 0.41236 0.36636 0.0
C696 C 0.03448 0.3913 0.39777 0.0
C697 C 0.03656 0.37051 0.36088 0.0
C698 C 0.03692 0.46022 0.49944 0.0
C699 C 0.0193 0.47599 0.48259 0.0
C700 C 0.04021 0.43966 0.46199 0.0
C701 C 0.02612 0.43447 0.40619 0.0
C702 C 0.00877 0.45056 0.38907 0.0
C703 C 1.00555 0.47107 0.42639 0.0
H704 H 0.8656 0.95035 0.9566 0.0
H705 H 0.86831 0.02332 1.00862 0.0
H706 H 0.89889 0.95494 0.8844 0.0
H707 H 0.90093 0.02819 0.93294 0.0
H708 H 0.97249 0.02649 0.83632 0.0
H709 H 0.94088 0.02086 0.91475 0.0
H710 H 0.91051 0.96978 0.78149 0.0
H711 H 0.94288 0.97453 0.70514 0.0
C712 C 0.87332 0.96742 0.95318 0.0
C713 C 0.86412 0.9864 0.98953 0.0
C714 C 0.89233 0.97013 0.91052 0.0
C715 C 0.90279 0.99198 0.90205 0.0
C716 C 0.89366 0.011 0.93842 0.0
C717 C 0.87465 1.00826 0.98144 0.0
C718 C 0.95944 0.01361 0.82454 0.0
C719 C 0.96054 1.00073 0.76466 0.0
C720 C 0.94095 0.01068 0.8691 0.0
C721 C 0.92288 0.99486 0.85502 0.0
C722 C 0.92414 0.98187 0.79513 0.0
C723 C 0.94268 0.98472 0.75083 0.0
H724 H 0.55731 0.88776 0.0515 0.0
H725 H 0.53234 0.84554 0.8873 0.0
H726 H 0.55275 0.92257 0.98365 0.0
H727 H 0.52827 0.88 0.8198 0.0
H728 H 0.54915 0.94063 0.69207 0.0
H729 H 0.55479 0.90811 0.76655 0.0
H730 H 0.52296 0.94736 0.92639 0.0
H731 H 0.51705 0.9799 0.85156 0.0
C732 C 0.55058 0.88588 1.00139 0.0
C733 C 0.54551 0.8637 0.9748 0.0
C734 C 0.54809 0.90584 0.96236 0.0
C735 C 0.54057 0.90406 0.89575 0.0
C736 C 0.5347 0.882 0.87022 0.0
C737 C 0.53701 0.86218 0.90915 0.0
C738 C 0.54317 0.94236 0.74291 0.0
C739 C 0.53188 0.96271 0.76488 0.0
C740 C 0.54647 0.92367 0.78576 0.0
C741 C 0.53889 0.92488 0.85223 0.0
C742 C 0.52891 0.94576 0.87548 0.0
C743 C 0.52544 0.96443 0.83233 0.0
H744 H 0.6228 0.52013 0.06574 0.0
H745 H 0.6606 0.54623 0.89729 0.0
H746 H 0.58754 0.51848 0.99836 0.0
H747 H 0.62588 0.54348 0.82941 0.0
H748 H 0.55572 0.55373 0.7312 0.0
H749 H 0.58929 0.55885 0.8049 0.0
H750 H 0.56915 0.49751 0.91214 0.0
H751 H 0.53509 0.49336 0.8403 0.0
C752 C 0.62368 0.52552 0.01442 0.0
C753 C 0.64483 0.53307 0.98724 0.0
C754 C 0.60342 0.52432 0.97531 0.0
C755 C 0.60364 0.53067 0.90774 0.0
C756 C 0.62473 0.53858 0.88106 0.0
C757 C 0.6449 0.53981 0.92007 0.0
C758 C 0.55863 0.54138 0.7705 0.0
C759 C 0.54333 0.52269 0.77877 0.0
C760 C 0.57786 0.54427 0.81298 0.0
C761 C 0.58228 0.52851 0.86476 0.0
C762 C 0.56643 0.51017 0.87361 0.0
C763 C 0.54704 0.50754 0.83183 0.0
H764 H 0.9936 0.67608 0.87557 0.0
H765 H 0.0111 0.63764 0.05165 0.0
H766 H 0.99746 0.64089 0.80824 0.0
H767 H 0.01393 0.60212 0.98446 0.0
H768 H 0.043 0.54844 0.83494 0.0
H769 H 0.03803 0.58328 0.90395 0.0
H770 H 0.9804 0.60416 0.78068 0.0
H771 H 0.98536 0.56898 0.71226 0.0
C772 C 0.99837 0.66016 0.90019 0.0
C773 C 1.00231 0.66001 0.9695 0.0
C774 C 1.00023 0.63978 0.86138 0.0
C775 C 1.00607 0.61845 0.89041 0.0
C776 C 0.00973 0.61819 0.95983 0.0
C777 C 1.00785 0.63861 0.99871 0.0
C778 C 0.02927 0.56052 0.82265 0.0
C779 C 0.01504 0.55633 0.76694 0.0
C780 C 0.02627 0.58046 0.86259 0.0
C781 C 0.00877 0.59676 0.8484 0.0
C782 C 0.99421 0.59224 0.79316 0.0
C783 C 0.99711 0.57213 0.7535 0.0
H784 H 0.11686 0.20869 0.48142 0.0
H785 H 0.1097 0.16461 0.3068 0.0
H786 H 0.10101 0.17774 0.54936 0.0
H787 H 0.09426 0.13432 0.37323 0.0
H788 H 0.0482 0.08968 0.46237 0.0
H789 H 0.0864 0.10697 0.45255 0.0
H790 H 0.0613 0.16901 0.55245 0.0
H791 H 0.02388 0.15081 0.56762 0.0
C792 C 0.11265 0.19223 0.45771 0.0
C793 C 0.11355 0.18966 0.38803 0.0
C794 C 0.10356 0.17446 0.49673 0.0
C795 C 0.09524 0.15388 0.46659 0.0
C796 C 0.1001 0.14991 0.39881 0.0
C797 C 0.10911 0.16758 0.36003 0.0
C798 C 0.05116 0.10652 0.48535 0.0
C799 C 0.03274 0.11924 0.51358 0.0
C800 C 0.07308 0.11658 0.47903 0.0
C801 C 0.07676 0.13982 0.49877 0.0
C802 C 0.05925 0.1512 0.53558 0.0
C803 C 0.0375 0.14093 0.54323 0.0
H804 H 0.32424 0.11592 0.39611 0.0
H805 H 0.37672 0.14108 0.26146 0.0
H806 H 0.3539 0.10245 0.46997 0.0
H807 H 0.40666 0.12618 0.33474 0.0
H808 H 0.43084 0.04939 0.38827 0.0
H809 H 0.4149 0.08513 0.34551 0.0
H810 H 0.38781 0.10244 0.54025 0.0
H811 H 0.40389 0.06637 0.58323 0.0
C812 C 0.34207 0.11962 0.38326 0.0
C813 C 0.34793 0.12882 0.321 0.0
C814 C 0.35929 0.11174 0.42616 0.0
C815 C 0.38278 0.11264 0.40761 0.0
C816 C 0.38876 0.12486 0.35008 0.0
C817 C 0.3715 0.13319 0.30765 0.0
C818 C 0.4222 0.06116 0.42264 0.0
C819 C 0.41777 0.05462 0.48846 0.0
C820 C 0.41314 0.08184 0.39815 0.0
C821 C 0.39942 0.09634 0.43901 0.0
C822 C 0.39773 0.0913 0.50708 0.0
C823 C 0.40678 0.07057 0.53155 0.0
H824 H 0.39249 0.33685 0.41836 0.0
H825 H 0.42528 0.37008 0.25175 0.0
H826 H 0.41116 0.36464 0.494 0.0
H827 H 0.44422 0.39688 0.32564 0.0
H828 H 0.48381 0.38001 0.58755 0.0
H829 H 0.44863 0.36659 0.53362 0.0
H830 H 0.45112 0.42523 0.40162 0.0
H831 H 0.48756 0.43703 0.45034 0.0
C832 C 0.40318 0.35041 0.39774 0.0
C833 C 0.40774 0.35088 0.32908 0.0
C834 C 0.41405 0.36627 0.44109 0.0
C835 C 0.42993 0.38267 0.41664 0.0
C836 C 0.43217 0.38475 0.34726 0.0
C837 C 0.42117 0.36916 0.30418 0.0
C838 C 0.47686 0.39003 0.54691 0.0
C839 C 0.48917 0.40903 0.52162 0.0
C840 C 0.45625 0.38261 0.51669 0.0
C841 C 0.44718 0.39436 0.46138 0.0
C842 C 0.4579 0.41518 0.44233 0.0
C843 C 0.47881 0.4222 0.47121 0.0
H844 H 0.15755 0.37997 0.29738 0.0
H845 H 0.19506 0.4298 0.41861 0.0
H846 H 0.12143 0.39178 0.35127 0.0
H847 H 0.1596 0.44186 0.47062 0.0
H848 H 0.10159 0.48095 0.51416 0.0
H849 H 0.12393 0.44525 0.52236 0.0
H850 H 0.10198 0.42555 0.32355 0.0
H851 H 0.07856 0.46023 0.31773 0.0
C852 C 0.15822 0.39287 0.33704 0.0
C853 C 0.17906 0.40457 0.35181 0.0
C854 C 0.1375 0.39971 0.36788 0.0
C855 C 0.13728 0.41861 0.4131 0.0
C856 C 0.15873 0.42744 0.43565 0.0
C857 C 0.17937 0.42048 0.40537 0.0
C858 C 0.10076 0.46849 0.47338 0.0
C859 C 0.08942 0.47397 0.41364 0.0
C860 C 0.11373 0.44804 0.47787 0.0
C861 C 0.11599 0.4331 0.42217 0.0
C862 C 0.10131 0.43674 0.36717 0.0
C863 C 0.0881 0.45696 0.36312 0.0
H864 H 0.91857 0.86308 0.89764 0.0
H865 H 0.94436 0.80137 0.79733 0.0
H866 H 0.93637 0.88682 0.81345 0.0
H867 H 0.95983 0.82496 0.70977 0.0
H868 H 0.02652 0.86946 0.69298 0.0
H869 H 0.99474 0.84478 0.72405 0.0
H870 H 0.94743 0.90293 0.71144 0.0
H871 H 0.97981 0.92795 0.68123 0.0
C872 C 0.9273 0.85446 0.85656 0.0
C873 C 0.93122 0.83033 0.85702 0.0
C874 C 0.93723 0.86814 0.80731 0.0
C875 C 0.95063 0.85784 0.75644 0.0
C876 C 0.95058 0.83351 0.75005 0.0
C877 C 0.94128 0.81988 0.80024 0.0
C878 C 0.00927 0.8769 0.69472 0.0
C879 C 1.00582 0.90076 0.68577 0.0
C880 C 0.99083 0.86264 0.71225 0.0
C881 C 0.96837 0.87182 0.72103 0.0
C882 C 0.96454 0.89534 0.70646 0.0
C883 C 0.98311 0.9097 0.68927 0.0
H884 H 0.71277 0.93452 0.82563 0.0
H885 H 0.66191 0.89237 0.92558 0.0
H886 H 0.68351 0.94791 0.75028 0.0
H887 H 0.63211 0.90611 0.8491 0.0
H888 H 0.59479 0.97921 0.83135 0.0
H889 H 0.61597 0.94427 0.8574 0.0
H890 H 0.65301 0.94875 0.6712 0.0
H891 H 0.63195 0.9843 0.64576 0.0
C892 C 0.69557 0.92713 0.82972 0.0
C893 C 0.6896 0.91297 0.88349 0.0
C894 C 0.67858 0.9349 0.78595 0.0
C895 C 0.65519 0.92874 0.79493 0.0
C896 C 0.64985 0.91177 0.84218 0.0
C897 C 0.66694 0.90391 0.88607 0.0
C898 C 0.60682 0.97234 0.79471 0.0
C899 C 0.61231 0.98498 0.73761 0.0
C900 C 0.61895 0.95208 0.80948 0.0
C901 C 0.63679 0.94403 0.76733 0.0
C902 C 0.63989 0.95489 0.70572 0.0
C903 C 0.62788 0.97529 0.6912 0.0
H904 H 0.63321 0.68262 0.85418 0.0
H905 H 0.59654 0.65206 0.01847 0.0
H906 H 0.6154 0.65432 0.77837 0.0
H907 H 0.57848 0.62478 0.94428 0.0
H908 H 0.54334 0.64104 0.67778 0.0
H909 H 0.57841 0.65341 0.73428 0.0
H910 H 0.57209 0.59585 0.86913 0.0
H911 H 0.53554 0.58536 0.81802 0.0
C912 C 0.62188 0.66949 0.87441 0.0
C913 C 0.6159 0.67001 0.9422 0.0
C914 C 0.61152 0.65334 0.83092 0.0
C915 C 0.59477 0.63764 0.85435 0.0
C916 C 0.59123 0.63637 0.92347 0.0
C917 C 0.60172 0.65225 0.96674 0.0
C918 C 0.5494 0.63104 0.71961 0.0
C919 C 0.53598 0.61282 0.74495 0.0
C920 C 0.56994 0.63782 0.75134 0.0
C921 C 0.57785 0.62615 0.80821 0.0
C922 C 0.56611 0.60591 0.82734 0.0
C923 C 0.54519 0.59961 0.79707 0.0
H924 H 0.8089 0.58771 0.84701 0.0
H925 H 0.84946 0.63197 0.97791 0.0
H926 H 0.84326 0.57884 0.78284 0.0
H927 H 0.88422 0.62097 0.91857 0.0
H928 H 0.94689 0.58963 0.84165 0.0
H929 H 0.91213 0.6137 0.84039 0.0
H930 H 0.87034 0.55184 0.8127 0.0
H931 H 0.90504 0.5284 0.80977 0.0
C932 C 0.82496 0.59614 0.86135 0.0
C933 C 0.82654 0.60964 0.92009 0.0
C934 C 0.84488 0.59064 0.82497 0.0
C935 C 0.86684 0.59791 0.84772 0.0
C936 C 0.86782 0.61447 0.89986 0.0
C937 C 0.84779 0.62056 0.93492 0.0
C938 C 0.93027 0.58139 0.83317 0.0
C939 C 0.92864 0.55713 0.82653 0.0
C940 C 0.91028 0.59515 0.83289 0.0
C941 C 0.88818 0.58485 0.82795 0.0
C942 C 0.88686 0.5607 0.81586 0.0
C943 C 0.90686 0.54707 0.81469 0.0
H944 H 0.07062 0.17066 0.86171 0.0
H945 H 0.99842 0.18065 0.9121 0.0
H946 H 0.0607 0.13626 0.79769 0.0
H947 H 0.98819 0.1474 0.84251 0.0
H948 H 0.97711 0.07297 0.77136 0.0
H949 H 0.98718 0.10791 0.83465 0.0
H950 H 0.0459 0.11866 0.70475 0.0
H951 H 0.03642 0.08268 0.64496 0.0
C952 C 0.05253 0.1657 0.85915 0.0
C953 C 0.03547 0.17859 0.89398 0.0
C954 C 0.04674 0.14594 0.8209 0.0
C955 C 0.02355 0.13847 0.8145 0.0
C956 C 1.00635 0.15194 0.84699 0.0
C957 C 0.0122 0.1715 0.88629 0.0
C958 C 0.99235 0.08272 0.75715 0.0
C959 C 1.00635 0.07474 0.70456 0.0
C960 C 0.99802 0.10306 0.79284 0.0
C961 C 0.01746 0.11661 0.77557 0.0
C962 C 0.03113 0.10873 0.72136 0.0
C963 C 0.02573 0.08802 0.68671 0.0
H964 H 0.33686 0.9991 0.85257 0.0
H965 H 0.35922 0.07036 0.87312 0.0
H966 H 0.37285 0.98965 0.79414 0.0
H967 H 0.39518 0.06092 0.81564 0.0
H968 H 0.44951 0.04107 0.65857 0.0
H969 H 0.41233 0.05063 0.71094 0.0
H970 H 0.41337 0.98484 0.81173 0.0
H971 H 0.4502 0.97529 0.7581 0.0
C972 C 0.34943 0.01276 0.84484 0.0
C973 C 0.34488 0.03555 0.86739 0.0
C974 C 0.37019 1.00734 0.81138 0.0
C975 C 0.38712 0.02449 0.79981 0.0
C976 C 0.38249 0.04729 0.82219 0.0
C977 C 0.36174 0.05272 0.85533 0.0
C978 C 0.44189 0.02884 0.69262 0.0
C979 C 0.45309 1.00772 0.70584 0.0
C980 C 0.4205 0.03425 0.72259 0.0
C981 C 0.4097 0.01859 0.76617 0.0
C982 C 0.42086 0.99728 0.77809 0.0
C983 C 0.44213 0.99186 0.74788 0.0
H984 H 0.45808 0.32919 0.77374 0.0
H985 H 0.50653 0.34944 0.92791 0.0
H986 H 0.46708 0.36451 0.7133 0.0
H987 H 0.51543 0.3848 0.86781 0.0
H988 H 0.53717 0.44135 0.72536 0.0
H989 H 0.53235 0.40258 0.77107 0.0
H990 H 0.45907 0.40523 0.72607 0.0
H991 H 0.464 0.44354 0.67888 0.0
C992 C 0.47078 0.34109 0.79459 0.0
C993 C 0.48144 0.33644 0.8561 0.0
C994 C 0.47589 0.36143 0.75999 0.0
C995 C 0.49178 0.37778 0.78589 0.0
C996 C 0.50326 0.37259 0.84582 0.0
C997 C 0.49818 0.35222 0.88038 0.0
C998 C 0.52004 0.43363 0.72495 0.0
C999 C 0.50091 0.44585 0.69947 0.0
C1000 C 0.51726 0.41139 0.75147 0.0
C1001 C 0.49528 0.40072 0.75299 0.0
C1002 C 0.47631 0.4127 0.72548 0.0
C1003 C 0.4791 0.43489 0.69901 0.0
H1004 H 0.20003 0.51938 0.84801 0.0
H1005 H 0.17211 0.45194 0.8935 0.0
H1006 H 0.16605 0.52728 0.77856 0.0
H1007 H 0.13827 0.45984 0.82562 0.0
H1008 H 0.08767 0.47016 0.6588 0.0
H1009 H 0.12415 0.4635 0.71686 0.0
H1010 H 0.12562 0.53557 0.77932 0.0
H1011 H 0.08937 0.54222 0.71973 0.0
C1012 C 0.18666 0.50625 0.84343 0.0
C1013 C 0.18912 0.48488 0.87599 0.0
C1014 C 0.16707 0.51079 0.80359 0.0
C1015 C 0.14925 0.49416 0.79547 0.0
C1016 C 0.15173 0.47292 0.82867 0.0
C1017 C 0.17128 0.46836 0.868 0.0
C1018 C 0.09589 0.48466 0.68438 0.0
C1019 C 0.08541 0.50673 0.68469 0.0
C1020 C 0.11682 0.48081 0.7183 0.0
C1021 C 0.12794 0.49888 0.75412 0.0
C1022 C 0.11788 0.52119 0.75212 0.0
C1023 C 0.09697 0.52506 0.71774 0.0
H1024 H 0.98353 0.84236 0.4558 0.0
H1025 H 0.02322 0.86834 0.29118 0.0
H1026 H 0.98993 0.8788 0.51692 0.0
H1027 H 0.02888 0.90497 0.35047 0.0
H1028 H 0.05388 0.96137 0.49116 0.0
H1029 H 0.04816 0.92397 0.43595 0.0
H1030 H 0.9806 0.91839 0.52744 0.0
H1031 H 0.98714 0.95555 0.58533 0.0
C1032 C 0.99359 0.85587 0.43251 0.0
C1033 C 1.00304 0.85219 0.36859 0.0
C1034 C 0.99714 0.87694 0.46744 0.0
C1035 C 0.00999 0.89517 0.4392 0.0
C1036 C 0.01935 0.89139 0.37514 0.0
C1037 C 0.01609 0.87025 0.34075 0.0
C1038 C 0.03773 0.95221 0.49905 0.0
C1039 C 0.02066 0.96181 0.54093 0.0
C1040 C 0.03433 0.93071 0.46698 0.0
C1041 C 0.0137 0.91797 0.47574 0.0
C1042 C 0.99678 0.92741 0.51917 0.0
C1043 C 1.00031 0.94896 0.55169 0.0
H1044 H 0.65634 0.96052 0.36343 0.0
H1045 H 0.68278 0.02923 0.40745 0.0
H1046 H 0.62139 0.96933 0.42649 0.0
H1047 H 0.64744 0.03814 0.46961 0.0
H1048 H 0.56994 0.05412 0.50723 0.0
H1049 H 0.60624 0.04489 0.45013 0.0
H1050 H 0.60636 0.97702 0.53891 0.0
H1051 H 0.57002 0.9865 0.59642 0.0
C1052 C 0.65497 0.97743 0.38726 0.0
C1053 C 0.67274 0.99408 0.38018 0.0
C1054 C 0.63474 0.9825 0.42345 0.0
C1055 C 0.63144 1.00447 0.45332 0.0
C1056 C 0.64917 0.02112 0.4466 0.0
C1057 C 0.66951 0.016 0.41072 0.0
C1058 C 0.57772 0.0372 0.51432 0.0
C1059 C 0.56675 0.02078 0.55462 0.0
C1060 C 0.59865 0.03195 0.48201 0.0
C1061 C 0.60935 0.01016 0.48955 0.0
C1062 C 0.59854 0.99386 0.5311 0.0
C1063 C 0.57762 0.99921 0.5638 0.0
H1064 H 0.55937 0.69668 0.48296 0.0
H1065 H 0.51297 0.67444 0.32569 0.0
H1066 H 0.55135 0.66098 0.54279 0.0
H1067 H 0.50491 0.63887 0.38557 0.0
H1068 H 0.48298 0.58279 0.52951 0.0
H1069 H 0.48748 0.6214 0.48268 0.0
H1070 H 0.56052 0.62008 0.53098 0.0
H1071 H 0.55593 0.58177 0.57899 0.0
C1072 C 0.54735 0.68427 0.46119 0.0
C1073 C 0.53696 0.68854 0.39902 0.0
C1074 C 0.54279 0.66372 0.49554 0.0
C1075 C 0.52764 0.64682 0.4689 0.0
C1076 C 0.51648 0.65153 0.40816 0.0
C1077 C 0.52108 0.67206 0.37375 0.0
C1078 C 0.5 0.59075 0.5304 0.0
C1079 C 0.51917 0.57888 0.55705 0.0
C1080 C 0.5026 0.61291 0.50322 0.0
C1081 C 0.52442 0.62391 0.50228 0.0
C1082 C 0.54342 0.61233 0.53103 0.0
C1083 C 0.54082 0.59017 0.55804 0.0
H1084 H 0.84379 0.49384 0.36263 0.0
H1085 H 0.83364 0.56447 0.43172 0.0
H1086 H 0.88026 0.49224 0.42245 0.0
H1087 H 0.86915 0.56217 0.49629 0.0
H1088 H 0.94648 0.56104 0.54787 0.0
H1089 H 0.90893 0.56299 0.49319 0.0
H1090 H 0.90006 0.48924 0.52106 0.0
H1091 H 0.93836 0.48722 0.5707 0.0
C1092 C 0.84913 0.50905 0.39089 0.0
C1093 C 0.83546 0.52937 0.39115 0.0
C1094 C 0.8701 0.50799 0.42653 0.0
C1095 C 0.87812 0.52708 0.46483 0.0
C1096 C 0.86409 0.54716 0.46675 0.0
C1097 C 0.84326 0.54833 0.43034 0.0
C1098 C 0.93686 0.54513 0.54062 0.0
C1099 C 0.94634 0.52379 0.56052 0.0
C1100 C 0.91486 0.54628 0.51041 0.0
C1101 C 0.9012 0.52617 0.50079 0.0
C1102 C 0.91013 0.50506 0.52476 0.0
C1103 C 0.93228 0.50389 0.55392 0.0
loop_
_geom_bond_atom_site_label_1
_geom_bond_atom_site_label_2
_geom_bond_distance
_geom_bond_site_symmetry_2
_ccdc_geom_bond_type
C0 C1 1.384 . S
C0 H13 0.947 . S
C0 C35 1.382 . S
C1 C0 1.384 . S
C1 C2 1.378 . S
C2 C1 1.378 . S
C2 C3 1.378 . S
C2 H14 0.952 . S
C3 C2 1.378 . S
C3 H15 0.950 . S
C3 C34 1.383 . S
H4 C23 0.947 . S
H5 C24 0.946 . S
H6 C26 0.953 . S
H7 C27 0.945 . S
H8 C29 0.952 . S
H9 C30 0.949 . S
H10 C32 0.950 . S
H11 C33 0.948 . S
H12 C35 0.951 . S
H13 C0 0.947 . S
H14 C2 0.952 . S
H15 C3 0.950 . S
N16 C19 1.382 . S
N16 C21 1.363 . S
N17 C19 1.371 . S
N17 C20 1.372 . S
N18 C20 1.361 . S
N18 C21 1.377 . S
C19 N16 1.382 . S
C19 N17 1.371 . S
C19 C22 1.480 . S
C20 N17 1.372 . S
C20 N18 1.361 . S
C20 C28 1.457 . S
C21 N16 1.363 . S
C21 N18 1.377 . S
C21 C34 1.479 . S
C22 C19 1.480 . S
C22 C23 1.383 . S
C22 C27 1.385 . S
C23 H4 0.947 . S
C23 C22 1.383 . S
C23 C24 1.388 . S
C24 H5 0.946 . S
C24 C23 1.388 . S
C24 C25 1.384 . S
C25 C24 1.384 . S
C25 C26 1.377 . S
C26 H6 0.953 . S
C26 C25 1.377 . S
C26 C27 1.369 . S
C27 H7 0.945 . S
C27 C22 1.385 . S
C27 C26 1.369 . S
C28 C20 1.457 . S
C28 C29 1.372 . S
C28 C33 1.364 . S
C29 H8 0.952 . S
C29 C28 1.372 . S
C29 C30 1.389 1_554 S
C30 H9 0.949 . S
C30 C29 1.389 1_556 S
C30 C31 1.387 1_556 S
C31 C30 1.387 1_554 S
C31 C32 1.372 . S
C32 H10 0.950 . S
C32 C31 1.372 . S
C32 C33 1.379 . S
C33 H11 0.948 . S
C33 C28 1.364 . S
C33 C32 1.379 . S
C34 C3 1.383 . S
C34 C21 1.479 . S
C34 C35 1.398 . S
C35 C0 1.382 . S
C35 H12 0.951 . S
C35 C34 1.398 . S
C36 C37 1.384 . S
C36 H49 0.947 . S
C36 C71 1.382 . S
C37 C36 1.384 . S
C37 C38 1.378 . S
C38 C37 1.378 . S
C38 C39 1.378 . S
C38 H50 0.952 . S
C39 C38 1.378 . S
C39 H51 0.950 . S
C39 C70 1.383 . S
H40 C59 0.947 . S
H41 C60 0.946 . S
H42 C62 0.953 . S
H43 C63 0.945 . S
H44 C65 0.952 . S
H45 C66 0.949 . S
H46 C68 0.950 . S
H47 C69 0.948 . S
H48 C71 0.951 . S
H49 C36 0.947 . S
H50 C38 0.952 . S
H51 C39 0.950 . S
N52 C55 1.382 . S
N52 C57 1.363 . S
N53 C55 1.371 . S
N53 C56 1.372 . S
N54 C56 1.361 . S
N54 C57 1.377 . S
C55 N52 1.382 . S
C55 N53 1.371 . S
C55 C58 1.480 . S
C56 N53 1.372 . S
C56 N54 1.361 . S
C56 C64 1.457 . S
C57 N52 1.363 . S
C57 N54 1.377 . S
C57 C70 1.479 . S
C58 C55 1.480 . S
C58 C59 1.383 . S
C58 C63 1.385 . S
C59 H40 0.947 . S
C59 C58 1.383 . S
C59 C60 1.388 . S
C60 H41 0.946 . S
C60 C59 1.388 . S
C60 C61 1.384 . S
C61 C60 1.384 . S
C61 C62 1.377 . S
C62 H42 0.953 . S
C62 C61 1.377 . S
C62 C63 1.369 . S
C63 H43 0.945 . S
C63 C58 1.385 . S
C63 C62 1.369 . S
C64 C56 1.457 . S
C64 C65 1.372 . S
C64 C69 1.364 . S
C65 H44 0.952 . S
C65 C64 1.372 . S
C65 C66 1.389 1_554 S
C66 H45 0.949 . S
C66 C65 1.389 1_556 S
C66 C67 1.387 1_556 S
C67 C66 1.387 1_554 S
C67 C68 1.372 . S
C68 H46 0.950 . S
C68 C67 1.372 . S
C68 C69 1.379 . S
C69 H47 0.948 . S
C69 C64 1.364 . S
C69 C68 1.379 . S
C70 C39 1.383 . S
C70 C57 1.479 . S
C70 C71 1.398 . S
C71 C36 1.382 . S
C71 H48 0.951 . S
C71 C70 1.398 . S
C72 C73 1.384 . S
C72 H85 0.947 . S
C72 C107 1.382 . S
C73 C72 1.384 . S
C73 C74 1.378 . S
C74 C73 1.378 . S
C74 C75 1.378 . S
C74 H86 0.952 . S
C75 C74 1.378 . S
C75 H87 0.950 . S
C75 C106 1.383 . S
H76 C95 0.947 . S
H77 C96 0.946 . S
H78 C98 0.953 . S
H79 C99 0.945 . S
H80 C101 0.952 . S
H81 C102 0.940 1_556 S
H82 C104 0.950 . S
H83 C105 0.948 . S
H84 C107 0.951 . S
H85 C72 0.947 . S
H86 C74 0.952 . S
H87 C75 0.950 . S
N88 C91 1.382 . S
N88 C93 1.363 . S
N89 C91 1.371 . S
N89 C92 1.372 . S
N90 C92 1.361 . S
N90 C93 1.377 . S
C91 N88 1.382 . S
C91 N89 1.371 . S
C91 C94 1.480 . S
C92 N89 1.372 . S
C92 N90 1.361 . S
C92 C100 1.457 . S
C93 N88 1.363 . S
C93 N90 1.377 . S
C93 C106 1.479 . S
C94 C91 1.480 . S
C94 C95 1.383 . S
C94 C99 1.385 . S
C95 H76 0.947 . S
C95 C94 1.383 . S
C95 C96 1.388 . S
C96 H77 0.946 . S
C96 C95 1.388 . S
C96 C97 1.384 . S
C97 C96 1.384 . S
C97 C98 1.377 . S
C98 H78 0.953 . S
C98 C97 1.377 . S
C98 C99 1.369 . S
C99 H79 0.945 . S
C99 C94 1.385 . S
C99 C98 1.369 . S
C100 C92 1.457 . S
C100 C101 1.372 . S
C100 C105 1.364 . S
C101 H80 0.952 . S
C101 C100 1.372 . S
C101 C102 1.396 . S
C102 H81 0.940 1_554 S
C102 C101 1.396 . S
C102 C103 1.389 . S
C103 C102 1.389 . S
C103 C104 1.372 . S
C104 H82 0.950 . S
C104 C103 1.372 . S
C104 C105 1.379 . S
C105 H83 0.948 . S
C105 C100 1.364 . S
C105 C104 1.379 . S
C106 C75 1.383 . S
C106 C93 1.479 . S
C106 C107 1.398 . S
C107 C72 1.382 . S
C107 H84 0.951 . S
C107 C106 1.398 . S
C108 C109 1.384 . S
C108 H121 0.947 . S
C108 C143 1.382 . S
C109 C108 1.384 . S
C109 C110 1.378 1_554 S
C110 C109 1.378 1_556 S
C110 C111 1.378 1_556 S
C110 H122 0.952 . S
C111 C110 1.378 1_554 S
C111 H123 0.950 . S
C111 C142 1.383 . S
H112 C131 0.947 . S
H113 C132 0.946 . S
H114 C134 0.953 . S
H115 C135 0.945 . S
H116 C137 0.952 . S
H117 C138 0.949 . S
H118 C140 0.950 . S
H119 C141 0.948 . S
H120 C143 0.951 . S
H121 C108 0.947 . S
H122 C110 0.952 . S
H123 C111 0.950 . S
N124 C127 1.382 . S
N124 C129 1.363 . S
N125 C127 1.371 . S
N125 C128 1.372 . S
N126 C128 1.361 . S
N126 C129 1.377 . S
C127 N124 1.382 . S
C127 N125 1.371 . S
C127 C130 1.480 . S
C128 N125 1.372 . S
C128 N126 1.361 . S
C128 C136 1.457 . S
C129 N124 1.363 . S
C129 N126 1.377 . S
C129 C142 1.479 . S
C130 C127 1.480 . S
C130 C131 1.383 . S
C130 C135 1.385 . S
C131 H112 0.947 . S
C131 C130 1.383 . S
C131 C132 1.388 . S
C132 H113 0.946 . S
C132 C131 1.388 . S
C132 C133 1.384 . S
C133 C132 1.384 . S
C133 C134 1.377 . S
C134 H114 0.953 . S
C134 C133 1.377 . S
C134 C135 1.369 . S
C135 H115 0.945 . S
C135 C130 1.385 . S
C135 C134 1.369 . S
C136 C128 1.457 . S
C136 C137 1.372 . S
C136 C141 1.364 . S
C137 H116 0.952 . S
C137 C136 1.372 . S
C137 C138 1.389 . S
C138 H117 0.949 . S
C138 C137 1.389 . S
C138 C139 1.387 . S
C139 C138 1.387 . S
C139 C140 1.372 . S
C140 H118 0.950 . S
C140 C139 1.372 . S
C140 C141 1.379 . S
C141 H119 0.948 . S
C141 C136 1.364 . S
C141 C140 1.379 . S
C142 C111 1.383 . S
C142 C129 1.479 . S
C142 C143 1.398 . S
C143 C108 1.382 . S
C143 H120 0.951 . S
C143 C142 1.398 . S
C144 C145 1.384 . S
C144 H157 0.947 . S
C144 C179 1.382 . S
C145 C144 1.384 . S
C145 C146 1.378 . S
C146 C145 1.378 . S
C146 C147 1.378 . S
C146 H158 0.952 . S
C147 C146 1.378 . S
C147 H159 0.950 . S
C147 C178 1.383 . S
H148 C167 0.947 1_556 S
H149 C168 0.946 1_556 S
H150 C170 0.953 . S
H151 C171 0.945 . S
H152 C173 0.952 . S
H153 C174 0.949 . S
H154 C176 0.950 . S
H155 C177 0.948 . S
H156 C179 0.951 . S
H157 C144 0.947 . S
H158 C146 0.952 . S
H159 C147 0.950 . S
N160 C163 1.382 1_556 S
N160 C165 1.363 . S
N161 C163 1.371 . S
N161 C164 1.372 . S
N162 C164 1.361 . S
N162 C165 1.377 1_554 S
C163 N160 1.382 1_554 S
C163 N161 1.371 . S
C163 C166 1.480 . S
C164 N161 1.372 . S
C164 N162 1.361 . S
C164 C172 1.457 . S
C165 N160 1.363 . S
C165 N162 1.377 1_556 S
C165 C178 1.479 . S
C166 C163 1.480 . S
C166 C167 1.383 . S
C166 C171 1.385 . S
C167 H148 0.947 1_554 S
C167 C166 1.383 . S
C167 C168 1.388 . S
C168 H149 0.946 1_554 S
C168 C167 1.388 . S
C168 C169 1.384 . S
C169 C168 1.384 . S
C169 C170 1.377 . S
C170 H150 0.953 . S
C170 C169 1.377 . S
C170 C171 1.369 . S
C171 H151 0.945 . S
C171 C166 1.385 . S
C171 C170 1.369 . S
C172 C164 1.457 . S
C172 C173 1.372 . S
C172 C177 1.364 . S
C173 H152 0.952 . S
C173 C172 1.372 . S
C173 C174 1.389 . S
C174 H153 0.949 . S
C174 C173 1.389 . S
C174 C175 1.387 . S
C175 C174 1.387 . S
C175 C176 1.372 . S
C176 H154 0.950 . S
C176 C175 1.372 . S
C176 C177 1.379 . S
C177 H155 0.948 . S
C177 C172 1.364 . S
C177 C176 1.379 . S
C178 C147 1.383 . S
C178 C165 1.479 . S
C178 C179 1.398 . S
C179 C144 1.382 . S
C179 H156 0.951 . S
C179 C178 1.398 . S
C180 C181 1.384 . S
C180 H193 0.947 . S
C180 C215 1.382 . S
C181 C180 1.384 . S
C181 C182 1.378 . S
C182 C181 1.378 . S
C182 C183 1.378 . S
C182 H194 0.952 . S
C183 C182 1.378 . S
C183 H195 0.950 . S
C183 C214 1.383 . S
H184 C203 0.947 1_556 S
H185 C204 0.946 1_556 S
H186 C206 0.953 . S
H187 C207 0.945 . S
H188 C209 0.952 . S
H189 C210 0.949 . S
H190 C212 0.950 . S
H191 C213 0.948 . S
H192 C215 0.951 . S
H193 C180 0.947 . S
H194 C182 0.952 . S
H195 C183 0.950 . S
N196 C199 1.382 1_556 S
N196 C201 1.363 . S
N197 C199 1.371 . S
N197 C200 1.372 . S
N198 C200 1.361 . S
N198 C201 1.377 1_554 S
C199 N196 1.382 1_554 S
C199 N197 1.371 . S
C199 C202 1.480 . S
C200 N197 1.372 . S
C200 N198 1.361 . S
C200 C208 1.457 . S
C201 N196 1.363 . S
C201 N198 1.377 1_556 S
C201 C214 1.479 . S
C202 C199 1.480 . S
C202 C203 1.383 . S
C202 C207 1.385 . S
C203 H184 0.947 1_554 S
C203 C202 1.383 . S
C203 C204 1.388 . S
C204 H185 0.946 1_554 S
C204 C203 1.388 . S
C204 C205 1.384 . S
C205 C204 1.384 . S
C205 C206 1.377 . S
C206 H186 0.953 . S
C206 C205 1.377 . S
C206 C207 1.369 . S
C207 H187 0.945 . S
C207 C202 1.385 . S
C207 C206 1.369 . S
C208 C200 1.457 . S
C208 C209 1.372 . S
C208 C213 1.364 . S
C209 H188 0.952 . S
C209 C208 1.372 . S
C209 C210 1.389 . S
C210 H189 0.949 . S
C210 C209 1.389 . S
C210 C211 1.387 . S
C211 C210 1.387 . S
C211 C212 1.372 . S
C212 H190 0.950 . S
C212 C211 1.372 . S
C212 C213 1.379 . S
C213 H191 0.948 . S
C213 C208 1.364 . S
C213 C212 1.379 . S
C214 C183 1.383 . S
C214 C201 1.479 . S
C214 C215 1.398 . S
C215 C180 1.382 . S
C215 H192 0.951 . S
C215 C214 1.398 . S
C216 C217 1.384 . S
C216 H229 0.947 . S
C216 C251 1.382 . S
C217 C216 1.384 . S
C217 C218 1.378 . S
C218 C217 1.378 . S
C218 C219 1.378 . S
C218 H230 0.952 . S
C219 C218 1.378 . S
C219 H231 0.950 . S
C219 C250 1.383 . S
H220 C239 0.936 1_556 S
H221 C240 0.946 1_556 S
H222 C242 0.953 . S
H223 C243 0.945 . S
H224 C245 0.952 . S
H225 C246 0.949 . S
H226 C248 0.950 . S
H227 C249 0.948 . S
H228 C251 0.951 . S
H229 C216 0.947 . S
H230 C218 0.952 . S
H231 C219 0.950 . S
N232 C235 1.382 1_556 S
N232 C237 1.363 . S
N233 C235 1.371 . S
N233 C236 1.372 . S
N234 C236 1.361 . S
N234 C237 1.377 1_554 S
C235 N232 1.382 1_554 S
C235 N233 1.371 . S
C235 C238 1.480 . S
C236 N233 1.372 . S
C236 N234 1.361 . S
C236 C244 1.457 . S
C237 N232 1.363 . S
C237 N234 1.377 1_556 S
C237 C250 1.479 . S
C238 C235 1.480 . S
C238 C239 1.392 . S
C238 C243 1.385 . S
C239 H220 0.936 1_554 S
C239 C238 1.392 . S
C239 C240 1.391 . S
C240 H221 0.946 1_554 S
C240 C239 1.391 . S
C240 C241 1.384 . S
C241 C240 1.384 . S
C241 C242 1.377 . S
C242 H222 0.953 . S
C242 C241 1.377 . S
C242 C243 1.369 . S
C243 H223 0.945 . S
C243 C238 1.385 . S
C243 C242 1.369 . S
C244 C236 1.457 . S
C244 C245 1.372 . S
C244 C249 1.364 . S
C245 H224 0.952 . S
C245 C244 1.372 . S
C245 C246 1.389 . S
C246 H225 0.949 . S
C246 C245 1.389 . S
C246 C247 1.387 . S
C247 C246 1.387 . S
C247 C248 1.372 . S
C248 H226 0.950 . S
C248 C247 1.372 . S
C248 C249 1.379 . S
C249 H227 0.948 . S
C249 C244 1.364 . S
C249 C248 1.379 . S
C250 C219 1.383 . S
C250 C237 1.479 . S
C250 C251 1.398 . S
C251 C216 1.382 . S
C251 H228 0.951 . S
C251 C250 1.398 . S
C252 C253 1.384 . S
C252 H265 0.947 . S
C252 C287 1.382 . S
C253 C252 1.384 . S
C253 C254 1.378 . S
C254 C253 1.378 . S
C254 C255 1.378 . S
C254 H266 0.952 . S
C255 C254 1.378 . S
C255 H267 0.950 . S
C255 C286 1.383 . S
H256 C275 0.947 . S
H257 C276 0.946 . S
H258 C278 0.953 1_556 S
H259 C279 0.945 1_556 S
H260 C281 0.952 . S
H261 C282 0.949 . S
H262 C284 0.950 . S
H263 C285 0.948 . S
H264 C287 0.951 . S
H265 C252 0.947 . S
H266 C254 0.952 . S
H267 C255 0.950 . S
N268 C271 1.382 . S
N268 C273 1.363 . S
N269 C271 1.371 1_556 S
N269 C272 1.372 . S
N270 C272 1.361 1_554 S
N270 C273 1.377 . S
C271 N268 1.382 . S
C271 N269 1.371 1_554 S
C271 C274 1.480 . S
C272 N269 1.372 . S
C272 N270 1.361 1_556 S
C272 C280 1.457 . S
C273 N268 1.363 . S
C273 N270 1.377 . S
C273 C286 1.479 . S
C274 C271 1.480 . S
C274 C275 1.383 . S
C274 C279 1.385 . S
C275 H256 0.947 . S
C275 C274 1.383 . S
C275 C276 1.388 . S
C276 H257 0.946 . S
C276 C275 1.388 . S
C276 C277 1.384 . S
C277 C276 1.384 . S
C277 C278 1.377 . S
C278 H258 0.953 1_554 S
C278 C277 1.377 . S
C278 C279 1.369 . S
C279 H259 0.945 1_554 S
C279 C274 1.385 . S
C279 C278 1.369 . S
C280 C272 1.457 . S
C280 C281 1.372 . S
C280 C285 1.364 . S
C281 H260 0.952 . S
C281 C280 1.372 . S
C281 C282 1.389 . S
C282 H261 0.949 . S
C282 C281 1.389 . S
C282 C283 1.387 . S
C283 C282 1.387 . S
C283 C284 1.372 . S
C284 H262 0.950 . S
C284 C283 1.372 . S
C284 C285 1.379 . S
C285 H263 0.948 . S
C285 C280 1.364 . S
C285 C284 1.379 . S
C286 C255 1.383 . S
C286 C273 1.479 . S
C286 C287 1.398 . S
C287 C252 1.382 . S
C287 H264 0.951 . S
C287 C286 1.398 . S
Gd288 N319 2.658 . S
Gd288 N325 2.601 . S
Gd288 O332 2.545 . S
Gd288 O333 2.606 1_655 S
Gd288 O335 2.429 . S
Gd288 O336 2.545 1_655 S
Gd288 O337 2.412 . S
Gd288 O339 2.362 1_545 S
Gd288 O340 2.324 1_655 S
Gd288 C347 2.828 . S
Gd289 N298 2.661 1_565 S
Gd289 N302 2.601 . S
Gd289 O333 2.362 1_565 S
Gd289 O334 2.324 1_455 S
Gd289 O338 2.545 . S
Gd289 O339 2.606 1_455 S
Gd289 O341 2.429 . S
Gd289 O342 2.545 . S
Gd289 O343 2.412 . S
Gd289 C356 2.828 . S
C290 C293 1.417 . S
C290 C295 1.431 . S
C290 C296 1.412 . S
C291 C294 1.437 . S
C291 C295 1.317 . S
C291 H310 0.929 . S
C292 C293 1.426 . S
C292 C294 1.413 . S
C292 N302 1.359 1_545 S
C293 C290 1.417 . S
C293 C292 1.426 . S
C293 N298 1.350 . S
C294 C291 1.437 . S
C294 C292 1.413 . S
C294 C304 1.375 1_545 S
C295 C290 1.431 . S
C295 C291 1.317 . S
C295 H306 0.930 . S
C296 C290 1.412 . S
C296 C297 1.355 . S
C296 H308 0.930 . S
C297 C296 1.355 . S
C297 C299 1.402 . S
C297 H309 0.930 1_455 S
N298 Gd289 2.661 1_545 S
N298 C293 1.350 . S
N298 C299 1.307 . S
C299 C297 1.402 . S
C299 N298 1.307 . S
C299 H300 0.930 1_455 S
H300 C299 0.930 1_655 S
C301 N302 1.334 . S
C301 C303 1.394 . S
C301 H305 0.930 . S
N302 Gd289 2.601 . S
N302 C292 1.359 1_565 S
N302 C301 1.334 . S
C303 C301 1.394 . S
C303 C304 1.380 . S
C303 H315 0.930 . S
C304 C294 1.375 1_565 S
C304 C303 1.380 . S
C304 H316 0.926 1_565 S
H305 C301 0.930 . S
H306 C295 0.930 . S
H307 C324 0.930 . S
H308 C296 0.930 . S
H309 C297 0.930 1_655 S
H310 C291 0.929 . S
H311 C329 0.930 . S
H312 C320 0.930 . S
H313 C321 0.951 . S
H314 C345 0.929 . S
H315 C303 0.930 . S
H316 C304 0.926 1_545 S
H317 C346 0.930 . S
H318 C327 0.930 . S
N319 Gd288 2.658 . S
N319 C323 1.351 1_545 S
N319 C324 1.309 1_645 S
C320 H312 0.930 . S
C320 C321 1.333 1_655 S
C320 C322 1.412 . S
C321 H313 0.951 . S
C321 C320 1.333 1_455 S
C321 C324 1.403 . S
C322 C320 1.412 . S
C322 C323 1.417 . S
C322 C346 1.431 . S
C323 N319 1.351 1_565 S
C323 C322 1.417 . S
C323 C326 1.426 1_565 S
C324 H307 0.930 . S
C324 N319 1.309 1_465 S
C324 C321 1.403 . S
N325 Gd288 2.601 . S
N325 C326 1.359 . S
N325 C329 1.334 . S
C326 C323 1.426 1_545 S
C326 N325 1.359 . S
C326 C330 1.413 . S
C327 H318 0.930 . S
C327 C328 1.359 . S
C327 C329 1.394 . S
C328 C327 1.359 . S
C328 C330 1.391 . S
C328 H331 0.929 . S
C329 H311 0.930 . S
C329 N325 1.334 . S
C329 C327 1.394 . S
C330 C326 1.413 . S
C330 C328 1.391 . S
C330 C345 1.437 1_545 S
H331 C328 0.929 . S
O332 Gd288 2.545 . S
O332 C347 1.258 . S
O333 Gd288 2.606 1_455 S
O333 Gd289 2.362 1_545 S
O333 C344 1.284 . S
O334 Gd289 2.324 1_655 S
O334 C354 1.254 1_565 S
O335 Gd288 2.429 . S
O335 C354 1.268 . S
O336 Gd288 2.545 1_455 S
O336 C344 1.250 . S
O337 Gd288 2.412 . S
O337 C347 1.252 . S
O338 Gd289 2.545 . S
O338 C356 1.258 . S
O339 Gd288 2.362 1_565 S
O339 Gd289 2.606 1_655 S
O339 C355 1.284 . S
O340 Gd288 2.324 1_455 S
O340 C363 1.254 . S
O341 Gd289 2.429 . S
O341 C363 1.268 1_565 S
O342 Gd289 2.545 . S
O342 C355 1.250 1_455 S
O343 Gd289 2.412 . S
O343 C356 1.252 . S
C344 O333 1.284 . S
C344 O336 1.250 . S
C345 H314 0.929 . S
C345 C330 1.437 1_565 S
C345 C346 1.317 . S
C346 H317 0.930 . S
C346 C322 1.431 . S
C346 C345 1.317 . S
C347 Gd288 2.828 . S
C347 O332 1.258 . S
C347 O337 1.252 . S
C347 C348 1.497 . S
C348 C347 1.497 . S
C348 C349 1.395 . S
C348 C350 1.380 . S
C349 C348 1.395 . S
C349 C352 1.398 . S
C349 H364 0.930 . S
C350 C348 1.380 . S
C350 C351 1.391 . S
C350 H365 0.930 1_655 S
C351 C350 1.391 . S
C351 C353 1.387 . S
C352 C349 1.398 . S
C352 C353 1.380 . S
C352 H366 0.930 . S
C353 C351 1.387 . S
C353 C352 1.380 . S
C353 H367 0.930 . S
C354 O334 1.254 1_545 S
C354 O335 1.268 . S
C355 O339 1.284 . S
C355 O342 1.250 1_655 S
C356 Gd289 2.828 . S
C356 O338 1.258 . S
C356 O343 1.252 . S
C356 C357 1.497 . S
C357 C356 1.497 . S
C357 C358 1.395 . S
C357 C359 1.380 . S
C358 C357 1.395 . S
C358 C361 1.398 . S
C358 H368 0.930 . S
C359 C357 1.380 . S
C359 C360 1.391 . S
C359 H369 0.907 1_455 S
C360 C359 1.391 . S
C360 C362 1.387 . S
C361 C358 1.398 . S
C361 C362 1.380 . S
C361 H370 0.930 . S
C362 C360 1.387 . S
C362 C361 1.380 . S
C362 H371 0.930 . S
C363 O340 1.254 . S
C363 O341 1.268 1_545 S
H364 C349 0.930 . S
H365 C350 0.930 1_455 S
H366 C352 0.930 . S
H367 C353 0.930 . S
H368 C358 0.930 . S
H369 C359 0.907 1_655 S
H370 C361 0.930 . S
H371 C362 0.930 . S
Gd372 N403 2.661 . S
Gd372 N409 2.601 . S
Gd372 O416 2.545 . S
Gd372 O417 2.606 1_565 S
Gd372 O419 2.429 . S
Gd372 O420 2.545 1_565 S
Gd372 O421 2.412 . S
Gd372 O423 2.362 . S
Gd372 O424 2.324 1_565 S
Gd372 C431 2.828 . S
Gd373 N382 2.661 . S
Gd373 N386 2.601 . S
Gd373 O417 2.362 . S
Gd373 O418 2.324 1_545 S
Gd373 O422 2.545 . S
Gd373 O423 2.606 1_545 S
Gd373 O425 2.429 . S
Gd373 O426 2.545 . S
Gd373 O427 2.412 . S
Gd373 C440 2.828 . S
C374 C377 1.417 . S
C374 C379 1.431 . S
C374 C380 1.412 . S
C375 C378 1.437 . S
C375 C379 1.317 . S
C375 H394 0.929 . S
C376 C377 1.426 . S
C376 C378 1.413 . S
C376 N386 1.359 . S
C377 C374 1.417 . S
C377 C376 1.426 . S
C377 N382 1.350 . S
C378 C375 1.437 . S
C378 C376 1.413 . S
C378 C388 1.391 . S
C379 C374 1.431 . S
C379 C375 1.317 . S
C379 H390 0.930 . S
C380 C374 1.412 . S
C380 C381 1.355 . S
C380 H392 0.930 . S
C381 C380 1.355 . S
C381 C383 1.402 . S
C381 H393 0.930 1_545 S
N382 Gd373 2.661 . S
N382 C377 1.350 . S
N382 C383 1.307 . S
C383 C381 1.402 . S
C383 N382 1.307 . S
C383 H384 0.930 1_545 S
H384 C383 0.930 1_565 S
C385 N386 1.334 . S
C385 C387 1.394 . S
C385 H389 0.930 . S
N386 Gd373 2.601 . S
N386 C376 1.359 . S
N386 C385 1.334 . S
C387 C385 1.394 . S
C387 C388 1.359 . S
C387 H399 0.930 . S
C388 C378 1.391 . S
C388 C387 1.359 . S
C388 H400 0.929 . S
H389 C385 0.930 . S
H390 C379 0.930 . S
H391 C408 0.930 . S
H392 C380 0.930 . S
H393 C381 0.930 1_565 S
H394 C375 0.929 . S
H395 C413 0.930 . S
H396 C404 0.930 . S
H397 C405 0.930 . S
H398 C429 0.929 . S
H399 C387 0.930 . S
H400 C388 0.929 . S
H401 C430 0.930 . S
H402 C411 0.930 . S
N403 Gd372 2.661 . S
N403 C407 1.350 . S
N403 C408 1.307 1_565 S
C404 H396 0.930 . S
C404 C405 1.355 1_565 S
C404 C406 1.412 . S
C405 H397 0.930 . S
C405 C404 1.355 1_545 S
C405 C408 1.402 . S
C406 C404 1.412 . S
C406 C407 1.417 . S
C406 C430 1.431 . S
C407 N403 1.350 . S
C407 C406 1.417 . S
C407 C410 1.426 . S
C408 H391 0.930 . S
C408 N403 1.307 1_545 S
C408 C405 1.402 . S
N409 Gd372 2.601 . S
N409 C410 1.359 . S
N409 C413 1.334 . S
C410 C407 1.426 . S
C410 N409 1.359 . S
C410 C414 1.413 . S
C411 H402 0.930 . S
C411 C412 1.359 . S
C411 C413 1.394 . S
C412 C411 1.359 . S
C412 C414 1.391 . S
C412 H415 0.929 . S
C413 H395 0.930 . S
C413 N409 1.334 . S
C413 C411 1.394 . S
C414 C410 1.413 . S
C414 C412 1.391 . S
C414 C429 1.437 . S
H415 C412 0.929 . S
O416 Gd372 2.545 . S
O416 C431 1.258 . S
O417 Gd372 2.606 1_545 S
O417 Gd373 2.362 . S
O417 C428 1.284 . S
O418 Gd373 2.324 1_565 S
O418 C438 1.254 . S
O419 Gd372 2.429 . S
O419 C438 1.268 . S
O420 Gd372 2.545 1_545 S
O420 C428 1.250 . S
O421 Gd372 2.412 . S
O421 C431 1.252 . S
O422 Gd373 2.545 . S
O422 C440 1.258 . S
O423 Gd372 2.362 . S
O423 Gd373 2.606 1_565 S
O423 C439 1.284 . S
O424 Gd372 2.324 1_545 S
O424 C447 1.254 . S
O425 Gd373 2.429 . S
O425 C447 1.268 . S
O426 Gd373 2.545 . S
O426 C439 1.250 1_545 S
O427 Gd373 2.412 . S
O427 C440 1.252 . S
C428 O417 1.284 . S
C428 O420 1.250 . S
C429 H398 0.929 . S
C429 C414 1.437 . S
C429 C430 1.317 . S
C430 H401 0.930 . S
C430 C406 1.431 . S
C430 C429 1.317 . S
C431 Gd372 2.828 . S
C431 O416 1.258 . S
C431 O421 1.252 . S
C431 C432 1.497 . S
C432 C431 1.497 . S
C432 C433 1.395 . S
C432 C434 1.380 . S
C433 C432 1.395 . S
C433 C436 1.398 . S
C433 H448 0.930 . S
C434 C432 1.380 . S
C434 C435 1.391 . S
C434 H449 0.930 1_565 S
C435 C434 1.391 . S
C435 C437 1.387 . S
C436 C433 1.398 . S
C436 C437 1.380 . S
C436 H450 0.930 . S
C437 C435 1.387 . S
C437 C436 1.380 . S
C437 H451 0.930 . S
C438 O418 1.254 . S
C438 O419 1.268 . S
C439 O423 1.284 . S
C439 O426 1.250 1_565 S
C440 Gd373 2.828 . S
C440 O422 1.258 . S
C440 O427 1.252 . S
C440 C441 1.497 . S
C441 C440 1.497 . S
C441 C442 1.395 . S
C441 C443 1.380 . S
C442 C441 1.395 . S
C442 C445 1.398 . S
C442 H452 0.930 . S
C443 C441 1.380 . S
C443 C444 1.391 . S
C443 H453 0.930 . S
C444 C443 1.391 . S
C444 C446 1.387 . S
C445 C442 1.398 . S
C445 C446 1.380 . S
C445 H454 0.930 . S
C446 C444 1.387 . S
C446 C445 1.380 . S
C446 H455 0.930 . S
C447 O424 1.254 . S
C447 O425 1.268 . S
H448 C433 0.930 . S
H449 C434 0.930 1_545 S
H450 C436 0.930 . S
H451 C437 0.930 . S
H452 C442 0.930 . S
H453 C443 0.930 . S
H454 C445 0.930 . S
H455 C446 0.930 . S
Gd456 N487 2.661 . S
Gd456 N493 2.601 . S
Gd456 O500 2.545 . S
Gd456 O501 2.606 . S
Gd456 O503 2.429 . S
Gd456 O504 2.545 . S
Gd456 O505 2.412 . S
Gd456 O507 2.362 . S
Gd456 O508 2.324 . S
Gd456 C515 2.828 . S
Gd457 N466 2.661 . S
Gd457 N470 2.601 . S
Gd457 O501 2.362 . S
Gd457 O502 2.324 . S
Gd457 O506 2.545 . S
Gd457 O507 2.606 . S
Gd457 O509 2.429 . S
Gd457 O510 2.545 . S
Gd457 O511 2.412 . S
Gd457 C524 2.828 . S
C458 C461 1.417 . S
C458 C463 1.431 . S
C458 C464 1.412 . S
C459 C462 1.437 . S
C459 C463 1.317 . S
C459 H478 0.929 . S
C460 C461 1.426 . S
C460 C462 1.413 . S
C460 N470 1.359 . S
C461 C458 1.417 . S
C461 C460 1.426 . S
C461 N466 1.350 . S
C462 C459 1.437 . S
C462 C460 1.413 . S
C462 C472 1.391 . S
C463 C458 1.431 . S
C463 C459 1.317 . S
C463 H474 0.930 . S
C464 C458 1.412 . S
C464 C465 1.355 . S
C464 H476 0.930 . S
C465 C464 1.355 . S
C465 C467 1.402 . S
C465 H477 0.930 . S
N466 Gd457 2.661 . S
N466 C461 1.350 . S
N466 C467 1.307 . S
C467 C465 1.402 . S
C467 N466 1.307 . S
C467 H468 0.930 . S
H468 C467 0.930 . S
C469 N470 1.334 . S
C469 C471 1.394 . S
C469 H473 0.930 . S
N470 Gd457 2.601 . S
N470 C460 1.359 . S
N470 C469 1.334 . S
C471 C469 1.394 . S
C471 C472 1.359 . S
C471 H483 0.930 . S
C472 C462 1.391 . S
C472 C471 1.359 . S
C472 H484 0.929 . S
H473 C469 0.930 . S
H474 C463 0.930 . S
H475 C492 0.930 . S
H476 C464 0.930 . S
H477 C465 0.930 . S
H478 C459 0.929 . S
H479 C497 0.930 . S
H480 C488 0.930 . S
H481 C489 0.930 . S
H482 C513 0.929 . S
H483 C471 0.930 . S
H484 C472 0.929 . S
H485 C514 0.930 . S
H486 C495 0.930 . S
N487 Gd456 2.661 . S
N487 C491 1.350 . S
N487 C492 1.307 . S
C488 H480 0.930 . S
C488 C489 1.355 . S
C488 C490 1.412 . S
C489 H481 0.930 . S
C489 C488 1.355 . S
C489 C492 1.402 . S
C490 C488 1.412 . S
C490 C491 1.417 . S
C490 C514 1.431 . S
C491 N487 1.350 . S
C491 C490 1.417 . S
C491 C494 1.426 . S
C492 H475 0.930 . S
C492 N487 1.307 . S
C492 C489 1.402 . S
N493 Gd456 2.601 . S
N493 C494 1.359 . S
N493 C497 1.334 . S
C494 C491 1.426 . S
C494 N493 1.359 . S
C494 C498 1.413 . S
C495 H486 0.930 . S
C495 C496 1.359 . S
C495 C497 1.394 . S
C496 C495 1.359 . S
C496 C498 1.391 . S
C496 H499 0.929 . S
C497 H479 0.930 . S
C497 N493 1.334 . S
C497 C495 1.394 . S
C498 C494 1.413 . S
C498 C496 1.391 . S
C498 C513 1.437 . S
H499 C496 0.929 . S
O500 Gd456 2.545 . S
O500 C515 1.258 . S
O501 Gd456 2.606 . S
O501 Gd457 2.362 . S
O501 C512 1.284 . S
O502 Gd457 2.324 . S
O502 C522 1.254 . S
O503 Gd456 2.429 . S
O503 C522 1.268 . S
O504 Gd456 2.545 . S
O504 C512 1.250 . S
O505 Gd456 2.412 . S
O505 C515 1.252 . S
O506 Gd457 2.545 . S
O506 C524 1.258 . S
O507 Gd456 2.362 . S
O507 Gd457 2.606 . S
O507 C523 1.284 . S
O508 Gd456 2.324 . S
O508 C531 1.254 . S
O509 Gd457 2.429 . S
O509 C531 1.268 . S
O510 Gd457 2.545 . S
O510 C523 1.250 . S
O511 Gd457 2.412 . S
O511 C524 1.252 . S
C512 O501 1.284 . S
C512 O504 1.250 . S
C513 H482 0.929 . S
C513 C498 1.437 . S
C513 C514 1.317 . S
C514 H485 0.930 . S
C514 C490 1.431 . S
C514 C513 1.317 . S
C515 Gd456 2.828 . S
C515 O500 1.258 . S
C515 O505 1.252 . S
C515 C516 1.497 . S
C516 C515 1.497 . S
C516 C517 1.395 . S
C516 C518 1.380 . S
C517 C516 1.395 . S
C517 C520 1.398 . S
C517 H532 0.930 . S
C518 C516 1.380 . S
C518 C519 1.391 . S
C518 H533 0.930 . S
C519 C518 1.391 . S
C519 C521 1.387 . S
C520 C517 1.398 . S
C520 C521 1.380 . S
C520 H534 0.930 . S
C521 C519 1.387 . S
C521 C520 1.380 . S
C521 H535 0.930 . S
C522 O502 1.254 . S
C522 O503 1.268 . S
C523 O507 1.284 . S
C523 O510 1.250 . S
C524 Gd457 2.828 . S
C524 O506 1.258 . S
C524 O511 1.252 . S
C524 C525 1.497 . S
C525 C524 1.497 . S
C525 C526 1.395 . S
C525 C527 1.380 . S
C526 C525 1.395 . S
C526 C529 1.398 . S
C526 H536 0.930 . S
C527 C525 1.380 . S
C527 C528 1.391 . S
C527 H537 0.930 . S
C528 C527 1.391 . S
C528 C530 1.387 . S
C529 C526 1.398 . S
C529 C530 1.380 . S
C529 H538 0.930 . S
C530 C528 1.387 . S
C530 C529 1.380 . S
C530 H539 0.930 . S
C531 O508 1.254 . S
C531 O509 1.268 . S
H532 C517 0.930 . S
H533 C518 0.930 . S
H534 C520 0.930 . S
H535 C521 0.930 . S
H536 C526 0.930 . S
H537 C527 0.930 . S
H538 C529 0.930 . S
H539 C530 0.930 . S
Gd540 N571 2.661 . S
Gd540 N577 2.601 . S
Gd540 O584 2.545 . S
Gd540 O585 2.600 1_655 S
Gd540 O587 2.429 1_655 S
Gd540 O588 2.545 . S
Gd540 O589 2.412 . S
Gd540 O591 2.362 1_655 S
Gd540 O592 2.324 . S
Gd540 C599 2.828 . S
Gd541 N550 2.661 . S
Gd541 N554 2.601 . S
Gd541 O585 2.372 . S
Gd541 O586 2.324 . S
Gd541 O590 2.545 . S
Gd541 O591 2.606 . S
Gd541 O593 2.429 1_455 S
Gd541 O594 2.545 . S
Gd541 O595 2.412 . S
Gd541 C608 2.828 . S
C542 C545 1.417 . S
C542 C547 1.431 . S
C542 C548 1.412 . S
C543 C546 1.437 . S
C543 C547 1.317 . S
C543 H562 0.929 . S
C544 C545 1.426 . S
C544 C546 1.413 . S
C544 N554 1.359 . S
C545 C542 1.417 . S
C545 C544 1.426 . S
C545 N550 1.350 . S
C546 C543 1.437 . S
C546 C544 1.413 . S
C546 C556 1.391 . S
C547 C542 1.431 . S
C547 C543 1.317 . S
C547 H558 0.930 . S
C548 C542 1.412 . S
C548 C549 1.355 . S
C548 H560 0.930 . S
C549 C548 1.355 . S
C549 C551 1.402 . S
C549 H561 0.930 . S
N550 Gd541 2.661 . S
N550 C545 1.350 . S
N550 C551 1.307 . S
C551 C549 1.402 . S
C551 N550 1.307 . S
C551 H552 0.930 . S
H552 C551 0.930 . S
C553 N554 1.334 . S
C553 C555 1.399 . S
C553 H557 0.930 1_455 S
N554 Gd541 2.601 . S
N554 C544 1.359 . S
N554 C553 1.334 . S
C555 C553 1.399 . S
C555 C556 1.381 . S
C555 H567 0.906 1_455 S
C556 C546 1.391 . S
C556 C555 1.381 . S
C556 H568 0.929 . S
H557 C553 0.930 1_655 S
H558 C547 0.930 . S
H559 C576 0.930 . S
H560 C548 0.930 . S
H561 C549 0.930 . S
H562 C543 0.929 . S
H563 C581 0.930 . S
H564 C572 0.930 . S
H565 C573 0.930 . S
H566 C597 0.929 . S
H567 C555 0.906 1_655 S
H568 C556 0.929 . S
H569 C598 0.930 . S
H570 C579 0.930 . S
N571 Gd540 2.661 . S
N571 C575 1.350 . S
N571 C576 1.307 . S
C572 H564 0.930 . S
C572 C573 1.355 . S
C572 C574 1.412 . S
C573 H565 0.930 . S
C573 C572 1.355 . S
C573 C576 1.402 . S
C574 C572 1.412 . S
C574 C575 1.417 . S
C574 C598 1.431 . S
C575 N571 1.350 . S
C575 C574 1.417 . S
C575 C578 1.426 . S
C576 H559 0.930 . S
C576 N571 1.307 . S
C576 C573 1.402 . S
N577 Gd540 2.601 . S
N577 C578 1.359 . S
N577 C581 1.334 1_655 S
C578 C575 1.426 . S
C578 N577 1.359 . S
C578 C582 1.413 . S
C579 H570 0.930 . S
C579 C580 1.359 1_455 S
C579 C581 1.394 . S
C580 C579 1.359 1_655 S
C580 C582 1.391 . S
C580 H583 0.929 . S
C581 H563 0.930 . S
C581 N577 1.334 1_455 S
C581 C579 1.394 . S
C582 C578 1.413 . S
C582 C580 1.391 . S
C582 C597 1.437 . S
H583 C580 0.929 . S
O584 Gd540 2.545 . S
O584 C599 1.258 . S
O585 Gd540 2.600 1_455 S
O585 Gd541 2.372 . S
O585 C596 1.277 1_455 S
O586 Gd541 2.324 . S
O586 C606 1.254 . S
O587 Gd540 2.429 1_455 S
O587 C606 1.268 . S
O588 Gd540 2.545 . S
O588 C596 1.250 . S
O589 Gd540 2.412 . S
O589 C599 1.252 . S
O590 Gd541 2.545 . S
O590 C608 1.258 . S
O591 Gd540 2.362 1_455 S
O591 Gd541 2.606 . S
O591 C607 1.284 . S
O592 Gd540 2.324 . S
O592 C615 1.254 . S
O593 Gd541 2.429 1_655 S
O593 C615 1.268 . S
O594 Gd541 2.545 . S
O594 C607 1.250 . S
O595 Gd541 2.412 . S
O595 C608 1.252 . S
C596 O585 1.277 1_655 S
C596 O588 1.250 . S
C597 H566 0.929 . S
C597 C582 1.437 . S
C597 C598 1.317 . S
C598 H569 0.930 . S
C598 C574 1.431 . S
C598 C597 1.317 . S
C599 Gd540 2.828 . S
C599 O584 1.258 . S
C599 O589 1.252 . S
C599 C600 1.497 . S
C600 C599 1.497 . S
C600 C601 1.395 . S
C600 C602 1.380 . S
C601 C600 1.395 . S
C601 C604 1.398 . S
C601 H616 0.930 . S
C602 C600 1.380 . S
C602 C603 1.391 . S
C602 H617 0.930 . S
C603 C602 1.391 . S
C603 C605 1.387 . S
C604 C601 1.398 . S
C604 C605 1.380 . S
C604 H618 0.930 . S
C605 C603 1.387 . S
C605 C604 1.380 . S
C605 H619 0.930 . S
C606 O586 1.254 . S
C606 O587 1.268 . S
C607 O591 1.284 . S
C607 O594 1.250 . S
C608 Gd541 2.828 . S
C608 O590 1.258 . S
C608 O595 1.252 . S
C608 C609 1.497 . S
C609 C608 1.497 . S
C609 C610 1.395 . S
C609 C611 1.380 . S
C610 C609 1.395 . S
C610 C613 1.398 . S
C610 H620 0.930 . S
C611 C609 1.380 . S
C611 C612 1.391 . S
C611 H621 0.930 . S
C612 C611 1.391 . S
C612 C614 1.387 . S
C613 C610 1.398 . S
C613 C614 1.380 . S
C613 H622 0.930 . S
C614 C612 1.387 . S
C614 C613 1.380 . S
C614 H623 0.930 . S
C615 O592 1.254 . S
C615 O593 1.268 . S
H616 C601 0.930 . S
H617 C602 0.930 . S
H618 C604 0.930 . S
H619 C605 0.930 . S
H620 C610 0.930 . S
H621 C611 0.930 . S
H622 C613 0.930 . S
H623 C614 0.930 . S
H624 C632 0.950 . S
H625 C637 0.950 . S
H626 C634 0.950 . S
H627 C636 0.950 . S
H628 C638 0.950 . S
H629 C640 0.950 . S
H630 C642 0.950 . S
H631 C643 0.950 . S
C632 H624 0.950 . S
C632 C633 1.386 . S
C632 C634 1.391 . S
C633 C632 1.386 . S
C633 C637 1.393 . S
C634 H626 0.950 . S
C634 C632 1.391 . S
C634 C635 1.400 . S
C635 C634 1.400 . S
C635 C636 1.398 . S
C635 C641 1.491 . S
C636 H627 0.950 . S
C636 C635 1.398 . S
C636 C637 1.391 . S
C637 H625 0.950 . S
C637 C633 1.393 . S
C637 C636 1.391 . S
C638 H628 0.950 . S
C638 C639 1.386 . S
C638 C640 1.391 . S
C639 C638 1.386 . S
C639 C643 1.393 . S
C640 H629 0.950 . S
C640 C638 1.391 . S
C640 C641 1.400 . S
C641 C635 1.491 . S
C641 C640 1.400 . S
C641 C642 1.398 . S
C642 H630 0.950 . S
C642 C641 1.398 . S
C642 C643 1.391 . S
C643 H631 0.950 . S
C643 C639 1.393 . S
C643 C642 1.391 . S
H644 C652 0.950 . S
H645 C657 0.950 . S
H646 C654 0.950 . S
H647 C656 0.950 . S
H648 C658 0.950 . S
H649 C660 0.950 . S
H650 C662 0.950 . S
H651 C663 0.950 . S
C652 H644 0.950 . S
C652 C653 1.386 . S
C652 C654 1.391 . S
C653 C652 1.386 . S
C653 C657 1.393 . S
C654 H646 0.950 . S
C654 C652 1.391 . S
C654 C655 1.400 . S
C655 C654 1.400 . S
C655 C656 1.398 . S
C655 C661 1.491 . S
C656 H647 0.950 . S
C656 C655 1.398 . S
C656 C657 1.391 . S
C657 H645 0.950 . S
C657 C653 1.393 . S
C657 C656 1.391 . S
C658 H648 0.950 . S
C658 C659 1.386 . S
C658 C660 1.391 . S
C659 C658 1.386 . S
C659 C663 1.393 . S
C660 H649 0.950 . S
C660 C658 1.391 . S
C660 C661 1.400 . S
C661 C655 1.491 . S
C661 C660 1.400 . S
C661 C662 1.398 . S
C662 H650 0.950 . S
C662 C661 1.398 . S
C662 C663 1.391 . S
C663 H651 0.950 . S
C663 C659 1.393 . S
C663 C662 1.391 . S
H664 C672 0.950 . S
H665 C677 0.950 . S
H666 C674 0.950 . S
H667 C676 0.950 . S
H668 C678 0.950 . S
H669 C680 0.950 . S
H670 C682 0.950 . S
H671 C683 0.950 . S
C672 H664 0.950 . S
C672 C673 1.386 . S
C672 C674 1.391 . S
C673 C672 1.386 . S
C673 C677 1.393 . S
C674 H666 0.950 . S
C674 C672 1.391 . S
C674 C675 1.400 . S
C675 C674 1.400 . S
C675 C676 1.398 . S
C675 C681 1.491 . S
C676 H667 0.950 . S
C676 C675 1.398 . S
C676 C677 1.391 . S
C677 H665 0.950 . S
C677 C673 1.393 . S
C677 C676 1.391 . S
C678 H668 0.950 . S
C678 C679 1.386 . S
C678 C680 1.391 . S
C679 C678 1.386 . S
C679 C683 1.393 . S
C680 H669 0.950 . S
C680 C678 1.391 . S
C680 C681 1.400 . S
C681 C675 1.491 . S
C681 C680 1.400 . S
C681 C682 1.398 . S
C682 H670 0.950 . S
C682 C681 1.398 . S
C682 C683 1.391 . S
C683 H671 0.950 . S
C683 C679 1.393 . S
C683 C682 1.391 . S
H684 C692 0.950 . S
H685 C697 0.950 . S
H686 C694 0.950 . S
H687 C696 0.950 . S
H688 C698 0.950 . S
H689 C700 0.950 . S
H690 C702 0.950 . S
H691 C703 0.950 . S
C692 H684 0.950 . S
C692 C693 1.386 . S
C692 C694 1.391 . S
C693 C692 1.386 . S
C693 C697 1.393 . S
C694 H686 0.950 . S
C694 C692 1.391 . S
C694 C695 1.400 . S
C695 C694 1.400 . S
C695 C696 1.398 . S
C695 C701 1.491 . S
C696 H687 0.950 . S
C696 C695 1.398 . S
C696 C697 1.391 . S
C697 H685 0.950 . S
C697 C693 1.393 . S
C697 C696 1.391 . S
C698 H688 0.950 . S
C698 C699 1.386 . S
C698 C700 1.391 . S
C699 C698 1.386 . S
C699 C703 1.393 . S
C700 H689 0.950 . S
C700 C698 1.391 . S
C700 C701 1.400 . S
C701 C695 1.491 . S
C701 C700 1.400 . S
C701 C702 1.398 . S
C702 H690 0.950 . S
C702 C701 1.398 . S
C702 C703 1.391 . S
C703 H691 0.950 . S
C703 C699 1.393 . S
C703 C702 1.391 . S
H704 C712 0.950 . S
H705 C717 0.950 . S
H706 C714 0.950 . S
H707 C716 0.950 . S
H708 C718 0.950 . S
H709 C720 0.950 . S
H710 C722 0.950 . S
H711 C723 0.950 . S
C712 H704 0.950 . S
C712 C713 1.386 . S
C712 C714 1.391 1_554 S
C713 C712 1.386 . S
C713 C717 1.393 . S
C714 H706 0.950 . S
C714 C712 1.391 1_556 S
C714 C715 1.400 . S
C715 C714 1.400 . S
C715 C716 1.398 1_556 S
C715 C721 1.491 . S
C716 H707 0.950 . S
C716 C715 1.398 1_554 S
C716 C717 1.391 . S
C717 H705 0.950 . S
C717 C713 1.393 . S
C717 C716 1.391 . S
C718 H708 0.950 . S
C718 C719 1.386 . S
C718 C720 1.391 . S
C719 C718 1.386 . S
C719 C723 1.393 . S
C720 H709 0.950 . S
C720 C718 1.391 . S
C720 C721 1.400 . S
C721 C715 1.491 . S
C721 C720 1.400 . S
C721 C722 1.398 . S
C722 H710 0.950 . S
C722 C721 1.398 . S
C722 C723 1.391 . S
C723 H711 0.950 . S
C723 C719 1.393 . S
C723 C722 1.391 . S
H724 C732 0.950 . S
H725 C737 0.950 . S
H726 C734 0.950 . S
H727 C736 0.950 . S
H728 C738 0.950 . S
H729 C740 0.950 . S
H730 C742 0.950 . S
H731 C743 0.950 . S
C732 H724 0.950 . S
C732 C733 1.386 . S
C732 C734 1.391 1_554 S
C733 C732 1.386 . S
C733 C737 1.393 . S
C734 H726 0.950 . S
C734 C732 1.391 1_556 S
C734 C735 1.400 . S
C735 C734 1.400 . S
C735 C736 1.398 . S
C735 C741 1.491 . S
C736 H727 0.950 . S
C736 C735 1.398 . S
C736 C737 1.391 1_556 S
C737 H725 0.950 . S
C737 C733 1.393 . S
C737 C736 1.391 1_554 S
C738 H728 0.950 . S
C738 C739 1.386 . S
C738 C740 1.391 . S
C739 C738 1.386 . S
C739 C743 1.393 . S
C740 H729 0.950 . S
C740 C738 1.391 . S
C740 C741 1.400 . S
C741 C735 1.491 . S
C741 C740 1.400 . S
C741 C742 1.398 . S
C742 H730 0.950 . S
C742 C741 1.398 . S
C742 C743 1.391 . S
C743 H731 0.950 . S
C743 C739 1.393 . S
C743 C742 1.391 . S
H744 C752 0.950 . S
H745 C757 0.950 . S
H746 C754 0.950 . S
H747 C756 0.950 . S
H748 C758 0.950 . S
H749 C760 0.950 . S
H750 C762 0.950 . S
H751 C763 0.950 . S
C752 H744 0.950 . S
C752 C753 1.386 . S
C752 C754 1.391 1_554 S
C753 C752 1.386 . S
C753 C757 1.393 . S
C754 H746 0.950 . S
C754 C752 1.391 1_556 S
C754 C755 1.400 . S
C755 C754 1.400 . S
C755 C756 1.398 . S
C755 C761 1.491 . S
C756 H747 0.950 . S
C756 C755 1.398 . S
C756 C757 1.391 1_556 S
C757 H745 0.950 . S
C757 C753 1.393 . S
C757 C756 1.391 1_554 S
C758 H748 0.950 . S
C758 C759 1.386 . S
C758 C760 1.391 . S
C759 C758 1.386 . S
C759 C763 1.393 . S
C760 H749 0.950 . S
C760 C758 1.391 . S
C760 C761 1.400 . S
C761 C755 1.491 . S
C761 C760 1.400 . S
C761 C762 1.398 . S
C762 H750 0.950 . S
C762 C761 1.398 . S
C762 C763 1.391 . S
C763 H751 0.950 . S
C763 C759 1.393 . S
C763 C762 1.391 . S
H764 C772 0.950 . S
H765 C777 0.950 . S
H766 C774 0.950 . S
H767 C776 0.952 . S
H768 C778 0.950 1_455 S
H769 C780 0.948 1_455 S
H770 C782 0.950 . S
H771 C783 0.950 . S
C772 H764 0.950 . S
C772 C773 1.386 . S
C772 C774 1.391 1_554 S
C773 C772 1.386 . S
C773 C777 1.393 . S
C774 H766 0.950 . S
C774 C772 1.391 1_556 S
C774 C775 1.400 . S
C775 C774 1.400 . S
C775 C776 1.410 . S
C775 C781 1.491 . S
C776 H767 0.952 . S
C776 C775 1.410 . S
C776 C777 1.378 1_556 S
C777 H765 0.950 . S
C777 C773 1.393 . S
C777 C776 1.378 1_554 S
C778 H768 0.950 1_655 S
C778 C779 1.386 . S
C778 C780 1.391 . S
C779 C778 1.386 . S
C779 C783 1.393 . S
C780 H769 0.948 1_655 S
C780 C778 1.391 . S
C780 C781 1.400 . S
C781 C775 1.491 . S
C781 C780 1.400 . S
C781 C782 1.398 . S
C782 H770 0.950 . S
C782 C781 1.398 . S
C782 C783 1.391 . S
C783 H771 0.950 . S
C783 C779 1.393 . S
C783 C782 1.391 . S
H784 C792 0.950 . S
H785 C797 0.950 . S
H786 C794 0.950 . S
H787 C796 0.950 . S
H788 C798 0.928 1_655 S
H789 C800 0.950 . S
H790 C802 0.950 . S
H791 C803 0.950 . S
C792 H784 0.950 . S
C792 C793 1.386 . S
C792 C794 1.391 . S
C793 C792 1.386 . S
C793 C797 1.393 . S
C794 H786 0.950 . S
C794 C792 1.391 . S
C794 C795 1.400 . S
C795 C794 1.400 . S
C795 C796 1.398 . S
C795 C801 1.491 . S
C796 H787 0.950 . S
C796 C795 1.398 . S
C796 C797 1.391 . S
C797 H785 0.950 . S
C797 C793 1.393 . S
C797 C796 1.391 . S
C798 H788 0.928 1_455 S
C798 C799 1.386 . S
C798 C800 1.391 . S
C799 C798 1.386 . S
C799 C803 1.393 . S
C800 H789 0.950 . S
C800 C798 1.391 . S
C800 C801 1.400 . S
C801 C795 1.491 . S
C801 C800 1.400 . S
C801 C802 1.398 . S
C802 H790 0.950 . S
C802 C801 1.398 . S
C802 C803 1.391 . S
C803 H791 0.950 . S
C803 C799 1.393 . S
C803 C802 1.391 . S
H804 C812 0.950 . S
H805 C817 0.950 . S
H806 C814 0.950 . S
H807 C816 0.950 . S
H808 C818 0.950 . S
H809 C820 0.950 . S
H810 C822 0.950 1_565 S
H811 C823 0.950 . S
C812 H804 0.950 . S
C812 C813 1.386 . S
C812 C814 1.391 . S
C813 C812 1.386 . S
C813 C817 1.393 . S
C814 H806 0.950 . S
C814 C812 1.391 . S
C814 C815 1.400 . S
C815 C814 1.400 . S
C815 C816 1.398 . S
C815 C821 1.491 . S
C816 H807 0.950 . S
C816 C815 1.398 . S
C816 C817 1.391 . S
C817 H805 0.950 . S
C817 C813 1.393 . S
C817 C816 1.391 . S
C818 H808 0.950 . S
C818 C819 1.386 . S
C818 C820 1.391 . S
C819 C818 1.386 . S
C819 C823 1.393 1_545 S
C820 H809 0.950 . S
C820 C818 1.391 . S
C820 C821 1.400 . S
C821 C815 1.491 . S
C821 C820 1.400 . S
C821 C822 1.398 . S
C822 H810 0.950 1_545 S
C822 C821 1.398 . S
C822 C823 1.391 1_545 S
C823 H811 0.950 . S
C823 C819 1.393 1_565 S
C823 C822 1.391 1_565 S
H824 C832 0.950 . S
H825 C837 0.950 . S
H826 C834 0.950 . S
H827 C836 0.950 . S
H828 C838 0.950 . S
H829 C840 0.950 . S
H830 C842 0.950 . S
H831 C843 0.950 . S
C832 H824 0.950 . S
C832 C833 1.386 . S
C832 C834 1.391 . S
C833 C832 1.386 . S
C833 C837 1.393 . S
C834 H826 0.950 . S
C834 C832 1.391 . S
C834 C835 1.400 . S
C835 C834 1.400 . S
C835 C836 1.398 . S
C835 C841 1.491 . S
C836 H827 0.950 . S
C836 C835 1.398 . S
C836 C837 1.391 . S
C837 H825 0.950 . S
C837 C833 1.393 . S
C837 C836 1.391 . S
C838 H828 0.950 . S
C838 C839 1.386 . S
C838 C840 1.391 . S
C839 C838 1.386 . S
C839 C843 1.393 . S
C840 H829 0.950 . S
C840 C838 1.391 . S
C840 C841 1.400 . S
C841 C835 1.491 . S
C841 C840 1.400 . S
C841 C842 1.398 . S
C842 H830 0.950 . S
C842 C841 1.398 . S
C842 C843 1.391 . S
C843 H831 0.950 . S
C843 C839 1.393 . S
C843 C842 1.391 . S
H844 C852 0.950 . S
H845 C857 0.950 . S
H846 C854 0.950 . S
H847 C856 0.950 . S
H848 C858 0.950 . S
H849 C860 0.950 . S
H850 C862 0.950 . S
H851 C863 0.950 . S
C852 H844 0.950 . S
C852 C853 1.386 . S
C852 C854 1.391 . S
C853 C852 1.386 . S
C853 C857 1.393 . S
C854 H846 0.950 . S
C854 C852 1.391 . S
C854 C855 1.400 . S
C855 C854 1.400 . S
C855 C856 1.398 . S
C855 C861 1.491 . S
C856 H847 0.950 . S
C856 C855 1.398 . S
C856 C857 1.391 . S
C857 H845 0.950 . S
C857 C853 1.393 . S
C857 C856 1.391 . S
C858 H848 0.950 . S
C858 C859 1.386 . S
C858 C860 1.391 . S
C859 C858 1.386 . S
C859 C863 1.393 . S
C860 H849 0.950 . S
C860 C858 1.391 . S
C860 C861 1.400 . S
C861 C855 1.491 . S
C861 C860 1.400 . S
C861 C862 1.398 . S
C862 H850 0.950 . S
C862 C861 1.398 . S
C862 C863 1.391 . S
C863 H851 0.950 . S
C863 C859 1.393 . S
C863 C862 1.391 . S
H864 C872 0.950 . S
H865 C877 0.950 . S
H866 C874 0.950 . S
H867 C876 0.950 . S
H868 C878 0.950 . S
H869 C880 0.971 . S
H870 C882 0.950 . S
H871 C883 0.950 . S
C872 H864 0.950 . S
C872 C873 1.386 . S
C872 C874 1.391 . S
C873 C872 1.386 . S
C873 C877 1.393 1_556 S
C874 H866 0.950 . S
C874 C872 1.391 . S
C874 C875 1.400 . S
C875 C874 1.400 . S
C875 C876 1.398 . S
C875 C881 1.491 . S
C876 H867 0.950 . S
C876 C875 1.398 . S
C876 C877 1.391 1_556 S
C877 H865 0.950 . S
C877 C873 1.393 1_554 S
C877 C876 1.391 1_554 S
C878 H868 0.950 . S
C878 C879 1.386 . S
C878 C880 1.423 . S
C879 C878 1.386 . S
C879 C883 1.393 1_455 S
C880 H869 0.971 . S
C880 C878 1.423 . S
C880 C881 1.349 1_455 S
C881 C875 1.491 . S
C881 C880 1.349 1_655 S
C881 C882 1.398 . S
C882 H870 0.950 . S
C882 C881 1.398 . S
C882 C883 1.391 . S
C883 H871 0.950 . S
C883 C879 1.393 1_655 S
C883 C882 1.391 . S
H884 C892 0.950 . S
H885 C897 0.950 . S
H886 C894 0.950 . S
H887 C896 0.943 1_554 S
H888 C898 0.950 . S
H889 C900 0.950 . S
H890 C902 0.950 . S
H891 C903 0.950 . S
C892 H884 0.950 . S
C892 C893 1.386 . S
C892 C894 1.391 . S
C893 C892 1.386 . S
C893 C897 1.393 1_556 S
C894 H886 0.950 . S
C894 C892 1.391 . S
C894 C895 1.400 . S
C895 C894 1.400 . S
C895 C896 1.410 . S
C895 C901 1.491 . S
C896 H887 0.943 1_556 S
C896 C895 1.410 . S
C896 C897 1.385 1_556 S
C897 H885 0.950 . S
C897 C893 1.393 1_554 S
C897 C896 1.385 1_554 S
C898 H888 0.950 . S
C898 C899 1.386 . S
C898 C900 1.391 1_545 S
C899 C898 1.386 . S
C899 C903 1.393 . S
C900 H889 0.950 . S
C900 C898 1.391 1_565 S
C900 C901 1.400 . S
C901 C895 1.491 . S
C901 C900 1.400 . S
C901 C902 1.398 . S
C902 H890 0.950 . S
C902 C901 1.398 . S
C902 C903 1.391 1_565 S
C903 H891 0.950 . S
C903 C899 1.393 . S
C903 C902 1.391 1_545 S
H904 C912 0.950 . S
H905 C917 0.950 . S
H906 C914 0.950 . S
H907 C916 0.950 1_554 S
H908 C918 0.950 . S
H909 C920 0.950 . S
H910 C922 0.950 . S
H911 C923 0.950 . S
C912 H904 0.950 . S
C912 C913 1.386 . S
C912 C914 1.391 . S
C913 C912 1.386 . S
C913 C917 1.393 1_556 S
C914 H906 0.950 . S
C914 C912 1.391 . S
C914 C915 1.400 . S
C915 C914 1.400 . S
C915 C916 1.398 . S
C915 C921 1.491 . S
C916 H907 0.950 1_556 S
C916 C915 1.398 . S
C916 C917 1.391 1_556 S
C917 H905 0.950 . S
C917 C913 1.393 1_554 S
C917 C916 1.391 1_554 S
C918 H908 0.950 . S
C918 C919 1.386 . S
C918 C920 1.391 . S
C919 C918 1.386 . S
C919 C923 1.393 . S
C920 H909 0.950 . S
C920 C918 1.391 . S
C920 C921 1.400 . S
C921 C915 1.491 . S
C921 C920 1.400 . S
C921 C922 1.398 . S
C922 H910 0.950 . S
C922 C921 1.398 . S
C922 C923 1.391 . S
C923 H911 0.950 . S
C923 C919 1.393 . S
C923 C922 1.391 . S
H924 C932 0.950 1_554 S
H925 C937 0.950 . S
H926 C934 0.950 . S
H927 C936 0.950 . S
H928 C938 0.950 . S
H929 C940 0.950 . S
H930 C942 0.950 . S
H931 C943 0.950 . S
C932 H924 0.950 1_556 S
C932 C933 1.386 . S
C932 C934 1.391 . S
C933 C932 1.386 . S
C933 C937 1.393 . S
C934 H926 0.950 . S
C934 C932 1.391 . S
C934 C935 1.400 . S
C935 C934 1.400 . S
C935 C936 1.398 . S
C935 C941 1.491 . S
C936 H927 0.950 . S
C936 C935 1.398 . S
C936 C937 1.391 . S
C937 H925 0.950 . S
C937 C933 1.393 . S
C937 C936 1.391 . S
C938 H928 0.950 . S
C938 C939 1.386 . S
C938 C940 1.391 . S
C939 C938 1.386 . S
C939 C943 1.393 . S
C940 H929 0.950 . S
C940 C938 1.391 . S
C940 C941 1.400 . S
C941 C935 1.491 . S
C941 C940 1.400 . S
C941 C942 1.398 . S
C942 H930 0.950 . S
C942 C941 1.398 . S
C942 C943 1.391 . S
C943 H931 0.950 . S
C943 C939 1.393 . S
C943 C942 1.391 . S
H944 C952 0.950 . S
H945 C957 0.950 . S
H946 C954 0.950 . S
H947 C956 0.950 . S
H948 C958 0.950 . S
H949 C960 0.950 . S
H950 C962 0.950 . S
H951 C963 0.950 . S
C952 H944 0.950 . S
C952 C953 1.386 . S
C952 C954 1.391 . S
C953 C952 1.386 . S
C953 C957 1.393 . S
C954 H946 0.950 . S
C954 C952 1.391 . S
C954 C955 1.400 . S
C955 C954 1.400 . S
C955 C956 1.398 . S
C955 C961 1.491 . S
C956 H947 0.950 . S
C956 C955 1.398 . S
C956 C957 1.391 . S
C957 H945 0.950 . S
C957 C953 1.393 . S
C957 C956 1.391 . S
C958 H948 0.950 . S
C958 C959 1.386 . S
C958 C960 1.391 . S
C959 C958 1.386 . S
C959 C963 1.393 . S
C960 H949 0.950 . S
C960 C958 1.391 . S
C960 C961 1.400 . S
C961 C955 1.491 . S
C961 C960 1.400 . S
C961 C962 1.398 . S
C962 H950 0.950 . S
C962 C961 1.398 . S
C962 C963 1.391 . S
C963 H951 0.950 . S
C963 C959 1.393 . S
C963 C962 1.391 . S
H964 C972 0.950 . S
H965 C977 0.950 . S
H966 C974 0.950 . S
H967 C976 0.950 . S
H968 C978 0.950 . S
H969 C980 0.950 . S
H970 C982 0.950 . S
H971 C983 0.950 . S
C972 H964 0.950 . S
C972 C973 1.386 . S
C972 C974 1.391 . S
C973 C972 1.386 . S
C973 C977 1.393 . S
C974 H966 0.950 . S
C974 C972 1.391 . S
C974 C975 1.400 . S
C975 C974 1.400 . S
C975 C976 1.398 . S
C975 C981 1.491 . S
C976 H967 0.950 . S
C976 C975 1.398 . S
C976 C977 1.391 . S
C977 H965 0.950 . S
C977 C973 1.393 . S
C977 C976 1.391 . S
C978 H968 0.950 . S
C978 C979 1.386 . S
C978 C980 1.391 . S
C979 C978 1.386 . S
C979 C983 1.393 . S
C980 H969 0.950 . S
C980 C978 1.391 . S
C980 C981 1.400 . S
C981 C975 1.491 . S
C981 C980 1.400 . S
C981 C982 1.398 . S
C982 H970 0.950 . S
C982 C981 1.398 . S
C982 C983 1.391 . S
C983 H971 0.950 . S
C983 C979 1.393 . S
C983 C982 1.391 . S
H984 C992 0.950 . S
H985 C997 0.950 . S
H986 C994 0.950 . S
H987 C996 0.950 . S
H988 C998 0.950 . S
H989 C1000 0.950 . S
H990 C1002 0.950 . S
H991 C1003 0.950 . S
C992 H984 0.950 . S
C992 C993 1.386 . S
C992 C994 1.391 . S
C993 C992 1.386 . S
C993 C997 1.393 . S
C994 H986 0.950 . S
C994 C992 1.391 . S
C994 C995 1.400 . S
C995 C994 1.400 . S
C995 C996 1.398 . S
C995 C1001 1.491 . S
C996 H987 0.950 . S
C996 C995 1.398 . S
C996 C997 1.391 . S
C997 H985 0.950 . S
C997 C993 1.393 . S
C997 C996 1.391 . S
C998 H988 0.950 . S
C998 C999 1.386 . S
C998 C1000 1.391 . S
C999 C998 1.386 . S
C999 C1003 1.393 . S
C1000 H989 0.950 . S
C1000 C998 1.391 . S
C1000 C1001 1.400 . S
C1001 C995 1.491 . S
C1001 C1000 1.400 . S
C1001 C1002 1.398 . S
C1002 H990 0.950 . S
C1002 C1001 1.398 . S
C1002 C1003 1.391 . S
C1003 H991 0.950 . S
C1003 C999 1.393 . S
C1003 C1002 1.391 . S
H1004 C1012 0.950 . S
H1005 C1017 0.950 . S
H1006 C1014 0.950 . S
H1007 C1016 0.950 . S
H1008 C1018 0.950 . S
H1009 C1020 0.950 . S
H1010 C1022 0.950 . S
H1011 C1023 0.950 . S
C1012 H1004 0.950 . S
C1012 C1013 1.386 . S
C1012 C1014 1.391 . S
C1013 C1012 1.386 . S
C1013 C1017 1.393 . S
C1014 H1006 0.950 . S
C1014 C1012 1.391 . S
C1014 C1015 1.400 . S
C1015 C1014 1.400 . S
C1015 C1016 1.398 . S
C1015 C1021 1.491 . S
C1016 H1007 0.950 . S
C1016 C1015 1.398 . S
C1016 C1017 1.391 . S
C1017 H1005 0.950 . S
C1017 C1013 1.393 . S
C1017 C1016 1.391 . S
C1018 H1008 0.950 . S
C1018 C1019 1.386 . S
C1018 C1020 1.391 . S
C1019 C1018 1.386 . S
C1019 C1023 1.393 . S
C1020 H1009 0.950 . S
C1020 C1018 1.391 . S
C1020 C1021 1.400 . S
C1021 C1015 1.491 . S
C1021 C1020 1.400 . S
C1021 C1022 1.398 . S
C1022 H1010 0.950 . S
C1022 C1021 1.398 . S
C1022 C1023 1.391 . S
C1023 H1011 0.950 . S
C1023 C1019 1.393 . S
C1023 C1022 1.391 . S
H1024 C1032 0.950 . S
H1025 C1037 0.950 . S
H1026 C1034 0.950 . S
H1027 C1036 0.950 . S
H1028 C1038 0.950 . S
H1029 C1040 0.950 . S
H1030 C1042 0.950 . S
H1031 C1043 0.950 . S
C1032 H1024 0.950 . S
C1032 C1033 1.386 . S
C1032 C1034 1.391 . S
C1033 C1032 1.386 . S
C1033 C1037 1.393 . S
C1034 H1026 0.950 . S
C1034 C1032 1.391 . S
C1034 C1035 1.400 . S
C1035 C1034 1.400 . S
C1035 C1036 1.398 . S
C1035 C1041 1.491 . S
C1036 H1027 0.950 . S
C1036 C1035 1.398 . S
C1036 C1037 1.391 . S
C1037 H1025 0.950 . S
C1037 C1033 1.393 . S
C1037 C1036 1.391 . S
C1038 H1028 0.950 . S
C1038 C1039 1.386 . S
C1038 C1040 1.391 . S
C1039 C1038 1.386 . S
C1039 C1043 1.393 . S
C1040 H1029 0.950 . S
C1040 C1038 1.391 . S
C1040 C1041 1.400 . S
C1041 C1035 1.491 . S
C1041 C1040 1.400 . S
C1041 C1042 1.398 . S
C1042 H1030 0.950 . S
C1042 C1041 1.398 . S
C1042 C1043 1.391 . S
C1043 H1031 0.950 . S
C1043 C1039 1.393 . S
C1043 C1042 1.391 . S
H1044 C1052 0.950 . S
H1045 C1057 0.950 . S
H1046 C1054 0.950 . S
H1047 C1056 0.950 . S
H1048 C1058 0.950 . S
H1049 C1060 0.950 . S
H1050 C1062 0.950 . S
H1051 C1063 0.950 . S
C1052 H1044 0.950 . S
C1052 C1053 1.386 . S
C1052 C1054 1.391 . S
C1053 C1052 1.386 . S
C1053 C1057 1.393 . S
C1054 H1046 0.950 . S
C1054 C1052 1.391 . S
C1054 C1055 1.400 . S
C1055 C1054 1.400 . S
C1055 C1056 1.398 . S
C1055 C1061 1.491 . S
C1056 H1047 0.950 . S
C1056 C1055 1.398 . S
C1056 C1057 1.391 . S
C1057 H1045 0.950 . S
C1057 C1053 1.393 . S
C1057 C1056 1.391 . S
C1058 H1048 0.950 . S
C1058 C1059 1.386 . S
C1058 C1060 1.391 . S
C1059 C1058 1.386 . S
C1059 C1063 1.393 . S
C1060 H1049 0.950 . S
C1060 C1058 1.391 . S
C1060 C1061 1.400 . S
C1061 C1055 1.491 . S
C1061 C1060 1.400 . S
C1061 C1062 1.398 . S
C1062 H1050 0.950 . S
C1062 C1061 1.398 . S
C1062 C1063 1.391 . S
C1063 H1051 0.950 . S
C1063 C1059 1.393 . S
C1063 C1062 1.391 . S
H1064 C1072 0.950 . S
H1065 C1077 0.950 . S
H1066 C1074 0.950 . S
H1067 C1076 0.950 . S
H1068 C1078 0.950 . S
H1069 C1080 0.950 . S
H1070 C1082 0.950 . S
H1071 C1083 0.950 . S
C1072 H1064 0.950 . S
C1072 C1073 1.386 . S
C1072 C1074 1.391 . S
C1073 C1072 1.386 . S
C1073 C1077 1.393 . S
C1074 H1066 0.950 . S
C1074 C1072 1.391 . S
C1074 C1075 1.400 . S
C1075 C1074 1.400 . S
C1075 C1076 1.398 . S
C1075 C1081 1.491 . S
C1076 H1067 0.950 . S
C1076 C1075 1.398 . S
C1076 C1077 1.391 . S
C1077 H1065 0.950 . S
C1077 C1073 1.393 . S
C1077 C1076 1.391 . S
C1078 H1068 0.950 . S
C1078 C1079 1.386 . S
C1078 C1080 1.391 . S
C1079 C1078 1.386 . S
C1079 C1083 1.393 . S
C1080 H1069 0.950 . S
C1080 C1078 1.391 . S
C1080 C1081 1.400 . S
C1081 C1075 1.491 . S
C1081 C1080 1.400 . S
C1081 C1082 1.398 . S
C1082 H1070 0.950 . S
C1082 C1081 1.398 . S
C1082 C1083 1.391 . S
C1083 H1071 0.950 . S
C1083 C1079 1.393 . S
C1083 C1082 1.391 . S
H1084 C1092 0.950 . S
H1085 C1097 0.950 . S
H1086 C1094 0.950 . S
H1087 C1096 0.950 . S
H1088 C1098 0.950 . S
H1089 C1100 0.950 . S
H1090 C1102 0.950 . S
H1091 C1103 0.950 . S
C1092 H1084 0.950 . S
C1092 C1093 1.386 . S
C1092 C1094 1.391 . S
C1093 C1092 1.386 . S
C1093 C1097 1.393 . S
C1094 H1086 0.950 . S
C1094 C1092 1.391 . S
C1094 C1095 1.400 . S
C1095 C1094 1.400 . S
C1095 C1096 1.398 . S
C1095 C1101 1.491 . S
C1096 H1087 0.950 . S
C1096 C1095 1.398 . S
C1096 C1097 1.391 . S
C1097 H1085 0.950 . S
C1097 C1093 1.393 . S
C1097 C1096 1.391 . S
C1098 H1088 0.950 . S
C1098 C1099 1.386 . S
C1098 C1100 1.391 . S
C1099 C1098 1.386 . S
C1099 C1103 1.393 . S
C1100 H1089 0.950 . S
C1100 C1098 1.391 . S
C1100 C1101 1.400 . S
C1101 C1095 1.491 . S
C1101 C1100 1.400 . S
C1101 C1102 1.398 . S
C1102 H1090 0.950 . S
C1102 C1101 1.398 . S
C1102 C1103 1.391 . S
C1103 H1091 0.950 . S
C1103 C1099 1.393 . S
C1103 C1102 1.391 . S
C633 C241 2.217 . S
C639 C363 2.321 . S
C659 C447 2.357 . S
C653 C277 2.253 . S
C679 C523 2.230 . S
C673 C169 2.337 . S
C699 C607 2.242 . S
C693 C205 2.348 . S
C719 C354 2.329 1_565 S
C713 C97 2.175 . S
C733 C133 2.299 . S
C739 C438 2.343 . S
C753 C25 2.309 . S
C759 C512 2.259 . S
C773 C61 2.279 . S
C779 C596 2.226 . S
C799 C351 0.650 1_455 S
C793 C211 0.624 . S
C819 C435 0.580 1_545 S
C813 C247 0.585 . S
C839 C528 0.544 . S
C833 C253 0.584 . S
C853 C175 0.643 . S
C859 C612 0.584 . S
C873 C67 0.658 1_556 S
C879 C360 0.629 . S
C899 C444 0.558 . S
C893 C103 0.671 1_556 S
C919 C519 0.574 . S
C913 C109 0.576 1_556 S
C933 C31 0.684 1_556 S
C939 C603 0.582 . S
C953 C181 2.774 . S
C959 C344 2.886 . S
C973 C217 2.744 . S
C979 C428 2.840 . S
C999 C522 2.916 . S
C993 C283 2.519 . S
C1019 C606 2.936 . S
C1013 C145 2.659 . S
C1033 C37 2.745 . S
C1039 C355 2.891 . S
C1059 C439 2.849 . S
C1053 C73 2.710 . S
C1079 C531 2.920 . S
C1073 C139 2.579 . S
C1093 C1 2.609 . S
C1099 C615 2.941 . S
