# Generated by pormake.
# Topology zzz, (3,6)-cn, num edge types: 1
# Building blocks:
#     Node 0, Type 0, BuildingBlock: BELTOD_clean_linker_0, # of connection points: 3
#     Node 1, Type 0, BuildingBlock: BELTOD_clean_linker_0, # of connection points: 3
#     Node 2, Type 0, BuildingBlock: BELTOD_clean_linker_0, # of connection points: 3
#     Node 3, Type 0, BuildingBlock: BELTOD_clean_linker_0, # of connection points: 3
#     Node 4, Type 0, BuildingBlock: BELTOD_clean_linker_0, # of connection points: 3
#     Node 5, Type 0, BuildingBlock: BELTOD_clean_linker_0, # of connection points: 3
#     Node 6, Type 0, BuildingBlock: BELTOD_clean_linker_0, # of connection points: 3
#     Node 7, Type 0, BuildingBlock: BELTOD_clean_linker_0, # of connection points: 3
#     Node 8, Type 1, BuildingBlock: LEVNOQ01_clean_sbu_1, # of connection points: 6
#     Node 9, Type 1, BuildingBlock: LEVNOQ01_clean_sbu_1, # of connection points: 6
#     Node 10, Type 1, BuildingBlock: LEVNOQ01_clean_sbu_1, # of connection points: 6
#     Node 11, Type 1, BuildingBlock: LEVNOQ01_clean_sbu_1, # of connection points: 6
#     Edge 12, Type (0, 1), BuildingBlock: ZUJKAS_clean_linker_0, # of connection points: 2
#     Edge 13, Type (0, 1), BuildingBlock: ZUJKAS_clean_linker_0, # of connection points: 2
#     Edge 14, Type (0, 1), BuildingBlock: ZUJKAS_clean_linker_0, # of connection points: 2
#     Edge 15, Type (0, 1), BuildingBlock: ZUJKAS_clean_linker_0, # of connection points: 2
#     Edge 16, Type (0, 1), BuildingBlock: ZUJKAS_clean_linker_0, # of connection points: 2
#     Edge 17, Type (0, 1), BuildingBlock: ZUJKAS_clean_linker_0, # of connection points: 2
#     Edge 18, Type (0, 1), BuildingBlock: ZUJKAS_clean_linker_0, # of connection points: 2
#     Edge 19, Type (0, 1), BuildingBlock: ZUJKAS_clean_linker_0, # of connection points: 2
#     Edge 20, Type (0, 1), BuildingBlock: ZUJKAS_clean_linker_0, # of connection points: 2
#     Edge 21, Type (0, 1), BuildingBlock: ZUJKAS_clean_linker_0, # of connection points: 2
#     Edge 22, Type (0, 1), BuildingBlock: ZUJKAS_clean_linker_0, # of connection points: 2
#     Edge 23, Type (0, 1), BuildingBlock: ZUJKAS_clean_linker_0, # of connection points: 2
#     Edge 24, Type (0, 1), BuildingBlock: ZUJKAS_clean_linker_0, # of connection points: 2
#     Edge 25, Type (0, 1), BuildingBlock: ZUJKAS_clean_linker_0, # of connection points: 2
#     Edge 26, Type (0, 1), BuildingBlock: ZUJKAS_clean_linker_0, # of connection points: 2
#     Edge 27, Type (0, 1), BuildingBlock: ZUJKAS_clean_linker_0, # of connection points: 2
#     Edge 28, Type (0, 1), BuildingBlock: ZUJKAS_clean_linker_0, # of connection points: 2
#     Edge 29, Type (0, 1), BuildingBlock: ZUJKAS_clean_linker_0, # of connection points: 2
#     Edge 30, Type (0, 1), BuildingBlock: ZUJKAS_clean_linker_0, # of connection points: 2
#     Edge 31, Type (0, 1), BuildingBlock: ZUJKAS_clean_linker_0, # of connection points: 2
#     Edge 32, Type (0, 1), BuildingBlock: ZUJKAS_clean_linker_0, # of connection points: 2
#     Edge 33, Type (0, 1), BuildingBlock: ZUJKAS_clean_linker_0, # of connection points: 2
#     Edge 34, Type (0, 1), BuildingBlock: ZUJKAS_clean_linker_0, # of connection points: 2
#     Edge 35, Type (0, 1), BuildingBlock: ZUJKAS_clean_linker_0, # of connection points: 2
# Relax obj value: 0.282
# Max RMSD: 0.213
# Mean RMSD: 0.196
data_MOF--net-zzz--node1-LEVNOQ01_clean_sbu_1--node2-BELTOD_clean_linker_0--edge1-ZUJKAS_clean_linker_0
_symmetry_space_group_name_H-M    P1
_symmetry_Int_Tables_number       1
_symmetry_cell_setting            triclinic
loop_
_symmetry_equiv_pos_as_xyz
'x, y, z'
_cell_length_a     64.770117
_cell_length_b     68.446115
_cell_length_c     24.509213
_cell_angle_alpha  89.933094
_cell_angle_beta   89.991478
_cell_angle_gamma 88.351667
loop_
_atom_site_label
_atom_site_type_symbol
_atom_site_fract_x
_atom_site_fract_y
_atom_site_fract_z
_atom_type_partial_charge
P0 P 0.76796 0.58076 0.14435 0.0
H1 H 0.77453 0.55064 0.22638 0.0
H2 H 0.79727 0.54942 0.30553 0.0
H3 H 0.80456 0.61182 0.29452 0.0
H4 H 0.781 0.61304 0.21614 0.0
H5 H 0.73905 0.55022 0.12053 0.0
H6 H 0.70396 0.55137 0.08693 0.0
H7 H 0.70028 0.61372 0.11566 0.0
H8 H 0.73624 0.61246 0.14767 0.0
H9 H 0.80835 0.59847 0.14788 0.0
H10 H 0.7552 0.59974 0.0416 0.0
O11 O 0.77681 0.55933 0.12004 0.0
H12 H 0.82842 0.61384 0.07836 0.0
H13 H 0.77574 0.61479 0.97027 0.0
C14 C 0.77678 0.5818 0.21408 0.0
C15 C 0.78041 0.56418 0.24204 0.0
C16 C 0.7936 0.56348 0.28703 0.0
C17 C 0.80339 0.5804 0.30483 0.0
C18 C 0.79748 0.59848 0.28132 0.0
C19 C 0.78402 0.59919 0.23645 0.0
C20 C 0.74035 0.58131 0.1359 0.0
C21 C 0.73064 0.56412 0.1208 0.0
C22 C 0.71037 0.56479 0.1018 0.0
C23 C 0.6992 0.58269 0.09805 0.0
C24 C 0.70852 0.59974 0.11711 0.0
C25 C 0.72897 0.59903 0.13604 0.0
C26 C 0.77994 0.59849 0.10119 0.0
C27 C 0.80051 0.60318 0.111 0.0
C28 C 0.81211 0.61204 0.07067 0.0
C29 C 0.80366 0.61566 0.01867 0.0
C30 C 0.78259 0.61236 0.01011 0.0
C31 C 0.77084 0.60375 0.05106 0.0
P32 P 0.03635 0.75981 0.16534 0.0
H33 H 0.05202 0.77083 0.27246 0.0
H34 H 0.03797 0.7924 0.34318 0.0
H35 H 0.98006 0.79706 0.25593 0.0
H36 H 0.9943 0.77552 0.18501 0.0
H37 H 0.05553 0.72899 0.10197 0.0
H38 H 0.04295 0.69827 0.06777 0.0
H39 H 0.98794 0.70571 0.16649 0.0
H40 H 0.00062 0.7369 0.1998 0.0
H41 H 0.05456 0.79293 0.11037 0.0
H42 H 0.00098 0.75753 0.0912 0.0
O43 O 0.06198 0.76025 0.17201 0.0
H44 H 0.04143 0.81504 0.03945 0.0
H45 H 0.98773 0.77968 0.02046 0.0
C46 C 0.02433 0.77175 0.2231 0.0
C47 C 0.03616 0.77613 0.26904 0.0
C48 C 0.02805 0.78844 0.30964 0.0
C49 C 0.00793 0.79659 0.30496 0.0
C50 C 0.9957 0.79124 0.26032 0.0
C51 C 0.00382 0.77885 0.21986 0.0
C52 C 0.02917 0.73504 0.15399 0.0
C53 C 0.04108 0.72371 0.11766 0.0
C54 C 0.03382 0.7061 0.09812 0.0
C55 C 0.01441 0.69948 0.11441 0.0
C56 C 0.00288 0.71049 0.15284 0.0
C57 C 0.0102 0.72821 0.17238 0.0
C58 C 0.02886 0.77353 0.10573 0.0
C59 C 0.04029 0.78959 0.08979 0.0
C60 C 0.03281 0.80215 0.04904 0.0
C61 C 0.01359 0.79899 0.02435 0.0
C62 C 0.00259 0.78239 0.03877 0.0
C63 C 0.01021 0.76973 0.07912 0.0
P64 P 0.73948 0.9344 0.15844 0.0
H65 H 0.73427 0.95952 0.25368 0.0
H66 H 0.70958 0.95701 0.32844 0.0
H67 H 0.70084 0.89643 0.28897 0.0
H68 H 0.72566 0.89893 0.21382 0.0
H69 H 0.77221 0.9605 0.12852 0.0
H70 H 0.80634 0.95479 0.09037 0.0
H71 H 0.80066 0.89265 0.11447 0.0
H72 H 0.76604 0.89856 0.15393 0.0
H73 H 0.69533 0.93444 0.15442 0.0
H74 H 0.74545 0.90625 0.06571 0.0
O75 O 0.73412 0.95802 0.14623 0.0
H76 H 0.67061 0.9182 0.09758 0.0
H77 H 0.72053 0.8893 0.00917 0.0
C78 C 0.73141 0.92956 0.22737 0.0
C79 C 0.72784 0.94543 0.26249 0.0
C80 C 0.71363 0.94403 0.30503 0.0
C81 C 0.70308 0.92665 0.31345 0.0
C82 C 0.7088 0.90998 0.28311 0.0
C83 C 0.72305 0.9114 0.24035 0.0
C84 C 0.76642 0.92991 0.14331 0.0
C85 C 0.77835 0.94564 0.12699 0.0
C86 C 0.79801 0.94237 0.10528 0.0
C87 C 0.80616 0.92326 0.09914 0.0
C88 C 0.79467 0.90752 0.1184 0.0
C89 C 0.775 0.91087 0.14114 0.0
C90 C 0.72223 0.92136 0.11511 0.0
C91 C 0.70103 0.9244 0.12334 0.0
C92 C 0.68687 0.91481 0.09124 0.0
C93 C 0.69358 0.90196 0.04972 0.0
C94 C 0.71491 0.89888 0.04138 0.0
C95 C 0.72918 0.90857 0.07382 0.0
P96 P 0.45499 0.74789 0.1664 0.0
H97 H 0.43902 0.73848 0.27465 0.0
H98 H 0.45172 0.71598 0.34531 0.0
H99 H 0.50847 0.70676 0.25501 0.0
H100 H 0.49594 0.72971 0.1855 0.0
H101 H 0.43736 0.77921 0.10195 0.0
H102 H 0.45135 0.80938 0.06804 0.0
H103 H 0.50516 0.80044 0.17057 0.0
H104 H 0.49113 0.76968 0.2032 0.0
H105 H 0.43765 0.71383 0.11436 0.0
H106 H 0.48966 0.7509 0.09001 0.0
O107 O 0.4293 0.74805 0.17198 0.0
H108 H 0.4513 0.69146 0.04477 0.0
H109 H 0.50332 0.7286 0.0205 0.0
C110 C 0.46636 0.73549 0.22434 0.0
C111 C 0.45438 0.73198 0.27068 0.0
C112 C 0.4616 0.71899 0.31085 0.0
C113 C 0.48093 0.70926 0.3052 0.0
C114 C 0.49354 0.714 0.26069 0.0
C115 C 0.48632 0.72707 0.22068 0.0
C116 C 0.46302 0.77244 0.15576 0.0
C117 C 0.45185 0.78406 0.11852 0.0
C118 C 0.45993 0.80136 0.09911 0.0
C119 C 0.47942 0.80742 0.11661 0.0
C120 C 0.49021 0.79611 0.15591 0.0
C121 C 0.48209 0.77867 0.17519 0.0
C122 C 0.46248 0.73411 0.10698 0.0
C123 C 0.45162 0.71749 0.09282 0.0
C124 C 0.45941 0.70478 0.05287 0.0
C125 C 0.47835 0.70838 0.02719 0.0
C126 C 0.48869 0.72553 0.03966 0.0
C127 C 0.48081 0.73831 0.07928 0.0
P128 P 0.24635 0.37432 0.26432 0.0
H129 H 0.23253 0.36551 0.15327 0.0
H130 H 0.20607 0.38079 0.0955 0.0
H131 H 0.20064 0.42919 0.20827 0.0
H132 H 0.22641 0.41328 0.26707 0.0
H133 H 0.28138 0.35628 0.31999 0.0
H134 H 0.31087 0.36954 0.36774 0.0
H135 H 0.29316 0.42746 0.31138 0.0
H136 H 0.26361 0.41402 0.26363 0.0
H137 H 0.20785 0.35434 0.27878 0.0
H138 H 0.24552 0.39301 0.37256 0.0
O139 O 0.25094 0.35171 0.24098 0.0
H140 H 0.17906 0.36064 0.34153 0.0
H141 H 0.21695 0.39938 0.4347 0.0
C142 C 0.23187 0.3884 0.21408 0.0
C143 C 0.22609 0.37967 0.16488 0.0
C144 C 0.21084 0.38847 0.13176 0.0
C145 C 0.20099 0.40624 0.14716 0.0
C146 C 0.20756 0.41538 0.19534 0.0
C147 C 0.2227 0.40648 0.22857 0.0
C148 C 0.2704 0.38408 0.28759 0.0
C149 C 0.28416 0.37176 0.31657 0.0
C150 C 0.30103 0.37938 0.34401 0.0
C151 C 0.30438 0.39959 0.34358 0.0
C152 C 0.2909 0.41185 0.31302 0.0
C153 C 0.27405 0.40416 0.28527 0.0
C154 C 0.22883 0.37315 0.32091 0.0
C155 C 0.21021 0.36353 0.31405 0.0
C156 C 0.19375 0.36725 0.34963 0.0
C157 C 0.19572 0.38069 0.39249 0.0
C158 C 0.21502 0.38885 0.40228 0.0
C159 C 0.23142 0.38521 0.36648 0.0
P160 P 0.04533 0.24751 0.2621 0.0
H161 H 0.05487 0.24121 0.14711 0.0
H162 H 0.04217 0.21771 0.08117 0.0
H163 H 0.99418 0.2019 0.19406 0.0
H164 H 0.00701 0.2254 0.25991 0.0
H165 H 0.06838 0.28136 0.29188 0.0
H166 H 0.05751 0.31273 0.3295 0.0
H167 H 0.99389 0.30018 0.29421 0.0
H168 H 0.00508 0.26854 0.25529 0.0
H169 H 0.0653 0.21304 0.30948 0.0
H170 H 0.01514 0.25305 0.35181 0.0
O171 O 0.0706 0.24634 0.24859 0.0
H172 H 0.05545 0.19154 0.38367 0.0
H173 H 0.0053 0.23167 0.42614 0.0
C174 C 0.03219 0.23475 0.20881 0.0
C175 C 0.0413 0.23304 0.15716 0.0
C176 C 0.03399 0.2196 0.11943 0.0
C177 C 0.0174 0.20767 0.13282 0.0
C178 C 0.00726 0.21059 0.18304 0.0
C179 C 0.01454 0.22411 0.22061 0.0
C180 C 0.03755 0.27269 0.27058 0.0
C181 C 0.05217 0.28564 0.2899 0.0
C182 C 0.04591 0.30364 0.3115 0.0
C183 C 0.02483 0.30888 0.31506 0.0
C184 C 0.01024 0.29646 0.29208 0.0
C185 C 0.01661 0.2785 0.26947 0.0
C186 C 0.04111 0.23472 0.32509 0.0
C187 C 0.05263 0.21755 0.33587 0.0
C188 C 0.04702 0.20532 0.37856 0.0
C189 C 0.02959 0.20995 0.41077 0.0
C190 C 0.01877 0.22773 0.40188 0.0
C191 C 0.02447 0.24001 0.3593 0.0
P192 P 0.25853 0.12763 0.27243 0.0
H193 H 0.26712 0.13482 0.15652 0.0
H194 H 0.29266 0.12034 0.09375 0.0
H195 H 0.30915 0.07678 0.21487 0.0
H196 H 0.28346 0.09114 0.27712 0.0
H197 H 0.22354 0.14471 0.32956 0.0
H198 H 0.19375 0.13064 0.37411 0.0
H199 H 0.21106 0.07398 0.30833 0.0
H200 H 0.24092 0.08831 0.26323 0.0
H201 H 0.2918 0.15291 0.30648 0.0
H202 H 0.26091 0.10259 0.36908 0.0
O203 O 0.25426 0.15052 0.25077 0.0
H204 H 0.31802 0.14912 0.37782 0.0
H205 H 0.28717 0.0982 0.4382 0.0
C206 C 0.27345 0.1142 0.22178 0.0
C207 C 0.27588 0.12189 0.16917 0.0
C208 C 0.29053 0.11362 0.1333 0.0
C209 C 0.30316 0.09759 0.14966 0.0
C210 C 0.29992 0.08933 0.20142 0.0
C211 C 0.28511 0.09746 0.23693 0.0
C212 C 0.23421 0.11765 0.29223 0.0
C213 C 0.22061 0.12937 0.32334 0.0
C214 C 0.20373 0.12125 0.34944 0.0
C215 C 0.20015 0.10116 0.34521 0.0
C216 C 0.21332 0.08954 0.31202 0.0
C217 C 0.23034 0.09772 0.28602 0.0
C218 C 0.27434 0.12813 0.33261 0.0
C219 C 0.29032 0.1414 0.33646 0.0
C220 C 0.30537 0.13912 0.37702 0.0
C221 C 0.30488 0.12323 0.41351 0.0
C222 C 0.28797 0.11081 0.41163 0.0
C223 C 0.27289 0.11324 0.37157 0.0
P224 P 0.46923 0.25912 0.26576 0.0
H225 H 0.46545 0.25472 0.14813 0.0
H226 H 0.47531 0.27592 0.07237 0.0
H227 H 0.50893 0.31173 0.18478 0.0
H228 H 0.49933 0.29063 0.25944 0.0
H229 H 0.4436 0.22725 0.2977 0.0
H230 H 0.45228 0.19489 0.33232 0.0
H231 H 0.51603 0.20211 0.28638 0.0
H232 H 0.507 0.23478 0.25036 0.0
H233 H 0.44831 0.28725 0.33775 0.0
H234 H 0.50696 0.25578 0.33214 0.0
O235 O 0.44381 0.26262 0.25741 0.0
H236 H 0.46048 0.30641 0.41405 0.0
H237 H 0.51913 0.27472 0.40927 0.0
C238 C 0.48156 0.27104 0.20949 0.0
C239 C 0.47548 0.26679 0.15607 0.0
C240 C 0.48097 0.27901 0.11295 0.0
C241 C 0.49269 0.29564 0.12272 0.0
C242 C 0.50003 0.29897 0.17574 0.0
C243 C 0.49446 0.28683 0.21874 0.0
C244 C 0.47464 0.23337 0.27138 0.0
C245 C 0.45928 0.22161 0.29272 0.0
C246 C 0.46429 0.20303 0.3126 0.0
C247 C 0.48487 0.19599 0.31236 0.0
C248 C 0.50005 0.20724 0.28729 0.0
C249 C 0.4949 0.22581 0.26649 0.0
C250 C 0.47665 0.27001 0.32929 0.0
C251 C 0.46355 0.28398 0.35404 0.0
C252 C 0.4705 0.29483 0.39812 0.0
C253 C 0.49078 0.29202 0.41783 0.0
C254 C 0.50345 0.27718 0.39498 0.0
C255 C 0.49643 0.26628 0.35095 0.0
O256 O 0.03513 0.98187 0.81744 0.0
Mg257 Mg 0.03499 0.9829 0.73222 0.0
O258 O 0.00264 0.98508 0.79474 0.0
Mg259 Mg 0.99763 0.00288 0.71448 0.0
O260 O 0.03294 0.00923 0.69098 0.0
O261 O 0.0624 0.99163 0.70576 0.0
O262 O 0.99021 0.02152 0.63642 0.0
O263 O 0.9972 0.03128 0.76686 0.0
Mg264 Mg 0.95215 0.02277 0.708 0.0
O265 O 0.96376 -0.00313 0.73581 0.0
O266 O 0.95657 0.02529 0.6234 0.0
O267 O 0.96563 0.04468 0.75734 0.0
O268 O 0.9302 0.0044 0.73929 0.0
C269 C 0.00794 0.9592 0.66136 0.0
C270 C 0.01641 0.97997 0.82943 0.0
C271 C 0.05302 0.00694 0.68603 0.0
C272 C 0.97492 0.02749 0.60717 0.0
C273 C 0.98387 0.045 0.77669 0.0
C274 C 0.94522 0.99221 0.74971 0.0
O275 O 0.02427 0.95812 0.68981 0.0
O276 O 0.9967 0.97479 0.66149 0.0
O277 O 0.44716 -0.00049 0.761 0.0
Mg278 Mg 0.46057 0.97789 0.70743 0.0
O279 O 0.47554 0.01448 0.78786 0.0
Mg280 Mg 0.4997 0.00231 0.72409 0.0
O281 O 0.48858 0.97087 0.7386 0.0
O282 O 0.46395 0.94907 0.73087 0.0
O283 O 0.52262 0.98952 0.65851 0.0
O284 O 0.52282 0.99261 0.78995 0.0
Mg285 Mg 0.54089 0.02382 0.73052 0.0
O286 O 0.51143 0.03418 0.71494 0.0
O287 O 0.5509 0.00713 0.66201 0.0
O288 O 0.54798 0.01231 0.80841 0.0
O289 O 0.53879 0.05325 0.72275 0.0
C290 C 0.46619 0.00256 0.61877 0.0
C291 C 0.45599 0.01207 0.79069 0.0
C292 C 0.4823 0.95326 0.74666 0.0
C293 C 0.54061 0.99352 0.64105 0.0
C294 C 0.53863 -0.00326 0.81785 0.0
C295 C 0.51947 0.05139 0.71153 0.0
O296 O 0.46279 0.98461 0.62445 0.0
O297 O 0.4768 0.01138 0.65444 0.0
O298 O 0.52891 0.46247 0.74374 0.0
Mg299 Mg 0.53677 0.48729 0.6972 0.0
O300 O 0.49951 0.4764 0.77105 0.0
Mg301 Mg 0.49857 0.50423 0.71643 0.0
O302 O 0.5332 0.51294 0.73851 0.0
O303 O 0.56378 0.49788 0.72136 0.0
O304 O 0.49844 0.53179 0.66072 0.0
O305 O 0.49469 0.5225 0.79528 0.0
Mg306 Mg 0.46072 0.52433 0.73331 0.0
O307 O 0.46331 0.49696 0.69744 0.0
O308 O 0.4697 0.54781 0.68308 0.0
O309 O 0.46252 0.5281 0.81818 0.0
O310 O 0.43345 0.51377 0.71154 0.0
C311 C 0.51697 0.48127 0.60283 0.0
C312 C 0.51271 0.46221 0.77275 0.0
C313 C 0.55331 0.51223 0.74281 0.0
C314 C 0.48633 0.54671 0.65591 0.0
C315 C 0.48144 0.52889 0.82961 0.0
C316 C 0.44317 0.4984 0.69336 0.0
O317 O 0.53489 0.48705 0.61205 0.0
O318 O 0.50299 0.4847 0.63842 0.0
O319 O 0.951 0.48622 0.80994 0.0
Mg320 Mg 0.95923 0.47653 0.7323 0.0
O321 O 0.97446 0.50884 0.80348 0.0
Mg322 Mg 0.99925 0.50057 0.73674 0.0
O323 O 0.98933 0.46832 0.72302 0.0
O324 O 0.96346 0.4473 0.7225 0.0
O325 O 0.02356 0.4915 0.67057 0.0
O326 O 0.02254 0.48887 0.80375 0.0
Mg327 Mg 0.03683 0.52334 0.72073 0.0
O328 O 0.00877 0.53293 0.74961 0.0
O329 O 0.03979 0.51652 0.6376 0.0
O330 O 0.0511 0.50335 0.77675 0.0
O331 O 0.03579 0.55223 0.73908 0.0
C332 C 0.95964 0.50859 0.6478 0.0
C333 C 0.95847 0.502 0.82638 0.0
C334 C 0.98284 0.45063 0.71622 0.0
C335 C 0.0358 0.49862 0.63557 0.0
C336 C 0.04204 0.49127 0.80734 0.0
C337 C 0.01682 0.55008 0.7536 0.0
O338 O 0.94978 0.494 0.66472 0.0
O339 O 0.97693 0.51303 0.66895 0.0
H340 H 0.17216 0.07408 0.31288 0.0
H341 H 0.14453 0.06001 0.36764 0.0
H342 H 0.16332 0.09382 0.50647 0.0
H343 H 0.19071 0.108 0.45209 0.0
H344 H 0.1469 0.03822 0.46025 0.0
H345 H 0.10197 0.10661 0.50223 0.0
H346 H 0.12201 0.10514 0.45107 0.0
H347 H 0.12855 0.10803 0.52193 0.0
C348 C 0.17034 0.07852 0.35505 0.0
C349 C 0.18343 0.09235 0.37791 0.0
C350 C 0.15452 0.07054 0.38623 0.0
C351 C 0.15151 0.07623 0.44081 0.0
C352 C 0.16487 0.08969 0.46399 0.0
H353 H 0.09361 0.01424 0.70039 0.0
H354 H 0.11617 0.03206 0.63931 0.0
C355 C 0.18057 0.09775 0.43285 0.0
C356 C 0.13502 0.06748 0.47438 0.0
H357 H 0.09388 0.07886 0.55718 0.0
C358 C 0.1352 0.0471 0.48096 0.0
C359 C 0.11957 0.07904 0.50101 0.0
C360 C 0.11784 0.1009 0.49332 0.0
C361 C 0.12084 0.03806 0.51489 0.0
C362 C 0.10607 0.04971 0.54359 0.0
C363 C 0.10537 0.07 0.53556 0.0
C364 C 0.0918 0.04098 0.58354 0.0
C365 C 0.12164 0.01607 0.51996 0.0
C366 C 0.07042 0.04092 0.57392 0.0
C367 C 0.05742 0.03084 0.60929 0.0
C368 C 0.06558 0.02073 0.65455 0.0
C369 C 0.08684 0.02178 0.66556 0.0
C370 C 0.09978 0.03187 0.63057 0.0
H371 H 0.13032 0.00907 0.48573 0.0
H372 H 0.12954 0.01188 0.55859 0.0
H373 H 0.10583 0.01021 0.52104 0.0
H374 H 0.06393 0.04794 0.5379 0.0
H375 H 0.04126 0.02993 0.59968 0.0
H376 H 0.5163 0.19208 0.38586 0.0
H377 H 0.52037 0.16678 0.45597 0.0
H378 H 0.4692 0.1362 0.3874 0.0
H379 H 0.46538 0.16114 0.3164 0.0
H380 H 0.48857 0.15967 0.53055 0.0
H381 H 0.51149 0.09216 0.41816 0.0
H382 H 0.51397 0.11627 0.38935 0.0
H383 H 0.4893 0.10489 0.39013 0.0
C384 C 0.50644 0.17957 0.38444 0.0
C385 C 0.49049 0.17858 0.34571 0.0
C386 C 0.50864 0.16526 0.42488 0.0
C387 C 0.49507 0.14966 0.42685 0.0
C388 C 0.47998 0.148 0.38622 0.0
H389 H 0.48428 0.0516 0.64899 0.0
H390 H 0.4735 0.07764 0.58535 0.0
C391 C 0.47776 0.16229 0.34584 0.0
C392 C 0.49529 0.13622 0.47415 0.0
H393 H 0.50064 0.08821 0.50972 0.0
C394 C 0.49126 0.14403 0.52614 0.0
C395 C 0.49859 0.11586 0.46808 0.0
C396 C 0.50377 0.10677 0.41351 0.0
C397 C 0.4903 0.13197 0.57236 0.0
C398 C 0.49376 0.11157 0.56641 0.0
C399 C 0.49762 0.10379 0.51422 0.0
C400 C 0.49593 0.09817 0.61378 0.0
C401 C 0.48545 0.14124 0.62687 0.0
C402 C 0.51123 0.10149 0.65284 0.0
C403 C 0.51719 0.08678 0.68933 0.0
C404 C 0.50828 0.0683 0.68678 0.0
C405 C 0.4915 0.06562 0.65157 0.0
C406 C 0.48543 0.08047 0.61506 0.0
H407 H 0.47571 0.15476 0.62191 0.0
H408 H 0.47737 0.13107 0.65437 0.0
H409 H 0.50007 0.14545 0.64665 0.0
H410 H 0.51983 0.11482 0.65227 0.0
H411 H 0.53004 0.08937 0.71644 0.0
H412 H 0.30224 0.4323 0.4076 0.0
H413 H 0.32884 0.44481 0.46801 0.0
H414 H 0.37046 0.39767 0.41978 0.0
H415 H 0.34407 0.38527 0.35822 0.0
H416 H 0.34822 0.42372 0.55641 0.0
H417 H 0.40515 0.44721 0.40111 0.0
H418 H 0.37853 0.44286 0.38429 0.0
H419 H 0.39627 0.42263 0.39552 0.0
C420 C 0.31718 0.42479 0.40896 0.0
C421 C 0.32105 0.40784 0.37774 0.0
C422 C 0.33231 0.43187 0.4439 0.0
C423 C 0.35169 0.42226 0.44808 0.0
C424 C 0.35572 0.40545 0.41667 0.0
H425 H 0.45651 0.46362 0.64573 0.0
H426 H 0.43591 0.44176 0.58881 0.0
C427 C 0.34055 0.39831 0.38182 0.0
C428 C 0.36733 0.42959 0.48677 0.0
H429 H 0.41383 0.45186 0.49337 0.0
C430 C 0.36264 0.42973 0.54267 0.0
C431 C 0.38627 0.43718 0.46887 0.0
C432 C 0.39192 0.43764 0.40918 0.0
C433 C 0.3761 0.43774 0.581 0.0
C434 C 0.39457 0.44623 0.56288 0.0
C435 C 0.39971 0.44531 0.50725 0.0
C436 C 0.40721 0.45832 0.59971 0.0
C437 C 0.37022 0.43727 0.64055 0.0
C438 C 0.398 0.47482 0.62442 0.0
C439 C 0.40965 0.48724 0.65622 0.0
C440 C 0.43099 0.48367 0.66383 0.0
C441 C 0.44022 0.46689 0.64005 0.0
C442 C 0.42844 0.45439 0.60777 0.0
H443 H 0.36027 0.42472 0.64966 0.0
H444 H 0.38407 0.4363 0.6672 0.0
H445 H 0.36129 0.45086 0.65083 0.0
H446 H 0.3818 0.47846 0.61787 0.0
H447 H 0.4019 0.5 0.67362 0.0
H448 H 0.99534 0.30963 0.39437 0.0
H449 H 0.99033 0.33446 0.46534 0.0
H450 H 0.03594 0.36997 0.38831 0.0
H451 H 0.0407 0.34542 0.31661 0.0
H452 H 0.02353 0.34542 0.53439 0.0
H453 H 0.98863 0.40919 0.4244 0.0
H454 H 0.98831 0.38466 0.39749 0.0
H455 H 0.01132 0.39861 0.39273 0.0
C456 C 0.00374 0.32305 0.39145 0.0
C457 C 0.01842 0.32562 0.34996 0.0
C458 C 0.00104 0.3371 0.43235 0.0
C459 C 0.01279 0.35399 0.43201 0.0
C460 C 0.02657 0.35711 0.38896 0.0
H461 H 0.01361 0.45477 0.64262 0.0
H462 H 0.0269 0.42959 0.58015 0.0
C463 C 0.02932 0.34307 0.34815 0.0
C464 C 0.01198 0.36757 0.47886 0.0
H465 H 1.00047 0.41473 0.51402 0.0
C466 C 0.01847 0.3606 0.53015 0.0
C467 C 0.00558 0.38733 0.47288 0.0
C468 C 0.99789 0.39541 0.41905 0.0
C469 C 0.0189 0.37297 0.57575 0.0
C470 C 0.01227 0.39275 0.56997 0.0
C471 C 0.00588 0.39967 0.51843 0.0
C472 C 0.00984 0.40623 0.61708 0.0
C473 C 0.0267 0.36472 0.62927 0.0
C474 C 0.99699 0.40127 0.66077 0.0
C475 C 0.99024 0.41551 0.69785 0.0
C476 C 0.9958 0.43506 0.69117 0.0
C477 C 0.00992 0.43972 0.65019 0.0
C478 C 0.01709 0.42537 0.61373 0.0
H479 H 0.03815 0.35255 0.62257 0.0
H480 H 0.03395 0.37606 0.65466 0.0
H481 H 0.01356 0.35868 0.65224 0.0
H482 H 0.99071 0.38682 0.66367 0.0
H483 H 0.97912 0.41157 0.72874 0.0
H484 H 0.8422 0.94253 0.11053 0.0
H485 H 0.87111 0.94263 0.04641 0.0
H486 H 0.84293 0.89742 0.95212 0.0
H487 H 0.81369 0.89746 0.01585 0.0
H488 H 0.89971 0.91268 0.00154 0.0
H489 H 0.84531 0.94577 0.84857 0.0
H490 H 0.83885 0.9445 0.92007 0.0
H491 H 0.83874 0.92284 0.87896 0.0
C492 C 0.84236 0.93233 0.07675 0.0
C493 C 0.8256 0.92013 0.06788 0.0
C494 C 0.85892 0.93235 0.04028 0.0
C495 C 0.85899 0.92023 0.99417 0.0
C496 C 0.84304 0.90701 0.98724 0.0
H497 H 0.93402 0.95618 0.71546 0.0
H498 H 0.91641 0.93185 0.77151 0.0
C499 C 0.82645 0.90693 0.02392 0.0
C500 C 0.8746 0.92323 0.95098 0.0
H501 H 0.8805 0.94607 0.82836 0.0
C502 C 0.89553 0.9196 0.9631 0.0
C503 C 0.86908 0.93214 0.90073 0.0
C504 C 0.84681 0.93668 0.88603 0.0
C505 C 0.91113 0.92559 0.92748 0.0
C506 C 0.90564 0.93583 0.87924 0.0
C507 C 0.8847 0.9382 0.86535 0.0
C508 C 0.92073 0.94719 0.84762 0.0
C509 C 0.93333 0.92144 0.9427 0.0
C510 C 0.92928 0.96367 0.87189 0.0
C511 C 0.93903 0.97757 0.83993 0.0
C512 C 0.9409 0.97504 0.78339 0.0
C513 C 0.93341 0.95805 0.75933 0.0
C514 C 0.92331 0.94422 0.79125 0.0
H515 H 0.93496 0.90812 0.9685 0.0
H516 H 0.94307 0.91942 0.90576 0.0
H517 H 0.93903 0.9339 0.96673 0.0
H518 H 0.92698 0.96657 0.91495 0.0
H519 H 0.94393 0.99095 0.85895 0.0
H520 H 0.46021 0.84183 0.08672 0.0
H521 H 0.47396 0.86742 0.02965 0.0
H522 H 0.53405 0.83851 0.0325 0.0
H523 H 0.51993 0.81192 0.08654 0.0
H524 H 0.50324 0.89312 0.0403 0.0
H525 H 0.52482 0.84207 0.87147 0.0
H526 H 0.51015 0.8343 0.92965 0.0
H527 H 0.53743 0.83795 0.93586 0.0
C528 C 0.47634 0.84082 0.07512 0.0
C529 C 0.48883 0.8246 0.09036 0.0
C530 C 0.48426 0.85559 0.04286 0.0
C531 C 0.50496 0.8547 0.0257 0.0
C532 C 0.51791 0.83926 0.04398 0.0
H533 H 0.51188 0.95998 0.82315 0.0
H534 H 0.5274 0.9365 0.8875 0.0
C535 C 0.50987 0.82422 0.07567 0.0
C536 C 0.51209 0.8696 0.98644 0.0
H537 H 0.52501 0.87541 0.85251 0.0
C538 C 0.50831 0.88934 -0.00064 0.0
C539 C 0.519 0.86457 0.93334 0.0
C540 C 0.523 0.8436 0.91636 0.0
C541 C 0.50886 0.90396 0.95931 0.0
C542 C 0.51441 0.89877 0.90509 0.0
C543 C 0.52055 0.87933 0.89382 0.0
C544 C 0.50998 0.91209 0.85822 0.0
C545 C 0.50159 0.92438 0.97485 0.0
C546 C 0.49667 0.90588 0.81683 0.0
C547 C 0.48896 0.91904 0.7779 0.0
C548 C 0.49414 0.9388 0.77988 0.0
C549 C 0.50835 0.94477 0.81922 0.0
C550 C 0.5167 0.93142 0.85713 0.0
H551 H 0.49428 0.92488 0.01585 0.0
H552 H 0.515 0.9341 0.97584 0.0
H553 H 0.4902 0.9303 0.94484 0.0
H554 H 0.4912 0.89107 0.81642 0.0
H555 H 0.478 0.91395 0.74811 0.0
H556 H 0.66846 0.55595 0.10201 0.0
H557 H 0.63902 0.55375 0.04082 0.0
H558 H 0.65335 0.60946 0.97001 0.0
H559 H 0.6838 0.61114 0.02852 0.0
H560 H 0.60432 0.57474 0.01781 0.0
H561 H 0.65691 0.57495 0.83797 0.0
H562 H 0.66658 0.57342 0.90679 0.0
H563 H 0.65692 0.59639 0.88002 0.0
C564 C 0.66541 0.56778 0.07348 0.0
C565 C 0.67887 0.58349 0.06943 0.0
C566 C 0.6484 0.56659 0.03882 0.0
C567 C 0.64426 0.58119 -0.00026 0.0
C568 C 0.65656 0.59775 -0.00123 0.0
H569 H 0.54013 0.54868 0.78115 0.0
H570 H 0.55975 0.57071 0.84044 0.0
C571 C 0.67382 0.59881 0.03295 0.0
C572 C 0.62819 0.57793 0.95765 0.0
H573 H 0.62252 0.56767 0.82225 0.0
C574 C 0.60818 0.57346 0.97487 0.0
C575 C 0.63321 0.57643 0.90152 0.0
C576 C 0.65458 0.5804 0.88027 0.0
C577 C 0.59359 0.56609 0.93838 0.0
C578 C 0.59899 0.56365 0.88279 0.0
C579 C 0.61841 0.56962 0.86485 0.0
C580 C 0.58681 0.5515 0.84511 0.0
C581 C 0.57298 0.56017 0.96055 0.0
C582 C 0.59575 0.53381 0.82696 0.0
C583 C 0.58487 0.52152 0.79303 0.0
C584 C 0.5646 0.52645 0.77643 0.0
C585 C 0.55563 0.54438 0.79374 0.0
C586 C 0.56675 0.55691 0.82768 0.0
H587 H 0.5737 0.55724 0.00512 0.0
H588 H 0.56169 0.57244 0.954 0.0
H589 H 0.56722 0.54697 0.93991 0.0
H590 H 0.61118 0.52931 0.83984 0.0
H591 H 0.59233 0.50785 0.78085 0.0
H592 H 0.03456 0.66525 0.08698 0.0
H593 H 0.02212 0.63965 0.02745 0.0
H594 H 0.96195 0.66827 0.02211 0.0
H595 H 0.97463 0.69462 0.07947 0.0
H596 H 0.99069 0.61366 0.0321 0.0
H597 H 0.97794 0.66681 0.86197 0.0
H598 H 0.99139 0.67329 0.92348 0.0
H599 H 0.96382 0.67115 0.92407 0.0
C600 C 0.01865 0.6661 0.07336 0.0
C601 C 0.00571 0.68216 0.08723 0.0
C602 C 0.0115 0.65136 0.03966 0.0
C603 C 0.99122 0.65226 0.01944 0.0
C604 C 0.97778 0.66752 0.03632 0.0
H605 H 0.97802 0.55103 0.80015 0.0
H606 H 0.96357 0.57702 0.85959 0.0
C607 C 0.98499 0.68242 0.06974 0.0
C608 C 0.98512 0.6379 0.97766 0.0
H609 H 0.9777 0.63362 0.84027 0.0
C610 C 0.98728 0.61795 0.99037 0.0
C611 C 0.98065 0.64362 0.92327 0.0
C612 C 0.9784 0.66486 0.90697 0.0
C613 C 0.98685 0.60365 0.94949 0.0
C614 C 0.98381 0.60948 0.8946 0.0
C615 C 0.9799 0.62927 0.88249 0.0
C616 C 0.98923 0.59601 0.84929 0.0
C617 C 0.99155 0.5826 0.96467 0.0
C618 C 0.00753 0.59901 0.8205 0.0
C619 C 0.01564 0.58453 0.78619 0.0
C620 C 0.00568 0.56666 0.7803 0.0
C621 C 0.98631 0.56442 0.80508 0.0
C622 C 0.97809 0.57911 0.83921 0.0
H623 H 0.99522 0.5808 0.0087 0.0
H624 H 0.97801 0.57365 0.95514 0.0
H625 H 0.00484 0.57676 0.94047 0.0
H626 H 0.01627 0.61205 0.82723 0.0
H627 H 0.03039 0.58696 0.76685 0.0
H628 H 0.05032 0.18581 0.48251 0.0
H629 H 0.03781 0.15493 0.51864 0.0
H630 H 0.97714 0.16865 0.45464 0.0
H631 H 0.98948 0.19933 0.41771 0.0
H632 H 0.98506 0.14519 0.57149 0.0
H633 H 0.02048 0.11744 0.37805 0.0
H634 H 0.03463 0.13434 0.41897 0.0
H635 H 0.01136 0.14249 0.38541 0.0
C636 C 0.03417 0.1825 0.4776 0.0
C637 C 0.02098 0.19478 0.44649 0.0
C638 C 0.02706 0.16495 0.49842 0.0
C639 C 0.00669 0.15957 0.48847 0.0
C640 C 0.99291 0.17269 0.4626 0.0
H641 H 0.94594 0.05087 0.55537 0.0
H642 H 0.95261 0.08291 0.51665 0.0
C643 C 1.0 0.19024 0.44174 0.0
C644 C 0.00092 0.13915 0.49609 0.0
H645 H 0.00596 0.09425 0.43648 0.0
C646 C 0.98947 0.13401 0.54204 0.0
C647 C 0.00679 0.12479 0.45725 0.0
C648 C 0.01893 0.12991 0.40688 0.0
C649 C 0.98412 0.11455 0.55089 0.0
C650 C 0.99 0.10014 0.51191 0.0
C651 C 0.00131 0.1054 0.46577 0.0
C652 C 0.98585 0.07931 0.52081 0.0
C653 C 0.97286 0.10946 0.60274 0.0
C654 C 0.00234 0.06605 0.53038 0.0
C655 C 0.99857 0.04758 0.55161 0.0
C656 C 0.97837 0.04233 0.56448 0.0
C657 C 0.96178 0.0546 0.54725 0.0
C658 C 0.96553 0.07303 0.52565 0.0
H659 H 0.97331 0.12142 0.6333 0.0
H660 H 0.95644 0.10681 0.59313 0.0
H661 H 0.97965 0.09594 0.62135 0.0
H662 H 0.01816 0.07051 0.52559 0.0
H663 H 0.01151 0.03814 0.56249 0.0
H664 H 0.30629 0.10669 0.51603 0.0
H665 H 0.33585 0.08865 0.55571 0.0
H666 H 0.37472 0.10851 0.42549 0.0
H667 H 0.34536 0.12575 0.38409 0.0
H668 H 0.35933 0.06068 0.46032 0.0
H669 H 0.4057 0.10909 0.59236 0.0
H670 H 0.37789 0.11189 0.58794 0.0
H671 H 0.39359 0.11878 0.53133 0.0
C672 C 0.32122 0.10758 0.49643 0.0
C673 C 0.32333 0.11742 0.44632 0.0
C674 C 0.33808 0.09739 0.51942 0.0
C675 C 0.3573 0.09734 0.49325 0.0
C676 C 0.35995 0.10862 0.44632 0.0
H677 H 0.47344 0.03595 0.56121 0.0
H678 H 0.44698 0.05841 0.52268 0.0
C679 C 0.34311 0.11858 0.42294 0.0
C680 C 0.37348 0.0829 0.50845 0.0
H681 H 0.41894 0.07718 0.57682 0.0
C682 C 0.37239 0.06417 0.48594 0.0
C683 C 0.39049 0.08782 0.54085 0.0
C684 C 0.39216 0.10797 0.56482 0.0
C685 C 0.38814 0.05009 0.49451 0.0
C686 C 0.40509 0.05478 0.52814 0.0
C687 C 0.40607 0.07362 0.55072 0.0
C688 C 0.42132 0.04012 0.54321 0.0
C689 C 0.38659 0.0306 0.46616 0.0
C690 C 0.41573 0.02224 0.56599 0.0
C691 C 0.43077 0.00922 0.58577 0.0
C692 C 0.45166 0.01417 0.58534 0.0
C693 C 0.45742 0.03182 0.56153 0.0
C694 C 0.44233 0.04464 0.53998 0.0
H695 H 0.37774 0.03206 0.42747 0.0
H696 H 0.40204 0.02402 0.4568 0.0
H697 H 0.37814 0.02044 0.49283 0.0
H698 H 0.39966 0.0187 0.57108 0.0
H699 H 0.42584 -0.00408 0.60532 0.0
H700 H 0.47311 0.30874 0.5087 0.0
H701 H 0.48192 0.34053 0.54652 0.0
H702 H 0.53658 0.34096 0.44631 0.0
H703 H 0.52781 0.30947 0.40765 0.0
H704 H 0.52732 0.36159 0.58188 0.0
H705 H 0.48393 0.38164 0.39211 0.0
H706 H 0.47892 0.35941 0.42891 0.0
H707 H 0.5024 0.36143 0.39094 0.0
C708 C 0.4874 0.31528 0.49627 0.0
C709 C 0.4995 0.30687 0.45434 0.0
C710 C 0.49247 0.33333 0.51814 0.0
C711 C 0.50971 0.34303 0.49844 0.0
C712 C 0.52323 0.33356 0.46188 0.0
H713 H 0.54717 0.46198 0.54441 0.0
H714 H 0.54546 0.4283 0.51286 0.0
C715 C 0.51818 0.31553 0.43996 0.0
C716 C 0.51088 0.36426 0.5059 0.0
H717 H 0.49596 0.40736 0.44557 0.0
C718 C 0.52059 0.37165 0.55215 0.0
C719 C 0.50187 0.37716 0.46696 0.0
C720 C 0.49111 0.36965 0.41686 0.0
C721 C 0.5215 0.39189 0.56046 0.0
C722 C 0.51263 0.40479 0.52116 0.0
C723 C 0.50285 0.39733 0.47514 0.0
C724 C 0.51277 0.4261 0.52854 0.0
C725 C 0.53154 0.39939 0.6116 0.0
C726 C 0.49458 0.43633 0.54333 0.0
C727 C 0.49543 0.45566 0.56105 0.0
C728 C 0.51452 0.46483 0.56464 0.0
C729 C 0.53223 0.45527 0.54298 0.0
C730 C 0.53137 0.43595 0.52543 0.0
H731 H 0.53461 0.38756 0.64188 0.0
H732 H 0.54647 0.40597 0.60086 0.0
H733 H 0.52162 0.41094 0.63088 0.0
H734 H 0.48 0.42896 0.54488 0.0
H735 H 0.48148 0.46281 0.5762 0.0
H736 H 0.19047 0.38821 0.50167 0.0
H737 H 0.1615 0.40644 0.54416 0.0
H738 H 0.13111 0.41094 0.38784 0.0
H739 H 0.15967 0.39269 0.34556 0.0
H740 H 0.1492 0.44402 0.51827 0.0
H741 H 0.08459 0.39398 0.48549 0.0
H742 H 0.11131 0.38612 0.47859 0.0
H743 H 0.09839 0.39908 0.42387 0.0
C744 C 0.17737 0.39276 0.47676 0.0
C745 C 0.17717 0.38882 0.4205 0.0
C746 C 0.16091 0.40318 0.50095 0.0
C747 C 0.14407 0.40979 0.46919 0.0
C748 C 0.14368 0.40551 0.41333 0.0
H749 H 0.05707 0.50608 0.5414 0.0
H750 H 0.08372 0.4848 0.49864 0.0
C751 C 0.16 0.39502 0.38926 0.0
C752 C 0.12759 0.4224 0.49323 0.0
H753 H 0.07535 0.42691 0.50915 0.0
C754 C 0.13306 0.44024 0.51661 0.0
C755 C 0.10658 0.41737 0.49109 0.0
C756 C 0.09986 0.39801 0.46889 0.0
C757 C 0.11798 0.45335 0.53723 0.0
C758 C 0.09697 0.44855 0.53345 0.0
C759 C 0.09151 0.43062 0.51087 0.0
C760 C 0.08046 0.46123 0.55669 0.0
C761 C 0.12459 0.47204 0.56382 0.0
C762 C 0.06974 0.45477 0.60251 0.0
C763 C 0.0547 0.46677 0.62671 0.0
C764 C 0.04974 0.48531 0.60485 0.0
C765 C 0.06031 0.4917 0.55835 0.0
C766 C 0.07558 0.47967 0.53426 0.0
H767 H 0.1415 0.47202 0.57153 0.0
H768 H 0.12053 0.48459 0.53678 0.0
H769 H 0.11636 0.47436 0.60315 0.0
H770 H 0.07349 0.44065 0.62062 0.0
H771 H 0.0477 0.46185 0.66422 0.0
H772 H 0.97479 0.81477 0.03426 0.0
H773 H 0.96253 0.84624 0.99764 0.0
H774 H 0.01863 0.85035 0.90398 0.0
H775 H 0.03087 0.81883 0.94004 0.0
H776 H 0.98673 0.87715 0.0269 0.0
H777 H 0.97573 0.87672 0.80344 0.0
H778 H 0.97428 0.85483 0.84452 0.0
H779 H 0.99894 0.86354 0.82272 0.0
C780 C 0.98407 0.82196 0.00391 0.0
C781 C 0.00389 0.81456 0.99042 0.0
C782 C 0.97705 0.83995 0.98316 0.0
C783 C 0.98965 0.85059 0.94817 0.0
C784 C 0.00852 0.84224 0.93031 0.0
H785 H 0.04143 0.95334 0.88261 0.0
H786 H 0.02936 0.92333 0.92425 0.0
C787 C 0.0156 0.82433 0.95132 0.0
C788 C 0.98571 0.87173 0.94021 0.0
H789 H 0.98816 0.90706 0.84269 0.0
C790 C 0.98633 0.88375 0.98664 0.0
C791 C 0.9851 0.88028 0.88779 0.0
C792 C 0.98326 0.86814 0.83683 0.0
C793 C 0.98847 0.90398 0.9817 0.0
C794 C 0.98992 0.91219 0.9293 0.0
C795 C 0.9873 0.90051 0.88294 0.0
C796 C 0.99705 0.93215 0.92104 0.0
C797 C 0.99063 0.91632 0.03211 0.0
C798 C 0.98294 0.94742 0.90947 0.0
C799 C 0.98981 0.9647 0.88661 0.0
C800 C 0.01074 0.96658 0.87357 0.0
C801 C 0.02514 0.95226 0.89177 0.0
C802 C 0.01827 0.93505 0.91521 0.0
H803 H 0.98654 0.90824 0.06976 0.0
H804 H 0.00685 0.92099 0.03561 0.0
H805 H 0.98061 0.92971 0.02884 0.0
H806 H 0.96658 0.94551 0.91416 0.0
H807 H 0.97861 0.97581 0.87421 0.0
H808 H 0.65569 0.88744 0.07328 0.0
H809 H 0.62602 0.89142 0.01363 0.0
H810 H 0.66645 0.9025 0.87783 0.0
H811 H 0.69614 0.90006 0.9384 0.0
H812 H 0.64723 0.9343 0.90763 0.0
H813 H 0.58826 0.87828 0.89231 0.0
H814 H 0.59611 0.88036 0.96203 0.0
H815 H 0.61463 0.8722 0.91134 0.0
C816 C 0.65832 0.88994 0.03021 0.0
C817 C 0.67808 0.89449 0.01107 0.0
C818 C 0.64128 0.89188 0.99574 0.0
C819 C 0.64394 0.89782 0.94146 0.0
C820 C 0.66404 0.89823 0.91989 0.0
H821 H 0.54665 0.96221 0.77064 0.0
H822 H 0.57058 0.93639 0.80104 0.0
C823 C 0.68108 0.8968 0.95468 0.0
C824 C 0.62723 0.9097 0.91535 0.0
H825 H 0.57508 0.91243 0.89519 0.0
C826 C 0.63157 0.92927 0.90361 0.0
C827 C 0.60673 0.90334 0.91048 0.0
C828 C 0.60126 0.88232 0.91923 0.0
C829 C 0.61594 0.94282 0.88978 0.0
C830 C 0.59529 0.93682 0.88912 0.0
C831 C 0.59093 0.91707 0.89769 0.0
C832 C 0.57831 0.95084 0.87639 0.0
C833 C 0.62171 0.96353 0.87648 0.0
C834 C 0.5744 0.96729 0.90959 0.0
C835 C 0.56067 0.98218 0.89225 0.0
C836 C 0.55041 0.9804 0.84232 0.0
C837 C 0.55387 0.96358 0.81032 0.0
C838 C 0.56756 0.94884 0.82742 0.0
H839 H 0.63834 0.96449 0.86602 0.0
H840 H 0.61242 0.96942 0.84179 0.0
H841 H 0.61863 0.97296 0.91254 0.0
H842 H 0.58263 0.96897 0.94768 0.0
H843 H 0.55852 -0.00478 0.91683 0.0
H844 H 0.51784 0.69432 0.03692 0.0
H845 H 0.53165 0.66328 0.00119 0.0
H846 H 0.47542 0.65582 0.91025 0.0
H847 H 0.46159 0.68689 0.94552 0.0
H848 H 0.50912 0.63074 0.03146 0.0
H849 H 0.52 0.63251 0.80781 0.0
H850 H 0.52035 0.65431 0.84947 0.0
H851 H 0.49618 0.64445 0.82801 0.0
C852 C 0.5088 0.68648 0.00741 0.0
C853 C 0.48856 0.69284 0.99432 0.0
C854 C 0.51671 0.66875 0.98719 0.0
C855 C 0.50458 0.65734 0.95308 0.0
C856 C 0.48515 0.66458 0.93589 0.0
H857 H 0.4576 0.55289 0.89482 0.0
H858 H 0.46971 0.58239 0.93892 0.0
C859 C 0.47717 0.68221 0.95642 0.0
C860 C 0.50989 0.63647 0.94488 0.0
H861 H 0.50986 0.60137 0.84666 0.0
C862 C 0.50999 0.62428 0.9911 0.0
C863 C 0.51114 0.62814 0.89231 0.0
C864 C 0.51213 0.64057 0.84161 0.0
C865 C 0.50914 0.60395 0.98575 0.0
C866 C 0.5083 0.59583 0.93316 0.0
C867 C 0.51031 0.60781 0.88706 0.0
C868 C 0.50205 0.57563 0.92427 0.0
C869 C 0.50777 0.59134 0.03594 0.0
C870 C 0.51637 0.56161 0.90514 0.0
C871 C 0.50957 0.54456 0.88094 0.0
C872 C 0.48831 0.54178 0.87375 0.0
C873 C 0.47407 0.55472 0.89914 0.0
C874 C 0.48095 0.57161 0.92424 0.0
H875 H 0.51228 0.5993 0.07338 0.0
H876 H 0.49165 0.58655 0.04085 0.0
H877 H 0.51786 0.57803 0.0315 0.0
H878 H 0.53262 0.56457 0.90492 0.0
H879 H 0.5209 0.53457 0.86299 0.0
H880 H 0.80348 0.59426 0.92555 0.0
H881 H 0.83488 0.58326 0.8798 0.0
H882 H 0.86878 0.62798 0.96121 0.0
H883 H 0.8372 0.63909 0.00792 0.0
H884 H 0.8723 0.59366 0.82509 0.0
H885 H 0.88217 0.57645 0.0463 0.0
H886 H 0.85823 0.58624 0.01889 0.0
H887 H 0.87975 0.60187 0.02833 0.0
C888 C 0.81726 0.60262 0.93132 0.0
C889 C 0.81811 0.61702 0.97208 0.0
C890 C 0.83531 0.5962 0.90517 0.0
C891 C 0.85422 0.60428 0.91917 0.0
C892 C 0.85433 0.62126 0.95115 0.0
H893 H 0.96921 0.53345 0.88937 0.0
H894 H 0.94516 0.55967 0.92088 0.0
C895 C 0.83627 0.62764 0.97761 0.0
C896 C 0.87319 0.59202 0.91274 0.0
H897 H 0.905 0.56095 0.9856 0.0
C898 C 0.87979 0.58685 0.86013 0.0
C899 C 0.8826 0.58283 0.95876 0.0
C900 C 0.87531 0.58694 0.0163 0.0
C901 C 0.89523 0.57234 0.85228 0.0
C902 C 0.90403 0.56274 0.89823 0.0
C903 C 0.89816 0.56848 0.95077 0.0
C904 C 0.91795 0.54552 0.89187 0.0
C905 C 0.90153 0.56685 0.79489 0.0
C906 C 0.91008 0.5282 0.87138 0.0
C907 C 0.92347 0.51296 0.85599 0.0
C908 C 0.94501 0.51504 0.85952 0.0
C909 C 0.95273 0.53164 0.88524 0.0
C910 C 0.93913 0.54668 0.90238 0.0
H911 H 0.89698 0.57842 0.76505 0.0
H912 H 0.91848 0.56407 0.79226 0.0
H913 H 0.8938 0.55322 0.78307 0.0
H914 H 0.89365 0.52691 0.86446 0.0
H915 H 0.91692 0.50032 0.83672 0.0
H916 H 0.01421 0.2074 0.02125 0.0
H917 H 0.00891 0.17913 0.96218 0.0
H918 H 0.00406 0.14214 0.10389 0.0
H919 H 0.00933 0.17025 0.1631 0.0
H920 H 0.03369 0.14508 0.95653 0.0
H921 H 0.95323 0.12832 0.01489 0.0
H922 H 0.96478 0.15126 0.03137 0.0
H923 H 0.97086 0.12979 0.07117 0.0
C924 C 0.01186 0.19327 0.03979 0.0
C925 C 0.01208 0.19109 0.09685 0.0
C926 C 0.00884 0.17714 0.00604 0.0
C927 C 0.00594 0.15858 0.02867 0.0
C928 C 0.00587 0.1564 0.08558 0.0
H929 H 0.01609 0.0475 0.8493 0.0
H930 H 0.02299 0.0747 0.91135 0.0
C931 C 0.00882 0.17251 0.11936 0.0
C932 C 0.00374 0.14139 0.99262 0.0
H933 H 0.97074 0.10552 0.95756 0.0
C934 C 0.01994 0.13641 0.95666 0.0
C935 C 0.98576 0.13015 0.99293 0.0
C936 C 0.96757 0.1352 0.02928 0.0
C937 C 0.01858 0.12053 0.92069 0.0
C938 C 0.00064 0.10925 0.92123 0.0
C939 C 0.98453 0.11415 0.9575 0.0
C940 C 0.99755 0.09308 0.88218 0.0
C941 C 0.03606 0.11629 0.88138 0.0
C942 C 0.98097 0.09439 0.84553 0.0
C943 C 0.97689 0.0789 0.81068 0.0
C944 C 0.98933 0.06171 0.81162 0.0
C945 C 0.00629 0.06057 0.84745 0.0
C946 C 0.01029 0.07612 0.88276 0.0
H947 H 0.04684 0.1286 0.8788 0.0
H948 H 0.04495 0.10311 0.8953 0.0
H949 H 0.03001 0.11329 0.83993 0.0
H950 H 0.97101 0.10737 0.84427 0.0
H951 H 0.96383 0.08036 0.78321 0.0
H952 H 0.30221 0.08996 0.03981 0.0
H953 H 0.33061 0.0777 0.98196 0.0
H954 H 0.37149 0.07716 0.1209 0.0
H955 H 0.34307 0.08889 0.179 0.0
H956 H 0.36708 0.09234 0.95516 0.0
H957 H 0.38123 0.02264 0.06642 0.0
H958 H 0.35889 0.03827 0.07929 0.0
H959 H 0.38346 0.04373 0.10908 0.0
C960 C 0.31725 0.08715 0.05799 0.0
C961 C 0.32031 0.09013 0.11414 0.0
C962 C 0.33349 0.08015 0.02491 0.0
C963 C 0.35316 0.07609 0.04716 0.0
C964 C 0.35636 0.07956 0.10296 0.0
H965 H 0.46716 0.03212 0.88354 0.0
H966 H 0.44392 0.04984 0.94733 0.0
C967 C 0.34008 0.08631 0.13616 0.0
C968 C 0.37029 0.06836 0.01184 0.0
H969 H 0.40508 0.03014 0.99679 0.0
C970 C 0.37539 0.07876 0.96443 0.0
C971 C 0.38122 0.0506 0.02373 0.0
C972 C 0.37581 0.03806 0.07208 0.0
C973 C 0.39091 0.07184 0.9286 0.0
C974 C 0.40169 0.0541 0.94047 0.0
C975 C 0.39697 0.0439 0.9883 0.0
C976 C 0.4162 0.04478 0.90078 0.0
C977 C 0.39556 0.08337 0.87782 0.0
C978 C 0.40831 0.03614 0.85374 0.0
C979 C 0.42139 0.02588 0.81794 0.0
C980 C 0.44276 0.02409 0.82809 0.0
C981 C 0.4508 0.03324 0.87455 0.0
C982 C 0.43756 0.04333 0.91099 0.0
H983 H 0.38885 0.09848 0.87967 0.0
H984 H 0.4125 0.08408 0.87149 0.0
H985 H 0.38893 0.07593 0.8419 0.0
H986 H 0.39188 0.03695 0.84532 0.0
H987 H 0.41465 0.01919 0.78235 0.0
H988 H 0.52734 0.31606 0.09808 0.0
H989 H 0.52978 0.3439 0.0355 0.0
H990 H 0.46621 0.33731 0.98871 0.0
H991 H 0.46351 0.30972 0.05152 0.0
H992 H 0.51915 0.34581 0.9154 0.0
H993 H 0.47132 0.3951 0.04831 0.0
H994 H 0.48413 0.37314 0.07387 0.0
H995 H 0.46126 0.37148 0.03307 0.0
C996 C 0.51394 0.32046 0.07414 0.0
C997 C 0.49523 0.3107 0.07978 0.0
C998 C 0.51537 0.33631 0.03842 0.0
C999 C 0.49808 0.34274 0.00821 0.0
C1000 C 0.47964 0.33263 0.01218 0.0
H1001 H 0.47625 0.44679 0.80663 0.0
H1002 H 0.47203 0.4173 0.86243 0.0
C1003 C 0.47822 0.31674 0.04762 0.0
C1004 C 0.49917 0.36035 0.97352 0.0
H1005 H 0.48248 0.408 0.96453 0.0
C1006 C 0.51115 0.35943 0.92597 0.0
C1007 C 0.48853 0.37797 0.98741 0.0
C1008 C 0.47565 0.37967 0.03859 0.0
C1009 C 0.51269 0.37571 0.8915 0.0
C1010 C 0.50251 0.39356 0.90608 0.0
C1011 C 0.49031 0.39436 0.95344 0.0
C1012 C 0.50485 0.41168 0.87363 0.0
C1013 C 0.5249 0.37342 0.8393 0.0
C1014 C 0.52461 0.41861 0.86278 0.0
C1015 C 0.52702 0.4351 0.83025 0.0
C1016 C 0.50969 0.44538 0.80923 0.0
C1017 C 0.48985 0.43908 0.82226 0.0
C1018 C 0.48745 0.42226 0.85401 0.0
H1019 H 0.52565 0.35795 0.82555 0.0
H1020 H 0.5181 0.38254 0.806 0.0
H1021 H 0.54097 0.37799 0.84647 0.0
H1022 H 0.53823 0.41119 0.87924 0.0
H1023 H 0.54249 0.43988 0.82175 0.0
H1024 H 0.16573 0.42507 0.18514 0.0
H1025 H 0.13644 0.43815 0.13236 0.0
H1026 H 0.16583 0.41873 0.98357 0.0
H1027 H 0.19563 0.40623 0.0356 0.0
H1028 H 0.139 0.46688 0.0372 0.0
H1029 H 0.10501 0.39533 0.98711 0.0
H1030 H 0.1216 0.39864 0.04549 0.0
H1031 H 0.13249 0.39727 0.97827 0.0
C1032 C 0.16622 0.42382 0.14113 0.0
C1033 C 0.18323 0.4146 0.1148 0.0
C1034 C 0.14932 0.43117 0.11109 0.0
C1035 C 0.14888 0.42922 0.05418 0.0
C1036 C 0.16576 0.42013 0.02759 0.0
H1037 H 0.07972 0.47526 0.78644 0.0
H1038 H 0.1037 0.45917 0.85036 0.0
C1039 C 0.18277 0.41294 0.05751 0.0
C1040 C 0.13098 0.43707 0.02236 0.0
H1041 H 0.09044 0.42336 0.94306 0.0
C1042 C 0.12824 0.4574 0.01713 0.0
C1043 C 0.11696 0.42464 0.99633 0.0
C1044 C 0.11896 0.40273 0.00213 0.0
C1045 C 0.11222 0.46559 0.985 0.0
C1046 C 0.09849 0.45315 0.95801 0.0
C1047 C 0.10091 0.43284 0.96421 0.0
C1048 C 0.08286 0.4611 0.91912 0.0
C1049 C 0.11034 0.48748 0.97852 0.0
C1050 C 0.06297 0.46706 0.93644 0.0
C1051 C 0.04904 0.47609 0.89962 0.0
C1052 C 0.05505 0.47951 0.84542 0.0
C1053 C 0.07475 0.47295 0.82812 0.0
C1054 C 0.08845 0.46373 0.86448 0.0
H1055 H 0.12184 0.49521 0.00352 0.0
H1056 H 0.11257 0.49143 0.935 0.0
H1057 H 0.09459 0.49268 0.99047 0.0
H1058 H 0.05845 0.46519 0.97864 0.0
H1059 H 0.03401 0.48116 0.91403 0.0
H1060 H 0.98724 0.83102 0.28164 0.0
H1061 H 0.98064 0.85861 0.34338 0.0
H1062 H 0.00614 0.82488 0.47714 0.0
H1063 H 0.01254 0.7971 0.416 0.0
H1064 H 0.96011 0.86193 0.46089 0.0
H1065 H 0.0444 0.87423 0.44241 0.0
H1066 H 0.03033 0.86037 0.3928 0.0
H1067 H 0.03702 0.84966 0.45751 0.0
C1068 C 0.99085 0.82923 0.32453 0.0
C1069 C 0.00063 0.81193 0.34386 0.0
C1070 C 0.98709 0.84503 0.35967 0.0
C1071 C 0.99303 0.84375 0.41455 0.0
C1072 C 0.00152 0.8261 0.43476 0.0
H1073 H 0.02162 0.92152 0.67282 0.0
H1074 H 0.01485 0.89392 0.61337 0.0
C1075 C 0.00529 0.81032 0.39974 0.0
C1076 C 0.99303 0.86145 0.44898 0.0
H1077 H 0.02591 0.89359 0.50606 0.0
C1078 C 0.97441 0.86898 0.47075 0.0
C1079 C 0.01173 0.87063 0.46103 0.0
C1080 C 0.03204 0.86347 0.43702 0.0
C1081 C 0.97419 0.88512 0.50634 0.0
C1082 C 0.99304 0.89396 0.51954 0.0
C1083 C 0.0115 0.88669 0.49628 0.0
C1084 C 0.99447 0.91027 0.55901 0.0
C1085 C 0.95396 0.89218 0.53085 0.0
C1086 C 0.98491 0.92859 0.5488 0.0
C1087 C 0.98865 0.94446 0.58316 0.0
C1088 C 0.00228 0.94227 0.6276 0.0
C1089 C 0.01126 0.92375 0.63853 0.0
C1090 C 0.00734 0.90793 0.60471 0.0
H1091 H 0.94174 0.88124 0.52627 0.0
H1092 H 0.95583 0.89555 0.57485 0.0
H1093 H 0.94868 0.90579 0.50982 0.0
H1094 H 0.97523 0.93082 0.5132 0.0
H1095 H 0.98153 0.95857 0.57371 0.0
H1096 H 0.69396 0.90613 0.40656 0.0
H1097 H 0.66202 0.90926 0.46127 0.0
H1098 H 0.63718 0.95142 0.34599 0.0
H1099 H 0.66884 0.94844 0.29213 0.0
H1100 H 0.64761 0.94465 0.50793 0.0
H1101 H 0.58849 0.91527 0.37016 0.0
H1102 H 0.61579 0.90988 0.36171 0.0
H1103 H 0.60455 0.93249 0.33647 0.0
C1104 C 0.68151 0.91586 0.39291 0.0
C1105 C 0.6838 0.92722 0.34571 0.0
C1106 C 0.66332 0.9176 0.42389 0.0
C1107 C 0.64709 0.93033 0.40715 0.0
C1108 C 0.64927 0.9412 0.35908 0.0
H1109 H 0.56041 0.00618 0.55104 0.0
H1110 H 0.58367 0.98687 0.49193 0.0
C1111 C 0.66744 0.93968 0.32873 0.0
C1112 C 0.6288 0.93417 0.44237 0.0
H1113 H 0.57606 0.9383 0.43886 0.0
C1114 C 0.63197 0.94278 0.49348 0.0
C1115 C 0.60838 0.93175 0.42341 0.0
C1116 C 0.60407 0.92166 0.37014 0.0
C1117 C 0.61532 0.95019 0.52446 0.0
C1118 C 0.59503 0.94893 0.50385 0.0
C1119 C 0.59169 0.93932 0.4543 0.0
C1120 C 0.57764 0.95934 0.53133 0.0
C1121 C 0.6195 0.96024 0.57793 0.0
C1122 C 0.56593 0.95002 0.57135 0.0
C1123 C 0.55235 0.96101 0.60459 0.0
C1124 C 0.55068 0.98141 0.59857 0.0
C1125 C 0.56149 0.99047 0.55635 0.0
C1126 C 0.57472 0.97947 0.52263 0.0
H1127 H 0.6359 0.95847 0.59068 0.0
H1128 H 0.61566 0.97609 0.57398 0.0
H1129 H 0.60951 0.95432 0.61046 0.0
H1130 H 0.56817 0.93451 0.57888 0.0
H1131 H 0.54436 0.95379 0.63744 0.0
H1132 H 0.51911 0.70043 0.34993 0.0
H1133 H 0.52883 0.67192 0.40653 0.0
H1134 H 0.4661 0.65264 0.39998 0.0
H1135 H 0.45636 0.68066 0.34321 0.0
H1136 H 0.50936 0.66034 0.51156 0.0
H1137 H 0.50321 0.6047 0.34866 0.0
H1138 H 0.50701 0.63028 0.33446 0.0
H1139 H 0.48172 0.62188 0.35099 0.0
C1140 C 0.50743 0.69007 0.36054 0.0
C1141 C 0.48694 0.69287 0.34229 0.0
C1142 C 0.513 0.67385 0.39284 0.0
C1143 C 0.49823 0.66009 0.4066 0.0
C1144 C 0.47778 0.66299 0.38909 0.0
H1145 H 0.46334 0.57985 0.63529 0.0
H1146 H 0.47167 0.60686 0.57518 0.0
C1147 C 0.47218 0.67917 0.35724 0.0
C1148 C 0.50363 0.64282 0.44054 0.0
H1149 H 0.50026 0.59315 0.44117 0.0
C1150 C 0.50791 0.64561 0.49602 0.0
C1151 C 0.50199 0.62364 0.41994 0.0
C1152 C 0.49843 0.61987 0.36011 0.0
C1153 C 0.50884 0.62972 0.5323 0.0
C1154 C 0.50534 0.61073 0.51242 0.0
C1155 C 0.50279 0.60778 0.45628 0.0
C1156 C 0.5012 0.59441 0.54993 0.0
C1157 C 0.51255 0.63338 0.59211 0.0
C1158 C 0.51497 0.57831 0.55484 0.0
C1159 C 0.51026 0.56273 0.58943 0.0
C1160 C 0.49161 0.56299 0.61903 0.0
C1161 C 0.47787 0.57916 0.61341 0.0
C1162 C 0.48263 0.59467 0.57923 0.0
H1163 H 0.51966 0.64774 0.59909 0.0
H1164 H 0.49757 0.63332 0.61413 0.0
H1165 H 0.52271 0.62166 0.60979 0.0
H1166 H 0.52931 0.57784 0.5321 0.0
H1167 H 0.52119 0.55051 0.59289 0.0
H1168 H 0.8134 0.60347 0.39293 0.0
H1169 H 0.84409 0.59988 0.45195 0.0
H1170 H 0.86494 0.54985 0.3581 0.0
H1171 H 0.83484 0.55344 0.29925 0.0
H1172 H 0.8557 0.56639 0.51509 0.0
H1173 H 0.91663 0.58313 0.36574 0.0
H1174 H 0.88985 0.59043 0.35586 0.0
H1175 H 0.89874 0.566 0.33921 0.0
C1176 C 0.82463 0.5918 0.38485 0.0
C1177 C 0.82155 0.57859 0.34187 0.0
C1178 C 0.84213 0.58979 0.41847 0.0
C1179 C 0.85698 0.5748 0.40877 0.0
C1180 C 0.85393 0.56175 0.3657 0.0
H1181 H 0.9375 0.49731 0.56008 0.0
H1182 H 0.91529 0.51802 0.50188 0.0
C1183 C 0.8365 0.56364 0.33261 0.0
C1184 C 0.87501 0.57156 0.44536 0.0
H1185 H 0.92712 0.56214 0.44159 0.0
C1186 C 0.87139 0.56603 0.49959 0.0
C1187 C 0.89551 0.57119 0.42517 0.0
C1188 C 0.90046 0.57821 0.36844 0.0
C1189 C 0.88752 0.55861 0.53262 0.0
C1190 C 0.90767 0.55669 0.51081 0.0
C1191 C 0.9116 0.56353 0.458 0.0
C1192 C 0.92389 0.5451 0.53977 0.0
C1193 C 0.88278 0.55165 0.58955 0.0
C1194 C 0.93664 0.55363 0.57885 0.0
C1195 C 0.94964 0.54181 0.61165 0.0
C1196 C 0.9497 0.52135 0.60624 0.0
C1197 C 0.93768 0.51303 0.56514 0.0
C1198 C 0.92502 0.52482 0.53192 0.0
H1199 H 0.86664 0.55538 0.60191 0.0
H1200 H 0.88519 0.53554 0.59174 0.0
H1201 H 0.89351 0.55824 0.61917 0.0
H1202 H 0.93584 0.56927 0.58559 0.0
H1203 H 0.95858 0.54856 0.6435 0.0
loop_
_geom_bond_atom_site_label_1
_geom_bond_atom_site_label_2
_geom_bond_distance
_geom_bond_site_symmetry_2
_ccdc_geom_bond_type
P0 O11 1.490 . S
P0 C14 1.812 . S
P0 C20 1.803 . S
P0 C26 1.819 . S
H1 C15 0.941 . S
H2 C16 0.939 . S
H3 C18 0.940 . S
H4 C19 0.940 . S
H5 C21 0.939 . S
H6 C22 0.942 . S
H7 C24 0.940 . S
H8 C25 0.939 . S
H9 C27 0.941 . S
H10 C31 0.939 . S
O11 P0 1.490 . S
H12 C28 0.939 . S
H13 C30 0.940 . S
C14 P0 1.812 . S
C14 C15 1.389 . S
C14 C19 1.391 . S
C15 H1 0.941 . S
C15 C14 1.389 . S
C15 C16 1.397 . S
C16 H2 0.939 . S
C16 C15 1.397 . S
C16 C17 1.378 . S
C17 C16 1.378 . S
C17 C18 1.378 . S
C18 H3 0.940 . S
C18 C17 1.378 . S
C18 C19 1.396 . S
C19 H4 0.940 . S
C19 C14 1.391 . S
C19 C18 1.396 . S
C20 P0 1.803 . S
C20 C21 1.378 . S
C20 C25 1.400 . S
C21 H5 0.939 . S
C21 C20 1.378 . S
C21 C22 1.361 . S
C22 H6 0.942 . S
C22 C21 1.361 . S
C22 C23 1.369 . S
C23 C22 1.369 . S
C23 C24 1.404 . S
C24 H7 0.940 . S
C24 C23 1.404 . S
C24 C25 1.389 . S
C25 H8 0.939 . S
C25 C20 1.400 . S
C25 C24 1.389 . S
C26 P0 1.819 . S
C26 C27 1.391 . S
C26 C31 1.391 . S
C27 H9 0.941 . S
C27 C26 1.391 . S
C27 C28 1.396 . S
C28 H12 0.939 . S
C28 C27 1.396 . S
C28 C29 1.397 1_554 S
C29 C28 1.397 1_556 S
C29 C30 1.385 . S
C30 H13 0.940 . S
C30 C29 1.385 . S
C30 C31 1.388 1_556 S
C31 H10 0.939 . S
C31 C26 1.391 . S
C31 C30 1.388 1_554 S
P32 O43 1.490 . S
P32 C46 1.812 . S
P32 C52 1.803 . S
P32 C58 1.819 . S
H33 C47 0.941 . S
H34 C48 0.939 . S
H35 C50 0.940 . S
H36 C51 0.950 . S
H37 C53 0.939 . S
H38 C54 0.942 . S
H39 C56 0.940 . S
H40 C57 0.958 . S
H41 C59 0.941 . S
H42 C63 0.928 1_655 S
O43 P32 1.490 . S
H44 C60 0.939 . S
H45 C62 0.940 . S
C46 P32 1.812 . S
C46 C47 1.389 . S
C46 C51 1.375 1_455 S
C47 H33 0.941 . S
C47 C46 1.389 . S
C47 C48 1.397 . S
C48 H34 0.939 . S
C48 C47 1.397 . S
C48 C49 1.378 . S
C49 C48 1.378 . S
C49 C50 1.378 1_455 S
C50 H35 0.940 . S
C50 C49 1.378 1_655 S
C50 C51 1.403 . S
C51 H36 0.950 . S
C51 C46 1.375 1_655 S
C51 C50 1.403 . S
C52 P32 1.803 . S
C52 C53 1.378 . S
C52 C57 1.369 1_455 S
C53 H37 0.939 . S
C53 C52 1.378 . S
C53 C54 1.361 . S
C54 H38 0.942 . S
C54 C53 1.361 . S
C54 C55 1.369 . S
C55 C54 1.369 . S
C55 C56 1.404 1_455 S
C56 H39 0.940 . S
C56 C55 1.404 1_655 S
C56 C57 1.402 . S
C57 H40 0.958 . S
C57 C52 1.369 1_655 S
C57 C56 1.402 . S
C58 P32 1.819 . S
C58 C59 1.391 . S
C58 C63 1.391 . S
C59 H41 0.941 . S
C59 C58 1.391 . S
C59 C60 1.396 . S
C60 H44 0.939 . S
C60 C59 1.396 . S
C60 C61 1.397 1_554 S
C61 C60 1.397 1_556 S
C61 C62 1.385 1_455 S
C62 H45 0.940 . S
C62 C61 1.385 1_655 S
C62 C63 1.388 1_656 S
C63 H42 0.928 1_455 S
C63 C58 1.391 . S
C63 C62 1.388 1_454 S
P64 O75 1.490 . S
P64 C78 1.812 . S
P64 C84 1.803 . S
P64 C90 1.819 . S
H65 C79 0.941 . S
H66 C80 0.939 . S
H67 C82 0.940 . S
H68 C83 0.940 . S
H69 C85 0.939 . S
H70 C86 0.942 . S
H71 C88 0.940 . S
H72 C89 0.939 . S
H73 C91 0.941 . S
H74 C95 0.939 . S
O75 P64 1.490 . S
H76 C92 0.939 . S
H77 C94 0.940 . S
C78 P64 1.812 . S
C78 C79 1.389 . S
C78 C83 1.391 . S
C79 H65 0.941 . S
C79 C78 1.389 . S
C79 C80 1.397 . S
C80 H66 0.939 . S
C80 C79 1.397 . S
C80 C81 1.378 . S
C81 C80 1.378 . S
C81 C82 1.378 . S
C82 H67 0.940 . S
C82 C81 1.378 . S
C82 C83 1.396 . S
C83 H68 0.940 . S
C83 C78 1.391 . S
C83 C82 1.396 . S
C84 P64 1.803 . S
C84 C85 1.378 . S
C84 C89 1.400 . S
C85 H69 0.939 . S
C85 C84 1.378 . S
C85 C86 1.361 . S
C86 H70 0.942 . S
C86 C85 1.361 . S
C86 C87 1.369 . S
C87 C86 1.369 . S
C87 C88 1.404 . S
C88 H71 0.940 . S
C88 C87 1.404 . S
C88 C89 1.389 . S
C89 H72 0.939 . S
C89 C84 1.400 . S
C89 C88 1.389 . S
C90 P64 1.819 . S
C90 C91 1.391 . S
C90 C95 1.391 . S
C91 H73 0.941 . S
C91 C90 1.391 . S
C91 C92 1.396 . S
C92 H76 0.939 . S
C92 C91 1.396 . S
C92 C93 1.397 1_554 S
C93 C92 1.397 1_556 S
C93 C94 1.385 . S
C94 H77 0.940 . S
C94 C93 1.385 . S
C94 C95 1.388 1_556 S
C95 H74 0.939 . S
C95 C90 1.391 . S
C95 C94 1.388 1_554 S
P96 O107 1.490 . S
P96 C110 1.812 . S
P96 C116 1.803 . S
P96 C122 1.819 . S
H97 C111 0.941 . S
H98 C112 0.939 . S
H99 C114 0.940 . S
H100 C115 0.940 . S
H101 C117 0.939 . S
H102 C118 0.942 . S
H103 C120 0.940 . S
H104 C121 0.939 . S
H105 C123 0.941 . S
H106 C127 0.939 . S
O107 P96 1.490 . S
H108 C124 0.939 . S
H109 C126 0.943 . S
C110 P96 1.812 . S
C110 C111 1.389 . S
C110 C115 1.391 . S
C111 H97 0.941 . S
C111 C110 1.389 . S
C111 C112 1.397 . S
C112 H98 0.939 . S
C112 C111 1.397 . S
C112 C113 1.378 . S
C113 C112 1.378 . S
C113 C114 1.378 . S
C114 H99 0.940 . S
C114 C113 1.378 . S
C114 C115 1.396 . S
C115 H100 0.940 . S
C115 C110 1.391 . S
C115 C114 1.396 . S
C116 P96 1.803 . S
C116 C117 1.378 . S
C116 C121 1.400 . S
C117 H101 0.939 . S
C117 C116 1.378 . S
C117 C118 1.361 . S
C118 H102 0.942 . S
C118 C117 1.361 . S
C118 C119 1.369 . S
C119 C118 1.369 . S
C119 C120 1.404 . S
C120 H103 0.940 . S
C120 C119 1.404 . S
C120 C121 1.389 . S
C121 H104 0.939 . S
C121 C116 1.400 . S
C121 C120 1.389 . S
C122 P96 1.819 . S
C122 C123 1.391 . S
C122 C127 1.391 . S
C123 H105 0.941 . S
C123 C122 1.391 . S
C123 C124 1.396 . S
C124 H108 0.939 . S
C124 C123 1.396 . S
C124 C125 1.397 1_554 S
C125 C124 1.397 1_556 S
C125 C126 1.385 . S
C126 H109 0.943 . S
C126 C125 1.385 . S
C126 C127 1.386 1_556 S
C127 H106 0.939 . S
C127 C122 1.391 . S
C127 C126 1.386 1_554 S
P128 O139 1.490 . S
P128 C142 1.812 . S
P128 C148 1.803 . S
P128 C154 1.819 . S
H129 C143 0.941 . S
H130 C144 0.939 . S
H131 C146 0.940 . S
H132 C147 0.940 . S
H133 C149 0.939 . S
H134 C150 0.942 . S
H135 C152 0.940 . S
H136 C153 0.939 . S
H137 C155 0.941 . S
H138 C159 0.939 . S
O139 P128 1.490 . S
H140 C156 0.939 . S
H141 C158 0.940 . S
C142 P128 1.812 . S
C142 C143 1.389 . S
C142 C147 1.391 . S
C143 H129 0.941 . S
C143 C142 1.389 . S
C143 C144 1.397 . S
C144 H130 0.939 . S
C144 C143 1.397 . S
C144 C145 1.378 . S
C145 C144 1.378 . S
C145 C146 1.378 . S
C146 H131 0.940 . S
C146 C145 1.378 . S
C146 C147 1.396 . S
C147 H132 0.940 . S
C147 C142 1.391 . S
C147 C146 1.396 . S
C148 P128 1.803 . S
C148 C149 1.378 . S
C148 C153 1.400 . S
C149 H133 0.939 . S
C149 C148 1.378 . S
C149 C150 1.361 . S
C150 H134 0.942 . S
C150 C149 1.361 . S
C150 C151 1.369 . S
C151 C150 1.369 . S
C151 C152 1.404 . S
C152 H135 0.940 . S
C152 C151 1.404 . S
C152 C153 1.389 . S
C153 H136 0.939 . S
C153 C148 1.400 . S
C153 C152 1.389 . S
C154 P128 1.819 . S
C154 C155 1.391 . S
C154 C159 1.391 . S
C155 H137 0.941 . S
C155 C154 1.391 . S
C155 C156 1.396 . S
C156 H140 0.939 . S
C156 C155 1.396 . S
C156 C157 1.397 . S
C157 C156 1.397 . S
C157 C158 1.385 . S
C158 H141 0.940 . S
C158 C157 1.385 . S
C158 C159 1.388 . S
C159 H138 0.939 . S
C159 C154 1.391 . S
C159 C158 1.388 . S
P160 O171 1.490 . S
P160 C174 1.812 . S
P160 C180 1.803 . S
P160 C186 1.819 . S
H161 C175 0.941 . S
H162 C176 0.939 . S
H163 C178 0.940 . S
H164 C179 0.943 . S
H165 C181 0.939 . S
H166 C182 0.942 . S
H167 C184 0.940 . S
H168 C185 0.951 . S
H169 C187 0.941 . S
H170 C191 0.934 1_655 S
O171 P160 1.490 . S
H172 C188 0.939 . S
H173 C190 0.940 . S
C174 P160 1.812 . S
C174 C175 1.389 . S
C174 C179 1.386 1_455 S
C175 H161 0.941 . S
C175 C174 1.389 . S
C175 C176 1.397 . S
C176 H162 0.939 . S
C176 C175 1.397 . S
C176 C177 1.378 . S
C177 C176 1.378 . S
C177 C178 1.378 1_455 S
C178 H163 0.940 . S
C178 C177 1.378 1_655 S
C178 C179 1.398 . S
C179 H164 0.943 . S
C179 C174 1.386 1_655 S
C179 C178 1.398 . S
C180 P160 1.803 . S
C180 C181 1.378 . S
C180 C185 1.382 1_455 S
C181 H165 0.939 . S
C181 C180 1.378 . S
C181 C182 1.361 . S
C182 H166 0.942 . S
C182 C181 1.361 . S
C182 C183 1.369 . S
C183 C182 1.369 . S
C183 C184 1.404 1_455 S
C184 H167 0.940 . S
C184 C183 1.404 1_655 S
C184 C185 1.396 . S
C185 H168 0.951 . S
C185 C180 1.382 1_655 S
C185 C184 1.396 . S
C186 P160 1.819 . S
C186 C187 1.391 . S
C186 C191 1.391 . S
C187 H169 0.941 . S
C187 C186 1.391 . S
C187 C188 1.396 . S
C188 H172 0.939 . S
C188 C187 1.396 . S
C188 C189 1.397 . S
C189 C188 1.397 . S
C189 C190 1.385 1_455 S
C190 H173 0.940 . S
C190 C189 1.385 1_655 S
C190 C191 1.388 1_655 S
C191 H170 0.934 1_455 S
C191 C186 1.391 . S
C191 C190 1.388 1_455 S
P192 O203 1.490 . S
P192 C206 1.812 . S
P192 C212 1.803 . S
P192 C218 1.819 . S
H193 C207 0.941 . S
H194 C208 0.939 . S
H195 C210 0.940 . S
H196 C211 0.940 . S
H197 C213 0.939 . S
H198 C214 0.942 . S
H199 C216 0.940 . S
H200 C217 0.939 . S
H201 C219 0.941 . S
H202 C223 0.939 . S
O203 P192 1.490 . S
H204 C220 0.939 . S
H205 C222 0.940 . S
C206 P192 1.812 . S
C206 C207 1.389 . S
C206 C211 1.391 . S
C207 H193 0.941 . S
C207 C206 1.389 . S
C207 C208 1.397 . S
C208 H194 0.939 . S
C208 C207 1.397 . S
C208 C209 1.378 . S
C209 C208 1.378 . S
C209 C210 1.378 . S
C210 H195 0.940 . S
C210 C209 1.378 . S
C210 C211 1.396 . S
C211 H196 0.940 . S
C211 C206 1.391 . S
C211 C210 1.396 . S
C212 P192 1.803 . S
C212 C213 1.378 . S
C212 C217 1.400 . S
C213 H197 0.939 . S
C213 C212 1.378 . S
C213 C214 1.361 . S
C214 H198 0.942 . S
C214 C213 1.361 . S
C214 C215 1.369 . S
C215 C214 1.369 . S
C215 C216 1.404 . S
C216 H199 0.940 . S
C216 C215 1.404 . S
C216 C217 1.389 . S
C217 H200 0.939 . S
C217 C212 1.400 . S
C217 C216 1.389 . S
C218 P192 1.819 . S
C218 C219 1.391 . S
C218 C223 1.391 . S
C219 H201 0.941 . S
C219 C218 1.391 . S
C219 C220 1.396 . S
C220 H204 0.939 . S
C220 C219 1.396 . S
C220 C221 1.397 . S
C221 C220 1.397 . S
C221 C222 1.385 . S
C222 H205 0.940 . S
C222 C221 1.385 . S
C222 C223 1.388 . S
C223 H202 0.939 . S
C223 C218 1.391 . S
C223 C222 1.388 . S
P224 O235 1.490 . S
P224 C238 1.812 . S
P224 C244 1.803 . S
P224 C250 1.819 . S
H225 C239 0.941 . S
H226 C240 0.939 . S
H227 C242 0.940 . S
H228 C243 0.940 . S
H229 C245 0.939 . S
H230 C246 0.942 . S
H231 C248 0.940 . S
H232 C249 0.939 . S
H233 C251 0.941 . S
H234 C255 0.939 . S
O235 P224 1.490 . S
H236 C252 0.939 . S
H237 C254 0.940 . S
C238 P224 1.812 . S
C238 C239 1.389 . S
C238 C243 1.391 . S
C239 H225 0.941 . S
C239 C238 1.389 . S
C239 C240 1.397 . S
C240 H226 0.939 . S
C240 C239 1.397 . S
C240 C241 1.378 . S
C241 C240 1.378 . S
C241 C242 1.378 . S
C242 H227 0.940 . S
C242 C241 1.378 . S
C242 C243 1.396 . S
C243 H228 0.940 . S
C243 C238 1.391 . S
C243 C242 1.396 . S
C244 P224 1.803 . S
C244 C245 1.378 . S
C244 C249 1.400 . S
C245 H229 0.939 . S
C245 C244 1.378 . S
C245 C246 1.361 . S
C246 H230 0.942 . S
C246 C245 1.361 . S
C246 C247 1.369 . S
C247 C246 1.369 . S
C247 C248 1.404 . S
C248 H231 0.940 . S
C248 C247 1.404 . S
C248 C249 1.389 . S
C249 H232 0.939 . S
C249 C244 1.400 . S
C249 C248 1.389 . S
C250 P224 1.819 . S
C250 C251 1.391 . S
C250 C255 1.391 . S
C251 H233 0.941 . S
C251 C250 1.391 . S
C251 C252 1.396 . S
C252 H236 0.939 . S
C252 C251 1.396 . S
C252 C253 1.397 . S
C253 C252 1.397 . S
C253 C254 1.385 . S
C254 H237 0.940 . S
C254 C253 1.385 . S
C254 C255 1.388 . S
C255 H234 0.939 . S
C255 C250 1.391 . S
C255 C254 1.388 . S
O256 Mg257 1.990 . S
O256 C270 1.253 . S
Mg257 O256 1.990 . S
Mg257 O260 2.180 1_565 S
Mg257 O261 2.117 . S
Mg257 O275 2.030 . S
O258 Mg259 2.070 1_465 S
O258 C270 1.260 . S
Mg259 O258 2.070 1_645 S
Mg259 O260 2.048 1_655 S
Mg259 O262 2.088 . S
Mg259 O263 2.056 1_655 S
Mg259 O265 2.150 . S
Mg259 O276 2.091 1_545 S
O260 Mg257 2.180 1_545 S
O260 Mg259 2.048 1_455 S
O260 C271 1.279 . S
O261 Mg257 2.117 . S
O261 C271 1.250 1_565 S
O262 Mg259 2.088 . S
O262 C272 1.264 . S
O263 Mg259 2.056 1_455 S
O263 C273 1.260 . S
Mg264 O265 2.180 . S
Mg264 O266 2.030 . S
Mg264 O267 1.990 . S
Mg264 O268 2.117 . S
O265 Mg259 2.150 . S
O265 Mg264 2.180 . S
O265 C274 1.279 . S
O266 Mg264 2.030 . S
O266 C272 1.248 . S
O267 Mg264 1.990 . S
O267 C273 1.253 1_655 S
O268 Mg264 2.117 . S
O268 C274 1.250 . S
C269 O275 1.200 1_655 S
C269 O276 1.283 . S
C270 O256 1.253 . S
C270 O258 1.260 . S
C271 O260 1.279 . S
C271 O261 1.250 1_545 S
C272 O262 1.264 . S
C272 O266 1.248 . S
C273 O263 1.260 . S
C273 O267 1.253 1_455 S
C274 O265 1.279 . S
C274 O268 1.250 . S
O275 Mg257 2.030 . S
O275 C269 1.200 1_455 S
O276 Mg259 2.091 1_565 S
O276 C269 1.283 . S
O277 Mg278 1.990 1_545 S
O277 C291 1.253 . S
Mg278 O277 1.990 1_565 S
Mg278 O281 2.180 . S
Mg278 O282 2.117 . S
Mg278 O296 2.030 1_565 S
O279 Mg280 2.072 . S
O279 C291 1.260 . S
Mg280 O279 2.072 . S
Mg280 O281 2.099 1_545 S
Mg280 O283 2.079 1_545 S
Mg280 O284 2.072 . S
Mg280 O286 2.099 . S
Mg280 O297 2.079 . S
O281 Mg278 2.180 . S
O281 Mg280 2.099 1_565 S
O281 C292 1.279 . S
O282 Mg278 2.117 . S
O282 C292 1.250 . S
O283 Mg280 2.079 1_565 S
O283 C293 1.264 . S
O284 Mg280 2.072 . S
O284 C294 1.260 . S
Mg285 O286 2.180 . S
Mg285 O287 2.030 . S
Mg285 O288 1.990 . S
Mg285 O289 2.117 . S
O286 Mg280 2.099 . S
O286 Mg285 2.180 . S
O286 C295 1.279 . S
O287 Mg285 2.030 . S
O287 C293 1.248 1_545 S
O288 Mg285 1.990 . S
O288 C294 1.253 . S
O289 Mg285 2.117 . S
O289 C295 1.250 . S
C290 O296 1.248 . S
C290 O297 1.264 . S
C291 O277 1.253 . S
C291 O279 1.260 . S
C292 O281 1.279 . S
C292 O282 1.250 . S
C293 O283 1.264 . S
C293 O287 1.248 1_565 S
C294 O284 1.260 . S
C294 O288 1.253 . S
C295 O286 1.279 . S
C295 O289 1.250 . S
O296 Mg278 2.030 1_545 S
O296 C290 1.248 . S
O297 Mg280 2.079 . S
O297 C290 1.264 . S
O298 Mg299 1.990 . S
O298 C312 1.253 . S
Mg299 O298 1.990 . S
Mg299 O302 2.180 . S
Mg299 O303 2.117 . S
Mg299 O317 2.030 . S
O300 Mg301 2.072 . S
O300 C312 1.260 . S
Mg301 O300 2.072 . S
Mg301 O302 2.099 . S
Mg301 O304 2.079 . S
Mg301 O305 2.072 . S
Mg301 O307 2.099 . S
Mg301 O318 2.079 . S
O302 Mg299 2.180 . S
O302 Mg301 2.099 . S
O302 C313 1.279 . S
O303 Mg299 2.117 . S
O303 C313 1.250 . S
O304 Mg301 2.079 . S
O304 C314 1.264 . S
O305 Mg301 2.072 . S
O305 C315 1.260 . S
Mg306 O307 2.180 . S
Mg306 O308 2.030 . S
Mg306 O309 1.990 . S
Mg306 O310 2.117 . S
O307 Mg301 2.099 . S
O307 Mg306 2.180 . S
O307 C316 1.279 . S
O308 Mg306 2.030 . S
O308 C314 1.248 . S
O309 Mg306 1.990 . S
O309 C315 1.253 . S
O310 Mg306 2.117 . S
O310 C316 1.250 . S
C311 O317 1.248 . S
C311 O318 1.264 . S
C312 O298 1.253 . S
C312 O300 1.260 . S
C313 O302 1.279 . S
C313 O303 1.250 . S
C314 O304 1.264 . S
C314 O308 1.248 . S
C315 O305 1.260 . S
C315 O309 1.253 . S
C316 O307 1.279 . S
C316 O310 1.250 . S
O317 Mg299 2.030 . S
O317 C311 1.248 . S
O318 Mg301 2.079 . S
O318 C311 1.264 . S
O319 Mg320 1.990 . S
O319 C333 1.253 . S
Mg320 O319 1.990 . S
Mg320 O323 2.180 . S
Mg320 O324 2.117 . S
Mg320 O338 2.030 . S
O321 Mg322 2.072 1_655 S
O321 C333 1.260 . S
Mg322 O321 2.072 1_455 S
Mg322 O323 2.099 1_455 S
Mg322 O325 2.079 . S
Mg322 O326 2.072 . S
Mg322 O328 2.099 . S
Mg322 O339 2.079 1_455 S
O323 Mg320 2.180 . S
O323 Mg322 2.099 1_655 S
O323 C334 1.279 . S
O324 Mg320 2.117 . S
O324 C334 1.250 . S
O325 Mg322 2.079 . S
O325 C335 1.264 . S
O326 Mg322 2.072 . S
O326 C336 1.260 . S
Mg327 O328 2.180 . S
Mg327 O329 2.030 . S
Mg327 O330 1.990 . S
Mg327 O331 2.117 . S
O328 Mg322 2.099 . S
O328 Mg327 2.180 . S
O328 C337 1.279 . S
O329 Mg327 2.030 . S
O329 C335 1.248 . S
O330 Mg327 1.990 . S
O330 C336 1.253 . S
O331 Mg327 2.117 . S
O331 C337 1.250 . S
C332 O338 1.248 . S
C332 O339 1.264 . S
C333 O319 1.253 . S
C333 O321 1.260 . S
C334 O323 1.279 . S
C334 O324 1.250 . S
C335 O325 1.264 . S
C335 O329 1.248 . S
C336 O326 1.260 . S
C336 O330 1.253 . S
C337 O328 1.279 . S
C337 O331 1.250 . S
O338 Mg320 2.030 . S
O338 C332 1.248 . S
O339 Mg322 2.079 1_655 S
O339 C332 1.264 . S
H340 C348 0.929 . S
H341 C350 0.930 . S
H342 C352 0.930 . S
H343 C355 0.929 . S
H344 C358 0.930 . S
H345 C360 0.960 . S
H346 C360 0.960 . S
H347 C360 0.960 . S
C348 H340 0.929 . S
C348 C349 1.377 . S
C348 C350 1.384 . S
C349 C348 1.377 . S
C349 C355 1.390 . S
C350 H341 0.930 . S
C350 C348 1.384 . S
C350 C351 1.372 . S
C351 C350 1.372 . S
C351 C352 1.400 . S
C351 C356 1.490 . S
C352 H342 0.930 . S
C352 C351 1.400 . S
C352 C355 1.386 . S
H353 C369 0.930 . S
H354 C370 0.931 . S
C355 H343 0.929 . S
C355 C349 1.390 . S
C355 C352 1.386 . S
C356 C351 1.490 . S
C356 C358 1.395 . S
C356 C359 1.403 . S
H357 C363 0.930 . S
C358 H344 0.930 . S
C358 C356 1.395 . S
C358 C361 1.403 . S
C359 C356 1.403 . S
C359 C360 1.524 . S
C359 C363 1.400 . S
C360 H345 0.960 . S
C360 H346 0.960 . S
C360 H347 0.960 . S
C360 C359 1.524 . S
C361 C358 1.403 . S
C361 C362 1.392 . S
C361 C365 1.495 . S
C362 C361 1.392 . S
C362 C363 1.385 . S
C362 C364 1.478 . S
C363 H357 0.930 . S
C363 C359 1.400 . S
C363 C362 1.385 . S
C364 C362 1.478 . S
C364 C366 1.381 . S
C364 C370 1.383 . S
C365 C361 1.495 . S
C365 H371 0.959 . S
C365 H372 0.961 . S
C365 H373 0.960 . S
C366 C364 1.381 . S
C366 C367 1.394 . S
C366 H374 0.930 . S
C367 C366 1.394 . S
C367 C368 1.383 . S
C367 H375 0.929 . S
C368 C367 1.383 . S
C368 C369 1.377 . S
C369 H353 0.930 . S
C369 C368 1.377 . S
C369 C370 1.379 . S
C370 H354 0.931 . S
C370 C364 1.383 . S
C370 C369 1.379 . S
H371 C365 0.959 . S
H372 C365 0.961 . S
H373 C365 0.960 . S
H374 C366 0.930 . S
H375 C367 0.929 . S
H376 C384 0.929 . S
H377 C386 0.930 . S
H378 C388 0.930 . S
H379 C391 0.929 . S
H380 C394 0.930 . S
H381 C396 0.960 . S
H382 C396 0.960 . S
H383 C396 0.960 . S
C384 H376 0.929 . S
C384 C385 1.377 . S
C384 C386 1.384 . S
C385 C384 1.377 . S
C385 C391 1.390 . S
C386 H377 0.930 . S
C386 C384 1.384 . S
C386 C387 1.372 . S
C387 C386 1.372 . S
C387 C388 1.400 . S
C387 C392 1.490 . S
C388 H378 0.930 . S
C388 C387 1.400 . S
C388 C391 1.386 . S
H389 C405 0.930 . S
H390 C406 0.931 . S
C391 H379 0.929 . S
C391 C385 1.390 . S
C391 C388 1.386 . S
C392 C387 1.490 . S
C392 C394 1.395 . S
C392 C395 1.403 . S
H393 C399 0.930 . S
C394 H380 0.930 . S
C394 C392 1.395 . S
C394 C397 1.403 . S
C395 C392 1.403 . S
C395 C396 1.524 . S
C395 C399 1.400 . S
C396 H381 0.960 . S
C396 H382 0.960 . S
C396 H383 0.960 . S
C396 C395 1.524 . S
C397 C394 1.403 . S
C397 C398 1.392 . S
C397 C401 1.495 . S
C398 C397 1.392 . S
C398 C399 1.385 . S
C398 C400 1.478 . S
C399 H393 0.930 . S
C399 C395 1.400 . S
C399 C398 1.385 . S
C400 C398 1.478 . S
C400 C402 1.381 . S
C400 C406 1.383 . S
C401 C397 1.495 . S
C401 H407 0.959 . S
C401 H408 0.961 . S
C401 H409 0.960 . S
C402 C400 1.381 . S
C402 C403 1.394 . S
C402 H410 0.930 . S
C403 C402 1.394 . S
C403 C404 1.383 . S
C403 H411 0.929 . S
C404 C403 1.383 . S
C404 C405 1.377 . S
C405 H389 0.930 . S
C405 C404 1.377 . S
C405 C406 1.379 . S
C406 H390 0.931 . S
C406 C400 1.383 . S
C406 C405 1.379 . S
H407 C401 0.959 . S
H408 C401 0.961 . S
H409 C401 0.960 . S
H410 C402 0.930 . S
H411 C403 0.929 . S
H412 C420 0.929 . S
H413 C422 0.930 . S
H414 C424 0.930 . S
H415 C427 0.929 . S
H416 C430 0.930 . S
H417 C432 0.960 . S
H418 C432 0.960 . S
H419 C432 0.960 . S
C420 H412 0.929 . S
C420 C421 1.377 . S
C420 C422 1.384 . S
C421 C420 1.377 . S
C421 C427 1.390 . S
C422 H413 0.930 . S
C422 C420 1.384 . S
C422 C423 1.372 . S
C423 C422 1.372 . S
C423 C424 1.400 . S
C423 C428 1.490 . S
C424 H414 0.930 . S
C424 C423 1.400 . S
C424 C427 1.386 . S
H425 C441 0.930 . S
H426 C442 0.931 . S
C427 H415 0.929 . S
C427 C421 1.390 . S
C427 C424 1.386 . S
C428 C423 1.490 . S
C428 C430 1.395 . S
C428 C431 1.403 . S
H429 C435 0.930 . S
C430 H416 0.930 . S
C430 C428 1.395 . S
C430 C433 1.403 . S
C431 C428 1.403 . S
C431 C432 1.524 . S
C431 C435 1.400 . S
C432 H417 0.960 . S
C432 H418 0.960 . S
C432 H419 0.960 . S
C432 C431 1.524 . S
C433 C430 1.403 . S
C433 C434 1.392 . S
C433 C437 1.495 . S
C434 C433 1.392 . S
C434 C435 1.385 . S
C434 C436 1.478 . S
C435 H429 0.930 . S
C435 C431 1.400 . S
C435 C434 1.385 . S
C436 C434 1.478 . S
C436 C438 1.381 . S
C436 C442 1.383 . S
C437 C433 1.495 . S
C437 H443 0.959 . S
C437 H444 0.961 . S
C437 H445 0.960 . S
C438 C436 1.381 . S
C438 C439 1.394 . S
C438 H446 0.930 . S
C439 C438 1.394 . S
C439 C440 1.383 . S
C439 H447 0.929 . S
C440 C439 1.383 . S
C440 C441 1.377 . S
C441 H425 0.930 . S
C441 C440 1.377 . S
C441 C442 1.379 . S
C442 H426 0.931 . S
C442 C436 1.383 . S
C442 C441 1.379 . S
H443 C437 0.959 . S
H444 C437 0.961 . S
H445 C437 0.960 . S
H446 C438 0.930 . S
H447 C439 0.929 . S
H448 C456 0.929 . S
H449 C458 0.930 . S
H450 C460 0.930 . S
H451 C463 0.929 . S
H452 C466 0.930 . S
H453 C468 0.961 . S
H454 C468 0.960 . S
H455 C468 0.960 1_455 S
C456 H448 0.929 . S
C456 C457 1.401 . S
C456 C458 1.384 . S
C457 C456 1.401 . S
C457 C463 1.367 1_655 S
C458 H449 0.930 . S
C458 C456 1.384 . S
C458 C459 1.372 . S
C459 C458 1.372 . S
C459 C460 1.400 1_655 S
C459 C464 1.490 . S
C460 H450 0.930 . S
C460 C459 1.400 1_455 S
C460 C463 1.386 . S
H461 C477 0.930 . S
H462 C478 0.931 . S
C463 H451 0.929 . S
C463 C457 1.367 1_455 S
C463 C460 1.386 . S
C464 C459 1.490 . S
C464 C466 1.395 . S
C464 C467 1.403 . S
H465 C471 0.930 . S
C466 H452 0.930 . S
C466 C464 1.395 . S
C466 C469 1.403 . S
C467 C464 1.403 . S
C467 C468 1.524 . S
C467 C471 1.400 . S
C468 H453 0.961 . S
C468 H454 0.960 . S
C468 H455 0.960 1_655 S
C468 C467 1.524 . S
C469 C466 1.403 . S
C469 C470 1.392 . S
C469 C473 1.495 . S
C470 C469 1.392 . S
C470 C471 1.385 . S
C470 C472 1.478 . S
C471 H465 0.930 . S
C471 C467 1.400 . S
C471 C470 1.385 . S
C472 C470 1.478 . S
C472 C474 1.381 . S
C472 C478 1.383 1_655 S
C473 C469 1.495 . S
C473 H479 0.959 . S
C473 H480 0.961 1_655 S
C473 H481 0.960 . S
C474 C472 1.381 . S
C474 C475 1.394 . S
C474 H482 0.930 . S
C475 C474 1.394 . S
C475 C476 1.383 . S
C475 H483 0.929 . S
C476 C475 1.383 . S
C476 C477 1.377 1_655 S
C477 H461 0.930 . S
C477 C476 1.377 1_455 S
C477 C478 1.379 . S
C478 H462 0.931 . S
C478 C472 1.383 1_455 S
C478 C477 1.379 . S
H479 C473 0.959 . S
H480 C473 0.961 1_455 S
H481 C473 0.960 . S
H482 C474 0.930 . S
H483 C475 0.929 . S
H484 C492 0.929 . S
H485 C494 0.930 . S
H486 C496 0.930 . S
H487 C499 0.929 . S
H488 C502 0.934 . S
H489 C504 0.960 . S
H490 C504 0.960 . S
H491 C504 0.960 . S
C492 H484 0.929 . S
C492 C493 1.377 . S
C492 C494 1.384 . S
C493 C492 1.377 . S
C493 C499 1.390 1_554 S
C494 H485 0.930 . S
C494 C492 1.384 . S
C494 C495 1.372 1_554 S
C495 C494 1.372 1_556 S
C495 C496 1.400 . S
C495 C500 1.490 . S
C496 H486 0.930 . S
C496 C495 1.400 . S
C496 C499 1.386 . S
H497 C513 0.930 . S
H498 C514 0.931 . S
C499 H487 0.929 . S
C499 C493 1.390 1_556 S
C499 C496 1.386 . S
C500 C495 1.490 . S
C500 C502 1.395 . S
C500 C503 1.403 . S
H501 C507 0.930 . S
C502 H488 0.934 . S
C502 C500 1.395 . S
C502 C505 1.403 . S
C503 C500 1.403 . S
C503 C504 1.524 . S
C503 C507 1.400 . S
C504 H489 0.960 . S
C504 H490 0.960 . S
C504 H491 0.960 . S
C504 C503 1.524 . S
C505 C502 1.403 . S
C505 C506 1.392 . S
C505 C509 1.495 . S
C506 C505 1.392 . S
C506 C507 1.385 . S
C506 C508 1.478 . S
C507 H501 0.930 . S
C507 C503 1.400 . S
C507 C506 1.385 . S
C508 C506 1.478 . S
C508 C510 1.381 . S
C508 C514 1.383 . S
C509 C505 1.495 . S
C509 H515 0.959 . S
C509 H516 0.961 . S
C509 H517 0.960 . S
C510 C508 1.381 . S
C510 C511 1.394 . S
C510 H518 0.930 . S
C511 C510 1.394 . S
C511 C512 1.383 . S
C511 H519 0.929 1_565 S
C512 C511 1.383 . S
C512 C513 1.377 . S
C513 H497 0.930 . S
C513 C512 1.377 . S
C513 C514 1.379 . S
C514 H498 0.931 . S
C514 C508 1.383 . S
C514 C513 1.379 . S
H515 C509 0.959 . S
H516 C509 0.961 . S
H517 C509 0.960 . S
H518 C510 0.930 . S
H519 C511 0.929 1_545 S
H520 C528 0.929 . S
H521 C530 0.930 . S
H522 C532 0.930 1_556 S
H523 C535 0.929 . S
H524 C538 0.930 1_554 S
H525 C540 0.960 . S
H526 C540 0.960 . S
H527 C540 0.960 . S
C528 H520 0.929 . S
C528 C529 1.377 . S
C528 C530 1.384 . S
C529 C528 1.377 . S
C529 C535 1.390 . S
C530 H521 0.930 . S
C530 C528 1.384 . S
C530 C531 1.372 1_554 S
C531 C530 1.372 1_556 S
C531 C532 1.400 1_556 S
C531 C536 1.490 . S
C532 H522 0.930 1_554 S
C532 C531 1.400 1_554 S
C532 C535 1.386 . S
H533 C549 0.930 . S
H534 C550 0.931 . S
C535 H523 0.929 . S
C535 C529 1.390 . S
C535 C532 1.386 . S
C536 C531 1.490 . S
C536 C538 1.395 . S
C536 C539 1.403 . S
H537 C543 0.930 . S
C538 H524 0.930 1_556 S
C538 C536 1.395 . S
C538 C541 1.403 . S
C539 C536 1.403 . S
C539 C540 1.524 . S
C539 C543 1.400 . S
C540 H525 0.960 . S
C540 H526 0.960 . S
C540 H527 0.960 . S
C540 C539 1.524 . S
C541 C538 1.403 . S
C541 C542 1.392 . S
C541 C545 1.495 . S
C542 C541 1.392 . S
C542 C543 1.385 . S
C542 C544 1.478 . S
C543 H537 0.930 . S
C543 C539 1.400 . S
C543 C542 1.385 . S
C544 C542 1.478 . S
C544 C546 1.381 . S
C544 C550 1.383 . S
C545 C541 1.495 . S
C545 H551 0.959 1_556 S
C545 H552 0.961 . S
C545 H553 0.960 . S
C546 C544 1.381 . S
C546 C547 1.394 . S
C546 H554 0.930 . S
C547 C546 1.394 . S
C547 C548 1.383 . S
C547 H555 0.929 . S
C548 C547 1.383 . S
C548 C549 1.377 . S
C549 H533 0.930 . S
C549 C548 1.377 . S
C549 C550 1.379 . S
C550 H534 0.931 . S
C550 C544 1.383 . S
C550 C549 1.379 . S
H551 C545 0.959 1_554 S
H552 C545 0.961 . S
H553 C545 0.960 . S
H554 C546 0.930 . S
H555 C547 0.929 . S
H556 C564 0.929 . S
H557 C566 0.930 . S
H558 C568 0.930 . S
H559 C571 0.929 . S
H560 C574 0.930 1_554 S
H561 C576 0.960 . S
H562 C576 0.960 . S
H563 C576 0.960 . S
C564 H556 0.929 . S
C564 C565 1.377 . S
C564 C566 1.384 . S
C565 C564 1.377 . S
C565 C571 1.390 1_554 S
C566 H557 0.930 . S
C566 C564 1.384 . S
C566 C567 1.372 1_554 S
C567 C566 1.372 1_556 S
C567 C568 1.400 . S
C567 C572 1.490 . S
C568 H558 0.930 . S
C568 C567 1.400 . S
C568 C571 1.386 . S
H569 C585 0.930 . S
H570 C586 0.931 . S
C571 H559 0.929 . S
C571 C565 1.390 1_556 S
C571 C568 1.386 . S
C572 C567 1.490 . S
C572 C574 1.395 . S
C572 C575 1.403 . S
H573 C579 0.930 . S
C574 H560 0.930 1_556 S
C574 C572 1.395 . S
C574 C577 1.403 . S
C575 C572 1.403 . S
C575 C576 1.524 . S
C575 C579 1.400 . S
C576 H561 0.960 . S
C576 H562 0.960 . S
C576 H563 0.960 . S
C576 C575 1.524 . S
C577 C574 1.403 . S
C577 C578 1.392 . S
C577 C581 1.495 . S
C578 C577 1.392 . S
C578 C579 1.385 . S
C578 C580 1.478 . S
C579 H573 0.930 . S
C579 C575 1.400 . S
C579 C578 1.385 . S
C580 C578 1.478 . S
C580 C582 1.381 . S
C580 C586 1.383 . S
C581 C577 1.495 . S
C581 H587 0.959 1_556 S
C581 H588 0.961 . S
C581 H589 0.960 . S
C582 C580 1.381 . S
C582 C583 1.394 . S
C582 H590 0.930 . S
C583 C582 1.394 . S
C583 C584 1.383 . S
C583 H591 0.929 . S
C584 C583 1.383 . S
C584 C585 1.377 . S
C585 H569 0.930 . S
C585 C584 1.377 . S
C585 C586 1.379 . S
C586 H570 0.931 . S
C586 C580 1.383 . S
C586 C585 1.379 . S
H587 C581 0.959 1_554 S
H588 C581 0.961 . S
H589 C581 0.960 . S
H590 C582 0.930 . S
H591 C583 0.929 . S
H592 C600 0.929 . S
H593 C602 0.930 . S
H594 C604 0.930 . S
H595 C607 0.929 . S
H596 C610 0.936 . S
H597 C612 0.960 . S
H598 C612 0.960 . S
H599 C612 0.960 . S
C600 H592 0.929 . S
C600 C601 1.389 . S
C600 C602 1.384 1_554 S
C601 C600 1.389 . S
C601 C607 1.378 1_455 S
C602 H593 0.930 . S
C602 C600 1.384 1_556 S
C602 C603 1.372 . S
C603 C602 1.372 . S
C603 C604 1.400 1_456 S
C603 C608 1.490 . S
C604 H594 0.930 . S
C604 C603 1.400 1_654 S
C604 C607 1.386 . S
H605 C621 0.930 . S
H606 C622 0.931 . S
C607 H595 0.929 . S
C607 C601 1.378 1_655 S
C607 C604 1.386 . S
C608 C603 1.490 . S
C608 C610 1.395 . S
C608 C611 1.403 1_455 S
H609 C615 0.930 . S
C610 H596 0.936 . S
C610 C608 1.395 . S
C610 C613 1.403 . S
C611 C608 1.403 1_655 S
C611 C612 1.524 . S
C611 C615 1.400 . S
C612 H597 0.960 . S
C612 H598 0.960 . S
C612 H599 0.960 . S
C612 C611 1.524 . S
C613 C610 1.403 . S
C613 C614 1.392 . S
C613 C617 1.495 . S
C614 C613 1.392 . S
C614 C615 1.385 1_455 S
C614 C616 1.478 . S
C615 H609 0.930 . S
C615 C611 1.400 . S
C615 C614 1.385 1_655 S
C616 C614 1.478 . S
C616 C618 1.381 . S
C616 C622 1.383 1_455 S
C617 C613 1.495 . S
C617 H623 0.959 . S
C617 H624 0.961 . S
C617 H625 0.960 . S
C618 C616 1.381 . S
C618 C619 1.394 . S
C618 H626 0.930 . S
C619 C618 1.394 . S
C619 C620 1.383 . S
C619 H627 0.929 . S
C620 C619 1.383 . S
C620 C621 1.377 1_455 S
C621 H605 0.930 . S
C621 C620 1.377 1_655 S
C621 C622 1.379 . S
C622 H606 0.931 . S
C622 C616 1.383 1_655 S
C622 C621 1.379 . S
H623 C617 0.959 . S
H624 C617 0.961 . S
H625 C617 0.960 . S
H626 C618 0.930 . S
H627 C619 0.929 . S
H628 C636 0.929 . S
H629 C638 0.930 . S
H630 C640 0.930 . S
H631 C643 0.929 . S
H632 C646 0.930 . S
H633 C648 0.960 . S
H634 C648 0.960 . S
H635 C648 0.960 . S
C636 H628 0.929 . S
C636 C637 1.377 . S
C636 C638 1.384 . S
C637 C636 1.377 . S
C637 C643 1.390 1_455 S
C638 H629 0.930 . S
C638 C636 1.384 . S
C638 C639 1.372 1_455 S
C639 C638 1.372 1_655 S
C639 C640 1.400 . S
C639 C644 1.490 . S
C640 H630 0.930 . S
C640 C639 1.400 . S
C640 C643 1.386 . S
H641 C657 0.930 . S
H642 C658 0.931 . S
C643 H631 0.929 . S
C643 C637 1.390 1_655 S
C643 C640 1.386 . S
C644 C639 1.490 . S
C644 C646 1.395 . S
C644 C647 1.403 1_655 S
H645 C651 0.930 . S
C646 H632 0.930 . S
C646 C644 1.395 . S
C646 C649 1.403 . S
C647 C644 1.403 1_455 S
C647 C648 1.524 . S
C647 C651 1.399 . S
C648 H633 0.960 . S
C648 H634 0.960 . S
C648 H635 0.960 . S
C648 C647 1.524 . S
C649 C646 1.403 . S
C649 C650 1.392 . S
C649 C653 1.495 . S
C650 C649 1.392 . S
C650 C651 1.386 1_655 S
C650 C652 1.478 . S
C651 H645 0.930 . S
C651 C647 1.399 . S
C651 C650 1.386 1_455 S
C652 C650 1.478 . S
C652 C654 1.381 . S
C652 C658 1.383 . S
C653 C649 1.495 . S
C653 H659 0.959 . S
C653 H660 0.961 . S
C653 H661 0.960 . S
C654 C652 1.381 . S
C654 C655 1.394 . S
C654 H662 0.930 1_655 S
C655 C654 1.394 . S
C655 C656 1.383 . S
C655 H663 0.929 1_655 S
C656 C655 1.383 . S
C656 C657 1.377 . S
C657 H641 0.930 . S
C657 C656 1.377 . S
C657 C658 1.379 . S
C658 H642 0.931 . S
C658 C652 1.383 . S
C658 C657 1.379 . S
H659 C653 0.959 . S
H660 C653 0.961 . S
H661 C653 0.960 . S
H662 C654 0.930 1_455 S
H663 C655 0.929 1_455 S
H664 C672 0.929 . S
H665 C674 0.930 . S
H666 C676 0.930 . S
H667 C679 0.929 . S
H668 C682 0.930 . S
H669 C684 0.960 . S
H670 C684 0.960 . S
H671 C684 0.960 . S
C672 H664 0.929 . S
C672 C673 1.377 . S
C672 C674 1.384 . S
C673 C672 1.377 . S
C673 C679 1.390 . S
C674 H665 0.930 . S
C674 C672 1.384 . S
C674 C675 1.372 . S
C675 C674 1.372 . S
C675 C676 1.400 . S
C675 C680 1.490 . S
C676 H666 0.930 . S
C676 C675 1.400 . S
C676 C679 1.386 . S
H677 C693 0.930 . S
H678 C694 0.931 . S
C679 H667 0.929 . S
C679 C673 1.390 . S
C679 C676 1.386 . S
C680 C675 1.490 . S
C680 C682 1.395 . S
C680 C683 1.403 . S
H681 C687 0.930 . S
C682 H668 0.930 . S
C682 C680 1.395 . S
C682 C685 1.403 . S
C683 C680 1.403 . S
C683 C684 1.524 . S
C683 C687 1.400 . S
C684 H669 0.960 . S
C684 H670 0.960 . S
C684 H671 0.960 . S
C684 C683 1.524 . S
C685 C682 1.403 . S
C685 C686 1.392 . S
C685 C689 1.495 . S
C686 C685 1.392 . S
C686 C687 1.385 . S
C686 C688 1.478 . S
C687 H681 0.930 . S
C687 C683 1.400 . S
C687 C686 1.385 . S
C688 C686 1.478 . S
C688 C690 1.381 . S
C688 C694 1.383 . S
C689 C685 1.495 . S
C689 H695 0.959 . S
C689 H696 0.961 . S
C689 H697 0.960 . S
C690 C688 1.381 . S
C690 C691 1.394 . S
C690 H698 0.930 . S
C691 C690 1.394 . S
C691 C692 1.383 . S
C691 H699 0.929 . S
C692 C691 1.383 . S
C692 C693 1.377 . S
C693 H677 0.930 . S
C693 C692 1.377 . S
C693 C694 1.379 . S
C694 H678 0.931 . S
C694 C688 1.383 . S
C694 C693 1.379 . S
H695 C689 0.959 . S
H696 C689 0.961 . S
H697 C689 0.960 . S
H698 C690 0.930 . S
H699 C691 0.929 . S
H700 C708 0.929 . S
H701 C710 0.930 . S
H702 C712 0.930 . S
H703 C715 0.929 . S
H704 C718 0.930 . S
H705 C720 0.960 . S
H706 C720 0.960 . S
H707 C720 0.960 . S
C708 H700 0.929 . S
C708 C709 1.377 . S
C708 C710 1.384 . S
C709 C708 1.377 . S
C709 C715 1.390 . S
C710 H701 0.930 . S
C710 C708 1.384 . S
C710 C711 1.372 . S
C711 C710 1.372 . S
C711 C712 1.400 . S
C711 C716 1.490 . S
C712 H702 0.930 . S
C712 C711 1.400 . S
C712 C715 1.386 . S
H713 C729 0.930 . S
H714 C730 0.931 . S
C715 H703 0.929 . S
C715 C709 1.390 . S
C715 C712 1.386 . S
C716 C711 1.490 . S
C716 C718 1.395 . S
C716 C719 1.403 . S
H717 C723 0.930 . S
C718 H704 0.930 . S
C718 C716 1.395 . S
C718 C721 1.403 . S
C719 C716 1.403 . S
C719 C720 1.524 . S
C719 C723 1.400 . S
C720 H705 0.960 . S
C720 H706 0.960 . S
C720 H707 0.960 . S
C720 C719 1.524 . S
C721 C718 1.403 . S
C721 C722 1.392 . S
C721 C725 1.495 . S
C722 C721 1.392 . S
C722 C723 1.385 . S
C722 C724 1.478 . S
C723 H717 0.930 . S
C723 C719 1.400 . S
C723 C722 1.385 . S
C724 C722 1.478 . S
C724 C726 1.381 . S
C724 C730 1.383 . S
C725 C721 1.495 . S
C725 H731 0.959 . S
C725 H732 0.961 . S
C725 H733 0.960 . S
C726 C724 1.381 . S
C726 C727 1.394 . S
C726 H734 0.930 . S
C727 C726 1.394 . S
C727 C728 1.383 . S
C727 H735 0.929 . S
C728 C727 1.383 . S
C728 C729 1.377 . S
C729 H713 0.930 . S
C729 C728 1.377 . S
C729 C730 1.379 . S
C730 H714 0.931 . S
C730 C724 1.383 . S
C730 C729 1.379 . S
H731 C725 0.959 . S
H732 C725 0.961 . S
H733 C725 0.960 . S
H734 C726 0.930 . S
H735 C727 0.929 . S
H736 C744 0.929 . S
H737 C746 0.930 . S
H738 C748 0.930 . S
H739 C751 0.929 . S
H740 C754 0.930 . S
H741 C756 0.960 . S
H742 C756 0.960 . S
H743 C756 0.960 . S
C744 H736 0.929 . S
C744 C745 1.377 . S
C744 C746 1.384 . S
C745 C744 1.377 . S
C745 C751 1.390 . S
C746 H737 0.930 . S
C746 C744 1.384 . S
C746 C747 1.372 . S
C747 C746 1.372 . S
C747 C748 1.400 . S
C747 C752 1.490 . S
C748 H738 0.930 . S
C748 C747 1.400 . S
C748 C751 1.386 . S
H749 C765 0.930 . S
H750 C766 0.931 . S
C751 H739 0.929 . S
C751 C745 1.390 . S
C751 C748 1.386 . S
C752 C747 1.490 . S
C752 C754 1.395 . S
C752 C755 1.403 . S
H753 C759 0.930 . S
C754 H740 0.930 . S
C754 C752 1.395 . S
C754 C757 1.403 . S
C755 C752 1.403 . S
C755 C756 1.524 . S
C755 C759 1.400 . S
C756 H741 0.960 . S
C756 H742 0.960 . S
C756 H743 0.960 . S
C756 C755 1.524 . S
C757 C754 1.403 . S
C757 C758 1.392 . S
C757 C761 1.495 . S
C758 C757 1.392 . S
C758 C759 1.385 . S
C758 C760 1.478 . S
C759 H753 0.930 . S
C759 C755 1.400 . S
C759 C758 1.385 . S
C760 C758 1.478 . S
C760 C762 1.381 . S
C760 C766 1.383 . S
C761 C757 1.495 . S
C761 H767 0.959 . S
C761 H768 0.961 . S
C761 H769 0.960 . S
C762 C760 1.381 . S
C762 C763 1.394 . S
C762 H770 0.930 . S
C763 C762 1.394 . S
C763 C764 1.383 . S
C763 H771 0.929 . S
C764 C763 1.383 . S
C764 C765 1.377 . S
C765 H749 0.930 . S
C765 C764 1.377 . S
C765 C766 1.379 . S
C766 H750 0.931 . S
C766 C760 1.383 . S
C766 C765 1.379 . S
H767 C761 0.959 . S
H768 C761 0.961 . S
H769 C761 0.960 . S
H770 C762 0.930 . S
H771 C763 0.929 . S
H772 C780 0.929 . S
H773 C782 0.930 . S
H774 C784 0.930 . S
H775 C787 0.929 . S
H776 C790 0.930 . S
H777 C792 0.960 . S
H778 C792 0.960 . S
H779 C792 0.960 1_455 S
C780 H772 0.929 . S
C780 C781 1.377 1_554 S
C780 C782 1.384 1_554 S
C781 C780 1.377 1_556 S
C781 C787 1.390 1_655 S
C782 H773 0.930 . S
C782 C780 1.384 1_556 S
C782 C783 1.372 1_655 S
C783 C782 1.372 1_455 S
C783 C784 1.400 . S
C783 C788 1.490 . S
C784 H774 0.930 . S
C784 C783 1.400 . S
C784 C787 1.386 . S
H785 C801 0.930 . S
H786 C802 0.931 . S
C787 H775 0.929 . S
C787 C781 1.390 1_455 S
C787 C784 1.386 . S
C788 C783 1.490 . S
C788 C790 1.395 . S
C788 C791 1.403 . S
H789 C795 0.930 . S
C790 H776 0.930 . S
C790 C788 1.395 . S
C790 C793 1.403 . S
C791 C788 1.403 . S
C791 C792 1.523 1_455 S
C791 C795 1.400 . S
C792 H777 0.960 . S
C792 H778 0.960 . S
C792 H779 0.960 1_655 S
C792 C791 1.523 1_655 S
C793 C790 1.403 . S
C793 C794 1.392 . S
C793 C797 1.495 . S
C794 C793 1.392 . S
C794 C795 1.385 . S
C794 C796 1.478 . S
C795 H789 0.930 . S
C795 C791 1.400 . S
C795 C794 1.385 . S
C796 C794 1.478 . S
C796 C798 1.381 1_455 S
C796 C802 1.383 . S
C797 C793 1.495 . S
C797 H803 0.959 1_556 S
C797 H804 0.961 . S
C797 H805 0.960 . S
C798 C796 1.381 1_655 S
C798 C799 1.394 . S
C798 H806 0.930 . S
C799 C798 1.394 . S
C799 C800 1.383 1_655 S
C799 H807 0.929 . S
C800 C799 1.383 1_455 S
C800 C801 1.377 . S
C801 H785 0.930 . S
C801 C800 1.377 . S
C801 C802 1.379 . S
C802 H786 0.931 . S
C802 C796 1.383 . S
C802 C801 1.379 . S
H803 C797 0.959 1_554 S
H804 C797 0.961 . S
H805 C797 0.960 . S
H806 C798 0.930 . S
H807 C799 0.929 . S
H808 C816 0.929 . S
H809 C818 0.939 . S
H810 C820 0.930 . S
H811 C823 0.929 . S
H812 C826 0.930 . S
H813 C828 0.960 . S
H814 C828 0.960 . S
H815 C828 0.960 . S
C816 H808 0.929 . S
C816 C817 1.377 1_554 S
C816 C818 1.384 1_554 S
C817 C816 1.377 1_556 S
C817 C823 1.390 . S
C818 H809 0.939 . S
C818 C816 1.384 1_556 S
C818 C819 1.372 . S
C819 C818 1.372 . S
C819 C820 1.400 . S
C819 C824 1.490 . S
C820 H810 0.930 . S
C820 C819 1.400 . S
C820 C823 1.386 . S
H821 C837 0.930 . S
H822 C838 0.931 . S
C823 H811 0.929 . S
C823 C817 1.390 . S
C823 C820 1.386 . S
C824 C819 1.490 . S
C824 C826 1.395 . S
C824 C827 1.403 . S
H825 C831 0.930 . S
C826 H812 0.930 . S
C826 C824 1.395 . S
C826 C829 1.403 . S
C827 C824 1.403 . S
C827 C828 1.524 . S
C827 C831 1.400 . S
C828 H813 0.960 . S
C828 H814 0.960 . S
C828 H815 0.960 . S
C828 C827 1.524 . S
C829 C826 1.403 . S
C829 C830 1.392 . S
C829 C833 1.495 1_565 S
C830 C829 1.392 . S
C830 C831 1.385 . S
C830 C832 1.478 . S
C831 H825 0.930 . S
C831 C827 1.400 . S
C831 C830 1.385 . S
C832 C830 1.478 . S
C832 C834 1.381 . S
C832 C838 1.383 . S
C833 C829 1.495 1_545 S
C833 H839 0.959 . S
C833 H840 0.961 . S
C833 H841 0.960 . S
C834 C832 1.381 . S
C834 C835 1.394 1_565 S
C834 H842 0.930 1_565 S
C835 C834 1.394 1_545 S
C835 C836 1.383 . S
C835 H843 0.929 . S
C836 C835 1.383 . S
C836 C837 1.377 1_545 S
C837 H821 0.930 . S
C837 C836 1.377 1_565 S
C837 C838 1.379 . S
C838 H822 0.931 . S
C838 C832 1.383 . S
C838 C837 1.379 . S
H839 C833 0.959 . S
H840 C833 0.961 . S
H841 C833 0.960 . S
H842 C834 0.930 1_545 S
H843 C835 0.929 . S
H844 C852 0.924 1_554 S
H845 C854 0.930 . S
H846 C856 0.930 . S
H847 C859 0.929 . S
H848 C862 0.930 . S
H849 C864 0.960 . S
H850 C864 0.960 . S
H851 C864 0.960 . S
C852 H844 0.924 1_556 S
C852 C853 1.379 . S
C852 C854 1.388 . S
C853 C852 1.379 . S
C853 C859 1.390 . S
C854 H845 0.930 . S
C854 C852 1.388 . S
C854 C855 1.372 . S
C855 C854 1.372 . S
C855 C856 1.400 . S
C855 C860 1.490 . S
C856 H846 0.930 . S
C856 C855 1.400 . S
C856 C859 1.386 . S
H857 C873 0.930 . S
H858 C874 0.931 . S
C859 H847 0.929 . S
C859 C853 1.390 . S
C859 C856 1.386 . S
C860 C855 1.490 . S
C860 C862 1.395 . S
C860 C863 1.403 . S
H861 C867 0.930 . S
C862 H848 0.930 . S
C862 C860 1.395 . S
C862 C865 1.403 . S
C863 C860 1.403 . S
C863 C864 1.524 . S
C863 C867 1.400 . S
C864 H849 0.960 . S
C864 H850 0.960 . S
C864 H851 0.960 . S
C864 C863 1.524 . S
C865 C862 1.403 . S
C865 C866 1.392 . S
C865 C869 1.495 . S
C866 C865 1.392 . S
C866 C867 1.385 . S
C866 C868 1.478 . S
C867 H861 0.930 . S
C867 C863 1.400 . S
C867 C866 1.385 . S
C868 C866 1.478 . S
C868 C870 1.381 . S
C868 C874 1.383 . S
C869 C865 1.495 . S
C869 H875 0.959 1_556 S
C869 H876 0.961 . S
C869 H877 0.960 . S
C870 C868 1.381 . S
C870 C871 1.394 . S
C870 H878 0.930 . S
C871 C870 1.394 . S
C871 C872 1.383 . S
C871 H879 0.929 . S
C872 C871 1.383 . S
C872 C873 1.377 . S
C873 H857 0.930 . S
C873 C872 1.377 . S
C873 C874 1.379 . S
C874 H858 0.931 . S
C874 C868 1.383 . S
C874 C873 1.379 . S
H875 C869 0.959 1_554 S
H876 C869 0.961 . S
H877 C869 0.960 . S
H878 C870 0.930 . S
H879 C871 0.929 . S
H880 C888 0.929 . S
H881 C890 0.930 . S
H882 C892 0.930 . S
H883 C895 0.929 . S
H884 C898 0.930 . S
H885 C900 0.960 1_554 S
H886 C900 0.960 1_554 S
H887 C900 0.960 . S
C888 H880 0.929 . S
C888 C889 1.377 . S
C888 C890 1.384 . S
C889 C888 1.377 . S
C889 C895 1.390 . S
C890 H881 0.930 . S
C890 C888 1.384 . S
C890 C891 1.372 . S
C891 C890 1.372 . S
C891 C892 1.400 . S
C891 C896 1.490 . S
C892 H882 0.930 . S
C892 C891 1.400 . S
C892 C895 1.386 . S
H893 C909 0.930 . S
H894 C910 0.931 . S
C895 H883 0.929 . S
C895 C889 1.390 . S
C895 C892 1.386 . S
C896 C891 1.490 . S
C896 C898 1.395 . S
C896 C899 1.403 . S
H897 C903 0.930 . S
C898 H884 0.930 . S
C898 C896 1.395 . S
C898 C901 1.403 . S
C899 C896 1.403 . S
C899 C900 1.524 . S
C899 C903 1.400 . S
C900 H885 0.960 1_556 S
C900 H886 0.960 1_556 S
C900 H887 0.960 . S
C900 C899 1.524 . S
C901 C898 1.403 . S
C901 C902 1.392 . S
C901 C905 1.495 . S
C902 C901 1.392 . S
C902 C903 1.385 . S
C902 C904 1.478 . S
C903 H897 0.930 . S
C903 C899 1.400 . S
C903 C902 1.385 . S
C904 C902 1.478 . S
C904 C906 1.381 . S
C904 C910 1.383 . S
C905 C901 1.495 . S
C905 H911 0.959 . S
C905 H912 0.961 . S
C905 H913 0.960 . S
C906 C904 1.381 . S
C906 C907 1.394 . S
C906 H914 0.930 . S
C907 C906 1.394 . S
C907 C908 1.383 . S
C907 H915 0.929 . S
C908 C907 1.383 . S
C908 C909 1.377 . S
C909 H893 0.930 . S
C909 C908 1.377 . S
C909 C910 1.379 . S
C910 H894 0.931 . S
C910 C904 1.383 . S
C910 C909 1.379 . S
H911 C905 0.959 . S
H912 C905 0.961 . S
H913 C905 0.960 . S
H914 C906 0.930 . S
H915 C907 0.929 . S
H916 C924 0.930 . S
H917 C926 0.930 1_556 S
H918 C928 0.930 . S
H919 C931 0.929 . S
H920 C934 0.930 . S
H921 C936 0.960 . S
H922 C936 0.960 . S
H923 C936 0.960 . S
C924 H916 0.930 . S
C924 C925 1.377 1_655 S
C924 C926 1.384 1_655 S
C925 C924 1.377 1_455 S
C925 C931 1.391 . S
C926 H917 0.930 1_554 S
C926 C924 1.384 1_455 S
C926 C927 1.374 . S
C927 C926 1.374 . S
C927 C928 1.400 . S
C927 C932 1.490 . S
C928 H918 0.930 . S
C928 C927 1.400 . S
C928 C931 1.386 . S
H929 C945 0.930 . S
H930 C946 0.931 . S
C931 H919 0.929 . S
C931 C925 1.391 . S
C931 C928 1.386 . S
C932 C927 1.490 . S
C932 C934 1.395 1_554 S
C932 C935 1.403 1_455 S
H933 C939 0.930 . S
C934 H920 0.930 . S
C934 C932 1.395 1_556 S
C934 C937 1.403 . S
C935 C932 1.403 1_655 S
C935 C936 1.524 . S
C935 C939 1.400 1_554 S
C936 H921 0.960 . S
C936 H922 0.960 . S
C936 H923 0.960 . S
C936 C935 1.524 . S
C937 C934 1.403 . S
C937 C938 1.392 . S
C937 C941 1.495 . S
C938 C937 1.392 . S
C938 C939 1.385 1_455 S
C938 C940 1.478 . S
C939 H933 0.930 . S
C939 C935 1.400 1_556 S
C939 C938 1.385 1_655 S
C940 C938 1.478 . S
C940 C942 1.381 . S
C940 C946 1.383 . S
C941 C937 1.495 . S
C941 H947 0.959 . S
C941 H948 0.961 . S
C941 H949 0.960 . S
C942 C940 1.381 . S
C942 C943 1.394 . S
C942 H950 0.930 . S
C943 C942 1.394 . S
C943 C944 1.383 . S
C943 H951 0.929 . S
C944 C943 1.383 . S
C944 C945 1.377 . S
C945 H929 0.930 . S
C945 C944 1.377 . S
C945 C946 1.379 . S
C946 H930 0.931 . S
C946 C940 1.383 . S
C946 C945 1.379 . S
H947 C941 0.959 . S
H948 C941 0.961 . S
H949 C941 0.960 . S
H950 C942 0.930 . S
H951 C943 0.929 . S
H952 C960 0.929 . S
H953 C962 0.930 1_556 S
H954 C964 0.930 . S
H955 C967 0.929 . S
H956 C970 0.930 . S
H957 C972 0.960 . S
H958 C972 0.960 . S
H959 C972 0.960 . S
C960 H952 0.929 . S
C960 C961 1.377 . S
C960 C962 1.384 . S
C961 C960 1.377 . S
C961 C967 1.390 . S
C962 H953 0.930 1_554 S
C962 C960 1.384 . S
C962 C963 1.372 . S
C963 C962 1.372 . S
C963 C964 1.400 . S
C963 C968 1.490 . S
C964 H954 0.930 . S
C964 C963 1.400 . S
C964 C967 1.386 . S
H965 C981 0.930 . S
H966 C982 0.931 . S
C967 H955 0.929 . S
C967 C961 1.390 . S
C967 C964 1.386 . S
C968 C963 1.490 . S
C968 C970 1.395 1_554 S
C968 C971 1.403 . S
H969 C975 0.930 . S
C970 H956 0.930 . S
C970 C968 1.395 1_556 S
C970 C973 1.403 . S
C971 C968 1.403 . S
C971 C972 1.524 . S
C971 C975 1.400 1_554 S
C972 H957 0.960 . S
C972 H958 0.960 . S
C972 H959 0.960 . S
C972 C971 1.524 . S
C973 C970 1.403 . S
C973 C974 1.392 . S
C973 C977 1.495 . S
C974 C973 1.392 . S
C974 C975 1.385 . S
C974 C976 1.478 . S
C975 H969 0.930 . S
C975 C971 1.400 1_556 S
C975 C974 1.385 . S
C976 C974 1.478 . S
C976 C978 1.381 . S
C976 C982 1.383 . S
C977 C973 1.495 . S
C977 H983 0.959 . S
C977 H984 0.961 . S
C977 H985 0.960 . S
C978 C976 1.381 . S
C978 C979 1.394 . S
C978 H986 0.930 . S
C979 C978 1.394 . S
C979 C980 1.383 . S
C979 H987 0.929 . S
C980 C979 1.383 . S
C980 C981 1.377 . S
C981 H965 0.930 . S
C981 C980 1.377 . S
C981 C982 1.379 . S
C982 H966 0.931 . S
C982 C976 1.383 . S
C982 C981 1.379 . S
H983 C977 0.959 . S
H984 C977 0.961 . S
H985 C977 0.960 . S
H986 C978 0.930 . S
H987 C979 0.929 . S
H988 C996 0.929 . S
H989 C998 0.930 . S
H990 C1000 0.930 . S
H991 C1003 0.929 . S
H992 C1006 0.930 . S
H993 C1008 0.960 . S
H994 C1008 0.960 . S
H995 C1008 0.960 . S
C996 H988 0.929 . S
C996 C997 1.377 . S
C996 C998 1.384 . S
C997 C996 1.377 . S
C997 C1003 1.390 . S
C998 H989 0.930 . S
C998 C996 1.384 . S
C998 C999 1.372 . S
C999 C998 1.372 . S
C999 C1000 1.400 . S
C999 C1004 1.490 . S
C1000 H990 0.930 . S
C1000 C999 1.400 . S
C1000 C1003 1.386 . S
H1001 C1017 0.930 . S
H1002 C1018 0.931 . S
C1003 H991 0.929 . S
C1003 C997 1.390 . S
C1003 C1000 1.386 . S
C1004 C999 1.490 . S
C1004 C1006 1.395 1_554 S
C1004 C1007 1.403 . S
H1005 C1011 0.930 . S
C1006 H992 0.930 . S
C1006 C1004 1.395 1_556 S
C1006 C1009 1.403 . S
C1007 C1004 1.403 . S
C1007 C1008 1.524 . S
C1007 C1011 1.400 1_554 S
C1008 H993 0.960 . S
C1008 H994 0.960 . S
C1008 H995 0.960 . S
C1008 C1007 1.524 . S
C1009 C1006 1.403 . S
C1009 C1010 1.392 . S
C1009 C1013 1.495 . S
C1010 C1009 1.392 . S
C1010 C1011 1.385 . S
C1010 C1012 1.478 . S
C1011 H1005 0.930 . S
C1011 C1007 1.400 1_556 S
C1011 C1010 1.385 . S
C1012 C1010 1.478 . S
C1012 C1014 1.381 . S
C1012 C1018 1.383 . S
C1013 C1009 1.495 . S
C1013 H1019 0.959 . S
C1013 H1020 0.961 . S
C1013 H1021 0.960 . S
C1014 C1012 1.381 . S
C1014 C1015 1.394 . S
C1014 H1022 0.930 . S
C1015 C1014 1.394 . S
C1015 C1016 1.383 . S
C1015 H1023 0.929 . S
C1016 C1015 1.383 . S
C1016 C1017 1.377 . S
C1017 H1001 0.930 . S
C1017 C1016 1.377 . S
C1017 C1018 1.379 . S
C1018 H1002 0.931 . S
C1018 C1012 1.383 . S
C1018 C1017 1.379 . S
H1019 C1013 0.959 . S
H1020 C1013 0.961 . S
H1021 C1013 0.960 . S
H1022 C1014 0.930 . S
H1023 C1015 0.929 . S
H1024 C1032 0.929 . S
H1025 C1034 0.930 . S
H1026 C1036 0.930 . S
H1027 C1039 0.929 . S
H1028 C1042 0.930 1_554 S
H1029 C1044 0.960 . S
H1030 C1044 0.960 . S
H1031 C1044 0.960 . S
C1032 H1024 0.929 . S
C1032 C1033 1.377 . S
C1032 C1034 1.384 . S
C1033 C1032 1.377 . S
C1033 C1039 1.390 . S
C1034 H1025 0.930 . S
C1034 C1032 1.384 . S
C1034 C1035 1.372 . S
C1035 C1034 1.372 . S
C1035 C1036 1.400 . S
C1035 C1040 1.490 . S
C1036 H1026 0.930 . S
C1036 C1035 1.400 . S
C1036 C1039 1.386 . S
H1037 C1053 0.930 . S
H1038 C1054 0.931 . S
C1039 H1027 0.929 . S
C1039 C1033 1.390 . S
C1039 C1036 1.386 . S
C1040 C1035 1.490 . S
C1040 C1042 1.395 1_554 S
C1040 C1043 1.403 . S
H1041 C1047 0.930 . S
C1042 H1028 0.930 1_556 S
C1042 C1040 1.395 1_556 S
C1042 C1045 1.403 . S
C1043 C1040 1.403 . S
C1043 C1044 1.524 . S
C1043 C1047 1.400 1_554 S
C1044 H1029 0.960 . S
C1044 H1030 0.960 . S
C1044 H1031 0.960 . S
C1044 C1043 1.524 . S
C1045 C1042 1.403 . S
C1045 C1046 1.392 . S
C1045 C1049 1.495 . S
C1046 C1045 1.392 . S
C1046 C1047 1.385 . S
C1046 C1048 1.478 . S
C1047 H1041 0.930 . S
C1047 C1043 1.400 1_556 S
C1047 C1046 1.385 . S
C1048 C1046 1.478 . S
C1048 C1050 1.381 . S
C1048 C1054 1.383 . S
C1049 C1045 1.495 . S
C1049 H1055 0.959 . S
C1049 H1056 0.961 . S
C1049 H1057 0.960 . S
C1050 C1048 1.381 . S
C1050 C1051 1.394 . S
C1050 H1058 0.930 . S
C1051 C1050 1.394 . S
C1051 C1052 1.383 . S
C1051 H1059 0.929 . S
C1052 C1051 1.383 . S
C1052 C1053 1.377 . S
C1053 H1037 0.930 . S
C1053 C1052 1.377 . S
C1053 C1054 1.379 . S
C1054 H1038 0.931 . S
C1054 C1048 1.383 . S
C1054 C1053 1.379 . S
H1055 C1049 0.959 . S
H1056 C1049 0.961 . S
H1057 C1049 0.960 . S
H1058 C1050 0.930 . S
H1059 C1051 0.929 . S
H1060 C1068 0.929 . S
H1061 C1070 0.930 . S
H1062 C1072 0.930 . S
H1063 C1075 0.929 . S
H1064 C1078 0.930 . S
H1065 C1080 0.960 . S
H1066 C1080 0.960 . S
H1067 C1080 0.960 . S
C1068 H1060 0.929 . S
C1068 C1069 1.390 . S
C1068 C1070 1.384 . S
C1069 C1068 1.390 . S
C1069 C1075 1.378 1_655 S
C1070 H1061 0.930 . S
C1070 C1068 1.384 . S
C1070 C1071 1.372 . S
C1071 C1070 1.372 . S
C1071 C1072 1.400 1_655 S
C1071 C1076 1.490 . S
C1072 H1062 0.930 . S
C1072 C1071 1.400 1_455 S
C1072 C1075 1.386 . S
H1073 C1089 0.930 1_455 S
H1074 C1090 0.931 1_455 S
C1075 H1063 0.929 . S
C1075 C1069 1.378 1_455 S
C1075 C1072 1.386 . S
C1076 C1071 1.490 . S
C1076 C1078 1.395 . S
C1076 C1079 1.403 1_655 S
H1077 C1083 0.930 . S
C1078 H1064 0.930 . S
C1078 C1076 1.395 . S
C1078 C1081 1.403 . S
C1079 C1076 1.403 1_455 S
C1079 C1080 1.524 . S
C1079 C1083 1.400 . S
C1080 H1065 0.960 . S
C1080 H1066 0.960 . S
C1080 H1067 0.960 . S
C1080 C1079 1.524 . S
C1081 C1078 1.403 . S
C1081 C1082 1.392 . S
C1081 C1085 1.495 . S
C1082 C1081 1.392 . S
C1082 C1083 1.385 1_655 S
C1082 C1084 1.478 . S
C1083 H1077 0.930 . S
C1083 C1079 1.400 . S
C1083 C1082 1.385 1_455 S
C1084 C1082 1.478 . S
C1084 C1086 1.381 . S
C1084 C1090 1.383 . S
C1085 C1081 1.495 . S
C1085 H1091 0.959 . S
C1085 H1092 0.961 . S
C1085 H1093 0.960 . S
C1086 C1084 1.381 . S
C1086 C1087 1.394 . S
C1086 H1094 0.930 . S
C1087 C1086 1.394 . S
C1087 C1088 1.383 . S
C1087 H1095 0.929 . S
C1088 C1087 1.383 . S
C1088 C1089 1.377 . S
C1089 H1073 0.930 1_655 S
C1089 C1088 1.377 . S
C1089 C1090 1.379 . S
C1090 H1074 0.931 1_655 S
C1090 C1084 1.383 . S
C1090 C1089 1.379 . S
H1091 C1085 0.959 . S
H1092 C1085 0.961 . S
H1093 C1085 0.960 . S
H1094 C1086 0.930 . S
H1095 C1087 0.929 . S
H1096 C1104 0.929 . S
H1097 C1106 0.930 . S
H1098 C1108 0.930 . S
H1099 C1111 0.929 . S
H1100 C1114 0.930 . S
H1101 C1116 0.960 . S
H1102 C1116 0.960 . S
H1103 C1116 0.960 . S
C1104 H1096 0.929 . S
C1104 C1105 1.377 . S
C1104 C1106 1.384 . S
C1105 C1104 1.377 . S
C1105 C1111 1.390 . S
C1106 H1097 0.930 . S
C1106 C1104 1.384 . S
C1106 C1107 1.372 . S
C1107 C1106 1.372 . S
C1107 C1108 1.400 . S
C1107 C1112 1.490 . S
C1108 H1098 0.930 . S
C1108 C1107 1.400 . S
C1108 C1111 1.386 . S
H1109 C1125 0.930 . S
H1110 C1126 0.931 . S
C1111 H1099 0.929 . S
C1111 C1105 1.390 . S
C1111 C1108 1.386 . S
C1112 C1107 1.490 . S
C1112 C1114 1.395 . S
C1112 C1115 1.403 . S
H1113 C1119 0.930 . S
C1114 H1100 0.930 . S
C1114 C1112 1.395 . S
C1114 C1117 1.403 . S
C1115 C1112 1.403 . S
C1115 C1116 1.524 . S
C1115 C1119 1.400 . S
C1116 H1101 0.960 . S
C1116 H1102 0.960 . S
C1116 H1103 0.960 . S
C1116 C1115 1.524 . S
C1117 C1114 1.403 . S
C1117 C1118 1.392 . S
C1117 C1121 1.495 . S
C1118 C1117 1.392 . S
C1118 C1119 1.385 . S
C1118 C1120 1.478 . S
C1119 H1113 0.930 . S
C1119 C1115 1.400 . S
C1119 C1118 1.385 . S
C1120 C1118 1.478 . S
C1120 C1122 1.381 . S
C1120 C1126 1.383 . S
C1121 C1117 1.495 . S
C1121 H1127 0.959 . S
C1121 H1128 0.961 . S
C1121 H1129 0.960 . S
C1122 C1120 1.381 . S
C1122 C1123 1.394 . S
C1122 H1130 0.930 . S
C1123 C1122 1.394 . S
C1123 C1124 1.383 . S
C1123 H1131 0.929 . S
C1124 C1123 1.383 . S
C1124 C1125 1.377 . S
C1125 H1109 0.930 . S
C1125 C1124 1.377 . S
C1125 C1126 1.379 . S
C1126 H1110 0.931 . S
C1126 C1120 1.383 . S
C1126 C1125 1.379 . S
H1127 C1121 0.959 . S
H1128 C1121 0.961 . S
H1129 C1121 0.960 . S
H1130 C1122 0.930 . S
H1131 C1123 0.929 . S
H1132 C1140 0.929 . S
H1133 C1142 0.930 . S
H1134 C1144 0.930 . S
H1135 C1147 0.929 . S
H1136 C1150 0.930 . S
H1137 C1152 0.960 . S
H1138 C1152 0.960 . S
H1139 C1152 0.960 . S
C1140 H1132 0.929 . S
C1140 C1141 1.377 . S
C1140 C1142 1.384 . S
C1141 C1140 1.377 . S
C1141 C1147 1.390 . S
C1142 H1133 0.930 . S
C1142 C1140 1.384 . S
C1142 C1143 1.372 . S
C1143 C1142 1.372 . S
C1143 C1144 1.400 . S
C1143 C1148 1.490 . S
C1144 H1134 0.930 . S
C1144 C1143 1.400 . S
C1144 C1147 1.386 . S
H1145 C1161 0.930 . S
H1146 C1162 0.931 . S
C1147 H1135 0.929 . S
C1147 C1141 1.390 . S
C1147 C1144 1.386 . S
C1148 C1143 1.490 . S
C1148 C1150 1.395 . S
C1148 C1151 1.403 . S
H1149 C1155 0.930 . S
C1150 H1136 0.930 . S
C1150 C1148 1.395 . S
C1150 C1153 1.403 . S
C1151 C1148 1.403 . S
C1151 C1152 1.524 . S
C1151 C1155 1.400 . S
C1152 H1137 0.960 . S
C1152 H1138 0.960 . S
C1152 H1139 0.960 . S
C1152 C1151 1.524 . S
C1153 C1150 1.403 . S
C1153 C1154 1.392 . S
C1153 C1157 1.495 . S
C1154 C1153 1.392 . S
C1154 C1155 1.385 . S
C1154 C1156 1.478 . S
C1155 H1149 0.930 . S
C1155 C1151 1.400 . S
C1155 C1154 1.385 . S
C1156 C1154 1.478 . S
C1156 C1158 1.381 . S
C1156 C1162 1.383 . S
C1157 C1153 1.495 . S
C1157 H1163 0.959 . S
C1157 H1164 0.961 . S
C1157 H1165 0.960 . S
C1158 C1156 1.381 . S
C1158 C1159 1.394 . S
C1158 H1166 0.930 . S
C1159 C1158 1.394 . S
C1159 C1160 1.383 . S
C1159 H1167 0.929 . S
C1160 C1159 1.383 . S
C1160 C1161 1.377 . S
C1161 H1145 0.930 . S
C1161 C1160 1.377 . S
C1161 C1162 1.379 . S
C1162 H1146 0.931 . S
C1162 C1156 1.383 . S
C1162 C1161 1.379 . S
H1163 C1157 0.959 . S
H1164 C1157 0.961 . S
H1165 C1157 0.960 . S
H1166 C1158 0.930 . S
H1167 C1159 0.929 . S
H1168 C1176 0.929 . S
H1169 C1178 0.930 . S
H1170 C1180 0.930 . S
H1171 C1183 0.929 . S
H1172 C1186 0.930 . S
H1173 C1188 0.960 . S
H1174 C1188 0.960 . S
H1175 C1188 0.960 . S
C1176 H1168 0.929 . S
C1176 C1177 1.377 . S
C1176 C1178 1.384 . S
C1177 C1176 1.377 . S
C1177 C1183 1.390 . S
C1178 H1169 0.930 . S
C1178 C1176 1.384 . S
C1178 C1179 1.372 . S
C1179 C1178 1.372 . S
C1179 C1180 1.400 . S
C1179 C1184 1.490 . S
C1180 H1170 0.930 . S
C1180 C1179 1.400 . S
C1180 C1183 1.386 . S
H1181 C1197 0.930 . S
H1182 C1198 0.931 . S
C1183 H1171 0.929 . S
C1183 C1177 1.390 . S
C1183 C1180 1.386 . S
C1184 C1179 1.490 . S
C1184 C1186 1.395 . S
C1184 C1187 1.403 . S
H1185 C1191 0.930 . S
C1186 H1172 0.930 . S
C1186 C1184 1.395 . S
C1186 C1189 1.403 . S
C1187 C1184 1.403 . S
C1187 C1188 1.524 . S
C1187 C1191 1.400 . S
C1188 H1173 0.960 . S
C1188 H1174 0.960 . S
C1188 H1175 0.960 . S
C1188 C1187 1.524 . S
C1189 C1186 1.403 . S
C1189 C1190 1.392 . S
C1189 C1193 1.495 . S
C1190 C1189 1.392 . S
C1190 C1191 1.385 . S
C1190 C1192 1.478 . S
C1191 H1185 0.930 . S
C1191 C1187 1.400 . S
C1191 C1190 1.385 . S
C1192 C1190 1.478 . S
C1192 C1194 1.381 . S
C1192 C1198 1.383 . S
C1193 C1189 1.495 . S
C1193 H1199 0.959 . S
C1193 H1200 0.961 . S
C1193 H1201 0.960 . S
C1194 C1192 1.381 . S
C1194 C1195 1.394 . S
C1194 H1202 0.930 . S
C1195 C1194 1.394 . S
C1195 C1196 1.383 . S
C1195 H1203 0.929 . S
C1196 C1195 1.383 . S
C1196 C1197 1.377 . S
C1197 H1181 0.930 . S
C1197 C1196 1.377 . S
C1197 C1198 1.379 . S
C1198 H1182 0.931 . S
C1198 C1192 1.383 . S
C1198 C1197 1.379 . S
H1199 C1193 0.959 . S
H1200 C1193 0.961 . S
H1201 C1193 0.960 . S
H1202 C1194 0.930 . S
H1203 C1195 0.929 . S
C349 C215 1.839 . S
C368 C271 1.632 . S
C404 C295 1.279 . S
C385 C247 1.429 . S
C440 C316 1.665 . S
C421 C151 1.824 . S
C476 C334 1.308 . S
C457 C183 1.442 1_655 S
C512 C274 1.598 1_565 S
C493 C87 1.615 . S
C529 C119 1.338 . S
C548 C292 1.154 . S
C565 C23 1.599 . S
C584 C313 1.556 . S
C601 C55 1.345 . S
C620 C337 1.164 . S
C656 C272 0.335 . S
C637 C189 0.330 . S
C692 C290 0.429 . S
C673 C221 0.294 . S
C728 C311 0.324 . S
C709 C253 0.349 . S
C745 C157 0.285 . S
C764 C335 0.351 . S
C781 C61 0.409 1_655 S
C800 C270 0.364 . S
C836 C294 0.362 . S
C817 C93 0.630 . S
C872 C315 0.382 . S
C853 C125 0.374 . S
C889 C29 0.617 . S
C908 C333 0.302 . S
C925 C177 1.692 . S
C944 C273 1.687 . S
C961 C209 1.979 . S
C980 C291 1.929 . S
C1016 C312 1.613 . S
C997 C241 1.651 . S
C1052 C336 1.912 . S
C1033 C145 1.994 . S
C1069 C49 1.531 1_655 S
C1088 C269 1.566 . S
C1124 C293 1.730 . S
C1105 C81 1.713 . S
C1160 C314 1.474 . S
C1141 C113 1.523 . S
C1177 C17 1.732 . S
C1196 C332 1.752 . S
