# Generated by pormake.
# Topology pto, (3,4)-cn, num edge types: 1
# Building blocks:
#     Node 0, Type 0, BuildingBlock: INOVEN_clean_linker_0, # of connection points: 3
#     Node 1, Type 0, BuildingBlock: INOVEN_clean_linker_0, # of connection points: 3
#     Node 2, Type 0, BuildingBlock: INOVEN_clean_linker_0, # of connection points: 3
#     Node 3, Type 0, BuildingBlock: INOVEN_clean_linker_0, # of connection points: 3
#     Node 4, Type 0, BuildingBlock: INOVEN_clean_linker_0, # of connection points: 3
#     Node 5, Type 0, BuildingBlock: INOVEN_clean_linker_0, # of connection points: 3
#     Node 6, Type 0, BuildingBlock: INOVEN_clean_linker_0, # of connection points: 3
#     Node 7, Type 0, BuildingBlock: INOVEN_clean_linker_0, # of connection points: 3
#     Node 8, Type 1, BuildingBlock: NAWXER_clean_sbu_0, # of connection points: 4
#     Node 9, Type 1, BuildingBlock: NAWXER_clean_sbu_0, # of connection points: 4
#     Node 10, Type 1, BuildingBlock: NAWXER_clean_sbu_0, # of connection points: 4
#     Node 11, Type 1, BuildingBlock: NAWXER_clean_sbu_0, # of connection points: 4
#     Node 12, Type 1, BuildingBlock: NAWXER_clean_sbu_0, # of connection points: 4
#     Node 13, Type 1, BuildingBlock: NAWXER_clean_sbu_0, # of connection points: 4
#     Edge 14, Type (0, 1), BuildingBlock: XIVTED_clean_linker_0, # of connection points: 2
#     Edge 15, Type (0, 1), BuildingBlock: XIVTED_clean_linker_0, # of connection points: 2
#     Edge 16, Type (0, 1), BuildingBlock: XIVTED_clean_linker_0, # of connection points: 2
#     Edge 17, Type (0, 1), BuildingBlock: XIVTED_clean_linker_0, # of connection points: 2
#     Edge 18, Type (0, 1), BuildingBlock: XIVTED_clean_linker_0, # of connection points: 2
#     Edge 19, Type (0, 1), BuildingBlock: XIVTED_clean_linker_0, # of connection points: 2
#     Edge 20, Type (0, 1), BuildingBlock: XIVTED_clean_linker_0, # of connection points: 2
#     Edge 21, Type (0, 1), BuildingBlock: XIVTED_clean_linker_0, # of connection points: 2
#     Edge 22, Type (0, 1), BuildingBlock: XIVTED_clean_linker_0, # of connection points: 2
#     Edge 23, Type (0, 1), BuildingBlock: XIVTED_clean_linker_0, # of connection points: 2
#     Edge 24, Type (0, 1), BuildingBlock: XIVTED_clean_linker_0, # of connection points: 2
#     Edge 25, Type (0, 1), BuildingBlock: XIVTED_clean_linker_0, # of connection points: 2
#     Edge 26, Type (0, 1), BuildingBlock: XIVTED_clean_linker_0, # of connection points: 2
#     Edge 27, Type (0, 1), BuildingBlock: XIVTED_clean_linker_0, # of connection points: 2
#     Edge 28, Type (0, 1), BuildingBlock: XIVTED_clean_linker_0, # of connection points: 2
#     Edge 29, Type (0, 1), BuildingBlock: XIVTED_clean_linker_0, # of connection points: 2
#     Edge 30, Type (0, 1), BuildingBlock: XIVTED_clean_linker_0, # of connection points: 2
#     Edge 31, Type (0, 1), BuildingBlock: XIVTED_clean_linker_0, # of connection points: 2
#     Edge 32, Type (0, 1), BuildingBlock: XIVTED_clean_linker_0, # of connection points: 2
#     Edge 33, Type (0, 1), BuildingBlock: XIVTED_clean_linker_0, # of connection points: 2
#     Edge 34, Type (0, 1), BuildingBlock: XIVTED_clean_linker_0, # of connection points: 2
#     Edge 35, Type (0, 1), BuildingBlock: XIVTED_clean_linker_0, # of connection points: 2
#     Edge 36, Type (0, 1), BuildingBlock: XIVTED_clean_linker_0, # of connection points: 2
#     Edge 37, Type (0, 1), BuildingBlock: XIVTED_clean_linker_0, # of connection points: 2
# Relax obj value: 0.010
# Max RMSD: 0.132
# Mean RMSD: 0.055
data_MOF--net-pto--node1-NAWXER_clean_sbu_0--node2-INOVEN_clean_linker_0--edge1-XIVTED_clean_linker_0
_symmetry_space_group_name_H-M    P1
_symmetry_Int_Tables_number       1
_symmetry_cell_setting            triclinic
loop_
_symmetry_equiv_pos_as_xyz
'x, y, z'
_cell_length_a     43.070708
_cell_length_b     39.46711
_cell_length_c     38.111524
_cell_angle_alpha  108.9008
_cell_angle_beta   95.859724
_cell_angle_gamma 98.868465
loop_
_atom_site_label
_atom_site_type_symbol
_atom_site_fract_x
_atom_site_fract_y
_atom_site_fract_z
_atom_type_partial_charge
H0 H 0.22536 0.23752 0.44363 0.0
H1 H 0.29577 0.18947 0.38282 0.0
H2 H 0.26994 0.28716 0.37185 0.0
N3 N 0.2275 0.29314 0.41995 0.0
N4 N 0.23271 0.32116 0.41136 0.0
C5 C 0.24187 0.23741 0.42395 0.0
C6 C 0.25971 0.20982 0.41444 0.0
C7 C 0.24557 0.26538 0.40895 0.0
C8 C 0.26725 0.26565 0.3838 0.0
C9 C 0.28549 0.23831 0.37401 0.0
C10 C 0.2812 0.21008 0.38909 0.0
H11 H 0.22629 0.77608 0.84038 0.0
H12 H 0.28258 0.73283 0.90861 0.0
H13 H 0.32813 0.80001 0.85168 0.0
N14 N 0.2733 0.80766 0.81634 0.0
N15 N 0.2965 0.81993 0.80392 0.0
C16 C 0.24931 0.7733 0.85227 0.0
C17 C 0.25132 0.75344 0.87668 0.0
C18 C 0.27679 0.78945 0.84263 0.0
C19 C 0.30688 0.78656 0.85839 0.0
C20 C 0.30948 0.76658 0.88284 0.0
C21 C 0.28135 0.74986 0.89142 0.0
H22 H 0.8391 0.68844 0.29429 0.0
H23 H 0.88386 0.76258 0.40462 0.0
H24 H 0.81835 0.7959 0.33583 0.0
N25 N 0.80419 0.73237 0.27762 0.0
N26 N 0.7911 0.75614 0.27077 0.0
C27 C 0.8431 0.71495 0.31628 0.0
C28 C 0.86426 0.72251 0.34985 0.0
C29 C 0.8265 0.74125 0.31105 0.0
C30 C 0.83105 0.77544 0.3398 0.0
C31 C 0.85122 0.78317 0.37396 0.0
C32 C 0.86806 0.75672 0.37849 0.0
H33 H 0.80682 0.35232 0.04376 0.0
H34 H 0.86166 0.29597 0.96428 0.0
H35 H 0.77754 0.23642 0.98567 0.0
N36 N 0.76226 0.29523 0.03584 0.0
N37 N 0.7417 0.26725 0.03035 0.0
C38 C 0.81099 0.32705 0.02445 0.0
C39 C 0.83745 0.32748 0.00589 0.0
C40 C 0.78947 0.29427 0.01761 0.0
C41 C 0.79436 0.26173 0.99145 0.0
C42 C 0.82037 0.26196 0.97189 0.0
C43 C 0.84213 0.29494 0.97999 0.0
H44 H 0.71765 0.69734 0.78254 0.0
H45 H 0.76584 0.62177 0.81554 0.0
H46 H 0.81505 0.69523 0.76836 0.0
N47 N 0.76476 0.7275 0.75817 0.0
N48 N 0.78887 0.74364 0.75035 0.0
C49 C 0.73818 0.68487 0.78428 0.0
C50 C 0.73786 0.65753 0.80058 0.0
C51 C 0.76556 0.69825 0.7721 0.0
C52 C 0.79335 0.6842 0.77633 0.0
C53 C 0.79347 0.65706 0.79273 0.0
C54 C 0.76553 0.64324 0.80368 0.0
H55 H 0.71653 0.25209 0.42668 0.0
H56 H 0.76923 0.32256 0.37851 0.0
H57 H 0.81881 0.27623 0.4495 0.0
N58 N 0.76565 0.23897 0.46306 0.0
N59 N 0.78992 0.23529 0.48122 0.0
C60 C 0.73892 0.26629 0.42308 0.0
C61 C 0.73926 0.28845 0.40066 0.0
C62 C 0.76739 0.26174 0.44071 0.0
C63 C 0.7968 0.27943 0.43564 0.0
C64 C 0.79775 0.30143 0.41296 0.0
C65 C 0.76879 0.30569 0.39589 0.0
H66 H 0.26574 0.29539 0.84476 0.0
H67 H 0.34955 0.28236 0.90632 0.0
H68 H 0.30065 0.36839 0.95798 0.0
N69 N 0.25337 0.35011 0.89788 0.0
N70 N 0.24735 0.37512 0.92452 0.0
C71 C 0.28323 0.30406 0.87009 0.0
C72 C 0.30845 0.28566 0.87161 0.0
C73 C 0.28006 0.33355 0.90103 0.0
C74 C 0.30283 0.34537 0.93406 0.0
C75 C 0.32855 0.32751 0.93596 0.0
C76 C 0.33087 0.29754 0.9046 0.0
H77 H 0.28844 0.63503 0.25638 0.0
H78 H 0.26968 0.71454 0.35626 0.0
H79 H 0.34905 0.74188 0.30503 0.0
N80 N 0.34074 0.67657 0.24934 0.0
N81 N 0.36569 0.69796 0.25048 0.0
C82 C 0.29422 0.66203 0.27772 0.0
C83 C 0.27555 0.67152 0.3064 0.0
C84 C 0.32103 0.68703 0.2772 0.0
C85 C 0.32859 0.72209 0.30504 0.0
C86 C 0.31036 0.73174 0.33364 0.0
C87 C 0.28401 0.70649 0.33431 0.0
C88 C 0.99006 0.43866 0.35852 0.0
C89 C 0.07594 0.52479 0.33957 0.0
O90 O 0.00314 0.46502 0.38873 0.0
Zn91 Zn 0.0385 0.51359 0.4057 0.0
O92 O 0.99862 0.43787 0.32737 0.0
Zn93 Zn 0.03161 0.48214 0.3467 0.0
O94 O 0.06673 0.46978 0.38215 0.0
O95 O 0.06861 0.50448 0.44147 0.0
O96 O 0.05847 0.49701 0.31394 0.0
O97 O 0.07028 0.53324 0.37344 0.0
O98 O 0.01476 0.55243 0.42233 0.0
O99 O 0.00509 0.52442 0.3609 0.0
C100 C 0.07869 0.47999 0.41701 0.0
C101 C 1.00047 0.5492 0.39018 0.0
C102 C 0.98696 0.51602 0.95667 0.0
C103 C 0.06568 0.59862 0.92433 0.0
O104 O 0.00552 0.54491 0.97894 0.0
Zn105 Zn 0.02724 0.55728 0.94146 0.0
O106 O 0.98884 0.50493 0.92153 0.0
Zn107 Zn 0.01695 0.52154 0.88441 0.0
O108 O 0.04132 0.4833 0.86775 0.0
O109 O 0.05662 0.51745 0.92737 0.0
O110 O 0.05197 0.57029 0.8961 0.0
O111 O 0.05852 0.60225 0.95673 0.0
O112 O 0.99011 0.56763 0.90597 0.0
O113 O 0.98494 0.5275 0.84863 0.0
C114 C 0.05984 0.49103 0.89864 0.0
C115 C 0.97652 0.5547 0.87144 0.0
C116 C 0.28527 0.95697 0.62653 0.0
C117 C 0.27435 0.03631 0.55288 0.0
O118 O 0.25947 0.95995 0.60938 0.0
Zn119 Zn 0.27839 0.9954 0.58823 0.0
O120 O 0.31177 0.97564 0.62477 0.0
Zn121 Zn 0.32926 0.01428 0.60003 0.0
O122 O 0.34848 0.05686 0.64383 0.0
O123 O 0.29601 0.04305 0.63717 0.0
O124 O 0.30319 0.03857 0.56715 0.0
O125 O 0.25189 0.01379 0.55728 0.0
O126 O 0.30388 0.96519 0.54824 0.0
O127 O 0.35545 0.98806 0.56637 0.0
C128 C 0.32263 0.06378 0.65532 0.0
C129 C 0.33269 0.96476 0.5429 0.0
C130 C 0.60785 0.71532 0.07002 0.0
C131 C 0.51236 0.7176 0.99145 0.0
O132 O 0.59034 0.6833 0.05432 0.0
Zn133 Zn 0.54643 0.65897 0.01515 0.0
O134 O 0.59949 0.74213 0.0628 0.0
Zn135 Zn 0.56059 0.71618 0.02903 0.0
O136 O 0.53092 0.6988 0.06471 0.0
O137 O 0.51959 0.63841 0.04391 0.0
O138 O 0.53538 0.74396 0.00926 0.0
O139 O 0.51354 0.68525 0.99136 0.0
O140 O 0.5598 0.62605 0.97197 0.0
O141 O 0.57608 0.68426 0.97987 0.0
C142 C 0.51681 0.66877 0.06726 0.0
C143 C 0.57433 0.65043 0.96115 0.0
C144 C 0.79071 0.96361 0.67442 0.0
C145 C 0.79038 0.0652 0.62635 0.0
O146 O 0.76626 0.97228 0.66053 0.0
Zn147 Zn 0.78861 0.01509 0.65173 0.0
O148 O 0.81828 0.9833 0.67822 0.0
Zn149 Zn 0.83967 0.0306 0.6673 0.0
O150 O 0.8577 0.0651 0.71729 0.0
O151 O 0.80516 0.05292 0.70721 0.0
O152 O 0.81807 0.06315 0.64044 0.0
O153 O 0.76607 0.04277 0.62723 0.0
O154 O 0.81552 0.99076 0.60986 0.0
O155 O 0.86704 0.0096 0.63185 0.0
C156 C 0.83154 0.06982 0.72903 0.0
C157 C 0.84451 0.99042 0.60516 0.0
C158 C 0.5469 0.32247 0.25907 0.0
C159 C 0.47614 0.33014 0.15475 0.0
O160 O 0.53332 0.29108 0.2352 0.0
Zn161 Zn 0.50052 0.26907 0.18329 0.0
O162 O 0.54097 0.35139 0.25426 0.0
Zn163 Zn 0.51087 0.32734 0.20816 0.0
O164 O 0.47201 0.30037 0.22604 0.0
O165 O 0.465 0.241 0.19606 0.0
O166 O 0.49066 0.35644 0.18391 0.0
O167 O 0.47822 0.29723 0.15147 0.0
O168 O 0.52709 0.24427 0.14925 0.0
O169 O 0.54212 0.30434 0.17068 0.0
C170 C 0.45679 0.26783 0.21962 0.0
C171 C 0.54617 0.27282 0.15047 0.0
H172 H 0.18333 0.32358 0.45137 0.0
H173 H 0.13274 0.48201 0.38801 0.0
H174 H 0.24014 0.3811 0.3938 0.0
H175 H 0.08627 0.44364 0.46681 0.0
H176 H 0.17478 0.44862 0.39458 0.0
H177 H 0.14964 0.36952 0.46182 0.0
C178 C 0.18888 0.34614 0.44129 0.0
C179 C 0.21427 0.34862 0.42124 0.0
C180 C 0.15577 0.44785 0.41102 0.0
C181 C 0.17594 0.40092 0.43302 0.0
C182 C 0.13184 0.46695 0.40728 0.0
C183 C 0.10625 0.46537 0.42691 0.0
C184 C 0.15365 0.42617 0.43383 0.0
C185 C 0.10588 0.44553 0.45143 0.0
C186 C 0.16974 0.3724 0.44738 0.0
C187 C 0.22059 0.37835 0.40906 0.0
N188 N 0.12904 0.42605 0.45374 0.0
N189 N 0.20136 0.40315 0.41475 0.0
H190 H 0.23955 0.75077 0.94517 0.0
H191 H 0.07644 0.60621 0.85796 0.0
H192 H 0.19666 0.71402 0.82844 0.0
H193 H 0.11098 0.65285 0.9773 0.0
H194 H 0.11959 0.64748 0.84743 0.0
H195 H 0.19227 0.71683 0.95835 0.0
C196 C 0.22012 0.73563 0.92236 0.0
C197 C 0.22207 0.73504 0.88562 0.0
C198 C 0.11769 0.64896 0.87598 0.0
C199 C 0.16799 0.69634 0.90048 0.0
C200 C 0.09306 0.62531 0.88203 0.0
C201 C 0.09028 0.62589 0.91857 0.0
C202 C 0.14003 0.67322 0.90663 0.0
C203 C 0.11231 0.65147 0.94868 0.0
C204 C 0.19311 0.71647 0.92993 0.0
C205 C 0.19607 0.71545 0.85721 0.0
N206 N 0.13652 0.67393 0.94201 0.0
N207 N 0.17024 0.69668 0.8652 0.0
H208 H 0.89196 0.67576 0.29804 0.0
H209 H 0.97929 0.6013 0.445 0.0
H210 H 0.87817 0.70624 0.41403 0.0
H211 H 0.97297 0.55366 0.32464 0.0
H212 H 0.94453 0.64237 0.43534 0.0
H213 H 0.92363 0.63257 0.30809 0.0
C214 C 0.89531 0.67318 0.32554 0.0
C215 C 0.88243 0.6949 0.35523 0.0
C216 C 0.95071 0.62278 0.41111 0.0
C217 C 0.9193 0.64585 0.36717 0.0
C218 C 0.9706 0.59943 0.41661 0.0
C219 C 0.97911 0.57402 0.38562 0.0
C220 C 0.93957 0.62089 0.37439 0.0
C221 C 0.96707 0.57275 0.34943 0.0
C222 C 0.91359 0.64863 0.33133 0.0
C223 C 0.88811 0.69066 0.39045 0.0
N224 N 0.94809 0.59592 0.34486 0.0
N225 N 0.90625 0.66679 0.39549 0.0
H226 H 0.90128 0.3489 0.03205 0.0
H227 H 0.92674 0.48233 0.92208 0.0
H228 H 0.82119 0.38345 0.98629 0.0
H229 H 0.99327 0.50119 0.02219 0.0
H230 H 0.88856 0.44251 0.94212 0.0
H231 H 0.937 0.4016 0.02713 0.0
C232 C 0.89127 0.36812 0.02177 0.0
C233 C 0.85841 0.3622 0.00971 0.0
C234 C 0.91135 0.45576 0.95995 0.0
C235 C 0.89883 0.42131 0.0029 0.0
C236 C 0.93315 0.47824 0.94846 0.0
C237 C 0.9631 0.49485 0.97054 0.0
C238 C 0.91997 0.44894 0.99316 0.0
C239 C 0.9703 0.48888 0.00453 0.0
C240 C 0.91154 0.39805 0.01899 0.0
C241 C 0.84642 0.38742 0.99614 0.0
N242 N 0.94907 0.46573 0.01452 0.0
N243 N 0.86671 0.41554 0.99237 0.0
H244 H 0.24898 0.13502 0.38329 0.0
H245 H 0.30208 0.10732 0.57364 0.0
H246 H 0.26684 0.2237 0.48958 0.0
H247 H 0.23285 0.02273 0.48783 0.0
H248 H 0.29511 0.14921 0.53968 0.0
H249 H 0.24828 0.09146 0.41737 0.0
C250 C 0.25261 0.14519 0.41373 0.0
C251 C 0.25794 0.18283 0.43379 0.0
C252 C 0.28124 0.12158 0.5284 0.0
C253 C 0.25757 0.13375 0.47249 0.0
C254 C 0.28528 0.09769 0.54764 0.0
C255 C 0.26796 0.06169 0.53339 0.0
C256 C 0.26036 0.10913 0.49414 0.0
C257 C 0.24642 0.05046 0.4997 0.0
C258 C 0.25199 0.12046 0.43304 0.0
C259 C 0.26245 0.19484 0.47315 0.0
N260 N 0.24352 0.07405 0.48076 0.0
N261 N 0.26254 0.17039 0.49124 0.0
H262 H 0.36446 0.76326 0.85093 0.0
H263 H 0.45154 0.68311 0.9858 0.0
H264 H 0.32748 0.75977 0.95135 0.0
H265 H 0.50708 0.76775 0.95656 0.0
H266 H 0.40278 0.69698 0.95926 0.0
H267 H 0.41515 0.75313 0.87696 0.0
C268 C 0.36685 0.76076 0.87848 0.0
C269 C 0.34118 0.76214 0.8987 0.0
C270 C 0.42571 0.71229 0.95854 0.0
C271 C 0.39874 0.74898 0.92753 0.0
C272 C 0.45344 0.7043 0.97337 0.0
C273 C 0.48324 0.72441 0.97334 0.0
C274 C 0.42788 0.73982 0.94264 0.0
C275 C 0.48445 0.75181 0.95721 0.0
C276 C 0.39577 0.75471 0.89307 0.0
C277 C 0.34594 0.75784 0.93399 0.0
N278 N 0.45705 0.75857 0.94209 0.0
N279 N 0.37394 0.75091 0.94698 0.0
H280 H 0.80256 0.81848 0.39422 0.0
H281 H 0.89813 0.96176 0.58867 0.0
H282 H 0.90325 0.82653 0.42677 0.0
H283 H 0.80406 0.96382 0.53908 0.0
H284 H 0.9026 0.91429 0.52969 0.0
H285 H 0.80428 0.87327 0.44724 0.0
C286 C 0.82523 0.83206 0.41214 0.0
C287 C 0.85284 0.81779 0.40568 0.0
C288 C 0.88121 0.92558 0.53172 0.0
C289 C 0.85478 0.88056 0.46773 0.0
C290 C 0.87871 0.9527 0.56524 0.0
C291 C 0.85051 0.96629 0.56891 0.0
C292 C 0.85528 0.91222 0.50201 0.0
C293 C 0.82604 0.95366 0.53778 0.0
C294 C 0.82615 0.86337 0.44274 0.0
C295 C 0.88126 0.83624 0.43085 0.0
N296 N 0.82889 0.9272 0.5059 0.0
N297 N 0.88147 0.86657 0.46097 0.0
H298 H 0.72405 0.32736 0.07666 0.0
H299 H 0.56509 0.21139 0.10625 0.0
H300 H 0.69642 0.21042 0.02372 0.0
H301 H 0.59089 0.32923 0.14929 0.0
H302 H 0.61297 0.20952 0.07633 0.0
H303 H 0.67559 0.32779 0.1047 0.0
C304 C 0.70776 0.30172 0.07104 0.0
C305 C 0.71412 0.26864 0.0479 0.0
C306 C 0.60801 0.23574 0.09225 0.0
C307 C 0.65847 0.26894 0.07985 0.0
C308 C 0.58067 0.23682 0.10927 0.0
C309 C 0.57392 0.27049 0.13038 0.0
C310 C 0.62874 0.26856 0.09652 0.0
C311 C 0.59503 0.30259 0.13338 0.0
C312 C 0.68001 0.30195 0.08698 0.0
C313 C 0.69218 0.23632 0.0415 0.0
N314 N 0.62143 0.3008 0.11679 0.0
N315 N 0.66528 0.23719 0.0574 0.0
H316 H 0.24153 0.83245 0.77209 0.0
H317 H 0.3368 0.93705 0.65567 0.0
H318 H 0.34308 0.84721 0.77463 0.0
H319 H 0.23474 0.92275 0.6499 0.0
H320 H 0.33858 0.90171 0.69713 0.0
H321 H 0.23765 0.86336 0.72591 0.0
C322 C 0.26302 0.84223 0.76288 0.0
C323 C 0.29286 0.83757 0.77715 0.0
C324 C 0.31572 0.9061 0.68679 0.0
C325 C 0.2885 0.87269 0.72443 0.0
C326 C 0.31465 0.92635 0.66304 0.0
C327 C 0.28556 0.93313 0.64948 0.0
C328 C 0.28751 0.89252 0.6974 0.0
C329 C 0.25768 0.91822 0.65977 0.0
C330 C 0.26077 0.85979 0.73649 0.0
C331 C 0.31981 0.85054 0.76425 0.0
N332 N 0.25936 0.89876 0.68338 0.0
N333 N 0.31704 0.86757 0.73868 0.0
H334 H 0.76197 0.68933 0.21928 0.0
H335 H 0.64824 0.77993 0.1118 0.0
H336 H 0.76607 0.80523 0.25037 0.0
H337 H 0.63405 0.66381 0.0902 0.0
H338 H 0.69493 0.78914 0.15835 0.0
H339 H 0.71852 0.67879 0.16756 0.0
C340 C 0.7539 0.71254 0.21493 0.0
C341 C 0.76749 0.74834 0.2389 0.0
C342 C 0.68168 0.76161 0.14337 0.0
C343 C 0.71795 0.73651 0.18019 0.0
C344 C 0.655 0.75632 0.1167 0.0
C345 C 0.63705 0.72105 0.09715 0.0
C346 C 0.69063 0.73144 0.15059 0.0
C347 C 0.64707 0.69152 0.10471 0.0
C348 C 0.72906 0.70654 0.18555 0.0
C349 C 0.75609 0.77736 0.23229 0.0
N350 N 0.67314 0.69738 0.13089 0.0
N351 N 0.73197 0.77089 0.20363 0.0
H352 H 0.87452 0.23685 0.95144 0.0
H353 H 0.77924 0.08193 0.76206 0.0
H354 H 0.77228 0.21251 0.91918 0.0
H355 H 0.88176 0.11456 0.78345 0.0
H356 H 0.77708 0.12468 0.82363 0.0
H357 H 0.87826 0.18742 0.89422 0.0
C358 C 0.85284 0.22099 0.93254 0.0
C359 C 0.82302 0.22908 0.94017 0.0
C360 C 0.80011 0.12251 0.81503 0.0
C361 C 0.82719 0.17236 0.87482 0.0
C362 C 0.80139 0.09804 0.77974 0.0
C363 C 0.83075 0.09482 0.76733 0.0
C364 C 0.82836 0.14417 0.83835 0.0
C365 C 0.8586 0.11629 0.79179 0.0
C366 C 0.85503 0.19274 0.89994 0.0
C367 C 0.79575 0.20715 0.91492 0.0
N368 N 0.85672 0.14025 0.82612 0.0
N369 N 0.79854 0.18003 0.88336 0.0
H370 H 0.3016 0.18288 0.31752 0.0
H371 H 0.43444 0.3203 0.27081 0.0
H372 H 0.3264 0.29945 0.37618 0.0
H373 H 0.41926 0.20321 0.21682 0.0
H374 H 0.39273 0.31217 0.30721 0.0
H375 H 0.34286 0.18868 0.27869 0.0
C376 C 0.31571 0.20964 0.32229 0.0
C377 C 0.31027 0.24078 0.34996 0.0
C378 C 0.39839 0.28814 0.28744 0.0
C379 C 0.35725 0.24758 0.30554 0.0
C380 C 0.42228 0.29277 0.26649 0.0
C381 C 0.4305 0.26237 0.24069 0.0
C382 C 0.38235 0.25282 0.28274 0.0
C383 C 0.41372 0.22741 0.23641 0.0
C384 C 0.33914 0.21293 0.30003 0.0
C385 C 0.32916 0.27477 0.35472 0.0
N386 N 0.39042 0.22356 0.2573 0.0
N387 N 0.35168 0.27721 0.33277 0.0
H388 H 0.83386 0.62562 0.74605 0.0
H389 H 0.94867 0.60708 0.91508 0.0
H390 H 0.82022 0.66185 0.86188 0.0
H391 H 0.94681 0.54149 0.79929 0.0
H392 H 0.90668 0.63472 0.89498 0.0
H393 H 0.8805 0.60192 0.76406 0.0
C394 C 0.84095 0.6289 0.77525 0.0
C395 C 0.82324 0.64543 0.80256 0.0
C396 C 0.91542 0.6143 0.87389 0.0
C397 C 0.8761 0.61877 0.82325 0.0
C398 C 0.93948 0.59849 0.88535 0.0
C399 C 0.95119 0.57169 0.85886 0.0
C400 C 0.90292 0.60354 0.83557 0.0
C401 C 0.93832 0.56185 0.82069 0.0
C402 C 0.86733 0.61524 0.78546 0.0
C403 C 0.83317 0.64899 0.83999 0.0
N404 N 0.91483 0.57778 0.81014 0.0
N405 N 0.85888 0.63578 0.8492 0.0
H406 H 0.85471 0.27701 0.40751 0.0
H407 H 0.9316 0.41312 0.31446 0.0
H408 H 0.81173 0.36784 0.4027 0.0
H409 H 0.98892 0.40315 0.40882 0.0
H410 H 0.88519 0.37643 0.327 0.0
H411 H 0.9033 0.3059 0.39138 0.0
C412 C 0.85531 0.30292 0.40329 0.0
C413 C 0.82853 0.31953 0.40599 0.0
C414 C 0.90818 0.38171 0.34433 0.0
C415 C 0.88343 0.35138 0.38573 0.0
C416 C 0.93456 0.40227 0.33705 0.0
C417 C 0.96392 0.41098 0.36068 0.0
C418 C 0.91157 0.36908 0.37469 0.0
C419 C 0.96654 0.39689 0.39005 0.0
C420 C 0.88294 0.31906 0.39369 0.0
C421 C 0.83099 0.35302 0.39963 0.0
N422 N 0.94064 0.3765 0.39628 0.0
N423 N 0.85769 0.3675 0.38929 0.0
H424 H 0.22976 0.42747 0.97794 0.0
H425 H 0.07693 0.43551 0.84341 0.0
H426 H 0.20292 0.35815 0.86172 0.0
H427 H 0.10284 0.50179 0.96095 0.0
H428 H 0.12235 0.40606 0.84936 0.0
H429 H 0.18289 0.45484 0.97215 0.0
C430 C 0.21392 0.41814 0.95125 0.0
C431 C 0.22017 0.39074 0.92044 0.0
C432 C 0.11799 0.42697 0.87385 0.0
C433 C 0.16657 0.42157 0.91327 0.0
C434 C 0.09202 0.44374 0.87048 0.0
C435 C 0.08604 0.47124 0.90168 0.0
C436 C 0.13815 0.43782 0.90865 0.0
C437 C 0.10648 0.4808 0.93606 0.0
C438 C 0.1872 0.43362 0.94788 0.0
C439 C 0.199 0.37931 0.88627 0.0
N440 N 0.13159 0.46423 0.93856 0.0
N441 N 0.17317 0.39482 0.88363 0.0
H442 H 0.22855 0.62547 0.2484 0.0
H443 H 0.11906 0.58129 0.39048 0.0
H444 H 0.2581 0.65819 0.36822 0.0
H445 H 0.0981 0.51701 0.27208 0.0
H446 H 0.1677 0.614 0.38044 0.0
H447 H 0.17932 0.58797 0.25405 0.0
C448 C 0.22489 0.62445 0.27576 0.0
C449 C 0.24727 0.64548 0.30799 0.0
C450 C 0.15258 0.59275 0.35654 0.0
C451 C 0.19105 0.60332 0.31463 0.0
C452 C 0.12455 0.57409 0.36219 0.0
C453 C 0.10435 0.54616 0.33208 0.0
C454 C 0.16074 0.58383 0.32041 0.0
C455 C 0.11298 0.53832 0.29611 0.0
C456 C 0.19676 0.60323 0.27896 0.0
C457 C 0.24123 0.64323 0.34273 0.0
N458 N 0.1406 0.55712 0.29121 0.0
N459 N 0.21368 0.62289 0.34512 0.0
H460 H 0.83828 0.78353 0.73648 0.0
H461 H 0.73689 0.916 0.67596 0.0
H462 H 0.73703 0.77207 0.73528 0.0
H463 H 0.83963 0.93541 0.69722 0.0
H464 H 0.73527 0.86094 0.69326 0.0
H465 H 0.83821 0.83691 0.71698 0.0
C466 C 0.81606 0.7923 0.7319 0.0
C467 C 0.78783 0.77359 0.73754 0.0
C468 C 0.75811 0.87738 0.69414 0.0
C469 C 0.78723 0.83454 0.71534 0.0
C470 C 0.75904 0.90877 0.68427 0.0
C471 C 0.78842 0.93048 0.68519 0.0
C472 C 0.78675 0.86755 0.70467 0.0
C473 C 0.81639 0.91972 0.69615 0.0
C474 C 0.81595 0.82275 0.72091 0.0
C475 C 0.75944 0.78584 0.73132 0.0
N476 N 0.81483 0.88911 0.70533 0.0
N477 N 0.75988 0.8156 0.72055 0.0
H478 H 0.72756 0.29745 0.33209 0.0
H479 H 0.54657 0.27903 0.3019 0.0
H480 H 0.6815 0.29185 0.42631 0.0
H481 H 0.60499 0.36792 0.2821 0.0
H482 H 0.5929 0.27351 0.34165 0.0
H483 H 0.68015 0.31238 0.30511 0.0
C484 C 0.70776 0.2997 0.34749 0.0
C485 C 0.70913 0.29416 0.38224 0.0
C486 C 0.59525 0.2947 0.32923 0.0
C487 C 0.6541 0.30963 0.35012 0.0
C488 C 0.56899 0.2979 0.30669 0.0
C489 C 0.57211 0.3241 0.289 0.0
C490 C 0.6249 0.31692 0.33275 0.0
C491 C 0.60163 0.34767 0.29563 0.0
C492 C 0.68064 0.30806 0.33181 0.0
C493 C 0.68171 0.29567 0.39948 0.0
N494 N 0.62718 0.34293 0.31628 0.0
N495 N 0.65514 0.30297 0.38306 0.0
H496 H 0.2603 0.22958 0.82754 0.0
H497 H 0.37302 0.11842 0.69899 0.0
H498 H 0.36192 0.26741 0.84258 0.0
H499 H 0.27131 0.08296 0.68724 0.0
H500 H 0.37029 0.17285 0.75205 0.0
H501 H 0.26451 0.17566 0.77568 0.0
C502 C 0.28349 0.22671 0.81971 0.0
C503 C 0.31076 0.25315 0.83938 0.0
C504 C 0.34864 0.15304 0.73783 0.0
C505 C 0.3159 0.19101 0.78019 0.0
C506 C 0.3502 0.12195 0.70763 0.0
C507 C 0.32237 0.0961 0.68855 0.0
C508 C 0.31905 0.1582 0.74892 0.0
C509 C 0.29342 0.10213 0.70094 0.0
C510 C 0.28594 0.19573 0.79024 0.0
C511 C 0.3403 0.24754 0.8284 0.0
N512 N 0.29254 0.13249 0.73019 0.0
N513 N 0.34209 0.2171 0.79952 0.0
H514 H 0.36159 0.63546 0.18972 0.0
H515 H 0.51657 0.72707 0.12926 0.0
H516 H 0.418 0.74253 0.25188 0.0
H517 H 0.4702 0.61441 0.07136 0.0
H518 H 0.48022 0.73196 0.17446 0.0
H519 H 0.40021 0.62581 0.14567 0.0
C520 C 0.38215 0.65683 0.19405 0.0
C521 C 0.38689 0.69002 0.22422 0.0
C522 C 0.47797 0.70602 0.15207 0.0
C523 C 0.43073 0.67924 0.17447 0.0
C524 C 0.49879 0.70322 0.12617 0.0
C525 C 0.49636 0.67032 0.09639 0.0
C526 C 0.45417 0.67581 0.14818 0.0
C527 C 0.47292 0.64028 0.09399 0.0
C528 C 0.40416 0.65133 0.16907 0.0
C529 C 0.41373 0.71675 0.2288 0.0
N530 N 0.45249 0.64381 0.11942 0.0
N531 N 0.43458 0.71089 0.2042 0.0
H532 H 0.8389 0.2275 0.52371 0.0
H533 H 0.73733 0.07409 0.58539 0.0
H534 H 0.73751 0.1907 0.48889 0.0
H535 H 0.83776 0.11845 0.62406 0.0
H536 H 0.73577 0.11699 0.551 0.0
H537 H 0.83814 0.18776 0.56151 0.0
C538 C 0.8165 0.211 0.52422 0.0
C539 C 0.78842 0.21234 0.50333 0.0
C540 C 0.75807 0.11739 0.56722 0.0
C541 C 0.78702 0.16658 0.54627 0.0
C542 C 0.75895 0.09298 0.58692 0.0
C543 C 0.78774 0.09248 0.60755 0.0
C544 C 0.78618 0.14139 0.56814 0.0
C545 C 0.81502 0.11758 0.60844 0.0
C546 C 0.81597 0.18835 0.54575 0.0
C547 C 0.75979 0.19049 0.50469 0.0
N548 N 0.81357 0.14077 0.58895 0.0
N549 N 0.75985 0.16839 0.52574 0.0
H550 H 0.31912 0.35001 0.01001 0.0
H551 H 0.47359 0.29578 0.08033 0.0
H552 H 0.3928 0.32982 0.94148 0.0
H553 H 0.43612 0.37881 0.15904 0.0
H554 H 0.44011 0.30308 0.02855 0.0
H555 H 0.35789 0.35808 0.06544 0.0
C556 C 0.34349 0.34794 0.00662 0.0
C557 C 0.35248 0.3384 0.97077 0.0
C558 C 0.43943 0.31999 0.05712 0.0
C559 C 0.39646 0.34674 0.03379 0.0
C560 C 0.45837 0.3157 0.08661 0.0
C561 C 0.45752 0.33675 0.12384 0.0
C562 C 0.41876 0.34472 0.0649 0.0
C563 C 0.43748 0.36226 0.13058 0.0
C564 C 0.36552 0.35243 0.03826 0.0
C565 C 0.38444 0.33593 0.96825 0.0
N566 N 0.41835 0.36514 0.10131 0.0
N567 N 0.40506 0.33933 0.99914 0.0
H568 H 0.31205 0.79759 0.32453 0.0
H569 H 0.37218 0.91661 0.54137 0.0
H570 H 0.3283 0.74851 0.40889 0.0
H571 H 0.30462 0.94627 0.47076 0.0
H572 H 0.37181 0.86047 0.48833 0.0
H573 H 0.32422 0.85818 0.3742 0.0
C574 C 0.31848 0.79974 0.35352 0.0
C575 C 0.31893 0.76833 0.36296 0.0
C576 C 0.35763 0.87975 0.48438 0.0
C577 C 0.33351 0.83695 0.41929 0.0
C578 C 0.35809 0.91179 0.51437 0.0
C579 C 0.33846 0.93584 0.5101 0.0
C580 C 0.33793 0.87244 0.44999 0.0
C581 C 0.32009 0.92824 0.47492 0.0
C582 C 0.32541 0.83411 0.38169 0.0
C583 C 0.32744 0.77226 0.40077 0.0
N584 N 0.32023 0.89714 0.44613 0.0
N585 N 0.33448 0.80606 0.42768 0.0
H586 H 0.73773 0.63646 0.8629 0.0
H587 H 0.57619 0.68152 0.90739 0.0
H588 H 0.67386 0.65383 0.77794 0.0
H589 H 0.61129 0.59897 0.94229 0.0
H590 H 0.61193 0.67392 0.86056 0.0
H591 H 0.69282 0.62403 0.89353 0.0
C592 C 0.7143 0.63691 0.84998 0.0
C593 C 0.70993 0.64644 0.81752 0.0
C594 C 0.61128 0.65688 0.87786 0.0
C595 C 0.65843 0.63356 0.85391 0.0
C596 C 0.59102 0.66126 0.90457 0.0
C597 C 0.59099 0.64086 0.92859 0.0
C598 C 0.63237 0.63287 0.87617 0.0
C599 C 0.61061 0.61504 0.92406 0.0
C600 C 0.68863 0.62994 0.8678 0.0
C601 C 0.67878 0.64758 0.80332 0.0
N602 N 0.63118 0.61238 0.89892 0.0
N603 N 0.65432 0.64195 0.82202 0.0
loop_
_geom_bond_atom_site_label_1
_geom_bond_atom_site_label_2
_geom_bond_distance
_geom_bond_site_symmetry_2
_ccdc_geom_bond_type
H0 C5 0.929 . S
H1 C10 0.931 . S
H2 C8 0.930 . S
N3 N4 1.234 . S
N3 C7 1.453 . S
N4 N3 1.234 . S
C5 H0 0.929 . S
C5 C6 1.373 . S
C5 C7 1.368 . S
C6 C5 1.373 . S
C6 C10 1.397 . S
C7 N3 1.453 . S
C7 C5 1.368 . S
C7 C8 1.373 . S
C8 H2 0.930 . S
C8 C7 1.373 . S
C8 C9 1.371 . S
C9 C8 1.371 . S
C9 C10 1.383 . S
C10 H1 0.931 . S
C10 C6 1.397 . S
C10 C9 1.383 . S
H11 C16 0.929 . S
H12 C21 0.931 . S
H13 C19 0.930 . S
N14 N15 1.234 . S
N14 C18 1.453 . S
N15 N14 1.234 . S
C16 H11 0.929 . S
C16 C17 1.373 . S
C16 C18 1.368 . S
C17 C16 1.373 . S
C17 C21 1.397 . S
C18 N14 1.453 . S
C18 C16 1.368 . S
C18 C19 1.373 . S
C19 H13 0.930 . S
C19 C18 1.373 . S
C19 C20 1.371 . S
C20 C19 1.371 . S
C20 C21 1.383 . S
C21 H12 0.931 . S
C21 C17 1.397 . S
C21 C20 1.383 . S
H22 C27 0.929 . S
H23 C32 0.931 . S
H24 C30 0.930 . S
N25 N26 1.234 . S
N25 C29 1.453 . S
N26 N25 1.234 . S
C27 H22 0.929 . S
C27 C28 1.373 . S
C27 C29 1.368 . S
C28 C27 1.373 . S
C28 C32 1.397 . S
C29 N25 1.453 . S
C29 C27 1.368 . S
C29 C30 1.373 . S
C30 H24 0.930 . S
C30 C29 1.373 . S
C30 C31 1.371 . S
C31 C30 1.371 . S
C31 C32 1.383 . S
C32 H23 0.931 . S
C32 C28 1.397 . S
C32 C31 1.383 . S
H33 C38 0.929 1_554 S
H34 C43 0.931 . S
H35 C41 0.930 . S
N36 N37 1.234 . S
N36 C40 1.453 1_554 S
N37 N36 1.234 . S
C38 H33 0.929 1_556 S
C38 C39 1.373 . S
C38 C40 1.368 . S
C39 C38 1.373 . S
C39 C43 1.397 . S
C40 N36 1.453 1_556 S
C40 C38 1.368 . S
C40 C41 1.373 . S
C41 H35 0.930 . S
C41 C40 1.373 . S
C41 C42 1.371 . S
C42 C41 1.371 . S
C42 C43 1.383 . S
C43 H34 0.931 . S
C43 C39 1.397 . S
C43 C42 1.383 . S
H44 C49 0.929 . S
H45 C54 0.931 . S
H46 C52 0.930 . S
N47 N48 1.234 . S
N47 C51 1.453 . S
N48 N47 1.234 . S
C49 H44 0.929 . S
C49 C50 1.373 . S
C49 C51 1.368 . S
C50 C49 1.373 . S
C50 C54 1.397 . S
C51 N47 1.453 . S
C51 C49 1.368 . S
C51 C52 1.373 . S
C52 H46 0.930 . S
C52 C51 1.373 . S
C52 C53 1.371 . S
C53 C52 1.371 . S
C53 C54 1.383 . S
C54 H45 0.931 . S
C54 C50 1.397 . S
C54 C53 1.383 . S
H55 C60 0.929 . S
H56 C65 0.931 . S
H57 C63 0.930 . S
N58 N59 1.234 . S
N58 C62 1.453 . S
N59 N58 1.234 . S
C60 H55 0.929 . S
C60 C61 1.373 . S
C60 C62 1.368 . S
C61 C60 1.373 . S
C61 C65 1.397 . S
C62 N58 1.453 . S
C62 C60 1.368 . S
C62 C63 1.373 . S
C63 H57 0.930 . S
C63 C62 1.373 . S
C63 C64 1.371 . S
C64 C63 1.371 . S
C64 C65 1.383 . S
C65 H56 0.931 . S
C65 C61 1.397 . S
C65 C64 1.383 . S
H66 C71 0.929 . S
H67 C76 0.931 . S
H68 C74 0.930 . S
N69 N70 1.234 . S
N69 C73 1.453 . S
N70 N69 1.234 . S
C71 H66 0.929 . S
C71 C72 1.373 . S
C71 C73 1.368 . S
C72 C71 1.373 . S
C72 C76 1.397 . S
C73 N69 1.453 . S
C73 C71 1.368 . S
C73 C74 1.373 . S
C74 H68 0.930 . S
C74 C73 1.373 . S
C74 C75 1.371 . S
C75 C74 1.371 . S
C75 C76 1.383 . S
C76 H67 0.931 . S
C76 C72 1.397 . S
C76 C75 1.383 . S
H77 C82 0.929 . S
H78 C87 0.931 . S
H79 C85 0.930 . S
N80 N81 1.234 . S
N80 C84 1.453 . S
N81 N80 1.234 . S
C82 H77 0.929 . S
C82 C83 1.373 . S
C82 C84 1.368 . S
C83 C82 1.373 . S
C83 C87 1.397 . S
C84 N80 1.453 . S
C84 C82 1.368 . S
C84 C85 1.373 . S
C85 H79 0.930 . S
C85 C84 1.373 . S
C85 C86 1.371 . S
C86 C85 1.371 . S
C86 C87 1.383 . S
C87 H78 0.931 . S
C87 C83 1.397 . S
C87 C86 1.383 . S
C88 O90 1.247 1_655 S
C88 O92 1.258 . S
C89 O96 1.247 . S
C89 O97 1.258 . S
O90 C88 1.247 1_455 S
O90 Zn91 2.028 . S
Zn91 O90 2.028 . S
Zn91 O95 2.035 . S
Zn91 O97 2.035 . S
Zn91 O98 2.028 . S
O92 C88 1.258 . S
O92 Zn93 2.035 1_655 S
Zn93 O92 2.035 1_455 S
Zn93 O94 2.028 . S
Zn93 O96 2.028 . S
Zn93 O99 2.035 1_455 S
O94 Zn93 2.028 . S
O94 C100 1.247 . S
O95 Zn91 2.035 . S
O95 C100 1.258 . S
O96 C89 1.247 . S
O96 Zn93 2.028 . S
O97 C89 1.258 . S
O97 Zn91 2.035 . S
O98 Zn91 2.028 . S
O98 C101 1.247 1_455 S
O99 Zn93 2.035 1_655 S
O99 C101 1.258 . S
C100 O94 1.247 . S
C100 O95 1.258 . S
C101 O98 1.247 1_655 S
C101 O99 1.258 . S
C102 O104 1.247 1_655 S
C102 O106 1.258 . S
C103 O110 1.247 . S
C103 O111 1.258 . S
O104 C102 1.247 1_455 S
O104 Zn105 2.028 . S
Zn105 O104 2.028 . S
Zn105 O109 2.035 . S
Zn105 O111 2.035 . S
Zn105 O112 2.028 . S
O106 C102 1.258 . S
O106 Zn107 2.035 1_655 S
Zn107 O106 2.035 1_455 S
Zn107 O108 2.028 . S
Zn107 O110 2.028 . S
Zn107 O113 2.052 . S
O108 Zn107 2.028 . S
O108 C114 1.247 . S
O109 Zn105 2.035 . S
O109 C114 1.258 . S
O110 C103 1.247 . S
O110 Zn107 2.028 . S
O111 C103 1.258 . S
O111 Zn105 2.035 . S
O112 Zn105 2.028 . S
O112 C115 1.247 1_455 S
O113 Zn107 2.052 . S
O113 C115 1.251 1_455 S
C114 O108 1.247 . S
C114 O109 1.258 . S
C115 O112 1.247 1_655 S
C115 O113 1.251 1_655 S
C116 O118 1.247 . S
C116 O120 1.258 . S
C117 O124 1.247 . S
C117 O125 1.258 . S
O118 C116 1.247 . S
O118 Zn119 2.028 1_565 S
Zn119 O118 2.028 1_545 S
Zn119 O123 2.035 . S
Zn119 O125 2.035 . S
Zn119 O126 2.028 1_545 S
O120 C116 1.258 . S
O120 Zn121 2.035 1_565 S
Zn121 O120 2.035 1_545 S
Zn121 O122 2.028 . S
Zn121 O124 2.028 . S
Zn121 O127 2.035 1_545 S
O122 Zn121 2.028 . S
O122 C128 1.247 . S
O123 Zn119 2.035 . S
O123 C128 1.258 . S
O124 C117 1.247 . S
O124 Zn121 2.028 . S
O125 C117 1.258 . S
O125 Zn119 2.035 . S
O126 Zn119 2.028 1_565 S
O126 C129 1.247 . S
O127 Zn121 2.035 1_565 S
O127 C129 1.258 . S
C128 O122 1.247 . S
C128 O123 1.258 . S
C129 O126 1.247 . S
C129 O127 1.258 . S
C130 O132 1.247 . S
C130 O134 1.258 . S
C131 O138 1.247 . S
C131 O139 1.258 . S
O132 C130 1.247 . S
O132 Zn133 2.028 1_554 S
Zn133 O132 2.028 1_556 S
Zn133 O137 2.035 1_556 S
Zn133 O139 2.035 . S
Zn133 O140 2.028 . S
O134 C130 1.258 . S
O134 Zn135 2.035 . S
Zn135 O134 2.035 . S
Zn135 O136 2.028 . S
Zn135 O138 2.028 1_554 S
Zn135 O141 2.035 1_554 S
O136 Zn135 2.028 . S
O136 C142 1.247 . S
O137 Zn133 2.035 1_554 S
O137 C142 1.258 . S
O138 C131 1.247 . S
O138 Zn135 2.028 1_556 S
O139 C131 1.258 . S
O139 Zn133 2.035 . S
O140 Zn133 2.028 . S
O140 C143 1.247 . S
O141 Zn135 2.035 1_556 S
O141 C143 1.258 . S
C142 O136 1.247 . S
C142 O137 1.258 . S
C143 O140 1.247 . S
C143 O141 1.258 . S
C144 O146 1.247 . S
C144 O148 1.258 . S
C145 O152 1.247 . S
C145 O153 1.258 . S
O146 C144 1.247 . S
O146 Zn147 2.028 1_565 S
Zn147 O146 2.028 1_545 S
Zn147 O151 2.035 . S
Zn147 O153 2.035 . S
Zn147 O154 2.028 1_545 S
O148 C144 1.258 . S
O148 Zn149 2.035 1_565 S
Zn149 O148 2.035 1_545 S
Zn149 O150 2.028 . S
Zn149 O152 2.028 . S
Zn149 O155 2.035 1_545 S
O150 Zn149 2.028 . S
O150 C156 1.247 . S
O151 Zn147 2.035 . S
O151 C156 1.258 . S
O152 C145 1.247 . S
O152 Zn149 2.028 . S
O153 C145 1.258 . S
O153 Zn147 2.035 . S
O154 Zn147 2.028 1_565 S
O154 C157 1.247 . S
O155 Zn149 2.035 1_565 S
O155 C157 1.258 . S
C156 O150 1.247 . S
C156 O151 1.258 . S
C157 O154 1.247 . S
C157 O155 1.258 . S
C158 O160 1.247 . S
C158 O162 1.258 . S
C159 O166 1.247 . S
C159 O167 1.258 . S
O160 C158 1.247 . S
O160 Zn161 2.028 . S
Zn161 O160 2.028 . S
Zn161 O165 2.035 . S
Zn161 O167 2.035 . S
Zn161 O168 2.028 . S
O162 C158 1.258 . S
O162 Zn163 2.035 . S
Zn163 O162 2.035 . S
Zn163 O164 2.028 . S
Zn163 O166 2.028 . S
Zn163 O169 2.035 . S
O164 Zn163 2.028 . S
O164 C170 1.247 . S
O165 Zn161 2.035 . S
O165 C170 1.258 . S
O166 C159 1.247 . S
O166 Zn163 2.028 . S
O167 C159 1.258 . S
O167 Zn161 2.035 . S
O168 Zn161 2.028 . S
O168 C171 1.247 . S
O169 Zn163 2.035 . S
O169 C171 1.258 . S
C170 O164 1.247 . S
C170 O165 1.258 . S
C171 O168 1.247 . S
C171 O169 1.258 . S
H172 C178 0.930 . S
H173 C182 0.930 . S
H174 C187 0.929 . S
H175 C185 0.929 . S
H176 C180 0.929 . S
H177 C186 0.929 . S
C178 H172 0.930 . S
C178 C179 1.367 . S
C178 C186 1.378 . S
C179 C178 1.367 . S
C179 C187 1.433 . S
C180 H176 0.929 . S
C180 C182 1.378 . S
C180 C184 1.350 . S
C181 C184 1.463 . S
C181 C186 1.350 . S
C181 N189 1.427 . S
C182 H173 0.930 . S
C182 C180 1.378 . S
C182 C183 1.367 . S
C183 C182 1.367 . S
C183 C185 1.433 . S
C184 C180 1.350 . S
C184 C181 1.463 . S
C184 N188 1.427 . S
C185 H175 0.929 . S
C185 C183 1.433 . S
C185 N188 1.384 . S
C186 H177 0.929 . S
C186 C178 1.378 . S
C186 C181 1.350 . S
C187 H174 0.929 . S
C187 C179 1.433 . S
C187 N189 1.384 . S
N188 C184 1.427 . S
N188 C185 1.384 . S
N189 C181 1.427 . S
N189 C187 1.384 . S
H190 C196 0.930 . S
H191 C200 0.930 . S
H192 C205 0.929 . S
H193 C203 0.929 . S
H194 C198 0.929 . S
H195 C204 0.929 . S
C196 H190 0.930 . S
C196 C197 1.367 . S
C196 C204 1.378 . S
C197 C196 1.367 . S
C197 C205 1.433 . S
C198 H194 0.929 . S
C198 C200 1.378 . S
C198 C202 1.350 . S
C199 C202 1.463 . S
C199 C204 1.350 . S
C199 N207 1.427 . S
C200 H191 0.930 . S
C200 C198 1.378 . S
C200 C201 1.367 . S
C201 C200 1.367 . S
C201 C203 1.433 . S
C202 C198 1.350 . S
C202 C199 1.463 . S
C202 N206 1.427 . S
C203 H193 0.929 . S
C203 C201 1.433 . S
C203 N206 1.384 . S
C204 H195 0.929 . S
C204 C196 1.378 . S
C204 C199 1.350 . S
C205 H192 0.929 . S
C205 C197 1.433 . S
C205 N207 1.384 . S
N206 C202 1.427 . S
N206 C203 1.384 . S
N207 C199 1.427 . S
N207 C205 1.384 . S
H208 C214 0.930 . S
H209 C218 0.930 . S
H210 C223 0.929 . S
H211 C221 0.929 . S
H212 C216 0.929 . S
H213 C222 0.929 . S
C214 H208 0.930 . S
C214 C215 1.367 . S
C214 C222 1.378 . S
C215 C214 1.367 . S
C215 C223 1.433 . S
C216 H212 0.929 . S
C216 C218 1.378 . S
C216 C220 1.350 . S
C217 C220 1.463 . S
C217 C222 1.350 . S
C217 N225 1.427 . S
C218 H209 0.930 . S
C218 C216 1.378 . S
C218 C219 1.367 . S
C219 C218 1.367 . S
C219 C221 1.433 . S
C220 C216 1.350 . S
C220 C217 1.463 . S
C220 N224 1.427 . S
C221 H211 0.929 . S
C221 C219 1.433 . S
C221 N224 1.384 . S
C222 H213 0.929 . S
C222 C214 1.378 . S
C222 C217 1.350 . S
C223 H210 0.929 . S
C223 C215 1.433 . S
C223 N225 1.384 . S
N224 C220 1.427 . S
N224 C221 1.384 . S
N225 C217 1.427 . S
N225 C223 1.384 . S
H226 C232 0.930 1_554 S
H227 C236 0.930 . S
H228 C241 0.929 . S
H229 C239 0.929 1_554 S
H230 C234 0.929 . S
H231 C240 0.929 1_554 S
C232 H226 0.930 1_556 S
C232 C233 1.367 . S
C232 C240 1.378 . S
C233 C232 1.367 . S
C233 C241 1.433 . S
C234 H230 0.929 . S
C234 C236 1.378 . S
C234 C238 1.350 . S
C235 C238 1.463 . S
C235 C240 1.350 . S
C235 N243 1.427 . S
C236 H227 0.930 . S
C236 C234 1.378 . S
C236 C237 1.367 . S
C237 C236 1.367 . S
C237 C239 1.433 . S
C238 C234 1.350 . S
C238 C235 1.463 . S
C238 N242 1.427 . S
C239 H229 0.929 1_556 S
C239 C237 1.433 . S
C239 N242 1.384 . S
C240 H231 0.929 1_556 S
C240 C232 1.378 . S
C240 C235 1.350 . S
C241 H228 0.929 . S
C241 C233 1.433 . S
C241 N243 1.384 . S
N242 C238 1.427 . S
N242 C239 1.384 . S
N243 C235 1.427 . S
N243 C241 1.384 . S
H244 C250 0.930 . S
H245 C254 0.930 . S
H246 C259 0.929 . S
H247 C257 0.929 . S
H248 C252 0.929 . S
H249 C258 0.929 . S
C250 H244 0.930 . S
C250 C251 1.367 . S
C250 C258 1.378 . S
C251 C250 1.367 . S
C251 C259 1.433 . S
C252 H248 0.929 . S
C252 C254 1.378 . S
C252 C256 1.350 . S
C253 C256 1.463 . S
C253 C258 1.350 . S
C253 N261 1.427 . S
C254 H245 0.930 . S
C254 C252 1.378 . S
C254 C255 1.367 . S
C255 C254 1.367 . S
C255 C257 1.433 . S
C256 C252 1.350 . S
C256 C253 1.463 . S
C256 N260 1.427 . S
C257 H247 0.929 . S
C257 C255 1.433 . S
C257 N260 1.384 . S
C258 H249 0.929 . S
C258 C250 1.378 . S
C258 C253 1.350 . S
C259 H246 0.929 . S
C259 C251 1.433 . S
C259 N261 1.384 . S
N260 C256 1.427 . S
N260 C257 1.384 . S
N261 C253 1.427 . S
N261 C259 1.384 . S
H262 C268 0.930 . S
H263 C272 0.930 . S
H264 C277 0.929 . S
H265 C275 0.929 . S
H266 C270 0.929 . S
H267 C276 0.929 . S
C268 H262 0.930 . S
C268 C269 1.367 . S
C268 C276 1.378 . S
C269 C268 1.367 . S
C269 C277 1.433 . S
C270 H266 0.929 . S
C270 C272 1.378 . S
C270 C274 1.350 . S
C271 C274 1.463 . S
C271 C276 1.350 . S
C271 N279 1.427 . S
C272 H263 0.930 . S
C272 C270 1.378 . S
C272 C273 1.367 . S
C273 C272 1.367 . S
C273 C275 1.433 . S
C274 C270 1.350 . S
C274 C271 1.463 . S
C274 N278 1.427 . S
C275 H265 0.929 . S
C275 C273 1.433 . S
C275 N278 1.384 . S
C276 H267 0.929 . S
C276 C268 1.378 . S
C276 C271 1.350 . S
C277 H264 0.929 . S
C277 C269 1.433 . S
C277 N279 1.384 . S
N278 C274 1.427 . S
N278 C275 1.384 . S
N279 C271 1.427 . S
N279 C277 1.384 . S
H280 C286 0.930 . S
H281 C290 0.930 . S
H282 C295 0.929 . S
H283 C293 0.929 . S
H284 C288 0.929 . S
H285 C294 0.929 . S
C286 H280 0.930 . S
C286 C287 1.367 . S
C286 C294 1.378 . S
C287 C286 1.367 . S
C287 C295 1.433 . S
C288 H284 0.929 . S
C288 C290 1.378 . S
C288 C292 1.350 . S
C289 C292 1.463 . S
C289 C294 1.350 . S
C289 N297 1.427 . S
C290 H281 0.930 . S
C290 C288 1.378 . S
C290 C291 1.367 . S
C291 C290 1.367 . S
C291 C293 1.433 . S
C292 C288 1.350 . S
C292 C289 1.463 . S
C292 N296 1.427 . S
C293 H283 0.929 . S
C293 C291 1.433 . S
C293 N296 1.384 . S
C294 H285 0.929 . S
C294 C286 1.378 . S
C294 C289 1.350 . S
C295 H282 0.929 . S
C295 C287 1.433 . S
C295 N297 1.384 . S
N296 C292 1.427 . S
N296 C293 1.384 . S
N297 C289 1.427 . S
N297 C295 1.384 . S
H298 C304 0.930 . S
H299 C308 0.930 . S
H300 C313 0.929 . S
H301 C311 0.929 . S
H302 C306 0.929 . S
H303 C312 0.929 . S
C304 H298 0.930 . S
C304 C305 1.367 . S
C304 C312 1.378 . S
C305 C304 1.367 . S
C305 C313 1.433 . S
C306 H302 0.929 . S
C306 C308 1.378 . S
C306 C310 1.350 . S
C307 C310 1.463 . S
C307 C312 1.350 . S
C307 N315 1.427 . S
C308 H299 0.930 . S
C308 C306 1.378 . S
C308 C309 1.367 . S
C309 C308 1.367 . S
C309 C311 1.433 . S
C310 C306 1.350 . S
C310 C307 1.463 . S
C310 N314 1.427 . S
C311 H301 0.929 . S
C311 C309 1.433 . S
C311 N314 1.384 . S
C312 H303 0.929 . S
C312 C304 1.378 . S
C312 C307 1.350 . S
C313 H300 0.929 . S
C313 C305 1.433 . S
C313 N315 1.384 . S
N314 C310 1.427 . S
N314 C311 1.384 . S
N315 C307 1.427 . S
N315 C313 1.384 . S
H316 C322 0.930 . S
H317 C326 0.930 . S
H318 C331 0.929 . S
H319 C329 0.929 . S
H320 C324 0.929 . S
H321 C330 0.929 . S
C322 H316 0.930 . S
C322 C323 1.367 . S
C322 C330 1.378 . S
C323 C322 1.367 . S
C323 C331 1.433 . S
C324 H320 0.929 . S
C324 C326 1.378 . S
C324 C328 1.350 . S
C325 C328 1.463 . S
C325 C330 1.350 . S
C325 N333 1.427 . S
C326 H317 0.930 . S
C326 C324 1.378 . S
C326 C327 1.367 . S
C327 C326 1.367 . S
C327 C329 1.433 . S
C328 C324 1.350 . S
C328 C325 1.463 . S
C328 N332 1.427 . S
C329 H319 0.929 . S
C329 C327 1.433 . S
C329 N332 1.384 . S
C330 H321 0.929 . S
C330 C322 1.378 . S
C330 C325 1.350 . S
C331 H318 0.929 . S
C331 C323 1.433 . S
C331 N333 1.384 . S
N332 C328 1.427 . S
N332 C329 1.384 . S
N333 C325 1.427 . S
N333 C331 1.384 . S
H334 C340 0.930 . S
H335 C344 0.930 . S
H336 C349 0.929 . S
H337 C347 0.929 . S
H338 C342 0.929 . S
H339 C348 0.929 . S
C340 H334 0.930 . S
C340 C341 1.367 . S
C340 C348 1.378 . S
C341 C340 1.367 . S
C341 C349 1.433 . S
C342 H338 0.929 . S
C342 C344 1.378 . S
C342 C346 1.350 . S
C343 C346 1.463 . S
C343 C348 1.350 . S
C343 N351 1.427 . S
C344 H335 0.930 . S
C344 C342 1.378 . S
C344 C345 1.367 . S
C345 C344 1.367 . S
C345 C347 1.433 . S
C346 C342 1.350 . S
C346 C343 1.463 . S
C346 N350 1.427 . S
C347 H337 0.929 . S
C347 C345 1.433 . S
C347 N350 1.384 . S
C348 H339 0.929 . S
C348 C340 1.378 . S
C348 C343 1.350 . S
C349 H336 0.929 . S
C349 C341 1.433 . S
C349 N351 1.384 . S
N350 C346 1.427 . S
N350 C347 1.384 . S
N351 C343 1.427 . S
N351 C349 1.384 . S
H352 C358 0.930 . S
H353 C362 0.930 . S
H354 C367 0.929 . S
H355 C365 0.929 . S
H356 C360 0.929 . S
H357 C366 0.929 . S
C358 H352 0.930 . S
C358 C359 1.367 . S
C358 C366 1.378 . S
C359 C358 1.367 . S
C359 C367 1.433 . S
C360 H356 0.929 . S
C360 C362 1.378 . S
C360 C364 1.350 . S
C361 C364 1.463 . S
C361 C366 1.350 . S
C361 N369 1.427 . S
C362 H353 0.930 . S
C362 C360 1.378 . S
C362 C363 1.367 . S
C363 C362 1.367 . S
C363 C365 1.433 . S
C364 C360 1.350 . S
C364 C361 1.463 . S
C364 N368 1.427 . S
C365 H355 0.929 . S
C365 C363 1.433 . S
C365 N368 1.384 . S
C366 H357 0.929 . S
C366 C358 1.378 . S
C366 C361 1.350 . S
C367 H354 0.929 . S
C367 C359 1.433 . S
C367 N369 1.384 . S
N368 C364 1.427 . S
N368 C365 1.384 . S
N369 C361 1.427 . S
N369 C367 1.384 . S
H370 C376 0.930 . S
H371 C380 0.930 . S
H372 C385 0.929 . S
H373 C383 0.929 . S
H374 C378 0.929 . S
H375 C384 0.929 . S
C376 H370 0.930 . S
C376 C377 1.367 . S
C376 C384 1.378 . S
C377 C376 1.367 . S
C377 C385 1.433 . S
C378 H374 0.929 . S
C378 C380 1.378 . S
C378 C382 1.350 . S
C379 C382 1.463 . S
C379 C384 1.350 . S
C379 N387 1.427 . S
C380 H371 0.930 . S
C380 C378 1.378 . S
C380 C381 1.367 . S
C381 C380 1.367 . S
C381 C383 1.433 . S
C382 C378 1.350 . S
C382 C379 1.463 . S
C382 N386 1.427 . S
C383 H373 0.929 . S
C383 C381 1.433 . S
C383 N386 1.384 . S
C384 H375 0.929 . S
C384 C376 1.378 . S
C384 C379 1.350 . S
C385 H372 0.929 . S
C385 C377 1.433 . S
C385 N387 1.384 . S
N386 C382 1.427 . S
N386 C383 1.384 . S
N387 C379 1.427 . S
N387 C385 1.384 . S
H388 C394 0.930 . S
H389 C398 0.930 . S
H390 C403 0.929 . S
H391 C401 0.929 . S
H392 C396 0.929 . S
H393 C402 0.929 . S
C394 H388 0.930 . S
C394 C395 1.367 . S
C394 C402 1.378 . S
C395 C394 1.367 . S
C395 C403 1.433 . S
C396 H392 0.929 . S
C396 C398 1.378 . S
C396 C400 1.350 . S
C397 C400 1.463 . S
C397 C402 1.350 . S
C397 N405 1.427 . S
C398 H389 0.930 . S
C398 C396 1.378 . S
C398 C399 1.367 . S
C399 C398 1.367 . S
C399 C401 1.433 . S
C400 C396 1.350 . S
C400 C397 1.463 . S
C400 N404 1.427 . S
C401 H391 0.929 . S
C401 C399 1.433 . S
C401 N404 1.384 . S
C402 H393 0.929 . S
C402 C394 1.378 . S
C402 C397 1.350 . S
C403 H390 0.929 . S
C403 C395 1.433 . S
C403 N405 1.384 . S
N404 C400 1.427 . S
N404 C401 1.384 . S
N405 C397 1.427 . S
N405 C403 1.384 . S
H406 C412 0.930 . S
H407 C416 0.930 . S
H408 C421 0.929 . S
H409 C419 0.929 . S
H410 C414 0.929 . S
H411 C420 0.929 . S
C412 H406 0.930 . S
C412 C413 1.367 . S
C412 C420 1.378 . S
C413 C412 1.367 . S
C413 C421 1.433 . S
C414 H410 0.929 . S
C414 C416 1.378 . S
C414 C418 1.350 . S
C415 C418 1.463 . S
C415 C420 1.350 . S
C415 N423 1.427 . S
C416 H407 0.930 . S
C416 C414 1.378 . S
C416 C417 1.367 . S
C417 C416 1.367 . S
C417 C419 1.433 . S
C418 C414 1.350 . S
C418 C415 1.463 . S
C418 N422 1.427 . S
C419 H409 0.929 . S
C419 C417 1.433 . S
C419 N422 1.384 . S
C420 H411 0.929 . S
C420 C412 1.378 . S
C420 C415 1.350 . S
C421 H408 0.929 . S
C421 C413 1.433 . S
C421 N423 1.384 . S
N422 C418 1.427 . S
N422 C419 1.384 . S
N423 C415 1.427 . S
N423 C421 1.384 . S
H424 C430 0.930 . S
H425 C434 0.930 . S
H426 C439 0.929 . S
H427 C437 0.929 1_554 S
H428 C432 0.929 . S
H429 C438 0.929 . S
C430 H424 0.930 . S
C430 C431 1.367 . S
C430 C438 1.378 . S
C431 C430 1.367 . S
C431 C439 1.433 . S
C432 H428 0.929 . S
C432 C434 1.378 . S
C432 C436 1.350 . S
C433 C436 1.463 . S
C433 C438 1.350 . S
C433 N441 1.427 . S
C434 H425 0.930 . S
C434 C432 1.378 . S
C434 C435 1.367 . S
C435 C434 1.367 . S
C435 C437 1.433 . S
C436 C432 1.350 . S
C436 C433 1.463 . S
C436 N440 1.427 . S
C437 H427 0.929 1_556 S
C437 C435 1.433 . S
C437 N440 1.384 . S
C438 H429 0.929 . S
C438 C430 1.378 . S
C438 C433 1.350 . S
C439 H426 0.929 . S
C439 C431 1.433 . S
C439 N441 1.384 . S
N440 C436 1.427 . S
N440 C437 1.384 . S
N441 C433 1.427 . S
N441 C439 1.384 . S
H442 C448 0.930 . S
H443 C452 0.930 . S
H444 C457 0.929 . S
H445 C455 0.929 . S
H446 C450 0.929 . S
H447 C456 0.929 . S
C448 H442 0.930 . S
C448 C449 1.367 . S
C448 C456 1.378 . S
C449 C448 1.367 . S
C449 C457 1.433 . S
C450 H446 0.929 . S
C450 C452 1.378 . S
C450 C454 1.350 . S
C451 C454 1.463 . S
C451 C456 1.350 . S
C451 N459 1.427 . S
C452 H443 0.930 . S
C452 C450 1.378 . S
C452 C453 1.367 . S
C453 C452 1.367 . S
C453 C455 1.433 . S
C454 C450 1.350 . S
C454 C451 1.463 . S
C454 N458 1.427 . S
C455 H445 0.929 . S
C455 C453 1.433 . S
C455 N458 1.384 . S
C456 H447 0.929 . S
C456 C448 1.378 . S
C456 C451 1.350 . S
C457 H444 0.929 . S
C457 C449 1.433 . S
C457 N459 1.384 . S
N458 C454 1.427 . S
N458 C455 1.384 . S
N459 C451 1.427 . S
N459 C457 1.384 . S
H460 C466 0.930 . S
H461 C470 0.930 . S
H462 C475 0.929 . S
H463 C473 0.929 . S
H464 C468 0.929 . S
H465 C474 0.929 . S
C466 H460 0.930 . S
C466 C467 1.367 . S
C466 C474 1.378 . S
C467 C466 1.367 . S
C467 C475 1.433 . S
C468 H464 0.929 . S
C468 C470 1.378 . S
C468 C472 1.350 . S
C469 C472 1.463 . S
C469 C474 1.350 . S
C469 N477 1.427 . S
C470 H461 0.930 . S
C470 C468 1.378 . S
C470 C471 1.367 . S
C471 C470 1.367 . S
C471 C473 1.433 . S
C472 C468 1.350 . S
C472 C469 1.463 . S
C472 N476 1.427 . S
C473 H463 0.929 . S
C473 C471 1.433 . S
C473 N476 1.384 . S
C474 H465 0.929 . S
C474 C466 1.378 . S
C474 C469 1.350 . S
C475 H462 0.929 . S
C475 C467 1.433 . S
C475 N477 1.384 . S
N476 C472 1.427 . S
N476 C473 1.384 . S
N477 C469 1.427 . S
N477 C475 1.384 . S
H478 C484 0.930 . S
H479 C488 0.930 . S
H480 C493 0.929 . S
H481 C491 0.929 . S
H482 C486 0.929 . S
H483 C492 0.929 . S
C484 H478 0.930 . S
C484 C485 1.367 . S
C484 C492 1.378 . S
C485 C484 1.367 . S
C485 C493 1.433 . S
C486 H482 0.929 . S
C486 C488 1.378 . S
C486 C490 1.350 . S
C487 C490 1.463 . S
C487 C492 1.350 . S
C487 N495 1.427 . S
C488 H479 0.930 . S
C488 C486 1.378 . S
C488 C489 1.367 . S
C489 C488 1.367 . S
C489 C491 1.433 . S
C490 C486 1.350 . S
C490 C487 1.463 . S
C490 N494 1.427 . S
C491 H481 0.929 . S
C491 C489 1.433 . S
C491 N494 1.384 . S
C492 H483 0.929 . S
C492 C484 1.378 . S
C492 C487 1.350 . S
C493 H480 0.929 . S
C493 C485 1.433 . S
C493 N495 1.384 . S
N494 C490 1.427 . S
N494 C491 1.384 . S
N495 C487 1.427 . S
N495 C493 1.384 . S
H496 C502 0.930 . S
H497 C506 0.930 . S
H498 C511 0.929 . S
H499 C509 0.929 . S
H500 C504 0.929 . S
H501 C510 0.929 . S
C502 H496 0.930 . S
C502 C503 1.367 . S
C502 C510 1.378 . S
C503 C502 1.367 . S
C503 C511 1.433 . S
C504 H500 0.929 . S
C504 C506 1.378 . S
C504 C508 1.350 . S
C505 C508 1.463 . S
C505 C510 1.350 . S
C505 N513 1.427 . S
C506 H497 0.930 . S
C506 C504 1.378 . S
C506 C507 1.367 . S
C507 C506 1.367 . S
C507 C509 1.433 . S
C508 C504 1.350 . S
C508 C505 1.463 . S
C508 N512 1.427 . S
C509 H499 0.929 . S
C509 C507 1.433 . S
C509 N512 1.384 . S
C510 H501 0.929 . S
C510 C502 1.378 . S
C510 C505 1.350 . S
C511 H498 0.929 . S
C511 C503 1.433 . S
C511 N513 1.384 . S
N512 C508 1.427 . S
N512 C509 1.384 . S
N513 C505 1.427 . S
N513 C511 1.384 . S
H514 C520 0.930 . S
H515 C524 0.930 . S
H516 C529 0.929 . S
H517 C527 0.929 . S
H518 C522 0.929 . S
H519 C528 0.929 . S
C520 H514 0.930 . S
C520 C521 1.367 . S
C520 C528 1.378 . S
C521 C520 1.367 . S
C521 C529 1.433 . S
C522 H518 0.929 . S
C522 C524 1.378 . S
C522 C526 1.350 . S
C523 C526 1.463 . S
C523 C528 1.350 . S
C523 N531 1.427 . S
C524 H515 0.930 . S
C524 C522 1.378 . S
C524 C525 1.367 . S
C525 C524 1.367 . S
C525 C527 1.433 . S
C526 C522 1.350 . S
C526 C523 1.463 . S
C526 N530 1.427 . S
C527 H517 0.929 . S
C527 C525 1.433 . S
C527 N530 1.384 . S
C528 H519 0.929 . S
C528 C520 1.378 . S
C528 C523 1.350 . S
C529 H516 0.929 . S
C529 C521 1.433 . S
C529 N531 1.384 . S
N530 C526 1.427 . S
N530 C527 1.384 . S
N531 C523 1.427 . S
N531 C529 1.384 . S
H532 C538 0.930 . S
H533 C542 0.930 . S
H534 C547 0.929 . S
H535 C545 0.929 . S
H536 C540 0.929 . S
H537 C546 0.929 . S
C538 H532 0.930 . S
C538 C539 1.367 . S
C538 C546 1.378 . S
C539 C538 1.367 . S
C539 C547 1.433 . S
C540 H536 0.929 . S
C540 C542 1.378 . S
C540 C544 1.350 . S
C541 C544 1.463 . S
C541 C546 1.350 . S
C541 N549 1.427 . S
C542 H533 0.930 . S
C542 C540 1.378 . S
C542 C543 1.367 . S
C543 C542 1.367 . S
C543 C545 1.433 . S
C544 C540 1.350 . S
C544 C541 1.463 . S
C544 N548 1.427 . S
C545 H535 0.929 . S
C545 C543 1.433 . S
C545 N548 1.384 . S
C546 H537 0.929 . S
C546 C538 1.378 . S
C546 C541 1.350 . S
C547 H534 0.929 . S
C547 C539 1.433 . S
C547 N549 1.384 . S
N548 C544 1.427 . S
N548 C545 1.384 . S
N549 C541 1.427 . S
N549 C547 1.384 . S
H550 C556 0.930 . S
H551 C560 0.930 . S
H552 C565 0.929 . S
H553 C563 0.929 . S
H554 C558 0.929 . S
H555 C564 0.929 . S
C556 H550 0.930 . S
C556 C557 1.367 1_554 S
C556 C564 1.378 . S
C557 C556 1.367 1_556 S
C557 C565 1.433 . S
C558 H554 0.929 . S
C558 C560 1.378 . S
C558 C562 1.350 . S
C559 C562 1.463 . S
C559 C564 1.350 . S
C559 N567 1.433 . S
C560 H551 0.930 . S
C560 C558 1.378 . S
C560 C561 1.367 . S
C561 C560 1.367 . S
C561 C563 1.433 . S
C562 C558 1.350 . S
C562 C559 1.463 . S
C562 N566 1.427 . S
C563 H553 0.929 . S
C563 C561 1.433 . S
C563 N566 1.384 . S
C564 H555 0.929 . S
C564 C556 1.378 . S
C564 C559 1.350 . S
C565 H552 0.929 . S
C565 C557 1.433 . S
C565 N567 1.379 1_556 S
N566 C562 1.427 . S
N566 C563 1.384 . S
N567 C559 1.433 . S
N567 C565 1.379 1_554 S
H568 C574 0.930 . S
H569 C578 0.930 . S
H570 C583 0.929 . S
H571 C581 0.929 . S
H572 C576 0.929 . S
H573 C582 0.929 . S
C574 H568 0.930 . S
C574 C575 1.367 . S
C574 C582 1.378 . S
C575 C574 1.367 . S
C575 C583 1.433 . S
C576 H572 0.929 . S
C576 C578 1.378 . S
C576 C580 1.350 . S
C577 C580 1.463 . S
C577 C582 1.350 . S
C577 N585 1.427 . S
C578 H569 0.930 . S
C578 C576 1.378 . S
C578 C579 1.367 . S
C579 C578 1.367 . S
C579 C581 1.433 . S
C580 C576 1.350 . S
C580 C577 1.463 . S
C580 N584 1.427 . S
C581 H571 0.929 . S
C581 C579 1.433 . S
C581 N584 1.384 . S
C582 H573 0.929 . S
C582 C574 1.378 . S
C582 C577 1.350 . S
C583 H570 0.929 . S
C583 C575 1.433 . S
C583 N585 1.384 . S
N584 C580 1.427 . S
N584 C581 1.384 . S
N585 C577 1.427 . S
N585 C583 1.384 . S
H586 C592 0.930 . S
H587 C596 0.930 . S
H588 C601 0.929 . S
H589 C599 0.929 . S
H590 C594 0.929 . S
H591 C600 0.929 . S
C592 H586 0.930 . S
C592 C593 1.367 . S
C592 C600 1.378 . S
C593 C592 1.367 . S
C593 C601 1.433 . S
C594 H590 0.929 . S
C594 C596 1.378 . S
C594 C598 1.350 . S
C595 C598 1.463 . S
C595 C600 1.350 . S
C595 N603 1.427 . S
C596 H587 0.930 . S
C596 C594 1.378 . S
C596 C597 1.367 . S
C597 C596 1.367 . S
C597 C599 1.433 . S
C598 C594 1.350 . S
C598 C595 1.463 . S
C598 N602 1.427 . S
C599 H589 0.929 . S
C599 C597 1.433 . S
C599 N602 1.384 . S
C600 H591 0.929 . S
C600 C592 1.378 . S
C600 C595 1.350 . S
C601 H588 0.929 . S
C601 C593 1.433 . S
C601 N603 1.384 . S
N602 C598 1.427 . S
N602 C599 1.384 . S
N603 C595 1.427 . S
N603 C601 1.384 . S
C183 C100 1.510 . S
C179 N4 1.505 . S
C201 C103 1.665 . S
C197 C17 1.673 . S
C219 C101 1.422 . S
C215 C28 1.422 . S
C237 C102 1.495 . S
C233 C39 1.512 . S
C255 C117 1.742 . S
C251 C6 1.745 . S
C273 C131 1.662 . S
C269 C20 1.655 . S
C287 C31 1.599 . S
C291 C157 1.605 . S
C309 C171 1.413 . S
C305 N37 1.409 . S
C327 C116 1.672 . S
C323 N15 1.659 . S
C341 N26 1.452 . S
C345 C130 1.429 . S
C363 C156 1.596 . S
C359 C42 1.580 . S
C381 C170 1.574 . S
C377 C9 1.566 . S
C395 C53 1.734 . S
C399 C115 1.731 . S
C417 C88 1.591 . S
C413 C64 1.586 . S
C431 N70 1.574 . S
C435 C114 1.566 . S
C449 C83 1.531 . S
C453 C89 1.544 . S
C471 C144 1.482 . S
C467 N48 1.477 . S
C489 C158 1.588 . S
C485 C61 1.589 . S
C507 C128 1.590 . S
C503 C72 1.597 . S
C521 N81 1.614 . S
C525 C142 1.598 . S
C543 C145 1.536 . S
C539 N59 1.522 . S
C561 C159 1.612 . S
C557 C75 1.594 . S
C579 C129 1.591 . S
C575 C86 1.589 . S
C593 C50 1.697 . S
C597 C143 1.686 . S
