# Generated by pormake.
# Topology pth, (4,4)-cn, num edge types: 1
# Building blocks:
#     Node 0, Type 0, BuildingBlock: NAHDIM_clean_sbu_0, # of connection points: 4
#     Node 1, Type 0, BuildingBlock: NAHDIM_clean_sbu_0, # of connection points: 4
#     Node 2, Type 0, BuildingBlock: NAHDIM_clean_sbu_0, # of connection points: 4
#     Node 3, Type 1, BuildingBlock: MUDLON_clean_linker_0, # of connection points: 4
#     Node 4, Type 1, BuildingBlock: MUDLON_clean_linker_0, # of connection points: 4
#     Node 5, Type 1, BuildingBlock: MUDLON_clean_linker_0, # of connection points: 4
#     Edge 6, Type (0, 1), BuildingBlock: MIFKUJ_clean_linker_0, # of connection points: 2
#     Edge 7, Type (0, 1), BuildingBlock: MIFKUJ_clean_linker_0, # of connection points: 2
#     Edge 8, Type (0, 1), BuildingBlock: MIFKUJ_clean_linker_0, # of connection points: 2
#     Edge 9, Type (0, 1), BuildingBlock: MIFKUJ_clean_linker_0, # of connection points: 2
#     Edge 10, Type (0, 1), BuildingBlock: MIFKUJ_clean_linker_0, # of connection points: 2
#     Edge 11, Type (0, 1), BuildingBlock: MIFKUJ_clean_linker_0, # of connection points: 2
#     Edge 12, Type (0, 1), BuildingBlock: MIFKUJ_clean_linker_0, # of connection points: 2
#     Edge 13, Type (0, 1), BuildingBlock: MIFKUJ_clean_linker_0, # of connection points: 2
#     Edge 14, Type (0, 1), BuildingBlock: MIFKUJ_clean_linker_0, # of connection points: 2
#     Edge 15, Type (0, 1), BuildingBlock: MIFKUJ_clean_linker_0, # of connection points: 2
#     Edge 16, Type (0, 1), BuildingBlock: MIFKUJ_clean_linker_0, # of connection points: 2
#     Edge 17, Type (0, 1), BuildingBlock: MIFKUJ_clean_linker_0, # of connection points: 2
# Relax obj value: 0.055
# Max RMSD: 0.169
# Mean RMSD: 0.116
data_MOF--net-pth--node1-NAHDIM_clean_sbu_0--node2-MUDLON_clean_linker_0--edge1-MIFKUJ_clean_linker_0
_symmetry_space_group_name_H-M    P1
_symmetry_Int_Tables_number       1
_symmetry_cell_setting            triclinic
loop_
_symmetry_equiv_pos_as_xyz
'x, y, z'
_cell_length_a     41.021027
_cell_length_b     41.21236
_cell_length_c     81.37673
_cell_angle_alpha  91.629845
_cell_angle_beta   89.98303
_cell_angle_gamma 120.44355
loop_
_atom_site_label
_atom_site_type_symbol
_atom_site_fract_x
_atom_site_fract_y
_atom_site_fract_z
_atom_type_partial_charge
C0 C 0.04137 0.95458 0.04203 0.0
O1 O 0.02601 0.9457 0.02722 0.0
O2 O 0.03242 0.05591 0.0515 0.0
Zn3 Zn 0.04042 0.02203 0.03582 0.0
O4 O 0.99346 0.99085 0.02173 0.0
C5 C 0.07887 0.07713 0.01248 0.0
O6 O 0.04637 0.07612 0.0132 0.0
O7 O 0.05119 0.98688 0.04837 0.0
C8 C 0.96698 0.99799 0.01984 0.0
O9 O 0.96948 0.02791 0.02726 0.0
C10 C 0.00653 0.04357 0.06215 0.0
O11 O 0.98433 0.00703 0.06341 0.0
O12 O 0.0839 0.05509 0.02133 0.0
C13 C 0.06407 0.12998 0.35716 0.0
O14 O 0.05389 0.12634 0.37261 0.0
O15 O 0.04625 0.01579 0.34674 0.0
Zn16 Zn 0.05853 0.05908 0.36274 0.0
O17 O 0.01348 0.04551 0.37722 0.0
C18 C 0.09909 0.03968 0.38419 0.0
O19 O 0.06645 0.00807 0.38288 0.0
O20 O 0.06948 0.10506 0.35025 0.0
C21 C 0.01644 0.05208 0.39267 0.0
O22 O 0.05001 0.06833 0.3998 0.0
C23 C 0.01872 0.98268 0.34886 0.0
O24 O 0.99644 0.97659 0.36143 0.0
O25 O 0.10352 0.06797 0.37645 0.0
C26 C 0.09621 0.021 0.6853 0.0
O27 O 0.09871 0.05408 0.68546 0.0
O28 O 0.00357 0.0149 0.68788 0.0
Zn29 Zn 0.03465 0.00766 0.705 0.0
O30 O 0.06611 0.05538 0.71864 0.0
C31 C 0.96651 0.96247 0.72197 0.0
O32 O 0.95831 0.98557 0.71472 0.0
O33 O 0.0699 0.99466 0.69327 0.0
C34 C 0.0522 0.07143 0.7273 0.0
O35 O 0.01536 0.05666 0.72759 0.0
C36 C 0.00708 0.04598 0.6837 0.0
O37 O 0.03419 0.07769 0.69036 0.0
O38 O 0.99871 0.96576 0.71962 0.0
H39 H 0.90127 0.61446 0.2176 0.0
N40 N 0.95247 0.613 0.19811 0.0
H41 H 0.91312 0.65512 0.24203 0.0
H42 H 0.02052 0.65455 0.21437 0.0
H43 H 0.03256 0.69418 0.23907 0.0
H44 H 0.97451 0.68751 0.19631 0.0
H45 H 7e-05 0.7273 0.1731 0.0
H46 H 0.96895 0.59451 0.16764 0.0
H47 H 0.99445 0.63511 0.14428 0.0
H48 H 0.89186 0.54473 0.19616 0.0
H49 H 0.01336 0.60265 0.20014 0.0
H50 H 0.88919 0.4842 0.19657 0.0
H51 H 0.0111 0.54245 0.20161 0.0
H52 H 0.90203 0.31162 0.22473 0.0
H53 H 0.92761 0.29633 0.24861 0.0
H54 H 0.03915 0.38845 0.23823 0.0
H55 H 0.01314 0.40442 0.21471 0.0
H56 H 0.00522 0.37511 0.18876 0.0
H57 H 0.00955 0.33719 0.16646 0.0
H58 H 0.88764 0.27407 0.16174 0.0
H59 H 0.88357 0.31189 0.18458 0.0
H60 H 0.89281 0.38403 0.21557 0.0
H61 H 0.8969 0.44512 0.21463 0.0
H62 H 0.99901 0.48759 0.18632 0.0
N63 N 0.94 0.36432 0.20313 0.0
H64 H 0.99561 0.42703 0.1881 0.0
C65 C 0.95981 0.63137 0.21418 0.0
C66 C 0.92982 0.63108 0.22252 0.0
C67 C 0.9367 0.65426 0.2365 0.0
C68 C 0.97388 0.67819 0.24241 0.0
C69 C 0.00368 0.67646 0.23469 0.0
C70 C 0.99676 0.6533 0.22069 0.0
C71 C 0.97159 0.63784 0.18454 0.0
C72 C 0.97999 0.67562 0.18537 0.0
C73 C 0.9946 0.6987 0.17194 0.0
C74 C 7e-05 0.6846 0.15697 0.0
C75 C 0.991 0.64687 0.15577 0.0
C76 C 0.97672 0.62371 0.16932 0.0
C77 C 0.95257 0.57807 0.19835 0.0
C78 C 0.91792 0.54427 0.19731 0.0
C79 C 0.91652 0.50975 0.19768 0.0
C80 C 0.94992 0.5083 0.19932 0.0
C81 C 0.98482 0.54238 0.20022 0.0
C82 C 0.98617 0.57695 0.19966 0.0
C83 C 0.95564 0.35871 0.21787 0.0
C84 C 0.93185 0.32885 0.2278 0.0
C85 C 0.94646 0.32027 0.24141 0.0
C86 C 0.98533 0.34119 0.24517 0.0
C87 C 0.00912 0.3718 0.23548 0.0
C88 C 0.99431 0.38082 0.22203 0.0
C89 C 0.94388 0.34624 0.18844 0.0
C90 C 0.97937 0.35361 0.18284 0.0
C91 C 0.98183 0.3319 0.16995 0.0
C92 C 0.94893 0.30239 0.16235 0.0
C93 C 0.91353 0.29621 0.16749 0.0
C94 C 0.91112 0.31795 0.18041 0.0
C95 C 0.94343 0.40068 0.20176 0.0
C96 C 0.916 0.4066 0.20915 0.0
C97 C 0.91831 0.44149 0.20849 0.0
C98 C 0.94809 0.47134 0.20024 0.0
C99 C 0.97585 0.46543 0.19291 0.0
C100 C 0.97373 0.43053 0.19377 0.0
H101 H 0.69055 0.02698 0.54325 0.0
N102 N 0.63088 0.95578 0.53713 0.0
H103 H 0.73441 0.04689 0.56657 0.0
H104 H 0.62027 0.91933 0.56483 0.0
H105 H 0.66285 0.93973 0.58881 0.0
H106 H 0.65814 0.91196 0.52823 0.0
H107 H 0.70349 0.92252 0.50648 0.0
H108 H 0.65533 0.01064 0.51429 0.0
H109 H 0.70035 0.02106 0.49229 0.0
H110 H 0.62235 0.01641 0.54504 0.0
H111 H 0.56566 0.90366 0.52385 0.0
H112 H 0.56382 0.01799 0.54306 0.0
H113 H 0.50767 0.90577 0.52075 0.0
H114 H 0.41273 0.01652 0.55051 0.0
H115 H 0.37783 0.02123 0.57397 0.0
H116 H 0.29166 0.90434 0.56563 0.0
H117 H 0.3257 0.90095 0.54162 0.0
H118 H 0.34711 0.9146 0.50329 0.0
H119 H 0.32117 0.93384 0.48095 0.0
H120 H 0.38004 0.04797 0.50098 0.0
H121 H 0.40619 0.02863 0.52301 0.0
H122 H 0.45813 0.01876 0.52532 0.0
H123 H 0.51854 0.02052 0.52611 0.0
H124 H 0.45971 0.90225 0.53721 0.0
N125 N 0.38795 0.95632 0.52901 0.0
H126 H 0.39957 0.9005 0.53534 0.0
C127 C 0.65259 0.97122 0.55217 0.0
C128 C 0.68405 0.00797 0.55324 0.0
C129 C 0.70898 0.01945 0.5667 0.0
C130 C 0.70262 0.99464 0.57946 0.0
C131 C 0.66921 0.95918 0.57899 0.0
C132 C 0.64463 0.94756 0.56541 0.0
C133 C 0.65326 0.96025 0.5228 0.0
C134 C 0.66677 0.93542 0.52023 0.0
C135 C 0.69275 0.94163 0.50792 0.0
C136 C 0.70547 0.97271 0.49782 0.0
C137 C 0.69074 0.99678 0.49988 0.0
C138 C 0.66503 0.99081 0.5124 0.0
C139 C 0.59802 0.95938 0.53494 0.0
C140 C 0.59739 0.99207 0.53983 0.0
C141 C 0.56388 0.99308 0.53853 0.0
C142 C 0.53066 0.96175 0.532 0.0
C143 C 0.53222 0.92998 0.52634 0.0
C144 C 0.56541 0.92878 0.52793 0.0
C145 C 0.37118 0.95854 0.54418 0.0
C146 C 0.38631 0.99203 0.55377 0.0
C147 C 0.36648 0.99448 0.5673 0.0
C148 C 0.33152 0.96331 0.57157 0.0
C149 C 0.31788 0.92922 0.56246 0.0
C150 C 0.33741 0.92703 0.54885 0.0
C151 C 0.3784 0.96998 0.5148 0.0
C152 C 0.35504 0.9439 0.50259 0.0
C153 C 0.34008 0.9549 0.48995 0.0
C154 C 0.34823 0.99235 0.48933 0.0
C155 C 0.37344 0.01899 0.50106 0.0
C156 C 0.38834 0.0079 0.51372 0.0
C157 C 0.42429 0.95917 0.52997 0.0
C158 C 0.45825 0.99318 0.52774 0.0
C159 C 0.49289 0.9942 0.52836 0.0
C160 C 0.49416 0.9614 0.53151 0.0
C161 C 0.45998 0.92782 0.53425 0.0
C162 C 0.42553 0.92676 0.53336 0.0
H163 H 0.61603 0.77114 0.87629 0.0
N164 N 0.59103 0.70002 0.86713 0.0
H165 H 0.65779 0.80651 0.89963 0.0
H166 H 0.61269 0.67039 0.89186 0.0
H167 H 0.65332 0.70507 0.91538 0.0
H168 H 0.6501 0.6868 0.86504 0.0
H169 H 0.69623 0.70697 0.84318 0.0
H170 H 0.58531 0.72385 0.83793 0.0
H171 H 0.63017 0.74212 0.81543 0.0
H172 H 0.52146 0.68805 0.86889 0.0
H173 H 0.58462 0.63054 0.86778 0.0
H174 H 0.46258 0.62792 0.87093 0.0
H175 H 0.52622 0.57034 0.87076 0.0
H176 H 0.29113 0.4319 0.89687 0.0
H177 H 0.27552 0.38731 0.91885 0.0
H178 H 0.37671 0.38297 0.90883 0.0
H179 H 0.39224 0.42792 0.8869 0.0
H180 H 0.35934 0.40189 0.86098 0.0
H181 H 0.32456 0.36194 0.83733 0.0
H182 H 0.26288 0.42089 0.83331 0.0
H183 H 0.29749 0.46044 0.8575 0.0
H184 H 0.36746 0.52109 0.89081 0.0
H185 H 0.4277 0.5801 0.88936 0.0
H186 H 0.47 0.52511 0.85702 0.0
N187 N 0.34785 0.45549 0.87617 0.0
H188 H 0.41062 0.466 0.85936 0.0
C189 C 0.61109 0.71821 0.88228 0.0
C190 C 0.62358 0.7565 0.88497 0.0
C191 C 0.64732 0.77658 0.89834 0.0
C192 C 0.65906 0.75863 0.90933 0.0
C193 C 0.64524 0.71984 0.90701 0.0
C194 C 0.6216 0.69982 0.89359 0.0
C195 C 0.61471 0.70479 0.85326 0.0
C196 C 0.64531 0.6985 0.8542 0.0
C197 C 0.67158 0.70976 0.84156 0.0
C198 C 0.6674 0.72691 0.82764 0.0
C199 C 0.63491 0.73004 0.82617 0.0
C200 C 0.60903 0.71932 0.83892 0.0
C201 C 0.55726 0.66381 0.86833 0.0
C202 C 0.52251 0.66235 0.86926 0.0
C203 C 0.48898 0.62796 0.87057 0.0
C204 C 0.48955 0.59415 0.8712 0.0
C205 C 0.52458 0.59568 0.87015 0.0
C206 C 0.55812 0.63017 0.86861 0.0
C207 C 0.34255 0.43302 0.89024 0.0
C208 C 0.31027 0.42187 0.89967 0.0
C209 C 0.30154 0.39656 0.91223 0.0
C210 C 0.32494 0.38168 0.91555 0.0
C211 C 0.35808 0.39384 0.90646 0.0
C212 C 0.36699 0.41954 0.89396 0.0
C213 C 0.33085 0.43418 0.8611 0.0
C214 C 0.33871 0.40664 0.85498 0.0
C215 C 0.3189 0.38389 0.84131 0.0
C216 C 0.29087 0.38817 0.83342 0.0
C217 C 0.28398 0.41659 0.83923 0.0
C218 C 0.30384 0.43935 0.85294 0.0
C219 C 0.38417 0.48932 0.87504 0.0
C220 C 0.38989 0.52188 0.88348 0.0
C221 C 0.42424 0.55561 0.88251 0.0
C222 C 0.45367 0.55763 0.87287 0.0
C223 C 0.44816 0.52464 0.86466 0.0
C224 C 0.41388 0.49073 0.86584 0.0
H225 H 0.04735 0.12045 0.06231 0.0
H226 H 0.03601 0.16454 0.07842 0.0
H227 H 0.94027 0.07162 0.10095 0.0
H228 H 0.95116 0.02714 0.08473 0.0
H229 H 0.92421 0.12486 0.09134 0.0
H230 H 0.02254 0.12203 0.12207 0.0
H231 H 0.08422 0.1264 0.12615 0.0
H232 H 0.14128 0.24098 0.11095 0.0
H233 H 0.07987 0.23712 0.10656 0.0
H234 H 0.90445 0.22572 0.15943 0.0
H235 H 0.91243 0.18281 0.14086 0.0
H236 H 0.00822 0.27723 0.11913 0.0
H237 H 0.00011 0.32052 0.13754 0.0
H238 H 0.02424 0.22393 0.12773 0.0
H239 H 0.92589 0.22745 0.09778 0.0
H240 H 0.86421 0.22305 0.0937 0.0
H241 H 0.80709 0.10742 0.10745 0.0
H242 H 0.86848 0.11127 0.11184 0.0
C243 C 0.02394 0.10932 0.07073 0.0
C244 C 0.00024 0.07024 0.07229 0.0
C245 C 0.01755 0.13459 0.07995 0.0
C246 C 0.9875 0.12136 0.09099 0.0
C247 C 0.96364 0.0824 0.09251 0.0
C248 C 0.97002 0.05705 0.08329 0.0
C249 C 0.98097 0.14826 0.10089 0.0
C250 C 0.94587 0.14622 0.09947 0.0
C251 C 0.00962 0.17672 0.11115 0.0
C252 C 0.04659 0.17916 0.11383 0.0
C253 C 0.04823 0.14806 0.11947 0.0
C254 C 0.08314 0.15046 0.12186 0.0
C255 C 0.11664 0.18391 0.11877 0.0
C256 C 0.1153 0.21507 0.11332 0.0
C257 C 0.08045 0.2128 0.11089 0.0
C258 C 0.92668 0.23749 0.15045 0.0
C259 C 0.95165 0.27661 0.14998 0.0
C260 C 0.93128 0.21286 0.13987 0.0
C261 C 0.96083 0.22683 0.12856 0.0
C262 C 0.9853 0.26587 0.1278 0.0
C263 C 0.98068 0.29054 0.13836 0.0
C264 C 0.96744 0.20056 0.11821 0.0
C265 C 0.00257 0.20267 0.11956 0.0
C266 C 0.93881 0.17219 0.10791 0.0
C267 C 0.90182 0.16977 0.1053 0.0
C268 C 0.9002 0.20118 0.10008 0.0
C269 C 0.86528 0.19876 0.09768 0.0
C270 C 0.83176 0.16501 0.10036 0.0
C271 C 0.83309 0.13357 0.1054 0.0
C272 C 0.86794 0.13584 0.10783 0.0
H273 H 0.80475 0.16319 0.09849 0.0
H274 H 0.14365 0.18572 0.12063 0.0
H275 H 0.94622 0.03432 0.38151 0.0
H276 H 0.89065 0.01967 0.39799 0.0
H277 H 0.95443 0.033 0.44232 0.0
H278 H 0.01018 0.04807 0.426 0.0
H279 H 0.8812 0.96655 0.44033 0.0
H280 H 0.94127 0.10113 0.43299 0.0
H281 H 0.96736 0.15785 0.41638 0.0
H282 H 0.85948 0.11505 0.39228 0.0
H283 H 0.83289 0.05779 0.4086 0.0
H284 H 0.7729 0.97786 0.50392 0.0
H285 H 0.82294 0.99026 0.4845 0.0
H286 H 0.75633 0.998 0.4454 0.0
H287 H 0.70655 0.98691 0.46509 0.0
H288 H 0.82683 0.05017 0.44225 0.0
H289 H 0.76446 0.91816 0.4498 0.0
H290 H 0.73651 0.85952 0.46515 0.0
H291 H 0.84499 0.89347 0.48686 0.0
H292 H 0.87353 0.95259 0.47182 0.0
C293 C 0.94838 0.03405 0.39477 0.0
C294 C 0.98258 0.04242 0.40248 0.0
C295 C 0.91667 0.02579 0.40414 0.0
C296 C 0.91859 0.02543 0.42134 0.0
C297 C 0.95247 0.03316 0.42904 0.0
C298 C 0.98429 0.04189 0.41971 0.0
C299 C 0.88536 0.01712 0.4314 0.0
C300 C 0.86945 0.98494 0.4409 0.0
C301 C 0.86931 0.04045 0.43159 0.0
C302 C 0.88521 0.075 0.42188 0.0
C303 C 0.9232 0.10367 0.42405 0.0
C304 C 0.93806 0.13594 0.41471 0.0
C305 C 0.91512 0.14 0.40324 0.0
C306 C 0.87723 0.11184 0.40114 0.0
C307 C 0.86225 0.07948 0.41044 0.0
C308 C 0.76892 0.9821 0.49116 0.0
C309 C 0.73576 0.981 0.48592 0.0
C310 C 0.79744 0.98904 0.48006 0.0
C311 C 0.79303 0.99411 0.46338 0.0
C312 C 0.76025 0.99391 0.45818 0.0
C313 C 0.73187 0.98756 0.46939 0.0
C314 C 0.82291 -0.00016 0.45153 0.0
C315 C 0.83821 0.03147 0.44163 0.0
C316 C 0.83805 0.97562 0.45076 0.0
C317 C 0.82107 0.93996 0.45976 0.0
C318 C 0.78232 0.91324 0.45793 0.0
C319 C 0.76637 0.8799 0.46657 0.0
C320 C 0.78894 0.87281 0.477 0.0
C321 C 0.82754 0.89901 0.47878 0.0
C322 C 0.84362 0.93243 0.47018 0.0
H323 H 0.77654 0.84698 0.48368 0.0
H324 H 0.92668 0.16501 0.39602 0.0
H325 H 0.96624 0.90102 0.73452 0.0
H326 H 0.91935 0.85466 0.75302 0.0
H327 H 0.8581 0.91424 0.75301 0.0
H328 H 0.90408 0.96002 0.73454 0.0
H329 H 0.87311 0.89682 0.78478 0.0
H330 H 0.82576 0.83794 0.73035 0.0
H331 H 0.83093 0.81105 0.70369 0.0
H332 H 0.84809 0.73028 0.72859 0.0
H333 H 0.84353 0.75707 0.75542 0.0
H334 H 0.69165 0.79349 0.81257 0.0
H335 H 0.74579 0.82656 0.79496 0.0
H336 H 0.77033 0.73688 0.79868 0.0
H337 H 0.7145 0.70224 0.81579 0.0
H338 H 0.7826 0.76407 0.76767 0.0
H339 H 0.82074 0.81545 0.82178 0.0
H340 H 0.81613 0.84124 0.84882 0.0
H341 H 0.81963 0.93527 0.82568 0.0
H342 H 0.82366 0.90976 0.79846 0.0
C343 C 0.94274 0.90414 0.73848 0.0
C344 C 0.93882 0.93414 0.73307 0.0
C345 C 0.916 0.87764 0.74898 0.0
C346 C 0.88536 0.88114 0.75434 0.0
C347 C 0.88162 0.91115 0.74903 0.0
C348 C 0.90789 0.93721 0.73842 0.0
C349 C 0.85695 0.85408 0.76564 0.0
C350 C 0.85329 0.86779 0.78106 0.0
C351 C 0.83214 0.81587 0.76099 0.0
C352 C 0.83483 0.79982 0.74488 0.0
C353 C 0.83102 0.8147 0.73014 0.0
C354 C 0.83375 0.79942 0.715 0.0
C355 C 0.83998 0.76906 0.71444 0.0
C356 C 0.84337 0.75385 0.72904 0.0
C357 C 0.8407 0.76906 0.74421 0.0
C358 C 0.70779 0.78012 0.80936 0.0
C359 C 0.69858 0.74509 0.81566 0.0
C360 C 0.73917 0.79941 0.79945 0.0
C361 C 0.76259 0.78459 0.79582 0.0
C362 C 0.75281 0.74897 0.80147 0.0
C363 C 0.72107 0.72938 0.81135 0.0
C364 C 0.79777 0.80732 0.78655 0.0
C365 C 0.80286 0.79283 0.77157 0.0
C366 C 0.82432 0.8448 0.79168 0.0
C367 C 0.82232 0.86056 0.80805 0.0
C368 C 0.82031 0.84152 0.82244 0.0
C369 C 0.81782 0.8561 0.8378 0.0
C370 C 0.81755 0.88985 0.83896 0.0
C371 C 0.81985 0.90913 0.82476 0.0
C372 C 0.8223 0.89465 0.80936 0.0
H373 H 0.8156 0.90109 0.85087 0.0
H374 H 0.84207 0.75726 0.70271 0.0
H375 H 0.00819 0.87924 0.035 0.0
H376 H 0.0073 0.8312 0.05223 0.0
H377 H 0.07924 0.91701 0.08812 0.0
H378 H 0.07997 0.96542 0.07104 0.0
H379 H 0.09788 0.85834 0.08156 0.0
H380 H 0.99262 0.87436 0.09579 0.0
H381 H 0.93559 0.87799 0.08998 0.0
H382 H 0.87951 0.76481 0.06979 0.0
H383 H 0.93651 0.76074 0.07526 0.0
H384 H 0.05703 0.75783 0.15551 0.0
H385 H 0.07011 0.80057 0.133 0.0
H386 H 0.98372 0.70902 0.10318 0.0
H387 H 0.96996 0.66627 0.12583 0.0
H388 H 0.97328 0.76796 0.10465 0.0
H389 H 0.07635 0.74929 0.09302 0.0
H390 H 0.13332 0.74559 0.09886 0.0
H391 H 0.19357 0.86247 0.11404 0.0
H392 H 0.13677 0.86676 0.10852 0.0
C393 C 0.02423 0.88802 0.04646 0.0
C394 C 0.04393 0.92612 0.05173 0.0
C395 C 0.02366 0.86051 0.05628 0.0
C396 C 0.04305 0.87062 0.07145 0.0
C397 C 0.06418 0.90874 0.07642 0.0
C398 C 0.06439 0.93629 0.06669 0.0
C399 C 0.0389 0.84114 0.08264 0.0
C400 C 0.07077 0.83871 0.08675 0.0
C401 C 0.00329 0.81507 0.08902 0.0
C402 C 0.96899 0.81743 0.08574 0.0
C403 C 0.96827 0.85039 0.08996 0.0
C404 C 0.93593 0.8525 0.08676 0.0
C405 C 0.90399 0.82169 0.07947 0.0
C406 C 0.90431 0.78868 0.0754 0.0
C407 C 0.93662 0.78645 0.07855 0.0
C408 C 0.04122 0.74672 0.14407 0.0
C409 C 0.01232 0.70878 0.14246 0.0
C410 C 0.04892 0.77109 0.13116 0.0
C411 C 0.02797 0.75796 0.11639 0.0
C412 C 0.00027 0.7197 0.11448 0.0
C413 C 0.99262 0.69526 0.12737 0.0
C414 C 0.03232 0.78495 0.10369 0.0
C415 C 0.0004 0.78713 0.09934 0.0
C416 C 0.06791 0.81068 0.09711 0.0
C417 C 0.10216 0.80825 0.10049 0.0
C418 C 0.10163 0.77413 0.09774 0.0
C419 C 0.13392 0.77194 0.10097 0.0
C420 C 0.16701 0.80375 0.10685 0.0
C421 C 0.1679 0.83784 0.1095 0.0
C422 C 0.13567 0.84018 0.1063 0.0
H423 H 0.19199 0.80201 0.10934 0.0
H424 H 0.87896 0.82337 0.07701 0.0
H425 H 0.09346 0.98769 0.40557 0.0
H426 H 0.14278 0.9907 0.42329 0.0
H427 H 0.2228 0.0996 0.40493 0.0
H428 H 0.17319 0.09689 0.387 0.0
H429 H 0.25089 0.04951 0.40638 0.0
H430 H 0.19325 0.0987 0.44175 0.0
H431 H 0.14078 0.10173 0.45501 0.0
H432 H 0.10494 0.99603 0.47745 0.0
H433 H 0.15684 0.99203 0.46412 0.0
H434 H 0.37652 0.05568 0.47088 0.0
H435 H 0.34079 0.07367 0.45276 0.0
H436 H 0.23809 0.97053 0.46327 0.0
H437 H 0.27323 0.95277 0.48148 0.0
H438 H 0.22993 0.03245 0.46634 0.0
H439 H 0.28191 0.97968 0.42744 0.0
H440 H 0.33364 0.97603 0.41374 0.0
H441 H 0.38042 0.08951 0.39801 0.0
H442 H 0.32919 0.09399 0.41182 0.0
C443 C 0.12149 0.01236 0.40526 0.0
C444 C 0.1294 0.04211 0.3949 0.0
C445 C 0.14962 0.01408 0.41546 0.0
C446 C 0.18629 0.04554 0.41553 0.0
C447 C 0.19458 0.07516 0.40507 0.0
C448 C 0.16623 0.0736 0.3949 0.0
C449 C 0.21558 0.04664 0.42654 0.0
C450 C 0.24688 0.04669 0.41955 0.0
C451 C 0.21005 0.04264 0.44368 0.0
C452 C 0.17886 0.04497 0.45184 0.0
C453 C 0.17403 0.07595 0.44942 0.0
C454 C 0.1444 0.07787 0.45696 0.0
C455 C 0.11951 0.04907 0.46704 0.0
C456 C 0.12424 0.01832 0.46963 0.0
C457 C 0.1538 0.01624 0.4621 0.0
C458 C 0.34633 0.03688 0.46927 0.0
C459 C 0.32772 0.00269 0.47751 0.0
C460 C 0.32603 0.0471 0.45889 0.0
C461 C 0.28682 0.02338 0.45667 0.0
C462 C 0.26832 0.98924 0.46483 0.0
C463 C 0.28853 0.97895 0.47509 0.0
C464 C 0.26444 0.03387 0.44611 0.0
C465 C 0.23444 0.03609 0.45323 0.0
C466 C 0.27127 0.04004 0.42912 0.0
C467 C 0.30203 0.03734 0.42084 0.0
C468 C 0.30344 0.00398 0.4212 0.0
C469 C 0.33262 0.00173 0.41338 0.0
C470 C 0.36038 0.03257 0.40506 0.0
C471 C 0.35895 0.06568 0.40449 0.0
C472 C 0.32985 0.06809 0.41231 0.0
H473 H 0.38294 0.03076 0.39901 0.0
H474 H 0.09658 0.0506 0.47287 0.0
H475 H 0.03197 0.11287 0.7471 0.0
H476 H 0.07373 0.17039 0.76317 0.0
H477 H 0.17097 0.16735 0.74497 0.0
H478 H 0.12944 0.10958 0.72903 0.0
H479 H 0.17596 0.18002 0.77756 0.0
H480 H 0.14837 0.23048 0.73077 0.0
H481 H 0.10752 0.23673 0.71042 0.0
H482 H 0.05688 0.26874 0.74898 0.0
H483 H 0.09708 0.26216 0.7696 0.0
H484 H 0.31403 0.35989 0.80805 0.0
H485 H 0.27415 0.30967 0.78809 0.0
H486 H 0.17493 0.30566 0.80819 0.0
H487 H 0.21448 0.35539 0.82839 0.0
H488 H 0.17208 0.29804 0.77388 0.0
H489 H 0.19715 0.24452 0.8206 0.0
H490 H 0.2377 0.23821 0.84108 0.0
H491 H 0.29265 0.2116 0.80251 0.0
H492 H 0.25276 0.21832 0.78176 0.0
C493 C 0.06224 0.12449 0.74647 0.0
C494 C 0.07738 0.10662 0.7368 0.0
C495 C 0.08608 0.15749 0.75559 0.0
C496 C 0.12547 0.17335 0.75513 0.0
C497 C 0.14065 0.1556 0.74548 0.0
C498 C 0.11686 0.1226 0.73637 0.0
C499 C 0.15083 0.20773 0.76516 0.0
C500 C 0.17554 0.206 0.77655 0.0
C501 C 0.1496 0.24133 0.76412 0.0
C502 C 0.1255 0.24548 0.75174 0.0
C503 C 0.12832 0.23856 0.73492 0.0
C504 C 0.10531 0.24222 0.72334 0.0
C505 C 0.07955 0.25304 0.72841 0.0
C506 C 0.07682 0.26032 0.74507 0.0
C507 C 0.09973 0.25667 0.75671 0.0
C508 C 0.28374 0.34845 0.80819 0.0
C509 C 0.2674 0.36137 0.81993 0.0
C510 C 0.26104 0.31989 0.79673 0.0
C511 C 0.2216 0.30369 0.79683 0.0
C512 C 0.20534 0.31786 0.80792 0.0
C513 C 0.22802 0.34637 0.81942 0.0
C514 C 0.19719 0.27024 0.78616 0.0
C515 C 0.17261 0.27209 0.77475 0.0
C516 C 0.19845 0.23667 0.78717 0.0
C517 C 0.22226 0.23232 0.79962 0.0
C518 C 0.21809 0.23762 0.81648 0.0
C519 C 0.24092 0.23392 0.82814 0.0
C520 C 0.26781 0.22461 0.8231 0.0
C521 C 0.27185 0.21887 0.80639 0.0
C522 C 0.24912 0.2226 0.79468 0.0
H523 H 0.28546 0.22176 0.83214 0.0
H524 H 0.06177 0.25585 0.71942 0.0
H525 H 0.00029 0.10592 0.67456 0.0
H526 H 0.95138 0.10428 0.65665 0.0
H527 H 0.90152 0.98419 0.6493 0.0
H528 H 0.95016 0.98556 0.66696 0.0
H529 H 0.9063 0.01851 0.62073 0.0
H530 H 0.86465 0.0207 0.67641 0.0
H531 H 0.8716 0.04787 0.70448 0.0
H532 H 0.88311 0.14873 0.68484 0.0
H533 H 0.87672 0.1223 0.65663 0.0
H534 H 0.72314 0.94702 0.59237 0.0
H535 H 0.77655 0.96277 0.61046 0.0
H536 H 0.80587 0.07918 0.61242 0.0
H537 H 0.7509 0.06331 0.59485 0.0
H538 H 0.81704 0.05675 0.64223 0.0
H539 H 0.85209 0.05229 0.58671 0.0
H540 H 0.84473 0.02524 0.5586 0.0
H541 H 0.84688 0.93016 0.57756 0.0
H542 H 0.85366 0.95635 0.60582 0.0
C543 C 0.97905 0.07922 0.66904 0.0
C544 C 0.97906 0.04585 0.67222 0.0
C545 C 0.95105 0.07833 0.65888 0.0
C546 C 0.92266 0.04406 0.65178 0.0
C547 C 0.92318 0.01093 0.65466 0.0
C548 C 0.95099 0.01178 0.6648 0.0
C549 C 0.89191 0.04211 0.64148 0.0
C550 C 0.88668 0.02669 0.62545 0.0
C551 C 0.86708 0.05397 0.64748 0.0
C552 C 0.87065 0.06971 0.66442 0.0
C553 C 0.86896 0.04878 0.67808 0.0
C554 C 0.87274 0.06403 0.69401 0.0
C555 C 0.87791 0.10005 0.69644 0.0
C556 C 0.87918 0.12086 0.68294 0.0
C557 C 0.87546 0.10576 0.66698 0.0
C558 C 0.74014 0.97583 0.59697 0.0
C559 C 0.73266 0.00391 0.59206 0.0
C560 C 0.77108 0.98488 0.60716 0.0
C561 C 0.79568 0.02228 0.61246 0.0
C562 C 0.78741 0.05018 0.60831 0.0
C563 C 0.75616 0.04109 0.59817 0.0
C564 C 0.8308 0.03202 0.62168 0.0
C565 C 0.83696 0.04904 0.63743 0.0
C566 C 0.85669 0.02181 0.61541 0.0
C567 C 0.85316 0.0062 0.5984 0.0
C568 C 0.85078 0.02551 0.5849 0.0
C569 C 0.84672 0.01034 0.56894 0.0
C570 C 0.84528 0.97598 0.5663 0.0
C571 C 0.84799 0.95677 0.57962 0.0
C572 C 0.85199 0.97179 0.59561 0.0
H573 H 0.84212 0.96427 0.55393 0.0
H574 H 0.88084 0.11181 0.70878 0.0
H575 H 0.95345 0.93422 0.00274 0.0
H576 H 0.8992 0.89325 0.98494 0.0
H577 H 0.85128 0.96368 0.99501 0.0
H578 H 0.90536 0.00473 0.01303 0.0
H579 H 0.79815 0.88897 0.99607 0.0
H580 H 0.89451 0.97029 0.95921 0.0
H581 H 0.95795 0.00186 0.94708 0.0
H582 H 0.94429 0.89451 0.93277 0.0
H583 H 0.88096 0.86226 0.94504 0.0
H584 H 0.66415 0.81601 0.92924 0.0
H585 H 0.71468 0.85591 0.94901 0.0
H586 H 0.76884 0.79115 0.93895 0.0
H587 H 0.71935 0.75215 0.91876 0.0
H588 H 0.81834 0.86446 0.93799 0.0
H589 H 0.72208 0.78298 0.975 0.0
H590 H 0.6587 0.75137 0.98719 0.0
H591 H 0.6719 0.85872 0.00112 0.0
H592 H 0.73519 0.891 0.98881 0.0
C593 C 0.9314 0.94105 0.0012 0.0
C594 C 0.93384 0.9729 0.00923 0.0
C595 C 0.90045 0.91763 0.99098 0.0
C596 C 0.87146 0.92569 0.98851 0.0
C597 C 0.87342 0.95703 0.99674 0.0
C598 C 0.9044 0.98051 0.00698 0.0
C599 C 0.83932 0.90155 0.97718 0.0
C600 C 0.80246 0.88398 0.9833 0.0
C601 C 0.8451 0.89453 0.96063 0.0
C602 C 0.88313 0.91385 0.95319 0.0
C603 C 0.90516 0.9534 0.9536 0.0
C604 C 0.94107 0.97142 0.94667 0.0
C605 C 0.95518 0.9502 0.93919 0.0
C606 C 0.93335 0.91091 0.93859 0.0
C607 C 0.89743 0.89275 0.94551 0.0
C608 C 0.68681 0.81026 0.93125 0.0
C609 C 0.68768 0.78086 0.92242 0.0
C610 C 0.71548 0.83286 0.94266 0.0
C611 C 0.7454 0.82633 0.94554 0.0
C612 C 0.74599 0.79664 0.93695 0.0
C613 C 0.71743 0.77412 0.92553 0.0
C614 C 0.77709 0.85146 0.95689 0.0
C615 C 0.81394 0.86938 0.95075 0.0
C616 C 0.77125 0.85876 0.97341 0.0
C617 C 0.73322 0.83941 0.98084 0.0
C618 C 0.71134 0.79985 0.98054 0.0
C619 C 0.67546 0.78182 0.9875 0.0
C620 C 0.66124 0.80303 0.99489 0.0
C621 C 0.68293 0.84233 0.99537 0.0
C622 C 0.71882 0.86051 0.98842 0.0
H623 H 0.63345 0.78901 0.00027 0.0
H624 H 0.98299 0.96421 0.93384 0.0
H625 H 0.06115 0.98494 0.32249 0.0
H626 H 0.05376 0.93197 0.30531 0.0
H627 H 0.95709 0.85557 0.33338 0.0
H628 H 0.96454 0.90833 0.35078 0.0
H629 H 0.00412 0.82849 0.32825 0.0
H630 H 0.9452 0.87982 0.29542 0.0
H631 H 0.94066 0.92947 0.28121 0.0
H632 H 0.03504 0.94992 0.25127 0.0
H633 H 0.04047 0.90072 0.26546 0.0
H634 H 0.93426 0.6718 0.27056 0.0
H635 H 0.94308 0.72268 0.28969 0.0
H636 H 0.04 0.80193 0.26253 0.0
H637 H 0.03071 0.75166 0.24312 0.0
H638 H 0.99172 0.82672 0.26755 0.0
H639 H 0.0503 0.77482 0.30042 0.0
H640 H 0.05433 0.7249 0.31464 0.0
H641 H 0.95987 0.70491 0.34442 0.0
H642 H 0.95494 0.75438 0.33021 0.0
C643 C 0.03819 0.95691 0.32497 0.0
C644 C 0.01335 0.95089 0.33798 0.0
C645 C 0.03396 0.92666 0.31512 0.0
C646 C 0.00468 0.88985 0.31798 0.0
C647 C 0.97988 0.88374 0.33096 0.0
C648 C 0.98409 0.91397 0.34084 0.0
C649 C 0.00015 0.85773 0.30751 0.0
C650 C 0.00088 0.82781 0.31499 0.0
C651 C 0.99669 0.85725 0.29019 0.0
C652 C 0.99347 0.88683 0.28162 0.0
C653 C 0.96518 0.89512 0.2859 0.0
C654 C 0.96241 0.92314 0.27783 0.0
C655 C 0.98761 0.94291 0.26537 0.0
C656 C 0.01557 0.93462 0.26093 0.0
C657 C 0.01849 0.90665 0.26898 0.0
C658 C 0.95761 0.70003 0.26874 0.0
C659 C 0.98178 0.70764 0.25531 0.0
C660 C 0.96278 0.72901 0.27975 0.0
C661 C 0.99229 0.76608 0.27756 0.0
C662 C 0.01707 0.77353 0.26445 0.0
C663 C 0.01194 0.74463 0.25347 0.0
C664 C 0.99602 0.79758 0.28825 0.0
C665 C 0.99499 0.82736 0.2808 0.0
C666 C 0.99912 0.79784 0.30558 0.0
C667 C 0.002 0.76804 0.31413 0.0
C668 C 0.03017 0.75955 0.3099 0.0
C669 C 0.03266 0.73138 0.31798 0.0
C670 C 0.0073 0.71167 0.33039 0.0
C671 C 0.97946 0.72016 0.33478 0.0
C672 C 0.97682 0.74828 0.32673 0.0
H673 H 0.00929 0.68988 0.33664 0.0
H674 H 0.98541 0.96459 0.25914 0.0
H675 H 0.15303 0.07094 0.66607 0.0
H676 H 0.19428 0.0593 0.64836 0.0
H677 H 0.14068 0.94471 0.66412 0.0
H678 H 0.09925 0.95616 0.68203 0.0
H679 H 0.21828 0.97708 0.66176 0.0
H680 H 0.11423 0.9608 0.62862 0.0
H681 H 0.07002 0.97858 0.61718 0.0
H682 H 0.16264 0.07525 0.59563 0.0
H683 H 0.2075 0.05833 0.60716 0.0
H684 H 0.25467 0.93161 0.57172 0.0
H685 H 0.21603 0.93817 0.59269 0.0
H686 H 0.31624 0.01182 0.62164 0.0
H687 H 0.35517 0.00355 0.60108 0.0
H688 H 0.21339 0.9968 0.60215 0.0
H689 H 0.29362 0.00714 0.66235 0.0
H690 H 0.33351 0.9837 0.6735 0.0
H691 H 0.28067 0.88771 0.64009 0.0
H692 H 0.24014 0.91032 0.6289 0.0
C693 C 0.15011 0.0433 0.66589 0.0
C694 C 0.12261 0.01436 0.67535 0.0
C695 C 0.17372 0.03671 0.65574 0.0
C696 C 0.17024 0.00105 0.65481 0.0
C697 C 0.14377 0.97243 0.66467 0.0
C698 C 0.12003 0.97898 0.67483 0.0
C699 C 0.19297 0.99326 0.64291 0.0
C700 C 0.2173 0.98138 0.64872 0.0
C701 C 0.19113 0.99828 0.62589 0.0
C702 C 0.16425 0.0085 0.61889 0.0
C703 C 0.1252 0.98602 0.62156 0.0
C704 C 0.10002 0.99591 0.61503 0.0
C705 C 0.11352 0.02808 0.60572 0.0
C706 C 0.15223 0.05037 0.60287 0.0
C707 C 0.17754 0.04063 0.60938 0.0
C708 C 0.26858 0.94848 0.58272 0.0
C709 C 0.30813 0.96678 0.58473 0.0
C710 C 0.24639 0.95257 0.59463 0.0
C711 C 0.26312 0.9753 0.60881 0.0
C712 C 0.30259 0.99367 0.61092 0.0
C713 C 0.32487 0.98927 0.59905 0.0
C714 C 0.23915 0.98083 0.62093 0.0
C715 C 0.21456 0.99247 0.61517 0.0
C716 C 0.24023 0.97478 0.63792 0.0
C717 C 0.26413 0.96066 0.64468 0.0
C718 C 0.29043 0.98097 0.65743 0.0
C719 C 0.31316 0.96783 0.66375 0.0
C720 C 0.30971 0.9343 0.65747 0.0
C721 C 0.28342 0.91376 0.6449 0.0
C722 C 0.26059 0.92675 0.63855 0.0
H723 H 0.32736 0.9242 0.66237 0.0
H724 H 0.09398 0.03569 0.60067 0.0
H725 H 0.15199 0.09201 0.01005 0.0
H726 H 0.20265 0.14033 0.99365 0.0
H727 H 0.12515 0.173 0.97527 0.0
H728 H 0.07461 0.12487 0.99136 0.0
H729 H 0.16797 0.16994 0.95105 0.0
H730 H 0.18662 0.22198 0.00693 0.0
H731 H 0.19796 0.22281 0.03675 0.0
H732 H 0.30172 0.22425 0.02743 0.0
H733 H 0.29072 0.22296 0.99753 0.0
H734 H 0.29687 0.37889 0.94625 0.0
H735 H 0.26532 0.32392 0.96347 0.0
H736 H 0.29348 0.26072 0.92902 0.0
H737 H 0.32453 0.31545 0.91158 0.0
H738 H 0.28167 0.27472 0.97908 0.0
H739 H 0.21211 0.17456 0.92333 0.0
H740 H 0.19811 0.17674 0.89401 0.0
H741 H 0.19124 0.27594 0.90408 0.0
H742 H 0.20464 0.27399 0.93347 0.0
C743 C 0.14573 0.10934 0.00241 0.0
C744 C 0.10933 0.10474 0.00207 0.0
C745 C 0.17471 0.13696 0.9931 0.0
C746 C 0.1677 0.16039 0.98333 0.0
C747 C 0.13117 0.15516 0.98268 0.0
C748 C 0.10232 0.12771 0.99196 0.0
C749 C 0.1983 0.19135 0.97412 0.0
C750 C 0.19309 0.19256 0.95715 0.0
C751 C 0.23098 0.22099 0.98207 0.0
C752 C 0.23763 0.22192 2e-05 0.0
C753 C 0.2117 0.22218 0.01125 0.0
C754 C 0.21809 0.22279 0.02816 0.0
C755 C 0.25048 0.22346 0.03398 0.0
C756 C 0.27661 0.22364 0.0229 0.0
C757 C 0.27032 0.22299 0.00598 0.0
C758 C 0.2969 0.35347 0.9425 0.0
C759 C 0.3127 0.35127 0.92748 0.0
C760 C 0.27917 0.32221 0.95241 0.0
C761 C 0.27671 0.28817 0.94741 0.0
C762 C 0.29491 0.28671 0.93303 0.0
C763 C 0.31277 0.31804 0.92313 0.0
C764 C 0.25101 0.25339 0.95611 0.0
C765 C 0.2571 0.25153 0.97293 0.0
C766 C 0.21874 0.22337 0.9481 0.0
C767 C 0.20986 0.22437 0.93053 0.0
C768 C 0.20749 0.19674 0.91928 0.0
C769 C 0.19965 0.19794 0.90265 0.0
C770 C 0.19394 0.22654 0.89717 0.0
C771 C 0.19582 0.25388 0.90832 0.0
C772 C 0.20354 0.25275 0.92496 0.0
H773 H 0.18796 0.22746 0.8843 0.0
H774 H 0.25539 0.22393 0.04708 0.0
H775 H 0.09308 0.15245 0.32651 0.0
H776 H 0.08717 0.19729 0.30941 0.0
H777 H 0.02893 0.21891 0.34845 0.0
H778 H 0.03519 0.17473 0.36571 0.0
H779 H 0.99 0.19592 0.31717 0.0
H780 H 0.11167 0.28577 0.34071 0.0
H781 H 0.17866 0.31016 0.34796 0.0
H782 H 0.20463 0.30966 0.29686 0.0
H783 H 0.13764 0.28472 0.28932 0.0
H784 H 0.96214 0.32778 0.2769 0.0
H785 H 0.98282 0.30047 0.29794 0.0
H786 H 0.06295 0.29842 0.26414 0.0
H787 H 0.04332 0.32715 0.24334 0.0
H788 H 0.09236 0.31345 0.29378 0.0
H789 H 0.97391 0.22014 0.26963 0.0
H790 H 0.90726 0.19243 0.26084 0.0
H791 H 0.87533 0.1943 0.31096 0.0
H792 H 0.94193 0.22256 0.32003 0.0
C793 C 0.07955 0.1672 0.33154 0.0
C794 C 0.06445 0.15993 0.34743 0.0
C795 C 0.07631 0.19287 0.32178 0.0
C796 C 0.05763 0.21133 0.32771 0.0
C797 C 0.04349 0.20493 0.3437 0.0
C798 C 0.04719 0.17974 0.35354 0.0
C799 C 0.04998 0.23482 0.31676 0.0
C800 C 0.0123 0.22199 0.31227 0.0
C801 C 0.07926 0.268 0.30995 0.0
C802 C 0.11955 0.28301 0.31446 0.0
C803 C 0.13158 0.29051 0.33103 0.0
C804 C 0.16958 0.30452 0.33519 0.0
C805 C 0.19587 0.31136 0.32288 0.0
C806 C 0.18422 0.3043 0.30639 0.0
C807 C 0.14625 0.29026 0.30216 0.0
C808 C 0.98457 0.322 0.27411 0.0
C809 C 0.001 0.32926 0.25852 0.0
C810 C 0.99627 0.30628 0.28607 0.0
C811 C 0.0238 0.29653 0.28249 0.0
C812 C 0.04158 0.30558 0.26718 0.0
C813 C 0.03037 0.32196 0.25531 0.0
C814 C 0.03222 0.2747 0.29424 0.0
C815 C 0.07 0.28759 0.29879 0.0
C816 C 0.00305 0.24103 0.30088 0.0
C817 C 0.96295 0.22384 0.29548 0.0
C818 C 0.95271 0.21489 0.27876 0.0
C819 C 0.91495 0.19906 0.27373 0.0
C820 C 0.8871 0.1917 0.28533 0.0
C821 C 0.89695 0.20008 0.30199 0.0
C822 C 0.93469 0.21599 0.30708 0.0
H823 H 0.85787 0.17944 0.28141 0.0
H824 H 0.22527 0.32222 0.32613 0.0
loop_
_geom_bond_atom_site_label_1
_geom_bond_atom_site_label_2
_geom_bond_distance
_geom_bond_site_symmetry_2
_ccdc_geom_bond_type
C0 O1 1.160 . S
C0 O7 1.185 . S
O1 C0 1.160 . S
O2 Zn3 1.899 . S
O2 C10 1.284 . S
Zn3 O2 1.899 . S
Zn3 O4 2.032 1_445 S
Zn3 O7 2.086 1_545 S
Zn3 O12 1.977 . S
O4 Zn3 2.032 1_665 S
O4 C8 1.278 . S
C5 O6 1.203 . S
C5 O12 1.267 . S
O6 C5 1.203 . S
O7 C0 1.185 . S
O7 Zn3 2.086 1_565 S
C8 O4 1.278 . S
C8 O9 1.211 1_565 S
O9 C8 1.211 1_545 S
C10 O2 1.284 . S
C10 O11 1.273 1_455 S
O11 C10 1.273 1_655 S
O12 Zn3 1.977 . S
O12 C5 1.267 . S
C13 O14 1.160 . S
C13 O20 1.185 . S
O14 C13 1.160 . S
O15 Zn16 1.899 . S
O15 C23 1.284 1_545 S
Zn16 O15 1.899 . S
Zn16 O17 2.032 1_455 S
Zn16 O20 2.086 . S
Zn16 O25 1.977 . S
O17 Zn16 2.032 1_655 S
O17 C21 1.278 . S
C18 O19 1.203 . S
C18 O25 1.267 . S
O19 C18 1.203 . S
O20 C13 1.185 . S
O20 Zn16 2.086 . S
C21 O17 1.278 . S
C21 O22 1.211 . S
O22 C21 1.211 . S
C23 O15 1.284 1_565 S
C23 O24 1.273 1_455 S
O24 C23 1.273 1_655 S
O25 Zn16 1.977 . S
O25 C18 1.267 . S
C26 O27 1.160 1_565 S
C26 O33 1.185 . S
O27 C26 1.160 1_545 S
O28 Zn29 1.899 1_655 S
O28 C36 1.284 1_565 S
Zn29 O28 1.899 1_455 S
Zn29 O30 2.032 1_565 S
Zn29 O33 2.086 . S
Zn29 O38 1.977 1_455 S
O30 Zn29 2.032 1_545 S
O30 C34 1.278 . S
C31 O32 1.203 . S
C31 O38 1.267 . S
O32 C31 1.203 . S
O33 C26 1.185 . S
O33 Zn29 2.086 . S
C34 O30 1.278 . S
C34 O35 1.211 . S
O35 C34 1.211 . S
C36 O28 1.284 1_545 S
C36 O37 1.273 . S
O37 C36 1.273 . S
O38 Zn29 1.977 1_655 S
O38 C31 1.267 . S
H39 C66 0.929 . S
N40 C65 1.433 . S
N40 C71 1.435 . S
N40 C77 1.423 . S
H41 C67 0.930 . S
H42 C70 0.931 . S
H43 C69 0.929 . S
H44 C72 0.930 . S
H45 C73 0.932 . S
H46 C76 0.929 . S
H47 C75 0.931 . S
H48 C78 0.929 . S
H49 C82 0.932 . S
H50 C79 0.931 . S
H51 C81 0.929 1_455 S
H52 C84 0.929 . S
H53 C85 0.930 . S
H54 C87 0.929 . S
H55 C88 0.931 . S
H56 C90 0.930 . S
H57 C91 0.932 . S
H58 C93 0.931 . S
H59 C94 0.929 . S
H60 C96 0.929 . S
H61 C97 0.931 . S
H62 C99 0.929 1_455 S
N63 C83 1.433 . S
N63 C89 1.435 . S
N63 C95 1.423 . S
H64 C100 0.932 . S
C65 N40 1.433 . S
C65 C66 1.363 . S
C65 C70 1.370 1_655 S
C66 H39 0.929 . S
C66 C65 1.363 . S
C66 C67 1.385 . S
C67 H41 0.930 . S
C67 C66 1.385 . S
C67 C68 1.357 1_655 S
C68 C67 1.357 1_455 S
C68 C69 1.406 . S
C69 H43 0.929 . S
C69 C68 1.406 . S
C69 C70 1.391 . S
C70 H42 0.931 . S
C70 C65 1.370 1_455 S
C70 C69 1.391 . S
C71 N40 1.435 . S
C71 C72 1.358 1_655 S
C71 C76 1.371 . S
C72 H44 0.930 . S
C72 C71 1.358 1_455 S
C72 C73 1.405 . S
C73 H45 0.932 . S
C73 C72 1.405 . S
C73 C74 1.383 . S
C74 C73 1.383 . S
C74 C75 1.393 1_455 S
C75 H47 0.931 . S
C75 C74 1.393 1_655 S
C75 C76 1.382 . S
C76 H46 0.929 . S
C76 C71 1.371 . S
C76 C75 1.382 . S
C77 N40 1.423 . S
C77 C78 1.362 . S
C77 C82 1.388 1_655 S
C78 H48 0.929 . S
C78 C77 1.362 . S
C78 C79 1.376 . S
C79 H50 0.931 . S
C79 C78 1.376 . S
C79 C80 1.396 . S
C80 C79 1.396 . S
C80 C81 1.348 . S
C80 C98 1.472 . S
C81 H51 0.929 1_655 S
C81 C80 1.348 . S
C81 C82 1.443 1_655 S
C82 H49 0.932 . S
C82 C77 1.388 1_455 S
C82 C81 1.443 1_455 S
C83 N63 1.433 . S
C83 C84 1.363 . S
C83 C88 1.370 1_655 S
C84 H52 0.929 . S
C84 C83 1.363 . S
C84 C85 1.385 . S
C85 H53 0.930 . S
C85 C84 1.385 . S
C85 C86 1.357 1_655 S
C86 C85 1.357 1_455 S
C86 C87 1.406 . S
C87 H54 0.929 . S
C87 C86 1.406 . S
C87 C88 1.391 . S
C88 H55 0.931 . S
C88 C83 1.370 1_455 S
C88 C87 1.391 . S
C89 N63 1.435 . S
C89 C90 1.358 1_655 S
C89 C94 1.371 . S
C90 H56 0.930 . S
C90 C89 1.358 1_455 S
C90 C91 1.405 . S
C91 H57 0.932 . S
C91 C90 1.405 . S
C91 C92 1.383 . S
C92 C91 1.383 . S
C92 C93 1.393 1_455 S
C93 H58 0.931 . S
C93 C92 1.393 1_655 S
C93 C94 1.382 . S
C94 H59 0.929 . S
C94 C89 1.371 . S
C94 C93 1.382 . S
C95 N63 1.423 . S
C95 C96 1.362 . S
C95 C100 1.388 1_655 S
C96 H60 0.929 . S
C96 C95 1.362 . S
C96 C97 1.376 . S
C97 H61 0.931 . S
C97 C96 1.376 . S
C97 C98 1.396 . S
C98 C80 1.472 . S
C98 C97 1.396 . S
C98 C99 1.348 . S
C99 H62 0.929 1_655 S
C99 C98 1.348 . S
C99 C100 1.443 1_655 S
C100 H64 0.932 . S
C100 C95 1.388 1_455 S
C100 C99 1.443 1_455 S
H101 C128 0.929 . S
N102 C127 1.433 . S
N102 C133 1.435 . S
N102 C139 1.423 . S
H103 C129 0.930 . S
H104 C132 0.934 1_565 S
H105 C131 0.929 . S
H106 C134 0.930 . S
H107 C135 0.932 . S
H108 C138 0.929 . S
H109 C137 0.931 . S
H110 C140 0.929 . S
H111 C144 0.911 1_565 S
H112 C141 0.931 . S
H113 C143 0.929 . S
H114 C146 0.929 . S
H115 C147 0.930 . S
H116 C149 0.929 . S
H117 C150 0.909 1_565 S
H118 C152 0.930 . S
H119 C153 0.932 . S
H120 C155 0.931 . S
H121 C156 0.929 . S
H122 C158 0.929 . S
H123 C159 0.931 . S
H124 C161 0.929 . S
N125 C145 1.433 . S
N125 C151 1.435 . S
N125 C157 1.423 . S
H126 C162 0.925 1_565 S
C127 N102 1.433 . S
C127 C128 1.363 . S
C127 C132 1.377 . S
C128 H101 0.929 . S
C128 C127 1.363 . S
C128 C129 1.385 . S
C129 H103 0.930 . S
C129 C128 1.385 . S
C129 C130 1.357 . S
C130 C129 1.357 . S
C130 C131 1.406 1_545 S
C131 H105 0.929 . S
C131 C130 1.406 1_565 S
C131 C132 1.382 1_565 S
C132 H104 0.934 1_545 S
C132 C127 1.377 . S
C132 C131 1.382 1_545 S
C133 N102 1.435 . S
C133 C134 1.358 1_545 S
C133 C138 1.371 . S
C134 H106 0.930 . S
C134 C133 1.358 1_565 S
C134 C135 1.405 . S
C135 H107 0.932 . S
C135 C134 1.405 . S
C135 C136 1.383 1_565 S
C136 C135 1.383 1_545 S
C136 C137 1.393 . S
C137 H109 0.931 . S
C137 C136 1.393 . S
C137 C138 1.382 . S
C138 H108 0.929 . S
C138 C133 1.371 . S
C138 C137 1.382 . S
C139 N102 1.423 . S
C139 C140 1.362 . S
C139 C144 1.388 . S
C140 H110 0.929 . S
C140 C139 1.362 . S
C140 C141 1.376 . S
C141 H112 0.931 . S
C141 C140 1.376 . S
C141 C142 1.396 . S
C142 C141 1.396 . S
C142 C143 1.348 . S
C142 C160 1.472 . S
C143 H113 0.929 . S
C143 C142 1.348 . S
C143 C144 1.443 . S
C144 H111 0.911 1_545 S
C144 C139 1.388 . S
C144 C143 1.443 . S
C145 N125 1.433 . S
C145 C146 1.363 . S
C145 C150 1.391 . S
C146 H114 0.929 . S
C146 C145 1.363 . S
C146 C147 1.385 . S
C147 H115 0.930 . S
C147 C146 1.385 . S
C147 C148 1.357 . S
C148 C147 1.357 . S
C148 C149 1.406 1_545 S
C149 H116 0.929 . S
C149 C148 1.406 1_565 S
C149 C150 1.392 1_565 S
C150 H117 0.909 1_545 S
C150 C145 1.391 . S
C150 C149 1.392 1_545 S
C151 N125 1.435 . S
C151 C152 1.358 1_545 S
C151 C156 1.371 . S
C152 H118 0.930 . S
C152 C151 1.358 1_565 S
C152 C153 1.405 . S
C153 H119 0.932 . S
C153 C152 1.405 . S
C153 C154 1.383 1_565 S
C154 C153 1.383 1_545 S
C154 C155 1.393 . S
C155 H120 0.931 . S
C155 C154 1.393 . S
C155 C156 1.382 . S
C156 H121 0.929 . S
C156 C151 1.371 . S
C156 C155 1.382 . S
C157 N125 1.423 . S
C157 C158 1.362 . S
C157 C162 1.388 . S
C158 H122 0.929 . S
C158 C157 1.362 . S
C158 C159 1.376 . S
C159 H123 0.931 . S
C159 C158 1.376 . S
C159 C160 1.396 . S
C160 C142 1.472 . S
C160 C159 1.396 . S
C160 C161 1.348 . S
C161 H124 0.929 . S
C161 C160 1.348 . S
C161 C162 1.443 . S
C162 H126 0.925 1_545 S
C162 C157 1.388 . S
C162 C161 1.443 . S
H163 C190 0.929 . S
N164 C189 1.433 . S
N164 C195 1.435 . S
N164 C201 1.423 . S
H165 C191 0.930 . S
H166 C194 0.931 . S
H167 C193 0.929 . S
H168 C196 0.930 . S
H169 C197 0.932 . S
H170 C200 0.929 . S
H171 C199 0.931 . S
H172 C202 0.929 . S
H173 C206 0.932 . S
H174 C203 0.931 . S
H175 C205 0.929 . S
H176 C208 0.929 . S
H177 C209 0.930 . S
H178 C211 0.929 . S
H179 C212 0.931 . S
H180 C214 0.930 . S
H181 C215 0.932 . S
H182 C217 0.931 . S
H183 C218 0.929 . S
H184 C220 0.929 . S
H185 C221 0.931 . S
H186 C223 0.929 . S
N187 C207 1.433 . S
N187 C213 1.435 . S
N187 C219 1.423 . S
H188 C224 0.932 . S
C189 N164 1.433 . S
C189 C190 1.363 . S
C189 C194 1.370 . S
C190 H163 0.929 . S
C190 C189 1.363 . S
C190 C191 1.385 . S
C191 H165 0.930 . S
C191 C190 1.385 . S
C191 C192 1.357 . S
C192 C191 1.357 . S
C192 C193 1.406 . S
C193 H167 0.929 . S
C193 C192 1.406 . S
C193 C194 1.391 . S
C194 H166 0.931 . S
C194 C189 1.370 . S
C194 C193 1.391 . S
C195 N164 1.435 . S
C195 C196 1.358 . S
C195 C200 1.371 . S
C196 H168 0.930 . S
C196 C195 1.358 . S
C196 C197 1.405 . S
C197 H169 0.932 . S
C197 C196 1.405 . S
C197 C198 1.383 . S
C198 C197 1.383 . S
C198 C199 1.393 . S
C199 H171 0.931 . S
C199 C198 1.393 . S
C199 C200 1.382 . S
C200 H170 0.929 . S
C200 C195 1.371 . S
C200 C199 1.382 . S
C201 N164 1.423 . S
C201 C202 1.362 . S
C201 C206 1.388 . S
C202 H172 0.929 . S
C202 C201 1.362 . S
C202 C203 1.376 . S
C203 H174 0.931 . S
C203 C202 1.376 . S
C203 C204 1.396 . S
C204 C203 1.396 . S
C204 C205 1.348 . S
C204 C222 1.472 . S
C205 H175 0.929 . S
C205 C204 1.348 . S
C205 C206 1.443 . S
C206 H173 0.932 . S
C206 C201 1.388 . S
C206 C205 1.443 . S
C207 N187 1.433 . S
C207 C208 1.363 . S
C207 C212 1.370 . S
C208 H176 0.929 . S
C208 C207 1.363 . S
C208 C209 1.385 . S
C209 H177 0.930 . S
C209 C208 1.385 . S
C209 C210 1.357 . S
C210 C209 1.357 . S
C210 C211 1.406 . S
C211 H178 0.929 . S
C211 C210 1.406 . S
C211 C212 1.391 . S
C212 H179 0.931 . S
C212 C207 1.370 . S
C212 C211 1.391 . S
C213 N187 1.435 . S
C213 C214 1.358 . S
C213 C218 1.371 . S
C214 H180 0.930 . S
C214 C213 1.358 . S
C214 C215 1.405 . S
C215 H181 0.932 . S
C215 C214 1.405 . S
C215 C216 1.383 . S
C216 C215 1.383 . S
C216 C217 1.393 . S
C217 H182 0.931 . S
C217 C216 1.393 . S
C217 C218 1.382 . S
C218 H183 0.929 . S
C218 C213 1.371 . S
C218 C217 1.382 . S
C219 N187 1.423 . S
C219 C220 1.362 . S
C219 C224 1.388 . S
C220 H184 0.929 . S
C220 C219 1.362 . S
C220 C221 1.376 . S
C221 H185 0.931 . S
C221 C220 1.376 . S
C221 C222 1.396 . S
C222 C204 1.472 . S
C222 C221 1.396 . S
C222 C223 1.348 . S
C223 H186 0.929 . S
C223 C222 1.348 . S
C223 C224 1.443 . S
C224 H188 0.932 . S
C224 C219 1.388 . S
C224 C223 1.443 . S
H225 C243 0.951 . S
H226 C245 0.951 . S
H227 C247 0.950 . S
H228 C248 0.950 . S
H229 C250 0.950 . S
H230 C253 0.950 . S
H231 C254 0.950 . S
H232 C256 0.950 . S
H233 C257 0.950 . S
H234 C258 0.951 . S
H235 C260 0.951 . S
H236 C262 0.950 . S
H237 C263 0.950 . S
H238 C265 0.950 . S
H239 C268 0.950 . S
H240 C269 0.950 . S
H241 C271 0.950 . S
H242 C272 0.950 . S
C243 H225 0.951 . S
C243 C244 1.366 . S
C243 C245 1.388 . S
C244 C243 1.366 . S
C244 C248 1.385 1_455 S
C245 H226 0.951 . S
C245 C243 1.388 . S
C245 C246 1.366 . S
C246 C245 1.366 . S
C246 C247 1.414 1_455 S
C246 C249 1.499 . S
C247 H227 0.950 . S
C247 C246 1.414 1_655 S
C247 C248 1.374 . S
C248 H228 0.950 . S
C248 C244 1.385 1_655 S
C248 C247 1.374 . S
C249 C246 1.499 . S
C249 C250 1.373 1_455 S
C249 C251 1.389 . S
C250 H229 0.950 . S
C250 C249 1.373 1_655 S
C250 C266 1.377 . S
C251 C249 1.389 . S
C251 C252 1.524 . S
C251 C265 1.377 . S
C252 C251 1.524 . S
C252 C253 1.397 . S
C252 C257 1.363 . S
C253 H230 0.950 . S
C253 C252 1.397 . S
C253 C254 1.334 . S
C254 H231 0.950 . S
C254 C253 1.334 . S
C254 C255 1.287 . S
C255 C254 1.287 . S
C255 C256 1.524 . S
C255 H274 0.913 . S
C256 H232 0.950 . S
C256 C255 1.524 . S
C256 C257 1.415 . S
C257 H233 0.950 . S
C257 C252 1.363 . S
C257 C256 1.415 . S
C258 H234 0.951 . S
C258 C259 1.366 1_655 S
C258 C260 1.388 . S
C259 C258 1.366 1_455 S
C259 C263 1.385 . S
C260 H235 0.951 . S
C260 C258 1.388 . S
C260 C261 1.366 1_655 S
C261 C260 1.366 1_455 S
C261 C262 1.414 . S
C261 C264 1.499 . S
C262 H236 0.950 . S
C262 C261 1.414 . S
C262 C263 1.374 . S
C263 H237 0.950 . S
C263 C259 1.385 . S
C263 C262 1.374 . S
C264 C261 1.499 . S
C264 C265 1.373 . S
C264 C266 1.389 1_455 S
C265 H238 0.950 . S
C265 C251 1.377 . S
C265 C264 1.373 . S
C266 C250 1.377 . S
C266 C264 1.389 1_655 S
C266 C267 1.524 . S
C267 C266 1.524 . S
C267 C268 1.397 . S
C267 C272 1.363 . S
C268 H239 0.950 . S
C268 C267 1.397 . S
C268 C269 1.334 . S
C269 H240 0.950 . S
C269 C268 1.334 . S
C269 C270 1.287 . S
C270 C269 1.287 . S
C270 C271 1.524 . S
C270 H273 0.999 . S
C271 H241 0.950 . S
C271 C270 1.524 . S
C271 C272 1.415 . S
C272 H242 0.950 . S
C272 C267 1.363 . S
C272 C271 1.415 . S
H273 C270 0.999 . S
H274 C255 0.913 . S
H275 C293 0.951 . S
H276 C295 0.951 . S
H277 C297 0.950 . S
H278 C298 0.950 . S
H279 C300 0.950 . S
H280 C303 0.950 . S
H281 C304 0.950 . S
H282 C306 0.950 . S
H283 C307 0.950 . S
H284 C308 0.951 . S
H285 C310 0.951 . S
H286 C312 0.950 . S
H287 C313 0.950 . S
H288 C315 0.950 . S
H289 C318 0.950 . S
H290 C319 0.950 . S
H291 C321 0.950 . S
H292 C322 0.950 . S
C293 H275 0.951 . S
C293 C294 1.366 . S
C293 C295 1.388 . S
C294 C293 1.366 . S
C294 C298 1.385 . S
C295 H276 0.951 . S
C295 C293 1.388 . S
C295 C296 1.366 . S
C296 C295 1.366 . S
C296 C297 1.414 . S
C296 C299 1.499 . S
C297 H277 0.950 . S
C297 C296 1.414 . S
C297 C298 1.374 . S
C298 H278 0.950 . S
C298 C294 1.385 . S
C298 C297 1.374 . S
C299 C296 1.499 . S
C299 C300 1.373 1_545 S
C299 C301 1.389 . S
C300 H279 0.950 . S
C300 C299 1.373 1_565 S
C300 C316 1.377 . S
C301 C299 1.389 . S
C301 C302 1.524 . S
C301 C315 1.377 . S
C302 C301 1.524 . S
C302 C303 1.397 . S
C302 C307 1.363 . S
C303 H280 0.950 . S
C303 C302 1.397 . S
C303 C304 1.334 . S
C304 H281 0.950 . S
C304 C303 1.334 . S
C304 C305 1.287 . S
C305 C304 1.287 . S
C305 C306 1.524 . S
C305 H324 0.913 . S
C306 H282 0.950 . S
C306 C305 1.524 . S
C306 C307 1.415 . S
C307 H283 0.950 . S
C307 C302 1.363 . S
C307 C306 1.415 . S
C308 H284 0.951 . S
C308 C309 1.366 . S
C308 C310 1.388 . S
C309 C308 1.366 . S
C309 C313 1.385 . S
C310 H285 0.951 . S
C310 C308 1.388 . S
C310 C311 1.366 . S
C311 C310 1.366 . S
C311 C312 1.414 . S
C311 C314 1.499 . S
C312 H286 0.950 . S
C312 C311 1.414 . S
C312 C313 1.374 . S
C313 H287 0.950 . S
C313 C309 1.385 . S
C313 C312 1.374 . S
C314 C311 1.499 . S
C314 C315 1.373 . S
C314 C316 1.389 1_545 S
C315 H288 0.950 . S
C315 C301 1.377 . S
C315 C314 1.373 . S
C316 C300 1.377 . S
C316 C314 1.389 1_565 S
C316 C317 1.524 . S
C317 C316 1.524 . S
C317 C318 1.397 . S
C317 C322 1.363 . S
C318 H289 0.950 . S
C318 C317 1.397 . S
C318 C319 1.334 . S
C319 H290 0.950 . S
C319 C318 1.334 . S
C319 C320 1.287 . S
C320 C319 1.287 . S
C320 C321 1.524 . S
C320 H323 0.999 . S
C321 H291 0.950 . S
C321 C320 1.524 . S
C321 C322 1.415 . S
C322 H292 0.950 . S
C322 C317 1.363 . S
C322 C321 1.415 . S
H323 C320 0.999 . S
H324 C305 0.913 . S
H325 C343 0.951 . S
H326 C345 0.951 . S
H327 C347 0.950 . S
H328 C348 0.950 . S
H329 C350 0.950 . S
H330 C353 0.950 . S
H331 C354 0.950 . S
H332 C356 0.950 . S
H333 C357 0.950 . S
H334 C358 0.951 . S
H335 C360 0.951 . S
H336 C362 0.950 . S
H337 C363 0.950 . S
H338 C365 0.950 . S
H339 C368 0.950 . S
H340 C369 0.950 . S
H341 C371 0.950 . S
H342 C372 0.950 . S
C343 H325 0.951 . S
C343 C344 1.366 . S
C343 C345 1.388 . S
C344 C343 1.366 . S
C344 C348 1.385 . S
C345 H326 0.951 . S
C345 C343 1.388 . S
C345 C346 1.366 . S
C346 C345 1.366 . S
C346 C347 1.414 . S
C346 C349 1.499 . S
C347 H327 0.950 . S
C347 C346 1.414 . S
C347 C348 1.374 . S
C348 H328 0.950 . S
C348 C344 1.385 . S
C348 C347 1.374 . S
C349 C346 1.499 . S
C349 C350 1.373 . S
C349 C351 1.389 . S
C350 H329 0.950 . S
C350 C349 1.373 . S
C350 C366 1.377 . S
C351 C349 1.389 . S
C351 C352 1.524 . S
C351 C365 1.377 . S
C352 C351 1.524 . S
C352 C353 1.397 . S
C352 C357 1.363 . S
C353 H330 0.950 . S
C353 C352 1.397 . S
C353 C354 1.334 . S
C354 H331 0.950 . S
C354 C353 1.334 . S
C354 C355 1.287 . S
C355 C354 1.287 . S
C355 C356 1.524 . S
C355 H374 0.913 . S
C356 H332 0.950 . S
C356 C355 1.524 . S
C356 C357 1.415 . S
C357 H333 0.950 . S
C357 C352 1.363 . S
C357 C356 1.415 . S
C358 H334 0.951 . S
C358 C359 1.366 . S
C358 C360 1.388 . S
C359 C358 1.366 . S
C359 C363 1.385 . S
C360 H335 0.951 . S
C360 C358 1.388 . S
C360 C361 1.366 . S
C361 C360 1.366 . S
C361 C362 1.414 . S
C361 C364 1.499 . S
C362 H336 0.950 . S
C362 C361 1.414 . S
C362 C363 1.374 . S
C363 H337 0.950 . S
C363 C359 1.385 . S
C363 C362 1.374 . S
C364 C361 1.499 . S
C364 C365 1.373 . S
C364 C366 1.389 . S
C365 H338 0.950 . S
C365 C351 1.377 . S
C365 C364 1.373 . S
C366 C350 1.377 . S
C366 C364 1.389 . S
C366 C367 1.524 . S
C367 C366 1.524 . S
C367 C368 1.397 . S
C367 C372 1.363 . S
C368 H339 0.950 . S
C368 C367 1.397 . S
C368 C369 1.334 . S
C369 H340 0.950 . S
C369 C368 1.334 . S
C369 C370 1.287 . S
C370 C369 1.287 . S
C370 C371 1.524 . S
C370 H373 0.999 . S
C371 H341 0.950 . S
C371 C370 1.524 . S
C371 C372 1.415 . S
C372 H342 0.950 . S
C372 C367 1.363 . S
C372 C371 1.415 . S
H373 C370 0.999 . S
H374 C355 0.913 . S
H375 C393 0.951 1_655 S
H376 C395 0.951 . S
H377 C397 0.950 . S
H378 C398 0.950 . S
H379 C400 0.950 . S
H380 C403 0.950 . S
H381 C404 0.950 . S
H382 C406 0.950 . S
H383 C407 0.950 . S
H384 C408 0.951 . S
H385 C410 0.951 . S
H386 C412 0.950 . S
H387 C413 0.950 . S
H388 C415 0.950 . S
H389 C418 0.950 . S
H390 C419 0.950 . S
H391 C421 0.950 . S
H392 C422 0.950 . S
C393 H375 0.951 1_455 S
C393 C394 1.366 . S
C393 C395 1.388 1_455 S
C394 C393 1.366 . S
C394 C398 1.385 . S
C395 H376 0.951 . S
C395 C393 1.388 1_655 S
C395 C396 1.366 1_655 S
C396 C395 1.366 1_455 S
C396 C397 1.414 . S
C396 C399 1.499 . S
C397 H377 0.950 . S
C397 C396 1.414 . S
C397 C398 1.374 . S
C398 H378 0.950 . S
C398 C394 1.385 . S
C398 C397 1.374 . S
C399 C396 1.499 . S
C399 C400 1.373 . S
C399 C401 1.389 1_455 S
C400 H379 0.950 . S
C400 C399 1.373 . S
C400 C416 1.377 . S
C401 C399 1.389 1_655 S
C401 C402 1.524 . S
C401 C415 1.377 . S
C402 C401 1.524 . S
C402 C403 1.397 . S
C402 C407 1.363 . S
C403 H380 0.950 . S
C403 C402 1.397 . S
C403 C404 1.334 . S
C404 H381 0.950 . S
C404 C403 1.334 . S
C404 C405 1.287 . S
C405 C404 1.287 . S
C405 C406 1.524 . S
C405 H424 0.913 . S
C406 H382 0.950 . S
C406 C405 1.524 . S
C406 C407 1.415 . S
C407 H383 0.950 . S
C407 C402 1.363 . S
C407 C406 1.415 . S
C408 H384 0.951 . S
C408 C409 1.366 . S
C408 C410 1.388 . S
C409 C408 1.366 . S
C409 C413 1.385 1_455 S
C410 H385 0.951 . S
C410 C408 1.388 . S
C410 C411 1.366 . S
C411 C410 1.366 . S
C411 C412 1.414 1_455 S
C411 C414 1.499 . S
C412 H386 0.950 . S
C412 C411 1.414 1_655 S
C412 C413 1.374 . S
C413 H387 0.950 . S
C413 C409 1.385 1_655 S
C413 C412 1.374 . S
C414 C411 1.499 . S
C414 C415 1.373 1_455 S
C414 C416 1.389 . S
C415 H388 0.950 . S
C415 C401 1.377 . S
C415 C414 1.373 1_655 S
C416 C400 1.377 . S
C416 C414 1.389 . S
C416 C417 1.524 . S
C417 C416 1.524 . S
C417 C418 1.397 . S
C417 C422 1.363 . S
C418 H389 0.950 . S
C418 C417 1.397 . S
C418 C419 1.334 . S
C419 H390 0.950 . S
C419 C418 1.334 . S
C419 C420 1.287 . S
C420 C419 1.287 . S
C420 C421 1.524 . S
C420 H423 0.999 . S
C421 H391 0.950 . S
C421 C420 1.524 . S
C421 C422 1.415 . S
C422 H392 0.950 . S
C422 C417 1.363 . S
C422 C421 1.415 . S
H423 C420 0.999 . S
H424 C405 0.913 . S
H425 C443 0.951 . S
H426 C445 0.951 1_565 S
H427 C447 0.950 . S
H428 C448 0.950 . S
H429 C450 0.950 . S
H430 C453 0.950 . S
H431 C454 0.950 . S
H432 C456 0.950 . S
H433 C457 0.950 1_565 S
H434 C458 0.951 . S
H435 C460 0.951 . S
H436 C462 0.950 . S
H437 C463 0.950 . S
H438 C465 0.950 . S
H439 C468 0.950 . S
H440 C469 0.950 . S
H441 C471 0.950 . S
H442 C472 0.950 . S
C443 H425 0.951 . S
C443 C444 1.366 . S
C443 C445 1.388 . S
C444 C443 1.366 . S
C444 C448 1.385 . S
C445 H426 0.951 1_545 S
C445 C443 1.388 . S
C445 C446 1.366 . S
C446 C445 1.366 . S
C446 C447 1.414 . S
C446 C449 1.499 . S
C447 H427 0.950 . S
C447 C446 1.414 . S
C447 C448 1.374 . S
C448 H428 0.950 . S
C448 C444 1.385 . S
C448 C447 1.374 . S
C449 C446 1.499 . S
C449 C450 1.373 . S
C449 C451 1.389 . S
C450 H429 0.950 . S
C450 C449 1.373 . S
C450 C466 1.377 . S
C451 C449 1.389 . S
C451 C452 1.524 . S
C451 C465 1.377 . S
C452 C451 1.524 . S
C452 C453 1.397 . S
C452 C457 1.363 . S
C453 H430 0.950 . S
C453 C452 1.397 . S
C453 C454 1.334 . S
C454 H431 0.950 . S
C454 C453 1.334 . S
C454 C455 1.287 . S
C455 C454 1.287 . S
C455 C456 1.524 . S
C455 H474 0.913 . S
C456 H432 0.950 . S
C456 C455 1.524 . S
C456 C457 1.415 . S
C457 H433 0.950 1_545 S
C457 C452 1.363 . S
C457 C456 1.415 . S
C458 H434 0.951 . S
C458 C459 1.366 . S
C458 C460 1.388 . S
C459 C458 1.366 . S
C459 C463 1.385 1_545 S
C460 H435 0.951 . S
C460 C458 1.388 . S
C460 C461 1.366 . S
C461 C460 1.366 . S
C461 C462 1.414 1_545 S
C461 C464 1.499 . S
C462 H436 0.950 . S
C462 C461 1.414 1_565 S
C462 C463 1.374 . S
C463 H437 0.950 . S
C463 C459 1.385 1_565 S
C463 C462 1.374 . S
C464 C461 1.499 . S
C464 C465 1.373 . S
C464 C466 1.389 . S
C465 H438 0.950 . S
C465 C451 1.377 . S
C465 C464 1.373 . S
C466 C450 1.377 . S
C466 C464 1.389 . S
C466 C467 1.524 . S
C467 C466 1.524 . S
C467 C468 1.397 1_545 S
C467 C472 1.363 . S
C468 H439 0.950 . S
C468 C467 1.397 1_565 S
C468 C469 1.334 . S
C469 H440 0.950 . S
C469 C468 1.334 . S
C469 C470 1.287 1_565 S
C470 C469 1.287 1_545 S
C470 C471 1.524 . S
C470 H473 0.999 . S
C471 H441 0.950 . S
C471 C470 1.524 . S
C471 C472 1.415 . S
C472 H442 0.950 . S
C472 C467 1.363 . S
C472 C471 1.415 . S
H473 C470 0.999 . S
H474 C455 0.913 . S
H475 C493 0.951 . S
H476 C495 0.951 . S
H477 C497 0.950 . S
H478 C498 0.950 . S
H479 C500 0.950 . S
H480 C503 0.950 . S
H481 C504 0.950 . S
H482 C506 0.950 . S
H483 C507 0.950 . S
H484 C508 0.951 . S
H485 C510 0.951 . S
H486 C512 0.950 . S
H487 C513 0.950 . S
H488 C515 0.950 . S
H489 C518 0.950 . S
H490 C519 0.950 . S
H491 C521 0.950 . S
H492 C522 0.950 . S
C493 H475 0.951 . S
C493 C494 1.366 . S
C493 C495 1.388 . S
C494 C493 1.366 . S
C494 C498 1.385 . S
C495 H476 0.951 . S
C495 C493 1.388 . S
C495 C496 1.366 . S
C496 C495 1.366 . S
C496 C497 1.414 . S
C496 C499 1.499 . S
C497 H477 0.950 . S
C497 C496 1.414 . S
C497 C498 1.374 . S
C498 H478 0.950 . S
C498 C494 1.385 . S
C498 C497 1.374 . S
C499 C496 1.499 . S
C499 C500 1.373 . S
C499 C501 1.389 . S
C500 H479 0.950 . S
C500 C499 1.373 . S
C500 C516 1.377 . S
C501 C499 1.389 . S
C501 C502 1.524 . S
C501 C515 1.377 . S
C502 C501 1.524 . S
C502 C503 1.397 . S
C502 C507 1.363 . S
C503 H480 0.950 . S
C503 C502 1.397 . S
C503 C504 1.334 . S
C504 H481 0.950 . S
C504 C503 1.334 . S
C504 C505 1.287 . S
C505 C504 1.287 . S
C505 C506 1.524 . S
C505 H524 0.913 . S
C506 H482 0.950 . S
C506 C505 1.524 . S
C506 C507 1.415 . S
C507 H483 0.950 . S
C507 C502 1.363 . S
C507 C506 1.415 . S
C508 H484 0.951 . S
C508 C509 1.366 . S
C508 C510 1.388 . S
C509 C508 1.366 . S
C509 C513 1.385 . S
C510 H485 0.951 . S
C510 C508 1.388 . S
C510 C511 1.366 . S
C511 C510 1.366 . S
C511 C512 1.414 . S
C511 C514 1.499 . S
C512 H486 0.950 . S
C512 C511 1.414 . S
C512 C513 1.374 . S
C513 H487 0.950 . S
C513 C509 1.385 . S
C513 C512 1.374 . S
C514 C511 1.499 . S
C514 C515 1.373 . S
C514 C516 1.389 . S
C515 H488 0.950 . S
C515 C501 1.377 . S
C515 C514 1.373 . S
C516 C500 1.377 . S
C516 C514 1.389 . S
C516 C517 1.524 . S
C517 C516 1.524 . S
C517 C518 1.397 . S
C517 C522 1.363 . S
C518 H489 0.950 . S
C518 C517 1.397 . S
C518 C519 1.334 . S
C519 H490 0.950 . S
C519 C518 1.334 . S
C519 C520 1.287 . S
C520 C519 1.287 . S
C520 C521 1.524 . S
C520 H523 0.999 . S
C521 H491 0.950 . S
C521 C520 1.524 . S
C521 C522 1.415 . S
C522 H492 0.950 . S
C522 C517 1.363 . S
C522 C521 1.415 . S
H523 C520 0.999 . S
H524 C505 0.913 . S
H525 C543 0.951 . S
H526 C545 0.951 . S
H527 C547 0.950 . S
H528 C548 0.963 . S
H529 C550 0.950 . S
H530 C553 0.950 . S
H531 C554 0.950 . S
H532 C556 0.950 . S
H533 C557 0.950 . S
H534 C558 0.951 . S
H535 C560 0.951 . S
H536 C562 0.950 . S
H537 C563 0.950 . S
H538 C565 0.950 . S
H539 C568 0.950 . S
H540 C569 0.950 . S
H541 C571 0.950 . S
H542 C572 0.950 . S
C543 H525 0.951 . S
C543 C544 1.366 . S
C543 C545 1.388 . S
C544 C543 1.366 . S
C544 C548 1.382 1_545 S
C545 H526 0.951 . S
C545 C543 1.388 . S
C545 C546 1.366 . S
C546 C545 1.366 . S
C546 C547 1.414 1_545 S
C546 C549 1.499 . S
C547 H527 0.950 . S
C547 C546 1.414 1_565 S
C547 C548 1.363 . S
C548 H528 0.963 . S
C548 C544 1.382 1_565 S
C548 C547 1.363 . S
C549 C546 1.499 . S
C549 C550 1.373 1_545 S
C549 C551 1.389 . S
C550 H529 0.950 . S
C550 C549 1.373 1_565 S
C550 C566 1.377 . S
C551 C549 1.389 . S
C551 C552 1.524 . S
C551 C565 1.377 . S
C552 C551 1.524 . S
C552 C553 1.397 . S
C552 C557 1.363 . S
C553 H530 0.950 . S
C553 C552 1.397 . S
C553 C554 1.334 . S
C554 H531 0.950 . S
C554 C553 1.334 . S
C554 C555 1.287 . S
C555 C554 1.287 . S
C555 C556 1.524 . S
C555 H574 0.913 . S
C556 H532 0.950 . S
C556 C555 1.524 . S
C556 C557 1.415 . S
C557 H533 0.950 . S
C557 C552 1.363 . S
C557 C556 1.415 . S
C558 H534 0.951 . S
C558 C559 1.366 1_565 S
C558 C560 1.388 . S
C559 C558 1.366 1_545 S
C559 C563 1.385 . S
C560 H535 0.951 . S
C560 C558 1.388 . S
C560 C561 1.366 1_565 S
C561 C560 1.366 1_545 S
C561 C562 1.414 . S
C561 C564 1.499 . S
C562 H536 0.950 . S
C562 C561 1.414 . S
C562 C563 1.374 . S
C563 H537 0.950 . S
C563 C559 1.385 . S
C563 C562 1.374 . S
C564 C561 1.499 . S
C564 C565 1.373 . S
C564 C566 1.389 1_545 S
C565 H538 0.950 . S
C565 C551 1.377 . S
C565 C564 1.373 . S
C566 C550 1.377 . S
C566 C564 1.389 1_565 S
C566 C567 1.524 . S
C567 C566 1.524 . S
C567 C568 1.397 . S
C567 C572 1.363 . S
C568 H539 0.950 . S
C568 C567 1.397 . S
C568 C569 1.334 . S
C569 H540 0.950 . S
C569 C568 1.334 . S
C569 C570 1.287 . S
C570 C569 1.287 . S
C570 C571 1.524 . S
C570 H573 0.999 . S
C571 H541 0.950 . S
C571 C570 1.524 . S
C571 C572 1.415 . S
C572 H542 0.950 . S
C572 C567 1.363 . S
C572 C571 1.415 . S
H573 C570 0.999 . S
H574 C555 0.913 . S
H575 C593 0.951 . S
H576 C595 0.951 . S
H577 C597 0.950 . S
H578 C598 0.950 . S
H579 C600 0.950 . S
H580 C603 0.950 . S
H581 C604 0.950 . S
H582 C606 0.950 . S
H583 C607 0.950 . S
H584 C608 0.951 . S
H585 C610 0.951 . S
H586 C612 0.950 . S
H587 C613 0.950 . S
H588 C615 0.950 . S
H589 C618 0.950 . S
H590 C619 0.950 . S
H591 C621 0.937 1_554 S
H592 C622 0.950 . S
C593 H575 0.951 . S
C593 C594 1.366 . S
C593 C595 1.388 1_554 S
C594 C593 1.366 . S
C594 C598 1.385 . S
C595 H576 0.951 . S
C595 C593 1.388 1_556 S
C595 C596 1.366 . S
C596 C595 1.366 . S
C596 C597 1.414 . S
C596 C599 1.499 . S
C597 H577 0.950 . S
C597 C596 1.414 . S
C597 C598 1.374 1_556 S
C598 H578 0.950 . S
C598 C594 1.385 . S
C598 C597 1.374 1_554 S
C599 C596 1.499 . S
C599 C600 1.373 . S
C599 C601 1.389 . S
C600 H579 0.950 . S
C600 C599 1.373 . S
C600 C616 1.377 . S
C601 C599 1.389 . S
C601 C602 1.524 . S
C601 C615 1.377 . S
C602 C601 1.524 . S
C602 C603 1.397 . S
C602 C607 1.363 . S
C603 H580 0.950 . S
C603 C602 1.397 . S
C603 C604 1.334 . S
C604 H581 0.950 . S
C604 C603 1.334 . S
C604 C605 1.287 . S
C605 C604 1.287 . S
C605 C606 1.524 . S
C605 H624 0.913 . S
C606 H582 0.950 . S
C606 C605 1.524 . S
C606 C607 1.415 . S
C607 H583 0.950 . S
C607 C602 1.363 . S
C607 C606 1.415 . S
C608 H584 0.951 . S
C608 C609 1.366 . S
C608 C610 1.388 . S
C609 C608 1.366 . S
C609 C613 1.385 . S
C610 H585 0.951 . S
C610 C608 1.388 . S
C610 C611 1.366 . S
C611 C610 1.366 . S
C611 C612 1.414 . S
C611 C614 1.499 . S
C612 H586 0.950 . S
C612 C611 1.414 . S
C612 C613 1.374 . S
C613 H587 0.950 . S
C613 C609 1.385 . S
C613 C612 1.374 . S
C614 C611 1.499 . S
C614 C615 1.373 . S
C614 C616 1.389 . S
C615 H588 0.950 . S
C615 C601 1.377 . S
C615 C614 1.373 . S
C616 C600 1.377 . S
C616 C614 1.389 . S
C616 C617 1.524 . S
C617 C616 1.524 . S
C617 C618 1.397 . S
C617 C622 1.363 . S
C618 H589 0.950 . S
C618 C617 1.397 . S
C618 C619 1.334 . S
C619 H590 0.950 . S
C619 C618 1.334 . S
C619 C620 1.287 1_556 S
C620 C619 1.287 1_554 S
C620 C621 1.519 1_554 S
C620 H623 0.999 . S
C621 H591 0.937 1_556 S
C621 C620 1.519 1_556 S
C621 C622 1.436 . S
C622 H592 0.950 . S
C622 C617 1.363 . S
C622 C621 1.436 . S
H623 C620 0.999 . S
H624 C605 0.913 . S
H625 C643 0.951 . S
H626 C645 0.951 . S
H627 C647 0.956 1_655 S
H628 C648 0.950 1_655 S
H629 C650 0.950 . S
H630 C653 0.950 . S
H631 C654 0.950 . S
H632 C656 0.950 . S
H633 C657 0.950 . S
H634 C658 0.951 . S
H635 C660 0.955 . S
H636 C662 0.950 . S
H637 C663 0.950 . S
H638 C665 0.950 . S
H639 C668 0.950 . S
H640 C669 0.950 . S
H641 C671 0.950 . S
H642 C672 0.950 . S
C643 H625 0.951 . S
C643 C644 1.366 . S
C643 C645 1.388 . S
C644 C643 1.366 . S
C644 C648 1.385 . S
C645 H626 0.951 . S
C645 C643 1.388 . S
C645 C646 1.366 . S
C646 C645 1.366 . S
C646 C647 1.420 . S
C646 C649 1.499 . S
C647 H627 0.956 1_455 S
C647 C646 1.420 . S
C647 C648 1.363 . S
C648 H628 0.950 1_455 S
C648 C644 1.385 . S
C648 C647 1.363 . S
C649 C646 1.499 . S
C649 C650 1.373 . S
C649 C651 1.389 1_455 S
C650 H629 0.950 . S
C650 C649 1.373 . S
C650 C666 1.377 . S
C651 C649 1.389 1_655 S
C651 C652 1.524 . S
C651 C665 1.377 . S
C652 C651 1.524 . S
C652 C653 1.397 . S
C652 C657 1.363 . S
C653 H630 0.950 . S
C653 C652 1.397 . S
C653 C654 1.334 . S
C654 H631 0.950 . S
C654 C653 1.334 . S
C654 C655 1.287 . S
C655 C654 1.287 . S
C655 C656 1.524 . S
C655 H674 0.913 . S
C656 H632 0.950 . S
C656 C655 1.524 . S
C656 C657 1.415 . S
C657 H633 0.950 . S
C657 C652 1.363 . S
C657 C656 1.415 . S
C658 H634 0.951 . S
C658 C659 1.366 1_655 S
C658 C660 1.381 . S
C659 C658 1.366 1_455 S
C659 C663 1.385 . S
C660 H635 0.955 . S
C660 C658 1.381 . S
C660 C661 1.368 1_655 S
C661 C660 1.368 1_455 S
C661 C662 1.414 . S
C661 C664 1.499 . S
C662 H636 0.950 . S
C662 C661 1.414 . S
C662 C663 1.374 . S
C663 H637 0.950 . S
C663 C659 1.385 . S
C663 C662 1.374 . S
C664 C661 1.499 . S
C664 C665 1.373 1_455 S
C664 C666 1.389 . S
C665 H638 0.950 . S
C665 C651 1.377 . S
C665 C664 1.373 1_655 S
C666 C650 1.377 . S
C666 C664 1.389 . S
C666 C667 1.524 . S
C667 C666 1.524 . S
C667 C668 1.397 . S
C667 C672 1.363 . S
C668 H639 0.950 . S
C668 C667 1.397 . S
C668 C669 1.334 . S
C669 H640 0.950 . S
C669 C668 1.334 . S
C669 C670 1.287 . S
C670 C669 1.287 . S
C670 C671 1.524 . S
C670 H673 0.999 . S
C671 H641 0.950 . S
C671 C670 1.524 . S
C671 C672 1.415 . S
C672 H642 0.950 . S
C672 C667 1.363 . S
C672 C671 1.415 . S
H673 C670 0.999 . S
H674 C655 0.913 . S
H675 C693 0.951 . S
H676 C695 0.951 . S
H677 C697 0.950 . S
H678 C698 0.950 . S
H679 C700 0.950 . S
H680 C703 0.950 . S
H681 C704 0.950 . S
H682 C706 0.950 . S
H683 C707 0.950 . S
H684 C708 0.951 . S
H685 C710 0.951 . S
H686 C712 0.950 . S
H687 C713 0.950 . S
H688 C715 0.951 . S
H689 C718 0.950 . S
H690 C719 0.950 . S
H691 C721 0.950 . S
H692 C722 0.950 . S
C693 H675 0.951 . S
C693 C694 1.366 1_545 S
C693 C695 1.388 . S
C694 C693 1.366 1_565 S
C694 C698 1.385 . S
C695 H676 0.951 . S
C695 C693 1.388 . S
C695 C696 1.366 1_545 S
C696 C695 1.366 1_565 S
C696 C697 1.414 . S
C696 C699 1.499 . S
C697 H677 0.950 . S
C697 C696 1.414 . S
C697 C698 1.374 . S
C698 H678 0.950 . S
C698 C694 1.385 . S
C698 C697 1.374 . S
C699 C696 1.499 . S
C699 C700 1.373 . S
C699 C701 1.389 . S
C700 H679 0.950 . S
C700 C699 1.373 . S
C700 C716 1.377 1_565 S
C701 C699 1.389 . S
C701 C702 1.524 . S
C701 C715 1.379 1_565 S
C702 C701 1.524 . S
C702 C703 1.397 . S
C702 C707 1.363 1_565 S
C703 H680 0.950 . S
C703 C702 1.397 . S
C703 C704 1.334 . S
C704 H681 0.950 . S
C704 C703 1.334 . S
C704 C705 1.287 . S
C705 C704 1.287 . S
C705 C706 1.524 1_565 S
C705 H724 0.913 . S
C706 H682 0.950 . S
C706 C705 1.524 1_545 S
C706 C707 1.415 . S
C707 H683 0.950 . S
C707 C702 1.363 1_545 S
C707 C706 1.415 . S
C708 H684 0.951 . S
C708 C709 1.366 1_565 S
C708 C710 1.388 . S
C709 C708 1.366 1_545 S
C709 C713 1.385 . S
C710 H685 0.951 . S
C710 C708 1.388 . S
C710 C711 1.366 1_565 S
C711 C710 1.366 1_545 S
C711 C712 1.414 . S
C711 C714 1.499 . S
C712 H686 0.950 . S
C712 C711 1.414 . S
C712 C713 1.374 . S
C713 H687 0.950 . S
C713 C709 1.385 . S
C713 C712 1.374 . S
C714 C711 1.499 . S
C714 C715 1.370 . S
C714 C716 1.389 . S
C715 H688 0.951 . S
C715 C701 1.379 1_545 S
C715 C714 1.370 . S
C716 C700 1.377 1_545 S
C716 C714 1.389 . S
C716 C717 1.524 . S
C717 C716 1.524 . S
C717 C718 1.397 . S
C717 C722 1.363 1_545 S
C718 H689 0.950 . S
C718 C717 1.397 . S
C718 C719 1.334 . S
C719 H690 0.950 . S
C719 C718 1.334 . S
C719 C720 1.287 . S
C720 C719 1.287 . S
C720 C721 1.524 1_545 S
C720 H723 0.999 . S
C721 H691 0.950 . S
C721 C720 1.524 1_565 S
C721 C722 1.415 . S
C722 H692 0.950 . S
C722 C717 1.363 1_565 S
C722 C721 1.415 . S
H723 C720 0.999 . S
H724 C705 0.913 . S
H725 C743 0.951 . S
H726 C745 0.951 . S
H727 C747 0.950 . S
H728 C748 0.945 1_554 S
H729 C750 0.950 . S
H730 C753 0.950 . S
H731 C754 0.950 . S
H732 C756 0.950 . S
H733 C757 0.950 1_556 S
H734 C758 0.951 . S
H735 C760 0.951 . S
H736 C762 0.950 . S
H737 C763 0.950 . S
H738 C765 0.950 . S
H739 C768 0.950 . S
H740 C769 0.950 . S
H741 C771 0.950 . S
H742 C772 0.950 . S
C743 H725 0.951 . S
C743 C744 1.366 . S
C743 C745 1.388 1_554 S
C744 C743 1.366 . S
C744 C748 1.374 1_554 S
C745 H726 0.951 . S
C745 C743 1.388 1_556 S
C745 C746 1.366 . S
C746 C745 1.366 . S
C746 C747 1.414 . S
C746 C749 1.499 . S
C747 H727 0.950 . S
C747 C746 1.414 . S
C747 C748 1.390 . S
C748 H728 0.945 1_556 S
C748 C744 1.374 1_556 S
C748 C747 1.390 . S
C749 C746 1.499 . S
C749 C750 1.373 . S
C749 C751 1.389 . S
C750 H729 0.950 . S
C750 C749 1.373 . S
C750 C766 1.377 . S
C751 C749 1.389 . S
C751 C752 1.506 1_556 S
C751 C765 1.377 . S
C752 C751 1.506 1_554 S
C752 C753 1.413 . S
C752 C757 1.365 . S
C753 H730 0.950 . S
C753 C752 1.413 . S
C753 C754 1.334 . S
C754 H731 0.950 . S
C754 C753 1.334 . S
C754 C755 1.287 . S
C755 C754 1.287 . S
C755 C756 1.524 . S
C755 H774 0.913 . S
C756 H732 0.950 . S
C756 C755 1.524 . S
C756 C757 1.415 . S
C757 H733 0.950 1_554 S
C757 C752 1.365 . S
C757 C756 1.415 . S
C758 H734 0.951 . S
C758 C759 1.366 . S
C758 C760 1.388 . S
C759 C758 1.366 . S
C759 C763 1.385 . S
C760 H735 0.951 . S
C760 C758 1.388 . S
C760 C761 1.366 . S
C761 C760 1.366 . S
C761 C762 1.414 . S
C761 C764 1.499 . S
C762 H736 0.950 . S
C762 C761 1.414 . S
C762 C763 1.374 . S
C763 H737 0.950 . S
C763 C759 1.385 . S
C763 C762 1.374 . S
C764 C761 1.499 . S
C764 C765 1.373 . S
C764 C766 1.389 . S
C765 H738 0.950 . S
C765 C751 1.377 . S
C765 C764 1.373 . S
C766 C750 1.377 . S
C766 C764 1.389 . S
C766 C767 1.524 . S
C767 C766 1.524 . S
C767 C768 1.397 . S
C767 C772 1.363 . S
C768 H739 0.950 . S
C768 C767 1.397 . S
C768 C769 1.334 . S
C769 H740 0.950 . S
C769 C768 1.334 . S
C769 C770 1.287 . S
C770 C769 1.287 . S
C770 C771 1.524 . S
C770 H773 0.999 . S
C771 H741 0.950 . S
C771 C770 1.524 . S
C771 C772 1.415 . S
C772 H742 0.950 . S
C772 C767 1.363 . S
C772 C771 1.415 . S
H773 C770 0.999 . S
H774 C755 0.913 . S
H775 C793 0.951 . S
H776 C795 0.951 . S
H777 C797 0.950 1_655 S
H778 C798 0.950 . S
H779 C800 0.950 . S
H780 C803 0.950 . S
H781 C804 0.950 . S
H782 C806 0.950 . S
H783 C807 0.950 . S
H784 C808 0.951 . S
H785 C810 0.951 . S
H786 C812 0.950 . S
H787 C813 0.950 . S
H788 C815 0.950 . S
H789 C818 0.950 . S
H790 C819 0.950 . S
H791 C821 0.950 . S
H792 C822 0.950 . S
C793 H775 0.951 . S
C793 C794 1.366 . S
C793 C795 1.388 . S
C794 C793 1.366 . S
C794 C798 1.385 . S
C795 H776 0.951 . S
C795 C793 1.388 . S
C795 C796 1.366 . S
C796 C795 1.366 . S
C796 C797 1.414 . S
C796 C799 1.499 . S
C797 H777 0.950 1_455 S
C797 C796 1.414 . S
C797 C798 1.374 . S
C798 H778 0.950 . S
C798 C794 1.385 . S
C798 C797 1.374 . S
C799 C796 1.499 . S
C799 C800 1.373 1_455 S
C799 C801 1.389 . S
C800 H779 0.950 . S
C800 C799 1.373 1_655 S
C800 C816 1.377 . S
C801 C799 1.389 . S
C801 C802 1.524 . S
C801 C815 1.377 . S
C802 C801 1.524 . S
C802 C803 1.397 . S
C802 C807 1.363 . S
C803 H780 0.950 . S
C803 C802 1.397 . S
C803 C804 1.334 . S
C804 H781 0.950 . S
C804 C803 1.334 . S
C804 C805 1.287 . S
C805 C804 1.287 . S
C805 C806 1.524 . S
C805 H824 0.913 . S
C806 H782 0.950 . S
C806 C805 1.524 . S
C806 C807 1.415 . S
C807 H783 0.950 . S
C807 C802 1.363 . S
C807 C806 1.415 . S
C808 H784 0.951 . S
C808 C809 1.366 1_655 S
C808 C810 1.388 . S
C809 C808 1.366 1_455 S
C809 C813 1.385 . S
C810 H785 0.951 . S
C810 C808 1.388 . S
C810 C811 1.366 1_655 S
C811 C810 1.366 1_455 S
C811 C812 1.414 . S
C811 C814 1.499 . S
C812 H786 0.950 . S
C812 C811 1.414 . S
C812 C813 1.374 . S
C813 H787 0.950 . S
C813 C809 1.385 . S
C813 C812 1.374 . S
C814 C811 1.499 . S
C814 C815 1.373 . S
C814 C816 1.389 1_455 S
C815 H788 0.950 . S
C815 C801 1.377 . S
C815 C814 1.373 . S
C816 C800 1.377 . S
C816 C814 1.389 1_655 S
C816 C817 1.524 . S
C817 C816 1.524 . S
C817 C818 1.397 . S
C817 C822 1.363 . S
C818 H789 0.950 . S
C818 C817 1.397 . S
C818 C819 1.334 . S
C819 H790 0.950 . S
C819 C818 1.334 . S
C819 C820 1.287 . S
C820 C819 1.287 . S
C820 C821 1.524 . S
C820 H823 0.999 . S
C821 H791 0.950 . S
C821 C820 1.524 . S
C821 C822 1.415 . S
C822 H792 0.950 . S
C822 C817 1.363 . S
C822 C821 1.415 . S
H823 C820 0.999 . S
H824 C805 0.913 . S
C259 C92 1.215 . S
C244 C10 1.227 . S
C294 C21 1.268 . S
C309 C136 1.284 . S
C344 C31 1.236 . S
C359 C198 1.284 . S
C394 C0 1.221 . S
C409 C74 1.248 . S
C459 C154 1.281 . S
C444 C18 1.242 . S
C494 C34 1.244 . S
C509 C216 1.260 . S
C559 C130 1.464 . S
C544 C36 1.563 . S
C594 C8 1.614 . S
C609 C192 1.535 . S
C659 C68 1.502 . S
C644 C23 1.600 . S
C709 C148 1.473 . S
C694 C26 1.541 . S
C759 C210 1.562 . S
C744 C5 1.577 . S
C794 C13 1.592 . S
C809 C86 1.531 . S
