# Generated by pormake.
# Topology pyr, (3,6)-cn, num edge types: 1
# Building blocks:
#     Node 0, Type 0, BuildingBlock: KAKCAD_clean_linker_0, # of connection points: 3
#     Node 1, Type 0, BuildingBlock: KAKCAD_clean_linker_0, # of connection points: 3
#     Node 2, Type 0, BuildingBlock: KAKCAD_clean_linker_0, # of connection points: 3
#     Node 3, Type 0, BuildingBlock: KAKCAD_clean_linker_0, # of connection points: 3
#     Node 4, Type 0, BuildingBlock: KAKCAD_clean_linker_0, # of connection points: 3
#     Node 5, Type 0, BuildingBlock: KAKCAD_clean_linker_0, # of connection points: 3
#     Node 6, Type 0, BuildingBlock: KAKCAD_clean_linker_0, # of connection points: 3
#     Node 7, Type 0, BuildingBlock: KAKCAD_clean_linker_0, # of connection points: 3
#     Node 8, Type 1, BuildingBlock: INOVEN_clean_sbu_0, # of connection points: 6
#     Node 9, Type 1, BuildingBlock: INOVEN_clean_sbu_0, # of connection points: 6
#     Node 10, Type 1, BuildingBlock: INOVEN_clean_sbu_0, # of connection points: 6
#     Node 11, Type 1, BuildingBlock: INOVEN_clean_sbu_0, # of connection points: 6
#     Edge 12, Type (0, 1), BuildingBlock: ZUJKAS_clean_linker_0, # of connection points: 2
#     Edge 13, Type (0, 1), BuildingBlock: ZUJKAS_clean_linker_0, # of connection points: 2
#     Edge 14, Type (0, 1), BuildingBlock: ZUJKAS_clean_linker_0, # of connection points: 2
#     Edge 15, Type (0, 1), BuildingBlock: ZUJKAS_clean_linker_0, # of connection points: 2
#     Edge 16, Type (0, 1), BuildingBlock: ZUJKAS_clean_linker_0, # of connection points: 2
#     Edge 17, Type (0, 1), BuildingBlock: ZUJKAS_clean_linker_0, # of connection points: 2
#     Edge 18, Type (0, 1), BuildingBlock: ZUJKAS_clean_linker_0, # of connection points: 2
#     Edge 19, Type (0, 1), BuildingBlock: ZUJKAS_clean_linker_0, # of connection points: 2
#     Edge 20, Type (0, 1), BuildingBlock: ZUJKAS_clean_linker_0, # of connection points: 2
#     Edge 21, Type (0, 1), BuildingBlock: ZUJKAS_clean_linker_0, # of connection points: 2
#     Edge 22, Type (0, 1), BuildingBlock: ZUJKAS_clean_linker_0, # of connection points: 2
#     Edge 23, Type (0, 1), BuildingBlock: ZUJKAS_clean_linker_0, # of connection points: 2
#     Edge 24, Type (0, 1), BuildingBlock: ZUJKAS_clean_linker_0, # of connection points: 2
#     Edge 25, Type (0, 1), BuildingBlock: ZUJKAS_clean_linker_0, # of connection points: 2
#     Edge 26, Type (0, 1), BuildingBlock: ZUJKAS_clean_linker_0, # of connection points: 2
#     Edge 27, Type (0, 1), BuildingBlock: ZUJKAS_clean_linker_0, # of connection points: 2
#     Edge 28, Type (0, 1), BuildingBlock: ZUJKAS_clean_linker_0, # of connection points: 2
#     Edge 29, Type (0, 1), BuildingBlock: ZUJKAS_clean_linker_0, # of connection points: 2
#     Edge 30, Type (0, 1), BuildingBlock: ZUJKAS_clean_linker_0, # of connection points: 2
#     Edge 31, Type (0, 1), BuildingBlock: ZUJKAS_clean_linker_0, # of connection points: 2
#     Edge 32, Type (0, 1), BuildingBlock: ZUJKAS_clean_linker_0, # of connection points: 2
#     Edge 33, Type (0, 1), BuildingBlock: ZUJKAS_clean_linker_0, # of connection points: 2
#     Edge 34, Type (0, 1), BuildingBlock: ZUJKAS_clean_linker_0, # of connection points: 2
#     Edge 35, Type (0, 1), BuildingBlock: ZUJKAS_clean_linker_0, # of connection points: 2
# Relax obj value: 0.071
# Max RMSD: 0.119
# Mean RMSD: 0.055
data_MOF--net-pyr--node1-INOVEN_clean_sbu_0--node2-KAKCAD_clean_linker_0--edge1-ZUJKAS_clean_linker_0
_symmetry_space_group_name_H-M    P1
_symmetry_Int_Tables_number       1
_symmetry_cell_setting            triclinic
loop_
_symmetry_equiv_pos_as_xyz
'x, y, z'
_cell_length_a     57.806298
_cell_length_b     60.155652
_cell_length_c     54.162682
_cell_angle_alpha  90.831232
_cell_angle_beta   88.565466
_cell_angle_gamma 99.418144
loop_
_atom_site_label
_atom_site_type_symbol
_atom_site_fract_x
_atom_site_fract_y
_atom_site_fract_z
_atom_type_partial_charge
C0 C 0.26391 0.25516 0.29868 0.0
C1 C 0.2764 0.24627 0.31701 0.0
C2 C 0.27543 0.265 0.2777 0.0
C3 C 0.29986 0.26645 0.27451 0.0
C4 C 0.31253 0.2582 0.29325 0.0
C5 C 0.30088 0.24809 0.31425 0.0
C6 C 0.31139 0.27486 0.25076 0.0
C7 C 0.30309 0.29198 0.23796 0.0
C8 C 0.31008 0.29692 0.21333 0.0
C9 C 0.32719 0.28569 0.20213 0.0
C10 C 0.33672 0.26939 0.21517 0.0
C11 C 0.32862 0.26401 0.23938 0.0
C12 C 0.35353 0.25632 0.20301 0.0
C13 C 0.34891 0.24639 0.17965 0.0
C14 C 0.37339 0.25226 0.21553 0.0
C15 C 0.38797 0.23803 0.20523 0.0
C16 C 0.38288 0.22734 0.18227 0.0
C17 C 0.29779 0.31224 0.19899 0.0
C18 C 0.2735 0.3116 0.20267 0.0
C19 C 0.30976 0.32724 0.18145 0.0
C20 C 0.29771 0.34147 0.16823 0.0
C21 C 0.27356 0.34108 0.17251 0.0
C22 C 0.26162 0.32592 0.18976 0.0
C23 C 0.36337 0.23199 0.16943 0.0
H24 H 0.24498 0.25356 0.29994 0.0
H25 H 0.26492 0.27053 0.26346 0.0
H26 H 0.33137 0.25923 0.29153 0.0
H27 H 0.31095 0.24144 0.32816 0.0
H28 H 0.29042 0.301 0.24698 0.0
H29 H 0.33471 0.25031 0.24871 0.0
H30 H 0.33259 0.2891 0.18307 0.0
H31 H 0.33354 0.24898 0.16974 0.0
H32 H 0.37747 0.25988 0.23347 0.0
H33 H 0.4031 0.23522 0.21541 0.0
H34 H 0.26348 0.29978 0.21535 0.0
H35 H 0.32845 0.32821 0.17818 0.0
H36 H 0.35869 0.22384 0.15189 0.0
H37 H 0.2429 0.32486 0.193 0.0
H38 H 0.3073 0.35301 0.15497 0.0
C39 C 0.31855 0.84883 0.71711 0.0
C40 C 0.34264 0.85741 0.7183 0.0
C41 C 0.30736 0.84662 0.69445 0.0
C42 C 0.32007 0.85273 0.67248 0.0
C43 C 0.34427 0.86059 0.67352 0.0
C44 C 0.35544 0.86299 0.6962 0.0
C45 C 0.30794 0.85162 0.64863 0.0
C46 C 0.28702 0.86038 0.64673 0.0
C47 C 0.2756 0.85987 0.62411 0.0
C48 C 0.28521 0.85021 0.60327 0.0
C49 C 0.30616 0.84142 0.60487 0.0
C50 C 0.31744 0.84224 0.62763 0.0
C51 C 0.31604 0.83069 0.58312 0.0
C52 C 0.30155 0.81516 0.5683 0.0
C53 C 0.34032 0.83464 0.57818 0.0
C54 C 0.35011 0.82215 0.56 0.0
C55 C 0.33582 0.80545 0.54635 0.0
C56 C 0.25417 0.87024 0.62215 0.0
C57 C 0.23674 0.86742 0.64095 0.0
C58 C 0.25144 0.8838 0.60188 0.0
C59 C 0.23196 0.89465 0.60065 0.0
C60 C 0.21479 0.89225 0.6197 0.0
C61 C 0.21724 0.8783 0.63973 0.0
C62 C 0.31136 0.80264 0.55008 0.0
H63 H 0.30826 0.84396 0.73372 0.0
H64 H 0.28874 0.84018 0.6941 0.0
H65 H 0.35443 0.86561 0.65685 0.0
H66 H 0.37393 0.86996 0.69645 0.0
H67 H 0.28009 0.86832 0.66275 0.0
H68 H 0.33333 0.83503 0.6292 0.0
H69 H 0.27644 0.84961 0.58576 0.0
H70 H 0.28276 0.81177 0.57168 0.0
H71 H 0.35186 0.8468 0.58904 0.0
H72 H 0.36903 0.82462 0.5578 0.0
H73 H 0.23824 0.85686 0.65667 0.0
H74 H 0.26465 0.88648 0.58721 0.0
H75 H 0.29989 0.79004 0.53967 0.0
H76 H 0.20435 0.8762 0.65473 0.0
H77 H 0.23038 0.90499 0.58477 0.0
C78 C 0.73601 0.41445 0.89172 0.0
C79 C 0.75431 0.40244 0.89681 0.0
C80 C 0.71537 0.40373 0.88068 0.0
C81 C 0.71232 0.38063 0.87461 0.0
C82 C 0.73061 0.36864 0.87953 0.0
C83 C 0.75132 0.37938 0.89036 0.0
C84 C 0.69006 0.36895 0.86353 0.0
C85 C 0.67942 0.37894 0.84442 0.0
C86 C 0.65857 0.36791 0.83371 0.0
C87 C 0.64831 0.34651 0.84267 0.0
C88 C 0.65858 0.33619 0.86192 0.0
C89 C 0.67945 0.34765 0.87212 0.0
C90 C 0.6476 0.31358 0.8717 0.0
C91 C 0.62311 0.3078 0.87494 0.0
C92 C 0.66167 0.29777 0.87862 0.0
C93 C 0.65165 0.27708 0.88893 0.0
C94 C 0.62721 0.27145 0.89258 0.0
C95 C 0.64775 0.37871 0.81304 0.0
C96 C 0.64724 0.40204 0.81333 0.0
C97 C 0.6382 0.36593 0.79264 0.0
C98 C 0.62865 0.3762 0.77304 0.0
C99 C 0.62826 0.39957 0.77328 0.0
C100 C 0.63764 0.4123 0.79379 0.0
C101 C 0.61306 0.28703 0.8852 0.0
H102 H 0.73738 0.4321 0.8967 0.0
H103 H 0.70155 0.41343 0.8774 0.0
H104 H 0.72903 0.35092 0.87475 0.0
H105 H 0.76509 0.36958 0.8934 0.0
H106 H 0.68782 0.3951 0.83736 0.0
H107 H 0.6872 0.34024 0.88734 0.0
H108 H 0.63229 0.33787 0.83464 0.0
H109 H 0.61168 0.31958 0.87016 0.0
H110 H 0.68054 0.30133 0.87598 0.0
H111 H 0.66311 0.26539 0.89387 0.0
H112 H 0.65417 0.41245 0.82878 0.0
H113 H 0.63845 0.34798 0.79157 0.0
H114 H 0.59421 0.28344 0.88794 0.0
H115 H 0.63791 0.43033 0.79462 0.0
H116 H 0.62139 0.36575 0.75776 0.0
C117 C 0.86508 0.64915 0.27327 0.0
C118 C 0.88916 0.64783 0.27262 0.0
C119 C 0.855 0.65935 0.29332 0.0
C120 C 0.86878 0.66873 0.31311 0.0
C121 C 0.89291 0.66767 0.31233 0.0
C122 C 0.90295 0.65721 0.2924 0.0
C123 C 0.85789 0.67932 0.33458 0.0
C124 C 0.83661 0.66854 0.34527 0.0
C125 C 0.82601 0.67828 0.36547 0.0
C126 C 0.83686 0.69931 0.37469 0.0
C127 C 0.85809 0.71048 0.36429 0.0
C128 C 0.8686 0.70021 0.34438 0.0
C129 C 0.86902 0.73294 0.37422 0.0
C130 C 0.8551 0.74944 0.3803 0.0
C131 C 0.89329 0.73795 0.37819 0.0
C132 C 0.90329 0.75877 0.38839 0.0
C133 C 0.8893 0.7752 0.39466 0.0
C134 C 0.80367 0.66654 0.37705 0.0
C135 C 0.78547 0.65529 0.36246 0.0
C136 C 0.80028 0.66666 0.40287 0.0
C137 C 0.77919 0.65613 0.41378 0.0
C138 C 0.76089 0.64511 0.3992 0.0
C139 C 0.76437 0.6447 0.37339 0.0
C140 C 0.8651 0.77028 0.39033 0.0
H141 H 0.85393 0.64195 0.25844 0.0
H142 H 0.8364 0.66005 0.29326 0.0
H143 H 0.90398 0.6746 0.32734 0.0
H144 H 0.92158 0.65663 0.29238 0.0
H145 H 0.82862 0.65219 0.33824 0.0
H146 H 0.88476 0.70881 0.33598 0.0
H147 H 0.82873 0.70707 0.39007 0.0
H148 H 0.8364 0.74628 0.37724 0.0
H149 H 0.9045 0.72559 0.37386 0.0
H150 H 0.92202 0.76206 0.39124 0.0
H151 H 0.78733 0.65507 0.34252 0.0
H152 H 0.81404 0.67475 0.41474 0.0
H153 H 0.85375 0.78241 0.39512 0.0
H154 H 0.75057 0.63663 0.36156 0.0
H155 H 0.77732 0.65644 0.43372 0.0
C156 C 0.74314 0.77454 0.73858 0.0
C157 C 0.74959 0.79722 0.73184 0.0
C158 C 0.72982 0.76884 0.76017 0.0
C159 C 0.72287 0.78574 0.77556 0.0
C160 C 0.72818 0.80829 0.76797 0.0
C161 C 0.74131 0.81394 0.74636 0.0
C162 C 0.71274 0.78043 0.80074 0.0
C163 C 0.72189 0.76508 0.81545 0.0
C164 C 0.71546 0.76256 0.84053 0.0
C165 C 0.69958 0.77558 0.85102 0.0
C166 C 0.68987 0.79079 0.83649 0.0
C167 C 0.6962 0.79267 0.81126 0.0
C168 C 0.67443 0.80589 0.84782 0.0
C169 C 0.65753 0.79809 0.8662 0.0
C170 C 0.6768 0.8285 0.84046 0.0
C171 C 0.66251 0.84286 0.85093 0.0
C172 C 0.64561 0.83508 0.86923 0.0
C173 C 0.72738 0.74788 0.85588 0.0
C174 C 0.72939 0.72601 0.8477 0.0
C175 C 0.73902 0.75646 0.87729 0.0
C176 C 0.75346 0.74386 0.88949 0.0
C177 C 0.7564 0.72235 0.88062 0.0
C178 C 0.74362 0.71334 0.86001 0.0
C179 C 0.64332 0.81257 0.87686 0.0
H180 H 0.74904 0.76127 0.72759 0.0
H181 H 0.72568 0.75127 0.76526 0.0
H182 H 0.7235 0.82181 0.77949 0.0
H183 H 0.74627 0.83161 0.74195 0.0
H184 H 0.73531 0.75614 0.80786 0.0
H185 H 0.68865 0.80413 0.79982 0.0
H186 H 0.69536 0.77428 0.87061 0.0
H187 H 0.6551 0.78074 0.87217 0.0
H188 H 0.69002 0.83531 0.82685 0.0
H189 H 0.66502 0.86024 0.84503 0.0
H190 H 0.72042 0.71895 0.83134 0.0
H191 H 0.73798 0.77338 0.88381 0.0
H192 H 0.63034 0.80608 0.89084 0.0
H193 H 0.74499 0.69664 0.85302 0.0
H194 H 0.76319 0.75147 0.90514 0.0
C195 C 0.69469 0.19173 0.35057 0.0
C196 C 0.68408 0.208 0.33875 0.0
C197 C 0.71041 0.19792 0.36952 0.0
C198 C 0.71617 0.22057 0.377 0.0
C199 C 0.70526 0.23683 0.36554 0.0
C200 C 0.68936 0.2306 0.34665 0.0
C201 C 0.73374 0.22713 0.39645 0.0
C202 C 0.7538 0.2168 0.39729 0.0
C203 C 0.77005 0.22211 0.41614 0.0
C204 C 0.76641 0.23831 0.43409 0.0
C205 C 0.74658 0.24895 0.43345 0.0
C206 C 0.73033 0.24327 0.41458 0.0
C207 C 0.74229 0.26544 0.45291 0.0
C208 C 0.74486 0.26087 0.47799 0.0
C209 C 0.73455 0.28547 0.44651 0.0
C210 C 0.72872 0.30025 0.46478 0.0
C211 C 0.73049 0.29537 0.48992 0.0
C212 C 0.79009 0.20979 0.41787 0.0
C213 C 0.78645 0.18621 0.41538 0.0
C214 C 0.81266 0.22127 0.42302 0.0
C215 C 0.83114 0.2093 0.42619 0.0
C216 C 0.82725 0.18567 0.42453 0.0
C217 C 0.80483 0.17427 0.41874 0.0
C218 C 0.73894 0.27567 0.49635 0.0
H219 H 0.69135 0.17422 0.34478 0.0
H220 H 0.71815 0.1849 0.37825 0.0
H221 H 0.70939 0.25445 0.37078 0.0
H222 H 0.68131 0.24353 0.33814 0.0
H223 H 0.75691 0.20463 0.38315 0.0
H224 H 0.71457 0.25086 0.41454 0.0
H225 H 0.77881 0.24236 0.44882 0.0
H226 H 0.75066 0.24546 0.48346 0.0
H227 H 0.73263 0.28952 0.42732 0.0
H228 H 0.72189 0.31508 0.45917 0.0
H229 H 0.76919 0.17692 0.41162 0.0
H230 H 0.81595 0.23946 0.42483 0.0
H231 H 0.74055 0.2715 0.51555 0.0
H232 H 0.80143 0.15606 0.41718 0.0
H233 H 0.84825 0.21845 0.43079 0.0
C234 C 0.2762 0.65268 0.18772 0.0
C235 C 0.27378 0.65214 0.16189 0.0
C236 C 0.29699 0.66338 0.1985 0.0
C237 C 0.31592 0.67393 0.18376 0.0
C238 C 0.31355 0.67324 0.15794 0.0
C239 C 0.29282 0.66251 0.14718 0.0
C240 C 0.33794 0.68589 0.19517 0.0
C241 C 0.34769 0.67675 0.21553 0.0
C242 C 0.36857 0.68781 0.22613 0.0
C243 C 0.37968 0.70846 0.21604 0.0
C244 C 0.3702 0.71802 0.19573 0.0
C245 C 0.34932 0.70655 0.18557 0.0
C246 C 0.38179 0.74002 0.18501 0.0
C247 C 0.39114 0.75826 0.20027 0.0
C248 C 0.38288 0.74317 0.15927 0.0
C249 C 0.39259 0.76401 0.14911 0.0
C250 C 0.40151 0.78242 0.16434 0.0
C251 C 0.3788 0.67755 0.24754 0.0
C252 C 0.36429 0.6676 0.267 0.0
C253 C 0.40306 0.67721 0.24853 0.0
C254 C 0.41246 0.66694 0.26823 0.0
C255 C 0.39792 0.6569 0.28764 0.0
C256 C 0.37371 0.65751 0.28678 0.0
C257 C 0.40085 0.77917 0.19009 0.0
H258 H 0.26205 0.64469 0.19967 0.0
H259 H 0.29806 0.66369 0.21844 0.0
H260 H 0.32782 0.68092 0.14595 0.0
H261 H 0.2916 0.66268 0.12727 0.0
H262 H 0.33935 0.66062 0.2227 0.0
H263 H 0.34153 0.71406 0.17045 0.0
H264 H 0.39574 0.7171 0.224 0.0
H265 H 0.3904 0.75659 0.22017 0.0
H266 H 0.3763 0.72943 0.14686 0.0
H267 H 0.39323 0.7656 0.1292 0.0
H268 H 0.34557 0.6677 0.26702 0.0
H269 H 0.41477 0.68452 0.23382 0.0
H270 H 0.4073 0.79295 0.20248 0.0
H271 H 0.3619 0.64982 0.30123 0.0
H272 H 0.43121 0.667 0.26833 0.0
C273 C 0.15069 0.28643 0.67431 0.0
C274 C 0.1265 0.28128 0.66991 0.0
C275 C 0.16047 0.3073 0.6844 0.0
C276 C 0.14637 0.32364 0.69049 0.0
C277 C 0.12211 0.31838 0.68659 0.0
C278 C 0.11231 0.29749 0.67639 0.0
C279 C 0.15715 0.34622 0.70025 0.0
C280 C 0.1784 0.35733 0.68987 0.0
C281 C 0.18917 0.37844 0.6989 0.0
C282 C 0.17834 0.38848 0.71873 0.0
C283 C 0.15701 0.37776 0.72941 0.0
C284 C 0.14647 0.35669 0.7199 0.0
C285 C 0.14595 0.38851 0.75069 0.0
C286 C 0.15962 0.39846 0.7703 0.0
C287 C 0.1217 0.38905 0.7515 0.0
C288 C 0.11144 0.3995 0.77128 0.0
C289 C 0.12512 0.40947 0.79089 0.0
C290 C 0.21168 0.38991 0.68747 0.0
C291 C 0.22951 0.37752 0.68064 0.0
C292 C 0.21539 0.4132 0.68286 0.0
C293 C 0.23627 0.42374 0.67142 0.0
C294 C 0.25401 0.41129 0.66442 0.0
C295 C 0.25037 0.38805 0.66929 0.0
C296 C 0.14933 0.40872 0.79018 0.0
H297 H 0.16213 0.27425 0.6701 0.0
H298 H 0.17915 0.31059 0.68758 0.0
H299 H 0.11076 0.33065 0.69083 0.0
H300 H 0.09366 0.29428 0.67304 0.0
H301 H 0.18632 0.34973 0.67423 0.0
H302 H 0.13032 0.3481 0.72832 0.0
H303 H 0.18655 0.4047 0.7259 0.0
H304 H 0.1783 0.39816 0.77039 0.0
H305 H 0.11069 0.38167 0.73663 0.0
H306 H 0.09272 0.39961 0.77133 0.0
H307 H 0.22738 0.35961 0.68415 0.0
H308 H 0.20198 0.42324 0.68767 0.0
H309 H 0.16043 0.41637 0.80485 0.0
H310 H 0.2635 0.37785 0.66393 0.0
H311 H 0.23854 0.4417 0.6682 0.0
Gd312 Gd 0.02215 0.03559 0.50846 0.0
Gd313 Gd 0.99537 1.02165 0.55651 0.0
C314 C 0.03036 0.06845 0.55557 0.0
C315 C 0.03823 0.04906 0.4655 0.0
C316 C 0.05925 0.06412 0.45642 0.0
C317 C 0.081 0.06488 0.46772 0.0
C318 C 0.05731 0.07878 0.43701 0.0
C319 C 0.09855 0.095 0.44033 0.0
C320 C 0.07676 0.09413 0.42905 0.0
C321 C 0.10053 0.08009 0.45961 0.0
C322 C 0.0469 1.01817 0.54272 0.0
C323 C 0.98654 0.98796 0.50902 0.0
C324 C 0.97608 1.00328 0.59637 0.0
C325 C 0.96408 0.98135 0.60505 0.0
C326 C 0.95264 0.98023 0.62816 0.0
C327 C 0.96151 0.96226 0.58955 0.0
C328 C 0.93398 0.9418 0.61926 0.0
C329 C 0.94653 0.94256 0.59661 0.0
C330 C 0.9378 0.9606 0.63527 0.0
C331 C 0.97799 0.05209 0.52942 0.0
O332 O 0.0286 0.0676 0.53124 0.0
O333 O 0.02228 0.05073 0.56934 0.0
O334 O 0.04157 0.02993 0.47497 0.0
O335 O 0.02314 0.05892 0.47826 0.0
O336 O 0.05585 0.0344 0.52819 0.0
O337 O 0.02585 1.01129 0.5376 0.0
O338 O 0.98234 0.99119 0.53283 0.0
O339 O 1.00045 1.00309 0.49563 0.0
O340 O 0.96473 1.01276 0.57997 0.0
O341 O 0.99867 1.00541 0.5915 0.0
O342 O 0.97845 0.05271 0.55332 0.0
O343 O 0.98588 0.03514 0.52116 0.0
H344 H 0.08283 0.05391 0.48299 0.0
H345 H 0.04065 0.07852 0.42817 0.0
H346 H 0.0748 0.10526 0.41397 0.0
H347 H 0.11705 0.08055 0.46877 0.0
H348 H 0.95447 0.99484 0.64033 0.0
H349 H 0.97034 0.9629 0.57167 0.0
H350 H 0.94395 0.92837 0.58388 0.0
H351 H 0.9288 0.96036 0.65307 0.0
Gd352 Gd 0.53577 0.03336 0.0417 0.0
Gd353 Gd 0.48967 1.02285 1.01813 0.0
C354 C 0.49152 0.05504 0.06439 0.0
C355 C 0.57364 0.05243 0.06275 0.0
C356 C 0.57889 0.06862 0.08327 0.0
C357 C 0.59377 0.06389 0.10183 0.0
C358 C 0.56836 0.08807 0.08532 0.0
C359 C 0.58731 0.09759 0.12451 0.0
C360 C 0.57266 0.10251 0.10573 0.0
C361 C 0.5979 0.0782 0.12231 0.0
C362 C 0.51031 0.9935 0.05568 0.0
C363 C 0.53398 1.00133 0.99547 0.0
C364 C 0.45111 1.0042 0.99793 0.0
C365 C 0.44407 0.9865 0.97944 0.0
C366 C 0.42487 0.98797 0.96468 0.0
C367 C 0.45678 0.96871 0.97562 0.0
C368 C 0.43129 0.95423 0.94196 0.0
C369 C 0.45046 0.9527 0.95699 0.0
C370 C 0.41852 0.972 0.9461 0.0
C371 C 0.51526 0.06276 1.00431 0.0
O372 O 0.51453 0.05657 0.06214 0.0
O373 O 0.47732 0.04048 0.05113 0.0
O374 O 0.56241 0.03259 0.06895 0.0
O375 O 0.56588 0.06 0.04254 0.0
O376 O 0.53277 0.99674 0.05144 0.0
O377 O 0.50234 1.01168 0.05308 0.0
O378 O 0.51094 0.99927 0.99828 0.0
O379 O 0.54812 1.01639 1.00824 0.0
O380 O 0.46404 1.02253 0.98958 0.0
O381 O 0.45825 0.99773 1.01898 0.0
O382 O 0.49281 0.0596 1.00863 0.0
O383 O 0.52309 0.04451 1.00674 0.0
H384 H 0.602 0.04895 0.10062 0.0
H385 H 0.55659 0.09197 0.07136 0.0
H386 H 0.56416 0.11727 0.10709 0.0
H387 H 0.60951 0.07418 0.13638 0.0
H388 H 0.415 1.0017 0.96728 0.0
H389 H 0.47167 0.9673 0.9869 0.0
H390 H 0.46053 0.93913 0.95437 0.0
H391 H 0.40395 0.97391 0.93457 0.0
Gd392 Gd 0.51276 0.50501 0.51359 0.0
Gd393 Gd 0.50145 0.54388 0.54937 0.0
C394 C 0.52934 0.50733 0.5717 0.0
C395 C 0.53213 0.47396 0.49252 0.0
C396 C 0.55032 0.46177 0.50141 0.0
C397 C 0.54635 0.43816 0.5009 0.0
C398 C 0.57036 0.47333 0.51299 0.0
C399 C 0.58184 0.43774 0.52397 0.0
C400 C 0.58607 0.4614 0.52402 0.0
C401 C 0.56194 0.42623 0.51214 0.0
C402 C 0.46918 0.49997 0.53402 0.0
C403 C 0.49047 0.54453 0.48979 0.0
C404 C 0.4769 0.56878 0.57399 0.0
C405 C 0.47016 0.59017 0.56691 0.0
C406 C 0.48003 0.60088 0.54538 0.0
C407 C 0.45212 0.59862 0.57974 0.0
C408 C 0.45306 0.62781 0.54882 0.0
C409 C 0.44367 0.61738 0.57082 0.0
C410 C 0.47157 0.61954 0.5364 0.0
C411 C 0.54308 0.55709 0.52487 0.0
O412 O 0.53209 0.50003 0.5487 0.0
O413 O 0.51634 0.52302 0.57715 0.0
O414 O 0.51206 0.46975 0.50464 0.0
O415 O 0.53861 0.4954 0.48769 0.0
O416 O 0.47359 0.49384 0.51151 0.0
O417 O 0.48801 0.50776 0.54462 0.0
O418 O 0.48579 0.55097 0.5127 0.0
O419 O 0.50293 0.52826 0.48504 0.0
O420 O 0.49934 0.56923 0.57776 0.0
O421 O 0.46751 0.55156 0.56044 0.0
O422 O 0.5343 0.56958 0.54118 0.0
O423 O 0.52929 0.53872 0.52329 0.0
H424 H 0.53089 0.42895 0.4923 0.0
H425 H 0.57361 0.49157 0.51409 0.0
H426 H 0.60123 0.47065 0.5331 0.0
H427 H 0.55849 0.40799 0.51146 0.0
H428 H 0.49378 0.59433 0.53504 0.0
H429 H 0.44419 0.59038 0.59626 0.0
H430 H 0.42962 0.62358 0.58099 0.0
H431 H 0.47897 0.62698 0.51927 0.0
Gd432 Gd 0.01516 0.50547 0.04377 0.0
Gd433 Gd 1.00648 0.55367 1.02504 0.0
C434 C 0.05574 0.5502 0.05048 0.0
C435 C 0.03218 0.46959 0.05346 0.0
C436 C 0.05558 0.46341 0.05729 0.0
C437 C 0.06784 0.46963 0.07909 0.0
C438 C 0.06543 0.45029 0.0395 0.0
C439 C 0.09884 0.44889 0.06569 0.0
C440 C 0.08686 0.44318 0.0436 0.0
C441 C 0.08918 0.46243 0.08324 0.0
C442 C 0.98962 0.52888 0.07382 0.0
C443 C 0.96854 0.50795 1.01335 0.0
C444 C 0.98971 0.5908 1.02495 0.0
C445 C 0.97274 0.6013 1.01131 0.0
C446 C 0.9693 0.59734 0.98595 0.0
C447 C 0.95868 0.61449 1.02445 0.0
C448 C 0.93747 0.61937 0.98724 0.0
C449 C 0.94118 0.62342 1.01256 0.0
C450 C 0.95188 0.60646 0.97396 0.0
C451 C 0.02563 0.53035 0.98843 0.0
O452 O 0.05023 0.52787 0.04967 0.0
O453 O 0.04103 0.56368 0.04379 0.0
O454 O 0.02418 0.48224 0.07051 0.0
O455 O 0.02745 0.47501 0.03099 0.0
O456 O 0.98569 0.50703 0.07173 0.0
O457 O 1.00733 0.53691 0.06081 0.0
O458 O 0.97285 0.53029 1.01558 0.0
O459 O 0.98329 0.49483 1.02084 0.0
O460 O 1.00949 0.58838 1.0135 0.0
O461 O 0.98056 0.5733 0.03815 0.0
O462 O 0.01998 0.55017 0.9852 0.0
O463 O 0.02042 0.52488 1.01037 0.0
H464 H 0.06077 0.47967 0.09325 0.0
H465 H 0.05638 0.44525 1.02254 0.0
H466 H 0.09393 0.43303 0.02953 0.0
H467 H 0.09767 0.46687 0.10063 0.0
H468 H 0.97979 0.58694 0.97555 0.0
H469 H 0.96102 0.61762 0.04406 0.0
H470 H 0.93055 0.63352 1.0232 0.0
H471 H 0.94926 0.60294 0.95446 0.0
H472 H 0.24025 0.25796 0.34502 0.0
H473 H 0.21331 0.2334 0.37226 0.0
H474 H 0.25553 0.18098 0.36237 0.0
H475 H 0.28245 0.20538 0.33486 0.0
H476 H 0.19056 0.19116 0.35122 0.0
H477 H 0.23676 0.17937 0.4378 0.0
H478 H 0.24507 0.20367 0.41833 0.0
H479 H 0.25274 0.17699 0.40919 0.0
C480 C 0.24407 0.24138 0.34907 0.0
C481 C 0.26331 0.2335 0.3376 0.0
C482 C 0.22874 0.22742 0.36471 0.0
C483 C 0.23249 0.20544 0.36934 0.0
C484 C 0.25255 0.19803 0.35931 0.0
H485 H 0.14344 0.08774 0.4308 0.0
H486 H 0.17659 0.11482 0.41475 0.0
C487 C 0.26792 0.212 0.34361 0.0
C488 C 0.21368 0.18935 0.3814 0.0
H489 H 0.19978 0.1564 0.43214 0.0
C490 C 0.1925 0.18366 0.369 0.0
C491 C 0.2165 0.17937 0.40434 0.0
C492 C 0.23892 0.18519 0.41837 0.0
C493 C 0.174 0.16812 0.37883 0.0
C494 C 0.17654 0.15846 0.40207 0.0
C495 C 0.19785 0.16396 0.41441 0.0
C496 C 0.15715 0.14262 0.41367 0.0
C497 C 0.15212 0.16181 0.36393 0.0
C498 C 0.13547 0.14946 0.41895 0.0
C499 C 0.11653 0.13404 0.42788 0.0
C500 C 0.11903 0.11156 0.43205 0.0
C501 C 0.14104 0.10497 0.42778 0.0
C502 C 0.15996 0.12039 0.41863 0.0
H503 H 0.15552 0.16565 0.34403 0.0
H504 H 0.14492 0.1436 0.36569 0.0
H505 H 0.13858 0.17164 0.3708 0.0
H506 H 0.1331 0.16668 0.41581 0.0
H507 H 0.0999 0.13968 0.4315 0.0
H508 H 0.32449 0.87399 0.76046 0.0
H509 H 0.34399 0.88344 0.79954 0.0
H510 H 0.40641 0.86117 0.77017 0.0
H511 H 0.38681 0.85099 0.73101 0.0
H512 H 0.36869 0.85417 0.83191 0.0
H513 H 0.42482 0.93003 0.79196 0.0
H514 H 0.39801 0.91701 0.77766 0.0
H515 H 0.42342 0.90346 0.77583 0.0
C516 C 0.34218 0.87059 0.7624 0.0
C517 C 0.35409 0.86174 0.74255 0.0
C518 C 0.35332 0.87612 0.78472 0.0
C519 C 0.37661 0.87309 0.78758 0.0
C520 C 0.38845 0.86375 0.76815 0.0
H521 H 0.46088 0.93721 0.90912 0.0
H522 H 0.45013 0.91321 0.87294 0.0
C523 C 0.37726 0.85808 0.74579 0.0
C524 C 0.38865 0.88091 0.81058 0.0
H525 H 0.42616 0.92507 0.83467 0.0
C526 C 0.38153 0.86948 0.83255 0.0
C527 C 0.40547 0.90077 0.81119 0.0
C528 C 0.41343 0.9137 0.78799 0.0
C529 C 0.39028 0.87787 0.85538 0.0
C530 C 0.40606 0.89848 0.85617 0.0
C531 C 0.41404 0.90928 0.83402 0.0
C532 C 0.41271 0.91036 0.87972 0.0
C533 C 0.3823 0.86471 0.87841 0.0
C534 C 0.39525 0.91655 0.89561 0.0
C535 C 0.40132 0.93007 0.91634 0.0
C536 C 0.42499 0.93793 0.92143 0.0
C537 C 0.44249 0.93121 0.90586 0.0
C538 C 0.43638 0.9176 0.88513 0.0
H539 H 0.37758 0.84642 0.87419 0.0
H540 H 0.39606 0.86709 0.89258 0.0
H541 H 0.3664 0.87057 0.88627 0.0
H542 H 0.37687 0.91163 0.8915 0.0
H543 H 0.38743 0.93475 0.92811 0.0
H544 H 0.63206 0.39073 0.72339 0.0
H545 H 0.61613 0.4092 0.68918 0.0
H546 H 0.58579 0.45191 0.741 0.0
H547 H 0.60156 0.43352 0.77528 0.0
H548 H 0.57088 0.41252 0.67786 0.0
H549 H 0.62092 0.498 0.69396 0.0
H550 H 0.62795 0.47336 0.70879 0.0
H551 H 0.60416 0.48666 0.72054 0.0
C552 C 0.62189 0.40396 0.72758 0.0
C553 C 0.61828 0.41066 0.75224 0.0
C554 C 0.61286 0.41461 0.70793 0.0
C555 C 0.60009 0.4323 0.71236 0.0
C556 C 0.59611 0.43876 0.73695 0.0
H557 H 0.52727 0.51626 0.62164 0.0
H558 H 0.54449 0.4978 0.65497 0.0
C559 C 0.60516 0.42817 0.7566 0.0
C560 C 0.59052 0.44363 0.69134 0.0
H561 H 0.59035 0.49499 0.66493 0.0
C562 C 0.57527 0.43054 0.67496 0.0
C563 C 0.59618 0.46717 0.68743 0.0
C564 C 0.61337 0.48211 0.70345 0.0
C565 C 0.56512 0.44033 0.65528 0.0
C566 C 0.57064 0.46389 0.6515 0.0
C567 C 0.586 0.47697 0.66779 0.0
C568 C 0.56052 0.47533 0.63093 0.0
C569 C 0.54805 0.42537 0.63915 0.0
C570 C 0.56409 0.46923 0.60614 0.0
C571 C 0.5542 0.47974 0.58699 0.0
C572 C 0.54064 0.4968 0.59208 0.0
C573 C 0.53753 0.50321 0.61691 0.0
C574 C 0.54741 0.49265 0.63606 0.0
H575 H 0.54085 0.40924 0.64836 0.0
H576 H 0.53322 0.43393 0.63417 0.0
H577 H 0.55723 0.42128 0.62185 0.0
H578 H 0.57458 0.45634 0.60154 0.0
H579 H 0.5571 0.47435 0.56817 0.0
H580 H 0.91985 0.61768 0.2742 0.0
H581 H 0.93654 0.59857 0.23955 0.0
H582 H 0.89937 0.63342 0.18849 0.0
H583 H 0.88218 0.65218 0.22315 0.0
H584 H 0.89576 0.59057 0.17552 0.0
H585 H 0.98916 0.62277 0.19311 0.0
H586 H 0.97459 0.60826 0.21927 0.0
H587 H 0.96567 0.63386 0.20901 0.0
C588 C 0.91542 0.62145 0.25557 0.0
C589 C 0.89977 0.63655 0.25146 0.0
C590 C 0.92507 0.61056 0.23573 0.0
C591 C 0.91965 0.61484 0.21126 0.0
C592 C 0.90393 0.62985 0.20713 0.0
H593 H 0.99966 0.57404 0.08404 0.0
H594 H 0.98156 0.59533 0.11589 0.0
C595 C 0.89407 0.64055 0.22698 0.0
C596 C 0.9298 0.6032 0.19004 0.0
H597 H 0.98141 0.59221 0.1643 0.0
C598 C 0.91451 0.59106 0.173 0.0
C599 C 0.95429 0.6041 0.18637 0.0
C600 C 0.97188 0.61815 0.20276 0.0
C601 C 0.92294 0.57947 0.15282 0.0
C602 C 0.94736 0.57942 0.14989 0.0
C603 C 0.96268 0.59195 0.16663 0.0
C604 C 0.95746 0.56655 0.12965 0.0
C605 C 0.90555 0.5678 0.13458 0.0
C606 C 0.95005 0.54323 0.12666 0.0
C607 C 0.96011 0.53111 0.10814 0.0
C608 C 0.97807 0.54196 0.09247 0.0
C609 C 0.98562 0.56524 0.09558 0.0
C610 C 0.97538 0.57741 0.11391 0.0
H611 H 0.88923 0.57533 0.13481 0.0
H612 H 0.91309 0.56867 0.11549 0.0
H613 H 0.90065 0.54981 0.13965 0.0
H614 H 0.93677 0.53427 0.13895 0.0
H615 H 0.95411 0.51314 0.1064 0.0
H616 H 0.40177 0.19596 0.20791 0.0
H617 H 0.42377 0.16749 0.19148 0.0
H618 H 0.41685 0.19106 0.11763 0.0
H619 H 0.39593 0.22039 0.134 0.0
H620 H 0.40904 0.13329 0.16097 0.0
H621 H 0.48564 0.18713 0.11771 0.0
H622 H 0.46564 0.19823 0.13883 0.0
H623 H 0.45847 0.19353 0.1068 0.0
C624 C 0.40542 0.1955 0.18822 0.0
C625 C 0.39716 0.21062 0.17231 0.0
C626 C 0.41784 0.17906 0.17884 0.0
C627 C 0.42227 0.17733 0.15336 0.0
C628 C 0.41412 0.19239 0.13741 0.0
H629 H 0.44588 0.06153 0.06823 0.0
H630 H 0.43008 0.09046 0.09219 0.0
C631 C 0.40185 0.20896 0.14679 0.0
C632 C 0.43417 0.15894 0.14334 0.0
H633 H 0.47892 0.14827 0.10499 0.0
C634 C 0.42448 0.13658 0.14895 0.0
C635 C 0.45456 0.16322 0.12801 0.0
C636 C 0.46683 0.18684 0.1227 0.0
C637 C 0.43409 0.11838 0.13893 0.0
C638 C 0.45356 0.12263 0.12234 0.0
C639 C 0.46381 0.145 0.11748 0.0
C640 C 0.46301 0.1042 0.10903 0.0
C641 C 0.4233 0.09478 0.14632 0.0
C642 C 0.48689 0.1025 0.11017 0.0
C643 C 0.49608 0.08609 0.09622 0.0
C644 C 0.48153 0.07111 0.08082 0.0
C645 C 0.45754 0.07263 0.08007 0.0
C646 C 0.44843 0.08911 0.09389 0.0
H647 H 0.41426 0.09468 0.16467 0.0
H648 H 0.41002 0.08777 0.13262 0.0
H649 H 0.43673 0.08356 0.14697 0.0
H650 H 0.49849 0.11404 0.12164 0.0
H651 H 0.51463 0.08541 0.09722 0.0
H652 H 0.16861 0.87674 0.63153 0.0
H653 H 0.13534 0.89696 0.62794 0.0
H654 H 0.18222 0.9555 0.60163 0.0
H655 H 0.21555 0.93578 0.60598 0.0
H656 H 0.1476 0.96542 0.6362 0.0
H657 H 0.10986 0.90866 0.55996 0.0
H658 H 0.11472 0.89544 0.58849 0.0
H659 H 0.13931 0.90907 0.57042 0.0
C660 C 0.17184 0.89403 0.62531 0.0
C661 C 0.19466 0.90459 0.61871 0.0
C662 C 0.15282 0.90547 0.62312 0.0
C663 C 0.15635 0.92758 0.61419 0.0
C664 C 0.17916 0.9384 0.60845 0.0
H665 H 0.09315 0.02928 0.55292 0.0
H666 H 0.117 1.00695 0.57577 0.0
C667 C 0.19814 0.92703 0.61069 0.0
C668 C 0.13637 0.93927 0.60946 0.0
H669 H 0.09152 0.93964 0.56985 0.0
C670 C 0.1351 0.95966 0.62194 0.0
C671 C 0.12008 0.93161 0.59092 0.0
C672 C 0.12102 0.91009 0.5765 0.0
C673 C 0.11846 0.97305 0.61572 0.0
C674 C 0.10299 0.96595 0.5963 0.0
C675 C 0.10344 0.945 0.58474 0.0
C676 C 0.08794 0.98088 0.58579 0.0
C677 C 0.11787 0.99485 0.62964 0.0
C678 C 0.06373 0.97358 0.5838 0.0
C679 C 0.05013 0.98622 0.57057 0.0
C680 C 0.06062 1.00622 0.55896 0.0
C681 C 0.08467 1.01392 0.56172 0.0
C682 C 0.09825 1.00129 0.57495 0.0
H683 H 0.12485 0.99423 0.6485 0.0
H684 H 0.12905 1.00878 0.61965 0.0
H685 H 0.09977 0.99878 0.63115 0.0
H686 H 0.05552 0.95778 0.59186 0.0
H687 H 0.03159 0.97992 0.56868 0.0
H688 H 0.78119 0.3848 0.93049 0.0
H689 H 0.81731 0.40311 0.94965 0.0
H690 H 0.81343 0.46425 0.91068 0.0
H691 H 0.77769 0.44593 0.8907 0.0
H692 H 0.86097 0.42505 0.92395 0.0
H693 H 0.82024 0.48319 0.98573 0.0
H694 H 0.80354 0.45803 0.97246 0.0
H695 H 0.81243 0.48244 0.95374 0.0
C696 C 0.78807 0.40206 0.92568 0.0
C697 C 0.77631 0.41378 0.9089 0.0
C698 C 0.8087 0.41256 0.93684 0.0
C699 C 0.81798 0.43512 0.93181 0.0
C700 C 0.80641 0.44693 0.91514 0.0
H701 H 0.93723 0.52849 0.98828 0.0
H702 H 0.90139 0.51076 0.9681 0.0
C703 C 0.78586 0.4364 0.90379 0.0
C704 C 0.83998 0.44614 0.9437 0.0
H705 H 0.86152 0.48705 0.98543 0.0
C706 C 0.86111 0.43858 0.93743 0.0
C707 C 0.84018 0.46389 0.96114 0.0
C708 C 0.81791 0.47236 0.96889 0.0
C709 C 0.88248 0.44849 0.94786 0.0
C710 C 0.88268 0.46602 0.9657 0.0
C711 C 0.86148 0.47361 0.97186 0.0
C712 C 0.90462 0.47673 0.97815 0.0
C713 C 0.90471 0.44045 0.93907 0.0
C714 C 0.91835 0.46366 0.99096 0.0
C715 C 0.93903 0.47374 1.00235 0.0
C716 C 0.94632 0.49724 1.00161 0.0
C717 C 0.93224 0.51036 0.98927 0.0
C718 C 0.91168 0.50023 0.97769 0.0
H719 H 0.90272 0.43245 0.92046 0.0
H720 H 0.91973 0.45454 0.93833 0.0
H721 H 0.90889 0.42762 0.95203 0.0
H722 H 0.91302 0.4456 0.9923 0.0
H723 H 0.94923 0.46309 1.01188 0.0
H724 H 0.73655 0.66141 0.43758 0.0
H725 H 0.69948 0.64396 0.45693 0.0
H726 H 0.69611 0.58764 0.40629 0.0
H727 H 0.73357 0.60472 0.38718 0.0
H728 H 0.65568 0.63199 0.43444 0.0
H729 H 0.68573 0.55721 0.4742 0.0
H730 H 0.70592 0.58151 0.4636 0.0
H731 H 0.69164 0.56143 0.44172 0.0
C732 C 0.72813 0.64516 0.43074 0.0
C733 C 0.73819 0.63442 0.41089 0.0
C734 C 0.70683 0.63528 0.44173 0.0
C735 C 0.69514 0.61435 0.43329 0.0
C736 C 0.705 0.60361 0.41339 0.0
H737 H 0.56239 0.5346 0.48703 0.0
H738 H 0.59884 0.54754 0.46337 0.0
C739 C 0.7263 0.61353 0.40231 0.0
C740 C 0.67235 0.60421 0.445 0.0
H741 H 0.64547 0.55953 0.47919 0.0
C742 C 0.65344 0.61613 0.44418 0.0
C743 C 0.66938 0.58341 0.45754 0.0
C744 C 0.68925 0.57016 0.45956 0.0
C745 C 0.63172 0.60793 0.45568 0.0
C746 C 0.62893 0.58745 0.46883 0.0
C747 C 0.64764 0.57523 0.46915 0.0
C748 C 0.60711 0.57913 0.48338 0.0
C749 C 0.6119 0.62123 0.45348 0.0
C750 C 0.5999 0.59231 0.50279 0.0
C751 C 0.57921 0.58491 0.51626 0.0
C752 C 0.56533 0.56407 0.51081 0.0
C753 C 0.57276 0.55064 0.49172 0.0
C754 C 0.59355 0.55806 0.47817 0.0
H755 H 0.61446 0.6324 0.43714 0.0
H756 H 0.59476 0.6099 0.45202 0.0
H757 H 0.6112 0.63203 0.47018 0.0
H758 H 0.6103 0.60838 0.50754 0.0
H759 H 0.57403 0.59561 0.53096 0.0
H760 H 0.24324 0.36716 0.19187 0.0
H761 H 0.21716 0.3875 0.16949 0.0
H762 H 0.24747 0.36873 0.10027 0.0
H763 H 0.2739 0.34844 0.12269 0.0
H764 H 0.23755 0.41387 0.10187 0.0
H765 H 0.16147 0.35125 0.13297 0.0
H766 H 0.17883 0.36428 0.15788 0.0
H767 H 0.19139 0.34675 0.13583 0.0
C768 C 0.2445 0.36756 0.17188 0.0
C769 C 0.26034 0.35599 0.15897 0.0
C770 C 0.22959 0.37914 0.15914 0.0
C771 C 0.23004 0.37917 0.13324 0.0
C772 C 0.24678 0.36877 0.12027 0.0
H773 H 0.10853 0.40666 0.05508 0.0
H774 H 0.14234 0.39036 0.06754 0.0
C775 C 0.26188 0.35726 0.13307 0.0
C776 C 0.21204 0.38887 0.1199 0.0
H777 H 0.15282 0.3843 0.11421 0.0
C778 C 0.21901 0.40735 0.10437 0.0
C779 C 0.18792 0.38003 0.12284 0.0
C780 C 0.17941 0.35935 0.13808 0.0
C781 C 0.20237 0.41774 0.09236 0.0
C782 C 0.17819 0.40959 0.09635 0.0
C783 C 0.17134 0.39066 0.11127 0.0
C784 C 0.15949 0.42059 0.08588 0.0
C785 C 0.21086 0.4372 0.07541 0.0
C786 C 0.15803 0.44314 0.0917 0.0
C787 C 0.13884 0.45264 0.08429 0.0
C788 C 0.12053 0.43968 0.07118 0.0
C789 C 0.12241 0.41727 0.0648 0.0
C790 C 0.14167 0.40785 0.07208 0.0
H791 H 0.22899 0.43674 0.06834 0.0
H792 H 0.19916 0.43715 0.05945 0.0
H793 H 0.21104 0.45325 0.08582 0.0
H794 H 0.17129 0.45318 0.10277 0.0
H795 H 0.13812 0.47001 0.08927 0.0
H796 H 0.64362 0.25031 0.9316 0.0
H797 H 0.62663 0.21446 0.95055 0.0
H798 H 0.56952 0.20734 0.89987 0.0
H799 H 0.58668 0.24293 0.8804 0.0
H800 H 0.58305 0.20213 0.97384 0.0
H801 H 0.59233 0.14645 0.89292 0.0
H802 H 0.60756 0.17511 0.89476 0.0
H803 H 0.57718 0.16947 0.88666 0.0
C804 C 0.6276 0.24101 0.92422 0.0
C805 C 0.61666 0.24956 0.90429 0.0
C806 C 0.61781 0.22054 0.93522 0.0
C807 C 0.59695 0.20794 0.92646 0.0
C808 C 0.58585 0.21648 0.90672 0.0
H809 H 0.49984 0.10275 0.99922 0.0
H810 H 0.52079 0.13762 0.98129 0.0
C811 C 0.59557 0.23702 0.89576 0.0
C812 C 0.58654 0.18621 0.93839 0.0
H813 H 0.5693 0.12988 0.92699 0.0
C814 C 0.58014 0.18633 0.9636 0.0
C815 C 0.58302 0.16546 0.9252 0.0
C816 C 0.59057 0.16397 0.89845 0.0
C817 C 0.56979 0.16648 0.97573 0.0
C818 C 0.56545 0.14589 0.9623 0.0
C819 C 0.57244 0.14564 0.93727 0.0
C820 C 0.55302 0.12463 0.97371 0.0
C821 C 0.56371 0.16769 1.00291 0.0
C822 C 0.56398 0.10547 0.97517 0.0
C823 C 0.55197 0.0854 0.98549 0.0
C824 C 0.52867 0.08404 0.99423 0.0
C825 C 0.51778 0.10323 0.99271 0.0
C826 C 0.5298 0.12326 0.98256 0.0
H827 H 0.57373 0.1829 1.01185 0.0
H828 H 0.54475 0.16855 1.00526 0.0
H829 H 0.56726 0.1525 1.01261 0.0
H830 H 0.58185 0.10606 0.96838 0.0
H831 H 0.56081 0.07089 0.98635 0.0
H832 H 0.92254 0.78309 0.43049 0.0
H833 H 0.93864 0.8191 0.44996 0.0
H834 H 0.89609 0.85324 0.40395 0.0
H835 H 0.87983 0.81732 0.3845 0.0
H836 H 0.9635 0.85758 0.43114 0.0
H837 H 0.87956 0.87549 0.47198 0.0
H838 H 0.88272 0.84829 0.45909 0.0
H839 H 0.87856 0.87093 0.43918 0.0
C840 C 0.9167 0.79827 0.42439 0.0
C841 C 0.89974 0.79724 0.40602 0.0
C842 C 0.92586 0.81886 0.43563 0.0
C843 C 0.91826 0.83889 0.42881 0.0
C844 C 0.90176 0.83799 0.41007 0.0
H845 H 0.99056 0.97501 0.46049 0.0
H846 H 0.97403 0.93914 0.44121 0.0
C847 C 0.89251 0.8174 0.3989 0.0
C848 C 0.92787 0.86072 0.44104 0.0
H849 H 0.91204 0.90539 0.47329 0.0
C850 C 0.95224 0.86799 0.44041 0.0
C851 C 0.91325 0.8742 0.45352 0.0
C852 C 0.8871 0.86676 0.45625 0.0
C853 C 0.96233 0.88848 0.4515 0.0
C854 C 0.94764 0.90239 0.46312 0.0
C855 C 0.92331 0.89492 0.46413 0.0
C856 C 0.95718 0.92455 0.47468 0.0
C857 C 0.98871 0.89478 0.45108 0.0
C858 C 0.95252 0.92874 0.49975 0.0
C859 C 0.96172 0.9494 0.5108 0.0
C860 C 0.97581 0.96639 0.49703 0.0
C861 C 0.97999 0.96231 0.47177 0.0
C862 C 0.97068 0.94169 0.46072 0.0
H863 H 0.99742 0.87979 0.44799 0.0
H864 H 0.99422 0.90665 0.43574 0.0
H865 H 0.99499 0.90314 0.46863 0.0
H866 H 0.942 0.91589 0.51089 0.0
H867 H 0.95793 0.95191 0.5302 0.0
H868 H 0.32256 0.75992 0.54488 0.0
H869 H 0.3458 0.73224 0.52952 0.0
H870 H 0.39757 0.78533 0.49942 0.0
H871 H 0.37422 0.81341 0.51477 0.0
H872 H 0.36826 0.72016 0.48451 0.0
H873 H 0.43102 0.75892 0.55576 0.0
H874 H 0.40196 0.76589 0.55394 0.0
H875 H 0.42423 0.77676 0.53155 0.0
C876 C 0.3384 0.76576 0.53417 0.0
C877 C 0.34675 0.78891 0.53141 0.0
C878 C 0.35172 0.74986 0.52544 0.0
C879 C 0.3736 0.7568 0.51382 0.0
C880 C 0.38089 0.77972 0.50875 0.0
H881 H 0.47674 0.66638 0.5278 0.0
H882 H 0.46013 0.69808 0.51184 0.0
C883 C 0.36758 0.7957 0.51757 0.0
C884 C 0.3899 0.74038 0.51096 0.0
H885 H 0.43609 0.72398 0.53963 0.0
C886 C 0.38344 0.72117 0.4961 0.0
C887 C 0.40972 0.74181 0.52609 0.0
C888 C 0.41719 0.76185 0.54288 0.0
C889 C 0.39553 0.70279 0.49703 0.0
C890 C 0.41418 0.70357 0.5136 0.0
C891 C 0.42172 0.72342 0.52702 0.0
C892 C 0.4241 0.68326 0.51989 0.0
C893 C 0.38775 0.68247 0.48084 0.0
C894 C 0.40934 0.66448 0.52976 0.0
C895 C 0.41874 0.64638 0.53883 0.0
C896 C 0.44313 0.6468 0.53846 0.0
C897 C 0.45787 0.66547 0.52817 0.0
C898 C 0.44843 0.68358 0.51904 0.0
H899 H 0.38003 0.68737 0.46356 0.0
H900 H 0.40255 0.67344 0.47597 0.0
H901 H 0.37399 0.6707 0.49084 0.0
H902 H 0.39057 0.66412 0.53124 0.0
H903 H 0.4069 0.63211 0.5463 0.0
H904 H 0.79006 0.78049 0.72204 0.0
H905 H 0.823 0.7972 0.69552 0.0
H906 H 0.78261 0.84653 0.67082 0.0
H907 H 0.74933 0.82957 0.69681 0.0
H908 H 0.81444 0.83083 0.63335 0.0
H909 H 0.85611 0.85948 0.72253 0.0
H910 H 0.84663 0.82967 0.71865 0.0
H911 H 0.8253 0.84825 0.7206 0.0
C912 C 0.78785 0.79437 0.71029 0.0
C913 C 0.7672 0.80393 0.71178 0.0
C914 C 0.80676 0.80398 0.69528 0.0
C915 C 0.80531 0.82329 0.68159 0.0
C916 C 0.78406 0.83166 0.68135 0.0
H917 H 0.89044 0.94272 0.63903 0.0
H918 H 0.8609 0.9109 0.65156 0.0
C919 C 0.76514 0.82207 0.69633 0.0
C920 C 0.82664 0.83672 0.67048 0.0
H921 H 0.87602 0.87294 0.68622 0.0
C922 C 0.82816 0.83973 0.6448 0.0
C923 C 0.84431 0.84849 0.6856 0.0
C924 C 0.84308 0.84653 0.71339 0.0
C925 C 0.84671 0.8547 0.63392 0.0
C926 C 0.86391 0.86688 0.64916 0.0
C927 C 0.86282 0.86331 0.67467 0.0
C928 C 0.8814 0.88557 0.6396 0.0
C929 C 0.84734 0.85832 0.60642 0.0
C930 C 0.90264 0.8817 0.62864 0.0
C931 C 0.91975 0.89993 0.62162 0.0
C932 C 0.91583 0.92219 0.62569 0.0
C933 C 0.89423 0.92581 0.63616 0.0
C934 C 0.87724 0.90768 0.64312 0.0
H935 H 0.83303 0.84703 0.59698 0.0
H936 H 0.84574 0.87609 0.60263 0.0
H937 H 0.86446 0.85532 0.59847 0.0
H938 H 0.90612 0.86466 0.62599 0.0
H939 H 0.93623 0.89664 0.61364 0.0
H940 H 0.65164 0.16967 0.33313 0.0
H941 H 0.63073 0.15634 0.29578 0.0
H942 H 0.65921 0.21842 0.25931 0.0
H943 H 0.68136 0.23136 0.29606 0.0
H944 H 0.59836 0.17126 0.26707 0.0
H945 H 0.68244 0.17204 0.21459 0.0
H946 H 0.68126 0.17617 0.24759 0.0
H947 H 0.67835 0.19889 0.22727 0.0
C948 C 0.65357 0.18048 0.31714 0.0
C949 C 0.6686 0.20139 0.31746 0.0
C950 C 0.64139 0.17293 0.29589 0.0
C951 C 0.64386 0.18617 0.2746 0.0
C952 C 0.65751 0.20771 0.27537 0.0
H953 H 0.5992 0.14345 0.12542 0.0
H954 H 0.60988 0.16774 0.16155 0.0
C955 C 0.66993 0.21519 0.29654 0.0
C956 C 0.63339 0.17669 0.25127 0.0
H957 H 0.64774 0.16002 0.19314 0.0
C958 C 0.60912 0.16897 0.25082 0.0
C959 C 0.6475 0.17362 0.23013 0.0
C960 C 0.67385 0.18041 0.22988 0.0
C961 C 0.59865 0.15792 0.22992 0.0
C962 C 0.61285 0.15451 0.20907 0.0
C963 C 0.63694 0.16287 0.20918 0.0
C964 C 0.60362 0.14051 0.18777 0.0
C965 C 0.57256 0.14968 0.23037 0.0
C966 C 0.59654 0.11725 0.19069 0.0
C967 C 0.59066 0.10339 0.17017 0.0
C968 C 0.59172 0.11257 0.14638 0.0
C969 C 0.59808 0.13599 0.14358 0.0
C970 C 0.60419 0.14984 0.16413 0.0
H971 H 0.5634 0.15841 0.24492 0.0
H972 H 0.56495 0.15223 0.2122 0.0
H973 H 0.56922 0.13137 0.23429 0.0
H974 H 0.59637 0.10972 0.20876 0.0
H975 H 0.58562 0.08542 0.17284 0.0
H976 H 0.43173 0.62956 0.28563 0.0
H977 H 0.44723 0.61058 0.31973 0.0
H978 H 0.40258 0.64009 0.37122 0.0
H979 H 0.38681 0.65887 0.3372 0.0
H980 H 0.47096 0.62607 0.36011 0.0
H981 H 0.38668 0.57514 0.39036 0.0
H982 H 0.38994 0.59035 0.3617 0.0
H983 H 0.38568 0.60477 0.39041 0.0
C984 C 0.42525 0.6321 0.30422 0.0
C985 C 0.40784 0.64567 0.30855 0.0
C986 C 0.43409 0.62113 0.32374 0.0
C987 C 0.42579 0.62343 0.34813 0.0
C988 C 0.40882 0.6374 0.35257 0.0
H989 H 0.46142 0.57644 0.49189 0.0
H990 H 0.44644 0.59549 0.45758 0.0
C991 C 0.39984 0.64822 0.33305 0.0
C992 C 0.43518 0.61155 0.36888 0.0
H993 H 0.41887 0.57563 0.41705 0.0
C994 C 0.45954 0.61494 0.37243 0.0
C995 C 0.42039 0.59693 0.38508 0.0
C996 C 0.39426 0.59137 0.38159 0.0
C997 C 0.46939 0.60454 0.39187 0.0
C998 C 0.45457 0.59015 0.40817 0.0
C999 C 0.43025 0.58672 0.40464 0.0
C1000 C 0.46394 0.5785 0.42901 0.0
C1001 C 0.49557 0.60944 0.39515 0.0
C1002 C 0.47863 0.56236 0.42449 0.0
C1003 C 0.48718 0.55129 0.44412 0.0
C1004 C 0.48125 0.5561 0.46879 0.0
C1005 C 0.46644 0.57224 0.47322 0.0
C1006 C 0.4578 0.58318 0.45357 0.0
H1007 H 0.50384 0.62462 0.38481 0.0
H1008 H 0.49982 0.61198 0.41498 0.0
H1009 H 0.50345 0.59487 0.38817 0.0
H1010 H 0.48335 0.55817 0.40572 0.0
H1011 H 0.49849 0.53899 0.43991 0.0
H1012 H 0.13308 0.40674 0.84042 0.0
H1013 H 0.11547 0.42553 0.87478 0.0
H1014 H 0.07558 0.45706 0.82329 0.0
H1015 H 0.09281 0.43803 0.78895 0.0
H1016 H 0.11734 0.46916 0.8859 0.0
H1017 H 0.02456 0.43186 0.87143 0.0
H1018 H 0.04851 0.42137 0.85568 0.0
H1019 H 0.03803 0.44586 0.84445 0.0
C1020 C 0.12053 0.41766 0.83642 0.0
C1021 C 0.11425 0.42075 0.81191 0.0
C1022 C 0.11041 0.42836 0.8561 0.0
C1023 C 0.0938 0.44242 0.85177 0.0
C1024 C 0.08777 0.44578 0.82728 0.0
H1025 H 0.02435 0.53501 0.93871 0.0
H1026 H 0.04103 0.51295 0.90643 0.0
C1027 C 0.09772 0.43493 0.8076 0.0
C1028 C 0.08341 0.45414 0.87277 0.0
H1029 H 0.03135 0.46345 0.8991 0.0
C1030 C 0.09853 0.46771 0.8889 0.0
C1031 C 0.05884 0.45224 0.87685 0.0
C1032 C 0.04155 0.43686 0.86134 0.0
C1033 C 0.0898 0.47988 0.90844 0.0
C1034 C 0.06529 0.47839 0.91209 0.0
C1035 C 0.05015 0.46465 0.8962 0.0
C1036 C 0.05503 0.49145 0.93188 0.0
C1037 C 0.10684 0.49474 0.92468 0.0
C1038 C 0.05719 0.48659 0.95694 0.0
C1039 C 0.04753 0.49911 0.97542 0.0
C1040 C 0.03555 0.51668 0.96916 0.0
C1041 C 0.03345 0.52152 0.94408 0.0
C1042 C 0.04293 0.50891 0.92563 0.0
H1043 H 0.12503 0.49711 0.91687 0.0
H1044 H 0.10145 0.51152 0.92734 0.0
H1045 H 0.10686 0.48692 0.94311 0.0
H1046 H 0.06636 0.47312 0.96221 0.0
H1047 H 0.04987 0.49537 0.99457 0.0
H1048 H 0.63526 0.84081 0.91822 0.0
H1049 H 0.6133 0.86851 0.93688 0.0
H1050 H 0.60075 0.89232 0.86446 0.0
H1051 H 0.62296 0.86487 0.84573 0.0
H1052 H 0.61638 0.92658 0.895 0.0
H1053 H 0.54378 0.86985 0.94152 0.0
H1054 H 0.57204 0.86438 0.95022 0.0
H1055 H 0.56304 0.85982 0.91871 0.0
C1056 C 0.62746 0.85169 0.90628 0.0
C1057 C 0.63082 0.85067 0.88052 0.0
C1058 C 0.61486 0.86747 0.91695 0.0
C1059 C 0.60507 0.88229 0.90206 0.0
C1060 C 0.6081 0.88104 0.87631 0.0
H1061 H 0.51094 0.97019 0.96335 0.0
H1062 H 0.52751 0.94214 0.93843 0.0
C1063 C 0.62084 0.86539 0.86564 0.0
C1064 C 0.59297 0.90001 0.91336 0.0
H1065 H 0.54935 0.90862 0.95429 0.0
C1066 C 0.60157 0.92263 0.90778 0.0
C1067 C 0.57342 0.89487 0.92972 0.0
C1068 C 0.56236 0.8709 0.93521 0.0
C1069 C 0.59165 0.94026 0.91873 0.0
C1070 C 0.57297 0.93516 0.93618 0.0
C1071 C 0.56385 0.91253 0.94112 0.0
C1072 C 0.56314 0.95302 0.95011 0.0
C1073 C 0.6012 0.96416 0.91136 0.0
C1074 C 0.57766 0.96847 0.96495 0.0
C1075 C 0.56828 0.9846 0.97908 0.0
C1076 C 0.54411 0.98541 0.97894 0.0
C1077 C 0.52962 0.97003 0.96392 0.0
C1078 C 0.53905 0.95396 0.94967 0.0
H1079 H 0.60978 0.96478 0.89273 0.0
H1080 H 0.58714 0.97472 0.91134 0.0
H1081 H 0.61462 0.97161 0.92473 0.0
H1082 H 0.59619 0.96772 0.96607 0.0
H1083 H 0.57993 0.99603 0.99061 0.0
H1084 H 0.82381 0.14996 0.45511 0.0
H1085 H 0.85468 0.12905 0.46629 0.0
H1086 H 0.90384 0.17099 0.41846 0.0
H1087 H 0.8729 0.19242 0.40756 0.0
H1088 H 0.8806 0.10455 0.43792 0.0
H1089 H 0.93802 0.17605 0.48328 0.0
H1090 H 0.9084 0.17768 0.47472 0.0
H1091 H 0.93146 0.18012 0.45158 0.0
C1092 C 0.84116 0.15463 0.44684 0.0
C1093 C 0.84601 0.17276 0.43047 0.0
C1094 C 0.85878 0.14272 0.45327 0.0
C1095 C 0.88159 0.14861 0.44339 0.0
C1096 C 0.88646 0.16647 0.42666 0.0
H1097 H 0.97534 0.05251 0.47921 0.0
H1098 H 0.95593 0.0775 0.45445 0.0
C1099 C 0.86881 0.17862 0.4204 0.0
C1100 C 0.89999 0.1359 0.45108 0.0
H1101 H 0.94997 0.1406 0.48429 0.0
C1102 C 0.89594 0.11242 0.44782 0.0
C1103 C 0.9199 0.1463 0.46404 0.0
C1104 C 0.92472 0.17139 0.46884 0.0
C1105 C 0.91055 0.09886 0.45829 0.0
C1106 C 0.9302 0.1092 0.47171 0.0
C1107 C 0.93493 0.13278 0.4739 0.0
C1108 C 0.94442 0.09578 0.48594 0.0
C1109 C 0.9039 0.07357 0.45618 0.0
C1110 C 0.94536 0.09853 0.51169 0.0
C1111 C 0.95685 0.08466 0.52576 0.0
C1112 C 0.96745 0.06772 0.51431 0.0
C1113 C 0.96722 0.06544 0.48847 0.0
C1114 C 0.956 0.07956 0.47434 0.0
H1115 H 0.88558 0.06844 0.45004 0.0
H1116 H 0.9157 0.06705 0.44239 0.0
H1117 H 0.90575 0.06543 0.47413 0.0
H1118 H 0.93658 0.11099 0.52101 0.0
H1119 H 0.9569 0.08683 0.54565 0.0
H1120 H 0.26849 0.62618 0.11954 0.0
H1121 H 0.23206 0.60887 0.10017 0.0
H1122 H 0.192 0.63531 0.15853 0.0
H1123 H 0.22836 0.65279 0.17799 0.0
H1124 H 0.17481 0.59095 0.14759 0.0
H1125 H 0.18789 0.64075 0.06155 0.0
H1126 H 0.21173 0.62614 0.068 0.0
H1127 H 0.2053 0.64821 0.08853 0.0
C1128 C 0.25196 0.62855 0.12817 0.0
C1129 C 0.25148 0.64107 0.15031 0.0
C1130 C 0.23109 0.61862 0.11702 0.0
C1131 C 0.2092 0.62107 0.12761 0.0
C1132 C 0.20864 0.63321 0.14992 0.0
H1133 H 0.07329 0.5951 0.05736 0.0
H1134 H 0.11032 0.61172 0.076 0.0
C1135 C 0.2295 0.64313 0.16111 0.0
C1136 C 0.18691 0.61078 0.11565 0.0
H1137 H 0.15612 0.61023 0.06242 0.0
C1138 C 0.17072 0.5952 0.12898 0.0
C1139 C 0.18136 0.61649 0.09145 0.0
C1140 C 0.19735 0.63397 0.07659 0.0
C1141 C 0.14938 0.58499 0.11872 0.0
C1142 C 0.14414 0.5902 0.09426 0.0
C1143 C 0.16019 0.60601 0.08105 0.0
C1144 C 0.12187 0.57988 0.08229 0.0
C1145 C 0.13239 0.56909 0.13443 0.0
C1146 C 0.11611 0.55641 0.07908 0.0
C1147 C 0.09488 0.5468 0.06844 0.0
C1148 C 0.07892 0.56046 0.06055 0.0
C1149 C 0.08503 0.584 0.06321 0.0
C1150 C 0.10626 0.59357 0.07389 0.0
H1151 H 0.13606 0.57152 0.15442 0.0
H1152 H 0.11402 0.57143 0.13139 0.0
H1153 H 0.13402 0.55147 0.12937 0.0
H1154 H 0.12806 0.54547 0.08485 0.0
H1155 H 0.09092 0.52863 0.0666 0.0
H1156 H 0.29898 0.40401 0.67171 0.0
H1157 H 0.33496 0.42108 0.64997 0.0
H1158 H 0.29529 0.46055 0.60676 0.0
H1159 H 0.25917 0.44346 0.62832 0.0
H1160 H 0.34571 0.41938 0.60029 0.0
H1161 H 0.34865 0.50808 0.63132 0.0
H1162 H 0.32988 0.48483 0.64603 0.0
H1163 H 0.32155 0.49581 0.61747 0.0
C1164 C 0.29786 0.41629 0.65756 0.0
C1165 C 0.27611 0.42235 0.65182 0.0
C1166 C 0.31849 0.42612 0.64521 0.0
C1167 C 0.31792 0.44233 0.62694 0.0
C1168 C 0.29628 0.44848 0.62118 0.0
H1169 H 0.42779 0.47981 0.51455 0.0
H1170 H 0.3907 0.46669 0.53672 0.0
C1171 C 0.27562 0.43867 0.63354 0.0
C1172 C 0.33984 0.45203 0.61326 0.0
H1173 H 0.37596 0.50145 0.59961 0.0
C1174 C 0.35233 0.43732 0.60017 0.0
C1175 C 0.34863 0.47543 0.61332 0.0
C1176 C 0.33664 0.49197 0.62796 0.0
C1177 C 0.37319 0.44535 0.58695 0.0
C1178 C 0.38164 0.46881 0.58643 0.0
C1179 C 0.36933 0.48351 0.59978 0.0
C1180 C 0.40356 0.47825 0.57264 0.0
C1181 C 0.38625 0.42858 0.57408 0.0
C1182 C 0.42286 0.48991 0.58527 0.0
C1183 C 0.44403 0.49754 0.57261 0.0
C1184 C 0.44624 0.49375 0.54704 0.0
C1185 C 0.42665 0.48284 0.53427 0.0
C1186 C 0.40549 0.47522 0.54694 0.0
H1187 H 0.38078 0.41127 0.58131 0.0
H1188 H 0.38251 0.42818 0.55407 0.0
H1189 H 0.40548 0.43341 0.57621 0.0
H1190 H 0.42175 0.49256 0.60506 0.0
H1191 H 0.45882 0.50594 0.58293 0.0
H1192 H 0.76682 0.71961 0.92968 0.0
H1193 H 0.79741 0.70128 0.94725 0.0
H1194 H 0.81583 0.67866 0.87461 0.0
H1195 H 0.78591 0.69743 0.85674 0.0
H1196 H 0.80995 0.64472 0.91505 0.0
H1197 H 0.87026 0.7245 0.93563 0.0
H1198 H 0.84018 0.72292 0.9459 0.0
H1199 H 0.8472 0.72291 0.91345 0.0
C1200 C 0.77745 0.71086 0.9174 0.0
C1201 C 0.77386 0.71004 0.89176 0.0
C1202 C 0.79485 0.70034 0.92749 0.0
C1203 C 0.80892 0.68879 0.91216 0.0
C1204 C 0.80509 0.68748 0.88671 0.0
H1205 H 0.93942 0.64125 0.94308 0.0
H1206 H 0.90793 0.65731 0.92386 0.0
C1207 C 0.78783 0.6981 0.87658 0.0
C1208 C 0.82789 0.67829 0.92256 0.0
H1209 H 0.88158 0.69067 0.94891 0.0
C1210 C 0.82561 0.65471 0.92248 0.0
C1211 C 0.84837 0.69147 0.93191 0.0
C1212 C 0.85189 0.71687 0.93166 0.0
C1213 C 0.84321 0.64392 0.93196 0.0
C1214 C 0.86349 0.65709 0.94173 0.0
C1215 C 0.86593 0.68067 0.94144 0.0
C1216 C 0.8822 0.64669 0.9528 0.0
C1217 C 0.84014 0.61854 0.93134 0.0
C1218 C 0.87806 0.63549 0.97539 0.0
C1219 C 0.89597 0.62643 0.98641 0.0
C1220 C 0.91832 0.62836 0.97499 0.0
C1221 C 0.92232 0.63935 0.95218 0.0
C1222 C 0.90443 0.6486 0.94126 0.0
H1223 H 0.8257 0.61102 0.91912 0.0
H1224 H 0.85662 0.61283 0.92491 0.0
H1225 H 0.83596 0.61204 0.95029 0.0
H1226 H 0.86105 0.63402 0.98464 0.0
H1227 H 0.89233 0.61788 1.00388 0.0
H1228 H 0.43988 0.8129 0.17877 0.0
H1229 H 0.45583 0.84925 0.16032 0.0
H1230 H 0.40146 0.8393 0.10635 0.0
H1231 H 0.38527 0.80306 0.12478 0.0
H1232 H 0.44488 0.85345 0.08518 0.0
H1233 H 0.43067 0.90867 0.16503 0.0
H1234 H 0.44692 0.88672 0.17237 0.0
H1235 H 0.41691 0.87952 0.16318 0.0
C1236 C 0.43108 0.81854 0.1632 0.0
C1237 C 0.41121 0.80489 0.15336 0.0
C1238 C 0.44024 0.83941 0.15265 0.0
C1239 C 0.4297 0.84727 0.1321 0.0
C1240 C 0.40993 0.83369 0.1222 0.0
H1241 H 0.46444 0.98483 0.07273 0.0
H1242 H 0.44351 0.94944 0.09034 0.0
C1243 C 0.40076 0.81285 0.13272 0.0
C1244 C 0.43972 0.86922 0.12038 0.0
H1245 H 0.4549 0.92578 0.13194 0.0
C1246 C 0.44694 0.86926 0.0954 0.0
C1247 C 0.44212 0.89 0.13351 0.0
C1248 C 0.43354 0.89136 0.15993 0.0
C1249 C 0.45708 0.88928 0.08347 0.0
C1250 C 0.46042 0.9099 0.0969 0.0
C1251 C 0.45255 0.90999 0.12166 0.0
C1252 C 0.47278 0.93133 0.08581 0.0
C1253 C 0.464 0.88819 0.05649 0.0
C1254 C 0.49623 0.93305 0.07756 0.0
C1255 C 0.50815 0.95318 0.06758 0.0
C1256 C 0.49699 0.97215 0.06567 0.0
C1257 C 0.47349 0.97049 0.07389 0.0
C1258 C 0.46155 0.95029 0.084 0.0
H1259 H 0.45441 0.87291 0.04728 0.0
H1260 H 0.46058 0.90331 0.04659 0.0
H1261 H 0.48304 0.8875 0.0548 0.0
H1262 H 0.50545 0.91887 0.07914 0.0
H1263 H 0.52625 0.9539 0.0615 0.0
H1264 H 0.14561 0.25799 0.63276 0.0
H1265 H 0.12916 0.22183 0.61405 0.0
H1266 H 0.06777 0.21838 0.66156 0.0
H1267 H 0.08424 0.25443 0.68071 0.0
H1268 H 0.11567 0.17958 0.63654 0.0
H1269 H 0.04045 0.20838 0.59198 0.0
H1270 H 0.06507 0.22774 0.60361 0.0
H1271 H 0.04264 0.21432 0.62452 0.0
C1272 C 0.12869 0.24951 0.63944 0.0
C1273 C 0.11629 0.25924 0.65832 0.0
C1274 C 0.11925 0.22885 0.62859 0.0
C1275 C 0.09711 0.21749 0.63617 0.0
C1276 C 0.08469 0.22703 0.65506 0.0
H1277 H 0.03851 0.07678 0.60487 0.0
H1278 H 0.05493 0.11257 0.6246 0.0
C1279 C 0.09414 0.2477 0.66598 0.0
C1280 C 0.08724 0.19552 0.62449 0.0
H1281 H 0.04167 0.16921 0.5902 0.0
C1282 C 0.09948 0.1773 0.62641 0.0
C1283 C 0.06627 0.19262 0.61103 0.0
C1284 C 0.05289 0.21182 0.6074 0.0
C1285 C 0.09119 0.15622 0.61549 0.0
C1286 C 0.06994 0.15319 0.60249 0.0
C1287 C 0.05784 0.17148 0.60033 0.0
C1288 C 0.06021 0.13131 0.59056 0.0
C1289 C 0.10548 0.1375 0.61754 0.0
C1290 C 0.05735 0.12995 0.56489 0.0
C1291 C 0.04794 0.10952 0.55354 0.0
C1292 C 0.04096 0.08998 0.56764 0.0
C1293 C 0.04377 0.09142 0.59339 0.0
C1294 C 0.05326 0.11187 0.60472 0.0
H1295 H 0.12381 0.14399 0.62286 0.0
H1296 H 0.09739 0.12553 0.63191 0.0
H1297 H 0.10585 0.12806 0.5998 0.0
H1298 H 0.0625 0.14473 0.55359 0.0
H1299 H 0.04598 0.10912 0.53369 0.0
H1300 H 0.70356 0.28205 0.53108 0.0
H1301 H 0.68088 0.30525 0.55626 0.0
H1302 H 0.71289 0.3642 0.51613 0.0
H1303 H 0.7364 0.34137 0.49173 0.0
H1304 H 0.70108 0.37358 0.56602 0.0
H1305 H 0.62717 0.32177 0.51636 0.0
H1306 H 0.64403 0.30719 0.53612 0.0
H1307 H 0.65733 0.32026 0.50848 0.0
C1308 C 0.70647 0.30009 0.52828 0.0
C1309 C 0.72132 0.30983 0.50898 0.0
C1310 C 0.69336 0.31328 0.54258 0.0
C1311 C 0.69476 0.33628 0.53756 0.0
C1312 C 0.71141 0.34642 0.52016 0.0
H1313 H 0.62941 0.44484 0.51872 0.0
H1314 H 0.65623 0.42025 0.5319 0.0
C1315 C 0.72465 0.33332 0.50603 0.0
C1316 C 0.67644 0.34905 0.54673 0.0
H1317 H 0.62004 0.3548 0.5353 0.0
C1318 C 0.68317 0.36926 0.55987 0.0
C1319 C 0.65305 0.34329 0.53877 0.0
C1320 C 0.64486 0.32205 0.52404 0.0
C1321 C 0.66751 0.38457 0.56386 0.0
C1322 C 0.64478 0.37963 0.55404 0.0
C1323 C 0.63749 0.35859 0.54279 0.0
C1324 C 0.62959 0.397 0.55138 0.0
C1325 C 0.67573 0.4062 0.57775 0.0
C1326 C 0.60567 0.39224 0.55802 0.0
C1327 C 0.59023 0.4061 0.55008 0.0
C1328 C 0.59848 0.42496 0.53542 0.0
C1329 C 0.62262 0.43051 0.53016 0.0
C1330 C 0.63801 0.41656 0.53791 0.0
H1331 H 0.68852 0.40364 0.59198 0.0
H1332 H 0.68477 0.41897 0.56466 0.0
H1333 H 0.66086 0.41293 0.58686 0.0
H1334 H 0.59877 0.37716 0.56824 0.0
H1335 H 0.57172 0.40165 0.55467 0.0
loop_
_geom_bond_atom_site_label_1
_geom_bond_atom_site_label_2
_geom_bond_distance
_geom_bond_site_symmetry_2
_ccdc_geom_bond_type
C0 C1 1.386 . S
C0 C2 1.397 . S
C0 H24 0.931 . S
C1 C0 1.386 . S
C1 C5 1.397 . S
C2 C0 1.397 . S
C2 C3 1.384 . S
C2 H25 0.930 . S
C3 C2 1.384 . S
C3 C4 1.377 . S
C3 C6 1.481 . S
C4 C3 1.377 . S
C4 C5 1.389 . S
C4 H26 0.929 . S
C5 C1 1.397 . S
C5 C4 1.389 . S
C5 H27 0.931 . S
C6 C3 1.481 . S
C6 C7 1.387 . S
C6 C11 1.390 . S
C7 C6 1.387 . S
C7 C8 1.401 . S
C7 H28 0.930 . S
C8 C7 1.401 . S
C8 C9 1.376 . S
C8 C17 1.511 . S
C9 C8 1.376 . S
C9 C10 1.392 . S
C9 H30 0.931 . S
C10 C9 1.392 . S
C10 C11 1.361 . S
C10 C12 1.500 . S
C11 C6 1.390 . S
C11 C10 1.361 . S
C11 H29 0.931 . S
C12 C10 1.500 . S
C12 C13 1.371 . S
C12 C14 1.365 . S
C13 C12 1.371 . S
C13 C23 1.386 . S
C13 H31 0.931 . S
C14 C12 1.365 . S
C14 C15 1.409 . S
C14 H32 0.929 . S
C15 C14 1.409 . S
C15 C16 1.380 . S
C15 H33 0.930 . S
C16 C15 1.380 . S
C16 C23 1.357 . S
C17 C8 1.511 . S
C17 C18 1.341 . S
C17 C19 1.371 . S
C18 C17 1.341 . S
C18 C22 1.394 . S
C18 H34 0.930 . S
C19 C17 1.371 . S
C19 C20 1.392 . S
C19 H35 0.931 . S
C20 C19 1.392 . S
C20 C21 1.331 . S
C20 H38 0.932 . S
C21 C20 1.331 . S
C21 C22 1.336 . S
C22 C18 1.394 . S
C22 C21 1.336 . S
C22 H37 0.929 . S
C23 C13 1.386 . S
C23 C16 1.357 . S
C23 H36 0.928 . S
H24 C0 0.931 . S
H25 C2 0.930 . S
H26 C4 0.929 . S
H27 C5 0.931 . S
H28 C7 0.930 . S
H29 C11 0.931 . S
H30 C9 0.931 . S
H31 C13 0.931 . S
H32 C14 0.929 . S
H33 C15 0.930 . S
H34 C18 0.930 . S
H35 C19 0.931 . S
H36 C23 0.928 . S
H37 C22 0.929 . S
H38 C20 0.932 . S
C39 C40 1.386 . S
C39 C41 1.397 . S
C39 H63 0.931 . S
C40 C39 1.386 . S
C40 C44 1.397 . S
C41 C39 1.397 . S
C41 C42 1.384 . S
C41 H64 0.930 . S
C42 C41 1.384 . S
C42 C43 1.377 . S
C42 C45 1.481 . S
C43 C42 1.377 . S
C43 C44 1.389 . S
C43 H65 0.929 . S
C44 C40 1.397 . S
C44 C43 1.389 . S
C44 H66 0.931 . S
C45 C42 1.481 . S
C45 C46 1.387 . S
C45 C50 1.390 . S
C46 C45 1.387 . S
C46 C47 1.401 . S
C46 H67 0.930 . S
C47 C46 1.401 . S
C47 C48 1.376 . S
C47 C56 1.511 . S
C48 C47 1.376 . S
C48 C49 1.392 . S
C48 H69 0.931 . S
C49 C48 1.392 . S
C49 C50 1.361 . S
C49 C51 1.500 . S
C50 C45 1.390 . S
C50 C49 1.361 . S
C50 H68 0.931 . S
C51 C49 1.500 . S
C51 C52 1.371 . S
C51 C53 1.365 . S
C52 C51 1.371 . S
C52 C62 1.386 . S
C52 H70 0.931 . S
C53 C51 1.365 . S
C53 C54 1.409 . S
C53 H71 0.929 . S
C54 C53 1.409 . S
C54 C55 1.380 . S
C54 H72 0.930 . S
C55 C54 1.380 . S
C55 C62 1.357 . S
C56 C47 1.511 . S
C56 C57 1.341 . S
C56 C58 1.371 . S
C57 C56 1.341 . S
C57 C61 1.394 . S
C57 H73 0.930 . S
C58 C56 1.371 . S
C58 C59 1.392 . S
C58 H74 0.931 . S
C59 C58 1.392 . S
C59 C60 1.331 . S
C59 H77 0.932 . S
C60 C59 1.331 . S
C60 C61 1.336 . S
C61 C57 1.394 . S
C61 C60 1.336 . S
C61 H76 0.929 . S
C62 C52 1.386 . S
C62 C55 1.357 . S
C62 H75 0.928 . S
H63 C39 0.931 . S
H64 C41 0.930 . S
H65 C43 0.929 . S
H66 C44 0.931 . S
H67 C46 0.930 . S
H68 C50 0.931 . S
H69 C48 0.931 . S
H70 C52 0.931 . S
H71 C53 0.929 . S
H72 C54 0.930 . S
H73 C57 0.930 . S
H74 C58 0.931 . S
H75 C62 0.928 . S
H76 C61 0.929 . S
H77 C59 0.932 . S
C78 C79 1.386 . S
C78 C80 1.397 . S
C78 H102 0.931 . S
C79 C78 1.386 . S
C79 C83 1.397 . S
C80 C78 1.397 . S
C80 C81 1.384 . S
C80 H103 0.930 . S
C81 C80 1.384 . S
C81 C82 1.377 . S
C81 C84 1.481 . S
C82 C81 1.377 . S
C82 C83 1.389 . S
C82 H104 0.929 . S
C83 C79 1.397 . S
C83 C82 1.389 . S
C83 H105 0.931 . S
C84 C81 1.481 . S
C84 C85 1.387 . S
C84 C89 1.390 . S
C85 C84 1.387 . S
C85 C86 1.401 . S
C85 H106 0.930 . S
C86 C85 1.401 . S
C86 C87 1.376 . S
C86 C95 1.511 . S
C87 C86 1.376 . S
C87 C88 1.392 . S
C87 H108 0.931 . S
C88 C87 1.392 . S
C88 C89 1.361 . S
C88 C90 1.500 . S
C89 C84 1.390 . S
C89 C88 1.361 . S
C89 H107 0.931 . S
C90 C88 1.500 . S
C90 C91 1.371 . S
C90 C92 1.365 . S
C91 C90 1.371 . S
C91 C101 1.386 . S
C91 H109 0.931 . S
C92 C90 1.365 . S
C92 C93 1.409 . S
C92 H110 0.929 . S
C93 C92 1.409 . S
C93 C94 1.380 . S
C93 H111 0.930 . S
C94 C93 1.380 . S
C94 C101 1.357 . S
C95 C86 1.511 . S
C95 C96 1.341 . S
C95 C97 1.371 . S
C96 C95 1.341 . S
C96 C100 1.394 . S
C96 H112 0.930 . S
C97 C95 1.371 . S
C97 C98 1.392 . S
C97 H113 0.931 . S
C98 C97 1.392 . S
C98 C99 1.331 . S
C98 H116 0.932 . S
C99 C98 1.331 . S
C99 C100 1.336 . S
C100 C96 1.394 . S
C100 C99 1.336 . S
C100 H115 0.929 . S
C101 C91 1.386 . S
C101 C94 1.357 . S
C101 H114 0.928 . S
H102 C78 0.931 . S
H103 C80 0.930 . S
H104 C82 0.929 . S
H105 C83 0.931 . S
H106 C85 0.930 . S
H107 C89 0.931 . S
H108 C87 0.931 . S
H109 C91 0.931 . S
H110 C92 0.929 . S
H111 C93 0.930 . S
H112 C96 0.930 . S
H113 C97 0.931 . S
H114 C101 0.928 . S
H115 C100 0.929 . S
H116 C98 0.932 . S
C117 C118 1.386 . S
C117 C119 1.397 . S
C117 H141 0.931 . S
C118 C117 1.386 . S
C118 C122 1.397 . S
C119 C117 1.397 . S
C119 C120 1.384 . S
C119 H142 0.930 . S
C120 C119 1.384 . S
C120 C121 1.377 . S
C120 C123 1.481 . S
C121 C120 1.377 . S
C121 C122 1.389 . S
C121 H143 0.929 . S
C122 C118 1.397 . S
C122 C121 1.389 . S
C122 H144 0.931 . S
C123 C120 1.481 . S
C123 C124 1.387 . S
C123 C128 1.390 . S
C124 C123 1.387 . S
C124 C125 1.401 . S
C124 H145 0.930 . S
C125 C124 1.401 . S
C125 C126 1.376 . S
C125 C134 1.511 . S
C126 C125 1.376 . S
C126 C127 1.392 . S
C126 H147 0.931 . S
C127 C126 1.392 . S
C127 C128 1.361 . S
C127 C129 1.500 . S
C128 C123 1.390 . S
C128 C127 1.361 . S
C128 H146 0.931 . S
C129 C127 1.500 . S
C129 C130 1.371 . S
C129 C131 1.365 . S
C130 C129 1.371 . S
C130 C140 1.386 . S
C130 H148 0.931 . S
C131 C129 1.365 . S
C131 C132 1.409 . S
C131 H149 0.929 . S
C132 C131 1.409 . S
C132 C133 1.380 . S
C132 H150 0.930 . S
C133 C132 1.380 . S
C133 C140 1.357 . S
C134 C125 1.511 . S
C134 C135 1.341 . S
C134 C136 1.371 . S
C135 C134 1.341 . S
C135 C139 1.394 . S
C135 H151 0.930 . S
C136 C134 1.371 . S
C136 C137 1.392 . S
C136 H152 0.931 . S
C137 C136 1.392 . S
C137 C138 1.331 . S
C137 H155 0.932 . S
C138 C137 1.331 . S
C138 C139 1.336 . S
C139 C135 1.394 . S
C139 C138 1.336 . S
C139 H154 0.929 . S
C140 C130 1.386 . S
C140 C133 1.357 . S
C140 H153 0.928 . S
H141 C117 0.931 . S
H142 C119 0.930 . S
H143 C121 0.929 . S
H144 C122 0.931 . S
H145 C124 0.930 . S
H146 C128 0.931 . S
H147 C126 0.931 . S
H148 C130 0.931 . S
H149 C131 0.929 . S
H150 C132 0.930 . S
H151 C135 0.930 . S
H152 C136 0.931 . S
H153 C140 0.928 . S
H154 C139 0.929 . S
H155 C137 0.932 . S
C156 C157 1.386 . S
C156 C158 1.397 . S
C156 H180 0.931 . S
C157 C156 1.386 . S
C157 C161 1.397 . S
C158 C156 1.397 . S
C158 C159 1.384 . S
C158 H181 0.930 . S
C159 C158 1.384 . S
C159 C160 1.377 . S
C159 C162 1.481 . S
C160 C159 1.377 . S
C160 C161 1.389 . S
C160 H182 0.929 . S
C161 C157 1.397 . S
C161 C160 1.389 . S
C161 H183 0.931 . S
C162 C159 1.481 . S
C162 C163 1.387 . S
C162 C167 1.390 . S
C163 C162 1.387 . S
C163 C164 1.401 . S
C163 H184 0.930 . S
C164 C163 1.401 . S
C164 C165 1.376 . S
C164 C173 1.511 . S
C165 C164 1.376 . S
C165 C166 1.392 . S
C165 H186 0.931 . S
C166 C165 1.392 . S
C166 C167 1.361 . S
C166 C168 1.500 . S
C167 C162 1.390 . S
C167 C166 1.361 . S
C167 H185 0.931 . S
C168 C166 1.500 . S
C168 C169 1.371 . S
C168 C170 1.365 . S
C169 C168 1.371 . S
C169 C179 1.386 . S
C169 H187 0.931 . S
C170 C168 1.365 . S
C170 C171 1.409 . S
C170 H188 0.929 . S
C171 C170 1.409 . S
C171 C172 1.380 . S
C171 H189 0.930 . S
C172 C171 1.380 . S
C172 C179 1.357 . S
C173 C164 1.511 . S
C173 C174 1.341 . S
C173 C175 1.371 . S
C174 C173 1.341 . S
C174 C178 1.394 . S
C174 H190 0.930 . S
C175 C173 1.371 . S
C175 C176 1.392 . S
C175 H191 0.931 . S
C176 C175 1.392 . S
C176 C177 1.331 . S
C176 H194 0.932 . S
C177 C176 1.331 . S
C177 C178 1.336 . S
C178 C174 1.394 . S
C178 C177 1.336 . S
C178 H193 0.929 . S
C179 C169 1.386 . S
C179 C172 1.357 . S
C179 H192 0.928 . S
H180 C156 0.931 . S
H181 C158 0.930 . S
H182 C160 0.929 . S
H183 C161 0.931 . S
H184 C163 0.930 . S
H185 C167 0.931 . S
H186 C165 0.931 . S
H187 C169 0.931 . S
H188 C170 0.929 . S
H189 C171 0.930 . S
H190 C174 0.930 . S
H191 C175 0.931 . S
H192 C179 0.928 . S
H193 C178 0.929 . S
H194 C176 0.932 . S
C195 C196 1.386 . S
C195 C197 1.397 . S
C195 H219 0.931 . S
C196 C195 1.386 . S
C196 C200 1.397 . S
C197 C195 1.397 . S
C197 C198 1.384 . S
C197 H220 0.930 . S
C198 C197 1.384 . S
C198 C199 1.377 . S
C198 C201 1.481 . S
C199 C198 1.377 . S
C199 C200 1.389 . S
C199 H221 0.929 . S
C200 C196 1.397 . S
C200 C199 1.389 . S
C200 H222 0.931 . S
C201 C198 1.481 . S
C201 C202 1.387 . S
C201 C206 1.390 . S
C202 C201 1.387 . S
C202 C203 1.401 . S
C202 H223 0.930 . S
C203 C202 1.401 . S
C203 C204 1.376 . S
C203 C212 1.511 . S
C204 C203 1.376 . S
C204 C205 1.392 . S
C204 H225 0.931 . S
C205 C204 1.392 . S
C205 C206 1.361 . S
C205 C207 1.500 . S
C206 C201 1.390 . S
C206 C205 1.361 . S
C206 H224 0.931 . S
C207 C205 1.500 . S
C207 C208 1.371 . S
C207 C209 1.365 . S
C208 C207 1.371 . S
C208 C218 1.386 . S
C208 H226 0.931 . S
C209 C207 1.365 . S
C209 C210 1.409 . S
C209 H227 0.929 . S
C210 C209 1.409 . S
C210 C211 1.380 . S
C210 H228 0.930 . S
C211 C210 1.380 . S
C211 C218 1.357 . S
C212 C203 1.511 . S
C212 C213 1.341 . S
C212 C214 1.371 . S
C213 C212 1.341 . S
C213 C217 1.394 . S
C213 H229 0.930 . S
C214 C212 1.371 . S
C214 C215 1.392 . S
C214 H230 0.931 . S
C215 C214 1.392 . S
C215 C216 1.331 . S
C215 H233 0.932 . S
C216 C215 1.331 . S
C216 C217 1.336 . S
C217 C213 1.394 . S
C217 C216 1.336 . S
C217 H232 0.929 . S
C218 C208 1.386 . S
C218 C211 1.357 . S
C218 H231 0.928 . S
H219 C195 0.931 . S
H220 C197 0.930 . S
H221 C199 0.929 . S
H222 C200 0.931 . S
H223 C202 0.930 . S
H224 C206 0.931 . S
H225 C204 0.931 . S
H226 C208 0.931 . S
H227 C209 0.929 . S
H228 C210 0.930 . S
H229 C213 0.930 . S
H230 C214 0.931 . S
H231 C218 0.928 . S
H232 C217 0.929 . S
H233 C215 0.932 . S
C234 C235 1.386 . S
C234 C236 1.397 . S
C234 H258 0.931 . S
C235 C234 1.386 . S
C235 C239 1.397 . S
C236 C234 1.397 . S
C236 C237 1.384 . S
C236 H259 0.930 . S
C237 C236 1.384 . S
C237 C238 1.377 . S
C237 C240 1.481 . S
C238 C237 1.377 . S
C238 C239 1.389 . S
C238 H260 0.929 . S
C239 C235 1.397 . S
C239 C238 1.389 . S
C239 H261 0.931 . S
C240 C237 1.481 . S
C240 C241 1.387 . S
C240 C245 1.390 . S
C241 C240 1.387 . S
C241 C242 1.401 . S
C241 H262 0.930 . S
C242 C241 1.401 . S
C242 C243 1.376 . S
C242 C251 1.511 . S
C243 C242 1.376 . S
C243 C244 1.392 . S
C243 H264 0.931 . S
C244 C243 1.392 . S
C244 C245 1.361 . S
C244 C246 1.500 . S
C245 C240 1.390 . S
C245 C244 1.361 . S
C245 H263 0.931 . S
C246 C244 1.500 . S
C246 C247 1.371 . S
C246 C248 1.365 . S
C247 C246 1.371 . S
C247 C257 1.386 . S
C247 H265 0.931 . S
C248 C246 1.365 . S
C248 C249 1.409 . S
C248 H266 0.929 . S
C249 C248 1.409 . S
C249 C250 1.380 . S
C249 H267 0.930 . S
C250 C249 1.380 . S
C250 C257 1.357 . S
C251 C242 1.511 . S
C251 C252 1.341 . S
C251 C253 1.371 . S
C252 C251 1.341 . S
C252 C256 1.394 . S
C252 H268 0.930 . S
C253 C251 1.371 . S
C253 C254 1.392 . S
C253 H269 0.931 . S
C254 C253 1.392 . S
C254 C255 1.331 . S
C254 H272 0.932 . S
C255 C254 1.331 . S
C255 C256 1.336 . S
C256 C252 1.394 . S
C256 C255 1.336 . S
C256 H271 0.929 . S
C257 C247 1.386 . S
C257 C250 1.357 . S
C257 H270 0.928 . S
H258 C234 0.931 . S
H259 C236 0.930 . S
H260 C238 0.929 . S
H261 C239 0.931 . S
H262 C241 0.930 . S
H263 C245 0.931 . S
H264 C243 0.931 . S
H265 C247 0.931 . S
H266 C248 0.929 . S
H267 C249 0.930 . S
H268 C252 0.930 . S
H269 C253 0.931 . S
H270 C257 0.928 . S
H271 C256 0.929 . S
H272 C254 0.932 . S
C273 C274 1.386 . S
C273 C275 1.397 . S
C273 H297 0.931 . S
C274 C273 1.386 . S
C274 C278 1.397 . S
C275 C273 1.397 . S
C275 C276 1.384 . S
C275 H298 0.930 . S
C276 C275 1.384 . S
C276 C277 1.377 . S
C276 C279 1.481 . S
C277 C276 1.377 . S
C277 C278 1.389 . S
C277 H299 0.929 . S
C278 C274 1.397 . S
C278 C277 1.389 . S
C278 H300 0.931 . S
C279 C276 1.481 . S
C279 C280 1.387 . S
C279 C284 1.390 . S
C280 C279 1.387 . S
C280 C281 1.401 . S
C280 H301 0.930 . S
C281 C280 1.401 . S
C281 C282 1.376 . S
C281 C290 1.511 . S
C282 C281 1.376 . S
C282 C283 1.392 . S
C282 H303 0.931 . S
C283 C282 1.392 . S
C283 C284 1.361 . S
C283 C285 1.500 . S
C284 C279 1.390 . S
C284 C283 1.361 . S
C284 H302 0.931 . S
C285 C283 1.500 . S
C285 C286 1.371 . S
C285 C287 1.365 . S
C286 C285 1.371 . S
C286 C296 1.386 . S
C286 H304 0.931 . S
C287 C285 1.365 . S
C287 C288 1.409 . S
C287 H305 0.929 . S
C288 C287 1.409 . S
C288 C289 1.380 . S
C288 H306 0.930 . S
C289 C288 1.380 . S
C289 C296 1.357 . S
C290 C281 1.511 . S
C290 C291 1.341 . S
C290 C292 1.371 . S
C291 C290 1.341 . S
C291 C295 1.394 . S
C291 H307 0.930 . S
C292 C290 1.371 . S
C292 C293 1.392 . S
C292 H308 0.931 . S
C293 C292 1.392 . S
C293 C294 1.331 . S
C293 H311 0.932 . S
C294 C293 1.331 . S
C294 C295 1.336 . S
C295 C291 1.394 . S
C295 C294 1.336 . S
C295 H310 0.929 . S
C296 C286 1.386 . S
C296 C289 1.357 . S
C296 H309 0.928 . S
H297 C273 0.931 . S
H298 C275 0.930 . S
H299 C277 0.929 . S
H300 C278 0.931 . S
H301 C280 0.930 . S
H302 C284 0.931 . S
H303 C282 0.931 . S
H304 C286 0.931 . S
H305 C287 0.929 . S
H306 C288 0.930 . S
H307 C291 0.930 . S
H308 C292 0.931 . S
H309 C296 0.928 . S
H310 C295 0.929 . S
H311 C293 0.932 . S
Gd312 C315 2.818 . S
Gd312 O332 2.377 . S
Gd312 O334 2.448 . S
Gd312 O335 2.506 . S
Gd312 O336 2.435 1_545 S
Gd312 O337 2.717 1_545 S
Gd312 O339 2.395 1_445 S
Gd312 O343 2.327 1_455 S
Gd313 C324 2.827 . S
Gd313 O333 2.385 1_665 S
Gd313 O337 2.332 1_655 S
Gd313 O338 2.385 . S
Gd313 O340 2.453 . S
Gd313 O341 2.517 . S
Gd313 O342 2.429 1_565 S
Gd313 O343 2.712 1_565 S
C314 O332 1.240 . S
C314 O333 1.240 . S
C315 Gd312 2.818 . S
C315 C316 1.510 . S
C315 O334 1.249 . S
C315 O335 1.252 . S
C316 C315 1.510 . S
C316 C317 1.404 . S
C316 C318 1.352 . S
C317 C316 1.404 . S
C317 C321 1.389 . S
C317 H344 0.930 . S
C318 C316 1.352 . S
C318 C320 1.374 . S
C318 H345 0.931 . S
C319 C320 1.359 . S
C319 C321 1.364 . S
C320 C318 1.374 . S
C320 C319 1.359 . S
C320 H346 0.931 . S
C321 C317 1.389 . S
C321 C319 1.364 . S
C321 H347 0.931 . S
C322 O336 1.256 . S
C322 O337 1.257 . S
C323 O338 1.240 . S
C323 O339 1.240 . S
C324 Gd313 2.827 . S
C324 C325 1.510 . S
C324 O340 1.249 . S
C324 O341 1.252 . S
C325 C324 1.510 . S
C325 C326 1.404 . S
C325 C327 1.352 . S
C326 C325 1.404 . S
C326 C330 1.389 . S
C326 H348 0.930 . S
C327 C325 1.352 . S
C327 C329 1.374 . S
C327 H349 0.931 . S
C328 C329 1.359 . S
C328 C330 1.364 . S
C329 C327 1.374 . S
C329 C328 1.359 . S
C329 H350 0.931 . S
C330 C326 1.389 . S
C330 C328 1.364 . S
C330 H351 0.931 . S
C331 O342 1.256 . S
C331 O343 1.257 . S
O332 Gd312 2.377 . S
O332 C314 1.240 . S
O333 Gd313 2.385 1_445 S
O333 C314 1.240 . S
O334 Gd312 2.448 . S
O334 C315 1.249 . S
O335 Gd312 2.506 . S
O335 C315 1.252 . S
O336 Gd312 2.435 1_565 S
O336 C322 1.256 . S
O337 Gd312 2.717 1_565 S
O337 Gd313 2.332 1_455 S
O337 C322 1.257 . S
O338 Gd313 2.385 . S
O338 C323 1.240 . S
O339 Gd312 2.395 1_665 S
O339 C323 1.240 . S
O340 Gd313 2.453 . S
O340 C324 1.249 . S
O341 Gd313 2.517 . S
O341 C324 1.252 . S
O342 Gd313 2.429 1_545 S
O342 C331 1.256 . S
O343 Gd312 2.327 1_655 S
O343 Gd313 2.712 1_545 S
O343 C331 1.257 . S
H344 C317 0.930 . S
H345 C318 0.931 . S
H346 C320 0.931 . S
H347 C321 0.931 . S
H348 C326 0.930 . S
H349 C327 0.931 . S
H350 C329 0.931 . S
H351 C330 0.931 . S
Gd352 C355 2.818 . S
Gd352 O372 2.377 . S
Gd352 O374 2.448 . S
Gd352 O375 2.506 . S
Gd352 O376 2.435 1_545 S
Gd352 O377 2.717 1_545 S
Gd352 O379 2.395 1_544 S
Gd352 O383 2.327 1_554 S
Gd353 C364 2.818 1_545 S
Gd353 O373 2.395 1_556 S
Gd353 O377 2.327 1_546 S
Gd353 O378 2.377 1_545 S
Gd353 O380 2.448 1_545 S
Gd353 O381 2.506 1_545 S
Gd353 O382 2.435 . S
Gd353 O383 2.717 . S
C354 O372 1.240 . S
C354 O373 1.240 . S
C355 Gd352 2.818 . S
C355 C356 1.510 . S
C355 O374 1.249 . S
C355 O375 1.252 . S
C356 C355 1.510 . S
C356 C357 1.404 . S
C356 C358 1.352 . S
C357 C356 1.404 . S
C357 C361 1.389 . S
C357 H384 0.930 . S
C358 C356 1.352 . S
C358 C360 1.374 . S
C358 H385 0.931 . S
C359 C360 1.359 . S
C359 C361 1.364 . S
C360 C358 1.374 . S
C360 C359 1.359 . S
C360 H386 0.931 . S
C361 C357 1.389 . S
C361 C359 1.364 . S
C361 H387 0.931 . S
C362 O376 1.256 . S
C362 O377 1.257 . S
C363 O378 1.240 . S
C363 O379 1.240 . S
C364 Gd353 2.818 1_565 S
C364 C365 1.510 . S
C364 O380 1.249 . S
C364 O381 1.252 . S
C365 C364 1.510 . S
C365 C366 1.404 . S
C365 C367 1.352 . S
C366 C365 1.404 . S
C366 C370 1.389 . S
C366 H388 0.930 . S
C367 C365 1.352 . S
C367 C369 1.374 . S
C367 H389 0.931 . S
C368 C369 1.359 . S
C368 C370 1.364 . S
C369 C367 1.374 . S
C369 C368 1.359 . S
C369 H390 0.931 . S
C370 C366 1.389 . S
C370 C368 1.364 . S
C370 H391 0.931 . S
C371 O382 1.256 . S
C371 O383 1.257 . S
O372 Gd352 2.377 . S
O372 C354 1.240 . S
O373 Gd353 2.395 1_554 S
O373 C354 1.240 . S
O374 Gd352 2.448 . S
O374 C355 1.249 . S
O375 Gd352 2.506 . S
O375 C355 1.252 . S
O376 Gd352 2.435 1_565 S
O376 C362 1.256 . S
O377 Gd352 2.717 1_565 S
O377 Gd353 2.327 1_564 S
O377 C362 1.257 . S
O378 Gd353 2.377 1_565 S
O378 C363 1.240 . S
O379 Gd352 2.395 1_566 S
O379 C363 1.240 . S
O380 Gd353 2.448 1_565 S
O380 C364 1.249 . S
O381 Gd353 2.506 1_565 S
O381 C364 1.252 . S
O382 Gd353 2.435 . S
O382 C371 1.256 . S
O383 Gd352 2.327 1_556 S
O383 Gd353 2.717 . S
O383 C371 1.257 . S
H384 C357 0.930 . S
H385 C358 0.931 . S
H386 C360 0.931 . S
H387 C361 0.931 . S
H388 C366 0.930 . S
H389 C367 0.931 . S
H390 C369 0.931 . S
H391 C370 0.931 . S
Gd392 C395 2.818 . S
Gd392 O412 2.377 . S
Gd392 O414 2.448 . S
Gd392 O415 2.506 . S
Gd392 O416 2.435 . S
Gd392 O417 2.717 . S
Gd392 O419 2.395 . S
Gd392 O423 2.327 . S
Gd393 C404 2.818 . S
Gd393 O413 2.395 . S
Gd393 O417 2.327 . S
Gd393 O418 2.377 . S
Gd393 O420 2.448 . S
Gd393 O421 2.506 . S
Gd393 O422 2.435 . S
Gd393 O423 2.717 . S
C394 O412 1.240 . S
C394 O413 1.240 . S
C395 Gd392 2.818 . S
C395 C396 1.510 . S
C395 O414 1.249 . S
C395 O415 1.252 . S
C396 C395 1.510 . S
C396 C397 1.404 . S
C396 C398 1.352 . S
C397 C396 1.404 . S
C397 C401 1.389 . S
C397 H424 0.930 . S
C398 C396 1.352 . S
C398 C400 1.374 . S
C398 H425 0.931 . S
C399 C400 1.359 . S
C399 C401 1.364 . S
C400 C398 1.374 . S
C400 C399 1.359 . S
C400 H426 0.931 . S
C401 C397 1.389 . S
C401 C399 1.364 . S
C401 H427 0.931 . S
C402 O416 1.256 . S
C402 O417 1.257 . S
C403 O418 1.240 . S
C403 O419 1.240 . S
C404 Gd393 2.818 . S
C404 C405 1.510 . S
C404 O420 1.249 . S
C404 O421 1.252 . S
C405 C404 1.510 . S
C405 C406 1.404 . S
C405 C407 1.352 . S
C406 C405 1.404 . S
C406 C410 1.389 . S
C406 H428 0.930 . S
C407 C405 1.352 . S
C407 C409 1.374 . S
C407 H429 0.931 . S
C408 C409 1.359 . S
C408 C410 1.364 . S
C409 C407 1.374 . S
C409 C408 1.359 . S
C409 H430 0.931 . S
C410 C406 1.389 . S
C410 C408 1.364 . S
C410 H431 0.931 . S
C411 O422 1.256 . S
C411 O423 1.257 . S
O412 Gd392 2.377 . S
O412 C394 1.240 . S
O413 Gd393 2.395 . S
O413 C394 1.240 . S
O414 Gd392 2.448 . S
O414 C395 1.249 . S
O415 Gd392 2.506 . S
O415 C395 1.252 . S
O416 Gd392 2.435 . S
O416 C402 1.256 . S
O417 Gd392 2.717 . S
O417 Gd393 2.327 . S
O417 C402 1.257 . S
O418 Gd393 2.377 . S
O418 C403 1.240 . S
O419 Gd392 2.395 . S
O419 C403 1.240 . S
O420 Gd393 2.448 . S
O420 C404 1.249 . S
O421 Gd393 2.506 . S
O421 C404 1.252 . S
O422 Gd393 2.435 . S
O422 C411 1.256 . S
O423 Gd392 2.327 . S
O423 Gd393 2.717 . S
O423 C411 1.257 . S
H424 C397 0.930 . S
H425 C398 0.931 . S
H426 C400 0.931 . S
H427 C401 0.931 . S
H428 C406 0.930 . S
H429 C407 0.931 . S
H430 C409 0.931 . S
H431 C410 0.931 . S
Gd432 C435 2.818 . S
Gd432 O452 2.377 . S
Gd432 O454 2.448 . S
Gd432 O455 2.506 . S
Gd432 O456 2.435 1_455 S
Gd432 O457 2.717 1_455 S
Gd432 O459 2.373 1_454 S
Gd432 O463 2.327 1_554 S
Gd433 C444 2.818 . S
Gd433 O453 2.396 1_656 S
Gd433 O457 2.327 1_556 S
Gd433 O458 2.376 . S
Gd433 O460 2.448 . S
Gd433 O461 2.505 . S
Gd433 O462 2.436 1_655 S
Gd433 O463 2.718 1_655 S
C434 O452 1.240 . S
C434 O453 1.240 . S
C435 Gd432 2.818 . S
C435 C436 1.510 . S
C435 O454 1.249 . S
C435 O455 1.252 . S
C436 C435 1.510 . S
C436 C437 1.404 . S
C436 C438 1.352 . S
C437 C436 1.404 . S
C437 C441 1.389 . S
C437 H464 0.930 . S
C438 C436 1.352 . S
C438 C440 1.374 . S
C438 H465 0.931 . S
C439 C440 1.359 . S
C439 C441 1.364 . S
C440 C438 1.374 . S
C440 C439 1.359 . S
C440 H466 0.931 . S
C441 C437 1.389 . S
C441 C439 1.364 . S
C441 H467 0.931 . S
C442 O456 1.256 . S
C442 O457 1.257 . S
C443 O458 1.240 . S
C443 O459 1.274 . S
C444 Gd433 2.818 . S
C444 C445 1.510 . S
C444 O460 1.249 . S
C444 O461 1.252 . S
C445 C444 1.510 . S
C445 C446 1.404 . S
C445 C447 1.352 . S
C446 C445 1.404 . S
C446 C450 1.389 . S
C446 H468 0.930 . S
C447 C445 1.352 . S
C447 C449 1.374 . S
C447 H469 0.931 . S
C448 C449 1.359 . S
C448 C450 1.364 . S
C449 C447 1.374 . S
C449 C448 1.359 . S
C449 H470 0.931 . S
C450 C446 1.389 . S
C450 C448 1.364 . S
C450 H471 0.931 . S
C451 O462 1.256 . S
C451 O463 1.257 . S
O452 Gd432 2.377 . S
O452 C434 1.240 . S
O453 Gd433 2.396 1_454 S
O453 C434 1.240 . S
O454 Gd432 2.448 . S
O454 C435 1.249 . S
O455 Gd432 2.506 . S
O455 C435 1.252 . S
O456 Gd432 2.435 1_655 S
O456 C442 1.256 . S
O457 Gd432 2.717 1_655 S
O457 Gd433 2.327 1_554 S
O457 C442 1.257 . S
O458 Gd433 2.376 . S
O458 C443 1.240 . S
O459 Gd432 2.373 1_656 S
O459 C443 1.274 . S
O460 Gd433 2.448 . S
O460 C444 1.249 . S
O461 Gd433 2.505 . S
O461 C444 1.252 . S
O462 Gd433 2.436 1_455 S
O462 C451 1.256 . S
O463 Gd432 2.327 1_556 S
O463 Gd433 2.718 1_455 S
O463 C451 1.257 . S
H464 C437 0.930 . S
H465 C438 0.931 . S
H466 C440 0.931 . S
H467 C441 0.931 . S
H468 C446 0.930 . S
H469 C447 0.931 . S
H470 C449 0.931 . S
H471 C450 0.931 . S
H472 C480 0.929 . S
H473 C482 0.930 . S
H474 C484 0.930 . S
H475 C487 0.929 . S
H476 C490 0.930 . S
H477 C492 0.960 . S
H478 C492 0.960 . S
H479 C492 0.960 . S
C480 H472 0.929 . S
C480 C481 1.377 . S
C480 C482 1.384 . S
C481 C480 1.377 . S
C481 C487 1.390 . S
C482 H473 0.930 . S
C482 C480 1.384 . S
C482 C483 1.372 . S
C483 C482 1.372 . S
C483 C484 1.400 . S
C483 C488 1.490 . S
C484 H474 0.930 . S
C484 C483 1.400 . S
C484 C487 1.386 . S
H485 C501 0.930 . S
H486 C502 0.931 . S
C487 H475 0.929 . S
C487 C481 1.390 . S
C487 C484 1.386 . S
C488 C483 1.490 . S
C488 C490 1.395 . S
C488 C491 1.403 . S
H489 C495 0.930 . S
C490 H476 0.930 . S
C490 C488 1.395 . S
C490 C493 1.403 . S
C491 C488 1.403 . S
C491 C492 1.524 . S
C491 C495 1.400 . S
C492 H477 0.960 . S
C492 H478 0.960 . S
C492 H479 0.960 . S
C492 C491 1.524 . S
C493 C490 1.403 . S
C493 C494 1.392 . S
C493 C497 1.495 . S
C494 C493 1.392 . S
C494 C495 1.385 . S
C494 C496 1.478 . S
C495 H489 0.930 . S
C495 C491 1.400 . S
C495 C494 1.385 . S
C496 C494 1.478 . S
C496 C498 1.381 . S
C496 C502 1.383 . S
C497 C493 1.495 . S
C497 H503 0.959 . S
C497 H504 0.961 . S
C497 H505 0.960 . S
C498 C496 1.381 . S
C498 C499 1.394 . S
C498 H506 0.930 . S
C499 C498 1.394 . S
C499 C500 1.383 . S
C499 H507 0.929 . S
C500 C499 1.383 . S
C500 C501 1.377 . S
C501 H485 0.930 . S
C501 C500 1.377 . S
C501 C502 1.379 . S
C502 H486 0.931 . S
C502 C496 1.383 . S
C502 C501 1.379 . S
H503 C497 0.959 . S
H504 C497 0.961 . S
H505 C497 0.960 . S
H506 C498 0.930 . S
H507 C499 0.929 . S
H508 C516 0.929 . S
H509 C518 0.930 . S
H510 C520 0.930 . S
H511 C523 0.929 . S
H512 C526 0.930 . S
H513 C528 0.960 . S
H514 C528 0.960 . S
H515 C528 0.960 . S
C516 H508 0.929 . S
C516 C517 1.377 . S
C516 C518 1.384 . S
C517 C516 1.377 . S
C517 C523 1.390 . S
C518 H509 0.930 . S
C518 C516 1.384 . S
C518 C519 1.372 . S
C519 C518 1.372 . S
C519 C520 1.400 . S
C519 C524 1.490 . S
C520 H510 0.930 . S
C520 C519 1.400 . S
C520 C523 1.386 . S
H521 C537 0.930 . S
H522 C538 0.931 . S
C523 H511 0.929 . S
C523 C517 1.390 . S
C523 C520 1.386 . S
C524 C519 1.490 . S
C524 C526 1.395 . S
C524 C527 1.403 . S
H525 C531 0.930 . S
C526 H512 0.930 . S
C526 C524 1.395 . S
C526 C529 1.403 . S
C527 C524 1.403 . S
C527 C528 1.524 . S
C527 C531 1.400 . S
C528 H513 0.960 . S
C528 H514 0.960 . S
C528 H515 0.960 . S
C528 C527 1.524 . S
C529 C526 1.403 . S
C529 C530 1.392 . S
C529 C533 1.495 . S
C530 C529 1.392 . S
C530 C531 1.385 . S
C530 C532 1.478 . S
C531 H525 0.930 . S
C531 C527 1.400 . S
C531 C530 1.385 . S
C532 C530 1.478 . S
C532 C534 1.381 . S
C532 C538 1.383 . S
C533 C529 1.495 . S
C533 H539 0.959 . S
C533 H540 0.961 . S
C533 H541 0.960 . S
C534 C532 1.381 . S
C534 C535 1.394 . S
C534 H542 0.930 . S
C535 C534 1.394 . S
C535 C536 1.383 . S
C535 H543 0.929 . S
C536 C535 1.383 . S
C536 C537 1.377 . S
C537 H521 0.930 . S
C537 C536 1.377 . S
C537 C538 1.379 . S
C538 H522 0.931 . S
C538 C532 1.383 . S
C538 C537 1.379 . S
H539 C533 0.959 . S
H540 C533 0.961 . S
H541 C533 0.960 . S
H542 C534 0.930 . S
H543 C535 0.929 . S
H544 C552 0.929 . S
H545 C554 0.930 . S
H546 C556 0.930 . S
H547 C559 0.929 . S
H548 C562 0.930 . S
H549 C564 0.960 . S
H550 C564 0.960 . S
H551 C564 0.960 . S
C552 H544 0.929 . S
C552 C553 1.377 . S
C552 C554 1.384 . S
C553 C552 1.377 . S
C553 C559 1.390 . S
C554 H545 0.930 . S
C554 C552 1.384 . S
C554 C555 1.372 . S
C555 C554 1.372 . S
C555 C556 1.400 . S
C555 C560 1.490 . S
C556 H546 0.930 . S
C556 C555 1.400 . S
C556 C559 1.386 . S
H557 C573 0.930 . S
H558 C574 0.931 . S
C559 H547 0.929 . S
C559 C553 1.390 . S
C559 C556 1.386 . S
C560 C555 1.490 . S
C560 C562 1.395 . S
C560 C563 1.403 . S
H561 C567 0.930 . S
C562 H548 0.930 . S
C562 C560 1.395 . S
C562 C565 1.403 . S
C563 C560 1.403 . S
C563 C564 1.524 . S
C563 C567 1.400 . S
C564 H549 0.960 . S
C564 H550 0.960 . S
C564 H551 0.960 . S
C564 C563 1.524 . S
C565 C562 1.403 . S
C565 C566 1.392 . S
C565 C569 1.495 . S
C566 C565 1.392 . S
C566 C567 1.385 . S
C566 C568 1.478 . S
C567 H561 0.930 . S
C567 C563 1.400 . S
C567 C566 1.385 . S
C568 C566 1.478 . S
C568 C570 1.381 . S
C568 C574 1.383 . S
C569 C565 1.495 . S
C569 H575 0.959 . S
C569 H576 0.961 . S
C569 H577 0.960 . S
C570 C568 1.381 . S
C570 C571 1.394 . S
C570 H578 0.930 . S
C571 C570 1.394 . S
C571 C572 1.383 . S
C571 H579 0.929 . S
C572 C571 1.383 . S
C572 C573 1.377 . S
C573 H557 0.930 . S
C573 C572 1.377 . S
C573 C574 1.379 . S
C574 H558 0.931 . S
C574 C568 1.383 . S
C574 C573 1.379 . S
H575 C569 0.959 . S
H576 C569 0.961 . S
H577 C569 0.960 . S
H578 C570 0.930 . S
H579 C571 0.929 . S
H580 C588 0.929 . S
H581 C590 0.930 . S
H582 C592 0.930 . S
H583 C595 0.929 . S
H584 C598 0.930 . S
H585 C600 0.960 . S
H586 C600 0.960 . S
H587 C600 0.960 . S
C588 H580 0.929 . S
C588 C589 1.377 . S
C588 C590 1.384 . S
C589 C588 1.377 . S
C589 C595 1.390 . S
C590 H581 0.930 . S
C590 C588 1.384 . S
C590 C591 1.372 . S
C591 C590 1.372 . S
C591 C592 1.400 . S
C591 C596 1.490 . S
C592 H582 0.930 . S
C592 C591 1.400 . S
C592 C595 1.386 . S
H593 C609 0.930 . S
H594 C610 0.931 . S
C595 H583 0.929 . S
C595 C589 1.390 . S
C595 C592 1.386 . S
C596 C591 1.490 . S
C596 C598 1.395 . S
C596 C599 1.403 . S
H597 C603 0.930 . S
C598 H584 0.930 . S
C598 C596 1.395 . S
C598 C601 1.403 . S
C599 C596 1.403 . S
C599 C600 1.524 . S
C599 C603 1.400 . S
C600 H585 0.960 . S
C600 H586 0.960 . S
C600 H587 0.960 . S
C600 C599 1.524 . S
C601 C598 1.403 . S
C601 C602 1.392 . S
C601 C605 1.495 . S
C602 C601 1.392 . S
C602 C603 1.385 . S
C602 C604 1.478 . S
C603 H597 0.930 . S
C603 C599 1.400 . S
C603 C602 1.385 . S
C604 C602 1.478 . S
C604 C606 1.381 . S
C604 C610 1.383 . S
C605 C601 1.495 . S
C605 H611 0.959 . S
C605 H612 0.961 . S
C605 H613 0.960 . S
C606 C604 1.381 . S
C606 C607 1.394 . S
C606 H614 0.930 . S
C607 C606 1.394 . S
C607 C608 1.383 . S
C607 H615 0.929 . S
C608 C607 1.383 . S
C608 C609 1.377 . S
C609 H593 0.930 . S
C609 C608 1.377 . S
C609 C610 1.379 . S
C610 H594 0.931 . S
C610 C604 1.383 . S
C610 C609 1.379 . S
H611 C605 0.959 . S
H612 C605 0.961 . S
H613 C605 0.960 . S
H614 C606 0.930 . S
H615 C607 0.929 . S
H616 C624 0.929 . S
H617 C626 0.930 . S
H618 C628 0.930 . S
H619 C631 0.929 . S
H620 C634 0.930 . S
H621 C636 0.960 . S
H622 C636 0.960 . S
H623 C636 0.960 . S
C624 H616 0.929 . S
C624 C625 1.377 . S
C624 C626 1.384 . S
C625 C624 1.377 . S
C625 C631 1.390 . S
C626 H617 0.930 . S
C626 C624 1.384 . S
C626 C627 1.372 . S
C627 C626 1.372 . S
C627 C628 1.400 . S
C627 C632 1.490 . S
C628 H618 0.930 . S
C628 C627 1.400 . S
C628 C631 1.386 . S
H629 C645 0.930 . S
H630 C646 0.931 . S
C631 H619 0.929 . S
C631 C625 1.390 . S
C631 C628 1.386 . S
C632 C627 1.490 . S
C632 C634 1.395 . S
C632 C635 1.403 . S
H633 C639 0.930 . S
C634 H620 0.930 . S
C634 C632 1.395 . S
C634 C637 1.403 . S
C635 C632 1.403 . S
C635 C636 1.524 . S
C635 C639 1.400 . S
C636 H621 0.960 . S
C636 H622 0.960 . S
C636 H623 0.960 . S
C636 C635 1.524 . S
C637 C634 1.403 . S
C637 C638 1.392 . S
C637 C641 1.495 . S
C638 C637 1.392 . S
C638 C639 1.385 . S
C638 C640 1.478 . S
C639 H633 0.930 . S
C639 C635 1.400 . S
C639 C638 1.385 . S
C640 C638 1.478 . S
C640 C642 1.381 . S
C640 C646 1.383 . S
C641 C637 1.495 . S
C641 H647 0.959 . S
C641 H648 0.961 . S
C641 H649 0.960 . S
C642 C640 1.381 . S
C642 C643 1.394 . S
C642 H650 0.930 . S
C643 C642 1.394 . S
C643 C644 1.383 . S
C643 H651 0.929 . S
C644 C643 1.383 . S
C644 C645 1.377 . S
C645 H629 0.930 . S
C645 C644 1.377 . S
C645 C646 1.379 . S
C646 H630 0.931 . S
C646 C640 1.383 . S
C646 C645 1.379 . S
H647 C641 0.959 . S
H648 C641 0.961 . S
H649 C641 0.960 . S
H650 C642 0.930 . S
H651 C643 0.929 . S
H652 C660 0.929 . S
H653 C662 0.930 . S
H654 C664 0.930 . S
H655 C667 0.929 . S
H656 C670 0.930 . S
H657 C672 0.960 . S
H658 C672 0.960 . S
H659 C672 0.960 . S
C660 H652 0.929 . S
C660 C661 1.377 . S
C660 C662 1.384 . S
C661 C660 1.377 . S
C661 C667 1.390 . S
C662 H653 0.930 . S
C662 C660 1.384 . S
C662 C663 1.372 . S
C663 C662 1.372 . S
C663 C664 1.400 . S
C663 C668 1.490 . S
C664 H654 0.930 . S
C664 C663 1.400 . S
C664 C667 1.386 . S
H665 C681 0.930 . S
H666 C682 0.931 . S
C667 H655 0.929 . S
C667 C661 1.390 . S
C667 C664 1.386 . S
C668 C663 1.490 . S
C668 C670 1.395 . S
C668 C671 1.403 . S
H669 C675 0.930 . S
C670 H656 0.930 . S
C670 C668 1.395 . S
C670 C673 1.403 . S
C671 C668 1.403 . S
C671 C672 1.524 . S
C671 C675 1.400 . S
C672 H657 0.960 . S
C672 H658 0.960 . S
C672 H659 0.960 . S
C672 C671 1.524 . S
C673 C670 1.403 . S
C673 C674 1.392 . S
C673 C677 1.495 . S
C674 C673 1.392 . S
C674 C675 1.385 . S
C674 C676 1.478 . S
C675 H669 0.930 . S
C675 C671 1.400 . S
C675 C674 1.385 . S
C676 C674 1.478 . S
C676 C678 1.381 . S
C676 C682 1.383 . S
C677 C673 1.495 . S
C677 H683 0.959 . S
C677 H684 0.961 . S
C677 H685 0.960 . S
C678 C676 1.381 . S
C678 C679 1.394 . S
C678 H686 0.930 . S
C679 C678 1.394 . S
C679 C680 1.383 . S
C679 H687 0.929 . S
C680 C679 1.383 . S
C680 C681 1.377 . S
C681 H665 0.930 . S
C681 C680 1.377 . S
C681 C682 1.379 . S
C682 H666 0.931 . S
C682 C676 1.383 . S
C682 C681 1.379 . S
H683 C677 0.959 . S
H684 C677 0.961 . S
H685 C677 0.960 . S
H686 C678 0.930 . S
H687 C679 0.929 . S
H688 C696 0.929 . S
H689 C698 0.930 . S
H690 C700 0.930 . S
H691 C703 0.929 . S
H692 C706 0.930 . S
H693 C708 0.960 . S
H694 C708 0.960 . S
H695 C708 0.960 . S
C696 H688 0.929 . S
C696 C697 1.377 . S
C696 C698 1.384 . S
C697 C696 1.377 . S
C697 C703 1.390 . S
C698 H689 0.930 . S
C698 C696 1.384 . S
C698 C699 1.372 . S
C699 C698 1.372 . S
C699 C700 1.400 . S
C699 C704 1.490 . S
C700 H690 0.930 . S
C700 C699 1.400 . S
C700 C703 1.386 . S
H701 C717 0.930 . S
H702 C718 0.931 . S
C703 H691 0.929 . S
C703 C697 1.390 . S
C703 C700 1.386 . S
C704 C699 1.490 . S
C704 C706 1.395 . S
C704 C707 1.403 . S
H705 C711 0.930 . S
C706 H692 0.930 . S
C706 C704 1.395 . S
C706 C709 1.403 . S
C707 C704 1.403 . S
C707 C708 1.524 . S
C707 C711 1.400 . S
C708 H693 0.960 . S
C708 H694 0.960 . S
C708 H695 0.960 . S
C708 C707 1.524 . S
C709 C706 1.403 . S
C709 C710 1.392 . S
C709 C713 1.495 . S
C710 C709 1.392 . S
C710 C711 1.385 . S
C710 C712 1.478 . S
C711 H705 0.930 . S
C711 C707 1.400 . S
C711 C710 1.385 . S
C712 C710 1.478 . S
C712 C714 1.381 . S
C712 C718 1.383 . S
C713 C709 1.495 . S
C713 H719 0.959 . S
C713 H720 0.961 . S
C713 H721 0.960 . S
C714 C712 1.381 . S
C714 C715 1.394 . S
C714 H722 0.930 . S
C715 C714 1.394 . S
C715 C716 1.383 . S
C715 H723 0.929 . S
C716 C715 1.383 . S
C716 C717 1.377 . S
C717 H701 0.930 . S
C717 C716 1.377 . S
C717 C718 1.379 . S
C718 H702 0.931 . S
C718 C712 1.383 . S
C718 C717 1.379 . S
H719 C713 0.959 . S
H720 C713 0.961 . S
H721 C713 0.960 . S
H722 C714 0.930 . S
H723 C715 0.929 . S
H724 C732 0.929 . S
H725 C734 0.930 . S
H726 C736 0.930 . S
H727 C739 0.929 . S
H728 C742 0.930 . S
H729 C744 0.960 . S
H730 C744 0.960 . S
H731 C744 0.960 . S
C732 H724 0.929 . S
C732 C733 1.377 . S
C732 C734 1.384 . S
C733 C732 1.377 . S
C733 C739 1.390 . S
C734 H725 0.930 . S
C734 C732 1.384 . S
C734 C735 1.372 . S
C735 C734 1.372 . S
C735 C736 1.400 . S
C735 C740 1.490 . S
C736 H726 0.930 . S
C736 C735 1.400 . S
C736 C739 1.386 . S
H737 C753 0.930 . S
H738 C754 0.931 . S
C739 H727 0.929 . S
C739 C733 1.390 . S
C739 C736 1.386 . S
C740 C735 1.490 . S
C740 C742 1.395 . S
C740 C743 1.403 . S
H741 C747 0.930 . S
C742 H728 0.930 . S
C742 C740 1.395 . S
C742 C745 1.403 . S
C743 C740 1.403 . S
C743 C744 1.524 . S
C743 C747 1.400 . S
C744 H729 0.960 . S
C744 H730 0.960 . S
C744 H731 0.960 . S
C744 C743 1.524 . S
C745 C742 1.403 . S
C745 C746 1.392 . S
C745 C749 1.495 . S
C746 C745 1.392 . S
C746 C747 1.385 . S
C746 C748 1.478 . S
C747 H741 0.930 . S
C747 C743 1.400 . S
C747 C746 1.385 . S
C748 C746 1.478 . S
C748 C750 1.381 . S
C748 C754 1.383 . S
C749 C745 1.495 . S
C749 H755 0.959 . S
C749 H756 0.961 . S
C749 H757 0.960 . S
C750 C748 1.381 . S
C750 C751 1.394 . S
C750 H758 0.930 . S
C751 C750 1.394 . S
C751 C752 1.383 . S
C751 H759 0.929 . S
C752 C751 1.383 . S
C752 C753 1.377 . S
C753 H737 0.930 . S
C753 C752 1.377 . S
C753 C754 1.379 . S
C754 H738 0.931 . S
C754 C748 1.383 . S
C754 C753 1.379 . S
H755 C749 0.959 . S
H756 C749 0.961 . S
H757 C749 0.960 . S
H758 C750 0.930 . S
H759 C751 0.929 . S
H760 C768 0.929 . S
H761 C770 0.930 . S
H762 C772 0.930 . S
H763 C775 0.929 . S
H764 C778 0.930 . S
H765 C780 0.960 . S
H766 C780 0.960 . S
H767 C780 0.960 . S
C768 H760 0.929 . S
C768 C769 1.377 . S
C768 C770 1.384 . S
C769 C768 1.377 . S
C769 C775 1.390 . S
C770 H761 0.930 . S
C770 C768 1.384 . S
C770 C771 1.372 . S
C771 C770 1.372 . S
C771 C772 1.400 . S
C771 C776 1.490 . S
C772 H762 0.930 . S
C772 C771 1.400 . S
C772 C775 1.386 . S
H773 C789 0.930 . S
H774 C790 0.931 . S
C775 H763 0.929 . S
C775 C769 1.390 . S
C775 C772 1.386 . S
C776 C771 1.490 . S
C776 C778 1.395 . S
C776 C779 1.403 . S
H777 C783 0.930 . S
C778 H764 0.930 . S
C778 C776 1.395 . S
C778 C781 1.403 . S
C779 C776 1.403 . S
C779 C780 1.524 . S
C779 C783 1.400 . S
C780 H765 0.960 . S
C780 H766 0.960 . S
C780 H767 0.960 . S
C780 C779 1.524 . S
C781 C778 1.403 . S
C781 C782 1.392 . S
C781 C785 1.495 . S
C782 C781 1.392 . S
C782 C783 1.385 . S
C782 C784 1.478 . S
C783 H777 0.930 . S
C783 C779 1.400 . S
C783 C782 1.385 . S
C784 C782 1.478 . S
C784 C786 1.381 . S
C784 C790 1.383 . S
C785 C781 1.495 . S
C785 H791 0.959 . S
C785 H792 0.961 . S
C785 H793 0.960 . S
C786 C784 1.381 . S
C786 C787 1.394 . S
C786 H794 0.930 . S
C787 C786 1.394 . S
C787 C788 1.383 . S
C787 H795 0.929 . S
C788 C787 1.383 . S
C788 C789 1.377 . S
C789 H773 0.930 . S
C789 C788 1.377 . S
C789 C790 1.379 . S
C790 H774 0.931 . S
C790 C784 1.383 . S
C790 C789 1.379 . S
H791 C785 0.959 . S
H792 C785 0.961 . S
H793 C785 0.960 . S
H794 C786 0.930 . S
H795 C787 0.929 . S
H796 C804 0.929 . S
H797 C806 0.930 . S
H798 C808 0.930 . S
H799 C811 0.929 . S
H800 C814 0.930 . S
H801 C816 0.960 . S
H802 C816 0.960 . S
H803 C816 0.960 . S
C804 H796 0.929 . S
C804 C805 1.377 . S
C804 C806 1.384 . S
C805 C804 1.377 . S
C805 C811 1.390 . S
C806 H797 0.930 . S
C806 C804 1.384 . S
C806 C807 1.372 . S
C807 C806 1.372 . S
C807 C808 1.400 . S
C807 C812 1.490 . S
C808 H798 0.930 . S
C808 C807 1.400 . S
C808 C811 1.386 . S
H809 C825 0.930 . S
H810 C826 0.931 . S
C811 H799 0.929 . S
C811 C805 1.390 . S
C811 C808 1.386 . S
C812 C807 1.490 . S
C812 C814 1.395 . S
C812 C815 1.403 . S
H813 C819 0.930 . S
C814 H800 0.930 . S
C814 C812 1.395 . S
C814 C817 1.403 . S
C815 C812 1.403 . S
C815 C816 1.524 . S
C815 C819 1.400 . S
C816 H801 0.960 . S
C816 H802 0.960 . S
C816 H803 0.960 . S
C816 C815 1.524 . S
C817 C814 1.403 . S
C817 C818 1.392 . S
C817 C821 1.495 . S
C818 C817 1.392 . S
C818 C819 1.385 . S
C818 C820 1.478 . S
C819 H813 0.930 . S
C819 C815 1.400 . S
C819 C818 1.385 . S
C820 C818 1.478 . S
C820 C822 1.381 . S
C820 C826 1.383 . S
C821 C817 1.495 . S
C821 H827 0.959 . S
C821 H828 0.961 . S
C821 H829 0.960 . S
C822 C820 1.381 . S
C822 C823 1.394 . S
C822 H830 0.930 . S
C823 C822 1.394 . S
C823 C824 1.383 . S
C823 H831 0.929 . S
C824 C823 1.383 . S
C824 C825 1.377 . S
C825 H809 0.930 . S
C825 C824 1.377 . S
C825 C826 1.379 . S
C826 H810 0.931 . S
C826 C820 1.383 . S
C826 C825 1.379 . S
H827 C821 0.959 . S
H828 C821 0.961 . S
H829 C821 0.960 . S
H830 C822 0.930 . S
H831 C823 0.929 . S
H832 C840 0.929 . S
H833 C842 0.930 . S
H834 C844 0.930 . S
H835 C847 0.929 . S
H836 C850 0.930 . S
H837 C852 0.960 . S
H838 C852 0.960 . S
H839 C852 0.960 . S
C840 H832 0.929 . S
C840 C841 1.377 . S
C840 C842 1.384 . S
C841 C840 1.377 . S
C841 C847 1.390 . S
C842 H833 0.930 . S
C842 C840 1.384 . S
C842 C843 1.372 . S
C843 C842 1.372 . S
C843 C844 1.400 . S
C843 C848 1.490 . S
C844 H834 0.930 . S
C844 C843 1.400 . S
C844 C847 1.386 . S
H845 C861 0.930 . S
H846 C862 0.931 . S
C847 H835 0.929 . S
C847 C841 1.390 . S
C847 C844 1.386 . S
C848 C843 1.490 . S
C848 C850 1.395 . S
C848 C851 1.403 . S
H849 C855 0.930 . S
C850 H836 0.930 . S
C850 C848 1.395 . S
C850 C853 1.403 . S
C851 C848 1.403 . S
C851 C852 1.524 . S
C851 C855 1.400 . S
C852 H837 0.960 . S
C852 H838 0.960 . S
C852 H839 0.960 . S
C852 C851 1.524 . S
C853 C850 1.403 . S
C853 C854 1.392 . S
C853 C857 1.495 . S
C854 C853 1.392 . S
C854 C855 1.385 . S
C854 C856 1.478 . S
C855 H849 0.930 . S
C855 C851 1.400 . S
C855 C854 1.385 . S
C856 C854 1.478 . S
C856 C858 1.381 . S
C856 C862 1.383 . S
C857 C853 1.495 . S
C857 H863 0.959 . S
C857 H864 0.961 . S
C857 H865 0.960 . S
C858 C856 1.381 . S
C858 C859 1.394 . S
C858 H866 0.930 . S
C859 C858 1.394 . S
C859 C860 1.383 . S
C859 H867 0.929 . S
C860 C859 1.383 . S
C860 C861 1.377 . S
C861 H845 0.930 . S
C861 C860 1.377 . S
C861 C862 1.379 . S
C862 H846 0.931 . S
C862 C856 1.383 . S
C862 C861 1.379 . S
H863 C857 0.959 . S
H864 C857 0.961 . S
H865 C857 0.960 . S
H866 C858 0.930 . S
H867 C859 0.929 . S
H868 C876 0.929 . S
H869 C878 0.930 . S
H870 C880 0.930 . S
H871 C883 0.929 . S
H872 C886 0.930 . S
H873 C888 0.960 . S
H874 C888 0.960 . S
H875 C888 0.960 . S
C876 H868 0.929 . S
C876 C877 1.377 . S
C876 C878 1.384 . S
C877 C876 1.377 . S
C877 C883 1.390 . S
C878 H869 0.930 . S
C878 C876 1.384 . S
C878 C879 1.372 . S
C879 C878 1.372 . S
C879 C880 1.400 . S
C879 C884 1.490 . S
C880 H870 0.930 . S
C880 C879 1.400 . S
C880 C883 1.386 . S
H881 C897 0.930 . S
H882 C898 0.931 . S
C883 H871 0.929 . S
C883 C877 1.390 . S
C883 C880 1.386 . S
C884 C879 1.490 . S
C884 C886 1.395 . S
C884 C887 1.403 . S
H885 C891 0.930 . S
C886 H872 0.930 . S
C886 C884 1.395 . S
C886 C889 1.403 . S
C887 C884 1.403 . S
C887 C888 1.524 . S
C887 C891 1.400 . S
C888 H873 0.960 . S
C888 H874 0.960 . S
C888 H875 0.960 . S
C888 C887 1.524 . S
C889 C886 1.403 . S
C889 C890 1.392 . S
C889 C893 1.495 . S
C890 C889 1.392 . S
C890 C891 1.385 . S
C890 C892 1.478 . S
C891 H885 0.930 . S
C891 C887 1.400 . S
C891 C890 1.385 . S
C892 C890 1.478 . S
C892 C894 1.381 . S
C892 C898 1.383 . S
C893 C889 1.495 . S
C893 H899 0.959 . S
C893 H900 0.961 . S
C893 H901 0.960 . S
C894 C892 1.381 . S
C894 C895 1.394 . S
C894 H902 0.930 . S
C895 C894 1.394 . S
C895 C896 1.383 . S
C895 H903 0.929 . S
C896 C895 1.383 . S
C896 C897 1.377 . S
C897 H881 0.930 . S
C897 C896 1.377 . S
C897 C898 1.379 . S
C898 H882 0.931 . S
C898 C892 1.383 . S
C898 C897 1.379 . S
H899 C893 0.959 . S
H900 C893 0.961 . S
H901 C893 0.960 . S
H902 C894 0.930 . S
H903 C895 0.929 . S
H904 C912 0.929 . S
H905 C914 0.930 . S
H906 C916 0.930 . S
H907 C919 0.929 . S
H908 C922 0.930 . S
H909 C924 0.960 . S
H910 C924 0.960 . S
H911 C924 0.960 . S
C912 H904 0.929 . S
C912 C913 1.377 . S
C912 C914 1.384 . S
C913 C912 1.377 . S
C913 C919 1.390 . S
C914 H905 0.930 . S
C914 C912 1.384 . S
C914 C915 1.372 . S
C915 C914 1.372 . S
C915 C916 1.400 . S
C915 C920 1.490 . S
C916 H906 0.930 . S
C916 C915 1.400 . S
C916 C919 1.386 . S
H917 C933 0.930 . S
H918 C934 0.931 . S
C919 H907 0.929 . S
C919 C913 1.390 . S
C919 C916 1.386 . S
C920 C915 1.490 . S
C920 C922 1.395 . S
C920 C923 1.403 . S
H921 C927 0.930 . S
C922 H908 0.930 . S
C922 C920 1.395 . S
C922 C925 1.403 . S
C923 C920 1.403 . S
C923 C924 1.524 . S
C923 C927 1.400 . S
C924 H909 0.960 . S
C924 H910 0.960 . S
C924 H911 0.960 . S
C924 C923 1.524 . S
C925 C922 1.403 . S
C925 C926 1.392 . S
C925 C929 1.495 . S
C926 C925 1.392 . S
C926 C927 1.385 . S
C926 C928 1.478 . S
C927 H921 0.930 . S
C927 C923 1.400 . S
C927 C926 1.385 . S
C928 C926 1.478 . S
C928 C930 1.381 . S
C928 C934 1.383 . S
C929 C925 1.495 . S
C929 H935 0.959 . S
C929 H936 0.961 . S
C929 H937 0.960 . S
C930 C928 1.381 . S
C930 C931 1.394 . S
C930 H938 0.930 . S
C931 C930 1.394 . S
C931 C932 1.383 . S
C931 H939 0.929 . S
C932 C931 1.383 . S
C932 C933 1.377 . S
C933 H917 0.930 . S
C933 C932 1.377 . S
C933 C934 1.379 . S
C934 H918 0.931 . S
C934 C928 1.383 . S
C934 C933 1.379 . S
H935 C929 0.959 . S
H936 C929 0.961 . S
H937 C929 0.960 . S
H938 C930 0.930 . S
H939 C931 0.929 . S
H940 C948 0.929 . S
H941 C950 0.930 . S
H942 C952 0.930 . S
H943 C955 0.929 . S
H944 C958 0.930 . S
H945 C960 0.960 . S
H946 C960 0.960 . S
H947 C960 0.960 . S
C948 H940 0.929 . S
C948 C949 1.377 . S
C948 C950 1.384 . S
C949 C948 1.377 . S
C949 C955 1.390 . S
C950 H941 0.930 . S
C950 C948 1.384 . S
C950 C951 1.372 . S
C951 C950 1.372 . S
C951 C952 1.400 . S
C951 C956 1.490 . S
C952 H942 0.930 . S
C952 C951 1.400 . S
C952 C955 1.386 . S
H953 C969 0.930 . S
H954 C970 0.931 . S
C955 H943 0.929 . S
C955 C949 1.390 . S
C955 C952 1.386 . S
C956 C951 1.490 . S
C956 C958 1.395 . S
C956 C959 1.403 . S
H957 C963 0.930 . S
C958 H944 0.930 . S
C958 C956 1.395 . S
C958 C961 1.403 . S
C959 C956 1.403 . S
C959 C960 1.524 . S
C959 C963 1.400 . S
C960 H945 0.960 . S
C960 H946 0.960 . S
C960 H947 0.960 . S
C960 C959 1.524 . S
C961 C958 1.403 . S
C961 C962 1.392 . S
C961 C965 1.495 . S
C962 C961 1.392 . S
C962 C963 1.385 . S
C962 C964 1.478 . S
C963 H957 0.930 . S
C963 C959 1.400 . S
C963 C962 1.385 . S
C964 C962 1.478 . S
C964 C966 1.381 . S
C964 C970 1.383 . S
C965 C961 1.495 . S
C965 H971 0.959 . S
C965 H972 0.961 . S
C965 H973 0.960 . S
C966 C964 1.381 . S
C966 C967 1.394 . S
C966 H974 0.930 . S
C967 C966 1.394 . S
C967 C968 1.383 . S
C967 H975 0.929 . S
C968 C967 1.383 . S
C968 C969 1.377 . S
C969 H953 0.930 . S
C969 C968 1.377 . S
C969 C970 1.379 . S
C970 H954 0.931 . S
C970 C964 1.383 . S
C970 C969 1.379 . S
H971 C965 0.959 . S
H972 C965 0.961 . S
H973 C965 0.960 . S
H974 C966 0.930 . S
H975 C967 0.929 . S
H976 C984 0.929 . S
H977 C986 0.930 . S
H978 C988 0.930 . S
H979 C991 0.929 . S
H980 C994 0.930 . S
H981 C996 0.960 . S
H982 C996 0.960 . S
H983 C996 0.960 . S
C984 H976 0.929 . S
C984 C985 1.377 . S
C984 C986 1.384 . S
C985 C984 1.377 . S
C985 C991 1.390 . S
C986 H977 0.930 . S
C986 C984 1.384 . S
C986 C987 1.372 . S
C987 C986 1.372 . S
C987 C988 1.400 . S
C987 C992 1.490 . S
C988 H978 0.930 . S
C988 C987 1.400 . S
C988 C991 1.386 . S
H989 C1005 0.930 . S
H990 C1006 0.931 . S
C991 H979 0.929 . S
C991 C985 1.390 . S
C991 C988 1.386 . S
C992 C987 1.490 . S
C992 C994 1.395 . S
C992 C995 1.403 . S
H993 C999 0.930 . S
C994 H980 0.930 . S
C994 C992 1.395 . S
C994 C997 1.403 . S
C995 C992 1.403 . S
C995 C996 1.524 . S
C995 C999 1.400 . S
C996 H981 0.960 . S
C996 H982 0.960 . S
C996 H983 0.960 . S
C996 C995 1.524 . S
C997 C994 1.403 . S
C997 C998 1.392 . S
C997 C1001 1.495 . S
C998 C997 1.392 . S
C998 C999 1.385 . S
C998 C1000 1.478 . S
C999 H993 0.930 . S
C999 C995 1.400 . S
C999 C998 1.385 . S
C1000 C998 1.478 . S
C1000 C1002 1.381 . S
C1000 C1006 1.383 . S
C1001 C997 1.495 . S
C1001 H1007 0.959 . S
C1001 H1008 0.961 . S
C1001 H1009 0.960 . S
C1002 C1000 1.381 . S
C1002 C1003 1.394 . S
C1002 H1010 0.930 . S
C1003 C1002 1.394 . S
C1003 C1004 1.383 . S
C1003 H1011 0.929 . S
C1004 C1003 1.383 . S
C1004 C1005 1.377 . S
C1005 H989 0.930 . S
C1005 C1004 1.377 . S
C1005 C1006 1.379 . S
C1006 H990 0.931 . S
C1006 C1000 1.383 . S
C1006 C1005 1.379 . S
H1007 C1001 0.959 . S
H1008 C1001 0.961 . S
H1009 C1001 0.960 . S
H1010 C1002 0.930 . S
H1011 C1003 0.929 . S
H1012 C1020 0.929 . S
H1013 C1022 0.930 . S
H1014 C1024 0.930 . S
H1015 C1027 0.929 . S
H1016 C1030 0.930 . S
H1017 C1032 0.960 . S
H1018 C1032 0.960 . S
H1019 C1032 0.960 . S
C1020 H1012 0.929 . S
C1020 C1021 1.377 . S
C1020 C1022 1.384 . S
C1021 C1020 1.377 . S
C1021 C1027 1.390 . S
C1022 H1013 0.930 . S
C1022 C1020 1.384 . S
C1022 C1023 1.372 . S
C1023 C1022 1.372 . S
C1023 C1024 1.400 . S
C1023 C1028 1.490 . S
C1024 H1014 0.930 . S
C1024 C1023 1.400 . S
C1024 C1027 1.386 . S
H1025 C1041 0.930 . S
H1026 C1042 0.931 . S
C1027 H1015 0.929 . S
C1027 C1021 1.390 . S
C1027 C1024 1.386 . S
C1028 C1023 1.490 . S
C1028 C1030 1.395 . S
C1028 C1031 1.403 . S
H1029 C1035 0.930 . S
C1030 H1016 0.930 . S
C1030 C1028 1.395 . S
C1030 C1033 1.403 . S
C1031 C1028 1.403 . S
C1031 C1032 1.524 . S
C1031 C1035 1.400 . S
C1032 H1017 0.960 . S
C1032 H1018 0.960 . S
C1032 H1019 0.960 . S
C1032 C1031 1.524 . S
C1033 C1030 1.403 . S
C1033 C1034 1.392 . S
C1033 C1037 1.495 . S
C1034 C1033 1.392 . S
C1034 C1035 1.385 . S
C1034 C1036 1.478 . S
C1035 H1029 0.930 . S
C1035 C1031 1.400 . S
C1035 C1034 1.385 . S
C1036 C1034 1.478 . S
C1036 C1038 1.381 . S
C1036 C1042 1.383 . S
C1037 C1033 1.495 . S
C1037 H1043 0.959 . S
C1037 H1044 0.961 . S
C1037 H1045 0.960 . S
C1038 C1036 1.381 . S
C1038 C1039 1.394 . S
C1038 H1046 0.930 . S
C1039 C1038 1.394 . S
C1039 C1040 1.383 . S
C1039 H1047 0.929 . S
C1040 C1039 1.383 . S
C1040 C1041 1.377 . S
C1041 H1025 0.930 . S
C1041 C1040 1.377 . S
C1041 C1042 1.379 . S
C1042 H1026 0.931 . S
C1042 C1036 1.383 . S
C1042 C1041 1.379 . S
H1043 C1037 0.959 . S
H1044 C1037 0.961 . S
H1045 C1037 0.960 . S
H1046 C1038 0.930 . S
H1047 C1039 0.929 . S
H1048 C1056 0.929 . S
H1049 C1058 0.930 . S
H1050 C1060 0.930 . S
H1051 C1063 0.929 . S
H1052 C1066 0.930 . S
H1053 C1068 0.960 . S
H1054 C1068 0.960 . S
H1055 C1068 0.960 . S
C1056 H1048 0.929 . S
C1056 C1057 1.377 . S
C1056 C1058 1.384 . S
C1057 C1056 1.377 . S
C1057 C1063 1.390 . S
C1058 H1049 0.930 . S
C1058 C1056 1.384 . S
C1058 C1059 1.372 . S
C1059 C1058 1.372 . S
C1059 C1060 1.400 . S
C1059 C1064 1.490 . S
C1060 H1050 0.930 . S
C1060 C1059 1.400 . S
C1060 C1063 1.386 . S
H1061 C1077 0.930 . S
H1062 C1078 0.931 . S
C1063 H1051 0.929 . S
C1063 C1057 1.390 . S
C1063 C1060 1.386 . S
C1064 C1059 1.490 . S
C1064 C1066 1.395 . S
C1064 C1067 1.403 . S
H1065 C1071 0.930 . S
C1066 H1052 0.930 . S
C1066 C1064 1.395 . S
C1066 C1069 1.403 . S
C1067 C1064 1.403 . S
C1067 C1068 1.524 . S
C1067 C1071 1.400 . S
C1068 H1053 0.960 . S
C1068 H1054 0.960 . S
C1068 H1055 0.960 . S
C1068 C1067 1.524 . S
C1069 C1066 1.403 . S
C1069 C1070 1.392 . S
C1069 C1073 1.495 . S
C1070 C1069 1.392 . S
C1070 C1071 1.385 . S
C1070 C1072 1.478 . S
C1071 H1065 0.930 . S
C1071 C1067 1.400 . S
C1071 C1070 1.385 . S
C1072 C1070 1.478 . S
C1072 C1074 1.381 . S
C1072 C1078 1.383 . S
C1073 C1069 1.495 . S
C1073 H1079 0.959 . S
C1073 H1080 0.961 . S
C1073 H1081 0.960 . S
C1074 C1072 1.381 . S
C1074 C1075 1.394 . S
C1074 H1082 0.930 . S
C1075 C1074 1.394 . S
C1075 C1076 1.383 . S
C1075 H1083 0.929 . S
C1076 C1075 1.383 . S
C1076 C1077 1.377 . S
C1077 H1061 0.930 . S
C1077 C1076 1.377 . S
C1077 C1078 1.379 . S
C1078 H1062 0.931 . S
C1078 C1072 1.383 . S
C1078 C1077 1.379 . S
H1079 C1073 0.959 . S
H1080 C1073 0.961 . S
H1081 C1073 0.960 . S
H1082 C1074 0.930 . S
H1083 C1075 0.929 . S
H1084 C1092 0.929 . S
H1085 C1094 0.930 . S
H1086 C1096 0.930 . S
H1087 C1099 0.929 . S
H1088 C1102 0.930 . S
H1089 C1104 0.960 . S
H1090 C1104 0.960 . S
H1091 C1104 0.960 . S
C1092 H1084 0.929 . S
C1092 C1093 1.377 . S
C1092 C1094 1.384 . S
C1093 C1092 1.377 . S
C1093 C1099 1.390 . S
C1094 H1085 0.930 . S
C1094 C1092 1.384 . S
C1094 C1095 1.372 . S
C1095 C1094 1.372 . S
C1095 C1096 1.400 . S
C1095 C1100 1.490 . S
C1096 H1086 0.930 . S
C1096 C1095 1.400 . S
C1096 C1099 1.386 . S
H1097 C1113 0.930 . S
H1098 C1114 0.931 . S
C1099 H1087 0.929 . S
C1099 C1093 1.390 . S
C1099 C1096 1.386 . S
C1100 C1095 1.490 . S
C1100 C1102 1.395 . S
C1100 C1103 1.403 . S
H1101 C1107 0.930 . S
C1102 H1088 0.930 . S
C1102 C1100 1.395 . S
C1102 C1105 1.403 . S
C1103 C1100 1.403 . S
C1103 C1104 1.524 . S
C1103 C1107 1.400 . S
C1104 H1089 0.960 . S
C1104 H1090 0.960 . S
C1104 H1091 0.960 . S
C1104 C1103 1.524 . S
C1105 C1102 1.403 . S
C1105 C1106 1.392 . S
C1105 C1109 1.495 . S
C1106 C1105 1.392 . S
C1106 C1107 1.385 . S
C1106 C1108 1.478 . S
C1107 H1101 0.930 . S
C1107 C1103 1.400 . S
C1107 C1106 1.385 . S
C1108 C1106 1.478 . S
C1108 C1110 1.381 . S
C1108 C1114 1.383 . S
C1109 C1105 1.495 . S
C1109 H1115 0.959 . S
C1109 H1116 0.961 . S
C1109 H1117 0.960 . S
C1110 C1108 1.381 . S
C1110 C1111 1.394 . S
C1110 H1118 0.930 . S
C1111 C1110 1.394 . S
C1111 C1112 1.383 . S
C1111 H1119 0.929 . S
C1112 C1111 1.383 . S
C1112 C1113 1.377 . S
C1113 H1097 0.930 . S
C1113 C1112 1.377 . S
C1113 C1114 1.379 . S
C1114 H1098 0.931 . S
C1114 C1108 1.383 . S
C1114 C1113 1.379 . S
H1115 C1109 0.959 . S
H1116 C1109 0.961 . S
H1117 C1109 0.960 . S
H1118 C1110 0.930 . S
H1119 C1111 0.929 . S
H1120 C1128 0.929 . S
H1121 C1130 0.930 . S
H1122 C1132 0.930 . S
H1123 C1135 0.929 . S
H1124 C1138 0.930 . S
H1125 C1140 0.960 . S
H1126 C1140 0.960 . S
H1127 C1140 0.960 . S
C1128 H1120 0.929 . S
C1128 C1129 1.377 . S
C1128 C1130 1.384 . S
C1129 C1128 1.377 . S
C1129 C1135 1.390 . S
C1130 H1121 0.930 . S
C1130 C1128 1.384 . S
C1130 C1131 1.372 . S
C1131 C1130 1.372 . S
C1131 C1132 1.400 . S
C1131 C1136 1.490 . S
C1132 H1122 0.930 . S
C1132 C1131 1.400 . S
C1132 C1135 1.386 . S
H1133 C1149 0.930 . S
H1134 C1150 0.931 . S
C1135 H1123 0.929 . S
C1135 C1129 1.390 . S
C1135 C1132 1.386 . S
C1136 C1131 1.490 . S
C1136 C1138 1.395 . S
C1136 C1139 1.403 . S
H1137 C1143 0.930 . S
C1138 H1124 0.930 . S
C1138 C1136 1.395 . S
C1138 C1141 1.403 . S
C1139 C1136 1.403 . S
C1139 C1140 1.524 . S
C1139 C1143 1.400 . S
C1140 H1125 0.960 . S
C1140 H1126 0.960 . S
C1140 H1127 0.960 . S
C1140 C1139 1.524 . S
C1141 C1138 1.403 . S
C1141 C1142 1.392 . S
C1141 C1145 1.495 . S
C1142 C1141 1.392 . S
C1142 C1143 1.385 . S
C1142 C1144 1.478 . S
C1143 H1137 0.930 . S
C1143 C1139 1.400 . S
C1143 C1142 1.385 . S
C1144 C1142 1.478 . S
C1144 C1146 1.381 . S
C1144 C1150 1.383 . S
C1145 C1141 1.495 . S
C1145 H1151 0.959 . S
C1145 H1152 0.961 . S
C1145 H1153 0.960 . S
C1146 C1144 1.381 . S
C1146 C1147 1.394 . S
C1146 H1154 0.930 . S
C1147 C1146 1.394 . S
C1147 C1148 1.383 . S
C1147 H1155 0.929 . S
C1148 C1147 1.383 . S
C1148 C1149 1.377 . S
C1149 H1133 0.930 . S
C1149 C1148 1.377 . S
C1149 C1150 1.379 . S
C1150 H1134 0.931 . S
C1150 C1144 1.383 . S
C1150 C1149 1.379 . S
H1151 C1145 0.959 . S
H1152 C1145 0.961 . S
H1153 C1145 0.960 . S
H1154 C1146 0.930 . S
H1155 C1147 0.929 . S
H1156 C1164 0.929 . S
H1157 C1166 0.930 . S
H1158 C1168 0.930 . S
H1159 C1171 0.929 . S
H1160 C1174 0.930 . S
H1161 C1176 0.960 . S
H1162 C1176 0.960 . S
H1163 C1176 0.960 . S
C1164 H1156 0.929 . S
C1164 C1165 1.377 . S
C1164 C1166 1.384 . S
C1165 C1164 1.377 . S
C1165 C1171 1.390 . S
C1166 H1157 0.930 . S
C1166 C1164 1.384 . S
C1166 C1167 1.372 . S
C1167 C1166 1.372 . S
C1167 C1168 1.400 . S
C1167 C1172 1.490 . S
C1168 H1158 0.930 . S
C1168 C1167 1.400 . S
C1168 C1171 1.386 . S
H1169 C1185 0.930 . S
H1170 C1186 0.931 . S
C1171 H1159 0.929 . S
C1171 C1165 1.390 . S
C1171 C1168 1.386 . S
C1172 C1167 1.490 . S
C1172 C1174 1.395 . S
C1172 C1175 1.403 . S
H1173 C1179 0.930 . S
C1174 H1160 0.930 . S
C1174 C1172 1.395 . S
C1174 C1177 1.403 . S
C1175 C1172 1.403 . S
C1175 C1176 1.524 . S
C1175 C1179 1.400 . S
C1176 H1161 0.960 . S
C1176 H1162 0.960 . S
C1176 H1163 0.960 . S
C1176 C1175 1.524 . S
C1177 C1174 1.403 . S
C1177 C1178 1.392 . S
C1177 C1181 1.495 . S
C1178 C1177 1.392 . S
C1178 C1179 1.385 . S
C1178 C1180 1.478 . S
C1179 H1173 0.930 . S
C1179 C1175 1.400 . S
C1179 C1178 1.385 . S
C1180 C1178 1.478 . S
C1180 C1182 1.381 . S
C1180 C1186 1.383 . S
C1181 C1177 1.495 . S
C1181 H1187 0.959 . S
C1181 H1188 0.961 . S
C1181 H1189 0.960 . S
C1182 C1180 1.381 . S
C1182 C1183 1.394 . S
C1182 H1190 0.930 . S
C1183 C1182 1.394 . S
C1183 C1184 1.383 . S
C1183 H1191 0.929 . S
C1184 C1183 1.383 . S
C1184 C1185 1.377 . S
C1185 H1169 0.930 . S
C1185 C1184 1.377 . S
C1185 C1186 1.379 . S
C1186 H1170 0.931 . S
C1186 C1180 1.383 . S
C1186 C1185 1.379 . S
H1187 C1181 0.959 . S
H1188 C1181 0.961 . S
H1189 C1181 0.960 . S
H1190 C1182 0.930 . S
H1191 C1183 0.929 . S
H1192 C1200 0.929 . S
H1193 C1202 0.930 . S
H1194 C1204 0.930 . S
H1195 C1207 0.929 . S
H1196 C1210 0.930 . S
H1197 C1212 0.960 . S
H1198 C1212 0.960 . S
H1199 C1212 0.960 . S
C1200 H1192 0.929 . S
C1200 C1201 1.377 . S
C1200 C1202 1.384 . S
C1201 C1200 1.377 . S
C1201 C1207 1.390 . S
C1202 H1193 0.930 . S
C1202 C1200 1.384 . S
C1202 C1203 1.372 . S
C1203 C1202 1.372 . S
C1203 C1204 1.400 . S
C1203 C1208 1.490 . S
C1204 H1194 0.930 . S
C1204 C1203 1.400 . S
C1204 C1207 1.386 . S
H1205 C1221 0.930 . S
H1206 C1222 0.931 . S
C1207 H1195 0.929 . S
C1207 C1201 1.390 . S
C1207 C1204 1.386 . S
C1208 C1203 1.490 . S
C1208 C1210 1.395 . S
C1208 C1211 1.403 . S
H1209 C1215 0.930 . S
C1210 H1196 0.930 . S
C1210 C1208 1.395 . S
C1210 C1213 1.403 . S
C1211 C1208 1.403 . S
C1211 C1212 1.524 . S
C1211 C1215 1.400 . S
C1212 H1197 0.960 . S
C1212 H1198 0.960 . S
C1212 H1199 0.960 . S
C1212 C1211 1.524 . S
C1213 C1210 1.403 . S
C1213 C1214 1.392 . S
C1213 C1217 1.495 . S
C1214 C1213 1.392 . S
C1214 C1215 1.385 . S
C1214 C1216 1.478 . S
C1215 H1209 0.930 . S
C1215 C1211 1.400 . S
C1215 C1214 1.385 . S
C1216 C1214 1.478 . S
C1216 C1218 1.381 . S
C1216 C1222 1.383 . S
C1217 C1213 1.495 . S
C1217 H1223 0.959 . S
C1217 H1224 0.961 . S
C1217 H1225 0.960 . S
C1218 C1216 1.381 . S
C1218 C1219 1.394 . S
C1218 H1226 0.930 . S
C1219 C1218 1.394 . S
C1219 C1220 1.383 . S
C1219 H1227 0.929 . S
C1220 C1219 1.383 . S
C1220 C1221 1.377 . S
C1221 H1205 0.930 . S
C1221 C1220 1.377 . S
C1221 C1222 1.379 . S
C1222 H1206 0.931 . S
C1222 C1216 1.383 . S
C1222 C1221 1.379 . S
H1223 C1217 0.959 . S
H1224 C1217 0.961 . S
H1225 C1217 0.960 . S
H1226 C1218 0.930 . S
H1227 C1219 0.929 . S
H1228 C1236 0.929 . S
H1229 C1238 0.930 . S
H1230 C1240 0.930 . S
H1231 C1243 0.929 . S
H1232 C1246 0.930 . S
H1233 C1248 0.960 . S
H1234 C1248 0.960 . S
H1235 C1248 0.960 . S
C1236 H1228 0.929 . S
C1236 C1237 1.377 . S
C1236 C1238 1.384 . S
C1237 C1236 1.377 . S
C1237 C1243 1.390 . S
C1238 H1229 0.930 . S
C1238 C1236 1.384 . S
C1238 C1239 1.372 . S
C1239 C1238 1.372 . S
C1239 C1240 1.400 . S
C1239 C1244 1.490 . S
C1240 H1230 0.930 . S
C1240 C1239 1.400 . S
C1240 C1243 1.386 . S
H1241 C1257 0.930 . S
H1242 C1258 0.931 . S
C1243 H1231 0.929 . S
C1243 C1237 1.390 . S
C1243 C1240 1.386 . S
C1244 C1239 1.490 . S
C1244 C1246 1.395 . S
C1244 C1247 1.403 . S
H1245 C1251 0.930 . S
C1246 H1232 0.930 . S
C1246 C1244 1.395 . S
C1246 C1249 1.403 . S
C1247 C1244 1.403 . S
C1247 C1248 1.524 . S
C1247 C1251 1.400 . S
C1248 H1233 0.960 . S
C1248 H1234 0.960 . S
C1248 H1235 0.960 . S
C1248 C1247 1.524 . S
C1249 C1246 1.403 . S
C1249 C1250 1.392 . S
C1249 C1253 1.495 . S
C1250 C1249 1.392 . S
C1250 C1251 1.385 . S
C1250 C1252 1.478 . S
C1251 H1245 0.930 . S
C1251 C1247 1.400 . S
C1251 C1250 1.385 . S
C1252 C1250 1.478 . S
C1252 C1254 1.381 . S
C1252 C1258 1.383 . S
C1253 C1249 1.495 . S
C1253 H1259 0.959 . S
C1253 H1260 0.961 . S
C1253 H1261 0.960 . S
C1254 C1252 1.381 . S
C1254 C1255 1.394 . S
C1254 H1262 0.930 . S
C1255 C1254 1.394 . S
C1255 C1256 1.383 . S
C1255 H1263 0.929 . S
C1256 C1255 1.383 . S
C1256 C1257 1.377 . S
C1257 H1241 0.930 . S
C1257 C1256 1.377 . S
C1257 C1258 1.379 . S
C1258 H1242 0.931 . S
C1258 C1252 1.383 . S
C1258 C1257 1.379 . S
H1259 C1253 0.959 . S
H1260 C1253 0.961 . S
H1261 C1253 0.960 . S
H1262 C1254 0.930 . S
H1263 C1255 0.929 . S
H1264 C1272 0.929 . S
H1265 C1274 0.930 . S
H1266 C1276 0.930 . S
H1267 C1279 0.929 . S
H1268 C1282 0.930 . S
H1269 C1284 0.960 . S
H1270 C1284 0.960 . S
H1271 C1284 0.960 . S
C1272 H1264 0.929 . S
C1272 C1273 1.377 . S
C1272 C1274 1.384 . S
C1273 C1272 1.377 . S
C1273 C1279 1.390 . S
C1274 H1265 0.930 . S
C1274 C1272 1.384 . S
C1274 C1275 1.372 . S
C1275 C1274 1.372 . S
C1275 C1276 1.400 . S
C1275 C1280 1.490 . S
C1276 H1266 0.930 . S
C1276 C1275 1.400 . S
C1276 C1279 1.386 . S
H1277 C1293 0.930 . S
H1278 C1294 0.931 . S
C1279 H1267 0.929 . S
C1279 C1273 1.390 . S
C1279 C1276 1.386 . S
C1280 C1275 1.490 . S
C1280 C1282 1.395 . S
C1280 C1283 1.403 . S
H1281 C1287 0.930 . S
C1282 H1268 0.930 . S
C1282 C1280 1.395 . S
C1282 C1285 1.403 . S
C1283 C1280 1.403 . S
C1283 C1284 1.524 . S
C1283 C1287 1.400 . S
C1284 H1269 0.960 . S
C1284 H1270 0.960 . S
C1284 H1271 0.960 . S
C1284 C1283 1.524 . S
C1285 C1282 1.403 . S
C1285 C1286 1.392 . S
C1285 C1289 1.495 . S
C1286 C1285 1.392 . S
C1286 C1287 1.385 . S
C1286 C1288 1.478 . S
C1287 H1281 0.930 . S
C1287 C1283 1.400 . S
C1287 C1286 1.385 . S
C1288 C1286 1.478 . S
C1288 C1290 1.381 . S
C1288 C1294 1.383 . S
C1289 C1285 1.495 . S
C1289 H1295 0.959 . S
C1289 H1296 0.961 . S
C1289 H1297 0.960 . S
C1290 C1288 1.381 . S
C1290 C1291 1.394 . S
C1290 H1298 0.930 . S
C1291 C1290 1.394 . S
C1291 C1292 1.383 . S
C1291 H1299 0.929 . S
C1292 C1291 1.383 . S
C1292 C1293 1.377 . S
C1293 H1277 0.930 . S
C1293 C1292 1.377 . S
C1293 C1294 1.379 . S
C1294 H1278 0.931 . S
C1294 C1288 1.383 . S
C1294 C1293 1.379 . S
H1295 C1289 0.959 . S
H1296 C1289 0.961 . S
H1297 C1289 0.960 . S
H1298 C1290 0.930 . S
H1299 C1291 0.929 . S
H1300 C1308 0.929 . S
H1301 C1310 0.930 . S
H1302 C1312 0.930 . S
H1303 C1315 0.929 . S
H1304 C1318 0.930 . S
H1305 C1320 0.960 . S
H1306 C1320 0.960 . S
H1307 C1320 0.960 . S
C1308 H1300 0.929 . S
C1308 C1309 1.377 . S
C1308 C1310 1.384 . S
C1309 C1308 1.377 . S
C1309 C1315 1.390 . S
C1310 H1301 0.930 . S
C1310 C1308 1.384 . S
C1310 C1311 1.372 . S
C1311 C1310 1.372 . S
C1311 C1312 1.400 . S
C1311 C1316 1.490 . S
C1312 H1302 0.930 . S
C1312 C1311 1.400 . S
C1312 C1315 1.386 . S
H1313 C1329 0.930 . S
H1314 C1330 0.931 . S
C1315 H1303 0.929 . S
C1315 C1309 1.390 . S
C1315 C1312 1.386 . S
C1316 C1311 1.490 . S
C1316 C1318 1.395 . S
C1316 C1319 1.403 . S
H1317 C1323 0.930 . S
C1318 H1304 0.930 . S
C1318 C1316 1.395 . S
C1318 C1321 1.403 . S
C1319 C1316 1.403 . S
C1319 C1320 1.524 . S
C1319 C1323 1.400 . S
C1320 H1305 0.960 . S
C1320 H1306 0.960 . S
C1320 H1307 0.960 . S
C1320 C1319 1.524 . S
C1321 C1318 1.403 . S
C1321 C1322 1.392 . S
C1321 C1325 1.495 . S
C1322 C1321 1.392 . S
C1322 C1323 1.385 . S
C1322 C1324 1.478 . S
C1323 H1317 0.930 . S
C1323 C1319 1.400 . S
C1323 C1322 1.385 . S
C1324 C1322 1.478 . S
C1324 C1326 1.381 . S
C1324 C1330 1.383 . S
C1325 C1321 1.495 . S
C1325 H1331 0.959 . S
C1325 H1332 0.961 . S
C1325 H1333 0.960 . S
C1326 C1324 1.381 . S
C1326 C1327 1.394 . S
C1326 H1334 0.930 . S
C1327 C1326 1.394 . S
C1327 C1328 1.383 . S
C1327 H1335 0.929 . S
C1328 C1327 1.383 . S
C1328 C1329 1.377 . S
C1329 H1313 0.930 . S
C1329 C1328 1.377 . S
C1329 C1330 1.379 . S
C1330 H1314 0.931 . S
C1330 C1324 1.383 . S
C1330 C1329 1.379 . S
H1331 C1325 0.959 . S
H1332 C1325 0.961 . S
H1333 C1325 0.960 . S
H1334 C1326 0.930 . S
H1335 C1327 0.929 . S
C481 C1 1.256 . S
C500 C319 1.298 . S
C517 C40 0.970 . S
C536 C368 0.958 . S
C572 C394 2.404 . S
C553 C99 2.439 . S
C589 C118 2.304 . S
C608 C442 2.237 . S
C644 C354 2.525 . S
C625 C16 2.449 . S
C680 C322 0.912 . S
C661 C60 0.938 . S
C716 C443 1.849 . S
C697 C79 1.893 . S
C752 C411 1.431 . S
C733 C138 1.472 . S
C769 C21 1.743 . S
C788 C439 1.797 . S
C824 C371 2.326 . S
C805 C94 2.386 . S
C841 C133 2.306 . S
C860 C323 2.295 . S
C877 C55 0.752 . S
C896 C408 0.760 . S
C932 C328 1.295 . S
C913 C157 1.254 . S
C949 C196 0.971 . S
C968 C359 0.983 . S
C985 C255 2.437 . S
C1004 C403 2.396 . S
C1021 C289 2.299 . S
C1040 C451 2.238 . S
C1057 C172 2.440 . S
C1076 C363 2.522 . S
C1112 C331 0.913 . S
C1093 C216 0.944 . S
C1148 C434 1.866 . S
C1129 C235 1.894 . S
C1184 C402 1.423 . S
C1165 C294 1.471 . S
C1201 C177 1.761 . S
C1220 C448 1.800 . S
C1256 C362 2.304 . S
C1237 C250 2.388 . S
C1292 C314 2.303 . S
C1273 C274 2.311 . S
C1309 C211 0.743 . S
C1328 C399 0.743 . S
