# Generated by pormake.
# Topology eea, (3,6)-cn, num edge types: 1
# Building blocks:
#     Node 0, Type 0, BuildingBlock: QEWDON_clean_linker_0, # of connection points: 3
#     Node 1, Type 0, BuildingBlock: QEWDON_clean_linker_0, # of connection points: 3
#     Node 2, Type 0, BuildingBlock: QEWDON_clean_linker_0, # of connection points: 3
#     Node 3, Type 0, BuildingBlock: QEWDON_clean_linker_0, # of connection points: 3
#     Node 4, Type 0, BuildingBlock: QEWDON_clean_linker_0, # of connection points: 3
#     Node 5, Type 0, BuildingBlock: QEWDON_clean_linker_0, # of connection points: 3
#     Node 6, Type 0, BuildingBlock: QEWDON_clean_linker_0, # of connection points: 3
#     Node 7, Type 0, BuildingBlock: QEWDON_clean_linker_0, # of connection points: 3
#     Node 8, Type 0, BuildingBlock: QEWDON_clean_linker_0, # of connection points: 3
#     Node 9, Type 0, BuildingBlock: QEWDON_clean_linker_0, # of connection points: 3
#     Node 10, Type 0, BuildingBlock: QEWDON_clean_linker_0, # of connection points: 3
#     Node 11, Type 0, BuildingBlock: QEWDON_clean_linker_0, # of connection points: 3
#     Node 12, Type 0, BuildingBlock: QEWDON_clean_linker_0, # of connection points: 3
#     Node 13, Type 0, BuildingBlock: QEWDON_clean_linker_0, # of connection points: 3
#     Node 14, Type 0, BuildingBlock: QEWDON_clean_linker_0, # of connection points: 3
#     Node 15, Type 0, BuildingBlock: QEWDON_clean_linker_0, # of connection points: 3
#     Node 16, Type 0, BuildingBlock: QEWDON_clean_linker_0, # of connection points: 3
#     Node 17, Type 0, BuildingBlock: QEWDON_clean_linker_0, # of connection points: 3
#     Node 18, Type 1, BuildingBlock: KUMJIN_clean_sbu_0, # of connection points: 6
#     Node 19, Type 1, BuildingBlock: KUMJIN_clean_sbu_0, # of connection points: 6
#     Node 20, Type 1, BuildingBlock: KUMJIN_clean_sbu_0, # of connection points: 6
#     Node 21, Type 1, BuildingBlock: KUMJIN_clean_sbu_0, # of connection points: 6
#     Node 22, Type 1, BuildingBlock: KUMJIN_clean_sbu_0, # of connection points: 6
#     Node 23, Type 1, BuildingBlock: KUMJIN_clean_sbu_0, # of connection points: 6
#     Node 24, Type 1, BuildingBlock: KUMJIN_clean_sbu_0, # of connection points: 6
#     Node 25, Type 1, BuildingBlock: KUMJIN_clean_sbu_0, # of connection points: 6
#     Node 26, Type 1, BuildingBlock: KUMJIN_clean_sbu_0, # of connection points: 6
#     Edge 27, Type (0, 1), BuildingBlock: TEMPAE_clean_linker_10, # of connection points: 2
#     Edge 28, Type (0, 1), BuildingBlock: TEMPAE_clean_linker_10, # of connection points: 2
#     Edge 29, Type (0, 1), BuildingBlock: TEMPAE_clean_linker_10, # of connection points: 2
#     Edge 30, Type (0, 1), BuildingBlock: TEMPAE_clean_linker_10, # of connection points: 2
#     Edge 31, Type (0, 1), BuildingBlock: TEMPAE_clean_linker_10, # of connection points: 2
#     Edge 32, Type (0, 1), BuildingBlock: TEMPAE_clean_linker_10, # of connection points: 2
#     Edge 33, Type (0, 1), BuildingBlock: TEMPAE_clean_linker_10, # of connection points: 2
#     Edge 34, Type (0, 1), BuildingBlock: TEMPAE_clean_linker_10, # of connection points: 2
#     Edge 35, Type (0, 1), BuildingBlock: TEMPAE_clean_linker_10, # of connection points: 2
#     Edge 36, Type (0, 1), BuildingBlock: TEMPAE_clean_linker_10, # of connection points: 2
#     Edge 37, Type (0, 1), BuildingBlock: TEMPAE_clean_linker_10, # of connection points: 2
#     Edge 38, Type (0, 1), BuildingBlock: TEMPAE_clean_linker_10, # of connection points: 2
#     Edge 39, Type (0, 1), BuildingBlock: TEMPAE_clean_linker_10, # of connection points: 2
#     Edge 40, Type (0, 1), BuildingBlock: TEMPAE_clean_linker_10, # of connection points: 2
#     Edge 41, Type (0, 1), BuildingBlock: TEMPAE_clean_linker_10, # of connection points: 2
#     Edge 42, Type (0, 1), BuildingBlock: TEMPAE_clean_linker_10, # of connection points: 2
#     Edge 43, Type (0, 1), BuildingBlock: TEMPAE_clean_linker_10, # of connection points: 2
#     Edge 44, Type (0, 1), BuildingBlock: TEMPAE_clean_linker_10, # of connection points: 2
#     Edge 45, Type (0, 1), BuildingBlock: TEMPAE_clean_linker_10, # of connection points: 2
#     Edge 46, Type (0, 1), BuildingBlock: TEMPAE_clean_linker_10, # of connection points: 2
#     Edge 47, Type (0, 1), BuildingBlock: TEMPAE_clean_linker_10, # of connection points: 2
#     Edge 48, Type (0, 1), BuildingBlock: TEMPAE_clean_linker_10, # of connection points: 2
#     Edge 49, Type (0, 1), BuildingBlock: TEMPAE_clean_linker_10, # of connection points: 2
#     Edge 50, Type (0, 1), BuildingBlock: TEMPAE_clean_linker_10, # of connection points: 2
#     Edge 51, Type (0, 1), BuildingBlock: TEMPAE_clean_linker_10, # of connection points: 2
#     Edge 52, Type (0, 1), BuildingBlock: TEMPAE_clean_linker_10, # of connection points: 2
#     Edge 53, Type (0, 1), BuildingBlock: TEMPAE_clean_linker_10, # of connection points: 2
#     Edge 54, Type (0, 1), BuildingBlock: TEMPAE_clean_linker_10, # of connection points: 2
#     Edge 55, Type (0, 1), BuildingBlock: TEMPAE_clean_linker_10, # of connection points: 2
#     Edge 56, Type (0, 1), BuildingBlock: TEMPAE_clean_linker_10, # of connection points: 2
#     Edge 57, Type (0, 1), BuildingBlock: TEMPAE_clean_linker_10, # of connection points: 2
#     Edge 58, Type (0, 1), BuildingBlock: TEMPAE_clean_linker_10, # of connection points: 2
#     Edge 59, Type (0, 1), BuildingBlock: TEMPAE_clean_linker_10, # of connection points: 2
#     Edge 60, Type (0, 1), BuildingBlock: TEMPAE_clean_linker_10, # of connection points: 2
#     Edge 61, Type (0, 1), BuildingBlock: TEMPAE_clean_linker_10, # of connection points: 2
#     Edge 62, Type (0, 1), BuildingBlock: TEMPAE_clean_linker_10, # of connection points: 2
#     Edge 63, Type (0, 1), BuildingBlock: TEMPAE_clean_linker_10, # of connection points: 2
#     Edge 64, Type (0, 1), BuildingBlock: TEMPAE_clean_linker_10, # of connection points: 2
#     Edge 65, Type (0, 1), BuildingBlock: TEMPAE_clean_linker_10, # of connection points: 2
#     Edge 66, Type (0, 1), BuildingBlock: TEMPAE_clean_linker_10, # of connection points: 2
#     Edge 67, Type (0, 1), BuildingBlock: TEMPAE_clean_linker_10, # of connection points: 2
#     Edge 68, Type (0, 1), BuildingBlock: TEMPAE_clean_linker_10, # of connection points: 2
#     Edge 69, Type (0, 1), BuildingBlock: TEMPAE_clean_linker_10, # of connection points: 2
#     Edge 70, Type (0, 1), BuildingBlock: TEMPAE_clean_linker_10, # of connection points: 2
#     Edge 71, Type (0, 1), BuildingBlock: TEMPAE_clean_linker_10, # of connection points: 2
#     Edge 72, Type (0, 1), BuildingBlock: TEMPAE_clean_linker_10, # of connection points: 2
#     Edge 73, Type (0, 1), BuildingBlock: TEMPAE_clean_linker_10, # of connection points: 2
#     Edge 74, Type (0, 1), BuildingBlock: TEMPAE_clean_linker_10, # of connection points: 2
#     Edge 75, Type (0, 1), BuildingBlock: TEMPAE_clean_linker_10, # of connection points: 2
#     Edge 76, Type (0, 1), BuildingBlock: TEMPAE_clean_linker_10, # of connection points: 2
#     Edge 77, Type (0, 1), BuildingBlock: TEMPAE_clean_linker_10, # of connection points: 2
#     Edge 78, Type (0, 1), BuildingBlock: TEMPAE_clean_linker_10, # of connection points: 2
#     Edge 79, Type (0, 1), BuildingBlock: TEMPAE_clean_linker_10, # of connection points: 2
#     Edge 80, Type (0, 1), BuildingBlock: TEMPAE_clean_linker_10, # of connection points: 2
# Relax obj value: 0.044
# Max RMSD: 0.209
# Mean RMSD: 0.150
data_MOF--net-eea--node1-KUMJIN_clean_sbu_0--node2-QEWDON_clean_linker_0--edge1-TEMPAE_clean_linker_10
_symmetry_space_group_name_H-M    P1
_symmetry_Int_Tables_number       1
_symmetry_cell_setting            triclinic
loop_
_symmetry_equiv_pos_as_xyz
'x, y, z'
_cell_length_a     58.638171
_cell_length_b     59.967867
_cell_length_c     64.556248
_cell_angle_alpha  90.129793
_cell_angle_beta   90.185214
_cell_angle_gamma 119.90161
loop_
_atom_site_label
_atom_site_type_symbol
_atom_site_fract_x
_atom_site_fract_y
_atom_site_fract_z
_atom_type_partial_charge
H0 H 0.20041 0.11402 0.43238 0.0
C1 C 0.20043 0.09798 0.42462 0.0
C2 C 0.21656 0.08869 0.43221 0.0
C3 C 0.18307 0.0855 0.40799 0.0
H4 H 0.22844 0.06021 0.42859 0.0
C5 C 0.2161 0.06748 0.4226 0.0
C6 C 0.19928 0.05511 0.40577 0.0
C7 C 0.18267 0.06407 0.39863 0.0
C8 C 0.16403 0.09361 0.40136 0.0
H9 H 0.16946 0.05437 0.38573 0.0
C10 C 0.17201 0.11979 0.39846 0.0
C11 C 0.15356 0.12722 0.39272 0.0
C12 C 0.13744 0.07499 0.39835 0.0
H13 H 0.13069 0.05477 0.40071 0.0
C14 C 0.11915 0.08229 0.39268 0.0
H15 H 0.19246 0.13431 0.40069 0.0
C16 C 0.12708 0.1082 0.38991 0.0
H17 H 0.11254 0.11335 0.38524 0.0
H18 H 0.09871 0.06781 0.39044 0.0
H19 H 0.90728 0.09885 0.42742 0.0
C20 C 0.92272 0.11524 0.41935 0.0
C21 C 0.93478 0.13951 0.42898 0.0
C22 C 0.93187 0.11172 0.40017 0.0
H23 H 0.96486 0.17927 0.42643 0.0
C24 C 0.9557 0.16049 0.41906 0.0
C25 C 0.96508 0.15755 0.39987 0.0
C26 C 0.95281 0.13317 0.39036 0.0
C27 C 0.9217 0.08528 0.39165 0.0
H28 H 0.96023 0.13071 0.37569 0.0
C29 C 0.89467 0.06657 0.39242 0.0
C30 C 0.88594 0.04111 0.38591 0.0
C31 C 0.93955 0.07814 0.38385 0.0
H32 H 0.96045 0.09179 0.38342 0.0
C33 C 0.93083 0.05302 0.37719 0.0
H34 H 0.88055 0.07164 0.3983 0.0
C35 C 0.90426 0.03458 0.37832 0.0
H36 H 0.89792 0.01514 0.37313 0.0
H37 H 0.9448 0.04776 0.37135 0.0
H38 H 0.91938 0.80026 0.42242 0.0
C39 C 0.90273 0.80083 0.41569 0.0
C40 C 0.87883 0.79001 0.42665 0.0
C41 C 0.90559 0.81367 0.39677 0.0
H42 H 0.83909 0.7831 0.4267 0.0
C43 C 0.85756 0.79177 0.41839 0.0
C44 C 0.85963 0.80407 0.39942 0.0
C45 C 0.8836 0.81459 0.3886 0.0
C46 C 0.93189 0.82807 0.38633 0.0
H47 H 0.88531 0.82414 0.374 0.0
C48 C 0.94998 0.81881 0.38569 0.0
C49 C 0.97445 0.8331 0.37551 0.0
C50 C 0.93928 0.85201 0.37713 0.0
H51 H 0.92658 0.86029 0.37788 0.0
C52 C 0.96335 0.86598 0.36714 0.0
H53 H 0.94497 0.80053 0.39266 0.0
C54 C 0.98074 0.85657 0.36623 0.0
H55 H 0.99937 0.86781 0.35838 0.0
H56 H 0.96862 0.8843 0.36014 0.0
H57 H 0.1217 0.21045 0.60187 0.0
C58 C 0.10454 0.20998 0.60856 0.0
C59 C 0.09291 0.22258 0.59835 0.0
C60 C 0.09387 0.19633 0.62702 0.0
H61 H 0.06114 0.23091 0.59889 0.0
C62 C 0.07024 0.2214 0.60682 0.0
C63 C 0.05898 0.20783 0.62521 0.0
C64 C 0.07122 0.1957 0.63533 0.0
C65 C 0.10506 0.18112 0.63678 0.0
H66 H 0.0627 0.18523 0.64949 0.0
C67 C 0.13254 0.19015 0.63748 0.0
C68 C 0.14219 0.17493 0.64641 0.0
C69 C 0.0878 0.15665 0.64497 0.0
H70 H 0.0667 0.14868 0.64424 0.0
C71 C 0.0974 0.14174 0.65381 0.0
H72 H 0.14634 0.20892 0.63138 0.0
C73 C 0.12436 0.15079 0.65457 0.0
H74 H 0.13136 0.13886 0.66151 0.0
H75 H 0.08383 0.12297 0.66002 0.0
H76 H 0.81853 0.9221 0.59155 0.0
C77 C 0.81732 0.90635 0.60055 0.0
C78 C 0.79766 0.88075 0.5963 0.0
C79 C 0.83671 0.91199 0.6157 0.0
H80 H 0.78238 0.84112 0.6059 0.0
C81 C 0.79756 0.86095 0.60817 0.0
C82 C 0.8177 0.86626 0.6225 0.0
C83 C 0.83723 0.8918 0.62621 0.0
C84 C 0.85706 0.93905 0.61986 0.0
H85 H 0.85269 0.89595 0.6374 0.0
C86 C 0.84976 0.95754 0.62468 0.0
C87 C 0.86901 0.98347 0.62823 0.0
C88 C 0.88381 0.94652 0.61875 0.0
H89 H 0.88985 0.93262 0.615 0.0
C90 C 0.90299 0.97216 0.62198 0.0
H91 H 0.82907 0.95147 0.62612 0.0
C92 C 0.89573 0.99053 0.62656 0.0
H93 H 0.91114 0.01033 0.62856 0.0
H94 H 0.9236 0.97786 0.6208 0.0
H95 H 0.09057 0.88626 0.6019 0.0
C96 C 0.10704 0.90339 0.60848 0.0
C97 C 0.13109 0.91567 0.59774 0.0
C98 C 0.10384 0.91395 0.62702 0.0
H99 H 0.17063 0.94816 0.59764 0.0
C100 C 0.15202 0.93859 0.60577 0.0
C101 C 0.14943 0.94899 0.62447 0.0
C102 C 0.1255 0.93643 0.63515 0.0
C103 C 0.07761 0.90286 0.63723 0.0
H104 H 0.12361 0.94464 0.64957 0.0
C105 C 0.06049 0.876 0.63876 0.0
C106 C 0.03597 0.8663 0.64866 0.0
C107 C 0.06941 0.91954 0.64538 0.0
H108 H 0.08164 0.9402 0.644 0.0
C109 C 0.04515 0.90984 0.65514 0.0
H110 H 0.06629 0.86273 0.63265 0.0
C111 C 0.02855 0.88339 0.65686 0.0
H112 H 0.00975 0.8762 0.6645 0.0
H113 H 0.03915 0.9229 0.66134 0.0
H114 H 0.86999 0.44827 0.76717 0.0
C115 C 0.86985 0.43203 0.75964 0.0
C116 C 0.88616 0.42292 0.76726 0.0
C117 C 0.85213 0.41917 0.74329 0.0
H118 H 0.89783 0.39425 0.76391 0.0
C119 C 0.88535 0.40138 0.75795 0.0
C120 C 0.86811 0.38853 0.74143 0.0
C121 C 0.85148 0.39747 0.73423 0.0
C122 C 0.83293 0.42714 0.73672 0.0
H123 H 0.83806 0.38754 0.72151 0.0
C124 C 0.84068 0.45328 0.73379 0.0
C125 C 0.82201 0.46052 0.72826 0.0
C126 C 0.80633 0.40839 0.73392 0.0
H127 H 0.79972 0.38821 0.73635 0.0
C128 C 0.78784 0.4155 0.72841 0.0
H129 H 0.86113 0.46793 0.73585 0.0
C130 C 0.79556 0.44135 0.72563 0.0
H131 H 0.78085 0.44633 0.72113 0.0
H132 H 0.76742 0.4009 0.72634 0.0
H133 H 0.56832 0.43279 0.7577 0.0
C134 C 0.58455 0.44942 0.75052 0.0
C135 C 0.59394 0.47388 0.75945 0.0
C136 C 0.59647 0.44614 0.73279 0.0
H137 H 0.62312 0.51414 0.75736 0.0
C138 C 0.61546 0.49527 0.75036 0.0
C139 C 0.62759 0.49248 0.73257 0.0
C140 C 0.61776 0.46791 0.72374 0.0
C141 C 0.58819 0.4198 0.7249 0.0
H142 H 0.62725 0.46565 0.71016 0.0
C143 C 0.56137 0.40055 0.72385 0.0
C144 C 0.5541 0.37522 0.71793 0.0
C145 C 0.60743 0.41337 0.71949 0.0
H146 H 0.62817 0.42751 0.72047 0.0
C147 C 0.60023 0.38838 0.7134 0.0
H148 H 0.54623 0.40512 0.72787 0.0
C149 C 0.57379 0.36938 0.71273 0.0
H150 H 0.56867 0.35009 0.70797 0.0
H151 H 0.61524 0.38366 0.70937 0.0
H152 H 0.58349 0.13221 0.75315 0.0
C153 C 0.56699 0.13355 0.74704 0.0
C154 C 0.54273 0.12139 0.75759 0.0
C155 C 0.57023 0.14786 0.7289 0.0
H156 H 0.50314 0.11521 0.75802 0.0
C157 C 0.52167 0.12394 0.7498 0.0
C158 C 0.52417 0.1377 0.73157 0.0
C159 C 0.54836 0.1492 0.72107 0.0
C160 C 0.5967 0.16298 0.71887 0.0
H161 H 0.5503 0.15978 0.70699 0.0
C162 C 0.61474 0.15374 0.71743 0.0
C163 C 0.6394 0.1687 0.70772 0.0
C164 C 0.60429 0.18756 0.71088 0.0
H165 H 0.59158 0.19578 0.71225 0.0
C166 C 0.62858 0.20221 0.70133 0.0
H167 H 0.60954 0.13494 0.72342 0.0
C168 C 0.64595 0.19284 0.69966 0.0
H169 H 0.66474 0.20459 0.69218 0.0
H170 H 0.63401 0.22102 0.69526 0.0
H171 H 0.79037 0.54041 0.9358 0.0
C172 C 0.77318 0.53995 0.94239 0.0
C173 C 0.7617 0.5527 0.93216 0.0
C174 C 0.76229 0.52621 0.9608 0.0
H175 H 0.72978 0.56085 0.9325 0.0
C176 C 0.73893 0.55143 0.94049 0.0
C177 C 0.72764 0.5379 0.95886 0.0
C178 C 0.73973 0.52574 0.96906 0.0
C179 C 0.77317 0.51082 0.97062 0.0
H180 H 0.7311 0.51533 0.98324 0.0
C181 C 0.8006 0.5198 0.97174 0.0
C182 C 0.80998 0.50459 0.98108 0.0
C183 C 0.75567 0.48632 0.97866 0.0
H184 H 0.73459 0.47841 0.97759 0.0
C185 C 0.76501 0.47138 0.98785 0.0
H186 H 0.81456 0.53859 0.96576 0.0
C187 C 0.79193 0.48045 0.98913 0.0
H188 H 0.79875 0.46853 0.99638 0.0
H189 H 0.75126 0.45261 0.99395 0.0
H190 H 0.48318 0.25356 0.92392 0.0
C191 C 0.48284 0.23756 0.93197 0.0
C192 C 0.46477 0.21221 0.92586 0.0
C193 C 0.50153 0.24245 0.94759 0.0
H194 H 0.45119 0.17202 0.9315 0.0
C195 C 0.46508 0.19165 0.93602 0.0
C196 C 0.4837 0.19623 0.95157 0.0
C197 C 0.50193 0.22164 0.95722 0.0
C198 C 0.52139 0.26931 0.95316 0.0
H199 H 0.51628 0.22518 0.96927 0.0
C200 C 0.51397 0.28808 0.95628 0.0
C201 C 0.53296 0.31363 0.96122 0.0
C202 C 0.54804 0.27637 0.95507 0.0
H203 H 0.55435 0.2624 0.95253 0.0
C204 C 0.56692 0.30166 0.9599 0.0
H205 H 0.49346 0.28281 0.9549 0.0
C206 C 0.5595 0.3202 0.96295 0.0
H207 H 0.5745 0.33961 0.96699 0.0
H208 H 0.58741 0.30692 0.96131 0.0
H209 H 0.75844 0.21788 0.93225 0.0
C210 C 0.77511 0.23494 0.9387 0.0
C211 C 0.79949 0.24603 0.92844 0.0
C212 C 0.77188 0.24664 0.95654 0.0
H213 H 0.83959 0.27735 0.92849 0.0
C214 C 0.82084 0.26869 0.93642 0.0
C215 C 0.81819 0.28052 0.95431 0.0
C216 C 0.7937 0.26926 0.96431 0.0
C217 C 0.74555 0.2364 0.96646 0.0
H218 H 0.79171 0.27815 0.9783 0.0
C219 C 0.72812 0.20969 0.96889 0.0
C220 C 0.70365 0.20082 0.97872 0.0
C221 C 0.73767 0.25374 0.97361 0.0
H222 H 0.75013 0.27428 0.97155 0.0
C223 C 0.71345 0.24487 0.98328 0.0
H224 H 0.73367 0.19592 0.96355 0.0
C225 C 0.69658 0.21859 0.98592 0.0
H226 H 0.67784 0.21207 0.99348 0.0
H227 H 0.70771 0.25844 0.98872 0.0
H228 H 0.53555 0.77824 0.10029 0.0
C229 C 0.5354 0.76207 0.0926 0.0
C230 C 0.55005 0.75152 0.10103 0.0
C231 C 0.51929 0.75081 0.07509 0.0
H232 H 0.56007 0.72155 0.09805 0.0
C233 C 0.54884 0.72983 0.09163 0.0
C234 C 0.53357 0.71895 0.0738 0.0
C235 C 0.51897 0.72954 0.06551 0.0
C236 C 0.50111 0.75973 0.06791 0.0
H237 H 0.50679 0.72076 0.05192 0.0
C238 C 0.50958 0.78613 0.06592 0.0
C239 C 0.4917 0.79421 0.05998 0.0
C240 C 0.47464 0.74157 0.06373 0.0
H241 H 0.46748 0.72117 0.06542 0.0
C242 C 0.45694 0.74952 0.05782 0.0
H243 H 0.52994 0.80033 0.06903 0.0
C244 C 0.46534 0.77564 0.05599 0.0
H245 H 0.45128 0.78134 0.05116 0.0
H246 H 0.4366 0.73538 0.05469 0.0
H247 H 0.24062 0.76653 0.09415 0.0
C248 C 0.25595 0.78305 0.08612 0.0
C249 C 0.26794 0.80723 0.0959 0.0
C250 C 0.26504 0.77975 0.06684 0.0
H251 H 0.29777 0.8471 0.09349 0.0
C252 C 0.28873 0.82839 0.086 0.0
C253 C 0.29806 0.82571 0.06668 0.0
C254 C 0.28585 0.80135 0.05708 0.0
C255 C 0.25493 0.75337 0.05814 0.0
H256 H 0.29321 0.79902 0.04233 0.0
C257 C 0.22793 0.73452 0.05893 0.0
C258 C 0.21933 0.70915 0.05219 0.0
C259 C 0.27286 0.74645 0.05014 0.0
H260 H 0.29373 0.7602 0.04969 0.0
C261 C 0.26426 0.72143 0.04327 0.0
H262 H 0.21375 0.7394 0.06497 0.0
C263 C 0.23773 0.70286 0.0444 0.0
H264 H 0.2315 0.6835 0.03905 0.0
H265 H 0.27829 0.71635 0.03727 0.0
H266 H 0.25313 0.46695 0.08845 0.0
C267 C 0.2367 0.46784 0.08164 0.0
C268 C 0.21275 0.45723 0.09243 0.0
C269 C 0.23992 0.48093 0.06281 0.0
H270 H 0.17323 0.45082 0.0924 0.0
C271 C 0.19173 0.45934 0.08413 0.0
C272 C 0.19411 0.4718 0.06519 0.0
C273 C 0.21819 0.48223 0.05453 0.0
C274 C 0.26638 0.49521 0.05266 0.0
H275 H 0.22022 0.492 0.03999 0.0
C276 C 0.28413 0.48558 0.0521 0.0
C277 C 0.30896 0.49991 0.04252 0.0
C278 C 0.27435 0.51947 0.04384 0.0
H279 H 0.26183 0.52796 0.04451 0.0
C280 C 0.2988 0.53349 0.0344 0.0
H281 H 0.27862 0.467 0.05875 0.0
C282 C 0.31595 0.52378 0.03366 0.0
H283 H 0.33488 0.53503 0.02624 0.0
H284 H 0.30456 0.55208 0.0277 0.0
H285 H 0.45531 0.87482 0.26935 0.0
C286 C 0.43901 0.87553 0.27655 0.0
C287 C 0.42576 0.88594 0.26549 0.0
C288 C 0.43012 0.86443 0.29621 0.0
H289 H 0.39394 0.89415 0.26609 0.0
C290 C 0.40384 0.88575 0.27449 0.0
C291 C 0.39463 0.87506 0.29415 0.0
C292 C 0.40818 0.8648 0.30498 0.0
C293 C 0.44175 0.85009 0.30676 0.0
H294 H 0.40109 0.8563 0.32005 0.0
C295 C 0.46922 0.85904 0.30708 0.0
C296 C 0.47913 0.84487 0.31754 0.0
C297 C 0.42474 0.82653 0.31646 0.0
H298 H 0.40362 0.81858 0.31601 0.0
C299 C 0.43457 0.8126 0.32661 0.0
H300 H 0.48278 0.87706 0.29974 0.0
C301 C 0.46151 0.82173 0.32727 0.0
H302 H 0.46869 0.81059 0.33534 0.0
H303 H 0.42118 0.79456 0.33401 0.0
H304 H 0.15876 0.59125 0.25543 0.0
C305 C 0.15713 0.5756 0.26482 0.0
C306 C 0.1373 0.55002 0.26077 0.0
C307 C 0.17599 0.58138 0.28045 0.0
H308 H 0.12134 0.51054 0.27104 0.0
C309 C 0.13666 0.53035 0.27314 0.0
C310 C 0.15638 0.53574 0.2879 0.0
C311 C 0.17598 0.56126 0.29152 0.0
C312 C 0.19594 0.6085 0.28493 0.0
H313 H 0.19097 0.56545 0.30317 0.0
C314 C 0.18817 0.62698 0.28818 0.0
C315 C 0.20694 0.65275 0.29262 0.0
C316 C 0.22274 0.61603 0.28608 0.0
H317 H 0.22919 0.60217 0.28355 0.0
C318 C 0.24148 0.64161 0.29022 0.0
H319 H 0.16748 0.62123 0.28741 0.0
C320 C 0.2337 0.65988 0.29348 0.0
H321 H 0.24859 0.67948 0.29711 0.0
H322 H 0.26211 0.64728 0.29104 0.0
H323 H 0.42464 0.55367 0.26468 0.0
C324 C 0.44119 0.57072 0.27127 0.0
C325 C 0.46505 0.58324 0.26031 0.0
C326 C 0.43827 0.58106 0.29006 0.0
H327 H 0.50454 0.61577 0.26 0.0
C328 C 0.4861 0.60604 0.26836 0.0
C329 C 0.48385 0.61613 0.28733 0.0
C330 C 0.46009 0.6034 0.29822 0.0
C331 C 0.41214 0.57005 0.30043 0.0
H332 H 0.4584 0.61141 0.31282 0.0
C333 C 0.39489 0.54321 0.30203 0.0
C334 C 0.3705 0.53368 0.31213 0.0
C335 C 0.40418 0.58687 0.30867 0.0
H336 H 0.4165 0.60752 0.30724 0.0
C337 C 0.38003 0.57734 0.31859 0.0
H338 H 0.40051 0.52985 0.29584 0.0
C339 C 0.36333 0.55093 0.3204 0.0
H340 H 0.34463 0.54388 0.32818 0.0
H341 H 0.37422 0.59052 0.32485 0.0
Eu342 Eu 0.49829 0.9931 0.98291 0.0
C343 C 0.54348 0.06961 0.05712 0.0
C344 C 0.58944 0.08111 0.05763 0.0
C345 C 0.57678 0.11186 0.06953 0.0
C346 C 0.56287 0.06331 0.05294 0.0
C347 C 0.55023 0.09365 0.06603 0.0
C348 C 0.59632 0.10558 0.06539 0.0
C349 C 0.50384 0.07886 0.06982 0.0
N350 N 0.5179 0.05162 0.05387 0.0
C351 C 0.49809 0.05531 0.06098 0.0
C352 C 0.53003 0.09832 0.07195 0.0
Eu353 Eu 0.5101 0.01309 0.0379 0.0
N354 N 0.55569 0.0394 0.04548 0.0
C355 C 0.57395 0.0316 0.04395 0.0
C356 C 0.60826 0.07353 0.05506 0.0
C357 C 0.60044 0.04862 0.0484 0.0
H358 H 0.47782 0.0403 0.0593 0.0
H359 H 0.61483 0.04246 0.04673 0.0
H360 H 0.61665 0.11953 0.06884 0.0
H361 H 0.4881 0.08202 0.07489 0.0
H362 H 0.5687 0.01254 0.0389 0.0
H363 H 0.39392 0.96217 0.97411 0.0
H364 H 0.62876 0.0865 0.05879 0.0
H365 H 0.53075 0.96382 0.96615 0.0
H366 H 0.44098 0.99319 0.97993 0.0
H367 H 0.5208 0.92069 0.95385 0.0
H368 H 0.58234 0.13053 0.07611 0.0
H369 H 0.37953 0.91667 0.96608 0.0
H370 H 0.39177 0.88279 0.95858 0.0
H371 H 0.53444 0.11654 0.07884 0.0
H372 H 0.42631 0.87151 0.9529 0.0
N373 N 0.45306 0.96541 0.97575 0.0
C374 C 0.43499 0.97344 0.97631 0.0
C375 C 0.40022 0.93021 0.9686 0.0
C376 C 0.41906 0.92249 0.96678 0.0
C377 C 0.40828 0.95589 0.97306 0.0
C378 C 0.44572 0.94086 0.9703 0.0
H379 H 0.47452 0.88568 0.95062 0.0
N380 N 0.49056 0.95296 0.97001 0.0
C381 C 0.50495 0.92427 0.95767 0.0
C382 C 0.46508 0.93443 0.9673 0.0
C383 C 0.51053 0.94863 0.96454 0.0
C384 C 0.47879 0.90454 0.95591 0.0
C385 C 0.45845 0.90958 0.96046 0.0
O386 O 0.52251 0.00542 0.95503 0.0
O387 O 0.52625 0.0215 0.00584 0.0
O388 O 0.504 0.04305 0.02127 0.0
O389 O 0.48755 0.02422 0.9888 0.0
O390 O 0.54257 0.00894 0.98384 0.0
O391 O 0.48801 0.00961 0.95678 0.0
O392 O 0.48981 0.97706 0.05543 0.0
O393 O 0.48148 0.98658 0.01471 0.0
O394 O 0.49953 0.96218 1.00187 0.0
O395 O 0.52527 0.98566 0.03004 0.0
O396 O 0.46725 0.00264 0.03547 0.0
O397 O 0.51102 0.01272 0.07191 0.0
C398 C 0.5478 0.0246 0.99919 0.0
C399 C 0.50077 0.00318 0.92356 0.0
C400 C 0.50451 0.0127 0.88646 0.0
C401 C 0.50989 0.02112 0.90726 0.0
C402 C 0.48966 0.98615 0.88231 0.0
C403 C 0.48583 0.97685 0.91899 0.0
C404 C 0.48033 0.96842 0.89848 0.0
C405 C 0.49383 0.04265 1.00279 0.0
C406 C 0.50732 0.01203 0.94521 0.0
C407 C 0.43184 0.89084 0.95787 0.0
C408 C 0.41218 0.89727 0.96108 0.0
C409 C 0.46071 0.98591 0.02071 0.0
C410 C 0.47392 0.97923 0.08864 0.0
C411 C 0.47615 0.97013 0.10827 0.0
C412 C 0.45583 0.9625 0.12297 0.0
C413 C 0.43315 0.96358 0.11759 0.0
C414 C 0.45104 0.98011 0.08378 0.0
C415 C 0.43078 0.97223 0.09812 0.0
C416 C 0.51383 0.96452 0.01847 0.0
C417 C 0.4956 0.98805 0.07353 0.0
H418 H 0.52149 0.0415 0.91073 0.0
H419 H 0.48493 0.97911 0.86652 0.0
H420 H 0.47848 0.9628 0.93124 0.0
H421 H 0.46879 0.94805 0.8951 0.0
H422 H 0.49377 0.96946 0.11223 0.0
H423 H 0.41709 0.95751 0.12845 0.0
H424 H 0.44868 0.98694 0.06897 0.0
H425 H 0.41318 0.97289 0.09415 0.0
Eu426 Eu 0.02247 0.50515 0.98703 0.0
C427 C 0.93682 0.46917 0.05583 0.0
C428 C 0.92626 0.50333 0.05789 0.0
C429 C 0.89347 0.45976 0.06736 0.0
C430 C 0.94399 0.49468 0.05297 0.0
C431 C 0.91174 0.45158 0.06364 0.0
C432 C 0.90076 0.48563 0.06459 0.0
C433 C 0.92608 0.42031 0.06676 0.0
N434 N 0.9552 0.46208 0.05281 0.0
C435 C 0.95079 0.43858 0.05929 0.0
C436 C 0.90628 0.42667 0.06856 0.0
Eu437 Eu 0.99672 0.49398 0.04054 0.0
N438 N 0.96885 0.51137 0.04666 0.0
C439 C 0.97758 0.53716 0.04582 0.0
C440 C 0.935 0.52966 0.05669 0.0
C441 C 0.96074 0.54663 0.05059 0.0
H442 H 0.96622 0.43376 0.0581 0.0
H443 H 0.96772 0.56706 0.04975 0.0
H444 H 0.8868 0.49188 0.06824 0.0
H445 H 0.92239 0.40141 0.07122 0.0
H446 H 0.99747 0.5506 0.04133 0.0
H447 H 0.05426 0.43401 0.97851 0.0
H448 H 0.92227 0.53717 0.06095 0.0
H449 H 0.05329 0.56674 0.97201 0.0
H450 H 0.02272 0.44906 0.98471 0.0
H451 H 0.09779 0.60022 0.96099 0.0
H452 H 0.87402 0.44647 0.07316 0.0
H453 H 0.10064 0.46528 0.97052 0.0
H454 H 0.13559 0.51113 0.96439 0.0
H455 H 0.88725 0.41259 0.07458 0.0
H456 H 0.14754 0.5564 0.95984 0.0
N457 N 0.05107 0.48866 0.98088 0.0
C458 C 0.04288 0.46298 0.98127 0.0
C459 C 0.08694 0.47207 0.97343 0.0
C460 C 0.09498 0.49826 0.97222 0.0
C461 C 0.06073 0.45434 0.9778 0.0
C462 C 0.07627 0.50604 0.97585 0.0
H463 H 0.13346 0.5897 0.95814 0.0
N464 N 0.06415 0.53807 0.97588 0.0
C465 C 0.09393 0.58102 0.96452 0.0
C466 C 0.08305 0.53154 0.97337 0.0
C467 C 0.06882 0.56208 0.97069 0.0
C468 C 0.11404 0.57501 0.96298 0.0
C469 C 0.10863 0.54992 0.96707 0.0
O470 O 0.0113 0.51766 0.95898 0.0
O471 O 0.99114 0.50266 0.00796 0.0
O472 O 0.96709 0.45973 0.02152 0.0
O473 O 0.99101 0.46299 0.99152 0.0
O474 O 1.00606 0.5325 0.98714 0.0
O475 O 0.00802 0.48003 0.95981 0.0
O476 O 0.01031 0.48288 0.06805 0.0
O477 O 0.02759 0.49593 0.01948 0.0
O478 O 0.05307 0.53675 0.00695 0.0
O479 O 0.02858 0.53634 0.03547 0.0
O480 O 0.01275 0.46637 0.04055 0.0
O481 O 0.0106 0.51904 0.06794 0.0
C482 C 0.98855 0.52103 1.00127 0.0
C483 C 0.01656 0.50096 0.9274 0.0
C484 C 0.00887 0.49631 0.89001 0.0
C485 C 0.99921 0.49185 0.91044 0.0
C486 C 0.03628 0.51004 0.88693 0.0
C487 C 0.04376 0.51428 0.92395 0.0
C488 C 0.05353 0.51881 0.90381 0.0
C489 C 0.97035 0.45041 0.00381 0.0
C490 C 1.00593 0.49696 0.94851 0.0
C491 C 0.12768 0.5425 0.96443 0.0
C492 C 0.12087 0.51671 0.96699 0.0
C493 C 0.02999 0.47743 0.02615 0.0
C494 C 1.00436 0.49788 0.10018 0.0
C495 C 0.02195 0.50835 0.11694 0.0
C496 C 0.01328 0.50109 0.13755 0.0
C497 C 0.98635 0.48334 0.14075 0.0
C498 C 0.97762 0.48127 0.10403 0.0
C499 C 0.96871 0.47402 0.12418 0.0
C500 C 0.05015 0.5474 0.02392 0.0
C501 C 0.01448 0.50296 0.07884 0.0
H502 H 0.97821 0.48112 0.91324 0.0
H503 H 0.04444 0.51429 0.87147 0.0
H504 H 0.05743 0.52133 0.93673 0.0
H505 H 0.07456 0.52931 0.90127 0.0
H506 H 0.04235 0.52195 0.11366 0.0
H507 H 0.97869 0.47609 0.15598 0.0
H508 H 0.96364 0.47347 0.09154 0.0
H509 H 0.94809 0.46065 0.12693 0.0
Eu510 Eu 0.52399 0.50669 0.03803 0.0
C511 C 0.47 0.53476 0.96787 0.0
C512 C 0.42506 0.49949 0.96656 0.0
C513 C 0.43489 0.54244 0.95663 0.0
C514 C 0.45188 0.5091 0.97121 0.0
C515 C 0.46176 0.55165 0.96025 0.0
C516 C 0.4166 0.51638 0.95964 0.0
C517 C 0.50749 0.58474 0.95814 0.0
N518 N 0.49587 0.54286 0.97089 0.0
C519 C 0.51471 0.56714 0.96533 0.0
C520 C 0.48088 0.57705 0.95581 0.0
Eu521 Eu 0.50647 0.51227 0.9839 0.0
N522 N 0.46068 0.49324 0.97784 0.0
C523 C 0.44383 0.46737 0.97938 0.0
C524 C 0.40768 0.47305 0.96839 0.0
C525 C 0.4171 0.45695 0.97487 0.0
H526 H 0.5353 0.57309 0.96715 0.0
H527 H 0.40381 0.43645 0.97622 0.0
H528 H 0.39604 0.50938 0.95617 0.0
H529 H 0.52244 0.60417 0.95432 0.0
H530 H 0.45081 0.45462 0.98421 0.0
H531 H 0.62872 0.57796 0.04323 0.0
H532 H 0.38708 0.4648 0.9644 0.0
H533 H 0.49245 0.44679 0.05688 0.0
H534 H 0.58165 0.56263 0.03762 0.0
H535 H 0.50298 0.41425 0.07016 0.0
H536 H 0.42816 0.55515 0.95091 0.0
H537 H 0.64338 0.54734 0.05329 0.0
H538 H 0.63163 0.5021 0.06222 0.0
H539 H 0.47534 0.59064 0.95002 0.0
H540 H 0.59742 0.45749 0.06949 0.0
N541 N 0.56961 0.52343 0.04377 0.0
C542 C 0.58767 0.54897 0.04194 0.0
C543 C 0.62266 0.5404 0.05061 0.0
C544 C 0.60398 0.51444 0.05331 0.0
C545 C 0.61444 0.55778 0.04509 0.0
C546 C 0.57721 0.50649 0.04996 0.0
H547 H 0.54939 0.4247 0.07291 0.0
N548 N 0.53244 0.47496 0.0518 0.0
C549 C 0.51864 0.43305 0.06561 0.0
C550 C 0.55803 0.48145 0.05409 0.0
C551 C 0.51275 0.45149 0.05816 0.0
C552 C 0.54487 0.439 0.0671 0.0
C553 C 0.56498 0.46358 0.06161 0.0
O554 O 0.50136 0.49794 0.06664 0.0
O555 O 0.49337 0.50541 0.01673 0.0
O556 O 0.50778 0.54474 1.00257 0.0
O557 O 0.53592 0.54812 0.02947 0.0
O558 O 0.47988 0.47821 0.03962 0.0
O559 O 0.53592 0.53538 0.06279 0.0
O560 O 0.52828 0.5237 0.95481 0.0
O561 O 0.53701 0.51355 0.00514 0.0
O562 O 0.52265 0.47393 0.02 0.0
O563 O 0.49676 0.47104 0.99146 0.0
O564 O 0.55048 0.54095 0.9824 0.0
O565 O 0.49709 0.48433 0.95895 0.0
C566 C 0.4727 0.48728 0.02443 0.0
C567 C 0.52525 0.51883 0.09679 0.0
C568 C 0.52182 0.52474 0.13395 0.0
C569 C 0.515 0.52646 0.11326 0.0
C570 C 0.53896 0.51507 0.13774 0.0
C571 C 0.54256 0.50965 0.10099 0.0
C572 C 0.5493 0.50773 0.12136 0.0
C573 C 0.52362 0.55742 0.01821 0.0
C574 C 0.51733 0.51998 0.07534 0.0
C575 C 0.59166 0.47103 0.06396 0.0
C576 C 0.61114 0.49643 0.05983 0.0
C577 C 0.55766 0.53167 0.99744 0.0
C578 C 0.50481 0.50096 0.92496 0.0
C579 C 0.51734 0.49685 0.90805 0.0
C580 C 0.50857 0.49661 0.88763 0.0
C581 C 0.48721 0.50075 0.88448 0.0
C582 C 0.48348 0.50487 0.92141 0.0
C583 C 0.47478 0.50482 0.90128 0.0
C584 C 0.50854 0.46177 0.00345 0.0
C585 C 0.51418 0.50116 0.94617 0.0
H586 H 0.50196 0.53394 0.1099 0.0
H587 H 0.54421 0.51291 0.15341 0.0
H588 H 0.55076 0.50386 0.08857 0.0
H589 H 0.5625 0.5004 0.12449 0.0
H590 H 0.53363 0.49351 0.91085 0.0
H591 H 0.48027 0.50116 0.869 0.0
H592 H 0.47353 0.50794 0.93415 0.0
H593 H 0.45837 0.50799 0.89868 0.0
Eu594 Eu 0.16156 0.32915 0.31805 0.0
C595 C 0.21277 0.40734 0.39137 0.0
C596 C 0.2584 0.418 0.39136 0.0
C597 C 0.24669 0.44927 0.40373 0.0
C598 C 0.23169 0.40073 0.38686 0.0
C599 C 0.21997 0.43143 0.40033 0.0
C600 C 0.26587 0.44253 0.39932 0.0
C601 C 0.17373 0.41729 0.40417 0.0
N602 N 0.18714 0.38945 0.38836 0.0
C603 C 0.16759 0.3936 0.39536 0.0
C604 C 0.20005 0.43645 0.40638 0.0
Eu605 Eu 0.17816 0.35 0.37309 0.0
N606 N 0.22379 0.37678 0.37938 0.0
C607 C 0.24144 0.3684 0.37707 0.0
C608 C 0.27666 0.40975 0.38842 0.0
C609 C 0.26813 0.38482 0.38131 0.0
H610 H 0.14723 0.37883 0.39356 0.0
H611 H 0.28208 0.37819 0.3792 0.0
H612 H 0.28633 0.45617 0.40264 0.0
H613 H 0.15819 0.42077 0.40921 0.0
H614 H 0.23515 0.34915 0.37168 0.0
H615 H 0.05719 0.30001 0.31392 0.0
H616 H 0.29726 0.42221 0.39214 0.0
H617 H 0.19196 0.29952 0.29784 0.0
H618 H 0.10454 0.33011 0.31888 0.0
H619 H 0.18055 0.25657 0.28405 0.0
H620 H 0.25265 0.46799 0.41041 0.0
H621 H 0.0416 0.25478 0.30406 0.0
H622 H 0.05253 0.22058 0.29428 0.0
H623 H 0.20477 0.45475 0.4133 0.0
H624 H 0.08611 0.20869 0.28622 0.0
N625 N 0.11579 0.30211 0.31241 0.0
C626 C 0.0981 0.31048 0.31452 0.0
C627 C 0.06245 0.26789 0.30629 0.0
C628 C 0.08079 0.25978 0.3031 0.0
C629 C 0.07118 0.29344 0.31175 0.0
C630 C 0.10771 0.27766 0.30613 0.0
H631 H 0.13391 0.22215 0.28191 0.0
N632 N 0.15225 0.28909 0.30373 0.0
C633 C 0.16517 0.26032 0.28905 0.0
C634 C 0.12653 0.27091 0.30169 0.0
C635 C 0.17157 0.28458 0.29677 0.0
C636 C 0.13882 0.24091 0.28792 0.0
C637 C 0.11907 0.2462 0.29395 0.0
O638 O 0.18397 0.34197 0.28926 0.0
O639 O 0.19141 0.35689 0.34021 0.0
O640 O 0.17558 0.38162 0.35614 0.0
O641 O 0.15063 0.35961 0.32699 0.0
O642 O 0.20566 0.34415 0.3167 0.0
O643 O 0.15048 0.3473 0.2937 0.0
O644 O 0.15508 0.33653 0.40155 0.0
O645 O 0.14843 0.3225 0.35086 0.0
O646 O 0.16385 0.29771 0.33529 0.0
O647 O 0.18928 0.31958 0.36422 0.0
O648 O 0.1341 0.33522 0.37422 0.0
O649 O 0.18837 0.33088 0.39719 0.0
C650 C 0.21228 0.35951 0.33241 0.0
C651 C 0.15985 0.34051 0.25943 0.0
C652 C 0.16114 0.3496 0.22231 0.0
C653 C 0.16931 0.35807 0.24287 0.0
C654 C 0.14366 0.32323 0.21874 0.0
C655 C 0.14215 0.31448 0.25538 0.0
C656 C 0.13421 0.30591 0.23516 0.0
C657 C 0.1615 0.37996 0.33952 0.0
C658 C 0.16854 0.34931 0.28085 0.0
C659 C 0.09225 0.2279 0.29188 0.0
C660 C 0.07314 0.23468 0.29646 0.0
C661 C 0.12752 0.31982 0.35855 0.0
C662 C 0.17834 0.33675 0.43154 0.0
C663 C 0.1661 0.31936 0.44794 0.0
C664 C 0.17393 0.32709 0.46868 0.0
C665 C 0.1939 0.35258 0.47259 0.0
C666 C 0.19838 0.36187 0.43594 0.0
C667 C 0.20602 0.36974 0.45634 0.0
C668 C 0.1779 0.29914 0.35183 0.0
C669 C 0.17011 0.3287 0.40991 0.0
H670 H 0.18266 0.37827 0.24605 0.0
H671 H 0.13742 0.31586 0.20318 0.0
H672 H 0.1345 0.30076 0.26783 0.0
H673 H 0.1207 0.28572 0.23219 0.0
H674 H 0.15083 0.29983 0.44451 0.0
H675 H 0.20002 0.35943 0.48829 0.0
H676 H 0.20814 0.37543 0.42363 0.0
H677 H 0.22139 0.38926 0.45958 0.0
Eu678 Eu 0.68814 0.83782 0.32121 0.0
C679 C 0.6022 0.80083 0.38895 0.0
C680 C 0.59132 0.83463 0.39305 0.0
C681 C 0.55832 0.79023 0.39998 0.0
C682 C 0.60935 0.82657 0.38759 0.0
C683 C 0.57672 0.78244 0.39546 0.0
C684 C 0.56565 0.81629 0.3989 0.0
C685 C 0.59032 0.75043 0.39474 0.0
N686 N 0.62059 0.79396 0.38496 0.0
C687 C 0.61545 0.76943 0.38869 0.0
C688 C 0.57077 0.75689 0.3979 0.0
Eu689 Eu 0.66244 0.82735 0.37453 0.0
N690 N 0.63424 0.84388 0.38173 0.0
C691 C 0.64264 0.86961 0.38166 0.0
C692 C 0.59982 0.86096 0.39298 0.0
C693 C 0.62553 0.87851 0.38715 0.0
H694 H 0.63061 0.76444 0.38633 0.0
H695 H 0.63226 0.89891 0.38706 0.0
H696 H 0.55145 0.82211 0.40294 0.0
H697 H 0.58608 0.73087 0.39706 0.0
H698 H 0.66254 0.88338 0.37737 0.0
H699 H 0.72246 0.76858 0.31299 0.0
H700 H 0.58685 0.868 0.39775 0.0
H701 H 0.71738 0.89911 0.30549 0.0
H702 H 0.69014 0.78263 0.3192 0.0
H703 H 0.76127 0.93317 0.29399 0.0
H704 H 0.53859 0.77635 0.40486 0.0
H705 H 0.76845 0.80055 0.30447 0.0
H706 H 0.80245 0.84663 0.29783 0.0
H707 H 0.55137 0.74218 0.40278 0.0
H708 H 0.8131 0.89148 0.29278 0.0
N709 N 0.71766 0.82239 0.31495 0.0
C710 C 0.71013 0.79686 0.31557 0.0
C711 C 0.75441 0.80691 0.30743 0.0
C712 C 0.76177 0.83291 0.30597 0.0
C713 C 0.72843 0.78879 0.31209 0.0
C714 C 0.74261 0.84011 0.30963 0.0
H715 H 0.79773 0.92381 0.29089 0.0
N716 N 0.72923 0.87115 0.30932 0.0
C717 C 0.758 0.9142 0.29762 0.0
C718 C 0.74862 0.8653 0.30681 0.0
C719 C 0.7332 0.8949 0.30408 0.0
C720 C 0.77855 0.90885 0.29594 0.0
C721 C 0.77391 0.88405 0.30023 0.0
O722 O 0.67571 0.84843 0.2928 0.0
O723 O 0.65756 0.83686 0.34216 0.0
O724 O 0.63164 0.79659 0.35385 0.0
O725 O 0.65793 0.79549 0.32743 0.0
O726 O 0.67218 0.86566 0.3206 0.0
O727 O 0.67236 0.81089 0.29515 0.0
O728 O 0.67512 0.81516 0.40186 0.0
O729 O 0.69348 0.82905 0.35377 0.0
O730 O 0.71876 0.8697 0.34095 0.0
O731 O 0.69432 0.86969 0.36945 0.0
O732 O 0.67796 0.79926 0.37457 0.0
O733 O 0.67531 0.85136 0.40258 0.0
C734 C 0.65526 0.85531 0.33529 0.0
C735 C 0.67999 0.82979 0.26198 0.0
C736 C 0.67143 0.82306 0.22477 0.0
C737 C 0.66224 0.81983 0.24531 0.0
C738 C 0.69877 0.83638 0.22131 0.0
C739 C 0.7071 0.8427 0.25817 0.0
C740 C 0.71641 0.84598 0.23792 0.0
C741 C 0.63554 0.78509 0.33789 0.0
C742 C 0.66992 0.82709 0.28319 0.0
C743 C 0.79345 0.87727 0.29757 0.0
C744 C 0.78738 0.85174 0.30043 0.0
C745 C 0.6956 0.81041 0.36047 0.0
C746 C 0.66802 0.82868 0.43425 0.0
C747 C 0.68476 0.84016 0.45137 0.0
C748 C 0.67584 0.83193 0.47179 0.0
C749 C 0.64943 0.81237 0.47445 0.0
C750 C 0.64175 0.80987 0.43753 0.0
C751 C 0.63252 0.80187 0.45751 0.0
C752 C 0.71587 0.88058 0.35783 0.0
C753 C 0.67883 0.83477 0.41313 0.0
H754 H 0.6413 0.80946 0.24842 0.0
H755 H 0.70658 0.83971 0.20574 0.0
H756 H 0.72106 0.8504 0.27075 0.0
H757 H 0.73738 0.85617 0.23508 0.0
H758 H 0.70478 0.85518 0.44854 0.0
H759 H 0.64171 0.80449 0.48954 0.0
H760 H 0.62851 0.80083 0.4247 0.0
H761 H 0.61233 0.78693 0.45984 0.0
Eu762 Eu 0.18822 0.83777 0.37587 0.0
C763 C 0.14062 0.86751 0.30193 0.0
C764 C 0.09547 0.83245 0.30101 0.0
C765 C 0.10587 0.87485 0.28906 0.0
C766 C 0.12224 0.84195 0.306 0.0
C767 C 0.13266 0.88395 0.29283 0.0
C768 C 0.08734 0.84916 0.29308 0.0
C769 C 0.17852 0.91617 0.28927 0.0
N770 N 0.16647 0.87582 0.30539 0.0
C771 C 0.18548 0.89921 0.29827 0.0
C772 C 0.15198 0.90872 0.28695 0.0
Eu773 Eu 0.17645 0.84646 0.32137 0.0
N774 N 0.13063 0.82607 0.31361 0.0
C775 C 0.1134 0.80019 0.31514 0.0
C776 C 0.07774 0.80621 0.30342 0.0
C777 C 0.08678 0.79002 0.31037 0.0
H778 H 0.20602 0.90502 0.3001 0.0
H779 H 0.07323 0.76962 0.31199 0.0
H780 H 0.06683 0.8422 0.2894 0.0
H781 H 0.19361 0.93499 0.2842 0.0
H782 H 0.11953 0.78701 0.32043 0.0
H783 H 0.29129 0.91222 0.38525 0.0
H784 H 0.05717 0.79812 0.29938 0.0
H785 H 0.15838 0.77636 0.39141 0.0
H786 H 0.24386 0.8953 0.37941 0.0
H787 H 0.17061 0.74427 0.4029 0.0
H788 H 0.09937 0.88729 0.28232 0.0
H789 H 0.30786 0.88237 0.39275 0.0
H790 H 0.29796 0.83713 0.39949 0.0
H791 H 0.14663 0.92187 0.27992 0.0
H792 H 0.26513 0.79144 0.40441 0.0
N793 N 0.2337 0.85617 0.3831 0.0
C794 C 0.25079 0.88206 0.38281 0.0
C795 C 0.287 0.87482 0.39023 0.0
C796 C 0.26916 0.84843 0.39171 0.0
C797 C 0.27772 0.89174 0.38607 0.0
C798 C 0.24223 0.8396 0.38821 0.0
H799 H 0.21757 0.75675 0.40617 0.0
N800 N 0.19801 0.80627 0.38802 0.0
C801 C 0.18576 0.76375 0.39945 0.0
C802 C 0.22383 0.81387 0.39079 0.0
C803 C 0.17889 0.7819 0.39304 0.0
C804 C 0.2123 0.77086 0.40124 0.0
C805 C 0.23173 0.79628 0.39718 0.0
O806 O 0.16411 0.82446 0.40373 0.0
O807 O 0.15963 0.83842 0.35326 0.0
O808 O 0.18158 0.88201 0.33811 0.0
O809 O 0.19692 0.87891 0.37093 0.0
O810 O 0.14425 0.80905 0.37448 0.0
O811 O 0.19723 0.86331 0.40261 0.0
O812 O 0.19821 0.8319 0.30364 0.0
O813 O 0.2056 0.84846 0.34431 0.0
O814 O 0.18938 0.8071 0.35645 0.0
O815 O 0.1633 0.80446 0.32835 0.0
O816 O 0.2187 0.87907 0.32448 0.0
O817 O 0.17648 0.84645 0.28738 0.0
C818 C 0.13839 0.81971 0.35963 0.0
C819 C 0.18534 0.84332 0.43539 0.0
C820 C 0.18243 0.8497 0.47254 0.0
C821 C 0.17642 0.85236 0.45183 0.0
C822 C 0.19744 0.83771 0.47641 0.0
C823 C 0.2005 0.83174 0.43966 0.0
C824 C 0.20645 0.82893 0.46008 0.0
C825 C 0.19085 0.89123 0.35686 0.0
C826 C 0.17843 0.84585 0.41393 0.0
C827 C 0.25863 0.80474 0.39979 0.0
C828 C 0.27732 0.83076 0.39701 0.0
C829 C 0.22598 0.86869 0.33865 0.0
C830 C 0.21484 0.85148 0.27123 0.0
C831 C 0.21419 0.84066 0.25172 0.0
C832 C 0.23478 0.854 0.23752 0.0
C833 C 0.25627 0.87792 0.24325 0.0
C834 C 0.23645 0.8755 0.2765 0.0
C835 C 0.2571 0.8885 0.26266 0.0
C836 C 0.17568 0.79532 0.33967 0.0
C837 C 0.19272 0.83778 0.28569 0.0
H838 H 0.16508 0.86169 0.44843 0.0
H839 H 0.20202 0.83486 0.49211 0.0
H840 H 0.20764 0.82478 0.42729 0.0
H841 H 0.21801 0.81978 0.46326 0.0
H842 H 0.19749 0.82222 0.24743 0.0
H843 H 0.27251 0.88839 0.23271 0.0
H844 H 0.23751 0.88445 0.29118 0.0
H845 H 0.27373 0.90694 0.26695 0.0
Eu846 Eu 0.82782 0.66108 0.65233 0.0
C847 C 0.87797 0.73993 0.72552 0.0
C848 C 0.92349 0.75031 0.72637 0.0
C849 C 0.91176 0.78182 0.73807 0.0
C850 C 0.89687 0.73316 0.72152 0.0
C851 C 0.8851 0.76409 0.73431 0.0
C852 C 0.93092 0.7749 0.73418 0.0
C853 C 0.83883 0.75022 0.73735 0.0
N854 N 0.85237 0.72211 0.72225 0.0
C855 C 0.83276 0.72644 0.72877 0.0
C856 C 0.86514 0.76929 0.73985 0.0
Eu857 Eu 0.84347 0.68249 0.70734 0.0
N858 N 0.889 0.70916 0.71416 0.0
C859 C 0.90658 0.70064 0.71231 0.0
C860 C 0.9417 0.7419 0.72394 0.0
C861 C 0.93319 0.71694 0.71692 0.0
H862 H 0.8124 0.71174 0.72676 0.0
H863 H 0.94709 0.71018 0.71519 0.0
H864 H 0.95132 0.78845 0.73779 0.0
H865 H 0.82325 0.75384 0.742 0.0
H866 H 0.90032 0.68136 0.70702 0.0
H867 H 0.72356 0.63169 0.64597 0.0
H868 H 0.96222 0.75426 0.72796 0.0
H869 H 0.85892 0.63131 0.63368 0.0
H870 H 0.77078 0.66193 0.6516 0.0
H871 H 0.84795 0.58821 0.62057 0.0
H872 H 0.91767 0.80059 0.74462 0.0
H873 H 0.70833 0.58636 0.63668 0.0
H874 H 0.71961 0.5521 0.62805 0.0
H875 H 0.8698 0.78765 0.74661 0.0
H876 H 0.75346 0.54021 0.62116 0.0
N877 N 0.78224 0.6339 0.64607 0.0
C878 C 0.76447 0.64225 0.6475 0.0
C879 C 0.72911 0.59953 0.63922 0.0
C880 C 0.74757 0.59143 0.63674 0.0
C881 C 0.73764 0.62514 0.64435 0.0
C882 C 0.77439 0.6094 0.64011 0.0
H883 H 0.8014 0.55371 0.61788 0.0
N884 N 0.81902 0.62089 0.63868 0.0
C885 C 0.83242 0.59199 0.62503 0.0
C886 C 0.79337 0.60266 0.63631 0.0
C887 C 0.83857 0.61633 0.63238 0.0
C888 C 0.80611 0.57254 0.62359 0.0
C889 C 0.78617 0.57786 0.62893 0.0
O890 O 0.85123 0.67415 0.62405 0.0
O891 O 0.85724 0.68901 0.67462 0.0
O892 O 0.84106 0.7139 0.68984 0.0
O893 O 0.81678 0.6917 0.66047 0.0
O894 O 0.87195 0.676 0.65167 0.0
O895 O 0.8169 0.67836 0.62712 0.0
O896 O 0.82018 0.66949 0.73573 0.0
O897 O 0.81396 0.65498 0.68497 0.0
O898 O 0.82915 0.62957 0.67029 0.0
O899 O 0.85465 0.65195 0.69902 0.0
O900 O 0.79951 0.66818 0.70791 0.0
O901 O 0.85283 0.66283 0.73153 0.0
C902 C 0.87826 0.69155 0.66722 0.0
C903 C 0.82829 0.67205 0.59332 0.0
C904 C 0.83035 0.68132 0.55615 0.0
C905 C 0.83708 0.68984 0.57689 0.0
C906 C 0.81499 0.65468 0.5523 0.0
C907 C 0.81265 0.64575 0.58897 0.0
C908 C 0.80615 0.63714 0.56859 0.0
C909 C 0.82728 0.71209 0.67297 0.0
C910 C 0.83574 0.6809 0.61492 0.0
C911 C 0.75941 0.55949 0.62655 0.0
C912 C 0.74014 0.56626 0.63046 0.0
C913 C 0.79304 0.65273 0.69229 0.0
C914 C 0.843 0.66902 0.7658 0.0
C915 C 0.83164 0.65121 0.78207 0.0
C916 C 0.83966 0.65878 0.8028 0.0
C917 C 0.85897 0.68449 0.80686 0.0
C918 C 0.86236 0.69439 0.77034 0.0
C919 C 0.87021 0.70207 0.79074 0.0
C920 C 0.84314 0.63122 0.68693 0.0
C921 C 0.83471 0.66111 0.74417 0.0
H922 H 0.84883 0.71021 0.5803 0.0
H923 H 0.80996 0.64728 0.53664 0.0
H924 H 0.80557 0.63182 0.60129 0.0
H925 H 0.79429 0.61675 0.56538 0.0
H926 H 0.81689 0.63151 0.77854 0.0
H927 H 0.8652 0.69117 0.82257 0.0
H928 H 0.87143 0.70827 0.75813 0.0
H929 H 0.88506 0.72177 0.79408 0.0
Eu930 Eu 0.35287 0.17059 0.6528 0.0
C931 C 0.26935 0.14205 0.72217 0.0
C932 C 0.25957 0.17679 0.72288 0.0
C933 C 0.22627 0.13382 0.73333 0.0
C934 C 0.27688 0.16751 0.71841 0.0
C935 C 0.24408 0.12498 0.72992 0.0
C936 C 0.23408 0.15972 0.72998 0.0
C937 C 0.25686 0.09249 0.73256 0.0
N938 N 0.28728 0.13433 0.71939 0.0
C939 C 0.28184 0.11028 0.72526 0.0
C940 C 0.23778 0.09979 0.73469 0.0
Eu941 Eu 0.32884 0.16525 0.70636 0.0
N942 N 0.30169 0.18356 0.71162 0.0
C943 C 0.31072 0.20931 0.70968 0.0
C944 C 0.26868 0.20311 0.72074 0.0
C945 C 0.29432 0.21941 0.71403 0.0
H946 H 0.29662 0.10464 0.72364 0.0
H947 H 0.30156 0.23981 0.71241 0.0
H948 H 0.22042 0.16646 0.7333 0.0
H949 H 0.25238 0.07324 0.73663 0.0
H950 H 0.33055 0.22224 0.70471 0.0
H951 H 0.38679 0.10078 0.6482 0.0
H952 H 0.25631 0.21114 0.72466 0.0
H953 H 0.38145 0.2304 0.6338 0.0
H954 H 0.35485 0.11542 0.65393 0.0
H955 H 0.42488 0.26341 0.62057 0.0
H956 H 0.20672 0.12097 0.73916 0.0
H957 H 0.43235 0.13192 0.63796 0.0
H958 H 0.46628 0.17743 0.62946 0.0
H959 H 0.21853 0.08607 0.74057 0.0
H960 H 0.47677 0.22181 0.62215 0.0
N961 N 0.38228 0.15477 0.64787 0.0
C962 C 0.37471 0.12932 0.64968 0.0
C963 C 0.41857 0.1386 0.64089 0.0
C964 C 0.42599 0.1645 0.63839 0.0
C965 C 0.39279 0.12091 0.64646 0.0
C966 C 0.40705 0.17205 0.64179 0.0
H967 H 0.46129 0.25388 0.61833 0.0
N968 N 0.39358 0.20297 0.63952 0.0
C969 C 0.42181 0.24484 0.62538 0.0
C970 C 0.41294 0.19696 0.63756 0.0
C971 C 0.39727 0.22614 0.63282 0.0
C972 C 0.44234 0.23941 0.6242 0.0
C973 C 0.43793 0.21508 0.62998 0.0
O974 O 0.33968 0.17876 0.62359 0.0
O975 O 0.32263 0.17115 0.6733 0.0
O976 O 0.29765 0.13193 0.68777 0.0
O977 O 0.3229 0.12896 0.66128 0.0
O978 O 0.33654 0.19804 0.65018 0.0
O979 O 0.3369 0.14173 0.62809 0.0
O980 O 0.33887 0.15469 0.73601 0.0
O981 O 0.35882 0.16435 0.6859 0.0
O982 O 0.38439 0.20387 0.67093 0.0
O983 O 0.36058 0.20675 0.69866 0.0
O984 O 0.34427 0.13714 0.70882 0.0
O985 O 0.34768 0.1939 0.73086 0.0
C986 C 0.31992 0.18879 0.66516 0.0
C987 C 0.34437 0.15833 0.59407 0.0
C988 C 0.33677 0.15306 0.55668 0.0
C989 C 0.32717 0.15086 0.57702 0.0
C990 C 0.36394 0.16299 0.5538 0.0
C991 C 0.37124 0.16772 0.5908 0.0
C992 C 0.38096 0.1701 0.57078 0.0
C993 C 0.30107 0.11925 0.67243 0.0
C994 C 0.33416 0.15688 0.6151 0.0
C995 C 0.45735 0.20807 0.62772 0.0
C996 C 0.45137 0.1828 0.63188 0.0
C997 C 0.3611 0.14643 0.69397 0.0
C998 C 0.33833 0.17828 0.76513 0.0
C999 C 0.35465 0.18178 0.78223 0.0
C1000 C 0.34623 0.18266 0.80248 0.0
C1001 C 0.32117 0.17989 0.80531 0.0
C1002 C 0.31347 0.17565 0.76831 0.0
C1003 C 0.30494 0.17641 0.7883 0.0
C1004 C 0.38201 0.21629 0.68697 0.0
C1005 C 0.34756 0.17746 0.74415 0.0
H1006 H 0.30632 0.14312 0.57967 0.0
H1007 H 0.37214 0.16549 0.53841 0.0
H1008 H 0.38472 0.1733 0.60367 0.0
H1009 H 0.40179 0.1776 0.5684 0.0
H1010 H 0.37377 0.18358 0.77974 0.0
H1011 H 0.31425 0.1808 0.82066 0.0
H1012 H 0.30071 0.17312 0.75539 0.0
H1013 H 0.28574 0.17442 0.79062 0.0
Eu1014 Eu 0.85084 0.16822 0.70529 0.0
C1015 C 0.80508 0.20408 0.6338 0.0
C1016 C 0.75978 0.16946 0.63178 0.0
C1017 C 0.7709 0.21268 0.62163 0.0
C1018 C 0.78641 0.17836 0.6369 0.0
C1019 C 0.79756 0.22126 0.62555 0.0
C1020 C 0.75208 0.18684 0.62466 0.0
C1021 C 0.84358 0.25332 0.62295 0.0
N1022 N 0.83082 0.2119 0.63732 0.0
C1023 C 0.85012 0.23562 0.63104 0.0
C1024 C 0.81717 0.24629 0.6206 0.0
Eu1025 Eu 0.84016 0.18116 0.65147 0.0
N1026 N 0.79437 0.16181 0.64373 0.0
C1027 C 0.77679 0.13594 0.64444 0.0
C1028 C 0.74174 0.14318 0.63326 0.0
C1029 C 0.7503 0.12637 0.63951 0.0
H1030 H 0.87057 0.24112 0.63294 0.0
H1031 H 0.73649 0.10595 0.64047 0.0
H1032 H 0.73169 0.18033 0.62086 0.0
H1033 H 0.85891 0.27237 0.61859 0.0
H1034 H 0.78249 0.12227 0.64927 0.0
H1035 H 0.95412 0.24152 0.71621 0.0
H1036 H 0.72127 0.13556 0.62907 0.0
H1037 H 0.82081 0.10647 0.72015 0.0
H1038 H 0.90679 0.22526 0.71067 0.0
H1039 H 0.83271 0.07336 0.72907 0.0
H1040 H 0.76474 0.22568 0.61553 0.0
H1041 H 0.97042 0.21101 0.72134 0.0
H1042 H 0.96028 0.16525 0.72527 0.0
H1043 H 0.81214 0.26001 0.61425 0.0
H1044 H 0.92722 0.11936 0.72856 0.0
N1045 N 0.89636 0.18584 0.71214 0.0
C1046 C 0.91357 0.2117 0.71299 0.0
C1047 C 0.94961 0.20373 0.71887 0.0
C1048 C 0.93166 0.17729 0.71915 0.0
C1049 C 0.94046 0.22102 0.71609 0.0
C1050 C 0.90476 0.16885 0.71595 0.0
H1051 H 0.87955 0.08494 0.73033 0.0
N1052 N 0.86044 0.13594 0.71578 0.0
C1053 C 0.84796 0.09286 0.72581 0.0
C1054 C 0.88622 0.14307 0.71773 0.0
C1055 C 0.84128 0.1116 0.72085 0.0
C1056 C 0.87442 0.09946 0.72643 0.0
C1057 C 0.89397 0.12496 0.72285 0.0
O1058 O 0.82637 0.15349 0.73288 0.0
O1059 O 0.82313 0.17139 0.68326 0.0
O1060 O 0.8468 0.2162 0.66983 0.0
O1061 O 0.86035 0.20993 0.70242 0.0
O1062 O 0.80666 0.14077 0.70336 0.0
O1063 O 0.85987 0.19208 0.73311 0.0
O1064 O 0.86144 0.1674 0.63232 0.0
O1065 O 0.86848 0.18031 0.67386 0.0
O1066 O 0.84849 0.13646 0.68498 0.0
O1067 O 0.82645 0.1386 0.65547 0.0
O1068 O 0.88289 0.21232 0.65529 0.0
O1069 O 0.84047 0.18383 0.6176 0.0
C1070 C 0.80152 0.15272 0.68911 0.0
C1071 C 0.84725 0.17022 0.7651 0.0
C1072 C 0.8448 0.17551 0.80249 0.0
C1073 C 0.83914 0.17938 0.78199 0.0
C1074 C 0.85864 0.1622 0.8057 0.0
C1075 C 0.86129 0.15733 0.7687 0.0
C1076 C 0.86687 0.1533 0.78891 0.0
C1077 C 0.85559 0.22383 0.68895 0.0
C1078 C 0.84078 0.17415 0.74387 0.0
C1079 C 0.92084 0.13304 0.72491 0.0
C1080 C 0.93967 0.15917 0.72307 0.0
C1081 C 0.88933 0.20048 0.66877 0.0
C1082 C 0.87854 0.18913 0.60084 0.0
C1083 C 0.87942 0.17794 0.58193 0.0
C1084 C 0.90019 0.19169 0.56799 0.0
C1085 C 0.92039 0.21648 0.57345 0.0
C1086 C 0.89876 0.21403 0.60586 0.0
C1087 C 0.91966 0.22749 0.59231 0.0
C1088 C 0.83564 0.1269 0.66742 0.0
C1089 C 0.85627 0.17478 0.61494 0.0
H1090 H 0.82872 0.18976 0.77909 0.0
H1091 H 0.86291 0.15842 0.82121 0.0
H1092 H 0.86786 0.15031 0.75596 0.0
H1093 H 0.87754 0.14315 0.79159 0.0
H1094 H 0.86369 0.15883 0.57788 0.0
H1095 H 0.93679 0.22732 0.56314 0.0
H1096 H 0.89842 0.22326 0.62009 0.0
H1097 H 0.93526 0.24662 0.59636 0.0
C1098 C 0.34321 0.86429 0.06981 0.0
C1099 C 0.3215 0.84814 0.05731 0.0
C1100 C 0.3652 0.886 0.06164 0.0
C1101 C 0.36564 0.89184 0.04035 0.0
C1102 C 0.34404 0.87542 0.0275 0.0
C1103 C 0.32224 0.85371 0.03612 0.0
C1104 C 0.38789 0.90288 0.07588 0.0
C1105 C 0.34387 0.88096 0.00472 0.0
C1106 C 0.41265 0.96223 0.02829 0.0
C1107 C 0.43521 0.96163 0.02212 0.0
C1108 C 0.38932 0.93945 0.0331 0.0
C1109 C 0.38861 0.9155 0.03187 0.0
C1110 C 0.411 0.91473 0.02468 0.0
C1111 C 0.43407 0.9378 0.02011 0.0
C1112 C 0.36591 0.94118 0.04062 0.0
C1113 C 0.41123 0.88973 0.02302 0.0
H1114 H 0.34309 0.85987 0.0861 0.0
H1115 H 0.30554 0.84138 0.02636 0.0
H1116 H 0.40639 0.90453 0.06992 0.0
H1117 H 0.39062 0.92256 0.07633 0.0
H1118 H 0.38477 0.89536 0.09195 0.0
H1119 H 0.3254 0.86663 0.99689 0.0
H1120 H 0.34633 0.9004 1.00261 0.0
H1121 H 0.36071 0.88093 0.99696 0.0
H1122 H 0.41357 0.98065 0.03006 0.0
H1123 H 0.45155 0.93716 0.01578 0.0
H1124 H 0.3629 0.93647 0.05736 0.0
H1125 H 0.34779 0.92701 0.03234 0.0
H1126 H 0.36854 0.9607 0.03842 0.0
H1127 H 0.41175 0.88266 0.03878 0.0
H1128 H 0.42858 0.89198 0.01431 0.0
H1129 H 0.39311 0.87479 0.01523 0.0
C1130 C 0.16462 0.47058 0.03592 0.0
C1131 C 0.17158 0.47441 0.05702 0.0
C1132 C 0.14264 0.47181 0.02843 0.0
C1133 C 0.12721 0.47711 0.04229 0.0
C1134 C 0.13456 0.48164 0.06348 0.0
C1135 C 0.15655 0.48027 0.07054 0.0
C1136 C 0.13573 0.46712 0.00572 0.0
C1137 C 0.11888 0.48752 0.07885 0.0
C1138 C 0.07951 0.49958 0.02521 0.0
C1139 C 0.05511 0.47695 0.02704 0.0
C1140 C 0.10326 0.49967 0.02889 0.0
C1141 C 0.10264 0.4767 0.03509 0.0
C1142 C 0.07804 0.45364 0.03632 0.0
C1143 C 0.05465 0.45409 0.03237 0.0
C1144 C 0.12889 0.52467 0.02705 0.0
C1145 C 0.07632 0.42867 0.04275 0.0
H1146 H 0.17598 0.46595 0.02533 0.0
H1147 H 0.162 0.48382 0.08677 0.0
H1148 H 0.11528 0.451 0.00373 0.0
H1149 H 0.13666 0.48446 0.99881 0.0
H1150 H 0.1492 0.46252 0.99702 0.0
H1151 H 0.1276 0.49135 0.09466 0.0
H1152 H 0.11765 0.50453 0.07372 0.0
H1153 H 0.09847 0.47106 0.07964 0.0
H1154 H 0.08011 0.51745 0.02159 0.0
H1155 H 0.03584 0.43659 0.03399 0.0
H1156 H 0.14339 0.5218 0.01816 0.0
H1157 H 0.13729 0.53163 0.04273 0.0
H1158 H 0.12631 0.53982 0.01933 0.0
H1159 H 0.0896 0.42477 0.03314 0.0
H1160 H 0.056 0.41208 0.04135 0.0
H1161 H 0.08287 0.43015 0.0591 0.0
C1162 C 0.52152 0.67292 0.07564 0.0
C1163 C 0.5321 0.69582 0.06436 0.0
C1164 C 0.52015 0.65076 0.06708 0.0
C1165 C 0.53025 0.6518 0.04698 0.0
C1166 C 0.54109 0.675 0.03557 0.0
C1167 C 0.54157 0.69671 0.04433 0.0
C1168 C 0.50787 0.62625 0.07955 0.0
C1169 C 0.55258 0.67701 0.01431 0.0
C1170 C 0.54818 0.60023 0.03587 0.0
C1171 C 0.5265 0.58251 0.02413 0.0
C1172 C 0.55017 0.62338 0.04269 0.0
C1173 C 0.52965 0.6286 0.03809 0.0
C1174 C 0.50793 0.61096 0.02592 0.0
C1175 C 0.50678 0.58828 0.01888 0.0
C1176 C 0.57398 0.64202 0.05517 0.0
C1177 C 0.48537 0.6155 0.02104 0.0
H1178 H 0.5141 0.67235 0.09111 0.0
H1179 H 0.54987 0.71456 0.03574 0.0
H1180 H 0.49166 0.61048 0.07056 0.0
H1181 H 0.52269 0.62033 0.08273 0.0
H1182 H 0.49992 0.62839 0.09455 0.0
H1183 H 0.56035 0.69646 0.00752 0.0
H1184 H 0.56879 0.67255 0.01519 0.0
H1185 H 0.53742 0.66268 0.00369 0.0
H1186 H 0.56358 0.59596 0.03981 0.0
H1187 H 0.48989 0.5746 0.00988 0.0
H1188 H 0.56799 0.64331 0.07121 0.0
H1189 H 0.58287 0.66155 0.04838 0.0
H1190 H 0.58919 0.63615 0.05589 0.0
H1191 H 0.47542 0.61555 0.03562 0.0
H1192 H 0.4706 0.60054 0.01053 0.0
H1193 H 0.49276 0.63459 0.01375 0.0
C1194 C 0.86616 0.30822 0.9632 0.0
C1195 C 0.8408 0.30507 0.96211 0.0
C1196 C 0.88777 0.33152 0.96997 0.0
C1197 C 0.88402 0.35229 0.97569 0.0
C1198 C 0.85847 0.3492 0.97469 0.0
C1199 C 0.83718 0.32564 0.96798 0.0
C1200 C 0.91463 0.33391 0.97101 0.0
C1201 C 0.85364 0.3709 0.98054 0.0
C1202 C 0.9343 0.40531 0.01073 0.0
C1203 C 0.94904 0.42493 0.9966 0.0
C1204 C 0.91326 0.38155 0.00416 0.0
C1205 C 0.90679 0.37721 0.98283 0.0
C1206 C 0.92192 0.39681 0.96838 0.0
C1207 C 0.94293 0.42037 0.97543 0.0
C1208 C 0.89791 0.36112 0.02009 0.0
C1209 C 0.91562 0.39305 0.94551 0.0
H1210 H 0.86907 0.29234 0.9589 0.0
H1211 H 0.81773 0.32348 0.96693 0.0
H1212 H 0.92851 0.34981 0.96089 0.0
H1213 H 0.9225 0.33876 0.98705 0.0
H1214 H 0.91423 0.31594 0.96616 0.0
H1215 H 0.83262 0.36543 0.9789 0.0
H1216 H 0.85987 0.37689 0.99681 0.0
H1217 H 0.86563 0.38785 0.97062 0.0
H1218 H 0.93945 0.4083 0.02693 0.0
H1219 H 0.9542 0.43548 0.96438 0.0
H1220 H 0.8985 0.34335 0.01638 0.0
H1221 H 0.87696 0.35611 0.01973 0.0
H1222 H 0.90566 0.36741 0.03605 0.0
H1223 H 0.91628 0.37592 0.93979 0.0
H1224 H 0.92951 0.41001 0.93626 0.0
H1225 H 0.89536 0.38944 0.94279 0.0
C1226 C 0.68168 0.52996 0.95328 0.0
C1227 C 0.70271 0.53582 0.96686 0.0
C1228 C 0.65829 0.52853 0.96029 0.0
C1229 C 0.65576 0.53333 0.98143 0.0
C1230 C 0.67677 0.53892 0.9953 0.0
C1231 C 0.69988 0.53991 0.9879 0.0
C1232 C 0.63635 0.52214 0.94496 0.0
C1233 C 0.67498 0.54417 0.01791 0.0
C1234 C 0.60596 0.55556 0.99064 0.0
C1235 C 0.58354 0.53275 0.99665 0.0
C1236 C 0.62995 0.55632 0.98679 0.0
C1237 C 0.63155 0.53357 0.9886 0.0
C1238 C 0.60917 0.51066 0.99544 0.0
C1239 C 0.58545 0.51051 0.99925 0.0
C1240 C 0.65332 0.58128 0.9799 0.0
C1241 C 0.60976 0.48591 0.99768 0.0
H1242 H 0.68348 0.52633 0.93708 0.0
H1243 H 0.71602 0.54452 0.9985 0.0
H1244 H 0.6179 0.50523 0.95038 0.0
H1245 H 0.63263 0.53851 0.94381 0.0
H1246 H 0.64092 0.51787 0.92926 0.0
H1247 H 0.69331 0.54912 0.02657 0.0
H1248 H 0.67087 0.56026 0.01957 0.0
H1249 H 0.65842 0.52697 0.02511 0.0
H1250 H 0.60454 0.57275 0.98848 0.0
H1251 H 0.56816 0.49266 0.00345 0.0
H1252 H 0.65797 0.57951 0.96354 0.0
H1253 H 0.6709 0.58561 0.98936 0.0
H1254 H 0.64968 0.59773 0.98114 0.0
H1255 H 0.6105 0.47847 0.98209 0.0
H1256 H 0.59213 0.4709 0.00587 0.0
H1257 H 0.6276 0.48926 0.00628 0.0
C1258 C 0.46224 0.15385 0.96979 0.0
C1259 C 0.48484 0.17439 0.96118 0.0
C1260 C 0.46282 0.1325 0.97807 0.0
C1261 C 0.48642 0.13146 0.97723 0.0
C1262 C 0.50937 0.15234 0.96873 0.0
C1263 C 0.50835 0.17368 0.96099 0.0
C1264 C 0.43813 0.11089 0.98743 0.0
C1265 C 0.53476 0.15175 0.96719 0.0
C1266 C 0.49669 0.08506 0.01066 0.0
C1267 C 0.4902 0.06462 0.99686 0.0
C1268 C 0.49476 0.10657 0.00474 0.0
C1269 C 0.48684 0.10806 0.9843 0.0
C1270 C 0.48015 0.0875 0.97028 0.0
C1271 C 0.48164 0.06595 0.97678 0.0
C1272 C 0.50166 0.12791 0.02026 0.0
C1273 C 0.4721 0.08855 0.94821 0.0
H1274 H 0.44411 0.15453 0.97005 0.0
H1275 H 0.52576 0.1895 0.95415 0.0
H1276 H 0.43129 0.09311 0.9781 0.0
H1277 H 0.44227 0.10674 0.0033 0.0
H1278 H 0.42197 0.11546 0.98819 0.0
H1279 H 0.55099 0.1698 0.96063 0.0
H1280 H 0.54088 0.14868 0.9827 0.0
H1281 H 0.53177 0.13541 0.95721 0.0
H1282 H 0.50372 0.08454 0.02603 0.0
H1283 H 0.47669 0.05043 0.96587 0.0
H1284 H 0.48549 0.13241 0.02123 0.0
H1285 H 0.51952 0.14564 0.01514 0.0
H1286 H 0.50541 0.12288 0.03597 0.0
H1287 H 0.45463 0.0911 0.948 0.0
H1288 H 0.46739 0.07089 0.93928 0.0
H1289 H 0.48822 0.10537 0.94022 0.0
C1290 C 0.68235 0.16207 1.00124 0.0
C1291 C 0.68491 0.17311 0.98169 0.0
C1292 C 0.66167 0.13713 0.00544 0.0
C1293 C 0.6428 0.12313 0.98982 0.0
C1294 C 0.64586 0.13402 0.96983 0.0
C1295 C 0.66693 0.1589 0.966 0.0
C1296 C 0.65937 0.1263 0.02687 0.0
C1297 C 0.6262 0.11986 0.95273 0.0
C1298 C 0.59621 0.05077 0.99327 0.0
C1299 C 0.57276 0.04956 0.99954 0.0
C1300 C 0.61944 0.07454 0.99084 0.0
C1301 C 0.61915 0.09769 0.99454 0.0
C1302 C 0.59568 0.09651 1.00154 0.0
C1303 C 0.57274 0.07249 0.00376 0.0
C1304 C 0.64408 0.07489 0.98363 0.0
C1305 C 0.59445 0.12062 0.00595 0.0
H1306 H 0.69608 0.17333 0.01344 0.0
H1307 H 0.66873 0.16772 0.951 0.0
H1308 H 0.64259 0.12606 0.03493 0.0
H1309 H 0.65542 0.1062 0.02602 0.0
H1310 H 0.67743 0.13789 0.03629 0.0
H1311 H 0.63209 0.13039 0.9378 0.0
H1312 H 0.6239 0.10051 0.95041 0.0
H1313 H 0.60667 0.11706 0.95717 0.0
H1314 H 0.59621 0.03306 0.98985 0.0
H1315 H 0.55459 0.07172 0.00825 0.0
H1316 H 0.66076 0.087 0.99416 0.0
H1317 H 0.64942 0.08355 0.96798 0.0
H1318 H 0.64162 0.0553 0.98295 0.0
H1319 H 0.6103 0.13317 0.01695 0.0
H1320 H 0.57524 0.11635 0.0126 0.0
H1321 H 0.59766 0.13161 0.99141 0.0
C1322 C 0.8517 0.50873 0.9671 0.0
C1323 C 0.83843 0.51328 0.9831 0.0
C1324 C 0.87693 0.51185 0.97036 0.0
C1325 C 0.88915 0.51963 0.99011 0.0
C1326 C 0.87615 0.52536 0.00598 0.0
C1327 C 0.8509 0.52186 1.00234 0.0
C1328 C 0.89001 0.50572 0.95291 0.0
C1329 C 0.88807 0.53368 0.02724 0.0
C1330 C 0.93914 0.49863 0.00383 0.0
C1331 C 0.9632 0.52114 1.00038 0.0
C1332 C 0.91502 0.49813 1.00127 0.0
C1333 C 0.91478 0.52048 0.9944 0.0
C1334 C 0.93906 0.54331 0.991 0.0
C1335 C 0.9629 0.54335 0.99402 0.0
C1336 C 0.88976 0.47351 0.00561 0.0
C1337 C 0.93984 0.5676 0.98381 0.0
H1338 H 0.84182 0.5016 0.95232 0.0
H1339 H 0.8404 0.52488 0.01484 0.0
H1340 H 0.91023 0.522 0.95048 0.0
H1341 H 0.89174 0.48866 0.95702 0.0
H1342 H 0.87885 0.50166 0.93812 0.0
H1343 H 0.87855 0.54262 0.03622 0.0
H1344 H 0.8853 0.5165 0.03578 0.0
H1345 H 0.90946 0.54756 0.02632 0.0
H1346 H 0.93911 0.48121 0.00827 0.0
H1347 H 0.98142 0.56075 0.99111 0.0
H1348 H 0.87806 0.46623 0.99113 0.0
H1349 H 0.87773 0.47718 0.01686 0.0
H1350 H 0.89333 0.4583 0.01197 0.0
H1351 H 0.92986 0.56421 0.96855 0.0
H1352 H 0.96026 0.58394 0.98236 0.0
H1353 H 0.92901 0.57311 0.99486 0.0
C1354 C 0.50409 0.32813 0.97817 0.0
C1355 C 0.52527 0.33342 0.96513 0.0
C1356 C 0.49836 0.34749 0.98365 0.0
C1357 C 0.5141 0.37267 0.9758 0.0
C1358 C 0.53474 0.3778 0.96187 0.0
C1359 C 0.54011 0.35814 0.95675 0.0
C1360 C 0.47631 0.34133 0.99865 0.0
C1361 C 0.55189 0.40436 0.95306 0.0
C1362 C 0.49276 0.423 0.98024 0.0
C1363 C 0.50789 0.43762 0.99721 0.0
C1364 C 0.49404 0.40138 0.97332 0.0
C1365 C 0.51078 0.39424 0.98365 0.0
C1366 C 0.52557 0.40856 1.00107 0.0
C1367 C 0.52405 0.43007 0.00752 0.0
C1368 C 0.47811 0.38664 0.95461 0.0
C1369 C 0.54371 0.40169 0.01256 0.0
H1370 H 0.49268 0.30911 0.98481 0.0
H1371 H 0.55625 0.36221 0.94642 0.0
H1372 H 0.48465 0.35147 0.01355 0.0
H1373 H 0.46321 0.34822 0.99257 0.0
H1374 H 0.46434 0.32037 1.00176 0.0
H1375 H 0.5656 0.40464 0.94109 0.0
H1376 H 0.53955 0.41164 0.94608 0.0
H1377 H 0.56366 0.41787 0.96566 0.0
H1378 H 0.4803 0.4287 0.97209 0.0
H1379 H 0.53625 0.4414 0.02036 0.0
H1380 H 0.46609 0.36587 0.95826 0.0
H1381 H 0.49153 0.3885 0.94181 0.0
H1382 H 0.46485 0.39366 0.94909 0.0
H1383 H 0.53276 0.38129 0.0175 0.0
H1384 H 0.55275 0.41398 0.02647 0.0
H1385 H 0.55971 0.4039 1.00215 0.0
C1386 C 0.17278 0.68966 0.0398 0.0
C1387 C 0.1913 0.68875 0.05299 0.0
C1388 C 0.14764 0.66794 0.03707 0.0
C1389 C 0.14088 0.64498 0.04801 0.0
C1390 C 0.1589 0.64478 0.06257 0.0
C1391 C 0.18399 0.66657 0.0647 0.0
C1392 C 0.12917 0.66894 0.02126 0.0
C1393 C 0.15248 0.6209 0.07475 0.0
C1394 C 0.07062 0.58786 0.04582 0.0
C1395 C 0.07288 0.57255 0.03039 0.0
C1396 C 0.09248 0.61162 0.05173 0.0
C1397 C 0.11707 0.62026 0.0419 0.0
C1398 C 0.11937 0.6048 0.02639 0.0
C1399 C 0.09744 0.58117 0.02102 0.0
C1400 C 0.08936 0.62736 0.06857 0.0
C1401 C 0.14513 0.61311 0.01544 0.0
H1402 H 0.17855 0.70675 0.03061 0.0
H1403 H 0.19839 0.66591 0.07489 0.0
H1404 H 0.12822 0.65745 0.00745 0.0
H1405 H 0.10897 0.66038 0.02757 0.0
H1406 H 0.13569 0.68893 0.01622 0.0
H1407 H 0.16671 0.62501 0.08759 0.0
H1408 H 0.13238 0.61221 0.0813 0.0
H1409 H 0.15294 0.60642 0.06431 0.0
H1410 H 0.05181 0.58132 0.05327 0.0
H1411 H 0.09977 0.56929 0.00954 0.0
H1412 H 0.09494 0.64677 0.06265 0.0
H1413 H 0.10281 0.63004 0.08167 0.0
H1414 H 0.0689 0.61818 0.07449 0.0
H1415 H 0.15189 0.63188 0.00774 0.0
H1416 H 0.14353 0.59893 0.00359 0.0
H1417 H 0.16048 0.61574 0.02684 0.0
C1418 C 0.33138 0.48089 0.0224 0.0
C1419 C 0.32822 0.49073 0.04119 0.0
C1420 C 0.35318 0.47754 0.01902 0.0
C1421 C 0.37267 0.48466 0.03466 0.0
C1422 C 0.36888 0.49355 0.05404 0.0
C1423 C 0.34673 0.49653 0.05705 0.0
C1424 C 0.3561 0.46806 0.99813 0.0
C1425 C 0.38891 0.50117 0.07125 0.0
C1426 C 0.42434 0.46347 0.03186 0.0
C1427 C 0.44655 0.48582 0.02475 0.0
C1428 C 0.40005 0.46256 0.03469 0.0
C1429 C 0.39781 0.48457 0.03037 0.0
C1430 C 0.42005 0.50698 0.02269 0.0
C1431 C 0.44415 0.50745 0.02033 0.0
C1432 C 0.37692 0.43823 0.04277 0.0
C1433 C 0.41862 0.53075 0.01739 0.0
H1434 H 0.31737 0.47695 0.00997 0.0
H1435 H 0.34458 0.50466 0.07143 0.0
H1436 H 0.3698 0.48487 0.98873 0.0
H1437 H 0.36436 0.45504 0.99957 0.0
H1438 H 0.33702 0.45776 0.98971 0.0
H1439 H 0.38207 0.50562 0.0859 0.0
H1440 H 0.39337 0.48552 0.0742 0.0
H1441 H 0.40754 0.51842 0.06657 0.0
H1442 H 0.42612 0.44678 0.03557 0.0
H1443 H 0.46124 0.52502 0.01542 0.0
H1444 H 0.35994 0.4316 0.032 0.0
H1445 H 0.37074 0.44211 0.05795 0.0
H1446 H 0.38153 0.4225 0.04471 0.0
H1447 H 0.40201 0.52578 0.00657 0.0
H1448 H 0.43703 0.54587 0.01014 0.0
H1449 H 0.41492 0.5388 0.03165 0.0
C1450 C 0.52187 0.83753 0.04482 0.0
C1451 C 0.50026 0.82185 0.05733 0.0
C1452 C 0.52766 0.86258 0.03967 0.0
C1453 C 0.51158 0.87214 0.04742 0.0
C1454 C 0.49081 0.85694 0.06115 0.0
C1455 C 0.48533 0.83193 0.06585 0.0
C1456 C 0.54988 0.87814 0.0249 0.0
C1457 C 0.47337 0.8665 0.06993 0.0
C1458 C 0.53078 0.94264 0.04212 0.0
C1459 C 0.51533 0.9416 0.02509 0.0
C1460 C 0.53037 0.92031 0.04933 0.0
C1461 C 0.51421 0.89649 0.03921 0.0
C1462 C 0.4991 0.8955 0.02174 0.0
C1463 C 0.49971 0.91795 0.01503 0.0
C1464 C 0.54655 0.92205 0.06813 0.0
C1465 C 0.48157 0.87053 0.01046 0.0
H1466 H 0.53337 0.82972 0.03814 0.0
H1467 H 0.46882 0.81993 0.07576 0.0
H1468 H 0.54164 0.87949 0.00976 0.0
H1469 H 0.56234 0.89803 0.03082 0.0
H1470 H 0.56246 0.86938 0.02231 0.0
H1471 H 0.4601 0.85361 0.08218 0.0
H1472 H 0.48544 0.8861 0.07654 0.0
H1473 H 0.4611 0.86773 0.05736 0.0
H1474 H 0.54278 0.96076 0.0501 0.0
H1475 H 0.4872 0.91667 1.0022 0.0
H1476 H 0.55879 0.91313 0.06482 0.0
H1477 H 0.53328 0.91118 0.08109 0.0
H1478 H 0.5596 0.94224 0.07325 0.0
H1479 H 0.49309 0.86129 0.0057 0.0
H1480 H 0.47222 0.87332 0.99646 0.0
H1481 H 0.46579 0.85701 0.02095 0.0
C1482 C 0.98944 0.18604 0.36964 0.0
C1483 C 0.98873 0.17978 0.39065 0.0
C1484 C 0.01131 0.20797 0.36134 0.0
C1485 C 0.03298 0.22384 0.37434 0.0
C1486 C 0.03264 0.2171 0.39539 0.0
C1487 C 0.01059 0.19523 0.40325 0.0
C1488 C 0.01106 0.21442 0.3388 0.0
C1489 C 0.05544 0.23325 0.40977 0.0
C1490 C 0.10153 0.27176 0.3556 0.0
C1491 C 0.10225 0.29523 0.35886 0.0
C1492 C 0.07848 0.2482 0.35904 0.0
C1493 C 0.05573 0.24811 0.36646 0.0
C1494 C 0.05603 0.27175 0.36891 0.0
C1495 C 0.07934 0.29502 0.36521 0.0
C1496 C 0.07916 0.22357 0.356 0.0
C1497 C 0.0322 0.27257 0.37666 0.0
H1498 H 0.97262 0.17418 0.35983 0.0
H1499 H 0.01042 0.1902 0.4194 0.0
H1500 H 0.01253 0.23353 0.33742 0.0
H1501 H 0.0284 0.21564 0.33088 0.0
H1502 H 0.99295 0.19993 0.33065 0.0
H1503 H 0.05239 0.22499 0.42558 0.0
H1504 H 0.07385 0.23507 0.40344 0.0
H1505 H 0.05827 0.25294 0.41099 0.0
H1506 H 0.11923 0.27168 0.35118 0.0
H1507 H 0.07992 0.31315 0.36792 0.0
H1508 H 0.06085 0.20868 0.3484 0.0
H1509 H 0.08064 0.21603 0.37133 0.0
H1510 H 0.09624 0.2266 0.34651 0.0
H1511 H 0.01441 0.25889 0.36778 0.0
H1512 H 0.03461 0.29211 0.37547 0.0
H1513 H 0.02875 0.26658 0.39314 0.0
C1514 C 0.82203 0.81248 0.40497 0.0
C1515 C 0.8369 0.80648 0.39138 0.0
C1516 C 0.80004 0.81394 0.398 0.0
C1517 C 0.79247 0.80927 0.37686 0.0
C1518 C 0.80767 0.8037 0.36295 0.0
C1519 C 0.8297 0.80247 0.37034 0.0
C1520 C 0.78464 0.82012 0.41341 0.0
C1521 C 0.80055 0.79885 0.34029 0.0
C1522 C 0.71993 0.78681 0.36717 0.0
C1523 C 0.7206 0.8097 0.36159 0.0
C1524 C 0.74322 0.78617 0.37117 0.0
C1525 C 0.76794 0.80907 0.36974 0.0
C1526 C 0.76876 0.83206 0.3633 0.0
C1527 C 0.74511 0.83215 0.35953 0.0
C1528 C 0.74128 0.76115 0.37776 0.0
C1529 C 0.79453 0.85688 0.36126 0.0
H1530 H 0.82766 0.81615 0.42116 0.0
H1531 H 0.84094 0.79775 0.35969 0.0
H1532 H 0.7835 0.83716 0.4082 0.0
H1533 H 0.76419 0.80377 0.41437 0.0
H1534 H 0.79352 0.82407 0.42916 0.0
H1535 H 0.81311 0.79294 0.33175 0.0
H1536 H 0.77967 0.78365 0.33838 0.0
H1537 H 0.80283 0.81663 0.33313 0.0
H1538 H 0.70104 0.76943 0.36892 0.0
H1539 H 0.74588 0.85004 0.35564 0.0
H1540 H 0.74805 0.76278 0.39405 0.0
H1541 H 0.75429 0.75695 0.36807 0.0
H1542 H 0.72086 0.7447 0.37657 0.0
H1543 H 0.80327 0.86378 0.37686 0.0
H1544 H 0.79204 0.87217 0.35368 0.0
H1545 H 0.8087 0.85378 0.35213 0.0
C1546 C 0.1743 0.00903 0.39459 0.0
C1547 C 0.19831 0.03205 0.39644 0.0
C1548 C 0.17336 0.98647 0.3874 0.0
C1549 C 0.19696 0.98712 0.38161 0.0
C1550 C 0.22116 0.01055 0.3828 0.0
C1551 C 0.22157 0.0327 0.39041 0.0
C1552 C 0.14722 0.96177 0.38664 0.0
C1553 C 0.24666 0.01213 0.37637 0.0
C1554 C 0.19873 0.92469 0.38365 0.0
C1555 C 0.19379 0.91646 0.36291 0.0
C1556 C 0.19987 0.94766 0.38992 0.0
C1557 C 0.19643 0.96306 0.37504 0.0
C1558 C 0.192 0.9552 0.35404 0.0
C1559 C 0.19048 0.9319 0.34829 0.0
C1560 C 0.20424 0.95518 0.41254 0.0
C1561 C 0.18862 0.97126 0.33764 0.0
H1562 H 0.15635 0.00849 0.39946 0.0
H1563 H 0.24012 0.05057 0.39172 0.0
H1564 H 0.14341 0.95341 0.37081 0.0
H1565 H 0.14771 0.94747 0.39724 0.0
H1566 H 0.13061 0.96466 0.39117 0.0
H1567 H 0.26352 0.03212 0.37704 0.0
H1568 H 0.25102 0.99993 0.38666 0.0
H1569 H 0.24489 0.00465 0.36036 0.0
H1570 H 0.20112 0.91291 0.39519 0.0
H1571 H 0.18652 0.9258 0.33233 0.0
H1572 H 0.18738 0.95674 0.41853 0.0
H1573 H 0.2221 0.97433 0.41444 0.0
H1574 H 0.20654 0.94108 0.42216 0.0
H1575 H 0.17093 0.97281 0.34101 0.0
H1576 H 0.18652 0.96302 0.32185 0.0
H1577 H 0.20578 0.99106 0.33781 0.0
C1578 C 0.51669 0.64177 0.31505 0.0
C1579 C 0.5061 0.64057 0.29532 0.0
C1580 C 0.53812 0.66477 0.32253 0.0
C1581 C 0.54872 0.68722 0.31017 0.0
C1582 C 0.53776 0.68613 0.29034 0.0
C1583 C 0.5168 0.66275 0.28307 0.0
C1584 C 0.54959 0.66498 0.34355 0.0
C1585 C 0.54803 0.70973 0.27688 0.0
C1586 C 0.58761 0.75253 0.33656 0.0
C1587 C 0.61357 0.75972 0.33126 0.0
C1588 C 0.56637 0.72898 0.32989 0.0
C1589 C 0.57117 0.71192 0.31795 0.0
C1590 C 0.5974 0.71884 0.31293 0.0
C1591 C 0.61827 0.74279 0.31944 0.0
C1592 C 0.53874 0.72265 0.33527 0.0
C1593 C 0.60341 0.70097 0.30061 0.0
H1594 H 0.50849 0.62455 0.32446 0.0
H1595 H 0.50844 0.66184 0.26787 0.0
H1596 H 0.57077 0.67116 0.34202 0.0
H1597 H 0.54823 0.67908 0.35387 0.0
H1598 H 0.53942 0.64581 0.35106 0.0
H1599 H 0.5369 0.70581 0.26209 0.0
H1600 H 0.54679 0.72524 0.28532 0.0
H1601 H 0.56905 0.71708 0.27325 0.0
H1602 H 0.58378 0.76558 0.34556 0.0
H1603 H 0.63829 0.74815 0.31542 0.0
H1604 H 0.52856 0.70422 0.34381 0.0
H1605 H 0.52734 0.72017 0.32085 0.0
H1606 H 0.53839 0.73788 0.34488 0.0
H1607 H 0.59454 0.68189 0.30822 0.0
H1608 H 0.62489 0.70858 0.29896 0.0
H1609 H 0.59455 0.69793 0.28492 0.0
C1610 C 0.36832 0.87861 0.32382 0.0
C1611 C 0.37018 0.87367 0.30277 0.0
C1612 C 0.34555 0.87785 0.33179 0.0
C1613 C 0.32398 0.87194 0.31846 0.0
C1614 C 0.32557 0.86658 0.29729 0.0
C1615 C 0.34851 0.86746 0.28976 0.0
C1616 C 0.34461 0.88353 0.35446 0.0
C1617 C 0.30304 0.86004 0.28251 0.0
C1618 C 0.25444 0.84825 0.33843 0.0
C1619 C 0.25206 0.87032 0.3366 0.0
C1620 C 0.27809 0.84877 0.33361 0.0
C1621 C 0.29988 0.87184 0.32636 0.0
C1622 C 0.29781 0.89438 0.32509 0.0
C1623 C 0.27396 0.89332 0.33017 0.0
C1624 C 0.27922 0.82424 0.33535 0.0
C1625 C 0.32045 0.9194 0.31747 0.0
H1626 H 0.3849 0.88355 0.33402 0.0
H1627 H 0.34936 0.86306 0.27359 0.0
H1628 H 0.34082 0.89981 0.35622 0.0
H1629 H 0.32814 0.8666 0.36203 0.0
H1630 H 0.36318 0.88838 0.36272 0.0
H1631 H 0.30712 0.8559 0.26659 0.0
H1632 H 0.28487 0.84301 0.28818 0.0
H1633 H 0.29905 0.87626 0.28176 0.0
H1634 H 0.23753 0.83023 0.34292 0.0
H1635 H 0.27215 0.91036 0.3285 0.0
H1636 H 0.29737 0.82784 0.34361 0.0
H1637 H 0.27979 0.81706 0.31962 0.0
H1638 H 0.26193 0.80894 0.34366 0.0
H1639 H 0.33872 0.92411 0.3261 0.0
H1640 H 0.3166 0.93567 0.31916 0.0
H1641 H 0.32404 0.91747 0.30087 0.0
C1642 C 0.13632 0.4965 0.3102 0.0
C1643 C 0.15747 0.51433 0.29828 0.0
C1644 C 0.13638 0.47497 0.31867 0.0
C1645 C 0.15772 0.47086 0.31454 0.0
C1646 C 0.17928 0.48906 0.3027 0.0
C1647 C 0.17901 0.51076 0.29492 0.0
C1648 C 0.11342 0.45639 0.33171 0.0
C1649 C 0.20213 0.48512 0.29756 0.0
C1650 C 0.17058 0.42492 0.34625 0.0
C1651 C 0.15883 0.40258 0.33395 0.0
C1652 C 0.16944 0.44693 0.34059 0.0
C1653 C 0.15708 0.44699 0.32175 0.0
C1654 C 0.14514 0.42454 0.30924 0.0
C1655 C 0.14588 0.40254 0.31561 0.0
C1656 C 0.18197 0.47028 0.35458 0.0
C1657 C 0.13232 0.42402 0.28878 0.0
H1658 H 0.1197 0.49938 0.31277 0.0
H1659 H 0.1952 0.52448 0.28548 0.0
H1660 H 0.10261 0.43753 0.32369 0.0
H1661 H 0.12058 0.45312 0.3467 0.0
H1662 H 0.09947 0.46343 0.33486 0.0
H1663 H 0.21755 0.50132 0.28849 0.0
H1664 H 0.2112 0.48296 0.31196 0.0
H1665 H 0.19501 0.46711 0.28845 0.0
H1666 H 0.18117 0.42551 0.36016 0.0
H1667 H 0.13686 0.38552 0.30586 0.0
H1668 H 0.16799 0.4773 0.35756 0.0
H1669 H 0.19944 0.48605 0.34689 0.0
H1670 H 0.1883 0.4662 0.36966 0.0
H1671 H 0.11651 0.42879 0.29113 0.0
H1672 H 0.12373 0.40498 0.28095 0.0
H1673 H 0.14705 0.43881 0.27831 0.0
C1674 C 0.34998 0.49399 0.3335 0.0
C1675 C 0.35196 0.50584 0.31442 0.0
C1676 C 0.32914 0.46908 0.3375 0.0
C1677 C 0.30953 0.45593 0.32217 0.0
C1678 C 0.31212 0.46753 0.30254 0.0
C1679 C 0.33334 0.49238 0.2989 0.0
C1680 C 0.32736 0.45765 0.35859 0.0
C1681 C 0.29174 0.45425 0.28573 0.0
C1682 C 0.26053 0.38402 0.32538 0.0
C1683 C 0.23789 0.38386 0.3325 0.0
C1684 C 0.28429 0.40726 0.32265 0.0
C1685 C 0.28538 0.43094 0.32701 0.0
C1686 C 0.26276 0.43079 0.33487 0.0
C1687 C 0.23926 0.40731 0.33723 0.0
C1688 C 0.30799 0.40653 0.31449 0.0
C1689 C 0.26305 0.45548 0.34012 0.0
H1690 H 0.36418 0.50468 0.34561 0.0
H1691 H 0.33469 0.50183 0.28429 0.0
H1692 H 0.3127 0.45976 0.36791 0.0
H1693 H 0.32081 0.43685 0.35739 0.0
H1694 H 0.34649 0.4675 0.36698 0.0
H1695 H 0.29757 0.46497 0.27089 0.0
H1696 H 0.28839 0.43456 0.283 0.0
H1697 H 0.27274 0.45231 0.29072 0.0
H1698 H 0.25948 0.36593 0.32149 0.0
H1699 H 0.22178 0.40746 0.34225 0.0
H1700 H 0.32516 0.41769 0.32486 0.0
H1701 H 0.31325 0.41568 0.29901 0.0
H1702 H 0.30446 0.38658 0.31311 0.0
H1703 H 0.2795 0.46725 0.35093 0.0
H1704 H 0.24437 0.45195 0.34736 0.0
H1705 H 0.26628 0.46693 0.32584 0.0
C1706 C 0.52076 0.84945 0.30271 0.0
C1707 C 0.50768 0.85356 0.31911 0.0
C1708 C 0.54574 0.8518 0.30567 0.0
C1709 C 0.55795 0.85845 0.32551 0.0
C1710 C 0.54526 0.86395 0.34176 0.0
C1711 C 0.52025 0.86117 0.33842 0.0
C1712 C 0.55847 0.84589 0.28784 0.0
C1713 C 0.55707 0.87104 0.36315 0.0
C1714 C 0.60593 0.83456 0.3382 0.0
C1715 C 0.63049 0.85661 0.33507 0.0
C1716 C 0.58233 0.83511 0.33581 0.0
C1717 C 0.58308 0.85812 0.3295 0.0
C1718 C 0.60786 0.88054 0.32655 0.0
C1719 C 0.63119 0.87949 0.32931 0.0
C1720 C 0.55652 0.81084 0.33965 0.0
C1721 C 0.60972 0.90557 0.32017 0.0
H1722 H 0.51083 0.84303 0.28788 0.0
H1723 H 0.50993 0.86386 0.35124 0.0
H1724 H 0.57896 0.8618 0.28573 0.0
H1725 H 0.55943 0.82825 0.2913 0.0
H1726 H 0.54749 0.84287 0.27308 0.0
H1727 H 0.54876 0.88111 0.37218 0.0
H1728 H 0.55242 0.85312 0.37148 0.0
H1729 H 0.57875 0.88349 0.36257 0.0
H1730 H 0.60503 0.81662 0.34208 0.0
H1731 H 0.65007 0.89655 0.32662 0.0
H1732 H 0.54483 0.80453 0.32509 0.0
H1733 H 0.54487 0.81459 0.35121 0.0
H1734 H 0.5593 0.79489 0.3454 0.0
H1735 H 0.59989 0.90315 0.30495 0.0
H1736 H 0.63041 0.92145 0.31899 0.0
H1737 H 0.5993 0.91116 0.33155 0.0
C1738 C 0.21265 0.69688 0.28889 0.0
C1739 C 0.19869 0.67202 0.29717 0.0
C1740 C 0.20654 0.71593 0.29448 0.0
C1741 C 0.18606 0.71002 0.30879 0.0
C1742 C 0.17124 0.6847 0.3166 0.0
C1743 C 0.1777 0.66598 0.31066 0.0
C1744 C 0.22271 0.74266 0.28572 0.0
C1745 C 0.1494 0.6777 0.332 0.0
C1746 C 0.19391 0.76566 0.34191 0.0
C1747 C 0.17654 0.77226 0.33239 0.0
C1748 C 0.19671 0.74517 0.33462 0.0
C1749 C 0.18199 0.73093 0.31716 0.0
C1750 C 0.1642 0.73723 0.30752 0.0
C1751 C 0.16167 0.75786 0.31525 0.0
C1752 C 0.21596 0.7392 0.34539 0.0
C1753 C 0.14829 0.72255 0.28878 0.0
H1754 H 0.22864 0.70153 0.27822 0.0
H1755 H 0.16698 0.64688 0.31726 0.0
H1756 H 0.20967 0.74939 0.2792 0.0
H1757 H 0.23451 0.75626 0.29827 0.0
H1758 H 0.23632 0.74354 0.2734 0.0
H1759 H 0.13817 0.6567 0.33509 0.0
H1760 H 0.15783 0.68793 0.34685 0.0
H1761 H 0.13557 0.6839 0.3263 0.0
H1762 H 0.20599 0.77693 0.35482 0.0
H1763 H 0.14835 0.76291 0.30768 0.0
H1764 H 0.23177 0.742 0.3345 0.0
H1765 H 0.20585 0.71879 0.35032 0.0
H1766 H 0.22521 0.75158 0.35922 0.0
H1767 H 0.16169 0.72502 0.27579 0.0
H1768 H 0.13448 0.72908 0.28363 0.0
H1769 H 0.13685 0.70168 0.29223 0.0
C1770 C 0.83927 0.02237 0.374 0.0
C1771 C 0.85785 0.0209 0.38674 0.0
C1772 C 0.81394 1.00094 0.37133 0.0
C1773 C 0.80706 0.97771 0.38187 0.0
C1774 C 0.82515 0.97694 0.39604 0.0
C1775 C 0.85042 0.99846 0.39812 0.0
C1776 C 0.79538 0.00253 0.35595 0.0
C1777 C 0.81859 0.95275 0.4078 0.0
C1778 C 0.73667 0.92089 0.37987 0.0
C1779 C 0.73865 0.90575 0.36414 0.0
C1780 C 0.75865 0.94456 0.38578 0.0
C1781 C 0.78305 0.95326 0.37564 0.0
C1782 C 0.78504 0.93803 0.35975 0.0
C1783 C 0.76301 0.9145 0.3544 0.0
C1784 C 0.75589 0.96007 0.403 0.0
C1785 C 0.8106 0.94644 0.34846 0.0
H1786 H 0.84512 0.03969 0.36509 0.0
H1787 H 0.86484 0.99739 0.408 0.0
H1788 H 0.79417 0.99137 0.34184 0.0
H1789 H 0.77527 0.99394 0.36244 0.0
H1790 H 0.80201 0.02268 0.35134 0.0
H1791 H 0.83297 0.95644 0.42044 0.0
H1792 H 0.79861 0.94414 0.41456 0.0
H1793 H 0.81869 0.93836 0.39702 0.0
H1794 H 0.71802 0.91426 0.38761 0.0
H1795 H 0.76512 0.90277 0.34265 0.0
H1796 H 0.7618 0.97972 0.39748 0.0
H1797 H 0.76925 0.96217 0.416 0.0
H1798 H 0.73545 0.95104 0.40896 0.0
H1799 H 0.81741 0.96544 0.34114 0.0
H1800 H 0.80871 0.93252 0.33625 0.0
H1801 H 0.82606 0.94864 0.35957 0.0
C1802 C 0.01195 0.82944 0.39035 0.0
C1803 C 0.99412 0.8244 0.3741 0.0
C1804 C 0.03442 0.82693 0.38754 0.0
C1805 C 0.03917 0.81914 0.36799 0.0
C1806 C 0.02044 0.81289 0.35186 0.0
C1807 C 0.99835 0.81586 0.35504 0.0
C1808 C 0.05374 0.8338 0.4052 0.0
C1809 C 0.02438 0.80438 0.33085 0.0
C1810 C 0.11093 0.84096 0.35508 0.0
C1811 C 0.11257 0.81892 0.35955 0.0
C1812 C 0.08705 0.84104 0.35712 0.0
C1813 C 0.06424 0.81869 0.36422 0.0
C1814 C 0.06572 0.79625 0.36839 0.0
C1815 C 0.08983 0.79667 0.36608 0.0
C1816 C 0.08644 0.86531 0.35212 0.0
C1817 C 0.04195 0.77191 0.37574 0.0
H1818 H 0.00903 0.83663 0.40494 0.0
H1819 H 0.98487 0.8125 0.34232 0.0
H1820 H 0.05773 0.81783 0.40812 0.0
H1821 H 0.07272 0.85096 0.40101 0.0
H1822 H 0.04651 0.83804 0.41974 0.0
H1823 H 1.00629 0.79636 0.32115 0.0
H1824 H 0.04027 0.82117 0.32271 0.0
H1825 H 0.03047 0.78967 0.33237 0.0
H1826 H 0.12849 0.85838 0.3504 0.0
H1827 H 0.09102 0.77963 0.3697 0.0
H1828 H 0.08177 0.87271 0.3663 0.0
H1829 H 0.07075 0.86114 0.34057 0.0
H1830 H 0.10548 0.88062 0.34586 0.0
H1831 H 0.03546 0.77543 0.39092 0.0
H1832 H 0.04599 0.75577 0.37744 0.0
H1833 H 0.02538 0.76604 0.36467 0.0
C1834 C 0.1831 0.16999 0.37635 0.0
C1835 C 0.16166 0.15464 0.38914 0.0
C1836 C 0.18893 0.19496 0.37088 0.0
C1837 C 0.17307 0.20481 0.37854 0.0
C1838 C 0.15224 0.18983 0.3923 0.0
C1839 C 0.14674 0.16491 0.39737 0.0
C1840 C 0.21117 0.21026 0.35604 0.0
C1841 C 0.13499 0.19969 0.40096 0.0
C1842 C 0.19413 0.27586 0.37454 0.0
C1843 C 0.17898 0.27574 0.35762 0.0
C1844 C 0.19305 0.25303 0.38124 0.0
C1845 C 0.17651 0.22963 0.37071 0.0
C1846 C 0.1618 0.22957 0.35327 0.0
C1847 C 0.1631 0.25252 0.34706 0.0
C1848 C 0.20885 0.2538 0.4 0.0
C1849 C 0.14387 0.20507 0.34158 0.0
H1850 H 0.19457 0.16205 0.36986 0.0
H1851 H 0.13037 0.15319 0.40749 0.0
H1852 H 0.20301 0.21223 0.34106 0.0
H1853 H 0.22417 0.22995 0.36217 0.0
H1854 H 0.2232 0.20099 0.35309 0.0
H1855 H 0.12116 0.18663 0.41285 0.0
H1856 H 0.14726 0.21902 0.40798 0.0
H1857 H 0.12336 0.2017 0.38826 0.0
H1858 H 0.20639 0.29364 0.38288 0.0
H1859 H 0.15088 0.25196 0.33426 0.0
H1860 H 0.22077 0.24461 0.39642 0.0
H1861 H 0.19533 0.2427 0.41276 0.0
H1862 H 0.22218 0.27376 0.40554 0.0
H1863 H 0.15484 0.19526 0.33686 0.0
H1864 H 0.13519 0.20862 0.32752 0.0
H1865 H 0.12759 0.19171 0.35179 0.0
C1866 C 0.65353 0.52053 0.70272 0.0
C1867 C 0.65142 0.51506 0.72398 0.0
C1868 C 0.67584 0.5422 0.69467 0.0
C1869 C 0.69668 0.55854 0.70817 0.0
C1870 C 0.69485 0.55271 0.72957 0.0
C1871 C 0.67222 0.53118 0.73721 0.0
C1872 C 0.67698 0.54785 0.67182 0.0
C1873 C 0.71678 0.56934 0.74448 0.0
C1874 C 0.76633 0.60467 0.69031 0.0
C1875 C 0.76747 0.62847 0.69242 0.0
C1876 C 0.74291 0.58153 0.69404 0.0
C1877 C 0.72015 0.58224 0.70031 0.0
C1878 C 0.72088 0.6062 0.70139 0.0
C1879 C 0.74462 0.62904 0.69766 0.0
C1880 C 0.74316 0.55652 0.69263 0.0
C1881 C 0.69699 0.60786 0.70763 0.0
H1882 H 0.63746 0.50813 0.69245 0.0
H1883 H 0.67087 0.52678 0.75359 0.0
H1884 H 0.67872 0.56697 0.66949 0.0
H1885 H 0.69468 0.54866 0.66493 0.0
H1886 H 0.6593 0.53316 0.66335 0.0
H1887 H 0.71271 0.56165 0.76051 0.0
H1888 H 0.73551 0.57085 0.73926 0.0
H1889 H 0.71966 0.58908 0.74475 0.0
H1890 H 0.78401 0.60406 0.68673 0.0
H1891 H 0.74554 0.64745 0.69944 0.0
H1892 H 0.7253 0.5416 0.68455 0.0
H1893 H 0.7432 0.54942 0.70848 0.0
H1894 H 0.76079 0.55882 0.68433 0.0
H1895 H 0.67949 0.59387 0.69862 0.0
H1896 H 0.69983 0.62743 0.70528 0.0
H1897 H 0.69274 0.60284 0.72425 0.0
C1898 C 0.49402 0.13637 0.70294 0.0
C1899 C 0.50158 0.14048 0.72388 0.0
C1900 C 0.47199 0.13775 0.69582 0.0
C1901 C 0.45731 0.14382 0.70987 0.0
C1902 C 0.46532 0.14867 0.73093 0.0
C1903 C 0.48717 0.14681 0.73766 0.0
C1904 C 0.46428 0.13244 0.6733 0.0
C1905 C 0.45056 0.15551 0.74646 0.0
C1906 C 0.41048 0.16731 0.69234 0.0
C1907 C 0.38582 0.14522 0.69502 0.0
C1908 C 0.43397 0.1669 0.6961 0.0
C1909 C 0.43284 0.14392 0.703 0.0
C1910 C 0.40794 0.12135 0.70501 0.0
C1911 C 0.38481 0.12235 0.70118 0.0
C1912 C 0.45993 0.19142 0.69359 0.0
C1913 C 0.40566 0.09631 0.71196 0.0
H1914 H 0.50495 0.13138 0.69219 0.0
H1915 H 0.49309 0.15044 0.75381 0.0
H1916 H 0.4433 0.11735 0.67181 0.0
H1917 H 0.46661 0.15015 0.66595 0.0
H1918 H 0.47645 0.12612 0.66467 0.0
H1919 H 0.45996 0.15985 0.76204 0.0
H1920 H 0.44944 0.17248 0.74105 0.0
H1921 H 0.4301 0.13931 0.7479 0.0
H1922 H 0.41149 0.1852 0.68802 0.0
H1923 H 0.36579 0.10527 0.7034 0.0
H1924 H 0.47366 0.18782 0.6843 0.0
H1925 H 0.46911 0.19849 0.70903 0.0
H1926 H 0.45761 0.20677 0.68595 0.0
H1927 H 0.41828 0.09158 0.70226 0.0
H1928 H 0.3851 0.08006 0.71109 0.0
H1929 H 0.4127 0.09823 0.72819 0.0
C1930 C 0.84251 0.34257 0.72975 0.0
C1931 C 0.86682 0.36511 0.73241 0.0
C1932 C 0.84111 0.31983 0.72246 0.0
C1933 C 0.86458 0.31974 0.7175 0.0
C1934 C 0.88915 0.3426 0.71977 0.0
C1935 C 0.88998 0.36497 0.72731 0.0
C1936 C 0.81455 0.29578 0.72042 0.0
C1937 C 0.91457 0.34338 0.71434 0.0
C1938 C 0.86294 0.25552 0.71728 0.0
C1939 C 0.8594 0.24905 0.69613 0.0
C1940 C 0.86481 0.27852 0.72444 0.0
C1941 C 0.86341 0.29565 0.71011 0.0
C1942 C 0.8604 0.28952 0.68874 0.0
C1943 C 0.85829 0.26628 0.68207 0.0
C1944 C 0.86776 0.28425 0.74739 0.0
C1945 C 0.8591 0.30737 0.67291 0.0
H1946 H 0.82459 0.34254 0.73391 0.0
H1947 H 0.90879 0.38245 0.7292 0.0
H1948 H 0.81139 0.28848 0.70426 0.0
H1949 H 0.81381 0.28047 0.7305 0.0
H1950 H 0.79817 0.29912 0.72474 0.0
H1951 H 0.93196 0.36286 0.71645 0.0
H1952 H 0.91716 0.32967 0.7242 0.0
H1953 H 0.91391 0.33728 0.69801 0.0
H1954 H 0.86367 0.24236 0.72838 0.0
H1955 H 0.85565 0.26166 0.6658 0.0
H1956 H 0.85083 0.28597 0.75302 0.0
H1957 H 0.88581 0.30294 0.75046 0.0
H1958 H 0.86884 0.2691 0.75649 0.0
H1959 H 0.84177 0.30966 0.67593 0.0
H1960 H 0.85767 0.3002 0.6568 0.0
H1961 H 0.87683 0.32673 0.67419 0.0
C1962 C 0.18233 0.99556 0.61997 0.0
C1963 C 0.17151 0.97356 0.63242 0.0
C1964 C 0.20314 0.01906 0.6272 0.0
C1965 C 0.21384 0.02044 0.64719 0.0
C1966 C 0.20308 0.99817 0.65977 0.0
C1967 C 0.1818 0.97504 0.65232 0.0
C1968 C 0.21359 0.04246 0.61348 0.0
C1969 C 0.21429 0.99869 0.68097 0.0
C1970 C 0.2835 0.07592 0.65578 0.0
C1971 C 0.27901 0.09341 0.66698 0.0
C1972 C 0.26254 0.05177 0.64983 0.0
C1973 C 0.23639 0.04518 0.65478 0.0
C1974 C 0.23178 0.0627 0.66625 0.0
C1975 C 0.25315 0.08646 0.6724 0.0
C1976 C 0.26835 0.03341 0.63804 0.0
C1977 C 0.20423 0.05671 0.6715 0.0
H1978 H 0.17419 0.99442 0.60464 0.0
H1979 H 0.17349 0.95796 0.66189 0.0
H1980 H 0.21253 0.0582 0.62168 0.0
H1981 H 0.23459 0.04956 0.60989 0.0
H1982 H 0.20249 0.03838 0.59867 0.0
H1983 H 0.20387 0.97968 0.68873 0.0
H1984 H 0.23543 0.00461 0.67965 0.0
H1985 H 0.21303 0.01311 0.69095 0.0
H1986 H 0.30345 0.08108 0.65168 0.0
H1987 H 0.24948 0.09994 0.68094 0.0
H1988 H 0.25977 0.03025 0.62224 0.0
H1989 H 0.2591 0.01445 0.64585 0.0
H1990 H 0.28981 0.04069 0.63666 0.0
H1991 H 0.19296 0.05431 0.65702 0.0
H1992 H 0.20405 0.0721 0.68101 0.0
H1993 H 0.1938 0.03832 0.68009 0.0
C1994 C 0.0307 0.20821 0.65466 0.0
C1995 C 0.03404 0.20577 0.63338 0.0
C1996 C 0.00755 0.20693 0.66232 0.0
C1997 C 0.98705 0.20296 0.64844 0.0
C1998 C 0.99012 0.20006 0.627 0.0
C1999 C 0.01346 0.20151 0.61977 0.0
C2000 C 1.00512 0.21008 0.68525 0.0
C2001 C 0.96876 0.1956 0.61161 0.0
C2002 C 0.91658 0.17881 0.66662 0.0
C2003 C 0.91507 0.20145 0.66645 0.0
C2004 C 0.94013 0.17913 0.66169 0.0
C2005 C 0.9627 0.20261 0.65608 0.0
C2006 C 0.9614 0.2256 0.65641 0.0
C2007 C 0.93762 0.22471 0.66148 0.0
C2008 C 0.94043 0.15411 0.66165 0.0
C2009 C 0.98489 0.25108 0.65065 0.0
H2010 H 0.04644 0.21167 0.66533 0.0
H2011 H 0.01551 0.19909 0.60337 0.0
H2012 H 1.00184 0.22652 0.6881 0.0
H2013 H 0.98782 0.19262 0.69142 0.0
H2014 H 0.02288 0.21339 0.69402 0.0
H2015 H 0.97387 0.19316 0.59553 0.0
H2016 H 0.95007 0.17819 0.61591 0.0
H2017 H 0.96514 0.21208 0.61194 0.0
H2018 H 0.89911 0.16064 0.66996 0.0
H2019 H 0.93646 0.24219 0.66109 0.0
H2020 H 0.95769 0.15622 0.67042 0.0
H2021 H 0.94218 0.14881 0.64549 0.0
H2022 H 0.92228 0.13812 0.66851 0.0
H2023 H 1.00238 0.25447 0.65983 0.0
H2024 H 0.98136 0.26743 0.65323 0.0
H2025 H 0.98964 0.25075 0.63407 0.0
C2026 C 0.79855 0.82648 0.6442 0.0
C2027 C 0.81936 0.84482 0.63229 0.0
C2028 C 0.79931 0.80514 0.65232 0.0
C2029 C 0.82104 0.80174 0.64786 0.0
C2030 C 0.84219 0.82038 0.63594 0.0
C2031 C 0.84122 0.84187 0.62851 0.0
C2032 C 0.77675 0.78606 0.66543 0.0
C2033 C 0.86542 0.81719 0.63044 0.0
C2034 C 0.8358 0.75693 0.67941 0.0
C2035 C 0.8243 0.73449 0.66721 0.0
C2036 C 0.83404 0.7786 0.67372 0.0
C2037 C 0.82131 0.77825 0.65497 0.0
C2038 C 0.80974 0.75575 0.64252 0.0
C2039 C 0.81111 0.73407 0.6489 0.0
C2040 C 0.84624 0.80203 0.68764 0.0
C2041 C 0.79654 0.75479 0.62214 0.0
H2042 H 0.78169 0.82887 0.6471 0.0
H2043 H 0.85714 0.85596 0.61908 0.0
H2044 H 0.76643 0.76715 0.65743 0.0
H2045 H 0.78429 0.78315 0.68038 0.0
H2046 H 0.76227 0.79243 0.66868 0.0
H2047 H 0.88037 0.83358 0.62123 0.0
H2048 H 0.87497 0.8154 0.6447 0.0
H2049 H 0.8586 0.79922 0.62134 0.0
H2050 H 0.8466 0.75782 0.69327 0.0
H2051 H 0.80231 0.71698 0.63922 0.0
H2052 H 0.83177 0.80836 0.69094 0.0
H2053 H 0.86318 0.81814 0.67972 0.0
H2054 H 0.85325 0.79837 0.70256 0.0
H2055 H 0.78032 0.75894 0.62464 0.0
H2056 H 0.78841 0.7358 0.61432 0.0
H2057 H 0.8109 0.76982 0.61163 0.0
C2058 C 0.01533 0.82645 0.66982 0.0
C2059 C 0.01758 0.83841 0.65076 0.0
C2060 C 0.99467 0.80137 0.67352 0.0
C2061 C 0.9755 0.78818 0.6579 0.0
C2062 C 0.97841 0.7999 0.63828 0.0
C2063 C 0.99947 0.82492 0.63495 0.0
C2064 C 0.99256 0.7898 0.69459 0.0
C2065 C 0.95851 0.78658 0.62117 0.0
C2066 C 0.92666 0.7162 0.66072 0.0
C2067 C 0.90383 0.71594 0.66746 0.0
C2068 C 0.95042 0.7395 0.65823 0.0
C2069 C 0.95132 0.76312 0.66246 0.0
C2070 C 0.92849 0.76286 0.66992 0.0
C2071 C 0.905 0.73935 0.67203 0.0
C2072 C 0.97436 0.7389 0.65049 0.0
C2073 C 0.92857 0.78748 0.67504 0.0
H2074 H 0.02918 0.83715 0.68213 0.0
H2075 H 1.00107 0.83445 0.62032 0.0
H2076 H 0.97777 0.79189 0.70375 0.0
H2077 H 0.98602 0.76901 0.69337 0.0
H2078 H 0.01156 0.79961 0.70315 0.0
H2079 H 0.96466 0.79738 0.60637 0.0
H2080 H 0.95539 0.76696 0.61851 0.0
H2081 H 0.93932 0.78447 0.6258 0.0
H2082 H 0.92575 0.69814 0.65696 0.0
H2083 H 0.88739 0.73943 0.67674 0.0
H2084 H 0.99128 0.75006 0.66108 0.0
H2085 H 0.97995 0.74812 0.63505 0.0
H2086 H 0.97093 0.71898 0.64916 0.0
H2087 H 0.94473 0.79922 0.68609 0.0
H2088 H 0.90969 0.78386 0.68196 0.0
H2089 H 0.93214 0.79902 0.66077 0.0
C2090 C 0.18429 0.19398 0.66641 0.0
C2091 C 0.17071 0.18353 0.64782 0.0
C2092 C 0.20953 0.1973 0.66983 0.0
C2093 C 0.22143 0.18957 0.65443 0.0
C2094 C 0.2081 0.17994 0.63526 0.0
C2095 C 0.18288 0.17694 0.63223 0.0
C2096 C 0.22252 0.20747 0.69053 0.0
C2097 C 0.21999 0.17173 0.61826 0.0
C2098 C 0.29501 0.21166 0.65687 0.0
C2099 C 0.29494 0.18972 0.66448 0.0
C2100 C 0.27138 0.21211 0.65393 0.0
C2101 C 0.24694 0.19008 0.6587 0.0
C2102 C 0.24685 0.16808 0.66684 0.0
C2103 C 0.27071 0.16802 0.66925 0.0
C2104 C 0.27254 0.23601 0.64531 0.0
C2105 C 0.22147 0.14433 0.67267 0.0
H2106 H 0.17464 0.19853 0.67866 0.0
H2107 H 0.17215 0.16836 0.618 0.0
H2108 H 0.21897 0.19094 0.70038 0.0
H2109 H 0.24406 0.22022 0.68891 0.0
H2110 H 0.21429 0.21828 0.69857 0.0
H2111 H 0.2082 0.16658 0.60374 0.0
H2112 H 0.24027 0.18737 0.61489 0.0
H2113 H 0.22136 0.15479 0.62341 0.0
H2114 H 0.31361 0.2284 0.65288 0.0
H2115 H 0.27026 0.15074 0.67457 0.0
H2116 H 0.26262 0.24295 0.65602 0.0
H2117 H 0.26183 0.23146 0.6303 0.0
H2118 H 0.29306 0.25177 0.64286 0.0
H2119 H 0.21017 0.1495 0.68351 0.0
H2120 H 0.22486 0.12952 0.68011 0.0
H2121 H 0.20914 0.13581 0.65863 0.0
C2122 C 0.87694 0.02331 0.64748 0.0
C2123 C 0.86139 0.00312 0.63371 0.0
C2124 C 0.87065 0.04244 0.65227 0.0
C2125 C 0.84781 0.04109 0.64355 0.0
C2126 C 0.83161 0.02049 0.6301 0.0
C2127 C 0.83874 0.00195 0.62514 0.0
C2128 C 0.88866 0.06433 0.66648 0.0
C2129 C 0.80684 0.01816 0.62081 0.0
C2130 C 0.82406 0.08125 0.6719 0.0
C2131 C 0.83457 0.10334 0.65964 0.0
C2132 C 0.82703 0.06021 0.6663 0.0
C2133 C 0.84137 0.06165 0.64824 0.0
C2134 C 0.85123 0.08367 0.63544 0.0
C2135 C 0.84746 0.10417 0.64122 0.0
C2136 C 0.81578 0.03692 0.68017 0.0
C2137 C 0.86718 0.08631 0.61634 0.0
H2138 H 0.89411 0.02419 0.65464 0.0
H2139 H 0.82672 0.98676 0.61427 0.0
H2140 H 0.89592 0.08297 0.65841 0.0
H2141 H 0.87771 0.06472 0.68033 0.0
H2142 H 0.90589 0.06279 0.67172 0.0
H2143 H 0.79558 1.00022 0.61158 0.0
H2144 H 0.79399 0.01845 0.63326 0.0
H2145 H 0.81189 0.03484 0.61062 0.0
H2146 H 0.81389 0.08062 0.68606 0.0
H2147 H 0.85596 0.12146 0.63192 0.0
H2148 H 0.83202 0.03593 0.68817 0.0
H2149 H 0.80474 0.01905 0.67087 0.0
H2150 H 0.80248 0.0375 0.69211 0.0
H2151 H 0.88596 0.08741 0.62098 0.0
H2152 H 0.87179 0.10378 0.60728 0.0
H2153 H 0.8565 0.0692 0.60617 0.0
C2154 C 0.50815 0.35701 0.70421 0.0
C2155 C 0.52614 0.35454 0.71696 0.0
C2156 C 0.48282 0.33595 0.70062 0.0
C2157 C 0.47527 0.31205 0.71027 0.0
C2158 C 0.49284 0.31008 0.72426 0.0
C2159 C 0.51812 0.33127 0.72728 0.0
C2160 C 0.46482 0.33879 0.68543 0.0
C2161 C 0.48552 0.28512 0.73511 0.0
C2162 C 0.40411 0.25694 0.70849 0.0
C2163 C 0.40521 0.24154 0.69255 0.0
C2164 C 0.4266 0.28022 0.71428 0.0
C2165 C 0.45066 0.28835 0.70378 0.0
C2166 C 0.45173 0.27306 0.6875 0.0
C2167 C 0.42918 0.24984 0.68229 0.0
C2168 C 0.42481 0.29579 0.73194 0.0
C2169 C 0.47689 0.28093 0.6758 0.0
H2170 H 0.51439 0.37497 0.69615 0.0
H2171 H 0.53199 0.32944 0.73728 0.0
H2172 H 0.46312 0.32777 0.67112 0.0
H2173 H 0.44477 0.33074 0.69194 0.0
H2174 H 0.47222 0.3592 0.68117 0.0
H2175 H 0.49993 0.28764 0.7474 0.0
H2176 H 0.46574 0.27694 0.74217 0.0
H2177 H 0.48467 0.27088 0.72367 0.0
H2178 H 0.38578 0.25067 0.71665 0.0
H2179 H 0.43062 0.23793 0.67035 0.0
H2180 H 0.43186 0.31586 0.72693 0.0
H2181 H 0.43774 0.29662 0.74486 0.0
H2182 H 0.40441 0.28754 0.73785 0.0
H2183 H 0.48452 0.30043 0.6692 0.0
H2184 H 0.47413 0.26738 0.663 0.0
H2185 H 0.49213 0.28179 0.68652 0.0
C2186 C 0.66328 0.15248 0.68609 0.0
C2187 C 0.65896 0.15998 0.70557 0.0
C2188 C 0.68514 0.14926 0.68248 0.0
C2189 C 0.70353 0.1542 0.69863 0.0
C2190 C 0.6987 0.16097 0.71857 0.0
C2191 C 0.67646 0.16376 0.7218 0.0
C2192 C 0.68917 0.14184 0.66107 0.0
C2193 C 0.71766 0.16641 0.73627 0.0
C2194 C 0.75292 0.13031 0.69508 0.0
C2195 C 0.77608 0.15265 0.68933 0.0
C2196 C 0.72909 0.13035 0.69766 0.0
C2197 C 0.72832 0.15336 0.69455 0.0
C2198 C 0.75156 0.17584 0.68823 0.0
C2199 C 0.77517 0.17528 0.68593 0.0
C2200 C 0.70485 0.10589 0.70417 0.0
C2201 C 0.7517 0.20071 0.68435 0.0
H2202 H 0.65003 0.15007 0.67343 0.0
H2203 H 0.67344 0.17012 0.73675 0.0
H2204 H 0.70561 0.15886 0.6536 0.0
H2205 H 0.69455 0.12656 0.66186 0.0
H2206 H 0.67137 0.13497 0.65117 0.0
H2207 H 0.7104 0.17003 0.75107 0.0
H2208 H 0.72111 0.14998 0.73844 0.0
H2209 H 0.73691 0.18353 0.73262 0.0
H2210 H 0.75355 0.11281 0.69789 0.0
H2211 H 0.79306 0.19274 0.68187 0.0
H2212 H 0.68854 0.10105 0.69307 0.0
H2213 H 0.69828 0.10868 0.71957 0.0
H2214 H 0.70837 0.08935 0.70508 0.0
H2215 H 0.73629 0.19759 0.67284 0.0
H2216 H 0.771 0.21609 0.67855 0.0
H2217 H 0.74706 0.20747 0.69891 0.0
C2218 C 0.81478 0.49791 0.73327 0.0
C2219 C 0.82977 0.48788 0.72474 0.0
C2220 C 0.81975 0.52267 0.7282 0.0
C2221 C 0.84011 0.53774 0.7141 0.0
C2222 C 0.85609 0.52817 0.70615 0.0
C2223 C 0.8508 0.50337 0.71165 0.0
C2224 C 0.80241 0.53222 0.73719 0.0
C2225 C 0.87785 0.54358 0.69098 0.0
C2226 C 0.82841 0.58452 0.68275 0.0
C2227 C 0.84438 0.60797 0.693 0.0
C2228 C 0.8276 0.5618 0.68905 0.0
C2229 C 0.84287 0.56231 0.70625 0.0
C2230 C 0.8594 0.58594 0.71651 0.0
C2231 C 0.85999 0.60852 0.70974 0.0
C2232 C 0.80967 0.53706 0.67764 0.0
C2233 C 0.87579 0.58721 0.73502 0.0
H2234 H 0.79872 0.48611 0.74363 0.0
H2235 H 0.86233 0.49562 0.70493 0.0
H2236 H 0.8146 0.55168 0.74401 0.0
H2237 H 0.79024 0.53381 0.72471 0.0
H2238 H 0.78906 0.51919 0.74933 0.0
H2239 H 0.8901 0.53459 0.68782 0.0
H2240 H 0.8692 0.5452 0.67613 0.0
H2241 H 0.89074 0.56339 0.69692 0.0
H2242 H 0.81582 0.58363 0.67012 0.0
H2243 H 0.87232 0.62648 0.71783 0.0
H2244 H 0.79388 0.52358 0.68814 0.0
H2245 H 0.82085 0.52759 0.6726 0.0
H2246 H 0.80033 0.54024 0.6638 0.0
H2247 H 0.86269 0.57601 0.74796 0.0
H2248 H 0.88891 0.60727 0.74042 0.0
H2249 H 0.888 0.57839 0.73121 0.0
C2250 C 0.41456 0.88851 0.22843 0.0
C2251 C 0.43372 0.896 0.24405 0.0
C2252 C 0.42103 0.89917 0.20851 0.0
C2253 C 0.44735 0.91801 0.20402 0.0
C2254 C 0.46699 0.925 0.21951 0.0
C2255 C 0.45997 0.91381 0.23932 0.0
C2256 C 0.39946 0.89087 0.19246 0.0
C2257 C 0.49522 0.94508 0.21542 0.0
C2258 C 0.46255 0.93292 0.14659 0.0
C2259 C 0.4577 0.9534 0.144 0.0
C2260 C 0.46042 0.92182 0.16623 0.0
C2261 C 0.45356 0.93165 0.18367 0.0
C2262 C 0.45017 0.95329 0.18124 0.0
C2263 C 0.45213 0.96377 0.16147 0.0
C2264 C 0.46407 0.89872 0.16809 0.0
C2265 C 0.44319 0.96465 0.19938 0.0
H2266 H 0.39431 0.87443 0.23188 0.0
H2267 H 0.47484 0.9197 0.25135 0.0
H2268 H 0.39655 0.90731 0.18858 0.0
H2269 H 0.40511 0.88489 0.17798 0.0
H2270 H 0.38044 0.8747 0.1979 0.0
H2271 H 0.50852 0.94665 0.22833 0.0
H2272 H 0.5022 0.94054 0.20092 0.0
H2273 H 0.49664 0.96409 0.21327 0.0
H2274 H 0.46671 0.92476 0.1331 0.0
H2275 H 0.44864 0.97978 0.15954 0.0
H2276 H 0.44482 0.88138 0.17132 0.0
H2277 H 0.47738 0.90122 0.18123 0.0
H2278 H 0.47223 0.89523 0.15372 0.0
H2279 H 0.42312 0.95072 0.20485 0.0
H2280 H 0.4437 0.98288 0.19531 0.0
H2281 H 0.45697 0.96844 0.21248 0.0
C2282 C 0.11212 0.56212 0.23545 0.0
C2283 C 0.11832 0.54377 0.24307 0.0
C2284 C 0.09613 0.55714 0.21785 0.0
C2285 C 0.08432 0.53253 0.20844 0.0
C2286 C 0.08937 0.51351 0.2165 0.0
C2287 C 0.10695 0.51962 0.23314 0.0
C2288 C 0.09217 0.57838 0.20925 0.0
C2289 C 0.07618 0.48659 0.20757 0.0
C2290 C 0.02308 0.51174 0.17563 0.0
C2291 C 0.03208 0.51105 0.15557 0.0
C2292 C 0.03973 0.51838 0.19297 0.0
C2293 C 0.06665 0.5265 0.19017 0.0
C2294 C 0.07642 0.52767 0.16996 0.0
C2295 C 0.05895 0.51916 0.15304 0.0
C2296 C 0.02826 0.51592 0.21433 0.0
C2297 C 0.10531 0.53761 0.16619 0.0
H2298 H 0.1198 0.58059 0.24306 0.0
H2299 H 0.11188 0.5053 0.23806 0.0
H2300 H 0.09365 0.57902 0.1921 0.0
H2301 H 0.07229 0.57481 0.21333 0.0
H2302 H 0.10683 0.59753 0.21556 0.0
H2303 H 0.07976 0.47325 0.21714 0.0
H2304 H 0.05463 0.47878 0.20631 0.0
H2305 H 0.08363 0.48694 0.19174 0.0
H2306 H 1.00284 0.50675 0.17805 0.0
H2307 H 0.06654 0.51849 0.13795 0.0
H2308 H 0.03635 0.53519 0.22155 0.0
H2309 H 0.03374 0.50435 0.22442 0.0
H2310 H 0.00647 0.5067 0.21396 0.0
H2311 H 0.11743 0.55588 0.17478 0.0
H2312 H 0.11034 0.541 0.14948 0.0
H2313 H 0.11082 0.52351 0.17192 0.0
C2314 C 0.47879 0.58916 0.22317 0.0
C2315 C 0.4684 0.5729 0.24034 0.0
C2316 C 0.48507 0.58069 0.20491 0.0
C2317 C 0.48123 0.55546 0.20388 0.0
C2318 C 0.46975 0.53861 0.22089 0.0
C2319 C 0.46329 0.5475 0.23889 0.0
C2320 C 0.49684 0.59913 0.18703 0.0
C2321 C 0.46557 0.51166 0.2205 0.0
C2322 C 0.48517 0.52787 0.1516 0.0
C2323 C 0.5113 0.53297 0.15161 0.0
C2324 C 0.47507 0.53512 0.16844 0.0
C2325 C 0.49138 0.54754 0.18581 0.0
C2326 C 0.51775 0.5528 0.18589 0.0
C2327 C 0.52741 0.54566 0.16878 0.0
C2328 C 0.44694 0.52945 0.16767 0.0
C2329 C 0.53583 0.56599 0.2041 0.0
H2330 H 0.48249 0.60874 0.22421 0.0
H2331 H 0.4554 0.53497 0.25219 0.0
H2332 H 0.5177 0.60434 0.18504 0.0
H2333 H 0.48634 0.58989 0.17241 0.0
H2334 H 0.49604 0.61708 0.18947 0.0
H2335 H 0.45448 0.50031 0.23421 0.0
H2336 H 0.45476 0.50139 0.20627 0.0
H2337 H 0.48493 0.51254 0.22021 0.0
H2338 H 0.47244 0.51783 0.13856 0.0
H2339 H 0.54777 0.55021 0.16881 0.0
H2340 H 0.44632 0.54753 0.16964 0.0
H2341 H 0.43568 0.51659 0.18064 0.0
H2342 H 0.43699 0.52018 0.15287 0.0
H2343 H 0.53825 0.58539 0.20641 0.0
H2344 H 0.55559 0.56808 0.20198 0.0
H2345 H 0.52707 0.5549 0.21846 0.0
C2346 C 0.92078 0.46139 0.78642 0.0
C2347 C 0.90306 0.43488 0.78569 0.0
C2348 C 0.93784 0.47252 0.80342 0.0
C2349 C 0.93675 0.45677 0.82015 0.0
C2350 C 0.91828 0.4301 0.81972 0.0
C2351 C 0.90179 0.41946 0.80242 0.0
C2352 C 0.9575 0.50097 0.80323 0.0
C2353 C 0.91619 0.41272 0.83739 0.0
C2354 C 0.99665 0.47684 0.8544 0.0
C2355 C 0.99051 0.48665 0.87195 0.0
C2356 C 0.97962 0.46765 0.83726 0.0
C2357 C 0.95559 0.46784 0.83777 0.0
C2358 C 0.94921 0.4777 0.85539 0.0
C2359 C 0.96682 0.48716 0.8722 0.0
C2360 C 0.98719 0.45741 0.8187 0.0
C2361 C 0.92363 0.47796 0.85658 0.0
H2362 H 0.92179 0.47327 0.77342 0.0
H2363 H 0.8878 0.399 0.80196 0.0
H2364 H 0.95538 0.51031 0.81737 0.0
H2365 H 0.97777 0.50396 0.80335 0.0
H2366 H 0.95517 0.51069 0.78942 0.0
H2367 H 0.89984 0.39269 0.83513 0.0
H2368 H 0.93484 0.41236 0.83896 0.0
H2369 H 0.91306 0.42025 0.85219 0.0
H2370 H 0.01465 0.47594 0.85415 0.0
H2371 H 0.96207 0.49509 0.88551 0.0
H2372 H 0.98654 0.46739 0.80445 0.0
H2373 H 0.97287 0.43664 0.81658 0.0
H2374 H 0.00719 0.45987 0.82029 0.0
H2375 H 0.92209 0.48905 0.84345 0.0
H2376 H 0.92172 0.48652 0.8713 0.0
H2377 H 0.90682 0.45804 0.85524 0.0
C2378 C 0.57576 0.45977 0.79521 0.0
C2379 C 0.58187 0.47699 0.7787 0.0
C2380 C 0.5644 0.46249 0.81347 0.0
C2381 C 0.55896 0.48291 0.81527 0.0
C2382 C 0.56521 0.50045 0.79871 0.0
C2383 C 0.57661 0.4973 0.78065 0.0
C2384 C 0.55815 0.44348 0.83081 0.0
C2385 C 0.55958 0.5224 0.79999 0.0
C2386 C 0.50645 0.4766 0.85298 0.0
C2387 C 0.5216 0.49219 0.86957 0.0
C2388 C 0.51835 0.47321 0.83535 0.0
C2389 C 0.54613 0.48561 0.83426 0.0
C2390 C 0.56155 0.50095 0.85111 0.0
C2391 C 0.54911 0.50408 0.86855 0.0
C2392 C 0.50119 0.45659 0.81777 0.0
C2393 C 0.59122 0.51443 0.85054 0.0
H2394 H 0.58017 0.44428 0.79395 0.0
H2395 H 0.58105 0.51053 0.76788 0.0
H2396 H 0.56847 0.45375 0.8452 0.0
H2397 H 0.53675 0.43336 0.83408 0.0
H2398 H 0.56396 0.4289 0.8271 0.0
H2399 H 0.56612 0.53466 0.78594 0.0
H2400 H 0.53816 0.51473 0.80199 0.0
H2401 H 0.56964 0.53461 0.81371 0.0
H2402 H 0.48518 0.46697 0.85379 0.0
H2403 H 0.56097 0.51636 0.88119 0.0
H2404 H 0.50548 0.44088 0.81451 0.0
H2405 H 0.5056 0.46824 0.80347 0.0
H2406 H 0.47989 0.44794 0.82119 0.0
H2407 H 0.59782 0.5003 0.84757 0.0
H2408 H 0.60034 0.5248 0.86523 0.0
H2409 H 0.5986 0.52846 0.83765 0.0
C2410 C 0.55918 0.11492 0.79206 0.0
C2411 C 0.53922 0.10633 0.77696 0.0
C2412 C 0.55561 0.10115 0.81055 0.0
C2413 C 0.53141 0.07834 0.81418 0.0
C2414 C 0.51124 0.06954 0.799 0.0
C2415 C 0.51546 0.08348 0.78058 0.0
C2416 C 0.57769 0.11104 0.82624 0.0
C2417 C 0.48511 0.04536 0.80221 0.0
C2418 C 0.52571 0.02692 0.85166 0.0
C2419 C 0.51393 0.03125 0.86893 0.0
C2420 C 0.53249 0.04275 0.83411 0.0
C2421 C 0.52711 0.06329 0.83365 0.0
C2422 C 0.516 0.06828 0.85131 0.0
C2423 C 0.5097 0.05229 0.86879 0.0
C2424 C 0.54468 0.03697 0.81579 0.0
C2425 C 0.50972 0.08982 0.85142 0.0
H2426 H 0.57749 0.13269 0.78962 0.0
H2427 H 0.50007 0.07632 0.76891 0.0
H2428 H 0.57113 0.11523 0.84111 0.0
H2429 H 0.58313 0.0961 0.82939 0.0
H2430 H 0.59548 0.12878 0.82095 0.0
H2431 H 0.47121 0.04147 0.78916 0.0
H2432 H 0.48813 0.02861 0.80392 0.0
H2433 H 0.47591 0.04697 0.81671 0.0
H2434 H 0.52933 0.01088 0.85179 0.0
H2435 H 0.50044 0.05562 0.88203 0.0
H2436 H 0.56289 0.05457 0.81098 0.0
H2437 H 0.53086 0.03064 0.80244 0.0
H2438 H 0.54955 0.02167 0.81921 0.0
H2439 H 0.52732 0.10821 0.84703 0.0
H2440 H 0.50279 0.09229 0.86679 0.0
H2441 H 0.49418 0.08577 0.83974 0.0
C2442 C 0.11159 0.2255 0.56275 0.0
C2443 C 0.10409 0.2366 0.57857 0.0
C2444 C 0.12207 0.23852 0.54402 0.0
C2445 C 0.12534 0.26335 0.54105 0.0
C2446 C 0.11767 0.27459 0.55692 0.0
C2447 C 0.10709 0.26107 0.57543 0.0
C2448 C 0.12978 0.22577 0.52744 0.0
C2449 C 0.12105 0.30111 0.55451 0.0
C2450 C 0.17687 0.30952 0.50328 0.0
C2451 C 0.16145 0.30904 0.48639 0.0
C2452 C 0.16542 0.29442 0.52093 0.0
C2453 C 0.1378 0.27812 0.52175 0.0
C2454 C 0.12216 0.27676 0.50447 0.0
C2455 C 0.13415 0.29227 0.48703 0.0
C2456 C 0.18287 0.29645 0.53894 0.0
C2457 C 0.09267 0.25946 0.50465 0.0
H2458 H 0.10897 0.20645 0.56493 0.0
H2459 H 0.10157 0.26987 0.58764 0.0
H2460 H 0.11938 0.22462 0.51274 0.0
H2461 H 0.15118 0.23747 0.52437 0.0
H2462 H 0.12518 0.20606 0.53185 0.0
H2463 H 0.11351 0.30686 0.56806 0.0
H2464 H 0.14219 0.31544 0.55252 0.0
H2465 H 0.11058 0.30182 0.54041 0.0
H2466 H 0.19803 0.32195 0.50279 0.0
H2467 H 0.12201 0.29185 0.47417 0.0
H2468 H 0.17983 0.27716 0.54289 0.0
H2469 H 0.17757 0.30383 0.5528 0.0
H2470 H 0.20406 0.30944 0.53562 0.0
H2471 H 0.08755 0.23951 0.5086 0.0
H2472 H 0.08351 0.25921 0.48949 0.0
H2473 H 0.08398 0.26609 0.51674 0.0
C2474 C 0.76778 0.85085 0.56824 0.0
C2475 C 0.77852 0.87461 0.57872 0.0
C2476 C 0.7504 0.84497 0.55148 0.0
C2477 C 0.74478 0.86385 0.54397 0.0
C2478 C 0.75579 0.88801 0.55404 0.0
C2479 C 0.77176 0.89278 0.57165 0.0
C2480 C 0.73823 0.81854 0.54171 0.0
C2481 C 0.75126 0.9091 0.54591 0.0
C2482 C 0.72129 0.85221 0.48804 0.0
C2483 C 0.69406 0.84252 0.49013 0.0
C2484 C 0.73821 0.86076 0.5053 0.0
C2485 C 0.72762 0.85822 0.52538 0.0
C2486 C 0.70035 0.84876 0.52773 0.0
C2487 C 0.68413 0.8419 0.5101 0.0
C2488 C 0.76739 0.8719 0.50203 0.0
C2489 C 0.68806 0.84472 0.54892 0.0
H2490 H 0.77317 0.83673 0.57275 0.0
H2491 H 0.77906 0.91095 0.57967 0.0
H2492 H 0.71664 0.81019 0.54006 0.0
H2493 H 0.74634 0.81994 0.52598 0.0
H2494 H 0.74204 0.8051 0.55094 0.0
H2495 H 0.76264 0.92739 0.5547 0.0
H2496 H 0.75698 0.91276 0.52936 0.0
H2497 H 0.7301 0.90311 0.54677 0.0
H2498 H 0.72958 0.85258 0.47302 0.0
H2499 H 0.66349 0.83556 0.51218 0.0
H2500 H 0.77335 0.85789 0.50713 0.0
H2501 H 0.77872 0.88965 0.51144 0.0
H2502 H 0.77294 0.87656 0.48551 0.0
H2503 H 0.69189 0.83112 0.55786 0.0
H2504 H 0.66646 0.8369 0.5481 0.0
H2505 H 0.69703 0.86307 0.55769 0.0
C2506 C 0.12796 0.87894 0.57683 0.0
C2507 C 0.13467 0.90484 0.57809 0.0
C2508 C 0.13389 0.86922 0.55907 0.0
C2509 C 0.14656 0.88575 0.54211 0.0
C2510 C 0.15226 0.91162 0.54297 0.0
C2511 C 0.14637 0.92088 0.56098 0.0
C2512 C 0.12766 0.84157 0.55882 0.0
C2513 C 0.16541 0.92979 0.52513 0.0
C2514 C 0.18966 0.87113 0.50731 0.0
C2515 C 0.17321 0.85933 0.49012 0.0
C2516 C 0.18113 0.87961 0.52432 0.0
C2517 C 0.15558 0.87656 0.52412 0.0
C2518 C 0.13895 0.86501 0.50673 0.0
C2519 C 0.14792 0.85644 0.48999 0.0
C2520 C 0.1995 0.89184 0.54254 0.0
C2521 C 0.11167 0.86161 0.50587 0.0
H2522 H 0.11906 0.86654 0.59007 0.0
H2523 H 0.15126 0.94084 0.56181 0.0
H2524 H 0.11639 0.83167 0.54464 0.0
H2525 H 0.14624 0.84092 0.55852 0.0
H2526 H 0.11614 0.83077 0.57258 0.0
H2527 H 0.16652 0.94866 0.52755 0.0
H2528 H 0.18568 0.93315 0.52319 0.0
H2529 H 0.15458 0.92117 0.51049 0.0
H2530 H 0.2094 0.87394 0.50743 0.0
H2531 H 0.13492 0.84709 0.47692 0.0
H2532 H 0.19014 0.88106 0.5569 0.0
H2533 H 0.20351 0.91182 0.54482 0.0
H2534 H 0.21855 0.89234 0.54045 0.0
H2535 H 0.09971 0.84928 0.51886 0.0
H2536 H 0.10137 0.85275 0.49107 0.0
H2537 H 0.11276 0.88051 0.50774 0.0
C2538 C 0.58458 0.78899 0.12108 0.0
C2539 C 0.5662 0.76266 0.11995 0.0
C2540 C 0.60119 0.79941 0.13841 0.0
C2541 C 0.59899 0.78313 0.15508 0.0
C2542 C 0.57983 0.75668 0.15427 0.0
C2543 C 0.5638 0.74672 0.13663 0.0
C2544 C 0.62162 0.82764 0.13859 0.0
C2545 C 0.57655 0.7388 0.17188 0.0
C2546 C 0.65833 0.80201 0.18973 0.0
C2547 C 0.65267 0.81269 0.20698 0.0
C2548 C 0.64118 0.79263 0.17267 0.0
C2549 C 0.6175 0.79349 0.17296 0.0
C2550 C 0.61146 0.80395 0.19037 0.0
C2551 C 0.6292 0.81361 0.20709 0.0
C2552 C 0.64841 0.78176 0.15433 0.0
C2553 C 0.58624 0.80491 0.19133 0.0
H2554 H 0.58652 0.80126 0.10812 0.0
H2555 H 0.54934 0.7264 0.13584 0.0
H2556 H 0.61953 0.83705 0.1527 0.0
H2557 H 0.64159 0.8299 0.13904 0.0
H2558 H 0.62013 0.83785 0.12477 0.0
H2559 H 0.55969 0.71909 0.16936 0.0
H2560 H 0.5947 0.73754 0.17369 0.0
H2561 H 0.57353 0.74646 0.18665 0.0
H2562 H 0.67613 0.80075 0.18961 0.0
H2563 H 0.62478 0.82216 0.22016 0.0
H2564 H 0.64868 0.7921 0.14002 0.0
H2565 H 0.6334 0.76122 0.15206 0.0
H2566 H 0.66795 0.78323 0.15626 0.0
H2567 H 0.58547 0.81665 0.17837 0.0
H2568 H 0.58421 0.81319 0.20615 0.0
H2569 H 0.56909 0.78526 0.1895 0.0
C2570 C 0.23362 0.80131 0.12193 0.0
C2571 C 0.26007 0.81032 0.11707 0.0
C2572 C 0.22641 0.8057 0.14164 0.0
C2573 C 0.24612 0.8191 0.15685 0.0
C2574 C 0.27274 0.82732 0.15221 0.0
C2575 C 0.27938 0.82295 0.13237 0.0
C2576 C 0.19787 0.79685 0.14595 0.0
C2577 C 0.29435 0.84139 0.16803 0.0
C2578 C 0.23881 0.85896 0.19915 0.0
C2579 C 0.23418 0.84345 0.21661 0.0
C2580 C 0.24131 0.85062 0.17942 0.0
C2581 C 0.23948 0.82629 0.17713 0.0
C2582 C 0.2337 0.81008 0.19459 0.0
C2583 C 0.23095 0.81882 0.21416 0.0
C2584 C 0.24708 0.86836 0.16119 0.0
C2585 C 0.2318 0.78411 0.19281 0.0
H2586 H 0.21867 0.79157 0.1101 0.0
H2587 H 0.29981 0.82954 0.12874 0.0
H2588 H 0.19155 0.78546 0.16043 0.0
H2589 H 0.19534 0.81383 0.14826 0.0
H2590 H 0.18474 0.785 0.13309 0.0
H2591 H 0.31377 0.8449 0.16244 0.0
H2592 H 0.29601 0.8602 0.1718 0.0
H2593 H 0.28958 0.8302 0.1826 0.0
H2594 H 0.24101 0.87791 0.20103 0.0
H2595 H 0.22749 0.80688 0.22769 0.0
H2596 H 0.23339 0.85799 0.1482 0.0
H2597 H 0.26734 0.87503 0.15559 0.0
H2598 H 0.2454 0.88551 0.16522 0.0
H2599 H 0.2185 0.77287 0.17986 0.0
H2600 H 0.22454 0.77279 0.2073 0.0
H2601 H 0.25151 0.78674 0.18929 0.0
C2602 C 0.20052 0.45204 0.12992 0.0
C2603 C 0.20946 0.44431 0.11271 0.0
C2604 C 0.19496 0.43864 0.14875 0.0
C2605 C 0.19787 0.41662 0.15029 0.0
C2606 C 0.20764 0.40921 0.13311 0.0
C2607 C 0.21357 0.42331 0.11458 0.0
C2608 C 0.18511 0.44754 0.16676 0.0
C2609 C 0.21064 0.38565 0.13397 0.0
C2610 C 0.19683 0.38776 0.20322 0.0
C2611 C 0.17056 0.36784 0.20446 0.0
C2612 C 0.206 0.40402 0.18583 0.0
C2613 C 0.18856 0.40015 0.16919 0.0
C2614 C 0.16196 0.38037 0.17051 0.0
C2615 C 0.15328 0.36466 0.18813 0.0
C2616 C 0.2344 0.42513 0.18515 0.0
C2617 C 0.14266 0.37554 0.15316 0.0
H2618 H 0.19756 0.46843 0.12854 0.0
H2619 H 0.22033 0.41725 0.10124 0.0
H2620 H 0.16424 0.43319 0.16984 0.0
H2621 H 0.19649 0.44914 0.18099 0.0
H2622 H 0.18654 0.46644 0.16378 0.0
H2623 H 0.22009 0.38342 0.11983 0.0
H2624 H 0.22255 0.38659 0.14767 0.0
H2625 H 0.19099 0.36823 0.13566 0.0
H2626 H 0.21042 0.39031 0.21563 0.0
H2627 H 0.13281 0.34976 0.18907 0.0
H2628 H 0.23561 0.44395 0.18241 0.0
H2629 H 0.2445 0.42169 0.17207 0.0
H2630 H 0.24515 0.42639 0.19971 0.0
H2631 H 0.14104 0.39297 0.15053 0.0
H2632 H 0.12272 0.35916 0.15647 0.0
H2633 H 0.14981 0.37141 0.13856 0.0
C2634 C 0.77583 0.59138 0.90954 0.0
C2635 C 0.77308 0.56699 0.91252 0.0
C2636 C 0.78618 0.60504 0.89107 0.0
C2637 C 0.79392 0.59404 0.87506 0.0
C2638 C 0.79109 0.56937 0.87791 0.0
C2639 C 0.78079 0.55618 0.89662 0.0
C2640 C 0.78911 0.63139 0.88878 0.0
C2641 C 0.79893 0.55689 0.86119 0.0
C2642 C 0.80086 0.62296 0.82127 0.0
C2643 C 0.82802 0.64033 0.82036 0.0
C2644 C 0.78956 0.60717 0.83868 0.0
C2645 C 0.80576 0.60884 0.85565 0.0
C2646 C 0.83326 0.62569 0.85451 0.0
C2647 C 0.84402 0.64108 0.8369 0.0
C2648 C 0.76017 0.58932 0.83921 0.0
C2649 C 0.85128 0.62805 0.87219 0.0
H2650 H 0.77018 0.59998 0.92183 0.0
H2651 H 0.7784 0.5372 0.89869 0.0
H2652 H 0.81012 0.64594 0.88647 0.0
H2653 H 0.77816 0.63186 0.8749 0.0
H2654 H 0.78177 0.63706 0.90252 0.0
H2655 H 0.79501 0.53741 0.86564 0.0
H2656 H 0.78803 0.55528 0.84667 0.0
H2657 H 0.8202 0.56903 0.85778 0.0
H2658 H 0.78829 0.62232 0.80867 0.0
H2659 H 0.86509 0.65402 0.83619 0.0
H2660 H 0.75143 0.59568 0.85147 0.0
H2661 H 0.75562 0.56952 0.84312 0.0
H2662 H 0.75059 0.58878 0.8242 0.0
H2663 H 0.84621 0.63542 0.88619 0.0
H2664 H 0.87233 0.64122 0.86853 0.0
H2665 H 0.84861 0.6089 0.8761 0.0
C2666 C 0.443 0.18901 0.89295 0.0
C2667 C 0.44659 0.20729 0.90813 0.0
C2668 C 0.42658 0.18465 0.87575 0.0
C2669 C 0.41346 0.19894 0.87364 0.0
C2670 C 0.41689 0.21733 0.88894 0.0
C2671 C 0.43341 0.22129 0.90601 0.0
C2672 C 0.42349 0.16492 0.85973 0.0
C2673 C 0.40316 0.23289 0.88725 0.0
C2674 C 0.39042 0.20501 0.81994 0.0
C2675 C 0.36355 0.18662 0.82062 0.0
C2676 C 0.40689 0.20923 0.83709 0.0
C2677 C 0.39624 0.19471 0.85535 0.0
C2678 C 0.36918 0.17606 0.85611 0.0
C2679 C 0.35317 0.17223 0.83873 0.0
C2680 C 0.43565 0.22933 0.83571 0.0
C2681 C 0.35714 0.16009 0.87526 0.0
H2682 H 0.45348 0.17844 0.89429 0.0
H2683 H 0.43592 0.23526 0.91778 0.0
H2684 H 0.40243 0.15017 0.85796 0.0
H2685 H 0.43039 0.17431 0.84446 0.0
H2686 H 0.43471 0.15512 0.86385 0.0
H2687 H 0.40785 0.24639 0.90049 0.0
H2688 H 0.40896 0.24414 0.87268 0.0
H2689 H 0.38154 0.21986 0.88658 0.0
H2690 H 0.3985 0.21642 0.80609 0.0
H2691 H 0.3325 0.15775 0.83926 0.0
H2692 H 0.44799 0.2204 0.8386 0.0
H2693 H 0.44068 0.24424 0.84784 0.0
H2694 H 0.44088 0.23888 0.82035 0.0
H2695 H 0.36706 0.14894 0.87899 0.0
H2696 H 0.33573 0.14647 0.87338 0.0
H2697 H 0.36011 0.17284 0.88871 0.0
C2698 C 0.81532 0.25022 0.89191 0.0
C2699 C 0.8028 0.23453 0.90904 0.0
C2700 C 0.82048 0.24021 0.874 0.0
C2701 C 0.81311 0.21386 0.8732 0.0
C2702 C 0.79973 0.19774 0.89021 0.0
C2703 C 0.79461 0.20825 0.9079 0.0
C2704 C 0.83447 0.25801 0.85613 0.0
C2705 C 0.7917 0.16959 0.89002 0.0
C2706 C 0.8119 0.18402 0.82072 0.0
C2707 C 0.83652 0.18538 0.82053 0.0
C2708 C 0.80393 0.1931 0.83776 0.0
C2709 C 0.82088 0.20364 0.85511 0.0
C2710 C 0.84569 0.20501 0.85504 0.0
C2711 C 0.85324 0.19603 0.83776 0.0
C2712 C 0.7774 0.19147 0.83718 0.0
C2713 C 0.86438 0.21614 0.87322 0.0
H2714 H 0.82132 0.27048 0.89261 0.0
H2715 H 0.78504 0.19609 0.92114 0.0
H2716 H 0.85405 0.25975 0.85398 0.0
H2717 H 0.82319 0.24999 0.84156 0.0
H2718 H 0.83727 0.27756 0.85863 0.0
H2719 H 0.78003 0.15932 0.90388 0.0
H2720 H 0.77992 0.16007 0.87594 0.0
H2721 H 0.80952 0.16759 0.88953 0.0
H2722 H 0.79867 0.17554 0.80763 0.0
H2723 H 0.87249 0.19763 0.83766 0.0
H2724 H 0.77987 0.21097 0.83892 0.0
H2725 H 0.76525 0.17977 0.85035 0.0
H2726 H 0.76655 0.18281 0.82252 0.0
H2727 H 0.86993 0.23656 0.87558 0.0
H2728 H 0.88262 0.21512 0.87101 0.0
H2729 H 0.8546 0.20566 0.88759 0.0
C2730 C 0.22847 0.08421 0.46833 0.0
C2731 C 0.23271 0.09984 0.45105 0.0
C2732 C 0.24446 0.09382 0.486 0.0
C2733 C 0.26553 0.11953 0.48616 0.0
C2734 C 0.26957 0.13556 0.46884 0.0
C2735 C 0.25286 0.12555 0.45151 0.0
C2736 C 0.23917 0.07626 0.50429 0.0
C2737 C 0.2921 0.16292 0.46831 0.0
C2738 C 0.29724 0.1493 0.53798 0.0
C2739 C 0.31861 0.14488 0.53849 0.0
C2740 C 0.27987 0.14134 0.52099 0.0
C2741 C 0.2842 0.12902 0.50397 0.0
C2742 C 0.30591 0.12484 0.50423 0.0
C2743 C 0.32267 0.13257 0.52154 0.0
C2744 C 0.25672 0.14582 0.52136 0.0
C2745 C 0.31129 0.11189 0.48632 0.0
H2746 H 0.21267 0.06436 0.46794 0.0
H2747 H 0.25609 0.13753 0.43804 0.0
H2748 H 0.25582 0.07263 0.50643 0.0
H2749 H 0.2376 0.08556 0.51868 0.0
H2750 H 0.22081 0.05747 0.5023 0.0
H2751 H 0.29173 0.17323 0.45415 0.0
H2752 H 0.29153 0.1737 0.4821 0.0
H2753 H 0.31104 0.16297 0.46886 0.0
H2754 H 0.29414 0.15914 0.55082 0.0
H2755 H 0.33878 0.1286 0.5219 0.0
H2756 H 0.23811 0.12715 0.52019 0.0
H2757 H 0.25744 0.15749 0.50781 0.0
H2758 H 0.25621 0.15583 0.53571 0.0
H2759 H 0.29481 0.09186 0.48454 0.0
H2760 H 0.32982 0.11136 0.48844 0.0
H2761 H 0.3126 0.12212 0.47168 0.0
C2762 C 0.9462 0.15578 0.46529 0.0
C2763 C 0.92689 0.14296 0.45003 0.0
C2764 C 0.93964 0.16099 0.48486 0.0
C2765 C 0.9131 0.15335 0.48926 0.0
C2766 C 0.89335 0.13959 0.47416 0.0
C2767 C 0.90048 0.13441 0.45471 0.0
C2768 C 0.96127 0.17544 0.50058 0.0
C2769 C 0.86489 0.13127 0.47825 0.0
C2770 C 0.89761 0.15585 0.54612 0.0
C2771 C 0.90087 0.1806 0.5476 0.0
C2772 C 0.90055 0.14622 0.52704 0.0
C2773 C 0.90662 0.16165 0.50907 0.0
C2774 C 0.90874 0.18619 0.51038 0.0
C2775 C 0.90596 0.1954 0.52963 0.0
C2776 C 0.89832 0.12005 0.5263 0.0
C2777 C 0.9149 0.20314 0.49157 0.0
H2778 H 0.96658 0.16201 0.4618 0.0
H2779 H 0.88555 0.12451 0.4429 0.0
H2780 H 0.96332 0.19458 0.50362 0.0
H2781 H 0.95626 0.16491 0.51549 0.0
H2782 H 0.98056 0.17831 0.49528 0.0
H2783 H 0.85168 0.11883 0.46566 0.0
H2784 H 0.85847 0.12068 0.4931 0.0
H2785 H 0.86261 0.1485 0.47971 0.0
H2786 H 0.89377 0.14443 0.56002 0.0
H2787 H 0.90808 0.21439 0.53071 0.0
H2788 H 0.9179 0.12225 0.52297 0.0
H2789 H 0.88485 0.10826 0.51362 0.0
H2790 H 0.89106 0.10949 0.54112 0.0
H2791 H 0.93503 0.20905 0.48606 0.0
H2792 H 0.91377 0.22075 0.49487 0.0
H2793 H 0.90105 0.19238 0.47875 0.0
C2794 C 0.88241 0.75778 0.44927 0.0
C2795 C 0.87582 0.77713 0.44699 0.0
C2796 C 0.87698 0.74366 0.46778 0.0
C2797 C 0.86501 0.74928 0.48452 0.0
C2798 C 0.85952 0.76966 0.48261 0.0
C2799 C 0.86481 0.78318 0.46385 0.0
C2800 C 0.88291 0.72193 0.46906 0.0
C2801 C 0.84718 0.77661 0.50012 0.0
C2802 C 0.82221 0.69503 0.5214 0.0
C2803 C 0.83911 0.69973 0.53838 0.0
C2804 C 0.83046 0.71093 0.50388 0.0
C2805 C 0.85618 0.73249 0.50329 0.0
C2806 C 0.87316 0.73786 0.52057 0.0
C2807 C 0.86448 0.72138 0.53785 0.0
C2808 C 0.81166 0.70444 0.48585 0.0
C2809 C 0.90059 0.76086 0.52068 0.0
H2810 H 0.8908 0.75295 0.43626 0.0
H2811 H 0.85999 0.79837 0.46226 0.0
H2812 H 0.89457 0.72394 0.48321 0.0
H2813 H 0.86423 0.70334 0.47018 0.0
H2814 H 0.89392 0.72119 0.45535 0.0
H2815 H 0.8465 0.79447 0.49693 0.0
H2816 H 0.8268 0.7607 0.50266 0.0
H2817 H 0.8583 0.77927 0.51473 0.0
H2818 H 0.80237 0.67877 0.52177 0.0
H2819 H 0.87781 0.72514 0.55075 0.0
H2820 H 0.82046 0.70158 0.47161 0.0
H2821 H 0.80803 0.72062 0.48289 0.0
H2822 H 0.79246 0.68677 0.48861 0.0
H2823 H 0.91228 0.75897 0.50803 0.0
H2824 H 0.91098 0.76302 0.53561 0.0
H2825 H 0.89979 0.77868 0.51775 0.0
loop_
_geom_bond_atom_site_label_1
_geom_bond_atom_site_label_2
_geom_bond_distance
_geom_bond_site_symmetry_2
_ccdc_geom_bond_type
H0 C1 0.949 . S
C1 H0 0.949 . S
C1 C2 1.395 . S
C1 C3 1.391 . S
C2 C1 1.395 . S
C2 C5 1.390 . S
C3 C1 1.391 . S
C3 C7 1.387 . S
C3 C8 1.491 . S
H4 C5 0.950 . S
C5 C2 1.390 . S
C5 H4 0.950 . S
C5 C6 1.378 . S
C6 C5 1.378 . S
C6 C7 1.409 . S
C7 C3 1.387 . S
C7 C6 1.409 . S
C7 H9 0.951 . S
C8 C3 1.491 . S
C8 C10 1.382 . S
C8 C12 1.404 . S
H9 C7 0.951 . S
C10 C8 1.382 . S
C10 C11 1.390 . S
C10 H15 0.949 . S
C11 C10 1.390 . S
C11 C16 1.399 . S
C12 C8 1.404 . S
C12 H13 0.950 . S
C12 C14 1.375 . S
H13 C12 0.950 . S
C14 C12 1.375 . S
C14 C16 1.382 . S
C14 H18 0.950 . S
H15 C10 0.949 . S
C16 C11 1.399 . S
C16 C14 1.382 . S
C16 H17 0.952 . S
H17 C16 0.952 . S
H18 C14 0.950 . S
H19 C20 0.949 . S
C20 H19 0.949 . S
C20 C21 1.395 . S
C20 C22 1.391 . S
C21 C20 1.395 . S
C21 C24 1.390 . S
C22 C20 1.391 . S
C22 C26 1.387 . S
C22 C27 1.491 . S
H23 C24 0.950 . S
C24 C21 1.390 . S
C24 H23 0.950 . S
C24 C25 1.378 . S
C25 C24 1.378 . S
C25 C26 1.409 . S
C26 C22 1.387 . S
C26 C25 1.409 . S
C26 H28 0.951 . S
C27 C22 1.491 . S
C27 C29 1.382 . S
C27 C31 1.404 . S
H28 C26 0.951 . S
C29 C27 1.382 . S
C29 C30 1.390 . S
C29 H34 0.949 . S
C30 C29 1.390 . S
C30 C35 1.399 . S
C31 C27 1.404 . S
C31 H32 0.950 . S
C31 C33 1.375 . S
H32 C31 0.950 . S
C33 C31 1.375 . S
C33 C35 1.382 . S
C33 H37 0.950 . S
H34 C29 0.949 . S
C35 C30 1.399 . S
C35 C33 1.382 . S
C35 H36 0.952 1_545 S
H36 C35 0.952 1_565 S
H37 C33 0.950 . S
H38 C39 0.949 . S
C39 H38 0.949 . S
C39 C40 1.395 . S
C39 C41 1.391 . S
C40 C39 1.395 . S
C40 C43 1.390 . S
C41 C39 1.391 . S
C41 C45 1.387 . S
C41 C46 1.491 . S
H42 C43 0.950 . S
C43 C40 1.390 . S
C43 H42 0.950 . S
C43 C44 1.378 . S
C44 C43 1.378 . S
C44 C45 1.409 . S
C45 C41 1.387 . S
C45 C44 1.409 . S
C45 H47 0.951 . S
C46 C41 1.491 . S
C46 C48 1.382 . S
C46 C50 1.404 . S
H47 C45 0.951 . S
C48 C46 1.382 . S
C48 C49 1.390 . S
C48 H53 0.949 . S
C49 C48 1.390 . S
C49 C54 1.399 1_655 S
C50 C46 1.404 . S
C50 H51 0.950 . S
C50 C52 1.375 . S
H51 C50 0.950 . S
C52 C50 1.375 . S
C52 C54 1.382 1_655 S
C52 H56 0.950 . S
H53 C48 0.949 . S
C54 C49 1.399 1_455 S
C54 C52 1.382 1_455 S
C54 H55 0.952 . S
H55 C54 0.952 . S
H56 C52 0.950 . S
H57 C58 0.949 . S
C58 H57 0.949 . S
C58 C59 1.395 . S
C58 C60 1.391 . S
C59 C58 1.395 . S
C59 C62 1.390 . S
C60 C58 1.391 . S
C60 C64 1.387 . S
C60 C65 1.491 . S
H61 C62 0.950 . S
C62 C59 1.390 . S
C62 H61 0.950 . S
C62 C63 1.378 . S
C63 C62 1.378 . S
C63 C64 1.409 . S
C64 C60 1.387 . S
C64 C63 1.409 . S
C64 H66 0.951 . S
C65 C60 1.491 . S
C65 C67 1.382 . S
C65 C69 1.404 . S
H66 C64 0.951 . S
C67 C65 1.382 . S
C67 C68 1.390 . S
C67 H72 0.949 . S
C68 C67 1.390 . S
C68 C73 1.399 . S
C69 C65 1.404 . S
C69 H70 0.950 . S
C69 C71 1.375 . S
H70 C69 0.950 . S
C71 C69 1.375 . S
C71 C73 1.382 . S
C71 H75 0.950 . S
H72 C67 0.949 . S
C73 C68 1.399 . S
C73 C71 1.382 . S
C73 H74 0.952 . S
H74 C73 0.952 . S
H75 C71 0.950 . S
H76 C77 0.949 . S
C77 H76 0.949 . S
C77 C78 1.395 . S
C77 C79 1.391 . S
C78 C77 1.395 . S
C78 C81 1.390 . S
C79 C77 1.391 . S
C79 C83 1.387 . S
C79 C84 1.491 . S
H80 C81 0.950 . S
C81 C78 1.390 . S
C81 H80 0.950 . S
C81 C82 1.378 . S
C82 C81 1.378 . S
C82 C83 1.409 . S
C83 C79 1.387 . S
C83 C82 1.409 . S
C83 H85 0.951 . S
C84 C79 1.491 . S
C84 C86 1.382 . S
C84 C88 1.404 . S
H85 C83 0.951 . S
C86 C84 1.382 . S
C86 C87 1.390 . S
C86 H91 0.949 . S
C87 C86 1.390 . S
C87 C92 1.399 . S
C88 C84 1.404 . S
C88 H89 0.950 . S
C88 C90 1.375 . S
H89 C88 0.950 . S
C90 C88 1.375 . S
C90 C92 1.382 . S
C90 H94 0.950 . S
H91 C86 0.949 . S
C92 C87 1.399 . S
C92 C90 1.382 . S
C92 H93 0.952 1_565 S
H93 C92 0.952 1_545 S
H94 C90 0.950 . S
H95 C96 0.949 . S
C96 H95 0.949 . S
C96 C97 1.395 . S
C96 C98 1.391 . S
C97 C96 1.395 . S
C97 C100 1.390 . S
C98 C96 1.391 . S
C98 C102 1.387 . S
C98 C103 1.491 . S
H99 C100 0.950 . S
C100 C97 1.390 . S
C100 H99 0.950 . S
C100 C101 1.378 . S
C101 C100 1.378 . S
C101 C102 1.409 . S
C102 C98 1.387 . S
C102 C101 1.409 . S
C102 H104 0.951 . S
C103 C98 1.491 . S
C103 C105 1.382 . S
C103 C107 1.404 . S
H104 C102 0.951 . S
C105 C103 1.382 . S
C105 C106 1.390 . S
C105 H110 0.949 . S
C106 C105 1.390 . S
C106 C111 1.399 . S
C107 C103 1.404 . S
C107 H108 0.950 . S
C107 C109 1.375 . S
H108 C107 0.950 . S
C109 C107 1.375 . S
C109 C111 1.382 . S
C109 H113 0.950 . S
H110 C105 0.949 . S
C111 C106 1.399 . S
C111 C109 1.382 . S
C111 H112 0.952 1_455 S
H112 C111 0.952 1_655 S
H113 C109 0.950 . S
H114 C115 0.949 . S
C115 H114 0.949 . S
C115 C116 1.395 . S
C115 C117 1.391 . S
C116 C115 1.395 . S
C116 C119 1.390 . S
C117 C115 1.391 . S
C117 C121 1.387 . S
C117 C122 1.491 . S
H118 C119 0.950 . S
C119 C116 1.390 . S
C119 H118 0.950 . S
C119 C120 1.378 . S
C120 C119 1.378 . S
C120 C121 1.409 . S
C121 C117 1.387 . S
C121 C120 1.409 . S
C121 H123 0.951 . S
C122 C117 1.491 . S
C122 C124 1.382 . S
C122 C126 1.404 . S
H123 C121 0.951 . S
C124 C122 1.382 . S
C124 C125 1.390 . S
C124 H129 0.949 . S
C125 C124 1.390 . S
C125 C130 1.399 . S
C126 C122 1.404 . S
C126 H127 0.950 . S
C126 C128 1.375 . S
H127 C126 0.950 . S
C128 C126 1.375 . S
C128 C130 1.382 . S
C128 H132 0.950 . S
H129 C124 0.949 . S
C130 C125 1.399 . S
C130 C128 1.382 . S
C130 H131 0.952 . S
H131 C130 0.952 . S
H132 C128 0.950 . S
H133 C134 0.949 . S
C134 H133 0.949 . S
C134 C135 1.395 . S
C134 C136 1.391 . S
C135 C134 1.395 . S
C135 C138 1.390 . S
C136 C134 1.391 . S
C136 C140 1.387 . S
C136 C141 1.491 . S
H137 C138 0.950 . S
C138 C135 1.390 . S
C138 H137 0.950 . S
C138 C139 1.378 . S
C139 C138 1.378 . S
C139 C140 1.409 . S
C140 C136 1.387 . S
C140 C139 1.409 . S
C140 H142 0.951 . S
C141 C136 1.491 . S
C141 C143 1.382 . S
C141 C145 1.404 . S
H142 C140 0.951 . S
C143 C141 1.382 . S
C143 C144 1.390 . S
C143 H148 0.949 . S
C144 C143 1.390 . S
C144 C149 1.399 . S
C145 C141 1.404 . S
C145 H146 0.950 . S
C145 C147 1.375 . S
H146 C145 0.950 . S
C147 C145 1.375 . S
C147 C149 1.382 . S
C147 H151 0.950 . S
H148 C143 0.949 . S
C149 C144 1.399 . S
C149 C147 1.382 . S
C149 H150 0.952 . S
H150 C149 0.952 . S
H151 C147 0.950 . S
H152 C153 0.949 . S
C153 H152 0.949 . S
C153 C154 1.395 . S
C153 C155 1.391 . S
C154 C153 1.395 . S
C154 C157 1.390 . S
C155 C153 1.391 . S
C155 C159 1.387 . S
C155 C160 1.491 . S
H156 C157 0.950 . S
C157 C154 1.390 . S
C157 H156 0.950 . S
C157 C158 1.378 . S
C158 C157 1.378 . S
C158 C159 1.409 . S
C159 C155 1.387 . S
C159 C158 1.409 . S
C159 H161 0.951 . S
C160 C155 1.491 . S
C160 C162 1.382 . S
C160 C164 1.404 . S
H161 C159 0.951 . S
C162 C160 1.382 . S
C162 C163 1.390 . S
C162 H167 0.949 . S
C163 C162 1.390 . S
C163 C168 1.399 . S
C164 C160 1.404 . S
C164 H165 0.950 . S
C164 C166 1.375 . S
H165 C164 0.950 . S
C166 C164 1.375 . S
C166 C168 1.382 . S
C166 H170 0.950 . S
H167 C162 0.949 . S
C168 C163 1.399 . S
C168 C166 1.382 . S
C168 H169 0.952 . S
H169 C168 0.952 . S
H170 C166 0.950 . S
H171 C172 0.949 . S
C172 H171 0.949 . S
C172 C173 1.395 . S
C172 C174 1.391 . S
C173 C172 1.395 . S
C173 C176 1.390 . S
C174 C172 1.391 . S
C174 C178 1.387 . S
C174 C179 1.491 . S
H175 C176 0.950 . S
C176 C173 1.390 . S
C176 H175 0.950 . S
C176 C177 1.378 . S
C177 C176 1.378 . S
C177 C178 1.409 . S
C178 C174 1.387 . S
C178 C177 1.409 . S
C178 H180 0.951 . S
C179 C174 1.491 . S
C179 C181 1.382 . S
C179 C183 1.404 . S
H180 C178 0.951 . S
C181 C179 1.382 . S
C181 C182 1.390 . S
C181 H186 0.949 . S
C182 C181 1.390 . S
C182 C187 1.399 . S
C183 C179 1.404 . S
C183 H184 0.950 . S
C183 C185 1.375 . S
H184 C183 0.950 . S
C185 C183 1.375 . S
C185 C187 1.382 . S
C185 H189 0.950 . S
H186 C181 0.949 . S
C187 C182 1.399 . S
C187 C185 1.382 . S
C187 H188 0.952 . S
H188 C187 0.952 . S
H189 C185 0.950 . S
H190 C191 0.949 . S
C191 H190 0.949 . S
C191 C192 1.395 . S
C191 C193 1.391 . S
C192 C191 1.395 . S
C192 C195 1.390 . S
C193 C191 1.391 . S
C193 C197 1.387 . S
C193 C198 1.491 . S
H194 C195 0.950 . S
C195 C192 1.390 . S
C195 H194 0.950 . S
C195 C196 1.378 . S
C196 C195 1.378 . S
C196 C197 1.409 . S
C197 C193 1.387 . S
C197 C196 1.409 . S
C197 H199 0.951 . S
C198 C193 1.491 . S
C198 C200 1.382 . S
C198 C202 1.404 . S
H199 C197 0.951 . S
C200 C198 1.382 . S
C200 C201 1.390 . S
C200 H205 0.949 . S
C201 C200 1.390 . S
C201 C206 1.399 . S
C202 C198 1.404 . S
C202 H203 0.950 . S
C202 C204 1.375 . S
H203 C202 0.950 . S
C204 C202 1.375 . S
C204 C206 1.382 . S
C204 H208 0.950 1_556 S
H205 C200 0.949 . S
C206 C201 1.399 . S
C206 C204 1.382 . S
C206 H207 0.952 1_556 S
H207 C206 0.952 1_554 S
H208 C204 0.950 1_554 S
H209 C210 0.949 . S
C210 H209 0.949 . S
C210 C211 1.395 . S
C210 C212 1.391 . S
C211 C210 1.395 . S
C211 C214 1.390 . S
C212 C210 1.391 . S
C212 C216 1.387 . S
C212 C217 1.491 . S
H213 C214 0.950 . S
C214 C211 1.390 . S
C214 H213 0.950 . S
C214 C215 1.378 . S
C215 C214 1.378 . S
C215 C216 1.409 . S
C216 C212 1.387 . S
C216 C215 1.409 . S
C216 H218 0.951 . S
C217 C212 1.491 . S
C217 C219 1.382 . S
C217 C221 1.404 . S
H218 C216 0.951 . S
C219 C217 1.382 . S
C219 C220 1.390 . S
C219 H224 0.949 . S
C220 C219 1.390 . S
C220 C225 1.399 . S
C221 C217 1.404 . S
C221 H222 0.950 . S
C221 C223 1.375 . S
H222 C221 0.950 . S
C223 C221 1.375 . S
C223 C225 1.382 . S
C223 H227 0.950 . S
H224 C219 0.949 . S
C225 C220 1.399 . S
C225 C223 1.382 . S
C225 H226 0.952 . S
H226 C225 0.952 . S
H227 C223 0.950 . S
H228 C229 0.949 . S
C229 H228 0.949 . S
C229 C230 1.395 . S
C229 C231 1.391 . S
C230 C229 1.395 . S
C230 C233 1.390 . S
C231 C229 1.391 . S
C231 C235 1.387 . S
C231 C236 1.491 . S
H232 C233 0.950 . S
C233 C230 1.390 . S
C233 H232 0.950 . S
C233 C234 1.378 . S
C234 C233 1.378 . S
C234 C235 1.409 . S
C235 C231 1.387 . S
C235 C234 1.409 . S
C235 H237 0.951 . S
C236 C231 1.491 . S
C236 C238 1.382 . S
C236 C240 1.404 . S
H237 C235 0.951 . S
C238 C236 1.382 . S
C238 C239 1.390 . S
C238 H243 0.949 . S
C239 C238 1.390 . S
C239 C244 1.399 . S
C240 C236 1.404 . S
C240 H241 0.950 . S
C240 C242 1.375 . S
H241 C240 0.950 . S
C242 C240 1.375 . S
C242 C244 1.382 . S
C242 H246 0.950 . S
H243 C238 0.949 . S
C244 C239 1.399 . S
C244 C242 1.382 . S
C244 H245 0.952 . S
H245 C244 0.952 . S
H246 C242 0.950 . S
H247 C248 0.949 . S
C248 H247 0.949 . S
C248 C249 1.395 . S
C248 C250 1.391 . S
C249 C248 1.395 . S
C249 C252 1.390 . S
C250 C248 1.391 . S
C250 C254 1.387 . S
C250 C255 1.491 . S
H251 C252 0.950 . S
C252 C249 1.390 . S
C252 H251 0.950 . S
C252 C253 1.378 . S
C253 C252 1.378 . S
C253 C254 1.409 . S
C254 C250 1.387 . S
C254 C253 1.409 . S
C254 H256 0.951 . S
C255 C250 1.491 . S
C255 C257 1.382 . S
C255 C259 1.404 . S
H256 C254 0.951 . S
C257 C255 1.382 . S
C257 C258 1.390 . S
C257 H262 0.949 . S
C258 C257 1.390 . S
C258 C263 1.399 . S
C259 C255 1.404 . S
C259 H260 0.950 . S
C259 C261 1.375 . S
H260 C259 0.950 . S
C261 C259 1.375 . S
C261 C263 1.382 . S
C261 H265 0.950 . S
H262 C257 0.949 . S
C263 C258 1.399 . S
C263 C261 1.382 . S
C263 H264 0.952 . S
H264 C263 0.952 . S
H265 C261 0.950 . S
H266 C267 0.949 . S
C267 H266 0.949 . S
C267 C268 1.395 . S
C267 C269 1.391 . S
C268 C267 1.395 . S
C268 C271 1.390 . S
C269 C267 1.391 . S
C269 C273 1.387 . S
C269 C274 1.491 . S
H270 C271 0.950 . S
C271 C268 1.390 . S
C271 H270 0.950 . S
C271 C272 1.378 . S
C272 C271 1.378 . S
C272 C273 1.409 . S
C273 C269 1.387 . S
C273 C272 1.409 . S
C273 H275 0.951 . S
C274 C269 1.491 . S
C274 C276 1.382 . S
C274 C278 1.404 . S
H275 C273 0.951 . S
C276 C274 1.382 . S
C276 C277 1.390 . S
C276 H281 0.949 . S
C277 C276 1.390 . S
C277 C282 1.399 . S
C278 C274 1.404 . S
C278 H279 0.950 . S
C278 C280 1.375 . S
H279 C278 0.950 . S
C280 C278 1.375 . S
C280 C282 1.382 . S
C280 H284 0.950 . S
H281 C276 0.949 . S
C282 C277 1.399 . S
C282 C280 1.382 . S
C282 H283 0.952 . S
H283 C282 0.952 . S
H284 C280 0.950 . S
H285 C286 0.949 . S
C286 H285 0.949 . S
C286 C287 1.395 . S
C286 C288 1.391 . S
C287 C286 1.395 . S
C287 C290 1.390 . S
C288 C286 1.391 . S
C288 C292 1.387 . S
C288 C293 1.491 . S
H289 C290 0.950 . S
C290 C287 1.390 . S
C290 H289 0.950 . S
C290 C291 1.378 . S
C291 C290 1.378 . S
C291 C292 1.409 . S
C292 C288 1.387 . S
C292 C291 1.409 . S
C292 H294 0.951 . S
C293 C288 1.491 . S
C293 C295 1.382 . S
C293 C297 1.404 . S
H294 C292 0.951 . S
C295 C293 1.382 . S
C295 C296 1.390 . S
C295 H300 0.949 . S
C296 C295 1.390 . S
C296 C301 1.399 . S
C297 C293 1.404 . S
C297 H298 0.950 . S
C297 C299 1.375 . S
H298 C297 0.950 . S
C299 C297 1.375 . S
C299 C301 1.382 . S
C299 H303 0.950 . S
H300 C295 0.949 . S
C301 C296 1.399 . S
C301 C299 1.382 . S
C301 H302 0.952 . S
H302 C301 0.952 . S
H303 C299 0.950 . S
H304 C305 0.949 . S
C305 H304 0.949 . S
C305 C306 1.395 . S
C305 C307 1.391 . S
C306 C305 1.395 . S
C306 C309 1.390 . S
C307 C305 1.391 . S
C307 C311 1.387 . S
C307 C312 1.491 . S
H308 C309 0.950 . S
C309 C306 1.390 . S
C309 H308 0.950 . S
C309 C310 1.378 . S
C310 C309 1.378 . S
C310 C311 1.409 . S
C311 C307 1.387 . S
C311 C310 1.409 . S
C311 H313 0.951 . S
C312 C307 1.491 . S
C312 C314 1.382 . S
C312 C316 1.404 . S
H313 C311 0.951 . S
C314 C312 1.382 . S
C314 C315 1.390 . S
C314 H319 0.949 . S
C315 C314 1.390 . S
C315 C320 1.399 . S
C316 C312 1.404 . S
C316 H317 0.950 . S
C316 C318 1.375 . S
H317 C316 0.950 . S
C318 C316 1.375 . S
C318 C320 1.382 . S
C318 H322 0.950 . S
H319 C314 0.949 . S
C320 C315 1.399 . S
C320 C318 1.382 . S
C320 H321 0.952 . S
H321 C320 0.952 . S
H322 C318 0.950 . S
H323 C324 0.949 . S
C324 H323 0.949 . S
C324 C325 1.395 . S
C324 C326 1.391 . S
C325 C324 1.395 . S
C325 C328 1.390 . S
C326 C324 1.391 . S
C326 C330 1.387 . S
C326 C331 1.491 . S
H327 C328 0.950 . S
C328 C325 1.390 . S
C328 H327 0.950 . S
C328 C329 1.378 . S
C329 C328 1.378 . S
C329 C330 1.409 . S
C330 C326 1.387 . S
C330 C329 1.409 . S
C330 H332 0.951 . S
C331 C326 1.491 . S
C331 C333 1.382 . S
C331 C335 1.404 . S
H332 C330 0.951 . S
C333 C331 1.382 . S
C333 C334 1.390 . S
C333 H338 0.949 . S
C334 C333 1.390 . S
C334 C339 1.399 . S
C335 C331 1.404 . S
C335 H336 0.950 . S
C335 C337 1.375 . S
H336 C335 0.950 . S
C337 C335 1.375 . S
C337 C339 1.382 . S
C337 H341 0.950 . S
H338 C333 0.949 . S
C339 C334 1.399 . S
C339 C337 1.382 . S
C339 H340 0.952 . S
H340 C339 0.952 . S
H341 C337 0.950 . S
Eu342 N373 2.657 . S
Eu342 N380 2.609 . S
Eu342 O386 2.558 . S
Eu342 O387 2.612 1_566 S
Eu342 O389 2.339 1_565 S
Eu342 O390 2.563 1_565 S
Eu342 O391 2.419 1_565 S
Eu342 O393 2.380 1_556 S
Eu342 O394 2.432 . S
Eu342 C406 2.848 1_565 S
C343 C346 1.429 . S
C343 C347 1.411 . S
C343 N350 1.377 . S
C344 C346 1.420 . S
C344 C348 1.423 . S
C344 C356 1.392 . S
C345 C347 1.420 . S
C345 C348 1.351 . S
C345 H368 0.931 . S
C346 C343 1.429 . S
C346 C344 1.420 . S
C346 N354 1.362 . S
C347 C343 1.411 . S
C347 C345 1.420 . S
C347 C352 1.395 . S
C348 C344 1.423 . S
C348 C345 1.351 . S
C348 H360 0.930 . S
C349 C351 1.400 . S
C349 C352 1.386 . S
C349 H361 0.930 . S
N350 C343 1.377 . S
N350 C351 1.321 . S
N350 Eu353 2.609 . S
C351 C349 1.400 . S
C351 N350 1.321 . S
C351 H358 0.930 . S
C352 C347 1.395 . S
C352 C349 1.386 . S
C352 H371 0.930 . S
Eu353 N350 2.609 . S
Eu353 N354 2.657 . S
Eu353 O387 2.380 . S
Eu353 O388 2.432 . S
Eu353 O392 2.558 . S
Eu353 O393 2.612 1_545 S
Eu353 O395 2.339 1_545 S
Eu353 O396 2.563 1_545 S
Eu353 O397 2.419 1_545 S
Eu353 C417 2.847 1_545 S
N354 C346 1.362 . S
N354 Eu353 2.657 . S
N354 C355 1.334 . S
C355 N354 1.334 . S
C355 C357 1.413 . S
C355 H362 0.929 . S
C356 C344 1.392 . S
C356 C357 1.367 . S
C356 H364 0.930 . S
C357 C355 1.413 . S
C357 C356 1.367 . S
C357 H359 0.930 . S
H358 C351 0.930 . S
H359 C357 0.930 . S
H360 C348 0.930 . S
H361 C349 0.930 . S
H362 C355 0.929 . S
H363 C377 0.930 . S
H364 C356 0.930 . S
H365 C383 0.930 . S
H366 C374 0.916 1_545 S
H367 C381 0.930 . S
H368 C345 0.931 . S
H369 C375 0.930 . S
H370 C408 0.930 . S
H371 C352 0.930 . S
H372 C407 0.931 . S
N373 Eu342 2.657 . S
N373 C374 1.334 . S
N373 C378 1.362 . S
C374 H366 0.916 1_565 S
C374 N373 1.334 . S
C374 C377 1.413 . S
C375 H369 0.930 . S
C375 C376 1.392 . S
C375 C377 1.367 . S
C376 C375 1.392 . S
C376 C378 1.420 . S
C376 C408 1.423 . S
C377 H363 0.930 . S
C377 C374 1.413 . S
C377 C375 1.367 . S
C378 N373 1.362 . S
C378 C376 1.420 . S
C378 C382 1.429 . S
H379 C384 0.930 . S
N380 Eu342 2.609 . S
N380 C382 1.377 . S
N380 C383 1.321 . S
C381 H367 0.930 . S
C381 C383 1.400 . S
C381 C384 1.386 . S
C382 C378 1.429 . S
C382 N380 1.377 . S
C382 C385 1.411 . S
C383 H365 0.930 . S
C383 N380 1.321 . S
C383 C381 1.400 . S
C384 H379 0.930 . S
C384 C381 1.386 . S
C384 C385 1.395 . S
C385 C382 1.411 . S
C385 C384 1.395 . S
C385 C407 1.420 . S
O386 Eu342 2.558 . S
O386 C406 1.257 1_565 S
O387 Eu342 2.612 1_544 S
O387 Eu353 2.380 . S
O387 C398 1.276 1_554 S
O388 Eu353 2.432 . S
O388 C405 1.264 . S
O389 Eu342 2.339 1_545 S
O389 C405 1.254 1_556 S
O390 Eu342 2.563 1_545 S
O390 C398 1.235 . S
O391 Eu342 2.419 1_545 S
O391 C406 1.249 . S
O392 Eu353 2.558 . S
O392 C417 1.251 1_545 S
O393 Eu342 2.380 1_554 S
O393 Eu353 2.612 1_565 S
O393 C409 1.276 . S
O394 Eu342 2.432 . S
O394 C416 1.264 1_556 S
O395 Eu353 2.339 1_565 S
O395 C416 1.254 . S
O396 Eu353 2.563 1_565 S
O396 C409 1.235 . S
O397 Eu353 2.419 1_565 S
O397 C417 1.254 . S
C398 O387 1.276 1_556 S
C398 O390 1.235 . S
C399 C401 1.393 . S
C399 C403 1.395 1_545 S
C399 C406 1.492 . S
C400 C401 1.392 . S
C400 C402 1.386 . S
C401 C399 1.393 . S
C401 C400 1.392 . S
C401 H418 0.930 . S
C402 C400 1.386 . S
C402 C404 1.395 . S
C402 H419 0.930 . S
C403 C399 1.395 1_565 S
C403 C404 1.379 1_565 S
C403 H420 0.930 . S
C404 C402 1.395 . S
C404 C403 1.379 1_545 S
C404 H421 0.930 1_545 S
C405 O388 1.264 . S
C405 O389 1.254 1_554 S
C406 Eu342 2.848 1_545 S
C406 O386 1.257 1_545 S
C406 O391 1.249 . S
C406 C399 1.492 . S
C407 H372 0.931 . S
C407 C385 1.420 . S
C407 C408 1.351 . S
C408 H370 0.930 . S
C408 C376 1.423 . S
C408 C407 1.351 . S
C409 O393 1.276 . S
C409 O396 1.235 . S
C410 C411 1.393 . S
C410 C414 1.395 1_565 S
C410 C417 1.493 . S
C411 C410 1.393 . S
C411 C412 1.392 . S
C411 H422 0.930 . S
C412 C411 1.392 . S
C412 C413 1.386 . S
C413 C412 1.386 . S
C413 C415 1.395 . S
C413 H423 0.930 . S
C414 C410 1.395 1_545 S
C414 C415 1.379 1_545 S
C414 H424 0.930 . S
C415 C413 1.395 . S
C415 C414 1.379 1_565 S
C415 H425 0.930 1_565 S
C416 O394 1.264 1_554 S
C416 O395 1.254 . S
C417 Eu353 2.847 1_565 S
C417 O392 1.251 1_565 S
C417 O397 1.254 . S
C417 C410 1.493 . S
H418 C401 0.930 . S
H419 C402 0.930 . S
H420 C403 0.930 . S
H421 C404 0.930 1_565 S
H422 C411 0.930 . S
H423 C413 0.930 . S
H424 C414 0.930 . S
H425 C415 0.930 1_545 S
Eu426 N457 2.657 . S
Eu426 N464 2.609 . S
Eu426 O470 2.558 . S
Eu426 O471 2.612 1_456 S
Eu426 O473 2.339 1_455 S
Eu426 O474 2.563 1_455 S
Eu426 O475 2.419 1_455 S
Eu426 O477 2.380 1_556 S
Eu426 O478 2.432 . S
Eu426 C490 2.848 . S
C427 C430 1.429 . S
C427 C431 1.411 . S
C427 N434 1.377 . S
C428 C430 1.420 . S
C428 C432 1.423 . S
C428 C440 1.392 . S
C429 C431 1.420 . S
C429 C432 1.351 . S
C429 H452 0.931 . S
C430 C427 1.429 . S
C430 C428 1.420 . S
C430 N438 1.362 . S
C431 C427 1.411 . S
C431 C429 1.420 . S
C431 C436 1.395 . S
C432 C428 1.423 . S
C432 C429 1.351 . S
C432 H444 0.930 . S
C433 C435 1.400 . S
C433 C436 1.386 . S
C433 H445 0.930 . S
N434 C427 1.377 . S
N434 C435 1.321 . S
N434 Eu437 2.609 . S
C435 C433 1.400 . S
C435 N434 1.321 . S
C435 H442 0.930 . S
C436 C431 1.395 . S
C436 C433 1.386 . S
C436 H455 0.930 . S
Eu437 N434 2.609 . S
Eu437 N438 2.657 . S
Eu437 O471 2.380 . S
Eu437 O472 2.432 . S
Eu437 O476 2.558 . S
Eu437 O477 2.612 1_655 S
Eu437 O479 2.339 1_655 S
Eu437 O480 2.563 1_655 S
Eu437 O481 2.419 1_655 S
Eu437 C501 2.848 1_655 S
N438 C430 1.362 . S
N438 Eu437 2.657 . S
N438 C439 1.334 . S
C439 N438 1.334 . S
C439 C441 1.413 . S
C439 H446 0.888 1_655 S
C440 C428 1.392 . S
C440 C441 1.367 . S
C440 H448 0.930 . S
C441 C439 1.413 . S
C441 C440 1.367 . S
C441 H443 0.930 . S
H442 C435 0.930 . S
H443 C441 0.930 . S
H444 C432 0.930 . S
H445 C433 0.930 . S
H446 C439 0.888 1_455 S
H447 C461 0.930 . S
H448 C440 0.930 . S
H449 C467 0.930 . S
H450 C458 0.929 . S
H451 C465 0.930 . S
H452 C429 0.931 . S
H453 C459 0.930 . S
H454 C492 0.930 . S
H455 C436 0.930 . S
H456 C491 0.931 . S
N457 Eu426 2.657 . S
N457 C458 1.334 . S
N457 C462 1.362 . S
C458 H450 0.929 . S
C458 N457 1.334 . S
C458 C461 1.413 . S
C459 H453 0.930 . S
C459 C460 1.392 . S
C459 C461 1.367 . S
C460 C459 1.392 . S
C460 C462 1.420 . S
C460 C492 1.423 . S
C461 H447 0.930 . S
C461 C458 1.413 . S
C461 C459 1.367 . S
C462 N457 1.362 . S
C462 C460 1.420 . S
C462 C466 1.429 . S
H463 C468 0.930 . S
N464 Eu426 2.609 . S
N464 C466 1.377 . S
N464 C467 1.321 . S
C465 H451 0.930 . S
C465 C467 1.400 . S
C465 C468 1.386 . S
C466 C462 1.429 . S
C466 N464 1.377 . S
C466 C469 1.411 . S
C467 H449 0.930 . S
C467 N464 1.321 . S
C467 C465 1.400 . S
C468 H463 0.930 . S
C468 C465 1.386 . S
C468 C469 1.395 . S
C469 C466 1.411 . S
C469 C468 1.395 . S
C469 C491 1.420 . S
O470 Eu426 2.558 . S
O470 C490 1.257 . S
O471 Eu426 2.612 1_654 S
O471 Eu437 2.380 . S
O471 C482 1.276 1_554 S
O472 Eu437 2.432 . S
O472 C489 1.264 . S
O473 Eu426 2.339 1_655 S
O473 C489 1.254 1_556 S
O474 Eu426 2.563 1_655 S
O474 C482 1.235 . S
O475 Eu426 2.419 1_655 S
O475 C490 1.249 1_655 S
O476 Eu437 2.558 . S
O476 C501 1.257 1_655 S
O477 Eu426 2.380 1_554 S
O477 Eu437 2.612 1_455 S
O477 C493 1.276 . S
O478 Eu426 2.432 . S
O478 C500 1.264 1_556 S
O479 Eu437 2.339 1_455 S
O479 C500 1.254 . S
O480 Eu437 2.563 1_455 S
O480 C493 1.235 . S
O481 Eu437 2.419 1_455 S
O481 C501 1.249 . S
C482 O471 1.276 1_556 S
C482 O474 1.235 . S
C483 C485 1.393 . S
C483 C487 1.395 1_655 S
C483 C490 1.492 1_655 S
C484 C485 1.392 . S
C484 C486 1.386 . S
C485 C483 1.393 . S
C485 C484 1.392 . S
C485 H502 0.930 . S
C486 C484 1.386 . S
C486 C488 1.395 1_655 S
C486 H503 0.930 . S
C487 C483 1.395 1_455 S
C487 C488 1.379 . S
C487 H504 0.930 . S
C488 C486 1.395 1_455 S
C488 C487 1.379 . S
C488 H505 0.930 . S
C489 O472 1.264 . S
C489 O473 1.254 1_554 S
C490 Eu426 2.848 . S
C490 O470 1.257 . S
C490 O475 1.249 1_455 S
C490 C483 1.492 1_455 S
C491 H456 0.931 . S
C491 C469 1.420 . S
C491 C492 1.351 . S
C492 H454 0.930 . S
C492 C460 1.423 . S
C492 C491 1.351 . S
C493 O477 1.276 . S
C493 O480 1.235 . S
C494 C495 1.393 . S
C494 C498 1.395 1_455 S
C494 C501 1.492 . S
C495 C494 1.393 . S
C495 C496 1.392 . S
C495 H506 0.930 . S
C496 C495 1.392 . S
C496 C497 1.386 . S
C497 C496 1.386 . S
C497 C499 1.395 . S
C497 H507 0.930 . S
C498 C494 1.395 1_655 S
C498 C499 1.379 1_655 S
C498 H508 0.930 . S
C499 C497 1.395 . S
C499 C498 1.379 1_455 S
C499 H509 0.930 1_455 S
C500 O478 1.264 1_554 S
C500 O479 1.254 . S
C501 Eu437 2.848 1_455 S
C501 O476 1.257 1_455 S
C501 O481 1.249 . S
C501 C494 1.492 . S
H502 C485 0.930 . S
H503 C486 0.930 . S
H504 C487 0.930 . S
H505 C488 0.930 . S
H506 C495 0.930 . S
H507 C497 0.930 . S
H508 C498 0.930 . S
H509 C499 0.930 1_655 S
Eu510 N541 2.657 . S
Eu510 N548 2.609 . S
Eu510 O554 2.558 . S
Eu510 O555 2.612 . S
Eu510 O557 2.339 . S
Eu510 O558 2.563 . S
Eu510 O559 2.419 . S
Eu510 O561 2.380 . S
Eu510 O562 2.432 . S
Eu510 C574 2.848 . S
C511 C514 1.429 . S
C511 C515 1.411 . S
C511 N518 1.377 . S
C512 C514 1.420 . S
C512 C516 1.423 . S
C512 C524 1.392 . S
C513 C515 1.420 . S
C513 C516 1.351 . S
C513 H536 0.931 . S
C514 C511 1.429 . S
C514 C512 1.420 . S
C514 N522 1.362 . S
C515 C511 1.411 . S
C515 C513 1.420 . S
C515 C520 1.395 . S
C516 C512 1.423 . S
C516 C513 1.351 . S
C516 H528 0.930 . S
C517 C519 1.400 . S
C517 C520 1.386 . S
C517 H529 0.930 . S
N518 C511 1.377 . S
N518 C519 1.321 . S
N518 Eu521 2.609 . S
C519 C517 1.400 . S
C519 N518 1.321 . S
C519 H526 0.930 . S
C520 C515 1.395 . S
C520 C517 1.386 . S
C520 H539 0.930 . S
Eu521 N518 2.609 . S
Eu521 N522 2.657 . S
Eu521 O555 2.380 1_556 S
Eu521 O556 2.457 . S
Eu521 O560 2.558 . S
Eu521 O561 2.612 1_556 S
Eu521 O563 2.339 . S
Eu521 O564 2.563 . S
Eu521 O565 2.419 . S
Eu521 C585 2.848 . S
N522 C514 1.362 . S
N522 Eu521 2.657 . S
N522 C523 1.334 . S
C523 N522 1.334 . S
C523 C525 1.413 . S
C523 H530 0.929 . S
C524 C512 1.392 . S
C524 C525 1.367 . S
C524 H532 0.930 . S
C525 C523 1.413 . S
C525 C524 1.367 . S
C525 H527 0.930 . S
H526 C519 0.930 . S
H527 C525 0.930 . S
H528 C516 0.930 . S
H529 C517 0.930 . S
H530 C523 0.929 . S
H531 C545 0.930 . S
H532 C524 0.930 . S
H533 C551 0.930 . S
H534 C542 0.929 . S
H535 C549 0.930 . S
H536 C513 0.931 . S
H537 C543 0.930 . S
H538 C576 0.930 . S
H539 C520 0.930 . S
H540 C575 0.931 . S
N541 Eu510 2.657 . S
N541 C542 1.334 . S
N541 C546 1.362 . S
C542 H534 0.929 . S
C542 N541 1.334 . S
C542 C545 1.413 . S
C543 H537 0.930 . S
C543 C544 1.392 . S
C543 C545 1.367 . S
C544 C543 1.392 . S
C544 C546 1.420 . S
C544 C576 1.423 . S
C545 H531 0.930 . S
C545 C542 1.413 . S
C545 C543 1.367 . S
C546 N541 1.362 . S
C546 C544 1.420 . S
C546 C550 1.429 . S
H547 C552 0.930 . S
N548 Eu510 2.609 . S
N548 C550 1.377 . S
N548 C551 1.321 . S
C549 H535 0.930 . S
C549 C551 1.400 . S
C549 C552 1.386 . S
C550 C546 1.429 . S
C550 N548 1.377 . S
C550 C553 1.411 . S
C551 H533 0.930 . S
C551 N548 1.321 . S
C551 C549 1.400 . S
C552 H547 0.930 . S
C552 C549 1.386 . S
C552 C553 1.395 . S
C553 C550 1.411 . S
C553 C552 1.395 . S
C553 C575 1.420 . S
O554 Eu510 2.558 . S
O554 C574 1.257 . S
O555 Eu510 2.612 . S
O555 Eu521 2.380 1_554 S
O555 C566 1.276 . S
O556 Eu521 2.457 . S
O556 C573 1.211 1_556 S
O557 Eu510 2.339 . S
O557 C573 1.254 . S
O558 Eu510 2.563 . S
O558 C566 1.235 . S
O559 Eu510 2.419 . S
O559 C574 1.249 . S
O560 Eu521 2.558 . S
O560 C585 1.257 . S
O561 Eu510 2.380 . S
O561 Eu521 2.612 1_554 S
O561 C577 1.276 1_554 S
O562 Eu510 2.432 . S
O562 C584 1.264 . S
O563 Eu521 2.339 . S
O563 C584 1.254 1_556 S
O564 Eu521 2.563 . S
O564 C577 1.235 . S
O565 Eu521 2.419 . S
O565 C585 1.249 . S
C566 O555 1.276 . S
C566 O558 1.235 . S
C567 C569 1.393 . S
C567 C571 1.395 . S
C567 C574 1.492 . S
C568 C569 1.392 . S
C568 C570 1.386 . S
C569 C567 1.393 . S
C569 C568 1.392 . S
C569 H586 0.930 . S
C570 C568 1.386 . S
C570 C572 1.395 . S
C570 H587 0.930 . S
C571 C567 1.395 . S
C571 C572 1.379 . S
C571 H588 0.930 . S
C572 C570 1.395 . S
C572 C571 1.379 . S
C572 H589 0.930 . S
C573 O556 1.211 1_554 S
C573 O557 1.254 . S
C574 Eu510 2.848 . S
C574 O554 1.257 . S
C574 O559 1.249 . S
C574 C567 1.492 . S
C575 H540 0.931 . S
C575 C553 1.420 . S
C575 C576 1.351 . S
C576 H538 0.930 . S
C576 C544 1.423 . S
C576 C575 1.351 . S
C577 O561 1.276 1_556 S
C577 O564 1.235 . S
C578 C579 1.393 . S
C578 C582 1.395 . S
C578 C585 1.492 . S
C579 C578 1.393 . S
C579 C580 1.392 . S
C579 H590 0.930 . S
C580 C579 1.392 . S
C580 C581 1.386 . S
C581 C580 1.386 . S
C581 C583 1.395 . S
C581 H591 0.930 . S
C582 C578 1.395 . S
C582 C583 1.379 . S
C582 H592 0.930 . S
C583 C581 1.395 . S
C583 C582 1.379 . S
C583 H593 0.930 . S
C584 O562 1.264 . S
C584 O563 1.254 1_554 S
C585 Eu521 2.848 . S
C585 O560 1.257 . S
C585 O565 1.249 . S
C585 C578 1.492 . S
H586 C569 0.930 . S
H587 C570 0.930 . S
H588 C571 0.930 . S
H589 C572 0.930 . S
H590 C579 0.930 . S
H591 C581 0.930 . S
H592 C582 0.930 . S
H593 C583 0.930 . S
Eu594 N625 2.657 . S
Eu594 N632 2.609 . S
Eu594 O638 2.558 . S
Eu594 O639 2.612 . S
Eu594 O641 2.339 . S
Eu594 O642 2.563 . S
Eu594 O643 2.419 . S
Eu594 O645 2.380 . S
Eu594 O646 2.432 . S
Eu594 C658 2.848 . S
C595 C598 1.429 . S
C595 C599 1.411 . S
C595 N602 1.377 . S
C596 C598 1.420 . S
C596 C600 1.423 . S
C596 C608 1.392 . S
C597 C599 1.420 . S
C597 C600 1.351 . S
C597 H620 0.931 . S
C598 C595 1.429 . S
C598 C596 1.420 . S
C598 N606 1.362 . S
C599 C595 1.411 . S
C599 C597 1.420 . S
C599 C604 1.395 . S
C600 C596 1.423 . S
C600 C597 1.351 . S
C600 H612 0.930 . S
C601 C603 1.400 . S
C601 C604 1.386 . S
C601 H613 0.930 . S
N602 C595 1.377 . S
N602 C603 1.321 . S
N602 Eu605 2.609 . S
C603 C601 1.400 . S
C603 N602 1.321 . S
C603 H610 0.930 . S
C604 C599 1.395 . S
C604 C601 1.386 . S
C604 H623 0.930 . S
Eu605 N602 2.609 . S
Eu605 N606 2.657 . S
Eu605 O639 2.380 . S
Eu605 O640 2.432 . S
Eu605 O644 2.558 . S
Eu605 O645 2.612 . S
Eu605 O647 2.339 . S
Eu605 O648 2.563 . S
Eu605 O649 2.419 . S
Eu605 C669 2.848 . S
N606 C598 1.362 . S
N606 Eu605 2.657 . S
N606 C607 1.334 . S
C607 N606 1.334 . S
C607 C609 1.413 . S
C607 H614 0.929 . S
C608 C596 1.392 . S
C608 C609 1.367 . S
C608 H616 0.930 . S
C609 C607 1.413 . S
C609 C608 1.367 . S
C609 H611 0.930 . S
H610 C603 0.930 . S
H611 C609 0.930 . S
H612 C600 0.930 . S
H613 C601 0.930 . S
H614 C607 0.929 . S
H615 C629 0.930 . S
H616 C608 0.930 . S
H617 C635 0.930 . S
H618 C626 0.929 . S
H619 C633 0.930 . S
H620 C597 0.931 . S
H621 C627 0.930 1_655 S
H622 C660 0.930 1_655 S
H623 C604 0.930 . S
H624 C659 0.931 . S
N625 Eu594 2.657 . S
N625 C626 1.334 . S
N625 C630 1.362 . S
C626 H618 0.929 . S
C626 N625 1.334 . S
C626 C629 1.413 . S
C627 H621 0.930 1_455 S
C627 C628 1.392 . S
C627 C629 1.367 . S
C628 C627 1.392 . S
C628 C630 1.420 . S
C628 C660 1.423 . S
C629 H615 0.930 . S
C629 C626 1.413 . S
C629 C627 1.367 . S
C630 N625 1.362 . S
C630 C628 1.420 . S
C630 C634 1.429 . S
H631 C636 0.930 . S
N632 Eu594 2.609 . S
N632 C634 1.377 . S
N632 C635 1.321 . S
C633 H619 0.930 . S
C633 C635 1.400 . S
C633 C636 1.386 . S
C634 C630 1.429 . S
C634 N632 1.377 . S
C634 C637 1.411 . S
C635 H617 0.930 . S
C635 N632 1.321 . S
C635 C633 1.400 . S
C636 H631 0.930 . S
C636 C633 1.386 . S
C636 C637 1.395 . S
C637 C634 1.411 . S
C637 C636 1.395 . S
C637 C659 1.420 . S
O638 Eu594 2.558 . S
O638 C658 1.257 . S
O639 Eu594 2.612 . S
O639 Eu605 2.380 . S
O639 C650 1.276 . S
O640 Eu605 2.432 . S
O640 C657 1.264 . S
O641 Eu594 2.339 . S
O641 C657 1.254 . S
O642 Eu594 2.563 . S
O642 C650 1.235 . S
O643 Eu594 2.419 . S
O643 C658 1.249 . S
O644 Eu605 2.558 . S
O644 C669 1.257 . S
O645 Eu594 2.380 . S
O645 Eu605 2.612 . S
O645 C661 1.276 . S
O646 Eu594 2.432 . S
O646 C668 1.264 . S
O647 Eu605 2.339 . S
O647 C668 1.254 . S
O648 Eu605 2.563 . S
O648 C661 1.235 . S
O649 Eu605 2.419 . S
O649 C669 1.249 . S
C650 O639 1.276 . S
C650 O642 1.235 . S
C651 C653 1.393 . S
C651 C655 1.395 . S
C651 C658 1.492 . S
C652 C653 1.392 . S
C652 C654 1.386 . S
C653 C651 1.393 . S
C653 C652 1.392 . S
C653 H670 0.930 . S
C654 C652 1.386 . S
C654 C656 1.395 . S
C654 H671 0.930 . S
C655 C651 1.395 . S
C655 C656 1.379 . S
C655 H672 0.930 . S
C656 C654 1.395 . S
C656 C655 1.379 . S
C656 H673 0.930 . S
C657 O640 1.264 . S
C657 O641 1.254 . S
C658 Eu594 2.848 . S
C658 O638 1.257 . S
C658 O643 1.249 . S
C658 C651 1.492 . S
C659 H624 0.931 . S
C659 C637 1.420 . S
C659 C660 1.351 . S
C660 H622 0.930 1_455 S
C660 C628 1.423 . S
C660 C659 1.351 . S
C661 O645 1.276 . S
C661 O648 1.235 . S
C662 C663 1.393 . S
C662 C666 1.395 . S
C662 C669 1.492 . S
C663 C662 1.393 . S
C663 C664 1.392 . S
C663 H674 0.930 . S
C664 C663 1.392 . S
C664 C665 1.386 . S
C665 C664 1.386 . S
C665 C667 1.395 . S
C665 H675 0.930 . S
C666 C662 1.395 . S
C666 C667 1.379 . S
C666 H676 0.930 . S
C667 C665 1.395 . S
C667 C666 1.379 . S
C667 H677 0.930 . S
C668 O646 1.264 . S
C668 O647 1.254 . S
C669 Eu605 2.848 . S
C669 O644 1.257 . S
C669 O649 1.249 . S
C669 C662 1.492 . S
H670 C653 0.930 . S
H671 C654 0.930 . S
H672 C655 0.930 . S
H673 C656 0.930 . S
H674 C663 0.930 . S
H675 C665 0.930 . S
H676 C666 0.930 . S
H677 C667 0.930 . S
Eu678 N709 2.657 . S
Eu678 N716 2.609 . S
Eu678 O722 2.558 . S
Eu678 O723 2.612 . S
Eu678 O725 2.339 . S
Eu678 O726 2.563 . S
Eu678 O727 2.419 . S
Eu678 O729 2.380 . S
Eu678 O730 2.432 . S
Eu678 C742 2.848 . S
C679 C682 1.429 . S
C679 C683 1.411 . S
C679 N686 1.377 . S
C680 C682 1.420 . S
C680 C684 1.423 . S
C680 C692 1.392 . S
C681 C683 1.420 . S
C681 C684 1.351 . S
C681 H704 0.931 . S
C682 C679 1.429 . S
C682 C680 1.420 . S
C682 N690 1.362 . S
C683 C679 1.411 . S
C683 C681 1.420 . S
C683 C688 1.395 . S
C684 C680 1.423 . S
C684 C681 1.351 . S
C684 H696 0.930 . S
C685 C687 1.400 . S
C685 C688 1.386 . S
C685 H697 0.930 . S
N686 C679 1.377 . S
N686 C687 1.321 . S
N686 Eu689 2.609 . S
C687 C685 1.400 . S
C687 N686 1.321 . S
C687 H694 0.930 . S
C688 C683 1.395 . S
C688 C685 1.386 . S
C688 H707 0.930 . S
Eu689 N686 2.609 . S
Eu689 N690 2.657 . S
Eu689 O723 2.380 . S
Eu689 O724 2.432 . S
Eu689 O728 2.558 . S
Eu689 O729 2.612 . S
Eu689 O731 2.339 . S
Eu689 O732 2.563 . S
Eu689 O733 2.419 . S
Eu689 C753 2.848 . S
N690 C682 1.362 . S
N690 Eu689 2.657 . S
N690 C691 1.334 . S
C691 N690 1.334 . S
C691 C693 1.413 . S
C691 H698 0.929 . S
C692 C680 1.392 . S
C692 C693 1.367 . S
C692 H700 0.930 . S
C693 C691 1.413 . S
C693 C692 1.367 . S
C693 H695 0.930 . S
H694 C687 0.930 . S
H695 C693 0.930 . S
H696 C684 0.930 . S
H697 C685 0.930 . S
H698 C691 0.929 . S
H699 C713 0.930 . S
H700 C692 0.930 . S
H701 C719 0.930 . S
H702 C710 0.929 . S
H703 C717 0.930 . S
H704 C681 0.931 . S
H705 C711 0.930 . S
H706 C744 0.930 . S
H707 C688 0.930 . S
H708 C743 0.931 . S
N709 Eu678 2.657 . S
N709 C710 1.334 . S
N709 C714 1.362 . S
C710 H702 0.929 . S
C710 N709 1.334 . S
C710 C713 1.413 . S
C711 H705 0.930 . S
C711 C712 1.392 . S
C711 C713 1.367 . S
C712 C711 1.392 . S
C712 C714 1.420 . S
C712 C744 1.423 . S
C713 H699 0.930 . S
C713 C710 1.413 . S
C713 C711 1.367 . S
C714 N709 1.362 . S
C714 C712 1.420 . S
C714 C718 1.429 . S
H715 C720 0.930 . S
N716 Eu678 2.609 . S
N716 C718 1.377 . S
N716 C719 1.321 . S
C717 H703 0.930 . S
C717 C719 1.400 . S
C717 C720 1.386 . S
C718 C714 1.429 . S
C718 N716 1.377 . S
C718 C721 1.411 . S
C719 H701 0.930 . S
C719 N716 1.321 . S
C719 C717 1.400 . S
C720 H715 0.930 . S
C720 C717 1.386 . S
C720 C721 1.395 . S
C721 C718 1.411 . S
C721 C720 1.395 . S
C721 C743 1.420 . S
O722 Eu678 2.558 . S
O722 C742 1.257 . S
O723 Eu678 2.612 . S
O723 Eu689 2.380 . S
O723 C734 1.276 . S
O724 Eu689 2.432 . S
O724 C741 1.264 . S
O725 Eu678 2.339 . S
O725 C741 1.254 . S
O726 Eu678 2.563 . S
O726 C734 1.235 . S
O727 Eu678 2.419 . S
O727 C742 1.249 . S
O728 Eu689 2.558 . S
O728 C753 1.257 . S
O729 Eu678 2.380 . S
O729 Eu689 2.612 . S
O729 C745 1.276 . S
O730 Eu678 2.432 . S
O730 C752 1.264 . S
O731 Eu689 2.339 . S
O731 C752 1.254 . S
O732 Eu689 2.563 . S
O732 C745 1.235 . S
O733 Eu689 2.419 . S
O733 C753 1.249 . S
C734 O723 1.276 . S
C734 O726 1.235 . S
C735 C737 1.393 . S
C735 C739 1.395 . S
C735 C742 1.492 . S
C736 C737 1.392 . S
C736 C738 1.386 . S
C737 C735 1.393 . S
C737 C736 1.392 . S
C737 H754 0.930 . S
C738 C736 1.386 . S
C738 C740 1.395 . S
C738 H755 0.930 . S
C739 C735 1.395 . S
C739 C740 1.379 . S
C739 H756 0.930 . S
C740 C738 1.395 . S
C740 C739 1.379 . S
C740 H757 0.930 . S
C741 O724 1.264 . S
C741 O725 1.254 . S
C742 Eu678 2.848 . S
C742 O722 1.257 . S
C742 O727 1.249 . S
C742 C735 1.492 . S
C743 H708 0.931 . S
C743 C721 1.420 . S
C743 C744 1.351 . S
C744 H706 0.930 . S
C744 C712 1.423 . S
C744 C743 1.351 . S
C745 O729 1.276 . S
C745 O732 1.235 . S
C746 C747 1.393 . S
C746 C750 1.395 . S
C746 C753 1.492 . S
C747 C746 1.393 . S
C747 C748 1.392 . S
C747 H758 0.930 . S
C748 C747 1.392 . S
C748 C749 1.386 . S
C749 C748 1.386 . S
C749 C751 1.395 . S
C749 H759 0.930 . S
C750 C746 1.395 . S
C750 C751 1.379 . S
C750 H760 0.930 . S
C751 C749 1.395 . S
C751 C750 1.379 . S
C751 H761 0.930 . S
C752 O730 1.264 . S
C752 O731 1.254 . S
C753 Eu689 2.848 . S
C753 O728 1.257 . S
C753 O733 1.249 . S
C753 C746 1.492 . S
H754 C737 0.930 . S
H755 C738 0.930 . S
H756 C739 0.930 . S
H757 C740 0.930 . S
H758 C747 0.930 . S
H759 C749 0.930 . S
H760 C750 0.930 . S
H761 C751 0.930 . S
Eu762 N793 2.657 . S
Eu762 N800 2.609 . S
Eu762 O806 2.558 . S
Eu762 O807 2.612 . S
Eu762 O809 2.339 . S
Eu762 O810 2.563 . S
Eu762 O811 2.419 . S
Eu762 O813 2.380 . S
Eu762 O814 2.432 . S
Eu762 C826 2.848 . S
C763 C766 1.429 . S
C763 C767 1.411 . S
C763 N770 1.377 . S
C764 C766 1.420 . S
C764 C768 1.423 . S
C764 C776 1.392 . S
C765 C767 1.420 . S
C765 C768 1.351 . S
C765 H788 0.931 . S
C766 C763 1.429 . S
C766 C764 1.420 . S
C766 N774 1.362 . S
C767 C763 1.411 . S
C767 C765 1.420 . S
C767 C772 1.395 . S
C768 C764 1.423 . S
C768 C765 1.351 . S
C768 H780 0.930 . S
C769 C771 1.400 . S
C769 C772 1.386 . S
C769 H781 0.930 . S
N770 C763 1.377 . S
N770 C771 1.321 . S
N770 Eu773 2.609 . S
C771 C769 1.400 . S
C771 N770 1.321 . S
C771 H778 0.930 . S
C772 C767 1.395 . S
C772 C769 1.386 . S
C772 H791 0.930 . S
Eu773 N770 2.609 . S
Eu773 N774 2.657 . S
Eu773 O807 2.380 . S
Eu773 O808 2.432 . S
Eu773 O812 2.558 . S
Eu773 O813 2.612 . S
Eu773 O815 2.339 . S
Eu773 O816 2.563 . S
Eu773 O817 2.419 . S
Eu773 C837 2.848 . S
N774 C766 1.362 . S
N774 Eu773 2.657 . S
N774 C775 1.334 . S
C775 N774 1.334 . S
C775 C777 1.413 . S
C775 H782 0.929 . S
C776 C764 1.392 . S
C776 C777 1.367 . S
C776 H784 0.930 . S
C777 C775 1.413 . S
C777 C776 1.367 . S
C777 H779 0.930 . S
H778 C771 0.930 . S
H779 C777 0.930 . S
H780 C768 0.930 . S
H781 C769 0.930 . S
H782 C775 0.929 . S
H783 C797 0.930 . S
H784 C776 0.930 . S
H785 C803 0.930 . S
H786 C794 0.929 . S
H787 C801 0.930 . S
H788 C765 0.931 . S
H789 C795 0.930 . S
H790 C828 0.930 . S
H791 C772 0.930 . S
H792 C827 0.931 . S
N793 Eu762 2.657 . S
N793 C794 1.334 . S
N793 C798 1.362 . S
C794 H786 0.929 . S
C794 N793 1.334 . S
C794 C797 1.413 . S
C795 H789 0.930 . S
C795 C796 1.392 . S
C795 C797 1.367 . S
C796 C795 1.392 . S
C796 C798 1.420 . S
C796 C828 1.423 . S
C797 H783 0.930 . S
C797 C794 1.413 . S
C797 C795 1.367 . S
C798 N793 1.362 . S
C798 C796 1.420 . S
C798 C802 1.429 . S
H799 C804 0.930 . S
N800 Eu762 2.609 . S
N800 C802 1.377 . S
N800 C803 1.321 . S
C801 H787 0.930 . S
C801 C803 1.400 . S
C801 C804 1.386 . S
C802 C798 1.429 . S
C802 N800 1.377 . S
C802 C805 1.411 . S
C803 H785 0.930 . S
C803 N800 1.321 . S
C803 C801 1.400 . S
C804 H799 0.930 . S
C804 C801 1.386 . S
C804 C805 1.395 . S
C805 C802 1.411 . S
C805 C804 1.395 . S
C805 C827 1.420 . S
O806 Eu762 2.558 . S
O806 C826 1.257 . S
O807 Eu762 2.612 . S
O807 Eu773 2.380 . S
O807 C818 1.276 . S
O808 Eu773 2.432 . S
O808 C825 1.264 . S
O809 Eu762 2.339 . S
O809 C825 1.254 . S
O810 Eu762 2.563 . S
O810 C818 1.235 . S
O811 Eu762 2.419 . S
O811 C826 1.249 . S
O812 Eu773 2.558 . S
O812 C837 1.257 . S
O813 Eu762 2.380 . S
O813 Eu773 2.612 . S
O813 C829 1.276 . S
O814 Eu762 2.432 . S
O814 C836 1.264 . S
O815 Eu773 2.339 . S
O815 C836 1.254 . S
O816 Eu773 2.563 . S
O816 C829 1.235 . S
O817 Eu773 2.419 . S
O817 C837 1.249 . S
C818 O807 1.276 . S
C818 O810 1.235 . S
C819 C821 1.393 . S
C819 C823 1.395 . S
C819 C826 1.492 . S
C820 C821 1.392 . S
C820 C822 1.386 . S
C821 C819 1.393 . S
C821 C820 1.392 . S
C821 H838 0.930 . S
C822 C820 1.386 . S
C822 C824 1.395 . S
C822 H839 0.930 . S
C823 C819 1.395 . S
C823 C824 1.379 . S
C823 H840 0.930 . S
C824 C822 1.395 . S
C824 C823 1.379 . S
C824 H841 0.930 . S
C825 O808 1.264 . S
C825 O809 1.254 . S
C826 Eu762 2.848 . S
C826 O806 1.257 . S
C826 O811 1.249 . S
C826 C819 1.492 . S
C827 H792 0.931 . S
C827 C805 1.420 . S
C827 C828 1.351 . S
C828 H790 0.930 . S
C828 C796 1.423 . S
C828 C827 1.351 . S
C829 O813 1.276 . S
C829 O816 1.235 . S
C830 C831 1.393 . S
C830 C834 1.395 . S
C830 C837 1.492 . S
C831 C830 1.393 . S
C831 C832 1.392 . S
C831 H842 0.930 . S
C832 C831 1.392 . S
C832 C833 1.386 . S
C833 C832 1.386 . S
C833 C835 1.395 . S
C833 H843 0.930 . S
C834 C830 1.395 . S
C834 C835 1.379 . S
C834 H844 0.930 . S
C835 C833 1.395 . S
C835 C834 1.379 . S
C835 H845 0.930 . S
C836 O814 1.264 . S
C836 O815 1.254 . S
C837 Eu773 2.848 . S
C837 O812 1.257 . S
C837 O817 1.249 . S
C837 C830 1.492 . S
H838 C821 0.930 . S
H839 C822 0.930 . S
H840 C823 0.930 . S
H841 C824 0.930 . S
H842 C831 0.930 . S
H843 C833 0.930 . S
H844 C834 0.930 . S
H845 C835 0.930 . S
Eu846 N877 2.657 . S
Eu846 N884 2.609 . S
Eu846 O890 2.558 . S
Eu846 O891 2.612 . S
Eu846 O893 2.339 . S
Eu846 O894 2.563 . S
Eu846 O895 2.419 . S
Eu846 O897 2.380 . S
Eu846 O898 2.432 . S
Eu846 C910 2.848 . S
C847 C850 1.429 . S
C847 C851 1.411 . S
C847 N854 1.377 . S
C848 C850 1.420 . S
C848 C852 1.423 . S
C848 C860 1.392 . S
C849 C851 1.420 . S
C849 C852 1.351 . S
C849 H872 0.931 . S
C850 C847 1.429 . S
C850 C848 1.420 . S
C850 N858 1.362 . S
C851 C847 1.411 . S
C851 C849 1.420 . S
C851 C856 1.395 . S
C852 C848 1.423 . S
C852 C849 1.351 . S
C852 H864 0.930 . S
C853 C855 1.400 . S
C853 C856 1.386 . S
C853 H865 0.930 . S
N854 C847 1.377 . S
N854 C855 1.321 . S
N854 Eu857 2.609 . S
C855 C853 1.400 . S
C855 N854 1.321 . S
C855 H862 0.930 . S
C856 C851 1.395 . S
C856 C853 1.386 . S
C856 H875 0.930 . S
Eu857 N854 2.609 . S
Eu857 N858 2.657 . S
Eu857 O891 2.380 . S
Eu857 O892 2.432 . S
Eu857 O896 2.558 . S
Eu857 O897 2.612 . S
Eu857 O899 2.339 . S
Eu857 O900 2.563 . S
Eu857 O901 2.419 . S
Eu857 C921 2.848 . S
N858 C850 1.362 . S
N858 Eu857 2.657 . S
N858 C859 1.334 . S
C859 N858 1.334 . S
C859 C861 1.413 . S
C859 H866 0.929 . S
C860 C848 1.392 . S
C860 C861 1.367 . S
C860 H868 0.930 . S
C861 C859 1.413 . S
C861 C860 1.367 . S
C861 H863 0.930 . S
H862 C855 0.930 . S
H863 C861 0.930 . S
H864 C852 0.930 . S
H865 C853 0.930 . S
H866 C859 0.929 . S
H867 C881 0.930 . S
H868 C860 0.930 . S
H869 C887 0.930 . S
H870 C878 0.929 . S
H871 C885 0.930 . S
H872 C849 0.931 . S
H873 C879 0.930 . S
H874 C912 0.930 . S
H875 C856 0.930 . S
H876 C911 0.931 . S
N877 Eu846 2.657 . S
N877 C878 1.334 . S
N877 C882 1.362 . S
C878 H870 0.929 . S
C878 N877 1.334 . S
C878 C881 1.413 . S
C879 H873 0.930 . S
C879 C880 1.392 . S
C879 C881 1.367 . S
C880 C879 1.392 . S
C880 C882 1.420 . S
C880 C912 1.423 . S
C881 H867 0.930 . S
C881 C878 1.413 . S
C881 C879 1.367 . S
C882 N877 1.362 . S
C882 C880 1.420 . S
C882 C886 1.429 . S
H883 C888 0.930 . S
N884 Eu846 2.609 . S
N884 C886 1.377 . S
N884 C887 1.321 . S
C885 H871 0.930 . S
C885 C887 1.400 . S
C885 C888 1.386 . S
C886 C882 1.429 . S
C886 N884 1.377 . S
C886 C889 1.411 . S
C887 H869 0.930 . S
C887 N884 1.321 . S
C887 C885 1.400 . S
C888 H883 0.930 . S
C888 C885 1.386 . S
C888 C889 1.395 . S
C889 C886 1.411 . S
C889 C888 1.395 . S
C889 C911 1.420 . S
O890 Eu846 2.558 . S
O890 C910 1.257 . S
O891 Eu846 2.612 . S
O891 Eu857 2.380 . S
O891 C902 1.276 . S
O892 Eu857 2.432 . S
O892 C909 1.264 . S
O893 Eu846 2.339 . S
O893 C909 1.254 . S
O894 Eu846 2.563 . S
O894 C902 1.235 . S
O895 Eu846 2.419 . S
O895 C910 1.249 . S
O896 Eu857 2.558 . S
O896 C921 1.257 . S
O897 Eu846 2.380 . S
O897 Eu857 2.612 . S
O897 C913 1.276 . S
O898 Eu846 2.432 . S
O898 C920 1.264 . S
O899 Eu857 2.339 . S
O899 C920 1.254 . S
O900 Eu857 2.563 . S
O900 C913 1.235 . S
O901 Eu857 2.419 . S
O901 C921 1.249 . S
C902 O891 1.276 . S
C902 O894 1.235 . S
C903 C905 1.393 . S
C903 C907 1.395 . S
C903 C910 1.492 . S
C904 C905 1.392 . S
C904 C906 1.386 . S
C905 C903 1.393 . S
C905 C904 1.392 . S
C905 H922 0.930 . S
C906 C904 1.386 . S
C906 C908 1.395 . S
C906 H923 0.930 . S
C907 C903 1.395 . S
C907 C908 1.379 . S
C907 H924 0.930 . S
C908 C906 1.395 . S
C908 C907 1.379 . S
C908 H925 0.930 . S
C909 O892 1.264 . S
C909 O893 1.254 . S
C910 Eu846 2.848 . S
C910 O890 1.257 . S
C910 O895 1.249 . S
C910 C903 1.492 . S
C911 H876 0.931 . S
C911 C889 1.420 . S
C911 C912 1.351 . S
C912 H874 0.930 . S
C912 C880 1.423 . S
C912 C911 1.351 . S
C913 O897 1.276 . S
C913 O900 1.235 . S
C914 C915 1.393 . S
C914 C918 1.395 . S
C914 C921 1.492 . S
C915 C914 1.393 . S
C915 C916 1.392 . S
C915 H926 0.930 . S
C916 C915 1.392 . S
C916 C917 1.386 . S
C917 C916 1.386 . S
C917 C919 1.395 . S
C917 H927 0.930 . S
C918 C914 1.395 . S
C918 C919 1.379 . S
C918 H928 0.930 . S
C919 C917 1.395 . S
C919 C918 1.379 . S
C919 H929 0.930 . S
C920 O898 1.264 . S
C920 O899 1.254 . S
C921 Eu857 2.848 . S
C921 O896 1.257 . S
C921 O901 1.249 . S
C921 C914 1.492 . S
H922 C905 0.930 . S
H923 C906 0.930 . S
H924 C907 0.930 . S
H925 C908 0.930 . S
H926 C915 0.930 . S
H927 C917 0.930 . S
H928 C918 0.930 . S
H929 C919 0.930 . S
Eu930 N961 2.657 . S
Eu930 N968 2.609 . S
Eu930 O974 2.558 . S
Eu930 O975 2.612 . S
Eu930 O977 2.339 . S
Eu930 O978 2.563 . S
Eu930 O979 2.419 . S
Eu930 O981 2.380 . S
Eu930 O982 2.432 . S
Eu930 C994 2.848 . S
C931 C934 1.429 . S
C931 C935 1.411 . S
C931 N938 1.377 . S
C932 C934 1.420 . S
C932 C936 1.423 . S
C932 C944 1.392 . S
C933 C935 1.420 . S
C933 C936 1.351 . S
C933 H956 0.931 . S
C934 C931 1.429 . S
C934 C932 1.420 . S
C934 N942 1.362 . S
C935 C931 1.411 . S
C935 C933 1.420 . S
C935 C940 1.395 . S
C936 C932 1.423 . S
C936 C933 1.351 . S
C936 H948 0.930 . S
C937 C939 1.400 . S
C937 C940 1.386 . S
C937 H949 0.930 . S
N938 C931 1.377 . S
N938 C939 1.321 . S
N938 Eu941 2.609 . S
C939 C937 1.400 . S
C939 N938 1.321 . S
C939 H946 0.930 . S
C940 C935 1.395 . S
C940 C937 1.386 . S
C940 H959 0.930 . S
Eu941 N938 2.609 . S
Eu941 N942 2.657 . S
Eu941 O975 2.380 . S
Eu941 O976 2.432 . S
Eu941 O980 2.558 . S
Eu941 O981 2.612 . S
Eu941 O983 2.339 . S
Eu941 O984 2.563 . S
Eu941 O985 2.419 . S
Eu941 C1005 2.848 . S
N942 C934 1.362 . S
N942 Eu941 2.657 . S
N942 C943 1.334 . S
C943 N942 1.334 . S
C943 C945 1.413 . S
C943 H950 0.929 . S
C944 C932 1.392 . S
C944 C945 1.367 . S
C944 H952 0.930 . S
C945 C943 1.413 . S
C945 C944 1.367 . S
C945 H947 0.930 . S
H946 C939 0.930 . S
H947 C945 0.930 . S
H948 C936 0.930 . S
H949 C937 0.930 . S
H950 C943 0.929 . S
H951 C965 0.930 . S
H952 C944 0.930 . S
H953 C971 0.930 . S
H954 C962 0.929 . S
H955 C969 0.930 . S
H956 C933 0.931 . S
H957 C963 0.930 . S
H958 C996 0.930 . S
H959 C940 0.930 . S
H960 C995 0.931 . S
N961 Eu930 2.657 . S
N961 C962 1.334 . S
N961 C966 1.362 . S
C962 H954 0.929 . S
C962 N961 1.334 . S
C962 C965 1.413 . S
C963 H957 0.930 . S
C963 C964 1.392 . S
C963 C965 1.367 . S
C964 C963 1.392 . S
C964 C966 1.420 . S
C964 C996 1.423 . S
C965 H951 0.930 . S
C965 C962 1.413 . S
C965 C963 1.367 . S
C966 N961 1.362 . S
C966 C964 1.420 . S
C966 C970 1.429 . S
H967 C972 0.930 . S
N968 Eu930 2.609 . S
N968 C970 1.377 . S
N968 C971 1.321 . S
C969 H955 0.930 . S
C969 C971 1.400 . S
C969 C972 1.386 . S
C970 C966 1.429 . S
C970 N968 1.377 . S
C970 C973 1.411 . S
C971 H953 0.930 . S
C971 N968 1.321 . S
C971 C969 1.400 . S
C972 H967 0.930 . S
C972 C969 1.386 . S
C972 C973 1.395 . S
C973 C970 1.411 . S
C973 C972 1.395 . S
C973 C995 1.420 . S
O974 Eu930 2.558 . S
O974 C994 1.257 . S
O975 Eu930 2.612 . S
O975 Eu941 2.380 . S
O975 C986 1.276 . S
O976 Eu941 2.432 . S
O976 C993 1.264 . S
O977 Eu930 2.339 . S
O977 C993 1.254 . S
O978 Eu930 2.563 . S
O978 C986 1.235 . S
O979 Eu930 2.419 . S
O979 C994 1.249 . S
O980 Eu941 2.558 . S
O980 C1005 1.257 . S
O981 Eu930 2.380 . S
O981 Eu941 2.612 . S
O981 C997 1.276 . S
O982 Eu930 2.432 . S
O982 C1004 1.264 . S
O983 Eu941 2.339 . S
O983 C1004 1.254 . S
O984 Eu941 2.563 . S
O984 C997 1.235 . S
O985 Eu941 2.419 . S
O985 C1005 1.249 . S
C986 O975 1.276 . S
C986 O978 1.235 . S
C987 C989 1.393 . S
C987 C991 1.395 . S
C987 C994 1.492 . S
C988 C989 1.392 . S
C988 C990 1.386 . S
C989 C987 1.393 . S
C989 C988 1.392 . S
C989 H1006 0.930 . S
C990 C988 1.386 . S
C990 C992 1.395 . S
C990 H1007 0.930 . S
C991 C987 1.395 . S
C991 C992 1.379 . S
C991 H1008 0.930 . S
C992 C990 1.395 . S
C992 C991 1.379 . S
C992 H1009 0.930 . S
C993 O976 1.264 . S
C993 O977 1.254 . S
C994 Eu930 2.848 . S
C994 O974 1.257 . S
C994 O979 1.249 . S
C994 C987 1.492 . S
C995 H960 0.931 . S
C995 C973 1.420 . S
C995 C996 1.351 . S
C996 H958 0.930 . S
C996 C964 1.423 . S
C996 C995 1.351 . S
C997 O981 1.276 . S
C997 O984 1.235 . S
C998 C999 1.393 . S
C998 C1002 1.395 . S
C998 C1005 1.492 . S
C999 C998 1.393 . S
C999 C1000 1.392 . S
C999 H1010 0.930 . S
C1000 C999 1.392 . S
C1000 C1001 1.386 . S
C1001 C1000 1.386 . S
C1001 C1003 1.395 . S
C1001 H1011 0.930 . S
C1002 C998 1.395 . S
C1002 C1003 1.379 . S
C1002 H1012 0.930 . S
C1003 C1001 1.395 . S
C1003 C1002 1.379 . S
C1003 H1013 0.930 . S
C1004 O982 1.264 . S
C1004 O983 1.254 . S
C1005 Eu941 2.848 . S
C1005 O980 1.257 . S
C1005 O985 1.249 . S
C1005 C998 1.492 . S
H1006 C989 0.930 . S
H1007 C990 0.930 . S
H1008 C991 0.930 . S
H1009 C992 0.930 . S
H1010 C999 0.930 . S
H1011 C1001 0.930 . S
H1012 C1002 0.930 . S
H1013 C1003 0.930 . S
Eu1014 N1045 2.657 . S
Eu1014 N1052 2.609 . S
Eu1014 O1058 2.558 . S
Eu1014 O1059 2.612 . S
Eu1014 O1061 2.339 . S
Eu1014 O1062 2.563 . S
Eu1014 O1063 2.419 . S
Eu1014 O1065 2.380 . S
Eu1014 O1066 2.432 . S
Eu1014 C1078 2.848 . S
C1015 C1018 1.429 . S
C1015 C1019 1.411 . S
C1015 N1022 1.377 . S
C1016 C1018 1.420 . S
C1016 C1020 1.423 . S
C1016 C1028 1.392 . S
C1017 C1019 1.420 . S
C1017 C1020 1.351 . S
C1017 H1040 0.931 . S
C1018 C1015 1.429 . S
C1018 C1016 1.420 . S
C1018 N1026 1.362 . S
C1019 C1015 1.411 . S
C1019 C1017 1.420 . S
C1019 C1024 1.395 . S
C1020 C1016 1.423 . S
C1020 C1017 1.351 . S
C1020 H1032 0.930 . S
C1021 C1023 1.400 . S
C1021 C1024 1.386 . S
C1021 H1033 0.930 . S
N1022 C1015 1.377 . S
N1022 C1023 1.321 . S
N1022 Eu1025 2.609 . S
C1023 C1021 1.400 . S
C1023 N1022 1.321 . S
C1023 H1030 0.930 . S
C1024 C1019 1.395 . S
C1024 C1021 1.386 . S
C1024 H1043 0.930 . S
Eu1025 N1022 2.609 . S
Eu1025 N1026 2.657 . S
Eu1025 O1059 2.380 . S
Eu1025 O1060 2.432 . S
Eu1025 O1064 2.558 . S
Eu1025 O1065 2.612 . S
Eu1025 O1067 2.339 . S
Eu1025 O1068 2.563 . S
Eu1025 O1069 2.419 . S
Eu1025 C1089 2.848 . S
N1026 C1018 1.362 . S
N1026 Eu1025 2.657 . S
N1026 C1027 1.334 . S
C1027 N1026 1.334 . S
C1027 C1029 1.413 . S
C1027 H1034 0.929 . S
C1028 C1016 1.392 . S
C1028 C1029 1.367 . S
C1028 H1036 0.930 . S
C1029 C1027 1.413 . S
C1029 C1028 1.367 . S
C1029 H1031 0.930 . S
H1030 C1023 0.930 . S
H1031 C1029 0.930 . S
H1032 C1020 0.930 . S
H1033 C1021 0.930 . S
H1034 C1027 0.929 . S
H1035 C1049 0.930 . S
H1036 C1028 0.930 . S
H1037 C1055 0.930 . S
H1038 C1046 0.929 . S
H1039 C1053 0.930 . S
H1040 C1017 0.931 . S
H1041 C1047 0.930 1_455 S
H1042 C1080 0.930 1_455 S
H1043 C1024 0.930 . S
H1044 C1079 0.931 . S
N1045 Eu1014 2.657 . S
N1045 C1046 1.334 . S
N1045 C1050 1.362 . S
C1046 H1038 0.929 . S
C1046 N1045 1.334 . S
C1046 C1049 1.413 . S
C1047 H1041 0.930 1_655 S
C1047 C1048 1.392 . S
C1047 C1049 1.367 . S
C1048 C1047 1.392 . S
C1048 C1050 1.420 . S
C1048 C1080 1.423 . S
C1049 H1035 0.930 . S
C1049 C1046 1.413 . S
C1049 C1047 1.367 . S
C1050 N1045 1.362 . S
C1050 C1048 1.420 . S
C1050 C1054 1.429 . S
H1051 C1056 0.930 . S
N1052 Eu1014 2.609 . S
N1052 C1054 1.377 . S
N1052 C1055 1.321 . S
C1053 H1039 0.930 . S
C1053 C1055 1.400 . S
C1053 C1056 1.386 . S
C1054 C1050 1.429 . S
C1054 N1052 1.377 . S
C1054 C1057 1.411 . S
C1055 H1037 0.930 . S
C1055 N1052 1.321 . S
C1055 C1053 1.400 . S
C1056 H1051 0.930 . S
C1056 C1053 1.386 . S
C1056 C1057 1.395 . S
C1057 C1054 1.411 . S
C1057 C1056 1.395 . S
C1057 C1079 1.420 . S
O1058 Eu1014 2.558 . S
O1058 C1078 1.257 . S
O1059 Eu1014 2.612 . S
O1059 Eu1025 2.380 . S
O1059 C1070 1.276 . S
O1060 Eu1025 2.432 . S
O1060 C1077 1.264 . S
O1061 Eu1014 2.339 . S
O1061 C1077 1.254 . S
O1062 Eu1014 2.563 . S
O1062 C1070 1.235 . S
O1063 Eu1014 2.419 . S
O1063 C1078 1.249 . S
O1064 Eu1025 2.558 . S
O1064 C1089 1.257 . S
O1065 Eu1014 2.380 . S
O1065 Eu1025 2.612 . S
O1065 C1081 1.276 . S
O1066 Eu1014 2.432 . S
O1066 C1088 1.264 . S
O1067 Eu1025 2.339 . S
O1067 C1088 1.254 . S
O1068 Eu1025 2.563 . S
O1068 C1081 1.235 . S
O1069 Eu1025 2.419 . S
O1069 C1089 1.249 . S
C1070 O1059 1.276 . S
C1070 O1062 1.235 . S
C1071 C1073 1.393 . S
C1071 C1075 1.395 . S
C1071 C1078 1.492 . S
C1072 C1073 1.392 . S
C1072 C1074 1.386 . S
C1073 C1071 1.393 . S
C1073 C1072 1.392 . S
C1073 H1090 0.930 . S
C1074 C1072 1.386 . S
C1074 C1076 1.395 . S
C1074 H1091 0.930 . S
C1075 C1071 1.395 . S
C1075 C1076 1.379 . S
C1075 H1092 0.930 . S
C1076 C1074 1.395 . S
C1076 C1075 1.379 . S
C1076 H1093 0.930 . S
C1077 O1060 1.264 . S
C1077 O1061 1.254 . S
C1078 Eu1014 2.848 . S
C1078 O1058 1.257 . S
C1078 O1063 1.249 . S
C1078 C1071 1.492 . S
C1079 H1044 0.931 . S
C1079 C1057 1.420 . S
C1079 C1080 1.351 . S
C1080 H1042 0.930 1_655 S
C1080 C1048 1.423 . S
C1080 C1079 1.351 . S
C1081 O1065 1.276 . S
C1081 O1068 1.235 . S
C1082 C1083 1.393 . S
C1082 C1086 1.395 . S
C1082 C1089 1.492 . S
C1083 C1082 1.393 . S
C1083 C1084 1.392 . S
C1083 H1094 0.930 . S
C1084 C1083 1.392 . S
C1084 C1085 1.386 . S
C1085 C1084 1.386 . S
C1085 C1087 1.395 . S
C1085 H1095 0.930 . S
C1086 C1082 1.395 . S
C1086 C1087 1.379 . S
C1086 H1096 0.930 . S
C1087 C1085 1.395 . S
C1087 C1086 1.379 . S
C1087 H1097 0.930 . S
C1088 O1066 1.264 . S
C1088 O1067 1.254 . S
C1089 Eu1025 2.848 . S
C1089 O1064 1.257 . S
C1089 O1069 1.249 . S
C1089 C1082 1.492 . S
H1090 C1073 0.930 . S
H1091 C1074 0.930 . S
H1092 C1075 0.930 . S
H1093 C1076 0.930 . S
H1094 C1083 0.930 . S
H1095 C1085 0.930 . S
H1096 C1086 0.930 . S
H1097 C1087 0.930 . S
C1098 C1099 1.391 . S
C1098 C1100 1.394 . S
C1098 H1114 0.931 . S
C1099 C1098 1.391 . S
C1099 C1103 1.376 . S
C1100 C1098 1.394 . S
C1100 C1101 1.369 . S
C1100 C1104 1.531 . S
C1101 C1100 1.369 . S
C1101 C1102 1.410 . S
C1101 C1109 1.503 . S
C1102 C1101 1.410 . S
C1102 C1103 1.392 . S
C1102 C1105 1.511 . S
C1103 C1099 1.376 . S
C1103 C1102 1.392 . S
C1103 H1115 0.929 . S
C1104 C1100 1.531 . S
C1104 H1116 0.960 . S
C1104 H1117 0.962 . S
C1104 H1118 0.960 . S
C1105 C1102 1.511 . S
C1105 H1119 0.961 . S
C1105 H1120 0.961 . S
C1105 H1121 0.961 . S
C1106 C1107 1.370 . S
C1106 C1108 1.363 . S
C1106 H1122 0.931 1_554 S
C1107 C1106 1.370 . S
C1107 C1111 1.408 . S
C1108 C1106 1.363 . S
C1108 C1109 1.370 . S
C1108 C1112 1.524 . S
C1109 C1101 1.503 . S
C1109 C1108 1.370 . S
C1109 C1110 1.403 . S
C1110 C1109 1.403 . S
C1110 C1111 1.404 . S
C1110 C1113 1.539 . S
C1111 C1107 1.408 . S
C1111 C1110 1.404 . S
C1111 H1123 0.930 . S
C1112 C1108 1.524 . S
C1112 H1124 0.956 . S
C1112 H1125 0.961 . S
C1112 H1126 0.961 1_554 S
C1113 C1110 1.539 . S
C1113 H1127 0.958 . S
C1113 H1128 0.961 . S
C1113 H1129 0.960 . S
H1114 C1098 0.931 . S
H1115 C1103 0.929 . S
H1116 C1104 0.960 . S
H1117 C1104 0.962 . S
H1118 C1104 0.960 . S
H1119 C1105 0.961 . S
H1120 C1105 0.961 . S
H1121 C1105 0.961 . S
H1122 C1106 0.931 1_556 S
H1123 C1111 0.930 . S
H1124 C1112 0.956 . S
H1125 C1112 0.961 . S
H1126 C1112 0.961 1_556 S
H1127 C1113 0.958 . S
H1128 C1113 0.961 . S
H1129 C1113 0.960 . S
C1130 C1131 1.391 . S
C1130 C1132 1.394 . S
C1130 H1146 0.931 . S
C1131 C1130 1.391 . S
C1131 C1135 1.376 . S
C1132 C1130 1.394 . S
C1132 C1133 1.369 . S
C1132 C1136 1.531 . S
C1133 C1132 1.369 . S
C1133 C1134 1.410 . S
C1133 C1141 1.503 . S
C1134 C1133 1.410 . S
C1134 C1135 1.392 . S
C1134 C1137 1.511 . S
C1135 C1131 1.376 . S
C1135 C1134 1.392 . S
C1135 H1147 0.929 . S
C1136 C1132 1.531 . S
C1136 H1148 0.960 . S
C1136 H1149 0.962 . S
C1136 H1150 0.960 . S
C1137 C1134 1.511 . S
C1137 H1151 0.961 . S
C1137 H1152 0.961 . S
C1137 H1153 0.961 . S
C1138 C1139 1.370 . S
C1138 C1140 1.363 . S
C1138 H1154 0.931 . S
C1139 C1138 1.370 . S
C1139 C1143 1.408 . S
C1140 C1138 1.363 . S
C1140 C1141 1.370 . S
C1140 C1144 1.524 . S
C1141 C1133 1.503 . S
C1141 C1140 1.370 . S
C1141 C1142 1.403 . S
C1142 C1141 1.403 . S
C1142 C1143 1.404 . S
C1142 C1145 1.539 . S
C1143 C1139 1.408 . S
C1143 C1142 1.404 . S
C1143 H1155 0.930 . S
C1144 C1140 1.524 . S
C1144 H1156 0.956 . S
C1144 H1157 0.961 . S
C1144 H1158 0.975 . S
C1145 C1142 1.539 . S
C1145 H1159 0.958 . S
C1145 H1160 0.961 . S
C1145 H1161 0.960 . S
H1146 C1130 0.931 . S
H1147 C1135 0.929 . S
H1148 C1136 0.960 . S
H1149 C1136 0.962 . S
H1150 C1136 0.960 . S
H1151 C1137 0.961 . S
H1152 C1137 0.961 . S
H1153 C1137 0.961 . S
H1154 C1138 0.931 . S
H1155 C1143 0.930 . S
H1156 C1144 0.956 . S
H1157 C1144 0.961 . S
H1158 C1144 0.975 . S
H1159 C1145 0.958 . S
H1160 C1145 0.961 . S
H1161 C1145 0.960 . S
C1162 C1163 1.391 . S
C1162 C1164 1.394 . S
C1162 H1178 0.931 . S
C1163 C1162 1.391 . S
C1163 C1167 1.376 . S
C1164 C1162 1.394 . S
C1164 C1165 1.369 . S
C1164 C1168 1.531 . S
C1165 C1164 1.369 . S
C1165 C1166 1.410 . S
C1165 C1173 1.503 . S
C1166 C1165 1.410 . S
C1166 C1167 1.392 . S
C1166 C1169 1.527 . S
C1167 C1163 1.376 . S
C1167 C1166 1.392 . S
C1167 H1179 0.929 . S
C1168 C1164 1.531 . S
C1168 H1180 0.960 . S
C1168 H1181 0.962 . S
C1168 H1182 0.960 . S
C1169 C1166 1.527 . S
C1169 H1183 0.951 1_554 S
C1169 H1184 0.959 1_554 S
C1169 H1185 0.958 1_554 S
C1170 C1171 1.370 . S
C1170 C1172 1.363 . S
C1170 H1186 0.931 . S
C1171 C1170 1.370 . S
C1171 C1175 1.408 . S
C1172 C1170 1.363 . S
C1172 C1173 1.370 . S
C1172 C1176 1.524 . S
C1173 C1165 1.503 . S
C1173 C1172 1.370 . S
C1173 C1174 1.403 . S
C1174 C1173 1.403 . S
C1174 C1175 1.404 . S
C1174 C1177 1.539 . S
C1175 C1171 1.408 . S
C1175 C1174 1.404 . S
C1175 H1187 0.930 . S
C1176 C1172 1.524 . S
C1176 H1188 0.956 . S
C1176 H1189 0.961 . S
C1176 H1190 0.961 . S
C1177 C1174 1.539 . S
C1177 H1191 0.958 . S
C1177 H1192 0.961 . S
C1177 H1193 0.960 . S
H1178 C1162 0.931 . S
H1179 C1167 0.929 . S
H1180 C1168 0.960 . S
H1181 C1168 0.962 . S
H1182 C1168 0.960 . S
H1183 C1169 0.951 1_556 S
H1184 C1169 0.959 1_556 S
H1185 C1169 0.958 1_556 S
H1186 C1170 0.931 . S
H1187 C1175 0.930 . S
H1188 C1176 0.956 . S
H1189 C1176 0.961 . S
H1190 C1176 0.961 . S
H1191 C1177 0.958 . S
H1192 C1177 0.961 . S
H1193 C1177 0.960 . S
C1194 C1195 1.391 . S
C1194 C1196 1.394 . S
C1194 H1210 0.931 . S
C1195 C1194 1.391 . S
C1195 C1199 1.376 . S
C1196 C1194 1.394 . S
C1196 C1197 1.369 . S
C1196 C1200 1.531 . S
C1197 C1196 1.369 . S
C1197 C1198 1.410 . S
C1197 C1205 1.503 . S
C1198 C1197 1.410 . S
C1198 C1199 1.392 . S
C1198 C1201 1.511 . S
C1199 C1195 1.376 . S
C1199 C1198 1.392 . S
C1199 H1211 0.929 . S
C1200 C1196 1.531 . S
C1200 H1212 0.960 . S
C1200 H1213 0.962 . S
C1200 H1214 0.960 . S
C1201 C1198 1.511 . S
C1201 H1215 0.961 . S
C1201 H1216 0.961 . S
C1201 H1217 0.961 . S
C1202 C1203 1.370 1_554 S
C1202 C1204 1.363 . S
C1202 H1218 0.931 . S
C1203 C1202 1.370 1_556 S
C1203 C1207 1.408 . S
C1204 C1202 1.363 . S
C1204 C1205 1.370 1_554 S
C1204 C1208 1.524 . S
C1205 C1197 1.503 . S
C1205 C1204 1.370 1_556 S
C1205 C1206 1.403 . S
C1206 C1205 1.403 . S
C1206 C1207 1.404 . S
C1206 C1209 1.539 . S
C1207 C1203 1.408 . S
C1207 C1206 1.404 . S
C1207 H1219 0.930 . S
C1208 C1204 1.524 . S
C1208 H1220 0.956 . S
C1208 H1221 0.961 . S
C1208 H1222 0.961 . S
C1209 C1206 1.539 . S
C1209 H1223 0.958 . S
C1209 H1224 0.961 . S
C1209 H1225 0.960 . S
H1210 C1194 0.931 . S
H1211 C1199 0.929 . S
H1212 C1200 0.960 . S
H1213 C1200 0.962 . S
H1214 C1200 0.960 . S
H1215 C1201 0.961 . S
H1216 C1201 0.961 . S
H1217 C1201 0.961 . S
H1218 C1202 0.931 . S
H1219 C1207 0.930 . S
H1220 C1208 0.956 . S
H1221 C1208 0.961 . S
H1222 C1208 0.961 . S
H1223 C1209 0.958 . S
H1224 C1209 0.961 . S
H1225 C1209 0.960 . S
C1226 C1227 1.391 . S
C1226 C1228 1.394 . S
C1226 H1242 0.931 . S
C1227 C1226 1.391 . S
C1227 C1231 1.376 . S
C1228 C1226 1.394 . S
C1228 C1229 1.369 . S
C1228 C1232 1.531 . S
C1229 C1228 1.369 . S
C1229 C1230 1.410 . S
C1229 C1237 1.503 . S
C1230 C1229 1.410 . S
C1230 C1231 1.392 . S
C1230 C1233 1.511 1_556 S
C1231 C1227 1.376 . S
C1231 C1230 1.392 . S
C1231 H1243 0.929 . S
C1232 C1228 1.531 . S
C1232 H1244 0.960 . S
C1232 H1245 0.962 . S
C1232 H1246 0.960 . S
C1233 C1230 1.511 1_554 S
C1233 H1247 0.961 . S
C1233 H1248 0.961 . S
C1233 H1249 0.961 . S
C1234 C1235 1.370 . S
C1234 C1236 1.363 . S
C1234 H1250 0.931 . S
C1235 C1234 1.370 . S
C1235 C1239 1.408 . S
C1236 C1234 1.363 . S
C1236 C1237 1.370 . S
C1236 C1240 1.524 . S
C1237 C1229 1.503 . S
C1237 C1236 1.370 . S
C1237 C1238 1.403 . S
C1238 C1237 1.403 . S
C1238 C1239 1.404 . S
C1238 C1241 1.539 . S
C1239 C1235 1.408 . S
C1239 C1238 1.404 . S
C1239 H1251 0.930 . S
C1240 C1236 1.524 . S
C1240 H1252 0.956 . S
C1240 H1253 0.961 . S
C1240 H1254 0.961 . S
C1241 C1238 1.539 . S
C1241 H1255 0.958 . S
C1241 H1256 0.961 . S
C1241 H1257 0.960 . S
H1242 C1226 0.931 . S
H1243 C1231 0.929 . S
H1244 C1232 0.960 . S
H1245 C1232 0.962 . S
H1246 C1232 0.960 . S
H1247 C1233 0.961 . S
H1248 C1233 0.961 . S
H1249 C1233 0.961 . S
H1250 C1234 0.931 . S
H1251 C1239 0.930 . S
H1252 C1240 0.956 . S
H1253 C1240 0.961 . S
H1254 C1240 0.961 . S
H1255 C1241 0.958 . S
H1256 C1241 0.961 . S
H1257 C1241 0.960 . S
C1258 C1259 1.391 . S
C1258 C1260 1.394 . S
C1258 H1274 0.931 . S
C1259 C1258 1.391 . S
C1259 C1263 1.376 . S
C1260 C1258 1.394 . S
C1260 C1261 1.369 . S
C1260 C1264 1.531 . S
C1261 C1260 1.369 . S
C1261 C1262 1.410 . S
C1261 C1269 1.503 . S
C1262 C1261 1.410 . S
C1262 C1263 1.392 . S
C1262 C1265 1.511 1_556 S
C1263 C1259 1.376 . S
C1263 C1262 1.392 . S
C1263 H1275 0.929 . S
C1264 C1260 1.531 . S
C1264 H1276 0.960 . S
C1264 H1277 0.962 . S
C1264 H1278 0.960 . S
C1265 C1262 1.511 1_554 S
C1265 H1279 0.961 . S
C1265 H1280 0.961 . S
C1265 H1281 0.936 1_554 S
C1266 C1267 1.370 1_554 S
C1266 C1268 1.363 . S
C1266 H1282 0.931 . S
C1267 C1266 1.370 1_556 S
C1267 C1271 1.408 . S
C1268 C1266 1.363 . S
C1268 C1269 1.370 1_554 S
C1268 C1272 1.524 . S
C1269 C1261 1.503 . S
C1269 C1268 1.370 1_556 S
C1269 C1270 1.403 . S
C1270 C1269 1.403 . S
C1270 C1271 1.404 . S
C1270 C1273 1.539 . S
C1271 C1267 1.408 . S
C1271 C1270 1.404 . S
C1271 H1283 0.930 . S
C1272 C1268 1.524 . S
C1272 H1284 0.956 . S
C1272 H1285 0.961 . S
C1272 H1286 0.961 . S
C1273 C1270 1.539 . S
C1273 H1287 0.958 . S
C1273 H1288 0.961 . S
C1273 H1289 0.960 . S
H1274 C1258 0.931 . S
H1275 C1263 0.929 . S
H1276 C1264 0.960 . S
H1277 C1264 0.962 . S
H1278 C1264 0.960 . S
H1279 C1265 0.961 . S
H1280 C1265 0.961 . S
H1281 C1265 0.936 1_556 S
H1282 C1266 0.931 . S
H1283 C1271 0.930 . S
H1284 C1272 0.956 . S
H1285 C1272 0.961 . S
H1286 C1272 0.961 . S
H1287 C1273 0.958 . S
H1288 C1273 0.961 . S
H1289 C1273 0.960 . S
C1290 C1291 1.391 . S
C1290 C1292 1.394 . S
C1290 H1306 0.931 . S
C1291 C1290 1.391 . S
C1291 C1295 1.376 . S
C1292 C1290 1.394 . S
C1292 C1293 1.369 . S
C1292 C1296 1.531 . S
C1293 C1292 1.369 . S
C1293 C1294 1.410 . S
C1293 C1301 1.503 . S
C1294 C1293 1.410 . S
C1294 C1295 1.392 . S
C1294 C1297 1.511 . S
C1295 C1291 1.376 . S
C1295 C1294 1.392 . S
C1295 H1307 0.929 . S
C1296 C1292 1.531 . S
C1296 H1308 0.960 . S
C1296 H1309 0.962 1_556 S
C1296 H1310 0.960 . S
C1297 C1294 1.511 . S
C1297 H1311 0.961 . S
C1297 H1312 0.961 . S
C1297 H1313 0.961 . S
C1298 C1299 1.370 1_554 S
C1298 C1300 1.363 . S
C1298 H1314 0.931 . S
C1299 C1298 1.370 1_556 S
C1299 C1303 1.408 . S
C1300 C1298 1.363 . S
C1300 C1301 1.370 1_554 S
C1300 C1304 1.524 . S
C1301 C1293 1.503 . S
C1301 C1300 1.370 1_556 S
C1301 C1302 1.403 . S
C1302 C1301 1.403 . S
C1302 C1303 1.404 . S
C1302 C1305 1.539 . S
C1303 C1299 1.408 . S
C1303 C1302 1.404 . S
C1303 H1315 0.930 . S
C1304 C1300 1.524 . S
C1304 H1316 0.956 . S
C1304 H1317 0.961 . S
C1304 H1318 0.961 . S
C1305 C1302 1.539 . S
C1305 H1319 0.958 . S
C1305 H1320 0.961 . S
C1305 H1321 0.960 . S
H1306 C1290 0.931 . S
H1307 C1295 0.929 . S
H1308 C1296 0.960 . S
H1309 C1296 0.962 1_554 S
H1310 C1296 0.960 . S
H1311 C1297 0.961 . S
H1312 C1297 0.961 . S
H1313 C1297 0.961 . S
H1314 C1298 0.931 . S
H1315 C1303 0.930 . S
H1316 C1304 0.956 . S
H1317 C1304 0.961 . S
H1318 C1304 0.961 . S
H1319 C1305 0.958 . S
H1320 C1305 0.961 . S
H1321 C1305 0.960 . S
C1322 C1323 1.391 . S
C1322 C1324 1.394 . S
C1322 H1338 0.931 . S
C1323 C1322 1.391 . S
C1323 C1327 1.376 . S
C1324 C1322 1.394 . S
C1324 C1325 1.369 . S
C1324 C1328 1.531 . S
C1325 C1324 1.369 . S
C1325 C1326 1.410 . S
C1325 C1333 1.503 . S
C1326 C1325 1.410 . S
C1326 C1327 1.392 . S
C1326 C1329 1.511 . S
C1327 C1323 1.376 . S
C1327 C1326 1.392 . S
C1327 H1339 0.929 . S
C1328 C1324 1.531 . S
C1328 H1340 0.960 . S
C1328 H1341 0.962 . S
C1328 H1342 0.960 . S
C1329 C1326 1.511 . S
C1329 H1343 0.961 . S
C1329 H1344 0.961 . S
C1329 H1345 0.961 . S
C1330 C1331 1.370 1_554 S
C1330 C1332 1.363 . S
C1330 H1346 0.931 . S
C1331 C1330 1.370 1_556 S
C1331 C1335 1.408 . S
C1332 C1330 1.363 . S
C1332 C1333 1.370 1_554 S
C1332 C1336 1.524 . S
C1333 C1325 1.503 . S
C1333 C1332 1.370 1_556 S
C1333 C1334 1.403 . S
C1334 C1333 1.403 . S
C1334 C1335 1.404 . S
C1334 C1337 1.539 . S
C1335 C1331 1.408 . S
C1335 C1334 1.404 . S
C1335 H1347 0.930 . S
C1336 C1332 1.524 . S
C1336 H1348 0.956 . S
C1336 H1349 0.961 . S
C1336 H1350 0.961 . S
C1337 C1334 1.539 . S
C1337 H1351 0.958 . S
C1337 H1352 0.961 . S
C1337 H1353 0.960 . S
H1338 C1322 0.931 . S
H1339 C1327 0.929 . S
H1340 C1328 0.960 . S
H1341 C1328 0.962 . S
H1342 C1328 0.960 . S
H1343 C1329 0.961 . S
H1344 C1329 0.961 . S
H1345 C1329 0.961 . S
H1346 C1330 0.931 . S
H1347 C1335 0.930 . S
H1348 C1336 0.956 . S
H1349 C1336 0.961 . S
H1350 C1336 0.961 . S
H1351 C1337 0.958 . S
H1352 C1337 0.961 . S
H1353 C1337 0.960 . S
C1354 C1355 1.391 . S
C1354 C1356 1.394 . S
C1354 H1370 0.931 . S
C1355 C1354 1.391 . S
C1355 C1359 1.376 . S
C1356 C1354 1.394 . S
C1356 C1357 1.369 . S
C1356 C1360 1.531 . S
C1357 C1356 1.369 . S
C1357 C1358 1.410 . S
C1357 C1365 1.503 . S
C1358 C1357 1.410 . S
C1358 C1359 1.392 . S
C1358 C1361 1.511 . S
C1359 C1355 1.376 . S
C1359 C1358 1.392 . S
C1359 H1371 0.929 . S
C1360 C1356 1.531 . S
C1360 H1372 0.960 1_556 S
C1360 H1373 0.962 . S
C1360 H1374 0.960 1_556 S
C1361 C1358 1.511 . S
C1361 H1375 0.961 . S
C1361 H1376 0.961 . S
C1361 H1377 0.961 1_556 S
C1362 C1363 1.344 1_556 S
C1362 C1364 1.363 . S
C1362 H1378 0.931 . S
C1363 C1362 1.344 1_554 S
C1363 C1367 1.434 . S
C1364 C1362 1.363 . S
C1364 C1365 1.370 . S
C1364 C1368 1.524 . S
C1365 C1357 1.503 . S
C1365 C1364 1.370 . S
C1365 C1366 1.403 1_556 S
C1366 C1365 1.403 1_554 S
C1366 C1367 1.404 . S
C1366 C1369 1.539 . S
C1367 C1363 1.434 . S
C1367 C1366 1.404 . S
C1367 H1379 0.930 . S
C1368 C1364 1.524 . S
C1368 H1380 0.956 . S
C1368 H1381 0.961 . S
C1368 H1382 0.961 . S
C1369 C1366 1.539 . S
C1369 H1383 0.958 . S
C1369 H1384 0.961 . S
C1369 H1385 0.960 . S
H1370 C1354 0.931 . S
H1371 C1359 0.929 . S
H1372 C1360 0.960 1_554 S
H1373 C1360 0.962 . S
H1374 C1360 0.960 1_554 S
H1375 C1361 0.961 . S
H1376 C1361 0.961 . S
H1377 C1361 0.961 1_554 S
H1378 C1362 0.931 . S
H1379 C1367 0.930 . S
H1380 C1368 0.956 . S
H1381 C1368 0.961 . S
H1382 C1368 0.961 . S
H1383 C1369 0.958 . S
H1384 C1369 0.961 . S
H1385 C1369 0.960 . S
C1386 C1387 1.391 . S
C1386 C1388 1.394 . S
C1386 H1402 0.931 . S
C1387 C1386 1.391 . S
C1387 C1391 1.376 . S
C1388 C1386 1.394 . S
C1388 C1389 1.369 . S
C1388 C1392 1.531 . S
C1389 C1388 1.369 . S
C1389 C1390 1.410 . S
C1389 C1397 1.503 . S
C1390 C1389 1.410 . S
C1390 C1391 1.392 . S
C1390 C1393 1.511 . S
C1391 C1387 1.376 . S
C1391 C1390 1.392 . S
C1391 H1403 0.929 . S
C1392 C1388 1.531 . S
C1392 H1404 0.960 . S
C1392 H1405 0.962 . S
C1392 H1406 0.960 . S
C1393 C1390 1.511 . S
C1393 H1407 0.961 . S
C1393 H1408 0.961 . S
C1393 H1409 0.961 . S
C1394 C1395 1.370 . S
C1394 C1396 1.363 . S
C1394 H1410 0.931 . S
C1395 C1394 1.370 . S
C1395 C1399 1.408 . S
C1396 C1394 1.363 . S
C1396 C1397 1.370 . S
C1396 C1400 1.524 . S
C1397 C1389 1.503 . S
C1397 C1396 1.370 . S
C1397 C1398 1.403 . S
C1398 C1397 1.403 . S
C1398 C1399 1.404 . S
C1398 C1401 1.539 1_554 S
C1399 C1395 1.408 . S
C1399 C1398 1.404 . S
C1399 H1411 0.930 1_554 S
C1400 C1396 1.524 . S
C1400 H1412 0.956 . S
C1400 H1413 0.961 . S
C1400 H1414 0.961 . S
C1401 C1398 1.539 1_556 S
C1401 H1415 0.958 . S
C1401 H1416 0.961 . S
C1401 H1417 0.960 . S
H1402 C1386 0.931 . S
H1403 C1391 0.929 . S
H1404 C1392 0.960 . S
H1405 C1392 0.962 . S
H1406 C1392 0.960 . S
H1407 C1393 0.961 . S
H1408 C1393 0.961 . S
H1409 C1393 0.961 . S
H1410 C1394 0.931 . S
H1411 C1399 0.930 1_556 S
H1412 C1400 0.956 . S
H1413 C1400 0.961 . S
H1414 C1400 0.961 . S
H1415 C1401 0.958 . S
H1416 C1401 0.961 . S
H1417 C1401 0.960 . S
C1418 C1419 1.391 . S
C1418 C1420 1.394 . S
C1418 H1434 0.931 . S
C1419 C1418 1.391 . S
C1419 C1423 1.376 . S
C1420 C1418 1.394 . S
C1420 C1421 1.369 . S
C1420 C1424 1.531 . S
C1421 C1420 1.369 . S
C1421 C1422 1.410 . S
C1421 C1429 1.503 . S
C1422 C1421 1.410 . S
C1422 C1423 1.392 . S
C1422 C1425 1.511 . S
C1423 C1419 1.376 . S
C1423 C1422 1.392 . S
C1423 H1435 0.929 . S
C1424 C1420 1.531 . S
C1424 H1436 0.960 . S
C1424 H1437 0.962 . S
C1424 H1438 0.960 . S
C1425 C1422 1.511 . S
C1425 H1439 0.961 . S
C1425 H1440 0.961 . S
C1425 H1441 0.961 . S
C1426 C1427 1.370 . S
C1426 C1428 1.363 . S
C1426 H1442 0.931 . S
C1427 C1426 1.370 . S
C1427 C1431 1.408 . S
C1428 C1426 1.363 . S
C1428 C1429 1.370 . S
C1428 C1432 1.524 . S
C1429 C1421 1.503 . S
C1429 C1428 1.370 . S
C1429 C1430 1.403 . S
C1430 C1429 1.403 . S
C1430 C1431 1.404 . S
C1430 C1433 1.539 1_554 S
C1431 C1427 1.408 . S
C1431 C1430 1.404 . S
C1431 H1443 0.930 1_554 S
C1432 C1428 1.524 . S
C1432 H1444 0.956 . S
C1432 H1445 0.961 . S
C1432 H1446 0.961 . S
C1433 C1430 1.539 1_556 S
C1433 H1447 0.958 . S
C1433 H1448 0.961 . S
C1433 H1449 0.960 . S
H1434 C1418 0.931 . S
H1435 C1423 0.929 . S
H1436 C1424 0.960 . S
H1437 C1424 0.962 . S
H1438 C1424 0.960 . S
H1439 C1425 0.961 . S
H1440 C1425 0.961 . S
H1441 C1425 0.961 . S
H1442 C1426 0.931 . S
H1443 C1431 0.930 1_556 S
H1444 C1432 0.956 . S
H1445 C1432 0.961 . S
H1446 C1432 0.961 . S
H1447 C1433 0.958 . S
H1448 C1433 0.961 . S
H1449 C1433 0.960 . S
C1450 C1451 1.391 . S
C1450 C1452 1.394 . S
C1450 H1466 0.931 . S
C1451 C1450 1.391 . S
C1451 C1455 1.376 . S
C1452 C1450 1.394 . S
C1452 C1453 1.369 . S
C1452 C1456 1.531 . S
C1453 C1452 1.369 . S
C1453 C1454 1.410 . S
C1453 C1461 1.503 . S
C1454 C1453 1.410 . S
C1454 C1455 1.392 . S
C1454 C1457 1.511 . S
C1455 C1451 1.376 . S
C1455 C1454 1.392 . S
C1455 H1467 0.929 . S
C1456 C1452 1.531 . S
C1456 H1468 0.960 . S
C1456 H1469 0.962 . S
C1456 H1470 0.960 . S
C1457 C1454 1.511 . S
C1457 H1471 0.961 . S
C1457 H1472 0.961 . S
C1457 H1473 0.968 . S
C1458 C1459 1.370 . S
C1458 C1460 1.363 . S
C1458 H1474 0.931 . S
C1459 C1458 1.370 . S
C1459 C1463 1.408 . S
C1460 C1458 1.363 . S
C1460 C1461 1.370 . S
C1460 C1464 1.524 . S
C1461 C1453 1.503 . S
C1461 C1460 1.370 . S
C1461 C1462 1.403 . S
C1462 C1461 1.403 . S
C1462 C1463 1.404 . S
C1462 C1465 1.539 1_554 S
C1463 C1459 1.408 . S
C1463 C1462 1.404 . S
C1463 H1475 0.930 1_554 S
C1464 C1460 1.524 . S
C1464 H1476 0.956 . S
C1464 H1477 0.961 . S
C1464 H1478 0.961 . S
C1465 C1462 1.539 1_556 S
C1465 H1479 0.958 . S
C1465 H1480 0.961 . S
C1465 H1481 0.960 . S
H1466 C1450 0.931 . S
H1467 C1455 0.929 . S
H1468 C1456 0.960 . S
H1469 C1456 0.962 . S
H1470 C1456 0.960 . S
H1471 C1457 0.961 . S
H1472 C1457 0.961 . S
H1473 C1457 0.968 . S
H1474 C1458 0.931 . S
H1475 C1463 0.930 1_556 S
H1476 C1464 0.956 . S
H1477 C1464 0.961 . S
H1478 C1464 0.961 . S
H1479 C1465 0.958 . S
H1480 C1465 0.961 . S
H1481 C1465 0.960 . S
C1482 C1483 1.391 . S
C1482 C1484 1.394 . S
C1482 H1498 0.931 . S
C1483 C1482 1.391 . S
C1483 C1487 1.376 . S
C1484 C1482 1.394 . S
C1484 C1485 1.369 . S
C1484 C1488 1.531 1_655 S
C1485 C1484 1.369 . S
C1485 C1486 1.410 . S
C1485 C1493 1.503 1_655 S
C1486 C1485 1.410 . S
C1486 C1487 1.392 . S
C1486 C1489 1.511 . S
C1487 C1483 1.376 . S
C1487 C1486 1.392 . S
C1487 H1499 0.929 . S
C1488 C1484 1.531 1_455 S
C1488 H1500 0.960 . S
C1488 H1501 0.962 . S
C1488 H1502 0.960 . S
C1489 C1486 1.511 . S
C1489 H1503 0.961 . S
C1489 H1504 0.961 . S
C1489 H1505 0.961 . S
C1490 C1491 1.370 . S
C1490 C1492 1.363 . S
C1490 H1506 0.931 . S
C1491 C1490 1.370 . S
C1491 C1495 1.408 . S
C1492 C1490 1.363 . S
C1492 C1493 1.370 . S
C1492 C1496 1.524 . S
C1493 C1485 1.503 1_455 S
C1493 C1492 1.370 . S
C1493 C1494 1.403 . S
C1494 C1493 1.403 . S
C1494 C1495 1.404 . S
C1494 C1497 1.539 1_455 S
C1495 C1491 1.408 . S
C1495 C1494 1.404 . S
C1495 H1507 0.930 . S
C1496 C1492 1.524 . S
C1496 H1508 0.956 . S
C1496 H1509 0.961 . S
C1496 H1510 0.961 . S
C1497 C1494 1.539 1_655 S
C1497 H1511 0.958 . S
C1497 H1512 0.961 . S
C1497 H1513 0.960 . S
H1498 C1482 0.931 . S
H1499 C1487 0.929 . S
H1500 C1488 0.960 . S
H1501 C1488 0.962 . S
H1502 C1488 0.960 . S
H1503 C1489 0.961 . S
H1504 C1489 0.961 . S
H1505 C1489 0.961 . S
H1506 C1490 0.931 . S
H1507 C1495 0.930 . S
H1508 C1496 0.956 . S
H1509 C1496 0.961 . S
H1510 C1496 0.961 . S
H1511 C1497 0.958 . S
H1512 C1497 0.961 . S
H1513 C1497 0.960 . S
C1514 C1515 1.391 . S
C1514 C1516 1.394 . S
C1514 H1530 0.931 . S
C1515 C1514 1.391 . S
C1515 C1519 1.376 . S
C1516 C1514 1.394 . S
C1516 C1517 1.369 . S
C1516 C1520 1.531 . S
C1517 C1516 1.369 . S
C1517 C1518 1.410 . S
C1517 C1525 1.503 . S
C1518 C1517 1.410 . S
C1518 C1519 1.392 . S
C1518 C1521 1.511 . S
C1519 C1515 1.376 . S
C1519 C1518 1.392 . S
C1519 H1531 0.929 . S
C1520 C1516 1.531 . S
C1520 H1532 0.960 . S
C1520 H1533 0.962 . S
C1520 H1534 0.960 . S
C1521 C1518 1.511 . S
C1521 H1535 0.961 . S
C1521 H1536 0.961 . S
C1521 H1537 0.961 . S
C1522 C1523 1.370 . S
C1522 C1524 1.363 . S
C1522 H1538 0.931 . S
C1523 C1522 1.370 . S
C1523 C1527 1.408 . S
C1524 C1522 1.363 . S
C1524 C1525 1.370 . S
C1524 C1528 1.524 . S
C1525 C1517 1.503 . S
C1525 C1524 1.370 . S
C1525 C1526 1.403 . S
C1526 C1525 1.403 . S
C1526 C1527 1.404 . S
C1526 C1529 1.539 . S
C1527 C1523 1.408 . S
C1527 C1526 1.404 . S
C1527 H1539 0.930 . S
C1528 C1524 1.524 . S
C1528 H1540 0.956 . S
C1528 H1541 0.961 . S
C1528 H1542 0.961 . S
C1529 C1526 1.539 . S
C1529 H1543 0.958 . S
C1529 H1544 0.961 . S
C1529 H1545 0.960 . S
H1530 C1514 0.931 . S
H1531 C1519 0.929 . S
H1532 C1520 0.960 . S
H1533 C1520 0.962 . S
H1534 C1520 0.960 . S
H1535 C1521 0.961 . S
H1536 C1521 0.961 . S
H1537 C1521 0.961 . S
H1538 C1522 0.931 . S
H1539 C1527 0.930 . S
H1540 C1528 0.956 . S
H1541 C1528 0.961 . S
H1542 C1528 0.961 . S
H1543 C1529 0.958 . S
H1544 C1529 0.961 . S
H1545 C1529 0.960 . S
C1546 C1547 1.391 . S
C1546 C1548 1.394 . S
C1546 H1562 0.931 . S
C1547 C1546 1.391 . S
C1547 C1551 1.376 . S
C1548 C1546 1.394 . S
C1548 C1549 1.369 . S
C1548 C1552 1.531 1_545 S
C1549 C1548 1.369 . S
C1549 C1550 1.410 . S
C1549 C1557 1.503 1_545 S
C1550 C1549 1.410 . S
C1550 C1551 1.392 . S
C1550 C1553 1.511 . S
C1551 C1547 1.376 . S
C1551 C1550 1.392 . S
C1551 H1563 0.929 . S
C1552 C1548 1.531 1_565 S
C1552 H1564 0.960 . S
C1552 H1565 0.962 . S
C1552 H1566 0.960 1_565 S
C1553 C1550 1.511 . S
C1553 H1567 0.961 . S
C1553 H1568 0.961 . S
C1553 H1569 0.961 . S
C1554 C1555 1.370 . S
C1554 C1556 1.363 . S
C1554 H1570 0.931 . S
C1555 C1554 1.370 . S
C1555 C1559 1.408 . S
C1556 C1554 1.363 . S
C1556 C1557 1.370 . S
C1556 C1560 1.524 . S
C1557 C1549 1.503 1_565 S
C1557 C1556 1.370 . S
C1557 C1558 1.403 . S
C1558 C1557 1.403 . S
C1558 C1559 1.404 . S
C1558 C1561 1.539 1_565 S
C1559 C1555 1.408 . S
C1559 C1558 1.404 . S
C1559 H1571 0.930 . S
C1560 C1556 1.524 . S
C1560 H1572 0.956 . S
C1560 H1573 0.942 1_565 S
C1560 H1574 0.961 . S
C1561 C1558 1.539 1_545 S
C1561 H1575 0.958 . S
C1561 H1576 0.961 . S
C1561 H1577 0.960 . S
H1562 C1546 0.931 . S
H1563 C1551 0.929 . S
H1564 C1552 0.960 . S
H1565 C1552 0.962 . S
H1566 C1552 0.960 1_545 S
H1567 C1553 0.961 . S
H1568 C1553 0.961 . S
H1569 C1553 0.961 . S
H1570 C1554 0.931 . S
H1571 C1559 0.930 . S
H1572 C1560 0.956 . S
H1573 C1560 0.942 1_545 S
H1574 C1560 0.961 . S
H1575 C1561 0.958 . S
H1576 C1561 0.961 . S
H1577 C1561 0.960 . S
C1578 C1579 1.391 . S
C1578 C1580 1.394 . S
C1578 H1594 0.931 . S
C1579 C1578 1.391 . S
C1579 C1583 1.376 . S
C1580 C1578 1.394 . S
C1580 C1581 1.369 . S
C1580 C1584 1.531 . S
C1581 C1580 1.369 . S
C1581 C1582 1.410 . S
C1581 C1589 1.503 . S
C1582 C1581 1.410 . S
C1582 C1583 1.392 . S
C1582 C1585 1.511 . S
C1583 C1579 1.376 . S
C1583 C1582 1.392 . S
C1583 H1595 0.929 . S
C1584 C1580 1.531 . S
C1584 H1596 0.960 . S
C1584 H1597 0.962 . S
C1584 H1598 0.960 . S
C1585 C1582 1.511 . S
C1585 H1599 0.961 . S
C1585 H1600 0.961 . S
C1585 H1601 0.961 . S
C1586 C1587 1.370 . S
C1586 C1588 1.363 . S
C1586 H1602 0.931 . S
C1587 C1586 1.370 . S
C1587 C1591 1.408 . S
C1588 C1586 1.363 . S
C1588 C1589 1.370 . S
C1588 C1592 1.524 . S
C1589 C1581 1.503 . S
C1589 C1588 1.370 . S
C1589 C1590 1.403 . S
C1590 C1589 1.403 . S
C1590 C1591 1.404 . S
C1590 C1593 1.539 . S
C1591 C1587 1.408 . S
C1591 C1590 1.404 . S
C1591 H1603 0.930 . S
C1592 C1588 1.524 . S
C1592 H1604 0.956 . S
C1592 H1605 0.961 . S
C1592 H1606 0.961 . S
C1593 C1590 1.539 . S
C1593 H1607 0.958 . S
C1593 H1608 0.961 . S
C1593 H1609 0.960 . S
H1594 C1578 0.931 . S
H1595 C1583 0.929 . S
H1596 C1584 0.960 . S
H1597 C1584 0.962 . S
H1598 C1584 0.960 . S
H1599 C1585 0.961 . S
H1600 C1585 0.961 . S
H1601 C1585 0.961 . S
H1602 C1586 0.931 . S
H1603 C1591 0.930 . S
H1604 C1592 0.956 . S
H1605 C1592 0.961 . S
H1606 C1592 0.961 . S
H1607 C1593 0.958 . S
H1608 C1593 0.961 . S
H1609 C1593 0.960 . S
C1610 C1611 1.391 . S
C1610 C1612 1.394 . S
C1610 H1626 0.931 . S
C1611 C1610 1.391 . S
C1611 C1615 1.376 . S
C1612 C1610 1.394 . S
C1612 C1613 1.369 . S
C1612 C1616 1.531 . S
C1613 C1612 1.369 . S
C1613 C1614 1.410 . S
C1613 C1621 1.503 . S
C1614 C1613 1.410 . S
C1614 C1615 1.392 . S
C1614 C1617 1.511 . S
C1615 C1611 1.376 . S
C1615 C1614 1.392 . S
C1615 H1627 0.929 . S
C1616 C1612 1.531 . S
C1616 H1628 0.960 . S
C1616 H1629 0.962 . S
C1616 H1630 0.960 . S
C1617 C1614 1.511 . S
C1617 H1631 0.961 . S
C1617 H1632 0.961 . S
C1617 H1633 0.961 . S
C1618 C1619 1.370 . S
C1618 C1620 1.363 . S
C1618 H1634 0.931 . S
C1619 C1618 1.370 . S
C1619 C1623 1.408 . S
C1620 C1618 1.363 . S
C1620 C1621 1.370 . S
C1620 C1624 1.524 . S
C1621 C1613 1.503 . S
C1621 C1620 1.370 . S
C1621 C1622 1.403 . S
C1622 C1621 1.403 . S
C1622 C1623 1.404 . S
C1622 C1625 1.539 . S
C1623 C1619 1.408 . S
C1623 C1622 1.404 . S
C1623 H1635 0.930 . S
C1624 C1620 1.524 . S
C1624 H1636 0.956 . S
C1624 H1637 0.961 . S
C1624 H1638 0.961 . S
C1625 C1622 1.539 . S
C1625 H1639 0.958 . S
C1625 H1640 0.961 . S
C1625 H1641 0.960 . S
H1626 C1610 0.931 . S
H1627 C1615 0.929 . S
H1628 C1616 0.960 . S
H1629 C1616 0.962 . S
H1630 C1616 0.960 . S
H1631 C1617 0.961 . S
H1632 C1617 0.961 . S
H1633 C1617 0.961 . S
H1634 C1618 0.931 . S
H1635 C1623 0.930 . S
H1636 C1624 0.956 . S
H1637 C1624 0.961 . S
H1638 C1624 0.961 . S
H1639 C1625 0.958 . S
H1640 C1625 0.961 . S
H1641 C1625 0.960 . S
C1642 C1643 1.391 . S
C1642 C1644 1.394 . S
C1642 H1658 0.931 . S
C1643 C1642 1.391 . S
C1643 C1647 1.376 . S
C1644 C1642 1.394 . S
C1644 C1645 1.369 . S
C1644 C1648 1.531 . S
C1645 C1644 1.369 . S
C1645 C1646 1.410 . S
C1645 C1653 1.503 . S
C1646 C1645 1.410 . S
C1646 C1647 1.392 . S
C1646 C1649 1.511 . S
C1647 C1643 1.376 . S
C1647 C1646 1.392 . S
C1647 H1659 0.929 . S
C1648 C1644 1.531 . S
C1648 H1660 0.960 . S
C1648 H1661 0.962 . S
C1648 H1662 0.960 . S
C1649 C1646 1.511 . S
C1649 H1663 0.961 . S
C1649 H1664 0.961 . S
C1649 H1665 0.961 . S
C1650 C1651 1.370 . S
C1650 C1652 1.363 . S
C1650 H1666 0.931 . S
C1651 C1650 1.370 . S
C1651 C1655 1.408 . S
C1652 C1650 1.363 . S
C1652 C1653 1.370 . S
C1652 C1656 1.524 . S
C1653 C1645 1.503 . S
C1653 C1652 1.370 . S
C1653 C1654 1.403 . S
C1654 C1653 1.403 . S
C1654 C1655 1.404 . S
C1654 C1657 1.539 . S
C1655 C1651 1.408 . S
C1655 C1654 1.404 . S
C1655 H1667 0.930 . S
C1656 C1652 1.524 . S
C1656 H1668 0.956 . S
C1656 H1669 0.961 . S
C1656 H1670 0.961 . S
C1657 C1654 1.539 . S
C1657 H1671 0.958 . S
C1657 H1672 0.961 . S
C1657 H1673 0.960 . S
H1658 C1642 0.931 . S
H1659 C1647 0.929 . S
H1660 C1648 0.960 . S
H1661 C1648 0.962 . S
H1662 C1648 0.960 . S
H1663 C1649 0.961 . S
H1664 C1649 0.961 . S
H1665 C1649 0.961 . S
H1666 C1650 0.931 . S
H1667 C1655 0.930 . S
H1668 C1656 0.956 . S
H1669 C1656 0.961 . S
H1670 C1656 0.961 . S
H1671 C1657 0.958 . S
H1672 C1657 0.961 . S
H1673 C1657 0.960 . S
C1674 C1675 1.391 . S
C1674 C1676 1.394 . S
C1674 H1690 0.931 . S
C1675 C1674 1.391 . S
C1675 C1679 1.376 . S
C1676 C1674 1.394 . S
C1676 C1677 1.369 . S
C1676 C1680 1.531 . S
C1677 C1676 1.369 . S
C1677 C1678 1.410 . S
C1677 C1685 1.503 . S
C1678 C1677 1.410 . S
C1678 C1679 1.392 . S
C1678 C1681 1.511 . S
C1679 C1675 1.376 . S
C1679 C1678 1.392 . S
C1679 H1691 0.929 . S
C1680 C1676 1.531 . S
C1680 H1692 0.960 . S
C1680 H1693 0.962 . S
C1680 H1694 0.960 . S
C1681 C1678 1.511 . S
C1681 H1695 0.961 . S
C1681 H1696 0.961 . S
C1681 H1697 0.961 . S
C1682 C1683 1.370 . S
C1682 C1684 1.363 . S
C1682 H1698 0.931 . S
C1683 C1682 1.370 . S
C1683 C1687 1.408 . S
C1684 C1682 1.363 . S
C1684 C1685 1.370 . S
C1684 C1688 1.524 . S
C1685 C1677 1.503 . S
C1685 C1684 1.370 . S
C1685 C1686 1.403 . S
C1686 C1685 1.403 . S
C1686 C1687 1.404 . S
C1686 C1689 1.539 . S
C1687 C1683 1.408 . S
C1687 C1686 1.404 . S
C1687 H1699 0.930 . S
C1688 C1684 1.524 . S
C1688 H1700 0.956 . S
C1688 H1701 0.961 . S
C1688 H1702 0.961 . S
C1689 C1686 1.539 . S
C1689 H1703 0.958 . S
C1689 H1704 0.961 . S
C1689 H1705 0.960 . S
H1690 C1674 0.931 . S
H1691 C1679 0.929 . S
H1692 C1680 0.960 . S
H1693 C1680 0.962 . S
H1694 C1680 0.960 . S
H1695 C1681 0.961 . S
H1696 C1681 0.961 . S
H1697 C1681 0.961 . S
H1698 C1682 0.931 . S
H1699 C1687 0.930 . S
H1700 C1688 0.956 . S
H1701 C1688 0.961 . S
H1702 C1688 0.961 . S
H1703 C1689 0.958 . S
H1704 C1689 0.961 . S
H1705 C1689 0.960 . S
C1706 C1707 1.391 . S
C1706 C1708 1.394 . S
C1706 H1722 0.931 . S
C1707 C1706 1.391 . S
C1707 C1711 1.376 . S
C1708 C1706 1.394 . S
C1708 C1709 1.369 . S
C1708 C1712 1.531 . S
C1709 C1708 1.369 . S
C1709 C1710 1.410 . S
C1709 C1717 1.503 . S
C1710 C1709 1.410 . S
C1710 C1711 1.392 . S
C1710 C1713 1.511 . S
C1711 C1707 1.376 . S
C1711 C1710 1.392 . S
C1711 H1723 0.929 . S
C1712 C1708 1.531 . S
C1712 H1724 0.960 . S
C1712 H1725 0.962 . S
C1712 H1726 0.960 . S
C1713 C1710 1.511 . S
C1713 H1727 0.961 . S
C1713 H1728 0.961 . S
C1713 H1729 0.961 . S
C1714 C1715 1.370 . S
C1714 C1716 1.363 . S
C1714 H1730 0.931 . S
C1715 C1714 1.370 . S
C1715 C1719 1.408 . S
C1716 C1714 1.363 . S
C1716 C1717 1.370 . S
C1716 C1720 1.524 . S
C1717 C1709 1.503 . S
C1717 C1716 1.370 . S
C1717 C1718 1.403 . S
C1718 C1717 1.403 . S
C1718 C1719 1.404 . S
C1718 C1721 1.539 . S
C1719 C1715 1.408 . S
C1719 C1718 1.404 . S
C1719 H1731 0.930 . S
C1720 C1716 1.524 . S
C1720 H1732 0.956 . S
C1720 H1733 0.961 . S
C1720 H1734 0.961 . S
C1721 C1718 1.539 . S
C1721 H1735 0.958 . S
C1721 H1736 0.961 . S
C1721 H1737 0.960 . S
H1722 C1706 0.931 . S
H1723 C1711 0.929 . S
H1724 C1712 0.960 . S
H1725 C1712 0.962 . S
H1726 C1712 0.960 . S
H1727 C1713 0.961 . S
H1728 C1713 0.961 . S
H1729 C1713 0.961 . S
H1730 C1714 0.931 . S
H1731 C1719 0.930 . S
H1732 C1720 0.956 . S
H1733 C1720 0.961 . S
H1734 C1720 0.961 . S
H1735 C1721 0.958 . S
H1736 C1721 0.961 . S
H1737 C1721 0.960 . S
C1738 C1739 1.391 . S
C1738 C1740 1.394 . S
C1738 H1754 0.931 . S
C1739 C1738 1.391 . S
C1739 C1743 1.376 . S
C1740 C1738 1.394 . S
C1740 C1741 1.369 . S
C1740 C1744 1.531 . S
C1741 C1740 1.369 . S
C1741 C1742 1.410 . S
C1741 C1749 1.503 . S
C1742 C1741 1.410 . S
C1742 C1743 1.392 . S
C1742 C1745 1.511 . S
C1743 C1739 1.376 . S
C1743 C1742 1.392 . S
C1743 H1755 0.929 . S
C1744 C1740 1.531 . S
C1744 H1756 0.960 . S
C1744 H1757 0.962 . S
C1744 H1758 0.960 . S
C1745 C1742 1.511 . S
C1745 H1759 0.961 . S
C1745 H1760 0.961 . S
C1745 H1761 0.961 . S
C1746 C1747 1.370 . S
C1746 C1748 1.363 . S
C1746 H1762 0.931 . S
C1747 C1746 1.370 . S
C1747 C1751 1.408 . S
C1748 C1746 1.363 . S
C1748 C1749 1.370 . S
C1748 C1752 1.524 . S
C1749 C1741 1.503 . S
C1749 C1748 1.370 . S
C1749 C1750 1.403 . S
C1750 C1749 1.403 . S
C1750 C1751 1.404 . S
C1750 C1753 1.539 . S
C1751 C1747 1.408 . S
C1751 C1750 1.404 . S
C1751 H1763 0.930 . S
C1752 C1748 1.524 . S
C1752 H1764 0.956 . S
C1752 H1765 0.961 . S
C1752 H1766 0.961 . S
C1753 C1750 1.539 . S
C1753 H1767 0.958 . S
C1753 H1768 0.961 . S
C1753 H1769 0.960 . S
H1754 C1738 0.931 . S
H1755 C1743 0.929 . S
H1756 C1744 0.960 . S
H1757 C1744 0.962 . S
H1758 C1744 0.960 . S
H1759 C1745 0.961 . S
H1760 C1745 0.961 . S
H1761 C1745 0.961 . S
H1762 C1746 0.931 . S
H1763 C1751 0.930 . S
H1764 C1752 0.956 . S
H1765 C1752 0.961 . S
H1766 C1752 0.961 . S
H1767 C1753 0.958 . S
H1768 C1753 0.961 . S
H1769 C1753 0.960 . S
C1770 C1771 1.391 . S
C1770 C1772 1.394 . S
C1770 H1786 0.931 1_565 S
C1771 C1770 1.391 . S
C1771 C1775 1.376 . S
C1772 C1770 1.394 . S
C1772 C1773 1.369 . S
C1772 C1776 1.531 . S
C1773 C1772 1.369 . S
C1773 C1774 1.410 . S
C1773 C1781 1.503 . S
C1774 C1773 1.410 . S
C1774 C1775 1.392 . S
C1774 C1777 1.511 . S
C1775 C1771 1.376 . S
C1775 C1774 1.392 . S
C1775 H1787 0.929 . S
C1776 C1772 1.531 . S
C1776 H1788 0.960 . S
C1776 H1789 0.962 . S
C1776 H1790 0.960 . S
C1777 C1774 1.511 . S
C1777 H1791 0.961 . S
C1777 H1792 0.961 . S
C1777 H1793 0.961 . S
C1778 C1779 1.370 . S
C1778 C1780 1.363 . S
C1778 H1794 0.931 . S
C1779 C1778 1.370 . S
C1779 C1783 1.408 . S
C1780 C1778 1.363 . S
C1780 C1781 1.370 . S
C1780 C1784 1.524 . S
C1781 C1773 1.503 . S
C1781 C1780 1.370 . S
C1781 C1782 1.403 . S
C1782 C1781 1.403 . S
C1782 C1783 1.404 . S
C1782 C1785 1.539 . S
C1783 C1779 1.408 . S
C1783 C1782 1.404 . S
C1783 H1795 0.930 . S
C1784 C1780 1.524 . S
C1784 H1796 0.956 . S
C1784 H1797 0.961 . S
C1784 H1798 0.961 . S
C1785 C1782 1.539 . S
C1785 H1799 0.958 . S
C1785 H1800 0.961 . S
C1785 H1801 0.960 . S
H1786 C1770 0.931 1_545 S
H1787 C1775 0.929 . S
H1788 C1776 0.960 . S
H1789 C1776 0.962 . S
H1790 C1776 0.960 . S
H1791 C1777 0.961 . S
H1792 C1777 0.961 . S
H1793 C1777 0.961 . S
H1794 C1778 0.931 . S
H1795 C1783 0.930 . S
H1796 C1784 0.956 . S
H1797 C1784 0.961 . S
H1798 C1784 0.961 . S
H1799 C1785 0.958 . S
H1800 C1785 0.961 . S
H1801 C1785 0.960 . S
C1802 C1803 1.391 . S
C1802 C1804 1.394 . S
C1802 H1818 0.931 . S
C1803 C1802 1.391 . S
C1803 C1807 1.376 . S
C1804 C1802 1.394 . S
C1804 C1805 1.369 . S
C1804 C1808 1.531 . S
C1805 C1804 1.369 . S
C1805 C1806 1.410 . S
C1805 C1813 1.503 . S
C1806 C1805 1.410 . S
C1806 C1807 1.392 . S
C1806 C1809 1.511 . S
C1807 C1803 1.376 . S
C1807 C1806 1.392 . S
C1807 H1819 0.929 . S
C1808 C1804 1.531 . S
C1808 H1820 0.960 . S
C1808 H1821 0.962 . S
C1808 H1822 0.960 . S
C1809 C1806 1.511 . S
C1809 H1823 0.961 . S
C1809 H1824 0.961 . S
C1809 H1825 0.961 . S
C1810 C1811 1.370 . S
C1810 C1812 1.363 . S
C1810 H1826 0.931 . S
C1811 C1810 1.370 . S
C1811 C1815 1.408 . S
C1812 C1810 1.363 . S
C1812 C1813 1.370 . S
C1812 C1816 1.524 . S
C1813 C1805 1.503 . S
C1813 C1812 1.370 . S
C1813 C1814 1.403 . S
C1814 C1813 1.403 . S
C1814 C1815 1.404 . S
C1814 C1817 1.539 . S
C1815 C1811 1.408 . S
C1815 C1814 1.404 . S
C1815 H1827 0.930 . S
C1816 C1812 1.524 . S
C1816 H1828 0.956 . S
C1816 H1829 0.961 . S
C1816 H1830 0.961 . S
C1817 C1814 1.539 . S
C1817 H1831 0.958 . S
C1817 H1832 0.961 . S
C1817 H1833 0.960 . S
H1818 C1802 0.931 . S
H1819 C1807 0.929 . S
H1820 C1808 0.960 . S
H1821 C1808 0.962 . S
H1822 C1808 0.960 . S
H1823 C1809 0.961 . S
H1824 C1809 0.961 . S
H1825 C1809 0.961 . S
H1826 C1810 0.931 . S
H1827 C1815 0.930 . S
H1828 C1816 0.956 . S
H1829 C1816 0.961 . S
H1830 C1816 0.961 . S
H1831 C1817 0.958 . S
H1832 C1817 0.961 . S
H1833 C1817 0.960 . S
C1834 C1835 1.391 . S
C1834 C1836 1.394 . S
C1834 H1850 0.931 . S
C1835 C1834 1.391 . S
C1835 C1839 1.376 . S
C1836 C1834 1.394 . S
C1836 C1837 1.369 . S
C1836 C1840 1.531 . S
C1837 C1836 1.369 . S
C1837 C1838 1.410 . S
C1837 C1845 1.503 . S
C1838 C1837 1.410 . S
C1838 C1839 1.392 . S
C1838 C1841 1.511 . S
C1839 C1835 1.376 . S
C1839 C1838 1.392 . S
C1839 H1851 0.929 . S
C1840 C1836 1.531 . S
C1840 H1852 0.960 . S
C1840 H1853 0.962 . S
C1840 H1854 0.960 . S
C1841 C1838 1.511 . S
C1841 H1855 0.961 . S
C1841 H1856 0.961 . S
C1841 H1857 0.961 . S
C1842 C1843 1.370 . S
C1842 C1844 1.363 . S
C1842 H1858 0.931 . S
C1843 C1842 1.370 . S
C1843 C1847 1.408 . S
C1844 C1842 1.363 . S
C1844 C1845 1.370 . S
C1844 C1848 1.524 . S
C1845 C1837 1.503 . S
C1845 C1844 1.370 . S
C1845 C1846 1.403 . S
C1846 C1845 1.403 . S
C1846 C1847 1.404 . S
C1846 C1849 1.539 . S
C1847 C1843 1.408 . S
C1847 C1846 1.404 . S
C1847 H1859 0.930 . S
C1848 C1844 1.524 . S
C1848 H1860 0.956 . S
C1848 H1861 0.961 . S
C1848 H1862 0.961 . S
C1849 C1846 1.539 . S
C1849 H1863 0.958 . S
C1849 H1864 0.961 . S
C1849 H1865 0.960 . S
H1850 C1834 0.931 . S
H1851 C1839 0.929 . S
H1852 C1840 0.960 . S
H1853 C1840 0.962 . S
H1854 C1840 0.960 . S
H1855 C1841 0.961 . S
H1856 C1841 0.961 . S
H1857 C1841 0.961 . S
H1858 C1842 0.931 . S
H1859 C1847 0.930 . S
H1860 C1848 0.956 . S
H1861 C1848 0.961 . S
H1862 C1848 0.961 . S
H1863 C1849 0.958 . S
H1864 C1849 0.961 . S
H1865 C1849 0.960 . S
C1866 C1867 1.391 . S
C1866 C1868 1.394 . S
C1866 H1882 0.931 . S
C1867 C1866 1.391 . S
C1867 C1871 1.376 . S
C1868 C1866 1.394 . S
C1868 C1869 1.369 . S
C1868 C1872 1.531 . S
C1869 C1868 1.369 . S
C1869 C1870 1.410 . S
C1869 C1877 1.503 . S
C1870 C1869 1.410 . S
C1870 C1871 1.392 . S
C1870 C1873 1.511 . S
C1871 C1867 1.376 . S
C1871 C1870 1.392 . S
C1871 H1883 0.929 . S
C1872 C1868 1.531 . S
C1872 H1884 0.960 . S
C1872 H1885 0.962 . S
C1872 H1886 0.960 . S
C1873 C1870 1.511 . S
C1873 H1887 0.961 . S
C1873 H1888 0.961 . S
C1873 H1889 0.961 . S
C1874 C1875 1.370 . S
C1874 C1876 1.363 . S
C1874 H1890 0.931 . S
C1875 C1874 1.370 . S
C1875 C1879 1.408 . S
C1876 C1874 1.363 . S
C1876 C1877 1.370 . S
C1876 C1880 1.524 . S
C1877 C1869 1.503 . S
C1877 C1876 1.370 . S
C1877 C1878 1.403 . S
C1878 C1877 1.403 . S
C1878 C1879 1.404 . S
C1878 C1881 1.539 . S
C1879 C1875 1.408 . S
C1879 C1878 1.404 . S
C1879 H1891 0.930 . S
C1880 C1876 1.524 . S
C1880 H1892 0.956 . S
C1880 H1893 0.961 . S
C1880 H1894 0.961 . S
C1881 C1878 1.539 . S
C1881 H1895 0.958 . S
C1881 H1896 0.961 . S
C1881 H1897 0.960 . S
H1882 C1866 0.931 . S
H1883 C1871 0.929 . S
H1884 C1872 0.960 . S
H1885 C1872 0.962 . S
H1886 C1872 0.960 . S
H1887 C1873 0.961 . S
H1888 C1873 0.961 . S
H1889 C1873 0.961 . S
H1890 C1874 0.931 . S
H1891 C1879 0.930 . S
H1892 C1880 0.956 . S
H1893 C1880 0.961 . S
H1894 C1880 0.961 . S
H1895 C1881 0.958 . S
H1896 C1881 0.961 . S
H1897 C1881 0.960 . S
C1898 C1899 1.391 . S
C1898 C1900 1.394 . S
C1898 H1914 0.931 . S
C1899 C1898 1.391 . S
C1899 C1903 1.376 . S
C1900 C1898 1.394 . S
C1900 C1901 1.369 . S
C1900 C1904 1.531 . S
C1901 C1900 1.369 . S
C1901 C1902 1.410 . S
C1901 C1909 1.503 . S
C1902 C1901 1.410 . S
C1902 C1903 1.392 . S
C1902 C1905 1.511 . S
C1903 C1899 1.376 . S
C1903 C1902 1.392 . S
C1903 H1915 0.929 . S
C1904 C1900 1.531 . S
C1904 H1916 0.960 . S
C1904 H1917 0.962 . S
C1904 H1918 0.960 . S
C1905 C1902 1.511 . S
C1905 H1919 0.961 . S
C1905 H1920 0.961 . S
C1905 H1921 0.961 . S
C1906 C1907 1.370 . S
C1906 C1908 1.363 . S
C1906 H1922 0.931 . S
C1907 C1906 1.370 . S
C1907 C1911 1.408 . S
C1908 C1906 1.363 . S
C1908 C1909 1.370 . S
C1908 C1912 1.524 . S
C1909 C1901 1.503 . S
C1909 C1908 1.370 . S
C1909 C1910 1.403 . S
C1910 C1909 1.403 . S
C1910 C1911 1.404 . S
C1910 C1913 1.539 . S
C1911 C1907 1.408 . S
C1911 C1910 1.404 . S
C1911 H1923 0.930 . S
C1912 C1908 1.524 . S
C1912 H1924 0.956 . S
C1912 H1925 0.961 . S
C1912 H1926 0.961 . S
C1913 C1910 1.539 . S
C1913 H1927 0.958 . S
C1913 H1928 0.961 . S
C1913 H1929 0.960 . S
H1914 C1898 0.931 . S
H1915 C1903 0.929 . S
H1916 C1904 0.960 . S
H1917 C1904 0.962 . S
H1918 C1904 0.960 . S
H1919 C1905 0.961 . S
H1920 C1905 0.961 . S
H1921 C1905 0.961 . S
H1922 C1906 0.931 . S
H1923 C1911 0.930 . S
H1924 C1912 0.956 . S
H1925 C1912 0.961 . S
H1926 C1912 0.961 . S
H1927 C1913 0.958 . S
H1928 C1913 0.961 . S
H1929 C1913 0.960 . S
C1930 C1931 1.391 . S
C1930 C1932 1.394 . S
C1930 H1946 0.931 . S
C1931 C1930 1.391 . S
C1931 C1935 1.376 . S
C1932 C1930 1.394 . S
C1932 C1933 1.369 . S
C1932 C1936 1.531 . S
C1933 C1932 1.369 . S
C1933 C1934 1.410 . S
C1933 C1941 1.503 . S
C1934 C1933 1.410 . S
C1934 C1935 1.392 . S
C1934 C1937 1.511 . S
C1935 C1931 1.376 . S
C1935 C1934 1.392 . S
C1935 H1947 0.929 . S
C1936 C1932 1.531 . S
C1936 H1948 0.960 . S
C1936 H1949 0.962 . S
C1936 H1950 0.960 . S
C1937 C1934 1.511 . S
C1937 H1951 0.961 . S
C1937 H1952 0.961 . S
C1937 H1953 0.961 . S
C1938 C1939 1.370 . S
C1938 C1940 1.363 . S
C1938 H1954 0.931 . S
C1939 C1938 1.370 . S
C1939 C1943 1.408 . S
C1940 C1938 1.363 . S
C1940 C1941 1.370 . S
C1940 C1944 1.524 . S
C1941 C1933 1.503 . S
C1941 C1940 1.370 . S
C1941 C1942 1.403 . S
C1942 C1941 1.403 . S
C1942 C1943 1.404 . S
C1942 C1945 1.539 . S
C1943 C1939 1.408 . S
C1943 C1942 1.404 . S
C1943 H1955 0.930 . S
C1944 C1940 1.524 . S
C1944 H1956 0.956 . S
C1944 H1957 0.961 . S
C1944 H1958 0.961 . S
C1945 C1942 1.539 . S
C1945 H1959 0.958 . S
C1945 H1960 0.961 . S
C1945 H1961 0.960 . S
H1946 C1930 0.931 . S
H1947 C1935 0.929 . S
H1948 C1936 0.960 . S
H1949 C1936 0.962 . S
H1950 C1936 0.960 . S
H1951 C1937 0.961 . S
H1952 C1937 0.961 . S
H1953 C1937 0.961 . S
H1954 C1938 0.931 . S
H1955 C1943 0.930 . S
H1956 C1944 0.956 . S
H1957 C1944 0.961 . S
H1958 C1944 0.961 . S
H1959 C1945 0.958 . S
H1960 C1945 0.961 . S
H1961 C1945 0.960 . S
C1962 C1963 1.391 . S
C1962 C1964 1.394 . S
C1962 H1978 0.931 . S
C1963 C1962 1.391 . S
C1963 C1967 1.376 . S
C1964 C1962 1.394 . S
C1964 C1965 1.369 . S
C1964 C1968 1.531 1_565 S
C1965 C1964 1.369 . S
C1965 C1966 1.410 . S
C1965 C1973 1.503 1_565 S
C1966 C1965 1.410 . S
C1966 C1967 1.392 . S
C1966 C1969 1.511 . S
C1967 C1963 1.376 . S
C1967 C1966 1.392 . S
C1967 H1979 0.929 . S
C1968 C1964 1.531 1_545 S
C1968 H1980 0.960 . S
C1968 H1981 0.962 . S
C1968 H1982 0.960 . S
C1969 C1966 1.511 . S
C1969 H1983 0.961 . S
C1969 H1984 0.961 . S
C1969 H1985 0.961 . S
C1970 C1971 1.370 . S
C1970 C1972 1.363 . S
C1970 H1986 0.931 . S
C1971 C1970 1.370 . S
C1971 C1975 1.408 . S
C1972 C1970 1.363 . S
C1972 C1973 1.370 . S
C1972 C1976 1.524 . S
C1973 C1965 1.503 1_545 S
C1973 C1972 1.370 . S
C1973 C1974 1.403 . S
C1974 C1973 1.403 . S
C1974 C1975 1.404 . S
C1974 C1977 1.539 . S
C1975 C1971 1.408 . S
C1975 C1974 1.404 . S
C1975 H1987 0.930 . S
C1976 C1972 1.524 . S
C1976 H1988 0.956 . S
C1976 H1989 0.961 1_545 S
C1976 H1990 0.961 . S
C1977 C1974 1.539 . S
C1977 H1991 0.958 . S
C1977 H1992 0.961 . S
C1977 H1993 0.960 1_545 S
H1978 C1962 0.931 . S
H1979 C1967 0.929 . S
H1980 C1968 0.960 . S
H1981 C1968 0.962 . S
H1982 C1968 0.960 . S
H1983 C1969 0.961 . S
H1984 C1969 0.961 . S
H1985 C1969 0.961 . S
H1986 C1970 0.931 . S
H1987 C1975 0.930 . S
H1988 C1976 0.956 . S
H1989 C1976 0.961 1_565 S
H1990 C1976 0.961 . S
H1991 C1977 0.958 . S
H1992 C1977 0.961 . S
H1993 C1977 0.960 1_565 S
C1994 C1995 1.391 . S
C1994 C1996 1.394 . S
C1994 H2010 0.931 . S
C1995 C1994 1.391 . S
C1995 C1999 1.376 . S
C1996 C1994 1.394 . S
C1996 C1997 1.369 . S
C1996 C2000 1.531 . S
C1997 C1996 1.369 . S
C1997 C1998 1.410 . S
C1997 C2005 1.503 1_455 S
C1998 C1997 1.410 . S
C1998 C1999 1.392 . S
C1998 C2001 1.511 . S
C1999 C1995 1.376 . S
C1999 C1998 1.392 . S
C1999 H2011 0.929 . S
C2000 C1996 1.531 . S
C2000 H2012 0.960 . S
C2000 H2013 0.962 . S
C2000 H2014 0.960 . S
C2001 C1998 1.511 . S
C2001 H2015 0.961 . S
C2001 H2016 0.961 1_455 S
C2001 H2017 0.961 . S
C2002 C2003 1.370 . S
C2002 C2004 1.363 . S
C2002 H2018 0.931 . S
C2003 C2002 1.370 . S
C2003 C2007 1.408 . S
C2004 C2002 1.363 . S
C2004 C2005 1.370 . S
C2004 C2008 1.524 . S
C2005 C1997 1.503 1_655 S
C2005 C2004 1.370 . S
C2005 C2006 1.403 . S
C2006 C2005 1.403 . S
C2006 C2007 1.404 . S
C2006 C2009 1.539 1_655 S
C2007 C2003 1.408 . S
C2007 C2006 1.404 . S
C2007 H2019 0.930 . S
C2008 C2004 1.524 . S
C2008 H2020 0.956 . S
C2008 H2021 0.961 . S
C2008 H2022 0.961 . S
C2009 C2006 1.539 1_455 S
C2009 H2023 0.958 . S
C2009 H2024 0.961 . S
C2009 H2025 0.960 . S
H2010 C1994 0.931 . S
H2011 C1999 0.929 . S
H2012 C2000 0.960 . S
H2013 C2000 0.962 . S
H2014 C2000 0.960 . S
H2015 C2001 0.961 . S
H2016 C2001 0.961 1_655 S
H2017 C2001 0.961 . S
H2018 C2002 0.931 . S
H2019 C2007 0.930 . S
H2020 C2008 0.956 . S
H2021 C2008 0.961 . S
H2022 C2008 0.961 . S
H2023 C2009 0.958 . S
H2024 C2009 0.961 . S
H2025 C2009 0.960 . S
C2026 C2027 1.391 . S
C2026 C2028 1.394 . S
C2026 H2042 0.931 . S
C2027 C2026 1.391 . S
C2027 C2031 1.376 . S
C2028 C2026 1.394 . S
C2028 C2029 1.369 . S
C2028 C2032 1.531 . S
C2029 C2028 1.369 . S
C2029 C2030 1.410 . S
C2029 C2037 1.503 . S
C2030 C2029 1.410 . S
C2030 C2031 1.392 . S
C2030 C2033 1.511 . S
C2031 C2027 1.376 . S
C2031 C2030 1.392 . S
C2031 H2043 0.929 . S
C2032 C2028 1.531 . S
C2032 H2044 0.960 . S
C2032 H2045 0.962 . S
C2032 H2046 0.960 . S
C2033 C2030 1.511 . S
C2033 H2047 0.961 . S
C2033 H2048 0.961 . S
C2033 H2049 0.961 . S
C2034 C2035 1.370 . S
C2034 C2036 1.363 . S
C2034 H2050 0.931 . S
C2035 C2034 1.370 . S
C2035 C2039 1.408 . S
C2036 C2034 1.363 . S
C2036 C2037 1.370 . S
C2036 C2040 1.524 . S
C2037 C2029 1.503 . S
C2037 C2036 1.370 . S
C2037 C2038 1.403 . S
C2038 C2037 1.403 . S
C2038 C2039 1.404 . S
C2038 C2041 1.539 . S
C2039 C2035 1.408 . S
C2039 C2038 1.404 . S
C2039 H2051 0.930 . S
C2040 C2036 1.524 . S
C2040 H2052 0.956 . S
C2040 H2053 0.961 . S
C2040 H2054 0.961 . S
C2041 C2038 1.539 . S
C2041 H2055 0.958 . S
C2041 H2056 0.961 . S
C2041 H2057 0.960 . S
H2042 C2026 0.931 . S
H2043 C2031 0.929 . S
H2044 C2032 0.960 . S
H2045 C2032 0.962 . S
H2046 C2032 0.960 . S
H2047 C2033 0.961 . S
H2048 C2033 0.961 . S
H2049 C2033 0.961 . S
H2050 C2034 0.931 . S
H2051 C2039 0.930 . S
H2052 C2040 0.956 . S
H2053 C2040 0.961 . S
H2054 C2040 0.961 . S
H2055 C2041 0.958 . S
H2056 C2041 0.961 . S
H2057 C2041 0.960 . S
C2058 C2059 1.391 . S
C2058 C2060 1.394 . S
C2058 H2074 0.931 . S
C2059 C2058 1.391 . S
C2059 C2063 1.376 . S
C2060 C2058 1.394 . S
C2060 C2061 1.369 . S
C2060 C2064 1.531 . S
C2061 C2060 1.369 . S
C2061 C2062 1.410 . S
C2061 C2069 1.503 . S
C2062 C2061 1.410 . S
C2062 C2063 1.392 . S
C2062 C2065 1.511 . S
C2063 C2059 1.376 . S
C2063 C2062 1.392 . S
C2063 H2075 0.929 . S
C2064 C2060 1.531 . S
C2064 H2076 0.960 . S
C2064 H2077 0.962 . S
C2064 H2078 0.960 . S
C2065 C2062 1.511 . S
C2065 H2079 0.961 . S
C2065 H2080 0.961 . S
C2065 H2081 0.961 . S
C2066 C2067 1.370 . S
C2066 C2068 1.363 . S
C2066 H2082 0.931 . S
C2067 C2066 1.370 . S
C2067 C2071 1.408 . S
C2068 C2066 1.363 . S
C2068 C2069 1.370 . S
C2068 C2072 1.524 . S
C2069 C2061 1.503 . S
C2069 C2068 1.370 . S
C2069 C2070 1.403 . S
C2070 C2069 1.403 . S
C2070 C2071 1.404 . S
C2070 C2073 1.539 . S
C2071 C2067 1.408 . S
C2071 C2070 1.404 . S
C2071 H2083 0.930 . S
C2072 C2068 1.524 . S
C2072 H2084 0.956 . S
C2072 H2085 0.961 . S
C2072 H2086 0.961 . S
C2073 C2070 1.539 . S
C2073 H2087 0.958 . S
C2073 H2088 0.961 . S
C2073 H2089 0.960 . S
H2074 C2058 0.931 . S
H2075 C2063 0.929 . S
H2076 C2064 0.960 . S
H2077 C2064 0.962 . S
H2078 C2064 0.960 . S
H2079 C2065 0.961 . S
H2080 C2065 0.961 . S
H2081 C2065 0.961 . S
H2082 C2066 0.931 . S
H2083 C2071 0.930 . S
H2084 C2072 0.956 . S
H2085 C2072 0.961 . S
H2086 C2072 0.961 . S
H2087 C2073 0.958 . S
H2088 C2073 0.961 . S
H2089 C2073 0.960 . S
C2090 C2091 1.391 . S
C2090 C2092 1.394 . S
C2090 H2106 0.931 . S
C2091 C2090 1.391 . S
C2091 C2095 1.376 . S
C2092 C2090 1.394 . S
C2092 C2093 1.369 . S
C2092 C2096 1.531 . S
C2093 C2092 1.369 . S
C2093 C2094 1.410 . S
C2093 C2101 1.503 . S
C2094 C2093 1.410 . S
C2094 C2095 1.392 . S
C2094 C2097 1.511 . S
C2095 C2091 1.376 . S
C2095 C2094 1.392 . S
C2095 H2107 0.929 . S
C2096 C2092 1.531 . S
C2096 H2108 0.960 . S
C2096 H2109 0.962 . S
C2096 H2110 0.960 . S
C2097 C2094 1.511 . S
C2097 H2111 0.961 . S
C2097 H2112 0.961 . S
C2097 H2113 0.961 . S
C2098 C2099 1.370 . S
C2098 C2100 1.363 . S
C2098 H2114 0.931 . S
C2099 C2098 1.370 . S
C2099 C2103 1.408 . S
C2100 C2098 1.363 . S
C2100 C2101 1.370 . S
C2100 C2104 1.524 . S
C2101 C2093 1.503 . S
C2101 C2100 1.370 . S
C2101 C2102 1.403 . S
C2102 C2101 1.403 . S
C2102 C2103 1.404 . S
C2102 C2105 1.539 . S
C2103 C2099 1.408 . S
C2103 C2102 1.404 . S
C2103 H2115 0.930 . S
C2104 C2100 1.524 . S
C2104 H2116 0.956 . S
C2104 H2117 0.961 . S
C2104 H2118 0.961 . S
C2105 C2102 1.539 . S
C2105 H2119 0.958 . S
C2105 H2120 0.961 . S
C2105 H2121 0.960 . S
H2106 C2090 0.931 . S
H2107 C2095 0.929 . S
H2108 C2096 0.960 . S
H2109 C2096 0.962 . S
H2110 C2096 0.960 . S
H2111 C2097 0.961 . S
H2112 C2097 0.961 . S
H2113 C2097 0.961 . S
H2114 C2098 0.931 . S
H2115 C2103 0.930 . S
H2116 C2104 0.956 . S
H2117 C2104 0.961 . S
H2118 C2104 0.961 . S
H2119 C2105 0.958 . S
H2120 C2105 0.961 . S
H2121 C2105 0.960 . S
C2122 C2123 1.391 . S
C2122 C2124 1.394 . S
C2122 H2138 0.931 . S
C2123 C2122 1.391 . S
C2123 C2127 1.376 . S
C2124 C2122 1.394 . S
C2124 C2125 1.369 . S
C2124 C2128 1.531 . S
C2125 C2124 1.369 . S
C2125 C2126 1.410 . S
C2125 C2133 1.503 . S
C2126 C2125 1.410 . S
C2126 C2127 1.392 . S
C2126 C2129 1.511 . S
C2127 C2123 1.376 . S
C2127 C2126 1.392 . S
C2127 H2139 0.929 . S
C2128 C2124 1.531 . S
C2128 H2140 0.960 . S
C2128 H2141 0.962 . S
C2128 H2142 0.960 . S
C2129 C2126 1.511 . S
C2129 H2143 0.961 . S
C2129 H2144 0.961 . S
C2129 H2145 0.961 . S
C2130 C2131 1.370 . S
C2130 C2132 1.363 . S
C2130 H2146 0.931 . S
C2131 C2130 1.370 . S
C2131 C2135 1.408 . S
C2132 C2130 1.363 . S
C2132 C2133 1.370 . S
C2132 C2136 1.524 . S
C2133 C2125 1.503 . S
C2133 C2132 1.370 . S
C2133 C2134 1.403 . S
C2134 C2133 1.403 . S
C2134 C2135 1.404 . S
C2134 C2137 1.539 . S
C2135 C2131 1.408 . S
C2135 C2134 1.404 . S
C2135 H2147 0.930 . S
C2136 C2132 1.524 . S
C2136 H2148 0.956 . S
C2136 H2149 0.961 . S
C2136 H2150 0.961 . S
C2137 C2134 1.539 . S
C2137 H2151 0.958 . S
C2137 H2152 0.961 . S
C2137 H2153 0.960 . S
H2138 C2122 0.931 . S
H2139 C2127 0.929 . S
H2140 C2128 0.960 . S
H2141 C2128 0.962 . S
H2142 C2128 0.960 . S
H2143 C2129 0.961 . S
H2144 C2129 0.961 . S
H2145 C2129 0.961 . S
H2146 C2130 0.931 . S
H2147 C2135 0.930 . S
H2148 C2136 0.956 . S
H2149 C2136 0.961 . S
H2150 C2136 0.961 . S
H2151 C2137 0.958 . S
H2152 C2137 0.961 . S
H2153 C2137 0.960 . S
C2154 C2155 1.391 . S
C2154 C2156 1.394 . S
C2154 H2170 0.931 . S
C2155 C2154 1.391 . S
C2155 C2159 1.376 . S
C2156 C2154 1.394 . S
C2156 C2157 1.369 . S
C2156 C2160 1.531 . S
C2157 C2156 1.369 . S
C2157 C2158 1.410 . S
C2157 C2165 1.503 . S
C2158 C2157 1.410 . S
C2158 C2159 1.392 . S
C2158 C2161 1.511 . S
C2159 C2155 1.376 . S
C2159 C2158 1.392 . S
C2159 H2171 0.929 . S
C2160 C2156 1.531 . S
C2160 H2172 0.960 . S
C2160 H2173 0.962 . S
C2160 H2174 0.960 . S
C2161 C2158 1.511 . S
C2161 H2175 0.961 . S
C2161 H2176 0.961 . S
C2161 H2177 0.961 . S
C2162 C2163 1.370 . S
C2162 C2164 1.363 . S
C2162 H2178 0.931 . S
C2163 C2162 1.370 . S
C2163 C2167 1.408 . S
C2164 C2162 1.363 . S
C2164 C2165 1.370 . S
C2164 C2168 1.524 . S
C2165 C2157 1.503 . S
C2165 C2164 1.370 . S
C2165 C2166 1.403 . S
C2166 C2165 1.403 . S
C2166 C2167 1.404 . S
C2166 C2169 1.539 . S
C2167 C2163 1.408 . S
C2167 C2166 1.404 . S
C2167 H2179 0.930 . S
C2168 C2164 1.524 . S
C2168 H2180 0.956 . S
C2168 H2181 0.961 . S
C2168 H2182 0.961 . S
C2169 C2166 1.539 . S
C2169 H2183 0.958 . S
C2169 H2184 0.961 . S
C2169 H2185 0.960 . S
H2170 C2154 0.931 . S
H2171 C2159 0.929 . S
H2172 C2160 0.960 . S
H2173 C2160 0.962 . S
H2174 C2160 0.960 . S
H2175 C2161 0.961 . S
H2176 C2161 0.961 . S
H2177 C2161 0.961 . S
H2178 C2162 0.931 . S
H2179 C2167 0.930 . S
H2180 C2168 0.956 . S
H2181 C2168 0.961 . S
H2182 C2168 0.961 . S
H2183 C2169 0.958 . S
H2184 C2169 0.961 . S
H2185 C2169 0.960 . S
C2186 C2187 1.391 . S
C2186 C2188 1.394 . S
C2186 H2202 0.931 . S
C2187 C2186 1.391 . S
C2187 C2191 1.376 . S
C2188 C2186 1.394 . S
C2188 C2189 1.369 . S
C2188 C2192 1.531 . S
C2189 C2188 1.369 . S
C2189 C2190 1.410 . S
C2189 C2197 1.503 . S
C2190 C2189 1.410 . S
C2190 C2191 1.392 . S
C2190 C2193 1.511 . S
C2191 C2187 1.376 . S
C2191 C2190 1.392 . S
C2191 H2203 0.929 . S
C2192 C2188 1.531 . S
C2192 H2204 0.960 . S
C2192 H2205 0.962 . S
C2192 H2206 0.960 . S
C2193 C2190 1.511 . S
C2193 H2207 0.961 . S
C2193 H2208 0.961 . S
C2193 H2209 0.961 . S
C2194 C2195 1.370 . S
C2194 C2196 1.363 . S
C2194 H2210 0.931 . S
C2195 C2194 1.370 . S
C2195 C2199 1.408 . S
C2196 C2194 1.363 . S
C2196 C2197 1.370 . S
C2196 C2200 1.524 . S
C2197 C2189 1.503 . S
C2197 C2196 1.370 . S
C2197 C2198 1.403 . S
C2198 C2197 1.403 . S
C2198 C2199 1.404 . S
C2198 C2201 1.539 . S
C2199 C2195 1.408 . S
C2199 C2198 1.404 . S
C2199 H2211 0.930 . S
C2200 C2196 1.524 . S
C2200 H2212 0.956 . S
C2200 H2213 0.961 . S
C2200 H2214 0.961 . S
C2201 C2198 1.539 . S
C2201 H2215 0.958 . S
C2201 H2216 0.961 . S
C2201 H2217 0.960 . S
H2202 C2186 0.931 . S
H2203 C2191 0.929 . S
H2204 C2192 0.960 . S
H2205 C2192 0.962 . S
H2206 C2192 0.960 . S
H2207 C2193 0.961 . S
H2208 C2193 0.961 . S
H2209 C2193 0.961 . S
H2210 C2194 0.931 . S
H2211 C2199 0.930 . S
H2212 C2200 0.956 . S
H2213 C2200 0.961 . S
H2214 C2200 0.961 . S
H2215 C2201 0.958 . S
H2216 C2201 0.961 . S
H2217 C2201 0.960 . S
C2218 C2219 1.391 . S
C2218 C2220 1.394 . S
C2218 H2234 0.931 . S
C2219 C2218 1.391 . S
C2219 C2223 1.376 . S
C2220 C2218 1.394 . S
C2220 C2221 1.369 . S
C2220 C2224 1.531 . S
C2221 C2220 1.369 . S
C2221 C2222 1.410 . S
C2221 C2229 1.503 . S
C2222 C2221 1.410 . S
C2222 C2223 1.392 . S
C2222 C2225 1.511 . S
C2223 C2219 1.376 . S
C2223 C2222 1.392 . S
C2223 H2235 0.929 . S
C2224 C2220 1.531 . S
C2224 H2236 0.960 . S
C2224 H2237 0.962 . S
C2224 H2238 0.960 . S
C2225 C2222 1.511 . S
C2225 H2239 0.961 . S
C2225 H2240 0.961 . S
C2225 H2241 0.961 . S
C2226 C2227 1.370 . S
C2226 C2228 1.363 . S
C2226 H2242 0.931 . S
C2227 C2226 1.370 . S
C2227 C2231 1.408 . S
C2228 C2226 1.363 . S
C2228 C2229 1.370 . S
C2228 C2232 1.524 . S
C2229 C2221 1.503 . S
C2229 C2228 1.370 . S
C2229 C2230 1.403 . S
C2230 C2229 1.403 . S
C2230 C2231 1.404 . S
C2230 C2233 1.539 . S
C2231 C2227 1.408 . S
C2231 C2230 1.404 . S
C2231 H2243 0.930 . S
C2232 C2228 1.524 . S
C2232 H2244 0.956 . S
C2232 H2245 0.961 . S
C2232 H2246 0.961 . S
C2233 C2230 1.539 . S
C2233 H2247 0.958 . S
C2233 H2248 0.961 . S
C2233 H2249 0.960 . S
H2234 C2218 0.931 . S
H2235 C2223 0.929 . S
H2236 C2224 0.960 . S
H2237 C2224 0.962 . S
H2238 C2224 0.960 . S
H2239 C2225 0.961 . S
H2240 C2225 0.961 . S
H2241 C2225 0.961 . S
H2242 C2226 0.931 . S
H2243 C2231 0.930 . S
H2244 C2232 0.956 . S
H2245 C2232 0.961 . S
H2246 C2232 0.961 . S
H2247 C2233 0.958 . S
H2248 C2233 0.961 . S
H2249 C2233 0.960 . S
C2250 C2251 1.391 . S
C2250 C2252 1.394 . S
C2250 H2266 0.931 . S
C2251 C2250 1.391 . S
C2251 C2255 1.376 . S
C2252 C2250 1.394 . S
C2252 C2253 1.369 . S
C2252 C2256 1.531 . S
C2253 C2252 1.369 . S
C2253 C2254 1.410 . S
C2253 C2261 1.503 . S
C2254 C2253 1.410 . S
C2254 C2255 1.392 . S
C2254 C2257 1.511 . S
C2255 C2251 1.376 . S
C2255 C2254 1.392 . S
C2255 H2267 0.929 . S
C2256 C2252 1.531 . S
C2256 H2268 0.960 . S
C2256 H2269 0.962 . S
C2256 H2270 0.960 . S
C2257 C2254 1.511 . S
C2257 H2271 0.961 . S
C2257 H2272 0.961 . S
C2257 H2273 0.961 . S
C2258 C2259 1.370 . S
C2258 C2260 1.363 . S
C2258 H2274 0.931 . S
C2259 C2258 1.370 . S
C2259 C2263 1.408 . S
C2260 C2258 1.363 . S
C2260 C2261 1.370 . S
C2260 C2264 1.524 . S
C2261 C2253 1.503 . S
C2261 C2260 1.370 . S
C2261 C2262 1.403 . S
C2262 C2261 1.403 . S
C2262 C2263 1.404 . S
C2262 C2265 1.539 . S
C2263 C2259 1.408 . S
C2263 C2262 1.404 . S
C2263 H2275 0.930 . S
C2264 C2260 1.524 . S
C2264 H2276 0.956 . S
C2264 H2277 0.961 . S
C2264 H2278 0.961 . S
C2265 C2262 1.539 . S
C2265 H2279 0.958 . S
C2265 H2280 0.961 . S
C2265 H2281 0.960 . S
H2266 C2250 0.931 . S
H2267 C2255 0.929 . S
H2268 C2256 0.960 . S
H2269 C2256 0.962 . S
H2270 C2256 0.960 . S
H2271 C2257 0.961 . S
H2272 C2257 0.961 . S
H2273 C2257 0.961 . S
H2274 C2258 0.931 . S
H2275 C2263 0.930 . S
H2276 C2264 0.956 . S
H2277 C2264 0.961 . S
H2278 C2264 0.961 . S
H2279 C2265 0.958 . S
H2280 C2265 0.961 . S
H2281 C2265 0.960 . S
C2282 C2283 1.391 . S
C2282 C2284 1.394 . S
C2282 H2298 0.931 . S
C2283 C2282 1.391 . S
C2283 C2287 1.376 . S
C2284 C2282 1.394 . S
C2284 C2285 1.369 . S
C2284 C2288 1.531 . S
C2285 C2284 1.369 . S
C2285 C2286 1.410 . S
C2285 C2293 1.503 . S
C2286 C2285 1.410 . S
C2286 C2287 1.392 . S
C2286 C2289 1.511 . S
C2287 C2283 1.376 . S
C2287 C2286 1.392 . S
C2287 H2299 0.929 . S
C2288 C2284 1.531 . S
C2288 H2300 0.960 . S
C2288 H2301 0.962 . S
C2288 H2302 0.960 . S
C2289 C2286 1.511 . S
C2289 H2303 0.961 . S
C2289 H2304 0.961 . S
C2289 H2305 0.961 . S
C2290 C2291 1.370 . S
C2290 C2292 1.363 . S
C2290 H2306 0.931 . S
C2291 C2290 1.370 . S
C2291 C2295 1.408 . S
C2292 C2290 1.363 . S
C2292 C2293 1.370 . S
C2292 C2296 1.524 . S
C2293 C2285 1.503 . S
C2293 C2292 1.370 . S
C2293 C2294 1.403 . S
C2294 C2293 1.403 . S
C2294 C2295 1.404 . S
C2294 C2297 1.539 . S
C2295 C2291 1.408 . S
C2295 C2294 1.404 . S
C2295 H2307 0.930 . S
C2296 C2292 1.524 . S
C2296 H2308 0.956 . S
C2296 H2309 0.961 . S
C2296 H2310 0.961 . S
C2297 C2294 1.539 . S
C2297 H2311 0.958 . S
C2297 H2312 0.961 . S
C2297 H2313 0.960 . S
H2298 C2282 0.931 . S
H2299 C2287 0.929 . S
H2300 C2288 0.960 . S
H2301 C2288 0.962 . S
H2302 C2288 0.960 . S
H2303 C2289 0.961 . S
H2304 C2289 0.961 . S
H2305 C2289 0.961 . S
H2306 C2290 0.931 . S
H2307 C2295 0.930 . S
H2308 C2296 0.956 . S
H2309 C2296 0.961 . S
H2310 C2296 0.961 . S
H2311 C2297 0.958 . S
H2312 C2297 0.961 . S
H2313 C2297 0.960 . S
C2314 C2315 1.391 . S
C2314 C2316 1.394 . S
C2314 H2330 0.931 . S
C2315 C2314 1.391 . S
C2315 C2319 1.376 . S
C2316 C2314 1.394 . S
C2316 C2317 1.369 . S
C2316 C2320 1.531 . S
C2317 C2316 1.369 . S
C2317 C2318 1.410 . S
C2317 C2325 1.503 . S
C2318 C2317 1.410 . S
C2318 C2319 1.392 . S
C2318 C2321 1.511 . S
C2319 C2315 1.376 . S
C2319 C2318 1.392 . S
C2319 H2331 0.929 . S
C2320 C2316 1.531 . S
C2320 H2332 0.960 . S
C2320 H2333 0.962 . S
C2320 H2334 0.960 . S
C2321 C2318 1.511 . S
C2321 H2335 0.961 . S
C2321 H2336 0.961 . S
C2321 H2337 0.961 . S
C2322 C2323 1.370 . S
C2322 C2324 1.363 . S
C2322 H2338 0.931 . S
C2323 C2322 1.370 . S
C2323 C2327 1.408 . S
C2324 C2322 1.363 . S
C2324 C2325 1.370 . S
C2324 C2328 1.524 . S
C2325 C2317 1.503 . S
C2325 C2324 1.370 . S
C2325 C2326 1.403 . S
C2326 C2325 1.403 . S
C2326 C2327 1.404 . S
C2326 C2329 1.539 . S
C2327 C2323 1.408 . S
C2327 C2326 1.404 . S
C2327 H2339 0.930 . S
C2328 C2324 1.524 . S
C2328 H2340 0.956 . S
C2328 H2341 0.961 . S
C2328 H2342 0.961 . S
C2329 C2326 1.539 . S
C2329 H2343 0.958 . S
C2329 H2344 0.961 . S
C2329 H2345 0.960 . S
H2330 C2314 0.931 . S
H2331 C2319 0.929 . S
H2332 C2320 0.960 . S
H2333 C2320 0.962 . S
H2334 C2320 0.960 . S
H2335 C2321 0.961 . S
H2336 C2321 0.961 . S
H2337 C2321 0.961 . S
H2338 C2322 0.931 . S
H2339 C2327 0.930 . S
H2340 C2328 0.956 . S
H2341 C2328 0.961 . S
H2342 C2328 0.961 . S
H2343 C2329 0.958 . S
H2344 C2329 0.961 . S
H2345 C2329 0.960 . S
C2346 C2347 1.391 . S
C2346 C2348 1.394 . S
C2346 H2362 0.931 . S
C2347 C2346 1.391 . S
C2347 C2351 1.376 . S
C2348 C2346 1.394 . S
C2348 C2349 1.369 . S
C2348 C2352 1.531 . S
C2349 C2348 1.369 . S
C2349 C2350 1.410 . S
C2349 C2357 1.503 . S
C2350 C2349 1.410 . S
C2350 C2351 1.392 . S
C2350 C2353 1.511 . S
C2351 C2347 1.376 . S
C2351 C2350 1.392 . S
C2351 H2363 0.929 . S
C2352 C2348 1.531 . S
C2352 H2364 0.960 . S
C2352 H2365 0.962 . S
C2352 H2366 0.960 . S
C2353 C2350 1.511 . S
C2353 H2367 0.961 . S
C2353 H2368 0.961 . S
C2353 H2369 0.961 . S
C2354 C2355 1.370 . S
C2354 C2356 1.363 . S
C2354 H2370 0.931 . S
C2355 C2354 1.370 . S
C2355 C2359 1.408 . S
C2356 C2354 1.363 . S
C2356 C2357 1.370 . S
C2356 C2360 1.524 . S
C2357 C2349 1.503 . S
C2357 C2356 1.370 . S
C2357 C2358 1.403 . S
C2358 C2357 1.403 . S
C2358 C2359 1.404 . S
C2358 C2361 1.539 . S
C2359 C2355 1.408 . S
C2359 C2358 1.404 . S
C2359 H2371 0.930 . S
C2360 C2356 1.524 . S
C2360 H2372 0.956 . S
C2360 H2373 0.961 . S
C2360 H2374 0.961 . S
C2361 C2358 1.539 . S
C2361 H2375 0.958 . S
C2361 H2376 0.961 . S
C2361 H2377 0.960 . S
H2362 C2346 0.931 . S
H2363 C2351 0.929 . S
H2364 C2352 0.960 . S
H2365 C2352 0.962 . S
H2366 C2352 0.960 . S
H2367 C2353 0.961 . S
H2368 C2353 0.961 . S
H2369 C2353 0.961 . S
H2370 C2354 0.931 . S
H2371 C2359 0.930 . S
H2372 C2360 0.956 . S
H2373 C2360 0.961 . S
H2374 C2360 0.961 . S
H2375 C2361 0.958 . S
H2376 C2361 0.961 . S
H2377 C2361 0.960 . S
C2378 C2379 1.391 . S
C2378 C2380 1.394 . S
C2378 H2394 0.931 . S
C2379 C2378 1.391 . S
C2379 C2383 1.376 . S
C2380 C2378 1.394 . S
C2380 C2381 1.369 . S
C2380 C2384 1.531 . S
C2381 C2380 1.369 . S
C2381 C2382 1.410 . S
C2381 C2389 1.503 . S
C2382 C2381 1.410 . S
C2382 C2383 1.392 . S
C2382 C2385 1.511 . S
C2383 C2379 1.376 . S
C2383 C2382 1.392 . S
C2383 H2395 0.929 . S
C2384 C2380 1.531 . S
C2384 H2396 0.960 . S
C2384 H2397 0.962 . S
C2384 H2398 0.960 . S
C2385 C2382 1.511 . S
C2385 H2399 0.961 . S
C2385 H2400 0.961 . S
C2385 H2401 0.961 . S
C2386 C2387 1.370 . S
C2386 C2388 1.363 . S
C2386 H2402 0.931 . S
C2387 C2386 1.370 . S
C2387 C2391 1.408 . S
C2388 C2386 1.363 . S
C2388 C2389 1.370 . S
C2388 C2392 1.524 . S
C2389 C2381 1.503 . S
C2389 C2388 1.370 . S
C2389 C2390 1.403 . S
C2390 C2389 1.403 . S
C2390 C2391 1.404 . S
C2390 C2393 1.539 . S
C2391 C2387 1.408 . S
C2391 C2390 1.404 . S
C2391 H2403 0.930 . S
C2392 C2388 1.524 . S
C2392 H2404 0.956 . S
C2392 H2405 0.961 . S
C2392 H2406 0.961 . S
C2393 C2390 1.539 . S
C2393 H2407 0.958 . S
C2393 H2408 0.961 . S
C2393 H2409 0.960 . S
H2394 C2378 0.931 . S
H2395 C2383 0.929 . S
H2396 C2384 0.960 . S
H2397 C2384 0.962 . S
H2398 C2384 0.960 . S
H2399 C2385 0.961 . S
H2400 C2385 0.961 . S
H2401 C2385 0.961 . S
H2402 C2386 0.931 . S
H2403 C2391 0.930 . S
H2404 C2392 0.956 . S
H2405 C2392 0.961 . S
H2406 C2392 0.961 . S
H2407 C2393 0.958 . S
H2408 C2393 0.961 . S
H2409 C2393 0.960 . S
C2410 C2411 1.391 . S
C2410 C2412 1.394 . S
C2410 H2426 0.931 . S
C2411 C2410 1.391 . S
C2411 C2415 1.376 . S
C2412 C2410 1.394 . S
C2412 C2413 1.369 . S
C2412 C2416 1.531 . S
C2413 C2412 1.369 . S
C2413 C2414 1.410 . S
C2413 C2421 1.503 . S
C2414 C2413 1.410 . S
C2414 C2415 1.392 . S
C2414 C2417 1.511 . S
C2415 C2411 1.376 . S
C2415 C2414 1.392 . S
C2415 H2427 0.929 . S
C2416 C2412 1.531 . S
C2416 H2428 0.960 . S
C2416 H2429 0.962 . S
C2416 H2430 0.960 . S
C2417 C2414 1.511 . S
C2417 H2431 0.961 . S
C2417 H2432 0.961 . S
C2417 H2433 0.961 . S
C2418 C2419 1.370 . S
C2418 C2420 1.363 . S
C2418 H2434 0.931 . S
C2419 C2418 1.370 . S
C2419 C2423 1.408 . S
C2420 C2418 1.363 . S
C2420 C2421 1.370 . S
C2420 C2424 1.524 . S
C2421 C2413 1.503 . S
C2421 C2420 1.370 . S
C2421 C2422 1.403 . S
C2422 C2421 1.403 . S
C2422 C2423 1.404 . S
C2422 C2425 1.539 . S
C2423 C2419 1.408 . S
C2423 C2422 1.404 . S
C2423 H2435 0.930 . S
C2424 C2420 1.524 . S
C2424 H2436 0.956 . S
C2424 H2437 0.961 . S
C2424 H2438 0.961 . S
C2425 C2422 1.539 . S
C2425 H2439 0.958 . S
C2425 H2440 0.961 . S
C2425 H2441 0.960 . S
H2426 C2410 0.931 . S
H2427 C2415 0.929 . S
H2428 C2416 0.960 . S
H2429 C2416 0.962 . S
H2430 C2416 0.960 . S
H2431 C2417 0.961 . S
H2432 C2417 0.961 . S
H2433 C2417 0.961 . S
H2434 C2418 0.931 . S
H2435 C2423 0.930 . S
H2436 C2424 0.956 . S
H2437 C2424 0.961 . S
H2438 C2424 0.961 . S
H2439 C2425 0.958 . S
H2440 C2425 0.961 . S
H2441 C2425 0.960 . S
C2442 C2443 1.391 . S
C2442 C2444 1.394 . S
C2442 H2458 0.931 . S
C2443 C2442 1.391 . S
C2443 C2447 1.376 . S
C2444 C2442 1.394 . S
C2444 C2445 1.369 . S
C2444 C2448 1.531 . S
C2445 C2444 1.369 . S
C2445 C2446 1.410 . S
C2445 C2453 1.503 . S
C2446 C2445 1.410 . S
C2446 C2447 1.392 . S
C2446 C2449 1.511 . S
C2447 C2443 1.376 . S
C2447 C2446 1.392 . S
C2447 H2459 0.929 . S
C2448 C2444 1.531 . S
C2448 H2460 0.960 . S
C2448 H2461 0.962 . S
C2448 H2462 0.960 . S
C2449 C2446 1.511 . S
C2449 H2463 0.961 . S
C2449 H2464 0.961 . S
C2449 H2465 0.961 . S
C2450 C2451 1.370 . S
C2450 C2452 1.363 . S
C2450 H2466 0.931 . S
C2451 C2450 1.370 . S
C2451 C2455 1.408 . S
C2452 C2450 1.363 . S
C2452 C2453 1.370 . S
C2452 C2456 1.524 . S
C2453 C2445 1.503 . S
C2453 C2452 1.370 . S
C2453 C2454 1.403 . S
C2454 C2453 1.403 . S
C2454 C2455 1.404 . S
C2454 C2457 1.539 . S
C2455 C2451 1.408 . S
C2455 C2454 1.404 . S
C2455 H2467 0.930 . S
C2456 C2452 1.524 . S
C2456 H2468 0.956 . S
C2456 H2469 0.961 . S
C2456 H2470 0.961 . S
C2457 C2454 1.539 . S
C2457 H2471 0.958 . S
C2457 H2472 0.961 . S
C2457 H2473 0.960 . S
H2458 C2442 0.931 . S
H2459 C2447 0.929 . S
H2460 C2448 0.960 . S
H2461 C2448 0.962 . S
H2462 C2448 0.960 . S
H2463 C2449 0.961 . S
H2464 C2449 0.961 . S
H2465 C2449 0.961 . S
H2466 C2450 0.931 . S
H2467 C2455 0.930 . S
H2468 C2456 0.956 . S
H2469 C2456 0.961 . S
H2470 C2456 0.961 . S
H2471 C2457 0.958 . S
H2472 C2457 0.961 . S
H2473 C2457 0.960 . S
C2474 C2475 1.391 . S
C2474 C2476 1.394 . S
C2474 H2490 0.931 . S
C2475 C2474 1.391 . S
C2475 C2479 1.376 . S
C2476 C2474 1.394 . S
C2476 C2477 1.369 . S
C2476 C2480 1.531 . S
C2477 C2476 1.369 . S
C2477 C2478 1.410 . S
C2477 C2485 1.503 . S
C2478 C2477 1.410 . S
C2478 C2479 1.392 . S
C2478 C2481 1.511 . S
C2479 C2475 1.376 . S
C2479 C2478 1.392 . S
C2479 H2491 0.929 . S
C2480 C2476 1.531 . S
C2480 H2492 0.960 . S
C2480 H2493 0.962 . S
C2480 H2494 0.960 . S
C2481 C2478 1.511 . S
C2481 H2495 0.961 . S
C2481 H2496 0.961 . S
C2481 H2497 0.961 . S
C2482 C2483 1.370 . S
C2482 C2484 1.363 . S
C2482 H2498 0.931 . S
C2483 C2482 1.370 . S
C2483 C2487 1.408 . S
C2484 C2482 1.363 . S
C2484 C2485 1.370 . S
C2484 C2488 1.524 . S
C2485 C2477 1.503 . S
C2485 C2484 1.370 . S
C2485 C2486 1.403 . S
C2486 C2485 1.403 . S
C2486 C2487 1.404 . S
C2486 C2489 1.539 . S
C2487 C2483 1.408 . S
C2487 C2486 1.404 . S
C2487 H2499 0.930 . S
C2488 C2484 1.524 . S
C2488 H2500 0.956 . S
C2488 H2501 0.961 . S
C2488 H2502 0.961 . S
C2489 C2486 1.539 . S
C2489 H2503 0.958 . S
C2489 H2504 0.961 . S
C2489 H2505 0.960 . S
H2490 C2474 0.931 . S
H2491 C2479 0.929 . S
H2492 C2480 0.960 . S
H2493 C2480 0.962 . S
H2494 C2480 0.960 . S
H2495 C2481 0.961 . S
H2496 C2481 0.961 . S
H2497 C2481 0.961 . S
H2498 C2482 0.931 . S
H2499 C2487 0.930 . S
H2500 C2488 0.956 . S
H2501 C2488 0.961 . S
H2502 C2488 0.961 . S
H2503 C2489 0.958 . S
H2504 C2489 0.961 . S
H2505 C2489 0.960 . S
C2506 C2507 1.391 . S
C2506 C2508 1.394 . S
C2506 H2522 0.931 . S
C2507 C2506 1.391 . S
C2507 C2511 1.376 . S
C2508 C2506 1.394 . S
C2508 C2509 1.369 . S
C2508 C2512 1.531 . S
C2509 C2508 1.369 . S
C2509 C2510 1.410 . S
C2509 C2517 1.503 . S
C2510 C2509 1.410 . S
C2510 C2511 1.392 . S
C2510 C2513 1.511 . S
C2511 C2507 1.376 . S
C2511 C2510 1.392 . S
C2511 H2523 0.929 . S
C2512 C2508 1.531 . S
C2512 H2524 0.960 . S
C2512 H2525 0.962 . S
C2512 H2526 0.960 . S
C2513 C2510 1.511 . S
C2513 H2527 0.961 . S
C2513 H2528 0.961 . S
C2513 H2529 0.961 . S
C2514 C2515 1.370 . S
C2514 C2516 1.363 . S
C2514 H2530 0.931 . S
C2515 C2514 1.370 . S
C2515 C2519 1.408 . S
C2516 C2514 1.363 . S
C2516 C2517 1.370 . S
C2516 C2520 1.524 . S
C2517 C2509 1.503 . S
C2517 C2516 1.370 . S
C2517 C2518 1.403 . S
C2518 C2517 1.403 . S
C2518 C2519 1.404 . S
C2518 C2521 1.539 . S
C2519 C2515 1.408 . S
C2519 C2518 1.404 . S
C2519 H2531 0.930 . S
C2520 C2516 1.524 . S
C2520 H2532 0.956 . S
C2520 H2533 0.961 . S
C2520 H2534 0.961 . S
C2521 C2518 1.539 . S
C2521 H2535 0.958 . S
C2521 H2536 0.961 . S
C2521 H2537 0.960 . S
H2522 C2506 0.931 . S
H2523 C2511 0.929 . S
H2524 C2512 0.960 . S
H2525 C2512 0.962 . S
H2526 C2512 0.960 . S
H2527 C2513 0.961 . S
H2528 C2513 0.961 . S
H2529 C2513 0.961 . S
H2530 C2514 0.931 . S
H2531 C2519 0.930 . S
H2532 C2520 0.956 . S
H2533 C2520 0.961 . S
H2534 C2520 0.961 . S
H2535 C2521 0.958 . S
H2536 C2521 0.961 . S
H2537 C2521 0.960 . S
C2538 C2539 1.391 . S
C2538 C2540 1.394 . S
C2538 H2554 0.931 . S
C2539 C2538 1.391 . S
C2539 C2543 1.376 . S
C2540 C2538 1.394 . S
C2540 C2541 1.369 . S
C2540 C2544 1.531 . S
C2541 C2540 1.369 . S
C2541 C2542 1.410 . S
C2541 C2549 1.503 . S
C2542 C2541 1.410 . S
C2542 C2543 1.392 . S
C2542 C2545 1.511 . S
C2543 C2539 1.376 . S
C2543 C2542 1.392 . S
C2543 H2555 0.929 . S
C2544 C2540 1.531 . S
C2544 H2556 0.960 . S
C2544 H2557 0.962 . S
C2544 H2558 0.960 . S
C2545 C2542 1.511 . S
C2545 H2559 0.961 . S
C2545 H2560 0.961 . S
C2545 H2561 0.961 . S
C2546 C2547 1.370 . S
C2546 C2548 1.363 . S
C2546 H2562 0.931 . S
C2547 C2546 1.370 . S
C2547 C2551 1.408 . S
C2548 C2546 1.363 . S
C2548 C2549 1.370 . S
C2548 C2552 1.524 . S
C2549 C2541 1.503 . S
C2549 C2548 1.370 . S
C2549 C2550 1.403 . S
C2550 C2549 1.403 . S
C2550 C2551 1.404 . S
C2550 C2553 1.539 . S
C2551 C2547 1.408 . S
C2551 C2550 1.404 . S
C2551 H2563 0.930 . S
C2552 C2548 1.524 . S
C2552 H2564 0.956 . S
C2552 H2565 0.961 . S
C2552 H2566 0.961 . S
C2553 C2550 1.539 . S
C2553 H2567 0.958 . S
C2553 H2568 0.961 . S
C2553 H2569 0.960 . S
H2554 C2538 0.931 . S
H2555 C2543 0.929 . S
H2556 C2544 0.960 . S
H2557 C2544 0.962 . S
H2558 C2544 0.960 . S
H2559 C2545 0.961 . S
H2560 C2545 0.961 . S
H2561 C2545 0.961 . S
H2562 C2546 0.931 . S
H2563 C2551 0.930 . S
H2564 C2552 0.956 . S
H2565 C2552 0.961 . S
H2566 C2552 0.961 . S
H2567 C2553 0.958 . S
H2568 C2553 0.961 . S
H2569 C2553 0.960 . S
C2570 C2571 1.391 . S
C2570 C2572 1.394 . S
C2570 H2586 0.931 . S
C2571 C2570 1.391 . S
C2571 C2575 1.376 . S
C2572 C2570 1.394 . S
C2572 C2573 1.369 . S
C2572 C2576 1.531 . S
C2573 C2572 1.369 . S
C2573 C2574 1.410 . S
C2573 C2581 1.503 . S
C2574 C2573 1.410 . S
C2574 C2575 1.392 . S
C2574 C2577 1.511 . S
C2575 C2571 1.376 . S
C2575 C2574 1.392 . S
C2575 H2587 0.929 . S
C2576 C2572 1.531 . S
C2576 H2588 0.960 . S
C2576 H2589 0.962 . S
C2576 H2590 0.960 . S
C2577 C2574 1.511 . S
C2577 H2591 0.961 . S
C2577 H2592 0.961 . S
C2577 H2593 0.961 . S
C2578 C2579 1.370 . S
C2578 C2580 1.363 . S
C2578 H2594 0.931 . S
C2579 C2578 1.370 . S
C2579 C2583 1.408 . S
C2580 C2578 1.363 . S
C2580 C2581 1.370 . S
C2580 C2584 1.524 . S
C2581 C2573 1.503 . S
C2581 C2580 1.370 . S
C2581 C2582 1.403 . S
C2582 C2581 1.403 . S
C2582 C2583 1.404 . S
C2582 C2585 1.539 . S
C2583 C2579 1.408 . S
C2583 C2582 1.404 . S
C2583 H2595 0.930 . S
C2584 C2580 1.524 . S
C2584 H2596 0.956 . S
C2584 H2597 0.961 . S
C2584 H2598 0.961 . S
C2585 C2582 1.539 . S
C2585 H2599 0.958 . S
C2585 H2600 0.961 . S
C2585 H2601 0.960 . S
H2586 C2570 0.931 . S
H2587 C2575 0.929 . S
H2588 C2576 0.960 . S
H2589 C2576 0.962 . S
H2590 C2576 0.960 . S
H2591 C2577 0.961 . S
H2592 C2577 0.961 . S
H2593 C2577 0.961 . S
H2594 C2578 0.931 . S
H2595 C2583 0.930 . S
H2596 C2584 0.956 . S
H2597 C2584 0.961 . S
H2598 C2584 0.961 . S
H2599 C2585 0.958 . S
H2600 C2585 0.961 . S
H2601 C2585 0.960 . S
C2602 C2603 1.391 . S
C2602 C2604 1.394 . S
C2602 H2618 0.931 . S
C2603 C2602 1.391 . S
C2603 C2607 1.376 . S
C2604 C2602 1.394 . S
C2604 C2605 1.369 . S
C2604 C2608 1.531 . S
C2605 C2604 1.369 . S
C2605 C2606 1.410 . S
C2605 C2613 1.503 . S
C2606 C2605 1.410 . S
C2606 C2607 1.392 . S
C2606 C2609 1.511 . S
C2607 C2603 1.376 . S
C2607 C2606 1.392 . S
C2607 H2619 0.929 . S
C2608 C2604 1.531 . S
C2608 H2620 0.960 . S
C2608 H2621 0.962 . S
C2608 H2622 0.960 . S
C2609 C2606 1.511 . S
C2609 H2623 0.961 . S
C2609 H2624 0.961 . S
C2609 H2625 0.961 . S
C2610 C2611 1.370 . S
C2610 C2612 1.363 . S
C2610 H2626 0.931 . S
C2611 C2610 1.370 . S
C2611 C2615 1.408 . S
C2612 C2610 1.363 . S
C2612 C2613 1.370 . S
C2612 C2616 1.524 . S
C2613 C2605 1.503 . S
C2613 C2612 1.370 . S
C2613 C2614 1.403 . S
C2614 C2613 1.403 . S
C2614 C2615 1.404 . S
C2614 C2617 1.539 . S
C2615 C2611 1.408 . S
C2615 C2614 1.404 . S
C2615 H2627 0.930 . S
C2616 C2612 1.524 . S
C2616 H2628 0.956 . S
C2616 H2629 0.961 . S
C2616 H2630 0.961 . S
C2617 C2614 1.539 . S
C2617 H2631 0.958 . S
C2617 H2632 0.961 . S
C2617 H2633 0.960 . S
H2618 C2602 0.931 . S
H2619 C2607 0.929 . S
H2620 C2608 0.960 . S
H2621 C2608 0.962 . S
H2622 C2608 0.960 . S
H2623 C2609 0.961 . S
H2624 C2609 0.961 . S
H2625 C2609 0.961 . S
H2626 C2610 0.931 . S
H2627 C2615 0.930 . S
H2628 C2616 0.956 . S
H2629 C2616 0.961 . S
H2630 C2616 0.961 . S
H2631 C2617 0.958 . S
H2632 C2617 0.961 . S
H2633 C2617 0.960 . S
C2634 C2635 1.391 . S
C2634 C2636 1.394 . S
C2634 H2650 0.931 . S
C2635 C2634 1.391 . S
C2635 C2639 1.376 . S
C2636 C2634 1.394 . S
C2636 C2637 1.369 . S
C2636 C2640 1.531 . S
C2637 C2636 1.369 . S
C2637 C2638 1.410 . S
C2637 C2645 1.503 . S
C2638 C2637 1.410 . S
C2638 C2639 1.392 . S
C2638 C2641 1.511 . S
C2639 C2635 1.376 . S
C2639 C2638 1.392 . S
C2639 H2651 0.929 . S
C2640 C2636 1.531 . S
C2640 H2652 0.960 . S
C2640 H2653 0.962 . S
C2640 H2654 0.960 . S
C2641 C2638 1.511 . S
C2641 H2655 0.961 . S
C2641 H2656 0.961 . S
C2641 H2657 0.961 . S
C2642 C2643 1.370 . S
C2642 C2644 1.363 . S
C2642 H2658 0.931 . S
C2643 C2642 1.370 . S
C2643 C2647 1.408 . S
C2644 C2642 1.363 . S
C2644 C2645 1.370 . S
C2644 C2648 1.524 . S
C2645 C2637 1.503 . S
C2645 C2644 1.370 . S
C2645 C2646 1.403 . S
C2646 C2645 1.403 . S
C2646 C2647 1.404 . S
C2646 C2649 1.539 . S
C2647 C2643 1.408 . S
C2647 C2646 1.404 . S
C2647 H2659 0.930 . S
C2648 C2644 1.524 . S
C2648 H2660 0.956 . S
C2648 H2661 0.961 . S
C2648 H2662 0.961 . S
C2649 C2646 1.539 . S
C2649 H2663 0.958 . S
C2649 H2664 0.961 . S
C2649 H2665 0.960 . S
H2650 C2634 0.931 . S
H2651 C2639 0.929 . S
H2652 C2640 0.960 . S
H2653 C2640 0.962 . S
H2654 C2640 0.960 . S
H2655 C2641 0.961 . S
H2656 C2641 0.961 . S
H2657 C2641 0.961 . S
H2658 C2642 0.931 . S
H2659 C2647 0.930 . S
H2660 C2648 0.956 . S
H2661 C2648 0.961 . S
H2662 C2648 0.961 . S
H2663 C2649 0.958 . S
H2664 C2649 0.961 . S
H2665 C2649 0.960 . S
C2666 C2667 1.391 . S
C2666 C2668 1.394 . S
C2666 H2682 0.931 . S
C2667 C2666 1.391 . S
C2667 C2671 1.376 . S
C2668 C2666 1.394 . S
C2668 C2669 1.369 . S
C2668 C2672 1.531 . S
C2669 C2668 1.369 . S
C2669 C2670 1.410 . S
C2669 C2677 1.503 . S
C2670 C2669 1.410 . S
C2670 C2671 1.392 . S
C2670 C2673 1.511 . S
C2671 C2667 1.376 . S
C2671 C2670 1.392 . S
C2671 H2683 0.929 . S
C2672 C2668 1.531 . S
C2672 H2684 0.960 . S
C2672 H2685 0.962 . S
C2672 H2686 0.960 . S
C2673 C2670 1.511 . S
C2673 H2687 0.961 . S
C2673 H2688 0.961 . S
C2673 H2689 0.961 . S
C2674 C2675 1.370 . S
C2674 C2676 1.363 . S
C2674 H2690 0.931 . S
C2675 C2674 1.370 . S
C2675 C2679 1.408 . S
C2676 C2674 1.363 . S
C2676 C2677 1.370 . S
C2676 C2680 1.524 . S
C2677 C2669 1.503 . S
C2677 C2676 1.370 . S
C2677 C2678 1.403 . S
C2678 C2677 1.403 . S
C2678 C2679 1.404 . S
C2678 C2681 1.539 . S
C2679 C2675 1.408 . S
C2679 C2678 1.404 . S
C2679 H2691 0.930 . S
C2680 C2676 1.524 . S
C2680 H2692 0.956 . S
C2680 H2693 0.961 . S
C2680 H2694 0.961 . S
C2681 C2678 1.539 . S
C2681 H2695 0.958 . S
C2681 H2696 0.961 . S
C2681 H2697 0.960 . S
H2682 C2666 0.931 . S
H2683 C2671 0.929 . S
H2684 C2672 0.960 . S
H2685 C2672 0.962 . S
H2686 C2672 0.960 . S
H2687 C2673 0.961 . S
H2688 C2673 0.961 . S
H2689 C2673 0.961 . S
H2690 C2674 0.931 . S
H2691 C2679 0.930 . S
H2692 C2680 0.956 . S
H2693 C2680 0.961 . S
H2694 C2680 0.961 . S
H2695 C2681 0.958 . S
H2696 C2681 0.961 . S
H2697 C2681 0.960 . S
C2698 C2699 1.391 . S
C2698 C2700 1.394 . S
C2698 H2714 0.931 . S
C2699 C2698 1.391 . S
C2699 C2703 1.376 . S
C2700 C2698 1.394 . S
C2700 C2701 1.369 . S
C2700 C2704 1.531 . S
C2701 C2700 1.369 . S
C2701 C2702 1.410 . S
C2701 C2709 1.503 . S
C2702 C2701 1.410 . S
C2702 C2703 1.392 . S
C2702 C2705 1.511 . S
C2703 C2699 1.376 . S
C2703 C2702 1.392 . S
C2703 H2715 0.929 . S
C2704 C2700 1.531 . S
C2704 H2716 0.960 . S
C2704 H2717 0.962 . S
C2704 H2718 0.960 . S
C2705 C2702 1.511 . S
C2705 H2719 0.961 . S
C2705 H2720 0.961 . S
C2705 H2721 0.961 . S
C2706 C2707 1.370 . S
C2706 C2708 1.363 . S
C2706 H2722 0.931 . S
C2707 C2706 1.370 . S
C2707 C2711 1.408 . S
C2708 C2706 1.363 . S
C2708 C2709 1.370 . S
C2708 C2712 1.524 . S
C2709 C2701 1.503 . S
C2709 C2708 1.370 . S
C2709 C2710 1.403 . S
C2710 C2709 1.403 . S
C2710 C2711 1.404 . S
C2710 C2713 1.539 . S
C2711 C2707 1.408 . S
C2711 C2710 1.404 . S
C2711 H2723 0.930 . S
C2712 C2708 1.524 . S
C2712 H2724 0.956 . S
C2712 H2725 0.961 . S
C2712 H2726 0.961 . S
C2713 C2710 1.539 . S
C2713 H2727 0.958 . S
C2713 H2728 0.961 . S
C2713 H2729 0.960 . S
H2714 C2698 0.931 . S
H2715 C2703 0.929 . S
H2716 C2704 0.960 . S
H2717 C2704 0.962 . S
H2718 C2704 0.960 . S
H2719 C2705 0.961 . S
H2720 C2705 0.961 . S
H2721 C2705 0.961 . S
H2722 C2706 0.931 . S
H2723 C2711 0.930 . S
H2724 C2712 0.956 . S
H2725 C2712 0.961 . S
H2726 C2712 0.961 . S
H2727 C2713 0.958 . S
H2728 C2713 0.961 . S
H2729 C2713 0.960 . S
C2730 C2731 1.391 . S
C2730 C2732 1.394 . S
C2730 H2746 0.931 . S
C2731 C2730 1.391 . S
C2731 C2735 1.376 . S
C2732 C2730 1.394 . S
C2732 C2733 1.369 . S
C2732 C2736 1.531 . S
C2733 C2732 1.369 . S
C2733 C2734 1.410 . S
C2733 C2741 1.503 . S
C2734 C2733 1.410 . S
C2734 C2735 1.392 . S
C2734 C2737 1.511 . S
C2735 C2731 1.376 . S
C2735 C2734 1.392 . S
C2735 H2747 0.929 . S
C2736 C2732 1.531 . S
C2736 H2748 0.960 . S
C2736 H2749 0.962 . S
C2736 H2750 0.960 . S
C2737 C2734 1.511 . S
C2737 H2751 0.961 . S
C2737 H2752 0.961 . S
C2737 H2753 0.961 . S
C2738 C2739 1.370 . S
C2738 C2740 1.363 . S
C2738 H2754 0.931 . S
C2739 C2738 1.370 . S
C2739 C2743 1.408 . S
C2740 C2738 1.363 . S
C2740 C2741 1.370 . S
C2740 C2744 1.524 . S
C2741 C2733 1.503 . S
C2741 C2740 1.370 . S
C2741 C2742 1.403 . S
C2742 C2741 1.403 . S
C2742 C2743 1.404 . S
C2742 C2745 1.539 . S
C2743 C2739 1.408 . S
C2743 C2742 1.404 . S
C2743 H2755 0.930 . S
C2744 C2740 1.524 . S
C2744 H2756 0.956 . S
C2744 H2757 0.961 . S
C2744 H2758 0.961 . S
C2745 C2742 1.539 . S
C2745 H2759 0.958 . S
C2745 H2760 0.961 . S
C2745 H2761 0.960 . S
H2746 C2730 0.931 . S
H2747 C2735 0.929 . S
H2748 C2736 0.960 . S
H2749 C2736 0.962 . S
H2750 C2736 0.960 . S
H2751 C2737 0.961 . S
H2752 C2737 0.961 . S
H2753 C2737 0.961 . S
H2754 C2738 0.931 . S
H2755 C2743 0.930 . S
H2756 C2744 0.956 . S
H2757 C2744 0.961 . S
H2758 C2744 0.961 . S
H2759 C2745 0.958 . S
H2760 C2745 0.961 . S
H2761 C2745 0.960 . S
C2762 C2763 1.391 . S
C2762 C2764 1.394 . S
C2762 H2778 0.931 . S
C2763 C2762 1.391 . S
C2763 C2767 1.376 . S
C2764 C2762 1.394 . S
C2764 C2765 1.369 . S
C2764 C2768 1.531 . S
C2765 C2764 1.369 . S
C2765 C2766 1.410 . S
C2765 C2773 1.503 . S
C2766 C2765 1.410 . S
C2766 C2767 1.392 . S
C2766 C2769 1.511 . S
C2767 C2763 1.376 . S
C2767 C2766 1.392 . S
C2767 H2779 0.929 . S
C2768 C2764 1.531 . S
C2768 H2780 0.960 . S
C2768 H2781 0.962 . S
C2768 H2782 0.960 . S
C2769 C2766 1.511 . S
C2769 H2783 0.961 . S
C2769 H2784 0.961 . S
C2769 H2785 0.961 . S
C2770 C2771 1.370 . S
C2770 C2772 1.363 . S
C2770 H2786 0.931 . S
C2771 C2770 1.370 . S
C2771 C2775 1.408 . S
C2772 C2770 1.363 . S
C2772 C2773 1.370 . S
C2772 C2776 1.524 . S
C2773 C2765 1.503 . S
C2773 C2772 1.370 . S
C2773 C2774 1.403 . S
C2774 C2773 1.403 . S
C2774 C2775 1.404 . S
C2774 C2777 1.539 . S
C2775 C2771 1.408 . S
C2775 C2774 1.404 . S
C2775 H2787 0.930 . S
C2776 C2772 1.524 . S
C2776 H2788 0.956 . S
C2776 H2789 0.961 . S
C2776 H2790 0.961 . S
C2777 C2774 1.539 . S
C2777 H2791 0.958 . S
C2777 H2792 0.961 . S
C2777 H2793 0.960 . S
H2778 C2762 0.931 . S
H2779 C2767 0.929 . S
H2780 C2768 0.960 . S
H2781 C2768 0.962 . S
H2782 C2768 0.960 . S
H2783 C2769 0.961 . S
H2784 C2769 0.961 . S
H2785 C2769 0.961 . S
H2786 C2770 0.931 . S
H2787 C2775 0.930 . S
H2788 C2776 0.956 . S
H2789 C2776 0.961 . S
H2790 C2776 0.961 . S
H2791 C2777 0.958 . S
H2792 C2777 0.961 . S
H2793 C2777 0.960 . S
C2794 C2795 1.391 . S
C2794 C2796 1.394 . S
C2794 H2810 0.931 . S
C2795 C2794 1.391 . S
C2795 C2799 1.376 . S
C2796 C2794 1.394 . S
C2796 C2797 1.369 . S
C2796 C2800 1.531 . S
C2797 C2796 1.369 . S
C2797 C2798 1.410 . S
C2797 C2805 1.503 . S
C2798 C2797 1.410 . S
C2798 C2799 1.392 . S
C2798 C2801 1.511 . S
C2799 C2795 1.376 . S
C2799 C2798 1.392 . S
C2799 H2811 0.929 . S
C2800 C2796 1.531 . S
C2800 H2812 0.960 . S
C2800 H2813 0.962 . S
C2800 H2814 0.960 . S
C2801 C2798 1.511 . S
C2801 H2815 0.961 . S
C2801 H2816 0.961 . S
C2801 H2817 0.961 . S
C2802 C2803 1.370 . S
C2802 C2804 1.363 . S
C2802 H2818 0.931 . S
C2803 C2802 1.370 . S
C2803 C2807 1.408 . S
C2804 C2802 1.363 . S
C2804 C2805 1.370 . S
C2804 C2808 1.524 . S
C2805 C2797 1.503 . S
C2805 C2804 1.370 . S
C2805 C2806 1.403 . S
C2806 C2805 1.403 . S
C2806 C2807 1.404 . S
C2806 C2809 1.539 . S
C2807 C2803 1.408 . S
C2807 C2806 1.404 . S
C2807 H2819 0.930 . S
C2808 C2804 1.524 . S
C2808 H2820 0.956 . S
C2808 H2821 0.961 . S
C2808 H2822 0.961 . S
C2809 C2806 1.539 . S
C2809 H2823 0.958 . S
C2809 H2824 0.961 . S
C2809 H2825 0.960 . S
H2810 C2794 0.931 . S
H2811 C2799 0.929 . S
H2812 C2800 0.960 . S
H2813 C2800 0.962 . S
H2814 C2800 0.960 . S
H2815 C2801 0.961 . S
H2816 C2801 0.961 . S
H2817 C2801 0.961 . S
H2818 C2802 0.931 . S
H2819 C2807 0.930 . S
H2820 C2808 0.956 . S
H2821 C2808 0.961 . S
H2822 C2808 0.961 . S
H2823 C2809 0.958 . S
H2824 C2809 0.961 . S
H2825 C2809 0.960 . S
C1099 C253 1.450 . S
C1107 C409 1.398 . S
C1131 C272 1.481 . S
C1139 C493 1.435 . S
C1163 C234 1.452 . S
C1171 C573 1.463 . S
C1195 C215 1.428 . S
C1203 C489 1.453 1_556 S
C1235 C577 1.404 . S
C1227 C177 1.463 . S
C1259 C196 1.404 . S
C1267 C405 1.425 1_556 S
C1299 C398 1.480 . S
C1291 C220 1.459 . S
C1331 C482 1.501 . S
C1323 C182 1.499 . S
C1355 C201 1.460 . S
C1363 C584 1.522 . S
C1387 C258 1.438 . S
C1395 C500 1.483 . S
C1419 C277 1.420 . S
C1427 C566 1.475 . S
C1459 C416 1.464 . S
C1451 C239 1.425 . S
C1491 C661 1.424 . S
C1483 C25 1.469 . S
C1515 C44 1.507 . S
C1523 C745 1.458 . S
C1547 C6 1.462 . S
C1555 C825 1.456 . S
C1579 C329 1.426 . S
C1587 C741 1.452 . S
C1611 C291 1.464 . S
C1619 C829 1.417 . S
C1643 C310 1.407 . S
C1651 C657 1.425 . S
C1675 C334 1.422 . S
C1683 C650 1.502 . S
C1707 C296 1.520 . S
C1715 C734 1.501 . S
C1747 C836 1.518 . S
C1739 C315 1.489 . S
C1771 C30 1.410 1_565 S
C1779 C752 1.494 . S
C1811 C818 1.449 . S
C1803 C49 1.448 1_455 S
C1835 C11 1.383 . S
C1843 C668 1.481 . S
C1875 C913 1.425 . S
C1867 C139 1.471 . S
C1899 C158 1.480 . S
C1907 C997 1.435 . S
C1939 C1077 1.456 . S
C1931 C120 1.457 . S
C1971 C993 1.448 . S
C1963 C101 1.453 . S
C2003 C1081 1.407 . S
C1995 C63 1.452 . S
C2027 C82 1.406 . S
C2035 C909 1.419 . S
C2059 C106 1.420 1_655 S
C2067 C902 1.500 . S
C2091 C68 1.474 . S
C2099 C986 1.507 . S
C2131 C1088 1.528 . S
C2123 C87 1.456 1_545 S
C2155 C144 1.422 . S
C2163 C1004 1.488 . S
C2187 C163 1.427 . S
C2195 C1070 1.474 . S
C2219 C125 1.457 . S
C2227 C920 1.464 . S
C2251 C287 1.635 . S
C2259 C412 1.522 . S
C2291 C496 1.603 . S
C2283 C306 1.723 . S
C2315 C325 1.631 . S
C2323 C568 1.463 . S
C2347 C116 1.696 . S
C2355 C484 1.472 . S
C2379 C135 1.650 . S
C2387 C580 1.540 . S
C2419 C400 1.450 . S
C2411 C154 1.599 . S
C2443 C59 1.627 . S
C2451 C664 1.539 . S
C2475 C78 1.713 . S
C2483 C748 1.566 . S
C2507 C97 1.674 . S
C2515 C820 1.452 . S
C2539 C230 1.693 . S
C2547 C736 1.476 . S
C2579 C832 1.563 . S
C2571 C249 1.679 . S
C2603 C268 1.586 . S
C2611 C652 1.439 . S
C2635 C173 1.653 . S
C2643 C916 1.525 . S
C2667 C192 1.705 . S
C2675 C1000 1.568 . S
C2707 C1072 1.445 . S
C2699 C211 1.638 . S
C2731 C2 1.659 . S
C2739 C988 1.466 . S
C2763 C21 1.664 . S
C2771 C1084 1.526 . S
C2795 C40 1.615 . S
C2803 C904 1.447 . S
