# Generated by pormake.
# Topology nom, (4,4)-cn, num edge types: 1
# Building blocks:
#     Node 0, Type 0, BuildingBlock: MUDLON_clean_linker_0, # of connection points: 4
#     Node 1, Type 0, BuildingBlock: MUDLON_clean_linker_0, # of connection points: 4
#     Node 2, Type 0, BuildingBlock: MUDLON_clean_linker_0, # of connection points: 4
#     Node 3, Type 0, BuildingBlock: MUDLON_clean_linker_0, # of connection points: 4
#     Node 4, Type 0, BuildingBlock: MUDLON_clean_linker_0, # of connection points: 4
#     Node 5, Type 0, BuildingBlock: MUDLON_clean_linker_0, # of connection points: 4
#     Node 6, Type 1, BuildingBlock: UXUYUI_clean_sbu_0, # of connection points: 4
#     Node 7, Type 1, BuildingBlock: UXUYUI_clean_sbu_0, # of connection points: 4
#     Node 8, Type 1, BuildingBlock: UXUYUI_clean_sbu_0, # of connection points: 4
#     Node 9, Type 1, BuildingBlock: UXUYUI_clean_sbu_0, # of connection points: 4
#     Node 10, Type 1, BuildingBlock: UXUYUI_clean_sbu_0, # of connection points: 4
#     Node 11, Type 1, BuildingBlock: UXUYUI_clean_sbu_0, # of connection points: 4
#     Edge 12, Type (0, 1), BuildingBlock: EZIPEK_clean_linker_0, # of connection points: 2
#     Edge 13, Type (0, 1), BuildingBlock: EZIPEK_clean_linker_0, # of connection points: 2
#     Edge 14, Type (0, 1), BuildingBlock: EZIPEK_clean_linker_0, # of connection points: 2
#     Edge 15, Type (0, 1), BuildingBlock: EZIPEK_clean_linker_0, # of connection points: 2
#     Edge 16, Type (0, 1), BuildingBlock: EZIPEK_clean_linker_0, # of connection points: 2
#     Edge 17, Type (0, 1), BuildingBlock: EZIPEK_clean_linker_0, # of connection points: 2
#     Edge 18, Type (0, 1), BuildingBlock: EZIPEK_clean_linker_0, # of connection points: 2
#     Edge 19, Type (0, 1), BuildingBlock: EZIPEK_clean_linker_0, # of connection points: 2
#     Edge 20, Type (0, 1), BuildingBlock: EZIPEK_clean_linker_0, # of connection points: 2
#     Edge 21, Type (0, 1), BuildingBlock: EZIPEK_clean_linker_0, # of connection points: 2
#     Edge 22, Type (0, 1), BuildingBlock: EZIPEK_clean_linker_0, # of connection points: 2
#     Edge 23, Type (0, 1), BuildingBlock: EZIPEK_clean_linker_0, # of connection points: 2
#     Edge 24, Type (0, 1), BuildingBlock: EZIPEK_clean_linker_0, # of connection points: 2
#     Edge 25, Type (0, 1), BuildingBlock: EZIPEK_clean_linker_0, # of connection points: 2
#     Edge 26, Type (0, 1), BuildingBlock: EZIPEK_clean_linker_0, # of connection points: 2
#     Edge 27, Type (0, 1), BuildingBlock: EZIPEK_clean_linker_0, # of connection points: 2
#     Edge 28, Type (0, 1), BuildingBlock: EZIPEK_clean_linker_0, # of connection points: 2
#     Edge 29, Type (0, 1), BuildingBlock: EZIPEK_clean_linker_0, # of connection points: 2
#     Edge 30, Type (0, 1), BuildingBlock: EZIPEK_clean_linker_0, # of connection points: 2
#     Edge 31, Type (0, 1), BuildingBlock: EZIPEK_clean_linker_0, # of connection points: 2
#     Edge 32, Type (0, 1), BuildingBlock: EZIPEK_clean_linker_0, # of connection points: 2
#     Edge 33, Type (0, 1), BuildingBlock: EZIPEK_clean_linker_0, # of connection points: 2
#     Edge 34, Type (0, 1), BuildingBlock: EZIPEK_clean_linker_0, # of connection points: 2
#     Edge 35, Type (0, 1), BuildingBlock: EZIPEK_clean_linker_0, # of connection points: 2
# Relax obj value: 0.039
# Max RMSD: 0.151
# Mean RMSD: 0.119
data_MOF--net-nom--node1-UXUYUI_clean_sbu_0--node2-MUDLON_clean_linker_0--edge1-EZIPEK_clean_linker_0
_symmetry_space_group_name_H-M    P1
_symmetry_Int_Tables_number       1
_symmetry_cell_setting            triclinic
loop_
_symmetry_equiv_pos_as_xyz
'x, y, z'
_cell_length_a     58.647673
_cell_length_b     59.284398
_cell_length_c     59.180246
_cell_angle_alpha  90.317692
_cell_angle_beta   89.834494
_cell_angle_gamma 120.31865
loop_
_atom_site_label
_atom_site_type_symbol
_atom_site_fract_x
_atom_site_fract_y
_atom_site_fract_z
_atom_type_partial_charge
H0 H 0.16141 0.56555 0.3192 0.0
N1 N 0.11658 0.55773 0.33728 0.0
H2 H 0.19324 0.60308 0.29664 0.0
H3 H 0.11003 0.59784 0.32224 0.0
H4 H 0.14147 0.63493 0.29914 0.0
H5 H 0.1235 0.59812 0.36463 0.0
H6 H 0.1425 0.60762 0.40276 0.0
H7 H 0.12913 0.52839 0.36214 0.0
H8 H 0.14861 0.53816 0.40025 0.0
H9 H 0.09102 0.5167 0.31023 0.0
H10 H 0.07893 0.56815 0.35388 0.0
H11 H 0.04365 0.49165 0.30229 0.0
H12 H 0.03151 0.54275 0.34677 0.0
H13 H 0.8865 0.40369 0.29368 0.0
H14 H 0.86535 0.39347 0.25628 0.0
H15 H 0.91435 0.47405 0.23686 0.0
H16 H 0.9351 0.48439 0.27424 0.0
H17 H 0.89491 0.47687 0.30256 0.0
H18 H 0.8591 0.47396 0.32585 0.0
H19 H 0.87473 0.43124 0.37626 0.0
H20 H 0.90948 0.43244 0.35204 0.0
H21 H 0.95629 0.43478 0.31464 0.0
H22 H 0.00382 0.46168 0.32106 0.0
H23 H 0.9974 0.53117 0.31888 0.0
N24 N 0.92152 0.45042 0.30993 0.0
H25 H 0.94959 0.50381 0.31316 0.0
C26 C 0.1333 0.57872 0.32223 0.0
C27 C 0.15683 0.5805 0.31467 0.0
C28 C 0.17494 0.60186 0.30192 0.0
C29 C 0.1697 0.62175 0.29637 0.0
C30 C 0.14582 0.61974 0.30333 0.0
C31 C 0.12785 0.59851 0.3164 0.0
C32 C 0.12474 0.56235 0.36061 0.0
C33 C 0.1283 0.58458 0.37243 0.0
C34 C 0.13924 0.59008 0.39413 0.0
C35 C 0.14697 0.57361 0.40422 0.0
C36 C 0.14268 0.55103 0.39272 0.0
C37 C 0.13158 0.54545 0.3711 0.0
C38 C 0.08856 0.54404 0.33281 0.0
C39 C 0.07808 0.5225 0.31817 0.0
C40 C 0.05099 0.50814 0.31379 0.0
C41 C 0.03363 0.51497 0.32409 0.0
C42 C 0.04426 0.53701 0.33841 0.0
C43 C 0.07145 0.55146 0.34269 0.0
C44 C 0.91251 0.44465 0.28679 0.0
C45 C 0.89304 0.41902 0.28119 0.0
C46 C 0.88097 0.41323 0.25996 0.0
C47 C 0.8883 0.43303 0.2439 0.0
C48 C 0.90852 0.45852 0.24906 0.0
C49 C 0.92045 0.46436 0.27038 0.0
C50 C 0.90434 0.45401 0.32523 0.0
C51 C 0.89084 0.46694 0.31861 0.0
C52 C 0.87046 0.46545 0.33199 0.0
C53 C 0.86388 0.45189 0.35256 0.0
C54 C 0.87925 0.44144 0.36028 0.0
C55 C 0.89905 0.44217 0.34654 0.0
C56 C 0.9495 0.46724 0.3134 0.0
C57 C 0.96522 0.45583 0.31555 0.0
C58 C 0.99241 0.47129 0.31905 0.0
C59 C 0.00457 0.49868 0.32034 0.0
C60 C 0.9887 0.51015 0.31819 0.0
C61 C 0.96139 0.49458 0.31478 0.0
H62 H 0.48378 0.88363 0.48586 0.0
N63 N 0.482 0.9239 0.46882 0.0
H64 H 0.44906 0.84699 0.50733 0.0
H65 H 0.4375 0.92154 0.48625 0.0
H66 H 0.40288 0.88502 0.50814 0.0
H67 H 0.43844 0.9133 0.44389 0.0
H68 H 0.42706 0.89243 0.40651 0.0
H69 H 0.51271 0.91485 0.4417 0.0
H70 H 0.50115 0.89366 0.40428 0.0
H71 H 0.52478 0.95219 0.49355 0.0
H72 H 0.46474 0.95737 0.45609 0.0
H73 H 0.54672 0.99891 0.50193 0.0
H74 H 0.48708 0.00435 0.46352 0.0
H75 H 0.62453 0.14516 0.5192 0.0
H76 H 0.63442 0.16434 0.55739 0.0
H77 H 0.55112 0.12494 0.57234 0.0
H78 H 0.54124 0.10583 0.53425 0.0
H79 H 0.54049 0.13188 0.50218 0.0
H80 H 0.54408 0.17018 0.48311 0.0
H81 H 0.61309 0.18103 0.44745 0.0
H82 H 0.60975 0.14292 0.46685 0.0
H83 H 0.59667 0.08585 0.49066 0.0
H84 H 0.57245 0.03897 0.48286 0.0
H85 H 0.49872 0.03796 0.49162 0.0
N86 N 0.5773 0.11644 0.50045 0.0
H87 H 0.52333 0.0852 0.49848 0.0
C88 C 0.46331 0.90529 0.48458 0.0
C89 C 0.46644 0.88432 0.49111 0.0
C90 C 0.44666 0.86346 0.50323 0.0
C91 C 0.42346 0.86334 0.50917 0.0
C92 C 0.42073 0.88489 0.50368 0.0
C93 C 0.44048 0.9057 0.49129 0.0
C94 C 0.47663 0.91586 0.44549 0.0
C95 C 0.45262 0.90985 0.43514 0.0
C96 C 0.44604 0.89782 0.41388 0.0
C97 C 0.46328 0.89153 0.40277 0.0
C98 C 0.48769 0.89849 0.41263 0.0
C99 C 0.4943 0.91062 0.43384 0.0
C100 C 0.4934 0.9513 0.47401 0.0
C101 C 0.51641 0.96349 0.48709 0.0
C102 C 0.52901 0.99025 0.49167 0.0
C103 C 0.51896 0.00561 0.4831 0.0
C104 C 0.49536 0.99319 0.47048 0.0
C105 C 0.48263 0.96626 0.46605 0.0
C106 C 0.58226 0.12403 0.52389 0.0
C107 C 0.60847 0.14023 0.53091 0.0
C108 C 0.61408 0.15117 0.55257 0.0
C109 C 0.59347 0.14604 0.56756 0.0
C110 C 0.56723 0.12902 0.56096 0.0
C111 C 0.56163 0.11809 0.53924 0.0
C112 C 0.57501 0.13462 0.48595 0.0
C113 C 0.55594 0.14197 0.48981 0.0
C114 C 0.55799 0.16385 0.47897 0.0
C115 C 0.57893 0.17845 0.46401 0.0
C116 C 0.59678 0.16996 0.45892 0.0
C117 C 0.59484 0.14824 0.46988 0.0
C118 C 0.56191 0.08896 0.49528 0.0
C119 C 0.57528 0.07547 0.49077 0.0
C120 C 0.56135 0.04862 0.48653 0.0
C121 C 0.53355 0.03448 0.4869 0.0
C122 C 0.52009 0.04818 0.49108 0.0
C123 C 0.53414 0.07521 0.49518 0.0
H124 H 0.48057 0.62477 0.66093 0.0
N125 N 0.48094 0.5823 0.67389 0.0
H126 H 0.44682 0.62704 0.63832 0.0
H127 H 0.44013 0.54126 0.65126 0.0
H128 H 0.4068 0.54363 0.62784 0.0
H129 H 0.43393 0.55073 0.69517 0.0
H130 H 0.42103 0.55861 0.73256 0.0
H131 H 0.5124 0.6165 0.70484 0.0
H132 H 0.49972 0.62394 0.74261 0.0
H133 H 0.52381 0.59704 0.64917 0.0
H134 H 0.46373 0.53165 0.68636 0.0
H135 H 0.5461 0.57251 0.64098 0.0
H136 H 0.48647 0.50722 0.67915 0.0
H137 H 0.62585 0.49966 0.62921 0.0
H138 H 0.63712 0.49034 0.59163 0.0
H139 H 0.55625 0.45853 0.57051 0.0
H140 H 0.54484 0.46717 0.60819 0.0
H141 H 0.54291 0.43443 0.63911 0.0
H142 H 0.54488 0.39888 0.65836 0.0
H143 H 0.60706 0.45514 0.70139 0.0
H144 H 0.60548 0.49075 0.68177 0.0
H145 H 0.59684 0.53656 0.65375 0.0
H146 H 0.57195 0.55875 0.66064 0.0
H147 H 0.49894 0.48553 0.65135 0.0
N148 N 0.57827 0.48658 0.64467 0.0
H149 H 0.52422 0.46339 0.64535 0.0
C150 C 0.463 0.58299 0.65767 0.0
C151 C 0.46477 0.60705 0.65343 0.0
C152 C 0.44552 0.60831 0.64064 0.0
C153 C 0.42423 0.58548 0.63159 0.0
C154 C 0.42305 0.56143 0.63479 0.0
C155 C 0.44213 0.56012 0.64802 0.0
C156 C 0.47414 0.58329 0.69717 0.0
C157 C 0.44854 0.56648 0.70552 0.0
C158 C 0.44117 0.57096 0.72683 0.0
C159 C 0.45937 0.59199 0.7402 0.0
C160 C 0.4854 0.60768 0.73248 0.0
C161 C 0.49265 0.6034 0.71106 0.0
C162 C 0.49243 0.5664 0.66858 0.0
C163 C 0.5155 0.57735 0.65559 0.0
C164 C 0.5283 0.56335 0.65112 0.0
C165 C 0.51839 0.538 0.65973 0.0
C166 C 0.49465 0.52664 0.67218 0.0
C167 C 0.48171 0.54067 0.67648 0.0
C168 C 0.58466 0.48439 0.62151 0.0
C169 C 0.61069 0.49115 0.61633 0.0
C170 C 0.61707 0.48577 0.59499 0.0
C171 C 0.59749 0.47371 0.57837 0.0
C172 C 0.57161 0.46789 0.58315 0.0
C173 C 0.56515 0.47296 0.60464 0.0
C174 C 0.57428 0.46529 0.65896 0.0
C175 C 0.55642 0.4391 0.6531 0.0
C176 C 0.55754 0.41882 0.66405 0.0
C177 C 0.57625 0.42447 0.68114 0.0
C178 C 0.5925 0.45045 0.68824 0.0
C179 C 0.59155 0.47069 0.67715 0.0
C180 C 0.56249 0.49849 0.64894 0.0
C181 C 0.57546 0.52535 0.65328 0.0
C182 C 0.56115 0.53799 0.65701 0.0
C183 C 0.53336 0.52403 0.65627 0.0
C184 C 0.52028 0.49689 0.65218 0.0
C185 C 0.53472 0.4842 0.64859 0.0
H186 H 0.15112 0.6279 0.83228 0.0
N187 N 0.11379 0.58527 0.81219 0.0
H188 H 0.18309 0.63152 0.85951 0.0
H189 H 0.11735 0.54467 0.82985 0.0
H190 H 0.14908 0.5475 0.8568 0.0
H191 H 0.13152 0.55613 0.79044 0.0
H192 H 0.15269 0.56536 0.75316 0.0
H193 H 0.11726 0.6202 0.7824 0.0
H194 H 0.13748 0.62879 0.74464 0.0
H195 H 0.08326 0.60213 0.82913 0.0
H196 H 0.08142 0.53316 0.80338 0.0
H197 H 0.0355 0.57708 0.83543 0.0
H198 H 0.03344 0.50774 0.80967 0.0
H199 H 0.91047 0.51856 0.86728 0.0
H200 H 0.89148 0.50889 0.90557 0.0
H201 H 0.89102 0.43595 0.90456 0.0
H202 H 0.90988 0.44555 0.86635 0.0
H203 H 0.87797 0.48839 0.82322 0.0
H204 H 0.8411 0.45352 0.80176 0.0
H205 H 0.88004 0.40831 0.80218 0.0
H206 H 0.9167 0.44297 0.82398 0.0
H207 H 0.94774 0.53268 0.81978 0.0
H208 H 0.99521 0.55554 0.8119 0.0
H209 H 1.00029 0.4919 0.84174 0.0
N210 N 0.91905 0.48747 0.84055 0.0
H211 H 0.95277 0.46915 0.84949 0.0
C212 C 0.13108 0.58603 0.8298 0.0
C213 C 0.14993 0.61021 0.83856 0.0
C214 C 0.16796 0.61202 0.85484 0.0
C215 C 0.16714 0.58947 0.86379 0.0
C216 C 0.14905 0.56529 0.85342 0.0
C217 C 0.13094 0.56354 0.83714 0.0
C218 C 0.12321 0.58785 0.78932 0.0
C219 C 0.13261 0.57194 0.78058 0.0
C220 C 0.14462 0.57714 0.75929 0.0
C221 C 0.14684 0.5979 0.74626 0.0
C222 C 0.13608 0.61279 0.75449 0.0
C223 C 0.12454 0.60789 0.77592 0.0
C224 C 0.08579 0.56953 0.81588 0.0
C225 C 0.07244 0.58152 0.82488 0.0
C226 C 0.04519 0.56721 0.82834 0.0
C227 C 0.03066 0.54045 0.82293 0.0
C228 C 0.04413 0.52828 0.81415 0.0
C229 C 0.0715 0.54276 0.81052 0.0
C230 C 0.91167 0.48291 0.86403 0.0
C231 C 0.90682 0.50079 0.87555 0.0
C232 C 0.89598 0.49526 0.89727 0.0
C233 C 0.88988 0.47172 0.90776 0.0
C234 C 0.89574 0.45426 0.89669 0.0
C235 C 0.90657 0.45979 0.87494 0.0
C236 C 0.90011 0.46842 0.82509 0.0
C237 C 0.8788 0.4712 0.81827 0.0
C238 C 0.85782 0.45136 0.80613 0.0
C239 C 0.85792 0.42842 0.80049 0.0
C240 C 0.87975 0.42597 0.80637 0.0
C241 C 0.90067 0.44578 0.81875 0.0
C242 C 0.94672 0.49933 0.8352 0.0
C243 C 0.95911 0.52363 0.82446 0.0
C244 C 0.98621 0.53668 0.8201 0.0
C245 C 1.00155 0.5256 0.82635 0.0
C246 C 0.98898 0.50084 0.83659 0.0
C247 C 0.96179 0.48785 0.84109 0.0
H248 H 0.54353 0.15701 0.98573 0.0
N249 N 0.54352 0.11523 0.96965 0.0
H250 H 0.57928 0.19401 0.00633 0.0
H251 H 0.58817 0.11735 0.98657 0.0
H252 H 0.62369 0.15417 0.00749 0.0
H253 H 0.58703 0.12642 0.94423 0.0
H254 H 0.59669 0.14535 0.90626 0.0
H255 H 0.51063 0.12034 0.94224 0.0
H256 H 0.52023 0.1391 0.90401 0.0
H257 H 0.49984 0.08691 0.99321 0.0
H258 H 0.56211 0.08229 0.95865 0.0
H259 H 0.47853 0.0405 0.00235 0.0
H260 H 0.54131 0.03592 0.96814 0.0
H261 H 0.40004 0.89579 0.02386 0.0
H262 H 0.39157 0.87528 0.06132 0.0
H263 H 0.47538 0.90961 0.07179 0.0
H264 H 0.48385 0.93018 0.03442 0.0
H265 H 0.48895 0.91668 0.99778 0.0
H266 H 0.4882 0.87933 0.97874 0.0
H267 H 0.40812 0.85146 0.95727 0.0
H268 H 0.40869 0.88852 0.97666 0.0
H269 H 0.45671 0.96356 0.03216 0.0
H270 H 0.48311 0.00996 0.02516 0.0
H271 H 0.50201 0.99438 0.95847 0.0
N272 N 0.44641 0.92362 0.0033 0.0
H273 H 0.47633 0.94783 0.96556 0.0
C274 C 0.56303 0.13439 0.98473 0.0
C275 C 0.56073 0.15603 0.99085 0.0
C276 C 0.58107 0.17708 0.00248 0.0
C277 C 0.60403 0.17674 0.00831 0.0
C278 C 0.60601 0.15465 0.00314 0.0
C279 C 0.5857 0.13364 0.99127 0.0
C280 C 0.54804 0.12204 0.94608 0.0
C281 C 0.57208 0.12852 0.93544 0.0
C282 C 0.57763 0.13936 0.9138 0.0
C283 C 0.55922 0.14372 0.90249 0.0
C284 C 0.53464 0.13585 0.91254 0.0
C285 C 0.52916 0.12514 0.93422 0.0
C286 C 0.53244 0.08806 0.97529 0.0
C287 C 0.50902 0.07586 0.98781 0.0
C288 C 0.497 0.04938 0.99313 0.0
C289 C 0.50827 0.03444 0.9861 0.0
C290 C 0.53198 0.04678 0.97366 0.0
C291 C 0.54399 0.07336 0.96831 0.0
C292 C 0.44246 0.91445 0.02636 0.0
C293 C 0.41656 0.89921 0.0344 0.0
C294 C 0.41176 0.88753 0.05565 0.0
C295 C 0.43287 0.89095 0.06918 0.0
C296 C 0.45889 0.90681 0.06152 0.0
C297 C 0.46368 0.91844 0.04022 0.0
C298 C 0.44871 0.90524 0.9887 0.0
C299 C 0.4714 0.9028 0.98867 0.0
C300 C 0.47103 0.8816 0.97778 0.0
C301 C 0.44807 0.86272 0.96671 0.0
C302 C 0.42601 0.86594 0.96567 0.0
C303 C 0.42635 0.88703 0.97662 0.0
C304 C 0.46524 0.95136 1.00002 0.0
C305 C 0.46724 0.96979 0.01628 0.0
C306 C 0.48208 0.99659 0.01212 0.0
C307 C 0.49478 0.00598 0.99127 0.0
C308 C 0.49299 0.98786 0.97493 0.0
C309 C 0.47821 0.96097 0.97912 0.0
H310 H 0.54992 0.41407 0.16495 0.0
N311 N 0.54894 0.45688 0.17601 0.0
H312 H 0.58445 0.41104 0.14408 0.0
H313 H 0.59108 0.49731 0.15412 0.0
H314 H 0.62508 0.49412 0.13231 0.0
H315 H 0.59231 0.49207 0.19993 0.0
H316 H 0.60378 0.48587 0.2384 0.0
H317 H 0.51819 0.41967 0.20486 0.0
H318 H 0.5298 0.41327 0.24327 0.0
H319 H 0.50295 0.43795 0.15525 0.0
H320 H 0.56745 0.50923 0.18228 0.0
H321 H 0.47954 0.46091 0.14558 0.0
H322 H 0.54456 0.53268 0.17214 0.0
H323 H 0.39637 0.52226 0.12152 0.0
H324 H 0.38694 0.53435 0.08446 0.0
H325 H 0.47024 0.58696 0.07409 0.0
H326 H 0.4797 0.57439 0.11085 0.0
H327 H 0.48107 0.59389 0.14611 0.0
H328 H 0.47584 0.62735 0.16618 0.0
H329 H 0.40107 0.56754 0.19267 0.0
H330 H 0.40578 0.53413 0.17179 0.0
H331 H 0.45108 0.51027 0.11456 0.0
H332 H 0.47966 0.49239 0.12086 0.0
H333 H 0.50631 0.53542 0.18359 0.0
N334 N 0.44304 0.54218 0.14188 0.0
H335 H 0.47859 0.55417 0.17703 0.0
C336 C 0.5677 0.45576 0.16094 0.0
C337 C 0.56608 0.43157 0.1576 0.0
C338 C 0.58578 0.42988 0.1458 0.0
C339 C 0.6074 0.45238 0.13677 0.0
C340 C 0.60859 0.47656 0.13924 0.0
C341 C 0.58909 0.47833 0.15155 0.0
C342 C 0.55425 0.45632 0.19966 0.0
C343 C 0.57818 0.4753 0.20953 0.0
C344 C 0.58477 0.47172 0.2314 0.0
C345 C 0.56759 0.44913 0.24355 0.0
C346 C 0.54317 0.43087 0.23413 0.0
C347 C 0.53656 0.43452 0.21235 0.0
C348 C 0.53684 0.47177 0.16942 0.0
C349 C 0.51218 0.45868 0.15879 0.0
C350 C 0.49895 0.47192 0.15316 0.0
C351 C 0.51019 0.49875 0.15796 0.0
C352 C 0.5352 0.51199 0.16839 0.0
C353 C 0.54841 0.49863 0.17408 0.0
C354 C 0.43862 0.54745 0.11897 0.0
C355 C 0.41259 0.53602 0.11105 0.0
C356 C 0.40724 0.54295 0.09004 0.0
C357 C 0.4279 0.56164 0.07669 0.0
C358 C 0.45407 0.57255 0.08422 0.0
C359 C 0.45943 0.56545 0.10518 0.0
C360 C 0.44352 0.56149 0.15721 0.0
C361 C 0.46371 0.5879 0.15642 0.0
C362 C 0.46082 0.60697 0.16796 0.0
C363 C 0.438 0.59985 0.18074 0.0
C364 C 0.41882 0.57333 0.1829 0.0
C365 C 0.42151 0.55434 0.17108 0.0
C366 C 0.463 0.53466 0.14466 0.0
C367 C 0.46367 0.51671 0.12934 0.0
C368 C 0.47981 0.50607 0.13315 0.0
C369 C 0.49531 0.51238 0.15277 0.0
C370 C 0.49503 0.53048 0.16806 0.0
C371 C 0.47899 0.54131 0.1642 0.0
Li372 Li 0.64465 0.40902 0.43043 0.0
Li373 Li 0.63357 0.36727 0.41176 0.0
Li374 Li 0.67515 0.40605 0.40328 0.0
Li375 Li 0.63557 0.4017 0.38881 0.0
C376 C 0.67787 0.37822 0.43934 0.0
N377 N 0.70945 0.35781 0.45095 0.0
C378 C 0.68173 0.36233 0.42409 0.0
C379 C 0.69038 0.38397 0.46039 0.0
C380 C 0.69765 0.35211 0.43032 0.0
C381 C 0.7062 0.37341 0.46597 0.0
C382 C 0.58775 0.3637 0.42212 0.0
C383 C 0.54818 0.32209 0.4159 0.0
N384 N 0.54059 0.32249 0.43757 0.0
C385 C 0.57948 0.36375 0.4443 0.0
C386 C 0.5719 0.34278 0.40776 0.0
C387 C 0.5556 0.34273 0.45179 0.0
C388 C 0.62692 0.43813 0.45461 0.0
N389 N 0.63932 0.42411 0.45682 0.0
C390 C 0.63995 0.4284 0.49701 0.0
C391 C 0.64598 0.41919 0.47744 0.0
C392 C 0.62666 0.44245 0.49523 0.0
C393 C 0.62027 0.44749 0.47375 0.0
H394 H 0.62158 0.44142 0.43797 0.0
H395 H 0.65533 0.40756 0.47869 0.0
C396 C 0.62017 0.3142 0.40388 0.0
N397 N 0.618 0.33074 0.41861 0.0
C398 C 0.61182 0.28848 0.41014 0.0
C399 C 0.59901 0.29717 0.44655 0.0
C400 C 0.60776 0.32275 0.43965 0.0
C401 C 0.6014 0.2799 0.43179 0.0
H402 H 0.62959 0.32128 0.38769 0.0
H403 H 0.60729 0.33653 0.4514 0.0
C404 C 0.68876 0.45489 0.40555 0.0
N405 N 0.7389 0.49832 0.4074 0.0
C406 C 0.70435 0.46367 0.38606 0.0
C407 C 0.69864 0.46832 0.42594 0.0
C408 C 0.72966 0.48561 0.38736 0.0
C409 C 0.72403 0.49023 0.42653 0.0
C410 C 0.64283 0.37413 0.3597 0.0
C411 C 0.65772 0.39252 0.34312 0.0
C412 C 0.61976 0.3512 0.35347 0.0
C413 C 0.64959 0.38737 0.32059 0.0
C414 C 0.61226 0.3468 0.33076 0.0
N415 N 0.62726 0.36478 0.31492 0.0
C416 C 0.71754 0.41036 0.37756 0.0
C417 C 0.73066 0.43084 0.41347 0.0
C418 C 0.74347 0.41742 0.3724 0.0
N419 N 0.71164 0.41744 0.39763 0.0
C420 C 0.75693 0.4379 0.40916 0.0
C421 C 0.76348 0.43129 0.3883 0.0
H422 H 0.70206 0.39874 0.3657 0.0
H423 H 0.72536 0.43573 0.42952 0.0
C424 C 0.59546 0.39403 0.35689 0.0
N425 N 0.62047 0.41075 0.3642 0.0
C426 C 0.58543 0.40027 0.33803 0.0
C427 C 0.62684 0.44099 0.33487 0.0
C428 C 0.63597 0.43408 0.35386 0.0
C429 C 0.6014 0.42386 0.32671 0.0
H430 H 0.5835 0.37564 0.36538 0.0
H431 H 0.65565 0.4471 0.36007 0.0
O432 O 0.66299 0.38909 0.43334 0.0
O433 O 0.6112 0.38402 0.41454 0.0
O434 O 0.66413 0.43309 0.40476 0.0
O435 O 0.65064 0.37873 0.38187 0.0
H436 H 0.67289 0.35826 0.40748 0.0
H437 H 0.68815 0.39667 0.47223 0.0
H438 H 0.70077 0.3398 0.41867 0.0
H439 H 0.716 0.37773 0.4822 0.0
H440 H 0.53585 0.30568 0.40501 0.0
H441 H 0.59139 0.37974 0.45569 0.0
H442 H 0.57801 0.34231 0.39062 0.0
H443 H 0.54902 0.34247 0.46894 0.0
H444 H 0.64496 0.42406 0.51339 0.0
H445 H 0.60986 0.45814 0.47189 0.0
H446 H 0.61439 0.27571 0.39856 0.0
H447 H 0.59146 0.2912 0.46353 0.0
H448 H 0.69725 0.45331 0.37019 0.0
H449 H 0.68696 0.46181 0.44121 0.0
H450 H 0.74203 0.49243 0.37247 0.0
H451 H 0.73195 0.50074 0.44222 0.0
H452 H 0.67514 0.4108 0.34761 0.0
H453 H 0.6076 0.33699 0.366 0.0
H454 H 0.66093 0.40144 0.30763 0.0
H455 H 0.59448 0.32911 0.32574 0.0
H456 H 0.74781 0.41161 0.35631 0.0
H457 H 0.7719 0.44824 0.42193 0.0
H458 H 0.56572 0.38662 0.33199 0.0
H459 H 0.6396 0.45931 0.32641 0.0
Li460 Li 0.2564 0.6462 0.59621 0.0
Li461 Li 0.29074 0.63998 0.57796 0.0
Li462 Li 0.2883 0.67775 0.56956 0.0
Li463 Li 0.25528 0.63628 0.55403 0.0
C464 C 0.31513 0.69035 0.60746 0.0
N465 N 0.35585 0.73823 0.6219 0.0
C466 C 0.34124 0.69822 0.60175 0.0
C467 C 0.30976 0.70665 0.62077 0.0
C468 C 0.36154 0.72254 0.60915 0.0
C469 C 0.33061 0.73084 0.62784 0.0
C470 C 0.2529 0.59219 0.58474 0.0
C471 C 0.25395 0.55409 0.5718 0.0
N472 N 0.25783 0.54911 0.59343 0.0
C473 C 0.2567 0.58661 0.60686 0.0
C474 C 0.25139 0.57577 0.56706 0.0
C475 C 0.25923 0.56477 0.6109 0.0
C476 C 0.21043 0.63385 0.62199 0.0
N477 N 0.23573 0.63882 0.62287 0.0
C478 C 0.23217 0.6308 0.66261 0.0
C479 C 0.2468 0.63753 0.64262 0.0
C480 C 0.20608 0.62573 0.66224 0.0
C481 C 0.19522 0.6275 0.64168 0.0
H482 H 0.20207 0.63476 0.60598 0.0
H483 H 0.26692 0.64142 0.64274 0.0
C484 C 0.31901 0.61323 0.56811 0.0
N485 N 0.3136 0.6266 0.58396 0.0
C486 C 0.33569 0.60349 0.57336 0.0
C487 C 0.34115 0.62193 0.61089 0.0
C488 C 0.32407 0.63085 0.60507 0.0
C489 C 0.34718 0.60816 0.59492 0.0
H490 H 0.31024 0.61002 0.55149 0.0
H491 H 0.31915 0.64123 0.61742 0.0
C492 C 0.24122 0.6806 0.5719 0.0
N493 N 0.22435 0.71636 0.57603 0.0
C494 C 0.23194 0.68758 0.55299 0.0
C495 C 0.24169 0.69167 0.59294 0.0
C496 C 0.2236 0.70576 0.55541 0.0
C497 C 0.23312 0.70973 0.59468 0.0
C498 C 0.29794 0.66446 0.52628 0.0
C499 C 0.28493 0.67717 0.51841 0.0
C500 C 0.31507 0.66126 0.51194 0.0
C501 C 0.28928 0.68649 0.49628 0.0
C502 C 0.31891 0.67086 0.4899 0.0
N503 N 0.30604 0.68316 0.48259 0.0
C504 C 0.33492 0.72032 0.55354 0.0
C505 C 0.30412 0.73304 0.56447 0.0
C506 C 0.35272 0.74562 0.54633 0.0
N507 N 0.31098 0.71435 0.56218 0.0
C508 C 0.32126 0.7586 0.55725 0.0
C509 C 0.34575 0.76493 0.54792 0.0
H510 H 0.3401 0.70528 0.552 0.0
H511 H 0.28534 0.7283 0.57157 0.0
C512 C 0.2104 0.62106 0.52695 0.0
N513 N 0.23286 0.61984 0.52878 0.0
C514 C 0.19514 0.61222 0.50733 0.0
C515 C 0.22581 0.6 0.49227 0.0
C516 C 0.24057 0.60923 0.51213 0.0
C517 C 0.20309 0.60192 0.48963 0.0
H518 H 0.20478 0.6296 0.54048 0.0
H519 H 0.25863 0.60868 0.51399 0.0
O520 O 0.29493 0.66692 0.59985 0.0
O521 O 0.25145 0.61403 0.58034 0.0
O522 O 0.2491 0.66252 0.56992 0.0
O523 O 0.29389 0.65495 0.54785 0.0
H524 H 0.34573 0.68587 0.59138 0.0
H525 H 0.28972 0.70073 0.62559 0.0
H526 H 0.38181 0.72899 0.60467 0.0
H527 H 0.32674 0.74372 0.63805 0.0
H528 H 0.25298 0.54128 0.55827 0.0
H529 H 0.25809 0.59923 0.62071 0.0
H530 H 0.24857 0.57989 0.54985 0.0
H531 H 0.26243 0.56035 0.6279 0.0
H532 H 0.24109 0.62958 0.67822 0.0
H533 H 0.17514 0.62373 0.64089 0.0
H534 H 0.33981 0.59272 0.56076 0.0
H535 H 0.34955 0.62565 0.62772 0.0
H536 H 0.23113 0.67906 0.53659 0.0
H537 H 0.24878 0.68657 0.60775 0.0
H538 H 0.21646 0.71139 0.5409 0.0
H539 H 0.23349 0.71851 0.61085 0.0
H540 H 0.27169 0.67985 0.52928 0.0
H541 H 0.32526 0.65142 0.51779 0.0
H542 H 0.27933 0.69636 0.48998 0.0
H543 H 0.33211 0.66851 0.47861 0.0
H544 H 0.3715 0.74996 0.53913 0.0
H545 H 0.31539 0.77319 0.55865 0.0
H546 H 0.17771 0.61398 0.50572 0.0
H547 H 0.23243 0.59219 0.47883 0.0
Li548 Li 0.67134 0.29136 0.74223 0.0
Li549 Li 0.6308 0.25811 0.75694 0.0
Li550 Li 0.63848 0.25584 0.7165 0.0
Li551 Li 0.62935 0.28938 0.73309 0.0
C552 C 0.65885 0.23415 0.75429 0.0
N553 N 0.65661 0.19438 0.78012 0.0
C554 C 0.67847 0.23959 0.77031 0.0
C555 C 0.63822 0.20846 0.75129 0.0
C556 C 0.67698 0.21921 0.78321 0.0
C557 C 0.63738 0.18864 0.76457 0.0
C558 C 0.64415 0.29798 0.78492 0.0
C559 C 0.61606 0.29224 0.81682 0.0
N560 N 0.63707 0.30018 0.8309 0.0
C561 C 0.66552 0.30627 0.79968 0.0
C562 C 0.61927 0.29113 0.79352 0.0
C563 C 0.66152 0.3072 0.82288 0.0
C564 C 0.71425 0.33973 0.75461 0.0
N565 N 0.70775 0.31512 0.74825 0.0
C566 C 0.75219 0.32494 0.75402 0.0
C567 C 0.72616 0.3076 0.74735 0.0
C568 C 0.7591 0.35015 0.76133 0.0
C569 C 0.74001 0.3577 0.76121 0.0
H570 H 0.69916 0.34511 0.75515 0.0
H571 H 0.72048 0.288 0.74196 0.0
C572 C 0.58959 0.2175 0.78293 0.0
N573 N 0.61556 0.23639 0.78303 0.0
C574 C 0.57847 0.20123 0.80166 0.0
C575 C 0.62108 0.22396 0.82007 0.0
C576 C 0.63132 0.23976 0.80108 0.0
C577 C 0.5944 0.20449 0.82043 0.0
H578 H 0.57756 0.21496 0.76827 0.0
H579 H 0.65195 0.25461 0.80068 0.0
C580 C 0.67958 0.31622 0.70389 0.0
N581 N 0.72506 0.36069 0.69016 0.0
C582 C 0.68142 0.34062 0.70541 0.0
C583 C 0.70089 0.31444 0.69539 0.0
C584 C 0.70456 0.36286 0.69834 0.0
C585 C 0.72372 0.33715 0.68856 0.0
C586 C 0.58293 0.24829 0.72444 0.0
C587 C 0.57661 0.24455 0.70145 0.0
C588 C 0.56586 0.25045 0.73966 0.0
C589 C 0.55337 0.24324 0.69405 0.0
C590 C 0.54283 0.24908 0.73159 0.0
N591 N 0.53712 0.24554 0.70914 0.0
C592 C 0.61155 0.20937 0.69084 0.0
C593 C 0.64769 0.24439 0.67191 0.0
C594 C 0.6051 0.19368 0.67152 0.0
N595 N 0.63246 0.23424 0.69065 0.0
C596 C 0.64196 0.22938 0.65222 0.0
C597 C 0.6203 0.20383 0.65192 0.0
H598 H 0.59934 0.20203 0.70577 0.0
H599 H 0.66383 0.26435 0.67204 0.0
C600 C 0.6076 0.31078 0.70393 0.0
N601 N 0.61412 0.31028 0.72588 0.0
C602 C 0.59901 0.32776 0.69712 0.0
C603 C 0.60399 0.34346 0.73563 0.0
C604 C 0.61227 0.32597 0.74175 0.0
C605 C 0.59763 0.34465 0.71301 0.0
H606 H 0.61 0.29865 0.69155 0.0
H607 H 0.61817 0.32563 0.75896 0.0
O608 O 0.65965 0.25391 0.74181 0.0
O609 O 0.64761 0.29665 0.76218 0.0
O610 O 0.65742 0.2943 0.71139 0.0
O611 O 0.60584 0.25011 0.73199 0.0
H612 H 0.69441 0.25939 0.77308 0.0
H613 H 0.62277 0.20395 0.73915 0.0
H614 H 0.69191 0.22317 0.79577 0.0
H615 H 0.62137 0.16871 0.76258 0.0
H616 H 0.59685 0.28677 0.82372 0.0
H617 H 0.6849 0.31153 0.79337 0.0
H618 H 0.60256 0.28479 0.78234 0.0
H619 H 0.67783 0.31339 0.83451 0.0
H620 H 0.76659 0.31863 0.75399 0.0
H621 H 0.74482 0.37702 0.76688 0.0
H622 H 0.55776 0.18631 0.80154 0.0
H623 H 0.63383 0.22688 0.83434 0.0
H624 H 0.6653 0.34247 0.7122 0.0
H625 H 0.70004 0.29579 0.69455 0.0
H626 H 0.70627 0.38188 0.69947 0.0
H627 H 0.74044 0.33608 0.68213 0.0
H628 H 0.5897 0.24313 0.68937 0.0
H629 H 0.57038 0.25322 0.75751 0.0
H630 H 0.54832 0.24052 0.67629 0.0
H631 H 0.52951 0.25083 0.74318 0.0
H632 H 0.58808 0.17411 0.67166 0.0
H633 H 0.65387 0.23776 0.63722 0.0
H634 H 0.59454 0.3285 0.67949 0.0
H635 H 0.60342 0.35651 0.74819 0.0
Li636 Li 0.38867 0.63395 0.92981 0.0
Li637 Li 0.39849 0.67599 0.91354 0.0
Li638 Li 0.35487 0.63491 0.90751 0.0
Li639 Li 0.39404 0.64063 0.88788 0.0
C640 C 0.37032 0.65474 0.95907 0.0
N641 N 0.37043 0.6553 0.00578 0.0
C642 C 0.38879 0.67703 0.97086 0.0
C643 C 0.35177 0.63282 0.97106 0.0
C644 C 0.38854 0.67692 0.99446 0.0
C645 C 0.3522 0.63346 0.99466 0.0
C646 C 0.44699 0.6761 0.9087 0.0
C647 C 0.4827 0.70481 0.88403 0.0
N648 N 0.50019 0.71009 0.9011 0.0
C649 C 0.46539 0.6816 0.92592 0.0
C650 C 0.45577 0.68762 0.88752 0.0
C651 C 0.49216 0.69891 0.92178 0.0
C652 C 0.38295 0.59283 0.95856 0.0
N653 N 0.39596 0.61915 0.95545 0.0
C654 C 0.4195 0.62614 0.99011 0.0
C655 C 0.41405 0.63578 0.97068 0.0
C656 C 0.40611 0.59913 0.99388 0.0
C657 C 0.38767 0.58232 0.97787 0.0
H658 H 0.36877 0.58002 0.94615 0.0
H659 H 0.42391 0.65661 0.96792 0.0
C660 C 0.3953 0.7204 0.92012 0.0
N661 N 0.41341 0.71251 0.91946 0.0
C662 C 0.40277 0.74588 0.92657 0.0
C663 C 0.44767 0.75507 0.93084 0.0
C664 C 0.43929 0.72929 0.92444 0.0
C665 C 0.42914 0.76333 0.93229 0.0
H666 H 0.37484 0.70655 0.91627 0.0
H667 H 0.45331 0.72262 0.92414 0.0
C668 C 0.34405 0.58717 0.90065 0.0
N669 N 0.29585 0.54324 0.89133 0.0
C670 C 0.33841 0.57657 0.87884 0.0
C671 C 0.32529 0.57522 0.91777 0.0
C672 C 0.31391 0.55438 0.87446 0.0
C673 C 0.301 0.5531 0.91271 0.0
C674 C 0.38253 0.67648 0.86575 0.0
C675 C 0.36366 0.66806 0.84853 0.0
C676 C 0.4065 0.69987 0.86313 0.0
C677 C 0.36939 0.68269 0.82874 0.0
C678 C 0.41149 0.71398 0.84311 0.0
N679 N 0.39301 0.70515 0.82645 0.0
C680 C 0.304 0.62379 0.9218 0.0
C681 C 0.30644 0.6132 0.88351 0.0
C682 C 0.27746 0.61642 0.91916 0.0
N683 N 0.31793 0.62227 0.90404 0.0
C684 C 0.28008 0.60604 0.88002 0.0
C685 C 0.26547 0.60799 0.89792 0.0
H686 H 0.31362 0.63125 0.93788 0.0
H687 H 0.31787 0.61187 0.86976 0.0
C688 C 0.42823 0.62964 0.86222 0.0
N689 N 0.40645 0.63216 0.86102 0.0
C690 C 0.43759 0.62316 0.84295 0.0
C691 C 0.40124 0.62081 0.82177 0.0
C692 C 0.39281 0.62767 0.84137 0.0
C693 C 0.42397 0.61866 0.82246 0.0
H694 H 0.43835 0.63264 0.87816 0.0
H695 H 0.37506 0.62889 0.84101 0.0
O696 O 0.37056 0.65428 0.93593 0.0
O697 O 0.42067 0.65917 0.91253 0.0
O698 O 0.36768 0.60927 0.90515 0.0
O699 O 0.37708 0.66247 0.88537 0.0
H700 H 0.40338 0.69416 0.96194 0.0
H701 H 0.33734 0.6154 0.96227 0.0
H702 H 0.40281 0.69399 0.00379 0.0
H703 H 0.33809 0.61656 0.00415 0.0
H704 H 0.4897 0.71385 0.8677 0.0
H705 H 0.45913 0.67264 0.94232 0.0
H706 H 0.44205 0.68307 0.87378 0.0
H707 H 0.50656 0.70343 0.935 0.0
H708 H 0.43375 0.63959 0.00224 0.0
H709 H 0.37701 0.56137 0.98039 0.0
H710 H 0.38804 0.75174 0.92766 0.0
H711 H 0.46814 0.76815 0.93533 0.0
H712 H 0.35272 0.58542 0.86542 0.0
H713 H 0.32931 0.58314 0.93473 0.0
H714 H 0.30924 0.54606 0.85763 0.0
H715 H 0.28621 0.54381 0.92576 0.0
H716 H 0.34483 0.6503 0.8503 0.0
H717 H 0.42108 0.70725 0.87642 0.0
H718 H 0.35503 0.67622 0.81523 0.0
H719 H 0.43003 0.73203 0.84086 0.0
H720 H 0.26661 0.61805 0.93332 0.0
H721 H 0.27128 0.59942 0.86347 0.0
H722 H 0.45513 0.62153 0.84401 0.0
H723 H 0.3902 0.61723 0.80623 0.0
Li724 Li 0.74328 0.40081 0.07911 0.0
Li725 Li 0.77642 0.39224 0.09611 0.0
Li726 Li 0.77766 0.40322 0.05535 0.0
Li727 Li 0.74402 0.36094 0.06888 0.0
C728 C 0.78136 0.44613 0.09111 0.0
N729 N 0.77678 0.48661 0.10949 0.0
C730 C 0.78159 0.44927 0.11455 0.0
C731 C 0.77894 0.46365 0.07701 0.0
C732 C 0.77923 0.46986 0.12351 0.0
C733 C 0.77661 0.48397 0.08663 0.0
C734 C 0.71428 0.35074 0.10621 0.0
C735 C 0.68989 0.31026 0.12665 0.0
N736 N 0.66689 0.30773 0.11895 0.0
C737 C 0.69036 0.34775 0.09857 0.0
C738 C 0.71403 0.33187 0.12045 0.0
C739 C 0.66663 0.32588 0.10517 0.0
C740 C 0.71251 0.42569 0.07123 0.0
N741 N 0.72085 0.41461 0.08678 0.0
C742 C 0.69572 0.4204 0.11572 0.0
C743 C 0.71317 0.41225 0.10876 0.0
C744 C 0.68653 0.43159 0.10001 0.0
C745 C 0.6955 0.43471 0.07759 0.0
H746 H 0.71888 0.42739 0.05388 0.0
H747 H 0.72026 0.40356 0.12081 0.0
C748 C 0.82396 0.41167 0.12053 0.0
N749 N 0.7972 0.39749 0.12236 0.0
C750 C 0.83979 0.41738 0.13974 0.0
C751 C 0.80019 0.39331 0.16221 0.0
C752 C 0.78514 0.38825 0.14261 0.0
C753 C 0.82783 0.40824 0.16087 0.0
H754 H 0.83294 0.41893 0.10419 0.0
H755 H 0.76382 0.37737 0.14358 0.0
C756 C 0.73965 0.38835 0.02617 0.0
N757 N 0.74253 0.39582 0.97995 0.0
C758 C 0.73511 0.36794 0.01148 0.0
C759 C 0.7457 0.41257 0.01732 0.0
C760 C 0.73664 0.3721 0.98817 0.0
C761 C 0.74706 0.41595 0.99392 0.0
C762 C 0.7914 0.35872 0.07448 0.0
C763 C 0.80819 0.35545 0.05975 0.0
C764 C 0.78399 0.34514 0.0949 0.0
C765 C 0.81705 0.33837 0.06561 0.0
C766 C 0.79332 0.32829 0.10018 0.0
N767 N 0.8095 0.32526 0.08554 0.0
C768 C 0.81463 0.4454 0.02703 0.0
C769 C 0.80204 0.40237 0.01515 0.0
C770 C 0.83042 0.4558 0.00779 0.0
N771 N 0.80067 0.41908 0.03017 0.0
C772 C 0.81744 0.41188 0.99571 0.0
C773 C 0.8317 0.43885 0.99188 0.0
H774 H 0.81334 0.45825 0.03932 0.0
H775 H 0.79075 0.38155 0.01812 0.0
C776 C 0.69662 0.31926 0.05349 0.0
N777 N 0.72104 0.32491 0.06048 0.0
C778 C 0.67816 0.29413 0.04622 0.0
C779 C 0.71031 0.28087 0.05303 0.0
C780 C 0.72814 0.30629 0.06035 0.0
C781 C 0.68507 0.27473 0.04584 0.0
H782 H 0.69164 0.3345 0.05313 0.0
H783 H 0.74767 0.31105 0.06545 0.0
O784 O 0.78262 0.42551 0.08204 0.0
O785 O 0.73777 0.3718 0.09956 0.0
O786 O 0.73866 0.3848 0.04907 0.0
O787 O 0.78299 0.37577 0.06918 0.0
H788 H 0.78322 0.43578 0.12572 0.0
H789 H 0.77837 0.46131 0.05885 0.0
H790 H 0.77922 0.47244 0.14162 0.0
H791 H 0.77451 0.49754 0.07593 0.0
H792 H 0.68944 0.29549 0.1376 0.0
H793 H 0.69007 0.36184 0.08723 0.0
H794 H 0.73224 0.3338 0.12668 0.0
H795 H 0.64802 0.32326 0.09923 0.0
H796 H 0.68929 0.41783 0.13317 0.0
H797 H 0.68889 0.44345 0.06511 0.0
H798 H 0.86107 0.42906 0.13823 0.0
H799 H 0.79043 0.38614 0.17832 0.0
H800 H 0.73082 0.34918 0.01794 0.0
H801 H 0.74988 0.42877 0.02839 0.0
H802 H 0.73326 0.3565 0.97662 0.0
H803 H 0.75191 0.43465 0.98686 0.0
H804 H 0.81435 0.36602 0.04397 0.0
H805 H 0.77105 0.34746 0.10645 0.0
H806 H 0.83 0.33559 0.05435 0.0
H807 H 0.78766 0.3176 0.11591 0.0
H808 H 0.84122 0.47673 0.00518 0.0
H809 H 0.81802 0.39836 0.98366 0.0
H810 H 0.6589 0.28999 0.04047 0.0
H811 H 0.71622 0.26627 0.05265 0.0
Li812 Li 0.39663 0.77672 0.25629 0.0
Li813 Li 0.35426 0.74494 0.23997 0.0
Li814 Li 0.39504 0.74386 0.23179 0.0
Li815 Li 0.38992 0.77838 0.21513 0.0
C816 C 0.38244 0.73685 0.28291 0.0
N817 N 0.39609 0.73656 0.32752 0.0
C818 C 0.36667 0.73764 0.30028 0.0
C819 C 0.40487 0.73542 0.28822 0.0
C820 C 0.37399 0.73764 0.32273 0.0
C821 C 0.4115 0.7354 0.31087 0.0
C822 C 0.35442 0.79188 0.23305 0.0
C823 C 0.32023 0.78726 0.20764 0.0
N824 N 0.32158 0.80894 0.21692 0.0
C825 C 0.35546 0.81409 0.24236 0.0
C826 C 0.33666 0.77831 0.21556 0.0
C827 C 0.33869 0.82241 0.23397 0.0
C828 C 0.43696 0.80999 0.28791 0.0
N829 N 0.41086 0.7981 0.28255 0.0
C830 C 0.40219 0.81683 0.31498 0.0
C831 C 0.39355 0.80141 0.29549 0.0
C832 C 0.42892 0.82912 0.32095 0.0
C833 C 0.44649 0.8257 0.30724 0.0
H834 H 0.45039 0.80742 0.27718 0.0
H835 H 0.37296 0.79191 0.29066 0.0
C836 C 0.30009 0.7055 0.23322 0.0
N837 N 0.31723 0.72636 0.24583 0.0
C838 C 0.2731 0.69219 0.23823 0.0
C839 C 0.28195 0.72181 0.26931 0.0
C840 C 0.30871 0.73457 0.26365 0.0
C841 C 0.26297 0.70089 0.25589 0.0
H842 H 0.30736 0.69891 0.21942 0.0
H843 H 0.32287 0.75091 0.27376 0.0
C844 C 0.44536 0.7854 0.2259 0.0
N845 N 0.49415 0.79174 0.2151 0.0
C846 C 0.45653 0.79486 0.20465 0.0
C847 C 0.45912 0.77935 0.24168 0.0
C848 C 0.48119 0.7979 0.19952 0.0
C849 C 0.48371 0.78261 0.23589 0.0
C850 C 0.36941 0.7264 0.19248 0.0
C851 C 0.389 0.73896 0.17606 0.0
C852 C 0.35247 0.69936 0.19117 0.0
C853 C 0.39093 0.72435 0.15835 0.0
C854 C 0.35495 0.68545 0.17313 0.0
N855 N 0.37395 0.69813 0.15722 0.0
C856 C 0.39403 0.69592 0.23625 0.0
C857 C 0.42549 0.72423 0.2095 0.0
C858 C 0.39947 0.67613 0.23073 0.0
N859 N 0.40691 0.7194 0.22556 0.0
C860 C 0.4319 0.70523 0.20378 0.0
C861 C 0.4185 0.68074 0.21421 0.0
H862 H 0.37888 0.69227 0.24854 0.0
H863 H 0.43462 0.74238 0.20037 0.0
C864 C 0.4176 0.82546 0.19058 0.0
N865 N 0.39639 0.80079 0.19003 0.0
C866 C 0.42393 0.84161 0.1717 0.0
C867 C 0.38575 0.80707 0.15252 0.0
C868 C 0.38021 0.79158 0.17171 0.0
C869 C 0.40805 0.83221 0.15235 0.0
H870 H 0.42998 0.83229 0.20547 0.0
H871 H 0.36336 0.77196 0.17181 0.0
O872 O 0.37613 0.73775 0.26082 0.0
O873 O 0.37077 0.78358 0.2411 0.0
O874 O 0.42129 0.78247 0.23127 0.0
O875 O 0.36706 0.74044 0.20985 0.0
H876 H 0.34917 0.7386 0.2965 0.0
H877 H 0.41702 0.7343 0.27499 0.0
H878 H 0.36213 0.73855 0.33635 0.0
H879 H 0.4289 0.73445 0.31522 0.0
H880 H 0.30641 0.77696 0.1941 0.0
H881 H 0.3691 0.82478 0.25593 0.0
H882 H 0.33554 0.76106 0.20817 0.0
H883 H 0.33928 0.83958 0.24101 0.0
H884 H 0.38823 0.81918 0.32528 0.0
H885 H 0.46726 0.83504 0.31149 0.0
H886 H 0.2608 0.67468 0.22858 0.0
H887 H 0.27704 0.72818 0.28467 0.0
H888 H 0.44617 0.79952 0.19214 0.0
H889 H 0.45088 0.77208 0.2582 0.0
H890 H 0.48999 0.80508 0.18311 0.0
H891 H 0.4945 0.77788 0.24792 0.0
H892 H 0.40283 0.75971 0.17712 0.0
H893 H 0.33766 0.68915 0.204 0.0
H894 H 0.406 0.73385 0.14555 0.0
H895 H 0.34189 0.66454 0.17187 0.0
H896 H 0.38854 0.65726 0.23884 0.0
H897 H 0.4463 0.70916 0.19063 0.0
H898 H 0.44128 0.86096 0.172 0.0
H899 H 0.37315 0.79937 0.13779 0.0
C900 C 0.19396 0.64266 0.2603 0.0
C901 C 0.18964 0.64493 0.28363 0.0
C902 C 0.22426 0.69088 0.28243 0.0
C903 C 0.2337 0.68599 0.26203 0.0
N904 N 0.21543 0.66623 0.22609 0.0
N905 N 0.20044 0.67234 0.317 0.0
C906 C 0.21501 0.66437 0.24905 0.0
C907 C 0.20442 0.66948 0.29468 0.0
N908 N 0.1784 0.61976 0.24902 0.0
N909 N 0.23108 0.71579 0.28816 0.0
H910 H 0.18633 0.65714 0.32685 0.0
H911 H 0.21266 0.68946 0.32599 0.0
H912 H 0.24196 0.73132 0.27713 0.0
H913 H 0.22288 0.72023 0.30193 0.0
H914 H 0.18266 0.61611 0.23276 0.0
H915 H 0.16188 0.60398 0.25636 0.0
H916 H 0.20095 0.65212 0.21561 0.0
H917 H 0.22865 0.68361 0.21794 0.0
C918 C 0.60547 0.22738 0.46515 0.0
C919 C 0.58411 0.20429 0.45576 0.0
C920 C 0.57248 0.23081 0.432 0.0
C921 C 0.59537 0.25372 0.43981 0.0
N922 N 0.63646 0.27357 0.46048 0.0
N923 N 0.54929 0.18354 0.4282 0.0
C924 C 0.61267 0.25194 0.45546 0.0
C925 C 0.56812 0.20585 0.4386 0.0
N926 N 0.61832 0.22595 0.48385 0.0
N927 N 0.55458 0.23295 0.41881 0.0
H928 H 0.54547 0.16498 0.43275 0.0
H929 H 0.53889 0.18351 0.41396 0.0
H930 H 0.55724 0.25091 0.41359 0.0
H931 H 0.53618 0.21716 0.41452 0.0
H932 H 0.63208 0.24233 0.49288 0.0
H933 H 0.61351 0.20838 0.49168 0.0
H934 H 0.6511 0.27283 0.46981 0.0
H935 H 0.64267 0.29194 0.4536 0.0
C936 C 0.37737 0.57652 0.62973 0.0
C937 C 0.40278 0.58715 0.61971 0.0
C938 C 0.39108 0.61005 0.5918 0.0
C939 C 0.36538 0.59862 0.60131 0.0
N940 N 0.33183 0.56539 0.62492 0.0
N941 N 0.4312 0.60808 0.5878 0.0
C942 C 0.3578 0.57994 0.61882 0.0
C943 C 0.40873 0.60194 0.59956 0.0
N944 N 0.37235 0.56463 0.65033 0.0
N945 N 0.39925 0.6297 0.57636 0.0
H946 H 0.44435 0.60212 0.59295 0.0
H947 H 0.43539 0.61672 0.5719 0.0
H948 H 0.38713 0.63652 0.5704 0.0
H949 H 0.41872 0.6407 0.57083 0.0
H950 H 0.35516 0.55922 0.65948 0.0
H951 H 0.38623 0.56222 0.6593 0.0
H952 H 0.32477 0.54978 0.63611 0.0
H953 H 0.31696 0.56723 0.61702 0.0
C954 C 0.83018 0.40607 0.76622 0.0
C955 C 0.83408 0.40634 0.78991 0.0
C956 C 0.78955 0.36846 0.79456 0.0
C957 C 0.78567 0.36812 0.77086 0.0
N958 N 0.80294 0.3833 0.73358 0.0
N959 N 0.81977 0.38582 0.82633 0.0
C960 C 0.80627 0.38591 0.7565 0.0
C961 C 0.81447 0.38681 0.80397 0.0
N962 N 0.84908 0.42557 0.75319 0.0
N963 N 0.769 0.35181 0.80813 0.0
H964 H 0.83735 0.39955 0.83408 0.0
H965 H 0.80763 0.37047 0.83699 0.0
H966 H 0.75082 0.33731 0.80183 0.0
H967 H 0.76927 0.35313 0.82568 0.0
H968 H 0.84643 0.42843 0.7363 0.0
H969 H 0.86728 0.43989 0.75963 0.0
H970 H 0.81792 0.39389 0.72197 0.0
H971 H 0.78544 0.3691 0.72601 0.0
C972 C 0.43777 0.81677 0.97313 0.0
C973 C 0.44596 0.83815 0.95816 0.0
C974 C 0.4443 0.81081 0.92619 0.0
C975 C 0.43673 0.78965 0.94126 0.0
N976 N 0.4305 0.77318 0.9793 0.0
N977 N 0.46124 0.85734 0.92149 0.0
C978 C 0.43485 0.7929 0.96483 0.0
C979 C 0.45055 0.83571 0.93497 0.0
N980 N 0.43179 0.81901 0.9951 0.0
N981 N 0.44475 0.80684 0.90345 0.0
H982 H 0.46567 0.87573 0.9274 0.0
H983 H 0.46754 0.85762 0.90499 0.0
H984 H 0.44123 0.78912 0.89655 0.0
H985 H 0.44713 0.82047 0.89129 0.0
H986 H 0.42264 0.80333 0.00617 0.0
H987 H 0.43441 0.83637 0.00204 0.0
H988 H 0.43186 0.77527 0.99679 0.0
H989 H 0.42743 0.7551 0.97382 0.0
C990 C 0.65455 0.46195 0.13514 0.0
C991 C 0.62894 0.45023 0.12538 0.0
C992 C 0.64111 0.4265 0.09847 0.0
C993 C 0.66722 0.43954 0.10725 0.0
N994 N 0.70049 0.47478 0.12977 0.0
N995 N 0.60029 0.42695 0.09406 0.0
C996 C 0.67449 0.45896 0.12425 0.0
C997 C 0.62304 0.43433 0.1058 0.0
N998 N 0.65952 0.47463 0.15547 0.0
N999 N 0.63298 0.40564 0.08416 0.0
H1000 H 0.58685 0.43276 0.09875 0.0
H1001 H 0.59616 0.41741 0.07848 0.0
H1002 H 0.64522 0.39861 0.07888 0.0
H1003 H 0.61337 0.39377 0.07924 0.0
H1004 H 0.67701 0.48101 0.16443 0.0
H1005 H 0.64535 0.47666 0.16447 0.0
H1006 H 0.70713 0.49087 0.14052 0.0
H1007 H 0.71567 0.47345 0.12179 0.0
C1008 C 0.38135 0.82032 0.50575 0.0
C1009 C 0.40145 0.83961 0.51975 0.0
C1010 C 0.38208 0.81153 0.55295 0.0
C1011 C 0.36365 0.79133 0.53857 0.0
N1012 N 0.3457 0.77541 0.50145 0.0
N1013 N 0.42198 0.85407 0.55623 0.0
C1014 C 0.36312 0.79552 0.51502 0.0
C1015 C 0.40196 0.83543 0.5433 0.0
N1016 N 0.37973 0.82582 0.48358 0.0
N1017 N 0.38039 0.8078 0.57582 0.0
H1018 H 0.43606 0.87226 0.5499 0.0
H1019 H 0.4255 0.85128 0.57291 0.0
H1020 H 0.36658 0.79025 0.58334 0.0
H1021 H 0.3914 0.82244 0.58754 0.0
H1022 H 0.36399 0.81389 0.47302 0.0
H1023 H 0.39337 0.84331 0.47591 0.0
H1024 H 0.3463 0.77589 0.48389 0.0
H1025 H 0.33118 0.75739 0.50774 0.0
C1026 C 0.60458 0.40401 0.68248 0.0
C1027 C 0.5813 0.40378 0.68951 0.0
C1028 C 0.56753 0.36347 0.71077 0.0
C1029 C 0.592 0.36522 0.70545 0.0
N1030 N 0.63609 0.39011 0.6902 0.0
N1031 N 0.54228 0.38564 0.7128 0.0
C1032 C 0.6112 0.38637 0.69244 0.0
C1033 C 0.56319 0.38414 0.70436 0.0
N1034 N 0.6199 0.42043 0.66564 0.0
N1035 N 0.54817 0.34169 0.72128 0.0
H1036 H 0.53847 0.40043 0.70833 0.0
H1037 H 0.52994 0.37352 0.72551 0.0
H1038 H 0.55072 0.32625 0.72626 0.0
H1039 H 0.52895 0.33796 0.72348 0.0
H1040 H 0.63545 0.41941 0.65815 0.0
H1041 H 0.61559 0.43344 0.65757 0.0
H1042 H 0.65169 0.40677 0.68298 0.0
H1043 H 0.64192 0.37781 0.69747 0.0
C1044 C 0.19114 0.57089 0.887 0.0
C1045 C 0.18749 0.59202 0.8812 0.0
C1046 C 0.23213 0.62266 0.89446 0.0
C1047 C 0.23793 0.60211 0.89422 0.0
N1048 N 0.22206 0.55574 0.89271 0.0
N1049 N 0.19724 0.63275 0.8984 0.0
C1050 C 0.21713 0.57587 0.89136 0.0
C1051 C 0.20581 0.61662 0.89062 0.0
N1052 N 0.16975 0.54731 0.89226 0.0
N1053 N 0.25174 0.64805 0.89719 0.0
H1054 H 0.1772 0.62696 0.89825 0.0
H1055 H 0.20929 0.64994 0.90734 0.0
H1056 H 0.27151 0.65359 0.89955 0.0
H1057 H 0.24851 0.66368 0.89523 0.0
H1058 H 0.1712 0.53169 0.89853 0.0
H1059 H 0.15091 0.54498 0.89354 0.0
H1060 H 0.20811 0.5366 0.88827 0.0
H1061 H 0.24048 0.55844 0.8972 0.0
C1062 C 0.62716 0.20502 0.04205 0.0
C1063 C 0.62662 0.20046 0.01843 0.0
C1064 C 0.66549 0.24397 0.01301 0.0
C1065 C 0.66618 0.24845 0.03665 0.0
N1066 N 0.65089 0.23253 0.07423 0.0
N1067 N 0.64712 0.21326 0.98174 0.0
C1068 C 0.648 0.22868 0.05136 0.0
C1069 C 0.64646 0.21922 0.00402 0.0
N1070 N 0.60728 0.18701 0.0554 0.0
N1071 N 0.68247 0.26378 0.9991 0.0
H1072 H 0.63293 0.19577 0.97432 0.0
H1073 H 0.66262 0.22476 0.97086 0.0
H1074 H 0.69741 0.2818 0.00512 0.0
H1075 H 0.68099 0.26306 0.98157 0.0
H1076 H 0.60462 0.19025 0.07224 0.0
H1077 H 0.59241 0.16901 0.04927 0.0
H1078 H 0.64004 0.21809 0.08606 0.0
H1079 H 0.66556 0.24988 0.08154 0.0
C1080 C 0.41579 0.62637 0.17744 0.0
C1081 C 0.43278 0.62029 0.18973 0.0
C1082 C 0.43893 0.6525 0.21898 0.0
C1083 C 0.4228 0.6593 0.20625 0.0
N1084 N 0.39641 0.65391 0.17331 0.0
N1085 N 0.46194 0.62799 0.22107 0.0
C1086 C 0.41131 0.64647 0.18548 0.0
C1087 C 0.44471 0.63345 0.21024 0.0
N1088 N 0.40376 0.61264 0.15816 0.0
N1089 N 0.44845 0.66414 0.23954 0.0
H1090 H 0.46572 0.61344 0.2156 0.0
H1091 H 0.4735 0.63848 0.23482 0.0
H1092 H 0.44554 0.67891 0.24595 0.0
H1093 H 0.45813 0.65849 0.25086 0.0
H1094 H 0.38884 0.61371 0.14968 0.0
H1095 H 0.40789 0.59907 0.15083 0.0
H1096 H 0.38997 0.64793 0.15685 0.0
H1097 H 0.39109 0.66713 0.17942 0.0
C1098 C 0.83677 0.468 0.37264 0.0
C1099 C 0.83949 0.44679 0.36483 0.0
C1100 C 0.79526 0.41619 0.37922 0.0
C1101 C 0.79081 0.43726 0.38309 0.0
N1102 N 0.80658 0.48352 0.38117 0.0
N1103 N 0.81889 0.4004 0.35699 0.0
C1104 C 0.81144 0.46334 0.3794 0.0
C1105 C 0.81818 0.42073 0.3673 0.0
N1106 N 0.85843 0.49251 0.37389 0.0
N1107 N 0.77757 0.39181 0.38698 0.0
H1108 H 0.83454 0.40275 0.34693 0.0
H1109 H 0.80267 0.38149 0.35644 0.0
H1110 H 0.76075 0.38792 0.39616 0.0
H1111 H 0.78108 0.37624 0.38642 0.0
H1112 H 0.85807 0.50827 0.38139 0.0
H1113 H 0.87733 0.49645 0.36947 0.0
H1114 H 0.82011 0.50254 0.37621 0.0
H1115 H 0.78827 0.48095 0.38586 0.0
C1116 C 0.14842 0.56643 0.44596 0.0
C1117 C 0.16113 0.58087 0.42623 0.0
C1118 C 0.20016 0.61054 0.44858 0.0
C1119 C 0.1885 0.59459 0.46783 0.0
N1120 N 0.15333 0.55513 0.48426 0.0
N1121 N 0.20085 0.61363 0.40779 0.0
C1122 C 0.16308 0.57189 0.46638 0.0
C1123 C 0.18751 0.6021 0.42726 0.0
N1124 N 0.12214 0.54805 0.44535 0.0
N1125 N 0.22287 0.63419 0.45079 0.0
H1126 H 0.19241 0.60791 0.39178 0.0
H1127 H 0.22099 0.62724 0.40735 0.0
H1128 H 0.23268 0.64123 0.46616 0.0
H1129 H 0.23068 0.64788 0.43785 0.0
H1130 H 0.11108 0.53884 0.4597 0.0
H1131 H 0.11078 0.54357 0.43069 0.0
H1132 H 0.1362 0.53688 0.48341 0.0
H1133 H 0.16353 0.55848 0.49946 0.0
C1134 C 0.60984 0.15243 0.60763 0.0
C1135 C 0.59941 0.16008 0.58956 0.0
C1136 C 0.59976 0.19421 0.61339 0.0
C1137 C 0.61264 0.18829 0.63066 0.0
N1138 N 0.633 0.1641 0.64354 0.0
N1139 N 0.58818 0.19068 0.57376 0.0
C1140 C 0.61848 0.16797 0.62763 0.0
C1141 C 0.59533 0.18162 0.59204 0.0
N1142 N 0.61087 0.12996 0.60585 0.0
N1143 N 0.5911 0.21135 0.61763 0.0
H1144 H 0.58465 0.18199 0.55781 0.0
H1145 H 0.58788 0.20809 0.57389 0.0
H1146 H 0.59403 0.22104 0.63305 0.0
H1147 H 0.57903 0.21427 0.60661 0.0
H1148 H 0.61565 0.12181 0.61926 0.0
H1149 H 0.60485 0.11823 0.59138 0.0
H1150 H 0.6404 0.15157 0.64123 0.0
H1151 H 0.63941 0.17494 0.65849 0.0
C1152 C 0.44346 0.58212 0.7805 0.0
C1153 C 0.45065 0.59884 0.76149 0.0
C1154 C 0.44352 0.62991 0.78349 0.0
C1155 C 0.43357 0.61191 0.80163 0.0
N1156 N 0.4197 0.56885 0.81602 0.0
N1157 N 0.45232 0.63606 0.74337 0.0
C1158 C 0.43235 0.58743 0.79979 0.0
C1159 C 0.44925 0.62205 0.76255 0.0
N1160 N 0.44794 0.56162 0.78038 0.0
N1161 N 0.44828 0.65481 0.78646 0.0
H1162 H 0.45597 0.63071 0.72754 0.0
H1163 H 0.4487 0.65154 0.74274 0.0
H1164 H 0.44472 0.66148 0.80166 0.0
H1165 H 0.45812 0.66954 0.77458 0.0
H1166 H 0.44568 0.55041 0.79461 0.0
H1167 H 0.45618 0.55725 0.7666 0.0
H1168 H 0.41575 0.54971 0.81438 0.0
H1169 H 0.41101 0.57185 0.83024 0.0
C1170 C 0.88914 0.46758 0.95008 0.0
C1171 C 0.87534 0.46436 0.92956 0.0
C1172 C 0.83383 0.4482 0.95047 0.0
C1173 C 0.84714 0.44902 0.9707 0.0
N1174 N 0.88668 0.45678 0.98987 0.0
N1175 N 0.83422 0.44853 0.90952 0.0
C1176 C 0.87464 0.45807 0.97056 0.0
C1177 C 0.84757 0.45389 0.92957 0.0
N1178 N 0.91613 0.48023 0.94999 0.0
N1179 N 0.80815 0.44251 0.95136 0.0
H1180 H 0.84357 0.45267 0.89382 0.0
H1181 H 0.8137 0.43813 0.90831 0.0
H1182 H 0.79741 0.43805 0.96638 0.0
H1183 H 0.79815 0.44433 0.93763 0.0
H1184 H 0.92757 0.4857 0.9646 0.0
H1185 H 0.92729 0.48706 0.93523 0.0
H1186 H 0.90593 0.46024 0.99036 0.0
H1187 H 0.87682 0.45051 0.00528 0.0
C1188 C 0.41917 0.88508 0.10999 0.0
C1189 C 0.42756 0.87666 0.09085 0.0
C1190 C 0.42646 0.84136 0.11305 0.0
C1191 C 0.41544 0.84809 0.13144 0.0
N1192 N 0.39803 0.8741 0.14678 0.0
N1193 N 0.43535 0.84452 0.07285 0.0
C1194 C 0.41095 0.86941 0.12978 0.0
C1195 C 0.43022 0.85419 0.09202 0.0
N1196 N 0.41967 0.90838 0.10939 0.0
N1197 N 0.43401 0.82316 0.11589 0.0
H1198 H 0.43829 0.85335 0.05708 0.0
H1199 H 0.43452 0.82656 0.07216 0.0
H1200 H 0.43159 0.81333 0.13106 0.0
H1201 H 0.44476 0.81948 0.10389 0.0
H1202 H 0.41647 0.91696 0.12352 0.0
H1203 H 0.42547 0.92028 0.09513 0.0
H1204 H 0.39157 0.88749 0.14552 0.0
H1205 H 0.39189 0.86314 0.16159 0.0
C1206 C 0.57085 0.45096 0.28597 0.0
C1207 C 0.57634 0.44301 0.26499 0.0
C1208 C 0.59613 0.4207 0.28461 0.0
C1209 C 0.59219 0.43005 0.30554 0.0
N1210 N 0.57846 0.45612 0.3265 0.0
N1211 N 0.59689 0.42321 0.2437 0.0
C1212 C 0.58028 0.44578 0.30633 0.0
C1213 C 0.58973 0.42867 0.26414 0.0
N1214 N 0.55613 0.46295 0.28639 0.0
N1215 N 0.6055 0.40375 0.28438 0.0
H1216 H 0.59186 0.42794 0.22827 0.0
H1217 H 0.6094 0.41563 0.2419 0.0
H1218 H 0.61123 0.39817 0.29896 0.0
H1219 H 0.60592 0.39373 0.27003 0.0
H1220 H 0.54892 0.46676 0.30112 0.0
H1221 H 0.54963 0.4677 0.27174 0.0
H1222 H 0.57273 0.47005 0.32803 0.0
H1223 H 0.58425 0.45192 0.34182 0.0
C1224 C 0.44245 0.84808 0.38308 0.0
C1225 C 0.45484 0.87571 0.38168 0.0
C1226 C 0.4492 0.87276 0.34051 0.0
C1227 C 0.43837 0.8453 0.34179 0.0
N1228 N 0.4279 0.80696 0.36347 0.0
N1229 N 0.47323 0.91491 0.35939 0.0
C1230 C 0.43591 0.83299 0.36287 0.0
C1231 C 0.45914 0.88823 0.36046 0.0
N1232 N 0.4363 0.83625 0.40376 0.0
N1233 N 0.44928 0.88389 0.32031 0.0
H1234 H 0.48023 0.92681 0.37373 0.0
H1235 H 0.47959 0.92529 0.34435 0.0
H1236 H 0.44271 0.87324 0.30528 0.0
H1237 H 0.45412 0.90327 0.31861 0.0
H1238 H 0.42457 0.81615 0.40596 0.0
H1239 H 0.44132 0.84663 0.41897 0.0
H1240 H 0.4285 0.79738 0.37794 0.0
H1241 H 0.42245 0.79516 0.34905 0.0
C1242 C 0.62125 0.48516 0.541 0.0
C1243 C 0.60393 0.4658 0.55646 0.0
C1244 C 0.59853 0.43146 0.53003 0.0
C1245 C 0.61835 0.4507 0.51595 0.0
N1246 N 0.65154 0.49576 0.50959 0.0
N1247 N 0.57985 0.42045 0.5676 0.0
C1248 C 0.6305 0.47758 0.52181 0.0
C1249 C 0.59352 0.43889 0.55149 0.0
N1250 N 0.6283 0.5107 0.54436 0.0
N1251 N 0.58396 0.40618 0.52266 0.0
H1252 H 0.57614 0.42501 0.58374 0.0
H1253 H 0.57433 0.40086 0.5657 0.0
H1254 H 0.58675 0.4 0.50688 0.0
H1255 H 0.56744 0.39191 0.53122 0.0
H1256 H 0.63869 0.52529 0.5325 0.0
H1257 H 0.62168 0.51691 0.55812 0.0
H1258 H 0.66299 0.51524 0.51451 0.0
H1259 H 0.65902 0.49095 0.49552 0.0
C1260 C 0.18571 0.62922 0.72269 0.0
C1261 C 0.1617 0.60499 0.72454 0.0
C1262 C 0.16789 0.59334 0.6861 0.0
C1263 C 0.19031 0.61869 0.68346 0.0
N1264 N 0.21715 0.66269 0.69766 0.0
N1265 N 0.12725 0.56606 0.70653 0.0
C1266 C 0.19823 0.63722 0.70131 0.0
C1267 C 0.15198 0.58761 0.7058 0.0
N1268 N 0.1972 0.64413 0.74152 0.0
N1269 N 0.16236 0.57439 0.67026 0.0
H1270 H 0.11488 0.5614 0.72056 0.0
H1271 H 0.11809 0.55419 0.69253 0.0
H1272 H 0.1738 0.57763 0.6558 0.0
H1273 H 0.14793 0.55487 0.67249 0.0
H1274 H 0.21605 0.6606 0.74148 0.0
H1275 H 0.18911 0.63868 0.75766 0.0
H1276 H 0.22174 0.67754 0.70941 0.0
H1277 H 0.22641 0.66949 0.68208 0.0
C1278 C 0.57303 0.18514 0.88121 0.0
C1279 C 0.56665 0.15863 0.88102 0.0
C1280 C 0.57864 0.16208 0.84093 0.0
C1281 C 0.58328 0.18801 0.84082 0.0
N1282 N 0.58003 0.22258 0.85936 0.0
N1283 N 0.5589 0.12035 0.8602 0.0
C1284 C 0.57896 0.19903 0.86053 0.0
C1285 C 0.56811 0.14662 0.86069 0.0
N1286 N 0.57458 0.19742 0.90126 0.0
N1287 N 0.58525 0.15259 0.82248 0.0
H1288 H 0.55118 0.10851 0.87441 0.0
H1289 H 0.55686 0.10992 0.84539 0.0
H1290 H 0.59279 0.16325 0.80763 0.0
H1291 H 0.58514 0.13498 0.82242 0.0
H1292 H 0.58205 0.21747 0.90269 0.0
H1293 H 0.57056 0.18806 0.91685 0.0
H1294 H 0.57431 0.23034 0.87257 0.0
H1295 H 0.58437 0.23336 0.84448 0.0
C1296 C 0.42828 0.56388 0.03422 0.0
C1297 C 0.42199 0.5708 0.05535 0.0
C1298 C 0.40219 0.59319 0.03594 0.0
C1299 C 0.41098 0.58867 0.01494 0.0
N1300 N 0.43603 0.5733 0.99421 0.0
N1301 N 0.40729 0.59599 0.07662 0.0
C1302 C 0.42501 0.57494 0.01408 0.0
C1303 C 0.41011 0.58655 0.05631 0.0
N1304 N 0.43666 0.54616 0.03334 0.0
N1305 N 0.38563 0.60313 0.03639 0.0
H1306 H 0.4131 0.59184 0.09194 0.0
H1307 H 0.40142 0.60984 0.0781 0.0
H1308 H 0.37915 0.60799 0.02179 0.0
H1309 H 0.37635 0.60428 0.05102 0.0
H1310 H 0.43885 0.53822 0.01831 0.0
H1311 H 0.43926 0.53763 0.04774 0.0
H1312 H 0.44889 0.56606 0.99305 0.0
H1313 H 0.43413 0.58122 0.97912 0.0
C1314 C 0.85602 0.43691 0.21874 0.0
C1315 C 0.87356 0.42733 0.22223 0.0
C1316 C 0.85986 0.40375 0.18608 0.0
C1317 C 0.8441 0.41519 0.18175 0.0
N1318 N 0.83139 0.44684 0.19176 0.0
N1319 N 0.89577 0.40543 0.20769 0.0
C1320 C 0.84342 0.43302 0.19745 0.0
C1321 C 0.87653 0.41183 0.20543 0.0
N1322 N 0.85055 0.44883 0.23605 0.0
N1323 N 0.85817 0.38448 0.17215 0.0
H1324 H 0.90838 0.41109 0.22162 0.0
H1325 H 0.90076 0.39653 0.19494 0.0
H1326 H 0.84611 0.37797 0.15787 0.0
H1327 H 0.86696 0.37344 0.17577 0.0
H1328 H 0.83573 0.45359 0.23523 0.0
H1329 H 0.8591 0.45183 0.25203 0.0
H1330 H 0.83271 0.46211 0.20155 0.0
H1331 H 0.82216 0.44475 0.17622 0.0
loop_
_geom_bond_atom_site_label_1
_geom_bond_atom_site_label_2
_geom_bond_distance
_geom_bond_site_symmetry_2
_ccdc_geom_bond_type
H0 C27 0.929 . S
N1 C26 1.433 . S
N1 C32 1.435 . S
N1 C38 1.423 . S
H2 C28 0.930 . S
H3 C31 0.931 . S
H4 C30 0.929 . S
H5 C33 0.930 . S
H6 C34 0.932 . S
H7 C37 0.929 . S
H8 C36 0.931 . S
H9 C39 0.929 . S
H10 C43 0.932 . S
H11 C40 0.931 . S
H12 C42 0.929 . S
H13 C45 0.929 . S
H14 C46 0.930 . S
H15 C48 0.929 . S
H16 C49 0.931 . S
H17 C51 0.930 . S
H18 C52 0.932 . S
H19 C54 0.931 . S
H20 C55 0.929 . S
H21 C57 0.929 . S
H22 C58 0.958 . S
H23 C60 0.929 . S
N24 C44 1.433 . S
N24 C50 1.435 . S
N24 C56 1.423 . S
H25 C61 0.932 . S
C26 N1 1.433 . S
C26 C27 1.363 . S
C26 C31 1.370 . S
C27 H0 0.929 . S
C27 C26 1.363 . S
C27 C28 1.385 . S
C28 H2 0.930 . S
C28 C27 1.385 . S
C28 C29 1.357 . S
C29 C28 1.357 . S
C29 C30 1.406 . S
C30 H4 0.929 . S
C30 C29 1.406 . S
C30 C31 1.391 . S
C31 H3 0.931 . S
C31 C26 1.370 . S
C31 C30 1.391 . S
C32 N1 1.435 . S
C32 C33 1.358 . S
C32 C37 1.371 . S
C33 H5 0.930 . S
C33 C32 1.358 . S
C33 C34 1.405 . S
C34 H6 0.932 . S
C34 C33 1.405 . S
C34 C35 1.383 . S
C35 C34 1.383 . S
C35 C36 1.393 . S
C36 H8 0.931 . S
C36 C35 1.393 . S
C36 C37 1.382 . S
C37 H7 0.929 . S
C37 C32 1.371 . S
C37 C36 1.382 . S
C38 N1 1.423 . S
C38 C39 1.362 . S
C38 C43 1.388 . S
C39 H9 0.929 . S
C39 C38 1.362 . S
C39 C40 1.376 . S
C40 H11 0.931 . S
C40 C39 1.376 . S
C40 C41 1.396 . S
C41 C40 1.396 . S
C41 C42 1.348 . S
C41 C59 1.472 1_455 S
C42 H12 0.929 . S
C42 C41 1.348 . S
C42 C43 1.443 . S
C43 H10 0.932 . S
C43 C38 1.388 . S
C43 C42 1.443 . S
C44 N24 1.433 . S
C44 C45 1.363 . S
C44 C49 1.370 . S
C45 H13 0.929 . S
C45 C44 1.363 . S
C45 C46 1.385 . S
C46 H14 0.930 . S
C46 C45 1.385 . S
C46 C47 1.357 . S
C47 C46 1.357 . S
C47 C48 1.406 . S
C48 H15 0.929 . S
C48 C47 1.406 . S
C48 C49 1.391 . S
C49 H16 0.931 . S
C49 C44 1.370 . S
C49 C48 1.391 . S
C50 N24 1.435 . S
C50 C51 1.358 . S
C50 C55 1.371 . S
C51 H17 0.930 . S
C51 C50 1.358 . S
C51 C52 1.405 . S
C52 H18 0.932 . S
C52 C51 1.405 . S
C52 C53 1.383 . S
C53 C52 1.383 . S
C53 C54 1.393 . S
C54 H19 0.931 . S
C54 C53 1.393 . S
C54 C55 1.382 . S
C55 H20 0.929 . S
C55 C50 1.371 . S
C55 C54 1.382 . S
C56 N24 1.423 . S
C56 C57 1.362 . S
C56 C61 1.388 . S
C57 H21 0.929 . S
C57 C56 1.362 . S
C57 C58 1.376 . S
C58 H22 0.958 . S
C58 C57 1.376 . S
C58 C59 1.396 . S
C59 C41 1.472 1_655 S
C59 C58 1.396 . S
C59 C60 1.348 . S
C60 H23 0.929 . S
C60 C59 1.348 . S
C60 C61 1.443 . S
C61 H25 0.932 . S
C61 C56 1.388 . S
C61 C60 1.443 . S
H62 C89 0.929 . S
N63 C88 1.433 . S
N63 C94 1.435 . S
N63 C100 1.423 . S
H64 C90 0.930 . S
H65 C93 0.931 . S
H66 C92 0.929 . S
H67 C95 0.930 . S
H68 C96 0.932 . S
H69 C99 0.929 . S
H70 C98 0.931 . S
H71 C101 0.929 . S
H72 C105 0.932 . S
H73 C102 0.931 . S
H74 C104 0.963 . S
H75 C107 0.929 . S
H76 C108 0.930 . S
H77 C110 0.929 . S
H78 C111 0.931 . S
H79 C113 0.930 . S
H80 C114 0.932 . S
H81 C116 0.931 . S
H82 C117 0.929 . S
H83 C119 0.929 . S
H84 C120 0.931 . S
H85 C122 0.929 . S
N86 C106 1.433 . S
N86 C112 1.435 . S
N86 C118 1.423 . S
H87 C123 0.932 . S
C88 N63 1.433 . S
C88 C89 1.363 . S
C88 C93 1.370 . S
C89 H62 0.929 . S
C89 C88 1.363 . S
C89 C90 1.385 . S
C90 H64 0.930 . S
C90 C89 1.385 . S
C90 C91 1.357 . S
C91 C90 1.357 . S
C91 C92 1.406 . S
C92 H66 0.929 . S
C92 C91 1.406 . S
C92 C93 1.391 . S
C93 H65 0.931 . S
C93 C88 1.370 . S
C93 C92 1.391 . S
C94 N63 1.435 . S
C94 C95 1.358 . S
C94 C99 1.371 . S
C95 H67 0.930 . S
C95 C94 1.358 . S
C95 C96 1.405 . S
C96 H68 0.932 . S
C96 C95 1.405 . S
C96 C97 1.383 . S
C97 C96 1.383 . S
C97 C98 1.393 . S
C98 H70 0.931 . S
C98 C97 1.393 . S
C98 C99 1.382 . S
C99 H69 0.929 . S
C99 C94 1.371 . S
C99 C98 1.382 . S
C100 N63 1.423 . S
C100 C101 1.362 . S
C100 C105 1.388 . S
C101 H71 0.929 . S
C101 C100 1.362 . S
C101 C102 1.376 . S
C102 H73 0.931 . S
C102 C101 1.376 . S
C102 C103 1.396 1_565 S
C103 C102 1.396 1_545 S
C103 C104 1.348 . S
C103 C121 1.472 . S
C104 H74 0.963 . S
C104 C103 1.348 . S
C104 C105 1.411 1_545 S
C105 H72 0.932 . S
C105 C100 1.388 . S
C105 C104 1.411 1_565 S
C106 N86 1.433 . S
C106 C107 1.363 . S
C106 C111 1.370 . S
C107 H75 0.929 . S
C107 C106 1.363 . S
C107 C108 1.385 . S
C108 H76 0.930 . S
C108 C107 1.385 . S
C108 C109 1.357 . S
C109 C108 1.357 . S
C109 C110 1.406 . S
C110 H77 0.929 . S
C110 C109 1.406 . S
C110 C111 1.391 . S
C111 H78 0.931 . S
C111 C106 1.370 . S
C111 C110 1.391 . S
C112 N86 1.435 . S
C112 C113 1.358 . S
C112 C117 1.371 . S
C113 H79 0.930 . S
C113 C112 1.358 . S
C113 C114 1.405 . S
C114 H80 0.932 . S
C114 C113 1.405 . S
C114 C115 1.383 . S
C115 C114 1.383 . S
C115 C116 1.393 . S
C116 H81 0.931 . S
C116 C115 1.393 . S
C116 C117 1.382 . S
C117 H82 0.929 . S
C117 C112 1.371 . S
C117 C116 1.382 . S
C118 N86 1.423 . S
C118 C119 1.362 . S
C118 C123 1.388 . S
C119 H83 0.929 . S
C119 C118 1.362 . S
C119 C120 1.376 . S
C120 H84 0.931 . S
C120 C119 1.376 . S
C120 C121 1.396 . S
C121 C103 1.472 . S
C121 C120 1.396 . S
C121 C122 1.348 . S
C122 H85 0.929 . S
C122 C121 1.348 . S
C122 C123 1.443 . S
C123 H87 0.932 . S
C123 C118 1.388 . S
C123 C122 1.443 . S
H124 C151 0.929 . S
N125 C150 1.433 . S
N125 C156 1.435 . S
N125 C162 1.423 . S
H126 C152 0.930 . S
H127 C155 0.931 . S
H128 C154 0.929 . S
H129 C157 0.930 . S
H130 C158 0.932 . S
H131 C161 0.929 . S
H132 C160 0.931 . S
H133 C163 0.929 . S
H134 C167 0.932 . S
H135 C164 0.931 . S
H136 C166 0.929 . S
H137 C169 0.929 . S
H138 C170 0.930 . S
H139 C172 0.929 . S
H140 C173 0.931 . S
H141 C175 0.930 . S
H142 C176 0.932 . S
H143 C178 0.931 . S
H144 C179 0.929 . S
H145 C181 0.929 . S
H146 C182 0.931 . S
H147 C184 0.929 . S
N148 C168 1.433 . S
N148 C174 1.435 . S
N148 C180 1.423 . S
H149 C185 0.932 . S
C150 N125 1.433 . S
C150 C151 1.363 . S
C150 C155 1.370 . S
C151 H124 0.929 . S
C151 C150 1.363 . S
C151 C152 1.385 . S
C152 H126 0.930 . S
C152 C151 1.385 . S
C152 C153 1.357 . S
C153 C152 1.357 . S
C153 C154 1.406 . S
C154 H128 0.929 . S
C154 C153 1.406 . S
C154 C155 1.391 . S
C155 H127 0.931 . S
C155 C150 1.370 . S
C155 C154 1.391 . S
C156 N125 1.435 . S
C156 C157 1.358 . S
C156 C161 1.371 . S
C157 H129 0.930 . S
C157 C156 1.358 . S
C157 C158 1.405 . S
C158 H130 0.932 . S
C158 C157 1.405 . S
C158 C159 1.383 . S
C159 C158 1.383 . S
C159 C160 1.393 . S
C160 H132 0.931 . S
C160 C159 1.393 . S
C160 C161 1.382 . S
C161 H131 0.929 . S
C161 C156 1.371 . S
C161 C160 1.382 . S
C162 N125 1.423 . S
C162 C163 1.362 . S
C162 C167 1.388 . S
C163 H133 0.929 . S
C163 C162 1.362 . S
C163 C164 1.376 . S
C164 H135 0.931 . S
C164 C163 1.376 . S
C164 C165 1.396 . S
C165 C164 1.396 . S
C165 C166 1.348 . S
C165 C183 1.472 . S
C166 H136 0.929 . S
C166 C165 1.348 . S
C166 C167 1.443 . S
C167 H134 0.932 . S
C167 C162 1.388 . S
C167 C166 1.443 . S
C168 N148 1.433 . S
C168 C169 1.363 . S
C168 C173 1.370 . S
C169 H137 0.929 . S
C169 C168 1.363 . S
C169 C170 1.385 . S
C170 H138 0.930 . S
C170 C169 1.385 . S
C170 C171 1.357 . S
C171 C170 1.357 . S
C171 C172 1.406 . S
C172 H139 0.929 . S
C172 C171 1.406 . S
C172 C173 1.391 . S
C173 H140 0.931 . S
C173 C168 1.370 . S
C173 C172 1.391 . S
C174 N148 1.435 . S
C174 C175 1.358 . S
C174 C179 1.371 . S
C175 H141 0.930 . S
C175 C174 1.358 . S
C175 C176 1.405 . S
C176 H142 0.932 . S
C176 C175 1.405 . S
C176 C177 1.383 . S
C177 C176 1.383 . S
C177 C178 1.393 . S
C178 H143 0.931 . S
C178 C177 1.393 . S
C178 C179 1.382 . S
C179 H144 0.929 . S
C179 C174 1.371 . S
C179 C178 1.382 . S
C180 N148 1.423 . S
C180 C181 1.362 . S
C180 C185 1.388 . S
C181 H145 0.929 . S
C181 C180 1.362 . S
C181 C182 1.376 . S
C182 H146 0.931 . S
C182 C181 1.376 . S
C182 C183 1.396 . S
C183 C165 1.472 . S
C183 C182 1.396 . S
C183 C184 1.348 . S
C184 H147 0.929 . S
C184 C183 1.348 . S
C184 C185 1.443 . S
C185 H149 0.932 . S
C185 C180 1.388 . S
C185 C184 1.443 . S
H186 C213 0.929 . S
N187 C212 1.433 . S
N187 C218 1.435 . S
N187 C224 1.423 . S
H188 C214 0.930 . S
H189 C217 0.931 . S
H190 C216 0.929 . S
H191 C219 0.930 . S
H192 C220 0.932 . S
H193 C223 0.929 . S
H194 C222 0.931 . S
H195 C225 0.929 . S
H196 C229 0.932 . S
H197 C226 0.931 . S
H198 C228 0.929 . S
H199 C231 0.929 . S
H200 C232 0.930 . S
H201 C234 0.929 . S
H202 C235 0.931 . S
H203 C237 0.930 . S
H204 C238 0.932 . S
H205 C240 0.931 . S
H206 C241 0.929 . S
H207 C243 0.929 . S
H208 C244 0.938 . S
H209 C246 0.929 . S
N210 C230 1.433 . S
N210 C236 1.435 . S
N210 C242 1.423 . S
H211 C247 0.932 . S
C212 N187 1.433 . S
C212 C213 1.363 . S
C212 C217 1.370 . S
C213 H186 0.929 . S
C213 C212 1.363 . S
C213 C214 1.385 . S
C214 H188 0.930 . S
C214 C213 1.385 . S
C214 C215 1.357 . S
C215 C214 1.357 . S
C215 C216 1.406 . S
C216 H190 0.929 . S
C216 C215 1.406 . S
C216 C217 1.391 . S
C217 H189 0.931 . S
C217 C212 1.370 . S
C217 C216 1.391 . S
C218 N187 1.435 . S
C218 C219 1.358 . S
C218 C223 1.371 . S
C219 H191 0.930 . S
C219 C218 1.358 . S
C219 C220 1.405 . S
C220 H192 0.932 . S
C220 C219 1.405 . S
C220 C221 1.383 . S
C221 C220 1.383 . S
C221 C222 1.393 . S
C222 H194 0.931 . S
C222 C221 1.393 . S
C222 C223 1.382 . S
C223 H193 0.929 . S
C223 C218 1.371 . S
C223 C222 1.382 . S
C224 N187 1.423 . S
C224 C225 1.362 . S
C224 C229 1.388 . S
C225 H195 0.929 . S
C225 C224 1.362 . S
C225 C226 1.376 . S
C226 H197 0.931 . S
C226 C225 1.376 . S
C226 C227 1.396 . S
C227 C226 1.396 . S
C227 C228 1.348 . S
C227 C245 1.472 1_455 S
C228 H198 0.929 . S
C228 C227 1.348 . S
C228 C229 1.443 . S
C229 H196 0.932 . S
C229 C224 1.388 . S
C229 C228 1.443 . S
C230 N210 1.433 . S
C230 C231 1.363 . S
C230 C235 1.370 . S
C231 H199 0.929 . S
C231 C230 1.363 . S
C231 C232 1.385 . S
C232 H200 0.930 . S
C232 C231 1.385 . S
C232 C233 1.357 . S
C233 C232 1.357 . S
C233 C234 1.406 . S
C234 H201 0.929 . S
C234 C233 1.406 . S
C234 C235 1.391 . S
C235 H202 0.931 . S
C235 C230 1.370 . S
C235 C234 1.391 . S
C236 N210 1.435 . S
C236 C237 1.358 . S
C236 C241 1.371 . S
C237 H203 0.930 . S
C237 C236 1.358 . S
C237 C238 1.405 . S
C238 H204 0.932 . S
C238 C237 1.405 . S
C238 C239 1.383 . S
C239 C238 1.383 . S
C239 C240 1.393 . S
C240 H205 0.931 . S
C240 C239 1.393 . S
C240 C241 1.382 . S
C241 H206 0.929 . S
C241 C236 1.371 . S
C241 C240 1.382 . S
C242 N210 1.423 . S
C242 C243 1.362 . S
C242 C247 1.388 . S
C243 H207 0.929 . S
C243 C242 1.362 . S
C243 C244 1.376 . S
C244 H208 0.938 . S
C244 C243 1.376 . S
C244 C245 1.396 . S
C245 C227 1.472 1_655 S
C245 C244 1.396 . S
C245 C246 1.348 . S
C246 H209 0.929 . S
C246 C245 1.348 . S
C246 C247 1.443 . S
C247 H211 0.932 . S
C247 C242 1.388 . S
C247 C246 1.443 . S
H248 C275 0.929 . S
N249 C274 1.433 . S
N249 C280 1.435 . S
N249 C286 1.423 . S
H250 C276 0.933 . S
H251 C279 0.931 . S
H252 C278 0.929 . S
H253 C281 0.930 . S
H254 C282 0.932 . S
H255 C285 0.929 . S
H256 C284 0.931 . S
H257 C287 0.929 . S
H258 C291 0.932 . S
H259 C288 0.959 . S
H260 C290 0.929 . S
H261 C293 0.929 . S
H262 C294 0.930 . S
H263 C296 0.929 . S
H264 C297 0.931 . S
H265 C299 0.930 . S
H266 C300 0.932 . S
H267 C302 0.931 . S
H268 C303 0.929 . S
H269 C305 0.929 . S
H270 C306 0.931 1_545 S
H271 C308 0.929 . S
N272 C292 1.433 . S
N272 C298 1.435 1_554 S
N272 C304 1.423 . S
H273 C309 0.932 . S
C274 N249 1.433 . S
C274 C275 1.363 . S
C274 C279 1.410 . S
C275 H248 0.929 . S
C275 C274 1.363 . S
C275 C276 1.426 . S
C276 H250 0.933 . S
C276 C275 1.426 . S
C276 C277 1.314 1_556 S
C277 C276 1.314 1_554 S
C277 C278 1.406 . S
C278 H252 0.929 . S
C278 C277 1.406 . S
C278 C279 1.353 1_554 S
C279 H251 0.931 . S
C279 C274 1.410 . S
C279 C278 1.353 1_556 S
C280 N249 1.435 . S
C280 C281 1.358 . S
C280 C285 1.371 . S
C281 H253 0.930 . S
C281 C280 1.358 . S
C281 C282 1.405 . S
C282 H254 0.932 . S
C282 C281 1.405 . S
C282 C283 1.383 . S
C283 C282 1.383 . S
C283 C284 1.393 . S
C284 H256 0.931 . S
C284 C283 1.393 . S
C284 C285 1.382 . S
C285 H255 0.929 . S
C285 C280 1.371 . S
C285 C284 1.382 . S
C286 N249 1.423 . S
C286 C287 1.362 . S
C286 C291 1.388 . S
C287 H257 0.929 . S
C287 C286 1.362 . S
C287 C288 1.376 . S
C288 H259 0.959 . S
C288 C287 1.376 . S
C288 C289 1.396 . S
C289 C288 1.396 . S
C289 C290 1.348 . S
C289 C307 1.453 1_545 S
C290 H260 0.929 . S
C290 C289 1.348 . S
C290 C291 1.443 . S
C291 H258 0.932 . S
C291 C286 1.388 . S
C291 C290 1.443 . S
C292 N272 1.433 . S
C292 C293 1.363 . S
C292 C297 1.370 . S
C293 H261 0.929 . S
C293 C292 1.363 . S
C293 C294 1.385 . S
C294 H262 0.930 . S
C294 C293 1.385 . S
C294 C295 1.357 . S
C295 C294 1.357 . S
C295 C296 1.406 . S
C296 H263 0.929 . S
C296 C295 1.406 . S
C296 C297 1.391 . S
C297 H264 0.931 . S
C297 C292 1.370 . S
C297 C296 1.391 . S
C298 N272 1.435 1_556 S
C298 C299 1.358 1_556 S
C298 C303 1.371 . S
C299 H265 0.930 . S
C299 C298 1.358 1_554 S
C299 C300 1.405 1_554 S
C300 H266 0.932 . S
C300 C299 1.405 1_556 S
C300 C301 1.383 . S
C301 C300 1.383 . S
C301 C302 1.393 . S
C302 H267 0.931 . S
C302 C301 1.393 . S
C302 C303 1.382 . S
C303 H268 0.929 . S
C303 C298 1.371 . S
C303 C302 1.382 . S
C304 N272 1.423 . S
C304 C305 1.362 . S
C304 C309 1.388 1_554 S
C305 H269 0.929 . S
C305 C304 1.362 . S
C305 C306 1.376 . S
C306 H270 0.931 1_565 S
C306 C305 1.376 . S
C306 C307 1.396 1_554 S
C307 C289 1.453 1_565 S
C307 C306 1.396 1_556 S
C307 C308 1.368 . S
C308 H271 0.929 . S
C308 C307 1.368 . S
C308 C309 1.443 . S
C309 H273 0.932 . S
C309 C304 1.388 1_556 S
C309 C308 1.443 . S
H310 C337 0.929 . S
N311 C336 1.433 . S
N311 C342 1.435 . S
N311 C348 1.423 . S
H312 C338 0.930 . S
H313 C341 0.931 . S
H314 C340 0.929 . S
H315 C343 0.930 . S
H316 C344 0.932 . S
H317 C347 0.929 . S
H318 C346 0.931 . S
H319 C349 0.929 . S
H320 C353 0.932 . S
H321 C350 0.931 . S
H322 C352 0.929 . S
H323 C355 0.929 . S
H324 C356 0.930 . S
H325 C358 0.929 . S
H326 C359 0.931 . S
H327 C361 0.930 . S
H328 C362 0.932 . S
H329 C364 0.931 . S
H330 C365 0.929 . S
H331 C367 0.929 . S
H332 C368 0.931 . S
H333 C370 0.929 . S
N334 C354 1.433 . S
N334 C360 1.435 . S
N334 C366 1.423 . S
H335 C371 0.932 . S
C336 N311 1.433 . S
C336 C337 1.363 . S
C336 C341 1.370 . S
C337 H310 0.929 . S
C337 C336 1.363 . S
C337 C338 1.385 . S
C338 H312 0.930 . S
C338 C337 1.385 . S
C338 C339 1.357 . S
C339 C338 1.357 . S
C339 C340 1.406 . S
C340 H314 0.929 . S
C340 C339 1.406 . S
C340 C341 1.391 . S
C341 H313 0.931 . S
C341 C336 1.370 . S
C341 C340 1.391 . S
C342 N311 1.435 . S
C342 C343 1.358 . S
C342 C347 1.371 . S
C343 H315 0.930 . S
C343 C342 1.358 . S
C343 C344 1.405 . S
C344 H316 0.932 . S
C344 C343 1.405 . S
C344 C345 1.383 . S
C345 C344 1.383 . S
C345 C346 1.393 . S
C346 H318 0.931 . S
C346 C345 1.393 . S
C346 C347 1.382 . S
C347 H317 0.929 . S
C347 C342 1.371 . S
C347 C346 1.382 . S
C348 N311 1.423 . S
C348 C349 1.362 . S
C348 C353 1.388 . S
C349 H319 0.929 . S
C349 C348 1.362 . S
C349 C350 1.376 . S
C350 H321 0.931 . S
C350 C349 1.376 . S
C350 C351 1.396 . S
C351 C350 1.396 . S
C351 C352 1.348 . S
C351 C369 1.472 . S
C352 H322 0.929 . S
C352 C351 1.348 . S
C352 C353 1.443 . S
C353 H320 0.932 . S
C353 C348 1.388 . S
C353 C352 1.443 . S
C354 N334 1.433 . S
C354 C355 1.363 . S
C354 C359 1.370 . S
C355 H323 0.929 . S
C355 C354 1.363 . S
C355 C356 1.385 . S
C356 H324 0.930 . S
C356 C355 1.385 . S
C356 C357 1.357 . S
C357 C356 1.357 . S
C357 C358 1.406 . S
C358 H325 0.929 . S
C358 C357 1.406 . S
C358 C359 1.391 . S
C359 H326 0.931 . S
C359 C354 1.370 . S
C359 C358 1.391 . S
C360 N334 1.435 . S
C360 C361 1.358 . S
C360 C365 1.371 . S
C361 H327 0.930 . S
C361 C360 1.358 . S
C361 C362 1.405 . S
C362 H328 0.932 . S
C362 C361 1.405 . S
C362 C363 1.383 . S
C363 C362 1.383 . S
C363 C364 1.393 . S
C364 H329 0.931 . S
C364 C363 1.393 . S
C364 C365 1.382 . S
C365 H330 0.929 . S
C365 C360 1.371 . S
C365 C364 1.382 . S
C366 N334 1.423 . S
C366 C367 1.362 . S
C366 C371 1.388 . S
C367 H331 0.929 . S
C367 C366 1.362 . S
C367 C368 1.376 . S
C368 H332 0.931 . S
C368 C367 1.376 . S
C368 C369 1.396 . S
C369 C351 1.472 . S
C369 C368 1.396 . S
C369 C370 1.348 . S
C370 H333 0.929 . S
C370 C369 1.348 . S
C370 C371 1.443 . S
C371 H335 0.932 . S
C371 C366 1.388 . S
C371 C370 1.443 . S
Li372 N389 1.990 . S
Li372 O432 1.956 . S
Li372 O433 1.970 . S
Li372 O434 1.961 . S
Li373 N397 1.990 . S
Li373 O432 1.970 . S
Li373 O433 1.956 . S
Li373 O435 1.961 . S
Li374 N419 1.990 . S
Li374 O432 1.961 . S
Li374 O434 1.956 . S
Li374 O435 1.970 . S
Li375 N425 1.990 . S
Li375 O433 1.961 . S
Li375 O434 1.970 . S
Li375 O435 1.956 . S
C376 C378 1.348 . S
C376 C379 1.356 . S
C376 O432 1.325 . S
N377 C380 1.314 . S
N377 C381 1.279 . S
C378 C376 1.348 . S
C378 C380 1.353 . S
C378 H436 0.929 . S
C379 C376 1.356 . S
C379 C381 1.358 . S
C379 H437 0.930 . S
C380 N377 1.314 . S
C380 C378 1.353 . S
C380 H438 0.930 . S
C381 N377 1.279 . S
C381 C379 1.358 . S
C381 H439 0.930 . S
C382 C385 1.348 . S
C382 C386 1.356 . S
C382 O433 1.325 . S
C383 N384 1.279 . S
C383 C386 1.358 . S
C383 H440 0.930 . S
N384 C383 1.279 . S
N384 C387 1.314 . S
C385 C382 1.348 . S
C385 C387 1.353 . S
C385 H441 0.929 . S
C386 C382 1.356 . S
C386 C383 1.358 . S
C386 H442 0.930 . S
C387 N384 1.314 . S
C387 C385 1.353 . S
C387 H443 0.930 . S
C388 N389 1.314 . S
C388 C393 1.353 . S
C388 H394 0.930 . S
N389 Li372 1.990 . S
N389 C388 1.314 . S
N389 C391 1.279 . S
C390 C391 1.358 . S
C390 C392 1.356 . S
C390 H444 0.930 . S
C391 N389 1.279 . S
C391 C390 1.358 . S
C391 H395 0.930 . S
C392 C390 1.356 . S
C392 C393 1.348 . S
C393 C388 1.353 . S
C393 C392 1.348 . S
C393 H445 0.929 . S
H394 C388 0.930 . S
H395 C391 0.930 . S
C396 N397 1.314 . S
C396 C398 1.353 . S
C396 H402 0.930 . S
N397 Li373 1.990 . S
N397 C396 1.314 . S
N397 C400 1.279 . S
C398 C396 1.353 . S
C398 C401 1.348 . S
C398 H446 0.929 . S
C399 C400 1.358 . S
C399 C401 1.356 . S
C399 H447 0.930 . S
C400 N397 1.279 . S
C400 C399 1.358 . S
C400 H403 0.930 . S
C401 C398 1.348 . S
C401 C399 1.356 . S
H402 C396 0.930 . S
H403 C400 0.930 . S
C404 C406 1.348 . S
C404 C407 1.356 . S
C404 O434 1.325 . S
N405 C408 1.314 . S
N405 C409 1.279 . S
C406 C404 1.348 . S
C406 C408 1.353 . S
C406 H448 0.929 . S
C407 C404 1.356 . S
C407 C409 1.358 . S
C407 H449 0.930 . S
C408 N405 1.314 . S
C408 C406 1.353 . S
C408 H450 0.930 . S
C409 N405 1.279 . S
C409 C407 1.358 . S
C409 H451 0.930 . S
C410 C411 1.348 . S
C410 C412 1.356 . S
C410 O435 1.325 . S
C411 C410 1.348 . S
C411 C413 1.353 . S
C411 H452 0.929 . S
C412 C410 1.356 . S
C412 C414 1.358 . S
C412 H453 0.930 . S
C413 C411 1.353 . S
C413 N415 1.314 . S
C413 H454 0.930 . S
C414 C412 1.358 . S
C414 N415 1.279 . S
C414 H455 0.930 . S
N415 C413 1.314 . S
N415 C414 1.279 . S
C416 C418 1.353 . S
C416 N419 1.314 . S
C416 H422 0.930 . S
C417 N419 1.279 . S
C417 C420 1.358 . S
C417 H423 0.930 . S
C418 C416 1.353 . S
C418 C421 1.348 . S
C418 H456 0.929 . S
N419 Li374 1.990 . S
N419 C416 1.314 . S
N419 C417 1.279 . S
C420 C417 1.358 . S
C420 C421 1.356 . S
C420 H457 0.930 . S
C421 C418 1.348 . S
C421 C420 1.356 . S
H422 C416 0.930 . S
H423 C417 0.930 . S
C424 N425 1.314 . S
C424 C426 1.353 . S
C424 H430 0.930 . S
N425 Li375 1.990 . S
N425 C424 1.314 . S
N425 C428 1.279 . S
C426 C424 1.353 . S
C426 C429 1.348 . S
C426 H458 0.929 . S
C427 C428 1.358 . S
C427 C429 1.356 . S
C427 H459 0.930 . S
C428 N425 1.279 . S
C428 C427 1.358 . S
C428 H431 0.930 . S
C429 C426 1.348 . S
C429 C427 1.356 . S
H430 C424 0.930 . S
H431 C428 0.930 . S
O432 Li372 1.956 . S
O432 Li373 1.970 . S
O432 Li374 1.961 . S
O432 C376 1.325 . S
O433 Li372 1.970 . S
O433 Li373 1.956 . S
O433 Li375 1.961 . S
O433 C382 1.325 . S
O434 Li372 1.961 . S
O434 Li374 1.956 . S
O434 Li375 1.970 . S
O434 C404 1.325 . S
O435 Li373 1.961 . S
O435 Li374 1.970 . S
O435 Li375 1.956 . S
O435 C410 1.325 . S
H436 C378 0.929 . S
H437 C379 0.930 . S
H438 C380 0.930 . S
H439 C381 0.930 . S
H440 C383 0.930 . S
H441 C385 0.929 . S
H442 C386 0.930 . S
H443 C387 0.930 . S
H444 C390 0.930 . S
H445 C393 0.929 . S
H446 C398 0.929 . S
H447 C399 0.930 . S
H448 C406 0.929 . S
H449 C407 0.930 . S
H450 C408 0.930 . S
H451 C409 0.930 . S
H452 C411 0.929 . S
H453 C412 0.930 . S
H454 C413 0.930 . S
H455 C414 0.930 . S
H456 C418 0.929 . S
H457 C420 0.930 . S
H458 C426 0.929 . S
H459 C427 0.930 . S
Li460 N477 1.990 . S
Li460 O520 1.956 . S
Li460 O521 1.970 . S
Li460 O522 1.961 . S
Li461 N485 1.990 . S
Li461 O520 1.970 . S
Li461 O521 1.956 . S
Li461 O523 1.961 . S
Li462 N507 1.990 . S
Li462 O520 1.961 . S
Li462 O522 1.956 . S
Li462 O523 1.970 . S
Li463 N513 1.990 . S
Li463 O521 1.961 . S
Li463 O522 1.970 . S
Li463 O523 1.956 . S
C464 C466 1.348 . S
C464 C467 1.356 . S
C464 O520 1.325 . S
N465 C468 1.314 . S
N465 C469 1.279 . S
C466 C464 1.348 . S
C466 C468 1.353 . S
C466 H524 0.929 . S
C467 C464 1.356 . S
C467 C469 1.358 . S
C467 H525 0.930 . S
C468 N465 1.314 . S
C468 C466 1.353 . S
C468 H526 0.930 . S
C469 N465 1.279 . S
C469 C467 1.358 . S
C469 H527 0.930 . S
C470 C473 1.348 . S
C470 C474 1.356 . S
C470 O521 1.325 . S
C471 N472 1.279 . S
C471 C474 1.358 . S
C471 H528 0.930 . S
N472 C471 1.279 . S
N472 C475 1.314 . S
C473 C470 1.348 . S
C473 C475 1.353 . S
C473 H529 0.929 . S
C474 C470 1.356 . S
C474 C471 1.358 . S
C474 H530 0.930 . S
C475 N472 1.314 . S
C475 C473 1.353 . S
C475 H531 0.930 . S
C476 N477 1.314 . S
C476 C481 1.353 . S
C476 H482 0.930 . S
N477 Li460 1.990 . S
N477 C476 1.314 . S
N477 C479 1.279 . S
C478 C479 1.358 . S
C478 C480 1.356 . S
C478 H532 0.930 . S
C479 N477 1.279 . S
C479 C478 1.358 . S
C479 H483 0.930 . S
C480 C478 1.356 . S
C480 C481 1.348 . S
C481 C476 1.353 . S
C481 C480 1.348 . S
C481 H533 0.929 . S
H482 C476 0.930 . S
H483 C479 0.930 . S
C484 N485 1.314 . S
C484 C486 1.353 . S
C484 H490 0.930 . S
N485 Li461 1.990 . S
N485 C484 1.314 . S
N485 C488 1.279 . S
C486 C484 1.353 . S
C486 C489 1.348 . S
C486 H534 0.929 . S
C487 C488 1.358 . S
C487 C489 1.356 . S
C487 H535 0.930 . S
C488 N485 1.279 . S
C488 C487 1.358 . S
C488 H491 0.930 . S
C489 C486 1.348 . S
C489 C487 1.356 . S
H490 C484 0.930 . S
H491 C488 0.930 . S
C492 C494 1.348 . S
C492 C495 1.356 . S
C492 O522 1.325 . S
N493 C496 1.314 . S
N493 C497 1.279 . S
C494 C492 1.348 . S
C494 C496 1.353 . S
C494 H536 0.929 . S
C495 C492 1.356 . S
C495 C497 1.358 . S
C495 H537 0.930 . S
C496 N493 1.314 . S
C496 C494 1.353 . S
C496 H538 0.930 . S
C497 N493 1.279 . S
C497 C495 1.358 . S
C497 H539 0.930 . S
C498 C499 1.348 . S
C498 C500 1.356 . S
C498 O523 1.325 . S
C499 C498 1.348 . S
C499 C501 1.353 . S
C499 H540 0.929 . S
C500 C498 1.356 . S
C500 C502 1.358 . S
C500 H541 0.930 . S
C501 C499 1.353 . S
C501 N503 1.314 . S
C501 H542 0.930 . S
C502 C500 1.358 . S
C502 N503 1.279 . S
C502 H543 0.930 . S
N503 C501 1.314 . S
N503 C502 1.279 . S
C504 C506 1.353 . S
C504 N507 1.314 . S
C504 H510 0.930 . S
C505 N507 1.279 . S
C505 C508 1.358 . S
C505 H511 0.930 . S
C506 C504 1.353 . S
C506 C509 1.348 . S
C506 H544 0.929 . S
N507 Li462 1.990 . S
N507 C504 1.314 . S
N507 C505 1.279 . S
C508 C505 1.358 . S
C508 C509 1.356 . S
C508 H545 0.930 . S
C509 C506 1.348 . S
C509 C508 1.356 . S
H510 C504 0.930 . S
H511 C505 0.930 . S
C512 N513 1.314 . S
C512 C514 1.353 . S
C512 H518 0.930 . S
N513 Li463 1.990 . S
N513 C512 1.314 . S
N513 C516 1.279 . S
C514 C512 1.353 . S
C514 C517 1.348 . S
C514 H546 0.929 . S
C515 C516 1.358 . S
C515 C517 1.356 . S
C515 H547 0.930 . S
C516 N513 1.279 . S
C516 C515 1.358 . S
C516 H519 0.930 . S
C517 C514 1.348 . S
C517 C515 1.356 . S
H518 C512 0.930 . S
H519 C516 0.930 . S
O520 Li460 1.956 . S
O520 Li461 1.970 . S
O520 Li462 1.961 . S
O520 C464 1.325 . S
O521 Li460 1.970 . S
O521 Li461 1.956 . S
O521 Li463 1.961 . S
O521 C470 1.325 . S
O522 Li460 1.961 . S
O522 Li462 1.956 . S
O522 Li463 1.970 . S
O522 C492 1.325 . S
O523 Li461 1.961 . S
O523 Li462 1.970 . S
O523 Li463 1.956 . S
O523 C498 1.325 . S
H524 C466 0.929 . S
H525 C467 0.930 . S
H526 C468 0.930 . S
H527 C469 0.930 . S
H528 C471 0.930 . S
H529 C473 0.929 . S
H530 C474 0.930 . S
H531 C475 0.930 . S
H532 C478 0.930 . S
H533 C481 0.929 . S
H534 C486 0.929 . S
H535 C487 0.930 . S
H536 C494 0.929 . S
H537 C495 0.930 . S
H538 C496 0.930 . S
H539 C497 0.930 . S
H540 C499 0.929 . S
H541 C500 0.930 . S
H542 C501 0.930 . S
H543 C502 0.930 . S
H544 C506 0.929 . S
H545 C508 0.930 . S
H546 C514 0.929 . S
H547 C515 0.930 . S
Li548 N565 1.990 . S
Li548 O608 1.956 . S
Li548 O609 1.970 . S
Li548 O610 1.961 . S
Li549 N573 1.990 . S
Li549 O608 1.970 . S
Li549 O609 1.956 . S
Li549 O611 1.961 . S
Li550 N595 1.990 . S
Li550 O608 1.961 . S
Li550 O610 1.956 . S
Li550 O611 1.970 . S
Li551 N601 1.990 . S
Li551 O609 1.961 . S
Li551 O610 1.970 . S
Li551 O611 1.956 . S
C552 C554 1.348 . S
C552 C555 1.356 . S
C552 O608 1.325 . S
N553 C556 1.314 . S
N553 C557 1.279 . S
C554 C552 1.348 . S
C554 C556 1.353 . S
C554 H612 0.929 . S
C555 C552 1.356 . S
C555 C557 1.358 . S
C555 H613 0.930 . S
C556 N553 1.314 . S
C556 C554 1.353 . S
C556 H614 0.930 . S
C557 N553 1.279 . S
C557 C555 1.358 . S
C557 H615 0.930 . S
C558 C561 1.348 . S
C558 C562 1.356 . S
C558 O609 1.325 . S
C559 N560 1.279 . S
C559 C562 1.358 . S
C559 H616 0.930 . S
N560 C559 1.279 . S
N560 C563 1.314 . S
C561 C558 1.348 . S
C561 C563 1.353 . S
C561 H617 0.929 . S
C562 C558 1.356 . S
C562 C559 1.358 . S
C562 H618 0.930 . S
C563 N560 1.314 . S
C563 C561 1.353 . S
C563 H619 0.930 . S
C564 N565 1.314 . S
C564 C569 1.353 . S
C564 H570 0.930 . S
N565 Li548 1.990 . S
N565 C564 1.314 . S
N565 C567 1.279 . S
C566 C567 1.358 . S
C566 C568 1.356 . S
C566 H620 0.930 . S
C567 N565 1.279 . S
C567 C566 1.358 . S
C567 H571 0.930 . S
C568 C566 1.356 . S
C568 C569 1.348 . S
C569 C564 1.353 . S
C569 C568 1.348 . S
C569 H621 0.929 . S
H570 C564 0.930 . S
H571 C567 0.930 . S
C572 N573 1.314 . S
C572 C574 1.353 . S
C572 H578 0.930 . S
N573 Li549 1.990 . S
N573 C572 1.314 . S
N573 C576 1.279 . S
C574 C572 1.353 . S
C574 C577 1.348 . S
C574 H622 0.929 . S
C575 C576 1.358 . S
C575 C577 1.356 . S
C575 H623 0.930 . S
C576 N573 1.279 . S
C576 C575 1.358 . S
C576 H579 0.930 . S
C577 C574 1.348 . S
C577 C575 1.356 . S
H578 C572 0.930 . S
H579 C576 0.930 . S
C580 C582 1.348 . S
C580 C583 1.356 . S
C580 O610 1.325 . S
N581 C584 1.314 . S
N581 C585 1.279 . S
C582 C580 1.348 . S
C582 C584 1.353 . S
C582 H624 0.929 . S
C583 C580 1.356 . S
C583 C585 1.358 . S
C583 H625 0.930 . S
C584 N581 1.314 . S
C584 C582 1.353 . S
C584 H626 0.930 . S
C585 N581 1.279 . S
C585 C583 1.358 . S
C585 H627 0.930 . S
C586 C587 1.348 . S
C586 C588 1.356 . S
C586 O611 1.325 . S
C587 C586 1.348 . S
C587 C589 1.353 . S
C587 H628 0.929 . S
C588 C586 1.356 . S
C588 C590 1.358 . S
C588 H629 0.930 . S
C589 C587 1.353 . S
C589 N591 1.314 . S
C589 H630 0.930 . S
C590 C588 1.358 . S
C590 N591 1.279 . S
C590 H631 0.930 . S
N591 C589 1.314 . S
N591 C590 1.279 . S
C592 C594 1.353 . S
C592 N595 1.314 . S
C592 H598 0.930 . S
C593 N595 1.279 . S
C593 C596 1.358 . S
C593 H599 0.930 . S
C594 C592 1.353 . S
C594 C597 1.348 . S
C594 H632 0.929 . S
N595 Li550 1.990 . S
N595 C592 1.314 . S
N595 C593 1.279 . S
C596 C593 1.358 . S
C596 C597 1.356 . S
C596 H633 0.930 . S
C597 C594 1.348 . S
C597 C596 1.356 . S
H598 C592 0.930 . S
H599 C593 0.930 . S
C600 N601 1.314 . S
C600 C602 1.353 . S
C600 H606 0.930 . S
N601 Li551 1.990 . S
N601 C600 1.314 . S
N601 C604 1.279 . S
C602 C600 1.353 . S
C602 C605 1.348 . S
C602 H634 0.929 . S
C603 C604 1.358 . S
C603 C605 1.356 . S
C603 H635 0.930 . S
C604 N601 1.279 . S
C604 C603 1.358 . S
C604 H607 0.930 . S
C605 C602 1.348 . S
C605 C603 1.356 . S
H606 C600 0.930 . S
H607 C604 0.930 . S
O608 Li548 1.956 . S
O608 Li549 1.970 . S
O608 Li550 1.961 . S
O608 C552 1.325 . S
O609 Li548 1.970 . S
O609 Li549 1.956 . S
O609 Li551 1.961 . S
O609 C558 1.325 . S
O610 Li548 1.961 . S
O610 Li550 1.956 . S
O610 Li551 1.970 . S
O610 C580 1.325 . S
O611 Li549 1.961 . S
O611 Li550 1.970 . S
O611 Li551 1.956 . S
O611 C586 1.325 . S
H612 C554 0.929 . S
H613 C555 0.930 . S
H614 C556 0.930 . S
H615 C557 0.930 . S
H616 C559 0.930 . S
H617 C561 0.929 . S
H618 C562 0.930 . S
H619 C563 0.930 . S
H620 C566 0.930 . S
H621 C569 0.929 . S
H622 C574 0.929 . S
H623 C575 0.930 . S
H624 C582 0.929 . S
H625 C583 0.930 . S
H626 C584 0.930 . S
H627 C585 0.930 . S
H628 C587 0.929 . S
H629 C588 0.930 . S
H630 C589 0.930 . S
H631 C590 0.930 . S
H632 C594 0.929 . S
H633 C596 0.930 . S
H634 C602 0.929 . S
H635 C603 0.930 . S
Li636 N653 1.990 . S
Li636 O696 1.956 . S
Li636 O697 1.970 . S
Li636 O698 1.961 . S
Li637 N661 1.990 . S
Li637 O696 1.970 . S
Li637 O697 1.956 . S
Li637 O699 1.961 . S
Li638 N683 1.990 . S
Li638 O696 1.961 . S
Li638 O698 1.956 . S
Li638 O699 1.970 . S
Li639 N689 1.990 . S
Li639 O697 1.961 . S
Li639 O698 1.970 . S
Li639 O699 1.956 . S
C640 C642 1.348 . S
C640 C643 1.356 . S
C640 O696 1.325 . S
N641 C644 1.314 . S
N641 C645 1.279 . S
C642 C640 1.348 . S
C642 C644 1.353 . S
C642 H700 0.929 . S
C643 C640 1.356 . S
C643 C645 1.358 . S
C643 H701 0.930 . S
C644 N641 1.314 . S
C644 C642 1.353 . S
C644 H702 0.930 . S
C645 N641 1.279 . S
C645 C643 1.358 . S
C645 H703 0.930 . S
C646 C649 1.348 . S
C646 C650 1.356 . S
C646 O697 1.325 . S
C647 N648 1.279 . S
C647 C650 1.358 . S
C647 H704 0.930 . S
N648 C647 1.279 . S
N648 C651 1.314 . S
C649 C646 1.348 . S
C649 C651 1.353 . S
C649 H705 0.929 . S
C650 C646 1.356 . S
C650 C647 1.358 . S
C650 H706 0.930 . S
C651 N648 1.314 . S
C651 C649 1.353 . S
C651 H707 0.930 . S
C652 N653 1.314 . S
C652 C657 1.353 . S
C652 H658 0.930 . S
N653 Li636 1.990 . S
N653 C652 1.314 . S
N653 C655 1.279 . S
C654 C655 1.358 1_554 S
C654 C656 1.356 . S
C654 H708 0.930 . S
C655 N653 1.279 . S
C655 C654 1.358 1_556 S
C655 H659 0.930 . S
C656 C654 1.356 . S
C656 C657 1.348 1_554 S
C657 C652 1.353 . S
C657 C656 1.348 1_556 S
C657 H709 0.929 . S
H658 C652 0.930 . S
H659 C655 0.930 . S
C660 N661 1.314 . S
C660 C662 1.353 . S
C660 H666 0.930 . S
N661 Li637 1.990 . S
N661 C660 1.314 . S
N661 C664 1.279 . S
C662 C660 1.353 . S
C662 C665 1.348 . S
C662 H710 0.929 . S
C663 C664 1.358 . S
C663 C665 1.356 . S
C663 H711 0.930 . S
C664 N661 1.279 . S
C664 C663 1.358 . S
C664 H667 0.930 . S
C665 C662 1.348 . S
C665 C663 1.356 . S
H666 C660 0.930 . S
H667 C664 0.930 . S
C668 C670 1.348 . S
C668 C671 1.356 . S
C668 O698 1.325 . S
N669 C672 1.314 . S
N669 C673 1.279 . S
C670 C668 1.348 . S
C670 C672 1.353 . S
C670 H712 0.929 . S
C671 C668 1.356 . S
C671 C673 1.358 . S
C671 H713 0.930 . S
C672 N669 1.314 . S
C672 C670 1.353 . S
C672 H714 0.930 . S
C673 N669 1.279 . S
C673 C671 1.358 . S
C673 H715 0.930 . S
C674 C675 1.348 . S
C674 C676 1.356 . S
C674 O699 1.325 . S
C675 C674 1.348 . S
C675 C677 1.353 . S
C675 H716 0.929 . S
C676 C674 1.356 . S
C676 C678 1.358 . S
C676 H717 0.930 . S
C677 C675 1.353 . S
C677 N679 1.314 . S
C677 H718 0.930 . S
C678 C676 1.358 . S
C678 N679 1.279 . S
C678 H719 0.930 . S
N679 C677 1.314 . S
N679 C678 1.279 . S
C680 C682 1.353 . S
C680 N683 1.314 . S
C680 H686 0.930 . S
C681 N683 1.279 . S
C681 C684 1.358 . S
C681 H687 0.930 . S
C682 C680 1.353 . S
C682 C685 1.348 . S
C682 H720 0.929 . S
N683 Li638 1.990 . S
N683 C680 1.314 . S
N683 C681 1.279 . S
C684 C681 1.358 . S
C684 C685 1.356 . S
C684 H721 0.930 . S
C685 C682 1.348 . S
C685 C684 1.356 . S
H686 C680 0.930 . S
H687 C681 0.930 . S
C688 N689 1.314 . S
C688 C690 1.353 . S
C688 H694 0.930 . S
N689 Li639 1.990 . S
N689 C688 1.314 . S
N689 C692 1.279 . S
C690 C688 1.353 . S
C690 C693 1.348 . S
C690 H722 0.929 . S
C691 C692 1.358 . S
C691 C693 1.356 . S
C691 H723 0.930 . S
C692 N689 1.279 . S
C692 C691 1.358 . S
C692 H695 0.930 . S
C693 C690 1.348 . S
C693 C691 1.356 . S
H694 C688 0.930 . S
H695 C692 0.930 . S
O696 Li636 1.956 . S
O696 Li637 1.970 . S
O696 Li638 1.961 . S
O696 C640 1.325 . S
O697 Li636 1.970 . S
O697 Li637 1.956 . S
O697 Li639 1.961 . S
O697 C646 1.325 . S
O698 Li636 1.961 . S
O698 Li638 1.956 . S
O698 Li639 1.970 . S
O698 C668 1.325 . S
O699 Li637 1.961 . S
O699 Li638 1.970 . S
O699 Li639 1.956 . S
O699 C674 1.325 . S
H700 C642 0.929 . S
H701 C643 0.930 . S
H702 C644 0.930 . S
H703 C645 0.930 . S
H704 C647 0.930 . S
H705 C649 0.929 . S
H706 C650 0.930 . S
H707 C651 0.930 . S
H708 C654 0.930 . S
H709 C657 0.929 . S
H710 C662 0.929 . S
H711 C663 0.930 . S
H712 C670 0.929 . S
H713 C671 0.930 . S
H714 C672 0.930 . S
H715 C673 0.930 . S
H716 C675 0.929 . S
H717 C676 0.930 . S
H718 C677 0.930 . S
H719 C678 0.930 . S
H720 C682 0.929 . S
H721 C684 0.930 . S
H722 C690 0.929 . S
H723 C691 0.930 . S
Li724 N741 1.990 . S
Li724 O784 1.956 . S
Li724 O785 1.970 . S
Li724 O786 1.961 . S
Li725 N749 1.990 . S
Li725 O784 1.970 . S
Li725 O785 1.956 . S
Li725 O787 1.961 . S
Li726 N771 1.990 . S
Li726 O784 1.961 . S
Li726 O786 1.956 . S
Li726 O787 1.970 . S
Li727 N777 1.990 . S
Li727 O785 1.961 . S
Li727 O786 1.970 . S
Li727 O787 1.956 . S
C728 C730 1.348 . S
C728 C731 1.356 . S
C728 O784 1.325 . S
N729 C732 1.314 . S
N729 C733 1.279 . S
C730 C728 1.348 . S
C730 C732 1.353 . S
C730 H788 0.929 . S
C731 C728 1.356 . S
C731 C733 1.358 . S
C731 H789 0.930 . S
C732 N729 1.314 . S
C732 C730 1.353 . S
C732 H790 0.930 . S
C733 N729 1.279 . S
C733 C731 1.358 . S
C733 H791 0.930 . S
C734 C737 1.348 . S
C734 C738 1.356 . S
C734 O785 1.325 . S
C735 N736 1.279 . S
C735 C738 1.358 . S
C735 H792 0.930 . S
N736 C735 1.279 . S
N736 C739 1.314 . S
C737 C734 1.348 . S
C737 C739 1.353 . S
C737 H793 0.929 . S
C738 C734 1.356 . S
C738 C735 1.358 . S
C738 H794 0.930 . S
C739 N736 1.314 . S
C739 C737 1.353 . S
C739 H795 0.930 . S
C740 N741 1.314 . S
C740 C745 1.353 . S
C740 H746 0.930 . S
N741 Li724 1.990 . S
N741 C740 1.314 . S
N741 C743 1.279 . S
C742 C743 1.358 . S
C742 C744 1.356 . S
C742 H796 0.930 . S
C743 N741 1.279 . S
C743 C742 1.358 . S
C743 H747 0.930 . S
C744 C742 1.356 . S
C744 C745 1.348 . S
C745 C740 1.353 . S
C745 C744 1.348 . S
C745 H797 0.929 . S
H746 C740 0.930 . S
H747 C743 0.930 . S
C748 N749 1.314 . S
C748 C750 1.353 . S
C748 H754 0.930 . S
N749 Li725 1.990 . S
N749 C748 1.314 . S
N749 C752 1.279 . S
C750 C748 1.353 . S
C750 C753 1.348 . S
C750 H798 0.929 . S
C751 C752 1.358 . S
C751 C753 1.356 . S
C751 H799 0.930 . S
C752 N749 1.279 . S
C752 C751 1.358 . S
C752 H755 0.930 . S
C753 C750 1.348 . S
C753 C751 1.356 . S
H754 C748 0.930 . S
H755 C752 0.930 . S
C756 C758 1.348 . S
C756 C759 1.356 . S
C756 O786 1.325 . S
N757 C760 1.301 1_556 S
N757 C761 1.279 1_556 S
C758 C756 1.348 . S
C758 C760 1.379 . S
C758 H800 0.929 . S
C759 C756 1.356 . S
C759 C761 1.358 . S
C759 H801 0.930 . S
C760 N757 1.301 1_554 S
C760 C758 1.379 . S
C760 H802 0.916 1_554 S
C761 N757 1.279 1_554 S
C761 C759 1.358 . S
C761 H803 0.930 1_554 S
C762 C763 1.348 . S
C762 C764 1.356 . S
C762 O787 1.325 . S
C763 C762 1.348 . S
C763 C765 1.353 . S
C763 H804 0.929 . S
C764 C762 1.356 . S
C764 C766 1.358 . S
C764 H805 0.930 . S
C765 C763 1.353 . S
C765 N767 1.314 . S
C765 H806 0.930 . S
C766 C764 1.358 . S
C766 N767 1.279 . S
C766 H807 0.930 . S
N767 C765 1.314 . S
N767 C766 1.279 . S
C768 C770 1.353 . S
C768 N771 1.314 . S
C768 H774 0.930 . S
C769 N771 1.279 . S
C769 C772 1.358 1_554 S
C769 H775 0.927 1_554 S
C770 C768 1.353 . S
C770 C773 1.348 1_554 S
C770 H808 0.929 . S
N771 Li726 1.990 . S
N771 C768 1.314 . S
N771 C769 1.279 . S
C772 C769 1.358 1_556 S
C772 C773 1.356 . S
C772 H809 0.930 . S
C773 C770 1.348 1_556 S
C773 C772 1.356 . S
H774 C768 0.930 . S
H775 C769 0.927 1_556 S
C776 N777 1.314 . S
C776 C778 1.353 . S
C776 H782 0.930 . S
N777 Li727 1.990 . S
N777 C776 1.314 . S
N777 C780 1.279 . S
C778 C776 1.353 . S
C778 C781 1.348 . S
C778 H810 0.929 . S
C779 C780 1.358 . S
C779 C781 1.356 . S
C779 H811 0.930 . S
C780 N777 1.279 . S
C780 C779 1.358 . S
C780 H783 0.930 . S
C781 C778 1.348 . S
C781 C779 1.356 . S
H782 C776 0.930 . S
H783 C780 0.930 . S
O784 Li724 1.956 . S
O784 Li725 1.970 . S
O784 Li726 1.961 . S
O784 C728 1.325 . S
O785 Li724 1.970 . S
O785 Li725 1.956 . S
O785 Li727 1.961 . S
O785 C734 1.325 . S
O786 Li724 1.961 . S
O786 Li726 1.956 . S
O786 Li727 1.970 . S
O786 C756 1.325 . S
O787 Li725 1.961 . S
O787 Li726 1.970 . S
O787 Li727 1.956 . S
O787 C762 1.325 . S
H788 C730 0.929 . S
H789 C731 0.930 . S
H790 C732 0.930 . S
H791 C733 0.930 . S
H792 C735 0.930 . S
H793 C737 0.929 . S
H794 C738 0.930 . S
H795 C739 0.930 . S
H796 C742 0.930 . S
H797 C745 0.929 . S
H798 C750 0.929 . S
H799 C751 0.930 . S
H800 C758 0.929 . S
H801 C759 0.930 . S
H802 C760 0.916 1_556 S
H803 C761 0.930 1_556 S
H804 C763 0.929 . S
H805 C764 0.930 . S
H806 C765 0.930 . S
H807 C766 0.930 . S
H808 C770 0.929 . S
H809 C772 0.930 . S
H810 C778 0.929 . S
H811 C779 0.930 . S
Li812 N829 1.990 . S
Li812 O872 1.956 . S
Li812 O873 1.970 . S
Li812 O874 1.961 . S
Li813 N837 1.990 . S
Li813 O872 1.970 . S
Li813 O873 1.956 . S
Li813 O875 1.961 . S
Li814 N859 1.990 . S
Li814 O872 1.961 . S
Li814 O874 1.956 . S
Li814 O875 1.970 . S
Li815 N865 1.990 . S
Li815 O873 1.961 . S
Li815 O874 1.970 . S
Li815 O875 1.956 . S
C816 C818 1.348 . S
C816 C819 1.356 . S
C816 O872 1.325 . S
N817 C820 1.314 . S
N817 C821 1.279 . S
C818 C816 1.348 . S
C818 C820 1.353 . S
C818 H876 0.929 . S
C819 C816 1.356 . S
C819 C821 1.358 . S
C819 H877 0.930 . S
C820 N817 1.314 . S
C820 C818 1.353 . S
C820 H878 0.930 . S
C821 N817 1.279 . S
C821 C819 1.358 . S
C821 H879 0.930 . S
C822 C825 1.348 . S
C822 C826 1.356 . S
C822 O873 1.325 . S
C823 N824 1.279 . S
C823 C826 1.358 . S
C823 H880 0.930 . S
N824 C823 1.279 . S
N824 C827 1.314 . S
C825 C822 1.348 . S
C825 C827 1.353 . S
C825 H881 0.929 . S
C826 C822 1.356 . S
C826 C823 1.358 . S
C826 H882 0.930 . S
C827 N824 1.314 . S
C827 C825 1.353 . S
C827 H883 0.930 . S
C828 N829 1.314 . S
C828 C833 1.353 . S
C828 H834 0.930 . S
N829 Li812 1.990 . S
N829 C828 1.314 . S
N829 C831 1.279 . S
C830 C831 1.358 . S
C830 C832 1.356 . S
C830 H884 0.930 . S
C831 N829 1.279 . S
C831 C830 1.358 . S
C831 H835 0.930 . S
C832 C830 1.356 . S
C832 C833 1.348 . S
C833 C828 1.353 . S
C833 C832 1.348 . S
C833 H885 0.929 . S
H834 C828 0.930 . S
H835 C831 0.930 . S
C836 N837 1.314 . S
C836 C838 1.353 . S
C836 H842 0.930 . S
N837 Li813 1.990 . S
N837 C836 1.314 . S
N837 C840 1.279 . S
C838 C836 1.353 . S
C838 C841 1.348 . S
C838 H886 0.929 . S
C839 C840 1.358 . S
C839 C841 1.356 . S
C839 H887 0.930 . S
C840 N837 1.279 . S
C840 C839 1.358 . S
C840 H843 0.930 . S
C841 C838 1.348 . S
C841 C839 1.356 . S
H842 C836 0.930 . S
H843 C840 0.930 . S
C844 C846 1.348 . S
C844 C847 1.356 . S
C844 O874 1.325 . S
N845 C848 1.314 . S
N845 C849 1.279 . S
C846 C844 1.348 . S
C846 C848 1.353 . S
C846 H888 0.929 . S
C847 C844 1.356 . S
C847 C849 1.358 . S
C847 H889 0.930 . S
C848 N845 1.314 . S
C848 C846 1.353 . S
C848 H890 0.930 . S
C849 N845 1.279 . S
C849 C847 1.358 . S
C849 H891 0.930 . S
C850 C851 1.348 . S
C850 C852 1.356 . S
C850 O875 1.325 . S
C851 C850 1.348 . S
C851 C853 1.353 . S
C851 H892 0.929 . S
C852 C850 1.356 . S
C852 C854 1.358 . S
C852 H893 0.930 . S
C853 C851 1.353 . S
C853 N855 1.314 . S
C853 H894 0.930 . S
C854 C852 1.358 . S
C854 N855 1.279 . S
C854 H895 0.930 . S
N855 C853 1.314 . S
N855 C854 1.279 . S
C856 C858 1.353 . S
C856 N859 1.314 . S
C856 H862 0.930 . S
C857 N859 1.279 . S
C857 C860 1.358 . S
C857 H863 0.930 . S
C858 C856 1.353 . S
C858 C861 1.348 . S
C858 H896 0.929 . S
N859 Li814 1.990 . S
N859 C856 1.314 . S
N859 C857 1.279 . S
C860 C857 1.358 . S
C860 C861 1.356 . S
C860 H897 0.930 . S
C861 C858 1.348 . S
C861 C860 1.356 . S
H862 C856 0.930 . S
H863 C857 0.930 . S
C864 N865 1.314 . S
C864 C866 1.353 . S
C864 H870 0.930 . S
N865 Li815 1.990 . S
N865 C864 1.314 . S
N865 C868 1.279 . S
C866 C864 1.353 . S
C866 C869 1.348 . S
C866 H898 0.929 . S
C867 C868 1.358 . S
C867 C869 1.356 . S
C867 H899 0.930 . S
C868 N865 1.279 . S
C868 C867 1.358 . S
C868 H871 0.930 . S
C869 C866 1.348 . S
C869 C867 1.356 . S
H870 C864 0.930 . S
H871 C868 0.930 . S
O872 Li812 1.956 . S
O872 Li813 1.970 . S
O872 Li814 1.961 . S
O872 C816 1.325 . S
O873 Li812 1.970 . S
O873 Li813 1.956 . S
O873 Li815 1.961 . S
O873 C822 1.325 . S
O874 Li812 1.961 . S
O874 Li814 1.956 . S
O874 Li815 1.970 . S
O874 C844 1.325 . S
O875 Li813 1.961 . S
O875 Li814 1.970 . S
O875 Li815 1.956 . S
O875 C850 1.325 . S
H876 C818 0.929 . S
H877 C819 0.930 . S
H878 C820 0.930 . S
H879 C821 0.930 . S
H880 C823 0.930 . S
H881 C825 0.929 . S
H882 C826 0.930 . S
H883 C827 0.930 . S
H884 C830 0.930 . S
H885 C833 0.929 . S
H886 C838 0.929 . S
H887 C839 0.930 . S
H888 C846 0.929 . S
H889 C847 0.930 . S
H890 C848 0.930 . S
H891 C849 0.930 . S
H892 C851 0.929 . S
H893 C852 0.930 . S
H894 C853 0.930 . S
H895 C854 0.930 . S
H896 C858 0.929 . S
H897 C860 0.930 . S
H898 C866 0.929 . S
H899 C867 0.930 . S
C900 C901 1.363 . S
C900 C906 1.379 . S
C900 N908 1.356 . S
C901 C900 1.363 . S
C901 C907 1.363 . S
C902 C903 1.363 . S
C902 C907 1.379 . S
C902 N909 1.356 . S
C903 C902 1.363 . S
C903 C906 1.363 . S
N904 C906 1.356 . S
N904 H916 0.984 . S
N904 H917 0.985 . S
N905 C907 1.356 . S
N905 H910 0.984 . S
N905 H911 0.985 . S
C906 C900 1.379 . S
C906 C903 1.363 . S
C906 N904 1.356 . S
C907 C901 1.363 . S
C907 C902 1.379 . S
C907 N905 1.356 . S
N908 C900 1.356 . S
N908 H914 0.984 . S
N908 H915 0.984 . S
N909 C902 1.356 . S
N909 H912 0.984 . S
N909 H913 0.985 . S
H910 N905 0.984 . S
H911 N905 0.985 . S
H912 N909 0.984 . S
H913 N909 0.985 . S
H914 N908 0.984 . S
H915 N908 0.984 . S
H916 N904 0.984 . S
H917 N904 0.985 . S
C918 C919 1.363 . S
C918 C924 1.379 . S
C918 N926 1.356 . S
C919 C918 1.363 . S
C919 C925 1.363 . S
C920 C921 1.363 . S
C920 C925 1.379 . S
C920 N927 1.356 . S
C921 C920 1.363 . S
C921 C924 1.363 . S
N922 C924 1.356 . S
N922 H934 0.984 . S
N922 H935 0.985 . S
N923 C925 1.356 . S
N923 H928 0.984 . S
N923 H929 0.985 . S
C924 C918 1.379 . S
C924 C921 1.363 . S
C924 N922 1.356 . S
C925 C919 1.363 . S
C925 C920 1.379 . S
C925 N923 1.356 . S
N926 C918 1.356 . S
N926 H932 0.984 . S
N926 H933 0.984 . S
N927 C920 1.356 . S
N927 H930 0.984 . S
N927 H931 0.985 . S
H928 N923 0.984 . S
H929 N923 0.985 . S
H930 N927 0.984 . S
H931 N927 0.985 . S
H932 N926 0.984 . S
H933 N926 0.984 . S
H934 N922 0.984 . S
H935 N922 0.985 . S
C936 C937 1.363 . S
C936 C942 1.379 . S
C936 N944 1.356 . S
C937 C936 1.363 . S
C937 C943 1.363 . S
C938 C939 1.363 . S
C938 C943 1.379 . S
C938 N945 1.356 . S
C939 C938 1.363 . S
C939 C942 1.363 . S
N940 C942 1.356 . S
N940 H952 0.984 . S
N940 H953 0.985 . S
N941 C943 1.356 . S
N941 H946 0.984 . S
N941 H947 0.985 . S
C942 C936 1.379 . S
C942 C939 1.363 . S
C942 N940 1.356 . S
C943 C937 1.363 . S
C943 C938 1.379 . S
C943 N941 1.356 . S
N944 C936 1.356 . S
N944 H950 0.984 . S
N944 H951 0.984 . S
N945 C938 1.356 . S
N945 H948 0.984 . S
N945 H949 0.985 . S
H946 N941 0.984 . S
H947 N941 0.985 . S
H948 N945 0.984 . S
H949 N945 0.985 . S
H950 N944 0.984 . S
H951 N944 0.984 . S
H952 N940 0.984 . S
H953 N940 0.985 . S
C954 C955 1.363 . S
C954 C960 1.379 . S
C954 N962 1.356 . S
C955 C954 1.363 . S
C955 C961 1.363 . S
C956 C957 1.363 . S
C956 C961 1.379 . S
C956 N963 1.356 . S
C957 C956 1.363 . S
C957 C960 1.363 . S
N958 C960 1.356 . S
N958 H970 0.984 . S
N958 H971 0.985 . S
N959 C961 1.356 . S
N959 H964 0.984 . S
N959 H965 0.985 . S
C960 C954 1.379 . S
C960 C957 1.363 . S
C960 N958 1.356 . S
C961 C955 1.363 . S
C961 C956 1.379 . S
C961 N959 1.356 . S
N962 C954 1.356 . S
N962 H968 0.984 . S
N962 H969 0.984 . S
N963 C956 1.356 . S
N963 H966 0.984 . S
N963 H967 0.985 . S
H964 N959 0.984 . S
H965 N959 0.985 . S
H966 N963 0.984 . S
H967 N963 0.985 . S
H968 N962 0.984 . S
H969 N962 0.984 . S
H970 N958 0.984 . S
H971 N958 0.985 . S
C972 C973 1.363 . S
C972 C978 1.379 . S
C972 N980 1.356 . S
C973 C972 1.363 . S
C973 C979 1.363 . S
C974 C975 1.363 . S
C974 C979 1.379 . S
C974 N981 1.356 . S
C975 C974 1.363 . S
C975 C978 1.363 . S
N976 C978 1.356 . S
N976 H988 0.984 . S
N976 H989 0.985 . S
N977 C979 1.356 . S
N977 H982 0.984 . S
N977 H983 0.985 . S
C978 C972 1.379 . S
C978 C975 1.363 . S
C978 N976 1.356 . S
C979 C973 1.363 . S
C979 C974 1.379 . S
C979 N977 1.356 . S
N980 C972 1.356 . S
N980 H986 0.984 1_556 S
N980 H987 0.984 . S
N981 C974 1.356 . S
N981 H984 0.984 . S
N981 H985 0.985 . S
H982 N977 0.984 . S
H983 N977 0.985 . S
H984 N981 0.984 . S
H985 N981 0.985 . S
H986 N980 0.984 1_554 S
H987 N980 0.984 . S
H988 N976 0.984 . S
H989 N976 0.985 . S
C990 C991 1.363 . S
C990 C996 1.379 . S
C990 N998 1.356 . S
C991 C990 1.363 . S
C991 C997 1.363 . S
C992 C993 1.363 . S
C992 C997 1.379 . S
C992 N999 1.356 . S
C993 C992 1.363 . S
C993 C996 1.363 . S
N994 C996 1.356 . S
N994 H1006 0.984 . S
N994 H1007 0.985 . S
N995 C997 1.356 . S
N995 H1000 0.984 . S
N995 H1001 0.985 . S
C996 C990 1.379 . S
C996 C993 1.363 . S
C996 N994 1.356 . S
C997 C991 1.363 . S
C997 C992 1.379 . S
C997 N995 1.356 . S
N998 C990 1.356 . S
N998 H1004 0.984 . S
N998 H1005 0.984 . S
N999 C992 1.356 . S
N999 H1002 0.984 . S
N999 H1003 0.985 . S
H1000 N995 0.984 . S
H1001 N995 0.985 . S
H1002 N999 0.984 . S
H1003 N999 0.985 . S
H1004 N998 0.984 . S
H1005 N998 0.984 . S
H1006 N994 0.984 . S
H1007 N994 0.985 . S
C1008 C1009 1.363 . S
C1008 C1014 1.379 . S
C1008 N1016 1.356 . S
C1009 C1008 1.363 . S
C1009 C1015 1.363 . S
C1010 C1011 1.363 . S
C1010 C1015 1.379 . S
C1010 N1017 1.356 . S
C1011 C1010 1.363 . S
C1011 C1014 1.363 . S
N1012 C1014 1.356 . S
N1012 H1024 0.984 . S
N1012 H1025 0.985 . S
N1013 C1015 1.356 . S
N1013 H1018 0.984 . S
N1013 H1019 0.985 . S
C1014 C1008 1.379 . S
C1014 C1011 1.363 . S
C1014 N1012 1.356 . S
C1015 C1009 1.363 . S
C1015 C1010 1.379 . S
C1015 N1013 1.356 . S
N1016 C1008 1.356 . S
N1016 H1022 0.984 . S
N1016 H1023 0.984 . S
N1017 C1010 1.356 . S
N1017 H1020 0.984 . S
N1017 H1021 0.985 . S
H1018 N1013 0.984 . S
H1019 N1013 0.985 . S
H1020 N1017 0.984 . S
H1021 N1017 0.985 . S
H1022 N1016 0.984 . S
H1023 N1016 0.984 . S
H1024 N1012 0.984 . S
H1025 N1012 0.985 . S
C1026 C1027 1.363 . S
C1026 C1032 1.379 . S
C1026 N1034 1.356 . S
C1027 C1026 1.363 . S
C1027 C1033 1.363 . S
C1028 C1029 1.363 . S
C1028 C1033 1.379 . S
C1028 N1035 1.356 . S
C1029 C1028 1.363 . S
C1029 C1032 1.363 . S
N1030 C1032 1.356 . S
N1030 H1042 0.984 . S
N1030 H1043 0.985 . S
N1031 C1033 1.356 . S
N1031 H1036 0.984 . S
N1031 H1037 0.985 . S
C1032 C1026 1.379 . S
C1032 C1029 1.363 . S
C1032 N1030 1.356 . S
C1033 C1027 1.363 . S
C1033 C1028 1.379 . S
C1033 N1031 1.356 . S
N1034 C1026 1.356 . S
N1034 H1040 0.984 . S
N1034 H1041 0.984 . S
N1035 C1028 1.356 . S
N1035 H1038 0.984 . S
N1035 H1039 0.985 . S
H1036 N1031 0.984 . S
H1037 N1031 0.985 . S
H1038 N1035 0.984 . S
H1039 N1035 0.985 . S
H1040 N1034 0.984 . S
H1041 N1034 0.984 . S
H1042 N1030 0.984 . S
H1043 N1030 0.985 . S
C1044 C1045 1.363 . S
C1044 C1050 1.379 . S
C1044 N1052 1.356 . S
C1045 C1044 1.363 . S
C1045 C1051 1.363 . S
C1046 C1047 1.363 . S
C1046 C1051 1.379 . S
C1046 N1053 1.356 . S
C1047 C1046 1.363 . S
C1047 C1050 1.363 . S
N1048 C1050 1.356 . S
N1048 H1060 0.984 . S
N1048 H1061 0.985 . S
N1049 C1051 1.356 . S
N1049 H1054 0.984 . S
N1049 H1055 0.985 . S
C1050 C1044 1.379 . S
C1050 C1047 1.363 . S
C1050 N1048 1.356 . S
C1051 C1045 1.363 . S
C1051 C1046 1.379 . S
C1051 N1049 1.356 . S
N1052 C1044 1.356 . S
N1052 H1058 0.984 . S
N1052 H1059 0.984 . S
N1053 C1046 1.356 . S
N1053 H1056 0.984 . S
N1053 H1057 0.985 . S
H1054 N1049 0.984 . S
H1055 N1049 0.985 . S
H1056 N1053 0.984 . S
H1057 N1053 0.985 . S
H1058 N1052 0.984 . S
H1059 N1052 0.984 . S
H1060 N1048 0.984 . S
H1061 N1048 0.985 . S
C1062 C1063 1.363 . S
C1062 C1068 1.379 . S
C1062 N1070 1.356 . S
C1063 C1062 1.363 . S
C1063 C1069 1.363 . S
C1064 C1065 1.363 . S
C1064 C1069 1.379 . S
C1064 N1071 1.356 . S
C1065 C1064 1.363 . S
C1065 C1068 1.363 . S
N1066 C1068 1.356 . S
N1066 H1078 0.984 . S
N1066 H1079 0.985 . S
N1067 C1069 1.356 . S
N1067 H1072 0.984 . S
N1067 H1073 0.985 1_554 S
C1068 C1062 1.379 . S
C1068 C1065 1.363 . S
C1068 N1066 1.356 . S
C1069 C1063 1.363 . S
C1069 C1064 1.379 . S
C1069 N1067 1.356 . S
N1070 C1062 1.356 . S
N1070 H1076 0.984 . S
N1070 H1077 0.984 . S
N1071 C1064 1.356 . S
N1071 H1074 0.984 . S
N1071 H1075 0.985 . S
H1072 N1067 0.984 . S
H1073 N1067 0.985 1_556 S
H1074 N1071 0.984 . S
H1075 N1071 0.985 . S
H1076 N1070 0.984 . S
H1077 N1070 0.984 . S
H1078 N1066 0.984 . S
H1079 N1066 0.985 . S
C1080 C1081 1.363 . S
C1080 C1086 1.379 . S
C1080 N1088 1.356 . S
C1081 C1080 1.363 . S
C1081 C1087 1.363 . S
C1082 C1083 1.363 . S
C1082 C1087 1.379 . S
C1082 N1089 1.356 . S
C1083 C1082 1.363 . S
C1083 C1086 1.363 . S
N1084 C1086 1.356 . S
N1084 H1096 0.984 . S
N1084 H1097 0.985 . S
N1085 C1087 1.356 . S
N1085 H1090 0.984 . S
N1085 H1091 0.985 . S
C1086 C1080 1.379 . S
C1086 C1083 1.363 . S
C1086 N1084 1.356 . S
C1087 C1081 1.363 . S
C1087 C1082 1.379 . S
C1087 N1085 1.356 . S
N1088 C1080 1.356 . S
N1088 H1094 0.984 . S
N1088 H1095 0.984 . S
N1089 C1082 1.356 . S
N1089 H1092 0.984 . S
N1089 H1093 0.985 . S
H1090 N1085 0.984 . S
H1091 N1085 0.985 . S
H1092 N1089 0.984 . S
H1093 N1089 0.985 . S
H1094 N1088 0.984 . S
H1095 N1088 0.984 . S
H1096 N1084 0.984 . S
H1097 N1084 0.985 . S
C1098 C1099 1.363 . S
C1098 C1104 1.379 . S
C1098 N1106 1.356 . S
C1099 C1098 1.363 . S
C1099 C1105 1.363 . S
C1100 C1101 1.363 . S
C1100 C1105 1.379 . S
C1100 N1107 1.356 . S
C1101 C1100 1.363 . S
C1101 C1104 1.363 . S
N1102 C1104 1.356 . S
N1102 H1114 0.984 . S
N1102 H1115 0.985 . S
N1103 C1105 1.356 . S
N1103 H1108 0.984 . S
N1103 H1109 0.985 . S
C1104 C1098 1.379 . S
C1104 C1101 1.363 . S
C1104 N1102 1.356 . S
C1105 C1099 1.363 . S
C1105 C1100 1.379 . S
C1105 N1103 1.356 . S
N1106 C1098 1.356 . S
N1106 H1112 0.984 . S
N1106 H1113 0.984 . S
N1107 C1100 1.356 . S
N1107 H1110 0.984 . S
N1107 H1111 0.985 . S
H1108 N1103 0.984 . S
H1109 N1103 0.985 . S
H1110 N1107 0.984 . S
H1111 N1107 0.985 . S
H1112 N1106 0.984 . S
H1113 N1106 0.984 . S
H1114 N1102 0.984 . S
H1115 N1102 0.985 . S
C1116 C1117 1.363 . S
C1116 C1122 1.379 . S
C1116 N1124 1.356 . S
C1117 C1116 1.363 . S
C1117 C1123 1.363 . S
C1118 C1119 1.363 . S
C1118 C1123 1.379 . S
C1118 N1125 1.356 . S
C1119 C1118 1.363 . S
C1119 C1122 1.363 . S
N1120 C1122 1.356 . S
N1120 H1132 0.984 . S
N1120 H1133 0.985 . S
N1121 C1123 1.356 . S
N1121 H1126 0.984 . S
N1121 H1127 0.985 . S
C1122 C1116 1.379 . S
C1122 C1119 1.363 . S
C1122 N1120 1.356 . S
C1123 C1117 1.363 . S
C1123 C1118 1.379 . S
C1123 N1121 1.356 . S
N1124 C1116 1.356 . S
N1124 H1130 0.984 . S
N1124 H1131 0.984 . S
N1125 C1118 1.356 . S
N1125 H1128 0.984 . S
N1125 H1129 0.985 . S
H1126 N1121 0.984 . S
H1127 N1121 0.985 . S
H1128 N1125 0.984 . S
H1129 N1125 0.985 . S
H1130 N1124 0.984 . S
H1131 N1124 0.984 . S
H1132 N1120 0.984 . S
H1133 N1120 0.985 . S
C1134 C1135 1.363 . S
C1134 C1140 1.379 . S
C1134 N1142 1.356 . S
C1135 C1134 1.363 . S
C1135 C1141 1.363 . S
C1136 C1137 1.363 . S
C1136 C1141 1.379 . S
C1136 N1143 1.356 . S
C1137 C1136 1.363 . S
C1137 C1140 1.363 . S
N1138 C1140 1.356 . S
N1138 H1150 0.984 . S
N1138 H1151 0.985 . S
N1139 C1141 1.356 . S
N1139 H1144 0.984 . S
N1139 H1145 0.985 . S
C1140 C1134 1.379 . S
C1140 C1137 1.363 . S
C1140 N1138 1.356 . S
C1141 C1135 1.363 . S
C1141 C1136 1.379 . S
C1141 N1139 1.356 . S
N1142 C1134 1.356 . S
N1142 H1148 0.984 . S
N1142 H1149 0.984 . S
N1143 C1136 1.356 . S
N1143 H1146 0.984 . S
N1143 H1147 0.985 . S
H1144 N1139 0.984 . S
H1145 N1139 0.985 . S
H1146 N1143 0.984 . S
H1147 N1143 0.985 . S
H1148 N1142 0.984 . S
H1149 N1142 0.984 . S
H1150 N1138 0.984 . S
H1151 N1138 0.985 . S
C1152 C1153 1.363 . S
C1152 C1158 1.379 . S
C1152 N1160 1.356 . S
C1153 C1152 1.363 . S
C1153 C1159 1.363 . S
C1154 C1155 1.363 . S
C1154 C1159 1.379 . S
C1154 N1161 1.356 . S
C1155 C1154 1.363 . S
C1155 C1158 1.363 . S
N1156 C1158 1.356 . S
N1156 H1168 0.984 . S
N1156 H1169 0.985 . S
N1157 C1159 1.356 . S
N1157 H1162 0.984 . S
N1157 H1163 0.985 . S
C1158 C1152 1.379 . S
C1158 C1155 1.363 . S
C1158 N1156 1.356 . S
C1159 C1153 1.363 . S
C1159 C1154 1.379 . S
C1159 N1157 1.356 . S
N1160 C1152 1.356 . S
N1160 H1166 0.984 . S
N1160 H1167 0.984 . S
N1161 C1154 1.356 . S
N1161 H1164 0.984 . S
N1161 H1165 0.985 . S
H1162 N1157 0.984 . S
H1163 N1157 0.985 . S
H1164 N1161 0.984 . S
H1165 N1161 0.985 . S
H1166 N1160 0.984 . S
H1167 N1160 0.984 . S
H1168 N1156 0.984 . S
H1169 N1156 0.985 . S
C1170 C1171 1.363 . S
C1170 C1176 1.379 . S
C1170 N1178 1.356 . S
C1171 C1170 1.363 . S
C1171 C1177 1.363 . S
C1172 C1173 1.363 . S
C1172 C1177 1.379 . S
C1172 N1179 1.356 . S
C1173 C1172 1.363 . S
C1173 C1176 1.363 . S
N1174 C1176 1.356 . S
N1174 H1186 0.984 1_556 S
N1174 H1187 0.970 1_556 S
N1175 C1177 1.356 . S
N1175 H1180 0.984 . S
N1175 H1181 0.985 . S
C1176 C1170 1.379 . S
C1176 C1173 1.363 . S
C1176 N1174 1.356 . S
C1177 C1171 1.363 . S
C1177 C1172 1.379 . S
C1177 N1175 1.356 . S
N1178 C1170 1.356 . S
N1178 H1184 0.984 . S
N1178 H1185 0.984 . S
N1179 C1172 1.356 . S
N1179 H1182 0.984 . S
N1179 H1183 0.985 . S
H1180 N1175 0.984 . S
H1181 N1175 0.985 . S
H1182 N1179 0.984 . S
H1183 N1179 0.985 . S
H1184 N1178 0.984 . S
H1185 N1178 0.984 . S
H1186 N1174 0.984 1_554 S
H1187 N1174 0.970 1_554 S
C1188 C1189 1.363 . S
C1188 C1194 1.379 . S
C1188 N1196 1.356 . S
C1189 C1188 1.363 . S
C1189 C1195 1.363 . S
C1190 C1191 1.363 . S
C1190 C1195 1.379 . S
C1190 N1197 1.356 . S
C1191 C1190 1.363 . S
C1191 C1194 1.363 . S
N1192 C1194 1.356 . S
N1192 H1204 0.984 . S
N1192 H1205 0.985 . S
N1193 C1195 1.356 . S
N1193 H1198 0.984 . S
N1193 H1199 0.985 . S
C1194 C1188 1.379 . S
C1194 C1191 1.363 . S
C1194 N1192 1.356 . S
C1195 C1189 1.363 . S
C1195 C1190 1.379 . S
C1195 N1193 1.356 . S
N1196 C1188 1.356 . S
N1196 H1202 0.984 . S
N1196 H1203 0.984 . S
N1197 C1190 1.356 . S
N1197 H1200 0.984 . S
N1197 H1201 0.985 . S
H1198 N1193 0.984 . S
H1199 N1193 0.985 . S
H1200 N1197 0.984 . S
H1201 N1197 0.985 . S
H1202 N1196 0.984 . S
H1203 N1196 0.984 . S
H1204 N1192 0.984 . S
H1205 N1192 0.985 . S
C1206 C1207 1.363 . S
C1206 C1212 1.379 . S
C1206 N1214 1.356 . S
C1207 C1206 1.363 . S
C1207 C1213 1.363 . S
C1208 C1209 1.363 . S
C1208 C1213 1.379 . S
C1208 N1215 1.356 . S
C1209 C1208 1.363 . S
C1209 C1212 1.363 . S
N1210 C1212 1.356 . S
N1210 H1222 0.984 . S
N1210 H1223 0.985 . S
N1211 C1213 1.356 . S
N1211 H1216 0.984 . S
N1211 H1217 0.985 . S
C1212 C1206 1.379 . S
C1212 C1209 1.363 . S
C1212 N1210 1.356 . S
C1213 C1207 1.363 . S
C1213 C1208 1.379 . S
C1213 N1211 1.356 . S
N1214 C1206 1.356 . S
N1214 H1220 0.984 . S
N1214 H1221 0.984 . S
N1215 C1208 1.356 . S
N1215 H1218 0.984 . S
N1215 H1219 0.985 . S
H1216 N1211 0.984 . S
H1217 N1211 0.985 . S
H1218 N1215 0.984 . S
H1219 N1215 0.985 . S
H1220 N1214 0.984 . S
H1221 N1214 0.984 . S
H1222 N1210 0.984 . S
H1223 N1210 0.985 . S
C1224 C1225 1.363 . S
C1224 C1230 1.379 . S
C1224 N1232 1.356 . S
C1225 C1224 1.363 . S
C1225 C1231 1.363 . S
C1226 C1227 1.363 . S
C1226 C1231 1.379 . S
C1226 N1233 1.356 . S
C1227 C1226 1.363 . S
C1227 C1230 1.363 . S
N1228 C1230 1.356 . S
N1228 H1240 0.984 . S
N1228 H1241 0.985 . S
N1229 C1231 1.356 . S
N1229 H1234 0.984 . S
N1229 H1235 0.985 . S
C1230 C1224 1.379 . S
C1230 C1227 1.363 . S
C1230 N1228 1.356 . S
C1231 C1225 1.363 . S
C1231 C1226 1.379 . S
C1231 N1229 1.356 . S
N1232 C1224 1.356 . S
N1232 H1238 0.984 . S
N1232 H1239 0.984 . S
N1233 C1226 1.356 . S
N1233 H1236 0.984 . S
N1233 H1237 0.985 . S
H1234 N1229 0.984 . S
H1235 N1229 0.985 . S
H1236 N1233 0.984 . S
H1237 N1233 0.985 . S
H1238 N1232 0.984 . S
H1239 N1232 0.984 . S
H1240 N1228 0.984 . S
H1241 N1228 0.985 . S
C1242 C1243 1.363 . S
C1242 C1248 1.379 . S
C1242 N1250 1.356 . S
C1243 C1242 1.363 . S
C1243 C1249 1.363 . S
C1244 C1245 1.363 . S
C1244 C1249 1.379 . S
C1244 N1251 1.356 . S
C1245 C1244 1.363 . S
C1245 C1248 1.363 . S
N1246 C1248 1.356 . S
N1246 H1258 0.984 . S
N1246 H1259 0.985 . S
N1247 C1249 1.356 . S
N1247 H1252 0.984 . S
N1247 H1253 0.985 . S
C1248 C1242 1.379 . S
C1248 C1245 1.363 . S
C1248 N1246 1.356 . S
C1249 C1243 1.363 . S
C1249 C1244 1.379 . S
C1249 N1247 1.356 . S
N1250 C1242 1.356 . S
N1250 H1256 0.984 . S
N1250 H1257 0.984 . S
N1251 C1244 1.356 . S
N1251 H1254 0.984 . S
N1251 H1255 0.985 . S
H1252 N1247 0.984 . S
H1253 N1247 0.985 . S
H1254 N1251 0.984 . S
H1255 N1251 0.985 . S
H1256 N1250 0.984 . S
H1257 N1250 0.984 . S
H1258 N1246 0.984 . S
H1259 N1246 0.985 . S
C1260 C1261 1.363 . S
C1260 C1266 1.379 . S
C1260 N1268 1.356 . S
C1261 C1260 1.363 . S
C1261 C1267 1.363 . S
C1262 C1263 1.363 . S
C1262 C1267 1.379 . S
C1262 N1269 1.356 . S
C1263 C1262 1.363 . S
C1263 C1266 1.363 . S
N1264 C1266 1.356 . S
N1264 H1276 0.984 . S
N1264 H1277 0.985 . S
N1265 C1267 1.356 . S
N1265 H1270 0.984 . S
N1265 H1271 0.985 . S
C1266 C1260 1.379 . S
C1266 C1263 1.363 . S
C1266 N1264 1.356 . S
C1267 C1261 1.363 . S
C1267 C1262 1.379 . S
C1267 N1265 1.356 . S
N1268 C1260 1.356 . S
N1268 H1274 0.984 . S
N1268 H1275 0.984 . S
N1269 C1262 1.356 . S
N1269 H1272 0.984 . S
N1269 H1273 0.985 . S
H1270 N1265 0.984 . S
H1271 N1265 0.985 . S
H1272 N1269 0.984 . S
H1273 N1269 0.985 . S
H1274 N1268 0.984 . S
H1275 N1268 0.984 . S
H1276 N1264 0.984 . S
H1277 N1264 0.985 . S
C1278 C1279 1.363 . S
C1278 C1284 1.379 . S
C1278 N1286 1.356 . S
C1279 C1278 1.363 . S
C1279 C1285 1.363 . S
C1280 C1281 1.363 . S
C1280 C1285 1.379 . S
C1280 N1287 1.356 . S
C1281 C1280 1.363 . S
C1281 C1284 1.363 . S
N1282 C1284 1.356 . S
N1282 H1294 0.984 . S
N1282 H1295 0.985 . S
N1283 C1285 1.356 . S
N1283 H1288 0.984 . S
N1283 H1289 0.985 . S
C1284 C1278 1.379 . S
C1284 C1281 1.363 . S
C1284 N1282 1.356 . S
C1285 C1279 1.363 . S
C1285 C1280 1.379 . S
C1285 N1283 1.356 . S
N1286 C1278 1.356 . S
N1286 H1292 0.984 . S
N1286 H1293 0.984 . S
N1287 C1280 1.356 . S
N1287 H1290 0.984 . S
N1287 H1291 0.985 . S
H1288 N1283 0.984 . S
H1289 N1283 0.985 . S
H1290 N1287 0.984 . S
H1291 N1287 0.985 . S
H1292 N1286 0.984 . S
H1293 N1286 0.984 . S
H1294 N1282 0.984 . S
H1295 N1282 0.985 . S
C1296 C1297 1.363 . S
C1296 C1302 1.379 . S
C1296 N1304 1.356 . S
C1297 C1296 1.363 . S
C1297 C1303 1.363 . S
C1298 C1299 1.363 . S
C1298 C1303 1.379 . S
C1298 N1305 1.356 . S
C1299 C1298 1.363 . S
C1299 C1302 1.363 . S
N1300 C1302 1.356 1_556 S
N1300 H1312 0.984 . S
N1300 H1313 0.985 . S
N1301 C1303 1.356 . S
N1301 H1306 0.984 . S
N1301 H1307 0.985 . S
C1302 C1296 1.379 . S
C1302 C1299 1.363 . S
C1302 N1300 1.356 1_554 S
C1303 C1297 1.363 . S
C1303 C1298 1.379 . S
C1303 N1301 1.356 . S
N1304 C1296 1.356 . S
N1304 H1310 0.997 . S
N1304 H1311 0.984 . S
N1305 C1298 1.356 . S
N1305 H1308 0.984 . S
N1305 H1309 0.985 . S
H1306 N1301 0.984 . S
H1307 N1301 0.985 . S
H1308 N1305 0.984 . S
H1309 N1305 0.985 . S
H1310 N1304 0.997 . S
H1311 N1304 0.984 . S
H1312 N1300 0.984 . S
H1313 N1300 0.985 . S
C1314 C1315 1.363 . S
C1314 C1320 1.379 . S
C1314 N1322 1.356 . S
C1315 C1314 1.363 . S
C1315 C1321 1.363 . S
C1316 C1317 1.363 . S
C1316 C1321 1.379 . S
C1316 N1323 1.356 . S
C1317 C1316 1.363 . S
C1317 C1320 1.363 . S
N1318 C1320 1.356 . S
N1318 H1330 0.984 . S
N1318 H1331 0.985 . S
N1319 C1321 1.356 . S
N1319 H1324 0.984 . S
N1319 H1325 0.985 . S
C1320 C1314 1.379 . S
C1320 C1317 1.363 . S
C1320 N1318 1.356 . S
C1321 C1315 1.363 . S
C1321 C1316 1.379 . S
C1321 N1319 1.356 . S
N1322 C1314 1.356 . S
N1322 H1328 0.984 . S
N1322 H1329 0.984 . S
N1323 C1316 1.356 . S
N1323 H1326 0.984 . S
N1323 H1327 0.985 . S
H1324 N1319 0.984 . S
H1325 N1319 0.985 . S
H1326 N1323 0.984 . S
H1327 N1323 0.985 . S
H1328 N1322 0.984 . S
H1329 N1322 0.984 . S
H1330 N1318 0.984 . S
H1331 N1318 0.985 . S
C903 C841 1.823 . S
C901 C29 1.804 . S
C919 C115 1.771 . S
C921 C401 1.751 . S
C937 C153 1.729 . S
C939 C489 1.768 . S
C955 C239 1.805 . S
C957 C568 1.774 . S
C975 C665 1.760 . S
C973 C301 1.759 . S
C991 C339 1.989 . S
C993 C744 2.044 . S
C1009 C91 1.729 . S
C1011 C509 1.767 . S
C1027 C177 1.771 . S
C1029 C605 1.752 . S
C1045 C215 1.804 . S
C1047 C685 1.822 . S
C1065 C781 2.044 . S
C1063 C277 1.988 . S
C1083 C861 1.759 . S
C1081 C363 1.759 . S
C1101 C421 1.775 . S
C1099 C53 1.805 . S
C1117 C35 1.543 . S
C1119 C517 1.578 . S
C1135 C109 1.384 . S
C1137 C597 1.539 . S
C1155 C693 1.444 . S
C1153 C159 1.421 . S
C1171 C233 1.597 . S
C1173 C773 1.759 . S
C1191 C869 1.616 . S
C1189 C295 1.426 . S
C1209 C429 1.381 . S
C1207 C345 1.364 . S
C1227 C832 1.444 . S
C1225 C97 1.421 . S
C1243 C171 1.384 . S
C1245 C392 1.540 . S
C1263 C480 1.578 . S
C1261 C221 1.543 . S
C1279 C283 1.364 . S
C1281 C577 1.381 . S
C1297 C357 1.426 . S
C1299 C656 1.616 . S
C1315 C47 1.596 . S
C1317 C753 1.759 . S
