# Generated by pormake.
# Topology rtl, (3,6)-cn, num edge types: 1
# Building blocks:
#     Node 0, Type 0, BuildingBlock: QEWDON_clean_linker_0, # of connection points: 3
#     Node 1, Type 0, BuildingBlock: QEWDON_clean_linker_0, # of connection points: 3
#     Node 2, Type 0, BuildingBlock: QEWDON_clean_linker_0, # of connection points: 3
#     Node 3, Type 0, BuildingBlock: QEWDON_clean_linker_0, # of connection points: 3
#     Node 4, Type 1, BuildingBlock: FUNLAD_clean_sbu_0, # of connection points: 6
#     Node 5, Type 1, BuildingBlock: FUNLAD_clean_sbu_0, # of connection points: 6
#     Edge 6, Type (0, 1), BuildingBlock: UVAHIK_clean_linker_0, # of connection points: 2
#     Edge 7, Type (0, 1), BuildingBlock: UVAHIK_clean_linker_0, # of connection points: 2
#     Edge 8, Type (0, 1), BuildingBlock: UVAHIK_clean_linker_0, # of connection points: 2
#     Edge 9, Type (0, 1), BuildingBlock: UVAHIK_clean_linker_0, # of connection points: 2
#     Edge 10, Type (0, 1), BuildingBlock: UVAHIK_clean_linker_0, # of connection points: 2
#     Edge 11, Type (0, 1), BuildingBlock: UVAHIK_clean_linker_0, # of connection points: 2
#     Edge 12, Type (0, 1), BuildingBlock: UVAHIK_clean_linker_0, # of connection points: 2
#     Edge 13, Type (0, 1), BuildingBlock: UVAHIK_clean_linker_0, # of connection points: 2
#     Edge 14, Type (0, 1), BuildingBlock: UVAHIK_clean_linker_0, # of connection points: 2
#     Edge 15, Type (0, 1), BuildingBlock: UVAHIK_clean_linker_0, # of connection points: 2
#     Edge 16, Type (0, 1), BuildingBlock: UVAHIK_clean_linker_0, # of connection points: 2
#     Edge 17, Type (0, 1), BuildingBlock: UVAHIK_clean_linker_0, # of connection points: 2
# Relax obj value: 0.016
# Max RMSD: 0.110
# Mean RMSD: 0.088
data_MOF--net-rtl--node1-FUNLAD_clean_sbu_0--node2-QEWDON_clean_linker_0--edge1-UVAHIK_clean_linker_0
_symmetry_space_group_name_H-M    P1
_symmetry_Int_Tables_number       1
_symmetry_cell_setting            triclinic
loop_
_symmetry_equiv_pos_as_xyz
'x, y, z'
_cell_length_a     53.079462
_cell_length_b     52.980545
_cell_length_c     26.722057
_cell_angle_alpha  91.304558
_cell_angle_beta   92.3698
_cell_angle_gamma 90.008325
loop_
_atom_site_label
_atom_site_type_symbol
_atom_site_fract_x
_atom_site_fract_y
_atom_site_fract_z
_atom_type_partial_charge
H0 H 0.20887 0.85384 0.09959 0.0
C1 C 0.19885 0.85486 0.06349 0.0
C2 C 0.17322 0.8615 0.06095 0.0
C3 C 0.21194 0.85048 0.01959 0.0
H4 H 0.14139 0.86995 0.01157 0.0
C5 C 0.16077 0.86347 0.01382 0.0
C6 C 0.17379 0.85976 0.96953 0.0
C7 C 0.19938 0.85292 0.9727 0.0
C8 C 0.23951 0.8471 0.02285 0.0
H9 H 0.20981 0.85065 0.93885 0.0
C10 C 0.25058 0.82352 0.01271 0.0
C11 C 0.27701 0.82083 0.01589 0.0
C12 C 0.25486 0.86792 0.03628 0.0
H13 H 0.24657 0.88619 0.04426 0.0
C14 C 0.28101 0.86538 0.03912 0.0
H15 H 0.2387 0.80743 0.00241 0.0
C16 C 0.29205 0.84203 0.02899 0.0
H17 H 0.3124 0.84045 0.0323 0.0
H18 H 0.29275 0.88152 0.04945 0.0
H19 H 0.71075 0.68089 0.46362 0.0
C20 C 0.70033 0.67819 0.49714 0.0
C21 C 0.67501 0.67033 0.49312 0.0
C22 C 0.71272 0.68105 0.54432 0.0
H23 H 0.64298 0.65873 0.53401 0.0
C24 C 0.66209 0.66602 0.53697 0.0
C25 C 0.67441 0.66839 0.58436 0.0
C26 C 0.69975 0.67608 0.58772 0.0
C27 C 0.7402 0.68503 0.54806 0.0
H28 H 0.70971 0.67733 0.62395 0.0
C29 C 0.75077 0.70929 0.54539 0.0
C30 C 0.77712 0.7126 0.55079 0.0
C31 C 0.75596 0.66409 0.55535 0.0
H32 H 0.74805 0.64531 0.55749 0.0
C33 C 0.78202 0.6672 0.55979 0.0
H34 H 0.7385 0.72548 0.54045 0.0
C35 C 0.79256 0.69123 0.55757 0.0
H36 H 0.81289 0.69307 0.56083 0.0
H37 H 0.7941 0.65094 0.56509 0.0
H38 H 0.80563 0.17757 0.07992 0.0
C39 C 0.81613 0.17653 0.04598 0.0
C40 C 0.84173 0.16972 0.04839 0.0
C41 C 0.80366 0.18083 -0.00034 0.0
H42 H 0.87415 0.16112 0.00519 0.0
C43 C 0.85479 0.16767 0.00383 0.0
C44 C 0.84239 0.17135 0.95711 0.0
C45 C 0.81679 0.17818 0.95535 0.0
C46 C 0.77606 0.18394 0.99708 0.0
H47 H 0.8068 0.18037 0.91949 0.0
C48 C 0.76489 0.20796 0.99424 0.0
C49 C 0.73841 0.21034 0.99141 0.0
C50 C 0.7608 0.16236 0.99737 0.0
H51 H 0.76919 0.14375 -0.00039 0.0
C52 C 0.73463 0.16461 0.99467 0.0
H53 H 0.77675 0.22461 0.99382 0.0
C54 C 0.72347 0.18838 0.9917 0.0
H55 H 0.70308 0.1896 0.99039 0.0
H56 H 0.72294 0.14787 0.99503 0.0
H57 H 0.34413 0.31167 0.57848 0.0
C58 C 0.3461 0.32233 0.54471 0.0
C59 C 0.35288 0.34798 0.54816 0.0
C60 C 0.34319 0.31001 0.49781 0.0
H61 H 0.36257 0.38069 0.50642 0.0
C62 C 0.35613 0.36127 0.50396 0.0
C63 C 0.35372 0.34904 0.45684 0.0
C64 C 0.34711 0.32336 0.45405 0.0
C65 C 0.34004 0.2824 0.49483 0.0
H66 H 0.34585 0.31351 0.41802 0.0
C67 C 0.316 0.27121 0.49418 0.0
C68 C 0.31348 0.24473 0.49022 0.0
C69 C 0.36154 0.26716 0.49208 0.0
H70 H 0.38016 0.27557 0.49257 0.0
C71 C 0.35917 0.24097 0.48877 0.0
H72 H 0.29941 0.28308 0.49576 0.0
C73 C 0.33536 0.2298 0.48783 0.0
H74 H 0.33411 0.20939 0.48573 0.0
H75 H 0.37585 0.22929 0.48693 0.0
C76 C 0.03261 0.98818 0.43924 0.0
N77 N 0.05109 0.05669 0.51279 0.0
C78 C 0.07531 0.04836 0.51179 0.0
C79 C 0.09518 0.06545 0.50952 0.0
C80 C 0.09021 0.09147 0.50843 0.0
C81 C 0.06508 0.09963 0.5106 0.0
C82 C 0.04569 0.08181 0.51257 0.0
Zn83 Zn 0.02293 0.03014 0.51252 0.0
C84 C 0.98106 0.04142 0.43776 0.0
N85 N 0.96506 0.97368 0.50973 0.0
C86 C 0.97277 0.94923 0.51206 0.0
C87 C 0.9401 0.97971 0.50893 0.0
C88 C 0.92183 0.96073 0.51139 0.0
C89 C 0.92941 0.93542 0.51522 0.0
C90 C 0.95524 0.92979 0.51495 0.0
Zn91 Zn 0.99249 1.00098 0.50996 0.0
O92 O 0.04142 0.00892 0.45715 0.0
C93 C 0.03429 0.98953 0.58476 0.0
O94 O 0.01176 0.98006 0.45427 0.0
H95 H 0.93436 0.99927 0.50714 0.0
H96 H 0.07926 0.02834 0.51227 0.0
H97 H 0.99265 0.94477 0.51231 0.0
O98 O 0.04322 0.01 0.569 0.0
O99 O 0.0131 0.98164 0.56692 0.0
H100 H 0.0263 0.08804 0.51327 0.0
O101 O 0.97371 0.02247 0.56514 0.0
O102 O 1.00389 0.05091 0.56806 0.0
O103 O 0.9724 0.02081 0.45354 0.0
O104 O 1.00214 0.04972 0.45569 0.0
C105 C 0.98287 0.04313 0.58299 0.0
H106 H 0.1143 0.05834 0.50874 0.0
H107 H 0.06043 0.11952 0.50957 0.0
H108 H 0.90209 0.96586 0.51167 0.0
H109 H 0.96188 0.91049 0.51701 0.0
C110 C 0.47983 0.48934 0.94632 0.0
N111 N 0.54795 0.47161 0.02261 0.0
C112 C 0.5395 0.44735 0.02028 0.0
C113 C 0.55648 0.42731 0.01774 0.0
C114 C 0.58251 0.43216 0.01768 0.0
C115 C 0.59077 0.45736 0.02125 0.0
C116 C 0.57308 0.4769 0.02354 0.0
Zn117 Zn 0.52187 0.50022 0.02191 0.0
C118 C 0.53404 0.54004 0.95028 0.0
N119 N 0.46658 0.55906 0.01833 0.0
C120 C 0.44146 0.55375 0.01569 0.0
C121 C 0.47502 0.58331 0.01876 0.0
C122 C 0.45801 0.60334 0.01587 0.0
C123 C 0.43196 0.59848 0.01241 0.0
C124 C 0.42374 0.57326 0.01276 0.0
Zn125 Zn 0.49262 0.53051 0.02001 0.0
O126 O 0.50053 0.48079 0.9645 0.0
C127 C 0.48041 0.49066 0.09155 0.0
O128 O 0.47176 0.5105 0.96228 0.0
H129 H 0.49505 0.58716 0.02103 0.0
H130 H 0.51948 0.44351 0.01978 0.0
H131 H 0.43514 0.53434 0.01531 0.0
O132 O 0.50101 0.48165 0.07628 0.0
O133 O 0.47232 0.51151 0.07455 0.0
H134 H 0.57941 0.49632 0.02526 0.0
O135 O 0.514 0.54999 0.07792 0.0
O136 O 0.54274 0.52018 0.07918 0.0
O137 O 0.51339 0.549 0.96533 0.0
O138 O 0.5422 0.51931 0.96762 0.0
C139 C 0.53476 0.54129 0.09564 0.0
H140 H 0.54928 0.40816 0.01586 0.0
H141 H 0.61064 0.46197 0.02097 0.0
H142 H 0.46522 0.62248 0.01661 0.0
H143 H 0.40386 0.56862 0.00977 0.0
C144 C 0.28333 0.2118 0.45534 0.0
C145 C 0.28829 0.23236 0.48847 0.0
C146 C 0.26067 0.19852 0.4564 0.0
C147 C 0.19538 0.2008 0.49892 0.0
H148 H 0.20198 0.1279 0.49435 0.0
C149 C 0.11256 0.13203 0.5338 0.0
C150 C 0.11124 0.10973 0.50423 0.0
C151 C 0.13321 0.14838 0.53145 0.0
C152 C 0.1997 0.14821 0.49501 0.0
H153 H 0.27284 0.2557 0.5474 0.0
H154 H 0.23303 0.23241 0.54917 0.0
H155 H 0.23934 0.15414 0.4904 0.0
H156 H 0.12986 0.08782 0.4471 0.0
H157 H 0.1656 0.11629 0.44261 0.0
H158 H 0.15559 0.19473 0.50338 0.0
C159 C 0.24676 0.22667 0.52229 0.0
C160 C 0.22116 0.16327 0.4928 0.0
C161 C 0.26954 0.24001 0.52125 0.0
C162 C 0.13059 0.10456 0.47118 0.0
C163 C 0.1511 0.12088 0.46867 0.0
C164 C 0.1738 0.18567 0.50097 0.0
C165 C 0.24233 0.20543 0.49058 0.0
C166 C 0.21928 0.18973 0.49423 0.0
C167 C 0.15292 0.14279 0.49934 0.0
C168 C 0.1757 0.15917 0.49855 0.0
H169 H 0.29713 0.20579 0.4288 0.0
H170 H 0.25761 0.18262 0.43065 0.0
H171 H 0.19331 0.22114 0.49988 0.0
H172 H 0.098 0.13646 0.55983 0.0
H173 H 0.13409 0.16498 0.55584 0.0
C174 C 0.28084 0.77428 0.03071 0.0
C175 C 0.28921 0.796 0.00712 0.0
C176 C 0.29441 0.75167 0.02736 0.0
C177 C 0.35896 0.72951 0.00442 0.0
H178 H 0.32842 0.66298 0.99614 0.0
C179 C 0.41881 0.64037 0.97809 0.0
C180 C 0.41366 0.61966 0.00802 0.0
C181 C 0.40232 0.66087 0.97549 0.0
C182 C 0.3372 0.68145 -0.00114 0.0
H183 H 0.31725 0.81066 0.95875 0.0
H184 H 0.3406 0.77124 0.95207 0.0
H185 H 0.30156 0.70052 0.99468 0.0
H186 H 0.38678 0.60411 0.05799 0.0
H187 H 0.35791 0.64 0.0534 0.0
H188 H 0.39452 0.71062 0.00878 0.0
C189 C 0.32405 0.77176 0.97443 0.0
C190 C 0.32182 0.70294 0.99802 0.0
C191 C 0.31062 0.79433 0.97805 0.0
C192 C 0.39122 0.61967 0.03428 0.0
C193 C 0.37467 0.64022 0.03163 0.0
C194 C 0.37427 0.70811 0.00511 0.0
C195 C 0.31653 0.75033 0.00012 0.0
C196 C 0.33255 0.72725 0.00057 0.0
C197 C 0.38022 0.66121 0.00273 0.0
C198 C 0.36361 0.68382 0.00214 0.0
H199 H 0.26449 0.77509 0.05363 0.0
H200 H 0.28816 0.73558 0.04785 0.0
H201 H 0.36789 0.74789 0.00775 0.0
H202 H 0.43561 0.64074 0.95647 0.0
H203 H 0.4069 0.6765 0.95206 0.0
C204 C 0.78123 0.75574 0.51383 0.0
C205 C 0.78885 0.73807 0.54992 0.0
C206 C 0.7942 0.77867 0.51047 0.0
C207 C 0.85701 0.80544 0.53993 0.0
H208 H 0.8255 0.87069 0.52039 0.0
C209 C 0.91559 0.89599 0.55594 0.0
C210 C 0.91078 0.91483 0.52068 0.0
C211 C 0.8991 0.87568 0.55951 0.0
C212 C 0.83457 0.85256 0.52527 0.0
H213 H 0.81483 0.73143 0.61304 0.0
H214 H 0.83737 0.77114 0.60706 0.0
H215 H 0.79916 0.83296 0.52662 0.0
H216 H 0.88448 0.92752 0.46241 0.0
H217 H 0.85564 0.89168 0.46816 0.0
H218 H 0.8923 0.82461 0.5381 0.0
C219 C 0.8218 0.7671 0.58059 0.0
C220 C 0.81948 0.83098 0.5289 0.0
C221 C 0.80888 0.74433 0.58399 0.0
C222 C 0.88862 0.91331 0.49006 0.0
C223 C 0.87211 0.89281 0.49342 0.0
C224 C 0.87201 0.82685 0.53609 0.0
C225 C 0.81502 0.78428 0.5431 0.0
C226 C 0.83059 0.80725 0.53701 0.0
C227 C 0.87741 0.87353 0.52766 0.0
C228 C 0.86103 0.85076 0.52948 0.0
H229 H 0.76591 0.75143 0.48697 0.0
H230 H 0.78857 0.79153 0.48113 0.0
H231 H 0.86616 0.78734 0.54494 0.0
H232 H 0.93222 0.89693 0.58084 0.0
H233 H 0.90344 0.86156 0.58725 0.0
C234 C 0.73397 0.25554 0.02109 0.0
C235 C 0.72599 0.23546 0.98892 0.0
C236 C 0.72031 0.27818 0.02237 0.0
C237 C 0.65596 0.30153 0.99511 0.0
H238 H 0.6861 0.36816 0.00745 0.0
C239 C 0.5953 0.39078 0.97908 0.0
C240 C 0.60072 0.41099 0.01281 0.0
C241 C 0.61183 0.3704 0.97534 0.0
C242 C 0.67742 0.34966 0.00454 0.0
H243 H 0.69854 0.22404 0.93043 0.0
H244 H 0.67491 0.2634 0.93244 0.0
H245 H 0.71319 0.33089 0.00163 0.0
H246 H 0.62802 0.42576 0.06855 0.0
H247 H 0.6569 0.38996 0.0623 0.0
H248 H 0.6203 0.32 -0.00156 0.0
C249 C 0.69128 0.2615 0.95763 0.0
C250 C 0.69293 0.32832 0.00114 0.0
C251 C 0.70485 0.23895 0.9564 0.0
C252 C 0.62338 0.41056 0.04197 0.0
C253 C 0.63994 0.39006 0.03833 0.0
C254 C 0.64052 0.32275 -0.00141 0.0
C255 C 0.69845 0.28116 0.99146 0.0
C256 C 0.68234 0.30402 0.99591 0.0
C257 C 0.6342 0.36959 0.00535 0.0
C258 C 0.65099 0.34711 0.0029 0.0
H259 H 0.75011 0.25336 0.04677 0.0
H260 H 0.72628 0.29293 0.04899 0.0
H261 H 0.64718 0.28306 0.99236 0.0
H262 H 0.57829 0.39078 0.95526 0.0
H263 H 0.60708 0.35526 0.9487 0.0
C264 C 0.17199 0.88681 0.14105 0.0
C265 C 0.16018 0.8697 0.10663 0.0
C266 C 0.15862 0.89751 0.1801 0.0
C267 C 0.10188 0.89184 0.25396 0.0
H268 H 0.10734 0.96475 0.26559 0.0
C269 C 0.03619 0.95243 0.37654 0.0
C270 C 0.04694 0.9735 0.40223 0.0
C271 C 0.05 0.93869 0.34169 0.0
C272 C 0.10584 0.94436 0.2635 0.0
H273 H 0.12552 0.84936 0.08773 0.0
H274 H 0.10211 0.86808 0.1563 0.0
H275 H 0.13215 0.94182 0.20514 0.0
H276 H 0.08081 0.99631 0.41234 0.0
H277 H 0.10496 0.97212 0.35281 0.0
H278 H 0.07571 0.89438 0.31277 0.0
C279 C 0.12172 0.87319 0.15293 0.0
C280 C 0.12007 0.93123 0.22875 0.0
C281 C 0.13505 0.8626 0.11357 0.0
C282 C 0.07184 0.98035 0.39278 0.0
C283 C 0.08568 0.96652 0.35839 0.0
C284 C 0.08777 0.90499 0.28918 0.0
C285 C 0.13319 0.89126 0.18577 0.0
C286 C 0.1183 0.90485 0.22364 0.0
C287 C 0.07491 0.94562 0.33208 0.0
C288 C 0.08962 0.93143 0.29444 0.0
H289 H 0.19123 0.89287 0.13642 0.0
H290 H 0.16802 0.91117 0.20523 0.0
H291 H 0.10023 0.87148 0.25094 0.0
H292 H 0.01703 0.94669 0.38299 0.0
H293 H 0.04099 0.92289 0.32171 0.0
C294 C 0.67401 0.64256 0.66162 0.0
C295 C 0.66167 0.65949 0.62913 0.0
C296 C 0.66102 0.63131 0.69969 0.0
C297 C 0.60449 0.63573 0.77486 0.0
H298 H 0.61097 0.56292 0.78016 0.0
C299 C 0.53839 0.57504 0.88966 0.0
C300 C 0.54879 0.55402 0.91413 0.0
C301 C 0.55253 0.58857 0.85635 0.0
C302 C 0.60921 0.58327 0.77986 0.0
H303 H 0.62645 0.67884 0.61255 0.0
H304 H 0.60374 0.65926 0.67945 0.0
H305 H 0.63561 0.58627 0.72191 0.0
H306 H 0.58232 0.53091 0.92327 0.0
H307 H 0.60717 0.55481 0.86621 0.0
H308 H 0.57825 0.6328 0.83314 0.0
C309 C 0.62345 0.65469 0.67535 0.0
C310 C 0.62333 0.59665 0.74636 0.0
C311 C 0.63639 0.66579 0.63695 0.0
C312 C 0.57366 0.54687 0.90466 0.0
C313 C 0.58788 0.56054 0.87173 0.0
C314 C 0.59051 0.62236 0.80877 0.0
C315 C 0.63548 0.63688 0.70632 0.0
C316 C 0.62107 0.623 0.74337 0.0
C317 C 0.57751 0.58155 0.84706 0.0
C318 C 0.59261 0.59593 0.81155 0.0
H319 H 0.69339 0.6371 0.6562 0.0
H320 H 0.67083 0.61785 0.72335 0.0
H321 H 0.60252 0.65606 0.7736 0.0
H322 H 0.51924 0.58099 0.89604 0.0
H323 H 0.54376 0.60436 0.83744 0.0
C324 C 0.87917 0.16821 0.10893 0.0
C325 C 0.85411 0.16135 0.09601 0.0
C326 C 0.89199 0.15733 0.14981 0.0
C327 C 0.89236 0.09897 0.21999 0.0
H328 H 0.93714 0.13514 0.31487 0.0
C329 C 0.94144 0.04899 0.38629 0.0
C330 C 0.9664 0.05588 0.39983 0.0
C331 C 0.92733 0.06285 0.35126 0.0
C332 C 0.92495 0.12471 0.2883 0.0
H333 H 0.82259 0.13831 0.11683 0.0
H334 H 0.84489 0.11952 0.1884 0.0
H335 H 0.91284 0.15844 0.25148 0.0
H336 H 0.99617 0.08273 0.38702 0.0
H337 H 0.97179 0.10654 0.32482 0.0
H338 H 0.90478 0.06522 0.25554 0.0
C339 C 0.85465 0.13321 0.16672 0.0
C340 C 0.91095 0.1381 0.25216 0.0
C341 C 0.8418 0.1442 0.12611 0.0
C342 C 0.97696 0.07695 0.37746 0.0
C343 C 0.9629 0.09072 0.34207 0.0
C344 C 0.90646 0.08559 0.25576 0.0
C345 C 0.88005 0.13921 0.1783 0.0
C346 C 0.89447 0.12535 0.21772 0.0
C347 C 0.93789 0.08385 0.32852 0.0
C348 C 0.92292 0.09827 0.29046 0.0
H349 H 0.88908 0.18146 0.08651 0.0
H350 H 0.91158 0.16225 0.15772 0.0
H351 H 0.8802 0.08856 0.1933 0.0
H352 H 0.93263 0.033 0.40317 0.0
H353 H 0.908 0.05726 0.34248 0.0
C354 C 0.35325 0.38527 0.60795 0.0
C355 C 0.36018 0.36017 0.5972 0.0
C356 C 0.36364 0.39812 0.65021 0.0
C357 C 0.42141 0.39854 0.72887 0.0
H358 H 0.38542 0.4444 0.81556 0.0
C359 C 0.4717 0.44918 0.89737 0.0
C360 C 0.46504 0.47434 0.90805 0.0
C361 C 0.45762 0.43473 0.86197 0.0
C362 C 0.3958 0.43189 0.79131 0.0
H363 H 0.38261 0.32855 0.62349 0.0
H364 H 0.40053 0.35089 0.69743 0.0
H365 H 0.3621 0.41958 0.75076 0.0
H366 H 0.43836 0.50408 0.88988 0.0
H367 H 0.41419 0.47906 0.82689 0.0
H368 H 0.45513 0.4112 0.76794 0.0
C369 C 0.3872 0.36067 0.67298 0.0
C370 C 0.3824 0.4176 0.75439 0.0
C371 C 0.3767 0.34779 0.63096 0.0
C372 C 0.44396 0.48473 0.88251 0.0
C373 C 0.42998 0.47031 0.84668 0.0
C374 C 0.43479 0.41294 0.76536 0.0
C375 C 0.38131 0.38616 0.6823 0.0
C376 C 0.39509 0.40074 0.72286 0.0
C377 C 0.43667 0.44512 0.8359 0.0
C378 C 0.42219 0.42979 0.79714 0.0
H379 H 0.34046 0.39524 0.58269 0.0
H380 H 0.3588 0.41777 0.65634 0.0
H381 H 0.43178 0.38611 0.70443 0.0
H382 H 0.48767 0.4405 0.91677 0.0
H383 H 0.46306 0.41527 0.85543 0.0
C384 C 0.63771 0.66906 0.43217 0.0
C385 C 0.66299 0.66285 0.44387 0.0
C386 C 0.62512 0.65839 0.38981 0.0
C387 C 0.6259 0.60071 0.3132 0.0
H388 H 0.57952 0.63592 0.22334 0.0
C389 C 0.57494 0.54918 0.14594 0.0
C390 C 0.54986 0.55595 0.13397 0.0
C391 C 0.58947 0.56338 0.18112 0.0
C392 C 0.59216 0.62574 0.24848 0.0
H393 H 0.69517 0.64139 0.41928 0.0
H394 H 0.67322 0.62288 0.34522 0.0
H395 H 0.60396 0.65971 0.28798 0.0
H396 H 0.52028 0.58285 0.14983 0.0
H397 H 0.54533 0.60713 0.21242 0.0
H398 H 0.61369 0.56668 0.27529 0.0
C399 C 0.66313 0.63592 0.36894 0.0
C400 C 0.60625 0.63942 0.28529 0.0
C401 C 0.67578 0.64675 0.41101 0.0
C402 C 0.53958 0.57717 0.15813 0.0
C403 C 0.55404 0.59123 0.19374 0.0
C404 C 0.61167 0.58702 0.27683 0.0
C405 C 0.6375 0.64111 0.35864 0.0
C406 C 0.62327 0.62702 0.31801 0.0
C407 C 0.5792 0.58454 0.20566 0.0
C408 C 0.59458 0.59932 0.24397 0.0
H409 H 0.62743 0.68148 0.4568 0.0
H410 H 0.60534 0.66267 0.38291 0.0
H411 H 0.63851 0.59057 0.33853 0.0
H412 H 0.58351 0.53309 0.12761 0.0
H413 H 0.60889 0.55789 0.18858 0.0
C414 C 0.84406 0.14773 0.87516 0.0
C415 C 0.85547 0.1645 0.91071 0.0
C416 C 0.85776 0.13785 0.83571 0.0
C417 C 0.92373 0.12505 0.80381 0.0
H418 H 0.89306 0.10614 0.67416 0.0
C419 C 0.97998 0.07963 0.64392 0.0
C420 C 0.96876 0.05843 0.61946 0.0
C421 C 0.9664 0.09442 0.6774 0.0
C422 C 0.90183 0.11122 0.71031 0.0
H423 H 0.88962 0.1853 0.9312 0.0
H424 H 0.91341 0.16864 0.86147 0.0
H425 H 0.86873 0.13029 0.73418 0.0
H426 H 0.93444 0.03622 0.61085 0.0
H427 H 0.91076 0.06211 0.66915 0.0
H428 H 0.95684 0.10598 0.77973 0.0
C429 C 0.89409 0.16253 0.86479 0.0
C430 C 0.8879 0.12504 0.74475 0.0
C431 C 0.88044 0.17224 0.90451 0.0
C432 C 0.94367 0.05238 0.62917 0.0
C433 C 0.93003 0.06732 0.66224 0.0
C434 C 0.93771 0.11144 0.76919 0.0
C435 C 0.88315 0.14465 0.83068 0.0
C436 C 0.89855 0.13184 0.79225 0.0
C437 C 0.94124 0.08849 0.68671 0.0
C438 C 0.9268 0.1041 0.72235 0.0
H439 H 0.82497 0.14113 0.87941 0.0
H440 H 0.84877 0.1239 0.81067 0.0
H441 H 0.93246 0.12949 0.84029 0.0
H442 H 0.99926 0.08484 0.63719 0.0
H443 H 0.97548 0.11072 0.6955 0.0
C444 C 0.37855 0.35128 0.37943 0.0
C445 C 0.36133 0.36246 0.41172 0.0
C446 C 0.38861 0.36511 0.34108 0.0
C447 C 0.40064 0.43121 0.30733 0.0
H448 H 0.41958 0.4003 0.18146 0.0
C449 C 0.44441 0.48755 0.14906 0.0
C450 C 0.46559 0.47654 0.1274 0.0
C451 C 0.43007 0.47391 0.1819 0.0
C452 C 0.41449 0.40914 0.21657 0.0
H453 H 0.3401 0.39641 0.42756 0.0
H454 H 0.35714 0.42044 0.35973 0.0
H455 H 0.39601 0.37579 0.24002 0.0
H456 H 0.48825 0.44253 0.12316 0.0
H457 H 0.46316 0.41874 0.18031 0.0
H458 H 0.4191 0.46457 0.28362 0.0
C459 C 0.36341 0.40119 0.36481 0.0
C460 C 0.40102 0.3951 0.25018 0.0
C461 C 0.35351 0.3874 0.40345 0.0
C462 C 0.4721 0.4516 0.13929 0.0
C463 C 0.45762 0.43789 0.17171 0.0
C464 C 0.41391 0.44529 0.27351 0.0
C465 C 0.38155 0.39042 0.33388 0.0
C466 C 0.39419 0.40585 0.2963 0.0
C467 C 0.43645 0.44888 0.19332 0.0
C468 C 0.42125 0.43431 0.22807 0.0
H469 H 0.38524 0.33222 0.38539 0.0
H470 H 0.40278 0.35626 0.31856 0.0
H471 H 0.39613 0.44001 0.34281 0.0
H472 H 0.43887 0.50672 0.14061 0.0
H473 H 0.41376 0.48281 0.19779 0.0
C474 C 0.17309 0.88374 0.88991 0.0
C475 C 0.16134 0.8667 0.92106 0.0
C476 C 0.15976 0.89401 0.84903 0.0
C477 C 0.09409 0.90749 0.80688 0.0
H478 H 0.12511 0.92755 0.68508 0.0
C479 C 0.03773 0.95325 0.6431 0.0
C480 C 0.04872 0.9745 0.62213 0.0
C481 C 0.05151 0.93857 0.6773 0.0
C482 C 0.11626 0.92217 0.71906 0.0
H483 H 0.12707 0.84572 0.93196 0.0
H484 H 0.10395 0.86304 0.85969 0.0
H485 H 0.1493 0.90287 0.74637 0.0
H486 H 0.08287 0.99692 0.62051 0.0
H487 H 0.10694 0.97122 0.68029 0.0
H488 H 0.06107 0.92677 0.77947 0.0
C489 C 0.12323 0.86908 0.86763 0.0
C490 C 0.1301 0.90804 0.75419 0.0
C491 C 0.1365 0.85899 0.90877 0.0
C492 C 0.07382 0.98072 0.6361 0.0
C493 C 0.08768 0.9659 0.67001 0.0
C494 C 0.08022 0.92142 0.77159 0.0
C495 C 0.13442 0.88733 0.83817 0.0
C496 C 0.11927 0.90072 0.79881 0.0
C497 C 0.07666 0.94467 0.69098 0.0
C498 C 0.09122 0.92913 0.72754 0.0
H499 H 0.19211 0.89031 0.89889 0.0
H500 H 0.16895 0.90819 0.82762 0.0
H501 H 0.08525 0.90269 0.84121 0.0
H502 H 0.01846 0.94787 0.63302 0.0
H503 H 0.04258 0.92221 0.69253 0.0
loop_
_geom_bond_atom_site_label_1
_geom_bond_atom_site_label_2
_geom_bond_distance
_geom_bond_site_symmetry_2
_ccdc_geom_bond_type
H0 C1 0.949 . S
C1 H0 0.949 . S
C1 C2 1.395 . S
C1 C3 1.391 . S
C2 C1 1.395 . S
C2 C5 1.390 . S
C3 C1 1.391 . S
C3 C7 1.387 1_554 S
C3 C8 1.491 1_554 S
H4 C5 0.950 . S
C5 C2 1.390 . S
C5 H4 0.950 . S
C5 C6 1.378 1_554 S
C6 C5 1.378 1_556 S
C6 C7 1.409 . S
C7 C3 1.387 1_556 S
C7 C6 1.409 . S
C7 H9 0.951 . S
C8 C3 1.491 1_556 S
C8 C10 1.382 1_556 S
C8 C12 1.404 . S
H9 C7 0.951 . S
C10 C8 1.382 1_554 S
C10 C11 1.390 . S
C10 H15 0.949 . S
C11 C10 1.390 . S
C11 C16 1.399 1_554 S
C12 C8 1.404 . S
C12 H13 0.950 . S
C12 C14 1.375 . S
H13 C12 0.950 . S
C14 C12 1.375 . S
C14 C16 1.382 . S
C14 H18 0.950 . S
H15 C10 0.949 . S
C16 C11 1.399 1_556 S
C16 C14 1.382 . S
C16 H17 0.952 . S
H17 C16 0.952 . S
H18 C14 0.950 . S
H19 C20 0.949 . S
C20 H19 0.949 . S
C20 C21 1.395 . S
C20 C22 1.391 . S
C21 C20 1.395 . S
C21 C24 1.390 . S
C22 C20 1.391 . S
C22 C26 1.387 . S
C22 C27 1.491 . S
H23 C24 0.950 . S
C24 C21 1.390 . S
C24 H23 0.950 . S
C24 C25 1.378 . S
C25 C24 1.378 . S
C25 C26 1.409 . S
C26 C22 1.387 . S
C26 C25 1.409 . S
C26 H28 0.951 . S
C27 C22 1.491 . S
C27 C29 1.382 . S
C27 C31 1.404 . S
H28 C26 0.951 . S
C29 C27 1.382 . S
C29 C30 1.390 . S
C29 H34 0.949 . S
C30 C29 1.390 . S
C30 C35 1.399 . S
C31 C27 1.404 . S
C31 H32 0.950 . S
C31 C33 1.375 . S
H32 C31 0.950 . S
C33 C31 1.375 . S
C33 C35 1.382 . S
C33 H37 0.950 . S
H34 C29 0.949 . S
C35 C30 1.399 . S
C35 C33 1.382 . S
C35 H36 0.952 . S
H36 C35 0.952 . S
H37 C33 0.950 . S
H38 C39 0.949 . S
C39 H38 0.949 . S
C39 C40 1.395 . S
C39 C41 1.391 1_554 S
C40 C39 1.395 . S
C40 C43 1.390 . S
C41 C39 1.391 1_556 S
C41 C45 1.387 . S
C41 C46 1.491 . S
H42 C43 0.950 . S
C43 C40 1.390 . S
C43 H42 0.950 . S
C43 C44 1.378 1_554 S
C44 C43 1.378 1_556 S
C44 C45 1.409 . S
C45 C41 1.387 . S
C45 C44 1.409 . S
C45 H47 0.951 . S
C46 C41 1.491 . S
C46 C48 1.382 1_556 S
C46 C50 1.404 . S
H47 C45 0.951 . S
C48 C46 1.382 1_554 S
C48 C49 1.390 . S
C48 H53 0.949 . S
C49 C48 1.390 . S
C49 C54 1.399 1_554 S
C50 C46 1.404 . S
C50 H51 0.950 . S
C50 C52 1.375 . S
H51 C50 0.950 . S
C52 C50 1.375 . S
C52 C54 1.382 . S
C52 H56 0.950 . S
H53 C48 0.949 . S
C54 C49 1.399 1_556 S
C54 C52 1.382 . S
C54 H55 0.952 . S
H55 C54 0.952 . S
H56 C52 0.950 . S
H57 C58 0.949 . S
C58 H57 0.949 . S
C58 C59 1.395 . S
C58 C60 1.391 . S
C59 C58 1.395 . S
C59 C62 1.390 . S
C60 C58 1.391 . S
C60 C64 1.387 . S
C60 C65 1.491 . S
H61 C62 0.950 . S
C62 C59 1.390 . S
C62 H61 0.950 . S
C62 C63 1.378 . S
C63 C62 1.378 . S
C63 C64 1.409 . S
C64 C60 1.387 . S
C64 C63 1.409 . S
C64 H66 0.951 . S
C65 C60 1.491 . S
C65 C67 1.382 . S
C65 C69 1.404 . S
H66 C64 0.951 . S
C67 C65 1.382 . S
C67 C68 1.390 . S
C67 H72 0.949 . S
C68 C67 1.390 . S
C68 C73 1.399 . S
C69 C65 1.404 . S
C69 H70 0.950 . S
C69 C71 1.375 . S
H70 C69 0.950 . S
C71 C69 1.375 . S
C71 C73 1.382 . S
C71 H75 0.950 . S
H72 C67 0.949 . S
C73 C68 1.399 . S
C73 C71 1.382 . S
C73 H74 0.952 . S
H74 C73 0.952 . S
H75 C71 0.950 . S
C76 O92 1.251 1_565 S
C76 O94 1.254 . S
N77 C78 1.333 . S
N77 C82 1.307 . S
N77 Zn83 2.020 . S
C78 N77 1.333 . S
C78 C79 1.379 . S
C78 H96 0.952 . S
C79 C78 1.379 . S
C79 C80 1.390 . S
C79 H106 0.949 . S
C80 C79 1.390 . S
C80 C81 1.357 . S
C81 C80 1.357 . S
C81 C82 1.370 . S
C81 H107 0.950 . S
C82 N77 1.307 . S
C82 C81 1.370 . S
C82 H100 0.948 . S
Zn83 N77 2.020 . S
Zn83 O92 2.039 . S
Zn83 O98 2.034 . S
Zn83 O102 2.025 . S
Zn83 O104 2.041 . S
C84 O103 1.246 . S
C84 O104 1.228 1_655 S
N85 C86 1.307 . S
N85 C87 1.333 . S
N85 Zn91 2.020 . S
C86 N85 1.307 . S
C86 C90 1.370 . S
C86 H97 0.948 . S
C87 N85 1.333 . S
C87 C88 1.379 . S
C87 H95 0.952 . S
C88 C87 1.379 . S
C88 C89 1.390 . S
C88 H108 0.949 . S
C89 C88 1.390 . S
C89 C90 1.357 . S
C90 C86 1.370 . S
C90 C89 1.357 . S
C90 H109 0.950 . S
Zn91 N85 2.020 . S
Zn91 O94 2.025 1_655 S
Zn91 O99 2.024 1_655 S
Zn91 O101 2.039 1_565 S
Zn91 O103 2.034 1_565 S
O92 C76 1.251 1_545 S
O92 Zn83 2.039 . S
C93 O98 1.246 1_565 S
C93 O99 1.249 . S
O94 C76 1.254 . S
O94 Zn91 2.025 1_455 S
H95 C87 0.952 . S
H96 C78 0.952 . S
H97 C86 0.948 . S
O98 Zn83 2.034 . S
O98 C93 1.246 1_545 S
O99 Zn91 2.024 1_455 S
O99 C93 1.249 . S
H100 C82 0.948 . S
O101 Zn91 2.039 1_545 S
O101 C105 1.251 . S
O102 Zn83 2.025 . S
O102 C105 1.254 1_455 S
O103 C84 1.246 . S
O103 Zn91 2.034 1_545 S
O104 Zn83 2.041 . S
O104 C84 1.228 1_455 S
C105 O101 1.251 . S
C105 O102 1.254 1_655 S
H106 C79 0.949 . S
H107 C81 0.950 . S
H108 C88 0.949 . S
H109 C90 0.950 . S
C110 O126 1.251 . S
C110 O128 1.254 . S
N111 C112 1.333 . S
N111 C116 1.307 . S
N111 Zn117 2.020 . S
C112 N111 1.333 . S
C112 C113 1.379 . S
C112 H130 0.948 1_554 S
C113 C112 1.379 . S
C113 C114 1.390 . S
C113 H140 0.949 1_554 S
C114 C113 1.390 . S
C114 C115 1.357 . S
C115 C114 1.357 . S
C115 C116 1.370 . S
C115 H141 0.950 . S
C116 N111 1.307 . S
C116 C115 1.370 . S
C116 H134 0.948 . S
Zn117 N111 2.020 . S
Zn117 O126 2.039 1_554 S
Zn117 O132 2.034 . S
Zn117 O136 2.025 . S
Zn117 O138 2.024 1_554 S
C118 O137 1.246 . S
C118 O138 1.249 . S
N119 C120 1.307 . S
N119 C121 1.333 . S
N119 Zn125 2.020 . S
C120 N119 1.307 . S
C120 C124 1.370 . S
C120 H131 0.948 . S
C121 N119 1.333 . S
C121 C122 1.379 . S
C121 H129 0.952 . S
C122 C121 1.379 . S
C122 C123 1.390 . S
C122 H142 0.949 . S
C123 C122 1.390 . S
C123 C124 1.357 . S
C124 C120 1.370 . S
C124 C123 1.357 . S
C124 H143 0.950 . S
Zn125 N119 2.020 . S
Zn125 O128 2.025 1_554 S
Zn125 O133 2.024 . S
Zn125 O135 2.039 . S
Zn125 O137 2.034 1_554 S
O126 C110 1.251 . S
O126 Zn117 2.039 1_556 S
C127 O132 1.246 . S
C127 O133 1.249 . S
O128 C110 1.254 . S
O128 Zn125 2.025 1_556 S
H129 C121 0.952 . S
H130 C112 0.948 1_556 S
H131 C120 0.948 . S
O132 Zn117 2.034 . S
O132 C127 1.246 . S
O133 Zn125 2.024 . S
O133 C127 1.249 . S
H134 C116 0.948 . S
O135 Zn125 2.039 . S
O135 C139 1.251 . S
O136 Zn117 2.025 . S
O136 C139 1.254 . S
O137 C118 1.246 . S
O137 Zn125 2.034 1_556 S
O138 Zn117 2.024 1_556 S
O138 C118 1.249 . S
C139 O135 1.251 . S
C139 O136 1.254 . S
H140 C113 0.949 1_556 S
H141 C115 0.950 . S
H142 C122 0.949 . S
H143 C124 0.950 . S
C144 C145 1.349 . S
C144 C146 1.327 . S
C144 H169 0.950 . S
C145 C144 1.349 . S
C145 C161 1.349 . S
C146 C144 1.327 . S
C146 C165 1.429 . S
C146 H170 0.950 . S
C147 C164 1.574 . S
C147 C166 1.368 . S
C147 H171 0.949 . S
H148 C152 0.949 . S
C149 C150 1.349 . S
C149 C151 1.327 . S
C149 H172 0.950 . S
C150 C149 1.349 . S
C150 C162 1.349 . S
C151 C149 1.327 . S
C151 C167 1.429 . S
C151 H173 0.950 . S
C152 H148 0.949 . S
C152 C160 1.574 . S
C152 C168 1.368 . S
H153 C161 0.950 . S
H154 C159 0.950 . S
H155 C160 0.949 . S
H156 C162 0.950 . S
H157 C163 0.950 . S
H158 C164 0.949 . S
C159 H154 0.950 . S
C159 C161 1.327 . S
C159 C165 1.429 . S
C160 C152 1.574 . S
C160 H155 0.949 . S
C160 C166 1.368 . S
C161 C145 1.349 . S
C161 H153 0.950 . S
C161 C159 1.327 . S
C162 C150 1.349 . S
C162 H156 0.950 . S
C162 C163 1.327 . S
C163 H157 0.950 . S
C163 C162 1.327 . S
C163 C167 1.429 . S
C164 C147 1.574 . S
C164 H158 0.949 . S
C164 C168 1.368 . S
C165 C146 1.429 . S
C165 C159 1.429 . S
C165 C166 1.523 . S
C166 C147 1.368 . S
C166 C160 1.368 . S
C166 C165 1.523 . S
C167 C151 1.429 . S
C167 C163 1.429 . S
C167 C168 1.523 . S
C168 C152 1.368 . S
C168 C164 1.368 . S
C168 C167 1.523 . S
H169 C144 0.950 . S
H170 C146 0.950 . S
H171 C147 0.949 . S
H172 C149 0.950 . S
H173 C151 0.950 . S
C174 C175 1.349 . S
C174 C176 1.327 . S
C174 H199 0.950 . S
C175 C174 1.349 . S
C175 C191 1.349 1_554 S
C176 C174 1.327 . S
C176 C195 1.429 . S
C176 H200 0.950 . S
C177 C194 1.574 . S
C177 C196 1.368 1_556 S
C177 H201 0.949 . S
H178 C182 0.949 . S
C179 C180 1.349 1_556 S
C179 C181 1.327 . S
C179 H202 0.950 . S
C180 C179 1.349 1_554 S
C180 C192 1.349 . S
C181 C179 1.327 . S
C181 C197 1.429 1_556 S
C181 H203 0.950 . S
C182 H178 0.949 . S
C182 C190 1.574 . S
C182 C198 1.368 . S
H183 C191 0.950 . S
H184 C189 0.950 . S
H185 C190 0.949 . S
H186 C192 0.950 . S
H187 C193 0.950 . S
H188 C194 0.949 . S
C189 H184 0.950 . S
C189 C191 1.327 . S
C189 C195 1.429 1_556 S
C190 C182 1.574 . S
C190 H185 0.949 . S
C190 C196 1.368 . S
C191 C175 1.349 1_556 S
C191 H183 0.950 . S
C191 C189 1.327 . S
C192 C180 1.349 . S
C192 H186 0.950 . S
C192 C193 1.327 . S
C193 H187 0.950 . S
C193 C192 1.327 . S
C193 C197 1.429 . S
C194 C177 1.574 . S
C194 H188 0.949 . S
C194 C198 1.368 1_556 S
C195 C176 1.429 . S
C195 C189 1.429 1_554 S
C195 C196 1.523 . S
C196 C177 1.368 1_554 S
C196 C190 1.368 . S
C196 C195 1.523 . S
C197 C181 1.429 1_554 S
C197 C193 1.429 . S
C197 C198 1.523 . S
C198 C182 1.368 . S
C198 C194 1.368 1_554 S
C198 C197 1.523 . S
H199 C174 0.950 . S
H200 C176 0.950 . S
H201 C177 0.949 . S
H202 C179 0.950 . S
H203 C181 0.950 . S
C204 C205 1.349 . S
C204 C206 1.327 . S
C204 H229 0.950 . S
C205 C204 1.349 . S
C205 C221 1.349 . S
C206 C204 1.327 . S
C206 C225 1.429 . S
C206 H230 0.950 . S
C207 C224 1.574 . S
C207 C226 1.368 . S
C207 H231 0.949 . S
H208 C212 0.949 . S
C209 C210 1.349 . S
C209 C211 1.327 . S
C209 H232 0.950 . S
C210 C209 1.349 . S
C210 C222 1.349 . S
C211 C209 1.327 . S
C211 C227 1.429 . S
C211 H233 0.950 . S
C212 H208 0.949 . S
C212 C220 1.574 . S
C212 C228 1.368 . S
H213 C221 0.950 . S
H214 C219 0.950 . S
H215 C220 0.949 . S
H216 C222 0.950 . S
H217 C223 0.950 . S
H218 C224 0.949 . S
C219 H214 0.950 . S
C219 C221 1.327 . S
C219 C225 1.429 . S
C220 C212 1.574 . S
C220 H215 0.949 . S
C220 C226 1.368 . S
C221 C205 1.349 . S
C221 H213 0.950 . S
C221 C219 1.327 . S
C222 C210 1.349 . S
C222 H216 0.950 . S
C222 C223 1.327 . S
C223 H217 0.950 . S
C223 C222 1.327 . S
C223 C227 1.429 . S
C224 C207 1.574 . S
C224 H218 0.949 . S
C224 C228 1.368 . S
C225 C206 1.429 . S
C225 C219 1.429 . S
C225 C226 1.523 . S
C226 C207 1.368 . S
C226 C220 1.368 . S
C226 C225 1.523 . S
C227 C211 1.429 . S
C227 C223 1.429 . S
C227 C228 1.523 . S
C228 C212 1.368 . S
C228 C224 1.368 . S
C228 C227 1.523 . S
H229 C204 0.950 . S
H230 C206 0.950 . S
H231 C207 0.949 . S
H232 C209 0.950 . S
H233 C211 0.950 . S
C234 C235 1.349 . S
C234 C236 1.327 . S
C234 H259 0.950 . S
C235 C234 1.349 . S
C235 C251 1.349 1_554 S
C236 C234 1.327 . S
C236 C255 1.429 . S
C236 H260 0.950 . S
C237 C254 1.574 . S
C237 C256 1.368 1_556 S
C237 H261 0.949 . S
H238 C242 0.949 . S
C239 C240 1.349 1_556 S
C239 C241 1.327 . S
C239 H262 0.950 . S
C240 C239 1.349 1_554 S
C240 C252 1.349 . S
C241 C239 1.327 . S
C241 C257 1.429 1_556 S
C241 H263 0.950 . S
C242 H238 0.949 . S
C242 C250 1.574 . S
C242 C258 1.368 . S
H243 C251 0.950 . S
H244 C249 0.950 . S
H245 C250 0.949 . S
H246 C252 0.950 . S
H247 C253 0.950 . S
H248 C254 0.949 . S
C249 H244 0.950 . S
C249 C251 1.327 . S
C249 C255 1.429 1_556 S
C250 C242 1.574 . S
C250 H245 0.949 . S
C250 C256 1.368 . S
C251 C235 1.349 1_556 S
C251 H243 0.950 . S
C251 C249 1.327 . S
C252 C240 1.349 . S
C252 H246 0.950 . S
C252 C253 1.327 . S
C253 H247 0.950 . S
C253 C252 1.327 . S
C253 C257 1.429 . S
C254 C237 1.574 . S
C254 H248 0.949 . S
C254 C258 1.368 1_556 S
C255 C236 1.429 . S
C255 C249 1.429 1_554 S
C255 C256 1.523 . S
C256 C237 1.368 1_554 S
C256 C250 1.368 . S
C256 C255 1.523 . S
C257 C241 1.429 1_554 S
C257 C253 1.429 . S
C257 C258 1.523 . S
C258 C242 1.368 . S
C258 C254 1.368 1_554 S
C258 C257 1.523 . S
H259 C234 0.950 . S
H260 C236 0.950 . S
H261 C237 0.949 . S
H262 C239 0.950 . S
H263 C241 0.950 . S
C264 C265 1.349 . S
C264 C266 1.327 . S
C264 H289 0.950 . S
C265 C264 1.349 . S
C265 C281 1.349 . S
C266 C264 1.327 . S
C266 C285 1.429 . S
C266 H290 0.950 . S
C267 C284 1.574 . S
C267 C286 1.368 . S
C267 H291 0.949 . S
H268 C272 0.949 . S
C269 C270 1.349 . S
C269 C271 1.327 . S
C269 H292 0.950 . S
C270 C269 1.349 . S
C270 C282 1.349 . S
C271 C269 1.327 . S
C271 C287 1.429 . S
C271 H293 0.950 . S
C272 H268 0.949 . S
C272 C280 1.574 . S
C272 C288 1.368 . S
H273 C281 0.950 . S
H274 C279 0.950 . S
H275 C280 0.949 . S
H276 C282 0.950 . S
H277 C283 0.950 . S
H278 C284 0.949 . S
C279 H274 0.950 . S
C279 C281 1.327 . S
C279 C285 1.429 . S
C280 C272 1.574 . S
C280 H275 0.949 . S
C280 C286 1.368 . S
C281 C265 1.349 . S
C281 H273 0.950 . S
C281 C279 1.327 . S
C282 C270 1.349 . S
C282 H276 0.950 . S
C282 C283 1.327 . S
C283 H277 0.950 . S
C283 C282 1.327 . S
C283 C287 1.429 . S
C284 C267 1.574 . S
C284 H278 0.949 . S
C284 C288 1.368 . S
C285 C266 1.429 . S
C285 C279 1.429 . S
C285 C286 1.523 . S
C286 C267 1.368 . S
C286 C280 1.368 . S
C286 C285 1.523 . S
C287 C271 1.429 . S
C287 C283 1.429 . S
C287 C288 1.523 . S
C288 C272 1.368 . S
C288 C284 1.368 . S
C288 C287 1.523 . S
H289 C264 0.950 . S
H290 C266 0.950 . S
H291 C267 0.949 . S
H292 C269 0.950 . S
H293 C271 0.950 . S
C294 C295 1.349 . S
C294 C296 1.327 . S
C294 H319 0.950 . S
C295 C294 1.349 . S
C295 C311 1.349 . S
C296 C294 1.327 . S
C296 C315 1.429 . S
C296 H320 0.950 . S
C297 C314 1.574 . S
C297 C316 1.368 . S
C297 H321 0.949 . S
H298 C302 0.949 . S
C299 C300 1.349 . S
C299 C301 1.327 . S
C299 H322 0.950 . S
C300 C299 1.349 . S
C300 C312 1.349 . S
C301 C299 1.327 . S
C301 C317 1.429 . S
C301 H323 0.950 . S
C302 H298 0.949 . S
C302 C310 1.574 . S
C302 C318 1.368 . S
H303 C311 0.950 . S
H304 C309 0.950 . S
H305 C310 0.949 . S
H306 C312 0.950 . S
H307 C313 0.950 . S
H308 C314 0.949 . S
C309 H304 0.950 . S
C309 C311 1.327 . S
C309 C315 1.429 . S
C310 C302 1.574 . S
C310 H305 0.949 . S
C310 C316 1.368 . S
C311 C295 1.349 . S
C311 H303 0.950 . S
C311 C309 1.327 . S
C312 C300 1.349 . S
C312 H306 0.950 . S
C312 C313 1.327 . S
C313 H307 0.950 . S
C313 C312 1.327 . S
C313 C317 1.429 . S
C314 C297 1.574 . S
C314 H308 0.949 . S
C314 C318 1.368 . S
C315 C296 1.429 . S
C315 C309 1.429 . S
C315 C316 1.523 . S
C316 C297 1.368 . S
C316 C310 1.368 . S
C316 C315 1.523 . S
C317 C301 1.429 . S
C317 C313 1.429 . S
C317 C318 1.523 . S
C318 C302 1.368 . S
C318 C314 1.368 . S
C318 C317 1.523 . S
H319 C294 0.950 . S
H320 C296 0.950 . S
H321 C297 0.949 . S
H322 C299 0.950 . S
H323 C301 0.950 . S
C324 C325 1.349 . S
C324 C326 1.327 . S
C324 H349 0.950 . S
C325 C324 1.349 . S
C325 C341 1.349 . S
C326 C324 1.327 . S
C326 C345 1.429 . S
C326 H350 0.950 . S
C327 C344 1.574 . S
C327 C346 1.368 . S
C327 H351 0.949 . S
H328 C332 0.949 . S
C329 C330 1.349 . S
C329 C331 1.327 . S
C329 H352 0.950 . S
C330 C329 1.349 . S
C330 C342 1.349 . S
C331 C329 1.327 . S
C331 C347 1.429 . S
C331 H353 0.950 . S
C332 H328 0.949 . S
C332 C340 1.574 . S
C332 C348 1.368 . S
H333 C341 0.950 . S
H334 C339 0.950 . S
H335 C340 0.949 . S
H336 C342 0.950 . S
H337 C343 0.950 . S
H338 C344 0.949 . S
C339 H334 0.950 . S
C339 C341 1.327 . S
C339 C345 1.429 . S
C340 C332 1.574 . S
C340 H335 0.949 . S
C340 C346 1.368 . S
C341 C325 1.349 . S
C341 H333 0.950 . S
C341 C339 1.327 . S
C342 C330 1.349 . S
C342 H336 0.950 . S
C342 C343 1.327 . S
C343 H337 0.950 . S
C343 C342 1.327 . S
C343 C347 1.429 . S
C344 C327 1.574 . S
C344 H338 0.949 . S
C344 C348 1.368 . S
C345 C326 1.429 . S
C345 C339 1.429 . S
C345 C346 1.523 . S
C346 C327 1.368 . S
C346 C340 1.368 . S
C346 C345 1.523 . S
C347 C331 1.429 . S
C347 C343 1.429 . S
C347 C348 1.523 . S
C348 C332 1.368 . S
C348 C344 1.368 . S
C348 C347 1.523 . S
H349 C324 0.950 . S
H350 C326 0.950 . S
H351 C327 0.949 . S
H352 C329 0.950 . S
H353 C331 0.950 . S
C354 C355 1.349 . S
C354 C356 1.327 . S
C354 H379 0.950 . S
C355 C354 1.349 . S
C355 C371 1.349 . S
C356 C354 1.327 . S
C356 C375 1.429 . S
C356 H380 0.950 . S
C357 C374 1.574 . S
C357 C376 1.368 . S
C357 H381 0.949 . S
H358 C362 0.949 . S
C359 C360 1.349 . S
C359 C361 1.327 . S
C359 H382 0.950 . S
C360 C359 1.349 . S
C360 C372 1.349 . S
C361 C359 1.327 . S
C361 C377 1.429 . S
C361 H383 0.950 . S
C362 H358 0.949 . S
C362 C370 1.574 . S
C362 C378 1.368 . S
H363 C371 0.950 . S
H364 C369 0.950 . S
H365 C370 0.949 . S
H366 C372 0.950 . S
H367 C373 0.950 . S
H368 C374 0.949 . S
C369 H364 0.950 . S
C369 C371 1.327 . S
C369 C375 1.429 . S
C370 C362 1.574 . S
C370 H365 0.949 . S
C370 C376 1.368 . S
C371 C355 1.349 . S
C371 H363 0.950 . S
C371 C369 1.327 . S
C372 C360 1.349 . S
C372 H366 0.950 . S
C372 C373 1.327 . S
C373 H367 0.950 . S
C373 C372 1.327 . S
C373 C377 1.429 . S
C374 C357 1.574 . S
C374 H368 0.949 . S
C374 C378 1.368 . S
C375 C356 1.429 . S
C375 C369 1.429 . S
C375 C376 1.523 . S
C376 C357 1.368 . S
C376 C370 1.368 . S
C376 C375 1.523 . S
C377 C361 1.429 . S
C377 C373 1.429 . S
C377 C378 1.523 . S
C378 C362 1.368 . S
C378 C374 1.368 . S
C378 C377 1.523 . S
H379 C354 0.950 . S
H380 C356 0.950 . S
H381 C357 0.949 . S
H382 C359 0.950 . S
H383 C361 0.950 . S
C384 C385 1.349 . S
C384 C386 1.327 . S
C384 H409 0.950 . S
C385 C384 1.349 . S
C385 C401 1.349 . S
C386 C384 1.327 . S
C386 C405 1.429 . S
C386 H410 0.950 . S
C387 C404 1.574 . S
C387 C406 1.368 . S
C387 H411 0.949 . S
H388 C392 0.949 . S
C389 C390 1.349 . S
C389 C391 1.327 . S
C389 H412 0.950 . S
C390 C389 1.349 . S
C390 C402 1.349 . S
C391 C389 1.327 . S
C391 C407 1.429 . S
C391 H413 0.950 . S
C392 H388 0.949 . S
C392 C400 1.574 . S
C392 C408 1.368 . S
H393 C401 0.950 . S
H394 C399 0.950 . S
H395 C400 0.949 . S
H396 C402 0.950 . S
H397 C403 0.950 . S
H398 C404 0.949 . S
C399 H394 0.950 . S
C399 C401 1.327 . S
C399 C405 1.429 . S
C400 C392 1.574 . S
C400 H395 0.949 . S
C400 C406 1.368 . S
C401 C385 1.349 . S
C401 H393 0.950 . S
C401 C399 1.327 . S
C402 C390 1.349 . S
C402 H396 0.950 . S
C402 C403 1.327 . S
C403 H397 0.950 . S
C403 C402 1.327 . S
C403 C407 1.429 . S
C404 C387 1.574 . S
C404 H398 0.949 . S
C404 C408 1.368 . S
C405 C386 1.429 . S
C405 C399 1.429 . S
C405 C406 1.523 . S
C406 C387 1.368 . S
C406 C400 1.368 . S
C406 C405 1.523 . S
C407 C391 1.429 . S
C407 C403 1.429 . S
C407 C408 1.523 . S
C408 C392 1.368 . S
C408 C404 1.368 . S
C408 C407 1.523 . S
H409 C384 0.950 . S
H410 C386 0.950 . S
H411 C387 0.949 . S
H412 C389 0.950 . S
H413 C391 0.950 . S
C414 C415 1.349 . S
C414 C416 1.327 . S
C414 H439 0.950 . S
C415 C414 1.349 . S
C415 C431 1.349 . S
C416 C414 1.327 . S
C416 C435 1.429 . S
C416 H440 0.950 . S
C417 C434 1.574 . S
C417 C436 1.368 . S
C417 H441 0.949 . S
H418 C422 0.949 . S
C419 C420 1.349 . S
C419 C421 1.327 . S
C419 H442 0.950 . S
C420 C419 1.349 . S
C420 C432 1.349 . S
C421 C419 1.327 . S
C421 C437 1.429 . S
C421 H443 0.950 . S
C422 H418 0.949 . S
C422 C430 1.574 . S
C422 C438 1.368 . S
H423 C431 0.950 . S
H424 C429 0.950 . S
H425 C430 0.949 . S
H426 C432 0.950 . S
H427 C433 0.950 . S
H428 C434 0.949 . S
C429 H424 0.950 . S
C429 C431 1.327 . S
C429 C435 1.429 . S
C430 C422 1.574 . S
C430 H425 0.949 . S
C430 C436 1.368 . S
C431 C415 1.349 . S
C431 H423 0.950 . S
C431 C429 1.327 . S
C432 C420 1.349 . S
C432 H426 0.950 . S
C432 C433 1.327 . S
C433 H427 0.950 . S
C433 C432 1.327 . S
C433 C437 1.429 . S
C434 C417 1.574 . S
C434 H428 0.949 . S
C434 C438 1.368 . S
C435 C416 1.429 . S
C435 C429 1.429 . S
C435 C436 1.523 . S
C436 C417 1.368 . S
C436 C430 1.368 . S
C436 C435 1.523 . S
C437 C421 1.429 . S
C437 C433 1.429 . S
C437 C438 1.523 . S
C438 C422 1.368 . S
C438 C434 1.368 . S
C438 C437 1.523 . S
H439 C414 0.950 . S
H440 C416 0.950 . S
H441 C417 0.949 . S
H442 C419 0.950 . S
H443 C421 0.950 . S
C444 C445 1.349 . S
C444 C446 1.327 . S
C444 H469 0.950 . S
C445 C444 1.349 . S
C445 C461 1.349 . S
C446 C444 1.327 . S
C446 C465 1.429 . S
C446 H470 0.950 . S
C447 C464 1.574 . S
C447 C466 1.368 . S
C447 H471 0.949 . S
H448 C452 0.949 . S
C449 C450 1.349 . S
C449 C451 1.327 . S
C449 H472 0.950 . S
C450 C449 1.349 . S
C450 C462 1.349 . S
C451 C449 1.327 . S
C451 C467 1.429 . S
C451 H473 0.950 . S
C452 H448 0.949 . S
C452 C460 1.574 . S
C452 C468 1.368 . S
H453 C461 0.950 . S
H454 C459 0.950 . S
H455 C460 0.949 . S
H456 C462 0.950 . S
H457 C463 0.950 . S
H458 C464 0.949 . S
C459 H454 0.950 . S
C459 C461 1.327 . S
C459 C465 1.429 . S
C460 C452 1.574 . S
C460 H455 0.949 . S
C460 C466 1.368 . S
C461 C445 1.349 . S
C461 H453 0.950 . S
C461 C459 1.327 . S
C462 C450 1.349 . S
C462 H456 0.950 . S
C462 C463 1.327 . S
C463 H457 0.950 . S
C463 C462 1.327 . S
C463 C467 1.429 . S
C464 C447 1.574 . S
C464 H458 0.949 . S
C464 C468 1.368 . S
C465 C446 1.429 . S
C465 C459 1.429 . S
C465 C466 1.523 . S
C466 C447 1.368 . S
C466 C460 1.368 . S
C466 C465 1.523 . S
C467 C451 1.429 . S
C467 C463 1.429 . S
C467 C468 1.523 . S
C468 C452 1.368 . S
C468 C464 1.368 . S
C468 C467 1.523 . S
H469 C444 0.950 . S
H470 C446 0.950 . S
H471 C447 0.949 . S
H472 C449 0.950 . S
H473 C451 0.950 . S
C474 C475 1.349 . S
C474 C476 1.327 . S
C474 H499 0.950 . S
C475 C474 1.349 . S
C475 C491 1.349 . S
C476 C474 1.327 . S
C476 C495 1.429 . S
C476 H500 0.950 . S
C477 C494 1.574 . S
C477 C496 1.368 . S
C477 H501 0.949 . S
H478 C482 0.949 . S
C479 C480 1.349 . S
C479 C481 1.327 . S
C479 H502 0.950 . S
C480 C479 1.349 . S
C480 C492 1.349 . S
C481 C479 1.327 . S
C481 C497 1.429 . S
C481 H503 0.950 . S
C482 H478 0.949 . S
C482 C490 1.574 . S
C482 C498 1.368 . S
H483 C491 0.950 . S
H484 C489 0.950 . S
H485 C490 0.949 . S
H486 C492 0.950 . S
H487 C493 0.950 . S
H488 C494 0.949 . S
C489 H484 0.950 . S
C489 C491 1.327 . S
C489 C495 1.429 . S
C490 C482 1.574 . S
C490 H485 0.949 . S
C490 C496 1.368 . S
C491 C475 1.349 . S
C491 H483 0.950 . S
C491 C489 1.327 . S
C492 C480 1.349 . S
C492 H486 0.950 . S
C492 C493 1.327 . S
C493 H487 0.950 . S
C493 C492 1.327 . S
C493 C497 1.429 . S
C494 C477 1.574 . S
C494 H488 0.949 . S
C494 C498 1.368 . S
C495 C476 1.429 . S
C495 C489 1.429 . S
C495 C496 1.523 . S
C496 C477 1.368 . S
C496 C490 1.368 . S
C496 C495 1.523 . S
C497 C481 1.429 . S
C497 C493 1.429 . S
C497 C498 1.523 . S
C498 C482 1.368 . S
C498 C494 1.368 . S
C498 C497 1.523 . S
H499 C474 0.950 . S
H500 C476 0.950 . S
H501 C477 0.949 . S
H502 C479 0.950 . S
H503 C481 0.950 . S
C150 C80 1.554 . S
C145 C68 1.436 . S
C175 C11 1.435 . S
C180 C123 1.558 . S
C205 C30 1.436 . S
C210 C89 1.557 . S
C235 C49 1.438 . S
C240 C114 1.555 . S
C270 C76 1.635 . S
C265 C2 1.597 . S
C300 C118 1.613 . S
C295 C25 1.614 . S
C325 C40 1.597 . S
C330 C84 1.626 . S
C355 C59 1.575 . S
C360 C110 1.609 . S
C390 C139 1.506 . S
C385 C21 1.476 . S
C420 C105 1.496 . S
C415 C44 1.494 . S
C450 C127 1.512 . S
C445 C63 1.515 . S
C475 C6 1.493 . S
C480 C93 1.491 . S
