# Generated by pormake.
# Topology ftw, (4,12)-cn, num edge types: 1
# Building blocks:
#     Node 0, Type 0, BuildingBlock: NAWXER_clean_linker_0, # of connection points: 4
#     Node 1, Type 0, BuildingBlock: NAWXER_clean_linker_0, # of connection points: 4
#     Node 2, Type 0, BuildingBlock: NAWXER_clean_linker_0, # of connection points: 4
#     Node 3, Type 1, BuildingBlock: QEWDON_clean_sbu_0, # of connection points: 12
#     Edge 4, Type (0, 1), BuildingBlock: FUNLAD_clean_linker_1, # of connection points: 2
#     Edge 5, Type (0, 1), BuildingBlock: FUNLAD_clean_linker_1, # of connection points: 2
#     Edge 6, Type (0, 1), BuildingBlock: FUNLAD_clean_linker_1, # of connection points: 2
#     Edge 7, Type (0, 1), BuildingBlock: FUNLAD_clean_linker_1, # of connection points: 2
#     Edge 8, Type (0, 1), BuildingBlock: FUNLAD_clean_linker_1, # of connection points: 2
#     Edge 9, Type (0, 1), BuildingBlock: FUNLAD_clean_linker_1, # of connection points: 2
#     Edge 10, Type (0, 1), BuildingBlock: FUNLAD_clean_linker_1, # of connection points: 2
#     Edge 11, Type (0, 1), BuildingBlock: FUNLAD_clean_linker_1, # of connection points: 2
#     Edge 12, Type (0, 1), BuildingBlock: FUNLAD_clean_linker_1, # of connection points: 2
#     Edge 13, Type (0, 1), BuildingBlock: FUNLAD_clean_linker_1, # of connection points: 2
#     Edge 14, Type (0, 1), BuildingBlock: FUNLAD_clean_linker_1, # of connection points: 2
#     Edge 15, Type (0, 1), BuildingBlock: FUNLAD_clean_linker_1, # of connection points: 2
# Relax obj value: 0.055
# Max RMSD: 0.159
# Mean RMSD: 0.117
data_MOF--net-ftw--node1-QEWDON_clean_sbu_0--node2-NAWXER_clean_linker_0--edge1-FUNLAD_clean_linker_1
_symmetry_space_group_name_H-M    P1
_symmetry_Int_Tables_number       1
_symmetry_cell_setting            triclinic
loop_
_symmetry_equiv_pos_as_xyz
'x, y, z'
_cell_length_a     27.902626
_cell_length_b     30.194446
_cell_length_c     29.81798
_cell_angle_alpha  89.838578
_cell_angle_beta   90.026601
_cell_angle_gamma 89.595834
loop_
_atom_site_label
_atom_site_type_symbol
_atom_site_fract_x
_atom_site_fract_y
_atom_site_fract_z
_atom_type_partial_charge
C0 C 0.02999 0.64391 0.56016 0.0
C1 C -0.00576 0.65425 0.59187 0.0
C2 C 0.02325 0.60947 0.52931 0.0
C3 C 0.98086 0.58457 0.52981 0.0
C4 C 0.95103 0.63072 0.59073 0.0
C5 C 0.94471 0.59583 0.56057 0.0
C6 C 0.9769 0.54306 0.5035 0.0
C7 C 0.96175 0.64875 0.39611 0.0
C8 C -0.00517 0.6466 0.36041 0.0
C9 C 0.96037 0.61511 0.42873 0.0
C10 C -0.00781 0.57876 0.42672 0.0
C11 C 0.02719 0.61071 0.3592 0.0
C12 C 0.02567 0.57715 0.39162 0.0
C13 C 0.98703 0.53979 0.45717 0.0
C14 C 0.94359 0.35126 0.40871 0.0
C15 C 0.98157 0.3436 0.37857 0.0
C16 C 0.94364 0.38805 0.43734 0.0
C17 C 0.98179 0.41816 0.4365 0.0
C18 C 0.02011 0.37348 0.37832 0.0
C19 C 0.02003 0.4103 0.40681 0.0
C20 C 0.97981 0.46058 0.46181 0.0
C21 C 0.97655 0.3577 0.57615 0.0
C22 C 0.93698 0.36239 0.60534 0.0
C23 C 0.98535 0.38945 0.54257 0.0
C24 C 0.95481 0.42638 0.53746 0.0
C25 C 0.90592 0.39868 0.59895 0.0
C26 C 0.9148 0.43025 0.56571 0.0
C27 C 0.96692 0.46425 0.50761 0.0
H28 H 0.06332 0.66202 0.55941 0.0
H29 H 0.05202 0.60105 0.50643 0.0
H30 H 0.92278 0.63816 0.61453 0.0
H31 H 0.91189 0.57689 0.56193 0.0
H32 H 0.93649 0.67588 0.39897 0.0
H33 H 0.93314 0.61683 0.45453 0.0
H34 H 0.05327 0.60804 0.33241 0.0
H35 H 0.05035 0.54943 0.38882 0.0
H36 H 0.91312 0.32922 0.40938 0.0
H37 H 0.91289 0.39385 0.45871 0.0
H38 H 0.04953 0.3698 0.35503 0.0
H39 H 0.04954 0.43336 0.40488 0.0
H40 H 0.00182 0.33066 0.5799 0.0
H41 H 0.01715 0.38615 0.52201 0.0
H42 H 0.87519 0.40343 0.62066 0.0
H43 H 0.89084 0.45853 0.56281 0.0
N44 N 0.96655 0.5053 0.52641 0.0
N45 N 0.98882 0.49861 0.43858 0.0
C46 C 0.55334 0.03819 0.64978 0.0
C47 C 0.59465 0.01223 0.65651 0.0
C48 C 0.52692 0.03467 0.61008 0.0
C49 C 0.5405 0.00399 0.57696 0.0
C50 C 0.60858 0.98199 0.62306 0.0
C51 C 0.58188 0.97811 0.58368 0.0
C52 C 0.51384 1.0002 0.53413 0.0
C53 C 0.40677 0.96545 0.64167 0.0
C54 C 0.36601 0.99298 0.64271 0.0
C55 C 0.43865 0.96722 0.60552 0.0
C56 C 0.43092 0.99741 0.57025 0.0
C57 C 0.35823 0.02297 0.60716 0.0
C58 C 0.39018 0.02487 0.57122 0.0
C59 C 0.46333 0.99916 0.53099 0.0
C60 C 0.41441 0.95431 0.34356 0.0
C61 C 0.38114 0.98822 0.33365 0.0
C62 C 0.44494 0.95804 0.38072 0.0
C63 C 0.44212 0.9954 0.40856 0.0
C64 C 0.37989 0.02616 0.36068 0.0
C65 C 0.4095 0.0294 0.39819 0.0
C66 C 0.46902 0.99754 0.45106 0.0
C67 C 0.57789 0.02751 0.34262 0.0
C68 C 0.62175 0.00478 0.34623 0.0
C69 C 0.54388 0.02489 0.37701 0.0
C70 C 0.55243 0.99803 0.41487 0.0
C71 C 0.63023 0.97775 0.38384 0.0
C72 C 0.59593 0.9744 0.4177 0.0
C73 C 0.51955 0.99768 0.45404 0.0
H74 H 0.54179 0.06163 0.67509 0.0
H75 H 0.49615 0.05621 0.6052 0.0
H76 H 0.63943 0.9605 0.62757 0.0
H77 H 0.59331 0.9544 0.55857 0.0
H78 H 0.41375 0.94224 0.66872 0.0
H79 H 0.46909 0.94478 0.60501 0.0
H80 H 0.3282 0.04582 0.60731 0.0
H81 H 0.38339 0.04832 0.54435 0.0
H82 H 0.41679 0.925 0.32282 0.0
H83 H 0.46963 0.93126 0.38853 0.0
H84 H 0.35475 0.05281 0.35363 0.0
H85 H 0.40659 0.05832 0.41948 0.0
H86 H 0.57063 0.04852 0.31385 0.0
H87 H 0.51189 0.04517 0.3745 0.0
H88 H 0.66323 0.9589 0.38702 0.0
H89 H 0.6037 0.9536 0.44651 0.0
N90 N 0.53973 0.99898 0.49555 0.0
N91 N 0.44306 0.99838 0.48958 0.0
C92 C 0.34998 0.41677 0.09756 0.0
C93 C 0.32011 0.4133 0.13546 0.0
C94 C 0.39338 0.43926 0.10019 0.0
C95 C 0.40765 0.45879 0.14061 0.0
C96 C 0.33352 0.43468 0.17523 0.0
C97 C 0.37691 0.45735 0.17776 0.0
C98 C 0.45371 0.48212 0.14389 0.0
C99 C 0.50084 0.33728 0.12245 0.0
C100 C 0.52705 0.33204 0.08235 0.0
C101 C 0.4888 0.37975 0.13792 0.0
C102 C 0.50275 0.41733 0.11351 0.0
C103 C 0.53802 0.36975 0.05685 0.0
C104 C 0.52652 0.41192 0.07249 0.0
C105 C 0.49771 0.46246 0.1319 0.0
C106 C 0.64138 0.60029 0.1916 0.0
C107 C 0.67743 0.58874 0.16077 0.0
C108 C 0.59605 0.58096 0.18872 0.0
C109 C 0.58571 0.55098 0.15406 0.0
C110 C 0.66793 0.55702 0.12789 0.0
C111 C 0.62249 0.53866 0.12428 0.0
C112 C 0.5383 0.52952 0.14976 0.0
C113 C 0.49795 0.67432 0.13701 0.0
C114 C 0.46031 0.68927 0.16431 0.0
C115 C 0.51063 0.6294 0.13643 0.0
C116 C 0.48707 0.59891 0.16448 0.0
C117 C 0.43795 0.65928 0.19355 0.0
C118 C 0.45127 0.61459 0.19366 0.0
C119 C 0.49366 0.5504 0.15864 0.0
H120 H 0.33998 0.40255 0.06568 0.0
H121 H 0.41568 0.44159 0.07056 0.0
H122 H 0.31087 0.43305 0.20469 0.0
H123 H 0.38695 0.473 0.20901 0.0
H124 H 0.49068 0.30897 0.14252 0.0
H125 H 0.47051 0.38329 0.16976 0.0
H126 H 0.5579 0.36682 0.02577 0.0
H127 H 0.53748 0.44052 0.0531 0.0
H128 H 0.64825 0.62418 0.21781 0.0
H129 H 0.56928 0.58949 0.21356 0.0
H130 H 0.6952 0.54775 0.10373 0.0
H131 H 0.61598 0.51514 0.09762 0.0
H132 H 0.51536 0.69684 0.11393 0.0
H133 H 0.53703 0.61833 0.11228 0.0
H134 H 0.40911 0.67015 0.21528 0.0
H135 H 0.43221 0.59188 0.21535 0.0
N136 N 0.4533 0.52537 0.1564 0.0
N137 N 0.53812 0.4867 0.13598 0.0
Zn138 Zn 0.08587 0.08581 0.97139 0.0
Zn139 Zn 0.05628 0.07634 0.07518 0.0
O140 O 0.05436 0.04494 0.01626 0.0
H141 H 0.03382 0.02036 1.00894 0.0
C142 C 0.91617 0.13435 0.87186 0.0
O143 O 0.93612 0.09548 0.87912 0.0
Zn144 Zn 0.93769 0.91672 0.06571 0.0
Zn145 Zn 0.85989 0.93674 1.00274 0.0
O146 O 0.93192 0.94748 1.00661 0.0
H147 H 0.94905 0.97381 0.9978 0.0
Zn148 Zn 0.8728 0.11612 0.96138 0.0
O149 O 0.925 0.09662 1.00561 0.0
Zn150 Zn 0.89163 0.07929 0.06297 0.0
H151 H 0.9586 0.09238 0.99891 0.0
Zn152 Zn 0.12769 0.87546 0.96015 0.0
O153 O 0.0752 0.90344 0.99887 0.0
H154 H 0.04347 0.91214 0.98908 0.0
Zn155 Zn 0.10471 0.91629 0.0591 0.0
C156 C 0.09468 0.84552 0.86896 0.0
O157 O 0.08553 0.88782 0.86254 0.0
O158 O 0.10955 0.14461 0.9981 0.0
O159 O 0.08811 0.13605 0.06956 0.0
O160 O 0.8383 0.8761 0.02814 0.0
O161 O 0.90485 0.85835 0.06508 0.0
O162 O 0.80609 0.1223 0.99129 0.0
O163 O 0.82004 0.09257 0.0588 0.0
C164 C 0.10669 0.99883 0.11074 0.0
O165 O 0.19129 0.86643 0.99513 0.0
O166 O 0.17581 0.90067 0.05985 0.0
O167 O 0.82187 0.96316 0.94909 0.0
C168 C 0.10696 0.15882 0.03817 0.0
O169 O 0.12376 0.05896 0.91822 0.0
C170 C 0.89208 0.99261 0.10933 0.0
O171 O 0.88831 0.15068 0.90143 0.0
C172 C 0.86319 0.84868 0.05101 0.0
O173 O 0.11165 0.83264 0.90647 0.0
C174 C 0.96439 0.11212 0.11902 0.0
O175 O 0.09463 0.0388 0.11896 0.0
O176 O 0.09138 0.98026 0.07538 0.0
C177 C 0.79173 0.11018 0.03006 0.0
O178 O 0.90384 0.95202 0.11271 0.0
O179 O 0.90512 0.0147 0.07515 0.0
C180 C 0.02761 0.88135 0.10797 0.0
O181 O 0.91918 0.11419 0.11444 0.0
O182 O 0.98748 0.08738 0.09201 0.0
C183 C 0.20436 0.87984 0.03374 0.0
O184 O 0.07299 0.8789 0.10655 0.0
O185 O 0.00686 0.90658 0.07971 0.0
C186 C 0.84331 0.97473 0.91338 0.0
O187 O 0.89009 0.97069 0.91087 0.0
C188 C 0.10336 0.03864 0.88628 0.0
O189 O 0.05664 0.03383 0.88673 0.0
H190 H 0.94227 0.29273 0.3401 0.0
C191 C 0.97773 0.30639 0.34575 0.0
H192 H 0.05093 0.30124 0.32742 0.0
H193 H 0.94583 0.11706 0.24943 0.0
H194 H 0.93212 0.09817 0.32752 0.0
H195 H 0.95458 0.14977 0.38787 0.0
H196 H 0.99032 0.22077 0.37052 0.0
C197 C 0.01489 0.289 0.32249 0.0
C198 C 0.00751 0.25471 0.28687 0.0
C199 C 0.98789 0.21274 0.2976 0.0
C200 C 0.97589 0.18253 0.26279 0.0
C201 C 0.95544 0.14129 0.27451 0.0
C202 C 0.94762 0.12992 0.3192 0.0
C203 C 0.9602 0.159 0.35317 0.0
C204 C 0.9803 0.19985 0.34272 0.0
H205 H 0.02762 0.13923 0.15516 0.0
C206 C 0.98875 0.13991 0.15303 0.0
H207 H 0.92414 0.1651 0.17994 0.0
H208 H 0.05103 0.32941 0.2547 0.0
H209 H 0.06795 0.34664 0.17689 0.0
H210 H 0.04549 0.29502 0.11671 0.0
H211 H 0.00756 0.22512 0.13387 0.0
C212 C 0.96306 0.16575 0.1812 0.0
C213 C 0.98442 0.1937 0.21725 0.0
C214 C 0.00713 0.23431 0.2067 0.0
C215 C 0.01912 0.2646 0.24154 0.0
C216 C 0.04117 0.30514 0.2298 0.0
C217 C 0.05098 0.31556 0.18522 0.0
C218 C 0.03846 0.28643 0.15131 0.0
C219 C 0.01668 0.24634 0.16168 0.0
H220 H 0.64521 0.01075 0.27562 0.0
C221 C 0.65785 0.00874 0.31007 0.0
H222 H 0.71797 0.00963 0.353 0.0
H223 H 0.86442 0.92907 0.21461 0.0
H224 H 0.86674 0.87552 0.27524 0.0
H225 H 0.8111 0.88178 0.33921 0.0
H226 H 0.75345 0.94192 0.34325 0.0
C227 C 0.70519 0.01043 0.31859 0.0
C228 C 0.74131 0.00906 0.28179 0.0
C229 C 0.77443 0.97329 0.27984 0.0
C230 C 0.80538 0.96885 0.24227 0.0
C231 C 0.83894 0.93331 0.24164 0.0
C232 C 0.84091 0.90244 0.27637 0.0
C233 C 0.80968 0.90603 0.31242 0.0
C234 C 0.77675 0.94088 0.31431 0.0
H235 H 0.86987 0.04562 0.15673 0.0
C236 C 0.86227 0.01245 0.14486 0.0
H237 H 0.82094 0.95491 0.15044 0.0
H238 H 0.6923 0.08785 0.28143 0.0
H239 H 0.69039 0.14207 0.22114 0.0
H240 H 0.73749 0.13038 0.1524 0.0
H241 H 0.78703 0.0649 0.1432 0.0
C242 C 0.82748 0.98793 0.16356 0.0
C243 C 0.80215 0.9993 0.20597 0.0
C244 C 0.7711 0.03661 0.20918 0.0
C245 C 0.74182 0.04218 0.24791 0.0
C246 C 0.71343 0.08102 0.2518 0.0
C247 C 0.71226 0.11252 0.21764 0.0
C248 C 0.73888 0.10597 0.1789 0.0
C249 C 0.76765 0.06835 0.1743 0.0
H250 H 0.02754 0.67804 0.30074 0.0
C251 C -0.00275 0.68038 0.32361 0.0
H252 H 0.93362 0.71709 0.33729 0.0
H253 H 0.01859 0.88599 0.23565 0.0
H254 H 0.01658 0.91206 0.31268 0.0
H255 H -0.0059 0.86186 0.37449 0.0
H256 H 0.97309 0.78533 0.35975 0.0
C257 C 0.96454 0.71266 0.31575 0.0
C258 C 0.97122 0.74478 0.27792 0.0
C259 C 0.98293 0.78947 0.28706 0.0
C260 C -0.00371 0.81839 0.25141 0.0
C261 C 0.00858 0.86263 0.26156 0.0
C262 C 0.00749 0.87801 0.30556 0.0
C263 C -0.00526 0.84974 0.34036 0.0
C264 C 0.98276 0.80591 0.33145 0.0
H265 H 0.96131 0.85643 0.14086 0.0
C266 C 0.00021 0.85472 0.14104 0.0
H267 H 0.06187 0.82831 0.17268 0.0
H268 H 0.93815 0.66532 0.2478 0.0
H269 H 0.93368 0.6413 0.17017 0.0
H270 H 0.95995 0.69033 0.10871 0.0
H271 H 0.99012 0.76397 0.12436 0.0
C272 C 0.02295 0.82915 0.17162 0.0
C273 C -0.00222 0.8027 0.20668 0.0
C274 C 0.98173 0.7593 0.19713 0.0
C275 C 0.96782 0.73053 0.23272 0.0
C276 C 0.95044 0.68792 0.2221 0.0
C277 C 0.94749 0.67385 0.17773 0.0
C278 C 0.96225 0.70148 0.14311 0.0
C279 C 0.97953 0.74363 0.15253 0.0
H280 H 0.33347 0.01654 0.2819 0.0
C281 C 0.34673 0.98544 0.2959 0.0
H282 H 0.33595 0.91606 0.29758 0.0
H283 H 0.12045 0.95662 0.23492 0.0
H284 H 0.10823 0.92391 0.30863 0.0
H285 H 0.17713 0.90278 0.35616 0.0
H286 H 0.25875 0.91392 0.33027 0.0
C287 C 0.32666 0.9475 0.28196 0.0
C288 C 0.28583 0.94958 0.24982 0.0
C289 C 0.23852 0.9423 0.26533 0.0
C290 C 0.19876 0.95475 0.23807 0.0
C291 C 0.15183 0.94791 0.25449 0.0
C292 C 0.14435 0.92914 0.29663 0.0
C293 C 0.18317 0.91724 0.32341 0.0
C294 C 0.22981 0.92389 0.30821 0.0
H295 H 0.14712 0.93993 0.13474 0.0
C296 C 0.1404 0.97491 0.14052 0.0
H297 H 0.16136 0.03175 0.17646 0.0
H298 H 0.37119 0.95552 0.20586 0.0
H299 H 0.38343 0.98298 0.1299 0.0
H300 H 0.31487 0.00818 0.08389 0.0
H301 H 0.23364 0.00522 0.11305 0.0
C302 C 0.16635 0.9964 0.17136 0.0
C303 C 0.2066 0.97465 0.1957 0.0
C304 C 0.25377 0.97777 0.17847 0.0
C305 C 0.2934 0.9644 0.20532 0.0
C306 C 0.34009 0.96646 0.18703 0.0
C307 C 0.34751 0.98191 0.14354 0.0
C308 C 0.30889 0.99607 0.11762 0.0
C309 C 0.26249 0.99434 0.13479 0.0
H310 H 0.96909 0.70539 0.6398 0.0
C311 C 0.0009 0.68866 0.62705 0.0
H312 H 0.07556 0.6797 0.63546 0.0
H313 H 0.12105 0.8581 0.73447 0.0
H314 H 0.16188 0.86869 0.66361 0.0
H315 H 0.15085 0.8161 0.60138 0.0
H316 H 0.09914 0.75243 0.60973 0.0
C317 C 0.0434 0.69665 0.64691 0.0
C318 C 0.0485 0.72906 0.6846 0.0
C319 C 0.07838 0.76654 0.67913 0.0
C320 C 0.08418 0.79731 0.71488 0.0
C321 C 0.11488 0.83396 0.70843 0.0
C322 C 0.13862 0.84043 0.6679 0.0
C323 C 0.13245 0.8108 0.63288 0.0
C324 C 0.10272 0.7743 0.63819 0.0
H325 H 0.09719 0.77864 0.83889 0.0
C326 C 0.08636 0.81279 0.83285 0.0
H327 H 0.05637 0.85808 0.78652 0.0
H328 H -0.00549 0.65749 0.70973 0.0
H329 H 0.95075 0.64878 0.77922 0.0
H330 H 0.95408 0.706 0.83797 0.0
H331 H 0.00228 0.77167 0.82803 0.0
C332 C 0.06612 0.8238 0.79327 0.0
C333 C 0.05985 0.79093 0.75618 0.0
C334 C 0.02929 0.75384 0.76145 0.0
C335 C 0.02486 0.72219 0.72627 0.0
C336 C -0.00289 0.68382 0.73407 0.0
C337 C 0.97209 0.67816 0.77406 0.0
C338 C 0.97415 0.71026 0.80722 0.0
C339 C 0.00233 0.74769 0.80119 0.0
H340 H 0.34877 0.98016 0.71408 0.0
C341 C 0.33379 0.99147 0.68233 0.0
H342 H 0.27096 0.0149 0.64975 0.0
H343 H 0.17512 0.94254 0.83838 0.0
H344 H 0.18629 0.86947 0.80614 0.0
H345 H 0.23042 0.85974 0.73512 0.0
H346 H 0.26393 0.92308 0.69599 0.0
C347 C 0.28755 0.00421 0.6809 0.0
C348 C 0.25925 0.00956 0.7227 0.0
C349 C 0.23926 0.97233 0.74465 0.0
C350 C 0.2129 0.97807 0.78509 0.0
C351 C 0.19448 0.9402 0.80705 0.0
C352 C 0.20086 0.89804 0.78903 0.0
C353 C 0.22578 0.89256 0.74907 0.0
C354 C 0.24487 0.92914 0.72699 0.0
H355 H 0.11194 0.0114 0.81804 0.0
C356 C 0.13122 0.02389 0.847 0.0
H357 H 0.19846 0.04171 0.87364 0.0
H358 H 0.29232 0.08786 0.68835 0.0
H359 H 0.27959 0.1611 0.71947 0.0
H360 H 0.2328 0.17131 0.78889 0.0
H361 H 0.1986 0.10839 0.82766 0.0
C362 C 0.17908 0.02802 0.84531 0.0
C363 C 0.20605 0.02116 0.80293 0.0
C364 C 0.22569 0.0584 0.78065 0.0
C365 C 0.25224 0.05259 0.74045 0.0
C366 C 0.27159 0.09037 0.71891 0.0
C367 C 0.26459 0.13263 0.73641 0.0
C368 C 0.23829 0.13838 0.7755 0.0
C369 C 0.21896 0.10188 0.79749 0.0
H370 H 0.89956 0.34259 0.66767 0.0
C371 C 0.92781 0.33258 0.64458 0.0
H372 H 0.97957 0.28222 0.63208 0.0
H373 H 0.94858 0.26347 0.85203 0.0
H374 H 0.99064 0.33333 0.85597 0.0
H375 H 0.01171 0.37422 0.78713 0.0
H376 H 0.99067 0.34566 0.7139 0.0
C377 C 0.95237 0.2952 0.65449 0.0
C378 C 0.94164 0.26943 0.69628 0.0
C379 C 0.95457 0.28633 0.73896 0.0
C380 C 0.94286 0.26243 0.77874 0.0
C381 C 0.9563 0.28025 0.82078 0.0
C382 C 0.98062 0.32027 0.82354 0.0
C383 C -0.00755 0.34331 0.78478 0.0
C384 C 0.97987 0.32664 0.74293 0.0
H385 H 0.95253 0.14324 0.8067 0.0
C386 C 0.92679 0.15823 0.82953 0.0
H387 H 0.88115 0.213 0.8412 0.0
H388 H 0.91294 0.22703 0.62018 0.0
H389 H 0.87071 0.15716 0.61606 0.0
H390 H 0.8494 0.11623 0.68486 0.0
H391 H 0.87054 0.1446 0.75805 0.0
C392 C 0.90596 0.19703 0.81818 0.0
C393 C 0.91889 0.22122 0.77598 0.0
C394 C 0.90638 0.2041 0.73323 0.0
C395 C 0.9181 0.22805 0.69344 0.0
C396 C 0.90491 0.21025 0.65137 0.0
C397 C 0.88059 0.17022 0.64852 0.0
C398 C 0.86865 0.14715 0.68725 0.0
C399 C 0.88118 0.16376 0.72914 0.0
H400 H 0.601 0.02482 0.72942 0.0
C401 C 0.62102 0.01541 0.6996 0.0
H402 H 0.68984 0.99951 0.67399 0.0
H403 H 0.78925 0.07355 0.85213 0.0
H404 H 0.79672 0.13906 0.80544 0.0
H405 H 0.75738 0.14318 0.73137 0.0
H406 H 0.70909 0.08214 0.70414 0.0
C407 C 0.66811 0.00644 0.70337 0.0
C408 C 0.69184 0.00422 0.74792 0.0
C409 C 0.72076 0.03966 0.76278 0.0
C410 C 0.74457 0.03679 0.8049 0.0
C411 C 0.77162 0.07342 0.81981 0.0
C412 C 0.776 0.11132 0.79342 0.0
C413 C 0.75369 0.1137 0.7518 0.0
C414 C 0.7262 0.07844 0.73653 0.0
H415 H 0.83532 0.9925 0.842 0.0
C416 C 0.81592 0.98833 0.87332 0.0
H417 H 0.74814 0.98748 0.90472 0.0
H418 H 0.63978 0.92992 0.72878 0.0
H419 H 0.632 0.86462 0.77551 0.0
H420 H 0.67366 0.85934 0.84831 0.0
H421 H 0.72335 0.91929 0.87477 0.0
C422 C 0.76799 0.99277 0.87383 0.0
C423 C 0.74039 0.99792 0.83141 0.0
C424 C 0.71079 0.96277 0.81683 0.0
C425 C 0.68664 0.96585 0.77495 0.0
C426 C 0.65842 0.9297 0.76059 0.0
C427 C 0.65377 0.89187 0.78701 0.0
C428 C 0.67723 0.8889 0.82798 0.0
C429 C 0.70558 0.9237 0.84282 0.0
H430 H 0.24809 0.39415 0.16008 0.0
C431 C 0.27524 0.38723 0.13483 0.0
H432 H 0.29584 0.34364 0.08256 0.0
H433 H 0.15949 0.19536 0.16441 0.0
H434 H 0.21983 0.18907 0.22255 0.0
H435 H 0.28361 0.24482 0.22948 0.0
H436 H 0.28723 0.3073 0.17829 0.0
C437 C 0.26875 0.35305 0.10686 0.0
C438 C 0.22549 0.32504 0.10898 0.0
C439 C 0.22352 0.28923 0.13971 0.0
C440 C 0.18691 0.25703 0.13555 0.0
C441 C 0.18642 0.22086 0.16592 0.0
C442 C 0.22088 0.21683 0.19953 0.0
C443 C 0.25678 0.24822 0.20344 0.0
C444 C 0.25841 0.28395 0.17384 0.0
H445 H 0.15228 0.21626 0.02347 0.0
C446 C 0.12903 0.20159 0.04865 0.0
H447 H 0.10077 0.20686 0.11405 0.0
H448 H 0.21497 0.39392 0.05006 0.0
H449 H 0.1508 0.40351 0.99556 0.0
H450 H 0.08603 0.34855 0.98964 0.0
H451 H 0.08534 0.28344 0.03785 0.0
C452 C 0.1234 0.2216 0.08851 0.0
C453 C 0.15309 0.26057 0.1002 0.0
C454 C 0.1519 0.29911 0.07294 0.0
C455 C 0.18859 0.33116 0.07698 0.0
C456 C 0.18775 0.3686 0.04832 0.0
C457 C 0.1511 0.37456 0.01706 0.0
C458 C 0.11466 0.34359 0.01369 0.0
C459 C 0.11486 0.30624 0.04124 0.0
H460 H 0.46667 0.762 0.15434 0.0
C461 C 0.44155 0.73496 0.15854 0.0
H462 H 0.36969 0.71458 0.15565 0.0
H463 H 0.24095 0.87568 0.1735 0.0
H464 H 0.23151 0.84303 0.24699 0.0
H465 H 0.28773 0.78561 0.27425 0.0
H466 H 0.3531 0.75951 0.22715 0.0
C467 C 0.39439 0.74208 0.15229 0.0
C468 C 0.37255 0.78605 0.14156 0.0
C469 C 0.33608 0.80268 0.17017 0.0
C470 C 0.3046 0.83681 0.15494 0.0
C471 C 0.2665 0.85044 0.18325 0.0
C472 C 0.26068 0.83203 0.22577 0.0
C473 C 0.29224 0.7996 0.24106 0.0
C474 C 0.32943 0.78481 0.21367 0.0
H475 H 0.26959 0.83903 0.03225 0.0
C476 C 0.25163 0.86541 0.05059 0.0
H477 H 0.25158 0.90544 0.10802 0.0
H478 H 0.44105 0.76504 0.07793 0.0
H479 H 0.45794 0.80589 1.01005 0.0
H480 H 0.41028 0.87208 0.98957 0.0
H481 H 0.34375 0.89645 0.03652 0.0
C482 C 0.27014 0.8796 0.08968 0.0
C483 C 0.3107 0.85504 0.11145 0.0
C484 C 0.35225 0.84393 0.08645 0.0
C485 C 0.38195 0.80788 0.10022 0.0
C486 C 0.41908 0.79378 0.07106 0.0
C487 C 0.42898 0.81681 0.03159 0.0
C488 C 0.40203 0.85395 0.01993 0.0
C489 C 0.36391 0.8674 0.04687 0.0
H490 H 0.56277 0.28784 0.03386 0.0
C491 C 0.54786 0.28904 0.06758 0.0
H492 H 0.54654 0.25602 0.13024 0.0
H493 H 0.64914 0.12116 0.9769 0.0
H494 H 0.56915 0.11319 0.94571 0.0
H495 H 0.50062 0.15467 0.9774 0.0
H496 H 0.51166 0.20445 0.04055 0.0
C497 C 0.55807 0.25523 0.09553 0.0
C498 C 0.59604 0.22275 0.08263 0.0
C499 C 0.58892 0.19329 0.04635 0.0
C500 C 0.62837 0.16916 0.02831 0.0
C501 C 0.62037 0.14036 0.99174 0.0
C502 C 0.57467 0.13542 0.97363 0.0
C503 C 0.53608 0.15881 0.99145 0.0
C504 C 0.5429 0.18742 0.02745 0.0
H505 H 0.73028 0.10794 0.07642 0.0
C506 C 0.74269 0.12143 0.04474 0.0
H507 H 0.72883 0.16771 0.99292 0.0
H508 H 0.62078 0.2718 0.15636 0.0
H509 H 0.70023 0.27965 0.1877 0.0
H510 H 0.76954 0.24126 0.15384 0.0
H511 H 0.75965 0.19442 0.08907 0.0
C512 C 0.71691 0.15344 0.02446 0.0
C513 C 0.6748 0.17444 0.04668 0.0
C514 C 0.68158 0.20258 0.08425 0.0
C515 C 0.64188 0.22584 0.10292 0.0
C516 C 0.64958 0.25353 0.14053 0.0
C517 C 0.6951 0.25845 0.15889 0.0
C518 C 0.73408 0.2368 0.13989 0.0
C519 C 0.72772 0.20959 0.10278 0.0
H520 H 0.755 0.59339 0.14705 0.0
C521 C 0.72392 0.61168 0.15923 0.0
H522 H 0.69491 0.67527 0.17163 0.0
H523 H 0.88003 0.78902 0.17647 0.0
H524 H 0.8647 0.78399 0.25631 0.0
H525 H 0.80591 0.73078 0.28609 0.0
H526 H 0.76141 0.68281 0.23587 0.0
C527 C 0.72601 0.65596 0.16136 0.0
C528 C 0.76815 0.68065 0.14446 0.0
C529 C 0.79484 0.70728 0.17434 0.0
C530 C 0.82955 0.73712 0.15728 0.0
C531 C 0.85385 0.76518 0.1876 0.0
C532 C 0.84535 0.76267 0.23357 0.0
C533 C 0.81223 0.73273 0.25033 0.0
C534 C 0.78693 0.70546 0.22119 0.0
H535 H 0.80488 0.80032 0.05423 0.0
C536 C 0.84168 0.80646 0.06438 0.0
H537 H 0.90058 0.78399 0.10305 0.0
H538 H 0.72315 0.63473 0.07626 0.0
H539 H 0.74643 0.63314 0.99833 0.0
H540 H 0.81424 0.67779 0.97108 0.0
H541 H 0.85798 0.7256 0.02202 0.0
C542 C 0.86444 0.77747 0.09147 0.0
C543 C 0.83804 0.7393 0.11049 0.0
C544 C 0.81582 0.70871 0.08141 0.0
C545 C 0.77917 0.68072 0.09788 0.0
C546 C 0.75346 0.65462 0.06669 0.0
C547 C 0.76614 0.65371 0.0215 0.0
C548 C 0.80413 0.67899 1.00611 0.0
C549 C 0.82869 0.7064 0.03555 0.0
loop_
_geom_bond_atom_site_label_1
_geom_bond_atom_site_label_2
_geom_bond_distance
_geom_bond_site_symmetry_2
_ccdc_geom_bond_type
C0 C1 1.384 1_455 S
C0 C2 1.384 . S
C0 H28 0.931 . S
C1 C0 1.384 1_655 S
C1 C4 1.382 . S
C2 C0 1.384 . S
C2 C3 1.381 1_455 S
C2 H29 0.930 . S
C3 C2 1.381 1_655 S
C3 C5 1.381 . S
C3 C6 1.487 . S
C4 C1 1.382 . S
C4 C5 1.387 . S
C4 H30 0.930 . S
C5 C3 1.381 . S
C5 C4 1.387 . S
C5 H31 0.931 . S
C6 C3 1.487 . S
C6 C13 1.399 1_655 S
C6 N44 1.343 . S
C7 C8 1.384 1_655 S
C7 C9 1.384 . S
C7 H32 0.931 . S
C8 C7 1.384 1_455 S
C8 C11 1.382 . S
C9 C7 1.384 . S
C9 C10 1.381 1_655 S
C9 H33 0.930 . S
C10 C9 1.381 1_455 S
C10 C12 1.381 . S
C10 C13 1.487 . S
C11 C8 1.382 . S
C11 C12 1.387 . S
C11 H34 0.930 . S
C12 C10 1.381 . S
C12 C11 1.387 . S
C12 H35 0.931 . S
C13 C6 1.399 1_455 S
C13 C10 1.487 . S
C13 N45 1.343 . S
C14 C15 1.384 1_655 S
C14 C16 1.384 . S
C14 H36 0.931 . S
C15 C14 1.384 1_455 S
C15 C18 1.382 . S
C16 C14 1.384 . S
C16 C17 1.381 1_655 S
C16 H37 0.930 . S
C17 C16 1.381 1_455 S
C17 C19 1.381 . S
C17 C20 1.487 . S
C18 C15 1.382 . S
C18 C19 1.387 . S
C18 H38 0.930 . S
C19 C17 1.381 . S
C19 C18 1.387 . S
C19 H39 0.931 . S
C20 C17 1.487 . S
C20 C27 1.399 1_455 S
C20 N45 1.343 . S
C21 C22 1.384 1_455 S
C21 C23 1.384 . S
C21 H40 0.931 . S
C22 C21 1.384 1_655 S
C22 C25 1.382 . S
C23 C21 1.384 . S
C23 C24 1.381 1_455 S
C23 H41 0.930 . S
C24 C23 1.381 1_655 S
C24 C26 1.381 . S
C24 C27 1.487 . S
C25 C22 1.382 . S
C25 C26 1.387 . S
C25 H42 0.930 . S
C26 C24 1.381 . S
C26 C25 1.387 . S
C26 H43 0.931 . S
C27 C20 1.399 1_655 S
C27 C24 1.487 . S
C27 N44 1.343 . S
H28 C0 0.931 . S
H29 C2 0.930 . S
H30 C4 0.930 . S
H31 C5 0.931 . S
H32 C7 0.931 . S
H33 C9 0.930 . S
H34 C11 0.930 . S
H35 C12 0.931 . S
H36 C14 0.931 . S
H37 C16 0.930 . S
H38 C18 0.930 . S
H39 C19 0.931 . S
H40 C21 0.931 . S
H41 C23 0.930 . S
H42 C25 0.930 . S
H43 C26 0.931 . S
N44 C6 1.343 . S
N44 C27 1.343 . S
N45 C13 1.343 . S
N45 C20 1.343 . S
C46 C47 1.384 1_545 S
C46 C48 1.384 . S
C46 H74 0.931 . S
C47 C46 1.384 1_565 S
C47 C50 1.382 . S
C48 C46 1.384 . S
C48 C49 1.381 1_545 S
C48 H75 0.930 . S
C49 C48 1.381 1_565 S
C49 C51 1.381 . S
C49 C52 1.487 . S
C50 C47 1.382 . S
C50 C51 1.387 . S
C50 H76 0.930 . S
C51 C49 1.381 . S
C51 C50 1.387 . S
C51 H77 0.931 . S
C52 C49 1.487 . S
C52 C59 1.399 1_565 S
C52 N90 1.343 . S
C53 C54 1.384 1_565 S
C53 C55 1.384 . S
C53 H78 0.931 . S
C54 C53 1.384 1_545 S
C54 C57 1.382 . S
C55 C53 1.384 . S
C55 C56 1.381 1_565 S
C55 H79 0.930 . S
C56 C55 1.381 1_545 S
C56 C58 1.381 . S
C56 C59 1.487 . S
C57 C54 1.382 . S
C57 C58 1.387 . S
C57 H80 0.930 . S
C58 C56 1.381 . S
C58 C57 1.387 . S
C58 H81 0.931 . S
C59 C52 1.399 1_545 S
C59 C56 1.487 . S
C59 N91 1.343 . S
C60 C61 1.384 1_565 S
C60 C62 1.384 . S
C60 H82 0.931 . S
C61 C60 1.384 1_545 S
C61 C64 1.382 . S
C62 C60 1.384 . S
C62 C63 1.381 1_565 S
C62 H83 0.930 . S
C63 C62 1.381 1_545 S
C63 C65 1.381 . S
C63 C66 1.487 . S
C64 C61 1.382 . S
C64 C65 1.387 . S
C64 H84 0.930 . S
C65 C63 1.381 . S
C65 C64 1.387 . S
C65 H85 0.931 . S
C66 C63 1.487 . S
C66 C73 1.399 1_545 S
C66 N91 1.343 . S
C67 C68 1.384 1_545 S
C67 C69 1.384 . S
C67 H86 0.931 . S
C68 C67 1.384 1_565 S
C68 C71 1.382 . S
C69 C67 1.384 . S
C69 C70 1.381 1_545 S
C69 H87 0.930 . S
C70 C69 1.381 1_565 S
C70 C72 1.381 . S
C70 C73 1.487 . S
C71 C68 1.382 . S
C71 C72 1.387 . S
C71 H88 0.930 . S
C72 C70 1.381 . S
C72 C71 1.387 . S
C72 H89 0.931 . S
C73 C66 1.399 1_565 S
C73 C70 1.487 . S
C73 N90 1.343 . S
H74 C46 0.931 . S
H75 C48 0.930 . S
H76 C50 0.930 . S
H77 C51 0.931 . S
H78 C53 0.931 . S
H79 C55 0.930 . S
H80 C57 0.930 . S
H81 C58 0.931 . S
H82 C60 0.931 . S
H83 C62 0.930 . S
H84 C64 0.930 . S
H85 C65 0.931 . S
H86 C67 0.931 . S
H87 C69 0.930 . S
H88 C71 0.930 . S
H89 C72 0.931 . S
N90 C52 1.343 . S
N90 C73 1.343 . S
N91 C59 1.343 . S
N91 C66 1.343 . S
C92 C93 1.384 1_556 S
C92 C94 1.384 . S
C92 H120 0.931 . S
C93 C92 1.384 1_554 S
C93 C96 1.382 . S
C94 C92 1.384 . S
C94 C95 1.381 1_556 S
C94 H121 0.930 . S
C95 C94 1.381 1_554 S
C95 C97 1.381 . S
C95 C98 1.487 . S
C96 C93 1.382 . S
C96 C97 1.387 . S
C96 H122 0.930 . S
C97 C95 1.381 . S
C97 C96 1.387 . S
C97 H123 0.931 . S
C98 C95 1.487 . S
C98 C105 1.399 . S
C98 N136 1.343 . S
C99 C100 1.384 . S
C99 C101 1.384 . S
C99 H124 0.931 . S
C100 C99 1.384 . S
C100 C103 1.382 1_554 S
C101 C99 1.384 . S
C101 C102 1.381 . S
C101 H125 0.930 . S
C102 C101 1.381 . S
C102 C104 1.381 1_554 S
C102 C105 1.487 . S
C103 C100 1.382 1_556 S
C103 C104 1.387 . S
C103 H126 0.930 . S
C104 C102 1.381 1_556 S
C104 C103 1.387 . S
C104 H127 0.931 . S
C105 C98 1.399 . S
C105 C102 1.487 . S
C105 N137 1.343 . S
C106 C107 1.384 . S
C106 C108 1.384 . S
C106 H128 0.931 . S
C107 C106 1.384 . S
C107 C110 1.382 1_554 S
C108 C106 1.384 . S
C108 C109 1.381 . S
C108 H129 0.930 . S
C109 C108 1.381 . S
C109 C111 1.381 1_554 S
C109 C112 1.487 . S
C110 C107 1.382 1_556 S
C110 C111 1.387 . S
C110 H130 0.930 . S
C111 C109 1.381 1_556 S
C111 C110 1.387 . S
C111 H131 0.931 . S
C112 C109 1.487 . S
C112 C119 1.399 . S
C112 N137 1.343 . S
C113 C114 1.384 1_556 S
C113 C115 1.384 . S
C113 H132 0.931 . S
C114 C113 1.384 1_554 S
C114 C117 1.382 . S
C115 C113 1.384 . S
C115 C116 1.381 1_556 S
C115 H133 0.930 . S
C116 C115 1.381 1_554 S
C116 C118 1.381 . S
C116 C119 1.487 . S
C117 C114 1.382 . S
C117 C118 1.387 . S
C117 H134 0.930 . S
C118 C116 1.381 . S
C118 C117 1.387 . S
C118 H135 0.931 . S
C119 C112 1.399 . S
C119 C116 1.487 . S
C119 N136 1.343 . S
H120 C92 0.931 . S
H121 C94 0.930 . S
H122 C96 0.930 . S
H123 C97 0.931 . S
H124 C99 0.931 . S
H125 C101 0.930 . S
H126 C103 0.930 . S
H127 C104 0.931 . S
H128 C106 0.931 . S
H129 C108 0.930 . S
H130 C110 0.930 . S
H131 C111 0.931 . S
H132 C113 0.931 . S
H133 C115 0.930 . S
H134 C117 0.930 . S
H135 C118 0.931 . S
N136 C98 1.343 . S
N136 C119 1.343 . S
N137 C105 1.343 . S
N137 C112 1.343 . S
Zn138 O140 1.933 1_556 S
Zn138 O158 1.985 . S
Zn138 O169 1.955 . S
Zn139 O140 1.911 . S
Zn139 O159 1.970 . S
Zn139 O175 1.945 . S
Zn139 O182 1.981 . S
O140 Zn138 1.933 1_554 S
O140 Zn139 1.911 . S
O140 H141 0.841 . S
H141 O140 0.841 . S
C142 O143 1.246 . S
C142 O171 1.276 1_455 S
O143 C142 1.246 . S
Zn144 O146 1.911 . S
Zn144 O161 1.970 . S
Zn144 O178 1.945 . S
Zn144 O185 1.981 . S
Zn145 O146 1.933 1_556 S
Zn145 O160 1.985 . S
Zn145 O167 1.955 . S
O146 Zn144 1.911 . S
O146 Zn145 1.933 1_554 S
O146 H147 0.841 . S
H147 O146 0.841 . S
Zn148 O149 1.933 1_556 S
Zn148 O162 1.985 . S
Zn148 O171 1.955 . S
O149 Zn148 1.933 1_554 S
O149 Zn150 1.911 . S
O149 H151 0.841 . S
Zn150 O149 1.911 . S
Zn150 O163 1.970 . S
Zn150 O179 1.981 . S
Zn150 O181 1.945 . S
H151 O149 0.841 . S
Zn152 O153 1.933 1_556 S
Zn152 O165 1.985 . S
Zn152 O173 1.955 . S
O153 Zn152 1.933 1_554 S
O153 H154 0.841 . S
O153 Zn155 1.911 . S
H154 O153 0.841 . S
Zn155 O153 1.911 . S
Zn155 O166 1.970 . S
Zn155 O176 1.981 . S
Zn155 O184 1.945 . S
C156 O157 1.246 . S
C156 O173 1.276 1_655 S
O157 C156 1.246 . S
O158 Zn138 1.985 . S
O158 C168 1.245 1_556 S
O159 Zn139 1.970 . S
O159 C168 1.263 . S
O160 Zn145 1.985 . S
O160 C172 1.245 1_556 S
O161 Zn144 1.970 . S
O161 C172 1.263 . S
O162 Zn148 1.985 . S
O162 C177 1.245 1_556 S
O163 Zn150 1.970 . S
O163 C177 1.263 . S
C164 O175 1.262 . S
C164 O176 1.245 1_545 S
O165 Zn152 1.985 . S
O165 C183 1.245 1_556 S
O166 Zn155 1.970 . S
O166 C183 1.263 . S
O167 Zn145 1.955 . S
O167 C186 1.276 1_565 S
C168 O158 1.245 1_554 S
C168 O159 1.263 . S
O169 Zn138 1.955 . S
O169 C188 1.276 1_545 S
C170 O178 1.262 1_545 S
C170 O179 1.245 . S
O171 C142 1.276 1_655 S
O171 Zn148 1.955 . S
C172 O160 1.245 1_554 S
C172 O161 1.263 . S
O173 Zn152 1.955 . S
O173 C156 1.276 1_455 S
C174 O181 1.262 1_455 S
C174 O182 1.245 . S
O175 Zn139 1.945 . S
O175 C164 1.262 . S
O176 Zn155 1.981 . S
O176 C164 1.245 1_565 S
C177 O162 1.245 1_554 S
C177 O163 1.263 . S
O178 Zn144 1.945 . S
O178 C170 1.262 1_565 S
O179 Zn150 1.981 . S
O179 C170 1.245 . S
C180 O184 1.262 . S
C180 O185 1.245 1_455 S
O181 Zn150 1.945 . S
O181 C174 1.262 1_655 S
O182 Zn139 1.981 . S
O182 C174 1.245 . S
C183 O165 1.245 1_554 S
C183 O166 1.263 . S
O184 Zn155 1.945 . S
O184 C180 1.262 . S
O185 Zn144 1.981 . S
O185 C180 1.245 1_655 S
C186 O167 1.276 1_545 S
C186 O187 1.246 . S
O187 C186 1.246 . S
C188 O169 1.276 1_565 S
C188 O189 1.246 . S
O189 C188 1.246 . S
H190 C191 0.951 . S
C191 H190 0.951 . S
C191 C197 1.265 1_655 S
H192 C197 0.950 . S
H193 C201 0.949 . S
H194 C202 0.950 . S
H195 C203 0.951 . S
H196 C204 0.951 . S
C197 C191 1.265 1_455 S
C197 H192 0.950 . S
C197 C198 1.478 . S
C198 C197 1.478 . S
C198 C199 1.397 . S
C198 C215 1.388 1_455 S
C199 C198 1.397 . S
C199 C200 1.438 . S
C199 C204 1.429 . S
C200 C199 1.438 . S
C200 C201 1.428 . S
C200 C213 1.394 1_455 S
C201 H193 0.949 . S
C201 C200 1.428 . S
C201 C202 1.345 . S
C202 H194 0.950 . S
C202 C201 1.345 . S
C202 C203 1.424 . S
C203 H195 0.951 . S
C203 C202 1.424 . S
C203 C204 1.347 . S
C204 H196 0.951 . S
C204 C199 1.429 . S
C204 C203 1.347 . S
H205 C206 0.951 . S
C206 H205 0.951 . S
C206 C212 1.265 1_455 S
H207 C212 0.950 . S
H208 C216 0.949 . S
H209 C217 0.950 . S
H210 C218 0.951 . S
H211 C219 0.951 . S
C212 C206 1.265 1_655 S
C212 H207 0.950 . S
C212 C213 1.478 . S
C213 C200 1.394 1_655 S
C213 C212 1.478 . S
C213 C214 1.397 . S
C214 C213 1.397 . S
C214 C215 1.441 . S
C214 C219 1.429 . S
C215 C198 1.388 1_655 S
C215 C214 1.441 . S
C215 C216 1.430 . S
C216 H208 0.949 . S
C216 C215 1.430 . S
C216 C217 1.345 . S
C217 H209 0.950 . S
C217 C216 1.345 . S
C217 C218 1.424 . S
C218 H210 0.951 . S
C218 C217 1.424 . S
C218 C219 1.347 . S
C219 H211 0.951 . S
C219 C214 1.429 . S
C219 C218 1.347 . S
H220 C221 0.957 . S
C221 H220 0.957 . S
C221 C227 1.261 1_565 S
H222 C227 0.950 . S
H223 C231 0.949 . S
H224 C232 0.950 . S
H225 C233 0.951 . S
H226 C234 0.951 . S
C227 C221 1.261 1_545 S
C227 H222 0.950 . S
C227 C228 1.478 . S
C228 C227 1.478 . S
C228 C229 1.397 1_545 S
C228 C245 1.394 . S
C229 C228 1.397 1_565 S
C229 C230 1.438 . S
C229 C234 1.429 . S
C230 C229 1.438 . S
C230 C231 1.428 . S
C230 C243 1.394 1_565 S
C231 H223 0.949 . S
C231 C230 1.428 . S
C231 C232 1.345 . S
C232 H224 0.950 . S
C232 C231 1.345 . S
C232 C233 1.424 . S
C233 H225 0.951 . S
C233 C232 1.424 . S
C233 C234 1.347 . S
C234 H226 0.951 . S
C234 C229 1.429 . S
C234 C233 1.347 . S
H235 C236 0.951 . S
C236 H235 0.951 . S
C236 C242 1.265 . S
H237 C242 0.950 1_565 S
H238 C246 0.949 . S
H239 C247 0.950 . S
H240 C248 0.951 . S
H241 C249 0.951 . S
C242 C236 1.265 . S
C242 H237 0.950 1_545 S
C242 C243 1.478 . S
C243 C230 1.394 1_545 S
C243 C242 1.478 . S
C243 C244 1.397 . S
C244 C243 1.397 . S
C244 C245 1.438 . S
C244 C249 1.429 . S
C245 C228 1.394 . S
C245 C244 1.438 . S
C245 C246 1.428 . S
C246 H238 0.949 . S
C246 C245 1.428 . S
C246 C247 1.345 . S
C247 H239 0.950 . S
C247 C246 1.345 . S
C247 C248 1.424 . S
C248 H240 0.951 . S
C248 C247 1.424 . S
C248 C249 1.347 . S
C249 H241 0.951 . S
C249 C244 1.429 . S
C249 C248 1.347 . S
H250 C251 0.951 . S
C251 H250 0.951 . S
C251 C257 1.265 1_455 S
H252 C257 0.950 . S
H253 C261 0.949 . S
H254 C262 0.950 . S
H255 C263 0.951 . S
H256 C264 0.951 . S
C257 C251 1.265 1_655 S
C257 H252 0.950 . S
C257 C258 1.478 . S
C258 C257 1.478 . S
C258 C259 1.397 . S
C258 C275 1.394 . S
C259 C258 1.397 . S
C259 C260 1.438 1_655 S
C259 C264 1.429 . S
C260 C259 1.438 1_455 S
C260 C261 1.428 . S
C260 C273 1.394 . S
C261 H253 0.949 . S
C261 C260 1.428 . S
C261 C262 1.345 . S
C262 H254 0.950 . S
C262 C261 1.345 . S
C262 C263 1.424 . S
C263 H255 0.951 . S
C263 C262 1.424 . S
C263 C264 1.347 1_455 S
C264 H256 0.951 . S
C264 C259 1.429 . S
C264 C263 1.347 1_655 S
H265 C266 0.951 . S
C266 H265 0.951 . S
C266 C272 1.265 1_655 S
H267 C272 0.950 . S
H268 C276 0.949 . S
H269 C277 0.950 . S
H270 C278 0.951 . S
H271 C279 0.951 . S
C272 C266 1.265 1_455 S
C272 H267 0.950 . S
C272 C273 1.478 . S
C273 C260 1.394 . S
C273 C272 1.478 . S
C273 C274 1.397 1_455 S
C274 C273 1.397 1_655 S
C274 C275 1.438 . S
C274 C279 1.429 . S
C275 C258 1.394 . S
C275 C274 1.438 . S
C275 C276 1.428 . S
C276 H268 0.949 . S
C276 C275 1.428 . S
C276 C277 1.345 . S
C277 H269 0.950 . S
C277 C276 1.345 . S
C277 C278 1.424 . S
C278 H270 0.951 . S
C278 C277 1.424 . S
C278 C279 1.347 . S
C279 H271 0.951 . S
C279 C274 1.429 . S
C279 C278 1.347 . S
H280 C281 0.960 . S
C281 H280 0.960 . S
C281 C287 1.258 1_545 S
H282 C287 0.950 . S
H283 C291 0.949 . S
H284 C292 0.950 . S
H285 C293 0.951 . S
H286 C294 0.951 . S
C287 C281 1.258 1_565 S
C287 H282 0.950 . S
C287 C288 1.478 . S
C288 C287 1.478 . S
C288 C289 1.397 . S
C288 C305 1.394 1_565 S
C289 C288 1.397 . S
C289 C290 1.438 . S
C289 C294 1.429 . S
C290 C289 1.438 . S
C290 C291 1.428 . S
C290 C303 1.394 . S
C291 H283 0.949 . S
C291 C290 1.428 . S
C291 C292 1.345 . S
C292 H284 0.950 . S
C292 C291 1.345 . S
C292 C293 1.424 . S
C293 H285 0.951 . S
C293 C292 1.424 . S
C293 C294 1.347 . S
C294 H286 0.951 . S
C294 C289 1.429 . S
C294 C293 1.347 . S
H295 C296 0.951 . S
C296 H295 0.951 . S
C296 C302 1.266 . S
H297 C302 0.948 1_545 S
H298 C306 0.949 . S
H299 C307 0.950 . S
H300 C308 0.951 . S
H301 C309 0.951 . S
C302 C296 1.266 . S
C302 H297 0.948 1_565 S
C302 C303 1.478 . S
C303 C290 1.394 . S
C303 C302 1.478 . S
C303 C304 1.397 1_565 S
C304 C303 1.397 1_545 S
C304 C305 1.438 . S
C304 C309 1.429 . S
C305 C288 1.394 1_545 S
C305 C304 1.438 . S
C305 C306 1.428 . S
C306 H298 0.949 . S
C306 C305 1.428 . S
C306 C307 1.345 . S
C307 H299 0.950 . S
C307 C306 1.345 . S
C307 C308 1.424 . S
C308 H300 0.951 . S
C308 C307 1.424 . S
C308 C309 1.347 . S
C309 H301 0.951 . S
C309 C304 1.429 . S
C309 C308 1.347 . S
H310 C311 0.951 . S
C311 H310 0.951 . S
C311 C317 1.265 1_655 S
H312 C317 0.950 . S
H313 C321 0.949 . S
H314 C322 0.950 . S
H315 C323 0.951 . S
H316 C324 0.951 . S
C317 C311 1.265 1_455 S
C317 H312 0.950 . S
C317 C318 1.478 . S
C318 C317 1.478 . S
C318 C319 1.397 . S
C318 C335 1.394 1_455 S
C319 C318 1.397 . S
C319 C320 1.438 . S
C319 C324 1.429 . S
C320 C319 1.438 . S
C320 C321 1.428 . S
C320 C333 1.394 1_455 S
C321 H313 0.949 . S
C321 C320 1.428 . S
C321 C322 1.345 . S
C322 H314 0.950 . S
C322 C321 1.345 . S
C322 C323 1.424 . S
C323 H315 0.951 . S
C323 C322 1.424 . S
C323 C324 1.347 . S
C324 H316 0.951 . S
C324 C319 1.429 . S
C324 C323 1.347 . S
H325 C326 0.951 1_455 S
C326 H325 0.951 1_655 S
C326 C332 1.265 . S
H327 C332 0.950 . S
H328 C336 0.949 . S
H329 C337 0.950 . S
H330 C338 0.951 . S
H331 C339 0.951 . S
C332 C326 1.265 . S
C332 H327 0.950 . S
C332 C333 1.478 . S
C333 C320 1.394 1_655 S
C333 C332 1.478 . S
C333 C334 1.397 . S
C334 C333 1.397 . S
C334 C335 1.438 . S
C334 C339 1.429 . S
C335 C318 1.394 1_655 S
C335 C334 1.438 . S
C335 C336 1.428 . S
C336 H328 0.949 . S
C336 C335 1.428 . S
C336 C337 1.345 . S
C337 H329 0.950 . S
C337 C336 1.345 . S
C337 C338 1.424 . S
C338 H330 0.951 . S
C338 C337 1.424 . S
C338 C339 1.347 . S
C339 H331 0.951 . S
C339 C334 1.429 . S
C339 C338 1.347 . S
H340 C341 0.951 . S
C341 H340 0.951 . S
C341 C347 1.265 1_545 S
H342 C347 0.950 . S
H343 C351 0.949 . S
H344 C352 0.950 . S
H345 C353 0.951 . S
H346 C354 0.951 . S
C347 C341 1.265 1_565 S
C347 H342 0.950 . S
C347 C348 1.478 . S
C348 C347 1.478 . S
C348 C349 1.397 . S
C348 C365 1.394 1_565 S
C349 C348 1.397 . S
C349 C350 1.438 . S
C349 C354 1.429 . S
C350 C349 1.438 . S
C350 C351 1.428 . S
C350 C363 1.394 . S
C351 H343 0.949 . S
C351 C350 1.428 . S
C351 C352 1.345 . S
C352 H344 0.950 . S
C352 C351 1.345 . S
C352 C353 1.424 . S
C353 H345 0.951 . S
C353 C352 1.424 . S
C353 C354 1.347 . S
C354 H346 0.951 . S
C354 C349 1.429 . S
C354 C353 1.347 . S
H355 C356 0.951 . S
C356 H355 0.951 . S
C356 C362 1.273 . S
H357 C362 0.940 1_545 S
H358 C366 0.949 . S
H359 C367 0.950 . S
H360 C368 0.951 . S
H361 C369 0.951 . S
C362 C356 1.273 . S
C362 H357 0.940 1_565 S
C362 C363 1.480 . S
C363 C350 1.394 . S
C363 C362 1.480 . S
C363 C364 1.397 1_565 S
C364 C363 1.397 1_545 S
C364 C365 1.438 . S
C364 C369 1.429 . S
C365 C348 1.394 1_545 S
C365 C364 1.438 . S
C365 C366 1.428 . S
C366 H358 0.949 . S
C366 C365 1.428 . S
C366 C367 1.345 . S
C367 H359 0.950 . S
C367 C366 1.345 . S
C367 C368 1.424 . S
C368 H360 0.951 . S
C368 C367 1.424 . S
C368 C369 1.347 . S
C369 H361 0.951 . S
C369 C364 1.429 . S
C369 C368 1.347 . S
H370 C371 0.951 . S
C371 H370 0.951 . S
C371 C377 1.265 1_655 S
H372 C377 0.950 . S
H373 C381 0.949 . S
H374 C382 0.950 . S
H375 C383 0.951 . S
H376 C384 0.951 . S
C377 C371 1.265 1_455 S
C377 H372 0.950 . S
C377 C378 1.478 . S
C378 C377 1.478 . S
C378 C379 1.397 . S
C378 C395 1.394 . S
C379 C378 1.397 . S
C379 C380 1.439 . S
C379 C384 1.429 . S
C380 C379 1.439 . S
C380 C381 1.426 1_455 S
C380 C393 1.394 . S
C381 H373 0.949 . S
C381 C380 1.426 1_655 S
C381 C382 1.345 . S
C382 H374 0.950 . S
C382 C381 1.345 . S
C382 C383 1.424 . S
C383 H375 0.951 . S
C383 C382 1.424 . S
C383 C384 1.347 1_655 S
C384 H376 0.951 . S
C384 C379 1.429 . S
C384 C383 1.347 1_455 S
H385 C386 0.951 . S
C386 H385 0.951 . S
C386 C392 1.265 1_455 S
H387 C392 0.950 . S
H388 C396 0.949 . S
H389 C397 0.950 . S
H390 C398 0.951 . S
H391 C399 0.951 . S
C392 C386 1.265 1_655 S
C392 H387 0.950 . S
C392 C393 1.478 1_655 S
C393 C380 1.394 . S
C393 C392 1.478 1_455 S
C393 C394 1.397 . S
C394 C393 1.397 . S
C394 C395 1.438 . S
C394 C399 1.429 . S
C395 C378 1.394 . S
C395 C394 1.438 . S
C395 C396 1.428 . S
C396 H388 0.949 . S
C396 C395 1.428 . S
C396 C397 1.345 . S
C397 H389 0.950 . S
C397 C396 1.345 . S
C397 C398 1.424 . S
C398 H390 0.951 . S
C398 C397 1.424 . S
C398 C399 1.347 . S
C399 H391 0.951 . S
C399 C394 1.429 . S
C399 C398 1.347 . S
H400 C401 0.949 1_565 S
C401 H400 0.949 1_545 S
C401 C407 1.266 . S
H402 C407 0.950 . S
H403 C411 0.949 . S
H404 C412 0.950 . S
H405 C413 0.951 . S
H406 C414 0.951 . S
C407 C401 1.266 . S
C407 H402 0.950 . S
C407 C408 1.478 . S
C408 C407 1.478 . S
C408 C409 1.397 . S
C408 C425 1.394 1_545 S
C409 C408 1.397 . S
C409 C410 1.438 . S
C409 C414 1.429 . S
C410 C409 1.438 . S
C410 C411 1.428 . S
C410 C423 1.394 . S
C411 H403 0.949 . S
C411 C410 1.428 . S
C411 C412 1.345 . S
C412 H404 0.950 . S
C412 C411 1.345 . S
C412 C413 1.424 . S
C413 H405 0.951 . S
C413 C412 1.424 . S
C413 C414 1.347 . S
C414 H406 0.951 . S
C414 C409 1.429 . S
C414 C413 1.347 . S
H415 C416 0.951 . S
C416 H415 0.951 . S
C416 C422 1.265 . S
H417 C422 0.950 1_565 S
H418 C426 0.949 . S
H419 C427 0.950 . S
H420 C428 0.951 . S
H421 C429 0.951 . S
C422 C416 1.265 . S
C422 H417 0.950 1_545 S
C422 C423 1.478 . S
C423 C410 1.394 . S
C423 C422 1.478 . S
C423 C424 1.397 1_545 S
C424 C423 1.397 1_565 S
C424 C425 1.438 . S
C424 C429 1.429 . S
C425 C408 1.394 1_565 S
C425 C424 1.438 . S
C425 C426 1.428 . S
C426 H418 0.949 . S
C426 C425 1.428 . S
C426 C427 1.345 . S
C427 H419 0.950 . S
C427 C426 1.345 . S
C427 C428 1.424 . S
C428 H420 0.951 . S
C428 C427 1.424 . S
C428 C429 1.347 . S
C429 H421 0.951 . S
C429 C424 1.429 . S
C429 C428 1.347 . S
H430 C431 0.951 . S
C431 H430 0.951 . S
C431 C437 1.265 . S
H432 C437 0.950 . S
H433 C441 0.949 . S
H434 C442 0.950 . S
H435 C443 0.951 . S
H436 C444 0.951 . S
C437 C431 1.265 . S
C437 H432 0.950 . S
C437 C438 1.478 . S
C438 C437 1.478 . S
C438 C439 1.397 . S
C438 C455 1.394 1_554 S
C439 C438 1.397 . S
C439 C440 1.438 . S
C439 C444 1.429 . S
C440 C439 1.438 . S
C440 C441 1.428 . S
C440 C453 1.394 . S
C441 H433 0.949 . S
C441 C440 1.428 . S
C441 C442 1.345 . S
C442 H434 0.950 . S
C442 C441 1.345 . S
C442 C443 1.424 . S
C443 H435 0.951 . S
C443 C442 1.424 . S
C443 C444 1.347 . S
C444 H436 0.951 . S
C444 C439 1.429 . S
C444 C443 1.347 . S
H445 C446 0.951 . S
C446 H445 0.951 . S
C446 C452 1.265 . S
H447 C452 0.950 . S
H448 C456 0.949 . S
H449 C457 0.950 . S
H450 C458 0.951 . S
H451 C459 0.951 . S
C452 C446 1.265 . S
C452 H447 0.950 . S
C452 C453 1.478 . S
C453 C440 1.394 . S
C453 C452 1.478 . S
C453 C454 1.397 1_554 S
C454 C453 1.397 1_556 S
C454 C455 1.438 . S
C454 C459 1.429 . S
C455 C438 1.394 1_556 S
C455 C454 1.438 . S
C455 C456 1.428 . S
C456 H448 0.949 . S
C456 C455 1.428 . S
C456 C457 1.345 . S
C457 H449 0.950 . S
C457 C456 1.345 . S
C457 C458 1.424 . S
C458 H450 0.951 . S
C458 C457 1.424 . S
C458 C459 1.347 . S
C459 H451 0.951 . S
C459 C454 1.429 . S
C459 C458 1.347 . S
H460 C461 0.951 . S
C461 H460 0.951 . S
C461 C467 1.265 . S
H462 C467 0.950 . S
H463 C471 0.949 . S
H464 C472 0.950 . S
H465 C473 0.951 . S
H466 C474 0.951 . S
C467 C461 1.265 . S
C467 H462 0.950 . S
C467 C468 1.478 . S
C468 C467 1.478 . S
C468 C469 1.397 . S
C468 C485 1.394 1_554 S
C469 C468 1.397 . S
C469 C470 1.438 . S
C469 C474 1.429 . S
C470 C469 1.438 . S
C470 C471 1.428 . S
C470 C483 1.394 . S
C471 H463 0.949 . S
C471 C470 1.428 . S
C471 C472 1.345 . S
C472 H464 0.950 . S
C472 C471 1.345 . S
C472 C473 1.424 . S
C473 H465 0.951 . S
C473 C472 1.424 . S
C473 C474 1.347 . S
C474 H466 0.951 . S
C474 C469 1.429 . S
C474 C473 1.347 . S
H475 C476 0.951 . S
C476 H475 0.951 . S
C476 C482 1.265 . S
H477 C482 0.950 . S
H478 C486 0.949 . S
H479 C487 0.950 . S
H480 C488 0.951 . S
H481 C489 0.951 . S
C482 C476 1.265 . S
C482 H477 0.950 . S
C482 C483 1.478 . S
C483 C470 1.394 . S
C483 C482 1.478 . S
C483 C484 1.397 1_554 S
C484 C483 1.397 1_556 S
C484 C485 1.438 . S
C484 C489 1.429 . S
C485 C468 1.394 1_556 S
C485 C484 1.438 . S
C485 C486 1.428 . S
C486 H478 0.949 . S
C486 C485 1.428 . S
C486 C487 1.345 . S
C487 H479 0.950 . S
C487 C486 1.345 . S
C487 C488 1.424 . S
C488 H480 0.951 . S
C488 C487 1.424 . S
C488 C489 1.347 . S
C489 H481 0.951 . S
C489 C484 1.429 . S
C489 C488 1.347 . S
H490 C491 0.951 . S
C491 H490 0.951 . S
C491 C497 1.265 . S
H492 C497 0.950 . S
H493 C501 0.949 . S
H494 C502 0.950 . S
H495 C503 0.951 . S
H496 C504 0.951 . S
C497 C491 1.265 . S
C497 H492 0.950 . S
C497 C498 1.478 . S
C498 C497 1.478 . S
C498 C499 1.397 1_554 S
C498 C515 1.394 . S
C499 C498 1.397 1_556 S
C499 C500 1.438 . S
C499 C504 1.429 . S
C500 C499 1.438 . S
C500 C501 1.428 . S
C500 C513 1.394 1_556 S
C501 H493 0.949 . S
C501 C500 1.428 . S
C501 C502 1.345 . S
C502 H494 0.950 . S
C502 C501 1.345 . S
C502 C503 1.424 . S
C503 H495 0.951 . S
C503 C502 1.424 . S
C503 C504 1.347 . S
C504 H496 0.951 . S
C504 C499 1.429 . S
C504 C503 1.347 . S
H505 C506 0.951 . S
C506 H505 0.951 . S
C506 C512 1.265 . S
H507 C512 0.950 . S
H508 C516 0.949 . S
H509 C517 0.950 . S
H510 C518 0.951 . S
H511 C519 0.951 . S
C512 C506 1.265 . S
C512 H507 0.950 . S
C512 C513 1.478 . S
C513 C500 1.394 1_554 S
C513 C512 1.478 . S
C513 C514 1.397 . S
C514 C513 1.397 . S
C514 C515 1.438 . S
C514 C519 1.429 . S
C515 C498 1.394 . S
C515 C514 1.438 . S
C515 C516 1.428 . S
C516 H508 0.949 . S
C516 C515 1.428 . S
C516 C517 1.345 . S
C517 H509 0.950 . S
C517 C516 1.345 . S
C517 C518 1.424 . S
C518 H510 0.951 . S
C518 C517 1.424 . S
C518 C519 1.347 . S
C519 H511 0.951 . S
C519 C514 1.429 . S
C519 C518 1.347 . S
H520 C521 0.951 . S
C521 H520 0.951 . S
C521 C527 1.265 . S
H522 C527 0.950 . S
H523 C531 0.949 . S
H524 C532 0.950 . S
H525 C533 0.951 . S
H526 C534 0.951 . S
C527 C521 1.265 . S
C527 H522 0.950 . S
C527 C528 1.478 . S
C528 C527 1.478 . S
C528 C529 1.397 . S
C528 C545 1.394 1_554 S
C529 C528 1.397 . S
C529 C530 1.438 . S
C529 C534 1.429 . S
C530 C529 1.438 . S
C530 C531 1.428 . S
C530 C543 1.394 . S
C531 H523 0.949 . S
C531 C530 1.428 . S
C531 C532 1.345 . S
C532 H524 0.950 . S
C532 C531 1.345 . S
C532 C533 1.424 . S
C533 H525 0.951 . S
C533 C532 1.424 . S
C533 C534 1.347 . S
C534 H526 0.951 . S
C534 C529 1.429 . S
C534 C533 1.347 . S
H535 C536 0.951 . S
C536 H535 0.951 . S
C536 C542 1.265 . S
H537 C542 0.950 . S
H538 C546 0.949 . S
H539 C547 0.950 . S
H540 C548 0.951 . S
H541 C549 0.951 . S
C542 C536 1.265 . S
C542 H537 0.950 . S
C542 C543 1.478 . S
C543 C530 1.394 . S
C543 C542 1.478 . S
C543 C544 1.397 1_554 S
C544 C543 1.397 1_556 S
C544 C545 1.438 . S
C544 C549 1.429 . S
C545 C528 1.394 1_556 S
C545 C544 1.438 . S
C545 C546 1.428 . S
C546 H538 0.949 . S
C546 C545 1.428 . S
C546 C547 1.345 . S
C547 H539 0.950 . S
C547 C546 1.345 . S
C547 C548 1.424 . S
C548 H540 0.951 . S
C548 C547 1.424 . S
C548 C549 1.347 . S
C549 H541 0.951 . S
C549 C544 1.429 . S
C549 C548 1.347 . S
C206 C174 1.919 . S
C191 C15 1.965 1_655 S
C236 C170 1.432 . S
C221 C68 1.471 . S
C266 C180 1.924 1_655 S
C251 C8 1.961 . S
C296 C164 1.349 1_565 S
C281 C61 1.447 . S
C311 C1 2.080 . S
C326 C156 1.952 . S
C356 C188 1.534 . S
C341 C54 1.590 . S
C371 C22 2.092 . S
C386 C142 1.997 . S
C401 C47 1.592 1_545 S
C416 C186 1.528 . S
C431 C93 0.975 . S
C446 C168 0.915 . S
C461 C114 1.003 . S
C476 C183 0.920 . S
C506 C177 1.041 . S
C491 C100 1.001 . S
C536 C172 0.920 . S
C521 C107 0.978 . S
