# Generated by pormake.
# Topology rtl, (3,6)-cn, num edge types: 1
# Building blocks:
#     Node 0, Type 0, BuildingBlock: CUQRIR_clean_linker_1, # of connection points: 3
#     Node 1, Type 0, BuildingBlock: CUQRIR_clean_linker_1, # of connection points: 3
#     Node 2, Type 0, BuildingBlock: CUQRIR_clean_linker_1, # of connection points: 3
#     Node 3, Type 0, BuildingBlock: CUQRIR_clean_linker_1, # of connection points: 3
#     Node 4, Type 1, BuildingBlock: KUMBOL_clean_sbu_1, # of connection points: 6
#     Node 5, Type 1, BuildingBlock: KUMBOL_clean_sbu_1, # of connection points: 6
#     Edge 6, Type (0, 1), BuildingBlock: XIVTED_clean_linker_0, # of connection points: 2
#     Edge 7, Type (0, 1), BuildingBlock: XIVTED_clean_linker_0, # of connection points: 2
#     Edge 8, Type (0, 1), BuildingBlock: XIVTED_clean_linker_0, # of connection points: 2
#     Edge 9, Type (0, 1), BuildingBlock: XIVTED_clean_linker_0, # of connection points: 2
#     Edge 10, Type (0, 1), BuildingBlock: XIVTED_clean_linker_0, # of connection points: 2
#     Edge 11, Type (0, 1), BuildingBlock: XIVTED_clean_linker_0, # of connection points: 2
#     Edge 12, Type (0, 1), BuildingBlock: XIVTED_clean_linker_0, # of connection points: 2
#     Edge 13, Type (0, 1), BuildingBlock: XIVTED_clean_linker_0, # of connection points: 2
#     Edge 14, Type (0, 1), BuildingBlock: XIVTED_clean_linker_0, # of connection points: 2
#     Edge 15, Type (0, 1), BuildingBlock: XIVTED_clean_linker_0, # of connection points: 2
#     Edge 16, Type (0, 1), BuildingBlock: XIVTED_clean_linker_0, # of connection points: 2
#     Edge 17, Type (0, 1), BuildingBlock: XIVTED_clean_linker_0, # of connection points: 2
# Relax obj value: 0.065
# Max RMSD: 0.227
# Mean RMSD: 0.176
data_MOF--net-rtl--node1-KUMBOL_clean_sbu_1--node2-CUQRIR_clean_linker_1--edge1-XIVTED_clean_linker_0
_symmetry_space_group_name_H-M    P1
_symmetry_Int_Tables_number       1
_symmetry_cell_setting            triclinic
loop_
_symmetry_equiv_pos_as_xyz
'x, y, z'
_cell_length_a     33.236761
_cell_length_b     33.460401
_cell_length_c     25.099988
_cell_angle_alpha  76.424108
_cell_angle_beta   98.963455
_cell_angle_gamma 91.442219
loop_
_atom_site_label
_atom_site_type_symbol
_atom_site_fract_x
_atom_site_fract_y
_atom_site_fract_z
_atom_type_partial_charge
C0 C 0.23772 0.80747 0.99296 0.0
N1 N 0.20987 0.83129 1.00501 0.0
N2 N 0.25919 0.78459 0.03996 0.0
C3 C 0.24475 0.8077 0.93506 0.0
C4 C 0.24346 0.79558 0.08121 0.0
N5 N 0.21347 0.82434 0.05992 0.0
C6 C 0.25419 0.77475 0.14171 0.0
H7 H 0.2242 0.78516 0.9189 0.0
H8 H 0.27673 0.79915 0.93468 0.0
H9 H 0.23772 0.83847 0.90699 0.0
H10 H 0.27923 0.79176 0.16099 0.0
H11 H 0.26475 0.74266 0.14704 0.0
H12 H 0.22766 0.7744 0.16371 0.0
C13 C 0.72494 0.7308 0.68995 0.0
N14 N 0.69938 0.69968 0.68193 0.0
N15 N 0.74359 0.74525 0.64495 0.0
C16 C 0.73473 0.74435 0.74355 0.0
C17 C 0.72855 0.72178 0.6094 0.0
N18 N 0.70221 0.69376 0.63205 0.0
C19 C 0.737 0.72843 0.55071 0.0
H20 H 0.71347 0.76956 0.74286 0.0
H21 H 0.7663 0.75597 0.74901 0.0
H22 H 0.73121 0.71865 0.77951 0.0
H23 H 0.76295 0.70844 0.55002 0.0
H24 H 0.74495 0.7609 0.53415 0.0
H25 H 0.71014 0.72027 0.52323 0.0
C26 C 0.7803 0.2035 0.1285 0.0
N27 N 0.80735 0.1794 0.11524 0.0
N28 N 0.75851 0.22691 0.08206 0.0
C29 C 0.77727 0.20627 0.18679 0.0
C30 C 0.77376 0.2164 0.04007 0.0
N31 N 0.80378 0.18769 0.06032 0.0
C32 C 0.7573 0.23188 0.97953 0.0
H33 H 0.75343 0.18492 0.20251 0.0
H34 H 0.76874 0.23789 0.18781 0.0
H35 H 0.80639 0.19732 0.21503 0.0
H36 H 0.77489 0.25913 0.96206 0.0
H37 H 0.72478 0.24109 0.97371 0.0
H38 H 0.76037 0.20798 0.9563 0.0
C39 C 0.30221 0.29149 0.42663 0.0
N40 N 0.32931 0.32079 0.43684 0.0
N41 N 0.28597 0.27383 0.47277 0.0
C42 C 0.29357 0.27843 0.37261 0.0
C43 C 0.30419 0.29354 0.51137 0.0
N44 N 0.33105 0.32155 0.48987 0.0
C45 C 0.29211 0.28899 0.56794 0.0
H46 H 0.26829 0.29765 0.34528 0.0
H47 H 0.28447 0.24572 0.37941 0.0
H48 H 0.32069 0.28283 0.35115 0.0
H49 H 0.31247 0.26593 0.59859 0.0
H50 H 0.2602 0.27855 0.56839 0.0
H51 H 0.29507 0.31854 0.58096 0.0
C52 C 0.96005 0.14276 0.51593 0.0
C53 C 0.89408 0.13717 0.46106 0.0
C54 C 0.92713 0.11908 0.50109 0.0
C55 C 0.89453 0.17941 0.43632 0.0
C56 C 0.96062 0.18516 0.49117 0.0
C57 C 0.92769 0.20333 0.45134 0.0
N58 N 0.9918 0.1242 0.55386 0.0
C59 C 0.02454 0.14634 0.57007 0.0
C60 C 0.99442 0.20797 0.50694 0.0
C61 C 0.02645 0.18848 0.54669 0.0
Gd62 Gd 0.04485 0.97093 0.53162 0.0
Gd63 Gd 0.98636 0.05329 0.58898 0.0
N64 N 0.92829 0.07795 0.52424 0.0
C65 C 0.86175 0.11217 0.44673 0.0
C66 C 0.89627 0.05368 0.51183 0.0
C67 C 0.86274 0.07032 0.47253 0.0
H68 H 0.89648 0.02149 0.53185 0.0
H69 H 0.83766 0.05085 0.46217 0.0
H70 H 0.13312 0.02359 0.51585 0.0
H71 H 0.04901 0.13157 0.60157 0.0
H72 H 0.20177 0.02449 0.56847 0.0
H73 H 0.83583 0.12489 0.41605 0.0
H74 H 0.86945 0.19384 0.40537 0.0
H75 H 1.00594 0.8796 0.58253 0.0
H76 H 0.99603 0.24061 0.48883 0.0
H77 H 0.05255 0.20591 0.55944 0.0
H78 H 0.20799 0.90288 0.71532 0.0
H79 H 0.92763 0.23585 0.43178 0.0
H80 H 0.09388 0.8125 0.71439 0.0
H81 H 0.02601 0.81692 0.65631 0.0
N82 N 0.06186 0.90975 0.59889 0.0
C83 C 0.09977 0.90749 0.62906 0.0
C84 C 0.03568 0.87758 0.6075 0.0
C85 C 0.08535 0.83981 0.6818 0.0
C86 C 0.04698 0.8422 0.64916 0.0
C87 C 0.11234 0.8726 0.67191 0.0
H88 H 0.16119 0.84533 0.73716 0.0
N89 N 0.11308 0.97327 0.57479 0.0
C90 C 0.1258 0.94047 0.61735 0.0
C91 C 0.19251 0.97027 0.63103 0.0
C92 C 0.16558 0.9386 0.64741 0.0
C93 C 0.14084 1.00137 0.55474 0.0
C94 C 0.1804 1.00122 0.58357 0.0
O95 O 0.98562 0.06483 0.49613 0.0
O96 O 0.98873 1.00123 0.47598 0.0
O97 O 0.07393 0.97498 0.45847 0.0
O98 O 0.04534 0.91876 0.49436 0.0
O99 O 0.95868 0.98956 0.59708 0.0
O100 O 0.97799 0.95781 0.53134 0.0
O101 O 0.03431 0.95848 0.62108 0.0
O102 O 0.04258 0.02115 0.64199 0.0
O103 O 0.94416 0.03709 0.64811 0.0
O104 O 0.98235 0.09017 0.64893 0.0
O105 O 0.06241 0.03839 0.51162 0.0
O106 O 0.05416 0.05872 0.59067 0.0
C107 C 0.97936 0.04053 0.4615 0.0
C108 C 0.95419 0.96131 0.56759 0.0
C109 C 0.04323 0.9349 0.39772 0.0
C110 C 0.04935 0.92039 0.3081 0.0
C111 C 0.98259 0.93145 0.33153 0.0
C112 C 1.00076 0.93734 0.38302 0.0
C113 C 0.00652 0.92259 0.29456 0.0
C114 C 0.06735 0.92726 0.35994 0.0
C115 C 0.06269 0.93844 0.45317 0.0
C116 C 0.17774 0.90453 0.69137 0.0
C117 C 0.15118 0.87163 0.7036 0.0
H118 H 0.22332 0.96997 0.65297 0.0
C119 C 0.04726 0.98115 0.65611 0.0
C120 C 0.07089 0.06314 0.54558 0.0
C121 C 0.9654 0.05303 0.7345 0.0
C122 C 0.95375 0.05883 0.82617 0.0
C123 C 1.00115 0.0074 0.81722 0.0
C124 C 0.99272 0.02043 0.75963 0.0
C125 C 0.9818 0.02639 0.85039 0.0
C126 C 0.946 0.0723 0.76785 0.0
C127 C 0.95613 0.06605 0.67362 0.0
H128 H 0.94975 0.93295 0.32063 0.0
H129 H 0.98165 0.9431 0.41171 0.0
H130 H 0.99118 0.91658 0.256 0.0
H131 H 0.10015 0.92649 0.3715 0.0
H132 H 0.02249 0.98229 0.83617 0.0
H133 H 0.00709 0.00483 0.73456 0.0
H134 H 0.9889 0.01577 0.89505 0.0
H135 H 0.9242 0.09695 0.74836 0.0
C136 C 0.64198 0.54646 0.07548 0.0
C137 C 0.64501 0.6193 0.03331 0.0
C138 C 0.62401 0.58511 0.05977 0.0
C139 C 0.68358 0.61349 0.01988 0.0
C140 C 0.68167 0.54085 0.065 0.0
C141 C 0.70185 0.5743 0.03559 0.0
N142 N 0.62191 0.5151 0.10485 0.0
C143 C 0.64169 0.47873 0.13029 0.0
C144 C 0.70051 0.50226 0.08645 0.0
C145 C 0.68073 0.47132 0.12023 0.0
Gd146 Gd 0.47266 0.48817 1.0009 0.0
Gd147 Gd 0.55459 0.52951 0.11432 0.0
N148 N 0.5865 0.58953 0.07265 0.0
C149 C 0.62704 0.65837 0.0226 0.0
C150 C 0.56981 0.62769 0.06546 0.0
C151 C 0.58959 0.66265 0.03965 0.0
H152 H 0.54066 0.63078 0.07825 0.0
H153 H 0.57586 0.6928 0.03263 0.0
H154 H 0.5201 0.40506 0.9823 0.0
H155 H 0.62744 0.45523 0.15845 0.0
H156 H 0.5183 0.32967 0.0145 0.0
H157 H 0.64222 0.68546 1.00241 0.0
H158 H 0.7 0.63927 0.99879 0.0
H159 H 0.3826 0.5232 1.01205 0.0
H160 H 0.73095 0.49663 0.07926 0.0
H161 H 0.69572 0.44194 0.13909 0.0
H162 H 0.40025 0.3055 0.1056 0.0
H163 H 0.73216 0.57048 0.02654 0.0
H164 H 0.31482 0.42205 0.09216 0.0
H165 H 0.32001 0.49638 0.04998 0.0
N166 N 0.412 0.46482 0.03368 0.0
C167 C 0.40874 0.42371 0.0533 0.0
C168 C 0.38013 0.49076 0.0301 0.0
C169 C 0.34209 0.43367 0.07541 0.0
C170 C 0.34487 0.47566 0.05155 0.0
C171 C 0.374 0.407 0.07572 0.0
H172 H 0.3456 0.35085 0.11421 0.0
N173 N 0.47085 0.41567 0.02255 0.0
C174 C 0.43949 0.39835 0.04835 0.0
C175 C 0.46596 0.33045 0.05524 0.0
C176 C 0.43634 0.3553 0.06586 0.0
C177 C 0.49762 0.39148 1.00769 0.0
C178 C 0.49627 0.34864 0.02504 0.0
O179 O 0.54358 0.5627 0.02262 0.0
O180 O 0.53353 0.51046 0.97776 0.0
O181 O 0.44861 0.46715 0.92542 0.0
O182 O 0.44319 0.53162 0.92822 0.0
O183 O 0.49187 0.55846 0.09671 0.0
O184 O 0.46281 0.55328 1.00792 0.0
O185 O 0.4579 0.48677 0.08685 0.0
O186 O 0.51926 0.47192 0.14355 0.0
O187 O 0.53793 0.56093 0.17412 0.0
O188 O 0.59426 0.52663 0.19322 0.0
O189 O 0.5379 0.4652 0.0185 0.0
O190 O 0.55735 0.46217 0.11148 0.0
C191 C 0.5482 0.54671 0.98084 0.0
C192 C 0.46565 0.57037 0.0507 0.0
C193 C 0.414 0.51479 0.8417 0.0
C194 C 0.39567 0.50061 0.74946 0.0
C195 C 0.36869 0.56139 0.77006 0.0
C196 C 0.38989 0.5507 0.82388 0.0
C197 C 0.37133 0.53659 0.7332 0.0
C198 C 0.41688 0.48981 0.80433 0.0
C199 C 0.43585 0.50403 0.89924 0.0
C200 C 0.40294 0.33848 0.09127 0.0
C201 C 0.37178 0.36429 0.09611 0.0
H202 H 0.46469 0.29725 0.06807 0.0
C203 C 0.47939 0.46917 0.1348 0.0
C204 C 0.55921 0.44837 0.06693 0.0
C205 C 0.56084 0.53165 0.26819 0.0
C206 C 0.56857 0.53654 0.36492 0.0
C207 C 0.5221 0.48705 0.33221 0.0
C208 C 0.53244 0.50031 0.27911 0.0
C209 C 0.53983 0.50517 0.37487 0.0
C210 C 0.57911 0.54949 0.31127 0.0
C211 C 0.56943 0.54783 0.21132 0.0
H212 H 0.34981 0.58891 0.75695 0.0
H213 H 0.38705 0.5704 0.85179 0.0
H214 H 0.35358 0.54534 0.69218 0.0
H215 H 0.43604 0.46248 0.8178 0.0
H216 H 0.5 0.4629 0.34019 0.0
H217 H 0.51788 0.48671 0.24625 0.0
H218 H 0.53136 0.49443 0.41576 0.0
H219 H 0.60061 0.5742 0.30265 0.0
H220 H 0.21393 0.27082 0.40599 0.0
H221 H 0.12656 0.09001 0.6209 0.0
H222 H 0.28848 0.20536 0.55564 0.0
H223 H 0.0862 0.10784 0.44507 0.0
H224 H 0.18006 0.14083 0.6014 0.0
H225 H 0.16095 0.21862 0.42202 0.0
C226 C 0.21927 0.24519 0.44182 0.0
C227 C 0.25553 0.24228 0.47961 0.0
C228 C 0.15944 0.13361 0.56715 0.0
C229 C 0.19485 0.18361 0.49915 0.0
C230 C 0.12881 0.10493 0.57823 0.0
C231 C 0.10209 0.09488 0.53446 0.0
C232 C 0.16273 0.15298 0.51198 0.0
C233 C 0.10644 0.11473 0.47988 0.0
C234 C 0.18904 0.21566 0.45112 0.0
C235 C 0.26069 0.20894 0.52602 0.0
N236 N 0.13604 0.14315 0.4701 0.0
N237 N 0.23051 0.18114 0.53486 0.0
H238 H 0.33449 0.7768 0.1007 0.0
H239 H 0.39932 0.59659 0.9713 0.0
H240 H 0.25193 0.72141 0.98951 0.0
H241 H 0.46479 0.61997 0.12354 0.0
H242 H 0.34905 0.64864 0.97015 0.0
H243 H 0.38639 0.72468 0.10415 0.0
C244 C 0.32739 0.75346 0.07732 0.0
C245 C 0.28928 0.75336 0.04441 0.0
C246 C 0.3744 0.64231 1.00384 0.0
C247 C 0.34809 0.69456 0.0472 0.0
C248 C 0.40325 0.61266 1.00448 0.0
C249 C 0.4362 0.60349 0.04793 0.0
C250 C 0.37874 0.66348 0.04646 0.0
C251 C 0.43972 0.62573 0.08946 0.0
C252 C 0.35687 0.72394 0.07908 0.0
C253 C 0.28132 0.72284 0.01448 0.0
N254 N 0.41135 0.65477 0.08766 0.0
N255 N 0.31058 0.6948 0.01626 0.0
H256 H 0.74027 0.82245 0.66098 0.0
H257 H 0.93844 0.89396 0.52323 0.0
H258 H 0.81601 0.7397 0.61102 0.0
H259 H 0.89486 0.9585 0.63367 0.0
H260 H 0.88737 0.84142 0.5441 0.0
H261 H 0.79126 0.8766 0.64255 0.0
C262 C 0.76779 0.81571 0.64652 0.0
C263 C 0.77397 0.77678 0.63711 0.0
C264 C 0.88905 0.86707 0.56381 0.0
C265 C 0.83163 0.83838 0.61475 0.0
C266 C 0.91818 0.89722 0.55184 0.0
C267 C 0.92147 0.9306 0.57726 0.0
C268 C 0.86235 0.87051 0.6007 0.0
C269 C 0.89377 0.9332 0.61341 0.0
C270 C 0.7967 0.84653 0.63578 0.0
C271 C 0.80985 0.76956 0.61779 0.0
N272 N 0.86531 0.9036 0.62397 0.0
N273 N 0.83716 0.80013 0.60681 0.0
H274 H 0.69299 0.21887 0.13541 0.0
H275 H 0.60439 0.4425 0.98798 0.0
H276 H 0.75563 0.30535 0.02149 0.0
H277 H 0.58094 0.38053 0.15106 0.0
H278 H 0.65288 0.38789 0.99101 0.0
H279 H 0.6442 0.27334 0.13347 0.0
C280 C 0.69636 0.24937 0.11002 0.0
C281 C 0.72827 0.25784 0.07865 0.0
C282 C 0.63718 0.38627 0.02616 0.0
C283 C 0.67251 0.31971 0.07532 0.0
C284 C 0.60945 0.41723 0.02436 0.0
C285 C 0.58882 0.41579 0.06939 0.0
C286 C 0.64367 0.35323 0.07283 0.0
C287 C 0.59653 0.38267 0.11571 0.0
C288 C 0.66863 0.28031 0.10889 0.0
C289 C 0.73107 0.29756 0.04561 0.0
N290 N 0.6232 0.35237 0.11612 0.0
N291 N 0.70343 0.32706 0.0446 0.0
H292 H 0.1309 0.83168 0.04554 0.0
H293 H 0.12301 0.87838 0.33364 0.0
H294 H 0.24111 0.85906 0.14521 0.0
H295 H 0.03444 0.93679 0.19324 0.0
H296 H 0.16362 0.86026 0.26988 0.0
H297 H 0.09096 0.86008 0.10282 0.0
C298 C 0.14669 0.84433 0.07879 0.0
C299 C 0.18937 0.84319 0.09065 0.0
C300 C 0.13533 0.87723 0.25329 0.0
C301 C 0.14404 0.87378 0.15747 0.0
C302 C 0.1121 0.88799 0.28961 0.0
C303 C 0.07493 0.90955 0.26931 0.0
C304 C 0.12096 0.88694 0.19624 0.0
C305 C 0.06226 0.91952 0.21142 0.0
C306 C 0.12392 0.86017 0.11165 0.0
C307 C 0.20826 0.85884 0.13537 0.0
N308 N 0.08499 0.90772 0.177 0.0
N309 N 0.18549 0.87292 0.16776 0.0
H310 H 0.69751 0.61687 0.71952 0.0
H311 H 0.55422 0.63013 0.94438 0.0
H312 H 0.64593 0.73001 0.73341 0.0
H313 H 0.58997 0.51558 0.91394 0.0
H314 H 0.59001 0.66733 0.86978 0.0
H315 H 0.6594 0.57883 0.7915 0.0
C316 C 0.6777 0.63355 0.73733 0.0
C317 C 0.67477 0.67652 0.7208 0.0
C318 C 0.59005 0.63405 0.87934 0.0
C319 C 0.63182 0.63362 0.80372 0.0
C320 C 0.56994 0.61284 0.9223 0.0
C321 C 0.56956 0.56977 0.93579 0.0
C322 C 0.6099 0.612 0.84949 0.0
C323 C 0.58951 0.54885 0.90484 0.0
C324 C 0.65621 0.61196 0.77863 0.0
C325 C 0.64922 0.69688 0.74562 0.0
N326 N 0.60899 0.57013 0.86332 0.0
N327 N 0.62893 0.67533 0.78602 0.0
H328 H 0.79716 0.1025 0.17301 0.0
H329 H 0.98102 0.12007 0.40357 0.0
H330 H 0.88446 0.1994 0.1477 0.0
H331 H 0.93093 1.00188 0.39062 0.0
H332 H 0.94382 0.15056 0.31157 0.0
H333 H 0.84422 0.0645 0.25351 0.0
C334 C 0.82689 0.11498 0.18379 0.0
C335 C 0.83764 0.15347 0.15394 0.0
C336 C 0.94144 0.11784 0.3285 0.0
C337 C 0.89052 0.11167 0.24631 0.0
C338 C 0.96241 0.10048 0.3811 0.0
C339 C 0.95901 0.0584 0.4046 0.0
C340 C 0.9163 0.0931 0.29958 0.0
C341 C 0.93461 0.03439 0.37372 0.0
C342 C 0.85355 0.0936 0.2296 0.0
C343 C 0.87577 0.16938 0.16967 0.0
N344 N 0.91369 0.0522 0.32296 0.0
N345 N 0.90071 0.1487 0.21548 0.0
H346 H 0.32942 0.40476 0.46082 0.0
H347 H 0.40083 0.41602 0.77062 0.0
H348 H 0.38332 0.30106 0.58545 0.0
H349 H 0.39447 0.52455 0.6363 0.0
H350 H 0.39642 0.37359 0.70314 0.0
H351 H 0.35532 0.4502 0.52217 0.0
C352 C 0.34783 0.39186 0.50044 0.0
C353 C 0.35416 0.3493 0.51854 0.0
C354 C 0.39646 0.40672 0.68851 0.0
C355 C 0.38254 0.40039 0.5895 0.0
C356 C 0.39917 0.43107 0.72715 0.0
C357 C 0.39742 0.47415 0.70942 0.0
C358 C 0.39135 0.42542 0.63153 0.0
C359 C 0.39469 0.49155 0.6521 0.0
C360 C 0.36229 0.41761 0.53566 0.0
C361 C 0.37763 0.33379 0.57053 0.0
N362 N 0.39111 0.46719 0.61525 0.0
N363 N 0.39028 0.35917 0.60469 0.0
H364 H 0.73786 0.63549 0.5975 0.0
H365 H 0.53038 0.5646 0.43873 0.0
H366 H 0.62085 0.68329 0.60665 0.0
H367 H 0.649 0.55249 0.39445 0.0
H368 H 0.56191 0.5975 0.51252 0.0
H369 H 0.70451 0.59266 0.53708 0.0
C370 C 0.70496 0.63624 0.58738 0.0
C371 C 0.68194 0.66294 0.60639 0.0
C372 C 0.58098 0.58748 0.48675 0.0
C373 C 0.64351 0.61459 0.53706 0.0
C374 C 0.56309 0.56862 0.44482 0.0
C375 C 0.58715 0.55597 0.41028 0.0
C376 C 0.62329 0.59316 0.49471 0.0
C377 C 0.62929 0.56219 0.41969 0.0
C378 C 0.68596 0.61211 0.55272 0.0
C379 C 0.63944 0.6629 0.59268 0.0
N380 N 0.646 0.58023 0.46103 0.0
N381 N 0.62147 0.63933 0.55829 0.0
H382 H 0.84647 0.22775 0.98116 0.0
H383 H 0.9204 0.02 0.91751 0.0
H384 H 0.81555 0.10682 0.06789 0.0
H385 H 0.93783 0.14069 0.81631 0.0
H386 H 0.88587 0.05137 0.9768 0.0
H387 H 0.88402 0.1967 0.92399 0.0
C388 C 0.84775 0.1946 0.98804 0.0
C389 C 0.82793 0.16968 0.02891 0.0
C390 C 0.89723 0.07104 0.94165 0.0
C391 C 0.87086 0.13387 0.96435 0.0
C392 C 0.91716 0.05316 0.90792 0.0
C393 C 0.93216 0.07776 0.8619 0.0
C394 C 0.8923 0.11393 0.92955 0.0
C395 C 0.92643 0.12052 0.85101 0.0
C396 C 0.86916 0.17688 0.95561 0.0
C397 C 0.83084 0.12693 0.03709 0.0
N398 N 0.90706 0.13725 0.88466 0.0
N399 N 0.85182 0.11033 1.00498 0.0
H400 H 0.29754 0.37396 0.34254 0.0
H401 H 0.50934 0.40888 0.22594 0.0
H402 H 0.41108 0.32525 0.44065 0.0
H403 H 0.40143 0.48184 0.14998 0.0
H404 H 0.47385 0.37537 0.30303 0.0
H405 H 0.33471 0.41182 0.26963 0.0
C406 C 0.33046 0.37175 0.34868 0.0
C407 C 0.35148 0.3467 0.39723 0.0
C408 C 0.45793 0.39866 0.26941 0.0
C409 C 0.39428 0.38916 0.31411 0.0
C410 C 0.47811 0.41771 0.22535 0.0
C411 C 0.45814 0.44793 0.18113 0.0
C412 C 0.4173 0.40957 0.26898 0.0
C413 C 0.4177 0.45814 0.18252 0.0
C414 C 0.35168 0.39322 0.30724 0.0
C415 C 0.39405 0.34456 0.40371 0.0
N416 N 0.3986 0.43893 0.22553 0.0
N417 N 0.41413 0.36521 0.36232 0.0
H418 H 0.20595 0.91415 0.97253 0.0
H419 H 0.03261 0.90467 0.71553 0.0
H420 H 0.14645 0.80356 0.94519 0.0
H421 H 0.10412 0.01264 0.72589 0.0
H422 H 0.06678 0.87014 0.80749 0.0
H423 H 0.16108 0.95423 0.89078 0.0
C424 C 0.18262 0.89869 0.9499 0.0
C425 C 0.17931 0.85591 0.96501 0.0
C426 C 0.07498 0.90145 0.78989 0.0
C427 C 0.12888 0.90059 0.87197 0.0
C428 C 0.05568 0.92101 0.73725 0.0
C429 C 0.06633 0.9611 0.71279 0.0
C430 C 0.10506 0.92222 0.81848 0.0
C431 C 0.09543 0.98147 0.74328 0.0
C432 C 0.15736 0.92127 0.90323 0.0
C433 C 0.1494 0.83666 0.93444 0.0
N434 N 0.11411 0.96166 0.7945 0.0
N435 N 0.12546 0.85908 0.88913 0.0
loop_
_geom_bond_atom_site_label_1
_geom_bond_atom_site_label_2
_geom_bond_distance
_geom_bond_site_symmetry_2
_ccdc_geom_bond_type
C0 N1 1.317 . S
C0 N2 1.348 1_556 S
C0 C3 1.485 . S
N1 C0 1.317 . S
N1 N5 1.370 1_556 S
N2 C0 1.348 1_554 S
N2 C4 1.346 . S
C3 C0 1.485 . S
C3 H7 0.960 . S
C3 H8 0.961 . S
C3 H9 0.960 . S
C4 N2 1.346 . S
C4 N5 1.307 . S
C4 C6 1.486 . S
N5 N1 1.370 1_554 S
N5 C4 1.307 . S
C6 C4 1.486 . S
C6 H10 0.960 . S
C6 H11 0.960 . S
C6 H12 0.959 . S
H7 C3 0.960 . S
H8 C3 0.961 . S
H9 C3 0.960 . S
H10 C6 0.960 . S
H11 C6 0.960 . S
H12 C6 0.959 . S
C13 N14 1.317 . S
C13 N15 1.348 . S
C13 C16 1.485 . S
N14 C13 1.317 . S
N14 N18 1.370 . S
N15 C13 1.348 . S
N15 C17 1.346 . S
C16 C13 1.485 . S
C16 H20 0.960 . S
C16 H21 0.961 . S
C16 H22 0.960 . S
C17 N15 1.346 . S
C17 N18 1.307 . S
C17 C19 1.486 . S
N18 N14 1.370 . S
N18 C17 1.307 . S
C19 C17 1.486 . S
C19 H23 0.960 . S
C19 H24 0.960 . S
C19 H25 0.959 . S
H20 C16 0.960 . S
H21 C16 0.961 . S
H22 C16 0.960 . S
H23 C19 0.960 . S
H24 C19 0.960 . S
H25 C19 0.959 . S
C26 N27 1.317 . S
C26 N28 1.348 . S
C26 C29 1.485 . S
N27 C26 1.317 . S
N27 N31 1.370 . S
N28 C26 1.348 . S
N28 C30 1.346 . S
C29 C26 1.485 . S
C29 H33 0.960 . S
C29 H34 0.961 . S
C29 H35 0.960 . S
C30 N28 1.346 . S
C30 N31 1.307 . S
C30 C32 1.486 1_554 S
N31 N27 1.370 . S
N31 C30 1.307 . S
C32 C30 1.486 1_556 S
C32 H36 0.960 . S
C32 H37 0.960 . S
C32 H38 0.959 . S
H33 C29 0.960 . S
H34 C29 0.961 . S
H35 C29 0.960 . S
H36 C32 0.960 . S
H37 C32 0.960 . S
H38 C32 0.959 . S
C39 N40 1.317 . S
C39 N41 1.348 . S
C39 C42 1.485 . S
N40 C39 1.317 . S
N40 N44 1.370 . S
N41 C39 1.348 . S
N41 C43 1.346 . S
C42 C39 1.485 . S
C42 H46 0.960 . S
C42 H47 0.961 . S
C42 H48 0.960 . S
C43 N41 1.346 . S
C43 N44 1.307 . S
C43 C45 1.486 . S
N44 N40 1.370 . S
N44 C43 1.307 . S
C45 C43 1.486 . S
C45 H49 0.960 . S
C45 H50 0.960 . S
C45 H51 0.959 . S
H46 C42 0.960 . S
H47 C42 0.961 . S
H48 C42 0.960 . S
H49 C45 0.960 . S
H50 C45 0.960 . S
H51 C45 0.959 . S
C52 C54 1.422 . S
C52 C56 1.415 . S
C52 N58 1.369 . S
C53 C54 1.421 . S
C53 C55 1.417 . S
C53 C65 1.422 . S
C54 C52 1.422 . S
C54 C53 1.421 . S
C54 N64 1.359 . S
C55 C53 1.417 . S
C55 C57 1.329 . S
C55 H74 0.930 . S
C56 C52 1.415 . S
C56 C57 1.437 . S
C56 C60 1.413 . S
C57 C55 1.329 . S
C57 C56 1.437 . S
C57 H79 0.929 . S
N58 C52 1.369 . S
N58 C59 1.338 1_655 S
N58 Gd63 2.622 . S
C59 N58 1.338 1_455 S
C59 C61 1.378 . S
C59 H71 0.929 . S
C60 C56 1.413 . S
C60 C61 1.348 1_655 S
C60 H76 0.931 . S
C61 C59 1.378 . S
C61 C60 1.348 1_455 S
C61 H77 0.930 . S
Gd62 N82 2.622 . S
Gd62 N89 2.570 . S
Gd62 O96 2.353 1_465 S
Gd62 O97 2.468 . S
Gd62 O98 2.427 . S
Gd62 O100 2.388 1_455 S
Gd62 O101 2.386 . S
Gd62 O105 2.307 1_565 S
Gd62 C115 2.805 . S
Gd63 N58 2.622 . S
Gd63 N64 2.570 . S
Gd63 O95 2.386 . S
Gd63 O99 2.307 1_545 S
Gd63 O102 2.353 1_655 S
Gd63 O103 2.468 . S
Gd63 O104 2.427 . S
Gd63 O106 2.388 1_655 S
Gd63 C127 2.805 . S
N64 C54 1.359 . S
N64 Gd63 2.570 . S
N64 C66 1.343 . S
C65 C53 1.422 . S
C65 C67 1.321 . S
C65 H73 0.931 . S
C66 N64 1.343 . S
C66 C67 1.390 . S
C66 H68 0.931 . S
C67 C65 1.321 . S
C67 C66 1.390 . S
C67 H69 0.930 . S
H68 C66 0.931 . S
H69 C67 0.930 . S
H70 C93 0.931 . S
H71 C59 0.929 . S
H72 C94 0.930 . S
H73 C65 0.931 . S
H74 C55 0.930 . S
H75 C84 0.929 1_655 S
H76 C60 0.931 . S
H77 C61 0.930 . S
H78 C116 0.930 . S
H79 C57 0.929 . S
H80 C85 0.931 . S
H81 C86 0.930 1_655 S
N82 Gd62 2.622 . S
N82 C83 1.369 . S
N82 C84 1.338 . S
C83 N82 1.369 . S
C83 C87 1.415 . S
C83 C90 1.422 . S
C84 H75 0.929 1_455 S
C84 N82 1.338 . S
C84 C86 1.378 . S
C85 H80 0.931 . S
C85 C86 1.348 . S
C85 C87 1.413 . S
C86 H81 0.930 1_455 S
C86 C84 1.378 . S
C86 C85 1.348 . S
C87 C83 1.415 . S
C87 C85 1.413 . S
C87 C117 1.437 . S
H88 C117 0.929 . S
N89 Gd62 2.570 . S
N89 C90 1.359 . S
N89 C93 1.343 . S
C90 C83 1.422 . S
C90 N89 1.359 . S
C90 C92 1.421 . S
C91 C92 1.422 . S
C91 C94 1.321 . S
C91 H118 0.931 . S
C92 C90 1.421 . S
C92 C91 1.422 . S
C92 C116 1.417 . S
C93 H70 0.931 . S
C93 N89 1.343 . S
C93 C94 1.390 . S
C94 H72 0.930 . S
C94 C91 1.321 . S
C94 C93 1.390 . S
O95 Gd63 2.386 . S
O95 C107 1.265 . S
O96 Gd62 2.353 1_645 S
O96 C107 1.242 . S
O97 Gd62 2.468 . S
O97 C115 1.263 . S
O98 Gd62 2.427 . S
O98 C115 1.252 . S
O99 Gd63 2.307 1_565 S
O99 C108 1.261 . S
O100 Gd62 2.388 1_655 S
O100 C108 1.252 . S
O101 Gd62 2.386 . S
O101 C119 1.265 . S
O102 Gd63 2.353 1_455 S
O102 C119 1.242 1_545 S
O103 Gd63 2.468 . S
O103 C127 1.263 . S
O104 Gd63 2.427 . S
O104 C127 1.252 . S
O105 Gd62 2.307 1_545 S
O105 C120 1.261 . S
O106 Gd63 2.388 1_455 S
O106 C120 1.252 . S
C107 O95 1.265 . S
C107 O96 1.242 . S
C108 O99 1.261 . S
C108 O100 1.252 . S
C109 C112 1.394 . S
C109 C114 1.370 . S
C109 C115 1.500 . S
C110 C113 1.383 . S
C110 C114 1.395 . S
C111 C112 1.396 . S
C111 C113 1.365 . S
C111 H128 0.929 . S
C112 C109 1.394 . S
C112 C111 1.396 . S
C112 H129 0.930 . S
C113 C110 1.383 . S
C113 C111 1.365 . S
C113 H130 0.931 . S
C114 C109 1.370 . S
C114 C110 1.395 . S
C114 H131 0.930 . S
C115 Gd62 2.805 . S
C115 O97 1.263 . S
C115 O98 1.252 . S
C115 C109 1.500 . S
C116 H78 0.930 . S
C116 C92 1.417 . S
C116 C117 1.329 . S
C117 C87 1.437 . S
C117 H88 0.929 . S
C117 C116 1.329 . S
H118 C91 0.931 . S
C119 O101 1.265 . S
C119 O102 1.242 1_565 S
C120 O105 1.261 . S
C120 O106 1.252 . S
C121 C124 1.394 . S
C121 C126 1.370 . S
C121 C127 1.500 . S
C122 C125 1.383 . S
C122 C126 1.395 . S
C123 C124 1.396 . S
C123 C125 1.365 . S
C123 H132 0.929 . S
C124 C121 1.394 . S
C124 C123 1.396 . S
C124 H133 0.930 . S
C125 C122 1.383 . S
C125 C123 1.365 . S
C125 H134 0.931 . S
C126 C121 1.370 . S
C126 C122 1.395 . S
C126 H135 0.930 . S
C127 Gd63 2.805 . S
C127 O103 1.263 . S
C127 O104 1.252 . S
C127 C121 1.500 . S
H128 C111 0.929 . S
H129 C112 0.930 . S
H130 C113 0.931 . S
H131 C114 0.930 . S
H132 C123 0.929 . S
H133 C124 0.930 . S
H134 C125 0.931 . S
H135 C126 0.930 . S
C136 C138 1.422 . S
C136 C140 1.415 . S
C136 N142 1.369 . S
C137 C138 1.421 . S
C137 C139 1.417 . S
C137 C149 1.422 . S
C138 C136 1.422 . S
C138 C137 1.421 . S
C138 N148 1.359 . S
C139 C137 1.417 . S
C139 C141 1.329 . S
C139 H158 0.930 . S
C140 C136 1.415 . S
C140 C141 1.437 . S
C140 C144 1.413 . S
C141 C139 1.329 . S
C141 C140 1.437 . S
C141 H163 0.929 . S
N142 C136 1.369 . S
N142 C143 1.338 . S
N142 Gd147 2.622 . S
C143 N142 1.338 . S
C143 C145 1.378 . S
C143 H155 0.929 . S
C144 C140 1.413 . S
C144 C145 1.348 . S
C144 H160 0.931 . S
C145 C143 1.378 . S
C145 C144 1.348 . S
C145 H161 0.930 . S
Gd146 N166 2.622 1_556 S
Gd146 N173 2.570 1_556 S
Gd146 O180 2.353 . S
Gd146 O181 2.468 . S
Gd146 O182 2.427 . S
Gd146 O184 2.388 1_556 S
Gd146 O185 2.386 1_556 S
Gd146 O189 2.307 1_556 S
Gd146 C199 2.805 . S
Gd147 N142 2.622 . S
Gd147 N148 2.570 . S
Gd147 O179 2.386 . S
Gd147 O183 2.307 . S
Gd147 O186 2.353 . S
Gd147 O187 2.468 . S
Gd147 O188 2.427 . S
Gd147 O190 2.388 . S
Gd147 C211 2.805 . S
N148 C138 1.359 . S
N148 Gd147 2.570 . S
N148 C150 1.343 . S
C149 C137 1.422 . S
C149 C151 1.321 . S
C149 H157 0.931 . S
C150 N148 1.343 . S
C150 C151 1.390 . S
C150 H152 0.931 . S
C151 C149 1.321 . S
C151 C150 1.390 . S
C151 H153 0.930 . S
H152 C150 0.931 . S
H153 C151 0.930 . S
H154 C177 0.931 . S
H155 C143 0.929 . S
H156 C178 0.930 . S
H157 C149 0.931 . S
H158 C139 0.930 . S
H159 C168 0.929 . S
H160 C144 0.931 . S
H161 C145 0.930 . S
H162 C200 0.930 . S
H163 C141 0.929 . S
H164 C169 0.931 . S
H165 C170 0.930 . S
N166 Gd146 2.622 1_554 S
N166 C167 1.369 . S
N166 C168 1.337 1_554 S
C167 N166 1.369 . S
C167 C171 1.415 . S
C167 C174 1.422 . S
C168 H159 0.929 . S
C168 N166 1.337 1_556 S
C168 C170 1.378 . S
C169 H164 0.931 . S
C169 C170 1.348 1_554 S
C169 C171 1.413 . S
C170 H165 0.930 . S
C170 C168 1.378 . S
C170 C169 1.348 1_556 S
C171 C167 1.415 . S
C171 C169 1.413 . S
C171 C201 1.437 . S
H172 C201 0.929 . S
N173 Gd146 2.570 1_554 S
N173 C174 1.359 . S
N173 C177 1.343 . S
C174 C167 1.422 . S
C174 N173 1.359 . S
C174 C176 1.421 . S
C175 C176 1.422 . S
C175 C178 1.321 . S
C175 H202 0.931 . S
C176 C174 1.421 . S
C176 C175 1.422 . S
C176 C200 1.417 . S
C177 H154 0.931 . S
C177 N173 1.343 . S
C177 C178 1.390 . S
C178 H156 0.930 . S
C178 C175 1.321 . S
C178 C177 1.390 . S
O179 Gd147 2.386 . S
O179 C191 1.265 1_554 S
O180 Gd146 2.353 . S
O180 C191 1.242 . S
O181 Gd146 2.468 . S
O181 C199 1.263 . S
O182 Gd146 2.427 . S
O182 C199 1.252 . S
O183 Gd147 2.307 . S
O183 C192 1.261 . S
O184 Gd146 2.388 1_554 S
O184 C192 1.252 . S
O185 Gd146 2.386 1_554 S
O185 C203 1.265 . S
O186 Gd147 2.353 . S
O186 C203 1.242 . S
O187 Gd147 2.468 . S
O187 C211 1.263 . S
O188 Gd147 2.427 . S
O188 C211 1.252 . S
O189 Gd146 2.307 1_554 S
O189 C204 1.261 . S
O190 Gd147 2.388 . S
O190 C204 1.252 . S
C191 O179 1.265 1_556 S
C191 O180 1.242 . S
C192 O183 1.261 . S
C192 O184 1.252 . S
C193 C196 1.394 . S
C193 C198 1.370 . S
C193 C199 1.500 . S
C194 C197 1.383 . S
C194 C198 1.395 . S
C195 C196 1.396 . S
C195 C197 1.365 . S
C195 H212 0.929 . S
C196 C193 1.394 . S
C196 C195 1.396 . S
C196 H213 0.930 . S
C197 C194 1.383 . S
C197 C195 1.365 . S
C197 H214 0.931 . S
C198 C193 1.370 . S
C198 C194 1.395 . S
C198 H215 0.930 . S
C199 Gd146 2.805 . S
C199 O181 1.263 . S
C199 O182 1.252 . S
C199 C193 1.500 . S
C200 H162 0.930 . S
C200 C176 1.417 . S
C200 C201 1.329 . S
C201 C171 1.437 . S
C201 H172 0.929 . S
C201 C200 1.329 . S
H202 C175 0.931 . S
C203 O185 1.265 . S
C203 O186 1.242 . S
C204 O189 1.261 . S
C204 O190 1.252 . S
C205 C208 1.394 . S
C205 C210 1.370 . S
C205 C211 1.500 . S
C206 C209 1.383 . S
C206 C210 1.395 . S
C207 C208 1.396 . S
C207 C209 1.365 . S
C207 H216 0.929 . S
C208 C205 1.394 . S
C208 C207 1.396 . S
C208 H217 0.930 . S
C209 C206 1.383 . S
C209 C207 1.365 . S
C209 H218 0.931 . S
C210 C205 1.370 . S
C210 C206 1.395 . S
C210 H219 0.930 . S
C211 Gd147 2.805 . S
C211 O187 1.263 . S
C211 O188 1.252 . S
C211 C205 1.500 . S
H212 C195 0.929 . S
H213 C196 0.930 . S
H214 C197 0.931 . S
H215 C198 0.930 . S
H216 C207 0.929 . S
H217 C208 0.930 . S
H218 C209 0.931 . S
H219 C210 0.930 . S
H220 C226 0.930 . S
H221 C230 0.930 . S
H222 C235 0.929 . S
H223 C233 0.929 . S
H224 C228 0.929 . S
H225 C234 0.929 . S
C226 H220 0.930 . S
C226 C227 1.367 . S
C226 C234 1.378 . S
C227 C226 1.367 . S
C227 C235 1.433 . S
C228 H224 0.929 . S
C228 C230 1.378 . S
C228 C232 1.350 . S
C229 C232 1.463 . S
C229 C234 1.350 . S
C229 N237 1.427 . S
C230 H221 0.930 . S
C230 C228 1.378 . S
C230 C231 1.367 . S
C231 C230 1.367 . S
C231 C233 1.433 . S
C232 C228 1.350 . S
C232 C229 1.463 . S
C232 N236 1.427 . S
C233 H223 0.929 . S
C233 C231 1.433 . S
C233 N236 1.384 . S
C234 H225 0.929 . S
C234 C226 1.378 . S
C234 C229 1.350 . S
C235 H222 0.929 . S
C235 C227 1.433 . S
C235 N237 1.384 . S
N236 C232 1.427 . S
N236 C233 1.384 . S
N237 C229 1.427 . S
N237 C235 1.384 . S
H238 C244 0.930 . S
H239 C248 0.930 . S
H240 C253 0.929 . S
H241 C251 0.929 . S
H242 C246 0.929 . S
H243 C252 0.929 . S
C244 H238 0.930 . S
C244 C245 1.367 . S
C244 C252 1.378 . S
C245 C244 1.367 . S
C245 C253 1.433 1_554 S
C246 H242 0.929 . S
C246 C248 1.378 . S
C246 C250 1.350 1_556 S
C247 C250 1.463 . S
C247 C252 1.350 . S
C247 N255 1.427 1_554 S
C248 H239 0.930 . S
C248 C246 1.378 . S
C248 C249 1.367 1_556 S
C249 C248 1.367 1_554 S
C249 C251 1.433 . S
C250 C246 1.350 1_554 S
C250 C247 1.463 . S
C250 N254 1.427 . S
C251 H241 0.929 . S
C251 C249 1.433 . S
C251 N254 1.384 . S
C252 H243 0.929 . S
C252 C244 1.378 . S
C252 C247 1.350 . S
C253 H240 0.929 . S
C253 C245 1.433 1_556 S
C253 N255 1.384 . S
N254 C250 1.427 . S
N254 C251 1.384 . S
N255 C247 1.427 1_556 S
N255 C253 1.384 . S
H256 C262 0.930 . S
H257 C266 0.930 . S
H258 C271 0.929 . S
H259 C269 0.929 . S
H260 C264 0.929 . S
H261 C270 0.929 . S
C262 H256 0.930 . S
C262 C263 1.367 . S
C262 C270 1.378 . S
C263 C262 1.367 . S
C263 C271 1.433 . S
C264 H260 0.929 . S
C264 C266 1.378 . S
C264 C268 1.350 . S
C265 C268 1.463 . S
C265 C270 1.350 . S
C265 N273 1.427 . S
C266 H257 0.930 . S
C266 C264 1.378 . S
C266 C267 1.367 . S
C267 C266 1.367 . S
C267 C269 1.433 . S
C268 C264 1.350 . S
C268 C265 1.463 . S
C268 N272 1.427 . S
C269 H259 0.929 . S
C269 C267 1.433 . S
C269 N272 1.384 . S
C270 H261 0.929 . S
C270 C262 1.378 . S
C270 C265 1.350 . S
C271 H258 0.929 . S
C271 C263 1.433 . S
C271 N273 1.384 . S
N272 C268 1.427 . S
N272 C269 1.384 . S
N273 C265 1.427 . S
N273 C271 1.384 . S
H274 C280 0.930 . S
H275 C284 0.930 . S
H276 C289 0.929 . S
H277 C287 0.929 . S
H278 C282 0.929 . S
H279 C288 0.929 . S
C280 H274 0.930 . S
C280 C281 1.367 . S
C280 C288 1.378 . S
C281 C280 1.367 . S
C281 C289 1.433 . S
C282 H278 0.929 . S
C282 C284 1.378 . S
C282 C286 1.350 . S
C283 C286 1.463 . S
C283 C288 1.350 . S
C283 N291 1.427 . S
C284 H275 0.930 . S
C284 C282 1.378 . S
C284 C285 1.367 . S
C285 C284 1.367 . S
C285 C287 1.433 . S
C286 C282 1.350 . S
C286 C283 1.463 . S
C286 N290 1.427 . S
C287 H277 0.929 . S
C287 C285 1.433 . S
C287 N290 1.384 . S
C288 H279 0.929 . S
C288 C280 1.378 . S
C288 C283 1.350 . S
C289 H276 0.929 . S
C289 C281 1.433 . S
C289 N291 1.384 . S
N290 C286 1.427 . S
N290 C287 1.384 . S
N291 C283 1.427 . S
N291 C289 1.384 . S
H292 C298 0.930 . S
H293 C302 0.930 . S
H294 C307 0.929 . S
H295 C305 0.929 . S
H296 C300 0.929 . S
H297 C306 0.929 . S
C298 H292 0.930 . S
C298 C299 1.367 . S
C298 C306 1.378 . S
C299 C298 1.367 . S
C299 C307 1.433 . S
C300 H296 0.929 . S
C300 C302 1.378 . S
C300 C304 1.350 . S
C301 C304 1.463 . S
C301 C306 1.350 . S
C301 N309 1.427 . S
C302 H293 0.930 . S
C302 C300 1.378 . S
C302 C303 1.367 . S
C303 C302 1.367 . S
C303 C305 1.433 . S
C304 C300 1.350 . S
C304 C301 1.463 . S
C304 N308 1.427 . S
C305 H295 0.929 . S
C305 C303 1.433 . S
C305 N308 1.384 . S
C306 H297 0.929 . S
C306 C298 1.378 . S
C306 C301 1.350 . S
C307 H294 0.929 . S
C307 C299 1.433 . S
C307 N309 1.384 . S
N308 C304 1.427 . S
N308 C305 1.384 . S
N309 C301 1.427 . S
N309 C307 1.384 . S
H310 C316 0.930 . S
H311 C320 0.930 . S
H312 C325 0.929 . S
H313 C323 0.929 . S
H314 C318 0.929 . S
H315 C324 0.929 . S
C316 H310 0.930 . S
C316 C317 1.367 . S
C316 C324 1.378 . S
C317 C316 1.367 . S
C317 C325 1.433 . S
C318 H314 0.929 . S
C318 C320 1.378 . S
C318 C322 1.350 . S
C319 C322 1.463 . S
C319 C324 1.350 . S
C319 N327 1.427 . S
C320 H311 0.930 . S
C320 C318 1.378 . S
C320 C321 1.367 . S
C321 C320 1.367 . S
C321 C323 1.433 . S
C322 C318 1.350 . S
C322 C319 1.463 . S
C322 N326 1.427 . S
C323 H313 0.929 . S
C323 C321 1.433 . S
C323 N326 1.384 . S
C324 H315 0.929 . S
C324 C316 1.378 . S
C324 C319 1.350 . S
C325 H312 0.929 . S
C325 C317 1.433 . S
C325 N327 1.384 . S
N326 C322 1.427 . S
N326 C323 1.384 . S
N327 C319 1.427 . S
N327 C325 1.384 . S
H328 C334 0.930 . S
H329 C338 0.930 . S
H330 C343 0.929 . S
H331 C341 0.929 1_565 S
H332 C336 0.929 . S
H333 C342 0.929 . S
C334 H328 0.930 . S
C334 C335 1.367 . S
C334 C342 1.378 . S
C335 C334 1.367 . S
C335 C343 1.433 . S
C336 H332 0.929 . S
C336 C338 1.378 . S
C336 C340 1.350 . S
C337 C340 1.463 . S
C337 C342 1.350 . S
C337 N345 1.427 . S
C338 H329 0.930 . S
C338 C336 1.378 . S
C338 C339 1.367 . S
C339 C338 1.367 . S
C339 C341 1.433 . S
C340 C336 1.350 . S
C340 C337 1.463 . S
C340 N344 1.427 . S
C341 H331 0.929 1_545 S
C341 C339 1.433 . S
C341 N344 1.384 . S
C342 H333 0.929 . S
C342 C334 1.378 . S
C342 C337 1.350 . S
C343 H330 0.929 . S
C343 C335 1.433 . S
C343 N345 1.384 . S
N344 C340 1.427 . S
N344 C341 1.384 . S
N345 C337 1.427 . S
N345 C343 1.384 . S
H346 C352 0.930 . S
H347 C356 0.930 . S
H348 C361 0.929 . S
H349 C359 0.929 . S
H350 C354 0.929 . S
H351 C360 0.929 . S
C352 H346 0.930 . S
C352 C353 1.367 . S
C352 C360 1.378 . S
C353 C352 1.367 . S
C353 C361 1.433 . S
C354 H350 0.929 . S
C354 C356 1.378 . S
C354 C358 1.350 . S
C355 C358 1.463 . S
C355 C360 1.350 . S
C355 N363 1.427 . S
C356 H347 0.930 . S
C356 C354 1.378 . S
C356 C357 1.367 . S
C357 C356 1.367 . S
C357 C359 1.433 . S
C358 C354 1.350 . S
C358 C355 1.463 . S
C358 N362 1.427 . S
C359 H349 0.929 . S
C359 C357 1.433 . S
C359 N362 1.384 . S
C360 H351 0.929 . S
C360 C352 1.378 . S
C360 C355 1.350 . S
C361 H348 0.929 . S
C361 C353 1.433 . S
C361 N363 1.384 . S
N362 C358 1.427 . S
N362 C359 1.384 . S
N363 C355 1.427 . S
N363 C361 1.384 . S
H364 C370 0.930 . S
H365 C374 0.930 . S
H366 C379 0.929 . S
H367 C377 0.929 . S
H368 C372 0.929 . S
H369 C378 0.929 . S
C370 H364 0.930 . S
C370 C371 1.367 . S
C370 C378 1.378 . S
C371 C370 1.367 . S
C371 C379 1.433 . S
C372 H368 0.929 . S
C372 C374 1.378 . S
C372 C376 1.350 . S
C373 C376 1.463 . S
C373 C378 1.350 . S
C373 N381 1.427 . S
C374 H365 0.930 . S
C374 C372 1.378 . S
C374 C375 1.367 . S
C375 C374 1.367 . S
C375 C377 1.433 . S
C376 C372 1.350 . S
C376 C373 1.463 . S
C376 N380 1.427 . S
C377 H367 0.929 . S
C377 C375 1.433 . S
C377 N380 1.384 . S
C378 H369 0.929 . S
C378 C370 1.378 . S
C378 C373 1.350 . S
C379 H366 0.929 . S
C379 C371 1.433 . S
C379 N381 1.384 . S
N380 C376 1.427 . S
N380 C377 1.384 . S
N381 C373 1.427 . S
N381 C379 1.384 . S
H382 C388 0.930 . S
H383 C392 0.930 . S
H384 C397 0.929 . S
H385 C395 0.929 . S
H386 C390 0.929 . S
H387 C396 0.929 . S
C388 H382 0.930 . S
C388 C389 1.367 1_556 S
C388 C396 1.378 . S
C389 C388 1.367 1_554 S
C389 C397 1.433 . S
C390 H386 0.929 . S
C390 C392 1.378 . S
C390 C394 1.350 . S
C391 C394 1.463 . S
C391 C396 1.350 . S
C391 N399 1.427 . S
C392 H383 0.930 . S
C392 C390 1.378 . S
C392 C393 1.367 . S
C393 C392 1.367 . S
C393 C395 1.433 . S
C394 C390 1.350 . S
C394 C391 1.463 . S
C394 N398 1.427 . S
C395 H385 0.929 . S
C395 C393 1.433 . S
C395 N398 1.384 . S
C396 H387 0.929 . S
C396 C388 1.378 . S
C396 C391 1.350 . S
C397 H384 0.929 . S
C397 C389 1.433 . S
C397 N399 1.384 1_554 S
N398 C394 1.427 . S
N398 C395 1.384 . S
N399 C391 1.427 . S
N399 C397 1.384 1_556 S
H400 C406 0.930 . S
H401 C410 0.930 . S
H402 C415 0.929 . S
H403 C413 0.929 . S
H404 C408 0.929 . S
H405 C414 0.929 . S
C406 H400 0.930 . S
C406 C407 1.367 . S
C406 C414 1.378 . S
C407 C406 1.367 . S
C407 C415 1.433 . S
C408 H404 0.929 . S
C408 C410 1.378 . S
C408 C412 1.350 . S
C409 C412 1.463 . S
C409 C414 1.350 . S
C409 N417 1.427 . S
C410 H401 0.930 . S
C410 C408 1.378 . S
C410 C411 1.367 . S
C411 C410 1.367 . S
C411 C413 1.433 . S
C412 C408 1.350 . S
C412 C409 1.463 . S
C412 N416 1.427 . S
C413 H403 0.929 . S
C413 C411 1.433 . S
C413 N416 1.384 . S
C414 H405 0.929 . S
C414 C406 1.378 . S
C414 C409 1.350 . S
C415 H402 0.929 . S
C415 C407 1.433 . S
C415 N417 1.384 . S
N416 C412 1.427 . S
N416 C413 1.384 . S
N417 C409 1.427 . S
N417 C415 1.384 . S
H418 C424 0.930 . S
H419 C428 0.930 . S
H420 C433 0.929 . S
H421 C431 0.929 1_545 S
H422 C426 0.929 . S
H423 C432 0.929 . S
C424 H418 0.930 . S
C424 C425 1.367 . S
C424 C432 1.378 . S
C425 C424 1.367 . S
C425 C433 1.433 . S
C426 H422 0.929 . S
C426 C428 1.378 . S
C426 C430 1.350 . S
C427 C430 1.463 . S
C427 C432 1.350 . S
C427 N435 1.427 . S
C428 H419 0.930 . S
C428 C426 1.378 . S
C428 C429 1.367 . S
C429 C428 1.367 . S
C429 C431 1.433 . S
C430 C426 1.350 . S
C430 C427 1.463 . S
C430 N434 1.427 . S
C431 H421 0.929 1_565 S
C431 C429 1.433 . S
C431 N434 1.384 . S
C432 H423 0.929 . S
C432 C424 1.378 . S
C432 C427 1.350 . S
C433 H420 0.929 . S
C433 C425 1.433 . S
C433 N435 1.384 . S
N434 C430 1.427 . S
N434 C431 1.384 . S
N435 C427 1.427 . S
N435 C433 1.384 . S
C231 C120 1.657 . S
C227 N41 1.695 . S
C245 N2 1.642 . S
C249 C192 1.621 . S
C263 N15 1.690 . S
C267 C108 1.658 . S
C281 N28 1.636 . S
C285 C204 1.625 . S
C303 C110 1.404 . S
C299 N5 1.598 . S
C321 C191 1.672 . S
C317 N14 1.659 . S
C335 N27 1.582 . S
C339 C107 1.611 . S
C353 N44 1.577 . S
C357 C194 1.425 . S
C375 C206 1.420 . S
C371 N18 1.571 . S
C393 C122 1.407 . S
C389 N31 1.593 . S
C411 C203 1.672 . S
C407 N40 1.672 . S
C425 N1 1.596 . S
C429 C119 1.611 . S
