# Generated by pormake.
# Topology bpr, (3,3)-cn, num edge types: 1
# Building blocks:
#     Node 0, Type 0, BuildingBlock: WUSLED_clean_sbu_0, # of connection points: 3
#     Node 1, Type 0, BuildingBlock: WUSLED_clean_sbu_0, # of connection points: 3
#     Node 2, Type 0, BuildingBlock: WUSLED_clean_sbu_0, # of connection points: 3
#     Node 3, Type 0, BuildingBlock: WUSLED_clean_sbu_0, # of connection points: 3
#     Node 4, Type 0, BuildingBlock: WUSLED_clean_sbu_0, # of connection points: 3
#     Node 5, Type 0, BuildingBlock: WUSLED_clean_sbu_0, # of connection points: 3
#     Node 6, Type 0, BuildingBlock: WUSLED_clean_sbu_0, # of connection points: 3
#     Node 7, Type 0, BuildingBlock: WUSLED_clean_sbu_0, # of connection points: 3
#     Node 8, Type 0, BuildingBlock: WUSLED_clean_sbu_0, # of connection points: 3
#     Node 9, Type 0, BuildingBlock: WUSLED_clean_sbu_0, # of connection points: 3
#     Node 10, Type 0, BuildingBlock: WUSLED_clean_sbu_0, # of connection points: 3
#     Node 11, Type 0, BuildingBlock: WUSLED_clean_sbu_0, # of connection points: 3
#     Node 12, Type 0, BuildingBlock: WUSLED_clean_sbu_0, # of connection points: 3
#     Node 13, Type 0, BuildingBlock: WUSLED_clean_sbu_0, # of connection points: 3
#     Node 14, Type 0, BuildingBlock: WUSLED_clean_sbu_0, # of connection points: 3
#     Node 15, Type 0, BuildingBlock: WUSLED_clean_sbu_0, # of connection points: 3
#     Node 16, Type 0, BuildingBlock: WUSLED_clean_sbu_0, # of connection points: 3
#     Node 17, Type 0, BuildingBlock: WUSLED_clean_sbu_0, # of connection points: 3
#     Node 18, Type 0, BuildingBlock: WUSLED_clean_sbu_0, # of connection points: 3
#     Node 19, Type 0, BuildingBlock: WUSLED_clean_sbu_0, # of connection points: 3
#     Node 20, Type 0, BuildingBlock: WUSLED_clean_sbu_0, # of connection points: 3
#     Node 21, Type 0, BuildingBlock: WUSLED_clean_sbu_0, # of connection points: 3
#     Node 22, Type 0, BuildingBlock: WUSLED_clean_sbu_0, # of connection points: 3
#     Node 23, Type 0, BuildingBlock: WUSLED_clean_sbu_0, # of connection points: 3
#     Node 24, Type 0, BuildingBlock: WUSLED_clean_sbu_0, # of connection points: 3
#     Node 25, Type 0, BuildingBlock: WUSLED_clean_sbu_0, # of connection points: 3
#     Node 26, Type 0, BuildingBlock: WUSLED_clean_sbu_0, # of connection points: 3
#     Node 27, Type 0, BuildingBlock: WUSLED_clean_sbu_0, # of connection points: 3
#     Node 28, Type 0, BuildingBlock: WUSLED_clean_sbu_0, # of connection points: 3
#     Node 29, Type 0, BuildingBlock: WUSLED_clean_sbu_0, # of connection points: 3
#     Node 30, Type 0, BuildingBlock: WUSLED_clean_sbu_0, # of connection points: 3
#     Node 31, Type 0, BuildingBlock: WUSLED_clean_sbu_0, # of connection points: 3
#     Node 32, Type 0, BuildingBlock: WUSLED_clean_sbu_0, # of connection points: 3
#     Node 33, Type 0, BuildingBlock: WUSLED_clean_sbu_0, # of connection points: 3
#     Node 34, Type 0, BuildingBlock: WUSLED_clean_sbu_0, # of connection points: 3
#     Node 35, Type 0, BuildingBlock: WUSLED_clean_sbu_0, # of connection points: 3
#     Node 36, Type 0, BuildingBlock: WUSLED_clean_sbu_0, # of connection points: 3
#     Node 37, Type 0, BuildingBlock: WUSLED_clean_sbu_0, # of connection points: 3
#     Node 38, Type 0, BuildingBlock: WUSLED_clean_sbu_0, # of connection points: 3
#     Node 39, Type 0, BuildingBlock: WUSLED_clean_sbu_0, # of connection points: 3
#     Node 40, Type 0, BuildingBlock: WUSLED_clean_sbu_0, # of connection points: 3
#     Node 41, Type 0, BuildingBlock: WUSLED_clean_sbu_0, # of connection points: 3
#     Node 42, Type 0, BuildingBlock: WUSLED_clean_sbu_0, # of connection points: 3
#     Node 43, Type 0, BuildingBlock: WUSLED_clean_sbu_0, # of connection points: 3
#     Node 44, Type 0, BuildingBlock: WUSLED_clean_sbu_0, # of connection points: 3
#     Node 45, Type 0, BuildingBlock: WUSLED_clean_sbu_0, # of connection points: 3
#     Node 46, Type 0, BuildingBlock: WUSLED_clean_sbu_0, # of connection points: 3
#     Node 47, Type 0, BuildingBlock: WUSLED_clean_sbu_0, # of connection points: 3
#     Node 48, Type 1, BuildingBlock: BELTOD_clean_linker_0, # of connection points: 3
#     Node 49, Type 1, BuildingBlock: BELTOD_clean_linker_0, # of connection points: 3
#     Node 50, Type 1, BuildingBlock: BELTOD_clean_linker_0, # of connection points: 3
#     Node 51, Type 1, BuildingBlock: BELTOD_clean_linker_0, # of connection points: 3
#     Node 52, Type 1, BuildingBlock: BELTOD_clean_linker_0, # of connection points: 3
#     Node 53, Type 1, BuildingBlock: BELTOD_clean_linker_0, # of connection points: 3
#     Node 54, Type 1, BuildingBlock: BELTOD_clean_linker_0, # of connection points: 3
#     Node 55, Type 1, BuildingBlock: BELTOD_clean_linker_0, # of connection points: 3
#     Node 56, Type 1, BuildingBlock: BELTOD_clean_linker_0, # of connection points: 3
#     Node 57, Type 1, BuildingBlock: BELTOD_clean_linker_0, # of connection points: 3
#     Node 58, Type 1, BuildingBlock: BELTOD_clean_linker_0, # of connection points: 3
#     Node 59, Type 1, BuildingBlock: BELTOD_clean_linker_0, # of connection points: 3
#     Node 60, Type 1, BuildingBlock: BELTOD_clean_linker_0, # of connection points: 3
#     Node 61, Type 1, BuildingBlock: BELTOD_clean_linker_0, # of connection points: 3
#     Node 62, Type 1, BuildingBlock: BELTOD_clean_linker_0, # of connection points: 3
#     Node 63, Type 1, BuildingBlock: BELTOD_clean_linker_0, # of connection points: 3
#     Node 64, Type 1, BuildingBlock: BELTOD_clean_linker_0, # of connection points: 3
#     Node 65, Type 1, BuildingBlock: BELTOD_clean_linker_0, # of connection points: 3
#     Node 66, Type 1, BuildingBlock: BELTOD_clean_linker_0, # of connection points: 3
#     Node 67, Type 1, BuildingBlock: BELTOD_clean_linker_0, # of connection points: 3
#     Node 68, Type 1, BuildingBlock: BELTOD_clean_linker_0, # of connection points: 3
#     Node 69, Type 1, BuildingBlock: BELTOD_clean_linker_0, # of connection points: 3
#     Node 70, Type 1, BuildingBlock: BELTOD_clean_linker_0, # of connection points: 3
#     Node 71, Type 1, BuildingBlock: BELTOD_clean_linker_0, # of connection points: 3
#     Node 72, Type 1, BuildingBlock: BELTOD_clean_linker_0, # of connection points: 3
#     Node 73, Type 1, BuildingBlock: BELTOD_clean_linker_0, # of connection points: 3
#     Node 74, Type 1, BuildingBlock: BELTOD_clean_linker_0, # of connection points: 3
#     Node 75, Type 1, BuildingBlock: BELTOD_clean_linker_0, # of connection points: 3
#     Node 76, Type 1, BuildingBlock: BELTOD_clean_linker_0, # of connection points: 3
#     Node 77, Type 1, BuildingBlock: BELTOD_clean_linker_0, # of connection points: 3
#     Node 78, Type 1, BuildingBlock: BELTOD_clean_linker_0, # of connection points: 3
#     Node 79, Type 1, BuildingBlock: BELTOD_clean_linker_0, # of connection points: 3
#     Node 80, Type 1, BuildingBlock: BELTOD_clean_linker_0, # of connection points: 3
#     Node 81, Type 1, BuildingBlock: BELTOD_clean_linker_0, # of connection points: 3
#     Node 82, Type 1, BuildingBlock: BELTOD_clean_linker_0, # of connection points: 3
#     Node 83, Type 1, BuildingBlock: BELTOD_clean_linker_0, # of connection points: 3
#     Node 84, Type 1, BuildingBlock: BELTOD_clean_linker_0, # of connection points: 3
#     Node 85, Type 1, BuildingBlock: BELTOD_clean_linker_0, # of connection points: 3
#     Node 86, Type 1, BuildingBlock: BELTOD_clean_linker_0, # of connection points: 3
#     Node 87, Type 1, BuildingBlock: BELTOD_clean_linker_0, # of connection points: 3
#     Node 88, Type 1, BuildingBlock: BELTOD_clean_linker_0, # of connection points: 3
#     Node 89, Type 1, BuildingBlock: BELTOD_clean_linker_0, # of connection points: 3
#     Node 90, Type 1, BuildingBlock: BELTOD_clean_linker_0, # of connection points: 3
#     Node 91, Type 1, BuildingBlock: BELTOD_clean_linker_0, # of connection points: 3
#     Node 92, Type 1, BuildingBlock: BELTOD_clean_linker_0, # of connection points: 3
#     Node 93, Type 1, BuildingBlock: BELTOD_clean_linker_0, # of connection points: 3
#     Node 94, Type 1, BuildingBlock: BELTOD_clean_linker_0, # of connection points: 3
#     Node 95, Type 1, BuildingBlock: BELTOD_clean_linker_0, # of connection points: 3
#     Edge 96, Type (0, 1), BuildingBlock: CIFDUS_clean_linker_0, # of connection points: 2
#     Edge 97, Type (0, 1), BuildingBlock: CIFDUS_clean_linker_0, # of connection points: 2
#     Edge 98, Type (0, 1), BuildingBlock: CIFDUS_clean_linker_0, # of connection points: 2
#     Edge 99, Type (0, 1), BuildingBlock: CIFDUS_clean_linker_0, # of connection points: 2
#     Edge 100, Type (0, 1), BuildingBlock: CIFDUS_clean_linker_0, # of connection points: 2
#     Edge 101, Type (0, 1), BuildingBlock: CIFDUS_clean_linker_0, # of connection points: 2
#     Edge 102, Type (0, 1), BuildingBlock: CIFDUS_clean_linker_0, # of connection points: 2
#     Edge 103, Type (0, 1), BuildingBlock: CIFDUS_clean_linker_0, # of connection points: 2
#     Edge 104, Type (0, 1), BuildingBlock: CIFDUS_clean_linker_0, # of connection points: 2
#     Edge 105, Type (0, 1), BuildingBlock: CIFDUS_clean_linker_0, # of connection points: 2
#     Edge 106, Type (0, 1), BuildingBlock: CIFDUS_clean_linker_0, # of connection points: 2
#     Edge 107, Type (0, 1), BuildingBlock: CIFDUS_clean_linker_0, # of connection points: 2
#     Edge 108, Type (0, 1), BuildingBlock: CIFDUS_clean_linker_0, # of connection points: 2
#     Edge 109, Type (0, 1), BuildingBlock: CIFDUS_clean_linker_0, # of connection points: 2
#     Edge 110, Type (0, 1), BuildingBlock: CIFDUS_clean_linker_0, # of connection points: 2
#     Edge 111, Type (0, 1), BuildingBlock: CIFDUS_clean_linker_0, # of connection points: 2
#     Edge 112, Type (0, 1), BuildingBlock: CIFDUS_clean_linker_0, # of connection points: 2
#     Edge 113, Type (0, 1), BuildingBlock: CIFDUS_clean_linker_0, # of connection points: 2
#     Edge 114, Type (0, 1), BuildingBlock: CIFDUS_clean_linker_0, # of connection points: 2
#     Edge 115, Type (0, 1), BuildingBlock: CIFDUS_clean_linker_0, # of connection points: 2
#     Edge 116, Type (0, 1), BuildingBlock: CIFDUS_clean_linker_0, # of connection points: 2
#     Edge 117, Type (0, 1), BuildingBlock: CIFDUS_clean_linker_0, # of connection points: 2
#     Edge 118, Type (0, 1), BuildingBlock: CIFDUS_clean_linker_0, # of connection points: 2
#     Edge 119, Type (0, 1), BuildingBlock: CIFDUS_clean_linker_0, # of connection points: 2
#     Edge 120, Type (0, 1), BuildingBlock: CIFDUS_clean_linker_0, # of connection points: 2
#     Edge 121, Type (0, 1), BuildingBlock: CIFDUS_clean_linker_0, # of connection points: 2
#     Edge 122, Type (0, 1), BuildingBlock: CIFDUS_clean_linker_0, # of connection points: 2
#     Edge 123, Type (0, 1), BuildingBlock: CIFDUS_clean_linker_0, # of connection points: 2
#     Edge 124, Type (0, 1), BuildingBlock: CIFDUS_clean_linker_0, # of connection points: 2
#     Edge 125, Type (0, 1), BuildingBlock: CIFDUS_clean_linker_0, # of connection points: 2
#     Edge 126, Type (0, 1), BuildingBlock: CIFDUS_clean_linker_0, # of connection points: 2
#     Edge 127, Type (0, 1), BuildingBlock: CIFDUS_clean_linker_0, # of connection points: 2
#     Edge 128, Type (0, 1), BuildingBlock: CIFDUS_clean_linker_0, # of connection points: 2
#     Edge 129, Type (0, 1), BuildingBlock: CIFDUS_clean_linker_0, # of connection points: 2
#     Edge 130, Type (0, 1), BuildingBlock: CIFDUS_clean_linker_0, # of connection points: 2
#     Edge 131, Type (0, 1), BuildingBlock: CIFDUS_clean_linker_0, # of connection points: 2
#     Edge 132, Type (0, 1), BuildingBlock: CIFDUS_clean_linker_0, # of connection points: 2
#     Edge 133, Type (0, 1), BuildingBlock: CIFDUS_clean_linker_0, # of connection points: 2
#     Edge 134, Type (0, 1), BuildingBlock: CIFDUS_clean_linker_0, # of connection points: 2
#     Edge 135, Type (0, 1), BuildingBlock: CIFDUS_clean_linker_0, # of connection points: 2
#     Edge 136, Type (0, 1), BuildingBlock: CIFDUS_clean_linker_0, # of connection points: 2
#     Edge 137, Type (0, 1), BuildingBlock: CIFDUS_clean_linker_0, # of connection points: 2
#     Edge 138, Type (0, 1), BuildingBlock: CIFDUS_clean_linker_0, # of connection points: 2
#     Edge 139, Type (0, 1), BuildingBlock: CIFDUS_clean_linker_0, # of connection points: 2
#     Edge 140, Type (0, 1), BuildingBlock: CIFDUS_clean_linker_0, # of connection points: 2
#     Edge 141, Type (0, 1), BuildingBlock: CIFDUS_clean_linker_0, # of connection points: 2
#     Edge 142, Type (0, 1), BuildingBlock: CIFDUS_clean_linker_0, # of connection points: 2
#     Edge 143, Type (0, 1), BuildingBlock: CIFDUS_clean_linker_0, # of connection points: 2
#     Edge 144, Type (0, 1), BuildingBlock: CIFDUS_clean_linker_0, # of connection points: 2
#     Edge 145, Type (0, 1), BuildingBlock: CIFDUS_clean_linker_0, # of connection points: 2
#     Edge 146, Type (0, 1), BuildingBlock: CIFDUS_clean_linker_0, # of connection points: 2
#     Edge 147, Type (0, 1), BuildingBlock: CIFDUS_clean_linker_0, # of connection points: 2
#     Edge 148, Type (0, 1), BuildingBlock: CIFDUS_clean_linker_0, # of connection points: 2
#     Edge 149, Type (0, 1), BuildingBlock: CIFDUS_clean_linker_0, # of connection points: 2
#     Edge 150, Type (0, 1), BuildingBlock: CIFDUS_clean_linker_0, # of connection points: 2
#     Edge 151, Type (0, 1), BuildingBlock: CIFDUS_clean_linker_0, # of connection points: 2
#     Edge 152, Type (0, 1), BuildingBlock: CIFDUS_clean_linker_0, # of connection points: 2
#     Edge 153, Type (0, 1), BuildingBlock: CIFDUS_clean_linker_0, # of connection points: 2
#     Edge 154, Type (0, 1), BuildingBlock: CIFDUS_clean_linker_0, # of connection points: 2
#     Edge 155, Type (0, 1), BuildingBlock: CIFDUS_clean_linker_0, # of connection points: 2
#     Edge 156, Type (0, 1), BuildingBlock: CIFDUS_clean_linker_0, # of connection points: 2
#     Edge 157, Type (0, 1), BuildingBlock: CIFDUS_clean_linker_0, # of connection points: 2
#     Edge 158, Type (0, 1), BuildingBlock: CIFDUS_clean_linker_0, # of connection points: 2
#     Edge 159, Type (0, 1), BuildingBlock: CIFDUS_clean_linker_0, # of connection points: 2
#     Edge 160, Type (0, 1), BuildingBlock: CIFDUS_clean_linker_0, # of connection points: 2
#     Edge 161, Type (0, 1), BuildingBlock: CIFDUS_clean_linker_0, # of connection points: 2
#     Edge 162, Type (0, 1), BuildingBlock: CIFDUS_clean_linker_0, # of connection points: 2
#     Edge 163, Type (0, 1), BuildingBlock: CIFDUS_clean_linker_0, # of connection points: 2
#     Edge 164, Type (0, 1), BuildingBlock: CIFDUS_clean_linker_0, # of connection points: 2
#     Edge 165, Type (0, 1), BuildingBlock: CIFDUS_clean_linker_0, # of connection points: 2
#     Edge 166, Type (0, 1), BuildingBlock: CIFDUS_clean_linker_0, # of connection points: 2
#     Edge 167, Type (0, 1), BuildingBlock: CIFDUS_clean_linker_0, # of connection points: 2
#     Edge 168, Type (0, 1), BuildingBlock: CIFDUS_clean_linker_0, # of connection points: 2
#     Edge 169, Type (0, 1), BuildingBlock: CIFDUS_clean_linker_0, # of connection points: 2
#     Edge 170, Type (0, 1), BuildingBlock: CIFDUS_clean_linker_0, # of connection points: 2
#     Edge 171, Type (0, 1), BuildingBlock: CIFDUS_clean_linker_0, # of connection points: 2
#     Edge 172, Type (0, 1), BuildingBlock: CIFDUS_clean_linker_0, # of connection points: 2
#     Edge 173, Type (0, 1), BuildingBlock: CIFDUS_clean_linker_0, # of connection points: 2
#     Edge 174, Type (0, 1), BuildingBlock: CIFDUS_clean_linker_0, # of connection points: 2
#     Edge 175, Type (0, 1), BuildingBlock: CIFDUS_clean_linker_0, # of connection points: 2
#     Edge 176, Type (0, 1), BuildingBlock: CIFDUS_clean_linker_0, # of connection points: 2
#     Edge 177, Type (0, 1), BuildingBlock: CIFDUS_clean_linker_0, # of connection points: 2
#     Edge 178, Type (0, 1), BuildingBlock: CIFDUS_clean_linker_0, # of connection points: 2
#     Edge 179, Type (0, 1), BuildingBlock: CIFDUS_clean_linker_0, # of connection points: 2
#     Edge 180, Type (0, 1), BuildingBlock: CIFDUS_clean_linker_0, # of connection points: 2
#     Edge 181, Type (0, 1), BuildingBlock: CIFDUS_clean_linker_0, # of connection points: 2
#     Edge 182, Type (0, 1), BuildingBlock: CIFDUS_clean_linker_0, # of connection points: 2
#     Edge 183, Type (0, 1), BuildingBlock: CIFDUS_clean_linker_0, # of connection points: 2
#     Edge 184, Type (0, 1), BuildingBlock: CIFDUS_clean_linker_0, # of connection points: 2
#     Edge 185, Type (0, 1), BuildingBlock: CIFDUS_clean_linker_0, # of connection points: 2
#     Edge 186, Type (0, 1), BuildingBlock: CIFDUS_clean_linker_0, # of connection points: 2
#     Edge 187, Type (0, 1), BuildingBlock: CIFDUS_clean_linker_0, # of connection points: 2
#     Edge 188, Type (0, 1), BuildingBlock: CIFDUS_clean_linker_0, # of connection points: 2
#     Edge 189, Type (0, 1), BuildingBlock: CIFDUS_clean_linker_0, # of connection points: 2
#     Edge 190, Type (0, 1), BuildingBlock: CIFDUS_clean_linker_0, # of connection points: 2
#     Edge 191, Type (0, 1), BuildingBlock: CIFDUS_clean_linker_0, # of connection points: 2
#     Edge 192, Type (0, 1), BuildingBlock: CIFDUS_clean_linker_0, # of connection points: 2
#     Edge 193, Type (0, 1), BuildingBlock: CIFDUS_clean_linker_0, # of connection points: 2
#     Edge 194, Type (0, 1), BuildingBlock: CIFDUS_clean_linker_0, # of connection points: 2
#     Edge 195, Type (0, 1), BuildingBlock: CIFDUS_clean_linker_0, # of connection points: 2
#     Edge 196, Type (0, 1), BuildingBlock: CIFDUS_clean_linker_0, # of connection points: 2
#     Edge 197, Type (0, 1), BuildingBlock: CIFDUS_clean_linker_0, # of connection points: 2
#     Edge 198, Type (0, 1), BuildingBlock: CIFDUS_clean_linker_0, # of connection points: 2
#     Edge 199, Type (0, 1), BuildingBlock: CIFDUS_clean_linker_0, # of connection points: 2
#     Edge 200, Type (0, 1), BuildingBlock: CIFDUS_clean_linker_0, # of connection points: 2
#     Edge 201, Type (0, 1), BuildingBlock: CIFDUS_clean_linker_0, # of connection points: 2
#     Edge 202, Type (0, 1), BuildingBlock: CIFDUS_clean_linker_0, # of connection points: 2
#     Edge 203, Type (0, 1), BuildingBlock: CIFDUS_clean_linker_0, # of connection points: 2
#     Edge 204, Type (0, 1), BuildingBlock: CIFDUS_clean_linker_0, # of connection points: 2
#     Edge 205, Type (0, 1), BuildingBlock: CIFDUS_clean_linker_0, # of connection points: 2
#     Edge 206, Type (0, 1), BuildingBlock: CIFDUS_clean_linker_0, # of connection points: 2
#     Edge 207, Type (0, 1), BuildingBlock: CIFDUS_clean_linker_0, # of connection points: 2
#     Edge 208, Type (0, 1), BuildingBlock: CIFDUS_clean_linker_0, # of connection points: 2
#     Edge 209, Type (0, 1), BuildingBlock: CIFDUS_clean_linker_0, # of connection points: 2
#     Edge 210, Type (0, 1), BuildingBlock: CIFDUS_clean_linker_0, # of connection points: 2
#     Edge 211, Type (0, 1), BuildingBlock: CIFDUS_clean_linker_0, # of connection points: 2
#     Edge 212, Type (0, 1), BuildingBlock: CIFDUS_clean_linker_0, # of connection points: 2
#     Edge 213, Type (0, 1), BuildingBlock: CIFDUS_clean_linker_0, # of connection points: 2
#     Edge 214, Type (0, 1), BuildingBlock: CIFDUS_clean_linker_0, # of connection points: 2
#     Edge 215, Type (0, 1), BuildingBlock: CIFDUS_clean_linker_0, # of connection points: 2
#     Edge 216, Type (0, 1), BuildingBlock: CIFDUS_clean_linker_0, # of connection points: 2
#     Edge 217, Type (0, 1), BuildingBlock: CIFDUS_clean_linker_0, # of connection points: 2
#     Edge 218, Type (0, 1), BuildingBlock: CIFDUS_clean_linker_0, # of connection points: 2
#     Edge 219, Type (0, 1), BuildingBlock: CIFDUS_clean_linker_0, # of connection points: 2
#     Edge 220, Type (0, 1), BuildingBlock: CIFDUS_clean_linker_0, # of connection points: 2
#     Edge 221, Type (0, 1), BuildingBlock: CIFDUS_clean_linker_0, # of connection points: 2
#     Edge 222, Type (0, 1), BuildingBlock: CIFDUS_clean_linker_0, # of connection points: 2
#     Edge 223, Type (0, 1), BuildingBlock: CIFDUS_clean_linker_0, # of connection points: 2
#     Edge 224, Type (0, 1), BuildingBlock: CIFDUS_clean_linker_0, # of connection points: 2
#     Edge 225, Type (0, 1), BuildingBlock: CIFDUS_clean_linker_0, # of connection points: 2
#     Edge 226, Type (0, 1), BuildingBlock: CIFDUS_clean_linker_0, # of connection points: 2
#     Edge 227, Type (0, 1), BuildingBlock: CIFDUS_clean_linker_0, # of connection points: 2
#     Edge 228, Type (0, 1), BuildingBlock: CIFDUS_clean_linker_0, # of connection points: 2
#     Edge 229, Type (0, 1), BuildingBlock: CIFDUS_clean_linker_0, # of connection points: 2
#     Edge 230, Type (0, 1), BuildingBlock: CIFDUS_clean_linker_0, # of connection points: 2
#     Edge 231, Type (0, 1), BuildingBlock: CIFDUS_clean_linker_0, # of connection points: 2
#     Edge 232, Type (0, 1), BuildingBlock: CIFDUS_clean_linker_0, # of connection points: 2
#     Edge 233, Type (0, 1), BuildingBlock: CIFDUS_clean_linker_0, # of connection points: 2
#     Edge 234, Type (0, 1), BuildingBlock: CIFDUS_clean_linker_0, # of connection points: 2
#     Edge 235, Type (0, 1), BuildingBlock: CIFDUS_clean_linker_0, # of connection points: 2
#     Edge 236, Type (0, 1), BuildingBlock: CIFDUS_clean_linker_0, # of connection points: 2
#     Edge 237, Type (0, 1), BuildingBlock: CIFDUS_clean_linker_0, # of connection points: 2
#     Edge 238, Type (0, 1), BuildingBlock: CIFDUS_clean_linker_0, # of connection points: 2
#     Edge 239, Type (0, 1), BuildingBlock: CIFDUS_clean_linker_0, # of connection points: 2
# Relax obj value: 0.083
# Max RMSD: 0.079
# Mean RMSD: 0.068
data_MOF--net-bpr--node1-WUSLED_clean_sbu_0--node2-BELTOD_clean_linker_0--edge1-CIFDUS_clean_linker_0
_symmetry_space_group_name_H-M    P1
_symmetry_Int_Tables_number       1
_symmetry_cell_setting            triclinic
loop_
_symmetry_equiv_pos_as_xyz
'x, y, z'
_cell_length_a     106.03098
_cell_length_b     106.61013
_cell_length_c     106.6092
_cell_angle_alpha  90.332571
_cell_angle_beta   90.328127
_cell_angle_gamma 90.335959
loop_
_atom_site_label
_atom_site_type_symbol
_atom_site_fract_x
_atom_site_fract_y
_atom_site_fract_z
_atom_type_partial_charge
C0 C 0.99412 0.3783 0.27405 0.0
C1 C 0.99585 0.37564 0.28683 0.0
C2 C 0.97634 0.38662 0.29198 0.0
C3 C 0.98704 0.37976 0.29572 0.0
C4 C 0.97467 0.38914 0.27912 0.0
C5 C 0.98345 0.38502 0.27029 0.0
U6 U 0.02698 0.36673 0.26453 0.0
O7 O 0.03287 0.3546 0.24881 0.0
O8 O 0.03977 0.37404 0.2501 0.0
C9 C 0.0396 0.36354 0.2436 0.0
C10 C 1.00354 0.37469 0.26454 0.0
C11 C 0.03883 0.36479 0.22984 0.0
C12 C 0.02755 0.36874 0.21026 0.0
C13 C 0.02756 0.3675 0.22341 0.0
C14 C 0.04999 0.36463 0.21003 0.0
C15 C 0.03879 0.3672 0.20342 0.0
C16 C 0.04998 0.36342 0.22304 0.0
C17 C 0.05036 0.35971 0.29211 0.0
C18 C 0.07211 0.35236 0.29154 0.0
C19 C 0.06281 0.35874 0.31124 0.0
C20 C 0.05155 0.3615 0.30507 0.0
C21 C 0.07322 0.35403 0.30464 0.0
C22 C 0.06072 0.35516 0.28531 0.0
C23 C 0.03821 0.36303 0.28624 0.0
O24 O 0.01336 0.3822 0.26373 0.0
O25 O 1.00655 0.36275 0.26397 0.0
O26 O 0.03207 0.35415 0.2801 0.0
O27 O 0.03772 0.374 0.28074 0.0
H28 H 1.00406 0.37049 0.28995 0.0
H29 H 0.98858 0.37754 0.30551 0.0
H30 H 0.96669 0.39456 0.27589 0.0
H31 H 0.982 0.38727 0.26048 0.0
H32 H 0.01878 0.37073 0.20543 0.0
H33 H 0.01884 0.36865 0.22852 0.0
H34 H 0.05886 0.36367 0.20514 0.0
H35 H 0.05879 0.36145 0.22783 0.0
H36 H 0.07995 0.34874 0.28618 0.0
H37 H 0.06336 0.36045 0.32126 0.0
H38 H 0.04373 0.36511 0.31046 0.0
H39 H 0.06 0.35378 0.27525 0.0
C40 C 0.87112 0.73629 0.53799 0.0
C41 C 0.87249 0.73528 0.55107 0.0
C42 C 0.87288 0.71242 0.54941 0.0
C43 C 0.87341 0.72347 0.55671 0.0
C44 C 0.87081 0.71347 0.53641 0.0
C45 C 0.86999 0.7253 0.53076 0.0
U46 U 0.86815 0.77199 0.53906 0.0
O47 O 0.88087 0.78668 0.53201 0.0
O48 O 0.86128 0.78571 0.52515 0.0
C49 C 0.87223 0.79153 0.52463 0.0
C50 C 0.87172 0.74867 0.53176 0.0
C51 C 0.87644 0.79651 0.51241 0.0
C52 C 0.88924 0.79573 0.49344 0.0
C53 C 0.88408 0.78975 0.50403 0.0
C54 C 0.87888 0.81502 0.49941 0.0
C55 C 0.88698 0.80855 0.49128 0.0
C56 C 0.87366 0.80906 0.50979 0.0
C57 C 0.85793 0.78507 0.57195 0.0
C58 C 0.85706 0.80663 0.57965 0.0
C59 C 0.85304 0.78936 0.59378 0.0
C60 C 0.85474 0.78086 0.58395 0.0
C61 C 0.8544 0.80231 0.59182 0.0
C62 C 0.85891 0.79803 0.56976 0.0
C63 C 0.86083 0.7755 0.56236 0.0
O64 O 0.86096 0.75454 0.5302 0.0
O65 O 0.88085 0.75613 0.53567 0.0
O66 O 0.87271 0.77452 0.55908 0.0
O67 O 0.85292 0.77421 0.55291 0.0
H68 H 0.87324 0.74363 0.55687 0.0
H69 H 0.8748 0.72298 0.56677 0.0
H70 H 0.87042 0.70517 0.53051 0.0
H71 H 0.86889 0.72585 0.52067 0.0
H72 H 0.89544 0.79052 0.48731 0.0
H73 H 0.88638 0.78005 0.50588 0.0
H74 H 0.87684 0.82484 0.49791 0.0
H75 H 0.86781 0.81446 0.51612 0.0
H76 H 0.85819 0.81657 0.57793 0.0
H77 H 0.85088 0.78579 0.60302 0.0
H78 H 0.8539 0.77091 0.58582 0.0
H79 H 0.86138 0.80146 0.56054 0.0
C80 C 0.47807 0.64679 0.72582 0.0
C81 C 0.46875 0.65322 0.71914 0.0
C82 C 0.4762 0.64445 0.69939 0.0
C83 C 0.46782 0.65209 0.70612 0.0
C84 C 0.48603 0.63851 0.70602 0.0
C85 C 0.48692 0.6396 0.71918 0.0
U86 U 0.48806 0.64326 0.76156 0.0
O87 O 0.50823 0.64811 0.76362 0.0
O88 O 0.50242 0.62841 0.76175 0.0
C89 C 0.51166 0.63629 0.76432 0.0
C90 C 0.47719 0.6469 0.73965 0.0
C91 C 0.51974 0.63278 0.77512 0.0
C92 C 0.53655 0.61978 0.78357 0.0
C93 C 0.52919 0.6238 0.77342 0.0
C94 C 0.52523 0.6338 0.79737 0.0
C95 C 0.53466 0.62467 0.79571 0.0
C96 C 0.51783 0.63779 0.78719 0.0
C97 C 0.46161 0.64823 0.78646 0.0
C98 C 0.44636 0.64542 0.80308 0.0
C99 C 0.44099 0.65821 0.78515 0.0
C100 C 0.45292 0.65575 0.77995 0.0
C101 C 0.4377 0.65323 0.79691 0.0
C102 C 0.45815 0.64301 0.79794 0.0
C103 C 0.47448 0.64568 0.78196 0.0
O104 O 0.48307 0.65587 0.74591 0.0
O105 O 0.47729 0.63601 0.74537 0.0
O106 O 0.47609 0.63494 0.77613 0.0
O107 O 0.48083 0.65501 0.77697 0.0
H108 H 0.46182 0.6588 0.72406 0.0
H109 H 0.46032 0.65702 0.70134 0.0
H110 H 0.49267 0.63258 0.70111 0.0
H111 H 0.4942 0.63454 0.72416 0.0
H112 H 0.54352 0.61259 0.78192 0.0
H113 H 0.53076 0.61971 0.76424 0.0
H114 H 0.52357 0.63789 0.80652 0.0
H115 H 0.51053 0.64468 0.78878 0.0
H116 H 0.44406 0.64117 0.81199 0.0
H117 H 0.43451 0.66425 0.78016 0.0
H118 H 0.4554 0.65982 0.77101 0.0
H119 H 0.46467 0.63712 0.80307 0.0
C120 C 0.64019 0.28053 0.04312 0.0
C121 C 0.64077 0.28222 0.05618 0.0
C122 C 0.63856 0.30484 0.05373 0.0
C123 C 0.63993 0.29424 0.06143 0.0
C124 C 0.6386 0.30316 0.04063 0.0
C125 C 0.63936 0.29109 0.03538 0.0
U126 U 0.64442 0.2453 0.04635 0.0
O127 O 0.63185 0.22967 0.04106 0.0
O128 O 0.65082 0.23088 0.03291 0.0
C129 C 0.64005 0.2247 0.03334 0.0
C130 C 0.63966 0.2678 0.03762 0.0
C131 C 0.63491 0.21946 0.02153 0.0
C132 C 0.62625 0.22117 1.00038 0.0
C133 C 0.6316 0.22683 0.01116 0.0
C134 C 0.62735 0.20092 0.01047 0.0
C135 C 0.62404 0.20808 0.9999 0.0
C136 C 0.63281 0.20652 0.02103 0.0
C137 C 0.65636 0.23366 0.07874 0.0
C138 C 0.65284 0.2135 0.08884 0.0
C139 C 0.66778 0.22834 0.0978 0.0
C140 C 0.66523 0.2367 0.08807 0.0
C141 C 0.66139 0.21674 0.09853 0.0
C142 C 0.65036 0.22188 0.07903 0.0
C143 C 0.65295 0.24333 0.06947 0.0
O144 O 0.65056 0.26218 0.03607 0.0
O145 O 0.631 0.2604 0.0424 0.0
O146 O 0.64092 0.2442 0.0666 0.0
O147 O 0.66039 0.24452 0.05972 0.0
H148 H 0.64152 0.2742 0.06233 0.0
H149 H 0.64015 0.29523 0.07155 0.0
H150 H 0.63752 0.31111 0.03444 0.0
H151 H 0.63893 0.28998 0.02528 0.0
H152 H 0.62394 0.22704 0.99245 0.0
H153 H 0.63309 0.23689 0.01141 0.0
H154 H 0.62551 0.19094 0.01079 0.0
H155 H 0.6352 0.20068 0.02898 0.0
H156 H 0.64769 0.20471 0.08906 0.0
H157 H 0.67467 0.23108 0.10485 0.0
H158 H 0.67001 0.24572 0.088 0.0
H159 H 0.6435 0.21931 0.07188 0.0
C160 C 0.99832 0.6386 0.23805 0.0
C161 C 0.99988 0.64329 0.22587 0.0
C162 C 0.98284 0.62973 0.21809 0.0
C163 C 0.99219 0.63893 0.216 0.0
C164 C 0.98125 0.62522 0.23038 0.0
C165 C 0.9889 0.62961 0.24023 0.0
U166 U 0.0303 0.65048 0.24975 0.0
O167 O 0.03563 0.66306 0.26551 0.0
O168 O 0.04249 0.64365 0.2649 0.0
C169 C 0.0422 0.6543 0.27115 0.0
C170 C 1.00687 0.64236 0.24843 0.0
C171 C 0.04133 0.65337 0.28492 0.0
C172 C 0.03391 0.64294 0.30381 0.0
C173 C 0.03272 0.64532 0.29089 0.0
C174 C 0.05185 0.65708 0.30491 0.0
C175 C 0.04376 0.64852 0.3108 0.0
C176 C 0.05061 0.65952 0.29211 0.0
C177 C 0.05523 0.65706 0.22411 0.0
C178 C 0.07758 0.66147 0.22746 0.0
C179 C 0.06928 0.65912 0.20635 0.0
C180 C 0.05723 0.65712 0.21115 0.0
C181 C 0.07967 0.66107 0.21442 0.0
C182 C 0.06543 0.65941 0.23228 0.0
C183 C 0.04255 0.65377 0.22865 0.0
O184 O 0.01655 0.63493 0.25018 0.0
O185 O 0.0099 0.65434 0.24915 0.0
O186 O 0.0361 0.66271 0.23417 0.0
O187 O 0.04159 0.64289 0.2343 0.0
H188 H 0.00715 0.65018 0.22394 0.0
H189 H 0.99359 0.64276 0.20672 0.0
H190 H 0.97432 0.618 0.23235 0.0
H191 H 0.98761 0.62579 0.24953 0.0
H192 H 0.02763 0.63623 0.30817 0.0
H193 H 0.02552 0.64043 0.28549 0.0
H194 H 0.05955 0.66142 0.3101 0.0
H195 H 0.05738 0.6657 0.28769 0.0
H196 H 0.08537 0.66295 0.23392 0.0
H197 H 0.07048 0.65903 0.19627 0.0
H198 H 0.04948 0.65535 0.2047 0.0
H199 H 0.06404 0.65939 0.24234 0.0
C200 C 0.64095 0.73234 0.4721 0.0
C201 C 0.63994 0.72944 0.45925 0.0
C202 C 0.64198 0.70708 0.46374 0.0
C203 C 0.6404 0.71691 0.45512 0.0
C204 C 0.6434 0.71009 0.47653 0.0
C205 C 0.64284 0.72257 0.48065 0.0
U206 U 0.6426 0.76856 0.46947 0.0
O207 O 0.64811 0.78267 0.48375 0.0
O208 O 0.62884 0.78264 0.4758 0.0
C209 C 0.63703 0.78814 0.48334 0.0
C210 C 0.63935 0.74528 0.47696 0.0
C211 C 0.63242 0.7948 0.49456 0.0
C212 C 0.62415 0.79611 0.51585 0.0
C213 C 0.6282 0.78885 0.50552 0.0
C214 C 0.62834 0.81505 0.50411 0.0
C215 C 0.62438 0.80934 0.51527 0.0
C216 C 0.63234 0.80789 0.49396 0.0
C217 C 0.65474 0.78373 0.43883 0.0
C218 C 0.65318 0.80575 0.43294 0.0
C219 C 0.66416 0.79112 0.41949 0.0
C220 C 0.66164 0.78145 0.42791 0.0
C221 C 0.65974 0.80336 0.42171 0.0
C222 C 0.65068 0.796 0.44143 0.0
C223 C 0.65158 0.77298 0.44695 0.0
O224 O 0.64972 0.75176 0.47919 0.0
O225 O 0.63041 0.75196 0.47169 0.0
O226 O 0.63955 0.77114 0.44922 0.0
O227 O 0.65879 0.77136 0.45687 0.0
H228 H 0.63857 0.73682 0.45245 0.0
H229 H 0.63945 0.71491 0.44518 0.0
H230 H 0.64453 0.70275 0.48343 0.0
H231 H 0.64361 0.72456 0.49061 0.0
H232 H 0.62118 0.79144 0.52433 0.0
H233 H 0.62815 0.77872 0.50614 0.0
H234 H 0.62842 0.82517 0.50322 0.0
H235 H 0.63548 0.81266 0.48557 0.0
H236 H 0.64962 0.81504 0.43498 0.0
H237 H 0.66952 0.78895 0.41115 0.0
H238 H 0.66494 0.77208 0.42578 0.0
H239 H 0.64538 0.79798 0.44987 0.0
C240 C 0.51834 0.37882 0.74019 0.0
C241 C 0.51461 0.37549 0.72794 0.0
C242 C 0.53312 0.38606 0.71941 0.0
C243 C 0.52196 0.37903 0.71765 0.0
C244 C 0.53686 0.38925 0.73172 0.0
C245 C 0.52954 0.38565 0.742 0.0
U246 U 0.48681 0.36798 0.75261 0.0
O247 O 0.47437 0.37604 0.76694 0.0
O248 O 0.48136 0.35674 0.76908 0.0
C249 C 0.47444 0.36582 0.77377 0.0
C250 C 0.51023 0.37592 0.751 0.0
C251 C 0.47373 0.36742 0.78751 0.0
C252 C 0.48193 0.3659 0.80889 0.0
C253 C 0.48383 0.36522 0.79582 0.0
C254 C 0.46004 0.37119 0.80527 0.0
C255 C 0.46989 0.3686 0.81371 0.0
C256 C 0.46194 0.37059 0.79239 0.0
C257 C 0.46183 0.36004 0.72717 0.0
C258 C 0.43905 0.35925 0.72996 0.0
C259 C 0.4481 0.35485 0.7096 0.0
C260 C 0.46017 0.35674 0.71454 0.0
C261 C 0.43737 0.35625 0.71718 0.0
C262 C 0.45122 0.36109 0.73494 0.0
C263 C 0.4746 0.36339 0.73156 0.0
O264 O 0.50059 0.38347 0.75238 0.0
O265 O 0.5072 0.36403 0.75246 0.0
O266 O 0.48089 0.35474 0.73767 0.0
O267 O 0.4758 0.37463 0.73653 0.0
H268 H 0.50593 0.37031 0.72633 0.0
H269 H 0.51878 0.37648 0.7083 0.0
H270 H 0.54552 0.39444 0.73343 0.0
H271 H 0.53256 0.38833 0.75137 0.0
H272 H 0.48971 0.36391 0.81519 0.0
H273 H 0.49304 0.36275 0.79224 0.0
H274 H 0.45072 0.37352 0.80866 0.0
H275 H 0.45402 0.37234 0.78617 0.0
H276 H 0.43097 0.36035 0.73603 0.0
H277 H 0.44715 0.3528 0.69967 0.0
H278 H 0.46823 0.35603 0.70838 0.0
H279 H 0.45233 0.36367 0.74473 0.0
C280 C 0.87627 0.23059 0.00787 0.0
C281 C 0.87388 0.21815 1.00408 0.0
C282 C 0.88405 0.21033 0.02309 0.0
C283 C 0.87771 0.20812 0.01163 0.0
C284 C 0.88614 0.22284 0.02693 0.0
C285 C 0.88231 0.23285 0.01939 0.0
U286 U 0.86367 0.2429 0.97686 0.0
O287 O 0.85168 0.25917 0.9724 0.0
O288 O 0.87069 0.25771 0.96442 0.0
C289 C 0.86034 0.26437 0.96529 0.0
C290 C 0.87299 0.24122 0.99968 0.0
C291 C 0.86192 0.27812 0.96589 0.0
C292 C 0.86974 0.29747 0.97556 0.0
C293 C 0.86738 0.28446 0.97618 0.0
C294 C 0.86082 0.29781 0.95461 0.0
C295 C 0.86679 0.30421 0.96459 0.0
C296 C 0.85846 0.28495 0.95525 0.0
C297 C 0.85332 0.21719 0.9528 0.0
C298 C 0.85099 0.21863 0.9301 0.0
C299 C 0.84427 0.19983 0.94088 0.0
C300 C 0.848 0.20514 0.95232 0.0
C301 C 0.84583 0.20643 0.92961 0.0
C302 C 0.85465 0.22401 0.94163 0.0
C303 C 0.85808 0.22189 0.96498 0.0
O304 O 0.88002 0.24239 0.98964 0.0
O305 O 0.86091 0.24272 0.99734 0.0
O306 O 0.85001 0.22788 0.97212 0.0
O307 O 0.86937 0.22702 0.96499 0.0
H308 H 0.86925 0.21621 0.99519 0.0
H309 H 0.87601 0.19863 0.00831 0.0
H310 H 0.89078 0.22491 0.03579 0.0
H311 H 0.8842 0.24237 0.0225 0.0
H312 H 0.8743 0.30214 0.98343 0.0
H313 H 0.8701 0.27934 0.9845 0.0
H314 H 0.85816 0.30272 0.94614 0.0
H315 H 0.85418 0.28026 0.94723 0.0
H316 H 0.85226 0.22395 0.92156 0.0
H317 H 0.84055 0.19034 0.94082 0.0
H318 H 0.847 0.19969 0.96081 0.0
H319 H 0.85874 0.23334 0.9418 0.0
C320 C 0.24277 0.03292 0.36675 0.0
C321 C 0.24121 0.04508 0.36202 0.0
C322 C 0.21848 0.04385 0.36562 0.0
C323 C 0.22919 0.05047 0.36141 0.0
C324 C 0.22016 0.0316 0.37023 0.0
C325 C 0.23216 0.0262 0.37076 0.0
U326 U 0.27843 0.03648 0.36621 0.0
O327 O 0.29297 0.03 0.37943 0.0
O328 O 0.29357 0.02392 0.3597 0.0
C329 C 0.29881 0.02331 0.37089 0.0
C330 C 0.25544 0.02741 0.36814 0.0
C331 C 0.30398 0.01114 0.37489 0.0
C332 C 0.30227 0.99058 0.38465 0.0
C333 C 0.29655 1.00153 0.38005 0.0
C334 C 0.32274 0.99878 0.37881 0.0
C335 C 0.31549 0.98912 0.38418 0.0
C336 C 0.31704 0.00958 0.37419 0.0
C337 C 0.29123 0.06952 0.3585 0.0
C338 C 0.31279 0.07663 0.36207 0.0
C339 C 0.29732 0.09093 0.35354 0.0
C340 C 0.28819 0.08143 0.3539 0.0
C341 C 0.30961 0.08866 0.35781 0.0
C342 C 0.30365 0.06708 0.36238 0.0
C343 C 0.28107 0.0602 0.36003 0.0
O344 O 0.26214 0.02654 0.35782 0.0
O345 O 0.26201 0.03164 0.37777 0.0
O346 O 0.27919 0.05639 0.37157 0.0
O347 O 0.28056 0.05104 0.35174 0.0
H348 H 0.2493 0.05046 0.35892 0.0
H349 H 0.22831 0.05984 0.35765 0.0
H350 H 0.21225 0.02625 0.37379 0.0
H351 H 0.23318 0.01685 0.37453 0.0
H352 H 0.29637 0.98331 0.38861 0.0
H353 H 0.28642 1.00258 0.3807 0.0
H354 H 0.33293 0.99823 0.37852 0.0
H355 H 0.32295 0.01693 0.37035 0.0
H356 H 0.32224 0.07475 0.36546 0.0
H357 H 0.29468 0.10018 0.35033 0.0
H358 H 0.27863 0.08349 0.35093 0.0
H359 H 0.30616 0.05794 0.36597 0.0
C360 C 0.22594 1.00592 0.64701 0.0
C361 C 0.21369 0.01026 0.6445 0.0
C362 C 0.20737 0.98947 0.63695 0.0
C363 C 0.20447 1.0021 0.63954 0.0
C364 C 0.21951 0.9851 0.64004 0.0
C365 C 0.22869 0.99325 0.64498 0.0
U366 U 0.23708 0.03857 0.65666 0.0
O367 O 0.25237 0.04521 0.66925 0.0
O368 O 0.25248 0.05014 0.64925 0.0
C369 C 0.25839 0.05087 0.6601 0.0
C370 C 0.23617 0.01465 0.65071 0.0
C371 C 0.27221 0.04965 0.6597 0.0
C372 C 0.29136 0.03949 0.65239 0.0
C373 C 0.27821 0.03938 0.65401 0.0
C374 C 0.29254 0.05986 0.66253 0.0
C375 C 0.29862 0.04993 0.65633 0.0
C376 C 0.2795 0.05972 0.66416 0.0
C377 C 0.21077 0.06361 0.6591 0.0
C378 C 0.21159 0.08502 0.66722 0.0
C379 C 0.19411 0.07821 0.65408 0.0
C380 C 0.1994 0.06635 0.65305 0.0
C381 C 0.19997 0.08765 0.66135 0.0
C382 C 0.21697 0.07304 0.66611 0.0
C383 C 0.21572 0.05083 0.65763 0.0
O384 O 0.23848 0.02356 0.64257 0.0
O385 O 0.23607 0.01872 0.66239 0.0
O386 O 0.22092 0.04557 0.66751 0.0
O387 O 0.2218 0.04866 0.64716 0.0
H388 H 0.21138 0.02004 0.64601 0.0
H389 H 0.19524 1.00578 0.63729 0.0
H390 H 0.22199 0.97538 0.63847 0.0
H391 H 0.23805 0.9897 0.64691 0.0
H392 H 0.29576 0.03169 0.6476 0.0
H393 H 0.2727 0.03151 0.65048 0.0
H394 H 0.29785 0.06791 0.66592 0.0
H395 H 0.27505 0.06772 0.66858 0.0
H396 H 0.21634 0.0921 0.67287 0.0
H397 H 0.18533 0.07997 0.64916 0.0
H398 H 0.19455 0.05924 0.64749 0.0
H399 H 0.22585 0.07112 0.67076 0.0
C400 C 0.22633 0.00913 0.86928 0.0
C401 C 0.21423 1.00406 0.8711 0.0
C402 C 0.20665 0.02431 0.87856 0.0
C403 C 0.20449 0.01156 0.87574 0.0
C404 C 0.21868 0.02945 0.87626 0.0
C405 C 0.22844 0.02191 0.8717 0.0
U406 U 0.23767 0.97706 0.85972 0.0
O407 O 0.25342 0.97029 0.84809 0.0
O408 O 0.25221 0.96502 0.868 0.0
C409 C 0.25857 0.96418 0.85749 0.0
C410 C 0.23693 1.0009 0.8659 0.0
C411 C 0.27243 0.96399 0.85864 0.0
C412 C 0.29349 0.97293 0.85619 0.0
C413 C 0.28028 0.97424 0.85573 0.0
C414 C 0.29092 0.95135 0.86273 0.0
C415 C 0.2989 0.96134 0.85942 0.0
C416 C 0.27788 0.95267 0.86233 0.0
C417 C 0.21099 0.95225 0.85637 0.0
C418 C 0.21172 0.93069 0.84864 0.0
C419 C 0.19442 0.93753 0.86172 0.0
C420 C 0.1997 0.94948 0.86248 0.0
C421 C 0.20021 0.92801 0.85463 0.0
C422 C 0.2171 0.94277 0.84951 0.0
C423 C 0.21607 0.96505 0.85779 0.0
O424 O 0.23908 0.99191 0.874 0.0
O425 O 0.23726 0.99699 0.85417 0.0
O426 O 0.22178 0.97011 0.84811 0.0
O427 O 0.22174 0.96737 0.86853 0.0
H428 H 0.2124 0.99421 0.86925 0.0
H429 H 0.19529 1.00737 0.8772 0.0
H430 H 0.22067 0.03921 0.87838 0.0
H431 H 0.23773 0.02598 0.8704 0.0
H432 H 0.29943 0.9808 0.85363 0.0
H433 H 0.27623 0.9831 0.8529 0.0
H434 H 0.29479 0.94239 0.86548 0.0
H435 H 0.272 0.94467 0.86467 0.0
H436 H 0.2164 0.92357 0.84312 0.0
H437 H 0.18575 0.93575 0.86673 0.0
H438 H 0.19493 0.95661 0.86794 0.0
H439 H 0.22593 0.9447 0.84482 0.0
C440 C 0.24315 0.98426 0.14494 0.0
C441 C 0.24027 0.97164 0.14739 0.0
C442 C 0.21774 0.97632 0.14708 0.0
C443 C 0.22766 0.96769 0.1484 0.0
C444 C 0.22073 0.98894 0.14459 0.0
C445 C 0.23329 0.99285 0.14351 0.0
U446 U 0.27888 0.97876 0.14583 0.0
O447 O 0.29384 0.98603 0.13361 0.0
O448 O 0.29412 0.99065 0.15372 0.0
C449 C 0.29948 0.99225 0.14275 0.0
C450 C 0.25631 0.9887 0.14389 0.0
C451 C 0.30417 1.00495 0.13978 0.0
C452 C 0.30207 0.02545 0.12995 0.0
C453 C 0.29664 0.01409 0.13396 0.0
C454 C 0.32236 0.01875 0.13791 0.0
C455 C 0.31507 0.02769 0.13157 0.0
C456 C 0.31696 0.00754 0.14199 0.0
C457 C 0.29035 0.94493 0.15266 0.0
C458 C 0.31212 0.93778 0.15306 0.0
C459 C 0.29512 0.92314 0.15718 0.0
C460 C 0.28636 0.93274 0.15553 0.0
C461 C 0.30811 0.92551 0.15596 0.0
C462 C 0.30331 0.94744 0.15146 0.0
C463 C 0.28073 0.95469 0.15082 0.0
O464 O 0.26292 0.98875 0.15436 0.0
O465 O 0.26263 0.98439 0.13423 0.0
O466 O 0.2796 0.95912 0.1394 0.0
O467 O 0.28006 0.96342 0.15954 0.0
H468 H 0.24776 0.96486 0.14855 0.0
H469 H 0.22568 0.95793 0.15041 0.0
H470 H 0.21333 0.99578 0.14333 0.0
H471 H 0.23532 1.00261 0.14156 0.0
H472 H 0.29626 0.0322 0.12507 0.0
H473 H 0.28673 0.01227 0.13218 0.0
H474 H 0.33237 0.02029 0.13939 0.0
H475 H 0.32292 1.00065 0.1465 0.0
H476 H 0.32207 0.93993 0.15214 0.0
H477 H 0.29168 0.91378 0.15919 0.0
H478 H 0.2764 0.93061 0.15642 0.0
H479 H 0.30658 0.95682 0.14926 0.0
C480 C 0.37246 0.23718 0.03834 0.0
C481 C 0.3737 0.23596 0.0514 0.0
C482 C 0.37419 0.21318 0.04934 0.0
C483 C 0.37463 0.22408 0.05684 0.0
C484 C 0.37222 0.21441 0.03635 0.0
C485 C 0.37143 0.22632 0.03089 0.0
U486 U 0.36918 0.27266 0.04039 0.0
O487 O 0.38176 0.2877 0.03394 0.0
O488 O 0.36226 0.28668 0.02684 0.0
C489 C 0.37324 0.29246 0.02636 0.0
C490 C 0.37305 0.24966 0.0324 0.0
C491 C 0.37764 0.29679 0.01398 0.0
C492 C 0.3929 0.29683 0.99694 0.0
C493 C 0.38768 0.29108 0.00757 0.0
C494 C 0.37778 0.31366 0.99875 0.0
C495 C 0.38825 0.30841 0.99269 0.0
C496 C 0.37254 0.30791 0.00925 0.0
C497 C 0.35848 0.28583 0.07257 0.0
C498 C 0.35328 0.30749 0.07763 0.0
C499 C 0.35493 0.29209 0.09418 0.0
C500 C 0.35775 0.28286 0.08532 0.0
C501 C 0.35269 0.30449 0.09045 0.0
C502 C 0.35625 0.29822 0.06873 0.0
C503 C 0.36154 0.27574 0.06362 0.0
O504 O 0.36224 0.25546 0.03091 0.0
O505 O 0.38208 0.25708 0.03662 0.0
O506 O 0.37347 0.27477 0.06053 0.0
O507 O 0.35378 0.27421 0.05406 0.0
H508 H 0.37436 0.24421 0.05736 0.0
H509 H 0.37599 0.22341 0.06689 0.0
H510 H 0.3719 0.20618 0.03034 0.0
H511 H 0.37043 0.22706 0.0208 0.0
H512 H 0.40097 0.29257 0.99245 0.0
H513 H 0.39178 0.28249 0.01105 0.0
H514 H 0.37387 0.32247 0.99559 0.0
H515 H 0.36482 0.31248 0.01404 0.0
H516 H 0.35164 0.31701 0.07454 0.0
H517 H 0.35438 0.28951 0.10398 0.0
H518 H 0.35937 0.27335 0.08845 0.0
H519 H 0.35681 0.30069 0.0589 0.0
C520 C 0.01678 0.87857 0.24063 0.0
C521 C 0.01383 0.8747 0.22835 0.0
C522 C 0.03217 0.88596 0.22038 0.0
C523 C 0.02148 0.87832 0.21833 0.0
C524 C 0.03506 0.88983 0.23272 0.0
C525 C 0.02743 0.88616 0.24275 0.0
U526 U 0.98504 0.86708 0.25164 0.0
O527 O 0.97917 0.85495 0.2673 0.0
O528 O 0.97233 0.87432 0.26613 0.0
C529 C 0.97256 0.86389 0.27263 0.0
C530 C 0.00839 0.87532 0.25111 0.0
C531 C 0.97383 0.86534 0.28633 0.0
C532 C 0.98367 0.8746 0.30493 0.0
C533 C 0.98361 0.87239 0.29192 0.0
C534 C 0.96444 0.86239 0.30683 0.0
C535 C 0.97397 0.86974 0.31252 0.0
C536 C 0.9644 0.86022 0.29391 0.0
C537 C 0.96096 0.85981 0.22525 0.0
C538 C 0.93815 0.85957 0.22762 0.0
C539 C 0.94739 0.85635 0.20712 0.0
C540 C 0.95945 0.85742 0.21238 0.0
C541 C 0.93668 0.85774 0.21464 0.0
C542 C 0.95025 0.86052 0.23293 0.0
C543 C 0.97359 0.86306 0.23005 0.0
O544 O 0.99863 0.88274 0.25237 0.0
O545 O 1.00545 0.86336 0.25213 0.0
O546 O 0.97976 0.85427 0.23609 0.0
O547 O 0.97452 0.87414 0.23543 0.0
H548 H 1.00554 0.86897 0.2265 0.0
H549 H 0.01892 0.87526 0.20894 0.0
H550 H 0.04332 0.89557 0.23464 0.0
H551 H 0.02981 0.88929 0.25216 0.0
H552 H 0.99119 0.88022 0.30902 0.0
H553 H 0.991 0.87642 0.2862 0.0
H554 H 0.9567 0.85869 0.3123 0.0
H555 H 0.95672 0.85484 0.28976 0.0
H556 H 0.92997 0.86072 0.23354 0.0
H557 H 0.94643 0.8551 0.19706 0.0
H558 H 0.96759 0.85695 0.20631 0.0
H559 H 0.95125 0.86239 0.24288 0.0
C560 C 0.14148 0.78104 0.54372 0.0
C561 C 0.14349 0.78274 0.55665 0.0
C562 C 0.1424 0.80552 0.55426 0.0
C563 C 0.14394 0.79485 0.56187 0.0
C564 C 0.14053 0.80371 0.54128 0.0
C565 C 0.14007 0.79161 0.53609 0.0
U566 U 0.14429 0.74539 0.54622 0.0
O567 O 0.15125 0.73127 0.53276 0.0
O568 O 0.13168 0.73035 0.53937 0.0
C569 C 0.14031 0.72542 0.53208 0.0
C570 C 0.14058 0.76835 0.53811 0.0
C571 C 0.13607 0.7209 0.51963 0.0
C572 C 0.12717 0.72393 0.49873 0.0
C573 C 0.13168 0.72894 0.51017 0.0
C574 C 0.13144 0.70296 0.50619 0.0
C575 C 0.12689 0.71087 0.49677 0.0
C576 C 0.13603 0.70792 0.51747 0.0
C577 C 0.15469 0.73311 0.5792 0.0
C578 C 0.1613 0.71227 0.58577 0.0
C579 C 0.15749 0.72845 0.6013 0.0
C580 C 0.15434 0.73682 0.5918 0.0
C581 C 0.1612 0.7161 0.59847 0.0
C582 C 0.15807 0.72072 0.57619 0.0
C583 C 0.15169 0.7426 0.56963 0.0
O584 O 0.15129 0.76237 0.53672 0.0
O585 O 0.13154 0.76117 0.54253 0.0
O586 O 0.1398 0.74349 0.56627 0.0
O587 O 0.15956 0.7438 0.56022 0.0
H588 H 0.14459 0.7747 0.56272 0.0
H589 H 0.14526 0.79583 0.57191 0.0
H590 H 0.13952 0.81166 0.53509 0.0
H591 H 0.13855 0.7905 0.52609 0.0
H592 H 0.12374 0.7302 0.49153 0.0
H593 H 0.13162 0.739 0.51167 0.0
H594 H 0.13142 0.69288 0.50481 0.0
H595 H 0.1394 0.70157 0.52462 0.0
H596 H 0.16411 0.70285 0.58322 0.0
H597 H 0.15695 0.73169 0.61092 0.0
H598 H 0.15169 0.7463 0.59432 0.0
H599 H 0.15835 0.71765 0.56649 0.0
C600 C 0.99173 0.63289 0.76464 0.0
C601 C 0.97924 0.63529 0.76092 0.0
C602 C 0.97425 0.6427 0.78202 0.0
C603 C 0.97055 0.64013 0.76955 0.0
C604 C 0.98662 0.63971 0.78577 0.0
C605 C 0.99525 0.63488 0.77717 0.0
U606 U 1.00174 0.6213 0.7321 0.0
O607 O 0.0171 0.62788 0.71999 0.0
O608 O 0.01695 0.60839 0.72658 0.0
C609 C 0.02298 0.61708 0.72023 0.0
C610 C 1.00142 0.62907 0.75553 0.0
C611 C 0.03681 0.61766 0.72162 0.0
C612 C 0.0561 0.62362 0.73279 0.0
C613 C 0.04288 0.62226 0.73249 0.0
C614 C 0.05714 0.61558 0.71152 0.0
C615 C 0.06329 0.62055 0.72215 0.0
C616 C 0.04407 0.61414 0.71128 0.0
C617 C 0.97507 0.61489 0.70772 0.0
C618 C 0.97748 0.61069 0.68537 0.0
C619 C 0.95664 0.61146 0.69451 0.0
C620 C 0.96198 0.61387 0.70628 0.0
C621 C 0.96428 0.61007 0.68385 0.0
C622 C 0.98285 0.61313 0.69723 0.0
C623 C 0.98014 0.61832 0.72017 0.0
O624 O 1.00153 0.61714 0.75234 0.0
O625 O 1.00289 0.63662 0.74593 0.0
O626 O 0.98619 0.62909 0.72091 0.0
O627 O 0.98556 0.60935 0.72662 0.0
H628 H 0.97633 0.63376 0.75127 0.0
H629 H 0.96111 0.64232 0.76634 0.0
H630 H 0.9897 0.64129 0.79536 0.0
H631 H 1.00481 0.633 0.78026 0.0
H632 H 0.06063 0.6275 0.74109 0.0
H633 H 0.03741 0.62505 0.74058 0.0
H634 H 0.06247 0.61303 0.70325 0.0
H635 H 0.03958 0.61056 0.70282 0.0
H636 H 0.98363 0.60969 0.67735 0.0
H637 H 0.94647 0.61079 0.69375 0.0
H638 H 0.95584 0.61514 0.71427 0.0
H639 H 0.99301 0.61388 0.69818 0.0
C640 C 0.12709 0.25873 0.4725 0.0
C641 C 0.12601 0.25577 0.45968 0.0
C642 C 0.13376 0.27669 0.45408 0.0
C643 C 0.12929 0.26467 0.45055 0.0
C644 C 0.13474 0.27952 0.46698 0.0
C645 C 0.13141 0.27067 0.47604 0.0
U646 U 0.1177 0.22564 0.48338 0.0
O647 O 0.10493 0.21974 0.49852 0.0
O648 O 0.12494 0.2144 0.49914 0.0
C649 C 0.1139 0.21384 0.50464 0.0
C650 C 0.12407 0.2495 0.48236 0.0
C651 C 0.11366 0.21415 0.5185 0.0
C652 C 0.11172 0.22461 0.53884 0.0
C653 C 0.11284 0.22524 0.52567 0.0
C654 C 0.11245 0.20194 0.53761 0.0
C655 C 0.11123 0.2129 0.54488 0.0
C656 C 0.11365 0.20258 0.52463 0.0
C657 C 0.11207 0.20017 0.45766 0.0
C658 C 0.1121 0.17736 0.45942 0.0
C659 C 0.10433 0.18714 0.44047 0.0
C660 C 0.10688 0.19896 0.44561 0.0
C661 C 0.10697 0.17618 0.44725 0.0
C662 C 0.11457 0.18928 0.46463 0.0
C663 C 0.11523 0.21289 0.4623 0.0
O664 O 0.11231 0.24556 0.48276 0.0
O665 O 0.13227 0.24044 0.48386 0.0
O666 O 0.12602 0.21425 0.46831 0.0
O667 O 0.10599 0.21928 0.46738 0.0
H668 H 0.12267 0.24658 0.45673 0.0
H669 H 0.12823 0.26214 0.44075 0.0
H670 H 0.13835 0.28852 0.47016 0.0
H671 H 0.13236 0.27314 0.48588 0.0
H672 H 0.11084 0.2332 0.54423 0.0
H673 H 0.11285 0.23429 0.52111 0.0
H674 H 0.11231 0.1928 0.54198 0.0
H675 H 0.11432 0.19391 0.5193 0.0
H676 H 0.11416 0.16909 0.4649 0.0
H677 H 0.10058 0.18657 0.43101 0.0
H678 H 0.10496 0.20722 0.44004 0.0
H679 H 0.11856 0.19 0.47398 0.0
C680 C 0.4704 0.3993 0.23688 0.0
C681 C 0.46777 0.39995 0.22399 0.0
C682 C 0.44522 0.3985 0.22838 0.0
C683 C 0.45522 0.39961 0.21977 0.0
C684 C 0.44803 0.39814 0.24126 0.0
C685 C 0.46048 0.39857 0.24543 0.0
U686 U 0.50776 0.39746 0.23981 0.0
O687 O 0.51582 0.38237 0.25122 0.0
O688 O 0.51778 0.40212 0.25746 0.0
C689 C 0.51941 0.3902 0.26012 0.0
C690 C 0.48317 0.39782 0.24192 0.0
C691 C 0.52964 0.38647 0.2685 0.0
C692 C 0.53554 0.37648 0.28801 0.0
C693 C 0.5263 0.38101 0.27993 0.0
C694 C 0.55169 0.38313 0.27342 0.0
C695 C 0.54832 0.37733 0.28478 0.0
C696 C 0.54237 0.38764 0.26527 0.0
C697 C 0.52743 0.40488 0.20819 0.0
C698 C 0.54853 0.40529 0.19928 0.0
C699 C 0.5303 0.40865 0.18594 0.0
C700 C 0.52244 0.40742 0.19629 0.0
C701 C 0.54341 0.40738 0.18723 0.0
C702 C 0.54056 0.40397 0.20972 0.0
C703 C 0.51839 0.40277 0.21841 0.0
O704 O 0.48947 0.3879 0.23828 0.0
O705 O 0.49022 0.40783 0.24384 0.0
O706 O 0.51678 0.41126 0.22726 0.0
O707 O 0.51502 0.3913 0.22145 0.0
H708 H 0.47537 0.40042 0.21726 0.0
H709 H 0.45333 0.40004 0.20978 0.0
H710 H 0.44063 0.39703 0.24813 0.0
H711 H 0.46238 0.39785 0.2554 0.0
H712 H 0.53267 0.3723 0.29679 0.0
H713 H 0.51647 0.38009 0.28255 0.0
H714 H 0.56149 0.38388 0.27071 0.0
H715 H 0.54505 0.39182 0.25644 0.0
H716 H 0.55861 0.40424 0.20053 0.0
H717 H 0.52609 0.41044 0.17685 0.0
H718 H 0.51233 0.40822 0.19495 0.0
H719 H 0.5446 0.40202 0.21885 0.0
C720 C 0.39214 0.75696 0.9713 0.0
C721 C 0.3932 0.76065 0.95871 0.0
C722 C 0.38444 0.74054 0.95173 0.0
C723 C 0.38943 0.75249 0.94901 0.0
C724 C 0.38361 0.73687 0.96437 0.0
C725 C 0.38742 0.745 0.97404 0.0
U726 U 0.40148 0.78955 0.98293 0.0
O727 O 0.39428 0.8008 0.99865 0.0
O728 O 0.41431 0.79569 0.99817 0.0
C729 C 0.40526 0.80127 1.00442 0.0
C730 C 0.39539 0.76566 0.98164 0.0
C731 C 0.40505 0.79966 0.01814 0.0
C732 C 0.40044 0.78772 0.03704 0.0
C733 C 0.40148 0.78834 0.02389 0.0
C734 C 0.40668 0.80957 0.03864 0.0
C735 C 0.40279 0.79844 0.04446 0.0
C736 C 0.40784 0.81015 0.02564 0.0
C737 C 0.40531 0.81521 0.95771 0.0
C738 C 0.40368 0.8378 0.96062 0.0
C739 C 0.41025 0.82932 0.94059 0.0
C740 C 0.40926 0.81717 0.94535 0.0
C741 C 0.40726 0.83978 0.94808 0.0
C742 C 0.40274 0.8256 0.96541 0.0
C743 C 0.40305 0.80226 0.96193 0.0
O744 O 0.40712 0.76971 0.98197 0.0
O745 O 0.38714 0.77459 0.98365 0.0
O746 O 0.39243 0.80031 0.96792 0.0
O747 O 0.41269 0.79639 0.96695 0.0
H748 H 0.39677 0.76989 0.95641 0.0
H749 H 0.39013 0.75565 0.9394 0.0
H750 H 0.38004 0.72767 0.9668 0.0
H751 H 0.38655 0.74199 0.98368 0.0
H752 H 0.39742 0.77904 0.04135 0.0
H753 H 0.39926 0.78014 0.01823 0.0
H754 H 0.40863 0.81792 0.04419 0.0
H755 H 0.41062 0.81894 0.02139 0.0
H756 H 0.40146 0.84566 0.96668 0.0
H757 H 0.41289 0.83048 0.93086 0.0
H758 H 0.41123 0.80927 0.93925 0.0
H759 H 0.39972 0.82428 0.97501 0.0
C760 C 0.03789 0.39808 0.77949 0.0
C761 C 0.04056 0.40406 0.79099 0.0
C762 C 0.06281 0.39832 0.78931 0.0
C763 C 0.05292 0.40421 0.79584 0.0
C764 C 0.06005 0.39256 0.77769 0.0
C765 C 0.04774 0.39244 0.77287 0.0
U766 U 1.00164 0.39913 0.78267 0.0
O767 O 0.98752 0.38565 0.77564 0.0
O768 O 0.98705 0.40518 0.76914 0.0
C769 C 0.98189 0.39395 0.76852 0.0
C770 C 0.0249 0.39708 0.77441 0.0
C771 C 0.97705 0.38946 0.7563 0.0
C772 C 0.97946 0.37974 0.73571 0.0
C773 C 0.98484 0.38505 0.74663 0.0
C774 C 0.95862 0.38327 0.74414 0.0
C775 C 0.96622 0.37865 0.73438 0.0
C776 C 0.96397 0.38867 0.75485 0.0
C777 C 0.98698 0.40654 0.81502 0.0
C778 C 0.96459 0.40852 0.81974 0.0
C779 C 0.97984 0.40687 0.83662 0.0
C780 C 0.98957 0.40614 0.82789 0.0
C781 C 0.96719 0.40814 0.83274 0.0
C782 C 0.97441 0.40771 0.81095 0.0
C783 C 0.99763 0.40527 0.80624 0.0
O784 O 0.01824 0.38755 0.77854 0.0
O785 O 0.01837 0.40752 0.77371 0.0
O786 O 0.99847 0.41357 0.7972 0.0
O787 O 1.00008 0.39379 0.8025 0.0
H788 H 0.03307 0.40843 0.7963 0.0
H789 H 0.05465 0.40866 0.80485 0.0
H790 H 0.06741 0.38813 0.77228 0.0
H791 H 0.0459 0.38779 0.76397 0.0
H792 H 0.98565 0.37642 0.72838 0.0
H793 H 0.99501 0.38553 0.74761 0.0
H794 H 0.94845 0.38235 0.74379 0.0
H795 H 0.9578 0.3919 0.76226 0.0
H796 H 0.955 0.40954 0.81637 0.0
H797 H 0.98226 0.40619 0.84647 0.0
H798 H 0.99918 0.40511 0.83123 0.0
H799 H 0.97219 0.40795 0.80102 0.0
C800 C 0.39094 0.25931 0.54142 0.0
C801 C 0.38911 0.25472 0.5536 0.0
C802 C 0.38352 0.27566 0.56097 0.0
C803 C 0.38545 0.26283 0.56331 0.0
C804 C 0.38569 0.28023 0.5488 0.0
C805 C 0.38936 0.27213 0.53913 0.0
U806 U 0.3998 0.22687 0.52977 0.0
O807 O 0.39238 0.21555 0.51401 0.0
O808 O 0.41255 0.22047 0.51482 0.0
C809 C 0.40345 0.21469 0.50861 0.0
C810 C 0.394 0.25076 0.53096 0.0
C811 C 0.40378 0.21505 0.49478 0.0
C812 C 0.4036 0.22568 0.47456 0.0
C813 C 0.40281 0.22615 0.48776 0.0
C814 C 0.40621 0.20316 0.47549 0.0
C815 C 0.40552 0.21415 0.46834 0.0
C816 C 0.40533 0.20361 0.48851 0.0
C817 C 0.40369 0.20175 0.55563 0.0
C818 C 0.40867 0.1797 0.55243 0.0
C819 C 0.40379 0.18744 0.57324 0.0
C820 C 0.40215 0.19947 0.56844 0.0
C821 C 0.40706 0.17737 0.56533 0.0
C822 C 0.407 0.19182 0.54761 0.0
C823 C 0.40139 0.21451 0.55099 0.0
O824 O 0.4057 0.24673 0.53063 0.0
O825 O 0.38565 0.24183 0.52883 0.0
O826 O 0.39076 0.21613 0.54484 0.0
O827 O 0.41101 0.22035 0.5459 0.0
H828 H 0.3903 0.24484 0.55556 0.0
H829 H 0.38382 0.25899 0.57255 0.0
H830 H 0.38456 0.2901 0.54675 0.0
H831 H 0.39082 0.27586 0.52982 0.0
H832 H 0.403 0.2343 0.46926 0.0
H833 H 0.40157 0.23509 0.49245 0.0
H834 H 0.40745 0.19412 0.47098 0.0
H835 H 0.406 0.19495 0.49374 0.0
H836 H 0.41126 0.17219 0.54608 0.0
H837 H 0.40221 0.18599 0.58315 0.0
H838 H 0.39951 0.207 0.57475 0.0
H839 H 0.40821 0.19342 0.53766 0.0
C840 C 0.47253 0.61405 0.27331 0.0
C841 C 0.47038 0.61372 0.28629 0.0
C842 C 0.44762 0.61456 0.28272 0.0
C843 C 0.45805 0.614 0.29094 0.0
C844 C 0.44983 0.61432 0.26972 0.0
C845 C 0.46217 0.61412 0.26507 0.0
U846 U 0.50858 0.61332 0.27706 0.0
O847 O 0.52276 0.62698 0.27088 0.0
O848 O 0.52352 0.60755 0.26385 0.0
C849 C 0.52848 0.61889 0.26354 0.0
C850 C 0.48543 0.61531 0.26827 0.0
C851 C 0.53338 0.62356 0.25145 0.0
C852 C 0.53652 0.64066 0.23665 0.0
C853 C 0.52954 0.63507 0.24631 0.0
C854 C 0.55063 0.6229 0.23655 0.0
C855 C 0.54748 0.63487 0.23205 0.0
C856 C 0.54369 0.61736 0.24616 0.0
C857 C 0.52338 0.60512 0.30878 0.0
C858 C 0.54606 0.60425 0.3123 0.0
C859 C 0.53182 0.60408 0.32998 0.0
C860 C 0.52152 0.60463 0.32176 0.0
C861 C 0.54424 0.60398 0.32538 0.0
C862 C 0.53572 0.60485 0.30407 0.0
C863 C 0.51236 0.60653 0.30043 0.0
O864 O 0.49201 0.62482 0.27278 0.0
O865 O 0.49206 0.60496 0.26734 0.0
O866 O 0.51141 0.59848 0.29108 0.0
O867 O 0.50986 0.6181 0.29712 0.0
H868 H 0.47825 0.61359 0.29282 0.0
H869 H 0.45667 0.61394 0.301 0.0
H870 H 0.44203 0.61478 0.26313 0.0
H871 H 0.46363 0.61438 0.25503 0.0
H872 H 0.53377 0.64984 0.23335 0.0
H873 H 0.52159 0.64007 0.2502 0.0
H874 H 0.5588 0.61801 0.23299 0.0
H875 H 0.54686 0.6085 0.24995 0.0
H876 H 0.55547 0.60406 0.30841 0.0
H877 H 0.53004 0.60413 0.33997 0.0
H878 H 0.51208 0.60494 0.32557 0.0
H879 H 0.53735 0.60526 0.29405 0.0
C880 C 0.11478 0.78019 0.99435 0.0
C881 C 0.1106 0.79235 0.99152 0.0
C882 C 0.11556 0.78901 0.96947 0.0
C883 C 0.11095 0.79671 0.97913 0.0
C884 C 0.11938 0.77676 0.97228 0.0
C885 C 0.11893 0.77237 0.98462 0.0
U886 U 0.11347 0.78622 0.02974 0.0
O887 O 0.10707 0.77406 0.04521 0.0
O888 O 0.12668 0.78075 0.04463 0.0
C889 C 0.11833 0.77376 0.05043 0.0
C890 C 0.11582 0.77586 0.00744 0.0
C891 C 0.12286 0.76155 0.05505 0.0
C892 C 0.13601 0.74299 0.05301 0.0
C893 C 0.1302 0.75349 0.04762 0.0
C894 C 0.12661 0.74813 0.07303 0.0
C895 C 0.13443 0.7404 0.06581 0.0
C896 C 0.1209 0.75862 0.0677 0.0
C897 C 0.1051 0.8195 0.04118 0.0
C898 C 0.10732 0.82689 0.06271 0.0
C899 C 0.09909 0.84077 0.04677 0.0
C900 C 0.10031 0.83123 0.0378 0.0
C901 C 0.10269 0.83877 0.05931 0.0
C902 C 0.1085 0.81732 0.05372 0.0
C903 C 0.10694 0.80993 0.03135 0.0
O904 O 0.12534 0.78066 0.01383 0.0
O905 O 0.1053 0.77548 0.0139 0.0
O906 O 0.09872 0.80065 0.03105 0.0
O907 O 0.11861 0.80622 0.02974 0.0
H908 H 0.10745 0.79856 0.99893 0.0
H909 H 0.10812 0.80625 0.97717 0.0
H910 H 0.12305 0.77071 0.96497 0.0
H911 H 0.12222 0.76298 0.98662 0.0
H912 H 0.14207 0.73715 0.04731 0.0
H913 H 0.13184 0.7556 0.03783 0.0
H914 H 0.12541 0.74638 0.08296 0.0
H915 H 0.11538 0.76477 0.07361 0.0
H916 H 0.11007 0.825 0.07232 0.0
H917 H 0.09567 0.84983 0.04379 0.0
H918 H 0.0977 0.8331 0.02815 0.0
H919 H 0.11222 0.8083 0.0565 0.0
C920 C 0.75449 0.98321 0.63599 0.0
C921 C 0.75291 0.97067 0.63214 0.0
C922 C 0.77194 0.96459 0.64374 0.0
C923 C 0.76157 0.96147 0.63592 0.0
C924 C 0.77334 0.97722 0.64755 0.0
C925 C 0.76479 0.98638 0.64366 0.0
U926 U 0.72258 0.99408 0.62276 0.0
O927 O 0.70976 0.00879 0.62958 0.0
O928 O 0.71781 0.01011 0.61066 0.0
C929 C 0.71042 0.01521 0.61911 0.0
C930 C 0.74544 0.99311 0.63242 0.0
C931 C 0.71014 0.02903 0.62005 0.0
C932 C 0.71907 0.04952 0.6255 0.0
C933 C 0.72015 0.03634 0.62487 0.0
C934 C 0.69807 0.04799 0.61658 0.0
C935 C 0.708 0.0555 0.62126 0.0
C936 C 0.69915 0.03498 0.61596 0.0
C937 C 0.69899 0.96808 0.61169 0.0
C938 C 0.67604 0.96645 0.61233 0.0
C939 C 0.68814 0.95094 0.60099 0.0
C940 C 0.69927 0.95736 0.60404 0.0
C941 C 0.67647 0.95514 0.60551 0.0
C942 C 0.68725 0.97288 0.61545 0.0
C943 C 0.71108 0.97297 0.61674 0.0
O944 O 0.74321 0.99443 0.62035 0.0
O945 O 0.73519 0.99374 0.63925 0.0
O946 O 0.71086 0.97793 0.62805 0.0
O947 O 0.71841 0.97908 0.60895 0.0
H948 H 0.74497 0.96799 0.62624 0.0
H949 H 0.76015 0.95195 0.6326 0.0
H950 H 0.78091 0.98009 0.65379 0.0
H951 H 0.76616 0.99598 0.64681 0.0
H952 H 0.72691 0.055 0.62916 0.0
H953 H 0.72873 0.0319 0.62811 0.0
H954 H 0.68928 0.05215 0.61353 0.0
H955 H 0.69129 0.02952 0.6123 0.0
H956 H 0.66716 0.96984 0.61598 0.0
H957 H 0.68872 0.94227 0.59568 0.0
H958 H 0.70819 0.95351 0.601 0.0
H959 H 0.68678 0.98119 0.62132 0.0
C960 C 0.75916 0.98169 0.3837 0.0
C961 C 0.76037 0.96911 0.38735 0.0
C962 C 0.74136 0.96343 0.37539 0.0
C963 C 0.75153 0.96007 0.38326 0.0
C964 C 0.74034 0.97608 0.37177 0.0
C965 C 0.74908 0.98507 0.37592 0.0
U966 U 0.79132 0.99287 0.39695 0.0
O967 O 0.80373 0.00798 0.39033 0.0
O968 O 0.79581 0.00901 0.40929 0.0
C969 C 0.80272 0.01457 0.40073 0.0
C970 C 0.76833 0.99148 0.3876 0.0
C971 C 0.80123 0.02823 0.39927 0.0
C972 C 0.79172 0.04645 0.3894 0.0
C973 C 0.79179 0.03348 0.39168 0.0
C974 C 0.81019 0.04901 0.40265 0.0
C975 C 0.80109 0.05435 0.39468 0.0
C976 C 0.81024 0.03612 0.40491 0.0
C977 C 0.81619 0.96847 0.40687 0.0
C978 C 0.83909 0.97066 0.40741 0.0
C979 C 0.82908 0.95265 0.41697 0.0
C980 C 0.81724 0.95727 0.41359 0.0
C981 C 0.84018 0.95907 0.4136 0.0
C982 C 0.82718 0.97532 0.40407 0.0
C983 C 0.80364 0.97222 0.40219 0.0
O984 O 0.77074 0.99245 0.39969 0.0
O985 O 0.77848 0.99244 0.38065 0.0
O986 O 0.8033 0.97723 0.39096 0.0
O987 O 0.79622 0.97786 0.41027 0.0
H988 H 0.76813 0.96629 0.39333 0.0
H989 H 0.75262 0.95049 0.38638 0.0
H990 H 0.73289 0.97908 0.3655 0.0
H991 H 0.74802 0.99471 0.37293 0.0
H992 H 0.78451 0.05026 0.38331 0.0
H993 H 0.78473 0.02752 0.38725 0.0
H994 H 0.81769 0.05469 0.4067 0.0
H995 H 0.81765 0.03224 0.41073 0.0
H996 H 0.84742 0.97584 0.40464 0.0
H997 H 0.82953 0.94386 0.42199 0.0
H998 H 0.80889 0.95189 0.41593 0.0
H999 H 0.82659 0.98405 0.39895 0.0
C1000 C 0.7861 0.98703 0.11354 0.0
C1001 C 0.79886 0.98566 0.11044 0.0
C1002 C 0.79797 0.96346 0.11586 0.0
C1003 C 0.80473 0.974 0.11159 0.0
C1004 C 0.78498 0.96467 0.11813 0.0
C1005 C 0.77911 0.9764 0.11704 0.0
U1006 U 0.78916 0.02243 0.11029 0.0
O1007 O 0.7755 0.03697 0.10452 0.0
O1008 O 0.7842 0.03763 0.12325 0.0
C1009 C 0.7761 0.04272 0.11546 0.0
C1010 C 0.78047 0.99965 0.11438 0.0
C1011 C 0.76422 0.04721 0.12104 0.0
C1012 C 0.74818 0.04606 0.13727 0.0
C1013 C 0.75787 0.04041 0.13036 0.0
C1014 C 0.75046 0.06497 0.125 0.0
C1015 C 0.74463 0.05849 0.13482 0.0
C1016 C 0.7602 0.05939 0.1182 0.0
C1017 C 0.82142 0.03492 0.09878 0.0
C1018 C 0.82974 0.0561 0.1015 0.0
C1019 C 0.84122 0.04094 0.08907 0.0
C1020 C 0.83189 0.03194 0.09139 0.0
C1021 C 0.84033 0.05304 0.09423 0.0
C1022 C 0.82029 0.04712 0.10369 0.0
C1023 C 0.81228 0.02491 0.10178 0.0
O1024 O 0.78538 1.00687 0.12319 0.0
O1025 O 0.7788 1.00558 0.10372 0.0
O1026 O 0.80234 0.02391 0.0944 0.0
O1027 O 0.80959 0.02359 0.11371 0.0
H1028 H 0.80442 0.99373 0.10766 0.0
H1029 H 0.81472 0.97332 0.1096 0.0
H1030 H 0.77953 0.95675 0.12146 0.0
H1031 H 0.76924 0.97726 0.11945 0.0
H1032 H 0.74381 0.04092 0.14484 0.0
H1033 H 0.76083 0.031 0.13272 0.0
H1034 H 0.74798 0.07462 0.12308 0.0
H1035 H 0.76505 0.06485 0.11115 0.0
H1036 H 0.82882 0.06541 0.10552 0.0
H1037 H 0.84935 0.03832 0.08354 0.0
H1038 H 0.83297 0.02256 0.0876 0.0
H1039 H 0.81225 0.04961 0.1094 0.0
C1040 C 0.72361 0.98311 0.89815 0.0
C1041 C 0.71147 0.98112 0.90294 0.0
C1042 C 0.71215 0.95913 0.89647 0.0
C1043 C 0.7058 0.96924 0.90213 0.0
C1044 C 0.7245 0.96112 0.89207 0.0
C1045 C 0.73015 0.973 0.89289 0.0
U1046 U 0.72088 0.01839 0.90314 0.0
O1047 O 0.73487 0.03261 0.90931 0.0
O1048 O 0.72594 0.03393 0.89071 0.0
C1049 C 0.7343 0.03865 0.8986 0.0
C1050 C 0.72913 0.99582 0.8977 0.0
C1051 C 0.74629 0.04289 0.89308 0.0
C1052 C 0.76308 0.041 0.87769 0.0
C1053 C 0.75274 0.03579 0.88404 0.0
C1054 C 0.76084 0.06019 0.88971 0.0
C1055 C 0.76709 0.05338 0.88028 0.0
C1056 C 0.7506 0.05499 0.89604 0.0
C1057 C 0.68955 0.03114 0.91584 0.0
C1058 C 0.68326 0.05301 0.91481 0.0
C1059 C 0.66936 0.03768 0.92427 0.0
C1060 C 0.67821 0.02829 0.92192 0.0
C1061 C 0.67166 0.05012 0.92055 0.0
C1062 C 0.69213 0.0436 0.91249 0.0
C1063 C 0.69809 0.02085 0.91238 0.0
O1064 O 0.72393 1.00327 0.88941 0.0
O1065 O 0.73122 1.00136 0.90859 0.0
O1066 O 0.70818 0.01947 0.91943 0.0
O1067 O 0.70041 0.01976 0.90033 0.0
H1068 H 0.70626 0.98883 0.90704 0.0
H1069 H 0.69636 0.96801 0.90578 0.0
H1070 H 0.72963 0.95362 0.88753 0.0
H1071 H 0.7395 0.97438 0.88907 0.0
H1072 H 0.76777 0.03542 0.87062 0.0
H1073 H 0.74956 0.0264 0.88163 0.0
H1074 H 0.76346 0.0698 0.89185 0.0
H1075 H 0.7457 0.06065 0.90291 0.0
H1076 H 0.6854 0.06252 0.91197 0.0
H1077 H 0.6605 0.03508 0.92856 0.0
H1078 H 0.67604 0.01872 0.92453 0.0
H1079 H 0.70086 0.04598 0.90781 0.0
C1080 C 0.62668 0.75777 0.97283 0.0
C1081 C 0.62705 0.75329 0.96043 0.0
C1082 C 0.63504 0.77352 0.95327 0.0
C1083 C 0.63119 0.76108 0.95075 0.0
C1084 C 0.63433 0.77804 0.96568 0.0
C1085 C 0.63021 0.77022 0.97537 0.0
U1086 U 0.61653 0.72558 0.98398 0.0
O1087 O 0.62264 0.71417 0.99992 0.0
O1088 O 0.60282 0.71989 0.99844 0.0
C1089 C 0.6115 0.71434 1.00527 0.0
C1090 C 0.62306 0.74938 0.98316 0.0
C1091 C 0.6115 0.71696 0.01888 0.0
C1092 C 0.62112 0.72659 0.03738 0.0
C1093 C 0.61965 0.72593 0.02431 0.0
C1094 C 0.60556 0.71006 0.03974 0.0
C1095 C 0.61432 0.71843 0.04518 0.0
C1096 C 0.60422 0.70929 0.0267 0.0
C1097 C 0.61301 0.70073 0.95715 0.0
C1098 C 0.60954 0.67818 0.95866 0.0
C1099 C 0.60933 0.68827 0.93836 0.0
C1100 C 0.61176 0.69982 0.94411 0.0
C1101 C 0.60811 0.67732 0.94554 0.0
C1102 C 0.61193 0.68984 0.96446 0.0
C1103 C 0.61564 0.71319 0.96261 0.0
O1104 O 0.61126 0.74551 0.98301 0.0
O1105 O 0.63108 0.74033 0.98553 0.0
O1106 O 0.62592 0.71432 0.96946 0.0
O1107 O 0.60596 0.71928 0.96723 0.0
H1108 H 0.6243 0.74371 0.95828 0.0
H1109 H 0.63143 0.75735 0.94128 0.0
H1110 H 0.63732 0.78751 0.96798 0.0
H1111 H 0.62999 0.77384 0.98488 0.0
H1112 H 0.62792 0.73312 0.04137 0.0
H1113 H 0.62532 0.73199 0.01844 0.0
H1114 H 0.60034 0.70355 0.04553 0.0
H1115 H 0.59794 0.70226 0.0227 0.0
H1116 H 0.60864 0.66989 0.96443 0.0
H1117 H 0.60854 0.6879 0.92823 0.0
H1118 H 0.61269 0.70809 0.93832 0.0
H1119 H 0.61291 0.69038 0.97457 0.0
C1120 C 0.97528 0.10977 0.7843 0.0
C1121 C 0.96815 0.10453 0.79398 0.0
C1122 C 0.9491 0.11396 0.78562 0.0
C1123 C 0.95521 0.10663 0.79466 0.0
C1124 C 0.95607 0.11866 0.77547 0.0
C1125 C 0.96916 0.11663 0.77484 0.0
U1126 U 0.011 0.11311 0.7747 0.0
O1127 O 0.0113 0.1291 0.76178 0.0
O1128 O 0.01233 0.10994 0.75429 0.0
C1129 C 0.01322 0.12199 0.75187 0.0
C1130 C 0.98911 0.10894 0.7854 0.0
C1131 C 0.0239 0.12587 0.74394 0.0
C1132 C 0.03141 0.13477 0.7244 0.0
C1133 C 0.02156 0.13014 0.73175 0.0
C1134 C 0.04623 0.13058 0.74121 0.0
C1135 C 0.04385 0.13527 0.7291 0.0
C1136 C 0.03633 0.12595 0.74857 0.0
C1137 C 0.03542 0.10484 0.80045 0.0
C1138 C 0.05206 0.09663 0.81373 0.0
C1139 C 0.03346 0.10561 0.82322 0.0
C1140 C 0.02843 0.10786 0.81123 0.0
C1141 C 0.04554 0.1004 0.82455 0.0
C1142 C 0.04706 0.09885 0.80182 0.0
C1143 C 0.03157 0.10891 0.78781 0.0
O1144 O 0.99532 0.11961 0.78638 0.0
O1145 O 0.99494 0.10045 0.77862 0.0
O1146 O 0.02631 0.1004 0.78047 0.0
O1147 O 0.02616 0.11995 0.7871 0.0
H1148 H 0.97269 0.09925 0.80138 0.0
H1149 H 0.95003 0.10292 0.80256 0.0
H1150 H 0.95152 0.12437 0.76842 0.0
H1151 H 0.97454 0.12078 0.76731 0.0
H1152 H 0.02927 0.13802 0.71503 0.0
H1153 H 0.01205 0.13008 0.72798 0.0
H1154 H 0.05567 0.13085 0.74514 0.0
H1155 H 0.03833 0.12268 0.75798 0.0
H1156 H 0.06132 0.09244 0.81448 0.0
H1157 H 0.02824 0.10862 0.83139 0.0
H1158 H 0.01937 0.11244 0.81038 0.0
H1159 H 0.05257 0.09639 0.79364 0.0
C1160 C 0.89032 0.25882 0.47134 0.0
C1161 C 0.8873 0.26374 0.45951 0.0
C1162 C 0.8817 0.24287 0.45186 0.0
C1163 C 0.88295 0.25584 0.44987 0.0
C1164 C 0.88517 0.23794 0.4636 0.0
C1165 C 0.8894 0.24587 0.47327 0.0
U1166 U 0.90116 0.29076 0.48282 0.0
O1167 O 0.89468 0.30258 0.49839 0.0
O1168 O 0.91441 0.29645 0.49788 0.0
C1169 C 0.90562 0.30232 0.50423 0.0
C1170 C 0.89397 0.26719 0.4818 0.0
C1171 C 0.90515 0.3 0.51783 0.0
C1172 C 0.89639 0.28934 0.53597 0.0
C1173 C 0.89784 0.29028 0.52292 0.0
C1174 C 0.91003 0.30744 0.53888 0.0
C1175 C 0.9023 0.29807 0.54408 0.0
C1176 C 0.91141 0.3084 0.5259 0.0
C1177 C 0.90664 0.31535 0.45671 0.0
C1178 C 0.90691 0.33814 0.45825 0.0
C1179 C 0.91407 0.32786 0.43928 0.0
C1180 C 0.91154 0.31618 0.44458 0.0
C1181 C 0.91169 0.33897 0.44599 0.0
C1182 C 0.90446 0.32639 0.46362 0.0
C1183 C 0.90339 0.30284 0.46155 0.0
O1184 O 0.90589 0.27065 0.48212 0.0
O1185 O 0.88618 0.2765 0.4839 0.0
O1186 O 0.89272 0.30189 0.4677 0.0
O1187 O 0.91264 0.29646 0.46663 0.0
H1188 H 0.88809 0.27372 0.45781 0.0
H1189 H 0.88053 0.25986 0.44087 0.0
H1190 H 0.88424 0.22799 0.46543 0.0
H1191 H 0.89172 0.2419 0.48232 0.0
H1192 H 0.89045 0.28196 0.53969 0.0
H1193 H 0.89295 0.28367 0.51682 0.0
H1194 H 0.91453 0.31446 0.5448 0.0
H1195 H 0.91703 0.31601 0.52214 0.0
H1196 H 0.90505 0.34656 0.46365 0.0
H1197 H 0.91757 0.32819 0.42976 0.0
H1198 H 0.9132 0.30778 0.43908 0.0
H1199 H 0.90071 0.32593 0.47303 0.0
C1200 C 0.49547 0.87818 0.77486 0.0
C1201 C 0.49934 0.87792 0.78748 0.0
C1202 C 0.47984 0.88806 0.79374 0.0
C1203 C 0.4916 0.8829 0.79684 0.0
C1204 C 0.47579 0.8879 0.78118 0.0
C1205 C 0.48359 0.88306 0.77179 0.0
U1206 U 0.52748 0.86622 0.76448 0.0
O1207 O 0.533 0.85367 0.74893 0.0
O1208 O 0.54012 0.87306 0.74977 0.0
C1209 C 0.5396 0.8625 0.74337 0.0
C1210 C 0.50413 0.87433 0.76482 0.0
C1211 C 0.53796 0.86374 0.72972 0.0
C1212 C 0.5285 0.87371 0.71148 0.0
C1213 C 0.52869 0.87151 0.72445 0.0
C1214 C 0.54636 0.85986 0.70893 0.0
C1215 C 0.53745 0.868 0.70366 0.0
C1216 C 0.54664 0.8578 0.72184 0.0
C1217 C 0.55218 0.85945 0.79008 0.0
C1218 C 0.57494 0.8595 0.78721 0.0
C1219 C 0.56607 0.8536 0.80723 0.0
C1220 C 0.55393 0.85538 0.80242 0.0
C1221 C 0.57674 0.85591 0.79978 0.0
C1222 C 0.56275 0.86123 0.78238 0.0
C1223 C 0.5394 0.86278 0.78583 0.0
O1224 O 0.51397 0.88172 0.76342 0.0
O1225 O 0.50702 0.86235 0.76442 0.0
O1226 O 0.53282 0.8539 0.78019 0.0
O1227 O 0.53841 0.87375 0.78037 0.0
H1228 H 0.50849 0.87421 0.79002 0.0
H1229 H 0.49488 0.88293 0.80649 0.0
H1230 H 0.4668 0.89195 0.7786 0.0
H1231 H 0.4805 0.88342 0.7621 0.0
H1232 H 0.52157 0.88004 0.7076 0.0
H1233 H 0.5219 0.87617 0.7304 0.0
H1234 H 0.55348 0.85553 0.70311 0.0
H1235 H 0.55394 0.85189 0.72575 0.0
H1236 H 0.58295 0.86121 0.78119 0.0
H1237 H 0.56709 0.85098 0.81698 0.0
H1238 H 0.54589 0.854 0.80851 0.0
H1239 H 0.56158 0.86431 0.77278 0.0
C1240 C 0.98897 0.14243 0.2236 0.0
C1241 C 0.97594 0.1428 0.22112 0.0
C1242 C 0.97989 0.14417 0.19856 0.0
C1243 C 0.97145 0.14364 0.20872 0.0
C1244 C 0.99292 0.14401 0.20118 0.0
C1245 C 0.99738 0.14314 0.21353 0.0
U1246 U 0.98587 0.14338 0.25966 0.0
O1247 O 0.99313 0.13027 0.27386 0.0
O1248 O 0.99923 0.15005 0.27424 0.0
C1249 C 0.99985 0.139 0.2796 0.0
C1250 C 0.99403 0.14093 0.23649 0.0
C1251 C 0.01177 0.13538 0.28583 0.0
C1252 C 0.03208 0.12474 0.28685 0.0
C1253 C 0.02135 0.12847 0.27995 0.0
C1254 C 0.02364 0.1348 0.30538 0.0
C1255 C 0.03334 0.12788 0.29969 0.0
C1256 C 0.01308 0.13852 0.29853 0.0
C1257 C 0.95439 0.15317 0.27448 0.0
C1258 C 0.94926 0.15094 0.29659 0.0
C1259 C 0.93484 0.16165 0.28265 0.0
C1260 C 0.94308 0.15963 0.27266 0.0
C1261 C 0.9377 0.15716 0.29473 0.0
C1262 C 0.95754 0.14897 0.28656 0.0
C1263 C 0.96256 0.15068 0.2636 0.0
O1264 O 0.99548 0.15127 0.24314 0.0
O1265 O 0.98931 0.1316 0.24301 0.0
O1266 O 0.96571 0.13891 0.26177 0.0
O1267 O 0.97201 0.15853 0.26204 0.0
H1268 H 0.96925 0.14233 0.22875 0.0
H1269 H 0.96136 0.1439 0.2071 0.0
H1270 H 0.99972 0.14423 0.19364 0.0
H1271 H 0.00746 0.14284 0.21522 0.0
H1272 H 0.03938 0.11947 0.28215 0.0
H1273 H 0.0205 0.12589 0.27014 0.0
H1274 H 0.02403 0.13713 0.31527 0.0
H1275 H 1.00574 0.1437 0.3033 0.0
H1276 H 0.95177 0.14728 0.30572 0.0
H1277 H 0.9262 0.16672 0.28089 0.0
H1278 H 0.94054 0.16304 0.26343 0.0
H1279 H 0.96628 0.14401 0.28818 0.0
C1280 C 0.49724 0.13802 0.73834 0.0
C1281 C 0.50092 0.13997 0.72587 0.0
C1282 C 0.48206 0.129 0.71828 0.0
C1283 C 0.49339 0.13553 0.71594 0.0
C1284 C 0.47824 0.12747 0.73082 0.0
C1285 C 0.48577 0.13193 0.74074 0.0
U1286 U 0.52943 0.14879 0.74989 0.0
O1287 O 0.53557 0.16022 0.76612 0.0
O1288 O 0.54196 0.1407 0.76422 0.0
C1289 C 0.54218 0.15103 0.771 0.0
C1290 C 0.50583 0.14122 0.74882 0.0
C1291 C 0.54212 0.14956 0.78475 0.0
C1292 C 0.53199 0.14968 0.80525 0.0
C1293 C 0.53113 0.15013 0.79206 0.0
C1294 C 0.55469 0.1478 0.80375 0.0
C1295 C 0.54386 0.1488 0.81118 0.0
C1296 C 0.55382 0.14814 0.79071 0.0
C1297 C 0.55406 0.15596 0.72437 0.0
C1298 C 0.57675 0.15687 0.72787 0.0
C1299 C 0.56825 0.15924 0.70687 0.0
C1300 C 0.55603 0.15795 0.71154 0.0
C1301 C 0.5787 0.15845 0.71495 0.0
C1302 C 0.56447 0.15571 0.73258 0.0
C1303 C 0.54123 0.15294 0.72867 0.0
O1304 O 0.5154 0.13355 0.75009 0.0
O1305 O 0.5091 0.1531 0.74993 0.0
O1306 O 0.53523 0.16175 0.73487 0.0
O1307 O 0.53987 0.14177 0.73362 0.0
H1308 H 0.50978 0.14462 0.72382 0.0
H1309 H 0.49653 0.13706 0.70642 0.0
H1310 H 0.46966 0.12239 0.73301 0.0
H1311 H 0.48282 0.13026 0.7503 0.0
H1312 H 0.52351 0.15051 0.8108 0.0
H1313 H 0.52199 0.1512 0.78762 0.0
H1314 H 0.56393 0.14704 0.80807 0.0
H1315 H 0.5624 0.14764 0.78526 0.0
H1316 H 0.58472 0.15624 0.73424 0.0
H1317 H 0.56958 0.16032 0.69687 0.0
H1318 H 0.54812 0.15806 0.70506 0.0
H1319 H 0.56312 0.15417 0.74252 0.0
C1320 C 0.13922 0.23327 0.97261 0.0
C1321 C 0.14536 0.23062 0.96127 0.0
C1322 C 0.14053 0.20835 0.96357 0.0
C1323 C 0.14609 0.21824 0.95683 0.0
C1324 C 0.1343 0.21107 0.97485 0.0
C1325 C 0.13371 0.22342 0.97935 0.0
U1326 U 0.14246 0.26878 0.96845 0.0
O1327 O 0.12954 0.28395 0.97374 0.0
O1328 O 0.14867 0.28348 0.9818 0.0
C1329 C 0.13776 0.28927 0.98139 0.0
C1330 C 0.13823 0.24623 0.97741 0.0
C1331 C 0.13276 0.29442 0.99319 0.0
C1332 C 0.12515 0.29265 0.01464 0.0
C1333 C 0.1302 0.28707 1.00378 0.0
C1334 C 0.12504 0.31276 1.00422 0.0
C1335 C 0.1225 0.30563 0.01501 0.0
C1336 C 0.1302 0.30726 0.99356 0.0
C1337 C 0.15338 0.282 0.93696 0.0
C1338 C 0.14968 0.30348 0.93034 0.0
C1339 C 0.16208 0.28958 0.91734 0.0
C1340 C 0.1605 0.27998 0.9261 0.0
C1341 C 0.15649 0.30137 0.91923 0.0
C1342 C 0.14818 0.29389 0.93915 0.0
C1343 C 0.15079 0.27141 0.94543 0.0
O1344 O 0.14895 0.25232 0.97903 0.0
O1345 O 0.12945 0.25307 0.9721 0.0
O1346 O 0.13885 0.26966 0.94818 0.0
O1347 O 0.15832 0.27031 0.95519 0.0
H1348 H 0.14957 0.23811 0.95586 0.0
H1349 H 0.15084 0.21641 0.94804 0.0
H1350 H 0.13003 0.20362 0.98027 0.0
H1351 H 0.12892 0.22528 0.98811 0.0
H1352 H 0.12344 0.28681 0.02274 0.0
H1353 H 0.13208 0.27709 1.00364 0.0
H1354 H 0.12283 0.32265 1.00382 0.0
H1355 H 0.13204 0.31307 0.98546 0.0
H1356 H 0.1454 0.31251 0.93214 0.0
H1357 H 0.16729 0.28762 0.90884 0.0
H1358 H 0.16455 0.27086 0.92423 0.0
H1359 H 0.1427 0.29566 0.94752 0.0
C1360 C 0.37627 0.73163 0.50947 0.0
C1361 C 0.3739 0.71891 0.50678 0.0
C1362 C 0.38461 0.71278 0.52615 0.0
C1363 C 0.37804 0.70956 0.51504 0.0
C1364 C 0.38682 0.72557 0.52879 0.0
C1365 C 0.3827 0.73486 0.52054 0.0
U1366 U 0.36245 0.74299 0.47819 0.0
O1367 O 0.35178 0.76011 0.4737 0.0
O1368 O 0.37011 0.75663 0.46482 0.0
C1369 C 0.36054 0.76429 0.46606 0.0
C1370 C 0.37275 0.74164 0.50064 0.0
C1371 C 0.36357 0.77782 0.46625 0.0
C1372 C 0.3663 0.79817 0.47654 0.0
C1373 C 0.36379 0.7852 0.47724 0.0
C1374 C 0.36857 0.79629 0.45402 0.0
C1375 C 0.36854 0.80389 0.46485 0.0
C1376 C 0.36607 0.78348 0.45472 0.0
C1377 C 0.35049 0.71791 0.45441 0.0
C1378 C 0.35286 0.71675 0.43169 0.0
C1379 C 0.34089 0.70082 0.4426 0.0
C1380 C 0.34296 0.70709 0.45396 0.0
C1381 C 0.34638 0.70521 0.43147 0.0
C1382 C 0.35493 0.72306 0.44312 0.0
C1383 C 0.35521 0.72227 0.46676 0.0
O1384 O 0.3793 0.74196 0.49023 0.0
O1385 O 0.3606 0.7434 0.49879 0.0
O1386 O 0.34756 0.72899 0.47373 0.0
O1387 O 0.36693 0.72632 0.46703 0.0
H1388 H 0.36897 0.71622 0.49823 0.0
H1389 H 0.37607 0.69983 0.51277 0.0
H1390 H 0.39202 0.72842 0.53711 0.0
H1391 H 0.38472 0.74461 0.52273 0.0
H1392 H 0.36623 0.80374 0.48506 0.0
H1393 H 0.36192 0.78099 0.48626 0.0
H1394 H 0.37059 0.80023 0.4449 0.0
H1395 H 0.36601 0.77796 0.44615 0.0
H1396 H 0.35718 0.72034 0.42325 0.0
H1397 H 0.33574 0.69201 0.44266 0.0
H1398 H 0.33939 0.70299 0.46253 0.0
H1399 H 0.36071 0.73148 0.44323 0.0
C1400 C 0.74256 0.53157 0.86703 0.0
C1401 C 0.73973 0.54384 0.86324 0.0
C1402 C 0.71713 0.53945 0.86504 0.0
C1403 C 0.72713 0.54775 0.86224 0.0
C1404 C 0.72013 0.52718 0.86885 0.0
C1405 C 0.73267 0.5233 0.86979 0.0
U1406 U 0.77843 0.53699 0.86666 0.0
O1407 O 0.79298 0.53062 0.87992 0.0
O1408 O 0.79378 0.52469 0.86017 0.0
C1409 C 0.79896 0.52405 0.87138 0.0
C1410 C 0.75568 0.52723 0.86846 0.0
C1411 C 0.80413 0.51188 0.87534 0.0
C1412 C 0.80228 0.49106 0.8845 0.0
C1413 C 0.79662 0.50208 0.87999 0.0
C1414 C 0.82287 0.49959 0.87959 0.0
C1415 C 0.81553 0.48973 0.88444 0.0
C1416 C 0.81724 0.51047 0.87507 0.0
C1417 C 0.79185 0.56952 0.85914 0.0
C1418 C 0.814 0.57392 0.85519 0.0
C1419 C 0.79987 0.59089 0.86043 0.0
C1420 C 0.78986 0.58234 0.86119 0.0
C1421 C 0.81213 0.58684 0.85745 0.0
C1422 C 0.80399 0.56534 0.85614 0.0
C1423 C 0.7812 0.56069 0.86057 0.0
O1424 O 0.76242 0.52671 0.85815 0.0
O1425 O 0.76195 0.53194 0.87807 0.0
O1426 O 0.77911 0.55693 0.87209 0.0
O1427 O 0.78035 0.55157 0.85225 0.0
H1428 H 0.74726 0.55039 0.86109 0.0
H1429 H 0.72524 0.55722 0.85917 0.0
H1430 H 0.71278 0.52058 0.87135 0.0
H1431 H 0.73465 0.51382 0.87281 0.0
H1432 H 0.79631 0.48363 0.88805 0.0
H1433 H 0.78646 0.50301 0.88029 0.0
H1434 H 0.83307 0.49912 0.87963 0.0
H1435 H 0.82321 0.51796 0.87162 0.0
H1436 H 0.82319 0.57037 0.85265 0.0
H1437 H 0.79799 0.60064 0.86253 0.0
H1438 H 0.78056 0.58573 0.86359 0.0
H1439 H 0.80576 0.55546 0.85458 0.0
C1440 C 0.7248 0.50826 0.14603 0.0
C1441 C 0.71236 0.51249 0.14746 0.0
C1442 C 0.7042 0.49273 0.13898 0.0
C1443 C 0.70216 0.5048 0.14399 0.0
C1444 C 0.7167 0.48853 0.13767 0.0
C1445 C 0.72689 0.49623 0.14115 0.0
U1446 U 0.73679 0.53999 0.15671 0.0
O1447 O 0.75279 0.54587 0.16871 0.0
O1448 O 0.75154 0.5524 0.14922 0.0
C1449 C 0.75814 0.55234 0.15969 0.0
C1450 C 0.73557 0.51655 0.14913 0.0
C1451 C 0.77195 0.55152 0.15834 0.0
C1452 C 0.79195 0.54037 0.15903 0.0
C1453 C 0.77874 0.54038 0.16018 0.0
C1454 C 0.79156 0.56252 0.15411 0.0
C1455 C 0.79847 0.55146 0.15589 0.0
C1456 C 0.77849 0.56253 0.15534 0.0
C1457 C 0.71013 0.56413 0.16299 0.0
C1458 C 0.70969 0.5867 0.15952 0.0
C1459 C 0.69135 0.57602 0.16785 0.0
C1460 C 0.69786 0.5647 0.16772 0.0
C1461 C 0.697 0.58701 0.16326 0.0
C1462 C 0.71622 0.57528 0.15934 0.0
C1463 C 0.71536 0.55167 0.16017 0.0
O1464 O 0.7371 0.52603 0.14146 0.0
O1465 O 0.7367 0.51979 0.16101 0.0
O1466 O 0.7213 0.5458 0.16923 0.0
O1467 O 0.72077 0.55047 0.14919 0.0
H1468 H 0.71056 0.5218 0.15115 0.0
H1469 H 0.69269 0.50838 0.14504 0.0
H1470 H 0.71862 0.47922 0.13407 0.0
H1471 H 0.73641 0.49281 0.13998 0.0
H1472 H 0.79705 0.53171 0.16042 0.0
H1473 H 0.77386 0.53175 0.16251 0.0
H1474 H 0.79631 0.57125 0.1519 0.0
H1475 H 0.77345 0.57125 0.154 0.0
H1476 H 0.71421 0.59505 0.15591 0.0
H1477 H 0.68159 0.57605 0.17083 0.0
H1478 H 0.693 0.55621 0.17057 0.0
H1479 H 0.72572 0.57503 0.15566 0.0
C1480 C 0.72633 0.50835 0.36958 0.0
C1481 C 0.71404 0.50407 0.37207 0.0
C1482 C 0.70802 0.52498 0.37921 0.0
C1483 C 0.70495 0.51231 0.37684 0.0
C1484 C 0.72017 0.5293 0.37605 0.0
C1485 C 0.72923 0.52107 0.37133 0.0
U1486 U 0.73668 0.47572 0.35976 0.0
O1487 O 0.75175 0.46892 0.34732 0.0
O1488 O 0.7518 0.46383 0.36727 0.0
C1489 C 0.75759 0.463 0.35643 0.0
C1490 C 0.73642 0.49953 0.36614 0.0
C1491 C 0.77148 0.46364 0.3567 0.0
C1492 C 0.79154 0.4739 0.36162 0.0
C1493 C 0.77826 0.47411 0.36126 0.0
C1494 C 0.79123 0.45291 0.35283 0.0
C1495 C 0.79814 0.46329 0.35732 0.0
C1496 C 0.77808 0.45309 0.35254 0.0
C1497 C 0.70984 0.45137 0.35511 0.0
C1498 C 0.71215 0.4296 0.34852 0.0
C1499 C 0.69221 0.43691 0.35674 0.0
C1500 C 0.69727 0.44892 0.35824 0.0
C1501 C 0.6996 0.42714 0.35197 0.0
C1502 C 0.71729 0.44167 0.35016 0.0
C1503 C 0.7149 0.46402 0.35757 0.0
O1504 O 0.73822 0.49042 0.37419 0.0
O1505 O 0.73655 0.49569 0.35439 0.0
O1506 O 0.72046 0.46969 0.34817 0.0
O1507 O 0.72087 0.46551 0.3683 0.0
H1508 H 0.7116 0.49427 0.37073 0.0
H1509 H 0.6957 0.50865 0.37913 0.0
H1510 H 0.72277 0.53906 0.37742 0.0
H1511 H 0.73862 0.52458 0.36938 0.0
H1512 H 0.79664 0.48205 0.36512 0.0
H1513 H 0.77331 0.48234 0.36455 0.0
H1514 H 0.796 0.44452 0.34967 0.0
H1515 H 0.77303 0.44487 0.34913 0.0
H1516 H 0.718 0.42214 0.34487 0.0
H1517 H 0.6825 0.43521 0.35939 0.0
H1518 H 0.69139 0.45629 0.36205 0.0
H1519 H 0.72705 0.44341 0.34775 0.0
C1520 C 0.74299 0.48318 0.64527 0.0
C1521 C 0.74136 0.47025 0.64707 0.0
C1522 C 0.71853 0.47253 0.6456 0.0
C1523 C 0.72926 0.46497 0.64723 0.0
C1524 C 0.72022 0.48555 0.64421 0.0
C1525 C 0.73235 0.49082 0.64401 0.0
U1526 U 0.7783 0.47869 0.64591 0.0
O1527 O 0.79313 0.48514 0.63314 0.0
O1528 O 0.79392 0.49055 0.65306 0.0
C1529 C 0.79905 0.49162 0.64191 0.0
C1530 C 0.75575 0.48858 0.64411 0.0
C1531 C 0.80373 0.50414 0.63832 0.0
C1532 C 0.80152 0.5241 0.62754 0.0
C1533 C 0.79619 0.51287 0.63197 0.0
C1534 C 0.82179 0.51802 0.63607 0.0
C1535 C 0.81446 0.52673 0.62939 0.0
C1536 C 0.81647 0.50691 0.6405 0.0
C1537 C 0.7893 0.44492 0.65316 0.0
C1538 C 0.81106 0.43797 0.65462 0.0
C1539 C 0.79398 0.42291 0.65645 0.0
C1540 C 0.78524 0.43253 0.65487 0.0
C1541 C 0.807 0.42549 0.65635 0.0
C1542 C 0.80226 0.44763 0.65304 0.0
C1543 C 0.77975 0.45473 0.65141 0.0
O1544 O 0.7625 0.48891 0.65449 0.0
O1545 O 0.76213 0.48452 0.63439 0.0
O1546 O 0.77838 0.4589 0.63992 0.0
O1547 O 0.77951 0.46367 0.65994 0.0
H1548 H 0.74948 0.4642 0.64812 0.0
H1549 H 0.7283 0.45494 0.64851 0.0
H1550 H 0.71218 0.49162 0.64283 0.0
H1551 H 0.73344 0.50082 0.6426 0.0
H1552 H 0.79556 0.53063 0.62256 0.0
H1553 H 0.78631 0.51089 0.63019 0.0
H1554 H 0.8318 0.51951 0.63748 0.0
H1555 H 0.82246 0.50025 0.64529 0.0
H1556 H 0.82102 0.44029 0.65458 0.0
H1557 H 0.79052 0.41341 0.65753 0.0
H1558 H 0.77526 0.43027 0.65491 0.0
H1559 H 0.80556 0.45717 0.65173 0.0
C1560 C 0.49017 0.13334 0.26439 0.0
C1561 C 0.47773 0.13406 0.25984 0.0
C1562 C 0.47039 0.14081 0.28047 0.0
C1563 C 0.46793 0.13775 0.26781 0.0
C1564 C 0.48285 0.13981 0.28499 0.0
C1565 C 0.49262 0.13612 0.27703 0.0
U1566 U 0.502 0.12211 0.23264 0.0
O1567 O 0.51756 0.12875 0.22086 0.0
O1568 O 0.5175 0.10929 0.22756 0.0
C1569 C 0.52351 0.11798 0.22121 0.0
C1570 C 0.50067 0.12998 0.256 0.0
C1571 C 0.53738 0.11858 0.22242 0.0
C1572 C 0.55666 0.12863 0.23013 0.0
C1573 C 0.54355 0.12669 0.23094 0.0
C1574 C 0.55755 0.11389 0.21279 0.0
C1575 C 0.56366 0.12248 0.2208 0.0
C1576 C 0.54455 0.11193 0.21362 0.0
C1577 C 0.47612 0.11492 0.20767 0.0
C1578 C 0.47774 0.11455 0.18489 0.0
C1579 C 0.45856 0.10746 0.19491 0.0
C1580 C 0.46392 0.10991 0.20666 0.0
C1581 C 0.46525 0.11005 0.18386 0.0
C1582 C 0.48313 0.11699 0.19672 0.0
C1583 C 0.48078 0.11865 0.22021 0.0
O1584 O 0.50141 0.11806 0.25289 0.0
O1585 O 0.50238 0.13753 0.24644 0.0
O1586 O 0.48664 0.12953 0.221 0.0
O1587 O 0.48611 0.10985 0.22697 0.0
H1588 H 0.47564 0.13193 0.2501 0.0
H1589 H 0.45848 0.13847 0.26399 0.0
H1590 H 0.48506 0.14183 0.29473 0.0
H1591 H 0.50214 0.13552 0.28073 0.0
H1592 H 0.56119 0.1354 0.23631 0.0
H1593 H 0.53819 0.13195 0.23778 0.0
H1594 H 0.56275 0.10919 0.20543 0.0
H1595 H 0.53997 0.10571 0.20691 0.0
H1596 H 0.48315 0.11666 0.17657 0.0
H1597 H 0.44904 0.10374 0.19448 0.0
H1598 H 0.45838 0.10818 0.215 0.0
H1599 H 0.4926 0.12083 0.19731 0.0
C1600 C 0.9747 0.89983 0.72891 0.0
C1601 C 0.96819 0.90975 0.72328 0.0
C1602 C 0.94856 0.89778 0.72369 0.0
C1603 C 0.9553 0.90875 0.72071 0.0
C1604 C 0.95483 0.88824 0.7303 0.0
C1605 C 0.96784 0.88922 0.73282 0.0
U1606 U 0.01057 0.89618 0.73924 0.0
O1607 O 0.01099 0.88058 0.75262 0.0
O1608 O 0.01204 0.89996 0.75957 0.0
C1609 C 0.01306 0.888 0.76232 0.0
C1610 C 0.98865 0.90012 0.72836 0.0
C1611 C 0.02392 0.88455 0.7703 0.0
C1612 C 0.03199 0.87776 0.79052 0.0
C1613 C 0.02204 0.88203 0.78303 0.0
C1614 C 0.04604 0.87889 0.77274 0.0
C1615 C 0.04406 0.87588 0.78543 0.0
C1616 C 0.03605 0.88317 0.76524 0.0
C1617 C 0.03503 0.90447 0.71366 0.0
C1618 C 0.05105 0.9145 0.70096 0.0
C1619 C 0.03404 0.90296 0.69086 0.0
C1620 C 0.02885 0.90036 0.70265 0.0
C1621 C 0.04546 0.90968 0.68993 0.0
C1622 C 0.04592 0.91187 0.71268 0.0
C1623 C 0.03112 0.90035 0.72624 0.0
O1624 O 0.99462 0.88936 0.7278 0.0
O1625 O 0.99474 0.90884 0.73478 0.0
O1626 O 0.02561 0.8893 0.72696 0.0
O1627 O 0.02597 0.90887 0.73351 0.0
H1628 H 0.97325 0.918 0.72013 0.0
H1629 H 0.95071 0.91635 0.7158 0.0
H1630 H 0.94989 0.87969 0.73275 0.0
H1631 H 0.97264 0.88142 0.73719 0.0
H1632 H 0.03019 0.87584 0.80032 0.0
H1633 H 0.01279 0.88314 0.78714 0.0
H1634 H 0.0552 0.87756 0.76851 0.0
H1635 H 0.03772 0.88513 0.75542 0.0
H1636 H 0.05969 0.91995 0.70056 0.0
H1637 H 0.02949 0.89913 0.68255 0.0
H1638 H 0.02035 0.89472 0.70318 0.0
H1639 H 0.05078 0.91522 0.72103 0.0
C1640 C 0.53753 0.89687 0.27813 0.0
C1641 C 0.54064 0.8997 0.29066 0.0
C1642 C 0.56305 0.89657 0.28628 0.0
C1643 C 0.55328 0.89954 0.2947 0.0
C1644 C 0.55982 0.89388 0.27372 0.0
C1645 C 0.54723 0.89403 0.26971 0.0
U1646 U 0.50141 0.89901 0.28272 0.0
O1647 O 0.48667 0.90562 0.26964 0.0
O1648 O 0.48659 0.88607 0.27604 0.0
C1649 C 0.48114 0.89456 0.269 0.0
C1650 C 0.5243 0.89625 0.27367 0.0
C1651 C 0.47648 0.89021 0.25666 0.0
C1652 C 0.4795 0.88208 0.23549 0.0
C1653 C 0.48452 0.88717 0.24668 0.0
C1654 C 0.45848 0.88326 0.2442 0.0
C1655 C 0.46643 0.87983 0.23427 0.0
C1656 C 0.46346 0.8884 0.25523 0.0
C1657 C 0.48772 0.9066 0.31536 0.0
C1658 C 0.46559 0.91012 0.32035 0.0
C1659 C 0.48058 0.90574 0.33695 0.0
C1660 C 0.49023 0.9049 0.32813 0.0
C1661 C 0.46811 0.90842 0.33325 0.0
C1662 C 0.47531 0.90919 0.31148 0.0
C1663 C 0.49821 0.90515 0.30641 0.0
O1664 O 0.51751 0.88695 0.2781 0.0
O1665 O 0.5181 0.9069 0.27324 0.0
O1666 O 0.49912 0.91347 0.2974 0.0
O1667 O 0.50028 0.89362 0.30257 0.0
H1668 H 0.53329 0.90191 0.29732 0.0
H1669 H 0.55541 0.9018 0.30441 0.0
H1670 H 0.56701 0.89137 0.267 0.0
H1671 H 0.54503 0.89174 0.26002 0.0
H1672 H 0.48584 0.87957 0.22797 0.0
H1673 H 0.49461 0.88849 0.24762 0.0
H1674 H 0.44837 0.8819 0.24345 0.0
H1675 H 0.4571 0.89074 0.26281 0.0
H1676 H 0.45615 0.91225 0.31713 0.0
H1677 H 0.4829 0.90403 0.34669 0.0
H1678 H 0.4997 0.90277 0.33131 0.0
H1679 H 0.47314 0.91044 0.30162 0.0
C1680 C 0.89162 0.75955 0.03946 0.0
C1681 C 0.88709 0.75593 0.05128 0.0
C1682 C 0.88221 0.77771 0.05635 0.0
C1683 C 0.88244 0.76496 0.05968 0.0
C1684 C 0.88736 0.78129 0.04476 0.0
C1685 C 0.89199 0.7723 0.03641 0.0
U1686 U 0.90208 0.72657 0.02955 0.0
O1687 O 0.8956 0.7146 0.01397 0.0
O1688 O 0.91536 0.72083 0.0147 0.0
C1689 C 0.90652 0.71496 0.00821 0.0
C1690 C 0.89532 0.75023 0.02991 0.0
C1691 C 0.90597 0.71739 0.99459 0.0
C1692 C 0.89545 0.72646 0.97644 0.0
C1693 C 0.89738 0.72598 0.98945 0.0
C1694 C 0.9114 0.71056 0.9735 0.0
C1695 C 0.90223 0.71851 0.96838 0.0
C1696 C 0.9132 0.70995 0.9865 0.0
C1697 C 0.9066 0.70199 0.05585 0.0
C1698 C 0.9079 0.67929 0.05358 0.0
C1699 C 0.91184 0.6891 0.07381 0.0
C1700 C 0.90965 0.70087 0.06859 0.0
C1701 C 0.9109 0.67822 0.06639 0.0
C1702 C 0.90584 0.69115 0.0483 0.0
C1703 C 0.90377 0.71455 0.05094 0.0
O1704 O 0.90716 0.74666 0.03015 0.0
O1705 O 0.88735 0.74089 0.02809 0.0
O1706 O 0.89321 0.71561 0.04453 0.0
O1707 O 0.91325 0.72078 0.04601 0.0
H1708 H 0.88681 0.74612 0.05385 0.0
H1709 H 0.87855 0.7619 0.06853 0.0
H1710 H 0.88758 0.79106 0.04202 0.0
H1711 H 0.89556 0.7753 0.0274 0.0
H1712 H 0.88832 0.73266 0.9727 0.0
H1713 H 0.89175 0.73186 0.99552 0.0
H1714 H 0.91661 0.70421 0.9675 0.0
H1715 H 0.91981 0.70322 0.99026 0.0
H1716 H 0.90716 0.67099 0.04771 0.0
H1717 H 0.91403 0.68845 0.08372 0.0
H1718 H 0.91019 0.70911 0.07457 0.0
H1719 H 0.90352 0.69185 0.03842 0.0
C1720 C 0.61431 0.28066 0.49415 0.0
C1721 C 0.61436 0.29354 0.49146 0.0
C1722 C 0.61308 0.28896 0.46901 0.0
C1723 C 0.61379 0.29765 0.479 0.0
C1724 C 0.6126 0.27609 0.4718 0.0
C1725 C 0.61325 0.27199 0.48425 0.0
U1726 U 0.6145 0.28588 0.52979 0.0
O1727 O 0.62812 0.2797 0.54411 0.0
O1728 O 0.60833 0.27355 0.54516 0.0
C1729 C 0.61968 0.27306 0.55018 0.0
C1730 C 0.61592 0.27611 0.50713 0.0
C1731 C 0.62385 0.26095 0.55534 0.0
C1732 C 0.62936 0.23884 0.55359 0.0
C1733 C 0.62519 0.25003 0.54802 0.0
C1734 C 0.63093 0.24948 0.57369 0.0
C1735 C 0.63233 0.23855 0.56647 0.0
C1736 C 0.62669 0.26053 0.56819 0.0
C1737 C 0.60671 0.31877 0.54265 0.0
C1738 C 0.60749 0.32459 0.56476 0.0
C1739 C 0.60262 0.34025 0.54912 0.0
C1740 C 0.60366 0.33117 0.53968 0.0
C1741 C 0.60463 0.33713 0.56178 0.0
C1742 C 0.60854 0.31549 0.55526 0.0
C1743 C 0.60822 0.30959 0.53239 0.0
O1744 O 0.62569 0.28073 0.51328 0.0
O1745 O 0.60567 0.27557 0.51399 0.0
O1746 O 0.59993 0.30038 0.53193 0.0
O1747 O 0.61981 0.30586 0.53032 0.0
H1748 H 0.61507 0.3004 0.49897 0.0
H1749 H 0.61398 0.30763 0.47718 0.0
H1750 H 0.61211 0.26917 0.46433 0.0
H1751 H 0.6132 0.26201 0.48613 0.0
H1752 H 0.63043 0.23049 0.54787 0.0
H1753 H 0.62307 0.25018 0.53807 0.0
H1754 H 0.63311 0.24945 0.58363 0.0
H1755 H 0.62569 0.26884 0.574 0.0
H1756 H 0.6092 0.32187 0.57439 0.0
H1757 H 0.60019 0.34974 0.54649 0.0
H1758 H 0.60218 0.33388 0.53 0.0
H1759 H 0.61092 0.30594 0.55773 0.0
C1760 C 0.2536 0.48198 0.13438 0.0
C1761 C 0.24826 0.47005 0.13632 0.0
C1762 C 0.26846 0.46226 0.14382 0.0
C1763 C 0.25561 0.46031 0.14111 0.0
C1764 C 0.27391 0.47402 0.14136 0.0
C1765 C 0.26651 0.48384 0.13674 0.0
U1766 U 0.223 0.49396 0.12044 0.0
O1767 O 0.21008 0.50869 0.12683 0.0
O1768 O 0.21877 0.51004 0.10821 0.0
C1769 C 0.21132 0.51527 0.11653 0.0
C1770 C 0.24562 0.49259 0.13048 0.0
C1771 C 0.21201 0.529 0.11811 0.0
C1772 C 0.22263 0.54844 0.12432 0.0
C1773 C 0.22292 0.53537 0.12228 0.0
C1774 C 0.20068 0.5487 0.11789 0.0
C1775 C 0.21139 0.55515 0.12237 0.0
C1776 C 0.20101 0.5358 0.11578 0.0
C1777 C 0.19918 0.468 0.11015 0.0
C1778 C 0.17706 0.47066 0.10444 0.0
C1779 C 0.18607 0.44985 0.10544 0.0
C1780 C 0.19775 0.45502 0.10869 0.0
C1781 C 0.17555 0.45756 0.10352 0.0
C1782 C 0.18883 0.47586 0.10781 0.0
C1783 C 0.21135 0.47279 0.11493 0.0
O1784 O 0.2437 0.49372 0.11834 0.0
O1785 O 0.2353 0.49408 0.13709 0.0
O1786 O 0.21113 0.47804 0.1261 0.0
O1787 O 0.21857 0.47878 0.10695 0.0
H1788 H 0.23834 0.46838 0.13445 0.0
H1789 H 0.25124 0.45128 0.14288 0.0
H1790 H 0.28378 0.47574 0.14345 0.0
H1791 H 0.27079 0.49296 0.13529 0.0
H1792 H 0.23101 0.5532 0.12778 0.0
H1793 H 0.23152 0.53025 0.12414 0.0
H1794 H 0.19195 0.55365 0.11615 0.0
H1795 H 0.19251 0.53107 0.11253 0.0
H1796 H 0.16906 0.47678 0.1031 0.0
H1797 H 0.18515 0.43974 0.10476 0.0
H1798 H 0.20562 0.44881 0.11045 0.0
H1799 H 0.18977 0.48593 0.10894 0.0
C1800 C 0.28684 0.5289 0.89965 0.0
C1801 C 0.29907 0.53066 0.90445 0.0
C1802 C 0.29912 0.55246 0.89747 0.0
C1803 C 0.30513 0.54232 0.90341 0.0
C1804 C 0.28658 0.55085 0.89333 0.0
C1805 C 0.28053 0.53916 0.89438 0.0
U1806 U 0.28991 0.49341 0.90235 0.0
O1807 O 0.27683 0.4786 0.90882 0.0
O1808 O 0.28371 0.47846 0.88941 0.0
C1809 C 0.27651 0.47302 0.89779 0.0
C1810 C 0.28116 0.51621 0.89894 0.0
C1811 C 0.26429 0.46786 0.89337 0.0
C1812 C 0.24611 0.46771 0.87926 0.0
C1813 C 0.25682 0.47381 0.88426 0.0
C1814 C 0.25005 0.44991 0.8927 0.0
C1815 C 0.24268 0.45562 0.88337 0.0
C1816 C 0.26072 0.45595 0.89761 0.0
C1817 C 0.32266 0.48075 0.91203 0.0
C1818 C 0.32804 0.45892 0.91588 0.0
C1819 C 0.34459 0.47443 0.9134 0.0
C1820 C 0.33552 0.48373 0.91175 0.0
C1821 C 0.34103 0.46187 0.91547 0.0
C1822 C 0.31893 0.46828 0.91414 0.0
C1823 C 0.31348 0.49084 0.90968 0.0
O1824 O 0.28552 0.50913 0.88984 0.0
O1825 O 0.28006 0.51013 0.90959 0.0
O1826 O 0.304 0.49176 0.91753 0.0
O1827 O 0.31011 0.49233 0.89792 0.0
H1828 H 0.30413 0.52288 0.90858 0.0
H1829 H 0.3147 0.54327 0.90691 0.0
H1830 H 0.28169 0.55841 0.88867 0.0
H1831 H 0.27109 0.53799 0.89059 0.0
H1832 H 0.24057 0.47237 0.87212 0.0
H1833 H 0.25943 0.483 0.88081 0.0
H1834 H 0.24781 0.44054 0.89591 0.0
H1835 H 0.26644 0.45111 0.90448 0.0
H1836 H 0.32491 0.4494 0.91757 0.0
H1837 H 0.35443 0.47709 0.91273 0.0
H1838 H 0.33859 0.49329 0.91006 0.0
H1839 H 0.30902 0.46577 0.91436 0.0
C1840 C 0.28788 0.484 0.61098 0.0
C1841 C 0.30055 0.48099 0.60872 0.0
C1842 C 0.29634 0.45931 0.61468 0.0
C1843 C 0.30474 0.46862 0.61044 0.0
C1844 C 0.28359 0.46228 0.61627 0.0
C1845 C 0.27941 0.47448 0.61434 0.0
U1846 U 0.28755 0.5212 0.61066 0.0
O1847 O 0.27819 0.53167 0.62591 0.0
O1848 O 0.27083 0.53268 0.60631 0.0
C1849 C 0.26959 0.53595 0.61815 0.0
C1850 C 0.28328 0.49695 0.6119 0.0
C1851 C 0.25947 0.54426 0.62236 0.0
C1852 C 0.24085 0.54806 0.63496 0.0
C1853 C 0.24978 0.53977 0.63007 0.0
C1854 C 0.25109 0.5653 0.62423 0.0
C1855 C 0.24156 0.56094 0.63224 0.0
C1856 C 0.25997 0.557 0.61933 0.0
C1857 C 0.31974 0.53873 0.6006 0.0
C1858 C 0.3305 0.55891 0.60299 0.0
C1859 C 0.34111 0.54153 0.59295 0.0
C1860 C 0.33039 0.53408 0.59449 0.0
C1861 C 0.34146 0.55393 0.59744 0.0
C1862 C 0.31971 0.55131 0.60467 0.0
C1863 C 0.30965 0.52957 0.60342 0.0
O1864 O 0.28771 0.50369 0.62129 0.0
O1865 O 0.28138 0.50342 0.60161 0.0
O1866 O 0.30013 0.52797 0.59559 0.0
O1867 O 0.30697 0.52716 0.61518 0.0
H1868 H 0.30726 0.48825 0.6062 0.0
H1869 H 0.31464 0.4665 0.60921 0.0
H1870 H 0.27696 0.45526 0.61951 0.0
H1871 H 0.26961 0.47665 0.6162 0.0
H1872 H 0.23347 0.54445 0.64096 0.0
H1873 H 0.24921 0.52991 0.63244 0.0
H1874 H 0.25193 0.57518 0.62208 0.0
H1875 H 0.26748 0.56059 0.61348 0.0
H1876 H 0.33049 0.56846 0.60652 0.0
H1877 H 0.34928 0.53746 0.58846 0.0
H1878 H 0.33061 0.52442 0.59128 0.0
H1879 H 0.31157 0.55512 0.60942 0.0
C1880 C 0.25283 0.5289 0.38344 0.0
C1881 C 0.2507 0.54175 0.38551 0.0
C1882 C 0.27067 0.54697 0.37543 0.0
C1883 C 0.25954 0.55073 0.3815 0.0
C1884 C 0.27264 0.53408 0.37333 0.0
C1885 C 0.26382 0.52517 0.37728 0.0
U1886 U 0.22115 0.51889 0.39755 0.0
O1887 O 0.20774 0.50426 0.39152 0.0
O1888 O 0.21652 0.50318 0.4102 0.0
C1889 C 0.20894 0.49783 0.40194 0.0
C1890 C 0.24372 0.51923 0.38746 0.0
C1891 C 0.20951 0.48406 0.40057 0.0
C1892 C 0.21594 0.46522 0.38929 0.0
C1893 C 0.21737 0.47812 0.3918 0.0
C1894 C 0.19931 0.46405 0.40472 0.0
C1895 C 0.20661 0.4582 0.39548 0.0
C1896 C 0.20079 0.47684 0.40728 0.0
C1897 C 0.19827 0.54543 0.4076 0.0
C1898 C 0.17534 0.54681 0.40679 0.0
C1899 C 0.18761 0.56331 0.41682 0.0
C1900 C 0.19869 0.55675 0.41434 0.0
C1901 C 0.17589 0.55865 0.41264 0.0
C1902 C 0.18648 0.54024 0.40425 0.0
C1903 C 0.21024 0.54032 0.40283 0.0
O1904 O 0.24183 0.51838 0.39961 0.0
O1905 O 0.23324 0.51849 0.38084 0.0
O1906 O 0.2098 0.53498 0.39169 0.0
O1907 O 0.2175 0.5344 0.41086 0.0
H1908 H 0.24224 0.54483 0.39025 0.0
H1909 H 0.25779 0.56056 0.38334 0.0
H1910 H 0.28101 0.53087 0.36851 0.0
H1911 H 0.26559 0.51532 0.37551 0.0
H1912 H 0.22158 0.4609 0.38203 0.0
H1913 H 0.22415 0.48354 0.3865 0.0
H1914 H 0.192 0.45884 0.40953 0.0
H1915 H 0.19461 0.48124 0.41404 0.0
H1916 H 0.16641 0.54309 0.4034 0.0
H1917 H 0.18827 0.57242 0.42134 0.0
H1918 H 0.20766 0.56091 0.41702 0.0
H1919 H 0.18593 0.53148 0.39906 0.0
P1920 P 0.09277 0.37561 0.10553 0.0
H1921 H 0.07631 0.35413 0.10886 0.0
H1922 H 0.06102 0.35 0.12524 0.0
H1923 H 0.06048 0.38949 0.13456 0.0
H1924 H 0.07465 0.39368 0.1172 0.0
H1925 H 0.11179 0.35701 0.09935 0.0
H1926 H 0.11551 0.34389 0.08098 0.0
H1927 H 0.08257 0.35916 0.06295 0.0
H1928 H 0.07858 0.3723 0.0817 0.0
H1929 H 0.09502 0.39685 0.12256 0.0
H1930 H 0.10566 0.38841 0.08446 0.0
O1931 O 0.10206 0.36975 0.11672 0.0
H1932 H 0.10794 0.41558 0.12229 0.0
H1933 H 0.11973 0.40677 0.0846 0.0
C1934 C 0.07716 0.37415 0.11213 0.0
C1935 C 0.07241 0.36201 0.11396 0.0
C1936 C 0.06381 0.35963 0.12355 0.0
C1937 C 0.06006 0.3693 0.13176 0.0
C1938 C 0.06336 0.38171 0.12868 0.0
C1939 C 0.07172 0.38412 0.11882 0.0
C1940 C 0.09484 0.3656 0.09196 0.0
C1941 C 0.10516 0.35743 0.09161 0.0
C1942 C 0.10727 0.34985 0.08115 0.0
C1943 C 0.09919 0.35037 0.07073 0.0
C1944 C 0.08877 0.35846 0.07102 0.0
C1945 C 0.08656 0.36601 0.08164 0.0
C1946 C 0.09889 0.39134 0.10339 0.0
C1947 C 0.09955 0.39934 0.11386 0.0
C1948 C 0.10725 0.40997 0.1138 0.0
C1949 C 0.11506 0.41254 0.10352 0.0
C1950 C 0.11377 0.40509 0.09264 0.0
C1951 C 0.10573 0.39454 0.09259 0.0
P1952 P 0.93676 0.89076 0.42236 0.0
H1953 H 0.94804 0.87679 0.44309 0.0
H1954 H 0.93992 0.8604 0.45686 0.0
H1955 H 0.9053 0.85902 0.4354 0.0
H1956 H 0.91343 0.87559 0.42167 0.0
H1957 H 0.95888 0.89903 0.40814 0.0
H1958 H 0.96769 0.89257 0.38799 0.0
H1959 H 0.93724 0.86575 0.38336 0.0
H1960 H 0.92891 0.87186 0.40372 0.0
H1961 H 0.92589 0.91009 0.43855 0.0
H1962 H 0.91886 0.8948 0.4016 0.0
O1963 O 0.94801 0.89824 0.43055 0.0
H1964 H 0.90691 0.92308 0.43666 0.0
H1965 H 0.90003 0.90765 0.39971 0.0
C1966 C 0.93127 0.87757 0.43147 0.0
C1967 C 0.93874 0.87292 0.44125 0.0
C1968 C 0.9341 0.86353 0.44912 0.0
C1969 C 0.92193 0.85847 0.44727 0.0
C1970 C 0.91472 0.86267 0.43702 0.0
C1971 C 0.91934 0.87219 0.42922 0.0
C1972 C 0.94335 0.88577 0.40756 0.0
C1973 C 0.9542 0.89165 0.40284 0.0
C1974 C 0.95917 0.88802 0.39123 0.0
C1975 C 0.95327 0.87855 0.384 0.0
C1976 C 0.94227 0.87284 0.38874 0.0
C1977 C 0.93742 0.87637 0.4004 0.0
C1978 C 0.92386 0.90152 0.42018 0.0
C1979 C 0.92041 0.90969 0.42994 0.0
C1980 C 0.9096 0.91713 0.42886 0.0
C1981 C 0.90197 0.91632 0.41806 0.0
C1982 C 0.90568 0.90839 0.40818 0.0
C1983 C 0.9165 0.90105 0.40924 0.0
P1984 P 0.43569 0.62627 0.58888 0.0
H1985 H 0.44503 0.63988 0.5669 0.0
H1986 H 0.4354 0.65556 0.55326 0.0
H1987 H 0.40287 0.65677 0.57743 0.0
H1988 H 0.41254 0.64102 0.59099 0.0
H1989 H 0.45692 0.61673 0.60365 0.0
H1990 H 0.46434 0.62094 0.62509 0.0
H1991 H 0.43577 0.64931 0.62921 0.0
H1992 H 0.42847 0.64516 0.60778 0.0
H1993 H 0.4233 0.60999 0.57061 0.0
H1994 H 0.41946 0.61855 0.61001 0.0
O1995 O 0.44709 0.61946 0.58056 0.0
H1996 H 0.40424 0.59681 0.57146 0.0
H1997 H 0.4005 0.60527 0.61084 0.0
C1998 C 0.42953 0.63929 0.58001 0.0
C1999 C 0.4359 0.64362 0.56937 0.0
C2000 C 0.43033 0.65252 0.56151 0.0
C2001 C 0.41832 0.65736 0.5642 0.0
C2002 C 0.41217 0.65332 0.57513 0.0
C2003 C 0.4177 0.64433 0.58292 0.0
C2004 C 0.44218 0.6307 0.60403 0.0
C2005 C 0.45242 0.62405 0.60906 0.0
C2006 C 0.4567 0.62648 0.62131 0.0
C2007 C 0.45063 0.63543 0.62885 0.0
C2008 C 0.4406 0.6423 0.62365 0.0
C2009 C 0.43643 0.63997 0.61136 0.0
C2010 C 0.42291 0.61513 0.59027 0.0
C2011 C 0.41852 0.60883 0.57949 0.0
C2012 C 0.40764 0.60136 0.57995 0.0
C2013 C 0.40101 0.60006 0.59121 0.0
C2014 C 0.40555 0.6061 0.60208 0.0
C2015 C 0.41639 0.61366 0.6016 0.0
P2016 P 0.59383 0.13767 0.90952 0.0
H2017 H 0.5767 0.15787 0.90369 0.0
H2018 H 0.56039 0.15934 0.88759 0.0
H2019 H 0.561 0.11906 0.88294 0.0
H2020 H 0.57663 0.11762 0.89968 0.0
H2021 H 0.61134 0.1581 0.91513 0.0
H2022 H 0.61502 0.17114 0.93361 0.0
H2023 H 0.58399 0.15308 0.95236 0.0
H2024 H 0.58003 0.13998 0.9335 0.0
H2025 H 0.59789 0.11616 0.89324 0.0
H2026 H 0.60617 0.12617 0.93169 0.0
O2027 O 0.60283 0.14374 0.89826 0.0
H2028 H 0.6117 0.09816 0.89488 0.0
H2029 H 0.62069 0.10848 0.93315 0.0
C2030 C 0.57819 0.13768 0.90268 0.0
C2031 C 0.5729 0.14929 0.89964 0.0
C2032 C 0.56369 0.15014 0.89025 0.0
C2033 C 0.55975 0.13938 0.88354 0.0
C2034 C 0.5639 0.12759 0.88773 0.0
C2035 C 0.57301 0.12676 0.89728 0.0
C2036 C 0.59532 0.14811 0.92286 0.0
C2037 C 0.60505 0.15708 0.92303 0.0
C2038 C 0.60715 0.16461 0.93357 0.0
C2039 C 0.59965 0.16324 0.94424 0.0
C2040 C 0.58973 0.15443 0.9441 0.0
C2041 C 0.58752 0.14693 0.9334 0.0
C2042 C 0.60072 0.12246 0.91239 0.0
C2043 C 0.60228 0.11424 0.90221 0.0
C2044 C 0.61042 0.10405 0.90309 0.0
C2045 C 0.61756 0.10204 0.91404 0.0
C2046 C 0.61534 0.10974 0.92457 0.0
C2047 C 0.60701 0.1199 0.92373 0.0
P2048 P 0.09388 0.63803 0.41097 0.0
H2049 H 0.08008 0.6592 0.40084 0.0
H2050 H 0.06435 0.66044 0.384 0.0
H2051 H 0.06053 0.62016 0.38407 0.0
H2052 H 0.07592 0.61893 0.40122 0.0
H2053 H 0.1145 0.6425 0.42822 0.0
H2054 H 0.11766 0.65719 0.4456 0.0
H2055 H 0.07882 0.66877 0.44247 0.0
H2056 H 0.07565 0.65384 0.42505 0.0
H2057 H 0.10147 0.61935 0.39284 0.0
H2058 H 0.09835 0.62165 0.43311 0.0
O2059 O 0.1045 0.64473 0.40163 0.0
H2060 H 0.1135 0.60001 0.39478 0.0
H2061 H 0.11066 0.60227 0.43509 0.0
C2062 C 0.07922 0.63899 0.40232 0.0
C2063 C 0.07542 0.65067 0.39768 0.0
C2064 C 0.06645 0.65138 0.38803 0.0
C2065 C 0.06128 0.64039 0.38276 0.0
C2066 C 0.06438 0.62876 0.38803 0.0
C2067 C 0.0732 0.62807 0.39783 0.0
C2068 C 0.09485 0.64704 0.42534 0.0
C2069 C 0.10658 0.64802 0.4314 0.0
C2070 C 0.10842 0.65654 0.44124 0.0
C2071 C 0.09856 0.66431 0.44524 0.0
C2072 C 0.08661 0.66292 0.43955 0.0
C2073 C 0.08478 0.65438 0.42961 0.0
C2074 C 0.09928 0.6221 0.41282 0.0
C2075 C 0.1031 0.61552 0.4021 0.0
C2076 C 0.10997 0.60447 0.40321 0.0
C2077 C 0.11319 0.59979 0.41509 0.0
C2078 C 0.10831 0.6057 0.42583 0.0
C2079 C 0.10137 0.61683 0.42469 0.0
P2080 P 0.59482 0.87688 0.60723 0.0
H2081 H 0.58475 0.85479 0.61888 0.0
H2082 H 0.56865 0.85164 0.63457 0.0
H2083 H 0.55684 0.89019 0.63024 0.0
H2084 H 0.57361 0.89336 0.61483 0.0
H2085 H 0.61634 0.86559 0.59537 0.0
H2086 H 0.61886 0.85129 0.57785 0.0
H2087 H 0.57863 0.85191 0.57103 0.0
H2088 H 0.57614 0.86611 0.58918 0.0
H2089 H 0.59787 0.89868 0.62335 0.0
H2090 H 0.60137 0.89031 0.58389 0.0
O2091 O 0.60618 0.87227 0.61705 0.0
H2092 H 0.60991 0.91807 0.62046 0.0
H2093 H 0.61342 0.90978 0.58103 0.0
C2094 C 0.58045 0.87431 0.61578 0.0
C2095 C 0.5785 0.86249 0.62108 0.0
C2096 C 0.56916 0.8607 0.63006 0.0
C2097 C 0.56139 0.87068 0.63386 0.0
C2098 C 0.56279 0.88234 0.62779 0.0
C2099 C 0.57231 0.88415 0.61887 0.0
C2100 C 0.59606 0.8668 0.59367 0.0
C2101 C 0.60803 0.86266 0.59016 0.0
C2102 C 0.60946 0.85453 0.58002 0.0
C2103 C 0.59897 0.85049 0.57291 0.0
C2104 C 0.5869 0.85476 0.57636 0.0
C2105 C 0.58547 0.86292 0.58666 0.0
C2106 C 0.5987 0.89301 0.60386 0.0
C2107 C 0.60068 0.90129 0.61396 0.0
C2108 C 0.60758 0.91236 0.61232 0.0
C2109 C 0.61253 0.91538 0.60053 0.0
C2110 C 0.60954 0.90771 0.59017 0.0
C2111 C 0.60268 0.89656 0.59183 0.0
P2112 P 0.43633 0.39152 0.92422 0.0
H2113 H 0.44734 0.37682 0.9446 0.0
H2114 H 0.43871 0.36026 0.95792 0.0
H2115 H 0.40489 0.35911 0.93529 0.0
H2116 H 0.41346 0.37591 0.92201 0.0
H2117 H 0.45101 0.40663 0.90693 0.0
H2118 H 0.4608 0.4022 0.8867 0.0
H2119 H 0.4466 0.36413 0.88824 0.0
H2120 H 0.43654 0.3688 0.90822 0.0
H2121 H 0.42634 0.40912 0.94243 0.0
H2122 H 0.4176 0.39759 0.90455 0.0
O2123 O 0.44776 0.39827 0.93277 0.0
H2124 H 0.40861 0.42358 0.94218 0.0
H2125 H 0.39986 0.41229 0.9041 0.0
C2126 C 0.43095 0.37774 0.93244 0.0
C2127 C 0.43815 0.3729 0.94234 0.0
C2128 C 0.43327 0.3634 0.94991 0.0
C2129 C 0.42119 0.35843 0.94756 0.0
C2130 C 0.41429 0.36272 0.93717 0.0
C2131 C 0.41914 0.37235 0.92966 0.0
C2132 C 0.44301 0.38808 0.90906 0.0
C2133 C 0.44996 0.39735 0.90284 0.0
C2134 C 0.45568 0.39475 0.89132 0.0
C2135 C 0.45456 0.38278 0.88576 0.0
C2136 C 0.44755 0.37351 0.89209 0.0
C2137 C 0.4418 0.37615 0.90359 0.0
C2138 C 0.42346 0.4025 0.92342 0.0
C2139 C 0.42068 0.40983 0.93398 0.0
C2140 C 0.41053 0.41812 0.93381 0.0
C2141 C 0.40284 0.41922 0.92307 0.0
C2142 C 0.40553 0.41165 0.91254 0.0
C2143 C 0.41574 0.40333 0.91274 0.0
P2144 P 0.93393 0.12653 0.09011 0.0
H2145 H 0.94612 0.14389 0.07277 0.0
H2146 H 0.93821 0.16117 0.06 0.0
H2147 H 0.90121 0.15623 0.07608 0.0
H2148 H 0.90914 0.13891 0.08867 0.0
H2149 H 0.95276 0.11388 0.10538 0.0
H2150 H 0.96077 0.1175 0.12675 0.0
H2151 H 0.93848 0.15108 0.12949 0.0
H2152 H 0.93039 0.14743 0.10806 0.0
H2153 H 0.92471 0.10467 0.07586 0.0
H2154 H 0.91466 0.12468 0.10955 0.0
O2155 O 0.9448 0.11947 0.08132 0.0
H2156 H 0.90692 0.09035 0.07883 0.0
H2157 H 0.89652 0.11091 0.11228 0.0
C2158 C 0.92822 0.13998 0.08158 0.0
C2159 C 0.93632 0.14656 0.07358 0.0
C2160 C 0.93178 0.15647 0.06631 0.0
C2161 C 0.91903 0.16005 0.06692 0.0
C2162 C 0.91101 0.15359 0.07518 0.0
C2163 C 0.91558 0.1437 0.08247 0.0
C2164 C 0.94112 0.13048 0.10505 0.0
C2165 C 0.94978 0.12218 0.11045 0.0
C2166 C 0.95435 0.12422 0.12265 0.0
C2167 C 0.95031 0.13461 0.12965 0.0
C2168 C 0.94185 0.1431 0.12417 0.0
C2169 C 0.93724 0.14102 0.11195 0.0
C2170 C 0.92114 0.1156 0.09261 0.0
C2171 C 0.91869 0.10596 0.08393 0.0
C2172 C 0.90839 0.09785 0.08557 0.0
C2173 C 0.90019 0.09939 0.09582 0.0
C2174 C 0.90271 0.10918 0.10443 0.0
C2175 C 0.91309 0.11715 0.10286 0.0
P2176 P 0.10636 0.07997 0.37869 0.0
H2177 H 0.08825 0.06779 0.36172 0.0
H2178 H 0.07586 0.07529 0.34397 0.0
H2179 H 0.09457 0.11136 0.34691 0.0
H2180 H 0.10655 0.10385 0.36502 0.0
H2181 H 0.11956 0.05758 0.38726 0.0
H2182 H 0.14038 0.04896 0.38282 0.0
H2183 H 0.14793 0.07975 0.35779 0.0
H2184 H 0.12688 0.08827 0.36211 0.0
H2185 H 0.08815 0.09109 0.39577 0.0
H2186 H 0.12739 0.09655 0.38679 0.0
O2187 O 0.09763 0.06863 0.3851 0.0
H2188 H 0.08959 0.10783 0.41151 0.0
H2189 H 0.12883 0.11345 0.40223 0.0
C2190 C 0.09814 0.08534 0.36485 0.0
C2191 C 0.08969 0.07731 0.35853 0.0
C2192 C 0.08267 0.08161 0.34827 0.0
C2193 C 0.08408 0.09401 0.34397 0.0
C2194 C 0.09298 0.10185 0.35007 0.0
C2195 C 0.09993 0.09755 0.3604 0.0
C2196 C 0.12158 0.07348 0.37487 0.0
C2197 C 0.1256 0.06242 0.38069 0.0
C2198 C 0.13751 0.05749 0.37815 0.0
C2199 C 0.14575 0.06366 0.36992 0.0
C2200 C 0.14177 0.07482 0.36419 0.0
C2201 C 0.12974 0.07965 0.3666 0.0
C2202 C 0.10768 0.09245 0.39018 0.0
C2203 C 0.09708 0.09589 0.39719 0.0
C2204 C 0.0979 0.10552 0.40614 0.0
C2205 C 0.10935 0.11199 0.40822 0.0
C2206 C 0.11993 0.10854 0.40108 0.0
C2207 C 0.11909 0.09889 0.39214 0.0
P2208 P 0.1308 0.90426 0.61154 0.0
H2209 H 0.15207 0.89598 0.59666 0.0
H2210 H 0.15376 0.87895 0.5813 0.0
H2211 H 0.11311 0.8767 0.57908 0.0
H2212 H 0.11153 0.89394 0.59406 0.0
H2213 H 0.14533 0.91448 0.63225 0.0
H2214 H 0.15707 0.93394 0.63551 0.0
H2215 H 0.14804 0.94548 0.59784 0.0
H2216 H 0.13603 0.92572 0.59452 0.0
H2217 H 0.11073 0.88668 0.6174 0.0
H2218 H 0.11631 0.92679 0.61896 0.0
O2219 O 0.13719 0.89416 0.62162 0.0
H2220 H 0.09223 0.88869 0.63082 0.0
H2221 H 0.0979 0.92872 0.6326 0.0
C2222 C 0.13169 0.89618 0.59664 0.0
C2223 C 0.14353 0.89217 0.59247 0.0
C2224 C 0.14447 0.88228 0.58383 0.0
C2225 C 0.13357 0.87619 0.57921 0.0
C2226 C 0.12172 0.8811 0.58246 0.0
C2227 C 0.1208 0.89101 0.59109 0.0
C2228 C 0.14006 0.91849 0.61303 0.0
C2229 C 0.14593 0.92107 0.62459 0.0
C2230 C 0.15256 0.93224 0.62651 0.0
C2231 C 0.15342 0.94114 0.61694 0.0
C2232 C 0.14752 0.93867 0.60532 0.0
C2233 C 0.14075 0.92742 0.60341 0.0
C2234 C 0.11496 0.90656 0.61719 0.0
C2235 C 0.10765 0.89597 0.62013 0.0
C2236 C 0.09706 0.89712 0.62776 0.0
C2237 C 0.09364 0.90886 0.63261 0.0
C2238 C 0.10026 0.9196 0.62877 0.0
C2239 C 0.11085 0.91847 0.62105 0.0
P2240 P 0.41235 0.93436 0.87856 0.0
H2241 H 0.42522 0.9441 0.85638 0.0
H2242 H 0.43598 0.93386 0.83886 0.0
H2243 H 0.42566 0.89763 0.8538 0.0
H2244 H 0.41454 0.90788 0.87083 0.0
H2245 H 0.39533 0.94935 0.89374 0.0
H2246 H 0.37432 0.95793 0.88996 0.0
H2247 H 0.37469 0.9423 0.85243 0.0
H2248 H 0.39541 0.93338 0.85651 0.0
H2249 H 0.43177 0.92585 0.8958 0.0
H2250 H 0.3926 0.91756 0.88832 0.0
O2251 O 0.42172 0.94626 0.88287 0.0
H2252 H 0.43279 0.90821 0.91031 0.0
H2253 H 0.39356 0.8998 0.90277 0.0
C2254 C 0.41926 0.92679 0.86505 0.0
C2255 C 0.4252 0.93395 0.8558 0.0
C2256 C 0.43143 0.92807 0.84583 0.0
C2257 C 0.43184 0.91488 0.84495 0.0
C2258 C 0.42548 0.90778 0.85406 0.0
C2259 C 0.41918 0.91367 0.86393 0.0
C2260 C 0.3969 0.94067 0.87545 0.0
C2261 C 0.39083 0.94776 0.88471 0.0
C2262 C 0.37886 0.95278 0.88247 0.0
C2263 C 0.37271 0.95084 0.87087 0.0
C2264 C 0.37898 0.94384 0.86155 0.0
C2265 C 0.39091 0.93877 0.86384 0.0
C2266 C 0.41206 0.92316 0.89116 0.0
C2267 C 0.4233 0.92042 0.89753 0.0
C2268 C 0.4239 0.91026 0.90572 0.0
C2269 C 0.41327 0.90257 0.90764 0.0
C2270 C 0.40187 0.90563 0.90161 0.0
C2271 C 0.40129 0.9158 0.89336 0.0
P2272 P 0.39447 0.10375 0.08822 0.0
H2273 H 0.3797 0.08499 0.07443 0.0
H2274 H 0.36325 0.07021 0.08074 0.0
H2275 H 0.36356 0.08628 0.11803 0.0
H2276 H 0.37999 0.10118 0.11158 0.0
H2277 H 0.40799 0.123 0.07446 0.0
H2278 H 0.40185 0.1434 0.066 0.0
H2279 H 0.36408 0.13783 0.07991 0.0
H2280 H 0.37029 0.11743 0.0884 0.0
H2281 H 0.41306 0.08736 0.09994 0.0
H2282 H 0.39851 0.12457 0.10599 0.0
O2283 O 0.40251 0.09631 0.07704 0.0
H2284 H 0.42621 0.08948 0.11884 0.0
H2285 H 0.41176 0.12686 0.12465 0.0
C2286 C 0.38129 0.09396 0.09262 0.0
C2287 C 0.37617 0.08541 0.08394 0.0
C2288 C 0.36676 0.07696 0.08756 0.0
C2289 C 0.36221 0.07695 0.09994 0.0
C2290 C 0.36683 0.08606 0.10842 0.0
C2291 C 0.3763 0.09451 0.10478 0.0
C2292 C 0.38958 0.11865 0.08196 0.0
C2293 C 0.39838 0.12616 0.07567 0.0
C2294 C 0.39488 0.13783 0.07089 0.0
C2295 C 0.38247 0.1422 0.07228 0.0
C2296 C 0.37366 0.13464 0.07858 0.0
C2297 C 0.37721 0.12299 0.08346 0.0
C2298 C 0.4049 0.10584 0.1015 0.0
C2299 C 0.41285 0.09606 0.10523 0.0
C2300 C 0.42041 0.0973 0.116 0.0
C2301 C 0.42002 0.10833 0.12329 0.0
C2302 C 0.41218 0.11819 0.11934 0.0
C2303 C 0.40464 0.11692 0.10861 0.0
P2304 P 0.11827 0.91608 0.14693 0.0
H2305 H 0.13036 0.93075 0.16669 0.0
H2306 H 0.14896 0.9444 0.16557 0.0
H2307 H 0.14418 0.94689 0.12548 0.0
H2308 H 0.12527 0.93374 0.12667 0.0
H2309 H 0.10993 0.89691 0.16404 0.0
H2310 H 0.09178 0.89454 0.17747 0.0
H2311 H 0.07793 0.93061 0.16552 0.0
H2312 H 0.09664 0.93308 0.152 0.0
H2313 H 0.13413 0.91189 0.12527 0.0
H2314 H 0.09536 0.90484 0.13523 0.0
O2315 O 0.12884 0.90623 0.15296 0.0
H2316 H 0.13176 0.89834 0.10698 0.0
H2317 H 0.09312 0.89069 0.11717 0.0
C2318 C 0.12663 0.93089 0.14673 0.0
C2319 C 0.13288 0.93478 0.15774 0.0
C2320 C 0.14358 0.94252 0.15709 0.0
C2321 C 0.14816 0.9464 0.1454 0.0
C2322 C 0.14093 0.94384 0.13458 0.0
C2323 C 0.13011 0.93628 0.13528 0.0
C2324 C 0.1048 0.91528 0.15719 0.0
C2325 C 0.10312 0.90442 0.16434 0.0
C2326 C 0.0926 0.90299 0.17193 0.0
C2327 C 0.08332 0.91231 0.17248 0.0
C2328 C 0.08496 0.92328 0.16533 0.0
C2329 C 0.09562 0.92471 0.15763 0.0
C2330 C 0.11491 0.90954 0.1316 0.0
C2331 C 0.12495 0.9078 0.12329 0.0
C2332 C 0.12364 0.89987 0.11292 0.0
C2333 C 0.11235 0.8932 0.1108 0.0
C2334 C 0.10195 0.89569 0.11855 0.0
C2335 C 0.10324 0.90378 0.12892 0.0
P2336 P 0.395 0.91261 0.42653 0.0
H2337 H 0.37888 0.93256 0.43686 0.0
H2338 H 0.36293 0.94609 0.4272 0.0
H2339 H 0.3669 0.92579 0.39228 0.0
H2340 H 0.38274 0.91238 0.40194 0.0
H2341 H 0.40795 0.89212 0.43932 0.0
H2342 H 0.40086 0.87157 0.44691 0.0
H2343 H 0.36316 0.87962 0.4337 0.0
H2344 H 0.37036 0.89976 0.42589 0.0
H2345 H 0.41438 0.93029 0.41902 0.0
H2346 H 0.40144 0.89367 0.40725 0.0
O2347 O 0.40097 0.92028 0.43892 0.0
H2348 H 0.42931 0.93073 0.40174 0.0
H2349 H 0.41662 0.89389 0.38993 0.0
C2350 C 0.38223 0.92167 0.42002 0.0
C2351 C 0.37623 0.93097 0.42715 0.0
C2352 C 0.36706 0.93864 0.42165 0.0
C2353 C 0.36378 0.93712 0.40892 0.0
C2354 C 0.36938 0.92735 0.40204 0.0
C2355 C 0.37846 0.91967 0.40755 0.0
C2356 C 0.38976 0.8974 0.43184 0.0
C2357 C 0.39818 0.88937 0.438 0.0
C2358 C 0.39408 0.87769 0.44247 0.0
C2359 C 0.38144 0.87384 0.44085 0.0
C2360 C 0.37301 0.88211 0.4349 0.0
C2361 C 0.37713 0.89371 0.43042 0.0
C2362 C 0.40705 0.91181 0.41465 0.0
C2363 C 0.41495 0.92221 0.41285 0.0
C2364 C 0.42349 0.92245 0.40292 0.0
C2365 C 0.42428 0.9123 0.39445 0.0
C2366 C 0.41624 0.90189 0.39622 0.0
C2367 C 0.40767 0.90167 0.40622 0.0
P2368 P 0.41108 0.08247 0.63475 0.0
H2369 H 0.43117 0.07261 0.65105 0.0
H2370 H 0.44316 0.08189 0.66857 0.0
H2371 H 0.42112 0.11568 0.66561 0.0
H2372 H 0.40939 0.10651 0.64797 0.0
H2373 H 0.39542 0.06151 0.62563 0.0
H2374 H 0.37341 0.05539 0.62954 0.0
H2375 H 0.37004 0.08597 0.65596 0.0
H2376 H 0.39193 0.09194 0.6522 0.0
H2377 H 0.43089 0.09329 0.6195 0.0
H2378 H 0.39098 0.09884 0.62471 0.0
O2379 O 0.41921 0.07035 0.62907 0.0
H2380 H 0.43167 0.11168 0.60577 0.0
H2381 H 0.39176 0.11711 0.61083 0.0
C2382 C 0.41935 0.08885 0.64822 0.0
C2383 C 0.42889 0.082 0.65419 0.0
C2384 C 0.43577 0.08732 0.66417 0.0
C2385 C 0.43307 0.09951 0.66846 0.0
C2386 C 0.42334 0.10623 0.66259 0.0
C2387 C 0.41662 0.10099 0.65251 0.0
C2388 C 0.39539 0.07714 0.63869 0.0
C2389 C 0.39002 0.06674 0.63245 0.0
C2390 C 0.37748 0.06322 0.63471 0.0
C2391 C 0.37006 0.07021 0.64306 0.0
C2392 C 0.37556 0.08044 0.64947 0.0
C2393 C 0.3881 0.08385 0.64733 0.0
C2394 C 0.41087 0.09459 0.62301 0.0
C2395 C 0.42224 0.09826 0.61745 0.0
C2396 C 0.4227 0.10874 0.60963 0.0
C2397 C 0.41175 0.11565 0.6072 0.0
C2398 C 0.40027 0.11176 0.61244 0.0
C2399 C 0.39984 0.10134 0.62038 0.0
P2400 P 0.1295 0.10848 0.90415 0.0
H2401 H 0.14929 0.12638 0.91031 0.0
H2402 H 0.15007 0.144 0.92455 0.0
H2403 H 0.11608 0.13054 0.94254 0.0
H2404 H 0.11486 0.11337 0.92723 0.0
H2405 H 0.12907 0.08735 0.88699 0.0
H2406 H 0.14394 0.07046 0.88345 0.0
H2407 H 0.16395 0.08072 0.9173 0.0
H2408 H 0.1487 0.09763 0.92112 0.0
H2409 H 0.11215 0.12789 0.89708 0.0
H2410 H 0.11068 0.08766 0.9008 0.0
O2411 O 0.13643 0.11579 0.8922 0.0
H2412 H 0.09365 0.12716 0.88342 0.0
H2413 H 0.09229 0.08687 0.88671 0.0
C2414 C 0.13186 0.11874 0.91749 0.0
C2415 C 0.14207 0.12711 0.91742 0.0
C2416 C 0.14256 0.13723 0.92577 0.0
C2417 C 0.13299 0.13906 0.93473 0.0
C2418 C 0.1234 0.12983 0.93555 0.0
C2419 C 0.12277 0.11984 0.92692 0.0
C2420 C 0.13744 0.09355 0.90457 0.0
C2421 C 0.13612 0.08556 0.89413 0.0
C2422 C 0.14473 0.07596 0.892 0.0
C2423 C 0.15498 0.07427 0.90014 0.0
C2424 C 0.15595 0.08173 0.91102 0.0
C2425 C 0.14723 0.09136 0.91321 0.0
C2426 C 0.1131 0.10781 0.89953 0.0
C2427 C 0.10756 0.11893 0.89536 0.0
C2428 C 0.09699 0.11851 0.88753 0.0
C2429 C 0.09177 0.10694 0.88379 0.0
C2430 C 0.09621 0.0959 0.8894 0.0
C2431 C 0.10682 0.09635 0.89733 0.0
P2432 P 0.89459 0.41292 0.9265 0.0
H2433 H 0.87748 0.43181 0.9371 0.0
H2434 H 0.86157 0.44535 0.9274 0.0
H2435 H 0.86661 0.42596 0.89212 0.0
H2436 H 0.88244 0.41255 0.90181 0.0
H2437 H 0.90296 0.39827 0.94819 0.0
H2438 H 0.89774 0.37708 0.95554 0.0
H2439 H 0.87162 0.37254 0.92466 0.0
H2440 H 0.87669 0.39374 0.91744 0.0
H2441 H 0.91231 0.43154 0.91746 0.0
H2442 H 0.90226 0.39337 0.90819 0.0
O2443 O 0.90054 0.42126 0.93847 0.0
H2444 H 0.92692 0.43208 0.89993 0.0
H2445 H 0.91717 0.39369 0.89068 0.0
C2446 C 0.88132 0.42133 0.92011 0.0
C2447 C 0.87501 0.43036 0.92732 0.0
C2448 C 0.86588 0.43806 0.92179 0.0
C2449 C 0.86296 0.43684 0.90894 0.0
C2450 C 0.8688 0.42727 0.90198 0.0
C2451 C 0.87784 0.41957 0.90752 0.0
C2452 C 0.89015 0.39763 0.93229 0.0
C2453 C 0.89595 0.3928 0.94311 0.0
C2454 C 0.89293 0.38073 0.94736 0.0
C2455 C 0.88423 0.37323 0.94071 0.0
C2456 C 0.87833 0.37816 0.92998 0.0
C2457 C 0.88124 0.39026 0.92583 0.0
C2458 C 0.90643 0.41232 0.91437 0.0
C2459 C 0.91345 0.42317 0.91179 0.0
C2460 C 0.92181 0.42346 0.90172 0.0
C2461 C 0.92335 0.41289 0.89389 0.0
C2462 C 0.9162 0.40203 0.89644 0.0
C2463 C 0.90778 0.40177 0.90656 0.0
P2464 P 0.91095 0.58336 0.1355 0.0
H2465 H 0.93216 0.57378 0.15033 0.0
H2466 H 0.94446 0.5827 0.16781 0.0
H2467 H 0.91996 0.61484 0.16857 0.0
H2468 H 0.9078 0.60603 0.15089 0.0
H2469 H 0.89441 0.56781 0.1203 0.0
H2470 H 0.87274 0.56034 0.12287 0.0
H2471 H 0.87162 0.5772 0.15974 0.0
H2472 H 0.8934 0.58473 0.15711 0.0
H2473 H 0.92749 0.59241 0.1156 0.0
H2474 H 0.8913 0.60211 0.13098 0.0
O2475 O 0.91965 0.57207 0.12903 0.0
H2476 H 0.92561 0.60937 0.10037 0.0
H2477 H 0.88946 0.61927 0.11601 0.0
C2478 C 0.91911 0.58929 0.14924 0.0
C2479 C 0.9294 0.58273 0.15424 0.0
C2480 C 0.93645 0.58783 0.1642 0.0
C2481 C 0.93318 0.59947 0.16943 0.0
C2482 C 0.92264 0.60584 0.16468 0.0
C2483 C 0.9157 0.60082 0.1546 0.0
C2484 C 0.89556 0.57675 0.13852 0.0
C2485 C 0.88959 0.56974 0.12902 0.0
C2486 C 0.87721 0.5655 0.13048 0.0
C2487 C 0.87052 0.56817 0.14151 0.0
C2488 C 0.87662 0.57488 0.15121 0.0
C2489 C 0.88904 0.57923 0.14969 0.0
C2490 C 0.90943 0.59585 0.12426 0.0
C2491 C 0.91911 0.59817 0.11567 0.0
C2492 C 0.91806 0.60794 0.10702 0.0
C2493 C 0.90734 0.61566 0.10688 0.0
C2494 C 0.89772 0.61337 0.11565 0.0
C2495 C 0.89879 0.60358 0.12428 0.0
P2496 P 0.63207 0.60975 0.40249 0.0
H2497 H 0.65222 0.62064 0.41757 0.0
H2498 H 0.65187 0.6383 0.43218 0.0
H2499 H 0.61133 0.635 0.43455 0.0
H2500 H 0.61176 0.61746 0.41974 0.0
H2501 H 0.64926 0.60042 0.38369 0.0
H2502 H 0.66097 0.581 0.38129 0.0
H2503 H 0.64676 0.56795 0.41673 0.0
H2504 H 0.63488 0.58774 0.41924 0.0
H2505 H 0.61308 0.62696 0.39357 0.0
H2506 H 0.61679 0.58687 0.39723 0.0
O2507 O 0.63885 0.61991 0.39273 0.0
H2508 H 0.59383 0.62394 0.38116 0.0
H2509 H 0.59749 0.58381 0.38479 0.0
C2510 C 0.63202 0.61787 0.41737 0.0
C2511 C 0.64331 0.62336 0.42165 0.0
C2512 C 0.64308 0.63352 0.43002 0.0
C2513 C 0.63152 0.63834 0.43425 0.0
C2514 C 0.62036 0.63176 0.43117 0.0
C2515 C 0.6206 0.62163 0.42276 0.0
C2516 C 0.6414 0.59567 0.40178 0.0
C2517 C 0.64873 0.59353 0.39109 0.0
C2518 C 0.65536 0.58239 0.38965 0.0
C2519 C 0.65471 0.57307 0.39881 0.0
C2520 C 0.64739 0.57509 0.40958 0.0
C2521 C 0.6407 0.58636 0.41104 0.0
C2522 C 0.61648 0.60716 0.39613 0.0
C2523 C 0.60962 0.61751 0.3919 0.0
C2524 C 0.59867 0.61578 0.38477 0.0
C2525 C 0.59434 0.60364 0.38181 0.0
C2526 C 0.60067 0.59327 0.3869 0.0
C2527 C 0.61172 0.59502 0.39398 0.0
P2528 P 0.9112 0.43507 0.37861 0.0
H2529 H 0.93283 0.44496 0.36481 0.0
H2530 H 0.94651 0.43583 0.34889 0.0
H2531 H 0.92242 0.4031 0.34688 0.0
H2532 H 0.90878 0.41222 0.36305 0.0
H2533 H 0.89857 0.45775 0.38737 0.0
H2534 H 0.87752 0.46615 0.38414 0.0
H2535 H 0.86865 0.43495 0.35946 0.0
H2536 H 0.89004 0.42698 0.36227 0.0
H2537 H 0.92928 0.42416 0.39593 0.0
H2538 H 0.89026 0.41813 0.38583 0.0
O2539 O 0.91996 0.44631 0.38538 0.0
H2540 H 0.92795 0.40718 0.41118 0.0
H2541 H 0.88893 0.40099 0.4008 0.0
C2542 C 0.91979 0.42926 0.3652 0.0
C2543 C 0.93036 0.43588 0.36088 0.0
C2544 C 0.93824 0.43062 0.35181 0.0
C2545 C 0.93564 0.41868 0.34673 0.0
C2546 C 0.92466 0.41233 0.35059 0.0
C2547 C 0.91684 0.41755 0.35981 0.0
C2548 C 0.89598 0.44179 0.37495 0.0
C2549 C 0.89219 0.45282 0.38106 0.0
C2550 C 0.88004 0.45756 0.37932 0.0
C2551 C 0.87124 0.45124 0.37158 0.0
C2552 C 0.87516 0.44025 0.36531 0.0
C2553 C 0.88741 0.43561 0.36694 0.0
C2554 C 0.90983 0.42258 0.38988 0.0
C2555 C 0.92041 0.41921 0.39702 0.0
C2556 C 0.91966 0.40943 0.40568 0.0
C2557 C 0.90831 0.40274 0.40729 0.0
C2558 C 0.89775 0.40609 0.4 0.0
C2559 C 0.89852 0.41589 0.39135 0.0
P2560 P 0.60665 0.58036 0.8789 0.0
H2561 H 0.58617 0.5699 0.86326 0.0
H2562 H 0.57359 0.57862 0.846 0.0
H2563 H 0.59552 0.61277 0.84786 0.0
H2564 H 0.60779 0.60425 0.86543 0.0
H2565 H 0.62154 0.55853 0.88625 0.0
H2566 H 0.64344 0.55249 0.88244 0.0
H2567 H 0.64852 0.58518 0.8593 0.0
H2568 H 0.62654 0.59109 0.86294 0.0
H2569 H 0.58712 0.59417 0.89204 0.0
H2570 H 0.62777 0.59284 0.89242 0.0
O2571 O 0.59866 0.56821 0.88474 0.0
H2572 H 0.58771 0.61079 0.90799 0.0
H2573 H 0.62843 0.60954 0.90812 0.0
C2574 C 0.59796 0.58642 0.86563 0.0
C2575 C 0.58828 0.57927 0.85999 0.0
C2576 C 0.58107 0.58425 0.85017 0.0
C2577 C 0.58359 0.59636 0.84569 0.0
C2578 C 0.59343 0.6034 0.85117 0.0
C2579 C 0.60048 0.59851 0.86114 0.0
C2580 C 0.62228 0.57515 0.87469 0.0
C2581 C 0.62725 0.56426 0.88011 0.0
C2582 C 0.63977 0.56082 0.87795 0.0
C2583 C 0.64765 0.56835 0.87055 0.0
C2584 C 0.64265 0.57921 0.86505 0.0
C2585 C 0.63005 0.58255 0.86707 0.0
C2586 C 0.60737 0.59232 0.89094 0.0
C2587 C 0.59616 0.59745 0.89556 0.0
C2588 C 0.59652 0.60698 0.90464 0.0
C2589 C 0.60812 0.61152 0.90932 0.0
C2590 C 0.61933 0.60616 0.90484 0.0
C2591 C 0.61896 0.59665 0.89574 0.0
P2592 P 0.89823 0.66589 0.86613 0.0
H2593 H 0.92528 0.66851 0.86256 0.0
H2594 H 0.93809 0.66606 0.84383 0.0
H2595 H 0.9046 0.66858 0.82072 0.0
H2596 H 0.8918 0.67098 0.8396 0.0
H2597 H 0.88827 0.66533 0.89116 0.0
H2598 H 0.88875 0.68013 0.90857 0.0
H2599 H 0.90521 0.70823 0.88453 0.0
H2600 H 0.9048 0.6931 0.86695 0.0
H2601 H 0.89318 0.64495 0.84959 0.0
H2602 H 0.8712 0.67015 0.87238 0.0
O2603 O 0.90619 0.65465 0.87353 0.0
H2604 H 0.8744 0.63226 0.84535 0.0
H2605 H 0.85234 0.65722 0.86836 0.0
C2606 C 0.90756 0.6696 0.85251 0.0
C2607 C 0.92073 0.66898 0.85345 0.0
C2608 C 0.92806 0.66756 0.84268 0.0
C2609 C 0.92234 0.66678 0.83075 0.0
C2610 C 0.90926 0.6688 0.82978 0.0
C2611 C 0.90194 0.67029 0.84059 0.0
C2612 C 0.8964 0.67813 0.87774 0.0
C2613 C 0.89167 0.67478 0.8895 0.0
C2614 C 0.89192 0.6833 0.89947 0.0
C2615 C 0.89696 0.69541 0.89796 0.0
C2616 C 0.90131 0.69894 0.88601 0.0
C2617 C 0.90102 0.69034 0.87594 0.0
C2618 C 0.88364 0.65844 0.86136 0.0
C2619 C 0.88426 0.64787 0.85352 0.0
C2620 C 0.87355 0.64058 0.85115 0.0
C2621 C 0.86198 0.64366 0.85667 0.0
C2622 C 0.86116 0.65466 0.86397 0.0
C2623 C 0.87195 0.66201 0.86633 0.0
P2624 P 0.11785 0.16822 0.64906 0.0
H2625 H 0.0905 0.16945 0.64857 0.0
H2626 H 0.07504 0.16795 0.6654 0.0
H2627 H 0.1046 0.17378 0.69283 0.0
H2628 H 0.12001 0.17603 0.67585 0.0
H2629 H 0.12727 0.16639 0.62378 0.0
H2630 H 0.1266 0.18051 0.60588 0.0
H2631 H 0.11191 0.20992 0.62947 0.0
H2632 H 0.11253 0.19559 0.64761 0.0
H2633 H 0.12258 0.15318 0.67125 0.0
H2634 H 0.14446 0.16754 0.64043 0.0
O2635 O 0.11132 0.15602 0.64153 0.0
H2636 H 0.13973 0.13976 0.67722 0.0
H2637 H 0.16135 0.15282 0.64565 0.0
C2638 C 0.10648 0.17233 0.66097 0.0
C2639 C 0.09362 0.17088 0.65817 0.0
C2640 C 0.08479 0.16997 0.6678 0.0
C2641 C 0.08871 0.17039 0.68041 0.0
C2642 C 0.1014 0.17316 0.68318 0.0
C2643 C 0.11019 0.17447 0.67348 0.0
C2644 C 0.11998 0.17992 0.63705 0.0
C2645 C 0.12421 0.17596 0.62525 0.0
C2646 C 0.12378 0.18401 0.615 0.0
C2647 C 0.11917 0.19624 0.61632 0.0
C2648 C 0.11556 0.20052 0.62827 0.0
C2649 C 0.11592 0.19236 0.6386 0.0
C2650 C 0.13221 0.16178 0.65557 0.0
C2651 C 0.13127 0.15398 0.66607 0.0
C2652 C 0.14107 0.14601 0.66935 0.0
C2653 C 0.15177 0.14498 0.66173 0.0
C2654 C 0.15322 0.15341 0.65173 0.0
C2655 C 0.14349 0.16179 0.64869 0.0
P2656 P 0.61681 0.34936 0.36859 0.0
H2657 H 0.59074 0.34127 0.36688 0.0
H2658 H 0.5764 0.34067 0.34885 0.0
H2659 H 0.60816 0.34389 0.32392 0.0
H2660 H 0.6225 0.34409 0.34193 0.0
H2661 H 0.61078 0.35337 0.39483 0.0
H2662 H 0.6125 0.34035 0.4134 0.0
H2663 H 0.62581 0.30955 0.39077 0.0
H2664 H 0.62407 0.32278 0.37184 0.0
H2665 H 0.62463 0.3673 0.34976 0.0
H2666 H 0.64267 0.34455 0.37789 0.0
O2667 O 0.60907 0.36222 0.37303 0.0
H2668 H 0.64433 0.37868 0.34647 0.0
H2669 H 0.66243 0.35602 0.37471 0.0
C2670 C 0.60764 0.34308 0.35576 0.0
C2671 C 0.59467 0.34124 0.35752 0.0
C2672 C 0.58647 0.34092 0.34722 0.0
C2673 C 0.5912 0.34253 0.33506 0.0
C2674 C 0.60431 0.34283 0.33325 0.0
C2675 C 0.6125 0.34299 0.34356 0.0
C2676 C 0.61725 0.33903 0.38192 0.0
C2677 C 0.61395 0.3438 0.39372 0.0
C2678 C 0.61494 0.33637 0.40437 0.0
C2679 C 0.61927 0.324 0.40347 0.0
C2680 C 0.62235 0.31905 0.39163 0.0
C2681 C 0.62138 0.32658 0.38088 0.0
C2682 C 0.63216 0.355 0.364 0.0
C2683 C 0.63295 0.36443 0.3549 0.0
C2684 C 0.64425 0.37093 0.35301 0.0
C2685 C 0.65492 0.36829 0.36038 0.0
C2686 C 0.65433 0.3583 0.36894 0.0
C2687 C 0.64303 0.35171 0.37074 0.0
P2688 P 0.3979 0.85088 0.14712 0.0
H2689 H 0.42462 0.84608 0.1496 0.0
H2690 H 0.43859 0.84655 0.16788 0.0
H2691 H 0.40608 0.84643 0.19216 0.0
H2692 H 0.39224 0.84529 0.17383 0.0
H2693 H 0.40896 0.85119 0.12219 0.0
H2694 H 0.40678 0.83759 0.10393 0.0
H2695 H 0.38411 0.81178 0.12526 0.0
H2696 H 0.38631 0.8256 0.1439 0.0
H2697 H 0.38917 0.86739 0.16718 0.0
H2698 H 0.37304 0.84884 0.13472 0.0
O2699 O 0.40533 0.86357 0.14172 0.0
H2700 H 0.37041 0.8804 0.16896 0.0
H2701 H 0.35449 0.8623 0.13624 0.0
C2702 C 0.4074 0.84609 0.16034 0.0
C2703 C 0.42051 0.84572 0.15887 0.0
C2704 C 0.4285 0.84617 0.16935 0.0
C2705 C 0.42349 0.84703 0.18151 0.0
C2706 C 0.41032 0.84592 0.18296 0.0
C2707 C 0.40234 0.84535 0.17244 0.0
C2708 C 0.3977 0.8395 0.13444 0.0
C2709 C 0.40368 0.84254 0.12315 0.0
C2710 C 0.4025 0.83472 0.11268 0.0
C2711 C 0.39536 0.82365 0.11325 0.0
C2712 C 0.38976 0.82024 0.12467 0.0
C2713 C 0.39099 0.82813 0.13527 0.0
C2714 C 0.38245 0.85678 0.15105 0.0
C2715 C 0.38135 0.86559 0.16084 0.0
C2716 C 0.37066 0.87315 0.1618 0.0
C2717 C 0.36104 0.87229 0.15277 0.0
C2718 C 0.36176 0.86301 0.14339 0.0
C2719 C 0.37237 0.85528 0.14257 0.0
P2720 P 0.89618 0.34976 0.64604 0.0
H2721 H 0.92332 0.34717 0.64945 0.0
H2722 H 0.93641 0.35017 0.66818 0.0
H2723 H 0.90322 0.34753 0.6913 0.0
H2724 H 0.89017 0.34445 0.67252 0.0
H2725 H 0.88502 0.34911 0.62123 0.0
H2726 H 0.88653 0.33424 0.60385 0.0
H2727 H 0.90671 0.30856 0.62766 0.0
H2728 H 0.90472 0.32335 0.64535 0.0
H2729 H 0.89113 0.36977 0.66374 0.0
H2730 H 0.86931 0.34687 0.63799 0.0
O2731 O 0.90415 0.36094 0.63853 0.0
H2732 H 0.87317 0.38379 0.66631 0.0
H2733 H 0.85152 0.3613 0.64018 0.0
C2734 C 0.90574 0.34609 0.65959 0.0
C2735 C 0.91891 0.34674 0.65858 0.0
C2736 C 0.92641 0.34843 0.66931 0.0
C2737 C 0.92079 0.34948 0.68116 0.0
C2738 C 0.90777 0.34705 0.68224 0.0
C2739 C 0.9003 0.34527 0.6715 0.0
C2740 C 0.8945 0.33725 0.63468 0.0
C2741 C 0.88923 0.34003 0.62294 0.0
C2742 C 0.89013 0.33155 0.61298 0.0
C2743 C 0.89665 0.32025 0.61447 0.0
C2744 C 0.90155 0.3172 0.62635 0.0
C2745 C 0.9004 0.32563 0.63643 0.0
C2746 C 0.88166 0.35727 0.65062 0.0
C2747 C 0.88237 0.3675 0.65895 0.0
C2748 C 0.87213 0.37554 0.6604 0.0
C2749 C 0.86106 0.37357 0.65343 0.0
C2750 C 0.85998 0.3629 0.64572 0.0
C2751 C 0.8702 0.35472 0.64439 0.0
P2752 P 0.39753 0.16521 0.36688 0.0
H2753 H 0.42457 0.1695 0.36588 0.0
H2754 H 0.43948 0.16881 0.34856 0.0
H2755 H 0.40845 0.16795 0.32212 0.0
H2756 H 0.39354 0.16867 0.33957 0.0
H2757 H 0.38481 0.16593 0.39077 0.0
H2758 H 0.38476 0.18125 0.40791 0.0
H2759 H 0.40495 0.20758 0.38485 0.0
H2760 H 0.4049 0.19218 0.36749 0.0
H2761 H 0.39436 0.14372 0.35057 0.0
H2762 H 0.36997 0.16881 0.37085 0.0
O2763 O 0.40509 0.15443 0.37529 0.0
H2764 H 0.37633 0.13061 0.3449 0.0
H2765 H 0.35177 0.15552 0.36533 0.0
C2766 C 0.40796 0.16887 0.35405 0.0
C2767 C 0.42097 0.16951 0.35635 0.0
C2768 C 0.42949 0.16911 0.34641 0.0
C2769 C 0.42516 0.16807 0.33393 0.0
C2770 C 0.41209 0.16845 0.33162 0.0
C2771 C 0.40355 0.16896 0.34161 0.0
C2772 C 0.39473 0.17792 0.37779 0.0
C2773 C 0.38883 0.17515 0.38919 0.0
C2774 C 0.38882 0.18388 0.399 0.0
C2775 C 0.39478 0.19556 0.39763 0.0
C2776 C 0.4002 0.19864 0.38604 0.0
C2777 C 0.40016 0.18986 0.37615 0.0
C2778 C 0.38355 0.15725 0.36113 0.0
C2779 C 0.38506 0.14656 0.35359 0.0
C2780 C 0.37472 0.13906 0.35032 0.0
C2781 C 0.36261 0.14198 0.3547 0.0
C2782 C 0.36101 0.15297 0.36191 0.0
C2783 C 0.37141 0.16059 0.36506 0.0
P2784 P 0.61708 0.66564 0.14669 0.0
H2785 H 0.58977 0.66429 0.14577 0.0
H2786 H 0.57395 0.66323 0.16214 0.0
H2787 H 0.60233 0.67333 0.18977 0.0
H2788 H 0.61823 0.67392 0.17323 0.0
H2789 H 0.6276 0.66538 0.12179 0.0
H2790 H 0.62709 0.68023 0.10454 0.0
H2791 H 0.60918 0.70753 0.12855 0.0
H2792 H 0.6097 0.69244 0.14594 0.0
H2793 H 0.6227 0.6481 0.16652 0.0
H2794 H 0.64392 0.67152 0.14127 0.0
O2795 O 0.61187 0.65304 0.13882 0.0
H2796 H 0.64194 0.63691 0.17208 0.0
H2797 H 0.66322 0.66013 0.14678 0.0
C2798 C 0.60522 0.66879 0.15834 0.0
C2799 C 0.59254 0.66652 0.15532 0.0
C2800 C 0.58345 0.666 0.16475 0.0
C2801 C 0.58686 0.66788 0.1774 0.0
C2802 C 0.59941 0.67143 0.1802 0.0
C2803 C 0.60852 0.67188 0.17073 0.0
C2804 C 0.61864 0.67778 0.1351 0.0
C2805 C 0.62381 0.67466 0.12345 0.0
C2806 C 0.62357 0.68319 0.1136 0.0
C2807 C 0.61811 0.69507 0.11517 0.0
C2808 C 0.61338 0.69841 0.12705 0.0
C2809 C 0.61371 0.68982 0.13699 0.0
C2810 C 0.63183 0.66073 0.15356 0.0
C2811 C 0.63157 0.6512 0.16256 0.0
C2812 C 0.64255 0.64478 0.16572 0.0
C2813 C 0.654 0.64774 0.1599 0.0
C2814 C 0.6545 0.65784 0.15152 0.0
C2815 C 0.64345 0.6643 0.14834 0.0
P2816 P 0.11802 0.8473 0.86823 0.0
H2817 H 0.09067 0.84725 0.86836 0.0
H2818 H 0.07515 0.84778 0.85139 0.0
H2819 H 0.10433 0.8394 0.8246 0.0
H2820 H 0.1198 0.83821 0.84181 0.0
H2821 H 0.12876 0.84841 0.89328 0.0
H2822 H 0.12743 0.8345 0.91126 0.0
H2823 H 0.10792 0.80689 0.88848 0.0
H2824 H 0.1096 0.82082 0.87025 0.0
H2825 H 0.12335 0.86112 0.8454 0.0
H2826 H 0.14465 0.84794 0.87729 0.0
O2827 O 0.11204 0.85978 0.87556 0.0
H2828 H 0.14072 0.87437 0.83942 0.0
H2829 H 0.16173 0.86254 0.87199 0.0
C2830 C 0.10648 0.84324 0.85629 0.0
C2831 C 0.09369 0.84514 0.8589 0.0
C2832 C 0.08482 0.84546 0.84918 0.0
C2833 C 0.08861 0.84398 0.83665 0.0
C2834 C 0.10122 0.84084 0.83416 0.0
C2835 C 0.11004 0.84016 0.84399 0.0
C2836 C 0.11949 0.8356 0.88033 0.0
C2837 C 0.12464 0.83917 0.89197 0.0
C2838 C 0.1238 0.83123 0.9023 0.0
C2839 C 0.11756 0.81962 0.90129 0.0
C2840 C 0.11274 0.81583 0.88953 0.0
C2841 C 0.11377 0.82375 0.87909 0.0
C2842 C 0.13262 0.85317 0.86169 0.0
C2843 C 0.13195 0.86051 0.85083 0.0
C2844 C 0.14188 0.86837 0.84752 0.0
C2845 C 0.15245 0.86974 0.8554 0.0
C2846 C 0.15369 0.86168 0.86572 0.0
C2847 C 0.14383 0.85339 0.86881 0.0
P2848 P 0.83794 0.87452 0.68461 0.0
H2849 H 0.84519 0.88521 0.70892 0.0
H2850 H 0.86564 0.88949 0.71894 0.0
H2851 H 0.88444 0.87676 0.68536 0.0
H2852 H 0.86405 0.87289 0.67538 0.0
H2853 H 0.8111 0.87935 0.68828 0.0
H2854 H 0.79716 0.89579 0.68102 0.0
H2855 H 0.82909 0.91502 0.66461 0.0
H2856 H 0.84306 0.89898 0.67299 0.0
H2857 H 0.84204 0.84769 0.68031 0.0
H2858 H 0.83783 0.88076 0.6576 0.0
O2859 O 0.8305 0.86571 0.69517 0.0
H2860 H 0.84361 0.83485 0.66126 0.0
H2861 H 0.83951 0.86812 0.63869 0.0
C2862 C 0.85306 0.87877 0.69138 0.0
C2863 C 0.85374 0.8835 0.70368 0.0
C2864 C 0.86546 0.88581 0.70945 0.0
C2865 C 0.87677 0.88347 0.703 0.0
C2866 C 0.87598 0.87888 0.69059 0.0
C2867 C 0.86427 0.87659 0.68485 0.0
C2868 C 0.82815 0.88795 0.68123 0.0
C2869 C 0.81515 0.88728 0.68342 0.0
C2870 C 0.80711 0.89665 0.679 0.0
C2871 C 0.8118 0.90675 0.67188 0.0
C2872 C 0.82498 0.90757 0.67012 0.0
C2873 C 0.83305 0.89834 0.67488 0.0
C2874 C 0.83956 0.86519 0.67047 0.0
C2875 C 0.84144 0.8522 0.67126 0.0
C2876 C 0.84241 0.84488 0.66034 0.0
C2877 C 0.84156 0.85043 0.6484 0.0
C2878 C 0.83993 0.86348 0.6477 0.0
C2879 C 0.83902 0.87077 0.65859 0.0
P2880 P 0.85818 0.1535 0.37988 0.0
H2881 H 0.85492 0.15578 0.40668 0.0
H2882 H 0.85822 0.17356 0.42087 0.0
H2883 H 0.85851 0.19873 0.38933 0.0
H2884 H 0.85493 0.18085 0.37507 0.0
H2885 H 0.85654 0.12794 0.37057 0.0
H2886 H 0.84122 0.1111 0.37387 0.0
H2887 H 0.81658 0.13708 0.39265 0.0
H2888 H 0.83177 0.15415 0.38889 0.0
H2889 H 0.8776 0.17154 0.37314 0.0
H2890 H 0.85449 0.14407 0.35387 0.0
O2891 O 0.86978 0.14586 0.38714 0.0
H2892 H 0.8901 0.17442 0.35435 0.0
H2893 H 0.86768 0.14602 0.33537 0.0
C2894 C 0.8552 0.16693 0.38981 0.0
C2895 C 0.85524 0.16516 0.40281 0.0
C2896 C 0.85716 0.17531 0.41091 0.0
C2897 C 0.85899 0.18742 0.40613 0.0
C2898 C 0.85726 0.18945 0.39322 0.0
C2899 C 0.8553 0.17921 0.38508 0.0
C2900 C 0.84527 0.14236 0.37931 0.0
C2901 C 0.84761 0.13019 0.37488 0.0
C2902 C 0.83887 0.12054 0.37681 0.0
C2903 C 0.82773 0.12283 0.38346 0.0
C2904 C 0.82509 0.13513 0.38743 0.0
C2905 C 0.83377 0.14487 0.38527 0.0
C2906 C 0.86494 0.15772 0.36495 0.0
C2907 C 0.875 0.16631 0.36477 0.0
C2908 C 0.88237 0.16775 0.35405 0.0
C2909 C 0.88015 0.16026 0.34335 0.0
C2910 C 0.86968 0.15204 0.34336 0.0
C2911 C 0.86212 0.15084 0.35403 0.0
P2912 P 0.67557 0.13821 0.18611 0.0
H2913 H 0.66752 0.1356 0.21231 0.0
H2914 H 0.64689 0.13205 0.22194 0.0
H2915 H 0.62993 0.12939 0.18505 0.0
H2916 H 0.65048 0.13325 0.17557 0.0
H2917 H 0.70225 0.13225 0.18392 0.0
H2918 H 0.71338 0.1148 0.17415 0.0
H2919 H 0.67782 0.09581 0.16758 0.0
H2920 H 0.66673 0.11346 0.17715 0.0
H2921 H 0.66313 0.16237 0.1828 0.0
H2922 H 0.68353 0.13622 0.15962 0.0
O2923 O 0.68454 0.14597 0.1965 0.0
H2924 H 0.65999 0.17596 0.16463 0.0
H2925 H 0.68087 0.14984 0.14167 0.0
C2926 C 0.6605 0.13489 0.19322 0.0
C2927 C 0.65934 0.13427 0.20631 0.0
C2928 C 0.64754 0.13217 0.21181 0.0
C2929 C 0.63668 0.13058 0.2043 0.0
C2930 C 0.63801 0.13087 0.19116 0.0
C2931 C 0.64978 0.133 0.18569 0.0
C2932 C 0.68367 0.12408 0.18147 0.0
C2933 C 0.69686 0.12418 0.18068 0.0
C2934 C 0.70323 0.11417 0.17507 0.0
C2935 C 0.69651 0.10387 0.17004 0.0
C2936 C 0.68328 0.10364 0.17123 0.0
C2937 C 0.67693 0.11368 0.17683 0.0
C2938 C 0.67344 0.14821 0.17261 0.0
C2939 C 0.66696 0.15957 0.17382 0.0
C2940 C 0.66527 0.16738 0.16342 0.0
C2941 C 0.67012 0.16401 0.15159 0.0
C2942 C 0.67677 0.15267 0.15052 0.0
C2943 C 0.67838 0.14486 0.16088 0.0
P2944 P 0.67183 0.84994 0.87083 0.0
H2945 H 0.6973 0.86044 0.86931 0.0
H2946 H 0.70643 0.88061 0.8751 0.0
H2947 H 0.67006 0.89285 0.88852 0.0
H2948 H 0.66085 0.87271 0.88195 0.0
H2949 H 0.66602 0.82345 0.8727 0.0
H2950 H 0.65821 0.8103 0.88962 0.0
H2951 H 0.66078 0.84192 0.91512 0.0
H2952 H 0.66821 0.85508 0.898 0.0
H2953 H 0.66868 0.85653 0.84439 0.0
H2954 H 0.64464 0.84687 0.87542 0.0
O2955 O 0.6826 0.84217 0.86255 0.0
H2956 H 0.65039 0.8558 0.83018 0.0
H2957 H 0.62648 0.84607 0.86136 0.0
C2958 C 0.67838 0.86505 0.8752 0.0
C2959 C 0.69125 0.86747 0.87343 0.0
C2960 C 0.69651 0.87904 0.87689 0.0
C2961 C 0.68907 0.88844 0.88244 0.0
C2962 C 0.67611 0.88596 0.88416 0.0
C2963 C 0.67081 0.8744 0.88049 0.0
C2964 C 0.66781 0.84022 0.88407 0.0
C2965 C 0.66507 0.8275 0.88199 0.0
C2966 C 0.66062 0.81997 0.89172 0.0
C2967 C 0.65883 0.825 0.90381 0.0
C2968 C 0.66185 0.83774 0.90591 0.0
C2969 C 0.66623 0.84529 0.89612 0.0
C2970 C 0.65809 0.8515 0.86091 0.0
C2971 C 0.65946 0.85438 0.84816 0.0
C2972 C 0.64901 0.85397 0.84006 0.0
C2973 C 0.63702 0.85061 0.8446 0.0
C2974 C 0.63563 0.84837 0.85751 0.0
C2975 C 0.64603 0.84889 0.86559 0.0
P2976 P 0.85264 0.12422 0.84907 0.0
H2977 H 0.84855 0.09863 0.84032 0.0
H2978 H 0.83068 0.08456 0.84425 0.0
H2979 H 0.80786 0.11637 0.85426 0.0
H2980 H 0.82551 0.13043 0.84996 0.0
H2981 H 0.87589 0.11018 0.84643 0.0
H2982 H 0.8933 0.11126 0.83182 0.0
H2983 H 0.87309 0.13829 0.80963 0.0
H2984 H 0.85521 0.13708 0.82441 0.0
H2985 H 0.83968 0.13087 0.87173 0.0
H2986 H 0.85886 0.15089 0.84237 0.0
O2987 O 0.85881 0.11617 0.86099 0.0
H2988 H 0.83764 0.15011 0.88366 0.0
H2989 H 0.85633 0.1705 0.85407 0.0
C2990 C 0.83849 0.11556 0.84515 0.0
C2991 C 0.8395 0.10266 0.84266 0.0
C2992 C 0.8293 0.0946 0.84494 0.0
C2993 C 0.81802 0.0994 0.84977 0.0
C2994 C 0.81651 0.11246 0.85061 0.0
C2995 C 0.82666 0.1205 0.8482 0.0
C2996 C 0.86438 0.12393 0.83682 0.0
C2997 C 0.875 0.11629 0.83842 0.0
C2998 C 0.88496 0.11681 0.82999 0.0
C2999 C 0.88453 0.1249 0.8197 0.0
C3000 C 0.87358 0.13196 0.81753 0.0
C3001 C 0.86347 0.13137 0.82602 0.0
C3002 C 0.84937 0.13935 0.8561 0.0
C3003 C 0.84315 0.13951 0.86766 0.0
C3004 C 0.84189 0.15062 0.87447 0.0
C3005 C 0.84678 0.16199 0.86988 0.0
C3006 C 0.85256 0.16193 0.85799 0.0
C3007 C 0.85391 0.15068 0.85119 0.0
P3008 P 0.67524 0.1658 0.64726 0.0
H3009 H 0.70109 0.15634 0.64754 0.0
H3010 H 0.71018 0.13568 0.64341 0.0
H3011 H 0.67317 0.12124 0.63409 0.0
H3012 H 0.66404 0.14192 0.63853 0.0
H3013 H 0.68095 0.19181 0.64098 0.0
H3014 H 0.67509 0.20514 0.6235 0.0
H3015 H 0.65608 0.1738 0.60561 0.0
H3016 H 0.66192 0.16043 0.62339 0.0
H3017 H 0.66966 0.1521 0.6703 0.0
H3018 H 0.65009 0.17732 0.6455 0.0
O3019 O 0.68584 0.17353 0.65604 0.0
H3020 H 0.65171 0.1526 0.68474 0.0
H3021 H 0.63221 0.17765 0.65962 0.0
C3022 C 0.68185 0.15065 0.64348 0.0
C3023 C 0.6949 0.14874 0.64464 0.0
C3024 C 0.7001 0.13693 0.64229 0.0
C3025 C 0.69239 0.12684 0.63847 0.0
C3026 C 0.67935 0.12887 0.63695 0.0
C3027 C 0.67412 0.14066 0.6395 0.0
C3028 C 0.67214 0.17502 0.63339 0.0
C3029 C 0.67574 0.18769 0.63322 0.0
C3030 C 0.67237 0.19533 0.62316 0.0
C3031 C 0.66521 0.19054 0.61304 0.0
C3032 C 0.66158 0.17781 0.61324 0.0
C3033 C 0.66503 0.17012 0.62334 0.0
C3034 C 0.66121 0.16453 0.65672 0.0
C3035 C 0.66142 0.15753 0.66783 0.0
C3036 C 0.65116 0.15784 0.67608 0.0
C3037 C 0.64056 0.16527 0.6734 0.0
C3038 C 0.6403 0.17201 0.6621 0.0
C3039 C 0.65052 0.17169 0.65389 0.0
P3040 P 0.67271 0.87657 0.32953 0.0
H3041 H 0.66054 0.87809 0.30471 0.0
H3042 H 0.6388 0.88185 0.29812 0.0
H3043 H 0.62875 0.88957 0.33663 0.0
H3044 H 0.65038 0.88518 0.34317 0.0
H3045 H 0.69929 0.88227 0.32498 0.0
H3046 H 0.71383 0.89778 0.33374 0.0
H3047 H 0.68336 0.91383 0.35521 0.0
H3048 H 0.66879 0.89855 0.34594 0.0
H3049 H 0.65635 0.85478 0.33234 0.0
H3050 H 0.68566 0.87313 0.35398 0.0
O3051 O 0.67963 0.8692 0.31757 0.0
H3052 H 0.65364 0.83939 0.34893 0.0
H3053 H 0.68328 0.85755 0.37048 0.0
C3054 C 0.65714 0.88141 0.32445 0.0
C3055 C 0.65369 0.88073 0.31173 0.0
C3056 C 0.64121 0.88295 0.30795 0.0
C3057 C 0.63189 0.88596 0.31682 0.0
C3058 C 0.63555 0.88706 0.32953 0.0
C3059 C 0.648 0.88474 0.33329 0.0
C3060 C 0.68285 0.88937 0.33459 0.0
C3061 C 0.69566 0.88931 0.33135 0.0
C3062 C 0.70405 0.89811 0.33655 0.0
C3063 C 0.69989 0.90709 0.34533 0.0
C3064 C 0.68696 0.90723 0.34838 0.0
C3065 C 0.67855 0.89846 0.34307 0.0
C3066 C 0.671 0.86528 0.34199 0.0
C3067 C 0.66219 0.85551 0.34068 0.0
C3068 C 0.66074 0.84663 0.35017 0.0
C3069 C 0.66821 0.8472 0.36114 0.0
C3070 C 0.67719 0.85693 0.36231 0.0
C3071 C 0.67859 0.86585 0.35281 0.0
P3072 P 0.85989 0.8644 0.1297 0.0
H3073 H 0.85902 0.86021 0.10283 0.0
H3074 H 0.86091 0.8411 0.09053 0.0
H3075 H 0.85372 0.81908 0.1237 0.0
H3076 H 0.852 0.83844 0.13602 0.0
H3077 H 0.8625 0.89135 0.12906 0.0
H3078 H 0.84788 0.90836 0.12653 0.0
H3079 H 0.81661 0.8822 0.12872 0.0
H3080 H 0.83174 0.86481 0.13041 0.0
H3081 H 0.87762 0.84532 0.13687 0.0
H3082 H 0.85628 0.87408 0.15565 0.0
O3083 O 0.8725 0.87043 0.12255 0.0
H3084 H 0.88878 0.84079 0.1562 0.0
H3085 H 0.86765 0.86961 0.1753 0.0
C3086 C 0.85573 0.85077 0.12039 0.0
C3087 C 0.85743 0.85129 0.10739 0.0
C3088 C 0.85852 0.84027 0.10035 0.0
C3089 C 0.8578 0.82846 0.10615 0.0
C3090 C 0.8547 0.828 0.11898 0.0
C3091 C 0.85358 0.83908 0.12602 0.0
C3092 C 0.84827 0.87676 0.12973 0.0
C3093 C 0.85251 0.88919 0.12902 0.0
C3094 C 0.84403 0.89903 0.12774 0.0
C3095 C 0.83092 0.89683 0.12751 0.0
C3096 C 0.82661 0.88431 0.12869 0.0
C3097 C 0.83524 0.87435 0.12977 0.0
C3098 C 0.86586 0.85981 0.14486 0.0
C3099 C 0.87501 0.85038 0.1453 0.0
C3100 C 0.88143 0.84779 0.15641 0.0
C3101 C 0.87905 0.85475 0.16736 0.0
C3102 C 0.86968 0.86407 0.16702 0.0
C3103 C 0.86312 0.86659 0.15582 0.0
P3104 P 0.17592 0.66572 0.14565 0.0
H3105 H 0.20087 0.65393 0.14359 0.0
H3106 H 0.20742 0.63215 0.14027 0.0
H3107 H 0.16833 0.62117 0.13588 0.0
H3108 H 0.16191 0.64277 0.13966 0.0
H3109 H 0.17552 0.69246 0.14024 0.0
H3110 H 0.16736 0.70455 0.12259 0.0
H3111 H 0.1582 0.67012 0.10295 0.0
H3112 H 0.16637 0.65807 0.12065 0.0
H3113 H 0.17358 0.66183 0.17278 0.0
H3114 H 0.14863 0.66793 0.14132 0.0
O3115 O 0.18767 0.67328 0.153 0.0
H3116 H 0.15519 0.65977 0.18667 0.0
H3117 H 0.13045 0.66583 0.15505 0.0
C3118 C 0.18088 0.64992 0.14212 0.0
C3119 C 0.19373 0.64681 0.14191 0.0
C3120 C 0.19747 0.63435 0.13991 0.0
C3121 C 0.18841 0.62482 0.13801 0.0
C3122 C 0.17557 0.62817 0.13766 0.0
C3123 C 0.17186 0.64055 0.13975 0.0
C3124 C 0.17177 0.67436 0.1317 0.0
C3125 C 0.17203 0.6875 0.13202 0.0
C3126 C 0.16736 0.69441 0.1219 0.0
C3127 C 0.16216 0.6883 0.11133 0.0
C3128 C 0.16209 0.6751 0.11097 0.0
C3129 C 0.16686 0.6682 0.12107 0.0
C3130 C 0.16251 0.66519 0.15603 0.0
C3131 C 0.16419 0.66292 0.1689 0.0
C3132 C 0.15372 0.66179 0.17682 0.0
C3133 C 0.14144 0.6627 0.17191 0.0
C3134 C 0.13983 0.6651 0.15906 0.0
C3135 C 0.15025 0.66632 0.1512 0.0
P3136 P 0.17287 0.37692 0.83013 0.0
H3137 H 0.16302 0.37725 0.8044 0.0
H3138 H 0.14188 0.3804 0.79567 0.0
H3139 H 0.12773 0.38809 0.83276 0.0
H3140 H 0.14887 0.3845 0.84158 0.0
H3141 H 0.19856 0.38546 0.82473 0.0
H3142 H 0.21125 0.40312 0.83238 0.0
H3143 H 0.17948 0.41652 0.85365 0.0
H3144 H 0.16676 0.39878 0.8459 0.0
H3145 H 0.15819 0.35398 0.83373 0.0
H3146 H 0.18475 0.3763 0.85523 0.0
O3147 O 0.18102 0.36925 0.81918 0.0
H3148 H 0.15691 0.33891 0.85105 0.0
H3149 H 0.18353 0.36124 0.8724 0.0
C3150 C 0.15753 0.38058 0.82367 0.0
C3151 C 0.15542 0.37966 0.81069 0.0
C3152 C 0.14334 0.38148 0.80569 0.0
C3153 C 0.1332 0.3845 0.81355 0.0
C3154 C 0.13542 0.38588 0.8265 0.0
C3155 C 0.14748 0.38384 0.83153 0.0
C3156 C 0.18161 0.39089 0.83456 0.0
C3157 C 0.1942 0.39231 0.83082 0.0
C3158 C 0.20147 0.40243 0.83521 0.0
C3159 C 0.19635 0.41125 0.84358 0.0
C3160 C 0.18369 0.40987 0.84723 0.0
C3161 C 0.17638 0.39979 0.84273 0.0
C3162 C 0.17133 0.36643 0.84327 0.0
C3163 C 0.16359 0.35574 0.84222 0.0
C3164 C 0.16288 0.34714 0.85208 0.0
C3165 C 0.17008 0.349 0.86304 0.0
C3166 C 0.17791 0.35963 0.86402 0.0
C3167 C 0.17853 0.36827 0.85423 0.0
P3168 P 0.3607 0.36555 0.63097 0.0
H3169 H 0.35856 0.36324 0.60392 0.0
H3170 H 0.3587 0.34528 0.58972 0.0
H3171 H 0.35751 0.32025 0.62146 0.0
H3172 H 0.35756 0.33841 0.63568 0.0
H3173 H 0.35548 0.3882 0.64533 0.0
H3174 H 0.33971 0.4045 0.64186 0.0
H3175 H 0.31968 0.37993 0.61625 0.0
H3176 H 0.33524 0.36355 0.61996 0.0
H3177 H 0.3851 0.35476 0.6342 0.0
H3178 H 0.35466 0.36597 0.65836 0.0
O3179 O 0.37067 0.37505 0.62349 0.0
H3180 H 0.39768 0.34898 0.65229 0.0
H3181 H 0.36731 0.35996 0.67684 0.0
C3182 C 0.35837 0.35215 0.62083 0.0
C3183 C 0.35818 0.35389 0.60783 0.0
C3184 C 0.35816 0.34358 0.59971 0.0
C3185 C 0.35828 0.33128 0.60444 0.0
C3186 C 0.35768 0.32958 0.61752 0.0
C3187 C 0.35766 0.33996 0.62565 0.0
C3188 C 0.34658 0.37465 0.63292 0.0
C3189 C 0.34734 0.38606 0.63949 0.0
C3190 C 0.33836 0.3954 0.63744 0.0
C3191 C 0.32861 0.39349 0.62865 0.0
C3192 C 0.32719 0.38164 0.62299 0.0
C3193 C 0.33608 0.37226 0.62516 0.0
C3194 C 0.369 0.36083 0.64493 0.0
C3195 C 0.38108 0.35586 0.64346 0.0
C3196 C 0.38823 0.35244 0.65385 0.0
C3197 C 0.38347 0.35385 0.66605 0.0
C3198 C 0.37125 0.35878 0.66756 0.0
C3199 C 0.36402 0.3622 0.65703 0.0
P3200 P 0.17508 0.6393 0.68702 0.0
H3201 H 0.16362 0.63814 0.71211 0.0
H3202 H 0.14169 0.63558 0.71897 0.0
H3203 H 0.13025 0.62951 0.68042 0.0
H3204 H 0.15193 0.6326 0.67367 0.0
H3205 H 0.2012 0.63187 0.6916 0.0
H3206 H 0.2138 0.61435 0.68371 0.0
H3207 H 0.18084 0.59883 0.66537 0.0
H3208 H 0.16813 0.61613 0.67357 0.0
H3209 H 0.16572 0.66468 0.68342 0.0
H3210 H 0.182 0.63569 0.66031 0.0
O3211 O 0.18276 0.64725 0.69826 0.0
H3212 H 0.16314 0.6779 0.66483 0.0
H3213 H 0.17928 0.64874 0.64183 0.0
C3214 C 0.15935 0.63578 0.69235 0.0
C3215 C 0.15636 0.63621 0.70517 0.0
C3216 C 0.14384 0.63466 0.70909 0.0
C3217 C 0.13415 0.6326 0.70023 0.0
C3218 C 0.1374 0.63143 0.68748 0.0
C3219 C 0.14983 0.63309 0.68359 0.0
C3220 C 0.18367 0.62523 0.68334 0.0
C3221 C 0.19658 0.62452 0.68621 0.0
C3222 C 0.20378 0.61456 0.68167 0.0
C3223 C 0.19823 0.60533 0.67397 0.0
C3224 C 0.18527 0.60586 0.67133 0.0
C3225 C 0.17801 0.61569 0.67609 0.0
C3226 C 0.17403 0.64918 0.67333 0.0
C3227 C 0.16881 0.66119 0.67439 0.0
C3228 C 0.16736 0.66873 0.66378 0.0
C3229 C 0.17096 0.66432 0.65187 0.0
C3230 C 0.17628 0.65232 0.65086 0.0
C3231 C 0.17786 0.64485 0.66149 0.0
P3232 P 0.33697 0.37506 0.18434 0.0
H3233 H 0.34789 0.37743 0.20967 0.0
H3234 H 0.36959 0.38064 0.21711 0.0
H3235 H 0.38203 0.38413 0.17875 0.0
H3236 H 0.36048 0.38057 0.17142 0.0
H3237 H 0.3103 0.38159 0.18466 0.0
H3238 H 0.29848 0.39903 0.17572 0.0
H3239 H 0.3334 0.4162 0.16382 0.0
H3240 H 0.34512 0.39868 0.17266 0.0
H3241 H 0.34624 0.34953 0.18303 0.0
H3242 H 0.33194 0.37698 0.1571 0.0
O3243 O 0.32888 0.36793 0.19567 0.0
H3244 H 0.35063 0.33533 0.16555 0.0
H3245 H 0.33661 0.36303 0.13959 0.0
C3246 C 0.35261 0.37867 0.18999 0.0
C3247 C 0.3553 0.37894 0.20288 0.0
C3248 C 0.36769 0.38082 0.20712 0.0
C3249 C 0.37756 0.38251 0.19851 0.0
C3250 C 0.3747 0.3826 0.18562 0.0
C3251 C 0.36236 0.38067 0.18141 0.0
C3252 C 0.32861 0.38891 0.1795 0.0
C3253 C 0.31543 0.38923 0.18034 0.0
C3254 C 0.30868 0.39922 0.17522 0.0
C3255 C 0.31499 0.40901 0.16901 0.0
C3256 C 0.32824 0.40875 0.16841 0.0
C3257 C 0.33497 0.39878 0.17359 0.0
C3258 C 0.33866 0.36425 0.17141 0.0
C3259 C 0.34392 0.35244 0.17358 0.0
C3260 C 0.34655 0.34439 0.16355 0.0
C3261 C 0.34406 0.34805 0.15111 0.0
C3262 C 0.33853 0.35983 0.14902 0.0
C3263 C 0.33589 0.36786 0.15908 0.0
P3264 P 0.63229 0.40303 0.11244 0.0
H3265 H 0.65323 0.39531 0.09684 0.0
H3266 H 0.65492 0.37878 0.08096 0.0
H3267 H 0.61437 0.37497 0.08027 0.0
H3268 H 0.61273 0.39155 0.0961 0.0
H3269 H 0.64294 0.41663 0.13342 0.0
H3270 H 0.65608 0.43531 0.13534 0.0
H3271 H 0.65516 0.43969 0.09505 0.0
H3272 H 0.64202 0.42066 0.09322 0.0
H3273 H 0.61202 0.38657 0.12066 0.0
H3274 H 0.61824 0.42643 0.11735 0.0
O3275 O 0.6387 0.39326 0.12282 0.0
H3276 H 0.5935 0.39047 0.1336 0.0
H3277 H 0.59986 0.43037 0.1305 0.0
C3278 C 0.63287 0.39468 0.09769 0.0
C3279 C 0.64467 0.39128 0.0929 0.0
C3280 C 0.64563 0.38179 0.08384 0.0
C3281 C 0.63478 0.37543 0.07951 0.0
C3282 C 0.6229 0.37957 0.08358 0.0
C3283 C 0.62196 0.38912 0.0926 0.0
C3284 C 0.64177 0.41711 0.11318 0.0
C3285 C 0.64558 0.42159 0.12498 0.0
C3286 C 0.65298 0.43239 0.12607 0.0
C3287 C 0.65669 0.43905 0.11536 0.0
C3288 C 0.65258 0.4347 0.10349 0.0
C3289 C 0.64509 0.42384 0.10242 0.0
C3290 C 0.61664 0.40618 0.11819 0.0
C3291 C 0.60918 0.39617 0.12239 0.0
C3292 C 0.59859 0.39841 0.1298 0.0
C3293 C 0.59538 0.41073 0.13326 0.0
C3294 C 0.60225 0.42078 0.12816 0.0
C3295 C 0.61276 0.41852 0.1206 0.0
P3296 P 0.89447 0.60291 0.58763 0.0
H3297 H 0.879 0.58188 0.57801 0.0
H3298 H 0.8626 0.56891 0.58773 0.0
H3299 H 0.86463 0.59212 0.62105 0.0
H3300 H 0.88107 0.60487 0.61136 0.0
H3301 H 0.9077 0.62182 0.57298 0.0
H3302 H 0.90147 0.64227 0.56457 0.0
H3303 H 0.86391 0.63678 0.579 0.0
H3304 H 0.8702 0.61649 0.58757 0.0
H3305 H 0.90955 0.58551 0.60241 0.0
H3306 H 0.90411 0.62552 0.6007 0.0
O3307 O 0.90125 0.59438 0.57639 0.0
H3308 H 0.9231 0.58828 0.62094 0.0
H3309 H 0.91796 0.6284 0.61874 0.0
C3310 C 0.88143 0.59416 0.59409 0.0
C3311 C 0.87584 0.58421 0.58738 0.0
C3312 C 0.8664 0.57686 0.59291 0.0
C3313 C 0.86241 0.57939 0.60524 0.0
C3314 C 0.86765 0.58977 0.61164 0.0
C3315 C 0.87704 0.59709 0.60611 0.0
C3316 C 0.88944 0.61761 0.5809 0.0
C3317 C 0.89812 0.62501 0.57431 0.0
C3318 C 0.89457 0.63669 0.56955 0.0
C3319 C 0.88221 0.6411 0.57116 0.0
C3320 C 0.87347 0.63357 0.57757 0.0
C3321 C 0.87709 0.62196 0.58249 0.0
C3322 C 0.90585 0.60529 0.60011 0.0
C3323 C 0.91149 0.59491 0.60585 0.0
C3324 C 0.91929 0.59651 0.61641 0.0
C3325 C 0.92156 0.60856 0.62142 0.0
C3326 C 0.91624 0.61896 0.6153 0.0
C3327 C 0.90839 0.61733 0.60484 0.0
P3328 P 0.61917 0.416 0.6461 0.0
H3329 H 0.62834 0.43177 0.6665 0.0
H3330 H 0.64524 0.44751 0.6671 0.0
H3331 H 0.6454 0.44834 0.62665 0.0
H3332 H 0.6282 0.43299 0.62607 0.0
H3333 H 0.61029 0.3963 0.66237 0.0
H3334 H 0.59203 0.39399 0.67579 0.0
H3335 H 0.57965 0.43113 0.66566 0.0
H3336 H 0.59835 0.43347 0.65215 0.0
H3337 H 0.63466 0.41052 0.6244 0.0
H3338 H 0.59536 0.40721 0.63419 0.0
O3339 O 0.62987 0.40609 0.65179 0.0
H3340 H 0.63073 0.39855 0.60522 0.0
H3341 H 0.59145 0.39488 0.61509 0.0
C3342 C 0.62711 0.43102 0.64626 0.0
C3343 C 0.63159 0.43576 0.65776 0.0
C3344 C 0.64129 0.44472 0.6581 0.0
C3345 C 0.64676 0.44893 0.64692 0.0
C3346 C 0.64144 0.44508 0.63541 0.0
C3347 C 0.63161 0.43627 0.63509 0.0
C3348 C 0.60581 0.41514 0.65644 0.0
C3349 C 0.60375 0.40403 0.66307 0.0
C3350 C 0.5932 0.40265 0.67065 0.0
C3351 C 0.58432 0.41231 0.67169 0.0
C3352 C 0.58637 0.42353 0.66506 0.0
C3353 C 0.59702 0.42489 0.65738 0.0
C3354 C 0.61531 0.40994 0.63069 0.0
C3355 C 0.6251 0.40756 0.62224 0.0
C3356 C 0.62285 0.40066 0.61128 0.0
C3357 C 0.6108 0.39571 0.60869 0.0
C3358 C 0.60086 0.39851 0.61691 0.0
C3359 C 0.60309 0.40562 0.6278 0.0
P3360 P 0.35888 0.65367 0.88101 0.0
H3361 H 0.35516 0.65565 0.90778 0.0
H3362 H 0.35543 0.67375 0.92194 0.0
H3363 H 0.35295 0.69856 0.89022 0.0
H3364 H 0.35175 0.68033 0.87606 0.0
H3365 H 0.3624 0.62766 0.88817 0.0
H3366 H 0.34835 0.61014 0.89111 0.0
H3367 H 0.31707 0.63237 0.87779 0.0
H3368 H 0.33145 0.65047 0.87553 0.0
H3369 H 0.37318 0.67525 0.87238 0.0
H3370 H 0.35839 0.64099 0.85621 0.0
O3371 O 0.37215 0.64887 0.88793 0.0
H3372 H 0.38624 0.67841 0.85425 0.0
H3373 H 0.37252 0.64369 0.83818 0.0
C3374 C 0.35394 0.66662 0.89083 0.0
C3375 C 0.35418 0.66495 0.90386 0.0
C3376 C 0.35442 0.6753 0.91196 0.0
C3377 C 0.35457 0.68753 0.90713 0.0
C3378 C 0.35313 0.68921 0.89414 0.0
C3379 C 0.35249 0.67879 0.88606 0.0
C3380 C 0.34804 0.64047 0.88164 0.0
C3381 C 0.35255 0.62889 0.88581 0.0
C3382 C 0.34443 0.61871 0.88737 0.0
C3383 C 0.33149 0.61963 0.88454 0.0
C3384 C 0.32694 0.63126 0.88016 0.0
C3385 C 0.33516 0.6416 0.87874 0.0
C3386 C 0.36429 0.65813 0.86557 0.0
C3387 C 0.37207 0.66877 0.86461 0.0
C3388 C 0.37981 0.67047 0.85425 0.0
C3389 C 0.38054 0.66123 0.84486 0.0
C3390 C 0.37207 0.65103 0.84523 0.0
C3391 C 0.364 0.64948 0.85556 0.0
P3392 P 0.17411 0.34755 0.36767 0.0
H3393 H 0.19987 0.35734 0.37018 0.0
H3394 H 0.20851 0.37768 0.37653 0.0
H3395 H 0.17082 0.39077 0.38427 0.0
H3396 H 0.16224 0.37045 0.37748 0.0
H3397 H 0.18436 0.32351 0.3762 0.0
H3398 H 0.17774 0.30871 0.39214 0.0
H3399 H 0.14793 0.33401 0.40314 0.0
H3400 H 0.1552 0.34905 0.38759 0.0
H3401 H 0.16709 0.36618 0.34862 0.0
H3402 H 0.15152 0.33203 0.36364 0.0
O3403 O 0.18514 0.34062 0.35899 0.0
H3404 H 0.14922 0.36765 0.33405 0.0
H3405 H 0.13398 0.33316 0.34903 0.0
C3406 C 0.18038 0.36244 0.37313 0.0
C3407 C 0.19345 0.36459 0.37322 0.0
C3408 C 0.19841 0.37624 0.37696 0.0
C3409 C 0.19039 0.38599 0.38082 0.0
C3410 C 0.17729 0.38361 0.3811 0.0
C3411 C 0.17235 0.37196 0.3773 0.0
C3412 C 0.17027 0.33741 0.38068 0.0
C3413 C 0.17654 0.32598 0.3822 0.0
C3414 C 0.17258 0.31739 0.39127 0.0
C3415 C 0.16208 0.31991 0.39894 0.0
C3416 C 0.15611 0.33164 0.39761 0.0
C3417 C 0.16022 0.3403 0.38865 0.0
C3418 C 0.16044 0.34927 0.35758 0.0
C3419 C 0.15975 0.35909 0.34891 0.0
C3420 C 0.14959 0.35981 0.34044 0.0
C3421 C 0.13998 0.3506 0.34037 0.0
C3422 C 0.14092 0.34064 0.34896 0.0
C3423 C 0.15103 0.33998 0.35739 0.0
P3424 P 0.35078 0.62541 0.34894 0.0
H3425 H 0.3474 0.59961 0.34065 0.0
H3426 H 0.32921 0.58563 0.3423 0.0
H3427 H 0.30545 0.61752 0.35012 0.0
H3428 H 0.32346 0.63144 0.34744 0.0
H3429 H 0.37666 0.61664 0.3506 0.0
H3430 H 0.3945 0.61726 0.33651 0.0
H3431 H 0.37154 0.63475 0.30815 0.0
H3432 H 0.35326 0.63416 0.32253 0.0
H3433 H 0.33432 0.6326 0.36904 0.0
H3434 H 0.35961 0.65155 0.34377 0.0
O3435 O 0.35611 0.61757 0.36138 0.0
H3436 H 0.3319 0.65182 0.38111 0.0
H3437 H 0.35739 0.67099 0.35621 0.0
C3438 C 0.33692 0.61655 0.34427 0.0
C3439 C 0.33817 0.60364 0.34217 0.0
C3440 C 0.32776 0.59562 0.34339 0.0
C3441 C 0.31591 0.60034 0.34694 0.0
C3442 C 0.31441 0.61345 0.34756 0.0
C3443 C 0.32481 0.62148 0.34611 0.0
C3444 C 0.36353 0.62536 0.33767 0.0
C3445 C 0.37526 0.62055 0.34136 0.0
C3446 C 0.38553 0.62088 0.33329 0.0
C3447 C 0.38438 0.62602 0.32128 0.0
C3448 C 0.3726 0.63064 0.31736 0.0
C3449 C 0.3622 0.63034 0.32555 0.0
C3450 C 0.347 0.64063 0.35538 0.0
C3451 C 0.33902 0.64102 0.36581 0.0
C3452 C 0.33768 0.652 0.37275 0.0
C3453 C 0.34447 0.66284 0.36959 0.0
C3454 C 0.35194 0.66276 0.35873 0.0
C3455 C 0.35324 0.65165 0.35166 0.0
H3456 H 0.16441 0.44181 0.11942 0.0
H3457 H 0.15867 0.45996 0.08392 0.0
H3458 H 0.13905 0.44784 0.08062 0.0
H3459 H 0.12416 0.43094 0.08759 0.0
H3460 H 0.13087 0.4133 0.12337 0.0
H3461 H 0.14938 0.42632 0.12679 0.0
C3462 C 0.1588 0.44316 0.111 0.0
C3463 C 0.16297 0.45162 0.10188 0.0
C3464 C 0.1477 0.43619 0.1092 0.0
C3465 C 0.15558 0.45347 0.09107 0.0
C3466 C 0.14443 0.44649 0.08916 0.0
C3467 C 0.12966 0.43003 0.09614 0.0
C3468 C 0.126 0.42122 0.10528 0.0
C3469 C 0.14049 0.43763 0.0981 0.0
C3470 C 0.13326 0.42015 0.1163 0.0
C3471 C 0.14394 0.42754 0.11825 0.0
H3472 H 0.84616 0.93462 0.41038 0.0
H3473 H 0.86257 0.9702 0.42121 0.0
H3474 H 0.88317 0.96018 0.42393 0.0
H3475 H 0.89661 0.9411 0.42285 0.0
H3476 H 0.87952 0.90582 0.41197 0.0
H3477 H 0.85906 0.91588 0.40994 0.0
C3478 C 0.85416 0.94019 0.41356 0.0
C3479 C 0.85274 0.95314 0.41569 0.0
C3480 C 0.8659 0.93439 0.41509 0.0
C3481 C 0.86337 0.96023 0.41944 0.0
C3482 C 0.87515 0.95449 0.42104 0.0
C3483 C 0.88836 0.93565 0.42011 0.0
C3484 C 0.8896 0.92275 0.41741 0.0
C3485 C 0.87654 0.94155 0.41884 0.0
C3486 C 0.87886 0.91579 0.41386 0.0
C3487 C 0.86714 0.92152 0.41275 0.0
H3488 H 0.34542 0.57822 0.58989 0.0
H3489 H 0.3648 0.5457 0.60396 0.0
H3490 H 0.38489 0.55689 0.6031 0.0
H3491 H 0.3971 0.57611 0.59867 0.0
H3492 H 0.37804 0.60852 0.58418 0.0
H3493 H 0.35777 0.59732 0.58491 0.0
C3494 C 0.35403 0.57364 0.59285 0.0
C3495 C 0.35356 0.56114 0.59701 0.0
C3496 C 0.36565 0.58014 0.59226 0.0
C3497 C 0.36487 0.55528 0.60063 0.0
C3498 C 0.37639 0.56168 0.60019 0.0
C3499 C 0.38847 0.58065 0.59569 0.0
C3500 C 0.38894 0.59308 0.59145 0.0
C3501 C 0.3769 0.57412 0.59606 0.0
C3502 C 0.3778 0.59893 0.5875 0.0
C3503 C 0.36624 0.59254 0.58793 0.0
H3504 H 0.66466 0.06761 0.9035 0.0
H3505 H 0.65592 0.05419 0.94055 0.0
H3506 H 0.63841 0.06899 0.94196 0.0
H3507 H 0.62514 0.08546 0.93231 0.0
H3508 H 0.63445 0.09874 0.89529 0.0
H3509 H 0.6521 0.08434 0.89428 0.0
C3510 C 0.65907 0.06805 0.91198 0.0
C3511 C 0.66164 0.05979 0.9219 0.0
C3512 C 0.64898 0.0765 0.91269 0.0
C3513 C 0.6541 0.06035 0.93271 0.0
C3514 C 0.64409 0.06884 0.93354 0.0
C3515 C 0.63107 0.08522 0.92405 0.0
C3516 C 0.62828 0.09305 0.91381 0.0
C3517 C 0.64135 0.07689 0.92352 0.0
C3518 C 0.63611 0.0926 0.90319 0.0
C3519 C 0.64631 0.08444 0.90263 0.0
H3520 H 0.15236 0.55555 0.42315 0.0
H3521 H 0.17496 0.58088 0.40113 0.0
H3522 H 0.15751 0.59555 0.39985 0.0
H3523 H 0.13608 0.60138 0.40498 0.0
H3524 H 0.1131 0.57724 0.42778 0.0
H3525 H 0.1304 0.56193 0.42892 0.0
C3526 C 0.15338 0.56429 0.4181 0.0
C3527 C 0.16493 0.56719 0.41228 0.0
C3528 C 0.14327 0.57287 0.41756 0.0
C3529 C 0.1662 0.57854 0.40578 0.0
C3530 C 0.15623 0.58691 0.40501 0.0
C3531 C 0.13482 0.5927 0.41011 0.0
C3532 C 0.12332 0.59031 0.4161 0.0
C3533 C 0.14477 0.58418 0.41086 0.0
C3534 C 0.12189 0.57922 0.42302 0.0
C3535 C 0.13176 0.57049 0.42364 0.0
H3536 H 0.65263 0.95959 0.59601 0.0
H3537 H 0.67553 0.93148 0.61392 0.0
H3538 H 0.65782 0.91686 0.6138 0.0
H3539 H 0.63585 0.91199 0.60899 0.0
H3540 H 0.61255 0.9391 0.59034 0.0
H3541 H 0.63029 0.95417 0.59023 0.0
C3542 C 0.65367 0.95025 0.59984 0.0
C3543 C 0.66538 0.94658 0.60492 0.0
C3544 C 0.6434 0.94174 0.5996 0.0
C3545 C 0.66666 0.93446 0.60984 0.0
C3546 C 0.65653 0.9261 0.60982 0.0
C3547 C 0.6347 0.92122 0.60489 0.0
C3548 C 0.62299 0.92456 0.5998 0.0
C3549 C 0.64489 0.92964 0.60477 0.0
C3550 C 0.62154 0.93643 0.59437 0.0
C3551 C 0.63166 0.945 0.59433 0.0
H3552 H 0.36396 0.46381 0.92718 0.0
H3553 H 0.34045 0.43752 0.90667 0.0
H3554 H 0.35724 0.42195 0.90748 0.0
H3555 H 0.37904 0.41608 0.91322 0.0
H3556 H 0.40275 0.44305 0.93258 0.0
H3557 H 0.38554 0.45808 0.93278 0.0
C3558 C 0.3625 0.45473 0.92276 0.0
C3559 C 0.35091 0.45197 0.91677 0.0
C3560 C 0.37231 0.44592 0.92297 0.0
C3561 C 0.34916 0.43996 0.91146 0.0
C3562 C 0.35883 0.43106 0.9118 0.0
C3563 C 0.38048 0.42528 0.91739 0.0
C3564 C 0.39222 0.42836 0.92291 0.0
C3565 C 0.37052 0.43399 0.91738 0.0
C3566 C 0.3938 0.4403 0.92843 0.0
C3567 C 0.38397 0.44895 0.9285 0.0
H3568 H 0.85406 0.06509 0.11218 0.0
H3569 H 0.85009 0.06115 0.07211 0.0
H3570 H 0.86808 0.07532 0.06898 0.0
H3571 H 0.88503 0.08863 0.0777 0.0
H3572 H 0.89011 0.09091 0.1179 0.0
H3573 H 0.87153 0.07779 0.12089 0.0
C3574 C 0.85708 0.06746 0.10278 0.0
C3575 C 0.85073 0.06221 0.09238 0.0
C3576 C 0.86764 0.07531 0.10107 0.0
C3577 C 0.85484 0.06514 0.08024 0.0
C3578 C 0.86513 0.0732 0.07846 0.0
C3579 C 0.88222 0.08615 0.08713 0.0
C3580 C 0.88901 0.09094 0.09754 0.0
C3581 C 0.87167 0.07827 0.08882 0.0
C3582 C 0.88498 0.08768 0.10967 0.0
C3583 C 0.87437 0.08007 0.11142 0.0
H3584 H 0.12282 0.15605 0.44631 0.0
H3585 H 0.08596 0.16839 0.43454 0.0
H3586 H 0.08316 0.14933 0.422 0.0
H3587 H 0.09191 0.13015 0.41286 0.0
H3588 H 0.12874 0.11758 0.42453 0.0
H3589 H 0.13084 0.13572 0.43852 0.0
C3590 C 0.11408 0.15444 0.44119 0.0
C3591 C 0.10467 0.16371 0.44126 0.0
C3592 C 0.11261 0.1435 0.43381 0.0
C3593 C 0.09343 0.1615 0.4345 0.0
C3594 C 0.09182 0.1506 0.42732 0.0
C3595 C 0.10031 0.13122 0.41862 0.0
C3596 C 0.1102 0.12253 0.4175 0.0
C3597 C 0.10147 0.14169 0.42665 0.0
C3598 C 0.12107 0.12424 0.42497 0.0
C3599 C 0.12225 0.13458 0.43305 0.0
H3600 H 0.07023 0.90587 0.68631 0.0
H3601 H 0.03608 0.915 0.6663 0.0
H3602 H 0.0479 0.91587 0.64655 0.0
H3603 H 0.06828 0.91379 0.63497 0.0
H3604 H 0.10195 0.9047 0.65577 0.0
H3605 H 0.09005 0.90427 0.67527 0.0
C3606 C 0.06537 0.90827 0.67768 0.0
C3607 C 0.05233 0.91054 0.67782 0.0
C3608 C 0.07218 0.90876 0.66649 0.0
C3609 C 0.04613 0.91321 0.66645 0.0
C3610 C 0.05289 0.91375 0.65517 0.0
C3611 C 0.07292 0.91181 0.64382 0.0
C3612 C 0.08594 0.90931 0.64406 0.0
C3613 C 0.06595 0.91152 0.65507 0.0
C3614 C 0.09194 0.90667 0.65548 0.0
C3615 C 0.08515 0.9064 0.66659 0.0
H3616 H 0.42475 0.8502 0.9326 0.0
H3617 H 0.38952 0.85808 0.951 0.0
H3618 H 0.38842 0.87836 0.94049 0.0
H3619 H 0.39696 0.89346 0.92521 0.0
H3620 H 0.43206 0.88529 0.90668 0.0
H3621 H 0.43368 0.86557 0.91804 0.0
C3622 C 0.41683 0.85636 0.93432 0.0
C3623 C 0.40721 0.85258 0.94254 0.0
C3624 C 0.4162 0.86796 0.92817 0.0
C3625 C 0.39713 0.86078 0.94482 0.0
C3626 C 0.39643 0.87235 0.93873 0.0
C3627 C 0.40496 0.88736 0.92368 0.0
C3628 C 0.41438 0.89087 0.91512 0.0
C3629 C 0.40583 0.87597 0.93025 0.0
C3630 C 0.42476 0.88291 0.91333 0.0
C3631 C 0.42566 0.87158 0.91977 0.0
H3632 H 0.4415 0.11711 0.17795 0.0
H3633 H 0.47461 0.10034 0.16178 0.0
H3634 H 0.46363 0.09825 0.14155 0.0
H3635 H 0.44437 0.10117 0.12849 0.0
H3636 H 0.4114 0.11761 0.14539 0.0
H3637 H 0.42255 0.11972 0.16529 0.0
C3638 C 0.4463 0.11284 0.17006 0.0
C3639 C 0.45882 0.10877 0.17144 0.0
C3640 C 0.43994 0.11163 0.15854 0.0
C3641 C 0.46498 0.1036 0.16098 0.0
C3642 C 0.45868 0.10234 0.14942 0.0
C3643 C 0.43963 0.10515 0.13656 0.0
C3644 C 0.42708 0.10935 0.13537 0.0
C3645 C 0.44612 0.10632 0.1481 0.0
C3646 C 0.42111 0.11454 0.14592 0.0
C3647 C 0.42745 0.11568 0.15735 0.0
H3648 H 0.12035 0.84524 0.07678 0.0
H3649 H 0.08384 0.85599 0.06259 0.0
H3650 H 0.0835 0.87386 0.0771 0.0
H3651 H 0.09382 0.88666 0.09377 0.0
H3652 H 0.13032 0.87548 0.10774 0.0
H3653 H 0.13039 0.85764 0.09344 0.0
C3654 C 0.11223 0.85138 0.07697 0.0
C3655 C 0.10213 0.84924 0.06862 0.0
C3656 C 0.11214 0.86167 0.08526 0.0
C3657 C 0.0918 0.85747 0.06885 0.0
C3658 C 0.09158 0.86768 0.07717 0.0
C3659 C 0.10176 0.88029 0.09368 0.0
C3660 C 0.11212 0.88254 0.10171 0.0
C3661 C 0.10174 0.86993 0.08539 0.0
C3662 C 0.12235 0.87418 0.10146 0.0
C3663 C 0.12236 0.86389 0.09335 0.0
H3664 H 0.46982 0.91818 0.35689 0.0
H3665 H 0.44332 0.90046 0.33143 0.0
H3666 H 0.42733 0.90036 0.34789 0.0
H3667 H 0.42118 0.90444 0.36997 0.0
H3668 H 0.44852 0.92094 0.39542 0.0
H3669 H 0.46387 0.92211 0.37859 0.0
C3670 C 0.46061 0.91414 0.35492 0.0
C3671 C 0.45793 0.90918 0.34291 0.0
C3672 C 0.45158 0.9138 0.36451 0.0
C3673 C 0.44572 0.90442 0.34052 0.0
C3674 C 0.43658 0.90424 0.34999 0.0
C3675 C 0.43053 0.90819 0.37185 0.0
C3676 C 0.43362 0.91264 0.384 0.0
C3677 C 0.43947 0.90874 0.36209 0.0
C3678 C 0.44576 0.91763 0.38617 0.0
C3679 C 0.4546 0.91825 0.37655 0.0
H3680 H 0.4181 0.17081 0.58741 0.0
H3681 H 0.39889 0.15497 0.55519 0.0
H3682 H 0.39898 0.13429 0.56505 0.0
H3683 H 0.40318 0.12097 0.58366 0.0
H3684 H 0.42226 0.13712 0.61572 0.0
H3685 H 0.42325 0.15748 0.6053 0.0
C3686 C 0.41388 0.16285 0.58254 0.0
C3687 C 0.40833 0.16452 0.57065 0.0
C3688 C 0.41379 0.15107 0.58835 0.0
C3689 C 0.40326 0.15399 0.56434 0.0
C3690 C 0.4032 0.14217 0.57003 0.0
C3691 C 0.40759 0.12898 0.58826 0.0
C3692 C 0.41261 0.12767 0.60042 0.0
C3693 C 0.40821 0.14065 0.58214 0.0
C3694 C 0.41837 0.138 0.60635 0.0
C3695 C 0.41893 0.14961 0.6004 0.0
H3696 H 0.06875 0.10927 0.82946 0.0
H3697 H 0.03695 0.09171 0.84735 0.0
H3698 H 0.04842 0.09185 0.8675 0.0
H3699 H 0.06788 0.09707 0.87997 0.0
H3700 H 0.09894 0.11529 0.86132 0.0
H3701 H 0.08747 0.11464 0.84151 0.0
C3702 C 0.06436 0.10534 0.83774 0.0
C3703 C 0.05213 0.10031 0.83689 0.0
C3704 C 0.07091 0.1056 0.84917 0.0
C3705 C 0.04641 0.09559 0.84778 0.0
C3706 C 0.05298 0.09565 0.85927 0.0
C3707 C 0.07205 0.10089 0.87154 0.0
C3708 C 0.08417 0.10635 0.8721 0.0
C3709 C 0.06527 0.10064 0.86008 0.0
C3710 C 0.08954 0.11123 0.86114 0.0
C3711 C 0.08302 0.11082 0.8498 0.0
H3712 H 0.96797 0.42001 0.85544 0.0
H3713 H 0.9432 0.39789 0.83175 0.0
H3714 H 0.92732 0.39766 0.84832 0.0
H3715 H 0.92089 0.40291 0.87008 0.0
H3716 H 0.9467 0.42377 0.89387 0.0
H3717 H 0.96176 0.42508 0.87682 0.0
C3718 C 0.95917 0.41499 0.85389 0.0
C3719 C 0.95695 0.40882 0.84235 0.0
C3720 C 0.95025 0.41459 0.86356 0.0
C3721 C 0.94524 0.40278 0.84046 0.0
C3722 C 0.93617 0.40254 0.85001 0.0
C3723 C 0.92985 0.40765 0.87157 0.0
C3724 C 0.93256 0.41329 0.88331 0.0
C3725 C 0.93865 0.40824 0.86169 0.0
C3726 C 0.94419 0.41953 0.88494 0.0
C3727 C 0.95288 0.42023 0.87519 0.0
H3728 H 0.89331 0.66014 0.07023 0.0
H3729 H 0.93254 0.66906 0.07627 0.0
H3730 H 0.93515 0.65001 0.08875 0.0
H3731 H 0.92582 0.63187 0.0994 0.0
H3732 H 0.88635 0.62321 0.0939 0.0
H3733 H 0.88421 0.64119 0.07998 0.0
C3734 C 0.90245 0.65774 0.07411 0.0
C3735 C 0.91275 0.66586 0.07233 0.0
C3736 C 0.90377 0.64697 0.08157 0.0
C3737 C 0.92453 0.66285 0.07753 0.0
C3738 C 0.92599 0.65202 0.0847 0.0
C3739 C 0.91679 0.63377 0.095 0.0
C3740 C 0.90625 0.6262 0.0978 0.0
C3741 C 0.91561 0.64415 0.08701 0.0
C3742 C 0.89458 0.62898 0.09212 0.0
C3743 C 0.89336 0.63922 0.08407 0.0
H3744 H 0.54688 0.59139 0.34756 0.0
H3745 H 0.5662 0.6174 0.32329 0.0
H3746 H 0.58337 0.6193 0.33849 0.0
H3747 H 0.59248 0.61441 0.35905 0.0
H3748 H 0.5733 0.58868 0.38358 0.0
H3749 H 0.55636 0.58601 0.36799 0.0
C3750 C 0.55482 0.59753 0.34561 0.0
C3751 C 0.55515 0.6043 0.33428 0.0
C3752 C 0.56461 0.59874 0.3545 0.0
C3753 C 0.56569 0.61197 0.33182 0.0
C3754 C 0.57548 0.61316 0.34058 0.0
C3755 C 0.58453 0.60828 0.36101 0.0
C3756 C 0.58402 0.60188 0.37249 0.0
C3757 C 0.57495 0.60674 0.352 0.0
C3758 C 0.57386 0.59373 0.37481 0.0
C3759 C 0.56419 0.59222 0.36591 0.0
H3760 H 0.89557 0.35873 0.44487 0.0
H3761 H 0.93241 0.34663 0.4331 0.0
H3762 H 0.93488 0.3656 0.42057 0.0
H3763 H 0.92589 0.38471 0.41164 0.0
H3764 H 0.88897 0.39688 0.42321 0.0
H3765 H 0.88717 0.37877 0.43704 0.0
C3766 C 0.90422 0.36038 0.43974 0.0
C3767 C 0.91377 0.35126 0.43984 0.0
C3768 C 0.90548 0.37122 0.43237 0.0
C3769 C 0.92488 0.35346 0.43306 0.0
C3770 C 0.92629 0.36429 0.42589 0.0
C3771 C 0.91753 0.38354 0.41734 0.0
C3772 C 0.90755 0.39213 0.41629 0.0
C3773 C 0.91654 0.3731 0.42526 0.0
C3774 C 0.89671 0.39031 0.42364 0.0
C3775 C 0.8957 0.37999 0.43162 0.0
H3776 H 0.61951 0.65461 0.94907 0.0
H3777 H 0.59053 0.67286 0.92738 0.0
H3778 H 0.58752 0.65393 0.91476 0.0
H3779 H 0.59418 0.63281 0.90878 0.0
H3780 H 0.62322 0.61432 0.93016 0.0
H3781 H 0.62512 0.63265 0.94398 0.0
C3782 C 0.61239 0.65434 0.94173 0.0
C3783 C 0.60535 0.66518 0.93909 0.0
C3784 C 0.6108 0.64342 0.93435 0.0
C3785 C 0.59621 0.66471 0.92948 0.0
C3786 C 0.59447 0.65388 0.92226 0.0
C3787 C 0.60077 0.63268 0.9166 0.0
C3788 C 0.60859 0.62222 0.91837 0.0
C3789 C 0.60188 0.64327 0.92444 0.0
C3790 C 0.61721 0.62233 0.92845 0.0
C3791 C 0.61827 0.63279 0.9364 0.0
H3792 H 0.81188 0.61172 0.85059 0.0
H3793 H 0.83692 0.58272 0.86387 0.0
H3794 H 0.85439 0.59754 0.86399 0.0
H3795 H 0.86251 0.61888 0.86137 0.0
H3796 H 0.83741 0.64845 0.85011 0.0
H3797 H 0.81989 0.63333 0.84864 0.0
C3798 C 0.82108 0.60861 0.8537 0.0
C3799 C 0.82292 0.59597 0.85717 0.0
C3800 C 0.83109 0.61733 0.85425 0.0
C3801 C 0.83511 0.59222 0.86085 0.0
C3802 C 0.84515 0.60075 0.86108 0.0
C3803 C 0.85322 0.62199 0.8585 0.0
C3804 C 0.85125 0.63471 0.85573 0.0
C3805 C 0.84322 0.61333 0.8579 0.0
C3806 C 0.83913 0.63869 0.85228 0.0
C3807 C 0.82915 0.63005 0.85141 0.0
H3808 H 0.1753 0.09122 0.66563 0.0
H3809 H 0.2101 0.11165 0.66074 0.0
H3810 H 0.19845 0.13153 0.66092 0.0
H3811 H 0.17783 0.14293 0.66097 0.0
H3812 H 0.14346 0.12126 0.66441 0.0
H3813 H 0.15546 0.1021 0.66594 0.0
C3814 C 0.18038 0.1 0.66451 0.0
C3815 C 0.1935 0.09992 0.66291 0.0
C3816 C 0.17364 0.11122 0.66424 0.0
C3817 C 0.19997 0.11144 0.66194 0.0
C3818 C 0.19329 0.1228 0.66193 0.0
C3819 C 0.17303 0.134 0.66211 0.0
C3820 C 0.15975 0.13361 0.66284 0.0
C3821 C 0.18005 0.12279 0.66282 0.0
C3822 C 0.15366 0.12194 0.6642 0.0
C3823 C 0.1605 0.11092 0.66499 0.0
H3824 H 0.69245 0.41278 0.37125 0.0
H3825 H 0.69413 0.41334 0.33093 0.0
H3826 H 0.68129 0.39408 0.32981 0.0
H3827 H 0.66751 0.3786 0.34049 0.0
H3828 H 0.66616 0.37846 0.38094 0.0
H3829 H 0.68109 0.39587 0.38187 0.0
C3830 C 0.6902 0.40849 0.36225 0.0
C3831 C 0.69409 0.4144 0.3512 0.0
C3832 C 0.68281 0.39756 0.36172 0.0
C3833 C 0.69121 0.40886 0.33955 0.0
C3834 C 0.68382 0.39793 0.33893 0.0
C3835 C 0.67068 0.38226 0.34948 0.0
C3836 C 0.66571 0.37724 0.36063 0.0
C3837 C 0.67924 0.39241 0.34996 0.0
C3838 C 0.66994 0.38202 0.37223 0.0
C3839 C 0.6784 0.39207 0.37278 0.0
H3840 H 0.32833 0.92012 0.14126 0.0
H3841 H 0.3084 0.9073 0.17396 0.0
H3842 H 0.32277 0.88955 0.17588 0.0
H3843 H 0.34121 0.87756 0.1682 0.0
H3844 H 0.36051 0.89012 0.13508 0.0
H3845 H 0.34638 0.90809 0.13346 0.0
C3846 C 0.32722 0.91352 0.14888 0.0
C3847 C 0.31731 0.91508 0.15746 0.0
C3848 C 0.33542 0.90324 0.14983 0.0
C3849 C 0.31589 0.90629 0.16717 0.0
C3850 C 0.32413 0.89614 0.16829 0.0
C3851 C 0.3422 0.88422 0.16061 0.0
C3852 C 0.35175 0.88253 0.15168 0.0
C3853 C 0.33391 0.89447 0.15965 0.0
C3854 C 0.35306 0.8912 0.14192 0.0
C3855 C 0.34504 0.90149 0.14103 0.0
H3856 H 0.82866 0.42177 0.64326 0.0
H3857 H 0.80595 0.40569 0.67259 0.0
H3858 H 0.82038 0.38797 0.67413 0.0
H3859 H 0.83959 0.37688 0.66703 0.0
H3860 H 0.86222 0.39321 0.63789 0.0
H3861 H 0.84781 0.411 0.63643 0.0
C3862 C 0.82694 0.41448 0.6501 0.0
C3863 C 0.81621 0.41508 0.65776 0.0
C3864 C 0.83526 0.4043 0.65092 0.0
C3865 C 0.81405 0.40541 0.66645 0.0
C3866 C 0.82232 0.39527 0.66737 0.0
C3867 C 0.84124 0.38433 0.66034 0.0
C3868 C 0.85181 0.3838 0.65249 0.0
C3869 C 0.83292 0.39456 0.6596 0.0
C3870 C 0.85403 0.39348 0.64392 0.0
C3871 C 0.84584 0.40364 0.64312 0.0
H3872 H 0.32467 0.09825 0.33963 0.0
H3873 H 0.31451 0.10259 0.37845 0.0
H3874 H 0.32918 0.12032 0.38067 0.0
H3875 H 0.34559 0.13389 0.37182 0.0
H3876 H 0.35623 0.12938 0.33308 0.0
H3877 H 0.34073 0.11246 0.33052 0.0
C3878 C 0.32574 0.10312 0.34854 0.0
C3879 C 0.31869 0.09915 0.35892 0.0
C3880 C 0.33425 0.11325 0.34974 0.0
C3881 C 0.32 0.10548 0.37042 0.0
C3882 C 0.32833 0.11562 0.37166 0.0
C3883 C 0.34435 0.12938 0.36275 0.0
C3884 C 0.35206 0.13291 0.35267 0.0
C3885 C 0.33557 0.11953 0.36141 0.0
C3886 C 0.35047 0.12679 0.34102 0.0
C3887 C 0.34161 0.11711 0.33955 0.0
H3888 H 0.69951 0.61136 0.17175 0.0
H3889 H 0.67649 0.58708 0.14846 0.0
H3890 H 0.66176 0.60409 0.14466 0.0
H3891 H 0.65451 0.62526 0.14908 0.0
H3892 H 0.67663 0.65 0.17256 0.0
H3893 H 0.69267 0.63355 0.17518 0.0
C3894 C 0.69131 0.60991 0.16578 0.0
C3895 C 0.68894 0.59796 0.16053 0.0
C3896 C 0.68271 0.61977 0.16375 0.0
C3897 C 0.67835 0.59615 0.15275 0.0
C3898 C 0.66994 0.60586 0.15055 0.0
C3899 C 0.66292 0.62705 0.15467 0.0
C3900 C 0.66445 0.63868 0.16067 0.0
C3901 C 0.67189 0.6176 0.15619 0.0
C3902 C 0.67535 0.64104 0.16786 0.0
C3903 C 0.68445 0.63164 0.16938 0.0
H3904 H 0.17543 0.92389 0.85086 0.0
H3905 H 0.21053 0.90421 0.85547 0.0
H3906 H 0.19904 0.8841 0.85572 0.0
H3907 H 0.1785 0.87228 0.85603 0.0
H3908 H 0.14389 0.89323 0.85278 0.0
H3909 H 0.15568 0.91263 0.85103 0.0
C3910 C 0.18062 0.91523 0.85204 0.0
C3911 C 0.19378 0.9156 0.85341 0.0
C3912 C 0.17398 0.90388 0.85255 0.0
C3913 C 0.20036 0.90421 0.85443 0.0
C3914 C 0.19378 0.89272 0.85469 0.0
C3915 C 0.17362 0.88111 0.85489 0.0
C3916 C 0.16032 0.88125 0.85427 0.0
C3917 C 0.18052 0.89246 0.854 0.0
C3918 C 0.1541 0.89278 0.85292 0.0
C3919 C 0.16083 0.90392 0.85199 0.0
H3920 H 0.83925 0.82278 0.5954 0.0
H3921 H 0.86848 0.80097 0.61296 0.0
H3922 H 0.86715 0.81383 0.63191 0.0
H3923 H 0.8575 0.831 0.64371 0.0
H3924 H 0.82767 0.85251 0.62673 0.0
H3925 H 0.82944 0.84017 0.60743 0.0
C3926 C 0.84539 0.82097 0.60336 0.0
C3927 C 0.85395 0.81095 0.6028 0.0
C3928 C 0.84443 0.82831 0.61437 0.0
C3929 C 0.86177 0.8086 0.6132 0.0
C3930 C 0.86101 0.81594 0.62405 0.0
C3931 C 0.8513 0.83293 0.63584 0.0
C3932 C 0.84249 0.8427 0.63672 0.0
C3933 C 0.8523 0.82573 0.6248 0.0
C3934 C 0.83467 0.84516 0.6263 0.0
C3935 C 0.83563 0.83806 0.61525 0.0
H3936 H 0.912 0.15535 0.29353 0.0
H3937 H 0.94259 0.16239 0.31959 0.0
H3938 H 0.92754 0.16419 0.33674 0.0
H3939 H 0.90581 0.16307 0.34444 0.0
H3940 H 0.87513 0.15736 0.31814 0.0
H3941 H 0.89017 0.15576 0.301 0.0
C3942 C 0.91541 0.15749 0.30291 0.0
C3943 C 0.92848 0.15869 0.30519 0.0
C3944 C 0.90669 0.15868 0.31272 0.0
C3945 C 0.93265 0.1612 0.31752 0.0
C3946 C 0.92402 0.16232 0.32734 0.0
C3947 C 0.90233 0.16175 0.33494 0.0
C3948 C 0.88926 0.16031 0.33268 0.0
C3949 C 0.91103 0.161 0.32506 0.0
C3950 C 0.88508 0.1583 0.32027 0.0
C3951 C 0.8937 0.15745 0.31042 0.0
H3952 H 0.66181 0.19095 0.09929 0.0
H3953 H 0.66504 0.22377 0.12306 0.0
H3954 H 0.66839 0.21054 0.14126 0.0
H3955 H 0.67036 0.18968 0.15061 0.0
H3956 H 0.66554 0.15678 0.12723 0.0
H3957 H 0.66286 0.17 0.10884 0.0
C3958 C 0.66312 0.19524 0.10845 0.0
C3959 C 0.6633 0.20842 0.10965 0.0
C3960 C 0.66479 0.18754 0.11903 0.0
C3961 C 0.66516 0.21371 0.12167 0.0
C3962 C 0.66696 0.20613 0.13217 0.0
C3963 C 0.66856 0.18537 0.14154 0.0
C3964 C 0.66823 0.1722 0.1404 0.0
C3965 C 0.66679 0.19303 0.13097 0.0
C3966 C 0.6661 0.16686 0.12844 0.0
C3967 C 0.66447 0.17443 0.11789 0.0
H3968 H 0.5862 0.8384 0.81574 0.0
H3969 H 0.59608 0.87271 0.79682 0.0
H3970 H 0.61605 0.87368 0.80835 0.0
H3971 H 0.62981 0.86585 0.8253 0.0
H3972 H 0.61962 0.83172 0.8444 0.0
H3973 H 0.60066 0.82973 0.83146 0.0
C3974 C 0.59275 0.84607 0.8141 0.0
C3975 C 0.58958 0.85552 0.80551 0.0
C3976 C 0.60411 0.84671 0.82094 0.0
C3977 C 0.5983 0.86525 0.80331 0.0
C3978 C 0.60968 0.86588 0.80999 0.0
C3979 C 0.62352 0.8579 0.82651 0.0
C3980 C 0.62603 0.84908 0.83597 0.0
C3981 C 0.61256 0.85682 0.81905 0.0
C3982 C 0.61776 0.83882 0.83741 0.0
C3983 C 0.60694 0.83763 0.82996 0.0
H3984 H 0.8602 0.20512 0.9085 0.0
H3985 H 0.82444 0.19336 0.92365 0.0
H3986 H 0.82071 0.17989 0.90538 0.0
H3987 H 0.82866 0.16968 0.88642 0.0
H3988 H 0.86527 0.18009 0.87214 0.0
H3989 H 0.86727 0.19626 0.88829 0.0
C3990 C 0.85146 0.19984 0.90764 0.0
C3991 C 0.84267 0.20013 0.91749 0.0
C3992 C 0.84952 0.19184 0.89723 0.0
C3993 C 0.83143 0.19316 0.91628 0.0
C3994 C 0.82929 0.18546 0.90583 0.0
C3995 C 0.8371 0.17547 0.88679 0.0
C3996 C 0.8469 0.17339 0.87815 0.0
C3997 C 0.83846 0.1844 0.89647 0.0
C3998 C 0.85752 0.18138 0.87858 0.0
C3999 C 0.85876 0.19058 0.88794 0.0
H4000 H 0.59209 0.17785 0.70534 0.0
H4001 H 0.59357 0.13813 0.71213 0.0
H4002 H 0.61333 0.13667 0.70038 0.0
H4003 H 0.62923 0.1465 0.68673 0.0
H4004 H 0.62791 0.1864 0.68034 0.0
H4005 H 0.60918 0.18804 0.69343 0.0
C4006 C 0.59691 0.16895 0.7044 0.0
C4007 C 0.59151 0.15812 0.70957 0.0
C4008 C 0.60822 0.16821 0.69761 0.0
C4009 C 0.5977 0.14659 0.7083 0.0
C4010 C 0.60893 0.14575 0.70152 0.0
C4011 C 0.62495 0.15557 0.68835 0.0
C4012 C 0.62985 0.16626 0.68234 0.0
C4013 C 0.61416 0.15647 0.69593 0.0
C4014 C 0.62415 0.17796 0.68456 0.0
C4015 C 0.61347 0.17893 0.69211 0.0
H4016 H 0.65818 0.80074 0.39636 0.0
H4017 H 0.66546 0.82846 0.4252 0.0
H4018 H 0.66877 0.84444 0.40911 0.0
H4019 H 0.66952 0.85051 0.38674 0.0
H4020 H 0.6635 0.8221 0.35822 0.0
H4021 H 0.65989 0.80646 0.37434 0.0
C4022 C 0.66068 0.81023 0.39919 0.0
C4023 C 0.66164 0.8133 0.41203 0.0
C4024 C 0.66276 0.81929 0.38992 0.0
C4025 C 0.66453 0.82579 0.41542 0.0
C4026 C 0.66651 0.83493 0.40621 0.0
C4027 C 0.66757 0.84087 0.38403 0.0
C4028 C 0.66665 0.8376 0.37119 0.0
C4029 C 0.66566 0.83178 0.3934 0.0
C4030 C 0.66399 0.82504 0.36795 0.0
C4031 C 0.662 0.81603 0.37718 0.0
H4032 H 0.92168 0.83907 0.20541 0.0
H4033 H 0.92423 0.87916 0.20991 0.0
H4034 H 0.90545 0.88185 0.19673 0.0
H4035 H 0.88993 0.87287 0.18198 0.0
H4036 H 0.88716 0.8327 0.17758 0.0
H4037 H 0.90421 0.82992 0.19281 0.0
C4038 C 0.9179 0.84834 0.20369 0.0
C4039 C 0.9242 0.85892 0.20857 0.0
C4040 C 0.90713 0.84979 0.19608 0.0
C4041 C 0.91938 0.87092 0.20628 0.0
C4042 C 0.90871 0.87245 0.19871 0.0
C4043 C 0.89279 0.8635 0.18461 0.0
C4044 C 0.88738 0.85303 0.1785 0.0
C4045 C 0.90269 0.86197 0.1933 0.0
C4046 C 0.89132 0.84094 0.18198 0.0
C4047 C 0.90108 0.83933 0.19068 0.0
H4048 H 0.08971 0.64697 0.19588 0.0
H4049 H 0.09868 0.67769 0.22091 0.0
H4050 H 0.11916 0.68041 0.21062 0.0
H4051 H 0.13392 0.67486 0.19333 0.0
H4052 H 0.12385 0.64479 0.16791 0.0
H4053 H 0.10439 0.64105 0.17944 0.0
C4054 C 0.09611 0.65432 0.19907 0.0
C4055 C 0.09257 0.66223 0.20903 0.0
C4056 C 0.10767 0.65596 0.19297 0.0
C4057 C 0.10116 0.67146 0.21327 0.0
C4058 C 0.11284 0.67306 0.20733 0.0
C4059 C 0.12748 0.66743 0.19045 0.0
C4060 C 0.13023 0.66014 0.17975 0.0
C4061 C 0.11612 0.66549 0.19702 0.0
C4062 C 0.12184 0.65057 0.17604 0.0
C4063 C 0.11073 0.64843 0.18263 0.0
H4064 H 0.17708 0.30882 0.90586 0.0
H4065 H 0.13732 0.31578 0.91025 0.0
H4066 H 0.13792 0.33093 0.89315 0.0
H4067 H 0.14967 0.3419 0.87653 0.0
H4068 H 0.18956 0.33564 0.87269 0.0
H4069 H 0.189 0.3204 0.88981 0.0
C4070 C 0.16856 0.31365 0.90305 0.0
C4071 C 0.15717 0.31114 0.90931 0.0
C4072 C 0.16899 0.3224 0.89323 0.0
C4073 C 0.14623 0.31761 0.90568 0.0
C4074 C 0.14655 0.32622 0.89584 0.0
C4075 C 0.1582 0.33715 0.87947 0.0
C4076 C 0.16962 0.33978 0.87337 0.0
C4077 C 0.15785 0.32862 0.88948 0.0
C4078 C 0.18068 0.33373 0.8773 0.0
C4079 C 0.18035 0.32503 0.88706 0.0
H4080 H 0.42867 0.33866 0.70074 0.0
H4081 H 0.41748 0.37224 0.72034 0.0
H4082 H 0.39844 0.37349 0.70732 0.0
H4083 H 0.38698 0.36698 0.68801 0.0
H4084 H 0.39855 0.3334 0.66852 0.0
H4085 H 0.41545 0.33031 0.68373 0.0
C4086 C 0.42197 0.34616 0.70227 0.0
C4087 C 0.42462 0.35548 0.7113 0.0
C4088 C 0.41122 0.34697 0.69459 0.0
C4089 C 0.4157 0.36496 0.71341 0.0
C4090 C 0.40486 0.36575 0.70588 0.0
C4091 C 0.39298 0.3588 0.6873 0.0
C4092 C 0.3917 0.35062 0.67693 0.0
C4093 C 0.40279 0.35709 0.69609 0.0
C4094 C 0.39954 0.34004 0.6762 0.0
C4095 C 0.4092 0.33824 0.68491 0.0
H4096 H 0.15637 0.69082 0.60084 0.0
H4097 H 0.17483 0.72199 0.61955 0.0
H4098 H 0.17929 0.70888 0.63761 0.0
H4099 H 0.1774 0.68877 0.64856 0.0
H4100 H 0.16007 0.6572 0.62967 0.0
H4101 H 0.15597 0.67014 0.6112 0.0
C4102 C 0.16153 0.69471 0.60877 0.0
C4103 C 0.16498 0.70751 0.60886 0.0
C4104 C 0.16427 0.68703 0.61916 0.0
C4105 C 0.17168 0.71231 0.6193 0.0
C4106 C 0.17433 0.70479 0.62965 0.0
C4107 C 0.17272 0.68474 0.64039 0.0
C4108 C 0.16895 0.67209 0.64051 0.0
C4109 C 0.1705 0.6922 0.62978 0.0
C4110 C 0.16308 0.66692 0.62979 0.0
C4111 C 0.1607 0.67433 0.61924 0.0
H4112 H 0.36623 0.31002 0.11131 0.0
H4113 H 0.33258 0.32042 0.09117 0.0
H4114 H 0.32686 0.33491 0.10815 0.0
H4115 H 0.33104 0.3438 0.1292 0.0
H4116 H 0.3653 0.33387 0.14877 0.0
H4117 H 0.37107 0.31988 0.13163 0.0
C4118 C 0.35768 0.31552 0.11064 0.0
C4119 C 0.34979 0.31414 0.10008 0.0
C4120 C 0.3545 0.3238 0.12039 0.0
C4121 C 0.33882 0.3214 0.0992 0.0
C4122 C 0.33552 0.32961 0.10893 0.0
C4123 C 0.33984 0.3387 0.12967 0.0
C4124 C 0.34762 0.33979 0.14039 0.0
C4125 C 0.34324 0.33078 0.11964 0.0
C4126 C 0.35895 0.33299 0.14082 0.0
C4127 C 0.36233 0.32506 0.13096 0.0
H4128 H 0.56553 0.42017 0.18352 0.0
H4129 H 0.53923 0.39493 0.16525 0.0
H4130 H 0.55234 0.39452 0.14653 0.0
H4131 H 0.57195 0.40034 0.13573 0.0
H4132 H 0.59819 0.42575 0.15381 0.0
H4133 H 0.58445 0.42722 0.17205 0.0
C4134 C 0.56271 0.41457 0.17544 0.0
C4135 C 0.55147 0.40751 0.17584 0.0
C4136 C 0.57028 0.41444 0.16462 0.0
C4137 C 0.54782 0.40047 0.1652 0.0
C4138 C 0.55533 0.4002 0.15449 0.0
C4139 C 0.57458 0.40628 0.14362 0.0
C4140 C 0.58608 0.4129 0.14342 0.0
C4141 C 0.56666 0.40702 0.15414 0.0
C4142 C 0.58932 0.42067 0.15366 0.0
C4143 C 0.58152 0.42141 0.16417 0.0
H4144 H 0.94413 0.62259 0.67466 0.0
H4145 H 0.971 0.59409 0.66463 0.0
H4146 H 0.96035 0.59113 0.64432 0.0
H4147 H 0.94298 0.59646 0.62958 0.0
H4148 H 0.9159 0.62452 0.64056 0.0
H4149 H 0.92704 0.62776 0.6603 0.0
C4150 C 0.94762 0.61564 0.66809 0.0
C4151 C 0.95828 0.60849 0.67124 0.0
C4152 C 0.94141 0.61392 0.65656 0.0
C4153 C 0.96285 0.59976 0.66244 0.0
C4154 C 0.95671 0.59802 0.65086 0.0
C4155 C 0.93949 0.60324 0.63632 0.0
C4156 C 0.92866 0.61033 0.63345 0.0
C4157 C 0.94591 0.605 0.64783 0.0
C4158 C 0.92435 0.61912 0.64231 0.0
C4159 C 0.93066 0.62093 0.65368 0.0
H4160 H 0.61373 0.36104 0.56072 0.0
H4161 H 0.59423 0.33548 0.58527 0.0
H4162 H 0.59356 0.35168 0.60159 0.0
H4163 H 0.59923 0.37289 0.60917 0.0
H4164 H 0.61884 0.39827 0.58456 0.0
H4165 H 0.61846 0.38245 0.56787 0.0
C4166 C 0.60916 0.35904 0.56957 0.0
C4167 C 0.60403 0.34703 0.57172 0.0
C4168 C 0.60877 0.3684 0.57889 0.0
C4169 C 0.59839 0.34457 0.58338 0.0
C4170 C 0.59792 0.35387 0.59269 0.0
C4171 C 0.6032 0.37503 0.60007 0.0
C4172 C 0.60905 0.38674 0.5981 0.0
C4173 C 0.60315 0.36579 0.59058 0.0
C4174 C 0.61434 0.38931 0.58632 0.0
C4175 C 0.61415 0.38026 0.57679 0.0
H4176 H 0.43462 0.65949 0.82118 0.0
H4177 H 0.41354 0.65402 0.78689 0.0
H4178 H 0.39368 0.65643 0.79847 0.0
H4179 H 0.38233 0.65846 0.81901 0.0
H4180 H 0.40449 0.66299 0.85287 0.0
H4181 H 0.42381 0.66221 0.84086 0.0
C4182 C 0.42569 0.65876 0.8162 0.0
C4183 C 0.42558 0.65629 0.80325 0.0
C4184 C 0.41444 0.65982 0.82292 0.0
C4185 C 0.41391 0.65584 0.79689 0.0
C4186 C 0.40255 0.65711 0.80354 0.0
C4187 C 0.39141 0.65932 0.82368 0.0
C4188 C 0.39195 0.66094 0.83682 0.0
C4189 C 0.40269 0.65881 0.81665 0.0
C4190 C 0.40378 0.66199 0.84277 0.0
C4191 C 0.41487 0.6615 0.83592 0.0
H4192 H 0.09798 0.35886 0.29829 0.0
H4193 H 0.07497 0.34207 0.32703 0.0
H4194 H 0.09339 0.3397 0.34046 0.0
H4195 H 0.11558 0.34374 0.34481 0.0
H4196 H 0.13939 0.35906 0.31591 0.0
H4197 H 0.12113 0.3608 0.30193 0.0
C4198 C 0.09705 0.35449 0.3074 0.0
C4199 C 0.085 0.35093 0.31173 0.0
C4200 C 0.10779 0.35307 0.31517 0.0
C4201 C 0.08403 0.34523 0.32356 0.0
C4202 C 0.09458 0.34383 0.33127 0.0
C4203 C 0.11692 0.34724 0.33538 0.0
C4204 C 0.12894 0.35133 0.33155 0.0
C4205 C 0.10645 0.34796 0.32729 0.0
C4206 C 0.13026 0.35608 0.31931 0.0
C4207 C 0.11981 0.35698 0.31123 0.0
H4208 H 0.34019 0.70948 0.4066 0.0
H4209 H 0.35515 0.68169 0.43184 0.0
H4210 H 0.3567 0.66667 0.41472 0.0
H4211 H 0.35296 0.6609 0.393 0.0
H4212 H 0.33765 0.6877 0.3671 0.0
H4213 H 0.33716 0.70369 0.38391 0.0
C4214 C 0.34379 0.70014 0.40827 0.0
C4215 C 0.34732 0.6966 0.42053 0.0
C4216 C 0.34459 0.69139 0.39828 0.0
C4217 C 0.35209 0.68452 0.42257 0.0
C4218 C 0.35306 0.67594 0.41277 0.0
C4219 C 0.34958 0.67028 0.39103 0.0
C4220 C 0.34527 0.67315 0.37894 0.0
C4221 C 0.34919 0.6792 0.40068 0.0
C4222 C 0.34105 0.68534 0.37639 0.0
C4223 C 0.34071 0.69442 0.38601 0.0
H4224 H 0.12676 0.32956 0.02335 0.0
H4225 H 0.10595 0.29594 0.03258 0.0
H4226 H 0.0965 0.30679 0.05046 0.0
H4227 H 0.09405 0.32618 0.06349 0.0
H4228 H 0.11347 0.35994 0.05247 0.0
H4229 H 0.12305 0.34885 0.03484 0.0
C4230 C 0.11993 0.32458 0.029 0.0
C4231 C 0.11704 0.3119 0.02638 0.0
C4232 C 0.11409 0.33102 0.03888 0.0
C4233 C 0.10854 0.30562 0.03434 0.0
C4234 C 0.10299 0.31188 0.04451 0.0
C4235 C 0.10018 0.33109 0.05703 0.0
C4236 C 0.103 0.34386 0.0591 0.0
C4237 C 0.10563 0.32463 0.04683 0.0
C4238 C 0.11108 0.35015 0.05088 0.0
C4239 C 0.11663 0.34379 0.0409 0.0
H4240 H 0.96757 0.85427 0.33175 0.0
H4241 H 0.97827 0.89251 0.32389 0.0
H4242 H 0.97369 0.89849 0.34556 0.0
H4243 H 0.96438 0.89331 0.36605 0.0
H4244 H 0.95387 0.85493 0.37379 0.0
H4245 H 0.96026 0.8487 0.35278 0.0
C4246 C 0.96895 0.86392 0.33479 0.0
C4247 C 0.97309 0.87295 0.32612 0.0
C4248 C 0.96606 0.86734 0.34719 0.0
C4249 C 0.97513 0.88534 0.33033 0.0
C4250 C 0.97239 0.8888 0.34271 0.0
C4251 C 0.96369 0.88353 0.36326 0.0
C4252 C 0.95837 0.87467 0.37152 0.0
C4253 C 0.96752 0.87994 0.35113 0.0
C4254 C 0.95754 0.86206 0.36759 0.0
C4255 C 0.96131 0.85844 0.35558 0.0
H4256 H 0.39578 0.6904 0.52029 0.0
H4257 H 0.3843 0.71312 0.55181 0.0
H4258 H 0.39356 0.69805 0.56627 0.0
H4259 H 0.40555 0.67874 0.57004 0.0
H4260 H 0.41697 0.65592 0.53862 0.0
H4261 H 0.40705 0.67061 0.52411 0.0
C4262 C 0.39514 0.69198 0.53032 0.0
C4263 C 0.38941 0.70298 0.5349 0.0
C4264 C 0.40055 0.68327 0.53864 0.0
C4265 C 0.38882 0.70487 0.54797 0.0
C4266 C 0.39407 0.69622 0.55627 0.0
C4267 C 0.40578 0.67694 0.56003 0.0
C4268 C 0.41209 0.66628 0.55544 0.0
C4269 C 0.40008 0.68545 0.55172 0.0
C4270 C 0.41238 0.66415 0.54241 0.0
C4271 C 0.40664 0.67252 0.5341 0.0
H4272 H 0.53425 0.13371 0.82972 0.0
H4273 H 0.55741 0.16643 0.82345 0.0
H4274 H 0.56334 0.16706 0.84556 0.0
H4275 H 0.56392 0.15711 0.86592 0.0
H4276 H 0.54124 0.12417 0.87291 0.0
H4277 H 0.5332 0.12479 0.85131 0.0
C4278 C 0.54037 0.1411 0.83331 0.0
C4279 C 0.54545 0.14999 0.82498 0.0
C4280 C 0.54397 0.14127 0.8461 0.0
C4281 C 0.55345 0.15947 0.82969 0.0
C4282 C 0.55687 0.15982 0.84232 0.0
C4283 C 0.55692 0.15025 0.86293 0.0
C4284 C 0.55321 0.14062 0.87114 0.0
C4285 C 0.55246 0.15059 0.85053 0.0
C4286 C 0.54439 0.13164 0.86681 0.0
C4287 C 0.53976 0.13199 0.85445 0.0
H4288 H 0.10479 0.69846 0.49361 0.0
H4289 H 0.13826 0.70998 0.474 0.0
H4290 H 0.13207 0.69699 0.45588 0.0
H4291 H 0.11807 0.68092 0.44651 0.0
H4292 H 0.08446 0.66948 0.46605 0.0
H4293 H 0.08959 0.68402 0.48323 0.0
C4294 C 0.11054 0.69831 0.48523 0.0
C4295 C 0.12192 0.70515 0.48504 0.0
C4296 C 0.10694 0.69076 0.47493 0.0
C4297 C 0.1294 0.70487 0.47424 0.0
C4298 C 0.12591 0.69738 0.46395 0.0
C4299 C 0.11185 0.68165 0.45452 0.0
C4300 C 0.101 0.67398 0.4551 0.0
C4301 C 0.11487 0.69003 0.46433 0.0
C4302 C 0.09287 0.67524 0.46539 0.0
C4303 C 0.09584 0.68352 0.47523 0.0
H4304 H 0.53567 0.8524 0.68354 0.0
H4305 H 0.54211 0.89101 0.69394 0.0
H4306 H 0.54874 0.89579 0.67252 0.0
H4307 H 0.55578 0.88814 0.65196 0.0
H4308 H 0.54807 0.84972 0.64111 0.0
H4309 H 0.53886 0.84573 0.66158 0.0
C4310 C 0.53823 0.86191 0.68098 0.0
C4311 C 0.53853 0.87133 0.69025 0.0
C4312 C 0.54202 0.86457 0.66866 0.0
C4313 C 0.54179 0.88364 0.68691 0.0
C4314 C 0.54567 0.88634 0.67469 0.0
C4315 C 0.55174 0.87899 0.65384 0.0
C4316 C 0.55305 0.86916 0.64503 0.0
C4317 C 0.54626 0.87676 0.66562 0.0
C4318 C 0.54768 0.85738 0.64781 0.0
C4319 C 0.54233 0.85508 0.65952 0.0
H4320 H 0.39526 0.33272 0.99379 0.0
H4321 H 0.39623 0.30034 0.96945 0.0
H4322 H 0.40642 0.31291 0.95307 0.0
H4323 H 0.41472 0.33352 0.94559 0.0
H4324 H 0.41423 0.36532 0.97072 0.0
H4325 H 0.40404 0.35267 0.98682 0.0
C4326 C 0.39762 0.32842 0.98486 0.0
C4327 C 0.39483 0.31568 0.98276 0.0
C4328 C 0.40353 0.33565 0.97562 0.0
C4329 C 0.39826 0.31015 0.97128 0.0
C4330 C 0.40404 0.31735 0.96191 0.0
C4331 C 0.41235 0.3376 0.95461 0.0
C4332 C 0.41516 0.35031 0.95703 0.0
C4333 C 0.40666 0.33016 0.96395 0.0
C4334 C 0.41216 0.35554 0.96873 0.0
C4335 C 0.40634 0.34832 0.97791 0.0
H4336 H 0.9601 0.1312 0.18802 0.0
H4337 H 0.9893 0.15797 0.17901 0.0
H4338 H 0.98269 0.15762 0.15703 0.0
H4339 H 0.96885 0.14926 0.14005 0.0
H4340 H 0.93989 0.12239 0.14913 0.0
H4341 H 0.94598 0.12336 0.17132 0.0
C4342 C 0.96491 0.1371 0.18131 0.0
C4343 C 0.97524 0.14456 0.18526 0.0
C4344 C 0.96108 0.13683 0.16862 0.0
C4345 C 0.98145 0.15199 0.17629 0.0
C4346 C 0.97763 0.15185 0.16368 0.0
C4347 C 0.96387 0.14371 0.14695 0.0
C4348 C 0.95392 0.13579 0.14306 0.0
C4349 C 0.96753 0.14422 0.1597 0.0
C4350 C 0.94755 0.12855 0.15199 0.0
C4351 C 0.95105 0.1291 0.16465 0.0
H4352 H 0.04598 0.10535 0.29926 0.0
H4353 H 0.04576 0.14149 0.31775 0.0
H4354 H 0.06145 0.13431 0.33276 0.0
H4355 H 0.07401 0.11743 0.34171 0.0
H4356 H 0.0755 0.08156 0.32279 0.0
H4357 H 0.06061 0.089 0.30697 0.0
C4358 C 0.04954 0.11174 0.30641 0.0
C4359 C 0.04441 0.12388 0.30747 0.0
C4360 C 0.05872 0.10757 0.31507 0.0
C4361 C 0.04921 0.13198 0.31685 0.0
C4362 C 0.05826 0.12791 0.32545 0.0
C4363 C 0.07134 0.11127 0.334 0.0
C4364 C 0.07586 0.09888 0.33361 0.0
C4365 C 0.06288 0.11565 0.32483 0.0
C4366 C 0.07201 0.09106 0.32357 0.0
C4367 C 0.06353 0.09534 0.31443 0.0
H4368 H 0.12768 0.82564 0.5481 0.0
H4369 H 0.15784 0.81461 0.573 0.0
H4370 H 0.1581 0.83552 0.58243 0.0
H4371 H 0.1494 0.85675 0.58407 0.0
H4372 H 0.1195 0.868 0.55899 0.0
H4373 H 0.11963 0.84725 0.5491 0.0
C4374 C 0.13444 0.82783 0.55547 0.0
C4375 C 0.1427 0.81845 0.55982 0.0
C4376 C 0.1346 0.83994 0.56083 0.0
C4377 C 0.15122 0.8215 0.56956 0.0
C4378 C 0.15145 0.83351 0.57491 0.0
C4379 C 0.14307 0.85478 0.57627 0.0
C4380 C 0.13448 0.864 0.57228 0.0
C4381 C 0.14314 0.84279 0.57067 0.0
C4382 C 0.12616 0.8611 0.56234 0.0
C4383 C 0.12624 0.84922 0.55666 0.0
H4384 H 0.45694 0.88107 0.80278 0.0
H4385 H 0.48587 0.90942 0.80624 0.0
H4386 H 0.47343 0.92052 0.82205 0.0
H4387 H 0.45458 0.92186 0.83522 0.0
H4388 H 0.42561 0.89339 0.83195 0.0
H4389 H 0.43791 0.88248 0.81604 0.0
C4390 C 0.46046 0.88967 0.80704 0.0
C4391 C 0.47226 0.89446 0.80344 0.0
C4392 C 0.45332 0.8959 0.81624 0.0
C4393 C 0.47683 0.90557 0.80899 0.0
C4394 C 0.46971 0.9119 0.81799 0.0
C4395 C 0.45084 0.91338 0.83091 0.0
C4396 C 0.43913 0.90852 0.83482 0.0
C4397 C 0.45796 0.90714 0.82172 0.0
C4398 C 0.43463 0.89732 0.82927 0.0
C4399 C 0.44164 0.89109 0.82009 0.0
H4400 H 0.36092 0.19119 0.04651 0.0
H4401 H 0.39379 0.20724 0.06458 0.0
H4402 H 0.39926 0.1868 0.07318 0.0
H4403 H 0.39497 0.16429 0.07536 0.0
H4404 H 0.36177 0.14811 0.05809 0.0
H4405 H 0.35612 0.16859 0.04945 0.0
C4406 C 0.36926 0.19017 0.05235 0.0
C4407 C 0.37693 0.20072 0.05492 0.0
C4408 C 0.37229 0.17837 0.0574 0.0
C4409 C 0.38766 0.1993 0.06258 0.0
C4410 C 0.39084 0.1876 0.06744 0.0
C4411 C 0.38652 0.16525 0.06967 0.0
C4412 C 0.37885 0.15469 0.0673 0.0
C4413 C 0.38327 0.17707 0.06488 0.0
C4414 C 0.36781 0.15611 0.06008 0.0
C4415 C 0.3646 0.16782 0.05511 0.0
H4416 H 0.0428 0.9089 0.21559 0.0
H4417 H 0.04022 0.87103 0.20121 0.0
H4418 H 0.05465 0.87635 0.18431 0.0
H4419 H 0.06913 0.89121 0.17448 0.0
H4420 H 0.07256 0.9289 0.18902 0.0
H4421 H 0.05647 0.9243 0.2048 0.0
C4422 C 0.04541 0.90182 0.20876 0.0
C4423 C 0.04048 0.88955 0.20974 0.0
C4424 C 0.05382 0.90492 0.19906 0.0
C4425 C 0.04378 0.88055 0.20066 0.0
C4426 C 0.05209 0.88357 0.19101 0.0
C4427 C 0.06632 0.89845 0.18108 0.0
C4428 C 0.07218 0.91032 0.1807 0.0
C4429 C 0.05731 0.89565 0.19025 0.0
C4430 C 0.06821 0.91969 0.1891 0.0
C4431 C 0.05909 0.91702 0.19819 0.0
H4432 H 0.35922 0.81919 0.44691 0.0
H4433 H 0.38288 0.81967 0.47994 0.0
H4434 H 0.3885 0.84164 0.47592 0.0
H4435 H 0.3879 0.86026 0.46192 0.0
H4436 H 0.36532 0.85839 0.42807 0.0
H4437 H 0.35826 0.83744 0.43346 0.0
C4438 C 0.36568 0.82404 0.45323 0.0
C4439 C 0.37081 0.81766 0.46357 0.0
C4440 C 0.36916 0.83646 0.45064 0.0
C4441 C 0.37879 0.8243 0.47189 0.0
C4442 C 0.3821 0.83685 0.46952 0.0
C4443 C 0.38147 0.85525 0.4557 0.0
C4444 C 0.37711 0.86104 0.44461 0.0
C4445 C 0.37758 0.84294 0.45873 0.0
C4446 C 0.36866 0.85439 0.43678 0.0
C4447 C 0.36466 0.84231 0.4398 0.0
H4448 H 0.4564 0.1279 0.71549 0.0
H4449 H 0.49099 0.11692 0.69745 0.0
H4450 H 0.47898 0.10672 0.68064 0.0
H4451 H 0.4586 0.10063 0.6711 0.0
H4452 H 0.42404 0.11159 0.68911 0.0
H4453 H 0.43605 0.12185 0.70597 0.0
C4454 C 0.46132 0.12321 0.70793 0.0
C4455 C 0.47461 0.12322 0.70779 0.0
C4456 C 0.45435 0.11726 0.69831 0.0
C4457 C 0.48079 0.11725 0.69776 0.0
C4458 C 0.47392 0.11131 0.68817 0.0
C4459 C 0.45372 0.10519 0.67878 0.0
C4460 C 0.44045 0.10534 0.67888 0.0
C4461 C 0.4607 0.1112 0.68837 0.0
C4462 C 0.43425 0.11143 0.68879 0.0
C4463 C 0.44111 0.11728 0.69844 0.0
H4464 H 0.12127 0.19165 0.96026 0.0
H4465 H 0.16153 0.19565 0.95638 0.0
H4466 H 0.16294 0.17406 0.9486 0.0
H4467 H 0.1527 0.15433 0.94249 0.0
H4468 H 0.11202 0.15135 0.94375 0.0
H4469 H 0.11094 0.17189 0.95361 0.0
C4470 C 0.13035 0.18774 0.95777 0.0
C4471 C 0.14129 0.19521 0.9589 0.0
C4472 C 0.13104 0.17541 0.95301 0.0
C4473 C 0.15298 0.1901 0.95551 0.0
C4474 C 0.15378 0.17775 0.95112 0.0
C4475 C 0.14353 0.15814 0.9447 0.0
C4476 C 0.13247 0.15108 0.94216 0.0
C4477 C 0.14286 0.17035 0.94972 0.0
C4478 C 0.12078 0.15624 0.94568 0.0
C4479 C 0.1201 0.16816 0.95119 0.0
H4480 H 0.33435 0.02698 0.1154 0.0
H4481 H 0.31018 0.05285 0.13483 0.0
H4482 H 0.32246 0.07063 0.12659 0.0
H4483 H 0.34091 0.07862 0.11453 0.0
H4484 H 0.36455 0.05211 0.09509 0.0
H4485 H 0.35164 0.03481 0.1026 0.0
C4486 C 0.33175 0.03653 0.11779 0.0
C4487 C 0.3215 0.03863 0.1258 0.0
C4488 C 0.33879 0.04658 0.11302 0.0
C4489 C 0.31806 0.05103 0.12867 0.0
C4490 C 0.32512 0.06116 0.12401 0.0
C4491 C 0.34318 0.06905 0.11194 0.0
C4492 C 0.35368 0.06669 0.10421 0.0
C4493 C 0.33564 0.05904 0.1163 0.0
C4494 C 0.35645 0.05424 0.10085 0.0
C4495 C 0.34911 0.04431 0.10521 0.0
H4496 H 0.83644 0.47784 0.87568 0.0
H4497 H 0.80902 0.47616 0.90539 0.0
H4498 H 0.82091 0.45931 0.91538 0.0
H4499 H 0.84003 0.44601 0.91646 0.0
H4500 H 0.86767 0.44873 0.88703 0.0
H4501 H 0.85496 0.46442 0.8764 0.0
C4502 C 0.83306 0.47388 0.88439 0.0
C4503 C 0.8219 0.47846 0.88982 0.0
C4504 C 0.8401 0.46444 0.89025 0.0
C4505 C 0.81752 0.47284 0.90091 0.0
C4506 C 0.8244 0.46327 0.90672 0.0
C4507 C 0.84323 0.45004 0.90771 0.0
C4508 C 0.85476 0.44612 0.90251 0.0
C4509 C 0.83585 0.45916 0.90161 0.0
C4510 C 0.85875 0.4514 0.89114 0.0
C4511 C 0.85151 0.46043 0.88507 0.0
H4512 H 0.81157 0.56141 0.13668 0.0
H4513 H 0.81662 0.54245 0.17191 0.0
H4514 H 0.83952 0.54575 0.17064 0.0
H4515 H 0.85803 0.55537 0.15999 0.0
H4516 H 0.85244 0.57395 0.12457 0.0
H4517 H 0.82986 0.56961 0.12549 0.0
C4518 C 0.8177 0.55795 0.14405 0.0
C4519 C 0.81242 0.55184 0.15444 0.0
C4520 C 0.83076 0.55995 0.14328 0.0
C4521 C 0.82047 0.54717 0.16381 0.0
C4522 C 0.83355 0.54915 0.16313 0.0
C4523 C 0.85183 0.55842 0.1525 0.0
C4524 C 0.85688 0.56501 0.14224 0.0
C4525 C 0.83879 0.55576 0.15301 0.0
C4526 C 0.84879 0.56881 0.13252 0.0
C4527 C 0.83587 0.56636 0.13304 0.0
H4528 H 0.68247 0.52692 0.37521 0.0
H4529 H 0.71301 0.54229 0.39752 0.0
H4530 H 0.69877 0.55751 0.40683 0.0
H4531 H 0.67807 0.5678 0.40727 0.0
H4532 H 0.64755 0.55287 0.38488 0.0
H4533 H 0.66115 0.53594 0.37727 0.0
C4534 C 0.68597 0.53347 0.38224 0.0
C4535 C 0.69889 0.53359 0.38543 0.0
C4536 C 0.67768 0.54226 0.38762 0.0
C4537 C 0.70322 0.54219 0.39458 0.0
C4538 C 0.69505 0.55086 0.40001 0.0
C4539 C 0.67435 0.5606 0.40102 0.0
C4540 C 0.66186 0.5614 0.39674 0.0
C4541 C 0.68233 0.55116 0.39643 0.0
C4542 C 0.65713 0.55225 0.38841 0.0
C4543 C 0.66494 0.54268 0.38397 0.0
H4544 H 0.20636 0.95565 0.13679 0.0
H4545 H 0.19886 0.98804 0.15991 0.0
H4546 H 0.17668 0.98187 0.16141 0.0
H4547 H 0.15925 0.96711 0.15619 0.0
H4548 H 0.16675 0.93527 0.13236 0.0
H4549 H 0.189 0.94125 0.13121 0.0
C4550 C 0.19989 0.9613 0.14224 0.0
C4551 C 0.2043 0.97228 0.14824 0.0
C4552 C 0.18709 0.95779 0.14291 0.0
C4553 C 0.19572 0.97959 0.15512 0.0
C4554 C 0.18303 0.97605 0.15601 0.0
C4555 C 0.16578 0.96158 0.15068 0.0
C4556 C 0.16138 0.95086 0.14424 0.0
C4557 C 0.17857 0.96519 0.14992 0.0
C4558 C 0.16991 0.9437 0.13719 0.0
C4559 C 0.18264 0.94706 0.1366 0.0
H4560 H 0.18194 0.98714 0.64127 0.0
H4561 H 0.21187 0.97266 0.61816 0.0
H4562 H 0.19738 0.95746 0.60872 0.0
H4563 H 0.17664 0.94693 0.60831 0.0
H4564 H 0.14685 0.96079 0.63177 0.0
H4565 H 0.16062 0.97775 0.63948 0.0
C4566 C 0.18524 0.98078 0.63404 0.0
C4567 C 0.19807 0.98092 0.63063 0.0
C4568 C 0.17683 0.97196 0.62864 0.0
C4569 C 0.20215 0.97257 0.62124 0.0
C4570 C 0.19384 0.96391 0.61574 0.0
C4571 C 0.17312 0.95389 0.61485 0.0
C4572 C 0.16077 0.95276 0.61939 0.0
C4573 C 0.18123 0.96334 0.61954 0.0
C4574 C 0.15632 0.96162 0.62808 0.0
C4575 C 0.16422 0.97123 0.63256 0.0
H4576 H 0.81431 0.46874 0.37675 0.0
H4577 H 0.81344 0.45622 0.33822 0.0
H4578 H 0.83605 0.45213 0.33897 0.0
H4579 H 0.85578 0.4507 0.35091 0.0
H4580 H 0.85657 0.46208 0.38985 0.0
H4581 H 0.83454 0.46833 0.38847 0.0
C4582 C 0.81914 0.46534 0.36847 0.0
C4583 C 0.81218 0.46269 0.35747 0.0
C4584 C 0.83217 0.46275 0.36904 0.0
C4585 C 0.81855 0.4582 0.34684 0.0
C4586 C 0.83149 0.45585 0.34726 0.0
C4587 C 0.85115 0.45447 0.35914 0.0
C4588 C 0.85793 0.45577 0.37048 0.0
C4589 C 0.83834 0.45779 0.3584 0.0
C4590 C 0.85174 0.46103 0.38092 0.0
C4591 C 0.83905 0.46454 0.38019 0.0
H4592 H 0.70696 0.56237 0.87105 0.0
H4593 H 0.69674 0.5256 0.85699 0.0
H4594 H 0.67452 0.53123 0.85744 0.0
H4595 H 0.65777 0.54631 0.86262 0.0
H4596 H 0.66791 0.58344 0.87542 0.0
H4597 H 0.69031 0.57804 0.87448 0.0
C4598 C 0.69993 0.55563 0.86789 0.0
C4599 C 0.70363 0.54347 0.86422 0.0
C4600 C 0.68708 0.55899 0.86798 0.0
C4601 C 0.69425 0.53491 0.86022 0.0
C4602 C 0.68149 0.53814 0.86039 0.0
C4603 C 0.66491 0.55321 0.86514 0.0
C4604 C 0.66122 0.56522 0.86913 0.0
C4605 C 0.67777 0.55008 0.86443 0.0
C4606 C 0.67055 0.57414 0.87226 0.0
C4607 C 0.68335 0.57104 0.87177 0.0
H4608 H 0.91682 0.72137 0.94749 0.0
H4609 H 0.87927 0.71177 0.9595 0.0
H4610 H 0.87368 0.7052 0.93818 0.0
H4611 H 0.88026 0.69979 0.91681 0.0
H4612 H 0.91778 0.70935 0.90456 0.0
H4613 H 0.92241 0.71883 0.92503 0.0
C4614 C 0.90735 0.71809 0.94533 0.0
C4615 C 0.89847 0.71699 0.95503 0.0
C4616 C 0.90419 0.71434 0.933 0.0
C4617 C 0.88621 0.71278 0.95215 0.0
C4618 C 0.88304 0.70895 0.93998 0.0
C4619 C 0.8894 0.70409 0.91856 0.0
C4620 C 0.89874 0.70361 0.90923 0.0
C4621 C 0.89207 0.70932 0.93042 0.0
C4622 C 0.91042 0.70953 0.91156 0.0
C4623 C 0.91312 0.71485 0.92333 0.0
H4624 H 0.04274 0.1564 0.71493 0.0
H4625 H 0.06819 0.12703 0.72614 0.0
H4626 H 0.08475 0.13608 0.71303 0.0
H4627 H 0.09157 0.15168 0.69732 0.0
H4628 H 0.06563 0.18024 0.68536 0.0
H4629 H 0.04969 0.17222 0.69984 0.0
C4630 C 0.05188 0.15191 0.71447 0.0
C4631 C 0.05414 0.14097 0.72146 0.0
C4632 C 0.0613 0.15708 0.7068 0.0
C4633 C 0.06617 0.13549 0.72093 0.0
C4634 C 0.07564 0.14064 0.71339 0.0
C4635 C 0.0825 0.15627 0.69809 0.0
C4636 C 0.07977 0.1666 0.69038 0.0
C4637 C 0.07327 0.15137 0.70619 0.0
C4638 C 0.06792 0.17232 0.69125 0.0
C4639 C 0.05881 0.16769 0.69947 0.0
H4640 H 0.62855 0.30647 0.45882 0.0
H4641 H 0.59818 0.28103 0.44933 0.0
H4642 H 0.5983 0.28856 0.42766 0.0
H4643 H 0.60617 0.30355 0.41169 0.0
H4644 H 0.63628 0.32909 0.42164 0.0
H4645 H 0.63728 0.32028 0.44274 0.0
C4646 C 0.62193 0.3026 0.45202 0.0
C4647 C 0.61327 0.29331 0.45574 0.0
C4648 C 0.62207 0.30695 0.43961 0.0
C4649 C 0.60494 0.2882 0.44673 0.0
C4650 C 0.60499 0.29251 0.43433 0.0
C4651 C 0.6131 0.30695 0.41844 0.0
C4652 C 0.62118 0.3169 0.41519 0.0
C4653 C 0.61343 0.302 0.43068 0.0
C4654 C 0.63003 0.32139 0.42399 0.0
C4655 C 0.63054 0.31642 0.43606 0.0
H4656 H 0.44961 0.86058 0.23335 0.0
H4657 H 0.47077 0.88553 0.20961 0.0
H4658 H 0.45995 0.87691 0.19107 0.0
H4659 H 0.44325 0.86355 0.18192 0.0
H4660 H 0.42221 0.83847 0.20574 0.0
H4661 H 0.43412 0.84602 0.22399 0.0
C4662 C 0.45188 0.8641 0.22411 0.0
C4663 C 0.46089 0.87378 0.22287 0.0
C4664 C 0.44557 0.85916 0.21354 0.0
C4665 C 0.46391 0.87808 0.21082 0.0
C4666 C 0.45767 0.8732 0.20023 0.0
C4667 C 0.44144 0.85949 0.19104 0.0
C4668 C 0.43176 0.85045 0.19241 0.0
C4669 C 0.44833 0.86388 0.20151 0.0
C4670 C 0.42945 0.84554 0.20439 0.0
C4671 C 0.43629 0.84983 0.21484 0.0
H4672 H 0.91889 0.30172 0.56344 0.0
H4673 H 0.87945 0.29521 0.55549 0.0
H4674 H 0.87425 0.29986 0.57731 0.0
H4675 H 0.8806 0.30903 0.59777 0.0
H4676 H 0.92 0.31557 0.60564 0.0
H4677 H 0.92553 0.30778 0.58477 0.0
C4678 C 0.90917 0.30117 0.56652 0.0
C4679 C 0.89956 0.29835 0.55777 0.0
C4680 C 0.90623 0.30404 0.57905 0.0
C4681 C 0.88705 0.29737 0.56199 0.0
C4682 C 0.88404 0.30015 0.57446 0.0
C4683 C 0.8904 0.30841 0.59499 0.0
C4684 C 0.8999 0.31285 0.60316 0.0
C4685 C 0.8935 0.30396 0.58294 0.0
C4686 C 0.91257 0.31206 0.59952 0.0
C4687 C 0.91572 0.30771 0.58755 0.0
H4688 H 0.47137 0.15976 0.29771 0.0
H4689 H 0.44617 0.13171 0.2822 0.0
H4690 H 0.42962 0.13836 0.29664 0.0
H4691 H 0.42278 0.15125 0.31462 0.0
H4692 H 0.44819 0.1791 0.33019 0.0
H4693 H 0.4642 0.1733 0.31489 0.0
C4694 C 0.46229 0.15504 0.29752 0.0
C4695 C 0.4601 0.14516 0.28893 0.0
C4696 C 0.45285 0.15885 0.30591 0.0
C4697 C 0.44814 0.13937 0.28865 0.0
C4698 C 0.43867 0.14313 0.29695 0.0
C4699 C 0.43173 0.15623 0.31452 0.0
C4700 C 0.43427 0.16558 0.32361 0.0
C4701 C 0.44097 0.15277 0.30572 0.0
C4702 C 0.44601 0.17178 0.32342 0.0
C4703 C 0.45518 0.16848 0.31465 0.0
H4704 H 0.59874 0.72001 0.06546 0.0
H4705 H 0.63735 0.71351 0.0549 0.0
H4706 H 0.64245 0.70714 0.07631 0.0
H4707 H 0.63528 0.70084 0.09722 0.0
H4708 H 0.59674 0.70738 0.108 0.0
H4709 H 0.59237 0.71674 0.08755 0.0
C4710 C 0.60832 0.71746 0.06796 0.0
C4711 C 0.61765 0.71715 0.05864 0.0
C4712 C 0.61118 0.7138 0.08032 0.0
C4713 C 0.63004 0.7139 0.06196 0.0
C4714 C 0.63294 0.71017 0.07417 0.0
C4715 C 0.62598 0.7045 0.09515 0.0
C4716 C 0.6163 0.70321 0.10403 0.0
C4717 C 0.62349 0.7097 0.08331 0.0
C4718 C 0.60436 0.70823 0.10133 0.0
C4719 C 0.60182 0.71348 0.08958 0.0
H4720 H 0.0422 0.85664 0.80195 0.0
H4721 H 0.06913 0.88269 0.78646 0.0
H4722 H 0.08568 0.87411 0.79997 0.0
H4723 H 0.09211 0.86017 0.81734 0.0
H4724 H 0.06477 0.83487 0.8333 0.0
H4725 H 0.04878 0.84216 0.81845 0.0
C4726 C 0.05167 0.86051 0.80156 0.0
C4727 C 0.05434 0.87041 0.79328 0.0
C4728 C 0.06109 0.85562 0.80944 0.0
C4729 C 0.06678 0.87506 0.7927 0.0
C4730 C 0.07625 0.87018 0.80046 0.0
C4731 C 0.08272 0.85608 0.81736 0.0
C4732 C 0.07961 0.84697 0.82637 0.0
C4733 C 0.07347 0.86056 0.80899 0.0
C4734 C 0.06736 0.8419 0.82646 0.0
C4735 C 0.05822 0.8461 0.81801 0.0
H4736 H 0.92722 0.8888 0.73547 0.0
H4737 H 0.94089 0.90213 0.69987 0.0
H4738 H 0.92007 0.8992 0.69057 0.0
H4739 H 0.89802 0.893 0.69234 0.0
H4740 H 0.8839 0.87911 0.72753 0.0
H4741 H 0.90466 0.88238 0.7372 0.0
C4742 C 0.92561 0.89104 0.72569 0.0
C4743 C 0.93561 0.89583 0.71844 0.0
C4744 C 0.91349 0.88933 0.72031 0.0
C4745 C 0.93334 0.89868 0.70576 0.0
C4746 C 0.92144 0.89695 0.70039 0.0
C4747 C 0.89947 0.89053 0.70209 0.0
C4748 C 0.88935 0.88573 0.70911 0.0
C4749 C 0.91144 0.8923 0.70755 0.0
C4750 C 0.89143 0.88293 0.72186 0.0
C4751 C 0.90336 0.88471 0.7274 0.0
H4752 H 0.89081 0.22045 0.44404 0.0
H4753 H 0.86063 0.24654 0.43745 0.0
H4754 H 0.851 0.23203 0.42223 0.0
H4755 H 0.85067 0.21124 0.41149 0.0
H4756 H 0.88088 0.18531 0.41869 0.0
H4757 H 0.891 0.20039 0.43284 0.0
C4758 C 0.88213 0.22296 0.43926 0.0
C4759 C 0.8764 0.2345 0.44192 0.0
C4760 C 0.87662 0.21455 0.43063 0.0
C4761 C 0.86526 0.23772 0.4355 0.0
C4762 C 0.85972 0.2294 0.42685 0.0
C4763 C 0.85948 0.20898 0.41616 0.0
C4764 C 0.86493 0.19713 0.41426 0.0
C4765 C 0.86523 0.21769 0.42443 0.0
C4766 C 0.8764 0.19429 0.42025 0.0
C4767 C 0.88221 0.20291 0.4283 0.0
H4768 H 0.58585 0.11488 0.23165 0.0
H4769 H 0.57047 0.13864 0.20289 0.0
H4770 H 0.5917 0.14379 0.19566 0.0
H4771 H 0.61446 0.14071 0.19672 0.0
H4772 H 0.63027 0.11643 0.22488 0.0
H4773 H 0.60919 0.11256 0.23333 0.0
C4774 C 0.58724 0.12132 0.22394 0.0
C4775 C 0.57669 0.12646 0.21781 0.0
C4776 C 0.59953 0.12411 0.2197 0.0
C4777 C 0.57851 0.13468 0.20775 0.0
C4778 C 0.59062 0.13758 0.20359 0.0
C4779 C 0.61332 0.13449 0.20466 0.0
C4780 C 0.62396 0.12874 0.21001 0.0
C4781 C 0.60118 0.13218 0.20934 0.0
C4782 C 0.62228 0.12102 0.22055 0.0
C4783 C 0.6102 0.11874 0.22535 0.0
H4784 H 0.63068 0.79841 0.94891 0.0
H4785 H 0.65141 0.76664 0.9348 0.0
H4786 H 0.66063 0.77968 0.91847 0.0
H4787 H 0.66327 0.80018 0.90849 0.0
H4788 H 0.6421 0.83188 0.92214 0.0
H4789 H 0.63299 0.8189 0.93856 0.0
C4790 C 0.63727 0.79435 0.9423 0.0
C4791 C 0.64032 0.78153 0.94311 0.0
C4792 C 0.64261 0.80193 0.93293 0.0
C4793 C 0.64874 0.77642 0.93433 0.0
C4794 C 0.65411 0.7839 0.92503 0.0
C4795 C 0.65656 0.80426 0.91495 0.0
C4796 C 0.65346 0.81706 0.91402 0.0
C4797 C 0.65114 0.79668 0.92426 0.0
C4798 C 0.6449 0.82215 0.9227 0.0
C4799 C 0.63957 0.81469 0.93206 0.0
H4800 H 0.94098 0.12887 0.80404 0.0
H4801 H 0.92773 0.1069 0.7726 0.0
H4802 H 0.90578 0.10978 0.77944 0.0
H4803 H 0.89076 0.11617 0.79628 0.0
H4804 H 0.9048 0.13768 0.8278 0.0
H4805 H 0.92601 0.13749 0.81905 0.0
C4806 C 0.93324 0.12497 0.79855 0.0
C4807 C 0.93587 0.11766 0.78792 0.0
C4808 C 0.92081 0.1265 0.80266 0.0
C4809 C 0.92585 0.1126 0.78082 0.0
C4810 C 0.91334 0.11418 0.78479 0.0
C4811 C 0.89844 0.12112 0.80097 0.0
C4812 C 0.8963 0.12699 0.81262 0.0
C4813 C 0.91073 0.12077 0.79595 0.0
C4814 C 0.90628 0.1332 0.81877 0.0
C4815 C 0.9184 0.13303 0.81382 0.0
H4816 H 0.65614 0.23407 0.57409 0.0
H4817 H 0.61887 0.21788 0.57335 0.0
H4818 H 0.62591 0.20089 0.58715 0.0
H4819 H 0.64228 0.1919 0.60106 0.0
H4820 H 0.6796 0.20828 0.60147 0.0
H4821 H 0.67299 0.22386 0.58618 0.0
C4822 C 0.64967 0.22663 0.57675 0.0
C4823 C 0.63706 0.2271 0.57269 0.0
C4824 C 0.65377 0.21703 0.58476 0.0
C4825 C 0.62867 0.21756 0.57626 0.0
C4826 C 0.63267 0.20793 0.58422 0.0
C4827 C 0.64903 0.19873 0.59762 0.0
C4828 C 0.66139 0.199 0.60259 0.0
C4829 C 0.64515 0.20773 0.58877 0.0
C4830 C 0.66997 0.20799 0.59805 0.0
C4831 C 0.66621 0.21689 0.58925 0.0
H4832 H 0.57256 0.88708 0.30821 0.0
H4833 H 0.58405 0.90483 0.27381 0.0
H4834 H 0.60614 0.90312 0.28009 0.0
H4835 H 0.62232 0.89661 0.29535 0.0
H4836 H 0.61077 0.87845 0.32955 0.0
H4837 H 0.58872 0.88064 0.32349 0.0
C4838 C 0.57987 0.89073 0.30214 0.0
C4839 C 0.57655 0.89605 0.29051 0.0
C4840 C 0.59263 0.88972 0.30581 0.0
C4841 C 0.58625 0.90053 0.28273 0.0
C4842 C 0.59893 0.89961 0.28634 0.0
C4843 C 0.61501 0.89304 0.30146 0.0
C4844 C 0.61835 0.88745 0.31298 0.0
C4845 C 0.60225 0.89416 0.29784 0.0
C4846 C 0.60861 0.88303 0.32077 0.0
C4847 C 0.59594 0.88419 0.31726 0.0
H4848 H 0.88393 0.78084 0.08193 0.0
H4849 H 0.86604 0.79589 0.04886 0.0
H4850 H 0.85605 0.81211 0.06147 0.0
H4851 H 0.85295 0.82257 0.08162 0.0
H4852 H 0.87154 0.80844 0.11472 0.0
H4853 H 0.88018 0.79109 0.10251 0.0
C4854 C 0.87775 0.78761 0.07753 0.0
C4855 C 0.87589 0.78723 0.06442 0.0
C4856 C 0.87203 0.79703 0.08486 0.0
C4857 C 0.86788 0.79611 0.05887 0.0
C4858 C 0.86207 0.80534 0.06609 0.0
C4859 C 0.8589 0.81572 0.0862 0.0
C4860 C 0.8616 0.81693 0.09909 0.0
C4861 C 0.8642 0.806 0.07905 0.0
C4862 C 0.86912 0.80773 0.10486 0.0
C4863 C 0.87422 0.79785 0.09784 0.0
H4864 H 0.72204 0.93561 0.89906 0.0
H4865 H 0.68771 0.95483 0.88919 0.0
H4866 H 0.67745 0.93481 0.88442 0.0
H4867 H 0.67858 0.91194 0.88177 0.0
H4868 H 0.71276 0.89267 0.89222 0.0
H4869 H 0.72276 0.91261 0.89758 0.0
C4870 C 0.71232 0.93544 0.89584 0.0
C4871 C 0.70571 0.94678 0.89445 0.0
C4872 C 0.70647 0.92387 0.893 0.0
C4873 C 0.69303 0.94629 0.89049 0.0
C4874 C 0.68716 0.93483 0.88764 0.0
C4875 C 0.68814 0.91202 0.88541 0.0
C4876 C 0.69488 0.9007 0.88639 0.0
C4877 C 0.69383 0.92356 0.88872 0.0
C4878 C 0.70736 0.90117 0.89101 0.0
C4879 C 0.7131 0.9126 0.89421 0.0
H4880 H 0.19388 0.56589 0.137 0.0
H4881 H 0.22638 0.57479 0.11462 0.0
H4882 H 0.22252 0.59732 0.11778 0.0
H4883 H 0.20875 0.61444 0.12572 0.0
H4884 H 0.17654 0.60478 0.14843 0.0
H4885 H 0.18133 0.58264 0.14613 0.0
C4886 C 0.20017 0.57278 0.13287 0.0
C4887 C 0.2103 0.56872 0.12548 0.0
C4888 C 0.19782 0.58559 0.13463 0.0
C4889 C 0.21851 0.57771 0.12036 0.0
C4890 C 0.21624 0.59057 0.1221 0.0
C4891 C 0.20287 0.6075 0.13028 0.0
C4892 C 0.19211 0.61135 0.13702 0.0
C4893 C 0.20576 0.59464 0.12904 0.0
C4894 C 0.18463 0.60216 0.14286 0.0
C4895 C 0.18743 0.58946 0.14166 0.0
H4896 H 0.23715 0.45236 0.85851 0.0
H4897 H 0.22416 0.44276 0.89551 0.0
H4898 H 0.20808 0.42888 0.88642 0.0
H4899 H 0.19878 0.41818 0.86806 0.0
H4900 H 0.21228 0.42701 0.83107 0.0
H4901 H 0.22697 0.4425 0.83999 0.0
C4902 C 0.23063 0.44741 0.86456 0.0
C4903 C 0.23188 0.44857 0.87767 0.0
C4904 C 0.22155 0.43921 0.85926 0.0
C4905 C 0.22346 0.44196 0.88539 0.0
C4906 C 0.21426 0.43401 0.8802 0.0
C4907 C 0.20479 0.42365 0.86194 0.0
C4908 C 0.20445 0.42144 0.84892 0.0
C4909 C 0.21338 0.43237 0.86717 0.0
C4910 C 0.21244 0.42847 0.84113 0.0
C4911 C 0.22083 0.43734 0.84623 0.0
H4912 H 0.30808 0.4413 0.60083 0.0
H4913 H 0.29455 0.44964 0.63796 0.0
H4914 H 0.30255 0.4296 0.64559 0.0
H4915 H 0.3146 0.4102 0.64196 0.0
H4916 H 0.32708 0.40127 0.60459 0.0
H4917 H 0.31821 0.42086 0.59674 0.0
C4918 C 0.30691 0.43867 0.61057 0.0
C4919 C 0.30094 0.44694 0.61888 0.0
C4920 C 0.31131 0.42701 0.61483 0.0
C4921 C 0.29922 0.4434 0.63144 0.0
C4922 C 0.30378 0.43196 0.6358 0.0
C4923 C 0.31519 0.41251 0.63208 0.0
C4924 C 0.32147 0.40437 0.62386 0.0
C4925 C 0.30999 0.42375 0.62763 0.0
C4926 C 0.32217 0.40738 0.61106 0.0
C4927 C 0.3172 0.41862 0.60659 0.0
H4928 H 0.78531 0.06953 0.8886 0.0
H4929 H 0.77148 0.05139 0.85492 0.0
H4930 H 0.78636 0.06356 0.84236 0.0
H4931 H 0.8025 0.08057 0.84083 0.0
H4932 H 0.81474 0.09952 0.87462 0.0
H4933 H 0.80117 0.08605 0.88719 0.0
C4934 C 0.78547 0.06825 0.87851 0.0
C4935 C 0.77716 0.05962 0.87276 0.0
C4936 C 0.7937 0.07559 0.87131 0.0
C4937 C 0.77782 0.05787 0.85967 0.0
C4938 C 0.78625 0.06494 0.85244 0.0
C4939 C 0.80211 0.0817 0.85093 0.0
C4940 C 0.80942 0.09111 0.85682 0.0
C4941 C 0.79408 0.07401 0.85813 0.0
C4942 C 0.80899 0.09247 0.86992 0.0
C4943 C 0.8013 0.08474 0.8771 0.0
H4944 H 0.80725 0.07439 0.4097 0.0
H4945 H 0.79774 0.06469 0.37143 0.0
H4946 H 0.80366 0.08575 0.36469 0.0
H4947 H 0.81463 0.10586 0.36919 0.0
H4948 H 0.82426 0.11542 0.40738 0.0
H4949 H 0.81545 0.09548 0.41459 0.0
C4950 C 0.80637 0.0769 0.39989 0.0
C4951 C 0.80229 0.06783 0.39107 0.0
C4952 C 0.81003 0.08897 0.39602 0.0
C4953 C 0.80086 0.07141 0.37846 0.0
C4954 C 0.80437 0.08345 0.37455 0.0
C4955 C 0.8145 0.10365 0.37911 0.0
C4956 C 0.82006 0.11204 0.38777 0.0
C4957 C 0.80942 0.09214 0.38317 0.0
C4958 C 0.81989 0.10914 0.40059 0.0
C4959 C 0.81494 0.0977 0.40469 0.0
H4960 H 0.23518 0.56253 0.65677 0.0
H4961 H 0.22827 0.57956 0.62081 0.0
H4962 H 0.21379 0.5945 0.63051 0.0
H4963 H 0.20324 0.60284 0.64934 0.0
H4964 H 0.21109 0.58661 0.68543 0.0
H4965 H 0.22493 0.57107 0.6756 0.0
C4966 C 0.23038 0.56944 0.65106 0.0
C4967 C 0.23266 0.56988 0.63809 0.0
C4968 C 0.22223 0.57808 0.65673 0.0
C4969 C 0.22665 0.57905 0.63082 0.0
C4970 C 0.21835 0.58756 0.63635 0.0
C4971 C 0.20794 0.59581 0.65498 0.0
C4972 C 0.20614 0.59569 0.66801 0.0
C4973 C 0.21608 0.58716 0.6493 0.0
C4974 C 0.21236 0.58675 0.67535 0.0
C4975 C 0.22026 0.57792 0.66974 0.0
H4976 H 0.2895 0.45063 0.13514 0.0
H4977 H 0.264 0.45179 0.16644 0.0
H4978 H 0.27631 0.43572 0.17723 0.0
H4979 H 0.29432 0.42134 0.17776 0.0
H4980 H 0.31927 0.41933 0.14599 0.0
H4981 H 0.30727 0.4357 0.13543 0.0
C4982 C 0.28669 0.44732 0.14432 0.0
C4983 C 0.2759 0.45232 0.15003 0.0
C4984 C 0.29372 0.43794 0.15038 0.0
C4985 C 0.27224 0.44796 0.16187 0.0
C4986 C 0.27929 0.43882 0.16804 0.0
C4987 C 0.29709 0.42443 0.16849 0.0
C4988 C 0.30774 0.41915 0.16273 0.0
C4989 C 0.29003 0.43372 0.16238 0.0
C4990 C 0.31126 0.42338 0.15076 0.0
C4991 C 0.30435 0.43269 0.14467 0.0
H4992 H 0.60409 0.80768 0.53141 0.0
H4993 H 0.6376 0.82948 0.5237 0.0
H4994 H 0.63188 0.8446 0.53976 0.0
H4995 H 0.61761 0.85186 0.55581 0.0
H4996 H 0.5848 0.82991 0.56535 0.0
H4997 H 0.58976 0.81489 0.54855 0.0
C4998 C 0.61019 0.81566 0.53338 0.0
C4999 C 0.62118 0.8175 0.52619 0.0
C5000 C 0.60689 0.8244 0.54282 0.0
C5001 C 0.62897 0.82793 0.52888 0.0
C5002 C 0.62572 0.8366 0.53808 0.0
C5003 C 0.61158 0.84372 0.55434 0.0
C5004 C 0.60096 0.84195 0.56197 0.0
C5005 C 0.61471 0.83498 0.54504 0.0
C5006 C 0.59303 0.83156 0.5596 0.0
C5007 C 0.59594 0.82289 0.55007 0.0
H5008 H 0.4827 0.38002 0.83327 0.0
H5009 H 0.4505 0.35648 0.82481 0.0
H5010 H 0.44322 0.35843 0.84633 0.0
H5011 H 0.44478 0.36832 0.86689 0.0
H5012 H 0.47719 0.39128 0.87621 0.0
H5013 H 0.48549 0.38817 0.85507 0.0
C5014 C 0.47424 0.37514 0.83624 0.0
C5015 C 0.46703 0.3683 0.82737 0.0
C5016 C 0.47 0.37637 0.84873 0.0
C5017 C 0.45608 0.36201 0.83137 0.0
C5018 C 0.4519 0.36311 0.84369 0.0
C5019 C 0.4538 0.37245 0.86446 0.0
C5020 C 0.46023 0.38013 0.8732 0.0
C5021 C 0.45859 0.37052 0.85235 0.0
C5022 C 0.47183 0.38554 0.86965 0.0
C5023 C 0.47666 0.3837 0.85756 0.0
H5024 H 0.9065 0.20871 0.03554 0.0
H5025 H 0.87222 0.18789 0.02808 0.0
H5026 H 0.88 0.17053 0.0408 0.0
H5027 H 0.89655 0.16128 0.05419 0.0
H5028 H 0.93056 0.18246 0.06192 0.0
H5029 H 0.92284 0.19962 0.049 0.0
C5030 C 0.90064 0.20044 0.0368 0.0
C5031 C 0.88875 0.19969 0.03088 0.0
C5032 C 0.90515 0.19051 0.04418 0.0
C5033 C 0.88145 0.18874 0.03241 0.0
C5034 C 0.88587 0.17881 0.03975 0.0
C5035 C 0.90223 0.16969 0.05315 0.0
C5036 C 0.91415 0.17053 0.05905 0.0
C5037 C 0.8977 0.1796 0.04571 0.0
C5038 C 0.92144 0.18145 0.05739 0.0
C5039 C 0.917 0.19132 0.05004 0.0
H5040 H 0.03152 0.65334 0.3329 0.0
H5041 H 0.06359 0.63437 0.31717 0.0
H5042 H 0.07107 0.62897 0.33815 0.0
H5043 H 0.06954 0.63115 0.36093 0.0
H5044 H 0.03867 0.65152 0.37716 0.0
H5045 H 0.02948 0.65469 0.35617 0.0
C5046 C 0.04001 0.64784 0.33415 0.0
C5047 C 0.047 0.64418 0.32358 0.0
C5048 C 0.04445 0.64505 0.34633 0.0
C5049 C 0.05807 0.63721 0.32522 0.0
C5050 C 0.06236 0.63416 0.3372 0.0
C5051 C 0.06067 0.63607 0.35985 0.0
C5052 C 0.05469 0.641 0.37049 0.0
C5053 C 0.05577 0.63822 0.34781 0.0
C5054 C 0.04336 0.6476 0.36904 0.0
C5055 C 0.03817 0.64944 0.35706 0.0
H5056 H 0.62872 0.1845 0.99099 0.0
H5057 H 0.60623 0.21723 0.9832 0.0
H5058 H 0.59624 0.2062 0.96554 0.0
H5059 H 0.59388 0.18696 0.95223 0.0
H5060 H 0.61508 0.154 0.96182 0.0
H5061 H 0.62512 0.16522 0.9793 0.0
C5062 C 0.62142 0.18923 0.98571 0.0
C5063 C 0.61822 0.20172 0.98866 0.0
C5064 C 0.61531 0.18267 0.97596 0.0
C5065 C 0.60908 0.2077 0.98117 0.0
C5066 C 0.60322 0.20134 0.97112 0.0
C5067 C 0.6005 0.18224 0.95836 0.0
C5068 C 0.60368 0.16966 0.95592 0.0
C5069 C 0.60621 0.18878 0.96846 0.0
C5070 C 0.6124 0.16362 0.96371 0.0
C5071 C 0.61821 0.17007 0.9736 0.0
H5072 H 0.05076 0.35177 0.18727 0.0
H5073 H 0.02775 0.38493 0.1882 0.0
H5074 H 0.0312 0.38799 0.16565 0.0
H5075 H 0.0426 0.38223 0.1461 0.0
H5076 H 0.06662 0.34958 0.14643 0.0
H5077 H 0.06088 0.34539 0.16791 0.0
C5078 C 0.04646 0.35966 0.18255 0.0
C5079 C 0.0392 0.36822 0.18947 0.0
C5080 C 0.04871 0.36149 0.16974 0.0
C5081 C 0.03341 0.3782 0.18311 0.0
C5082 C 0.03546 0.38 0.17024 0.0
C5083 C 0.04649 0.37414 0.15084 0.0
C5084 C 0.05496 0.36619 0.14444 0.0
C5085 C 0.04339 0.37187 0.1635 0.0
C5086 C 0.05982 0.35572 0.15082 0.0
C5087 C 0.05667 0.35336 0.16324 0.0
H5088 H 0.90047 0.82983 0.49427 0.0
H5089 H 0.88854 0.80326 0.46596 0.0
H5090 H 0.89828 0.8163 0.44964 0.0
H5091 H 0.90964 0.8359 0.44347 0.0
H5092 H 0.92176 0.86181 0.47241 0.0
H5093 H 0.91246 0.84847 0.4884 0.0
C5094 C 0.90001 0.82688 0.48452 0.0
C5095 C 0.89368 0.81568 0.48131 0.0
C5096 C 0.90564 0.83436 0.47529 0.0
C5097 C 0.89337 0.81185 0.46867 0.0
C5098 C 0.89887 0.81934 0.45935 0.0
C5099 C 0.91024 0.83857 0.45328 0.0
C5100 C 0.91643 0.84984 0.45675 0.0
C5101 C 0.90493 0.83072 0.46254 0.0
C5102 C 0.91719 0.85314 0.46951 0.0
C5103 C 0.91183 0.84554 0.47866 0.0
H5104 H 0.45388 0.63986 0.6878 0.0
H5105 H 0.49356 0.64394 0.68015 0.0
H5106 H 0.48934 0.64129 0.65761 0.0
H5107 H 0.47402 0.6384 0.63993 0.0
H5108 H 0.43437 0.6351 0.64827 0.0
H5109 H 0.43891 0.63702 0.67062 0.0
C5110 C 0.46163 0.64029 0.68122 0.0
C5111 C 0.474 0.64225 0.68569 0.0
C5112 C 0.4591 0.63895 0.66834 0.0
C5113 C 0.48394 0.64241 0.677 0.0
C5114 C 0.48151 0.64097 0.66409 0.0
C5115 C 0.46641 0.6381 0.64668 0.0
C5116 C 0.45383 0.63675 0.64242 0.0
C5117 C 0.46909 0.63932 0.65963 0.0
C5118 C 0.44408 0.63637 0.65127 0.0
C5119 C 0.44667 0.63739 0.66406 0.0
H5120 H 0.55975 0.61871 0.79626 0.0
H5121 H 0.52675 0.61998 0.81975 0.0
H5122 H 0.53888 0.61137 0.8372 0.0
H5123 H 0.55881 0.60277 0.84571 0.0
H5124 H 0.59175 0.6018 0.82229 0.0
H5125 H 0.57965 0.61062 0.80481 0.0
C5126 C 0.55515 0.61702 0.80515 0.0
C5127 C 0.54228 0.61996 0.80658 0.0
C5128 C 0.56216 0.61196 0.81515 0.0
C5129 C 0.53663 0.61795 0.81833 0.0
C5130 C 0.54355 0.61291 0.82832 0.0
C5131 C 0.56327 0.6045 0.83675 0.0
C5132 C 0.57611 0.60163 0.8352 0.0
C5133 C 0.55629 0.60977 0.82682 0.0
C5134 C 0.58188 0.60398 0.82364 0.0
C5135 C 0.57496 0.60901 0.81368 0.0
H5136 H 0.64905 0.32748 0.04724 0.0
H5137 H 0.62275 0.3105 0.07291 0.0
H5138 H 0.61871 0.33089 0.08247 0.0
H5139 H 0.62303 0.35338 0.08407 0.0
H5140 H 0.64968 0.37064 0.05903 0.0
H5141 H 0.65309 0.35038 0.04861 0.0
C5142 C 0.64238 0.32828 0.05488 0.0
C5143 C 0.63629 0.31743 0.0594 0.0
C5144 C 0.64012 0.34009 0.06042 0.0
C5145 C 0.62774 0.31863 0.06937 0.0
C5146 C 0.62534 0.33031 0.0748 0.0
C5147 C 0.62941 0.35277 0.07618 0.0
C5148 C 0.636 0.36353 0.07225 0.0
C5149 C 0.63151 0.34108 0.07045 0.0
C5150 C 0.64448 0.3625 0.06222 0.0
C5151 C 0.64645 0.35091 0.05628 0.0
H5152 H 0.98106 0.39697 0.31512 0.0
H5153 H 0.95057 0.38707 0.28989 0.0
H5154 H 0.93535 0.39592 0.30452 0.0
H5155 H 0.93061 0.40691 0.32438 0.0
H5156 H 0.96112 0.41694 0.34946 0.0
H5157 H 0.97631 0.4075 0.33513 0.0
C5158 C 0.97108 0.39658 0.31288 0.0
C5159 C 0.96703 0.39137 0.30135 0.0
C5160 C 0.96233 0.40176 0.32133 0.0
C5161 C 0.95403 0.39116 0.29859 0.0
C5162 C 0.94528 0.39618 0.30699 0.0
C5163 C 0.94058 0.40695 0.32672 0.0
C5164 C 0.94472 0.41269 0.33794 0.0
C5165 C 0.94931 0.40158 0.31835 0.0
C5166 C 0.95769 0.41275 0.3408 0.0
C5167 C 0.96639 0.40729 0.33263 0.0
H5168 H 0.86038 0.69006 0.54567 0.0
H5169 H 0.8916 0.70674 0.566 0.0
H5170 H 0.89723 0.68629 0.57443 0.0
H5171 H 0.89379 0.66347 0.57556 0.0
H5172 H 0.86221 0.64672 0.55601 0.0
H5173 H 0.85627 0.66727 0.5477 0.0
C5174 C 0.8684 0.6892 0.55196 0.0
C5175 C 0.87556 0.69996 0.55515 0.0
C5176 C 0.87158 0.67736 0.55685 0.0
C5177 C 0.88583 0.69868 0.56346 0.0
C5178 C 0.88913 0.68696 0.56823 0.0
C5179 C 0.88563 0.66435 0.56945 0.0
C5180 C 0.87851 0.65361 0.56631 0.0
C5181 C 0.88216 0.67622 0.5649 0.0
C5182 C 0.86783 0.65487 0.55856 0.0
C5183 C 0.86445 0.66661 0.55379 0.0
H5184 H 0.54455 0.40871 0.71532 0.0
H5185 H 0.53938 0.37192 0.69892 0.0
H5186 H 0.5536 0.37743 0.68187 0.0
H5187 H 0.56894 0.39194 0.67267 0.0
H5188 H 0.57479 0.42851 0.68926 0.0
H5189 H 0.55871 0.42395 0.70504 0.0
C5190 C 0.54654 0.4019 0.70801 0.0
C5191 C 0.54101 0.38985 0.70852 0.0
C5192 C 0.55484 0.4051 0.69827 0.0
C5193 C 0.54345 0.38125 0.69879 0.0
C5194 C 0.55164 0.38438 0.68905 0.0
C5195 C 0.56663 0.39895 0.6797 0.0
C5196 C 0.57319 0.41047 0.67992 0.0
C5197 C 0.55759 0.39616 0.68886 0.0
C5198 C 0.56989 0.41957 0.68889 0.0
C5199 C 0.56078 0.41692 0.69798 0.0
H5200 H 0.87765 0.31466 0.94431 0.0
H5201 H 0.86419 0.32399 0.98126 0.0
H5202 H 0.86889 0.34626 0.97749 0.0
H5203 H 0.87598 0.36327 0.963 0.0
H5204 H 0.88827 0.35324 0.9258 0.0
H5205 H 0.88481 0.33109 0.9303 0.0
C5206 C 0.87566 0.32155 0.95154 0.0
C5207 C 0.87042 0.31766 0.96298 0.0
C5208 C 0.87815 0.33426 0.94922 0.0
C5209 C 0.86825 0.32672 0.97237 0.0
C5210 C 0.87086 0.33946 0.97018 0.0
C5211 C 0.87792 0.35618 0.95595 0.0
C5212 C 0.88227 0.35985 0.94403 0.0
C5213 C 0.87569 0.34337 0.95855 0.0
C5214 C 0.88476 0.35063 0.93495 0.0
C5215 C 0.88282 0.33797 0.93754 0.0
H5216 H 0.95779 0.62336 0.21816 0.0
H5217 H 0.99038 0.62431 0.19409 0.0
H5218 H 0.97799 0.61502 0.17702 0.0
H5219 H 0.95793 0.60607 0.16899 0.0
H5220 H 0.92536 0.60539 0.19294 0.0
H5221 H 0.93776 0.61476 0.21009 0.0
C5222 C 0.96224 0.62145 0.20923 0.0
C5223 C 0.97507 0.62452 0.20751 0.0
C5224 C 0.95507 0.61601 0.19944 0.0
C5225 C 0.98053 0.6222 0.19571 0.0
C5226 C 0.97346 0.61678 0.18595 0.0
C5227 C 0.95361 0.60796 0.178 0.0
C5228 C 0.9408 0.60504 0.17977 0.0
C5229 C 0.96075 0.61356 0.18772 0.0
C5230 C 0.93521 0.60762 0.1914 0.0
C5231 C 0.94229 0.61297 0.20118 0.0
H5232 H 0.62529 0.6958 0.44771 0.0
H5233 H 0.65794 0.68818 0.47066 0.0
H5234 H 0.65712 0.66608 0.46437 0.0
H5235 H 0.64738 0.64894 0.45191 0.0
H5236 H 0.61471 0.65682 0.42899 0.0
H5237 H 0.61515 0.67861 0.4359 0.0
C5238 C 0.63229 0.68933 0.45125 0.0
C5239 C 0.64172 0.69369 0.45957 0.0
C5240 C 0.63167 0.67659 0.44772 0.0
C5241 C 0.65056 0.68509 0.46426 0.0
C5242 C 0.6501 0.67244 0.46067 0.0
C5243 C 0.64032 0.65541 0.44848 0.0
C5244 C 0.631 0.65115 0.43996 0.0
C5245 C 0.64071 0.66807 0.45237 0.0
C5246 C 0.62186 0.65969 0.43573 0.0
C5247 C 0.62219 0.67224 0.43955 0.0
H5248 H 0.83303 0.54134 0.6397 0.0
H5249 H 0.80992 0.53757 0.60643 0.0
H5250 H 0.82215 0.55409 0.59624 0.0
H5251 H 0.84072 0.56833 0.59611 0.0
H5252 H 0.86439 0.57081 0.62912 0.0
H5253 H 0.85082 0.55595 0.63991 0.0
C5254 C 0.83066 0.54407 0.6302 0.0
C5255 C 0.82066 0.53801 0.62381 0.0
C5256 C 0.83797 0.55329 0.62425 0.0
C5257 C 0.81752 0.54204 0.61164 0.0
C5258 C 0.82461 0.55142 0.60574 0.0
C5259 C 0.84288 0.56561 0.60567 0.0
C5260 C 0.85357 0.57074 0.61179 0.0
C5261 C 0.83507 0.55688 0.61183 0.0
C5262 C 0.85615 0.5672 0.62423 0.0
C5263 C 0.84842 0.55863 0.6304 0.0
H5264 H 0.3361 0.97692 0.37516 0.0
H5265 H 0.30955 0.97611 0.40568 0.0
H5266 H 0.32178 0.95961 0.41585 0.0
H5267 H 0.34102 0.94643 0.41682 0.0
H5268 H 0.36783 0.9484 0.38658 0.0
H5269 H 0.35472 0.96366 0.37581 0.0
C5270 C 0.33299 0.97323 0.38408 0.0
C5271 C 0.32198 0.97798 0.38969 0.0
C5272 C 0.34024 0.96402 0.39005 0.0
C5273 C 0.31793 0.97268 0.40106 0.0
C5274 C 0.32501 0.96331 0.40697 0.0
C5275 C 0.34396 0.95021 0.40787 0.0
C5276 C 0.35537 0.94621 0.40248 0.0
C5277 C 0.33634 0.95909 0.40169 0.0
C5278 C 0.35901 0.95115 0.39085 0.0
C5279 C 0.35154 0.95992 0.38469 0.0
H5280 H 0.31091 0.07027 0.64749 0.0
H5281 H 0.31711 0.03196 0.65855 0.0
H5282 H 0.33982 0.03453 0.65484 0.0
H5283 H 0.35811 0.04823 0.64935 0.0
H5284 H 0.35131 0.08673 0.6393 0.0
H5285 H 0.32867 0.08358 0.6418 0.0
C5286 C 0.31722 0.06249 0.64919 0.0
C5287 C 0.31233 0.051 0.65346 0.0
C5288 C 0.33019 0.0641 0.64725 0.0
C5289 C 0.32062 0.04091 0.65525 0.0
C5290 C 0.33361 0.0424 0.65319 0.0
C5291 C 0.35162 0.05586 0.64766 0.0
C5292 C 0.35634 0.06774 0.64425 0.0
C5293 C 0.33854 0.05402 0.64932 0.0
C5294 C 0.34788 0.07758 0.64209 0.0
C5295 C 0.33494 0.07577 0.64349 0.0
H5296 H 0.20002 0.04809 0.87232 0.0
H5297 H 0.19054 0.01806 0.89754 0.0
H5298 H 0.17408 0.03095 0.90702 0.0
H5299 H 0.16206 0.05089 0.90792 0.0
H5300 H 0.17151 0.08054 0.8823 0.0
H5301 H 0.18837 0.06783 0.87334 0.0
C5302 C 0.19442 0.0444 0.87996 0.0
C5303 C 0.19652 0.03213 0.88419 0.0
C5304 C 0.18498 0.05186 0.88534 0.0
C5305 C 0.18903 0.02743 0.89398 0.0
C5306 C 0.17966 0.03483 0.89947 0.0
C5307 C 0.16794 0.05454 0.90048 0.0
C5308 C 0.1657 0.06662 0.8958 0.0
C5309 C 0.17752 0.04707 0.89522 0.0
C5310 C 0.1732 0.07127 0.88606 0.0
C5311 C 0.18279 0.064 0.88091 0.0
H5312 H 0.69655 0.4808 0.65612 0.0
H5313 H 0.7117 0.45125 0.63293 0.0
H5314 H 0.69079 0.4418 0.63088 0.0
H5315 H 0.66822 0.4418 0.63567 0.0
H5316 H 0.6529 0.47069 0.65942 0.0
H5317 H 0.67377 0.4807 0.66106 0.0
C5318 C 0.69525 0.47234 0.65055 0.0
C5319 C 0.70572 0.46675 0.6447 0.0
C5320 C 0.68315 0.46692 0.64941 0.0
C5321 C 0.70388 0.45568 0.63767 0.0
C5322 C 0.6919 0.45031 0.63641 0.0
C5323 C 0.66944 0.4504 0.64105 0.0
C5324 C 0.65905 0.45564 0.64726 0.0
C5325 C 0.68147 0.45586 0.6422 0.0
C5326 C 0.66077 0.46657 0.65449 0.0
C5327 C 0.6727 0.47225 0.65545 0.0
H5328 H 0.70209 0.47755 0.11834 0.0
H5329 H 0.68184 0.48936 0.15133 0.0
H5330 H 0.66469 0.47484 0.14609 0.0
H5331 H 0.6562 0.45763 0.13309 0.0
H5332 H 0.67697 0.44503 0.10073 0.0
H5333 H 0.693 0.46114 0.10466 0.0
C5334 C 0.69395 0.47692 0.12442 0.0
C5335 C 0.69337 0.48446 0.1353 0.0
C5336 C 0.68417 0.46841 0.12145 0.0
C5337 C 0.68256 0.48374 0.14287 0.0
C5338 C 0.67276 0.47538 0.13992 0.0
C5339 C 0.66423 0.45841 0.12688 0.0
C5340 C 0.66543 0.44999 0.11672 0.0
C5341 C 0.67358 0.4675 0.12937 0.0
C5342 C 0.67573 0.45139 0.10858 0.0
C5343 C 0.68498 0.46053 0.11089 0.0
H5344 H 0.31823 0.97549 0.86962 0.0
H5345 H 0.31057 0.942 0.84791 0.0
H5346 H 0.33267 0.93608 0.84919 0.0
H5347 H 0.35368 0.93933 0.85789 0.0
H5348 H 0.36212 0.97301 0.87905 0.0
H5349 H 0.34025 0.97981 0.87671 0.0
C5350 C 0.32148 0.96702 0.86501 0.0
C5351 C 0.31272 0.95909 0.85885 0.0
C5352 C 0.3343 0.96358 0.86584 0.0
C5353 C 0.31707 0.94814 0.8529 0.0
C5354 C 0.32972 0.94474 0.85362 0.0
C5355 C 0.35088 0.94831 0.86178 0.0
C5356 C 0.35962 0.95556 0.86871 0.0
C5357 C 0.33835 0.95223 0.8603 0.0
C5358 C 0.3556 0.96706 0.87387 0.0
C5359 C 0.34309 0.97102 0.87246 0.0
H5360 H 0.19556 0.03268 0.36099 0.0
H5361 H 0.21248 0.06848 0.37042 0.0
H5362 H 0.19163 0.07793 0.37157 0.0
H5363 H 0.16842 0.07581 0.37123 0.0
H5364 H 0.15161 0.03969 0.3633 0.0
H5365 H 0.17252 0.03058 0.36047 0.0
C5366 C 0.19474 0.04253 0.36341 0.0
C5367 C 0.2057 0.04978 0.36566 0.0
C5368 C 0.18267 0.04787 0.36441 0.0
C5369 C 0.20432 0.06263 0.36846 0.0
C5370 C 0.19235 0.06806 0.36924 0.0
C5371 C 0.16936 0.06598 0.36875 0.0
C5372 C 0.15849 0.05843 0.36749 0.0
C5373 C 0.18145 0.06074 0.36738 0.0
C5374 C 0.15984 0.04567 0.36441 0.0
C5375 C 0.17179 0.04047 0.36278 0.0
H5376 H 0.38995 0.22299 0.44971 0.0
H5377 H 0.42448 0.20274 0.45595 0.0
H5378 H 0.42512 0.1967 0.43388 0.0
H5379 H 0.41427 0.19448 0.41363 0.0
H5380 H 0.37931 0.21372 0.40715 0.0
H5381 H 0.38051 0.22311 0.42825 0.0
C5382 C 0.39776 0.21755 0.44613 0.0
C5383 C 0.40706 0.21315 0.45449 0.0
C5384 C 0.39793 0.21385 0.43338 0.0
C5385 C 0.41713 0.20608 0.44973 0.0
C5386 C 0.41749 0.2026 0.43711 0.0
C5387 C 0.40712 0.20102 0.41676 0.0
C5388 C 0.39675 0.20347 0.40894 0.0
C5389 C 0.40771 0.20602 0.42897 0.0
C5390 C 0.38741 0.21178 0.41306 0.0
C5391 C 0.38806 0.21706 0.42514 0.0
H5392 H 0.54176 0.64959 0.21164 0.0
H5393 H 0.57309 0.63563 0.23339 0.0
H5394 H 0.58789 0.64543 0.21908 0.0
H5395 H 0.59206 0.65652 0.19963 0.0
H5396 H 0.56109 0.67147 0.17804 0.0
H5397 H 0.54611 0.66279 0.19306 0.0
C5398 C 0.55182 0.6488 0.2133 0.0
C5399 C 0.55626 0.64158 0.22344 0.0
C5400 C 0.56038 0.65459 0.20504 0.0
C5401 C 0.56936 0.64074 0.22546 0.0
C5402 C 0.57786 0.64645 0.21733 0.0
C5403 C 0.58207 0.65822 0.19832 0.0
C5404 C 0.57779 0.66457 0.18758 0.0
C5405 C 0.5735 0.65321 0.20698 0.0
C5406 C 0.56472 0.66642 0.18606 0.0
C5407 C 0.55611 0.66147 0.19468 0.0
H5408 H 0.09834 0.79346 0.95089 0.0
H5409 H 0.13795 0.79589 0.95984 0.0
H5410 H 0.14228 0.80489 0.93923 0.0
H5411 H 0.1347 0.81285 0.91898 0.0
H5412 H 0.09523 0.8099 0.90951 0.0
H5413 H 0.09093 0.80013 0.9298 0.0
C5414 C 0.10789 0.79595 0.94824 0.0
C5415 C 0.11783 0.79416 0.95682 0.0
C5416 C 0.11033 0.80095 0.93627 0.0
C5417 C 0.13019 0.79728 0.95335 0.0
C5418 C 0.13266 0.80239 0.94158 0.0
C5419 C 0.12518 0.80995 0.92134 0.0
C5420 C 0.11529 0.81212 0.91279 0.0
C5421 C 0.1228 0.80437 0.93301 0.0
C5422 C 0.10302 0.80823 0.91589 0.0
C5423 C 0.10054 0.80274 0.92754 0.0
H5424 H 0.94382 0.38446 0.72318 0.0
H5425 H 0.97482 0.35853 0.72036 0.0
H5426 H 0.96368 0.34718 0.7036 0.0
H5427 H 0.94448 0.34403 0.69032 0.0
H5428 H 0.91304 0.3691 0.69516 0.0
H5429 H 0.92476 0.38092 0.71099 0.0
C5430 C 0.94814 0.3762 0.71913 0.0
C5431 C 0.96013 0.37233 0.72327 0.0
C5432 C 0.94144 0.36935 0.70997 0.0
C5433 C 0.96567 0.36188 0.71738 0.0
C5434 C 0.95922 0.35525 0.70787 0.0
C5435 C 0.9402 0.35201 0.69496 0.0
C5436 C 0.92782 0.35556 0.69168 0.0
C5437 C 0.947 0.35879 0.70421 0.0
C5438 C 0.92241 0.36597 0.6977 0.0
C5439 C 0.92917 0.37284 0.70665 0.0
H5440 H 0.38519 0.8115 0.05684 0.0
H5441 H 0.41603 0.7861 0.06271 0.0
H5442 H 0.41534 0.79024 0.08542 0.0
H5443 H 0.40795 0.80377 0.10304 0.0
H5444 H 0.3772 0.82921 0.09662 0.0
H5445 H 0.3757 0.82234 0.07476 0.0
C5446 C 0.39154 0.80665 0.06317 0.0
C5447 C 0.40069 0.7986 0.0582 0.0
C5448 C 0.39115 0.8092 0.07609 0.0
C5449 C 0.40889 0.79233 0.06639 0.0
C5450 C 0.40855 0.79477 0.07934 0.0
C5451 C 0.40067 0.80745 0.09691 0.0
C5452 C 0.39262 0.81691 0.10137 0.0
C5453 C 0.40001 0.80356 0.08424 0.0
C5454 C 0.38336 0.82181 0.09337 0.0
C5455 C 0.38258 0.81796 0.08086 0.0
H5456 H 0.94902 0.63822 0.78599 0.0
H5457 H 0.98003 0.66184 0.79806 0.0
H5458 H 0.96656 0.67198 0.81348 0.0
H5459 H 0.94628 0.67361 0.82423 0.0
H5460 H 0.91525 0.64983 0.81263 0.0
H5461 H 0.92824 0.64063 0.79617 0.0
C5462 C 0.95279 0.64567 0.79191 0.0
C5463 C 0.9656 0.64911 0.79097 0.0
C5464 C 0.94495 0.65152 0.80082 0.0
C5465 C 0.9703 0.65878 0.79876 0.0
C5466 C 0.96258 0.66466 0.80754 0.0
C5467 C 0.94234 0.66645 0.81807 0.0
C5468 C 0.92979 0.66244 0.81972 0.0
C5469 C 0.94994 0.661 0.80878 0.0
C5470 C 0.9248 0.65326 0.8115 0.0
C5471 C 0.93228 0.64788 0.80214 0.0
H5472 H 0.12404 0.22402 0.56464 0.0
H5473 H 0.09336 0.19863 0.55589 0.0
H5474 H 0.09203 0.19251 0.57781 0.0
H5475 H 0.10154 0.19196 0.59874 0.0
H5476 H 0.13235 0.2168 0.60807 0.0
H5477 H 0.13155 0.22577 0.58685 0.0
C5478 C 0.11688 0.2174 0.56763 0.0
C5479 C 0.10897 0.21159 0.5586 0.0
C5480 C 0.11627 0.21374 0.58035 0.0
C5481 C 0.0997 0.20305 0.56262 0.0
C5482 C 0.09893 0.19953 0.57515 0.0
C5483 C 0.10786 0.19956 0.59618 0.0
C5484 C 0.11702 0.2037 0.60483 0.0
C5485 C 0.10747 0.20443 0.58399 0.0
C5486 C 0.12521 0.21351 0.60151 0.0
C5487 C 0.1248 0.21855 0.58936 0.0
H5488 H 0.54773 0.35481 0.29654 0.0
H5489 H 0.57056 0.38812 0.29214 0.0
H5490 H 0.58624 0.37974 0.30668 0.0
H5491 H 0.59303 0.36338 0.32121 0.0
H5492 H 0.56983 0.33054 0.3266 0.0
H5493 H 0.55463 0.33829 0.31105 0.0
C5494 C 0.55614 0.36023 0.29879 0.0
C5495 C 0.55802 0.37205 0.29326 0.0
C5496 C 0.56502 0.35541 0.30726 0.0
C5497 C 0.569 0.37893 0.29614 0.0
C5498 C 0.57792 0.37417 0.3045 0.0
C5499 C 0.58476 0.35781 0.31878 0.0
C5500 C 0.5826 0.34632 0.32482 0.0
C5501 C 0.57601 0.36246 0.31012 0.0
C5502 C 0.57169 0.33935 0.32194 0.0
C5503 C 0.56302 0.3438 0.31311 0.0
H5504 H 0.43628 0.38454 0.20878 0.0
H5505 H 0.42419 0.40911 0.23864 0.0
H5506 H 0.40222 0.40583 0.23249 0.0
H5507 H 0.38642 0.39639 0.2183 0.0
H5508 H 0.39857 0.37185 0.18844 0.0
H5509 H 0.42051 0.37493 0.19477 0.0
C5510 C 0.42886 0.38935 0.21381 0.0
C5511 C 0.43191 0.39712 0.22409 0.0
C5512 C 0.41623 0.38746 0.2102 0.0
C5513 C 0.42212 0.40302 0.23071 0.0
C5514 C 0.40954 0.40118 0.22719 0.0
C5515 C 0.39385 0.39163 0.21325 0.0
C5516 C 0.39084 0.38401 0.20283 0.0
C5517 C 0.40648 0.39343 0.21694 0.0
C5518 C 0.40063 0.37797 0.19634 0.0
C5519 C 0.41318 0.37967 0.19999 0.0
H5520 H 0.36311 0.7262 0.95137 0.0
H5521 H 0.39561 0.73561 0.92907 0.0
H5522 H 0.38858 0.72091 0.91273 0.0
H5523 H 0.37377 0.70438 0.90533 0.0
H5524 H 0.34197 0.69431 0.92825 0.0
H5525 H 0.34809 0.71028 0.94376 0.0
C5526 C 0.3687 0.725 0.94296 0.0
C5527 C 0.37993 0.73196 0.94152 0.0
C5528 C 0.36468 0.71643 0.93368 0.0
C5529 C 0.38689 0.73046 0.93042 0.0
C5530 C 0.3829 0.72201 0.92108 0.0
C5531 C 0.36808 0.70587 0.91363 0.0
C5532 C 0.35738 0.69827 0.91564 0.0
C5533 C 0.37186 0.71485 0.92266 0.0
C5534 C 0.35021 0.70009 0.92652 0.0
C5535 C 0.35374 0.70917 0.93539 0.0
H5536 H 0.07498 0.63449 0.70487 0.0
H5537 H 0.08233 0.61252 0.73783 0.0
H5538 H 0.10519 0.61476 0.73446 0.0
H5539 H 0.123 0.62156 0.72082 0.0
H5540 H 0.11478 0.64386 0.6881 0.0
H5541 H 0.0924 0.64277 0.69261 0.0
C5542 C 0.08161 0.63028 0.71137 0.0
C5543 C 0.07704 0.62323 0.72147 0.0
C5544 C 0.09459 0.63151 0.70929 0.0
C5545 C 0.08567 0.61798 0.72997 0.0
C5546 C 0.09871 0.6192 0.72798 0.0
C5547 C 0.11631 0.62628 0.71477 0.0
C5548 C 0.1206 0.6325 0.70392 0.0
C5549 C 0.10329 0.62571 0.71748 0.0
C5550 C 0.11177 0.63865 0.69626 0.0
C5551 C 0.09894 0.63814 0.69888 0.0
H5552 H 0.14539 0.2728 0.43137 0.0
H5553 H 0.1307 0.30224 0.45504 0.0
H5554 H 0.13851 0.31799 0.44054 0.0
H5555 H 0.15011 0.32357 0.42155 0.0
H5556 H 0.16273 0.29412 0.39665 0.0
H5557 H 0.15529 0.27839 0.4113 0.0
C5558 C 0.14369 0.28264 0.4333 0.0
C5559 C 0.13761 0.28622 0.4445 0.0
C5560 C 0.14801 0.29174 0.42476 0.0
C5561 C 0.13565 0.2991 0.44675 0.0
C5562 C 0.14005 0.30817 0.43839 0.0
C5563 C 0.15109 0.31374 0.41914 0.0
C5564 C 0.15721 0.31022 0.40794 0.0
C5565 C 0.14637 0.30462 0.42743 0.0
C5566 C 0.15846 0.29731 0.40529 0.0
C5567 C 0.15405 0.28821 0.41363 0.0
H5568 H 0.43984 0.63015 0.30132 0.0
H5569 H 0.42597 0.60234 0.27509 0.0
H5570 H 0.40467 0.60446 0.28364 0.0
H5571 H 0.39024 0.61323 0.29977 0.0
H5572 H 0.40458 0.64075 0.32602 0.0
H5573 H 0.42534 0.63987 0.31623 0.0
C5574 C 0.43218 0.6245 0.2975 0.0
C5575 C 0.43456 0.61597 0.28769 0.0
C5576 C 0.41998 0.6258 0.30244 0.0
C5577 C 0.42442 0.60896 0.28266 0.0
C5578 C 0.41223 0.61016 0.28756 0.0
C5579 C 0.39786 0.61922 0.3031 0.0
C5580 C 0.39591 0.6271 0.31354 0.0
C5581 C 0.40991 0.61845 0.29757 0.0
C5582 C 0.40588 0.63469 0.31794 0.0
C5583 C 0.41777 0.63411 0.31241 0.0
H5584 H 0.12694 0.7171 0.07311 0.0
H5585 H 0.1587 0.74245 0.07321 0.0
H5586 H 0.17052 0.72824 0.08683 0.0
H5587 H 0.17114 0.7094 0.10004 0.0
H5588 H 0.13946 0.68385 0.09984 0.0
H5589 H 0.12842 0.69709 0.08475 0.0
C5590 C 0.13654 0.71932 0.07594 0.0
C5591 C 0.14202 0.73072 0.07218 0.0
C5592 C 0.14326 0.71109 0.08379 0.0
C5593 C 0.1544 0.73364 0.07594 0.0
C5594 C 0.16111 0.72556 0.08377 0.0
C5595 C 0.16185 0.70671 0.09664 0.0
C5596 C 0.1561 0.69571 0.10116 0.0
C5597 C 0.15553 0.7144 0.08799 0.0
C5598 C 0.14413 0.69223 0.09649 0.0
C5599 C 0.13777 0.69985 0.08791 0.0
H5600 H 0.07919 0.37868 0.78888 0.0
H5601 H 0.07594 0.41695 0.8018 0.0
H5602 H 0.09728 0.41607 0.8106 0.0
H5603 H 0.11703 0.40432 0.81467 0.0
H5604 H 0.12038 0.36648 0.80073 0.0
H5605 H 0.09893 0.36731 0.79223 0.0
C5606 C 0.08317 0.3869 0.79349 0.0
C5607 C 0.07589 0.39786 0.79466 0.0
C5608 C 0.0955 0.38638 0.79839 0.0
C5609 C 0.0812 0.40832 0.8009 0.0
C5610 C 0.09346 0.40785 0.80588 0.0
C5611 C 0.113 0.39629 0.80977 0.0
C5612 C 0.12023 0.38535 0.80832 0.0
C5613 C 0.10069 0.39691 0.80473 0.0
C5614 C 0.115 0.37502 0.80187 0.0
C5615 C 0.10274 0.37548 0.79704 0.0
H5616 H 0.36559 0.2937 0.5592 0.0
H5617 H 0.39137 0.27686 0.58554 0.0
H5618 H 0.3849 0.29182 0.60172 0.0
H5619 H 0.37324 0.31081 0.6078 0.0
H5620 H 0.34744 0.32752 0.58135 0.0
H5621 H 0.35272 0.31157 0.56577 0.0
C5622 C 0.36983 0.29332 0.56847 0.0
C5623 C 0.37909 0.28427 0.57107 0.0
C5624 C 0.36613 0.30198 0.57769 0.0
C5625 C 0.38424 0.28372 0.58325 0.0
C5626 C 0.38057 0.29231 0.5925 0.0
C5627 C 0.36855 0.31081 0.59873 0.0
C5628 C 0.36005 0.32047 0.59573 0.0
C5629 C 0.37167 0.30161 0.58977 0.0
C5630 C 0.35418 0.32036 0.58386 0.0
C5631 C 0.35718 0.31122 0.57494 0.0
H5632 H 0.21857 0.43576 0.39946 0.0
H5633 H 0.1861 0.45235 0.38181 0.0
H5634 H 0.17834 0.43161 0.3755 0.0
H5635 H 0.18042 0.40883 0.37542 0.0
H5636 H 0.2123 0.39173 0.39377 0.0
H5637 H 0.22073 0.41248 0.3992 0.0
C5638 C 0.20988 0.43476 0.39413 0.0
C5639 C 0.2029 0.44551 0.39103 0.0
C5640 C 0.20535 0.42272 0.39069 0.0
C5641 C 0.1916 0.44417 0.38423 0.0
C5642 C 0.18716 0.43233 0.38067 0.0
C5643 C 0.18914 0.40959 0.38074 0.0
C5644 C 0.19561 0.39865 0.38423 0.0
C5645 C 0.19386 0.42154 0.38396 0.0
C5646 C 0.2071 0.39994 0.39085 0.0
C5647 C 0.21192 0.41183 0.39402 0.0
H5648 H 0.71511 0.07204 0.64 0.0
H5649 H 0.6973 0.07047 0.60351 0.0
H5650 H 0.69119 0.09236 0.60545 0.0
H5651 H 0.68928 0.11153 0.61819 0.0
H5652 H 0.70785 0.11376 0.65419 0.0
H5653 H 0.71543 0.09222 0.65169 0.0
C5654 C 0.71011 0.07655 0.63237 0.0
C5655 C 0.70638 0.06944 0.62177 0.0
C5656 C 0.70664 0.08928 0.6335 0.0
C5657 C 0.69997 0.07554 0.61196 0.0
C5658 C 0.69649 0.0881 0.61303 0.0
C5659 C 0.69503 0.1073 0.62545 0.0
C5660 C 0.69783 0.11415 0.63643 0.0
C5661 C 0.69944 0.09496 0.6239 0.0
C5662 C 0.70552 0.10865 0.64566 0.0
C5663 C 0.70983 0.09632 0.64425 0.0
H5664 H 0.74514 0.93858 0.36922 0.0
H5665 H 0.716 0.96667 0.37121 0.0
H5666 H 0.70093 0.95204 0.36189 0.0
H5667 H 0.69603 0.93154 0.35248 0.0
H5668 H 0.72451 0.90274 0.3523 0.0
H5669 H 0.73968 0.91737 0.36159 0.0
C5670 C 0.73546 0.94149 0.36784 0.0
C5671 C 0.7319 0.95391 0.37075 0.0
C5672 C 0.72666 0.9329 0.36267 0.0
C5673 C 0.71924 0.95738 0.36874 0.0
C5674 C 0.71052 0.94895 0.36349 0.0
C5675 C 0.70548 0.92835 0.35462 0.0
C5676 C 0.70905 0.91602 0.35146 0.0
C5677 C 0.71415 0.93674 0.36027 0.0
C5678 C 0.72148 0.91223 0.35424 0.0
C5679 C 0.73018 0.92058 0.3597 0.0
H5680 H 0.79204 0.93879 0.11015 0.0
H5681 H 0.81924 0.96199 0.12983 0.0
H5682 H 0.83089 0.94346 0.13616 0.0
H5683 H 0.83368 0.92092 0.13597 0.0
H5684 H 0.80806 0.89728 0.11474 0.0
H5685 H 0.79514 0.91557 0.10979 0.0
C5686 C 0.80051 0.93974 0.11584 0.0
C5687 C 0.80483 0.95181 0.11939 0.0
C5688 C 0.80735 0.92895 0.11935 0.0
C5689 C 0.81582 0.95288 0.12677 0.0
C5690 C 0.82245 0.94226 0.13049 0.0
C5691 C 0.8254 0.91968 0.13007 0.0
C5692 C 0.82209 0.90764 0.12557 0.0
C5693 C 0.81837 0.93029 0.12675 0.0
C5694 C 0.81092 0.90634 0.11843 0.0
C5695 C 0.80357 0.91686 0.11545 0.0
H5696 H 0.26722 0.56939 0.36331 0.0
H5697 H 0.29609 0.54545 0.3786 0.0
H5698 H 0.3124 0.55967 0.37105 0.0
H5699 H 0.31856 0.57869 0.3601 0.0
H5700 H 0.29007 0.6026 0.34403 0.0
H5701 H 0.27357 0.5888 0.35217 0.0
C5702 C 0.27708 0.56736 0.36508 0.0
C5703 C 0.2804 0.55627 0.37143 0.0
C5704 C 0.2865 0.57557 0.36058 0.0
C5705 C 0.29324 0.55378 0.37358 0.0
C5706 C 0.30259 0.56193 0.36929 0.0
C5707 C 0.30877 0.58081 0.35809 0.0
C5708 C 0.30567 0.59165 0.35125 0.0
C5709 C 0.29934 0.57277 0.36266 0.0
C5710 C 0.29283 0.59437 0.34925 0.0
C5711 C 0.28336 0.58644 0.35389 0.0
H5712 H 0.29163 0.57722 0.8992 0.0
H5713 H 0.32298 0.55389 0.8885 0.0
H5714 H 0.33515 0.57237 0.88285 0.0
H5715 H 0.33708 0.59496 0.88076 0.0
H5716 H 0.30669 0.61895 0.8926 0.0
H5717 H 0.2938 0.60045 0.89734 0.0
C5718 C 0.30112 0.57621 0.89562 0.0
C5719 C 0.30639 0.56411 0.89443 0.0
C5720 C 0.3082 0.58699 0.89238 0.0
C5721 C 0.31873 0.56302 0.88978 0.0
C5722 C 0.32569 0.5736 0.88642 0.0
C5723 C 0.32771 0.59625 0.88456 0.0
C5724 C 0.32303 0.60846 0.88646 0.0
C5725 C 0.32055 0.58561 0.88771 0.0
C5726 C 0.31062 0.60975 0.89093 0.0
C5727 C 0.30326 0.59914 0.89378 0.0
H5728 H 0.72053 0.06633 0.13062 0.0
H5729 H 0.75032 0.06639 0.15825 0.0
H5730 H 0.73791 0.08002 0.17195 0.0
H5731 H 0.71905 0.09281 0.17557 0.0
H5732 H 0.68908 0.09268 0.14802 0.0
H5733 H 0.70084 0.07793 0.13503 0.0
C5734 C 0.72416 0.0692 0.13974 0.0
C5735 C 0.73625 0.06537 0.14351 0.0
C5736 C 0.71692 0.077 0.14759 0.0
C5737 C 0.74095 0.06915 0.15527 0.0
C5738 C 0.73389 0.07698 0.16306 0.0
C5739 C 0.71508 0.08955 0.16673 0.0
C5740 C 0.70321 0.09395 0.16277 0.0
C5741 C 0.72194 0.08112 0.15924 0.0
C5742 C 0.69813 0.0894 0.15139 0.0
C5743 C 0.7049 0.08103 0.14388 0.0
H5744 H 0.76768 0.93948 0.64856 0.0
H5745 H 0.79733 0.96748 0.64868 0.0
H5746 H 0.81186 0.95248 0.65776 0.0
H5747 H 0.81609 0.9317 0.66645 0.0
H5748 H 0.78739 0.90284 0.66355 0.0
H5749 H 0.77272 0.91793 0.65486 0.0
C5750 C 0.77736 0.94233 0.65032 0.0
C5751 C 0.78115 0.95485 0.64815 0.0
C5752 C 0.7859 0.9335 0.65524 0.0
C5753 C 0.79383 0.95815 0.65064 0.0
C5754 C 0.80226 0.9495 0.65576 0.0
C5755 C 0.80673 0.92855 0.66376 0.0
C5756 C 0.80295 0.91605 0.66602 0.0
C5757 C 0.79837 0.93719 0.65825 0.0
C5758 C 0.7906 0.91242 0.66247 0.0
C5759 C 0.78217 0.92105 0.6573 0.0
loop_
_geom_bond_atom_site_label_1
_geom_bond_atom_site_label_2
_geom_bond_distance
_geom_bond_site_symmetry_2
_ccdc_geom_bond_type
C0 C1 1.264 . S
C0 C5 1.479 . S
C0 C10 1.465 . S
C1 C0 1.264 . S
C1 C3 1.339 . S
C1 H28 0.931 . S
C2 C3 1.395 . S
C2 C4 1.320 . S
C3 C1 1.339 . S
C3 C2 1.395 . S
C3 H29 0.929 . S
C4 C2 1.320 . S
C4 C5 1.405 . S
C4 H30 0.930 . S
C5 C0 1.479 . S
C5 C4 1.405 . S
C5 H31 0.931 . S
U6 O7 2.454 . S
U6 O8 2.458 . S
U6 C9 2.984 . S
U6 C10 2.847 1_455 S
U6 C23 2.882 . S
U6 O24 2.441 1_455 S
U6 O25 2.420 . S
U6 O26 2.455 . S
U6 O27 2.449 . S
O7 U6 2.454 . S
O7 C9 1.353 . S
O8 U6 2.458 . S
O8 C9 1.286 . S
C9 U6 2.984 . S
C9 O7 1.353 . S
C9 O8 1.286 . S
C9 C11 1.363 . S
C10 C0 1.465 . S
C10 U6 2.847 1_655 S
C10 O24 1.249 . S
C10 O25 1.202 1_655 S
C11 C9 1.363 . S
C11 C13 1.408 . S
C11 C16 1.342 . S
C12 C13 1.310 . S
C12 C15 1.461 . S
C12 H32 0.932 . S
C13 C11 1.408 . S
C13 C12 1.310 . S
C13 H33 0.930 . S
C14 C15 1.474 . S
C14 C16 1.285 . S
C14 H34 0.929 . S
C15 C12 1.461 . S
C15 C14 1.474 . S
C16 C11 1.342 . S
C16 C14 1.285 . S
C16 H35 0.930 . S
C17 C20 1.424 . S
C17 C22 1.245 . S
C17 C23 1.428 . S
C18 C21 1.260 . S
C18 C22 1.477 . S
C18 H36 0.932 . S
C19 C20 1.384 . S
C19 C21 1.479 . S
C19 H37 0.929 . S
C20 C17 1.424 . S
C20 C19 1.384 . S
C20 H38 0.928 . S
C21 C18 1.260 . S
C21 C19 1.479 . S
C22 C17 1.245 . S
C22 C18 1.477 . S
C22 H39 0.932 . S
C23 U6 2.882 . S
C23 C17 1.428 . S
C23 O26 1.301 . S
C23 O27 1.282 . S
O24 U6 2.441 1_655 S
O24 C10 1.249 . S
O25 U6 2.420 . S
O25 C10 1.202 1_455 S
O26 U6 2.455 . S
O26 C23 1.301 . S
O27 U6 2.449 . S
O27 C23 1.282 . S
H28 C1 0.931 . S
H29 C3 0.929 . S
H30 C4 0.930 . S
H31 C5 0.931 . S
H32 C12 0.932 . S
H33 C13 0.930 . S
H34 C14 0.929 . S
H35 C16 0.930 . S
H36 C18 0.932 . S
H37 C19 0.929 . S
H38 C20 0.928 . S
H39 C22 0.932 . S
C40 C41 1.264 . S
C40 C45 1.479 . S
C40 C50 1.465 . S
C41 C40 1.264 . S
C41 C43 1.339 . S
C41 H68 0.931 . S
C42 C43 1.395 . S
C42 C44 1.320 . S
C43 C41 1.339 . S
C43 C42 1.395 . S
C43 H69 0.929 . S
C44 C42 1.320 . S
C44 C45 1.405 . S
C44 H70 0.930 . S
C45 C40 1.479 . S
C45 C44 1.405 . S
C45 H71 0.931 . S
U46 O47 2.454 . S
U46 O48 2.458 . S
U46 C49 2.984 . S
U46 C50 2.847 . S
U46 C63 2.882 . S
U46 O64 2.441 . S
U46 O65 2.420 . S
U46 O66 2.455 . S
U46 O67 2.449 . S
O47 U46 2.454 . S
O47 C49 1.353 . S
O48 U46 2.458 . S
O48 C49 1.286 . S
C49 U46 2.984 . S
C49 O47 1.353 . S
C49 O48 1.286 . S
C49 C51 1.363 . S
C50 C40 1.465 . S
C50 U46 2.847 . S
C50 O64 1.249 . S
C50 O65 1.202 . S
C51 C49 1.363 . S
C51 C53 1.408 . S
C51 C56 1.342 . S
C52 C53 1.310 . S
C52 C55 1.461 . S
C52 H72 0.932 . S
C53 C51 1.408 . S
C53 C52 1.310 . S
C53 H73 0.930 . S
C54 C55 1.474 . S
C54 C56 1.285 . S
C54 H74 0.929 . S
C55 C52 1.461 . S
C55 C54 1.474 . S
C56 C51 1.342 . S
C56 C54 1.285 . S
C56 H75 0.930 . S
C57 C60 1.424 . S
C57 C62 1.245 . S
C57 C63 1.428 . S
C58 C61 1.260 . S
C58 C62 1.477 . S
C58 H76 0.932 . S
C59 C60 1.384 . S
C59 C61 1.479 . S
C59 H77 0.929 . S
C60 C57 1.424 . S
C60 C59 1.384 . S
C60 H78 0.928 . S
C61 C58 1.260 . S
C61 C59 1.479 . S
C62 C57 1.245 . S
C62 C58 1.477 . S
C62 H79 0.932 . S
C63 U46 2.882 . S
C63 C57 1.428 . S
C63 O66 1.301 . S
C63 O67 1.282 . S
O64 U46 2.441 . S
O64 C50 1.249 . S
O65 U46 2.420 . S
O65 C50 1.202 . S
O66 U46 2.455 . S
O66 C63 1.301 . S
O67 U46 2.449 . S
O67 C63 1.282 . S
H68 C41 0.931 . S
H69 C43 0.929 . S
H70 C44 0.930 . S
H71 C45 0.931 . S
H72 C52 0.932 . S
H73 C53 0.930 . S
H74 C54 0.929 . S
H75 C56 0.930 . S
H76 C58 0.932 . S
H77 C59 0.929 . S
H78 C60 0.928 . S
H79 C62 0.932 . S
C80 C81 1.264 . S
C80 C85 1.479 . S
C80 C90 1.465 . S
C81 C80 1.264 . S
C81 C83 1.339 . S
C81 H108 0.931 . S
C82 C83 1.395 . S
C82 C84 1.320 . S
C83 C81 1.339 . S
C83 C82 1.395 . S
C83 H109 0.929 . S
C84 C82 1.320 . S
C84 C85 1.405 . S
C84 H110 0.930 . S
C85 C80 1.479 . S
C85 C84 1.405 . S
C85 H111 0.931 . S
U86 O87 2.454 . S
U86 O88 2.458 . S
U86 C89 2.984 . S
U86 C90 2.847 . S
U86 C103 2.882 . S
U86 O104 2.441 . S
U86 O105 2.420 . S
U86 O106 2.455 . S
U86 O107 2.449 . S
O87 U86 2.454 . S
O87 C89 1.353 . S
O88 U86 2.458 . S
O88 C89 1.286 . S
C89 U86 2.984 . S
C89 O87 1.353 . S
C89 O88 1.286 . S
C89 C91 1.363 . S
C90 C80 1.465 . S
C90 U86 2.847 . S
C90 O104 1.249 . S
C90 O105 1.202 . S
C91 C89 1.363 . S
C91 C93 1.408 . S
C91 C96 1.342 . S
C92 C93 1.310 . S
C92 C95 1.461 . S
C92 H112 0.932 . S
C93 C91 1.408 . S
C93 C92 1.310 . S
C93 H113 0.930 . S
C94 C95 1.474 . S
C94 C96 1.285 . S
C94 H114 0.929 . S
C95 C92 1.461 . S
C95 C94 1.474 . S
C96 C91 1.342 . S
C96 C94 1.285 . S
C96 H115 0.930 . S
C97 C100 1.424 . S
C97 C102 1.245 . S
C97 C103 1.428 . S
C98 C101 1.260 . S
C98 C102 1.477 . S
C98 H116 0.932 . S
C99 C100 1.384 . S
C99 C101 1.479 . S
C99 H117 0.929 . S
C100 C97 1.424 . S
C100 C99 1.384 . S
C100 H118 0.928 . S
C101 C98 1.260 . S
C101 C99 1.479 . S
C102 C97 1.245 . S
C102 C98 1.477 . S
C102 H119 0.932 . S
C103 U86 2.882 . S
C103 C97 1.428 . S
C103 O106 1.301 . S
C103 O107 1.282 . S
O104 U86 2.441 . S
O104 C90 1.249 . S
O105 U86 2.420 . S
O105 C90 1.202 . S
O106 U86 2.455 . S
O106 C103 1.301 . S
O107 U86 2.449 . S
O107 C103 1.282 . S
H108 C81 0.931 . S
H109 C83 0.929 . S
H110 C84 0.930 . S
H111 C85 0.931 . S
H112 C92 0.932 . S
H113 C93 0.930 . S
H114 C94 0.929 . S
H115 C96 0.930 . S
H116 C98 0.932 . S
H117 C99 0.929 . S
H118 C100 0.928 . S
H119 C102 0.932 . S
C120 C121 1.264 . S
C120 C125 1.479 . S
C120 C130 1.465 . S
C121 C120 1.264 . S
C121 C123 1.339 . S
C121 H148 0.931 . S
C122 C123 1.395 . S
C122 C124 1.320 . S
C123 C121 1.339 . S
C123 C122 1.395 . S
C123 H149 0.929 . S
C124 C122 1.320 . S
C124 C125 1.405 . S
C124 H150 0.930 . S
C125 C120 1.479 . S
C125 C124 1.405 . S
C125 H151 0.931 . S
U126 O127 2.454 . S
U126 O128 2.458 . S
U126 C129 2.984 . S
U126 C130 2.847 . S
U126 C143 2.882 . S
U126 O144 2.441 . S
U126 O145 2.420 . S
U126 O146 2.455 . S
U126 O147 2.449 . S
O127 U126 2.454 . S
O127 C129 1.353 . S
O128 U126 2.458 . S
O128 C129 1.286 . S
C129 U126 2.984 . S
C129 O127 1.353 . S
C129 O128 1.286 . S
C129 C131 1.363 . S
C130 C120 1.465 . S
C130 U126 2.847 . S
C130 O144 1.249 . S
C130 O145 1.202 . S
C131 C129 1.363 . S
C131 C133 1.408 1_554 S
C131 C136 1.342 . S
C132 C133 1.310 . S
C132 C135 1.461 . S
C132 H152 0.932 . S
C133 C131 1.408 1_556 S
C133 C132 1.310 . S
C133 H153 0.930 . S
C134 C135 1.474 . S
C134 C136 1.285 1_556 S
C134 H154 0.929 . S
C135 C132 1.461 . S
C135 C134 1.474 . S
C136 C131 1.342 . S
C136 C134 1.285 1_554 S
C136 H155 0.930 . S
C137 C140 1.424 . S
C137 C142 1.245 . S
C137 C143 1.428 . S
C138 C141 1.260 . S
C138 C142 1.477 . S
C138 H156 0.932 . S
C139 C140 1.384 . S
C139 C141 1.479 . S
C139 H157 0.929 . S
C140 C137 1.424 . S
C140 C139 1.384 . S
C140 H158 0.928 . S
C141 C138 1.260 . S
C141 C139 1.479 . S
C142 C137 1.245 . S
C142 C138 1.477 . S
C142 H159 0.932 . S
C143 U126 2.882 . S
C143 C137 1.428 . S
C143 O146 1.301 . S
C143 O147 1.282 . S
O144 U126 2.441 . S
O144 C130 1.249 . S
O145 U126 2.420 . S
O145 C130 1.202 . S
O146 U126 2.455 . S
O146 C143 1.301 . S
O147 U126 2.449 . S
O147 C143 1.282 . S
H148 C121 0.931 . S
H149 C123 0.929 . S
H150 C124 0.930 . S
H151 C125 0.931 . S
H152 C132 0.932 . S
H153 C133 0.930 . S
H154 C134 0.929 . S
H155 C136 0.930 . S
H156 C138 0.932 . S
H157 C139 0.929 . S
H158 C140 0.928 . S
H159 C142 0.932 . S
C160 C161 1.264 . S
C160 C165 1.479 . S
C160 C170 1.465 . S
C161 C160 1.264 . S
C161 C163 1.339 . S
C161 H188 0.931 . S
C162 C163 1.395 . S
C162 C164 1.320 . S
C163 C161 1.339 . S
C163 C162 1.395 . S
C163 H189 0.929 . S
C164 C162 1.320 . S
C164 C165 1.405 . S
C164 H190 0.930 . S
C165 C160 1.479 . S
C165 C164 1.405 . S
C165 H191 0.931 . S
U166 O167 2.454 . S
U166 O168 2.458 . S
U166 C169 2.984 . S
U166 C170 2.847 1_455 S
U166 C183 2.882 . S
U166 O184 2.440 1_455 S
U166 O185 2.420 . S
U166 O186 2.455 . S
U166 O187 2.449 . S
O167 U166 2.454 . S
O167 C169 1.353 . S
O168 U166 2.458 . S
O168 C169 1.286 . S
C169 U166 2.984 . S
C169 O167 1.353 . S
C169 O168 1.286 . S
C169 C171 1.363 . S
C170 C160 1.465 . S
C170 U166 2.847 1_655 S
C170 O184 1.249 . S
C170 O185 1.202 1_655 S
C171 C169 1.363 . S
C171 C173 1.408 . S
C171 C176 1.342 . S
C172 C173 1.310 . S
C172 C175 1.461 . S
C172 H192 0.932 . S
C173 C171 1.408 . S
C173 C172 1.310 . S
C173 H193 0.930 . S
C174 C175 1.474 . S
C174 C176 1.285 . S
C174 H194 0.929 . S
C175 C172 1.461 . S
C175 C174 1.474 . S
C176 C171 1.342 . S
C176 C174 1.285 . S
C176 H195 0.930 . S
C177 C180 1.424 . S
C177 C182 1.245 . S
C177 C183 1.428 . S
C178 C181 1.260 . S
C178 C182 1.477 . S
C178 H196 0.932 . S
C179 C180 1.384 . S
C179 C181 1.479 . S
C179 H197 0.929 . S
C180 C177 1.424 . S
C180 C179 1.384 . S
C180 H198 0.928 . S
C181 C178 1.260 . S
C181 C179 1.479 . S
C182 C177 1.245 . S
C182 C178 1.477 . S
C182 H199 0.932 . S
C183 U166 2.882 . S
C183 C177 1.428 . S
C183 O186 1.301 . S
C183 O187 1.282 . S
O184 U166 2.440 1_655 S
O184 C170 1.249 . S
O185 U166 2.420 . S
O185 C170 1.202 1_455 S
O186 U166 2.455 . S
O186 C183 1.301 . S
O187 U166 2.449 . S
O187 C183 1.282 . S
H188 C161 0.931 . S
H189 C163 0.929 . S
H190 C164 0.930 . S
H191 C165 0.931 . S
H192 C172 0.932 . S
H193 C173 0.930 . S
H194 C174 0.929 . S
H195 C176 0.930 . S
H196 C178 0.932 . S
H197 C179 0.929 . S
H198 C180 0.928 . S
H199 C182 0.932 . S
C200 C201 1.264 . S
C200 C205 1.479 . S
C200 C210 1.465 . S
C201 C200 1.264 . S
C201 C203 1.339 . S
C201 H228 0.931 . S
C202 C203 1.395 . S
C202 C204 1.320 . S
C203 C201 1.339 . S
C203 C202 1.395 . S
C203 H229 0.929 . S
C204 C202 1.320 . S
C204 C205 1.405 . S
C204 H230 0.930 . S
C205 C200 1.479 . S
C205 C204 1.405 . S
C205 H231 0.931 . S
U206 O207 2.454 . S
U206 O208 2.458 . S
U206 C209 2.984 . S
U206 C210 2.847 . S
U206 C223 2.882 . S
U206 O224 2.441 . S
U206 O225 2.420 . S
U206 O226 2.455 . S
U206 O227 2.449 . S
O207 U206 2.454 . S
O207 C209 1.353 . S
O208 U206 2.458 . S
O208 C209 1.286 . S
C209 U206 2.984 . S
C209 O207 1.353 . S
C209 O208 1.286 . S
C209 C211 1.363 . S
C210 C200 1.465 . S
C210 U206 2.847 . S
C210 O224 1.249 . S
C210 O225 1.202 . S
C211 C209 1.363 . S
C211 C213 1.408 . S
C211 C216 1.342 . S
C212 C213 1.310 . S
C212 C215 1.461 . S
C212 H232 0.932 . S
C213 C211 1.408 . S
C213 C212 1.310 . S
C213 H233 0.930 . S
C214 C215 1.474 . S
C214 C216 1.285 . S
C214 H234 0.929 . S
C215 C212 1.461 . S
C215 C214 1.474 . S
C216 C211 1.342 . S
C216 C214 1.285 . S
C216 H235 0.930 . S
C217 C220 1.424 . S
C217 C222 1.245 . S
C217 C223 1.428 . S
C218 C221 1.260 . S
C218 C222 1.477 . S
C218 H236 0.932 . S
C219 C220 1.384 . S
C219 C221 1.479 . S
C219 H237 0.929 . S
C220 C217 1.424 . S
C220 C219 1.384 . S
C220 H238 0.928 . S
C221 C218 1.260 . S
C221 C219 1.479 . S
C222 C217 1.245 . S
C222 C218 1.477 . S
C222 H239 0.932 . S
C223 U206 2.882 . S
C223 C217 1.428 . S
C223 O226 1.301 . S
C223 O227 1.282 . S
O224 U206 2.441 . S
O224 C210 1.249 . S
O225 U206 2.420 . S
O225 C210 1.202 . S
O226 U206 2.455 . S
O226 C223 1.301 . S
O227 U206 2.449 . S
O227 C223 1.282 . S
H228 C201 0.931 . S
H229 C203 0.929 . S
H230 C204 0.930 . S
H231 C205 0.931 . S
H232 C212 0.932 . S
H233 C213 0.930 . S
H234 C214 0.929 . S
H235 C216 0.930 . S
H236 C218 0.932 . S
H237 C219 0.929 . S
H238 C220 0.928 . S
H239 C222 0.932 . S
C240 C241 1.264 . S
C240 C245 1.479 . S
C240 C250 1.465 . S
C241 C240 1.264 . S
C241 C243 1.339 . S
C241 H268 0.931 . S
C242 C243 1.395 . S
C242 C244 1.320 . S
C243 C241 1.339 . S
C243 C242 1.395 . S
C243 H269 0.929 . S
C244 C242 1.320 . S
C244 C245 1.405 . S
C244 H270 0.930 . S
C245 C240 1.479 . S
C245 C244 1.405 . S
C245 H271 0.931 . S
U246 O247 2.454 . S
U246 O248 2.458 . S
U246 C249 2.984 . S
U246 C250 2.847 . S
U246 C263 2.882 . S
U246 O264 2.441 . S
U246 O265 2.420 . S
U246 O266 2.455 . S
U246 O267 2.449 . S
O247 U246 2.454 . S
O247 C249 1.353 . S
O248 U246 2.458 . S
O248 C249 1.286 . S
C249 U246 2.984 . S
C249 O247 1.353 . S
C249 O248 1.286 . S
C249 C251 1.363 . S
C250 C240 1.465 . S
C250 U246 2.847 . S
C250 O264 1.249 . S
C250 O265 1.202 . S
C251 C249 1.363 . S
C251 C253 1.408 . S
C251 C256 1.342 . S
C252 C253 1.310 . S
C252 C255 1.461 . S
C252 H272 0.932 . S
C253 C251 1.408 . S
C253 C252 1.310 . S
C253 H273 0.930 . S
C254 C255 1.474 . S
C254 C256 1.285 . S
C254 H274 0.929 . S
C255 C252 1.461 . S
C255 C254 1.474 . S
C256 C251 1.342 . S
C256 C254 1.285 . S
C256 H275 0.930 . S
C257 C260 1.424 . S
C257 C262 1.245 . S
C257 C263 1.428 . S
C258 C261 1.260 . S
C258 C262 1.477 . S
C258 H276 0.932 . S
C259 C260 1.384 . S
C259 C261 1.479 . S
C259 H277 0.929 . S
C260 C257 1.424 . S
C260 C259 1.384 . S
C260 H278 0.928 . S
C261 C258 1.260 . S
C261 C259 1.479 . S
C262 C257 1.245 . S
C262 C258 1.477 . S
C262 H279 0.932 . S
C263 U246 2.882 . S
C263 C257 1.428 . S
C263 O266 1.301 . S
C263 O267 1.282 . S
O264 U246 2.441 . S
O264 C250 1.249 . S
O265 U246 2.420 . S
O265 C250 1.202 . S
O266 U246 2.455 . S
O266 C263 1.301 . S
O267 U246 2.449 . S
O267 C263 1.282 . S
H268 C241 0.931 . S
H269 C243 0.929 . S
H270 C244 0.930 . S
H271 C245 0.931 . S
H272 C252 0.932 . S
H273 C253 0.930 . S
H274 C254 0.929 . S
H275 C256 0.930 . S
H276 C258 0.932 . S
H277 C259 0.929 . S
H278 C260 0.928 . S
H279 C262 0.932 . S
C280 C281 1.264 . S
C280 C285 1.479 . S
C280 C290 1.465 1_554 S
C281 C280 1.264 . S
C281 C283 1.339 . S
C281 H308 0.931 1_554 S
C282 C283 1.395 . S
C282 C284 1.320 . S
C283 C281 1.339 . S
C283 C282 1.395 . S
C283 H309 0.929 . S
C284 C282 1.320 . S
C284 C285 1.405 . S
C284 H310 0.930 . S
C285 C280 1.479 . S
C285 C284 1.405 . S
C285 H311 0.931 . S
U286 O287 2.454 . S
U286 O288 2.458 . S
U286 C289 2.984 . S
U286 C290 2.847 . S
U286 C303 2.882 . S
U286 O304 2.441 . S
U286 O305 2.420 . S
U286 O306 2.455 . S
U286 O307 2.449 . S
O287 U286 2.454 . S
O287 C289 1.353 . S
O288 U286 2.458 . S
O288 C289 1.286 . S
C289 U286 2.984 . S
C289 O287 1.353 . S
C289 O288 1.286 . S
C289 C291 1.363 . S
C290 C280 1.465 1_556 S
C290 U286 2.847 . S
C290 O304 1.249 . S
C290 O305 1.202 . S
C291 C289 1.363 . S
C291 C293 1.408 . S
C291 C296 1.342 . S
C292 C293 1.310 . S
C292 C295 1.461 . S
C292 H312 0.932 . S
C293 C291 1.408 . S
C293 C292 1.310 . S
C293 H313 0.930 . S
C294 C295 1.474 . S
C294 C296 1.285 . S
C294 H314 0.929 . S
C295 C292 1.461 . S
C295 C294 1.474 . S
C296 C291 1.342 . S
C296 C294 1.285 . S
C296 H315 0.930 . S
C297 C300 1.424 . S
C297 C302 1.245 . S
C297 C303 1.428 . S
C298 C301 1.260 . S
C298 C302 1.477 . S
C298 H316 0.932 . S
C299 C300 1.384 . S
C299 C301 1.479 . S
C299 H317 0.929 . S
C300 C297 1.424 . S
C300 C299 1.384 . S
C300 H318 0.928 . S
C301 C298 1.260 . S
C301 C299 1.479 . S
C302 C297 1.245 . S
C302 C298 1.477 . S
C302 H319 0.932 . S
C303 U286 2.882 . S
C303 C297 1.428 . S
C303 O306 1.301 . S
C303 O307 1.282 . S
O304 U286 2.441 . S
O304 C290 1.249 . S
O305 U286 2.420 . S
O305 C290 1.202 . S
O306 U286 2.455 . S
O306 C303 1.301 . S
O307 U286 2.449 . S
O307 C303 1.282 . S
H308 C281 0.931 1_556 S
H309 C283 0.929 . S
H310 C284 0.930 . S
H311 C285 0.931 . S
H312 C292 0.932 . S
H313 C293 0.930 . S
H314 C294 0.929 . S
H315 C296 0.930 . S
H316 C298 0.932 . S
H317 C299 0.929 . S
H318 C300 0.928 . S
H319 C302 0.932 . S
C320 C321 1.264 . S
C320 C325 1.479 . S
C320 C330 1.465 . S
C321 C320 1.264 . S
C321 C323 1.339 . S
C321 H348 0.931 . S
C322 C323 1.395 . S
C322 C324 1.320 . S
C323 C321 1.339 . S
C323 C322 1.395 . S
C323 H349 0.929 . S
C324 C322 1.320 . S
C324 C325 1.405 . S
C324 H350 0.930 . S
C325 C320 1.479 . S
C325 C324 1.405 . S
C325 H351 0.931 . S
U326 O327 2.454 . S
U326 O328 2.458 . S
U326 C329 2.984 . S
U326 C330 2.847 . S
U326 C343 2.882 . S
U326 O344 2.441 . S
U326 O345 2.420 . S
U326 O346 2.455 . S
U326 O347 2.449 . S
O327 U326 2.454 . S
O327 C329 1.353 . S
O328 U326 2.458 . S
O328 C329 1.286 . S
C329 U326 2.984 . S
C329 O327 1.353 . S
C329 O328 1.286 . S
C329 C331 1.363 1_545 S
C330 C320 1.465 . S
C330 U326 2.847 . S
C330 O344 1.249 . S
C330 O345 1.202 . S
C331 C329 1.363 1_565 S
C331 C333 1.408 . S
C331 C336 1.342 . S
C332 C333 1.310 . S
C332 C335 1.461 . S
C332 H352 0.932 . S
C333 C331 1.408 . S
C333 C332 1.310 . S
C333 H353 0.930 . S
C334 C335 1.474 . S
C334 C336 1.285 . S
C334 H354 0.929 . S
C335 C332 1.461 . S
C335 C334 1.474 . S
C336 C331 1.342 . S
C336 C334 1.285 . S
C336 H355 0.854 1_565 S
C337 C340 1.424 . S
C337 C342 1.245 . S
C337 C343 1.428 . S
C338 C341 1.260 . S
C338 C342 1.477 . S
C338 H356 0.932 . S
C339 C340 1.384 . S
C339 C341 1.479 . S
C339 H357 0.929 . S
C340 C337 1.424 . S
C340 C339 1.384 . S
C340 H358 0.928 . S
C341 C338 1.260 . S
C341 C339 1.479 . S
C342 C337 1.245 . S
C342 C338 1.477 . S
C342 H359 0.932 . S
C343 U326 2.882 . S
C343 C337 1.428 . S
C343 O346 1.301 . S
C343 O347 1.282 . S
O344 U326 2.441 . S
O344 C330 1.249 . S
O345 U326 2.420 . S
O345 C330 1.202 . S
O346 U326 2.455 . S
O346 C343 1.301 . S
O347 U326 2.449 . S
O347 C343 1.282 . S
H348 C321 0.931 . S
H349 C323 0.929 . S
H350 C324 0.930 . S
H351 C325 0.931 . S
H352 C332 0.932 . S
H353 C333 0.930 . S
H354 C334 0.929 . S
H355 C336 0.854 1_545 S
H356 C338 0.932 . S
H357 C339 0.929 . S
H358 C340 0.928 . S
H359 C342 0.932 . S
C360 C361 1.264 . S
C360 C365 1.479 . S
C360 C370 1.465 1_565 S
C361 C360 1.264 . S
C361 C363 1.339 . S
C361 H388 0.931 1_565 S
C362 C363 1.395 . S
C362 C364 1.320 . S
C363 C361 1.339 . S
C363 C362 1.395 . S
C363 H389 0.929 . S
C364 C362 1.320 . S
C364 C365 1.405 . S
C364 H390 0.930 . S
C365 C360 1.479 . S
C365 C364 1.405 . S
C365 H391 0.931 . S
U366 O367 2.454 . S
U366 O368 2.458 . S
U366 C369 2.984 . S
U366 C370 2.847 . S
U366 C383 2.882 . S
U366 O384 2.441 . S
U366 O385 2.420 . S
U366 O386 2.455 . S
U366 O387 2.449 . S
O367 U366 2.454 . S
O367 C369 1.353 . S
O368 U366 2.458 . S
O368 C369 1.286 . S
C369 U366 2.984 . S
C369 O367 1.353 . S
C369 O368 1.286 . S
C369 C371 1.363 . S
C370 C360 1.465 1_545 S
C370 U366 2.847 . S
C370 O384 1.249 . S
C370 O385 1.202 . S
C371 C369 1.363 . S
C371 C373 1.408 . S
C371 C376 1.342 . S
C372 C373 1.310 . S
C372 C375 1.461 . S
C372 H392 0.932 . S
C373 C371 1.408 . S
C373 C372 1.310 . S
C373 H393 0.930 . S
C374 C375 1.474 . S
C374 C376 1.285 . S
C374 H394 0.929 . S
C375 C372 1.461 . S
C375 C374 1.474 . S
C376 C371 1.342 . S
C376 C374 1.285 . S
C376 H395 0.930 . S
C377 C380 1.424 . S
C377 C382 1.245 . S
C377 C383 1.428 . S
C378 C381 1.260 . S
C378 C382 1.477 . S
C378 H396 0.932 . S
C379 C380 1.384 . S
C379 C381 1.479 . S
C379 H397 0.929 . S
C380 C377 1.424 . S
C380 C379 1.384 . S
C380 H398 0.928 . S
C381 C378 1.260 . S
C381 C379 1.479 . S
C382 C377 1.245 . S
C382 C378 1.477 . S
C382 H399 0.932 . S
C383 U366 2.882 . S
C383 C377 1.428 . S
C383 O386 1.301 . S
C383 O387 1.282 . S
O384 U366 2.441 . S
O384 C370 1.249 . S
O385 U366 2.420 . S
O385 C370 1.202 . S
O386 U366 2.455 . S
O386 C383 1.301 . S
O387 U366 2.449 . S
O387 C383 1.282 . S
H388 C361 0.931 1_545 S
H389 C363 0.929 . S
H390 C364 0.930 . S
H391 C365 0.931 . S
H392 C372 0.932 . S
H393 C373 0.930 . S
H394 C374 0.929 . S
H395 C376 0.930 . S
H396 C378 0.932 . S
H397 C379 0.929 . S
H398 C380 0.928 . S
H399 C382 0.932 . S
C400 C401 1.264 . S
C400 C405 1.479 . S
C400 C410 1.465 1_545 S
C401 C400 1.264 . S
C401 C403 1.339 . S
C401 H428 0.931 1_545 S
C402 C403 1.395 . S
C402 C404 1.320 . S
C403 C401 1.339 . S
C403 C402 1.395 . S
C403 H429 0.929 . S
C404 C402 1.320 . S
C404 C405 1.405 . S
C404 H430 0.930 . S
C405 C400 1.479 . S
C405 C404 1.405 . S
C405 H431 0.931 . S
U406 O407 2.454 . S
U406 O408 2.458 . S
U406 C409 2.984 . S
U406 C410 2.847 . S
U406 C423 2.882 . S
U406 O424 2.441 . S
U406 O425 2.420 . S
U406 O426 2.455 . S
U406 O427 2.449 . S
O407 U406 2.454 . S
O407 C409 1.353 . S
O408 U406 2.458 . S
O408 C409 1.286 . S
C409 U406 2.984 . S
C409 O407 1.353 . S
C409 O408 1.286 . S
C409 C411 1.363 . S
C410 C400 1.465 1_565 S
C410 U406 2.847 . S
C410 O424 1.249 . S
C410 O425 1.202 . S
C411 C409 1.363 . S
C411 C413 1.408 . S
C411 C416 1.342 . S
C412 C413 1.310 . S
C412 C415 1.461 . S
C412 H432 0.932 . S
C413 C411 1.408 . S
C413 C412 1.310 . S
C413 H433 0.930 . S
C414 C415 1.474 . S
C414 C416 1.285 . S
C414 H434 0.929 . S
C415 C412 1.461 . S
C415 C414 1.474 . S
C416 C411 1.342 . S
C416 C414 1.285 . S
C416 H435 0.930 . S
C417 C420 1.424 . S
C417 C422 1.245 . S
C417 C423 1.428 . S
C418 C421 1.260 . S
C418 C422 1.477 . S
C418 H436 0.932 . S
C419 C420 1.384 . S
C419 C421 1.479 . S
C419 H437 0.929 . S
C420 C417 1.424 . S
C420 C419 1.384 . S
C420 H438 0.928 . S
C421 C418 1.260 . S
C421 C419 1.479 . S
C422 C417 1.245 . S
C422 C418 1.477 . S
C422 H439 0.932 . S
C423 U406 2.882 . S
C423 C417 1.428 . S
C423 O426 1.301 . S
C423 O427 1.282 . S
O424 U406 2.441 . S
O424 C410 1.249 . S
O425 U406 2.420 . S
O425 C410 1.202 . S
O426 U406 2.455 . S
O426 C423 1.301 . S
O427 U406 2.449 . S
O427 C423 1.282 . S
H428 C401 0.931 1_565 S
H429 C403 0.929 . S
H430 C404 0.930 . S
H431 C405 0.931 . S
H432 C412 0.932 . S
H433 C413 0.930 . S
H434 C414 0.929 . S
H435 C416 0.930 . S
H436 C418 0.932 . S
H437 C419 0.929 . S
H438 C420 0.928 . S
H439 C422 0.932 . S
C440 C441 1.264 . S
C440 C445 1.479 . S
C440 C450 1.465 . S
C441 C440 1.264 . S
C441 C443 1.339 . S
C441 H468 0.931 . S
C442 C443 1.395 . S
C442 C444 1.320 . S
C443 C441 1.339 . S
C443 C442 1.395 . S
C443 H469 0.929 . S
C444 C442 1.320 . S
C444 C445 1.405 . S
C444 H470 0.930 . S
C445 C440 1.479 . S
C445 C444 1.405 . S
C445 H471 0.931 . S
U446 O447 2.454 . S
U446 O448 2.458 . S
U446 C449 2.984 . S
U446 C450 2.847 . S
U446 C463 2.882 . S
U446 O464 2.441 . S
U446 O465 2.420 . S
U446 O466 2.455 . S
U446 O467 2.449 . S
O447 U446 2.454 . S
O447 C449 1.353 . S
O448 U446 2.458 . S
O448 C449 1.286 . S
C449 U446 2.984 . S
C449 O447 1.353 . S
C449 O448 1.286 . S
C449 C451 1.363 1_565 S
C450 C440 1.465 . S
C450 U446 2.847 . S
C450 O464 1.249 . S
C450 O465 1.202 . S
C451 C449 1.363 1_545 S
C451 C453 1.408 . S
C451 C456 1.342 . S
C452 C453 1.310 . S
C452 C455 1.461 . S
C452 H472 0.932 . S
C453 C451 1.408 . S
C453 C452 1.310 . S
C453 H473 0.930 . S
C454 C455 1.474 . S
C454 C456 1.285 . S
C454 H474 0.929 . S
C455 C452 1.461 . S
C455 C454 1.474 . S
C456 C451 1.342 . S
C456 C454 1.285 . S
C456 H475 0.858 1_545 S
C457 C460 1.424 . S
C457 C462 1.245 . S
C457 C463 1.428 . S
C458 C461 1.260 . S
C458 C462 1.477 . S
C458 H476 0.932 . S
C459 C460 1.384 . S
C459 C461 1.479 . S
C459 H477 0.929 . S
C460 C457 1.424 . S
C460 C459 1.384 . S
C460 H478 0.928 . S
C461 C458 1.260 . S
C461 C459 1.479 . S
C462 C457 1.245 . S
C462 C458 1.477 . S
C462 H479 0.932 . S
C463 U446 2.882 . S
C463 C457 1.428 . S
C463 O466 1.301 . S
C463 O467 1.282 . S
O464 U446 2.441 . S
O464 C450 1.249 . S
O465 U446 2.420 . S
O465 C450 1.202 . S
O466 U446 2.455 . S
O466 C463 1.301 . S
O467 U446 2.449 . S
O467 C463 1.282 . S
H468 C441 0.931 . S
H469 C443 0.929 . S
H470 C444 0.930 . S
H471 C445 0.931 . S
H472 C452 0.932 . S
H473 C453 0.930 . S
H474 C454 0.929 . S
H475 C456 0.858 1_565 S
H476 C458 0.932 . S
H477 C459 0.929 . S
H478 C460 0.928 . S
H479 C462 0.932 . S
C480 C481 1.264 . S
C480 C485 1.479 . S
C480 C490 1.465 . S
C481 C480 1.264 . S
C481 C483 1.339 . S
C481 H508 0.931 . S
C482 C483 1.395 . S
C482 C484 1.320 . S
C483 C481 1.339 . S
C483 C482 1.395 . S
C483 H509 0.929 . S
C484 C482 1.320 . S
C484 C485 1.405 . S
C484 H510 0.930 . S
C485 C480 1.479 . S
C485 C484 1.405 . S
C485 H511 0.931 . S
U486 O487 2.454 . S
U486 O488 2.458 . S
U486 C489 2.984 . S
U486 C490 2.847 . S
U486 C503 2.882 . S
U486 O504 2.441 . S
U486 O505 2.420 . S
U486 O506 2.455 . S
U486 O507 2.449 . S
O487 U486 2.454 . S
O487 C489 1.353 . S
O488 U486 2.458 . S
O488 C489 1.286 . S
C489 U486 2.984 . S
C489 O487 1.353 . S
C489 O488 1.286 . S
C489 C491 1.363 1_554 S
C490 C480 1.465 . S
C490 U486 2.847 . S
C490 O504 1.249 . S
C490 O505 1.202 . S
C491 C489 1.363 1_556 S
C491 C493 1.408 . S
C491 C496 1.342 . S
C492 C493 1.310 . S
C492 C495 1.461 . S
C492 H512 0.932 . S
C493 C491 1.408 . S
C493 C492 1.310 . S
C493 H513 0.930 . S
C494 C495 1.474 . S
C494 C496 1.285 . S
C494 H514 0.929 . S
C495 C492 1.461 . S
C495 C494 1.474 . S
C496 C491 1.342 . S
C496 C494 1.285 . S
C496 H515 0.930 1_556 S
C497 C500 1.424 . S
C497 C502 1.245 . S
C497 C503 1.428 . S
C498 C501 1.260 . S
C498 C502 1.477 . S
C498 H516 0.932 . S
C499 C500 1.384 . S
C499 C501 1.479 . S
C499 H517 0.929 . S
C500 C497 1.424 . S
C500 C499 1.384 . S
C500 H518 0.928 . S
C501 C498 1.260 . S
C501 C499 1.479 . S
C502 C497 1.245 . S
C502 C498 1.477 . S
C502 H519 0.932 . S
C503 U486 2.882 . S
C503 C497 1.428 . S
C503 O506 1.301 . S
C503 O507 1.282 . S
O504 U486 2.441 . S
O504 C490 1.249 . S
O505 U486 2.420 . S
O505 C490 1.202 . S
O506 U486 2.455 . S
O506 C503 1.301 . S
O507 U486 2.449 . S
O507 C503 1.282 . S
H508 C481 0.931 . S
H509 C483 0.929 . S
H510 C484 0.930 . S
H511 C485 0.931 . S
H512 C492 0.932 . S
H513 C493 0.930 . S
H514 C494 0.929 . S
H515 C496 0.930 1_554 S
H516 C498 0.932 . S
H517 C499 0.929 . S
H518 C500 0.928 . S
H519 C502 0.932 . S
C520 C521 1.264 . S
C520 C525 1.479 . S
C520 C530 1.465 . S
C521 C520 1.264 . S
C521 C523 1.339 . S
C521 H548 0.931 . S
C522 C523 1.395 . S
C522 C524 1.320 . S
C523 C521 1.339 . S
C523 C522 1.395 . S
C523 H549 0.929 . S
C524 C522 1.320 . S
C524 C525 1.405 . S
C524 H550 0.930 . S
C525 C520 1.479 . S
C525 C524 1.405 . S
C525 H551 0.931 . S
U526 O527 2.454 . S
U526 O528 2.458 . S
U526 C529 2.984 . S
U526 C530 2.847 1_655 S
U526 C543 2.882 . S
U526 O544 2.441 1_655 S
U526 O545 2.420 . S
U526 O546 2.455 . S
U526 O547 2.449 . S
O527 U526 2.454 . S
O527 C529 1.353 . S
O528 U526 2.458 . S
O528 C529 1.286 . S
C529 U526 2.984 . S
C529 O527 1.353 . S
C529 O528 1.286 . S
C529 C531 1.363 . S
C530 C520 1.465 . S
C530 U526 2.847 1_455 S
C530 O544 1.249 . S
C530 O545 1.202 1_455 S
C531 C529 1.363 . S
C531 C533 1.408 . S
C531 C536 1.342 . S
C532 C533 1.310 . S
C532 C535 1.461 . S
C532 H552 0.932 . S
C533 C531 1.408 . S
C533 C532 1.310 . S
C533 H553 0.930 . S
C534 C535 1.474 . S
C534 C536 1.285 . S
C534 H554 0.929 . S
C535 C532 1.461 . S
C535 C534 1.474 . S
C536 C531 1.342 . S
C536 C534 1.285 . S
C536 H555 0.930 . S
C537 C540 1.424 . S
C537 C542 1.245 . S
C537 C543 1.428 . S
C538 C541 1.260 . S
C538 C542 1.477 . S
C538 H556 0.932 . S
C539 C540 1.384 . S
C539 C541 1.479 . S
C539 H557 0.929 . S
C540 C537 1.424 . S
C540 C539 1.384 . S
C540 H558 0.928 . S
C541 C538 1.260 . S
C541 C539 1.479 . S
C542 C537 1.245 . S
C542 C538 1.477 . S
C542 H559 0.932 . S
C543 U526 2.882 . S
C543 C537 1.428 . S
C543 O546 1.301 . S
C543 O547 1.282 . S
O544 U526 2.441 1_455 S
O544 C530 1.249 . S
O545 U526 2.420 . S
O545 C530 1.202 1_655 S
O546 U526 2.455 . S
O546 C543 1.301 . S
O547 U526 2.449 . S
O547 C543 1.282 . S
H548 C521 0.931 . S
H549 C523 0.929 . S
H550 C524 0.930 . S
H551 C525 0.931 . S
H552 C532 0.932 . S
H553 C533 0.930 . S
H554 C534 0.929 . S
H555 C536 0.930 . S
H556 C538 0.932 . S
H557 C539 0.929 . S
H558 C540 0.928 . S
H559 C542 0.932 . S
C560 C561 1.264 . S
C560 C565 1.479 . S
C560 C570 1.465 . S
C561 C560 1.264 . S
C561 C563 1.339 . S
C561 H588 0.931 . S
C562 C563 1.395 . S
C562 C564 1.320 . S
C563 C561 1.339 . S
C563 C562 1.395 . S
C563 H589 0.929 . S
C564 C562 1.320 . S
C564 C565 1.405 . S
C564 H590 0.930 . S
C565 C560 1.479 . S
C565 C564 1.405 . S
C565 H591 0.931 . S
U566 O567 2.454 . S
U566 O568 2.458 . S
U566 C569 2.984 . S
U566 C570 2.847 . S
U566 C583 2.882 . S
U566 O584 2.441 . S
U566 O585 2.420 . S
U566 O586 2.455 . S
U566 O587 2.449 . S
O567 U566 2.454 . S
O567 C569 1.353 . S
O568 U566 2.458 . S
O568 C569 1.286 . S
C569 U566 2.984 . S
C569 O567 1.353 . S
C569 O568 1.286 . S
C569 C571 1.363 . S
C570 C560 1.465 . S
C570 U566 2.847 . S
C570 O584 1.249 . S
C570 O585 1.202 . S
C571 C569 1.363 . S
C571 C573 1.408 . S
C571 C576 1.342 . S
C572 C573 1.310 . S
C572 C575 1.461 . S
C572 H592 0.932 . S
C573 C571 1.408 . S
C573 C572 1.310 . S
C573 H593 0.930 . S
C574 C575 1.474 . S
C574 C576 1.285 . S
C574 H594 0.929 . S
C575 C572 1.461 . S
C575 C574 1.474 . S
C576 C571 1.342 . S
C576 C574 1.285 . S
C576 H595 0.930 . S
C577 C580 1.424 . S
C577 C582 1.245 . S
C577 C583 1.428 . S
C578 C581 1.260 . S
C578 C582 1.477 . S
C578 H596 0.932 . S
C579 C580 1.384 . S
C579 C581 1.479 . S
C579 H597 0.929 . S
C580 C577 1.424 . S
C580 C579 1.384 . S
C580 H598 0.928 . S
C581 C578 1.260 . S
C581 C579 1.479 . S
C582 C577 1.245 . S
C582 C578 1.477 . S
C582 H599 0.932 . S
C583 U566 2.882 . S
C583 C577 1.428 . S
C583 O586 1.301 . S
C583 O587 1.282 . S
O584 U566 2.441 . S
O584 C570 1.249 . S
O585 U566 2.420 . S
O585 C570 1.202 . S
O586 U566 2.455 . S
O586 C583 1.301 . S
O587 U566 2.449 . S
O587 C583 1.282 . S
H588 C561 0.931 . S
H589 C563 0.929 . S
H590 C564 0.930 . S
H591 C565 0.931 . S
H592 C572 0.932 . S
H593 C573 0.930 . S
H594 C574 0.929 . S
H595 C576 0.930 . S
H596 C578 0.932 . S
H597 C579 0.929 . S
H598 C580 0.928 . S
H599 C582 0.932 . S
C600 C601 1.264 . S
C600 C605 1.479 . S
C600 C610 1.465 . S
C601 C600 1.264 . S
C601 C603 1.339 . S
C601 H628 0.931 . S
C602 C603 1.395 . S
C602 C604 1.320 . S
C603 C601 1.339 . S
C603 C602 1.395 . S
C603 H629 0.929 . S
C604 C602 1.320 . S
C604 C605 1.405 . S
C604 H630 0.930 . S
C605 C600 1.479 . S
C605 C604 1.405 . S
C605 H631 0.931 . S
U606 O607 2.454 1_655 S
U606 O608 2.458 1_655 S
U606 C609 2.984 1_655 S
U606 C610 2.847 . S
U606 C623 2.882 . S
U606 O624 2.441 . S
U606 O625 2.420 . S
U606 O626 2.455 . S
U606 O627 2.449 . S
O607 U606 2.454 1_455 S
O607 C609 1.353 . S
O608 U606 2.458 1_455 S
O608 C609 1.286 . S
C609 U606 2.984 1_455 S
C609 O607 1.353 . S
C609 O608 1.286 . S
C609 C611 1.363 . S
C610 C600 1.465 . S
C610 U606 2.847 . S
C610 O624 1.249 . S
C610 O625 1.202 . S
C611 C609 1.363 . S
C611 C613 1.408 . S
C611 C616 1.342 . S
C612 C613 1.310 . S
C612 C615 1.461 . S
C612 H632 0.932 . S
C613 C611 1.408 . S
C613 C612 1.310 . S
C613 H633 0.930 . S
C614 C615 1.474 . S
C614 C616 1.285 . S
C614 H634 0.929 . S
C615 C612 1.461 . S
C615 C614 1.474 . S
C616 C611 1.342 . S
C616 C614 1.285 . S
C616 H635 0.930 . S
C617 C620 1.424 . S
C617 C622 1.245 . S
C617 C623 1.428 . S
C618 C621 1.260 . S
C618 C622 1.477 . S
C618 H636 0.932 . S
C619 C620 1.384 . S
C619 C621 1.479 . S
C619 H637 0.929 . S
C620 C617 1.424 . S
C620 C619 1.384 . S
C620 H638 0.928 . S
C621 C618 1.260 . S
C621 C619 1.479 . S
C622 C617 1.245 . S
C622 C618 1.477 . S
C622 H639 0.932 . S
C623 U606 2.882 . S
C623 C617 1.428 . S
C623 O626 1.301 . S
C623 O627 1.282 . S
O624 U606 2.441 . S
O624 C610 1.249 . S
O625 U606 2.420 . S
O625 C610 1.202 . S
O626 U606 2.455 . S
O626 C623 1.301 . S
O627 U606 2.449 . S
O627 C623 1.282 . S
H628 C601 0.931 . S
H629 C603 0.929 . S
H630 C604 0.930 . S
H631 C605 0.931 . S
H632 C612 0.932 . S
H633 C613 0.930 . S
H634 C614 0.929 . S
H635 C616 0.930 . S
H636 C618 0.932 . S
H637 C619 0.929 . S
H638 C620 0.928 . S
H639 C622 0.932 . S
C640 C641 1.264 . S
C640 C645 1.479 . S
C640 C650 1.465 . S
C641 C640 1.264 . S
C641 C643 1.339 . S
C641 H668 0.931 . S
C642 C643 1.395 . S
C642 C644 1.320 . S
C643 C641 1.339 . S
C643 C642 1.395 . S
C643 H669 0.929 . S
C644 C642 1.320 . S
C644 C645 1.405 . S
C644 H670 0.930 . S
C645 C640 1.479 . S
C645 C644 1.405 . S
C645 H671 0.931 . S
U646 O647 2.454 . S
U646 O648 2.458 . S
U646 C649 2.984 . S
U646 C650 2.847 . S
U646 C663 2.882 . S
U646 O664 2.441 . S
U646 O665 2.420 . S
U646 O666 2.455 . S
U646 O667 2.449 . S
O647 U646 2.454 . S
O647 C649 1.353 . S
O648 U646 2.458 . S
O648 C649 1.286 . S
C649 U646 2.984 . S
C649 O647 1.353 . S
C649 O648 1.286 . S
C649 C651 1.363 . S
C650 C640 1.465 . S
C650 U646 2.847 . S
C650 O664 1.249 . S
C650 O665 1.202 . S
C651 C649 1.363 . S
C651 C653 1.408 . S
C651 C656 1.342 . S
C652 C653 1.310 . S
C652 C655 1.461 . S
C652 H672 0.932 . S
C653 C651 1.408 . S
C653 C652 1.310 . S
C653 H673 0.930 . S
C654 C655 1.474 . S
C654 C656 1.285 . S
C654 H674 0.929 . S
C655 C652 1.461 . S
C655 C654 1.474 . S
C656 C651 1.342 . S
C656 C654 1.285 . S
C656 H675 0.930 . S
C657 C660 1.424 . S
C657 C662 1.245 . S
C657 C663 1.428 . S
C658 C661 1.260 . S
C658 C662 1.477 . S
C658 H676 0.932 . S
C659 C660 1.384 . S
C659 C661 1.479 . S
C659 H677 0.929 . S
C660 C657 1.424 . S
C660 C659 1.384 . S
C660 H678 0.928 . S
C661 C658 1.260 . S
C661 C659 1.479 . S
C662 C657 1.245 . S
C662 C658 1.477 . S
C662 H679 0.932 . S
C663 U646 2.882 . S
C663 C657 1.428 . S
C663 O666 1.301 . S
C663 O667 1.282 . S
O664 U646 2.441 . S
O664 C650 1.249 . S
O665 U646 2.420 . S
O665 C650 1.202 . S
O666 U646 2.455 . S
O666 C663 1.301 . S
O667 U646 2.449 . S
O667 C663 1.282 . S
H668 C641 0.931 . S
H669 C643 0.929 . S
H670 C644 0.930 . S
H671 C645 0.931 . S
H672 C652 0.932 . S
H673 C653 0.930 . S
H674 C654 0.929 . S
H675 C656 0.930 . S
H676 C658 0.932 . S
H677 C659 0.929 . S
H678 C660 0.928 . S
H679 C662 0.932 . S
C680 C681 1.264 . S
C680 C685 1.479 . S
C680 C690 1.465 . S
C681 C680 1.264 . S
C681 C683 1.339 . S
C681 H708 0.931 . S
C682 C683 1.395 . S
C682 C684 1.320 . S
C683 C681 1.339 . S
C683 C682 1.395 . S
C683 H709 0.929 . S
C684 C682 1.320 . S
C684 C685 1.405 . S
C684 H710 0.930 . S
C685 C680 1.479 . S
C685 C684 1.405 . S
C685 H711 0.931 . S
U686 O687 2.454 . S
U686 O688 2.458 . S
U686 C689 2.984 . S
U686 C690 2.847 . S
U686 C703 2.882 . S
U686 O704 2.441 . S
U686 O705 2.420 . S
U686 O706 2.455 . S
U686 O707 2.449 . S
O687 U686 2.454 . S
O687 C689 1.353 . S
O688 U686 2.458 . S
O688 C689 1.286 . S
C689 U686 2.984 . S
C689 O687 1.353 . S
C689 O688 1.286 . S
C689 C691 1.363 . S
C690 C680 1.465 . S
C690 U686 2.847 . S
C690 O704 1.249 . S
C690 O705 1.202 . S
C691 C689 1.363 . S
C691 C693 1.408 . S
C691 C696 1.342 . S
C692 C693 1.310 . S
C692 C695 1.461 . S
C692 H712 0.932 . S
C693 C691 1.408 . S
C693 C692 1.310 . S
C693 H713 0.930 . S
C694 C695 1.474 . S
C694 C696 1.285 . S
C694 H714 0.929 . S
C695 C692 1.461 . S
C695 C694 1.474 . S
C696 C691 1.342 . S
C696 C694 1.285 . S
C696 H715 0.930 . S
C697 C700 1.424 . S
C697 C702 1.245 . S
C697 C703 1.428 . S
C698 C701 1.260 . S
C698 C702 1.477 . S
C698 H716 0.932 . S
C699 C700 1.384 . S
C699 C701 1.479 . S
C699 H717 0.929 . S
C700 C697 1.424 . S
C700 C699 1.384 . S
C700 H718 0.928 . S
C701 C698 1.260 . S
C701 C699 1.479 . S
C702 C697 1.245 . S
C702 C698 1.477 . S
C702 H719 0.932 . S
C703 U686 2.882 . S
C703 C697 1.428 . S
C703 O706 1.301 . S
C703 O707 1.282 . S
O704 U686 2.441 . S
O704 C690 1.249 . S
O705 U686 2.420 . S
O705 C690 1.202 . S
O706 U686 2.455 . S
O706 C703 1.301 . S
O707 U686 2.449 . S
O707 C703 1.282 . S
H708 C681 0.931 . S
H709 C683 0.929 . S
H710 C684 0.930 . S
H711 C685 0.931 . S
H712 C692 0.932 . S
H713 C693 0.930 . S
H714 C694 0.929 . S
H715 C696 0.930 . S
H716 C698 0.932 . S
H717 C699 0.929 . S
H718 C700 0.928 . S
H719 C702 0.932 . S
C720 C721 1.264 . S
C720 C725 1.479 . S
C720 C730 1.465 . S
C721 C720 1.264 . S
C721 C723 1.339 . S
C721 H748 0.931 . S
C722 C723 1.395 . S
C722 C724 1.320 . S
C723 C721 1.339 . S
C723 C722 1.395 . S
C723 H749 0.929 . S
C724 C722 1.320 . S
C724 C725 1.405 . S
C724 H750 0.930 . S
C725 C720 1.479 . S
C725 C724 1.405 . S
C725 H751 0.931 . S
U726 O727 2.454 . S
U726 O728 2.458 . S
U726 C729 2.984 1_556 S
U726 C730 2.847 . S
U726 C743 2.882 . S
U726 O744 2.441 . S
U726 O745 2.420 . S
U726 O746 2.455 . S
U726 O747 2.449 . S
O727 U726 2.454 . S
O727 C729 1.353 1_556 S
O728 U726 2.458 . S
O728 C729 1.286 1_556 S
C729 U726 2.984 1_554 S
C729 O727 1.353 1_554 S
C729 O728 1.286 1_554 S
C729 C731 1.363 . S
C730 C720 1.465 . S
C730 U726 2.847 . S
C730 O744 1.249 . S
C730 O745 1.202 . S
C731 C729 1.363 . S
C731 C733 1.408 . S
C731 C736 1.342 . S
C732 C733 1.310 . S
C732 C735 1.461 . S
C732 H752 0.932 . S
C733 C731 1.408 . S
C733 C732 1.310 . S
C733 H753 0.930 . S
C734 C735 1.474 . S
C734 C736 1.285 . S
C734 H754 0.929 . S
C735 C732 1.461 . S
C735 C734 1.474 . S
C736 C731 1.342 . S
C736 C734 1.285 . S
C736 H755 0.930 . S
C737 C740 1.424 . S
C737 C742 1.245 . S
C737 C743 1.428 . S
C738 C741 1.260 . S
C738 C742 1.477 . S
C738 H756 0.932 . S
C739 C740 1.384 . S
C739 C741 1.479 . S
C739 H757 0.929 . S
C740 C737 1.424 . S
C740 C739 1.384 . S
C740 H758 0.928 . S
C741 C738 1.260 . S
C741 C739 1.479 . S
C742 C737 1.245 . S
C742 C738 1.477 . S
C742 H759 0.932 . S
C743 U726 2.882 . S
C743 C737 1.428 . S
C743 O746 1.301 . S
C743 O747 1.282 . S
O744 U726 2.441 . S
O744 C730 1.249 . S
O745 U726 2.420 . S
O745 C730 1.202 . S
O746 U726 2.455 . S
O746 C743 1.301 . S
O747 U726 2.449 . S
O747 C743 1.282 . S
H748 C721 0.931 . S
H749 C723 0.929 . S
H750 C724 0.930 . S
H751 C725 0.931 . S
H752 C732 0.932 . S
H753 C733 0.930 . S
H754 C734 0.929 . S
H755 C736 0.930 . S
H756 C738 0.932 . S
H757 C739 0.929 . S
H758 C740 0.928 . S
H759 C742 0.932 . S
C760 C761 1.264 . S
C760 C765 1.479 . S
C760 C770 1.465 . S
C761 C760 1.264 . S
C761 C763 1.339 . S
C761 H788 0.931 . S
C762 C763 1.395 . S
C762 C764 1.320 . S
C763 C761 1.339 . S
C763 C762 1.395 . S
C763 H789 0.929 . S
C764 C762 1.320 . S
C764 C765 1.405 . S
C764 H790 0.930 . S
C765 C760 1.479 . S
C765 C764 1.405 . S
C765 H791 0.931 . S
U766 O767 2.454 . S
U766 O768 2.458 . S
U766 C769 2.984 . S
U766 C770 2.847 1_655 S
U766 C783 2.882 . S
U766 O784 2.441 1_655 S
U766 O785 2.420 1_655 S
U766 O786 2.455 . S
U766 O787 2.449 . S
O767 U766 2.454 . S
O767 C769 1.353 . S
O768 U766 2.458 . S
O768 C769 1.286 . S
C769 U766 2.984 . S
C769 O767 1.353 . S
C769 O768 1.286 . S
C769 C771 1.363 . S
C770 C760 1.465 . S
C770 U766 2.847 1_455 S
C770 O784 1.249 . S
C770 O785 1.202 . S
C771 C769 1.363 . S
C771 C773 1.408 . S
C771 C776 1.342 . S
C772 C773 1.310 . S
C772 C775 1.461 . S
C772 H792 0.932 . S
C773 C771 1.408 . S
C773 C772 1.310 . S
C773 H793 0.930 . S
C774 C775 1.474 . S
C774 C776 1.285 . S
C774 H794 0.929 . S
C775 C772 1.461 . S
C775 C774 1.474 . S
C776 C771 1.342 . S
C776 C774 1.285 . S
C776 H795 0.930 . S
C777 C780 1.424 . S
C777 C782 1.245 . S
C777 C783 1.428 . S
C778 C781 1.260 . S
C778 C782 1.477 . S
C778 H796 0.932 . S
C779 C780 1.384 . S
C779 C781 1.479 . S
C779 H797 0.929 . S
C780 C777 1.424 . S
C780 C779 1.384 . S
C780 H798 0.928 . S
C781 C778 1.260 . S
C781 C779 1.479 . S
C782 C777 1.245 . S
C782 C778 1.477 . S
C782 H799 0.932 . S
C783 U766 2.882 . S
C783 C777 1.428 . S
C783 O786 1.301 . S
C783 O787 1.282 . S
O784 U766 2.441 1_455 S
O784 C770 1.249 . S
O785 U766 2.420 1_455 S
O785 C770 1.202 . S
O786 U766 2.455 . S
O786 C783 1.301 . S
O787 U766 2.449 . S
O787 C783 1.282 . S
H788 C761 0.931 . S
H789 C763 0.929 . S
H790 C764 0.930 . S
H791 C765 0.931 . S
H792 C772 0.932 . S
H793 C773 0.930 . S
H794 C774 0.929 . S
H795 C776 0.930 . S
H796 C778 0.932 . S
H797 C779 0.929 . S
H798 C780 0.928 . S
H799 C782 0.932 . S
C800 C801 1.264 . S
C800 C805 1.479 . S
C800 C810 1.465 . S
C801 C800 1.264 . S
C801 C803 1.339 . S
C801 H828 0.931 . S
C802 C803 1.395 . S
C802 C804 1.320 . S
C803 C801 1.339 . S
C803 C802 1.395 . S
C803 H829 0.929 . S
C804 C802 1.320 . S
C804 C805 1.405 . S
C804 H830 0.930 . S
C805 C800 1.479 . S
C805 C804 1.405 . S
C805 H831 0.931 . S
U806 O807 2.454 . S
U806 O808 2.458 . S
U806 C809 2.984 . S
U806 C810 2.847 . S
U806 C823 2.882 . S
U806 O824 2.441 . S
U806 O825 2.420 . S
U806 O826 2.455 . S
U806 O827 2.449 . S
O807 U806 2.454 . S
O807 C809 1.353 . S
O808 U806 2.458 . S
O808 C809 1.286 . S
C809 U806 2.984 . S
C809 O807 1.353 . S
C809 O808 1.286 . S
C809 C811 1.363 . S
C810 C800 1.465 . S
C810 U806 2.847 . S
C810 O824 1.249 . S
C810 O825 1.202 . S
C811 C809 1.363 . S
C811 C813 1.408 . S
C811 C816 1.342 . S
C812 C813 1.310 . S
C812 C815 1.461 . S
C812 H832 0.932 . S
C813 C811 1.408 . S
C813 C812 1.310 . S
C813 H833 0.930 . S
C814 C815 1.474 . S
C814 C816 1.285 . S
C814 H834 0.929 . S
C815 C812 1.461 . S
C815 C814 1.474 . S
C816 C811 1.342 . S
C816 C814 1.285 . S
C816 H835 0.930 . S
C817 C820 1.424 . S
C817 C822 1.245 . S
C817 C823 1.428 . S
C818 C821 1.260 . S
C818 C822 1.477 . S
C818 H836 0.932 . S
C819 C820 1.384 . S
C819 C821 1.479 . S
C819 H837 0.929 . S
C820 C817 1.424 . S
C820 C819 1.384 . S
C820 H838 0.928 . S
C821 C818 1.260 . S
C821 C819 1.479 . S
C822 C817 1.245 . S
C822 C818 1.477 . S
C822 H839 0.932 . S
C823 U806 2.882 . S
C823 C817 1.428 . S
C823 O826 1.301 . S
C823 O827 1.282 . S
O824 U806 2.441 . S
O824 C810 1.249 . S
O825 U806 2.420 . S
O825 C810 1.202 . S
O826 U806 2.455 . S
O826 C823 1.301 . S
O827 U806 2.449 . S
O827 C823 1.282 . S
H828 C801 0.931 . S
H829 C803 0.929 . S
H830 C804 0.930 . S
H831 C805 0.931 . S
H832 C812 0.932 . S
H833 C813 0.930 . S
H834 C814 0.929 . S
H835 C816 0.930 . S
H836 C818 0.932 . S
H837 C819 0.929 . S
H838 C820 0.928 . S
H839 C822 0.932 . S
C840 C841 1.264 . S
C840 C845 1.479 . S
C840 C850 1.465 . S
C841 C840 1.264 . S
C841 C843 1.339 . S
C841 H868 0.931 . S
C842 C843 1.395 . S
C842 C844 1.320 . S
C843 C841 1.339 . S
C843 C842 1.395 . S
C843 H869 0.929 . S
C844 C842 1.320 . S
C844 C845 1.405 . S
C844 H870 0.930 . S
C845 C840 1.479 . S
C845 C844 1.405 . S
C845 H871 0.931 . S
U846 O847 2.454 . S
U846 O848 2.458 . S
U846 C849 2.984 . S
U846 C850 2.847 . S
U846 C863 2.882 . S
U846 O864 2.441 . S
U846 O865 2.420 . S
U846 O866 2.455 . S
U846 O867 2.449 . S
O847 U846 2.454 . S
O847 C849 1.353 . S
O848 U846 2.458 . S
O848 C849 1.286 . S
C849 U846 2.984 . S
C849 O847 1.353 . S
C849 O848 1.286 . S
C849 C851 1.363 . S
C850 C840 1.465 . S
C850 U846 2.847 . S
C850 O864 1.249 . S
C850 O865 1.202 . S
C851 C849 1.363 . S
C851 C853 1.408 . S
C851 C856 1.342 . S
C852 C853 1.310 . S
C852 C855 1.461 . S
C852 H872 0.932 . S
C853 C851 1.408 . S
C853 C852 1.310 . S
C853 H873 0.930 . S
C854 C855 1.474 . S
C854 C856 1.285 . S
C854 H874 0.929 . S
C855 C852 1.461 . S
C855 C854 1.474 . S
C856 C851 1.342 . S
C856 C854 1.285 . S
C856 H875 0.930 . S
C857 C860 1.424 . S
C857 C862 1.245 . S
C857 C863 1.428 . S
C858 C861 1.260 . S
C858 C862 1.477 . S
C858 H876 0.932 . S
C859 C860 1.384 . S
C859 C861 1.479 . S
C859 H877 0.929 . S
C860 C857 1.424 . S
C860 C859 1.384 . S
C860 H878 0.928 . S
C861 C858 1.260 . S
C861 C859 1.479 . S
C862 C857 1.245 . S
C862 C858 1.477 . S
C862 H879 0.932 . S
C863 U846 2.882 . S
C863 C857 1.428 . S
C863 O866 1.301 . S
C863 O867 1.282 . S
O864 U846 2.441 . S
O864 C850 1.249 . S
O865 U846 2.420 . S
O865 C850 1.202 . S
O866 U846 2.455 . S
O866 C863 1.301 . S
O867 U846 2.449 . S
O867 C863 1.282 . S
H868 C841 0.931 . S
H869 C843 0.929 . S
H870 C844 0.930 . S
H871 C845 0.931 . S
H872 C852 0.932 . S
H873 C853 0.930 . S
H874 C854 0.929 . S
H875 C856 0.930 . S
H876 C858 0.932 . S
H877 C859 0.929 . S
H878 C860 0.928 . S
H879 C862 0.932 . S
C880 C881 1.264 . S
C880 C885 1.479 . S
C880 C890 1.465 . S
C881 C880 1.264 . S
C881 C883 1.339 . S
C881 H908 0.931 . S
C882 C883 1.395 . S
C882 C884 1.320 . S
C883 C881 1.339 . S
C883 C882 1.395 . S
C883 H909 0.929 . S
C884 C882 1.320 . S
C884 C885 1.405 . S
C884 H910 0.930 . S
C885 C880 1.479 . S
C885 C884 1.405 . S
C885 H911 0.931 . S
U886 O887 2.454 . S
U886 O888 2.458 . S
U886 C889 2.984 . S
U886 C890 2.847 1_554 S
U886 C903 2.882 . S
U886 O904 2.470 . S
U886 O905 2.420 . S
U886 O906 2.455 . S
U886 O907 2.449 . S
O887 U886 2.454 . S
O887 C889 1.353 . S
O888 U886 2.458 . S
O888 C889 1.286 . S
C889 U886 2.984 . S
C889 O887 1.353 . S
C889 O888 1.286 . S
C889 C891 1.363 . S
C890 C880 1.465 . S
C890 U886 2.847 1_556 S
C890 O904 1.235 1_556 S
C890 O905 1.202 1_556 S
C891 C889 1.363 . S
C891 C893 1.408 . S
C891 C896 1.342 . S
C892 C893 1.310 . S
C892 C895 1.461 . S
C892 H912 0.932 . S
C893 C891 1.408 . S
C893 C892 1.310 . S
C893 H913 0.930 . S
C894 C895 1.474 . S
C894 C896 1.285 . S
C894 H914 0.929 . S
C895 C892 1.461 . S
C895 C894 1.474 . S
C896 C891 1.342 . S
C896 C894 1.285 . S
C896 H915 0.930 . S
C897 C900 1.424 . S
C897 C902 1.245 . S
C897 C903 1.428 . S
C898 C901 1.260 . S
C898 C902 1.477 . S
C898 H916 0.932 . S
C899 C900 1.384 . S
C899 C901 1.479 . S
C899 H917 0.929 . S
C900 C897 1.424 . S
C900 C899 1.384 . S
C900 H918 0.928 . S
C901 C898 1.260 . S
C901 C899 1.479 . S
C902 C897 1.245 . S
C902 C898 1.477 . S
C902 H919 0.932 . S
C903 U886 2.882 . S
C903 C897 1.428 . S
C903 O906 1.301 . S
C903 O907 1.282 . S
O904 U886 2.470 . S
O904 C890 1.235 1_554 S
O905 U886 2.420 . S
O905 C890 1.202 1_554 S
O906 U886 2.455 . S
O906 C903 1.301 . S
O907 U886 2.449 . S
O907 C903 1.282 . S
H908 C881 0.931 . S
H909 C883 0.929 . S
H910 C884 0.930 . S
H911 C885 0.931 . S
H912 C892 0.932 . S
H913 C893 0.930 . S
H914 C894 0.929 . S
H915 C896 0.930 . S
H916 C898 0.932 . S
H917 C899 0.929 . S
H918 C900 0.928 . S
H919 C902 0.932 . S
C920 C921 1.264 . S
C920 C925 1.479 . S
C920 C930 1.465 . S
C921 C920 1.264 . S
C921 C923 1.339 . S
C921 H948 0.931 . S
C922 C923 1.395 . S
C922 C924 1.320 . S
C923 C921 1.339 . S
C923 C922 1.395 . S
C923 H949 0.929 . S
C924 C922 1.320 . S
C924 C925 1.405 . S
C924 H950 0.930 . S
C925 C920 1.479 . S
C925 C924 1.405 . S
C925 H951 0.931 . S
U926 O927 2.454 1_565 S
U926 O928 2.458 1_565 S
U926 C929 2.984 1_565 S
U926 C930 2.847 . S
U926 C943 2.882 . S
U926 O944 2.441 . S
U926 O945 2.420 . S
U926 O946 2.455 . S
U926 O947 2.449 . S
O927 U926 2.454 1_545 S
O927 C929 1.353 . S
O928 U926 2.458 1_545 S
O928 C929 1.286 . S
C929 U926 2.984 1_545 S
C929 O927 1.353 . S
C929 O928 1.286 . S
C929 C931 1.363 . S
C930 C920 1.465 . S
C930 U926 2.847 . S
C930 O944 1.249 . S
C930 O945 1.202 . S
C931 C929 1.363 . S
C931 C933 1.408 . S
C931 C936 1.342 . S
C932 C933 1.310 . S
C932 C935 1.461 . S
C932 H952 0.932 . S
C933 C931 1.408 . S
C933 C932 1.310 . S
C933 H953 0.930 . S
C934 C935 1.474 . S
C934 C936 1.285 . S
C934 H954 0.929 . S
C935 C932 1.461 . S
C935 C934 1.474 . S
C936 C931 1.342 . S
C936 C934 1.285 . S
C936 H955 0.930 . S
C937 C940 1.424 . S
C937 C942 1.245 . S
C937 C943 1.428 . S
C938 C941 1.260 . S
C938 C942 1.477 . S
C938 H956 0.932 . S
C939 C940 1.384 . S
C939 C941 1.479 . S
C939 H957 0.929 . S
C940 C937 1.424 . S
C940 C939 1.384 . S
C940 H958 0.928 . S
C941 C938 1.260 . S
C941 C939 1.479 . S
C942 C937 1.245 . S
C942 C938 1.477 . S
C942 H959 0.932 . S
C943 U926 2.882 . S
C943 C937 1.428 . S
C943 O946 1.301 . S
C943 O947 1.282 . S
O944 U926 2.441 . S
O944 C930 1.249 . S
O945 U926 2.420 . S
O945 C930 1.202 . S
O946 U926 2.455 . S
O946 C943 1.301 . S
O947 U926 2.449 . S
O947 C943 1.282 . S
H948 C921 0.931 . S
H949 C923 0.929 . S
H950 C924 0.930 . S
H951 C925 0.931 . S
H952 C932 0.932 . S
H953 C933 0.930 . S
H954 C934 0.929 . S
H955 C936 0.930 . S
H956 C938 0.932 . S
H957 C939 0.929 . S
H958 C940 0.928 . S
H959 C942 0.932 . S
C960 C961 1.264 . S
C960 C965 1.479 . S
C960 C970 1.465 . S
C961 C960 1.264 . S
C961 C963 1.339 . S
C961 H988 0.931 . S
C962 C963 1.395 . S
C962 C964 1.320 . S
C963 C961 1.339 . S
C963 C962 1.395 . S
C963 H989 0.929 . S
C964 C962 1.320 . S
C964 C965 1.405 . S
C964 H990 0.930 . S
C965 C960 1.479 . S
C965 C964 1.405 . S
C965 H991 0.931 . S
U966 O967 2.454 1_565 S
U966 O968 2.458 1_565 S
U966 C969 2.984 1_565 S
U966 C970 2.847 . S
U966 C983 2.882 . S
U966 O984 2.441 . S
U966 O985 2.420 . S
U966 O986 2.455 . S
U966 O987 2.449 . S
O967 U966 2.454 1_545 S
O967 C969 1.353 . S
O968 U966 2.458 1_545 S
O968 C969 1.286 . S
C969 U966 2.984 1_545 S
C969 O967 1.353 . S
C969 O968 1.286 . S
C969 C971 1.363 . S
C970 C960 1.465 . S
C970 U966 2.847 . S
C970 O984 1.249 . S
C970 O985 1.202 . S
C971 C969 1.363 . S
C971 C973 1.408 . S
C971 C976 1.342 . S
C972 C973 1.310 . S
C972 C975 1.461 . S
C972 H992 0.932 . S
C973 C971 1.408 . S
C973 C972 1.310 . S
C973 H993 0.930 . S
C974 C975 1.474 . S
C974 C976 1.285 . S
C974 H994 0.929 . S
C975 C972 1.461 . S
C975 C974 1.474 . S
C976 C971 1.342 . S
C976 C974 1.285 . S
C976 H995 0.930 . S
C977 C980 1.424 . S
C977 C982 1.245 . S
C977 C983 1.428 . S
C978 C981 1.260 . S
C978 C982 1.477 . S
C978 H996 0.932 . S
C979 C980 1.384 . S
C979 C981 1.479 . S
C979 H997 0.929 . S
C980 C977 1.424 . S
C980 C979 1.384 . S
C980 H998 0.928 . S
C981 C978 1.260 . S
C981 C979 1.479 . S
C982 C977 1.245 . S
C982 C978 1.477 . S
C982 H999 0.932 . S
C983 U966 2.882 . S
C983 C977 1.428 . S
C983 O986 1.301 . S
C983 O987 1.282 . S
O984 U966 2.441 . S
O984 C970 1.249 . S
O985 U966 2.420 . S
O985 C970 1.202 . S
O986 U966 2.455 . S
O986 C983 1.301 . S
O987 U966 2.449 . S
O987 C983 1.282 . S
H988 C961 0.931 . S
H989 C963 0.929 . S
H990 C964 0.930 . S
H991 C965 0.931 . S
H992 C972 0.932 . S
H993 C973 0.930 . S
H994 C974 0.929 . S
H995 C976 0.930 . S
H996 C978 0.932 . S
H997 C979 0.929 . S
H998 C980 0.928 . S
H999 C982 0.932 . S
C1000 C1001 1.264 . S
C1000 C1005 1.479 . S
C1000 C1010 1.465 . S
C1001 C1000 1.264 . S
C1001 C1003 1.339 . S
C1001 H1028 0.931 . S
C1002 C1003 1.395 . S
C1002 C1004 1.320 . S
C1003 C1001 1.339 . S
C1003 C1002 1.395 . S
C1003 H1029 0.929 . S
C1004 C1002 1.320 . S
C1004 C1005 1.405 . S
C1004 H1030 0.930 . S
C1005 C1000 1.479 . S
C1005 C1004 1.405 . S
C1005 H1031 0.931 . S
U1006 O1007 2.454 . S
U1006 O1008 2.458 . S
U1006 C1009 2.984 . S
U1006 C1010 2.847 1_545 S
U1006 C1023 2.882 . S
U1006 O1024 2.441 1_545 S
U1006 O1025 2.420 1_545 S
U1006 O1026 2.455 . S
U1006 O1027 2.449 . S
O1007 U1006 2.454 . S
O1007 C1009 1.353 . S
O1008 U1006 2.458 . S
O1008 C1009 1.286 . S
C1009 U1006 2.984 . S
C1009 O1007 1.353 . S
C1009 O1008 1.286 . S
C1009 C1011 1.363 . S
C1010 C1000 1.465 . S
C1010 U1006 2.847 1_565 S
C1010 O1024 1.249 . S
C1010 O1025 1.202 . S
C1011 C1009 1.363 . S
C1011 C1013 1.408 . S
C1011 C1016 1.342 . S
C1012 C1013 1.310 . S
C1012 C1015 1.461 . S
C1012 H1032 0.932 . S
C1013 C1011 1.408 . S
C1013 C1012 1.310 . S
C1013 H1033 0.930 . S
C1014 C1015 1.474 . S
C1014 C1016 1.285 . S
C1014 H1034 0.929 . S
C1015 C1012 1.461 . S
C1015 C1014 1.474 . S
C1016 C1011 1.342 . S
C1016 C1014 1.285 . S
C1016 H1035 0.930 . S
C1017 C1020 1.424 . S
C1017 C1022 1.245 . S
C1017 C1023 1.428 . S
C1018 C1021 1.260 . S
C1018 C1022 1.477 . S
C1018 H1036 0.932 . S
C1019 C1020 1.384 . S
C1019 C1021 1.479 . S
C1019 H1037 0.929 . S
C1020 C1017 1.424 . S
C1020 C1019 1.384 . S
C1020 H1038 0.928 . S
C1021 C1018 1.260 . S
C1021 C1019 1.479 . S
C1022 C1017 1.245 . S
C1022 C1018 1.477 . S
C1022 H1039 0.932 . S
C1023 U1006 2.882 . S
C1023 C1017 1.428 . S
C1023 O1026 1.301 . S
C1023 O1027 1.282 . S
O1024 U1006 2.441 1_565 S
O1024 C1010 1.249 . S
O1025 U1006 2.420 1_565 S
O1025 C1010 1.202 . S
O1026 U1006 2.455 . S
O1026 C1023 1.301 . S
O1027 U1006 2.449 . S
O1027 C1023 1.282 . S
H1028 C1001 0.931 . S
H1029 C1003 0.929 . S
H1030 C1004 0.930 . S
H1031 C1005 0.931 . S
H1032 C1012 0.932 . S
H1033 C1013 0.930 . S
H1034 C1014 0.929 . S
H1035 C1016 0.930 . S
H1036 C1018 0.932 . S
H1037 C1019 0.929 . S
H1038 C1020 0.928 . S
H1039 C1022 0.932 . S
C1040 C1041 1.264 . S
C1040 C1045 1.479 . S
C1040 C1050 1.465 . S
C1041 C1040 1.264 . S
C1041 C1043 1.339 . S
C1041 H1068 0.931 . S
C1042 C1043 1.395 . S
C1042 C1044 1.320 . S
C1043 C1041 1.339 . S
C1043 C1042 1.395 . S
C1043 H1069 0.929 . S
C1044 C1042 1.320 . S
C1044 C1045 1.405 . S
C1044 H1070 0.930 . S
C1045 C1040 1.479 . S
C1045 C1044 1.405 . S
C1045 H1071 0.931 . S
U1046 O1047 2.454 . S
U1046 O1048 2.458 . S
U1046 C1049 2.984 . S
U1046 C1050 2.847 1_545 S
U1046 C1063 2.882 . S
U1046 O1064 2.441 1_545 S
U1046 O1065 2.420 1_545 S
U1046 O1066 2.455 . S
U1046 O1067 2.449 . S
O1047 U1046 2.454 . S
O1047 C1049 1.353 . S
O1048 U1046 2.458 . S
O1048 C1049 1.286 . S
C1049 U1046 2.984 . S
C1049 O1047 1.353 . S
C1049 O1048 1.286 . S
C1049 C1051 1.363 . S
C1050 C1040 1.465 . S
C1050 U1046 2.847 1_565 S
C1050 O1064 1.249 . S
C1050 O1065 1.202 . S
C1051 C1049 1.363 . S
C1051 C1053 1.408 . S
C1051 C1056 1.342 . S
C1052 C1053 1.310 . S
C1052 C1055 1.461 . S
C1052 H1072 0.932 . S
C1053 C1051 1.408 . S
C1053 C1052 1.310 . S
C1053 H1073 0.930 . S
C1054 C1055 1.474 . S
C1054 C1056 1.285 . S
C1054 H1074 0.929 . S
C1055 C1052 1.461 . S
C1055 C1054 1.474 . S
C1056 C1051 1.342 . S
C1056 C1054 1.285 . S
C1056 H1075 0.930 . S
C1057 C1060 1.424 . S
C1057 C1062 1.245 . S
C1057 C1063 1.428 . S
C1058 C1061 1.260 . S
C1058 C1062 1.477 . S
C1058 H1076 0.932 . S
C1059 C1060 1.384 . S
C1059 C1061 1.479 . S
C1059 H1077 0.929 . S
C1060 C1057 1.424 . S
C1060 C1059 1.384 . S
C1060 H1078 0.928 . S
C1061 C1058 1.260 . S
C1061 C1059 1.479 . S
C1062 C1057 1.245 . S
C1062 C1058 1.477 . S
C1062 H1079 0.932 . S
C1063 U1046 2.882 . S
C1063 C1057 1.428 . S
C1063 O1066 1.301 . S
C1063 O1067 1.282 . S
O1064 U1046 2.441 1_565 S
O1064 C1050 1.249 . S
O1065 U1046 2.420 1_565 S
O1065 C1050 1.202 . S
O1066 U1046 2.455 . S
O1066 C1063 1.301 . S
O1067 U1046 2.449 . S
O1067 C1063 1.282 . S
H1068 C1041 0.931 . S
H1069 C1043 0.929 . S
H1070 C1044 0.930 . S
H1071 C1045 0.931 . S
H1072 C1052 0.932 . S
H1073 C1053 0.930 . S
H1074 C1054 0.929 . S
H1075 C1056 0.930 . S
H1076 C1058 0.932 . S
H1077 C1059 0.929 . S
H1078 C1060 0.928 . S
H1079 C1062 0.932 . S
C1080 C1081 1.264 . S
C1080 C1085 1.479 . S
C1080 C1090 1.465 . S
C1081 C1080 1.264 . S
C1081 C1083 1.339 . S
C1081 H1108 0.931 . S
C1082 C1083 1.395 . S
C1082 C1084 1.320 . S
C1083 C1081 1.339 . S
C1083 C1082 1.395 . S
C1083 H1109 0.929 . S
C1084 C1082 1.320 . S
C1084 C1085 1.405 . S
C1084 H1110 0.930 . S
C1085 C1080 1.479 . S
C1085 C1084 1.405 . S
C1085 H1111 0.931 . S
U1086 O1087 2.423 1_556 S
U1086 O1088 2.458 . S
U1086 C1089 2.984 1_556 S
U1086 C1090 2.847 . S
U1086 C1103 2.882 . S
U1086 O1104 2.441 . S
U1086 O1105 2.420 . S
U1086 O1106 2.455 . S
U1086 O1107 2.449 . S
O1087 U1086 2.423 1_554 S
O1087 C1089 1.370 . S
O1088 U1086 2.458 . S
O1088 C1089 1.286 1_556 S
C1089 U1086 2.984 1_554 S
C1089 O1087 1.370 . S
C1089 O1088 1.286 1_554 S
C1089 C1091 1.363 . S
C1090 C1080 1.465 . S
C1090 U1086 2.847 . S
C1090 O1104 1.249 . S
C1090 O1105 1.202 . S
C1091 C1089 1.363 . S
C1091 C1093 1.408 . S
C1091 C1096 1.342 . S
C1092 C1093 1.310 . S
C1092 C1095 1.461 . S
C1092 H1112 0.932 . S
C1093 C1091 1.408 . S
C1093 C1092 1.310 . S
C1093 H1113 0.930 . S
C1094 C1095 1.474 . S
C1094 C1096 1.285 . S
C1094 H1114 0.929 . S
C1095 C1092 1.461 . S
C1095 C1094 1.474 . S
C1096 C1091 1.342 . S
C1096 C1094 1.285 . S
C1096 H1115 0.930 . S
C1097 C1100 1.424 . S
C1097 C1102 1.245 . S
C1097 C1103 1.428 . S
C1098 C1101 1.260 . S
C1098 C1102 1.477 . S
C1098 H1116 0.932 . S
C1099 C1100 1.384 . S
C1099 C1101 1.479 . S
C1099 H1117 0.929 . S
C1100 C1097 1.424 . S
C1100 C1099 1.384 . S
C1100 H1118 0.928 . S
C1101 C1098 1.260 . S
C1101 C1099 1.479 . S
C1102 C1097 1.245 . S
C1102 C1098 1.477 . S
C1102 H1119 0.932 . S
C1103 U1086 2.882 . S
C1103 C1097 1.428 . S
C1103 O1106 1.301 . S
C1103 O1107 1.282 . S
O1104 U1086 2.441 . S
O1104 C1090 1.249 . S
O1105 U1086 2.420 . S
O1105 C1090 1.202 . S
O1106 U1086 2.455 . S
O1106 C1103 1.301 . S
O1107 U1086 2.449 . S
O1107 C1103 1.282 . S
H1108 C1081 0.931 . S
H1109 C1083 0.929 . S
H1110 C1084 0.930 . S
H1111 C1085 0.931 . S
H1112 C1092 0.932 . S
H1113 C1093 0.930 . S
H1114 C1094 0.929 . S
H1115 C1096 0.930 . S
H1116 C1098 0.932 . S
H1117 C1099 0.929 . S
H1118 C1100 0.928 . S
H1119 C1102 0.932 . S
C1120 C1121 1.264 . S
C1120 C1125 1.479 . S
C1120 C1130 1.465 . S
C1121 C1120 1.264 . S
C1121 C1123 1.339 . S
C1121 H1148 0.931 . S
C1122 C1123 1.395 . S
C1122 C1124 1.320 . S
C1123 C1121 1.339 . S
C1123 C1122 1.395 . S
C1123 H1149 0.929 . S
C1124 C1122 1.320 . S
C1124 C1125 1.405 . S
C1124 H1150 0.930 . S
C1125 C1120 1.479 . S
C1125 C1124 1.405 . S
C1125 H1151 0.931 . S
U1126 O1127 2.454 . S
U1126 O1128 2.458 . S
U1126 C1129 2.984 . S
U1126 C1130 2.847 1_455 S
U1126 C1143 2.882 . S
U1126 O1144 2.441 1_455 S
U1126 O1145 2.420 1_455 S
U1126 O1146 2.455 . S
U1126 O1147 2.449 . S
O1127 U1126 2.454 . S
O1127 C1129 1.353 . S
O1128 U1126 2.458 . S
O1128 C1129 1.286 . S
C1129 U1126 2.984 . S
C1129 O1127 1.353 . S
C1129 O1128 1.286 . S
C1129 C1131 1.363 . S
C1130 C1120 1.465 . S
C1130 U1126 2.847 1_655 S
C1130 O1144 1.249 . S
C1130 O1145 1.202 . S
C1131 C1129 1.363 . S
C1131 C1133 1.408 . S
C1131 C1136 1.342 . S
C1132 C1133 1.310 . S
C1132 C1135 1.461 . S
C1132 H1152 0.932 . S
C1133 C1131 1.408 . S
C1133 C1132 1.310 . S
C1133 H1153 0.930 . S
C1134 C1135 1.474 . S
C1134 C1136 1.285 . S
C1134 H1154 0.929 . S
C1135 C1132 1.461 . S
C1135 C1134 1.474 . S
C1136 C1131 1.342 . S
C1136 C1134 1.285 . S
C1136 H1155 0.930 . S
C1137 C1140 1.424 . S
C1137 C1142 1.245 . S
C1137 C1143 1.428 . S
C1138 C1141 1.260 . S
C1138 C1142 1.477 . S
C1138 H1156 0.932 . S
C1139 C1140 1.384 . S
C1139 C1141 1.479 . S
C1139 H1157 0.929 . S
C1140 C1137 1.424 . S
C1140 C1139 1.384 . S
C1140 H1158 0.928 . S
C1141 C1138 1.260 . S
C1141 C1139 1.479 . S
C1142 C1137 1.245 . S
C1142 C1138 1.477 . S
C1142 H1159 0.932 . S
C1143 U1126 2.882 . S
C1143 C1137 1.428 . S
C1143 O1146 1.301 . S
C1143 O1147 1.282 . S
O1144 U1126 2.441 1_655 S
O1144 C1130 1.249 . S
O1145 U1126 2.420 1_655 S
O1145 C1130 1.202 . S
O1146 U1126 2.455 . S
O1146 C1143 1.301 . S
O1147 U1126 2.449 . S
O1147 C1143 1.282 . S
H1148 C1121 0.931 . S
H1149 C1123 0.929 . S
H1150 C1124 0.930 . S
H1151 C1125 0.931 . S
H1152 C1132 0.932 . S
H1153 C1133 0.930 . S
H1154 C1134 0.929 . S
H1155 C1136 0.930 . S
H1156 C1138 0.932 . S
H1157 C1139 0.929 . S
H1158 C1140 0.928 . S
H1159 C1142 0.932 . S
C1160 C1161 1.264 . S
C1160 C1165 1.479 . S
C1160 C1170 1.465 . S
C1161 C1160 1.264 . S
C1161 C1163 1.339 . S
C1161 H1188 0.931 . S
C1162 C1163 1.395 . S
C1162 C1164 1.320 . S
C1163 C1161 1.339 . S
C1163 C1162 1.395 . S
C1163 H1189 0.929 . S
C1164 C1162 1.320 . S
C1164 C1165 1.405 . S
C1164 H1190 0.930 . S
C1165 C1160 1.479 . S
C1165 C1164 1.405 . S
C1165 H1191 0.931 . S
U1166 O1167 2.454 . S
U1166 O1168 2.458 . S
U1166 C1169 2.984 . S
U1166 C1170 2.847 . S
U1166 C1183 2.882 . S
U1166 O1184 2.441 . S
U1166 O1185 2.420 . S
U1166 O1186 2.455 . S
U1166 O1187 2.449 . S
O1167 U1166 2.454 . S
O1167 C1169 1.353 . S
O1168 U1166 2.458 . S
O1168 C1169 1.286 . S
C1169 U1166 2.984 . S
C1169 O1167 1.353 . S
C1169 O1168 1.286 . S
C1169 C1171 1.363 . S
C1170 C1160 1.465 . S
C1170 U1166 2.847 . S
C1170 O1184 1.249 . S
C1170 O1185 1.202 . S
C1171 C1169 1.363 . S
C1171 C1173 1.408 . S
C1171 C1176 1.342 . S
C1172 C1173 1.310 . S
C1172 C1175 1.461 . S
C1172 H1192 0.932 . S
C1173 C1171 1.408 . S
C1173 C1172 1.310 . S
C1173 H1193 0.930 . S
C1174 C1175 1.474 . S
C1174 C1176 1.285 . S
C1174 H1194 0.929 . S
C1175 C1172 1.461 . S
C1175 C1174 1.474 . S
C1176 C1171 1.342 . S
C1176 C1174 1.285 . S
C1176 H1195 0.930 . S
C1177 C1180 1.424 . S
C1177 C1182 1.245 . S
C1177 C1183 1.428 . S
C1178 C1181 1.260 . S
C1178 C1182 1.477 . S
C1178 H1196 0.932 . S
C1179 C1180 1.384 . S
C1179 C1181 1.479 . S
C1179 H1197 0.929 . S
C1180 C1177 1.424 . S
C1180 C1179 1.384 . S
C1180 H1198 0.928 . S
C1181 C1178 1.260 . S
C1181 C1179 1.479 . S
C1182 C1177 1.245 . S
C1182 C1178 1.477 . S
C1182 H1199 0.932 . S
C1183 U1166 2.882 . S
C1183 C1177 1.428 . S
C1183 O1186 1.301 . S
C1183 O1187 1.282 . S
O1184 U1166 2.441 . S
O1184 C1170 1.249 . S
O1185 U1166 2.420 . S
O1185 C1170 1.202 . S
O1186 U1166 2.455 . S
O1186 C1183 1.301 . S
O1187 U1166 2.449 . S
O1187 C1183 1.282 . S
H1188 C1161 0.931 . S
H1189 C1163 0.929 . S
H1190 C1164 0.930 . S
H1191 C1165 0.931 . S
H1192 C1172 0.932 . S
H1193 C1173 0.930 . S
H1194 C1174 0.929 . S
H1195 C1176 0.930 . S
H1196 C1178 0.932 . S
H1197 C1179 0.929 . S
H1198 C1180 0.928 . S
H1199 C1182 0.932 . S
C1200 C1201 1.264 . S
C1200 C1205 1.479 . S
C1200 C1210 1.465 . S
C1201 C1200 1.264 . S
C1201 C1203 1.339 . S
C1201 H1228 0.931 . S
C1202 C1203 1.395 . S
C1202 C1204 1.320 . S
C1203 C1201 1.339 . S
C1203 C1202 1.395 . S
C1203 H1229 0.929 . S
C1204 C1202 1.320 . S
C1204 C1205 1.405 . S
C1204 H1230 0.930 . S
C1205 C1200 1.479 . S
C1205 C1204 1.405 . S
C1205 H1231 0.931 . S
U1206 O1207 2.454 . S
U1206 O1208 2.458 . S
U1206 C1209 2.984 . S
U1206 C1210 2.847 . S
U1206 C1223 2.882 . S
U1206 O1224 2.441 . S
U1206 O1225 2.420 . S
U1206 O1226 2.455 . S
U1206 O1227 2.449 . S
O1207 U1206 2.454 . S
O1207 C1209 1.353 . S
O1208 U1206 2.458 . S
O1208 C1209 1.286 . S
C1209 U1206 2.984 . S
C1209 O1207 1.353 . S
C1209 O1208 1.286 . S
C1209 C1211 1.363 . S
C1210 C1200 1.465 . S
C1210 U1206 2.847 . S
C1210 O1224 1.249 . S
C1210 O1225 1.202 . S
C1211 C1209 1.363 . S
C1211 C1213 1.408 . S
C1211 C1216 1.342 . S
C1212 C1213 1.310 . S
C1212 C1215 1.461 . S
C1212 H1232 0.932 . S
C1213 C1211 1.408 . S
C1213 C1212 1.310 . S
C1213 H1233 0.930 . S
C1214 C1215 1.474 . S
C1214 C1216 1.285 . S
C1214 H1234 0.929 . S
C1215 C1212 1.461 . S
C1215 C1214 1.474 . S
C1216 C1211 1.342 . S
C1216 C1214 1.285 . S
C1216 H1235 0.930 . S
C1217 C1220 1.424 . S
C1217 C1222 1.245 . S
C1217 C1223 1.428 . S
C1218 C1221 1.260 . S
C1218 C1222 1.477 . S
C1218 H1236 0.932 . S
C1219 C1220 1.384 . S
C1219 C1221 1.479 . S
C1219 H1237 0.929 . S
C1220 C1217 1.424 . S
C1220 C1219 1.384 . S
C1220 H1238 0.928 . S
C1221 C1218 1.260 . S
C1221 C1219 1.479 . S
C1222 C1217 1.245 . S
C1222 C1218 1.477 . S
C1222 H1239 0.932 . S
C1223 U1206 2.882 . S
C1223 C1217 1.428 . S
C1223 O1226 1.301 . S
C1223 O1227 1.282 . S
O1224 U1206 2.441 . S
O1224 C1210 1.249 . S
O1225 U1206 2.420 . S
O1225 C1210 1.202 . S
O1226 U1206 2.455 . S
O1226 C1223 1.301 . S
O1227 U1206 2.449 . S
O1227 C1223 1.282 . S
H1228 C1201 0.931 . S
H1229 C1203 0.929 . S
H1230 C1204 0.930 . S
H1231 C1205 0.931 . S
H1232 C1212 0.932 . S
H1233 C1213 0.930 . S
H1234 C1214 0.929 . S
H1235 C1216 0.930 . S
H1236 C1218 0.932 . S
H1237 C1219 0.929 . S
H1238 C1220 0.928 . S
H1239 C1222 0.932 . S
C1240 C1241 1.264 . S
C1240 C1245 1.479 . S
C1240 C1250 1.465 . S
C1241 C1240 1.264 . S
C1241 C1243 1.339 . S
C1241 H1268 0.931 . S
C1242 C1243 1.395 . S
C1242 C1244 1.320 . S
C1243 C1241 1.339 . S
C1243 C1242 1.395 . S
C1243 H1269 0.929 . S
C1244 C1242 1.320 . S
C1244 C1245 1.405 . S
C1244 H1270 0.930 . S
C1245 C1240 1.479 . S
C1245 C1244 1.405 . S
C1245 H1271 0.931 . S
U1246 O1247 2.454 1_655 S
U1246 O1248 2.458 . S
U1246 C1249 2.984 1_655 S
U1246 C1250 2.847 . S
U1246 C1263 2.882 . S
U1246 O1264 2.441 . S
U1246 O1265 2.420 . S
U1246 O1266 2.455 . S
U1246 O1267 2.449 . S
O1247 U1246 2.454 1_455 S
O1247 C1249 1.353 . S
O1248 U1246 2.458 . S
O1248 C1249 1.286 1_655 S
C1249 U1246 2.984 1_455 S
C1249 O1247 1.353 . S
C1249 O1248 1.286 1_455 S
C1249 C1251 1.363 . S
C1250 C1240 1.465 . S
C1250 U1246 2.847 . S
C1250 O1264 1.249 . S
C1250 O1265 1.202 . S
C1251 C1249 1.363 . S
C1251 C1253 1.408 . S
C1251 C1256 1.342 . S
C1252 C1253 1.310 . S
C1252 C1255 1.461 . S
C1252 H1272 0.932 . S
C1253 C1251 1.408 . S
C1253 C1252 1.310 . S
C1253 H1273 0.930 . S
C1254 C1255 1.474 . S
C1254 C1256 1.285 . S
C1254 H1274 0.929 . S
C1255 C1252 1.461 . S
C1255 C1254 1.474 . S
C1256 C1251 1.342 . S
C1256 C1254 1.285 . S
C1256 H1275 0.930 . S
C1257 C1260 1.424 . S
C1257 C1262 1.245 . S
C1257 C1263 1.428 . S
C1258 C1261 1.260 . S
C1258 C1262 1.477 . S
C1258 H1276 0.932 . S
C1259 C1260 1.384 . S
C1259 C1261 1.479 . S
C1259 H1277 0.929 . S
C1260 C1257 1.424 . S
C1260 C1259 1.384 . S
C1260 H1278 0.928 . S
C1261 C1258 1.260 . S
C1261 C1259 1.479 . S
C1262 C1257 1.245 . S
C1262 C1258 1.477 . S
C1262 H1279 0.932 . S
C1263 U1246 2.882 . S
C1263 C1257 1.428 . S
C1263 O1266 1.301 . S
C1263 O1267 1.282 . S
O1264 U1246 2.441 . S
O1264 C1250 1.249 . S
O1265 U1246 2.420 . S
O1265 C1250 1.202 . S
O1266 U1246 2.455 . S
O1266 C1263 1.301 . S
O1267 U1246 2.449 . S
O1267 C1263 1.282 . S
H1268 C1241 0.931 . S
H1269 C1243 0.929 . S
H1270 C1244 0.930 . S
H1271 C1245 0.931 . S
H1272 C1252 0.932 . S
H1273 C1253 0.930 . S
H1274 C1254 0.929 . S
H1275 C1256 0.930 . S
H1276 C1258 0.932 . S
H1277 C1259 0.929 . S
H1278 C1260 0.928 . S
H1279 C1262 0.932 . S
C1280 C1281 1.264 . S
C1280 C1285 1.479 . S
C1280 C1290 1.465 . S
C1281 C1280 1.264 . S
C1281 C1283 1.339 . S
C1281 H1308 0.931 . S
C1282 C1283 1.395 . S
C1282 C1284 1.320 . S
C1283 C1281 1.339 . S
C1283 C1282 1.395 . S
C1283 H1309 0.929 . S
C1284 C1282 1.320 . S
C1284 C1285 1.405 . S
C1284 H1310 0.930 . S
C1285 C1280 1.479 . S
C1285 C1284 1.405 . S
C1285 H1311 0.931 . S
U1286 O1287 2.454 . S
U1286 O1288 2.458 . S
U1286 C1289 2.984 . S
U1286 C1290 2.847 . S
U1286 C1303 2.882 . S
U1286 O1304 2.441 . S
U1286 O1305 2.420 . S
U1286 O1306 2.455 . S
U1286 O1307 2.449 . S
O1287 U1286 2.454 . S
O1287 C1289 1.353 . S
O1288 U1286 2.458 . S
O1288 C1289 1.286 . S
C1289 U1286 2.984 . S
C1289 O1287 1.353 . S
C1289 O1288 1.286 . S
C1289 C1291 1.363 . S
C1290 C1280 1.465 . S
C1290 U1286 2.847 . S
C1290 O1304 1.249 . S
C1290 O1305 1.202 . S
C1291 C1289 1.363 . S
C1291 C1293 1.408 . S
C1291 C1296 1.342 . S
C1292 C1293 1.310 . S
C1292 C1295 1.461 . S
C1292 H1312 0.932 . S
C1293 C1291 1.408 . S
C1293 C1292 1.310 . S
C1293 H1313 0.930 . S
C1294 C1295 1.474 . S
C1294 C1296 1.285 . S
C1294 H1314 0.929 . S
C1295 C1292 1.461 . S
C1295 C1294 1.474 . S
C1296 C1291 1.342 . S
C1296 C1294 1.285 . S
C1296 H1315 0.930 . S
C1297 C1300 1.424 . S
C1297 C1302 1.245 . S
C1297 C1303 1.428 . S
C1298 C1301 1.260 . S
C1298 C1302 1.477 . S
C1298 H1316 0.932 . S
C1299 C1300 1.384 . S
C1299 C1301 1.479 . S
C1299 H1317 0.929 . S
C1300 C1297 1.424 . S
C1300 C1299 1.384 . S
C1300 H1318 0.928 . S
C1301 C1298 1.260 . S
C1301 C1299 1.479 . S
C1302 C1297 1.245 . S
C1302 C1298 1.477 . S
C1302 H1319 0.932 . S
C1303 U1286 2.882 . S
C1303 C1297 1.428 . S
C1303 O1306 1.301 . S
C1303 O1307 1.282 . S
O1304 U1286 2.441 . S
O1304 C1290 1.249 . S
O1305 U1286 2.420 . S
O1305 C1290 1.202 . S
O1306 U1286 2.455 . S
O1306 C1303 1.301 . S
O1307 U1286 2.449 . S
O1307 C1303 1.282 . S
H1308 C1281 0.931 . S
H1309 C1283 0.929 . S
H1310 C1284 0.930 . S
H1311 C1285 0.931 . S
H1312 C1292 0.932 . S
H1313 C1293 0.930 . S
H1314 C1294 0.929 . S
H1315 C1296 0.930 . S
H1316 C1298 0.932 . S
H1317 C1299 0.929 . S
H1318 C1300 0.928 . S
H1319 C1302 0.932 . S
C1320 C1321 1.264 . S
C1320 C1325 1.479 . S
C1320 C1330 1.465 . S
C1321 C1320 1.264 . S
C1321 C1323 1.339 . S
C1321 H1348 0.931 . S
C1322 C1323 1.395 . S
C1322 C1324 1.320 . S
C1323 C1321 1.339 . S
C1323 C1322 1.395 . S
C1323 H1349 0.929 . S
C1324 C1322 1.320 . S
C1324 C1325 1.405 . S
C1324 H1350 0.930 . S
C1325 C1320 1.479 . S
C1325 C1324 1.405 . S
C1325 H1351 0.931 . S
U1326 O1327 2.454 . S
U1326 O1328 2.458 . S
U1326 C1329 2.984 . S
U1326 C1330 2.847 . S
U1326 C1343 2.882 . S
U1326 O1344 2.441 . S
U1326 O1345 2.420 . S
U1326 O1346 2.455 . S
U1326 O1347 2.449 . S
O1327 U1326 2.454 . S
O1327 C1329 1.353 . S
O1328 U1326 2.458 . S
O1328 C1329 1.286 . S
C1329 U1326 2.984 . S
C1329 O1327 1.353 . S
C1329 O1328 1.286 . S
C1329 C1331 1.363 . S
C1330 C1320 1.465 . S
C1330 U1326 2.847 . S
C1330 O1344 1.249 . S
C1330 O1345 1.202 . S
C1331 C1329 1.363 . S
C1331 C1333 1.408 1_556 S
C1331 C1336 1.346 . S
C1332 C1333 1.310 . S
C1332 C1335 1.461 . S
C1332 H1352 0.932 . S
C1333 C1331 1.408 1_554 S
C1333 C1332 1.310 . S
C1333 H1353 0.930 . S
C1334 C1335 1.474 . S
C1334 C1336 1.242 1_554 S
C1334 H1354 0.929 . S
C1335 C1332 1.461 . S
C1335 C1334 1.474 . S
C1336 C1331 1.346 . S
C1336 C1334 1.242 1_556 S
C1336 H1355 0.971 . S
C1337 C1340 1.424 . S
C1337 C1342 1.245 . S
C1337 C1343 1.428 . S
C1338 C1341 1.260 . S
C1338 C1342 1.477 . S
C1338 H1356 0.932 . S
C1339 C1340 1.384 . S
C1339 C1341 1.479 . S
C1339 H1357 0.929 . S
C1340 C1337 1.424 . S
C1340 C1339 1.384 . S
C1340 H1358 0.928 . S
C1341 C1338 1.260 . S
C1341 C1339 1.479 . S
C1342 C1337 1.245 . S
C1342 C1338 1.477 . S
C1342 H1359 0.932 . S
C1343 U1326 2.882 . S
C1343 C1337 1.428 . S
C1343 O1346 1.301 . S
C1343 O1347 1.282 . S
O1344 U1326 2.441 . S
O1344 C1330 1.249 . S
O1345 U1326 2.420 . S
O1345 C1330 1.202 . S
O1346 U1326 2.455 . S
O1346 C1343 1.301 . S
O1347 U1326 2.449 . S
O1347 C1343 1.282 . S
H1348 C1321 0.931 . S
H1349 C1323 0.929 . S
H1350 C1324 0.930 . S
H1351 C1325 0.931 . S
H1352 C1332 0.932 . S
H1353 C1333 0.930 . S
H1354 C1334 0.929 . S
H1355 C1336 0.971 . S
H1356 C1338 0.932 . S
H1357 C1339 0.929 . S
H1358 C1340 0.928 . S
H1359 C1342 0.932 . S
C1360 C1361 1.264 . S
C1360 C1365 1.479 . S
C1360 C1370 1.465 . S
C1361 C1360 1.264 . S
C1361 C1363 1.339 . S
C1361 H1388 0.931 . S
C1362 C1363 1.395 . S
C1362 C1364 1.320 . S
C1363 C1361 1.339 . S
C1363 C1362 1.395 . S
C1363 H1389 0.929 . S
C1364 C1362 1.320 . S
C1364 C1365 1.405 . S
C1364 H1390 0.930 . S
C1365 C1360 1.479 . S
C1365 C1364 1.405 . S
C1365 H1391 0.931 . S
U1366 O1367 2.454 . S
U1366 O1368 2.458 . S
U1366 C1369 2.984 . S
U1366 C1370 2.847 . S
U1366 C1383 2.882 . S
U1366 O1384 2.441 . S
U1366 O1385 2.420 . S
U1366 O1386 2.455 . S
U1366 O1387 2.449 . S
O1367 U1366 2.454 . S
O1367 C1369 1.353 . S
O1368 U1366 2.458 . S
O1368 C1369 1.286 . S
C1369 U1366 2.984 . S
C1369 O1367 1.353 . S
C1369 O1368 1.286 . S
C1369 C1371 1.363 . S
C1370 C1360 1.465 . S
C1370 U1366 2.847 . S
C1370 O1384 1.249 . S
C1370 O1385 1.202 . S
C1371 C1369 1.363 . S
C1371 C1373 1.408 . S
C1371 C1376 1.342 . S
C1372 C1373 1.310 . S
C1372 C1375 1.461 . S
C1372 H1392 0.932 . S
C1373 C1371 1.408 . S
C1373 C1372 1.310 . S
C1373 H1393 0.930 . S
C1374 C1375 1.474 . S
C1374 C1376 1.285 . S
C1374 H1394 0.929 . S
C1375 C1372 1.461 . S
C1375 C1374 1.474 . S
C1376 C1371 1.342 . S
C1376 C1374 1.285 . S
C1376 H1395 0.930 . S
C1377 C1380 1.424 . S
C1377 C1382 1.245 . S
C1377 C1383 1.428 . S
C1378 C1381 1.260 . S
C1378 C1382 1.477 . S
C1378 H1396 0.932 . S
C1379 C1380 1.384 . S
C1379 C1381 1.479 . S
C1379 H1397 0.929 . S
C1380 C1377 1.424 . S
C1380 C1379 1.384 . S
C1380 H1398 0.928 . S
C1381 C1378 1.260 . S
C1381 C1379 1.479 . S
C1382 C1377 1.245 . S
C1382 C1378 1.477 . S
C1382 H1399 0.932 . S
C1383 U1366 2.882 . S
C1383 C1377 1.428 . S
C1383 O1386 1.301 . S
C1383 O1387 1.282 . S
O1384 U1366 2.441 . S
O1384 C1370 1.249 . S
O1385 U1366 2.420 . S
O1385 C1370 1.202 . S
O1386 U1366 2.455 . S
O1386 C1383 1.301 . S
O1387 U1366 2.449 . S
O1387 C1383 1.282 . S
H1388 C1361 0.931 . S
H1389 C1363 0.929 . S
H1390 C1364 0.930 . S
H1391 C1365 0.931 . S
H1392 C1372 0.932 . S
H1393 C1373 0.930 . S
H1394 C1374 0.929 . S
H1395 C1376 0.930 . S
H1396 C1378 0.932 . S
H1397 C1379 0.929 . S
H1398 C1380 0.928 . S
H1399 C1382 0.932 . S
C1400 C1401 1.264 . S
C1400 C1405 1.479 . S
C1400 C1410 1.465 . S
C1401 C1400 1.264 . S
C1401 C1403 1.339 . S
C1401 H1428 0.931 . S
C1402 C1403 1.395 . S
C1402 C1404 1.320 . S
C1403 C1401 1.339 . S
C1403 C1402 1.395 . S
C1403 H1429 0.929 . S
C1404 C1402 1.320 . S
C1404 C1405 1.405 . S
C1404 H1430 0.930 . S
C1405 C1400 1.479 . S
C1405 C1404 1.405 . S
C1405 H1431 0.931 . S
U1406 O1407 2.454 . S
U1406 O1408 2.458 . S
U1406 C1409 2.984 . S
U1406 C1410 2.847 . S
U1406 C1423 2.882 . S
U1406 O1424 2.441 . S
U1406 O1425 2.420 . S
U1406 O1426 2.455 . S
U1406 O1427 2.449 . S
O1407 U1406 2.454 . S
O1407 C1409 1.353 . S
O1408 U1406 2.458 . S
O1408 C1409 1.286 . S
C1409 U1406 2.984 . S
C1409 O1407 1.353 . S
C1409 O1408 1.286 . S
C1409 C1411 1.363 . S
C1410 C1400 1.465 . S
C1410 U1406 2.847 . S
C1410 O1424 1.249 . S
C1410 O1425 1.202 . S
C1411 C1409 1.363 . S
C1411 C1413 1.408 . S
C1411 C1416 1.342 . S
C1412 C1413 1.310 . S
C1412 C1415 1.461 . S
C1412 H1432 0.932 . S
C1413 C1411 1.408 . S
C1413 C1412 1.310 . S
C1413 H1433 0.930 . S
C1414 C1415 1.474 . S
C1414 C1416 1.285 . S
C1414 H1434 0.929 . S
C1415 C1412 1.461 . S
C1415 C1414 1.474 . S
C1416 C1411 1.342 . S
C1416 C1414 1.285 . S
C1416 H1435 0.930 . S
C1417 C1420 1.424 . S
C1417 C1422 1.245 . S
C1417 C1423 1.428 . S
C1418 C1421 1.260 . S
C1418 C1422 1.477 . S
C1418 H1436 0.932 . S
C1419 C1420 1.384 . S
C1419 C1421 1.479 . S
C1419 H1437 0.929 . S
C1420 C1417 1.424 . S
C1420 C1419 1.384 . S
C1420 H1438 0.928 . S
C1421 C1418 1.260 . S
C1421 C1419 1.479 . S
C1422 C1417 1.245 . S
C1422 C1418 1.477 . S
C1422 H1439 0.932 . S
C1423 U1406 2.882 . S
C1423 C1417 1.428 . S
C1423 O1426 1.301 . S
C1423 O1427 1.282 . S
O1424 U1406 2.441 . S
O1424 C1410 1.249 . S
O1425 U1406 2.420 . S
O1425 C1410 1.202 . S
O1426 U1406 2.455 . S
O1426 C1423 1.301 . S
O1427 U1406 2.449 . S
O1427 C1423 1.282 . S
H1428 C1401 0.931 . S
H1429 C1403 0.929 . S
H1430 C1404 0.930 . S
H1431 C1405 0.931 . S
H1432 C1412 0.932 . S
H1433 C1413 0.930 . S
H1434 C1414 0.929 . S
H1435 C1416 0.930 . S
H1436 C1418 0.932 . S
H1437 C1419 0.929 . S
H1438 C1420 0.928 . S
H1439 C1422 0.932 . S
C1440 C1441 1.264 . S
C1440 C1445 1.479 . S
C1440 C1450 1.465 . S
C1441 C1440 1.264 . S
C1441 C1443 1.339 . S
C1441 H1468 0.931 . S
C1442 C1443 1.395 . S
C1442 C1444 1.320 . S
C1443 C1441 1.339 . S
C1443 C1442 1.395 . S
C1443 H1469 0.929 . S
C1444 C1442 1.320 . S
C1444 C1445 1.405 . S
C1444 H1470 0.930 . S
C1445 C1440 1.479 . S
C1445 C1444 1.405 . S
C1445 H1471 0.931 . S
U1446 O1447 2.454 . S
U1446 O1448 2.458 . S
U1446 C1449 2.984 . S
U1446 C1450 2.847 . S
U1446 C1463 2.882 . S
U1446 O1464 2.441 . S
U1446 O1465 2.420 . S
U1446 O1466 2.455 . S
U1446 O1467 2.449 . S
O1447 U1446 2.454 . S
O1447 C1449 1.353 . S
O1448 U1446 2.458 . S
O1448 C1449 1.286 . S
C1449 U1446 2.984 . S
C1449 O1447 1.353 . S
C1449 O1448 1.286 . S
C1449 C1451 1.363 . S
C1450 C1440 1.465 . S
C1450 U1446 2.847 . S
C1450 O1464 1.249 . S
C1450 O1465 1.202 . S
C1451 C1449 1.363 . S
C1451 C1453 1.408 . S
C1451 C1456 1.342 . S
C1452 C1453 1.310 . S
C1452 C1455 1.461 . S
C1452 H1472 0.932 . S
C1453 C1451 1.408 . S
C1453 C1452 1.310 . S
C1453 H1473 0.930 . S
C1454 C1455 1.474 . S
C1454 C1456 1.285 . S
C1454 H1474 0.929 . S
C1455 C1452 1.461 . S
C1455 C1454 1.474 . S
C1456 C1451 1.342 . S
C1456 C1454 1.285 . S
C1456 H1475 0.930 . S
C1457 C1460 1.424 . S
C1457 C1462 1.245 . S
C1457 C1463 1.428 . S
C1458 C1461 1.260 . S
C1458 C1462 1.477 . S
C1458 H1476 0.932 . S
C1459 C1460 1.384 . S
C1459 C1461 1.479 . S
C1459 H1477 0.929 . S
C1460 C1457 1.424 . S
C1460 C1459 1.384 . S
C1460 H1478 0.928 . S
C1461 C1458 1.260 . S
C1461 C1459 1.479 . S
C1462 C1457 1.245 . S
C1462 C1458 1.477 . S
C1462 H1479 0.932 . S
C1463 U1446 2.882 . S
C1463 C1457 1.428 . S
C1463 O1466 1.301 . S
C1463 O1467 1.282 . S
O1464 U1446 2.441 . S
O1464 C1450 1.249 . S
O1465 U1446 2.420 . S
O1465 C1450 1.202 . S
O1466 U1446 2.455 . S
O1466 C1463 1.301 . S
O1467 U1446 2.449 . S
O1467 C1463 1.282 . S
H1468 C1441 0.931 . S
H1469 C1443 0.929 . S
H1470 C1444 0.930 . S
H1471 C1445 0.931 . S
H1472 C1452 0.932 . S
H1473 C1453 0.930 . S
H1474 C1454 0.929 . S
H1475 C1456 0.930 . S
H1476 C1458 0.932 . S
H1477 C1459 0.929 . S
H1478 C1460 0.928 . S
H1479 C1462 0.932 . S
C1480 C1481 1.264 . S
C1480 C1485 1.479 . S
C1480 C1490 1.465 . S
C1481 C1480 1.264 . S
C1481 C1483 1.339 . S
C1481 H1508 0.931 . S
C1482 C1483 1.395 . S
C1482 C1484 1.320 . S
C1483 C1481 1.339 . S
C1483 C1482 1.395 . S
C1483 H1509 0.929 . S
C1484 C1482 1.320 . S
C1484 C1485 1.405 . S
C1484 H1510 0.930 . S
C1485 C1480 1.479 . S
C1485 C1484 1.405 . S
C1485 H1511 0.931 . S
U1486 O1487 2.454 . S
U1486 O1488 2.458 . S
U1486 C1489 2.984 . S
U1486 C1490 2.847 . S
U1486 C1503 2.882 . S
U1486 O1504 2.441 . S
U1486 O1505 2.420 . S
U1486 O1506 2.455 . S
U1486 O1507 2.449 . S
O1487 U1486 2.454 . S
O1487 C1489 1.353 . S
O1488 U1486 2.458 . S
O1488 C1489 1.286 . S
C1489 U1486 2.984 . S
C1489 O1487 1.353 . S
C1489 O1488 1.286 . S
C1489 C1491 1.363 . S
C1490 C1480 1.465 . S
C1490 U1486 2.847 . S
C1490 O1504 1.249 . S
C1490 O1505 1.202 . S
C1491 C1489 1.363 . S
C1491 C1493 1.408 . S
C1491 C1496 1.342 . S
C1492 C1493 1.310 . S
C1492 C1495 1.461 . S
C1492 H1512 0.932 . S
C1493 C1491 1.408 . S
C1493 C1492 1.310 . S
C1493 H1513 0.930 . S
C1494 C1495 1.474 . S
C1494 C1496 1.285 . S
C1494 H1514 0.929 . S
C1495 C1492 1.461 . S
C1495 C1494 1.474 . S
C1496 C1491 1.342 . S
C1496 C1494 1.285 . S
C1496 H1515 0.930 . S
C1497 C1500 1.424 . S
C1497 C1502 1.245 . S
C1497 C1503 1.428 . S
C1498 C1501 1.260 . S
C1498 C1502 1.477 . S
C1498 H1516 0.932 . S
C1499 C1500 1.384 . S
C1499 C1501 1.479 . S
C1499 H1517 0.929 . S
C1500 C1497 1.424 . S
C1500 C1499 1.384 . S
C1500 H1518 0.928 . S
C1501 C1498 1.260 . S
C1501 C1499 1.479 . S
C1502 C1497 1.245 . S
C1502 C1498 1.477 . S
C1502 H1519 0.932 . S
C1503 U1486 2.882 . S
C1503 C1497 1.428 . S
C1503 O1506 1.301 . S
C1503 O1507 1.282 . S
O1504 U1486 2.441 . S
O1504 C1490 1.249 . S
O1505 U1486 2.420 . S
O1505 C1490 1.202 . S
O1506 U1486 2.455 . S
O1506 C1503 1.301 . S
O1507 U1486 2.449 . S
O1507 C1503 1.282 . S
H1508 C1481 0.931 . S
H1509 C1483 0.929 . S
H1510 C1484 0.930 . S
H1511 C1485 0.931 . S
H1512 C1492 0.932 . S
H1513 C1493 0.930 . S
H1514 C1494 0.929 . S
H1515 C1496 0.930 . S
H1516 C1498 0.932 . S
H1517 C1499 0.929 . S
H1518 C1500 0.928 . S
H1519 C1502 0.932 . S
C1520 C1521 1.264 . S
C1520 C1525 1.479 . S
C1520 C1530 1.465 . S
C1521 C1520 1.264 . S
C1521 C1523 1.339 . S
C1521 H1548 0.931 . S
C1522 C1523 1.395 . S
C1522 C1524 1.320 . S
C1523 C1521 1.339 . S
C1523 C1522 1.395 . S
C1523 H1549 0.929 . S
C1524 C1522 1.320 . S
C1524 C1525 1.405 . S
C1524 H1550 0.930 . S
C1525 C1520 1.479 . S
C1525 C1524 1.405 . S
C1525 H1551 0.931 . S
U1526 O1527 2.454 . S
U1526 O1528 2.458 . S
U1526 C1529 2.984 . S
U1526 C1530 2.847 . S
U1526 C1543 2.882 . S
U1526 O1544 2.441 . S
U1526 O1545 2.420 . S
U1526 O1546 2.455 . S
U1526 O1547 2.449 . S
O1527 U1526 2.454 . S
O1527 C1529 1.353 . S
O1528 U1526 2.458 . S
O1528 C1529 1.286 . S
C1529 U1526 2.984 . S
C1529 O1527 1.353 . S
C1529 O1528 1.286 . S
C1529 C1531 1.363 . S
C1530 C1520 1.465 . S
C1530 U1526 2.847 . S
C1530 O1544 1.249 . S
C1530 O1545 1.202 . S
C1531 C1529 1.363 . S
C1531 C1533 1.408 . S
C1531 C1536 1.342 . S
C1532 C1533 1.310 . S
C1532 C1535 1.461 . S
C1532 H1552 0.932 . S
C1533 C1531 1.408 . S
C1533 C1532 1.310 . S
C1533 H1553 0.930 . S
C1534 C1535 1.474 . S
C1534 C1536 1.285 . S
C1534 H1554 0.929 . S
C1535 C1532 1.461 . S
C1535 C1534 1.474 . S
C1536 C1531 1.342 . S
C1536 C1534 1.285 . S
C1536 H1555 0.930 . S
C1537 C1540 1.424 . S
C1537 C1542 1.245 . S
C1537 C1543 1.428 . S
C1538 C1541 1.260 . S
C1538 C1542 1.477 . S
C1538 H1556 0.932 . S
C1539 C1540 1.384 . S
C1539 C1541 1.479 . S
C1539 H1557 0.929 . S
C1540 C1537 1.424 . S
C1540 C1539 1.384 . S
C1540 H1558 0.928 . S
C1541 C1538 1.260 . S
C1541 C1539 1.479 . S
C1542 C1537 1.245 . S
C1542 C1538 1.477 . S
C1542 H1559 0.932 . S
C1543 U1526 2.882 . S
C1543 C1537 1.428 . S
C1543 O1546 1.301 . S
C1543 O1547 1.282 . S
O1544 U1526 2.441 . S
O1544 C1530 1.249 . S
O1545 U1526 2.420 . S
O1545 C1530 1.202 . S
O1546 U1526 2.455 . S
O1546 C1543 1.301 . S
O1547 U1526 2.449 . S
O1547 C1543 1.282 . S
H1548 C1521 0.931 . S
H1549 C1523 0.929 . S
H1550 C1524 0.930 . S
H1551 C1525 0.931 . S
H1552 C1532 0.932 . S
H1553 C1533 0.930 . S
H1554 C1534 0.929 . S
H1555 C1536 0.930 . S
H1556 C1538 0.932 . S
H1557 C1539 0.929 . S
H1558 C1540 0.928 . S
H1559 C1542 0.932 . S
C1560 C1561 1.264 . S
C1560 C1565 1.479 . S
C1560 C1570 1.465 . S
C1561 C1560 1.264 . S
C1561 C1563 1.339 . S
C1561 H1588 0.931 . S
C1562 C1563 1.395 . S
C1562 C1564 1.320 . S
C1563 C1561 1.339 . S
C1563 C1562 1.395 . S
C1563 H1589 0.929 . S
C1564 C1562 1.320 . S
C1564 C1565 1.405 . S
C1564 H1590 0.930 . S
C1565 C1560 1.479 . S
C1565 C1564 1.405 . S
C1565 H1591 0.931 . S
U1566 O1567 2.454 . S
U1566 O1568 2.458 . S
U1566 C1569 2.984 . S
U1566 C1570 2.847 . S
U1566 C1583 2.882 . S
U1566 O1584 2.441 . S
U1566 O1585 2.420 . S
U1566 O1586 2.455 . S
U1566 O1587 2.449 . S
O1567 U1566 2.454 . S
O1567 C1569 1.353 . S
O1568 U1566 2.458 . S
O1568 C1569 1.286 . S
C1569 U1566 2.984 . S
C1569 O1567 1.353 . S
C1569 O1568 1.286 . S
C1569 C1571 1.363 . S
C1570 C1560 1.465 . S
C1570 U1566 2.847 . S
C1570 O1584 1.249 . S
C1570 O1585 1.202 . S
C1571 C1569 1.363 . S
C1571 C1573 1.408 . S
C1571 C1576 1.342 . S
C1572 C1573 1.310 . S
C1572 C1575 1.461 . S
C1572 H1592 0.932 . S
C1573 C1571 1.408 . S
C1573 C1572 1.310 . S
C1573 H1593 0.930 . S
C1574 C1575 1.474 . S
C1574 C1576 1.285 . S
C1574 H1594 0.929 . S
C1575 C1572 1.461 . S
C1575 C1574 1.474 . S
C1576 C1571 1.342 . S
C1576 C1574 1.285 . S
C1576 H1595 0.930 . S
C1577 C1580 1.424 . S
C1577 C1582 1.245 . S
C1577 C1583 1.428 . S
C1578 C1581 1.260 . S
C1578 C1582 1.477 . S
C1578 H1596 0.932 . S
C1579 C1580 1.384 . S
C1579 C1581 1.479 . S
C1579 H1597 0.929 . S
C1580 C1577 1.424 . S
C1580 C1579 1.384 . S
C1580 H1598 0.928 . S
C1581 C1578 1.260 . S
C1581 C1579 1.479 . S
C1582 C1577 1.245 . S
C1582 C1578 1.477 . S
C1582 H1599 0.932 . S
C1583 U1566 2.882 . S
C1583 C1577 1.428 . S
C1583 O1586 1.301 . S
C1583 O1587 1.282 . S
O1584 U1566 2.441 . S
O1584 C1570 1.249 . S
O1585 U1566 2.420 . S
O1585 C1570 1.202 . S
O1586 U1566 2.455 . S
O1586 C1583 1.301 . S
O1587 U1566 2.449 . S
O1587 C1583 1.282 . S
H1588 C1561 0.931 . S
H1589 C1563 0.929 . S
H1590 C1564 0.930 . S
H1591 C1565 0.931 . S
H1592 C1572 0.932 . S
H1593 C1573 0.930 . S
H1594 C1574 0.929 . S
H1595 C1576 0.930 . S
H1596 C1578 0.932 . S
H1597 C1579 0.929 . S
H1598 C1580 0.928 . S
H1599 C1582 0.932 . S
C1600 C1601 1.264 . S
C1600 C1605 1.479 . S
C1600 C1610 1.465 . S
C1601 C1600 1.264 . S
C1601 C1603 1.339 . S
C1601 H1628 0.931 . S
C1602 C1603 1.395 . S
C1602 C1604 1.320 . S
C1603 C1601 1.339 . S
C1603 C1602 1.395 . S
C1603 H1629 0.929 . S
C1604 C1602 1.320 . S
C1604 C1605 1.405 . S
C1604 H1630 0.930 . S
C1605 C1600 1.479 . S
C1605 C1604 1.405 . S
C1605 H1631 0.931 . S
U1606 O1607 2.454 . S
U1606 O1608 2.458 . S
U1606 C1609 2.984 . S
U1606 C1610 2.847 1_455 S
U1606 C1623 2.882 . S
U1606 O1624 2.441 1_455 S
U1606 O1625 2.420 1_455 S
U1606 O1626 2.455 . S
U1606 O1627 2.449 . S
O1607 U1606 2.454 . S
O1607 C1609 1.353 . S
O1608 U1606 2.458 . S
O1608 C1609 1.286 . S
C1609 U1606 2.984 . S
C1609 O1607 1.353 . S
C1609 O1608 1.286 . S
C1609 C1611 1.363 . S
C1610 C1600 1.465 . S
C1610 U1606 2.847 1_655 S
C1610 O1624 1.249 . S
C1610 O1625 1.202 . S
C1611 C1609 1.363 . S
C1611 C1613 1.408 . S
C1611 C1616 1.342 . S
C1612 C1613 1.310 . S
C1612 C1615 1.461 . S
C1612 H1632 0.932 . S
C1613 C1611 1.408 . S
C1613 C1612 1.310 . S
C1613 H1633 0.930 . S
C1614 C1615 1.474 . S
C1614 C1616 1.285 . S
C1614 H1634 0.929 . S
C1615 C1612 1.461 . S
C1615 C1614 1.474 . S
C1616 C1611 1.342 . S
C1616 C1614 1.285 . S
C1616 H1635 0.930 . S
C1617 C1620 1.424 . S
C1617 C1622 1.245 . S
C1617 C1623 1.428 . S
C1618 C1621 1.260 . S
C1618 C1622 1.477 . S
C1618 H1636 0.932 . S
C1619 C1620 1.384 . S
C1619 C1621 1.479 . S
C1619 H1637 0.929 . S
C1620 C1617 1.424 . S
C1620 C1619 1.384 . S
C1620 H1638 0.928 . S
C1621 C1618 1.260 . S
C1621 C1619 1.479 . S
C1622 C1617 1.245 . S
C1622 C1618 1.477 . S
C1622 H1639 0.932 . S
C1623 U1606 2.882 . S
C1623 C1617 1.428 . S
C1623 O1626 1.301 . S
C1623 O1627 1.282 . S
O1624 U1606 2.441 1_655 S
O1624 C1610 1.249 . S
O1625 U1606 2.420 1_655 S
O1625 C1610 1.202 . S
O1626 U1606 2.455 . S
O1626 C1623 1.301 . S
O1627 U1606 2.449 . S
O1627 C1623 1.282 . S
H1628 C1601 0.931 . S
H1629 C1603 0.929 . S
H1630 C1604 0.930 . S
H1631 C1605 0.931 . S
H1632 C1612 0.932 . S
H1633 C1613 0.930 . S
H1634 C1614 0.929 . S
H1635 C1616 0.930 . S
H1636 C1618 0.932 . S
H1637 C1619 0.929 . S
H1638 C1620 0.928 . S
H1639 C1622 0.932 . S
C1640 C1641 1.264 . S
C1640 C1645 1.479 . S
C1640 C1650 1.465 . S
C1641 C1640 1.264 . S
C1641 C1643 1.339 . S
C1641 H1668 0.931 . S
C1642 C1643 1.395 . S
C1642 C1644 1.320 . S
C1643 C1641 1.339 . S
C1643 C1642 1.395 . S
C1643 H1669 0.929 . S
C1644 C1642 1.320 . S
C1644 C1645 1.405 . S
C1644 H1670 0.930 . S
C1645 C1640 1.479 . S
C1645 C1644 1.405 . S
C1645 H1671 0.931 . S
U1646 O1647 2.454 . S
U1646 O1648 2.458 . S
U1646 C1649 2.984 . S
U1646 C1650 2.847 . S
U1646 C1663 2.882 . S
U1646 O1664 2.441 . S
U1646 O1665 2.420 . S
U1646 O1666 2.455 . S
U1646 O1667 2.449 . S
O1647 U1646 2.454 . S
O1647 C1649 1.353 . S
O1648 U1646 2.458 . S
O1648 C1649 1.286 . S
C1649 U1646 2.984 . S
C1649 O1647 1.353 . S
C1649 O1648 1.286 . S
C1649 C1651 1.363 . S
C1650 C1640 1.465 . S
C1650 U1646 2.847 . S
C1650 O1664 1.249 . S
C1650 O1665 1.202 . S
C1651 C1649 1.363 . S
C1651 C1653 1.408 . S
C1651 C1656 1.342 . S
C1652 C1653 1.310 . S
C1652 C1655 1.461 . S
C1652 H1672 0.932 . S
C1653 C1651 1.408 . S
C1653 C1652 1.310 . S
C1653 H1673 0.930 . S
C1654 C1655 1.474 . S
C1654 C1656 1.285 . S
C1654 H1674 0.929 . S
C1655 C1652 1.461 . S
C1655 C1654 1.474 . S
C1656 C1651 1.342 . S
C1656 C1654 1.285 . S
C1656 H1675 0.930 . S
C1657 C1660 1.424 . S
C1657 C1662 1.245 . S
C1657 C1663 1.428 . S
C1658 C1661 1.260 . S
C1658 C1662 1.477 . S
C1658 H1676 0.932 . S
C1659 C1660 1.384 . S
C1659 C1661 1.479 . S
C1659 H1677 0.929 . S
C1660 C1657 1.424 . S
C1660 C1659 1.384 . S
C1660 H1678 0.928 . S
C1661 C1658 1.260 . S
C1661 C1659 1.479 . S
C1662 C1657 1.245 . S
C1662 C1658 1.477 . S
C1662 H1679 0.932 . S
C1663 U1646 2.882 . S
C1663 C1657 1.428 . S
C1663 O1666 1.301 . S
C1663 O1667 1.282 . S
O1664 U1646 2.441 . S
O1664 C1650 1.249 . S
O1665 U1646 2.420 . S
O1665 C1650 1.202 . S
O1666 U1646 2.455 . S
O1666 C1663 1.301 . S
O1667 U1646 2.449 . S
O1667 C1663 1.282 . S
H1668 C1641 0.931 . S
H1669 C1643 0.929 . S
H1670 C1644 0.930 . S
H1671 C1645 0.931 . S
H1672 C1652 0.932 . S
H1673 C1653 0.930 . S
H1674 C1654 0.929 . S
H1675 C1656 0.930 . S
H1676 C1658 0.932 . S
H1677 C1659 0.929 . S
H1678 C1660 0.928 . S
H1679 C1662 0.932 . S
C1680 C1681 1.264 . S
C1680 C1685 1.479 . S
C1680 C1690 1.465 . S
C1681 C1680 1.264 . S
C1681 C1683 1.339 . S
C1681 H1708 0.931 . S
C1682 C1683 1.395 . S
C1682 C1684 1.320 . S
C1683 C1681 1.339 . S
C1683 C1682 1.395 . S
C1683 H1709 0.929 . S
C1684 C1682 1.320 . S
C1684 C1685 1.405 . S
C1684 H1710 0.930 . S
C1685 C1680 1.479 . S
C1685 C1684 1.405 . S
C1685 H1711 0.931 . S
U1686 O1687 2.408 1_554 S
U1686 O1688 2.458 . S
U1686 C1689 2.984 1_554 S
U1686 C1690 2.847 . S
U1686 C1703 2.882 . S
U1686 O1704 2.441 . S
U1686 O1705 2.420 . S
U1686 O1706 2.455 . S
U1686 O1707 2.449 . S
O1687 U1686 2.408 1_556 S
O1687 C1689 1.378 . S
O1688 U1686 2.458 . S
O1688 C1689 1.286 1_554 S
C1689 U1686 2.984 1_556 S
C1689 O1687 1.378 . S
C1689 O1688 1.286 1_556 S
C1689 C1691 1.363 . S
C1690 C1680 1.465 . S
C1690 U1686 2.847 . S
C1690 O1704 1.249 . S
C1690 O1705 1.202 . S
C1691 C1689 1.363 . S
C1691 C1693 1.408 . S
C1691 C1696 1.342 . S
C1692 C1693 1.310 . S
C1692 C1695 1.461 . S
C1692 H1712 0.932 . S
C1693 C1691 1.408 . S
C1693 C1692 1.310 . S
C1693 H1713 0.930 . S
C1694 C1695 1.474 . S
C1694 C1696 1.285 . S
C1694 H1714 0.929 . S
C1695 C1692 1.461 . S
C1695 C1694 1.474 . S
C1696 C1691 1.342 . S
C1696 C1694 1.285 . S
C1696 H1715 0.930 . S
C1697 C1700 1.424 . S
C1697 C1702 1.245 . S
C1697 C1703 1.428 . S
C1698 C1701 1.260 . S
C1698 C1702 1.477 . S
C1698 H1716 0.932 . S
C1699 C1700 1.384 . S
C1699 C1701 1.479 . S
C1699 H1717 0.929 . S
C1700 C1697 1.424 . S
C1700 C1699 1.384 . S
C1700 H1718 0.928 . S
C1701 C1698 1.260 . S
C1701 C1699 1.479 . S
C1702 C1697 1.245 . S
C1702 C1698 1.477 . S
C1702 H1719 0.932 . S
C1703 U1686 2.882 . S
C1703 C1697 1.428 . S
C1703 O1706 1.301 . S
C1703 O1707 1.282 . S
O1704 U1686 2.441 . S
O1704 C1690 1.249 . S
O1705 U1686 2.420 . S
O1705 C1690 1.202 . S
O1706 U1686 2.455 . S
O1706 C1703 1.301 . S
O1707 U1686 2.449 . S
O1707 C1703 1.282 . S
H1708 C1681 0.931 . S
H1709 C1683 0.929 . S
H1710 C1684 0.930 . S
H1711 C1685 0.931 . S
H1712 C1692 0.932 . S
H1713 C1693 0.930 . S
H1714 C1694 0.929 . S
H1715 C1696 0.930 . S
H1716 C1698 0.932 . S
H1717 C1699 0.929 . S
H1718 C1700 0.928 . S
H1719 C1702 0.932 . S
C1720 C1721 1.264 . S
C1720 C1725 1.479 . S
C1720 C1730 1.465 . S
C1721 C1720 1.264 . S
C1721 C1723 1.339 . S
C1721 H1748 0.931 . S
C1722 C1723 1.395 . S
C1722 C1724 1.320 . S
C1723 C1721 1.339 . S
C1723 C1722 1.395 . S
C1723 H1749 0.929 . S
C1724 C1722 1.320 . S
C1724 C1725 1.405 . S
C1724 H1750 0.930 . S
C1725 C1720 1.479 . S
C1725 C1724 1.405 . S
C1725 H1751 0.931 . S
U1726 O1727 2.454 . S
U1726 O1728 2.458 . S
U1726 C1729 2.984 . S
U1726 C1730 2.847 . S
U1726 C1743 2.882 . S
U1726 O1744 2.441 . S
U1726 O1745 2.420 . S
U1726 O1746 2.455 . S
U1726 O1747 2.449 . S
O1727 U1726 2.454 . S
O1727 C1729 1.353 . S
O1728 U1726 2.458 . S
O1728 C1729 1.286 . S
C1729 U1726 2.984 . S
C1729 O1727 1.353 . S
C1729 O1728 1.286 . S
C1729 C1731 1.363 . S
C1730 C1720 1.465 . S
C1730 U1726 2.847 . S
C1730 O1744 1.249 . S
C1730 O1745 1.202 . S
C1731 C1729 1.363 . S
C1731 C1733 1.408 . S
C1731 C1736 1.342 . S
C1732 C1733 1.310 . S
C1732 C1735 1.461 . S
C1732 H1752 0.932 . S
C1733 C1731 1.408 . S
C1733 C1732 1.310 . S
C1733 H1753 0.930 . S
C1734 C1735 1.474 . S
C1734 C1736 1.285 . S
C1734 H1754 0.929 . S
C1735 C1732 1.461 . S
C1735 C1734 1.474 . S
C1736 C1731 1.342 . S
C1736 C1734 1.285 . S
C1736 H1755 0.930 . S
C1737 C1740 1.424 . S
C1737 C1742 1.245 . S
C1737 C1743 1.428 . S
C1738 C1741 1.260 . S
C1738 C1742 1.477 . S
C1738 H1756 0.932 . S
C1739 C1740 1.384 . S
C1739 C1741 1.479 . S
C1739 H1757 0.929 . S
C1740 C1737 1.424 . S
C1740 C1739 1.384 . S
C1740 H1758 0.928 . S
C1741 C1738 1.260 . S
C1741 C1739 1.479 . S
C1742 C1737 1.245 . S
C1742 C1738 1.477 . S
C1742 H1759 0.932 . S
C1743 U1726 2.882 . S
C1743 C1737 1.428 . S
C1743 O1746 1.301 . S
C1743 O1747 1.282 . S
O1744 U1726 2.441 . S
O1744 C1730 1.249 . S
O1745 U1726 2.420 . S
O1745 C1730 1.202 . S
O1746 U1726 2.455 . S
O1746 C1743 1.301 . S
O1747 U1726 2.449 . S
O1747 C1743 1.282 . S
H1748 C1721 0.931 . S
H1749 C1723 0.929 . S
H1750 C1724 0.930 . S
H1751 C1725 0.931 . S
H1752 C1732 0.932 . S
H1753 C1733 0.930 . S
H1754 C1734 0.929 . S
H1755 C1736 0.930 . S
H1756 C1738 0.932 . S
H1757 C1739 0.929 . S
H1758 C1740 0.928 . S
H1759 C1742 0.932 . S
C1760 C1761 1.264 . S
C1760 C1765 1.479 . S
C1760 C1770 1.465 . S
C1761 C1760 1.264 . S
C1761 C1763 1.339 . S
C1761 H1788 0.931 . S
C1762 C1763 1.395 . S
C1762 C1764 1.320 . S
C1763 C1761 1.339 . S
C1763 C1762 1.395 . S
C1763 H1789 0.929 . S
C1764 C1762 1.320 . S
C1764 C1765 1.405 . S
C1764 H1790 0.930 . S
C1765 C1760 1.479 . S
C1765 C1764 1.405 . S
C1765 H1791 0.931 . S
U1766 O1767 2.454 . S
U1766 O1768 2.458 . S
U1766 C1769 2.984 . S
U1766 C1770 2.847 . S
U1766 C1783 2.882 . S
U1766 O1784 2.441 . S
U1766 O1785 2.420 . S
U1766 O1786 2.455 . S
U1766 O1787 2.449 . S
O1767 U1766 2.454 . S
O1767 C1769 1.353 . S
O1768 U1766 2.458 . S
O1768 C1769 1.286 . S
C1769 U1766 2.984 . S
C1769 O1767 1.353 . S
C1769 O1768 1.286 . S
C1769 C1771 1.363 . S
C1770 C1760 1.465 . S
C1770 U1766 2.847 . S
C1770 O1784 1.249 . S
C1770 O1785 1.202 . S
C1771 C1769 1.363 . S
C1771 C1773 1.408 . S
C1771 C1776 1.342 . S
C1772 C1773 1.310 . S
C1772 C1775 1.461 . S
C1772 H1792 0.932 . S
C1773 C1771 1.408 . S
C1773 C1772 1.310 . S
C1773 H1793 0.930 . S
C1774 C1775 1.474 . S
C1774 C1776 1.285 . S
C1774 H1794 0.929 . S
C1775 C1772 1.461 . S
C1775 C1774 1.474 . S
C1776 C1771 1.342 . S
C1776 C1774 1.285 . S
C1776 H1795 0.930 . S
C1777 C1780 1.424 . S
C1777 C1782 1.245 . S
C1777 C1783 1.428 . S
C1778 C1781 1.260 . S
C1778 C1782 1.477 . S
C1778 H1796 0.932 . S
C1779 C1780 1.384 . S
C1779 C1781 1.479 . S
C1779 H1797 0.929 . S
C1780 C1777 1.424 . S
C1780 C1779 1.384 . S
C1780 H1798 0.928 . S
C1781 C1778 1.260 . S
C1781 C1779 1.479 . S
C1782 C1777 1.245 . S
C1782 C1778 1.477 . S
C1782 H1799 0.932 . S
C1783 U1766 2.882 . S
C1783 C1777 1.428 . S
C1783 O1786 1.301 . S
C1783 O1787 1.282 . S
O1784 U1766 2.441 . S
O1784 C1770 1.249 . S
O1785 U1766 2.420 . S
O1785 C1770 1.202 . S
O1786 U1766 2.455 . S
O1786 C1783 1.301 . S
O1787 U1766 2.449 . S
O1787 C1783 1.282 . S
H1788 C1761 0.931 . S
H1789 C1763 0.929 . S
H1790 C1764 0.930 . S
H1791 C1765 0.931 . S
H1792 C1772 0.932 . S
H1793 C1773 0.930 . S
H1794 C1774 0.929 . S
H1795 C1776 0.930 . S
H1796 C1778 0.932 . S
H1797 C1779 0.929 . S
H1798 C1780 0.928 . S
H1799 C1782 0.932 . S
C1800 C1801 1.264 . S
C1800 C1805 1.479 . S
C1800 C1810 1.465 . S
C1801 C1800 1.264 . S
C1801 C1803 1.339 . S
C1801 H1828 0.931 . S
C1802 C1803 1.395 . S
C1802 C1804 1.320 . S
C1803 C1801 1.339 . S
C1803 C1802 1.395 . S
C1803 H1829 0.929 . S
C1804 C1802 1.320 . S
C1804 C1805 1.405 . S
C1804 H1830 0.930 . S
C1805 C1800 1.479 . S
C1805 C1804 1.405 . S
C1805 H1831 0.931 . S
U1806 O1807 2.454 . S
U1806 O1808 2.458 . S
U1806 C1809 2.984 . S
U1806 C1810 2.847 . S
U1806 C1823 2.882 . S
U1806 O1824 2.441 . S
U1806 O1825 2.420 . S
U1806 O1826 2.455 . S
U1806 O1827 2.449 . S
O1807 U1806 2.454 . S
O1807 C1809 1.353 . S
O1808 U1806 2.458 . S
O1808 C1809 1.286 . S
C1809 U1806 2.984 . S
C1809 O1807 1.353 . S
C1809 O1808 1.286 . S
C1809 C1811 1.363 . S
C1810 C1800 1.465 . S
C1810 U1806 2.847 . S
C1810 O1824 1.249 . S
C1810 O1825 1.202 . S
C1811 C1809 1.363 . S
C1811 C1813 1.408 . S
C1811 C1816 1.342 . S
C1812 C1813 1.310 . S
C1812 C1815 1.461 . S
C1812 H1832 0.932 . S
C1813 C1811 1.408 . S
C1813 C1812 1.310 . S
C1813 H1833 0.930 . S
C1814 C1815 1.474 . S
C1814 C1816 1.285 . S
C1814 H1834 0.929 . S
C1815 C1812 1.461 . S
C1815 C1814 1.474 . S
C1816 C1811 1.342 . S
C1816 C1814 1.285 . S
C1816 H1835 0.930 . S
C1817 C1820 1.424 . S
C1817 C1822 1.245 . S
C1817 C1823 1.428 . S
C1818 C1821 1.260 . S
C1818 C1822 1.477 . S
C1818 H1836 0.932 . S
C1819 C1820 1.384 . S
C1819 C1821 1.479 . S
C1819 H1837 0.929 . S
C1820 C1817 1.424 . S
C1820 C1819 1.384 . S
C1820 H1838 0.928 . S
C1821 C1818 1.260 . S
C1821 C1819 1.479 . S
C1822 C1817 1.245 . S
C1822 C1818 1.477 . S
C1822 H1839 0.932 . S
C1823 U1806 2.882 . S
C1823 C1817 1.428 . S
C1823 O1826 1.301 . S
C1823 O1827 1.282 . S
O1824 U1806 2.441 . S
O1824 C1810 1.249 . S
O1825 U1806 2.420 . S
O1825 C1810 1.202 . S
O1826 U1806 2.455 . S
O1826 C1823 1.301 . S
O1827 U1806 2.449 . S
O1827 C1823 1.282 . S
H1828 C1801 0.931 . S
H1829 C1803 0.929 . S
H1830 C1804 0.930 . S
H1831 C1805 0.931 . S
H1832 C1812 0.932 . S
H1833 C1813 0.930 . S
H1834 C1814 0.929 . S
H1835 C1816 0.930 . S
H1836 C1818 0.932 . S
H1837 C1819 0.929 . S
H1838 C1820 0.928 . S
H1839 C1822 0.932 . S
C1840 C1841 1.264 . S
C1840 C1845 1.479 . S
C1840 C1850 1.465 . S
C1841 C1840 1.264 . S
C1841 C1843 1.339 . S
C1841 H1868 0.931 . S
C1842 C1843 1.395 . S
C1842 C1844 1.320 . S
C1843 C1841 1.339 . S
C1843 C1842 1.395 . S
C1843 H1869 0.929 . S
C1844 C1842 1.320 . S
C1844 C1845 1.405 . S
C1844 H1870 0.930 . S
C1845 C1840 1.479 . S
C1845 C1844 1.405 . S
C1845 H1871 0.931 . S
U1846 O1847 2.454 . S
U1846 O1848 2.458 . S
U1846 C1849 2.984 . S
U1846 C1850 2.847 . S
U1846 C1863 2.882 . S
U1846 O1864 2.441 . S
U1846 O1865 2.420 . S
U1846 O1866 2.455 . S
U1846 O1867 2.449 . S
O1847 U1846 2.454 . S
O1847 C1849 1.353 . S
O1848 U1846 2.458 . S
O1848 C1849 1.286 . S
C1849 U1846 2.984 . S
C1849 O1847 1.353 . S
C1849 O1848 1.286 . S
C1849 C1851 1.363 . S
C1850 C1840 1.465 . S
C1850 U1846 2.847 . S
C1850 O1864 1.249 . S
C1850 O1865 1.202 . S
C1851 C1849 1.363 . S
C1851 C1853 1.408 . S
C1851 C1856 1.342 . S
C1852 C1853 1.310 . S
C1852 C1855 1.461 . S
C1852 H1872 0.932 . S
C1853 C1851 1.408 . S
C1853 C1852 1.310 . S
C1853 H1873 0.930 . S
C1854 C1855 1.474 . S
C1854 C1856 1.285 . S
C1854 H1874 0.929 . S
C1855 C1852 1.461 . S
C1855 C1854 1.474 . S
C1856 C1851 1.342 . S
C1856 C1854 1.285 . S
C1856 H1875 0.930 . S
C1857 C1860 1.424 . S
C1857 C1862 1.245 . S
C1857 C1863 1.428 . S
C1858 C1861 1.260 . S
C1858 C1862 1.477 . S
C1858 H1876 0.932 . S
C1859 C1860 1.384 . S
C1859 C1861 1.479 . S
C1859 H1877 0.929 . S
C1860 C1857 1.424 . S
C1860 C1859 1.384 . S
C1860 H1878 0.928 . S
C1861 C1858 1.260 . S
C1861 C1859 1.479 . S
C1862 C1857 1.245 . S
C1862 C1858 1.477 . S
C1862 H1879 0.932 . S
C1863 U1846 2.882 . S
C1863 C1857 1.428 . S
C1863 O1866 1.301 . S
C1863 O1867 1.282 . S
O1864 U1846 2.441 . S
O1864 C1850 1.249 . S
O1865 U1846 2.420 . S
O1865 C1850 1.202 . S
O1866 U1846 2.455 . S
O1866 C1863 1.301 . S
O1867 U1846 2.449 . S
O1867 C1863 1.282 . S
H1868 C1841 0.931 . S
H1869 C1843 0.929 . S
H1870 C1844 0.930 . S
H1871 C1845 0.931 . S
H1872 C1852 0.932 . S
H1873 C1853 0.930 . S
H1874 C1854 0.929 . S
H1875 C1856 0.930 . S
H1876 C1858 0.932 . S
H1877 C1859 0.929 . S
H1878 C1860 0.928 . S
H1879 C1862 0.932 . S
C1880 C1881 1.264 . S
C1880 C1885 1.479 . S
C1880 C1890 1.465 . S
C1881 C1880 1.264 . S
C1881 C1883 1.339 . S
C1881 H1908 0.931 . S
C1882 C1883 1.395 . S
C1882 C1884 1.320 . S
C1883 C1881 1.339 . S
C1883 C1882 1.395 . S
C1883 H1909 0.929 . S
C1884 C1882 1.320 . S
C1884 C1885 1.405 . S
C1884 H1910 0.930 . S
C1885 C1880 1.479 . S
C1885 C1884 1.405 . S
C1885 H1911 0.931 . S
U1886 O1887 2.454 . S
U1886 O1888 2.458 . S
U1886 C1889 2.984 . S
U1886 C1890 2.847 . S
U1886 C1903 2.882 . S
U1886 O1904 2.441 . S
U1886 O1905 2.420 . S
U1886 O1906 2.455 . S
U1886 O1907 2.449 . S
O1887 U1886 2.454 . S
O1887 C1889 1.353 . S
O1888 U1886 2.458 . S
O1888 C1889 1.286 . S
C1889 U1886 2.984 . S
C1889 O1887 1.353 . S
C1889 O1888 1.286 . S
C1889 C1891 1.363 . S
C1890 C1880 1.465 . S
C1890 U1886 2.847 . S
C1890 O1904 1.249 . S
C1890 O1905 1.202 . S
C1891 C1889 1.363 . S
C1891 C1893 1.408 . S
C1891 C1896 1.342 . S
C1892 C1893 1.310 . S
C1892 C1895 1.461 . S
C1892 H1912 0.932 . S
C1893 C1891 1.408 . S
C1893 C1892 1.310 . S
C1893 H1913 0.930 . S
C1894 C1895 1.474 . S
C1894 C1896 1.285 . S
C1894 H1914 0.929 . S
C1895 C1892 1.461 . S
C1895 C1894 1.474 . S
C1896 C1891 1.342 . S
C1896 C1894 1.285 . S
C1896 H1915 0.930 . S
C1897 C1900 1.424 . S
C1897 C1902 1.245 . S
C1897 C1903 1.428 . S
C1898 C1901 1.260 . S
C1898 C1902 1.477 . S
C1898 H1916 0.932 . S
C1899 C1900 1.384 . S
C1899 C1901 1.479 . S
C1899 H1917 0.929 . S
C1900 C1897 1.424 . S
C1900 C1899 1.384 . S
C1900 H1918 0.928 . S
C1901 C1898 1.260 . S
C1901 C1899 1.479 . S
C1902 C1897 1.245 . S
C1902 C1898 1.477 . S
C1902 H1919 0.932 . S
C1903 U1886 2.882 . S
C1903 C1897 1.428 . S
C1903 O1906 1.301 . S
C1903 O1907 1.282 . S
O1904 U1886 2.441 . S
O1904 C1890 1.249 . S
O1905 U1886 2.420 . S
O1905 C1890 1.202 . S
O1906 U1886 2.455 . S
O1906 C1903 1.301 . S
O1907 U1886 2.449 . S
O1907 C1903 1.282 . S
H1908 C1881 0.931 . S
H1909 C1883 0.929 . S
H1910 C1884 0.930 . S
H1911 C1885 0.931 . S
H1912 C1892 0.932 . S
H1913 C1893 0.930 . S
H1914 C1894 0.929 . S
H1915 C1896 0.930 . S
H1916 C1898 0.932 . S
H1917 C1899 0.929 . S
H1918 C1900 0.928 . S
H1919 C1902 0.932 . S
P1920 O1931 1.490 . S
P1920 C1934 1.812 . S
P1920 C1940 1.803 . S
P1920 C1946 1.819 . S
H1921 C1935 0.941 . S
H1922 C1936 0.939 . S
H1923 C1938 0.940 . S
H1924 C1939 0.940 . S
H1925 C1941 0.939 . S
H1926 C1942 0.942 . S
H1927 C1944 0.940 . S
H1928 C1945 0.939 . S
H1929 C1947 0.941 . S
H1930 C1951 0.939 . S
O1931 P1920 1.490 . S
H1932 C1948 0.939 . S
H1933 C1950 0.940 . S
C1934 P1920 1.812 . S
C1934 C1935 1.389 . S
C1934 C1939 1.391 . S
C1935 H1921 0.941 . S
C1935 C1934 1.389 . S
C1935 C1936 1.397 . S
C1936 H1922 0.939 . S
C1936 C1935 1.397 . S
C1936 C1937 1.378 . S
C1937 C1936 1.378 . S
C1937 C1938 1.378 . S
C1938 H1923 0.940 . S
C1938 C1937 1.378 . S
C1938 C1939 1.396 . S
C1939 H1924 0.940 . S
C1939 C1934 1.391 . S
C1939 C1938 1.396 . S
C1940 P1920 1.803 . S
C1940 C1941 1.378 . S
C1940 C1945 1.400 . S
C1941 H1925 0.939 . S
C1941 C1940 1.378 . S
C1941 C1942 1.361 . S
C1942 H1926 0.942 . S
C1942 C1941 1.361 . S
C1942 C1943 1.369 . S
C1943 C1942 1.369 . S
C1943 C1944 1.404 . S
C1944 H1927 0.940 . S
C1944 C1943 1.404 . S
C1944 C1945 1.389 . S
C1945 H1928 0.939 . S
C1945 C1940 1.400 . S
C1945 C1944 1.389 . S
C1946 P1920 1.819 . S
C1946 C1947 1.391 . S
C1946 C1951 1.391 . S
C1947 H1929 0.941 . S
C1947 C1946 1.391 . S
C1947 C1948 1.396 . S
C1948 H1932 0.939 . S
C1948 C1947 1.396 . S
C1948 C1949 1.397 . S
C1949 C1948 1.397 . S
C1949 C1950 1.385 . S
C1950 H1933 0.940 . S
C1950 C1949 1.385 . S
C1950 C1951 1.388 . S
C1951 H1930 0.939 . S
C1951 C1946 1.391 . S
C1951 C1950 1.388 . S
P1952 O1963 1.490 . S
P1952 C1966 1.812 . S
P1952 C1972 1.803 . S
P1952 C1978 1.819 . S
H1953 C1967 0.941 . S
H1954 C1968 0.939 . S
H1955 C1970 0.940 . S
H1956 C1971 0.940 . S
H1957 C1973 0.939 . S
H1958 C1974 0.942 . S
H1959 C1976 0.940 . S
H1960 C1977 0.939 . S
H1961 C1979 0.941 . S
H1962 C1983 0.939 . S
O1963 P1952 1.490 . S
H1964 C1980 0.939 . S
H1965 C1982 0.940 . S
C1966 P1952 1.812 . S
C1966 C1967 1.389 . S
C1966 C1971 1.391 . S
C1967 H1953 0.941 . S
C1967 C1966 1.389 . S
C1967 C1968 1.397 . S
C1968 H1954 0.939 . S
C1968 C1967 1.397 . S
C1968 C1969 1.378 . S
C1969 C1968 1.378 . S
C1969 C1970 1.378 . S
C1970 H1955 0.940 . S
C1970 C1969 1.378 . S
C1970 C1971 1.396 . S
C1971 H1956 0.940 . S
C1971 C1966 1.391 . S
C1971 C1970 1.396 . S
C1972 P1952 1.803 . S
C1972 C1973 1.378 . S
C1972 C1977 1.400 . S
C1973 H1957 0.939 . S
C1973 C1972 1.378 . S
C1973 C1974 1.361 . S
C1974 H1958 0.942 . S
C1974 C1973 1.361 . S
C1974 C1975 1.369 . S
C1975 C1974 1.369 . S
C1975 C1976 1.404 . S
C1976 H1959 0.940 . S
C1976 C1975 1.404 . S
C1976 C1977 1.389 . S
C1977 H1960 0.939 . S
C1977 C1972 1.400 . S
C1977 C1976 1.389 . S
C1978 P1952 1.819 . S
C1978 C1979 1.391 . S
C1978 C1983 1.391 . S
C1979 H1961 0.941 . S
C1979 C1978 1.391 . S
C1979 C1980 1.396 . S
C1980 H1964 0.939 . S
C1980 C1979 1.396 . S
C1980 C1981 1.397 . S
C1981 C1980 1.397 . S
C1981 C1982 1.385 . S
C1982 H1965 0.940 . S
C1982 C1981 1.385 . S
C1982 C1983 1.388 . S
C1983 H1962 0.939 . S
C1983 C1978 1.391 . S
C1983 C1982 1.388 . S
P1984 O1995 1.490 . S
P1984 C1998 1.812 . S
P1984 C2004 1.803 . S
P1984 C2010 1.819 . S
H1985 C1999 0.941 . S
H1986 C2000 0.939 . S
H1987 C2002 0.940 . S
H1988 C2003 0.940 . S
H1989 C2005 0.939 . S
H1990 C2006 0.942 . S
H1991 C2008 0.940 . S
H1992 C2009 0.939 . S
H1993 C2011 0.941 . S
H1994 C2015 0.939 . S
O1995 P1984 1.490 . S
H1996 C2012 0.939 . S
H1997 C2014 0.940 . S
C1998 P1984 1.812 . S
C1998 C1999 1.389 . S
C1998 C2003 1.391 . S
C1999 H1985 0.941 . S
C1999 C1998 1.389 . S
C1999 C2000 1.397 . S
C2000 H1986 0.939 . S
C2000 C1999 1.397 . S
C2000 C2001 1.378 . S
C2001 C2000 1.378 . S
C2001 C2002 1.378 . S
C2002 H1987 0.940 . S
C2002 C2001 1.378 . S
C2002 C2003 1.396 . S
C2003 H1988 0.940 . S
C2003 C1998 1.391 . S
C2003 C2002 1.396 . S
C2004 P1984 1.803 . S
C2004 C2005 1.378 . S
C2004 C2009 1.400 . S
C2005 H1989 0.939 . S
C2005 C2004 1.378 . S
C2005 C2006 1.361 . S
C2006 H1990 0.942 . S
C2006 C2005 1.361 . S
C2006 C2007 1.369 . S
C2007 C2006 1.369 . S
C2007 C2008 1.404 . S
C2008 H1991 0.940 . S
C2008 C2007 1.404 . S
C2008 C2009 1.389 . S
C2009 H1992 0.939 . S
C2009 C2004 1.400 . S
C2009 C2008 1.389 . S
C2010 P1984 1.819 . S
C2010 C2011 1.391 . S
C2010 C2015 1.391 . S
C2011 H1993 0.941 . S
C2011 C2010 1.391 . S
C2011 C2012 1.396 . S
C2012 H1996 0.939 . S
C2012 C2011 1.396 . S
C2012 C2013 1.397 . S
C2013 C2012 1.397 . S
C2013 C2014 1.385 . S
C2014 H1997 0.940 . S
C2014 C2013 1.385 . S
C2014 C2015 1.388 . S
C2015 H1994 0.939 . S
C2015 C2010 1.391 . S
C2015 C2014 1.388 . S
P2016 O2027 1.490 . S
P2016 C2030 1.812 . S
P2016 C2036 1.803 . S
P2016 C2042 1.819 . S
H2017 C2031 0.941 . S
H2018 C2032 0.939 . S
H2019 C2034 0.940 . S
H2020 C2035 0.940 . S
H2021 C2037 0.939 . S
H2022 C2038 0.942 . S
H2023 C2040 0.940 . S
H2024 C2041 0.939 . S
H2025 C2043 0.941 . S
H2026 C2047 0.939 . S
O2027 P2016 1.490 . S
H2028 C2044 0.939 . S
H2029 C2046 0.940 . S
C2030 P2016 1.812 . S
C2030 C2031 1.389 . S
C2030 C2035 1.391 . S
C2031 H2017 0.941 . S
C2031 C2030 1.389 . S
C2031 C2032 1.397 . S
C2032 H2018 0.939 . S
C2032 C2031 1.397 . S
C2032 C2033 1.378 . S
C2033 C2032 1.378 . S
C2033 C2034 1.378 . S
C2034 H2019 0.940 . S
C2034 C2033 1.378 . S
C2034 C2035 1.396 . S
C2035 H2020 0.940 . S
C2035 C2030 1.391 . S
C2035 C2034 1.396 . S
C2036 P2016 1.803 . S
C2036 C2037 1.378 . S
C2036 C2041 1.400 . S
C2037 H2021 0.939 . S
C2037 C2036 1.378 . S
C2037 C2038 1.361 . S
C2038 H2022 0.942 . S
C2038 C2037 1.361 . S
C2038 C2039 1.369 . S
C2039 C2038 1.369 . S
C2039 C2040 1.404 . S
C2040 H2023 0.940 . S
C2040 C2039 1.404 . S
C2040 C2041 1.389 . S
C2041 H2024 0.939 . S
C2041 C2036 1.400 . S
C2041 C2040 1.389 . S
C2042 P2016 1.819 . S
C2042 C2043 1.391 . S
C2042 C2047 1.391 . S
C2043 H2025 0.941 . S
C2043 C2042 1.391 . S
C2043 C2044 1.396 . S
C2044 H2028 0.939 . S
C2044 C2043 1.396 . S
C2044 C2045 1.397 . S
C2045 C2044 1.397 . S
C2045 C2046 1.385 . S
C2046 H2029 0.940 . S
C2046 C2045 1.385 . S
C2046 C2047 1.388 . S
C2047 H2026 0.939 . S
C2047 C2042 1.391 . S
C2047 C2046 1.388 . S
P2048 O2059 1.490 . S
P2048 C2062 1.812 . S
P2048 C2068 1.803 . S
P2048 C2074 1.819 . S
H2049 C2063 0.941 . S
H2050 C2064 0.939 . S
H2051 C2066 0.940 . S
H2052 C2067 0.940 . S
H2053 C2069 0.939 . S
H2054 C2070 0.942 . S
H2055 C2072 0.940 . S
H2056 C2073 0.939 . S
H2057 C2075 0.941 . S
H2058 C2079 0.939 . S
O2059 P2048 1.490 . S
H2060 C2076 0.939 . S
H2061 C2078 0.940 . S
C2062 P2048 1.812 . S
C2062 C2063 1.389 . S
C2062 C2067 1.391 . S
C2063 H2049 0.941 . S
C2063 C2062 1.389 . S
C2063 C2064 1.397 . S
C2064 H2050 0.939 . S
C2064 C2063 1.397 . S
C2064 C2065 1.378 . S
C2065 C2064 1.378 . S
C2065 C2066 1.378 . S
C2066 H2051 0.940 . S
C2066 C2065 1.378 . S
C2066 C2067 1.396 . S
C2067 H2052 0.940 . S
C2067 C2062 1.391 . S
C2067 C2066 1.396 . S
C2068 P2048 1.803 . S
C2068 C2069 1.378 . S
C2068 C2073 1.400 . S
C2069 H2053 0.939 . S
C2069 C2068 1.378 . S
C2069 C2070 1.361 . S
C2070 H2054 0.942 . S
C2070 C2069 1.361 . S
C2070 C2071 1.369 . S
C2071 C2070 1.369 . S
C2071 C2072 1.404 . S
C2072 H2055 0.940 . S
C2072 C2071 1.404 . S
C2072 C2073 1.389 . S
C2073 H2056 0.939 . S
C2073 C2068 1.400 . S
C2073 C2072 1.389 . S
C2074 P2048 1.819 . S
C2074 C2075 1.391 . S
C2074 C2079 1.391 . S
C2075 H2057 0.941 . S
C2075 C2074 1.391 . S
C2075 C2076 1.396 . S
C2076 H2060 0.939 . S
C2076 C2075 1.396 . S
C2076 C2077 1.397 . S
C2077 C2076 1.397 . S
C2077 C2078 1.385 . S
C2078 H2061 0.940 . S
C2078 C2077 1.385 . S
C2078 C2079 1.388 . S
C2079 H2058 0.939 . S
C2079 C2074 1.391 . S
C2079 C2078 1.388 . S
P2080 O2091 1.490 . S
P2080 C2094 1.812 . S
P2080 C2100 1.803 . S
P2080 C2106 1.819 . S
H2081 C2095 0.941 . S
H2082 C2096 0.939 . S
H2083 C2098 0.940 . S
H2084 C2099 0.940 . S
H2085 C2101 0.939 . S
H2086 C2102 0.942 . S
H2087 C2104 0.940 . S
H2088 C2105 0.939 . S
H2089 C2107 0.941 . S
H2090 C2111 0.939 . S
O2091 P2080 1.490 . S
H2092 C2108 0.939 . S
H2093 C2110 0.940 . S
C2094 P2080 1.812 . S
C2094 C2095 1.389 . S
C2094 C2099 1.391 . S
C2095 H2081 0.941 . S
C2095 C2094 1.389 . S
C2095 C2096 1.397 . S
C2096 H2082 0.939 . S
C2096 C2095 1.397 . S
C2096 C2097 1.378 . S
C2097 C2096 1.378 . S
C2097 C2098 1.378 . S
C2098 H2083 0.940 . S
C2098 C2097 1.378 . S
C2098 C2099 1.396 . S
C2099 H2084 0.940 . S
C2099 C2094 1.391 . S
C2099 C2098 1.396 . S
C2100 P2080 1.803 . S
C2100 C2101 1.378 . S
C2100 C2105 1.400 . S
C2101 H2085 0.939 . S
C2101 C2100 1.378 . S
C2101 C2102 1.361 . S
C2102 H2086 0.942 . S
C2102 C2101 1.361 . S
C2102 C2103 1.369 . S
C2103 C2102 1.369 . S
C2103 C2104 1.404 . S
C2104 H2087 0.940 . S
C2104 C2103 1.404 . S
C2104 C2105 1.389 . S
C2105 H2088 0.939 . S
C2105 C2100 1.400 . S
C2105 C2104 1.389 . S
C2106 P2080 1.819 . S
C2106 C2107 1.391 . S
C2106 C2111 1.391 . S
C2107 H2089 0.941 . S
C2107 C2106 1.391 . S
C2107 C2108 1.396 . S
C2108 H2092 0.939 . S
C2108 C2107 1.396 . S
C2108 C2109 1.397 . S
C2109 C2108 1.397 . S
C2109 C2110 1.385 . S
C2110 H2093 0.940 . S
C2110 C2109 1.385 . S
C2110 C2111 1.388 . S
C2111 H2090 0.939 . S
C2111 C2106 1.391 . S
C2111 C2110 1.388 . S
P2112 O2123 1.490 . S
P2112 C2126 1.812 . S
P2112 C2132 1.803 . S
P2112 C2138 1.819 . S
H2113 C2127 0.941 . S
H2114 C2128 0.939 . S
H2115 C2130 0.940 . S
H2116 C2131 0.940 . S
H2117 C2133 0.939 . S
H2118 C2134 0.942 . S
H2119 C2136 0.940 . S
H2120 C2137 0.939 . S
H2121 C2139 0.941 . S
H2122 C2143 0.939 . S
O2123 P2112 1.490 . S
H2124 C2140 0.939 . S
H2125 C2142 0.940 . S
C2126 P2112 1.812 . S
C2126 C2127 1.389 . S
C2126 C2131 1.391 . S
C2127 H2113 0.941 . S
C2127 C2126 1.389 . S
C2127 C2128 1.397 . S
C2128 H2114 0.939 . S
C2128 C2127 1.397 . S
C2128 C2129 1.378 . S
C2129 C2128 1.378 . S
C2129 C2130 1.378 . S
C2130 H2115 0.940 . S
C2130 C2129 1.378 . S
C2130 C2131 1.396 . S
C2131 H2116 0.940 . S
C2131 C2126 1.391 . S
C2131 C2130 1.396 . S
C2132 P2112 1.803 . S
C2132 C2133 1.378 . S
C2132 C2137 1.400 . S
C2133 H2117 0.939 . S
C2133 C2132 1.378 . S
C2133 C2134 1.361 . S
C2134 H2118 0.942 . S
C2134 C2133 1.361 . S
C2134 C2135 1.369 . S
C2135 C2134 1.369 . S
C2135 C2136 1.404 . S
C2136 H2119 0.940 . S
C2136 C2135 1.404 . S
C2136 C2137 1.389 . S
C2137 H2120 0.939 . S
C2137 C2132 1.400 . S
C2137 C2136 1.389 . S
C2138 P2112 1.819 . S
C2138 C2139 1.391 . S
C2138 C2143 1.391 . S
C2139 H2121 0.941 . S
C2139 C2138 1.391 . S
C2139 C2140 1.396 . S
C2140 H2124 0.939 . S
C2140 C2139 1.396 . S
C2140 C2141 1.397 . S
C2141 C2140 1.397 . S
C2141 C2142 1.385 . S
C2142 H2125 0.940 . S
C2142 C2141 1.385 . S
C2142 C2143 1.388 . S
C2143 H2122 0.939 . S
C2143 C2138 1.391 . S
C2143 C2142 1.388 . S
P2144 O2155 1.490 . S
P2144 C2158 1.812 . S
P2144 C2164 1.803 . S
P2144 C2170 1.819 . S
H2145 C2159 0.941 . S
H2146 C2160 0.939 . S
H2147 C2162 0.940 . S
H2148 C2163 0.940 . S
H2149 C2165 0.939 . S
H2150 C2166 0.942 . S
H2151 C2168 0.940 . S
H2152 C2169 0.939 . S
H2153 C2171 0.941 . S
H2154 C2175 0.939 . S
O2155 P2144 1.490 . S
H2156 C2172 0.939 . S
H2157 C2174 0.940 . S
C2158 P2144 1.812 . S
C2158 C2159 1.389 . S
C2158 C2163 1.391 . S
C2159 H2145 0.941 . S
C2159 C2158 1.389 . S
C2159 C2160 1.397 . S
C2160 H2146 0.939 . S
C2160 C2159 1.397 . S
C2160 C2161 1.378 . S
C2161 C2160 1.378 . S
C2161 C2162 1.378 . S
C2162 H2147 0.940 . S
C2162 C2161 1.378 . S
C2162 C2163 1.396 . S
C2163 H2148 0.940 . S
C2163 C2158 1.391 . S
C2163 C2162 1.396 . S
C2164 P2144 1.803 . S
C2164 C2165 1.378 . S
C2164 C2169 1.400 . S
C2165 H2149 0.939 . S
C2165 C2164 1.378 . S
C2165 C2166 1.361 . S
C2166 H2150 0.942 . S
C2166 C2165 1.361 . S
C2166 C2167 1.369 . S
C2167 C2166 1.369 . S
C2167 C2168 1.404 . S
C2168 H2151 0.940 . S
C2168 C2167 1.404 . S
C2168 C2169 1.389 . S
C2169 H2152 0.939 . S
C2169 C2164 1.400 . S
C2169 C2168 1.389 . S
C2170 P2144 1.819 . S
C2170 C2171 1.391 . S
C2170 C2175 1.391 . S
C2171 H2153 0.941 . S
C2171 C2170 1.391 . S
C2171 C2172 1.396 . S
C2172 H2156 0.939 . S
C2172 C2171 1.396 . S
C2172 C2173 1.397 . S
C2173 C2172 1.397 . S
C2173 C2174 1.385 . S
C2174 H2157 0.940 . S
C2174 C2173 1.385 . S
C2174 C2175 1.388 . S
C2175 H2154 0.939 . S
C2175 C2170 1.391 . S
C2175 C2174 1.388 . S
P2176 O2187 1.490 . S
P2176 C2190 1.812 . S
P2176 C2196 1.803 . S
P2176 C2202 1.819 . S
H2177 C2191 0.941 . S
H2178 C2192 0.939 . S
H2179 C2194 0.940 . S
H2180 C2195 0.940 . S
H2181 C2197 0.939 . S
H2182 C2198 0.942 . S
H2183 C2200 0.940 . S
H2184 C2201 0.939 . S
H2185 C2203 0.941 . S
H2186 C2207 0.939 . S
O2187 P2176 1.490 . S
H2188 C2204 0.939 . S
H2189 C2206 0.940 . S
C2190 P2176 1.812 . S
C2190 C2191 1.389 . S
C2190 C2195 1.391 . S
C2191 H2177 0.941 . S
C2191 C2190 1.389 . S
C2191 C2192 1.397 . S
C2192 H2178 0.939 . S
C2192 C2191 1.397 . S
C2192 C2193 1.378 . S
C2193 C2192 1.378 . S
C2193 C2194 1.378 . S
C2194 H2179 0.940 . S
C2194 C2193 1.378 . S
C2194 C2195 1.396 . S
C2195 H2180 0.940 . S
C2195 C2190 1.391 . S
C2195 C2194 1.396 . S
C2196 P2176 1.803 . S
C2196 C2197 1.378 . S
C2196 C2201 1.400 . S
C2197 H2181 0.939 . S
C2197 C2196 1.378 . S
C2197 C2198 1.361 . S
C2198 H2182 0.942 . S
C2198 C2197 1.361 . S
C2198 C2199 1.369 . S
C2199 C2198 1.369 . S
C2199 C2200 1.404 . S
C2200 H2183 0.940 . S
C2200 C2199 1.404 . S
C2200 C2201 1.389 . S
C2201 H2184 0.939 . S
C2201 C2196 1.400 . S
C2201 C2200 1.389 . S
C2202 P2176 1.819 . S
C2202 C2203 1.391 . S
C2202 C2207 1.391 . S
C2203 H2185 0.941 . S
C2203 C2202 1.391 . S
C2203 C2204 1.396 . S
C2204 H2188 0.939 . S
C2204 C2203 1.396 . S
C2204 C2205 1.397 . S
C2205 C2204 1.397 . S
C2205 C2206 1.385 . S
C2206 H2189 0.940 . S
C2206 C2205 1.385 . S
C2206 C2207 1.388 . S
C2207 H2186 0.939 . S
C2207 C2202 1.391 . S
C2207 C2206 1.388 . S
P2208 O2219 1.490 . S
P2208 C2222 1.812 . S
P2208 C2228 1.803 . S
P2208 C2234 1.819 . S
H2209 C2223 0.941 . S
H2210 C2224 0.939 . S
H2211 C2226 0.940 . S
H2212 C2227 0.940 . S
H2213 C2229 0.939 . S
H2214 C2230 0.942 . S
H2215 C2232 0.940 . S
H2216 C2233 0.939 . S
H2217 C2235 0.941 . S
H2218 C2239 0.939 . S
O2219 P2208 1.490 . S
H2220 C2236 0.939 . S
H2221 C2238 0.940 . S
C2222 P2208 1.812 . S
C2222 C2223 1.389 . S
C2222 C2227 1.391 . S
C2223 H2209 0.941 . S
C2223 C2222 1.389 . S
C2223 C2224 1.397 . S
C2224 H2210 0.939 . S
C2224 C2223 1.397 . S
C2224 C2225 1.378 . S
C2225 C2224 1.378 . S
C2225 C2226 1.378 . S
C2226 H2211 0.940 . S
C2226 C2225 1.378 . S
C2226 C2227 1.396 . S
C2227 H2212 0.940 . S
C2227 C2222 1.391 . S
C2227 C2226 1.396 . S
C2228 P2208 1.803 . S
C2228 C2229 1.378 . S
C2228 C2233 1.400 . S
C2229 H2213 0.939 . S
C2229 C2228 1.378 . S
C2229 C2230 1.361 . S
C2230 H2214 0.942 . S
C2230 C2229 1.361 . S
C2230 C2231 1.369 . S
C2231 C2230 1.369 . S
C2231 C2232 1.404 . S
C2232 H2215 0.940 . S
C2232 C2231 1.404 . S
C2232 C2233 1.389 . S
C2233 H2216 0.939 . S
C2233 C2228 1.400 . S
C2233 C2232 1.389 . S
C2234 P2208 1.819 . S
C2234 C2235 1.391 . S
C2234 C2239 1.391 . S
C2235 H2217 0.941 . S
C2235 C2234 1.391 . S
C2235 C2236 1.396 . S
C2236 H2220 0.939 . S
C2236 C2235 1.396 . S
C2236 C2237 1.397 . S
C2237 C2236 1.397 . S
C2237 C2238 1.385 . S
C2238 H2221 0.940 . S
C2238 C2237 1.385 . S
C2238 C2239 1.388 . S
C2239 H2218 0.939 . S
C2239 C2234 1.391 . S
C2239 C2238 1.388 . S
P2240 O2251 1.490 . S
P2240 C2254 1.812 . S
P2240 C2260 1.803 . S
P2240 C2266 1.819 . S
H2241 C2255 0.941 . S
H2242 C2256 0.939 . S
H2243 C2258 0.940 . S
H2244 C2259 0.940 . S
H2245 C2261 0.939 . S
H2246 C2262 0.942 . S
H2247 C2264 0.940 . S
H2248 C2265 0.939 . S
H2249 C2267 0.941 . S
H2250 C2271 0.939 . S
O2251 P2240 1.490 . S
H2252 C2268 0.939 . S
H2253 C2270 0.940 . S
C2254 P2240 1.812 . S
C2254 C2255 1.389 . S
C2254 C2259 1.391 . S
C2255 H2241 0.941 . S
C2255 C2254 1.389 . S
C2255 C2256 1.397 . S
C2256 H2242 0.939 . S
C2256 C2255 1.397 . S
C2256 C2257 1.378 . S
C2257 C2256 1.378 . S
C2257 C2258 1.378 . S
C2258 H2243 0.940 . S
C2258 C2257 1.378 . S
C2258 C2259 1.396 . S
C2259 H2244 0.940 . S
C2259 C2254 1.391 . S
C2259 C2258 1.396 . S
C2260 P2240 1.803 . S
C2260 C2261 1.378 . S
C2260 C2265 1.400 . S
C2261 H2245 0.939 . S
C2261 C2260 1.378 . S
C2261 C2262 1.361 . S
C2262 H2246 0.942 . S
C2262 C2261 1.361 . S
C2262 C2263 1.369 . S
C2263 C2262 1.369 . S
C2263 C2264 1.404 . S
C2264 H2247 0.940 . S
C2264 C2263 1.404 . S
C2264 C2265 1.389 . S
C2265 H2248 0.939 . S
C2265 C2260 1.400 . S
C2265 C2264 1.389 . S
C2266 P2240 1.819 . S
C2266 C2267 1.391 . S
C2266 C2271 1.391 . S
C2267 H2249 0.941 . S
C2267 C2266 1.391 . S
C2267 C2268 1.396 . S
C2268 H2252 0.939 . S
C2268 C2267 1.396 . S
C2268 C2269 1.397 . S
C2269 C2268 1.397 . S
C2269 C2270 1.385 . S
C2270 H2253 0.940 . S
C2270 C2269 1.385 . S
C2270 C2271 1.388 . S
C2271 H2250 0.939 . S
C2271 C2266 1.391 . S
C2271 C2270 1.388 . S
P2272 O2283 1.490 . S
P2272 C2286 1.812 . S
P2272 C2292 1.803 . S
P2272 C2298 1.819 . S
H2273 C2287 0.941 . S
H2274 C2288 0.939 . S
H2275 C2290 0.940 . S
H2276 C2291 0.940 . S
H2277 C2293 0.939 . S
H2278 C2294 0.942 . S
H2279 C2296 0.940 . S
H2280 C2297 0.939 . S
H2281 C2299 0.941 . S
H2282 C2303 0.939 . S
O2283 P2272 1.490 . S
H2284 C2300 0.939 . S
H2285 C2302 0.940 . S
C2286 P2272 1.812 . S
C2286 C2287 1.389 . S
C2286 C2291 1.391 . S
C2287 H2273 0.941 . S
C2287 C2286 1.389 . S
C2287 C2288 1.397 . S
C2288 H2274 0.939 . S
C2288 C2287 1.397 . S
C2288 C2289 1.378 . S
C2289 C2288 1.378 . S
C2289 C2290 1.378 . S
C2290 H2275 0.940 . S
C2290 C2289 1.378 . S
C2290 C2291 1.396 . S
C2291 H2276 0.940 . S
C2291 C2286 1.391 . S
C2291 C2290 1.396 . S
C2292 P2272 1.803 . S
C2292 C2293 1.378 . S
C2292 C2297 1.400 . S
C2293 H2277 0.939 . S
C2293 C2292 1.378 . S
C2293 C2294 1.361 . S
C2294 H2278 0.942 . S
C2294 C2293 1.361 . S
C2294 C2295 1.369 . S
C2295 C2294 1.369 . S
C2295 C2296 1.404 . S
C2296 H2279 0.940 . S
C2296 C2295 1.404 . S
C2296 C2297 1.389 . S
C2297 H2280 0.939 . S
C2297 C2292 1.400 . S
C2297 C2296 1.389 . S
C2298 P2272 1.819 . S
C2298 C2299 1.391 . S
C2298 C2303 1.391 . S
C2299 H2281 0.941 . S
C2299 C2298 1.391 . S
C2299 C2300 1.396 . S
C2300 H2284 0.939 . S
C2300 C2299 1.396 . S
C2300 C2301 1.397 . S
C2301 C2300 1.397 . S
C2301 C2302 1.385 . S
C2302 H2285 0.940 . S
C2302 C2301 1.385 . S
C2302 C2303 1.388 . S
C2303 H2282 0.939 . S
C2303 C2298 1.391 . S
C2303 C2302 1.388 . S
P2304 O2315 1.490 . S
P2304 C2318 1.812 . S
P2304 C2324 1.803 . S
P2304 C2330 1.819 . S
H2305 C2319 0.941 . S
H2306 C2320 0.939 . S
H2307 C2322 0.940 . S
H2308 C2323 0.940 . S
H2309 C2325 0.939 . S
H2310 C2326 0.942 . S
H2311 C2328 0.940 . S
H2312 C2329 0.939 . S
H2313 C2331 0.941 . S
H2314 C2335 0.939 . S
O2315 P2304 1.490 . S
H2316 C2332 0.939 . S
H2317 C2334 0.940 . S
C2318 P2304 1.812 . S
C2318 C2319 1.389 . S
C2318 C2323 1.391 . S
C2319 H2305 0.941 . S
C2319 C2318 1.389 . S
C2319 C2320 1.397 . S
C2320 H2306 0.939 . S
C2320 C2319 1.397 . S
C2320 C2321 1.378 . S
C2321 C2320 1.378 . S
C2321 C2322 1.378 . S
C2322 H2307 0.940 . S
C2322 C2321 1.378 . S
C2322 C2323 1.396 . S
C2323 H2308 0.940 . S
C2323 C2318 1.391 . S
C2323 C2322 1.396 . S
C2324 P2304 1.803 . S
C2324 C2325 1.378 . S
C2324 C2329 1.400 . S
C2325 H2309 0.939 . S
C2325 C2324 1.378 . S
C2325 C2326 1.361 . S
C2326 H2310 0.942 . S
C2326 C2325 1.361 . S
C2326 C2327 1.369 . S
C2327 C2326 1.369 . S
C2327 C2328 1.404 . S
C2328 H2311 0.940 . S
C2328 C2327 1.404 . S
C2328 C2329 1.389 . S
C2329 H2312 0.939 . S
C2329 C2324 1.400 . S
C2329 C2328 1.389 . S
C2330 P2304 1.819 . S
C2330 C2331 1.391 . S
C2330 C2335 1.391 . S
C2331 H2313 0.941 . S
C2331 C2330 1.391 . S
C2331 C2332 1.396 . S
C2332 H2316 0.939 . S
C2332 C2331 1.396 . S
C2332 C2333 1.397 . S
C2333 C2332 1.397 . S
C2333 C2334 1.385 . S
C2334 H2317 0.940 . S
C2334 C2333 1.385 . S
C2334 C2335 1.388 . S
C2335 H2314 0.939 . S
C2335 C2330 1.391 . S
C2335 C2334 1.388 . S
P2336 O2347 1.490 . S
P2336 C2350 1.812 . S
P2336 C2356 1.803 . S
P2336 C2362 1.819 . S
H2337 C2351 0.941 . S
H2338 C2352 0.939 . S
H2339 C2354 0.940 . S
H2340 C2355 0.940 . S
H2341 C2357 0.939 . S
H2342 C2358 0.942 . S
H2343 C2360 0.940 . S
H2344 C2361 0.939 . S
H2345 C2363 0.941 . S
H2346 C2367 0.939 . S
O2347 P2336 1.490 . S
H2348 C2364 0.939 . S
H2349 C2366 0.940 . S
C2350 P2336 1.812 . S
C2350 C2351 1.389 . S
C2350 C2355 1.391 . S
C2351 H2337 0.941 . S
C2351 C2350 1.389 . S
C2351 C2352 1.397 . S
C2352 H2338 0.939 . S
C2352 C2351 1.397 . S
C2352 C2353 1.378 . S
C2353 C2352 1.378 . S
C2353 C2354 1.378 . S
C2354 H2339 0.940 . S
C2354 C2353 1.378 . S
C2354 C2355 1.396 . S
C2355 H2340 0.940 . S
C2355 C2350 1.391 . S
C2355 C2354 1.396 . S
C2356 P2336 1.803 . S
C2356 C2357 1.378 . S
C2356 C2361 1.400 . S
C2357 H2341 0.939 . S
C2357 C2356 1.378 . S
C2357 C2358 1.361 . S
C2358 H2342 0.942 . S
C2358 C2357 1.361 . S
C2358 C2359 1.369 . S
C2359 C2358 1.369 . S
C2359 C2360 1.404 . S
C2360 H2343 0.940 . S
C2360 C2359 1.404 . S
C2360 C2361 1.389 . S
C2361 H2344 0.939 . S
C2361 C2356 1.400 . S
C2361 C2360 1.389 . S
C2362 P2336 1.819 . S
C2362 C2363 1.391 . S
C2362 C2367 1.391 . S
C2363 H2345 0.941 . S
C2363 C2362 1.391 . S
C2363 C2364 1.396 . S
C2364 H2348 0.939 . S
C2364 C2363 1.396 . S
C2364 C2365 1.397 . S
C2365 C2364 1.397 . S
C2365 C2366 1.385 . S
C2366 H2349 0.940 . S
C2366 C2365 1.385 . S
C2366 C2367 1.388 . S
C2367 H2346 0.939 . S
C2367 C2362 1.391 . S
C2367 C2366 1.388 . S
P2368 O2379 1.490 . S
P2368 C2382 1.812 . S
P2368 C2388 1.803 . S
P2368 C2394 1.819 . S
H2369 C2383 0.941 . S
H2370 C2384 0.939 . S
H2371 C2386 0.940 . S
H2372 C2387 0.940 . S
H2373 C2389 0.939 . S
H2374 C2390 0.942 . S
H2375 C2392 0.940 . S
H2376 C2393 0.939 . S
H2377 C2395 0.941 . S
H2378 C2399 0.939 . S
O2379 P2368 1.490 . S
H2380 C2396 0.939 . S
H2381 C2398 0.940 . S
C2382 P2368 1.812 . S
C2382 C2383 1.389 . S
C2382 C2387 1.391 . S
C2383 H2369 0.941 . S
C2383 C2382 1.389 . S
C2383 C2384 1.397 . S
C2384 H2370 0.939 . S
C2384 C2383 1.397 . S
C2384 C2385 1.378 . S
C2385 C2384 1.378 . S
C2385 C2386 1.378 . S
C2386 H2371 0.940 . S
C2386 C2385 1.378 . S
C2386 C2387 1.396 . S
C2387 H2372 0.940 . S
C2387 C2382 1.391 . S
C2387 C2386 1.396 . S
C2388 P2368 1.803 . S
C2388 C2389 1.378 . S
C2388 C2393 1.400 . S
C2389 H2373 0.939 . S
C2389 C2388 1.378 . S
C2389 C2390 1.361 . S
C2390 H2374 0.942 . S
C2390 C2389 1.361 . S
C2390 C2391 1.369 . S
C2391 C2390 1.369 . S
C2391 C2392 1.404 . S
C2392 H2375 0.940 . S
C2392 C2391 1.404 . S
C2392 C2393 1.389 . S
C2393 H2376 0.939 . S
C2393 C2388 1.400 . S
C2393 C2392 1.389 . S
C2394 P2368 1.819 . S
C2394 C2395 1.391 . S
C2394 C2399 1.391 . S
C2395 H2377 0.941 . S
C2395 C2394 1.391 . S
C2395 C2396 1.396 . S
C2396 H2380 0.939 . S
C2396 C2395 1.396 . S
C2396 C2397 1.397 . S
C2397 C2396 1.397 . S
C2397 C2398 1.385 . S
C2398 H2381 0.940 . S
C2398 C2397 1.385 . S
C2398 C2399 1.388 . S
C2399 H2378 0.939 . S
C2399 C2394 1.391 . S
C2399 C2398 1.388 . S
P2400 O2411 1.490 . S
P2400 C2414 1.812 . S
P2400 C2420 1.803 . S
P2400 C2426 1.819 . S
H2401 C2415 0.941 . S
H2402 C2416 0.939 . S
H2403 C2418 0.940 . S
H2404 C2419 0.940 . S
H2405 C2421 0.939 . S
H2406 C2422 0.942 . S
H2407 C2424 0.940 . S
H2408 C2425 0.939 . S
H2409 C2427 0.941 . S
H2410 C2431 0.939 . S
O2411 P2400 1.490 . S
H2412 C2428 0.939 . S
H2413 C2430 0.940 . S
C2414 P2400 1.812 . S
C2414 C2415 1.389 . S
C2414 C2419 1.391 . S
C2415 H2401 0.941 . S
C2415 C2414 1.389 . S
C2415 C2416 1.397 . S
C2416 H2402 0.939 . S
C2416 C2415 1.397 . S
C2416 C2417 1.378 . S
C2417 C2416 1.378 . S
C2417 C2418 1.378 . S
C2418 H2403 0.940 . S
C2418 C2417 1.378 . S
C2418 C2419 1.396 . S
C2419 H2404 0.940 . S
C2419 C2414 1.391 . S
C2419 C2418 1.396 . S
C2420 P2400 1.803 . S
C2420 C2421 1.378 . S
C2420 C2425 1.400 . S
C2421 H2405 0.939 . S
C2421 C2420 1.378 . S
C2421 C2422 1.361 . S
C2422 H2406 0.942 . S
C2422 C2421 1.361 . S
C2422 C2423 1.369 . S
C2423 C2422 1.369 . S
C2423 C2424 1.404 . S
C2424 H2407 0.940 . S
C2424 C2423 1.404 . S
C2424 C2425 1.389 . S
C2425 H2408 0.939 . S
C2425 C2420 1.400 . S
C2425 C2424 1.389 . S
C2426 P2400 1.819 . S
C2426 C2427 1.391 . S
C2426 C2431 1.391 . S
C2427 H2409 0.941 . S
C2427 C2426 1.391 . S
C2427 C2428 1.396 . S
C2428 H2412 0.939 . S
C2428 C2427 1.396 . S
C2428 C2429 1.397 . S
C2429 C2428 1.397 . S
C2429 C2430 1.385 . S
C2430 H2413 0.940 . S
C2430 C2429 1.385 . S
C2430 C2431 1.388 . S
C2431 H2410 0.939 . S
C2431 C2426 1.391 . S
C2431 C2430 1.388 . S
P2432 O2443 1.490 . S
P2432 C2446 1.812 . S
P2432 C2452 1.803 . S
P2432 C2458 1.819 . S
H2433 C2447 0.941 . S
H2434 C2448 0.939 . S
H2435 C2450 0.940 . S
H2436 C2451 0.940 . S
H2437 C2453 0.939 . S
H2438 C2454 0.942 . S
H2439 C2456 0.940 . S
H2440 C2457 0.939 . S
H2441 C2459 0.941 . S
H2442 C2463 0.939 . S
O2443 P2432 1.490 . S
H2444 C2460 0.939 . S
H2445 C2462 0.940 . S
C2446 P2432 1.812 . S
C2446 C2447 1.389 . S
C2446 C2451 1.391 . S
C2447 H2433 0.941 . S
C2447 C2446 1.389 . S
C2447 C2448 1.397 . S
C2448 H2434 0.939 . S
C2448 C2447 1.397 . S
C2448 C2449 1.378 . S
C2449 C2448 1.378 . S
C2449 C2450 1.378 . S
C2450 H2435 0.940 . S
C2450 C2449 1.378 . S
C2450 C2451 1.396 . S
C2451 H2436 0.940 . S
C2451 C2446 1.391 . S
C2451 C2450 1.396 . S
C2452 P2432 1.803 . S
C2452 C2453 1.378 . S
C2452 C2457 1.400 . S
C2453 H2437 0.939 . S
C2453 C2452 1.378 . S
C2453 C2454 1.361 . S
C2454 H2438 0.942 . S
C2454 C2453 1.361 . S
C2454 C2455 1.369 . S
C2455 C2454 1.369 . S
C2455 C2456 1.404 . S
C2456 H2439 0.940 . S
C2456 C2455 1.404 . S
C2456 C2457 1.389 . S
C2457 H2440 0.939 . S
C2457 C2452 1.400 . S
C2457 C2456 1.389 . S
C2458 P2432 1.819 . S
C2458 C2459 1.391 . S
C2458 C2463 1.391 . S
C2459 H2441 0.941 . S
C2459 C2458 1.391 . S
C2459 C2460 1.396 . S
C2460 H2444 0.939 . S
C2460 C2459 1.396 . S
C2460 C2461 1.397 . S
C2461 C2460 1.397 . S
C2461 C2462 1.385 . S
C2462 H2445 0.940 . S
C2462 C2461 1.385 . S
C2462 C2463 1.388 . S
C2463 H2442 0.939 . S
C2463 C2458 1.391 . S
C2463 C2462 1.388 . S
P2464 O2475 1.490 . S
P2464 C2478 1.812 . S
P2464 C2484 1.803 . S
P2464 C2490 1.819 . S
H2465 C2479 0.941 . S
H2466 C2480 0.939 . S
H2467 C2482 0.940 . S
H2468 C2483 0.940 . S
H2469 C2485 0.939 . S
H2470 C2486 0.942 . S
H2471 C2488 0.940 . S
H2472 C2489 0.939 . S
H2473 C2491 0.941 . S
H2474 C2495 0.939 . S
O2475 P2464 1.490 . S
H2476 C2492 0.939 . S
H2477 C2494 0.940 . S
C2478 P2464 1.812 . S
C2478 C2479 1.389 . S
C2478 C2483 1.391 . S
C2479 H2465 0.941 . S
C2479 C2478 1.389 . S
C2479 C2480 1.397 . S
C2480 H2466 0.939 . S
C2480 C2479 1.397 . S
C2480 C2481 1.378 . S
C2481 C2480 1.378 . S
C2481 C2482 1.378 . S
C2482 H2467 0.940 . S
C2482 C2481 1.378 . S
C2482 C2483 1.396 . S
C2483 H2468 0.940 . S
C2483 C2478 1.391 . S
C2483 C2482 1.396 . S
C2484 P2464 1.803 . S
C2484 C2485 1.378 . S
C2484 C2489 1.400 . S
C2485 H2469 0.939 . S
C2485 C2484 1.378 . S
C2485 C2486 1.361 . S
C2486 H2470 0.942 . S
C2486 C2485 1.361 . S
C2486 C2487 1.369 . S
C2487 C2486 1.369 . S
C2487 C2488 1.404 . S
C2488 H2471 0.940 . S
C2488 C2487 1.404 . S
C2488 C2489 1.389 . S
C2489 H2472 0.939 . S
C2489 C2484 1.400 . S
C2489 C2488 1.389 . S
C2490 P2464 1.819 . S
C2490 C2491 1.391 . S
C2490 C2495 1.391 . S
C2491 H2473 0.941 . S
C2491 C2490 1.391 . S
C2491 C2492 1.396 . S
C2492 H2476 0.939 . S
C2492 C2491 1.396 . S
C2492 C2493 1.397 . S
C2493 C2492 1.397 . S
C2493 C2494 1.385 . S
C2494 H2477 0.940 . S
C2494 C2493 1.385 . S
C2494 C2495 1.388 . S
C2495 H2474 0.939 . S
C2495 C2490 1.391 . S
C2495 C2494 1.388 . S
P2496 O2507 1.490 . S
P2496 C2510 1.812 . S
P2496 C2516 1.803 . S
P2496 C2522 1.819 . S
H2497 C2511 0.941 . S
H2498 C2512 0.939 . S
H2499 C2514 0.940 . S
H2500 C2515 0.940 . S
H2501 C2517 0.939 . S
H2502 C2518 0.942 . S
H2503 C2520 0.940 . S
H2504 C2521 0.939 . S
H2505 C2523 0.941 . S
H2506 C2527 0.939 . S
O2507 P2496 1.490 . S
H2508 C2524 0.939 . S
H2509 C2526 0.940 . S
C2510 P2496 1.812 . S
C2510 C2511 1.389 . S
C2510 C2515 1.391 . S
C2511 H2497 0.941 . S
C2511 C2510 1.389 . S
C2511 C2512 1.397 . S
C2512 H2498 0.939 . S
C2512 C2511 1.397 . S
C2512 C2513 1.378 . S
C2513 C2512 1.378 . S
C2513 C2514 1.378 . S
C2514 H2499 0.940 . S
C2514 C2513 1.378 . S
C2514 C2515 1.396 . S
C2515 H2500 0.940 . S
C2515 C2510 1.391 . S
C2515 C2514 1.396 . S
C2516 P2496 1.803 . S
C2516 C2517 1.378 . S
C2516 C2521 1.400 . S
C2517 H2501 0.939 . S
C2517 C2516 1.378 . S
C2517 C2518 1.361 . S
C2518 H2502 0.942 . S
C2518 C2517 1.361 . S
C2518 C2519 1.369 . S
C2519 C2518 1.369 . S
C2519 C2520 1.404 . S
C2520 H2503 0.940 . S
C2520 C2519 1.404 . S
C2520 C2521 1.389 . S
C2521 H2504 0.939 . S
C2521 C2516 1.400 . S
C2521 C2520 1.389 . S
C2522 P2496 1.819 . S
C2522 C2523 1.391 . S
C2522 C2527 1.391 . S
C2523 H2505 0.941 . S
C2523 C2522 1.391 . S
C2523 C2524 1.396 . S
C2524 H2508 0.939 . S
C2524 C2523 1.396 . S
C2524 C2525 1.397 . S
C2525 C2524 1.397 . S
C2525 C2526 1.385 . S
C2526 H2509 0.940 . S
C2526 C2525 1.385 . S
C2526 C2527 1.388 . S
C2527 H2506 0.939 . S
C2527 C2522 1.391 . S
C2527 C2526 1.388 . S
P2528 O2539 1.490 . S
P2528 C2542 1.812 . S
P2528 C2548 1.803 . S
P2528 C2554 1.819 . S
H2529 C2543 0.941 . S
H2530 C2544 0.939 . S
H2531 C2546 0.940 . S
H2532 C2547 0.940 . S
H2533 C2549 0.939 . S
H2534 C2550 0.942 . S
H2535 C2552 0.940 . S
H2536 C2553 0.939 . S
H2537 C2555 0.941 . S
H2538 C2559 0.939 . S
O2539 P2528 1.490 . S
H2540 C2556 0.939 . S
H2541 C2558 0.940 . S
C2542 P2528 1.812 . S
C2542 C2543 1.389 . S
C2542 C2547 1.391 . S
C2543 H2529 0.941 . S
C2543 C2542 1.389 . S
C2543 C2544 1.397 . S
C2544 H2530 0.939 . S
C2544 C2543 1.397 . S
C2544 C2545 1.378 . S
C2545 C2544 1.378 . S
C2545 C2546 1.378 . S
C2546 H2531 0.940 . S
C2546 C2545 1.378 . S
C2546 C2547 1.396 . S
C2547 H2532 0.940 . S
C2547 C2542 1.391 . S
C2547 C2546 1.396 . S
C2548 P2528 1.803 . S
C2548 C2549 1.378 . S
C2548 C2553 1.400 . S
C2549 H2533 0.939 . S
C2549 C2548 1.378 . S
C2549 C2550 1.361 . S
C2550 H2534 0.942 . S
C2550 C2549 1.361 . S
C2550 C2551 1.369 . S
C2551 C2550 1.369 . S
C2551 C2552 1.404 . S
C2552 H2535 0.940 . S
C2552 C2551 1.404 . S
C2552 C2553 1.389 . S
C2553 H2536 0.939 . S
C2553 C2548 1.400 . S
C2553 C2552 1.389 . S
C2554 P2528 1.819 . S
C2554 C2555 1.391 . S
C2554 C2559 1.391 . S
C2555 H2537 0.941 . S
C2555 C2554 1.391 . S
C2555 C2556 1.396 . S
C2556 H2540 0.939 . S
C2556 C2555 1.396 . S
C2556 C2557 1.397 . S
C2557 C2556 1.397 . S
C2557 C2558 1.385 . S
C2558 H2541 0.940 . S
C2558 C2557 1.385 . S
C2558 C2559 1.388 . S
C2559 H2538 0.939 . S
C2559 C2554 1.391 . S
C2559 C2558 1.388 . S
P2560 O2571 1.490 . S
P2560 C2574 1.812 . S
P2560 C2580 1.803 . S
P2560 C2586 1.819 . S
H2561 C2575 0.941 . S
H2562 C2576 0.939 . S
H2563 C2578 0.940 . S
H2564 C2579 0.940 . S
H2565 C2581 0.939 . S
H2566 C2582 0.942 . S
H2567 C2584 0.940 . S
H2568 C2585 0.939 . S
H2569 C2587 0.941 . S
H2570 C2591 0.939 . S
O2571 P2560 1.490 . S
H2572 C2588 0.939 . S
H2573 C2590 0.940 . S
C2574 P2560 1.812 . S
C2574 C2575 1.389 . S
C2574 C2579 1.391 . S
C2575 H2561 0.941 . S
C2575 C2574 1.389 . S
C2575 C2576 1.397 . S
C2576 H2562 0.939 . S
C2576 C2575 1.397 . S
C2576 C2577 1.378 . S
C2577 C2576 1.378 . S
C2577 C2578 1.378 . S
C2578 H2563 0.940 . S
C2578 C2577 1.378 . S
C2578 C2579 1.396 . S
C2579 H2564 0.940 . S
C2579 C2574 1.391 . S
C2579 C2578 1.396 . S
C2580 P2560 1.803 . S
C2580 C2581 1.378 . S
C2580 C2585 1.400 . S
C2581 H2565 0.939 . S
C2581 C2580 1.378 . S
C2581 C2582 1.361 . S
C2582 H2566 0.942 . S
C2582 C2581 1.361 . S
C2582 C2583 1.369 . S
C2583 C2582 1.369 . S
C2583 C2584 1.404 . S
C2584 H2567 0.940 . S
C2584 C2583 1.404 . S
C2584 C2585 1.389 . S
C2585 H2568 0.939 . S
C2585 C2580 1.400 . S
C2585 C2584 1.389 . S
C2586 P2560 1.819 . S
C2586 C2587 1.391 . S
C2586 C2591 1.391 . S
C2587 H2569 0.941 . S
C2587 C2586 1.391 . S
C2587 C2588 1.396 . S
C2588 H2572 0.939 . S
C2588 C2587 1.396 . S
C2588 C2589 1.397 . S
C2589 C2588 1.397 . S
C2589 C2590 1.385 . S
C2590 H2573 0.940 . S
C2590 C2589 1.385 . S
C2590 C2591 1.388 . S
C2591 H2570 0.939 . S
C2591 C2586 1.391 . S
C2591 C2590 1.388 . S
P2592 O2603 1.490 . S
P2592 C2606 1.812 . S
P2592 C2612 1.803 . S
P2592 C2618 1.819 . S
H2593 C2607 0.941 . S
H2594 C2608 0.939 . S
H2595 C2610 0.940 . S
H2596 C2611 0.940 . S
H2597 C2613 0.939 . S
H2598 C2614 0.942 . S
H2599 C2616 0.940 . S
H2600 C2617 0.939 . S
H2601 C2619 0.941 . S
H2602 C2623 0.939 . S
O2603 P2592 1.490 . S
H2604 C2620 0.939 . S
H2605 C2622 0.940 . S
C2606 P2592 1.812 . S
C2606 C2607 1.389 . S
C2606 C2611 1.391 . S
C2607 H2593 0.941 . S
C2607 C2606 1.389 . S
C2607 C2608 1.397 . S
C2608 H2594 0.939 . S
C2608 C2607 1.397 . S
C2608 C2609 1.378 . S
C2609 C2608 1.378 . S
C2609 C2610 1.378 . S
C2610 H2595 0.940 . S
C2610 C2609 1.378 . S
C2610 C2611 1.396 . S
C2611 H2596 0.940 . S
C2611 C2606 1.391 . S
C2611 C2610 1.396 . S
C2612 P2592 1.803 . S
C2612 C2613 1.378 . S
C2612 C2617 1.400 . S
C2613 H2597 0.939 . S
C2613 C2612 1.378 . S
C2613 C2614 1.361 . S
C2614 H2598 0.942 . S
C2614 C2613 1.361 . S
C2614 C2615 1.369 . S
C2615 C2614 1.369 . S
C2615 C2616 1.404 . S
C2616 H2599 0.940 . S
C2616 C2615 1.404 . S
C2616 C2617 1.389 . S
C2617 H2600 0.939 . S
C2617 C2612 1.400 . S
C2617 C2616 1.389 . S
C2618 P2592 1.819 . S
C2618 C2619 1.391 . S
C2618 C2623 1.391 . S
C2619 H2601 0.941 . S
C2619 C2618 1.391 . S
C2619 C2620 1.396 . S
C2620 H2604 0.939 . S
C2620 C2619 1.396 . S
C2620 C2621 1.397 . S
C2621 C2620 1.397 . S
C2621 C2622 1.385 . S
C2622 H2605 0.940 . S
C2622 C2621 1.385 . S
C2622 C2623 1.388 . S
C2623 H2602 0.939 . S
C2623 C2618 1.391 . S
C2623 C2622 1.388 . S
P2624 O2635 1.490 . S
P2624 C2638 1.812 . S
P2624 C2644 1.803 . S
P2624 C2650 1.819 . S
H2625 C2639 0.941 . S
H2626 C2640 0.939 . S
H2627 C2642 0.940 . S
H2628 C2643 0.940 . S
H2629 C2645 0.939 . S
H2630 C2646 0.942 . S
H2631 C2648 0.940 . S
H2632 C2649 0.939 . S
H2633 C2651 0.941 . S
H2634 C2655 0.939 . S
O2635 P2624 1.490 . S
H2636 C2652 0.939 . S
H2637 C2654 0.940 . S
C2638 P2624 1.812 . S
C2638 C2639 1.389 . S
C2638 C2643 1.391 . S
C2639 H2625 0.941 . S
C2639 C2638 1.389 . S
C2639 C2640 1.397 . S
C2640 H2626 0.939 . S
C2640 C2639 1.397 . S
C2640 C2641 1.378 . S
C2641 C2640 1.378 . S
C2641 C2642 1.378 . S
C2642 H2627 0.940 . S
C2642 C2641 1.378 . S
C2642 C2643 1.396 . S
C2643 H2628 0.940 . S
C2643 C2638 1.391 . S
C2643 C2642 1.396 . S
C2644 P2624 1.803 . S
C2644 C2645 1.378 . S
C2644 C2649 1.400 . S
C2645 H2629 0.939 . S
C2645 C2644 1.378 . S
C2645 C2646 1.361 . S
C2646 H2630 0.942 . S
C2646 C2645 1.361 . S
C2646 C2647 1.369 . S
C2647 C2646 1.369 . S
C2647 C2648 1.404 . S
C2648 H2631 0.940 . S
C2648 C2647 1.404 . S
C2648 C2649 1.389 . S
C2649 H2632 0.939 . S
C2649 C2644 1.400 . S
C2649 C2648 1.389 . S
C2650 P2624 1.819 . S
C2650 C2651 1.391 . S
C2650 C2655 1.391 . S
C2651 H2633 0.941 . S
C2651 C2650 1.391 . S
C2651 C2652 1.396 . S
C2652 H2636 0.939 . S
C2652 C2651 1.396 . S
C2652 C2653 1.397 . S
C2653 C2652 1.397 . S
C2653 C2654 1.385 . S
C2654 H2637 0.940 . S
C2654 C2653 1.385 . S
C2654 C2655 1.388 . S
C2655 H2634 0.939 . S
C2655 C2650 1.391 . S
C2655 C2654 1.388 . S
P2656 O2667 1.490 . S
P2656 C2670 1.812 . S
P2656 C2676 1.803 . S
P2656 C2682 1.819 . S
H2657 C2671 0.941 . S
H2658 C2672 0.939 . S
H2659 C2674 0.940 . S
H2660 C2675 0.940 . S
H2661 C2677 0.939 . S
H2662 C2678 0.942 . S
H2663 C2680 0.940 . S
H2664 C2681 0.939 . S
H2665 C2683 0.941 . S
H2666 C2687 0.939 . S
O2667 P2656 1.490 . S
H2668 C2684 0.939 . S
H2669 C2686 0.940 . S
C2670 P2656 1.812 . S
C2670 C2671 1.389 . S
C2670 C2675 1.391 . S
C2671 H2657 0.941 . S
C2671 C2670 1.389 . S
C2671 C2672 1.397 . S
C2672 H2658 0.939 . S
C2672 C2671 1.397 . S
C2672 C2673 1.378 . S
C2673 C2672 1.378 . S
C2673 C2674 1.378 . S
C2674 H2659 0.940 . S
C2674 C2673 1.378 . S
C2674 C2675 1.396 . S
C2675 H2660 0.940 . S
C2675 C2670 1.391 . S
C2675 C2674 1.396 . S
C2676 P2656 1.803 . S
C2676 C2677 1.378 . S
C2676 C2681 1.400 . S
C2677 H2661 0.939 . S
C2677 C2676 1.378 . S
C2677 C2678 1.361 . S
C2678 H2662 0.942 . S
C2678 C2677 1.361 . S
C2678 C2679 1.369 . S
C2679 C2678 1.369 . S
C2679 C2680 1.404 . S
C2680 H2663 0.940 . S
C2680 C2679 1.404 . S
C2680 C2681 1.389 . S
C2681 H2664 0.939 . S
C2681 C2676 1.400 . S
C2681 C2680 1.389 . S
C2682 P2656 1.819 . S
C2682 C2683 1.391 . S
C2682 C2687 1.391 . S
C2683 H2665 0.941 . S
C2683 C2682 1.391 . S
C2683 C2684 1.396 . S
C2684 H2668 0.939 . S
C2684 C2683 1.396 . S
C2684 C2685 1.397 . S
C2685 C2684 1.397 . S
C2685 C2686 1.385 . S
C2686 H2669 0.940 . S
C2686 C2685 1.385 . S
C2686 C2687 1.388 . S
C2687 H2666 0.939 . S
C2687 C2682 1.391 . S
C2687 C2686 1.388 . S
P2688 O2699 1.490 . S
P2688 C2702 1.812 . S
P2688 C2708 1.803 . S
P2688 C2714 1.819 . S
H2689 C2703 0.941 . S
H2690 C2704 0.939 . S
H2691 C2706 0.940 . S
H2692 C2707 0.940 . S
H2693 C2709 0.939 . S
H2694 C2710 0.942 . S
H2695 C2712 0.940 . S
H2696 C2713 0.939 . S
H2697 C2715 0.941 . S
H2698 C2719 0.939 . S
O2699 P2688 1.490 . S
H2700 C2716 0.939 . S
H2701 C2718 0.940 . S
C2702 P2688 1.812 . S
C2702 C2703 1.389 . S
C2702 C2707 1.391 . S
C2703 H2689 0.941 . S
C2703 C2702 1.389 . S
C2703 C2704 1.397 . S
C2704 H2690 0.939 . S
C2704 C2703 1.397 . S
C2704 C2705 1.378 . S
C2705 C2704 1.378 . S
C2705 C2706 1.378 . S
C2706 H2691 0.940 . S
C2706 C2705 1.378 . S
C2706 C2707 1.396 . S
C2707 H2692 0.940 . S
C2707 C2702 1.391 . S
C2707 C2706 1.396 . S
C2708 P2688 1.803 . S
C2708 C2709 1.378 . S
C2708 C2713 1.400 . S
C2709 H2693 0.939 . S
C2709 C2708 1.378 . S
C2709 C2710 1.361 . S
C2710 H2694 0.942 . S
C2710 C2709 1.361 . S
C2710 C2711 1.369 . S
C2711 C2710 1.369 . S
C2711 C2712 1.404 . S
C2712 H2695 0.940 . S
C2712 C2711 1.404 . S
C2712 C2713 1.389 . S
C2713 H2696 0.939 . S
C2713 C2708 1.400 . S
C2713 C2712 1.389 . S
C2714 P2688 1.819 . S
C2714 C2715 1.391 . S
C2714 C2719 1.391 . S
C2715 H2697 0.941 . S
C2715 C2714 1.391 . S
C2715 C2716 1.396 . S
C2716 H2700 0.939 . S
C2716 C2715 1.396 . S
C2716 C2717 1.397 . S
C2717 C2716 1.397 . S
C2717 C2718 1.385 . S
C2718 H2701 0.940 . S
C2718 C2717 1.385 . S
C2718 C2719 1.388 . S
C2719 H2698 0.939 . S
C2719 C2714 1.391 . S
C2719 C2718 1.388 . S
P2720 O2731 1.490 . S
P2720 C2734 1.812 . S
P2720 C2740 1.803 . S
P2720 C2746 1.819 . S
H2721 C2735 0.941 . S
H2722 C2736 0.939 . S
H2723 C2738 0.940 . S
H2724 C2739 0.940 . S
H2725 C2741 0.939 . S
H2726 C2742 0.942 . S
H2727 C2744 0.940 . S
H2728 C2745 0.939 . S
H2729 C2747 0.941 . S
H2730 C2751 0.939 . S
O2731 P2720 1.490 . S
H2732 C2748 0.939 . S
H2733 C2750 0.940 . S
C2734 P2720 1.812 . S
C2734 C2735 1.389 . S
C2734 C2739 1.391 . S
C2735 H2721 0.941 . S
C2735 C2734 1.389 . S
C2735 C2736 1.397 . S
C2736 H2722 0.939 . S
C2736 C2735 1.397 . S
C2736 C2737 1.378 . S
C2737 C2736 1.378 . S
C2737 C2738 1.378 . S
C2738 H2723 0.940 . S
C2738 C2737 1.378 . S
C2738 C2739 1.396 . S
C2739 H2724 0.940 . S
C2739 C2734 1.391 . S
C2739 C2738 1.396 . S
C2740 P2720 1.803 . S
C2740 C2741 1.378 . S
C2740 C2745 1.400 . S
C2741 H2725 0.939 . S
C2741 C2740 1.378 . S
C2741 C2742 1.361 . S
C2742 H2726 0.942 . S
C2742 C2741 1.361 . S
C2742 C2743 1.369 . S
C2743 C2742 1.369 . S
C2743 C2744 1.404 . S
C2744 H2727 0.940 . S
C2744 C2743 1.404 . S
C2744 C2745 1.389 . S
C2745 H2728 0.939 . S
C2745 C2740 1.400 . S
C2745 C2744 1.389 . S
C2746 P2720 1.819 . S
C2746 C2747 1.391 . S
C2746 C2751 1.391 . S
C2747 H2729 0.941 . S
C2747 C2746 1.391 . S
C2747 C2748 1.396 . S
C2748 H2732 0.939 . S
C2748 C2747 1.396 . S
C2748 C2749 1.397 . S
C2749 C2748 1.397 . S
C2749 C2750 1.385 . S
C2750 H2733 0.940 . S
C2750 C2749 1.385 . S
C2750 C2751 1.388 . S
C2751 H2730 0.939 . S
C2751 C2746 1.391 . S
C2751 C2750 1.388 . S
P2752 O2763 1.490 . S
P2752 C2766 1.812 . S
P2752 C2772 1.803 . S
P2752 C2778 1.819 . S
H2753 C2767 0.941 . S
H2754 C2768 0.939 . S
H2755 C2770 0.940 . S
H2756 C2771 0.940 . S
H2757 C2773 0.939 . S
H2758 C2774 0.942 . S
H2759 C2776 0.940 . S
H2760 C2777 0.939 . S
H2761 C2779 0.941 . S
H2762 C2783 0.939 . S
O2763 P2752 1.490 . S
H2764 C2780 0.939 . S
H2765 C2782 0.940 . S
C2766 P2752 1.812 . S
C2766 C2767 1.389 . S
C2766 C2771 1.391 . S
C2767 H2753 0.941 . S
C2767 C2766 1.389 . S
C2767 C2768 1.397 . S
C2768 H2754 0.939 . S
C2768 C2767 1.397 . S
C2768 C2769 1.378 . S
C2769 C2768 1.378 . S
C2769 C2770 1.378 . S
C2770 H2755 0.940 . S
C2770 C2769 1.378 . S
C2770 C2771 1.396 . S
C2771 H2756 0.940 . S
C2771 C2766 1.391 . S
C2771 C2770 1.396 . S
C2772 P2752 1.803 . S
C2772 C2773 1.378 . S
C2772 C2777 1.400 . S
C2773 H2757 0.939 . S
C2773 C2772 1.378 . S
C2773 C2774 1.361 . S
C2774 H2758 0.942 . S
C2774 C2773 1.361 . S
C2774 C2775 1.369 . S
C2775 C2774 1.369 . S
C2775 C2776 1.404 . S
C2776 H2759 0.940 . S
C2776 C2775 1.404 . S
C2776 C2777 1.389 . S
C2777 H2760 0.939 . S
C2777 C2772 1.400 . S
C2777 C2776 1.389 . S
C2778 P2752 1.819 . S
C2778 C2779 1.391 . S
C2778 C2783 1.391 . S
C2779 H2761 0.941 . S
C2779 C2778 1.391 . S
C2779 C2780 1.396 . S
C2780 H2764 0.939 . S
C2780 C2779 1.396 . S
C2780 C2781 1.397 . S
C2781 C2780 1.397 . S
C2781 C2782 1.385 . S
C2782 H2765 0.940 . S
C2782 C2781 1.385 . S
C2782 C2783 1.388 . S
C2783 H2762 0.939 . S
C2783 C2778 1.391 . S
C2783 C2782 1.388 . S
P2784 O2795 1.490 . S
P2784 C2798 1.812 . S
P2784 C2804 1.803 . S
P2784 C2810 1.819 . S
H2785 C2799 0.941 . S
H2786 C2800 0.939 . S
H2787 C2802 0.940 . S
H2788 C2803 0.940 . S
H2789 C2805 0.939 . S
H2790 C2806 0.942 . S
H2791 C2808 0.940 . S
H2792 C2809 0.939 . S
H2793 C2811 0.941 . S
H2794 C2815 0.939 . S
O2795 P2784 1.490 . S
H2796 C2812 0.939 . S
H2797 C2814 0.940 . S
C2798 P2784 1.812 . S
C2798 C2799 1.389 . S
C2798 C2803 1.391 . S
C2799 H2785 0.941 . S
C2799 C2798 1.389 . S
C2799 C2800 1.397 . S
C2800 H2786 0.939 . S
C2800 C2799 1.397 . S
C2800 C2801 1.378 . S
C2801 C2800 1.378 . S
C2801 C2802 1.378 . S
C2802 H2787 0.940 . S
C2802 C2801 1.378 . S
C2802 C2803 1.396 . S
C2803 H2788 0.940 . S
C2803 C2798 1.391 . S
C2803 C2802 1.396 . S
C2804 P2784 1.803 . S
C2804 C2805 1.378 . S
C2804 C2809 1.400 . S
C2805 H2789 0.939 . S
C2805 C2804 1.378 . S
C2805 C2806 1.361 . S
C2806 H2790 0.942 . S
C2806 C2805 1.361 . S
C2806 C2807 1.369 . S
C2807 C2806 1.369 . S
C2807 C2808 1.404 . S
C2808 H2791 0.940 . S
C2808 C2807 1.404 . S
C2808 C2809 1.389 . S
C2809 H2792 0.939 . S
C2809 C2804 1.400 . S
C2809 C2808 1.389 . S
C2810 P2784 1.819 . S
C2810 C2811 1.391 . S
C2810 C2815 1.391 . S
C2811 H2793 0.941 . S
C2811 C2810 1.391 . S
C2811 C2812 1.396 . S
C2812 H2796 0.939 . S
C2812 C2811 1.396 . S
C2812 C2813 1.397 . S
C2813 C2812 1.397 . S
C2813 C2814 1.385 . S
C2814 H2797 0.940 . S
C2814 C2813 1.385 . S
C2814 C2815 1.388 . S
C2815 H2794 0.939 . S
C2815 C2810 1.391 . S
C2815 C2814 1.388 . S
P2816 O2827 1.490 . S
P2816 C2830 1.812 . S
P2816 C2836 1.803 . S
P2816 C2842 1.819 . S
H2817 C2831 0.941 . S
H2818 C2832 0.939 . S
H2819 C2834 0.940 . S
H2820 C2835 0.940 . S
H2821 C2837 0.939 . S
H2822 C2838 0.942 . S
H2823 C2840 0.940 . S
H2824 C2841 0.939 . S
H2825 C2843 0.941 . S
H2826 C2847 0.939 . S
O2827 P2816 1.490 . S
H2828 C2844 0.939 . S
H2829 C2846 0.940 . S
C2830 P2816 1.812 . S
C2830 C2831 1.389 . S
C2830 C2835 1.391 . S
C2831 H2817 0.941 . S
C2831 C2830 1.389 . S
C2831 C2832 1.397 . S
C2832 H2818 0.939 . S
C2832 C2831 1.397 . S
C2832 C2833 1.378 . S
C2833 C2832 1.378 . S
C2833 C2834 1.378 . S
C2834 H2819 0.940 . S
C2834 C2833 1.378 . S
C2834 C2835 1.396 . S
C2835 H2820 0.940 . S
C2835 C2830 1.391 . S
C2835 C2834 1.396 . S
C2836 P2816 1.803 . S
C2836 C2837 1.378 . S
C2836 C2841 1.400 . S
C2837 H2821 0.939 . S
C2837 C2836 1.378 . S
C2837 C2838 1.361 . S
C2838 H2822 0.942 . S
C2838 C2837 1.361 . S
C2838 C2839 1.369 . S
C2839 C2838 1.369 . S
C2839 C2840 1.404 . S
C2840 H2823 0.940 . S
C2840 C2839 1.404 . S
C2840 C2841 1.389 . S
C2841 H2824 0.939 . S
C2841 C2836 1.400 . S
C2841 C2840 1.389 . S
C2842 P2816 1.819 . S
C2842 C2843 1.391 . S
C2842 C2847 1.391 . S
C2843 H2825 0.941 . S
C2843 C2842 1.391 . S
C2843 C2844 1.396 . S
C2844 H2828 0.939 . S
C2844 C2843 1.396 . S
C2844 C2845 1.397 . S
C2845 C2844 1.397 . S
C2845 C2846 1.385 . S
C2846 H2829 0.940 . S
C2846 C2845 1.385 . S
C2846 C2847 1.388 . S
C2847 H2826 0.939 . S
C2847 C2842 1.391 . S
C2847 C2846 1.388 . S
P2848 O2859 1.490 . S
P2848 C2862 1.812 . S
P2848 C2868 1.803 . S
P2848 C2874 1.819 . S
H2849 C2863 0.941 . S
H2850 C2864 0.939 . S
H2851 C2866 0.940 . S
H2852 C2867 0.940 . S
H2853 C2869 0.939 . S
H2854 C2870 0.942 . S
H2855 C2872 0.940 . S
H2856 C2873 0.939 . S
H2857 C2875 0.941 . S
H2858 C2879 0.939 . S
O2859 P2848 1.490 . S
H2860 C2876 0.939 . S
H2861 C2878 0.940 . S
C2862 P2848 1.812 . S
C2862 C2863 1.389 . S
C2862 C2867 1.391 . S
C2863 H2849 0.941 . S
C2863 C2862 1.389 . S
C2863 C2864 1.397 . S
C2864 H2850 0.939 . S
C2864 C2863 1.397 . S
C2864 C2865 1.378 . S
C2865 C2864 1.378 . S
C2865 C2866 1.378 . S
C2866 H2851 0.940 . S
C2866 C2865 1.378 . S
C2866 C2867 1.396 . S
C2867 H2852 0.940 . S
C2867 C2862 1.391 . S
C2867 C2866 1.396 . S
C2868 P2848 1.803 . S
C2868 C2869 1.378 . S
C2868 C2873 1.400 . S
C2869 H2853 0.939 . S
C2869 C2868 1.378 . S
C2869 C2870 1.361 . S
C2870 H2854 0.942 . S
C2870 C2869 1.361 . S
C2870 C2871 1.369 . S
C2871 C2870 1.369 . S
C2871 C2872 1.404 . S
C2872 H2855 0.940 . S
C2872 C2871 1.404 . S
C2872 C2873 1.389 . S
C2873 H2856 0.939 . S
C2873 C2868 1.400 . S
C2873 C2872 1.389 . S
C2874 P2848 1.819 . S
C2874 C2875 1.391 . S
C2874 C2879 1.391 . S
C2875 H2857 0.941 . S
C2875 C2874 1.391 . S
C2875 C2876 1.396 . S
C2876 H2860 0.939 . S
C2876 C2875 1.396 . S
C2876 C2877 1.397 . S
C2877 C2876 1.397 . S
C2877 C2878 1.385 . S
C2878 H2861 0.940 . S
C2878 C2877 1.385 . S
C2878 C2879 1.388 . S
C2879 H2858 0.939 . S
C2879 C2874 1.391 . S
C2879 C2878 1.388 . S
P2880 O2891 1.490 . S
P2880 C2894 1.812 . S
P2880 C2900 1.803 . S
P2880 C2906 1.819 . S
H2881 C2895 0.941 . S
H2882 C2896 0.939 . S
H2883 C2898 0.940 . S
H2884 C2899 0.940 . S
H2885 C2901 0.939 . S
H2886 C2902 0.942 . S
H2887 C2904 0.940 . S
H2888 C2905 0.939 . S
H2889 C2907 0.941 . S
H2890 C2911 0.939 . S
O2891 P2880 1.490 . S
H2892 C2908 0.939 . S
H2893 C2910 0.940 . S
C2894 P2880 1.812 . S
C2894 C2895 1.389 . S
C2894 C2899 1.391 . S
C2895 H2881 0.941 . S
C2895 C2894 1.389 . S
C2895 C2896 1.397 . S
C2896 H2882 0.939 . S
C2896 C2895 1.397 . S
C2896 C2897 1.378 . S
C2897 C2896 1.378 . S
C2897 C2898 1.378 . S
C2898 H2883 0.940 . S
C2898 C2897 1.378 . S
C2898 C2899 1.396 . S
C2899 H2884 0.940 . S
C2899 C2894 1.391 . S
C2899 C2898 1.396 . S
C2900 P2880 1.803 . S
C2900 C2901 1.378 . S
C2900 C2905 1.400 . S
C2901 H2885 0.939 . S
C2901 C2900 1.378 . S
C2901 C2902 1.361 . S
C2902 H2886 0.942 . S
C2902 C2901 1.361 . S
C2902 C2903 1.369 . S
C2903 C2902 1.369 . S
C2903 C2904 1.404 . S
C2904 H2887 0.940 . S
C2904 C2903 1.404 . S
C2904 C2905 1.389 . S
C2905 H2888 0.939 . S
C2905 C2900 1.400 . S
C2905 C2904 1.389 . S
C2906 P2880 1.819 . S
C2906 C2907 1.391 . S
C2906 C2911 1.391 . S
C2907 H2889 0.941 . S
C2907 C2906 1.391 . S
C2907 C2908 1.396 . S
C2908 H2892 0.939 . S
C2908 C2907 1.396 . S
C2908 C2909 1.397 . S
C2909 C2908 1.397 . S
C2909 C2910 1.385 . S
C2910 H2893 0.940 . S
C2910 C2909 1.385 . S
C2910 C2911 1.388 . S
C2911 H2890 0.939 . S
C2911 C2906 1.391 . S
C2911 C2910 1.388 . S
P2912 O2923 1.490 . S
P2912 C2926 1.812 . S
P2912 C2932 1.803 . S
P2912 C2938 1.819 . S
H2913 C2927 0.941 . S
H2914 C2928 0.939 . S
H2915 C2930 0.940 . S
H2916 C2931 0.940 . S
H2917 C2933 0.939 . S
H2918 C2934 0.942 . S
H2919 C2936 0.940 . S
H2920 C2937 0.939 . S
H2921 C2939 0.941 . S
H2922 C2943 0.939 . S
O2923 P2912 1.490 . S
H2924 C2940 0.939 . S
H2925 C2942 0.940 . S
C2926 P2912 1.812 . S
C2926 C2927 1.389 . S
C2926 C2931 1.391 . S
C2927 H2913 0.941 . S
C2927 C2926 1.389 . S
C2927 C2928 1.397 . S
C2928 H2914 0.939 . S
C2928 C2927 1.397 . S
C2928 C2929 1.378 . S
C2929 C2928 1.378 . S
C2929 C2930 1.378 . S
C2930 H2915 0.940 . S
C2930 C2929 1.378 . S
C2930 C2931 1.396 . S
C2931 H2916 0.940 . S
C2931 C2926 1.391 . S
C2931 C2930 1.396 . S
C2932 P2912 1.803 . S
C2932 C2933 1.378 . S
C2932 C2937 1.400 . S
C2933 H2917 0.939 . S
C2933 C2932 1.378 . S
C2933 C2934 1.361 . S
C2934 H2918 0.942 . S
C2934 C2933 1.361 . S
C2934 C2935 1.369 . S
C2935 C2934 1.369 . S
C2935 C2936 1.404 . S
C2936 H2919 0.940 . S
C2936 C2935 1.404 . S
C2936 C2937 1.389 . S
C2937 H2920 0.939 . S
C2937 C2932 1.400 . S
C2937 C2936 1.389 . S
C2938 P2912 1.819 . S
C2938 C2939 1.391 . S
C2938 C2943 1.391 . S
C2939 H2921 0.941 . S
C2939 C2938 1.391 . S
C2939 C2940 1.396 . S
C2940 H2924 0.939 . S
C2940 C2939 1.396 . S
C2940 C2941 1.397 . S
C2941 C2940 1.397 . S
C2941 C2942 1.385 . S
C2942 H2925 0.940 . S
C2942 C2941 1.385 . S
C2942 C2943 1.388 . S
C2943 H2922 0.939 . S
C2943 C2938 1.391 . S
C2943 C2942 1.388 . S
P2944 O2955 1.490 . S
P2944 C2958 1.812 . S
P2944 C2964 1.803 . S
P2944 C2970 1.819 . S
H2945 C2959 0.941 . S
H2946 C2960 0.939 . S
H2947 C2962 0.940 . S
H2948 C2963 0.940 . S
H2949 C2965 0.939 . S
H2950 C2966 0.942 . S
H2951 C2968 0.940 . S
H2952 C2969 0.939 . S
H2953 C2971 0.941 . S
H2954 C2975 0.939 . S
O2955 P2944 1.490 . S
H2956 C2972 0.939 . S
H2957 C2974 0.940 . S
C2958 P2944 1.812 . S
C2958 C2959 1.389 . S
C2958 C2963 1.391 . S
C2959 H2945 0.941 . S
C2959 C2958 1.389 . S
C2959 C2960 1.397 . S
C2960 H2946 0.939 . S
C2960 C2959 1.397 . S
C2960 C2961 1.378 . S
C2961 C2960 1.378 . S
C2961 C2962 1.378 . S
C2962 H2947 0.940 . S
C2962 C2961 1.378 . S
C2962 C2963 1.396 . S
C2963 H2948 0.940 . S
C2963 C2958 1.391 . S
C2963 C2962 1.396 . S
C2964 P2944 1.803 . S
C2964 C2965 1.378 . S
C2964 C2969 1.400 . S
C2965 H2949 0.939 . S
C2965 C2964 1.378 . S
C2965 C2966 1.361 . S
C2966 H2950 0.942 . S
C2966 C2965 1.361 . S
C2966 C2967 1.369 . S
C2967 C2966 1.369 . S
C2967 C2968 1.404 . S
C2968 H2951 0.940 . S
C2968 C2967 1.404 . S
C2968 C2969 1.389 . S
C2969 H2952 0.939 . S
C2969 C2964 1.400 . S
C2969 C2968 1.389 . S
C2970 P2944 1.819 . S
C2970 C2971 1.391 . S
C2970 C2975 1.391 . S
C2971 H2953 0.941 . S
C2971 C2970 1.391 . S
C2971 C2972 1.396 . S
C2972 H2956 0.939 . S
C2972 C2971 1.396 . S
C2972 C2973 1.397 . S
C2973 C2972 1.397 . S
C2973 C2974 1.385 . S
C2974 H2957 0.940 . S
C2974 C2973 1.385 . S
C2974 C2975 1.388 . S
C2975 H2954 0.939 . S
C2975 C2970 1.391 . S
C2975 C2974 1.388 . S
P2976 O2987 1.490 . S
P2976 C2990 1.812 . S
P2976 C2996 1.803 . S
P2976 C3002 1.819 . S
H2977 C2991 0.941 . S
H2978 C2992 0.939 . S
H2979 C2994 0.940 . S
H2980 C2995 0.940 . S
H2981 C2997 0.939 . S
H2982 C2998 0.942 . S
H2983 C3000 0.940 . S
H2984 C3001 0.939 . S
H2985 C3003 0.941 . S
H2986 C3007 0.939 . S
O2987 P2976 1.490 . S
H2988 C3004 0.939 . S
H2989 C3006 0.940 . S
C2990 P2976 1.812 . S
C2990 C2991 1.389 . S
C2990 C2995 1.391 . S
C2991 H2977 0.941 . S
C2991 C2990 1.389 . S
C2991 C2992 1.397 . S
C2992 H2978 0.939 . S
C2992 C2991 1.397 . S
C2992 C2993 1.378 . S
C2993 C2992 1.378 . S
C2993 C2994 1.378 . S
C2994 H2979 0.940 . S
C2994 C2993 1.378 . S
C2994 C2995 1.396 . S
C2995 H2980 0.940 . S
C2995 C2990 1.391 . S
C2995 C2994 1.396 . S
C2996 P2976 1.803 . S
C2996 C2997 1.378 . S
C2996 C3001 1.400 . S
C2997 H2981 0.939 . S
C2997 C2996 1.378 . S
C2997 C2998 1.361 . S
C2998 H2982 0.942 . S
C2998 C2997 1.361 . S
C2998 C2999 1.369 . S
C2999 C2998 1.369 . S
C2999 C3000 1.404 . S
C3000 H2983 0.940 . S
C3000 C2999 1.404 . S
C3000 C3001 1.389 . S
C3001 H2984 0.939 . S
C3001 C2996 1.400 . S
C3001 C3000 1.389 . S
C3002 P2976 1.819 . S
C3002 C3003 1.391 . S
C3002 C3007 1.391 . S
C3003 H2985 0.941 . S
C3003 C3002 1.391 . S
C3003 C3004 1.396 . S
C3004 H2988 0.939 . S
C3004 C3003 1.396 . S
C3004 C3005 1.397 . S
C3005 C3004 1.397 . S
C3005 C3006 1.385 . S
C3006 H2989 0.940 . S
C3006 C3005 1.385 . S
C3006 C3007 1.388 . S
C3007 H2986 0.939 . S
C3007 C3002 1.391 . S
C3007 C3006 1.388 . S
P3008 O3019 1.490 . S
P3008 C3022 1.812 . S
P3008 C3028 1.803 . S
P3008 C3034 1.819 . S
H3009 C3023 0.941 . S
H3010 C3024 0.939 . S
H3011 C3026 0.940 . S
H3012 C3027 0.940 . S
H3013 C3029 0.939 . S
H3014 C3030 0.942 . S
H3015 C3032 0.940 . S
H3016 C3033 0.939 . S
H3017 C3035 0.941 . S
H3018 C3039 0.939 . S
O3019 P3008 1.490 . S
H3020 C3036 0.939 . S
H3021 C3038 0.940 . S
C3022 P3008 1.812 . S
C3022 C3023 1.389 . S
C3022 C3027 1.391 . S
C3023 H3009 0.941 . S
C3023 C3022 1.389 . S
C3023 C3024 1.397 . S
C3024 H3010 0.939 . S
C3024 C3023 1.397 . S
C3024 C3025 1.378 . S
C3025 C3024 1.378 . S
C3025 C3026 1.378 . S
C3026 H3011 0.940 . S
C3026 C3025 1.378 . S
C3026 C3027 1.396 . S
C3027 H3012 0.940 . S
C3027 C3022 1.391 . S
C3027 C3026 1.396 . S
C3028 P3008 1.803 . S
C3028 C3029 1.378 . S
C3028 C3033 1.400 . S
C3029 H3013 0.939 . S
C3029 C3028 1.378 . S
C3029 C3030 1.361 . S
C3030 H3014 0.942 . S
C3030 C3029 1.361 . S
C3030 C3031 1.369 . S
C3031 C3030 1.369 . S
C3031 C3032 1.404 . S
C3032 H3015 0.940 . S
C3032 C3031 1.404 . S
C3032 C3033 1.389 . S
C3033 H3016 0.939 . S
C3033 C3028 1.400 . S
C3033 C3032 1.389 . S
C3034 P3008 1.819 . S
C3034 C3035 1.391 . S
C3034 C3039 1.391 . S
C3035 H3017 0.941 . S
C3035 C3034 1.391 . S
C3035 C3036 1.396 . S
C3036 H3020 0.939 . S
C3036 C3035 1.396 . S
C3036 C3037 1.397 . S
C3037 C3036 1.397 . S
C3037 C3038 1.385 . S
C3038 H3021 0.940 . S
C3038 C3037 1.385 . S
C3038 C3039 1.388 . S
C3039 H3018 0.939 . S
C3039 C3034 1.391 . S
C3039 C3038 1.388 . S
P3040 O3051 1.490 . S
P3040 C3054 1.812 . S
P3040 C3060 1.803 . S
P3040 C3066 1.819 . S
H3041 C3055 0.941 . S
H3042 C3056 0.939 . S
H3043 C3058 0.940 . S
H3044 C3059 0.940 . S
H3045 C3061 0.939 . S
H3046 C3062 0.942 . S
H3047 C3064 0.940 . S
H3048 C3065 0.939 . S
H3049 C3067 0.941 . S
H3050 C3071 0.939 . S
O3051 P3040 1.490 . S
H3052 C3068 0.939 . S
H3053 C3070 0.940 . S
C3054 P3040 1.812 . S
C3054 C3055 1.389 . S
C3054 C3059 1.391 . S
C3055 H3041 0.941 . S
C3055 C3054 1.389 . S
C3055 C3056 1.397 . S
C3056 H3042 0.939 . S
C3056 C3055 1.397 . S
C3056 C3057 1.378 . S
C3057 C3056 1.378 . S
C3057 C3058 1.378 . S
C3058 H3043 0.940 . S
C3058 C3057 1.378 . S
C3058 C3059 1.396 . S
C3059 H3044 0.940 . S
C3059 C3054 1.391 . S
C3059 C3058 1.396 . S
C3060 P3040 1.803 . S
C3060 C3061 1.378 . S
C3060 C3065 1.400 . S
C3061 H3045 0.939 . S
C3061 C3060 1.378 . S
C3061 C3062 1.361 . S
C3062 H3046 0.942 . S
C3062 C3061 1.361 . S
C3062 C3063 1.369 . S
C3063 C3062 1.369 . S
C3063 C3064 1.404 . S
C3064 H3047 0.940 . S
C3064 C3063 1.404 . S
C3064 C3065 1.389 . S
C3065 H3048 0.939 . S
C3065 C3060 1.400 . S
C3065 C3064 1.389 . S
C3066 P3040 1.819 . S
C3066 C3067 1.391 . S
C3066 C3071 1.391 . S
C3067 H3049 0.941 . S
C3067 C3066 1.391 . S
C3067 C3068 1.396 . S
C3068 H3052 0.939 . S
C3068 C3067 1.396 . S
C3068 C3069 1.397 . S
C3069 C3068 1.397 . S
C3069 C3070 1.385 . S
C3070 H3053 0.940 . S
C3070 C3069 1.385 . S
C3070 C3071 1.388 . S
C3071 H3050 0.939 . S
C3071 C3066 1.391 . S
C3071 C3070 1.388 . S
P3072 O3083 1.490 . S
P3072 C3086 1.812 . S
P3072 C3092 1.803 . S
P3072 C3098 1.819 . S
H3073 C3087 0.941 . S
H3074 C3088 0.939 . S
H3075 C3090 0.940 . S
H3076 C3091 0.940 . S
H3077 C3093 0.939 . S
H3078 C3094 0.942 . S
H3079 C3096 0.940 . S
H3080 C3097 0.939 . S
H3081 C3099 0.941 . S
H3082 C3103 0.939 . S
O3083 P3072 1.490 . S
H3084 C3100 0.939 . S
H3085 C3102 0.940 . S
C3086 P3072 1.812 . S
C3086 C3087 1.389 . S
C3086 C3091 1.391 . S
C3087 H3073 0.941 . S
C3087 C3086 1.389 . S
C3087 C3088 1.397 . S
C3088 H3074 0.939 . S
C3088 C3087 1.397 . S
C3088 C3089 1.378 . S
C3089 C3088 1.378 . S
C3089 C3090 1.378 . S
C3090 H3075 0.940 . S
C3090 C3089 1.378 . S
C3090 C3091 1.396 . S
C3091 H3076 0.940 . S
C3091 C3086 1.391 . S
C3091 C3090 1.396 . S
C3092 P3072 1.803 . S
C3092 C3093 1.378 . S
C3092 C3097 1.400 . S
C3093 H3077 0.939 . S
C3093 C3092 1.378 . S
C3093 C3094 1.361 . S
C3094 H3078 0.942 . S
C3094 C3093 1.361 . S
C3094 C3095 1.369 . S
C3095 C3094 1.369 . S
C3095 C3096 1.404 . S
C3096 H3079 0.940 . S
C3096 C3095 1.404 . S
C3096 C3097 1.389 . S
C3097 H3080 0.939 . S
C3097 C3092 1.400 . S
C3097 C3096 1.389 . S
C3098 P3072 1.819 . S
C3098 C3099 1.391 . S
C3098 C3103 1.391 . S
C3099 H3081 0.941 . S
C3099 C3098 1.391 . S
C3099 C3100 1.396 . S
C3100 H3084 0.939 . S
C3100 C3099 1.396 . S
C3100 C3101 1.397 . S
C3101 C3100 1.397 . S
C3101 C3102 1.385 . S
C3102 H3085 0.940 . S
C3102 C3101 1.385 . S
C3102 C3103 1.388 . S
C3103 H3082 0.939 . S
C3103 C3098 1.391 . S
C3103 C3102 1.388 . S
P3104 O3115 1.490 . S
P3104 C3118 1.812 . S
P3104 C3124 1.803 . S
P3104 C3130 1.819 . S
H3105 C3119 0.941 . S
H3106 C3120 0.939 . S
H3107 C3122 0.940 . S
H3108 C3123 0.940 . S
H3109 C3125 0.939 . S
H3110 C3126 0.942 . S
H3111 C3128 0.940 . S
H3112 C3129 0.939 . S
H3113 C3131 0.941 . S
H3114 C3135 0.939 . S
O3115 P3104 1.490 . S
H3116 C3132 0.939 . S
H3117 C3134 0.940 . S
C3118 P3104 1.812 . S
C3118 C3119 1.389 . S
C3118 C3123 1.391 . S
C3119 H3105 0.941 . S
C3119 C3118 1.389 . S
C3119 C3120 1.397 . S
C3120 H3106 0.939 . S
C3120 C3119 1.397 . S
C3120 C3121 1.378 . S
C3121 C3120 1.378 . S
C3121 C3122 1.378 . S
C3122 H3107 0.940 . S
C3122 C3121 1.378 . S
C3122 C3123 1.396 . S
C3123 H3108 0.940 . S
C3123 C3118 1.391 . S
C3123 C3122 1.396 . S
C3124 P3104 1.803 . S
C3124 C3125 1.378 . S
C3124 C3129 1.400 . S
C3125 H3109 0.939 . S
C3125 C3124 1.378 . S
C3125 C3126 1.361 . S
C3126 H3110 0.942 . S
C3126 C3125 1.361 . S
C3126 C3127 1.369 . S
C3127 C3126 1.369 . S
C3127 C3128 1.404 . S
C3128 H3111 0.940 . S
C3128 C3127 1.404 . S
C3128 C3129 1.389 . S
C3129 H3112 0.939 . S
C3129 C3124 1.400 . S
C3129 C3128 1.389 . S
C3130 P3104 1.819 . S
C3130 C3131 1.391 . S
C3130 C3135 1.391 . S
C3131 H3113 0.941 . S
C3131 C3130 1.391 . S
C3131 C3132 1.396 . S
C3132 H3116 0.939 . S
C3132 C3131 1.396 . S
C3132 C3133 1.397 . S
C3133 C3132 1.397 . S
C3133 C3134 1.385 . S
C3134 H3117 0.940 . S
C3134 C3133 1.385 . S
C3134 C3135 1.388 . S
C3135 H3114 0.939 . S
C3135 C3130 1.391 . S
C3135 C3134 1.388 . S
P3136 O3147 1.490 . S
P3136 C3150 1.812 . S
P3136 C3156 1.803 . S
P3136 C3162 1.819 . S
H3137 C3151 0.941 . S
H3138 C3152 0.939 . S
H3139 C3154 0.940 . S
H3140 C3155 0.940 . S
H3141 C3157 0.939 . S
H3142 C3158 0.942 . S
H3143 C3160 0.940 . S
H3144 C3161 0.939 . S
H3145 C3163 0.941 . S
H3146 C3167 0.939 . S
O3147 P3136 1.490 . S
H3148 C3164 0.939 . S
H3149 C3166 0.940 . S
C3150 P3136 1.812 . S
C3150 C3151 1.389 . S
C3150 C3155 1.391 . S
C3151 H3137 0.941 . S
C3151 C3150 1.389 . S
C3151 C3152 1.397 . S
C3152 H3138 0.939 . S
C3152 C3151 1.397 . S
C3152 C3153 1.378 . S
C3153 C3152 1.378 . S
C3153 C3154 1.378 . S
C3154 H3139 0.940 . S
C3154 C3153 1.378 . S
C3154 C3155 1.396 . S
C3155 H3140 0.940 . S
C3155 C3150 1.391 . S
C3155 C3154 1.396 . S
C3156 P3136 1.803 . S
C3156 C3157 1.378 . S
C3156 C3161 1.400 . S
C3157 H3141 0.939 . S
C3157 C3156 1.378 . S
C3157 C3158 1.361 . S
C3158 H3142 0.942 . S
C3158 C3157 1.361 . S
C3158 C3159 1.369 . S
C3159 C3158 1.369 . S
C3159 C3160 1.404 . S
C3160 H3143 0.940 . S
C3160 C3159 1.404 . S
C3160 C3161 1.389 . S
C3161 H3144 0.939 . S
C3161 C3156 1.400 . S
C3161 C3160 1.389 . S
C3162 P3136 1.819 . S
C3162 C3163 1.391 . S
C3162 C3167 1.391 . S
C3163 H3145 0.941 . S
C3163 C3162 1.391 . S
C3163 C3164 1.396 . S
C3164 H3148 0.939 . S
C3164 C3163 1.396 . S
C3164 C3165 1.397 . S
C3165 C3164 1.397 . S
C3165 C3166 1.385 . S
C3166 H3149 0.940 . S
C3166 C3165 1.385 . S
C3166 C3167 1.388 . S
C3167 H3146 0.939 . S
C3167 C3162 1.391 . S
C3167 C3166 1.388 . S
P3168 O3179 1.490 . S
P3168 C3182 1.812 . S
P3168 C3188 1.803 . S
P3168 C3194 1.819 . S
H3169 C3183 0.941 . S
H3170 C3184 0.939 . S
H3171 C3186 0.940 . S
H3172 C3187 0.940 . S
H3173 C3189 0.939 . S
H3174 C3190 0.942 . S
H3175 C3192 0.940 . S
H3176 C3193 0.939 . S
H3177 C3195 0.941 . S
H3178 C3199 0.939 . S
O3179 P3168 1.490 . S
H3180 C3196 0.939 . S
H3181 C3198 0.940 . S
C3182 P3168 1.812 . S
C3182 C3183 1.389 . S
C3182 C3187 1.391 . S
C3183 H3169 0.941 . S
C3183 C3182 1.389 . S
C3183 C3184 1.397 . S
C3184 H3170 0.939 . S
C3184 C3183 1.397 . S
C3184 C3185 1.378 . S
C3185 C3184 1.378 . S
C3185 C3186 1.378 . S
C3186 H3171 0.940 . S
C3186 C3185 1.378 . S
C3186 C3187 1.396 . S
C3187 H3172 0.940 . S
C3187 C3182 1.391 . S
C3187 C3186 1.396 . S
C3188 P3168 1.803 . S
C3188 C3189 1.378 . S
C3188 C3193 1.400 . S
C3189 H3173 0.939 . S
C3189 C3188 1.378 . S
C3189 C3190 1.361 . S
C3190 H3174 0.942 . S
C3190 C3189 1.361 . S
C3190 C3191 1.369 . S
C3191 C3190 1.369 . S
C3191 C3192 1.404 . S
C3192 H3175 0.940 . S
C3192 C3191 1.404 . S
C3192 C3193 1.389 . S
C3193 H3176 0.939 . S
C3193 C3188 1.400 . S
C3193 C3192 1.389 . S
C3194 P3168 1.819 . S
C3194 C3195 1.391 . S
C3194 C3199 1.391 . S
C3195 H3177 0.941 . S
C3195 C3194 1.391 . S
C3195 C3196 1.396 . S
C3196 H3180 0.939 . S
C3196 C3195 1.396 . S
C3196 C3197 1.397 . S
C3197 C3196 1.397 . S
C3197 C3198 1.385 . S
C3198 H3181 0.940 . S
C3198 C3197 1.385 . S
C3198 C3199 1.388 . S
C3199 H3178 0.939 . S
C3199 C3194 1.391 . S
C3199 C3198 1.388 . S
P3200 O3211 1.490 . S
P3200 C3214 1.812 . S
P3200 C3220 1.803 . S
P3200 C3226 1.819 . S
H3201 C3215 0.941 . S
H3202 C3216 0.939 . S
H3203 C3218 0.940 . S
H3204 C3219 0.940 . S
H3205 C3221 0.939 . S
H3206 C3222 0.942 . S
H3207 C3224 0.940 . S
H3208 C3225 0.939 . S
H3209 C3227 0.941 . S
H3210 C3231 0.939 . S
O3211 P3200 1.490 . S
H3212 C3228 0.939 . S
H3213 C3230 0.940 . S
C3214 P3200 1.812 . S
C3214 C3215 1.389 . S
C3214 C3219 1.391 . S
C3215 H3201 0.941 . S
C3215 C3214 1.389 . S
C3215 C3216 1.397 . S
C3216 H3202 0.939 . S
C3216 C3215 1.397 . S
C3216 C3217 1.378 . S
C3217 C3216 1.378 . S
C3217 C3218 1.378 . S
C3218 H3203 0.940 . S
C3218 C3217 1.378 . S
C3218 C3219 1.396 . S
C3219 H3204 0.940 . S
C3219 C3214 1.391 . S
C3219 C3218 1.396 . S
C3220 P3200 1.803 . S
C3220 C3221 1.378 . S
C3220 C3225 1.400 . S
C3221 H3205 0.939 . S
C3221 C3220 1.378 . S
C3221 C3222 1.361 . S
C3222 H3206 0.942 . S
C3222 C3221 1.361 . S
C3222 C3223 1.369 . S
C3223 C3222 1.369 . S
C3223 C3224 1.404 . S
C3224 H3207 0.940 . S
C3224 C3223 1.404 . S
C3224 C3225 1.389 . S
C3225 H3208 0.939 . S
C3225 C3220 1.400 . S
C3225 C3224 1.389 . S
C3226 P3200 1.819 . S
C3226 C3227 1.391 . S
C3226 C3231 1.391 . S
C3227 H3209 0.941 . S
C3227 C3226 1.391 . S
C3227 C3228 1.396 . S
C3228 H3212 0.939 . S
C3228 C3227 1.396 . S
C3228 C3229 1.397 . S
C3229 C3228 1.397 . S
C3229 C3230 1.385 . S
C3230 H3213 0.940 . S
C3230 C3229 1.385 . S
C3230 C3231 1.388 . S
C3231 H3210 0.939 . S
C3231 C3226 1.391 . S
C3231 C3230 1.388 . S
P3232 O3243 1.490 . S
P3232 C3246 1.812 . S
P3232 C3252 1.803 . S
P3232 C3258 1.819 . S
H3233 C3247 0.941 . S
H3234 C3248 0.939 . S
H3235 C3250 0.940 . S
H3236 C3251 0.940 . S
H3237 C3253 0.939 . S
H3238 C3254 0.942 . S
H3239 C3256 0.940 . S
H3240 C3257 0.939 . S
H3241 C3259 0.941 . S
H3242 C3263 0.939 . S
O3243 P3232 1.490 . S
H3244 C3260 0.939 . S
H3245 C3262 0.940 . S
C3246 P3232 1.812 . S
C3246 C3247 1.389 . S
C3246 C3251 1.391 . S
C3247 H3233 0.941 . S
C3247 C3246 1.389 . S
C3247 C3248 1.397 . S
C3248 H3234 0.939 . S
C3248 C3247 1.397 . S
C3248 C3249 1.378 . S
C3249 C3248 1.378 . S
C3249 C3250 1.378 . S
C3250 H3235 0.940 . S
C3250 C3249 1.378 . S
C3250 C3251 1.396 . S
C3251 H3236 0.940 . S
C3251 C3246 1.391 . S
C3251 C3250 1.396 . S
C3252 P3232 1.803 . S
C3252 C3253 1.378 . S
C3252 C3257 1.400 . S
C3253 H3237 0.939 . S
C3253 C3252 1.378 . S
C3253 C3254 1.361 . S
C3254 H3238 0.942 . S
C3254 C3253 1.361 . S
C3254 C3255 1.369 . S
C3255 C3254 1.369 . S
C3255 C3256 1.404 . S
C3256 H3239 0.940 . S
C3256 C3255 1.404 . S
C3256 C3257 1.389 . S
C3257 H3240 0.939 . S
C3257 C3252 1.400 . S
C3257 C3256 1.389 . S
C3258 P3232 1.819 . S
C3258 C3259 1.391 . S
C3258 C3263 1.391 . S
C3259 H3241 0.941 . S
C3259 C3258 1.391 . S
C3259 C3260 1.396 . S
C3260 H3244 0.939 . S
C3260 C3259 1.396 . S
C3260 C3261 1.397 . S
C3261 C3260 1.397 . S
C3261 C3262 1.385 . S
C3262 H3245 0.940 . S
C3262 C3261 1.385 . S
C3262 C3263 1.388 . S
C3263 H3242 0.939 . S
C3263 C3258 1.391 . S
C3263 C3262 1.388 . S
P3264 O3275 1.490 . S
P3264 C3278 1.812 . S
P3264 C3284 1.803 . S
P3264 C3290 1.819 . S
H3265 C3279 0.941 . S
H3266 C3280 0.939 . S
H3267 C3282 0.940 . S
H3268 C3283 0.940 . S
H3269 C3285 0.939 . S
H3270 C3286 0.942 . S
H3271 C3288 0.940 . S
H3272 C3289 0.939 . S
H3273 C3291 0.941 . S
H3274 C3295 0.939 . S
O3275 P3264 1.490 . S
H3276 C3292 0.939 . S
H3277 C3294 0.940 . S
C3278 P3264 1.812 . S
C3278 C3279 1.389 . S
C3278 C3283 1.391 . S
C3279 H3265 0.941 . S
C3279 C3278 1.389 . S
C3279 C3280 1.397 . S
C3280 H3266 0.939 . S
C3280 C3279 1.397 . S
C3280 C3281 1.378 . S
C3281 C3280 1.378 . S
C3281 C3282 1.378 . S
C3282 H3267 0.940 . S
C3282 C3281 1.378 . S
C3282 C3283 1.396 . S
C3283 H3268 0.940 . S
C3283 C3278 1.391 . S
C3283 C3282 1.396 . S
C3284 P3264 1.803 . S
C3284 C3285 1.378 . S
C3284 C3289 1.400 . S
C3285 H3269 0.939 . S
C3285 C3284 1.378 . S
C3285 C3286 1.361 . S
C3286 H3270 0.942 . S
C3286 C3285 1.361 . S
C3286 C3287 1.369 . S
C3287 C3286 1.369 . S
C3287 C3288 1.404 . S
C3288 H3271 0.940 . S
C3288 C3287 1.404 . S
C3288 C3289 1.389 . S
C3289 H3272 0.939 . S
C3289 C3284 1.400 . S
C3289 C3288 1.389 . S
C3290 P3264 1.819 . S
C3290 C3291 1.391 . S
C3290 C3295 1.391 . S
C3291 H3273 0.941 . S
C3291 C3290 1.391 . S
C3291 C3292 1.396 . S
C3292 H3276 0.939 . S
C3292 C3291 1.396 . S
C3292 C3293 1.397 . S
C3293 C3292 1.397 . S
C3293 C3294 1.385 . S
C3294 H3277 0.940 . S
C3294 C3293 1.385 . S
C3294 C3295 1.388 . S
C3295 H3274 0.939 . S
C3295 C3290 1.391 . S
C3295 C3294 1.388 . S
P3296 O3307 1.490 . S
P3296 C3310 1.812 . S
P3296 C3316 1.803 . S
P3296 C3322 1.819 . S
H3297 C3311 0.941 . S
H3298 C3312 0.939 . S
H3299 C3314 0.940 . S
H3300 C3315 0.940 . S
H3301 C3317 0.939 . S
H3302 C3318 0.942 . S
H3303 C3320 0.940 . S
H3304 C3321 0.939 . S
H3305 C3323 0.941 . S
H3306 C3327 0.939 . S
O3307 P3296 1.490 . S
H3308 C3324 0.939 . S
H3309 C3326 0.940 . S
C3310 P3296 1.812 . S
C3310 C3311 1.389 . S
C3310 C3315 1.391 . S
C3311 H3297 0.941 . S
C3311 C3310 1.389 . S
C3311 C3312 1.397 . S
C3312 H3298 0.939 . S
C3312 C3311 1.397 . S
C3312 C3313 1.378 . S
C3313 C3312 1.378 . S
C3313 C3314 1.378 . S
C3314 H3299 0.940 . S
C3314 C3313 1.378 . S
C3314 C3315 1.396 . S
C3315 H3300 0.940 . S
C3315 C3310 1.391 . S
C3315 C3314 1.396 . S
C3316 P3296 1.803 . S
C3316 C3317 1.378 . S
C3316 C3321 1.400 . S
C3317 H3301 0.939 . S
C3317 C3316 1.378 . S
C3317 C3318 1.361 . S
C3318 H3302 0.942 . S
C3318 C3317 1.361 . S
C3318 C3319 1.369 . S
C3319 C3318 1.369 . S
C3319 C3320 1.404 . S
C3320 H3303 0.940 . S
C3320 C3319 1.404 . S
C3320 C3321 1.389 . S
C3321 H3304 0.939 . S
C3321 C3316 1.400 . S
C3321 C3320 1.389 . S
C3322 P3296 1.819 . S
C3322 C3323 1.391 . S
C3322 C3327 1.391 . S
C3323 H3305 0.941 . S
C3323 C3322 1.391 . S
C3323 C3324 1.396 . S
C3324 H3308 0.939 . S
C3324 C3323 1.396 . S
C3324 C3325 1.397 . S
C3325 C3324 1.397 . S
C3325 C3326 1.385 . S
C3326 H3309 0.940 . S
C3326 C3325 1.385 . S
C3326 C3327 1.388 . S
C3327 H3306 0.939 . S
C3327 C3322 1.391 . S
C3327 C3326 1.388 . S
P3328 O3339 1.490 . S
P3328 C3342 1.812 . S
P3328 C3348 1.803 . S
P3328 C3354 1.819 . S
H3329 C3343 0.941 . S
H3330 C3344 0.939 . S
H3331 C3346 0.940 . S
H3332 C3347 0.940 . S
H3333 C3349 0.939 . S
H3334 C3350 0.942 . S
H3335 C3352 0.940 . S
H3336 C3353 0.939 . S
H3337 C3355 0.941 . S
H3338 C3359 0.939 . S
O3339 P3328 1.490 . S
H3340 C3356 0.939 . S
H3341 C3358 0.940 . S
C3342 P3328 1.812 . S
C3342 C3343 1.389 . S
C3342 C3347 1.391 . S
C3343 H3329 0.941 . S
C3343 C3342 1.389 . S
C3343 C3344 1.397 . S
C3344 H3330 0.939 . S
C3344 C3343 1.397 . S
C3344 C3345 1.378 . S
C3345 C3344 1.378 . S
C3345 C3346 1.378 . S
C3346 H3331 0.940 . S
C3346 C3345 1.378 . S
C3346 C3347 1.396 . S
C3347 H3332 0.940 . S
C3347 C3342 1.391 . S
C3347 C3346 1.396 . S
C3348 P3328 1.803 . S
C3348 C3349 1.378 . S
C3348 C3353 1.400 . S
C3349 H3333 0.939 . S
C3349 C3348 1.378 . S
C3349 C3350 1.361 . S
C3350 H3334 0.942 . S
C3350 C3349 1.361 . S
C3350 C3351 1.369 . S
C3351 C3350 1.369 . S
C3351 C3352 1.404 . S
C3352 H3335 0.940 . S
C3352 C3351 1.404 . S
C3352 C3353 1.389 . S
C3353 H3336 0.939 . S
C3353 C3348 1.400 . S
C3353 C3352 1.389 . S
C3354 P3328 1.819 . S
C3354 C3355 1.391 . S
C3354 C3359 1.391 . S
C3355 H3337 0.941 . S
C3355 C3354 1.391 . S
C3355 C3356 1.396 . S
C3356 H3340 0.939 . S
C3356 C3355 1.396 . S
C3356 C3357 1.397 . S
C3357 C3356 1.397 . S
C3357 C3358 1.385 . S
C3358 H3341 0.940 . S
C3358 C3357 1.385 . S
C3358 C3359 1.388 . S
C3359 H3338 0.939 . S
C3359 C3354 1.391 . S
C3359 C3358 1.388 . S
P3360 O3371 1.490 . S
P3360 C3374 1.812 . S
P3360 C3380 1.803 . S
P3360 C3386 1.819 . S
H3361 C3375 0.941 . S
H3362 C3376 0.939 . S
H3363 C3378 0.940 . S
H3364 C3379 0.940 . S
H3365 C3381 0.939 . S
H3366 C3382 0.942 . S
H3367 C3384 0.940 . S
H3368 C3385 0.939 . S
H3369 C3387 0.941 . S
H3370 C3391 0.939 . S
O3371 P3360 1.490 . S
H3372 C3388 0.939 . S
H3373 C3390 0.940 . S
C3374 P3360 1.812 . S
C3374 C3375 1.389 . S
C3374 C3379 1.391 . S
C3375 H3361 0.941 . S
C3375 C3374 1.389 . S
C3375 C3376 1.397 . S
C3376 H3362 0.939 . S
C3376 C3375 1.397 . S
C3376 C3377 1.378 . S
C3377 C3376 1.378 . S
C3377 C3378 1.378 . S
C3378 H3363 0.940 . S
C3378 C3377 1.378 . S
C3378 C3379 1.396 . S
C3379 H3364 0.940 . S
C3379 C3374 1.391 . S
C3379 C3378 1.396 . S
C3380 P3360 1.803 . S
C3380 C3381 1.378 . S
C3380 C3385 1.400 . S
C3381 H3365 0.939 . S
C3381 C3380 1.378 . S
C3381 C3382 1.361 . S
C3382 H3366 0.942 . S
C3382 C3381 1.361 . S
C3382 C3383 1.369 . S
C3383 C3382 1.369 . S
C3383 C3384 1.404 . S
C3384 H3367 0.940 . S
C3384 C3383 1.404 . S
C3384 C3385 1.389 . S
C3385 H3368 0.939 . S
C3385 C3380 1.400 . S
C3385 C3384 1.389 . S
C3386 P3360 1.819 . S
C3386 C3387 1.391 . S
C3386 C3391 1.391 . S
C3387 H3369 0.941 . S
C3387 C3386 1.391 . S
C3387 C3388 1.396 . S
C3388 H3372 0.939 . S
C3388 C3387 1.396 . S
C3388 C3389 1.397 . S
C3389 C3388 1.397 . S
C3389 C3390 1.385 . S
C3390 H3373 0.940 . S
C3390 C3389 1.385 . S
C3390 C3391 1.388 . S
C3391 H3370 0.939 . S
C3391 C3386 1.391 . S
C3391 C3390 1.388 . S
P3392 O3403 1.490 . S
P3392 C3406 1.812 . S
P3392 C3412 1.803 . S
P3392 C3418 1.819 . S
H3393 C3407 0.941 . S
H3394 C3408 0.939 . S
H3395 C3410 0.940 . S
H3396 C3411 0.940 . S
H3397 C3413 0.939 . S
H3398 C3414 0.942 . S
H3399 C3416 0.940 . S
H3400 C3417 0.939 . S
H3401 C3419 0.941 . S
H3402 C3423 0.939 . S
O3403 P3392 1.490 . S
H3404 C3420 0.939 . S
H3405 C3422 0.940 . S
C3406 P3392 1.812 . S
C3406 C3407 1.389 . S
C3406 C3411 1.391 . S
C3407 H3393 0.941 . S
C3407 C3406 1.389 . S
C3407 C3408 1.397 . S
C3408 H3394 0.939 . S
C3408 C3407 1.397 . S
C3408 C3409 1.378 . S
C3409 C3408 1.378 . S
C3409 C3410 1.378 . S
C3410 H3395 0.940 . S
C3410 C3409 1.378 . S
C3410 C3411 1.396 . S
C3411 H3396 0.940 . S
C3411 C3406 1.391 . S
C3411 C3410 1.396 . S
C3412 P3392 1.803 . S
C3412 C3413 1.378 . S
C3412 C3417 1.400 . S
C3413 H3397 0.939 . S
C3413 C3412 1.378 . S
C3413 C3414 1.361 . S
C3414 H3398 0.942 . S
C3414 C3413 1.361 . S
C3414 C3415 1.369 . S
C3415 C3414 1.369 . S
C3415 C3416 1.404 . S
C3416 H3399 0.940 . S
C3416 C3415 1.404 . S
C3416 C3417 1.389 . S
C3417 H3400 0.939 . S
C3417 C3412 1.400 . S
C3417 C3416 1.389 . S
C3418 P3392 1.819 . S
C3418 C3419 1.391 . S
C3418 C3423 1.391 . S
C3419 H3401 0.941 . S
C3419 C3418 1.391 . S
C3419 C3420 1.396 . S
C3420 H3404 0.939 . S
C3420 C3419 1.396 . S
C3420 C3421 1.397 . S
C3421 C3420 1.397 . S
C3421 C3422 1.385 . S
C3422 H3405 0.940 . S
C3422 C3421 1.385 . S
C3422 C3423 1.388 . S
C3423 H3402 0.939 . S
C3423 C3418 1.391 . S
C3423 C3422 1.388 . S
P3424 O3435 1.490 . S
P3424 C3438 1.812 . S
P3424 C3444 1.803 . S
P3424 C3450 1.819 . S
H3425 C3439 0.941 . S
H3426 C3440 0.939 . S
H3427 C3442 0.940 . S
H3428 C3443 0.940 . S
H3429 C3445 0.939 . S
H3430 C3446 0.942 . S
H3431 C3448 0.940 . S
H3432 C3449 0.939 . S
H3433 C3451 0.941 . S
H3434 C3455 0.939 . S
O3435 P3424 1.490 . S
H3436 C3452 0.939 . S
H3437 C3454 0.940 . S
C3438 P3424 1.812 . S
C3438 C3439 1.389 . S
C3438 C3443 1.391 . S
C3439 H3425 0.941 . S
C3439 C3438 1.389 . S
C3439 C3440 1.397 . S
C3440 H3426 0.939 . S
C3440 C3439 1.397 . S
C3440 C3441 1.378 . S
C3441 C3440 1.378 . S
C3441 C3442 1.378 . S
C3442 H3427 0.940 . S
C3442 C3441 1.378 . S
C3442 C3443 1.396 . S
C3443 H3428 0.940 . S
C3443 C3438 1.391 . S
C3443 C3442 1.396 . S
C3444 P3424 1.803 . S
C3444 C3445 1.378 . S
C3444 C3449 1.400 . S
C3445 H3429 0.939 . S
C3445 C3444 1.378 . S
C3445 C3446 1.361 . S
C3446 H3430 0.942 . S
C3446 C3445 1.361 . S
C3446 C3447 1.369 . S
C3447 C3446 1.369 . S
C3447 C3448 1.404 . S
C3448 H3431 0.940 . S
C3448 C3447 1.404 . S
C3448 C3449 1.389 . S
C3449 H3432 0.939 . S
C3449 C3444 1.400 . S
C3449 C3448 1.389 . S
C3450 P3424 1.819 . S
C3450 C3451 1.391 . S
C3450 C3455 1.391 . S
C3451 H3433 0.941 . S
C3451 C3450 1.391 . S
C3451 C3452 1.396 . S
C3452 H3436 0.939 . S
C3452 C3451 1.396 . S
C3452 C3453 1.397 . S
C3453 C3452 1.397 . S
C3453 C3454 1.385 . S
C3454 H3437 0.940 . S
C3454 C3453 1.385 . S
C3454 C3455 1.388 . S
C3455 H3434 0.939 . S
C3455 C3450 1.391 . S
C3455 C3454 1.388 . S
H3456 C3462 0.930 . S
H3457 C3465 0.930 . S
H3458 C3466 0.930 . S
H3459 C3467 0.930 . S
H3460 C3470 0.930 . S
H3461 C3471 0.930 . S
C3462 H3456 0.930 . S
C3462 C3463 1.355 . S
C3462 C3464 1.415 . S
C3463 C3462 1.355 . S
C3463 C3465 1.419 . S
C3464 C3462 1.415 . S
C3464 C3469 1.425 . S
C3464 C3471 1.409 . S
C3465 H3457 0.930 . S
C3465 C3463 1.419 . S
C3465 C3466 1.362 . S
C3466 H3458 0.930 . S
C3466 C3465 1.362 . S
C3466 C3469 1.409 . S
C3467 H3459 0.930 . S
C3467 C3468 1.355 . S
C3467 C3469 1.415 . S
C3468 C3467 1.355 . S
C3468 C3470 1.419 . S
C3469 C3464 1.425 . S
C3469 C3466 1.409 . S
C3469 C3467 1.415 . S
C3470 H3460 0.930 . S
C3470 C3468 1.419 . S
C3470 C3471 1.362 . S
C3471 H3461 0.930 . S
C3471 C3464 1.409 . S
C3471 C3470 1.362 . S
H3472 C3478 0.930 . S
H3473 C3481 0.930 . S
H3474 C3482 0.930 . S
H3475 C3483 0.930 . S
H3476 C3486 0.930 . S
H3477 C3487 0.930 . S
C3478 H3472 0.930 . S
C3478 C3479 1.355 . S
C3478 C3480 1.415 . S
C3479 C3478 1.355 . S
C3479 C3481 1.419 . S
C3480 C3478 1.415 . S
C3480 C3485 1.425 . S
C3480 C3487 1.409 . S
C3481 H3473 0.930 . S
C3481 C3479 1.419 . S
C3481 C3482 1.362 . S
C3482 H3474 0.930 . S
C3482 C3481 1.362 . S
C3482 C3485 1.409 . S
C3483 H3475 0.930 . S
C3483 C3484 1.355 . S
C3483 C3485 1.415 . S
C3484 C3483 1.355 . S
C3484 C3486 1.419 . S
C3485 C3480 1.425 . S
C3485 C3482 1.409 . S
C3485 C3483 1.415 . S
C3486 H3476 0.930 . S
C3486 C3484 1.419 . S
C3486 C3487 1.362 . S
C3487 H3477 0.930 . S
C3487 C3480 1.409 . S
C3487 C3486 1.362 . S
H3488 C3494 0.930 . S
H3489 C3497 0.930 . S
H3490 C3498 0.930 . S
H3491 C3499 0.930 . S
H3492 C3502 0.930 . S
H3493 C3503 0.930 . S
C3494 H3488 0.930 . S
C3494 C3495 1.355 . S
C3494 C3496 1.415 . S
C3495 C3494 1.355 . S
C3495 C3497 1.419 . S
C3496 C3494 1.415 . S
C3496 C3501 1.425 . S
C3496 C3503 1.409 . S
C3497 H3489 0.930 . S
C3497 C3495 1.419 . S
C3497 C3498 1.362 . S
C3498 H3490 0.930 . S
C3498 C3497 1.362 . S
C3498 C3501 1.409 . S
C3499 H3491 0.930 . S
C3499 C3500 1.355 . S
C3499 C3501 1.415 . S
C3500 C3499 1.355 . S
C3500 C3502 1.419 . S
C3501 C3496 1.425 . S
C3501 C3498 1.409 . S
C3501 C3499 1.415 . S
C3502 H3492 0.930 . S
C3502 C3500 1.419 . S
C3502 C3503 1.362 . S
C3503 H3493 0.930 . S
C3503 C3496 1.409 . S
C3503 C3502 1.362 . S
H3504 C3510 0.930 . S
H3505 C3513 0.930 . S
H3506 C3514 0.930 . S
H3507 C3515 0.930 . S
H3508 C3518 0.930 . S
H3509 C3519 0.930 . S
C3510 H3504 0.930 . S
C3510 C3511 1.355 . S
C3510 C3512 1.415 . S
C3511 C3510 1.355 . S
C3511 C3513 1.419 . S
C3512 C3510 1.415 . S
C3512 C3517 1.425 . S
C3512 C3519 1.409 . S
C3513 H3505 0.930 . S
C3513 C3511 1.419 . S
C3513 C3514 1.362 . S
C3514 H3506 0.930 . S
C3514 C3513 1.362 . S
C3514 C3517 1.409 . S
C3515 H3507 0.930 . S
C3515 C3516 1.355 . S
C3515 C3517 1.415 . S
C3516 C3515 1.355 . S
C3516 C3518 1.419 . S
C3517 C3512 1.425 . S
C3517 C3514 1.409 . S
C3517 C3515 1.415 . S
C3518 H3508 0.930 . S
C3518 C3516 1.419 . S
C3518 C3519 1.362 . S
C3519 H3509 0.930 . S
C3519 C3512 1.409 . S
C3519 C3518 1.362 . S
H3520 C3526 0.930 . S
H3521 C3529 0.930 . S
H3522 C3530 0.930 . S
H3523 C3531 0.930 . S
H3524 C3534 0.930 . S
H3525 C3535 0.930 . S
C3526 H3520 0.930 . S
C3526 C3527 1.355 . S
C3526 C3528 1.415 . S
C3527 C3526 1.355 . S
C3527 C3529 1.419 . S
C3528 C3526 1.415 . S
C3528 C3533 1.425 . S
C3528 C3535 1.409 . S
C3529 H3521 0.930 . S
C3529 C3527 1.419 . S
C3529 C3530 1.362 . S
C3530 H3522 0.930 . S
C3530 C3529 1.362 . S
C3530 C3533 1.409 . S
C3531 H3523 0.930 . S
C3531 C3532 1.355 . S
C3531 C3533 1.415 . S
C3532 C3531 1.355 . S
C3532 C3534 1.419 . S
C3533 C3528 1.425 . S
C3533 C3530 1.409 . S
C3533 C3531 1.415 . S
C3534 H3524 0.930 . S
C3534 C3532 1.419 . S
C3534 C3535 1.362 . S
C3535 H3525 0.930 . S
C3535 C3528 1.409 . S
C3535 C3534 1.362 . S
H3536 C3542 0.930 . S
H3537 C3545 0.930 . S
H3538 C3546 0.930 . S
H3539 C3547 0.930 . S
H3540 C3550 0.930 . S
H3541 C3551 0.930 . S
C3542 H3536 0.930 . S
C3542 C3543 1.355 . S
C3542 C3544 1.415 . S
C3543 C3542 1.355 . S
C3543 C3545 1.419 . S
C3544 C3542 1.415 . S
C3544 C3549 1.425 . S
C3544 C3551 1.409 . S
C3545 H3537 0.930 . S
C3545 C3543 1.419 . S
C3545 C3546 1.362 . S
C3546 H3538 0.930 . S
C3546 C3545 1.362 . S
C3546 C3549 1.409 . S
C3547 H3539 0.930 . S
C3547 C3548 1.355 . S
C3547 C3549 1.415 . S
C3548 C3547 1.355 . S
C3548 C3550 1.419 . S
C3549 C3544 1.425 . S
C3549 C3546 1.409 . S
C3549 C3547 1.415 . S
C3550 H3540 0.930 . S
C3550 C3548 1.419 . S
C3550 C3551 1.362 . S
C3551 H3541 0.930 . S
C3551 C3544 1.409 . S
C3551 C3550 1.362 . S
H3552 C3558 0.930 . S
H3553 C3561 0.930 . S
H3554 C3562 0.930 . S
H3555 C3563 0.930 . S
H3556 C3566 0.930 . S
H3557 C3567 0.930 . S
C3558 H3552 0.930 . S
C3558 C3559 1.355 . S
C3558 C3560 1.415 . S
C3559 C3558 1.355 . S
C3559 C3561 1.419 . S
C3560 C3558 1.415 . S
C3560 C3565 1.425 . S
C3560 C3567 1.409 . S
C3561 H3553 0.930 . S
C3561 C3559 1.419 . S
C3561 C3562 1.362 . S
C3562 H3554 0.930 . S
C3562 C3561 1.362 . S
C3562 C3565 1.409 . S
C3563 H3555 0.930 . S
C3563 C3564 1.355 . S
C3563 C3565 1.415 . S
C3564 C3563 1.355 . S
C3564 C3566 1.419 . S
C3565 C3560 1.425 . S
C3565 C3562 1.409 . S
C3565 C3563 1.415 . S
C3566 H3556 0.930 . S
C3566 C3564 1.419 . S
C3566 C3567 1.362 . S
C3567 H3557 0.930 . S
C3567 C3560 1.409 . S
C3567 C3566 1.362 . S
H3568 C3574 0.930 . S
H3569 C3577 0.930 . S
H3570 C3578 0.930 . S
H3571 C3579 0.930 . S
H3572 C3582 0.930 . S
H3573 C3583 0.930 . S
C3574 H3568 0.930 . S
C3574 C3575 1.355 . S
C3574 C3576 1.415 . S
C3575 C3574 1.355 . S
C3575 C3577 1.419 . S
C3576 C3574 1.415 . S
C3576 C3581 1.425 . S
C3576 C3583 1.409 . S
C3577 H3569 0.930 . S
C3577 C3575 1.419 . S
C3577 C3578 1.362 . S
C3578 H3570 0.930 . S
C3578 C3577 1.362 . S
C3578 C3581 1.409 . S
C3579 H3571 0.930 . S
C3579 C3580 1.355 . S
C3579 C3581 1.415 . S
C3580 C3579 1.355 . S
C3580 C3582 1.419 . S
C3581 C3576 1.425 . S
C3581 C3578 1.409 . S
C3581 C3579 1.415 . S
C3582 H3572 0.930 . S
C3582 C3580 1.419 . S
C3582 C3583 1.362 . S
C3583 H3573 0.930 . S
C3583 C3576 1.409 . S
C3583 C3582 1.362 . S
H3584 C3590 0.930 . S
H3585 C3593 0.930 . S
H3586 C3594 0.930 . S
H3587 C3595 0.930 . S
H3588 C3598 0.930 . S
H3589 C3599 0.930 . S
C3590 H3584 0.930 . S
C3590 C3591 1.355 . S
C3590 C3592 1.415 . S
C3591 C3590 1.355 . S
C3591 C3593 1.419 . S
C3592 C3590 1.415 . S
C3592 C3597 1.425 . S
C3592 C3599 1.409 . S
C3593 H3585 0.930 . S
C3593 C3591 1.419 . S
C3593 C3594 1.362 . S
C3594 H3586 0.930 . S
C3594 C3593 1.362 . S
C3594 C3597 1.409 . S
C3595 H3587 0.930 . S
C3595 C3596 1.355 . S
C3595 C3597 1.415 . S
C3596 C3595 1.355 . S
C3596 C3598 1.419 . S
C3597 C3592 1.425 . S
C3597 C3594 1.409 . S
C3597 C3595 1.415 . S
C3598 H3588 0.930 . S
C3598 C3596 1.419 . S
C3598 C3599 1.362 . S
C3599 H3589 0.930 . S
C3599 C3592 1.409 . S
C3599 C3598 1.362 . S
H3600 C3606 0.930 . S
H3601 C3609 0.930 . S
H3602 C3610 0.930 . S
H3603 C3611 0.930 . S
H3604 C3614 0.930 . S
H3605 C3615 0.930 . S
C3606 H3600 0.930 . S
C3606 C3607 1.355 . S
C3606 C3608 1.415 . S
C3607 C3606 1.355 . S
C3607 C3609 1.419 . S
C3608 C3606 1.415 . S
C3608 C3613 1.425 . S
C3608 C3615 1.409 . S
C3609 H3601 0.930 . S
C3609 C3607 1.419 . S
C3609 C3610 1.362 . S
C3610 H3602 0.930 . S
C3610 C3609 1.362 . S
C3610 C3613 1.409 . S
C3611 H3603 0.930 . S
C3611 C3612 1.355 . S
C3611 C3613 1.415 . S
C3612 C3611 1.355 . S
C3612 C3614 1.419 . S
C3613 C3608 1.425 . S
C3613 C3610 1.409 . S
C3613 C3611 1.415 . S
C3614 H3604 0.930 . S
C3614 C3612 1.419 . S
C3614 C3615 1.362 . S
C3615 H3605 0.930 . S
C3615 C3608 1.409 . S
C3615 C3614 1.362 . S
H3616 C3622 0.930 . S
H3617 C3625 0.930 . S
H3618 C3626 0.930 . S
H3619 C3627 0.930 . S
H3620 C3630 0.930 . S
H3621 C3631 0.930 . S
C3622 H3616 0.930 . S
C3622 C3623 1.355 . S
C3622 C3624 1.415 . S
C3623 C3622 1.355 . S
C3623 C3625 1.419 . S
C3624 C3622 1.415 . S
C3624 C3629 1.425 . S
C3624 C3631 1.409 . S
C3625 H3617 0.930 . S
C3625 C3623 1.419 . S
C3625 C3626 1.362 . S
C3626 H3618 0.930 . S
C3626 C3625 1.362 . S
C3626 C3629 1.409 . S
C3627 H3619 0.930 . S
C3627 C3628 1.355 . S
C3627 C3629 1.415 . S
C3628 C3627 1.355 . S
C3628 C3630 1.419 . S
C3629 C3624 1.425 . S
C3629 C3626 1.409 . S
C3629 C3627 1.415 . S
C3630 H3620 0.930 . S
C3630 C3628 1.419 . S
C3630 C3631 1.362 . S
C3631 H3621 0.930 . S
C3631 C3624 1.409 . S
C3631 C3630 1.362 . S
H3632 C3638 0.930 . S
H3633 C3641 0.930 . S
H3634 C3642 0.930 . S
H3635 C3643 0.930 . S
H3636 C3646 0.930 . S
H3637 C3647 0.930 . S
C3638 H3632 0.930 . S
C3638 C3639 1.355 . S
C3638 C3640 1.415 . S
C3639 C3638 1.355 . S
C3639 C3641 1.419 . S
C3640 C3638 1.415 . S
C3640 C3645 1.425 . S
C3640 C3647 1.409 . S
C3641 H3633 0.930 . S
C3641 C3639 1.419 . S
C3641 C3642 1.362 . S
C3642 H3634 0.930 . S
C3642 C3641 1.362 . S
C3642 C3645 1.409 . S
C3643 H3635 0.930 . S
C3643 C3644 1.355 . S
C3643 C3645 1.415 . S
C3644 C3643 1.355 . S
C3644 C3646 1.419 . S
C3645 C3640 1.425 . S
C3645 C3642 1.409 . S
C3645 C3643 1.415 . S
C3646 H3636 0.930 . S
C3646 C3644 1.419 . S
C3646 C3647 1.362 . S
C3647 H3637 0.930 . S
C3647 C3640 1.409 . S
C3647 C3646 1.362 . S
H3648 C3654 0.930 . S
H3649 C3657 0.930 . S
H3650 C3658 0.930 . S
H3651 C3659 0.930 . S
H3652 C3662 0.930 . S
H3653 C3663 0.930 . S
C3654 H3648 0.930 . S
C3654 C3655 1.355 . S
C3654 C3656 1.415 . S
C3655 C3654 1.355 . S
C3655 C3657 1.419 . S
C3656 C3654 1.415 . S
C3656 C3661 1.425 . S
C3656 C3663 1.409 . S
C3657 H3649 0.930 . S
C3657 C3655 1.419 . S
C3657 C3658 1.362 . S
C3658 H3650 0.930 . S
C3658 C3657 1.362 . S
C3658 C3661 1.409 . S
C3659 H3651 0.930 . S
C3659 C3660 1.355 . S
C3659 C3661 1.415 . S
C3660 C3659 1.355 . S
C3660 C3662 1.419 . S
C3661 C3656 1.425 . S
C3661 C3658 1.409 . S
C3661 C3659 1.415 . S
C3662 H3652 0.930 . S
C3662 C3660 1.419 . S
C3662 C3663 1.362 . S
C3663 H3653 0.930 . S
C3663 C3656 1.409 . S
C3663 C3662 1.362 . S
H3664 C3670 0.930 . S
H3665 C3673 0.930 . S
H3666 C3674 0.930 . S
H3667 C3675 0.930 . S
H3668 C3678 0.930 . S
H3669 C3679 0.930 . S
C3670 H3664 0.930 . S
C3670 C3671 1.355 . S
C3670 C3672 1.415 . S
C3671 C3670 1.355 . S
C3671 C3673 1.419 . S
C3672 C3670 1.415 . S
C3672 C3677 1.425 . S
C3672 C3679 1.409 . S
C3673 H3665 0.930 . S
C3673 C3671 1.419 . S
C3673 C3674 1.362 . S
C3674 H3666 0.930 . S
C3674 C3673 1.362 . S
C3674 C3677 1.409 . S
C3675 H3667 0.930 . S
C3675 C3676 1.355 . S
C3675 C3677 1.415 . S
C3676 C3675 1.355 . S
C3676 C3678 1.419 . S
C3677 C3672 1.425 . S
C3677 C3674 1.409 . S
C3677 C3675 1.415 . S
C3678 H3668 0.930 . S
C3678 C3676 1.419 . S
C3678 C3679 1.362 . S
C3679 H3669 0.930 . S
C3679 C3672 1.409 . S
C3679 C3678 1.362 . S
H3680 C3686 0.930 . S
H3681 C3689 0.930 . S
H3682 C3690 0.930 . S
H3683 C3691 0.930 . S
H3684 C3694 0.930 . S
H3685 C3695 0.930 . S
C3686 H3680 0.930 . S
C3686 C3687 1.355 . S
C3686 C3688 1.415 . S
C3687 C3686 1.355 . S
C3687 C3689 1.419 . S
C3688 C3686 1.415 . S
C3688 C3693 1.425 . S
C3688 C3695 1.409 . S
C3689 H3681 0.930 . S
C3689 C3687 1.419 . S
C3689 C3690 1.362 . S
C3690 H3682 0.930 . S
C3690 C3689 1.362 . S
C3690 C3693 1.409 . S
C3691 H3683 0.930 . S
C3691 C3692 1.355 . S
C3691 C3693 1.415 . S
C3692 C3691 1.355 . S
C3692 C3694 1.419 . S
C3693 C3688 1.425 . S
C3693 C3690 1.409 . S
C3693 C3691 1.415 . S
C3694 H3684 0.930 . S
C3694 C3692 1.419 . S
C3694 C3695 1.362 . S
C3695 H3685 0.930 . S
C3695 C3688 1.409 . S
C3695 C3694 1.362 . S
H3696 C3702 0.930 . S
H3697 C3705 0.930 . S
H3698 C3706 0.930 . S
H3699 C3707 0.930 . S
H3700 C3710 0.930 . S
H3701 C3711 0.930 . S
C3702 H3696 0.930 . S
C3702 C3703 1.355 . S
C3702 C3704 1.415 . S
C3703 C3702 1.355 . S
C3703 C3705 1.419 . S
C3704 C3702 1.415 . S
C3704 C3709 1.425 . S
C3704 C3711 1.409 . S
C3705 H3697 0.930 . S
C3705 C3703 1.419 . S
C3705 C3706 1.362 . S
C3706 H3698 0.930 . S
C3706 C3705 1.362 . S
C3706 C3709 1.409 . S
C3707 H3699 0.930 . S
C3707 C3708 1.355 . S
C3707 C3709 1.415 . S
C3708 C3707 1.355 . S
C3708 C3710 1.419 . S
C3709 C3704 1.425 . S
C3709 C3706 1.409 . S
C3709 C3707 1.415 . S
C3710 H3700 0.930 . S
C3710 C3708 1.419 . S
C3710 C3711 1.362 . S
C3711 H3701 0.930 . S
C3711 C3704 1.409 . S
C3711 C3710 1.362 . S
H3712 C3718 0.930 . S
H3713 C3721 0.930 . S
H3714 C3722 0.930 . S
H3715 C3723 0.930 . S
H3716 C3726 0.930 . S
H3717 C3727 0.930 . S
C3718 H3712 0.930 . S
C3718 C3719 1.355 . S
C3718 C3720 1.415 . S
C3719 C3718 1.355 . S
C3719 C3721 1.419 . S
C3720 C3718 1.415 . S
C3720 C3725 1.425 . S
C3720 C3727 1.409 . S
C3721 H3713 0.930 . S
C3721 C3719 1.419 . S
C3721 C3722 1.362 . S
C3722 H3714 0.930 . S
C3722 C3721 1.362 . S
C3722 C3725 1.409 . S
C3723 H3715 0.930 . S
C3723 C3724 1.355 . S
C3723 C3725 1.415 . S
C3724 C3723 1.355 . S
C3724 C3726 1.419 . S
C3725 C3720 1.425 . S
C3725 C3722 1.409 . S
C3725 C3723 1.415 . S
C3726 H3716 0.930 . S
C3726 C3724 1.419 . S
C3726 C3727 1.362 . S
C3727 H3717 0.930 . S
C3727 C3720 1.409 . S
C3727 C3726 1.362 . S
H3728 C3734 0.930 . S
H3729 C3737 0.930 . S
H3730 C3738 0.930 . S
H3731 C3739 0.930 . S
H3732 C3742 0.930 . S
H3733 C3743 0.930 . S
C3734 H3728 0.930 . S
C3734 C3735 1.355 . S
C3734 C3736 1.415 . S
C3735 C3734 1.355 . S
C3735 C3737 1.419 . S
C3736 C3734 1.415 . S
C3736 C3741 1.425 . S
C3736 C3743 1.409 . S
C3737 H3729 0.930 . S
C3737 C3735 1.419 . S
C3737 C3738 1.362 . S
C3738 H3730 0.930 . S
C3738 C3737 1.362 . S
C3738 C3741 1.409 . S
C3739 H3731 0.930 . S
C3739 C3740 1.355 . S
C3739 C3741 1.415 . S
C3740 C3739 1.355 . S
C3740 C3742 1.419 . S
C3741 C3736 1.425 . S
C3741 C3738 1.409 . S
C3741 C3739 1.415 . S
C3742 H3732 0.930 . S
C3742 C3740 1.419 . S
C3742 C3743 1.362 . S
C3743 H3733 0.930 . S
C3743 C3736 1.409 . S
C3743 C3742 1.362 . S
H3744 C3750 0.930 . S
H3745 C3753 0.930 . S
H3746 C3754 0.930 . S
H3747 C3755 0.930 . S
H3748 C3758 0.930 . S
H3749 C3759 0.930 . S
C3750 H3744 0.930 . S
C3750 C3751 1.355 . S
C3750 C3752 1.415 . S
C3751 C3750 1.355 . S
C3751 C3753 1.419 . S
C3752 C3750 1.415 . S
C3752 C3757 1.425 . S
C3752 C3759 1.409 . S
C3753 H3745 0.930 . S
C3753 C3751 1.419 . S
C3753 C3754 1.362 . S
C3754 H3746 0.930 . S
C3754 C3753 1.362 . S
C3754 C3757 1.409 . S
C3755 H3747 0.930 . S
C3755 C3756 1.355 . S
C3755 C3757 1.415 . S
C3756 C3755 1.355 . S
C3756 C3758 1.419 . S
C3757 C3752 1.425 . S
C3757 C3754 1.409 . S
C3757 C3755 1.415 . S
C3758 H3748 0.930 . S
C3758 C3756 1.419 . S
C3758 C3759 1.362 . S
C3759 H3749 0.930 . S
C3759 C3752 1.409 . S
C3759 C3758 1.362 . S
H3760 C3766 0.930 . S
H3761 C3769 0.930 . S
H3762 C3770 0.930 . S
H3763 C3771 0.930 . S
H3764 C3774 0.930 . S
H3765 C3775 0.930 . S
C3766 H3760 0.930 . S
C3766 C3767 1.355 . S
C3766 C3768 1.415 . S
C3767 C3766 1.355 . S
C3767 C3769 1.419 . S
C3768 C3766 1.415 . S
C3768 C3773 1.425 . S
C3768 C3775 1.409 . S
C3769 H3761 0.930 . S
C3769 C3767 1.419 . S
C3769 C3770 1.362 . S
C3770 H3762 0.930 . S
C3770 C3769 1.362 . S
C3770 C3773 1.409 . S
C3771 H3763 0.930 . S
C3771 C3772 1.355 . S
C3771 C3773 1.415 . S
C3772 C3771 1.355 . S
C3772 C3774 1.419 . S
C3773 C3768 1.425 . S
C3773 C3770 1.409 . S
C3773 C3771 1.415 . S
C3774 H3764 0.930 . S
C3774 C3772 1.419 . S
C3774 C3775 1.362 . S
C3775 H3765 0.930 . S
C3775 C3768 1.409 . S
C3775 C3774 1.362 . S
H3776 C3782 0.930 . S
H3777 C3785 0.930 . S
H3778 C3786 0.930 . S
H3779 C3787 0.930 . S
H3780 C3790 0.930 . S
H3781 C3791 0.930 . S
C3782 H3776 0.930 . S
C3782 C3783 1.355 . S
C3782 C3784 1.415 . S
C3783 C3782 1.355 . S
C3783 C3785 1.419 . S
C3784 C3782 1.415 . S
C3784 C3789 1.425 . S
C3784 C3791 1.409 . S
C3785 H3777 0.930 . S
C3785 C3783 1.419 . S
C3785 C3786 1.362 . S
C3786 H3778 0.930 . S
C3786 C3785 1.362 . S
C3786 C3789 1.409 . S
C3787 H3779 0.930 . S
C3787 C3788 1.355 . S
C3787 C3789 1.415 . S
C3788 C3787 1.355 . S
C3788 C3790 1.419 . S
C3789 C3784 1.425 . S
C3789 C3786 1.409 . S
C3789 C3787 1.415 . S
C3790 H3780 0.930 . S
C3790 C3788 1.419 . S
C3790 C3791 1.362 . S
C3791 H3781 0.930 . S
C3791 C3784 1.409 . S
C3791 C3790 1.362 . S
H3792 C3798 0.930 . S
H3793 C3801 0.930 . S
H3794 C3802 0.930 . S
H3795 C3803 0.930 . S
H3796 C3806 0.930 . S
H3797 C3807 0.930 . S
C3798 H3792 0.930 . S
C3798 C3799 1.355 . S
C3798 C3800 1.415 . S
C3799 C3798 1.355 . S
C3799 C3801 1.419 . S
C3800 C3798 1.415 . S
C3800 C3805 1.425 . S
C3800 C3807 1.409 . S
C3801 H3793 0.930 . S
C3801 C3799 1.419 . S
C3801 C3802 1.362 . S
C3802 H3794 0.930 . S
C3802 C3801 1.362 . S
C3802 C3805 1.409 . S
C3803 H3795 0.930 . S
C3803 C3804 1.355 . S
C3803 C3805 1.415 . S
C3804 C3803 1.355 . S
C3804 C3806 1.419 . S
C3805 C3800 1.425 . S
C3805 C3802 1.409 . S
C3805 C3803 1.415 . S
C3806 H3796 0.930 . S
C3806 C3804 1.419 . S
C3806 C3807 1.362 . S
C3807 H3797 0.930 . S
C3807 C3800 1.409 . S
C3807 C3806 1.362 . S
H3808 C3814 0.930 . S
H3809 C3817 0.930 . S
H3810 C3818 0.930 . S
H3811 C3819 0.930 . S
H3812 C3822 0.930 . S
H3813 C3823 0.930 . S
C3814 H3808 0.930 . S
C3814 C3815 1.355 . S
C3814 C3816 1.415 . S
C3815 C3814 1.355 . S
C3815 C3817 1.419 . S
C3816 C3814 1.415 . S
C3816 C3821 1.425 . S
C3816 C3823 1.409 . S
C3817 H3809 0.930 . S
C3817 C3815 1.419 . S
C3817 C3818 1.362 . S
C3818 H3810 0.930 . S
C3818 C3817 1.362 . S
C3818 C3821 1.409 . S
C3819 H3811 0.930 . S
C3819 C3820 1.355 . S
C3819 C3821 1.415 . S
C3820 C3819 1.355 . S
C3820 C3822 1.419 . S
C3821 C3816 1.425 . S
C3821 C3818 1.409 . S
C3821 C3819 1.415 . S
C3822 H3812 0.930 . S
C3822 C3820 1.419 . S
C3822 C3823 1.362 . S
C3823 H3813 0.930 . S
C3823 C3816 1.409 . S
C3823 C3822 1.362 . S
H3824 C3830 0.930 . S
H3825 C3833 0.930 . S
H3826 C3834 0.930 . S
H3827 C3835 0.930 . S
H3828 C3838 0.930 . S
H3829 C3839 0.930 . S
C3830 H3824 0.930 . S
C3830 C3831 1.355 . S
C3830 C3832 1.415 . S
C3831 C3830 1.355 . S
C3831 C3833 1.419 . S
C3832 C3830 1.415 . S
C3832 C3837 1.425 . S
C3832 C3839 1.409 . S
C3833 H3825 0.930 . S
C3833 C3831 1.419 . S
C3833 C3834 1.362 . S
C3834 H3826 0.930 . S
C3834 C3833 1.362 . S
C3834 C3837 1.409 . S
C3835 H3827 0.930 . S
C3835 C3836 1.355 . S
C3835 C3837 1.415 . S
C3836 C3835 1.355 . S
C3836 C3838 1.419 . S
C3837 C3832 1.425 . S
C3837 C3834 1.409 . S
C3837 C3835 1.415 . S
C3838 H3828 0.930 . S
C3838 C3836 1.419 . S
C3838 C3839 1.362 . S
C3839 H3829 0.930 . S
C3839 C3832 1.409 . S
C3839 C3838 1.362 . S
H3840 C3846 0.930 . S
H3841 C3849 0.930 . S
H3842 C3850 0.930 . S
H3843 C3851 0.930 . S
H3844 C3854 0.930 . S
H3845 C3855 0.930 . S
C3846 H3840 0.930 . S
C3846 C3847 1.355 . S
C3846 C3848 1.415 . S
C3847 C3846 1.355 . S
C3847 C3849 1.419 . S
C3848 C3846 1.415 . S
C3848 C3853 1.425 . S
C3848 C3855 1.409 . S
C3849 H3841 0.930 . S
C3849 C3847 1.419 . S
C3849 C3850 1.362 . S
C3850 H3842 0.930 . S
C3850 C3849 1.362 . S
C3850 C3853 1.409 . S
C3851 H3843 0.930 . S
C3851 C3852 1.355 . S
C3851 C3853 1.415 . S
C3852 C3851 1.355 . S
C3852 C3854 1.419 . S
C3853 C3848 1.425 . S
C3853 C3850 1.409 . S
C3853 C3851 1.415 . S
C3854 H3844 0.930 . S
C3854 C3852 1.419 . S
C3854 C3855 1.362 . S
C3855 H3845 0.930 . S
C3855 C3848 1.409 . S
C3855 C3854 1.362 . S
H3856 C3862 0.930 . S
H3857 C3865 0.930 . S
H3858 C3866 0.930 . S
H3859 C3867 0.930 . S
H3860 C3870 0.930 . S
H3861 C3871 0.930 . S
C3862 H3856 0.930 . S
C3862 C3863 1.355 . S
C3862 C3864 1.415 . S
C3863 C3862 1.355 . S
C3863 C3865 1.419 . S
C3864 C3862 1.415 . S
C3864 C3869 1.425 . S
C3864 C3871 1.409 . S
C3865 H3857 0.930 . S
C3865 C3863 1.419 . S
C3865 C3866 1.362 . S
C3866 H3858 0.930 . S
C3866 C3865 1.362 . S
C3866 C3869 1.409 . S
C3867 H3859 0.930 . S
C3867 C3868 1.355 . S
C3867 C3869 1.415 . S
C3868 C3867 1.355 . S
C3868 C3870 1.419 . S
C3869 C3864 1.425 . S
C3869 C3866 1.409 . S
C3869 C3867 1.415 . S
C3870 H3860 0.930 . S
C3870 C3868 1.419 . S
C3870 C3871 1.362 . S
C3871 H3861 0.930 . S
C3871 C3864 1.409 . S
C3871 C3870 1.362 . S
H3872 C3878 0.930 . S
H3873 C3881 0.930 . S
H3874 C3882 0.930 . S
H3875 C3883 0.930 . S
H3876 C3886 0.930 . S
H3877 C3887 0.930 . S
C3878 H3872 0.930 . S
C3878 C3879 1.355 . S
C3878 C3880 1.415 . S
C3879 C3878 1.355 . S
C3879 C3881 1.419 . S
C3880 C3878 1.415 . S
C3880 C3885 1.425 . S
C3880 C3887 1.409 . S
C3881 H3873 0.930 . S
C3881 C3879 1.419 . S
C3881 C3882 1.362 . S
C3882 H3874 0.930 . S
C3882 C3881 1.362 . S
C3882 C3885 1.409 . S
C3883 H3875 0.930 . S
C3883 C3884 1.355 . S
C3883 C3885 1.415 . S
C3884 C3883 1.355 . S
C3884 C3886 1.419 . S
C3885 C3880 1.425 . S
C3885 C3882 1.409 . S
C3885 C3883 1.415 . S
C3886 H3876 0.930 . S
C3886 C3884 1.419 . S
C3886 C3887 1.362 . S
C3887 H3877 0.930 . S
C3887 C3880 1.409 . S
C3887 C3886 1.362 . S
H3888 C3894 0.930 . S
H3889 C3897 0.930 . S
H3890 C3898 0.930 . S
H3891 C3899 0.930 . S
H3892 C3902 0.930 . S
H3893 C3903 0.930 . S
C3894 H3888 0.930 . S
C3894 C3895 1.355 . S
C3894 C3896 1.415 . S
C3895 C3894 1.355 . S
C3895 C3897 1.419 . S
C3896 C3894 1.415 . S
C3896 C3901 1.425 . S
C3896 C3903 1.409 . S
C3897 H3889 0.930 . S
C3897 C3895 1.419 . S
C3897 C3898 1.362 . S
C3898 H3890 0.930 . S
C3898 C3897 1.362 . S
C3898 C3901 1.409 . S
C3899 H3891 0.930 . S
C3899 C3900 1.355 . S
C3899 C3901 1.415 . S
C3900 C3899 1.355 . S
C3900 C3902 1.419 . S
C3901 C3896 1.425 . S
C3901 C3898 1.409 . S
C3901 C3899 1.415 . S
C3902 H3892 0.930 . S
C3902 C3900 1.419 . S
C3902 C3903 1.362 . S
C3903 H3893 0.930 . S
C3903 C3896 1.409 . S
C3903 C3902 1.362 . S
H3904 C3910 0.930 . S
H3905 C3913 0.930 . S
H3906 C3914 0.930 . S
H3907 C3915 0.930 . S
H3908 C3918 0.930 . S
H3909 C3919 0.930 . S
C3910 H3904 0.930 . S
C3910 C3911 1.355 . S
C3910 C3912 1.415 . S
C3911 C3910 1.355 . S
C3911 C3913 1.419 . S
C3912 C3910 1.415 . S
C3912 C3917 1.425 . S
C3912 C3919 1.409 . S
C3913 H3905 0.930 . S
C3913 C3911 1.419 . S
C3913 C3914 1.362 . S
C3914 H3906 0.930 . S
C3914 C3913 1.362 . S
C3914 C3917 1.409 . S
C3915 H3907 0.930 . S
C3915 C3916 1.355 . S
C3915 C3917 1.415 . S
C3916 C3915 1.355 . S
C3916 C3918 1.419 . S
C3917 C3912 1.425 . S
C3917 C3914 1.409 . S
C3917 C3915 1.415 . S
C3918 H3908 0.930 . S
C3918 C3916 1.419 . S
C3918 C3919 1.362 . S
C3919 H3909 0.930 . S
C3919 C3912 1.409 . S
C3919 C3918 1.362 . S
H3920 C3926 0.930 . S
H3921 C3929 0.930 . S
H3922 C3930 0.930 . S
H3923 C3931 0.930 . S
H3924 C3934 0.930 . S
H3925 C3935 0.930 . S
C3926 H3920 0.930 . S
C3926 C3927 1.355 . S
C3926 C3928 1.415 . S
C3927 C3926 1.355 . S
C3927 C3929 1.419 . S
C3928 C3926 1.415 . S
C3928 C3933 1.425 . S
C3928 C3935 1.409 . S
C3929 H3921 0.930 . S
C3929 C3927 1.419 . S
C3929 C3930 1.362 . S
C3930 H3922 0.930 . S
C3930 C3929 1.362 . S
C3930 C3933 1.409 . S
C3931 H3923 0.930 . S
C3931 C3932 1.355 . S
C3931 C3933 1.415 . S
C3932 C3931 1.355 . S
C3932 C3934 1.419 . S
C3933 C3928 1.425 . S
C3933 C3930 1.409 . S
C3933 C3931 1.415 . S
C3934 H3924 0.930 . S
C3934 C3932 1.419 . S
C3934 C3935 1.362 . S
C3935 H3925 0.930 . S
C3935 C3928 1.409 . S
C3935 C3934 1.362 . S
H3936 C3942 0.930 . S
H3937 C3945 0.930 . S
H3938 C3946 0.930 . S
H3939 C3947 0.930 . S
H3940 C3950 0.930 . S
H3941 C3951 0.930 . S
C3942 H3936 0.930 . S
C3942 C3943 1.355 . S
C3942 C3944 1.415 . S
C3943 C3942 1.355 . S
C3943 C3945 1.419 . S
C3944 C3942 1.415 . S
C3944 C3949 1.425 . S
C3944 C3951 1.409 . S
C3945 H3937 0.930 . S
C3945 C3943 1.419 . S
C3945 C3946 1.362 . S
C3946 H3938 0.930 . S
C3946 C3945 1.362 . S
C3946 C3949 1.409 . S
C3947 H3939 0.930 . S
C3947 C3948 1.355 . S
C3947 C3949 1.415 . S
C3948 C3947 1.355 . S
C3948 C3950 1.419 . S
C3949 C3944 1.425 . S
C3949 C3946 1.409 . S
C3949 C3947 1.415 . S
C3950 H3940 0.930 . S
C3950 C3948 1.419 . S
C3950 C3951 1.362 . S
C3951 H3941 0.930 . S
C3951 C3944 1.409 . S
C3951 C3950 1.362 . S
H3952 C3958 0.930 . S
H3953 C3961 0.930 . S
H3954 C3962 0.930 . S
H3955 C3963 0.930 . S
H3956 C3966 0.930 . S
H3957 C3967 0.930 . S
C3958 H3952 0.930 . S
C3958 C3959 1.355 . S
C3958 C3960 1.415 . S
C3959 C3958 1.355 . S
C3959 C3961 1.419 . S
C3960 C3958 1.415 . S
C3960 C3965 1.425 . S
C3960 C3967 1.409 . S
C3961 H3953 0.930 . S
C3961 C3959 1.419 . S
C3961 C3962 1.362 . S
C3962 H3954 0.930 . S
C3962 C3961 1.362 . S
C3962 C3965 1.409 . S
C3963 H3955 0.930 . S
C3963 C3964 1.355 . S
C3963 C3965 1.415 . S
C3964 C3963 1.355 . S
C3964 C3966 1.419 . S
C3965 C3960 1.425 . S
C3965 C3962 1.409 . S
C3965 C3963 1.415 . S
C3966 H3956 0.930 . S
C3966 C3964 1.419 . S
C3966 C3967 1.362 . S
C3967 H3957 0.930 . S
C3967 C3960 1.409 . S
C3967 C3966 1.362 . S
H3968 C3974 0.930 . S
H3969 C3977 0.930 . S
H3970 C3978 0.930 . S
H3971 C3979 0.930 . S
H3972 C3982 0.930 . S
H3973 C3983 0.930 . S
C3974 H3968 0.930 . S
C3974 C3975 1.355 . S
C3974 C3976 1.415 . S
C3975 C3974 1.355 . S
C3975 C3977 1.419 . S
C3976 C3974 1.415 . S
C3976 C3981 1.425 . S
C3976 C3983 1.409 . S
C3977 H3969 0.930 . S
C3977 C3975 1.419 . S
C3977 C3978 1.362 . S
C3978 H3970 0.930 . S
C3978 C3977 1.362 . S
C3978 C3981 1.409 . S
C3979 H3971 0.930 . S
C3979 C3980 1.355 . S
C3979 C3981 1.415 . S
C3980 C3979 1.355 . S
C3980 C3982 1.419 . S
C3981 C3976 1.425 . S
C3981 C3978 1.409 . S
C3981 C3979 1.415 . S
C3982 H3972 0.930 . S
C3982 C3980 1.419 . S
C3982 C3983 1.362 . S
C3983 H3973 0.930 . S
C3983 C3976 1.409 . S
C3983 C3982 1.362 . S
H3984 C3990 0.930 . S
H3985 C3993 0.930 . S
H3986 C3994 0.930 . S
H3987 C3995 0.930 . S
H3988 C3998 0.930 . S
H3989 C3999 0.930 . S
C3990 H3984 0.930 . S
C3990 C3991 1.355 . S
C3990 C3992 1.415 . S
C3991 C3990 1.355 . S
C3991 C3993 1.419 . S
C3992 C3990 1.415 . S
C3992 C3997 1.425 . S
C3992 C3999 1.409 . S
C3993 H3985 0.930 . S
C3993 C3991 1.419 . S
C3993 C3994 1.362 . S
C3994 H3986 0.930 . S
C3994 C3993 1.362 . S
C3994 C3997 1.409 . S
C3995 H3987 0.930 . S
C3995 C3996 1.355 . S
C3995 C3997 1.415 . S
C3996 C3995 1.355 . S
C3996 C3998 1.419 . S
C3997 C3992 1.425 . S
C3997 C3994 1.409 . S
C3997 C3995 1.415 . S
C3998 H3988 0.930 . S
C3998 C3996 1.419 . S
C3998 C3999 1.362 . S
C3999 H3989 0.930 . S
C3999 C3992 1.409 . S
C3999 C3998 1.362 . S
H4000 C4006 0.930 . S
H4001 C4009 0.930 . S
H4002 C4010 0.930 . S
H4003 C4011 0.930 . S
H4004 C4014 0.930 . S
H4005 C4015 0.930 . S
C4006 H4000 0.930 . S
C4006 C4007 1.355 . S
C4006 C4008 1.415 . S
C4007 C4006 1.355 . S
C4007 C4009 1.419 . S
C4008 C4006 1.415 . S
C4008 C4013 1.425 . S
C4008 C4015 1.409 . S
C4009 H4001 0.930 . S
C4009 C4007 1.419 . S
C4009 C4010 1.362 . S
C4010 H4002 0.930 . S
C4010 C4009 1.362 . S
C4010 C4013 1.409 . S
C4011 H4003 0.930 . S
C4011 C4012 1.355 . S
C4011 C4013 1.415 . S
C4012 C4011 1.355 . S
C4012 C4014 1.419 . S
C4013 C4008 1.425 . S
C4013 C4010 1.409 . S
C4013 C4011 1.415 . S
C4014 H4004 0.930 . S
C4014 C4012 1.419 . S
C4014 C4015 1.362 . S
C4015 H4005 0.930 . S
C4015 C4008 1.409 . S
C4015 C4014 1.362 . S
H4016 C4022 0.930 . S
H4017 C4025 0.930 . S
H4018 C4026 0.930 . S
H4019 C4027 0.930 . S
H4020 C4030 0.930 . S
H4021 C4031 0.930 . S
C4022 H4016 0.930 . S
C4022 C4023 1.355 . S
C4022 C4024 1.415 . S
C4023 C4022 1.355 . S
C4023 C4025 1.419 . S
C4024 C4022 1.415 . S
C4024 C4029 1.425 . S
C4024 C4031 1.409 . S
C4025 H4017 0.930 . S
C4025 C4023 1.419 . S
C4025 C4026 1.362 . S
C4026 H4018 0.930 . S
C4026 C4025 1.362 . S
C4026 C4029 1.409 . S
C4027 H4019 0.930 . S
C4027 C4028 1.355 . S
C4027 C4029 1.415 . S
C4028 C4027 1.355 . S
C4028 C4030 1.419 . S
C4029 C4024 1.425 . S
C4029 C4026 1.409 . S
C4029 C4027 1.415 . S
C4030 H4020 0.930 . S
C4030 C4028 1.419 . S
C4030 C4031 1.362 . S
C4031 H4021 0.930 . S
C4031 C4024 1.409 . S
C4031 C4030 1.362 . S
H4032 C4038 0.930 . S
H4033 C4041 0.930 . S
H4034 C4042 0.930 . S
H4035 C4043 0.930 . S
H4036 C4046 0.930 . S
H4037 C4047 0.930 . S
C4038 H4032 0.930 . S
C4038 C4039 1.355 . S
C4038 C4040 1.415 . S
C4039 C4038 1.355 . S
C4039 C4041 1.419 . S
C4040 C4038 1.415 . S
C4040 C4045 1.425 . S
C4040 C4047 1.409 . S
C4041 H4033 0.930 . S
C4041 C4039 1.419 . S
C4041 C4042 1.362 . S
C4042 H4034 0.930 . S
C4042 C4041 1.362 . S
C4042 C4045 1.409 . S
C4043 H4035 0.930 . S
C4043 C4044 1.355 . S
C4043 C4045 1.415 . S
C4044 C4043 1.355 . S
C4044 C4046 1.419 . S
C4045 C4040 1.425 . S
C4045 C4042 1.409 . S
C4045 C4043 1.415 . S
C4046 H4036 0.930 . S
C4046 C4044 1.419 . S
C4046 C4047 1.362 . S
C4047 H4037 0.930 . S
C4047 C4040 1.409 . S
C4047 C4046 1.362 . S
H4048 C4054 0.930 . S
H4049 C4057 0.930 . S
H4050 C4058 0.930 . S
H4051 C4059 0.930 . S
H4052 C4062 0.930 . S
H4053 C4063 0.930 . S
C4054 H4048 0.930 . S
C4054 C4055 1.355 . S
C4054 C4056 1.415 . S
C4055 C4054 1.355 . S
C4055 C4057 1.419 . S
C4056 C4054 1.415 . S
C4056 C4061 1.425 . S
C4056 C4063 1.409 . S
C4057 H4049 0.930 . S
C4057 C4055 1.419 . S
C4057 C4058 1.362 . S
C4058 H4050 0.930 . S
C4058 C4057 1.362 . S
C4058 C4061 1.409 . S
C4059 H4051 0.930 . S
C4059 C4060 1.355 . S
C4059 C4061 1.415 . S
C4060 C4059 1.355 . S
C4060 C4062 1.419 . S
C4061 C4056 1.425 . S
C4061 C4058 1.409 . S
C4061 C4059 1.415 . S
C4062 H4052 0.930 . S
C4062 C4060 1.419 . S
C4062 C4063 1.362 . S
C4063 H4053 0.930 . S
C4063 C4056 1.409 . S
C4063 C4062 1.362 . S
H4064 C4070 0.930 . S
H4065 C4073 0.930 . S
H4066 C4074 0.930 . S
H4067 C4075 0.930 . S
H4068 C4078 0.930 . S
H4069 C4079 0.930 . S
C4070 H4064 0.930 . S
C4070 C4071 1.355 . S
C4070 C4072 1.415 . S
C4071 C4070 1.355 . S
C4071 C4073 1.419 . S
C4072 C4070 1.415 . S
C4072 C4077 1.425 . S
C4072 C4079 1.409 . S
C4073 H4065 0.930 . S
C4073 C4071 1.419 . S
C4073 C4074 1.362 . S
C4074 H4066 0.930 . S
C4074 C4073 1.362 . S
C4074 C4077 1.409 . S
C4075 H4067 0.930 . S
C4075 C4076 1.355 . S
C4075 C4077 1.415 . S
C4076 C4075 1.355 . S
C4076 C4078 1.419 . S
C4077 C4072 1.425 . S
C4077 C4074 1.409 . S
C4077 C4075 1.415 . S
C4078 H4068 0.930 . S
C4078 C4076 1.419 . S
C4078 C4079 1.362 . S
C4079 H4069 0.930 . S
C4079 C4072 1.409 . S
C4079 C4078 1.362 . S
H4080 C4086 0.930 . S
H4081 C4089 0.930 . S
H4082 C4090 0.930 . S
H4083 C4091 0.930 . S
H4084 C4094 0.930 . S
H4085 C4095 0.930 . S
C4086 H4080 0.930 . S
C4086 C4087 1.355 . S
C4086 C4088 1.415 . S
C4087 C4086 1.355 . S
C4087 C4089 1.419 . S
C4088 C4086 1.415 . S
C4088 C4093 1.425 . S
C4088 C4095 1.409 . S
C4089 H4081 0.930 . S
C4089 C4087 1.419 . S
C4089 C4090 1.362 . S
C4090 H4082 0.930 . S
C4090 C4089 1.362 . S
C4090 C4093 1.409 . S
C4091 H4083 0.930 . S
C4091 C4092 1.355 . S
C4091 C4093 1.415 . S
C4092 C4091 1.355 . S
C4092 C4094 1.419 . S
C4093 C4088 1.425 . S
C4093 C4090 1.409 . S
C4093 C4091 1.415 . S
C4094 H4084 0.930 . S
C4094 C4092 1.419 . S
C4094 C4095 1.362 . S
C4095 H4085 0.930 . S
C4095 C4088 1.409 . S
C4095 C4094 1.362 . S
H4096 C4102 0.930 . S
H4097 C4105 0.930 . S
H4098 C4106 0.930 . S
H4099 C4107 0.930 . S
H4100 C4110 0.930 . S
H4101 C4111 0.930 . S
C4102 H4096 0.930 . S
C4102 C4103 1.355 . S
C4102 C4104 1.415 . S
C4103 C4102 1.355 . S
C4103 C4105 1.419 . S
C4104 C4102 1.415 . S
C4104 C4109 1.425 . S
C4104 C4111 1.409 . S
C4105 H4097 0.930 . S
C4105 C4103 1.419 . S
C4105 C4106 1.362 . S
C4106 H4098 0.930 . S
C4106 C4105 1.362 . S
C4106 C4109 1.409 . S
C4107 H4099 0.930 . S
C4107 C4108 1.355 . S
C4107 C4109 1.415 . S
C4108 C4107 1.355 . S
C4108 C4110 1.419 . S
C4109 C4104 1.425 . S
C4109 C4106 1.409 . S
C4109 C4107 1.415 . S
C4110 H4100 0.930 . S
C4110 C4108 1.419 . S
C4110 C4111 1.362 . S
C4111 H4101 0.930 . S
C4111 C4104 1.409 . S
C4111 C4110 1.362 . S
H4112 C4118 0.930 . S
H4113 C4121 0.930 . S
H4114 C4122 0.930 . S
H4115 C4123 0.930 . S
H4116 C4126 0.930 . S
H4117 C4127 0.930 . S
C4118 H4112 0.930 . S
C4118 C4119 1.355 . S
C4118 C4120 1.415 . S
C4119 C4118 1.355 . S
C4119 C4121 1.419 . S
C4120 C4118 1.415 . S
C4120 C4125 1.425 . S
C4120 C4127 1.409 . S
C4121 H4113 0.930 . S
C4121 C4119 1.419 . S
C4121 C4122 1.362 . S
C4122 H4114 0.930 . S
C4122 C4121 1.362 . S
C4122 C4125 1.409 . S
C4123 H4115 0.930 . S
C4123 C4124 1.355 . S
C4123 C4125 1.415 . S
C4124 C4123 1.355 . S
C4124 C4126 1.419 . S
C4125 C4120 1.425 . S
C4125 C4122 1.409 . S
C4125 C4123 1.415 . S
C4126 H4116 0.930 . S
C4126 C4124 1.419 . S
C4126 C4127 1.362 . S
C4127 H4117 0.930 . S
C4127 C4120 1.409 . S
C4127 C4126 1.362 . S
H4128 C4134 0.930 . S
H4129 C4137 0.930 . S
H4130 C4138 0.930 . S
H4131 C4139 0.930 . S
H4132 C4142 0.930 . S
H4133 C4143 0.930 . S
C4134 H4128 0.930 . S
C4134 C4135 1.355 . S
C4134 C4136 1.415 . S
C4135 C4134 1.355 . S
C4135 C4137 1.419 . S
C4136 C4134 1.415 . S
C4136 C4141 1.425 . S
C4136 C4143 1.409 . S
C4137 H4129 0.930 . S
C4137 C4135 1.419 . S
C4137 C4138 1.362 . S
C4138 H4130 0.930 . S
C4138 C4137 1.362 . S
C4138 C4141 1.409 . S
C4139 H4131 0.930 . S
C4139 C4140 1.355 . S
C4139 C4141 1.415 . S
C4140 C4139 1.355 . S
C4140 C4142 1.419 . S
C4141 C4136 1.425 . S
C4141 C4138 1.409 . S
C4141 C4139 1.415 . S
C4142 H4132 0.930 . S
C4142 C4140 1.419 . S
C4142 C4143 1.362 . S
C4143 H4133 0.930 . S
C4143 C4136 1.409 . S
C4143 C4142 1.362 . S
H4144 C4150 0.930 . S
H4145 C4153 0.930 . S
H4146 C4154 0.930 . S
H4147 C4155 0.930 . S
H4148 C4158 0.930 . S
H4149 C4159 0.930 . S
C4150 H4144 0.930 . S
C4150 C4151 1.355 . S
C4150 C4152 1.415 . S
C4151 C4150 1.355 . S
C4151 C4153 1.419 . S
C4152 C4150 1.415 . S
C4152 C4157 1.425 . S
C4152 C4159 1.409 . S
C4153 H4145 0.930 . S
C4153 C4151 1.419 . S
C4153 C4154 1.362 . S
C4154 H4146 0.930 . S
C4154 C4153 1.362 . S
C4154 C4157 1.409 . S
C4155 H4147 0.930 . S
C4155 C4156 1.355 . S
C4155 C4157 1.415 . S
C4156 C4155 1.355 . S
C4156 C4158 1.419 . S
C4157 C4152 1.425 . S
C4157 C4154 1.409 . S
C4157 C4155 1.415 . S
C4158 H4148 0.930 . S
C4158 C4156 1.419 . S
C4158 C4159 1.362 . S
C4159 H4149 0.930 . S
C4159 C4152 1.409 . S
C4159 C4158 1.362 . S
H4160 C4166 0.930 . S
H4161 C4169 0.930 . S
H4162 C4170 0.930 . S
H4163 C4171 0.930 . S
H4164 C4174 0.930 . S
H4165 C4175 0.930 . S
C4166 H4160 0.930 . S
C4166 C4167 1.355 . S
C4166 C4168 1.415 . S
C4167 C4166 1.355 . S
C4167 C4169 1.419 . S
C4168 C4166 1.415 . S
C4168 C4173 1.425 . S
C4168 C4175 1.409 . S
C4169 H4161 0.930 . S
C4169 C4167 1.419 . S
C4169 C4170 1.362 . S
C4170 H4162 0.930 . S
C4170 C4169 1.362 . S
C4170 C4173 1.409 . S
C4171 H4163 0.930 . S
C4171 C4172 1.355 . S
C4171 C4173 1.415 . S
C4172 C4171 1.355 . S
C4172 C4174 1.419 . S
C4173 C4168 1.425 . S
C4173 C4170 1.409 . S
C4173 C4171 1.415 . S
C4174 H4164 0.930 . S
C4174 C4172 1.419 . S
C4174 C4175 1.362 . S
C4175 H4165 0.930 . S
C4175 C4168 1.409 . S
C4175 C4174 1.362 . S
H4176 C4182 0.930 . S
H4177 C4185 0.930 . S
H4178 C4186 0.930 . S
H4179 C4187 0.930 . S
H4180 C4190 0.930 . S
H4181 C4191 0.930 . S
C4182 H4176 0.930 . S
C4182 C4183 1.355 . S
C4182 C4184 1.415 . S
C4183 C4182 1.355 . S
C4183 C4185 1.419 . S
C4184 C4182 1.415 . S
C4184 C4189 1.425 . S
C4184 C4191 1.409 . S
C4185 H4177 0.930 . S
C4185 C4183 1.419 . S
C4185 C4186 1.362 . S
C4186 H4178 0.930 . S
C4186 C4185 1.362 . S
C4186 C4189 1.409 . S
C4187 H4179 0.930 . S
C4187 C4188 1.355 . S
C4187 C4189 1.415 . S
C4188 C4187 1.355 . S
C4188 C4190 1.419 . S
C4189 C4184 1.425 . S
C4189 C4186 1.409 . S
C4189 C4187 1.415 . S
C4190 H4180 0.930 . S
C4190 C4188 1.419 . S
C4190 C4191 1.362 . S
C4191 H4181 0.930 . S
C4191 C4184 1.409 . S
C4191 C4190 1.362 . S
H4192 C4198 0.930 . S
H4193 C4201 0.930 . S
H4194 C4202 0.930 . S
H4195 C4203 0.930 . S
H4196 C4206 0.930 . S
H4197 C4207 0.930 . S
C4198 H4192 0.930 . S
C4198 C4199 1.355 . S
C4198 C4200 1.415 . S
C4199 C4198 1.355 . S
C4199 C4201 1.419 . S
C4200 C4198 1.415 . S
C4200 C4205 1.425 . S
C4200 C4207 1.409 . S
C4201 H4193 0.930 . S
C4201 C4199 1.419 . S
C4201 C4202 1.362 . S
C4202 H4194 0.930 . S
C4202 C4201 1.362 . S
C4202 C4205 1.409 . S
C4203 H4195 0.930 . S
C4203 C4204 1.355 . S
C4203 C4205 1.415 . S
C4204 C4203 1.355 . S
C4204 C4206 1.419 . S
C4205 C4200 1.425 . S
C4205 C4202 1.409 . S
C4205 C4203 1.415 . S
C4206 H4196 0.930 . S
C4206 C4204 1.419 . S
C4206 C4207 1.362 . S
C4207 H4197 0.930 . S
C4207 C4200 1.409 . S
C4207 C4206 1.362 . S
H4208 C4214 0.930 . S
H4209 C4217 0.930 . S
H4210 C4218 0.930 . S
H4211 C4219 0.930 . S
H4212 C4222 0.930 . S
H4213 C4223 0.930 . S
C4214 H4208 0.930 . S
C4214 C4215 1.355 . S
C4214 C4216 1.415 . S
C4215 C4214 1.355 . S
C4215 C4217 1.419 . S
C4216 C4214 1.415 . S
C4216 C4221 1.425 . S
C4216 C4223 1.409 . S
C4217 H4209 0.930 . S
C4217 C4215 1.419 . S
C4217 C4218 1.362 . S
C4218 H4210 0.930 . S
C4218 C4217 1.362 . S
C4218 C4221 1.409 . S
C4219 H4211 0.930 . S
C4219 C4220 1.355 . S
C4219 C4221 1.415 . S
C4220 C4219 1.355 . S
C4220 C4222 1.419 . S
C4221 C4216 1.425 . S
C4221 C4218 1.409 . S
C4221 C4219 1.415 . S
C4222 H4212 0.930 . S
C4222 C4220 1.419 . S
C4222 C4223 1.362 . S
C4223 H4213 0.930 . S
C4223 C4216 1.409 . S
C4223 C4222 1.362 . S
H4224 C4230 0.930 . S
H4225 C4233 0.930 . S
H4226 C4234 0.930 . S
H4227 C4235 0.930 . S
H4228 C4238 0.930 . S
H4229 C4239 0.930 . S
C4230 H4224 0.930 . S
C4230 C4231 1.355 . S
C4230 C4232 1.415 . S
C4231 C4230 1.355 . S
C4231 C4233 1.419 . S
C4232 C4230 1.415 . S
C4232 C4237 1.425 . S
C4232 C4239 1.409 . S
C4233 H4225 0.930 . S
C4233 C4231 1.419 . S
C4233 C4234 1.362 . S
C4234 H4226 0.930 . S
C4234 C4233 1.362 . S
C4234 C4237 1.409 . S
C4235 H4227 0.930 . S
C4235 C4236 1.355 . S
C4235 C4237 1.415 . S
C4236 C4235 1.355 . S
C4236 C4238 1.419 . S
C4237 C4232 1.425 . S
C4237 C4234 1.409 . S
C4237 C4235 1.415 . S
C4238 H4228 0.930 . S
C4238 C4236 1.419 . S
C4238 C4239 1.362 . S
C4239 H4229 0.930 . S
C4239 C4232 1.409 . S
C4239 C4238 1.362 . S
H4240 C4246 0.930 . S
H4241 C4249 0.930 . S
H4242 C4250 0.930 . S
H4243 C4251 0.930 . S
H4244 C4254 0.930 . S
H4245 C4255 0.930 . S
C4246 H4240 0.930 . S
C4246 C4247 1.355 . S
C4246 C4248 1.415 . S
C4247 C4246 1.355 . S
C4247 C4249 1.419 . S
C4248 C4246 1.415 . S
C4248 C4253 1.425 . S
C4248 C4255 1.409 . S
C4249 H4241 0.930 . S
C4249 C4247 1.419 . S
C4249 C4250 1.362 . S
C4250 H4242 0.930 . S
C4250 C4249 1.362 . S
C4250 C4253 1.409 . S
C4251 H4243 0.930 . S
C4251 C4252 1.355 . S
C4251 C4253 1.415 . S
C4252 C4251 1.355 . S
C4252 C4254 1.419 . S
C4253 C4248 1.425 . S
C4253 C4250 1.409 . S
C4253 C4251 1.415 . S
C4254 H4244 0.930 . S
C4254 C4252 1.419 . S
C4254 C4255 1.362 . S
C4255 H4245 0.930 . S
C4255 C4248 1.409 . S
C4255 C4254 1.362 . S
H4256 C4262 0.930 . S
H4257 C4265 0.930 . S
H4258 C4266 0.930 . S
H4259 C4267 0.930 . S
H4260 C4270 0.930 . S
H4261 C4271 0.930 . S
C4262 H4256 0.930 . S
C4262 C4263 1.355 . S
C4262 C4264 1.415 . S
C4263 C4262 1.355 . S
C4263 C4265 1.419 . S
C4264 C4262 1.415 . S
C4264 C4269 1.425 . S
C4264 C4271 1.409 . S
C4265 H4257 0.930 . S
C4265 C4263 1.419 . S
C4265 C4266 1.362 . S
C4266 H4258 0.930 . S
C4266 C4265 1.362 . S
C4266 C4269 1.409 . S
C4267 H4259 0.930 . S
C4267 C4268 1.355 . S
C4267 C4269 1.415 . S
C4268 C4267 1.355 . S
C4268 C4270 1.419 . S
C4269 C4264 1.425 . S
C4269 C4266 1.409 . S
C4269 C4267 1.415 . S
C4270 H4260 0.930 . S
C4270 C4268 1.419 . S
C4270 C4271 1.362 . S
C4271 H4261 0.930 . S
C4271 C4264 1.409 . S
C4271 C4270 1.362 . S
H4272 C4278 0.930 . S
H4273 C4281 0.930 . S
H4274 C4282 0.930 . S
H4275 C4283 0.930 . S
H4276 C4286 0.930 . S
H4277 C4287 0.930 . S
C4278 H4272 0.930 . S
C4278 C4279 1.355 . S
C4278 C4280 1.415 . S
C4279 C4278 1.355 . S
C4279 C4281 1.419 . S
C4280 C4278 1.415 . S
C4280 C4285 1.425 . S
C4280 C4287 1.409 . S
C4281 H4273 0.930 . S
C4281 C4279 1.419 . S
C4281 C4282 1.362 . S
C4282 H4274 0.930 . S
C4282 C4281 1.362 . S
C4282 C4285 1.409 . S
C4283 H4275 0.930 . S
C4283 C4284 1.355 . S
C4283 C4285 1.415 . S
C4284 C4283 1.355 . S
C4284 C4286 1.419 . S
C4285 C4280 1.425 . S
C4285 C4282 1.409 . S
C4285 C4283 1.415 . S
C4286 H4276 0.930 . S
C4286 C4284 1.419 . S
C4286 C4287 1.362 . S
C4287 H4277 0.930 . S
C4287 C4280 1.409 . S
C4287 C4286 1.362 . S
H4288 C4294 0.930 . S
H4289 C4297 0.930 . S
H4290 C4298 0.930 . S
H4291 C4299 0.930 . S
H4292 C4302 0.930 . S
H4293 C4303 0.930 . S
C4294 H4288 0.930 . S
C4294 C4295 1.355 . S
C4294 C4296 1.415 . S
C4295 C4294 1.355 . S
C4295 C4297 1.419 . S
C4296 C4294 1.415 . S
C4296 C4301 1.425 . S
C4296 C4303 1.409 . S
C4297 H4289 0.930 . S
C4297 C4295 1.419 . S
C4297 C4298 1.362 . S
C4298 H4290 0.930 . S
C4298 C4297 1.362 . S
C4298 C4301 1.409 . S
C4299 H4291 0.930 . S
C4299 C4300 1.355 . S
C4299 C4301 1.415 . S
C4300 C4299 1.355 . S
C4300 C4302 1.419 . S
C4301 C4296 1.425 . S
C4301 C4298 1.409 . S
C4301 C4299 1.415 . S
C4302 H4292 0.930 . S
C4302 C4300 1.419 . S
C4302 C4303 1.362 . S
C4303 H4293 0.930 . S
C4303 C4296 1.409 . S
C4303 C4302 1.362 . S
H4304 C4310 0.930 . S
H4305 C4313 0.930 . S
H4306 C4314 0.930 . S
H4307 C4315 0.930 . S
H4308 C4318 0.930 . S
H4309 C4319 0.930 . S
C4310 H4304 0.930 . S
C4310 C4311 1.355 . S
C4310 C4312 1.415 . S
C4311 C4310 1.355 . S
C4311 C4313 1.419 . S
C4312 C4310 1.415 . S
C4312 C4317 1.425 . S
C4312 C4319 1.409 . S
C4313 H4305 0.930 . S
C4313 C4311 1.419 . S
C4313 C4314 1.362 . S
C4314 H4306 0.930 . S
C4314 C4313 1.362 . S
C4314 C4317 1.409 . S
C4315 H4307 0.930 . S
C4315 C4316 1.355 . S
C4315 C4317 1.415 . S
C4316 C4315 1.355 . S
C4316 C4318 1.419 . S
C4317 C4312 1.425 . S
C4317 C4314 1.409 . S
C4317 C4315 1.415 . S
C4318 H4308 0.930 . S
C4318 C4316 1.419 . S
C4318 C4319 1.362 . S
C4319 H4309 0.930 . S
C4319 C4312 1.409 . S
C4319 C4318 1.362 . S
H4320 C4326 0.930 . S
H4321 C4329 0.930 . S
H4322 C4330 0.930 . S
H4323 C4331 0.930 . S
H4324 C4334 0.930 . S
H4325 C4335 0.930 . S
C4326 H4320 0.930 . S
C4326 C4327 1.355 . S
C4326 C4328 1.415 . S
C4327 C4326 1.355 . S
C4327 C4329 1.419 . S
C4328 C4326 1.415 . S
C4328 C4333 1.425 . S
C4328 C4335 1.409 . S
C4329 H4321 0.930 . S
C4329 C4327 1.419 . S
C4329 C4330 1.362 . S
C4330 H4322 0.930 . S
C4330 C4329 1.362 . S
C4330 C4333 1.409 . S
C4331 H4323 0.930 . S
C4331 C4332 1.355 . S
C4331 C4333 1.415 . S
C4332 C4331 1.355 . S
C4332 C4334 1.419 . S
C4333 C4328 1.425 . S
C4333 C4330 1.409 . S
C4333 C4331 1.415 . S
C4334 H4324 0.930 . S
C4334 C4332 1.419 . S
C4334 C4335 1.362 . S
C4335 H4325 0.930 . S
C4335 C4328 1.409 . S
C4335 C4334 1.362 . S
H4336 C4342 0.930 . S
H4337 C4345 0.930 . S
H4338 C4346 0.930 . S
H4339 C4347 0.930 . S
H4340 C4350 0.930 . S
H4341 C4351 0.930 . S
C4342 H4336 0.930 . S
C4342 C4343 1.355 . S
C4342 C4344 1.415 . S
C4343 C4342 1.355 . S
C4343 C4345 1.419 . S
C4344 C4342 1.415 . S
C4344 C4349 1.425 . S
C4344 C4351 1.409 . S
C4345 H4337 0.930 . S
C4345 C4343 1.419 . S
C4345 C4346 1.362 . S
C4346 H4338 0.930 . S
C4346 C4345 1.362 . S
C4346 C4349 1.409 . S
C4347 H4339 0.930 . S
C4347 C4348 1.355 . S
C4347 C4349 1.415 . S
C4348 C4347 1.355 . S
C4348 C4350 1.419 . S
C4349 C4344 1.425 . S
C4349 C4346 1.409 . S
C4349 C4347 1.415 . S
C4350 H4340 0.930 . S
C4350 C4348 1.419 . S
C4350 C4351 1.362 . S
C4351 H4341 0.930 . S
C4351 C4344 1.409 . S
C4351 C4350 1.362 . S
H4352 C4358 0.930 . S
H4353 C4361 0.930 . S
H4354 C4362 0.930 . S
H4355 C4363 0.930 . S
H4356 C4366 0.930 . S
H4357 C4367 0.930 . S
C4358 H4352 0.930 . S
C4358 C4359 1.355 . S
C4358 C4360 1.415 . S
C4359 C4358 1.355 . S
C4359 C4361 1.419 . S
C4360 C4358 1.415 . S
C4360 C4365 1.425 . S
C4360 C4367 1.409 . S
C4361 H4353 0.930 . S
C4361 C4359 1.419 . S
C4361 C4362 1.362 . S
C4362 H4354 0.930 . S
C4362 C4361 1.362 . S
C4362 C4365 1.409 . S
C4363 H4355 0.930 . S
C4363 C4364 1.355 . S
C4363 C4365 1.415 . S
C4364 C4363 1.355 . S
C4364 C4366 1.419 . S
C4365 C4360 1.425 . S
C4365 C4362 1.409 . S
C4365 C4363 1.415 . S
C4366 H4356 0.930 . S
C4366 C4364 1.419 . S
C4366 C4367 1.362 . S
C4367 H4357 0.930 . S
C4367 C4360 1.409 . S
C4367 C4366 1.362 . S
H4368 C4374 0.930 . S
H4369 C4377 0.930 . S
H4370 C4378 0.930 . S
H4371 C4379 0.930 . S
H4372 C4382 0.930 . S
H4373 C4383 0.930 . S
C4374 H4368 0.930 . S
C4374 C4375 1.355 . S
C4374 C4376 1.415 . S
C4375 C4374 1.355 . S
C4375 C4377 1.419 . S
C4376 C4374 1.415 . S
C4376 C4381 1.425 . S
C4376 C4383 1.409 . S
C4377 H4369 0.930 . S
C4377 C4375 1.419 . S
C4377 C4378 1.362 . S
C4378 H4370 0.930 . S
C4378 C4377 1.362 . S
C4378 C4381 1.409 . S
C4379 H4371 0.930 . S
C4379 C4380 1.355 . S
C4379 C4381 1.415 . S
C4380 C4379 1.355 . S
C4380 C4382 1.419 . S
C4381 C4376 1.425 . S
C4381 C4378 1.409 . S
C4381 C4379 1.415 . S
C4382 H4372 0.930 . S
C4382 C4380 1.419 . S
C4382 C4383 1.362 . S
C4383 H4373 0.930 . S
C4383 C4376 1.409 . S
C4383 C4382 1.362 . S
H4384 C4390 0.930 . S
H4385 C4393 0.930 . S
H4386 C4394 0.930 . S
H4387 C4395 0.930 . S
H4388 C4398 0.930 . S
H4389 C4399 0.930 . S
C4390 H4384 0.930 . S
C4390 C4391 1.355 . S
C4390 C4392 1.415 . S
C4391 C4390 1.355 . S
C4391 C4393 1.419 . S
C4392 C4390 1.415 . S
C4392 C4397 1.425 . S
C4392 C4399 1.409 . S
C4393 H4385 0.930 . S
C4393 C4391 1.419 . S
C4393 C4394 1.362 . S
C4394 H4386 0.930 . S
C4394 C4393 1.362 . S
C4394 C4397 1.409 . S
C4395 H4387 0.930 . S
C4395 C4396 1.355 . S
C4395 C4397 1.415 . S
C4396 C4395 1.355 . S
C4396 C4398 1.419 . S
C4397 C4392 1.425 . S
C4397 C4394 1.409 . S
C4397 C4395 1.415 . S
C4398 H4388 0.930 . S
C4398 C4396 1.419 . S
C4398 C4399 1.362 . S
C4399 H4389 0.930 . S
C4399 C4392 1.409 . S
C4399 C4398 1.362 . S
H4400 C4406 0.930 . S
H4401 C4409 0.930 . S
H4402 C4410 0.930 . S
H4403 C4411 0.930 . S
H4404 C4414 0.930 . S
H4405 C4415 0.930 . S
C4406 H4400 0.930 . S
C4406 C4407 1.355 . S
C4406 C4408 1.415 . S
C4407 C4406 1.355 . S
C4407 C4409 1.419 . S
C4408 C4406 1.415 . S
C4408 C4413 1.425 . S
C4408 C4415 1.409 . S
C4409 H4401 0.930 . S
C4409 C4407 1.419 . S
C4409 C4410 1.362 . S
C4410 H4402 0.930 . S
C4410 C4409 1.362 . S
C4410 C4413 1.409 . S
C4411 H4403 0.930 . S
C4411 C4412 1.355 . S
C4411 C4413 1.415 . S
C4412 C4411 1.355 . S
C4412 C4414 1.419 . S
C4413 C4408 1.425 . S
C4413 C4410 1.409 . S
C4413 C4411 1.415 . S
C4414 H4404 0.930 . S
C4414 C4412 1.419 . S
C4414 C4415 1.362 . S
C4415 H4405 0.930 . S
C4415 C4408 1.409 . S
C4415 C4414 1.362 . S
H4416 C4422 0.930 . S
H4417 C4425 0.930 . S
H4418 C4426 0.930 . S
H4419 C4427 0.930 . S
H4420 C4430 0.930 . S
H4421 C4431 0.930 . S
C4422 H4416 0.930 . S
C4422 C4423 1.355 . S
C4422 C4424 1.415 . S
C4423 C4422 1.355 . S
C4423 C4425 1.419 . S
C4424 C4422 1.415 . S
C4424 C4429 1.425 . S
C4424 C4431 1.409 . S
C4425 H4417 0.930 . S
C4425 C4423 1.419 . S
C4425 C4426 1.362 . S
C4426 H4418 0.930 . S
C4426 C4425 1.362 . S
C4426 C4429 1.409 . S
C4427 H4419 0.930 . S
C4427 C4428 1.355 . S
C4427 C4429 1.415 . S
C4428 C4427 1.355 . S
C4428 C4430 1.419 . S
C4429 C4424 1.425 . S
C4429 C4426 1.409 . S
C4429 C4427 1.415 . S
C4430 H4420 0.930 . S
C4430 C4428 1.419 . S
C4430 C4431 1.362 . S
C4431 H4421 0.930 . S
C4431 C4424 1.409 . S
C4431 C4430 1.362 . S
H4432 C4438 0.930 . S
H4433 C4441 0.930 . S
H4434 C4442 0.930 . S
H4435 C4443 0.930 . S
H4436 C4446 0.930 . S
H4437 C4447 0.930 . S
C4438 H4432 0.930 . S
C4438 C4439 1.355 . S
C4438 C4440 1.415 . S
C4439 C4438 1.355 . S
C4439 C4441 1.419 . S
C4440 C4438 1.415 . S
C4440 C4445 1.425 . S
C4440 C4447 1.409 . S
C4441 H4433 0.930 . S
C4441 C4439 1.419 . S
C4441 C4442 1.362 . S
C4442 H4434 0.930 . S
C4442 C4441 1.362 . S
C4442 C4445 1.409 . S
C4443 H4435 0.930 . S
C4443 C4444 1.355 . S
C4443 C4445 1.415 . S
C4444 C4443 1.355 . S
C4444 C4446 1.419 . S
C4445 C4440 1.425 . S
C4445 C4442 1.409 . S
C4445 C4443 1.415 . S
C4446 H4436 0.930 . S
C4446 C4444 1.419 . S
C4446 C4447 1.362 . S
C4447 H4437 0.930 . S
C4447 C4440 1.409 . S
C4447 C4446 1.362 . S
H4448 C4454 0.930 . S
H4449 C4457 0.930 . S
H4450 C4458 0.930 . S
H4451 C4459 0.930 . S
H4452 C4462 0.930 . S
H4453 C4463 0.930 . S
C4454 H4448 0.930 . S
C4454 C4455 1.355 . S
C4454 C4456 1.415 . S
C4455 C4454 1.355 . S
C4455 C4457 1.419 . S
C4456 C4454 1.415 . S
C4456 C4461 1.425 . S
C4456 C4463 1.409 . S
C4457 H4449 0.930 . S
C4457 C4455 1.419 . S
C4457 C4458 1.362 . S
C4458 H4450 0.930 . S
C4458 C4457 1.362 . S
C4458 C4461 1.409 . S
C4459 H4451 0.930 . S
C4459 C4460 1.355 . S
C4459 C4461 1.415 . S
C4460 C4459 1.355 . S
C4460 C4462 1.419 . S
C4461 C4456 1.425 . S
C4461 C4458 1.409 . S
C4461 C4459 1.415 . S
C4462 H4452 0.930 . S
C4462 C4460 1.419 . S
C4462 C4463 1.362 . S
C4463 H4453 0.930 . S
C4463 C4456 1.409 . S
C4463 C4462 1.362 . S
H4464 C4470 0.930 . S
H4465 C4473 0.930 . S
H4466 C4474 0.930 . S
H4467 C4475 0.930 . S
H4468 C4478 0.930 . S
H4469 C4479 0.930 . S
C4470 H4464 0.930 . S
C4470 C4471 1.355 . S
C4470 C4472 1.415 . S
C4471 C4470 1.355 . S
C4471 C4473 1.419 . S
C4472 C4470 1.415 . S
C4472 C4477 1.425 . S
C4472 C4479 1.409 . S
C4473 H4465 0.930 . S
C4473 C4471 1.419 . S
C4473 C4474 1.362 . S
C4474 H4466 0.930 . S
C4474 C4473 1.362 . S
C4474 C4477 1.409 . S
C4475 H4467 0.930 . S
C4475 C4476 1.355 . S
C4475 C4477 1.415 . S
C4476 C4475 1.355 . S
C4476 C4478 1.419 . S
C4477 C4472 1.425 . S
C4477 C4474 1.409 . S
C4477 C4475 1.415 . S
C4478 H4468 0.930 . S
C4478 C4476 1.419 . S
C4478 C4479 1.362 . S
C4479 H4469 0.930 . S
C4479 C4472 1.409 . S
C4479 C4478 1.362 . S
H4480 C4486 0.930 . S
H4481 C4489 0.930 . S
H4482 C4490 0.930 . S
H4483 C4491 0.930 . S
H4484 C4494 0.930 . S
H4485 C4495 0.930 . S
C4486 H4480 0.930 . S
C4486 C4487 1.355 . S
C4486 C4488 1.415 . S
C4487 C4486 1.355 . S
C4487 C4489 1.419 . S
C4488 C4486 1.415 . S
C4488 C4493 1.425 . S
C4488 C4495 1.409 . S
C4489 H4481 0.930 . S
C4489 C4487 1.419 . S
C4489 C4490 1.362 . S
C4490 H4482 0.930 . S
C4490 C4489 1.362 . S
C4490 C4493 1.409 . S
C4491 H4483 0.930 . S
C4491 C4492 1.355 . S
C4491 C4493 1.415 . S
C4492 C4491 1.355 . S
C4492 C4494 1.419 . S
C4493 C4488 1.425 . S
C4493 C4490 1.409 . S
C4493 C4491 1.415 . S
C4494 H4484 0.930 . S
C4494 C4492 1.419 . S
C4494 C4495 1.362 . S
C4495 H4485 0.930 . S
C4495 C4488 1.409 . S
C4495 C4494 1.362 . S
H4496 C4502 0.930 . S
H4497 C4505 0.930 . S
H4498 C4506 0.930 . S
H4499 C4507 0.930 . S
H4500 C4510 0.930 . S
H4501 C4511 0.930 . S
C4502 H4496 0.930 . S
C4502 C4503 1.355 . S
C4502 C4504 1.415 . S
C4503 C4502 1.355 . S
C4503 C4505 1.419 . S
C4504 C4502 1.415 . S
C4504 C4509 1.425 . S
C4504 C4511 1.409 . S
C4505 H4497 0.930 . S
C4505 C4503 1.419 . S
C4505 C4506 1.362 . S
C4506 H4498 0.930 . S
C4506 C4505 1.362 . S
C4506 C4509 1.409 . S
C4507 H4499 0.930 . S
C4507 C4508 1.355 . S
C4507 C4509 1.415 . S
C4508 C4507 1.355 . S
C4508 C4510 1.419 . S
C4509 C4504 1.425 . S
C4509 C4506 1.409 . S
C4509 C4507 1.415 . S
C4510 H4500 0.930 . S
C4510 C4508 1.419 . S
C4510 C4511 1.362 . S
C4511 H4501 0.930 . S
C4511 C4504 1.409 . S
C4511 C4510 1.362 . S
H4512 C4518 0.930 . S
H4513 C4521 0.930 . S
H4514 C4522 0.930 . S
H4515 C4523 0.930 . S
H4516 C4526 0.930 . S
H4517 C4527 0.930 . S
C4518 H4512 0.930 . S
C4518 C4519 1.355 . S
C4518 C4520 1.415 . S
C4519 C4518 1.355 . S
C4519 C4521 1.419 . S
C4520 C4518 1.415 . S
C4520 C4525 1.425 . S
C4520 C4527 1.409 . S
C4521 H4513 0.930 . S
C4521 C4519 1.419 . S
C4521 C4522 1.362 . S
C4522 H4514 0.930 . S
C4522 C4521 1.362 . S
C4522 C4525 1.409 . S
C4523 H4515 0.930 . S
C4523 C4524 1.355 . S
C4523 C4525 1.415 . S
C4524 C4523 1.355 . S
C4524 C4526 1.419 . S
C4525 C4520 1.425 . S
C4525 C4522 1.409 . S
C4525 C4523 1.415 . S
C4526 H4516 0.930 . S
C4526 C4524 1.419 . S
C4526 C4527 1.362 . S
C4527 H4517 0.930 . S
C4527 C4520 1.409 . S
C4527 C4526 1.362 . S
H4528 C4534 0.930 . S
H4529 C4537 0.930 . S
H4530 C4538 0.930 . S
H4531 C4539 0.930 . S
H4532 C4542 0.930 . S
H4533 C4543 0.930 . S
C4534 H4528 0.930 . S
C4534 C4535 1.355 . S
C4534 C4536 1.415 . S
C4535 C4534 1.355 . S
C4535 C4537 1.419 . S
C4536 C4534 1.415 . S
C4536 C4541 1.425 . S
C4536 C4543 1.409 . S
C4537 H4529 0.930 . S
C4537 C4535 1.419 . S
C4537 C4538 1.362 . S
C4538 H4530 0.930 . S
C4538 C4537 1.362 . S
C4538 C4541 1.409 . S
C4539 H4531 0.930 . S
C4539 C4540 1.355 . S
C4539 C4541 1.415 . S
C4540 C4539 1.355 . S
C4540 C4542 1.419 . S
C4541 C4536 1.425 . S
C4541 C4538 1.409 . S
C4541 C4539 1.415 . S
C4542 H4532 0.930 . S
C4542 C4540 1.419 . S
C4542 C4543 1.362 . S
C4543 H4533 0.930 . S
C4543 C4536 1.409 . S
C4543 C4542 1.362 . S
H4544 C4550 0.930 . S
H4545 C4553 0.930 . S
H4546 C4554 0.930 . S
H4547 C4555 0.930 . S
H4548 C4558 0.930 . S
H4549 C4559 0.930 . S
C4550 H4544 0.930 . S
C4550 C4551 1.355 . S
C4550 C4552 1.415 . S
C4551 C4550 1.355 . S
C4551 C4553 1.419 . S
C4552 C4550 1.415 . S
C4552 C4557 1.425 . S
C4552 C4559 1.409 . S
C4553 H4545 0.930 . S
C4553 C4551 1.419 . S
C4553 C4554 1.362 . S
C4554 H4546 0.930 . S
C4554 C4553 1.362 . S
C4554 C4557 1.409 . S
C4555 H4547 0.930 . S
C4555 C4556 1.355 . S
C4555 C4557 1.415 . S
C4556 C4555 1.355 . S
C4556 C4558 1.419 . S
C4557 C4552 1.425 . S
C4557 C4554 1.409 . S
C4557 C4555 1.415 . S
C4558 H4548 0.930 . S
C4558 C4556 1.419 . S
C4558 C4559 1.362 . S
C4559 H4549 0.930 . S
C4559 C4552 1.409 . S
C4559 C4558 1.362 . S
H4560 C4566 0.930 . S
H4561 C4569 0.930 . S
H4562 C4570 0.930 . S
H4563 C4571 0.930 . S
H4564 C4574 0.930 . S
H4565 C4575 0.930 . S
C4566 H4560 0.930 . S
C4566 C4567 1.355 . S
C4566 C4568 1.415 . S
C4567 C4566 1.355 . S
C4567 C4569 1.419 . S
C4568 C4566 1.415 . S
C4568 C4573 1.425 . S
C4568 C4575 1.409 . S
C4569 H4561 0.930 . S
C4569 C4567 1.419 . S
C4569 C4570 1.362 . S
C4570 H4562 0.930 . S
C4570 C4569 1.362 . S
C4570 C4573 1.409 . S
C4571 H4563 0.930 . S
C4571 C4572 1.355 . S
C4571 C4573 1.415 . S
C4572 C4571 1.355 . S
C4572 C4574 1.419 . S
C4573 C4568 1.425 . S
C4573 C4570 1.409 . S
C4573 C4571 1.415 . S
C4574 H4564 0.930 . S
C4574 C4572 1.419 . S
C4574 C4575 1.362 . S
C4575 H4565 0.930 . S
C4575 C4568 1.409 . S
C4575 C4574 1.362 . S
H4576 C4582 0.930 . S
H4577 C4585 0.930 . S
H4578 C4586 0.930 . S
H4579 C4587 0.930 . S
H4580 C4590 0.930 . S
H4581 C4591 0.930 . S
C4582 H4576 0.930 . S
C4582 C4583 1.355 . S
C4582 C4584 1.415 . S
C4583 C4582 1.355 . S
C4583 C4585 1.419 . S
C4584 C4582 1.415 . S
C4584 C4589 1.425 . S
C4584 C4591 1.409 . S
C4585 H4577 0.930 . S
C4585 C4583 1.419 . S
C4585 C4586 1.362 . S
C4586 H4578 0.930 . S
C4586 C4585 1.362 . S
C4586 C4589 1.409 . S
C4587 H4579 0.930 . S
C4587 C4588 1.355 . S
C4587 C4589 1.415 . S
C4588 C4587 1.355 . S
C4588 C4590 1.419 . S
C4589 C4584 1.425 . S
C4589 C4586 1.409 . S
C4589 C4587 1.415 . S
C4590 H4580 0.930 . S
C4590 C4588 1.419 . S
C4590 C4591 1.362 . S
C4591 H4581 0.930 . S
C4591 C4584 1.409 . S
C4591 C4590 1.362 . S
H4592 C4598 0.930 . S
H4593 C4601 0.930 . S
H4594 C4602 0.930 . S
H4595 C4603 0.930 . S
H4596 C4606 0.930 . S
H4597 C4607 0.930 . S
C4598 H4592 0.930 . S
C4598 C4599 1.355 . S
C4598 C4600 1.415 . S
C4599 C4598 1.355 . S
C4599 C4601 1.419 . S
C4600 C4598 1.415 . S
C4600 C4605 1.425 . S
C4600 C4607 1.409 . S
C4601 H4593 0.930 . S
C4601 C4599 1.419 . S
C4601 C4602 1.362 . S
C4602 H4594 0.930 . S
C4602 C4601 1.362 . S
C4602 C4605 1.409 . S
C4603 H4595 0.930 . S
C4603 C4604 1.355 . S
C4603 C4605 1.415 . S
C4604 C4603 1.355 . S
C4604 C4606 1.419 . S
C4605 C4600 1.425 . S
C4605 C4602 1.409 . S
C4605 C4603 1.415 . S
C4606 H4596 0.930 . S
C4606 C4604 1.419 . S
C4606 C4607 1.362 . S
C4607 H4597 0.930 . S
C4607 C4600 1.409 . S
C4607 C4606 1.362 . S
H4608 C4614 0.930 . S
H4609 C4617 0.930 . S
H4610 C4618 0.930 . S
H4611 C4619 0.930 . S
H4612 C4622 0.930 . S
H4613 C4623 0.930 . S
C4614 H4608 0.930 . S
C4614 C4615 1.355 . S
C4614 C4616 1.415 . S
C4615 C4614 1.355 . S
C4615 C4617 1.419 . S
C4616 C4614 1.415 . S
C4616 C4621 1.425 . S
C4616 C4623 1.409 . S
C4617 H4609 0.930 . S
C4617 C4615 1.419 . S
C4617 C4618 1.362 . S
C4618 H4610 0.930 . S
C4618 C4617 1.362 . S
C4618 C4621 1.409 . S
C4619 H4611 0.930 . S
C4619 C4620 1.355 . S
C4619 C4621 1.415 . S
C4620 C4619 1.355 . S
C4620 C4622 1.419 . S
C4621 C4616 1.425 . S
C4621 C4618 1.409 . S
C4621 C4619 1.415 . S
C4622 H4612 0.930 . S
C4622 C4620 1.419 . S
C4622 C4623 1.362 . S
C4623 H4613 0.930 . S
C4623 C4616 1.409 . S
C4623 C4622 1.362 . S
H4624 C4630 0.930 . S
H4625 C4633 0.930 . S
H4626 C4634 0.930 . S
H4627 C4635 0.930 . S
H4628 C4638 0.930 . S
H4629 C4639 0.930 . S
C4630 H4624 0.930 . S
C4630 C4631 1.355 . S
C4630 C4632 1.415 . S
C4631 C4630 1.355 . S
C4631 C4633 1.419 . S
C4632 C4630 1.415 . S
C4632 C4637 1.425 . S
C4632 C4639 1.409 . S
C4633 H4625 0.930 . S
C4633 C4631 1.419 . S
C4633 C4634 1.362 . S
C4634 H4626 0.930 . S
C4634 C4633 1.362 . S
C4634 C4637 1.409 . S
C4635 H4627 0.930 . S
C4635 C4636 1.355 . S
C4635 C4637 1.415 . S
C4636 C4635 1.355 . S
C4636 C4638 1.419 . S
C4637 C4632 1.425 . S
C4637 C4634 1.409 . S
C4637 C4635 1.415 . S
C4638 H4628 0.930 . S
C4638 C4636 1.419 . S
C4638 C4639 1.362 . S
C4639 H4629 0.930 . S
C4639 C4632 1.409 . S
C4639 C4638 1.362 . S
H4640 C4646 0.930 . S
H4641 C4649 0.930 . S
H4642 C4650 0.930 . S
H4643 C4651 0.930 . S
H4644 C4654 0.930 . S
H4645 C4655 0.930 . S
C4646 H4640 0.930 . S
C4646 C4647 1.355 . S
C4646 C4648 1.415 . S
C4647 C4646 1.355 . S
C4647 C4649 1.419 . S
C4648 C4646 1.415 . S
C4648 C4653 1.425 . S
C4648 C4655 1.409 . S
C4649 H4641 0.930 . S
C4649 C4647 1.419 . S
C4649 C4650 1.362 . S
C4650 H4642 0.930 . S
C4650 C4649 1.362 . S
C4650 C4653 1.409 . S
C4651 H4643 0.930 . S
C4651 C4652 1.355 . S
C4651 C4653 1.415 . S
C4652 C4651 1.355 . S
C4652 C4654 1.419 . S
C4653 C4648 1.425 . S
C4653 C4650 1.409 . S
C4653 C4651 1.415 . S
C4654 H4644 0.930 . S
C4654 C4652 1.419 . S
C4654 C4655 1.362 . S
C4655 H4645 0.930 . S
C4655 C4648 1.409 . S
C4655 C4654 1.362 . S
H4656 C4662 0.930 . S
H4657 C4665 0.930 . S
H4658 C4666 0.930 . S
H4659 C4667 0.930 . S
H4660 C4670 0.930 . S
H4661 C4671 0.930 . S
C4662 H4656 0.930 . S
C4662 C4663 1.355 . S
C4662 C4664 1.415 . S
C4663 C4662 1.355 . S
C4663 C4665 1.419 . S
C4664 C4662 1.415 . S
C4664 C4669 1.425 . S
C4664 C4671 1.409 . S
C4665 H4657 0.930 . S
C4665 C4663 1.419 . S
C4665 C4666 1.362 . S
C4666 H4658 0.930 . S
C4666 C4665 1.362 . S
C4666 C4669 1.409 . S
C4667 H4659 0.930 . S
C4667 C4668 1.355 . S
C4667 C4669 1.415 . S
C4668 C4667 1.355 . S
C4668 C4670 1.419 . S
C4669 C4664 1.425 . S
C4669 C4666 1.409 . S
C4669 C4667 1.415 . S
C4670 H4660 0.930 . S
C4670 C4668 1.419 . S
C4670 C4671 1.362 . S
C4671 H4661 0.930 . S
C4671 C4664 1.409 . S
C4671 C4670 1.362 . S
H4672 C4678 0.930 . S
H4673 C4681 0.930 . S
H4674 C4682 0.930 . S
H4675 C4683 0.930 . S
H4676 C4686 0.930 . S
H4677 C4687 0.930 . S
C4678 H4672 0.930 . S
C4678 C4679 1.355 . S
C4678 C4680 1.415 . S
C4679 C4678 1.355 . S
C4679 C4681 1.419 . S
C4680 C4678 1.415 . S
C4680 C4685 1.425 . S
C4680 C4687 1.409 . S
C4681 H4673 0.930 . S
C4681 C4679 1.419 . S
C4681 C4682 1.362 . S
C4682 H4674 0.930 . S
C4682 C4681 1.362 . S
C4682 C4685 1.409 . S
C4683 H4675 0.930 . S
C4683 C4684 1.355 . S
C4683 C4685 1.415 . S
C4684 C4683 1.355 . S
C4684 C4686 1.419 . S
C4685 C4680 1.425 . S
C4685 C4682 1.409 . S
C4685 C4683 1.415 . S
C4686 H4676 0.930 . S
C4686 C4684 1.419 . S
C4686 C4687 1.362 . S
C4687 H4677 0.930 . S
C4687 C4680 1.409 . S
C4687 C4686 1.362 . S
H4688 C4694 0.930 . S
H4689 C4697 0.930 . S
H4690 C4698 0.930 . S
H4691 C4699 0.930 . S
H4692 C4702 0.930 . S
H4693 C4703 0.930 . S
C4694 H4688 0.930 . S
C4694 C4695 1.355 . S
C4694 C4696 1.415 . S
C4695 C4694 1.355 . S
C4695 C4697 1.419 . S
C4696 C4694 1.415 . S
C4696 C4701 1.425 . S
C4696 C4703 1.409 . S
C4697 H4689 0.930 . S
C4697 C4695 1.419 . S
C4697 C4698 1.362 . S
C4698 H4690 0.930 . S
C4698 C4697 1.362 . S
C4698 C4701 1.409 . S
C4699 H4691 0.930 . S
C4699 C4700 1.355 . S
C4699 C4701 1.415 . S
C4700 C4699 1.355 . S
C4700 C4702 1.419 . S
C4701 C4696 1.425 . S
C4701 C4698 1.409 . S
C4701 C4699 1.415 . S
C4702 H4692 0.930 . S
C4702 C4700 1.419 . S
C4702 C4703 1.362 . S
C4703 H4693 0.930 . S
C4703 C4696 1.409 . S
C4703 C4702 1.362 . S
H4704 C4710 0.930 . S
H4705 C4713 0.930 . S
H4706 C4714 0.930 . S
H4707 C4715 0.930 . S
H4708 C4718 0.930 . S
H4709 C4719 0.930 . S
C4710 H4704 0.930 . S
C4710 C4711 1.355 . S
C4710 C4712 1.415 . S
C4711 C4710 1.355 . S
C4711 C4713 1.419 . S
C4712 C4710 1.415 . S
C4712 C4717 1.425 . S
C4712 C4719 1.409 . S
C4713 H4705 0.930 . S
C4713 C4711 1.419 . S
C4713 C4714 1.362 . S
C4714 H4706 0.930 . S
C4714 C4713 1.362 . S
C4714 C4717 1.409 . S
C4715 H4707 0.930 . S
C4715 C4716 1.355 . S
C4715 C4717 1.415 . S
C4716 C4715 1.355 . S
C4716 C4718 1.419 . S
C4717 C4712 1.425 . S
C4717 C4714 1.409 . S
C4717 C4715 1.415 . S
C4718 H4708 0.930 . S
C4718 C4716 1.419 . S
C4718 C4719 1.362 . S
C4719 H4709 0.930 . S
C4719 C4712 1.409 . S
C4719 C4718 1.362 . S
H4720 C4726 0.930 . S
H4721 C4729 0.930 . S
H4722 C4730 0.930 . S
H4723 C4731 0.930 . S
H4724 C4734 0.930 . S
H4725 C4735 0.930 . S
C4726 H4720 0.930 . S
C4726 C4727 1.355 . S
C4726 C4728 1.415 . S
C4727 C4726 1.355 . S
C4727 C4729 1.419 . S
C4728 C4726 1.415 . S
C4728 C4733 1.425 . S
C4728 C4735 1.409 . S
C4729 H4721 0.930 . S
C4729 C4727 1.419 . S
C4729 C4730 1.362 . S
C4730 H4722 0.930 . S
C4730 C4729 1.362 . S
C4730 C4733 1.409 . S
C4731 H4723 0.930 . S
C4731 C4732 1.355 . S
C4731 C4733 1.415 . S
C4732 C4731 1.355 . S
C4732 C4734 1.419 . S
C4733 C4728 1.425 . S
C4733 C4730 1.409 . S
C4733 C4731 1.415 . S
C4734 H4724 0.930 . S
C4734 C4732 1.419 . S
C4734 C4735 1.362 . S
C4735 H4725 0.930 . S
C4735 C4728 1.409 . S
C4735 C4734 1.362 . S
H4736 C4742 0.930 . S
H4737 C4745 0.930 . S
H4738 C4746 0.930 . S
H4739 C4747 0.930 . S
H4740 C4750 0.930 . S
H4741 C4751 0.930 . S
C4742 H4736 0.930 . S
C4742 C4743 1.355 . S
C4742 C4744 1.415 . S
C4743 C4742 1.355 . S
C4743 C4745 1.419 . S
C4744 C4742 1.415 . S
C4744 C4749 1.425 . S
C4744 C4751 1.409 . S
C4745 H4737 0.930 . S
C4745 C4743 1.419 . S
C4745 C4746 1.362 . S
C4746 H4738 0.930 . S
C4746 C4745 1.362 . S
C4746 C4749 1.409 . S
C4747 H4739 0.930 . S
C4747 C4748 1.355 . S
C4747 C4749 1.415 . S
C4748 C4747 1.355 . S
C4748 C4750 1.419 . S
C4749 C4744 1.425 . S
C4749 C4746 1.409 . S
C4749 C4747 1.415 . S
C4750 H4740 0.930 . S
C4750 C4748 1.419 . S
C4750 C4751 1.362 . S
C4751 H4741 0.930 . S
C4751 C4744 1.409 . S
C4751 C4750 1.362 . S
H4752 C4758 0.930 . S
H4753 C4761 0.930 . S
H4754 C4762 0.930 . S
H4755 C4763 0.930 . S
H4756 C4766 0.930 . S
H4757 C4767 0.930 . S
C4758 H4752 0.930 . S
C4758 C4759 1.355 . S
C4758 C4760 1.415 . S
C4759 C4758 1.355 . S
C4759 C4761 1.419 . S
C4760 C4758 1.415 . S
C4760 C4765 1.425 . S
C4760 C4767 1.409 . S
C4761 H4753 0.930 . S
C4761 C4759 1.419 . S
C4761 C4762 1.362 . S
C4762 H4754 0.930 . S
C4762 C4761 1.362 . S
C4762 C4765 1.409 . S
C4763 H4755 0.930 . S
C4763 C4764 1.355 . S
C4763 C4765 1.415 . S
C4764 C4763 1.355 . S
C4764 C4766 1.419 . S
C4765 C4760 1.425 . S
C4765 C4762 1.409 . S
C4765 C4763 1.415 . S
C4766 H4756 0.930 . S
C4766 C4764 1.419 . S
C4766 C4767 1.362 . S
C4767 H4757 0.930 . S
C4767 C4760 1.409 . S
C4767 C4766 1.362 . S
H4768 C4774 0.930 . S
H4769 C4777 0.930 . S
H4770 C4778 0.930 . S
H4771 C4779 0.930 . S
H4772 C4782 0.930 . S
H4773 C4783 0.930 . S
C4774 H4768 0.930 . S
C4774 C4775 1.355 . S
C4774 C4776 1.415 . S
C4775 C4774 1.355 . S
C4775 C4777 1.419 . S
C4776 C4774 1.415 . S
C4776 C4781 1.425 . S
C4776 C4783 1.409 . S
C4777 H4769 0.930 . S
C4777 C4775 1.419 . S
C4777 C4778 1.362 . S
C4778 H4770 0.930 . S
C4778 C4777 1.362 . S
C4778 C4781 1.409 . S
C4779 H4771 0.930 . S
C4779 C4780 1.355 . S
C4779 C4781 1.415 . S
C4780 C4779 1.355 . S
C4780 C4782 1.419 . S
C4781 C4776 1.425 . S
C4781 C4778 1.409 . S
C4781 C4779 1.415 . S
C4782 H4772 0.930 . S
C4782 C4780 1.419 . S
C4782 C4783 1.362 . S
C4783 H4773 0.930 . S
C4783 C4776 1.409 . S
C4783 C4782 1.362 . S
H4784 C4790 0.930 . S
H4785 C4793 0.930 . S
H4786 C4794 0.930 . S
H4787 C4795 0.930 . S
H4788 C4798 0.930 . S
H4789 C4799 0.930 . S
C4790 H4784 0.930 . S
C4790 C4791 1.355 . S
C4790 C4792 1.415 . S
C4791 C4790 1.355 . S
C4791 C4793 1.419 . S
C4792 C4790 1.415 . S
C4792 C4797 1.425 . S
C4792 C4799 1.409 . S
C4793 H4785 0.930 . S
C4793 C4791 1.419 . S
C4793 C4794 1.362 . S
C4794 H4786 0.930 . S
C4794 C4793 1.362 . S
C4794 C4797 1.409 . S
C4795 H4787 0.930 . S
C4795 C4796 1.355 . S
C4795 C4797 1.415 . S
C4796 C4795 1.355 . S
C4796 C4798 1.419 . S
C4797 C4792 1.425 . S
C4797 C4794 1.409 . S
C4797 C4795 1.415 . S
C4798 H4788 0.930 . S
C4798 C4796 1.419 . S
C4798 C4799 1.362 . S
C4799 H4789 0.930 . S
C4799 C4792 1.409 . S
C4799 C4798 1.362 . S
H4800 C4806 0.930 . S
H4801 C4809 0.930 . S
H4802 C4810 0.930 . S
H4803 C4811 0.930 . S
H4804 C4814 0.930 . S
H4805 C4815 0.930 . S
C4806 H4800 0.930 . S
C4806 C4807 1.355 . S
C4806 C4808 1.415 . S
C4807 C4806 1.355 . S
C4807 C4809 1.419 . S
C4808 C4806 1.415 . S
C4808 C4813 1.425 . S
C4808 C4815 1.409 . S
C4809 H4801 0.930 . S
C4809 C4807 1.419 . S
C4809 C4810 1.362 . S
C4810 H4802 0.930 . S
C4810 C4809 1.362 . S
C4810 C4813 1.409 . S
C4811 H4803 0.930 . S
C4811 C4812 1.355 . S
C4811 C4813 1.415 . S
C4812 C4811 1.355 . S
C4812 C4814 1.419 . S
C4813 C4808 1.425 . S
C4813 C4810 1.409 . S
C4813 C4811 1.415 . S
C4814 H4804 0.930 . S
C4814 C4812 1.419 . S
C4814 C4815 1.362 . S
C4815 H4805 0.930 . S
C4815 C4808 1.409 . S
C4815 C4814 1.362 . S
H4816 C4822 0.930 . S
H4817 C4825 0.930 . S
H4818 C4826 0.930 . S
H4819 C4827 0.930 . S
H4820 C4830 0.930 . S
H4821 C4831 0.930 . S
C4822 H4816 0.930 . S
C4822 C4823 1.355 . S
C4822 C4824 1.415 . S
C4823 C4822 1.355 . S
C4823 C4825 1.419 . S
C4824 C4822 1.415 . S
C4824 C4829 1.425 . S
C4824 C4831 1.409 . S
C4825 H4817 0.930 . S
C4825 C4823 1.419 . S
C4825 C4826 1.362 . S
C4826 H4818 0.930 . S
C4826 C4825 1.362 . S
C4826 C4829 1.409 . S
C4827 H4819 0.930 . S
C4827 C4828 1.355 . S
C4827 C4829 1.415 . S
C4828 C4827 1.355 . S
C4828 C4830 1.419 . S
C4829 C4824 1.425 . S
C4829 C4826 1.409 . S
C4829 C4827 1.415 . S
C4830 H4820 0.930 . S
C4830 C4828 1.419 . S
C4830 C4831 1.362 . S
C4831 H4821 0.930 . S
C4831 C4824 1.409 . S
C4831 C4830 1.362 . S
H4832 C4838 0.930 . S
H4833 C4841 0.930 . S
H4834 C4842 0.930 . S
H4835 C4843 0.930 . S
H4836 C4846 0.930 . S
H4837 C4847 0.930 . S
C4838 H4832 0.930 . S
C4838 C4839 1.355 . S
C4838 C4840 1.415 . S
C4839 C4838 1.355 . S
C4839 C4841 1.419 . S
C4840 C4838 1.415 . S
C4840 C4845 1.425 . S
C4840 C4847 1.409 . S
C4841 H4833 0.930 . S
C4841 C4839 1.419 . S
C4841 C4842 1.362 . S
C4842 H4834 0.930 . S
C4842 C4841 1.362 . S
C4842 C4845 1.409 . S
C4843 H4835 0.930 . S
C4843 C4844 1.355 . S
C4843 C4845 1.415 . S
C4844 C4843 1.355 . S
C4844 C4846 1.419 . S
C4845 C4840 1.425 . S
C4845 C4842 1.409 . S
C4845 C4843 1.415 . S
C4846 H4836 0.930 . S
C4846 C4844 1.419 . S
C4846 C4847 1.362 . S
C4847 H4837 0.930 . S
C4847 C4840 1.409 . S
C4847 C4846 1.362 . S
H4848 C4854 0.930 . S
H4849 C4857 0.930 . S
H4850 C4858 0.930 . S
H4851 C4859 0.930 . S
H4852 C4862 0.930 . S
H4853 C4863 0.930 . S
C4854 H4848 0.930 . S
C4854 C4855 1.355 . S
C4854 C4856 1.415 . S
C4855 C4854 1.355 . S
C4855 C4857 1.419 . S
C4856 C4854 1.415 . S
C4856 C4861 1.425 . S
C4856 C4863 1.409 . S
C4857 H4849 0.930 . S
C4857 C4855 1.419 . S
C4857 C4858 1.362 . S
C4858 H4850 0.930 . S
C4858 C4857 1.362 . S
C4858 C4861 1.409 . S
C4859 H4851 0.930 . S
C4859 C4860 1.355 . S
C4859 C4861 1.415 . S
C4860 C4859 1.355 . S
C4860 C4862 1.419 . S
C4861 C4856 1.425 . S
C4861 C4858 1.409 . S
C4861 C4859 1.415 . S
C4862 H4852 0.930 . S
C4862 C4860 1.419 . S
C4862 C4863 1.362 . S
C4863 H4853 0.930 . S
C4863 C4856 1.409 . S
C4863 C4862 1.362 . S
H4864 C4870 0.930 . S
H4865 C4873 0.930 . S
H4866 C4874 0.930 . S
H4867 C4875 0.930 . S
H4868 C4878 0.930 . S
H4869 C4879 0.930 . S
C4870 H4864 0.930 . S
C4870 C4871 1.355 . S
C4870 C4872 1.415 . S
C4871 C4870 1.355 . S
C4871 C4873 1.419 . S
C4872 C4870 1.415 . S
C4872 C4877 1.425 . S
C4872 C4879 1.409 . S
C4873 H4865 0.930 . S
C4873 C4871 1.419 . S
C4873 C4874 1.362 . S
C4874 H4866 0.930 . S
C4874 C4873 1.362 . S
C4874 C4877 1.409 . S
C4875 H4867 0.930 . S
C4875 C4876 1.355 . S
C4875 C4877 1.415 . S
C4876 C4875 1.355 . S
C4876 C4878 1.419 . S
C4877 C4872 1.425 . S
C4877 C4874 1.409 . S
C4877 C4875 1.415 . S
C4878 H4868 0.930 . S
C4878 C4876 1.419 . S
C4878 C4879 1.362 . S
C4879 H4869 0.930 . S
C4879 C4872 1.409 . S
C4879 C4878 1.362 . S
H4880 C4886 0.930 . S
H4881 C4889 0.930 . S
H4882 C4890 0.930 . S
H4883 C4891 0.930 . S
H4884 C4894 0.930 . S
H4885 C4895 0.930 . S
C4886 H4880 0.930 . S
C4886 C4887 1.355 . S
C4886 C4888 1.415 . S
C4887 C4886 1.355 . S
C4887 C4889 1.419 . S
C4888 C4886 1.415 . S
C4888 C4893 1.425 . S
C4888 C4895 1.409 . S
C4889 H4881 0.930 . S
C4889 C4887 1.419 . S
C4889 C4890 1.362 . S
C4890 H4882 0.930 . S
C4890 C4889 1.362 . S
C4890 C4893 1.409 . S
C4891 H4883 0.930 . S
C4891 C4892 1.355 . S
C4891 C4893 1.415 . S
C4892 C4891 1.355 . S
C4892 C4894 1.419 . S
C4893 C4888 1.425 . S
C4893 C4890 1.409 . S
C4893 C4891 1.415 . S
C4894 H4884 0.930 . S
C4894 C4892 1.419 . S
C4894 C4895 1.362 . S
C4895 H4885 0.930 . S
C4895 C4888 1.409 . S
C4895 C4894 1.362 . S
H4896 C4902 0.930 . S
H4897 C4905 0.930 . S
H4898 C4906 0.930 . S
H4899 C4907 0.930 . S
H4900 C4910 0.930 . S
H4901 C4911 0.930 . S
C4902 H4896 0.930 . S
C4902 C4903 1.355 . S
C4902 C4904 1.415 . S
C4903 C4902 1.355 . S
C4903 C4905 1.419 . S
C4904 C4902 1.415 . S
C4904 C4909 1.425 . S
C4904 C4911 1.409 . S
C4905 H4897 0.930 . S
C4905 C4903 1.419 . S
C4905 C4906 1.362 . S
C4906 H4898 0.930 . S
C4906 C4905 1.362 . S
C4906 C4909 1.409 . S
C4907 H4899 0.930 . S
C4907 C4908 1.355 . S
C4907 C4909 1.415 . S
C4908 C4907 1.355 . S
C4908 C4910 1.419 . S
C4909 C4904 1.425 . S
C4909 C4906 1.409 . S
C4909 C4907 1.415 . S
C4910 H4900 0.930 . S
C4910 C4908 1.419 . S
C4910 C4911 1.362 . S
C4911 H4901 0.930 . S
C4911 C4904 1.409 . S
C4911 C4910 1.362 . S
H4912 C4918 0.930 . S
H4913 C4921 0.930 . S
H4914 C4922 0.930 . S
H4915 C4923 0.930 . S
H4916 C4926 0.930 . S
H4917 C4927 0.930 . S
C4918 H4912 0.930 . S
C4918 C4919 1.355 . S
C4918 C4920 1.415 . S
C4919 C4918 1.355 . S
C4919 C4921 1.419 . S
C4920 C4918 1.415 . S
C4920 C4925 1.425 . S
C4920 C4927 1.409 . S
C4921 H4913 0.930 . S
C4921 C4919 1.419 . S
C4921 C4922 1.362 . S
C4922 H4914 0.930 . S
C4922 C4921 1.362 . S
C4922 C4925 1.409 . S
C4923 H4915 0.930 . S
C4923 C4924 1.355 . S
C4923 C4925 1.415 . S
C4924 C4923 1.355 . S
C4924 C4926 1.419 . S
C4925 C4920 1.425 . S
C4925 C4922 1.409 . S
C4925 C4923 1.415 . S
C4926 H4916 0.930 . S
C4926 C4924 1.419 . S
C4926 C4927 1.362 . S
C4927 H4917 0.930 . S
C4927 C4920 1.409 . S
C4927 C4926 1.362 . S
H4928 C4934 0.930 . S
H4929 C4937 0.930 . S
H4930 C4938 0.930 . S
H4931 C4939 0.930 . S
H4932 C4942 0.930 . S
H4933 C4943 0.930 . S
C4934 H4928 0.930 . S
C4934 C4935 1.355 . S
C4934 C4936 1.415 . S
C4935 C4934 1.355 . S
C4935 C4937 1.419 . S
C4936 C4934 1.415 . S
C4936 C4941 1.425 . S
C4936 C4943 1.409 . S
C4937 H4929 0.930 . S
C4937 C4935 1.419 . S
C4937 C4938 1.362 . S
C4938 H4930 0.930 . S
C4938 C4937 1.362 . S
C4938 C4941 1.409 . S
C4939 H4931 0.930 . S
C4939 C4940 1.355 . S
C4939 C4941 1.415 . S
C4940 C4939 1.355 . S
C4940 C4942 1.419 . S
C4941 C4936 1.425 . S
C4941 C4938 1.409 . S
C4941 C4939 1.415 . S
C4942 H4932 0.930 . S
C4942 C4940 1.419 . S
C4942 C4943 1.362 . S
C4943 H4933 0.930 . S
C4943 C4936 1.409 . S
C4943 C4942 1.362 . S
H4944 C4950 0.930 . S
H4945 C4953 0.930 . S
H4946 C4954 0.930 . S
H4947 C4955 0.930 . S
H4948 C4958 0.930 . S
H4949 C4959 0.930 . S
C4950 H4944 0.930 . S
C4950 C4951 1.355 . S
C4950 C4952 1.415 . S
C4951 C4950 1.355 . S
C4951 C4953 1.419 . S
C4952 C4950 1.415 . S
C4952 C4957 1.425 . S
C4952 C4959 1.409 . S
C4953 H4945 0.930 . S
C4953 C4951 1.419 . S
C4953 C4954 1.362 . S
C4954 H4946 0.930 . S
C4954 C4953 1.362 . S
C4954 C4957 1.409 . S
C4955 H4947 0.930 . S
C4955 C4956 1.355 . S
C4955 C4957 1.415 . S
C4956 C4955 1.355 . S
C4956 C4958 1.419 . S
C4957 C4952 1.425 . S
C4957 C4954 1.409 . S
C4957 C4955 1.415 . S
C4958 H4948 0.930 . S
C4958 C4956 1.419 . S
C4958 C4959 1.362 . S
C4959 H4949 0.930 . S
C4959 C4952 1.409 . S
C4959 C4958 1.362 . S
H4960 C4966 0.930 . S
H4961 C4969 0.930 . S
H4962 C4970 0.930 . S
H4963 C4971 0.930 . S
H4964 C4974 0.930 . S
H4965 C4975 0.930 . S
C4966 H4960 0.930 . S
C4966 C4967 1.355 . S
C4966 C4968 1.415 . S
C4967 C4966 1.355 . S
C4967 C4969 1.419 . S
C4968 C4966 1.415 . S
C4968 C4973 1.425 . S
C4968 C4975 1.409 . S
C4969 H4961 0.930 . S
C4969 C4967 1.419 . S
C4969 C4970 1.362 . S
C4970 H4962 0.930 . S
C4970 C4969 1.362 . S
C4970 C4973 1.409 . S
C4971 H4963 0.930 . S
C4971 C4972 1.355 . S
C4971 C4973 1.415 . S
C4972 C4971 1.355 . S
C4972 C4974 1.419 . S
C4973 C4968 1.425 . S
C4973 C4970 1.409 . S
C4973 C4971 1.415 . S
C4974 H4964 0.930 . S
C4974 C4972 1.419 . S
C4974 C4975 1.362 . S
C4975 H4965 0.930 . S
C4975 C4968 1.409 . S
C4975 C4974 1.362 . S
H4976 C4982 0.930 . S
H4977 C4985 0.930 . S
H4978 C4986 0.930 . S
H4979 C4987 0.930 . S
H4980 C4990 0.930 . S
H4981 C4991 0.930 . S
C4982 H4976 0.930 . S
C4982 C4983 1.355 . S
C4982 C4984 1.415 . S
C4983 C4982 1.355 . S
C4983 C4985 1.419 . S
C4984 C4982 1.415 . S
C4984 C4989 1.425 . S
C4984 C4991 1.409 . S
C4985 H4977 0.930 . S
C4985 C4983 1.419 . S
C4985 C4986 1.362 . S
C4986 H4978 0.930 . S
C4986 C4985 1.362 . S
C4986 C4989 1.409 . S
C4987 H4979 0.930 . S
C4987 C4988 1.355 . S
C4987 C4989 1.415 . S
C4988 C4987 1.355 . S
C4988 C4990 1.419 . S
C4989 C4984 1.425 . S
C4989 C4986 1.409 . S
C4989 C4987 1.415 . S
C4990 H4980 0.930 . S
C4990 C4988 1.419 . S
C4990 C4991 1.362 . S
C4991 H4981 0.930 . S
C4991 C4984 1.409 . S
C4991 C4990 1.362 . S
H4992 C4998 0.930 . S
H4993 C5001 0.930 . S
H4994 C5002 0.930 . S
H4995 C5003 0.930 . S
H4996 C5006 0.930 . S
H4997 C5007 0.930 . S
C4998 H4992 0.930 . S
C4998 C4999 1.355 . S
C4998 C5000 1.415 . S
C4999 C4998 1.355 . S
C4999 C5001 1.419 . S
C5000 C4998 1.415 . S
C5000 C5005 1.425 . S
C5000 C5007 1.409 . S
C5001 H4993 0.930 . S
C5001 C4999 1.419 . S
C5001 C5002 1.362 . S
C5002 H4994 0.930 . S
C5002 C5001 1.362 . S
C5002 C5005 1.409 . S
C5003 H4995 0.930 . S
C5003 C5004 1.355 . S
C5003 C5005 1.415 . S
C5004 C5003 1.355 . S
C5004 C5006 1.419 . S
C5005 C5000 1.425 . S
C5005 C5002 1.409 . S
C5005 C5003 1.415 . S
C5006 H4996 0.930 . S
C5006 C5004 1.419 . S
C5006 C5007 1.362 . S
C5007 H4997 0.930 . S
C5007 C5000 1.409 . S
C5007 C5006 1.362 . S
H5008 C5014 0.930 . S
H5009 C5017 0.930 . S
H5010 C5018 0.930 . S
H5011 C5019 0.930 . S
H5012 C5022 0.930 . S
H5013 C5023 0.930 . S
C5014 H5008 0.930 . S
C5014 C5015 1.355 . S
C5014 C5016 1.415 . S
C5015 C5014 1.355 . S
C5015 C5017 1.419 . S
C5016 C5014 1.415 . S
C5016 C5021 1.425 . S
C5016 C5023 1.409 . S
C5017 H5009 0.930 . S
C5017 C5015 1.419 . S
C5017 C5018 1.362 . S
C5018 H5010 0.930 . S
C5018 C5017 1.362 . S
C5018 C5021 1.409 . S
C5019 H5011 0.930 . S
C5019 C5020 1.355 . S
C5019 C5021 1.415 . S
C5020 C5019 1.355 . S
C5020 C5022 1.419 . S
C5021 C5016 1.425 . S
C5021 C5018 1.409 . S
C5021 C5019 1.415 . S
C5022 H5012 0.930 . S
C5022 C5020 1.419 . S
C5022 C5023 1.362 . S
C5023 H5013 0.930 . S
C5023 C5016 1.409 . S
C5023 C5022 1.362 . S
H5024 C5030 0.930 . S
H5025 C5033 0.930 . S
H5026 C5034 0.930 . S
H5027 C5035 0.930 . S
H5028 C5038 0.930 . S
H5029 C5039 0.930 . S
C5030 H5024 0.930 . S
C5030 C5031 1.355 . S
C5030 C5032 1.415 . S
C5031 C5030 1.355 . S
C5031 C5033 1.419 . S
C5032 C5030 1.415 . S
C5032 C5037 1.425 . S
C5032 C5039 1.409 . S
C5033 H5025 0.930 . S
C5033 C5031 1.419 . S
C5033 C5034 1.362 . S
C5034 H5026 0.930 . S
C5034 C5033 1.362 . S
C5034 C5037 1.409 . S
C5035 H5027 0.930 . S
C5035 C5036 1.355 . S
C5035 C5037 1.415 . S
C5036 C5035 1.355 . S
C5036 C5038 1.419 . S
C5037 C5032 1.425 . S
C5037 C5034 1.409 . S
C5037 C5035 1.415 . S
C5038 H5028 0.930 . S
C5038 C5036 1.419 . S
C5038 C5039 1.362 . S
C5039 H5029 0.930 . S
C5039 C5032 1.409 . S
C5039 C5038 1.362 . S
H5040 C5046 0.930 . S
H5041 C5049 0.930 . S
H5042 C5050 0.930 . S
H5043 C5051 0.930 . S
H5044 C5054 0.930 . S
H5045 C5055 0.930 . S
C5046 H5040 0.930 . S
C5046 C5047 1.355 . S
C5046 C5048 1.415 . S
C5047 C5046 1.355 . S
C5047 C5049 1.419 . S
C5048 C5046 1.415 . S
C5048 C5053 1.425 . S
C5048 C5055 1.409 . S
C5049 H5041 0.930 . S
C5049 C5047 1.419 . S
C5049 C5050 1.362 . S
C5050 H5042 0.930 . S
C5050 C5049 1.362 . S
C5050 C5053 1.409 . S
C5051 H5043 0.930 . S
C5051 C5052 1.355 . S
C5051 C5053 1.415 . S
C5052 C5051 1.355 . S
C5052 C5054 1.419 . S
C5053 C5048 1.425 . S
C5053 C5050 1.409 . S
C5053 C5051 1.415 . S
C5054 H5044 0.930 . S
C5054 C5052 1.419 . S
C5054 C5055 1.362 . S
C5055 H5045 0.930 . S
C5055 C5048 1.409 . S
C5055 C5054 1.362 . S
H5056 C5062 0.930 . S
H5057 C5065 0.930 . S
H5058 C5066 0.930 . S
H5059 C5067 0.930 . S
H5060 C5070 0.930 . S
H5061 C5071 0.930 . S
C5062 H5056 0.930 . S
C5062 C5063 1.355 . S
C5062 C5064 1.415 . S
C5063 C5062 1.355 . S
C5063 C5065 1.419 . S
C5064 C5062 1.415 . S
C5064 C5069 1.425 . S
C5064 C5071 1.409 . S
C5065 H5057 0.930 . S
C5065 C5063 1.419 . S
C5065 C5066 1.362 . S
C5066 H5058 0.930 . S
C5066 C5065 1.362 . S
C5066 C5069 1.409 . S
C5067 H5059 0.930 . S
C5067 C5068 1.355 . S
C5067 C5069 1.415 . S
C5068 C5067 1.355 . S
C5068 C5070 1.419 . S
C5069 C5064 1.425 . S
C5069 C5066 1.409 . S
C5069 C5067 1.415 . S
C5070 H5060 0.930 . S
C5070 C5068 1.419 . S
C5070 C5071 1.362 . S
C5071 H5061 0.930 . S
C5071 C5064 1.409 . S
C5071 C5070 1.362 . S
H5072 C5078 0.930 . S
H5073 C5081 0.930 . S
H5074 C5082 0.930 . S
H5075 C5083 0.930 . S
H5076 C5086 0.930 . S
H5077 C5087 0.930 . S
C5078 H5072 0.930 . S
C5078 C5079 1.355 . S
C5078 C5080 1.415 . S
C5079 C5078 1.355 . S
C5079 C5081 1.419 . S
C5080 C5078 1.415 . S
C5080 C5085 1.425 . S
C5080 C5087 1.409 . S
C5081 H5073 0.930 . S
C5081 C5079 1.419 . S
C5081 C5082 1.362 . S
C5082 H5074 0.930 . S
C5082 C5081 1.362 . S
C5082 C5085 1.409 . S
C5083 H5075 0.930 . S
C5083 C5084 1.355 . S
C5083 C5085 1.415 . S
C5084 C5083 1.355 . S
C5084 C5086 1.419 . S
C5085 C5080 1.425 . S
C5085 C5082 1.409 . S
C5085 C5083 1.415 . S
C5086 H5076 0.930 . S
C5086 C5084 1.419 . S
C5086 C5087 1.362 . S
C5087 H5077 0.930 . S
C5087 C5080 1.409 . S
C5087 C5086 1.362 . S
H5088 C5094 0.930 . S
H5089 C5097 0.930 . S
H5090 C5098 0.930 . S
H5091 C5099 0.930 . S
H5092 C5102 0.930 . S
H5093 C5103 0.930 . S
C5094 H5088 0.930 . S
C5094 C5095 1.355 . S
C5094 C5096 1.415 . S
C5095 C5094 1.355 . S
C5095 C5097 1.419 . S
C5096 C5094 1.415 . S
C5096 C5101 1.425 . S
C5096 C5103 1.409 . S
C5097 H5089 0.930 . S
C5097 C5095 1.419 . S
C5097 C5098 1.362 . S
C5098 H5090 0.930 . S
C5098 C5097 1.362 . S
C5098 C5101 1.409 . S
C5099 H5091 0.930 . S
C5099 C5100 1.355 . S
C5099 C5101 1.415 . S
C5100 C5099 1.355 . S
C5100 C5102 1.419 . S
C5101 C5096 1.425 . S
C5101 C5098 1.409 . S
C5101 C5099 1.415 . S
C5102 H5092 0.930 . S
C5102 C5100 1.419 . S
C5102 C5103 1.362 . S
C5103 H5093 0.930 . S
C5103 C5096 1.409 . S
C5103 C5102 1.362 . S
H5104 C5110 0.930 . S
H5105 C5113 0.930 . S
H5106 C5114 0.930 . S
H5107 C5115 0.930 . S
H5108 C5118 0.930 . S
H5109 C5119 0.930 . S
C5110 H5104 0.930 . S
C5110 C5111 1.355 . S
C5110 C5112 1.415 . S
C5111 C5110 1.355 . S
C5111 C5113 1.419 . S
C5112 C5110 1.415 . S
C5112 C5117 1.425 . S
C5112 C5119 1.409 . S
C5113 H5105 0.930 . S
C5113 C5111 1.419 . S
C5113 C5114 1.362 . S
C5114 H5106 0.930 . S
C5114 C5113 1.362 . S
C5114 C5117 1.409 . S
C5115 H5107 0.930 . S
C5115 C5116 1.355 . S
C5115 C5117 1.415 . S
C5116 C5115 1.355 . S
C5116 C5118 1.419 . S
C5117 C5112 1.425 . S
C5117 C5114 1.409 . S
C5117 C5115 1.415 . S
C5118 H5108 0.930 . S
C5118 C5116 1.419 . S
C5118 C5119 1.362 . S
C5119 H5109 0.930 . S
C5119 C5112 1.409 . S
C5119 C5118 1.362 . S
H5120 C5126 0.930 . S
H5121 C5129 0.930 . S
H5122 C5130 0.930 . S
H5123 C5131 0.930 . S
H5124 C5134 0.930 . S
H5125 C5135 0.930 . S
C5126 H5120 0.930 . S
C5126 C5127 1.355 . S
C5126 C5128 1.415 . S
C5127 C5126 1.355 . S
C5127 C5129 1.419 . S
C5128 C5126 1.415 . S
C5128 C5133 1.425 . S
C5128 C5135 1.409 . S
C5129 H5121 0.930 . S
C5129 C5127 1.419 . S
C5129 C5130 1.362 . S
C5130 H5122 0.930 . S
C5130 C5129 1.362 . S
C5130 C5133 1.409 . S
C5131 H5123 0.930 . S
C5131 C5132 1.355 . S
C5131 C5133 1.415 . S
C5132 C5131 1.355 . S
C5132 C5134 1.419 . S
C5133 C5128 1.425 . S
C5133 C5130 1.409 . S
C5133 C5131 1.415 . S
C5134 H5124 0.930 . S
C5134 C5132 1.419 . S
C5134 C5135 1.362 . S
C5135 H5125 0.930 . S
C5135 C5128 1.409 . S
C5135 C5134 1.362 . S
H5136 C5142 0.930 . S
H5137 C5145 0.930 . S
H5138 C5146 0.930 . S
H5139 C5147 0.930 . S
H5140 C5150 0.930 . S
H5141 C5151 0.930 . S
C5142 H5136 0.930 . S
C5142 C5143 1.355 . S
C5142 C5144 1.415 . S
C5143 C5142 1.355 . S
C5143 C5145 1.419 . S
C5144 C5142 1.415 . S
C5144 C5149 1.425 . S
C5144 C5151 1.409 . S
C5145 H5137 0.930 . S
C5145 C5143 1.419 . S
C5145 C5146 1.362 . S
C5146 H5138 0.930 . S
C5146 C5145 1.362 . S
C5146 C5149 1.409 . S
C5147 H5139 0.930 . S
C5147 C5148 1.355 . S
C5147 C5149 1.415 . S
C5148 C5147 1.355 . S
C5148 C5150 1.419 . S
C5149 C5144 1.425 . S
C5149 C5146 1.409 . S
C5149 C5147 1.415 . S
C5150 H5140 0.930 . S
C5150 C5148 1.419 . S
C5150 C5151 1.362 . S
C5151 H5141 0.930 . S
C5151 C5144 1.409 . S
C5151 C5150 1.362 . S
H5152 C5158 0.930 . S
H5153 C5161 0.930 . S
H5154 C5162 0.930 . S
H5155 C5163 0.930 . S
H5156 C5166 0.930 . S
H5157 C5167 0.930 . S
C5158 H5152 0.930 . S
C5158 C5159 1.355 . S
C5158 C5160 1.415 . S
C5159 C5158 1.355 . S
C5159 C5161 1.419 . S
C5160 C5158 1.415 . S
C5160 C5165 1.425 . S
C5160 C5167 1.409 . S
C5161 H5153 0.930 . S
C5161 C5159 1.419 . S
C5161 C5162 1.362 . S
C5162 H5154 0.930 . S
C5162 C5161 1.362 . S
C5162 C5165 1.409 . S
C5163 H5155 0.930 . S
C5163 C5164 1.355 . S
C5163 C5165 1.415 . S
C5164 C5163 1.355 . S
C5164 C5166 1.419 . S
C5165 C5160 1.425 . S
C5165 C5162 1.409 . S
C5165 C5163 1.415 . S
C5166 H5156 0.930 . S
C5166 C5164 1.419 . S
C5166 C5167 1.362 . S
C5167 H5157 0.930 . S
C5167 C5160 1.409 . S
C5167 C5166 1.362 . S
H5168 C5174 0.930 . S
H5169 C5177 0.930 . S
H5170 C5178 0.930 . S
H5171 C5179 0.930 . S
H5172 C5182 0.930 . S
H5173 C5183 0.930 . S
C5174 H5168 0.930 . S
C5174 C5175 1.355 . S
C5174 C5176 1.415 . S
C5175 C5174 1.355 . S
C5175 C5177 1.419 . S
C5176 C5174 1.415 . S
C5176 C5181 1.425 . S
C5176 C5183 1.409 . S
C5177 H5169 0.930 . S
C5177 C5175 1.419 . S
C5177 C5178 1.362 . S
C5178 H5170 0.930 . S
C5178 C5177 1.362 . S
C5178 C5181 1.409 . S
C5179 H5171 0.930 . S
C5179 C5180 1.355 . S
C5179 C5181 1.415 . S
C5180 C5179 1.355 . S
C5180 C5182 1.419 . S
C5181 C5176 1.425 . S
C5181 C5178 1.409 . S
C5181 C5179 1.415 . S
C5182 H5172 0.930 . S
C5182 C5180 1.419 . S
C5182 C5183 1.362 . S
C5183 H5173 0.930 . S
C5183 C5176 1.409 . S
C5183 C5182 1.362 . S
H5184 C5190 0.930 . S
H5185 C5193 0.930 . S
H5186 C5194 0.930 . S
H5187 C5195 0.930 . S
H5188 C5198 0.930 . S
H5189 C5199 0.930 . S
C5190 H5184 0.930 . S
C5190 C5191 1.355 . S
C5190 C5192 1.415 . S
C5191 C5190 1.355 . S
C5191 C5193 1.419 . S
C5192 C5190 1.415 . S
C5192 C5197 1.425 . S
C5192 C5199 1.409 . S
C5193 H5185 0.930 . S
C5193 C5191 1.419 . S
C5193 C5194 1.362 . S
C5194 H5186 0.930 . S
C5194 C5193 1.362 . S
C5194 C5197 1.409 . S
C5195 H5187 0.930 . S
C5195 C5196 1.355 . S
C5195 C5197 1.415 . S
C5196 C5195 1.355 . S
C5196 C5198 1.419 . S
C5197 C5192 1.425 . S
C5197 C5194 1.409 . S
C5197 C5195 1.415 . S
C5198 H5188 0.930 . S
C5198 C5196 1.419 . S
C5198 C5199 1.362 . S
C5199 H5189 0.930 . S
C5199 C5192 1.409 . S
C5199 C5198 1.362 . S
H5200 C5206 0.930 . S
H5201 C5209 0.930 . S
H5202 C5210 0.930 . S
H5203 C5211 0.930 . S
H5204 C5214 0.930 . S
H5205 C5215 0.930 . S
C5206 H5200 0.930 . S
C5206 C5207 1.355 . S
C5206 C5208 1.415 . S
C5207 C5206 1.355 . S
C5207 C5209 1.419 . S
C5208 C5206 1.415 . S
C5208 C5213 1.425 . S
C5208 C5215 1.409 . S
C5209 H5201 0.930 . S
C5209 C5207 1.419 . S
C5209 C5210 1.362 . S
C5210 H5202 0.930 . S
C5210 C5209 1.362 . S
C5210 C5213 1.409 . S
C5211 H5203 0.930 . S
C5211 C5212 1.355 . S
C5211 C5213 1.415 . S
C5212 C5211 1.355 . S
C5212 C5214 1.419 . S
C5213 C5208 1.425 . S
C5213 C5210 1.409 . S
C5213 C5211 1.415 . S
C5214 H5204 0.930 . S
C5214 C5212 1.419 . S
C5214 C5215 1.362 . S
C5215 H5205 0.930 . S
C5215 C5208 1.409 . S
C5215 C5214 1.362 . S
H5216 C5222 0.930 . S
H5217 C5225 0.930 . S
H5218 C5226 0.930 . S
H5219 C5227 0.930 . S
H5220 C5230 0.930 . S
H5221 C5231 0.930 . S
C5222 H5216 0.930 . S
C5222 C5223 1.355 . S
C5222 C5224 1.415 . S
C5223 C5222 1.355 . S
C5223 C5225 1.419 . S
C5224 C5222 1.415 . S
C5224 C5229 1.425 . S
C5224 C5231 1.409 . S
C5225 H5217 0.930 . S
C5225 C5223 1.419 . S
C5225 C5226 1.362 . S
C5226 H5218 0.930 . S
C5226 C5225 1.362 . S
C5226 C5229 1.409 . S
C5227 H5219 0.930 . S
C5227 C5228 1.355 . S
C5227 C5229 1.415 . S
C5228 C5227 1.355 . S
C5228 C5230 1.419 . S
C5229 C5224 1.425 . S
C5229 C5226 1.409 . S
C5229 C5227 1.415 . S
C5230 H5220 0.930 . S
C5230 C5228 1.419 . S
C5230 C5231 1.362 . S
C5231 H5221 0.930 . S
C5231 C5224 1.409 . S
C5231 C5230 1.362 . S
H5232 C5238 0.930 . S
H5233 C5241 0.930 . S
H5234 C5242 0.930 . S
H5235 C5243 0.930 . S
H5236 C5246 0.930 . S
H5237 C5247 0.930 . S
C5238 H5232 0.930 . S
C5238 C5239 1.355 . S
C5238 C5240 1.415 . S
C5239 C5238 1.355 . S
C5239 C5241 1.419 . S
C5240 C5238 1.415 . S
C5240 C5245 1.425 . S
C5240 C5247 1.409 . S
C5241 H5233 0.930 . S
C5241 C5239 1.419 . S
C5241 C5242 1.362 . S
C5242 H5234 0.930 . S
C5242 C5241 1.362 . S
C5242 C5245 1.409 . S
C5243 H5235 0.930 . S
C5243 C5244 1.355 . S
C5243 C5245 1.415 . S
C5244 C5243 1.355 . S
C5244 C5246 1.419 . S
C5245 C5240 1.425 . S
C5245 C5242 1.409 . S
C5245 C5243 1.415 . S
C5246 H5236 0.930 . S
C5246 C5244 1.419 . S
C5246 C5247 1.362 . S
C5247 H5237 0.930 . S
C5247 C5240 1.409 . S
C5247 C5246 1.362 . S
H5248 C5254 0.930 . S
H5249 C5257 0.930 . S
H5250 C5258 0.930 . S
H5251 C5259 0.930 . S
H5252 C5262 0.930 . S
H5253 C5263 0.930 . S
C5254 H5248 0.930 . S
C5254 C5255 1.355 . S
C5254 C5256 1.415 . S
C5255 C5254 1.355 . S
C5255 C5257 1.419 . S
C5256 C5254 1.415 . S
C5256 C5261 1.425 . S
C5256 C5263 1.409 . S
C5257 H5249 0.930 . S
C5257 C5255 1.419 . S
C5257 C5258 1.362 . S
C5258 H5250 0.930 . S
C5258 C5257 1.362 . S
C5258 C5261 1.409 . S
C5259 H5251 0.930 . S
C5259 C5260 1.355 . S
C5259 C5261 1.415 . S
C5260 C5259 1.355 . S
C5260 C5262 1.419 . S
C5261 C5256 1.425 . S
C5261 C5258 1.409 . S
C5261 C5259 1.415 . S
C5262 H5252 0.930 . S
C5262 C5260 1.419 . S
C5262 C5263 1.362 . S
C5263 H5253 0.930 . S
C5263 C5256 1.409 . S
C5263 C5262 1.362 . S
H5264 C5270 0.930 . S
H5265 C5273 0.930 . S
H5266 C5274 0.930 . S
H5267 C5275 0.930 . S
H5268 C5278 0.930 . S
H5269 C5279 0.930 . S
C5270 H5264 0.930 . S
C5270 C5271 1.355 . S
C5270 C5272 1.415 . S
C5271 C5270 1.355 . S
C5271 C5273 1.419 . S
C5272 C5270 1.415 . S
C5272 C5277 1.425 . S
C5272 C5279 1.409 . S
C5273 H5265 0.930 . S
C5273 C5271 1.419 . S
C5273 C5274 1.362 . S
C5274 H5266 0.930 . S
C5274 C5273 1.362 . S
C5274 C5277 1.409 . S
C5275 H5267 0.930 . S
C5275 C5276 1.355 . S
C5275 C5277 1.415 . S
C5276 C5275 1.355 . S
C5276 C5278 1.419 . S
C5277 C5272 1.425 . S
C5277 C5274 1.409 . S
C5277 C5275 1.415 . S
C5278 H5268 0.930 . S
C5278 C5276 1.419 . S
C5278 C5279 1.362 . S
C5279 H5269 0.930 . S
C5279 C5272 1.409 . S
C5279 C5278 1.362 . S
H5280 C5286 0.930 . S
H5281 C5289 0.930 . S
H5282 C5290 0.930 . S
H5283 C5291 0.930 . S
H5284 C5294 0.930 . S
H5285 C5295 0.930 . S
C5286 H5280 0.930 . S
C5286 C5287 1.355 . S
C5286 C5288 1.415 . S
C5287 C5286 1.355 . S
C5287 C5289 1.419 . S
C5288 C5286 1.415 . S
C5288 C5293 1.425 . S
C5288 C5295 1.409 . S
C5289 H5281 0.930 . S
C5289 C5287 1.419 . S
C5289 C5290 1.362 . S
C5290 H5282 0.930 . S
C5290 C5289 1.362 . S
C5290 C5293 1.409 . S
C5291 H5283 0.930 . S
C5291 C5292 1.355 . S
C5291 C5293 1.415 . S
C5292 C5291 1.355 . S
C5292 C5294 1.419 . S
C5293 C5288 1.425 . S
C5293 C5290 1.409 . S
C5293 C5291 1.415 . S
C5294 H5284 0.930 . S
C5294 C5292 1.419 . S
C5294 C5295 1.362 . S
C5295 H5285 0.930 . S
C5295 C5288 1.409 . S
C5295 C5294 1.362 . S
H5296 C5302 0.930 . S
H5297 C5305 0.930 . S
H5298 C5306 0.930 . S
H5299 C5307 0.930 . S
H5300 C5310 0.930 . S
H5301 C5311 0.930 . S
C5302 H5296 0.930 . S
C5302 C5303 1.355 . S
C5302 C5304 1.415 . S
C5303 C5302 1.355 . S
C5303 C5305 1.419 . S
C5304 C5302 1.415 . S
C5304 C5309 1.425 . S
C5304 C5311 1.409 . S
C5305 H5297 0.930 . S
C5305 C5303 1.419 . S
C5305 C5306 1.362 . S
C5306 H5298 0.930 . S
C5306 C5305 1.362 . S
C5306 C5309 1.409 . S
C5307 H5299 0.930 . S
C5307 C5308 1.355 . S
C5307 C5309 1.415 . S
C5308 C5307 1.355 . S
C5308 C5310 1.419 . S
C5309 C5304 1.425 . S
C5309 C5306 1.409 . S
C5309 C5307 1.415 . S
C5310 H5300 0.930 . S
C5310 C5308 1.419 . S
C5310 C5311 1.362 . S
C5311 H5301 0.930 . S
C5311 C5304 1.409 . S
C5311 C5310 1.362 . S
H5312 C5318 0.930 . S
H5313 C5321 0.930 . S
H5314 C5322 0.930 . S
H5315 C5323 0.930 . S
H5316 C5326 0.930 . S
H5317 C5327 0.930 . S
C5318 H5312 0.930 . S
C5318 C5319 1.355 . S
C5318 C5320 1.415 . S
C5319 C5318 1.355 . S
C5319 C5321 1.419 . S
C5320 C5318 1.415 . S
C5320 C5325 1.425 . S
C5320 C5327 1.409 . S
C5321 H5313 0.930 . S
C5321 C5319 1.419 . S
C5321 C5322 1.362 . S
C5322 H5314 0.930 . S
C5322 C5321 1.362 . S
C5322 C5325 1.409 . S
C5323 H5315 0.930 . S
C5323 C5324 1.355 . S
C5323 C5325 1.415 . S
C5324 C5323 1.355 . S
C5324 C5326 1.419 . S
C5325 C5320 1.425 . S
C5325 C5322 1.409 . S
C5325 C5323 1.415 . S
C5326 H5316 0.930 . S
C5326 C5324 1.419 . S
C5326 C5327 1.362 . S
C5327 H5317 0.930 . S
C5327 C5320 1.409 . S
C5327 C5326 1.362 . S
H5328 C5334 0.930 . S
H5329 C5337 0.930 . S
H5330 C5338 0.930 . S
H5331 C5339 0.930 . S
H5332 C5342 0.930 . S
H5333 C5343 0.930 . S
C5334 H5328 0.930 . S
C5334 C5335 1.355 . S
C5334 C5336 1.415 . S
C5335 C5334 1.355 . S
C5335 C5337 1.419 . S
C5336 C5334 1.415 . S
C5336 C5341 1.425 . S
C5336 C5343 1.409 . S
C5337 H5329 0.930 . S
C5337 C5335 1.419 . S
C5337 C5338 1.362 . S
C5338 H5330 0.930 . S
C5338 C5337 1.362 . S
C5338 C5341 1.409 . S
C5339 H5331 0.930 . S
C5339 C5340 1.355 . S
C5339 C5341 1.415 . S
C5340 C5339 1.355 . S
C5340 C5342 1.419 . S
C5341 C5336 1.425 . S
C5341 C5338 1.409 . S
C5341 C5339 1.415 . S
C5342 H5332 0.930 . S
C5342 C5340 1.419 . S
C5342 C5343 1.362 . S
C5343 H5333 0.930 . S
C5343 C5336 1.409 . S
C5343 C5342 1.362 . S
H5344 C5350 0.930 . S
H5345 C5353 0.930 . S
H5346 C5354 0.930 . S
H5347 C5355 0.930 . S
H5348 C5358 0.930 . S
H5349 C5359 0.930 . S
C5350 H5344 0.930 . S
C5350 C5351 1.355 . S
C5350 C5352 1.415 . S
C5351 C5350 1.355 . S
C5351 C5353 1.419 . S
C5352 C5350 1.415 . S
C5352 C5357 1.425 . S
C5352 C5359 1.409 . S
C5353 H5345 0.930 . S
C5353 C5351 1.419 . S
C5353 C5354 1.362 . S
C5354 H5346 0.930 . S
C5354 C5353 1.362 . S
C5354 C5357 1.409 . S
C5355 H5347 0.930 . S
C5355 C5356 1.355 . S
C5355 C5357 1.415 . S
C5356 C5355 1.355 . S
C5356 C5358 1.419 . S
C5357 C5352 1.425 . S
C5357 C5354 1.409 . S
C5357 C5355 1.415 . S
C5358 H5348 0.930 . S
C5358 C5356 1.419 . S
C5358 C5359 1.362 . S
C5359 H5349 0.930 . S
C5359 C5352 1.409 . S
C5359 C5358 1.362 . S
H5360 C5366 0.930 . S
H5361 C5369 0.930 . S
H5362 C5370 0.930 . S
H5363 C5371 0.930 . S
H5364 C5374 0.930 . S
H5365 C5375 0.930 . S
C5366 H5360 0.930 . S
C5366 C5367 1.355 . S
C5366 C5368 1.415 . S
C5367 C5366 1.355 . S
C5367 C5369 1.419 . S
C5368 C5366 1.415 . S
C5368 C5373 1.425 . S
C5368 C5375 1.409 . S
C5369 H5361 0.930 . S
C5369 C5367 1.419 . S
C5369 C5370 1.362 . S
C5370 H5362 0.930 . S
C5370 C5369 1.362 . S
C5370 C5373 1.409 . S
C5371 H5363 0.930 . S
C5371 C5372 1.355 . S
C5371 C5373 1.415 . S
C5372 C5371 1.355 . S
C5372 C5374 1.419 . S
C5373 C5368 1.425 . S
C5373 C5370 1.409 . S
C5373 C5371 1.415 . S
C5374 H5364 0.930 . S
C5374 C5372 1.419 . S
C5374 C5375 1.362 . S
C5375 H5365 0.930 . S
C5375 C5368 1.409 . S
C5375 C5374 1.362 . S
H5376 C5382 0.930 . S
H5377 C5385 0.930 . S
H5378 C5386 0.930 . S
H5379 C5387 0.930 . S
H5380 C5390 0.930 . S
H5381 C5391 0.930 . S
C5382 H5376 0.930 . S
C5382 C5383 1.355 . S
C5382 C5384 1.415 . S
C5383 C5382 1.355 . S
C5383 C5385 1.419 . S
C5384 C5382 1.415 . S
C5384 C5389 1.425 . S
C5384 C5391 1.409 . S
C5385 H5377 0.930 . S
C5385 C5383 1.419 . S
C5385 C5386 1.362 . S
C5386 H5378 0.930 . S
C5386 C5385 1.362 . S
C5386 C5389 1.409 . S
C5387 H5379 0.930 . S
C5387 C5388 1.355 . S
C5387 C5389 1.415 . S
C5388 C5387 1.355 . S
C5388 C5390 1.419 . S
C5389 C5384 1.425 . S
C5389 C5386 1.409 . S
C5389 C5387 1.415 . S
C5390 H5380 0.930 . S
C5390 C5388 1.419 . S
C5390 C5391 1.362 . S
C5391 H5381 0.930 . S
C5391 C5384 1.409 . S
C5391 C5390 1.362 . S
H5392 C5398 0.930 . S
H5393 C5401 0.930 . S
H5394 C5402 0.930 . S
H5395 C5403 0.930 . S
H5396 C5406 0.930 . S
H5397 C5407 0.930 . S
C5398 H5392 0.930 . S
C5398 C5399 1.355 . S
C5398 C5400 1.415 . S
C5399 C5398 1.355 . S
C5399 C5401 1.419 . S
C5400 C5398 1.415 . S
C5400 C5405 1.425 . S
C5400 C5407 1.409 . S
C5401 H5393 0.930 . S
C5401 C5399 1.419 . S
C5401 C5402 1.362 . S
C5402 H5394 0.930 . S
C5402 C5401 1.362 . S
C5402 C5405 1.409 . S
C5403 H5395 0.930 . S
C5403 C5404 1.355 . S
C5403 C5405 1.415 . S
C5404 C5403 1.355 . S
C5404 C5406 1.419 . S
C5405 C5400 1.425 . S
C5405 C5402 1.409 . S
C5405 C5403 1.415 . S
C5406 H5396 0.930 . S
C5406 C5404 1.419 . S
C5406 C5407 1.362 . S
C5407 H5397 0.930 . S
C5407 C5400 1.409 . S
C5407 C5406 1.362 . S
H5408 C5414 0.930 . S
H5409 C5417 0.930 . S
H5410 C5418 0.930 . S
H5411 C5419 0.930 . S
H5412 C5422 0.930 . S
H5413 C5423 0.930 . S
C5414 H5408 0.930 . S
C5414 C5415 1.355 . S
C5414 C5416 1.415 . S
C5415 C5414 1.355 . S
C5415 C5417 1.419 . S
C5416 C5414 1.415 . S
C5416 C5421 1.425 . S
C5416 C5423 1.409 . S
C5417 H5409 0.930 . S
C5417 C5415 1.419 . S
C5417 C5418 1.362 . S
C5418 H5410 0.930 . S
C5418 C5417 1.362 . S
C5418 C5421 1.409 . S
C5419 H5411 0.930 . S
C5419 C5420 1.355 . S
C5419 C5421 1.415 . S
C5420 C5419 1.355 . S
C5420 C5422 1.419 . S
C5421 C5416 1.425 . S
C5421 C5418 1.409 . S
C5421 C5419 1.415 . S
C5422 H5412 0.930 . S
C5422 C5420 1.419 . S
C5422 C5423 1.362 . S
C5423 H5413 0.930 . S
C5423 C5416 1.409 . S
C5423 C5422 1.362 . S
H5424 C5430 0.930 . S
H5425 C5433 0.930 . S
H5426 C5434 0.930 . S
H5427 C5435 0.930 . S
H5428 C5438 0.930 . S
H5429 C5439 0.930 . S
C5430 H5424 0.930 . S
C5430 C5431 1.355 . S
C5430 C5432 1.415 . S
C5431 C5430 1.355 . S
C5431 C5433 1.419 . S
C5432 C5430 1.415 . S
C5432 C5437 1.425 . S
C5432 C5439 1.409 . S
C5433 H5425 0.930 . S
C5433 C5431 1.419 . S
C5433 C5434 1.362 . S
C5434 H5426 0.930 . S
C5434 C5433 1.362 . S
C5434 C5437 1.409 . S
C5435 H5427 0.930 . S
C5435 C5436 1.355 . S
C5435 C5437 1.415 . S
C5436 C5435 1.355 . S
C5436 C5438 1.419 . S
C5437 C5432 1.425 . S
C5437 C5434 1.409 . S
C5437 C5435 1.415 . S
C5438 H5428 0.930 . S
C5438 C5436 1.419 . S
C5438 C5439 1.362 . S
C5439 H5429 0.930 . S
C5439 C5432 1.409 . S
C5439 C5438 1.362 . S
H5440 C5446 0.930 . S
H5441 C5449 0.930 . S
H5442 C5450 0.930 . S
H5443 C5451 0.930 . S
H5444 C5454 0.930 . S
H5445 C5455 0.930 . S
C5446 H5440 0.930 . S
C5446 C5447 1.355 . S
C5446 C5448 1.415 . S
C5447 C5446 1.355 . S
C5447 C5449 1.419 . S
C5448 C5446 1.415 . S
C5448 C5453 1.425 . S
C5448 C5455 1.409 . S
C5449 H5441 0.930 . S
C5449 C5447 1.419 . S
C5449 C5450 1.362 . S
C5450 H5442 0.930 . S
C5450 C5449 1.362 . S
C5450 C5453 1.409 . S
C5451 H5443 0.930 . S
C5451 C5452 1.355 . S
C5451 C5453 1.415 . S
C5452 C5451 1.355 . S
C5452 C5454 1.419 . S
C5453 C5448 1.425 . S
C5453 C5450 1.409 . S
C5453 C5451 1.415 . S
C5454 H5444 0.930 . S
C5454 C5452 1.419 . S
C5454 C5455 1.362 . S
C5455 H5445 0.930 . S
C5455 C5448 1.409 . S
C5455 C5454 1.362 . S
H5456 C5462 0.930 . S
H5457 C5465 0.930 . S
H5458 C5466 0.930 . S
H5459 C5467 0.930 . S
H5460 C5470 0.930 . S
H5461 C5471 0.930 . S
C5462 H5456 0.930 . S
C5462 C5463 1.355 . S
C5462 C5464 1.415 . S
C5463 C5462 1.355 . S
C5463 C5465 1.419 . S
C5464 C5462 1.415 . S
C5464 C5469 1.425 . S
C5464 C5471 1.409 . S
C5465 H5457 0.930 . S
C5465 C5463 1.419 . S
C5465 C5466 1.362 . S
C5466 H5458 0.930 . S
C5466 C5465 1.362 . S
C5466 C5469 1.409 . S
C5467 H5459 0.930 . S
C5467 C5468 1.355 . S
C5467 C5469 1.415 . S
C5468 C5467 1.355 . S
C5468 C5470 1.419 . S
C5469 C5464 1.425 . S
C5469 C5466 1.409 . S
C5469 C5467 1.415 . S
C5470 H5460 0.930 . S
C5470 C5468 1.419 . S
C5470 C5471 1.362 . S
C5471 H5461 0.930 . S
C5471 C5464 1.409 . S
C5471 C5470 1.362 . S
H5472 C5478 0.930 . S
H5473 C5481 0.930 . S
H5474 C5482 0.930 . S
H5475 C5483 0.930 . S
H5476 C5486 0.930 . S
H5477 C5487 0.930 . S
C5478 H5472 0.930 . S
C5478 C5479 1.355 . S
C5478 C5480 1.415 . S
C5479 C5478 1.355 . S
C5479 C5481 1.419 . S
C5480 C5478 1.415 . S
C5480 C5485 1.425 . S
C5480 C5487 1.409 . S
C5481 H5473 0.930 . S
C5481 C5479 1.419 . S
C5481 C5482 1.362 . S
C5482 H5474 0.930 . S
C5482 C5481 1.362 . S
C5482 C5485 1.409 . S
C5483 H5475 0.930 . S
C5483 C5484 1.355 . S
C5483 C5485 1.415 . S
C5484 C5483 1.355 . S
C5484 C5486 1.419 . S
C5485 C5480 1.425 . S
C5485 C5482 1.409 . S
C5485 C5483 1.415 . S
C5486 H5476 0.930 . S
C5486 C5484 1.419 . S
C5486 C5487 1.362 . S
C5487 H5477 0.930 . S
C5487 C5480 1.409 . S
C5487 C5486 1.362 . S
H5488 C5494 0.930 . S
H5489 C5497 0.930 . S
H5490 C5498 0.930 . S
H5491 C5499 0.930 . S
H5492 C5502 0.930 . S
H5493 C5503 0.930 . S
C5494 H5488 0.930 . S
C5494 C5495 1.355 . S
C5494 C5496 1.415 . S
C5495 C5494 1.355 . S
C5495 C5497 1.419 . S
C5496 C5494 1.415 . S
C5496 C5501 1.425 . S
C5496 C5503 1.409 . S
C5497 H5489 0.930 . S
C5497 C5495 1.419 . S
C5497 C5498 1.362 . S
C5498 H5490 0.930 . S
C5498 C5497 1.362 . S
C5498 C5501 1.409 . S
C5499 H5491 0.930 . S
C5499 C5500 1.355 . S
C5499 C5501 1.415 . S
C5500 C5499 1.355 . S
C5500 C5502 1.419 . S
C5501 C5496 1.425 . S
C5501 C5498 1.409 . S
C5501 C5499 1.415 . S
C5502 H5492 0.930 . S
C5502 C5500 1.419 . S
C5502 C5503 1.362 . S
C5503 H5493 0.930 . S
C5503 C5496 1.409 . S
C5503 C5502 1.362 . S
H5504 C5510 0.930 . S
H5505 C5513 0.930 . S
H5506 C5514 0.930 . S
H5507 C5515 0.930 . S
H5508 C5518 0.930 . S
H5509 C5519 0.930 . S
C5510 H5504 0.930 . S
C5510 C5511 1.355 . S
C5510 C5512 1.415 . S
C5511 C5510 1.355 . S
C5511 C5513 1.419 . S
C5512 C5510 1.415 . S
C5512 C5517 1.425 . S
C5512 C5519 1.409 . S
C5513 H5505 0.930 . S
C5513 C5511 1.419 . S
C5513 C5514 1.362 . S
C5514 H5506 0.930 . S
C5514 C5513 1.362 . S
C5514 C5517 1.409 . S
C5515 H5507 0.930 . S
C5515 C5516 1.355 . S
C5515 C5517 1.415 . S
C5516 C5515 1.355 . S
C5516 C5518 1.419 . S
C5517 C5512 1.425 . S
C5517 C5514 1.409 . S
C5517 C5515 1.415 . S
C5518 H5508 0.930 . S
C5518 C5516 1.419 . S
C5518 C5519 1.362 . S
C5519 H5509 0.930 . S
C5519 C5512 1.409 . S
C5519 C5518 1.362 . S
H5520 C5526 0.930 . S
H5521 C5529 0.930 . S
H5522 C5530 0.930 . S
H5523 C5531 0.930 . S
H5524 C5534 0.930 . S
H5525 C5535 0.930 . S
C5526 H5520 0.930 . S
C5526 C5527 1.355 . S
C5526 C5528 1.415 . S
C5527 C5526 1.355 . S
C5527 C5529 1.419 . S
C5528 C5526 1.415 . S
C5528 C5533 1.425 . S
C5528 C5535 1.409 . S
C5529 H5521 0.930 . S
C5529 C5527 1.419 . S
C5529 C5530 1.362 . S
C5530 H5522 0.930 . S
C5530 C5529 1.362 . S
C5530 C5533 1.409 . S
C5531 H5523 0.930 . S
C5531 C5532 1.355 . S
C5531 C5533 1.415 . S
C5532 C5531 1.355 . S
C5532 C5534 1.419 . S
C5533 C5528 1.425 . S
C5533 C5530 1.409 . S
C5533 C5531 1.415 . S
C5534 H5524 0.930 . S
C5534 C5532 1.419 . S
C5534 C5535 1.362 . S
C5535 H5525 0.930 . S
C5535 C5528 1.409 . S
C5535 C5534 1.362 . S
H5536 C5542 0.930 . S
H5537 C5545 0.930 . S
H5538 C5546 0.930 . S
H5539 C5547 0.930 . S
H5540 C5550 0.930 . S
H5541 C5551 0.930 . S
C5542 H5536 0.930 . S
C5542 C5543 1.355 . S
C5542 C5544 1.415 . S
C5543 C5542 1.355 . S
C5543 C5545 1.419 . S
C5544 C5542 1.415 . S
C5544 C5549 1.425 . S
C5544 C5551 1.409 . S
C5545 H5537 0.930 . S
C5545 C5543 1.419 . S
C5545 C5546 1.362 . S
C5546 H5538 0.930 . S
C5546 C5545 1.362 . S
C5546 C5549 1.409 . S
C5547 H5539 0.930 . S
C5547 C5548 1.355 . S
C5547 C5549 1.415 . S
C5548 C5547 1.355 . S
C5548 C5550 1.419 . S
C5549 C5544 1.425 . S
C5549 C5546 1.409 . S
C5549 C5547 1.415 . S
C5550 H5540 0.930 . S
C5550 C5548 1.419 . S
C5550 C5551 1.362 . S
C5551 H5541 0.930 . S
C5551 C5544 1.409 . S
C5551 C5550 1.362 . S
H5552 C5558 0.930 . S
H5553 C5561 0.930 . S
H5554 C5562 0.930 . S
H5555 C5563 0.930 . S
H5556 C5566 0.930 . S
H5557 C5567 0.930 . S
C5558 H5552 0.930 . S
C5558 C5559 1.355 . S
C5558 C5560 1.415 . S
C5559 C5558 1.355 . S
C5559 C5561 1.419 . S
C5560 C5558 1.415 . S
C5560 C5565 1.425 . S
C5560 C5567 1.409 . S
C5561 H5553 0.930 . S
C5561 C5559 1.419 . S
C5561 C5562 1.362 . S
C5562 H5554 0.930 . S
C5562 C5561 1.362 . S
C5562 C5565 1.409 . S
C5563 H5555 0.930 . S
C5563 C5564 1.355 . S
C5563 C5565 1.415 . S
C5564 C5563 1.355 . S
C5564 C5566 1.419 . S
C5565 C5560 1.425 . S
C5565 C5562 1.409 . S
C5565 C5563 1.415 . S
C5566 H5556 0.930 . S
C5566 C5564 1.419 . S
C5566 C5567 1.362 . S
C5567 H5557 0.930 . S
C5567 C5560 1.409 . S
C5567 C5566 1.362 . S
H5568 C5574 0.930 . S
H5569 C5577 0.930 . S
H5570 C5578 0.930 . S
H5571 C5579 0.930 . S
H5572 C5582 0.930 . S
H5573 C5583 0.930 . S
C5574 H5568 0.930 . S
C5574 C5575 1.355 . S
C5574 C5576 1.415 . S
C5575 C5574 1.355 . S
C5575 C5577 1.419 . S
C5576 C5574 1.415 . S
C5576 C5581 1.425 . S
C5576 C5583 1.409 . S
C5577 H5569 0.930 . S
C5577 C5575 1.419 . S
C5577 C5578 1.362 . S
C5578 H5570 0.930 . S
C5578 C5577 1.362 . S
C5578 C5581 1.409 . S
C5579 H5571 0.930 . S
C5579 C5580 1.355 . S
C5579 C5581 1.415 . S
C5580 C5579 1.355 . S
C5580 C5582 1.419 . S
C5581 C5576 1.425 . S
C5581 C5578 1.409 . S
C5581 C5579 1.415 . S
C5582 H5572 0.930 . S
C5582 C5580 1.419 . S
C5582 C5583 1.362 . S
C5583 H5573 0.930 . S
C5583 C5576 1.409 . S
C5583 C5582 1.362 . S
H5584 C5590 0.930 . S
H5585 C5593 0.930 . S
H5586 C5594 0.930 . S
H5587 C5595 0.930 . S
H5588 C5598 0.930 . S
H5589 C5599 0.930 . S
C5590 H5584 0.930 . S
C5590 C5591 1.355 . S
C5590 C5592 1.415 . S
C5591 C5590 1.355 . S
C5591 C5593 1.419 . S
C5592 C5590 1.415 . S
C5592 C5597 1.425 . S
C5592 C5599 1.409 . S
C5593 H5585 0.930 . S
C5593 C5591 1.419 . S
C5593 C5594 1.362 . S
C5594 H5586 0.930 . S
C5594 C5593 1.362 . S
C5594 C5597 1.409 . S
C5595 H5587 0.930 . S
C5595 C5596 1.355 . S
C5595 C5597 1.415 . S
C5596 C5595 1.355 . S
C5596 C5598 1.419 . S
C5597 C5592 1.425 . S
C5597 C5594 1.409 . S
C5597 C5595 1.415 . S
C5598 H5588 0.930 . S
C5598 C5596 1.419 . S
C5598 C5599 1.362 . S
C5599 H5589 0.930 . S
C5599 C5592 1.409 . S
C5599 C5598 1.362 . S
H5600 C5606 0.930 . S
H5601 C5609 0.930 . S
H5602 C5610 0.930 . S
H5603 C5611 0.930 . S
H5604 C5614 0.930 . S
H5605 C5615 0.930 . S
C5606 H5600 0.930 . S
C5606 C5607 1.355 . S
C5606 C5608 1.415 . S
C5607 C5606 1.355 . S
C5607 C5609 1.419 . S
C5608 C5606 1.415 . S
C5608 C5613 1.425 . S
C5608 C5615 1.409 . S
C5609 H5601 0.930 . S
C5609 C5607 1.419 . S
C5609 C5610 1.362 . S
C5610 H5602 0.930 . S
C5610 C5609 1.362 . S
C5610 C5613 1.409 . S
C5611 H5603 0.930 . S
C5611 C5612 1.355 . S
C5611 C5613 1.415 . S
C5612 C5611 1.355 . S
C5612 C5614 1.419 . S
C5613 C5608 1.425 . S
C5613 C5610 1.409 . S
C5613 C5611 1.415 . S
C5614 H5604 0.930 . S
C5614 C5612 1.419 . S
C5614 C5615 1.362 . S
C5615 H5605 0.930 . S
C5615 C5608 1.409 . S
C5615 C5614 1.362 . S
H5616 C5622 0.930 . S
H5617 C5625 0.930 . S
H5618 C5626 0.930 . S
H5619 C5627 0.930 . S
H5620 C5630 0.930 . S
H5621 C5631 0.930 . S
C5622 H5616 0.930 . S
C5622 C5623 1.355 . S
C5622 C5624 1.415 . S
C5623 C5622 1.355 . S
C5623 C5625 1.419 . S
C5624 C5622 1.415 . S
C5624 C5629 1.425 . S
C5624 C5631 1.409 . S
C5625 H5617 0.930 . S
C5625 C5623 1.419 . S
C5625 C5626 1.362 . S
C5626 H5618 0.930 . S
C5626 C5625 1.362 . S
C5626 C5629 1.409 . S
C5627 H5619 0.930 . S
C5627 C5628 1.355 . S
C5627 C5629 1.415 . S
C5628 C5627 1.355 . S
C5628 C5630 1.419 . S
C5629 C5624 1.425 . S
C5629 C5626 1.409 . S
C5629 C5627 1.415 . S
C5630 H5620 0.930 . S
C5630 C5628 1.419 . S
C5630 C5631 1.362 . S
C5631 H5621 0.930 . S
C5631 C5624 1.409 . S
C5631 C5630 1.362 . S
H5632 C5638 0.930 . S
H5633 C5641 0.930 . S
H5634 C5642 0.930 . S
H5635 C5643 0.930 . S
H5636 C5646 0.930 . S
H5637 C5647 0.930 . S
C5638 H5632 0.930 . S
C5638 C5639 1.355 . S
C5638 C5640 1.415 . S
C5639 C5638 1.355 . S
C5639 C5641 1.419 . S
C5640 C5638 1.415 . S
C5640 C5645 1.425 . S
C5640 C5647 1.409 . S
C5641 H5633 0.930 . S
C5641 C5639 1.419 . S
C5641 C5642 1.362 . S
C5642 H5634 0.930 . S
C5642 C5641 1.362 . S
C5642 C5645 1.409 . S
C5643 H5635 0.930 . S
C5643 C5644 1.355 . S
C5643 C5645 1.415 . S
C5644 C5643 1.355 . S
C5644 C5646 1.419 . S
C5645 C5640 1.425 . S
C5645 C5642 1.409 . S
C5645 C5643 1.415 . S
C5646 H5636 0.930 . S
C5646 C5644 1.419 . S
C5646 C5647 1.362 . S
C5647 H5637 0.930 . S
C5647 C5640 1.409 . S
C5647 C5646 1.362 . S
H5648 C5654 0.930 . S
H5649 C5657 0.930 . S
H5650 C5658 0.930 . S
H5651 C5659 0.930 . S
H5652 C5662 0.930 . S
H5653 C5663 0.930 . S
C5654 H5648 0.930 . S
C5654 C5655 1.355 . S
C5654 C5656 1.415 . S
C5655 C5654 1.355 . S
C5655 C5657 1.419 . S
C5656 C5654 1.415 . S
C5656 C5661 1.425 . S
C5656 C5663 1.409 . S
C5657 H5649 0.930 . S
C5657 C5655 1.419 . S
C5657 C5658 1.362 . S
C5658 H5650 0.930 . S
C5658 C5657 1.362 . S
C5658 C5661 1.409 . S
C5659 H5651 0.930 . S
C5659 C5660 1.355 . S
C5659 C5661 1.415 . S
C5660 C5659 1.355 . S
C5660 C5662 1.419 . S
C5661 C5656 1.425 . S
C5661 C5658 1.409 . S
C5661 C5659 1.415 . S
C5662 H5652 0.930 . S
C5662 C5660 1.419 . S
C5662 C5663 1.362 . S
C5663 H5653 0.930 . S
C5663 C5656 1.409 . S
C5663 C5662 1.362 . S
H5664 C5670 0.930 . S
H5665 C5673 0.930 . S
H5666 C5674 0.930 . S
H5667 C5675 0.930 . S
H5668 C5678 0.930 . S
H5669 C5679 0.930 . S
C5670 H5664 0.930 . S
C5670 C5671 1.355 . S
C5670 C5672 1.415 . S
C5671 C5670 1.355 . S
C5671 C5673 1.419 . S
C5672 C5670 1.415 . S
C5672 C5677 1.425 . S
C5672 C5679 1.409 . S
C5673 H5665 0.930 . S
C5673 C5671 1.419 . S
C5673 C5674 1.362 . S
C5674 H5666 0.930 . S
C5674 C5673 1.362 . S
C5674 C5677 1.409 . S
C5675 H5667 0.930 . S
C5675 C5676 1.355 . S
C5675 C5677 1.415 . S
C5676 C5675 1.355 . S
C5676 C5678 1.419 . S
C5677 C5672 1.425 . S
C5677 C5674 1.409 . S
C5677 C5675 1.415 . S
C5678 H5668 0.930 . S
C5678 C5676 1.419 . S
C5678 C5679 1.362 . S
C5679 H5669 0.930 . S
C5679 C5672 1.409 . S
C5679 C5678 1.362 . S
H5680 C5686 0.930 . S
H5681 C5689 0.930 . S
H5682 C5690 0.930 . S
H5683 C5691 0.930 . S
H5684 C5694 0.930 . S
H5685 C5695 0.930 . S
C5686 H5680 0.930 . S
C5686 C5687 1.355 . S
C5686 C5688 1.415 . S
C5687 C5686 1.355 . S
C5687 C5689 1.419 . S
C5688 C5686 1.415 . S
C5688 C5693 1.425 . S
C5688 C5695 1.409 . S
C5689 H5681 0.930 . S
C5689 C5687 1.419 . S
C5689 C5690 1.362 . S
C5690 H5682 0.930 . S
C5690 C5689 1.362 . S
C5690 C5693 1.409 . S
C5691 H5683 0.930 . S
C5691 C5692 1.355 . S
C5691 C5693 1.415 . S
C5692 C5691 1.355 . S
C5692 C5694 1.419 . S
C5693 C5688 1.425 . S
C5693 C5690 1.409 . S
C5693 C5691 1.415 . S
C5694 H5684 0.930 . S
C5694 C5692 1.419 . S
C5694 C5695 1.362 . S
C5695 H5685 0.930 . S
C5695 C5688 1.409 . S
C5695 C5694 1.362 . S
H5696 C5702 0.930 . S
H5697 C5705 0.930 . S
H5698 C5706 0.930 . S
H5699 C5707 0.930 . S
H5700 C5710 0.930 . S
H5701 C5711 0.930 . S
C5702 H5696 0.930 . S
C5702 C5703 1.355 . S
C5702 C5704 1.415 . S
C5703 C5702 1.355 . S
C5703 C5705 1.419 . S
C5704 C5702 1.415 . S
C5704 C5709 1.425 . S
C5704 C5711 1.409 . S
C5705 H5697 0.930 . S
C5705 C5703 1.419 . S
C5705 C5706 1.362 . S
C5706 H5698 0.930 . S
C5706 C5705 1.362 . S
C5706 C5709 1.409 . S
C5707 H5699 0.930 . S
C5707 C5708 1.355 . S
C5707 C5709 1.415 . S
C5708 C5707 1.355 . S
C5708 C5710 1.419 . S
C5709 C5704 1.425 . S
C5709 C5706 1.409 . S
C5709 C5707 1.415 . S
C5710 H5700 0.930 . S
C5710 C5708 1.419 . S
C5710 C5711 1.362 . S
C5711 H5701 0.930 . S
C5711 C5704 1.409 . S
C5711 C5710 1.362 . S
H5712 C5718 0.930 . S
H5713 C5721 0.930 . S
H5714 C5722 0.930 . S
H5715 C5723 0.930 . S
H5716 C5726 0.930 . S
H5717 C5727 0.930 . S
C5718 H5712 0.930 . S
C5718 C5719 1.355 . S
C5718 C5720 1.415 . S
C5719 C5718 1.355 . S
C5719 C5721 1.419 . S
C5720 C5718 1.415 . S
C5720 C5725 1.425 . S
C5720 C5727 1.409 . S
C5721 H5713 0.930 . S
C5721 C5719 1.419 . S
C5721 C5722 1.362 . S
C5722 H5714 0.930 . S
C5722 C5721 1.362 . S
C5722 C5725 1.409 . S
C5723 H5715 0.930 . S
C5723 C5724 1.355 . S
C5723 C5725 1.415 . S
C5724 C5723 1.355 . S
C5724 C5726 1.419 . S
C5725 C5720 1.425 . S
C5725 C5722 1.409 . S
C5725 C5723 1.415 . S
C5726 H5716 0.930 . S
C5726 C5724 1.419 . S
C5726 C5727 1.362 . S
C5727 H5717 0.930 . S
C5727 C5720 1.409 . S
C5727 C5726 1.362 . S
H5728 C5734 0.930 . S
H5729 C5737 0.930 . S
H5730 C5738 0.930 . S
H5731 C5739 0.930 . S
H5732 C5742 0.930 . S
H5733 C5743 0.930 . S
C5734 H5728 0.930 . S
C5734 C5735 1.355 . S
C5734 C5736 1.415 . S
C5735 C5734 1.355 . S
C5735 C5737 1.419 . S
C5736 C5734 1.415 . S
C5736 C5741 1.425 . S
C5736 C5743 1.409 . S
C5737 H5729 0.930 . S
C5737 C5735 1.419 . S
C5737 C5738 1.362 . S
C5738 H5730 0.930 . S
C5738 C5737 1.362 . S
C5738 C5741 1.409 . S
C5739 H5731 0.930 . S
C5739 C5740 1.355 . S
C5739 C5741 1.415 . S
C5740 C5739 1.355 . S
C5740 C5742 1.419 . S
C5741 C5736 1.425 . S
C5741 C5738 1.409 . S
C5741 C5739 1.415 . S
C5742 H5732 0.930 . S
C5742 C5740 1.419 . S
C5742 C5743 1.362 . S
C5743 H5733 0.930 . S
C5743 C5736 1.409 . S
C5743 C5742 1.362 . S
H5744 C5750 0.930 . S
H5745 C5753 0.930 . S
H5746 C5754 0.930 . S
H5747 C5755 0.930 . S
H5748 C5758 0.930 . S
H5749 C5759 0.930 . S
C5750 H5744 0.930 . S
C5750 C5751 1.355 . S
C5750 C5752 1.415 . S
C5751 C5750 1.355 . S
C5751 C5753 1.419 . S
C5752 C5750 1.415 . S
C5752 C5757 1.425 . S
C5752 C5759 1.409 . S
C5753 H5745 0.930 . S
C5753 C5751 1.419 . S
C5753 C5754 1.362 . S
C5754 H5746 0.930 . S
C5754 C5753 1.362 . S
C5754 C5757 1.409 . S
C5755 H5747 0.930 . S
C5755 C5756 1.355 . S
C5755 C5757 1.415 . S
C5756 C5755 1.355 . S
C5756 C5758 1.419 . S
C5757 C5752 1.425 . S
C5757 C5754 1.409 . S
C5757 C5755 1.415 . S
C5758 H5748 0.930 . S
C5758 C5756 1.419 . S
C5758 C5759 1.362 . S
C5759 H5749 0.930 . S
C5759 C5752 1.409 . S
C5759 C5758 1.362 . S
C3463 C1781 1.659 . S
C3468 C1949 1.551 . S
C3479 C981 1.667 . S
C3484 C1981 1.735 . S
C3500 C2013 1.715 . S
C3495 C1861 1.709 . S
C3511 C1061 1.724 . S
C3516 C2045 1.581 . S
C3527 C1901 1.632 . S
C3532 C2077 1.624 . S
C3543 C941 1.607 . S
C3548 C2109 1.597 . S
C3559 C1821 1.734 . S
C3564 C2141 1.727 . S
C3575 C1021 1.723 . S
C3580 C2173 1.724 . S
C3591 C661 1.622 . S
C3596 C2205 1.648 . S
C3607 C1621 1.695 . S
C3612 C2237 1.536 . S
C3623 C741 1.599 . S
C3628 C2269 1.678 . S
C3639 C1581 1.666 . S
C3644 C2301 1.716 . S
C3655 C901 1.629 . S
C3660 C2333 1.495 . S
C3676 C2365 1.715 . S
C3671 C1661 1.726 . S
C3692 C2397 1.700 . S
C3687 C821 1.636 . S
C3703 C1141 1.703 . S
C3708 C2429 1.548 . S
C3724 C2461 1.709 . S
C3719 C781 1.720 . S
C3740 C2493 1.708 . S
C3735 C1701 1.676 . S
C3751 C861 1.709 . S
C3756 C2525 1.618 . S
C3767 C1181 1.651 . S
C3772 C2557 1.685 . S
C3788 C2589 1.647 . S
C3783 C1101 1.611 . S
C3799 C1421 1.620 . S
C3804 C2621 1.596 . S
C3820 C2653 1.510 . S
C3815 C381 1.653 . S
C3836 C2685 1.505 . S
C3831 C1501 1.647 . S
C3852 C2717 1.524 . S
C3847 C461 1.626 . S
C3868 C2749 1.518 . S
C3863 C1541 1.618 . S
C3879 C341 1.582 . S
C3884 C2781 1.568 . S
C3900 C2813 1.594 . S
C3895 C1461 1.661 . S
C3911 C421 1.641 . S
C3916 C2845 1.500 . S
C3932 C2877 1.672 . S
C3927 C61 1.602 . S
C3948 C2909 1.677 . S
C3943 C1261 1.719 . S
C3959 C141 1.627 . S
C3964 C2941 1.685 . S
C3980 C2973 1.664 . S
C3975 C1221 1.696 . S
C3996 C3005 1.611 . S
C3991 C301 1.728 . S
C4007 C1301 1.710 . S
C4012 C3037 1.680 . S
C4028 C3069 1.707 . S
C4023 C221 1.672 . S
C4044 C3101 1.625 . S
C4039 C541 1.708 . S
C4055 C181 1.706 . S
C4060 C3133 1.697 . S
C4076 C3165 1.678 . S
C4071 C1341 1.619 . S
C4087 C261 1.714 . S
C4092 C3197 1.586 . S
C4108 C3229 1.692 . S
C4103 C581 1.635 . S
C4119 C501 1.662 . S
C4124 C3261 1.700 . S
C4135 C701 1.697 . S
C4140 C3293 1.536 . S
C4156 C3325 1.716 . S
C4151 C621 1.680 . S
C4167 C1741 1.633 . S
C4172 C3357 1.553 . S
C4183 C101 1.669 . S
C4188 C3389 1.603 . S
C4204 C3421 1.707 . S
C4199 C21 1.716 . S
C4220 C3453 1.655 . S
C4215 C1381 1.728 . S
C4231 C1335 2.053 . S
C4236 C1943 1.892 . S
C4247 C535 1.553 . S
C4252 C1975 1.583 . S
C4263 C1362 2.221 . S
C4268 C2001 2.226 . S
C4284 C2033 1.515 . S
C4279 C1295 1.564 . S
C4295 C575 2.073 . S
C4300 C2071 1.935 . S
C4311 C1215 1.524 . S
C4316 C2097 1.463 . S
C4332 C2129 2.198 . S
C4327 C495 2.124 . S
C4343 C1242 1.586 . S
C4348 C2167 1.616 . S
C4359 C1255 1.992 . S
C4364 C2193 2.097 . S
C4380 C2225 1.539 . S
C4375 C562 1.560 . S
C4391 C1202 2.022 . S
C4396 C2257 2.026 . S
C4412 C2295 1.601 . S
C4407 C482 1.520 . S
C4423 C522 2.068 . S
C4428 C2327 1.859 . S
C4439 C1375 1.632 . S
C4444 C2359 1.662 . S
C4460 C2385 2.023 . S
C4455 C1282 2.007 . S
C4476 C2417 1.519 . S
C4471 C1322 1.564 . S
C4487 C455 1.995 . S
C4492 C2289 2.060 . S
C4503 C1415 2.012 . S
C4508 C2449 2.085 . S
C4519 C1455 1.579 . S
C4524 C2487 1.574 . S
C4540 C2519 1.826 . S
C4535 C1482 2.049 . S
C4556 C2321 1.426 . S
C4551 C442 1.518 . S
C4567 C362 2.063 . S
C4572 C2231 1.839 . S
C4583 C1495 1.565 . S
C4588 C2551 1.562 . S
C4604 C2583 1.565 . S
C4599 C1402 1.525 . S
C4620 C2615 1.484 . S
C4615 C1695 1.560 . S
C4631 C1135 1.997 . S
C4636 C2641 1.866 . S
C4652 C2679 1.396 . S
C4647 C1722 1.498 . S
C4668 C2705 1.889 . S
C4663 C1655 2.031 . S
C4679 C1175 1.566 . S
C4684 C2743 1.450 . S
C4695 C1562 1.950 . S
C4700 C2769 1.847 . S
C4711 C1095 1.504 . S
C4716 C2807 1.421 . S
C4732 C2833 1.812 . S
C4727 C1615 1.943 . S
C4748 C2865 1.557 . S
C4743 C1602 1.556 . S
C4759 C1162 1.946 . S
C4764 C2897 1.832 . S
C4780 C2929 1.593 . S
C4775 C1575 1.554 . S
C4791 C1082 1.877 . S
C4796 C2967 2.010 . S
C4812 C2999 1.448 . S
C4807 C1122 1.570 . S
C4823 C1735 1.963 . S
C4828 C3031 2.024 . S
C4844 C3057 1.593 . S
C4839 C1642 1.595 . S
C4855 C1682 1.945 . S
C4860 C3089 1.852 . S
C4871 C1042 1.591 . S
C4876 C2961 1.589 . S
C4887 C1775 1.560 . S
C4892 C3121 1.562 . S
C4903 C1815 2.162 . S
C4908 C3159 2.243 . S
C4924 C3191 1.510 . S
C4919 C1842 1.638 . S
C4935 C1055 2.017 . S
C4940 C2993 1.850 . S
C4951 C975 1.636 . S
C4956 C2903 1.531 . S
C4972 C3223 2.252 . S
C4967 C1855 2.168 . S
C4983 C1762 1.940 . S
C4988 C3255 2.088 . S
C5004 C2103 1.877 . S
C4999 C215 2.028 . S
C5020 C2135 1.588 . S
C5015 C255 1.577 . S
C5036 C2161 2.207 . S
C5031 C282 2.184 . S
C5052 C2065 1.509 . S
C5047 C175 1.533 . S
C5068 C2039 1.918 . S
C5063 C135 2.087 . S
C5079 C15 1.533 . S
C5084 C1937 1.440 . S
C5095 C55 2.105 . S
C5100 C1969 2.179 . S
C5111 C82 1.567 . S
C5116 C2007 1.615 . S
C5127 C95 1.954 . S
C5132 C2577 2.064 . S
C5143 C122 1.515 . S
C5148 C3281 1.527 . S
C5159 C2 2.069 . S
C5164 C2545 2.070 . S
C5175 C42 1.518 . S
C5180 C3319 1.597 . S
C5191 C242 2.063 . S
C5196 C3351 1.849 . S
C5212 C2455 1.654 . S
C5207 C295 1.644 . S
C5223 C162 2.010 . S
C5228 C2481 2.031 . S
C5239 C202 1.561 . S
C5244 C2513 1.486 . S
C5260 C3313 2.034 . S
C5255 C1535 1.958 . S
C5271 C335 2.015 . S
C5276 C2353 2.089 . S
C5287 C375 1.566 . S
C5292 C2391 1.571 . S
C5303 C402 2.024 . S
C5308 C2423 1.778 . S
C5324 C3345 1.494 . S
C5319 C1522 1.500 . S
C5340 C3287 1.832 . S
C5335 C1442 2.048 . S
C5356 C2263 1.553 . S
C5351 C415 1.545 . S
C5367 C322 1.529 . S
C5372 C2199 1.574 . S
C5383 C815 1.574 . S
C5388 C2775 1.542 . S
C5399 C855 1.976 . S
C5404 C2801 1.837 . S
C5415 C882 1.499 . S
C5420 C2839 1.374 . S
C5431 C775 1.985 . S
C5436 C2737 1.812 . S
C5452 C2711 1.478 . S
C5447 C735 1.594 . S
C5468 C2609 1.810 . S
C5463 C602 1.916 . S
C5484 C2647 1.476 . S
C5479 C655 1.509 . S
C5495 C695 1.971 . S
C5500 C2673 1.848 . S
C5516 C3249 1.558 . S
C5511 C682 1.561 . S
C5527 C722 2.002 . S
C5532 C3377 1.904 . S
C5543 C615 1.592 . S
C5548 C3217 1.590 . S
C5564 C3415 2.029 . S
C5559 C642 1.928 . S
C5575 C842 1.581 . S
C5580 C3447 1.473 . S
C5596 C3127 1.986 . S
C5591 C895 1.897 . S
C5607 C762 1.584 . S
C5612 C3153 1.582 . S
C5623 C802 1.954 . S
C5628 C3185 1.848 . S
C5639 C1895 1.556 . S
C5644 C3409 1.597 . S
C5660 C3025 1.560 . S
C5655 C935 1.541 . S
C5671 C962 2.083 . S
C5676 C3063 2.224 . S
C5687 C1002 1.630 . S
C5692 C3095 1.556 . S
C5703 C1882 2.004 . S
C5708 C3441 1.914 . S
C5719 C1802 1.658 . S
C5724 C3383 1.589 . S
C5740 C2935 2.222 . S
C5735 C1015 2.118 . S
C5756 C2871 2.100 . S
C5751 C922 1.979 . S
