# Generated by pormake.
# Topology eea, (3,6)-cn, num edge types: 1
# Building blocks:
#     Node 0, Type 0, BuildingBlock: MIDCAF_clean_linker_0, # of connection points: 3
#     Node 1, Type 0, BuildingBlock: MIDCAF_clean_linker_0, # of connection points: 3
#     Node 2, Type 0, BuildingBlock: MIDCAF_clean_linker_0, # of connection points: 3
#     Node 3, Type 0, BuildingBlock: MIDCAF_clean_linker_0, # of connection points: 3
#     Node 4, Type 0, BuildingBlock: MIDCAF_clean_linker_0, # of connection points: 3
#     Node 5, Type 0, BuildingBlock: MIDCAF_clean_linker_0, # of connection points: 3
#     Node 6, Type 0, BuildingBlock: MIDCAF_clean_linker_0, # of connection points: 3
#     Node 7, Type 0, BuildingBlock: MIDCAF_clean_linker_0, # of connection points: 3
#     Node 8, Type 0, BuildingBlock: MIDCAF_clean_linker_0, # of connection points: 3
#     Node 9, Type 0, BuildingBlock: MIDCAF_clean_linker_0, # of connection points: 3
#     Node 10, Type 0, BuildingBlock: MIDCAF_clean_linker_0, # of connection points: 3
#     Node 11, Type 0, BuildingBlock: MIDCAF_clean_linker_0, # of connection points: 3
#     Node 12, Type 0, BuildingBlock: MIDCAF_clean_linker_0, # of connection points: 3
#     Node 13, Type 0, BuildingBlock: MIDCAF_clean_linker_0, # of connection points: 3
#     Node 14, Type 0, BuildingBlock: MIDCAF_clean_linker_0, # of connection points: 3
#     Node 15, Type 0, BuildingBlock: MIDCAF_clean_linker_0, # of connection points: 3
#     Node 16, Type 0, BuildingBlock: MIDCAF_clean_linker_0, # of connection points: 3
#     Node 17, Type 0, BuildingBlock: MIDCAF_clean_linker_0, # of connection points: 3
#     Node 18, Type 1, BuildingBlock: CIFDUS_clean_sbu_1, # of connection points: 6
#     Node 19, Type 1, BuildingBlock: CIFDUS_clean_sbu_1, # of connection points: 6
#     Node 20, Type 1, BuildingBlock: CIFDUS_clean_sbu_1, # of connection points: 6
#     Node 21, Type 1, BuildingBlock: CIFDUS_clean_sbu_1, # of connection points: 6
#     Node 22, Type 1, BuildingBlock: CIFDUS_clean_sbu_1, # of connection points: 6
#     Node 23, Type 1, BuildingBlock: CIFDUS_clean_sbu_1, # of connection points: 6
#     Node 24, Type 1, BuildingBlock: CIFDUS_clean_sbu_1, # of connection points: 6
#     Node 25, Type 1, BuildingBlock: CIFDUS_clean_sbu_1, # of connection points: 6
#     Node 26, Type 1, BuildingBlock: CIFDUS_clean_sbu_1, # of connection points: 6
#     Edge 27, Type (0, 1), BuildingBlock: AJUNOK_clean_linker_0, # of connection points: 2
#     Edge 28, Type (0, 1), BuildingBlock: AJUNOK_clean_linker_0, # of connection points: 2
#     Edge 29, Type (0, 1), BuildingBlock: AJUNOK_clean_linker_0, # of connection points: 2
#     Edge 30, Type (0, 1), BuildingBlock: AJUNOK_clean_linker_0, # of connection points: 2
#     Edge 31, Type (0, 1), BuildingBlock: AJUNOK_clean_linker_0, # of connection points: 2
#     Edge 32, Type (0, 1), BuildingBlock: AJUNOK_clean_linker_0, # of connection points: 2
#     Edge 33, Type (0, 1), BuildingBlock: AJUNOK_clean_linker_0, # of connection points: 2
#     Edge 34, Type (0, 1), BuildingBlock: AJUNOK_clean_linker_0, # of connection points: 2
#     Edge 35, Type (0, 1), BuildingBlock: AJUNOK_clean_linker_0, # of connection points: 2
#     Edge 36, Type (0, 1), BuildingBlock: AJUNOK_clean_linker_0, # of connection points: 2
#     Edge 37, Type (0, 1), BuildingBlock: AJUNOK_clean_linker_0, # of connection points: 2
#     Edge 38, Type (0, 1), BuildingBlock: AJUNOK_clean_linker_0, # of connection points: 2
#     Edge 39, Type (0, 1), BuildingBlock: AJUNOK_clean_linker_0, # of connection points: 2
#     Edge 40, Type (0, 1), BuildingBlock: AJUNOK_clean_linker_0, # of connection points: 2
#     Edge 41, Type (0, 1), BuildingBlock: AJUNOK_clean_linker_0, # of connection points: 2
#     Edge 42, Type (0, 1), BuildingBlock: AJUNOK_clean_linker_0, # of connection points: 2
#     Edge 43, Type (0, 1), BuildingBlock: AJUNOK_clean_linker_0, # of connection points: 2
#     Edge 44, Type (0, 1), BuildingBlock: AJUNOK_clean_linker_0, # of connection points: 2
#     Edge 45, Type (0, 1), BuildingBlock: AJUNOK_clean_linker_0, # of connection points: 2
#     Edge 46, Type (0, 1), BuildingBlock: AJUNOK_clean_linker_0, # of connection points: 2
#     Edge 47, Type (0, 1), BuildingBlock: AJUNOK_clean_linker_0, # of connection points: 2
#     Edge 48, Type (0, 1), BuildingBlock: AJUNOK_clean_linker_0, # of connection points: 2
#     Edge 49, Type (0, 1), BuildingBlock: AJUNOK_clean_linker_0, # of connection points: 2
#     Edge 50, Type (0, 1), BuildingBlock: AJUNOK_clean_linker_0, # of connection points: 2
#     Edge 51, Type (0, 1), BuildingBlock: AJUNOK_clean_linker_0, # of connection points: 2
#     Edge 52, Type (0, 1), BuildingBlock: AJUNOK_clean_linker_0, # of connection points: 2
#     Edge 53, Type (0, 1), BuildingBlock: AJUNOK_clean_linker_0, # of connection points: 2
#     Edge 54, Type (0, 1), BuildingBlock: AJUNOK_clean_linker_0, # of connection points: 2
#     Edge 55, Type (0, 1), BuildingBlock: AJUNOK_clean_linker_0, # of connection points: 2
#     Edge 56, Type (0, 1), BuildingBlock: AJUNOK_clean_linker_0, # of connection points: 2
#     Edge 57, Type (0, 1), BuildingBlock: AJUNOK_clean_linker_0, # of connection points: 2
#     Edge 58, Type (0, 1), BuildingBlock: AJUNOK_clean_linker_0, # of connection points: 2
#     Edge 59, Type (0, 1), BuildingBlock: AJUNOK_clean_linker_0, # of connection points: 2
#     Edge 60, Type (0, 1), BuildingBlock: AJUNOK_clean_linker_0, # of connection points: 2
#     Edge 61, Type (0, 1), BuildingBlock: AJUNOK_clean_linker_0, # of connection points: 2
#     Edge 62, Type (0, 1), BuildingBlock: AJUNOK_clean_linker_0, # of connection points: 2
#     Edge 63, Type (0, 1), BuildingBlock: AJUNOK_clean_linker_0, # of connection points: 2
#     Edge 64, Type (0, 1), BuildingBlock: AJUNOK_clean_linker_0, # of connection points: 2
#     Edge 65, Type (0, 1), BuildingBlock: AJUNOK_clean_linker_0, # of connection points: 2
#     Edge 66, Type (0, 1), BuildingBlock: AJUNOK_clean_linker_0, # of connection points: 2
#     Edge 67, Type (0, 1), BuildingBlock: AJUNOK_clean_linker_0, # of connection points: 2
#     Edge 68, Type (0, 1), BuildingBlock: AJUNOK_clean_linker_0, # of connection points: 2
#     Edge 69, Type (0, 1), BuildingBlock: AJUNOK_clean_linker_0, # of connection points: 2
#     Edge 70, Type (0, 1), BuildingBlock: AJUNOK_clean_linker_0, # of connection points: 2
#     Edge 71, Type (0, 1), BuildingBlock: AJUNOK_clean_linker_0, # of connection points: 2
#     Edge 72, Type (0, 1), BuildingBlock: AJUNOK_clean_linker_0, # of connection points: 2
#     Edge 73, Type (0, 1), BuildingBlock: AJUNOK_clean_linker_0, # of connection points: 2
#     Edge 74, Type (0, 1), BuildingBlock: AJUNOK_clean_linker_0, # of connection points: 2
#     Edge 75, Type (0, 1), BuildingBlock: AJUNOK_clean_linker_0, # of connection points: 2
#     Edge 76, Type (0, 1), BuildingBlock: AJUNOK_clean_linker_0, # of connection points: 2
#     Edge 77, Type (0, 1), BuildingBlock: AJUNOK_clean_linker_0, # of connection points: 2
#     Edge 78, Type (0, 1), BuildingBlock: AJUNOK_clean_linker_0, # of connection points: 2
#     Edge 79, Type (0, 1), BuildingBlock: AJUNOK_clean_linker_0, # of connection points: 2
#     Edge 80, Type (0, 1), BuildingBlock: AJUNOK_clean_linker_0, # of connection points: 2
# Relax obj value: 0.100
# Max RMSD: 0.184
# Mean RMSD: 0.094
data_MOF--net-eea--node1-CIFDUS_clean_sbu_1--node2-MIDCAF_clean_linker_0--edge1-AJUNOK_clean_linker_0
_symmetry_space_group_name_H-M    P1
_symmetry_Int_Tables_number       1
_symmetry_cell_setting            triclinic
loop_
_symmetry_equiv_pos_as_xyz
'x, y, z'
_cell_length_a     51.938873
_cell_length_b     51.544088
_cell_length_c     52.831744
_cell_angle_alpha  89.987382
_cell_angle_beta   89.973607
_cell_angle_gamma 120.06447
loop_
_atom_site_label
_atom_site_type_symbol
_atom_site_fract_x
_atom_site_fract_y
_atom_site_fract_z
_atom_type_partial_charge
C0 C 0.24385 0.02672 0.38369 0.0
C1 C 0.22281 0.01711 0.36418 0.0
C2 C 0.21458 0.03724 0.3542 0.0
C3 C 0.22763 0.06664 0.36328 0.0
H4 H 0.22499 0.14595 0.35881 0.0
H5 H 0.20641 0.1796 0.34746 0.0
H6 H 0.26502 0.24404 0.40235 0.0
H7 H 0.28369 0.21063 0.414 0.0
H8 H 0.30215 0.18557 0.46107 0.0
H9 H 0.31382 0.18688 0.50596 0.0
H10 H 0.30707 0.10029 0.49976 0.0
H11 H 0.29589 0.09878 0.45477 0.0
H12 H 0.27303 0.06249 0.40786 0.0
H13 H 0.25097 0.01187 0.39143 0.0
H14 H 0.19819 0.0303 0.33924 0.0
H15 H 0.22081 0.08159 0.35525 0.0
N16 N 0.25521 0.1273 0.38427 0.0
N17 N 0.27986 0.15923 0.41854 0.0
N18 N 0.27663 0.11247 0.41596 0.0
C19 C 0.26474 0.15392 0.39639 0.0
C20 C 0.28591 0.13858 0.42841 0.0
C21 C 0.26137 0.10655 0.39397 0.0
C22 C 0.25566 0.17541 0.38749 0.0
C23 C 0.23406 0.1673 0.36843 0.0
C24 C 0.22317 0.18636 0.3621 0.0
C25 C 0.23394 0.21396 0.37446 0.0
C26 C 0.25621 0.22264 0.39283 0.0
C27 C 0.26691 0.20351 0.39936 0.0
C28 C 0.2978 0.14196 0.45432 0.0
C29 C 0.30367 0.16703 0.46906 0.0
C30 C 0.31022 0.16777 0.49472 0.0
C31 C 0.31086 0.14346 0.50602 0.0
C32 C 0.30628 0.11902 0.49128 0.0
C33 C 0.30006 0.11837 0.46556 0.0
C34 C 0.24885 0.07629 0.38275 0.0
C35 C 0.25676 0.05594 0.39284 0.0
C36 C 0.97843 0.19916 0.39258 0.0
C37 C 0.98415 0.20215 0.36643 0.0
C38 C 0.96069 0.18519 0.3496 0.0
C39 C 0.93173 0.16672 0.35881 0.0
H40 H 0.85808 0.07418 0.35348 0.0
H41 H 0.82606 0.02225 0.33955 0.0
H42 H 0.76312 0.00859 0.39846 0.0
H43 H 0.79445 0.06016 0.41246 0.0
H44 H 0.82806 0.09378 0.46275 0.0
H45 H 0.81899 0.1007 0.50651 0.0
H46 H 0.86571 0.19669 0.49534 0.0
H47 H 0.87667 0.18969 0.45153 0.0
H48 H 0.9459 0.18023 0.42196 0.0
H49 H 0.99624 0.2114 0.40602 0.0
H50 H 0.96451 0.18713 0.32935 0.0
H51 H 0.91385 0.15431 0.34549 0.0
N52 N 0.87595 0.12048 0.38358 0.0
N53 N 0.84171 0.10998 0.4163 0.0
N54 N 0.88768 0.15437 0.4174 0.0
C55 C 0.84896 0.10193 0.39422 0.0
C56 C 0.86066 0.136 0.42797 0.0
C57 C 0.89536 0.1468 0.39505 0.0
C58 C 0.82903 0.0714 0.3842 0.0
C59 C 0.83751 0.06015 0.36356 0.0
C60 C 0.8195 0.03038 0.35582 0.0
C61 C 0.79291 0.01141 0.36868 0.0
C62 C 0.7841 0.02264 0.38893 0.0
C63 C 0.80194 0.05232 0.39662 0.0
C64 C 0.8534 0.14124 0.4538 0.0
C65 C 0.83633 0.11643 0.46953 0.0
C66 C 0.83095 0.12034 0.49465 0.0
C67 C 0.84206 0.14918 0.50466 0.0
C68 C 0.85776 0.17413 0.4885 0.0
C69 C 0.86386 0.17021 0.46339 0.0
C70 C 0.92583 0.16536 0.38494 0.0
C71 C 0.94958 0.18141 0.4017 0.0
C72 C 0.78008 0.74584 0.38081 0.0
C73 C 0.78744 0.76404 0.3593 0.0
C74 C 0.81466 0.7733 0.347 0.0
C75 C 0.8345 0.7647 0.35654 0.0
H76 H 0.92004 0.77707 0.34995 0.0
H77 H 0.96917 0.79354 0.33165 0.0
H78 H 0.98518 0.74298 0.38823 0.0
H79 H 0.9364 0.72668 0.40687 0.0
H80 H 0.89949 0.71971 0.4631 0.0
H81 H 0.8876 0.70566 0.5079 0.0
H82 H 0.79849 0.68885 0.49595 0.0
H83 H 0.80978 0.70264 0.45166 0.0
H84 H 0.79334 0.72388 0.40735 0.0
H85 H 0.75928 0.73866 0.39068 0.0
H86 H 0.8206 0.78731 0.33028 0.0
H87 H 0.85559 0.77245 0.34703 0.0
N88 N 0.8752 0.74718 0.3797 0.0
N89 N 0.88898 0.7303 0.41593 0.0
N90 N 0.84312 0.72845 0.41441 0.0
C91 C 0.89525 0.74204 0.39204 0.0
C92 C 0.86274 0.72341 0.42719 0.0
C93 C 0.84896 0.74023 0.39082 0.0
C94 C 0.92429 0.75065 0.38002 0.0
C95 C 0.93392 0.76928 0.35846 0.0
C96 C 0.96202 0.77882 0.34797 0.0
C97 C 0.98073 0.76944 0.35853 0.0
C98 C 0.97094 0.75031 0.37967 0.0
C99 C 0.94308 0.74111 0.39038 0.0
C100 C 0.85574 0.7126 0.45374 0.0
C101 C 0.87736 0.71293 0.46999 0.0
C102 C 0.8707 0.70518 0.49559 0.0
C103 C 0.84235 0.69686 0.50517 0.0
C104 C 0.82058 0.69565 0.48892 0.0
C105 C 0.82717 0.70348 0.46353 0.0
C106 C 0.82742 0.74713 0.37864 0.0
C107 C 0.79975 0.73749 0.39037 0.0
C108 C 0.02972 0.24461 0.62071 0.0
C109 C 0.021 0.22699 0.64272 0.0
C110 C 0.04155 0.22169 0.65541 0.0
C111 C 0.0704 0.23341 0.6459 0.0
H112 H 0.13995 0.22328 0.65483 0.0
H113 H 0.16948 0.20419 0.67487 0.0
H114 H 0.24 0.25281 0.62109 0.0
H115 H 0.21044 0.27185 0.60045 0.0
H116 H 0.18432 0.28255 0.5444 0.0
H117 H 0.18998 0.29619 0.4997 0.0
H118 H 0.12173 0.3202 0.50686 0.0
H119 H 0.11536 0.30573 0.55134 0.0
H120 H 0.06427 0.26902 0.59367 0.0
H121 H 0.01402 0.24891 0.61071 0.0
H122 H 0.03519 0.20828 0.67251 0.0
H123 H 0.08564 0.22856 0.65601 0.0
N124 N 0.12758 0.25294 0.6237 0.0
N125 N 0.16109 0.27267 0.5898 0.0
N126 N 0.1163 0.27361 0.58896 0.0
C127 C 0.15378 0.25917 0.61295 0.0
C128 C 0.14248 0.28014 0.57772 0.0
C129 C 0.10872 0.26003 0.61199 0.0
C130 C 0.17271 0.24906 0.62582 0.0
C131 C 0.16178 0.2301 0.64718 0.0
C132 C 0.17855 0.21903 0.65871 0.0
C133 C 0.20673 0.22693 0.64937 0.0
C134 C 0.21815 0.24638 0.6285 0.0
C135 C 0.20124 0.25724 0.61672 0.0
C136 C 0.14908 0.29258 0.55151 0.0
C137 C 0.17082 0.29118 0.5366 0.0
C138 C 0.17423 0.29922 0.51093 0.0
C139 C 0.15625 0.3092 0.4996 0.0
C140 C 0.13567 0.31219 0.51488 0.0
C141 C 0.13207 0.30392 0.54044 0.0
C142 C 0.07907 0.2503 0.62331 0.0
C143 C 0.05846 0.25611 0.61102 0.0
C144 C 0.76421 0.79075 0.61265 0.0
C145 C 0.77757 0.79625 0.63653 0.0
C146 C 0.78004 0.82021 0.65111 0.0
C147 C 0.76841 0.83779 0.64227 0.0
H148 H 0.76681 0.92084 0.65526 0.0
H149 H 0.79012 0.97445 0.66516 0.0
H150 H 0.75725 0.98896 0.59451 0.0
H151 H 0.73176 0.93637 0.58618 0.0
H152 H 0.69863 0.89414 0.55109 0.0
H153 H 0.68984 0.89342 0.50605 0.0
H154 H 0.69513 0.81281 0.49857 0.0
H155 H 0.70535 0.81408 0.54386 0.0
H156 H 0.74175 0.80291 0.58548 0.0
H157 H 0.76164 0.77209 0.60131 0.0
H158 H 0.7901 0.82464 0.66974 0.0
H159 H 0.77014 0.8557 0.65417 0.0
N160 N 0.74689 0.87566 0.62109 0.0
N161 N 0.72039 0.8842 0.58961 0.0
N162 N 0.72537 0.84182 0.58719 0.0
C163 C 0.73646 0.89302 0.61122 0.0
C164 C 0.71486 0.85899 0.57732 0.0
C165 C 0.74101 0.8497 0.60926 0.0
C166 C 0.7474 0.92413 0.61994 0.0
C167 C 0.76395 0.93549 0.6423 0.0
C168 C 0.77762 0.96624 0.64774 0.0
C169 C 0.77551 0.98614 0.63063 0.0
C170 C 0.75862 0.97447 0.6086 0.0
C171 C 0.74416 0.94396 0.6037 0.0
C172 C 0.7033 0.85444 0.55113 0.0
C173 C 0.69774 0.87602 0.54005 0.0
C174 C 0.69273 0.87573 0.51415 0.0
C175 C 0.69275 0.85366 0.49872 0.0
C176 C 0.69616 0.83079 0.50994 0.0
C177 C 0.70153 0.83124 0.53593 0.0
C178 C 0.75401 0.83166 0.61868 0.0
C179 C 0.75245 0.80819 0.60383 0.0
C180 C 0.22 0.96837 0.62236 0.0
C181 C 0.20957 0.9793 0.64173 0.0
C182 C 0.1813 0.96031 0.65223 0.0
C183 C 0.16381 0.93092 0.6435 0.0
H184 H 0.08683 0.84631 0.65738 0.0
H185 H 0.03672 0.81237 0.67367 0.0
H186 H 0.01513 0.7615 0.60424 0.0
H187 H 0.06475 0.7943 0.58835 0.0
H188 H 0.10959 0.81438 0.54228 0.0
H189 H 0.12131 0.81165 0.49771 0.0
H190 H 0.20347 0.89554 0.50502 0.0
H191 H 0.19254 0.89839 0.54937 0.0
H192 H 0.21127 0.93158 0.59842 0.0
H193 H 0.2419 0.98232 0.61426 0.0
H194 H 0.17262 0.96826 0.66709 0.0
H195 H 0.14197 0.91699 0.65168 0.0
N196 N 0.12835 0.87022 0.62297 0.0
N197 N 0.11676 0.83955 0.58694 0.0
N198 N 0.16148 0.88508 0.58884 0.0
C199 C 0.10942 0.84445 0.61054 0.0
C200 C 0.14288 0.85985 0.57602 0.0
C201 C 0.15457 0.89057 0.61216 0.0
C202 C 0.07988 0.82316 0.62146 0.0
C203 C 0.07141 0.82774 0.64567 0.0
C204 C 0.04266 0.80851 0.65497 0.0
C205 C 0.02196 0.78443 0.64018 0.0
C206 C 0.03067 0.77972 0.61621 0.0
C207 C 0.05921 0.79866 0.60705 0.0
C208 C 0.15006 0.85661 0.54948 0.0
C209 C 0.1302 0.83219 0.53447 0.0
C210 C 0.13672 0.83072 0.50899 0.0
C211 C 0.16299 0.85374 0.49815 0.0
C212 C 0.18287 0.87791 0.51302 0.0
C213 C 0.17658 0.87928 0.53846 0.0
C214 C 0.1741 0.92016 0.62381 0.0
C215 C 0.20252 0.93915 0.61353 0.0
C216 C 0.89899 0.35753 0.72277 0.0
C217 C 0.88379 0.35053 0.69966 0.0
C218 C 0.88297 0.37333 0.68572 0.0
C219 C 0.89747 0.40277 0.69467 0.0
H220 H 0.89299 0.4797 0.69034 0.0
H221 H 0.8732 0.5121 0.67848 0.0
H222 H 0.92778 0.57605 0.73548 0.0
H223 H 0.94802 0.54416 0.74725 0.0
H224 H 0.93246 0.49413 0.80035 0.0
H225 H 0.94081 0.49245 0.8453 0.0
H226 H -0.00029 0.4578 0.82934 0.0
H227 H 0.98881 0.45684 0.78415 0.0
H228 H 0.92529 0.39141 0.74952 0.0
H229 H 0.90073 0.34053 0.73347 0.0
H230 H 0.87173 0.36847 0.6676 0.0
H231 H 0.89657 0.41991 0.68347 0.0
N232 N 0.92199 0.46148 0.71757 0.0
N233 N 0.94556 0.49357 0.75184 0.0
N234 N 0.94194 0.44652 0.75048 0.0
C235 C 0.93138 0.48823 0.72925 0.0
C236 C 0.95116 0.47295 0.76238 0.0
C237 C 0.92729 0.44055 0.72809 0.0
C238 C 0.92199 0.50922 0.71986 0.0
C239 C 0.90102 0.50077 0.70022 0.0
C240 C 0.88938 0.51907 0.69363 0.0
C241 C 0.89868 0.54622 0.70639 0.0
C242 C 0.9202 0.55511 0.72548 0.0
C243 C 0.93181 0.53684 0.73212 0.0
C244 C 0.96031 0.47594 0.78893 0.0
C245 C 0.94734 0.48633 0.80647 0.0
C246 C 0.95203 0.48519 0.83224 0.0
C247 C 0.97068 0.47466 0.84106 0.0
C248 C 0.98438 0.46503 0.82334 0.0
C249 C 0.97874 0.46511 0.79747 0.0
C250 C 0.91315 0.40988 0.71767 0.0
C251 C 0.91359 0.38687 0.73166 0.0
C252 C 0.64024 0.54781 0.71687 0.0
C253 C 0.64819 0.54025 0.69377 0.0
C254 C 0.62721 0.51502 0.68045 0.0
C255 C 0.59857 0.49746 0.69024 0.0
H256 H 0.53302 0.41413 0.68649 0.0
H257 H 0.5065 0.36288 0.67139 0.0
H258 H 0.43035 0.34608 0.71673 0.0
H259 H 0.45781 0.39696 0.73336 0.0
H260 H 0.47983 0.43265 0.78879 0.0
H261 H 0.47145 0.43857 0.83335 0.0
H262 H 0.55291 0.52396 0.83481 0.0
H263 H 0.56132 0.51845 0.7903 0.0
H264 H 0.60651 0.53651 0.74475 0.0
H265 H 0.65629 0.56718 0.72751 0.0
H266 H 0.63289 0.50902 0.6625 0.0
H267 H 0.58284 0.47794 0.67959 0.0
N268 N 0.54193 0.45916 0.71278 0.0
N269 N 0.50883 0.44466 0.74692 0.0
N270 N 0.55394 0.49029 0.74824 0.0
C271 C 0.51583 0.43901 0.72356 0.0
C272 C 0.52774 0.47036 0.75938 0.0
C273 C 0.56106 0.48484 0.72484 0.0
C274 C 0.49773 0.40941 0.7116 0.0
C275 C 0.51061 0.39954 0.69332 0.0
C276 C 0.49543 0.37007 0.68464 0.0
C277 C 0.46678 0.34993 0.69365 0.0
C278 C 0.45305 0.36048 0.71051 0.0
C279 C 0.46854 0.38979 0.7197 0.0
C280 C 0.52135 0.47501 0.78587 0.0
C281 C 0.49591 0.45282 0.79851 0.0
C282 C 0.49116 0.45603 0.8241 0.0
C283 C 0.51167 0.48152 0.83758 0.0
C284 C 0.53668 0.50407 0.82484 0.0
C285 C 0.5415 0.50086 0.79931 0.0
C286 C 0.59061 0.50477 0.7136 0.0
C287 C 0.61175 0.53027 0.72671 0.0
C288 C 0.45143 0.0896 0.71259 0.0
C289 C 0.45944 0.10545 0.6897 0.0
C290 C 0.48256 0.1065 0.6752 0.0
C291 C 0.49873 0.09339 0.68439 0.0
H292 H 0.58079 0.10068 0.67703 0.0
H293 H 0.6317 0.12142 0.66137 0.0
H294 H 0.65213 0.08198 0.72466 0.0
H295 H 0.60154 0.06129 0.7405 0.0
H296 H 0.55955 0.0416 0.78967 0.0
H297 H 0.54971 0.02756 0.83444 0.0
H298 H 0.46606 0.02576 0.82942 0.0
H299 H 0.47534 0.03952 0.78473 0.0
H300 H 0.46101 0.0652 0.73986 0.0
H301 H 0.43344 0.08836 0.72392 0.0
H302 H 0.48889 0.11853 0.65739 0.0
H303 H 0.51731 0.09559 0.67336 0.0
N304 N 0.53773 0.0757 0.70917 0.0
N305 N 0.55076 0.05839 0.7454 0.0
N306 N 0.5054 0.05773 0.74389 0.0
C307 C 0.55739 0.07007 0.72155 0.0
C308 C 0.52469 0.05205 0.75668 0.0
C309 C 0.5116 0.06944 0.72018 0.0
C310 C 0.58706 0.0796 0.71029 0.0
C311 C 0.59598 0.09608 0.6875 0.0
C312 C 0.62511 0.10795 0.67843 0.0
C313 C 0.64586 0.10362 0.69199 0.0
C314 C 0.63662 0.08605 0.71408 0.0
C315 C 0.60759 0.07413 0.7231 0.0
C316 C 0.51834 0.04185 0.78348 0.0
C317 C 0.53901 0.03817 0.79799 0.0
C318 C 0.53353 0.03034 0.82362 0.0
C319 C 0.50741 0.02618 0.83522 0.0
C320 C 0.48654 0.02935 0.82084 0.0
C321 C 0.4919 0.03705 0.79522 0.0
C322 C 0.49184 0.07898 0.70815 0.0
C323 C 0.46728 0.07634 0.72166 0.0
C324 C 0.69411 0.55392 0.94669 0.0
C325 C 0.68752 0.55406 0.97253 0.0
C326 C 0.7113 0.56697 0.98988 0.0
C327 C 0.74082 0.57954 0.98145 0.0
H328 H 0.82202 0.57108 0.99461 0.0
H329 H 0.85627 0.55495 0.01072 0.0
H330 H 0.90859 0.58821 0.94245 0.0
H331 H 0.876 0.60504 0.92704 0.0
H332 H 0.84628 0.60718 0.87872 0.0
H333 H 0.85422 0.62051 0.83418 0.0
H334 H 0.80302 0.66521 0.84179 0.0
H335 H 0.79321 0.64977 0.88623 0.0
H336 H 0.72752 0.5672 0.91817 0.0
H337 H 0.67653 0.54372 0.93275 0.0
H338 H 0.70731 0.56831 0.00981 0.0
H339 H 0.75875 0.58939 0.99512 0.0
N340 N 0.79802 0.58886 0.95856 0.0
N341 N 0.83164 0.61105 0.92505 0.0
N342 N 0.78489 0.60703 0.92275 0.0
C343 C 0.82511 0.59764 0.9481 0.0
C344 C 0.81197 0.61604 0.91231 0.0
C345 C 0.77785 0.59361 0.94595 0.0
C346 C 0.84618 0.58946 0.95953 0.0
C347 C 0.84108 0.5752 0.98326 0.0
C348 C 0.86049 0.56574 0.99239 0.0
C349 C 0.88513 0.57031 0.97785 0.0
C350 C 0.89014 0.58477 0.95436 0.0
C351 C 0.87121 0.59438 0.94545 0.0
C352 C 0.81872 0.62704 0.88589 0.0
C353 C 0.83673 0.61992 0.87093 0.0
C354 C 0.84143 0.62769 0.84535 0.0
C355 C 0.82869 0.64327 0.83408 0.0
C356 C 0.81212 0.65203 0.84949 0.0
C357 C 0.80672 0.6435 0.87502 0.0
C358 C 0.74707 0.5804 0.95548 0.0
C359 C 0.72342 0.56741 0.93826 0.0
C360 C 0.41685 0.11257 0.95025 0.0
C361 C 0.44019 0.12458 0.96802 0.0
C362 C 0.44932 0.15306 0.97819 0.0
C363 C 0.43563 0.16916 0.97088 0.0
H364 H 0.45378 0.25299 0.97086 0.0
H365 H 0.48022 0.30567 0.9822 0.0
H366 H 0.40536 0.31386 0.95718 0.0
H367 H 0.37979 0.26138 0.94388 0.0
H368 H 0.36864 0.23002 0.88488 0.0
H369 H 0.35689 0.22822 0.84016 0.0
H370 H 0.34755 0.14056 0.8342 0.0
H371 H 0.35953 0.14196 0.87932 0.0
H372 H 0.38585 0.11944 0.92852 0.0
H373 H 0.4085 0.09024 0.94271 0.0
H374 H 0.46722 0.16309 0.99186 0.0
H375 H 0.44358 0.19107 0.9792 0.0
N376 N 0.40864 0.20275 0.95561 0.0
N377 N 0.38537 0.21578 0.92441 0.0
N378 N 0.38517 0.17024 0.92147 0.0
C379 C 0.40098 0.2224 0.94625 0.0
C380 C 0.37734 0.18985 0.91183 0.0
C381 C 0.40062 0.1765 0.94359 0.0
C382 C 0.4146 0.25301 0.95667 0.0
C383 C 0.44278 0.26592 0.96805 0.0
C384 C 0.45796 0.29619 0.97459 0.0
C385 C 0.44487 0.31406 0.97085 0.0
C386 C 0.41632 0.3009 0.95998 0.0
C387 C 0.40146 0.27075 0.95272 0.0
C388 C 0.36532 0.18619 0.88579 0.0
C389 C 0.36363 0.21001 0.87435 0.0
C390 C 0.35698 0.20916 0.84872 0.0
C391 C 0.35167 0.18447 0.83402 0.0
C392 C 0.35187 0.15994 0.84539 0.0
C393 C 0.35861 0.16075 0.87115 0.0
C394 C 0.41283 0.15762 0.95267 0.0
C395 C 0.4035 0.12908 0.94244 0.0
C396 C 0.88189 0.30062 0.95483 0.0
C397 C 0.86947 0.31053 0.9734 0.0
C398 C 0.84224 0.28984 0.98458 0.0
C399 C 0.82751 0.25989 0.97716 0.0
H400 H 0.7573 0.17721 0.99414 0.0
H401 H 0.70625 0.14865 0.00976 0.0
H402 H 0.68108 0.0935 0.94275 0.0
H403 H 0.73184 0.12192 0.92684 0.0
H404 H 0.77718 0.14155 0.87972 0.0
H405 H 0.78756 0.13894 0.83482 0.0
H406 H 0.87032 0.22242 0.84117 0.0
H407 H 0.86077 0.2251 0.8859 0.0
H408 H 0.87702 0.26382 0.93262 0.0
H409 H 0.90338 0.31583 0.94657 0.0
H410 H 0.83235 0.29685 0.99916 0.0
H411 H 0.80634 0.24466 0.98589 0.0
N412 N 0.79649 0.19898 0.95912 0.0
N413 N 0.78537 0.16679 0.92432 0.0
N414 N 0.82924 0.2134 0.92489 0.0
C415 C 0.77811 0.17244 0.94767 0.0
C416 C 0.81118 0.18723 0.91294 0.0
C417 C 0.82212 0.21953 0.94785 0.0
C418 C 0.74861 0.15217 0.95899 0.0
C419 C 0.74101 0.15876 0.98282 0.0
C420 C 0.71185 0.14246 0.99186 0.0
C421 C 0.68986 0.11938 0.9772 0.0
C422 C 0.69771 0.11166 0.95413 0.0
C423 C 0.72681 0.12782 0.94512 0.0
C424 C 0.81807 0.18353 0.88648 0.0
C425 C 0.79773 0.15918 0.87168 0.0
C426 C 0.80351 0.15777 0.84603 0.0
C427 C 0.82952 0.18075 0.83484 0.0
C428 C 0.84999 0.20476 0.84951 0.0
C429 C 0.84446 0.20605 0.87514 0.0
C430 C 0.83955 0.2501 0.95814 0.0
C431 C 0.86702 0.27071 0.94721 0.0
C432 C 0.57319 0.69383 0.04373 0.0
C433 C 0.54666 0.68315 0.02984 0.0
C434 C 0.53658 0.70323 0.0241 0.0
C435 C 0.55236 0.73303 0.03236 0.0
H436 H 0.56726 0.82095 0.02047 0.0
H437 H 0.54607 0.8526 0.01076 0.0
H438 H 0.57952 0.89947 0.08156 0.0
H439 H 0.60184 0.86888 0.09084 0.0
H440 H 0.62955 0.8473 0.13053 0.0
H441 H 0.63926 0.84595 0.17552 0.0
H442 H 0.63398 0.7603 0.16561 0.0
H443 H 0.625 0.76176 0.12057 0.0
H444 H 0.60861 0.73066 0.06353 0.0
H445 H 0.58202 0.67923 0.048 0.0
H446 H 0.51606 0.69577 0.01378 0.0
H447 H 0.54349 0.74761 0.02817 0.0
N448 N 0.58646 0.79472 0.05079 0.0
N449 N 0.60981 0.82406 0.08659 0.0
N450 N 0.60641 0.77731 0.08179 0.0
C451 C 0.59561 0.82046 0.06416 0.0
C452 C 0.61539 0.80267 0.09553 0.0
C453 C 0.59203 0.77314 0.0594 0.0
C454 C 0.58604 0.84208 0.05657 0.0
C455 C 0.57046 0.83825 0.03385 0.0
C456 C 0.55802 0.85618 0.0284 0.0
C457 C 0.56071 0.87828 0.04558 0.0
C458 C 0.57718 0.88282 0.06785 0.0
C459 C 0.58992 0.86514 0.07318 0.0
C460 C 0.62602 0.8044 0.12188 0.0
C461 C 0.63078 0.82829 0.13781 0.0
C462 C 0.63594 0.82736 0.16368 0.0
C463 C 0.63638 0.80252 0.17417 0.0
C464 C 0.63337 0.77953 0.15807 0.0
C465 C 0.62828 0.78045 0.13222 0.0
C466 C 0.57821 0.74328 0.04709 0.0
C467 C 0.58867 0.72344 0.05237 0.0
C468 C 0.30779 0.87875 0.04945 0.0
C469 C 0.31464 0.87147 0.02572 0.0
C470 C 0.29297 0.84619 0.01281 0.0
C471 C 0.26469 0.82857 0.02349 0.0
H472 H 0.19097 0.73991 0.02394 0.0
H473 H 0.15777 0.68681 0.01428 0.0
H474 H 0.08989 0.68617 0.06189 0.0
H475 H 0.1224 0.73904 0.07105 0.0
H476 H 0.14292 0.77402 0.1187 0.0
H477 H 0.13305 0.77602 0.16307 0.0
H478 H 0.22128 0.8519 0.173 0.0
H479 H 0.23197 0.84954 0.12799 0.0
H480 H 0.27542 0.86759 0.07849 0.0
H481 H 0.32431 0.89809 0.05983 0.0
H482 H 0.29775 0.84036 0.99439 0.0
H483 H 0.24829 0.80924 0.01305 0.0
N484 N 0.20759 0.79131 0.04752 0.0
N485 N 0.1749 0.78143 0.08127 0.0
N486 N 0.2219 0.82438 0.08224 0.0
C487 C 0.18076 0.77351 0.05858 0.0
C488 C 0.19508 0.80654 0.09337 0.0
C489 C 0.22815 0.81706 0.05908 0.0
C490 C 0.1595 0.74354 0.04856 0.0
C491 C 0.16882 0.72854 0.03201 0.0
C492 C 0.15007 0.69807 0.02689 0.0
C493 C 0.12177 0.68224 0.03818 0.0
C494 C 0.11183 0.69772 0.05339 0.0
C495 C 0.13046 0.72803 0.05851 0.0
C496 C 0.18845 0.81148 0.11966 0.0
C497 C 0.16036 0.79144 0.13005 0.0
C498 C 0.15451 0.79258 0.15557 0.0
C499 C 0.17636 0.81402 0.17142 0.0
C500 C 0.20416 0.83491 0.1611 0.0
C501 C 0.21016 0.83371 0.13535 0.0
C502 C 0.25778 0.83592 0.04731 0.0
C503 C 0.27974 0.86124 0.06012 0.0
C504 C 0.11667 0.41769 0.04883 0.0
C505 C 0.12288 0.43152 0.02499 0.0
C506 C 0.14774 0.43539 0.01138 0.0
C507 C 0.1663 0.4257 0.02176 0.0
H508 H 0.25061 0.44121 0.01726 0.0
H509 H 0.30007 0.45981 0.99912 0.0
H510 H 0.31834 0.41008 0.05491 0.0
H511 H 0.26911 0.39165 0.07351 0.0
H512 H 0.23412 0.39152 0.13107 0.0
H513 H 0.22363 0.37811 0.17572 0.0
H514 H 0.13026 0.34541 0.16253 0.0
H515 H 0.14082 0.35982 0.11825 0.0
H516 H 0.12961 0.39793 0.07776 0.0
H517 H 0.09777 0.41479 0.05981 0.0
H518 H 0.15277 0.44585 0.99288 0.0
H519 H 0.18557 0.4292 0.01106 0.0
N520 N 0.20684 0.41082 0.04698 0.0
N521 N 0.22092 0.39429 0.08308 0.0
N522 N 0.17497 0.39249 0.08186 0.0
C523 C 0.22695 0.4058 0.05916 0.0
C524 C 0.19474 0.38742 0.09448 0.0
C525 C 0.18081 0.40418 0.05818 0.0
C526 C 0.25598 0.41511 0.04704 0.0
C527 C 0.26502 0.43401 0.02563 0.0
C528 C 0.2933 0.44477 0.01522 0.0
C529 C 0.31278 0.43641 0.02576 0.0
C530 C 0.30349 0.41673 0.04651 0.0
C531 C 0.27541 0.4063 0.05718 0.0
C532 C 0.18837 0.37692 0.12109 0.0
C533 C 0.21136 0.38143 0.13768 0.0
C534 C 0.20534 0.37385 0.16329 0.0
C535 C 0.17616 0.36127 0.17283 0.0
C536 C 0.1531 0.35603 0.15607 0.0
C537 C 0.15915 0.36394 0.13056 0.0
C538 C 0.16023 0.41222 0.0459 0.0
C539 C 0.135 0.40806 0.05912 0.0
C540 C 0.36501 0.91477 0.29133 0.0
C541 C 0.35637 0.89595 0.31263 0.0
C542 C 0.377 0.88994 0.32431 0.0
C543 C 0.40568 0.90185 0.31433 0.0
H544 H 0.49001 0.90706 0.32695 0.0
H545 H 0.52467 0.89063 0.34181 0.0
H546 H 0.56385 0.90703 0.26731 0.0
H547 H 0.53058 0.92356 0.2527 0.0
H548 H 0.51817 0.95018 0.21362 0.0
H549 H 0.52662 0.96283 0.16928 0.0
H550 H 0.45768 0.98633 0.17007 0.0
H551 H 0.44798 0.97216 0.21488 0.0
H552 H 0.39915 0.94001 0.2642 0.0
H553 H 0.34929 0.91961 0.28205 0.0
H554 H 0.37075 0.87562 0.34086 0.0
H555 H 0.4209 0.89628 0.32355 0.0
N556 N 0.46241 0.92154 0.29081 0.0
N557 N 0.49398 0.94101 0.2559 0.0
N558 N 0.44963 0.94223 0.25651 0.0
C559 C 0.48792 0.92759 0.27882 0.0
C560 C 0.4753 0.94842 0.24446 0.0
C561 C 0.44318 0.92895 0.27988 0.0
C562 C 0.50784 0.91717 0.28877 0.0
C563 C 0.50613 0.90718 0.31387 0.0
C564 C 0.52575 0.89768 0.32234 0.0
C565 C 0.54713 0.89814 0.30574 0.0
C566 C 0.548 0.90714 0.28061 0.0
C567 C 0.52884 0.91669 0.27229 0.0
C568 C 0.48193 0.95962 0.21793 0.0
C569 C 0.50471 0.95815 0.20461 0.0
C570 C 0.50978 0.96556 0.17903 0.0
C571 C 0.49247 0.97496 0.1659 0.0
C572 C 0.47076 0.97814 0.17944 0.0
C573 C 0.46534 0.97027 0.20516 0.0
C574 C 0.41407 0.91957 0.2922 0.0
C575 C 0.39353 0.92637 0.28113 0.0
C576 C 0.10131 0.4568 0.28631 0.0
C577 C 0.11976 0.46907 0.30772 0.0
C578 C 0.11955 0.49283 0.32048 0.0
C579 C 0.10192 0.50432 0.31199 0.0
H580 H 0.11769 0.58429 0.30595 0.0
H581 H 0.14439 0.6375 0.31422 0.0
H582 H 0.06833 0.64357 0.28897 0.0
H583 H 0.04259 0.59026 0.27823 0.0
H584 H 0.04796 0.56487 0.21646 0.0
H585 H 0.03677 0.5633 0.17178 0.0
H586 H 0.01542 0.47112 0.16816 0.0
H587 H 0.02746 0.4725 0.21346 0.0
H588 H 0.07073 0.45949 0.26049 0.0
H589 H 0.09987 0.43762 0.27661 0.0
H590 H 0.13328 0.50287 0.33704 0.0
H591 H 0.10287 0.52281 0.3225 0.0
N592 N 0.07376 0.53391 0.29184 0.0
N593 N 0.05221 0.54593 0.25864 0.0
N594 N 0.05684 0.50289 0.25602 0.0
C595 C 0.06527 0.55245 0.28162 0.0
C596 C 0.04777 0.5213 0.24564 0.0
C597 C 0.0696 0.50905 0.27951 0.0
C598 C 0.07801 0.58313 0.29148 0.0
C599 C 0.10649 0.59688 0.30233 0.0
C600 C 0.12194 0.62755 0.30692 0.0
C601 C 0.10894 0.64519 0.30168 0.0
C602 C 0.07968 0.63107 0.29211 0.0
C603 C 0.06457 0.6004 0.28659 0.0
C604 C 0.0386 0.51869 0.21872 0.0
C605 C 0.0408 0.54404 0.20643 0.0
C606 C 0.03466 0.5434 0.18073 0.0
C607 C 0.02569 0.51733 0.16672 0.0
C608 C 0.02266 0.49161 0.17878 0.0
C609 C 0.02941 0.49236 0.20461 0.0
C610 C 0.08447 0.49309 0.28995 0.0
C611 C 0.08407 0.46889 0.27735 0.0
C612 C 0.55725 0.63633 0.28107 0.0
C613 C 0.54741 0.64933 0.29916 0.0
C614 C 0.52148 0.63042 0.31314 0.0
C615 C 0.50451 0.5997 0.30765 0.0
H616 H 0.42295 0.51013 0.32462 0.0
H617 H 0.37174 0.47573 0.339 0.0
H618 H 0.35079 0.43351 0.26545 0.0
H619 H 0.40099 0.46623 0.25163 0.0
H620 H 0.44325 0.48411 0.20846 0.0
H621 H 0.45303 0.48364 0.16326 0.0
H622 H 0.54459 0.55201 0.17478 0.0
H623 H 0.53522 0.55232 0.21992 0.0
H624 H 0.54871 0.59693 0.26118 0.0
H625 H 0.57732 0.64998 0.27026 0.0
H626 H 0.51405 0.63941 0.32816 0.0
H627 H 0.48399 0.5861 0.31793 0.0
N628 N 0.4662 0.53751 0.28913 0.0
N629 N 0.45483 0.5046 0.25466 0.0
N630 N 0.50055 0.54881 0.25618 0.0
C631 C 0.44694 0.51123 0.27728 0.0
C632 C 0.48161 0.52319 0.24405 0.0
C633 C 0.49334 0.55639 0.27854 0.0
C634 C 0.41631 0.49098 0.287 0.0
C635 C 0.40732 0.49339 0.31164 0.0
C636 C 0.37796 0.47386 0.31981 0.0
C637 C 0.35713 0.45181 0.30338 0.0
C638 C 0.36628 0.44981 0.2788 0.0
C639 C 0.3953 0.46882 0.27083 0.0
C640 C 0.48835 0.51861 0.21777 0.0
C641 C 0.46559 0.49872 0.20147 0.0
C642 C 0.47104 0.49873 0.17555 0.0
C643 C 0.49933 0.51854 0.16554 0.0
C644 C 0.5225 0.5369 0.18202 0.0
C645 C 0.51707 0.53698 0.20786 0.0
C646 C 0.51339 0.58718 0.28832 0.0
C647 C 0.54064 0.60572 0.27587 0.0
O648 O 0.45714 0.96244 0.99679 0.0
Mn649 Mn 0.50102 0.99689 -0.00042 0.0
O650 O 0.44154 0.97361 0.03188 0.0
Mn651 Mn 0.47377 0.01214 0.03371 0.0
O652 O 0.54526 0.03127 0.00148 0.0
O653 O 0.51493 0.96678 0.9938 0.0
Mn654 Mn 0.53742 0.97865 0.96662 0.0
O655 O 0.49954 0.00494 0.95997 0.0
O656 O 0.56913 0.01613 0.97474 0.0
O657 O 0.5027 0.98611 0.03876 0.0
O658 O 0.50229 0.02267 0.05786 0.0
O659 O 0.53787 0.94519 0.97643 0.0
O660 O 0.51439 0.97656 0.93991 0.0
C661 C 0.47441 0.0444 0.01288 0.0
C662 C 0.43679 0.95665 0.01301 0.0
C663 C 0.5688 0.03503 0.99016 0.0
C664 C 0.52226 0.94609 0.99517 0.0
C665 C 0.50227 0.99255 0.93964 0.0
C666 C 0.50794 0.00196 0.05882 0.0
O667 O 0.48734 0.02967 0.00364 0.0
O668 O 0.46091 0.03722 0.03455 0.0
O669 O 0.03377 0.48532 0.001 0.0
Mn670 Mn 0.00117 0.49693 0.00318 0.0
O671 O 0.02425 0.46224 0.0376 0.0
Mn672 Mn 0.98571 0.45549 0.03741 0.0
O673 O 0.97024 0.51103 0.00233 0.0
O674 O 0.03361 0.54089 0.99735 0.0
Mn675 Mn 0.02525 0.54338 0.96552 0.0
O676 O 0.99104 0.48411 0.96489 0.0
O677 O 0.98782 0.54041 0.9676 0.0
O678 O 0.01095 0.5109 0.0421 0.0
O679 O 0.97433 0.47331 0.06072 0.0
O680 O 0.05732 0.57939 0.97089 0.0
O681 O 0.03129 0.51728 0.94634 0.0
C682 C 0.95329 0.42355 0.01709 0.0
C683 C 0.04043 0.47259 0.01819 0.0
C684 C 0.96891 0.52857 0.9857 0.0
C685 C 0.05421 0.56878 0.99362 0.0
C686 C 0.00801 0.49224 0.94555 0.0
C687 C 0.99419 0.5001 0.06162 0.0
O688 O 0.96714 0.45124 0.00778 0.0
O689 O 0.96184 0.41723 0.03808 0.0
O690 O 0.54494 0.50714 0.00043 0.0
Mn691 Mn 0.50101 0.5007 0.00126 0.0
O692 O 0.57285 0.55572 -0.00059 0.0
Mn693 Mn 0.54473 0.55375 0.9776 0.0
O694 O 0.457 0.49187 0.00114 0.0
O695 O 0.48717 0.45504 0.00671 0.0
Mn696 Mn 0.46921 0.45361 0.03601 0.0
O697 O 0.50673 0.51352 0.03989 0.0
O698 O 0.43679 0.45866 0.03242 0.0
O699 O 0.49674 0.49118 0.96244 0.0
O700 O 0.53688 0.53212 0.94795 0.0
O701 O 0.46021 0.41623 0.03365 0.0
O702 O 0.49521 0.4729 0.06157 0.0
C703 C 0.52226 0.57389 0.98914 0.0
C704 C 0.57067 0.5306 0.00253 0.0
C705 C 0.43488 0.47471 0.01523 0.0
C706 C 0.47627 0.42663 0.01336 0.0
C707 C 0.50733 0.50083 0.0605 0.0
C708 C 0.51423 0.50651 0.94432 0.0
O709 O 0.51249 0.54556 0.99525 0.0
O710 O 0.5449 0.58772 0.97407 0.0
O711 O 0.12374 0.29779 0.33761 0.0
Mn712 Mn 0.16847 0.33482 0.33533 0.0
O713 O 0.10046 0.32078 0.32843 0.0
Mn714 Mn 0.12696 0.34305 0.35322 0.0
O715 O 0.21336 0.36648 0.3317 0.0
O716 O 0.18047 0.30162 0.33309 0.0
Mn717 Mn 0.18776 0.30812 0.30029 0.0
O718 O 0.1631 0.34038 0.29602 0.0
O719 O 0.22207 0.34584 0.29772 0.0
O720 O 0.17357 0.33264 0.37443 0.0
O721 O 0.12891 0.32505 0.3832 0.0
O722 O 0.19361 0.27756 0.30457 0.0
O723 O 0.15466 0.29805 0.2813 0.0
C724 C 0.14831 0.38706 0.34806 0.0
C725 C 0.09951 0.2963 0.33062 0.0
C726 C 0.23091 0.36656 0.31446 0.0
C727 C 0.18799 0.28128 0.32777 0.0
C728 C 0.15376 0.32149 0.27789 0.0
C729 C 0.15262 0.32599 0.39036 0.0
O730 O 0.16065 0.37165 0.3392 0.0
O731 O 0.12411 0.37408 0.36138 0.0
O732 O 0.69492 0.81403 0.33793 0.0
Mn733 Mn 0.66477 0.82904 0.33561 0.0
O734 O 0.67644 0.77872 0.36869 0.0
Mn735 Mn 0.64114 0.77882 0.37536 0.0
O736 O 0.63522 0.84459 0.33278 0.0
O737 O 0.69889 0.87245 0.32655 0.0
Mn738 Mn 0.68746 0.86872 0.29455 0.0
O739 O 0.65193 0.81103 0.29883 0.0
O740 O 0.65146 0.86889 0.29567 0.0
O741 O 0.67517 0.84454 0.37325 0.0
O742 O 0.64291 0.80678 0.39771 0.0
O743 O 0.72053 0.904 0.29387 0.0
O744 O 0.69111 0.84002 0.27715 0.0
C745 C 0.60971 0.76046 0.34558 0.0
C746 C 0.69609 0.79437 0.35204 0.0
C747 C 0.63349 0.86008 0.31454 0.0
C748 C 0.71954 0.89879 0.31794 0.0
C749 C 0.66741 0.81563 0.27889 0.0
C750 C 0.66254 0.83403 0.39472 0.0
O751 O 0.63188 0.78776 0.34602 0.0
O752 O 0.60582 0.74588 0.36649 0.0
O753 O 0.21207 0.83832 0.33883 0.0
Mn754 Mn 0.16891 0.83072 0.33542 0.0
O755 O 0.22824 0.86054 0.30205 0.0
Mn756 Mn 0.19925 0.87145 0.30097 0.0
O757 O 0.12496 0.8224 0.33298 0.0
O758 O 0.15304 0.78524 0.34048 0.0
Mn759 Mn 0.13378 0.78157 0.36904 0.0
O760 O 0.1721 0.84257 0.37462 0.0
O761 O 0.10324 0.78934 0.36447 0.0
O762 O 0.16556 0.81704 0.29673 0.0
O763 O 0.17102 0.85581 0.27648 0.0
O764 O 0.12524 0.74419 0.36434 0.0
O765 O 0.15998 0.80033 0.39424 0.0
C766 C 0.20071 0.90504 0.3206 0.0
C767 C 0.23214 0.84928 0.32185 0.0
C768 C 0.10225 0.80547 0.34678 0.0
C769 C 0.14225 0.75647 0.34481 0.0
C770 C 0.17227 0.82834 0.39459 0.0
C771 C 0.16145 0.82834 0.27663 0.0
O772 O 0.18482 0.87746 0.33004 0.0
O773 O 0.21695 0.91013 0.30059 0.0
O774 O 0.78959 0.63085 0.66408 0.0
Mn775 Mn 0.8329 0.66508 0.66737 0.0
O776 O 0.77785 0.63818 0.70192 0.0
Mn777 Mn 0.80803 0.67825 0.70119 0.0
O778 O 0.87773 0.69797 0.66746 0.0
O779 O 0.8463 0.63371 0.66236 0.0
Mn780 Mn 0.85736 0.64326 0.63067 0.0
O781 O 0.83069 0.67515 0.6286 0.0
O782 O 0.89035 0.68176 0.63245 0.0
O783 O 0.83584 0.65461 0.70685 0.0
O784 O 0.83777 0.69288 0.72446 0.0
O785 O 0.86337 0.61248 0.63508 0.0
O786 O 0.82615 0.63555 0.61011 0.0
C787 C 0.80111 0.70712 0.68154 0.0
C788 C 0.77135 0.62236 0.68222 0.0
C789 C 0.89694 0.70038 0.65076 0.0
C790 C 0.85482 0.61411 0.65779 0.0
C791 C 0.82304 0.65806 0.60915 0.0
C792 C 0.84217 0.67146 0.72649 0.0
O793 O 0.81858 0.69776 0.67139 0.0
O794 O 0.7894 0.6979 0.70362 0.0
O795 O 0.37053 0.15997 0.66517 0.0
Mn796 Mn 0.33458 0.16693 0.66906 0.0
O797 O 0.36896 0.14405 0.70355 0.0
Mn798 Mn 0.32793 0.12733 0.70355 0.0
O799 O 0.29705 0.17354 0.67203 0.0
O800 O 0.36538 0.21151 0.65999 0.0
Mn801 Mn 0.34099 0.2166 0.63957 0.0
O802 O 0.32607 0.15384 0.63113 0.0
O803 O 0.31375 0.21995 0.65835 0.0
O804 O 0.34341 0.18086 0.7081 0.0
O805 O 0.31337 0.13977 0.72866 0.0
O806 O 0.37404 0.2507 0.63477 0.0
O807 O 0.32785 0.1928 0.6115 0.0
C808 C 0.29934 0.09357 0.68125 0.0
C809 C 0.3826 0.15342 0.68297 0.0
C810 C 0.29438 0.19701 0.66975 0.0
C811 C 0.38301 0.23941 0.6523 0.0
C812 C 0.32375 0.16654 0.61122 0.0
C813 C 0.32859 0.16778 0.72832 0.0
O814 O 0.30491 0.12104 0.6759 0.0
O815 O 0.31298 0.0889 0.69963 0.0
O816 O 0.87831 0.17302 0.67324 0.0
Mn817 Mn 0.83514 0.16538 0.67041 0.0
O818 O 0.89276 0.19485 0.63636 0.0
Mn819 Mn 0.8642 0.20652 0.63719 0.0
O820 O 0.79106 0.15723 0.66907 0.0
O821 O 0.82082 0.12141 0.67642 0.0
Mn822 Mn 0.79398 0.10871 0.70051 0.0
O823 O 0.83777 0.17414 0.70987 0.0
O824 O 0.76288 0.11267 0.68834 0.0
O825 O 0.83203 0.15348 0.63081 0.0
O826 O 0.83497 0.19261 0.61359 0.0
O827 O 0.79664 0.07601 0.69239 0.0
O828 O 0.81214 0.1293 0.72901 0.0
C829 C 0.8672 0.24 0.65773 0.0
C830 C 0.89746 0.18343 0.6556 0.0
C831 C 0.7657 0.13521 0.6761 0.0
C832 C 0.81473 0.09376 0.67522 0.0
C833 C 0.82957 0.15737 0.72978 0.0
C834 C 0.82801 0.16591 0.61132 0.0
O835 O 0.85065 0.21228 0.66668 0.0
O836 O 0.88311 0.24516 0.63748 0.0
C837 C 0.35433 0.92215 0.01347 0.0
C838 C 0.34439 0.89139 0.01484 0.0
C839 C 0.38441 0.94295 0.01032 0.0
C840 C 0.40564 0.93376 0.00837 0.0
H841 H 0.33902 0.93033 0.01669 0.0
H842 H 0.39138 0.96658 0.01122 0.0
S843 S 0.39026 0.85553 0.00561 0.0
N844 N 0.35726 0.8523 0.01012 0.0
N845 N 0.41439 0.89189 0.00405 0.0
C846 C 0.39576 0.90301 0.00685 0.0
C847 C 0.36486 0.88163 0.01012 0.0
C848 C 0.07221 0.42183 0.01618 0.0
C849 C 0.10297 0.44192 0.01534 0.0
C850 C 0.05213 0.43221 0.0154 0.0
C851 C 0.06208 0.46294 0.01334 0.0
H852 H 0.06372 0.39815 0.01946 0.0
H853 H 0.02866 0.41619 0.01783 0.0
S854 S 0.13987 0.52403 0.00506 0.0
N855 N 0.14237 0.49348 0.0086 0.0
N856 N 0.10401 0.51295 0.00636 0.0
C857 C 0.09245 0.48299 0.0095 0.0
C858 C 0.11313 0.47242 0.01063 0.0
C859 C 0.52746 0.62806 0.03684 0.0
C860 C 0.53041 0.65139 0.02087 0.0
C861 C 0.51858 0.59933 0.02725 0.0
C862 C 0.51244 0.59308 0.00139 0.0
H863 H 0.53412 0.63263 0.0565 0.0
H864 H 0.52022 0.58331 0.03946 0.0
S865 S 0.51115 0.64396 0.95257 0.0
N866 N 0.52238 0.66455 0.9785 0.0
N867 N 0.50467 0.61039 0.96102 0.0
C868 C 0.51118 0.61476 0.98613 0.0
C869 C 0.52073 0.64411 0.99565 0.0
C870 C 0.89006 0.34512 0.00973 0.0
C871 C 0.88666 0.34134 0.98348 0.0
C872 C 0.90972 0.37284 0.02013 0.0
C873 C 0.92754 0.39797 0.00479 0.0
H874 H 0.87872 0.32616 0.02242 0.0
H875 H 0.91217 0.37399 0.04053 0.0
S876 S 0.92146 0.40132 0.93515 0.0
N877 N 0.89818 0.3659 0.94238 0.0
N878 N 0.93664 0.41846 0.96211 0.0
C879 C 0.92244 0.39529 0.97857 0.0
C880 C 0.90181 0.36679 0.96787 0.0
C881 C 0.63866 0.55064 0.96452 0.0
C882 C 0.65619 0.54375 0.98035 0.0
C883 C 0.60998 0.54342 0.97131 0.0
C884 C 0.59752 0.52985 0.99465 0.0
H885 H 0.6475 0.56295 0.94706 0.0
H886 H 0.59798 0.55023 0.95868 0.0
S887 S 0.63223 0.50419 0.04216 0.0
N888 N 0.65753 0.51946 0.01956 0.0
N889 N 0.60366 0.50769 0.03305 0.0
C890 C 0.61393 0.52162 0.01044 0.0
C891 C 0.64331 0.52836 0.00319 0.0
C892 C 0.45861 0.10705 0.0039 0.0
C893 C 0.4535 0.10682 0.97779 0.0
C894 C 0.46862 0.08893 0.01436 0.0
C895 C 0.47307 0.06885 -0.00058 0.0
H896 H 0.45356 0.12031 0.01671 0.0
H897 H 0.47107 0.08936 0.03476 0.0
S898 S 0.46703 0.06263 0.92962 0.0
N899 N 0.45764 0.08802 0.93665 0.0
N900 N 0.47462 0.05205 0.95682 0.0
C901 C 0.46994 0.06962 0.97311 0.0
C902 C 0.46031 0.08883 0.96223 0.0
C903 C 0.63697 0.10234 0.96782 0.0
C904 C 0.65833 0.10382 0.98497 0.0
C905 C 0.60672 0.08234 0.97166 0.0
C906 C 0.59692 0.06325 0.99275 0.0
H907 H 0.64386 0.11524 0.95044 0.0
H908 H 0.59119 0.07983 0.95686 0.0
S909 S 0.64349 0.06227 0.04538 0.0
N910 N 0.66748 0.08765 0.02551 0.0
N911 N 0.61022 0.04975 0.0327 0.0
C912 C 0.61768 0.06667 0.01135 0.0
C913 C 0.64861 0.08715 0.00747 0.0
C914 C 0.93668 0.57956 0.9823 0.0
C915 C 0.90603 0.56015 0.98603 0.0
C916 C 0.95672 0.56907 0.98323 0.0
C917 C 0.94714 0.53884 0.98849 0.0
H918 H 0.94507 0.60281 0.97721 0.0
H919 H 0.9799 0.58468 0.97904 0.0
S920 S 0.87027 0.47998 0.00442 0.0
N921 N 0.86751 0.50994 0.99825 0.0
N922 N 0.90582 0.49048 0.00104 0.0
C923 C 0.91713 0.51977 0.99481 0.0
C924 C 0.89641 0.53039 0.9934 0.0
C925 C 0.45875 0.36803 0.9645 0.0
C926 C 0.46021 0.34593 0.97925 0.0
C927 C 0.46821 0.39683 0.97421 0.0
C928 C 0.48008 0.40458 0.99869 0.0
H929 H 0.44853 0.36246 0.94595 0.0
H930 H 0.46344 0.41189 0.96358 0.0
S931 S 0.49164 0.35656 0.04408 0.0
N932 N 0.47599 0.33487 0.01927 0.0
N933 N 0.4959 0.38948 0.03635 0.0
C934 C 0.4846 0.38386 0.01245 0.0
C935 C 0.47403 0.35435 0.0031 0.0
C936 C 0.07288 0.64012 0.02423 0.0
C937 C 0.10188 0.64999 0.03293 0.0
C938 C 0.0553 0.61105 0.01497 0.0
C939 C 0.06619 0.591 0.01388 0.0
H940 H 0.06454 0.65557 0.02279 0.0
H941 H 0.03423 0.60526 0.00616 0.0
S942 S 0.13768 0.60362 0.03969 0.0
N943 N 0.13852 0.63575 0.04433 0.0
N944 N 0.10553 0.58114 0.0258 0.0
C945 C 0.09378 0.59946 0.02485 0.0
C946 C 0.1117 0.62907 0.03458 0.0
C947 C 0.35276 0.42923 0.00758 0.0
C948 C 0.34337 0.44889 0.01613 0.0
C949 C 0.38298 0.43913 0.00435 0.0
C950 C 0.40476 0.46892 0.00976 0.0
H951 H 0.33679 0.40563 0.005 0.0
H952 H 0.3895 0.42277 -0.00041 0.0
S953 S 0.39126 0.5299 0.02961 0.0
N954 N 0.35767 0.50011 0.02728 0.0
N955 N 0.41488 0.51864 0.02156 0.0
C956 C 0.39558 0.48941 0.01617 0.0
C957 C 0.36466 0.47935 0.01929 0.0
C958 C 0.51764 0.88282 0.02962 0.0
C959 C 0.54659 0.8966 0.03982 0.0
C960 C 0.50622 0.89992 0.01899 0.0
C961 C 0.52323 0.93132 0.01846 0.0
H962 H 0.50456 0.85863 0.02816 0.0
H963 H 0.48555 0.88846 0.00849 0.0
S964 S 0.59836 0.97845 0.04558 0.0
N965 N 0.59071 0.94374 0.05084 0.0
N966 N 0.56851 0.97561 0.03187 0.0
C967 C 0.55045 0.94534 0.03149 0.0
C968 C 0.56249 0.92805 0.04172 0.0
C969 C 0.03004 0.2193 0.33912 0.0
C970 C 0.01375 0.2256 0.35707 0.0
C971 C 0.05833 0.2419 0.33073 0.0
C972 C 0.07075 0.27141 0.33982 0.0
H973 H 0.02097 0.19679 0.33174 0.0
H974 H 0.07023 0.23643 0.31687 0.0
S975 S 0.03684 0.2993 0.38673 0.0
N976 N 0.01198 0.26355 0.38305 0.0
N977 N 0.0648 0.30536 0.36814 0.0
C978 C 0.05459 0.27769 0.35786 0.0
C979 C 0.02615 0.255 0.3662 0.0
C980 C 0.73703 0.75186 0.34551 0.0
C981 C 0.76652 0.7738 0.35102 0.0
C982 C 0.71451 0.75916 0.34452 0.0
C983 C 0.72084 0.78865 0.34874 0.0
H984 H 0.73107 0.72858 0.34353 0.0
H985 H 0.69178 0.74138 0.3415 0.0
S986 S 0.79459 0.85452 0.36247 0.0
N987 N 0.80112 0.82639 0.35964 0.0
N988 N 0.75862 0.84023 0.35722 0.0
C989 C 0.75046 0.81118 0.35261 0.0
C990 C 0.77342 0.8037 0.35385 0.0
C991 C 0.20216 0.96137 0.36787 0.0
C992 C 0.21209 0.98719 0.35266 0.0
C993 C 0.19635 0.93383 0.35738 0.0
C994 C 0.20048 0.93147 0.33139 0.0
H995 H 0.19988 0.96275 0.38813 0.0
H996 H 0.1902 0.9149 0.36982 0.0
S997 S 0.22408 0.99207 0.28325 0.0
N998 N 0.22469 0.00822 0.31034 0.0
N999 N 0.21243 0.95676 0.29036 0.0
C1000 C 0.2086 0.95678 0.31586 0.0
C1001 C 0.21479 0.9846 0.32655 0.0
C1002 C 0.59592 0.69738 0.30556 0.0
C1003 C 0.56463 0.68234 0.30388 0.0
C1004 C 0.61206 0.72696 0.3145 0.0
C1005 C 0.59748 0.74225 0.32268 0.0
H1006 H 0.60786 0.68553 0.302 0.0
H1007 H 0.6356 0.73631 0.31828 0.0
S1008 S 0.5174 0.71637 0.31525 0.0
N1009 N 0.52079 0.68786 0.30523 0.0
N1010 N 0.55114 0.74272 0.32369 0.0
C1011 C 0.56693 0.729 0.31802 0.0
C1012 C 0.55047 0.69912 0.30841 0.0
C1013 C 0.31375 0.89904 0.33073 0.0
C1014 C 0.32519 0.88138 0.32137 0.0
C1015 C 0.28306 0.88697 0.33381 0.0
C1016 C 0.26287 0.85703 0.32732 0.0
H1017 H 0.32847 0.92272 0.33425 0.0
H1018 H 0.27492 0.90184 0.33932 0.0
S1019 S 0.2819 0.80096 0.30424 0.0
N1020 N 0.3144 0.83191 0.3078 0.0
N1021 N 0.25644 0.80946 0.31295 0.0
C1022 C 0.27411 0.83863 0.31958 0.0
C1023 C 0.30544 0.8508 0.31678 0.0
C1024 C 0.13748 0.45179 0.34467 0.0
C1025 C 0.13701 0.45552 0.31831 0.0
C1026 C 0.14786 0.43379 0.35497 0.0
C1027 C 0.1566 0.41746 0.3393 0.0
H1028 H 0.12743 0.46058 0.35747 0.0
H1029 H 0.14493 0.42927 0.37513 0.0
S1030 S 0.17107 0.42915 0.27051 0.0
N1031 N 0.15547 0.44935 0.2777 0.0
N1032 N 0.17261 0.41316 0.29714 0.0
C1033 C 0.16083 0.42473 0.3135 0.0
C1034 C 0.15112 0.44397 0.30294 0.0
C1035 C 0.31348 0.40002 0.30358 0.0
C1036 C 0.32585 0.43015 0.31093 0.0
C1037 C 0.28299 0.37998 0.3053 0.0
C1038 C 0.26328 0.3888 0.31496 0.0
H1039 H 0.32741 0.39203 0.29547 0.0
H1040 H 0.27479 0.3573 0.2986 0.0
S1041 S 0.28476 0.46385 0.34085 0.0
N1042 N 0.31642 0.4672 0.33077 0.0
N1043 N 0.2588 0.42884 0.33499 0.0
C1044 C 0.2755 0.41816 0.32445 0.0
C1045 C 0.30684 0.43895 0.32227 0.0
C1046 C 0.56109 0.86097 0.32179 0.0
C1047 C 0.56957 0.89022 0.3138 0.0
C1048 C 0.58213 0.85138 0.32316 0.0
C1049 C 0.61192 0.87069 0.31609 0.0
H1050 H 0.53791 0.84499 0.32553 0.0
H1051 H 0.57476 0.82839 0.32841 0.0
S1052 S 0.6458 0.95081 0.29825 0.0
N1053 N 0.61023 0.93944 0.30243 0.0
N1054 N 0.64938 0.92131 0.30408 0.0
C1055 C 0.62084 0.90051 0.30985 0.0
C1056 C 0.59974 0.91033 0.30901 0.0
C1057 C 0.14143 0.68673 0.33105 0.0
C1058 C 0.1251 0.67761 0.30835 0.0
C1059 C 0.15231 0.71559 0.3405 0.0
C1060 C 0.14642 0.73618 0.32818 0.0
H1061 H 0.14381 0.67088 0.34285 0.0
H1062 H 0.16211 0.72052 0.35925 0.0
S1063 S 0.1114 0.72639 0.26527 0.0
N1064 N 0.10952 0.69395 0.27097 0.0
N1065 N 0.12794 0.74773 0.29016 0.0
C1066 C 0.13322 0.7288 0.30417 0.0
C1067 C 0.12277 0.69947 0.29404 0.0
C1068 C 0.77182 0.95548 0.36639 0.0
C1069 C 0.77205 0.98165 0.35825 0.0
C1070 C 0.75334 0.92764 0.35452 0.0
C1071 C 0.73495 0.92563 0.33421 0.0
H1072 H 0.78659 0.95677 0.38143 0.0
H1073 H 0.75451 0.90811 0.36038 0.0
S1074 S 0.72592 0.98758 0.30792 0.0
N1075 N 0.75112 0.0035 0.33037 0.0
N1076 N 0.71653 0.9519 0.30811 0.0
C1077 C 0.73412 0.95159 0.32705 0.0
C1078 C 0.7527 0.97948 0.33903 0.0
C1079 C 0.03281 0.81077 0.34998 0.0
C1080 C 0.01098 0.78018 0.3484 0.0
C1081 C 0.06314 0.82027 0.34631 0.0
C1082 C 0.07214 0.79941 0.34052 0.0
H1083 H 0.02669 0.827 0.35613 0.0
H1084 H 0.07962 0.84339 0.3502 0.0
S1085 S 0.02319 0.71773 0.33043 0.0
N1086 N 0.00016 0.72986 0.33796 0.0
N1087 N 0.05674 0.7477 0.33033 0.0
C1088 C 0.05015 0.76937 0.33637 0.0
C1089 C 0.01961 0.7597 0.34056 0.0
C1090 C 0.19234 0.2248 0.3691 0.0
C1091 C 0.22285 0.23427 0.36725 0.0
C1092 C 0.1809 0.24218 0.35895 0.0
C1093 C 0.19979 0.26949 0.34688 0.0
H1094 H 0.17708 0.20319 0.37735 0.0
H1095 H 0.15706 0.23317 0.35883 0.0
S1096 S 0.28115 0.30395 0.33707 0.0
N1097 N 0.27157 0.27264 0.35269 0.0
N1098 N 0.25028 0.30544 0.334 0.0
C1099 C 0.23051 0.27983 0.34617 0.0
C1100 C 0.24203 0.26215 0.35623 0.0
C1101 C 0.68936 0.59038 0.6823 0.0
C1102 C 0.67852 0.55946 0.68399 0.0
C1103 C 0.71965 0.61039 0.67956 0.0
C1104 C 0.74006 0.60015 0.67829 0.0
H1105 H 0.67452 0.59926 0.68479 0.0
H1106 H 0.7274 0.63422 0.68002 0.0
S1107 S 0.72244 0.52115 0.67713 0.0
N1108 N 0.68984 0.5191 0.68075 0.0
N1109 N 0.7474 0.55726 0.67532 0.0
C1110 C 0.72941 0.56924 0.67735 0.0
C1111 C 0.69833 0.54867 0.68023 0.0
C1112 C 0.44967 0.14715 0.69762 0.0
C1113 C 0.44481 0.12262 0.68256 0.0
C1114 C 0.43118 0.15959 0.69567 0.0
C1115 C 0.4075 0.14814 0.67837 0.0
H1116 H 0.46661 0.1554 0.71221 0.0
H1117 H 0.43407 0.17682 0.70902 0.0
S1118 S 0.38632 0.08496 0.63395 0.0
N1119 N 0.41557 0.08812 0.64914 0.0
N1120 N 0.38093 0.1118 0.64516 0.0
C1121 C 0.40372 0.12499 0.66198 0.0
C1122 C 0.42238 0.1121 0.66416 0.0
C1123 C 0.88541 0.32021 0.66446 0.0
C1124 C 0.87391 0.32098 0.68817 0.0
C1125 C 0.88212 0.29365 0.65491 0.0
C1126 C 0.86717 0.26646 0.66862 0.0
H1127 H 0.89855 0.34062 0.65372 0.0
H1128 H 0.89234 0.29497 0.63672 0.0
S1129 S 0.82799 0.25596 0.72968 0.0
N1130 N 0.84354 0.29222 0.72387 0.0
N1131 N 0.83722 0.2415 0.70579 0.0
C1132 C 0.85363 0.26647 0.69164 0.0
C1133 C 0.85709 0.29392 0.70145 0.0
C1134 C 0.24479 0.03466 0.63585 0.0
C1135 C 0.22925 0.00973 0.65207 0.0
C1136 C 0.26631 0.0628 0.64537 0.0
C1137 C 0.27288 0.06666 0.67134 0.0
H1138 H 0.24092 0.03213 0.61562 0.0
H1139 H 0.27895 0.08103 0.63229 0.0
S1140 S 0.23727 0.00914 0.72177 0.0
N1141 N 0.2215 0.99127 0.69531 0.0
N1142 N 0.26055 0.04402 0.71327 0.0
C1143 C 0.25628 0.04232 0.68777 0.0
C1144 C 0.23482 0.01387 0.67814 0.0
C1145 C 0.96924 0.18364 0.64603 0.0
C1146 C 0.99009 0.21365 0.65179 0.0
C1147 C 0.93863 0.17238 0.64971 0.0
C1148 C 0.9283 0.19073 0.65975 0.0
H1149 H 0.97649 0.16948 0.63705 0.0
H1150 H 0.92296 0.15 0.64313 0.0
S1151 S 0.97416 0.26993 0.67978 0.0
N1152 N 0.99854 0.26076 0.66932 0.0
N1153 N 0.94119 0.23945 0.67686 0.0
C1154 C 0.94915 0.22002 0.66721 0.0
C1155 C 0.98008 0.23158 0.66307 0.0
C1156 C 0.80449 0.76687 0.6365 0.0
C1157 C 0.78436 0.77415 0.64784 0.0
C1158 C 0.80991 0.74499 0.64718 0.0
C1159 C 0.79498 0.72948 0.66927 0.0
H1160 H 0.81626 0.77835 0.61943 0.0
H1161 H 0.82594 0.74038 0.63822 0.0
S1162 S 0.7372 0.73841 0.7041 0.0
N1163 N 0.74807 0.76311 0.68096 0.0
N1164 N 0.757 0.72172 0.70075 0.0
C1165 C 0.77388 0.73608 0.6801 0.0
C1166 C 0.76891 0.7585 0.66947 0.0
C1167 C 0.97953 0.73278 0.64513 0.0
C1168 C 0.99118 0.76358 0.64899 0.0
C1169 C 0.94915 0.71274 0.64708 0.0
C1170 C 0.92899 0.72235 0.65361 0.0
H1171 H 0.99383 0.72424 0.63908 0.0
H1172 H 0.94128 0.68954 0.64227 0.0
S1173 S 0.94872 0.7999 0.6704 0.0
N1174 N 0.98081 0.80253 0.66273 0.0
N1175 N 0.92321 0.76411 0.66742 0.0
C1176 C 0.9405 0.75259 0.66011 0.0
C1177 C 0.97177 0.77338 0.65763 0.0
C1178 C 0.24897 0.23341 0.67619 0.0
C1179 C 0.22435 0.21479 0.6611 0.0
C1180 C 0.26949 0.22462 0.68322 0.0
C1181 C 0.26656 0.19728 0.67473 0.0
H1182 H 0.25342 0.25568 0.68119 0.0
H1183 H 0.28963 0.24085 0.69282 0.0
S1184 S 0.20329 0.13881 0.63819 0.0
N1185 N 0.19567 0.1662 0.64097 0.0
N1186 N 0.23498 0.15012 0.65337 0.0
C1187 C 0.24038 0.17723 0.66194 0.0
C1188 C 0.21921 0.18603 0.65507 0.0
C1189 C 0.81953 0.03377 0.64631 0.0
C1190 C 0.79086 0.01898 0.63554 0.0
C1191 C 0.83234 0.06349 0.65472 0.0
C1192 C 0.81697 0.07932 0.65238 0.0
H1193 H 0.83132 0.02174 0.64979 0.0
H1194 H 0.85237 0.07264 0.66609 0.0
S1195 S 0.74405 0.05329 0.62216 0.0
N1196 N 0.74892 0.02404 0.62118 0.0
N1197 N 0.7749 0.0807 0.63444 0.0
C1198 C 0.79096 0.06669 0.63784 0.0
C1199 C 0.77695 0.03598 0.63062 0.0
C1200 C 0.45179 0.31213 0.65888 0.0
C1201 C 0.45081 0.31838 0.68464 0.0
C1202 C 0.43271 0.28363 0.64909 0.0
C1203 C 0.41128 0.26062 0.66449 0.0
H1204 H 0.4656 0.32984 0.64574 0.0
H1205 H 0.43229 0.28066 0.62874 0.0
S1206 S 0.40457 0.2636 0.73399 0.0
N1207 N 0.43142 0.29748 0.72624 0.0
N1208 N 0.39375 0.24439 0.70729 0.0
C1209 C 0.41254 0.26545 0.69065 0.0
C1210 C 0.43254 0.29436 0.7008 0.0
C1211 C 0.69968 0.13541 0.70213 0.0
C1212 C 0.67757 0.11831 0.68424 0.0
C1213 C 0.72961 0.14486 0.69747 0.0
C1214 C 0.73855 0.13732 0.67487 0.0
H1215 H 0.69356 0.14003 0.72049 0.0
H1216 H 0.7455 0.15568 0.71266 0.0
S1217 S 0.68999 0.09652 0.62052 0.0
N1218 N 0.66704 0.09733 0.64178 0.0
N1219 N 0.72352 0.11442 0.63335 0.0
C1220 C 0.7171 0.12237 0.65597 0.0
C1221 C 0.68651 0.11306 0.66057 0.0
C1222 C 0.85618 0.55471 0.69701 0.0
C1223 C 0.88706 0.56597 0.6988 0.0
C1224 C 0.84498 0.57208 0.68644 0.0
C1225 C 0.86442 0.6012 0.67772 0.0
H1226 H 0.84067 0.53187 0.70268 0.0
H1227 H 0.82125 0.56192 0.68334 0.0
S1228 S 0.94685 0.64081 0.67807 0.0
N1229 N 0.93665 0.60793 0.69106 0.0
N1230 N 0.91564 0.64072 0.67195 0.0
C1231 C 0.89519 0.61318 0.68076 0.0
C1232 C 0.90656 0.5955 0.6911 0.0
C1233 C 0.52516 0.99577 0.1272 0.0
C1234 C 0.49642 0.97985 0.13798 0.0
C1235 C 0.52925 0.00067 0.1009 0.0
C1236 C 0.5048 0.98906 0.08437 0.0
H1237 H 0.54463 0.0055 0.13927 0.0
H1238 H 0.55154 0.01474 0.09359 0.0
S1239 S 0.42515 0.94525 0.10263 0.0
N1240 N 0.44325 0.95196 0.12969 0.0
N1241 N 0.45102 0.96085 0.08061 0.0
C1242 C 0.47612 0.97232 0.09484 0.0
C1243 C 0.4719 0.96782 0.12151 0.0
C1244 C 0.98857 0.50153 0.13216 0.0
C1245 C 0.01838 0.51691 0.1397 0.0
C1246 C 0.98095 0.49972 0.1066 0.0
C1247 C 0.0029 0.51243 0.08751 0.0
H1248 H 0.97105 0.49022 0.14606 0.0
H1249 H 0.95764 0.48632 0.10161 0.0
S1250 S 0.0842 0.55835 0.09823 0.0
N1251 N 0.06992 0.54815 0.12692 0.0
N1252 N 0.05572 0.54359 0.07846 0.0
C1253 C 0.03278 0.52969 0.09504 0.0
C1254 C 0.04049 0.53201 0.12127 0.0
C1255 C 0.52815 0.5165 0.12847 0.0
C1256 C 0.50476 0.52001 0.13794 0.0
C1257 C 0.5314 0.51399 0.10241 0.0
C1258 C 0.51187 0.51572 0.08501 0.0
H1259 H 0.5428 0.51371 0.14136 0.0
H1260 H 0.54788 0.50847 0.09595 0.0
S1261 S 0.44894 0.52773 0.09991 0.0
N1262 N 0.46321 0.52743 0.12778 0.0
N1263 N 0.46971 0.52311 0.07873 0.0
C1264 C 0.48986 0.5215 0.09409 0.0
C1265 C 0.48613 0.52345 0.12061 0.0
C1266 C 0.98199 0.50159 0.88216 0.0
C1267 C 0.97741 0.47621 0.86852 0.0
C1268 C 0.99 0.50513 0.90755 0.0
C1269 C 0.99452 0.48389 0.92036 0.0
H1270 H 0.98045 0.51956 0.87299 0.0
H1271 H 0.99399 0.52548 0.91702 0.0
S1272 S 0.98385 0.41258 0.89422 0.0
N1273 N 0.97566 0.42807 0.87047 0.0
N1274 N 0.99309 0.43617 0.91824 0.0
C1275 C 0.98947 0.45804 0.90744 0.0
C1276 C 0.98046 0.45393 0.88148 0.0
C1277 C 0.51058 0.51215 0.87361 0.0
C1278 C 0.50746 0.48498 0.86492 0.0
C1279 C 0.51072 0.51784 0.89948 0.0
C1280 C 0.50765 0.49659 0.91774 0.0
H1281 H 0.51386 0.52956 0.86032 0.0
H1282 H 0.51438 0.5396 0.90529 0.0
S1283 S 0.49749 0.4214 0.90494 0.0
N1284 N 0.49999 0.436 0.87657 0.0
N1285 N 0.5002 0.44688 0.92544 0.0
C1286 C 0.50298 0.46872 0.90941 0.0
C1287 C 0.5029 0.46288 0.88291 0.0
C1288 C 0.50924 0.03836 0.88141 0.0
C1289 C 0.50133 0.01695 0.86205 0.0
C1290 C 0.50693 0.03003 0.90706 0.0
C1291 C 0.49622 -1e-05 0.91405 0.0
H1292 H 0.51865 0.06183 0.87664 0.0
H1293 H 0.51564 0.04743 0.92134 0.0
S1294 S 0.47104 0.93546 0.87011 0.0
N1295 N 0.48141 0.96466 0.85133 0.0
N1296 N 0.4762 0.94868 0.89928 0.0
C1297 C 0.48678 0.97829 0.89467 0.0
C1298 C 0.48956 0.98684 0.86873 0.0
C1299 C 0.12966 0.30128 0.45831 0.0
C1300 C 0.15673 0.31374 0.4716 0.0
C1301 C 0.12892 0.30463 0.43207 0.0
C1302 C 0.15519 0.32051 0.41771 0.0
H1303 H 0.10872 0.28858 0.46825 0.0
H1304 H 0.10734 0.29475 0.42298 0.0
S1305 S 0.23199 0.35863 0.44339 0.0
N1306 N 0.21063 0.34341 0.46849 0.0
N1307 N 0.20922 0.3494 0.41895 0.0
C1308 C 0.18252 0.33294 0.43064 0.0
C1309 C 0.18328 0.32964 0.45758 0.0
C1310 C 0.66558 0.8581 0.46143 0.0
C1311 C 0.6889 0.85452 0.47101 0.0
C1312 C 0.65922 0.85539 0.43548 0.0
C1313 C 0.67639 0.84973 0.41826 0.0
H1314 H 0.65091 0.86102 0.47421 0.0
H1315 H 0.6394 0.8554 0.42909 0.0
S1316 S 0.74172 0.84166 0.43323 0.0
N1317 N 0.73081 0.84762 0.46093 0.0
N1318 N 0.71878 0.84265 0.41212 0.0
C1319 C 0.70112 0.84844 0.42732 0.0
C1320 C 0.70735 0.85069 0.45374 0.0
C1321 C 0.16863 0.86903 0.45252 0.0
C1322 C 0.17074 0.85135 0.47181 0.0
C1323 C 0.17259 0.86411 0.42696 0.0
C1324 C 0.17912 0.84163 0.42024 0.0
H1325 H 0.16223 0.88551 0.45712 0.0
H1326 H 0.16822 0.87625 0.41245 0.0
S1327 S 0.19175 0.79302 0.4646 0.0
N1328 N 0.18268 0.81305 0.48303 0.0
N1329 N 0.19179 0.80471 0.4355 0.0
C1330 C 0.18425 0.82608 0.43984 0.0
C1331 C 0.17942 0.83054 0.46553 0.0
C1332 C 0.66196 0.79413 0.21076 0.0
C1333 C 0.6403 0.80064 0.20182 0.0
C1334 C 0.66844 0.79551 0.23665 0.0
C1335 C 0.65301 0.80276 0.25453 0.0
H1336 H 0.67529 0.78975 0.19754 0.0
H1337 H 0.68701 0.79293 0.24256 0.0
S1338 S 0.59232 0.81891 0.24121 0.0
N1339 N 0.6019 0.81246 0.2131 0.0
N1340 N 0.61378 0.81454 0.26177 0.0
C1341 C 0.62983 0.80716 0.24604 0.0
C1342 C 0.62363 0.80636 0.21965 0.0
C1343 C 0.18942 0.81291 0.21687 0.0
C1344 C 0.17003 0.81381 0.19878 0.0
C1345 C 0.18414 0.81346 0.24285 0.0
C1346 C 0.15951 0.81531 0.25155 0.0
H1347 H 0.20916 0.81248 0.21088 0.0
H1348 H 0.2007 0.81488 0.25614 0.0
S1349 S 0.10166 0.81722 0.21199 0.0
N1350 N 0.12459 0.81532 0.19141 0.0
N1351 N 0.11516 0.81705 0.24026 0.0
C1352 C 0.13939 0.81501 0.23371 0.0
C1353 C 0.14455 0.81414 0.20731 0.0
C1354 C 0.18279 0.33653 0.21079 0.0
C1355 C 0.16977 0.35202 0.19988 0.0
C1356 C 0.17718 0.32694 0.2359 0.0
C1357 C 0.15821 0.33229 0.25139 0.0
H1358 H 0.19722 0.33135 0.19973 0.0
H1359 H 0.18809 0.3153 0.2433 0.0
S1360 S 0.11791 0.37133 0.23203 0.0
N1361 N 0.13686 0.37236 0.20654 0.0
N1362 N 0.12604 0.35372 0.25402 0.0
C1363 C 0.145 0.34779 0.24093 0.0
C1364 C 0.1507 0.35764 0.21509 0.0
C1365 C 0.85895 0.65802 0.79362 0.0
C1366 C 0.83165 0.64887 0.80616 0.0
C1367 C 0.86203 0.66327 0.76729 0.0
C1368 C 0.83784 0.6592 0.75252 0.0
H1369 H 0.87837 0.66203 0.80434 0.0
H1370 H 0.8837 0.67168 0.75866 0.0
S1371 S 0.76158 0.63544 0.77578 0.0
N1372 N 0.77979 0.63517 0.80125 0.0
N1373 N 0.78592 0.64619 0.75247 0.0
C1374 C 0.81044 0.64981 0.76481 0.0
C1375 C 0.80725 0.64437 0.7914 0.0
C1376 C 0.31904 0.17701 0.79701 0.0
C1377 C 0.34723 0.18503 0.80657 0.0
C1378 C 0.31396 0.17516 0.77086 0.0
C1379 C 0.33697 0.18147 0.7535 0.0
H1380 H 0.30055 0.17083 0.80983 0.0
H1381 H 0.29141 0.16662 0.76417 0.0
S1382 S 0.41491 0.20408 0.76949 0.0
N1383 N 0.39868 0.20058 0.79718 0.0
N1384 N 0.38894 0.19609 0.74794 0.0
C1385 C 0.36554 0.19072 0.76297 0.0
C1386 C 0.3707 0.19267 0.78958 0.0
C1387 C 0.83398 0.19817 0.79003 0.0
C1388 C 0.83572 0.17893 0.80797 0.0
C1389 C 0.83531 0.19337 0.76398 0.0
C1390 C 0.83883 0.16955 0.75545 0.0
H1391 H 0.82965 0.2157 0.79611 0.0
H1392 H 0.83108 0.20659 0.75059 0.0
S1393 S 0.84904 0.11607 0.79533 0.0
N1394 N 0.84411 0.13742 0.81577 0.0
N1395 N 0.84788 0.1291 0.76706 0.0
C1396 C 0.84342 0.15212 0.77346 0.0
C1397 C 0.84141 0.15655 0.79972 0.0
C1398 C 0.34254 0.16646 0.54349 0.0
C1399 C 0.31576 0.14379 0.53338 0.0
C1400 C 0.34578 0.17132 0.56951 0.0
C1401 C 0.32223 0.15393 0.58617 0.0
H1402 H 0.36048 0.18156 0.53111 0.0
H1403 H 0.36613 0.1903 0.57653 0.0
S1404 S 0.24848 0.09012 0.56907 0.0
N1405 N 0.26612 0.10206 0.54176 0.0
N1406 N 0.27205 0.11186 0.59109 0.0
C1407 C 0.29601 0.12986 0.57652 0.0
C1408 C 0.2928 0.12466 0.54989 0.0
C1409 C 0.81161 0.13391 0.54487 0.0
C1410 C 0.83873 0.15279 0.53223 0.0
C1411 C 0.8084 0.13652 0.57107 0.0
C1412 C 0.83227 0.15795 0.58545 0.0
H1413 H 0.7925 0.11745 0.53432 0.0
H1414 H 0.78692 0.12256 0.57987 0.0
S1415 S 0.90806 0.2123 0.56192 0.0
N1416 N 0.89011 0.19283 0.53667 0.0
N1417 N 0.88382 0.19838 0.5853 0.0
C1418 C 0.85954 0.17659 0.5731 0.0
C1419 C 0.86283 0.17392 0.54667 0.0
C1420 C 0.81839 0.65741 0.53799 0.0
C1421 C 0.83475 0.68792 0.53186 0.0
C1422 C 0.81218 0.64809 0.56323 0.0
C1423 C 0.82221 0.66895 0.58333 0.0
H1424 H 0.81122 0.64063 0.52321 0.0
H1425 H 0.80079 0.62423 0.56707 0.0
S1426 S 0.86235 0.75172 0.57649 0.0
N1427 N 0.85811 0.73914 0.54714 0.0
N1428 N 0.84671 0.72173 0.59485 0.0
C1429 C 0.83683 0.69964 0.5772 0.0
C1430 C 0.8432 0.70911 0.55138 0.0
loop_
_geom_bond_atom_site_label_1
_geom_bond_atom_site_label_2
_geom_bond_distance
_geom_bond_site_symmetry_2
_ccdc_geom_bond_type
C0 C1 1.384 . S
C0 H13 0.947 . S
C0 C35 1.382 . S
C1 C0 1.384 . S
C1 C2 1.378 . S
C2 C1 1.378 . S
C2 C3 1.378 . S
C2 H14 0.952 . S
C3 C2 1.378 . S
C3 H15 0.950 . S
C3 C34 1.383 . S
H4 C23 0.947 . S
H5 C24 0.946 . S
H6 C26 0.953 . S
H7 C27 0.945 . S
H8 C29 0.952 . S
H9 C30 0.949 . S
H10 C32 0.950 . S
H11 C33 0.948 . S
H12 C35 0.951 . S
H13 C0 0.947 . S
H14 C2 0.952 . S
H15 C3 0.950 . S
N16 C19 1.382 . S
N16 C21 1.363 . S
N17 C19 1.371 . S
N17 C20 1.372 . S
N18 C20 1.361 . S
N18 C21 1.377 . S
C19 N16 1.382 . S
C19 N17 1.371 . S
C19 C22 1.480 . S
C20 N17 1.372 . S
C20 N18 1.361 . S
C20 C28 1.457 . S
C21 N16 1.363 . S
C21 N18 1.377 . S
C21 C34 1.479 . S
C22 C19 1.480 . S
C22 C23 1.383 . S
C22 C27 1.385 . S
C23 H4 0.947 . S
C23 C22 1.383 . S
C23 C24 1.388 . S
C24 H5 0.946 . S
C24 C23 1.388 . S
C24 C25 1.384 . S
C25 C24 1.384 . S
C25 C26 1.377 . S
C26 H6 0.953 . S
C26 C25 1.377 . S
C26 C27 1.369 . S
C27 H7 0.945 . S
C27 C22 1.385 . S
C27 C26 1.369 . S
C28 C20 1.457 . S
C28 C29 1.372 . S
C28 C33 1.364 . S
C29 H8 0.952 . S
C29 C28 1.372 . S
C29 C30 1.389 . S
C30 H9 0.949 . S
C30 C29 1.389 . S
C30 C31 1.387 . S
C31 C30 1.387 . S
C31 C32 1.372 . S
C32 H10 0.950 . S
C32 C31 1.372 . S
C32 C33 1.379 . S
C33 H11 0.948 . S
C33 C28 1.364 . S
C33 C32 1.379 . S
C34 C3 1.383 . S
C34 C21 1.479 . S
C34 C35 1.398 . S
C35 C0 1.382 . S
C35 H12 0.951 . S
C35 C34 1.398 . S
C36 C37 1.384 . S
C36 H49 0.947 . S
C36 C71 1.382 . S
C37 C36 1.384 . S
C37 C38 1.378 . S
C38 C37 1.378 . S
C38 C39 1.378 . S
C38 H50 0.952 . S
C39 C38 1.378 . S
C39 H51 0.950 . S
C39 C70 1.383 . S
H40 C59 0.947 . S
H41 C60 0.946 . S
H42 C62 0.953 . S
H43 C63 0.945 . S
H44 C65 0.952 . S
H45 C66 0.949 . S
H46 C68 0.950 . S
H47 C69 0.948 . S
H48 C71 0.951 . S
H49 C36 0.947 . S
H50 C38 0.952 . S
H51 C39 0.950 . S
N52 C55 1.382 . S
N52 C57 1.363 . S
N53 C55 1.371 . S
N53 C56 1.372 . S
N54 C56 1.361 . S
N54 C57 1.377 . S
C55 N52 1.382 . S
C55 N53 1.371 . S
C55 C58 1.480 . S
C56 N53 1.372 . S
C56 N54 1.361 . S
C56 C64 1.457 . S
C57 N52 1.363 . S
C57 N54 1.377 . S
C57 C70 1.479 . S
C58 C55 1.480 . S
C58 C59 1.383 . S
C58 C63 1.385 . S
C59 H40 0.947 . S
C59 C58 1.383 . S
C59 C60 1.388 . S
C60 H41 0.946 . S
C60 C59 1.388 . S
C60 C61 1.384 . S
C61 C60 1.384 . S
C61 C62 1.377 . S
C62 H42 0.953 . S
C62 C61 1.377 . S
C62 C63 1.369 . S
C63 H43 0.945 . S
C63 C58 1.385 . S
C63 C62 1.369 . S
C64 C56 1.457 . S
C64 C65 1.372 . S
C64 C69 1.364 . S
C65 H44 0.952 . S
C65 C64 1.372 . S
C65 C66 1.389 . S
C66 H45 0.949 . S
C66 C65 1.389 . S
C66 C67 1.387 . S
C67 C66 1.387 . S
C67 C68 1.372 . S
C68 H46 0.950 . S
C68 C67 1.372 . S
C68 C69 1.379 . S
C69 H47 0.948 . S
C69 C64 1.364 . S
C69 C68 1.379 . S
C70 C39 1.383 . S
C70 C57 1.479 . S
C70 C71 1.398 . S
C71 C36 1.382 . S
C71 H48 0.951 . S
C71 C70 1.398 . S
C72 C73 1.384 . S
C72 H85 0.947 . S
C72 C107 1.382 . S
C73 C72 1.384 . S
C73 C74 1.378 . S
C74 C73 1.378 . S
C74 C75 1.378 . S
C74 H86 0.952 . S
C75 C74 1.378 . S
C75 H87 0.950 . S
C75 C106 1.383 . S
H76 C95 0.947 . S
H77 C96 0.946 . S
H78 C98 0.953 . S
H79 C99 0.945 . S
H80 C101 0.952 . S
H81 C102 0.949 . S
H82 C104 0.950 . S
H83 C105 0.948 . S
H84 C107 0.951 . S
H85 C72 0.947 . S
H86 C74 0.952 . S
H87 C75 0.950 . S
N88 C91 1.382 . S
N88 C93 1.363 . S
N89 C91 1.371 . S
N89 C92 1.372 . S
N90 C92 1.361 . S
N90 C93 1.377 . S
C91 N88 1.382 . S
C91 N89 1.371 . S
C91 C94 1.480 . S
C92 N89 1.372 . S
C92 N90 1.361 . S
C92 C100 1.457 . S
C93 N88 1.363 . S
C93 N90 1.377 . S
C93 C106 1.479 . S
C94 C91 1.480 . S
C94 C95 1.383 . S
C94 C99 1.385 . S
C95 H76 0.947 . S
C95 C94 1.383 . S
C95 C96 1.388 . S
C96 H77 0.946 . S
C96 C95 1.388 . S
C96 C97 1.384 . S
C97 C96 1.384 . S
C97 C98 1.377 . S
C98 H78 0.953 . S
C98 C97 1.377 . S
C98 C99 1.369 . S
C99 H79 0.945 . S
C99 C94 1.385 . S
C99 C98 1.369 . S
C100 C92 1.457 . S
C100 C101 1.372 . S
C100 C105 1.364 . S
C101 H80 0.952 . S
C101 C100 1.372 . S
C101 C102 1.389 . S
C102 H81 0.949 . S
C102 C101 1.389 . S
C102 C103 1.387 . S
C103 C102 1.387 . S
C103 C104 1.372 . S
C104 H82 0.950 . S
C104 C103 1.372 . S
C104 C105 1.379 . S
C105 H83 0.948 . S
C105 C100 1.364 . S
C105 C104 1.379 . S
C106 C75 1.383 . S
C106 C93 1.479 . S
C106 C107 1.398 . S
C107 C72 1.382 . S
C107 H84 0.951 . S
C107 C106 1.398 . S
C108 C109 1.384 . S
C108 H121 0.947 . S
C108 C143 1.382 . S
C109 C108 1.384 . S
C109 C110 1.378 . S
C110 C109 1.378 . S
C110 C111 1.378 . S
C110 H122 0.952 . S
C111 C110 1.378 . S
C111 H123 0.950 . S
C111 C142 1.383 . S
H112 C131 0.947 . S
H113 C132 0.946 . S
H114 C134 0.953 . S
H115 C135 0.945 . S
H116 C137 0.952 . S
H117 C138 0.949 . S
H118 C140 0.950 . S
H119 C141 0.948 . S
H120 C143 0.951 . S
H121 C108 0.947 . S
H122 C110 0.952 . S
H123 C111 0.950 . S
N124 C127 1.382 . S
N124 C129 1.363 . S
N125 C127 1.371 . S
N125 C128 1.372 . S
N126 C128 1.361 . S
N126 C129 1.377 . S
C127 N124 1.382 . S
C127 N125 1.371 . S
C127 C130 1.480 . S
C128 N125 1.372 . S
C128 N126 1.361 . S
C128 C136 1.457 . S
C129 N124 1.363 . S
C129 N126 1.377 . S
C129 C142 1.479 . S
C130 C127 1.480 . S
C130 C131 1.383 . S
C130 C135 1.385 . S
C131 H112 0.947 . S
C131 C130 1.383 . S
C131 C132 1.388 . S
C132 H113 0.946 . S
C132 C131 1.388 . S
C132 C133 1.384 . S
C133 C132 1.384 . S
C133 C134 1.377 . S
C134 H114 0.953 . S
C134 C133 1.377 . S
C134 C135 1.369 . S
C135 H115 0.945 . S
C135 C130 1.385 . S
C135 C134 1.369 . S
C136 C128 1.457 . S
C136 C137 1.372 . S
C136 C141 1.364 . S
C137 H116 0.952 . S
C137 C136 1.372 . S
C137 C138 1.389 . S
C138 H117 0.949 . S
C138 C137 1.389 . S
C138 C139 1.387 . S
C139 C138 1.387 . S
C139 C140 1.372 . S
C140 H118 0.950 . S
C140 C139 1.372 . S
C140 C141 1.379 . S
C141 H119 0.948 . S
C141 C136 1.364 . S
C141 C140 1.379 . S
C142 C111 1.383 . S
C142 C129 1.479 . S
C142 C143 1.398 . S
C143 C108 1.382 . S
C143 H120 0.951 . S
C143 C142 1.398 . S
C144 C145 1.384 . S
C144 H157 0.947 . S
C144 C179 1.382 . S
C145 C144 1.384 . S
C145 C146 1.378 . S
C146 C145 1.378 . S
C146 C147 1.378 . S
C146 H158 0.952 . S
C147 C146 1.378 . S
C147 H159 0.950 . S
C147 C178 1.383 . S
H148 C167 0.947 . S
H149 C168 0.946 . S
H150 C170 0.953 . S
H151 C171 0.945 . S
H152 C173 0.952 . S
H153 C174 0.949 . S
H154 C176 0.950 . S
H155 C177 0.948 . S
H156 C179 0.951 . S
H157 C144 0.947 . S
H158 C146 0.952 . S
H159 C147 0.950 . S
N160 C163 1.382 . S
N160 C165 1.363 . S
N161 C163 1.371 . S
N161 C164 1.372 . S
N162 C164 1.361 . S
N162 C165 1.377 . S
C163 N160 1.382 . S
C163 N161 1.371 . S
C163 C166 1.480 . S
C164 N161 1.372 . S
C164 N162 1.361 . S
C164 C172 1.457 . S
C165 N160 1.363 . S
C165 N162 1.377 . S
C165 C178 1.479 . S
C166 C163 1.480 . S
C166 C167 1.383 . S
C166 C171 1.385 . S
C167 H148 0.947 . S
C167 C166 1.383 . S
C167 C168 1.388 . S
C168 H149 0.946 . S
C168 C167 1.388 . S
C168 C169 1.384 . S
C169 C168 1.384 . S
C169 C170 1.377 . S
C170 H150 0.953 . S
C170 C169 1.377 . S
C170 C171 1.369 . S
C171 H151 0.945 . S
C171 C166 1.385 . S
C171 C170 1.369 . S
C172 C164 1.457 . S
C172 C173 1.372 . S
C172 C177 1.364 . S
C173 H152 0.952 . S
C173 C172 1.372 . S
C173 C174 1.389 . S
C174 H153 0.949 . S
C174 C173 1.389 . S
C174 C175 1.387 . S
C175 C174 1.387 . S
C175 C176 1.372 . S
C176 H154 0.950 . S
C176 C175 1.372 . S
C176 C177 1.379 . S
C177 H155 0.948 . S
C177 C172 1.364 . S
C177 C176 1.379 . S
C178 C147 1.383 . S
C178 C165 1.479 . S
C178 C179 1.398 . S
C179 C144 1.382 . S
C179 H156 0.951 . S
C179 C178 1.398 . S
C180 C181 1.384 . S
C180 H193 0.947 . S
C180 C215 1.382 . S
C181 C180 1.384 . S
C181 C182 1.378 . S
C182 C181 1.378 . S
C182 C183 1.378 . S
C182 H194 0.952 . S
C183 C182 1.378 . S
C183 H195 0.950 . S
C183 C214 1.383 . S
H184 C203 0.947 . S
H185 C204 0.946 . S
H186 C206 0.953 . S
H187 C207 0.945 . S
H188 C209 0.952 . S
H189 C210 0.949 . S
H190 C212 0.950 . S
H191 C213 0.948 . S
H192 C215 0.951 . S
H193 C180 0.947 . S
H194 C182 0.952 . S
H195 C183 0.950 . S
N196 C199 1.382 . S
N196 C201 1.363 . S
N197 C199 1.371 . S
N197 C200 1.372 . S
N198 C200 1.361 . S
N198 C201 1.377 . S
C199 N196 1.382 . S
C199 N197 1.371 . S
C199 C202 1.480 . S
C200 N197 1.372 . S
C200 N198 1.361 . S
C200 C208 1.457 . S
C201 N196 1.363 . S
C201 N198 1.377 . S
C201 C214 1.479 . S
C202 C199 1.480 . S
C202 C203 1.383 . S
C202 C207 1.385 . S
C203 H184 0.947 . S
C203 C202 1.383 . S
C203 C204 1.388 . S
C204 H185 0.946 . S
C204 C203 1.388 . S
C204 C205 1.384 . S
C205 C204 1.384 . S
C205 C206 1.377 . S
C206 H186 0.953 . S
C206 C205 1.377 . S
C206 C207 1.369 . S
C207 H187 0.945 . S
C207 C202 1.385 . S
C207 C206 1.369 . S
C208 C200 1.457 . S
C208 C209 1.372 . S
C208 C213 1.364 . S
C209 H188 0.952 . S
C209 C208 1.372 . S
C209 C210 1.389 . S
C210 H189 0.949 . S
C210 C209 1.389 . S
C210 C211 1.387 . S
C211 C210 1.387 . S
C211 C212 1.372 . S
C212 H190 0.950 . S
C212 C211 1.372 . S
C212 C213 1.379 . S
C213 H191 0.948 . S
C213 C208 1.364 . S
C213 C212 1.379 . S
C214 C183 1.383 . S
C214 C201 1.479 . S
C214 C215 1.398 . S
C215 C180 1.382 . S
C215 H192 0.951 . S
C215 C214 1.398 . S
C216 C217 1.384 . S
C216 H229 0.947 . S
C216 C251 1.382 . S
C217 C216 1.384 . S
C217 C218 1.378 . S
C218 C217 1.378 . S
C218 C219 1.378 . S
C218 H230 0.952 . S
C219 C218 1.378 . S
C219 H231 0.950 . S
C219 C250 1.383 . S
H220 C239 0.947 . S
H221 C240 0.946 . S
H222 C242 0.953 . S
H223 C243 0.945 . S
H224 C245 0.952 . S
H225 C246 0.949 . S
H226 C248 0.950 . S
H227 C249 0.948 . S
H228 C251 0.951 . S
H229 C216 0.947 . S
H230 C218 0.952 . S
H231 C219 0.950 . S
N232 C235 1.382 . S
N232 C237 1.363 . S
N233 C235 1.371 . S
N233 C236 1.372 . S
N234 C236 1.361 . S
N234 C237 1.377 . S
C235 N232 1.382 . S
C235 N233 1.371 . S
C235 C238 1.480 . S
C236 N233 1.372 . S
C236 N234 1.361 . S
C236 C244 1.457 . S
C237 N232 1.363 . S
C237 N234 1.377 . S
C237 C250 1.479 . S
C238 C235 1.480 . S
C238 C239 1.383 . S
C238 C243 1.385 . S
C239 H220 0.947 . S
C239 C238 1.383 . S
C239 C240 1.388 . S
C240 H221 0.946 . S
C240 C239 1.388 . S
C240 C241 1.384 . S
C241 C240 1.384 . S
C241 C242 1.377 . S
C242 H222 0.953 . S
C242 C241 1.377 . S
C242 C243 1.369 . S
C243 H223 0.945 . S
C243 C238 1.385 . S
C243 C242 1.369 . S
C244 C236 1.457 . S
C244 C245 1.372 . S
C244 C249 1.364 . S
C245 H224 0.952 . S
C245 C244 1.372 . S
C245 C246 1.389 . S
C246 H225 0.949 . S
C246 C245 1.389 . S
C246 C247 1.387 . S
C247 C246 1.387 . S
C247 C248 1.372 . S
C248 H226 0.950 . S
C248 C247 1.372 . S
C248 C249 1.379 . S
C249 H227 0.948 . S
C249 C244 1.364 . S
C249 C248 1.379 . S
C250 C219 1.383 . S
C250 C237 1.479 . S
C250 C251 1.398 . S
C251 C216 1.382 . S
C251 H228 0.951 . S
C251 C250 1.398 . S
C252 C253 1.384 . S
C252 H265 0.947 . S
C252 C287 1.382 . S
C253 C252 1.384 . S
C253 C254 1.378 . S
C254 C253 1.378 . S
C254 C255 1.378 . S
C254 H266 0.952 . S
C255 C254 1.378 . S
C255 H267 0.950 . S
C255 C286 1.383 . S
H256 C275 0.947 . S
H257 C276 0.946 . S
H258 C278 0.953 . S
H259 C279 0.945 . S
H260 C281 0.952 . S
H261 C282 0.949 . S
H262 C284 0.950 . S
H263 C285 0.948 . S
H264 C287 0.951 . S
H265 C252 0.947 . S
H266 C254 0.952 . S
H267 C255 0.950 . S
N268 C271 1.382 . S
N268 C273 1.363 . S
N269 C271 1.371 . S
N269 C272 1.372 . S
N270 C272 1.361 . S
N270 C273 1.377 . S
C271 N268 1.382 . S
C271 N269 1.371 . S
C271 C274 1.480 . S
C272 N269 1.372 . S
C272 N270 1.361 . S
C272 C280 1.457 . S
C273 N268 1.363 . S
C273 N270 1.377 . S
C273 C286 1.479 . S
C274 C271 1.480 . S
C274 C275 1.383 . S
C274 C279 1.385 . S
C275 H256 0.947 . S
C275 C274 1.383 . S
C275 C276 1.388 . S
C276 H257 0.946 . S
C276 C275 1.388 . S
C276 C277 1.384 . S
C277 C276 1.384 . S
C277 C278 1.377 . S
C278 H258 0.953 . S
C278 C277 1.377 . S
C278 C279 1.369 . S
C279 H259 0.945 . S
C279 C274 1.385 . S
C279 C278 1.369 . S
C280 C272 1.457 . S
C280 C281 1.372 . S
C280 C285 1.364 . S
C281 H260 0.952 . S
C281 C280 1.372 . S
C281 C282 1.389 . S
C282 H261 0.949 . S
C282 C281 1.389 . S
C282 C283 1.387 . S
C283 C282 1.387 . S
C283 C284 1.372 . S
C284 H262 0.950 . S
C284 C283 1.372 . S
C284 C285 1.379 . S
C285 H263 0.948 . S
C285 C280 1.364 . S
C285 C284 1.379 . S
C286 C255 1.383 . S
C286 C273 1.479 . S
C286 C287 1.398 . S
C287 C252 1.382 . S
C287 H264 0.951 . S
C287 C286 1.398 . S
C288 C289 1.384 . S
C288 H301 0.947 . S
C288 C323 1.382 . S
C289 C288 1.384 . S
C289 C290 1.378 . S
C290 C289 1.378 . S
C290 C291 1.378 . S
C290 H302 0.952 . S
C291 C290 1.378 . S
C291 H303 0.950 . S
C291 C322 1.383 . S
H292 C311 0.947 . S
H293 C312 0.946 . S
H294 C314 0.953 . S
H295 C315 0.945 . S
H296 C317 0.952 . S
H297 C318 0.949 . S
H298 C320 0.950 . S
H299 C321 0.948 . S
H300 C323 0.951 . S
H301 C288 0.947 . S
H302 C290 0.952 . S
H303 C291 0.950 . S
N304 C307 1.382 . S
N304 C309 1.363 . S
N305 C307 1.371 . S
N305 C308 1.372 . S
N306 C308 1.361 . S
N306 C309 1.377 . S
C307 N304 1.382 . S
C307 N305 1.371 . S
C307 C310 1.480 . S
C308 N305 1.372 . S
C308 N306 1.361 . S
C308 C316 1.457 . S
C309 N304 1.363 . S
C309 N306 1.377 . S
C309 C322 1.479 . S
C310 C307 1.480 . S
C310 C311 1.383 . S
C310 C315 1.385 . S
C311 H292 0.947 . S
C311 C310 1.383 . S
C311 C312 1.388 . S
C312 H293 0.946 . S
C312 C311 1.388 . S
C312 C313 1.384 . S
C313 C312 1.384 . S
C313 C314 1.377 . S
C314 H294 0.953 . S
C314 C313 1.377 . S
C314 C315 1.369 . S
C315 H295 0.945 . S
C315 C310 1.385 . S
C315 C314 1.369 . S
C316 C308 1.457 . S
C316 C317 1.372 . S
C316 C321 1.364 . S
C317 H296 0.952 . S
C317 C316 1.372 . S
C317 C318 1.389 . S
C318 H297 0.949 . S
C318 C317 1.389 . S
C318 C319 1.387 . S
C319 C318 1.387 . S
C319 C320 1.372 . S
C320 H298 0.950 . S
C320 C319 1.372 . S
C320 C321 1.379 . S
C321 H299 0.948 . S
C321 C316 1.364 . S
C321 C320 1.379 . S
C322 C291 1.383 . S
C322 C309 1.479 . S
C322 C323 1.398 . S
C323 C288 1.382 . S
C323 H300 0.951 . S
C323 C322 1.398 . S
C324 C325 1.384 . S
C324 H337 0.947 . S
C324 C359 1.382 . S
C325 C324 1.384 . S
C325 C326 1.378 . S
C326 C325 1.378 . S
C326 C327 1.378 . S
C326 H338 0.952 1_556 S
C327 C326 1.378 . S
C327 H339 0.950 . S
C327 C358 1.383 . S
H328 C347 0.947 . S
H329 C348 0.946 1_554 S
H330 C350 0.953 . S
H331 C351 0.945 . S
H332 C353 0.952 . S
H333 C354 0.949 . S
H334 C356 0.950 . S
H335 C357 0.948 . S
H336 C359 0.951 . S
H337 C324 0.947 . S
H338 C326 0.952 1_554 S
H339 C327 0.950 . S
N340 C343 1.382 . S
N340 C345 1.363 . S
N341 C343 1.371 . S
N341 C344 1.372 . S
N342 C344 1.361 . S
N342 C345 1.377 . S
C343 N340 1.382 . S
C343 N341 1.371 . S
C343 C346 1.480 . S
C344 N341 1.372 . S
C344 N342 1.361 . S
C344 C352 1.457 . S
C345 N340 1.363 . S
C345 N342 1.377 . S
C345 C358 1.479 . S
C346 C343 1.480 . S
C346 C347 1.383 . S
C346 C351 1.385 . S
C347 H328 0.947 . S
C347 C346 1.383 . S
C347 C348 1.388 . S
C348 H329 0.946 1_556 S
C348 C347 1.388 . S
C348 C349 1.384 . S
C349 C348 1.384 . S
C349 C350 1.377 . S
C350 H330 0.953 . S
C350 C349 1.377 . S
C350 C351 1.369 . S
C351 H331 0.945 . S
C351 C346 1.385 . S
C351 C350 1.369 . S
C352 C344 1.457 . S
C352 C353 1.372 . S
C352 C357 1.364 . S
C353 H332 0.952 . S
C353 C352 1.372 . S
C353 C354 1.389 . S
C354 H333 0.949 . S
C354 C353 1.389 . S
C354 C355 1.387 . S
C355 C354 1.387 . S
C355 C356 1.372 . S
C356 H334 0.950 . S
C356 C355 1.372 . S
C356 C357 1.379 . S
C357 H335 0.948 . S
C357 C352 1.364 . S
C357 C356 1.379 . S
C358 C327 1.383 . S
C358 C345 1.479 . S
C358 C359 1.398 . S
C359 C324 1.382 . S
C359 H336 0.951 . S
C359 C358 1.398 . S
C360 C361 1.384 . S
C360 H373 0.947 . S
C360 C395 1.382 . S
C361 C360 1.384 . S
C361 C362 1.398 . S
C362 C361 1.398 . S
C362 C363 1.394 . S
C362 H374 0.916 1_556 S
C363 C362 1.394 . S
C363 H375 0.950 . S
C363 C394 1.383 . S
H364 C383 0.947 . S
H365 C384 0.946 1_554 S
H366 C386 0.953 . S
H367 C387 0.945 . S
H368 C389 0.952 . S
H369 C390 0.949 . S
H370 C392 0.950 . S
H371 C393 0.948 . S
H372 C395 0.951 . S
H373 C360 0.947 . S
H374 C362 0.916 1_554 S
H375 C363 0.950 . S
N376 C379 1.382 . S
N376 C381 1.363 . S
N377 C379 1.371 . S
N377 C380 1.372 . S
N378 C380 1.361 . S
N378 C381 1.377 . S
C379 N376 1.382 . S
C379 N377 1.371 . S
C379 C382 1.480 . S
C380 N377 1.372 . S
C380 N378 1.361 . S
C380 C388 1.457 . S
C381 N376 1.363 . S
C381 N378 1.377 . S
C381 C394 1.479 . S
C382 C379 1.480 . S
C382 C383 1.383 . S
C382 C387 1.385 . S
C383 H364 0.947 . S
C383 C382 1.383 . S
C383 C384 1.388 . S
C384 H365 0.946 1_556 S
C384 C383 1.388 . S
C384 C385 1.384 . S
C385 C384 1.384 . S
C385 C386 1.377 . S
C386 H366 0.953 . S
C386 C385 1.377 . S
C386 C387 1.369 . S
C387 H367 0.945 . S
C387 C382 1.385 . S
C387 C386 1.369 . S
C388 C380 1.457 . S
C388 C389 1.372 . S
C388 C393 1.364 . S
C389 H368 0.952 . S
C389 C388 1.372 . S
C389 C390 1.389 . S
C390 H369 0.949 . S
C390 C389 1.389 . S
C390 C391 1.387 . S
C391 C390 1.387 . S
C391 C392 1.372 . S
C392 H370 0.950 . S
C392 C391 1.372 . S
C392 C393 1.379 . S
C393 H371 0.948 . S
C393 C388 1.364 . S
C393 C392 1.379 . S
C394 C363 1.383 . S
C394 C381 1.479 . S
C394 C395 1.398 . S
C395 C360 1.382 . S
C395 H372 0.951 . S
C395 C394 1.398 . S
C396 C397 1.384 . S
C396 H409 0.947 . S
C396 C431 1.382 . S
C397 C396 1.384 . S
C397 C398 1.378 . S
C398 C397 1.378 . S
C398 C399 1.378 . S
C398 H410 0.952 1_556 S
C399 C398 1.378 . S
C399 H411 0.950 . S
C399 C430 1.383 . S
H400 C419 0.947 . S
H401 C420 0.946 1_554 S
H402 C422 0.953 . S
H403 C423 0.945 . S
H404 C425 0.952 . S
H405 C426 0.949 . S
H406 C428 0.950 . S
H407 C429 0.948 . S
H408 C431 0.951 . S
H409 C396 0.947 . S
H410 C398 0.952 1_554 S
H411 C399 0.950 . S
N412 C415 1.382 . S
N412 C417 1.363 . S
N413 C415 1.371 . S
N413 C416 1.372 . S
N414 C416 1.361 . S
N414 C417 1.377 . S
C415 N412 1.382 . S
C415 N413 1.371 . S
C415 C418 1.480 . S
C416 N413 1.372 . S
C416 N414 1.361 . S
C416 C424 1.457 . S
C417 N412 1.363 . S
C417 N414 1.377 . S
C417 C430 1.479 . S
C418 C415 1.480 . S
C418 C419 1.383 . S
C418 C423 1.385 . S
C419 H400 0.947 . S
C419 C418 1.383 . S
C419 C420 1.388 . S
C420 H401 0.946 1_556 S
C420 C419 1.388 . S
C420 C421 1.384 . S
C421 C420 1.384 . S
C421 C422 1.377 . S
C422 H402 0.953 . S
C422 C421 1.377 . S
C422 C423 1.369 . S
C423 H403 0.945 . S
C423 C418 1.385 . S
C423 C422 1.369 . S
C424 C416 1.457 . S
C424 C425 1.372 . S
C424 C429 1.364 . S
C425 H404 0.952 . S
C425 C424 1.372 . S
C425 C426 1.389 . S
C426 H405 0.949 . S
C426 C425 1.389 . S
C426 C427 1.387 . S
C427 C426 1.387 . S
C427 C428 1.372 . S
C428 H406 0.950 . S
C428 C427 1.372 . S
C428 C429 1.379 . S
C429 H407 0.948 . S
C429 C424 1.364 . S
C429 C428 1.379 . S
C430 C399 1.383 . S
C430 C417 1.479 . S
C430 C431 1.398 . S
C431 C396 1.382 . S
C431 H408 0.951 . S
C431 C430 1.398 . S
C432 C433 1.384 . S
C432 H445 0.947 . S
C432 C467 1.382 . S
C433 C432 1.384 . S
C433 C434 1.378 . S
C434 C433 1.378 . S
C434 C435 1.378 . S
C434 H446 0.952 1_554 S
C435 C434 1.378 . S
C435 H447 0.950 . S
C435 C466 1.383 . S
H436 C455 0.947 . S
H437 C456 0.946 1_556 S
H438 C458 0.953 . S
H439 C459 0.945 . S
H440 C461 0.952 . S
H441 C462 0.949 . S
H442 C464 0.950 . S
H443 C465 0.948 . S
H444 C467 0.951 . S
H445 C432 0.947 . S
H446 C434 0.952 1_556 S
H447 C435 0.950 . S
N448 C451 1.382 . S
N448 C453 1.363 . S
N449 C451 1.371 . S
N449 C452 1.372 . S
N450 C452 1.361 . S
N450 C453 1.377 . S
C451 N448 1.382 . S
C451 N449 1.371 . S
C451 C454 1.480 . S
C452 N449 1.372 . S
C452 N450 1.361 . S
C452 C460 1.457 . S
C453 N448 1.363 . S
C453 N450 1.377 . S
C453 C466 1.479 . S
C454 C451 1.480 . S
C454 C455 1.383 . S
C454 C459 1.385 . S
C455 H436 0.947 . S
C455 C454 1.383 . S
C455 C456 1.388 . S
C456 H437 0.946 1_554 S
C456 C455 1.388 . S
C456 C457 1.384 . S
C457 C456 1.384 . S
C457 C458 1.377 . S
C458 H438 0.953 . S
C458 C457 1.377 . S
C458 C459 1.369 . S
C459 H439 0.945 . S
C459 C454 1.385 . S
C459 C458 1.369 . S
C460 C452 1.457 . S
C460 C461 1.372 . S
C460 C465 1.364 . S
C461 H440 0.952 . S
C461 C460 1.372 . S
C461 C462 1.389 . S
C462 H441 0.949 . S
C462 C461 1.389 . S
C462 C463 1.387 . S
C463 C462 1.387 . S
C463 C464 1.372 . S
C464 H442 0.950 . S
C464 C463 1.372 . S
C464 C465 1.379 . S
C465 H443 0.948 . S
C465 C460 1.364 . S
C465 C464 1.379 . S
C466 C435 1.383 . S
C466 C453 1.479 . S
C466 C467 1.398 . S
C467 C432 1.382 . S
C467 H444 0.951 . S
C467 C466 1.398 . S
C468 C469 1.384 . S
C468 H481 0.947 . S
C468 C503 1.382 . S
C469 C468 1.384 . S
C469 C470 1.378 . S
C470 C469 1.378 . S
C470 C471 1.378 . S
C470 H482 0.952 1_554 S
C471 C470 1.378 . S
C471 H483 0.950 . S
C471 C502 1.383 . S
H472 C491 0.947 . S
H473 C492 0.946 1_556 S
H474 C494 0.953 . S
H475 C495 0.945 . S
H476 C497 0.952 . S
H477 C498 0.949 . S
H478 C500 0.950 . S
H479 C501 0.948 . S
H480 C503 0.951 . S
H481 C468 0.947 . S
H482 C470 0.952 1_556 S
H483 C471 0.950 . S
N484 C487 1.382 . S
N484 C489 1.363 . S
N485 C487 1.371 . S
N485 C488 1.372 . S
N486 C488 1.361 . S
N486 C489 1.377 . S
C487 N484 1.382 . S
C487 N485 1.371 . S
C487 C490 1.480 . S
C488 N485 1.372 . S
C488 N486 1.361 . S
C488 C496 1.457 . S
C489 N484 1.363 . S
C489 N486 1.377 . S
C489 C502 1.479 . S
C490 C487 1.480 . S
C490 C491 1.383 . S
C490 C495 1.385 . S
C491 H472 0.947 . S
C491 C490 1.383 . S
C491 C492 1.388 . S
C492 H473 0.946 1_554 S
C492 C491 1.388 . S
C492 C493 1.384 . S
C493 C492 1.384 . S
C493 C494 1.377 . S
C494 H474 0.953 . S
C494 C493 1.377 . S
C494 C495 1.369 . S
C495 H475 0.945 . S
C495 C490 1.385 . S
C495 C494 1.369 . S
C496 C488 1.457 . S
C496 C497 1.372 . S
C496 C501 1.364 . S
C497 H476 0.952 . S
C497 C496 1.372 . S
C497 C498 1.389 . S
C498 H477 0.949 . S
C498 C497 1.389 . S
C498 C499 1.387 . S
C499 C498 1.387 . S
C499 C500 1.372 . S
C500 H478 0.950 . S
C500 C499 1.372 . S
C500 C501 1.379 . S
C501 H479 0.948 . S
C501 C496 1.364 . S
C501 C500 1.379 . S
C502 C471 1.383 . S
C502 C489 1.479 . S
C502 C503 1.398 . S
C503 C468 1.382 . S
C503 H480 0.951 . S
C503 C502 1.398 . S
C504 C505 1.384 . S
C504 H517 0.947 . S
C504 C539 1.382 . S
C505 C504 1.384 . S
C505 C506 1.378 . S
C506 C505 1.378 . S
C506 C507 1.378 . S
C506 H518 0.952 1_554 S
C507 C506 1.378 . S
C507 H519 0.950 . S
C507 C538 1.383 . S
H508 C527 0.947 . S
H509 C528 0.930 1_556 S
H510 C530 0.953 . S
H511 C531 0.945 . S
H512 C533 0.952 . S
H513 C534 0.949 . S
H514 C536 0.950 . S
H515 C537 0.948 . S
H516 C539 0.951 . S
H517 C504 0.947 . S
H518 C506 0.952 1_556 S
H519 C507 0.950 . S
N520 C523 1.382 . S
N520 C525 1.363 . S
N521 C523 1.371 . S
N521 C524 1.372 . S
N522 C524 1.361 . S
N522 C525 1.377 . S
C523 N520 1.382 . S
C523 N521 1.371 . S
C523 C526 1.480 . S
C524 N521 1.372 . S
C524 N522 1.361 . S
C524 C532 1.457 . S
C525 N520 1.363 . S
C525 N522 1.377 . S
C525 C538 1.479 . S
C526 C523 1.480 . S
C526 C527 1.383 . S
C526 C531 1.385 . S
C527 H508 0.947 . S
C527 C526 1.383 . S
C527 C528 1.388 . S
C528 H509 0.930 1_554 S
C528 C527 1.388 . S
C528 C529 1.384 . S
C529 C528 1.384 . S
C529 C530 1.377 . S
C530 H510 0.953 . S
C530 C529 1.377 . S
C530 C531 1.369 . S
C531 H511 0.945 . S
C531 C526 1.385 . S
C531 C530 1.369 . S
C532 C524 1.457 . S
C532 C533 1.372 . S
C532 C537 1.364 . S
C533 H512 0.952 . S
C533 C532 1.372 . S
C533 C534 1.389 . S
C534 H513 0.949 . S
C534 C533 1.389 . S
C534 C535 1.387 . S
C535 C534 1.387 . S
C535 C536 1.372 . S
C536 H514 0.950 . S
C536 C535 1.372 . S
C536 C537 1.379 . S
C537 H515 0.948 . S
C537 C532 1.364 . S
C537 C536 1.379 . S
C538 C507 1.383 . S
C538 C525 1.479 . S
C538 C539 1.398 . S
C539 C504 1.382 . S
C539 H516 0.951 . S
C539 C538 1.398 . S
C540 C541 1.384 . S
C540 H553 0.947 . S
C540 C575 1.382 . S
C541 C540 1.384 . S
C541 C542 1.378 . S
C542 C541 1.378 . S
C542 C543 1.378 . S
C542 H554 0.952 . S
C543 C542 1.378 . S
C543 H555 0.950 . S
C543 C574 1.383 . S
H544 C563 0.947 . S
H545 C564 0.946 . S
H546 C566 0.953 . S
H547 C567 0.945 . S
H548 C569 0.952 . S
H549 C570 0.949 . S
H550 C572 0.950 . S
H551 C573 0.948 . S
H552 C575 0.951 . S
H553 C540 0.947 . S
H554 C542 0.952 . S
H555 C543 0.950 . S
N556 C559 1.382 . S
N556 C561 1.363 . S
N557 C559 1.371 . S
N557 C560 1.372 . S
N558 C560 1.361 . S
N558 C561 1.377 . S
C559 N556 1.382 . S
C559 N557 1.371 . S
C559 C562 1.480 . S
C560 N557 1.372 . S
C560 N558 1.361 . S
C560 C568 1.457 . S
C561 N556 1.363 . S
C561 N558 1.377 . S
C561 C574 1.479 . S
C562 C559 1.480 . S
C562 C563 1.383 . S
C562 C567 1.385 . S
C563 H544 0.947 . S
C563 C562 1.383 . S
C563 C564 1.388 . S
C564 H545 0.946 . S
C564 C563 1.388 . S
C564 C565 1.384 . S
C565 C564 1.384 . S
C565 C566 1.377 . S
C566 H546 0.953 . S
C566 C565 1.377 . S
C566 C567 1.369 . S
C567 H547 0.945 . S
C567 C562 1.385 . S
C567 C566 1.369 . S
C568 C560 1.457 . S
C568 C569 1.372 . S
C568 C573 1.364 . S
C569 H548 0.952 . S
C569 C568 1.372 . S
C569 C570 1.389 . S
C570 H549 0.949 . S
C570 C569 1.389 . S
C570 C571 1.387 . S
C571 C570 1.387 . S
C571 C572 1.372 . S
C572 H550 0.950 . S
C572 C571 1.372 . S
C572 C573 1.379 . S
C573 H551 0.948 . S
C573 C568 1.364 . S
C573 C572 1.379 . S
C574 C543 1.383 . S
C574 C561 1.479 . S
C574 C575 1.398 . S
C575 C540 1.382 . S
C575 H552 0.951 . S
C575 C574 1.398 . S
C576 C577 1.384 . S
C576 H589 0.947 . S
C576 C611 1.382 . S
C577 C576 1.384 . S
C577 C578 1.378 . S
C578 C577 1.378 . S
C578 C579 1.378 . S
C578 H590 0.952 . S
C579 C578 1.378 . S
C579 H591 0.950 . S
C579 C610 1.383 . S
H580 C599 0.947 . S
H581 C600 0.946 . S
H582 C602 0.953 . S
H583 C603 0.945 . S
H584 C605 0.952 . S
H585 C606 0.949 . S
H586 C608 0.950 . S
H587 C609 0.948 . S
H588 C611 0.951 . S
H589 C576 0.947 . S
H590 C578 0.952 . S
H591 C579 0.950 . S
N592 C595 1.382 . S
N592 C597 1.363 . S
N593 C595 1.371 . S
N593 C596 1.372 . S
N594 C596 1.361 . S
N594 C597 1.377 . S
C595 N592 1.382 . S
C595 N593 1.371 . S
C595 C598 1.480 . S
C596 N593 1.372 . S
C596 N594 1.361 . S
C596 C604 1.457 . S
C597 N592 1.363 . S
C597 N594 1.377 . S
C597 C610 1.479 . S
C598 C595 1.480 . S
C598 C599 1.383 . S
C598 C603 1.385 . S
C599 H580 0.947 . S
C599 C598 1.383 . S
C599 C600 1.388 . S
C600 H581 0.946 . S
C600 C599 1.388 . S
C600 C601 1.384 . S
C601 C600 1.384 . S
C601 C602 1.377 . S
C602 H582 0.953 . S
C602 C601 1.377 . S
C602 C603 1.369 . S
C603 H583 0.945 . S
C603 C598 1.385 . S
C603 C602 1.369 . S
C604 C596 1.457 . S
C604 C605 1.372 . S
C604 C609 1.364 . S
C605 H584 0.952 . S
C605 C604 1.372 . S
C605 C606 1.389 . S
C606 H585 0.949 . S
C606 C605 1.389 . S
C606 C607 1.387 . S
C607 C606 1.387 . S
C607 C608 1.372 . S
C608 H586 0.950 . S
C608 C607 1.372 . S
C608 C609 1.379 . S
C609 H587 0.948 . S
C609 C604 1.364 . S
C609 C608 1.379 . S
C610 C579 1.383 . S
C610 C597 1.479 . S
C610 C611 1.398 . S
C611 C576 1.382 . S
C611 H588 0.951 . S
C611 C610 1.398 . S
C612 C613 1.384 . S
C612 H625 0.947 . S
C612 C647 1.382 . S
C613 C612 1.384 . S
C613 C614 1.378 . S
C614 C613 1.378 . S
C614 C615 1.378 . S
C614 H626 0.952 . S
C615 C614 1.378 . S
C615 H627 0.950 . S
C615 C646 1.383 . S
H616 C635 0.947 . S
H617 C636 0.946 . S
H618 C638 0.953 . S
H619 C639 0.945 . S
H620 C641 0.952 . S
H621 C642 0.949 . S
H622 C644 0.950 . S
H623 C645 0.948 . S
H624 C647 0.951 . S
H625 C612 0.947 . S
H626 C614 0.952 . S
H627 C615 0.950 . S
N628 C631 1.382 . S
N628 C633 1.363 . S
N629 C631 1.371 . S
N629 C632 1.372 . S
N630 C632 1.361 . S
N630 C633 1.377 . S
C631 N628 1.382 . S
C631 N629 1.371 . S
C631 C634 1.480 . S
C632 N629 1.372 . S
C632 N630 1.361 . S
C632 C640 1.457 . S
C633 N628 1.363 . S
C633 N630 1.377 . S
C633 C646 1.479 . S
C634 C631 1.480 . S
C634 C635 1.383 . S
C634 C639 1.385 . S
C635 H616 0.947 . S
C635 C634 1.383 . S
C635 C636 1.388 . S
C636 H617 0.946 . S
C636 C635 1.388 . S
C636 C637 1.384 . S
C637 C636 1.384 . S
C637 C638 1.377 . S
C638 H618 0.953 . S
C638 C637 1.377 . S
C638 C639 1.369 . S
C639 H619 0.945 . S
C639 C634 1.385 . S
C639 C638 1.369 . S
C640 C632 1.457 . S
C640 C641 1.372 . S
C640 C645 1.364 . S
C641 H620 0.952 . S
C641 C640 1.372 . S
C641 C642 1.389 . S
C642 H621 0.949 . S
C642 C641 1.389 . S
C642 C643 1.387 . S
C643 C642 1.387 . S
C643 C644 1.372 . S
C644 H622 0.950 . S
C644 C643 1.372 . S
C644 C645 1.379 . S
C645 H623 0.948 . S
C645 C640 1.364 . S
C645 C644 1.379 . S
C646 C615 1.383 . S
C646 C633 1.479 . S
C646 C647 1.398 . S
C647 C612 1.382 . S
C647 H624 0.951 . S
C647 C646 1.398 . S
O648 Mn649 2.163 1_565 S
O648 C662 1.244 . S
Mn649 O648 2.163 1_545 S
Mn649 O652 2.160 . S
Mn649 O653 2.221 1_545 S
Mn649 O655 2.163 1_554 S
Mn649 O657 2.160 . S
Mn649 O667 2.221 . S
O650 Mn651 2.087 1_565 S
O650 C662 1.256 . S
Mn651 O650 2.087 1_545 S
Mn651 O658 2.089 . S
Mn651 O667 2.290 . S
Mn651 O668 2.251 . S
O652 Mn649 2.160 . S
O652 C663 1.239 1_554 S
O653 Mn649 2.221 1_565 S
O653 Mn654 2.290 1_554 S
O653 C664 1.271 1_554 S
Mn654 O653 2.290 1_556 S
Mn654 O656 2.089 1_565 S
Mn654 O659 2.251 . S
Mn654 O660 2.087 . S
O655 Mn649 2.163 1_556 S
O655 C665 1.244 . S
O656 Mn654 2.089 1_545 S
O656 C663 1.256 . S
O657 Mn649 2.160 . S
O657 C666 1.239 . S
O658 Mn651 2.089 . S
O658 C666 1.256 . S
O659 Mn654 2.251 . S
O659 C664 1.278 . S
O660 Mn654 2.087 . S
O660 C665 1.256 1_565 S
C661 O667 1.255 1_556 S
C661 O668 1.229 1_556 S
C662 O648 1.244 . S
C662 O650 1.256 . S
C663 O652 1.239 1_556 S
C663 O656 1.256 . S
C664 O653 1.271 1_556 S
C664 O659 1.278 . S
C665 O655 1.244 . S
C665 O660 1.256 1_545 S
C666 O657 1.239 . S
C666 O658 1.256 . S
O667 Mn649 2.221 . S
O667 Mn651 2.290 . S
O667 C661 1.255 1_554 S
O668 Mn651 2.251 . S
O668 C661 1.229 1_554 S
O669 Mn670 2.118 1_455 S
O669 C683 1.244 . S
Mn670 O669 2.118 1_655 S
Mn670 O673 2.205 . S
Mn670 O674 2.217 1_655 S
Mn670 O676 2.162 1_554 S
Mn670 O678 2.164 . S
Mn670 O688 2.229 . S
O671 Mn672 2.087 1_455 S
O671 C683 1.256 . S
Mn672 O671 2.087 1_655 S
Mn672 O679 2.089 1_655 S
Mn672 O688 2.290 . S
Mn672 O689 2.251 . S
O673 Mn670 2.205 . S
O673 C684 1.239 1_554 S
O674 Mn670 2.217 1_455 S
O674 Mn675 2.290 1_554 S
O674 C685 1.273 1_554 S
Mn675 O674 2.290 1_556 S
Mn675 O677 2.089 1_455 S
Mn675 O680 2.251 . S
Mn675 O681 2.087 . S
O676 Mn670 2.162 1_556 S
O676 C686 1.248 1_655 S
O677 Mn675 2.089 1_655 S
O677 C684 1.256 . S
O678 Mn670 2.164 . S
O678 C687 1.239 1_655 S
O679 Mn672 2.089 1_455 S
O679 C687 1.256 . S
O680 Mn675 2.251 . S
O680 C685 1.264 . S
O681 Mn675 2.087 . S
O681 C686 1.255 . S
C682 O688 1.278 1_556 S
C682 O689 1.241 1_556 S
C683 O669 1.244 . S
C683 O671 1.256 . S
C684 O673 1.239 1_556 S
C684 O677 1.256 . S
C685 O674 1.273 1_556 S
C685 O680 1.264 . S
C686 O676 1.248 1_455 S
C686 O681 1.255 . S
C687 O678 1.239 1_455 S
C687 O679 1.256 . S
O688 Mn670 2.229 . S
O688 Mn672 2.290 . S
O688 C682 1.278 1_554 S
O689 Mn672 2.251 . S
O689 C682 1.241 1_554 S
O690 Mn691 2.163 . S
O690 C704 1.244 . S
Mn691 O690 2.163 . S
Mn691 O694 2.160 1_556 S
Mn691 O695 2.221 1_556 S
Mn691 O697 2.163 1_556 S
Mn691 O699 2.160 . S
Mn691 O709 2.221 . S
O692 Mn693 2.087 . S
O692 C704 1.256 . S
Mn693 O692 2.087 . S
Mn693 O700 2.089 . S
Mn693 O709 2.290 . S
Mn693 O710 2.247 1_556 S
O694 Mn691 2.160 1_554 S
O694 C705 1.238 . S
O695 Mn691 2.221 1_554 S
O695 Mn696 2.290 . S
O695 C706 1.278 . S
Mn696 O695 2.290 . S
Mn696 O698 2.089 . S
Mn696 O701 2.251 . S
Mn696 O702 2.087 . S
O697 Mn691 2.163 1_554 S
O697 C707 1.244 . S
O698 Mn696 2.089 . S
O698 C705 1.256 . S
O699 Mn691 2.160 . S
O699 C708 1.239 . S
O700 Mn693 2.089 . S
O700 C708 1.256 . S
O701 Mn696 2.251 . S
O701 C706 1.241 . S
O702 Mn696 2.087 . S
O702 C707 1.256 . S
C703 O709 1.278 1_554 S
C703 O710 1.242 . S
C704 O690 1.244 . S
C704 O692 1.256 . S
C705 O694 1.238 . S
C705 O698 1.256 . S
C706 O695 1.278 . S
C706 O701 1.241 . S
C707 O697 1.244 . S
C707 O702 1.256 . S
C708 O699 1.239 . S
C708 O700 1.256 . S
O709 Mn691 2.221 . S
O709 Mn693 2.290 . S
O709 C703 1.278 1_556 S
O710 Mn693 2.247 1_554 S
O710 C703 1.242 . S
O711 Mn712 2.163 . S
O711 C725 1.244 . S
Mn712 O711 2.163 . S
Mn712 O715 2.160 . S
Mn712 O716 2.221 . S
Mn712 O718 2.163 . S
Mn712 O720 2.160 . S
Mn712 O730 2.221 . S
O713 Mn714 2.087 . S
O713 C725 1.256 . S
Mn714 O713 2.087 . S
Mn714 O721 2.089 . S
Mn714 O730 2.290 . S
Mn714 O731 2.251 . S
O715 Mn712 2.160 . S
O715 C726 1.239 . S
O716 Mn712 2.221 . S
O716 Mn717 2.290 . S
O716 C727 1.278 . S
Mn717 O716 2.290 . S
Mn717 O719 2.089 . S
Mn717 O722 2.251 . S
Mn717 O723 2.087 . S
O718 Mn712 2.163 . S
O718 C728 1.244 . S
O719 Mn717 2.089 . S
O719 C726 1.256 . S
O720 Mn712 2.160 . S
O720 C729 1.239 . S
O721 Mn714 2.089 . S
O721 C729 1.256 . S
O722 Mn717 2.251 . S
O722 C727 1.241 . S
O723 Mn717 2.087 . S
O723 C728 1.256 . S
C724 O730 1.278 . S
C724 O731 1.241 . S
C725 O711 1.244 . S
C725 O713 1.256 . S
C726 O715 1.239 . S
C726 O719 1.256 . S
C727 O716 1.278 . S
C727 O722 1.241 . S
C728 O718 1.244 . S
C728 O723 1.256 . S
C729 O720 1.239 . S
C729 O721 1.256 . S
O730 Mn712 2.221 . S
O730 Mn714 2.290 . S
O730 C724 1.278 . S
O731 Mn714 2.251 . S
O731 C724 1.241 . S
O732 Mn733 2.163 . S
O732 C746 1.244 . S
Mn733 O732 2.163 . S
Mn733 O736 2.160 . S
Mn733 O737 2.221 . S
Mn733 O739 2.163 . S
Mn733 O741 2.160 . S
Mn733 O751 2.221 . S
O734 Mn735 2.087 . S
O734 C746 1.256 . S
Mn735 O734 2.087 . S
Mn735 O742 2.089 . S
Mn735 O751 2.290 . S
Mn735 O752 2.251 . S
O736 Mn733 2.160 . S
O736 C747 1.239 . S
O737 Mn733 2.221 . S
O737 Mn738 2.290 . S
O737 C748 1.278 . S
Mn738 O737 2.290 . S
Mn738 O740 2.089 . S
Mn738 O743 2.251 . S
Mn738 O744 2.087 . S
O739 Mn733 2.163 . S
O739 C749 1.244 . S
O740 Mn738 2.089 . S
O740 C747 1.256 . S
O741 Mn733 2.160 . S
O741 C750 1.239 . S
O742 Mn735 2.089 . S
O742 C750 1.256 . S
O743 Mn738 2.251 . S
O743 C748 1.241 . S
O744 Mn738 2.087 . S
O744 C749 1.256 . S
C745 O751 1.278 . S
C745 O752 1.241 . S
C746 O732 1.244 . S
C746 O734 1.256 . S
C747 O736 1.239 . S
C747 O740 1.256 . S
C748 O737 1.278 . S
C748 O743 1.241 . S
C749 O739 1.244 . S
C749 O744 1.256 . S
C750 O741 1.239 . S
C750 O742 1.256 . S
O751 Mn733 2.221 . S
O751 Mn735 2.290 . S
O751 C745 1.278 . S
O752 Mn735 2.251 . S
O752 C745 1.241 . S
O753 Mn754 2.163 . S
O753 C767 1.244 . S
Mn754 O753 2.163 . S
Mn754 O757 2.160 . S
Mn754 O758 2.221 . S
Mn754 O760 2.163 . S
Mn754 O762 2.160 . S
Mn754 O772 2.221 . S
O755 Mn756 2.087 . S
O755 C767 1.256 . S
Mn756 O755 2.087 . S
Mn756 O763 2.089 . S
Mn756 O772 2.290 . S
Mn756 O773 2.251 . S
O757 Mn754 2.160 . S
O757 C768 1.239 . S
O758 Mn754 2.221 . S
O758 Mn759 2.290 . S
O758 C769 1.278 . S
Mn759 O758 2.290 . S
Mn759 O761 2.089 . S
Mn759 O764 2.251 . S
Mn759 O765 2.087 . S
O760 Mn754 2.163 . S
O760 C770 1.244 . S
O761 Mn759 2.089 . S
O761 C768 1.256 . S
O762 Mn754 2.160 . S
O762 C771 1.239 . S
O763 Mn756 2.089 . S
O763 C771 1.256 . S
O764 Mn759 2.251 . S
O764 C769 1.241 . S
O765 Mn759 2.087 . S
O765 C770 1.256 . S
C766 O772 1.278 . S
C766 O773 1.241 . S
C767 O753 1.244 . S
C767 O755 1.256 . S
C768 O757 1.239 . S
C768 O761 1.256 . S
C769 O758 1.278 . S
C769 O764 1.241 . S
C770 O760 1.244 . S
C770 O765 1.256 . S
C771 O762 1.239 . S
C771 O763 1.256 . S
O772 Mn754 2.221 . S
O772 Mn756 2.290 . S
O772 C766 1.278 . S
O773 Mn756 2.251 . S
O773 C766 1.241 . S
O774 Mn775 2.163 . S
O774 C788 1.244 . S
Mn775 O774 2.163 . S
Mn775 O778 2.160 . S
Mn775 O779 2.221 . S
Mn775 O781 2.163 . S
Mn775 O783 2.160 . S
Mn775 O793 2.221 . S
O776 Mn777 2.087 . S
O776 C788 1.256 . S
Mn777 O776 2.087 . S
Mn777 O784 2.089 . S
Mn777 O793 2.290 . S
Mn777 O794 2.251 . S
O778 Mn775 2.160 . S
O778 C789 1.239 . S
O779 Mn775 2.221 . S
O779 Mn780 2.290 . S
O779 C790 1.278 . S
Mn780 O779 2.290 . S
Mn780 O782 2.089 . S
Mn780 O785 2.251 . S
Mn780 O786 2.087 . S
O781 Mn775 2.163 . S
O781 C791 1.244 . S
O782 Mn780 2.089 . S
O782 C789 1.256 . S
O783 Mn775 2.160 . S
O783 C792 1.239 . S
O784 Mn777 2.089 . S
O784 C792 1.256 . S
O785 Mn780 2.251 . S
O785 C790 1.241 . S
O786 Mn780 2.087 . S
O786 C791 1.256 . S
C787 O793 1.278 . S
C787 O794 1.241 . S
C788 O774 1.244 . S
C788 O776 1.256 . S
C789 O778 1.239 . S
C789 O782 1.256 . S
C790 O779 1.278 . S
C790 O785 1.241 . S
C791 O781 1.244 . S
C791 O786 1.256 . S
C792 O783 1.239 . S
C792 O784 1.256 . S
O793 Mn775 2.221 . S
O793 Mn777 2.290 . S
O793 C787 1.278 . S
O794 Mn777 2.251 . S
O794 C787 1.241 . S
O795 Mn796 2.163 . S
O795 C809 1.244 . S
Mn796 O795 2.163 . S
Mn796 O799 2.160 . S
Mn796 O800 2.221 . S
Mn796 O802 2.163 . S
Mn796 O804 2.160 . S
Mn796 O814 2.221 . S
O797 Mn798 2.087 . S
O797 C809 1.256 . S
Mn798 O797 2.087 . S
Mn798 O805 2.089 . S
Mn798 O814 2.290 . S
Mn798 O815 2.251 . S
O799 Mn796 2.160 . S
O799 C810 1.239 . S
O800 Mn796 2.221 . S
O800 Mn801 2.290 . S
O800 C811 1.278 . S
Mn801 O800 2.290 . S
Mn801 O803 2.089 . S
Mn801 O806 2.251 . S
Mn801 O807 2.087 . S
O802 Mn796 2.163 . S
O802 C812 1.244 . S
O803 Mn801 2.089 . S
O803 C810 1.256 . S
O804 Mn796 2.160 . S
O804 C813 1.239 . S
O805 Mn798 2.089 . S
O805 C813 1.256 . S
O806 Mn801 2.251 . S
O806 C811 1.241 . S
O807 Mn801 2.087 . S
O807 C812 1.256 . S
C808 O814 1.278 . S
C808 O815 1.241 . S
C809 O795 1.244 . S
C809 O797 1.256 . S
C810 O799 1.239 . S
C810 O803 1.256 . S
C811 O800 1.278 . S
C811 O806 1.241 . S
C812 O802 1.244 . S
C812 O807 1.256 . S
C813 O804 1.239 . S
C813 O805 1.256 . S
O814 Mn796 2.221 . S
O814 Mn798 2.290 . S
O814 C808 1.278 . S
O815 Mn798 2.251 . S
O815 C808 1.241 . S
O816 Mn817 2.163 . S
O816 C830 1.244 . S
Mn817 O816 2.163 . S
Mn817 O820 2.160 . S
Mn817 O821 2.221 . S
Mn817 O823 2.163 . S
Mn817 O825 2.160 . S
Mn817 O835 2.221 . S
O818 Mn819 2.087 . S
O818 C830 1.256 . S
Mn819 O818 2.087 . S
Mn819 O826 2.089 . S
Mn819 O835 2.290 . S
Mn819 O836 2.251 . S
O820 Mn817 2.160 . S
O820 C831 1.239 . S
O821 Mn817 2.221 . S
O821 Mn822 2.290 . S
O821 C832 1.278 . S
Mn822 O821 2.290 . S
Mn822 O824 2.089 . S
Mn822 O827 2.251 . S
Mn822 O828 2.087 . S
O823 Mn817 2.163 . S
O823 C833 1.244 . S
O824 Mn822 2.089 . S
O824 C831 1.256 . S
O825 Mn817 2.160 . S
O825 C834 1.239 . S
O826 Mn819 2.089 . S
O826 C834 1.256 . S
O827 Mn822 2.251 . S
O827 C832 1.241 . S
O828 Mn822 2.087 . S
O828 C833 1.256 . S
C829 O835 1.278 . S
C829 O836 1.241 . S
C830 O816 1.244 . S
C830 O818 1.256 . S
C831 O820 1.239 . S
C831 O824 1.256 . S
C832 O821 1.278 . S
C832 O827 1.241 . S
C833 O823 1.244 . S
C833 O828 1.256 . S
C834 O825 1.239 . S
C834 O826 1.256 . S
O835 Mn817 2.221 . S
O835 Mn819 2.290 . S
O835 C829 1.278 . S
O836 Mn819 2.251 . S
O836 C829 1.241 . S
C837 C838 1.369 . S
C837 C839 1.419 . S
C837 H841 0.930 . S
C838 C837 1.369 . S
C838 C847 1.429 . S
C839 C837 1.419 . S
C839 C840 1.363 . S
C839 H842 0.929 . S
C840 C839 1.363 . S
C840 C846 1.428 . S
H841 C837 0.930 . S
H842 C839 0.929 . S
S843 N844 1.614 . S
S843 N845 1.613 . S
N844 S843 1.614 . S
N844 C847 1.348 1_556 S
N845 S843 1.613 . S
N845 C846 1.347 1_556 S
C846 C840 1.428 . S
C846 N845 1.347 1_554 S
C846 C847 1.434 . S
C847 C838 1.429 . S
C847 N844 1.348 1_554 S
C847 C846 1.434 . S
C848 C849 1.369 . S
C848 C850 1.419 . S
C848 H852 0.930 . S
C849 C848 1.369 . S
C849 C858 1.429 . S
C850 C848 1.419 . S
C850 C851 1.363 . S
C850 H853 0.929 . S
C851 C850 1.363 . S
C851 C857 1.428 . S
H852 C848 0.930 . S
H853 C850 0.929 . S
S854 N855 1.606 1_556 S
S854 N856 1.619 . S
N855 S854 1.606 1_554 S
N855 C858 1.360 . S
N856 S854 1.619 . S
N856 C857 1.338 1_556 S
C857 C851 1.428 . S
C857 N856 1.338 1_554 S
C857 C858 1.434 . S
C858 C849 1.429 . S
C858 N855 1.360 . S
C858 C857 1.434 . S
C859 C860 1.369 . S
C859 C861 1.419 . S
C859 H863 0.930 . S
C860 C859 1.369 . S
C860 C869 1.429 1_554 S
C861 C859 1.419 . S
C861 C862 1.363 . S
C861 H864 0.929 . S
C862 C861 1.363 . S
C862 C868 1.428 1_554 S
H863 C859 0.930 . S
H864 C861 0.929 . S
S865 N866 1.613 . S
S865 N867 1.610 . S
N866 S865 1.613 . S
N866 C869 1.350 . S
N867 S865 1.610 . S
N867 C868 1.351 . S
C868 C862 1.428 1_556 S
C868 N867 1.351 . S
C868 C869 1.434 . S
C869 C860 1.429 1_556 S
C869 N866 1.350 . S
C869 C868 1.434 . S
C870 C871 1.369 1_554 S
C870 C872 1.419 . S
C870 H874 0.930 . S
C871 C870 1.369 1_556 S
C871 C880 1.429 . S
C872 C870 1.419 . S
C872 C873 1.363 1_554 S
C872 H875 0.929 . S
C873 C872 1.363 1_556 S
C873 C879 1.428 . S
H874 C870 0.930 . S
H875 C872 0.929 . S
S876 N877 1.613 . S
S876 N878 1.610 . S
N877 S876 1.613 . S
N877 C880 1.350 . S
N878 S876 1.610 . S
N878 C879 1.351 . S
C879 C873 1.428 . S
C879 N878 1.351 . S
C879 C880 1.434 . S
C880 C871 1.429 . S
C880 N877 1.350 . S
C880 C879 1.434 . S
C881 C882 1.369 . S
C881 C883 1.419 . S
C881 H885 0.930 . S
C882 C881 1.369 . S
C882 C891 1.429 1_556 S
C883 C881 1.419 . S
C883 C884 1.363 . S
C883 H886 0.929 . S
C884 C883 1.363 . S
C884 C890 1.428 1_556 S
H885 C881 0.930 . S
H886 C883 0.929 . S
S887 N888 1.613 . S
S887 N889 1.610 . S
N888 S887 1.613 . S
N888 C891 1.350 . S
N889 S887 1.610 . S
N889 C890 1.351 . S
C890 C884 1.428 1_554 S
C890 N889 1.351 . S
C890 C891 1.434 . S
C891 C882 1.429 1_554 S
C891 N888 1.350 . S
C891 C890 1.434 . S
C892 C893 1.369 1_554 S
C892 C894 1.419 . S
C892 H896 0.930 . S
C893 C892 1.369 1_556 S
C893 C902 1.429 . S
C894 C892 1.419 . S
C894 C895 1.363 1_554 S
C894 H897 0.929 . S
C895 C894 1.363 1_556 S
C895 C901 1.428 . S
H896 C892 0.930 . S
H897 C894 0.929 . S
S898 N899 1.613 . S
S898 N900 1.610 . S
N899 S898 1.613 . S
N899 C902 1.350 . S
N900 S898 1.610 . S
N900 C901 1.351 . S
C901 C895 1.428 . S
C901 N900 1.351 . S
C901 C902 1.434 . S
C902 C893 1.429 . S
C902 N899 1.350 . S
C902 C901 1.434 . S
C903 C904 1.369 . S
C903 C905 1.419 . S
C903 H907 0.930 . S
C904 C903 1.369 . S
C904 C913 1.429 1_556 S
C905 C903 1.419 . S
C905 C906 1.363 . S
C905 H908 0.929 . S
C906 C905 1.363 . S
C906 C912 1.428 1_556 S
H907 C903 0.930 . S
H908 C905 0.929 . S
S909 N910 1.613 . S
S909 N911 1.610 . S
N910 S909 1.613 . S
N910 C913 1.350 . S
N911 S909 1.610 . S
N911 C912 1.351 . S
C912 C906 1.428 1_554 S
C912 N911 1.351 . S
C912 C913 1.434 . S
C913 C904 1.429 1_554 S
C913 N910 1.350 . S
C913 C912 1.434 . S
C914 C915 1.369 . S
C914 C916 1.419 . S
C914 H918 0.930 . S
C915 C914 1.369 . S
C915 C924 1.429 1_556 S
C916 C914 1.419 . S
C916 C917 1.363 . S
C916 H919 0.929 . S
C917 C916 1.363 . S
C917 C923 1.428 1_556 S
H918 C914 0.930 . S
H919 C916 0.929 . S
S920 N921 1.613 . S
S920 N922 1.610 . S
N921 S920 1.613 . S
N921 C924 1.350 . S
N922 S920 1.610 . S
N922 C923 1.351 . S
C923 C917 1.428 1_554 S
C923 N922 1.351 . S
C923 C924 1.434 . S
C924 C915 1.429 1_554 S
C924 N921 1.350 . S
C924 C923 1.434 . S
C925 C926 1.369 . S
C925 C927 1.419 . S
C925 H929 0.930 . S
C926 C925 1.369 . S
C926 C935 1.429 1_556 S
C927 C925 1.419 . S
C927 C928 1.363 . S
C927 H930 0.929 . S
C928 C927 1.363 . S
C928 C934 1.428 1_556 S
H929 C925 0.930 . S
H930 C927 0.929 . S
S931 N932 1.613 . S
S931 N933 1.610 . S
N932 S931 1.613 . S
N932 C935 1.350 . S
N933 S931 1.610 . S
N933 C934 1.351 . S
C934 C928 1.428 1_554 S
C934 N933 1.351 . S
C934 C935 1.434 . S
C935 C926 1.429 1_554 S
C935 N932 1.350 . S
C935 C934 1.434 . S
C936 C937 1.369 1_556 S
C936 C938 1.419 . S
C936 H940 0.930 . S
C937 C936 1.369 1_554 S
C937 C946 1.429 . S
C938 C936 1.419 . S
C938 C939 1.363 1_556 S
C938 H941 0.929 . S
C939 C938 1.363 1_554 S
C939 C945 1.428 . S
H940 C936 0.930 . S
H941 C938 0.929 . S
S942 N943 1.613 . S
S942 N944 1.610 . S
N943 S942 1.613 . S
N943 C946 1.350 . S
N944 S942 1.610 . S
N944 C945 1.351 . S
C945 C939 1.428 . S
C945 N944 1.351 . S
C945 C946 1.434 . S
C946 C937 1.429 . S
C946 N943 1.350 . S
C946 C945 1.434 . S
C947 C948 1.369 . S
C947 C949 1.419 . S
C947 H951 0.930 . S
C948 C947 1.369 . S
C948 C957 1.429 . S
C949 C947 1.419 . S
C949 C950 1.363 . S
C949 H952 0.929 . S
C950 C949 1.363 . S
C950 C956 1.428 . S
H951 C947 0.930 . S
H952 C949 0.929 . S
S953 N954 1.613 . S
S953 N955 1.610 . S
N954 S953 1.613 . S
N954 C957 1.350 . S
N955 S953 1.610 . S
N955 C956 1.351 . S
C956 C950 1.428 . S
C956 N955 1.351 . S
C956 C957 1.434 . S
C957 C948 1.429 . S
C957 N954 1.350 . S
C957 C956 1.434 . S
C958 C959 1.369 . S
C958 C960 1.419 . S
C958 H962 0.930 . S
C959 C958 1.369 . S
C959 C968 1.429 . S
C960 C958 1.419 . S
C960 C961 1.363 . S
C960 H963 0.929 . S
C961 C960 1.363 . S
C961 C967 1.428 . S
H962 C958 0.930 . S
H963 C960 0.929 . S
S964 N965 1.613 . S
S964 N966 1.610 . S
N965 S964 1.613 . S
N965 C968 1.350 . S
N966 S964 1.610 . S
N966 C967 1.351 . S
C967 C961 1.428 . S
C967 N966 1.351 . S
C967 C968 1.434 . S
C968 C959 1.429 . S
C968 N965 1.350 . S
C968 C967 1.434 . S
C969 C970 1.369 . S
C969 C971 1.419 . S
C969 H973 0.930 . S
C970 C969 1.369 . S
C970 C979 1.429 . S
C971 C969 1.419 . S
C971 C972 1.363 . S
C971 H974 0.929 . S
C972 C971 1.363 . S
C972 C978 1.428 . S
H973 C969 0.930 . S
H974 C971 0.929 . S
S975 N976 1.613 . S
S975 N977 1.610 . S
N976 S975 1.613 . S
N976 C979 1.350 . S
N977 S975 1.610 . S
N977 C978 1.351 . S
C978 C972 1.428 . S
C978 N977 1.351 . S
C978 C979 1.434 . S
C979 C970 1.429 . S
C979 N976 1.350 . S
C979 C978 1.434 . S
C980 C981 1.369 . S
C980 C982 1.419 . S
C980 H984 0.930 . S
C981 C980 1.369 . S
C981 C990 1.429 . S
C982 C980 1.419 . S
C982 C983 1.363 . S
C982 H985 0.929 . S
C983 C982 1.363 . S
C983 C989 1.428 . S
H984 C980 0.930 . S
H985 C982 0.929 . S
S986 N987 1.613 . S
S986 N988 1.610 . S
N987 S986 1.613 . S
N987 C990 1.350 . S
N988 S986 1.610 . S
N988 C989 1.351 . S
C989 C983 1.428 . S
C989 N988 1.351 . S
C989 C990 1.434 . S
C990 C981 1.429 . S
C990 N987 1.350 . S
C990 C989 1.434 . S
C991 C992 1.369 . S
C991 C993 1.419 . S
C991 H995 0.930 . S
C992 C991 1.369 . S
C992 C1001 1.429 . S
C993 C991 1.419 . S
C993 C994 1.363 . S
C993 H996 0.929 . S
C994 C993 1.363 . S
C994 C1000 1.428 . S
H995 C991 0.930 . S
H996 C993 0.929 . S
S997 N998 1.613 . S
S997 N999 1.610 . S
N998 S997 1.613 . S
N998 C1001 1.350 . S
N999 S997 1.610 . S
N999 C1000 1.351 . S
C1000 C994 1.428 . S
C1000 N999 1.351 . S
C1000 C1001 1.434 . S
C1001 C992 1.429 . S
C1001 N998 1.350 . S
C1001 C1000 1.434 . S
C1002 C1003 1.369 . S
C1002 C1004 1.419 . S
C1002 H1006 0.930 . S
C1003 C1002 1.369 . S
C1003 C1012 1.429 . S
C1004 C1002 1.419 . S
C1004 C1005 1.363 . S
C1004 H1007 0.929 . S
C1005 C1004 1.363 . S
C1005 C1011 1.428 . S
H1006 C1002 0.930 . S
H1007 C1004 0.929 . S
S1008 N1009 1.613 . S
S1008 N1010 1.610 . S
N1009 S1008 1.613 . S
N1009 C1012 1.350 . S
N1010 S1008 1.610 . S
N1010 C1011 1.351 . S
C1011 C1005 1.428 . S
C1011 N1010 1.351 . S
C1011 C1012 1.434 . S
C1012 C1003 1.429 . S
C1012 N1009 1.350 . S
C1012 C1011 1.434 . S
C1013 C1014 1.369 . S
C1013 C1015 1.419 . S
C1013 H1017 0.930 . S
C1014 C1013 1.369 . S
C1014 C1023 1.429 . S
C1015 C1013 1.419 . S
C1015 C1016 1.363 . S
C1015 H1018 0.929 . S
C1016 C1015 1.363 . S
C1016 C1022 1.428 . S
H1017 C1013 0.930 . S
H1018 C1015 0.929 . S
S1019 N1020 1.613 . S
S1019 N1021 1.610 . S
N1020 S1019 1.613 . S
N1020 C1023 1.350 . S
N1021 S1019 1.610 . S
N1021 C1022 1.351 . S
C1022 C1016 1.428 . S
C1022 N1021 1.351 . S
C1022 C1023 1.434 . S
C1023 C1014 1.429 . S
C1023 N1020 1.350 . S
C1023 C1022 1.434 . S
C1024 C1025 1.369 . S
C1024 C1026 1.419 . S
C1024 H1028 0.930 . S
C1025 C1024 1.369 . S
C1025 C1034 1.429 . S
C1026 C1024 1.419 . S
C1026 C1027 1.363 . S
C1026 H1029 0.929 . S
C1027 C1026 1.363 . S
C1027 C1033 1.428 . S
H1028 C1024 0.930 . S
H1029 C1026 0.929 . S
S1030 N1031 1.613 . S
S1030 N1032 1.610 . S
N1031 S1030 1.613 . S
N1031 C1034 1.350 . S
N1032 S1030 1.610 . S
N1032 C1033 1.351 . S
C1033 C1027 1.428 . S
C1033 N1032 1.351 . S
C1033 C1034 1.434 . S
C1034 C1025 1.429 . S
C1034 N1031 1.350 . S
C1034 C1033 1.434 . S
C1035 C1036 1.369 . S
C1035 C1037 1.419 . S
C1035 H1039 0.930 . S
C1036 C1035 1.369 . S
C1036 C1045 1.429 . S
C1037 C1035 1.419 . S
C1037 C1038 1.363 . S
C1037 H1040 0.929 . S
C1038 C1037 1.363 . S
C1038 C1044 1.428 . S
H1039 C1035 0.930 . S
H1040 C1037 0.929 . S
S1041 N1042 1.613 . S
S1041 N1043 1.610 . S
N1042 S1041 1.613 . S
N1042 C1045 1.350 . S
N1043 S1041 1.610 . S
N1043 C1044 1.351 . S
C1044 C1038 1.428 . S
C1044 N1043 1.351 . S
C1044 C1045 1.434 . S
C1045 C1036 1.429 . S
C1045 N1042 1.350 . S
C1045 C1044 1.434 . S
C1046 C1047 1.369 . S
C1046 C1048 1.419 . S
C1046 H1050 0.930 . S
C1047 C1046 1.369 . S
C1047 C1056 1.429 . S
C1048 C1046 1.419 . S
C1048 C1049 1.363 . S
C1048 H1051 0.929 . S
C1049 C1048 1.363 . S
C1049 C1055 1.428 . S
H1050 C1046 0.930 . S
H1051 C1048 0.929 . S
S1052 N1053 1.613 . S
S1052 N1054 1.610 . S
N1053 S1052 1.613 . S
N1053 C1056 1.350 . S
N1054 S1052 1.610 . S
N1054 C1055 1.351 . S
C1055 C1049 1.428 . S
C1055 N1054 1.351 . S
C1055 C1056 1.434 . S
C1056 C1047 1.429 . S
C1056 N1053 1.350 . S
C1056 C1055 1.434 . S
C1057 C1058 1.369 . S
C1057 C1059 1.419 . S
C1057 H1061 0.930 . S
C1058 C1057 1.369 . S
C1058 C1067 1.429 . S
C1059 C1057 1.419 . S
C1059 C1060 1.363 . S
C1059 H1062 0.929 . S
C1060 C1059 1.363 . S
C1060 C1066 1.428 . S
H1061 C1057 0.930 . S
H1062 C1059 0.929 . S
S1063 N1064 1.613 . S
S1063 N1065 1.610 . S
N1064 S1063 1.613 . S
N1064 C1067 1.350 . S
N1065 S1063 1.610 . S
N1065 C1066 1.351 . S
C1066 C1060 1.428 . S
C1066 N1065 1.351 . S
C1066 C1067 1.434 . S
C1067 C1058 1.429 . S
C1067 N1064 1.350 . S
C1067 C1066 1.434 . S
C1068 C1069 1.369 . S
C1068 C1070 1.419 . S
C1068 H1072 0.930 . S
C1069 C1068 1.369 . S
C1069 C1078 1.429 . S
C1070 C1068 1.419 . S
C1070 C1071 1.363 . S
C1070 H1073 0.929 . S
C1071 C1070 1.363 . S
C1071 C1077 1.428 . S
H1072 C1068 0.930 . S
H1073 C1070 0.929 . S
S1074 N1075 1.613 . S
S1074 N1076 1.610 . S
N1075 S1074 1.613 . S
N1075 C1078 1.350 . S
N1076 S1074 1.610 . S
N1076 C1077 1.351 . S
C1077 C1071 1.428 . S
C1077 N1076 1.351 . S
C1077 C1078 1.434 . S
C1078 C1069 1.429 . S
C1078 N1075 1.350 . S
C1078 C1077 1.434 . S
C1079 C1080 1.369 . S
C1079 C1081 1.419 . S
C1079 H1083 0.930 . S
C1080 C1079 1.369 . S
C1080 C1089 1.429 . S
C1081 C1079 1.419 . S
C1081 C1082 1.363 . S
C1081 H1084 0.929 . S
C1082 C1081 1.363 . S
C1082 C1088 1.428 . S
H1083 C1079 0.930 . S
H1084 C1081 0.929 . S
S1085 N1086 1.613 . S
S1085 N1087 1.610 . S
N1086 S1085 1.613 . S
N1086 C1089 1.350 . S
N1087 S1085 1.610 . S
N1087 C1088 1.351 . S
C1088 C1082 1.428 . S
C1088 N1087 1.351 . S
C1088 C1089 1.434 . S
C1089 C1080 1.429 . S
C1089 N1086 1.350 . S
C1089 C1088 1.434 . S
C1090 C1091 1.369 . S
C1090 C1092 1.419 . S
C1090 H1094 0.930 . S
C1091 C1090 1.369 . S
C1091 C1100 1.429 . S
C1092 C1090 1.419 . S
C1092 C1093 1.363 . S
C1092 H1095 0.929 . S
C1093 C1092 1.363 . S
C1093 C1099 1.428 . S
H1094 C1090 0.930 . S
H1095 C1092 0.929 . S
S1096 N1097 1.613 . S
S1096 N1098 1.610 . S
N1097 S1096 1.613 . S
N1097 C1100 1.350 . S
N1098 S1096 1.610 . S
N1098 C1099 1.351 . S
C1099 C1093 1.428 . S
C1099 N1098 1.351 . S
C1099 C1100 1.434 . S
C1100 C1091 1.429 . S
C1100 N1097 1.350 . S
C1100 C1099 1.434 . S
C1101 C1102 1.369 . S
C1101 C1103 1.419 . S
C1101 H1105 0.930 . S
C1102 C1101 1.369 . S
C1102 C1111 1.429 . S
C1103 C1101 1.419 . S
C1103 C1104 1.363 . S
C1103 H1106 0.929 . S
C1104 C1103 1.363 . S
C1104 C1110 1.428 . S
H1105 C1101 0.930 . S
H1106 C1103 0.929 . S
S1107 N1108 1.613 . S
S1107 N1109 1.610 . S
N1108 S1107 1.613 . S
N1108 C1111 1.350 . S
N1109 S1107 1.610 . S
N1109 C1110 1.351 . S
C1110 C1104 1.428 . S
C1110 N1109 1.351 . S
C1110 C1111 1.434 . S
C1111 C1102 1.429 . S
C1111 N1108 1.350 . S
C1111 C1110 1.434 . S
C1112 C1113 1.369 . S
C1112 C1114 1.419 . S
C1112 H1116 0.930 . S
C1113 C1112 1.369 . S
C1113 C1122 1.429 . S
C1114 C1112 1.419 . S
C1114 C1115 1.363 . S
C1114 H1117 0.929 . S
C1115 C1114 1.363 . S
C1115 C1121 1.428 . S
H1116 C1112 0.930 . S
H1117 C1114 0.929 . S
S1118 N1119 1.613 . S
S1118 N1120 1.610 . S
N1119 S1118 1.613 . S
N1119 C1122 1.350 . S
N1120 S1118 1.610 . S
N1120 C1121 1.351 . S
C1121 C1115 1.428 . S
C1121 N1120 1.351 . S
C1121 C1122 1.434 . S
C1122 C1113 1.429 . S
C1122 N1119 1.350 . S
C1122 C1121 1.434 . S
C1123 C1124 1.369 . S
C1123 C1125 1.419 . S
C1123 H1127 0.930 . S
C1124 C1123 1.369 . S
C1124 C1133 1.429 . S
C1125 C1123 1.419 . S
C1125 C1126 1.363 . S
C1125 H1128 0.929 . S
C1126 C1125 1.363 . S
C1126 C1132 1.428 . S
H1127 C1123 0.930 . S
H1128 C1125 0.929 . S
S1129 N1130 1.613 . S
S1129 N1131 1.610 . S
N1130 S1129 1.613 . S
N1130 C1133 1.350 . S
N1131 S1129 1.610 . S
N1131 C1132 1.351 . S
C1132 C1126 1.428 . S
C1132 N1131 1.351 . S
C1132 C1133 1.434 . S
C1133 C1124 1.429 . S
C1133 N1130 1.350 . S
C1133 C1132 1.434 . S
C1134 C1135 1.369 . S
C1134 C1136 1.419 . S
C1134 H1138 0.930 . S
C1135 C1134 1.369 . S
C1135 C1144 1.429 . S
C1136 C1134 1.419 . S
C1136 C1137 1.363 . S
C1136 H1139 0.929 . S
C1137 C1136 1.363 . S
C1137 C1143 1.428 . S
H1138 C1134 0.930 . S
H1139 C1136 0.929 . S
S1140 N1141 1.613 . S
S1140 N1142 1.610 . S
N1141 S1140 1.613 . S
N1141 C1144 1.350 . S
N1142 S1140 1.610 . S
N1142 C1143 1.351 . S
C1143 C1137 1.428 . S
C1143 N1142 1.351 . S
C1143 C1144 1.434 . S
C1144 C1135 1.429 . S
C1144 N1141 1.350 . S
C1144 C1143 1.434 . S
C1145 C1146 1.369 . S
C1145 C1147 1.419 . S
C1145 H1149 0.930 . S
C1146 C1145 1.369 . S
C1146 C1155 1.429 . S
C1147 C1145 1.419 . S
C1147 C1148 1.363 . S
C1147 H1150 0.929 . S
C1148 C1147 1.363 . S
C1148 C1154 1.428 . S
H1149 C1145 0.930 . S
H1150 C1147 0.929 . S
S1151 N1152 1.613 . S
S1151 N1153 1.610 . S
N1152 S1151 1.613 . S
N1152 C1155 1.350 . S
N1153 S1151 1.610 . S
N1153 C1154 1.351 . S
C1154 C1148 1.428 . S
C1154 N1153 1.351 . S
C1154 C1155 1.434 . S
C1155 C1146 1.429 . S
C1155 N1152 1.350 . S
C1155 C1154 1.434 . S
C1156 C1157 1.369 . S
C1156 C1158 1.419 . S
C1156 H1160 0.930 . S
C1157 C1156 1.369 . S
C1157 C1166 1.429 . S
C1158 C1156 1.419 . S
C1158 C1159 1.363 . S
C1158 H1161 0.929 . S
C1159 C1158 1.363 . S
C1159 C1165 1.428 . S
H1160 C1156 0.930 . S
H1161 C1158 0.929 . S
S1162 N1163 1.613 . S
S1162 N1164 1.610 . S
N1163 S1162 1.613 . S
N1163 C1166 1.350 . S
N1164 S1162 1.610 . S
N1164 C1165 1.351 . S
C1165 C1159 1.428 . S
C1165 N1164 1.351 . S
C1165 C1166 1.434 . S
C1166 C1157 1.429 . S
C1166 N1163 1.350 . S
C1166 C1165 1.434 . S
C1167 C1168 1.363 1_655 S
C1167 C1169 1.419 . S
C1167 H1171 0.930 . S
C1168 C1167 1.363 1_455 S
C1168 C1177 1.406 1_455 S
C1169 C1167 1.419 . S
C1169 C1170 1.363 . S
C1169 H1172 0.929 . S
C1170 C1169 1.363 . S
C1170 C1176 1.428 . S
H1171 C1167 0.930 . S
H1172 C1169 0.929 . S
S1173 N1174 1.613 1_655 S
S1173 N1175 1.610 . S
N1174 S1173 1.613 1_455 S
N1174 C1177 1.350 1_455 S
N1175 S1173 1.610 . S
N1175 C1176 1.351 . S
C1176 C1170 1.428 . S
C1176 N1175 1.351 . S
C1176 C1177 1.434 . S
C1177 C1168 1.406 1_655 S
C1177 N1174 1.350 1_655 S
C1177 C1176 1.434 . S
C1178 C1179 1.369 . S
C1178 C1180 1.419 . S
C1178 H1182 0.930 . S
C1179 C1178 1.369 . S
C1179 C1188 1.429 . S
C1180 C1178 1.419 . S
C1180 C1181 1.363 . S
C1180 H1183 0.929 . S
C1181 C1180 1.363 . S
C1181 C1187 1.428 . S
H1182 C1178 0.930 . S
H1183 C1180 0.929 . S
S1184 N1185 1.613 . S
S1184 N1186 1.610 . S
N1185 S1184 1.613 . S
N1185 C1188 1.350 . S
N1186 S1184 1.610 . S
N1186 C1187 1.351 . S
C1187 C1181 1.428 . S
C1187 N1186 1.351 . S
C1187 C1188 1.434 . S
C1188 C1179 1.429 . S
C1188 N1185 1.350 . S
C1188 C1187 1.434 . S
C1189 C1190 1.369 . S
C1189 C1191 1.419 . S
C1189 H1193 0.930 . S
C1190 C1189 1.369 . S
C1190 C1199 1.429 . S
C1191 C1189 1.419 . S
C1191 C1192 1.363 . S
C1191 H1194 0.929 . S
C1192 C1191 1.363 . S
C1192 C1198 1.428 . S
H1193 C1189 0.930 . S
H1194 C1191 0.929 . S
S1195 N1196 1.613 . S
S1195 N1197 1.610 . S
N1196 S1195 1.613 . S
N1196 C1199 1.350 . S
N1197 S1195 1.610 . S
N1197 C1198 1.351 . S
C1198 C1192 1.428 . S
C1198 N1197 1.351 . S
C1198 C1199 1.434 . S
C1199 C1190 1.429 . S
C1199 N1196 1.350 . S
C1199 C1198 1.434 . S
C1200 C1201 1.369 . S
C1200 C1202 1.419 . S
C1200 H1204 0.930 . S
C1201 C1200 1.369 . S
C1201 C1210 1.429 . S
C1202 C1200 1.419 . S
C1202 C1203 1.363 . S
C1202 H1205 0.929 . S
C1203 C1202 1.363 . S
C1203 C1209 1.428 . S
H1204 C1200 0.930 . S
H1205 C1202 0.929 . S
S1206 N1207 1.613 . S
S1206 N1208 1.610 . S
N1207 S1206 1.613 . S
N1207 C1210 1.350 . S
N1208 S1206 1.610 . S
N1208 C1209 1.351 . S
C1209 C1203 1.428 . S
C1209 N1208 1.351 . S
C1209 C1210 1.434 . S
C1210 C1201 1.429 . S
C1210 N1207 1.350 . S
C1210 C1209 1.434 . S
C1211 C1212 1.369 . S
C1211 C1213 1.419 . S
C1211 H1215 0.930 . S
C1212 C1211 1.369 . S
C1212 C1221 1.429 . S
C1213 C1211 1.419 . S
C1213 C1214 1.363 . S
C1213 H1216 0.929 . S
C1214 C1213 1.363 . S
C1214 C1220 1.428 . S
H1215 C1211 0.930 . S
H1216 C1213 0.929 . S
S1217 N1218 1.613 . S
S1217 N1219 1.610 . S
N1218 S1217 1.613 . S
N1218 C1221 1.350 . S
N1219 S1217 1.610 . S
N1219 C1220 1.351 . S
C1220 C1214 1.428 . S
C1220 N1219 1.351 . S
C1220 C1221 1.434 . S
C1221 C1212 1.429 . S
C1221 N1218 1.350 . S
C1221 C1220 1.434 . S
C1222 C1223 1.369 . S
C1222 C1224 1.419 . S
C1222 H1226 0.930 . S
C1223 C1222 1.369 . S
C1223 C1232 1.429 . S
C1224 C1222 1.419 . S
C1224 C1225 1.363 . S
C1224 H1227 0.929 . S
C1225 C1224 1.363 . S
C1225 C1231 1.428 . S
H1226 C1222 0.930 . S
H1227 C1224 0.929 . S
S1228 N1229 1.613 . S
S1228 N1230 1.610 . S
N1229 S1228 1.613 . S
N1229 C1232 1.350 . S
N1230 S1228 1.610 . S
N1230 C1231 1.351 . S
C1231 C1225 1.428 . S
C1231 N1230 1.351 . S
C1231 C1232 1.434 . S
C1232 C1223 1.429 . S
C1232 N1229 1.350 . S
C1232 C1231 1.434 . S
C1233 C1234 1.369 1_545 S
C1233 C1235 1.419 . S
C1233 H1237 0.930 . S
C1234 C1233 1.369 1_565 S
C1234 C1243 1.429 . S
C1235 C1233 1.419 . S
C1235 C1236 1.373 1_545 S
C1235 H1238 0.929 . S
C1236 C1235 1.373 1_565 S
C1236 C1242 1.425 . S
H1237 C1233 0.930 . S
H1238 C1235 0.929 . S
S1239 N1240 1.613 . S
S1239 N1241 1.610 . S
N1240 S1239 1.613 . S
N1240 C1243 1.350 . S
N1241 S1239 1.610 . S
N1241 C1242 1.351 . S
C1242 C1236 1.425 . S
C1242 N1241 1.351 . S
C1242 C1243 1.434 . S
C1243 C1234 1.429 . S
C1243 N1240 1.350 . S
C1243 C1242 1.434 . S
C1244 C1245 1.369 1_655 S
C1244 C1246 1.419 . S
C1244 H1248 0.930 . S
C1245 C1244 1.369 1_455 S
C1245 C1254 1.429 . S
C1246 C1244 1.419 . S
C1246 C1247 1.363 1_655 S
C1246 H1249 0.929 . S
C1247 C1246 1.363 1_455 S
C1247 C1253 1.428 . S
H1248 C1244 0.930 . S
H1249 C1246 0.929 . S
S1250 N1251 1.613 . S
S1250 N1252 1.610 . S
N1251 S1250 1.613 . S
N1251 C1254 1.350 . S
N1252 S1250 1.610 . S
N1252 C1253 1.351 . S
C1253 C1247 1.428 . S
C1253 N1252 1.351 . S
C1253 C1254 1.434 . S
C1254 C1245 1.429 . S
C1254 N1251 1.350 . S
C1254 C1253 1.434 . S
C1255 C1256 1.369 . S
C1255 C1257 1.419 . S
C1255 H1259 0.930 . S
C1256 C1255 1.369 . S
C1256 C1265 1.429 . S
C1257 C1255 1.419 . S
C1257 C1258 1.363 . S
C1257 H1260 0.929 . S
C1258 C1257 1.363 . S
C1258 C1264 1.428 . S
H1259 C1255 0.930 . S
H1260 C1257 0.929 . S
S1261 N1262 1.613 . S
S1261 N1263 1.610 . S
N1262 S1261 1.613 . S
N1262 C1265 1.350 . S
N1263 S1261 1.610 . S
N1263 C1264 1.351 . S
C1264 C1258 1.428 . S
C1264 N1263 1.351 . S
C1264 C1265 1.434 . S
C1265 C1256 1.429 . S
C1265 N1262 1.350 . S
C1265 C1264 1.434 . S
C1266 C1267 1.369 . S
C1266 C1268 1.419 . S
C1266 H1270 0.930 . S
C1267 C1266 1.369 . S
C1267 C1276 1.429 . S
C1268 C1266 1.419 . S
C1268 C1269 1.363 . S
C1268 H1271 0.929 . S
C1269 C1268 1.363 . S
C1269 C1275 1.428 . S
H1270 C1266 0.930 . S
H1271 C1268 0.929 . S
S1272 N1273 1.613 . S
S1272 N1274 1.610 . S
N1273 S1272 1.613 . S
N1273 C1276 1.350 . S
N1274 S1272 1.610 . S
N1274 C1275 1.351 . S
C1275 C1269 1.428 . S
C1275 N1274 1.351 . S
C1275 C1276 1.434 . S
C1276 C1267 1.429 . S
C1276 N1273 1.350 . S
C1276 C1275 1.434 . S
C1277 C1278 1.369 . S
C1277 C1279 1.419 . S
C1277 H1281 0.930 . S
C1278 C1277 1.369 . S
C1278 C1287 1.429 . S
C1279 C1277 1.419 . S
C1279 C1280 1.363 . S
C1279 H1282 0.929 . S
C1280 C1279 1.363 . S
C1280 C1286 1.428 . S
H1281 C1277 0.930 . S
H1282 C1279 0.929 . S
S1283 N1284 1.613 . S
S1283 N1285 1.610 . S
N1284 S1283 1.613 . S
N1284 C1287 1.350 . S
N1285 S1283 1.610 . S
N1285 C1286 1.351 . S
C1286 C1280 1.428 . S
C1286 N1285 1.351 . S
C1286 C1287 1.434 . S
C1287 C1278 1.429 . S
C1287 N1284 1.350 . S
C1287 C1286 1.434 . S
C1288 C1289 1.369 . S
C1288 C1290 1.419 . S
C1288 H1292 0.930 . S
C1289 C1288 1.369 . S
C1289 C1298 1.429 1_545 S
C1290 C1288 1.419 . S
C1290 C1291 1.363 . S
C1290 H1293 0.929 . S
C1291 C1290 1.363 . S
C1291 C1297 1.428 1_545 S
H1292 C1288 0.930 . S
H1293 C1290 0.929 . S
S1294 N1295 1.613 . S
S1294 N1296 1.610 . S
N1295 S1294 1.613 . S
N1295 C1298 1.350 . S
N1296 S1294 1.610 . S
N1296 C1297 1.351 . S
C1297 C1291 1.428 1_565 S
C1297 N1296 1.351 . S
C1297 C1298 1.434 . S
C1298 C1289 1.429 1_565 S
C1298 N1295 1.350 . S
C1298 C1297 1.434 . S
C1299 C1300 1.369 . S
C1299 C1301 1.419 . S
C1299 H1303 0.930 . S
C1300 C1299 1.369 . S
C1300 C1309 1.429 . S
C1301 C1299 1.419 . S
C1301 C1302 1.363 . S
C1301 H1304 0.929 . S
C1302 C1301 1.363 . S
C1302 C1308 1.428 . S
H1303 C1299 0.930 . S
H1304 C1301 0.929 . S
S1305 N1306 1.613 . S
S1305 N1307 1.610 . S
N1306 S1305 1.613 . S
N1306 C1309 1.350 . S
N1307 S1305 1.610 . S
N1307 C1308 1.351 . S
C1308 C1302 1.428 . S
C1308 N1307 1.351 . S
C1308 C1309 1.434 . S
C1309 C1300 1.429 . S
C1309 N1306 1.350 . S
C1309 C1308 1.434 . S
C1310 C1311 1.369 . S
C1310 C1312 1.419 . S
C1310 H1314 0.930 . S
C1311 C1310 1.369 . S
C1311 C1320 1.429 . S
C1312 C1310 1.419 . S
C1312 C1313 1.363 . S
C1312 H1315 0.929 . S
C1313 C1312 1.363 . S
C1313 C1319 1.428 . S
H1314 C1310 0.930 . S
H1315 C1312 0.929 . S
S1316 N1317 1.613 . S
S1316 N1318 1.610 . S
N1317 S1316 1.613 . S
N1317 C1320 1.350 . S
N1318 S1316 1.610 . S
N1318 C1319 1.351 . S
C1319 C1313 1.428 . S
C1319 N1318 1.351 . S
C1319 C1320 1.434 . S
C1320 C1311 1.429 . S
C1320 N1317 1.350 . S
C1320 C1319 1.434 . S
C1321 C1322 1.369 . S
C1321 C1323 1.419 . S
C1321 H1325 0.930 . S
C1322 C1321 1.369 . S
C1322 C1331 1.429 . S
C1323 C1321 1.419 . S
C1323 C1324 1.363 . S
C1323 H1326 0.929 . S
C1324 C1323 1.363 . S
C1324 C1330 1.428 . S
H1325 C1321 0.930 . S
H1326 C1323 0.929 . S
S1327 N1328 1.613 . S
S1327 N1329 1.610 . S
N1328 S1327 1.613 . S
N1328 C1331 1.350 . S
N1329 S1327 1.610 . S
N1329 C1330 1.351 . S
C1330 C1324 1.428 . S
C1330 N1329 1.351 . S
C1330 C1331 1.434 . S
C1331 C1322 1.429 . S
C1331 N1328 1.350 . S
C1331 C1330 1.434 . S
C1332 C1333 1.369 . S
C1332 C1334 1.419 . S
C1332 H1336 0.930 . S
C1333 C1332 1.369 . S
C1333 C1342 1.429 . S
C1334 C1332 1.419 . S
C1334 C1335 1.363 . S
C1334 H1337 0.929 . S
C1335 C1334 1.363 . S
C1335 C1341 1.428 . S
H1336 C1332 0.930 . S
H1337 C1334 0.929 . S
S1338 N1339 1.613 . S
S1338 N1340 1.610 . S
N1339 S1338 1.613 . S
N1339 C1342 1.350 . S
N1340 S1338 1.610 . S
N1340 C1341 1.351 . S
C1341 C1335 1.428 . S
C1341 N1340 1.351 . S
C1341 C1342 1.434 . S
C1342 C1333 1.429 . S
C1342 N1339 1.350 . S
C1342 C1341 1.434 . S
C1343 C1344 1.369 . S
C1343 C1345 1.419 . S
C1343 H1347 0.930 . S
C1344 C1343 1.369 . S
C1344 C1353 1.429 . S
C1345 C1343 1.419 . S
C1345 C1346 1.363 . S
C1345 H1348 0.929 . S
C1346 C1345 1.363 . S
C1346 C1352 1.428 . S
H1347 C1343 0.930 . S
H1348 C1345 0.929 . S
S1349 N1350 1.613 . S
S1349 N1351 1.610 . S
N1350 S1349 1.613 . S
N1350 C1353 1.350 . S
N1351 S1349 1.610 . S
N1351 C1352 1.351 . S
C1352 C1346 1.428 . S
C1352 N1351 1.351 . S
C1352 C1353 1.434 . S
C1353 C1344 1.429 . S
C1353 N1350 1.350 . S
C1353 C1352 1.434 . S
C1354 C1355 1.369 . S
C1354 C1356 1.419 . S
C1354 H1358 0.930 . S
C1355 C1354 1.369 . S
C1355 C1364 1.429 . S
C1356 C1354 1.419 . S
C1356 C1357 1.363 . S
C1356 H1359 0.929 . S
C1357 C1356 1.363 . S
C1357 C1363 1.428 . S
H1358 C1354 0.930 . S
H1359 C1356 0.929 . S
S1360 N1361 1.613 . S
S1360 N1362 1.610 . S
N1361 S1360 1.613 . S
N1361 C1364 1.350 . S
N1362 S1360 1.610 . S
N1362 C1363 1.351 . S
C1363 C1357 1.428 . S
C1363 N1362 1.351 . S
C1363 C1364 1.434 . S
C1364 C1355 1.429 . S
C1364 N1361 1.350 . S
C1364 C1363 1.434 . S
C1365 C1366 1.369 . S
C1365 C1367 1.419 . S
C1365 H1369 0.930 . S
C1366 C1365 1.369 . S
C1366 C1375 1.429 . S
C1367 C1365 1.419 . S
C1367 C1368 1.363 . S
C1367 H1370 0.929 . S
C1368 C1367 1.363 . S
C1368 C1374 1.428 . S
H1369 C1365 0.930 . S
H1370 C1367 0.929 . S
S1371 N1372 1.613 . S
S1371 N1373 1.610 . S
N1372 S1371 1.613 . S
N1372 C1375 1.350 . S
N1373 S1371 1.610 . S
N1373 C1374 1.351 . S
C1374 C1368 1.428 . S
C1374 N1373 1.351 . S
C1374 C1375 1.434 . S
C1375 C1366 1.429 . S
C1375 N1372 1.350 . S
C1375 C1374 1.434 . S
C1376 C1377 1.369 . S
C1376 C1378 1.419 . S
C1376 H1380 0.930 . S
C1377 C1376 1.369 . S
C1377 C1386 1.429 . S
C1378 C1376 1.419 . S
C1378 C1379 1.363 . S
C1378 H1381 0.929 . S
C1379 C1378 1.363 . S
C1379 C1385 1.428 . S
H1380 C1376 0.930 . S
H1381 C1378 0.929 . S
S1382 N1383 1.613 . S
S1382 N1384 1.610 . S
N1383 S1382 1.613 . S
N1383 C1386 1.350 . S
N1384 S1382 1.610 . S
N1384 C1385 1.351 . S
C1385 C1379 1.428 . S
C1385 N1384 1.351 . S
C1385 C1386 1.434 . S
C1386 C1377 1.429 . S
C1386 N1383 1.350 . S
C1386 C1385 1.434 . S
C1387 C1388 1.369 . S
C1387 C1389 1.419 . S
C1387 H1391 0.930 . S
C1388 C1387 1.369 . S
C1388 C1397 1.429 . S
C1389 C1387 1.419 . S
C1389 C1390 1.363 . S
C1389 H1392 0.929 . S
C1390 C1389 1.363 . S
C1390 C1396 1.428 . S
H1391 C1387 0.930 . S
H1392 C1389 0.929 . S
S1393 N1394 1.613 . S
S1393 N1395 1.610 . S
N1394 S1393 1.613 . S
N1394 C1397 1.350 . S
N1395 S1393 1.610 . S
N1395 C1396 1.351 . S
C1396 C1390 1.428 . S
C1396 N1395 1.351 . S
C1396 C1397 1.434 . S
C1397 C1388 1.429 . S
C1397 N1394 1.350 . S
C1397 C1396 1.434 . S
C1398 C1399 1.369 . S
C1398 C1400 1.419 . S
C1398 H1402 0.930 . S
C1399 C1398 1.369 . S
C1399 C1408 1.429 . S
C1400 C1398 1.419 . S
C1400 C1401 1.363 . S
C1400 H1403 0.929 . S
C1401 C1400 1.363 . S
C1401 C1407 1.428 . S
H1402 C1398 0.930 . S
H1403 C1400 0.929 . S
S1404 N1405 1.613 . S
S1404 N1406 1.610 . S
N1405 S1404 1.613 . S
N1405 C1408 1.350 . S
N1406 S1404 1.610 . S
N1406 C1407 1.351 . S
C1407 C1401 1.428 . S
C1407 N1406 1.351 . S
C1407 C1408 1.434 . S
C1408 C1399 1.429 . S
C1408 N1405 1.350 . S
C1408 C1407 1.434 . S
C1409 C1410 1.369 . S
C1409 C1411 1.419 . S
C1409 H1413 0.930 . S
C1410 C1409 1.369 . S
C1410 C1419 1.429 . S
C1411 C1409 1.419 . S
C1411 C1412 1.363 . S
C1411 H1414 0.929 . S
C1412 C1411 1.363 . S
C1412 C1418 1.428 . S
H1413 C1409 0.930 . S
H1414 C1411 0.929 . S
S1415 N1416 1.613 . S
S1415 N1417 1.610 . S
N1416 S1415 1.613 . S
N1416 C1419 1.350 . S
N1417 S1415 1.610 . S
N1417 C1418 1.351 . S
C1418 C1412 1.428 . S
C1418 N1417 1.351 . S
C1418 C1419 1.434 . S
C1419 C1410 1.429 . S
C1419 N1416 1.350 . S
C1419 C1418 1.434 . S
C1420 C1421 1.369 . S
C1420 C1422 1.419 . S
C1420 H1424 0.930 . S
C1421 C1420 1.369 . S
C1421 C1430 1.429 . S
C1422 C1420 1.419 . S
C1422 C1423 1.363 . S
C1422 H1425 0.929 . S
C1423 C1422 1.363 . S
C1423 C1429 1.428 . S
H1424 C1420 0.930 . S
H1425 C1422 0.929 . S
S1426 N1427 1.613 . S
S1426 N1428 1.610 . S
N1427 S1426 1.613 . S
N1427 C1430 1.350 . S
N1428 S1426 1.610 . S
N1428 C1429 1.351 . S
C1429 C1423 1.428 . S
C1429 N1428 1.351 . S
C1429 C1430 1.434 . S
C1430 C1421 1.429 . S
C1430 N1427 1.350 . S
C1430 C1429 1.434 . S
C838 C469 1.532 . S
C840 C662 1.443 . S
C849 C505 1.536 . S
C851 C683 1.437 . S
C860 C433 1.472 . S
C862 C703 1.181 . S
C871 C397 1.498 . S
C873 C682 1.196 . S
C884 C704 1.461 . S
C882 C325 1.570 . S
C893 C361 1.499 . S
C895 C661 1.221 . S
C906 C663 1.397 . S
C904 C421 1.507 . S
C917 C684 1.400 . S
C915 C349 1.482 . S
C926 C385 1.552 . S
C928 C706 1.218 1_556 S
C937 C493 1.492 . S
C939 C685 1.193 1_554 S
C948 C529 1.454 . S
C950 C705 1.371 . S
C961 C664 1.195 1_554 S
C959 C457 1.526 . S
C972 C725 1.433 . S
C970 C37 1.536 1_455 S
C981 C73 1.535 . S
C983 C746 1.437 . S
C992 C1 1.474 1_565 S
C994 C766 1.174 . S
C1003 C613 1.497 . S
C1005 C745 1.199 . S
C1014 C541 1.567 . S
C1016 C767 1.462 . S
C1025 C577 1.499 . S
C1027 C724 1.201 . S
C1036 C637 1.506 . S
C1038 C726 1.403 . S
C1047 C565 1.477 . S
C1049 C747 1.392 . S
C1060 C769 1.227 . S
C1058 C601 1.545 . S
C1069 C61 1.498 1_565 S
C1071 C748 1.189 . S
C1082 C768 1.361 . S
C1080 C97 1.454 1_455 S
C1091 C25 1.528 . S
C1093 C727 1.213 . S
C1104 C788 1.443 . S
C1102 C253 1.532 . S
C1113 C289 1.542 . S
C1115 C809 1.429 . S
C1126 C829 1.190 . S
C1124 C217 1.467 . S
C1137 C808 1.183 . S
C1135 C181 1.504 1_545 S
C1148 C830 1.452 . S
C1146 C109 1.574 1_655 S
C1157 C145 1.506 . S
C1159 C787 1.185 . S
C1168 C205 1.530 . S
C1170 C789 1.404 . S
C1179 C133 1.479 . S
C1181 C810 1.401 . S
C1192 C832 1.220 . S
C1190 C169 1.548 1_545 S
C1201 C277 1.492 . S
C1203 C811 1.205 . S
C1212 C313 1.458 . S
C1214 C831 1.366 . S
C1223 C241 1.528 . S
C1225 C790 1.213 . S
C1234 C571 1.460 . S
C1236 C666 1.403 1_565 S
C1247 C687 1.440 . S
C1245 C607 1.481 . S
C1256 C643 1.537 . S
C1258 C707 1.501 . S
C1267 C247 1.565 . S
C1269 C686 1.529 1_655 S
C1278 C283 1.496 . S
C1280 C708 1.450 . S
C1291 C665 1.509 . S
C1289 C319 1.546 . S
C1300 C139 1.462 . S
C1302 C729 1.418 . S
C1311 C175 1.480 . S
C1313 C750 1.437 . S
C1322 C211 1.540 . S
C1324 C770 1.499 . S
C1333 C463 1.566 . S
C1335 C749 1.527 . S
C1346 C771 1.449 . S
C1344 C499 1.497 . S
C1355 C535 1.543 . S
C1357 C728 1.513 . S
C1366 C355 1.460 . S
C1368 C792 1.412 . S
C1377 C391 1.481 . S
C1379 C813 1.441 . S
C1390 C833 1.499 . S
C1388 C427 1.540 . S
C1399 C31 1.565 . S
C1401 C812 1.530 . S
C1410 C67 1.496 . S
C1412 C834 1.444 . S
C1421 C103 1.543 . S
C1423 C791 1.512 . S
