# Generated by pormake.
# Topology zzz, (3,6)-cn, num edge types: 1
# Building blocks:
#     Node 0, Type 0, BuildingBlock: CUQRIR_clean_linker_1, # of connection points: 3
#     Node 1, Type 0, BuildingBlock: CUQRIR_clean_linker_1, # of connection points: 3
#     Node 2, Type 0, BuildingBlock: CUQRIR_clean_linker_1, # of connection points: 3
#     Node 3, Type 0, BuildingBlock: CUQRIR_clean_linker_1, # of connection points: 3
#     Node 4, Type 0, BuildingBlock: CUQRIR_clean_linker_1, # of connection points: 3
#     Node 5, Type 0, BuildingBlock: CUQRIR_clean_linker_1, # of connection points: 3
#     Node 6, Type 0, BuildingBlock: CUQRIR_clean_linker_1, # of connection points: 3
#     Node 7, Type 0, BuildingBlock: CUQRIR_clean_linker_1, # of connection points: 3
#     Node 8, Type 1, BuildingBlock: KUMBUR_clean_sbu_1, # of connection points: 6
#     Node 9, Type 1, BuildingBlock: KUMBUR_clean_sbu_1, # of connection points: 6
#     Node 10, Type 1, BuildingBlock: KUMBUR_clean_sbu_1, # of connection points: 6
#     Node 11, Type 1, BuildingBlock: KUMBUR_clean_sbu_1, # of connection points: 6
#     Edge 12, Type (0, 1), BuildingBlock: OJICUG_clean_linker_0, # of connection points: 2
#     Edge 13, Type (0, 1), BuildingBlock: OJICUG_clean_linker_0, # of connection points: 2
#     Edge 14, Type (0, 1), BuildingBlock: OJICUG_clean_linker_0, # of connection points: 2
#     Edge 15, Type (0, 1), BuildingBlock: OJICUG_clean_linker_0, # of connection points: 2
#     Edge 16, Type (0, 1), BuildingBlock: OJICUG_clean_linker_0, # of connection points: 2
#     Edge 17, Type (0, 1), BuildingBlock: OJICUG_clean_linker_0, # of connection points: 2
#     Edge 18, Type (0, 1), BuildingBlock: OJICUG_clean_linker_0, # of connection points: 2
#     Edge 19, Type (0, 1), BuildingBlock: OJICUG_clean_linker_0, # of connection points: 2
#     Edge 20, Type (0, 1), BuildingBlock: OJICUG_clean_linker_0, # of connection points: 2
#     Edge 21, Type (0, 1), BuildingBlock: OJICUG_clean_linker_0, # of connection points: 2
#     Edge 22, Type (0, 1), BuildingBlock: OJICUG_clean_linker_0, # of connection points: 2
#     Edge 23, Type (0, 1), BuildingBlock: OJICUG_clean_linker_0, # of connection points: 2
#     Edge 24, Type (0, 1), BuildingBlock: OJICUG_clean_linker_0, # of connection points: 2
#     Edge 25, Type (0, 1), BuildingBlock: OJICUG_clean_linker_0, # of connection points: 2
#     Edge 26, Type (0, 1), BuildingBlock: OJICUG_clean_linker_0, # of connection points: 2
#     Edge 27, Type (0, 1), BuildingBlock: OJICUG_clean_linker_0, # of connection points: 2
#     Edge 28, Type (0, 1), BuildingBlock: OJICUG_clean_linker_0, # of connection points: 2
#     Edge 29, Type (0, 1), BuildingBlock: OJICUG_clean_linker_0, # of connection points: 2
#     Edge 30, Type (0, 1), BuildingBlock: OJICUG_clean_linker_0, # of connection points: 2
#     Edge 31, Type (0, 1), BuildingBlock: OJICUG_clean_linker_0, # of connection points: 2
#     Edge 32, Type (0, 1), BuildingBlock: OJICUG_clean_linker_0, # of connection points: 2
#     Edge 33, Type (0, 1), BuildingBlock: OJICUG_clean_linker_0, # of connection points: 2
#     Edge 34, Type (0, 1), BuildingBlock: OJICUG_clean_linker_0, # of connection points: 2
#     Edge 35, Type (0, 1), BuildingBlock: OJICUG_clean_linker_0, # of connection points: 2
# Relax obj value: 0.316
# Max RMSD: 0.140
# Mean RMSD: 0.096
data_MOF--net-zzz--node1-KUMBUR_clean_sbu_1--node2-CUQRIR_clean_linker_1--edge1-OJICUG_clean_linker_0
_symmetry_space_group_name_H-M    P1
_symmetry_Int_Tables_number       1
_symmetry_cell_setting            triclinic
loop_
_symmetry_equiv_pos_as_xyz
'x, y, z'
_cell_length_a     32.636879
_cell_length_b     32.329673
_cell_length_c     10.267688
_cell_angle_alpha  90.086344
_cell_angle_beta   91.219703
_cell_angle_gamma 90.045196
loop_
_atom_site_label
_atom_site_type_symbol
_atom_site_fract_x
_atom_site_fract_y
_atom_site_fract_z
_atom_type_partial_charge
C0 C 0.77049 0.56343 0.35312 0.0
N1 N 0.80064 0.53376 0.37481 0.0
N2 N 0.73735 0.54829 0.28078 0.0
C3 C 0.7775 0.6085 0.37667 0.0
C4 C 0.74917 0.50934 0.25484 0.0
N5 N 0.78658 0.5006 0.30911 0.0
C6 C 0.727 0.48238 0.15398 0.0
H7 H 0.77509 0.61549 0.48137 0.0
H8 H 0.75534 0.62745 0.31937 0.0
H9 H 0.80895 0.61678 0.3481 0.0
H10 H 0.73085 0.49611 0.05597 0.0
H11 H 0.69383 0.481 0.16967 0.0
H12 H 0.73799 0.45002 0.15297 0.0
C13 C 1.02559 0.76356 0.45408 0.0
N14 N 0.04788 0.79924 0.48454 0.0
N15 N 0.04133 0.74197 0.34836 0.0
C16 C 0.98994 0.7489 0.53057 0.0
C17 C 0.0725 0.76703 0.31415 0.0
N18 N 0.07749 0.79939 0.39736 0.0
C19 C 0.09396 0.76369 0.18519 0.0
H20 H 0.98411 0.71555 0.51279 0.0
H21 H 0.96229 0.76664 0.50014 0.0
H22 H 0.99569 0.75458 0.63601 0.0
H23 H 0.10139 0.79475 0.14632 0.0
H24 H 0.07453 0.74753 0.11115 0.0
H25 H 0.12296 0.74619 0.19853 0.0
C26 C 0.80594 1.02071 0.3497 0.0
N27 N 0.77267 0.0462 0.37384 0.0
N28 N 0.83547 0.03969 0.27365 0.0
C29 C 0.80847 0.97702 0.39549 0.0
C30 C 0.81801 0.07712 0.25087 0.0
N31 N 0.7815 0.08094 0.31046 0.0
C32 C 0.83695 0.11063 0.16844 0.0
H33 H 0.8086 0.97659 0.50335 0.0
H34 H 0.83617 0.9616 0.35844 0.0
H35 H 0.78072 0.96 0.36126 0.0
H36 H 0.85569 0.09714 0.09016 0.0
H37 H 0.8568 0.13043 0.23142 0.0
H38 H 0.81394 0.13111 0.12173 0.0
C39 C 0.56815 0.81277 0.37119 0.0
N40 N 0.5454 0.78087 0.42443 0.0
N41 N 0.55085 0.82789 0.25536 0.0
C42 C 0.60797 0.82759 0.42866 0.0
C43 C 0.51919 0.80072 0.2374 0.0
N44 N 0.51396 0.77605 0.34169 0.0
C45 C 0.50152 0.78815 0.10559 0.0
H46 H 0.61448 0.81325 0.52494 0.0
H47 H 0.60725 0.8616 0.43894 0.0
H48 H 0.63297 0.81972 0.36143 0.0
H49 H 0.52111 0.79858 0.02491 0.0
H50 H 0.47002 0.80053 0.09232 0.0
H51 H 0.49894 0.75393 0.09982 0.0
C52 C 0.30143 0.53376 0.18462 0.0
N53 N 0.27033 0.56153 0.15189 0.0
N54 N 0.33139 0.55137 0.265 0.0
C55 C 0.29695 0.48804 0.17066 0.0
C56 C 0.3156 0.58915 0.2881 0.0
N57 N 0.27928 0.59501 0.22324 0.0
C58 C 0.32999 0.61546 0.40297 0.0
H59 H 0.32193 0.47168 0.22333 0.0
H60 H 0.29567 0.47931 0.0665 0.0
H61 H 0.26797 0.47821 0.21595 0.0
H62 H 0.36318 0.62196 0.39938 0.0
H63 H 0.32476 0.59813 0.4944 0.0
H64 H 0.31387 0.64551 0.40837 0.0
C65 C 0.05111 0.32091 0.18083 0.0
N66 N 1.02451 0.28789 0.1536 0.0
N67 N 0.03372 0.35135 0.2585 0.0
C68 C 0.09434 0.32318 0.13763 0.0
C69 C 0.99615 0.33527 0.27842 0.0
N70 N 0.99083 0.29805 0.21838 0.0
C71 C 0.96682 0.35271 0.37837 0.0
H72 H 0.11282 0.29953 0.19038 0.0
H73 H 0.10744 0.35389 0.16111 0.0
H74 H 0.0957 0.31702 0.0316 0.0
H75 H 0.94766 0.37711 0.33283 0.0
H76 H 0.98398 0.36646 0.46227 0.0
H77 H 0.9452 0.32977 0.41759 0.0
C78 C 0.27375 0.07092 0.2229 0.0
N79 N 0.30986 0.04871 0.20879 0.0
N80 N 0.24672 0.05226 0.30845 0.0
C81 C 0.26475 0.11008 0.15135 0.0
C82 C 0.26839 1.0184 0.3462 0.0
N83 N 0.30516 1.0162 0.2869 0.0
C84 C 0.2524 0.98587 0.43831 0.0
H85 H 0.23873 0.12665 0.19513 0.0
H86 H 0.25713 0.10234 0.04846 0.0
H87 H 0.29237 0.13013 0.15218 0.0
H88 H 0.23658 0.96131 0.38088 0.0
H89 H 0.23062 0.99931 0.5081 0.0
H90 H 0.2769 0.97094 0.49688 0.0
C91 C 0.50811 0.28491 0.1981 0.0
N92 N 0.52999 0.31709 0.14261 0.0
N93 N 0.52657 0.26997 0.31264 0.0
C94 C 0.46822 0.26934 0.14322 0.0
C95 C 0.55803 0.29751 0.32753 0.0
N96 N 0.56217 0.32207 0.22238 0.0
C97 C 0.57631 0.31067 0.45797 0.0
H98 H 0.44345 0.27721 0.21128 0.0
H99 H 0.46929 0.23528 0.1342 0.0
H100 H 0.46115 0.28319 0.04656 0.0
H101 H 0.60796 0.29858 0.4701 0.0
H102 H 0.55725 0.30039 0.54009 0.0
H103 H 0.57866 0.34493 0.46243 0.0
Tb104 Tb 0.9962 0.05319 0.67168 0.0
C105 C 0.13642 0.11446 1.01269 0.0
N106 N 0.13412 0.08965 0.90585 0.0
C107 C 0.19456 0.12194 0.8228 0.0
C108 C 0.16634 0.14591 0.02432 0.0
C109 C 0.16428 0.09136 0.81583 0.0
C110 C 0.1951 0.14992 0.9262 0.0
C111 C 0.10675 0.13693 0.21479 0.0
C112 C 0.10746 0.1094 0.10776 0.0
C113 C 0.13636 0.1683 0.22683 0.0
C114 C 0.16622 0.17266 0.13211 0.0
Tb115 Tb 0.08564 0.03829 0.90817 0.0
N116 N 0.0793 0.07842 0.09315 0.0
C117 C 0.07569 0.13277 0.30499 0.0
C118 C 0.05086 0.07293 0.18673 0.0
C119 C 0.04758 0.10073 0.29013 0.0
H120 H 0.16628 0.06821 0.74115 0.0
H121 H 1.02363 0.09674 0.3596 0.0
H122 H 0.90695 0.04871 0.83497 0.0
H123 H 0.04334 0.97068 0.23877 0.0
H124 H 0.03073 0.04707 0.18526 0.0
H125 H 0.07345 0.15372 0.38702 0.0
H126 H 0.04852 1.02398 0.40933 0.0
H127 H 0.21789 0.12341 0.74958 0.0
H128 H 0.13624 0.18952 0.30859 0.0
H129 H 0.18883 0.19706 0.14239 0.0
H130 H 0.84803 1.00219 0.84582 0.0
H131 H 0.21855 0.17365 0.93143 0.0
H132 H 0.98528 0.92163 0.23579 0.0
N133 N 0.93831 1.01278 0.69293 0.0
C134 C 0.93381 0.98182 0.60301 0.0
C135 C 0.87237 0.99558 0.77889 0.0
C136 C 0.89962 0.95506 0.60368 0.0
C137 C 0.90659 1.02151 0.77407 0.0
C138 C 0.86948 0.96147 0.69622 0.0
N139 N 0.99513 1.00478 0.50673 0.0
C140 C 1.02312 1.00302 0.40956 0.0
C141 C 0.95783 0.94789 0.40727 0.0
C142 C 0.96232 0.97857 0.50458 0.0
C143 C 0.98745 0.94502 0.31131 0.0
C144 C 1.02026 0.97264 0.31271 0.0
H145 H 0.84286 0.9415 0.70022 0.0
H146 H 0.86998 0.90262 0.50952 0.0
H147 H 0.92084 0.89643 0.33752 0.0
O148 O 0.98986 0.11012 0.57263 0.0
O149 O 1.02724 0.9909 0.66443 0.0
O150 O 0.0572 0.97611 0.86255 0.0
O151 O 0.9429 0.06426 0.56081 0.0
O152 O 0.0568 0.07451 0.58987 0.0
O153 O 0.10016 1.03107 0.69931 0.0
O154 O 0.12291 1.01747 0.06303 0.0
O155 O 0.06959 0.10371 0.84963 0.0
O156 O 1.00064 0.10187 0.83058 0.0
O157 O 0.13965 1.00626 0.86376 0.0
O158 O 1.02533 1.01427 0.98936 0.0
O159 O 0.97783 0.05376 0.87723 0.0
C160 C 0.04047 0.96317 0.75031 0.0
C161 C 0.92061 0.13136 0.56861 0.0
C162 C 0.88935 0.19526 0.50507 0.0
C163 C 0.8752 0.20121 0.63193 0.0
C164 C 0.9078 0.13718 0.69712 0.0
C165 C 0.88316 0.17115 0.72705 0.0
C166 C 0.90606 0.15718 0.47068 0.0
C167 C 0.09375 0.05744 0.60364 0.0
C168 C 0.95236 0.10175 0.53563 0.0
C169 C 0.89579 0.92372 0.50932 0.0
C170 C 0.92457 0.9204 0.41069 0.0
C171 C 0.03414 0.12251 0.86789 0.0
C172 C 0.17407 0.96696 0.02485 0.0
C173 C 0.18291 0.91188 0.18263 0.0
C174 C 0.22354 0.90648 0.14236 0.0
C175 C 0.21439 0.9614 0.98426 0.0
C176 C 0.15784 0.94031 0.11533 0.0
C177 C 0.23842 0.92998 0.03945 0.0
C178 C 0.98689 1.02853 0.97398 0.0
C179 C 0.15091 1.0035 0.98528 0.0
H180 H 0.86263 0.23077 0.66063 0.0
H181 H 0.91829 0.11691 0.77443 0.0
H182 H 0.87392 0.17628 0.8264 0.0
H183 H 0.91772 0.15309 0.37307 0.0
H184 H 0.24376 0.8842 0.18875 0.0
H185 H 0.22732 0.9815 0.91141 0.0
H186 H 0.12553 0.94318 0.13503 0.0
H187 H 0.26881 0.92429 1.00404 0.0
Tb188 Tb 0.56895 0.07945 0.92003 0.0
C189 C 0.50496 0.92286 0.6817 0.0
N190 N 0.53424 0.9521 0.66256 0.0
C191 C 0.58588 0.89932 0.66335 0.0
C192 C 0.51529 0.8808 0.69753 0.0
C193 C 0.5741 0.94057 0.64706 0.0
C194 C 0.55638 0.86926 0.68864 0.0
C195 C 0.43444 0.9075 0.73308 0.0
C196 C 0.46523 0.93605 0.7 0.0
C197 C 0.44445 0.86553 0.74814 0.0
C198 C 0.48481 0.85226 0.73077 0.0
Tb199 Tb 0.51242 1.01966 0.65499 0.0
N200 N 0.45704 0.97705 0.68803 0.0
C201 C 0.3947 0.92213 0.75218 0.0
C202 C 0.4175 0.99068 0.69486 0.0
C203 C 0.38611 0.96388 0.73136 0.0
H204 H 0.59719 0.96301 0.62544 0.0
H205 H 0.35514 0.9753 0.74078 0.0
H206 H 0.48541 0.13762 0.94439 0.0
H207 H 0.72781 0.12015 0.84314 0.0
H208 H 0.40995 1.02219 0.67026 0.0
H209 H 0.3703 0.90133 0.77941 0.0
H210 H 0.67147 0.07444 0.90879 0.0
H211 H 0.61781 0.89076 0.65664 0.0
H212 H 0.42136 0.84321 0.77516 0.0
H213 H 0.49241 0.82018 0.74806 0.0
H214 H 0.46652 0.21053 0.91378 0.0
H215 H 0.56569 0.83739 0.70283 0.0
H216 H 0.71445 0.19438 0.80263 0.0
N217 N 0.5487 0.14737 0.91024 0.0
C218 C 0.5787 0.17587 0.89147 0.0
C219 C 0.4983 0.2013 0.90875 0.0
C220 C 0.56942 0.21819 0.87636 0.0
C221 C 0.50906 0.15974 0.92475 0.0
C222 C 0.52858 0.23072 0.88504 0.0
N223 N 0.62542 0.12058 0.8873 0.0
C224 C 0.66475 0.10609 0.88351 0.0
C225 C 0.64981 0.18959 0.84372 0.0
C226 C 0.61818 0.16174 0.8745 0.0
C227 C 0.68939 0.1741 0.82775 0.0
C228 C 0.69699 0.1322 0.84962 0.0
H229 H 0.52003 0.26283 0.87159 0.0
H230 H 0.59409 0.27837 0.82868 0.0
H231 H 0.66461 0.25362 0.80371 0.0
O232 O 0.61095 0.07899 0.07634 0.0
O233 O 0.55465 0.11433 0.73449 0.0
O234 O 0.49777 0.08661 0.63499 0.0
O235 O 0.5473 0.09198 0.109 0.0
O236 O 0.61318 0.04296 0.79936 0.0
O237 O 0.57742 0.03923 0.60624 0.0
O238 O 0.47012 1.01941 0.49955 0.0
O239 O 0.52624 0.9849 0.84032 0.0
O240 O 0.58286 1.01233 0.9422 0.0
O241 O 0.53416 1.00877 0.46543 0.0
O242 O 0.46773 0.05557 0.776 0.0
O243 O 0.50373 0.06056 0.96877 0.0
C244 C 0.52327 0.11784 0.65055 0.0
C245 C 0.59668 0.11952 0.26022 0.0
C246 C 0.65196 0.16584 0.33464 0.0
C247 C 0.64164 0.15652 0.46364 0.0
C248 C 0.58883 0.10945 0.38873 0.0
C249 C 0.61235 0.12689 0.48877 0.0
C250 C 0.62591 0.15008 0.23379 0.0
C251 C 0.61339 0.03927 0.67061 0.0
C252 C 0.58384 0.08924 0.16091 0.0
C253 C 0.60074 0.24603 0.84486 0.0
C254 C 0.64085 0.2318 0.82884 0.0
C255 C 0.55739 0.98115 0.92479 0.0
C256 C 0.48564 0.97985 0.31497 0.0
C257 C 0.43214 0.93134 0.24245 0.0
C258 C 0.4414 0.94143 0.11309 0.0
C259 C 0.49249 0.99056 0.18641 0.0
C260 C 0.45802 0.94793 0.34222 0.0
C261 C 0.46919 0.97246 0.08713 0.0
C262 C 0.46769 0.05985 0.9047 0.0
C263 C 0.49746 1.01043 0.41424 0.0
H264 H 0.65876 0.16835 0.54674 0.0
H265 H 0.56679 0.0856 0.41063 0.0
H266 H 0.60895 0.1171 0.58751 0.0
H267 H 0.63194 0.15654 0.1334 0.0
H268 H 0.42456 0.9288 0.03061 0.0
H269 H 0.5135 1.01529 0.16419 0.0
H270 H 0.45271 0.94106 0.44275 0.0
H271 H 0.47179 0.98253 0.98835 0.0
Tb272 Tb 0.57916 0.53149 0.67832 0.0
C273 C 0.41952 0.50775 0.97453 0.0
N274 N 0.42675 0.53436 0.87531 0.0
C275 C 0.36145 0.51694 0.77725 0.0
C276 C 0.38476 0.48189 0.97237 0.0
C277 C 0.39741 0.54046 0.78011 0.0
C278 C 0.3557 0.48659 0.87137 0.0
C279 C 0.44453 0.47409 0.17157 0.0
C280 C 0.44914 0.50378 0.07202 0.0
C281 C 0.40993 0.44826 0.17002 0.0
C282 C 0.38086 0.4513 0.06823 0.0
Tb283 Tb 0.48921 0.56731 0.87998 0.0
N284 N 0.48424 0.52616 0.06183 0.0
C285 C 0.4765 0.46865 0.26239 0.0
C286 C 0.51417 0.52263 0.15539 0.0
C287 C 0.51138 0.49324 0.25459 0.0
H288 H 0.40158 0.56334 0.70504 0.0
H289 H 0.53605 0.48978 0.32555 0.0
H290 H 0.66775 0.53117 0.84726 0.0
H291 H 0.53111 0.61589 0.24562 0.0
H292 H 0.53998 0.54263 0.15557 0.0
H293 H 0.4746 0.44561 0.33856 0.0
H294 H 0.52631 0.56215 0.41229 0.0
H295 H 0.3387 0.52153 0.7004 0.0
H296 H 0.40635 0.42461 0.24356 0.0
H297 H 0.35543 0.42975 0.06455 0.0
H298 H 0.73288 0.56921 0.84698 0.0
H299 H 0.32868 0.46716 0.86535 0.0
H300 H 0.59456 0.65706 0.22946 0.0
N301 N 0.64261 0.56228 0.68068 0.0
C302 C 0.65006 0.58938 0.58298 0.0
C303 C 0.70969 0.57547 0.77272 0.0
C304 C 0.68639 0.61295 0.58202 0.0
C305 C 0.67247 0.55405 0.77253 0.0
C306 C 0.71622 0.60587 0.67932 0.0
N307 N 0.58368 0.57489 0.50126 0.0
C308 C 0.553 0.58081 0.41141 0.0
C309 C 0.62465 0.62609 0.39194 0.0
C310 C 0.61958 0.59584 0.48962 0.0
C311 C 0.59217 0.63372 0.30453 0.0
C312 C 0.55624 0.61081 0.3141 0.0
H313 H 0.74435 0.62365 0.68352 0.0
H314 H 0.71793 0.66345 0.48814 0.0
H315 H 0.66491 0.67349 0.31784 0.0
O316 O 0.59066 0.49162 0.52096 0.0
O317 O 0.57901 0.60032 0.71875 0.0
O318 O 0.51079 0.61224 0.73359 0.0
O319 O 0.62409 0.48608 0.70312 0.0
O320 O 0.51556 0.51591 0.59182 0.0
O321 O 0.47696 0.56861 0.67006 0.0
O322 O 0.47948 0.61042 0.02985 0.0
O323 O 0.49117 0.49782 0.84624 0.0
O324 O 0.5593 0.48596 0.82492 0.0
O325 O 0.44145 0.60978 0.85592 0.0
O326 O 0.55235 0.58284 0.968 0.0
O327 O 0.59291 0.53151 0.88789 0.0
C328 C 0.54791 0.62662 0.71511 0.0
C329 C 0.65647 0.45936 0.51864 0.0
C330 C 0.68124 0.41763 0.34 0.0
C331 C 0.72062 0.41739 0.39749 0.0
C332 C 0.69619 0.4606 0.57399 0.0
C333 C 0.72816 0.43968 0.51298 0.0
C334 C 0.64967 0.43828 0.40355 0.0
C335 C 0.48043 0.53727 0.59071 0.0
C336 C 0.6196 0.47236 0.58599 0.0
C337 C 0.69114 0.64366 0.48689 0.0
C338 C 0.66079 0.64963 0.39037 0.0
C339 C 0.52258 0.47175 0.84964 0.0
C340 C 0.41322 0.64126 0.04014 0.0
C341 C 0.39158 0.68256 0.22367 0.0
C342 C 0.35099 0.68124 0.17671 0.0
C343 C 0.37232 0.63808 0.9957 0.0
C344 C 0.42226 0.66399 0.1507 0.0
C345 C 0.34137 0.65846 0.06349 0.0
C346 C 0.58779 0.56206 0.96956 0.0
C347 C 0.44847 0.62708 0.96713 0.0
H348 H 0.74511 0.40012 0.35344 0.0
H349 H 0.70221 0.47601 0.66605 0.0
H350 H 0.75846 0.43973 0.55765 0.0
H351 H 0.61825 0.43599 0.36789 0.0
H352 H 0.32721 0.69754 0.22752 0.0
H353 H 0.36448 0.62126 0.90735 0.0
H354 H 0.4543 0.66817 0.17778 0.0
H355 H 0.31006 0.65693 0.02711 0.0
Tb356 Tb 0.03317 0.59607 0.6782 0.0
C357 C 0.09728 0.43647 0.94145 0.0
N358 N 0.0646 0.44206 0.85813 0.0
C359 C 0.08037 0.37759 0.75281 0.0
C360 C 0.12441 0.40292 0.92676 0.0
C361 C 0.0546 0.41162 0.76992 0.0
C362 C 0.11612 0.37394 0.82855 0.0
C363 C 0.13434 0.45729 0.13875 0.0
C364 C 0.10206 0.46311 0.04698 0.0
C365 C 0.16247 0.42507 0.12076 0.0
C366 C 0.15784 0.39829 1.01404 0.0
Tb367 Tb 1.02545 0.50023 0.89603 0.0
N368 N 0.07581 0.49577 0.05647 0.0
C369 C 0.13825 0.48493 0.24319 0.0
C370 C 0.07893 0.522 0.16093 0.0
C371 C 0.11036 0.51733 0.2544 0.0
H372 H 1.02673 0.41322 0.71157 0.0
H373 H 0.11317 0.53889 0.33486 0.0
H374 H 0.98639 0.66148 0.87742 0.0
H375 H 0.98737 0.53564 0.20447 0.0
H376 H 0.05831 0.54751 0.16978 0.0
H377 H 0.16278 0.48166 0.31521 0.0
H378 H 0.03606 0.54933 0.3831 0.0
H379 H 0.07261 0.35422 0.68079 0.0
H380 H 0.18787 0.42055 0.18892 0.0
H381 H 0.17927 0.37301 1.00308 0.0
H382 H 0.92314 0.70252 0.87869 0.0
H383 H 0.13602 0.34755 0.81475 0.0
H384 H 0.92289 0.57508 0.18687 0.0
N385 N 0.9733 0.63284 0.69513 0.0
C386 C 0.94894 0.63375 0.58587 0.0
C387 C 0.92957 0.68269 0.79661 0.0
C388 C 0.91272 0.65756 0.58069 0.0
C389 C 0.96498 0.65839 0.79745 0.0
C390 C 0.90308 0.68197 0.68827 0.0
N391 N 0.99512 0.58698 0.48913 0.0
C392 C 1.00654 0.56365 0.38548 0.0
C393 C 0.93328 0.60672 0.37055 0.0
C394 C 0.95967 0.60929 0.48106 0.0
C395 C 0.94309 0.5793 0.27098 0.0
C396 C 0.97969 0.55742 0.27951 0.0
H397 H 0.87565 0.70083 0.68784 0.0
H398 H 0.85944 0.67436 0.46284 0.0
H399 H 0.87743 0.62947 0.27891 0.0
O400 O 0.05429 0.63179 0.52286 0.0
O401 O 0.9726 0.57197 0.74463 0.0
O402 O 0.97805 0.5032 0.73265 0.0
O403 O 0.04683 0.65857 0.71174 0.0
O404 O 0.06147 0.53765 0.58952 0.0
O405 O 1.02513 0.4857 0.68693 0.0
O406 O 0.96858 0.49283 0.99063 0.0
O407 O 0.08713 0.52897 0.90159 0.0
O408 O 0.09719 0.58153 0.75395 0.0
O409 O 1.01598 0.44697 1.00354 0.0
O410 O 1.00875 0.56153 0.99247 0.0
O411 O 0.04636 0.61023 0.88471 0.0
C412 C 0.95642 0.53671 0.70429 0.0
C413 C 0.09822 0.68677 0.58799 0.0
C414 C 0.1683 0.68799 0.51772 0.0
C415 C 0.17405 0.72714 0.57382 0.0
C416 C 0.10381 0.72578 0.64628 0.0
C417 C 0.14178 0.7458 0.63935 0.0
C418 C 0.13061 0.66816 0.52577 0.0
C419 C 0.05004 0.49772 0.59555 0.0
C420 C 0.05919 0.66479 0.59481 0.0
C421 C 0.88731 0.65621 0.46878 0.0
C422 C 0.89749 0.63067 0.36423 0.0
C423 C 0.11137 0.556 0.84642 0.0
C424 C 0.95017 0.42155 1.0176 0.0
C425 C 0.89083 0.38726 0.10321 0.0
C426 C 0.89354 0.35631 1.0081 0.0
C427 C 0.95367 0.39015 0.92354 0.0
C428 C 0.92051 0.41836 0.11102 0.0
C429 C 0.92583 0.35715 0.9207 0.0
C430 C 1.02614 0.59899 0.98804 0.0
C431 C 0.97895 0.45602 0.03106 0.0
H432 H 0.20329 0.74283 0.56825 0.0
H433 H 0.07901 0.74056 0.69709 0.0
H434 H 0.14633 0.77563 0.68506 0.0
H435 H 0.12632 0.63811 0.48025 0.0
H436 H 0.86961 0.33327 0.99684 0.0
H437 H 0.97747 0.3911 0.85256 0.0
H438 H 0.91779 0.44297 0.1827 0.0
H439 H 0.92812 0.33339 0.84683 0.0
C440 C 0.19283 0.09523 0.4267 0.0
C441 C 0.20377 0.06062 0.34977 0.0
H442 H 0.14929 0.12309 0.5579 0.0
C443 C 0.17386 1.02873 0.34258 0.0
H444 H 0.21434 0.12052 0.43846 0.0
C445 C 0.13781 1.02888 0.4183 0.0
C446 C 0.1277 0.0622 0.50055 0.0
H447 H 0.18037 1.00138 0.28665 0.0
H448 H 0.11858 1.00165 0.41669 0.0
C449 C 0.15527 0.09637 0.4976 0.0
C450 C 0.55446 0.21947 0.48068 0.0
C451 C 0.52188 0.23185 0.39582 0.0
H452 H 0.5776 0.18199 0.63403 0.0
C453 C 0.48727 0.20472 0.39742 0.0
H454 H 0.58394 0.23416 0.47835 0.0
C455 C 0.48674 0.16786 0.47754 0.0
C456 C 0.51947 0.15785 0.56636 0.0
H457 H 0.46056 0.21118 0.33739 0.0
H458 H 0.46045 0.1475 0.47053 0.0
C459 C 0.55164 0.18666 0.5696 0.0
C460 C 0.37581 0.50761 0.42126 0.0
C461 C 0.3715 0.5377 0.32156 0.0
H462 H 0.41423 0.48124 0.57546 0.0
C463 C 0.40631 0.56261 0.30177 0.0
H464 H 0.34992 0.48826 0.44451 0.0
C465 C 0.44156 0.56141 0.3844 0.0
C466 C 0.44624 0.53207 0.48533 0.0
H467 H 0.40444 0.58624 0.22857 0.0
H468 H 0.46427 0.58526 0.37167 0.0
C469 C 0.41292 0.50405 0.49844 0.0
C470 C 1.02005 0.42592 0.30891 0.0
C471 C 0.04728 0.39204 0.315 0.0
H472 H 0.99831 0.48242 0.38819 0.0
C473 C 0.08089 0.39728 0.40385 0.0
H474 H 0.99274 0.42306 0.25061 0.0
C475 C 0.08498 0.43375 0.4848 0.0
C476 C 0.05537 0.46626 0.48273 0.0
H477 H 0.10247 0.3722 0.4176 0.0
H478 H 0.10996 0.43509 0.55572 0.0
C479 C 1.02334 0.46098 0.39065 0.0
C480 C 0.88458 0.99534 0.13958 0.0
C481 C 0.8772 1.02815 0.228 0.0
H482 H 0.92522 0.96778 0.99851 0.0
C483 C 0.91021 0.05625 0.24556 0.0
H484 H 0.86046 0.97314 0.11903 0.0
C485 C 0.94603 0.05504 0.16936 0.0
C486 C 0.95329 1.02333 0.07784 0.0
H487 H 0.90646 0.08208 0.31062 0.0
H488 H 0.9669 0.0809 0.17715 0.0
C489 C 0.92206 0.99259 0.06848 0.0
C490 C 0.59146 0.893 0.17598 0.0
C491 C 0.55656 0.86619 0.17411 0.0
H492 H 0.61924 0.95032 0.10702 0.0
C493 C 0.52467 0.87916 0.08797 0.0
H494 H 0.61776 0.88604 0.23729 0.0
C495 C 0.52828 0.91234 1.00123 0.0
C496 C 0.56066 0.94085 1.00754 0.0
H497 H 0.49503 0.86474 0.08787 0.0
H498 H 0.50256 0.91768 0.93664 0.0
C499 C 0.59282 0.9302 0.0976 0.0
C500 C 0.69408 0.59143 0.12314 0.0
C501 C 0.69753 0.56493 0.23245 0.0
H502 H 0.65603 0.61449 0.96329 0.0
C503 C 0.66133 0.54371 0.26525 0.0
H504 H 0.72094 0.60775 0.09063 0.0
C505 C 0.62572 0.54374 0.18396 0.0
C506 C 0.62219 0.56912 0.0725 0.0
H507 H 0.66247 0.5227 0.34663 0.0
H508 H 0.60197 0.5218 0.20621 0.0
C509 C 0.65671 0.59454 0.04784 0.0
C510 C 0.06711 0.6751 0.25255 0.0
C511 C 0.0335 0.70091 0.28457 0.0
H512 H 0.0914 0.62476 0.13977 0.0
C513 C 0.99528 0.68887 0.22797 0.0
H514 H 0.09735 0.68285 0.28933 0.0
C515 C 0.99179 0.65422 0.13997 0.0
C516 C 1.02627 0.62999 0.10376 0.0
H517 H 0.96845 0.70754 0.24549 0.0
H518 H 0.96218 0.64775 0.09499 0.0
C519 C 0.06375 0.64126 0.1646 0.0
C520 C 0.97882 0.2518 0.39553 0.0
C521 C 0.96479 0.26859 0.27774 0.0
H522 H 0.96324 0.22121 0.57023 0.0
C523 C 0.92294 0.26648 0.24288 0.0
H524 H 1.01066 0.25509 0.42589 0.0
C525 C 0.89588 0.24505 0.3221 0.0
C526 C 0.91019 0.22917 0.4414 0.0
H527 H 0.91161 0.28115 0.15464 0.0
H528 H 0.86446 0.2401 0.28966 0.0
C529 C 0.95146 0.2343 0.47969 0.0
C530 C 0.34907 0.96539 0.40064 0.0
C531 C 0.33019 0.97998 0.28593 0.0
H532 H 0.39077 0.92147 0.48299 0.0
C533 C 0.33363 0.95697 0.17138 0.0
H534 H 0.34507 0.98135 0.49204 0.0
C535 C 0.35991 0.92297 0.16938 0.0
C536 C 0.38893 0.91886 0.27241 0.0
H537 H 0.31771 0.96666 0.08333 0.0
H538 H 0.36373 0.90699 0.07778 0.0
C539 C 0.37502 0.93123 0.39504 0.0
C540 C 0.59912 0.38587 0.159 0.0
C541 C 0.59949 0.34418 0.19594 0.0
H542 H 0.63363 0.44032 0.1304 0.0
C543 C 0.6376 0.32509 0.22259 0.0
H544 H 0.57071 0.40269 0.14616 0.0
C545 C 0.67266 0.34943 0.24043 0.0
C546 C 0.66935 0.39235 0.22513 0.0
H547 H 0.63911 0.29251 0.24665 0.0
H548 H 0.69932 0.33592 0.28843 0.0
C549 C 0.63581 0.40753 0.15137 0.0
C550 C 0.24368 0.66091 0.26107 0.0
C551 C 0.24827 0.61845 0.28517 0.0
H552 H 0.21419 0.71715 0.31886 0.0
C553 C 0.22913 0.60022 0.39102 0.0
H554 H 0.25894 0.67539 0.18077 0.0
C555 C 0.20622 0.62411 0.47375 0.0
C556 C 0.20029 0.66631 0.44789 0.0
H557 H 0.23382 0.56776 0.41277 0.0
H558 H 0.19196 0.60933 0.55601 0.0
C559 C 0.21922 0.6848 0.34149 0.0
C560 C 0.14935 0.81747 0.36073 0.0
C561 C 0.10906 0.82991 0.386 0.0
H562 H 0.20476 0.83325 0.26755 0.0
C563 C 0.09906 0.87187 0.38118 0.0
H564 H 0.15802 0.78527 0.36836 0.0
C565 C 0.128 0.90028 0.34303 0.0
C566 C 0.16431 0.88642 0.2855 0.0
H567 H 0.06829 0.88264 0.39844 0.0
H568 H 0.11916 0.93249 0.34143 0.0
C569 C 0.17649 0.84524 0.30547 0.0
C570 C 0.73777 0.12927 0.18809 0.0
C571 C 0.75663 0.11719 0.30567 0.0
H572 H 0.69502 0.17008 0.09696 0.0
C573 C 0.7528 0.14231 0.41574 0.0
H574 H 0.74311 0.1123 0.09909 0.0
C575 C 0.72424 0.17449 0.41273 0.0
C576 C 0.69582 0.17642 0.30702 0.0
H577 H 0.77026 0.13581 0.50423 0.0
H578 H 0.71937 0.19163 0.50164 0.0
C579 C 0.71048 0.16229 0.18726 0.0
C580 C 0.47627 0.71211 0.39931 0.0
C581 C 0.47635 0.75403 0.36474 0.0
H582 H 0.44086 0.65784 0.42485 0.0
C583 C 0.43853 0.7738 0.33948 0.0
H584 H 0.50458 0.69511 0.41248 0.0
C585 C 0.40294 0.7502 0.32303 0.0
C586 C 0.40536 0.7072 0.33735 0.0
H587 H 0.43752 0.80649 0.31672 0.0
H588 H 0.37624 0.76436 0.27723 0.0
C589 C 0.43932 0.6908 0.40623 0.0
C590 C 0.82535 0.43542 0.34397 0.0
C591 C 0.81048 0.46686 0.26172 0.0
H592 H 0.86392 0.38159 0.35517 0.0
C593 C 0.81506 0.4633 0.12676 0.0
H594 H 0.82225 0.4378 0.44836 0.0
C595 C 0.83145 0.42803 0.07358 0.0
C596 C 0.85167 0.3997 0.15498 0.0
H597 H 0.80478 0.48772 0.06183 0.0
H598 H 0.83539 0.42716 0.96891 0.0
C599 C 0.84732 0.40248 0.2908 0.0
C600 C 0.06569 0.22962 0.03635 0.0
C601 C 1.02817 0.24816 0.07429 0.0
H602 H 0.09666 0.18097 0.93231 0.0
C603 C 0.99282 0.22543 0.02976 0.0
H604 H 0.09451 0.24412 0.06127 0.0
C605 C 0.99463 0.18589 0.96599 0.0
C606 C 0.03203 0.16677 0.93311 0.0
H607 H 0.96274 0.23826 0.04162 0.0
H608 H 0.96608 0.17046 0.94082 0.0
C609 C 0.06724 0.19127 0.96444 0.0
C610 C 0.34847 0.05952 0.99373 0.0
C611 C 0.34806 0.05688 0.13194 0.0
H612 H 0.38338 0.06417 0.81716 0.0
C613 C 0.38764 0.05806 0.19271 0.0
H614 H 0.31959 0.05868 0.94003 0.0
C615 C 0.42491 0.06144 0.12093 0.0
C616 C 0.42593 0.06138 0.98222 0.0
H617 H 0.38994 0.05627 0.29789 0.0
H618 H 0.45342 0.06354 0.17596 0.0
C619 C 0.38604 0.06181 0.92172 0.0
C620 C 0.48592 0.37351 0.03897 0.0
C621 C 0.52011 0.34667 0.03484 0.0
H622 H 0.45685 0.42898 0.965 0.0
C623 C 0.5499 0.35745 0.94178 0.0
H624 H 0.46111 0.36652 0.10368 0.0
C625 C 0.55018 0.39697 0.87982 0.0
C626 C 0.51845 0.42623 0.89699 0.0
H627 H 0.57649 0.33796 0.93153 0.0
H628 H 0.57649 0.40523 0.82279 0.0
C629 C 0.48439 0.41111 0.96544 0.0
C630 C 0.21369 0.59563 1.01198 0.0
C631 C 0.23298 0.55906 0.06227 0.0
H632 H 0.16208 0.62444 0.91031 0.0
C633 C 0.21393 0.52179 1.0195 0.0
H634 H 0.2277 0.62536 0.02973 0.0
C635 C 0.17717 0.52152 0.94094 0.0
C636 C 0.15588 0.558 0.90343 0.0
H637 H 0.22621 0.49217 0.04666 0.0
H638 H 0.16503 0.492 0.90974 0.0
C639 C 0.17599 0.59525 0.9378 0.0
C640 C 1.00618 0.85761 0.58606 0.0
C641 C 0.0423 0.8335 0.58229 0.0
H642 H 0.97627 0.91295 0.65241 0.0
C643 C 0.07617 0.85047 0.65523 0.0
H644 H 0.97897 0.8469 0.53419 0.0
C645 C 0.07539 0.8908 0.71439 0.0
C646 C 0.04019 0.9164 0.70838 0.0
H647 H 0.10488 0.83389 0.65759 0.0
H648 H 0.10331 0.90273 0.75931 0.0
C649 C 1.00512 0.89719 0.64969 0.0
C650 C 0.69437 0.03989 0.38491 0.0
C651 C 0.73368 0.03914 0.44739 0.0
H652 H 0.62833 0.03691 0.39922 0.0
C653 C 0.73263 1.03593 0.58534 0.0
H654 H 0.6926 0.04235 0.27981 0.0
C655 C 0.69479 1.03472 0.65584 0.0
C656 C 0.65521 0.03694 0.59395 0.0
H657 H 0.76134 1.03534 0.64006 0.0
H658 H 0.69696 1.03176 0.76036 0.0
C659 C 0.65671 0.03762 0.45525 0.0
C660 C 0.52271 0.74094 0.62215 0.0
C661 C 0.55383 0.75148 0.5334 0.0
H662 H 0.49421 0.69325 0.73663 0.0
C663 C 0.58794 0.72454 0.53353 0.0
H664 H 0.49606 0.76057 0.62875 0.0
C665 C 0.58827 0.6869 0.60652 0.0
C666 C 0.55307 0.67205 0.66983 0.0
H667 H 0.61358 0.73139 0.47198 0.0
H668 H 0.6157 0.66868 0.60931 0.0
C669 C 0.52133 0.70143 0.68345 0.0
C670 C 0.87643 0.51476 0.42073 0.0
C671 C 0.84001 0.53615 0.45478 0.0
H672 H 0.93781 0.49499 0.47261 0.0
C673 C 0.84321 0.55796 0.57528 0.0
H674 H 0.87855 0.49982 0.32724 0.0
C675 C 0.8801 0.55837 0.6546 0.0
C676 C 0.91554 0.5353 0.62226 0.0
H677 H 0.81691 0.57449 0.61046 0.0
H678 H 0.88056 0.57646 0.74345 0.0
C679 C 0.91203 0.51289 0.50421 0.0
loop_
_geom_bond_atom_site_label_1
_geom_bond_atom_site_label_2
_geom_bond_distance
_geom_bond_site_symmetry_2
_ccdc_geom_bond_type
C0 N1 1.317 . S
C0 N2 1.348 . S
C0 C3 1.485 . S
N1 C0 1.317 . S
N1 N5 1.370 . S
N2 C0 1.348 . S
N2 C4 1.346 . S
C3 C0 1.485 . S
C3 H7 0.960 . S
C3 H8 0.961 . S
C3 H9 0.960 . S
C4 N2 1.346 . S
C4 N5 1.307 . S
C4 C6 1.486 . S
N5 N1 1.370 . S
N5 C4 1.307 . S
C6 C4 1.486 . S
C6 H10 0.960 . S
C6 H11 0.960 . S
C6 H12 0.959 . S
H7 C3 0.960 . S
H8 C3 0.961 . S
H9 C3 0.960 . S
H10 C6 0.960 . S
H11 C6 0.960 . S
H12 C6 0.959 . S
C13 N14 1.317 . S
C13 N15 1.348 . S
C13 C16 1.485 . S
N14 C13 1.317 . S
N14 N18 1.370 . S
N15 C13 1.348 . S
N15 C17 1.346 . S
C16 C13 1.485 . S
C16 H20 0.960 1_655 S
C16 H21 0.961 . S
C16 H22 0.960 . S
C17 N15 1.346 . S
C17 N18 1.307 . S
C17 C19 1.486 . S
N18 N14 1.370 . S
N18 C17 1.307 . S
C19 C17 1.486 . S
C19 H23 0.960 . S
C19 H24 0.960 1_655 S
C19 H25 0.959 . S
H20 C16 0.960 1_455 S
H21 C16 0.961 . S
H22 C16 0.960 . S
H23 C19 0.960 . S
H24 C19 0.960 1_455 S
H25 C19 0.959 . S
C26 N27 1.317 . S
C26 N28 1.348 . S
C26 C29 1.485 . S
N27 C26 1.317 . S
N27 N31 1.370 . S
N28 C26 1.348 . S
N28 C30 1.346 . S
C29 C26 1.485 . S
C29 H33 0.960 1_565 S
C29 H34 0.961 . S
C29 H35 0.960 . S
C30 N28 1.346 . S
C30 N31 1.307 . S
C30 C32 1.486 . S
N31 N27 1.370 . S
N31 C30 1.307 . S
C32 C30 1.486 . S
C32 H36 0.960 . S
C32 H37 0.960 1_565 S
C32 H38 0.959 . S
H33 C29 0.960 1_545 S
H34 C29 0.961 . S
H35 C29 0.960 . S
H36 C32 0.960 . S
H37 C32 0.960 1_545 S
H38 C32 0.959 . S
C39 N40 1.317 . S
C39 N41 1.348 . S
C39 C42 1.485 . S
N40 C39 1.317 . S
N40 N44 1.370 . S
N41 C39 1.348 . S
N41 C43 1.346 . S
C42 C39 1.485 . S
C42 H46 0.960 . S
C42 H47 0.961 . S
C42 H48 0.960 . S
C43 N41 1.346 . S
C43 N44 1.307 . S
C43 C45 1.486 . S
N44 N40 1.370 . S
N44 C43 1.307 . S
C45 C43 1.486 . S
C45 H49 0.960 . S
C45 H50 0.960 . S
C45 H51 0.959 . S
H46 C42 0.960 . S
H47 C42 0.961 . S
H48 C42 0.960 . S
H49 C45 0.960 . S
H50 C45 0.960 . S
H51 C45 0.959 . S
C52 N53 1.317 . S
C52 N54 1.348 1_556 S
C52 C55 1.485 . S
N53 C52 1.317 . S
N53 N57 1.370 1_556 S
N54 C52 1.348 1_554 S
N54 C56 1.346 . S
C55 C52 1.485 . S
C55 H59 0.960 . S
C55 H60 0.961 . S
C55 H61 0.960 . S
C56 N54 1.346 . S
C56 N57 1.307 . S
C56 C58 1.486 . S
N57 N53 1.370 1_554 S
N57 C56 1.307 . S
C58 C56 1.486 . S
C58 H62 0.960 . S
C58 H63 0.960 . S
C58 H64 0.959 . S
H59 C55 0.960 . S
H60 C55 0.961 . S
H61 C55 0.960 . S
H62 C58 0.960 . S
H63 C58 0.960 . S
H64 C58 0.959 . S
C65 N66 1.317 . S
C65 N67 1.348 1_556 S
C65 C68 1.485 . S
N66 C65 1.317 . S
N66 N70 1.370 1_556 S
N67 C65 1.348 1_554 S
N67 C69 1.346 . S
C68 C65 1.485 . S
C68 H72 0.960 . S
C68 H73 0.961 . S
C68 H74 0.960 . S
C69 N67 1.346 . S
C69 N70 1.307 . S
C69 C71 1.486 . S
N70 N66 1.370 1_554 S
N70 C69 1.307 . S
C71 C69 1.486 . S
C71 H75 0.960 . S
C71 H76 0.960 . S
C71 H77 0.959 . S
H72 C68 0.960 . S
H73 C68 0.961 . S
H74 C68 0.960 . S
H75 C71 0.960 . S
H76 C71 0.960 . S
H77 C71 0.959 . S
C78 N79 1.317 . S
C78 N80 1.348 1_556 S
C78 C81 1.485 . S
N79 C78 1.317 . S
N79 N83 1.370 1_556 S
N80 C78 1.348 1_554 S
N80 C82 1.346 . S
C81 C78 1.485 . S
C81 H85 0.960 . S
C81 H86 0.961 . S
C81 H87 0.960 . S
C82 N80 1.346 . S
C82 N83 1.307 . S
C82 C84 1.486 . S
N83 N79 1.370 1_554 S
N83 C82 1.307 . S
C84 C82 1.486 . S
C84 H88 0.960 . S
C84 H89 0.960 . S
C84 H90 0.959 . S
H85 C81 0.960 . S
H86 C81 0.961 . S
H87 C81 0.960 . S
H88 C84 0.960 . S
H89 C84 0.960 . S
H90 C84 0.959 . S
C91 N92 1.317 . S
C91 N93 1.348 1_556 S
C91 C94 1.485 . S
N92 C91 1.317 . S
N92 N96 1.370 1_556 S
N93 C91 1.348 1_554 S
N93 C95 1.346 . S
C94 C91 1.485 . S
C94 H98 0.960 . S
C94 H99 0.961 . S
C94 H100 0.960 . S
C95 N93 1.346 . S
C95 N96 1.307 . S
C95 C97 1.486 . S
N96 N92 1.370 1_554 S
N96 C95 1.307 . S
C97 C95 1.486 . S
C97 H101 0.960 . S
C97 H102 0.960 . S
C97 H103 0.959 . S
H98 C94 0.960 . S
H99 C94 0.961 . S
H100 C94 0.960 . S
H101 C97 0.960 . S
H102 C97 0.960 . S
H103 C97 0.959 . S
Tb104 N133 2.617 . S
Tb104 N139 2.572 . S
Tb104 O148 2.465 . S
Tb104 O149 2.387 1_545 S
Tb104 O151 2.428 . S
Tb104 O152 2.308 1_655 S
Tb104 O156 2.346 1_655 S
Tb104 O159 2.393 . S
Tb104 C168 2.802 . S
C105 N106 1.379 1_554 S
C105 C108 1.416 . S
C105 C112 1.424 . S
N106 C105 1.379 1_556 S
N106 C109 1.334 . S
N106 Tb115 2.617 1_545 S
C107 C109 1.390 . S
C107 C110 1.339 1_556 S
C107 H127 0.930 . S
C108 C105 1.416 . S
C108 C110 1.416 . S
C108 C114 1.448 . S
C109 N106 1.334 . S
C109 C107 1.390 . S
C109 H120 0.930 1_545 S
C110 C107 1.339 1_554 S
C110 C108 1.416 . S
C110 H131 0.930 . S
C111 C112 1.413 . S
C111 C113 1.427 . S
C111 C117 1.416 . S
C112 C105 1.424 . S
C112 C111 1.413 . S
C112 N116 1.361 . S
C113 C111 1.427 . S
C113 C114 1.328 . S
C113 H128 0.929 . S
C114 C108 1.448 . S
C114 C113 1.328 . S
C114 H129 0.930 . S
Tb115 N106 2.617 1_565 S
Tb115 N116 2.572 1_566 S
Tb115 O150 2.349 . S
Tb115 O153 2.393 . S
Tb115 O154 2.465 1_556 S
Tb115 O155 2.387 1_565 S
Tb115 O157 2.428 . S
Tb115 O158 2.308 1_465 S
Tb115 C179 2.802 1_556 S
N116 C112 1.361 . S
N116 Tb115 2.572 1_544 S
N116 C118 1.340 . S
C117 C111 1.416 . S
C117 C119 1.332 . S
C117 H125 0.931 . S
C118 N116 1.340 . S
C118 C119 1.407 . S
C118 H124 0.930 . S
C119 C117 1.332 . S
C119 C118 1.407 . S
C119 H121 0.929 . S
H120 C109 0.930 1_565 S
H121 C119 0.929 . S
H122 C137 0.930 . S
H123 C144 0.929 1_455 S
H124 C118 0.930 . S
H125 C117 0.931 . S
H126 C140 0.930 1_445 S
H127 C107 0.930 . S
H128 C113 0.929 . S
H129 C114 0.930 . S
H130 C135 0.931 . S
H131 C110 0.930 . S
H132 C143 0.931 . S
N133 Tb104 2.617 . S
N133 C134 1.379 1_545 S
N133 C137 1.334 . S
C134 N133 1.379 1_565 S
C134 C136 1.416 . S
C134 C142 1.424 . S
C135 H130 0.931 . S
C135 C137 1.392 . S
C135 C138 1.336 1_545 S
C136 C134 1.416 . S
C136 C138 1.416 . S
C136 C169 1.448 . S
C137 H122 0.930 . S
C137 N133 1.334 . S
C137 C135 1.392 . S
C138 C135 1.336 1_565 S
C138 C136 1.416 . S
C138 H145 0.930 . S
N139 Tb104 2.572 . S
N139 C140 1.340 1_545 S
N139 C142 1.361 1_545 S
C140 H126 0.930 1_665 S
C140 N139 1.340 1_565 S
C140 C144 1.407 . S
C141 C142 1.413 . S
C141 C143 1.416 . S
C141 C170 1.427 . S
C142 C134 1.424 . S
C142 N139 1.361 1_565 S
C142 C141 1.413 . S
C143 H132 0.931 . S
C143 C141 1.416 . S
C143 C144 1.332 . S
C144 H123 0.929 1_655 S
C144 C140 1.407 . S
C144 C143 1.332 . S
H145 C138 0.930 . S
H146 C169 0.930 . S
H147 C170 0.929 . S
O148 Tb104 2.465 . S
O148 C168 1.264 . S
O149 Tb104 2.387 1_565 S
O149 C160 1.264 . S
O150 Tb115 2.349 . S
O150 C160 1.243 1_455 S
O151 Tb104 2.428 . S
O151 C168 1.256 . S
O152 Tb104 2.308 1_455 S
O152 C167 1.266 . S
O153 Tb115 2.393 . S
O153 C167 1.248 1_565 S
O154 Tb115 2.465 1_554 S
O154 C179 1.264 . S
O155 Tb115 2.387 1_545 S
O155 C171 1.264 . S
O156 Tb104 2.346 1_455 S
O156 C171 1.248 . S
O157 Tb115 2.428 . S
O157 C179 1.256 1_556 S
O158 Tb115 2.308 1_645 S
O158 C178 1.266 . S
O159 Tb104 2.393 . S
O159 C178 1.248 . S
C160 O149 1.264 . S
C160 O150 1.243 1_655 S
C161 C164 1.399 . S
C161 C166 1.383 . S
C161 C168 1.496 . S
C162 C163 1.399 . S
C162 C166 1.389 . S
C163 C162 1.399 . S
C163 C165 1.380 . S
C163 H180 0.929 . S
C164 C161 1.399 . S
C164 C165 1.392 . S
C164 H181 0.929 . S
C165 C163 1.380 . S
C165 C164 1.392 . S
C165 H182 0.929 . S
C166 C161 1.383 . S
C166 C162 1.389 . S
C166 H183 0.931 1_655 S
C167 O152 1.266 . S
C167 O153 1.248 1_545 S
C168 Tb104 2.802 . S
C168 O148 1.264 . S
C168 O151 1.256 . S
C168 C161 1.496 . S
C169 C136 1.448 . S
C169 H146 0.930 . S
C169 C170 1.328 . S
C170 C141 1.427 . S
C170 H147 0.929 . S
C170 C169 1.328 . S
C171 O155 1.264 . S
C171 O156 1.248 . S
C172 C175 1.399 . S
C172 C176 1.383 . S
C172 C179 1.496 . S
C173 C174 1.399 . S
C173 C176 1.389 . S
C174 C173 1.399 . S
C174 C177 1.380 . S
C174 H184 0.929 . S
C175 C172 1.399 . S
C175 C177 1.392 . S
C175 H185 0.929 . S
C176 C172 1.383 . S
C176 C173 1.389 . S
C176 H186 0.931 . S
C177 C174 1.380 . S
C177 C175 1.392 . S
C177 H187 0.929 . S
C178 O158 1.266 . S
C178 O159 1.248 . S
C179 Tb115 2.802 1_554 S
C179 O154 1.264 . S
C179 O157 1.256 1_554 S
C179 C172 1.496 . S
H180 C163 0.929 . S
H181 C164 0.929 . S
H182 C165 0.929 . S
H183 C166 0.931 1_455 S
H184 C174 0.929 . S
H185 C175 0.929 . S
H186 C176 0.931 . S
H187 C177 0.929 . S
Tb188 N217 2.617 . S
Tb188 N223 2.572 . S
Tb188 O232 2.465 1_556 S
Tb188 O233 2.387 . S
Tb188 O235 2.428 1_556 S
Tb188 O236 2.308 . S
Tb188 O240 2.349 1_545 S
Tb188 O243 2.393 . S
Tb188 C252 2.802 1_556 S
C189 N190 1.379 . S
C189 C192 1.416 . S
C189 C196 1.424 . S
N190 C189 1.379 . S
N190 C193 1.334 . S
N190 Tb199 2.617 . S
C191 C193 1.390 . S
C191 C194 1.339 . S
C191 H211 0.930 . S
C192 C189 1.416 . S
C192 C194 1.416 . S
C192 C198 1.448 . S
C193 N190 1.334 . S
C193 C191 1.390 . S
C193 H204 0.930 . S
C194 C191 1.339 . S
C194 C192 1.416 . S
C194 H215 0.930 . S
C195 C196 1.413 . S
C195 C197 1.427 . S
C195 C201 1.416 . S
C196 C189 1.424 . S
C196 C195 1.413 . S
C196 N200 1.361 . S
C197 C195 1.427 . S
C197 C198 1.328 . S
C197 H212 0.929 . S
C198 C192 1.448 . S
C198 C197 1.328 . S
C198 H213 0.930 . S
Tb199 N190 2.617 . S
Tb199 N200 2.572 . S
Tb199 O234 2.349 1_565 S
Tb199 O237 2.393 . S
Tb199 O238 2.465 . S
Tb199 O239 2.387 . S
Tb199 O241 2.428 . S
Tb199 O242 2.308 1_565 S
Tb199 C263 2.802 . S
N200 C196 1.361 . S
N200 Tb199 2.572 . S
N200 C202 1.340 . S
C201 C195 1.416 . S
C201 C203 1.332 . S
C201 H209 0.931 . S
C202 N200 1.340 . S
C202 C203 1.407 . S
C202 H208 0.930 . S
C203 C201 1.332 . S
C203 C202 1.407 . S
C203 H205 0.929 . S
H204 C193 0.930 . S
H205 C203 0.929 . S
H206 C221 0.930 . S
H207 C228 0.929 . S
H208 C202 0.930 . S
H209 C201 0.931 . S
H210 C224 0.930 . S
H211 C191 0.930 . S
H212 C197 0.929 . S
H213 C198 0.930 . S
H214 C219 0.930 . S
H215 C194 0.930 . S
H216 C227 0.931 . S
N217 Tb188 2.617 . S
N217 C218 1.379 . S
N217 C221 1.334 1_556 S
C218 N217 1.379 . S
C218 C220 1.416 . S
C218 C226 1.424 . S
C219 H214 0.930 . S
C219 C221 1.390 . S
C219 C222 1.339 . S
C220 C218 1.416 . S
C220 C222 1.416 1_556 S
C220 C253 1.448 . S
C221 H206 0.930 . S
C221 N217 1.334 1_554 S
C221 C219 1.390 . S
C222 C219 1.339 . S
C222 C220 1.416 1_554 S
C222 H229 0.930 . S
N223 Tb188 2.572 . S
N223 C224 1.340 . S
N223 C226 1.361 . S
C224 H210 0.930 . S
C224 N223 1.340 . S
C224 C228 1.407 . S
C225 C226 1.413 . S
C225 C227 1.416 . S
C225 C254 1.427 . S
C226 C218 1.424 . S
C226 N223 1.361 . S
C226 C225 1.413 . S
C227 H216 0.931 . S
C227 C225 1.416 . S
C227 C228 1.332 . S
C228 H207 0.929 . S
C228 C224 1.407 . S
C228 C227 1.332 . S
H229 C222 0.930 . S
H230 C253 0.930 . S
H231 C254 0.929 . S
O232 Tb188 2.465 1_554 S
O232 C252 1.264 . S
O233 Tb188 2.387 . S
O233 C244 1.264 . S
O234 Tb199 2.349 1_545 S
O234 C244 1.243 . S
O235 Tb188 2.428 1_554 S
O235 C252 1.256 . S
O236 Tb188 2.308 . S
O236 C251 1.266 1_545 S
O237 Tb199 2.393 . S
O237 C251 1.248 . S
O238 Tb199 2.465 . S
O238 C263 1.264 . S
O239 Tb199 2.387 . S
O239 C255 1.264 . S
O240 Tb188 2.349 1_565 S
O240 C255 1.243 . S
O241 Tb199 2.428 . S
O241 C263 1.256 . S
O242 Tb199 2.308 1_545 S
O242 C262 1.266 . S
O243 Tb188 2.393 . S
O243 C262 1.248 . S
C244 O233 1.264 . S
C244 O234 1.243 . S
C245 C248 1.399 . S
C245 C250 1.383 . S
C245 C252 1.496 . S
C246 C247 1.399 . S
C246 C250 1.389 . S
C247 C246 1.399 . S
C247 C249 1.380 . S
C247 H264 0.929 . S
C248 C245 1.399 . S
C248 C249 1.392 . S
C248 H265 0.929 . S
C249 C247 1.380 . S
C249 C248 1.392 . S
C249 H266 0.929 . S
C250 C245 1.383 . S
C250 C246 1.389 . S
C250 H267 0.931 . S
C251 O236 1.266 1_565 S
C251 O237 1.248 . S
C252 Tb188 2.802 1_554 S
C252 O232 1.264 . S
C252 O235 1.256 . S
C252 C245 1.496 . S
C253 C220 1.448 . S
C253 H230 0.930 . S
C253 C254 1.328 . S
C254 C225 1.427 . S
C254 H231 0.929 . S
C254 C253 1.328 . S
C255 O239 1.264 . S
C255 O240 1.243 . S
C256 C259 1.399 . S
C256 C260 1.383 . S
C256 C263 1.496 . S
C257 C258 1.399 . S
C257 C260 1.389 . S
C258 C257 1.399 . S
C258 C261 1.380 . S
C258 H268 0.929 . S
C259 C256 1.399 . S
C259 C261 1.392 . S
C259 H269 0.929 . S
C260 C256 1.383 . S
C260 C257 1.389 . S
C260 H270 0.931 . S
C261 C258 1.380 . S
C261 C259 1.392 . S
C261 H271 0.929 . S
C262 O242 1.266 . S
C262 O243 1.248 . S
C263 Tb199 2.802 . S
C263 O238 1.264 . S
C263 O241 1.256 . S
C263 C256 1.496 . S
H264 C247 0.929 . S
H265 C248 0.929 . S
H266 C249 0.929 . S
H267 C250 0.931 . S
H268 C258 0.929 . S
H269 C259 0.929 . S
H270 C260 0.931 . S
H271 C261 0.929 . S
Tb272 N301 2.617 . S
Tb272 N307 2.572 . S
Tb272 O316 2.465 . S
Tb272 O317 2.387 . S
Tb272 O319 2.428 . S
Tb272 O320 2.308 . S
Tb272 O324 2.349 . S
Tb272 O327 2.393 . S
Tb272 C336 2.802 . S
C273 N274 1.379 1_554 S
C273 C276 1.416 . S
C273 C280 1.424 . S
N274 C273 1.379 1_556 S
N274 C277 1.334 . S
N274 Tb283 2.617 . S
C275 C277 1.390 . S
C275 C278 1.339 1_556 S
C275 H295 0.930 . S
C276 C273 1.416 . S
C276 C278 1.416 . S
C276 C282 1.448 . S
C277 N274 1.334 . S
C277 C275 1.390 . S
C277 H288 0.930 . S
C278 C275 1.339 1_554 S
C278 C276 1.416 . S
C278 H299 0.930 . S
C279 C280 1.413 . S
C279 C281 1.427 . S
C279 C285 1.416 . S
C280 C273 1.424 . S
C280 C279 1.413 . S
C280 N284 1.361 . S
C281 C279 1.427 . S
C281 C282 1.328 . S
C281 H296 0.929 . S
C282 C276 1.448 . S
C282 C281 1.328 . S
C282 H297 0.930 . S
Tb283 N274 2.617 . S
Tb283 N284 2.572 1_556 S
Tb283 O318 2.349 . S
Tb283 O321 2.393 . S
Tb283 O322 2.465 1_556 S
Tb283 O323 2.387 . S
Tb283 O325 2.428 . S
Tb283 O326 2.308 . S
Tb283 C347 2.802 1_556 S
N284 C280 1.361 . S
N284 Tb283 2.572 1_554 S
N284 C286 1.340 . S
C285 C279 1.416 . S
C285 C287 1.332 . S
C285 H293 0.931 . S
C286 N284 1.340 . S
C286 C287 1.407 . S
C286 H292 0.930 . S
C287 C285 1.332 . S
C287 C286 1.407 . S
C287 H289 0.929 . S
H288 C277 0.930 . S
H289 C287 0.929 . S
H290 C305 0.930 . S
H291 C312 0.929 . S
H292 C286 0.930 . S
H293 C285 0.931 . S
H294 C308 0.930 . S
H295 C275 0.930 . S
H296 C281 0.929 . S
H297 C282 0.930 . S
H298 C303 0.930 . S
H299 C278 0.930 . S
H300 C311 0.931 . S
N301 Tb272 2.617 . S
N301 C302 1.379 . S
N301 C305 1.334 . S
C302 N301 1.379 . S
C302 C304 1.416 . S
C302 C310 1.424 . S
C303 H298 0.930 . S
C303 C305 1.390 . S
C303 C306 1.339 . S
C304 C302 1.416 . S
C304 C306 1.416 . S
C304 C337 1.448 . S
C305 H290 0.930 . S
C305 N301 1.334 . S
C305 C303 1.390 . S
C306 C303 1.339 . S
C306 C304 1.416 . S
C306 H313 0.930 . S
N307 Tb272 2.572 . S
N307 C308 1.340 . S
N307 C310 1.361 . S
C308 H294 0.930 . S
C308 N307 1.340 . S
C308 C312 1.407 . S
C309 C310 1.413 . S
C309 C311 1.416 . S
C309 C338 1.427 . S
C310 C302 1.424 . S
C310 N307 1.361 . S
C310 C309 1.413 . S
C311 H300 0.931 . S
C311 C309 1.416 . S
C311 C312 1.332 . S
C312 H291 0.929 . S
C312 C308 1.407 . S
C312 C311 1.332 . S
H313 C306 0.930 . S
H314 C337 0.930 . S
H315 C338 0.929 . S
O316 Tb272 2.465 . S
O316 C336 1.264 . S
O317 Tb272 2.387 . S
O317 C328 1.264 . S
O318 Tb283 2.349 . S
O318 C328 1.243 . S
O319 Tb272 2.428 . S
O319 C336 1.256 . S
O320 Tb272 2.308 . S
O320 C335 1.266 . S
O321 Tb283 2.393 . S
O321 C335 1.248 . S
O322 Tb283 2.465 1_554 S
O322 C347 1.264 . S
O323 Tb283 2.387 . S
O323 C339 1.264 . S
O324 Tb272 2.349 . S
O324 C339 1.243 . S
O325 Tb283 2.428 . S
O325 C347 1.256 1_556 S
O326 Tb283 2.308 . S
O326 C346 1.266 . S
O327 Tb272 2.393 . S
O327 C346 1.248 . S
C328 O317 1.264 . S
C328 O318 1.243 . S
C329 C332 1.399 . S
C329 C334 1.383 . S
C329 C336 1.496 . S
C330 C331 1.399 . S
C330 C334 1.389 . S
C331 C330 1.399 . S
C331 C333 1.380 . S
C331 H348 0.929 . S
C332 C329 1.399 . S
C332 C333 1.392 . S
C332 H349 0.929 . S
C333 C331 1.380 . S
C333 C332 1.392 . S
C333 H350 0.929 . S
C334 C329 1.383 . S
C334 C330 1.389 . S
C334 H351 0.931 . S
C335 O320 1.266 . S
C335 O321 1.248 . S
C336 Tb272 2.802 . S
C336 O316 1.264 . S
C336 O319 1.256 . S
C336 C329 1.496 . S
C337 C304 1.448 . S
C337 H314 0.930 . S
C337 C338 1.328 . S
C338 C309 1.427 . S
C338 H315 0.929 . S
C338 C337 1.328 . S
C339 O323 1.264 . S
C339 O324 1.243 . S
C340 C343 1.399 . S
C340 C344 1.383 . S
C340 C347 1.496 . S
C341 C342 1.399 . S
C341 C344 1.389 . S
C342 C341 1.399 . S
C342 C345 1.380 . S
C342 H352 0.929 . S
C343 C340 1.399 . S
C343 C345 1.392 . S
C343 H353 0.929 . S
C344 C340 1.383 . S
C344 C341 1.389 . S
C344 H354 0.931 . S
C345 C342 1.380 . S
C345 C343 1.392 . S
C345 H355 0.929 . S
C346 O326 1.266 . S
C346 O327 1.248 . S
C347 Tb283 2.802 1_554 S
C347 O322 1.264 . S
C347 O325 1.256 1_554 S
C347 C340 1.496 . S
H348 C331 0.929 . S
H349 C332 0.929 . S
H350 C333 0.929 . S
H351 C334 0.931 . S
H352 C342 0.929 . S
H353 C343 0.929 . S
H354 C344 0.931 . S
H355 C345 0.929 . S
Tb356 N385 2.617 . S
Tb356 N391 2.572 . S
Tb356 O400 2.465 . S
Tb356 O401 2.387 1_455 S
Tb356 O403 2.428 . S
Tb356 O404 2.308 . S
Tb356 O408 2.349 . S
Tb356 O411 2.393 . S
Tb356 C420 2.802 . S
C357 N358 1.379 1_554 S
C357 C360 1.416 . S
C357 C364 1.424 . S
N358 C357 1.379 1_556 S
N358 C361 1.334 . S
N358 Tb367 2.617 1_455 S
C359 C361 1.389 . S
C359 C362 1.339 1_556 S
C359 H379 0.930 . S
C360 C357 1.416 . S
C360 C362 1.416 . S
C360 C366 1.448 . S
C361 N358 1.334 . S
C361 C359 1.389 . S
C361 H372 0.931 1_455 S
C362 C359 1.339 1_554 S
C362 C360 1.416 . S
C362 H383 0.930 . S
C363 C364 1.413 . S
C363 C365 1.427 . S
C363 C369 1.416 . S
C364 C357 1.424 . S
C364 C363 1.413 . S
C364 N368 1.361 . S
C365 C363 1.427 . S
C365 C366 1.328 . S
C365 H380 0.929 . S
C366 C360 1.448 . S
C366 C365 1.328 . S
C366 H381 0.930 . S
Tb367 N358 2.617 1_655 S
Tb367 N368 2.572 1_656 S
Tb367 O402 2.349 . S
Tb367 O405 2.393 . S
Tb367 O406 2.465 1_556 S
Tb367 O407 2.387 1_655 S
Tb367 O409 2.428 . S
Tb367 O410 2.308 1_655 S
Tb367 C431 2.802 1_556 S
N368 C364 1.361 . S
N368 Tb367 2.572 1_454 S
N368 C370 1.340 . S
C369 C363 1.416 . S
C369 C371 1.332 . S
C369 H377 0.931 . S
C370 N368 1.340 . S
C370 C371 1.407 . S
C370 H376 0.930 . S
C371 C369 1.332 . S
C371 C370 1.407 . S
C371 H373 0.929 . S
H372 C361 0.931 1_655 S
H373 C371 0.929 . S
H374 C389 0.930 . S
H375 C396 0.929 . S
H376 C370 0.930 . S
H377 C369 0.931 . S
H378 C392 0.930 1_455 S
H379 C359 0.930 . S
H380 C365 0.929 . S
H381 C366 0.930 . S
H382 C387 0.931 . S
H383 C362 0.930 . S
H384 C395 0.931 . S
N385 Tb356 2.617 . S
N385 C386 1.379 1_455 S
N385 C389 1.334 . S
C386 N385 1.379 1_655 S
C386 C388 1.416 . S
C386 C394 1.424 . S
C387 H382 0.931 . S
C387 C389 1.392 . S
C387 C390 1.336 1_455 S
C388 C386 1.416 . S
C388 C390 1.416 . S
C388 C421 1.448 . S
C389 H374 0.930 . S
C389 N385 1.334 . S
C389 C387 1.392 . S
C390 C387 1.336 1_655 S
C390 C388 1.416 . S
C390 H397 0.930 . S
N391 Tb356 2.572 . S
N391 C392 1.340 1_455 S
N391 C394 1.361 1_455 S
C392 H378 0.930 1_655 S
C392 N391 1.340 1_655 S
C392 C396 1.407 . S
C393 C394 1.413 . S
C393 C395 1.416 . S
C393 C422 1.427 . S
C394 C386 1.424 . S
C394 N391 1.361 1_655 S
C394 C393 1.413 . S
C395 H384 0.931 . S
C395 C393 1.416 . S
C395 C396 1.332 . S
C396 H375 0.929 . S
C396 C392 1.407 . S
C396 C395 1.332 . S
H397 C390 0.930 . S
H398 C421 0.930 . S
H399 C422 0.929 . S
O400 Tb356 2.465 . S
O400 C420 1.264 . S
O401 Tb356 2.387 1_655 S
O401 C412 1.264 . S
O402 Tb367 2.349 . S
O402 C412 1.243 . S
O403 Tb356 2.428 . S
O403 C420 1.256 . S
O404 Tb356 2.308 . S
O404 C419 1.266 . S
O405 Tb367 2.393 . S
O405 C419 1.248 1_655 S
O406 Tb367 2.465 1_554 S
O406 C431 1.264 . S
O407 Tb367 2.387 1_455 S
O407 C423 1.264 . S
O408 Tb356 2.349 . S
O408 C423 1.243 . S
O409 Tb367 2.428 . S
O409 C431 1.256 1_556 S
O410 Tb367 2.308 1_455 S
O410 C430 1.266 . S
O411 Tb356 2.393 . S
O411 C430 1.248 . S
C412 O401 1.264 . S
C412 O402 1.243 . S
C413 C416 1.399 . S
C413 C418 1.383 . S
C413 C420 1.496 . S
C414 C415 1.399 . S
C414 C418 1.389 . S
C415 C414 1.399 . S
C415 C417 1.380 . S
C415 H432 0.929 . S
C416 C413 1.399 . S
C416 C417 1.392 . S
C416 H433 0.929 . S
C417 C415 1.380 . S
C417 C416 1.392 . S
C417 H434 0.929 . S
C418 C413 1.383 . S
C418 C414 1.389 . S
C418 H435 0.931 . S
C419 O404 1.266 . S
C419 O405 1.248 1_455 S
C420 Tb356 2.802 . S
C420 O400 1.264 . S
C420 O403 1.256 . S
C420 C413 1.496 . S
C421 C388 1.448 . S
C421 H398 0.930 . S
C421 C422 1.328 . S
C422 C393 1.427 . S
C422 H399 0.929 . S
C422 C421 1.328 . S
C423 O407 1.264 . S
C423 O408 1.243 . S
C424 C427 1.399 . S
C424 C428 1.383 . S
C424 C431 1.496 . S
C425 C426 1.399 . S
C425 C428 1.389 . S
C426 C425 1.399 . S
C426 C429 1.380 . S
C426 H436 0.929 . S
C427 C424 1.399 . S
C427 C429 1.392 . S
C427 H437 0.929 . S
C428 C424 1.383 . S
C428 C425 1.389 . S
C428 H438 0.931 . S
C429 C426 1.380 . S
C429 C427 1.392 . S
C429 H439 0.929 . S
C430 O410 1.266 . S
C430 O411 1.248 . S
C431 Tb367 2.802 1_554 S
C431 O406 1.264 . S
C431 O409 1.256 1_554 S
C431 C424 1.496 . S
H432 C415 0.929 . S
H433 C416 0.929 . S
H434 C417 0.929 . S
H435 C418 0.931 . S
H436 C426 0.929 . S
H437 C427 0.929 . S
H438 C428 0.931 . S
H439 C429 0.929 . S
C440 C441 1.387 . S
C440 H444 0.950 . S
C440 C449 1.390 . S
C441 C440 1.387 . S
C441 C443 1.387 1_545 S
H442 C449 0.950 . S
C443 C441 1.387 1_565 S
C443 C445 1.390 . S
C443 H447 0.950 . S
H444 C440 0.950 . S
C445 C443 1.390 . S
C445 C446 1.387 1_565 S
C445 H448 0.950 . S
C446 C445 1.387 1_545 S
C446 C449 1.387 . S
H447 C443 0.950 . S
H448 C445 0.950 . S
C449 C440 1.390 . S
C449 H442 0.950 . S
C449 C446 1.387 . S
C450 C451 1.387 . S
C450 H454 0.950 . S
C450 C459 1.390 . S
C451 C450 1.387 . S
C451 C453 1.387 . S
H452 C459 0.950 . S
C453 C451 1.387 . S
C453 C455 1.390 . S
C453 H457 0.950 . S
H454 C450 0.950 . S
C455 C453 1.390 . S
C455 C456 1.387 . S
C455 H458 0.950 . S
C456 C455 1.387 . S
C456 C459 1.387 . S
H457 C453 0.950 . S
H458 C455 0.950 . S
C459 C450 1.390 . S
C459 H452 0.950 . S
C459 C456 1.387 . S
C460 C461 1.387 . S
C460 H464 0.950 . S
C460 C469 1.390 . S
C461 C460 1.387 . S
C461 C463 1.387 . S
H462 C469 0.950 . S
C463 C461 1.387 . S
C463 C465 1.390 . S
C463 H467 0.950 . S
H464 C460 0.950 . S
C465 C463 1.390 . S
C465 C466 1.387 . S
C465 H468 0.950 . S
C466 C465 1.387 . S
C466 C469 1.387 . S
H467 C463 0.950 . S
H468 C465 0.950 . S
C469 C460 1.390 . S
C469 H462 0.950 . S
C469 C466 1.387 . S
C470 C471 1.387 . S
C470 H474 0.950 . S
C470 C479 1.390 . S
C471 C470 1.387 . S
C471 C473 1.387 . S
H472 C479 0.950 . S
C473 C471 1.387 . S
C473 C475 1.390 . S
C473 H477 0.950 . S
H474 C470 0.950 . S
C475 C473 1.390 . S
C475 C476 1.387 . S
C475 H478 0.950 . S
C476 C475 1.387 . S
C476 C479 1.387 . S
H477 C473 0.950 . S
H478 C475 0.950 . S
C479 C470 1.390 . S
C479 H472 0.950 . S
C479 C476 1.387 . S
C480 C481 1.387 . S
C480 H484 0.950 . S
C480 C489 1.390 . S
C481 C480 1.387 . S
C481 C483 1.387 1_565 S
H482 C489 0.950 . S
C483 C481 1.387 1_545 S
C483 C485 1.390 . S
C483 H487 0.950 . S
H484 C480 0.950 . S
C485 C483 1.390 . S
C485 C486 1.387 1_545 S
C485 H488 0.950 . S
C486 C485 1.387 1_565 S
C486 C489 1.387 . S
H487 C483 0.950 . S
H488 C485 0.950 . S
C489 C480 1.390 . S
C489 H482 0.950 . S
C489 C486 1.387 . S
C490 C491 1.387 . S
C490 H494 0.950 . S
C490 C499 1.390 . S
C491 C490 1.387 . S
C491 C493 1.387 . S
H492 C499 0.950 . S
C493 C491 1.387 . S
C493 C495 1.390 . S
C493 H497 0.950 . S
H494 C490 0.950 . S
C495 C493 1.390 . S
C495 C496 1.387 . S
C495 H498 0.950 . S
C496 C495 1.387 . S
C496 C499 1.387 . S
H497 C493 0.950 . S
H498 C495 0.950 . S
C499 C490 1.390 . S
C499 H492 0.950 . S
C499 C496 1.387 . S
C500 C501 1.387 . S
C500 H504 0.950 . S
C500 C509 1.390 . S
C501 C500 1.387 . S
C501 C503 1.387 . S
H502 C509 0.950 . S
C503 C501 1.387 . S
C503 C505 1.390 . S
C503 H507 0.950 . S
H504 C500 0.950 . S
C505 C503 1.390 . S
C505 C506 1.387 . S
C505 H508 0.950 . S
C506 C505 1.387 . S
C506 C509 1.387 . S
H507 C503 0.950 . S
H508 C505 0.950 . S
C509 C500 1.390 . S
C509 H502 0.950 . S
C509 C506 1.387 . S
C510 C511 1.387 1_455 S
C510 H514 0.950 . S
C510 C519 1.390 . S
C511 C510 1.387 1_655 S
C511 C513 1.387 . S
H512 C519 0.950 . S
C513 C511 1.387 . S
C513 C515 1.390 . S
C513 H517 0.950 . S
H514 C510 0.950 . S
C515 C513 1.390 . S
C515 C516 1.387 . S
C515 H518 0.950 . S
C516 C515 1.387 . S
C516 C519 1.387 1_655 S
H517 C513 0.950 . S
H518 C515 0.950 . S
C519 C510 1.390 . S
C519 H512 0.950 . S
C519 C516 1.387 1_455 S
C520 C521 1.387 . S
C520 H524 0.950 . S
C520 C529 1.390 . S
C521 C520 1.387 . S
C521 C523 1.387 1_455 S
H522 C529 0.950 . S
C523 C521 1.387 1_655 S
C523 C525 1.390 . S
C523 H527 0.950 . S
H524 C520 0.950 . S
C525 C523 1.390 . S
C525 C526 1.387 . S
C525 H528 0.950 . S
C526 C525 1.387 . S
C526 C529 1.387 1_655 S
H527 C523 0.950 . S
H528 C525 0.950 . S
C529 C520 1.390 . S
C529 H522 0.950 . S
C529 C526 1.387 1_455 S
C530 C531 1.387 . S
C530 H534 0.950 . S
C530 C539 1.390 . S
C531 C530 1.387 . S
C531 C533 1.389 1_545 S
H532 C539 0.950 . S
C533 C531 1.389 1_565 S
C533 C535 1.389 . S
C533 H537 0.949 1_554 S
H534 C530 0.950 . S
C535 C533 1.389 . S
C535 C536 1.387 . S
C535 H538 0.950 . S
C536 C535 1.387 . S
C536 C539 1.387 1_565 S
H537 C533 0.949 1_556 S
H538 C535 0.950 . S
C539 C530 1.390 . S
C539 H532 0.950 . S
C539 C536 1.387 1_545 S
C540 C541 1.387 . S
C540 H544 0.950 1_554 S
C540 C549 1.390 . S
C541 C540 1.387 . S
C541 C543 1.387 . S
H542 C549 0.950 . S
C543 C541 1.387 . S
C543 C545 1.390 . S
C543 H547 0.950 . S
H544 C540 0.950 1_556 S
C545 C543 1.390 . S
C545 C546 1.387 . S
C545 H548 0.950 . S
C546 C545 1.387 . S
C546 C549 1.387 . S
H547 C543 0.950 . S
H548 C545 0.950 . S
C549 C540 1.390 . S
C549 H542 0.950 . S
C549 C546 1.387 . S
C550 C551 1.387 . S
C550 H554 0.950 . S
C550 C559 1.390 . S
C551 C550 1.387 . S
C551 C553 1.387 . S
H552 C559 0.950 . S
C553 C551 1.387 . S
C553 C555 1.390 . S
C553 H557 0.950 . S
H554 C550 0.950 . S
C555 C553 1.390 . S
C555 C556 1.387 . S
C555 H558 0.950 . S
C556 C555 1.387 . S
C556 C559 1.387 . S
H557 C553 0.950 . S
H558 C555 0.950 . S
C559 C550 1.390 . S
C559 H552 0.950 . S
C559 C556 1.387 . S
C560 C561 1.392 . S
C560 H564 0.954 . S
C560 C569 1.382 1_655 S
C561 C560 1.392 . S
C561 C563 1.387 . S
H562 C569 0.950 . S
C563 C561 1.387 . S
C563 C565 1.390 1_655 S
C563 H567 0.950 . S
H564 C560 0.954 . S
C565 C563 1.390 1_455 S
C565 C566 1.387 . S
C565 H568 0.950 . S
C566 C565 1.387 . S
C566 C569 1.387 . S
H567 C563 0.950 . S
H568 C565 0.950 . S
C569 C560 1.382 1_455 S
C569 H562 0.950 . S
C569 C566 1.387 . S
C570 C571 1.387 . S
C570 H574 0.950 . S
C570 C579 1.390 . S
C571 C570 1.387 . S
C571 C573 1.387 1_565 S
H572 C579 0.950 . S
C573 C571 1.387 1_545 S
C573 C575 1.390 . S
C573 H577 0.950 . S
H574 C570 0.950 . S
C575 C573 1.390 . S
C575 C576 1.387 . S
C575 H578 0.950 . S
C576 C575 1.387 . S
C576 C579 1.387 1_545 S
H577 C573 0.950 . S
H578 C575 0.950 . S
C579 C570 1.390 . S
C579 H572 0.950 . S
C579 C576 1.387 1_565 S
C580 C581 1.387 . S
C580 H584 0.950 . S
C580 C589 1.390 . S
C581 C580 1.387 . S
C581 C583 1.387 . S
H582 C589 0.950 . S
C583 C581 1.387 . S
C583 C585 1.390 . S
C583 H587 0.950 . S
H584 C580 0.950 . S
C585 C583 1.390 . S
C585 C586 1.387 . S
C585 H588 0.950 . S
C586 C585 1.387 . S
C586 C589 1.387 . S
H587 C583 0.950 . S
H588 C585 0.950 . S
C589 C580 1.390 . S
C589 H582 0.950 . S
C589 C586 1.387 . S
C590 C591 1.387 . S
C590 H594 0.950 . S
C590 C599 1.390 . S
C591 C590 1.387 . S
C591 C593 1.387 . S
H592 C599 0.950 . S
C593 C591 1.387 . S
C593 C595 1.390 . S
C593 H597 0.950 . S
H594 C590 0.950 . S
C595 C593 1.390 . S
C595 C596 1.387 . S
C595 H598 0.950 . S
C596 C595 1.387 . S
C596 C599 1.387 . S
H597 C593 0.950 . S
H598 C595 0.950 . S
C599 C590 1.390 . S
C599 H592 0.950 . S
C599 C596 1.387 . S
C600 C601 1.387 . S
C600 H604 0.950 . S
C600 C609 1.390 . S
C601 C600 1.387 . S
C601 C603 1.387 1_455 S
H602 C609 0.950 . S
C603 C601 1.387 1_655 S
C603 C605 1.390 . S
C603 H607 0.950 . S
H604 C600 0.950 . S
C605 C603 1.390 . S
C605 C606 1.387 1_655 S
C605 H608 0.950 . S
C606 C605 1.387 1_455 S
C606 C609 1.387 . S
H607 C603 0.950 . S
H608 C605 0.950 . S
C609 C600 1.390 . S
C609 H602 0.950 . S
C609 C606 1.387 . S
C610 C611 1.387 1_565 S
C610 H614 0.950 . S
C610 C619 1.390 . S
C611 C610 1.387 1_545 S
C611 C613 1.387 . S
H612 C619 0.950 . S
C613 C611 1.387 . S
C613 C615 1.390 . S
C613 H617 0.950 . S
H614 C610 0.950 . S
C615 C613 1.390 . S
C615 C616 1.387 . S
C615 H618 0.950 . S
C616 C615 1.387 . S
C616 C619 1.387 1_545 S
H617 C613 0.950 . S
H618 C615 0.950 . S
C619 C610 1.390 . S
C619 H612 0.950 . S
C619 C616 1.387 1_565 S
C620 C621 1.387 . S
C620 H624 0.950 . S
C620 C629 1.390 . S
C621 C620 1.387 . S
C621 C623 1.387 . S
H622 C629 0.950 . S
C623 C621 1.387 . S
C623 C625 1.390 . S
C623 H627 0.950 . S
H624 C620 0.950 . S
C625 C623 1.390 . S
C625 C626 1.387 . S
C625 H628 0.950 . S
C626 C625 1.387 . S
C626 C629 1.387 . S
H627 C623 0.950 . S
H628 C625 0.950 . S
C629 C620 1.390 . S
C629 H622 0.950 . S
C629 C626 1.387 . S
C630 C631 1.387 . S
C630 H634 0.950 . S
C630 C639 1.390 . S
C631 C630 1.387 . S
C631 C633 1.387 . S
H632 C639 0.950 . S
C633 C631 1.387 . S
C633 C635 1.390 . S
C633 H637 0.950 . S
H634 C630 0.950 . S
C635 C633 1.390 . S
C635 C636 1.387 . S
C635 H638 0.950 . S
C636 C635 1.387 . S
C636 C639 1.387 . S
H637 C633 0.950 . S
H638 C635 0.950 . S
C639 C630 1.390 . S
C639 H632 0.950 . S
C639 C636 1.387 . S
C640 C641 1.387 . S
C640 H644 0.950 . S
C640 C649 1.390 . S
C641 C640 1.387 . S
C641 C643 1.387 1_655 S
H642 C649 0.950 . S
C643 C641 1.387 1_455 S
C643 C645 1.390 . S
C643 H647 0.950 . S
H644 C640 0.950 . S
C645 C643 1.390 . S
C645 C646 1.387 1_455 S
C645 H648 0.950 . S
C646 C645 1.387 1_655 S
C646 C649 1.387 . S
H647 C643 0.950 . S
H648 C645 0.950 . S
C649 C640 1.390 . S
C649 H642 0.950 . S
C649 C646 1.387 . S
C650 C651 1.387 . S
C650 H654 0.950 . S
C650 C659 1.390 . S
C651 C650 1.387 . S
C651 C653 1.387 1_565 S
H652 C659 0.950 . S
C653 C651 1.387 1_545 S
C653 C655 1.390 . S
C653 H657 0.950 . S
H654 C650 0.950 . S
C655 C653 1.390 . S
C655 C656 1.387 1_545 S
C655 H658 0.950 . S
C656 C655 1.387 1_565 S
C656 C659 1.387 . S
H657 C653 0.950 . S
H658 C655 0.950 . S
C659 C650 1.390 . S
C659 H652 0.950 . S
C659 C656 1.387 . S
C660 C661 1.387 . S
C660 H664 0.950 . S
C660 C669 1.390 . S
C661 C660 1.387 . S
C661 C663 1.387 . S
H662 C669 0.950 . S
C663 C661 1.387 . S
C663 C665 1.390 . S
C663 H667 0.950 . S
H664 C660 0.950 . S
C665 C663 1.390 . S
C665 C666 1.387 . S
C665 H668 0.950 . S
C666 C665 1.387 . S
C666 C669 1.387 . S
H667 C663 0.950 . S
H668 C665 0.950 . S
C669 C660 1.390 . S
C669 H662 0.950 . S
C669 C666 1.387 . S
C670 C671 1.387 . S
C670 H674 0.950 . S
C670 C679 1.390 . S
C671 C670 1.387 . S
C671 C673 1.387 . S
H672 C679 0.950 . S
C673 C671 1.387 . S
C673 C675 1.390 . S
C673 H677 0.950 . S
H674 C670 0.950 . S
C675 C673 1.390 . S
C675 C676 1.387 . S
C675 H678 0.950 . S
C676 C675 1.387 . S
C676 C679 1.387 . S
H677 C673 0.950 . S
H678 C675 0.950 . S
C679 C670 1.390 . S
C679 H672 0.950 . S
C679 C676 1.387 . S
C441 N80 2.022 . S
C446 C167 2.158 . S
C456 C244 2.166 . S
C451 N93 2.022 . S
C466 C335 2.157 . S
C461 N54 2.020 . S
C476 C419 2.147 . S
C471 N67 2.015 . S
C486 C178 2.159 1_564 S
C481 N28 2.029 . S
C491 N41 2.026 . S
C496 C255 2.165 1_554 S
C501 N2 2.027 . S
C506 C346 2.158 1_554 S
C511 N15 2.017 . S
C516 C430 2.148 1_654 S
C526 C162 0.738 . S
C521 N70 0.740 . S
C536 C257 0.734 . S
C531 N83 0.734 . S
C546 C330 0.747 . S
C541 N96 0.742 . S
C551 N57 0.726 . S
C556 C414 0.731 . S
C561 N18 0.737 . S
C566 C173 0.742 . S
C576 C246 0.730 . S
C571 N31 0.733 . S
C586 C341 0.747 . S
C581 N44 0.747 . S
C591 N5 0.729 . S
C596 C425 0.725 . S
C601 N66 2.162 . S
C606 C171 2.268 . S
C611 N79 2.165 . S
C616 C262 2.297 . S
C626 C339 2.281 . S
C621 N92 2.173 . S
C636 C423 2.284 . S
C631 N53 2.175 . S
C641 N14 2.160 . S
C646 C160 2.267 . S
C656 C251 2.297 . S
C651 N27 2.167 . S
C666 C328 2.280 . S
C661 N40 2.174 . S
C671 N1 2.179 . S
C676 C412 2.285 . S
