# Generated by pormake.
# Topology anh, (6,3)-cn, num edge types: 1
# Building blocks:
#     Node 0, Type 0, BuildingBlock: BETFEN_clean_sbu_0, # of connection points: 6
#     Node 1, Type 0, BuildingBlock: BETFEN_clean_sbu_0, # of connection points: 6
#     Node 2, Type 0, BuildingBlock: BETFEN_clean_sbu_0, # of connection points: 6
#     Node 3, Type 1, BuildingBlock: KAKCAD_clean_linker_0, # of connection points: 3
#     Node 4, Type 1, BuildingBlock: KAKCAD_clean_linker_0, # of connection points: 3
#     Node 5, Type 1, BuildingBlock: KAKCAD_clean_linker_0, # of connection points: 3
#     Node 6, Type 1, BuildingBlock: KAKCAD_clean_linker_0, # of connection points: 3
#     Node 7, Type 1, BuildingBlock: KAKCAD_clean_linker_0, # of connection points: 3
#     Node 8, Type 1, BuildingBlock: KAKCAD_clean_linker_0, # of connection points: 3
#     Edge 9, Type (0, 1), BuildingBlock: MIFKUJ_clean_linker_0, # of connection points: 2
#     Edge 10, Type (0, 1), BuildingBlock: MIFKUJ_clean_linker_0, # of connection points: 2
#     Edge 11, Type (0, 1), BuildingBlock: MIFKUJ_clean_linker_0, # of connection points: 2
#     Edge 12, Type (0, 1), BuildingBlock: MIFKUJ_clean_linker_0, # of connection points: 2
#     Edge 13, Type (0, 1), BuildingBlock: MIFKUJ_clean_linker_0, # of connection points: 2
#     Edge 14, Type (0, 1), BuildingBlock: MIFKUJ_clean_linker_0, # of connection points: 2
#     Edge 15, Type (0, 1), BuildingBlock: MIFKUJ_clean_linker_0, # of connection points: 2
#     Edge 16, Type (0, 1), BuildingBlock: MIFKUJ_clean_linker_0, # of connection points: 2
#     Edge 17, Type (0, 1), BuildingBlock: MIFKUJ_clean_linker_0, # of connection points: 2
#     Edge 18, Type (0, 1), BuildingBlock: MIFKUJ_clean_linker_0, # of connection points: 2
#     Edge 19, Type (0, 1), BuildingBlock: MIFKUJ_clean_linker_0, # of connection points: 2
#     Edge 20, Type (0, 1), BuildingBlock: MIFKUJ_clean_linker_0, # of connection points: 2
#     Edge 21, Type (0, 1), BuildingBlock: MIFKUJ_clean_linker_0, # of connection points: 2
#     Edge 22, Type (0, 1), BuildingBlock: MIFKUJ_clean_linker_0, # of connection points: 2
#     Edge 23, Type (0, 1), BuildingBlock: MIFKUJ_clean_linker_0, # of connection points: 2
#     Edge 24, Type (0, 1), BuildingBlock: MIFKUJ_clean_linker_0, # of connection points: 2
#     Edge 25, Type (0, 1), BuildingBlock: MIFKUJ_clean_linker_0, # of connection points: 2
#     Edge 26, Type (0, 1), BuildingBlock: MIFKUJ_clean_linker_0, # of connection points: 2
# Relax obj value: 0.164
# Max RMSD: 0.197
# Mean RMSD: 0.149
data_MOF--net-anh--node1-BETFEN_clean_sbu_0--node2-KAKCAD_clean_linker_0--edge1-MIFKUJ_clean_linker_0
_symmetry_space_group_name_H-M    P1
_symmetry_Int_Tables_number       1
_symmetry_cell_setting            triclinic
loop_
_symmetry_equiv_pos_as_xyz
'x, y, z'
_cell_length_a     44.492958
_cell_length_b     46.347556
_cell_length_c     83.024374
_cell_angle_alpha  90.518114
_cell_angle_beta   92.108847
_cell_angle_gamma 109.32255
loop_
_atom_site_label
_atom_site_type_symbol
_atom_site_fract_x
_atom_site_fract_y
_atom_site_fract_z
_atom_type_partial_charge
Pr0 Pr 0.0332 0.53502 0.15522 0.0
Pr1 Pr 0.05461 0.60128 0.14591 0.0
C2 C 1.00648 0.48082 0.16927 0.0
C3 C 0.97478 0.45773 0.17133 0.0
C4 C 0.96833 0.42793 0.16511 0.0
C5 C 0.93899 0.40539 0.16746 0.0
C6 C 0.91569 0.41212 0.17628 0.0
C7 C 0.92201 0.44202 0.18238 0.0
C8 C 0.95119 0.46468 0.17984 0.0
C9 C 0.03757 0.54304 0.12203 0.0
C10 C 0.97834 0.56843 0.14768 0.0
C11 C 0.08326 0.65785 0.13477 0.0
C12 C 0.11206 0.68421 0.13934 0.0
C13 C 0.11342 0.70189 0.15339 0.0
C14 C 0.14107 0.72606 0.15786 0.0
C15 C 0.16806 0.73314 0.14842 0.0
C16 C 0.16658 0.71571 0.13427 0.0
C17 C 0.13883 0.6916 0.12975 0.0
C18 C 0.05108 0.59212 0.17914 0.0
C19 C 0.10864 0.56583 0.1502 0.0
O20 O 1.01287 0.50718 0.17686 0.0
O21 O 1.01776 0.48323 0.15484 0.0
O22 O 0.02624 0.55814 0.13134 0.0
O23 O 0.04525 0.52189 0.12957 0.0
O24 O 1.00015 0.58945 0.13988 0.0
O25 O 0.98605 0.54772 0.15617 0.0
O26 O 0.08794 0.63346 0.1289 0.0
O27 O 0.05962 0.65133 0.14453 0.0
O28 O 0.06273 0.57814 0.16943 0.0
O29 O 0.04207 0.6127 0.17192 0.0
O30 O 0.08805 0.54499 0.15865 0.0
O31 O 0.10021 0.587 0.14255 0.0
H32 H 0.98616 0.42197 0.15858 0.0
H33 H 0.93487 0.38246 0.16276 0.0
H34 H 0.90436 0.44787 0.18912 0.0
H35 H 0.95534 0.48751 0.18467 0.0
H36 H 0.09326 0.69689 0.16108 0.0
H37 H 0.14154 0.73881 0.16892 0.0
H38 H 0.18682 0.72084 0.12664 0.0
H39 H 0.1384 0.67856 0.1188 0.0
Pr40 Pr 0.57109 0.06189 0.51569 0.0
Pr41 Pr 0.50005 0.04046 0.52022 0.0
C42 C 0.63049 0.08831 0.50521 0.0
C43 C 0.6529 0.11832 0.50091 0.0
C44 C 0.65308 0.1455 0.5086 0.0
C45 C 0.67556 0.17355 0.50472 0.0
C46 C 0.69821 0.17492 0.49307 0.0
C47 C 0.69728 0.14764 0.48515 0.0
C48 C 0.67488 0.11967 0.48904 0.0
C49 C 0.55381 0.05225 0.54752 0.0
C50 C 0.53438 0.11518 0.52014 0.0
C51 C 0.44017 1.01084 0.52898 0.0
C52 C 0.41627 0.9802 0.52567 0.0
C53 C 0.38763 0.97782 0.51721 0.0
C54 C 0.36567 0.94919 0.51288 0.0
C55 C 0.37166 0.92224 0.51709 0.0
C56 C 0.39984 0.92451 0.52603 0.0
C57 C 0.42207 0.95323 0.53019 0.0
C58 C 0.51659 0.04907 0.48819 0.0
C59 C 0.5374 0.98697 0.5178 0.0
O60 O 0.60552 0.07641 0.49547 0.0
O61 O 0.62423 0.08385 0.52044 0.0
O62 O 0.54185 0.0657 0.53732 0.0
O63 O 0.57636 0.04383 0.54161 0.0
O64 O 0.5097 0.09303 0.52551 0.0
O65 O 0.55874 0.10853 0.51421 0.0
O66 O 0.46544 1.01236 0.53802 0.0
O67 O 0.44666 1.02929 0.51679 0.0
O68 O 0.52919 0.03623 0.49847 0.0
O69 O 0.49373 0.05681 0.49416 0.0
O70 O 0.5638 1.009 0.51411 0.0
O71 O 0.51137 0.99347 0.52114 0.0
H72 H 0.63614 0.145 0.51772 0.0
H73 H 0.67568 0.19403 0.51114 0.0
H74 H 0.71387 0.14787 0.47588 0.0
H75 H 0.6749 0.09899 0.48286 0.0
H76 H 0.38249 0.9982 0.51366 0.0
H77 H 0.34396 0.94813 0.50617 0.0
H78 H 0.40514 0.90412 0.52939 0.0
H79 H 0.44396 0.95422 0.53669 0.0
Pr80 Pr 0.52937 0.54402 0.8144 0.0
Pr81 Pr 0.55863 0.61398 0.82914 0.0
C82 C 0.51382 0.49405 0.79537 0.0
C83 C 0.5202 0.46502 0.79747 0.0
C84 C 0.49481 0.43833 0.80046 0.0
C85 C 0.50076 0.41224 0.80585 0.0
C86 C 0.53219 0.41226 0.80811 0.0
C87 C 0.55754 0.43821 0.80408 0.0
C88 C 0.55163 0.46447 0.79888 0.0
C89 C 0.53545 0.54457 0.84818 0.0
C90 C 0.60798 0.57563 0.82384 0.0
C91 C 0.56868 0.66465 0.84729 0.0
C92 C 0.54507 0.67645 0.85431 0.0
C93 C 0.51603 0.67189 0.84582 0.0
C94 C 0.49184 0.67971 0.8528 0.0
C95 C 0.49627 0.69296 0.86836 0.0
C96 C 0.52561 0.69813 0.87684 0.0
C97 C 0.54977 0.68952 0.86992 0.0
C98 C 0.55975 0.60597 0.79592 0.0
C99 C 0.47886 0.58051 0.8223 0.0
O100 O 0.53844 0.51847 0.79282 0.0
O101 O 0.49409 0.49898 0.80556 0.0
O102 O 0.54238 0.5666 0.83885 0.0
O103 O 0.52506 0.5192 0.83974 0.0
O104 O 0.6031 0.59821 0.83204 0.0
O105 O 0.58515 0.55533 0.81495 0.0
O106 O 0.56976 0.639 0.85333 0.0
O107 O 0.56954 0.66505 0.83151 0.0
O108 O 0.53727 0.59194 0.80472 0.0
O109 O 0.58248 0.62662 0.80415 0.0
O110 O 0.48285 0.55686 0.81475 0.0
O111 O 0.50287 0.60307 0.8291 0.0
H112 H 0.4704 0.43815 0.79941 0.0
H113 H 0.48079 0.39224 0.80858 0.0
H114 H 0.58198 0.43868 0.80568 0.0
H115 H 0.57177 0.48469 0.79669 0.0
H116 H 0.51194 0.66209 0.83374 0.0
H117 H 0.46983 0.67603 0.84581 0.0
H118 H 0.52972 0.70859 0.8888 0.0
H119 H 0.57195 0.69288 0.87673 0.0
C120 C 0.5529 0.08677 0.3088 0.0
C121 C 0.54994 0.05936 0.31672 0.0
C122 C 0.55231 0.08766 0.29198 0.0
C123 C 0.54867 0.06114 0.28267 0.0
C124 C 0.54592 0.03374 0.29058 0.0
C125 C 0.54665 0.03288 0.30743 0.0
C126 C 0.54754 0.06219 0.26477 0.0
C127 C 0.56866 0.08692 0.25689 0.0
C128 C 0.56723 0.08885 0.24002 0.0
C129 C 0.54429 0.06553 0.23094 0.0
C130 C 0.52293 0.04053 0.23862 0.0
C131 C 0.52489 0.03898 0.25552 0.0
C132 C 0.49774 1.0165 0.22914 0.0
C133 C 0.47892 1.02453 0.21719 0.0
C134 C 0.49143 0.98541 0.23246 0.0
C135 C 0.46654 0.96287 0.22418 0.0
C136 C 0.44721 0.97093 0.21252 0.0
C137 C 0.58998 0.11534 0.23208 0.0
C138 C 0.59647 0.14508 0.23844 0.0
C139 C 0.60659 0.11103 0.21869 0.0
C140 C 0.63021 0.13581 0.21226 0.0
C141 C 0.63758 0.1654 0.21905 0.0
C142 C 0.61991 0.1698 0.23198 0.0
C143 C 0.45382 1.002 0.20903 0.0
H144 H 0.55574 0.10761 0.31561 0.0
H145 H 0.55419 0.10906 0.28626 0.0
H146 H 0.54335 1.01299 0.28374 0.0
H147 H 0.54403 1.01135 0.31318 0.0
H148 H 0.58672 0.10451 0.26393 0.0
H149 H 0.50793 1.02023 0.26153 0.0
H150 H 0.54293 0.06693 0.21793 0.0
H151 H 0.48306 0.04831 0.21446 0.0
H152 H 0.50567 0.97853 0.24153 0.0
H153 H 0.46189 0.93915 0.22723 0.0
H154 H 0.58363 0.14919 0.24856 0.0
H155 H 0.60222 0.08834 0.2136 0.0
H156 H 0.43948 1.00888 0.20001 0.0
H157 H 0.62444 0.19237 0.23727 0.0
H158 H 0.64353 0.13156 0.20238 0.0
C159 C 0.52216 0.56641 0.61513 0.0
C160 C 0.54598 0.55848 0.62376 0.0
C161 C 0.52031 0.56504 0.59826 0.0
C162 C 0.54202 0.5554 0.58963 0.0
C163 C 0.56563 0.54716 0.59826 0.0
C164 C 0.5677 0.54885 0.61513 0.0
C165 C 0.54019 0.55415 0.57168 0.0
C166 C 0.53655 0.57866 0.56299 0.0
C167 C 0.53528 0.57842 0.54604 0.0
C168 C 0.53721 0.55199 0.53763 0.0
C169 C 0.5406 0.52663 0.54636 0.0
C170 C 0.54228 0.52853 0.5633 0.0
C171 C 0.54269 0.49749 0.53882 0.0
C172 C 0.51592 0.47543 0.53124 0.0
C173 C 0.56948 0.48856 0.54254 0.0
C174 C 0.56921 0.45852 0.53941 0.0
C175 C 0.54195 0.4358 0.53258 0.0
C176 C 0.53216 0.60669 0.53814 0.0
C177 C 0.50592 0.61615 0.54146 0.0
C178 C 0.55797 0.62782 0.53063 0.0
C179 C 0.55794 0.6577 0.5271 0.0
C180 C 0.53205 0.66755 0.53093 0.0
C181 C 0.50576 0.64579 0.53785 0.0
C182 C 0.51558 0.44516 0.52813 0.0
H183 H 0.50526 0.57419 0.62143 0.0
H184 H 0.50172 0.57132 0.59196 0.0
H185 H 0.58283 0.53984 0.59195 0.0
H186 H 0.58619 0.54241 0.62143 0.0
H187 H 0.53549 0.59865 0.56953 0.0
H188 H 0.54459 0.50943 0.57009 0.0
H189 H 0.53613 0.55118 0.52458 0.0
H190 H 0.49452 0.48104 0.52859 0.0
H191 H 0.5904 0.50465 0.54859 0.0
H192 H 0.59041 0.45302 0.54271 0.0
H193 H 0.48595 0.60092 0.54761 0.0
H194 H 0.57896 0.62182 0.52826 0.0
H195 H 0.49394 0.42871 0.52295 0.0
H196 H 0.48545 0.65205 0.54126 0.0
H197 H 0.57859 0.67329 0.52161 0.0
C198 C 0.06204 0.58497 0.94151 0.0
C199 C 0.03733 0.56241 0.94889 0.0
C200 C 0.06337 0.58594 0.92471 0.0
C201 C 0.03992 0.56447 0.91491 0.0
C202 C 1.01519 0.54195 0.92229 0.0
C203 C 1.01395 0.5409 0.93908 0.0
C204 C 0.04097 0.56578 0.89705 0.0
C205 C 0.06981 0.571 0.88935 0.0
C206 C 0.07099 0.57236 0.87245 0.0
C207 C 0.04271 0.56874 0.86319 0.0
C208 C 1.01362 0.56348 0.87076 0.0
C209 C 1.01302 0.5619 0.88763 0.0
C210 C 0.98363 0.56062 0.86144 0.0
C211 C 0.98162 0.58422 0.85141 0.0
C212 C 0.95585 0.53586 0.86401 0.0
C213 C 0.92641 0.53525 0.85721 0.0
C214 C 0.92403 0.55963 0.8479 0.0
C215 C 0.10184 0.57682 0.86472 0.0
C216 C 0.12997 0.59891 0.87096 0.0
C217 C 0.10386 0.55766 0.85188 0.0
C218 C 0.13353 0.55976 0.84585 0.0
C219 C 0.16176 0.58133 0.8524 0.0
C220 C 0.15953 0.60121 0.86484 0.0
C221 C 0.95204 0.58385 0.84481 0.0
H222 H 0.0806 0.60168 0.94874 0.0
H223 H 0.08256 0.60374 0.91939 0.0
H224 H 0.9969 0.52494 0.91508 0.0
H225 H 0.99446 0.52339 0.94438 0.0
H226 H 0.09132 0.57316 0.89654 0.0
H227 H 0.99077 0.55857 0.89349 0.0
H228 H 0.0433 0.57003 0.85018 0.0
H229 H 1.00265 0.60367 0.84936 0.0
H230 H 0.95678 0.51741 0.87171 0.0
H231 H 0.90527 0.51639 0.8599 0.0
H232 H 0.12917 0.61414 0.88078 0.0
H233 H 0.08264 0.54029 0.84689 0.0
H234 H 0.95093 0.60285 0.83759 0.0
H235 H 0.18078 0.61791 0.87026 0.0
H236 H 0.13441 0.5443 0.83616 0.0
C237 C 1.0108 0.5484 0.3592 0.0
C238 C 0.03864 0.55224 0.35077 0.0
C239 C 1.01138 0.54711 0.37603 0.0
C240 C 0.03989 0.54999 0.38481 0.0
C241 C 0.06773 0.55385 0.37637 0.0
C242 C 0.06708 0.55482 0.35954 0.0
C243 C 0.04064 0.54901 0.40271 0.0
C244 C 1.01688 0.52658 0.41064 0.0
C245 C 1.01751 0.52523 0.42755 0.0
C246 C 0.04243 0.54684 0.43659 0.0
C247 C 0.06637 0.56976 0.42885 0.0
C248 C 0.06515 0.57052 0.41189 0.0
C249 C 0.0923 0.59349 0.43829 0.0
C250 C 0.08589 0.60685 0.45248 0.0
C251 C 0.12345 0.60412 0.43267 0.0
C252 C 0.14717 0.62827 0.4406 0.0
C253 C 0.14049 0.64226 0.45447 0.0
C254 C 0.99219 0.50082 0.43559 0.0
C255 C 0.96009 0.4934 0.43029 0.0
C256 C 0.99996 0.4838 0.44802 0.0
C257 C 0.97628 0.45932 0.45465 0.0
C258 C 0.94425 0.45148 0.44908 0.0
C259 C 0.93643 0.46909 0.43697 0.0
C260 C 0.10975 0.6309 0.46051 0.0
H261 H 0.98849 0.54616 0.35276 0.0
H262 H 0.98959 0.54431 0.38221 0.0
H263 H 0.09 0.55589 0.3828 0.0
H264 H 0.08898 0.55808 0.35339 0.0
H265 H 0.99827 0.50957 0.40357 0.0
H266 H 0.08285 0.58846 0.40577 0.0
H267 H 0.0431 0.54585 0.44962 0.0
H268 H 0.06214 0.59951 0.45708 0.0
H269 H 0.12952 0.59396 0.422 0.0
H270 H 0.17076 0.63614 0.43581 0.0
H271 H 0.95328 0.50625 0.42083 0.0
H272 H 0.02449 0.48883 0.4523 0.0
H273 H 0.1038 0.64137 0.4711 0.0
H274 H 0.91208 0.46355 0.43229 0.0
H275 H 0.98306 0.44641 0.46408 0.0
C276 C 0.42705 0.97659 0.71627 0.0
C277 C 0.45481 0.99533 0.70929 0.0
C278 C 0.42446 0.9769 0.73305 0.0
C279 C 0.44973 0.99578 0.74303 0.0
C280 C 0.47796 1.01345 0.73588 0.0
C281 C 0.48031 1.01345 0.7192 0.0
C282 C 0.44668 0.99818 0.76076 0.0
C283 C 0.43166 0.97226 0.76985 0.0
C284 C 0.43097 0.97484 0.7867 0.0
C285 C 0.44465 1.00349 0.79442 0.0
C286 C 0.45941 1.0296 0.78557 0.0
C287 C 0.46008 1.02674 0.76876 0.0
C288 C 0.47493 0.0597 0.79388 0.0
C289 C 0.47306 0.0866 0.7869 0.0
C290 C 0.49221 0.0619 0.80867 0.0
C291 C 0.50739 0.09037 0.81623 0.0
C292 C 0.50599 0.11713 0.80899 0.0
C293 C 0.41839 0.94755 0.79665 0.0
C294 C 0.38685 0.92777 0.79447 0.0
C295 C 0.43806 0.94202 0.80894 0.0
C296 C 0.42647 0.91731 0.81901 0.0
C297 C 0.39465 0.89773 0.81726 0.0
C298 C 0.37498 0.90312 0.80477 0.0
C299 C 0.48857 0.11499 0.79433 0.0
H300 H 0.40714 0.96246 0.70873 0.0
H301 H 0.40238 0.96311 0.73814 0.0
H302 H 0.49827 1.02756 0.74318 0.0
H303 H 0.50204 1.02781 0.71399 0.0
H304 H 0.42191 0.94993 0.76399 0.0
H305 H 0.47159 0.04683 0.76187 0.0
H306 H 0.4437 1.00535 0.8074 0.0
H307 H 0.45939 0.08575 0.77574 0.0
H308 H 0.49451 0.04168 0.81428 0.0
H309 H 0.52067 0.09154 0.82756 0.0
H310 H 0.37125 0.93179 0.78507 0.0
H311 H 0.46262 0.95678 0.81069 0.0
H312 H 0.48657 0.13533 0.78871 0.0
H313 H 0.35037 0.88857 0.80306 0.0
H314 H 0.44278 0.91338 0.82805 0.0
C315 C 0.53699 0.53244 0.03068 0.0
C316 C 0.53522 0.55743 0.02161 0.0
C317 C 0.53756 0.53364 0.04752 0.0
C318 C 0.53564 0.55954 0.05569 0.0
C319 C 0.53327 0.5843 0.04677 0.0
C320 C 0.5334 0.58341 0.02993 0.0
C321 C 0.53662 0.56092 0.07353 0.0
C322 C 0.5622 0.55664 0.08235 0.0
C323 C 0.56393 0.55869 0.09927 0.0
C324 C 0.53901 0.56413 0.10742 0.0
C325 C 0.5128 0.56786 0.09868 0.0
C326 C 0.51216 0.56669 0.08173 0.0
C327 C 0.48532 0.57193 0.10696 0.0
C328 C 0.47025 0.55199 0.1191 0.0
C329 C 0.47215 0.59407 0.1017 0.0
C330 C 0.44379 0.59534 0.10786 0.0
C331 C 0.42761 0.57431 0.11935 0.0
C332 C 0.59267 0.55637 0.10808 0.0
C333 C 0.60384 0.53205 0.10462 0.0
C334 C 0.61101 0.58006 0.11862 0.0
C335 C 0.64072 0.58018 0.12491 0.0
C336 C 0.65238 0.55634 0.121 0.0
C337 C 0.63325 0.53191 0.11111 0.0
C338 C 0.44165 0.55309 0.12519 0.0
H339 H 0.53766 0.51172 0.02482 0.0
H340 H 0.53912 0.51416 0.05419 0.0
H341 H 0.53205 0.60464 0.05285 0.0
H342 H 0.53266 0.60339 0.02349 0.0
H343 H 0.58142 0.55278 0.07597 0.0
H344 H 0.49206 0.56929 0.07485 0.0
H345 H 0.54005 0.56548 0.12048 0.0
H346 H 0.47971 0.53454 0.1233 0.0
H347 H 0.48348 0.61005 0.09253 0.0
H348 H 0.43422 0.61253 0.10337 0.0
H349 H 0.59016 0.51352 0.09652 0.0
H350 H 0.60307 0.5992 0.12137 0.0
H351 H 0.42983 0.53638 0.13394 0.0
H352 H 0.64166 0.51334 0.1078 0.0
H353 H 0.65487 0.5992 0.13259 0.0
H354 H 0.14947 0.58958 0.12636 0.0
H355 H 0.20356 0.58822 0.12367 0.0
H356 H 0.19715 0.54065 0.16845 0.0
H357 H 0.1424 0.54112 0.17103 0.0
H358 H 0.25745 0.59566 0.16309 0.0
H359 H 0.19141 0.49893 0.14074 0.0
H360 H 0.14853 0.46358 0.12345 0.0
H361 H 0.1942 0.50744 0.08126 0.0
H362 H 0.23673 0.54365 0.09831 0.0
H363 H 0.40228 0.56327 0.14945 0.0
H364 H 0.34848 0.55975 0.15702 0.0
H365 H 0.32654 0.58038 0.10833 0.0
H366 H 0.37944 0.5826 0.10055 0.0
H367 H 0.27946 0.53453 0.11849 0.0
H368 H 0.34258 0.63379 0.14029 0.0
H369 H 0.38566 0.67023 0.15705 0.0
H370 H 0.34651 0.62283 0.19966 0.0
H371 H 0.3034 0.58586 0.18312 0.0
C372 C 0.15954 0.57888 0.13567 0.0
C373 C 0.14164 0.5654 0.1489 0.0
C374 C 0.19044 0.57811 0.1341 0.0
C375 C 0.20432 0.56435 0.14586 0.0
C376 C 0.18684 0.55141 0.15927 0.0
C377 C 0.15556 0.55157 0.16068 0.0
C378 C 0.23684 0.56306 0.14376 0.0
C379 C 0.2623 0.58189 0.15354 0.0
C380 C 0.24312 0.54555 0.13111 0.0
C381 C 0.21707 0.52427 0.12083 0.0
C382 C 0.19201 0.50138 0.12779 0.0
C383 C 0.16777 0.48113 0.11802 0.0
C384 C 0.1685 0.48332 0.10127 0.0
C385 C 0.19346 0.50583 0.09424 0.0
C386 C 0.21764 0.52626 0.10395 0.0
C387 C 0.38596 0.56692 0.14034 0.0
C388 C 0.39541 0.57341 0.12439 0.0
C389 C 0.35527 0.5652 0.14473 0.0
C390 C 0.33344 0.57008 0.13329 0.0
C391 C 0.34288 0.57658 0.1174 0.0
C392 C 0.37339 0.57819 0.11301 0.0
C393 C 0.30045 0.56771 0.13756 0.0
C394 C 0.27477 0.54812 0.12817 0.0
C395 C 0.29407 0.5847 0.1505 0.0
C396 C 0.32 0.60685 0.16045 0.0
C397 C 0.34332 0.63098 0.15322 0.0
C398 C 0.36771 0.65176 0.16268 0.0
C399 C 0.36889 0.64879 0.1794 0.0
C400 C 0.34561 0.62507 0.1867 0.0
C401 C 0.32119 0.60421 0.17729 0.0
H402 H 0.38778 0.66491 0.18671 0.0
H403 H 0.14982 0.46745 0.09374 0.0
H404 H 0.76121 0.18513 0.4876 0.0
H405 H 0.80202 0.2332 0.48129 0.0
H406 H 0.73328 0.28011 0.48448 0.0
H407 H 0.69189 0.23174 0.49024 0.0
H408 H 0.76861 0.29792 0.45864 0.0
H409 H 0.79007 0.28686 0.51476 0.0
H410 H 0.80051 0.26051 0.53891 0.0
H411 H 0.88539 0.25387 0.51858 0.0
H412 H 0.87522 0.27981 0.49419 0.0
H413 H 0.88354 0.44668 0.45707 0.0
H414 H 0.8415 0.40121 0.46581 0.0
H415 H 0.90603 0.34945 0.46392 0.0
H416 H 0.94821 0.39487 0.45527 0.0
H417 H 0.87169 0.33549 0.49005 0.0
H418 H 0.84903 0.34421 0.43353 0.0
H419 H 0.83869 0.37024 0.40922 0.0
H420 H 0.75611 0.38089 0.43022 0.0
H421 H 0.76622 0.35529 0.45476 0.0
C422 C 0.75461 0.20557 0.48682 0.0
C423 C 0.72317 0.20447 0.48942 0.0
C424 C 0.77813 0.23317 0.48339 0.0
C425 C 0.77089 0.26042 0.48262 0.0
C426 C 0.73949 0.25942 0.48509 0.0
C427 C 0.7159 0.23178 0.48851 0.0
C428 C 0.796 0.28978 0.47896 0.0
C429 C 0.79093 0.30639 0.46568 0.0
C430 C 0.82546 0.30055 0.48791 0.0
C431 C 0.83172 0.28505 0.50259 0.0
C432 C 0.81083 0.27958 0.51538 0.0
C433 C 0.81673 0.26475 0.52913 0.0
C434 C 0.84356 0.25546 0.53026 0.0
C435 C 0.8646 0.26105 0.51767 0.0
C436 C 0.8588 0.27585 0.5039 0.0
C437 C 0.88877 0.4256 0.4585 0.0
C438 C 0.91921 0.42439 0.45538 0.0
C439 C 0.86469 0.3996 0.46349 0.0
C440 C 0.87039 0.37172 0.46529 0.0
C441 C 0.90101 0.37067 0.46262 0.0
C442 C 0.92515 0.3967 0.45771 0.0
C443 C 0.84438 0.34351 0.46967 0.0
C444 C 0.84929 0.3271 0.48307 0.0
C445 C 0.81479 0.33288 0.46082 0.0
C446 C 0.80857 0.34812 0.44604 0.0
C447 C 0.8288 0.35231 0.43301 0.0
C448 C 0.82296 0.36695 0.41919 0.0
C449 C 0.79681 0.37729 0.4182 0.0
C450 C 0.77639 0.37292 0.43102 0.0
C451 C 0.78215 0.35832 0.44488 0.0
H452 H 0.79233 0.38862 0.40748 0.0
H453 H 0.84808 0.24398 0.54091 0.0
H454 H 0.43226 0.66231 0.86812 0.0
H455 H 0.39136 0.68662 0.86769 0.0
H456 H 0.4621 0.77281 0.88174 0.0
H457 H 0.50343 0.74887 0.8818 0.0
H458 H 0.393 0.7635 0.89044 0.0
H459 H 0.4621 0.75872 0.84464 0.0
H460 H 0.48294 0.72884 0.82599 0.0
H461 H 0.38738 0.67224 0.81237 0.0
H462 H 0.36607 0.70189 0.83096 0.0
H463 H 0.4098 0.89503 0.84935 0.0
H464 H 0.40334 0.84941 0.86465 0.0
H465 H 0.34395 0.79431 0.8258 0.0
H466 H 0.35329 0.83989 0.80967 0.0
H467 H 0.38628 0.77316 0.83106 0.0
H468 H 0.31921 0.79459 0.86759 0.0
H469 H 0.29672 0.82393 0.88563 0.0
H470 H 0.38059 0.84612 0.91692 0.0
H471 H 0.40388 0.81736 0.89896 0.0
C472 C 0.43888 0.68616 0.87182 0.0
C473 C 0.47112 0.70397 0.87452 0.0
C474 C 0.41536 0.69992 0.87172 0.0
C475 C 0.42378 0.73153 0.87444 0.0
C476 C 0.45515 0.74833 0.87964 0.0
C477 C 0.4788 0.73462 0.87964 0.0
C478 C 0.40346 0.7482 0.86748 0.0
C479 C 0.39108 0.76564 0.87748 0.0
C480 C 0.39977 0.74972 0.85057 0.0
C481 C 0.41256 0.7321 0.83935 0.0
C482 C 0.44559 0.73978 0.83773 0.0
C483 C 0.45747 0.723 0.82712 0.0
C484 C 0.4365 0.69857 0.81804 0.0
C485 C 0.4036 0.69109 0.81944 0.0
C486 C 0.39161 0.70786 0.83001 0.0
C487 C 0.39518 0.87325 0.84405 0.0
C488 C 0.38316 0.87109 0.82801 0.0
C489 C 0.39075 0.84704 0.85304 0.0
C490 C 0.37314 0.81808 0.84646 0.0
C491 C 0.35791 0.8163 0.83115 0.0
C492 C 0.36312 0.8425 0.82193 0.0
C493 C 0.37669 0.79022 0.85396 0.0
C494 C 0.38633 0.77049 0.84403 0.0
C495 C 0.37709 0.78633 0.8709 0.0
C496 C 0.36332 0.80375 0.88186 0.0
C497 C 0.33297 0.80586 0.87826 0.0
C498 C 0.32006 0.82239 0.88849 0.0
C499 C 0.33721 0.83688 0.90241 0.0
C500 C 0.3673 0.83484 0.90614 0.0
C501 C 0.38034 0.81834 0.89596 0.0
H502 H 0.32717 0.84968 0.91032 0.0
H503 H 0.44575 0.68546 0.80992 0.0
H504 H 0.92595 0.52408 0.15871 0.0
H505 H 0.87018 0.52153 0.15609 0.0
H506 H 0.89814 0.6071 0.13128 0.0
H507 H 0.95401 0.6099 0.13384 0.0
H508 H 0.85387 0.60408 0.15464 0.0
H509 H 0.86692 0.5408 0.11029 0.0
H510 H 0.88124 0.49833 0.09848 0.0
H511 H 0.81208 0.4342 0.12682 0.0
H512 H 0.79763 0.47636 0.13895 0.0
H513 H 0.70739 0.60465 0.11907 0.0
H514 H 0.76184 0.60606 0.12556 0.0
H515 H 0.72612 0.51285 0.14142 0.0
H516 H 0.67158 0.5111 0.13435 0.0
H517 H 0.77394 0.51796 0.12451 0.0
H518 H 0.75806 0.5773 0.16825 0.0
H519 H 0.74323 0.61775 0.18194 0.0
H520 H 0.8163 0.6865 0.15792 0.0
H521 H 0.83131 0.64644 0.14391 0.0
C522 C 0.92031 0.54243 0.15272 0.0
C523 C 0.94452 0.56716 0.14642 0.0
C524 C 0.88836 0.54086 0.15119 0.0
C525 C 0.87993 0.56399 0.14337 0.0
C526 C 0.90408 0.58898 0.13735 0.0
C527 C 0.93601 0.59048 0.13877 0.0
C528 C 0.84594 0.56205 0.14127 0.0
C529 C 0.83641 0.58544 0.1479 0.0
C530 C 0.82291 0.53712 0.13303 0.0
C531 C 0.83142 0.51177 0.12563 0.0
C532 C 0.85493 0.51767 0.11409 0.0
C533 C 0.86304 0.49365 0.10732 0.0
C534 C 0.84764 0.4636 0.11193 0.0
C535 C 0.82402 0.45749 0.12328 0.0
C536 C 0.81584 0.48144 0.13008 0.0
C537 C 0.71113 0.58462 0.12417 0.0
C538 C 0.68519 0.55782 0.12628 0.0
C539 C 0.74232 0.58544 0.12793 0.0
C540 C 0.74829 0.55971 0.13425 0.0
C541 C 0.72229 0.53303 0.13657 0.0
C542 C 0.6911 0.53205 0.13256 0.0
C543 C 0.78167 0.56025 0.13773 0.0
C544 C 0.79118 0.53657 0.13135 0.0
C545 C 0.80453 0.58463 0.14651 0.0
C546 C 0.79562 0.60883 0.15491 0.0
C547 C 0.77082 0.60103 0.16579 0.0
C548 C 0.7624 0.6239 0.17363 0.0
C549 C 0.77876 0.65467 0.17077 0.0
C550 C 0.80363 0.66265 0.16011 0.0
C551 C 0.81212 0.63987 0.15223 0.0
H552 H 0.77221 0.67234 0.17686 0.0
H553 H 0.85396 0.44503 0.10668 0.0
H554 H 0.34727 0.87072 0.53488 0.0
H555 H 0.30815 0.82167 0.52586 0.0
H556 H 0.30669 0.8564 0.47787 0.0
H557 H 0.34482 0.90556 0.48698 0.0
H558 H 0.24921 0.82835 0.48528 0.0
H559 H 0.34614 0.80383 0.48949 0.0
H560 H 0.39467 0.79966 0.50314 0.0
H561 H 0.33764 0.73923 0.53758 0.0
H562 H 0.28878 0.74346 0.5243 0.0
H563 H 0.17956 0.69194 0.43946 0.0
H564 H 0.21896 0.73763 0.45178 0.0
H565 H 0.19652 0.70044 0.49897 0.0
H566 H 0.1569 0.65441 0.48667 0.0
H567 H 0.26392 0.72802 0.49398 0.0
H568 H 0.16687 0.75188 0.48838 0.0
H569 H 0.11918 0.75582 0.47375 0.0
H570 H 0.17852 0.81764 0.44058 0.0
H571 H 0.22658 0.81371 0.45487 0.0
C572 C 0.33867 0.86774 0.5224 0.0
C573 C 0.34894 0.89199 0.51165 0.0
C574 C 0.31639 0.83967 0.51722 0.0
C575 C 0.30456 0.83511 0.50111 0.0
C576 C 0.31522 0.85929 0.49037 0.0
C577 C 0.33704 0.88741 0.49558 0.0
C578 C 0.28046 0.8056 0.4954 0.0
C579 C 0.25273 0.80651 0.48705 0.0
C580 C 0.28443 0.77686 0.49804 0.0
C581 C 0.3138 0.7742 0.50599 0.0
C582 C 0.34395 0.78984 0.50004 0.0
C583 C 0.37152 0.78744 0.5077 0.0
C584 C 0.36923 0.76921 0.52122 0.0
C585 C 0.33937 0.75335 0.52711 0.0
C586 C 0.31173 0.75574 0.51952 0.0
C587 C 0.18322 0.6933 0.45245 0.0
C588 C 0.1651 0.66954 0.46209 0.0
C589 C 0.20563 0.7195 0.45948 0.0
C590 C 0.21056 0.72249 0.47629 0.0
C591 C 0.19307 0.69857 0.48597 0.0
C592 C 0.17032 0.67242 0.47894 0.0
C593 C 0.2333 0.7511 0.48365 0.0
C594 C 0.26057 0.74996 0.49231 0.0
C595 C 0.22917 0.77973 0.48117 0.0
C596 C 0.20031 0.78228 0.47262 0.0
C597 C 0.16974 0.76612 0.47789 0.0
C598 C 0.14264 0.76838 0.46967 0.0
C599 C 0.14581 0.78691 0.45622 0.0
C600 C 0.1761 0.80327 0.45099 0.0
C601 C 0.20328 0.80106 0.45915 0.0
H602 H 0.1248 0.78863 0.44988 0.0
H603 H 0.39057 0.76732 0.52712 0.0
H604 H 0.50762 0.38244 0.8352 0.0
H605 H 0.51466 0.33594 0.84587 0.0
H606 H 0.577 0.3352 0.80732 0.0
H607 H 0.57073 0.38213 0.79698 0.0
H608 H 0.49513 0.28376 0.83204 0.0
H609 H 0.62678 0.2977 0.81569 0.0
H610 H 0.67945 0.33799 0.81752 0.0
H611 H 0.64777 0.38427 0.85492 0.0
H612 H 0.59508 0.34401 0.85354 0.0
H613 H 0.54662 0.16723 0.79542 0.0
H614 H 0.56319 0.21981 0.80588 0.0
H615 H 0.51713 0.18815 0.8503 0.0
H616 H 0.50039 0.13526 0.83979 0.0
H617 H 0.59411 0.25664 0.83344 0.0
H618 H 0.47087 0.23336 0.85609 0.0
H619 H 0.41751 0.19384 0.85456 0.0
H620 H 0.43305 0.1696 0.80628 0.0
H621 H 0.48625 0.20924 0.80748 0.0
C622 C 0.52312 0.37246 0.82916 0.0
C623 C 0.53838 0.38554 0.81518 0.0
C624 C 0.52729 0.34606 0.83531 0.0
C625 C 0.5466 0.33218 0.82752 0.0
C626 C 0.56265 0.34586 0.81383 0.0
C627 C 0.55883 0.3725 0.8078 0.0
C628 C 0.54654 0.30135 0.83219 0.0
C629 C 0.51692 0.2781 0.83293 0.0
C630 C 0.57487 0.29378 0.83337 0.0
C631 C 0.60684 0.3178 0.83446 0.0
C632 C 0.63109 0.31631 0.82441 0.0
C633 C 0.66096 0.33919 0.82534 0.0
C634 C 0.66694 0.36369 0.83631 0.0
C635 C 0.64309 0.36532 0.8464 0.0
C636 C 0.6132 0.34248 0.84553 0.0
C637 C 0.54082 0.17146 0.80759 0.0
C638 C 0.5218 0.14745 0.81672 0.0
C639 C 0.55058 0.20142 0.81362 0.0
C640 C 0.54111 0.20782 0.82878 0.0
C641 C 0.52463 0.18358 0.83855 0.0
C642 C 0.51504 0.15347 0.83255 0.0
C643 C 0.54284 0.23955 0.83256 0.0
C644 C 0.57262 0.2628 0.83332 0.0
C645 C 0.51473 0.24734 0.83298 0.0
C646 C 0.48258 0.22392 0.83197 0.0
C647 C 0.4628 0.21962 0.84515 0.0
C648 C 0.43261 0.19723 0.84434 0.0
C649 C 0.42194 0.17915 0.83035 0.0
C650 C 0.44137 0.18355 0.81712 0.0
C651 C 0.47152 0.20597 0.81785 0.0
H652 H 0.3986 0.16178 0.82976 0.0
H653 H 0.69006 0.3814 0.83699 0.0
H654 H 0.48542 0.93406 0.51474 0.0
H655 H 0.48397 0.88094 0.51548 0.0
H656 H 0.58605 0.91144 0.52379 0.0
H657 H 0.58766 0.96468 0.52187 0.0
H658 H 0.5737 0.86461 0.50637 0.0
H659 H 0.5219 0.8789 0.55479 0.0
H660 H 0.48165 0.89319 0.56956 0.0
H661 H 0.40665 0.82526 0.54256 0.0
H662 H 0.44653 0.81076 0.52751 0.0
H663 H 0.58343 0.72172 0.53397 0.0
H664 H 0.58408 0.77438 0.53118 0.0
H665 H 0.48308 0.74173 0.51964 0.0
H666 H 0.48224 0.68901 0.52249 0.0
H667 H 0.49392 0.78895 0.53833 0.0
H668 H 0.54408 0.77318 0.49068 0.0
H669 H 0.58306 0.75931 0.47466 0.0
H670 H 0.65975 0.8299 0.49908 0.0
H671 H 0.62123 0.84394 0.5154 0.0
C672 C 0.50764 0.92954 0.51671 0.0
C673 C 0.53667 0.95407 0.5183 0.0
C674 C 0.50678 0.89882 0.51733 0.0
C675 C 0.53479 0.89128 0.52022 0.0
C676 C 0.56386 0.9159 0.52162 0.0
C677 C 0.56481 0.94664 0.52056 0.0
C678 C 0.534 0.85814 0.52164 0.0
C679 C 0.5565 0.84838 0.51363 0.0
C680 C 0.51109 0.83585 0.5306 0.0
C681 C 0.48717 0.84386 0.53999 0.0
C682 C 0.49682 0.86702 0.55201 0.0
C683 C 0.47407 0.87517 0.56042 0.0
C684 C 0.4416 0.86013 0.557 0.0
C685 C 0.43181 0.83684 0.5452 0.0
C686 C 0.45446 0.82861 0.53676 0.0
C687 C 0.56132 0.7255 0.5306 0.0
C688 C 0.5328 0.70041 0.52844 0.0
C689 C 0.56172 0.75599 0.529 0.0
C690 C 0.5337 0.76277 0.52496 0.0
C691 C 0.5052 0.73775 0.5228 0.0
C692 C 0.50475 0.70727 0.52447 0.0
C693 C 0.53391 0.79563 0.52325 0.0
C694 C 0.51125 0.80527 0.53117 0.0
C695 C 0.55658 0.81777 0.51416 0.0
C696 C 0.57979 0.8094 0.50438 0.0
C697 C 0.56927 0.78559 0.49272 0.0
C698 C 0.59128 0.77773 0.48357 0.0
C699 C 0.62386 0.79366 0.48588 0.0
C700 C 0.6345 0.81755 0.49732 0.0
C701 C 0.6126 0.82548 0.50651 0.0
H702 H 0.64086 0.78754 0.47878 0.0
H703 H 0.42399 0.86647 0.56349 0.0
H704 H 0.62689 0.52956 0.81139 0.0
H705 H 0.68019 0.52509 0.81303 0.0
H706 H 0.71571 0.61075 0.8397 0.0
H707 H 0.66267 0.61556 0.83806 0.0
H708 H 0.75541 0.60679 0.81571 0.0
H709 H 0.69921 0.54263 0.85869 0.0
H710 H 0.6554 0.49999 0.86928 0.0
H711 H 0.67879 0.43661 0.83823 0.0
H712 H 0.72252 0.47893 0.82733 0.0
H713 H 0.90173 0.60742 0.85104 0.0
H714 H 0.84812 0.6083 0.84452 0.0
H715 H 0.82054 0.51537 0.82612 0.0
H716 H 0.87408 0.51413 0.83322 0.0
H717 H 0.77565 0.51987 0.84303 0.0
H718 H 0.83232 0.57956 0.80091 0.0
H719 H 0.87506 0.61998 0.78814 0.0
H720 H 0.84993 0.68877 0.81399 0.0
H721 H 0.80729 0.64875 0.8271 0.0
C722 C 0.64602 0.54751 0.81758 0.0
C723 C 0.64037 0.57291 0.82463 0.0
C724 C 0.67648 0.54484 0.81856 0.0
C725 C 0.70192 0.56747 0.8266 0.0
C726 C 0.69646 0.593 0.83344 0.0
C727 C 0.66603 0.59565 0.83253 0.0
C728 C 0.73428 0.56468 0.82801 0.0
C729 C 0.75994 0.58796 0.82182 0.0
C730 C 0.73997 0.53943 0.83536 0.0
C731 C 0.71393 0.51398 0.84208 0.0
C732 C 0.69488 0.51962 0.85405 0.0
C733 C 0.67009 0.4955 0.86012 0.0
C734 C 0.66427 0.46561 0.85441 0.0
C735 C 0.6833 0.45976 0.84265 0.0
C736 C 0.70811 0.4838 0.83653 0.0
C737 C 0.88438 0.58734 0.84537 0.0
C738 C 0.89219 0.56079 0.84253 0.0
C739 C 0.85368 0.58786 0.8416 0.0
C740 C 0.8302 0.56206 0.83455 0.0
C741 C 0.83811 0.53559 0.83153 0.0
C742 C 0.86873 0.53492 0.83555 0.0
C743 C 0.79716 0.56241 0.83103 0.0
C744 C 0.77128 0.53865 0.83679 0.0
C745 C 0.79116 0.58691 0.82296 0.0
C746 C 0.81676 0.61112 0.81509 0.0
C747 C 0.83605 0.6033 0.80397 0.0
C748 C 0.86024 0.62615 0.79665 0.0
C749 C 0.86525 0.65692 0.80028 0.0
C750 C 0.84603 0.66492 0.81121 0.0
C751 C 0.82182 0.64216 0.81857 0.0
H752 H 0.88399 0.67458 0.7946 0.0
H753 H 0.64506 0.44697 0.85911 0.0
H754 H 0.17375 0.78997 0.16049 0.0
H755 H 0.22242 0.83043 0.16992 0.0
H756 H 0.27823 0.77387 0.15719 0.0
H757 H 0.22953 0.73301 0.14805 0.0
H758 H 0.29509 0.79985 0.18717 0.0
H759 H 0.27841 0.83355 0.13414 0.0
H760 H 0.24778 0.84736 0.11194 0.0
H761 H 0.23585 0.91895 0.14152 0.0
H762 H 0.26604 0.90529 0.16399 0.0
H763 H 0.44539 0.91586 0.19952 0.0
H764 H 0.39931 0.87584 0.18717 0.0
H765 H 0.34049 0.93182 0.19526 0.0
H766 H 0.38663 0.97209 0.20732 0.0
H767 H 0.32615 0.90546 0.16666 0.0
H768 H 0.33988 0.871 0.21996 0.0
H769 H 0.36911 0.85715 0.24277 0.0
H770 H 0.38491 0.78707 0.21351 0.0
H771 H 0.35613 0.80078 0.19045 0.0
C772 C 0.19637 0.78611 0.15973 0.0
C773 C 0.19776 0.75826 0.15351 0.0
C774 C 0.2242 0.80935 0.165 0.0
C775 C 0.25401 0.80528 0.16413 0.0
C776 C 0.2555 0.77754 0.15792 0.0
C777 C 0.22768 0.75431 0.15259 0.0
C778 C 0.2835 0.82967 0.17011 0.0
C779 C 0.30219 0.82282 0.18251 0.0
C780 C 0.29228 0.85984 0.16432 0.0
C781 C 0.27426 0.86821 0.1508 0.0
C782 C 0.26905 0.85209 0.13596 0.0
C783 C 0.2518 0.85992 0.12331 0.0
C784 C 0.23981 0.88398 0.12533 0.0
C785 C 0.24512 0.9003 0.13998 0.0
C786 C 0.26233 0.89255 0.15267 0.0
C787 C 0.42261 0.91959 0.19867 0.0
C788 C 0.4196 0.94707 0.20444 0.0
C789 C 0.39627 0.89669 0.19164 0.0
C790 C 0.36624 0.90057 0.19051 0.0
C791 C 0.36337 0.92826 0.19598 0.0
C792 C 0.38977 0.95129 0.20286 0.0
C793 C 0.33773 0.87571 0.18381 0.0
C794 C 0.31918 0.88246 0.17128 0.0
C795 C 0.32892 0.84548 0.18957 0.0
C796 C 0.34615 0.83714 0.20343 0.0
C797 C 0.3498 0.85279 0.21835 0.0
C798 C 0.36625 0.84494 0.23133 0.0
C799 C 0.37893 0.8213 0.22958 0.0
C800 C 0.37512 0.80541 0.21485 0.0
C801 C 0.35872 0.81319 0.20182 0.0
H802 H 0.39166 0.81526 0.23964 0.0
H803 H 0.22646 0.89 0.11553 0.0
H804 H 0.58117 0.16773 0.51057 0.0
H805 H 0.58236 0.22096 0.5124 0.0
H806 H 0.49011 0.19123 0.53325 0.0
H807 H 0.48904 0.13814 0.53168 0.0
H808 H 0.54991 0.25375 0.49995 0.0
H809 H 0.48098 0.2458 0.55843 0.0
H810 H 0.47199 0.2166 0.58353 0.0
H811 H 0.561 0.20042 0.5792 0.0
H812 H 0.57071 0.22985 0.5542 0.0
H813 H 0.51055 0.39159 0.509 0.0
H814 H 0.50882 0.33833 0.50665 0.0
H815 H 0.56954 0.35066 0.54956 0.0
H816 H 0.5704 0.40336 0.55233 0.0
H817 H 0.52754 0.29735 0.55107 0.0
H818 H 0.59585 0.34713 0.50928 0.0
H819 H 0.61131 0.37807 0.48503 0.0
H820 H 0.53416 0.31373 0.45747 0.0
H821 H 0.51799 0.28259 0.48161 0.0
C822 C 0.56108 0.1724 0.51558 0.0
C823 C 0.53506 0.14814 0.52104 0.0
C824 C 0.56173 0.20311 0.51657 0.0
C825 C 0.53653 0.21084 0.52316 0.0
C826 C 0.51032 0.18654 0.52839 0.0
C827 C 0.50964 0.15587 0.5274 0.0
C828 C 0.53772 0.24405 0.52463 0.0
C829 C 0.54484 0.26309 0.51115 0.0
C830 C 0.53181 0.25718 0.53924 0.0
C831 C 0.52638 0.23975 0.55435 0.0
C832 C 0.49868 0.23609 0.56287 0.0
C833 C 0.49345 0.21949 0.57707 0.0
C834 C 0.51585 0.20657 0.58293 0.0
C835 C 0.5436 0.21034 0.57462 0.0
C836 C 0.54896 0.22695 0.56042 0.0
C837 C 0.52344 0.38309 0.51805 0.0
C838 C 0.54088 0.4026 0.53081 0.0
C839 C 0.5227 0.35238 0.51658 0.0
C840 C 0.53942 0.33989 0.52778 0.0
C841 C 0.55643 0.3592 0.54063 0.0
C842 C 0.55721 0.38982 0.54209 0.0
C843 C 0.53912 0.30693 0.5263 0.0
C844 C 0.53229 0.28796 0.53981 0.0
C845 C 0.54588 0.29406 0.51181 0.0
C846 C 0.55551 0.31271 0.49729 0.0
C847 C 0.58204 0.33971 0.49807 0.0
C848 C 0.59095 0.35726 0.48435 0.0
C849 C 0.57367 0.34792 0.46973 0.0
C850 C 0.54749 0.32096 0.46881 0.0
C851 C 0.53845 0.30334 0.4825 0.0
H852 H 0.58062 0.36153 0.45912 0.0
H853 H 0.51175 0.1937 0.59391 0.0
H854 H 0.42282 0.53249 0.82141 0.0
H855 H 0.36911 0.5341 0.82495 0.0
H856 H 0.4068 0.63252 0.82934 0.0
H857 H 0.46045 0.63088 0.82601 0.0
H858 H 0.3658 0.61428 0.85044 0.0
H859 H 0.36315 0.59172 0.79426 0.0
H860 H 0.36961 0.56437 0.76971 0.0
H861 H 0.30031 0.48186 0.78551 0.0
H862 H 0.29373 0.50862 0.81027 0.0
H863 H 0.21309 0.63169 0.84608 0.0
H864 H 0.26644 0.63317 0.83895 0.0
H865 H 0.23609 0.53464 0.83953 0.0
H866 H 0.18256 0.53303 0.84641 0.0
H867 H 0.27349 0.55571 0.81472 0.0
H868 H 0.2814 0.58022 0.87253 0.0
H869 H 0.27499 0.61025 0.89608 0.0
H870 H 0.3342 0.69287 0.87499 0.0
H871 H 0.34063 0.66324 0.85128 0.0
C872 C 0.41962 0.55451 0.82296 0.0
C873 C 0.44602 0.58159 0.82351 0.0
C874 C 0.38881 0.55544 0.82493 0.0
C875 C 0.38358 0.58353 0.82712 0.0
C876 C 0.40999 0.61057 0.8276 0.0
C877 C 0.44079 0.60961 0.82579 0.0
C878 C 0.3508 0.58468 0.82936 0.0
C879 C 0.34579 0.60176 0.84245 0.0
C880 C 0.32435 0.56829 0.81908 0.0
C881 C 0.32816 0.55211 0.80419 0.0
C882 C 0.34945 0.56769 0.79255 0.0
C883 C 0.35311 0.5523 0.77859 0.0
C884 C 0.33544 0.52138 0.77607 0.0
C885 C 0.314 0.5058 0.78749 0.0
C886 C 0.31027 0.52107 0.80148 0.0
C887 C 0.21777 0.61034 0.84467 0.0
C888 C 0.19359 0.58225 0.84691 0.0
C889 C 0.24833 0.61121 0.84062 0.0
C890 C 0.25556 0.58404 0.839 0.0
C891 C 0.23118 0.55593 0.84074 0.0
C892 C 0.20053 0.55503 0.84464 0.0
C893 C 0.28862 0.58482 0.83589 0.0
C894 C 0.29364 0.5682 0.82263 0.0
C895 C 0.31515 0.60197 0.84584 0.0
C896 C 0.31152 0.6196 0.86018 0.0
C897 C 0.29299 0.60479 0.87293 0.0
C898 C 0.28933 0.62173 0.8863 0.0
C899 C 0.30418 0.65345 0.88704 0.0
C900 C 0.32272 0.6683 0.87442 0.0
C901 C 0.32644 0.65145 0.86104 0.0
H902 H 0.30132 0.66652 0.89739 0.0
H903 H 0.33831 0.5095 0.76525 0.0
H904 H 0.87589 0.3702 0.15492 0.0
H905 H 0.82703 0.32839 0.16076 0.0
H906 H 0.83859 0.35693 0.21085 0.0
H907 H 0.88737 0.39873 0.20509 0.0
H908 H 0.82725 0.29396 0.20573 0.0
H909 H 0.78403 0.37189 0.18846 0.0
H910 H 0.77675 0.40989 0.16949 0.0
H911 H 0.73652 0.33907 0.13352 0.0
H912 H 0.74406 0.30068 0.1522 0.0
H913 H 0.68162 0.20996 0.23733 0.0
H914 H 0.72699 0.2517 0.22831 0.0
H915 H 0.70163 0.22091 0.17894 0.0
H916 H 0.65523 0.17942 0.18787 0.0
H917 H 0.72013 0.28314 0.18173 0.0
H918 H 0.7614 0.20507 0.19822 0.0
H919 H 0.77017 0.16617 0.2161 0.0
H920 H 0.81546 0.23561 0.25208 0.0
H921 H 0.80654 0.27491 0.23451 0.0
C922 C 0.86791 0.36755 0.16716 0.0
C923 C 0.88535 0.3877 0.17956 0.0
C924 C 0.83998 0.3438 0.17046 0.0
C925 C 0.8292 0.33967 0.18622 0.0
C926 C 0.84652 0.35979 0.1986 0.0
C927 C 0.87422 0.38374 0.19528 0.0
C928 C 0.80035 0.31384 0.18996 0.0
C929 C 0.80376 0.29177 0.20064 0.0
C930 C 0.76996 0.31047 0.18283 0.0
C931 C 0.76494 0.33345 0.17167 0.0
C932 C 0.77387 0.36444 0.17646 0.0
C933 C 0.76966 0.38606 0.16577 0.0
C934 C 0.75628 0.37692 0.15029 0.0
C935 C 0.74694 0.34613 0.1455 0.0
C936 C 0.75116 0.32442 0.15615 0.0
C937 C 0.6853 0.21226 0.22452 0.0
C938 C 0.6647 0.1913 0.21333 0.0
C939 C 0.71149 0.236 0.2194 0.0
C940 C 0.71796 0.23919 0.20297 0.0
C941 C 0.69714 0.21879 0.19168 0.0
C942 C 0.67081 0.19495 0.19682 0.0
C943 C 0.74693 0.26353 0.19778 0.0
C944 C 0.74362 0.28524 0.18678 0.0
C945 C 0.77756 0.26645 0.20447 0.0
C946 C 0.78304 0.2429 0.21509 0.0
C947 C 0.773 0.21202 0.21 0.0
C948 C 0.77804 0.1899 0.22007 0.0
C949 C 0.79329 0.1984 0.23523 0.0
C950 C 0.80361 0.22906 0.24034 0.0
C951 C 0.7986 0.25127 0.23032 0.0
H952 H 0.79718 0.18124 0.24301 0.0
H953 H 0.75308 0.3937 0.14202 0.0
H954 H 0.03344 0.49847 0.09974 0.0
H955 H 0.03188 0.50222 0.07044 0.0
H956 H 0.04107 0.5977 0.07516 0.0
H957 H 0.04017 0.59321 0.10455 0.0
H958 H 1.002 0.57531 0.05195 0.0
H959 H 0.10571 0.5676 0.06548 0.0
H960 H 0.1441 0.5445 0.07708 0.0
H961 H 0.1001 0.46306 0.0482 0.0
H962 H 0.06122 0.48542 0.03661 0.0
H963 H 0.04809 0.60998 0.97064 0.0
H964 H 0.04721 0.60754 8e-05 0.0
H965 H 1.02256 0.50943 -0.0031 0.0
H966 H 0.02407 0.51175 0.96753 0.0
H967 H 0.07038 0.53469 0.01901 0.0
H968 H 0.96704 0.54183 0.00573 0.0
H969 H 0.92935 0.56473 0.99326 0.0
H970 H 0.97344 0.64748 0.02113 0.0
H971 H 1.01171 0.62521 0.03361 0.0
C972 C 0.03511 0.52023 0.0945 0.0
C973 C 0.03711 0.54561 0.10435 0.0
C974 C 0.03451 0.52247 0.07773 0.0
C975 C 0.03727 0.55049 0.07047 0.0
C976 C 0.03905 0.57584 0.08039 0.0
C977 C 0.03865 0.57333 0.09717 0.0
C978 C 0.03777 0.55324 0.05258 0.0
C979 C 1.01739 0.56686 0.04482 0.0
C980 C 0.05722 0.5416 0.04309 0.0
C981 C 0.08043 0.52812 0.05026 0.0
C982 C 0.10409 0.54468 0.0617 0.0
C983 C 0.12595 0.53173 0.06826 0.0
C984 C 0.12448 0.50234 0.06336 0.0
C985 C 0.10117 0.48581 0.05196 0.0
C986 C 0.07925 0.49861 0.04539 0.0
C987 C 0.04261 0.5879 0.97623 0.0
C988 C 0.03614 0.56104 0.96675 0.0
C989 C 0.04182 0.58652 0.99304 0.0
C990 C 0.03454 0.55827 0.00068 0.0
C991 C 0.02811 0.53146 0.99125 0.0
C992 C 0.02878 0.5328 0.97446 0.0
C993 C 0.03468 0.55662 0.01853 0.0
C994 C 0.05519 0.54327 0.02624 0.0
C995 C 1.01549 0.56857 0.02794 0.0
C996 C 0.99245 0.58196 0.02047 0.0
C997 C 0.96888 0.565 0.0091 0.0
C998 C 0.94737 0.57785 0.00205 0.0
C999 C 0.94906 0.60757 0.00637 0.0
C1000 C 0.9722 0.62448 0.01778 0.0
C1001 C 0.99378 0.61174 0.02485 0.0
H1002 H 0.93238 0.61747 0.0009 0.0
H1003 H 0.14144 0.49235 0.06832 0.0
H1004 H 0.5576 1.02672 0.47254 0.0
H1005 H 0.56648 1.02782 0.44353 0.0
H1006 H 0.50003 0.07684 0.43604 0.0
H1007 H 0.49068 0.0753 0.46487 0.0
H1008 H 0.48802 0.03072 0.41491 0.0
H1009 H 0.58119 0.11199 0.43508 0.0
H1010 H 0.62997 0.13436 0.4523 0.0
H1011 H 0.67156 0.07235 0.43117 0.0
H1012 H 0.62279 0.04919 0.41403 0.0
H1013 H 0.51815 0.08542 0.3366 0.0
H1014 H 0.51618 0.08302 0.36592 0.0
H1015 H 0.57777 1.0281 0.36671 0.0
H1016 H 0.58036 0.03087 0.33726 0.0
H1017 H 0.59397 0.07358 0.39114 0.0
H1018 H 0.50146 0.99338 0.37057 0.0
H1019 H 0.45253 0.97065 0.35354 0.0
H1020 H 0.40977 0.0308 0.37566 0.0
H1021 H 0.45866 0.05421 0.39267 0.0
C1022 C 0.54504 0.03783 0.46468 0.0
C1023 C 0.52336 0.05082 0.4709 0.0
C1024 C 0.55021 0.03856 0.44814 0.0
C1025 C 0.53402 0.05255 0.43762 0.0
C1026 C 0.51269 0.06583 0.44391 0.0
C1027 C 0.50743 0.065 0.46039 0.0
C1028 C 0.53835 0.05266 0.41997 0.0
C1029 C 0.51117 0.04042 0.40973 0.0
C1030 C 0.56868 0.06445 0.41322 0.0
C1031 C 0.59818 0.07863 0.42338 0.0
C1032 C 0.60063 0.10295 0.43419 0.0
C1033 C 0.62829 0.11579 0.44393 0.0
C1034 C 0.65381 0.10474 0.44285 0.0
C1035 C 0.65175 0.08085 0.43201 0.0
C1036 C 0.62411 0.06787 0.42228 0.0
C1037 C 0.5316 0.07312 0.34301 0.0
C1038 C 0.54937 0.05828 0.3346 0.0
C1039 C 0.53028 0.07161 0.35976 0.0
C1040 C 0.54661 0.05516 0.36847 0.0
C1041 C 0.56496 0.04086 0.3602 0.0
C1042 C 0.56618 0.04225 0.34338 0.0
C1043 C 0.54354 0.05226 0.38616 0.0
C1044 C 0.57089 0.06381 0.39637 0.0
C1045 C 0.51336 0.03987 0.39294 0.0
C1046 C 0.48384 1.02572 0.3828 0.0
C1047 C 0.48172 1.00192 0.37172 0.0
C1048 C 0.45397 0.98889 0.36208 0.0
C1049 C 0.42808 0.99932 0.36349 0.0
C1050 C 0.42986 1.02276 0.37457 0.0
C1051 C 0.45757 0.0359 0.38422 0.0
H1052 H 0.40662 0.98919 0.35602 0.0
H1053 H 0.67522 0.11473 0.45037 0.0
H1054 H 0.51067 0.5697 0.7767 0.0
H1055 H 0.51006 0.56022 0.74768 0.0
H1056 H 0.6085 0.61803 0.74667 0.0
H1057 H 0.60878 0.62848 0.77569 0.0
H1058 H 0.5768 0.63007 0.72219 0.0
H1059 H 0.58474 0.53812 0.74435 0.0
H1060 H 0.56946 0.49348 0.76197 0.0
H1061 H 0.47781 0.45911 0.73717 0.0
H1062 H 0.49231 0.50384 0.71957 0.0
H1063 H 0.59974 0.58316 0.64312 0.0
H1064 H 0.60358 0.58889 0.67256 0.0
H1065 H 0.50189 0.5451 0.67439 0.0
H1066 H 0.49789 0.53915 0.64492 0.0
H1067 H 0.53733 0.52497 0.69837 0.0
H1068 H 0.52991 0.61934 0.67733 0.0
H1069 H 0.54597 0.6648 0.66031 0.0
H1070 H 0.63935 0.69428 0.68348 0.0
H1071 H 0.62396 0.64872 0.7005 0.0
C1072 C 0.53219 0.58036 0.77029 0.0
C1073 C 0.55979 0.59982 0.77843 0.0
C1074 C 0.53189 0.57477 0.75371 0.0
C1075 C 0.5594 0.58799 0.74497 0.0
C1076 C 0.587 0.60751 0.75312 0.0
C1077 C 0.58718 0.61341 0.7697 0.0
C1078 C 0.55909 0.58199 0.7273 0.0
C1079 C 0.56869 0.60704 0.71704 0.0
C1080 C 0.54799 0.55196 0.72048 0.0
C1081 C 0.53954 0.52449 0.7307 0.0
C1082 C 0.56127 0.52111 0.74269 0.0
C1083 C 0.55275 0.4958 0.75268 0.0
C1084 C 0.52267 0.47351 0.75071 0.0
C1085 C 0.5011 0.47642 0.73869 0.0
C1086 C 0.50947 0.50174 0.72868 0.0
C1087 C 0.57824 0.57443 0.6498 0.0
C1088 C 0.54848 0.56082 0.64169 0.0
C1089 C 0.58045 0.57784 0.66661 0.0
C1090 C 0.55299 0.56757 0.67565 0.0
C1091 C 0.52337 0.55318 0.66764 0.0
C1092 C 0.52109 0.55003 0.65081 0.0
C1093 C 0.555 0.57305 0.69339 0.0
C1094 C 0.54568 0.54792 0.7036 0.0
C1095 C 0.56667 0.60298 0.70021 0.0
C1096 C 0.57589 0.63046 0.69006 0.0
C1097 C 0.55395 0.63538 0.6787 0.0
C1098 C 0.56291 0.66119 0.66907 0.0
C1099 C 0.59369 0.68237 0.67078 0.0
C1100 C 0.61553 0.67783 0.68216 0.0
C1101 C 0.6067 0.65203 0.6918 0.0
H1102 H 0.60058 0.70234 0.66331 0.0
H1103 H 0.51609 0.45397 0.75849 0.0
H1104 H 0.56034 1.00793 0.56731 0.0
H1105 H 0.53893 0.99574 0.59423 0.0
H1106 H 0.50019 0.06949 0.59145 0.0
H1107 H 0.52054 0.08112 0.56436 0.0
H1108 H 0.54088 0.06503 0.62132 0.0
H1109 H 0.44978 1.01041 0.58692 0.0
H1110 H 0.42185 0.97442 0.56494 0.0
H1111 H 0.44134 0.90114 0.58965 0.0
H1112 H 0.47012 0.93691 0.61162 0.0
H1113 H 0.45361 0.04265 0.69086 0.0
H1114 H 0.46578 0.04981 0.66235 0.0
H1115 H 0.47615 0.96051 0.65994 0.0
H1116 H 0.46275 0.95297 0.68843 0.0
H1117 H 0.44976 0.97188 0.63222 0.0
H1118 H 0.54091 1.02505 0.66632 0.0
H1119 H 0.57066 0.06041 0.68823 0.0
H1120 H 0.55352 0.1354 0.66411 0.0
H1121 H 0.5232 0.10038 0.64217 0.0
C1122 C 0.5473 1.02153 0.57249 0.0
C1123 C 0.54213 0.04551 0.56387 0.0
C1124 C 0.53501 1.01448 0.58777 0.0
C1125 C 0.51798 0.0317 0.5947 0.0
C1126 C 0.51326 0.05596 0.58622 0.0
C1127 C 0.52486 0.06255 0.57081 0.0
C1128 C 0.50554 1.02476 0.61097 0.0
C1129 C 0.52071 0.0449 0.62371 0.0
C1130 C 0.47982 0.99803 0.61402 0.0
C1131 C 0.46255 0.97646 0.60081 0.0
C1132 C 0.44855 0.98672 0.58756 0.0
C1133 C 0.43252 0.96635 0.5751 0.0
C1134 C 0.43004 0.93555 0.57581 0.0
C1135 C 0.44346 0.92505 0.58904 0.0
C1136 C 0.45965 0.94537 0.6015 0.0
C1137 C 0.45782 1.02436 0.68409 0.0
C1138 C 0.45734 0.99732 0.69167 0.0
C1139 C 0.46496 1.02849 0.66788 0.0
C1140 C 0.4726 1.00597 0.65911 0.0
C1141 C 0.47046 0.97822 0.66649 0.0
C1142 C 0.46283 0.97391 0.6827 0.0
C1143 C 0.48491 1.01236 0.64267 0.0
C1144 C 0.46989 0.99206 0.62988 0.0
C1145 C 0.51105 0.03886 0.63957 0.0
C1146 C 0.52952 0.06004 0.65268 0.0
C1147 C 0.54329 0.04905 0.66574 0.0
C1148 C 0.56027 0.06903 0.67816 0.0
C1149 C 0.56391 0.10012 0.67758 0.0
C1150 C 0.55064 0.1113 0.66455 0.0
C1151 C 0.53357 0.0914 0.65212 0.0
H1152 H 0.57708 0.11556 0.6872 0.0
H1153 H 0.41758 0.91981 0.56615 0.0
H1154 H 0.54453 0.5035 0.86927 0.0
H1155 H 0.54562 0.50656 0.89874 0.0
H1156 H 0.52866 0.593 0.89632 0.0
H1157 H 0.52924 0.59055 0.86688 0.0
H1158 H 0.56796 0.59716 0.9196 0.0
H1159 H 0.46848 0.52185 0.90441 0.0
H1160 H 0.4316 0.47537 0.89086 0.0
H1161 H 0.47646 0.42013 0.91707 0.0
H1162 H 0.5139 0.46634 0.93063 0.0
H1163 H 0.50453 0.58377 -0.00027 0.0
H1164 H 0.50622 0.58294 0.97036 0.0
H1165 H 0.5662 0.52666 0.973 0.0
H1166 H 0.56664 0.52894 0.00238 0.0
H1167 H 0.50401 0.50782 0.9502 0.0
H1168 H 0.60436 0.58841 0.96497 0.0
H1169 H 0.63612 0.63674 0.97885 0.0
H1170 H 0.58149 0.6841 0.95336 0.0
H1171 H 0.54905 0.63589 0.93952 0.0
C1172 C 0.54127 0.52321 0.8751 0.0
C1173 C 0.53704 0.5469 0.8659 0.0
C1174 C 0.54162 0.52486 0.89192 0.0
C1175 C 0.53655 0.54972 0.89984 0.0
C1176 C 0.53267 0.57359 0.89057 0.0
C1177 C 0.5331 0.57226 0.87375 0.0
C1178 C 0.53529 0.55083 0.91774 0.0
C1179 C 0.55363 0.57767 0.9262 0.0
C1180 C 0.5167 0.52547 0.92653 0.0
C1181 C 0.4942 0.4976 0.91842 0.0
C1182 C 0.47063 0.49981 0.9072 0.0
C1183 C 0.4496 0.47351 0.89953 0.0
C1184 C 0.45174 0.44482 0.90307 0.0
C1185 C 0.47486 0.44237 0.91433 0.0
C1186 C 0.49597 0.46861 0.92202 0.0
C1187 C 0.51863 0.57165 0.99417 0.0
C1188 C 0.5355 0.55646 0.00361 0.0
C1189 C 0.51927 0.57099 0.97735 0.0
C1190 C 0.5363 0.55473 0.96959 0.0
C1191 C 0.55279 0.5392 0.97882 0.0
C1192 C 0.55274 0.54036 0.99565 0.0
C1193 C 0.53684 0.55384 0.95181 0.0
C1194 C 0.51827 0.52714 0.94345 0.0
C1195 C 0.55447 0.57953 0.94311 0.0
C1196 C 0.57404 0.60849 0.95137 0.0
C1197 C 0.59889 0.60905 0.96246 0.0
C1198 C 0.61707 0.63644 0.97029 0.0
C1199 C 0.61076 0.66345 0.96703 0.0
C1200 C 0.58631 0.66315 0.9559 0.0
C1201 C 0.56804 0.63581 0.94806 0.0
H1202 H 0.62486 0.68464 0.97309 0.0
H1203 H 0.43544 0.42449 0.89712 0.0
H1204 H 0.07043 0.55095 0.19634 0.0
H1205 H 0.06694 0.54233 0.2254 0.0
H1206 H 0.02309 0.61206 0.23029 0.0
H1207 H 0.02694 0.62101 0.20133 0.0
H1208 H 0.06805 0.61896 0.25325 0.0
H1209 H 0.97834 0.53618 0.23239 0.0
H1210 H 0.95019 0.49138 0.21492 0.0
H1211 H 1.00945 0.44286 0.23491 0.0
H1212 H 0.03799 0.48745 0.25254 0.0
H1213 H 1.01103 0.58527 0.33185 0.0
H1214 H 1.01199 0.58992 0.3025 0.0
H1215 H 0.06635 0.52846 0.29996 0.0
H1216 H 0.06533 0.52356 0.32935 0.0
H1217 H 1.01624 0.51653 0.27592 0.0
H1218 H 0.10465 0.60112 0.2976 0.0
H1219 H 0.13031 0.6465 0.31514 0.0
H1220 H 0.07041 0.69245 0.29316 0.0
H1221 H 0.04406 0.64715 0.27564 0.0
C1222 C 0.06004 0.56439 0.20364 0.0
C1223 C 0.049 0.58668 0.19662 0.0
C1224 C 0.05789 0.55935 0.22021 0.0
C1225 C 0.04448 0.57636 0.23002 0.0
C1226 C 0.03354 0.59867 0.22298 0.0
C1227 C 0.0357 0.60374 0.20643 0.0
C1228 C 0.04247 0.57145 0.24766 0.0
C1229 C 0.05635 0.59662 0.25819 0.0
C1230 C 0.02772 0.54221 0.25413 0.0
C1231 C 1.01051 0.51525 0.24366 0.0
C1232 C 0.98551 0.51602 0.23299 0.0
C1233 C 0.96945 0.49066 0.22307 0.0
C1234 C 0.97815 0.46435 0.22372 0.0
C1235 C 1.00278 0.46328 0.23439 0.0
C1236 C 1.01884 0.48856 0.24439 0.0
C1237 C 1.02289 0.57249 0.32502 0.0
C1238 C 0.03821 0.55414 0.33291 0.0
C1239 C 0.02356 0.57529 0.30828 0.0
C1240 C 0.03942 0.55969 0.29908 0.0
C1241 C 0.05401 0.5407 0.30685 0.0
C1242 C 0.05361 0.53812 0.32363 0.0
C1243 C 0.04168 0.56407 0.28143 0.0
C1244 C 0.02793 0.53882 0.27094 0.0
C1245 C 0.05623 0.5933 0.27496 0.0
C1246 C 0.07217 0.62063 0.28542 0.0
C1247 C 0.09677 0.62081 0.2966 0.0
C1248 C 0.11147 0.64653 0.30652 0.0
C1249 C 0.10194 0.67231 0.30529 0.0
C1250 C 0.07774 0.67245 0.29411 0.0
C1251 C 0.06293 0.64676 0.28418 0.0
H1252 H 0.11336 0.69221 0.31298 0.0
H1253 H 0.96573 0.44475 0.216 0.0
loop_
_geom_bond_atom_site_label_1
_geom_bond_atom_site_label_2
_geom_bond_distance
_geom_bond_site_symmetry_2
_ccdc_geom_bond_type
Pr0 C2 2.880 . S
Pr0 O20 2.562 . S
Pr0 O21 2.490 . S
Pr0 O22 2.695 1_655 S
Pr0 O23 2.512 . S
Pr0 O25 2.437 . S
Pr0 O28 2.435 . S
Pr0 O30 2.438 1_655 S
Pr1 C11 2.880 . S
Pr1 O22 2.436 . S
Pr1 O24 2.438 1_455 S
Pr1 O26 2.562 . S
Pr1 O27 2.490 . S
Pr1 O28 2.695 1_455 S
Pr1 O29 2.512 . S
Pr1 O31 2.437 . S
C2 Pr0 2.880 . S
C2 C3 1.491 . S
C2 O20 1.254 . S
C2 O21 1.225 . S
C3 C2 1.491 . S
C3 C4 1.392 . S
C3 C8 1.356 . S
C4 C3 1.392 . S
C4 C5 1.368 . S
C4 H32 0.929 . S
C5 C4 1.368 . S
C5 C6 1.386 . S
C5 H33 0.929 . S
C6 C5 1.386 . S
C6 C7 1.373 . S
C7 C6 1.373 . S
C7 C8 1.409 . S
C7 H34 0.931 . S
C8 C3 1.356 . S
C8 C7 1.409 . S
C8 H35 0.930 . S
C9 O22 1.270 . S
C9 O23 1.248 1_455 S
C10 O24 1.267 . S
C10 O25 1.278 . S
C11 Pr1 2.880 . S
C11 C12 1.491 . S
C11 O26 1.254 . S
C11 O27 1.225 . S
C12 C11 1.491 . S
C12 C13 1.392 . S
C12 C17 1.356 . S
C13 C12 1.392 . S
C13 C14 1.368 . S
C13 H36 0.929 . S
C14 C13 1.368 . S
C14 C15 1.386 . S
C14 H37 0.929 . S
C15 C14 1.386 . S
C15 C16 1.373 . S
C16 C15 1.373 . S
C16 C17 1.409 . S
C16 H38 0.931 . S
C17 C12 1.356 . S
C17 C16 1.409 . S
C17 H39 0.930 . S
C18 O28 1.270 1_455 S
C18 O29 1.248 . S
C19 O30 1.267 . S
C19 O31 1.278 . S
O20 Pr0 2.562 . S
O20 C2 1.254 . S
O21 Pr0 2.490 . S
O21 C2 1.225 . S
O22 Pr0 2.695 1_455 S
O22 Pr1 2.436 . S
O22 C9 1.270 . S
O23 Pr0 2.512 . S
O23 C9 1.248 1_655 S
O24 Pr1 2.438 1_655 S
O24 C10 1.267 . S
O25 Pr0 2.437 . S
O25 C10 1.278 . S
O26 Pr1 2.562 . S
O26 C11 1.254 . S
O27 Pr1 2.490 . S
O27 C11 1.225 . S
O28 Pr0 2.435 . S
O28 Pr1 2.695 1_655 S
O28 C18 1.270 1_655 S
O29 Pr1 2.512 . S
O29 C18 1.248 . S
O30 Pr0 2.438 1_455 S
O30 C19 1.267 . S
O31 Pr1 2.437 . S
O31 C19 1.278 . S
H32 C4 0.929 . S
H33 C5 0.929 . S
H34 C7 0.931 . S
H35 C8 0.930 . S
H36 C13 0.929 . S
H37 C14 0.929 . S
H38 C16 0.931 . S
H39 C17 0.930 . S
Pr40 C42 2.880 . S
Pr40 O60 2.562 . S
Pr40 O61 2.490 . S
Pr40 O62 2.695 . S
Pr40 O63 2.512 . S
Pr40 O65 2.437 . S
Pr40 O68 2.436 . S
Pr40 O70 2.438 1_545 S
Pr41 C51 2.880 1_545 S
Pr41 O62 2.436 . S
Pr41 O64 2.438 . S
Pr41 O66 2.562 1_545 S
Pr41 O67 2.490 1_545 S
Pr41 O68 2.695 . S
Pr41 O69 2.512 . S
Pr41 O71 2.437 1_545 S
C42 Pr40 2.880 . S
C42 C43 1.491 . S
C42 O60 1.254 . S
C42 O61 1.225 . S
C43 C42 1.491 . S
C43 C44 1.392 . S
C43 C48 1.356 . S
C44 C43 1.392 . S
C44 C45 1.368 . S
C44 H72 0.929 . S
C45 C44 1.368 . S
C45 C46 1.386 . S
C45 H73 0.929 . S
C46 C45 1.386 . S
C46 C47 1.373 . S
C47 C46 1.373 . S
C47 C48 1.409 . S
C47 H74 0.931 . S
C48 C43 1.356 . S
C48 C47 1.409 . S
C48 H75 0.930 . S
C49 O62 1.270 . S
C49 O63 1.248 . S
C50 O64 1.267 . S
C50 O65 1.278 . S
C51 Pr41 2.880 1_565 S
C51 C52 1.491 . S
C51 O66 1.254 . S
C51 O67 1.225 . S
C52 C51 1.491 . S
C52 C53 1.392 . S
C52 C57 1.356 . S
C53 C52 1.392 . S
C53 C54 1.368 . S
C53 H76 0.929 . S
C54 C53 1.368 . S
C54 C55 1.386 . S
C54 H77 0.929 . S
C55 C54 1.386 . S
C55 C56 1.373 . S
C56 C55 1.373 . S
C56 C57 1.409 . S
C56 H78 0.931 . S
C57 C52 1.356 . S
C57 C56 1.409 . S
C57 H79 0.930 . S
C58 O68 1.270 . S
C58 O69 1.248 . S
C59 O70 1.267 . S
C59 O71 1.278 . S
O60 Pr40 2.562 . S
O60 C42 1.254 . S
O61 Pr40 2.490 . S
O61 C42 1.225 . S
O62 Pr40 2.695 . S
O62 Pr41 2.436 . S
O62 C49 1.270 . S
O63 Pr40 2.512 . S
O63 C49 1.248 . S
O64 Pr41 2.438 . S
O64 C50 1.267 . S
O65 Pr40 2.437 . S
O65 C50 1.278 . S
O66 Pr41 2.562 1_565 S
O66 C51 1.254 . S
O67 Pr41 2.490 1_565 S
O67 C51 1.225 . S
O68 Pr40 2.436 . S
O68 Pr41 2.695 . S
O68 C58 1.270 . S
O69 Pr41 2.512 . S
O69 C58 1.248 . S
O70 Pr40 2.438 1_565 S
O70 C59 1.267 . S
O71 Pr41 2.437 1_565 S
O71 C59 1.278 . S
H72 C44 0.929 . S
H73 C45 0.929 . S
H74 C47 0.931 . S
H75 C48 0.930 . S
H76 C53 0.929 . S
H77 C54 0.929 . S
H78 C56 0.931 . S
H79 C57 0.930 . S
Pr80 C82 2.880 . S
Pr80 O100 2.562 . S
Pr80 O101 2.490 . S
Pr80 O102 2.695 . S
Pr80 O103 2.512 . S
Pr80 O105 2.437 . S
Pr80 O108 2.436 . S
Pr80 O110 2.438 . S
Pr81 C91 2.880 . S
Pr81 O102 2.436 . S
Pr81 O104 2.438 . S
Pr81 O106 2.562 . S
Pr81 O107 2.490 . S
Pr81 O108 2.695 . S
Pr81 O109 2.512 . S
Pr81 O111 2.437 . S
C82 Pr80 2.880 . S
C82 C83 1.491 . S
C82 O100 1.254 . S
C82 O101 1.225 . S
C83 C82 1.491 . S
C83 C84 1.392 . S
C83 C88 1.356 . S
C84 C83 1.392 . S
C84 C85 1.368 . S
C84 H112 0.929 . S
C85 C84 1.368 . S
C85 C86 1.386 . S
C85 H113 0.929 . S
C86 C85 1.386 . S
C86 C87 1.373 . S
C87 C86 1.373 . S
C87 C88 1.409 . S
C87 H114 0.931 . S
C88 C83 1.356 . S
C88 C87 1.409 . S
C88 H115 0.930 . S
C89 O102 1.270 . S
C89 O103 1.248 . S
C90 O104 1.267 . S
C90 O105 1.278 . S
C91 Pr81 2.880 . S
C91 C92 1.491 . S
C91 O106 1.254 . S
C91 O107 1.225 . S
C92 C91 1.491 . S
C92 C93 1.392 . S
C92 C97 1.356 . S
C93 C92 1.392 . S
C93 C94 1.368 . S
C93 H116 0.929 . S
C94 C93 1.368 . S
C94 C95 1.386 . S
C94 H117 0.929 . S
C95 C94 1.386 . S
C95 C96 1.373 . S
C96 C95 1.373 . S
C96 C97 1.409 . S
C96 H118 0.931 . S
C97 C92 1.356 . S
C97 C96 1.409 . S
C97 H119 0.930 . S
C98 O108 1.270 . S
C98 O109 1.248 . S
C99 O110 1.267 . S
C99 O111 1.278 . S
O100 Pr80 2.562 . S
O100 C82 1.254 . S
O101 Pr80 2.490 . S
O101 C82 1.225 . S
O102 Pr80 2.695 . S
O102 Pr81 2.436 . S
O102 C89 1.270 . S
O103 Pr80 2.512 . S
O103 C89 1.248 . S
O104 Pr81 2.438 . S
O104 C90 1.267 . S
O105 Pr80 2.437 . S
O105 C90 1.278 . S
O106 Pr81 2.562 . S
O106 C91 1.254 . S
O107 Pr81 2.490 . S
O107 C91 1.225 . S
O108 Pr80 2.436 . S
O108 Pr81 2.695 . S
O108 C98 1.270 . S
O109 Pr81 2.512 . S
O109 C98 1.248 . S
O110 Pr80 2.438 . S
O110 C99 1.267 . S
O111 Pr81 2.437 . S
O111 C99 1.278 . S
H112 C84 0.929 . S
H113 C85 0.929 . S
H114 C87 0.931 . S
H115 C88 0.930 . S
H116 C93 0.929 . S
H117 C94 0.929 . S
H118 C96 0.931 . S
H119 C97 0.930 . S
C120 C121 1.386 . S
C120 C122 1.397 . S
C120 H144 0.931 . S
C121 C120 1.386 . S
C121 C125 1.397 . S
C122 C120 1.397 . S
C122 C123 1.384 . S
C122 H145 0.930 . S
C123 C122 1.384 . S
C123 C124 1.377 . S
C123 C126 1.481 . S
C124 C123 1.377 . S
C124 C125 1.389 . S
C124 H146 0.929 1_545 S
C125 C121 1.397 . S
C125 C124 1.389 . S
C125 H147 0.931 1_545 S
C126 C123 1.481 . S
C126 C127 1.387 . S
C126 C131 1.390 . S
C127 C126 1.387 . S
C127 C128 1.401 . S
C127 H148 0.930 . S
C128 C127 1.401 . S
C128 C129 1.376 . S
C128 C137 1.511 . S
C129 C128 1.376 . S
C129 C130 1.392 . S
C129 H150 0.931 . S
C130 C129 1.392 . S
C130 C131 1.361 . S
C130 C132 1.500 1_545 S
C131 C126 1.390 . S
C131 C130 1.361 . S
C131 H149 0.931 1_545 S
C132 C130 1.500 1_565 S
C132 C133 1.371 . S
C132 C134 1.365 . S
C133 C132 1.371 . S
C133 C143 1.386 . S
C133 H151 0.931 1_565 S
C134 C132 1.365 . S
C134 C135 1.409 . S
C134 H152 0.929 . S
C135 C134 1.409 . S
C135 C136 1.380 . S
C135 H153 0.930 . S
C136 C135 1.380 . S
C136 C143 1.357 . S
C137 C128 1.511 . S
C137 C138 1.341 . S
C137 C139 1.371 . S
C138 C137 1.341 . S
C138 C142 1.394 . S
C138 H154 0.930 . S
C139 C137 1.371 . S
C139 C140 1.392 . S
C139 H155 0.931 . S
C140 C139 1.392 . S
C140 C141 1.331 . S
C140 H158 0.932 . S
C141 C140 1.331 . S
C141 C142 1.336 . S
C142 C138 1.394 . S
C142 C141 1.336 . S
C142 H157 0.929 . S
C143 C133 1.386 . S
C143 C136 1.357 . S
C143 H156 0.928 . S
H144 C120 0.931 . S
H145 C122 0.930 . S
H146 C124 0.929 1_565 S
H147 C125 0.931 1_565 S
H148 C127 0.930 . S
H149 C131 0.931 1_565 S
H150 C129 0.931 . S
H151 C133 0.931 1_545 S
H152 C134 0.929 . S
H153 C135 0.930 . S
H154 C138 0.930 . S
H155 C139 0.931 . S
H156 C143 0.928 . S
H157 C142 0.929 . S
H158 C140 0.932 . S
C159 C160 1.386 . S
C159 C161 1.397 . S
C159 H183 0.931 . S
C160 C159 1.386 . S
C160 C164 1.397 . S
C161 C159 1.397 . S
C161 C162 1.384 . S
C161 H184 0.930 . S
C162 C161 1.384 . S
C162 C163 1.377 . S
C162 C165 1.481 . S
C163 C162 1.377 . S
C163 C164 1.389 . S
C163 H185 0.929 . S
C164 C160 1.397 . S
C164 C163 1.389 . S
C164 H186 0.931 . S
C165 C162 1.481 . S
C165 C166 1.387 . S
C165 C170 1.390 . S
C166 C165 1.387 . S
C166 C167 1.401 . S
C166 H187 0.930 . S
C167 C166 1.401 . S
C167 C168 1.376 . S
C167 C176 1.511 . S
C168 C167 1.376 . S
C168 C169 1.392 . S
C168 H189 0.931 . S
C169 C168 1.392 . S
C169 C170 1.361 . S
C169 C171 1.500 . S
C170 C165 1.390 . S
C170 C169 1.361 . S
C170 H188 0.931 . S
C171 C169 1.500 . S
C171 C172 1.371 . S
C171 C173 1.365 . S
C172 C171 1.371 . S
C172 C182 1.386 . S
C172 H190 0.931 . S
C173 C171 1.365 . S
C173 C174 1.409 . S
C173 H191 0.929 . S
C174 C173 1.409 . S
C174 C175 1.380 . S
C174 H192 0.930 . S
C175 C174 1.380 . S
C175 C182 1.357 . S
C176 C167 1.511 . S
C176 C177 1.341 . S
C176 C178 1.371 . S
C177 C176 1.341 . S
C177 C181 1.394 . S
C177 H193 0.930 . S
C178 C176 1.371 . S
C178 C179 1.392 . S
C178 H194 0.931 . S
C179 C178 1.392 . S
C179 C180 1.331 . S
C179 H197 0.932 . S
C180 C179 1.331 . S
C180 C181 1.336 . S
C181 C177 1.394 . S
C181 C180 1.336 . S
C181 H196 0.929 . S
C182 C172 1.386 . S
C182 C175 1.357 . S
C182 H195 0.928 . S
H183 C159 0.931 . S
H184 C161 0.930 . S
H185 C163 0.929 . S
H186 C164 0.931 . S
H187 C166 0.930 . S
H188 C170 0.931 . S
H189 C168 0.931 . S
H190 C172 0.931 . S
H191 C173 0.929 . S
H192 C174 0.930 . S
H193 C177 0.930 . S
H194 C178 0.931 . S
H195 C182 0.928 . S
H196 C181 0.929 . S
H197 C179 0.932 . S
C198 C199 1.386 . S
C198 C200 1.397 . S
C198 H222 0.931 . S
C199 C198 1.386 . S
C199 C203 1.397 1_455 S
C200 C198 1.397 . S
C200 C201 1.384 . S
C200 H223 0.930 . S
C201 C200 1.384 . S
C201 C202 1.377 1_455 S
C201 C204 1.481 . S
C202 C201 1.377 1_655 S
C202 C203 1.389 . S
C202 H224 0.929 . S
C203 C199 1.397 1_655 S
C203 C202 1.389 . S
C203 H225 0.931 . S
C204 C201 1.481 . S
C204 C205 1.387 . S
C204 C209 1.390 1_455 S
C205 C204 1.387 . S
C205 C206 1.401 . S
C205 H226 0.930 . S
C206 C205 1.401 . S
C206 C207 1.376 . S
C206 C215 1.511 . S
C207 C206 1.376 . S
C207 C208 1.392 1_455 S
C207 H228 0.931 . S
C208 C207 1.392 1_655 S
C208 C209 1.361 . S
C208 C210 1.500 . S
C209 C204 1.390 1_655 S
C209 C208 1.361 . S
C209 H227 0.931 . S
C210 C208 1.500 . S
C210 C211 1.371 . S
C210 C212 1.365 . S
C211 C210 1.371 . S
C211 C221 1.386 . S
C211 H229 0.931 . S
C212 C210 1.365 . S
C212 C213 1.409 . S
C212 H230 0.929 . S
C213 C212 1.409 . S
C213 C214 1.380 . S
C213 H231 0.930 . S
C214 C213 1.380 . S
C214 C221 1.357 . S
C215 C206 1.511 . S
C215 C216 1.341 . S
C215 C217 1.371 . S
C216 C215 1.341 . S
C216 C220 1.394 . S
C216 H232 0.930 . S
C217 C215 1.371 . S
C217 C218 1.392 . S
C217 H233 0.931 . S
C218 C217 1.392 . S
C218 C219 1.331 . S
C218 H236 0.932 . S
C219 C218 1.331 . S
C219 C220 1.336 . S
C220 C216 1.394 . S
C220 C219 1.336 . S
C220 H235 0.929 . S
C221 C211 1.386 . S
C221 C214 1.357 . S
C221 H234 0.928 . S
H222 C198 0.931 . S
H223 C200 0.930 . S
H224 C202 0.929 . S
H225 C203 0.931 . S
H226 C205 0.930 . S
H227 C209 0.931 . S
H228 C207 0.931 . S
H229 C211 0.931 . S
H230 C212 0.929 . S
H231 C213 0.930 . S
H232 C216 0.930 . S
H233 C217 0.931 . S
H234 C221 0.928 . S
H235 C220 0.929 . S
H236 C218 0.932 . S
C237 C238 1.386 . S
C237 C239 1.397 . S
C237 H261 0.931 . S
C238 C237 1.386 . S
C238 C242 1.397 1_655 S
C239 C237 1.397 . S
C239 C240 1.384 . S
C239 H262 0.930 . S
C240 C239 1.384 . S
C240 C241 1.377 1_655 S
C240 C243 1.480 . S
C241 C240 1.377 1_455 S
C241 C242 1.389 . S
C241 H263 0.929 . S
C242 C238 1.397 1_455 S
C242 C241 1.389 . S
C242 H264 0.931 . S
C243 C240 1.480 . S
C243 C244 1.399 . S
C243 C248 1.379 1_655 S
C244 C243 1.399 . S
C244 C245 1.401 . S
C244 H265 0.930 . S
C245 C244 1.401 . S
C245 C246 1.376 1_655 S
C245 C254 1.511 . S
C246 C245 1.376 1_455 S
C246 C247 1.392 . S
C246 H267 0.931 . S
C247 C246 1.392 . S
C247 C248 1.361 . S
C247 C249 1.500 . S
C248 C243 1.379 1_455 S
C248 C247 1.361 . S
C248 H266 0.931 . S
C249 C247 1.500 . S
C249 C250 1.371 . S
C249 C251 1.365 . S
C250 C249 1.371 . S
C250 C260 1.386 . S
C250 H268 0.931 . S
C251 C249 1.365 . S
C251 C252 1.409 . S
C251 H269 0.929 . S
C252 C251 1.409 . S
C252 C253 1.380 . S
C252 H270 0.930 . S
C253 C252 1.380 . S
C253 C260 1.357 . S
C254 C245 1.511 . S
C254 C255 1.341 . S
C254 C256 1.371 . S
C255 C254 1.341 . S
C255 C259 1.394 . S
C255 H271 0.930 . S
C256 C254 1.371 . S
C256 C257 1.392 . S
C256 H272 0.931 . S
C257 C256 1.392 . S
C257 C258 1.331 . S
C257 H275 0.932 . S
C258 C257 1.331 . S
C258 C259 1.336 . S
C259 C255 1.394 . S
C259 C258 1.336 . S
C259 H274 0.929 . S
C260 C250 1.386 . S
C260 C253 1.357 . S
C260 H273 0.928 . S
H261 C237 0.931 . S
H262 C239 0.930 . S
H263 C241 0.929 . S
H264 C242 0.931 . S
H265 C244 0.930 . S
H266 C248 0.931 . S
H267 C246 0.931 . S
H268 C250 0.931 . S
H269 C251 0.929 . S
H270 C252 0.930 . S
H271 C255 0.930 . S
H272 C256 0.931 . S
H273 C260 0.928 . S
H274 C259 0.929 . S
H275 C257 0.932 . S
C276 C277 1.386 1_565 S
C276 C278 1.397 . S
C276 H300 0.931 . S
C277 C276 1.386 1_545 S
C277 C281 1.397 . S
C278 C276 1.397 . S
C278 C279 1.384 1_565 S
C278 H301 0.930 . S
C279 C278 1.384 1_545 S
C279 C280 1.377 . S
C279 C282 1.481 . S
C280 C279 1.377 . S
C280 C281 1.389 . S
C280 H302 0.929 . S
C281 C277 1.397 . S
C281 C280 1.389 . S
C281 H303 0.931 . S
C282 C279 1.481 . S
C282 C283 1.387 1_545 S
C282 C287 1.390 . S
C283 C282 1.387 1_565 S
C283 C284 1.401 . S
C283 H304 0.930 . S
C284 C283 1.401 . S
C284 C285 1.376 1_565 S
C284 C293 1.511 . S
C285 C284 1.376 1_545 S
C285 C286 1.392 . S
C285 H306 0.931 . S
C286 C285 1.392 . S
C286 C287 1.361 . S
C286 C288 1.500 . S
C287 C282 1.390 . S
C287 C286 1.361 . S
C287 H305 0.931 . S
C288 C286 1.500 . S
C288 C289 1.371 . S
C288 C290 1.365 . S
C289 C288 1.371 . S
C289 C299 1.386 . S
C289 H307 0.931 . S
C290 C288 1.365 . S
C290 C291 1.409 . S
C290 H308 0.929 . S
C291 C290 1.409 . S
C291 C292 1.380 . S
C291 H309 0.930 . S
C292 C291 1.380 . S
C292 C299 1.357 . S
C293 C284 1.511 . S
C293 C294 1.341 . S
C293 C295 1.371 . S
C294 C293 1.341 . S
C294 C298 1.394 . S
C294 H310 0.930 . S
C295 C293 1.371 . S
C295 C296 1.392 . S
C295 H311 0.931 . S
C296 C295 1.392 . S
C296 C297 1.331 . S
C296 H314 0.932 . S
C297 C296 1.331 . S
C297 C298 1.336 . S
C298 C294 1.394 . S
C298 C297 1.336 . S
C298 H313 0.929 . S
C299 C289 1.386 . S
C299 C292 1.357 . S
C299 H312 0.928 . S
H300 C276 0.931 . S
H301 C278 0.930 . S
H302 C280 0.929 . S
H303 C281 0.931 . S
H304 C283 0.930 . S
H305 C287 0.931 . S
H306 C285 0.931 . S
H307 C289 0.931 . S
H308 C290 0.929 . S
H309 C291 0.930 . S
H310 C294 0.930 . S
H311 C295 0.931 . S
H312 C299 0.928 . S
H313 C298 0.929 . S
H314 C296 0.932 . S
C315 C316 1.386 . S
C315 C317 1.397 . S
C315 H339 0.931 . S
C316 C315 1.386 . S
C316 C320 1.397 . S
C317 C315 1.397 . S
C317 C318 1.384 . S
C317 H340 0.930 . S
C318 C317 1.384 . S
C318 C319 1.377 . S
C318 C321 1.481 . S
C319 C318 1.377 . S
C319 C320 1.389 . S
C319 H341 0.929 . S
C320 C316 1.397 . S
C320 C319 1.389 . S
C320 H342 0.931 . S
C321 C318 1.481 . S
C321 C322 1.387 . S
C321 C326 1.390 . S
C322 C321 1.387 . S
C322 C323 1.401 . S
C322 H343 0.930 . S
C323 C322 1.401 . S
C323 C324 1.376 . S
C323 C332 1.511 . S
C324 C323 1.376 . S
C324 C325 1.392 . S
C324 H345 0.931 . S
C325 C324 1.392 . S
C325 C326 1.361 . S
C325 C327 1.500 . S
C326 C321 1.390 . S
C326 C325 1.361 . S
C326 H344 0.931 . S
C327 C325 1.500 . S
C327 C328 1.371 . S
C327 C329 1.365 . S
C328 C327 1.371 . S
C328 C338 1.386 . S
C328 H346 0.931 . S
C329 C327 1.365 . S
C329 C330 1.409 . S
C329 H347 0.929 . S
C330 C329 1.409 . S
C330 C331 1.380 . S
C330 H348 0.930 . S
C331 C330 1.380 . S
C331 C338 1.357 . S
C332 C323 1.511 . S
C332 C333 1.341 . S
C332 C334 1.371 . S
C333 C332 1.341 . S
C333 C337 1.394 . S
C333 H349 0.930 . S
C334 C332 1.371 . S
C334 C335 1.392 . S
C334 H350 0.931 . S
C335 C334 1.392 . S
C335 C336 1.331 . S
C335 H353 0.932 . S
C336 C335 1.331 . S
C336 C337 1.336 . S
C337 C333 1.394 . S
C337 C336 1.336 . S
C337 H352 0.929 . S
C338 C328 1.386 . S
C338 C331 1.357 . S
C338 H351 0.928 . S
H339 C315 0.931 . S
H340 C317 0.930 . S
H341 C319 0.929 . S
H342 C320 0.931 . S
H343 C322 0.930 . S
H344 C326 0.931 . S
H345 C324 0.931 . S
H346 C328 0.931 . S
H347 C329 0.929 . S
H348 C330 0.930 . S
H349 C333 0.930 . S
H350 C334 0.931 . S
H351 C338 0.928 . S
H352 C337 0.929 . S
H353 C335 0.932 . S
H354 C372 0.951 . S
H355 C374 0.951 . S
H356 C376 0.950 . S
H357 C377 0.950 . S
H358 C379 0.950 . S
H359 C382 0.950 . S
H360 C383 0.950 . S
H361 C385 0.950 . S
H362 C386 0.950 . S
H363 C387 0.951 . S
H364 C389 0.951 . S
H365 C391 0.950 . S
H366 C392 0.950 . S
H367 C394 0.950 . S
H368 C397 0.950 . S
H369 C398 0.950 . S
H370 C400 0.950 . S
H371 C401 0.950 . S
C372 H354 0.951 . S
C372 C373 1.366 . S
C372 C374 1.388 . S
C373 C372 1.366 . S
C373 C377 1.385 . S
C374 H355 0.951 . S
C374 C372 1.388 . S
C374 C375 1.366 . S
C375 C374 1.366 . S
C375 C376 1.414 . S
C375 C378 1.499 . S
C376 H356 0.950 . S
C376 C375 1.414 . S
C376 C377 1.374 . S
C377 H357 0.950 . S
C377 C373 1.385 . S
C377 C376 1.374 . S
C378 C375 1.499 . S
C378 C379 1.373 . S
C378 C380 1.389 . S
C379 H358 0.950 . S
C379 C378 1.373 . S
C379 C395 1.377 . S
C380 C378 1.389 . S
C380 C381 1.524 . S
C380 C394 1.377 . S
C381 C380 1.524 . S
C381 C382 1.397 . S
C381 C386 1.363 . S
C382 H359 0.950 . S
C382 C381 1.397 . S
C382 C383 1.334 . S
C383 H360 0.950 . S
C383 C382 1.334 . S
C383 C384 1.287 . S
C384 C383 1.287 . S
C384 C385 1.524 . S
C384 H403 0.913 . S
C385 H361 0.950 . S
C385 C384 1.524 . S
C385 C386 1.415 . S
C386 H362 0.950 . S
C386 C381 1.363 . S
C386 C385 1.415 . S
C387 H363 0.951 . S
C387 C388 1.366 . S
C387 C389 1.388 . S
C388 C387 1.366 . S
C388 C392 1.385 . S
C389 H364 0.951 . S
C389 C387 1.388 . S
C389 C390 1.366 . S
C390 C389 1.366 . S
C390 C391 1.414 . S
C390 C393 1.499 . S
C391 H365 0.950 . S
C391 C390 1.414 . S
C391 C392 1.374 . S
C392 H366 0.950 . S
C392 C388 1.385 . S
C392 C391 1.374 . S
C393 C390 1.499 . S
C393 C394 1.373 . S
C393 C395 1.389 . S
C394 H367 0.950 . S
C394 C380 1.377 . S
C394 C393 1.373 . S
C395 C379 1.377 . S
C395 C393 1.389 . S
C395 C396 1.524 . S
C396 C395 1.524 . S
C396 C397 1.397 . S
C396 C401 1.363 . S
C397 H368 0.950 . S
C397 C396 1.397 . S
C397 C398 1.334 . S
C398 H369 0.950 . S
C398 C397 1.334 . S
C398 C399 1.287 . S
C399 C398 1.287 . S
C399 C400 1.524 . S
C399 H402 0.999 . S
C400 H370 0.950 . S
C400 C399 1.524 . S
C400 C401 1.415 . S
C401 H371 0.950 . S
C401 C396 1.363 . S
C401 C400 1.415 . S
H402 C399 0.999 . S
H403 C384 0.913 . S
H404 C422 0.951 . S
H405 C424 0.951 . S
H406 C426 0.950 . S
H407 C427 0.950 . S
H408 C429 0.950 . S
H409 C432 0.950 . S
H410 C433 0.950 . S
H411 C435 0.950 . S
H412 C436 0.950 . S
H413 C437 0.951 . S
H414 C439 0.951 . S
H415 C441 0.950 . S
H416 C442 0.950 . S
H417 C444 0.950 . S
H418 C447 0.950 . S
H419 C448 0.950 . S
H420 C450 0.950 . S
H421 C451 0.950 . S
C422 H404 0.951 . S
C422 C423 1.366 . S
C422 C424 1.388 . S
C423 C422 1.366 . S
C423 C427 1.385 . S
C424 H405 0.951 . S
C424 C422 1.388 . S
C424 C425 1.366 . S
C425 C424 1.366 . S
C425 C426 1.414 . S
C425 C428 1.499 . S
C426 H406 0.950 . S
C426 C425 1.414 . S
C426 C427 1.374 . S
C427 H407 0.950 . S
C427 C423 1.385 . S
C427 C426 1.374 . S
C428 C425 1.499 . S
C428 C429 1.373 . S
C428 C430 1.389 . S
C429 H408 0.950 . S
C429 C428 1.373 . S
C429 C445 1.377 . S
C430 C428 1.389 . S
C430 C431 1.524 . S
C430 C444 1.377 . S
C431 C430 1.524 . S
C431 C432 1.397 . S
C431 C436 1.363 . S
C432 H409 0.950 . S
C432 C431 1.397 . S
C432 C433 1.334 . S
C433 H410 0.950 . S
C433 C432 1.334 . S
C433 C434 1.287 . S
C434 C433 1.287 . S
C434 C435 1.524 . S
C434 H453 0.913 . S
C435 H411 0.950 . S
C435 C434 1.524 . S
C435 C436 1.415 . S
C436 H412 0.950 . S
C436 C431 1.363 . S
C436 C435 1.415 . S
C437 H413 0.951 . S
C437 C438 1.366 . S
C437 C439 1.388 . S
C438 C437 1.366 . S
C438 C442 1.385 . S
C439 H414 0.951 . S
C439 C437 1.388 . S
C439 C440 1.366 . S
C440 C439 1.366 . S
C440 C441 1.414 . S
C440 C443 1.499 . S
C441 H415 0.950 . S
C441 C440 1.414 . S
C441 C442 1.374 . S
C442 H416 0.950 . S
C442 C438 1.385 . S
C442 C441 1.374 . S
C443 C440 1.499 . S
C443 C444 1.373 . S
C443 C445 1.389 . S
C444 H417 0.950 . S
C444 C430 1.377 . S
C444 C443 1.373 . S
C445 C429 1.377 . S
C445 C443 1.389 . S
C445 C446 1.524 . S
C446 C445 1.524 . S
C446 C447 1.397 . S
C446 C451 1.363 . S
C447 H418 0.950 . S
C447 C446 1.397 . S
C447 C448 1.334 . S
C448 H419 0.950 . S
C448 C447 1.334 . S
C448 C449 1.287 . S
C449 C448 1.287 . S
C449 C450 1.524 . S
C449 H452 0.999 . S
C450 H420 0.950 . S
C450 C449 1.524 . S
C450 C451 1.415 . S
C451 H421 0.950 . S
C451 C446 1.363 . S
C451 C450 1.415 . S
H452 C449 0.999 . S
H453 C434 0.913 . S
H454 C472 0.951 . S
H455 C474 0.951 . S
H456 C476 0.950 . S
H457 C477 0.950 . S
H458 C479 0.950 . S
H459 C482 0.950 . S
H460 C483 0.950 . S
H461 C485 0.950 . S
H462 C486 0.950 . S
H463 C487 0.951 . S
H464 C489 0.951 . S
H465 C491 0.950 . S
H466 C492 0.950 . S
H467 C494 0.950 . S
H468 C497 0.950 . S
H469 C498 0.950 . S
H470 C500 0.950 . S
H471 C501 0.950 . S
C472 H454 0.951 . S
C472 C473 1.366 . S
C472 C474 1.388 . S
C473 C472 1.366 . S
C473 C477 1.385 . S
C474 H455 0.951 . S
C474 C472 1.388 . S
C474 C475 1.366 . S
C475 C474 1.366 . S
C475 C476 1.414 . S
C475 C478 1.499 . S
C476 H456 0.950 . S
C476 C475 1.414 . S
C476 C477 1.374 . S
C477 H457 0.950 . S
C477 C473 1.385 . S
C477 C476 1.374 . S
C478 C475 1.499 . S
C478 C479 1.373 . S
C478 C480 1.389 . S
C479 H458 0.950 . S
C479 C478 1.373 . S
C479 C495 1.377 . S
C480 C478 1.389 . S
C480 C481 1.524 . S
C480 C494 1.377 . S
C481 C480 1.524 . S
C481 C482 1.397 . S
C481 C486 1.363 . S
C482 H459 0.950 . S
C482 C481 1.397 . S
C482 C483 1.334 . S
C483 H460 0.950 . S
C483 C482 1.334 . S
C483 C484 1.287 . S
C484 C483 1.287 . S
C484 C485 1.524 . S
C484 H503 0.913 . S
C485 H461 0.950 . S
C485 C484 1.524 . S
C485 C486 1.415 . S
C486 H462 0.950 . S
C486 C481 1.363 . S
C486 C485 1.415 . S
C487 H463 0.951 . S
C487 C488 1.366 . S
C487 C489 1.388 . S
C488 C487 1.366 . S
C488 C492 1.385 . S
C489 H464 0.951 . S
C489 C487 1.388 . S
C489 C490 1.366 . S
C490 C489 1.366 . S
C490 C491 1.414 . S
C490 C493 1.499 . S
C491 H465 0.950 . S
C491 C490 1.414 . S
C491 C492 1.374 . S
C492 H466 0.950 . S
C492 C488 1.385 . S
C492 C491 1.374 . S
C493 C490 1.499 . S
C493 C494 1.373 . S
C493 C495 1.389 . S
C494 H467 0.950 . S
C494 C480 1.377 . S
C494 C493 1.373 . S
C495 C479 1.377 . S
C495 C493 1.389 . S
C495 C496 1.524 . S
C496 C495 1.524 . S
C496 C497 1.397 . S
C496 C501 1.363 . S
C497 H468 0.950 . S
C497 C496 1.397 . S
C497 C498 1.334 . S
C498 H469 0.950 . S
C498 C497 1.334 . S
C498 C499 1.287 . S
C499 C498 1.287 . S
C499 C500 1.524 . S
C499 H502 0.999 . S
C500 H470 0.950 . S
C500 C499 1.524 . S
C500 C501 1.415 . S
C501 H471 0.950 . S
C501 C496 1.363 . S
C501 C500 1.415 . S
H502 C499 0.999 . S
H503 C484 0.913 . S
H504 C522 0.951 . S
H505 C524 0.951 . S
H506 C526 0.950 . S
H507 C527 0.950 . S
H508 C529 0.950 . S
H509 C532 0.950 . S
H510 C533 0.950 . S
H511 C535 0.950 . S
H512 C536 0.950 . S
H513 C537 0.951 . S
H514 C539 0.951 . S
H515 C541 0.950 . S
H516 C542 0.950 . S
H517 C544 0.950 . S
H518 C547 0.950 . S
H519 C548 0.950 . S
H520 C550 0.950 . S
H521 C551 0.950 . S
C522 H504 0.951 . S
C522 C523 1.366 . S
C522 C524 1.388 . S
C523 C522 1.366 . S
C523 C527 1.385 . S
C524 H505 0.951 . S
C524 C522 1.388 . S
C524 C525 1.366 . S
C525 C524 1.366 . S
C525 C526 1.414 . S
C525 C528 1.499 . S
C526 H506 0.950 . S
C526 C525 1.414 . S
C526 C527 1.374 . S
C527 H507 0.950 . S
C527 C523 1.385 . S
C527 C526 1.374 . S
C528 C525 1.499 . S
C528 C529 1.373 . S
C528 C530 1.389 . S
C529 H508 0.950 . S
C529 C528 1.373 . S
C529 C545 1.377 . S
C530 C528 1.389 . S
C530 C531 1.524 . S
C530 C544 1.377 . S
C531 C530 1.524 . S
C531 C532 1.397 . S
C531 C536 1.363 . S
C532 H509 0.950 . S
C532 C531 1.397 . S
C532 C533 1.334 . S
C533 H510 0.950 . S
C533 C532 1.334 . S
C533 C534 1.287 . S
C534 C533 1.287 . S
C534 C535 1.524 . S
C534 H553 0.913 . S
C535 H511 0.950 . S
C535 C534 1.524 . S
C535 C536 1.415 . S
C536 H512 0.950 . S
C536 C531 1.363 . S
C536 C535 1.415 . S
C537 H513 0.951 . S
C537 C538 1.366 . S
C537 C539 1.388 . S
C538 C537 1.366 . S
C538 C542 1.385 . S
C539 H514 0.951 . S
C539 C537 1.388 . S
C539 C540 1.366 . S
C540 C539 1.366 . S
C540 C541 1.414 . S
C540 C543 1.499 . S
C541 H515 0.950 . S
C541 C540 1.414 . S
C541 C542 1.374 . S
C542 H516 0.950 . S
C542 C538 1.385 . S
C542 C541 1.374 . S
C543 C540 1.499 . S
C543 C544 1.373 . S
C543 C545 1.389 . S
C544 H517 0.950 . S
C544 C530 1.377 . S
C544 C543 1.373 . S
C545 C529 1.377 . S
C545 C543 1.389 . S
C545 C546 1.524 . S
C546 C545 1.524 . S
C546 C547 1.397 . S
C546 C551 1.363 . S
C547 H518 0.950 . S
C547 C546 1.397 . S
C547 C548 1.334 . S
C548 H519 0.950 . S
C548 C547 1.334 . S
C548 C549 1.287 . S
C549 C548 1.287 . S
C549 C550 1.524 . S
C549 H552 0.999 . S
C550 H520 0.950 . S
C550 C549 1.524 . S
C550 C551 1.415 . S
C551 H521 0.950 . S
C551 C546 1.363 . S
C551 C550 1.415 . S
H552 C549 0.999 . S
H553 C534 0.913 . S
H554 C572 0.951 . S
H555 C574 0.951 . S
H556 C576 0.950 . S
H557 C577 0.950 . S
H558 C579 0.950 . S
H559 C582 0.950 . S
H560 C583 0.950 . S
H561 C585 0.950 . S
H562 C586 0.950 . S
H563 C587 0.951 . S
H564 C589 0.951 . S
H565 C591 0.950 . S
H566 C592 0.950 . S
H567 C594 0.950 . S
H568 C597 0.950 . S
H569 C598 0.950 . S
H570 C600 0.950 . S
H571 C601 0.950 . S
C572 H554 0.951 . S
C572 C573 1.366 . S
C572 C574 1.388 . S
C573 C572 1.366 . S
C573 C577 1.385 . S
C574 H555 0.951 . S
C574 C572 1.388 . S
C574 C575 1.366 . S
C575 C574 1.366 . S
C575 C576 1.414 . S
C575 C578 1.499 . S
C576 H556 0.950 . S
C576 C575 1.414 . S
C576 C577 1.374 . S
C577 H557 0.950 . S
C577 C573 1.385 . S
C577 C576 1.374 . S
C578 C575 1.499 . S
C578 C579 1.373 . S
C578 C580 1.389 . S
C579 H558 0.950 . S
C579 C578 1.373 . S
C579 C595 1.377 . S
C580 C578 1.389 . S
C580 C581 1.524 . S
C580 C594 1.377 . S
C581 C580 1.524 . S
C581 C582 1.397 . S
C581 C586 1.363 . S
C582 H559 0.950 . S
C582 C581 1.397 . S
C582 C583 1.334 . S
C583 H560 0.950 . S
C583 C582 1.334 . S
C583 C584 1.287 . S
C584 C583 1.287 . S
C584 C585 1.524 . S
C584 H603 0.913 . S
C585 H561 0.950 . S
C585 C584 1.524 . S
C585 C586 1.415 . S
C586 H562 0.950 . S
C586 C581 1.363 . S
C586 C585 1.415 . S
C587 H563 0.951 . S
C587 C588 1.366 . S
C587 C589 1.388 . S
C588 C587 1.366 . S
C588 C592 1.385 . S
C589 H564 0.951 . S
C589 C587 1.388 . S
C589 C590 1.366 . S
C590 C589 1.366 . S
C590 C591 1.414 . S
C590 C593 1.499 . S
C591 H565 0.950 . S
C591 C590 1.414 . S
C591 C592 1.374 . S
C592 H566 0.950 . S
C592 C588 1.385 . S
C592 C591 1.374 . S
C593 C590 1.499 . S
C593 C594 1.373 . S
C593 C595 1.389 . S
C594 H567 0.950 . S
C594 C580 1.377 . S
C594 C593 1.373 . S
C595 C579 1.377 . S
C595 C593 1.389 . S
C595 C596 1.524 . S
C596 C595 1.524 . S
C596 C597 1.397 . S
C596 C601 1.363 . S
C597 H568 0.950 . S
C597 C596 1.397 . S
C597 C598 1.334 . S
C598 H569 0.950 . S
C598 C597 1.334 . S
C598 C599 1.287 . S
C599 C598 1.287 . S
C599 C600 1.524 . S
C599 H602 0.999 . S
C600 H570 0.950 . S
C600 C599 1.524 . S
C600 C601 1.415 . S
C601 H571 0.950 . S
C601 C596 1.363 . S
C601 C600 1.415 . S
H602 C599 0.999 . S
H603 C584 0.913 . S
H604 C622 0.951 . S
H605 C624 0.951 . S
H606 C626 0.950 . S
H607 C627 0.950 . S
H608 C629 0.950 . S
H609 C632 0.950 . S
H610 C633 0.950 . S
H611 C635 0.950 . S
H612 C636 0.950 . S
H613 C637 0.951 . S
H614 C639 0.951 . S
H615 C641 0.950 . S
H616 C642 0.950 . S
H617 C644 0.950 . S
H618 C647 0.950 . S
H619 C648 0.950 . S
H620 C650 0.950 . S
H621 C651 0.950 . S
C622 H604 0.951 . S
C622 C623 1.366 . S
C622 C624 1.388 . S
C623 C622 1.366 . S
C623 C627 1.385 . S
C624 H605 0.951 . S
C624 C622 1.388 . S
C624 C625 1.366 . S
C625 C624 1.366 . S
C625 C626 1.414 . S
C625 C628 1.499 . S
C626 H606 0.950 . S
C626 C625 1.414 . S
C626 C627 1.374 . S
C627 H607 0.950 . S
C627 C623 1.385 . S
C627 C626 1.374 . S
C628 C625 1.499 . S
C628 C629 1.373 . S
C628 C630 1.389 . S
C629 H608 0.950 . S
C629 C628 1.373 . S
C629 C645 1.377 . S
C630 C628 1.389 . S
C630 C631 1.524 . S
C630 C644 1.377 . S
C631 C630 1.524 . S
C631 C632 1.397 . S
C631 C636 1.363 . S
C632 H609 0.950 . S
C632 C631 1.397 . S
C632 C633 1.334 . S
C633 H610 0.950 . S
C633 C632 1.334 . S
C633 C634 1.287 . S
C634 C633 1.287 . S
C634 C635 1.524 . S
C634 H653 0.913 . S
C635 H611 0.950 . S
C635 C634 1.524 . S
C635 C636 1.415 . S
C636 H612 0.950 . S
C636 C631 1.363 . S
C636 C635 1.415 . S
C637 H613 0.951 . S
C637 C638 1.366 . S
C637 C639 1.388 . S
C638 C637 1.366 . S
C638 C642 1.385 . S
C639 H614 0.951 . S
C639 C637 1.388 . S
C639 C640 1.366 . S
C640 C639 1.366 . S
C640 C641 1.414 . S
C640 C643 1.499 . S
C641 H615 0.950 . S
C641 C640 1.414 . S
C641 C642 1.374 . S
C642 H616 0.950 . S
C642 C638 1.385 . S
C642 C641 1.374 . S
C643 C640 1.499 . S
C643 C644 1.373 . S
C643 C645 1.389 . S
C644 H617 0.950 . S
C644 C630 1.377 . S
C644 C643 1.373 . S
C645 C629 1.377 . S
C645 C643 1.389 . S
C645 C646 1.524 . S
C646 C645 1.524 . S
C646 C647 1.397 . S
C646 C651 1.363 . S
C647 H618 0.950 . S
C647 C646 1.397 . S
C647 C648 1.334 . S
C648 H619 0.950 . S
C648 C647 1.334 . S
C648 C649 1.287 . S
C649 C648 1.287 . S
C649 C650 1.524 . S
C649 H652 0.999 . S
C650 H620 0.950 . S
C650 C649 1.524 . S
C650 C651 1.415 . S
C651 H621 0.950 . S
C651 C646 1.363 . S
C651 C650 1.415 . S
H652 C649 0.999 . S
H653 C634 0.913 . S
H654 C672 0.951 . S
H655 C674 0.951 . S
H656 C676 0.950 . S
H657 C677 0.950 . S
H658 C679 0.950 . S
H659 C682 0.950 . S
H660 C683 0.950 . S
H661 C685 0.950 . S
H662 C686 0.950 . S
H663 C687 0.951 . S
H664 C689 0.951 . S
H665 C691 0.950 . S
H666 C692 0.950 . S
H667 C694 0.950 . S
H668 C697 0.950 . S
H669 C698 0.950 . S
H670 C700 0.950 . S
H671 C701 0.950 . S
C672 H654 0.951 . S
C672 C673 1.366 . S
C672 C674 1.388 . S
C673 C672 1.366 . S
C673 C677 1.385 . S
C674 H655 0.951 . S
C674 C672 1.388 . S
C674 C675 1.366 . S
C675 C674 1.366 . S
C675 C676 1.414 . S
C675 C678 1.499 . S
C676 H656 0.950 . S
C676 C675 1.414 . S
C676 C677 1.374 . S
C677 H657 0.950 . S
C677 C673 1.385 . S
C677 C676 1.374 . S
C678 C675 1.499 . S
C678 C679 1.373 . S
C678 C680 1.389 . S
C679 H658 0.950 . S
C679 C678 1.373 . S
C679 C695 1.377 . S
C680 C678 1.389 . S
C680 C681 1.524 . S
C680 C694 1.377 . S
C681 C680 1.524 . S
C681 C682 1.397 . S
C681 C686 1.363 . S
C682 H659 0.950 . S
C682 C681 1.397 . S
C682 C683 1.334 . S
C683 H660 0.950 . S
C683 C682 1.334 . S
C683 C684 1.287 . S
C684 C683 1.287 . S
C684 C685 1.524 . S
C684 H703 0.913 . S
C685 H661 0.950 . S
C685 C684 1.524 . S
C685 C686 1.415 . S
C686 H662 0.950 . S
C686 C681 1.363 . S
C686 C685 1.415 . S
C687 H663 0.951 . S
C687 C688 1.366 . S
C687 C689 1.388 . S
C688 C687 1.366 . S
C688 C692 1.385 . S
C689 H664 0.951 . S
C689 C687 1.388 . S
C689 C690 1.366 . S
C690 C689 1.366 . S
C690 C691 1.414 . S
C690 C693 1.499 . S
C691 H665 0.950 . S
C691 C690 1.414 . S
C691 C692 1.374 . S
C692 H666 0.950 . S
C692 C688 1.385 . S
C692 C691 1.374 . S
C693 C690 1.499 . S
C693 C694 1.373 . S
C693 C695 1.389 . S
C694 H667 0.950 . S
C694 C680 1.377 . S
C694 C693 1.373 . S
C695 C679 1.377 . S
C695 C693 1.389 . S
C695 C696 1.524 . S
C696 C695 1.524 . S
C696 C697 1.397 . S
C696 C701 1.363 . S
C697 H668 0.950 . S
C697 C696 1.397 . S
C697 C698 1.334 . S
C698 H669 0.950 . S
C698 C697 1.334 . S
C698 C699 1.287 . S
C699 C698 1.287 . S
C699 C700 1.524 . S
C699 H702 0.999 . S
C700 H670 0.950 . S
C700 C699 1.524 . S
C700 C701 1.415 . S
C701 H671 0.950 . S
C701 C696 1.363 . S
C701 C700 1.415 . S
H702 C699 0.999 . S
H703 C684 0.913 . S
H704 C722 0.951 . S
H705 C724 0.951 . S
H706 C726 0.950 . S
H707 C727 0.950 . S
H708 C729 0.950 . S
H709 C732 0.950 . S
H710 C733 0.950 . S
H711 C735 0.950 . S
H712 C736 0.950 . S
H713 C737 0.951 . S
H714 C739 0.951 . S
H715 C741 0.950 . S
H716 C742 0.950 . S
H717 C744 0.950 . S
H718 C747 0.950 . S
H719 C748 0.950 . S
H720 C750 0.950 . S
H721 C751 0.950 . S
C722 H704 0.951 . S
C722 C723 1.366 . S
C722 C724 1.388 . S
C723 C722 1.366 . S
C723 C727 1.385 . S
C724 H705 0.951 . S
C724 C722 1.388 . S
C724 C725 1.366 . S
C725 C724 1.366 . S
C725 C726 1.414 . S
C725 C728 1.499 . S
C726 H706 0.950 . S
C726 C725 1.414 . S
C726 C727 1.374 . S
C727 H707 0.950 . S
C727 C723 1.385 . S
C727 C726 1.374 . S
C728 C725 1.499 . S
C728 C729 1.373 . S
C728 C730 1.389 . S
C729 H708 0.950 . S
C729 C728 1.373 . S
C729 C745 1.377 . S
C730 C728 1.389 . S
C730 C731 1.524 . S
C730 C744 1.377 . S
C731 C730 1.524 . S
C731 C732 1.397 . S
C731 C736 1.363 . S
C732 H709 0.950 . S
C732 C731 1.397 . S
C732 C733 1.334 . S
C733 H710 0.950 . S
C733 C732 1.334 . S
C733 C734 1.287 . S
C734 C733 1.287 . S
C734 C735 1.524 . S
C734 H753 0.913 . S
C735 H711 0.950 . S
C735 C734 1.524 . S
C735 C736 1.415 . S
C736 H712 0.950 . S
C736 C731 1.363 . S
C736 C735 1.415 . S
C737 H713 0.951 . S
C737 C738 1.366 . S
C737 C739 1.388 . S
C738 C737 1.366 . S
C738 C742 1.385 . S
C739 H714 0.951 . S
C739 C737 1.388 . S
C739 C740 1.366 . S
C740 C739 1.366 . S
C740 C741 1.414 . S
C740 C743 1.499 . S
C741 H715 0.950 . S
C741 C740 1.414 . S
C741 C742 1.374 . S
C742 H716 0.950 . S
C742 C738 1.385 . S
C742 C741 1.374 . S
C743 C740 1.499 . S
C743 C744 1.373 . S
C743 C745 1.389 . S
C744 H717 0.950 . S
C744 C730 1.377 . S
C744 C743 1.373 . S
C745 C729 1.377 . S
C745 C743 1.389 . S
C745 C746 1.524 . S
C746 C745 1.524 . S
C746 C747 1.397 . S
C746 C751 1.363 . S
C747 H718 0.950 . S
C747 C746 1.397 . S
C747 C748 1.334 . S
C748 H719 0.950 . S
C748 C747 1.334 . S
C748 C749 1.287 . S
C749 C748 1.287 . S
C749 C750 1.524 . S
C749 H752 0.999 . S
C750 H720 0.950 . S
C750 C749 1.524 . S
C750 C751 1.415 . S
C751 H721 0.950 . S
C751 C746 1.363 . S
C751 C750 1.415 . S
H752 C749 0.999 . S
H753 C734 0.913 . S
H754 C772 0.951 . S
H755 C774 0.951 . S
H756 C776 0.950 . S
H757 C777 0.950 . S
H758 C779 0.950 . S
H759 C782 0.950 . S
H760 C783 0.950 . S
H761 C785 0.950 . S
H762 C786 0.950 . S
H763 C787 0.951 . S
H764 C789 0.951 . S
H765 C791 0.950 . S
H766 C792 0.950 . S
H767 C794 0.950 . S
H768 C797 0.950 . S
H769 C798 0.950 . S
H770 C800 0.950 . S
H771 C801 0.950 . S
C772 H754 0.951 . S
C772 C773 1.366 . S
C772 C774 1.388 . S
C773 C772 1.366 . S
C773 C777 1.385 . S
C774 H755 0.951 . S
C774 C772 1.388 . S
C774 C775 1.366 . S
C775 C774 1.366 . S
C775 C776 1.414 . S
C775 C778 1.499 . S
C776 H756 0.950 . S
C776 C775 1.414 . S
C776 C777 1.374 . S
C777 H757 0.950 . S
C777 C773 1.385 . S
C777 C776 1.374 . S
C778 C775 1.499 . S
C778 C779 1.373 . S
C778 C780 1.389 . S
C779 H758 0.950 . S
C779 C778 1.373 . S
C779 C795 1.377 . S
C780 C778 1.389 . S
C780 C781 1.524 . S
C780 C794 1.377 . S
C781 C780 1.524 . S
C781 C782 1.397 . S
C781 C786 1.363 . S
C782 H759 0.950 . S
C782 C781 1.397 . S
C782 C783 1.334 . S
C783 H760 0.950 . S
C783 C782 1.334 . S
C783 C784 1.287 . S
C784 C783 1.287 . S
C784 C785 1.524 . S
C784 H803 0.913 . S
C785 H761 0.950 . S
C785 C784 1.524 . S
C785 C786 1.415 . S
C786 H762 0.950 . S
C786 C781 1.363 . S
C786 C785 1.415 . S
C787 H763 0.951 . S
C787 C788 1.366 . S
C787 C789 1.388 . S
C788 C787 1.366 . S
C788 C792 1.385 . S
C789 H764 0.951 . S
C789 C787 1.388 . S
C789 C790 1.366 . S
C790 C789 1.366 . S
C790 C791 1.414 . S
C790 C793 1.499 . S
C791 H765 0.950 . S
C791 C790 1.414 . S
C791 C792 1.374 . S
C792 H766 0.950 . S
C792 C788 1.385 . S
C792 C791 1.374 . S
C793 C790 1.499 . S
C793 C794 1.373 . S
C793 C795 1.389 . S
C794 H767 0.950 . S
C794 C780 1.377 . S
C794 C793 1.373 . S
C795 C779 1.377 . S
C795 C793 1.389 . S
C795 C796 1.524 . S
C796 C795 1.524 . S
C796 C797 1.397 . S
C796 C801 1.363 . S
C797 H768 0.950 . S
C797 C796 1.397 . S
C797 C798 1.334 . S
C798 H769 0.950 . S
C798 C797 1.334 . S
C798 C799 1.287 . S
C799 C798 1.287 . S
C799 C800 1.524 . S
C799 H802 0.999 . S
C800 H770 0.950 . S
C800 C799 1.524 . S
C800 C801 1.415 . S
C801 H771 0.950 . S
C801 C796 1.363 . S
C801 C800 1.415 . S
H802 C799 0.999 . S
H803 C784 0.913 . S
H804 C822 0.951 . S
H805 C824 0.951 . S
H806 C826 0.950 . S
H807 C827 0.950 . S
H808 C829 0.950 . S
H809 C832 0.950 . S
H810 C833 0.950 . S
H811 C835 0.950 . S
H812 C836 0.950 . S
H813 C837 0.951 . S
H814 C839 0.951 . S
H815 C841 0.950 . S
H816 C842 0.950 . S
H817 C844 0.950 . S
H818 C847 0.950 . S
H819 C848 0.950 . S
H820 C850 0.950 . S
H821 C851 0.950 . S
C822 H804 0.951 . S
C822 C823 1.366 . S
C822 C824 1.388 . S
C823 C822 1.366 . S
C823 C827 1.385 . S
C824 H805 0.951 . S
C824 C822 1.388 . S
C824 C825 1.366 . S
C825 C824 1.366 . S
C825 C826 1.414 . S
C825 C828 1.499 . S
C826 H806 0.950 . S
C826 C825 1.414 . S
C826 C827 1.374 . S
C827 H807 0.950 . S
C827 C823 1.385 . S
C827 C826 1.374 . S
C828 C825 1.499 . S
C828 C829 1.373 . S
C828 C830 1.389 . S
C829 H808 0.950 . S
C829 C828 1.373 . S
C829 C845 1.377 . S
C830 C828 1.389 . S
C830 C831 1.524 . S
C830 C844 1.377 . S
C831 C830 1.524 . S
C831 C832 1.397 . S
C831 C836 1.363 . S
C832 H809 0.950 . S
C832 C831 1.397 . S
C832 C833 1.334 . S
C833 H810 0.950 . S
C833 C832 1.334 . S
C833 C834 1.287 . S
C834 C833 1.287 . S
C834 C835 1.524 . S
C834 H853 0.913 . S
C835 H811 0.950 . S
C835 C834 1.524 . S
C835 C836 1.415 . S
C836 H812 0.950 . S
C836 C831 1.363 . S
C836 C835 1.415 . S
C837 H813 0.951 . S
C837 C838 1.366 . S
C837 C839 1.388 . S
C838 C837 1.366 . S
C838 C842 1.385 . S
C839 H814 0.951 . S
C839 C837 1.388 . S
C839 C840 1.366 . S
C840 C839 1.366 . S
C840 C841 1.414 . S
C840 C843 1.499 . S
C841 H815 0.950 . S
C841 C840 1.414 . S
C841 C842 1.374 . S
C842 H816 0.950 . S
C842 C838 1.385 . S
C842 C841 1.374 . S
C843 C840 1.499 . S
C843 C844 1.373 . S
C843 C845 1.389 . S
C844 H817 0.950 . S
C844 C830 1.377 . S
C844 C843 1.373 . S
C845 C829 1.377 . S
C845 C843 1.389 . S
C845 C846 1.524 . S
C846 C845 1.524 . S
C846 C847 1.397 . S
C846 C851 1.363 . S
C847 H818 0.950 . S
C847 C846 1.397 . S
C847 C848 1.334 . S
C848 H819 0.950 . S
C848 C847 1.334 . S
C848 C849 1.287 . S
C849 C848 1.287 . S
C849 C850 1.524 . S
C849 H852 0.999 . S
C850 H820 0.950 . S
C850 C849 1.524 . S
C850 C851 1.415 . S
C851 H821 0.950 . S
C851 C846 1.363 . S
C851 C850 1.415 . S
H852 C849 0.999 . S
H853 C834 0.913 . S
H854 C872 0.951 . S
H855 C874 0.951 . S
H856 C876 0.950 . S
H857 C877 0.950 . S
H858 C879 0.950 . S
H859 C882 0.950 . S
H860 C883 0.950 . S
H861 C885 0.950 . S
H862 C886 0.950 . S
H863 C887 0.951 . S
H864 C889 0.951 . S
H865 C891 0.950 . S
H866 C892 0.950 . S
H867 C894 0.950 . S
H868 C897 0.950 . S
H869 C898 0.950 . S
H870 C900 0.950 . S
H871 C901 0.950 . S
C872 H854 0.951 . S
C872 C873 1.366 . S
C872 C874 1.388 . S
C873 C872 1.366 . S
C873 C877 1.385 . S
C874 H855 0.951 . S
C874 C872 1.388 . S
C874 C875 1.366 . S
C875 C874 1.366 . S
C875 C876 1.414 . S
C875 C878 1.499 . S
C876 H856 0.950 . S
C876 C875 1.414 . S
C876 C877 1.374 . S
C877 H857 0.950 . S
C877 C873 1.385 . S
C877 C876 1.374 . S
C878 C875 1.499 . S
C878 C879 1.373 . S
C878 C880 1.389 . S
C879 H858 0.950 . S
C879 C878 1.373 . S
C879 C895 1.377 . S
C880 C878 1.389 . S
C880 C881 1.524 . S
C880 C894 1.377 . S
C881 C880 1.524 . S
C881 C882 1.397 . S
C881 C886 1.363 . S
C882 H859 0.950 . S
C882 C881 1.397 . S
C882 C883 1.334 . S
C883 H860 0.950 . S
C883 C882 1.334 . S
C883 C884 1.287 . S
C884 C883 1.287 . S
C884 C885 1.524 . S
C884 H903 0.913 . S
C885 H861 0.950 . S
C885 C884 1.524 . S
C885 C886 1.415 . S
C886 H862 0.950 . S
C886 C881 1.363 . S
C886 C885 1.415 . S
C887 H863 0.951 . S
C887 C888 1.366 . S
C887 C889 1.388 . S
C888 C887 1.366 . S
C888 C892 1.385 . S
C889 H864 0.951 . S
C889 C887 1.388 . S
C889 C890 1.366 . S
C890 C889 1.366 . S
C890 C891 1.414 . S
C890 C893 1.499 . S
C891 H865 0.950 . S
C891 C890 1.414 . S
C891 C892 1.374 . S
C892 H866 0.950 . S
C892 C888 1.385 . S
C892 C891 1.374 . S
C893 C890 1.499 . S
C893 C894 1.373 . S
C893 C895 1.389 . S
C894 H867 0.950 . S
C894 C880 1.377 . S
C894 C893 1.373 . S
C895 C879 1.377 . S
C895 C893 1.389 . S
C895 C896 1.524 . S
C896 C895 1.524 . S
C896 C897 1.397 . S
C896 C901 1.363 . S
C897 H868 0.950 . S
C897 C896 1.397 . S
C897 C898 1.334 . S
C898 H869 0.950 . S
C898 C897 1.334 . S
C898 C899 1.287 . S
C899 C898 1.287 . S
C899 C900 1.524 . S
C899 H902 0.999 . S
C900 H870 0.950 . S
C900 C899 1.524 . S
C900 C901 1.415 . S
C901 H871 0.950 . S
C901 C896 1.363 . S
C901 C900 1.415 . S
H902 C899 0.999 . S
H903 C884 0.913 . S
H904 C922 0.951 . S
H905 C924 0.951 . S
H906 C926 0.950 . S
H907 C927 0.950 . S
H908 C929 0.950 . S
H909 C932 0.950 . S
H910 C933 0.950 . S
H911 C935 0.950 . S
H912 C936 0.950 . S
H913 C937 0.951 . S
H914 C939 0.951 . S
H915 C941 0.950 . S
H916 C942 0.950 . S
H917 C944 0.950 . S
H918 C947 0.950 . S
H919 C948 0.950 . S
H920 C950 0.950 . S
H921 C951 0.950 . S
C922 H904 0.951 . S
C922 C923 1.366 . S
C922 C924 1.388 . S
C923 C922 1.366 . S
C923 C927 1.385 . S
C924 H905 0.951 . S
C924 C922 1.388 . S
C924 C925 1.366 . S
C925 C924 1.366 . S
C925 C926 1.414 . S
C925 C928 1.499 . S
C926 H906 0.950 . S
C926 C925 1.414 . S
C926 C927 1.374 . S
C927 H907 0.950 . S
C927 C923 1.385 . S
C927 C926 1.374 . S
C928 C925 1.499 . S
C928 C929 1.373 . S
C928 C930 1.389 . S
C929 H908 0.950 . S
C929 C928 1.373 . S
C929 C945 1.377 . S
C930 C928 1.389 . S
C930 C931 1.524 . S
C930 C944 1.377 . S
C931 C930 1.524 . S
C931 C932 1.397 . S
C931 C936 1.363 . S
C932 H909 0.950 . S
C932 C931 1.397 . S
C932 C933 1.334 . S
C933 H910 0.950 . S
C933 C932 1.334 . S
C933 C934 1.287 . S
C934 C933 1.287 . S
C934 C935 1.524 . S
C934 H953 0.913 . S
C935 H911 0.950 . S
C935 C934 1.524 . S
C935 C936 1.415 . S
C936 H912 0.950 . S
C936 C931 1.363 . S
C936 C935 1.415 . S
C937 H913 0.951 . S
C937 C938 1.366 . S
C937 C939 1.388 . S
C938 C937 1.366 . S
C938 C942 1.385 . S
C939 H914 0.951 . S
C939 C937 1.388 . S
C939 C940 1.366 . S
C940 C939 1.366 . S
C940 C941 1.414 . S
C940 C943 1.499 . S
C941 H915 0.950 . S
C941 C940 1.414 . S
C941 C942 1.374 . S
C942 H916 0.950 . S
C942 C938 1.385 . S
C942 C941 1.374 . S
C943 C940 1.499 . S
C943 C944 1.373 . S
C943 C945 1.389 . S
C944 H917 0.950 . S
C944 C930 1.377 . S
C944 C943 1.373 . S
C945 C929 1.377 . S
C945 C943 1.389 . S
C945 C946 1.524 . S
C946 C945 1.524 . S
C946 C947 1.397 . S
C946 C951 1.363 . S
C947 H918 0.950 . S
C947 C946 1.397 . S
C947 C948 1.334 . S
C948 H919 0.950 . S
C948 C947 1.334 . S
C948 C949 1.287 . S
C949 C948 1.287 . S
C949 C950 1.524 . S
C949 H952 0.999 . S
C950 H920 0.950 . S
C950 C949 1.524 . S
C950 C951 1.415 . S
C951 H921 0.950 . S
C951 C946 1.363 . S
C951 C950 1.415 . S
H952 C949 0.999 . S
H953 C934 0.913 . S
H954 C972 0.951 . S
H955 C974 0.951 . S
H956 C976 0.950 . S
H957 C977 0.950 . S
H958 C979 0.950 . S
H959 C982 0.950 . S
H960 C983 0.950 . S
H961 C985 0.950 1_655 S
H962 C986 0.936 1_655 S
H963 C987 0.951 . S
H964 C989 0.951 . S
H965 C991 0.933 1_554 S
H966 C992 0.950 . S
H967 C994 0.950 . S
H968 C997 0.950 . S
H969 C998 0.950 . S
H970 C1000 0.950 . S
H971 C1001 0.950 . S
C972 H954 0.951 . S
C972 C973 1.366 1_655 S
C972 C974 1.388 . S
C973 C972 1.366 1_455 S
C973 C977 1.385 . S
C974 H955 0.951 . S
C974 C972 1.388 . S
C974 C975 1.366 1_655 S
C975 C974 1.366 1_455 S
C975 C976 1.414 . S
C975 C978 1.499 . S
C976 H956 0.950 . S
C976 C975 1.414 . S
C976 C977 1.374 . S
C977 H957 0.950 . S
C977 C973 1.385 . S
C977 C976 1.374 . S
C978 C975 1.499 . S
C978 C979 1.373 . S
C978 C980 1.389 . S
C979 H958 0.950 . S
C979 C978 1.373 . S
C979 C995 1.377 . S
C980 C978 1.389 . S
C980 C981 1.524 . S
C980 C994 1.377 . S
C981 C980 1.524 . S
C981 C982 1.397 . S
C981 C986 1.368 . S
C982 H959 0.950 . S
C982 C981 1.397 . S
C982 C983 1.334 . S
C983 H960 0.950 . S
C983 C982 1.334 . S
C983 C984 1.287 . S
C984 C983 1.287 . S
C984 C985 1.524 . S
C984 H1003 0.913 . S
C985 H961 0.950 1_455 S
C985 C984 1.524 . S
C985 C986 1.424 . S
C986 H962 0.936 1_455 S
C986 C981 1.368 . S
C986 C985 1.424 . S
C987 H963 0.951 . S
C987 C988 1.366 . S
C987 C989 1.388 1_556 S
C988 C987 1.366 . S
C988 C992 1.385 1_455 S
C989 H964 0.951 . S
C989 C987 1.388 1_554 S
C989 C990 1.366 . S
C990 C989 1.366 . S
C990 C991 1.394 1_454 S
C990 C993 1.499 . S
C991 H965 0.933 1_556 S
C991 C990 1.394 1_656 S
C991 C992 1.412 . S
C992 H966 0.950 . S
C992 C988 1.385 1_655 S
C992 C991 1.412 . S
C993 C990 1.499 . S
C993 C994 1.373 . S
C993 C995 1.389 . S
C994 H967 0.950 . S
C994 C980 1.377 . S
C994 C993 1.373 . S
C995 C979 1.377 . S
C995 C993 1.389 . S
C995 C996 1.524 . S
C996 C995 1.524 . S
C996 C997 1.397 1_455 S
C996 C1001 1.363 . S
C997 H968 0.950 . S
C997 C996 1.397 1_655 S
C997 C998 1.334 . S
C998 H969 0.950 . S
C998 C997 1.334 . S
C998 C999 1.287 . S
C999 C998 1.287 . S
C999 C1000 1.524 1_655 S
C999 H1002 0.999 . S
C1000 H970 0.950 . S
C1000 C999 1.524 1_455 S
C1000 C1001 1.415 . S
C1001 H971 0.950 . S
C1001 C996 1.363 . S
C1001 C1000 1.415 . S
H1002 C999 0.999 . S
H1003 C984 0.913 . S
H1004 C1022 0.951 1_565 S
H1005 C1024 0.951 1_565 S
H1006 C1026 0.950 . S
H1007 C1027 0.950 . S
H1008 C1029 0.950 . S
H1009 C1032 0.950 . S
H1010 C1033 0.950 . S
H1011 C1035 0.950 . S
H1012 C1036 0.950 . S
H1013 C1037 0.951 . S
H1014 C1039 0.951 . S
H1015 C1041 0.950 1_565 S
H1016 C1042 0.950 . S
H1017 C1044 0.950 . S
H1018 C1047 0.950 . S
H1019 C1048 0.950 . S
H1020 C1050 0.950 . S
H1021 C1051 0.950 . S
C1022 H1004 0.951 1_545 S
C1022 C1023 1.366 . S
C1022 C1024 1.388 . S
C1023 C1022 1.366 . S
C1023 C1027 1.385 . S
C1024 H1005 0.951 1_545 S
C1024 C1022 1.388 . S
C1024 C1025 1.366 . S
C1025 C1024 1.366 . S
C1025 C1026 1.414 . S
C1025 C1028 1.499 . S
C1026 H1006 0.950 . S
C1026 C1025 1.414 . S
C1026 C1027 1.374 . S
C1027 H1007 0.950 . S
C1027 C1023 1.385 . S
C1027 C1026 1.374 . S
C1028 C1025 1.499 . S
C1028 C1029 1.373 . S
C1028 C1030 1.389 . S
C1029 H1008 0.950 . S
C1029 C1028 1.373 . S
C1029 C1045 1.377 . S
C1030 C1028 1.389 . S
C1030 C1031 1.524 . S
C1030 C1044 1.377 . S
C1031 C1030 1.524 . S
C1031 C1032 1.397 . S
C1031 C1036 1.363 . S
C1032 H1009 0.950 . S
C1032 C1031 1.397 . S
C1032 C1033 1.334 . S
C1033 H1010 0.950 . S
C1033 C1032 1.334 . S
C1033 C1034 1.287 . S
C1034 C1033 1.287 . S
C1034 C1035 1.524 . S
C1034 H1053 0.913 . S
C1035 H1011 0.950 . S
C1035 C1034 1.524 . S
C1035 C1036 1.415 . S
C1036 H1012 0.950 . S
C1036 C1031 1.363 . S
C1036 C1035 1.415 . S
C1037 H1013 0.951 . S
C1037 C1038 1.366 . S
C1037 C1039 1.388 . S
C1038 C1037 1.366 . S
C1038 C1042 1.385 . S
C1039 H1014 0.951 . S
C1039 C1037 1.388 . S
C1039 C1040 1.366 . S
C1040 C1039 1.366 . S
C1040 C1041 1.414 . S
C1040 C1043 1.499 . S
C1041 H1015 0.950 1_545 S
C1041 C1040 1.414 . S
C1041 C1042 1.374 . S
C1042 H1016 0.950 . S
C1042 C1038 1.385 . S
C1042 C1041 1.374 . S
C1043 C1040 1.499 . S
C1043 C1044 1.373 . S
C1043 C1045 1.389 . S
C1044 H1017 0.950 . S
C1044 C1030 1.377 . S
C1044 C1043 1.373 . S
C1045 C1029 1.377 . S
C1045 C1043 1.389 . S
C1045 C1046 1.524 . S
C1046 C1045 1.524 . S
C1046 C1047 1.397 1_545 S
C1046 C1051 1.363 . S
C1047 H1018 0.950 . S
C1047 C1046 1.397 1_565 S
C1047 C1048 1.334 . S
C1048 H1019 0.950 . S
C1048 C1047 1.334 . S
C1048 C1049 1.287 1_565 S
C1049 C1048 1.287 1_545 S
C1049 C1050 1.524 . S
C1049 H1052 0.999 1_545 S
C1050 H1020 0.950 . S
C1050 C1049 1.524 . S
C1050 C1051 1.415 . S
C1051 H1021 0.950 . S
C1051 C1046 1.363 . S
C1051 C1050 1.415 . S
H1052 C1049 0.999 1_565 S
H1053 C1034 0.913 . S
H1054 C1072 0.951 . S
H1055 C1074 0.951 . S
H1056 C1076 0.950 . S
H1057 C1077 0.950 . S
H1058 C1079 0.950 . S
H1059 C1082 0.950 . S
H1060 C1083 0.950 . S
H1061 C1085 0.950 . S
H1062 C1086 0.950 . S
H1063 C1087 0.951 . S
H1064 C1089 0.951 . S
H1065 C1091 0.950 . S
H1066 C1092 0.950 . S
H1067 C1094 0.950 . S
H1068 C1097 0.950 . S
H1069 C1098 0.950 . S
H1070 C1100 0.950 . S
H1071 C1101 0.950 . S
C1072 H1054 0.951 . S
C1072 C1073 1.366 . S
C1072 C1074 1.388 . S
C1073 C1072 1.366 . S
C1073 C1077 1.385 . S
C1074 H1055 0.951 . S
C1074 C1072 1.388 . S
C1074 C1075 1.366 . S
C1075 C1074 1.366 . S
C1075 C1076 1.414 . S
C1075 C1078 1.499 . S
C1076 H1056 0.950 . S
C1076 C1075 1.414 . S
C1076 C1077 1.374 . S
C1077 H1057 0.950 . S
C1077 C1073 1.385 . S
C1077 C1076 1.374 . S
C1078 C1075 1.499 . S
C1078 C1079 1.373 . S
C1078 C1080 1.389 . S
C1079 H1058 0.950 . S
C1079 C1078 1.373 . S
C1079 C1095 1.377 . S
C1080 C1078 1.389 . S
C1080 C1081 1.524 . S
C1080 C1094 1.377 . S
C1081 C1080 1.524 . S
C1081 C1082 1.397 . S
C1081 C1086 1.363 . S
C1082 H1059 0.950 . S
C1082 C1081 1.397 . S
C1082 C1083 1.334 . S
C1083 H1060 0.950 . S
C1083 C1082 1.334 . S
C1083 C1084 1.287 . S
C1084 C1083 1.287 . S
C1084 C1085 1.524 . S
C1084 H1103 0.913 . S
C1085 H1061 0.950 . S
C1085 C1084 1.524 . S
C1085 C1086 1.415 . S
C1086 H1062 0.950 . S
C1086 C1081 1.363 . S
C1086 C1085 1.415 . S
C1087 H1063 0.951 . S
C1087 C1088 1.366 . S
C1087 C1089 1.388 . S
C1088 C1087 1.366 . S
C1088 C1092 1.385 . S
C1089 H1064 0.951 . S
C1089 C1087 1.388 . S
C1089 C1090 1.366 . S
C1090 C1089 1.366 . S
C1090 C1091 1.414 . S
C1090 C1093 1.499 . S
C1091 H1065 0.950 . S
C1091 C1090 1.414 . S
C1091 C1092 1.374 . S
C1092 H1066 0.950 . S
C1092 C1088 1.385 . S
C1092 C1091 1.374 . S
C1093 C1090 1.499 . S
C1093 C1094 1.373 . S
C1093 C1095 1.389 . S
C1094 H1067 0.950 . S
C1094 C1080 1.377 . S
C1094 C1093 1.373 . S
C1095 C1079 1.377 . S
C1095 C1093 1.389 . S
C1095 C1096 1.524 . S
C1096 C1095 1.524 . S
C1096 C1097 1.397 . S
C1096 C1101 1.363 . S
C1097 H1068 0.950 . S
C1097 C1096 1.397 . S
C1097 C1098 1.334 . S
C1098 H1069 0.950 . S
C1098 C1097 1.334 . S
C1098 C1099 1.287 . S
C1099 C1098 1.287 . S
C1099 C1100 1.524 . S
C1099 H1102 0.999 . S
C1100 H1070 0.950 . S
C1100 C1099 1.524 . S
C1100 C1101 1.415 . S
C1101 H1071 0.950 . S
C1101 C1096 1.363 . S
C1101 C1100 1.415 . S
H1102 C1099 0.999 . S
H1103 C1084 0.913 . S
H1104 C1122 0.960 . S
H1105 C1124 0.951 . S
H1106 C1126 0.950 . S
H1107 C1127 0.950 . S
H1108 C1129 0.950 . S
H1109 C1132 0.950 . S
H1110 C1133 0.950 . S
H1111 C1135 0.950 . S
H1112 C1136 0.950 . S
H1113 C1137 0.951 . S
H1114 C1139 0.951 . S
H1115 C1141 0.950 . S
H1116 C1142 0.950 . S
H1117 C1144 0.950 . S
H1118 C1147 0.950 . S
H1119 C1148 0.950 . S
H1120 C1150 0.950 . S
H1121 C1151 0.950 . S
C1122 H1104 0.960 . S
C1122 C1123 1.357 1_565 S
C1122 C1124 1.388 . S
C1123 C1122 1.357 1_545 S
C1123 C1127 1.385 . S
C1124 H1105 0.951 . S
C1124 C1122 1.388 . S
C1124 C1125 1.366 1_565 S
C1125 C1124 1.366 1_545 S
C1125 C1126 1.414 . S
C1125 C1128 1.499 . S
C1126 H1106 0.950 . S
C1126 C1125 1.414 . S
C1126 C1127 1.374 . S
C1127 H1107 0.950 . S
C1127 C1123 1.385 . S
C1127 C1126 1.374 . S
C1128 C1125 1.499 . S
C1128 C1129 1.373 . S
C1128 C1130 1.389 1_545 S
C1129 H1108 0.950 . S
C1129 C1128 1.373 . S
C1129 C1145 1.377 . S
C1130 C1128 1.389 1_565 S
C1130 C1131 1.524 . S
C1130 C1144 1.377 . S
C1131 C1130 1.524 . S
C1131 C1132 1.397 . S
C1131 C1136 1.363 . S
C1132 H1109 0.950 . S
C1132 C1131 1.397 . S
C1132 C1133 1.334 . S
C1133 H1110 0.950 . S
C1133 C1132 1.334 . S
C1133 C1134 1.287 . S
C1134 C1133 1.287 . S
C1134 C1135 1.524 . S
C1134 H1153 0.913 . S
C1135 H1111 0.950 . S
C1135 C1134 1.524 . S
C1135 C1136 1.415 . S
C1136 H1112 0.950 . S
C1136 C1131 1.363 . S
C1136 C1135 1.415 . S
C1137 H1113 0.951 . S
C1137 C1138 1.366 . S
C1137 C1139 1.388 . S
C1138 C1137 1.366 . S
C1138 C1142 1.385 1_545 S
C1139 H1114 0.951 . S
C1139 C1137 1.388 . S
C1139 C1140 1.366 . S
C1140 C1139 1.366 . S
C1140 C1141 1.414 1_545 S
C1140 C1143 1.499 . S
C1141 H1115 0.950 . S
C1141 C1140 1.414 1_565 S
C1141 C1142 1.374 . S
C1142 H1116 0.950 . S
C1142 C1138 1.385 1_565 S
C1142 C1141 1.374 . S
C1143 C1140 1.499 . S
C1143 C1144 1.373 1_545 S
C1143 C1145 1.389 . S
C1144 H1117 0.950 . S
C1144 C1130 1.377 . S
C1144 C1143 1.373 1_565 S
C1145 C1129 1.377 . S
C1145 C1143 1.389 . S
C1145 C1146 1.524 . S
C1146 C1145 1.524 . S
C1146 C1147 1.397 . S
C1146 C1151 1.363 . S
C1147 H1118 0.950 . S
C1147 C1146 1.397 . S
C1147 C1148 1.334 . S
C1148 H1119 0.950 . S
C1148 C1147 1.334 . S
C1148 C1149 1.287 . S
C1149 C1148 1.287 . S
C1149 C1150 1.524 . S
C1149 H1152 0.999 . S
C1150 H1120 0.950 . S
C1150 C1149 1.524 . S
C1150 C1151 1.415 . S
C1151 H1121 0.950 . S
C1151 C1146 1.363 . S
C1151 C1150 1.415 . S
H1152 C1149 0.999 . S
H1153 C1134 0.913 . S
H1154 C1172 0.951 . S
H1155 C1174 0.951 . S
H1156 C1176 0.950 . S
H1157 C1177 0.950 . S
H1158 C1179 0.950 . S
H1159 C1182 0.950 . S
H1160 C1183 0.950 . S
H1161 C1185 0.950 . S
H1162 C1186 0.950 . S
H1163 C1187 0.951 . S
H1164 C1189 0.955 . S
H1165 C1191 0.950 1_556 S
H1166 C1192 0.950 . S
H1167 C1194 0.950 . S
H1168 C1197 0.950 . S
H1169 C1198 0.950 . S
H1170 C1200 0.950 . S
H1171 C1201 0.950 . S
C1172 H1154 0.951 . S
C1172 C1173 1.366 . S
C1172 C1174 1.388 . S
C1173 C1172 1.366 . S
C1173 C1177 1.385 . S
C1174 H1155 0.951 . S
C1174 C1172 1.388 . S
C1174 C1175 1.366 . S
C1175 C1174 1.366 . S
C1175 C1176 1.414 . S
C1175 C1178 1.499 . S
C1176 H1156 0.950 . S
C1176 C1175 1.414 . S
C1176 C1177 1.374 . S
C1177 H1157 0.950 . S
C1177 C1173 1.385 . S
C1177 C1176 1.374 . S
C1178 C1175 1.499 . S
C1178 C1179 1.373 . S
C1178 C1180 1.389 . S
C1179 H1158 0.950 . S
C1179 C1178 1.373 . S
C1179 C1195 1.377 . S
C1180 C1178 1.389 . S
C1180 C1181 1.524 . S
C1180 C1194 1.377 . S
C1181 C1180 1.524 . S
C1181 C1182 1.397 . S
C1181 C1186 1.363 . S
C1182 H1159 0.950 . S
C1182 C1181 1.397 . S
C1182 C1183 1.334 . S
C1183 H1160 0.950 . S
C1183 C1182 1.334 . S
C1183 C1184 1.287 . S
C1184 C1183 1.287 . S
C1184 C1185 1.524 . S
C1184 H1203 0.913 . S
C1185 H1161 0.950 . S
C1185 C1184 1.524 . S
C1185 C1186 1.415 . S
C1186 H1162 0.950 . S
C1186 C1181 1.363 . S
C1186 C1185 1.415 . S
C1187 H1163 0.951 . S
C1187 C1188 1.366 . S
C1187 C1189 1.380 1_554 S
C1188 C1187 1.366 . S
C1188 C1192 1.385 . S
C1189 H1164 0.955 . S
C1189 C1187 1.380 1_556 S
C1189 C1190 1.369 . S
C1190 C1189 1.369 . S
C1190 C1191 1.414 1_556 S
C1190 C1193 1.499 . S
C1191 H1165 0.950 1_554 S
C1191 C1190 1.414 1_554 S
C1191 C1192 1.374 . S
C1192 H1166 0.950 . S
C1192 C1188 1.385 . S
C1192 C1191 1.374 . S
C1193 C1190 1.499 . S
C1193 C1194 1.373 . S
C1193 C1195 1.389 . S
C1194 H1167 0.950 . S
C1194 C1180 1.377 . S
C1194 C1193 1.373 . S
C1195 C1179 1.377 . S
C1195 C1193 1.389 . S
C1195 C1196 1.524 . S
C1196 C1195 1.524 . S
C1196 C1197 1.397 . S
C1196 C1201 1.363 . S
C1197 H1168 0.950 . S
C1197 C1196 1.397 . S
C1197 C1198 1.334 . S
C1198 H1169 0.950 . S
C1198 C1197 1.334 . S
C1198 C1199 1.287 . S
C1199 C1198 1.287 . S
C1199 C1200 1.524 . S
C1199 H1202 0.999 . S
C1200 H1170 0.950 . S
C1200 C1199 1.524 . S
C1200 C1201 1.415 . S
C1201 H1171 0.950 . S
C1201 C1196 1.363 . S
C1201 C1200 1.415 . S
H1202 C1199 0.999 . S
H1203 C1184 0.913 . S
H1204 C1222 0.951 . S
H1205 C1224 0.951 . S
H1206 C1226 0.950 . S
H1207 C1227 0.950 . S
H1208 C1229 0.950 . S
H1209 C1232 0.950 . S
H1210 C1233 0.950 . S
H1211 C1235 0.950 . S
H1212 C1236 0.950 . S
H1213 C1237 0.951 . S
H1214 C1239 0.951 . S
H1215 C1241 0.950 . S
H1216 C1242 0.950 . S
H1217 C1244 0.950 . S
H1218 C1247 0.950 . S
H1219 C1248 0.950 . S
H1220 C1250 0.950 . S
H1221 C1251 0.950 . S
C1222 H1204 0.951 . S
C1222 C1223 1.366 . S
C1222 C1224 1.388 . S
C1223 C1222 1.366 . S
C1223 C1227 1.385 1_455 S
C1224 H1205 0.951 . S
C1224 C1222 1.388 . S
C1224 C1225 1.366 . S
C1225 C1224 1.366 . S
C1225 C1226 1.414 1_455 S
C1225 C1228 1.500 . S
C1226 H1206 0.950 . S
C1226 C1225 1.414 1_655 S
C1226 C1227 1.374 . S
C1227 H1207 0.950 . S
C1227 C1223 1.385 1_655 S
C1227 C1226 1.374 . S
C1228 C1225 1.500 . S
C1228 C1229 1.369 . S
C1228 C1230 1.393 1_455 S
C1229 H1208 0.950 . S
C1229 C1228 1.369 . S
C1229 C1245 1.377 . S
C1230 C1228 1.393 1_655 S
C1230 C1231 1.525 . S
C1230 C1244 1.377 1_655 S
C1231 C1230 1.525 . S
C1231 C1232 1.397 . S
C1231 C1236 1.363 1_655 S
C1232 H1209 0.950 . S
C1232 C1231 1.397 . S
C1232 C1233 1.334 . S
C1233 H1210 0.950 . S
C1233 C1232 1.334 . S
C1233 C1234 1.287 . S
C1234 C1233 1.287 . S
C1234 C1235 1.524 1_655 S
C1234 H1253 0.913 . S
C1235 H1211 0.950 . S
C1235 C1234 1.524 1_455 S
C1235 C1236 1.415 . S
C1236 H1212 0.950 . S
C1236 C1231 1.363 1_455 S
C1236 C1235 1.415 . S
C1237 H1213 0.951 . S
C1237 C1238 1.366 . S
C1237 C1239 1.388 . S
C1238 C1237 1.366 . S
C1238 C1242 1.385 1_655 S
C1239 H1214 0.951 . S
C1239 C1237 1.388 . S
C1239 C1240 1.340 1_655 S
C1240 C1239 1.340 1_455 S
C1240 C1241 1.438 . S
C1240 C1243 1.502 . S
C1241 H1215 0.950 . S
C1241 C1240 1.438 . S
C1241 C1242 1.374 . S
C1242 H1216 0.950 . S
C1242 C1238 1.385 1_455 S
C1242 C1241 1.374 . S
C1243 C1240 1.502 . S
C1243 C1244 1.373 . S
C1243 C1245 1.389 . S
C1244 H1217 0.950 . S
C1244 C1230 1.377 1_455 S
C1244 C1243 1.373 . S
C1245 C1229 1.377 . S
C1245 C1243 1.389 . S
C1245 C1246 1.524 . S
C1246 C1245 1.524 . S
C1246 C1247 1.397 . S
C1246 C1251 1.363 1_455 S
C1247 H1218 0.950 . S
C1247 C1246 1.397 . S
C1247 C1248 1.334 . S
C1248 H1219 0.950 . S
C1248 C1247 1.334 . S
C1248 C1249 1.287 . S
C1249 C1248 1.287 . S
C1249 C1250 1.524 1_455 S
C1249 H1252 0.999 . S
C1250 H1220 0.950 . S
C1250 C1249 1.524 1_655 S
C1250 C1251 1.415 . S
C1251 H1221 0.950 . S
C1251 C1246 1.363 1_655 S
C1251 C1250 1.415 . S
H1252 C1249 0.999 . S
H1253 C1234 0.913 . S
C373 C19 1.869 . S
C388 C331 1.837 . S
C423 C46 1.152 . S
C438 C258 1.154 . S
C473 C95 0.331 . S
C488 C297 0.239 . S
C523 C10 1.948 . S
C538 C336 1.920 . S
C588 C253 1.247 . S
C573 C55 1.247 . S
C638 C292 0.408 . S
C623 C86 0.424 . S
C673 C59 3.059 . S
C688 C180 3.017 . S
C723 C90 1.990 . S
C738 C214 1.971 . S
C773 C15 1.230 . S
C788 C136 1.236 . S
C838 C175 2.904 . S
C823 C50 2.924 . S
C888 C219 1.818 . S
C873 C99 1.842 . S
C923 C6 1.155 . S
C938 C141 1.155 . S
C988 C199 1.382 . S
C973 C9 1.333 . S
C1023 C58 1.450 . S
C1038 C121 1.507 . S
C1073 C98 1.689 . S
C1088 C160 1.760 . S
C1138 C277 1.111 . S
C1123 C49 1.087 . S
C1188 C316 1.373 . S
C1173 C89 1.332 . S
C1223 C18 1.439 . S
C1238 C238 1.488 . S
