# Generated by pormake.
# Topology pth, (4,4)-cn, num edge types: 1
# Building blocks:
#     Node 0, Type 0, BuildingBlock: NAHDIM_clean_sbu_0, # of connection points: 4
#     Node 1, Type 0, BuildingBlock: NAHDIM_clean_sbu_0, # of connection points: 4
#     Node 2, Type 0, BuildingBlock: NAHDIM_clean_sbu_0, # of connection points: 4
#     Node 3, Type 1, BuildingBlock: NAHDIM_clean_linker_0, # of connection points: 4
#     Node 4, Type 1, BuildingBlock: NAHDIM_clean_linker_0, # of connection points: 4
#     Node 5, Type 1, BuildingBlock: NAHDIM_clean_linker_0, # of connection points: 4
#     Edge 6, Type (0, 1), BuildingBlock: KIFKEQ_clean_linker_1, # of connection points: 2
#     Edge 7, Type (0, 1), BuildingBlock: KIFKEQ_clean_linker_1, # of connection points: 2
#     Edge 8, Type (0, 1), BuildingBlock: KIFKEQ_clean_linker_1, # of connection points: 2
#     Edge 9, Type (0, 1), BuildingBlock: KIFKEQ_clean_linker_1, # of connection points: 2
#     Edge 10, Type (0, 1), BuildingBlock: KIFKEQ_clean_linker_1, # of connection points: 2
#     Edge 11, Type (0, 1), BuildingBlock: KIFKEQ_clean_linker_1, # of connection points: 2
#     Edge 12, Type (0, 1), BuildingBlock: KIFKEQ_clean_linker_1, # of connection points: 2
#     Edge 13, Type (0, 1), BuildingBlock: KIFKEQ_clean_linker_1, # of connection points: 2
#     Edge 14, Type (0, 1), BuildingBlock: KIFKEQ_clean_linker_1, # of connection points: 2
#     Edge 15, Type (0, 1), BuildingBlock: KIFKEQ_clean_linker_1, # of connection points: 2
#     Edge 16, Type (0, 1), BuildingBlock: KIFKEQ_clean_linker_1, # of connection points: 2
#     Edge 17, Type (0, 1), BuildingBlock: KIFKEQ_clean_linker_1, # of connection points: 2
# Relax obj value: 0.059
# Max RMSD: 0.179
# Mean RMSD: 0.115
data_MOF--net-pth--node1-NAHDIM_clean_sbu_0--node2-NAHDIM_clean_linker_0--edge1-KIFKEQ_clean_linker_1
_symmetry_space_group_name_H-M    P1
_symmetry_Int_Tables_number       1
_symmetry_cell_setting            triclinic
loop_
_symmetry_equiv_pos_as_xyz
'x, y, z'
_cell_length_a     32.054051
_cell_length_b     32.206752
_cell_length_c     80.313947
_cell_angle_alpha  91.688218
_cell_angle_beta   90.381732
_cell_angle_gamma 120.56808
loop_
_atom_site_label
_atom_site_type_symbol
_atom_site_fract_x
_atom_site_fract_y
_atom_site_fract_z
_atom_type_partial_charge
C0 C 0.10235 0.04987 0.07199 0.0
O1 O 0.10864 0.09116 0.07795 0.0
O2 O 0.05106 0.11445 0.0575 0.0
Zn3 Zn 0.0702 0.07579 0.04239 0.0
O4 O 0.01423 0.02665 0.02789 0.0
C5 C 0.15586 0.1633 0.03298 0.0
O6 O 0.15684 0.17533 0.04881 0.0
O7 O 0.08948 0.03776 0.05678 0.0
C8 C 0.98979 0.03533 0.01751 0.0
O9 O 0.99956 0.07986 0.016 0.0
C10 C 0.05027 0.15161 0.05303 0.0
O11 O 0.05832 0.16392 0.03741 0.0
O12 O 0.12379 0.1213 0.02763 0.0
C13 C 0.05333 0.14698 0.35103 0.0
O14 O 0.01558 0.10434 0.35369 0.0
O15 O 0.06347 0.0451 0.35692 0.0
Zn16 Zn 0.08533 0.10395 0.37219 0.0
O17 O 0.03421 0.09312 0.38901 0.0
C18 C 0.14101 0.07643 0.38992 0.0
O19 O 0.10007 0.0359 0.38672 0.0
O20 O 0.09359 0.15846 0.35812 0.0
C21 C 0.04521 0.10554 0.40432 0.0
O22 O 0.09037 0.12389 0.40948 0.0
C23 C 0.02186 0.00714 0.35694 0.0
O24 O 0.98893 0.00546 0.367 0.0
O25 O 0.14587 0.11539 0.38452 0.0
C26 C 0.11021 0.02626 0.68498 0.0
O27 O 0.08476 0.03866 0.67567 0.0
O28 O 0.02074 0.05654 0.6969 0.0
Zn29 Zn 0.05819 0.0388 0.71272 0.0
O30 O 0.09814 0.09594 0.72842 0.0
C31 C 0.98684 0.98631 0.73751 0.0
O32 O 0.99735 0.02998 0.74229 0.0
O33 O 0.10385 0.02334 0.70061 0.0
C34 C 0.11216 0.09269 0.7429 0.0
O35 O 0.10139 0.05015 0.74812 0.0
C36 C 0.00482 0.08283 0.70276 0.0
O37 O 0.01486 0.09845 0.71838 0.0
O38 O 0.00926 0.98106 0.72536 0.0
C39 C 0.92734 0.6552 0.31591 0.0
C40 C 0.96735 0.69377 0.30551 0.0
C41 C 0.97488 0.6697 0.27722 0.0
C42 C 0.02543 0.6917 0.2764 0.0
C43 C 0.04652 0.67429 0.26502 0.0
C44 C 0.01635 0.63402 0.25432 0.0
C45 C 0.96535 0.61308 0.2547 0.0
C46 C 0.94536 0.63186 0.26599 0.0
C47 C 0.10098 0.69821 0.26465 0.0
C48 C 0.93187 0.56985 0.2436 0.0
C49 C 0.04668 0.32612 0.28586 0.0
C50 C 0.03914 0.35598 0.27376 0.0
C51 C 0.07259 0.43918 0.2658 0.0
C52 C 0.03092 0.42948 0.25655 0.0
C53 C 0.02803 0.46645 0.24889 0.0
C54 C 0.06788 0.51421 0.25025 0.0
C55 C 0.10999 0.52429 0.25946 0.0
C56 C 0.11174 0.48653 0.26716 0.0
C57 C 0.98216 0.45435 0.23937 0.0
C58 C 0.15304 0.57486 0.26109 0.0
C59 C 0.11312 0.47492 0.14536 0.0
C60 C 0.06532 0.45854 0.15008 0.0
C61 C 0.05302 0.48999 0.1581 0.0
C62 C 0.08936 0.53874 0.16146 0.0
C63 C 0.13693 0.55592 0.15585 0.0
C64 C 0.14808 0.52374 0.14769 0.0
C65 C 0.00152 0.47078 0.16344 0.0
C66 C 0.17633 0.60776 0.15906 0.0
C67 C 0.94747 0.7868 0.15817 0.0
C68 C 0.99339 0.78699 0.15297 0.0
C69 C -9e-05 0.71476 0.15181 0.0
C70 C 0.96969 0.66479 0.15218 0.0
C71 C 0.98638 0.63587 0.15879 0.0
C72 C 0.03492 0.65765 0.16477 0.0
C73 C 0.06666 0.70785 0.16331 0.0
C74 C 0.04875 0.736 0.1569 0.0
C75 C 0.95173 0.58233 0.1599 0.0
C76 C 0.11905 0.7319 0.16901 0.0
C77 C 0.03774 0.61136 0.24374 0.0
C78 C 0.04868 0.57934 0.25128 0.0
C79 C 0.06485 0.5532 0.24196 0.0
C80 C 0.07147 0.5598 0.22466 0.0
C81 C 0.0881 0.53433 0.21497 0.0
C82 C 0.09135 0.53849 0.19779 0.0
C83 C 0.07801 0.56823 0.18963 0.0
C84 C 0.07838 0.57039 0.17206 0.0
C85 C 0.06538 0.60066 0.16432 0.0
C86 C 0.05123 0.62852 0.17371 0.0
C87 C 0.04997 0.6263 0.19129 0.0
C88 C 0.035 0.6531 0.20111 0.0
C89 C 0.03212 0.64923 0.21834 0.0
C90 C 0.04344 0.61793 0.22639 0.0
C91 C 0.05996 0.59166 0.21681 0.0
C92 C 0.06316 0.59581 0.19925 0.0
C93 C 0.15598 0.40113 0.15311 0.0
C94 C 0.1128 0.39905 0.14405 0.0
O95 O 0.95358 0.6839 0.28879 0.0
O96 O 0.98067 0.7414 0.14669 0.0
O97 O 0.12651 0.44457 0.1385 0.0
O98 O 0.07587 0.40397 0.27366 0.0
H99 H 0.00043 0.69165 0.30802 0.0
H100 H 0.92218 0.61923 0.31239 0.0
H101 H 0.89241 0.6539 0.31376 0.0
H102 H 0.93746 0.66275 0.32938 0.0
H103 H 0.04835 0.72231 0.2847 0.0
H104 H 0.90638 0.61569 0.26659 0.0
H105 H 0.11221 0.67342 0.26958 0.0
H106 H 0.11941 0.73253 0.27225 0.0
H107 H 0.11337 0.70572 0.25163 0.0
H108 H 0.89307 0.55593 0.24623 0.0
H109 H 0.93978 0.54041 0.24527 0.0
H110 H 0.93799 0.57976 0.23036 0.0
H111 H 0.02759 0.33923 0.26095 0.0
H112 H 0.99058 0.30726 0.30269 0.0
H113 H 0.0862 0.34718 0.28975 0.0
H114 H 0.05001 0.29849 0.27799 0.0
H115 H 0.00022 0.39312 0.25528 0.0
H116 H 0.14373 0.49385 0.2743 0.0
H117 H 0.98995 0.46056 0.22593 0.0
H118 H 0.96867 0.47827 0.2438 0.0
H119 H 0.95297 0.41624 0.24069 0.0
H120 H 0.18386 0.57652 0.26811 0.0
H121 H 0.14229 0.59876 0.26761 0.0
H122 H 0.16526 0.58916 0.24852 0.0
H123 H 0.08331 0.38712 0.15321 0.0
H124 H 0.03765 0.42118 0.14756 0.0
H125 H 0.18465 0.53615 0.14367 0.0
H126 H 0.00019 0.46962 0.17724 0.0
H127 H 0.97645 0.43388 0.15813 0.0
H128 H 0.98849 0.49513 0.15954 0.0
H129 H 0.21134 0.61568 0.15366 0.0
H130 H 0.18179 0.61599 0.17269 0.0
H131 H 0.16519 0.6321 0.15365 0.0
H132 H 0.01649 0.79638 0.16448 0.0
H133 H 0.95668 0.82306 0.16321 0.0
H134 H 0.92933 0.76036 0.16804 0.0
H135 H 0.92163 0.77648 0.14742 0.0
H136 H 0.93231 0.64872 0.14791 0.0
H137 H 0.07278 0.77454 0.15597 0.0
H138 H 0.94932 0.57176 0.17306 0.0
H139 H 0.96556 0.56223 0.1526 0.0
H140 H 0.91476 0.5712 0.15511 0.0
H141 H 0.14037 0.76989 0.16516 0.0
H142 H 0.13585 0.71159 0.16387 0.0
H143 H 0.12112 0.73159 0.1828 0.0
H144 H 0.04248 0.5731 0.26448 0.0
H145 H 0.09829 0.51046 0.22056 0.0
H146 H 0.10391 0.51759 0.19098 0.0
H147 H 0.0652 0.60171 0.15083 0.0
H148 H 0.02485 0.67706 0.19559 0.0
H149 H 0.02013 0.67049 0.22524 0.0
H150 H 0.18715 0.41326 0.14469 0.0
H151 H 0.14583 0.36503 0.15769 0.0
H152 H 0.16744 0.42696 0.164 0.0
C153 C 0.36379 0.92607 0.64701 0.0
C154 C 0.37188 0.97156 0.63866 0.0
C155 C 0.40839 0.98801 0.61149 0.0
C156 C 0.43695 0.03847 0.6123 0.0
C157 C 0.47742 0.06255 0.60218 0.0
C158 C 0.48989 0.03537 0.59129 0.0
C159 C 0.46051 0.98434 0.59033 0.0
C160 C 0.4194 0.96145 0.6002 0.0
C161 C 0.50708 0.11695 0.60328 0.0
C162 C 0.47306 0.95376 0.57925 0.0
C163 C 0.82272 0.23245 0.64041 0.0
C164 C 0.79805 0.17783 0.63713 0.0
C165 C 0.75406 0.15038 0.61087 0.0
C166 C 0.72721 0.10148 0.60609 0.0
C167 C 0.68418 0.08311 0.59654 0.0
C168 C 0.66825 0.11473 0.59161 0.0
C169 C 0.69585 0.16442 0.59628 0.0
C170 C 0.73872 0.18174 0.60582 0.0
C171 C 0.65572 0.03004 0.5917 0.0
C172 C 0.68005 0.19917 0.59117 0.0
C173 C 0.74969 0.13667 0.48552 0.0
C174 C 0.71982 0.08972 0.49092 0.0
C175 C 0.67609 0.07687 0.49874 0.0
C176 C 0.66238 0.11196 0.50131 0.0
C177 C 0.69144 0.15872 0.49517 0.0
C178 C 0.7346 0.1703 0.48713 0.0
C179 C 0.64505 0.02609 0.50454 0.0
C180 C 0.6776 0.19678 0.49754 0.0
C181 C 0.2785 0.99606 0.49113 0.0
C182 C 0.3238 0.03497 0.4828 0.0
C183 C 0.39826 0.03191 0.48619 0.0
C184 C 0.41208 0.99772 0.48848 0.0
C185 C 0.4565 0.01061 0.4963 0.0
C186 C 0.48797 0.05911 0.50174 0.0
C187 C 0.47534 0.0944 0.49866 0.0
C188 C 0.43063 0.08048 0.49081 0.0
C189 C 0.46931 0.97227 0.49915 0.0
C190 C 0.50879 0.14667 0.5039 0.0
C191 C 0.53497 0.05985 0.58158 0.0
C192 C 0.57911 0.07624 0.5901 0.0
C193 C 0.62266 0.096 0.58163 0.0
C194 C 0.62234 0.09809 0.56409 0.0
C195 C 0.66513 0.11507 0.55509 0.0
C196 C 0.66423 0.11603 0.53779 0.0
C197 C 0.62059 0.10059 0.52883 0.0
C198 C 0.61907 0.10029 0.51122 0.0
C199 C 0.57551 0.08676 0.50274 0.0
C200 C 0.53291 0.0725 0.51141 0.0
C201 C 0.53324 0.07054 0.52898 0.0
C202 C 0.49062 0.05458 0.53804 0.0
C203 C 0.49111 0.0514 0.55528 0.0
C204 C 0.5343 0.06451 0.56414 0.0
C205 C 0.57801 0.0826 0.55533 0.0
C206 C 0.57731 0.08475 0.53771 0.0
C207 C 0.86532 0.19026 0.49552 0.0
C208 C 0.82875 0.1438 0.48595 0.0
O209 O 0.37012 0.96409 0.62152 0.0
O210 O 0.35387 0.01673 0.47924 0.0
O211 O 0.79317 0.15029 0.47869 0.0
O212 O 0.79521 0.16718 0.62018 0.0
H213 H 0.40839 0.00154 0.64291 0.0
H214 H 0.39239 0.91811 0.64328 0.0
H215 H 0.32787 0.89459 0.64323 0.0
H216 H 0.36566 0.93132 0.6608 0.0
H217 H 0.42744 0.05892 0.62081 0.0
H218 H 0.3967 0.92247 0.59962 0.0
H219 H 0.54214 0.12853 0.60981 0.0
H220 H 0.4883 0.13285 0.61019 0.0
H221 H 0.51518 0.13163 0.59061 0.0
H222 H 0.45126 0.91486 0.582 0.0
H223 H 0.51209 0.96567 0.58072 0.0
H224 H 0.46606 0.95788 0.56603 0.0
H225 H 0.76089 0.16092 0.64228 0.0
H226 H 0.82767 0.24121 0.65403 0.0
H227 H 0.79995 0.24616 0.63532 0.0
H228 H 0.85868 0.25137 0.6345 0.0
H229 H 0.73984 0.07776 0.61002 0.0
H230 H 0.76041 0.21976 0.60926 0.0
H231 H 0.64995 0.02511 0.57797 0.0
H232 H 0.61948 0.01334 0.59738 0.0
H233 H 0.67424 0.0107 0.59581 0.0
H234 H 0.7042 0.23621 0.59654 0.0
H235 H 0.64247 0.18625 0.59522 0.0
H236 H 0.67998 0.20074 0.57738 0.0
H237 H 0.81278 0.11456 0.49506 0.0
H238 H 0.73072 0.06317 0.48903 0.0
H239 H 0.75767 0.20622 0.48262 0.0
H240 H 0.64633 0.02649 0.51836 0.0
H241 H 0.65743 0.0016 0.49968 0.0
H242 H 0.60669 0.01131 0.50051 0.0
H243 H 0.70485 0.23186 0.49245 0.0
H244 H 0.67359 0.20234 0.51101 0.0
H245 H 0.64203 0.1844 0.49124 0.0
H246 H 0.3415 0.06646 0.49178 0.0
H247 H 0.25387 0.00978 0.49433 0.0
H248 H 0.28903 0.98573 0.50282 0.0
H249 H 0.25874 0.96338 0.48276 0.0
H250 H 0.38723 0.96051 0.48452 0.0
H251 H 0.4213 0.10762 0.48825 0.0
H252 H 0.47255 0.96869 0.51274 0.0
H253 H 0.50502 0.98305 0.4937 0.0
H254 H 0.44177 0.93654 0.49358 0.0
H255 H 0.49451 0.17005 0.50005 0.0
H256 H 0.54488 0.15997 0.49837 0.0
H257 H 0.51404 0.15004 0.51766 0.0
H258 H 0.57955 0.07323 0.60352 0.0
H259 H 0.69974 0.12724 0.56131 0.0
H260 H 0.69826 0.12912 0.53153 0.0
H261 H 0.57466 0.08692 0.48924 0.0
H262 H 0.45624 0.04377 0.5319 0.0
H263 H 0.45719 0.03851 0.5616 0.0
H264 H 0.88242 0.22091 0.48701 0.0
H265 H 0.89404 0.18576 0.50152 0.0
H266 H 0.84667 0.19902 0.50542 0.0
C267 C 0.66895 0.65703 0.76366 0.0
C268 C 0.68419 0.69589 0.77757 0.0
C269 C 0.65292 0.65888 0.8041 0.0
C270 C 0.62784 0.68214 0.80914 0.0
C271 C 0.59024 0.66102 0.82054 0.0
C272 C 0.57775 0.61591 0.82707 0.0
C273 C 0.60431 0.59337 0.8225 0.0
C274 C 0.64203 0.61553 0.81119 0.0
C275 C 0.56352 0.68663 0.82549 0.0
C276 C 0.59222 0.54547 0.82934 0.0
C277 C 0.17664 0.37802 0.82732 0.0
C278 C 0.22361 0.37937 0.82279 0.0
C279 C 0.30367 0.45087 0.82051 0.0
C280 C 0.33114 0.42982 0.82484 0.0
C281 C 0.37953 0.45856 0.83038 0.0
C282 C 0.4006 0.50926 0.83177 0.0
C283 C 0.37394 0.53068 0.82643 0.0
C284 C 0.32583 0.50107 0.82067 0.0
C285 C 0.40755 0.43463 0.83536 0.0
C286 C 0.3956 0.58467 0.82749 0.0
C287 C 0.34082 0.47788 0.94003 0.0
C288 C 0.36321 0.4539 0.93308 0.0
C289 C 0.40578 0.47911 0.92401 0.0
C290 C 0.42572 0.52908 0.92165 0.0
C291 C 0.40397 0.55352 0.92913 0.0
C292 C 0.36212 0.52761 0.93846 0.0
C293 C 0.42901 0.45221 0.91675 0.0
C294 C 0.42419 0.60672 0.92692 0.0
C295 C 0.8129 0.76112 0.92493 0.0
C296 C 0.77586 0.77116 0.93315 0.0
C297 C 0.69433 0.70076 0.93251 0.0
C298 C 0.67462 0.65085 0.9314 0.0
C299 C 0.62906 0.62049 0.92373 0.0
C300 C 0.60225 0.64073 0.91744 0.0
C301 C 0.62102 0.69107 0.91931 0.0
C302 C 0.66706 0.72064 0.92678 0.0
C303 C 0.60991 0.56695 0.92211 0.0
C304 C 0.59254 0.7136 0.91335 0.0
C305 C 0.53578 0.59153 0.83818 0.0
C306 C 0.48974 0.56302 0.83071 0.0
C307 C 0.4485 0.53928 0.84035 0.0
C308 C 0.453 0.54385 0.85793 0.0
C309 C 0.41211 0.52087 0.86798 0.0
C310 C 0.41688 0.52473 0.88525 0.0
C311 C 0.46271 0.55185 0.89319 0.0
C312 C 0.46796 0.55528 0.91076 0.0
C313 C 0.51382 0.58415 0.91826 0.0
C314 C 0.55495 0.60944 0.90865 0.0
C315 C 0.55064 0.60517 0.89105 0.0
C316 C 0.59145 0.62894 0.881 0.0
C317 C 0.58673 0.62468 0.86369 0.0
C318 C 0.54104 0.59636 0.85576 0.0
C319 C 0.49945 0.57219 0.86565 0.0
C320 C 0.50428 0.57639 0.88331 0.0
C321 C 0.21393 0.40929 0.94398 0.0
C322 C 0.26092 0.40793 0.94475 0.0
O323 O 0.68799 0.67757 0.79256 0.0
O324 O 0.73924 0.72867 0.93948 0.0
O325 O 0.29893 0.45435 0.94843 0.0
O326 O 0.25567 0.42391 0.81647 0.0
H327 H 0.65546 0.70557 0.77799 0.0
H328 H 0.63268 0.62575 0.76625 0.0
H329 H 0.69513 0.64414 0.76278 0.0
H330 H 0.66666 0.67143 0.7515 0.0
H331 H 0.63775 0.71688 0.80426 0.0
H332 H 0.66224 0.59835 0.80743 0.0
H333 H 0.52512 0.6647 0.82112 0.0
H334 H 0.57966 0.72294 0.82018 0.0
H335 H 0.5637 0.69057 0.83928 0.0
H336 H 0.616 0.53242 0.82442 0.0
H337 H 0.55392 0.51804 0.82612 0.0
H338 H 0.596 0.54878 0.84314 0.0
H339 H 0.23843 0.37445 0.83469 0.0
H340 H 0.15007 0.34223 0.83212 0.0
H341 H 0.1603 0.38524 0.81635 0.0
H342 H 0.18438 0.40604 0.83721 0.0
H343 H 0.31473 0.39098 0.82412 0.0
H344 H 0.30456 0.51695 0.81699 0.0
H345 H 0.41247 0.43736 0.84912 0.0
H346 H 0.44413 0.45333 0.8299 0.0
H347 H 0.38863 0.39588 0.83132 0.0
H348 H 0.37014 0.59571 0.82279 0.0
H349 H 0.42907 0.60231 0.82012 0.0
H350 H 0.40597 0.59808 0.84063 0.0
H351 H 0.26522 0.39495 0.93222 0.0
H352 H 0.34764 0.41562 0.9348 0.0
H353 H 0.34484 0.54581 0.94411 0.0
H354 H 0.4237 0.44874 0.903 0.0
H355 H 0.41327 0.41546 0.92167 0.0
H356 H 0.46865 0.47258 0.91951 0.0
H357 H 0.40121 0.61968 0.93266 0.0
H358 H 0.42746 0.61441 0.91345 0.0
H359 H 0.46108 0.62753 0.93272 0.0
H360 H 0.76138 0.78464 0.92338 0.0
H361 H 0.84235 0.79441 0.91949 0.0
H362 H 0.79492 0.73319 0.91474 0.0
H363 H 0.82897 0.74785 0.93417 0.0
H364 H 0.69571 0.63589 0.93617 0.0
H365 H 0.68148 0.75913 0.92832 0.0
H366 H 0.60082 0.55446 0.90884 0.0
H367 H 0.57605 0.54733 0.92919 0.0
H368 H 0.63635 0.55723 0.92685 0.0
H369 H 0.60994 0.75236 0.91726 0.0
H370 H 0.55528 0.69408 0.91825 0.0
H371 H 0.58931 0.71045 0.89955 0.0
H372 H 0.48596 0.55927 0.81723 0.0
H373 H 0.37585 0.49946 0.86263 0.0
H374 H 0.38408 0.50614 0.8923 0.0
H375 H 0.51751 0.58718 0.93175 0.0
H376 H 0.62757 0.65105 0.8864 0.0
H377 H 0.61938 0.64382 0.85659 0.0
H378 H 0.18267 0.37309 0.94037 0.0
H379 H 0.21674 0.43498 0.9345 0.0
H380 H 0.20702 0.42121 0.95625 0.0
H381 H 0.03999 0.13996 0.08663 0.0
H382 H 0.05812 0.23909 0.04837 0.0
H383 H 0.04916 0.19952 0.10795 0.0
H384 H 0.06648 0.2984 0.06976 0.0
H385 H 0.15219 0.41012 0.113 0.0
H386 H 0.12965 0.34904 0.09061 0.0
H387 H 0.01386 0.24446 0.12027 0.0
H388 H 0.03701 0.30561 0.14276 0.0
C389 C 0.04502 0.17411 0.08274 0.0
C390 C 0.04871 0.18489 0.06579 0.0
C391 C 0.05007 0.20821 0.09498 0.0
C392 C 0.05895 0.25387 0.09056 0.0
C393 C 0.06043 0.26383 0.07357 0.0
C394 C 0.0553 0.22969 0.06132 0.0
C395 C 0.12138 0.37431 0.11458 0.0
C396 C 0.09589 0.36278 0.12951 0.0
C397 C 0.10834 0.33934 0.10175 0.0
C398 C 0.06982 0.2919 0.10363 0.0
C399 C 0.04389 0.28058 0.11848 0.0
C400 C 0.05689 0.31561 0.1313 0.0
H401 H 0.95518 0.09097 0.39677 0.0
H402 H 0.05296 0.1159 0.43819 0.0
H403 H 0.89816 0.09464 0.41598 0.0
H404 H 0.99611 0.11961 0.45729 0.0
H405 H 0.86556 0.08408 0.48867 0.0
H406 H 0.91349 0.06853 0.4686 0.0
H407 H 0.89964 0.16108 0.43394 0.0
H408 H 0.85177 0.17664 0.45402 0.0
C409 C 0.96426 0.09668 0.40997 0.0
C410 C 0.00867 0.10337 0.41596 0.0
C411 C 0.93175 0.09906 0.42094 0.0
C412 C 0.94277 0.10754 0.43812 0.0
C413 C 0.98643 0.11259 0.44414 0.0
C414 C 0.01912 0.11074 0.43318 0.0
C415 C 0.87212 0.10041 0.47664 0.0
C416 C 0.85418 0.13082 0.47278 0.0
C417 C 0.89976 0.09177 0.46521 0.0
C418 C 0.91014 0.11346 0.44969 0.0
C419 C 0.89153 0.14324 0.4457 0.0
C420 C 0.86419 0.15218 0.45719 0.0
H421 H 0.92823 0.98595 0.76206 0.0
H422 H 0.95462 0.89057 0.73076 0.0
H423 H 0.85806 0.91646 0.77345 0.0
H424 H 0.88401 0.82097 0.74214 0.0
H425 H 0.77481 0.70591 0.77651 0.0
H426 H 0.85103 0.77623 0.76838 0.0
H427 H 0.77701 0.85549 0.76175 0.0
H428 H 0.70118 0.78544 0.76981 0.0
C429 C 0.91931 0.95017 0.75768 0.0
C430 C 0.94682 0.94384 0.74539 0.0
C431 C 0.87895 0.91037 0.76417 0.0
C432 C 0.86531 0.8633 0.7586 0.0
C433 C 0.89384 0.85682 0.74677 0.0
C434 C 0.93412 0.8967 0.74019 0.0
C435 C 0.77508 0.73855 0.77341 0.0
C436 C 0.73209 0.74023 0.77377 0.0
C437 C 0.81855 0.77864 0.7687 0.0
C438 C 0.81998 0.82134 0.76442 0.0
C439 C 0.77721 0.82331 0.76516 0.0
C440 C 0.73374 0.78315 0.76972 0.0
H441 H 0.08877 0.96048 0.06402 0.0
H442 H 0.11106 0.05737 0.10596 0.0
H443 H 0.07185 0.89645 0.08306 0.0
H444 H 0.09281 0.99316 0.12491 0.0
H445 H 0.07671 0.87517 0.15701 0.0
H446 H 0.11404 0.93913 0.13701 0.0
H447 H 0.00409 0.84731 0.10012 0.0
H448 H 0.96795 0.78315 0.11998 0.0
C449 C 0.09074 0.96835 0.0773 0.0
C450 C 0.10067 0.01389 0.08346 0.0
C451 C 0.0807 0.93152 0.08821 0.0
C452 C 0.08022 0.93937 0.10551 0.0
C453 C 0.09319 0.98584 0.11168 0.0
C454 C 0.10346 0.02271 0.10079 0.0
C455 C 0.0612 0.8685 0.14451 0.0
C456 C 0.01956 0.82424 0.14001 0.0
C457 C 0.08234 0.90518 0.13309 0.0
C458 C 0.06199 0.89852 0.11696 0.0
C459 C 0.02125 0.85353 0.11232 0.0
C460 C 0.0003 0.81681 0.12371 0.0
H461 H 0.14517 0.99823 0.3989 0.0
H462 H 0.21972 0.15336 0.40601 0.0
H463 H 0.19816 0.9944 0.4196 0.0
H464 H 0.27421 0.14965 0.42671 0.0
H465 H 0.30105 0.10542 0.47937 0.0
H466 H 0.26575 0.12108 0.45503 0.0
H467 H 0.27835 0.01242 0.42639 0.0
H468 H 0.31165 0.99553 0.45087 0.0
C469 C 0.1735 0.03171 0.40471 0.0
C470 C 0.17796 0.07607 0.40093 0.0
C471 C 0.20429 0.02955 0.41651 0.0
C472 C 0.24052 0.07172 0.42485 0.0
C473 C 0.24634 0.11646 0.4206 0.0
C474 C 0.21541 0.11864 0.40869 0.0
C475 C 0.29713 0.08566 0.46775 0.0
C476 C 0.30951 0.04961 0.467 0.0
C477 C 0.27718 0.09478 0.45378 0.0
C478 C 0.26901 0.06785 0.43877 0.0
C479 C 0.28356 0.03337 0.43782 0.0
C480 C 0.30306 0.02397 0.45181 0.0
H481 H 0.11927 0.09568 0.77683 0.0
H482 H 0.1584 0.18707 0.73458 0.0
H483 H 0.15064 0.16631 0.79562 0.0
H484 H 0.19223 0.25813 0.7533 0.0
H485 H 0.18841 0.36622 0.79055 0.0
H486 H 0.16608 0.29813 0.7712 0.0
H487 H 0.21786 0.23589 0.80704 0.0
H488 H 0.23712 0.30262 0.82672 0.0
C489 C 0.13552 0.13101 0.77157 0.0
C490 C 0.13602 0.13583 0.75425 0.0
C491 C 0.15382 0.17167 0.78234 0.0
C492 C 0.1738 0.21818 0.77604 0.0
C493 C 0.17611 0.22295 0.75865 0.0
C494 C 0.15706 0.18222 0.74789 0.0
C495 C 0.19486 0.33785 0.79425 0.0
C496 C 0.2138 0.33931 0.81022 0.0
C497 C 0.18261 0.29901 0.7831 0.0
C498 C 0.18987 0.26112 0.78753 0.0
C499 C 0.21066 0.26372 0.8033 0.0
C500 C 0.22211 0.30216 0.81455 0.0
H501 H 0.9555 0.12652 0.71323 0.0
H502 H 0.98409 0.0656 0.66915 0.0
H503 H 0.9042 0.14588 0.69676 0.0
H504 H 0.93209 0.08486 0.65261 0.0
H505 H 0.88338 0.18383 0.6278 0.0
H506 H 0.93216 0.15815 0.64308 0.0
H507 H 0.8256 0.10392 0.68156 0.0
H508 H 0.77726 0.13012 0.66637 0.0
C509 C 0.95083 0.11721 0.70001 0.0
C510 C 0.97395 0.09457 0.69249 0.0
C511 C 0.92107 0.12798 0.6906 0.0
C512 C 0.91387 0.11664 0.67341 0.0
C513 C 0.93718 0.09424 0.66582 0.0
C514 C 0.96677 0.08307 0.6753 0.0
C515 C 0.87017 0.1658 0.63941 0.0
C516 C 0.82631 0.15849 0.64583 0.0
C517 C 0.89797 0.15099 0.64812 0.0
C518 C 0.88273 0.12908 0.66352 0.0
C519 C 0.83853 0.12117 0.6698 0.0
C520 C 0.8107 0.13585 0.66108 0.0
H521 H 0.97013 0.94243 0.01467 0.0
H522 H 0.92657 0.03875 0.99522 0.0
H523 H 0.91443 0.87894 0.99516 0.0
H524 H 0.86921 0.97437 0.97602 0.0
H525 H 0.82237 0.86877 0.93026 0.0
H526 H 0.86996 0.93202 0.95133 0.0
H527 H 0.83249 0.82364 0.98802 0.0
H528 H 0.78701 0.76057 0.96672 0.0
C529 C 0.94811 0.94987 0.00638 0.0
C530 C 0.95303 0.9958 0.00645 0.0
C531 C 0.9158 0.91323 0.99525 0.0
C532 C 0.88719 0.92138 0.98397 0.0
C533 C 0.89119 0.967 0.98434 0.0
C534 C 0.92387 0.00385 0.99542 0.0
C535 C 0.82384 0.85866 0.9429 0.0
C536 C 0.80034 0.80979 0.94687 0.0
C537 C 0.8509 0.89486 0.95501 0.0
C538 C 0.85511 0.88305 0.97142 0.0
C539 C 0.83063 0.83411 0.97547 0.0
C540 C 0.80403 0.7979 0.9633 0.0
H541 H 0.08574 0.99586 0.33776 0.0
H542 H 0.9372 0.92022 0.3536 0.0
H543 H 0.07275 0.92246 0.32333 0.0
H544 H 0.92445 0.84666 0.33923 0.0
H545 H 0.90868 0.732 0.30062 0.0
H546 H 0.92129 0.80984 0.31111 0.0
H547 H 0.05929 0.84413 0.3329 0.0
H548 H 0.04667 0.7666 0.3224 0.0
C549 C 0.05017 0.96371 0.33805 0.0
C550 C 0.01256 0.9638 0.34694 0.0
C551 C 0.04285 0.92162 0.32984 0.0
C552 C 0.99771 0.87875 0.33024 0.0
C553 C 0.95955 0.87926 0.33859 0.0
C554 C 0.96694 0.92133 0.3469 0.0
C555 C 0.94187 0.7565 0.30752 0.0
C556 C 0.97674 0.74337 0.31069 0.0
C557 C 0.94897 0.80085 0.31358 0.0
C558 C 0.99124 0.83303 0.32283 0.0
C559 C 0.02662 0.82035 0.32563 0.0
C560 C 0.01935 0.77592 0.31968 0.0
H561 H 0.13079 0.02508 0.65195 0.0
H562 H 0.17448 0.00868 0.7012 0.0
H563 H 0.19443 0.01385 0.63994 0.0
H564 H 0.23759 0.9972 0.68918 0.0
H565 H 0.37815 0.03228 0.66426 0.0
H566 H 0.31498 0.04633 0.67487 0.0
H567 H 0.21562 0.94906 0.63639 0.0
H568 H 0.27902 0.93512 0.62577 0.0
C569 C 0.15379 0.01892 0.66021 0.0
C570 C 0.14759 0.01788 0.67754 0.0
C571 C 0.19011 0.01233 0.65332 0.0
C572 C 0.22118 0.00497 0.66363 0.0
C573 C 0.21469 0.00355 0.68093 0.0
C574 C 0.17827 0.0098 0.6878 0.0
C575 C 0.34302 0.01451 0.65793 0.0
C576 C 0.33378 0.98335 0.64401 0.0
C577 C 0.30675 0.02219 0.66408 0.0
C578 C 0.26032 0.99872 0.65648 0.0
C579 C 0.25122 0.9681 0.64238 0.0
C580 C 0.28747 0.96015 0.6363 0.0
H581 H 0.18182 0.15093 0.00172 0.0
H582 H 0.19264 0.26001 0.03694 0.0
H583 H 0.21825 0.21128 0.98055 0.0
H584 H 0.22596 0.31963 0.01568 0.0
H585 H 0.30039 0.42693 0.97704 0.0
H586 H 0.28658 0.36917 0.99821 0.0
H587 H 0.19476 0.25214 0.96328 0.0
H588 H 0.21168 0.30997 0.94185 0.0
C589 C 0.19238 0.18795 0.00495 0.0
C590 C 0.18428 0.20074 0.02094 0.0
C591 C 0.21283 0.22254 0.99277 0.0
C592 C 0.22451 0.27049 0.99621 0.0
C593 C 0.21828 0.28349 0.0125 0.0
C594 C 0.19887 0.24913 0.02475 0.0
C595 C 0.27825 0.38882 0.97376 0.0
C596 C 0.25733 0.37295 0.95769 0.0
C597 C 0.26979 0.35556 0.986 0.0
C598 C 0.23911 0.30569 0.98263 0.0
C599 C 0.21931 0.28998 0.96639 0.0
C600 C 0.22862 0.32316 0.95408 0.0
H601 H 0.97341 0.12708 0.33286 0.0
H602 H 0.11972 0.24198 0.34479 0.0
H603 H 0.96071 0.18038 0.31586 0.0
H604 H 0.10703 0.29587 0.32718 0.0
H605 H 0.05438 0.41436 0.30751 0.0
H606 H 0.07445 0.35152 0.32684 0.0
H607 H 0.96363 0.20888 0.28941 0.0
H608 H 0.94081 0.26759 0.26939 0.0
C609 C 0.00317 0.16371 0.33171 0.0
C610 C 0.04764 0.18021 0.34019 0.0
C611 C 0.99601 0.19428 0.32176 0.0
C612 C 0.03309 0.24219 0.31996 0.0
C613 C 0.07773 0.25907 0.32839 0.0
C614 C 0.08507 0.2282 0.33839 0.0
C615 C 0.03639 0.376 0.3046 0.0
C616 C 0.002 0.34875 0.28457 0.0
C617 C 0.05058 0.3371 0.31597 0.0
C618 C 0.02398 0.27408 0.30966 0.0
C619 C 0.98018 0.24696 0.29257 0.0
C620 C 0.96372 0.28267 0.28047 0.0
loop_
_geom_bond_atom_site_label_1
_geom_bond_atom_site_label_2
_geom_bond_distance
_geom_bond_site_symmetry_2
_ccdc_geom_bond_type
C0 O1 1.160 . S
C0 O7 1.185 . S
O1 C0 1.160 . S
O2 Zn3 1.899 . S
O2 C10 1.284 . S
Zn3 O2 1.899 . S
Zn3 O4 2.032 1_455 S
Zn3 O7 2.086 . S
Zn3 O12 1.977 . S
O4 Zn3 2.032 1_655 S
O4 C8 1.278 . S
C5 O6 1.203 . S
C5 O12 1.267 . S
O6 C5 1.203 . S
O7 C0 1.185 . S
O7 Zn3 2.086 . S
C8 O4 1.278 . S
C8 O9 1.211 . S
O9 C8 1.211 . S
C10 O2 1.284 . S
C10 O11 1.273 1_455 S
O11 C10 1.273 1_655 S
O12 Zn3 1.977 . S
O12 C5 1.267 . S
C13 O14 1.160 . S
C13 O20 1.185 . S
O14 C13 1.160 . S
O15 Zn16 1.899 . S
O15 C23 1.284 . S
Zn16 O15 1.899 . S
Zn16 O17 2.032 . S
Zn16 O20 2.086 . S
Zn16 O25 1.977 . S
O17 Zn16 2.032 . S
O17 C21 1.278 . S
C18 O19 1.203 . S
C18 O25 1.267 . S
O19 C18 1.203 . S
O20 C13 1.185 . S
O20 Zn16 2.086 . S
C21 O17 1.278 . S
C21 O22 1.211 . S
O22 C21 1.211 . S
C23 O15 1.284 . S
C23 O24 1.273 . S
O24 C23 1.273 . S
O25 Zn16 1.977 . S
O25 C18 1.267 . S
C26 O27 1.160 . S
C26 O33 1.185 . S
O27 C26 1.160 . S
O28 Zn29 1.879 1_655 S
O28 C36 1.304 . S
Zn29 O28 1.879 1_455 S
Zn29 O30 2.032 . S
Zn29 O33 2.086 . S
Zn29 O38 1.977 1_545 S
O30 Zn29 2.032 . S
O30 C34 1.278 . S
C31 O32 1.203 . S
C31 O38 1.267 1_655 S
O32 C31 1.203 . S
O33 C26 1.185 . S
O33 Zn29 2.086 . S
C34 O30 1.278 . S
C34 O35 1.211 . S
O35 C34 1.211 . S
C36 O28 1.304 . S
C36 O37 1.273 1_655 S
O37 C36 1.273 1_455 S
O38 Zn29 1.977 1_565 S
O38 C31 1.267 1_455 S
C39 C40 1.560 1_655 S
C39 H100 0.959 . S
C39 H101 0.959 . S
C39 H102 0.960 . S
C40 C39 1.560 1_455 S
C40 O95 1.426 1_455 S
C40 H99 0.980 . S
C41 C42 1.407 . S
C41 C46 1.418 1_455 S
C41 O95 1.334 1_455 S
C42 C41 1.407 . S
C42 C43 1.360 . S
C42 H103 0.929 . S
C43 C42 1.360 . S
C43 C44 1.401 . S
C43 C47 1.527 . S
C44 C43 1.401 . S
C44 C45 1.405 1_455 S
C44 C77 1.587 . S
C45 C44 1.405 1_655 S
C45 C46 1.332 . S
C45 C48 1.496 . S
C46 C41 1.418 1_655 S
C46 C45 1.332 . S
C46 H104 0.929 . S
C47 C43 1.527 . S
C47 H105 0.959 . S
C47 H106 0.961 . S
C47 H107 0.961 . S
C48 C45 1.496 . S
C48 H108 0.960 . S
C48 H109 0.960 . S
C48 H110 0.961 . S
C49 C50 1.517 . S
C49 H112 0.961 . S
C49 H113 0.960 . S
C49 H114 0.959 . S
C50 C49 1.517 . S
C50 O98 1.468 . S
C50 H111 0.980 . S
C51 C52 1.349 . S
C51 C56 1.367 . S
C51 O98 1.408 . S
C52 C51 1.349 . S
C52 C53 1.407 . S
C52 H115 0.930 . S
C53 C52 1.407 . S
C53 C54 1.449 . S
C53 C57 1.535 1_455 S
C54 C53 1.449 . S
C54 C55 1.384 . S
C54 C79 1.553 . S
C55 C54 1.384 . S
C55 C56 1.364 . S
C55 C58 1.450 . S
C56 C51 1.367 . S
C56 C55 1.364 . S
C56 H116 0.931 . S
C57 C53 1.535 1_655 S
C57 H117 0.959 . S
C57 H118 0.961 . S
C57 H119 0.959 . S
C58 C55 1.450 . S
C58 H120 0.960 . S
C58 H121 0.960 . S
C58 H122 0.960 . S
C59 C60 1.309 . S
C59 C64 1.304 . S
C59 O97 1.435 . S
C60 C59 1.309 . S
C60 C61 1.476 . S
C60 H124 0.935 . S
C61 C60 1.476 . S
C61 C62 1.400 . S
C61 C65 1.567 1_455 S
C62 C61 1.400 . S
C62 C63 1.373 . S
C62 C84 1.432 . S
C63 C62 1.373 . S
C63 C64 1.339 . S
C63 C66 1.530 . S
C64 C59 1.304 . S
C64 C63 1.339 . S
C64 H125 0.930 . S
C65 C61 1.567 1_655 S
C65 H126 0.961 . S
C65 H127 0.960 . S
C65 H128 0.958 . S
C66 C63 1.530 . S
C66 H129 0.961 . S
C66 H130 0.960 . S
C66 H131 0.960 . S
C67 C68 1.530 1_655 S
C67 H133 0.960 1_655 S
C67 H134 0.961 . S
C67 H135 0.959 . S
C68 C67 1.530 1_455 S
C68 O96 1.412 1_455 S
C68 H132 0.980 . S
C69 C70 1.288 . S
C69 C74 1.377 1_655 S
C69 O96 1.393 . S
C70 C69 1.288 . S
C70 C71 1.369 . S
C70 H136 0.932 . S
C71 C70 1.369 . S
C71 C72 1.398 1_655 S
C71 C75 1.527 . S
C72 C71 1.398 1_455 S
C72 C73 1.380 . S
C72 C86 1.497 . S
C73 C72 1.380 . S
C73 C74 1.383 . S
C73 C76 1.603 . S
C74 C69 1.377 1_455 S
C74 C73 1.383 . S
C74 H137 0.929 . S
C75 C71 1.527 . S
C75 H138 0.961 . S
C75 H139 0.959 . S
C75 H140 0.959 . S
C76 C73 1.603 . S
C76 H141 0.960 . S
C76 H142 0.962 . S
C76 H143 0.961 . S
C77 C44 1.587 . S
C77 C78 1.360 . S
C77 C90 1.412 . S
C78 C77 1.360 . S
C78 C79 1.365 . S
C78 H144 0.929 . S
C79 C54 1.553 . S
C79 C78 1.365 . S
C79 C80 1.404 . S
C80 C79 1.404 . S
C80 C81 1.395 . S
C80 C91 1.451 . S
C81 C80 1.395 . S
C81 C82 1.322 . S
C81 H145 0.930 . S
C82 C81 1.322 . S
C82 C83 1.459 . S
C82 H146 0.929 . S
C83 C82 1.459 . S
C83 C84 1.445 . S
C83 C92 1.395 . S
C84 C62 1.432 . S
C84 C83 1.445 . S
C84 C85 1.370 . S
C85 C84 1.370 . S
C85 C86 1.438 . S
C85 H147 0.930 . S
C86 C72 1.497 . S
C86 C85 1.438 . S
C86 C87 1.360 . S
C87 C86 1.360 . S
C87 C88 1.401 . S
C87 C92 1.446 . S
C88 C87 1.401 . S
C88 C89 1.347 . S
C88 H148 0.929 . S
C89 C88 1.347 . S
C89 C90 1.455 . S
C89 H149 0.930 . S
C90 C77 1.412 . S
C90 C89 1.455 . S
C90 C91 1.331 . S
C91 C80 1.451 . S
C91 C90 1.331 . S
C91 C92 1.497 . S
C92 C83 1.395 . S
C92 C87 1.446 . S
C92 C91 1.497 . S
C93 C94 1.582 . S
C93 H150 0.962 . S
C93 H151 0.959 . S
C93 H152 0.958 . S
C94 C93 1.582 . S
C94 O97 1.458 . S
C94 H123 0.980 . S
O95 C40 1.426 1_655 S
O95 C41 1.334 1_655 S
O96 C68 1.412 1_655 S
O96 C69 1.393 . S
O97 C59 1.435 . S
O97 C94 1.458 . S
O98 C50 1.468 . S
O98 C51 1.408 . S
H99 C40 0.980 . S
H100 C39 0.959 . S
H101 C39 0.959 . S
H102 C39 0.960 . S
H103 C42 0.929 . S
H104 C46 0.929 . S
H105 C47 0.959 . S
H106 C47 0.961 . S
H107 C47 0.961 . S
H108 C48 0.960 . S
H109 C48 0.960 . S
H110 C48 0.961 . S
H111 C50 0.980 . S
H112 C49 0.961 . S
H113 C49 0.960 . S
H114 C49 0.959 . S
H115 C52 0.930 . S
H116 C56 0.931 . S
H117 C57 0.959 . S
H118 C57 0.961 . S
H119 C57 0.959 . S
H120 C58 0.960 . S
H121 C58 0.960 . S
H122 C58 0.960 . S
H123 C94 0.980 . S
H124 C60 0.935 . S
H125 C64 0.930 . S
H126 C65 0.961 . S
H127 C65 0.960 . S
H128 C65 0.958 . S
H129 C66 0.961 . S
H130 C66 0.960 . S
H131 C66 0.960 . S
H132 C68 0.980 . S
H133 C67 0.960 1_455 S
H134 C67 0.961 . S
H135 C67 0.959 . S
H136 C70 0.932 . S
H137 C74 0.929 . S
H138 C75 0.961 . S
H139 C75 0.959 . S
H140 C75 0.959 . S
H141 C76 0.960 . S
H142 C76 0.962 . S
H143 C76 0.961 . S
H144 C78 0.929 . S
H145 C81 0.930 . S
H146 C82 0.929 . S
H147 C85 0.930 . S
H148 C88 0.929 . S
H149 C89 0.930 . S
H150 C93 0.962 . S
H151 C93 0.959 . S
H152 C93 0.958 . S
C153 C154 1.560 1_565 S
C153 H214 0.959 . S
C153 H215 0.959 . S
C153 H216 0.960 1_565 S
C154 C153 1.560 1_545 S
C154 O209 1.426 . S
C154 H213 0.980 . S
C155 C156 1.407 . S
C155 C160 1.418 1_545 S
C155 O209 1.334 . S
C156 C155 1.407 . S
C156 C157 1.360 . S
C156 H217 0.929 . S
C157 C156 1.360 . S
C157 C158 1.401 . S
C157 C161 1.527 . S
C158 C157 1.401 . S
C158 C159 1.405 . S
C158 C191 1.587 . S
C159 C158 1.405 . S
C159 C160 1.332 1_545 S
C159 C162 1.496 1_545 S
C160 C155 1.418 1_565 S
C160 C159 1.332 1_565 S
C160 H218 0.929 . S
C161 C157 1.527 . S
C161 H219 0.959 . S
C161 H220 0.961 . S
C161 H221 0.961 . S
C162 C159 1.496 1_565 S
C162 H222 0.960 . S
C162 H223 0.960 . S
C162 H224 0.961 . S
C163 C164 1.517 . S
C163 H226 0.961 . S
C163 H227 0.960 . S
C163 H228 0.959 . S
C164 C163 1.517 . S
C164 O212 1.468 . S
C164 H225 0.980 . S
C165 C166 1.349 . S
C165 C170 1.367 . S
C165 O212 1.408 . S
C166 C165 1.349 . S
C166 C167 1.407 . S
C166 H229 0.930 . S
C167 C166 1.407 . S
C167 C168 1.449 . S
C167 C171 1.535 . S
C168 C167 1.449 . S
C168 C169 1.384 . S
C168 C193 1.553 . S
C169 C168 1.384 . S
C169 C170 1.364 . S
C169 C172 1.450 . S
C170 C165 1.367 . S
C170 C169 1.364 . S
C170 H230 0.931 . S
C171 C167 1.535 . S
C171 H231 0.959 . S
C171 H232 0.961 1_545 S
C171 H233 0.959 1_545 S
C172 C169 1.450 . S
C172 H234 0.960 . S
C172 H235 0.960 . S
C172 H236 0.960 . S
C173 C174 1.309 . S
C173 C178 1.304 . S
C173 O211 1.435 . S
C174 C173 1.309 . S
C174 C175 1.476 . S
C174 H238 0.930 . S
C175 C174 1.476 . S
C175 C176 1.400 . S
C175 C179 1.567 . S
C176 C175 1.400 . S
C176 C177 1.373 . S
C176 C198 1.432 . S
C177 C176 1.373 . S
C177 C178 1.339 . S
C177 C180 1.530 . S
C178 C173 1.304 . S
C178 C177 1.339 . S
C178 H239 0.930 . S
C179 C175 1.567 . S
C179 H240 0.961 . S
C179 H241 0.960 1_545 S
C179 H242 0.958 1_545 S
C180 C177 1.530 . S
C180 H243 0.961 . S
C180 H244 0.960 . S
C180 H245 0.960 . S
C181 C182 1.530 . S
C181 H247 0.961 . S
C181 H248 0.961 . S
C181 H249 0.959 . S
C182 C181 1.530 . S
C182 O210 1.412 . S
C182 H246 0.980 . S
C183 C184 1.288 . S
C183 C188 1.377 . S
C183 O210 1.393 . S
C184 C183 1.288 . S
C184 C185 1.369 . S
C184 H250 0.932 1_545 S
C185 C184 1.369 . S
C185 C186 1.398 . S
C185 C189 1.527 1_545 S
C186 C185 1.398 . S
C186 C187 1.380 . S
C186 C200 1.497 . S
C187 C186 1.380 . S
C187 C188 1.383 . S
C187 C190 1.603 . S
C188 C183 1.377 . S
C188 C187 1.383 . S
C188 H251 0.929 . S
C189 C185 1.527 1_565 S
C189 H252 0.961 . S
C189 H253 0.959 . S
C189 H254 0.959 . S
C190 C187 1.603 . S
C190 H255 0.960 . S
C190 H256 0.962 . S
C190 H257 0.961 . S
C191 C158 1.587 . S
C191 C192 1.360 . S
C191 C204 1.412 . S
C192 C191 1.360 . S
C192 C193 1.365 . S
C192 H258 0.929 . S
C193 C168 1.553 . S
C193 C192 1.365 . S
C193 C194 1.404 . S
C194 C193 1.404 . S
C194 C195 1.395 . S
C194 C205 1.451 . S
C195 C194 1.395 . S
C195 C196 1.322 . S
C195 H259 0.930 . S
C196 C195 1.322 . S
C196 C197 1.459 . S
C196 H260 0.929 . S
C197 C196 1.459 . S
C197 C198 1.445 . S
C197 C206 1.395 . S
C198 C176 1.432 . S
C198 C197 1.445 . S
C198 C199 1.370 . S
C199 C198 1.370 . S
C199 C200 1.438 . S
C199 H261 0.930 . S
C200 C186 1.497 . S
C200 C199 1.438 . S
C200 C201 1.360 . S
C201 C200 1.360 . S
C201 C202 1.401 . S
C201 C206 1.446 . S
C202 C201 1.401 . S
C202 C203 1.347 . S
C202 H262 0.929 . S
C203 C202 1.347 . S
C203 C204 1.455 . S
C203 H263 0.930 . S
C204 C191 1.412 . S
C204 C203 1.455 . S
C204 C205 1.331 . S
C205 C194 1.451 . S
C205 C204 1.331 . S
C205 C206 1.497 . S
C206 C197 1.395 . S
C206 C201 1.446 . S
C206 C205 1.497 . S
C207 C208 1.582 . S
C207 H264 0.962 . S
C207 H265 0.959 . S
C207 H266 0.958 . S
C208 C207 1.582 . S
C208 O211 1.458 . S
C208 H237 0.980 . S
O209 C154 1.426 . S
O209 C155 1.334 . S
O210 C182 1.412 . S
O210 C183 1.393 . S
O211 C173 1.435 . S
O211 C208 1.458 . S
O212 C164 1.468 . S
O212 C165 1.408 . S
H213 C154 0.980 . S
H214 C153 0.959 . S
H215 C153 0.959 . S
H216 C153 0.960 1_545 S
H217 C156 0.929 . S
H218 C160 0.929 . S
H219 C161 0.959 . S
H220 C161 0.961 . S
H221 C161 0.961 . S
H222 C162 0.960 . S
H223 C162 0.960 . S
H224 C162 0.961 . S
H225 C164 0.980 . S
H226 C163 0.961 . S
H227 C163 0.960 . S
H228 C163 0.959 . S
H229 C166 0.930 . S
H230 C170 0.931 . S
H231 C171 0.959 . S
H232 C171 0.961 1_565 S
H233 C171 0.959 1_565 S
H234 C172 0.960 . S
H235 C172 0.960 . S
H236 C172 0.960 . S
H237 C208 0.980 . S
H238 C174 0.930 . S
H239 C178 0.930 . S
H240 C179 0.961 . S
H241 C179 0.960 1_565 S
H242 C179 0.958 1_565 S
H243 C180 0.961 . S
H244 C180 0.960 . S
H245 C180 0.960 . S
H246 C182 0.980 . S
H247 C181 0.961 . S
H248 C181 0.961 . S
H249 C181 0.959 . S
H250 C184 0.932 1_565 S
H251 C188 0.929 . S
H252 C189 0.961 . S
H253 C189 0.959 . S
H254 C189 0.959 . S
H255 C190 0.960 . S
H256 C190 0.962 . S
H257 C190 0.961 . S
H258 C192 0.929 . S
H259 C195 0.930 . S
H260 C196 0.929 . S
H261 C199 0.930 . S
H262 C202 0.929 . S
H263 C203 0.930 . S
H264 C207 0.962 . S
H265 C207 0.959 . S
H266 C207 0.958 . S
C267 C268 1.560 . S
C267 H328 0.959 . S
C267 H329 0.959 . S
C267 H330 0.960 . S
C268 C267 1.560 . S
C268 O323 1.426 . S
C268 H327 0.980 . S
C269 C270 1.407 . S
C269 C274 1.418 . S
C269 O323 1.334 . S
C270 C269 1.407 . S
C270 C271 1.360 . S
C270 H331 0.929 . S
C271 C270 1.360 . S
C271 C272 1.401 . S
C271 C275 1.527 . S
C272 C271 1.401 . S
C272 C273 1.405 . S
C272 C305 1.587 . S
C273 C272 1.405 . S
C273 C274 1.332 . S
C273 C276 1.496 . S
C274 C269 1.418 . S
C274 C273 1.332 . S
C274 H332 0.929 . S
C275 C271 1.527 . S
C275 H333 0.959 . S
C275 H334 0.961 . S
C275 H335 0.961 . S
C276 C273 1.496 . S
C276 H336 0.960 . S
C276 H337 0.960 . S
C276 H338 0.961 . S
C277 C278 1.517 . S
C277 H340 0.961 . S
C277 H341 0.960 . S
C277 H342 0.959 . S
C278 C277 1.517 . S
C278 O326 1.468 . S
C278 H339 0.980 . S
C279 C280 1.349 . S
C279 C284 1.367 . S
C279 O326 1.408 . S
C280 C279 1.349 . S
C280 C281 1.407 . S
C280 H343 0.930 . S
C281 C280 1.407 . S
C281 C282 1.449 . S
C281 C285 1.535 . S
C282 C281 1.449 . S
C282 C283 1.384 . S
C282 C307 1.553 . S
C283 C282 1.384 . S
C283 C284 1.364 . S
C283 C286 1.450 . S
C284 C279 1.367 . S
C284 C283 1.364 . S
C284 H344 0.931 . S
C285 C281 1.535 . S
C285 H345 0.959 . S
C285 H346 0.961 . S
C285 H347 0.959 . S
C286 C283 1.450 . S
C286 H348 0.960 . S
C286 H349 0.960 . S
C286 H350 0.960 . S
C287 C288 1.309 . S
C287 C292 1.304 . S
C287 O325 1.435 . S
C288 C287 1.309 . S
C288 C289 1.476 . S
C288 H352 0.930 . S
C289 C288 1.476 . S
C289 C290 1.400 . S
C289 C293 1.567 . S
C290 C289 1.400 . S
C290 C291 1.373 . S
C290 C312 1.432 . S
C291 C290 1.373 . S
C291 C292 1.339 . S
C291 C294 1.530 . S
C292 C287 1.304 . S
C292 C291 1.339 . S
C292 H353 0.930 . S
C293 C289 1.567 . S
C293 H354 0.961 . S
C293 H355 0.960 . S
C293 H356 0.958 . S
C294 C291 1.530 . S
C294 H357 0.961 . S
C294 H358 0.960 . S
C294 H359 0.960 . S
C295 C296 1.530 . S
C295 H361 0.961 . S
C295 H362 0.961 . S
C295 H363 0.959 . S
C296 C295 1.530 . S
C296 O324 1.412 . S
C296 H360 0.980 . S
C297 C298 1.288 . S
C297 C302 1.377 . S
C297 O324 1.393 . S
C298 C297 1.288 . S
C298 C299 1.369 . S
C298 H364 0.932 . S
C299 C298 1.369 . S
C299 C300 1.398 . S
C299 C303 1.527 . S
C300 C299 1.398 . S
C300 C301 1.380 . S
C300 C314 1.497 . S
C301 C300 1.380 . S
C301 C302 1.383 . S
C301 C304 1.603 . S
C302 C297 1.377 . S
C302 C301 1.383 . S
C302 H365 0.929 . S
C303 C299 1.527 . S
C303 H366 0.961 . S
C303 H367 0.959 . S
C303 H368 0.959 . S
C304 C301 1.603 . S
C304 H369 0.960 . S
C304 H370 0.962 . S
C304 H371 0.961 . S
C305 C272 1.587 . S
C305 C306 1.360 . S
C305 C318 1.412 . S
C306 C305 1.360 . S
C306 C307 1.365 . S
C306 H372 0.929 . S
C307 C282 1.553 . S
C307 C306 1.365 . S
C307 C308 1.404 . S
C308 C307 1.404 . S
C308 C309 1.395 . S
C308 C319 1.451 . S
C309 C308 1.395 . S
C309 C310 1.322 . S
C309 H373 0.930 . S
C310 C309 1.322 . S
C310 C311 1.459 . S
C310 H374 0.929 . S
C311 C310 1.459 . S
C311 C312 1.445 . S
C311 C320 1.395 . S
C312 C290 1.432 . S
C312 C311 1.445 . S
C312 C313 1.370 . S
C313 C312 1.370 . S
C313 C314 1.438 . S
C313 H375 0.930 . S
C314 C300 1.497 . S
C314 C313 1.438 . S
C314 C315 1.360 . S
C315 C314 1.360 . S
C315 C316 1.401 . S
C315 C320 1.446 . S
C316 C315 1.401 . S
C316 C317 1.347 . S
C316 H376 0.929 . S
C317 C316 1.347 . S
C317 C318 1.455 . S
C317 H377 0.930 . S
C318 C305 1.412 . S
C318 C317 1.455 . S
C318 C319 1.331 . S
C319 C308 1.451 . S
C319 C318 1.331 . S
C319 C320 1.497 . S
C320 C311 1.395 . S
C320 C315 1.446 . S
C320 C319 1.497 . S
C321 C322 1.582 . S
C321 H378 0.962 . S
C321 H379 0.959 . S
C321 H380 0.958 . S
C322 C321 1.582 . S
C322 O325 1.458 . S
C322 H351 0.980 . S
O323 C268 1.426 . S
O323 C269 1.334 . S
O324 C296 1.412 . S
O324 C297 1.393 . S
O325 C287 1.435 . S
O325 C322 1.458 . S
O326 C278 1.468 . S
O326 C279 1.408 . S
H327 C268 0.980 . S
H328 C267 0.959 . S
H329 C267 0.959 . S
H330 C267 0.960 . S
H331 C270 0.929 . S
H332 C274 0.929 . S
H333 C275 0.959 . S
H334 C275 0.961 . S
H335 C275 0.961 . S
H336 C276 0.960 . S
H337 C276 0.960 . S
H338 C276 0.961 . S
H339 C278 0.980 . S
H340 C277 0.961 . S
H341 C277 0.960 . S
H342 C277 0.959 . S
H343 C280 0.930 . S
H344 C284 0.931 . S
H345 C285 0.959 . S
H346 C285 0.961 . S
H347 C285 0.959 . S
H348 C286 0.960 . S
H349 C286 0.960 . S
H350 C286 0.960 . S
H351 C322 0.980 . S
H352 C288 0.930 . S
H353 C292 0.930 . S
H354 C293 0.961 . S
H355 C293 0.960 . S
H356 C293 0.958 . S
H357 C294 0.961 . S
H358 C294 0.960 . S
H359 C294 0.960 . S
H360 C296 0.980 . S
H361 C295 0.961 . S
H362 C295 0.961 . S
H363 C295 0.959 . S
H364 C298 0.932 . S
H365 C302 0.929 . S
H366 C303 0.961 . S
H367 C303 0.959 . S
H368 C303 0.959 . S
H369 C304 0.960 . S
H370 C304 0.962 . S
H371 C304 0.961 . S
H372 C306 0.929 . S
H373 C309 0.930 . S
H374 C310 0.929 . S
H375 C313 0.930 . S
H376 C316 0.929 . S
H377 C317 0.930 . S
H378 C321 0.962 . S
H379 C321 0.959 . S
H380 C321 0.958 . S
H381 C389 0.950 . S
H382 C394 0.950 . S
H383 C391 0.950 . S
H384 C393 0.950 . S
H385 C395 0.950 1_655 S
H386 C397 0.950 . S
H387 C399 0.950 . S
H388 C400 0.950 . S
C389 H381 0.950 . S
C389 C390 1.386 . S
C389 C391 1.391 . S
C390 C389 1.386 . S
C390 C394 1.393 . S
C391 H383 0.950 . S
C391 C389 1.391 . S
C391 C392 1.400 . S
C392 C391 1.400 . S
C392 C393 1.398 . S
C392 C398 1.491 . S
C393 H384 0.950 . S
C393 C392 1.398 . S
C393 C394 1.391 . S
C394 H382 0.950 . S
C394 C390 1.393 . S
C394 C393 1.391 . S
C395 H385 0.950 1_455 S
C395 C396 1.386 . S
C395 C397 1.391 . S
C396 C395 1.386 . S
C396 C400 1.393 . S
C397 H386 0.950 . S
C397 C395 1.391 . S
C397 C398 1.400 . S
C398 C392 1.491 . S
C398 C397 1.400 . S
C398 C399 1.398 . S
C399 H387 0.950 . S
C399 C398 1.398 . S
C399 C400 1.391 . S
C400 H388 0.950 . S
C400 C396 1.393 . S
C400 C399 1.391 . S
H401 C409 0.950 . S
H402 C414 0.950 1_455 S
H403 C411 0.950 . S
H404 C413 0.950 . S
H405 C415 0.950 . S
H406 C417 0.950 . S
H407 C419 0.950 . S
H408 C420 0.950 . S
C409 H401 0.950 . S
C409 C410 1.386 . S
C409 C411 1.391 . S
C410 C409 1.386 . S
C410 C414 1.393 . S
C411 H403 0.950 . S
C411 C409 1.391 . S
C411 C412 1.400 . S
C412 C411 1.400 . S
C412 C413 1.398 . S
C412 C418 1.491 . S
C413 H404 0.950 . S
C413 C412 1.398 . S
C413 C414 1.391 . S
C414 H402 0.950 1_655 S
C414 C410 1.393 . S
C414 C413 1.391 . S
C415 H405 0.950 . S
C415 C416 1.386 . S
C415 C417 1.391 . S
C416 C415 1.386 . S
C416 C420 1.393 . S
C417 H406 0.950 . S
C417 C415 1.391 . S
C417 C418 1.400 . S
C418 C412 1.491 . S
C418 C417 1.400 . S
C418 C419 1.398 . S
C419 H407 0.950 . S
C419 C418 1.398 . S
C419 C420 1.391 . S
C420 H408 0.950 . S
C420 C416 1.393 . S
C420 C419 1.391 . S
H421 C429 0.950 . S
H422 C434 0.950 . S
H423 C431 0.950 . S
H424 C433 0.950 . S
H425 C435 0.950 . S
H426 C437 0.950 . S
H427 C439 0.950 . S
H428 C440 0.950 . S
C429 H421 0.950 . S
C429 C430 1.386 . S
C429 C431 1.391 . S
C430 C429 1.386 . S
C430 C434 1.393 . S
C431 H423 0.950 . S
C431 C429 1.391 . S
C431 C432 1.400 . S
C432 C431 1.400 . S
C432 C433 1.398 . S
C432 C438 1.491 . S
C433 H424 0.950 . S
C433 C432 1.398 . S
C433 C434 1.391 . S
C434 H422 0.950 . S
C434 C430 1.393 . S
C434 C433 1.391 . S
C435 H425 0.950 . S
C435 C436 1.386 . S
C435 C437 1.391 . S
C436 C435 1.386 . S
C436 C440 1.393 . S
C437 H426 0.950 . S
C437 C435 1.391 . S
C437 C438 1.400 . S
C438 C432 1.491 . S
C438 C437 1.400 . S
C438 C439 1.398 . S
C439 H427 0.950 . S
C439 C438 1.398 . S
C439 C440 1.391 . S
C440 H428 0.950 . S
C440 C436 1.393 . S
C440 C439 1.391 . S
H441 C449 0.950 . S
H442 C454 0.950 . S
H443 C451 0.950 . S
H444 C453 0.950 . S
H445 C455 0.950 1_655 S
H446 C457 0.950 . S
H447 C459 0.950 . S
H448 C460 0.950 . S
C449 H441 0.950 . S
C449 C450 1.386 . S
C449 C451 1.391 . S
C450 C449 1.386 . S
C450 C454 1.393 . S
C451 H443 0.950 . S
C451 C449 1.391 . S
C451 C452 1.400 . S
C452 C451 1.400 . S
C452 C453 1.398 . S
C452 C458 1.491 . S
C453 H444 0.950 . S
C453 C452 1.398 . S
C453 C454 1.391 . S
C454 H442 0.950 . S
C454 C450 1.393 . S
C454 C453 1.391 . S
C455 H445 0.950 1_455 S
C455 C456 1.386 . S
C455 C457 1.391 . S
C456 C455 1.386 . S
C456 C460 1.393 . S
C457 H446 0.950 . S
C457 C455 1.391 . S
C457 C458 1.400 . S
C458 C452 1.491 . S
C458 C457 1.400 . S
C458 C459 1.398 . S
C459 H447 0.950 . S
C459 C458 1.398 . S
C459 C460 1.391 . S
C460 H448 0.950 . S
C460 C456 1.393 . S
C460 C459 1.391 . S
H461 C469 0.950 . S
H462 C474 0.950 . S
H463 C471 0.950 . S
H464 C473 0.950 . S
H465 C475 0.950 . S
H466 C477 0.950 . S
H467 C479 0.950 . S
H468 C480 0.950 . S
C469 H461 0.950 . S
C469 C470 1.386 . S
C469 C471 1.391 . S
C470 C469 1.386 . S
C470 C474 1.393 . S
C471 H463 0.950 . S
C471 C469 1.391 . S
C471 C472 1.400 . S
C472 C471 1.400 . S
C472 C473 1.398 . S
C472 C478 1.491 . S
C473 H464 0.950 . S
C473 C472 1.398 . S
C473 C474 1.391 . S
C474 H462 0.950 . S
C474 C470 1.393 . S
C474 C473 1.391 . S
C475 H465 0.950 . S
C475 C476 1.386 . S
C475 C477 1.391 . S
C476 C475 1.386 . S
C476 C480 1.393 . S
C477 H466 0.950 . S
C477 C475 1.391 . S
C477 C478 1.400 . S
C478 C472 1.491 . S
C478 C477 1.400 . S
C478 C479 1.398 . S
C479 H467 0.950 . S
C479 C478 1.398 . S
C479 C480 1.391 . S
C480 H468 0.950 . S
C480 C476 1.393 . S
C480 C479 1.391 . S
H481 C489 0.950 . S
H482 C494 0.950 . S
H483 C491 0.950 . S
H484 C493 0.950 . S
H485 C495 0.950 . S
H486 C497 0.950 . S
H487 C499 0.950 . S
H488 C500 0.950 . S
C489 H481 0.950 . S
C489 C490 1.386 . S
C489 C491 1.391 . S
C490 C489 1.386 . S
C490 C494 1.393 . S
C491 H483 0.950 . S
C491 C489 1.391 . S
C491 C492 1.400 . S
C492 C491 1.400 . S
C492 C493 1.398 . S
C492 C498 1.491 . S
C493 H484 0.950 . S
C493 C492 1.398 . S
C493 C494 1.391 . S
C494 H482 0.950 . S
C494 C490 1.393 . S
C494 C493 1.391 . S
C495 H485 0.950 . S
C495 C496 1.386 . S
C495 C497 1.391 . S
C496 C495 1.386 . S
C496 C500 1.393 . S
C497 H486 0.950 . S
C497 C495 1.391 . S
C497 C498 1.400 . S
C498 C492 1.491 . S
C498 C497 1.400 . S
C498 C499 1.398 . S
C499 H487 0.950 . S
C499 C498 1.398 . S
C499 C500 1.391 . S
C500 H488 0.950 . S
C500 C496 1.393 . S
C500 C499 1.391 . S
H501 C509 0.950 . S
H502 C514 0.950 1_455 S
H503 C511 0.950 . S
H504 C513 0.950 . S
H505 C515 0.950 . S
H506 C517 0.950 . S
H507 C519 0.950 . S
H508 C520 0.950 . S
C509 H501 0.950 . S
C509 C510 1.386 . S
C509 C511 1.391 . S
C510 C509 1.386 . S
C510 C514 1.393 . S
C511 H503 0.950 . S
C511 C509 1.391 . S
C511 C512 1.400 . S
C512 C511 1.400 . S
C512 C513 1.398 . S
C512 C518 1.491 . S
C513 H504 0.950 . S
C513 C512 1.398 . S
C513 C514 1.391 . S
C514 H502 0.950 1_655 S
C514 C510 1.393 . S
C514 C513 1.391 . S
C515 H505 0.950 . S
C515 C516 1.386 . S
C515 C517 1.391 . S
C516 C515 1.386 . S
C516 C520 1.393 . S
C517 H506 0.950 . S
C517 C515 1.391 . S
C517 C518 1.400 . S
C518 C512 1.491 . S
C518 C517 1.400 . S
C518 C519 1.398 . S
C519 H507 0.950 . S
C519 C518 1.398 . S
C519 C520 1.391 . S
C520 H508 0.950 . S
C520 C516 1.393 . S
C520 C519 1.391 . S
H521 C529 0.950 . S
H522 C534 0.950 . S
H523 C531 0.950 . S
H524 C533 0.950 . S
H525 C535 0.950 . S
H526 C537 0.950 . S
H527 C539 0.950 . S
H528 C540 0.950 . S
C529 H521 0.950 . S
C529 C530 1.386 . S
C529 C531 1.391 1_554 S
C530 C529 1.386 . S
C530 C534 1.393 . S
C531 H523 0.950 . S
C531 C529 1.391 1_556 S
C531 C532 1.400 . S
C532 C531 1.400 . S
C532 C533 1.398 1_556 S
C532 C538 1.491 . S
C533 H524 0.950 . S
C533 C532 1.398 1_554 S
C533 C534 1.391 . S
C534 H522 0.950 . S
C534 C530 1.393 . S
C534 C533 1.391 . S
C535 H525 0.950 . S
C535 C536 1.386 . S
C535 C537 1.391 . S
C536 C535 1.386 . S
C536 C540 1.393 . S
C537 H526 0.950 . S
C537 C535 1.391 . S
C537 C538 1.400 . S
C538 C532 1.491 . S
C538 C537 1.400 . S
C538 C539 1.398 . S
C539 H527 0.950 . S
C539 C538 1.398 . S
C539 C540 1.391 . S
C540 H528 0.950 . S
C540 C536 1.393 . S
C540 C539 1.391 . S
H541 C549 0.950 . S
H542 C554 0.950 1_655 S
H543 C551 0.950 . S
H544 C553 0.950 1_655 S
H545 C555 0.950 . S
H546 C557 0.950 1_655 S
H547 C559 0.950 . S
H548 C560 0.950 . S
C549 H541 0.950 . S
C549 C550 1.386 1_545 S
C549 C551 1.391 1_545 S
C550 C549 1.386 1_565 S
C550 C554 1.393 . S
C551 H543 0.950 . S
C551 C549 1.391 1_565 S
C551 C552 1.400 . S
C552 C551 1.400 . S
C552 C553 1.398 . S
C552 C558 1.491 . S
C553 H544 0.950 1_455 S
C553 C552 1.398 . S
C553 C554 1.391 . S
C554 H542 0.950 1_455 S
C554 C550 1.393 . S
C554 C553 1.391 . S
C555 H545 0.950 . S
C555 C556 1.386 1_655 S
C555 C557 1.391 1_655 S
C556 C555 1.386 1_455 S
C556 C560 1.393 . S
C557 H546 0.950 1_455 S
C557 C555 1.391 1_455 S
C557 C558 1.400 . S
C558 C552 1.491 . S
C558 C557 1.400 . S
C558 C559 1.398 . S
C559 H547 0.950 . S
C559 C558 1.398 . S
C559 C560 1.391 . S
C560 H548 0.950 . S
C560 C556 1.393 . S
C560 C559 1.391 . S
H561 C569 0.950 . S
H562 C574 0.950 . S
H563 C571 0.950 . S
H564 C573 0.950 . S
H565 C575 0.950 . S
H566 C577 0.950 . S
H567 C579 0.950 . S
H568 C580 0.950 . S
C569 H561 0.950 . S
C569 C570 1.386 . S
C569 C571 1.391 . S
C570 C569 1.386 . S
C570 C574 1.393 . S
C571 H563 0.950 . S
C571 C569 1.391 . S
C571 C572 1.400 . S
C572 C571 1.400 . S
C572 C573 1.398 . S
C572 C578 1.491 . S
C573 H564 0.950 . S
C573 C572 1.398 . S
C573 C574 1.391 . S
C574 H562 0.950 . S
C574 C570 1.393 . S
C574 C573 1.391 . S
C575 H565 0.950 . S
C575 C576 1.386 . S
C575 C577 1.391 . S
C576 C575 1.386 . S
C576 C580 1.393 . S
C577 H566 0.950 . S
C577 C575 1.391 . S
C577 C578 1.400 . S
C578 C572 1.491 . S
C578 C577 1.400 . S
C578 C579 1.398 . S
C579 H567 0.950 . S
C579 C578 1.398 . S
C579 C580 1.391 . S
C580 H568 0.950 . S
C580 C576 1.393 . S
C580 C579 1.391 . S
H581 C589 0.950 . S
H582 C594 0.950 . S
H583 C591 0.950 . S
H584 C593 0.950 . S
H585 C595 0.950 . S
H586 C597 0.950 . S
H587 C599 0.950 . S
H588 C600 0.950 . S
C589 H581 0.950 . S
C589 C590 1.386 1_556 S
C589 C591 1.391 . S
C590 C589 1.386 1_554 S
C590 C594 1.393 . S
C591 H583 0.950 . S
C591 C589 1.391 . S
C591 C592 1.400 . S
C592 C591 1.400 . S
C592 C593 1.398 1_556 S
C592 C598 1.491 . S
C593 H584 0.950 . S
C593 C592 1.398 1_554 S
C593 C594 1.391 . S
C594 H582 0.950 . S
C594 C590 1.393 . S
C594 C593 1.391 . S
C595 H585 0.950 . S
C595 C596 1.386 . S
C595 C597 1.391 . S
C596 C595 1.386 . S
C596 C600 1.393 . S
C597 H586 0.950 . S
C597 C595 1.391 . S
C597 C598 1.400 . S
C598 C592 1.491 . S
C598 C597 1.400 . S
C598 C599 1.398 . S
C599 H587 0.950 . S
C599 C598 1.398 . S
C599 C600 1.391 . S
C600 H588 0.950 . S
C600 C596 1.393 . S
C600 C599 1.391 . S
H601 C609 0.950 . S
H602 C614 0.950 . S
H603 C611 0.950 . S
H604 C613 0.950 . S
H605 C615 0.950 . S
H606 C617 0.950 . S
H607 C619 0.950 . S
H608 C620 0.950 . S
C609 H601 0.950 . S
C609 C610 1.386 . S
C609 C611 1.391 . S
C610 C609 1.386 . S
C610 C614 1.393 . S
C611 H603 0.950 . S
C611 C609 1.391 . S
C611 C612 1.400 . S
C612 C611 1.400 . S
C612 C613 1.398 . S
C612 C618 1.491 . S
C613 H604 0.950 . S
C613 C612 1.398 . S
C613 C614 1.391 . S
C614 H602 0.950 . S
C614 C610 1.393 . S
C614 C613 1.391 . S
C615 H605 0.950 . S
C615 C616 1.386 . S
C615 C617 1.391 . S
C616 C615 1.386 . S
C616 C620 1.393 . S
C617 H606 0.950 . S
C617 C615 1.391 . S
C617 C618 1.400 . S
C618 C612 1.491 . S
C618 C617 1.400 . S
C618 C619 1.398 . S
C619 H607 0.950 . S
C619 C618 1.398 . S
C619 C620 1.391 . S
C620 H608 0.950 . S
C620 C616 1.393 . S
C620 C619 1.391 . S
C396 C94 1.090 . S
C390 C10 1.483 . S
C410 C21 1.499 1_655 S
C416 C208 1.137 . S
C430 C31 1.218 . S
C436 C268 1.016 . S
C450 C0 1.292 1_565 S
C456 C68 1.101 . S
C476 C182 1.084 . S
C470 C18 1.289 . S
C490 C34 1.383 . S
C496 C278 0.889 . S
C516 C164 0.854 . S
C510 C36 1.383 . S
C530 C8 1.341 1_565 S
C536 C296 1.041 . S
C556 C40 1.036 . S
C550 C23 1.251 1_565 S
C576 C154 0.941 . S
C570 C26 1.149 . S
C596 C322 1.202 . S
C590 C5 1.422 . S
C610 C13 1.342 . S
C616 C50 0.811 . S
