# Generated by pormake.
# Topology zzz, (3,6)-cn, num edge types: 1
# Building blocks:
#     Node 0, Type 0, BuildingBlock: BETDIP_clean_linker_0, # of connection points: 3
#     Node 1, Type 0, BuildingBlock: BETDIP_clean_linker_0, # of connection points: 3
#     Node 2, Type 0, BuildingBlock: BETDIP_clean_linker_0, # of connection points: 3
#     Node 3, Type 0, BuildingBlock: BETDIP_clean_linker_0, # of connection points: 3
#     Node 4, Type 0, BuildingBlock: BETDIP_clean_linker_0, # of connection points: 3
#     Node 5, Type 0, BuildingBlock: BETDIP_clean_linker_0, # of connection points: 3
#     Node 6, Type 0, BuildingBlock: BETDIP_clean_linker_0, # of connection points: 3
#     Node 7, Type 0, BuildingBlock: BETDIP_clean_linker_0, # of connection points: 3
#     Node 8, Type 1, BuildingBlock: CUWYAW_clean_sbu_0, # of connection points: 6
#     Node 9, Type 1, BuildingBlock: CUWYAW_clean_sbu_0, # of connection points: 6
#     Node 10, Type 1, BuildingBlock: CUWYAW_clean_sbu_0, # of connection points: 6
#     Node 11, Type 1, BuildingBlock: CUWYAW_clean_sbu_0, # of connection points: 6
#     Edge 12, Type (0, 1), BuildingBlock: TEMPAE_clean_linker_10, # of connection points: 2
#     Edge 13, Type (0, 1), BuildingBlock: TEMPAE_clean_linker_10, # of connection points: 2
#     Edge 14, Type (0, 1), BuildingBlock: TEMPAE_clean_linker_10, # of connection points: 2
#     Edge 15, Type (0, 1), BuildingBlock: TEMPAE_clean_linker_10, # of connection points: 2
#     Edge 16, Type (0, 1), BuildingBlock: TEMPAE_clean_linker_10, # of connection points: 2
#     Edge 17, Type (0, 1), BuildingBlock: TEMPAE_clean_linker_10, # of connection points: 2
#     Edge 18, Type (0, 1), BuildingBlock: TEMPAE_clean_linker_10, # of connection points: 2
#     Edge 19, Type (0, 1), BuildingBlock: TEMPAE_clean_linker_10, # of connection points: 2
#     Edge 20, Type (0, 1), BuildingBlock: TEMPAE_clean_linker_10, # of connection points: 2
#     Edge 21, Type (0, 1), BuildingBlock: TEMPAE_clean_linker_10, # of connection points: 2
#     Edge 22, Type (0, 1), BuildingBlock: TEMPAE_clean_linker_10, # of connection points: 2
#     Edge 23, Type (0, 1), BuildingBlock: TEMPAE_clean_linker_10, # of connection points: 2
#     Edge 24, Type (0, 1), BuildingBlock: TEMPAE_clean_linker_10, # of connection points: 2
#     Edge 25, Type (0, 1), BuildingBlock: TEMPAE_clean_linker_10, # of connection points: 2
#     Edge 26, Type (0, 1), BuildingBlock: TEMPAE_clean_linker_10, # of connection points: 2
#     Edge 27, Type (0, 1), BuildingBlock: TEMPAE_clean_linker_10, # of connection points: 2
#     Edge 28, Type (0, 1), BuildingBlock: TEMPAE_clean_linker_10, # of connection points: 2
#     Edge 29, Type (0, 1), BuildingBlock: TEMPAE_clean_linker_10, # of connection points: 2
#     Edge 30, Type (0, 1), BuildingBlock: TEMPAE_clean_linker_10, # of connection points: 2
#     Edge 31, Type (0, 1), BuildingBlock: TEMPAE_clean_linker_10, # of connection points: 2
#     Edge 32, Type (0, 1), BuildingBlock: TEMPAE_clean_linker_10, # of connection points: 2
#     Edge 33, Type (0, 1), BuildingBlock: TEMPAE_clean_linker_10, # of connection points: 2
#     Edge 34, Type (0, 1), BuildingBlock: TEMPAE_clean_linker_10, # of connection points: 2
#     Edge 35, Type (0, 1), BuildingBlock: TEMPAE_clean_linker_10, # of connection points: 2
# Relax obj value: 0.260
# Max RMSD: 0.163
# Mean RMSD: 0.135
data_MOF--net-zzz--node1-CUWYAW_clean_sbu_0--node2-BETDIP_clean_linker_0--edge1-TEMPAE_clean_linker_10
_symmetry_space_group_name_H-M    P1
_symmetry_Int_Tables_number       1
_symmetry_cell_setting            triclinic
loop_
_symmetry_equiv_pos_as_xyz
'x, y, z'
_cell_length_a     52.026137
_cell_length_b     52.002769
_cell_length_c     14.224646
_cell_angle_alpha  89.935797
_cell_angle_beta   90.125985
_cell_angle_gamma 90.002177
loop_
_atom_site_label
_atom_site_type_symbol
_atom_site_fract_x
_atom_site_fract_y
_atom_site_fract_z
_atom_type_partial_charge
H0 H 0.76262 0.51818 0.47047 0.0
H1 H 0.75146 0.57638 0.25749 0.0
H2 H 0.81918 0.57712 0.42942 0.0
H3 H 0.70881 0.57377 0.33121 0.0
C4 C 0.70751 0.55349 0.31317 0.0
C5 C 0.76884 0.53561 0.4356 0.0
C6 C 0.79279 0.54691 0.45976 0.0
C7 C 0.7528 0.54739 0.36675 0.0
C8 C 0.76225 0.5688 0.31654 0.0
C9 C 0.78638 0.57933 0.33722 0.0
C10 C 0.80042 0.56927 0.41301 0.0
N11 N 0.72806 0.53703 0.34309 0.0
H12 H 0.02772 0.75846 0.45313 0.0
H13 H 0.96943 0.74593 0.24177 0.0
H14 H 0.96752 0.81376 0.41273 0.0
H15 H 0.97338 0.70267 0.32725 0.0
C16 C 0.99319 0.70222 0.30302 0.0
C17 C 1.01008 0.7643 0.41866 0.0
C18 C 0.99833 0.78799 0.44278 0.0
C19 C 0.9985 0.74801 0.35044 0.0
C20 C 0.97683 0.75696 0.30049 0.0
C21 C 0.96593 0.78094 0.32074 0.0
C22 C 0.97573 0.79515 0.39644 0.0
N23 N 1.00935 0.72353 0.3269 0.0
H24 H 0.78787 0.03038 0.46327 0.0
H25 H 0.8068 0.97403 0.25276 0.0
H26 H 0.73757 0.96648 0.41438 0.0
H27 H 0.85184 0.98635 0.37886 0.0
C28 C 0.84847 1.00267 0.3326 0.0
C29 C 0.78375 1.01235 0.42827 0.0
C30 C 0.76095 0.99873 0.44971 0.0
C31 C 0.80134 1.0023 0.36169 0.0
C32 C 0.79469 0.98016 0.31043 0.0
C33 C 0.77122 0.96765 0.32636 0.0
C34 C 0.75577 0.97592 0.40127 0.0
N35 N 0.82438 1.01571 0.33829 0.0
H36 H 0.53576 0.77897 0.44048 0.0
H37 H 0.48073 0.79812 0.2236 0.0
H38 H 0.46823 0.73249 0.39804 0.0
H39 H 0.52725 0.8022 0.15613 0.0
C40 C 0.5287 0.81837 0.20436 0.0
C41 C 0.5176 0.77542 0.40546 0.0
C42 C 0.50254 0.75375 0.43099 0.0
C43 C 0.50952 0.7919 0.33139 0.0
C44 C 0.48656 0.78638 0.28294 0.0
C45 C 0.4715 0.76526 0.30826 0.0
C46 C 0.4793 0.74965 0.38313 0.0
N47 N 0.52479 0.81331 0.30205 0.0
H48 H 0.2864 0.51888 0.02673 0.0
H49 H 0.29872 0.55736 0.29286 0.0
H50 H 0.22451 0.55908 0.1635 0.0
H51 H 0.33849 0.56816 0.17477 0.0
C52 C 0.34199 0.5479 0.18896 0.0
C53 C 0.2792 0.53027 0.08464 0.0
C54 C 0.25324 0.53882 0.08427 0.0
C55 C 0.29606 0.5376 0.15914 0.0
C56 C 0.2864 0.55232 0.23416 0.0
C57 C 0.26068 0.55967 0.23555 0.0
C58 C 0.2445 0.55316 0.16091 0.0
N59 N 0.3225 0.53004 0.16093 0.0
H60 H 0.03623 0.28131 0.02332 0.0
H61 H 0.99733 0.28861 0.2907 0.0
H62 H 0.99768 0.21633 0.14722 0.0
H63 H 0.9857 0.32941 0.18679 0.0
C64 C 1.006 0.33366 0.19654 0.0
C65 C 0.02506 0.27296 0.07977 0.0
C66 C 1.01731 0.24682 0.07478 0.0
C67 C 1.01726 0.28849 0.15703 0.0
C68 C 1.00279 0.27729 0.23002 0.0
C69 C 0.9963 0.25128 0.22695 0.0
C70 C 1.00324 0.23646 0.14929 0.0
N71 N 0.02412 0.31508 0.16336 0.0
H72 H 0.27422 0.04024 0.07973 0.0
H73 H 0.25392 0.97307 0.24248 0.0
H74 H 0.32549 0.97549 0.09541 0.0
H75 H 0.2129 0.98433 0.16273 0.0
C76 C 0.21337 1.00322 0.19543 0.0
C77 C 0.27829 1.02079 0.10264 0.0
C78 C 0.30216 1.00924 0.0801 0.0
C79 C 0.25996 1.00716 0.15732 0.0
C80 C 0.26652 0.98271 0.19318 0.0
C81 C 0.29002 0.97128 0.17042 0.0
C82 C 0.307 0.98415 0.11079 0.0
N83 N 0.23589 1.01858 0.18244 0.0
H84 H 0.51925 0.26573 0.03886 0.0
H85 H 0.57467 0.24578 0.25355 0.0
H86 H 0.58234 0.31642 0.10288 0.0
H87 H 0.56758 0.20448 0.14644 0.0
C88 C 0.54835 0.20522 0.17627 0.0
C89 C 0.53666 0.27003 0.07759 0.0
C90 C 0.55018 0.29323 0.05984 0.0
C91 C 0.54629 0.25206 0.14431 0.0
C92 C 0.56825 0.25839 0.19751 0.0
C93 C 0.58128 0.28144 0.18168 0.0
C94 C 0.57256 0.29819 0.11175 0.0
N95 N 0.53367 0.22808 0.16112 0.0
C96 C 0.98609 0.03318 0.50836 0.0
Eu97 Eu 1.01099 0.02601 0.66455 0.0
C98 C 0.96679 0.0524 0.48106 0.0
C99 C 0.94854 0.06118 0.54633 0.0
C100 C 0.93454 0.08357 0.52854 0.0
C101 C 0.93892 0.0978 0.44604 0.0
C102 C 0.95542 0.08744 0.37711 0.0
C103 C 0.96915 0.0649 0.39449 0.0
C104 C 0.9842 0.02494 0.82876 0.0
C105 C 0.03197 0.0727 0.78868 0.0
C106 C 0.04988 0.99885 0.01017 0.0
Eu107 Eu 0.04197 1.01187 0.83729 0.0
C108 C 0.03535 0.97994 0.0661 0.0
C109 C 0.04694 0.95639 0.08869 0.0
C110 C 0.03192 0.93552 0.11628 0.0
C111 C 1.00504 0.93791 0.12275 0.0
C112 C 0.99375 0.96207 0.10808 0.0
C113 C 1.00876 0.98295 0.08028 0.0
C114 C 0.07664 1.02049 0.69628 0.0
C115 C 0.02601 0.96577 0.69844 0.0
O116 O 1.00919 0.04238 0.52362 0.0
O117 O 0.97902 1.01648 0.57209 0.0
O118 O 0.9818 0.04276 0.7659 0.0
O119 O 1.00054 1.0085 0.80238 0.0
O120 O 0.02506 0.06595 0.70258 0.0
O121 O 0.03675 0.05517 0.85415 0.0
O122 O 0.03761 1.01995 0.98662 0.0
O123 O 0.06286 0.98898 0.94004 0.0
O124 O 0.08276 1.01468 0.78206 0.0
O125 O 0.05248 0.02225 0.68978 0.0
O126 O 0.0324 0.97176 0.78559 0.0
O127 O 1.02004 0.98384 0.63658 0.0
H128 H 0.94626 0.05172 0.61368 0.0
H129 H 0.92159 0.09062 0.58215 0.0
H130 H 0.95962 0.09781 0.31293 0.0
H131 H 0.98307 0.05836 0.34324 0.0
H132 H 0.06737 0.95356 0.07824 0.0
H133 H 0.04125 0.91711 0.12677 0.0
H134 H 0.97321 0.96458 0.11467 0.0
H135 H 0.99924 1.00097 0.0646 0.0
C136 C 0.51259 0.9865 0.50002 0.0
Eu137 Eu 0.52079 1.00874 0.66087 0.0
C138 C 0.49251 0.96914 0.46558 0.0
C139 C 0.49115 0.96291 0.37002 0.0
C140 C 0.47015 0.94904 0.33538 0.0
C141 C 0.45021 0.94138 0.396 0.0
C142 C 0.45256 0.94628 0.49278 0.0
C143 C 0.47352 0.96013 0.52725 0.0
C144 C 0.52144 0.98136 0.82384 0.0
C145 C 0.47505 0.03119 0.78924 0.0
C146 C 0.55031 0.04629 0.00961 0.0
Eu147 Eu 0.53609 0.03929 0.83748 0.0
C148 C 0.57055 0.03252 0.06226 0.0
C149 C 0.59374 0.04516 0.08224 0.0
C150 C 0.61544 0.03112 0.10854 0.0
C151 C 0.61426 1.00418 0.116 0.0
C152 C 0.59056 0.99177 0.10368 0.0
C153 C 0.56885 1.00581 0.07726 0.0
C154 C 0.52807 0.07371 0.69443 0.0
C155 C 0.58154 0.02244 0.69713 0.0
O156 O 0.50496 1.00994 0.51917 0.0
O157 O 0.52773 0.97696 0.56487 0.0
O158 O 0.50406 0.97905 0.75918 0.0
O159 O 0.53807 0.99779 0.79903 0.0
O160 O 0.48114 0.0219 0.70551 0.0
O161 O 0.49261 0.03743 0.85277 0.0
O162 O 0.52977 0.03296 0.98704 0.0
O163 O 0.55874 0.06048 0.93992 0.0
O164 O 0.53436 0.08016 0.77954 0.0
O165 O 0.52584 0.04958 0.69096 0.0
O166 O 0.57572 0.02935 0.78379 0.0
O167 O 0.56346 1.01615 0.63555 0.0
H168 H 0.50576 0.96963 0.3217 0.0
H169 H 0.46887 0.94541 0.26053 0.0
H170 H 0.43735 0.94099 0.54097 0.0
H171 H 0.47431 0.96484 0.60137 0.0
H172 H 0.59556 0.06571 0.07138 0.0
H173 H 0.63348 0.04122 0.11777 0.0
H174 H 0.58902 0.97114 0.11181 0.0
H175 H 0.55114 0.99551 0.06384 0.0
C176 C 0.55493 0.50144 0.48719 0.0
Eu177 Eu 0.54107 0.51605 0.65306 0.0
C178 C 0.57377 0.48201 0.4592 0.0
C179 C 0.58187 0.48016 0.36583 0.0
C180 C 0.59787 0.45993 0.33836 0.0
C181 C 0.6055 0.441 0.40383 0.0
C182 C 0.59867 0.44409 0.49873 0.0
C183 C 0.58304 0.46449 0.52618 0.0
C184 C 0.57435 0.51998 0.80442 0.0
C185 C 0.52449 0.47089 0.80033 0.0
C186 C 0.4983 0.54544 0.01329 0.0
Eu187 Eu 0.51116 0.53115 0.84596 0.0
C188 C 0.47963 0.56462 0.04437 0.0
C189 C 0.47411 0.56752 0.13978 0.0
C190 C 0.45822 0.58755 0.16956 0.0
C191 C 0.44808 0.60532 0.1043 0.0
C192 C 0.45255 0.60126 0.00794 0.0
C193 C 0.46812 0.58102 0.97829 0.0
C194 C 0.47761 0.52762 0.6958 0.0
C195 C 0.52715 0.57621 0.6971 0.0
O196 O 0.5345 0.49232 0.52992 0.0
O197 O 0.56454 0.52184 0.52838 0.0
O198 O 0.58152 0.51471 0.71941 0.0
O199 O 0.55039 0.52282 0.80165 0.0
O200 O 0.53002 0.47684 0.71179 0.0
O201 O 0.51983 0.4886 0.86539 0.0
O202 O 0.5183 0.55485 0.96876 0.0
O203 O 0.48844 0.52513 0.9722 0.0
O204 O 0.47078 0.53316 0.781 0.0
O205 O 0.50156 0.5242 0.6972 0.0
O206 O 0.52195 0.57037 0.78607 0.0
O207 O 0.5318 0.55841 0.63238 0.0
H208 H 0.57503 0.49373 0.31375 0.0
H209 H 0.60314 0.45835 0.26498 0.0
H210 H 0.60386 0.42981 0.5509 0.0
H211 H 0.57716 0.46589 0.59905 0.0
H212 H 0.48289 0.55493 0.19134 0.0
H213 H 0.45503 0.58989 0.2441 0.0
H214 H 0.44552 0.61466 0.95556 0.0
H215 H 0.47217 0.5789 0.90399 0.0
C216 C 0.04293 0.54722 0.483 0.0
Eu217 Eu 0.03063 0.53369 0.65207 0.0
C218 C 0.06035 0.56727 0.44869 0.0
C219 C 0.06474 0.58955 0.50222 0.0
C220 C 0.08576 0.60536 0.48275 0.0
C221 C 0.10289 0.5989 0.4103 0.0
C222 C 0.09696 0.57779 0.35182 0.0
C223 C 0.07584 0.56216 0.37088 0.0
C224 C 0.02321 0.56689 0.80046 0.0
C225 C 0.07795 0.51806 0.79707 0.0
C226 C 1.00346 0.49444 0.01679 0.0
Eu227 Eu 1.01818 0.50271 0.84586 0.0
C228 C 0.98296 0.50733 0.07081 0.0
C229 C 0.95814 0.49669 0.07247 0.0
C230 C 0.9373 0.51145 0.10176 0.0
C231 C 0.94095 0.53702 0.13025 0.0
C232 C 0.96593 0.54693 0.13656 0.0
C233 C 0.98682 0.5321 0.10784 0.0
C234 C 0.02616 0.46955 0.69799 0.0
C235 C 0.9716 0.51918 0.70298 0.0
O236 O 0.05436 0.52836 0.52807 0.0
O237 O 0.02195 0.55521 0.52472 0.0
O238 O 0.02849 0.57425 0.71555 0.0
O239 O 0.02211 0.54271 0.7994 0.0
O240 O 0.07091 0.52722 0.71324 0.0
O241 O 0.0613 0.50857 0.85897 0.0
O242 O 0.02373 0.50837 0.99625 0.0
O243 O 0.99547 0.48067 0.94532 0.0
O244 O 0.02236 0.46215 0.78416 0.0
O245 O 0.02655 0.49375 0.69838 0.0
O246 O 0.97861 0.51499 0.79163 0.0
O247 O 0.98868 0.52279 0.63513 0.0
H248 H 0.05294 0.59387 0.56274 0.0
H249 H 0.08949 0.62166 0.52806 0.0
H250 H 0.10979 0.57187 0.29608 0.0
H251 H 0.07278 0.545 0.32917 0.0
H252 H 0.95459 0.47753 0.04565 0.0
H253 H 0.91815 0.50333 0.09723 0.0
H254 H 0.96918 0.5663 0.16158 0.0
H255 H 1.00579 0.54049 0.11024 0.0
C256 C 0.19003 0.03363 0.30654 0.0
C257 C 0.19194 1.00979 0.26096 0.0
C258 C 0.17012 0.03844 0.3719 0.0
C259 C 0.15201 1.01883 0.3934 0.0
C260 C 0.15367 0.995 0.34565 0.0
C261 C 0.17338 0.99091 0.27989 0.0
C262 C 0.16882 0.06428 0.41964 0.0
C263 C 0.13524 0.97331 0.36684 0.0
C264 C 0.12139 1.01535 0.63638 0.0
C265 C 0.09574 0.02223 0.61847 0.0
C266 C 0.13989 1.01493 0.56453 0.0
C267 C 0.13288 0.022 0.47175 0.0
C268 C 0.10718 0.0299 0.45363 0.0
C269 C 0.08885 0.02969 0.527 0.0
C270 C 0.16678 1.00588 0.58748 0.0
C271 C 0.09892 0.03801 0.35633 0.0
H272 H 0.20417 0.04839 0.29199 0.0
H273 H 0.17471 0.97245 0.24488 0.0
H274 H 0.14901 0.07214 0.41528 0.0
H275 H 0.1736 0.0621 0.49526 0.0
H276 H 0.18234 0.07837 0.38807 0.0
H277 H 0.13837 0.95637 0.32075 0.0
H278 H 0.13759 0.96715 0.44109 0.0
H279 H 0.11511 0.9799 0.35807 0.0
H280 H 0.12694 1.00953 0.70675 0.0
H281 H 0.06911 0.03513 0.51259 0.0
H282 H 0.18107 1.0205 0.56538 0.0
H283 H 0.17101 0.98798 0.548 0.0
H284 H 0.16945 1.00199 0.66369 0.0
H285 H 0.11257 0.05237 0.32744 0.0
H286 H 0.07927 0.04637 0.35574 0.0
H287 H 0.09917 1.02114 0.30868 0.0
C288 C 0.51729 0.18362 0.28958 0.0
C289 C 0.54113 0.18444 0.24374 0.0
C290 C 0.51199 0.16451 0.35771 0.0
C291 C 0.53111 0.14609 0.38166 0.0
C292 C 0.5549 0.14656 0.33344 0.0
C293 C 0.55948 0.16551 0.265 0.0
C294 C 0.4862 0.16442 0.40588 0.0
C295 C 0.57606 0.12771 0.35701 0.0
C296 C 0.53421 0.11778 0.62873 0.0
C297 C 0.52663 0.09218 0.61441 0.0
C298 C 0.53495 0.13558 0.55434 0.0
C299 C 0.52751 0.12787 0.46273 0.0
C300 C 0.51888 0.10225 0.44834 0.0
C301 C 0.51876 0.08463 0.52417 0.0
C302 C 0.54476 0.16243 0.5733 0.0
C303 C 0.51035 0.09328 0.35242 0.0
H304 H 0.50294 0.19807 0.27327 0.0
H305 H 0.57793 0.166 0.22976 0.0
H306 H 0.47782 0.1448 0.40487 0.0
H307 H 0.4886 0.17001 0.48061 0.0
H308 H 0.47243 0.17795 0.37225 0.0
H309 H 0.59298 0.12986 0.31019 0.0
H310 H 0.58242 0.13064 0.43074 0.0
H311 H 0.56886 0.1077 0.35138 0.0
H312 H 0.54033 0.12381 0.69818 0.0
H313 H 0.51277 0.06493 0.51261 0.0
H314 H 0.53052 0.17689 0.54927 0.0
H315 H 0.56271 0.16576 0.53307 0.0
H316 H 0.54882 0.16574 0.64903 0.0
H317 H 0.49634 0.10705 0.32184 0.0
H318 H 0.50143 0.07387 0.35479 0.0
H319 H 0.52712 0.09257 0.30447 0.0
C320 C 0.37996 0.56162 0.28348 0.0
C321 C 0.36426 0.54146 0.25153 0.0
C322 C 0.39978 0.55746 0.34918 0.0
C323 C 0.40444 0.53235 0.38411 0.0
C324 C 0.38933 0.51165 0.34923 0.0
C325 C 0.36933 0.51645 0.28376 0.0
C326 C 0.41478 0.58033 0.38495 0.0
C327 C 0.39374 0.48456 0.38354 0.0
C328 C 0.46767 0.52331 0.52138 0.0
C329 C 0.45945 0.52679 0.61437 0.0
C330 C 0.44994 0.52416 0.44565 0.0
C331 C 0.42338 0.52849 0.46325 0.0
C332 C 0.41509 0.53136 0.55741 0.0
C333 C 0.43311 0.53048 0.63119 0.0
C334 C 0.45966 0.5208 0.3467 0.0
C335 C 0.38717 0.53618 0.5804 0.0
H336 H 0.3762 0.58103 0.25908 0.0
H337 H 0.35738 0.50072 0.25944 0.0
H338 H 0.40784 0.58544 0.45622 0.0
H339 H 0.43554 0.57577 0.39099 0.0
H340 H 0.41244 0.59742 0.33875 0.0
H341 H 0.38197 0.47031 0.34435 0.0
H342 H 0.41433 0.47938 0.37641 0.0
H343 H 0.38885 0.48324 0.45927 0.0
H344 H 0.48794 0.52041 0.50765 0.0
H345 H 0.4265 0.53312 0.70275 0.0
H346 H 0.45191 0.53615 0.30048 0.0
H347 H 0.45274 0.50216 0.31852 0.0
H348 H 0.48099 0.5211 0.34318 0.0
H349 H 0.38109 0.55493 0.55041 0.0
H350 H 0.38356 0.53648 0.65734 0.0
H351 H 0.3749 0.52112 0.54821 0.0
C352 C 0.99252 0.37135 0.29226 0.0
C353 C 1.01267 0.35631 0.25665 0.0
C354 C 0.99701 0.39147 0.35623 0.0
C355 C 0.02244 0.3971 0.38556 0.0
C356 C 0.04308 0.38273 0.34661 0.0
C357 C 0.03796 0.36239 0.28304 0.0
C358 C 0.97429 0.40589 0.39593 0.0
C359 C 0.07049 0.38827 0.37453 0.0
C360 C 0.02963 0.46035 0.52305 0.0
C361 C 0.02811 0.45165 0.61629 0.0
C362 C 0.02916 0.44282 0.44689 0.0
C363 C 0.02677 0.41599 0.46431 0.0
C364 C 0.026 0.40723 0.55862 0.0
C365 C 0.02679 0.42506 0.63285 0.0
C366 C 0.03035 0.45309 0.3478 0.0
C367 C 0.02312 0.379 0.58147 0.0
H368 H 0.97292 0.36683 0.27212 0.0
H369 H 0.05368 0.35097 0.25576 0.0
H370 H 0.97271 0.40196 0.4724 0.0
H371 H 0.97703 0.42691 0.38732 0.0
H372 H 0.95591 0.40033 0.36165 0.0
H373 H 0.08449 0.37775 0.32995 0.0
H374 H 0.07447 0.4092 0.36946 0.0
H375 H 0.07359 0.38253 0.44882 0.0
H376 H 0.03055 0.48083 0.50948 0.0
H377 H 0.02562 0.41809 0.70456 0.0
H378 H 1.01131 0.45084 0.31354 0.0
H379 H 0.04445 0.44199 0.30575 0.0
H380 H 0.03573 0.47376 0.34589 0.0
H381 H 1.0043 0.37197 0.55518 0.0
H382 H 0.02425 0.37515 0.6582 0.0
H383 H 0.03829 0.36767 0.54576 0.0
C384 C 0.86323 1.01969 0.17545 0.0
C385 C 0.86906 1.00982 0.2647 0.0
C386 C 0.88258 0.02285 0.10688 0.0
C387 C 0.90854 1.01674 0.12886 0.0
C388 C 0.91459 1.00806 0.22087 0.0
C389 C 0.89475 1.00416 0.28656 0.0
C390 C 0.87508 0.03172 0.00958 0.0
C391 C 0.94179 1.00184 0.25029 0.0
C392 C 0.95457 0.99859 0.9296 0.0
C393 C 0.96646 0.02217 0.90986 0.0
C394 C 0.93561 0.99661 1.00008 0.0
C395 C 0.92904 1.01849 0.05463 0.0
C396 C 0.94196 0.04205 0.03755 0.0
C397 C 0.96002 0.04374 0.964 0.0
C398 C 0.92215 0.97122 0.01481 0.0
C399 C 0.93683 0.06542 0.09746 0.0
H400 H 0.84336 0.02373 0.15766 0.0
H401 H 0.89937 0.99642 0.35541 0.0
H402 H 0.886 0.04927 0.99044 0.0
H403 H 0.88006 1.01664 0.95754 0.0
H404 H 0.8542 0.03595 1.00375 0.0
H405 H 0.94474 1.00598 0.32619 0.0
H406 H 0.94525 0.981 0.23973 0.0
H407 H 0.95629 1.01276 0.20941 0.0
H408 H 0.95941 0.98192 0.88754 0.0
H409 H 0.96934 0.06196 0.94926 0.0
H410 H 0.9011 0.97374 0.00607 0.0
H411 H 0.92553 0.96429 0.08758 0.0
H412 H 0.9288 0.95626 0.96479 0.0
H413 H 0.91643 0.07134 0.09024 0.0
H414 H 0.94927 0.08196 0.0781 0.0
H415 H 0.94014 0.06067 0.17264 0.0
C416 C 0.53151 0.84667 0.06401 0.0
C417 C 0.53066 0.84463 0.16228 0.0
C418 C 0.53154 0.87067 0.01862 0.0
C419 C 0.5309 0.89356 0.0725 0.0
C420 C 0.5307 0.89172 0.17219 0.0
C421 C 0.53054 0.86725 0.21605 0.0
C422 C 0.53151 0.87146 0.91242 0.0
C423 C 0.53048 0.91558 0.23234 0.0
C424 C 0.54865 0.95357 0.93041 0.0
C425 C 0.52438 0.96198 0.90012 0.0
C426 C 0.55113 0.93209 0.99075 0.0
C427 C 0.52883 0.91904 0.0229 0.0
C428 C 0.5043 0.92862 0.99704 0.0
C429 C 0.50241 0.94972 0.93541 0.0
C430 C 0.57761 0.92253 0.01627 0.0
C431 C 0.47996 0.91566 0.03004 0.0
H432 H 0.5316 0.82929 0.02198 0.0
H433 H 0.52998 0.86588 0.29203 0.0
H434 H 0.51351 0.88058 0.8869 0.0
H435 H 0.54777 0.88331 0.88667 0.0
H436 H 0.53301 0.852 0.8808 0.0
H437 H 0.52759 0.91109 0.30796 0.0
H438 H 0.54902 0.92589 0.22434 0.0
H439 H 0.51508 0.92889 0.20885 0.0
H440 H 0.5657 0.96294 0.90323 0.0
H441 H 0.4836 0.95622 0.91251 0.0
H442 H 0.58014 0.90244 0.99179 0.0
H443 H 0.57994 0.92243 0.09382 0.0
H444 H 0.59301 0.93452 0.98482 0.0
H445 H 0.47839 0.89637 0.99722 0.0
H446 H 0.4625 0.92691 0.01169 0.0
H447 H 0.48047 0.91283 0.10735 0.0
C448 C 0.67226 0.56549 0.20303 0.0
C449 C 0.68647 0.54588 0.24683 0.0
C450 C 0.65287 0.56005 0.13689 0.0
C451 C 0.64691 0.5342 0.11454 0.0
C452 C 0.66052 0.51417 0.16126 0.0
C453 C 0.68039 0.52022 0.22591 0.0
C454 C 0.63932 0.58213 0.08868 0.0
C455 C 0.65429 0.48634 0.14202 0.0
C456 C 0.58351 0.52464 0.97902 0.0
C457 C 0.59223 0.52284 0.886 0.0
C458 C 0.60105 0.52722 0.05475 0.0
C459 C 0.62792 0.52853 0.03703 0.0
C460 C 0.63665 0.52644 0.94307 0.0
C461 C 0.61882 0.52343 0.86937 0.0
C462 C 0.59072 0.52909 0.15343 0.0
C463 C 0.66491 0.52817 0.91978 0.0
H464 H 0.67677 0.58538 0.21893 0.0
H465 H 0.69105 0.50493 0.26005 0.0
H466 H 0.64294 0.58133 0.01187 0.0
H467 H 0.61826 0.58055 0.09906 0.0
H468 H 0.64578 0.60114 0.11528 0.0
H469 H 0.66397 0.47319 0.19249 0.0
H470 H 0.63322 0.48315 0.14582 0.0
H471 H 0.66049 0.48126 0.06985 0.0
H472 H 0.56304 0.52394 0.99271 0.0
H473 H 0.62578 0.52199 0.7978 0.0
H474 H 0.59089 0.54949 0.17612 0.0
H475 H 0.60295 0.51809 0.20322 0.0
H476 H 0.57066 0.52188 0.15811 0.0
H477 H 0.67247 0.54724 0.94126 0.0
H478 H 0.66869 0.52551 0.84357 0.0
H479 H 0.67582 0.51339 0.95952 0.0
C480 C 0.98194 0.6623 0.21569 0.0
C481 C 1.00061 0.68077 0.23848 0.0
C482 C 0.98672 0.64267 0.15018 0.0
C483 C 1.01102 0.64109 0.1056 0.0
C484 C 0.03032 0.65928 0.13036 0.0
C485 C 0.02488 0.67894 0.19627 0.0
C486 C 0.96486 0.62471 0.12628 0.0
C487 C 0.05645 0.65847 0.08474 0.0
C488 C 0.02643 0.57844 0.97352 0.0
C489 C 1.01974 0.58494 0.88092 0.0
C490 C 0.02453 0.59669 0.0471 0.0
C491 C 1.01535 0.62191 0.02786 0.0
C492 C 1.00854 0.62837 0.93429 0.0
C493 C 1.01109 0.61 0.86234 0.0
C494 C 0.03194 0.58893 0.14572 0.0
C495 C 0.99808 0.65465 0.91024 0.0
H496 H 0.96305 0.66357 0.24754 0.0
H497 H 0.03945 0.6931 0.21323 0.0
H498 H 0.97107 0.60736 0.08748 0.0
H499 H 0.95478 0.61856 0.19132 0.0
H500 H 0.95066 0.63517 0.08222 0.0
H501 H 0.06994 0.67266 0.11603 0.0
H502 H 0.0649 0.63897 0.09161 0.0
H503 H 0.05451 0.66261 0.00851 0.0
H504 H 0.03376 0.55935 0.98795 0.0
H505 H 1.006 0.61524 0.79087 0.0
H506 H 1.01438 0.58784 0.18976 0.0
H507 H 0.04476 0.60356 0.17777 0.0
H508 H 0.04182 0.57 0.14774 0.0
H509 H 0.97949 0.65761 0.94683 0.0
H510 H 0.99493 0.65717 0.83351 0.0
H511 H 1.01148 0.66981 0.93502 0.0
C512 C 0.99458 0.21692 0.34538 0.0
C513 C 0.98281 0.23833 0.30448 0.0
C514 C 0.97999 0.19824 0.39127 0.0
C515 C 0.95298 0.20157 0.3983 0.0
C516 C 0.9417 0.22514 0.36999 0.0
C517 C 0.95678 0.24325 0.32161 0.0
C518 C 0.99319 0.17365 0.42161 0.0
C519 C 0.91346 0.23047 0.38294 0.0
C520 C 0.92691 0.13636 0.35044 0.0
C521 C 0.93088 0.1252 0.439 0.0
C522 C 0.93049 0.1628 0.33715 0.0
C523 C 0.93703 0.17838 0.41534 0.0
C524 C 0.93537 0.16807 0.50697 0.0
C525 C 0.93287 0.14138 0.51795 0.0
C526 C 0.93107 0.17316 0.23793 0.0
C527 C 0.93964 0.18455 0.59277 0.0
H528 H 1.01486 0.21352 0.33277 0.0
H529 H 0.94778 0.26007 0.29073 0.0
H530 H 0.98939 0.16976 0.49689 0.0
H531 H 0.98559 0.15718 0.38049 0.0
H532 H 1.01435 0.17445 0.41159 0.0
H533 H 0.91047 0.25094 0.4023 0.0
H534 H 0.9032 0.22718 0.31556 0.0
H535 H 0.90477 0.21807 0.43791 0.0
H536 H 0.92388 0.1241 0.28982 0.0
H537 H 0.93524 0.13327 0.5876 0.0
H538 H 0.95113 0.17817 0.21857 0.0
H539 H 0.91937 0.1909 0.23268 0.0
H540 H 0.92368 0.15902 0.18599 0.0
H541 H 0.96026 0.18411 0.61277 0.0
H542 H 0.92847 0.17706 0.65338 0.0
H543 H 0.93405 0.20484 0.57949 0.0
C544 C 0.31154 0.9287 0.1785 0.0
C545 C 0.30067 0.94972 0.22558 0.0
C546 C 0.33332 0.91633 0.21551 0.0
C547 C 0.34471 0.92613 0.29839 0.0
C548 C 0.33079 0.9438 0.3544 0.0
C549 C 0.30854 0.95518 0.31753 0.0
C550 C 0.34632 0.89566 0.15868 0.0
C551 C 0.34164 0.95402 0.44547 0.0
C552 C 0.41087 0.91321 0.40108 0.0
C553 C 0.42515 0.93278 0.35754 0.0
C554 C 0.38502 0.90892 0.37662 0.0
C555 C 0.37312 0.92514 0.30938 0.0
C556 C 0.38812 0.94361 0.26048 0.0
C557 C 0.41393 0.947 0.28471 0.0
C558 C 0.37041 0.88799 0.42689 0.0
C559 C 0.37651 0.96148 0.18796 0.0
H560 H 0.30513 0.92414 0.10787 0.0
H561 H 0.29987 0.97123 0.35443 0.0
H562 H 0.36072 0.90455 0.11127 0.0
H563 H 0.35648 0.88182 0.20519 0.0
H564 H 0.33219 0.8851 0.11457 0.0
H565 H 0.34877 0.93804 0.48999 0.0
H566 H 0.35814 0.9669 0.43015 0.0
H567 H 0.32712 0.96509 0.48587 0.0
H568 H 0.41962 0.90188 0.45661 0.0
H569 H 0.42478 0.96229 0.25139 0.0
H570 H 0.38282 0.8708 0.43658 0.0
H571 H 0.35274 0.88218 0.38861 0.0
H572 H 0.36496 0.89483 0.49795 0.0
H573 H 0.36691 0.95033 0.13165 0.0
H574 H 0.39113 0.974 0.15445 0.0
H575 H 0.36185 0.97392 0.2216 0.0
C576 C 0.62406 0.30046 0.21483 0.0
C577 C 0.60039 0.29154 0.24872 0.0
C578 C 0.63589 0.32193 0.25611 0.0
C579 C 0.62299 0.33498 0.32926 0.0
C580 C 0.60209 0.32281 0.37502 0.0
C581 C 0.59112 0.30087 0.33434 0.0
C582 C 0.6597 0.33301 0.21158 0.0
C583 C 0.58848 0.33536 0.45656 0.0
C584 C 0.63348 0.4019 0.42723 0.0
C585 C 0.61605 0.41597 0.37172 0.0
C586 C 0.63818 0.37574 0.40928 0.0
C587 C 0.62486 0.36345 0.33506 0.0
C588 C 0.6094 0.37831 0.27318 0.0
C589 C 0.60524 0.4043 0.29234 0.0
C590 C 0.65605 0.36122 0.47386 0.0
C591 C 0.59505 0.36641 0.1916 0.0
H592 H 0.63152 0.29287 0.14936 0.0
H593 H 0.573 0.29366 0.36124 0.0
H594 H 0.6541 0.34698 0.15617 0.0
H595 H 0.67161 0.34329 0.2644 0.0
H596 H 0.67141 0.31769 0.17818 0.0
H597 H 0.57504 0.32189 0.49201 0.0
H598 H 0.60258 0.34245 0.50898 0.0
H599 H 0.5773 0.35214 0.43073 0.0
H600 H 0.64247 0.41096 0.4875 0.0
H601 H 0.59165 0.41485 0.24921 0.0
H602 H 0.66303 0.34302 0.4422 0.0
H603 H 0.64586 0.35664 0.54024 0.0
H604 H 0.67289 0.37334 0.4925 0.0
H605 H 0.58565 0.3811 0.14658 0.0
H606 H 0.58003 0.35318 0.21859 0.0
H607 H 0.60829 0.3552 0.14666 0.0
C608 C 0.23072 0.55967 0.3677 0.0
C609 C 0.24912 0.57307 0.31578 0.0
C610 C 0.21019 0.57273 0.409 0.0
C611 C 0.20872 0.59987 0.39967 0.0
C612 C 0.23009 0.61361 0.36419 0.0
C613 C 0.24997 0.59995 0.32005 0.0
C614 C 0.18835 0.55708 0.44953 0.0
C615 C 0.23068 0.64257 0.36282 0.0
C616 C 0.14166 0.61197 0.31923 0.0
C617 C 0.12895 0.61053 0.4057 0.0
C618 C 0.16852 0.61193 0.31538 0.0
C619 C 0.18282 0.61183 0.4005 0.0
C620 C 0.17002 0.61601 0.48662 0.0
C621 C 0.14309 0.61473 0.4887 0.0
C622 C 0.18119 0.6081 0.22091 0.0
C623 C 0.18449 0.61881 0.57801 0.0
H624 H 0.23049 0.53882 0.36485 0.0
H625 H 0.26456 0.61028 0.28094 0.0
H626 H 0.18366 0.56389 0.5212 0.0
H627 H 0.1709 0.55937 0.40525 0.0
H628 H 0.19303 0.53626 0.4538 0.0
H629 H 0.25047 0.64955 0.37753 0.0
H630 H 0.22528 0.64963 0.29188 0.0
H631 H 0.21733 0.65098 0.41523 0.0
H632 H 0.13069 0.61017 0.25466 0.0
H633 H 0.13356 0.61446 0.55635 0.0
H634 H 0.18982 0.58861 0.21771 0.0
H635 H 0.1968 0.6223 0.21067 0.0
H636 H 0.16739 0.61003 0.16161 0.0
H637 H 0.18346 0.60056 0.61829 0.0
H638 H 0.17536 0.6339 0.62193 0.0
H639 H 0.20498 0.62391 0.56684 0.0
C640 C 0.96022 0.79766 0.15971 0.0
C641 C 0.95 0.79493 0.25043 0.0
C642 C 0.95968 0.82171 0.11502 0.0
C643 C 0.94869 0.8428 0.16313 0.0
C644 C 0.93238 0.83809 0.24058 0.0
C645 C 0.93263 0.81365 0.28237 0.0
C646 C 0.97549 0.82558 0.02744 0.0
C647 C 0.91875 0.85976 0.2899 0.0
C648 C 0.99703 0.89606 0.20239 0.0
C649 C 0.98895 0.9148 0.13849 0.0
C650 C 0.98388 0.87278 0.21105 0.0
C651 C 0.96158 0.86822 0.15561 0.0
C652 C 0.95279 0.88742 0.09279 0.0
C653 C 0.96661 0.91055 0.08505 0.0
C654 C 0.99414 0.85313 0.27995 0.0
C655 C 0.92893 0.8838 0.03371 0.0
H656 H 0.9726 0.7828 0.13141 0.0
H657 H 0.92336 0.811 0.3499 0.0
H658 H 0.96706 0.84076 0.98201 0.0
H659 H 0.99517 0.83172 0.04774 0.0
H660 H 0.97706 0.80747 0.98648 0.0
H661 H 0.9023 0.85254 0.33207 0.0
H662 H 0.93242 0.86948 0.33826 0.0
H663 H 0.91168 0.87422 0.23863 0.0
H664 H 1.01399 0.89949 0.24497 0.0
H665 H 0.96039 0.92493 0.03476 0.0
H666 H 0.99591 0.83396 0.24682 0.0
H667 H 0.98064 0.85159 0.33979 0.0
H668 H 1.01335 0.85842 0.30805 0.0
H669 H 0.92618 0.86344 0.01278 0.0
H670 H 0.92952 0.8959 0.96931 0.0
H671 H 0.91193 0.88975 0.07529 0.0
C672 C 0.75621 0.96379 0.16253 0.0
C673 C 0.75853 0.95223 0.2514 0.0
C674 C 0.73248 0.96355 0.11553 0.0
C675 C 0.71132 0.95136 0.15916 0.0
C676 C 0.71584 0.93396 0.23378 0.0
C677 C 0.74001 0.93394 0.27771 0.0
C678 C 0.7289 0.98064 0.03082 0.0
C679 C 0.69414 0.91915 0.27826 0.0
C680 C 0.656 0.99737 0.19793 0.0
C681 C 0.63808 0.98916 0.13124 0.0
C682 C 0.67965 0.98494 0.20799 0.0
C683 C 0.68556 0.96348 0.15007 0.0
C684 C 0.6673 0.95476 0.08348 0.0
C685 C 0.64368 0.96768 0.07519 0.0
C686 C 0.6982 0.99495 0.28126 0.0
C687 C 0.67246 0.9319 0.021 0.0
H688 H 0.77098 0.97689 0.13814 0.0
H689 H 0.74241 0.92364 0.34349 0.0
H690 H 0.71431 0.97257 0.98208 0.0
H691 H 0.72208 0.99981 0.05428 0.0
H692 H 0.74727 0.98331 0.99232 0.0
H693 H 0.70141 0.90233 0.31851 0.0
H694 H 0.68369 0.93194 0.32761 0.0
H695 H 0.68029 0.91243 0.22423 0.0
H696 H 0.65154 1.01378 0.24193 0.0
H697 H 0.62993 0.96147 0.02262 0.0
H698 H 0.71765 0.99769 0.25132 0.0
H699 H 0.69958 0.98078 0.33931 0.0
H700 H 0.69198 1.01363 0.31129 0.0
H701 H 0.69307 0.93034 1.00203 0.0
H702 H 0.66087 0.93284 0.95536 0.0
H703 H 0.66697 0.9141 0.05899 0.0
C704 C 0.45946 0.74538 0.15809 0.0
C705 C 0.45143 0.755 0.24502 0.0
C706 C 0.44798 0.72326 0.12077 0.0
C707 C 0.4279 0.71117 0.17147 0.0
C708 C 0.41587 0.72461 0.24562 0.0
C709 C 0.42812 0.74636 0.28314 0.0
C710 C 0.46043 0.7104 0.03743 0.0
C711 C 0.39277 0.71366 0.2952 0.0
C712 C 0.41821 0.64315 0.0834 0.0
C713 C 0.43707 0.63021 0.13629 0.0
C714 C 0.41279 0.66927 0.0996 0.0
C715 C 0.4267 0.68262 0.16977 0.0
C716 C 0.44351 0.66881 0.23019 0.0
C717 C 0.4485 0.64289 0.21246 0.0
C718 C 0.39349 0.6826 0.03716 0.0
C719 C 0.45831 0.68182 0.30841 0.0
H720 H 0.47717 0.75245 0.12732 0.0
H721 H 0.42147 0.7543 0.34921 0.0
H722 H 0.4723 0.69397 0.06214 0.0
H723 H 0.44562 0.70276 0.98879 0.0
H724 H 0.47303 0.72385 0.99802 0.0
H725 H 0.38122 0.72917 0.32824 0.0
H726 H 0.38043 0.70267 0.24573 0.0
H727 H 0.3992 0.70038 0.35164 0.0
H728 H 0.40859 0.63329 0.0262 0.0
H729 H 0.46312 0.63327 0.2539 0.0
H730 H 0.4024 0.68661 0.96788 0.0
H731 H 0.38658 0.70098 0.06756 0.0
H732 H 0.37671 0.66986 0.02434 0.0
H733 H 0.47226 0.69566 0.27814 0.0
H734 H 0.46902 0.66787 0.35264 0.0
H735 H 0.44508 0.69254 0.35496 0.0
C736 C 0.80265 0.58571 0.17589 0.0
C737 C 0.80053 0.59534 0.26771 0.0
C738 C 0.82653 0.58598 0.1304 0.0
C739 C 0.84809 0.59585 0.17921 0.0
C740 C 0.84413 0.61173 0.25842 0.0
C741 C 0.81978 0.61204 0.30048 0.0
C742 C 0.82965 0.57097 0.04056 0.0
C743 C 0.86637 0.62413 0.30901 0.0
C744 C 0.89931 0.54489 0.20908 0.0
C745 C 0.91848 0.55349 0.14839 0.0
C746 C 0.87662 0.55887 0.22056 0.0
C747 C 0.87299 0.58215 0.16965 0.0
C748 C 0.89258 0.59117 0.10914 0.0
C749 C 0.91524 0.57673 0.09967 0.0
C750 C 0.85663 0.54849 0.28754 0.0
C751 C 0.88985 0.61585 0.0541 0.0
H752 H 0.78738 0.57397 0.14676 0.0
H753 H 0.81757 0.62101 0.3688 0.0
H754 H 0.84506 0.57933 0.99618 0.0
H755 H 0.83508 0.55086 0.05787 0.0
H756 H 0.81143 0.57051 0.99974 0.0
H757 H 0.85983 0.64029 0.35405 0.0
H758 H 0.87584 0.60961 0.35472 0.0
H759 H 0.88084 0.63136 0.25835 0.0
H760 H 0.90203 0.52697 0.24695 0.0
H761 H 0.93006 0.58313 0.05156 0.0
H762 H 0.83765 0.54692 0.25262 0.0
H763 H 0.85478 0.56184 0.34773 0.0
H764 H 0.8617 0.52918 0.31541 0.0
H765 H 0.86958 0.6198 0.03455 0.0
H766 H 0.90165 0.61542 0.98911 0.0
H767 H 0.89683 0.63206 0.09791 0.0
C768 C 1.00209 0.21684 0.95003 0.0
C769 C 0.02292 0.22887 0.99526 0.0
C770 C 1.00495 0.19319 0.90301 0.0
C771 C 0.02942 0.18123 0.89926 0.0
C772 C 0.051 0.19464 0.93625 0.0
C773 C 0.04747 0.21813 0.98472 0.0
C774 C 0.98123 0.17982 0.86608 0.0
C775 C 0.07758 0.18318 0.93119 0.0
C776 C 0.03015 0.10769 0.91041 0.0
C777 C 0.03261 0.10057 0.81561 0.0
C778 C 0.02928 0.1337 0.93794 0.0
C779 C 0.03159 0.15346 0.86957 0.0
C780 C 0.03469 0.14644 0.77379 0.0
C781 C 0.03479 0.12016 0.74788 0.0
C782 C 0.02517 0.14 0.04047 0.0
C783 C 0.03759 0.16666 0.69841 0.0
H784 H 0.98299 0.2248 0.95912 0.0
H785 H 0.06359 0.22698 0.02066 0.0
H786 H 0.98461 0.17206 0.79463 0.0
H787 H 0.97653 0.16332 0.91253 0.0
H788 H 0.96434 0.19287 0.86348 0.0
H789 H 0.09269 0.19764 0.94714 0.0
H790 H 0.07924 0.16727 0.98286 0.0
H791 H 0.08117 0.17501 0.86038 0.0
H792 H 0.02812 0.09285 0.96344 0.0
H793 H 0.03671 0.11497 0.67446 0.0
H794 H 1.0074 0.1516 0.04866 0.0
H795 H 0.0414 0.15174 0.06727 0.0
H796 H 0.02346 0.12249 0.08483 0.0
H797 H 1.01906 0.17683 0.68816 0.0
H798 H 0.04346 0.15824 0.62999 0.0
H799 H 0.05205 0.18122 0.71989 0.0
C800 C 0.32435 0.02807 0.93801 0.0
C801 C 0.32415 0.02292 0.03478 0.0
C802 C 0.34765 0.03342 0.89062 0.0
C803 C 0.37133 0.03289 0.94072 0.0
C804 C 0.37086 0.02935 0.03947 0.0
C805 C 0.34735 0.02478 0.08508 0.0
C806 C 0.34707 0.03818 0.78608 0.0
C807 C 0.39539 0.02853 0.09641 0.0
C808 C 0.43272 1.01004 0.81915 0.0
C809 C 0.44756 0.03251 0.81697 0.0
C810 C 0.40769 1.01007 0.85699 0.0
C811 C 0.39673 0.03337 0.89016 0.0
C812 C 0.41124 0.05641 0.88303 0.0
C813 C 0.43669 0.05557 0.84886 0.0
C814 C 0.39356 0.98484 0.86638 0.0
C815 C 0.4002 0.08186 0.91382 0.0
H816 H 0.3066 0.02635 0.89846 0.0
H817 H 0.34731 1.02062 0.15983 0.0
H818 H 0.35994 0.05441 0.76731 0.0
H819 H 0.35414 1.02087 0.7487 0.0
H820 H 0.32734 0.04252 0.76056 0.0
H821 H 0.3918 0.02486 0.17221 0.0
H822 H 0.40823 1.01321 0.06917 0.0
H823 H 0.40583 0.04701 0.08964 0.0
H824 H 0.44123 0.99213 0.79576 0.0
H825 H 0.44815 0.07298 0.84729 0.0
H826 H 0.37451 0.98605 0.83152 0.0
H827 H 0.39012 0.98063 0.94186 0.0
H828 H 0.4044 0.96854 0.83528 0.0
H829 H 0.37988 0.08373 0.89088 0.0
H830 H 0.41135 0.09832 0.88528 0.0
H831 H 0.40058 0.08309 0.9916 0.0
C832 C 0.55957 0.32703 0.939 0.0
C833 C 0.54125 0.31402 0.99402 0.0
C834 C 0.55455 0.35139 0.90014 0.0
C835 C 0.53003 0.36277 0.91185 0.0
C836 C 0.51055 0.34857 0.95886 0.0
C837 C 0.51646 0.32451 1.0004 0.0
C838 C 0.57637 0.36596 0.85476 0.0
C839 C 0.48394 0.3595 0.97078 0.0
C840 C 0.52879 0.4363 0.92324 0.0
C841 C 0.52436 0.4432 0.82914 0.0
C842 C 0.53013 0.41034 0.95135 0.0
C843 C 0.52607 0.39049 0.88444 0.0
C844 C 0.52034 0.39737 0.79012 0.0
C845 C 0.52005 0.42354 0.76328 0.0
C846 C 0.53593 0.40452 0.05327 0.0
C847 C 0.51454 0.37707 0.71738 0.0
H848 H 0.57872 0.319 0.93272 0.0
H849 H 0.50216 0.31481 0.04293 0.0
H850 H 0.57061 0.37326 0.78461 0.0
H851 H 0.58132 0.38288 0.89878 0.0
H852 H 0.59388 0.35394 0.84655 0.0
H853 H 0.46979 0.34438 0.98987 0.0
H854 H 0.48421 0.37408 0.02764 0.0
H855 H 0.47744 0.36919 0.90532 0.0
H856 H 0.53199 0.45125 0.97505 0.0
H857 H 0.51619 0.4286 0.69067 0.0
H858 H 0.54661 0.38624 0.062 0.0
H859 H 0.51755 0.40279 0.09214 0.0
H860 H 0.54724 0.42022 0.08639 0.0
H861 H 0.53219 0.36593 0.70161 0.0
H862 H 0.50723 0.38551 0.65073 0.0
H863 H 0.50006 0.36332 0.74489 0.0
C864 C 0.22502 0.50877 0.98923 0.0
C865 C 0.23391 0.53372 0.00795 0.0
C866 C 0.20143 0.50466 0.94143 0.0
C867 C 0.18604 0.52597 0.91343 0.0
C868 C 0.19596 0.55111 0.9262 0.0
C869 C 0.21976 0.5546 0.97183 0.0
C870 C 0.19216 0.4775 0.92663 0.0
C871 C 0.18041 0.57455 0.89972 0.0
C872 C 0.12555 0.52048 0.75801 0.0
C873 C 0.10579 0.51912 0.8252 0.0
C874 C 0.15174 0.52173 0.78511 0.0
C875 C 0.1585 0.52238 0.88192 0.0
C876 C 0.13857 0.52114 0.9498 0.0
C877 C 0.1127 0.5192 0.92079 0.0
C878 C 0.17216 0.5226 0.70999 0.0
C879 C 0.14451 0.52261 0.05367 0.0
H880 H 0.23554 0.49252 0.01763 0.0
H881 H 0.22637 0.57397 0.98642 0.0
H882 H 0.17657 0.47316 0.97733 0.0
H883 H 0.1841 0.4752 0.85481 0.0
H884 H 0.20782 0.46325 0.93697 0.0
H885 H 0.19179 0.59257 0.90528 0.0
H886 H 0.17295 0.57287 0.82694 0.0
H887 H 0.16358 0.57612 0.9472 0.0
H888 H 0.12057 0.52034 0.68399 0.0
H889 H 0.09773 0.51844 0.97361 0.0
H890 H 0.18725 0.50805 0.72474 0.0
H891 H 0.1816 0.54171 0.70998 0.0
H892 H 0.16413 0.51906 0.63873 0.0
H893 H 0.1576 0.50673 0.07418 0.0
H894 H 0.12693 0.52146 0.09765 0.0
H895 H 0.15453 0.54095 0.0696 0.0
C896 C 0.03093 0.82245 0.47571 0.0
C897 C 1.00982 0.8079 0.50632 0.0
C898 C 0.03621 0.84701 0.51396 0.0
C899 C 1.01988 0.85749 0.58412 0.0
C900 C 0.99967 0.84202 0.61985 0.0
C901 C 0.99498 0.81753 0.58086 0.0
C902 C 0.05814 0.86249 0.47414 0.0
C903 C 0.98146 0.85222 0.69335 0.0
C904 C 0.03763 0.9188 0.72097 0.0
C905 C 0.02493 0.93807 0.66923 0.0
C906 C 0.03666 0.89269 0.6933 0.0
C907 C 0.02212 0.88536 0.61312 0.0
C908 C 1.00901 0.90476 0.56154 0.0
C909 C 1.0109 0.93073 0.5892 0.0
C910 C 0.05127 0.87292 0.74978 0.0
C911 C 0.99308 0.89825 0.47609 0.0
H912 H 0.04206 0.81559 0.41646 0.0
H913 H 0.97826 0.80672 0.60338 0.0
H914 H 0.05039 0.8779 0.42811 0.0
H915 H 0.06921 0.8719 0.53134 0.0
H916 H 0.07142 0.85042 0.43191 0.0
H917 H 0.9685 0.83702 0.721 0.0
H918 H 0.99224 0.86074 0.75299 0.0
H919 H 0.96949 0.86771 0.66204 0.0
H920 H 0.04864 0.92416 0.78269 0.0
H921 H 1.00093 0.94531 0.54862 0.0
H922 H 0.06246 0.88172 0.80807 0.0
H923 H 0.06466 0.86227 0.70334 0.0
H924 H 0.03773 0.85867 0.77991 0.0
H925 H 1.00617 0.89345 0.41749 0.0
H926 H 0.98072 0.91455 0.4534 0.0
H927 H 0.98069 0.88128 0.48947 0.0
C928 C 0.72967 0.99252 0.58112 0.0
C929 C 0.7399 1.00869 0.51134 0.0
C930 C 0.70493 0.99659 0.61836 0.0
C931 C 0.68984 1.01749 0.58574 0.0
C932 C 0.70086 0.03502 0.52059 0.0
C933 C 0.72568 0.03037 0.48398 0.0
C934 C 0.69416 0.9772 0.68684 0.0
C935 C 0.68576 0.05773 0.48439 0.0
C936 C 0.61665 1.00884 0.58563 0.0
C937 C 0.60922 0.02158 0.6682 0.0
C938 C 0.64266 1.0074 0.55835 0.0
C939 C 0.66195 1.01952 0.61345 0.0
C940 C 0.65453 0.03275 0.6962 0.0
C941 C 0.6284 0.03341 0.72296 0.0
C942 C 0.64939 0.99295 0.46985 0.0
C943 C 0.67423 0.04624 0.75659 0.0
H944 H 0.74034 0.97547 0.60139 0.0
H945 H 0.73309 0.0426 0.42852 0.0
H946 H 0.68564 0.98702 0.74852 0.0
H947 H 0.67858 0.96612 0.65211 0.0
H948 H 0.70903 0.96347 0.71206 0.0
H949 H 0.69818 0.0717 0.44663 0.0
H950 H 0.6707 0.05091 0.43507 0.0
H951 H 0.67597 0.06779 0.54302 0.0
H952 H 0.60213 0.9996 0.54261 0.0
H953 H 0.62299 0.04346 0.78664 0.0
H954 H 0.66561 0.97952 0.48263 0.0
H955 H 0.65557 1.0069 0.41561 0.0
H956 H 0.63285 0.98187 0.44153 0.0
H957 H 0.68822 0.03207 0.78467 0.0
H958 H 0.66534 0.05656 0.81661 0.0
H959 H 0.68519 0.06025 0.71355 0.0
C960 C 0.53566 0.72165 0.48907 0.0
C961 C 0.51125 0.73294 0.49745 0.0
C962 C 0.54117 0.69755 0.53094 0.0
C963 C 0.52167 0.68406 0.58049 0.0
C964 C 0.49757 0.69616 0.59391 0.0
C965 C 0.493 0.72061 0.55491 0.0
C966 C 0.56724 0.68564 0.516 0.0
C967 C 0.47564 0.68228 0.64142 0.0
C968 C 0.52201 0.61039 0.57321 0.0
C969 C 0.52698 0.60382 0.66725 0.0
C970 C 0.52073 0.63623 0.54365 0.0
C971 C 0.52521 0.65636 0.60919 0.0
C972 C 0.5314 0.6498 0.7035 0.0
C973 C 0.53171 0.62372 0.73174 0.0
C974 C 0.51447 0.64126 0.44155 0.0
C975 C 0.53788 0.67033 0.77457 0.0
H976 H 0.54991 0.73073 0.44456 0.0
H977 H 0.47417 0.72925 0.5631 0.0
H978 H 0.5744 0.6768 0.58216 0.0
H979 H 0.56565 0.67015 0.46268 0.0
H980 H 0.58153 0.69996 0.49093 0.0
H981 H 0.45847 0.69473 0.6502 0.0
H982 H 0.47009 0.66532 0.59854 0.0
H983 H 0.48158 0.67508 0.71152 0.0
H984 H 0.51843 0.59528 0.52235 0.0
H985 H 0.536 0.61891 0.80425 0.0
H986 H 0.53081 0.63471 0.39761 0.0
H987 H 0.51067 0.66173 0.42519 0.0
H988 H 0.49743 0.62975 0.42025 0.0
H989 H 0.55265 0.68353 0.74553 0.0
H990 H 0.54515 0.66208 0.84161 0.0
H991 H 0.52059 0.68204 0.79005 0.0
C992 C 0.82656 0.51369 0.49507 0.0
C993 C 0.81249 0.53528 0.52418 0.0
C994 C 0.85117 0.50827 0.53289 0.0
C995 C 0.86229 0.52503 0.60061 0.0
C996 C 0.84728 0.54573 0.63512 0.0
C997 C 0.82265 0.55043 0.59717 0.0
C998 C 0.86604 0.48569 0.49487 0.0
C999 C 0.85819 0.56455 0.70542 0.0
C1000 C 0.92472 0.50861 0.73407 0.0
C1001 C 0.94358 0.52038 0.67791 0.0
C1002 C 0.89836 0.50939 0.70898 0.0
C1003 C 0.89038 0.52289 0.62708 0.0
C1004 C 0.90939 0.53513 0.57117 0.0
C1005 C 0.93557 0.53337 0.59628 0.0
C1006 C 0.87906 0.49555 0.76969 0.0
C1007 C 0.90222 0.55 0.48379 0.0
H1008 H 0.8193 0.50225 0.43713 0.0
H1009 H 0.81222 0.5675 0.61857 0.0
H1010 H 0.88077 0.49269 0.4447 0.0
H1011 H 0.87619 0.47541 0.55241 0.0
H1012 H 0.85335 0.4719 0.45739 0.0
H1013 H 0.8433 0.57785 0.73299 0.0
H1014 H 0.86715 0.55428 0.76544 0.0
H1015 H 0.87345 0.57614 0.67113 0.0
H1016 H 0.93059 0.49837 0.79695 0.0
H1017 H 0.94982 0.54263 0.55226 0.0
H1018 H 0.86809 0.48155 0.72652 0.0
H1019 H 0.86501 0.50946 0.79872 0.0
H1020 H 0.88831 0.48513 0.82902 0.0
H1021 H 0.89689 0.53623 0.42774 0.0
H1022 H 0.91835 0.562 0.45755 0.0
H1023 H 0.88542 0.56265 0.49678 0.0
loop_
_geom_bond_atom_site_label_1
_geom_bond_atom_site_label_2
_geom_bond_distance
_geom_bond_site_symmetry_2
_ccdc_geom_bond_type
H0 C5 0.930 . S
H1 C8 0.930 . S
H2 C10 0.930 . S
H3 C4 1.016 . S
C4 H3 1.016 . S
C4 N11 1.286 . S
C5 H0 0.930 . S
C5 C6 1.397 . S
C5 C7 1.361 . S
C6 C5 1.397 . S
C6 C10 1.390 . S
C7 C5 1.361 . S
C7 C8 1.393 . S
C7 N11 1.413 . S
C8 H1 0.930 . S
C8 C7 1.393 . S
C8 C9 1.399 . S
C9 C8 1.399 . S
C9 C10 1.381 . S
C10 H2 0.930 . S
C10 C6 1.390 . S
C10 C9 1.381 . S
N11 C4 1.286 . S
N11 C7 1.413 . S
H12 C17 0.930 . S
H13 C20 0.930 . S
H14 C22 0.930 . S
H15 C16 1.029 . S
C16 H15 1.029 . S
C16 N23 1.268 1_655 S
C17 H12 0.930 . S
C17 C18 1.397 . S
C17 C19 1.361 . S
C18 C17 1.397 . S
C18 C22 1.390 1_455 S
C19 C17 1.361 . S
C19 C20 1.393 . S
C19 N23 1.413 . S
C20 H13 0.930 . S
C20 C19 1.393 . S
C20 C21 1.402 . S
C21 C20 1.402 . S
C21 C22 1.379 1_455 S
C22 H14 0.930 . S
C22 C18 1.390 1_655 S
C22 C21 1.379 1_655 S
N23 C16 1.268 1_455 S
N23 C19 1.413 . S
H24 C29 0.930 . S
H25 C32 0.930 . S
H26 C34 0.930 . S
H27 C28 1.030 . S
C28 H27 1.030 . S
C28 N35 1.268 1_565 S
C29 H24 0.930 . S
C29 C30 1.397 . S
C29 C31 1.361 . S
C30 C29 1.397 . S
C30 C34 1.390 1_545 S
C31 C29 1.361 . S
C31 C32 1.393 . S
C31 N35 1.413 . S
C32 H25 0.930 . S
C32 C31 1.393 . S
C32 C33 1.402 . S
C33 C32 1.402 . S
C33 C34 1.379 1_545 S
C34 H26 0.930 . S
C34 C30 1.390 1_565 S
C34 C33 1.379 1_565 S
N35 C28 1.268 1_545 S
N35 C31 1.413 . S
H36 C41 0.930 . S
H37 C44 0.930 . S
H38 C46 0.930 . S
H39 C40 1.016 . S
C40 H39 1.016 . S
C40 N47 1.286 . S
C41 H36 0.930 . S
C41 C42 1.397 . S
C41 C43 1.361 . S
C42 C41 1.397 . S
C42 C46 1.390 . S
C43 C41 1.361 . S
C43 C44 1.393 . S
C43 N47 1.413 . S
C44 H37 0.930 . S
C44 C43 1.393 . S
C44 C45 1.399 . S
C45 C44 1.399 . S
C45 C46 1.381 . S
C46 H38 0.930 . S
C46 C42 1.390 . S
C46 C45 1.381 . S
N47 C40 1.286 . S
N47 C43 1.413 . S
H48 C53 0.930 . S
H49 C56 0.930 . S
H50 C58 0.930 . S
H51 C52 1.016 . S
C52 H51 1.016 . S
C52 N59 1.286 . S
C53 H48 0.930 . S
C53 C54 1.397 . S
C53 C55 1.361 1_556 S
C54 C53 1.397 . S
C54 C58 1.390 1_556 S
C55 C53 1.361 1_554 S
C55 C56 1.393 . S
C55 N59 1.413 . S
C56 H49 0.930 . S
C56 C55 1.393 . S
C56 C57 1.399 . S
C57 C56 1.399 . S
C57 C58 1.381 . S
C58 H50 0.930 . S
C58 C54 1.390 1_554 S
C58 C57 1.381 . S
N59 C52 1.286 . S
N59 C55 1.413 . S
H60 C65 0.930 . S
H61 C68 0.930 . S
H62 C70 0.930 . S
H63 C64 1.026 . S
C64 H63 1.026 . S
C64 N71 1.273 1_655 S
C65 H60 0.930 . S
C65 C66 1.397 . S
C65 C67 1.361 1_556 S
C66 C65 1.397 . S
C66 C70 1.390 1_456 S
C67 C65 1.361 1_554 S
C67 C68 1.393 . S
C67 N71 1.413 . S
C68 H61 0.930 . S
C68 C67 1.393 . S
C68 C69 1.404 . S
C69 C68 1.404 . S
C69 C70 1.378 1_455 S
C70 H62 0.930 . S
C70 C66 1.390 1_654 S
C70 C69 1.378 1_655 S
N71 C64 1.273 1_455 S
N71 C67 1.413 . S
H72 C77 0.930 . S
H73 C80 0.930 . S
H74 C82 0.930 . S
H75 C76 1.026 . S
C76 H75 1.026 . S
C76 N83 1.273 1_565 S
C77 H72 0.930 . S
C77 C78 1.397 . S
C77 C79 1.361 1_556 S
C78 C77 1.397 . S
C78 C82 1.390 1_546 S
C79 C77 1.361 1_554 S
C79 C80 1.393 . S
C79 N83 1.413 . S
C80 H73 0.930 . S
C80 C79 1.393 . S
C80 C81 1.404 . S
C81 C80 1.404 . S
C81 C82 1.378 1_545 S
C82 H74 0.930 . S
C82 C78 1.390 1_564 S
C82 C81 1.378 1_565 S
N83 C76 1.273 1_545 S
N83 C79 1.413 . S
H84 C89 0.930 . S
H85 C92 0.930 . S
H86 C94 0.930 . S
H87 C88 1.016 . S
C88 H87 1.016 . S
C88 N95 1.286 . S
C89 H84 0.930 . S
C89 C90 1.397 . S
C89 C91 1.361 1_556 S
C90 C89 1.397 . S
C90 C94 1.390 1_556 S
C91 C89 1.361 1_554 S
C91 C92 1.393 . S
C91 N95 1.413 . S
C92 H85 0.930 . S
C92 C91 1.393 . S
C92 C93 1.399 . S
C93 C92 1.399 . S
C93 C94 1.381 . S
C94 H86 0.930 . S
C94 C90 1.390 1_554 S
C94 C93 1.381 . S
N95 C88 1.286 . S
N95 C91 1.413 . S
C96 Eu97 2.835 . S
C96 C98 1.500 . S
C96 O116 1.257 . S
C96 O117 1.260 . S
Eu97 C96 2.835 . S
Eu97 O116 2.473 . S
Eu97 O117 2.480 . S
Eu97 O118 2.430 . S
Eu97 O119 2.670 1_545 S
Eu97 O120 2.394 . S
Eu97 O125 2.355 1_655 S
Eu97 O127 2.374 1_545 S
C98 C96 1.500 . S
C98 C99 1.377 . S
C98 C103 1.377 . S
C99 C98 1.377 . S
C99 C100 1.395 . S
C99 H128 0.931 . S
C100 C99 1.395 . S
C100 C101 1.383 . S
C100 H129 0.931 . S
C101 C100 1.383 . S
C101 C102 1.394 . S
C102 C101 1.394 . S
C102 C103 1.378 . S
C102 H130 0.931 1_655 S
C103 C98 1.377 . S
C103 C102 1.378 . S
C103 H131 0.931 1_655 S
C104 O118 1.259 . S
C104 O119 1.270 1_545 S
C105 O120 1.251 1_455 S
C105 O121 1.251 . S
C106 Eu107 2.835 . S
C106 C108 1.500 . S
C106 O122 1.257 . S
C106 O123 1.260 . S
Eu107 C106 2.835 . S
Eu107 O119 2.355 1_455 S
Eu107 O121 2.374 1_565 S
Eu107 O122 2.473 . S
Eu107 O123 2.480 . S
Eu107 O124 2.430 . S
Eu107 O125 2.670 1_565 S
Eu107 O126 2.394 . S
C108 C106 1.500 . S
C108 C109 1.377 1_556 S
C108 C113 1.377 1_556 S
C109 C108 1.377 1_554 S
C109 C110 1.395 . S
C109 H132 0.931 1_554 S
C110 C109 1.395 . S
C110 C111 1.383 . S
C110 H133 0.931 . S
C111 C110 1.383 . S
C111 C112 1.394 . S
C112 C111 1.394 . S
C112 C113 1.378 . S
C112 H134 0.931 1_455 S
C113 C108 1.377 1_554 S
C113 C112 1.378 . S
C113 H135 0.931 1_455 S
C114 O124 1.282 . S
C114 O125 1.253 1_565 S
C115 O126 1.251 1_655 S
C115 O127 1.251 . S
O116 C96 1.257 . S
O116 Eu97 2.473 . S
O117 C96 1.260 . S
O117 Eu97 2.480 . S
O118 Eu97 2.430 . S
O118 C104 1.259 . S
O119 Eu97 2.670 1_565 S
O119 C104 1.270 1_565 S
O119 Eu107 2.355 1_655 S
O120 Eu97 2.394 . S
O120 C105 1.251 1_655 S
O121 C105 1.251 . S
O121 Eu107 2.374 1_545 S
O122 C106 1.257 . S
O122 Eu107 2.473 . S
O123 C106 1.260 . S
O123 Eu107 2.480 . S
O124 Eu107 2.430 . S
O124 C114 1.282 . S
O125 Eu97 2.355 1_455 S
O125 Eu107 2.670 1_545 S
O125 C114 1.253 1_545 S
O126 Eu107 2.394 . S
O126 C115 1.251 1_455 S
O127 Eu97 2.374 1_565 S
O127 C115 1.251 . S
H128 C99 0.931 . S
H129 C100 0.931 . S
H130 C102 0.931 1_455 S
H131 C103 0.931 1_455 S
H132 C109 0.931 1_556 S
H133 C110 0.931 . S
H134 C112 0.931 1_655 S
H135 C113 0.931 1_655 S
C136 Eu137 2.835 . S
C136 C138 1.500 . S
C136 O156 1.257 . S
C136 O157 1.260 . S
Eu137 C136 2.835 . S
Eu137 O156 2.473 . S
Eu137 O157 2.480 . S
Eu137 O158 2.430 . S
Eu137 O159 2.670 . S
Eu137 O160 2.394 . S
Eu137 O165 2.355 1_565 S
Eu137 O167 2.374 . S
C138 C136 1.500 . S
C138 C139 1.377 . S
C138 C143 1.377 . S
C139 C138 1.377 . S
C139 C140 1.395 . S
C139 H168 0.931 . S
C140 C139 1.395 . S
C140 C141 1.383 . S
C140 H169 0.931 . S
C141 C140 1.383 . S
C141 C142 1.394 . S
C142 C141 1.394 . S
C142 C143 1.378 . S
C142 H170 0.931 1_565 S
C143 C138 1.377 . S
C143 C142 1.378 . S
C143 H171 0.931 1_565 S
C144 O158 1.259 . S
C144 O159 1.270 . S
C145 O160 1.251 1_545 S
C145 O161 1.251 . S
C146 Eu147 2.835 . S
C146 C148 1.500 . S
C146 O162 1.257 . S
C146 O163 1.260 . S
Eu147 C146 2.835 . S
Eu147 O159 2.355 1_545 S
Eu147 O161 2.374 . S
Eu147 O162 2.473 . S
Eu147 O163 2.480 . S
Eu147 O164 2.430 . S
Eu147 O165 2.670 . S
Eu147 O166 2.394 . S
C148 C146 1.500 . S
C148 C149 1.377 1_556 S
C148 C153 1.377 1_556 S
C149 C148 1.377 1_554 S
C149 C150 1.395 . S
C149 H172 0.931 1_554 S
C150 C149 1.395 . S
C150 C151 1.383 . S
C150 H173 0.931 . S
C151 C150 1.383 . S
C151 C152 1.394 . S
C152 C151 1.394 . S
C152 C153 1.378 . S
C152 H174 0.931 1_545 S
C153 C148 1.377 1_554 S
C153 C152 1.378 . S
C153 H175 0.931 1_545 S
C154 O164 1.259 . S
C154 O165 1.270 . S
C155 O166 1.251 1_565 S
C155 O167 1.251 . S
O156 C136 1.257 . S
O156 Eu137 2.473 . S
O157 C136 1.260 . S
O157 Eu137 2.480 . S
O158 Eu137 2.430 . S
O158 C144 1.259 . S
O159 Eu137 2.670 . S
O159 C144 1.270 . S
O159 Eu147 2.355 1_565 S
O160 Eu137 2.394 . S
O160 C145 1.251 1_565 S
O161 C145 1.251 . S
O161 Eu147 2.374 . S
O162 C146 1.257 . S
O162 Eu147 2.473 . S
O163 C146 1.260 . S
O163 Eu147 2.480 . S
O164 Eu147 2.430 . S
O164 C154 1.259 . S
O165 Eu137 2.355 1_545 S
O165 Eu147 2.670 . S
O165 C154 1.270 . S
O166 Eu147 2.394 . S
O166 C155 1.251 1_545 S
O167 Eu137 2.374 . S
O167 C155 1.251 . S
H168 C139 0.931 . S
H169 C140 0.931 . S
H170 C142 0.931 1_545 S
H171 C143 0.931 1_545 S
H172 C149 0.931 1_556 S
H173 C150 0.931 . S
H174 C152 0.931 1_565 S
H175 C153 0.931 1_565 S
C176 Eu177 2.835 . S
C176 C178 1.500 . S
C176 O196 1.257 . S
C176 O197 1.260 . S
Eu177 C176 2.835 . S
Eu177 O196 2.473 . S
Eu177 O197 2.480 . S
Eu177 O198 2.430 . S
Eu177 O199 2.670 . S
Eu177 O200 2.394 . S
Eu177 O205 2.355 . S
Eu177 O207 2.374 . S
C178 C176 1.500 . S
C178 C179 1.377 . S
C178 C183 1.377 . S
C179 C178 1.377 . S
C179 C180 1.395 . S
C179 H208 0.931 . S
C180 C179 1.395 . S
C180 C181 1.383 . S
C180 H209 0.931 . S
C181 C180 1.383 . S
C181 C182 1.394 . S
C182 C181 1.394 . S
C182 C183 1.378 . S
C182 H210 0.931 . S
C183 C178 1.377 . S
C183 C182 1.378 . S
C183 H211 0.931 . S
C184 O198 1.259 . S
C184 O199 1.270 . S
C185 O200 1.251 . S
C185 O201 1.251 . S
C186 Eu187 2.835 . S
C186 C188 1.500 . S
C186 O202 1.257 . S
C186 O203 1.260 . S
Eu187 C186 2.835 . S
Eu187 O199 2.355 . S
Eu187 O201 2.374 . S
Eu187 O202 2.473 . S
Eu187 O203 2.480 . S
Eu187 O204 2.430 . S
Eu187 O205 2.670 . S
Eu187 O206 2.394 . S
C188 C186 1.500 . S
C188 C189 1.377 1_556 S
C188 C193 1.377 1_556 S
C189 C188 1.377 1_554 S
C189 C190 1.395 . S
C189 H212 0.931 1_554 S
C190 C189 1.395 . S
C190 C191 1.383 . S
C190 H213 0.931 . S
C191 C190 1.383 . S
C191 C192 1.394 . S
C192 C191 1.394 . S
C192 C193 1.378 . S
C192 H214 0.931 . S
C193 C188 1.377 1_554 S
C193 C192 1.378 . S
C193 H215 0.931 . S
C194 O204 1.259 . S
C194 O205 1.270 . S
C195 O206 1.251 . S
C195 O207 1.251 . S
O196 C176 1.257 . S
O196 Eu177 2.473 . S
O197 C176 1.260 . S
O197 Eu177 2.480 . S
O198 Eu177 2.430 . S
O198 C184 1.259 . S
O199 Eu177 2.670 . S
O199 C184 1.270 . S
O199 Eu187 2.355 . S
O200 Eu177 2.394 . S
O200 C185 1.251 . S
O201 C185 1.251 . S
O201 Eu187 2.374 . S
O202 C186 1.257 . S
O202 Eu187 2.473 . S
O203 C186 1.260 . S
O203 Eu187 2.480 . S
O204 Eu187 2.430 . S
O204 C194 1.259 . S
O205 Eu177 2.355 . S
O205 Eu187 2.670 . S
O205 C194 1.270 . S
O206 Eu187 2.394 . S
O206 C195 1.251 . S
O207 Eu177 2.374 . S
O207 C195 1.251 . S
H208 C179 0.931 . S
H209 C180 0.931 . S
H210 C182 0.931 . S
H211 C183 0.931 . S
H212 C189 0.931 1_556 S
H213 C190 0.931 . S
H214 C192 0.931 . S
H215 C193 0.931 . S
C216 Eu217 2.835 . S
C216 C218 1.500 . S
C216 O236 1.257 . S
C216 O237 1.260 . S
Eu217 C216 2.835 . S
Eu217 O236 2.473 . S
Eu217 O237 2.480 . S
Eu217 O238 2.430 . S
Eu217 O239 2.670 1_455 S
Eu217 O240 2.394 . S
Eu217 O245 2.355 . S
Eu217 O247 2.374 1_455 S
C218 C216 1.500 . S
C218 C219 1.377 . S
C218 C223 1.377 . S
C219 C218 1.377 . S
C219 C220 1.395 . S
C219 H248 0.931 . S
C220 C219 1.395 . S
C220 C221 1.383 . S
C220 H249 0.931 . S
C221 C220 1.383 . S
C221 C222 1.394 . S
C222 C221 1.394 . S
C222 C223 1.378 . S
C222 H250 0.931 . S
C223 C218 1.377 . S
C223 C222 1.378 . S
C223 H251 0.931 . S
C224 O238 1.269 . S
C224 O239 1.262 1_455 S
C225 O240 1.251 . S
C225 O241 1.251 . S
C226 Eu227 2.835 . S
C226 C228 1.500 . S
C226 O242 1.257 . S
C226 O243 1.260 . S
Eu227 C226 2.835 . S
Eu227 O239 2.355 . S
Eu227 O241 2.374 1_655 S
Eu227 O242 2.473 . S
Eu227 O243 2.480 . S
Eu227 O244 2.430 . S
Eu227 O245 2.670 1_655 S
Eu227 O246 2.394 . S
C228 C226 1.500 . S
C228 C229 1.377 1_556 S
C228 C233 1.377 1_556 S
C229 C228 1.377 1_554 S
C229 C230 1.395 . S
C229 H252 0.931 1_554 S
C230 C229 1.395 . S
C230 C231 1.383 . S
C230 H253 0.931 . S
C231 C230 1.383 . S
C231 C232 1.394 . S
C232 C231 1.394 . S
C232 C233 1.378 . S
C232 H254 0.931 . S
C233 C228 1.377 1_554 S
C233 C232 1.378 . S
C233 H255 0.931 . S
C234 O244 1.265 . S
C234 O245 1.266 1_655 S
C235 O246 1.251 . S
C235 O247 1.251 . S
O236 C216 1.257 . S
O236 Eu217 2.473 . S
O237 C216 1.260 . S
O237 Eu217 2.480 . S
O238 Eu217 2.430 . S
O238 C224 1.269 . S
O239 Eu217 2.670 1_655 S
O239 C224 1.262 1_655 S
O239 Eu227 2.355 . S
O240 Eu217 2.394 . S
O240 C225 1.251 . S
O241 C225 1.251 . S
O241 Eu227 2.374 1_455 S
O242 C226 1.257 . S
O242 Eu227 2.473 . S
O243 C226 1.260 . S
O243 Eu227 2.480 . S
O244 Eu227 2.430 . S
O244 C234 1.265 . S
O245 Eu217 2.355 . S
O245 Eu227 2.670 1_455 S
O245 C234 1.266 1_455 S
O246 Eu227 2.394 . S
O246 C235 1.251 . S
O247 Eu217 2.374 1_655 S
O247 C235 1.251 . S
H248 C219 0.931 . S
H249 C220 0.931 . S
H250 C222 0.931 . S
H251 C223 0.931 . S
H252 C229 0.931 1_556 S
H253 C230 0.931 . S
H254 C232 0.931 . S
H255 C233 0.931 . S
C256 C257 1.391 . S
C256 C258 1.394 . S
C256 H272 0.931 . S
C257 C256 1.391 . S
C257 C261 1.376 1_545 S
C258 C256 1.394 . S
C258 C259 1.369 . S
C258 C262 1.531 . S
C259 C258 1.369 . S
C259 C260 1.410 1_545 S
C259 C267 1.503 . S
C260 C259 1.410 1_565 S
C260 C261 1.392 . S
C260 C263 1.511 . S
C261 C257 1.376 1_565 S
C261 C260 1.392 . S
C261 H273 0.929 . S
C262 C258 1.531 . S
C262 H274 0.960 . S
C262 H275 0.962 . S
C262 H276 0.960 . S
C263 C260 1.511 . S
C263 H277 0.961 . S
C263 H278 0.961 . S
C263 H279 0.961 1_565 S
C264 C265 1.370 1_565 S
C264 C266 1.363 . S
C264 H280 0.931 . S
C265 C264 1.370 1_545 S
C265 C269 1.408 . S
C266 C264 1.363 . S
C266 C267 1.370 1_565 S
C266 C270 1.524 . S
C267 C259 1.503 . S
C267 C266 1.370 1_545 S
C267 C268 1.403 . S
C268 C267 1.403 . S
C268 C269 1.404 . S
C268 C271 1.539 . S
C269 C265 1.408 . S
C269 C268 1.404 . S
C269 H281 0.930 . S
C270 C266 1.524 . S
C270 H282 0.956 . S
C270 H283 0.961 . S
C270 H284 0.961 . S
C271 C268 1.539 . S
C271 H285 0.958 . S
C271 H286 0.961 . S
C271 H287 0.960 . S
H272 C256 0.931 . S
H273 C261 0.929 . S
H274 C262 0.960 . S
H275 C262 0.962 . S
H276 C262 0.960 . S
H277 C263 0.961 . S
H278 C263 0.961 . S
H279 C263 0.961 1_545 S
H280 C264 0.931 . S
H281 C269 0.930 . S
H282 C270 0.956 . S
H283 C270 0.961 . S
H284 C270 0.961 . S
H285 C271 0.958 . S
H286 C271 0.961 . S
H287 C271 0.960 . S
C288 C289 1.391 . S
C288 C290 1.394 . S
C288 H304 0.931 . S
C289 C288 1.391 . S
C289 C293 1.376 . S
C290 C288 1.394 . S
C290 C291 1.369 . S
C290 C294 1.531 . S
C291 C290 1.369 . S
C291 C292 1.410 . S
C291 C299 1.503 . S
C292 C291 1.410 . S
C292 C293 1.392 . S
C292 C295 1.511 . S
C293 C289 1.376 . S
C293 C292 1.392 . S
C293 H305 0.929 . S
C294 C290 1.531 . S
C294 H306 0.960 . S
C294 H307 0.962 . S
C294 H308 0.960 . S
C295 C292 1.511 . S
C295 H309 0.961 . S
C295 H310 0.961 . S
C295 H311 0.961 . S
C296 C297 1.370 . S
C296 C298 1.363 . S
C296 H312 0.931 . S
C297 C296 1.370 . S
C297 C301 1.408 . S
C298 C296 1.363 . S
C298 C299 1.370 . S
C298 C302 1.524 . S
C299 C291 1.503 . S
C299 C298 1.370 . S
C299 C300 1.403 . S
C300 C299 1.403 . S
C300 C301 1.404 . S
C300 C303 1.539 . S
C301 C297 1.408 . S
C301 C300 1.404 . S
C301 H313 0.930 . S
C302 C298 1.524 . S
C302 H314 0.956 . S
C302 H315 0.961 . S
C302 H316 0.961 . S
C303 C300 1.539 . S
C303 H317 0.958 . S
C303 H318 0.961 . S
C303 H319 0.960 . S
H304 C288 0.931 . S
H305 C293 0.929 . S
H306 C294 0.960 . S
H307 C294 0.962 . S
H308 C294 0.960 . S
H309 C295 0.961 . S
H310 C295 0.961 . S
H311 C295 0.961 . S
H312 C296 0.931 . S
H313 C301 0.930 . S
H314 C302 0.956 . S
H315 C302 0.961 . S
H316 C302 0.961 . S
H317 C303 0.958 . S
H318 C303 0.961 . S
H319 C303 0.960 . S
C320 C321 1.391 . S
C320 C322 1.394 . S
C320 H336 0.931 . S
C321 C320 1.391 . S
C321 C325 1.376 . S
C322 C320 1.394 . S
C322 C323 1.369 . S
C322 C326 1.531 . S
C323 C322 1.369 . S
C323 C324 1.410 . S
C323 C331 1.503 . S
C324 C323 1.410 . S
C324 C325 1.392 . S
C324 C327 1.511 . S
C325 C321 1.376 . S
C325 C324 1.392 . S
C325 H337 0.929 . S
C326 C322 1.531 . S
C326 H338 0.960 . S
C326 H339 0.962 . S
C326 H340 0.960 . S
C327 C324 1.511 . S
C327 H341 0.961 . S
C327 H342 0.961 . S
C327 H343 0.961 . S
C328 C329 1.370 . S
C328 C330 1.363 . S
C328 H344 0.931 . S
C329 C328 1.370 . S
C329 C333 1.408 . S
C330 C328 1.363 . S
C330 C331 1.370 . S
C330 C334 1.524 . S
C331 C323 1.503 . S
C331 C330 1.370 . S
C331 C332 1.403 . S
C332 C331 1.403 . S
C332 C333 1.404 . S
C332 C335 1.539 . S
C333 C329 1.408 . S
C333 C332 1.404 . S
C333 H345 0.930 . S
C334 C330 1.524 . S
C334 H346 0.956 . S
C334 H347 0.961 . S
C334 H348 0.961 . S
C335 C332 1.539 . S
C335 H349 0.958 . S
C335 H350 0.961 . S
C335 H351 0.960 . S
H336 C320 0.931 . S
H337 C325 0.929 . S
H338 C326 0.960 . S
H339 C326 0.962 . S
H340 C326 0.960 . S
H341 C327 0.961 . S
H342 C327 0.961 . S
H343 C327 0.961 . S
H344 C328 0.931 . S
H345 C333 0.930 . S
H346 C334 0.956 . S
H347 C334 0.961 . S
H348 C334 0.961 . S
H349 C335 0.958 . S
H350 C335 0.961 . S
H351 C335 0.960 . S
C352 C353 1.391 . S
C352 C354 1.394 . S
C352 H368 0.931 . S
C353 C352 1.391 . S
C353 C357 1.376 1_655 S
C354 C352 1.394 . S
C354 C355 1.369 . S
C354 C358 1.531 . S
C355 C354 1.369 . S
C355 C356 1.410 1_655 S
C355 C363 1.503 . S
C356 C355 1.410 1_455 S
C356 C357 1.392 . S
C356 C359 1.511 . S
C357 C353 1.376 1_455 S
C357 C356 1.392 . S
C357 H369 0.929 . S
C358 C354 1.531 . S
C358 H370 0.960 . S
C358 H371 0.962 . S
C358 H372 0.960 . S
C359 C356 1.511 . S
C359 H373 0.961 . S
C359 H374 0.961 . S
C359 H375 0.961 . S
C360 C361 1.380 . S
C360 C362 1.363 . S
C360 H376 0.931 . S
C361 C360 1.380 . S
C361 C365 1.397 1_455 S
C362 C360 1.363 . S
C362 C363 1.370 1_455 S
C362 C366 1.524 . S
C363 C355 1.503 . S
C363 C362 1.370 1_655 S
C363 C364 1.403 . S
C364 C363 1.403 . S
C364 C365 1.404 . S
C364 C367 1.539 . S
C365 C361 1.397 1_655 S
C365 C364 1.404 . S
C365 H377 0.930 . S
C366 C362 1.524 . S
C366 H378 0.956 . S
C366 H379 0.961 . S
C366 H380 0.961 . S
C367 C364 1.539 . S
C367 H381 0.958 . S
C367 H382 0.961 . S
C367 H383 0.960 . S
H368 C352 0.931 . S
H369 C357 0.929 . S
H370 C358 0.960 . S
H371 C358 0.962 . S
H372 C358 0.960 . S
H373 C359 0.961 . S
H374 C359 0.961 . S
H375 C359 0.961 . S
H376 C360 0.931 . S
H377 C365 0.930 . S
H378 C366 0.956 . S
H379 C366 0.961 . S
H380 C366 0.961 . S
H381 C367 0.958 . S
H382 C367 0.961 . S
H383 C367 0.960 . S
C384 C385 1.391 1_565 S
C384 C386 1.397 . S
C384 H400 0.931 . S
C385 C384 1.391 1_545 S
C385 C389 1.376 . S
C386 C384 1.397 . S
C386 C387 1.359 1_565 S
C386 C390 1.539 . S
C387 C386 1.359 1_545 S
C387 C388 1.410 . S
C387 C395 1.503 . S
C388 C387 1.410 . S
C388 C389 1.392 . S
C388 C391 1.511 . S
C389 C385 1.376 . S
C389 C388 1.392 . S
C389 H401 0.929 . S
C390 C386 1.539 . S
C390 H402 0.960 1_565 S
C390 H403 0.962 . S
C390 H404 0.960 . S
C391 C388 1.511 . S
C391 H405 0.961 . S
C391 H406 0.961 . S
C391 H407 0.961 . S
C392 C393 1.339 1_565 S
C392 C394 1.363 1_556 S
C392 H408 0.931 . S
C393 C392 1.339 1_545 S
C393 C397 1.443 . S
C394 C392 1.363 1_554 S
C394 C395 1.370 1_565 S
C394 C398 1.524 . S
C395 C387 1.503 . S
C395 C394 1.370 1_545 S
C395 C396 1.403 . S
C396 C395 1.403 . S
C396 C397 1.404 1_554 S
C396 C399 1.539 . S
C397 C393 1.443 . S
C397 C396 1.404 1_556 S
C397 H409 0.930 . S
C398 C394 1.524 . S
C398 H410 0.956 . S
C398 H411 0.961 . S
C398 H412 0.961 . S
C399 C396 1.539 . S
C399 H413 0.958 . S
C399 H414 0.961 . S
C399 H415 0.960 . S
H400 C384 0.931 . S
H401 C389 0.929 . S
H402 C390 0.960 1_545 S
H403 C390 0.962 . S
H404 C390 0.960 . S
H405 C391 0.961 . S
H406 C391 0.961 . S
H407 C391 0.961 . S
H408 C392 0.931 . S
H409 C397 0.930 . S
H410 C398 0.956 . S
H411 C398 0.961 . S
H412 C398 0.961 . S
H413 C399 0.958 . S
H414 C399 0.961 . S
H415 C399 0.960 . S
C416 C417 1.391 . S
C416 C418 1.394 . S
C416 H432 0.931 . S
C417 C416 1.391 . S
C417 C421 1.376 . S
C418 C416 1.394 . S
C418 C419 1.369 . S
C418 C422 1.531 . S
C419 C418 1.369 . S
C419 C420 1.410 . S
C419 C427 1.503 . S
C420 C419 1.410 . S
C420 C421 1.392 . S
C420 C423 1.511 . S
C421 C417 1.376 . S
C421 C420 1.392 . S
C421 H433 0.929 . S
C422 C418 1.531 . S
C422 H434 0.960 . S
C422 H435 0.962 . S
C422 H436 0.960 . S
C423 C420 1.511 . S
C423 H437 0.961 . S
C423 H438 0.961 . S
C423 H439 0.961 . S
C424 C425 1.370 . S
C424 C426 1.363 1_556 S
C424 H440 0.931 . S
C425 C424 1.370 . S
C425 C429 1.408 . S
C426 C424 1.363 1_554 S
C426 C427 1.370 . S
C426 C430 1.524 . S
C427 C419 1.503 . S
C427 C426 1.370 . S
C427 C428 1.403 . S
C428 C427 1.403 . S
C428 C429 1.404 1_554 S
C428 C431 1.539 . S
C429 C425 1.408 . S
C429 C428 1.404 1_556 S
C429 H441 0.930 . S
C430 C426 1.524 . S
C430 H442 0.956 . S
C430 H443 0.961 . S
C430 H444 0.961 . S
C431 C428 1.539 . S
C431 H445 0.958 1_554 S
C431 H446 0.961 . S
C431 H447 0.960 . S
H432 C416 0.931 . S
H433 C421 0.929 . S
H434 C422 0.960 . S
H435 C422 0.962 . S
H436 C422 0.960 . S
H437 C423 0.961 . S
H438 C423 0.961 . S
H439 C423 0.961 . S
H440 C424 0.931 . S
H441 C429 0.930 . S
H442 C430 0.956 . S
H443 C430 0.961 . S
H444 C430 0.961 . S
H445 C431 0.958 1_556 S
H446 C431 0.961 . S
H447 C431 0.960 . S
C448 C449 1.391 . S
C448 C450 1.394 . S
C448 H464 0.931 . S
C449 C448 1.391 . S
C449 C453 1.376 . S
C450 C448 1.394 . S
C450 C451 1.369 . S
C450 C454 1.531 . S
C451 C450 1.369 . S
C451 C452 1.410 . S
C451 C459 1.503 . S
C452 C451 1.410 . S
C452 C453 1.392 . S
C452 C455 1.511 . S
C453 C449 1.376 . S
C453 C452 1.392 . S
C453 H465 0.929 . S
C454 C450 1.531 . S
C454 H466 0.960 . S
C454 H467 0.962 . S
C454 H468 0.960 . S
C455 C452 1.511 . S
C455 H469 0.961 . S
C455 H470 0.961 . S
C455 H471 0.961 . S
C456 C457 1.370 1_554 S
C456 C458 1.363 . S
C456 H472 0.931 . S
C457 C456 1.370 1_556 S
C457 C461 1.408 . S
C458 C456 1.363 . S
C458 C459 1.370 . S
C458 C462 1.524 . S
C459 C451 1.503 . S
C459 C458 1.370 . S
C459 C460 1.403 1_554 S
C460 C459 1.403 1_556 S
C460 C461 1.404 . S
C460 C463 1.539 . S
C461 C457 1.408 . S
C461 C460 1.404 . S
C461 H473 0.930 . S
C462 C458 1.524 . S
C462 H474 0.956 . S
C462 H475 0.961 . S
C462 H476 0.961 . S
C463 C460 1.539 . S
C463 H477 0.958 . S
C463 H478 0.961 . S
C463 H479 0.960 1_556 S
H464 C448 0.931 . S
H465 C453 0.929 . S
H466 C454 0.960 . S
H467 C454 0.962 . S
H468 C454 0.960 . S
H469 C455 0.961 . S
H470 C455 0.961 . S
H471 C455 0.961 . S
H472 C456 0.931 . S
H473 C461 0.930 . S
H474 C462 0.956 . S
H475 C462 0.961 . S
H476 C462 0.961 . S
H477 C463 0.958 . S
H478 C463 0.961 . S
H479 C463 0.960 1_554 S
C480 C481 1.357 1_655 S
C480 C482 1.394 . S
C480 H496 0.931 . S
C481 C480 1.357 1_455 S
C481 C485 1.413 . S
C482 C480 1.394 . S
C482 C483 1.369 1_655 S
C482 C486 1.531 . S
C483 C482 1.369 1_455 S
C483 C484 1.410 . S
C483 C491 1.503 . S
C484 C483 1.410 . S
C484 C485 1.392 . S
C484 C487 1.511 . S
C485 C481 1.413 . S
C485 C484 1.392 . S
C485 H497 0.929 . S
C486 C482 1.531 . S
C486 H498 0.960 . S
C486 H499 0.962 . S
C486 H500 0.960 . S
C487 C484 1.511 . S
C487 H501 0.961 . S
C487 H502 0.961 . S
C487 H503 0.961 . S
C488 C489 1.375 1_554 S
C488 C490 1.363 . S
C488 H504 0.931 . S
C489 C488 1.375 1_556 S
C489 C493 1.404 1_655 S
C490 C488 1.363 . S
C490 C491 1.370 1_655 S
C490 C494 1.524 . S
C491 C483 1.503 . S
C491 C490 1.370 1_455 S
C491 C492 1.403 1_554 S
C492 C491 1.403 1_556 S
C492 C493 1.404 . S
C492 C495 1.539 . S
C493 C489 1.404 1_455 S
C493 C492 1.404 . S
C493 H505 0.930 . S
C494 C490 1.524 . S
C494 H506 0.956 . S
C494 H507 0.961 . S
C494 H508 0.961 . S
C495 C492 1.539 . S
C495 H509 0.958 . S
C495 H510 0.961 . S
C495 H511 0.960 1_556 S
H496 C480 0.931 . S
H497 C485 0.929 . S
H498 C486 0.960 . S
H499 C486 0.962 . S
H500 C486 0.960 . S
H501 C487 0.961 . S
H502 C487 0.961 . S
H503 C487 0.961 . S
H504 C488 0.931 . S
H505 C493 0.930 . S
H506 C494 0.956 . S
H507 C494 0.961 . S
H508 C494 0.961 . S
H509 C495 0.958 . S
H510 C495 0.961 . S
H511 C495 0.960 1_554 S
C512 C513 1.391 . S
C512 C514 1.394 . S
C512 H528 0.931 . S
C513 C512 1.391 . S
C513 C517 1.376 1_455 S
C514 C512 1.394 . S
C514 C515 1.369 1_455 S
C514 C518 1.531 . S
C515 C514 1.369 1_655 S
C515 C516 1.410 . S
C515 C523 1.503 . S
C516 C515 1.410 . S
C516 C517 1.392 . S
C516 C519 1.511 . S
C517 C513 1.376 1_655 S
C517 C516 1.392 . S
C517 H529 0.929 . S
C518 C514 1.531 . S
C518 H530 0.960 . S
C518 H531 0.962 . S
C518 H532 0.960 . S
C519 C516 1.511 . S
C519 H533 0.961 . S
C519 H534 0.961 . S
C519 H535 0.961 . S
C520 C521 1.370 . S
C520 C522 1.363 . S
C520 H536 0.931 . S
C521 C520 1.370 . S
C521 C525 1.408 . S
C522 C520 1.363 . S
C522 C523 1.370 . S
C522 C526 1.524 . S
C523 C515 1.503 . S
C523 C522 1.370 . S
C523 C524 1.403 . S
C524 C523 1.403 . S
C524 C525 1.404 . S
C524 C527 1.539 . S
C525 C521 1.408 . S
C525 C524 1.404 . S
C525 H537 0.930 . S
C526 C522 1.524 . S
C526 H538 0.956 1_655 S
C526 H539 0.961 . S
C526 H540 0.961 . S
C527 C524 1.539 . S
C527 H541 0.958 . S
C527 H542 0.961 . S
C527 H543 0.960 . S
H528 C512 0.931 . S
H529 C517 0.929 . S
H530 C518 0.960 . S
H531 C518 0.962 . S
H532 C518 0.960 . S
H533 C519 0.961 . S
H534 C519 0.961 . S
H535 C519 0.961 . S
H536 C520 0.931 . S
H537 C525 0.930 . S
H538 C526 0.956 1_455 S
H539 C526 0.961 . S
H540 C526 0.961 . S
H541 C527 0.958 . S
H542 C527 0.961 . S
H543 C527 0.960 . S
C544 C545 1.393 1_565 S
C544 C546 1.394 . S
C544 H560 0.931 . S
C545 C544 1.393 1_545 S
C545 C549 1.375 . S
C546 C544 1.394 . S
C546 C547 1.369 . S
C546 C550 1.531 . S
C547 C546 1.369 . S
C547 C548 1.410 1_565 S
C547 C555 1.503 . S
C548 C547 1.410 1_545 S
C548 C549 1.392 . S
C548 C551 1.511 . S
C549 C545 1.375 . S
C549 C548 1.392 . S
C549 H561 0.929 . S
C550 C546 1.531 . S
C550 H562 0.960 . S
C550 H563 0.962 . S
C550 H564 0.960 . S
C551 C548 1.511 . S
C551 H565 0.961 . S
C551 H566 0.961 . S
C551 H567 0.961 . S
C552 C553 1.370 . S
C552 C554 1.363 . S
C552 H568 0.931 . S
C553 C552 1.370 . S
C553 C557 1.408 . S
C554 C552 1.363 . S
C554 C555 1.370 . S
C554 C558 1.524 1_565 S
C555 C547 1.503 . S
C555 C554 1.370 . S
C555 C556 1.403 . S
C556 C555 1.403 . S
C556 C557 1.404 . S
C556 C559 1.539 . S
C557 C553 1.408 . S
C557 C556 1.404 . S
C557 H569 0.930 . S
C558 C554 1.524 1_545 S
C558 H570 0.956 . S
C558 H571 0.961 . S
C558 H572 0.961 . S
C559 C556 1.539 . S
C559 H573 0.958 . S
C559 H574 0.961 . S
C559 H575 0.960 . S
H560 C544 0.931 . S
H561 C549 0.929 . S
H562 C550 0.960 . S
H563 C550 0.962 . S
H564 C550 0.960 . S
H565 C551 0.961 . S
H566 C551 0.961 . S
H567 C551 0.961 . S
H568 C552 0.931 . S
H569 C557 0.930 . S
H570 C558 0.956 . S
H571 C558 0.961 . S
H572 C558 0.961 . S
H573 C559 0.958 . S
H574 C559 0.961 . S
H575 C559 0.960 . S
C576 C577 1.391 . S
C576 C578 1.394 . S
C576 H592 0.931 . S
C577 C576 1.391 . S
C577 C581 1.376 . S
C578 C576 1.394 . S
C578 C579 1.369 . S
C578 C582 1.531 . S
C579 C578 1.369 . S
C579 C580 1.410 . S
C579 C587 1.503 . S
C580 C579 1.410 . S
C580 C581 1.392 . S
C580 C583 1.511 . S
C581 C577 1.376 . S
C581 C580 1.392 . S
C581 H593 0.929 . S
C582 C578 1.531 . S
C582 H594 0.960 . S
C582 H595 0.962 . S
C582 H596 0.960 . S
C583 C580 1.511 . S
C583 H597 0.961 . S
C583 H598 0.961 . S
C583 H599 0.961 . S
C584 C585 1.370 . S
C584 C586 1.363 . S
C584 H600 0.931 . S
C585 C584 1.370 . S
C585 C589 1.408 . S
C586 C584 1.363 . S
C586 C587 1.370 . S
C586 C590 1.524 . S
C587 C579 1.503 . S
C587 C586 1.370 . S
C587 C588 1.403 . S
C588 C587 1.403 . S
C588 C589 1.404 . S
C588 C591 1.539 . S
C589 C585 1.408 . S
C589 C588 1.404 . S
C589 H601 0.930 . S
C590 C586 1.524 . S
C590 H602 0.956 . S
C590 H603 0.961 . S
C590 H604 0.961 . S
C591 C588 1.539 . S
C591 H605 0.958 . S
C591 H606 0.961 . S
C591 H607 0.960 . S
H592 C576 0.931 . S
H593 C581 0.929 . S
H594 C582 0.960 . S
H595 C582 0.962 . S
H596 C582 0.960 . S
H597 C583 0.961 . S
H598 C583 0.961 . S
H599 C583 0.961 . S
H600 C584 0.931 . S
H601 C589 0.930 . S
H602 C590 0.956 . S
H603 C590 0.961 . S
H604 C590 0.961 . S
H605 C591 0.958 . S
H606 C591 0.961 . S
H607 C591 0.960 . S
C608 C609 1.391 . S
C608 C610 1.394 . S
C608 H624 0.931 . S
C609 C608 1.391 . S
C609 C613 1.376 . S
C610 C608 1.394 . S
C610 C611 1.369 . S
C610 C614 1.531 . S
C611 C610 1.369 . S
C611 C612 1.410 . S
C611 C619 1.503 . S
C612 C611 1.410 . S
C612 C613 1.392 . S
C612 C615 1.511 . S
C613 C609 1.376 . S
C613 C612 1.392 . S
C613 H625 0.929 . S
C614 C610 1.531 . S
C614 H626 0.960 . S
C614 H627 0.962 . S
C614 H628 0.960 . S
C615 C612 1.511 . S
C615 H629 0.961 . S
C615 H630 0.961 . S
C615 H631 0.961 . S
C616 C617 1.370 . S
C616 C618 1.363 . S
C616 H632 0.931 . S
C617 C616 1.370 . S
C617 C621 1.408 . S
C618 C616 1.363 . S
C618 C619 1.370 . S
C618 C622 1.524 . S
C619 C611 1.503 . S
C619 C618 1.370 . S
C619 C620 1.403 . S
C620 C619 1.403 . S
C620 C621 1.404 . S
C620 C623 1.539 . S
C621 C617 1.408 . S
C621 C620 1.404 . S
C621 H633 0.930 . S
C622 C618 1.524 . S
C622 H634 0.956 . S
C622 H635 0.961 . S
C622 H636 0.961 . S
C623 C620 1.539 . S
C623 H637 0.958 . S
C623 H638 0.961 . S
C623 H639 0.960 . S
H624 C608 0.931 . S
H625 C613 0.929 . S
H626 C614 0.960 . S
H627 C614 0.962 . S
H628 C614 0.960 . S
H629 C615 0.961 . S
H630 C615 0.961 . S
H631 C615 0.961 . S
H632 C616 0.931 . S
H633 C621 0.930 . S
H634 C622 0.956 . S
H635 C622 0.961 . S
H636 C622 0.961 . S
H637 C623 0.958 . S
H638 C623 0.961 . S
H639 C623 0.960 . S
C640 C641 1.391 1_455 S
C640 C642 1.394 . S
C640 H656 0.931 . S
C641 C640 1.391 1_655 S
C641 C645 1.376 . S
C642 C640 1.394 . S
C642 C643 1.369 . S
C642 C646 1.531 . S
C643 C642 1.369 . S
C643 C644 1.410 1_455 S
C643 C651 1.503 . S
C644 C643 1.410 1_655 S
C644 C645 1.392 . S
C644 C647 1.511 . S
C645 C641 1.376 . S
C645 C644 1.392 . S
C645 H657 0.929 . S
C646 C642 1.531 . S
C646 H658 0.960 . S
C646 H659 0.962 . S
C646 H660 0.960 . S
C647 C644 1.511 . S
C647 H661 0.961 . S
C647 H662 0.961 . S
C647 H663 0.961 . S
C648 C649 1.370 . S
C648 C650 1.363 . S
C648 H664 0.931 . S
C649 C648 1.370 . S
C649 C653 1.408 . S
C650 C648 1.363 . S
C650 C651 1.370 . S
C650 C654 1.524 . S
C651 C643 1.503 . S
C651 C650 1.370 . S
C651 C652 1.403 . S
C652 C651 1.403 . S
C652 C653 1.404 . S
C652 C655 1.539 1_455 S
C653 C649 1.408 . S
C653 C652 1.404 . S
C653 H665 0.929 . S
C654 C650 1.524 . S
C654 H666 0.956 . S
C654 H667 0.961 . S
C654 H668 0.961 . S
C655 C652 1.539 1_655 S
C655 H669 0.958 . S
C655 H670 0.961 . S
C655 H671 0.960 . S
H656 C640 0.931 . S
H657 C645 0.929 . S
H658 C646 0.960 . S
H659 C646 0.962 . S
H660 C646 0.960 . S
H661 C647 0.961 . S
H662 C647 0.961 . S
H663 C647 0.961 . S
H664 C648 0.931 . S
H665 C653 0.929 . S
H666 C654 0.956 . S
H667 C654 0.961 . S
H668 C654 0.961 . S
H669 C655 0.958 . S
H670 C655 0.961 . S
H671 C655 0.960 . S
C672 C673 1.391 1_545 S
C672 C674 1.394 . S
C672 H688 0.931 . S
C673 C672 1.391 1_565 S
C673 C677 1.376 . S
C674 C672 1.394 . S
C674 C675 1.369 . S
C674 C678 1.531 . S
C675 C674 1.369 . S
C675 C676 1.410 1_545 S
C675 C683 1.503 . S
C676 C675 1.410 1_565 S
C676 C677 1.392 . S
C676 C679 1.511 . S
C677 C673 1.376 . S
C677 C676 1.392 . S
C677 H689 0.929 . S
C678 C674 1.531 . S
C678 H690 0.960 . S
C678 H691 0.962 . S
C678 H692 0.960 . S
C679 C676 1.511 . S
C679 H693 0.961 . S
C679 H694 0.961 . S
C679 H695 0.961 . S
C680 C681 1.370 . S
C680 C682 1.363 . S
C680 H696 0.931 . S
C681 C680 1.370 . S
C681 C685 1.408 . S
C682 C680 1.363 . S
C682 C683 1.370 . S
C682 C686 1.524 . S
C683 C675 1.503 . S
C683 C682 1.370 . S
C683 C684 1.403 . S
C684 C683 1.403 . S
C684 C685 1.404 . S
C684 C687 1.539 1_545 S
C685 C681 1.408 . S
C685 C684 1.404 . S
C685 H697 0.930 . S
C686 C682 1.524 . S
C686 H698 0.956 . S
C686 H699 0.961 . S
C686 H700 0.961 . S
C687 C684 1.539 1_565 S
C687 H701 0.958 . S
C687 H702 0.961 . S
C687 H703 0.960 . S
H688 C672 0.931 . S
H689 C677 0.929 . S
H690 C678 0.960 . S
H691 C678 0.962 . S
H692 C678 0.960 . S
H693 C679 0.961 . S
H694 C679 0.961 . S
H695 C679 0.961 . S
H696 C680 0.931 . S
H697 C685 0.930 . S
H698 C686 0.956 . S
H699 C686 0.961 . S
H700 C686 0.961 . S
H701 C687 0.958 . S
H702 C687 0.961 . S
H703 C687 0.960 . S
C704 C705 1.391 . S
C704 C706 1.394 . S
C704 H720 0.931 . S
C705 C704 1.391 . S
C705 C709 1.376 . S
C706 C704 1.394 . S
C706 C707 1.369 . S
C706 C710 1.531 . S
C707 C706 1.369 . S
C707 C708 1.410 . S
C707 C715 1.503 . S
C708 C707 1.410 . S
C708 C709 1.392 . S
C708 C711 1.511 . S
C709 C705 1.376 . S
C709 C708 1.392 . S
C709 H721 0.929 . S
C710 C706 1.531 . S
C710 H722 0.960 . S
C710 H723 0.962 . S
C710 H724 0.960 . S
C711 C708 1.511 . S
C711 H725 0.961 . S
C711 H726 0.961 . S
C711 H727 0.961 . S
C712 C713 1.370 . S
C712 C714 1.363 . S
C712 H728 0.931 . S
C713 C712 1.370 . S
C713 C717 1.408 . S
C714 C712 1.363 . S
C714 C715 1.370 . S
C714 C718 1.524 . S
C715 C707 1.503 . S
C715 C714 1.370 . S
C715 C716 1.403 . S
C716 C715 1.403 . S
C716 C717 1.404 . S
C716 C719 1.539 . S
C717 C713 1.408 . S
C717 C716 1.404 . S
C717 H729 0.930 . S
C718 C714 1.524 . S
C718 H730 0.956 . S
C718 H731 0.961 . S
C718 H732 0.961 . S
C719 C716 1.539 . S
C719 H733 0.958 . S
C719 H734 0.961 . S
C719 H735 0.960 . S
H720 C704 0.931 . S
H721 C709 0.929 . S
H722 C710 0.960 . S
H723 C710 0.962 . S
H724 C710 0.960 . S
H725 C711 0.961 . S
H726 C711 0.961 . S
H727 C711 0.961 . S
H728 C712 0.931 . S
H729 C717 0.930 . S
H730 C718 0.956 . S
H731 C718 0.961 . S
H732 C718 0.961 . S
H733 C719 0.958 . S
H734 C719 0.961 . S
H735 C719 0.960 . S
C736 C737 1.391 . S
C736 C738 1.394 . S
C736 H752 0.931 . S
C737 C736 1.391 . S
C737 C741 1.376 . S
C738 C736 1.394 . S
C738 C739 1.369 . S
C738 C742 1.531 . S
C739 C738 1.369 . S
C739 C740 1.410 . S
C739 C747 1.503 . S
C740 C739 1.410 . S
C740 C741 1.392 . S
C740 C743 1.511 . S
C741 C737 1.376 . S
C741 C740 1.392 . S
C741 H753 0.929 . S
C742 C738 1.531 . S
C742 H754 0.960 . S
C742 H755 0.962 . S
C742 H756 0.960 . S
C743 C740 1.511 . S
C743 H757 0.961 . S
C743 H758 0.961 . S
C743 H759 0.961 . S
C744 C745 1.370 . S
C744 C746 1.363 . S
C744 H760 0.931 . S
C745 C744 1.370 . S
C745 C749 1.408 . S
C746 C744 1.363 . S
C746 C747 1.370 . S
C746 C750 1.524 . S
C747 C739 1.503 . S
C747 C746 1.370 . S
C747 C748 1.403 . S
C748 C747 1.403 . S
C748 C749 1.404 . S
C748 C751 1.539 . S
C749 C745 1.408 . S
C749 C748 1.404 . S
C749 H761 0.930 . S
C750 C746 1.524 . S
C750 H762 0.956 . S
C750 H763 0.961 . S
C750 H764 0.961 . S
C751 C748 1.539 . S
C751 H765 0.958 . S
C751 H766 0.961 . S
C751 H767 0.960 . S
H752 C736 0.931 . S
H753 C741 0.929 . S
H754 C742 0.960 . S
H755 C742 0.962 . S
H756 C742 0.960 . S
H757 C743 0.961 . S
H758 C743 0.961 . S
H759 C743 0.961 . S
H760 C744 0.931 . S
H761 C749 0.930 . S
H762 C750 0.956 . S
H763 C750 0.961 . S
H764 C750 0.961 . S
H765 C751 0.958 . S
H766 C751 0.961 . S
H767 C751 0.960 . S
C768 C769 1.391 1_655 S
C768 C770 1.394 . S
C768 H784 0.931 . S
C769 C768 1.391 1_455 S
C769 C773 1.376 . S
C770 C768 1.394 . S
C770 C771 1.369 1_655 S
C770 C774 1.531 . S
C771 C770 1.369 1_455 S
C771 C772 1.410 . S
C771 C779 1.503 . S
C772 C771 1.410 . S
C772 C773 1.392 . S
C772 C775 1.511 . S
C773 C769 1.376 . S
C773 C772 1.392 . S
C773 H785 0.929 . S
C774 C770 1.531 . S
C774 H786 0.960 . S
C774 H787 0.962 . S
C774 H788 0.960 . S
C775 C772 1.511 . S
C775 H789 0.961 . S
C775 H790 0.961 . S
C775 H791 0.961 . S
C776 C777 1.370 . S
C776 C778 1.363 . S
C776 H792 0.931 1_455 S
C777 C776 1.370 . S
C777 C781 1.408 . S
C778 C776 1.363 . S
C778 C779 1.370 . S
C778 C782 1.524 1_456 S
C779 C771 1.503 . S
C779 C778 1.370 . S
C779 C780 1.403 . S
C780 C779 1.403 . S
C780 C781 1.404 . S
C780 C783 1.539 . S
C781 C777 1.408 . S
C781 C780 1.404 . S
C781 H793 0.930 . S
C782 C778 1.524 1_654 S
C782 H794 0.956 . S
C782 H795 0.961 1_655 S
C782 H796 0.961 . S
C783 C780 1.539 . S
C783 H797 0.958 . S
C783 H798 0.961 . S
C783 H799 0.960 . S
H784 C768 0.931 . S
H785 C773 0.929 . S
H786 C774 0.960 . S
H787 C774 0.962 . S
H788 C774 0.960 . S
H789 C775 0.961 . S
H790 C775 0.961 . S
H791 C775 0.961 . S
H792 C776 0.931 1_655 S
H793 C781 0.930 . S
H794 C782 0.956 . S
H795 C782 0.961 1_455 S
H796 C782 0.961 . S
H797 C783 0.958 . S
H798 C783 0.961 . S
H799 C783 0.960 . S
C800 C801 1.391 . S
C800 C802 1.394 . S
C800 H816 0.931 . S
C801 C800 1.391 . S
C801 C805 1.376 1_545 S
C802 C800 1.394 . S
C802 C803 1.369 . S
C802 C806 1.531 . S
C803 C802 1.369 . S
C803 C804 1.410 . S
C803 C811 1.503 . S
C804 C803 1.410 . S
C804 C805 1.392 1_545 S
C804 C807 1.511 1_546 S
C805 C801 1.376 1_565 S
C805 C804 1.392 1_565 S
C805 H817 0.929 1_556 S
C806 C802 1.531 . S
C806 H818 0.960 . S
C806 H819 0.962 . S
C806 H820 0.960 . S
C807 C804 1.511 1_564 S
C807 H821 0.961 . S
C807 H822 0.961 . S
C807 H823 0.961 1_565 S
C808 C809 1.370 1_565 S
C808 C810 1.363 . S
C808 H824 0.931 . S
C809 C808 1.370 1_545 S
C809 C813 1.408 . S
C810 C808 1.363 . S
C810 C811 1.370 1_565 S
C810 C814 1.524 . S
C811 C803 1.503 . S
C811 C810 1.370 1_545 S
C811 C812 1.403 . S
C812 C811 1.403 . S
C812 C813 1.404 . S
C812 C815 1.539 . S
C813 C809 1.408 . S
C813 C812 1.404 . S
C813 H825 0.930 . S
C814 C810 1.524 . S
C814 H826 0.956 . S
C814 H827 0.961 . S
C814 H828 0.961 . S
C815 C812 1.539 . S
C815 H829 0.958 . S
C815 H830 0.961 . S
C815 H831 0.960 . S
H816 C800 0.931 . S
H817 C805 0.929 1_554 S
H818 C806 0.960 . S
H819 C806 0.962 . S
H820 C806 0.960 . S
H821 C807 0.961 . S
H822 C807 0.961 . S
H823 C807 0.961 1_545 S
H824 C808 0.931 . S
H825 C813 0.930 . S
H826 C814 0.956 . S
H827 C814 0.961 . S
H828 C814 0.961 . S
H829 C815 0.958 . S
H830 C815 0.961 . S
H831 C815 0.960 . S
C832 C833 1.391 . S
C832 C834 1.394 . S
C832 H848 0.931 . S
C833 C832 1.391 . S
C833 C837 1.376 . S
C834 C832 1.394 . S
C834 C835 1.369 . S
C834 C838 1.531 . S
C835 C834 1.369 . S
C835 C836 1.410 . S
C835 C843 1.503 . S
C836 C835 1.410 . S
C836 C837 1.392 . S
C836 C839 1.511 . S
C837 C833 1.376 . S
C837 C836 1.392 . S
C837 H849 0.929 . S
C838 C834 1.531 . S
C838 H850 0.960 . S
C838 H851 0.962 . S
C838 H852 0.960 . S
C839 C836 1.511 . S
C839 H853 0.961 . S
C839 H854 0.961 . S
C839 H855 0.961 . S
C840 C841 1.370 . S
C840 C842 1.363 . S
C840 H856 0.931 . S
C841 C840 1.370 . S
C841 C845 1.408 . S
C842 C840 1.363 . S
C842 C843 1.370 . S
C842 C846 1.524 1_556 S
C843 C835 1.503 . S
C843 C842 1.370 . S
C843 C844 1.403 . S
C844 C843 1.403 . S
C844 C845 1.404 . S
C844 C847 1.539 . S
C845 C841 1.408 . S
C845 C844 1.404 . S
C845 H857 0.930 . S
C846 C842 1.524 1_554 S
C846 H858 0.956 . S
C846 H859 0.961 . S
C846 H860 0.961 . S
C847 C844 1.539 . S
C847 H861 0.958 . S
C847 H862 0.961 . S
C847 H863 0.960 . S
H848 C832 0.931 . S
H849 C837 0.929 . S
H850 C838 0.960 . S
H851 C838 0.962 . S
H852 C838 0.960 . S
H853 C839 0.961 . S
H854 C839 0.961 . S
H855 C839 0.961 . S
H856 C840 0.931 . S
H857 C845 0.930 . S
H858 C846 0.956 . S
H859 C846 0.961 . S
H860 C846 0.961 . S
H861 C847 0.958 . S
H862 C847 0.961 . S
H863 C847 0.960 . S
C864 C865 1.391 . S
C864 C866 1.394 . S
C864 H880 0.931 . S
C865 C864 1.391 . S
C865 C869 1.376 . S
C866 C864 1.394 . S
C866 C867 1.369 . S
C866 C870 1.531 . S
C867 C866 1.369 . S
C867 C868 1.410 . S
C867 C875 1.503 . S
C868 C867 1.410 . S
C868 C869 1.392 . S
C868 C871 1.511 . S
C869 C865 1.376 . S
C869 C868 1.392 . S
C869 H881 0.929 . S
C870 C866 1.531 . S
C870 H882 0.960 . S
C870 H883 0.962 . S
C870 H884 0.960 . S
C871 C868 1.511 . S
C871 H885 0.961 . S
C871 H886 0.961 . S
C871 H887 0.961 1_556 S
C872 C873 1.370 . S
C872 C874 1.363 . S
C872 H888 0.931 . S
C873 C872 1.370 . S
C873 C877 1.408 . S
C874 C872 1.363 . S
C874 C875 1.370 . S
C874 C878 1.524 . S
C875 C867 1.503 . S
C875 C874 1.370 . S
C875 C876 1.403 . S
C876 C875 1.403 . S
C876 C877 1.404 . S
C876 C879 1.539 1_556 S
C877 C873 1.408 . S
C877 C876 1.404 . S
C877 H889 0.930 . S
C878 C874 1.524 . S
C878 H890 0.956 . S
C878 H891 0.961 . S
C878 H892 0.961 . S
C879 C876 1.539 1_554 S
C879 H893 0.958 . S
C879 H894 0.961 . S
C879 H895 0.960 . S
H880 C864 0.931 . S
H881 C869 0.929 . S
H882 C870 0.960 . S
H883 C870 0.962 . S
H884 C870 0.960 . S
H885 C871 0.961 . S
H886 C871 0.961 . S
H887 C871 0.961 1_554 S
H888 C872 0.931 . S
H889 C877 0.930 . S
H890 C878 0.956 . S
H891 C878 0.961 . S
H892 C878 0.961 . S
H893 C879 0.958 . S
H894 C879 0.961 . S
H895 C879 0.960 . S
C896 C897 1.391 1_455 S
C896 C898 1.394 . S
C896 H912 0.931 . S
C897 C896 1.391 1_655 S
C897 C901 1.376 . S
C898 C896 1.394 . S
C898 C899 1.369 1_455 S
C898 C902 1.531 . S
C899 C898 1.369 1_655 S
C899 C900 1.410 . S
C899 C907 1.503 . S
C900 C899 1.410 . S
C900 C901 1.392 . S
C900 C903 1.511 . S
C901 C897 1.376 . S
C901 C900 1.392 . S
C901 H913 0.929 . S
C902 C898 1.531 . S
C902 H914 0.960 . S
C902 H915 0.962 . S
C902 H916 0.960 . S
C903 C900 1.511 . S
C903 H917 0.961 . S
C903 H918 0.961 . S
C903 H919 0.961 . S
C904 C905 1.370 . S
C904 C906 1.363 . S
C904 H920 0.931 . S
C905 C904 1.370 . S
C905 C909 1.408 . S
C906 C904 1.363 . S
C906 C907 1.370 . S
C906 C910 1.524 . S
C907 C899 1.503 . S
C907 C906 1.370 . S
C907 C908 1.403 . S
C908 C907 1.403 . S
C908 C909 1.404 . S
C908 C911 1.541 . S
C909 C905 1.408 . S
C909 C908 1.404 . S
C909 H921 0.930 . S
C910 C906 1.524 . S
C910 H922 0.956 1_655 S
C910 H923 0.961 . S
C910 H924 0.961 . S
C911 C908 1.541 . S
C911 H925 0.944 1_655 S
C911 H926 0.968 . S
C911 H927 0.966 . S
H912 C896 0.931 . S
H913 C901 0.929 . S
H914 C902 0.960 . S
H915 C902 0.962 . S
H916 C902 0.960 . S
H917 C903 0.961 . S
H918 C903 0.961 . S
H919 C903 0.961 . S
H920 C904 0.931 . S
H921 C909 0.930 . S
H922 C910 0.956 1_455 S
H923 C910 0.961 . S
H924 C910 0.961 . S
H925 C911 0.944 1_455 S
H926 C911 0.968 . S
H927 C911 0.966 . S
C928 C929 1.394 . S
C928 C930 1.394 . S
C928 H944 0.931 . S
C929 C928 1.394 . S
C929 C933 1.374 1_545 S
C930 C928 1.394 . S
C930 C931 1.369 . S
C930 C934 1.531 . S
C931 C930 1.369 . S
C931 C932 1.410 . S
C931 C939 1.503 1_545 S
C932 C931 1.410 . S
C932 C933 1.392 1_545 S
C932 C935 1.511 1_545 S
C933 C929 1.374 1_565 S
C933 C932 1.392 1_565 S
C933 H945 0.930 . S
C934 C930 1.531 . S
C934 H946 0.960 . S
C934 H947 0.962 1_545 S
C934 H948 0.960 . S
C935 C932 1.511 1_565 S
C935 H949 0.961 . S
C935 H950 0.961 . S
C935 H951 0.961 1_565 S
C936 C937 1.370 . S
C936 C938 1.363 . S
C936 H952 0.931 . S
C937 C936 1.370 . S
C937 C941 1.408 1_565 S
C938 C936 1.363 . S
C938 C939 1.370 . S
C938 C942 1.524 . S
C939 C931 1.503 1_565 S
C939 C938 1.370 . S
C939 C940 1.403 1_565 S
C940 C939 1.403 1_545 S
C940 C941 1.404 . S
C940 C943 1.539 . S
C941 C937 1.408 1_545 S
C941 C940 1.404 . S
C941 H953 0.930 . S
C942 C938 1.524 . S
C942 H954 0.956 . S
C942 H955 0.961 . S
C942 H956 0.961 . S
C943 C940 1.539 . S
C943 H957 0.958 . S
C943 H958 0.961 . S
C943 H959 0.960 . S
H944 C928 0.931 . S
H945 C933 0.930 . S
H946 C934 0.960 . S
H947 C934 0.962 1_565 S
H948 C934 0.960 . S
H949 C935 0.961 . S
H950 C935 0.961 . S
H951 C935 0.961 1_545 S
H952 C936 0.931 . S
H953 C941 0.930 . S
H954 C942 0.956 . S
H955 C942 0.961 . S
H956 C942 0.961 . S
H957 C943 0.958 . S
H958 C943 0.961 . S
H959 C943 0.960 . S
C960 C961 1.391 . S
C960 C962 1.394 . S
C960 H976 0.931 . S
C961 C960 1.391 . S
C961 C965 1.376 . S
C962 C960 1.394 . S
C962 C963 1.369 . S
C962 C966 1.531 . S
C963 C962 1.369 . S
C963 C964 1.410 . S
C963 C971 1.503 . S
C964 C963 1.410 . S
C964 C965 1.392 . S
C964 C967 1.511 . S
C965 C961 1.376 . S
C965 C964 1.392 . S
C965 H977 0.929 . S
C966 C962 1.531 . S
C966 H978 0.960 . S
C966 H979 0.962 . S
C966 H980 0.960 . S
C967 C964 1.511 . S
C967 H981 0.961 . S
C967 H982 0.961 . S
C967 H983 0.961 . S
C968 C969 1.370 . S
C968 C970 1.363 . S
C968 H984 0.931 . S
C969 C968 1.370 . S
C969 C973 1.408 . S
C970 C968 1.363 . S
C970 C971 1.370 . S
C970 C974 1.524 . S
C971 C963 1.503 . S
C971 C970 1.370 . S
C971 C972 1.403 . S
C972 C971 1.403 . S
C972 C973 1.404 . S
C972 C975 1.539 . S
C973 C969 1.408 . S
C973 C972 1.404 . S
C973 H985 0.930 . S
C974 C970 1.524 . S
C974 H986 0.956 . S
C974 H987 0.961 . S
C974 H988 0.961 . S
C975 C972 1.539 . S
C975 H989 0.958 . S
C975 H990 0.961 . S
C975 H991 0.960 . S
H976 C960 0.931 . S
H977 C965 0.929 . S
H978 C966 0.960 . S
H979 C966 0.962 . S
H980 C966 0.960 . S
H981 C967 0.961 . S
H982 C967 0.961 . S
H983 C967 0.961 . S
H984 C968 0.931 . S
H985 C973 0.930 . S
H986 C974 0.956 . S
H987 C974 0.961 . S
H988 C974 0.961 . S
H989 C975 0.958 . S
H990 C975 0.961 . S
H991 C975 0.960 . S
C992 C993 1.391 . S
C992 C994 1.394 . S
C992 H1008 0.931 . S
C993 C992 1.391 . S
C993 C997 1.376 . S
C994 C992 1.394 . S
C994 C995 1.369 . S
C994 C998 1.531 . S
C995 C994 1.369 . S
C995 C996 1.410 . S
C995 C1003 1.503 . S
C996 C995 1.410 . S
C996 C997 1.392 . S
C996 C999 1.511 . S
C997 C993 1.376 . S
C997 C996 1.392 . S
C997 H1009 0.929 . S
C998 C994 1.531 . S
C998 H1010 0.960 . S
C998 H1011 0.962 . S
C998 H1012 0.960 . S
C999 C996 1.511 . S
C999 H1013 0.961 . S
C999 H1014 0.961 . S
C999 H1015 0.961 . S
C1000 C1001 1.370 . S
C1000 C1002 1.363 . S
C1000 H1016 0.931 . S
C1001 C1000 1.370 . S
C1001 C1005 1.408 . S
C1002 C1000 1.363 . S
C1002 C1003 1.370 . S
C1002 C1006 1.524 . S
C1003 C995 1.503 . S
C1003 C1002 1.370 . S
C1003 C1004 1.403 . S
C1004 C1003 1.403 . S
C1004 C1005 1.404 . S
C1004 C1007 1.539 . S
C1005 C1001 1.408 . S
C1005 C1004 1.404 . S
C1005 H1017 0.930 . S
C1006 C1002 1.524 . S
C1006 H1018 0.956 . S
C1006 H1019 0.961 . S
C1006 H1020 0.961 . S
C1007 C1004 1.539 . S
C1007 H1021 0.958 . S
C1007 H1022 0.961 . S
C1007 H1023 0.960 . S
H1008 C992 0.931 . S
H1009 C997 0.929 . S
H1010 C998 0.960 . S
H1011 C998 0.962 . S
H1012 C998 0.960 . S
H1013 C999 0.961 . S
H1014 C999 0.961 . S
H1015 C999 0.961 . S
H1016 C1000 0.931 . S
H1017 C1005 0.930 . S
H1018 C1006 0.956 . S
H1019 C1006 0.961 . S
H1020 C1006 0.961 . S
H1021 C1007 0.958 . S
H1022 C1007 0.961 . S
H1023 C1007 0.960 . S
C257 C76 1.840 1_545 S
C265 C114 1.991 1_545 S
C297 C154 2.006 . S
C289 C88 1.868 . S
C329 C194 2.009 . S
C321 C52 1.810 . S
C361 C234 1.996 1_455 S
C353 C64 1.805 . S
C393 C104 1.992 . S
C385 C28 1.823 1_545 S
C417 C40 1.826 . S
C425 C144 2.005 . S
C449 C4 1.810 . S
C457 C184 2.010 . S
C481 C16 1.804 1_455 S
C489 C224 1.998 1_655 S
C521 C101 0.467 . S
C513 C69 0.532 . S
C553 C141 0.491 . S
C545 C81 0.407 . S
C585 C181 0.476 . S
C577 C93 0.419 . S
C609 C57 0.556 . S
C617 C221 0.446 . S
C641 C21 0.557 1_655 S
C649 C111 0.427 . S
C681 C151 0.439 . S
C673 C33 0.566 1_565 S
C713 C191 0.501 . S
C705 C45 0.421 . S
C737 C9 0.568 . S
C745 C231 0.438 . S
C769 C66 2.093 . S
C777 C105 2.289 . S
C801 C78 2.014 . S
C809 C145 2.266 . S
C841 C185 2.249 . S
C833 C90 2.050 . S
C873 C225 2.277 . S
C865 C54 2.001 . S
C897 C18 2.029 1_655 S
C905 C115 2.299 . S
C937 C155 2.255 . S
C929 C30 2.031 . S
C969 C195 2.251 . S
C961 C42 2.029 . S
C993 C6 2.053 . S
C1001 C235 2.288 . S
