# Generated by pormake.
# Topology eea, (3,6)-cn, num edge types: 1
# Building blocks:
#     Node 0, Type 0, BuildingBlock: CUQRIR_clean_linker_1, # of connection points: 3
#     Node 1, Type 0, BuildingBlock: CUQRIR_clean_linker_1, # of connection points: 3
#     Node 2, Type 0, BuildingBlock: CUQRIR_clean_linker_1, # of connection points: 3
#     Node 3, Type 0, BuildingBlock: CUQRIR_clean_linker_1, # of connection points: 3
#     Node 4, Type 0, BuildingBlock: CUQRIR_clean_linker_1, # of connection points: 3
#     Node 5, Type 0, BuildingBlock: CUQRIR_clean_linker_1, # of connection points: 3
#     Node 6, Type 0, BuildingBlock: CUQRIR_clean_linker_1, # of connection points: 3
#     Node 7, Type 0, BuildingBlock: CUQRIR_clean_linker_1, # of connection points: 3
#     Node 8, Type 0, BuildingBlock: CUQRIR_clean_linker_1, # of connection points: 3
#     Node 9, Type 0, BuildingBlock: CUQRIR_clean_linker_1, # of connection points: 3
#     Node 10, Type 0, BuildingBlock: CUQRIR_clean_linker_1, # of connection points: 3
#     Node 11, Type 0, BuildingBlock: CUQRIR_clean_linker_1, # of connection points: 3
#     Node 12, Type 0, BuildingBlock: CUQRIR_clean_linker_1, # of connection points: 3
#     Node 13, Type 0, BuildingBlock: CUQRIR_clean_linker_1, # of connection points: 3
#     Node 14, Type 0, BuildingBlock: CUQRIR_clean_linker_1, # of connection points: 3
#     Node 15, Type 0, BuildingBlock: CUQRIR_clean_linker_1, # of connection points: 3
#     Node 16, Type 0, BuildingBlock: CUQRIR_clean_linker_1, # of connection points: 3
#     Node 17, Type 0, BuildingBlock: CUQRIR_clean_linker_1, # of connection points: 3
#     Node 18, Type 1, BuildingBlock: KUMJIN_clean_sbu_0, # of connection points: 6
#     Node 19, Type 1, BuildingBlock: KUMJIN_clean_sbu_0, # of connection points: 6
#     Node 20, Type 1, BuildingBlock: KUMJIN_clean_sbu_0, # of connection points: 6
#     Node 21, Type 1, BuildingBlock: KUMJIN_clean_sbu_0, # of connection points: 6
#     Node 22, Type 1, BuildingBlock: KUMJIN_clean_sbu_0, # of connection points: 6
#     Node 23, Type 1, BuildingBlock: KUMJIN_clean_sbu_0, # of connection points: 6
#     Node 24, Type 1, BuildingBlock: KUMJIN_clean_sbu_0, # of connection points: 6
#     Node 25, Type 1, BuildingBlock: KUMJIN_clean_sbu_0, # of connection points: 6
#     Node 26, Type 1, BuildingBlock: KUMJIN_clean_sbu_0, # of connection points: 6
#     Edge 27, Type (0, 1), BuildingBlock: TEMPAE_clean_linker_10, # of connection points: 2
#     Edge 28, Type (0, 1), BuildingBlock: TEMPAE_clean_linker_10, # of connection points: 2
#     Edge 29, Type (0, 1), BuildingBlock: TEMPAE_clean_linker_10, # of connection points: 2
#     Edge 30, Type (0, 1), BuildingBlock: TEMPAE_clean_linker_10, # of connection points: 2
#     Edge 31, Type (0, 1), BuildingBlock: TEMPAE_clean_linker_10, # of connection points: 2
#     Edge 32, Type (0, 1), BuildingBlock: TEMPAE_clean_linker_10, # of connection points: 2
#     Edge 33, Type (0, 1), BuildingBlock: TEMPAE_clean_linker_10, # of connection points: 2
#     Edge 34, Type (0, 1), BuildingBlock: TEMPAE_clean_linker_10, # of connection points: 2
#     Edge 35, Type (0, 1), BuildingBlock: TEMPAE_clean_linker_10, # of connection points: 2
#     Edge 36, Type (0, 1), BuildingBlock: TEMPAE_clean_linker_10, # of connection points: 2
#     Edge 37, Type (0, 1), BuildingBlock: TEMPAE_clean_linker_10, # of connection points: 2
#     Edge 38, Type (0, 1), BuildingBlock: TEMPAE_clean_linker_10, # of connection points: 2
#     Edge 39, Type (0, 1), BuildingBlock: TEMPAE_clean_linker_10, # of connection points: 2
#     Edge 40, Type (0, 1), BuildingBlock: TEMPAE_clean_linker_10, # of connection points: 2
#     Edge 41, Type (0, 1), BuildingBlock: TEMPAE_clean_linker_10, # of connection points: 2
#     Edge 42, Type (0, 1), BuildingBlock: TEMPAE_clean_linker_10, # of connection points: 2
#     Edge 43, Type (0, 1), BuildingBlock: TEMPAE_clean_linker_10, # of connection points: 2
#     Edge 44, Type (0, 1), BuildingBlock: TEMPAE_clean_linker_10, # of connection points: 2
#     Edge 45, Type (0, 1), BuildingBlock: TEMPAE_clean_linker_10, # of connection points: 2
#     Edge 46, Type (0, 1), BuildingBlock: TEMPAE_clean_linker_10, # of connection points: 2
#     Edge 47, Type (0, 1), BuildingBlock: TEMPAE_clean_linker_10, # of connection points: 2
#     Edge 48, Type (0, 1), BuildingBlock: TEMPAE_clean_linker_10, # of connection points: 2
#     Edge 49, Type (0, 1), BuildingBlock: TEMPAE_clean_linker_10, # of connection points: 2
#     Edge 50, Type (0, 1), BuildingBlock: TEMPAE_clean_linker_10, # of connection points: 2
#     Edge 51, Type (0, 1), BuildingBlock: TEMPAE_clean_linker_10, # of connection points: 2
#     Edge 52, Type (0, 1), BuildingBlock: TEMPAE_clean_linker_10, # of connection points: 2
#     Edge 53, Type (0, 1), BuildingBlock: TEMPAE_clean_linker_10, # of connection points: 2
#     Edge 54, Type (0, 1), BuildingBlock: TEMPAE_clean_linker_10, # of connection points: 2
#     Edge 55, Type (0, 1), BuildingBlock: TEMPAE_clean_linker_10, # of connection points: 2
#     Edge 56, Type (0, 1), BuildingBlock: TEMPAE_clean_linker_10, # of connection points: 2
#     Edge 57, Type (0, 1), BuildingBlock: TEMPAE_clean_linker_10, # of connection points: 2
#     Edge 58, Type (0, 1), BuildingBlock: TEMPAE_clean_linker_10, # of connection points: 2
#     Edge 59, Type (0, 1), BuildingBlock: TEMPAE_clean_linker_10, # of connection points: 2
#     Edge 60, Type (0, 1), BuildingBlock: TEMPAE_clean_linker_10, # of connection points: 2
#     Edge 61, Type (0, 1), BuildingBlock: TEMPAE_clean_linker_10, # of connection points: 2
#     Edge 62, Type (0, 1), BuildingBlock: TEMPAE_clean_linker_10, # of connection points: 2
#     Edge 63, Type (0, 1), BuildingBlock: TEMPAE_clean_linker_10, # of connection points: 2
#     Edge 64, Type (0, 1), BuildingBlock: TEMPAE_clean_linker_10, # of connection points: 2
#     Edge 65, Type (0, 1), BuildingBlock: TEMPAE_clean_linker_10, # of connection points: 2
#     Edge 66, Type (0, 1), BuildingBlock: TEMPAE_clean_linker_10, # of connection points: 2
#     Edge 67, Type (0, 1), BuildingBlock: TEMPAE_clean_linker_10, # of connection points: 2
#     Edge 68, Type (0, 1), BuildingBlock: TEMPAE_clean_linker_10, # of connection points: 2
#     Edge 69, Type (0, 1), BuildingBlock: TEMPAE_clean_linker_10, # of connection points: 2
#     Edge 70, Type (0, 1), BuildingBlock: TEMPAE_clean_linker_10, # of connection points: 2
#     Edge 71, Type (0, 1), BuildingBlock: TEMPAE_clean_linker_10, # of connection points: 2
#     Edge 72, Type (0, 1), BuildingBlock: TEMPAE_clean_linker_10, # of connection points: 2
#     Edge 73, Type (0, 1), BuildingBlock: TEMPAE_clean_linker_10, # of connection points: 2
#     Edge 74, Type (0, 1), BuildingBlock: TEMPAE_clean_linker_10, # of connection points: 2
#     Edge 75, Type (0, 1), BuildingBlock: TEMPAE_clean_linker_10, # of connection points: 2
#     Edge 76, Type (0, 1), BuildingBlock: TEMPAE_clean_linker_10, # of connection points: 2
#     Edge 77, Type (0, 1), BuildingBlock: TEMPAE_clean_linker_10, # of connection points: 2
#     Edge 78, Type (0, 1), BuildingBlock: TEMPAE_clean_linker_10, # of connection points: 2
#     Edge 79, Type (0, 1), BuildingBlock: TEMPAE_clean_linker_10, # of connection points: 2
#     Edge 80, Type (0, 1), BuildingBlock: TEMPAE_clean_linker_10, # of connection points: 2
# Relax obj value: 0.040
# Max RMSD: 0.206
# Mean RMSD: 0.147
data_MOF--net-eea--node1-KUMJIN_clean_sbu_0--node2-CUQRIR_clean_linker_1--edge1-TEMPAE_clean_linker_10
_symmetry_space_group_name_H-M    P1
_symmetry_Int_Tables_number       1
_symmetry_cell_setting            triclinic
loop_
_symmetry_equiv_pos_as_xyz
'x, y, z'
_cell_length_a     48.368907
_cell_length_b     51.908465
_cell_length_c     64.167327
_cell_angle_alpha  83.097125
_cell_angle_beta   89.974037
_cell_angle_gamma 118.56357
loop_
_atom_site_label
_atom_site_type_symbol
_atom_site_fract_x
_atom_site_fract_y
_atom_site_fract_z
_atom_type_partial_charge
C0 C 0.20382 0.10181 0.41583 0.0
N1 N 0.21392 0.124 0.42789 0.0
N2 N 0.21061 0.08039 0.42424 0.0
C3 C 0.18827 0.10144 0.3955 0.0
C4 C 0.22531 0.09048 0.4418 0.0
N5 N 0.22747 0.11701 0.44399 0.0
C6 C 0.23617 0.07368 0.45739 0.0
H7 H 0.16231 0.08868 0.39878 0.0
H8 H 0.19511 0.0904 0.38433 0.0
H9 H 0.19444 0.12412 0.38812 0.0
H10 H 0.2611 0.08025 0.45307 0.0
H11 H 0.22172 0.04946 0.45727 0.0
H12 H 0.23477 0.07885 0.47352 0.0
C13 C 0.90024 0.11705 0.41357 0.0
N14 N 0.91579 0.1385 0.42611 0.0
N15 N 0.87537 0.09314 0.42436 0.0
C16 C 0.90638 0.12073 0.39009 0.0
C17 C 0.87571 0.10073 0.4438 0.0
N18 N 0.89978 0.12839 0.44496 0.0
C19 C 0.85332 0.08029 0.46204 0.0
H20 H 0.88385 0.10931 0.38244 0.0
H21 H 0.92096 0.11037 0.38653 0.0
H22 H 0.91871 0.14444 0.38325 0.0
H23 H 0.84655 0.05692 0.46068 0.0
H24 H 0.83155 0.08238 0.46189 0.0
H25 H 0.86409 0.08588 0.47725 0.0
C26 C 0.929 0.86818 0.41781 0.0
N27 N 0.94252 0.85604 0.43139 0.0
N28 N 0.89981 0.86121 0.42549 0.0
C29 C 0.94308 0.88475 0.39618 0.0
C30 C 0.89621 0.84487 0.44438 0.0
N31 N 0.92188 0.84137 0.44787 0.0
C32 C 0.86609 0.82962 0.45836 0.0
H33 H 0.96399 0.90629 0.39768 0.0
H34 H 0.92657 0.88986 0.38693 0.0
H35 H 0.95074 0.87184 0.3874 0.0
H36 H 0.84737 0.81214 0.45039 0.0
H37 H 0.85804 0.84566 0.46123 0.0
H38 H 0.86907 0.81964 0.47389 0.0
C39 C 0.06961 0.13726 0.63593 0.0
N40 N 0.09377 0.15191 0.62089 0.0
N41 N 0.04539 0.14259 0.63117 0.0
C42 C 0.07044 0.1195 0.65615 0.0
C43 C 0.05533 0.16058 0.61254 0.0
N44 N 0.08476 0.16646 0.60638 0.0
C45 C 0.03727 0.17452 0.60139 0.0
H46 H 0.07157 0.09967 0.65258 0.0
H47 H 0.04903 0.11126 0.66677 0.0
H48 H 0.09165 0.13304 0.66447 0.0
H49 H 0.03422 0.18892 0.61159 0.0
H50 H 0.01351 0.1571 0.59834 0.0
H51 H 0.04901 0.18763 0.58602 0.0
C52 C 0.79694 0.90486 0.64454 0.0
N53 N 0.78954 0.8851 0.63067 0.0
N54 N 0.78621 0.92425 0.63857 0.0
C55 C 0.81254 0.90395 0.66468 0.0
C56 C 0.77194 0.91554 0.62063 0.0
N57 N 0.77362 0.89155 0.61597 0.0
C58 C 0.75854 0.93184 0.6068 0.0
H59 H 0.80617 0.91446 0.67653 0.0
H60 H 0.83851 0.91623 0.66137 0.0
H61 H 0.80571 0.88079 0.67129 0.0
H62 H 0.76989 0.95555 0.60898 0.0
H63 H 0.73289 0.9217 0.61103 0.0
H64 H 0.76172 0.93021 0.58997 0.0
C65 C 0.11369 0.91443 0.64478 0.0
N66 N 0.09771 0.89277 0.63247 0.0
N67 N 0.13862 0.93805 0.63371 0.0
C68 C 0.10809 0.91126 0.66827 0.0
C69 C 0.13781 0.93006 0.61436 0.0
N70 N 0.11327 0.90269 0.61351 0.0
C71 C 0.161 0.94916 0.59613 0.0
H72 H 0.09284 0.92094 0.67179 0.0
H73 H 0.13069 0.92354 0.67564 0.0
H74 H 0.09666 0.88769 0.67541 0.0
H75 H 0.18116 0.94455 0.59631 0.0
H76 H 0.17019 0.97299 0.59735 0.0
H77 H 0.14992 0.94422 0.58094 0.0
C78 C 0.8905 0.43994 0.74374 0.0
N79 N 0.89675 0.45941 0.75771 0.0
N80 N 0.89396 0.41657 0.75237 0.0
C81 C 0.8799 0.44298 0.72195 0.0
C82 C 0.90222 0.42239 0.77215 0.0
N83 N 0.90361 0.4483 0.77547 0.0
C84 C 0.91046 0.4034 0.78775 0.0
H85 H 0.85374 0.43161 0.72275 0.0
H86 H 0.88804 0.43237 0.71122 0.0
H87 H 0.88853 0.46638 0.71527 0.0
H88 H 0.93621 0.41143 0.78588 0.0
H89 H 0.89786 0.37993 0.78496 0.0
H90 H 0.90472 0.40448 0.80419 0.0
C91 C 0.56822 0.45036 0.74388 0.0
N92 N 0.58582 0.47096 0.75656 0.0
N93 N 0.54176 0.42804 0.75455 0.0
C94 C 0.57421 0.45366 0.72043 0.0
C95 C 0.54331 0.4358 0.77404 0.0
N96 N 0.56971 0.46176 0.77532 0.0
C97 C 0.51902 0.41789 0.792 0.0
H98 H 0.55158 0.44359 0.71272 0.0
H99 H 0.58723 0.44178 0.71694 0.0
H100 H 0.5881 0.47729 0.7136 0.0
H101 H 0.507 0.39398 0.79036 0.0
H102 H 0.50108 0.42543 0.79196 0.0
H103 H 0.5299 0.42099 0.80735 0.0
C104 C 0.57839 0.1716 0.74229 0.0
N105 N 0.5976 0.16548 0.75476 0.0
N106 N 0.56321 0.18249 0.75304 0.0
C107 C 0.57014 0.16156 0.72095 0.0
C108 C 0.57355 0.18215 0.77263 0.0
N109 N 0.59378 0.17095 0.77398 0.0
C110 C 0.56261 0.19106 0.79111 0.0
H111 H 0.58184 0.1809 0.7085 0.0
H112 H 0.54429 0.15126 0.71947 0.0
H113 H 0.5779 0.14518 0.71832 0.0
H114 H 0.54367 0.17101 0.80066 0.0
H115 H 0.55359 0.20665 0.78588 0.0
H116 H 0.58239 0.20161 0.80134 0.0
C117 C 0.74295 0.4884 0.97748 0.0
N118 N 0.76724 0.50032 0.96249 0.0
N119 N 0.71858 0.49223 0.9705 0.0
C120 C 0.7437 0.47481 0.99952 0.0
C121 C 0.72864 0.50662 0.95072 0.0
N122 N 0.75821 0.51175 0.94588 0.0
C123 C 0.71072 0.51839 0.93698 0.0
H124 H 0.74188 0.4528 0.99903 0.0
H125 H 0.72363 0.47094 0.01011 0.0
H126 H 0.76618 0.48903 1.00637 0.0
H127 H 0.70791 0.53511 0.94469 0.0
H128 H 0.68683 0.5002 0.93506 0.0
H129 H 0.72254 0.52843 0.92107 0.0
C130 C 0.47198 0.24667 0.97123 0.0
N131 N 0.46327 0.22576 0.95821 0.0
N132 N 0.46453 0.26785 0.9636 0.0
C133 C 0.48592 0.24537 0.99201 0.0
C134 C 0.45083 0.25907 0.94554 0.0
N135 N 0.44997 0.23342 0.94224 0.0
C136 C 0.43871 0.27585 0.93105 0.0
H137 H 0.46651 0.23111 1.00413 0.0
H138 H 0.49925 0.26768 0.9969 0.0
H139 H 0.50165 0.23542 0.99114 0.0
H140 H 0.45095 0.29972 0.93285 0.0
H141 H 0.41314 0.26679 0.93505 0.0
H142 H 0.44184 0.2733 0.91443 0.0
C143 C 0.77994 0.24454 0.98118 0.0
N144 N 0.76589 0.22329 0.96836 0.0
N145 N 0.80627 0.26808 0.97133 0.0
C146 C 0.76801 0.24254 1.00332 0.0
C147 C 0.80757 0.26066 0.95195 0.0
N148 N 0.78289 0.23369 0.95 0.0
C149 C 0.83322 0.27953 0.93493 0.0
H150 H 0.77473 0.26473 1.0076 0.0
H151 H 0.77873 0.23228 0.01438 0.0
H152 H 0.74196 0.22885 1.00531 0.0
H153 H 0.8408 0.26563 0.9273 0.0
H154 H 0.85397 0.29765 0.94093 0.0
H155 H 0.82381 0.2897 0.92272 0.0
C156 C 0.53713 0.76561 0.08333 0.0
N157 N 0.54649 0.78785 0.09526 0.0
N158 N 0.54332 0.74415 0.09248 0.0
C159 C 0.52297 0.76522 0.06243 0.0
C160 C 0.55689 0.75422 0.11032 0.0
N161 N 0.55892 0.7808 0.112 0.0
C162 C 0.56706 0.73754 0.12653 0.0
H163 H 0.49693 0.75184 0.0649 0.0
H164 H 0.5312 0.75474 0.05163 0.0
H165 H 0.52886 0.78781 0.05501 0.0
H166 H 0.59218 0.74418 0.12287 0.0
H167 H 0.55281 0.7133 0.12639 0.0
H168 H 0.56477 0.74278 0.1425 0.0
C169 C 0.23778 0.78388 0.07588 0.0
N170 N 0.2523 0.80572 0.08818 0.0
N171 N 0.2107 0.76152 0.08577 0.0
C172 C 0.25038 0.78356 0.05454 0.0
C173 C 0.20918 0.77024 0.10455 0.0
N174 N 0.23443 0.79687 0.10614 0.0
C175 C 0.18289 0.75296 0.12138 0.0
H176 H 0.24117 0.79393 0.04234 0.0
H177 H 0.24242 0.76051 0.05155 0.0
H178 H 0.27654 0.79607 0.05312 0.0
H179 H 0.16366 0.73273 0.11618 0.0
H180 H 0.17322 0.76721 0.1259 0.0
H181 H 0.19247 0.74654 0.13558 0.0
C182 C 0.27435 0.54631 0.08537 0.0
N183 N 0.285 0.53129 0.09889 0.0
N184 N 0.24568 0.54153 0.09245 0.0
C185 C 0.29059 0.56372 0.06433 0.0
C186 C 0.23938 0.52342 0.11085 0.0
N187 N 0.26301 0.51691 0.11468 0.0
C188 C 0.20849 0.50955 0.12394 0.0
H189 H 0.3122 0.5842 0.06682 0.0
H190 H 0.27584 0.57091 0.05476 0.0
H191 H 0.29747 0.55043 0.05537 0.0
H192 H 0.18933 0.49423 0.11492 0.0
H193 H 0.20269 0.52686 0.12742 0.0
H194 H 0.20912 0.49734 0.13917 0.0
C195 C 0.40632 0.82236 0.30786 0.0
N196 N 0.43141 0.834 0.29355 0.0
N197 N 0.38362 0.82862 0.3006 0.0
C198 C 0.40493 0.80692 0.32965 0.0
C199 C 0.39559 0.8443 0.28136 0.0
N200 N 0.42466 0.8478 0.27712 0.0
C201 C 0.38016 0.85888 0.26771 0.0
H202 H 0.40306 0.78503 0.32847 0.0
H203 H 0.38413 0.80271 0.33962 0.0
H204 H 0.42678 0.82016 0.33749 0.0
H205 H 0.37974 0.87658 0.27562 0.0
H206 H 0.35544 0.84254 0.26558 0.0
H207 H 0.39255 0.8685 0.2519 0.0
C208 C 0.12856 0.5775 0.30218 0.0
N209 N 0.11743 0.55546 0.28999 0.0
N210 N 0.12074 0.59857 0.29494 0.0
C211 C 0.14602 0.57777 0.3216 0.0
C212 C 0.10443 0.58861 0.2779 0.0
N213 N 0.10203 0.56212 0.27491 0.0
C214 C 0.09318 0.60616 0.26338 0.0
H215 H 0.14643 0.59395 0.3316 0.0
H216 H 0.17065 0.58381 0.3168 0.0
H217 H 0.13504 0.55538 0.33089 0.0
H218 H 0.10819 0.63026 0.2638 0.0
H219 H 0.06872 0.60008 0.26864 0.0
H220 H 0.09349 0.6016 0.24695 0.0
C221 C 0.43827 0.58429 0.31055 0.0
N222 N 0.42446 0.56122 0.29919 0.0
N223 N 0.46513 0.6066 0.30021 0.0
C224 C 0.42606 0.58491 0.33196 0.0
C225 C 0.46706 0.59644 0.2821 0.0
N226 N 0.44238 0.56915 0.28133 0.0
C227 C 0.49353 0.61295 0.26531 0.0
H228 H 0.43218 0.60775 0.33438 0.0
H229 H 0.43719 0.57656 0.34414 0.0
H230 H 0.40008 0.57076 0.33411 0.0
H231 H 0.51169 0.60591 0.26823 0.0
H232 H 0.50465 0.63721 0.26554 0.0
H233 H 0.48488 0.6078 0.24952 0.0
Eu234 Eu 0.50086 0.99664 1.00217 0.0
C235 C 0.56384 0.09236 0.06303 0.0
C236 C 0.61864 0.10394 0.06228 0.0
C237 C 0.60421 0.14087 0.06992 0.0
C238 C 0.58666 0.0842 0.05984 0.0
C239 C 0.57227 0.12063 0.06841 0.0
C240 C 0.62735 0.13249 0.06695 0.0
C241 C 0.51677 0.10586 0.07227 0.0
N242 N 0.53321 0.07211 0.06189 0.0
C243 C 0.50961 0.07801 0.0671 0.0
C244 C 0.54827 0.1274 0.07271 0.0
Eu245 Eu 0.52266 0.02568 0.05258 0.0
N246 N 0.57746 0.05648 0.0553 0.0
C247 C 0.59893 0.0466 0.05405 0.0
C248 C 0.64078 0.09414 0.06049 0.0
C249 C 0.63087 0.06534 0.05637 0.0
H250 H 0.48523 0.06142 0.06672 0.0
H251 H 0.64781 0.05747 0.05514 0.0
H252 H 0.65184 0.14806 0.06864 0.0
H253 H 0.49801 0.11068 0.07591 0.0
H254 H 0.59175 0.02437 0.05102 0.0
H255 H 0.37377 0.95504 1.00003 0.0
H256 H 0.66543 0.10837 0.06275 0.0
H257 H 0.54433 0.96655 0.98695 0.0
H258 H 0.42895 0.99183 1.00381 0.0
H259 H 0.53613 0.91907 0.977 0.0
H260 H 0.61119 0.16277 0.07389 0.0
H261 H 0.36091 0.9051 0.99233 0.0
H262 H 0.37949 0.86912 0.98559 0.0
H263 H 0.55377 0.1489 0.07683 0.0
H264 H 0.42356 0.8592 0.97958 0.0
N265 N 0.44716 0.96271 0.99916 0.0
C266 C 0.42369 0.97005 1.00068 0.0
C267 C 0.38513 0.92102 0.99434 0.0
C268 C 0.40938 0.91393 0.99214 0.0
C269 C 0.39234 0.94925 0.99854 0.0
C270 C 0.44065 0.93565 0.99444 0.0
H271 H 0.48199 0.87778 0.97608 0.0
N272 N 0.49533 0.95201 0.99229 0.0
C273 C 0.51604 0.92182 0.981 0.0
C274 C 0.46544 0.93008 0.991 0.0
C275 C 0.52059 0.9487 0.98665 0.0
C276 C 0.48545 0.89855 0.98054 0.0
C277 C 0.45966 0.90263 0.98524 0.0
O278 O 0.53102 0.0187 0.97341 0.0
O279 O 0.53743 0.03186 0.01884 0.0
O280 O 0.51697 0.05983 0.02994 0.0
O281 O 0.48341 0.0295 1.00689 0.0
O282 O 0.55369 0.01304 0.99899 0.0
O283 O 0.48249 0.00966 0.97397 0.0
O284 O 0.50047 0.01595 0.08431 0.0
O285 O 0.48536 0.99141 0.03594 0.0
O286 O 0.50447 0.96131 0.02422 0.0
O287 O 0.53737 0.99054 0.04808 0.0
O288 O 0.47004 0.00952 0.05695 0.0
O289 O 0.53355 1.00047 0.07764 0.0
C290 C 0.56223 0.0334 0.01104 0.0
C291 C 0.5074 0.01183 0.94142 0.0
C292 C 0.52574 0.02743 0.90442 0.0
C293 C 0.52363 0.03435 0.92464 0.0
C294 C 0.51121 0.99758 0.90115 0.0
C295 C 0.49269 0.98214 0.93794 0.0
C296 C 0.49459 0.9751 0.91783 0.0
C297 C 0.49718 0.05491 0.01473 0.0
C298 C 0.5089 0.01997 0.96261 0.0
C299 C 0.42848 0.88051 0.9838 0.0
C300 C 0.40339 0.88616 0.9872 0.0
C301 C 0.46085 0.98985 0.04433 0.0
C302 C 0.52954 0.00942 0.11219 0.0
C303 C 0.51891 0.98686 0.12934 0.0
C304 C 0.53201 0.99244 0.14892 0.0
C305 C 0.55637 0.02101 0.15095 0.0
C306 C 0.55373 0.03779 0.11446 0.0
C307 C 0.56711 0.0435 0.13379 0.0
C308 C 0.52341 0.96539 0.03979 0.0
C309 C 0.51575 1.00235 0.09196 0.0
H310 H 0.53533 0.05729 0.92743 0.0
H311 H 0.51231 0.99171 0.88565 0.0
H312 H 0.48018 0.9645 0.95074 0.0
H313 H 0.48332 0.95216 0.91519 0.0
H314 H 0.50054 0.96485 0.12733 0.0
H315 H 0.56668 0.02614 0.16589 0.0
H316 H 0.56228 0.0554 0.10135 0.0
H317 H 0.58576 0.06545 0.1355 0.0
Eu318 Eu 0.02253 0.52786 1.00172 0.0
C319 C 0.91302 0.49579 0.05559 0.0
C320 C 0.91459 0.53982 0.06566 0.0
C321 C 0.86542 0.50075 0.05561 0.0
C322 C 0.92996 0.52351 0.06149 0.0
C323 C 0.8802 0.48355 0.05344 0.0
C324 C 0.88255 0.52877 0.06195 0.0
C325 C 0.87758 0.43624 0.05258 0.0
N326 N 0.92776 0.47932 0.05484 0.0
C327 C 0.90989 0.44929 0.05546 0.0
C328 C 0.86279 0.45368 0.05092 0.0
Eu329 Eu 0.98416 0.50426 0.05596 0.0
N330 N 0.9605 0.53284 0.06572 0.0
C331 C 0.97538 0.55607 0.07693 0.0
C332 C 0.93139 0.56586 0.0746 0.0
C333 C 0.96167 0.57356 0.08082 0.0
H334 H 0.92007 0.43494 0.05876 0.0
H335 H 0.97418 0.59253 0.08907 0.0
H336 H 0.87051 0.54121 0.06472 0.0
H337 H 0.86398 0.4126 0.0523 0.0
H338 H 0.99766 0.56086 0.08326 0.0
H339 H 0.06638 0.44801 0.01207 0.0
H340 H 0.92052 0.57907 0.07797 0.0
H341 H 0.05902 0.59829 0.97977 0.0
H342 H 0.0271 0.46519 0.01379 0.0
H343 H 0.11197 0.63645 0.9644 0.0
H344 H 0.84039 0.49192 0.05365 0.0
H345 H 0.12113 0.48312 0.99818 0.0
H346 H 0.16084 0.53462 0.98213 0.0
H347 H 0.83759 0.44343 0.04925 0.0
H348 H 0.17356 0.58608 0.96988 0.0
N349 N 0.05915 0.50974 1.00123 0.0
C350 C 0.05078 0.48075 1.0076 0.0
C351 C 0.10393 0.4908 0.99888 0.0
C352 C 0.11219 0.52032 0.99193 0.0
C353 C 0.07305 0.47092 1.0067 0.0
C354 C 0.08896 0.52921 0.99334 0.0
H355 H 0.15557 0.62433 0.96331 0.0
N356 N 0.07313 0.56566 0.98816 0.0
C357 C 0.10795 0.61457 0.97075 0.0
C358 C 0.09623 0.55815 0.98672 0.0
C359 C 0.07809 0.593 0.97949 0.0
C360 C 0.13249 0.60765 0.97018 0.0
C361 C 0.12667 0.579 0.97789 0.0
O362 O 0.01167 0.54562 0.97194 0.0
O363 O 0.97974 0.51611 0.02221 0.0
O364 O 0.96794 0.46307 0.03937 0.0
O365 O 0.98562 0.47978 1.00408 0.0
O366 O 0.99869 0.55591 1.00288 0.0
O367 O 0.00883 0.50268 0.97511 0.0
O368 O 0.9795 0.46452 0.07539 0.0
O369 O 0.02263 0.50781 0.03439 0.0
O370 O 0.0487 0.5676 0.01906 0.0
O371 O 0.01904 0.55483 0.05136 0.0
O372 O 0.03444 0.52125 0.06415 0.0
O373 O 0.98447 0.50195 0.09047 0.0
C374 C 0.97476 0.53723 0.01544 0.0
C375 C 0.02019 0.5291 0.94091 0.0
C376 C 0.01324 0.52388 0.90366 0.0
C377 C 1.00034 0.52008 0.9242 0.0
C378 C 0.04616 0.53736 0.89999 0.0
C379 C 0.05296 0.54248 0.93688 0.0
C380 C 0.06585 0.54676 0.91649 0.0
C381 C 0.96819 0.45868 0.01945 0.0
C382 C 0.00634 0.52298 0.96255 0.0
C383 C 0.14999 0.57038 0.97654 0.0
C384 C 0.14274 0.54107 0.98352 0.0
C385 C 0.04469 0.51784 0.04675 0.0
C386 C 0.98149 0.45947 0.11366 0.0
C387 C 0.99368 0.47432 0.13133 0.0
C388 C 0.99705 0.45912 0.15026 0.0
C389 C 0.98746 0.4287 0.15096 0.0
C390 C 0.97151 0.42907 0.11528 0.0
C391 C 0.97439 0.41386 0.13381 0.0
C392 C 0.04274 0.57392 0.03746 0.0
C393 C 0.98254 0.47588 0.09283 0.0
H394 H 0.97495 0.50932 0.92727 0.0
H395 H 0.05662 0.54058 0.88431 0.0
H396 H 0.06859 0.54927 0.94945 0.0
H397 H 0.09117 0.55706 0.91352 0.0
H398 H 1.00108 0.49773 0.13009 0.0
H399 H 0.99064 0.41619 0.1646 0.0
H400 H 0.96218 0.41713 0.102 0.0
H401 H 0.96718 0.39052 0.13472 0.0
Eu402 Eu 0.49683 0.4879 0.05873 0.0
C403 C 0.44515 0.54068 0.98836 0.0
C404 C 0.39367 0.49863 0.98613 0.0
C405 C 0.40091 0.5485 0.9783 0.0
C406 C 0.42569 0.51037 0.99072 0.0
C407 C 0.43312 0.56009 0.98163 0.0
C408 C 0.38126 0.51783 0.98043 0.0
C409 C 0.48633 0.60074 0.97909 0.0
N410 N 0.4763 0.5512 0.99111 0.0
C411 C 0.49714 0.58057 0.98536 0.0
C412 C 0.45407 0.5905 0.97756 0.0
Eu413 Eu 0.49315 0.51608 1.00257 0.0
N414 N 0.43837 0.49237 0.99633 0.0
C415 C 0.42041 0.46238 0.99684 0.0
C416 C 0.37522 0.46797 0.98692 0.0
C417 C 0.38874 0.44981 0.99213 0.0
H418 H 0.5222 0.58849 0.98617 0.0
H419 H 0.37472 0.42605 0.99268 0.0
H420 H 0.35665 0.50917 0.97717 0.0
H421 H 0.5029 0.62409 0.97527 0.0
H422 H 0.42999 0.4477 1.00097 0.0
H423 H 0.62225 0.55363 0.071 0.0
H424 H 0.35062 0.45814 0.9834 0.0
H425 H 0.44806 0.41615 0.07456 0.0
H426 H 0.56945 0.5453 0.0619 0.0
H427 H 0.45088 0.3713 0.08969 0.0
H428 H 0.39121 0.56306 0.97334 0.0
H429 H 0.63078 0.51104 0.08305 0.0
H430 H 0.60785 0.45609 0.09304 0.0
H431 H 0.44574 0.6061 0.97244 0.0
H432 H 0.56131 0.40649 0.09802 0.0
N433 N 0.54822 0.4983 0.06798 0.0
C434 C 0.5727 0.52645 0.06712 0.0
C435 C 0.60748 0.50721 0.07904 0.0
C436 C 0.58192 0.4785 0.08105 0.0
C437 C 0.60275 0.5313 0.07227 0.0
C438 C 0.55214 0.47471 0.07541 0.0
H439 H 0.50267 0.3747 0.09701 0.0
N440 N 0.49773 0.44407 0.07277 0.0
C441 C 0.47224 0.39234 0.08629 0.0
C442 C 0.52612 0.44675 0.07782 0.0
C443 C 0.4707 0.41767 0.07774 0.0
C444 C 0.50153 0.39434 0.09036 0.0
C445 C 0.52889 0.42186 0.08648 0.0
O446 O 0.46189 0.47264 0.08532 0.0
O447 O 0.47083 0.50099 0.03509 0.0
O448 O 0.50111 0.55238 0.02214 0.0
O449 O 0.51738 0.53826 0.05396 0.0
O450 O 0.44415 0.46322 0.05497 0.0
O451 O 0.5071 0.51137 0.08634 0.0
O452 O 0.49186 0.49516 0.97446 0.0
O453 O 0.52039 0.5051 0.02643 0.0
O454 O 0.49143 0.45173 0.03995 0.0
O455 O 0.48377 0.46825 1.00586 0.0
O456 O 0.54585 0.54314 1.00578 0.0
O457 O 0.5224 0.542 0.9739 0.0
C458 C 0.44273 0.48259 0.04098 0.0
C459 C 0.48082 0.48298 0.11898 0.0
C460 C 0.47059 0.48396 0.15621 0.0
C461 C 0.47194 0.49485 0.13477 0.0
C462 C 0.47871 0.46149 0.16159 0.0
C463 C 0.48921 0.46086 0.12484 0.0
C464 C 0.48816 0.45022 0.146 0.0
C465 C 0.51279 0.5575 0.04083 0.0
C466 C 0.48013 0.49294 0.09653 0.0
C467 C 0.55864 0.42538 0.09156 0.0
C468 C 0.58512 0.45364 0.08878 0.0
C469 C 0.54791 0.5254 0.0209 0.0
C470 C 0.53908 0.51762 0.95206 0.0
C471 C 0.53752 0.51362 0.93057 0.0
C472 C 0.56344 0.51469 0.91945 0.0
C473 C 0.59049 0.51945 0.93012 0.0
C474 C 0.56621 0.52171 0.96223 0.0
C475 C 0.59179 0.52292 0.95133 0.0
C476 C 0.4853 0.44818 0.02004 0.0
C477 C 0.51357 0.51944 0.96357 0.0
H478 H 0.46549 0.51201 0.13039 0.0
H479 H 0.47813 0.45291 0.17792 0.0
H480 H 0.49632 0.4516 0.1131 0.0
H481 H 0.49458 0.43307 0.15035 0.0
H482 H 0.51672 0.51048 0.92245 0.0
H483 H 0.61062 0.52023 0.92206 0.0
H484 H 0.56779 0.52444 0.97856 0.0
H485 H 0.6128 0.52665 0.95933 0.0
Eu486 Eu 0.16524 0.33047 0.33531 0.0
C487 C 0.2223 0.42596 0.39694 0.0
C488 C 0.2773 0.43831 0.39645 0.0
C489 C 0.26199 0.47475 0.40383 0.0
C490 C 0.24544 0.41816 0.39403 0.0
C491 C 0.23018 0.45412 0.40232 0.0
C492 C 0.28551 0.46684 0.40092 0.0
C493 C 0.17447 0.43847 0.40609 0.0
N494 N 0.19186 0.40543 0.39561 0.0
C495 C 0.16789 0.41084 0.40075 0.0
C496 C 0.20579 0.46037 0.40659 0.0
Eu497 Eu 0.18202 0.3594 0.38589 0.0
N498 N 0.23664 0.39042 0.3897 0.0
C499 C 0.25845 0.38084 0.38896 0.0
C500 C 0.29983 0.42895 0.39481 0.0
C501 C 0.29033 0.40002 0.39119 0.0
H502 H 0.14364 0.39403 0.40019 0.0
H503 H 0.30753 0.39243 0.39017 0.0
H504 H 0.3099 0.48273 0.40258 0.0
H505 H 0.15541 0.44289 0.4097 0.0
H506 H 0.25174 0.35861 0.38619 0.0
H507 H 0.03856 0.28504 0.328 0.0
H508 H 0.32448 0.44361 0.39681 0.0
H509 H 0.21183 0.30242 0.32217 0.0
H510 H 0.09292 0.32371 0.33209 0.0
H511 H 0.20636 0.25498 0.3141 0.0
H512 H 0.26856 0.49659 0.40774 0.0
H513 H 0.02759 0.23403 0.32488 0.0
H514 H 0.04865 0.19886 0.32109 0.0
H515 H 0.21086 0.48174 0.41076 0.0
H516 H 0.09443 0.19084 0.31684 0.0
N517 N 0.1125 0.29484 0.33148 0.0
C518 C 0.08846 0.30155 0.33069 0.0
C519 C 0.05153 0.25094 0.3266 0.0
C520 C 0.07661 0.24469 0.3261 0.0
C521 C 0.05761 0.27969 0.32836 0.0
C522 C 0.10733 0.26755 0.3283 0.0
H523 H 0.15332 0.21183 0.3137 0.0
N524 N 0.16237 0.28611 0.32683 0.0
C525 C 0.18555 0.25692 0.31745 0.0
C526 C 0.13305 0.26307 0.32578 0.0
C527 C 0.18856 0.28378 0.32204 0.0
C528 C 0.15557 0.23259 0.31728 0.0
C529 C 0.12883 0.23557 0.32119 0.0
O530 O 0.19685 0.35153 0.30708 0.0
O531 O 0.19945 0.36645 0.35259 0.0
O532 O 0.17517 0.39272 0.36297 0.0
O533 O 0.14675 0.3633 0.33762 0.0
O534 O 0.21826 0.34802 0.33425 0.0
O535 O 0.14836 0.34249 0.30599 0.0
O536 O 0.15779 0.34973 0.41694 0.0
O537 O 0.14668 0.32518 0.36829 0.0
O538 O 0.16756 0.29539 0.35846 0.0
O539 O 0.19812 0.32469 0.38301 0.0
O540 O 0.12917 0.34328 0.38757 0.0
O541 O 0.18959 0.33244 0.41152 0.0
C542 C 0.22512 0.36865 0.34586 0.0
C543 C 0.17516 0.34425 0.27438 0.0
C544 C 0.19363 0.35998 0.23737 0.0
C545 C 0.19074 0.3668 0.25751 0.0
C546 C 0.18065 0.33012 0.23433 0.0
C547 C 0.16206 0.31455 0.27114 0.0
C548 C 0.16481 0.30757 0.25113 0.0
C549 C 0.15761 0.38793 0.34647 0.0
C550 C 0.17537 0.35258 0.29541 0.0
C551 C 0.09817 0.21224 0.32012 0.0
C552 C 0.07211 0.21679 0.32258 0.0
C553 C 0.12126 0.32359 0.37505 0.0
C554 C 0.18413 0.34118 0.44585 0.0
C555 C 0.17396 0.31773 0.46234 0.0
C556 C 0.18616 0.32249 0.48225 0.0
C557 C 0.20912 0.35123 0.48527 0.0
C558 C 0.20699 0.36968 0.44909 0.0
C559 C 0.21942 0.37462 0.46875 0.0
C560 C 0.18538 0.29958 0.37465 0.0
C561 C 0.17149 0.33494 0.42523 0.0
H562 H 0.20125 0.38975 0.26018 0.0
H563 H 0.18232 0.32424 0.21892 0.0
H564 H 0.1501 0.29689 0.28403 0.0
H565 H 0.15475 0.28463 0.24866 0.0
H566 H 0.15673 0.29564 0.45955 0.0
H567 H 0.2187 0.35574 0.50047 0.0
H568 H 0.21526 0.38796 0.43645 0.0
H569 H 0.23703 0.39666 0.47124 0.0
Eu570 Eu 0.68583 0.86611 0.33331 0.0
C571 C 0.57714 0.81674 0.40082 0.0
C572 C 0.57235 0.86066 0.40313 0.0
C573 C 0.52588 0.81221 0.40966 0.0
C574 C 0.59083 0.84723 0.39893 0.0
C575 C 0.54462 0.79887 0.4067 0.0
C576 C 0.53976 0.84305 0.408 0.0
C577 C 0.55224 0.75597 0.40934 0.0
N578 N 0.59595 0.80446 0.39847 0.0
C579 C 0.58437 0.77464 0.40395 0.0
C580 C 0.53213 0.76811 0.41035 0.0
Eu581 Eu 0.65018 0.83714 0.38848 0.0
N582 N 0.62241 0.8637 0.39407 0.0
C583 C 0.63697 0.89377 0.3938 0.0
C584 C 0.58721 0.89138 0.40269 0.0
C585 C 0.61969 0.90796 0.39812 0.0
H586 H 0.59999 0.76518 0.40374 0.0
H587 H 0.63146 0.93176 0.39778 0.0
H588 H 0.52519 0.85305 0.41095 0.0
H589 H 0.54312 0.73229 0.41294 0.0
H590 H 0.66188 0.90737 0.39019 0.0
H591 H 0.73729 0.79394 0.32438 0.0
H592 H 0.57387 0.90247 0.4059 0.0
H593 H 0.71634 0.93834 0.31615 0.0
H594 H 0.69474 0.80572 0.33077 0.0
H595 H 0.76804 0.98134 0.30323 0.0
H596 H 0.50085 0.79886 0.41396 0.0
H597 H 0.79192 0.83425 0.31535 0.0
H598 H 0.82934 0.88876 0.30703 0.0
H599 H 0.5073 0.75366 0.41482 0.0
H600 H 0.8378 0.93984 0.30136 0.0
N601 N 0.72488 0.85244 0.32606 0.0
C602 C 0.71834 0.82364 0.32677 0.0
C603 C 0.77328 0.83961 0.31813 0.0
C604 C 0.77949 0.86905 0.31614 0.0
C605 C 0.74247 0.8168 0.32318 0.0
C606 C 0.75441 0.87482 0.32009 0.0
H607 H 0.81502 0.97455 0.29964 0.0
N608 N 0.73441 0.90808 0.32057 0.0
C609 C 0.766 0.95963 0.3073 0.0
C610 C 0.75935 0.90355 0.31734 0.0
C611 C 0.73684 0.93532 0.31458 0.0
C612 C 0.79246 0.95571 0.30535 0.0
C613 C 0.78923 0.92731 0.30996 0.0
O614 O 0.67064 0.88448 0.30606 0.0
O615 O 0.64499 0.85288 0.35574 0.0
O616 O 0.62187 0.8007 0.36864 0.0
O617 O 0.65197 0.81602 0.33648 0.0
O618 O 0.65935 0.89168 0.33635 0.0
O619 O 0.67214 0.84366 0.30533 0.0
O620 O 0.66954 0.85551 0.41754 0.0
O621 O 0.69 0.84845 0.36574 0.0
O622 O 0.7152 0.90288 0.35253 0.0
O623 O 0.69205 0.88406 0.38696 0.0
O624 O 0.67408 0.80918 0.38536 0.0
O625 O 0.64873 0.80848 0.41674 0.0
C626 C 0.63708 0.87221 0.34973 0.0
C627 C 0.67991 0.87376 0.27285 0.0
C628 C 0.67145 0.87309 0.23534 0.0
C629 C 0.65973 0.8633 0.25653 0.0
C630 C 0.70364 0.89343 0.23077 0.0
C631 C 0.712 0.89372 0.26792 0.0
C632 C 0.72374 0.90355 0.24699 0.0
C633 C 0.62794 0.79616 0.34964 0.0
C634 C 0.66702 0.8639 0.29483 0.0
C635 C 0.81457 0.92183 0.30675 0.0
C636 C 0.80973 0.89275 0.30992 0.0
C637 C 0.69578 0.82757 0.37122 0.0
C638 C 0.68963 0.82906 0.43983 0.0
C639 C 0.69412 0.83687 0.46035 0.0
C640 C 0.71682 0.83344 0.47244 0.0
C641 C 0.73557 0.82311 0.46357 0.0
C642 C 0.70851 0.81848 0.43153 0.0
C643 C 0.73144 0.81575 0.44324 0.0
C644 C 0.71331 0.90523 0.37277 0.0
C645 C 0.66396 0.83004 0.42776 0.0
H646 H 0.63491 0.8478 0.26031 0.0
H647 H 0.7134 0.90104 0.21464 0.0
H648 H 0.728 0.90174 0.28018 0.0
H649 H 0.74854 0.91898 0.24331 0.0
H650 H 0.67932 0.84455 0.46713 0.0
H651 H 0.75342 0.82063 0.47244 0.0
H652 H 0.70508 0.81162 0.4162 0.0
H653 H 0.74583 0.80759 0.43663 0.0
Eu654 Eu 0.16061 0.82289 0.38873 0.0
C655 C 0.10681 0.87418 0.31969 0.0
C656 C 0.05594 0.8313 0.31759 0.0
C657 C 0.06143 0.88059 0.31051 0.0
C658 C 0.08814 0.84376 0.32183 0.0
C659 C 0.09381 0.89294 0.31349 0.0
C660 C 0.04256 0.84983 0.31245 0.0
C661 C 0.14641 0.93458 0.31065 0.0
N662 N 0.13814 0.88547 0.32211 0.0
C663 C 0.15819 0.91504 0.31641 0.0
C664 C 0.11397 0.92352 0.30954 0.0
Eu665 Eu 0.15662 0.85133 0.33285 0.0
N666 N 0.10174 0.82641 0.32691 0.0
C667 C 0.08451 0.79639 0.32723 0.0
C668 C 0.03825 0.8006 0.31816 0.0
C669 C 0.05269 0.78312 0.32284 0.0
H670 H 0.1834 0.92362 0.31686 0.0
H671 H 0.03926 0.75934 0.32324 0.0
H672 H 0.0178 0.84059 0.30947 0.0
H673 H 0.16237 0.95809 0.30689 0.0
H674 H 0.09478 0.7822 0.33095 0.0
H675 H 0.28619 0.88904 0.40047 0.0
H676 H 0.01354 0.79023 0.31489 0.0
H677 H 0.11222 0.75123 0.40506 0.0
H678 H 0.23314 0.8805 0.39189 0.0
H679 H 0.11543 0.7065 0.41995 0.0
H680 H 0.05098 0.89465 0.30598 0.0
H681 H 0.29518 0.84657 0.41194 0.0
H682 H 0.27262 0.79161 0.42162 0.0
H683 H 0.10488 0.93864 0.30482 0.0
H684 H 0.22621 0.74192 0.42684 0.0
N685 N 0.21219 0.83351 0.39772 0.0
C686 C 0.23657 0.8617 0.39689 0.0
C687 C 0.27176 0.84265 0.40817 0.0
C688 C 0.24631 0.81389 0.41019 0.0
C689 C 0.26677 0.86667 0.40173 0.0
C690 C 0.21637 0.80999 0.40488 0.0
H691 H 0.16746 0.71001 0.42653 0.0
N692 N 0.1619 0.77924 0.40276 0.0
C693 C 0.13672 0.72754 0.41636 0.0
C694 C 0.19044 0.78199 0.40743 0.0
C695 C 0.13497 0.75283 0.40796 0.0
C696 C 0.16615 0.72962 0.42001 0.0
C697 C 0.19344 0.75716 0.41588 0.0
O698 O 0.12565 0.80723 0.41538 0.0
O699 O 0.13439 0.83612 0.36539 0.0
O700 O 0.16501 0.88775 0.35254 0.0
O701 O 0.18094 0.87328 0.38436 0.0
O702 O 0.10798 0.79788 0.38498 0.0
O703 O 0.17053 0.84637 0.41627 0.0
O704 O 0.15552 0.83152 0.30422 0.0
O705 O 0.18407 0.84018 0.35642 0.0
O706 O 0.15495 0.78659 0.36984 0.0
O707 O 0.14866 0.80383 0.33558 0.0
O708 O 0.20932 0.87853 0.33601 0.0
O709 O 0.1855 0.87833 0.30431 0.0
C710 C 0.10637 0.81736 0.37123 0.0
C711 C 0.14467 0.81803 0.44893 0.0
C712 C 0.13366 0.81836 0.48618 0.0
C713 C 0.13382 0.82843 0.4647 0.0
C714 C 0.14485 0.79805 0.49154 0.0
C715 C 0.15588 0.79798 0.45477 0.0
C716 C 0.15593 0.78807 0.47594 0.0
C717 C 0.1765 0.89271 0.3713 0.0
C718 C 0.14366 0.82774 0.4265 0.0
C719 C 0.22335 0.76077 0.42056 0.0
C720 C 0.24976 0.78908 0.41765 0.0
C721 C 0.21155 0.86062 0.35091 0.0
C722 C 0.20266 0.8551 0.28175 0.0
C723 C 0.20114 0.8518 0.26014 0.0
C724 C 0.22706 0.8532 0.24878 0.0
C725 C 0.25408 0.8576 0.25941 0.0
C726 C 0.22981 0.85901 0.29181 0.0
C727 C 0.25541 0.86058 0.2807 0.0
C728 C 0.14965 0.78343 0.34978 0.0
C729 C 0.17695 0.8562 0.29358 0.0
H730 H 0.12517 0.84397 0.46025 0.0
H731 H 0.14557 0.79026 0.50786 0.0
H732 H 0.16454 0.78992 0.44301 0.0
H733 H 0.16467 0.7726 0.48029 0.0
H734 H 0.18031 0.84888 0.25215 0.0
H735 H 0.27418 0.85843 0.25128 0.0
H736 H 0.23138 0.86124 0.30822 0.0
H737 H 0.27643 0.86416 0.28862 0.0
Eu738 Eu 0.84111 0.66062 0.67045 0.0
C739 C 0.89448 0.75854 0.72856 0.0
C740 C 0.94956 0.7715 0.72852 0.0
C741 C 0.93397 0.80884 0.73242 0.0
C742 C 0.91775 0.75075 0.72657 0.0
C743 C 0.90216 0.78742 0.73216 0.0
C744 C 0.95766 0.80085 0.73067 0.0
C745 C 0.84645 0.77062 0.73795 0.0
N746 N 0.86409 0.73708 0.72891 0.0
C747 C 0.84013 0.74227 0.73449 0.0
C748 C 0.87761 0.79347 0.73639 0.0
Eu749 Eu 0.85447 0.69021 0.72094 0.0
N750 N 0.90891 0.72207 0.72493 0.0
C751 C 0.93037 0.71206 0.72737 0.0
C752 C 0.97197 0.76173 0.72952 0.0
C753 C 0.96214 0.7317 0.7296 0.0
H754 H 0.81597 0.72467 0.7355 0.0
H755 H 0.97908 0.72368 0.7311 0.0
H756 H 0.98203 0.81722 0.73184 0.0
H757 H 0.82731 0.77483 0.74176 0.0
H758 H 0.92345 0.68905 0.7273 0.0
H759 H 0.71512 0.61544 0.65983 0.0
H760 H 0.99662 0.77691 0.73111 0.0
H761 H 0.88811 0.63173 0.66076 0.0
H762 H 0.7691 0.65413 0.66468 0.0
H763 H 0.88306 0.58375 0.65432 0.0
H764 H 0.9404 0.83126 0.73487 0.0
H765 H 0.70438 0.56426 0.65765 0.0
H766 H 0.72553 0.52875 0.65575 0.0
H767 H 0.8825 0.81537 0.73923 0.0
H768 H 0.77132 0.52025 0.65383 0.0
N769 N 0.78875 0.62515 0.66543 0.0
C770 C 0.7648 0.63194 0.66363 0.0
C771 C 0.72817 0.58119 0.65968 0.0
C772 C 0.7532 0.57481 0.66027 0.0
C773 C 0.73414 0.61006 0.66088 0.0
C774 C 0.78371 0.59768 0.66292 0.0
H775 H 0.83018 0.54077 0.65286 0.0
N776 N 0.83858 0.61586 0.66335 0.0
C777 C 0.86216 0.586 0.65645 0.0
C778 C 0.80943 0.59292 0.66173 0.0
C779 C 0.86494 0.61315 0.66007 0.0
C780 C 0.83226 0.56178 0.65567 0.0
C781 C 0.80543 0.56513 0.65805 0.0
O782 O 0.87428 0.67945 0.64293 0.0
O783 O 0.87348 0.69696 0.6881 0.0
O784 O 0.84534 0.72164 0.69781 0.0
O785 O 0.82224 0.69345 0.67059 0.0
O786 O 0.89421 0.67886 0.67128 0.0
O787 O 0.8271 0.67392 0.64035 0.0
O788 O 0.83034 0.68229 0.75175 0.0
O789 O 0.82086 0.65577 0.7028 0.0
O790 O 0.84173 0.62595 0.69478 0.0
O791 O 0.87173 0.65608 0.71908 0.0
O792 O 0.80132 0.67257 0.72172 0.0
O793 O 0.86048 0.66303 0.7472 0.0
C794 C 0.89982 0.69961 0.68253 0.0
C795 C 0.85442 0.67412 0.60955 0.0
C796 C 0.87117 0.69028 0.57232 0.0
C797 C 0.86817 0.69678 0.59255 0.0
C798 C 0.86018 0.66063 0.56933 0.0
C799 C 0.84329 0.6446 0.60638 0.0
C800 C 0.84618 0.63794 0.58629 0.0
C801 C 0.82998 0.71691 0.68033 0.0
C802 C 0.85433 0.68232 0.63056 0.0
C803 C 0.77492 0.54186 0.65644 0.0
C804 C 0.74885 0.54668 0.65756 0.0
C805 C 0.79482 0.6534 0.70891 0.0
C806 C 0.8567 0.67448 0.78084 0.0
C807 C 0.8471 0.65179 0.7978 0.0
C808 C 0.85993 0.65762 0.81743 0.0
C809 C 0.88307 0.68664 0.81966 0.0
C810 C 0.87977 0.70328 0.78325 0.0
C811 C 0.89291 0.70927 0.80262 0.0
C812 C 0.85931 0.63069 0.7111 0.0
C813 C 0.84326 0.66711 0.76059 0.0
H814 H 0.87713 0.71961 0.59516 0.0
H815 H 0.86195 0.65498 0.55386 0.0
H816 H 0.83277 0.62688 0.6194 0.0
H817 H 0.83764 0.61515 0.58387 0.0
H818 H 0.82976 0.62946 0.7956 0.0
H819 H 0.89312 0.69198 0.83464 0.0
H820 H 0.88765 0.72099 0.77019 0.0
H821 H 0.91066 0.73154 0.80448 0.0
Eu822 Eu 0.35169 0.20187 0.66589 0.0
C823 C 0.23867 0.14953 0.73022 0.0
C824 C 0.23233 0.19261 0.73266 0.0
C825 C 0.18648 0.14372 0.73788 0.0
C826 C 0.25176 0.17992 0.72893 0.0
C827 C 0.2059 0.13108 0.73501 0.0
C828 C 0.1997 0.1744 0.73688 0.0
C829 C 0.21417 0.08867 0.73646 0.0
N830 N 0.25808 0.13782 0.72799 0.0
C831 C 0.24645 0.10779 0.73222 0.0
C832 C 0.1937 0.10036 0.73756 0.0
Eu833 Eu 0.31293 0.17149 0.72022 0.0
N834 N 0.28344 0.19705 0.72463 0.0
C835 C 0.2969 0.22715 0.72409 0.0
C836 C 0.2462 0.22327 0.73211 0.0
C837 C 0.27862 0.24057 0.72781 0.0
H838 H 0.26223 0.09848 0.73231 0.0
H839 H 0.28961 0.26438 0.72725 0.0
H840 H 0.1845 0.18385 0.73954 0.0
H841 H 0.20521 0.06495 0.7392 0.0
H842 H 0.32167 0.24155 0.72064 0.0
H843 H 0.4074 0.13289 0.65825 0.0
H844 H 0.2321 0.23378 0.7349 0.0
H845 H 0.38156 0.27393 0.64795 0.0
H846 H 0.36324 0.14317 0.66258 0.0
H847 H 0.43373 0.31802 0.63801 0.0
H848 H 0.1613 0.12991 0.74144 0.0
H849 H 0.46224 0.17401 0.65391 0.0
H850 H 0.49913 0.22883 0.64889 0.0
H851 H 0.16871 0.08552 0.74116 0.0
H852 H 0.50641 0.27948 0.64357 0.0
N853 N 0.39261 0.18977 0.66115 0.0
C854 C 0.38695 0.16144 0.66058 0.0
C855 C 0.44291 0.17871 0.6558 0.0
C856 C 0.44841 0.20784 0.65498 0.0
C857 C 0.41198 0.15546 0.65813 0.0
C858 C 0.42238 0.21273 0.65751 0.0
H859 H 0.48207 0.31296 0.63899 0.0
N860 N 0.40055 0.24475 0.65518 0.0
C861 C 0.43207 0.29658 0.64275 0.0
C862 C 0.42649 0.24117 0.65445 0.0
C863 C 0.40264 0.27163 0.64829 0.0
C864 C 0.45931 0.29365 0.64342 0.0
C865 C 0.45668 0.26558 0.64878 0.0
O866 O 0.33865 0.22055 0.63767 0.0
O867 O 0.30886 0.18649 0.68704 0.0
O868 O 0.29037 0.13393 0.70046 0.0
O869 O 0.31908 0.15185 0.66773 0.0
O870 O 0.32279 0.22538 0.66787 0.0
O871 O 0.34154 0.18029 0.63747 0.0
O872 O 0.3371 0.18927 0.7484 0.0
O873 O 0.35437 0.18411 0.69862 0.0
O874 O 0.3777 0.23867 0.68564 0.0
O875 O 0.35254 0.21939 0.71955 0.0
O876 O 0.33848 0.14479 0.71801 0.0
O877 O 0.30433 0.14281 0.74994 0.0
C878 C 0.3 0.20497 0.68049 0.0
C879 C 0.35023 0.21036 0.6048 0.0
C880 C 0.34314 0.20951 0.56711 0.0
C881 C 0.33078 0.19962 0.58816 0.0
C882 C 0.3753 0.23027 0.56301 0.0
C883 C 0.3823 0.23074 0.60037 0.0
C884 C 0.39471 0.24068 0.57955 0.0
C885 C 0.29665 0.13062 0.68118 0.0
C886 C 0.33646 0.2003 0.62657 0.0
C887 C 0.48297 0.26099 0.64764 0.0
C888 C 0.47882 0.23214 0.65068 0.0
C889 C 0.36071 0.16368 0.70442 0.0
C890 C 0.34615 0.1558 0.77263 0.0
C891 C 0.35567 0.16699 0.79188 0.0
C892 C 0.37351 0.15762 0.80507 0.0
C893 C 0.38241 0.13765 0.79836 0.0
C894 C 0.35499 0.13546 0.76663 0.0
C895 C 0.37307 0.12662 0.77937 0.0
C896 C 0.37393 0.24102 0.70565 0.0
C897 C 0.32486 0.16342 0.75989 0.0
H898 H 0.30598 0.18383 0.59161 0.0
H899 H 0.38559 0.23804 0.547 0.0
H900 H 0.39771 0.23899 0.61295 0.0
H901 H 0.41949 0.25644 0.57621 0.0
H902 H 0.34819 0.18201 0.79693 0.0
H903 H 0.39656 0.13043 0.80788 0.0
H904 H 0.34735 0.12565 0.75239 0.0
H905 H 0.37954 0.1108 0.7746 0.0
Eu906 Eu 0.83757 0.1564 0.72527 0.0
C907 C 0.77722 0.1991 0.66129 0.0
C908 C 0.72782 0.15597 0.65662 0.0
C909 C 0.72951 0.20337 0.65686 0.0
C910 C 0.76035 0.16911 0.66009 0.0
C911 C 0.76218 0.21676 0.65875 0.0
C912 C 0.71231 0.17297 0.65591 0.0
C913 C 0.81347 0.26005 0.65501 0.0
N914 N 0.80896 0.21159 0.6621 0.0
C915 C 0.82716 0.24158 0.65695 0.0
C916 C 0.78072 0.24756 0.65657 0.0
Eu917 Eu 0.83051 0.17881 0.66873 0.0
N918 N 0.77631 0.15351 0.66009 0.0
C919 C 0.76161 0.1258 0.65404 0.0
C920 C 0.71215 0.12654 0.65284 0.0
C921 C 0.72932 0.11166 0.65101 0.0
H922 H 0.85244 0.25143 0.65452 0.0
H923 H 0.71785 0.08944 0.64683 0.0
H924 H 0.6873 0.1631 0.65356 0.0
H925 H 0.82818 0.28385 0.65191 0.0
H926 H 0.77441 0.11433 0.65096 0.0
H927 H 0.9625 0.23889 0.72033 0.0
H928 H 0.68722 0.11567 0.65019 0.0
H929 H 0.80226 0.08589 0.7476 0.0
H930 H 0.90571 0.22061 0.71693 0.0
H931 H 0.81657 0.04817 0.76312 0.0
H932 H 0.71756 0.21655 0.65511 0.0
H933 H 0.98185 0.20414 0.73385 0.0
H934 H 0.96946 0.15231 0.74831 0.0
H935 H 0.77008 0.26185 0.65464 0.0
H936 H 0.92985 0.10033 0.75959 0.0
N937 N 0.89264 0.17587 0.72845 0.0
C938 C 0.91363 0.20521 0.72306 0.0
C939 C 0.95678 0.19602 0.73255 0.0
C940 C 0.9351 0.16612 0.73858 0.0
C941 C 0.94595 0.21569 0.72492 0.0
C942 C 0.90275 0.15667 0.73645 0.0
H943 H 0.87279 0.06129 0.76522 0.0
N944 N 0.84981 0.11932 0.74013 0.0
C945 C 0.83486 0.07032 0.75719 0.0
C946 C 0.88063 0.12742 0.74236 0.0
C947 C 0.82685 0.09165 0.74836 0.0
C948 C 0.8666 0.07781 0.75834 0.0
C949 C 0.88997 0.1068 0.75122 0.0
O950 O 0.80645 0.13864 0.75422 0.0
O951 O 0.80959 0.16727 0.7016 0.0
O952 O 0.85432 0.22056 0.68491 0.0
O953 O 0.84755 0.20386 0.72091 0.0
O954 O 0.78522 0.12881 0.72238 0.0
O955 O 0.84648 0.18222 0.75142 0.0
O956 O 0.87104 0.21045 0.64782 0.0
O957 O 0.86238 0.17601 0.69342 0.0
O958 O 0.82406 0.11577 0.70899 0.0
O959 O 0.81149 0.12866 0.67527 0.0
O960 O 0.8627 0.15971 0.66502 0.0
O961 O 0.83119 0.17565 0.63468 0.0
C962 C 0.78243 0.14632 0.70747 0.0
C963 C 0.82928 0.15629 0.78575 0.0
C964 C 0.8248 0.16137 0.82292 0.0
C965 C 0.8169 0.16479 0.80196 0.0
C966 C 0.84458 0.14881 0.82745 0.0
C967 C 0.84897 0.14385 0.79076 0.0
C968 C 0.85638 0.13998 0.8115 0.0
C969 C 0.85485 0.22495 0.70488 0.0
C970 C 0.8228 0.16171 0.76363 0.0
C971 C 0.92217 0.11591 0.75305 0.0
C972 C 0.94471 0.14551 0.74668 0.0
C973 C 0.87467 0.1644 0.68296 0.0
C974 C 0.87061 0.21623 0.61014 0.0
C975 C 0.8729 0.20341 0.59237 0.0
C976 C 0.88874 0.22124 0.57306 0.0
C977 C 0.90171 0.25224 0.57225 0.0
C978 C 0.88287 0.24696 0.60829 0.0
C979 C 0.89818 0.26473 0.58947 0.0
C980 C 0.81329 0.10945 0.69019 0.0
C981 C 0.85971 0.19791 0.63108 0.0
H982 H 0.802 0.17479 0.79819 0.0
H983 H 0.85092 0.14584 0.84341 0.0
H984 H 0.85894 0.13744 0.77864 0.0
H985 H 0.87164 0.13039 0.81518 0.0
H986 H 0.86279 0.1796 0.59399 0.0
H987 H 0.91541 0.26738 0.55854 0.0
H988 H 0.88166 0.25742 0.62163 0.0
H989 H 0.90827 0.28853 0.58839 0.0
C990 C 0.30622 0.84302 0.09562 0.0
C991 C 0.281 0.83359 0.08252 0.0
C992 C 0.33523 0.86867 0.08916 0.0
C993 C 0.33944 0.88492 0.06888 0.0
C994 C 0.31367 0.87576 0.05584 0.0
C995 C 0.28481 0.85055 0.06294 0.0
C996 C 0.36148 0.87825 0.104 0.0
C997 C 0.31662 0.89141 0.03391 0.0
C998 C 0.40443 0.96543 0.05757 0.0
C999 C 0.4293 0.96297 0.04847 0.0
C1000 C 0.37533 0.94032 0.06436 0.0
C1001 C 0.37044 0.91182 0.06155 0.0
C1002 C 0.39518 0.90922 0.0518 0.0
C1003 C 0.42457 0.93469 0.04594 0.0
C1004 C 0.34985 0.94426 0.07476 0.0
C1005 C 0.39058 0.87954 0.04748 0.0
H1006 H 0.30357 0.82989 0.11068 0.0
H1007 H 0.26524 0.84363 0.05288 0.0
H1008 H 0.38177 0.87697 0.09714 0.0
H1009 H 0.36991 0.90166 0.10623 0.0
H1010 H 0.35393 0.86433 0.11963 0.0
H1011 H 0.29334 0.88797 0.02869 0.0
H1012 H 0.333 0.91554 0.03256 0.0
H1013 H 0.32592 0.88193 0.023 0.0
H1014 H 0.40801 0.98715 0.05987 0.0
H1015 H 0.44388 0.93241 0.03957 0.0
H1016 H 0.34223 0.93069 0.09049 0.0
H1017 H 0.32892 0.93639 0.06522 0.0
H1018 H 0.3578 0.96773 0.07665 0.0
H1019 H 0.38533 0.86448 0.06247 0.0
H1020 H 0.41167 0.88135 0.03908 0.0
H1021 H 0.37004 0.86923 0.03778 0.0
C1022 C 0.21451 0.53266 0.06134 0.0
C1023 C 0.22246 0.54485 0.0802 0.0
C1024 C 0.18884 0.53171 0.05076 0.0
C1025 C 0.16936 0.54103 0.06018 0.0
C1026 C 0.17781 0.55417 0.07894 0.0
C1027 C 0.20502 0.55685 0.0883 0.0
C1028 C 0.18186 0.5197 0.03 0.0
C1029 C 0.15689 0.5632 0.09004 0.0
C1030 C 0.10197 0.54964 0.03756 0.0
C1031 C 0.07646 0.52169 0.04444 0.0
C1032 C 0.13296 0.55533 0.04044 0.0
C1033 C 0.13806 0.53338 0.05228 0.0
C1034 C 0.11228 0.50493 0.05904 0.0
C1035 C 0.08177 0.49931 0.05462 0.0
C1036 C 0.16 0.58521 0.03174 0.0
C1037 C 0.11648 0.48134 0.07267 0.0
H1038 H 0.22783 0.52303 0.05523 0.0
H1039 H 0.21169 0.56671 0.10267 0.0
H1040 H 0.15989 0.49811 0.03176 0.0
H1041 H 0.17807 0.53512 0.01838 0.0
H1042 H 0.20132 0.51664 0.02368 0.0
H1043 H 0.16659 0.57231 0.10478 0.0
H1044 H 0.15378 0.58014 0.07964 0.0
H1045 H 0.13313 0.54374 0.094 0.0
H1046 H 0.09789 0.56733 0.03042 0.0
H1047 H 0.06175 0.47808 0.06063 0.0
H1048 H 0.17841 0.58241 0.02354 0.0
H1049 H 0.17107 0.59827 0.0447 0.0
H1050 H 0.15217 0.59813 0.02056 0.0
H1051 H 0.13321 0.47624 0.06466 0.0
H1052 H 0.09387 0.46047 0.0766 0.0
H1053 H 0.12659 0.48953 0.08757 0.0
C1054 C 0.5091 0.69678 0.07952 0.0
C1055 C 0.53902 0.71787 0.08438 0.0
C1056 C 0.50456 0.67059 0.07231 0.0
C1057 C 0.53065 0.66555 0.06994 0.0
C1058 C 0.56099 0.68703 0.07467 0.0
C1059 C 0.56478 0.71296 0.0818 0.0
C1060 C 0.47187 0.6482 0.06744 0.0
C1061 C 0.58939 0.68253 0.07231 0.0
C1062 C 0.51583 0.5867 0.06984 0.0
C1063 C 0.5189 0.58557 0.04827 0.0
C1064 C 0.51939 0.61251 0.07711 0.0
C1065 C 0.52633 0.63785 0.06248 0.0
C1066 C 0.52968 0.6369 0.04071 0.0
C1067 C 0.52603 0.61081 0.03391 0.0
C1068 C 0.51545 0.61255 0.10045 0.0
C1069 C 0.53708 0.66342 0.02458 0.0
H1070 H 0.48923 0.70063 0.08172 0.0
H1071 H 0.58793 0.72955 0.08538 0.0
H1072 H 0.47192 0.64414 0.05086 0.0
H1073 H 0.46448 0.62676 0.07752 0.0
H1074 H 0.45413 0.65552 0.06999 0.0
H1075 H 0.61134 0.7014 0.07663 0.0
H1076 H 0.58547 0.66202 0.08242 0.0
H1077 H 0.59286 0.67969 0.05582 0.0
H1078 H 0.50989 0.56717 0.08105 0.0
H1079 H 0.52906 0.61034 0.01732 0.0
H1080 H 0.49608 0.61747 0.1038 0.0
H1081 H 0.53732 0.63022 0.10588 0.0
H1082 H 0.51005 0.591 0.10975 0.0
H1083 H 0.51885 0.67039 0.02609 0.0
H1084 H 0.53818 0.65882 1.00822 0.0
H1085 H 0.56004 0.68234 0.02742 0.0
C1086 C 0.85979 0.29845 0.98265 0.0
C1087 C 0.82913 0.29393 0.97996 0.0
C1088 C 0.88295 0.32433 0.98982 0.0
C1089 C 0.87507 0.34597 0.99491 0.0
C1090 C 0.84376 0.34102 0.99278 0.0
C1091 C 0.82129 0.31522 0.98509 0.0
C1092 C 0.91611 0.32892 0.99134 0.0
C1093 C 0.83415 0.3632 0.99832 0.0
C1094 C 0.93009 0.40386 0.02844 0.0
C1095 C 0.94609 0.42904 0.01336 0.0
C1096 C 0.90672 0.37679 0.02275 0.0
C1097 C 0.89993 0.37443 1.00135 0.0
C1098 C 0.91692 0.39941 0.98596 0.0
C1099 C 0.93947 0.42633 0.99215 0.0
C1100 C 0.88885 0.35087 0.03971 0.0
C1101 C 0.91101 0.39789 0.96292 0.0
H1102 H 0.86571 0.28189 0.97867 0.0
H1103 H 0.79761 0.31175 0.98285 0.0
H1104 H 0.93261 0.34898 0.98056 0.0
H1105 H 0.9237 0.33268 1.00751 0.0
H1106 H 0.91825 0.30973 0.98723 0.0
H1107 H 0.80841 0.35503 0.99739 0.0
H1108 H 0.84061 0.36842 0.01447 0.0
H1109 H 0.84699 0.38419 0.98743 0.0
H1110 H 0.93559 0.40528 0.04475 0.0
H1111 H 0.95149 0.44548 0.98024 0.0
H1112 H 0.89237 0.33199 0.03677 0.0
H1113 H 0.86319 0.34337 0.03939 0.0
H1114 H 0.89636 0.35644 0.05567 0.0
H1115 H 0.91363 0.37947 0.95776 0.0
H1116 H 0.9274 0.41879 0.9528 0.0
H1117 H 0.88648 0.39328 0.96036 0.0
C1118 C 0.66255 0.47717 0.9764 0.0
C1119 C 0.69322 0.49107 0.9829 0.0
C1120 C 0.63885 0.48117 0.98552 0.0
C1121 C 0.64577 0.49795 1.00261 0.0
C1122 C 0.67594 0.50912 0.01075 0.0
C1123 C 0.6997 0.50677 1.00015 0.0
C1124 C 0.60725 0.46808 0.97591 0.0
C1125 C 0.68389 0.52457 0.03012 0.0
C1126 C 0.6042 0.54228 0.01113 0.0
C1127 C 0.5752 0.51999 0.02061 0.0
C1128 C 0.62756 0.5355 1.0051 0.0
C1129 C 0.62279 0.50625 0.01054 0.0
C1130 C 0.59498 0.48457 0.02231 0.0
C1131 C 0.57093 0.49132 0.02612 0.0
C1132 C 0.65624 0.55951 0.99191 0.0
C1133 C 0.58955 0.45368 0.02975 0.0
H1134 H 0.65754 0.46443 0.96338 0.0
H1135 H 0.7236 0.51779 1.00508 0.0
H1136 H 0.59551 0.44358 0.9796 0.0
H1137 H 0.59113 0.4758 0.9814 0.0
H1138 H 0.61074 0.47337 0.9585 0.0
H1139 H 0.69979 0.51868 0.03958 0.0
H1140 H 0.69684 0.54887 0.02531 0.0
H1141 H 0.66263 0.51885 0.04028 0.0
H1142 H 0.60751 0.56444 1.00666 0.0
H1143 H 0.54849 0.47371 0.03288 0.0
H1144 H 0.66634 0.55051 0.98114 0.0
H1145 H 0.67457 0.57227 1.00246 0.0
H1146 H 0.65043 0.57534 0.98228 0.0
H1147 H 0.5801 0.43979 0.01697 0.0
H1148 H 0.57191 0.44294 0.04339 0.0
H1149 H 0.61182 0.45392 0.03424 0.0
C1150 C 0.48861 0.19519 0.95429 0.0
C1151 C 0.46389 0.19824 0.96279 0.0
C1152 C 0.49289 0.17076 0.96159 0.0
C1153 C 0.47232 0.14932 0.97814 0.0
C1154 C 0.44676 0.15202 0.98634 0.0
C1155 C 0.44285 0.17645 0.97851 0.0
C1156 C 0.52021 0.16859 0.95224 0.0
C1157 C 0.42448 0.12991 1.0041 0.0
C1158 C 0.47014 0.07457 0.9892 0.0
C1159 C 0.4903 0.07889 1.00575 0.0
C1160 C 0.46426 0.0973 0.97998 0.0
C1161 C 0.47849 0.12498 0.98762 0.0
C1162 C 0.49865 0.12944 1.00441 0.0
C1163 C 0.50458 0.10651 0.01308 0.0
C1164 C 0.443 0.09177 0.96193 0.0
C1165 C 0.51407 0.15851 0.01321 0.0
H1166 H 0.50538 0.21261 0.94261 0.0
H1167 H 0.42419 0.17939 0.9853 0.0
H1168 H 0.53775 0.17178 0.96417 0.0
H1169 H 0.51199 0.14626 0.94762 0.0
H1170 H 0.53216 0.18544 0.93822 0.0
H1171 H 0.4048 0.13426 1.00789 0.0
H1172 H 0.41441 0.10711 1.00001 0.0
H1173 H 0.43761 0.13078 0.01841 0.0
H1174 H 0.45912 0.05347 0.98323 0.0
H1175 H 0.52064 0.11039 0.02553 0.0
H1176 H 0.45598 0.10813 0.94791 0.0
H1177 H 0.42255 0.09476 0.96611 0.0
H1178 H 0.43403 0.06914 0.95764 0.0
H1179 H 0.52977 0.17658 1.00079 0.0
H1180 H 0.5282 0.15807 0.02676 0.0
H1181 H 0.49583 0.16398 0.0184 0.0
C1182 C 0.71278 0.18492 0.96053 0.0
C1183 C 0.73796 0.19469 0.97367 0.0
C1184 C 0.68458 0.15822 0.9665 0.0
C1185 C 0.68108 0.1413 0.98639 0.0
C1186 C 0.70683 0.15084 0.99944 0.0
C1187 C 0.735 0.17699 0.99274 0.0
C1188 C 0.65843 0.14826 0.9516 0.0
C1189 C 0.7044 0.13463 0.02108 0.0
C1190 C 0.59668 0.08874 0.00935 0.0
C1191 C 0.59312 0.06099 1.00642 0.0
C1192 C 0.62542 0.11491 1.00358 0.0
C1193 C 0.6507 0.11359 0.99344 0.0
C1194 C 0.64698 0.08565 0.9901 0.0
C1195 C 0.6185 0.05977 0.99686 0.0
C1196 C 0.62874 0.14396 1.00841 0.0
C1197 C 0.67309 0.08311 0.97922 0.0
H1198 H 0.7149 0.19849 0.94577 0.0
H1199 H 0.75465 0.18403 1.00272 0.0
H1200 H 0.65099 0.12517 0.94894 0.0
H1201 H 0.63758 0.14844 0.95863 0.0
H1202 H 0.66564 0.16266 0.93616 0.0
H1203 H 0.72799 0.13924 0.02639 0.0
H1204 H 0.69367 0.14257 0.03225 0.0
H1205 H 0.68938 0.11034 0.02184 0.0
H1206 H 0.57697 0.09009 0.01607 0.0
H1207 H 0.61581 0.03846 0.99424 0.0
H1208 H 0.63266 0.15897 0.99358 0.0
H1209 H 0.64963 0.15497 0.01769 0.0
H1210 H 0.60758 0.14104 0.01742 0.0
H1211 H 0.68034 0.09728 0.9637 0.0
H1212 H 0.66595 0.05998 0.9768 0.0
H1213 H 0.69404 0.09117 0.98874 0.0
C1214 C 0.80248 0.48106 0.97578 0.0
C1215 C 0.79861 0.50438 0.96553 0.0
C1216 C 0.83129 0.48616 0.9838 0.0
C1217 C 0.85818 0.51446 0.97872 0.0
C1218 C 0.85537 0.53682 0.9654 0.0
C1219 C 0.82536 0.53218 0.96031 0.0
C1220 C 0.83194 0.46113 0.9981 0.0
C1221 C 0.88345 0.56582 0.95631 0.0
C1222 C 0.92873 0.54622 0.01216 0.0
C1223 C 0.94406 0.53051 1.00751 0.0
C1224 C 0.90015 0.54059 1.00336 0.0
C1225 C 0.88854 0.52089 0.98801 0.0
C1226 C 0.90563 0.50679 0.98212 0.0
C1227 C 0.93242 0.51087 0.99259 0.0
C1228 C 0.88254 0.55568 0.01063 0.0
C1229 C 0.8965 0.48762 0.9647 0.0
H1230 H 0.78245 0.45905 0.97866 0.0
H1231 H 0.82323 0.5508 0.95278 0.0
H1232 H 0.83391 0.44573 0.98837 0.0
H1233 H 0.85173 0.46889 1.00855 0.0
H1234 H 0.80957 0.44821 1.0081 0.0
H1235 H 0.88286 0.56873 0.93891 0.0
H1236 H 0.88169 0.58451 0.96178 0.0
H1237 H 0.90648 0.56736 0.96019 0.0
H1238 H 0.93882 0.56252 0.0229 0.0
H1239 H 0.94516 0.49965 0.98835 0.0
H1240 H 0.85706 0.53961 0.01391 0.0
H1241 H 0.88483 0.57346 0.99823 0.0
H1242 H 0.89205 0.56622 0.02491 0.0
H1243 H 0.88614 0.46404 0.9717 0.0
H1244 H 0.91784 0.49278 0.95479 0.0
H1245 H 0.8795 0.49041 0.95435 0.0
C1246 C 0.44163 0.29264 0.98204 0.0
C1247 C 0.46809 0.29278 0.97316 0.0
C1248 C 0.44444 0.31732 0.99066 0.0
C1249 C 0.47442 0.34284 0.99002 0.0
C1250 C 0.5013 0.34289 0.98115 0.0
C1251 C 0.49778 0.3177 0.97289 0.0
C1252 C 0.41531 0.31626 1.00019 0.0
C1253 C 0.53356 0.36979 0.97989 0.0
C1254 C 0.47524 0.41608 0.99166 0.0
C1255 C 0.48203 0.42092 0.01257 0.0
C1256 C 0.47311 0.39098 0.98409 0.0
C1257 C 0.47737 0.36986 0.99781 0.0
C1258 C 0.48419 0.37452 0.01891 0.0
C1259 C 0.48679 0.40013 0.02595 0.0
C1260 C 0.46641 0.38713 0.96135 0.0
C1261 C 0.48869 0.35243 0.03408 0.0
H1262 H 0.41876 0.27317 0.9821 0.0
H1263 H 0.51804 0.31754 0.96581 0.0
H1264 H 0.41907 0.32161 0.01653 0.0
H1265 H 0.41063 0.33317 0.99107 0.0
H1266 H 0.39411 0.29422 1.00043 0.0
H1267 H 0.55217 0.36589 0.97315 0.0
H1268 H 0.53336 0.38875 0.96998 0.0
H1269 H 0.53986 0.37635 0.99576 0.0
H1270 H 0.47176 0.43202 0.98105 0.0
H1271 H 0.49281 0.40388 0.04193 0.0
H1272 H 0.44396 0.36653 0.96045 0.0
H1273 H 0.48535 0.38486 0.9534 0.0
H1274 H 0.46466 0.40604 0.95257 0.0
H1275 H 0.46734 0.33037 0.03524 0.0
H1276 H 0.49329 0.35907 0.05008 0.0
H1277 H 0.50875 0.34999 0.02818 0.0
C1278 C 0.19022 0.7096 0.08 0.0
C1279 C 0.18757 0.73546 0.07768 0.0
C1280 C 0.1669 0.68356 0.07308 0.0
C1281 C 0.14029 0.68349 0.06371 0.0
C1282 C 0.13784 0.70983 0.06121 0.0
C1283 C 0.16154 0.73549 0.06826 0.0
C1284 C 0.17054 0.65605 0.07599 0.0
C1285 C 0.10996 0.71077 0.05134 0.0
C1286 C 0.09201 0.62346 0.02989 0.0
C1287 C 0.0665 0.60289 0.04388 0.0
C1288 C 0.11616 0.64959 0.03609 0.0
C1289 C 0.11479 0.6558 0.05683 0.0
C1290 C 0.08907 0.63544 0.07103 0.0
C1291 C 0.06557 0.6092 0.06447 0.0
C1292 C 0.14342 0.67032 0.02051 0.0
C1293 C 0.0866 0.64115 0.0933 0.0
H1294 H 0.21042 0.7098 0.08744 0.0
H1295 H 0.15968 0.75562 0.06666 0.0
H1296 H 0.1507 0.63817 0.08644 0.0
H1297 H 0.16964 0.64792 0.06065 0.0
H1298 H 0.19305 0.66002 0.08292 0.0
H1299 H 0.1118 0.73306 0.05026 0.0
H1300 H 0.108 0.70439 0.03529 0.0
H1301 H 0.08787 0.69451 0.06072 0.0
H1302 H 0.09365 0.61898 0.01411 0.0
H1303 H 0.047 0.5934 0.07578 0.0
H1304 H 0.16586 0.67282 0.0267 0.0
H1305 H 0.14522 0.69261 0.01826 0.0
H1306 H 0.14098 0.66233 1.00495 0.0
H1307 H 0.10697 0.6421 0.10179 0.0
H1308 H 0.0645 0.62375 0.10217 0.0
H1309 H 0.08745 0.6629 0.09322 0.0
C1310 C 0.34024 0.55053 0.08605 0.0
C1311 C 0.31136 0.52657 0.09435 0.0
C1312 C 0.36305 0.54603 0.07611 0.0
C1313 C 0.3587 0.51688 0.07714 0.0
C1314 C 0.33154 0.49296 0.08837 0.0
C1315 C 0.30738 0.49787 0.09555 0.0
C1316 C 0.39089 0.57272 0.06412 0.0
C1317 C 0.32696 0.46184 0.09249 0.0
C1318 C 0.39207 0.48456 0.04079 0.0
C1319 C 0.42239 0.49435 0.04753 0.0
C1320 C 0.37221 0.49423 0.04886 0.0
C1321 C 0.38158 0.51097 0.06601 0.0
C1322 C 0.4122 0.52033 0.07317 0.0
C1323 C 0.43262 0.51313 0.06306 0.0
C1324 C 0.34111 0.4857 0.03911 0.0
C1325 C 0.4238 0.53711 0.0918 0.0
H1326 H 0.34421 0.57287 0.08613 0.0
H1327 H 0.28514 0.47893 0.10138 0.0
H1328 H 0.40811 0.58495 0.07544 0.0
H1329 H 0.4029 0.56692 0.05226 0.0
H1330 H 0.38327 0.58816 0.05594 0.0
H1331 H 0.3159 0.45144 0.1086 0.0
H1332 H 0.31044 0.44818 0.08138 0.0
H1333 H 0.34939 0.46106 0.09098 0.0
H1334 H 0.38367 0.46918 0.02945 0.0
H1335 H 0.45616 0.52073 0.06834 0.0
H1336 H 0.33074 0.49986 0.04252 0.0
H1337 H 0.32421 0.46227 0.04499 0.0
H1338 H 0.34418 0.48726 0.02178 0.0
H1339 H 0.43928 0.56093 0.086 0.0
H1340 H 0.43846 0.52944 0.10116 0.0
H1341 H 0.40441 0.53474 0.10243 0.0
C1342 C 0.56937 0.8376 0.07517 0.0
C1343 C 0.54635 0.81545 0.08976 0.0
C1344 C 0.56745 0.86321 0.06761 0.0
C1345 C 0.54203 0.86674 0.07506 0.0
C1346 C 0.51936 0.84475 0.09045 0.0
C1347 C 0.52162 0.81915 0.09741 0.0
C1348 C 0.59183 0.88585 0.05102 0.0
C1349 C 0.49217 0.84781 0.09903 0.0
C1350 C 0.54797 0.94318 0.0656 0.0
C1351 C 0.52914 0.94058 0.04848 0.0
C1352 C 0.5523 0.91934 0.07449 0.0
C1353 C 0.538 0.89242 0.06581 0.0
C1354 C 0.51938 0.8898 0.04835 0.0
C1355 C 0.51483 0.91369 0.04012 0.0
C1356 C 0.57183 0.92283 0.09335 0.0
C1357 C 0.50403 0.86164 0.0384 0.0
H1358 H 0.5882 0.83426 0.06918 0.0
H1359 H 0.50365 0.8016 0.10844 0.0
H1360 H 0.58035 0.8869 0.0362 0.0
H1361 H 0.60248 0.90816 0.05604 0.0
H1362 H 0.61095 0.88055 0.04769 0.0
H1363 H 0.47831 0.83014 0.11224 0.0
H1364 H 0.50097 0.86966 0.10459 0.0
H1365 H 0.47619 0.84669 0.08636 0.0
H1366 H 0.55906 0.96372 0.07231 0.0
H1367 H 0.49977 0.9111 0.02719 0.0
H1368 H 0.59198 0.91914 0.08971 0.0
H1369 H 0.55735 0.90589 0.10675 0.0
H1370 H 0.58115 0.9451 0.09835 0.0
H1371 H 0.52211 0.85571 0.03366 0.0
H1372 H 0.49145 0.86365 0.02432 0.0
H1373 H 0.4869 0.84311 0.04998 0.0
C1374 C 0.95286 0.19261 0.42641 0.0
C1375 C 0.94606 0.16515 0.42044 0.0
C1376 C 0.98227 0.21812 0.42052 0.0
C1377 C 0.00431 0.21715 0.4063 0.0
C1378 C 0.99694 0.18959 0.39968 0.0
C1379 C 0.96916 0.16396 0.40789 0.0
C1380 C 0.98909 0.24568 0.42993 0.0
C1381 C 0.01778 0.18657 0.38366 0.0
C1382 C 0.0624 0.29338 0.37669 0.0
C1383 C 0.09168 0.29531 0.38088 0.0
C1384 C 0.03397 0.26766 0.38396 0.0
C1385 C 0.03458 0.24457 0.39801 0.0
C1386 C 0.06441 0.24754 0.40346 0.0
C1387 C 0.09241 0.27223 0.39419 0.0
C1388 C 0.00351 0.2657 0.37649 0.0
C1389 C 0.0676 0.22549 0.4195 0.0
H1390 H 0.93536 0.19444 0.43568 0.0
H1391 H 0.96511 0.14286 0.40383 0.0
H1392 H 0.01415 0.26309 0.42743 0.0
H1393 H 0.97391 0.25473 0.42313 0.0
H1394 H 0.98273 0.23994 0.44714 0.0
H1395 H 0.00338 0.16908 0.37389 0.0
H1396 H 0.0322 0.20747 0.37296 0.0
H1397 H 0.03374 0.17965 0.39196 0.0
H1398 H 0.0617 0.31184 0.36727 0.0
H1399 H 0.11503 0.27429 0.39842 0.0
H1400 H 0.99429 0.27506 0.38755 0.0
H1401 H 0.98533 0.24251 0.37553 0.0
H1402 H 0.00734 0.27891 0.36078 0.0
H1403 H 0.04538 0.21018 0.42907 0.0
H1404 H 0.08602 0.23734 0.43034 0.0
H1405 H 0.07575 0.21242 0.41132 0.0
C1406 C 0.85529 0.87129 0.4215 0.0
C1407 C 0.87446 0.86089 0.41367 0.0
C1408 C 0.82725 0.86625 0.41226 0.0
C1409 C 0.81952 0.85228 0.39377 0.0
C1410 C 0.84042 0.84415 0.38475 0.0
C1411 C 0.8669 0.84736 0.39535 0.0
C1412 C 0.80616 0.87543 0.423 0.0
C1413 C 0.83482 0.8314 0.36424 0.0
C1414 C 0.73382 0.80955 0.38143 0.0
C1415 C 0.72837 0.83267 0.3729 0.0
C1416 C 0.7636 0.8154 0.38812 0.0
C1417 C 0.78896 0.84485 0.38461 0.0
C1418 C 0.78423 0.86765 0.37383 0.0
C1419 C 0.75375 0.86151 0.36903 0.0
C1420 C 0.76707 0.79013 0.39977 0.0
C1421 C 0.8109 0.8989 0.36835 0.0
H1422 H 0.86161 0.88232 0.43541 0.0
H1423 H 0.88155 0.83892 0.38944 0.0
H1424 H 0.81734 0.89996 0.42069 0.0
H1425 H 0.78216 0.86637 0.41723 0.0
H1426 H 0.80391 0.86829 0.44023 0.0
H1427 H 0.8576 0.83863 0.35533 0.0
H1428 H 0.82291 0.8069 0.36758 0.0
H1429 H 0.82009 0.83804 0.3541 0.0
H1430 H 0.71421 0.7872 0.38442 0.0
H1431 H 0.74985 0.87961 0.36267 0.0
H1432 H 0.78475 0.79754 0.41179 0.0
H1433 H 0.77465 0.77995 0.38836 0.0
H1434 H 0.74425 0.77259 0.40772 0.0
H1435 H 0.8154 0.91064 0.38234 0.0
H1436 H 0.80507 0.91156 0.35556 0.0
H1437 H 0.83292 0.89893 0.36339 0.0
C1438 C 0.23104 0.04882 0.41255 0.0
C1439 C 0.2056 0.054 0.41585 0.0
C1440 C 0.22659 0.02273 0.40524 0.0
C1441 C 0.1959 1.0013 0.40103 0.0
C1442 C 0.17012 1.00662 0.40411 0.0
C1443 C 0.17531 0.03295 0.41149 0.0
C1444 C 0.25472 0.01803 0.40215 0.0
C1445 C 0.13706 0.98437 0.39978 0.0
C1446 C 0.18928 0.94606 0.36461 0.0
C1447 C 0.18275 0.92086 0.37887 0.0
C1448 C 0.1933 0.97224 0.37156 0.0
C1449 C 0.19091 0.97338 0.39339 0.0
C1450 C 0.18446 0.94805 0.40792 0.0
C1451 C 0.18053 0.92216 0.4005 0.0
C1452 C 0.20016 0.99868 0.35551 0.0
C1453 C 0.18153 0.94822 0.43132 0.0
H1454 H 0.25448 0.0653 0.41573 0.0
H1455 H 0.15566 0.03693 0.41423 0.0
H1456 H 0.25105 0.99753 0.41217 0.0
H1457 H 0.25736 0.01505 0.38557 0.0
H1458 H 0.27701 0.03686 0.40611 0.0
H1459 H 0.11964 0.99192 0.40278 0.0
H1460 H 0.13634 0.98024 0.38317 0.0
H1461 H 0.12978 0.96292 0.40981 0.0
H1462 H 0.19161 0.94552 0.34796 0.0
H1463 H 0.17505 0.90271 0.41168 0.0
H1464 H 0.22343 0.01753 0.3579 0.0
H1465 H 0.1822 1.00585 0.35758 0.0
H1466 H 0.20032 0.99391 0.3391 0.0
H1467 H 0.2038 0.96576 0.43642 0.0
H1468 H 0.17618 0.92664 0.44053 0.0
H1469 H 0.16252 0.95341 0.43514 0.0
C1470 C 0.48115 0.65592 0.31068 0.0
C1471 C 0.48835 0.63348 0.30756 0.0
C1472 C 0.50399 0.68257 0.31721 0.0
C1473 C 0.53487 0.68696 0.32052 0.0
C1474 C 0.54221 0.66432 0.31719 0.0
C1475 C 0.51887 0.6379 0.31076 0.0
C1476 C 0.49508 0.70601 0.3206 0.0
C1477 C 0.57474 0.66801 0.32043 0.0
C1478 C 0.60221 0.76592 0.3205 0.0
C1479 C 0.60531 0.7678 0.34211 0.0
C1480 C 0.57951 0.73983 0.31323 0.0
C1481 C 0.55929 0.7149 0.32789 0.0
C1482 C 0.56253 0.7166 0.34969 0.0
C1483 C 0.58552 0.74286 0.35647 0.0
C1484 C 0.57694 0.73907 0.28985 0.0
C1485 C 0.54155 0.69069 0.36592 0.0
H1486 H 0.45768 0.65263 0.30782 0.0
H1487 H 0.52436 0.62054 0.30821 0.0
H1488 H 0.49844 0.71064 0.33712 0.0
H1489 H 0.51072 0.727 0.31036 0.0
H1490 H 0.4702 0.69932 0.31723 0.0
H1491 H 0.57683 0.64857 0.31684 0.0
H1492 H 0.5926 0.68804 0.31026 0.0
H1493 H 0.58052 0.67125 0.33697 0.0
H1494 H 0.61712 0.78507 0.3092 0.0
H1495 H 0.58804 0.74369 0.37311 0.0
H1496 H 0.55304 0.73485 0.2856 0.0
H1497 H 0.58016 0.72064 0.28536 0.0
H1498 H 0.59467 0.7601 0.2805 0.0
H1499 H 0.51643 0.68422 0.36369 0.0
H1500 H 0.54664 0.69574 0.38227 0.0
H1501 H 0.54468 0.67129 0.3639 0.0
C1502 C 0.32779 0.81493 0.30526 0.0
C1503 C 0.35802 0.82769 0.31256 0.0
C1504 C 0.3039 0.81865 0.3144 0.0
C1505 C 0.3102 0.83427 0.33208 0.0
C1506 C 0.33991 0.84449 0.34081 0.0
C1507 C 0.36386 0.84213 0.33042 0.0
C1508 C 0.27269 0.80635 0.3043 0.0
C1509 C 0.34711 0.85876 0.36071 0.0
C1510 C 0.26795 0.87789 0.34104 0.0
C1511 C 0.23895 0.85537 0.35036 0.0
C1512 C 0.29159 0.87145 0.33501 0.0
C1513 C 0.287 0.84223 0.34016 0.0
C1514 C 0.25909 0.82023 0.35167 0.0
C1515 C 0.23486 0.82671 0.35561 0.0
C1516 C 0.32047 0.89575 0.32218 0.0
C1517 C 0.25388 0.78933 0.35873 0.0
H1518 H 0.32328 0.80317 0.29173 0.0
H1519 H 0.38741 0.85211 0.33601 0.0
H1520 H 0.26091 0.78179 0.30716 0.0
H1521 H 0.25633 0.81359 0.31013 0.0
H1522 H 0.27677 0.81282 0.28698 0.0
H1523 H 0.36307 0.85278 0.37002 0.0
H1524 H 0.35961 0.88318 0.35656 0.0
H1525 H 0.32548 0.85213 0.37079 0.0
H1526 H 0.27113 0.90005 0.33679 0.0
H1527 H 0.21243 0.80894 0.36227 0.0
H1528 H 0.32995 0.88705 0.31074 0.0
H1529 H 0.3391 0.9073 0.33291 0.0
H1530 H 0.31523 0.91251 0.31335 0.0
H1531 H 0.24629 0.77622 0.34542 0.0
H1532 H 0.23512 0.77762 0.37168 0.0
H1533 H 0.27596 0.78989 0.3641 0.0
C1534 C 0.09575 0.50355 0.30602 0.0
C1535 C 0.11985 0.52872 0.29408 0.0
C1536 C 0.10026 0.47936 0.3138 0.0
C1537 C 0.12949 0.48033 0.30925 0.0
C1538 C 0.15335 0.50533 0.29634 0.0
C1539 C 0.14839 0.5294 0.2892 0.0
C1540 C 0.07441 0.45352 0.32781 0.0
C1541 C 0.18461 0.50715 0.29071 0.0
C1542 C 0.15789 0.43656 0.34691 0.0
C1543 C 0.14973 0.41125 0.33721 0.0
C1544 C 0.1507 0.45871 0.33829 0.0
C1545 C 0.1359 0.45617 0.31902 0.0
C1546 C 0.12801 0.43095 0.30892 0.0
C1547 C 0.13467 0.4087 0.31823 0.0
C1548 C 0.15913 0.48496 0.34982 0.0
C1549 C 0.11302 0.4277 0.28809 0.0
H1550 H 0.07401 0.50354 0.31014 0.0
H1551 H 0.16712 0.54923 0.28027 0.0
H1552 H 0.06883 0.43243 0.32194 0.0
H1553 H 0.08257 0.45238 0.34389 0.0
H1554 H 0.05248 0.45531 0.32882 0.0
H1555 H 0.19934 0.52662 0.27885 0.0
H1556 H 0.19788 0.5088 0.30503 0.0
H1557 H 0.1808 0.48678 0.28443 0.0
H1558 H 0.17006 0.43923 0.36126 0.0
H1559 H 0.12852 0.3895 0.31036 0.0
H1560 H 0.13799 0.48757 0.3525 0.0
H1561 H 0.17696 0.50552 0.34012 0.0
H1562 H 0.16876 0.48275 0.36525 0.0
H1563 H 0.09042 0.42816 0.28959 0.0
H1564 H 0.10838 0.40681 0.28221 0.0
H1565 H 0.12868 0.44664 0.27617 0.0
C1566 C 0.39484 0.51696 0.32572 0.0
C1567 C 0.39703 0.53264 0.30583 0.0
C1568 C 0.36726 0.49064 0.33335 0.0
C1569 C 0.34137 0.47892 0.32051 0.0
C1570 C 0.34393 0.49408 0.30006 0.0
C1571 C 0.37144 0.52096 0.29315 0.0
C1572 C 0.36545 0.4762 0.35553 0.0
C1573 C 0.31748 0.48201 0.28549 0.0
C1574 C 0.28179 0.39657 0.3325 0.0
C1575 C 0.25545 0.3969 0.34136 0.0
C1576 C 0.30974 0.42298 0.32569 0.0
C1577 C 0.31192 0.45061 0.32826 0.0
C1578 C 0.28571 0.45105 0.33783 0.0
C1579 C 0.25756 0.4243 0.3437 0.0
C1580 C 0.33677 0.42133 0.31532 0.0
C1581 C 0.28731 0.47979 0.34176 0.0
H1582 H 0.41466 0.52567 0.33551 0.0
H1583 H 0.37257 0.53322 0.27803 0.0
H1584 H 0.35024 0.48089 0.36563 0.0
H1585 H 0.35471 0.45181 0.35637 0.0
H1586 H 0.38902 0.48482 0.36207 0.0
H1587 H 0.32391 0.49534 0.26964 0.0
H1588 H 0.31103 0.45882 0.28373 0.0
H1589 H 0.29623 0.48171 0.2923 0.0
H1590 H 0.28026 0.37553 0.33037 0.0
H1591 H 0.23712 0.42491 0.34996 0.0
H1592 H 0.35796 0.43143 0.32446 0.0
H1593 H 0.34294 0.43417 0.29932 0.0
H1594 H 0.33111 0.3982 0.314 0.0
H1595 H 0.30817 0.49231 0.35069 0.0
H1596 H 0.26583 0.47621 0.35074 0.0
H1597 H 0.29014 0.49375 0.32656 0.0
C1598 C 0.48911 0.86417 0.29473 0.0
C1599 C 0.4619 0.83648 0.29752 0.0
C1600 C 0.51803 0.86739 0.30127 0.0
C1601 C 0.51899 0.84306 0.31323 0.0
C1602 C 0.49174 0.81479 0.31565 0.0
C1603 C 0.4641 0.81167 0.30664 0.0
C1604 C 0.54697 0.89727 0.29574 0.0
C1605 C 0.49088 0.78779 0.32816 0.0
C1606 C 0.59521 0.84328 0.32723 0.0
C1607 C 0.60509 0.86209 0.34276 0.0
C1608 C 0.56748 0.837 0.31722 0.0
C1609 C 0.54775 0.8479 0.32419 0.0
C1610 C 0.55665 0.86517 0.34104 0.0
C1611 C 0.58617 0.87351 0.34919 0.0
C1612 C 0.5605 0.81947 0.29892 0.0
C1613 C 0.53563 0.87558 0.3503 0.0
H1614 H 0.48793 0.88374 0.2882 0.0
H1615 H 0.44356 0.78997 0.30785 0.0
H1616 H 0.56931 0.8963 0.29728 0.0
H1617 H 0.54661 0.90662 0.27928 0.0
H1618 H 0.54667 0.91289 0.30599 0.0
H1619 H 0.46704 0.77273 0.33595 0.0
H1620 H 0.49595 0.77527 0.31728 0.0
H1621 H 0.50827 0.79351 0.3404 0.0
H1622 H 0.6102 0.83483 0.32195 0.0
H1623 H 0.59446 0.88915 0.36036 0.0
H1624 H 0.54335 0.82193 0.28854 0.0
H1625 H 0.55109 0.79569 0.30509 0.0
H1626 H 0.58257 0.82636 0.28923 0.0
H1627 H 0.5419 0.89802 0.34237 0.0
H1628 H 0.5392 0.87731 0.36727 0.0
H1629 H 0.51028 0.86052 0.34857 0.0
C1630 C 0.10039 0.62642 0.31228 0.0
C1631 C 0.12602 0.62446 0.30409 0.0
C1632 C 0.10479 0.6519 0.32054 0.0
C1633 C 0.13558 0.67626 0.32021 0.0
C1634 C 0.16163 0.67422 0.31204 0.0
C1635 C 0.15653 0.64818 0.30422 0.0
C1636 C 0.07644 0.65287 0.32941 0.0
C1637 C 0.19474 0.69982 0.31107 0.0
C1638 C 0.14054 0.75159 0.32117 0.0
C1639 C 0.14636 0.75606 0.34224 0.0
C1640 C 0.13768 0.72609 0.31374 0.0
C1641 C 0.14024 0.70415 0.32772 0.0
C1642 C 0.14637 0.70858 0.34895 0.0
C1643 C 0.1497 0.73457 0.35586 0.0
C1644 C 0.13175 0.72256 0.29088 0.0
C1645 C 0.14904 0.68571 0.36445 0.0
H1646 H 0.07688 0.60789 0.31215 0.0
H1647 H 0.17621 0.64651 0.29774 0.0
H1648 H 0.08009 0.65828 0.34574 0.0
H1649 H 0.07342 0.67059 0.31995 0.0
H1650 H 0.05436 0.63154 0.32951 0.0
H1651 H 0.2125 0.69443 0.30479 0.0
H1652 H 0.19617 0.71933 0.30088 0.0
H1653 H 0.20097 0.70633 0.32696 0.0
H1654 H 0.13821 0.76805 0.31036 0.0
H1655 H 0.15495 0.73796 0.37198 0.0
H1656 H 0.10854 0.70292 0.28966 0.0
H1657 H 0.14997 0.71872 0.28349 0.0
H1658 H 0.13195 0.74227 0.2818 0.0
H1659 H 0.12676 0.66438 0.36568 0.0
H1660 H 0.15401 0.69254 0.38038 0.0
H1661 H 0.16814 0.68167 0.35884 0.0
C1662 C 0.82039 0.05769 0.41832 0.0
C1663 C 0.85262 0.06633 0.41667 0.0
C1664 C 0.79787 0.03146 0.4112 0.0
C1665 C 0.80777 0.01325 0.40231 0.0
C1666 C 0.8404 0.02197 0.40058 0.0
C1667 C 0.86243 0.04849 0.40769 0.0
C1668 C 0.76345 0.02328 0.41314 0.0
C1669 C 0.85201 1.0032 0.39134 0.0
C1670 C 0.74617 0.93239 0.40121 0.0
C1671 C 0.7375 0.93279 0.38034 0.0
C1672 C 0.76928 0.95824 0.40848 0.0
C1673 C 0.78398 0.9853 0.39464 0.0
C1674 C 0.77534 0.98576 0.37355 0.0
C1675 C 0.75228 0.95958 0.3667 0.0
C1676 C 0.77797 0.95658 0.43101 0.0
C1677 C 0.79017 0.01404 0.35825 0.0
H1678 H 0.81291 0.07171 0.42504 0.0
H1679 H 0.88736 0.05517 0.40653 0.0
H1680 H 0.75381 0.02135 0.39737 0.0
H1681 H 0.7498 1.00137 0.42288 0.0
H1682 H 0.75961 0.03983 0.42034 0.0
H1683 H 0.87806 0.01291 0.39126 0.0
H1684 H 0.84097 0.9807 0.40046 0.0
H1685 H 0.84494 1.00062 0.37495 0.0
H1686 H 0.73512 0.91175 0.41184 0.0
H1687 H 0.74533 0.9603 0.35074 0.0
H1688 H 0.77284 0.97146 0.43938 0.0
H1689 H 0.80365 0.9643 0.43147 0.0
H1690 H 0.76494 0.93376 0.43963 0.0
H1691 H 0.78477 0.03059 0.36396 0.0
H1692 H 0.78163 0.01051 0.34222 0.0
H1693 H 0.8162 0.02364 0.35718 0.0
C1694 C 0.99772 0.87865 0.41727 0.0
C1695 C 0.97024 0.85363 0.42639 0.0
C1696 C 0.02163 0.87585 0.40714 0.0
C1697 C 0.01978 0.84759 0.40854 0.0
C1698 C 0.99415 0.8229 0.42049 0.0
C1699 C 0.96886 0.82589 0.42805 0.0
C1700 C 0.04792 0.90323 0.39456 0.0
C1701 C 0.99241 0.79289 0.42497 0.0
C1702 C 0.05466 0.81721 0.3717 0.0
C1703 C 0.08543 0.82843 0.37786 0.0
C1704 C 0.03409 0.8259 0.38003 0.0
C1705 C 0.04339 0.8432 0.39687 0.0
C1706 C 0.07455 0.85419 0.40337 0.0
C1707 C 0.09548 0.84775 0.39306 0.0
C1708 C 1.0023 0.81569 0.37095 0.0
C1709 C 0.0862 0.87189 0.42155 0.0
H1710 H 0.99967 0.90035 0.41691 0.0
H1711 H 0.94771 0.80614 0.43452 0.0
H1712 H 0.06549 0.91633 0.40541 0.0
H1713 H 0.06005 0.8981 0.38233 0.0
H1714 H 0.03867 0.91757 0.38673 0.0
H1715 H 0.98211 0.78246 0.44123 0.0
H1716 H 0.97644 0.7781 0.41416 0.0
H1717 H 0.01583 0.79406 0.42329 0.0
H1718 H 0.04645 0.80138 0.36066 0.0
H1719 H 0.11931 0.85629 0.398 0.0
H1720 H 0.99133 0.82944 0.37418 0.0
H1721 H 0.98627 0.79233 0.37758 0.0
H1722 H 0.00454 0.81629 0.35366 0.0
H1723 H 0.10021 0.89573 0.41526 0.0
H1724 H 0.10228 0.86578 0.43061 0.0
H1725 H 0.06684 0.86876 0.43257 0.0
C1726 C 0.23545 0.1742 0.40851 0.0
C1727 C 0.21304 0.15142 0.42309 0.0
C1728 C 0.23272 0.19961 0.4016 0.0
C1729 C 0.20709 0.20235 0.40969 0.0
C1730 C 0.18508 0.17974 0.42509 0.0
C1731 C 0.18812 0.15435 0.43138 0.0
C1732 C 0.25642 0.22285 0.38496 0.0
C1733 C 0.15765 0.18186 0.43434 0.0
C1734 C 0.2105 0.27801 0.40071 0.0
C1735 C 0.1914 0.275 0.38368 0.0
C1736 C 0.21566 0.25455 0.40947 0.0
C1737 C 0.20185 0.22756 0.40082 0.0
C1738 C 0.18269 0.22447 0.38361 0.0
C1739 C 0.1774 0.24797 0.37549 0.0
C1740 C 0.23571 0.25855 0.42808 0.0
C1741 C 0.16775 0.19627 0.37369 0.0
H1742 H 0.25444 0.17151 0.40199 0.0
H1743 H 0.17059 0.13636 0.4424 0.0
H1744 H 0.24448 0.22371 0.37033 0.0
H1745 H 0.26654 0.24503 0.39016 0.0
H1746 H 0.27599 0.21832 0.38123 0.0
H1747 H 0.1446 0.164 0.44762 0.0
H1748 H 0.16604 0.2036 0.44 0.0
H1749 H 0.14103 0.18028 0.42202 0.0
H1750 H 0.2213 0.29863 0.40733 0.0
H1751 H 0.16205 0.24497 0.36271 0.0
H1752 H 0.25637 0.25581 0.42406 0.0
H1753 H 0.22192 0.24127 0.44149 0.0
H1754 H 0.2443 0.28066 0.43324 0.0
H1755 H 0.18631 0.19156 0.36797 0.0
H1756 H 0.15374 0.1975 0.36026 0.0
H1757 H 0.15203 0.17732 0.38555 0.0
C1758 C 0.62638 0.5237 0.75822 0.0
C1759 C 0.61715 0.49637 0.75109 0.0
C1760 C 0.6564 0.54831 0.75229 0.0
C1761 C 0.67691 0.54666 0.73721 0.0
C1762 C 0.6675 0.51918 0.72978 0.0
C1763 C 0.63884 0.49427 0.73773 0.0
C1764 C 0.66543 0.57581 0.76242 0.0
C1765 C 0.68709 0.51554 0.71319 0.0
C1766 C 0.73615 0.62346 0.70921 0.0
C1767 C 0.76518 0.62487 0.71344 0.0
C1768 C 0.70749 0.59757 0.71566 0.0
C1769 C 0.70757 0.57356 0.72887 0.0
C1770 C 0.73713 0.57558 0.73398 0.0
C1771 C 0.76542 0.60069 0.72557 0.0
C1772 C 0.67735 0.5965 0.70833 0.0
C1773 C 0.73969 0.55204 0.74881 0.0
H1774 H 0.61024 0.52636 0.76821 0.0
H1775 H 0.63309 0.47311 0.7329 0.0
H1776 H 0.69106 0.59169 0.76041 0.0
H1777 H 0.65218 0.58698 0.75566 0.0
H1778 H 0.65843 0.56966 0.77953 0.0
H1779 H 0.67172 0.49898 0.70309 0.0
H1780 H 0.7024 0.53659 0.70289 0.0
H1781 H 0.70215 0.50707 0.721 0.0
H1782 H 0.73584 0.64252 0.70043 0.0
H1783 H 0.78784 0.60216 0.72967 0.0
H1784 H 0.66858 0.60602 0.71956 0.0
H1785 H 0.6587 0.57356 0.70716 0.0
H1786 H 0.68155 0.61006 0.69272 0.0
H1787 H 0.71753 0.53684 0.75848 0.0
H1788 H 0.75875 0.56247 0.75959 0.0
H1789 H 0.74647 0.53895 0.73957 0.0
C1790 C 0.50847 0.17248 0.75852 0.0
C1791 C 0.53698 0.18639 0.74621 0.0
C1792 C 0.4815 0.17256 0.75081 0.0
C1793 C 0.48251 0.18477 0.72972 0.0
C1794 C 0.51136 0.1994 0.71732 0.0
C1795 C 0.53856 0.20096 0.72603 0.0
C1796 C 0.45165 0.15833 0.76498 0.0
C1797 C 0.5131 0.21175 0.69454 0.0
C1798 C 0.40173 0.14788 0.70844 0.0
C1799 C 0.39322 0.17011 0.70802 0.0
C1800 C 0.43196 0.15332 0.71378 0.0
C1801 C 0.45294 0.18076 0.72051 0.0
C1802 C 0.44427 0.20319 0.72024 0.0
C1803 C 0.41474 0.19773 0.71356 0.0
C1804 C 0.44112 0.12948 0.71271 0.0
C1805 C 0.46484 0.23199 0.72862 0.0
H1806 H 0.50679 0.16045 0.77386 0.0
H1807 H 0.5608 0.21211 0.71668 0.0
H1808 H 0.4394 0.17182 0.76314 0.0
H1809 H 0.4355 0.1362 0.76062 0.0
H1810 H 0.45638 0.15544 0.78181 0.0
H1811 H 0.5376 0.2233 0.68726 0.0
H1812 H 0.49832 0.1934 0.68556 0.0
H1813 H 0.50355 0.22745 0.693 0.0
H1814 H 0.38484 0.1264 0.7044 0.0
H1815 H 0.40786 0.21457 0.71401 0.0
H1816 H 0.44082 0.11886 0.72883 0.0
H1817 H 0.46541 0.13915 0.70537 0.0
H1818 H 0.4247 0.11205 0.70356 0.0
H1819 H 0.46327 0.22776 0.74607 0.0
H1820 H 0.4573 0.24888 0.72388 0.0
H1821 H 0.48996 0.24131 0.72322 0.0
C1822 C 0.91451 0.38424 0.74228 0.0
C1823 C 0.89004 0.39138 0.74276 0.0
C1824 C 0.91024 0.35845 0.73456 0.0
C1825 C 0.88094 0.33963 0.72677 0.0
C1826 C 0.8566 0.3475 0.72636 0.0
C1827 C 0.86138 0.37317 0.73454 0.0
C1828 C 0.93665 0.35073 0.73557 0.0
C1829 C 0.82515 0.32827 0.71797 0.0
C1830 C 0.87644 0.28014 0.69506 0.0
C1831 C 0.86277 0.25479 0.71016 0.0
C1832 C 0.8821 0.30787 0.70008 0.0
C1833 C 0.87479 0.31049 0.72085 0.0
C1834 C 0.86168 0.28513 0.73626 0.0
C1835 C 0.85562 0.25769 0.7307 0.0
C1836 C 0.89573 0.33432 0.68313 0.0
C1837 C 0.85387 0.2869 0.75867 0.0
H1838 H 0.9368 0.39861 0.74838 0.0
H1839 H 0.84242 0.37864 0.73505 0.0
H1840 H 0.92917 0.33001 0.74657 0.0
H1841 H 0.94206 0.34664 0.7199 0.0
H1842 H 0.95853 0.36849 0.74097 0.0
H1843 H 0.80996 0.33897 0.71675 0.0
H1844 H 0.82862 0.32309 0.70221 0.0
H1845 H 0.81251 0.30693 0.72853 0.0
H1846 H 0.8829 0.27845 0.67936 0.0
H1847 H 0.84492 0.23837 0.74258 0.0
H1848 H 0.91898 0.35136 0.68742 0.0
H1849 H 0.88008 0.34451 0.68174 0.0
H1850 H 0.89879 0.32837 0.66756 0.0
H1851 H 0.87521 0.30342 0.76541 0.0
H1852 H 0.84465 0.26527 0.76892 0.0
H1853 H 0.83592 0.29439 0.75902 0.0
C1854 C 0.15221 0.98383 0.64894 0.0
C1855 C 0.16165 0.96508 0.64097 0.0
C1856 C 0.17454 0.01089 0.65518 0.0
C1857 C 0.20708 0.01918 0.65367 0.0
C1858 C 0.21659 1.00001 0.64586 0.0
C1859 C 0.19377 0.97327 0.63953 0.0
C1860 C 0.16335 0.03071 0.66324 0.0
C1861 C 0.2509 1.00776 0.64418 0.0
C1862 C 0.26799 0.10072 0.65271 0.0
C1863 C 0.2757 0.10182 0.67378 0.0
C1864 C 0.24575 0.07405 0.64593 0.0
C1865 C 0.23111 0.0477 0.66051 0.0
C1866 C 0.23938 0.04862 0.68169 0.0
C1867 C 0.26149 0.07562 0.68804 0.0
C1868 C 0.23738 0.07423 0.62328 0.0
C1869 C 0.22464 0.02111 0.69773 0.0
H1870 H 0.12735 0.97746 0.64989 0.0
H1871 H 0.20093 0.95858 0.63351 0.0
H1872 H 0.17036 0.03431 0.67954 0.0
H1873 H 0.17473 0.05273 0.65342 0.0
H1874 H 0.13734 0.0213 0.66315 0.0
H1875 H 0.25441 0.99043 0.6379 0.0
H1876 H 0.26467 0.02903 0.63373 0.0
H1877 H 0.26066 0.01081 0.65989 0.0
H1878 H 0.2786 0.12093 0.64162 0.0
H1879 H 0.26775 0.07617 0.70423 0.0
H1880 H 0.21201 0.06777 0.62252 0.0
H1881 H 0.2412 0.05773 0.61602 0.0
H1882 H 0.2515 0.09632 0.61379 0.0
H1883 H 0.19868 0.01203 0.69916 0.0
H1884 H 0.23385 0.02546 0.71352 0.0
H1885 H 0.22922 1.0038 0.69251 0.0
C1886 C 0.02748 0.14991 0.66477 0.0
C1887 C 0.02048 0.13906 0.64538 0.0
C1888 C 0.00427 0.15029 0.67755 0.0
C1889 C 0.97424 0.14208 0.66983 0.0
C1890 C 0.96683 0.13036 0.65045 0.0
C1891 C 0.98978 0.12783 0.63895 0.0
C1892 C 0.01281 0.16086 0.69872 0.0
C1893 C 0.93557 0.12244 0.641 0.0
C1894 C 0.89844 0.13241 0.69314 0.0
C1895 C 0.90215 0.16079 0.6874 0.0
C1896 C 0.92381 0.12696 0.69061 0.0
C1897 C 0.95217 0.14969 0.67997 0.0
C1898 C 0.95655 0.17885 0.6753 0.0
C1899 C 0.93149 0.18411 0.67952 0.0
C1900 C 0.91937 0.09642 0.69789 0.0
C1901 C 0.98639 0.20384 0.66387 0.0
H1902 H 0.05138 0.1589 0.66971 0.0
H1903 H 0.98432 0.11869 0.62425 0.0
H1904 H 0.02885 0.18512 0.69647 0.0
H1905 H 0.99189 0.15574 0.70901 0.0
H1906 H 0.02594 0.15044 0.70693 0.0
H1907 H 0.9358 0.11838 0.62441 0.0
H1908 H 0.9166 0.10208 0.65015 0.0
H1909 H 0.92943 0.14042 0.64147 0.0
H1910 H 0.8755 0.11419 0.69882 0.0
H1911 H 0.93382 0.20585 0.67464 0.0
H1912 H 0.94198 0.09738 0.70241 0.0
H1913 H 0.91047 0.08252 0.68508 0.0
H1914 H 0.90173 0.08533 0.71153 0.0
H1915 H 0.00652 0.20876 0.67387 0.0
H1916 H 0.98477 0.22448 0.65988 0.0
H1917 H 0.99167 0.1974 0.6491 0.0
C1918 C 0.82553 0.864 0.63512 0.0
C1919 C 0.79503 0.85997 0.63265 0.0
C1920 C 0.83073 0.83971 0.64051 0.0
C1921 C 0.80472 0.81067 0.64354 0.0
C1922 C 0.77403 0.80646 0.63983 0.0
C1923 C 0.76957 0.83123 0.63437 0.0
C1924 C 0.86386 0.84525 0.64412 0.0
C1925 C 0.74565 0.77595 0.64287 0.0
C1926 C 0.82187 0.74569 0.64889 0.0
C1927 C 0.82155 0.73951 0.67082 0.0
C1928 C 0.81595 0.76848 0.63969 0.0
C1929 C 0.80931 0.78527 0.65276 0.0
C1930 C 0.80808 0.77846 0.6749 0.0
C1931 C 0.81416 0.7557 0.68359 0.0
C1932 C 0.81761 0.77508 0.61603 0.0
C1933 C 0.80081 0.79555 0.68948 0.0
H1934 H 0.84515 0.88633 0.63357 0.0
H1935 H 0.746 0.82827 0.63256 0.0
H1936 H 0.86583 0.83974 0.66112 0.0
H1937 H 0.86941 0.83078 0.63555 0.0
H1938 H 0.88176 0.86869 0.63899 0.0
H1939 H 0.72415 0.77612 0.63696 0.0
H1940 H 0.75015 0.76053 0.6347 0.0
H1941 H 0.74104 0.76712 0.65987 0.0
H1942 H 0.82763 0.73328 0.63889 0.0
H1943 H 0.8128 0.75041 0.70045 0.0
H1944 H 0.83725 0.79767 0.61076 0.0
H1945 H 0.79554 0.77467 0.61085 0.0
H1946 H 0.82139 0.75903 0.6081 0.0
H1947 H 0.81922 0.81918 0.68687 0.0
H1948 H 0.7997 0.78684 0.70632 0.0
H1949 H 0.77793 0.79469 0.68603 0.0
C1950 C 0.04524 0.86452 0.65209 0.0
C1951 C 0.06844 0.86516 0.63851 0.0
C1952 C 0.01835 0.83788 0.66011 0.0
C1953 C 0.01202 0.81119 0.65243 0.0
C1954 C 0.03404 0.81211 0.63724 0.0
C1955 C 0.06256 0.83853 0.63143 0.0
C1956 C 0.99734 0.839 0.67702 0.0
C1957 C 0.02816 0.78558 0.62674 0.0
C1958 C 0.95838 0.73229 0.67977 0.0
C1959 C 0.92825 0.72878 0.67654 0.0
C1960 C 0.98563 0.75943 0.67314 0.0
C1961 C 0.98297 0.78257 0.66057 0.0
C1962 C 0.95231 0.77815 0.65606 0.0
C1963 C 0.92546 0.7519 0.66483 0.0
C1964 C 0.01699 0.76277 0.67978 0.0
C1965 C 0.94709 0.80046 0.64167 0.0
H1966 H 0.04839 0.88491 0.65701 0.0
H1967 H 0.08012 0.83786 0.62146 0.0
H1968 H 0.98202 0.84748 0.6696 0.0
H1969 H 0.98229 0.81714 0.68643 0.0
H1970 H 0.01177 0.8547 0.68792 0.0
H1971 H 0.03484 0.79247 0.60961 0.0
H1972 H 0.04357 0.77656 0.63314 0.0
H1973 H 0.00324 0.76779 0.62878 0.0
H1974 H 0.96066 0.71399 0.68804 0.0
H1975 H 0.90217 0.74882 0.66147 0.0
H1976 H 0.03474 0.78621 0.68037 0.0
H1977 H 0.02611 0.75354 0.66855 0.0
H1978 H 0.01427 0.75 0.69553 0.0
H1979 H 0.93952 0.81264 0.6513 0.0
H1980 H 0.92766 0.78897 0.63137 0.0
H1981 H 0.96839 0.81657 0.63151 0.0
C1982 C 0.15054 0.1865 0.62207 0.0
C1983 C 0.12569 0.15744 0.62354 0.0
C1984 C 0.18028 0.19233 0.62859 0.0
C1985 C 0.1841 0.16894 0.63946 0.0
C1986 C 0.15951 0.13934 0.64019 0.0
C1987 C 0.13143 0.13403 0.63084 0.0
C1988 C 0.2068 0.22387 0.6244 0.0
C1989 C 0.1616 0.1131 0.65146 0.0
C1990 C 0.26258 0.17631 0.65558 0.0
C1991 C 0.2688 0.19344 0.67201 0.0
C1992 C 0.23554 0.1686 0.64447 0.0
C1993 C 0.21264 0.1759 0.65127 0.0
C1994 C 0.21785 0.19139 0.66897 0.0
C1995 C 0.24679 0.2015 0.67827 0.0
C1996 C 0.23258 0.15332 0.62533 0.0
C1997 C 0.19343 0.19797 0.67801 0.0
H1998 H 0.14673 0.20503 0.61682 0.0
H1999 H 0.11297 0.11146 0.63077 0.0
H2000 H 0.2029 0.23756 0.63482 0.0
H2001 H 0.2304 0.22574 0.62666 0.0
H2002 H 0.20667 0.23346 0.60798 0.0
H2003 H 0.13822 0.09602 0.65897 0.0
H2004 H 0.16848 0.1027 0.63979 0.0
H2005 H 0.17887 0.11916 0.66377 0.0
H2006 H 0.27975 0.17018 0.65063 0.0
H2007 H 0.25217 0.21579 0.69027 0.0
H2008 H 0.2158 0.15524 0.61431 0.0
H2009 H 0.22471 0.12954 0.63051 0.0
H2010 H 0.25592 0.16263 0.6166 0.0
H2011 H 0.19764 0.2201 0.67072 0.0
H2012 H 0.1953 0.19867 0.69518 0.0
H2013 H 0.16904 0.18126 0.67528 0.0
C2014 C 0.81941 0.97104 0.65252 0.0
C2015 C 0.78949 0.94882 0.64864 0.0
C2016 C 0.82306 0.99625 0.66083 0.0
C2017 C 0.79607 0.99917 0.66532 0.0
C2018 C 0.76571 0.97625 0.66201 0.0
C2019 C 0.76282 0.95133 0.65371 0.0
C2020 C 0.85583 0.02022 0.6641 0.0
C2021 C 0.73639 0.97852 0.66656 0.0
C2022 C 0.80284 0.05692 0.69938 0.0
C2023 C 0.80683 0.08043 0.68417 0.0
C2024 C 0.79937 0.03033 0.69355 0.0
C2025 C 0.79969 0.02708 0.67196 0.0
C2026 C 0.80341 0.0506 0.65654 0.0
C2027 C 0.80706 0.07694 0.66281 0.0
C2028 C 0.79565 1.00581 0.71046 0.0
C2029 C 0.80402 0.04812 0.63333 0.0
H2030 H 0.83997 0.96903 0.64842 0.0
H2031 H 0.73973 0.93391 0.65082 0.0
H2032 H 0.86155 0.04066 0.65321 0.0
H2033 H 0.85703 0.0258 0.68035 0.0
H2034 H 0.87409 0.01361 0.66131 0.0
H2035 H 0.71447 0.95802 0.66435 0.0
H2036 H 0.73552 0.98305 0.68294 0.0
H2037 H 0.73695 0.99733 0.65596 0.0
H2038 H 0.80254 0.05927 0.71586 0.0
H2039 H 0.81094 0.09512 0.65082 0.0
H2040 H 0.81481 1.00023 0.70823 0.0
H2041 H 0.77299 0.98554 0.70926 0.0
H2042 H 0.79618 0.01193 0.72652 0.0
H2043 H 0.82399 0.04453 0.62896 0.0
H2044 H 0.8065 0.06823 0.62334 0.0
H2045 H 0.78202 0.02873 0.62974 0.0
C2046 C 0.52534 0.38249 0.73833 0.0
C2047 C 0.51751 0.40185 0.74702 0.0
C2048 C 0.50185 0.35618 0.73183 0.0
C2049 C 0.46972 0.34914 0.734 0.0
C2050 C 0.4618 0.36887 0.74258 0.0
C2051 C 0.48579 0.39497 0.74896 0.0
C2052 C 0.51137 0.33583 0.72276 0.0
C2053 C 0.42795 0.36238 0.74507 0.0
C2054 C 0.4116 0.29554 0.69957 0.0
C2055 C 0.39707 0.26888 0.71335 0.0
C2056 C 0.43523 0.3217 0.70605 0.0
C2057 C 0.44446 0.32141 0.72698 0.0
C2058 C 0.42947 0.29465 0.74113 0.0
C2059 C 0.40593 0.26874 0.73417 0.0
C2060 C 0.45046 0.34962 0.6904 0.0
C2061 C 0.43864 0.29328 0.76355 0.0
H2062 H 0.54987 0.38777 0.737 0.0
H2063 H 0.47984 0.41013 0.7555 0.0
H2064 H 0.49964 0.31361 0.7323 0.0
H2065 H 0.50346 0.33292 0.70657 0.0
H2066 H 0.53729 0.3444 0.72222 0.0
H2067 H 0.42569 0.37986 0.75212 0.0
H2068 H 0.41764 0.36038 0.72952 0.0
H2069 H 0.41378 0.34088 0.7552 0.0
H2070 H 0.40431 0.29606 0.68369 0.0
H2071 H 0.39504 0.2482 0.7449 0.0
H2072 H 0.47623 0.35777 0.68847 0.0
H2073 H 0.44716 0.36725 0.69632 0.0
H2074 H 0.44059 0.34615 0.67472 0.0
H2075 H 0.46391 0.29915 0.76373 0.0
H2076 H 0.42436 0.27096 0.7727 0.0
H2077 H 0.4357 0.30968 0.77156 0.0
C2078 C 0.63377 0.14385 0.75819 0.0
C2079 C 0.62415 0.16288 0.74718 0.0
C2080 C 0.66014 0.14229 0.75072 0.0
C2081 C 0.67613 0.15896 0.73124 0.0
C2082 C 0.66639 0.17801 0.72003 0.0
C2083 C 0.64123 0.18036 0.72846 0.0
C2084 C 0.6711 0.1231 0.76379 0.0
C2085 C 0.68161 0.19516 0.69877 0.0
C2086 C 0.76028 0.17618 0.71959 0.0
C2087 C 0.75578 0.15181 0.70992 0.0
C2088 C 0.7345 0.17872 0.72671 0.0
C2089 C 0.70366 0.1572 0.72296 0.0
C2090 C 0.6992 0.13358 0.71192 0.0
C2091 C 0.72536 0.13046 0.70633 0.0
C2092 C 0.74022 0.20362 0.7391 0.0
C2093 C 0.66688 0.11155 0.70623 0.0
H2094 H 0.62084 0.12998 0.77251 0.0
H2095 H 0.63474 0.19594 0.72023 0.0
H2096 H 0.66802 0.10452 0.75541 0.0
H2097 H 0.69661 0.13618 0.76622 0.0
H2098 H 0.65789 0.11375 0.77942 0.0
H2099 H 0.67525 0.21285 0.694 0.0
H2100 H 0.70766 0.20539 0.69844 0.0
H2101 H 0.6733 0.17959 0.68694 0.0
H2102 H 0.7839 0.1922 0.72289 0.0
H2103 H 0.72212 0.11139 0.69918 0.0
H2104 H 0.72728 0.19436 0.75479 0.0
H2105 H 0.73112 0.21782 0.73094 0.0
H2106 H 0.76566 0.21776 0.74134 0.0
H2107 H 0.65193 0.09823 0.72069 0.0
H2108 H 0.66792 0.09625 0.69593 0.0
H2109 H 0.6552 0.12341 0.698 0.0
C2110 C 0.91495 0.50956 0.73893 0.0
C2111 C 0.89506 0.48656 0.75444 0.0
C2112 C 0.91088 0.53452 0.73361 0.0
C2113 C 0.88663 0.53669 0.74438 0.0
C2114 C 0.86787 0.51433 0.76108 0.0
C2115 C 0.87231 0.48944 0.76589 0.0
C2116 C 0.93138 0.55774 0.71571 0.0
C2117 C 0.84207 0.51593 0.77313 0.0
C2118 C 0.8873 0.61107 0.73605 0.0
C2119 C 0.86582 0.60661 0.72037 0.0
C2120 C 0.89391 0.58837 0.74437 0.0
C2121 C 0.87891 0.56067 0.73671 0.0
C2122 C 0.85687 0.55594 0.72114 0.0
C2123 C 0.85039 0.57877 0.71337 0.0
C2124 C 0.91719 0.59412 0.76118 0.0
C2125 C 0.84045 0.52686 0.71237 0.0
H2126 H 0.9329 0.50734 0.73043 0.0
H2127 H 0.85721 0.47163 0.77801 0.0
H2128 H 0.91674 0.55749 0.70234 0.0
H2129 H 0.94182 0.58012 0.72061 0.0
H2130 H 0.95074 0.554 0.71011 0.0
H2131 H 0.83217 0.49872 0.78715 0.0
H2132 H 0.85111 0.53804 0.77831 0.0
H2133 H 0.82271 0.51283 0.76272 0.0
H2134 H 0.89917 0.63235 0.74173 0.0
H2135 H 0.83318 0.57471 0.70168 0.0
H2136 H 0.93783 0.59258 0.75525 0.0
H2137 H 0.90622 0.577 0.77514 0.0
H2138 H 0.92568 0.6163 0.76619 0.0
H2139 H 0.85818 0.52271 0.70462 0.0
H2140 H 0.82333 0.52649 0.70072 0.0
H2141 H 0.82771 0.50837 0.72529 0.0
C2142 C 0.45596 0.8979 0.25839 0.0
C2143 C 0.44624 0.86763 0.25993 0.0
C2144 C 0.47346 0.91736 0.24053 0.0
C2145 C 0.48113 0.90613 0.22369 0.0
C2146 C 0.4728 0.87573 0.22566 0.0
C2147 C 0.45543 0.85675 0.24391 0.0
C2148 C 0.48211 0.94962 0.23922 0.0
C2149 C 0.48062 0.86299 0.20805 0.0
C2150 C 0.48675 0.95022 0.17095 0.0
C2151 C 0.51941 0.96874 0.16731 0.0
C2152 C 0.47415 0.92872 0.18873 0.0
C2153 C 0.49467 0.92574 0.20337 0.0
C2154 C 0.52771 0.94366 0.19949 0.0
C2155 C 0.53971 0.965 0.18149 0.0
C2156 C 0.43875 0.91008 0.19231 0.0
C2157 C 0.55028 0.94103 0.21473 0.0
H2158 H 0.44887 0.90604 0.27104 0.0
H2159 H 0.44775 0.83325 0.24531 0.0
H2160 H 0.50752 0.96396 0.23439 0.0
H2161 H 0.46855 0.9549 0.2271 0.0
H2162 H 0.47702 0.95522 0.25443 0.0
H2163 H 0.47631 0.84006 0.21309 0.0
H2164 H 0.46584 0.86261 0.19475 0.0
H2165 H 0.50564 0.87703 0.20209 0.0
H2166 H 0.47088 0.95319 0.16023 0.0
H2167 H 0.56499 0.97892 0.1786 0.0
H2168 H 0.4305 0.91585 0.20629 0.0
H2169 H 0.43198 0.88626 0.19556 0.0
H2170 H 0.42622 0.91338 0.1786 0.0
H2171 H 0.54765 0.94865 0.22967 0.0
H2172 H 0.57525 0.9544 0.20843 0.0
H2173 H 0.54472 0.91756 0.21856 0.0
C2174 C 0.10049 0.53335 0.2463 0.0
C2175 C 0.0858 0.54458 0.2585 0.0
C2176 C 0.08594 0.51873 0.22905 0.0
C2177 C 0.05658 0.51642 0.22331 0.0
C2178 C 0.04158 0.52755 0.23573 0.0
C2179 C 0.05591 0.54062 0.25347 0.0
C2180 C 0.10216 0.50608 0.21685 0.0
C2181 C 0.01083 0.52648 0.22993 0.0
C2182 C 0.03458 0.50462 0.16665 0.0
C2183 C 0.01148 0.47456 0.16901 0.0
C2184 C 0.04903 0.51864 0.18416 0.0
C2185 C 0.04126 0.50207 0.20453 0.0
C2186 C 0.01819 0.47183 0.20707 0.0
C2187 C 0.00306 0.45877 0.1895 0.0
C2188 C 0.07264 0.55125 0.18083 0.0
C2189 C 0.00971 0.45304 0.22836 0.0
H2190 H 0.12374 0.53666 0.24986 0.0
H2191 H 0.04408 0.54858 0.26316 0.0
H2192 H 0.08553 0.48266 0.2152 0.0
H2193 H 0.10979 0.51853 0.20077 0.0
H2194 H 0.12318 0.50711 0.22453 0.0
H2195 H 0.00309 0.53751 0.24059 0.0
H2196 H 0.01334 0.53748 0.21357 0.0
H2197 H 0.99201 0.50319 0.2305 0.0
H2198 H 0.04189 0.51727 0.15111 0.0
H2199 H 0.98458 0.43593 0.19198 0.0
H2200 H 0.09625 0.55455 0.185 0.0
H2201 H 0.06583 0.5631 0.19131 0.0
H2202 H 0.07453 0.56149 0.16429 0.0
H2203 H 0.99312 0.42934 0.22745 0.0
H2204 H 0.99867 0.46119 0.23915 0.0
H2205 H 0.03135 0.45474 0.23546 0.0
C2206 C 0.42171 0.55205 0.24773 0.0
C2207 C 0.43897 0.55118 0.26505 0.0
C2208 C 0.42326 0.53968 0.22969 0.0
C2209 C 0.4436 0.52722 0.22865 0.0
C2210 C 0.46073 0.52594 0.24633 0.0
C2211 C 0.45805 0.5378 0.26434 0.0
C2212 C 0.4041 0.54105 0.21144 0.0
C2213 C 0.48311 0.51338 0.24584 0.0
C2214 C 0.43713 0.47637 0.18856 0.0
C2215 C 0.46111 0.49579 0.17326 0.0
C2216 C 0.4302 0.48653 0.20617 0.0
C2217 C 0.4482 0.51674 0.20885 0.0
C2218 C 0.47186 0.53661 0.19309 0.0
C2219 C 0.4778 0.52594 0.17538 0.0
C2220 C 0.40423 0.46475 0.22223 0.0
C2221 C 0.49188 0.56892 0.19541 0.0
H2222 H 0.40797 0.56348 0.24802 0.0
H2223 H 0.47212 0.53809 0.27753 0.0
H2224 H 0.42006 0.55687 0.19807 0.0
H2225 H 0.39121 0.51906 0.20595 0.0
H2226 H 0.3868 0.54823 0.21564 0.0
H2227 H 0.4939 0.51313 0.2611 0.0
H2228 H 0.47057 0.49044 0.24192 0.0
H2229 H 0.50227 0.52679 0.23337 0.0
H2230 H 0.42406 0.45306 0.18689 0.0
H2231 H 0.49651 0.54094 0.16365 0.0
H2232 H 0.38782 0.47329 0.22557 0.0
H2233 H 0.4145 0.46193 0.23722 0.0
H2234 H 0.39053 0.4427 0.21691 0.0
H2235 H 0.47669 0.57901 0.19795 0.0
H2236 H 0.50837 0.58171 0.1814 0.0
H2237 H 0.50585 0.57101 0.20943 0.0
C2238 C 0.94231 0.48956 0.79269 0.0
C2239 C 0.91409 0.46287 0.7939 0.0
C2240 C 0.95561 0.50147 0.81103 0.0
C2241 C 0.94046 0.48599 0.83099 0.0
C2242 C 0.91075 0.46009 0.83211 0.0
C2243 C 0.89772 0.44909 0.81348 0.0
C2244 C 0.98688 0.52956 0.80907 0.0
C2245 C 0.89384 0.44273 0.85298 0.0
C2246 C 0.99598 0.49315 0.87443 0.0
C2247 C 0.99276 0.51284 0.88606 0.0
C2248 C 0.97842 0.4837 0.85687 0.0
C2249 C 0.95755 0.49469 0.85046 0.0
C2250 C 0.95383 0.51428 0.86236 0.0
C2251 C 0.97129 0.52291 0.88019 0.0
C2252 C 0.98259 0.46223 0.84498 0.0
C2253 C 0.93219 0.52681 0.85588 0.0
H2254 H 0.95471 0.50025 0.77745 0.0
H2255 H 0.87552 0.42874 0.81421 0.0
H2256 H 0.98634 0.54492 0.81948 0.0
H2257 H 0.00569 0.5242 0.81413 0.0
H2258 H 0.99323 0.54107 0.79265 0.0
H2259 H 0.86939 0.42526 0.85117 0.0
H2260 H 0.90701 0.43199 0.86064 0.0
H2261 H 0.89295 0.4576 0.86368 0.0
H2262 H 0.01241 0.48519 0.8791 0.0
H2263 H 0.96897 0.53829 0.88914 0.0
H2264 H 0.99273 0.47296 0.82878 0.0
H2265 H 0.95936 0.44265 0.84363 0.0
H2266 H 0.99835 0.4545 0.85271 0.0
H2267 H 0.94094 0.54076 0.84033 0.0
H2268 H 0.93061 0.54047 0.8674 0.0
H2269 H 0.90814 0.50869 0.8541 0.0
C2270 C 0.55965 0.49275 0.79674 0.0
C2271 C 0.57595 0.47725 0.7934 0.0
C2272 C 0.55832 0.50161 0.81641 0.0
C2273 C 0.57297 0.49405 0.83339 0.0
C2274 C 0.59039 0.47921 0.82987 0.0
C2275 C 0.59171 0.47105 0.80987 0.0
C2276 C 0.53994 0.51777 0.81925 0.0
C2277 C 0.60611 0.47044 0.84752 0.0
C2278 C 0.58847 0.53195 0.88273 0.0
C2279 C 0.56328 0.51104 0.89676 0.0
C2280 C 0.59142 0.52712 0.86193 0.0
C2281 C 0.56892 0.50047 0.855 0.0
C2282 C 0.54291 0.47963 0.86894 0.0
C2283 C 0.54028 0.48527 0.8896 0.0
C2284 C 0.61911 0.5502 0.84755 0.0
C2285 C 0.51848 0.45084 0.86226 0.0
H2286 H 0.54674 0.49671 0.78408 0.0
H2287 H 0.60338 0.45819 0.8074 0.0
H2288 H 0.51843 0.50322 0.82972 0.0
H2289 H 0.55421 0.53775 0.8269 0.0
H2290 H 0.5327 0.52459 0.80406 0.0
H2291 H 0.62014 0.46047 0.84199 0.0
H2292 H 0.62188 0.49 0.85513 0.0
H2293 H 0.58791 0.45415 0.85972 0.0
H2294 H 0.60629 0.55194 0.8882 0.0
H2295 H 0.52102 0.46892 0.90047 0.0
H2296 H 0.61074 0.55636 0.83264 0.0
H2297 H 0.63458 0.541 0.84343 0.0
H2298 H 0.63338 0.57054 0.85486 0.0
H2299 H 0.50789 0.45526 0.84786 0.0
H2300 H 0.49931 0.4373 0.87472 0.0
H2301 H 0.52988 0.43771 0.85834 0.0
C2302 C 0.56705 0.12224 0.79475 0.0
C2303 C 0.59173 0.15138 0.79243 0.0
C2304 C 0.56085 0.10333 0.81359 0.0
C2305 C 0.58007 0.11382 0.83054 0.0
C2306 C 0.60612 0.1429 0.82793 0.0
C2307 C 0.61147 0.1616 0.80884 0.0
C2308 C 0.53262 0.07269 0.81569 0.0
C2309 C 0.62746 0.15458 0.84552 0.0
C2310 C 0.53516 0.07453 0.88291 0.0
C2311 C 0.54251 0.05142 0.88673 0.0
C2312 C 0.54881 0.09618 0.86527 0.0
C2313 C 0.5707 0.09491 0.85132 0.0
C2314 C 0.57966 0.07266 0.85584 0.0
C2315 C 0.56514 0.05091 0.8734 0.0
C2316 C 0.5382 0.11924 0.86085 0.0
C2317 C 0.60344 0.071 0.84159 0.0
H2318 H 0.55177 0.11479 0.78193 0.0
H2319 H 0.63037 0.18429 0.80688 0.0
H2320 H 0.5398 0.05573 0.82091 0.0
H2321 H 0.51508 0.07068 0.82782 0.0
H2322 H 0.52094 0.06763 0.80068 0.0
H2323 H 0.64909 0.17577 0.84003 0.0
H2324 H 0.61465 0.15836 0.85811 0.0
H2325 H 0.63446 0.13814 0.85259 0.0
H2326 H 0.51762 0.07489 0.89322 0.0
H2327 H 0.5712 0.03329 0.87658 0.0
H2328 H 0.52438 0.11521 0.84666 0.0
H2329 H 0.55887 0.1417 0.85752 0.0
H2330 H 0.52329 0.11886 0.87418 0.0
H2331 H 0.59272 0.06336 0.82672 0.0
H2332 H 0.61147 0.05546 0.84895 0.0
H2333 H 0.62428 0.09322 0.83743 0.0
C2334 C 0.11148 0.21783 0.58902 0.0
C2335 C 0.10442 0.18832 0.58923 0.0
C2336 C 0.12787 0.23909 0.57165 0.0
C2337 C 0.13739 0.23055 0.55402 0.0
C2338 C 0.13173 0.20101 0.55461 0.0
C2339 C 0.11531 0.18016 0.57235 0.0
C2340 C 0.13368 0.27036 0.57181 0.0
C2341 C 0.14166 0.19115 0.53615 0.0
C2342 C 0.14186 0.27745 0.50284 0.0
C2343 C 0.17422 0.29767 0.4999 0.0
C2344 C 0.12983 0.25464 0.51987 0.0
C2345 C 0.1506 0.25205 0.53445 0.0
C2346 C 0.1834 0.27181 0.53129 0.0
C2347 C 0.19483 0.29441 0.51403 0.0
C2348 C 0.09466 0.23405 0.52271 0.0
C2349 C 0.20625 0.26967 0.5465 0.0
H2350 H 0.10339 0.22396 0.60239 0.0
H2351 H 0.10991 0.15729 0.57277 0.0
H2352 H 0.15894 0.28641 0.56766 0.0
H2353 H 0.11981 0.27539 0.5598 0.0
H2354 H 0.12694 0.27385 0.58736 0.0
H2355 H 0.13872 0.16849 0.53998 0.0
H2356 H 0.12722 0.1913 0.52276 0.0
H2357 H 0.16668 0.2067 0.53086 0.0
H2358 H 0.1257 0.27999 0.49217 0.0
H2359 H 0.21993 0.30966 0.51167 0.0
H2360 H 0.08496 0.23767 0.53708 0.0
H2361 H 0.08962 0.21065 0.52488 0.0
H2362 H 0.08206 0.23751 0.5091 0.0
H2363 H 0.20192 0.27516 0.56194 0.0
H2364 H 0.23121 0.28493 0.54081 0.0
H2365 H 0.20259 0.2467 0.54918 0.0
C2366 C 0.73162 0.86587 0.59267 0.0
C2367 C 0.76336 0.87793 0.59719 0.0
C2368 C 0.7219 0.85678 0.57298 0.0
C2369 C 0.74463 0.86028 0.5574 0.0
C2370 C 0.77664 0.87159 0.56222 0.0
C2371 C 0.78557 0.88012 0.58217 0.0
C2372 C 0.6875 0.8443 0.56866 0.0
C2373 C 0.80164 0.87584 0.54604 0.0
C2374 C 0.72014 0.8181 0.51033 0.0
C2375 C 0.72085 0.83962 0.49453 0.0
C2376 C 0.72694 0.82425 0.53098 0.0
C2377 C 0.73514 0.85278 0.5359 0.0
C2378 C 0.73518 0.87442 0.5201 0.0
C2379 C 0.72777 0.86748 0.4996 0.0
C2380 C 0.72601 0.8004 0.54743 0.0
C2381 C 0.74409 0.90519 0.52469 0.0
H2382 H 0.71464 0.86438 0.60443 0.0
H2383 H 0.81015 0.88986 0.58575 0.0
H2384 H 0.68458 0.85952 0.55627 0.0
H2385 H 0.6788 0.82273 0.56267 0.0
H2386 H 0.67255 0.84109 0.58291 0.0
H2387 H 0.82524 0.88403 0.55249 0.0
H2388 H 0.7952 0.85466 0.54001 0.0
H2389 H 0.80322 0.89197 0.53244 0.0
H2390 H 0.71457 0.79646 0.50641 0.0
H2391 H 0.72858 0.88418 0.48733 0.0
H2392 H 0.71054 0.79726 0.56134 0.0
H2393 H 0.74999 0.80721 0.55288 0.0
H2394 H 0.71732 0.77885 0.54137 0.0
H2395 H 0.7287 0.90403 0.53799 0.0
H2396 H 0.74216 0.91919 0.51086 0.0
H2397 H 0.76871 0.91614 0.52948 0.0
C2398 C 0.13285 0.87875 0.59151 0.0
C2399 C 0.10948 0.88612 0.59625 0.0
C2400 C 0.13289 0.86666 0.57313 0.0
C2401 C 0.10884 0.8617 0.55904 0.0
C2402 C 0.08442 0.86814 0.56415 0.0
C2403 C 0.08512 0.88045 0.58273 0.0
C2404 C 0.15933 0.86008 0.56849 0.0
C2405 C 0.05822 0.86294 0.54969 0.0
C2406 C 0.13405 0.85972 0.50326 0.0
C2407 C 0.12291 0.82932 0.50328 0.0
C2408 C 0.128 0.87052 0.52086 0.0
C2409 C 0.11015 0.85044 0.53886 0.0
C2410 C 0.09707 0.81963 0.53835 0.0
C2411 C 0.1037 0.80947 0.52064 0.0
C2412 C 0.14244 0.90355 0.52071 0.0
C2413 C 0.07762 0.7974 0.55701 0.0
H2414 H 0.1517 0.8834 0.60203 0.0
H2415 H 0.0673 0.8865 0.58641 0.0
H2416 H 0.14954 0.83656 0.5661 0.0
H2417 H 0.17301 0.87387 0.55372 0.0
H2418 H 0.17574 0.8645 0.58134 0.0
H2419 H 0.03967 0.86668 0.55672 0.0
H2420 H 0.06804 0.8781 0.53469 0.0
H2421 H 0.04718 0.83998 0.54578 0.0
H2422 H 0.14898 0.8752 0.48996 0.0
H2423 H 0.09456 0.7859 0.52062 0.0
H2424 H 0.16155 0.91095 0.53177 0.0
H2425 H 0.12457 0.9093 0.52616 0.0
H2426 H 0.15253 0.916 0.50483 0.0
H2427 H 0.09312 0.79856 0.57001 0.0
H2428 H 0.06566 0.77439 0.55314 0.0
H2429 H 0.05952 0.80259 0.5629 0.0
C2430 C 0.55696 0.80575 0.14186 0.0
C2431 C 0.57425 0.79912 0.128 0.0
C2432 C 0.57071 0.81989 0.15939 0.0
C2433 C 0.60228 0.827 0.16319 0.0
C2434 C 0.62007 0.82119 0.14873 0.0
C2435 C 0.60584 0.80748 0.13124 0.0
C2436 C 0.55109 0.82603 0.17427 0.0
C2437 C 0.65372 0.82829 0.15219 0.0
C2438 C 0.65193 0.88086 0.20021 0.0
C2439 C 0.65065 0.86152 0.21792 0.0
C2440 C 0.6349 0.87 0.18268 0.0
C2441 C 0.61647 0.83907 0.18276 0.0
C2442 C 0.61403 0.8195 0.20096 0.0
C2443 C 0.63104 0.83099 0.21837 0.0
C2444 C 0.63764 0.89159 0.16375 0.0
C2445 C 0.59477 0.78635 0.20164 0.0
H2446 H 0.53234 0.79868 0.1395 0.0
H2447 H 0.619 0.80222 0.12041 0.0
H2448 H 0.54581 0.81119 0.18938 0.0
H2449 H 0.5643 0.84914 0.1778 0.0
H2450 H 0.52842 0.82246 0.16778 0.0
H2451 H 0.66461 0.82338 0.13903 0.0
H2452 H 0.66824 0.85201 0.15398 0.0
H2453 H 0.65442 0.81514 0.16695 0.0
H2454 H 0.66673 0.90452 0.19995 0.0
H2455 H 0.63011 0.81597 0.23198 0.0
H2456 H 0.61391 0.88644 0.1585 0.0
H2457 H 0.65091 0.88953 0.15051 0.0
H2458 H 0.65002 0.91489 0.16703 0.0
H2459 H 0.57049 0.78018 0.19707 0.0
H2460 H 0.59333 0.7743 0.21748 0.0
H2461 H 0.60552 0.77882 0.19013 0.0
C2462 C 0.22769 0.83185 0.12546 0.0
C2463 C 0.23974 0.81233 0.12416 0.0
C2464 C 0.22553 0.84142 0.14475 0.0
C2465 C 0.23557 0.83108 0.16313 0.0
C2466 C 0.24896 0.81226 0.16157 0.0
C2467 C 0.25066 0.80299 0.14214 0.0
C2468 C 0.21109 0.86141 0.14566 0.0
C2469 C 0.2602 0.80081 0.18063 0.0
C2470 C 0.25335 0.86919 0.21233 0.0
C2471 C 0.22676 0.84997 0.22595 0.0
C2472 C 0.25593 0.86404 0.19159 0.0
C2473 C 0.23134 0.83902 0.18414 0.0
C2474 C 0.2037 0.82035 0.19746 0.0
C2475 C 0.2017 0.8261 0.21818 0.0
C2476 C 0.28567 0.88464 0.17796 0.0
C2477 C 0.17688 0.79345 0.19016 0.0
H2478 H 0.21845 0.83829 0.11161 0.0
H2479 H 0.25918 0.78728 0.14109 0.0
H2480 H 0.18823 0.84922 0.15514 0.0
H2481 H 0.22661 0.8808 0.15352 0.0
H2482 H 0.20689 0.86945 0.12976 0.0
H2483 H 0.27158 0.78771 0.17655 0.0
H2484 H 0.27731 0.81952 0.18847 0.0
H2485 H 0.23992 0.78657 0.19217 0.0
H2486 H 0.27266 0.88791 0.21814 0.0
H2487 H 0.18121 0.81106 0.22863 0.0
H2488 H 0.27978 0.89208 0.16248 0.0
H2489 H 0.29881 0.8727 0.17496 0.0
H2490 H 0.30142 0.90445 0.1854 0.0
H2491 H 0.16956 0.79967 0.17482 0.0
H2492 H 0.15605 0.78259 0.20167 0.0
H2493 H 0.18482 0.77714 0.18775 0.0
C2494 C 0.23701 0.4649 0.13036 0.0
C2495 C 0.26108 0.49397 0.13057 0.0
C2496 C 0.23054 0.44302 0.14747 0.0
C2497 C 0.24884 0.45041 0.16518 0.0
C2498 C 0.2749 0.47923 0.16472 0.0
C2499 C 0.28068 0.50083 0.14733 0.0
C2500 C 0.20257 0.41265 0.14721 0.0
C2501 C 0.29534 0.48776 0.18312 0.0
C2502 C 0.20186 0.40702 0.2163 0.0
C2503 C 0.20958 0.38411 0.21956 0.0
C2504 C 0.21557 0.42944 0.19912 0.0
C2505 C 0.23781 0.42912 0.18493 0.0
C2506 C 0.24664 0.40668 0.18858 0.0
C2507 C 0.23218 0.38423 0.20579 0.0
C2508 C 0.20519 0.45276 0.19567 0.0
C2509 C 0.27065 0.40593 0.17399 0.0
H2510 H 0.22225 0.45983 0.11712 0.0
H2511 H 0.29937 0.52338 0.14726 0.0
H2512 H 0.20928 0.3952 0.15181 0.0
H2513 H 0.18372 0.40922 0.15884 0.0
H2514 H 0.19273 0.40974 0.1315 0.0
H2515 H 0.31758 0.5089 0.17889 0.0
H2516 H 0.28225 0.49043 0.19615 0.0
H2517 H 0.30126 0.47013 0.18908 0.0
H2518 H 0.18425 0.40687 0.22686 0.0
H2519 H 0.23853 0.36676 0.20847 0.0
H2520 H 0.1929 0.45072 0.18086 0.0
H2521 H 0.22599 0.47521 0.19397 0.0
H2522 H 0.189 0.45081 0.20878 0.0
H2523 H 0.2607 0.40051 0.15855 0.0
H2524 H 0.27772 0.38923 0.18037 0.0
H2525 H 0.29202 0.428 0.17112 0.0
C2526 C 0.78877 0.52149 0.91242 0.0
C2527 C 0.77819 0.53172 0.92815 0.0
C2528 C 0.80549 0.54061 0.89405 0.0
C2529 C 0.8117 0.57045 0.8917 0.0
C2530 C 0.80242 0.58108 0.9082 0.0
C2531 C 0.78567 0.56151 0.92618 0.0
C2532 C 0.81507 0.52856 0.87679 0.0
C2533 C 0.80879 0.61275 0.90646 0.0
C2534 C 0.86899 0.6312 0.85001 0.0
C2535 C 0.84823 0.63364 0.83563 0.0
C2536 C 0.85767 0.6096 0.86788 0.0
C2537 C 0.82487 0.59004 0.87136 0.0
C2538 C 0.80398 0.5916 0.85646 0.0
C2539 C 0.81588 0.61346 0.83887 0.0
C2540 C 0.88061 0.60853 0.88345 0.0
C2541 C 0.76881 0.57114 0.85962 0.0
H2542 H 0.78292 0.49838 0.91421 0.0
H2543 H 0.77763 0.56916 0.93867 0.0
H2544 H 0.80039 0.5272 0.86325 0.0
H2545 H 0.84002 0.54361 0.87108 0.0
H2546 H 0.81208 0.50615 0.88208 0.0
H2547 H 0.80237 0.618 0.92141 0.0
H2548 H 0.83409 0.62825 0.90196 0.0
H2549 H 0.79495 0.6168 0.89394 0.0
H2550 H 0.89408 0.64637 0.84742 0.0
H2551 H 0.79959 0.61539 0.82802 0.0
H2552 H 0.87642 0.58551 0.88752 0.0
H2553 H 0.87692 0.61593 0.89822 0.0
H2554 H 0.90554 0.62291 0.87732 0.0
H2555 H 0.7637 0.54778 0.86316 0.0
H2556 H 0.7562 0.57327 0.8456 0.0
H2557 H 0.75916 0.57627 0.87328 0.0
C2558 C 0.45708 0.21603 0.9097 0.0
C2559 C 0.4371 0.21766 0.92461 0.0
C2560 C 0.44592 0.20528 0.89062 0.0
C2561 C 0.41405 0.19624 0.88633 0.0
C2562 C 0.39357 0.19711 0.9017 0.0
C2563 C 0.40538 0.20781 0.92066 0.0
C2564 C 0.46852 0.2046 0.87475 0.0
C2565 C 0.35948 0.18767 0.89783 0.0
C2566 C 0.39425 0.19739 0.82877 0.0
C2567 C 0.3822 0.16756 0.8261 0.0
C2568 C 0.40438 0.207 0.84834 0.0
C2569 C 0.40231 0.18629 0.86568 0.0
C2570 C 0.38946 0.15607 0.86318 0.0
C2571 C 0.37954 0.1471 0.8435 0.0
C2572 C 0.41787 0.23943 0.85038 0.0
C2573 C 0.3866 0.13323 0.88125 0.0
H2574 H 0.48178 0.2245 0.91255 0.0
H2575 H 0.39015 0.20946 0.93221 0.0
H2576 H 0.45882 0.18211 0.87013 0.0
H2577 H 0.47154 0.22003 0.86031 0.0
H2578 H 0.49207 0.21096 0.88091 0.0
H2579 H 0.34635 0.18846 0.91174 0.0
H2580 H 0.35814 0.20239 0.88428 0.0
H2581 H 0.34756 0.16482 0.89372 0.0
H2582 H 0.39656 0.21335 0.8154 0.0
H2583 H 0.3697 0.1239 0.84169 0.0
H2584 H 0.44277 0.24861 0.85452 0.0
H2585 H 0.40468 0.24223 0.86328 0.0
H2586 H 0.417 0.25256 0.83563 0.0
H2587 H 0.41031 0.13874 0.88671 0.0
H2588 H 0.37546 0.1105 0.87686 0.0
H2589 H 0.37236 0.13342 0.89473 0.0
C2590 C 0.77682 0.23194 0.91201 0.0
C2591 C 0.77829 0.21831 0.93189 0.0
C2592 C 0.77991 0.22118 0.89356 0.0
C2593 C 0.78393 0.19573 0.89503 0.0
C2594 C 0.78253 0.18036 0.9152 0.0
C2595 C 0.77997 0.19198 0.93341 0.0
C2596 C 0.78142 0.23847 0.87252 0.0
C2597 C 0.78595 0.15277 0.91755 0.0
C2598 C 0.78154 0.16051 0.84543 0.0
C2599 C 0.81378 0.1717 0.84021 0.0
C2600 C 0.77129 0.16806 0.8632 0.0
C2601 C 0.79384 0.18767 0.87578 0.0
C2602 C 0.82641 0.19975 0.87005 0.0
C2603 C 0.83592 0.19141 0.85252 0.0
C2604 C 0.73639 0.15441 0.86887 0.0
C2605 C 0.85134 0.22129 0.88262 0.0
H2606 H 0.77503 0.25207 0.91093 0.0
H2607 H 0.78115 0.1815 0.94879 0.0
H2608 H 0.806 0.24986 0.86545 0.0
H2609 H 0.76631 0.22346 0.86151 0.0
H2610 H 0.77397 0.25541 0.87396 0.0
H2611 H 0.7796 0.14104 0.93392 0.0
H2612 H 0.77084 0.13737 0.90673 0.0
H2613 H 0.81075 0.15882 0.91331 0.0
H2614 H 0.76439 0.14506 0.83604 0.0
H2615 H 0.86086 0.20021 0.84844 0.0
H2616 H 0.72989 0.17192 0.87042 0.0
H2617 H 0.73044 0.14028 0.88436 0.0
H2618 H 0.72187 0.14069 0.85699 0.0
H2619 H 0.84736 0.24045 0.88378 0.0
H2620 H 0.87558 0.2297 0.87554 0.0
H2621 H 0.84975 0.21037 0.89887 0.0
C2622 C 0.22711 0.14215 0.4742 0.0
C2623 C 0.2436 0.13517 0.45995 0.0
C2624 C 0.24169 0.15625 0.49159 0.0
C2625 C 0.27328 0.16296 0.49491 0.0
C2626 C 0.29024 0.15673 0.48011 0.0
C2627 C 0.27523 0.14311 0.46275 0.0
C2628 C 0.2229 0.16286 0.50682 0.0
C2629 C 0.32386 0.16331 0.48304 0.0
C2630 C 0.32437 0.21703 0.53156 0.0
C2631 C 0.3229 0.1978 0.54941 0.0
C2632 C 0.30718 0.20609 0.51407 0.0
C2633 C 0.28837 0.17515 0.51429 0.0
C2634 C 0.286 0.15569 0.53254 0.0
C2635 C 0.30314 0.16726 0.54991 0.0
C2636 C 0.30988 0.22761 0.4951 0.0
C2637 C 0.26641 0.12254 0.53339 0.0
H2638 H 0.20247 0.13542 0.47224 0.0
H2639 H 0.28782 0.13764 0.45163 0.0
H2640 H 0.21805 0.1482 0.52197 0.0
H2641 H 0.23658 0.18604 0.51014 0.0
H2642 H 0.20004 0.15944 0.50076 0.0
H2643 H 0.33404 0.15801 0.46972 0.0
H2644 H 0.33888 0.18703 0.48465 0.0
H2645 H 0.32478 0.15019 0.49775 0.0
H2646 H 0.33924 0.24069 0.53121 0.0
H2647 H 0.30205 0.15228 0.5636 0.0
H2648 H 0.28608 0.22294 0.49027 0.0
H2649 H 0.32226 0.22489 0.48167 0.0
H2650 H 0.32304 0.25099 0.49813 0.0
H2651 H 0.24198 0.11653 0.5293 0.0
H2652 H 0.26546 0.11054 0.54916 0.0
H2653 H 0.2765 0.11479 0.52161 0.0
C2654 C 0.87513 0.14621 0.46896 0.0
C2655 C 0.90202 0.1451 0.46205 0.0
C2656 C 0.8743 0.15804 0.48733 0.0
C2657 C 0.9018 0.17106 0.49857 0.0
C2658 C 0.92974 0.17156 0.49103 0.0
C2659 C 0.92926 0.15778 0.47319 0.0
C2660 C 0.84359 0.15583 0.495 0.0
C2661 C 0.96006 0.18654 0.50179 0.0
C2662 C 0.89892 0.2242 0.53359 0.0
C2663 C 0.89272 0.20821 0.55402 0.0
C2664 C 0.90414 0.21325 0.51582 0.0
C2665 C 0.90097 0.18452 0.51788 0.0
C2666 C 0.89403 0.1678 0.53816 0.0
C2667 C 0.89087 0.18006 0.55593 0.0
C2668 C 0.9126 0.23243 0.49468 0.0
C2669 C 0.88907 0.13654 0.54106 0.0
H2670 H 0.85416 0.13671 0.46023 0.0
H2671 H 0.95002 0.15682 0.468 0.0
H2672 H 0.83749 0.14531 0.51165 0.0
H2673 H 0.846 0.17824 0.49434 0.0
H2674 H 0.82373 0.14272 0.48548 0.0
H2675 H 0.98052 0.18867 0.49238 0.0
H2676 H 0.96482 0.20893 0.50464 0.0
H2677 H 0.95797 0.17356 0.51731 0.0
H2678 H 0.89937 0.24536 0.53112 0.0
H2679 H 0.88687 0.16727 0.57128 0.0
H2680 H 0.89211 0.22385 0.48479 0.0
H2681 H 0.93234 0.23191 0.48624 0.0
H2682 H 0.91953 0.25581 0.49619 0.0
H2683 H 0.86998 0.12283 0.53128 0.0
H2684 H 0.88272 0.126 0.55771 0.0
H2685 H 0.9108 0.13646 0.53568 0.0
C2686 C 0.90067 0.79029 0.46488 0.0
C2687 C 0.92298 0.82021 0.46404 0.0
C2688 C 0.89716 0.76976 0.48228 0.0
C2689 C 0.91676 0.77942 0.49918 0.0
C2690 C 0.94114 0.80924 0.49762 0.0
C2691 C 0.94389 0.82945 0.47997 0.0
C2692 C 0.87087 0.73826 0.48322 0.0
C2693 C 0.96294 0.82018 0.5151 0.0
C2694 C 0.87491 0.73578 0.55153 0.0
C2695 C 0.88501 0.71447 0.55437 0.0
C2696 C 0.88637 0.75799 0.53414 0.0
C2697 C 0.90871 0.75909 0.51928 0.0
C2698 C 0.92009 0.73846 0.52255 0.0
C2699 C 0.90786 0.71617 0.54 0.0
C2700 C 0.87333 0.77937 0.53112 0.0
C2701 C 0.94433 0.73932 0.50726 0.0
H2702 H 0.88492 0.78339 0.45225 0.0
H2703 H 0.96125 0.85264 0.47906 0.0
H2704 H 0.87989 0.72243 0.48749 0.0
H2705 H 0.85251 0.73386 0.49559 0.0
H2706 H 0.8596 0.73382 0.46803 0.0
H2707 H 0.98385 0.84207 0.50994 0.0
H2708 H 0.95004 0.8224 0.52847 0.0
H2709 H 0.9711 0.80413 0.52098 0.0
H2710 H 0.85712 0.73443 0.56256 0.0
H2711 H 0.91608 0.69999 0.54236 0.0
H2712 H 0.85961 0.77572 0.51689 0.0
H2713 H 0.89285 0.80252 0.5286 0.0
H2714 H 0.8577 0.77677 0.54481 0.0
H2715 H 0.93348 0.7324 0.49228 0.0
H2716 H 0.95384 0.72443 0.51348 0.0
H2717 H 0.96419 0.76221 0.50355 0.0
loop_
_geom_bond_atom_site_label_1
_geom_bond_atom_site_label_2
_geom_bond_distance
_geom_bond_site_symmetry_2
_ccdc_geom_bond_type
C0 N1 1.317 . S
C0 N2 1.348 . S
C0 C3 1.485 . S
N1 C0 1.317 . S
N1 N5 1.370 . S
N2 C0 1.348 . S
N2 C4 1.346 . S
C3 C0 1.485 . S
C3 H7 0.960 . S
C3 H8 0.961 . S
C3 H9 0.960 . S
C4 N2 1.346 . S
C4 N5 1.307 . S
C4 C6 1.486 . S
N5 N1 1.370 . S
N5 C4 1.307 . S
C6 C4 1.486 . S
C6 H10 0.960 . S
C6 H11 0.960 . S
C6 H12 0.959 . S
H7 C3 0.960 . S
H8 C3 0.961 . S
H9 C3 0.960 . S
H10 C6 0.960 . S
H11 C6 0.960 . S
H12 C6 0.959 . S
C13 N14 1.317 . S
C13 N15 1.348 . S
C13 C16 1.485 . S
N14 C13 1.317 . S
N14 N18 1.370 . S
N15 C13 1.348 . S
N15 C17 1.346 . S
C16 C13 1.485 . S
C16 H20 0.960 . S
C16 H21 0.961 . S
C16 H22 0.960 . S
C17 N15 1.346 . S
C17 N18 1.307 . S
C17 C19 1.486 . S
N18 N14 1.370 . S
N18 C17 1.307 . S
C19 C17 1.486 . S
C19 H23 0.960 . S
C19 H24 0.960 . S
C19 H25 0.959 . S
H20 C16 0.960 . S
H21 C16 0.961 . S
H22 C16 0.960 . S
H23 C19 0.960 . S
H24 C19 0.960 . S
H25 C19 0.959 . S
C26 N27 1.317 . S
C26 N28 1.348 . S
C26 C29 1.485 . S
N27 C26 1.317 . S
N27 N31 1.370 . S
N28 C26 1.348 . S
N28 C30 1.346 . S
C29 C26 1.485 . S
C29 H33 0.960 . S
C29 H34 0.961 . S
C29 H35 0.960 . S
C30 N28 1.346 . S
C30 N31 1.307 . S
C30 C32 1.486 . S
N31 N27 1.370 . S
N31 C30 1.307 . S
C32 C30 1.486 . S
C32 H36 0.960 . S
C32 H37 0.960 . S
C32 H38 0.959 . S
H33 C29 0.960 . S
H34 C29 0.961 . S
H35 C29 0.960 . S
H36 C32 0.960 . S
H37 C32 0.960 . S
H38 C32 0.959 . S
C39 N40 1.317 . S
C39 N41 1.348 . S
C39 C42 1.485 . S
N40 C39 1.317 . S
N40 N44 1.370 . S
N41 C39 1.348 . S
N41 C43 1.346 . S
C42 C39 1.485 . S
C42 H46 0.960 . S
C42 H47 0.961 . S
C42 H48 0.960 . S
C43 N41 1.346 . S
C43 N44 1.307 . S
C43 C45 1.486 . S
N44 N40 1.370 . S
N44 C43 1.307 . S
C45 C43 1.486 . S
C45 H49 0.960 . S
C45 H50 0.960 . S
C45 H51 0.959 . S
H46 C42 0.960 . S
H47 C42 0.961 . S
H48 C42 0.960 . S
H49 C45 0.960 . S
H50 C45 0.960 . S
H51 C45 0.959 . S
C52 N53 1.317 . S
C52 N54 1.348 . S
C52 C55 1.485 . S
N53 C52 1.317 . S
N53 N57 1.370 . S
N54 C52 1.348 . S
N54 C56 1.346 . S
C55 C52 1.485 . S
C55 H59 0.960 . S
C55 H60 0.961 . S
C55 H61 0.960 . S
C56 N54 1.346 . S
C56 N57 1.307 . S
C56 C58 1.486 . S
N57 N53 1.370 . S
N57 C56 1.307 . S
C58 C56 1.486 . S
C58 H62 0.960 . S
C58 H63 0.960 . S
C58 H64 0.959 . S
H59 C55 0.960 . S
H60 C55 0.961 . S
H61 C55 0.960 . S
H62 C58 0.960 . S
H63 C58 0.960 . S
H64 C58 0.959 . S
C65 N66 1.317 . S
C65 N67 1.348 . S
C65 C68 1.485 . S
N66 C65 1.317 . S
N66 N70 1.370 . S
N67 C65 1.348 . S
N67 C69 1.346 . S
C68 C65 1.485 . S
C68 H72 0.960 . S
C68 H73 0.961 . S
C68 H74 0.960 . S
C69 N67 1.346 . S
C69 N70 1.307 . S
C69 C71 1.486 . S
N70 N66 1.370 . S
N70 C69 1.307 . S
C71 C69 1.486 . S
C71 H75 0.960 . S
C71 H76 0.960 . S
C71 H77 0.959 . S
H72 C68 0.960 . S
H73 C68 0.961 . S
H74 C68 0.960 . S
H75 C71 0.960 . S
H76 C71 0.960 . S
H77 C71 0.959 . S
C78 N79 1.317 . S
C78 N80 1.348 . S
C78 C81 1.485 . S
N79 C78 1.317 . S
N79 N83 1.370 . S
N80 C78 1.348 . S
N80 C82 1.346 . S
C81 C78 1.485 . S
C81 H85 0.960 . S
C81 H86 0.961 . S
C81 H87 0.960 . S
C82 N80 1.346 . S
C82 N83 1.307 . S
C82 C84 1.486 . S
N83 N79 1.370 . S
N83 C82 1.307 . S
C84 C82 1.486 . S
C84 H88 0.960 . S
C84 H89 0.960 . S
C84 H90 0.959 . S
H85 C81 0.960 . S
H86 C81 0.961 . S
H87 C81 0.960 . S
H88 C84 0.960 . S
H89 C84 0.960 . S
H90 C84 0.959 . S
C91 N92 1.317 . S
C91 N93 1.348 . S
C91 C94 1.485 . S
N92 C91 1.317 . S
N92 N96 1.370 . S
N93 C91 1.348 . S
N93 C95 1.346 . S
C94 C91 1.485 . S
C94 H98 0.960 . S
C94 H99 0.961 . S
C94 H100 0.960 . S
C95 N93 1.346 . S
C95 N96 1.307 . S
C95 C97 1.486 . S
N96 N92 1.370 . S
N96 C95 1.307 . S
C97 C95 1.486 . S
C97 H101 0.960 . S
C97 H102 0.960 . S
C97 H103 0.959 . S
H98 C94 0.960 . S
H99 C94 0.961 . S
H100 C94 0.960 . S
H101 C97 0.960 . S
H102 C97 0.960 . S
H103 C97 0.959 . S
C104 N105 1.317 . S
C104 N106 1.348 . S
C104 C107 1.485 . S
N105 C104 1.317 . S
N105 N109 1.370 . S
N106 C104 1.348 . S
N106 C108 1.346 . S
C107 C104 1.485 . S
C107 H111 0.960 . S
C107 H112 0.961 . S
C107 H113 0.960 . S
C108 N106 1.346 . S
C108 N109 1.307 . S
C108 C110 1.486 . S
N109 N105 1.370 . S
N109 C108 1.307 . S
C110 C108 1.486 . S
C110 H114 0.960 . S
C110 H115 0.960 . S
C110 H116 0.959 . S
H111 C107 0.960 . S
H112 C107 0.961 . S
H113 C107 0.960 . S
H114 C110 0.960 . S
H115 C110 0.960 . S
H116 C110 0.959 . S
C117 N118 1.317 . S
C117 N119 1.348 . S
C117 C120 1.485 . S
N118 C117 1.317 . S
N118 N122 1.370 . S
N119 C117 1.348 . S
N119 C121 1.346 . S
C120 C117 1.485 . S
C120 H124 0.960 . S
C120 H125 0.961 1_556 S
C120 H126 0.960 . S
C121 N119 1.346 . S
C121 N122 1.307 . S
C121 C123 1.486 . S
N122 N118 1.370 . S
N122 C121 1.307 . S
C123 C121 1.486 . S
C123 H127 0.960 . S
C123 H128 0.960 . S
C123 H129 0.959 . S
H124 C120 0.960 . S
H125 C120 0.961 1_554 S
H126 C120 0.960 . S
H127 C123 0.960 . S
H128 C123 0.960 . S
H129 C123 0.959 . S
C130 N131 1.317 . S
C130 N132 1.348 . S
C130 C133 1.456 1_556 S
N131 C130 1.317 . S
N131 N135 1.370 . S
N132 C130 1.348 . S
N132 C134 1.346 . S
C133 C130 1.456 1_554 S
C133 H137 0.981 . S
C133 H138 0.974 . S
C133 H139 0.956 . S
C134 N132 1.346 . S
C134 N135 1.307 . S
C134 C136 1.486 . S
N135 N131 1.370 . S
N135 C134 1.307 . S
C136 C134 1.486 . S
C136 H140 0.960 . S
C136 H141 0.960 . S
C136 H142 0.959 . S
H137 C133 0.981 . S
H138 C133 0.974 . S
H139 C133 0.956 . S
H140 C136 0.960 . S
H141 C136 0.960 . S
H142 C136 0.959 . S
C143 N144 1.317 . S
C143 N145 1.348 . S
C143 C146 1.485 1_556 S
N144 C143 1.317 . S
N144 N148 1.370 . S
N145 C143 1.348 . S
N145 C147 1.346 . S
C146 C143 1.485 1_554 S
C146 H150 0.960 . S
C146 H151 0.961 . S
C146 H152 0.960 . S
C147 N145 1.346 . S
C147 N148 1.307 . S
C147 C149 1.486 . S
N148 N144 1.370 . S
N148 C147 1.307 . S
C149 C147 1.486 . S
C149 H153 0.960 . S
C149 H154 0.960 . S
C149 H155 0.959 . S
H150 C146 0.960 . S
H151 C146 0.961 . S
H152 C146 0.960 . S
H153 C149 0.960 . S
H154 C149 0.960 . S
H155 C149 0.959 . S
C156 N157 1.317 . S
C156 N158 1.348 . S
C156 C159 1.485 . S
N157 C156 1.317 . S
N157 N161 1.370 . S
N158 C156 1.348 . S
N158 C160 1.346 . S
C159 C156 1.485 . S
C159 H163 0.960 . S
C159 H164 0.961 . S
C159 H165 0.960 . S
C160 N158 1.346 . S
C160 N161 1.307 . S
C160 C162 1.486 . S
N161 N157 1.370 . S
N161 C160 1.307 . S
C162 C160 1.486 . S
C162 H166 0.960 . S
C162 H167 0.960 . S
C162 H168 0.959 . S
H163 C159 0.960 . S
H164 C159 0.961 . S
H165 C159 0.960 . S
H166 C162 0.960 . S
H167 C162 0.960 . S
H168 C162 0.959 . S
C169 N170 1.317 . S
C169 N171 1.348 . S
C169 C172 1.485 . S
N170 C169 1.317 . S
N170 N174 1.370 . S
N171 C169 1.348 . S
N171 C173 1.346 . S
C172 C169 1.485 . S
C172 H176 0.960 . S
C172 H177 0.961 . S
C172 H178 0.960 . S
C173 N171 1.346 . S
C173 N174 1.307 . S
C173 C175 1.486 . S
N174 N170 1.370 . S
N174 C173 1.307 . S
C175 C173 1.486 . S
C175 H179 0.960 . S
C175 H180 0.960 . S
C175 H181 0.959 . S
H176 C172 0.960 . S
H177 C172 0.961 . S
H178 C172 0.960 . S
H179 C175 0.960 . S
H180 C175 0.960 . S
H181 C175 0.959 . S
C182 N183 1.317 . S
C182 N184 1.348 . S
C182 C185 1.485 . S
N183 C182 1.317 . S
N183 N187 1.370 . S
N184 C182 1.348 . S
N184 C186 1.346 . S
C185 C182 1.485 . S
C185 H189 0.960 . S
C185 H190 0.961 . S
C185 H191 0.960 . S
C186 N184 1.346 . S
C186 N187 1.307 . S
C186 C188 1.486 . S
N187 N183 1.370 . S
N187 C186 1.307 . S
C188 C186 1.486 . S
C188 H192 0.960 . S
C188 H193 0.960 . S
C188 H194 0.959 . S
H189 C185 0.960 . S
H190 C185 0.961 . S
H191 C185 0.960 . S
H192 C188 0.960 . S
H193 C188 0.960 . S
H194 C188 0.959 . S
C195 N196 1.317 . S
C195 N197 1.348 . S
C195 C198 1.485 . S
N196 C195 1.317 . S
N196 N200 1.370 . S
N197 C195 1.348 . S
N197 C199 1.346 . S
C198 C195 1.485 . S
C198 H202 0.960 . S
C198 H203 0.961 . S
C198 H204 0.960 . S
C199 N197 1.346 . S
C199 N200 1.307 . S
C199 C201 1.486 . S
N200 N196 1.370 . S
N200 C199 1.307 . S
C201 C199 1.486 . S
C201 H205 0.960 . S
C201 H206 0.960 . S
C201 H207 0.959 . S
H202 C198 0.960 . S
H203 C198 0.961 . S
H204 C198 0.960 . S
H205 C201 0.960 . S
H206 C201 0.960 . S
H207 C201 0.959 . S
C208 N209 1.317 . S
C208 N210 1.348 . S
C208 C211 1.485 . S
N209 C208 1.317 . S
N209 N213 1.370 . S
N210 C208 1.348 . S
N210 C212 1.346 . S
C211 C208 1.485 . S
C211 H215 0.960 . S
C211 H216 0.961 . S
C211 H217 0.960 . S
C212 N210 1.346 . S
C212 N213 1.307 . S
C212 C214 1.486 . S
N213 N209 1.370 . S
N213 C212 1.307 . S
C214 C212 1.486 . S
C214 H218 0.960 . S
C214 H219 0.960 . S
C214 H220 0.959 . S
H215 C211 0.960 . S
H216 C211 0.961 . S
H217 C211 0.960 . S
H218 C214 0.960 . S
H219 C214 0.960 . S
H220 C214 0.959 . S
C221 N222 1.317 . S
C221 N223 1.348 . S
C221 C224 1.485 . S
N222 C221 1.317 . S
N222 N226 1.370 . S
N223 C221 1.348 . S
N223 C225 1.346 . S
C224 C221 1.485 . S
C224 H228 0.960 . S
C224 H229 0.961 . S
C224 H230 0.960 . S
C225 N223 1.346 . S
C225 N226 1.307 . S
C225 C227 1.486 . S
N226 N222 1.370 . S
N226 C225 1.307 . S
C227 C225 1.486 . S
C227 H231 0.960 . S
C227 H232 0.960 . S
C227 H233 0.959 . S
H228 C224 0.960 . S
H229 C224 0.961 . S
H230 C224 0.960 . S
H231 C227 0.960 . S
H232 C227 0.960 . S
H233 C227 0.959 . S
Eu234 N265 2.657 . S
Eu234 N272 2.609 . S
Eu234 O278 2.558 . S
Eu234 O279 2.612 1_566 S
Eu234 O281 2.339 1_565 S
Eu234 O282 2.563 1_565 S
Eu234 O283 2.419 1_565 S
Eu234 O285 2.380 1_556 S
Eu234 O286 2.432 1_556 S
Eu234 C298 2.848 1_565 S
C235 C238 1.429 . S
C235 C239 1.411 . S
C235 N242 1.377 . S
C236 C238 1.420 . S
C236 C240 1.423 . S
C236 C248 1.392 . S
C237 C239 1.420 . S
C237 C240 1.351 . S
C237 H260 0.931 . S
C238 C235 1.429 . S
C238 C236 1.420 . S
C238 N246 1.362 . S
C239 C235 1.411 . S
C239 C237 1.420 . S
C239 C244 1.395 . S
C240 C236 1.423 . S
C240 C237 1.351 . S
C240 H252 0.930 . S
C241 C243 1.400 . S
C241 C244 1.386 . S
C241 H253 0.930 . S
N242 C235 1.377 . S
N242 C243 1.321 . S
N242 Eu245 2.609 . S
C243 C241 1.400 . S
C243 N242 1.321 . S
C243 H250 0.930 . S
C244 C239 1.395 . S
C244 C241 1.386 . S
C244 H263 0.930 . S
Eu245 N242 2.609 . S
Eu245 N246 2.657 . S
Eu245 O279 2.380 . S
Eu245 O280 2.432 . S
Eu245 O284 2.558 . S
Eu245 O285 2.612 1_545 S
Eu245 O287 2.339 1_545 S
Eu245 O288 2.563 1_545 S
Eu245 O289 2.419 1_545 S
Eu245 C309 2.848 1_545 S
N246 C238 1.362 . S
N246 Eu245 2.657 . S
N246 C247 1.334 . S
C247 N246 1.334 . S
C247 C249 1.413 . S
C247 H254 0.929 . S
C248 C236 1.392 . S
C248 C249 1.367 . S
C248 H256 0.930 . S
C249 C247 1.413 . S
C249 C248 1.367 . S
C249 H251 0.930 . S
H250 C243 0.930 . S
H251 C249 0.930 . S
H252 C240 0.930 . S
H253 C241 0.930 . S
H254 C247 0.929 . S
H255 C269 0.930 . S
H256 C248 0.930 . S
H257 C275 0.930 . S
H258 C266 0.929 1_545 S
H259 C273 0.930 . S
H260 C237 0.931 . S
H261 C267 0.930 . S
H262 C300 0.930 . S
H263 C244 0.930 . S
H264 C299 0.931 . S
N265 Eu234 2.657 . S
N265 C266 1.334 . S
N265 C270 1.362 . S
C266 H258 0.929 1_565 S
C266 N265 1.334 . S
C266 C269 1.413 . S
C267 H261 0.930 . S
C267 C268 1.392 . S
C267 C269 1.367 . S
C268 C267 1.392 . S
C268 C270 1.420 . S
C268 C300 1.423 . S
C269 H255 0.930 . S
C269 C266 1.413 . S
C269 C267 1.367 . S
C270 N265 1.362 . S
C270 C268 1.420 . S
C270 C274 1.429 . S
H271 C276 0.930 . S
N272 Eu234 2.609 . S
N272 C274 1.377 . S
N272 C275 1.321 . S
C273 H259 0.930 . S
C273 C275 1.400 . S
C273 C276 1.386 . S
C274 C270 1.429 . S
C274 N272 1.377 . S
C274 C277 1.411 . S
C275 H257 0.930 . S
C275 N272 1.321 . S
C275 C273 1.400 . S
C276 H271 0.930 . S
C276 C273 1.386 . S
C276 C277 1.395 . S
C277 C274 1.411 . S
C277 C276 1.395 . S
C277 C299 1.420 . S
O278 Eu234 2.558 . S
O278 C298 1.257 1_565 S
O279 Eu234 2.612 1_544 S
O279 Eu245 2.380 . S
O279 C290 1.276 . S
O280 Eu245 2.432 . S
O280 C297 1.264 . S
O281 Eu234 2.339 1_545 S
O281 C297 1.254 1_556 S
O282 Eu234 2.563 1_545 S
O282 C290 1.235 1_556 S
O283 Eu234 2.419 1_545 S
O283 C298 1.249 . S
O284 Eu245 2.558 . S
O284 C309 1.257 1_545 S
O285 Eu234 2.380 1_554 S
O285 Eu245 2.612 1_565 S
O285 C301 1.276 . S
O286 Eu234 2.432 1_554 S
O286 C308 1.264 . S
O287 Eu245 2.339 1_565 S
O287 C308 1.254 . S
O288 Eu245 2.563 1_565 S
O288 C301 1.235 . S
O289 Eu245 2.419 1_565 S
O289 C309 1.249 . S
C290 O279 1.276 . S
C290 O282 1.235 1_554 S
C291 C293 1.393 . S
C291 C295 1.395 . S
C291 C298 1.492 . S
C292 C293 1.392 . S
C292 C294 1.386 . S
C293 C291 1.393 . S
C293 C292 1.392 . S
C293 H310 0.930 . S
C294 C292 1.386 . S
C294 C296 1.395 . S
C294 H311 0.930 . S
C295 C291 1.395 . S
C295 C296 1.379 . S
C295 H312 0.930 1_545 S
C296 C294 1.395 . S
C296 C295 1.379 . S
C296 H313 0.930 . S
C297 O280 1.264 . S
C297 O281 1.254 1_554 S
C298 Eu234 2.848 1_545 S
C298 O278 1.257 1_545 S
C298 O283 1.249 . S
C298 C291 1.492 . S
C299 H264 0.931 . S
C299 C277 1.420 . S
C299 C300 1.351 . S
C300 H262 0.930 . S
C300 C268 1.423 . S
C300 C299 1.351 . S
C301 O285 1.276 . S
C301 O288 1.235 . S
C302 C303 1.393 . S
C302 C306 1.395 . S
C302 C309 1.492 . S
C303 C302 1.393 . S
C303 C304 1.392 . S
C303 H314 0.930 . S
C304 C303 1.392 . S
C304 C305 1.386 . S
C305 C304 1.386 . S
C305 C307 1.395 . S
C305 H315 0.930 . S
C306 C302 1.395 . S
C306 C307 1.379 . S
C306 H316 0.930 1_565 S
C307 C305 1.395 . S
C307 C306 1.379 . S
C307 H317 0.930 . S
C308 O286 1.264 . S
C308 O287 1.254 . S
C309 Eu245 2.848 1_565 S
C309 O284 1.257 1_565 S
C309 O289 1.249 . S
C309 C302 1.492 . S
H310 C293 0.930 . S
H311 C294 0.930 . S
H312 C295 0.930 1_565 S
H313 C296 0.930 . S
H314 C303 0.930 . S
H315 C305 0.930 . S
H316 C306 0.930 1_545 S
H317 C307 0.930 . S
Eu318 N349 2.657 . S
Eu318 N356 2.609 . S
Eu318 O362 2.558 . S
Eu318 O363 2.612 1_456 S
Eu318 O365 2.339 1_455 S
Eu318 O366 2.563 1_455 S
Eu318 O367 2.419 . S
Eu318 O369 2.380 1_556 S
Eu318 O370 2.432 . S
Eu318 C382 2.848 . S
C319 C322 1.429 . S
C319 C323 1.411 . S
C319 N326 1.377 . S
C320 C322 1.420 . S
C320 C324 1.423 . S
C320 C332 1.392 . S
C321 C323 1.420 . S
C321 C324 1.351 . S
C321 H344 0.931 . S
C322 C319 1.429 . S
C322 C320 1.420 . S
C322 N330 1.362 . S
C323 C319 1.411 . S
C323 C321 1.420 . S
C323 C328 1.395 . S
C324 C320 1.423 . S
C324 C321 1.351 . S
C324 H336 0.930 . S
C325 C327 1.400 . S
C325 C328 1.386 . S
C325 H337 0.930 . S
N326 C319 1.377 . S
N326 C327 1.321 . S
N326 Eu329 2.609 . S
C327 C325 1.400 . S
C327 N326 1.321 . S
C327 H334 0.930 . S
C328 C323 1.395 . S
C328 C325 1.386 . S
C328 H347 0.930 . S
Eu329 N326 2.609 . S
Eu329 N330 2.657 . S
Eu329 O363 2.380 . S
Eu329 O364 2.432 . S
Eu329 O368 2.558 . S
Eu329 O369 2.612 1_655 S
Eu329 O371 2.339 1_655 S
Eu329 O372 2.563 1_655 S
Eu329 O373 2.419 1_655 S
Eu329 C393 2.848 . S
N330 C322 1.362 . S
N330 Eu329 2.657 . S
N330 C331 1.334 . S
C331 N330 1.334 . S
C331 C333 1.413 . S
C331 H338 0.929 . S
C332 C320 1.392 . S
C332 C333 1.367 . S
C332 H340 0.930 . S
C333 C331 1.413 . S
C333 C332 1.367 . S
C333 H335 0.930 . S
H334 C327 0.930 . S
H335 C333 0.930 . S
H336 C324 0.930 . S
H337 C325 0.930 . S
H338 C331 0.929 . S
H339 C353 0.930 . S
H340 C332 0.930 . S
H341 C359 0.930 . S
H342 C350 0.929 . S
H343 C357 0.930 . S
H344 C321 0.931 . S
H345 C351 0.930 . S
H346 C384 0.930 . S
H347 C328 0.930 . S
H348 C383 0.931 . S
N349 Eu318 2.657 . S
N349 C350 1.334 . S
N349 C354 1.362 . S
C350 H342 0.929 . S
C350 N349 1.334 . S
C350 C353 1.413 . S
C351 H345 0.930 . S
C351 C352 1.392 . S
C351 C353 1.367 . S
C352 C351 1.392 . S
C352 C354 1.420 . S
C352 C384 1.423 . S
C353 H339 0.930 . S
C353 C350 1.413 . S
C353 C351 1.367 . S
C354 N349 1.362 . S
C354 C352 1.420 . S
C354 C358 1.429 . S
H355 C360 0.930 . S
N356 Eu318 2.609 . S
N356 C358 1.377 . S
N356 C359 1.321 . S
C357 H343 0.930 . S
C357 C359 1.400 . S
C357 C360 1.386 . S
C358 C354 1.429 . S
C358 N356 1.377 . S
C358 C361 1.411 . S
C359 H341 0.930 . S
C359 N356 1.321 . S
C359 C357 1.400 . S
C360 H355 0.930 . S
C360 C357 1.386 . S
C360 C361 1.395 . S
C361 C358 1.411 . S
C361 C360 1.395 . S
C361 C383 1.420 . S
O362 Eu318 2.558 . S
O362 C382 1.257 . S
O363 Eu318 2.612 1_654 S
O363 Eu329 2.380 . S
O363 C374 1.276 1_554 S
O364 Eu329 2.432 . S
O364 C381 1.264 . S
O365 Eu318 2.339 1_655 S
O365 C381 1.254 1_556 S
O366 Eu318 2.563 1_655 S
O366 C374 1.235 . S
O367 Eu318 2.419 . S
O367 C382 1.249 . S
O368 Eu329 2.558 . S
O368 C393 1.257 . S
O369 Eu318 2.380 1_554 S
O369 Eu329 2.612 1_455 S
O369 C385 1.276 . S
O370 Eu318 2.432 . S
O370 C392 1.264 1_556 S
O371 Eu329 2.339 1_455 S
O371 C392 1.254 . S
O372 Eu329 2.563 1_455 S
O372 C385 1.235 . S
O373 Eu329 2.419 1_455 S
O373 C393 1.249 1_455 S
C374 O363 1.276 1_556 S
C374 O366 1.235 . S
C375 C377 1.393 1_455 S
C375 C379 1.395 . S
C375 C382 1.492 . S
C376 C377 1.392 . S
C376 C378 1.386 1_655 S
C377 C375 1.393 1_655 S
C377 C376 1.392 . S
C377 H394 0.930 . S
C378 C376 1.386 1_455 S
C378 C380 1.395 . S
C378 H395 0.930 . S
C379 C375 1.395 . S
C379 C380 1.379 . S
C379 H396 0.930 . S
C380 C378 1.395 . S
C380 C379 1.379 . S
C380 H397 0.930 . S
C381 O364 1.264 . S
C381 O365 1.254 1_554 S
C382 Eu318 2.848 . S
C382 O362 1.257 . S
C382 O367 1.249 . S
C382 C375 1.492 . S
C383 H348 0.931 . S
C383 C361 1.420 . S
C383 C384 1.351 . S
C384 H346 0.930 . S
C384 C352 1.423 . S
C384 C383 1.351 . S
C385 O369 1.276 . S
C385 O372 1.235 . S
C386 C387 1.393 1_655 S
C386 C390 1.395 . S
C386 C393 1.492 . S
C387 C386 1.393 1_455 S
C387 C388 1.392 . S
C387 H398 0.930 . S
C388 C387 1.392 . S
C388 C389 1.386 . S
C389 C388 1.386 . S
C389 C391 1.395 1_455 S
C389 H399 0.930 . S
C390 C386 1.395 . S
C390 C391 1.379 . S
C390 H400 0.930 . S
C391 C389 1.395 1_655 S
C391 C390 1.379 . S
C391 H401 0.930 . S
C392 O370 1.264 1_554 S
C392 O371 1.254 . S
C393 Eu329 2.848 . S
C393 O368 1.257 . S
C393 O373 1.249 1_655 S
C393 C386 1.492 . S
H394 C377 0.930 . S
H395 C378 0.930 . S
H396 C379 0.930 . S
H397 C380 0.930 . S
H398 C387 0.930 . S
H399 C389 0.930 . S
H400 C390 0.930 . S
H401 C391 0.930 . S
Eu402 N433 2.657 . S
Eu402 N440 2.609 . S
Eu402 O446 2.558 . S
Eu402 O447 2.612 . S
Eu402 O449 2.339 . S
Eu402 O450 2.563 . S
Eu402 O451 2.419 . S
Eu402 O453 2.380 . S
Eu402 O454 2.432 . S
Eu402 C466 2.848 . S
C403 C406 1.429 . S
C403 C407 1.411 . S
C403 N410 1.377 . S
C404 C406 1.420 . S
C404 C408 1.423 . S
C404 C416 1.392 . S
C405 C407 1.420 . S
C405 C408 1.351 . S
C405 H428 0.931 . S
C406 C403 1.429 . S
C406 C404 1.420 . S
C406 N414 1.362 . S
C407 C403 1.411 . S
C407 C405 1.420 . S
C407 C412 1.395 . S
C408 C404 1.423 . S
C408 C405 1.351 . S
C408 H420 0.930 . S
C409 C411 1.400 . S
C409 C412 1.386 . S
C409 H421 0.930 . S
N410 C403 1.377 . S
N410 C411 1.321 . S
N410 Eu413 2.618 . S
C411 C409 1.400 . S
C411 N410 1.321 . S
C411 H418 0.930 . S
C412 C407 1.395 . S
C412 C409 1.386 . S
C412 H431 0.930 . S
Eu413 N410 2.618 . S
Eu413 N414 2.662 . S
Eu413 O447 2.347 1_556 S
Eu413 O448 2.412 1_556 S
Eu413 O452 2.589 . S
Eu413 O453 2.591 1_556 S
Eu413 O455 2.334 1_556 S
Eu413 O456 2.571 . S
Eu413 O457 2.453 . S
Eu413 C477 2.884 . S
N414 C406 1.362 . S
N414 Eu413 2.662 . S
N414 C415 1.334 1_556 S
C415 N414 1.334 1_554 S
C415 C417 1.416 . S
C415 H422 0.929 . S
C416 C404 1.392 . S
C416 C417 1.361 1_556 S
C416 H424 0.930 . S
C417 C415 1.416 . S
C417 C416 1.361 1_554 S
C417 H419 0.935 . S
H418 C411 0.930 . S
H419 C417 0.935 . S
H420 C408 0.930 . S
H421 C409 0.930 . S
H422 C415 0.929 . S
H423 C437 0.930 . S
H424 C416 0.930 . S
H425 C443 0.930 . S
H426 C434 0.929 . S
H427 C441 0.930 . S
H428 C405 0.931 . S
H429 C435 0.930 . S
H430 C468 0.930 . S
H431 C412 0.930 . S
H432 C467 0.931 . S
N433 Eu402 2.657 . S
N433 C434 1.334 . S
N433 C438 1.362 . S
C434 H426 0.929 . S
C434 N433 1.334 . S
C434 C437 1.413 . S
C435 H429 0.930 . S
C435 C436 1.392 . S
C435 C437 1.367 . S
C436 C435 1.392 . S
C436 C438 1.420 . S
C436 C468 1.423 . S
C437 H423 0.930 . S
C437 C434 1.413 . S
C437 C435 1.367 . S
C438 N433 1.362 . S
C438 C436 1.420 . S
C438 C442 1.429 . S
H439 C444 0.930 . S
N440 Eu402 2.609 . S
N440 C442 1.377 . S
N440 C443 1.321 . S
C441 H427 0.930 . S
C441 C443 1.400 . S
C441 C444 1.386 . S
C442 C438 1.429 . S
C442 N440 1.377 . S
C442 C445 1.411 . S
C443 H425 0.930 . S
C443 N440 1.321 . S
C443 C441 1.400 . S
C444 H439 0.930 . S
C444 C441 1.386 . S
C444 C445 1.395 . S
C445 C442 1.411 . S
C445 C444 1.395 . S
C445 C467 1.420 . S
O446 Eu402 2.558 . S
O446 C466 1.257 . S
O447 Eu402 2.612 . S
O447 Eu413 2.347 1_554 S
O447 C458 1.276 . S
O448 Eu413 2.412 1_554 S
O448 C465 1.264 . S
O449 Eu402 2.339 . S
O449 C465 1.254 . S
O450 Eu402 2.563 . S
O450 C458 1.235 . S
O451 Eu402 2.419 . S
O451 C466 1.249 . S
O452 Eu413 2.589 . S
O452 C477 1.257 . S
O453 Eu402 2.380 . S
O453 Eu413 2.591 1_554 S
O453 C469 1.276 . S
O454 Eu402 2.432 . S
O454 C476 1.264 . S
O455 Eu413 2.334 1_554 S
O455 C476 1.254 . S
O456 Eu413 2.571 . S
O456 C469 1.235 1_556 S
O457 Eu413 2.453 . S
O457 C477 1.249 . S
C458 O447 1.276 . S
C458 O450 1.235 . S
C459 C461 1.393 . S
C459 C463 1.395 . S
C459 C466 1.492 . S
C460 C461 1.392 . S
C460 C462 1.386 . S
C461 C459 1.393 . S
C461 C460 1.392 . S
C461 H478 0.930 . S
C462 C460 1.386 . S
C462 C464 1.395 . S
C462 H479 0.930 . S
C463 C459 1.395 . S
C463 C464 1.379 . S
C463 H480 0.930 . S
C464 C462 1.395 . S
C464 C463 1.379 . S
C464 H481 0.930 . S
C465 O448 1.264 . S
C465 O449 1.254 . S
C466 Eu402 2.848 . S
C466 O446 1.257 . S
C466 O451 1.249 . S
C466 C459 1.492 . S
C467 H432 0.931 . S
C467 C445 1.420 . S
C467 C468 1.351 . S
C468 H430 0.930 . S
C468 C436 1.423 . S
C468 C467 1.351 . S
C469 O453 1.276 . S
C469 O456 1.235 1_554 S
C470 C471 1.393 . S
C470 C474 1.395 . S
C470 C477 1.492 . S
C471 C470 1.393 . S
C471 C472 1.392 . S
C471 H482 0.930 . S
C472 C471 1.392 . S
C472 C473 1.386 . S
C473 C472 1.386 . S
C473 C475 1.395 . S
C473 H483 0.930 . S
C474 C470 1.395 . S
C474 C475 1.379 . S
C474 H484 0.930 . S
C475 C473 1.395 . S
C475 C474 1.379 . S
C475 H485 0.930 . S
C476 O454 1.264 . S
C476 O455 1.254 . S
C477 Eu413 2.884 . S
C477 O452 1.257 . S
C477 O457 1.249 . S
C477 C470 1.492 . S
H478 C461 0.930 . S
H479 C462 0.930 . S
H480 C463 0.930 . S
H481 C464 0.930 . S
H482 C471 0.930 . S
H483 C473 0.930 . S
H484 C474 0.930 . S
H485 C475 0.930 . S
Eu486 N517 2.657 . S
Eu486 N524 2.609 . S
Eu486 O530 2.558 . S
Eu486 O531 2.612 . S
Eu486 O533 2.339 . S
Eu486 O534 2.563 . S
Eu486 O535 2.419 . S
Eu486 O537 2.380 . S
Eu486 O538 2.432 . S
Eu486 C550 2.848 . S
C487 C490 1.429 . S
C487 C491 1.411 . S
C487 N494 1.377 . S
C488 C490 1.420 . S
C488 C492 1.423 . S
C488 C500 1.392 . S
C489 C491 1.420 . S
C489 C492 1.351 . S
C489 H512 0.931 . S
C490 C487 1.429 . S
C490 C488 1.420 . S
C490 N498 1.362 . S
C491 C487 1.411 . S
C491 C489 1.420 . S
C491 C496 1.395 . S
C492 C488 1.423 . S
C492 C489 1.351 . S
C492 H504 0.930 . S
C493 C495 1.400 . S
C493 C496 1.386 . S
C493 H505 0.930 . S
N494 C487 1.377 . S
N494 C495 1.321 . S
N494 Eu497 2.609 . S
C495 C493 1.400 . S
C495 N494 1.321 . S
C495 H502 0.930 . S
C496 C491 1.395 . S
C496 C493 1.386 . S
C496 H515 0.930 . S
Eu497 N494 2.609 . S
Eu497 N498 2.657 . S
Eu497 O531 2.380 . S
Eu497 O532 2.432 . S
Eu497 O536 2.558 . S
Eu497 O537 2.612 . S
Eu497 O539 2.339 . S
Eu497 O540 2.563 . S
Eu497 O541 2.419 . S
Eu497 C561 2.848 . S
N498 C490 1.362 . S
N498 Eu497 2.657 . S
N498 C499 1.334 . S
C499 N498 1.334 . S
C499 C501 1.413 . S
C499 H506 0.929 . S
C500 C488 1.392 . S
C500 C501 1.367 . S
C500 H508 0.930 . S
C501 C499 1.413 . S
C501 C500 1.367 . S
C501 H503 0.930 . S
H502 C495 0.930 . S
H503 C501 0.930 . S
H504 C492 0.930 . S
H505 C493 0.930 . S
H506 C499 0.929 . S
H507 C521 0.930 . S
H508 C500 0.930 . S
H509 C527 0.930 . S
H510 C518 0.929 . S
H511 C525 0.930 . S
H512 C489 0.931 . S
H513 C519 0.930 . S
H514 C552 0.930 . S
H515 C496 0.930 . S
H516 C551 0.931 . S
N517 Eu486 2.657 . S
N517 C518 1.334 . S
N517 C522 1.362 . S
C518 H510 0.929 . S
C518 N517 1.334 . S
C518 C521 1.413 . S
C519 H513 0.930 . S
C519 C520 1.392 . S
C519 C521 1.367 . S
C520 C519 1.392 . S
C520 C522 1.420 . S
C520 C552 1.423 . S
C521 H507 0.930 . S
C521 C518 1.413 . S
C521 C519 1.367 . S
C522 N517 1.362 . S
C522 C520 1.420 . S
C522 C526 1.429 . S
H523 C528 0.930 . S
N524 Eu486 2.609 . S
N524 C526 1.377 . S
N524 C527 1.321 . S
C525 H511 0.930 . S
C525 C527 1.400 . S
C525 C528 1.386 . S
C526 C522 1.429 . S
C526 N524 1.377 . S
C526 C529 1.411 . S
C527 H509 0.930 . S
C527 N524 1.321 . S
C527 C525 1.400 . S
C528 H523 0.930 . S
C528 C525 1.386 . S
C528 C529 1.395 . S
C529 C526 1.411 . S
C529 C528 1.395 . S
C529 C551 1.420 . S
O530 Eu486 2.558 . S
O530 C550 1.257 . S
O531 Eu486 2.612 . S
O531 Eu497 2.380 . S
O531 C542 1.276 . S
O532 Eu497 2.432 . S
O532 C549 1.264 . S
O533 Eu486 2.339 . S
O533 C549 1.254 . S
O534 Eu486 2.563 . S
O534 C542 1.235 . S
O535 Eu486 2.419 . S
O535 C550 1.249 . S
O536 Eu497 2.558 . S
O536 C561 1.257 . S
O537 Eu486 2.380 . S
O537 Eu497 2.612 . S
O537 C553 1.276 . S
O538 Eu486 2.432 . S
O538 C560 1.264 . S
O539 Eu497 2.339 . S
O539 C560 1.254 . S
O540 Eu497 2.563 . S
O540 C553 1.235 . S
O541 Eu497 2.419 . S
O541 C561 1.249 . S
C542 O531 1.276 . S
C542 O534 1.235 . S
C543 C545 1.393 . S
C543 C547 1.395 . S
C543 C550 1.492 . S
C544 C545 1.392 . S
C544 C546 1.386 . S
C545 C543 1.393 . S
C545 C544 1.392 . S
C545 H562 0.930 . S
C546 C544 1.386 . S
C546 C548 1.395 . S
C546 H563 0.930 . S
C547 C543 1.395 . S
C547 C548 1.379 . S
C547 H564 0.930 . S
C548 C546 1.395 . S
C548 C547 1.379 . S
C548 H565 0.930 . S
C549 O532 1.264 . S
C549 O533 1.254 . S
C550 Eu486 2.848 . S
C550 O530 1.257 . S
C550 O535 1.249 . S
C550 C543 1.492 . S
C551 H516 0.931 . S
C551 C529 1.420 . S
C551 C552 1.351 . S
C552 H514 0.930 . S
C552 C520 1.423 . S
C552 C551 1.351 . S
C553 O537 1.276 . S
C553 O540 1.235 . S
C554 C555 1.393 . S
C554 C558 1.395 . S
C554 C561 1.492 . S
C555 C554 1.393 . S
C555 C556 1.392 . S
C555 H566 0.930 . S
C556 C555 1.392 . S
C556 C557 1.386 . S
C557 C556 1.386 . S
C557 C559 1.395 . S
C557 H567 0.930 . S
C558 C554 1.395 . S
C558 C559 1.379 . S
C558 H568 0.930 . S
C559 C557 1.395 . S
C559 C558 1.379 . S
C559 H569 0.930 . S
C560 O538 1.264 . S
C560 O539 1.254 . S
C561 Eu497 2.848 . S
C561 O536 1.257 . S
C561 O541 1.249 . S
C561 C554 1.492 . S
H562 C545 0.930 . S
H563 C546 0.930 . S
H564 C547 0.930 . S
H565 C548 0.930 . S
H566 C555 0.930 . S
H567 C557 0.930 . S
H568 C558 0.930 . S
H569 C559 0.930 . S
Eu570 N601 2.657 . S
Eu570 N608 2.609 . S
Eu570 O614 2.558 . S
Eu570 O615 2.612 . S
Eu570 O617 2.339 . S
Eu570 O618 2.563 . S
Eu570 O619 2.419 . S
Eu570 O621 2.380 . S
Eu570 O622 2.432 . S
Eu570 C634 2.848 . S
C571 C574 1.429 . S
C571 C575 1.411 . S
C571 N578 1.377 . S
C572 C574 1.420 . S
C572 C576 1.423 . S
C572 C584 1.392 . S
C573 C575 1.420 . S
C573 C576 1.351 . S
C573 H596 0.931 . S
C574 C571 1.429 . S
C574 C572 1.420 . S
C574 N582 1.362 . S
C575 C571 1.411 . S
C575 C573 1.420 . S
C575 C580 1.395 . S
C576 C572 1.423 . S
C576 C573 1.351 . S
C576 H588 0.930 . S
C577 C579 1.400 . S
C577 C580 1.386 . S
C577 H589 0.930 . S
N578 C571 1.377 . S
N578 C579 1.321 . S
N578 Eu581 2.609 . S
C579 C577 1.400 . S
C579 N578 1.321 . S
C579 H586 0.930 . S
C580 C575 1.395 . S
C580 C577 1.386 . S
C580 H599 0.930 . S
Eu581 N578 2.609 . S
Eu581 N582 2.657 . S
Eu581 O615 2.380 . S
Eu581 O616 2.432 . S
Eu581 O620 2.558 . S
Eu581 O621 2.612 . S
Eu581 O623 2.339 . S
Eu581 O624 2.563 . S
Eu581 O625 2.419 . S
Eu581 C645 2.848 . S
N582 C574 1.362 . S
N582 Eu581 2.657 . S
N582 C583 1.334 . S
C583 N582 1.334 . S
C583 C585 1.413 . S
C583 H590 0.929 . S
C584 C572 1.392 . S
C584 C585 1.367 . S
C584 H592 0.930 . S
C585 C583 1.413 . S
C585 C584 1.367 . S
C585 H587 0.930 . S
H586 C579 0.930 . S
H587 C585 0.930 . S
H588 C576 0.930 . S
H589 C577 0.930 . S
H590 C583 0.929 . S
H591 C605 0.930 . S
H592 C584 0.930 . S
H593 C611 0.930 . S
H594 C602 0.929 . S
H595 C609 0.930 . S
H596 C573 0.931 . S
H597 C603 0.930 . S
H598 C636 0.930 . S
H599 C580 0.930 . S
H600 C635 0.931 . S
N601 Eu570 2.657 . S
N601 C602 1.334 . S
N601 C606 1.362 . S
C602 H594 0.929 . S
C602 N601 1.334 . S
C602 C605 1.413 . S
C603 H597 0.930 . S
C603 C604 1.392 . S
C603 C605 1.367 . S
C604 C603 1.392 . S
C604 C606 1.420 . S
C604 C636 1.423 . S
C605 H591 0.930 . S
C605 C602 1.413 . S
C605 C603 1.367 . S
C606 N601 1.362 . S
C606 C604 1.420 . S
C606 C610 1.429 . S
H607 C612 0.930 . S
N608 Eu570 2.609 . S
N608 C610 1.377 . S
N608 C611 1.321 . S
C609 H595 0.930 . S
C609 C611 1.400 . S
C609 C612 1.386 . S
C610 C606 1.429 . S
C610 N608 1.377 . S
C610 C613 1.411 . S
C611 H593 0.930 . S
C611 N608 1.321 . S
C611 C609 1.400 . S
C612 H607 0.930 . S
C612 C609 1.386 . S
C612 C613 1.395 . S
C613 C610 1.411 . S
C613 C612 1.395 . S
C613 C635 1.420 . S
O614 Eu570 2.558 . S
O614 C634 1.257 . S
O615 Eu570 2.612 . S
O615 Eu581 2.380 . S
O615 C626 1.276 . S
O616 Eu581 2.432 . S
O616 C633 1.264 . S
O617 Eu570 2.339 . S
O617 C633 1.254 . S
O618 Eu570 2.563 . S
O618 C626 1.235 . S
O619 Eu570 2.419 . S
O619 C634 1.249 . S
O620 Eu581 2.558 . S
O620 C645 1.257 . S
O621 Eu570 2.380 . S
O621 Eu581 2.612 . S
O621 C637 1.276 . S
O622 Eu570 2.432 . S
O622 C644 1.264 . S
O623 Eu581 2.339 . S
O623 C644 1.254 . S
O624 Eu581 2.563 . S
O624 C637 1.235 . S
O625 Eu581 2.419 . S
O625 C645 1.249 . S
C626 O615 1.276 . S
C626 O618 1.235 . S
C627 C629 1.393 . S
C627 C631 1.395 . S
C627 C634 1.492 . S
C628 C629 1.392 . S
C628 C630 1.386 . S
C629 C627 1.393 . S
C629 C628 1.392 . S
C629 H646 0.930 . S
C630 C628 1.386 . S
C630 C632 1.395 . S
C630 H647 0.930 . S
C631 C627 1.395 . S
C631 C632 1.379 . S
C631 H648 0.930 . S
C632 C630 1.395 . S
C632 C631 1.379 . S
C632 H649 0.930 . S
C633 O616 1.264 . S
C633 O617 1.254 . S
C634 Eu570 2.848 . S
C634 O614 1.257 . S
C634 O619 1.249 . S
C634 C627 1.492 . S
C635 H600 0.931 . S
C635 C613 1.420 . S
C635 C636 1.351 . S
C636 H598 0.930 . S
C636 C604 1.423 . S
C636 C635 1.351 . S
C637 O621 1.276 . S
C637 O624 1.235 . S
C638 C639 1.393 . S
C638 C642 1.395 . S
C638 C645 1.492 . S
C639 C638 1.393 . S
C639 C640 1.392 . S
C639 H650 0.930 . S
C640 C639 1.392 . S
C640 C641 1.386 . S
C641 C640 1.386 . S
C641 C643 1.395 . S
C641 H651 0.930 . S
C642 C638 1.395 . S
C642 C643 1.379 . S
C642 H652 0.930 . S
C643 C641 1.395 . S
C643 C642 1.379 . S
C643 H653 0.930 . S
C644 O622 1.264 . S
C644 O623 1.254 . S
C645 Eu581 2.848 . S
C645 O620 1.257 . S
C645 O625 1.249 . S
C645 C638 1.492 . S
H646 C629 0.930 . S
H647 C630 0.930 . S
H648 C631 0.930 . S
H649 C632 0.930 . S
H650 C639 0.930 . S
H651 C641 0.930 . S
H652 C642 0.930 . S
H653 C643 0.930 . S
Eu654 N685 2.657 . S
Eu654 N692 2.609 . S
Eu654 O698 2.558 . S
Eu654 O699 2.612 . S
Eu654 O701 2.339 . S
Eu654 O702 2.563 . S
Eu654 O703 2.419 . S
Eu654 O705 2.380 . S
Eu654 O706 2.432 . S
Eu654 C718 2.848 . S
C655 C658 1.429 . S
C655 C659 1.411 . S
C655 N662 1.377 . S
C656 C658 1.420 . S
C656 C660 1.423 . S
C656 C668 1.392 . S
C657 C659 1.420 . S
C657 C660 1.351 . S
C657 H680 0.931 . S
C658 C655 1.429 . S
C658 C656 1.420 . S
C658 N666 1.362 . S
C659 C655 1.411 . S
C659 C657 1.420 . S
C659 C664 1.395 . S
C660 C656 1.423 . S
C660 C657 1.351 . S
C660 H672 0.930 . S
C661 C663 1.400 . S
C661 C664 1.386 . S
C661 H673 0.930 . S
N662 C655 1.377 . S
N662 C663 1.321 . S
N662 Eu665 2.609 . S
C663 C661 1.400 . S
C663 N662 1.321 . S
C663 H670 0.930 . S
C664 C659 1.395 . S
C664 C661 1.386 . S
C664 H683 0.930 . S
Eu665 N662 2.609 . S
Eu665 N666 2.657 . S
Eu665 O699 2.380 . S
Eu665 O700 2.432 . S
Eu665 O704 2.558 . S
Eu665 O705 2.612 . S
Eu665 O707 2.339 . S
Eu665 O708 2.563 . S
Eu665 O709 2.419 . S
Eu665 C729 2.848 . S
N666 C658 1.362 . S
N666 Eu665 2.657 . S
N666 C667 1.334 . S
C667 N666 1.334 . S
C667 C669 1.413 . S
C667 H674 0.929 . S
C668 C656 1.392 . S
C668 C669 1.367 . S
C668 H676 0.930 . S
C669 C667 1.413 . S
C669 C668 1.367 . S
C669 H671 0.930 . S
H670 C663 0.930 . S
H671 C669 0.930 . S
H672 C660 0.930 . S
H673 C661 0.930 . S
H674 C667 0.929 . S
H675 C689 0.930 . S
H676 C668 0.930 . S
H677 C695 0.930 . S
H678 C686 0.929 . S
H679 C693 0.930 . S
H680 C657 0.931 . S
H681 C687 0.930 . S
H682 C720 0.930 . S
H683 C664 0.930 . S
H684 C719 0.931 . S
N685 Eu654 2.657 . S
N685 C686 1.334 . S
N685 C690 1.362 . S
C686 H678 0.929 . S
C686 N685 1.334 . S
C686 C689 1.413 . S
C687 H681 0.930 . S
C687 C688 1.392 . S
C687 C689 1.367 . S
C688 C687 1.392 . S
C688 C690 1.420 . S
C688 C720 1.423 . S
C689 H675 0.930 . S
C689 C686 1.413 . S
C689 C687 1.367 . S
C690 N685 1.362 . S
C690 C688 1.420 . S
C690 C694 1.429 . S
H691 C696 0.930 . S
N692 Eu654 2.609 . S
N692 C694 1.377 . S
N692 C695 1.321 . S
C693 H679 0.930 . S
C693 C695 1.400 . S
C693 C696 1.386 . S
C694 C690 1.429 . S
C694 N692 1.377 . S
C694 C697 1.411 . S
C695 H677 0.930 . S
C695 N692 1.321 . S
C695 C693 1.400 . S
C696 H691 0.930 . S
C696 C693 1.386 . S
C696 C697 1.395 . S
C697 C694 1.411 . S
C697 C696 1.395 . S
C697 C719 1.420 . S
O698 Eu654 2.558 . S
O698 C718 1.257 . S
O699 Eu654 2.612 . S
O699 Eu665 2.380 . S
O699 C710 1.276 . S
O700 Eu665 2.432 . S
O700 C717 1.264 . S
O701 Eu654 2.339 . S
O701 C717 1.254 . S
O702 Eu654 2.563 . S
O702 C710 1.235 . S
O703 Eu654 2.419 . S
O703 C718 1.249 . S
O704 Eu665 2.558 . S
O704 C729 1.257 . S
O705 Eu654 2.380 . S
O705 Eu665 2.612 . S
O705 C721 1.276 . S
O706 Eu654 2.432 . S
O706 C728 1.264 . S
O707 Eu665 2.339 . S
O707 C728 1.254 . S
O708 Eu665 2.563 . S
O708 C721 1.235 . S
O709 Eu665 2.419 . S
O709 C729 1.249 . S
C710 O699 1.276 . S
C710 O702 1.235 . S
C711 C713 1.393 . S
C711 C715 1.395 . S
C711 C718 1.492 . S
C712 C713 1.392 . S
C712 C714 1.386 . S
C713 C711 1.393 . S
C713 C712 1.392 . S
C713 H730 0.930 . S
C714 C712 1.386 . S
C714 C716 1.395 . S
C714 H731 0.930 . S
C715 C711 1.395 . S
C715 C716 1.379 . S
C715 H732 0.930 . S
C716 C714 1.395 . S
C716 C715 1.379 . S
C716 H733 0.930 . S
C717 O700 1.264 . S
C717 O701 1.254 . S
C718 Eu654 2.848 . S
C718 O698 1.257 . S
C718 O703 1.249 . S
C718 C711 1.492 . S
C719 H684 0.931 . S
C719 C697 1.420 . S
C719 C720 1.351 . S
C720 H682 0.930 . S
C720 C688 1.423 . S
C720 C719 1.351 . S
C721 O705 1.276 . S
C721 O708 1.235 . S
C722 C723 1.393 . S
C722 C726 1.395 . S
C722 C729 1.492 . S
C723 C722 1.393 . S
C723 C724 1.392 . S
C723 H734 0.930 . S
C724 C723 1.392 . S
C724 C725 1.386 . S
C725 C724 1.386 . S
C725 C727 1.395 . S
C725 H735 0.930 . S
C726 C722 1.395 . S
C726 C727 1.379 . S
C726 H736 0.930 . S
C727 C725 1.395 . S
C727 C726 1.379 . S
C727 H737 0.930 . S
C728 O706 1.264 . S
C728 O707 1.254 . S
C729 Eu665 2.848 . S
C729 O704 1.257 . S
C729 O709 1.249 . S
C729 C722 1.492 . S
H730 C713 0.930 . S
H731 C714 0.930 . S
H732 C715 0.930 . S
H733 C716 0.930 . S
H734 C723 0.930 . S
H735 C725 0.930 . S
H736 C726 0.930 . S
H737 C727 0.930 . S
Eu738 N769 2.657 . S
Eu738 N776 2.609 . S
Eu738 O782 2.558 . S
Eu738 O783 2.612 . S
Eu738 O785 2.339 . S
Eu738 O786 2.563 . S
Eu738 O787 2.419 . S
Eu738 O789 2.380 . S
Eu738 O790 2.432 . S
Eu738 C802 2.848 . S
C739 C742 1.429 . S
C739 C743 1.411 . S
C739 N746 1.377 . S
C740 C742 1.420 . S
C740 C744 1.423 . S
C740 C752 1.392 . S
C741 C743 1.420 . S
C741 C744 1.351 . S
C741 H764 0.931 . S
C742 C739 1.429 . S
C742 C740 1.420 . S
C742 N750 1.362 . S
C743 C739 1.411 . S
C743 C741 1.420 . S
C743 C748 1.395 . S
C744 C740 1.423 . S
C744 C741 1.351 . S
C744 H756 0.930 . S
C745 C747 1.400 . S
C745 C748 1.386 . S
C745 H757 0.930 . S
N746 C739 1.377 . S
N746 C747 1.321 . S
N746 Eu749 2.609 . S
C747 C745 1.400 . S
C747 N746 1.321 . S
C747 H754 0.930 . S
C748 C743 1.395 . S
C748 C745 1.386 . S
C748 H767 0.930 . S
Eu749 N746 2.609 . S
Eu749 N750 2.657 . S
Eu749 O783 2.380 . S
Eu749 O784 2.432 . S
Eu749 O788 2.558 . S
Eu749 O789 2.612 . S
Eu749 O791 2.339 . S
Eu749 O792 2.563 . S
Eu749 O793 2.419 . S
Eu749 C813 2.848 . S
N750 C742 1.362 . S
N750 Eu749 2.657 . S
N750 C751 1.334 . S
C751 N750 1.334 . S
C751 C753 1.413 . S
C751 H758 0.929 . S
C752 C740 1.392 . S
C752 C753 1.367 . S
C752 H760 0.930 1_655 S
C753 C751 1.413 . S
C753 C752 1.367 . S
C753 H755 0.930 . S
H754 C747 0.930 . S
H755 C753 0.930 . S
H756 C744 0.930 . S
H757 C745 0.930 . S
H758 C751 0.929 . S
H759 C773 0.930 . S
H760 C752 0.930 1_455 S
H761 C779 0.930 . S
H762 C770 0.929 . S
H763 C777 0.930 . S
H764 C741 0.931 . S
H765 C771 0.930 . S
H766 C804 0.930 . S
H767 C748 0.930 . S
H768 C803 0.931 . S
N769 Eu738 2.657 . S
N769 C770 1.334 . S
N769 C774 1.362 . S
C770 H762 0.929 . S
C770 N769 1.334 . S
C770 C773 1.413 . S
C771 H765 0.930 . S
C771 C772 1.392 . S
C771 C773 1.367 . S
C772 C771 1.392 . S
C772 C774 1.420 . S
C772 C804 1.423 . S
C773 H759 0.930 . S
C773 C770 1.413 . S
C773 C771 1.367 . S
C774 N769 1.362 . S
C774 C772 1.420 . S
C774 C778 1.429 . S
H775 C780 0.930 . S
N776 Eu738 2.609 . S
N776 C778 1.377 . S
N776 C779 1.321 . S
C777 H763 0.930 . S
C777 C779 1.400 . S
C777 C780 1.386 . S
C778 C774 1.429 . S
C778 N776 1.377 . S
C778 C781 1.411 . S
C779 H761 0.930 . S
C779 N776 1.321 . S
C779 C777 1.400 . S
C780 H775 0.930 . S
C780 C777 1.386 . S
C780 C781 1.395 . S
C781 C778 1.411 . S
C781 C780 1.395 . S
C781 C803 1.420 . S
O782 Eu738 2.558 . S
O782 C802 1.257 . S
O783 Eu738 2.612 . S
O783 Eu749 2.380 . S
O783 C794 1.276 . S
O784 Eu749 2.432 . S
O784 C801 1.264 . S
O785 Eu738 2.339 . S
O785 C801 1.254 . S
O786 Eu738 2.563 . S
O786 C794 1.235 . S
O787 Eu738 2.419 . S
O787 C802 1.249 . S
O788 Eu749 2.558 . S
O788 C813 1.257 . S
O789 Eu738 2.380 . S
O789 Eu749 2.612 . S
O789 C805 1.276 . S
O790 Eu738 2.432 . S
O790 C812 1.264 . S
O791 Eu749 2.339 . S
O791 C812 1.254 . S
O792 Eu749 2.563 . S
O792 C805 1.235 . S
O793 Eu749 2.419 . S
O793 C813 1.249 . S
C794 O783 1.276 . S
C794 O786 1.235 . S
C795 C797 1.393 . S
C795 C799 1.395 . S
C795 C802 1.492 . S
C796 C797 1.392 . S
C796 C798 1.386 . S
C797 C795 1.393 . S
C797 C796 1.392 . S
C797 H814 0.930 . S
C798 C796 1.386 . S
C798 C800 1.395 . S
C798 H815 0.930 . S
C799 C795 1.395 . S
C799 C800 1.379 . S
C799 H816 0.930 . S
C800 C798 1.395 . S
C800 C799 1.379 . S
C800 H817 0.930 . S
C801 O784 1.264 . S
C801 O785 1.254 . S
C802 Eu738 2.848 . S
C802 O782 1.257 . S
C802 O787 1.249 . S
C802 C795 1.492 . S
C803 H768 0.931 . S
C803 C781 1.420 . S
C803 C804 1.351 . S
C804 H766 0.930 . S
C804 C772 1.423 . S
C804 C803 1.351 . S
C805 O789 1.276 . S
C805 O792 1.235 . S
C806 C807 1.393 . S
C806 C810 1.395 . S
C806 C813 1.492 . S
C807 C806 1.393 . S
C807 C808 1.392 . S
C807 H818 0.930 . S
C808 C807 1.392 . S
C808 C809 1.386 . S
C809 C808 1.386 . S
C809 C811 1.395 . S
C809 H819 0.930 . S
C810 C806 1.395 . S
C810 C811 1.379 . S
C810 H820 0.930 . S
C811 C809 1.395 . S
C811 C810 1.379 . S
C811 H821 0.930 . S
C812 O790 1.264 . S
C812 O791 1.254 . S
C813 Eu749 2.848 . S
C813 O788 1.257 . S
C813 O793 1.249 . S
C813 C806 1.492 . S
H814 C797 0.930 . S
H815 C798 0.930 . S
H816 C799 0.930 . S
H817 C800 0.930 . S
H818 C807 0.930 . S
H819 C809 0.930 . S
H820 C810 0.930 . S
H821 C811 0.930 . S
Eu822 N853 2.657 . S
Eu822 N860 2.609 . S
Eu822 O866 2.558 . S
Eu822 O867 2.612 . S
Eu822 O869 2.339 . S
Eu822 O870 2.563 . S
Eu822 O871 2.419 . S
Eu822 O873 2.380 . S
Eu822 O874 2.432 . S
Eu822 C886 2.848 . S
C823 C826 1.429 . S
C823 C827 1.411 . S
C823 N830 1.377 . S
C824 C826 1.420 . S
C824 C828 1.423 . S
C824 C836 1.392 . S
C825 C827 1.420 . S
C825 C828 1.351 . S
C825 H848 0.931 . S
C826 C823 1.429 . S
C826 C824 1.420 . S
C826 N834 1.362 . S
C827 C823 1.411 . S
C827 C825 1.420 . S
C827 C832 1.395 . S
C828 C824 1.423 . S
C828 C825 1.351 . S
C828 H840 0.930 . S
C829 C831 1.400 . S
C829 C832 1.386 . S
C829 H841 0.930 . S
N830 C823 1.377 . S
N830 C831 1.321 . S
N830 Eu833 2.609 . S
C831 C829 1.400 . S
C831 N830 1.321 . S
C831 H838 0.930 . S
C832 C827 1.395 . S
C832 C829 1.386 . S
C832 H851 0.930 . S
Eu833 N830 2.609 . S
Eu833 N834 2.657 . S
Eu833 O867 2.380 . S
Eu833 O868 2.432 . S
Eu833 O872 2.558 . S
Eu833 O873 2.612 . S
Eu833 O875 2.339 . S
Eu833 O876 2.563 . S
Eu833 O877 2.419 . S
Eu833 C897 2.848 . S
N834 C826 1.362 . S
N834 Eu833 2.657 . S
N834 C835 1.334 . S
C835 N834 1.334 . S
C835 C837 1.413 . S
C835 H842 0.929 . S
C836 C824 1.392 . S
C836 C837 1.367 . S
C836 H844 0.930 . S
C837 C835 1.413 . S
C837 C836 1.367 . S
C837 H839 0.930 . S
H838 C831 0.930 . S
H839 C837 0.930 . S
H840 C828 0.930 . S
H841 C829 0.930 . S
H842 C835 0.929 . S
H843 C857 0.930 . S
H844 C836 0.930 . S
H845 C863 0.930 . S
H846 C854 0.929 . S
H847 C861 0.930 . S
H848 C825 0.931 . S
H849 C855 0.930 . S
H850 C888 0.930 . S
H851 C832 0.930 . S
H852 C887 0.931 . S
N853 Eu822 2.657 . S
N853 C854 1.334 . S
N853 C858 1.362 . S
C854 H846 0.929 . S
C854 N853 1.334 . S
C854 C857 1.413 . S
C855 H849 0.930 . S
C855 C856 1.392 . S
C855 C857 1.367 . S
C856 C855 1.392 . S
C856 C858 1.420 . S
C856 C888 1.423 . S
C857 H843 0.930 . S
C857 C854 1.413 . S
C857 C855 1.367 . S
C858 N853 1.362 . S
C858 C856 1.420 . S
C858 C862 1.429 . S
H859 C864 0.930 . S
N860 Eu822 2.609 . S
N860 C862 1.377 . S
N860 C863 1.321 . S
C861 H847 0.930 . S
C861 C863 1.400 . S
C861 C864 1.386 . S
C862 C858 1.429 . S
C862 N860 1.377 . S
C862 C865 1.411 . S
C863 H845 0.930 . S
C863 N860 1.321 . S
C863 C861 1.400 . S
C864 H859 0.930 . S
C864 C861 1.386 . S
C864 C865 1.395 . S
C865 C862 1.411 . S
C865 C864 1.395 . S
C865 C887 1.420 . S
O866 Eu822 2.558 . S
O866 C886 1.257 . S
O867 Eu822 2.612 . S
O867 Eu833 2.380 . S
O867 C878 1.276 . S
O868 Eu833 2.432 . S
O868 C885 1.264 . S
O869 Eu822 2.339 . S
O869 C885 1.254 . S
O870 Eu822 2.563 . S
O870 C878 1.235 . S
O871 Eu822 2.419 . S
O871 C886 1.249 . S
O872 Eu833 2.558 . S
O872 C897 1.257 . S
O873 Eu822 2.380 . S
O873 Eu833 2.612 . S
O873 C889 1.276 . S
O874 Eu822 2.432 . S
O874 C896 1.264 . S
O875 Eu833 2.339 . S
O875 C896 1.254 . S
O876 Eu833 2.563 . S
O876 C889 1.235 . S
O877 Eu833 2.419 . S
O877 C897 1.249 . S
C878 O867 1.276 . S
C878 O870 1.235 . S
C879 C881 1.393 . S
C879 C883 1.395 . S
C879 C886 1.492 . S
C880 C881 1.392 . S
C880 C882 1.386 . S
C881 C879 1.393 . S
C881 C880 1.392 . S
C881 H898 0.930 . S
C882 C880 1.386 . S
C882 C884 1.395 . S
C882 H899 0.930 . S
C883 C879 1.395 . S
C883 C884 1.379 . S
C883 H900 0.930 . S
C884 C882 1.395 . S
C884 C883 1.379 . S
C884 H901 0.930 . S
C885 O868 1.264 . S
C885 O869 1.254 . S
C886 Eu822 2.848 . S
C886 O866 1.257 . S
C886 O871 1.249 . S
C886 C879 1.492 . S
C887 H852 0.931 . S
C887 C865 1.420 . S
C887 C888 1.351 . S
C888 H850 0.930 . S
C888 C856 1.423 . S
C888 C887 1.351 . S
C889 O873 1.276 . S
C889 O876 1.235 . S
C890 C891 1.393 . S
C890 C894 1.395 . S
C890 C897 1.492 . S
C891 C890 1.393 . S
C891 C892 1.392 . S
C891 H902 0.930 . S
C892 C891 1.392 . S
C892 C893 1.386 . S
C893 C892 1.386 . S
C893 C895 1.395 . S
C893 H903 0.930 . S
C894 C890 1.395 . S
C894 C895 1.379 . S
C894 H904 0.930 . S
C895 C893 1.395 . S
C895 C894 1.379 . S
C895 H905 0.930 . S
C896 O874 1.264 . S
C896 O875 1.254 . S
C897 Eu833 2.848 . S
C897 O872 1.257 . S
C897 O877 1.249 . S
C897 C890 1.492 . S
H898 C881 0.930 . S
H899 C882 0.930 . S
H900 C883 0.930 . S
H901 C884 0.930 . S
H902 C891 0.930 . S
H903 C893 0.930 . S
H904 C894 0.930 . S
H905 C895 0.930 . S
Eu906 N937 2.657 . S
Eu906 N944 2.609 . S
Eu906 O950 2.558 . S
Eu906 O951 2.612 . S
Eu906 O953 2.339 . S
Eu906 O954 2.563 . S
Eu906 O955 2.419 . S
Eu906 O957 2.380 . S
Eu906 O958 2.432 . S
Eu906 C970 2.848 . S
C907 C910 1.429 . S
C907 C911 1.411 . S
C907 N914 1.377 . S
C908 C910 1.420 . S
C908 C912 1.423 . S
C908 C920 1.392 . S
C909 C911 1.420 . S
C909 C912 1.351 . S
C909 H932 0.931 . S
C910 C907 1.429 . S
C910 C908 1.420 . S
C910 N918 1.362 . S
C911 C907 1.411 . S
C911 C909 1.420 . S
C911 C916 1.395 . S
C912 C908 1.423 . S
C912 C909 1.351 . S
C912 H924 0.930 . S
C913 C915 1.400 . S
C913 C916 1.386 . S
C913 H925 0.930 . S
N914 C907 1.377 . S
N914 C915 1.321 . S
N914 Eu917 2.609 . S
C915 C913 1.400 . S
C915 N914 1.321 . S
C915 H922 0.930 . S
C916 C911 1.395 . S
C916 C913 1.386 . S
C916 H935 0.930 . S
Eu917 N914 2.609 . S
Eu917 N918 2.657 . S
Eu917 O951 2.380 . S
Eu917 O952 2.432 . S
Eu917 O956 2.558 . S
Eu917 O957 2.612 . S
Eu917 O959 2.339 . S
Eu917 O960 2.563 . S
Eu917 O961 2.419 . S
Eu917 C981 2.848 . S
N918 C910 1.362 . S
N918 Eu917 2.657 . S
N918 C919 1.334 . S
C919 N918 1.334 . S
C919 C921 1.413 . S
C919 H926 0.929 . S
C920 C908 1.392 . S
C920 C921 1.367 . S
C920 H928 0.930 . S
C921 C919 1.413 . S
C921 C920 1.367 . S
C921 H923 0.930 . S
H922 C915 0.930 . S
H923 C921 0.930 . S
H924 C912 0.930 . S
H925 C913 0.930 . S
H926 C919 0.929 . S
H927 C941 0.930 . S
H928 C920 0.930 . S
H929 C947 0.930 . S
H930 C938 0.929 . S
H931 C945 0.930 . S
H932 C909 0.931 . S
H933 C939 0.930 . S
H934 C972 0.930 . S
H935 C916 0.930 . S
H936 C971 0.931 . S
N937 Eu906 2.657 . S
N937 C938 1.334 . S
N937 C942 1.362 . S
C938 H930 0.929 . S
C938 N937 1.334 . S
C938 C941 1.413 . S
C939 H933 0.930 . S
C939 C940 1.392 . S
C939 C941 1.367 . S
C940 C939 1.392 . S
C940 C942 1.420 . S
C940 C972 1.423 . S
C941 H927 0.930 . S
C941 C938 1.413 . S
C941 C939 1.367 . S
C942 N937 1.362 . S
C942 C940 1.420 . S
C942 C946 1.429 . S
H943 C948 0.930 . S
N944 Eu906 2.609 . S
N944 C946 1.377 . S
N944 C947 1.321 . S
C945 H931 0.930 . S
C945 C947 1.400 . S
C945 C948 1.386 . S
C946 C942 1.429 . S
C946 N944 1.377 . S
C946 C949 1.411 . S
C947 H929 0.930 . S
C947 N944 1.321 . S
C947 C945 1.400 . S
C948 H943 0.930 . S
C948 C945 1.386 . S
C948 C949 1.395 . S
C949 C946 1.411 . S
C949 C948 1.395 . S
C949 C971 1.420 . S
O950 Eu906 2.558 . S
O950 C970 1.257 . S
O951 Eu906 2.612 . S
O951 Eu917 2.380 . S
O951 C962 1.276 . S
O952 Eu917 2.432 . S
O952 C969 1.264 . S
O953 Eu906 2.339 . S
O953 C969 1.254 . S
O954 Eu906 2.563 . S
O954 C962 1.235 . S
O955 Eu906 2.419 . S
O955 C970 1.249 . S
O956 Eu917 2.558 . S
O956 C981 1.257 . S
O957 Eu906 2.380 . S
O957 Eu917 2.612 . S
O957 C973 1.276 . S
O958 Eu906 2.432 . S
O958 C980 1.264 . S
O959 Eu917 2.339 . S
O959 C980 1.254 . S
O960 Eu917 2.563 . S
O960 C973 1.235 . S
O961 Eu917 2.419 . S
O961 C981 1.249 . S
C962 O951 1.276 . S
C962 O954 1.235 . S
C963 C965 1.393 . S
C963 C967 1.395 . S
C963 C970 1.492 . S
C964 C965 1.392 . S
C964 C966 1.386 . S
C965 C963 1.393 . S
C965 C964 1.392 . S
C965 H982 0.930 . S
C966 C964 1.386 . S
C966 C968 1.395 . S
C966 H983 0.930 . S
C967 C963 1.395 . S
C967 C968 1.379 . S
C967 H984 0.930 . S
C968 C966 1.395 . S
C968 C967 1.379 . S
C968 H985 0.930 . S
C969 O952 1.264 . S
C969 O953 1.254 . S
C970 Eu906 2.848 . S
C970 O950 1.257 . S
C970 O955 1.249 . S
C970 C963 1.492 . S
C971 H936 0.931 . S
C971 C949 1.420 . S
C971 C972 1.351 . S
C972 H934 0.930 . S
C972 C940 1.423 . S
C972 C971 1.351 . S
C973 O957 1.276 . S
C973 O960 1.235 . S
C974 C975 1.393 . S
C974 C978 1.395 . S
C974 C981 1.492 . S
C975 C974 1.393 . S
C975 C976 1.392 . S
C975 H986 0.930 . S
C976 C975 1.392 . S
C976 C977 1.386 . S
C977 C976 1.386 . S
C977 C979 1.395 . S
C977 H987 0.930 . S
C978 C974 1.395 . S
C978 C979 1.379 . S
C978 H988 0.930 . S
C979 C977 1.395 . S
C979 C978 1.379 . S
C979 H989 0.930 . S
C980 O958 1.264 . S
C980 O959 1.254 . S
C981 Eu917 2.848 . S
C981 O956 1.257 . S
C981 O961 1.249 . S
C981 C974 1.492 . S
H982 C965 0.930 . S
H983 C966 0.930 . S
H984 C967 0.930 . S
H985 C968 0.930 . S
H986 C975 0.930 . S
H987 C977 0.930 . S
H988 C978 0.930 . S
H989 C979 0.930 . S
C990 C991 1.391 . S
C990 C992 1.394 . S
C990 H1006 0.931 . S
C991 C990 1.391 . S
C991 C995 1.376 . S
C992 C990 1.394 . S
C992 C993 1.369 . S
C992 C996 1.531 . S
C993 C992 1.369 . S
C993 C994 1.410 . S
C993 C1001 1.503 . S
C994 C993 1.410 . S
C994 C995 1.392 . S
C994 C997 1.511 . S
C995 C991 1.376 . S
C995 C994 1.392 . S
C995 H1007 0.929 . S
C996 C992 1.531 . S
C996 H1008 0.960 . S
C996 H1009 0.962 . S
C996 H1010 0.960 . S
C997 C994 1.511 . S
C997 H1011 0.961 . S
C997 H1012 0.961 . S
C997 H1013 0.961 . S
C998 C999 1.370 . S
C998 C1000 1.363 . S
C998 H1014 0.931 . S
C999 C998 1.370 . S
C999 C1003 1.408 . S
C1000 C998 1.363 . S
C1000 C1001 1.370 . S
C1000 C1004 1.524 . S
C1001 C993 1.503 . S
C1001 C1000 1.370 . S
C1001 C1002 1.403 . S
C1002 C1001 1.403 . S
C1002 C1003 1.404 . S
C1002 C1005 1.539 . S
C1003 C999 1.408 . S
C1003 C1002 1.404 . S
C1003 H1015 0.930 . S
C1004 C1000 1.524 . S
C1004 H1016 0.956 . S
C1004 H1017 0.961 . S
C1004 H1018 0.961 . S
C1005 C1002 1.539 . S
C1005 H1019 0.958 . S
C1005 H1020 0.961 1_554 S
C1005 H1021 0.960 . S
H1006 C990 0.931 . S
H1007 C995 0.929 . S
H1008 C996 0.960 . S
H1009 C996 0.962 . S
H1010 C996 0.960 . S
H1011 C997 0.961 . S
H1012 C997 0.961 . S
H1013 C997 0.961 . S
H1014 C998 0.931 . S
H1015 C1003 0.930 . S
H1016 C1004 0.956 . S
H1017 C1004 0.961 . S
H1018 C1004 0.961 . S
H1019 C1005 0.958 . S
H1020 C1005 0.961 1_556 S
H1021 C1005 0.960 . S
C1022 C1023 1.391 . S
C1022 C1024 1.394 . S
C1022 H1038 0.931 . S
C1023 C1022 1.391 . S
C1023 C1027 1.376 . S
C1024 C1022 1.394 . S
C1024 C1025 1.369 . S
C1024 C1028 1.531 . S
C1025 C1024 1.369 . S
C1025 C1026 1.410 . S
C1025 C1033 1.503 . S
C1026 C1025 1.410 . S
C1026 C1027 1.392 . S
C1026 C1029 1.511 . S
C1027 C1023 1.376 . S
C1027 C1026 1.392 . S
C1027 H1039 0.929 . S
C1028 C1024 1.531 . S
C1028 H1040 0.960 . S
C1028 H1041 0.962 . S
C1028 H1042 0.960 . S
C1029 C1026 1.511 . S
C1029 H1043 0.961 . S
C1029 H1044 0.961 . S
C1029 H1045 0.961 . S
C1030 C1031 1.370 . S
C1030 C1032 1.363 . S
C1030 H1046 0.931 . S
C1031 C1030 1.370 . S
C1031 C1035 1.408 . S
C1032 C1030 1.363 . S
C1032 C1033 1.370 . S
C1032 C1036 1.524 . S
C1033 C1025 1.503 . S
C1033 C1032 1.370 . S
C1033 C1034 1.403 . S
C1034 C1033 1.403 . S
C1034 C1035 1.404 . S
C1034 C1037 1.539 . S
C1035 C1031 1.408 . S
C1035 C1034 1.404 . S
C1035 H1047 0.930 . S
C1036 C1032 1.524 . S
C1036 H1048 0.956 . S
C1036 H1049 0.961 . S
C1036 H1050 0.961 . S
C1037 C1034 1.539 . S
C1037 H1051 0.958 . S
C1037 H1052 0.961 . S
C1037 H1053 0.960 . S
H1038 C1022 0.931 . S
H1039 C1027 0.929 . S
H1040 C1028 0.960 . S
H1041 C1028 0.962 . S
H1042 C1028 0.960 . S
H1043 C1029 0.961 . S
H1044 C1029 0.961 . S
H1045 C1029 0.961 . S
H1046 C1030 0.931 . S
H1047 C1035 0.930 . S
H1048 C1036 0.956 . S
H1049 C1036 0.961 . S
H1050 C1036 0.961 . S
H1051 C1037 0.958 . S
H1052 C1037 0.961 . S
H1053 C1037 0.960 . S
C1054 C1055 1.391 . S
C1054 C1056 1.394 . S
C1054 H1070 0.931 . S
C1055 C1054 1.391 . S
C1055 C1059 1.376 . S
C1056 C1054 1.394 . S
C1056 C1057 1.369 . S
C1056 C1060 1.531 . S
C1057 C1056 1.369 . S
C1057 C1058 1.410 . S
C1057 C1065 1.503 . S
C1058 C1057 1.410 . S
C1058 C1059 1.392 . S
C1058 C1061 1.511 . S
C1059 C1055 1.376 . S
C1059 C1058 1.392 . S
C1059 H1071 0.929 . S
C1060 C1056 1.531 . S
C1060 H1072 0.960 . S
C1060 H1073 0.962 . S
C1060 H1074 0.960 . S
C1061 C1058 1.511 . S
C1061 H1075 0.961 . S
C1061 H1076 0.961 . S
C1061 H1077 0.961 . S
C1062 C1063 1.370 . S
C1062 C1064 1.363 . S
C1062 H1078 0.931 . S
C1063 C1062 1.370 . S
C1063 C1067 1.408 . S
C1064 C1062 1.363 . S
C1064 C1065 1.370 . S
C1064 C1068 1.524 . S
C1065 C1057 1.503 . S
C1065 C1064 1.370 . S
C1065 C1066 1.403 . S
C1066 C1065 1.403 . S
C1066 C1067 1.404 . S
C1066 C1069 1.539 . S
C1067 C1063 1.408 . S
C1067 C1066 1.404 . S
C1067 H1079 0.930 . S
C1068 C1064 1.524 . S
C1068 H1080 0.956 . S
C1068 H1081 0.961 . S
C1068 H1082 0.961 . S
C1069 C1066 1.539 . S
C1069 H1083 0.941 1_554 S
C1069 H1084 0.961 . S
C1069 H1085 0.960 . S
H1070 C1054 0.931 . S
H1071 C1059 0.929 . S
H1072 C1060 0.960 . S
H1073 C1060 0.962 . S
H1074 C1060 0.960 . S
H1075 C1061 0.961 . S
H1076 C1061 0.961 . S
H1077 C1061 0.961 . S
H1078 C1062 0.931 . S
H1079 C1067 0.930 . S
H1080 C1068 0.956 . S
H1081 C1068 0.961 . S
H1082 C1068 0.961 . S
H1083 C1069 0.941 1_556 S
H1084 C1069 0.961 . S
H1085 C1069 0.960 . S
C1086 C1087 1.391 . S
C1086 C1088 1.394 . S
C1086 H1102 0.931 . S
C1087 C1086 1.391 . S
C1087 C1091 1.376 . S
C1088 C1086 1.394 . S
C1088 C1089 1.369 . S
C1088 C1092 1.531 . S
C1089 C1088 1.369 . S
C1089 C1090 1.410 . S
C1089 C1097 1.503 . S
C1090 C1089 1.410 . S
C1090 C1091 1.392 . S
C1090 C1093 1.511 . S
C1091 C1087 1.376 . S
C1091 C1090 1.392 . S
C1091 H1103 0.929 . S
C1092 C1088 1.531 . S
C1092 H1104 0.960 . S
C1092 H1105 0.962 . S
C1092 H1106 0.960 . S
C1093 C1090 1.511 . S
C1093 H1107 0.961 . S
C1093 H1108 0.961 . S
C1093 H1109 0.961 . S
C1094 C1095 1.370 1_554 S
C1094 C1096 1.363 . S
C1094 H1110 0.931 . S
C1095 C1094 1.370 1_556 S
C1095 C1099 1.408 . S
C1096 C1094 1.363 . S
C1096 C1097 1.370 1_554 S
C1096 C1100 1.524 . S
C1097 C1089 1.503 . S
C1097 C1096 1.370 1_556 S
C1097 C1098 1.403 . S
C1098 C1097 1.403 . S
C1098 C1099 1.404 . S
C1098 C1101 1.539 . S
C1099 C1095 1.408 . S
C1099 C1098 1.404 . S
C1099 H1111 0.930 . S
C1100 C1096 1.524 . S
C1100 H1112 0.956 . S
C1100 H1113 0.961 . S
C1100 H1114 0.961 . S
C1101 C1098 1.539 . S
C1101 H1115 0.958 . S
C1101 H1116 0.961 . S
C1101 H1117 0.960 . S
H1102 C1086 0.931 . S
H1103 C1091 0.929 . S
H1104 C1092 0.960 . S
H1105 C1092 0.962 . S
H1106 C1092 0.960 . S
H1107 C1093 0.961 . S
H1108 C1093 0.961 . S
H1109 C1093 0.961 . S
H1110 C1094 0.931 . S
H1111 C1099 0.930 . S
H1112 C1100 0.956 . S
H1113 C1100 0.961 . S
H1114 C1100 0.961 . S
H1115 C1101 0.958 . S
H1116 C1101 0.961 . S
H1117 C1101 0.960 . S
C1118 C1119 1.391 . S
C1118 C1120 1.394 . S
C1118 H1134 0.931 . S
C1119 C1118 1.391 . S
C1119 C1123 1.376 . S
C1120 C1118 1.394 . S
C1120 C1121 1.369 . S
C1120 C1124 1.531 . S
C1121 C1120 1.369 . S
C1121 C1122 1.410 . S
C1121 C1129 1.503 . S
C1122 C1121 1.410 . S
C1122 C1123 1.392 . S
C1122 C1125 1.511 1_556 S
C1123 C1119 1.376 . S
C1123 C1122 1.392 . S
C1123 H1135 0.929 . S
C1124 C1120 1.531 . S
C1124 H1136 0.960 . S
C1124 H1137 0.962 . S
C1124 H1138 0.960 . S
C1125 C1122 1.511 1_554 S
C1125 H1139 0.961 . S
C1125 H1140 0.961 . S
C1125 H1141 0.961 . S
C1126 C1127 1.370 1_556 S
C1126 C1128 1.363 . S
C1126 H1142 0.931 . S
C1127 C1126 1.370 1_554 S
C1127 C1131 1.408 . S
C1128 C1126 1.363 . S
C1128 C1129 1.370 . S
C1128 C1132 1.524 . S
C1129 C1121 1.503 . S
C1129 C1128 1.370 . S
C1129 C1130 1.403 1_556 S
C1130 C1129 1.403 1_554 S
C1130 C1131 1.404 . S
C1130 C1133 1.539 . S
C1131 C1127 1.408 . S
C1131 C1130 1.404 . S
C1131 H1143 0.930 . S
C1132 C1128 1.524 . S
C1132 H1144 0.956 . S
C1132 H1145 0.961 . S
C1132 H1146 0.961 . S
C1133 C1130 1.539 . S
C1133 H1147 0.958 . S
C1133 H1148 0.961 . S
C1133 H1149 0.960 . S
H1134 C1118 0.931 . S
H1135 C1123 0.929 . S
H1136 C1124 0.960 . S
H1137 C1124 0.962 . S
H1138 C1124 0.960 . S
H1139 C1125 0.961 . S
H1140 C1125 0.961 . S
H1141 C1125 0.961 . S
H1142 C1126 0.931 . S
H1143 C1131 0.930 . S
H1144 C1132 0.956 . S
H1145 C1132 0.961 . S
H1146 C1132 0.961 . S
H1147 C1133 0.958 . S
H1148 C1133 0.961 . S
H1149 C1133 0.960 . S
C1150 C1151 1.391 . S
C1150 C1152 1.394 . S
C1150 H1166 0.931 . S
C1151 C1150 1.391 . S
C1151 C1155 1.376 . S
C1152 C1150 1.394 . S
C1152 C1153 1.369 . S
C1152 C1156 1.531 . S
C1153 C1152 1.369 . S
C1153 C1154 1.410 . S
C1153 C1161 1.503 . S
C1154 C1153 1.410 . S
C1154 C1155 1.392 . S
C1154 C1157 1.511 1_556 S
C1155 C1151 1.376 . S
C1155 C1154 1.392 . S
C1155 H1167 0.929 . S
C1156 C1152 1.531 . S
C1156 H1168 0.960 . S
C1156 H1169 0.962 . S
C1156 H1170 0.960 . S
C1157 C1154 1.511 1_554 S
C1157 H1171 0.961 . S
C1157 H1172 0.961 . S
C1157 H1173 0.961 . S
C1158 C1159 1.370 1_556 S
C1158 C1160 1.363 . S
C1158 H1174 0.931 . S
C1159 C1158 1.370 1_554 S
C1159 C1163 1.408 . S
C1160 C1158 1.363 . S
C1160 C1161 1.370 . S
C1160 C1164 1.524 . S
C1161 C1153 1.503 . S
C1161 C1160 1.370 . S
C1161 C1162 1.403 1_556 S
C1162 C1161 1.403 1_554 S
C1162 C1163 1.404 . S
C1162 C1165 1.539 . S
C1163 C1159 1.408 . S
C1163 C1162 1.404 . S
C1163 H1175 0.930 . S
C1164 C1160 1.524 . S
C1164 H1176 0.956 . S
C1164 H1177 0.961 . S
C1164 H1178 0.961 . S
C1165 C1162 1.539 . S
C1165 H1179 0.958 . S
C1165 H1180 0.961 . S
C1165 H1181 0.960 . S
H1166 C1150 0.931 . S
H1167 C1155 0.929 . S
H1168 C1156 0.960 . S
H1169 C1156 0.962 . S
H1170 C1156 0.960 . S
H1171 C1157 0.961 . S
H1172 C1157 0.961 . S
H1173 C1157 0.961 . S
H1174 C1158 0.931 . S
H1175 C1163 0.930 . S
H1176 C1164 0.956 . S
H1177 C1164 0.961 . S
H1178 C1164 0.961 . S
H1179 C1165 0.958 . S
H1180 C1165 0.961 . S
H1181 C1165 0.960 . S
C1182 C1183 1.391 . S
C1182 C1184 1.394 . S
C1182 H1198 0.931 . S
C1183 C1182 1.391 . S
C1183 C1187 1.376 . S
C1184 C1182 1.394 . S
C1184 C1185 1.369 . S
C1184 C1188 1.531 . S
C1185 C1184 1.369 . S
C1185 C1186 1.414 . S
C1185 C1193 1.503 . S
C1186 C1185 1.414 . S
C1186 C1187 1.393 . S
C1186 C1189 1.506 1_556 S
C1187 C1183 1.376 . S
C1187 C1186 1.393 . S
C1187 H1199 0.929 1_556 S
C1188 C1184 1.531 . S
C1188 H1200 0.960 . S
C1188 H1201 0.962 . S
C1188 H1202 0.960 . S
C1189 C1186 1.506 1_554 S
C1189 H1203 0.961 . S
C1189 H1204 0.961 . S
C1189 H1205 0.961 . S
C1190 C1191 1.370 . S
C1190 C1192 1.363 1_554 S
C1190 H1206 0.931 . S
C1191 C1190 1.370 . S
C1191 C1195 1.408 1_554 S
C1192 C1190 1.363 1_556 S
C1192 C1193 1.370 . S
C1192 C1196 1.524 . S
C1193 C1185 1.503 . S
C1193 C1192 1.370 . S
C1193 C1194 1.403 . S
C1194 C1193 1.403 . S
C1194 C1195 1.404 . S
C1194 C1197 1.539 . S
C1195 C1191 1.408 1_556 S
C1195 C1194 1.404 . S
C1195 H1207 0.930 . S
C1196 C1192 1.524 . S
C1196 H1208 0.956 . S
C1196 H1209 0.961 1_556 S
C1196 H1210 0.961 1_556 S
C1197 C1194 1.539 . S
C1197 H1211 0.958 . S
C1197 H1212 0.961 . S
C1197 H1213 0.960 . S
H1198 C1182 0.931 . S
H1199 C1187 0.929 1_554 S
H1200 C1188 0.960 . S
H1201 C1188 0.962 . S
H1202 C1188 0.960 . S
H1203 C1189 0.961 . S
H1204 C1189 0.961 . S
H1205 C1189 0.961 . S
H1206 C1190 0.931 . S
H1207 C1195 0.930 . S
H1208 C1196 0.956 . S
H1209 C1196 0.961 1_554 S
H1210 C1196 0.961 1_554 S
H1211 C1197 0.958 . S
H1212 C1197 0.961 . S
H1213 C1197 0.960 . S
C1214 C1215 1.391 . S
C1214 C1216 1.394 . S
C1214 H1230 0.931 . S
C1215 C1214 1.391 . S
C1215 C1219 1.376 . S
C1216 C1214 1.394 . S
C1216 C1217 1.369 . S
C1216 C1220 1.531 1_556 S
C1217 C1216 1.369 . S
C1217 C1218 1.410 . S
C1217 C1225 1.503 . S
C1218 C1217 1.410 . S
C1218 C1219 1.392 . S
C1218 C1221 1.511 . S
C1219 C1215 1.376 . S
C1219 C1218 1.392 . S
C1219 H1231 0.929 . S
C1220 C1216 1.531 1_554 S
C1220 H1232 0.960 . S
C1220 H1233 0.962 . S
C1220 H1234 0.960 . S
C1221 C1218 1.511 . S
C1221 H1235 0.961 . S
C1221 H1236 0.961 . S
C1221 H1237 0.961 . S
C1222 C1223 1.370 . S
C1222 C1224 1.363 . S
C1222 H1238 0.931 . S
C1223 C1222 1.370 . S
C1223 C1227 1.408 . S
C1224 C1222 1.363 . S
C1224 C1225 1.370 . S
C1224 C1228 1.524 . S
C1225 C1217 1.503 . S
C1225 C1224 1.370 . S
C1225 C1226 1.403 . S
C1226 C1225 1.403 . S
C1226 C1227 1.404 . S
C1226 C1229 1.539 . S
C1227 C1223 1.408 . S
C1227 C1226 1.404 . S
C1227 H1239 0.930 . S
C1228 C1224 1.524 . S
C1228 H1240 0.956 . S
C1228 H1241 0.961 . S
C1228 H1242 0.961 . S
C1229 C1226 1.539 . S
C1229 H1243 0.958 . S
C1229 H1244 0.961 . S
C1229 H1245 0.960 . S
H1230 C1214 0.931 . S
H1231 C1219 0.929 . S
H1232 C1220 0.960 . S
H1233 C1220 0.962 . S
H1234 C1220 0.960 . S
H1235 C1221 0.961 . S
H1236 C1221 0.961 . S
H1237 C1221 0.961 . S
H1238 C1222 0.931 . S
H1239 C1227 0.930 . S
H1240 C1228 0.956 . S
H1241 C1228 0.961 . S
H1242 C1228 0.961 . S
H1243 C1229 0.958 . S
H1244 C1229 0.961 . S
H1245 C1229 0.960 . S
C1246 C1247 1.391 . S
C1246 C1248 1.389 1_556 S
C1246 H1262 0.931 . S
C1247 C1246 1.391 . S
C1247 C1251 1.376 . S
C1248 C1246 1.389 1_554 S
C1248 C1249 1.373 1_554 S
C1248 C1252 1.535 . S
C1249 C1248 1.373 1_556 S
C1249 C1250 1.432 . S
C1249 C1257 1.484 1_556 S
C1250 C1249 1.432 . S
C1250 C1251 1.392 . S
C1250 C1253 1.511 . S
C1251 C1247 1.376 . S
C1251 C1250 1.392 . S
C1251 H1263 0.929 . S
C1252 C1248 1.535 . S
C1252 H1264 0.960 . S
C1252 H1265 0.967 . S
C1252 H1266 0.960 . S
C1253 C1250 1.511 . S
C1253 H1267 0.961 . S
C1253 H1268 0.961 . S
C1253 H1269 0.961 1_556 S
C1254 C1255 1.370 1_556 S
C1254 C1256 1.363 . S
C1254 H1270 0.931 . S
C1255 C1254 1.370 1_554 S
C1255 C1259 1.408 . S
C1256 C1254 1.363 . S
C1256 C1257 1.370 1_556 S
C1256 C1260 1.524 . S
C1257 C1249 1.484 1_554 S
C1257 C1256 1.370 1_554 S
C1257 C1258 1.403 . S
C1258 C1257 1.403 . S
C1258 C1259 1.404 . S
C1258 C1261 1.539 . S
C1259 C1255 1.408 . S
C1259 C1258 1.404 . S
C1259 H1271 0.930 . S
C1260 C1256 1.524 . S
C1260 H1272 0.956 . S
C1260 H1273 0.961 . S
C1260 H1274 0.961 . S
C1261 C1258 1.539 . S
C1261 H1275 0.958 . S
C1261 H1276 0.961 . S
C1261 H1277 0.960 . S
H1262 C1246 0.931 . S
H1263 C1251 0.929 . S
H1264 C1252 0.960 . S
H1265 C1252 0.967 . S
H1266 C1252 0.960 . S
H1267 C1253 0.961 . S
H1268 C1253 0.961 . S
H1269 C1253 0.961 1_554 S
H1270 C1254 0.931 . S
H1271 C1259 0.930 . S
H1272 C1260 0.956 . S
H1273 C1260 0.961 . S
H1274 C1260 0.961 . S
H1275 C1261 0.958 . S
H1276 C1261 0.961 . S
H1277 C1261 0.960 . S
C1278 C1279 1.391 . S
C1278 C1280 1.394 . S
C1278 H1294 0.931 . S
C1279 C1278 1.391 . S
C1279 C1283 1.376 . S
C1280 C1278 1.394 . S
C1280 C1281 1.369 . S
C1280 C1284 1.531 . S
C1281 C1280 1.369 . S
C1281 C1282 1.410 . S
C1281 C1289 1.503 . S
C1282 C1281 1.410 . S
C1282 C1283 1.392 . S
C1282 C1285 1.511 . S
C1283 C1279 1.376 . S
C1283 C1282 1.392 . S
C1283 H1295 0.929 . S
C1284 C1280 1.531 . S
C1284 H1296 0.960 . S
C1284 H1297 0.962 . S
C1284 H1298 0.960 . S
C1285 C1282 1.511 . S
C1285 H1299 0.961 . S
C1285 H1300 0.961 . S
C1285 H1301 0.961 . S
C1286 C1287 1.370 . S
C1286 C1288 1.363 . S
C1286 H1302 0.949 . S
C1287 C1286 1.370 . S
C1287 C1291 1.408 . S
C1288 C1286 1.363 . S
C1288 C1289 1.370 . S
C1288 C1292 1.524 . S
C1289 C1281 1.503 . S
C1289 C1288 1.370 . S
C1289 C1290 1.403 . S
C1290 C1289 1.403 . S
C1290 C1291 1.404 . S
C1290 C1293 1.539 . S
C1291 C1287 1.408 . S
C1291 C1290 1.404 . S
C1291 H1303 0.930 . S
C1292 C1288 1.524 . S
C1292 H1304 0.956 . S
C1292 H1305 0.961 . S
C1292 H1306 0.961 1_554 S
C1293 C1290 1.539 . S
C1293 H1307 0.958 . S
C1293 H1308 0.961 . S
C1293 H1309 0.960 . S
H1294 C1278 0.931 . S
H1295 C1283 0.929 . S
H1296 C1284 0.960 . S
H1297 C1284 0.962 . S
H1298 C1284 0.960 . S
H1299 C1285 0.961 . S
H1300 C1285 0.961 . S
H1301 C1285 0.961 . S
H1302 C1286 0.949 . S
H1303 C1291 0.930 . S
H1304 C1292 0.956 . S
H1305 C1292 0.961 . S
H1306 C1292 0.961 1_556 S
H1307 C1293 0.958 . S
H1308 C1293 0.961 . S
H1309 C1293 0.960 . S
C1310 C1311 1.391 . S
C1310 C1312 1.394 . S
C1310 H1326 0.931 . S
C1311 C1310 1.391 . S
C1311 C1315 1.376 . S
C1312 C1310 1.394 . S
C1312 C1313 1.369 . S
C1312 C1316 1.531 . S
C1313 C1312 1.369 . S
C1313 C1314 1.410 . S
C1313 C1321 1.503 . S
C1314 C1313 1.410 . S
C1314 C1315 1.392 . S
C1314 C1317 1.511 . S
C1315 C1311 1.376 . S
C1315 C1314 1.392 . S
C1315 H1327 0.929 . S
C1316 C1312 1.531 . S
C1316 H1328 0.960 . S
C1316 H1329 0.962 . S
C1316 H1330 0.960 . S
C1317 C1314 1.511 . S
C1317 H1331 0.961 . S
C1317 H1332 0.961 . S
C1317 H1333 0.961 . S
C1318 C1319 1.370 . S
C1318 C1320 1.363 . S
C1318 H1334 0.931 . S
C1319 C1318 1.370 . S
C1319 C1323 1.408 . S
C1320 C1318 1.363 . S
C1320 C1321 1.370 . S
C1320 C1324 1.524 . S
C1321 C1313 1.503 . S
C1321 C1320 1.370 . S
C1321 C1322 1.403 . S
C1322 C1321 1.403 . S
C1322 C1323 1.404 . S
C1322 C1325 1.539 . S
C1323 C1319 1.408 . S
C1323 C1322 1.404 . S
C1323 H1335 0.930 . S
C1324 C1320 1.524 . S
C1324 H1336 0.956 . S
C1324 H1337 0.961 . S
C1324 H1338 0.961 . S
C1325 C1322 1.539 . S
C1325 H1339 0.958 . S
C1325 H1340 0.961 . S
C1325 H1341 0.960 . S
H1326 C1310 0.931 . S
H1327 C1315 0.929 . S
H1328 C1316 0.960 . S
H1329 C1316 0.962 . S
H1330 C1316 0.960 . S
H1331 C1317 0.961 . S
H1332 C1317 0.961 . S
H1333 C1317 0.961 . S
H1334 C1318 0.931 . S
H1335 C1323 0.930 . S
H1336 C1324 0.956 . S
H1337 C1324 0.961 . S
H1338 C1324 0.961 . S
H1339 C1325 0.958 . S
H1340 C1325 0.961 . S
H1341 C1325 0.960 . S
C1342 C1343 1.391 . S
C1342 C1344 1.394 . S
C1342 H1358 0.931 . S
C1343 C1342 1.391 . S
C1343 C1347 1.376 . S
C1344 C1342 1.394 . S
C1344 C1345 1.369 . S
C1344 C1348 1.531 . S
C1345 C1344 1.369 . S
C1345 C1346 1.410 . S
C1345 C1353 1.503 . S
C1346 C1345 1.410 . S
C1346 C1347 1.392 . S
C1346 C1349 1.511 . S
C1347 C1343 1.376 . S
C1347 C1346 1.392 . S
C1347 H1359 0.929 . S
C1348 C1344 1.531 . S
C1348 H1360 0.960 . S
C1348 H1361 0.962 . S
C1348 H1362 0.960 . S
C1349 C1346 1.511 . S
C1349 H1363 0.961 . S
C1349 H1364 0.961 . S
C1349 H1365 0.961 . S
C1350 C1351 1.370 . S
C1350 C1352 1.363 . S
C1350 H1366 0.931 . S
C1351 C1350 1.370 . S
C1351 C1355 1.408 . S
C1352 C1350 1.363 . S
C1352 C1353 1.370 . S
C1352 C1356 1.524 . S
C1353 C1345 1.503 . S
C1353 C1352 1.370 . S
C1353 C1354 1.403 . S
C1354 C1353 1.403 . S
C1354 C1355 1.404 . S
C1354 C1357 1.539 . S
C1355 C1351 1.408 . S
C1355 C1354 1.404 . S
C1355 H1367 0.930 . S
C1356 C1352 1.524 . S
C1356 H1368 0.956 . S
C1356 H1369 0.961 . S
C1356 H1370 0.961 . S
C1357 C1354 1.539 . S
C1357 H1371 0.958 . S
C1357 H1372 0.961 . S
C1357 H1373 0.960 . S
H1358 C1342 0.931 . S
H1359 C1347 0.929 . S
H1360 C1348 0.960 . S
H1361 C1348 0.962 . S
H1362 C1348 0.960 . S
H1363 C1349 0.961 . S
H1364 C1349 0.961 . S
H1365 C1349 0.961 . S
H1366 C1350 0.931 . S
H1367 C1355 0.930 . S
H1368 C1356 0.956 . S
H1369 C1356 0.961 . S
H1370 C1356 0.961 . S
H1371 C1357 0.958 . S
H1372 C1357 0.961 . S
H1373 C1357 0.960 . S
C1374 C1375 1.391 . S
C1374 C1376 1.394 . S
C1374 H1390 0.931 . S
C1375 C1374 1.391 . S
C1375 C1379 1.376 . S
C1376 C1374 1.394 . S
C1376 C1377 1.387 . S
C1376 C1380 1.531 . S
C1377 C1376 1.387 . S
C1377 C1378 1.407 . S
C1377 C1385 1.488 1_655 S
C1378 C1377 1.407 . S
C1378 C1379 1.392 . S
C1378 C1381 1.511 1_655 S
C1379 C1375 1.376 . S
C1379 C1378 1.392 . S
C1379 H1391 0.929 . S
C1380 C1376 1.531 . S
C1380 H1392 0.960 1_655 S
C1380 H1393 0.962 . S
C1380 H1394 0.960 . S
C1381 C1378 1.511 1_455 S
C1381 H1395 0.961 1_455 S
C1381 H1396 0.961 . S
C1381 H1397 0.961 . S
C1382 C1383 1.370 . S
C1382 C1384 1.363 . S
C1382 H1398 0.931 . S
C1383 C1382 1.370 . S
C1383 C1387 1.408 . S
C1384 C1382 1.363 . S
C1384 C1385 1.370 . S
C1384 C1388 1.524 . S
C1385 C1377 1.488 1_455 S
C1385 C1384 1.370 . S
C1385 C1386 1.403 . S
C1386 C1385 1.403 . S
C1386 C1387 1.404 . S
C1386 C1389 1.539 . S
C1387 C1383 1.408 . S
C1387 C1386 1.404 . S
C1387 H1399 0.930 . S
C1388 C1384 1.524 . S
C1388 H1400 0.956 1_455 S
C1388 H1401 0.963 . S
C1388 H1402 0.961 . S
C1389 C1386 1.539 . S
C1389 H1403 0.958 . S
C1389 H1404 0.961 . S
C1389 H1405 0.960 . S
H1390 C1374 0.931 . S
H1391 C1379 0.929 . S
H1392 C1380 0.960 1_455 S
H1393 C1380 0.962 . S
H1394 C1380 0.960 . S
H1395 C1381 0.961 1_655 S
H1396 C1381 0.961 . S
H1397 C1381 0.961 . S
H1398 C1382 0.931 . S
H1399 C1387 0.930 . S
H1400 C1388 0.956 1_655 S
H1401 C1388 0.963 . S
H1402 C1388 0.961 . S
H1403 C1389 0.958 . S
H1404 C1389 0.961 . S
H1405 C1389 0.960 . S
C1406 C1407 1.391 . S
C1406 C1408 1.394 . S
C1406 H1422 0.931 . S
C1407 C1406 1.391 . S
C1407 C1411 1.376 . S
C1408 C1406 1.394 . S
C1408 C1409 1.369 . S
C1408 C1412 1.531 . S
C1409 C1408 1.369 . S
C1409 C1410 1.410 . S
C1409 C1417 1.503 . S
C1410 C1409 1.410 . S
C1410 C1411 1.392 . S
C1410 C1413 1.511 . S
C1411 C1407 1.376 . S
C1411 C1410 1.392 . S
C1411 H1423 0.929 . S
C1412 C1408 1.531 . S
C1412 H1424 0.960 . S
C1412 H1425 0.962 . S
C1412 H1426 0.960 . S
C1413 C1410 1.511 . S
C1413 H1427 0.961 . S
C1413 H1428 0.961 . S
C1413 H1429 0.961 . S
C1414 C1415 1.370 . S
C1414 C1416 1.363 . S
C1414 H1430 0.931 . S
C1415 C1414 1.370 . S
C1415 C1419 1.408 . S
C1416 C1414 1.363 . S
C1416 C1417 1.370 . S
C1416 C1420 1.524 . S
C1417 C1409 1.503 . S
C1417 C1416 1.370 . S
C1417 C1418 1.403 . S
C1418 C1417 1.403 . S
C1418 C1419 1.404 . S
C1418 C1421 1.539 . S
C1419 C1415 1.408 . S
C1419 C1418 1.404 . S
C1419 H1431 0.930 . S
C1420 C1416 1.524 . S
C1420 H1432 0.956 . S
C1420 H1433 0.961 . S
C1420 H1434 0.961 . S
C1421 C1418 1.539 . S
C1421 H1435 0.958 . S
C1421 H1436 0.961 . S
C1421 H1437 0.960 . S
H1422 C1406 0.931 . S
H1423 C1411 0.929 . S
H1424 C1412 0.960 . S
H1425 C1412 0.962 . S
H1426 C1412 0.960 . S
H1427 C1413 0.961 . S
H1428 C1413 0.961 . S
H1429 C1413 0.961 . S
H1430 C1414 0.931 . S
H1431 C1419 0.930 . S
H1432 C1420 0.956 . S
H1433 C1420 0.961 . S
H1434 C1420 0.961 . S
H1435 C1421 0.958 . S
H1436 C1421 0.961 . S
H1437 C1421 0.960 . S
C1438 C1439 1.391 . S
C1438 C1440 1.394 . S
C1438 H1454 0.931 . S
C1439 C1438 1.391 . S
C1439 C1443 1.376 . S
C1440 C1438 1.394 . S
C1440 C1441 1.369 1_545 S
C1440 C1444 1.531 1_545 S
C1441 C1440 1.369 1_565 S
C1441 C1442 1.410 1_565 S
C1441 C1449 1.503 . S
C1442 C1441 1.410 1_545 S
C1442 C1443 1.392 . S
C1442 C1445 1.511 1_545 S
C1443 C1439 1.376 . S
C1443 C1442 1.392 . S
C1443 H1455 0.929 . S
C1444 C1440 1.531 1_565 S
C1444 H1456 0.960 . S
C1444 H1457 0.962 . S
C1444 H1458 0.960 . S
C1445 C1442 1.511 1_565 S
C1445 H1459 0.961 1_565 S
C1445 H1460 0.961 . S
C1445 H1461 0.961 . S
C1446 C1447 1.370 . S
C1446 C1448 1.363 . S
C1446 H1462 0.931 . S
C1447 C1446 1.370 . S
C1447 C1451 1.408 . S
C1448 C1446 1.363 . S
C1448 C1449 1.370 . S
C1448 C1452 1.524 . S
C1449 C1441 1.503 . S
C1449 C1448 1.370 . S
C1449 C1450 1.403 . S
C1450 C1449 1.403 . S
C1450 C1451 1.404 . S
C1450 C1453 1.539 . S
C1451 C1447 1.408 . S
C1451 C1450 1.404 . S
C1451 H1463 0.930 . S
C1452 C1448 1.524 . S
C1452 H1464 0.956 . S
C1452 H1465 0.961 . S
C1452 H1466 0.961 . S
C1453 C1450 1.539 . S
C1453 H1467 0.958 . S
C1453 H1468 0.961 . S
C1453 H1469 0.960 . S
H1454 C1438 0.931 . S
H1455 C1443 0.929 . S
H1456 C1444 0.960 . S
H1457 C1444 0.962 . S
H1458 C1444 0.960 . S
H1459 C1445 0.961 1_545 S
H1460 C1445 0.961 . S
H1461 C1445 0.961 . S
H1462 C1446 0.931 . S
H1463 C1451 0.930 . S
H1464 C1452 0.956 . S
H1465 C1452 0.961 . S
H1466 C1452 0.961 . S
H1467 C1453 0.958 . S
H1468 C1453 0.961 . S
H1469 C1453 0.960 . S
C1470 C1471 1.391 . S
C1470 C1472 1.394 . S
C1470 H1486 0.931 . S
C1471 C1470 1.391 . S
C1471 C1475 1.376 . S
C1472 C1470 1.394 . S
C1472 C1473 1.369 . S
C1472 C1476 1.531 . S
C1473 C1472 1.369 . S
C1473 C1474 1.410 . S
C1473 C1481 1.503 . S
C1474 C1473 1.410 . S
C1474 C1475 1.392 . S
C1474 C1477 1.511 . S
C1475 C1471 1.376 . S
C1475 C1474 1.392 . S
C1475 H1487 0.929 . S
C1476 C1472 1.531 . S
C1476 H1488 0.960 . S
C1476 H1489 0.962 . S
C1476 H1490 0.960 . S
C1477 C1474 1.511 . S
C1477 H1491 0.961 . S
C1477 H1492 0.961 . S
C1477 H1493 0.961 . S
C1478 C1479 1.370 . S
C1478 C1480 1.363 . S
C1478 H1494 0.931 . S
C1479 C1478 1.370 . S
C1479 C1483 1.408 . S
C1480 C1478 1.363 . S
C1480 C1481 1.370 . S
C1480 C1484 1.524 . S
C1481 C1473 1.503 . S
C1481 C1480 1.370 . S
C1481 C1482 1.403 . S
C1482 C1481 1.403 . S
C1482 C1483 1.404 . S
C1482 C1485 1.539 . S
C1483 C1479 1.408 . S
C1483 C1482 1.404 . S
C1483 H1495 0.930 . S
C1484 C1480 1.524 . S
C1484 H1496 0.956 . S
C1484 H1497 0.961 . S
C1484 H1498 0.961 . S
C1485 C1482 1.539 . S
C1485 H1499 0.958 . S
C1485 H1500 0.961 . S
C1485 H1501 0.960 . S
H1486 C1470 0.931 . S
H1487 C1475 0.929 . S
H1488 C1476 0.960 . S
H1489 C1476 0.962 . S
H1490 C1476 0.960 . S
H1491 C1477 0.961 . S
H1492 C1477 0.961 . S
H1493 C1477 0.961 . S
H1494 C1478 0.931 . S
H1495 C1483 0.930 . S
H1496 C1484 0.956 . S
H1497 C1484 0.961 . S
H1498 C1484 0.961 . S
H1499 C1485 0.958 . S
H1500 C1485 0.961 . S
H1501 C1485 0.960 . S
C1502 C1503 1.391 . S
C1502 C1504 1.394 . S
C1502 H1518 0.931 . S
C1503 C1502 1.391 . S
C1503 C1507 1.376 . S
C1504 C1502 1.394 . S
C1504 C1505 1.369 . S
C1504 C1508 1.531 . S
C1505 C1504 1.369 . S
C1505 C1506 1.410 . S
C1505 C1513 1.503 . S
C1506 C1505 1.410 . S
C1506 C1507 1.392 . S
C1506 C1509 1.511 . S
C1507 C1503 1.376 . S
C1507 C1506 1.392 . S
C1507 H1519 0.929 . S
C1508 C1504 1.531 . S
C1508 H1520 0.960 . S
C1508 H1521 0.962 . S
C1508 H1522 0.960 . S
C1509 C1506 1.511 . S
C1509 H1523 0.961 . S
C1509 H1524 0.961 . S
C1509 H1525 0.961 . S
C1510 C1511 1.370 . S
C1510 C1512 1.363 . S
C1510 H1526 0.931 . S
C1511 C1510 1.370 . S
C1511 C1515 1.408 . S
C1512 C1510 1.363 . S
C1512 C1513 1.370 . S
C1512 C1516 1.524 . S
C1513 C1505 1.503 . S
C1513 C1512 1.370 . S
C1513 C1514 1.403 . S
C1514 C1513 1.403 . S
C1514 C1515 1.404 . S
C1514 C1517 1.539 . S
C1515 C1511 1.408 . S
C1515 C1514 1.404 . S
C1515 H1527 0.930 . S
C1516 C1512 1.524 . S
C1516 H1528 0.956 . S
C1516 H1529 0.961 . S
C1516 H1530 0.961 . S
C1517 C1514 1.539 . S
C1517 H1531 0.958 . S
C1517 H1532 0.961 . S
C1517 H1533 0.960 . S
H1518 C1502 0.931 . S
H1519 C1507 0.929 . S
H1520 C1508 0.960 . S
H1521 C1508 0.962 . S
H1522 C1508 0.960 . S
H1523 C1509 0.961 . S
H1524 C1509 0.961 . S
H1525 C1509 0.961 . S
H1526 C1510 0.931 . S
H1527 C1515 0.930 . S
H1528 C1516 0.956 . S
H1529 C1516 0.961 . S
H1530 C1516 0.961 . S
H1531 C1517 0.958 . S
H1532 C1517 0.961 . S
H1533 C1517 0.960 . S
C1534 C1535 1.391 . S
C1534 C1536 1.394 . S
C1534 H1550 0.931 . S
C1535 C1534 1.391 . S
C1535 C1539 1.376 . S
C1536 C1534 1.394 . S
C1536 C1537 1.369 . S
C1536 C1540 1.531 . S
C1537 C1536 1.369 . S
C1537 C1538 1.410 . S
C1537 C1545 1.503 . S
C1538 C1537 1.410 . S
C1538 C1539 1.392 . S
C1538 C1541 1.511 . S
C1539 C1535 1.376 . S
C1539 C1538 1.392 . S
C1539 H1551 0.929 . S
C1540 C1536 1.531 . S
C1540 H1552 0.960 . S
C1540 H1553 0.962 . S
C1540 H1554 0.960 . S
C1541 C1538 1.511 . S
C1541 H1555 0.961 . S
C1541 H1556 0.961 . S
C1541 H1557 0.961 . S
C1542 C1543 1.370 . S
C1542 C1544 1.363 . S
C1542 H1558 0.931 . S
C1543 C1542 1.370 . S
C1543 C1547 1.408 . S
C1544 C1542 1.363 . S
C1544 C1545 1.370 . S
C1544 C1548 1.524 . S
C1545 C1537 1.503 . S
C1545 C1544 1.370 . S
C1545 C1546 1.403 . S
C1546 C1545 1.403 . S
C1546 C1547 1.404 . S
C1546 C1549 1.539 . S
C1547 C1543 1.408 . S
C1547 C1546 1.404 . S
C1547 H1559 0.930 . S
C1548 C1544 1.524 . S
C1548 H1560 0.956 . S
C1548 H1561 0.961 . S
C1548 H1562 0.961 . S
C1549 C1546 1.539 . S
C1549 H1563 0.958 . S
C1549 H1564 0.961 . S
C1549 H1565 0.960 . S
H1550 C1534 0.931 . S
H1551 C1539 0.929 . S
H1552 C1540 0.960 . S
H1553 C1540 0.962 . S
H1554 C1540 0.960 . S
H1555 C1541 0.961 . S
H1556 C1541 0.961 . S
H1557 C1541 0.961 . S
H1558 C1542 0.931 . S
H1559 C1547 0.930 . S
H1560 C1548 0.956 . S
H1561 C1548 0.961 . S
H1562 C1548 0.961 . S
H1563 C1549 0.958 . S
H1564 C1549 0.961 . S
H1565 C1549 0.960 . S
C1566 C1567 1.391 . S
C1566 C1568 1.394 . S
C1566 H1582 0.931 . S
C1567 C1566 1.391 . S
C1567 C1571 1.376 . S
C1568 C1566 1.394 . S
C1568 C1569 1.369 . S
C1568 C1572 1.531 . S
C1569 C1568 1.369 . S
C1569 C1570 1.410 . S
C1569 C1577 1.503 . S
C1570 C1569 1.410 . S
C1570 C1571 1.392 . S
C1570 C1573 1.511 . S
C1571 C1567 1.376 . S
C1571 C1570 1.392 . S
C1571 H1583 0.929 . S
C1572 C1568 1.531 . S
C1572 H1584 0.960 . S
C1572 H1585 0.962 . S
C1572 H1586 0.960 . S
C1573 C1570 1.511 . S
C1573 H1587 0.961 . S
C1573 H1588 0.961 . S
C1573 H1589 0.961 . S
C1574 C1575 1.370 . S
C1574 C1576 1.363 . S
C1574 H1590 0.931 . S
C1575 C1574 1.370 . S
C1575 C1579 1.408 . S
C1576 C1574 1.363 . S
C1576 C1577 1.370 . S
C1576 C1580 1.524 . S
C1577 C1569 1.503 . S
C1577 C1576 1.370 . S
C1577 C1578 1.403 . S
C1578 C1577 1.403 . S
C1578 C1579 1.404 . S
C1578 C1581 1.539 . S
C1579 C1575 1.408 . S
C1579 C1578 1.404 . S
C1579 H1591 0.930 . S
C1580 C1576 1.524 . S
C1580 H1592 0.956 . S
C1580 H1593 0.961 . S
C1580 H1594 0.961 . S
C1581 C1578 1.539 . S
C1581 H1595 0.958 . S
C1581 H1596 0.961 . S
C1581 H1597 0.960 . S
H1582 C1566 0.931 . S
H1583 C1571 0.929 . S
H1584 C1572 0.960 . S
H1585 C1572 0.962 . S
H1586 C1572 0.960 . S
H1587 C1573 0.961 . S
H1588 C1573 0.961 . S
H1589 C1573 0.961 . S
H1590 C1574 0.931 . S
H1591 C1579 0.930 . S
H1592 C1580 0.956 . S
H1593 C1580 0.961 . S
H1594 C1580 0.961 . S
H1595 C1581 0.958 . S
H1596 C1581 0.961 . S
H1597 C1581 0.960 . S
C1598 C1599 1.391 . S
C1598 C1600 1.394 . S
C1598 H1614 0.931 . S
C1599 C1598 1.391 . S
C1599 C1603 1.376 . S
C1600 C1598 1.394 . S
C1600 C1601 1.369 . S
C1600 C1604 1.531 . S
C1601 C1600 1.369 . S
C1601 C1602 1.410 . S
C1601 C1609 1.503 . S
C1602 C1601 1.410 . S
C1602 C1603 1.392 . S
C1602 C1605 1.511 . S
C1603 C1599 1.376 . S
C1603 C1602 1.392 . S
C1603 H1615 0.929 . S
C1604 C1600 1.531 . S
C1604 H1616 0.960 . S
C1604 H1617 0.962 . S
C1604 H1618 0.960 . S
C1605 C1602 1.511 . S
C1605 H1619 0.961 . S
C1605 H1620 0.961 . S
C1605 H1621 0.961 . S
C1606 C1607 1.370 . S
C1606 C1608 1.363 . S
C1606 H1622 0.931 . S
C1607 C1606 1.370 . S
C1607 C1611 1.408 . S
C1608 C1606 1.363 . S
C1608 C1609 1.370 . S
C1608 C1612 1.524 . S
C1609 C1601 1.503 . S
C1609 C1608 1.370 . S
C1609 C1610 1.403 . S
C1610 C1609 1.403 . S
C1610 C1611 1.404 . S
C1610 C1613 1.539 . S
C1611 C1607 1.408 . S
C1611 C1610 1.404 . S
C1611 H1623 0.930 . S
C1612 C1608 1.524 . S
C1612 H1624 0.956 . S
C1612 H1625 0.961 . S
C1612 H1626 0.961 . S
C1613 C1610 1.539 . S
C1613 H1627 0.958 . S
C1613 H1628 0.961 . S
C1613 H1629 0.960 . S
H1614 C1598 0.931 . S
H1615 C1603 0.929 . S
H1616 C1604 0.960 . S
H1617 C1604 0.962 . S
H1618 C1604 0.960 . S
H1619 C1605 0.961 . S
H1620 C1605 0.961 . S
H1621 C1605 0.961 . S
H1622 C1606 0.931 . S
H1623 C1611 0.930 . S
H1624 C1612 0.956 . S
H1625 C1612 0.961 . S
H1626 C1612 0.961 . S
H1627 C1613 0.958 . S
H1628 C1613 0.961 . S
H1629 C1613 0.960 . S
C1630 C1631 1.391 . S
C1630 C1632 1.394 . S
C1630 H1646 0.931 . S
C1631 C1630 1.391 . S
C1631 C1635 1.376 . S
C1632 C1630 1.394 . S
C1632 C1633 1.369 . S
C1632 C1636 1.531 . S
C1633 C1632 1.369 . S
C1633 C1634 1.410 . S
C1633 C1641 1.503 . S
C1634 C1633 1.410 . S
C1634 C1635 1.392 . S
C1634 C1637 1.511 . S
C1635 C1631 1.376 . S
C1635 C1634 1.392 . S
C1635 H1647 0.929 . S
C1636 C1632 1.531 . S
C1636 H1648 0.960 . S
C1636 H1649 0.962 . S
C1636 H1650 0.960 . S
C1637 C1634 1.511 . S
C1637 H1651 0.961 . S
C1637 H1652 0.961 . S
C1637 H1653 0.961 . S
C1638 C1639 1.370 . S
C1638 C1640 1.363 . S
C1638 H1654 0.931 . S
C1639 C1638 1.370 . S
C1639 C1643 1.408 . S
C1640 C1638 1.363 . S
C1640 C1641 1.370 . S
C1640 C1644 1.524 . S
C1641 C1633 1.503 . S
C1641 C1640 1.370 . S
C1641 C1642 1.403 . S
C1642 C1641 1.403 . S
C1642 C1643 1.404 . S
C1642 C1645 1.539 . S
C1643 C1639 1.408 . S
C1643 C1642 1.404 . S
C1643 H1655 0.930 . S
C1644 C1640 1.524 . S
C1644 H1656 0.956 . S
C1644 H1657 0.961 . S
C1644 H1658 0.961 . S
C1645 C1642 1.539 . S
C1645 H1659 0.958 . S
C1645 H1660 0.961 . S
C1645 H1661 0.960 . S
H1646 C1630 0.931 . S
H1647 C1635 0.929 . S
H1648 C1636 0.960 . S
H1649 C1636 0.962 . S
H1650 C1636 0.960 . S
H1651 C1637 0.961 . S
H1652 C1637 0.961 . S
H1653 C1637 0.961 . S
H1654 C1638 0.931 . S
H1655 C1643 0.930 . S
H1656 C1644 0.956 . S
H1657 C1644 0.961 . S
H1658 C1644 0.961 . S
H1659 C1645 0.958 . S
H1660 C1645 0.961 . S
H1661 C1645 0.960 . S
C1662 C1663 1.391 . S
C1662 C1664 1.394 . S
C1662 H1678 0.931 . S
C1663 C1662 1.391 . S
C1663 C1667 1.376 . S
C1664 C1662 1.394 . S
C1664 C1665 1.369 . S
C1664 C1668 1.531 . S
C1665 C1664 1.369 . S
C1665 C1666 1.410 . S
C1665 C1673 1.503 1_545 S
C1666 C1665 1.410 . S
C1666 C1667 1.392 . S
C1666 C1669 1.511 1_545 S
C1667 C1663 1.376 . S
C1667 C1666 1.392 . S
C1667 H1679 0.929 . S
C1668 C1664 1.531 . S
C1668 H1680 0.960 . S
C1668 H1681 0.962 . S
C1668 H1682 0.960 . S
C1669 C1666 1.511 1_565 S
C1669 H1683 0.961 . S
C1669 H1684 0.961 . S
C1669 H1685 0.961 1_565 S
C1670 C1671 1.370 . S
C1670 C1672 1.363 . S
C1670 H1686 0.931 . S
C1671 C1670 1.370 . S
C1671 C1675 1.408 . S
C1672 C1670 1.363 . S
C1672 C1673 1.370 . S
C1672 C1676 1.524 . S
C1673 C1665 1.503 1_565 S
C1673 C1672 1.370 . S
C1673 C1674 1.403 . S
C1674 C1673 1.403 . S
C1674 C1675 1.404 . S
C1674 C1677 1.539 1_565 S
C1675 C1671 1.408 . S
C1675 C1674 1.404 . S
C1675 H1687 0.930 . S
C1676 C1672 1.524 . S
C1676 H1688 0.956 . S
C1676 H1689 0.961 . S
C1676 H1690 0.961 . S
C1677 C1674 1.539 1_545 S
C1677 H1691 0.958 . S
C1677 H1692 0.961 1_545 S
C1677 H1693 0.960 . S
H1678 C1662 0.931 . S
H1679 C1667 0.929 . S
H1680 C1668 0.960 . S
H1681 C1668 0.962 . S
H1682 C1668 0.960 . S
H1683 C1669 0.961 . S
H1684 C1669 0.961 . S
H1685 C1669 0.961 1_545 S
H1686 C1670 0.931 . S
H1687 C1675 0.930 . S
H1688 C1676 0.956 . S
H1689 C1676 0.961 . S
H1690 C1676 0.961 . S
H1691 C1677 0.958 . S
H1692 C1677 0.961 1_565 S
H1693 C1677 0.960 . S
C1694 C1695 1.391 . S
C1694 C1696 1.394 1_655 S
C1694 H1710 0.931 . S
C1695 C1694 1.391 . S
C1695 C1699 1.376 . S
C1696 C1694 1.394 1_455 S
C1696 C1697 1.369 . S
C1696 C1700 1.531 . S
C1697 C1696 1.369 . S
C1697 C1698 1.410 1_455 S
C1697 C1705 1.503 . S
C1698 C1697 1.410 1_655 S
C1698 C1699 1.392 . S
C1698 C1701 1.511 . S
C1699 C1695 1.376 . S
C1699 C1698 1.392 . S
C1699 H1711 0.929 . S
C1700 C1696 1.531 . S
C1700 H1712 0.960 . S
C1700 H1713 0.962 . S
C1700 H1714 0.960 . S
C1701 C1698 1.511 . S
C1701 H1715 0.961 . S
C1701 H1716 0.961 1_655 S
C1701 H1717 0.961 1_655 S
C1702 C1703 1.370 . S
C1702 C1704 1.363 . S
C1702 H1718 0.931 . S
C1703 C1702 1.370 . S
C1703 C1707 1.408 . S
C1704 C1702 1.363 . S
C1704 C1705 1.370 . S
C1704 C1708 1.524 . S
C1705 C1697 1.503 . S
C1705 C1704 1.370 . S
C1705 C1706 1.403 . S
C1706 C1705 1.403 . S
C1706 C1707 1.404 . S
C1706 C1709 1.539 . S
C1707 C1703 1.408 . S
C1707 C1706 1.404 . S
C1707 H1719 0.930 . S
C1708 C1704 1.524 . S
C1708 H1720 0.949 1_455 S
C1708 H1721 0.961 1_455 S
C1708 H1722 0.961 . S
C1709 C1706 1.539 . S
C1709 H1723 0.958 . S
C1709 H1724 0.961 . S
C1709 H1725 0.960 . S
H1710 C1694 0.931 . S
H1711 C1699 0.929 . S
H1712 C1700 0.960 . S
H1713 C1700 0.962 . S
H1714 C1700 0.960 . S
H1715 C1701 0.961 . S
H1716 C1701 0.961 1_455 S
H1717 C1701 0.961 1_455 S
H1718 C1702 0.931 . S
H1719 C1707 0.930 . S
H1720 C1708 0.949 1_655 S
H1721 C1708 0.961 1_655 S
H1722 C1708 0.961 . S
H1723 C1709 0.958 . S
H1724 C1709 0.961 . S
H1725 C1709 0.960 . S
C1726 C1727 1.391 . S
C1726 C1728 1.394 . S
C1726 H1742 0.931 . S
C1727 C1726 1.391 . S
C1727 C1731 1.376 . S
C1728 C1726 1.394 . S
C1728 C1729 1.369 . S
C1728 C1732 1.531 . S
C1729 C1728 1.369 . S
C1729 C1730 1.410 . S
C1729 C1737 1.503 . S
C1730 C1729 1.410 . S
C1730 C1731 1.392 . S
C1730 C1733 1.511 . S
C1731 C1727 1.376 . S
C1731 C1730 1.392 . S
C1731 H1743 0.929 . S
C1732 C1728 1.531 . S
C1732 H1744 0.960 . S
C1732 H1745 0.962 . S
C1732 H1746 0.960 . S
C1733 C1730 1.511 . S
C1733 H1747 0.961 . S
C1733 H1748 0.961 . S
C1733 H1749 0.961 . S
C1734 C1735 1.370 . S
C1734 C1736 1.363 . S
C1734 H1750 0.931 . S
C1735 C1734 1.370 . S
C1735 C1739 1.408 . S
C1736 C1734 1.363 . S
C1736 C1737 1.370 . S
C1736 C1740 1.524 . S
C1737 C1729 1.503 . S
C1737 C1736 1.370 . S
C1737 C1738 1.403 . S
C1738 C1737 1.403 . S
C1738 C1739 1.404 . S
C1738 C1741 1.539 . S
C1739 C1735 1.408 . S
C1739 C1738 1.404 . S
C1739 H1751 0.930 . S
C1740 C1736 1.524 . S
C1740 H1752 0.956 . S
C1740 H1753 0.961 . S
C1740 H1754 0.961 . S
C1741 C1738 1.539 . S
C1741 H1755 0.958 . S
C1741 H1756 0.961 . S
C1741 H1757 0.960 . S
H1742 C1726 0.931 . S
H1743 C1731 0.929 . S
H1744 C1732 0.960 . S
H1745 C1732 0.962 . S
H1746 C1732 0.960 . S
H1747 C1733 0.961 . S
H1748 C1733 0.961 . S
H1749 C1733 0.961 . S
H1750 C1734 0.931 . S
H1751 C1739 0.930 . S
H1752 C1740 0.956 . S
H1753 C1740 0.961 . S
H1754 C1740 0.961 . S
H1755 C1741 0.958 . S
H1756 C1741 0.961 . S
H1757 C1741 0.960 . S
C1758 C1759 1.391 . S
C1758 C1760 1.394 . S
C1758 H1774 0.931 . S
C1759 C1758 1.391 . S
C1759 C1763 1.376 . S
C1760 C1758 1.394 . S
C1760 C1761 1.369 . S
C1760 C1764 1.531 . S
C1761 C1760 1.369 . S
C1761 C1762 1.410 . S
C1761 C1769 1.503 . S
C1762 C1761 1.410 . S
C1762 C1763 1.392 . S
C1762 C1765 1.511 . S
C1763 C1759 1.376 . S
C1763 C1762 1.392 . S
C1763 H1775 0.929 . S
C1764 C1760 1.531 . S
C1764 H1776 0.960 . S
C1764 H1777 0.962 . S
C1764 H1778 0.960 . S
C1765 C1762 1.511 . S
C1765 H1779 0.961 . S
C1765 H1780 0.961 . S
C1765 H1781 0.961 . S
C1766 C1767 1.370 . S
C1766 C1768 1.363 . S
C1766 H1782 0.931 . S
C1767 C1766 1.370 . S
C1767 C1771 1.408 . S
C1768 C1766 1.363 . S
C1768 C1769 1.370 . S
C1768 C1772 1.524 . S
C1769 C1761 1.503 . S
C1769 C1768 1.370 . S
C1769 C1770 1.403 . S
C1770 C1769 1.403 . S
C1770 C1771 1.404 . S
C1770 C1773 1.539 . S
C1771 C1767 1.408 . S
C1771 C1770 1.404 . S
C1771 H1783 0.930 . S
C1772 C1768 1.524 . S
C1772 H1784 0.956 . S
C1772 H1785 0.961 . S
C1772 H1786 0.961 . S
C1773 C1770 1.539 . S
C1773 H1787 0.958 . S
C1773 H1788 0.961 . S
C1773 H1789 0.960 . S
H1774 C1758 0.931 . S
H1775 C1763 0.929 . S
H1776 C1764 0.960 . S
H1777 C1764 0.962 . S
H1778 C1764 0.960 . S
H1779 C1765 0.961 . S
H1780 C1765 0.961 . S
H1781 C1765 0.961 . S
H1782 C1766 0.931 . S
H1783 C1771 0.930 . S
H1784 C1772 0.956 . S
H1785 C1772 0.961 . S
H1786 C1772 0.961 . S
H1787 C1773 0.958 . S
H1788 C1773 0.961 . S
H1789 C1773 0.960 . S
C1790 C1791 1.391 . S
C1790 C1792 1.394 . S
C1790 H1806 0.931 . S
C1791 C1790 1.391 . S
C1791 C1795 1.376 . S
C1792 C1790 1.394 . S
C1792 C1793 1.369 . S
C1792 C1796 1.531 . S
C1793 C1792 1.369 . S
C1793 C1794 1.410 . S
C1793 C1801 1.503 . S
C1794 C1793 1.410 . S
C1794 C1795 1.392 . S
C1794 C1797 1.511 . S
C1795 C1791 1.376 . S
C1795 C1794 1.392 . S
C1795 H1807 0.929 . S
C1796 C1792 1.531 . S
C1796 H1808 0.960 . S
C1796 H1809 0.962 . S
C1796 H1810 0.960 . S
C1797 C1794 1.511 . S
C1797 H1811 0.961 . S
C1797 H1812 0.961 . S
C1797 H1813 0.961 . S
C1798 C1799 1.370 . S
C1798 C1800 1.363 . S
C1798 H1814 0.931 . S
C1799 C1798 1.370 . S
C1799 C1803 1.408 . S
C1800 C1798 1.363 . S
C1800 C1801 1.370 . S
C1800 C1804 1.524 . S
C1801 C1793 1.503 . S
C1801 C1800 1.370 . S
C1801 C1802 1.403 . S
C1802 C1801 1.403 . S
C1802 C1803 1.404 . S
C1802 C1805 1.539 . S
C1803 C1799 1.408 . S
C1803 C1802 1.404 . S
C1803 H1815 0.930 . S
C1804 C1800 1.524 . S
C1804 H1816 0.956 . S
C1804 H1817 0.961 . S
C1804 H1818 0.961 . S
C1805 C1802 1.539 . S
C1805 H1819 0.958 . S
C1805 H1820 0.961 . S
C1805 H1821 0.960 . S
H1806 C1790 0.931 . S
H1807 C1795 0.929 . S
H1808 C1796 0.960 . S
H1809 C1796 0.962 . S
H1810 C1796 0.960 . S
H1811 C1797 0.961 . S
H1812 C1797 0.961 . S
H1813 C1797 0.961 . S
H1814 C1798 0.931 . S
H1815 C1803 0.930 . S
H1816 C1804 0.956 . S
H1817 C1804 0.961 . S
H1818 C1804 0.961 . S
H1819 C1805 0.958 . S
H1820 C1805 0.961 . S
H1821 C1805 0.960 . S
C1822 C1823 1.391 . S
C1822 C1824 1.394 . S
C1822 H1838 0.931 . S
C1823 C1822 1.391 . S
C1823 C1827 1.376 . S
C1824 C1822 1.394 . S
C1824 C1825 1.369 . S
C1824 C1828 1.531 . S
C1825 C1824 1.369 . S
C1825 C1826 1.410 . S
C1825 C1833 1.503 . S
C1826 C1825 1.410 . S
C1826 C1827 1.392 . S
C1826 C1829 1.511 . S
C1827 C1823 1.376 . S
C1827 C1826 1.392 . S
C1827 H1839 0.929 . S
C1828 C1824 1.531 . S
C1828 H1840 0.960 . S
C1828 H1841 0.962 . S
C1828 H1842 0.960 . S
C1829 C1826 1.511 . S
C1829 H1843 0.961 . S
C1829 H1844 0.961 . S
C1829 H1845 0.961 . S
C1830 C1831 1.370 . S
C1830 C1832 1.363 . S
C1830 H1846 0.931 . S
C1831 C1830 1.370 . S
C1831 C1835 1.408 . S
C1832 C1830 1.363 . S
C1832 C1833 1.370 . S
C1832 C1836 1.524 . S
C1833 C1825 1.503 . S
C1833 C1832 1.370 . S
C1833 C1834 1.403 . S
C1834 C1833 1.403 . S
C1834 C1835 1.404 . S
C1834 C1837 1.539 . S
C1835 C1831 1.408 . S
C1835 C1834 1.404 . S
C1835 H1847 0.930 . S
C1836 C1832 1.524 . S
C1836 H1848 0.956 . S
C1836 H1849 0.961 . S
C1836 H1850 0.961 . S
C1837 C1834 1.539 . S
C1837 H1851 0.958 . S
C1837 H1852 0.961 . S
C1837 H1853 0.960 . S
H1838 C1822 0.931 . S
H1839 C1827 0.929 . S
H1840 C1828 0.960 . S
H1841 C1828 0.962 . S
H1842 C1828 0.960 . S
H1843 C1829 0.961 . S
H1844 C1829 0.961 . S
H1845 C1829 0.961 . S
H1846 C1830 0.931 . S
H1847 C1835 0.930 . S
H1848 C1836 0.956 . S
H1849 C1836 0.961 . S
H1850 C1836 0.961 . S
H1851 C1837 0.958 . S
H1852 C1837 0.961 . S
H1853 C1837 0.960 . S
C1854 C1855 1.391 . S
C1854 C1856 1.394 . S
C1854 H1870 0.931 . S
C1855 C1854 1.391 . S
C1855 C1859 1.376 . S
C1856 C1854 1.394 . S
C1856 C1857 1.369 1_565 S
C1856 C1860 1.531 1_565 S
C1857 C1856 1.369 1_545 S
C1857 C1858 1.410 1_545 S
C1857 C1865 1.503 . S
C1858 C1857 1.410 1_565 S
C1858 C1859 1.392 . S
C1858 C1861 1.511 1_565 S
C1859 C1855 1.376 . S
C1859 C1858 1.392 . S
C1859 H1871 0.929 . S
C1860 C1856 1.531 1_545 S
C1860 H1872 0.960 . S
C1860 H1873 0.962 . S
C1860 H1874 0.960 . S
C1861 C1858 1.511 1_545 S
C1861 H1875 0.961 1_545 S
C1861 H1876 0.961 . S
C1861 H1877 0.961 . S
C1862 C1863 1.370 . S
C1862 C1864 1.363 . S
C1862 H1878 0.931 . S
C1863 C1862 1.370 . S
C1863 C1867 1.408 . S
C1864 C1862 1.363 . S
C1864 C1865 1.370 . S
C1864 C1868 1.524 . S
C1865 C1857 1.503 . S
C1865 C1864 1.370 . S
C1865 C1866 1.403 . S
C1866 C1865 1.403 . S
C1866 C1867 1.404 . S
C1866 C1869 1.539 . S
C1867 C1863 1.408 . S
C1867 C1866 1.404 . S
C1867 H1879 0.930 . S
C1868 C1864 1.524 . S
C1868 H1880 0.956 . S
C1868 H1881 0.961 . S
C1868 H1882 0.961 . S
C1869 C1866 1.539 . S
C1869 H1883 0.958 . S
C1869 H1884 0.961 . S
C1869 H1885 0.960 . S
H1870 C1854 0.931 . S
H1871 C1859 0.929 . S
H1872 C1860 0.960 . S
H1873 C1860 0.962 . S
H1874 C1860 0.960 . S
H1875 C1861 0.961 1_565 S
H1876 C1861 0.961 . S
H1877 C1861 0.961 . S
H1878 C1862 0.931 . S
H1879 C1867 0.930 . S
H1880 C1868 0.956 . S
H1881 C1868 0.961 . S
H1882 C1868 0.961 . S
H1883 C1869 0.958 . S
H1884 C1869 0.961 . S
H1885 C1869 0.960 . S
C1886 C1887 1.391 . S
C1886 C1888 1.385 1_455 S
C1886 H1902 0.931 . S
C1887 C1886 1.391 . S
C1887 C1891 1.376 1_455 S
C1888 C1886 1.385 1_655 S
C1888 C1889 1.375 . S
C1888 C1892 1.533 1_655 S
C1889 C1888 1.375 . S
C1889 C1890 1.410 . S
C1889 C1897 1.503 . S
C1890 C1889 1.410 . S
C1890 C1891 1.392 . S
C1890 C1893 1.511 . S
C1891 C1887 1.376 1_655 S
C1891 C1890 1.392 . S
C1891 H1903 0.929 . S
C1892 C1888 1.533 1_455 S
C1892 H1904 0.960 1_455 S
C1892 H1905 0.962 . S
C1892 H1906 0.960 . S
C1893 C1890 1.511 . S
C1893 H1907 0.961 . S
C1893 H1908 0.961 . S
C1893 H1909 0.961 . S
C1894 C1895 1.370 . S
C1894 C1896 1.363 . S
C1894 H1910 0.931 . S
C1895 C1894 1.370 . S
C1895 C1899 1.408 . S
C1896 C1894 1.363 . S
C1896 C1897 1.370 . S
C1896 C1900 1.524 . S
C1897 C1889 1.503 . S
C1897 C1896 1.370 . S
C1897 C1898 1.403 . S
C1898 C1897 1.403 . S
C1898 C1899 1.404 . S
C1898 C1901 1.539 . S
C1899 C1895 1.408 . S
C1899 C1898 1.404 . S
C1899 H1911 0.930 . S
C1900 C1896 1.524 . S
C1900 H1912 0.956 . S
C1900 H1913 0.961 . S
C1900 H1914 0.961 . S
C1901 C1898 1.539 . S
C1901 H1915 0.958 . S
C1901 H1916 0.961 . S
C1901 H1917 0.960 . S
H1902 C1886 0.931 . S
H1903 C1891 0.929 . S
H1904 C1892 0.960 1_655 S
H1905 C1892 0.962 . S
H1906 C1892 0.960 . S
H1907 C1893 0.961 . S
H1908 C1893 0.961 . S
H1909 C1893 0.961 . S
H1910 C1894 0.931 . S
H1911 C1899 0.930 . S
H1912 C1900 0.956 . S
H1913 C1900 0.961 . S
H1914 C1900 0.961 . S
H1915 C1901 0.958 . S
H1916 C1901 0.961 . S
H1917 C1901 0.960 . S
C1918 C1919 1.391 . S
C1918 C1920 1.394 . S
C1918 H1934 0.931 . S
C1919 C1918 1.391 . S
C1919 C1923 1.376 . S
C1920 C1918 1.394 . S
C1920 C1921 1.369 . S
C1920 C1924 1.531 . S
C1921 C1920 1.369 . S
C1921 C1922 1.410 . S
C1921 C1929 1.503 . S
C1922 C1921 1.410 . S
C1922 C1923 1.392 . S
C1922 C1925 1.511 . S
C1923 C1919 1.376 . S
C1923 C1922 1.392 . S
C1923 H1935 0.929 . S
C1924 C1920 1.531 . S
C1924 H1936 0.960 . S
C1924 H1937 0.962 . S
C1924 H1938 0.960 . S
C1925 C1922 1.511 . S
C1925 H1939 0.961 . S
C1925 H1940 0.961 . S
C1925 H1941 0.961 . S
C1926 C1927 1.370 . S
C1926 C1928 1.363 . S
C1926 H1942 0.931 . S
C1927 C1926 1.370 . S
C1927 C1931 1.408 . S
C1928 C1926 1.363 . S
C1928 C1929 1.370 . S
C1928 C1932 1.524 . S
C1929 C1921 1.503 . S
C1929 C1928 1.370 . S
C1929 C1930 1.403 . S
C1930 C1929 1.403 . S
C1930 C1931 1.404 . S
C1930 C1933 1.539 . S
C1931 C1927 1.408 . S
C1931 C1930 1.404 . S
C1931 H1943 0.930 . S
C1932 C1928 1.524 . S
C1932 H1944 0.956 . S
C1932 H1945 0.961 . S
C1932 H1946 0.961 . S
C1933 C1930 1.539 . S
C1933 H1947 0.958 . S
C1933 H1948 0.961 . S
C1933 H1949 0.960 . S
H1934 C1918 0.931 . S
H1935 C1923 0.929 . S
H1936 C1924 0.960 . S
H1937 C1924 0.962 . S
H1938 C1924 0.960 . S
H1939 C1925 0.961 . S
H1940 C1925 0.961 . S
H1941 C1925 0.961 . S
H1942 C1926 0.931 . S
H1943 C1931 0.930 . S
H1944 C1932 0.956 . S
H1945 C1932 0.961 . S
H1946 C1932 0.961 . S
H1947 C1933 0.958 . S
H1948 C1933 0.961 . S
H1949 C1933 0.960 . S
C1950 C1951 1.391 . S
C1950 C1952 1.394 . S
C1950 H1966 0.931 . S
C1951 C1950 1.391 . S
C1951 C1955 1.376 . S
C1952 C1950 1.394 . S
C1952 C1953 1.369 . S
C1952 C1956 1.531 . S
C1953 C1952 1.369 . S
C1953 C1954 1.410 . S
C1953 C1961 1.503 1_455 S
C1954 C1953 1.410 . S
C1954 C1955 1.392 . S
C1954 C1957 1.511 . S
C1955 C1951 1.376 . S
C1955 C1954 1.392 . S
C1955 H1967 0.929 . S
C1956 C1952 1.531 . S
C1956 H1968 0.960 . S
C1956 H1969 0.962 . S
C1956 H1970 0.960 . S
C1957 C1954 1.511 . S
C1957 H1971 0.961 . S
C1957 H1972 0.961 . S
C1957 H1973 0.961 . S
C1958 C1959 1.370 . S
C1958 C1960 1.363 . S
C1958 H1974 0.931 . S
C1959 C1958 1.370 . S
C1959 C1963 1.408 . S
C1960 C1958 1.363 . S
C1960 C1961 1.370 . S
C1960 C1964 1.524 1_655 S
C1961 C1953 1.503 1_655 S
C1961 C1960 1.370 . S
C1961 C1962 1.403 . S
C1962 C1961 1.403 . S
C1962 C1963 1.404 . S
C1962 C1965 1.539 . S
C1963 C1959 1.408 . S
C1963 C1962 1.404 . S
C1963 H1975 0.930 . S
C1964 C1960 1.524 1_455 S
C1964 H1976 0.956 . S
C1964 H1977 0.961 . S
C1964 H1978 0.961 . S
C1965 C1962 1.539 . S
C1965 H1979 0.958 . S
C1965 H1980 0.961 . S
C1965 H1981 0.960 . S
H1966 C1950 0.931 . S
H1967 C1955 0.929 . S
H1968 C1956 0.960 . S
H1969 C1956 0.962 . S
H1970 C1956 0.960 . S
H1971 C1957 0.961 . S
H1972 C1957 0.961 . S
H1973 C1957 0.961 . S
H1974 C1958 0.931 . S
H1975 C1963 0.930 . S
H1976 C1964 0.956 . S
H1977 C1964 0.961 . S
H1978 C1964 0.961 . S
H1979 C1965 0.958 . S
H1980 C1965 0.961 . S
H1981 C1965 0.960 . S
C1982 C1983 1.391 . S
C1982 C1984 1.394 . S
C1982 H1998 0.931 . S
C1983 C1982 1.391 . S
C1983 C1987 1.376 . S
C1984 C1982 1.394 . S
C1984 C1985 1.369 . S
C1984 C1988 1.531 . S
C1985 C1984 1.369 . S
C1985 C1986 1.410 . S
C1985 C1993 1.503 . S
C1986 C1985 1.410 . S
C1986 C1987 1.392 . S
C1986 C1989 1.511 . S
C1987 C1983 1.376 . S
C1987 C1986 1.392 . S
C1987 H1999 0.929 . S
C1988 C1984 1.531 . S
C1988 H2000 0.960 . S
C1988 H2001 0.962 . S
C1988 H2002 0.960 . S
C1989 C1986 1.511 . S
C1989 H2003 0.961 . S
C1989 H2004 0.961 . S
C1989 H2005 0.961 . S
C1990 C1991 1.370 . S
C1990 C1992 1.363 . S
C1990 H2006 0.931 . S
C1991 C1990 1.370 . S
C1991 C1995 1.408 . S
C1992 C1990 1.363 . S
C1992 C1993 1.370 . S
C1992 C1996 1.524 . S
C1993 C1985 1.503 . S
C1993 C1992 1.370 . S
C1993 C1994 1.403 . S
C1994 C1993 1.403 . S
C1994 C1995 1.404 . S
C1994 C1997 1.539 . S
C1995 C1991 1.408 . S
C1995 C1994 1.404 . S
C1995 H2007 0.930 . S
C1996 C1992 1.524 . S
C1996 H2008 0.956 . S
C1996 H2009 0.961 . S
C1996 H2010 0.961 . S
C1997 C1994 1.539 . S
C1997 H2011 0.958 . S
C1997 H2012 0.961 . S
C1997 H2013 0.960 . S
H1998 C1982 0.931 . S
H1999 C1987 0.929 . S
H2000 C1988 0.960 . S
H2001 C1988 0.962 . S
H2002 C1988 0.960 . S
H2003 C1989 0.961 . S
H2004 C1989 0.961 . S
H2005 C1989 0.961 . S
H2006 C1990 0.931 . S
H2007 C1995 0.930 . S
H2008 C1996 0.956 . S
H2009 C1996 0.961 . S
H2010 C1996 0.961 . S
H2011 C1997 0.958 . S
H2012 C1997 0.961 . S
H2013 C1997 0.960 . S
C2014 C2015 1.391 . S
C2014 C2016 1.394 . S
C2014 H2030 0.931 . S
C2015 C2014 1.391 . S
C2015 C2019 1.376 . S
C2016 C2014 1.394 . S
C2016 C2017 1.369 . S
C2016 C2020 1.531 1_565 S
C2017 C2016 1.369 . S
C2017 C2018 1.410 . S
C2017 C2025 1.503 1_565 S
C2018 C2017 1.410 . S
C2018 C2019 1.392 . S
C2018 C2021 1.511 . S
C2019 C2015 1.376 . S
C2019 C2018 1.392 . S
C2019 H2031 0.929 . S
C2020 C2016 1.531 1_545 S
C2020 H2032 0.960 . S
C2020 H2033 0.962 . S
C2020 H2034 0.960 . S
C2021 C2018 1.511 . S
C2021 H2035 0.961 . S
C2021 H2036 0.961 . S
C2021 H2037 0.961 . S
C2022 C2023 1.370 . S
C2022 C2024 1.363 . S
C2022 H2038 0.931 . S
C2023 C2022 1.370 . S
C2023 C2027 1.408 . S
C2024 C2022 1.363 . S
C2024 C2025 1.370 . S
C2024 C2028 1.524 1_545 S
C2025 C2017 1.503 1_545 S
C2025 C2024 1.370 . S
C2025 C2026 1.403 . S
C2026 C2025 1.403 . S
C2026 C2027 1.404 . S
C2026 C2029 1.539 . S
C2027 C2023 1.408 . S
C2027 C2026 1.404 . S
C2027 H2039 0.930 . S
C2028 C2024 1.524 1_565 S
C2028 H2040 0.956 . S
C2028 H2041 0.961 . S
C2028 H2042 0.961 1_565 S
C2029 C2026 1.539 . S
C2029 H2043 0.958 . S
C2029 H2044 0.961 . S
C2029 H2045 0.960 . S
H2030 C2014 0.931 . S
H2031 C2019 0.929 . S
H2032 C2020 0.960 . S
H2033 C2020 0.962 . S
H2034 C2020 0.960 . S
H2035 C2021 0.961 . S
H2036 C2021 0.961 . S
H2037 C2021 0.961 . S
H2038 C2022 0.931 . S
H2039 C2027 0.930 . S
H2040 C2028 0.956 . S
H2041 C2028 0.961 . S
H2042 C2028 0.961 1_545 S
H2043 C2029 0.958 . S
H2044 C2029 0.961 . S
H2045 C2029 0.960 . S
C2046 C2047 1.391 . S
C2046 C2048 1.394 . S
C2046 H2062 0.931 . S
C2047 C2046 1.391 . S
C2047 C2051 1.376 . S
C2048 C2046 1.394 . S
C2048 C2049 1.369 . S
C2048 C2052 1.531 . S
C2049 C2048 1.369 . S
C2049 C2050 1.410 . S
C2049 C2057 1.503 . S
C2050 C2049 1.410 . S
C2050 C2051 1.392 . S
C2050 C2053 1.511 . S
C2051 C2047 1.376 . S
C2051 C2050 1.392 . S
C2051 H2063 0.929 . S
C2052 C2048 1.531 . S
C2052 H2064 0.960 . S
C2052 H2065 0.962 . S
C2052 H2066 0.960 . S
C2053 C2050 1.511 . S
C2053 H2067 0.961 . S
C2053 H2068 0.961 . S
C2053 H2069 0.961 . S
C2054 C2055 1.370 . S
C2054 C2056 1.363 . S
C2054 H2070 0.931 . S
C2055 C2054 1.370 . S
C2055 C2059 1.408 . S
C2056 C2054 1.363 . S
C2056 C2057 1.370 . S
C2056 C2060 1.524 . S
C2057 C2049 1.503 . S
C2057 C2056 1.370 . S
C2057 C2058 1.403 . S
C2058 C2057 1.403 . S
C2058 C2059 1.404 . S
C2058 C2061 1.539 . S
C2059 C2055 1.408 . S
C2059 C2058 1.404 . S
C2059 H2071 0.930 . S
C2060 C2056 1.524 . S
C2060 H2072 0.956 . S
C2060 H2073 0.961 . S
C2060 H2074 0.961 . S
C2061 C2058 1.539 . S
C2061 H2075 0.958 . S
C2061 H2076 0.961 . S
C2061 H2077 0.960 . S
H2062 C2046 0.931 . S
H2063 C2051 0.929 . S
H2064 C2052 0.960 . S
H2065 C2052 0.962 . S
H2066 C2052 0.960 . S
H2067 C2053 0.961 . S
H2068 C2053 0.961 . S
H2069 C2053 0.961 . S
H2070 C2054 0.931 . S
H2071 C2059 0.930 . S
H2072 C2060 0.956 . S
H2073 C2060 0.961 . S
H2074 C2060 0.961 . S
H2075 C2061 0.958 . S
H2076 C2061 0.961 . S
H2077 C2061 0.960 . S
C2078 C2079 1.391 . S
C2078 C2080 1.394 . S
C2078 H2094 0.931 . S
C2079 C2078 1.391 . S
C2079 C2083 1.376 . S
C2080 C2078 1.394 . S
C2080 C2081 1.369 . S
C2080 C2084 1.531 . S
C2081 C2080 1.369 . S
C2081 C2082 1.410 . S
C2081 C2089 1.503 . S
C2082 C2081 1.410 . S
C2082 C2083 1.392 . S
C2082 C2085 1.511 . S
C2083 C2079 1.376 . S
C2083 C2082 1.392 . S
C2083 H2095 0.929 . S
C2084 C2080 1.531 . S
C2084 H2096 0.960 . S
C2084 H2097 0.962 . S
C2084 H2098 0.960 . S
C2085 C2082 1.511 . S
C2085 H2099 0.961 . S
C2085 H2100 0.961 . S
C2085 H2101 0.961 . S
C2086 C2087 1.370 . S
C2086 C2088 1.363 . S
C2086 H2102 0.931 . S
C2087 C2086 1.370 . S
C2087 C2091 1.408 . S
C2088 C2086 1.363 . S
C2088 C2089 1.370 . S
C2088 C2092 1.524 . S
C2089 C2081 1.503 . S
C2089 C2088 1.370 . S
C2089 C2090 1.403 . S
C2090 C2089 1.403 . S
C2090 C2091 1.404 . S
C2090 C2093 1.539 . S
C2091 C2087 1.408 . S
C2091 C2090 1.404 . S
C2091 H2103 0.930 . S
C2092 C2088 1.524 . S
C2092 H2104 0.956 . S
C2092 H2105 0.961 . S
C2092 H2106 0.961 . S
C2093 C2090 1.539 . S
C2093 H2107 0.958 . S
C2093 H2108 0.961 . S
C2093 H2109 0.960 . S
H2094 C2078 0.931 . S
H2095 C2083 0.929 . S
H2096 C2084 0.960 . S
H2097 C2084 0.962 . S
H2098 C2084 0.960 . S
H2099 C2085 0.961 . S
H2100 C2085 0.961 . S
H2101 C2085 0.961 . S
H2102 C2086 0.931 . S
H2103 C2091 0.930 . S
H2104 C2092 0.956 . S
H2105 C2092 0.961 . S
H2106 C2092 0.961 . S
H2107 C2093 0.958 . S
H2108 C2093 0.961 . S
H2109 C2093 0.960 . S
C2110 C2111 1.391 . S
C2110 C2112 1.394 . S
C2110 H2126 0.931 . S
C2111 C2110 1.391 . S
C2111 C2115 1.376 . S
C2112 C2110 1.394 . S
C2112 C2113 1.369 . S
C2112 C2116 1.531 . S
C2113 C2112 1.369 . S
C2113 C2114 1.410 . S
C2113 C2121 1.503 . S
C2114 C2113 1.410 . S
C2114 C2115 1.392 . S
C2114 C2117 1.511 . S
C2115 C2111 1.376 . S
C2115 C2114 1.392 . S
C2115 H2127 0.929 . S
C2116 C2112 1.531 . S
C2116 H2128 0.960 . S
C2116 H2129 0.962 . S
C2116 H2130 0.960 . S
C2117 C2114 1.511 . S
C2117 H2131 0.961 . S
C2117 H2132 0.961 . S
C2117 H2133 0.961 . S
C2118 C2119 1.370 . S
C2118 C2120 1.363 . S
C2118 H2134 0.931 . S
C2119 C2118 1.370 . S
C2119 C2123 1.408 . S
C2120 C2118 1.363 . S
C2120 C2121 1.370 . S
C2120 C2124 1.524 . S
C2121 C2113 1.503 . S
C2121 C2120 1.370 . S
C2121 C2122 1.403 . S
C2122 C2121 1.403 . S
C2122 C2123 1.404 . S
C2122 C2125 1.539 . S
C2123 C2119 1.408 . S
C2123 C2122 1.404 . S
C2123 H2135 0.930 . S
C2124 C2120 1.524 . S
C2124 H2136 0.956 . S
C2124 H2137 0.961 . S
C2124 H2138 0.961 . S
C2125 C2122 1.539 . S
C2125 H2139 0.958 . S
C2125 H2140 0.961 . S
C2125 H2141 0.960 . S
H2126 C2110 0.931 . S
H2127 C2115 0.929 . S
H2128 C2116 0.960 . S
H2129 C2116 0.962 . S
H2130 C2116 0.960 . S
H2131 C2117 0.961 . S
H2132 C2117 0.961 . S
H2133 C2117 0.961 . S
H2134 C2118 0.931 . S
H2135 C2123 0.930 . S
H2136 C2124 0.956 . S
H2137 C2124 0.961 . S
H2138 C2124 0.961 . S
H2139 C2125 0.958 . S
H2140 C2125 0.961 . S
H2141 C2125 0.960 . S
C2142 C2143 1.391 . S
C2142 C2144 1.394 . S
C2142 H2158 0.931 . S
C2143 C2142 1.391 . S
C2143 C2147 1.376 . S
C2144 C2142 1.394 . S
C2144 C2145 1.369 . S
C2144 C2148 1.531 . S
C2145 C2144 1.369 . S
C2145 C2146 1.410 . S
C2145 C2153 1.503 . S
C2146 C2145 1.410 . S
C2146 C2147 1.392 . S
C2146 C2149 1.511 . S
C2147 C2143 1.376 . S
C2147 C2146 1.392 . S
C2147 H2159 0.929 . S
C2148 C2144 1.531 . S
C2148 H2160 0.960 . S
C2148 H2161 0.962 . S
C2148 H2162 0.960 . S
C2149 C2146 1.511 . S
C2149 H2163 0.961 . S
C2149 H2164 0.961 . S
C2149 H2165 0.961 . S
C2150 C2151 1.370 . S
C2150 C2152 1.363 . S
C2150 H2166 0.931 . S
C2151 C2150 1.370 . S
C2151 C2155 1.408 . S
C2152 C2150 1.363 . S
C2152 C2153 1.370 . S
C2152 C2156 1.524 . S
C2153 C2145 1.503 . S
C2153 C2152 1.370 . S
C2153 C2154 1.403 . S
C2154 C2153 1.403 . S
C2154 C2155 1.404 . S
C2154 C2157 1.539 . S
C2155 C2151 1.408 . S
C2155 C2154 1.404 . S
C2155 H2167 0.930 . S
C2156 C2152 1.524 . S
C2156 H2168 0.956 . S
C2156 H2169 0.961 . S
C2156 H2170 0.961 . S
C2157 C2154 1.539 . S
C2157 H2171 0.958 . S
C2157 H2172 0.961 . S
C2157 H2173 0.960 . S
H2158 C2142 0.931 . S
H2159 C2147 0.929 . S
H2160 C2148 0.960 . S
H2161 C2148 0.962 . S
H2162 C2148 0.960 . S
H2163 C2149 0.961 . S
H2164 C2149 0.961 . S
H2165 C2149 0.961 . S
H2166 C2150 0.931 . S
H2167 C2155 0.930 . S
H2168 C2156 0.956 . S
H2169 C2156 0.961 . S
H2170 C2156 0.961 . S
H2171 C2157 0.958 . S
H2172 C2157 0.961 . S
H2173 C2157 0.960 . S
C2174 C2175 1.391 . S
C2174 C2176 1.394 . S
C2174 H2190 0.931 . S
C2175 C2174 1.391 . S
C2175 C2179 1.376 . S
C2176 C2174 1.394 . S
C2176 C2177 1.369 . S
C2176 C2180 1.531 . S
C2177 C2176 1.369 . S
C2177 C2178 1.410 . S
C2177 C2185 1.503 . S
C2178 C2177 1.410 . S
C2178 C2179 1.392 . S
C2178 C2181 1.511 . S
C2179 C2175 1.376 . S
C2179 C2178 1.392 . S
C2179 H2191 0.929 . S
C2180 C2176 1.531 . S
C2180 H2192 0.960 . S
C2180 H2193 0.962 . S
C2180 H2194 0.960 . S
C2181 C2178 1.511 . S
C2181 H2195 0.961 . S
C2181 H2196 0.961 . S
C2181 H2197 0.961 . S
C2182 C2183 1.370 . S
C2182 C2184 1.363 . S
C2182 H2198 0.931 . S
C2183 C2182 1.370 . S
C2183 C2187 1.408 . S
C2184 C2182 1.363 . S
C2184 C2185 1.370 . S
C2184 C2188 1.524 . S
C2185 C2177 1.503 . S
C2185 C2184 1.370 . S
C2185 C2186 1.403 . S
C2186 C2185 1.403 . S
C2186 C2187 1.404 . S
C2186 C2189 1.539 1_455 S
C2187 C2183 1.408 . S
C2187 C2186 1.404 . S
C2187 H2199 0.930 . S
C2188 C2184 1.524 . S
C2188 H2200 0.956 . S
C2188 H2201 0.961 . S
C2188 H2202 0.961 . S
C2189 C2186 1.539 1_655 S
C2189 H2203 0.953 1_655 S
C2189 H2204 0.961 . S
C2189 H2205 0.955 . S
H2190 C2174 0.931 . S
H2191 C2179 0.929 . S
H2192 C2180 0.960 . S
H2193 C2180 0.962 . S
H2194 C2180 0.960 . S
H2195 C2181 0.961 . S
H2196 C2181 0.961 . S
H2197 C2181 0.961 . S
H2198 C2182 0.931 . S
H2199 C2187 0.930 . S
H2200 C2188 0.956 . S
H2201 C2188 0.961 . S
H2202 C2188 0.961 . S
H2203 C2189 0.953 1_455 S
H2204 C2189 0.961 . S
H2205 C2189 0.955 . S
C2206 C2207 1.391 . S
C2206 C2208 1.394 . S
C2206 H2222 0.931 . S
C2207 C2206 1.391 . S
C2207 C2211 1.376 . S
C2208 C2206 1.394 . S
C2208 C2209 1.369 . S
C2208 C2212 1.531 . S
C2209 C2208 1.369 . S
C2209 C2210 1.410 . S
C2209 C2217 1.503 . S
C2210 C2209 1.410 . S
C2210 C2211 1.392 . S
C2210 C2213 1.511 . S
C2211 C2207 1.376 . S
C2211 C2210 1.392 . S
C2211 H2223 0.929 . S
C2212 C2208 1.531 . S
C2212 H2224 0.960 . S
C2212 H2225 0.962 . S
C2212 H2226 0.960 . S
C2213 C2210 1.511 . S
C2213 H2227 0.961 . S
C2213 H2228 0.961 . S
C2213 H2229 0.961 . S
C2214 C2215 1.370 . S
C2214 C2216 1.363 . S
C2214 H2230 0.931 . S
C2215 C2214 1.370 . S
C2215 C2219 1.408 . S
C2216 C2214 1.363 . S
C2216 C2217 1.370 . S
C2216 C2220 1.524 . S
C2217 C2209 1.503 . S
C2217 C2216 1.370 . S
C2217 C2218 1.403 . S
C2218 C2217 1.403 . S
C2218 C2219 1.404 . S
C2218 C2221 1.539 . S
C2219 C2215 1.408 . S
C2219 C2218 1.404 . S
C2219 H2231 0.930 . S
C2220 C2216 1.524 . S
C2220 H2232 0.956 . S
C2220 H2233 0.961 . S
C2220 H2234 0.961 . S
C2221 C2218 1.539 . S
C2221 H2235 0.958 . S
C2221 H2236 0.961 . S
C2221 H2237 0.960 . S
H2222 C2206 0.931 . S
H2223 C2211 0.929 . S
H2224 C2212 0.960 . S
H2225 C2212 0.962 . S
H2226 C2212 0.960 . S
H2227 C2213 0.961 . S
H2228 C2213 0.961 . S
H2229 C2213 0.961 . S
H2230 C2214 0.931 . S
H2231 C2219 0.930 . S
H2232 C2220 0.956 . S
H2233 C2220 0.961 . S
H2234 C2220 0.961 . S
H2235 C2221 0.958 . S
H2236 C2221 0.961 . S
H2237 C2221 0.960 . S
C2238 C2239 1.391 . S
C2238 C2240 1.394 . S
C2238 H2254 0.931 . S
C2239 C2238 1.391 . S
C2239 C2243 1.376 . S
C2240 C2238 1.394 . S
C2240 C2241 1.369 . S
C2240 C2244 1.531 . S
C2241 C2240 1.369 . S
C2241 C2242 1.410 . S
C2241 C2249 1.503 . S
C2242 C2241 1.410 . S
C2242 C2243 1.392 . S
C2242 C2245 1.511 . S
C2243 C2239 1.376 . S
C2243 C2242 1.392 . S
C2243 H2255 0.929 . S
C2244 C2240 1.531 . S
C2244 H2256 0.960 . S
C2244 H2257 0.962 . S
C2244 H2258 0.960 . S
C2245 C2242 1.511 . S
C2245 H2259 0.961 . S
C2245 H2260 0.961 . S
C2245 H2261 0.961 . S
C2246 C2247 1.370 . S
C2246 C2248 1.363 . S
C2246 H2262 0.931 1_655 S
C2247 C2246 1.370 . S
C2247 C2251 1.408 . S
C2248 C2246 1.363 . S
C2248 C2249 1.370 . S
C2248 C2252 1.524 1_655 S
C2249 C2241 1.503 . S
C2249 C2248 1.370 . S
C2249 C2250 1.403 . S
C2250 C2249 1.403 . S
C2250 C2251 1.404 . S
C2250 C2253 1.539 . S
C2251 C2247 1.408 . S
C2251 C2250 1.404 . S
C2251 H2263 0.930 . S
C2252 C2248 1.524 1_455 S
C2252 H2264 0.956 . S
C2252 H2265 0.961 1_455 S
C2252 H2266 0.961 . S
C2253 C2250 1.539 . S
C2253 H2267 0.958 . S
C2253 H2268 0.961 . S
C2253 H2269 0.960 . S
H2254 C2238 0.931 . S
H2255 C2243 0.929 . S
H2256 C2244 0.960 . S
H2257 C2244 0.962 . S
H2258 C2244 0.960 . S
H2259 C2245 0.961 . S
H2260 C2245 0.961 . S
H2261 C2245 0.961 . S
H2262 C2246 0.931 1_455 S
H2263 C2251 0.930 . S
H2264 C2252 0.956 . S
H2265 C2252 0.961 1_655 S
H2266 C2252 0.961 . S
H2267 C2253 0.958 . S
H2268 C2253 0.961 . S
H2269 C2253 0.960 . S
C2270 C2271 1.391 . S
C2270 C2272 1.394 . S
C2270 H2286 0.931 . S
C2271 C2270 1.391 . S
C2271 C2275 1.376 . S
C2272 C2270 1.394 . S
C2272 C2273 1.369 . S
C2272 C2276 1.531 . S
C2273 C2272 1.369 . S
C2273 C2274 1.410 . S
C2273 C2281 1.503 . S
C2274 C2273 1.410 . S
C2274 C2275 1.392 . S
C2274 C2277 1.511 . S
C2275 C2271 1.376 . S
C2275 C2274 1.392 . S
C2275 H2287 0.929 . S
C2276 C2272 1.531 . S
C2276 H2288 0.960 . S
C2276 H2289 0.962 . S
C2276 H2290 0.960 . S
C2277 C2274 1.511 . S
C2277 H2291 0.961 . S
C2277 H2292 0.961 . S
C2277 H2293 0.961 . S
C2278 C2279 1.370 . S
C2278 C2280 1.363 . S
C2278 H2294 0.931 . S
C2279 C2278 1.370 . S
C2279 C2283 1.408 . S
C2280 C2278 1.363 . S
C2280 C2281 1.370 . S
C2280 C2284 1.524 . S
C2281 C2273 1.503 . S
C2281 C2280 1.370 . S
C2281 C2282 1.403 . S
C2282 C2281 1.403 . S
C2282 C2283 1.404 . S
C2282 C2285 1.539 . S
C2283 C2279 1.408 . S
C2283 C2282 1.404 . S
C2283 H2295 0.930 . S
C2284 C2280 1.524 . S
C2284 H2296 0.956 . S
C2284 H2297 0.961 . S
C2284 H2298 0.961 . S
C2285 C2282 1.539 . S
C2285 H2299 0.958 . S
C2285 H2300 0.961 . S
C2285 H2301 0.960 . S
H2286 C2270 0.931 . S
H2287 C2275 0.929 . S
H2288 C2276 0.960 . S
H2289 C2276 0.962 . S
H2290 C2276 0.960 . S
H2291 C2277 0.961 . S
H2292 C2277 0.961 . S
H2293 C2277 0.961 . S
H2294 C2278 0.931 . S
H2295 C2283 0.930 . S
H2296 C2284 0.956 . S
H2297 C2284 0.961 . S
H2298 C2284 0.961 . S
H2299 C2285 0.958 . S
H2300 C2285 0.961 . S
H2301 C2285 0.960 . S
C2302 C2303 1.391 . S
C2302 C2304 1.394 . S
C2302 H2318 0.931 . S
C2303 C2302 1.391 . S
C2303 C2307 1.376 . S
C2304 C2302 1.394 . S
C2304 C2305 1.369 . S
C2304 C2308 1.531 . S
C2305 C2304 1.369 . S
C2305 C2306 1.410 . S
C2305 C2313 1.503 . S
C2306 C2305 1.410 . S
C2306 C2307 1.392 . S
C2306 C2309 1.511 . S
C2307 C2303 1.376 . S
C2307 C2306 1.392 . S
C2307 H2319 0.929 . S
C2308 C2304 1.531 . S
C2308 H2320 0.960 . S
C2308 H2321 0.962 . S
C2308 H2322 0.960 . S
C2309 C2306 1.511 . S
C2309 H2323 0.961 . S
C2309 H2324 0.961 . S
C2309 H2325 0.961 . S
C2310 C2311 1.370 . S
C2310 C2312 1.363 . S
C2310 H2326 0.931 . S
C2311 C2310 1.370 . S
C2311 C2315 1.408 . S
C2312 C2310 1.363 . S
C2312 C2313 1.370 . S
C2312 C2316 1.524 . S
C2313 C2305 1.503 . S
C2313 C2312 1.370 . S
C2313 C2314 1.403 . S
C2314 C2313 1.403 . S
C2314 C2315 1.404 . S
C2314 C2317 1.539 . S
C2315 C2311 1.408 . S
C2315 C2314 1.404 . S
C2315 H2327 0.930 . S
C2316 C2312 1.524 . S
C2316 H2328 0.956 . S
C2316 H2329 0.961 . S
C2316 H2330 0.961 . S
C2317 C2314 1.539 . S
C2317 H2331 0.958 . S
C2317 H2332 0.961 . S
C2317 H2333 0.960 . S
H2318 C2302 0.931 . S
H2319 C2307 0.929 . S
H2320 C2308 0.960 . S
H2321 C2308 0.962 . S
H2322 C2308 0.960 . S
H2323 C2309 0.961 . S
H2324 C2309 0.961 . S
H2325 C2309 0.961 . S
H2326 C2310 0.931 . S
H2327 C2315 0.930 . S
H2328 C2316 0.956 . S
H2329 C2316 0.961 . S
H2330 C2316 0.961 . S
H2331 C2317 0.958 . S
H2332 C2317 0.961 . S
H2333 C2317 0.960 . S
C2334 C2335 1.391 . S
C2334 C2336 1.394 . S
C2334 H2350 0.931 . S
C2335 C2334 1.391 . S
C2335 C2339 1.376 . S
C2336 C2334 1.394 . S
C2336 C2337 1.369 . S
C2336 C2340 1.531 . S
C2337 C2336 1.369 . S
C2337 C2338 1.410 . S
C2337 C2345 1.503 . S
C2338 C2337 1.410 . S
C2338 C2339 1.392 . S
C2338 C2341 1.511 . S
C2339 C2335 1.376 . S
C2339 C2338 1.392 . S
C2339 H2351 0.929 . S
C2340 C2336 1.531 . S
C2340 H2352 0.960 . S
C2340 H2353 0.962 . S
C2340 H2354 0.960 . S
C2341 C2338 1.511 . S
C2341 H2355 0.961 . S
C2341 H2356 0.961 . S
C2341 H2357 0.961 . S
C2342 C2343 1.370 . S
C2342 C2344 1.363 . S
C2342 H2358 0.931 . S
C2343 C2342 1.370 . S
C2343 C2347 1.408 . S
C2344 C2342 1.363 . S
C2344 C2345 1.370 . S
C2344 C2348 1.524 . S
C2345 C2337 1.503 . S
C2345 C2344 1.370 . S
C2345 C2346 1.403 . S
C2346 C2345 1.403 . S
C2346 C2347 1.404 . S
C2346 C2349 1.539 . S
C2347 C2343 1.408 . S
C2347 C2346 1.404 . S
C2347 H2359 0.930 . S
C2348 C2344 1.524 . S
C2348 H2360 0.956 . S
C2348 H2361 0.961 . S
C2348 H2362 0.961 . S
C2349 C2346 1.539 . S
C2349 H2363 0.958 . S
C2349 H2364 0.961 . S
C2349 H2365 0.960 . S
H2350 C2334 0.931 . S
H2351 C2339 0.929 . S
H2352 C2340 0.960 . S
H2353 C2340 0.962 . S
H2354 C2340 0.960 . S
H2355 C2341 0.961 . S
H2356 C2341 0.961 . S
H2357 C2341 0.961 . S
H2358 C2342 0.931 . S
H2359 C2347 0.930 . S
H2360 C2348 0.956 . S
H2361 C2348 0.961 . S
H2362 C2348 0.961 . S
H2363 C2349 0.958 . S
H2364 C2349 0.961 . S
H2365 C2349 0.960 . S
C2366 C2367 1.391 . S
C2366 C2368 1.394 . S
C2366 H2382 0.931 . S
C2367 C2366 1.391 . S
C2367 C2371 1.376 . S
C2368 C2366 1.394 . S
C2368 C2369 1.369 . S
C2368 C2372 1.531 . S
C2369 C2368 1.369 . S
C2369 C2370 1.410 . S
C2369 C2377 1.503 . S
C2370 C2369 1.410 . S
C2370 C2371 1.392 . S
C2370 C2373 1.511 . S
C2371 C2367 1.376 . S
C2371 C2370 1.392 . S
C2371 H2383 0.929 . S
C2372 C2368 1.531 . S
C2372 H2384 0.960 . S
C2372 H2385 0.962 . S
C2372 H2386 0.960 . S
C2373 C2370 1.511 . S
C2373 H2387 0.961 . S
C2373 H2388 0.961 . S
C2373 H2389 0.961 . S
C2374 C2375 1.370 . S
C2374 C2376 1.363 . S
C2374 H2390 0.931 . S
C2375 C2374 1.370 . S
C2375 C2379 1.408 . S
C2376 C2374 1.363 . S
C2376 C2377 1.370 . S
C2376 C2380 1.524 . S
C2377 C2369 1.503 . S
C2377 C2376 1.370 . S
C2377 C2378 1.403 . S
C2378 C2377 1.403 . S
C2378 C2379 1.404 . S
C2378 C2381 1.539 . S
C2379 C2375 1.408 . S
C2379 C2378 1.404 . S
C2379 H2391 0.930 . S
C2380 C2376 1.524 . S
C2380 H2392 0.956 . S
C2380 H2393 0.961 . S
C2380 H2394 0.961 . S
C2381 C2378 1.539 . S
C2381 H2395 0.958 . S
C2381 H2396 0.961 . S
C2381 H2397 0.960 . S
H2382 C2366 0.931 . S
H2383 C2371 0.929 . S
H2384 C2372 0.960 . S
H2385 C2372 0.962 . S
H2386 C2372 0.960 . S
H2387 C2373 0.961 . S
H2388 C2373 0.961 . S
H2389 C2373 0.961 . S
H2390 C2374 0.931 . S
H2391 C2379 0.930 . S
H2392 C2380 0.956 . S
H2393 C2380 0.961 . S
H2394 C2380 0.961 . S
H2395 C2381 0.958 . S
H2396 C2381 0.961 . S
H2397 C2381 0.960 . S
C2398 C2399 1.391 . S
C2398 C2400 1.394 . S
C2398 H2414 0.931 . S
C2399 C2398 1.391 . S
C2399 C2403 1.376 . S
C2400 C2398 1.394 . S
C2400 C2401 1.369 . S
C2400 C2404 1.531 . S
C2401 C2400 1.369 . S
C2401 C2402 1.410 . S
C2401 C2409 1.503 . S
C2402 C2401 1.410 . S
C2402 C2403 1.392 . S
C2402 C2405 1.511 . S
C2403 C2399 1.376 . S
C2403 C2402 1.392 . S
C2403 H2415 0.929 . S
C2404 C2400 1.531 . S
C2404 H2416 0.960 . S
C2404 H2417 0.962 . S
C2404 H2418 0.960 . S
C2405 C2402 1.511 . S
C2405 H2419 0.961 . S
C2405 H2420 0.961 . S
C2405 H2421 0.961 . S
C2406 C2407 1.370 . S
C2406 C2408 1.363 . S
C2406 H2422 0.931 . S
C2407 C2406 1.370 . S
C2407 C2411 1.408 . S
C2408 C2406 1.363 . S
C2408 C2409 1.370 . S
C2408 C2412 1.524 . S
C2409 C2401 1.503 . S
C2409 C2408 1.370 . S
C2409 C2410 1.403 . S
C2410 C2409 1.403 . S
C2410 C2411 1.404 . S
C2410 C2413 1.539 . S
C2411 C2407 1.408 . S
C2411 C2410 1.404 . S
C2411 H2423 0.930 . S
C2412 C2408 1.524 . S
C2412 H2424 0.956 . S
C2412 H2425 0.961 . S
C2412 H2426 0.961 . S
C2413 C2410 1.539 . S
C2413 H2427 0.958 . S
C2413 H2428 0.961 . S
C2413 H2429 0.960 . S
H2414 C2398 0.931 . S
H2415 C2403 0.929 . S
H2416 C2404 0.960 . S
H2417 C2404 0.962 . S
H2418 C2404 0.960 . S
H2419 C2405 0.961 . S
H2420 C2405 0.961 . S
H2421 C2405 0.961 . S
H2422 C2406 0.931 . S
H2423 C2411 0.930 . S
H2424 C2412 0.956 . S
H2425 C2412 0.961 . S
H2426 C2412 0.961 . S
H2427 C2413 0.958 . S
H2428 C2413 0.961 . S
H2429 C2413 0.960 . S
C2430 C2431 1.391 . S
C2430 C2432 1.394 . S
C2430 H2446 0.931 . S
C2431 C2430 1.391 . S
C2431 C2435 1.376 . S
C2432 C2430 1.394 . S
C2432 C2433 1.369 . S
C2432 C2436 1.531 . S
C2433 C2432 1.369 . S
C2433 C2434 1.410 . S
C2433 C2441 1.503 . S
C2434 C2433 1.410 . S
C2434 C2435 1.392 . S
C2434 C2437 1.511 . S
C2435 C2431 1.376 . S
C2435 C2434 1.392 . S
C2435 H2447 0.929 . S
C2436 C2432 1.531 . S
C2436 H2448 0.960 . S
C2436 H2449 0.962 . S
C2436 H2450 0.960 . S
C2437 C2434 1.511 . S
C2437 H2451 0.961 . S
C2437 H2452 0.961 . S
C2437 H2453 0.961 . S
C2438 C2439 1.370 . S
C2438 C2440 1.363 . S
C2438 H2454 0.931 . S
C2439 C2438 1.370 . S
C2439 C2443 1.408 . S
C2440 C2438 1.363 . S
C2440 C2441 1.370 . S
C2440 C2444 1.524 . S
C2441 C2433 1.503 . S
C2441 C2440 1.370 . S
C2441 C2442 1.403 . S
C2442 C2441 1.403 . S
C2442 C2443 1.404 . S
C2442 C2445 1.539 . S
C2443 C2439 1.408 . S
C2443 C2442 1.404 . S
C2443 H2455 0.930 . S
C2444 C2440 1.524 . S
C2444 H2456 0.956 . S
C2444 H2457 0.961 . S
C2444 H2458 0.961 . S
C2445 C2442 1.539 . S
C2445 H2459 0.958 . S
C2445 H2460 0.961 . S
C2445 H2461 0.960 . S
H2446 C2430 0.931 . S
H2447 C2435 0.929 . S
H2448 C2436 0.960 . S
H2449 C2436 0.962 . S
H2450 C2436 0.960 . S
H2451 C2437 0.961 . S
H2452 C2437 0.961 . S
H2453 C2437 0.961 . S
H2454 C2438 0.931 . S
H2455 C2443 0.930 . S
H2456 C2444 0.956 . S
H2457 C2444 0.961 . S
H2458 C2444 0.961 . S
H2459 C2445 0.958 . S
H2460 C2445 0.961 . S
H2461 C2445 0.960 . S
C2462 C2463 1.391 . S
C2462 C2464 1.394 . S
C2462 H2478 0.931 . S
C2463 C2462 1.391 . S
C2463 C2467 1.376 . S
C2464 C2462 1.394 . S
C2464 C2465 1.369 . S
C2464 C2468 1.531 . S
C2465 C2464 1.369 . S
C2465 C2466 1.410 . S
C2465 C2473 1.503 . S
C2466 C2465 1.410 . S
C2466 C2467 1.392 . S
C2466 C2469 1.511 . S
C2467 C2463 1.376 . S
C2467 C2466 1.392 . S
C2467 H2479 0.929 . S
C2468 C2464 1.531 . S
C2468 H2480 0.960 . S
C2468 H2481 0.962 . S
C2468 H2482 0.960 . S
C2469 C2466 1.511 . S
C2469 H2483 0.961 . S
C2469 H2484 0.961 . S
C2469 H2485 0.961 . S
C2470 C2471 1.370 . S
C2470 C2472 1.363 . S
C2470 H2486 0.931 . S
C2471 C2470 1.370 . S
C2471 C2475 1.408 . S
C2472 C2470 1.363 . S
C2472 C2473 1.370 . S
C2472 C2476 1.524 . S
C2473 C2465 1.503 . S
C2473 C2472 1.370 . S
C2473 C2474 1.403 . S
C2474 C2473 1.403 . S
C2474 C2475 1.404 . S
C2474 C2477 1.539 . S
C2475 C2471 1.408 . S
C2475 C2474 1.404 . S
C2475 H2487 0.930 . S
C2476 C2472 1.524 . S
C2476 H2488 0.956 . S
C2476 H2489 0.961 . S
C2476 H2490 0.961 . S
C2477 C2474 1.539 . S
C2477 H2491 0.958 . S
C2477 H2492 0.961 . S
C2477 H2493 0.960 . S
H2478 C2462 0.931 . S
H2479 C2467 0.929 . S
H2480 C2468 0.960 . S
H2481 C2468 0.962 . S
H2482 C2468 0.960 . S
H2483 C2469 0.961 . S
H2484 C2469 0.961 . S
H2485 C2469 0.961 . S
H2486 C2470 0.931 . S
H2487 C2475 0.930 . S
H2488 C2476 0.956 . S
H2489 C2476 0.961 . S
H2490 C2476 0.961 . S
H2491 C2477 0.958 . S
H2492 C2477 0.961 . S
H2493 C2477 0.960 . S
C2494 C2495 1.391 . S
C2494 C2496 1.394 . S
C2494 H2510 0.931 . S
C2495 C2494 1.391 . S
C2495 C2499 1.376 . S
C2496 C2494 1.394 . S
C2496 C2497 1.369 . S
C2496 C2500 1.531 . S
C2497 C2496 1.369 . S
C2497 C2498 1.410 . S
C2497 C2505 1.503 . S
C2498 C2497 1.410 . S
C2498 C2499 1.392 . S
C2498 C2501 1.511 . S
C2499 C2495 1.376 . S
C2499 C2498 1.392 . S
C2499 H2511 0.929 . S
C2500 C2496 1.531 . S
C2500 H2512 0.960 . S
C2500 H2513 0.962 . S
C2500 H2514 0.960 . S
C2501 C2498 1.511 . S
C2501 H2515 0.961 . S
C2501 H2516 0.961 . S
C2501 H2517 0.961 . S
C2502 C2503 1.370 . S
C2502 C2504 1.363 . S
C2502 H2518 0.931 . S
C2503 C2502 1.370 . S
C2503 C2507 1.408 . S
C2504 C2502 1.363 . S
C2504 C2505 1.370 . S
C2504 C2508 1.524 . S
C2505 C2497 1.503 . S
C2505 C2504 1.370 . S
C2505 C2506 1.403 . S
C2506 C2505 1.403 . S
C2506 C2507 1.404 . S
C2506 C2509 1.539 . S
C2507 C2503 1.408 . S
C2507 C2506 1.404 . S
C2507 H2519 0.930 . S
C2508 C2504 1.524 . S
C2508 H2520 0.956 . S
C2508 H2521 0.961 . S
C2508 H2522 0.961 . S
C2509 C2506 1.539 . S
C2509 H2523 0.958 . S
C2509 H2524 0.961 . S
C2509 H2525 0.960 . S
H2510 C2494 0.931 . S
H2511 C2499 0.929 . S
H2512 C2500 0.960 . S
H2513 C2500 0.962 . S
H2514 C2500 0.960 . S
H2515 C2501 0.961 . S
H2516 C2501 0.961 . S
H2517 C2501 0.961 . S
H2518 C2502 0.931 . S
H2519 C2507 0.930 . S
H2520 C2508 0.956 . S
H2521 C2508 0.961 . S
H2522 C2508 0.961 . S
H2523 C2509 0.958 . S
H2524 C2509 0.961 . S
H2525 C2509 0.960 . S
C2526 C2527 1.391 . S
C2526 C2528 1.394 . S
C2526 H2542 0.931 . S
C2527 C2526 1.391 . S
C2527 C2531 1.376 . S
C2528 C2526 1.394 . S
C2528 C2529 1.369 . S
C2528 C2532 1.531 . S
C2529 C2528 1.369 . S
C2529 C2530 1.410 . S
C2529 C2537 1.503 . S
C2530 C2529 1.410 . S
C2530 C2531 1.392 . S
C2530 C2533 1.511 . S
C2531 C2527 1.376 . S
C2531 C2530 1.392 . S
C2531 H2543 0.929 . S
C2532 C2528 1.531 . S
C2532 H2544 0.960 . S
C2532 H2545 0.962 . S
C2532 H2546 0.960 . S
C2533 C2530 1.511 . S
C2533 H2547 0.961 . S
C2533 H2548 0.961 . S
C2533 H2549 0.961 . S
C2534 C2535 1.370 . S
C2534 C2536 1.363 . S
C2534 H2550 0.931 . S
C2535 C2534 1.370 . S
C2535 C2539 1.408 . S
C2536 C2534 1.363 . S
C2536 C2537 1.370 . S
C2536 C2540 1.524 . S
C2537 C2529 1.503 . S
C2537 C2536 1.370 . S
C2537 C2538 1.403 . S
C2538 C2537 1.403 . S
C2538 C2539 1.404 . S
C2538 C2541 1.539 . S
C2539 C2535 1.408 . S
C2539 C2538 1.404 . S
C2539 H2551 0.930 . S
C2540 C2536 1.524 . S
C2540 H2552 0.956 . S
C2540 H2553 0.961 . S
C2540 H2554 0.961 . S
C2541 C2538 1.539 . S
C2541 H2555 0.958 . S
C2541 H2556 0.961 . S
C2541 H2557 0.960 . S
H2542 C2526 0.931 . S
H2543 C2531 0.929 . S
H2544 C2532 0.960 . S
H2545 C2532 0.962 . S
H2546 C2532 0.960 . S
H2547 C2533 0.961 . S
H2548 C2533 0.961 . S
H2549 C2533 0.961 . S
H2550 C2534 0.931 . S
H2551 C2539 0.930 . S
H2552 C2540 0.956 . S
H2553 C2540 0.961 . S
H2554 C2540 0.961 . S
H2555 C2541 0.958 . S
H2556 C2541 0.961 . S
H2557 C2541 0.960 . S
C2558 C2559 1.391 . S
C2558 C2560 1.394 . S
C2558 H2574 0.931 . S
C2559 C2558 1.391 . S
C2559 C2563 1.376 . S
C2560 C2558 1.394 . S
C2560 C2561 1.369 . S
C2560 C2564 1.531 . S
C2561 C2560 1.369 . S
C2561 C2562 1.410 . S
C2561 C2569 1.503 . S
C2562 C2561 1.410 . S
C2562 C2563 1.392 . S
C2562 C2565 1.511 . S
C2563 C2559 1.376 . S
C2563 C2562 1.392 . S
C2563 H2575 0.929 . S
C2564 C2560 1.531 . S
C2564 H2576 0.960 . S
C2564 H2577 0.962 . S
C2564 H2578 0.960 . S
C2565 C2562 1.511 . S
C2565 H2579 0.961 . S
C2565 H2580 0.961 . S
C2565 H2581 0.961 . S
C2566 C2567 1.370 . S
C2566 C2568 1.363 . S
C2566 H2582 0.931 . S
C2567 C2566 1.370 . S
C2567 C2571 1.408 . S
C2568 C2566 1.363 . S
C2568 C2569 1.370 . S
C2568 C2572 1.524 . S
C2569 C2561 1.503 . S
C2569 C2568 1.370 . S
C2569 C2570 1.403 . S
C2570 C2569 1.403 . S
C2570 C2571 1.404 . S
C2570 C2573 1.539 . S
C2571 C2567 1.408 . S
C2571 C2570 1.404 . S
C2571 H2583 0.930 . S
C2572 C2568 1.524 . S
C2572 H2584 0.956 . S
C2572 H2585 0.961 . S
C2572 H2586 0.961 . S
C2573 C2570 1.539 . S
C2573 H2587 0.958 . S
C2573 H2588 0.961 . S
C2573 H2589 0.960 . S
H2574 C2558 0.931 . S
H2575 C2563 0.929 . S
H2576 C2564 0.960 . S
H2577 C2564 0.962 . S
H2578 C2564 0.960 . S
H2579 C2565 0.961 . S
H2580 C2565 0.961 . S
H2581 C2565 0.961 . S
H2582 C2566 0.931 . S
H2583 C2571 0.930 . S
H2584 C2572 0.956 . S
H2585 C2572 0.961 . S
H2586 C2572 0.961 . S
H2587 C2573 0.958 . S
H2588 C2573 0.961 . S
H2589 C2573 0.960 . S
C2590 C2591 1.391 . S
C2590 C2592 1.394 . S
C2590 H2606 0.931 . S
C2591 C2590 1.391 . S
C2591 C2595 1.376 . S
C2592 C2590 1.394 . S
C2592 C2593 1.369 . S
C2592 C2596 1.531 . S
C2593 C2592 1.369 . S
C2593 C2594 1.410 . S
C2593 C2601 1.503 . S
C2594 C2593 1.410 . S
C2594 C2595 1.392 . S
C2594 C2597 1.511 . S
C2595 C2591 1.376 . S
C2595 C2594 1.392 . S
C2595 H2607 0.929 . S
C2596 C2592 1.531 . S
C2596 H2608 0.960 . S
C2596 H2609 0.962 . S
C2596 H2610 0.960 . S
C2597 C2594 1.511 . S
C2597 H2611 0.961 . S
C2597 H2612 0.961 . S
C2597 H2613 0.961 . S
C2598 C2599 1.370 . S
C2598 C2600 1.363 . S
C2598 H2614 0.931 . S
C2599 C2598 1.370 . S
C2599 C2603 1.408 . S
C2600 C2598 1.363 . S
C2600 C2601 1.370 . S
C2600 C2604 1.524 . S
C2601 C2593 1.503 . S
C2601 C2600 1.370 . S
C2601 C2602 1.403 . S
C2602 C2601 1.403 . S
C2602 C2603 1.404 . S
C2602 C2605 1.539 . S
C2603 C2599 1.408 . S
C2603 C2602 1.404 . S
C2603 H2615 0.930 . S
C2604 C2600 1.524 . S
C2604 H2616 0.956 . S
C2604 H2617 0.961 . S
C2604 H2618 0.961 . S
C2605 C2602 1.539 . S
C2605 H2619 0.958 . S
C2605 H2620 0.961 . S
C2605 H2621 0.960 . S
H2606 C2590 0.931 . S
H2607 C2595 0.929 . S
H2608 C2596 0.960 . S
H2609 C2596 0.962 . S
H2610 C2596 0.960 . S
H2611 C2597 0.961 . S
H2612 C2597 0.961 . S
H2613 C2597 0.961 . S
H2614 C2598 0.931 . S
H2615 C2603 0.930 . S
H2616 C2604 0.956 . S
H2617 C2604 0.961 . S
H2618 C2604 0.961 . S
H2619 C2605 0.958 . S
H2620 C2605 0.961 . S
H2621 C2605 0.960 . S
C2622 C2623 1.391 . S
C2622 C2624 1.394 . S
C2622 H2638 0.931 . S
C2623 C2622 1.391 . S
C2623 C2627 1.376 . S
C2624 C2622 1.394 . S
C2624 C2625 1.369 . S
C2624 C2628 1.531 . S
C2625 C2624 1.369 . S
C2625 C2626 1.410 . S
C2625 C2633 1.503 . S
C2626 C2625 1.410 . S
C2626 C2627 1.392 . S
C2626 C2629 1.511 . S
C2627 C2623 1.376 . S
C2627 C2626 1.392 . S
C2627 H2639 0.929 . S
C2628 C2624 1.531 . S
C2628 H2640 0.960 . S
C2628 H2641 0.962 . S
C2628 H2642 0.960 . S
C2629 C2626 1.511 . S
C2629 H2643 0.961 . S
C2629 H2644 0.961 . S
C2629 H2645 0.961 . S
C2630 C2631 1.370 . S
C2630 C2632 1.363 . S
C2630 H2646 0.931 . S
C2631 C2630 1.370 . S
C2631 C2635 1.408 . S
C2632 C2630 1.363 . S
C2632 C2633 1.370 . S
C2632 C2636 1.524 . S
C2633 C2625 1.503 . S
C2633 C2632 1.370 . S
C2633 C2634 1.403 . S
C2634 C2633 1.403 . S
C2634 C2635 1.404 . S
C2634 C2637 1.539 . S
C2635 C2631 1.408 . S
C2635 C2634 1.404 . S
C2635 H2647 0.930 . S
C2636 C2632 1.524 . S
C2636 H2648 0.956 . S
C2636 H2649 0.961 . S
C2636 H2650 0.961 . S
C2637 C2634 1.539 . S
C2637 H2651 0.958 . S
C2637 H2652 0.961 . S
C2637 H2653 0.960 . S
H2638 C2622 0.931 . S
H2639 C2627 0.929 . S
H2640 C2628 0.960 . S
H2641 C2628 0.962 . S
H2642 C2628 0.960 . S
H2643 C2629 0.961 . S
H2644 C2629 0.961 . S
H2645 C2629 0.961 . S
H2646 C2630 0.931 . S
H2647 C2635 0.930 . S
H2648 C2636 0.956 . S
H2649 C2636 0.961 . S
H2650 C2636 0.961 . S
H2651 C2637 0.958 . S
H2652 C2637 0.961 . S
H2653 C2637 0.960 . S
C2654 C2655 1.391 . S
C2654 C2656 1.394 . S
C2654 H2670 0.931 . S
C2655 C2654 1.391 . S
C2655 C2659 1.376 . S
C2656 C2654 1.394 . S
C2656 C2657 1.369 . S
C2656 C2660 1.531 . S
C2657 C2656 1.369 . S
C2657 C2658 1.410 . S
C2657 C2665 1.503 . S
C2658 C2657 1.410 . S
C2658 C2659 1.392 . S
C2658 C2661 1.511 . S
C2659 C2655 1.376 . S
C2659 C2658 1.392 . S
C2659 H2671 0.929 . S
C2660 C2656 1.531 . S
C2660 H2672 0.960 . S
C2660 H2673 0.962 . S
C2660 H2674 0.960 . S
C2661 C2658 1.511 . S
C2661 H2675 0.961 . S
C2661 H2676 0.961 . S
C2661 H2677 0.961 . S
C2662 C2663 1.370 . S
C2662 C2664 1.363 . S
C2662 H2678 0.931 . S
C2663 C2662 1.370 . S
C2663 C2667 1.408 . S
C2664 C2662 1.363 . S
C2664 C2665 1.370 . S
C2664 C2668 1.524 . S
C2665 C2657 1.503 . S
C2665 C2664 1.370 . S
C2665 C2666 1.403 . S
C2666 C2665 1.403 . S
C2666 C2667 1.404 . S
C2666 C2669 1.539 . S
C2667 C2663 1.408 . S
C2667 C2666 1.404 . S
C2667 H2679 0.930 . S
C2668 C2664 1.524 . S
C2668 H2680 0.956 . S
C2668 H2681 0.961 . S
C2668 H2682 0.961 . S
C2669 C2666 1.539 . S
C2669 H2683 0.958 . S
C2669 H2684 0.961 . S
C2669 H2685 0.960 . S
H2670 C2654 0.931 . S
H2671 C2659 0.929 . S
H2672 C2660 0.960 . S
H2673 C2660 0.962 . S
H2674 C2660 0.960 . S
H2675 C2661 0.961 . S
H2676 C2661 0.961 . S
H2677 C2661 0.961 . S
H2678 C2662 0.931 . S
H2679 C2667 0.930 . S
H2680 C2668 0.956 . S
H2681 C2668 0.961 . S
H2682 C2668 0.961 . S
H2683 C2669 0.958 . S
H2684 C2669 0.961 . S
H2685 C2669 0.960 . S
C2686 C2687 1.391 . S
C2686 C2688 1.394 . S
C2686 H2702 0.931 . S
C2687 C2686 1.391 . S
C2687 C2691 1.376 . S
C2688 C2686 1.394 . S
C2688 C2689 1.369 . S
C2688 C2692 1.531 . S
C2689 C2688 1.369 . S
C2689 C2690 1.410 . S
C2689 C2697 1.503 . S
C2690 C2689 1.410 . S
C2690 C2691 1.392 . S
C2690 C2693 1.511 . S
C2691 C2687 1.376 . S
C2691 C2690 1.392 . S
C2691 H2703 0.929 . S
C2692 C2688 1.531 . S
C2692 H2704 0.960 . S
C2692 H2705 0.962 . S
C2692 H2706 0.960 . S
C2693 C2690 1.511 . S
C2693 H2707 0.961 . S
C2693 H2708 0.961 . S
C2693 H2709 0.961 . S
C2694 C2695 1.370 . S
C2694 C2696 1.363 . S
C2694 H2710 0.931 . S
C2695 C2694 1.370 . S
C2695 C2699 1.408 . S
C2696 C2694 1.363 . S
C2696 C2697 1.370 . S
C2696 C2700 1.524 . S
C2697 C2689 1.503 . S
C2697 C2696 1.370 . S
C2697 C2698 1.403 . S
C2698 C2697 1.403 . S
C2698 C2699 1.404 . S
C2698 C2701 1.539 . S
C2699 C2695 1.408 . S
C2699 C2698 1.404 . S
C2699 H2711 0.930 . S
C2700 C2696 1.524 . S
C2700 H2712 0.956 . S
C2700 H2713 0.961 . S
C2700 H2714 0.961 . S
C2701 C2698 1.539 . S
C2701 H2715 0.958 . S
C2701 H2716 0.961 . S
C2701 H2717 0.960 . S
H2702 C2686 0.931 . S
H2703 C2691 0.929 . S
H2704 C2692 0.960 . S
H2705 C2692 0.962 . S
H2706 C2692 0.960 . S
H2707 C2693 0.961 . S
H2708 C2693 0.961 . S
H2709 C2693 0.961 . S
H2710 C2694 0.931 . S
H2711 C2699 0.930 . S
H2712 C2700 0.956 . S
H2713 C2700 0.961 . S
H2714 C2700 0.961 . S
H2715 C2701 0.958 . S
H2716 C2701 0.961 . S
H2717 C2701 0.960 . S
C991 N170 1.967 . S
C999 C301 1.920 . S
C1023 N184 0.935 . S
C1031 C385 0.914 . S
C1055 N158 1.565 . S
C1063 C465 1.524 . S
C1087 N145 1.521 . S
C1095 C381 1.515 1_556 S
C1127 C469 0.911 . S
C1119 N119 0.924 . S
C1151 N131 1.920 . S
C1159 C297 1.898 . S
C1191 C290 1.574 . S
C1183 N144 1.648 . S
C1223 C374 1.344 . S
C1215 N118 1.381 . S
C1247 N132 1.437 . S
C1255 C476 1.431 . S
C1279 N171 1.413 . S
C1287 C392 1.409 . S
C1311 N183 1.334 . S
C1319 C458 1.291 . S
C1351 C308 1.574 . S
C1343 N157 1.589 . S
C1383 C553 1.906 . S
C1375 N14 1.974 . S
C1407 N28 0.982 . S
C1415 C637 0.952 . S
C1439 N2 1.546 . S
C1447 C717 1.542 . S
C1471 N223 1.536 . S
C1479 C633 1.498 . S
C1503 N197 0.926 . S
C1511 C721 0.910 . S
C1535 N209 1.922 . S
C1543 C549 1.907 . S
C1567 N222 1.636 . S
C1575 C542 1.594 . S
C1599 N196 1.340 . S
C1607 C626 1.354 . S
C1639 C728 1.431 . S
C1631 N210 1.436 . S
C1663 N15 1.422 . S
C1671 C644 1.413 . S
C1703 C710 1.286 . S
C1695 N27 1.334 . S
C1727 N1 1.590 . S
C1735 C560 1.570 . S
C1767 C805 1.907 . S
C1759 N92 1.972 . S
C1791 N106 0.976 . S
C1799 C889 0.939 . S
C1831 C969 1.541 . S
C1823 N80 1.545 . S
C1863 C885 1.500 . S
C1855 N67 1.539 . S
C1895 C973 0.862 . S
C1887 N41 0.887 . S
C1919 N53 1.928 . S
C1927 C801 1.893 . S
C1951 N66 1.637 . S
C1959 C794 1.581 . S
C1983 N40 1.340 . S
C1991 C878 1.352 . S
C2023 C980 1.427 . S
C2015 N54 1.426 . S
C2047 N93 1.408 . S
C2055 C896 1.412 . S
C2079 N105 1.290 . S
C2087 C962 1.302 . S
C2111 N79 1.593 . S
C2119 C812 1.566 . S
C2143 N200 1.263 . S
C2151 C304 1.164 . S
C2183 C388 1.585 . S
C2175 N213 1.791 . S
C2207 N226 1.483 . S
C2215 C460 1.391 . S
C2239 N83 1.526 . S
C2247 C376 1.420 . S
C2271 N96 1.742 . S
C2279 C472 1.607 . S
C2311 C292 1.152 . S
C2303 N109 1.265 . S
C2335 N44 1.235 . S
C2343 C556 1.118 . S
C2367 N57 1.766 . S
C2375 C640 1.622 . S
C2399 N70 1.509 . S
C2407 C712 1.373 . S
C2431 N161 1.516 . S
C2439 C628 1.408 . S
C2471 C724 1.606 . S
C2463 N174 1.744 . S
C2495 N187 1.252 . S
C2503 C544 1.150 . S
C2527 N122 1.250 . S
C2535 C808 1.156 . S
C2559 N135 1.794 . S
C2567 C892 1.584 . S
C2599 C964 1.373 . S
C2591 N148 1.488 . S
C2623 N5 1.517 . S
C2631 C880 1.404 . S
C2655 N18 1.741 . S
C2663 C976 1.607 . S
C2687 N31 1.253 . S
C2695 C796 1.150 . S
