# Generated by pormake.
# Topology anh, (6,3)-cn, num edge types: 1
# Building blocks:
#     Node 0, Type 0, BuildingBlock: NUHQIS_clean_sbu_0, # of connection points: 6
#     Node 1, Type 0, BuildingBlock: NUHQIS_clean_sbu_0, # of connection points: 6
#     Node 2, Type 0, BuildingBlock: NUHQIS_clean_sbu_0, # of connection points: 6
#     Node 3, Type 1, BuildingBlock: PAMTOO_clean_linker_0, # of connection points: 3
#     Node 4, Type 1, BuildingBlock: PAMTOO_clean_linker_0, # of connection points: 3
#     Node 5, Type 1, BuildingBlock: PAMTOO_clean_linker_0, # of connection points: 3
#     Node 6, Type 1, BuildingBlock: PAMTOO_clean_linker_0, # of connection points: 3
#     Node 7, Type 1, BuildingBlock: PAMTOO_clean_linker_0, # of connection points: 3
#     Node 8, Type 1, BuildingBlock: PAMTOO_clean_linker_0, # of connection points: 3
#     Edge 9, Type (0, 1), BuildingBlock: MIFKUJ_clean_linker_0, # of connection points: 2
#     Edge 10, Type (0, 1), BuildingBlock: MIFKUJ_clean_linker_0, # of connection points: 2
#     Edge 11, Type (0, 1), BuildingBlock: MIFKUJ_clean_linker_0, # of connection points: 2
#     Edge 12, Type (0, 1), BuildingBlock: MIFKUJ_clean_linker_0, # of connection points: 2
#     Edge 13, Type (0, 1), BuildingBlock: MIFKUJ_clean_linker_0, # of connection points: 2
#     Edge 14, Type (0, 1), BuildingBlock: MIFKUJ_clean_linker_0, # of connection points: 2
#     Edge 15, Type (0, 1), BuildingBlock: MIFKUJ_clean_linker_0, # of connection points: 2
#     Edge 16, Type (0, 1), BuildingBlock: MIFKUJ_clean_linker_0, # of connection points: 2
#     Edge 17, Type (0, 1), BuildingBlock: MIFKUJ_clean_linker_0, # of connection points: 2
#     Edge 18, Type (0, 1), BuildingBlock: MIFKUJ_clean_linker_0, # of connection points: 2
#     Edge 19, Type (0, 1), BuildingBlock: MIFKUJ_clean_linker_0, # of connection points: 2
#     Edge 20, Type (0, 1), BuildingBlock: MIFKUJ_clean_linker_0, # of connection points: 2
#     Edge 21, Type (0, 1), BuildingBlock: MIFKUJ_clean_linker_0, # of connection points: 2
#     Edge 22, Type (0, 1), BuildingBlock: MIFKUJ_clean_linker_0, # of connection points: 2
#     Edge 23, Type (0, 1), BuildingBlock: MIFKUJ_clean_linker_0, # of connection points: 2
#     Edge 24, Type (0, 1), BuildingBlock: MIFKUJ_clean_linker_0, # of connection points: 2
#     Edge 25, Type (0, 1), BuildingBlock: MIFKUJ_clean_linker_0, # of connection points: 2
#     Edge 26, Type (0, 1), BuildingBlock: MIFKUJ_clean_linker_0, # of connection points: 2
# Relax obj value: 0.187
# Max RMSD: 0.140
# Mean RMSD: 0.115
data_MOF--net-anh--node1-NUHQIS_clean_sbu_0--node2-PAMTOO_clean_linker_0--edge1-MIFKUJ_clean_linker_0
_symmetry_space_group_name_H-M    P1
_symmetry_Int_Tables_number       1
_symmetry_cell_setting            triclinic
loop_
_symmetry_equiv_pos_as_xyz
'x, y, z'
_cell_length_a     39.668693
_cell_length_b     39.594145
_cell_length_c     64.867087
_cell_angle_alpha  86.206571
_cell_angle_beta   94.580316
_cell_angle_gamma 119.88883
loop_
_atom_site_label
_atom_site_type_symbol
_atom_site_fract_x
_atom_site_fract_y
_atom_site_fract_z
_atom_type_partial_charge
Tb0 Tb 0.15039 0.57789 0.16173 0.0
Eu1 Eu 0.10669 0.62741 0.1471 0.0
C2 C 0.11651 0.60682 0.19428 0.0
C3 C 1.05675 0.53259 0.15576 0.0
C4 C 0.21544 0.53325 0.1765 0.0
C5 C 0.24495 0.49421 0.18842 0.0
C6 C 0.21444 0.50205 0.18841 0.0
C7 C 0.2479 0.55754 0.165 0.0
C8 C 0.27872 0.54978 0.16504 0.0
C9 C 0.27726 0.51762 0.17653 0.0
C10 C 0.18121 0.53812 0.17591 0.0
O11 O 0.16351 0.59087 0.12901 0.0
O12 O 0.11937 0.61054 0.11755 0.0
O13 O 0.17114 0.67272 0.14524 0.0
O14 O 0.19813 0.63962 0.16386 0.0
C15 C 0.1451 0.60031 0.11394 0.0
O16 O 1.06268 0.63359 0.12745 0.0
O17 O 0.09753 0.67672 0.15028 0.0
O18 O 0.11854 0.63414 0.18121 0.0
O19 O 0.11974 0.57771 0.18822 0.0
O20 O 1.08952 0.53188 0.15466 0.0
O21 O 1.05739 0.56626 0.15587 0.0
C22 C 0.2015 0.67228 0.15498 0.0
O23 O 0.18474 0.56814 0.18504 0.0
O24 O 0.1605 0.53138 0.15848 0.0
C25 C 1.03096 0.65726 0.14588 0.0
C26 C 0.95687 0.63533 0.15943 0.0
C27 C 0.96845 0.65427 0.14 0.0
C28 C 1.00521 0.66511 0.13329 0.0
C29 C 1.02025 0.63989 0.16562 0.0
C30 C 0.98361 0.62921 0.17238 0.0
C31 C 1.0668 0.66289 0.13758 0.0
H32 H 0.24232 0.46872 0.19706 0.0
H33 H 0.18943 0.48297 0.19732 0.0
H34 H 0.24901 0.58185 0.15575 0.0
H35 H 0.30333 0.56851 0.15583 0.0
H36 H 0.94839 0.65884 0.12948 0.0
H37 H 1.01286 0.67807 0.11793 0.0
H38 H 1.03967 0.63325 0.17551 0.0
H39 H 0.97578 0.61506 0.18749 0.0
Tb40 Tb 0.70855 0.09735 0.48802 0.0
Eu41 Eu 0.61399 1.05267 0.48314 0.0
C42 C 0.65825 0.07606 0.52637 0.0
C43 C 0.65991 1.00283 0.48803 0.0
C44 C 0.8129 0.16686 0.5015 0.0
C45 C 0.83752 0.21756 0.5268 0.0
C46 C 0.80872 0.18107 0.51984 0.0
C47 C 0.84657 0.18894 0.49058 0.0
C48 C 0.87506 0.22552 0.49734 0.0
C49 C 0.87065 0.24066 0.51535 0.0
C50 C 0.78172 0.13046 0.49268 0.0
O51 O 0.69369 0.08241 0.45527 0.0
O52 O 0.63248 0.07499 0.45113 0.0
O53 O 0.63218 0.11692 0.48662 0.0
O54 O 0.69888 0.14807 0.48551 0.0
C55 C 0.66428 0.08035 0.44334 0.0
O56 O 0.55634 1.00465 0.47373 0.0
O57 O 0.56175 1.05328 0.48999 0.0
O58 O 0.63155 1.04632 0.51607 0.0
O59 O 0.68816 0.10391 0.51697 0.0
O60 O 0.69148 1.03522 0.49396 0.0
O61 O 0.6282 1.00362 0.4808 0.0
C62 C 0.66628 0.14932 0.48644 0.0
O63 O 0.75815 0.10404 0.50556 0.0
O64 O 0.76314 0.13457 0.47606 0.0
C65 C 0.50599 0.99232 0.49624 0.0
C66 C 0.43827 0.94387 0.51772 0.0
C67 C 0.4528 0.92769 0.50467 0.0
C68 C 0.48631 0.95175 0.49393 0.0
C69 C 0.49251 1.00809 0.51018 0.0
C70 C 0.45907 0.98411 0.52083 0.0
C71 C 0.53814 1.01873 0.48297 0.0
H72 H 0.83334 0.22806 0.54083 0.0
H73 H 0.78282 0.16448 0.52851 0.0
H74 H 0.85016 0.1785 0.47634 0.0
H75 H 0.89958 0.24262 0.48781 0.0
H76 H 0.43693 0.89676 0.50178 0.0
H77 H 0.49583 0.93875 0.48322 0.0
H78 H 0.50686 1.03923 0.51228 0.0
H79 H 0.44847 0.99726 0.53082 0.0
Tb80 Tb 0.73151 0.65228 0.82211 0.0
Eu81 Eu 0.68626 0.55873 0.82229 0.0
C82 C 0.71162 0.60275 0.86302 0.0
C83 C 0.78221 0.60806 0.82448 0.0
C84 C 0.74185 0.7444 0.83247 0.0
C85 C 0.72905 0.79827 0.82887 0.0
C86 C 0.75329 0.78288 0.82607 0.0
C87 C 0.70731 0.72235 0.84293 0.0
C88 C 0.68288 0.73744 0.84543 0.0
C89 C 0.69297 0.77501 0.83778 0.0
C90 C 0.76115 0.72455 0.82503 0.0
O91 O 0.73378 0.63779 0.79042 0.0
O92 O 0.67923 0.57767 0.78963 0.0
O93 O 0.63919 0.57394 0.82848 0.0
O94 O 0.66968 0.63803 0.81768 0.0
C95 C 0.70596 0.60844 0.78 0.0
O96 O 0.67438 0.50293 0.81099 0.0
O97 O 0.6417 0.50458 0.83583 0.0
O98 O 0.71592 0.57741 0.85345 0.0
O99 O 0.70741 0.6296 0.85223 0.0
O100 O 0.78064 0.64013 0.82728 0.0
O101 O 0.75001 0.57486 0.82034 0.0
C102 C 0.63803 0.60633 0.8238 0.0
O103 O 0.76797 0.7028 0.83878 0.0
O104 O 0.74516 0.70637 0.80785 0.0
C105 C 0.6568 0.45461 0.83755 0.0
C106 C 0.66778 0.39965 0.86243 0.0
C107 C 0.63476 0.38779 0.84869 0.0
C108 C 0.62931 0.41507 0.83642 0.0
C109 C 0.68987 0.46687 0.85116 0.0
C110 C 0.69543 0.4395 0.86349 0.0
C111 C 0.64978 0.48296 0.82521 0.0
H112 H 0.73705 0.82719 0.82259 0.0
H113 H 0.77955 0.80007 0.81776 0.0
H114 H 0.69785 0.69246 0.84789 0.0
H115 H 0.65509 0.71903 0.85222 0.0
H116 H 0.61342 0.35723 0.84708 0.0
H117 H 0.60363 0.40526 0.82602 0.0
H118 H 0.71122 0.49754 0.85229 0.0
H119 H 0.72113 0.44944 0.87386 0.0
H120 H 0.71851 0.17302 0.21963 0.0
H121 H 0.61231 0.06292 0.21491 0.0
H122 H 0.66266 0.13074 0.15963 0.0
H123 H 0.56207 0.06919 0.15757 0.0
C124 C 0.56486 1.05414 0.17213 0.0
O125 O 0.60364 0.06233 0.175 0.0
H126 H 0.55791 0.06709 0.18473 0.0
C127 C 0.69507 0.15098 0.21014 0.0
C128 C 0.69516 0.15673 0.18848 0.0
C129 C 0.66524 0.1178 0.21986 0.0
C130 C 0.63468 0.08918 0.20762 0.0
C131 C 0.63277 0.09321 0.18598 0.0
C132 C 0.66316 0.12757 0.17634 0.0
H133 H 0.68135 0.65963 0.55417 0.0
H134 H 0.68462 0.55286 0.55274 0.0
H135 H 0.66726 0.60643 0.49581 0.0
H136 H 0.62164 0.50677 0.50082 0.0
C137 C 0.64428 0.50724 0.51225 0.0
O138 O 0.67543 0.54566 0.51283 0.0
H139 H 0.63105 0.49865 0.52756 0.0
C140 C 0.67996 0.63654 0.5454 0.0
C141 C 0.67438 0.63777 0.52374 0.0
C142 C 0.6831 0.60602 0.55603 0.0
C143 C 0.68112 0.57589 0.5447 0.0
C144 C 0.67503 0.57505 0.52305 0.0
C145 C 0.67121 0.60616 0.51251 0.0
H146 H 0.13316 0.60501 0.89053 0.0
H147 H 0.24578 0.6129 0.8926 0.0
H148 H 0.18817 0.61641 0.83388 0.0
H149 H 0.24729 0.58052 0.83143 0.0
C150 C 0.25974 0.58897 0.84744 0.0
O151 O 0.25351 0.61913 0.85285 0.0
H152 H 0.24294 0.56294 0.85764 0.0
C153 C 0.15761 0.60792 0.88264 0.0
C154 C 0.15622 0.61081 0.86095 0.0
C155 C 0.18956 0.60884 0.89432 0.0
C156 C 0.22069 0.61144 0.88385 0.0
C157 C 0.22076 0.61369 0.86209 0.0
C158 C 0.18821 0.61362 0.85059 0.0
H159 H 1.0568 0.58414 0.4178 0.0
H160 H 0.09422 0.70587 0.40517 0.0
H161 H 1.08658 0.66192 0.46764 0.0
H162 H 1.05091 0.70749 0.45785 0.0
C163 C 1.07943 0.73342 0.45421 0.0
O164 O 0.10229 0.72334 0.44398 0.0
H165 H 1.07327 0.75377 0.44417 0.0
C166 C 1.06705 0.61323 0.42312 0.0
C167 C 1.07006 0.6192 0.44445 0.0
C168 C 1.07629 0.64432 0.40864 0.0
C169 C 1.08666 0.68125 0.41586 0.0
C170 C 1.08985 0.68733 0.43709 0.0
C171 C 1.08276 0.65667 0.45126 0.0
H172 H 0.534 0.99631 0.72383 0.0
H173 H 0.56299 0.1106 0.74245 0.0
H174 H 0.55284 1.0241 0.78828 0.0
H175 H 0.52118 0.06246 0.80059 0.0
C176 C 0.54208 0.09318 0.79609 0.0
O177 O 0.56728 0.09486 0.78205 0.0
H178 H 0.52543 0.10706 0.78885 0.0
C179 C 0.53951 1.01633 0.7359 0.0
C180 C 0.54035 1.00437 0.75676 0.0
C181 C 0.54877 1.05493 0.73048 0.0
C182 C 0.55574 0.08074 0.74623 0.0
C183 C 0.55624 0.06895 0.76698 0.0
C184 C 0.54952 1.03142 0.77214 0.0
H185 H 0.61665 0.49319 0.07541 0.0
H186 H 0.50165 0.41029 0.0518 0.0
H187 H 0.52994 0.41648 0.11716 0.0
H188 H 0.48725 0.34194 0.1035 0.0
C189 C 0.46236 0.34628 0.09785 0.0
O190 O 0.47477 0.38221 0.08797 0.0
H191 H 0.44372 0.32292 0.08683 0.0
C192 C 0.58714 0.47026 0.07802 0.0
C193 C 0.57659 0.4565 0.09827 0.0
C194 C 0.56031 0.45438 0.06109 0.0
C195 C 0.52309 0.42268 0.06455 0.0
C196 C 0.51222 0.40883 0.08473 0.0
C197 C 0.53877 0.42622 0.10155 0.0
H198 H 0.3126 0.51904 0.14176 0.0
H199 H 0.35133 0.48805 0.13743 0.0
H200 H 0.34641 0.45639 0.20247 0.0
H201 H 0.30853 0.48847 0.20713 0.0
H202 H 0.42054 0.49311 0.15471 0.0
H203 H 0.32395 0.35835 0.20383 0.0
H204 H 0.25898 0.32585 0.21827 0.0
H205 H 0.2159 0.37125 0.16733 0.0
H206 H 0.28041 0.40345 0.15246 0.0
H207 H 0.48796 0.36447 0.1383 0.0
H208 H 0.46025 0.38919 0.16168 0.0
H209 H 0.35828 0.3515 0.12023 0.0
H210 H 0.38654 0.3282 0.0965 0.0
H211 H 0.34377 0.34905 0.16362 0.0
H212 H 0.42697 0.43706 0.10911 0.0
H213 H 0.48789 0.47163 0.09067 0.0
H214 H 0.5526 0.51941 0.14773 0.0
H215 H 0.4919 0.48522 0.16648 0.0
C216 C 0.32085 0.50676 0.15531 0.0
C217 C 0.307 0.50579 0.17474 0.0
C218 C 0.34289 0.4889 0.15279 0.0
C219 C 0.35118 0.46951 0.16958 0.0
C220 C 0.33987 0.47085 0.18929 0.0
C221 C 0.31807 0.489 0.19187 0.0
C222 C 0.36782 0.44454 0.16577 0.0
C223 C 0.40418 0.4617 0.15711 0.0
C224 C 0.34619 0.40352 0.16868 0.0
C225 C 0.30709 0.38369 0.17722 0.0
C226 C 0.30055 0.36127 0.19571 0.0
C227 C 0.26382 0.34291 0.20395 0.0
C228 C 0.23337 0.34662 0.19377 0.0
C229 C 0.23954 0.36852 0.17525 0.0
C230 C 0.27618 0.38685 0.16691 0.0
C231 C 0.459 0.36015 0.1346 0.0
C232 C 0.43951 0.34496 0.11552 0.0
C233 C 0.44322 0.3742 0.14797 0.0
C234 C 0.40755 0.37261 0.14247 0.0
C235 C 0.38583 0.35287 0.12473 0.0
C236 C 0.40186 0.33939 0.11123 0.0
C237 C 0.3964 0.39768 0.15253 0.0
C238 C 0.36093 0.38056 0.16216 0.0
C239 C 0.41855 0.43875 0.15027 0.0
C240 C 0.45509 0.45841 0.13919 0.0
C241 C 0.45425 0.45475 0.11772 0.0
C242 C 0.48866 0.47441 0.10721 0.0
C243 C 0.52406 0.49776 0.11802 0.0
C244 C 0.52514 0.50138 0.13938 0.0
C245 C 0.49074 0.48197 0.14995 0.0
H246 H 0.55063 0.51306 0.10984 0.0
H247 H 0.20498 0.33244 0.2002 0.0
H248 H 0.94972 0.282 0.51126 0.0
H249 H 0.99028 0.35248 0.51023 0.0
H250 H 0.89607 0.36362 0.5316 0.0
H251 H 0.85422 0.29331 0.53089 0.0
H252 H 0.91628 0.40163 0.49808 0.0
H253 H 0.98911 0.39952 0.55897 0.0
H254 H 1.02603 0.37818 0.5835 0.0
H255 H 0.1132 0.41181 0.53932 0.0
H256 H 1.07655 0.43284 0.51438 0.0
H257 H 1.02524 0.60312 0.47733 0.0
H258 H 0.99945 0.54488 0.50003 0.0
H259 H 1.0614 0.50194 0.46833 0.0
H260 H 1.08772 0.56045 0.4456 0.0
H261 H 1.05804 0.48615 0.51346 0.0
H262 H 0.97543 0.47428 0.45122 0.0
H263 H 0.93803 0.4958 0.42712 0.0
H264 H 0.86821 0.48818 0.47643 0.0
H265 H 0.90569 0.4672 0.50089 0.0
C266 C 0.9377 0.29938 0.51598 0.0
C267 C 0.89829 0.28191 0.52054 0.0
C268 C 0.96127 0.33982 0.51577 0.0
C269 C 0.94626 0.36357 0.52075 0.0
C270 C 0.90825 0.34594 0.52755 0.0
C271 C 0.88437 0.30554 0.52731 0.0
C272 C 0.96725 0.40581 0.5151 0.0
C273 C 0.94703 0.4203 0.50207 0.0
C274 C 1.00762 0.43017 0.51979 0.0
C275 C 1.02991 0.4176 0.53474 0.0
C276 C 1.016 0.40212 0.55441 0.0
C277 C 1.03692 0.39012 0.5684 0.0
C278 C 1.07191 0.39359 0.56296 0.0
C279 C 1.0861 0.40915 0.54352 0.0
C280 C 1.06529 0.42119 0.52946 0.0
C281 C 1.03415 0.58174 0.47551 0.0
C282 C 1.05816 0.58606 0.45957 0.0
C283 C 1.01942 0.54856 0.4885 0.0
C284 C 1.02851 0.51923 0.48577 0.0
C285 C 1.05429 0.52446 0.47069 0.0
C286 C 1.06886 0.55757 0.45759 0.0
C287 C 1.0069 0.48096 0.4965 0.0
C288 C 1.02706 0.46742 0.5102 0.0
C289 C 0.96633 0.45736 0.49265 0.0
C290 C 0.94366 0.4697 0.47792 0.0
C291 C 0.95234 0.47755 0.45695 0.0
C292 C 0.9311 0.48958 0.44323 0.0
C293 C 0.90085 0.49348 0.45026 0.0
C294 C 0.89172 0.48524 0.47102 0.0
C295 C 0.91294 0.47329 0.48482 0.0
H296 H 0.88442 0.50278 0.4396 0.0
H297 H 1.08806 0.38428 0.57382 0.0
H298 H 0.62166 0.73684 0.81839 0.0
H299 H 0.57992 0.76424 0.80666 0.0
H300 H 0.65635 0.86847 0.84021 0.0
H301 H 0.69889 0.84152 0.85142 0.0
H302 H 0.53983 0.79851 0.82022 0.0
H303 H 0.68142 0.944 0.807 0.0
H304 H 0.75112 0.96724 0.80322 0.0
H305 H 0.72249 0.8569 0.77936 0.0
H306 H 0.65265 0.83332 0.78262 0.0
H307 H 0.5085 0.95788 0.7912 0.0
H308 H 0.51965 0.9055 0.80514 0.0
H309 H 0.57277 0.90872 0.74897 0.0
H310 H 0.56548 0.96357 0.73584 0.0
H311 H 0.62048 0.91839 0.77855 0.0
H312 H 0.48627 0.82646 0.76715 0.0
H313 H 0.41522 0.79805 0.76825 0.0
H314 H 0.42456 0.79305 0.83465 0.0
H315 H 0.49576 0.82203 0.83398 0.0
C316 C 0.62874 0.76503 0.82382 0.0
C317 C 0.66351 0.7874 0.83559 0.0
C318 C 0.60487 0.78059 0.81715 0.0
C319 C 0.6155 0.81857 0.82229 0.0
C320 C 0.648 0.83922 0.83593 0.0
C321 C 0.67224 0.82395 0.84229 0.0
C322 C 0.59736 0.83909 0.81049 0.0
C323 C 0.55722 0.82483 0.81113 0.0
C324 C 0.62 0.87237 0.79798 0.0
C325 C 0.66188 0.88681 0.79526 0.0
C326 C 0.69002 0.92482 0.80082 0.0
C327 C 0.72954 0.93804 0.79878 0.0
C328 C 0.74123 0.91353 0.79112 0.0
C329 C 0.71341 0.87583 0.78534 0.0
C330 C 0.67386 0.86254 0.78727 0.0
C331 C 0.52234 0.9473 0.78172 0.0
C332 C 0.5371 0.96591 0.76263 0.0
C333 C 0.52802 0.91673 0.78959 0.0
C334 C 0.54738 0.90331 0.77819 0.0
C335 C 0.55812 0.91888 0.75815 0.0
C336 C 0.55349 0.95014 0.75053 0.0
C337 C 0.5625 0.87847 0.78834 0.0
C338 C 0.6025 0.892 0.78746 0.0
C339 C 0.53931 0.84396 0.80003 0.0
C340 C 0.49647 0.82677 0.80051 0.0
C341 C 0.47325 0.81966 0.782 0.0
C342 C 0.43292 0.80338 0.78254 0.0
C343 C 0.4154 0.79383 0.8015 0.0
C344 C 0.43817 0.8005 0.81997 0.0
C345 C 0.47853 0.81682 0.81951 0.0
H346 H 0.38416 0.7812 0.80189 0.0
H347 H 0.77184 0.92377 0.78962 0.0
H348 H 0.90931 0.66733 0.15298 0.0
H349 H 0.8388 0.6337 0.15557 0.0
H350 H 0.84099 0.53166 0.18152 0.0
H351 H 0.91117 0.56431 0.17809 0.0
H352 H 0.79491 0.51525 0.14779 0.0
H353 H 0.80898 0.57988 0.2095 0.0
H354 H 0.83393 0.63507 0.23276 0.0
H355 H 0.7828 0.6888 0.19167 0.0
H356 H 0.75801 0.63424 0.16798 0.0
H357 H 0.59373 0.41768 0.12996 0.0
H358 H 0.65177 0.44512 0.15363 0.0
H359 H 0.684 0.56055 0.12901 0.0
H360 H 0.62582 0.5334 0.10563 0.0
H361 H 0.70856 0.56135 0.17045 0.0
H362 H 0.71266 0.50885 0.10565 0.0
H363 H 0.69016 0.45725 0.08023 0.0
H364 H 0.71052 0.38471 0.12582 0.0
H365 H 0.73267 0.4358 0.15159 0.0
C366 C 0.89487 0.63793 0.15953 0.0
C367 C 0.91583 0.61836 0.16503 0.0
C368 C 0.8546 0.61891 0.16129 0.0
C369 C 0.83464 0.58012 0.16877 0.0
C370 C 0.85588 0.56156 0.17572 0.0
C371 C 0.89609 0.58044 0.17386 0.0
C372 C 0.79164 0.55717 0.16592 0.0
C373 C 0.77591 0.52466 0.15335 0.0
C374 C 0.76697 0.57003 0.17268 0.0
C375 C 0.78176 0.60297 0.18689 0.0
C376 C 0.80328 0.60359 0.20533 0.0
C377 C 0.81736 0.63475 0.21862 0.0
C378 C 0.80999 0.66544 0.21369 0.0
C379 C 0.78847 0.665 0.19547 0.0
C380 C 0.77433 0.63391 0.18213 0.0
C381 C 0.61248 0.44901 0.13014 0.0
C382 C 0.6059 0.4734 0.11568 0.0
C383 C 0.6456 0.46463 0.14364 0.0
C384 C 0.67247 0.50476 0.14277 0.0
C385 C 0.66371 0.52951 0.12987 0.0
C386 C 0.63071 0.51393 0.11638 0.0
C387 C 0.71244 0.52013 0.15215 0.0
C388 C 0.72755 0.55128 0.16566 0.0
C389 C 0.73691 0.50649 0.14608 0.0
C390 C 0.72371 0.47582 0.13061 0.0
C391 C 0.712 0.48175 0.11029 0.0
C392 C 0.69937 0.45264 0.09581 0.0
C393 C 0.69874 0.41765 0.10143 0.0
C394 C 0.71088 0.41177 0.12151 0.0
C395 C 0.72346 0.44078 0.13606 0.0
H396 H 0.68898 0.39514 0.0902 0.0
H397 H 0.82092 0.68954 0.224 0.0
H398 H 0.40675 0.87227 0.53792 0.0
H399 H 0.3377 0.82881 0.54441 0.0
H400 H 0.31183 0.91782 0.51961 0.0
H401 H 0.38032 0.96141 0.51411 0.0
H402 H 0.26179 0.87679 0.54666 0.0
H403 H 0.31428 0.84698 0.48861 0.0
H404 H 0.35777 0.82821 0.47377 0.0
H405 H 0.31109 0.72348 0.51184 0.0
H406 H 0.26766 0.74195 0.52708 0.0
H407 H 0.12962 0.81073 0.46015 0.0
H408 H 0.18001 0.83874 0.48806 0.0
H409 H 0.13309 0.72608 0.51925 0.0
H410 H 1.08108 0.69843 0.49194 0.0
H411 H 0.21186 0.76169 0.50284 0.0
H412 H 0.14041 0.78684 0.54816 0.0
H413 H 0.09651 0.80912 0.55864 0.0
H414 H 0.17783 0.9265 0.53983 0.0
H415 H 0.22199 0.90489 0.52891 0.0
C416 C 0.38629 0.88272 0.53443 0.0
C417 C 0.39868 0.91997 0.52533 0.0
C418 C 0.34693 0.85796 0.53813 0.0
C419 C 0.31937 0.86968 0.53204 0.0
C420 C 0.33238 0.908 0.52449 0.0
C421 C 0.37163 0.93293 0.52126 0.0
C422 C 0.27702 0.84121 0.53016 0.0
C423 C 0.25075 0.85137 0.53725 0.0
C424 C 0.26239 0.80731 0.5184 0.0
C425 C 0.28819 0.79606 0.50916 0.0
C426 C 0.31346 0.82004 0.49386 0.0
C427 C 0.33808 0.80948 0.48539 0.0
C428 C 0.33728 0.77474 0.49191 0.0
C429 C 0.31176 0.75043 0.50686 0.0
C430 C 0.28716 0.76094 0.51543 0.0
C431 C 0.1289 0.79243 0.47348 0.0
C432 C 0.10177 0.75243 0.47385 0.0
C433 C 0.15765 0.80839 0.4894 0.0
C434 C 0.16018 0.78439 0.50565 0.0
C435 C 0.13138 0.74504 0.50688 0.0
C436 C 0.10196 0.72928 0.49121 0.0
C437 C 0.19716 0.7988 0.51821 0.0
C438 C 0.2225 0.78598 0.51307 0.0
C439 C 0.21093 0.83083 0.53117 0.0
C440 C 0.18452 0.84416 0.53766 0.0
C441 C 0.14884 0.81737 0.54611 0.0
C442 C 0.12391 0.82989 0.55216 0.0
C443 C 0.13436 0.86919 0.5499 0.0
C444 C 0.16979 0.89606 0.54159 0.0
C445 C 0.19483 0.8837 0.53551 0.0
H446 H 0.11502 0.87883 0.5546 0.0
H447 H 0.35636 0.76659 0.48533 0.0
H448 H 0.61415 0.33511 0.88289 0.0
H449 H 0.61735 0.27638 0.89066 0.0
H450 H 0.73954 0.33772 0.87812 0.0
H451 H 0.73531 0.39626 0.86861 0.0
H452 H 0.70899 0.28632 0.85357 0.0
H453 H 0.70064 0.27092 0.92372 0.0
H454 H 0.68537 0.2741 0.95936 0.0
H455 H 0.5643 0.19506 0.94495 0.0
H456 H 0.57854 0.19186 0.90913 0.0
H457 H 0.60873 0.09636 0.81457 0.0
H458 H 0.65019 0.13763 0.84301 0.0
H459 H 0.56673 0.17503 0.85027 0.0
H460 H 0.52576 0.1347 0.82155 0.0
H461 H 0.60951 0.16771 0.88934 0.0
H462 H 0.63102 0.22518 0.81598 0.0
H463 H 0.64873 0.22338 0.78059 0.0
H464 H 0.75235 0.22297 0.80515 0.0
H465 H 0.7349 0.22435 0.8407 0.0
C466 C 0.64199 0.33638 0.8823 0.0
C467 C 0.67396 0.36967 0.87425 0.0
C468 C 0.64414 0.30276 0.88724 0.0
C469 C 0.67865 0.30199 0.8847 0.0
C470 C 0.71237 0.33722 0.87989 0.0
C471 C 0.70997 0.3708 0.8745 0.0
C472 C 0.67568 0.26386 0.88096 0.0
C473 C 0.68872 0.26046 0.86208 0.0
C474 C 0.6501 0.22946 0.89204 0.0
C475 C 0.64082 0.23096 0.91364 0.0
C476 C 0.6707 0.25429 0.92808 0.0
C477 C 0.66221 0.25611 0.94835 0.0
C478 C 0.62391 0.23472 0.95442 0.0
C479 C 0.594 0.21148 0.94024 0.0
C480 C 0.60231 0.20953 0.91995 0.0
C481 C 0.5991 0.11314 0.82239 0.0
C482 C 0.56498 0.11393 0.81531 0.0
C483 C 0.62251 0.13615 0.83881 0.0
C484 C 0.61152 0.15938 0.84864 0.0
C485 C 0.57556 0.15708 0.84292 0.0
C486 C 0.55247 0.13454 0.82636 0.0
C487 C 0.64002 0.19198 0.86149 0.0
C488 C 0.63179 0.19379 0.88188 0.0
C489 C 0.67092 0.22493 0.85217 0.0
C490 C 0.68153 0.22449 0.83089 0.0
C491 C 0.65748 0.22455 0.81378 0.0
C492 C 0.66745 0.2236 0.79373 0.0
C493 C 0.7016 0.22296 0.79062 0.0
C494 C 0.72587 0.22337 0.80758 0.0
C495 C 0.71595 0.22421 0.82767 0.0
H496 H 0.70929 0.22224 0.77509 0.0
H497 H 0.61739 0.2362 0.97012 0.0
H498 H 0.72001 0.98925 0.50233 0.0
H499 H 0.72101 0.92789 0.50583 0.0
H500 H 0.60195 0.86624 0.48171 0.0
H501 H 0.60061 0.92776 0.47851 0.0
H502 H 0.60944 0.82199 0.51135 0.0
H503 H 0.68502 0.88657 0.45295 0.0
H504 H 0.73699 0.94022 0.43332 0.0
H505 H 0.82362 0.93688 0.47619 0.0
H506 H 0.77212 0.88351 0.49624 0.0
H507 H 0.61408 0.64356 0.50149 0.0
H508 H 0.60976 0.70298 0.49297 0.0
H509 H 0.72748 0.77316 0.51769 0.0
H510 H 0.73175 0.71415 0.52596 0.0
H511 H 0.71822 0.81168 0.48565 0.0
H512 H 0.64204 0.74862 0.54469 0.0
H513 H 0.58984 0.69474 0.5641 0.0
H514 H 0.50395 0.69485 0.51943 0.0
H515 H 0.55572 0.74841 0.4996 0.0
C516 C 0.69389 0.96279 0.49767 0.0
C517 C 0.66027 0.96429 0.48999 0.0
C518 C 0.69458 0.92727 0.49958 0.0
C519 C 0.66178 0.89148 0.49376 0.0
C520 C 0.62794 0.89283 0.48634 0.0
C521 C 0.62724 0.92843 0.48442 0.0
C522 C 0.66281 0.8531 0.49553 0.0
C523 C 0.63303 0.81983 0.50538 0.0
C524 C 0.69363 0.84926 0.48822 0.0
C525 C 0.72469 0.88129 0.47621 0.0
C526 C 0.71514 0.89746 0.45828 0.0
C527 C 0.74452 0.92779 0.44706 0.0
C528 C 0.78358 0.94202 0.45354 0.0
C529 C 0.79335 0.92587 0.47121 0.0
C530 C 0.76408 0.89555 0.4825 0.0
C531 C 0.63941 0.67169 0.50457 0.0
C532 C 0.67354 0.6736 0.51414 0.0
C533 C 0.63676 0.70597 0.5 0.0
C534 C 0.66808 0.74349 0.5049 0.0
C535 C 0.70264 0.74527 0.51363 0.0
C536 C 0.70517 0.71118 0.51829 0.0
C537 C 0.66505 0.78068 0.5016 0.0
C538 C 0.69451 0.81378 0.49151 0.0
C539 C 0.63391 0.78431 0.50865 0.0
C540 C 0.60277 0.7522 0.52054 0.0
C541 C 0.61204 0.73695 0.53893 0.0
C542 C 0.58253 0.7065 0.55002 0.0
C543 C 0.54361 0.6913 0.54297 0.0
C544 C 0.53411 0.7066 0.52485 0.0
C545 C 0.56352 0.73701 0.51368 0.0
H546 H 0.5208 0.66774 0.55158 0.0
H547 H 0.80628 0.9655 0.44483 0.0
H548 H 0.85698 0.67106 0.83118 0.0
H549 H 0.91944 0.67201 0.83514 0.0
H550 H 0.86008 0.5481 0.82673 0.0
H551 H 0.79753 0.54697 0.823 0.0
H552 H 0.91473 0.56339 0.85594 0.0
H553 H 0.91768 0.62079 0.78824 0.0
H554 H 0.91395 0.66736 0.76226 0.0
H555 H 1.00972 0.76258 0.79419 0.0
H556 H 1.0137 0.71659 0.82052 0.0
H557 H 1.08598 0.54983 0.8465 0.0
H558 H 1.02422 0.54943 0.8382 0.0
H559 H 1.08266 0.67336 0.8465 0.0
H560 H 0.14443 0.67364 0.85443 0.0
H561 H 1.02847 0.65798 0.81677 0.0
H562 H 1.0257 0.60154 0.88441 0.0
H563 H 1.03075 0.55567 0.91031 0.0
H564 H 0.93476 0.45942 0.8791 0.0
H565 H 0.92973 0.50476 0.8527 0.0
C566 C 0.85698 0.6439 0.83007 0.0
C567 C 0.82139 0.60897 0.82659 0.0
C568 C 0.89318 0.64449 0.83225 0.0
C569 C 0.8956 0.6102 0.83101 0.0
C570 C 0.85998 0.57524 0.82778 0.0
C571 C 0.82381 0.57465 0.82552 0.0
C572 C 0.93471 0.61059 0.83326 0.0
C573 C 0.93925 0.58381 0.84706 0.0
C574 C 0.96796 0.63758 0.82228 0.0
C575 C 0.96572 0.66528 0.80646 0.0
C576 C 0.93776 0.65168 0.7898 0.0
C577 C 0.93563 0.67797 0.775 0.0
C578 C 0.96151 0.71791 0.77661 0.0
C579 C 0.98965 0.73164 0.79299 0.0
C580 C 0.99188 0.70547 0.80784 0.0
C581 C 1.08602 0.57725 0.84582 0.0
C582 C 0.12098 0.61197 0.8505 0.0
C583 C 1.05023 0.57697 0.84143 0.0
C584 C 1.04762 0.6113 0.84196 0.0
C585 C 1.08294 0.64624 0.84585 0.0
C586 C 0.11869 0.64649 0.85022 0.0
C587 C 1.0084 0.61067 0.83937 0.0
C588 C 1.00389 0.63747 0.82558 0.0
C589 C 0.9752 0.5838 0.85042 0.0
C590 C 0.97762 0.55652 0.86645 0.0
C591 C 1.00581 0.57058 0.883 0.0
C592 C 1.00867 0.54466 0.89777 0.0
C593 C 0.98312 0.50462 0.89634 0.0
C594 C 0.95458 0.49044 0.88016 0.0
C595 C 0.95173 0.51623 0.86528 0.0
H596 H 0.9854 0.48456 0.90777 0.0
H597 H 0.95982 0.73821 0.76513 0.0
H598 H 0.27489 0.68405 0.16883 0.0
H599 H 0.33713 0.74538 0.17159 0.0
H600 H 0.28 0.80907 0.14756 0.0
H601 H 0.21788 0.74794 0.14467 0.0
H602 H 0.32932 0.84894 0.17829 0.0
H603 H 0.4341 0.79502 0.15879 0.0
H604 H 0.43354 0.7447 0.13802 0.0
H605 H 0.3412 0.74278 0.09786 0.0
H606 H 0.34155 0.79341 0.11821 0.0
H607 H 0.52206 1.00265 0.20364 0.0
H608 H 0.46405 0.93774 0.20098 0.0
H609 H 0.47622 0.94104 0.13538 0.0
H610 H 0.53456 1.00589 0.13813 0.0
H611 H 0.44892 0.86805 0.14826 0.0
H612 H 0.40855 0.96128 0.1578 0.0
H613 H 0.40656 1.01383 0.17511 0.0
H614 H 0.36624 0.9406 0.22973 0.0
H615 H 0.36847 0.88777 0.21282 0.0
C616 C 0.27538 0.711 0.16403 0.0
C617 C 0.24058 0.71023 0.15642 0.0
C618 C 0.31141 0.74645 0.16556 0.0
C619 C 0.31428 0.78282 0.15969 0.0
C620 C 0.27945 0.78206 0.15228 0.0
C621 C 0.24355 0.74664 0.15053 0.0
C622 C 0.35303 0.82137 0.16137 0.0
C623 C 0.3554 0.85272 0.17181 0.0
C624 C 0.3877 0.82779 0.15267 0.0
C625 C 0.38759 0.7977 0.14018 0.0
C626 C 0.41377 0.78394 0.14549 0.0
C627 C 0.41347 0.75535 0.13379 0.0
C628 C 0.38725 0.74045 0.11667 0.0
C629 C 0.36138 0.75422 0.11117 0.0
C630 C 0.36158 0.78283 0.1228 0.0
C631 C 0.513 0.98927 0.18869 0.0
C632 C 0.53365 1.01008 0.17114 0.0
C633 C 0.47916 0.952 0.18709 0.0
C634 C 0.46425 0.93381 0.16785 0.0
C635 C 0.4862 0.95368 0.15049 0.0
C636 C 0.52003 0.99103 0.15209 0.0
C637 C 0.42548 0.89527 0.16571 0.0
C638 C 0.42301 0.86405 0.15503 0.0
C639 C 0.3905 0.8891 0.17393 0.0
C640 C 0.38906 0.92074 0.18412 0.0
C641 C 0.39952 0.95649 0.17355 0.0
C642 C 0.39831 0.98631 0.18328 0.0
C643 C 0.38639 0.9806 0.20352 0.0
C644 C 0.37554 0.94501 0.21406 0.0
C645 C 0.37674 0.91511 0.20441 0.0
H646 H 0.38546 1.00371 0.21103 0.0
H647 H 0.38703 0.7183 0.10765 0.0
H648 H 0.72943 0.22217 0.49624 0.0
H649 H 0.73043 0.2841 0.49994 0.0
H650 H 0.60735 0.22794 0.48397 0.0
H651 H 0.60608 0.16602 0.48054 0.0
H652 H 0.64485 0.29959 0.46405 0.0
H653 H 0.64466 0.25177 0.53442 0.0
H654 H 0.67019 0.22815 0.56445 0.0
H655 H 0.77885 0.33579 0.5639 0.0
H656 H 0.75414 0.35983 0.53366 0.0
H657 H 0.59665 0.43947 0.49233 0.0
H658 H 0.60413 0.38308 0.48783 0.0
H659 H 0.71979 0.44295 0.51675 0.0
H660 H 0.71128 0.4994 0.52219 0.0
H661 H 0.69173 0.37212 0.52917 0.0
H662 H 0.69516 0.42188 0.46031 0.0
H663 H 0.67441 0.44679 0.42888 0.0
H664 H 0.56657 0.33858 0.42456 0.0
H665 H 0.58646 0.31317 0.45612 0.0
C666 C 0.70249 0.22284 0.49343 0.0
C667 C 0.66766 0.18835 0.48803 0.0
C668 C 0.70305 0.25857 0.49569 0.0
C669 C 0.66889 0.26151 0.49242 0.0
C670 C 0.6343 0.22724 0.48665 0.0
C671 C 0.6336 0.19144 0.48472 0.0
C672 C 0.66891 0.29978 0.49493 0.0
C673 C 0.65471 0.31506 0.47842 0.0
C674 C 0.68302 0.32161 0.5133 0.0
C675 C 0.69768 0.30745 0.53166 0.0
C676 C 0.67408 0.2703 0.54062 0.0
C677 C 0.68839 0.25685 0.55769 0.0
C678 C 0.72615 0.28042 0.56605 0.0
C679 C 0.74963 0.31755 0.55739 0.0
C680 C 0.73547 0.33111 0.5403 0.0
C681 C 0.62421 0.44129 0.49732 0.0
C682 C 0.65388 0.47528 0.50688 0.0
C683 C 0.62857 0.40857 0.49467 0.0
C684 C 0.6631 0.40803 0.50126 0.0
C685 C 0.69284 0.44187 0.51114 0.0
C686 C 0.68821 0.47471 0.51404 0.0
C687 C 0.6671 0.3719 0.49831 0.0
C688 C 0.68201 0.35691 0.51472 0.0
C689 C 0.65431 0.35064 0.47966 0.0
C690 C 0.64217 0.36576 0.46069 0.0
C691 C 0.6669 0.40349 0.45274 0.0
C692 C 0.65531 0.41768 0.43488 0.0
C693 C 0.61916 0.39431 0.42476 0.0
C694 C 0.59455 0.35666 0.43243 0.0
C695 C 0.60598 0.34233 0.45029 0.0
H696 H 0.61024 0.40535 0.41094 0.0
H697 H 0.73719 0.26995 0.57925 0.0
H698 H 0.62304 0.66818 0.81711 0.0
H699 H 0.56268 0.66936 0.82136 0.0
H700 H 0.50618 0.54803 0.84031 0.0
H701 H 0.56617 0.54664 0.83588 0.0
H702 H 0.4552 0.55675 0.8179 0.0
H703 H 0.54034 0.63047 0.87342 0.0
H704 H 0.59913 0.68253 0.89086 0.0
H705 H 0.57533 0.76878 0.86066 0.0
H706 H 0.51738 0.71739 0.84221 0.0
H707 H 0.28939 0.54151 0.86172 0.0
H708 H 0.35322 0.5482 0.85791 0.0
H709 H 0.39263 0.66197 0.82928 0.0
H710 H 0.32785 0.65505 0.83294 0.0
H711 H 0.45269 0.66005 0.85583 0.0
H712 H 0.36755 0.5841 0.79992 0.0
H713 H 0.30786 0.53043 0.78396 0.0
H714 H 0.33086 0.44672 0.81808 0.0
H715 H 0.39045 0.49993 0.83448 0.0
C716 C 0.59785 0.64161 0.82218 0.0
C717 C 0.6003 0.60727 0.82606 0.0
C718 C 0.56299 0.64239 0.82479 0.0
C719 C 0.52891 0.60894 0.83154 0.0
C720 C 0.5313 0.57455 0.83513 0.0
C721 C 0.56612 0.57378 0.83259 0.0
C722 C 0.49094 0.60934 0.83462 0.0
C723 C 0.45507 0.5793 0.82645 0.0
C724 C 0.48941 0.63886 0.8454 0.0
C725 C 0.52473 0.66999 0.85615 0.0
C726 C 0.54795 0.66056 0.8702 0.0
C727 C 0.58119 0.68999 0.88025 0.0
C728 C 0.59113 0.72897 0.87674 0.0
C729 C 0.56776 0.73858 0.86323 0.0
C730 C 0.53482 0.70932 0.85287 0.0
C731 C 0.31173 0.56851 0.85502 0.0
C732 C 0.30296 0.59811 0.8482 0.0
C733 C 0.34855 0.57215 0.85262 0.0
C734 C 0.37867 0.60551 0.8431 0.0
C735 C 0.37056 0.63581 0.83676 0.0
C736 C 0.33328 0.63196 0.83899 0.0
C737 C 0.41737 0.60747 0.83917 0.0
C738 C 0.45318 0.63778 0.8472 0.0
C739 C 0.41896 0.57806 0.82847 0.0
C740 C 0.38328 0.54601 0.81857 0.0
C741 C 0.35973 0.55425 0.80414 0.0
C742 C 0.32594 0.52391 0.79499 0.0
C743 C 0.31553 0.48519 0.80004 0.0
C744 C 0.33894 0.47673 0.8142 0.0
C745 C 0.37275 0.50697 0.82342 0.0
H746 H 0.28935 0.46174 0.79294 0.0
H747 H 0.61685 0.75173 0.88456 0.0
H748 H 0.98062 0.51844 0.14865 0.0
H749 H 0.9193 0.45671 0.15094 0.0
H750 H 0.9832 0.39719 0.17006 0.0
H751 H 1.04446 0.45846 0.16647 0.0
H752 H 0.9279 0.34938 0.14886 0.0
H753 H 0.92365 0.42471 0.20317 0.0
H754 H 0.92449 0.48097 0.21797 0.0
H755 H 0.82507 0.46255 0.17837 0.0
H756 H 0.82404 0.40662 0.16313 0.0
H757 H 0.77218 0.17715 0.19381 0.0
H758 H 0.83016 0.23939 0.18613 0.0
H759 H 0.75748 0.28349 0.15747 0.0
H760 H 0.69897 0.22059 0.16528 0.0
H761 H 0.81427 0.33907 0.18151 0.0
H762 H 0.81653 0.26162 0.12889 0.0
H763 H 0.81514 0.20488 0.11441 0.0
H764 H 0.91814 0.22684 0.15162 0.0
H765 H 0.91987 0.28345 0.16653 0.0
C766 C 0.98178 0.49226 0.15334 0.0
C767 C 1.01826 0.49422 0.15737 0.0
C768 C 0.94619 0.45649 0.15491 0.0
C769 C 0.94526 0.42108 0.16125 0.0
C770 C 0.98188 0.42319 0.16515 0.0
C771 C 1.01742 0.45875 0.16314 0.0
C772 C 0.9069 0.38207 0.16355 0.0
C773 C 0.90352 0.3475 0.15634 0.0
C774 C 0.87345 0.37819 0.17265 0.0
C775 C 0.87403 0.41175 0.18186 0.0
C776 C 0.90214 0.43285 0.19753 0.0
C777 C 0.90265 0.46468 0.206 0.0
C778 C 0.87496 0.47544 0.19907 0.0
C779 C 0.84661 0.45432 0.18369 0.0
C780 C 0.84604 0.42254 0.17514 0.0
C781 C 0.76836 0.19966 0.18538 0.0
C782 C 0.73033 0.1929 0.17982 0.0
C783 C 0.8019 0.23572 0.181 0.0
C784 C 0.79921 0.26709 0.17095 0.0
C785 C 0.76119 0.26034 0.16516 0.0
C786 C 0.72743 0.2239 0.16939 0.0
C787 C 0.83586 0.30669 0.16718 0.0
C788 C 0.83882 0.3412 0.17408 0.0
C789 C 0.86902 0.31055 0.15791 0.0
C790 C 0.86812 0.27657 0.14897 0.0
C791 C 0.83872 0.25418 0.1341 0.0
C792 C 0.8379 0.22207 0.1258 0.0
C793 C 0.86648 0.21221 0.13213 0.0
C794 C 0.896 0.2345 0.14675 0.0
C795 C 0.89694 0.26662 0.15512 0.0
H796 H 0.86579 0.18734 0.12568 0.0
H797 H 0.87539 0.50007 0.20568 0.0
H798 H 0.19086 0.5747 0.09801 0.0
H799 H 0.20227 0.57339 0.06149 0.0
H800 H 0.13011 0.62465 0.04363 0.0
H801 H 0.11801 0.62531 0.07968 0.0
H802 H 0.1116 0.56772 0.01949 0.0
H803 H 0.23213 0.67706 0.04356 0.0
H804 H 0.29177 0.71038 0.06616 0.0
H805 H 0.33052 0.63399 0.04726 0.0
H806 H 0.2708 0.59986 0.02472 0.0
H807 H 0.16388 0.64456 0.91878 0.0
H808 H 0.15965 0.63921 0.95621 0.0
H809 H 0.21409 0.568 0.96065 0.0
H810 H 0.21716 0.57187 0.92282 0.0
H811 H 0.24284 0.62796 0.99167 0.0
H812 H 0.12211 0.5229 0.96477 0.0
H813 H 1.06155 0.49164 0.94266 0.0
H814 H 1.0231 0.56412 0.96711 0.0
H815 H 1.08371 0.59629 0.98913 0.0
C816 C 0.1775 0.58576 0.0863 0.0
C817 C 0.15339 0.59999 0.09192 0.0
C818 C 0.18419 0.58515 0.06539 0.0
C819 C 0.16724 0.59912 0.04966 0.0
C820 C 0.14342 0.61349 0.05533 0.0
C821 C 0.13659 0.61392 0.07609 0.0
C822 C 0.17329 0.59832 0.02724 0.0
C823 C 0.14037 0.58122 0.01346 0.0
C824 C 0.21075 0.61499 0.01925 0.0
C825 C 0.24679 0.63561 0.03265 0.0
C826 C 0.25324 0.66717 0.04434 0.0
C827 C 0.28707 0.68624 0.05713 0.0
C828 C 0.31486 0.67423 0.05822 0.0
C829 C 0.30893 0.64321 0.04644 0.0
C830 C 0.2751 0.62401 0.03365 0.0
C831 C 0.17462 0.62731 0.92756 0.0
C832 C 0.19021 0.60802 0.91754 0.0
C833 C 0.17243 0.62457 0.94907 0.0
C834 C 0.18614 0.60286 0.96127 0.0
C835 C 0.20327 0.58489 0.95155 0.0
C836 C 0.20511 0.58726 0.92989 0.0
C837 C 0.18114 0.59818 0.98404 0.0
C838 C 0.21415 0.61417 -0.00219 0.0
C839 C 0.14375 0.58095 -0.00793 0.0
C840 C 0.10761 0.56219 0.97851 0.0
C841 C 0.10094 0.53248 0.96528 0.0
C842 C 1.06656 0.51452 0.9528 0.0
C843 C 1.03848 0.52584 0.95352 0.0
C844 C 1.04485 0.55534 0.9666 0.0
C845 C 1.0792 0.57343 0.97909 0.0
H846 H 1.01173 0.51168 0.944 0.0
H847 H 0.34103 0.68901 0.06814 0.0
H848 H 0.60594 0.06842 0.41418 0.0
H849 H 0.60873 0.07354 0.37664 0.0
H850 H 0.72951 0.10379 0.38248 0.0
H851 H 0.72708 0.09888 0.42032 0.0
H852 H 0.71655 0.1512 0.35377 0.0
H853 H 0.66148 1.01412 0.36775 0.0
H854 H 0.61567 0.94993 0.3829 0.0
H855 H 0.51984 0.95396 0.34939 0.0
H856 H 0.56504 1.01847 0.33427 0.0
H857 H 0.72807 0.13208 0.24647 0.0
H858 H 0.7299 0.12483 0.28421 0.0
H859 H 0.60686 0.08497 0.2833 0.0
H860 H 0.60482 0.09196 0.24553 0.0
H861 H 0.6238 1.04136 0.30977 0.0
H862 H 0.67734 0.17902 0.29714 0.0
H863 H 0.72217 0.24376 0.28216 0.0
H864 H 0.81969 0.23936 0.31323 0.0
H865 H 0.77545 0.17431 0.32818 0.0
C866 C 0.63319 0.07611 0.40758 0.0
C867 C 0.66628 0.0831 0.42039 0.0
C868 C 0.63465 0.07887 0.38603 0.0
C869 C 0.6692 0.08865 0.37666 0.0
C870 C 0.70247 0.09608 0.38934 0.0
C871 C 0.70099 0.09311 0.41098 0.0
C872 C 0.67039 0.09146 0.35364 0.0
C873 C 0.69673 0.12697 0.34415 0.0
C874 C 0.6439 1.06018 0.34102 0.0
C875 C 0.61664 1.0213 0.35001 0.0
C876 C 0.63061 1.00147 0.36373 0.0
C877 C 0.60476 0.965 0.3723 0.0
C878 C 0.56486 0.94792 0.36715 0.0
C879 C 0.55075 0.96724 0.35338 0.0
C880 C 0.57648 1.00374 0.34479 0.0
C881 C 0.70143 0.12206 0.2543 0.0
C882 C 0.66632 0.11284 0.24291 0.0
C883 C 0.70252 0.1179 0.27592 0.0
C884 C 0.66863 0.10484 0.28674 0.0
C885 C 0.63344 0.09508 0.27539 0.0
C886 C 0.63228 0.09903 0.25375 0.0
C887 C 0.66975 0.10126 0.30984 0.0
C888 C 0.6438 0.06556 0.31936 0.0
C889 C 0.69647 0.13244 0.32248 0.0
C890 C 0.72311 0.17162 0.3136 0.0
C891 C 0.70837 0.19173 0.30065 0.0
C892 C 0.73367 0.2285 0.29219 0.0
C893 C 0.77376 0.24561 0.29669 0.0
C894 C 0.78863 0.22603 0.30973 0.0
C895 C 0.76346 0.18923 0.31821 0.0
H896 H 0.79331 0.27408 0.29013 0.0
H897 H 0.54489 0.91968 0.37379 0.0
H898 H 0.75145 0.6691 0.75359 0.0
H899 H 0.74952 0.66938 0.71571 0.0
H900 H 0.65668 0.54986 0.71632 0.0
H901 H 0.65843 0.54925 0.75403 0.0
H902 H 0.71154 0.56128 0.68994 0.0
H903 H 0.63768 0.623 0.70326 0.0
H904 H 0.62616 0.6716 0.71843 0.0
H905 H 0.72216 0.76387 0.68684 0.0
H906 H 0.7346 0.71581 0.6717 0.0
H907 H 0.64618 0.54475 0.58362 0.0
H908 H 0.6521 0.5457 0.62146 0.0
H909 H 0.73777 0.66798 0.61857 0.0
H910 H 0.73158 0.66725 0.58077 0.0
H911 H 0.68847 0.65624 0.64629 0.0
H912 H 0.76204 0.59513 0.63238 0.0
H913 H 0.77417 0.54693 0.61722 0.0
H914 H 0.68026 0.4543 0.6499 0.0
H915 H 0.66722 0.50193 0.66505 0.0
C916 C 0.7306 0.64287 0.74568 0.0
C917 C 0.70504 0.6092 0.75695 0.0
C918 C 0.72944 0.64311 0.72398 0.0
C919 C 0.70276 0.60969 0.71308 0.0
C920 C 0.67753 0.57599 0.72432 0.0
C921 C 0.6785 0.57579 0.74595 0.0
C922 C 0.70101 0.60962 0.69 0.0
C923 C 0.70608 0.58179 0.68039 0.0
C924 C 0.6948 0.6369 0.67747 0.0
C925 C 0.68734 0.66583 0.68653 0.0
C926 C 0.65655 0.65367 0.69969 0.0
C927 C 0.64981 0.68111 0.70826 0.0
C928 C 0.67348 0.7208 0.70366 0.0
C929 C 0.70389 0.73312 0.69042 0.0
C930 C 0.71078 0.70579 0.68183 0.0
C931 C 0.66665 0.57172 0.59105 0.0
C932 C 0.68838 0.60591 0.57912 0.0
C933 C 0.67003 0.57226 0.61273 0.0
C934 C 0.69569 0.60686 0.62302 0.0
C935 C 0.71767 0.64093 0.6111 0.0
C936 C 0.71409 0.64047 0.58945 0.0
C937 C 0.69897 0.60785 0.64614 0.0
C938 C 0.69413 0.63582 0.65579 0.0
C939 C 0.70556 0.58078 0.65871 0.0
C940 C 0.71343 0.55208 0.6497 0.0
C941 C 0.7438 0.56446 0.63622 0.0
C942 C 0.75086 0.53725 0.62765 0.0
C943 C 0.72794 0.49757 0.63255 0.0
C944 C 0.69796 0.48504 0.64609 0.0
C945 C 0.69074 0.51214 0.65469 0.0
H946 H 0.73345 0.47654 0.6259 0.0
H947 H 0.66821 0.742 0.7103 0.0
H948 H 0.7033 0.13658 0.55234 0.0
H949 H 0.68761 0.14526 0.58676 0.0
H950 H 0.58156 1.03437 0.58299 0.0
H951 H 0.59678 1.02541 0.54889 0.0
H952 H 0.56993 0.09315 0.59549 0.0
H953 H 0.65849 1.04212 0.61167 0.0
H954 H 0.72116 1.04352 0.61044 0.0
H955 H 0.78066 0.15546 0.63833 0.0
H956 H 0.71833 0.15492 0.63947 0.0
H957 H 0.50681 1.0191 0.69512 0.0
H958 H 0.5282 1.03606 0.6598 0.0
H959 H 0.63098 0.14002 0.6812 0.0
H960 H 0.61044 0.12247 0.71667 0.0
H961 H 0.65053 0.09972 0.65924 0.0
H962 H 0.56096 0.14596 0.64873 0.0
H963 H 0.49882 0.14554 0.65003 0.0
H964 H 0.44192 1.04591 0.61149 0.0
H965 H 0.50359 1.04534 0.6102 0.0
C966 C 0.67686 0.11389 0.55896 0.0
C967 C 0.65135 0.08027 0.54788 0.0
C968 C 0.6679 0.11896 0.57857 0.0
C969 C 0.63334 0.09051 0.58733 0.0
C970 C 0.60821 1.0568 0.57642 0.0
C971 C 0.61716 1.05163 0.55696 0.0
C972 C 0.62287 0.09521 0.60793 0.0
C973 C 0.58742 0.09449 0.60948 0.0
C974 C 0.64648 0.09847 0.62603 0.0
C975 C 0.68386 0.0987 0.62542 0.0
C976 C 0.68499 0.06717 0.61738 0.0
C977 C 0.72043 0.06778 0.61673 0.0
C978 C 0.75489 0.09962 0.62424 0.0
C979 C 0.75396 0.13086 0.63247 0.0
C980 C 0.71859 0.13041 0.63313 0.0
C981 C 0.53361 1.04593 0.69224 0.0
C982 C 0.55698 0.0693 0.70871 0.0
C983 C 0.54569 1.05579 0.67201 0.0
C984 C 0.58119 0.08942 0.66782 0.0
C985 C 0.60349 0.11397 0.68407 0.0
C986 C 0.59146 0.10408 0.70432 0.0
C987 C 0.59678 0.09633 0.64697 0.0
C988 C 0.63327 0.09927 0.64531 0.0
C989 C 0.57418 0.09534 0.62877 0.0
C990 C 0.53692 0.09548 0.62948 0.0
C991 C 0.53514 0.12376 0.64066 0.0
C992 C 0.5 0.12374 0.64137 0.0
C993 C 0.46643 0.09568 0.63088 0.0
C994 C 0.46795 0.06762 0.61962 0.0
C995 C 0.50301 0.0675 0.61886 0.0
H996 H 0.43925 0.09571 0.63145 0.0
H997 H 0.7823 0.10003 0.62373 0.0
H998 H 0.71648 0.54858 0.88931 0.0
H999 H 0.69177 0.52905 0.92383 0.0
H1000 H 0.66243 0.62059 0.92133 0.0
H1001 H 0.68665 0.64011 0.88652 0.0
H1002 H 0.70732 0.56409 0.96098 0.0
H1003 H 0.5742 0.58265 0.9431 0.0
H1004 H 0.53573 0.58916 0.91284 0.0
H1005 H 0.56245 0.51798 0.87782 0.0
H1006 H 0.60068 0.51068 0.90795 0.0
H1007 H 0.60262 0.53169 0.05044 0.0
H1008 H 0.62753 0.56072 0.01677 0.0
H1009 H 0.56664 0.44709 0.99019 0.0
H1010 H 0.54274 0.4173 0.02414 0.0
H1011 H 0.56605 0.51627 0.96542 0.0
H1012 H 0.64987 0.47087 0.00133 0.0
H1013 H 0.68837 0.4667 0.03218 0.0
H1014 H 0.76028 0.5913 0.03077 0.0
H1015 H 0.72168 0.59621 0.00012 0.0
C1016 C 0.70536 0.56501 0.89619 0.0
C1017 C 0.70304 0.59556 0.88509 0.0
C1018 C 0.69135 0.55386 0.91596 0.0
C1019 C 0.67472 0.57297 0.92494 0.0
C1020 C 0.67467 0.60514 0.91448 0.0
C1021 C 0.68867 0.61634 0.89466 0.0
C1022 C 0.65495 0.55712 0.9445 0.0
C1023 C 0.67649 0.55381 0.96195 0.0
C1024 C 0.61467 0.54361 0.94572 0.0
C1025 C 0.59049 0.54636 0.92774 0.0
C1026 C 0.57162 0.56817 0.92899 0.0
C1027 C 0.54993 0.57205 0.91185 0.0
C1028 C 0.5467 0.55403 0.89342 0.0
C1029 C 0.56503 0.53196 0.8921 0.0
C1030 C 0.58672 0.52795 0.9092 0.0
C1031 C 0.59454 0.51274 0.03748 0.0
C1032 C 0.57139 0.47203 0.04007 0.0
C1033 C 0.60843 0.52949 0.01823 0.0
C1034 C 0.59897 0.50595 0.00115 0.0
C1035 C 0.574 0.46562 0.00328 0.0
C1036 C 0.56042 0.44869 0.02266 0.0
C1037 C 0.61846 0.52315 0.98171 0.0
C1038 C 0.5969 0.52677 0.96438 0.0
C1039 C 0.65871 0.53695 0.98055 0.0
C1040 C 0.68267 0.53393 -0.00143 0.0
C1041 C 0.67372 0.49739 0.00769 0.0
C1042 C 0.69557 0.49488 0.02513 0.0
C1043 C 0.72669 0.52872 0.03347 0.0
C1044 C 0.73613 0.56511 0.02431 0.0
C1045 C 0.71429 0.56777 0.0069 0.0
H1046 H 0.74352 0.52673 0.04699 0.0
H1047 H 0.52989 0.5571 0.88021 0.0
H1048 H 0.0959 0.65528 0.21065 0.0
H1049 H 1.08589 0.65949 0.24678 0.0
H1050 H 0.11134 0.56696 0.26363 0.0
H1051 H 0.12063 0.56195 0.22733 0.0
H1052 H 1.05143 0.55758 0.28395 0.0
H1053 H 0.17943 0.66219 0.27185 0.0
H1054 H 0.22964 0.72048 0.25392 0.0
H1055 H 0.17241 0.78417 0.26639 0.0
H1056 H 0.12151 0.72605 0.28415 0.0
H1057 H 0.09926 0.59842 0.39117 0.0
H1058 H 0.10132 0.58972 0.35453 0.0
H1059 H 1.05848 0.66948 0.33846 0.0
H1060 H 1.0547 0.67727 0.37518 0.0
H1061 H 0.12596 0.6851 0.31789 0.0
H1062 H 0.99873 0.57814 0.33158 0.0
H1063 H 0.95146 0.51927 0.35043 0.0
H1064 H 1.01145 0.45934 0.33606 0.0
H1065 H 1.05948 0.5181 0.31739 0.0
C1066 C 0.09938 0.63577 0.22201 0.0
C1067 C 0.10942 0.60849 0.21614 0.0
C1068 C 0.09372 0.63829 0.24268 0.0
C1069 C 0.09851 0.614 0.25796 0.0
C1070 C 0.10761 0.58608 0.2521 0.0
C1071 C 0.11301 0.58332 0.23136 0.0
C1072 C 0.09453 0.61818 0.28007 0.0
C1073 C 1.06807 0.58536 0.29143 0.0
C1074 C 0.11582 0.65457 0.28976 0.0
C1075 C 0.14643 0.68964 0.27914 0.0
C1076 C 0.17738 0.68853 0.27062 0.0
C1077 C 0.20599 0.72155 0.26051 0.0
C1078 C 0.20416 0.75597 0.25897 0.0
C1079 C 0.17376 0.75747 0.26758 0.0
C1080 C 0.14503 0.7245 0.27768 0.0
C1081 C 1.08943 0.61354 0.37992 0.0
C1082 C 1.07658 0.63842 0.38623 0.0
C1083 C 0.0909 0.60868 0.35896 0.0
C1084 C 1.07987 0.6288 0.34384 0.0
C1085 C 1.06715 0.65374 0.34996 0.0
C1086 C 1.06523 0.6583 0.37095 0.0
C1087 C 1.08281 0.6246 0.32166 0.0
C1088 C 0.1092 0.6574 0.31033 0.0
C1089 C 1.06189 0.58811 0.31212 0.0
C1090 C 1.03293 0.55267 0.32325 0.0
C1091 C 1.00206 0.55253 0.33259 0.0
C1092 C 0.97508 0.51916 0.34322 0.0
C1093 C 0.97851 0.48562 0.34449 0.0
C1094 C 1.00887 0.48536 0.33509 0.0
C1095 C 1.03595 0.51868 0.32447 0.0
H1096 H 0.95759 0.4598 0.35272 0.0
H1097 H 0.22634 0.78151 0.25114 0.0
loop_
_geom_bond_atom_site_label_1
_geom_bond_atom_site_label_2
_geom_bond_distance
_geom_bond_site_symmetry_2
_ccdc_geom_bond_type
Tb0 C10 2.825 . S
Tb0 O11 2.347 . S
Tb0 O14 2.366 . S
Tb0 O19 2.418 . S
Tb0 O20 2.384 1_455 S
Tb0 O23 2.479 . S
Tb0 O24 2.471 . S
Eu1 O12 2.418 . S
Eu1 O13 2.384 1_655 S
Eu1 O16 2.479 . S
Eu1 O17 2.471 . S
Eu1 O18 2.347 1_655 S
Eu1 O21 2.366 . S
Eu1 C31 2.825 . S
C2 O18 1.259 . S
C2 O19 1.265 . S
C3 O20 1.255 . S
C3 O21 1.265 . S
C4 C6 1.380 . S
C4 C7 1.374 . S
C4 C10 1.507 . S
C5 C6 1.384 . S
C5 C9 1.387 . S
C5 H32 0.930 . S
C6 C4 1.380 . S
C6 C5 1.384 . S
C6 H33 0.931 . S
C7 C4 1.374 . S
C7 C8 1.390 . S
C7 H34 0.930 . S
C8 C7 1.390 . S
C8 C9 1.391 . S
C8 H35 0.930 . S
C9 C5 1.387 . S
C9 C8 1.391 . S
C10 Tb0 2.825 . S
C10 C4 1.507 . S
C10 O23 1.238 . S
C10 O24 1.247 . S
O11 Tb0 2.347 . S
O11 C15 1.259 . S
O12 Eu1 2.418 . S
O12 C15 1.265 1_655 S
O13 Eu1 2.384 1_455 S
O13 C22 1.255 . S
O14 Tb0 2.366 . S
O14 C22 1.265 . S
C15 O11 1.259 . S
C15 O12 1.265 1_455 S
O16 Eu1 2.479 . S
O16 C31 1.238 . S
O17 Eu1 2.471 . S
O17 C31 1.247 . S
O18 Eu1 2.347 1_455 S
O18 C2 1.259 . S
O19 Tb0 2.418 . S
O19 C2 1.265 . S
O20 Tb0 2.384 1_655 S
O20 C3 1.255 . S
O21 Eu1 2.366 . S
O21 C3 1.265 . S
C22 O13 1.255 . S
C22 O14 1.265 . S
O23 Tb0 2.479 . S
O23 C10 1.238 . S
O24 Tb0 2.471 . S
O24 C10 1.247 . S
C25 C28 1.380 . S
C25 C29 1.374 . S
C25 C31 1.507 . S
C26 C27 1.387 . S
C26 C30 1.391 . S
C27 C26 1.387 . S
C27 C28 1.384 . S
C27 H36 0.930 . S
C28 C25 1.380 . S
C28 C27 1.384 . S
C28 H37 0.931 . S
C29 C25 1.374 . S
C29 C30 1.390 . S
C29 H38 0.930 . S
C30 C26 1.391 . S
C30 C29 1.390 . S
C30 H39 0.930 . S
C31 Eu1 2.825 . S
C31 O16 1.238 . S
C31 O17 1.247 . S
C31 C25 1.507 . S
H32 C5 0.930 . S
H33 C6 0.931 . S
H34 C7 0.930 . S
H35 C8 0.930 . S
H36 C27 0.930 . S
H37 C28 0.931 . S
H38 C29 0.930 . S
H39 C30 0.930 . S
Tb40 C50 2.825 . S
Tb40 O51 2.347 . S
Tb40 O54 2.366 . S
Tb40 O59 2.418 . S
Tb40 O60 2.384 1_545 S
Tb40 O63 2.479 . S
Tb40 O64 2.471 . S
Eu41 O52 2.418 . S
Eu41 O53 2.384 . S
Eu41 O56 2.479 1_545 S
Eu41 O57 2.471 1_545 S
Eu41 O58 2.347 . S
Eu41 O61 2.366 1_545 S
Eu41 C71 2.825 1_545 S
C42 O58 1.259 . S
C42 O59 1.265 . S
C43 O60 1.255 . S
C43 O61 1.265 . S
C44 C46 1.380 . S
C44 C47 1.374 . S
C44 C50 1.507 . S
C45 C46 1.384 . S
C45 C49 1.387 . S
C45 H72 0.930 . S
C46 C44 1.380 . S
C46 C45 1.384 . S
C46 H73 0.931 . S
C47 C44 1.374 . S
C47 C48 1.390 . S
C47 H74 0.930 . S
C48 C47 1.390 . S
C48 C49 1.391 . S
C48 H75 0.930 . S
C49 C45 1.387 . S
C49 C48 1.391 . S
C50 Tb40 2.825 . S
C50 C44 1.507 . S
C50 O63 1.238 . S
C50 O64 1.247 . S
O51 Tb40 2.347 . S
O51 C55 1.259 . S
O52 Eu41 2.418 . S
O52 C55 1.265 . S
O53 Eu41 2.384 . S
O53 C62 1.255 . S
O54 Tb40 2.366 . S
O54 C62 1.265 . S
C55 O51 1.259 . S
C55 O52 1.265 . S
O56 Eu41 2.479 1_565 S
O56 C71 1.238 . S
O57 Eu41 2.471 1_565 S
O57 C71 1.247 . S
O58 Eu41 2.347 . S
O58 C42 1.259 . S
O59 Tb40 2.418 . S
O59 C42 1.265 . S
O60 Tb40 2.384 1_565 S
O60 C43 1.255 . S
O61 Eu41 2.366 1_565 S
O61 C43 1.265 . S
C62 O53 1.255 . S
C62 O54 1.265 . S
O63 Tb40 2.479 . S
O63 C50 1.238 . S
O64 Tb40 2.471 . S
O64 C50 1.247 . S
C65 C68 1.380 . S
C65 C69 1.374 . S
C65 C71 1.507 . S
C66 C67 1.387 . S
C66 C70 1.391 . S
C67 C66 1.387 . S
C67 C68 1.384 . S
C67 H76 0.930 . S
C68 C65 1.380 . S
C68 C67 1.384 . S
C68 H77 0.931 . S
C69 C65 1.374 . S
C69 C70 1.390 . S
C69 H78 0.930 . S
C70 C66 1.391 . S
C70 C69 1.390 . S
C70 H79 0.930 . S
C71 Eu41 2.825 1_565 S
C71 O56 1.238 . S
C71 O57 1.247 . S
C71 C65 1.507 . S
H72 C45 0.930 . S
H73 C46 0.931 . S
H74 C47 0.930 . S
H75 C48 0.930 . S
H76 C67 0.930 . S
H77 C68 0.931 . S
H78 C69 0.930 . S
H79 C70 0.930 . S
Tb80 C90 2.825 . S
Tb80 O91 2.347 . S
Tb80 O94 2.366 . S
Tb80 O99 2.418 . S
Tb80 O100 2.384 . S
Tb80 O103 2.479 . S
Tb80 O104 2.471 . S
Eu81 O92 2.418 . S
Eu81 O93 2.384 . S
Eu81 O96 2.479 . S
Eu81 O97 2.471 . S
Eu81 O98 2.347 . S
Eu81 O101 2.366 . S
Eu81 C111 2.825 . S
C82 O98 1.259 . S
C82 O99 1.265 . S
C83 O100 1.255 . S
C83 O101 1.265 . S
C84 C86 1.380 . S
C84 C87 1.374 . S
C84 C90 1.507 . S
C85 C86 1.384 . S
C85 C89 1.387 . S
C85 H112 0.930 . S
C86 C84 1.380 . S
C86 C85 1.384 . S
C86 H113 0.931 . S
C87 C84 1.374 . S
C87 C88 1.390 . S
C87 H114 0.930 . S
C88 C87 1.390 . S
C88 C89 1.391 . S
C88 H115 0.930 . S
C89 C85 1.387 . S
C89 C88 1.391 . S
C90 Tb80 2.825 . S
C90 C84 1.507 . S
C90 O103 1.238 . S
C90 O104 1.247 . S
O91 Tb80 2.347 . S
O91 C95 1.259 . S
O92 Eu81 2.418 . S
O92 C95 1.265 . S
O93 Eu81 2.384 . S
O93 C102 1.255 . S
O94 Tb80 2.366 . S
O94 C102 1.265 . S
C95 O91 1.259 . S
C95 O92 1.265 . S
O96 Eu81 2.479 . S
O96 C111 1.238 . S
O97 Eu81 2.471 . S
O97 C111 1.247 . S
O98 Eu81 2.347 . S
O98 C82 1.259 . S
O99 Tb80 2.418 . S
O99 C82 1.265 . S
O100 Tb80 2.384 . S
O100 C83 1.255 . S
O101 Eu81 2.366 . S
O101 C83 1.265 . S
C102 O93 1.255 . S
C102 O94 1.265 . S
O103 Tb80 2.479 . S
O103 C90 1.238 . S
O104 Tb80 2.471 . S
O104 C90 1.247 . S
C105 C108 1.380 . S
C105 C109 1.374 . S
C105 C111 1.507 . S
C106 C107 1.387 . S
C106 C110 1.391 . S
C107 C106 1.387 . S
C107 C108 1.384 . S
C107 H116 0.930 . S
C108 C105 1.380 . S
C108 C107 1.384 . S
C108 H117 0.931 . S
C109 C105 1.374 . S
C109 C110 1.390 . S
C109 H118 0.930 . S
C110 C106 1.391 . S
C110 C109 1.390 . S
C110 H119 0.930 . S
C111 Eu81 2.825 . S
C111 O96 1.238 . S
C111 O97 1.247 . S
C111 C105 1.507 . S
H112 C85 0.930 . S
H113 C86 0.931 . S
H114 C87 0.930 . S
H115 C88 0.930 . S
H116 C107 0.930 . S
H117 C108 0.931 . S
H118 C109 0.930 . S
H119 C110 0.930 . S
H120 C127 0.929 . S
H121 C130 0.930 . S
H122 C132 0.929 . S
H123 C124 0.969 . S
C124 H123 0.969 . S
C124 O125 1.550 . S
C124 H126 0.973 . S
O125 C124 1.550 . S
O125 C131 1.412 . S
H126 C124 0.973 . S
C127 H120 0.929 . S
C127 C128 1.400 . S
C127 C129 1.364 . S
C128 C127 1.400 . S
C128 C132 1.377 . S
C129 C127 1.364 . S
C129 C130 1.374 1_545 S
C130 H121 0.930 . S
C130 C129 1.374 1_565 S
C130 C131 1.383 . S
C131 O125 1.412 . S
C131 C130 1.383 . S
C131 C132 1.394 1_565 S
C132 H122 0.929 . S
C132 C128 1.377 . S
C132 C131 1.394 1_545 S
H133 C140 0.929 . S
H134 C143 0.930 . S
H135 C145 0.929 . S
H136 C137 0.969 . S
C137 H136 0.969 . S
C137 O138 1.550 . S
C137 H139 0.973 . S
O138 C137 1.550 . S
O138 C144 1.412 . S
H139 C137 0.973 . S
C140 H133 0.929 . S
C140 C141 1.400 . S
C140 C142 1.364 . S
C141 C140 1.400 . S
C141 C145 1.377 . S
C142 C140 1.364 . S
C142 C143 1.374 . S
C143 H134 0.930 . S
C143 C142 1.374 . S
C143 C144 1.383 . S
C144 O138 1.412 . S
C144 C143 1.383 . S
C144 C145 1.394 . S
C145 H135 0.929 . S
C145 C141 1.377 . S
C145 C144 1.394 . S
H146 C153 0.945 . S
H147 C156 0.930 . S
H148 C158 0.929 . S
H149 C150 0.969 . S
C150 H149 0.969 . S
C150 O151 1.550 . S
C150 H152 0.973 . S
O151 C150 1.550 . S
O151 C157 1.412 . S
H152 C150 0.973 . S
C153 H146 0.945 . S
C153 C154 1.400 . S
C153 C155 1.364 . S
C154 C153 1.400 . S
C154 C158 1.377 . S
C155 C153 1.364 . S
C155 C156 1.374 . S
C156 H147 0.930 . S
C156 C155 1.374 . S
C156 C157 1.383 . S
C157 O151 1.412 . S
C157 C156 1.383 . S
C157 C158 1.394 . S
C158 H148 0.929 . S
C158 C154 1.377 . S
C158 C157 1.394 . S
H159 C166 0.929 1_655 S
H160 C169 0.930 . S
H161 C171 0.929 . S
H162 C163 0.969 . S
C163 H162 0.969 . S
C163 O164 1.550 . S
C163 H165 0.973 . S
O164 C163 1.550 . S
O164 C170 1.412 . S
H165 C163 0.973 . S
C166 H159 0.929 1_455 S
C166 C167 1.400 . S
C166 C168 1.364 . S
C167 C166 1.400 . S
C167 C171 1.377 . S
C168 C166 1.364 . S
C168 C169 1.374 . S
C169 H160 0.930 . S
C169 C168 1.374 . S
C169 C170 1.383 . S
C170 O164 1.412 . S
C170 C169 1.383 . S
C170 C171 1.394 . S
C171 H161 0.929 . S
C171 C167 1.377 . S
C171 C170 1.394 . S
H172 C179 0.929 . S
H173 C182 0.930 . S
H174 C184 0.929 1_565 S
H175 C176 0.969 . S
C176 H175 0.969 . S
C176 O177 1.550 . S
C176 H178 0.973 . S
O177 C176 1.550 . S
O177 C183 1.412 . S
H178 C176 0.973 . S
C179 H172 0.929 . S
C179 C180 1.400 . S
C179 C181 1.364 1_565 S
C180 C179 1.400 . S
C180 C184 1.377 1_565 S
C181 C179 1.364 1_545 S
C181 C182 1.374 . S
C182 H173 0.930 . S
C182 C181 1.374 . S
C182 C183 1.383 . S
C183 O177 1.412 . S
C183 C182 1.383 . S
C183 C184 1.394 . S
C184 H174 0.929 1_545 S
C184 C180 1.377 1_545 S
C184 C183 1.394 . S
H185 C192 0.929 . S
H186 C195 0.930 . S
H187 C197 0.929 . S
H188 C189 0.969 . S
C189 H188 0.969 . S
C189 O190 1.550 . S
C189 H191 0.973 . S
O190 C189 1.550 . S
O190 C196 1.412 . S
H191 C189 0.973 . S
C192 H185 0.929 . S
C192 C193 1.400 . S
C192 C194 1.364 . S
C193 C192 1.400 . S
C193 C197 1.377 . S
C194 C192 1.364 . S
C194 C195 1.374 . S
C195 H186 0.930 . S
C195 C194 1.374 . S
C195 C196 1.383 . S
C196 O190 1.412 . S
C196 C195 1.383 . S
C196 C197 1.394 . S
C197 H187 0.929 . S
C197 C193 1.377 . S
C197 C196 1.394 . S
H198 C216 0.951 . S
H199 C218 0.951 . S
H200 C220 0.950 . S
H201 C221 0.950 . S
H202 C223 0.950 . S
H203 C226 0.950 . S
H204 C227 0.950 . S
H205 C229 0.950 . S
H206 C230 0.950 . S
H207 C231 0.951 . S
H208 C233 0.951 . S
H209 C235 0.950 . S
H210 C236 0.950 . S
H211 C238 0.950 . S
H212 C241 0.950 . S
H213 C242 0.950 . S
H214 C244 0.950 . S
H215 C245 0.950 . S
C216 H198 0.951 . S
C216 C217 1.366 . S
C216 C218 1.388 . S
C217 C216 1.366 . S
C217 C221 1.385 . S
C218 H199 0.951 . S
C218 C216 1.388 . S
C218 C219 1.366 . S
C219 C218 1.366 . S
C219 C220 1.414 . S
C219 C222 1.499 . S
C220 H200 0.950 . S
C220 C219 1.414 . S
C220 C221 1.374 . S
C221 H201 0.950 . S
C221 C217 1.385 . S
C221 C220 1.374 . S
C222 C219 1.499 . S
C222 C223 1.373 . S
C222 C224 1.389 . S
C223 H202 0.950 . S
C223 C222 1.373 . S
C223 C239 1.377 . S
C224 C222 1.389 . S
C224 C225 1.524 . S
C224 C238 1.377 . S
C225 C224 1.524 . S
C225 C226 1.397 . S
C225 C230 1.363 . S
C226 H203 0.950 . S
C226 C225 1.397 . S
C226 C227 1.334 . S
C227 H204 0.950 . S
C227 C226 1.334 . S
C227 C228 1.287 . S
C228 C227 1.287 . S
C228 C229 1.524 . S
C228 H247 0.913 . S
C229 H205 0.950 . S
C229 C228 1.524 . S
C229 C230 1.415 . S
C230 H206 0.950 . S
C230 C225 1.363 . S
C230 C229 1.415 . S
C231 H207 0.951 . S
C231 C232 1.366 . S
C231 C233 1.388 . S
C232 C231 1.366 . S
C232 C236 1.385 . S
C233 H208 0.951 . S
C233 C231 1.388 . S
C233 C234 1.366 . S
C234 C233 1.366 . S
C234 C235 1.414 . S
C234 C237 1.499 . S
C235 H209 0.950 . S
C235 C234 1.414 . S
C235 C236 1.374 . S
C236 H210 0.950 . S
C236 C232 1.385 . S
C236 C235 1.374 . S
C237 C234 1.499 . S
C237 C238 1.373 . S
C237 C239 1.389 . S
C238 H211 0.950 . S
C238 C224 1.377 . S
C238 C237 1.373 . S
C239 C223 1.377 . S
C239 C237 1.389 . S
C239 C240 1.524 . S
C240 C239 1.524 . S
C240 C241 1.397 . S
C240 C245 1.363 . S
C241 H212 0.950 . S
C241 C240 1.397 . S
C241 C242 1.334 . S
C242 H213 0.950 . S
C242 C241 1.334 . S
C242 C243 1.287 . S
C243 C242 1.287 . S
C243 C244 1.524 . S
C243 H246 0.999 . S
C244 H214 0.950 . S
C244 C243 1.524 . S
C244 C245 1.415 . S
C245 H215 0.950 . S
C245 C240 1.363 . S
C245 C244 1.415 . S
H246 C243 0.999 . S
H247 C228 0.913 . S
H248 C266 0.951 . S
H249 C268 0.951 . S
H250 C270 0.950 . S
H251 C271 0.950 . S
H252 C273 0.950 . S
H253 C276 0.950 . S
H254 C277 0.950 . S
H255 C279 0.950 . S
H256 C280 0.950 . S
H257 C281 0.951 . S
H258 C283 0.951 . S
H259 C285 0.950 . S
H260 C286 0.950 1_455 S
H261 C288 0.950 . S
H262 C291 0.950 . S
H263 C292 0.950 . S
H264 C294 0.950 . S
H265 C295 0.950 . S
C266 H248 0.951 . S
C266 C267 1.366 . S
C266 C268 1.388 . S
C267 C266 1.366 . S
C267 C271 1.385 . S
C268 H249 0.951 . S
C268 C266 1.388 . S
C268 C269 1.366 . S
C269 C268 1.366 . S
C269 C270 1.414 . S
C269 C272 1.499 . S
C270 H250 0.950 . S
C270 C269 1.414 . S
C270 C271 1.374 . S
C271 H251 0.950 . S
C271 C267 1.385 . S
C271 C270 1.374 . S
C272 C269 1.499 . S
C272 C273 1.373 . S
C272 C274 1.389 . S
C273 H252 0.950 . S
C273 C272 1.373 . S
C273 C289 1.377 . S
C274 C272 1.389 . S
C274 C275 1.524 . S
C274 C288 1.377 . S
C275 C274 1.524 . S
C275 C276 1.397 . S
C275 C280 1.363 . S
C276 H253 0.950 . S
C276 C275 1.397 . S
C276 C277 1.334 . S
C277 H254 0.950 . S
C277 C276 1.334 . S
C277 C278 1.287 . S
C278 C277 1.287 . S
C278 C279 1.524 . S
C278 H297 0.913 . S
C279 H255 0.950 . S
C279 C278 1.524 . S
C279 C280 1.415 . S
C280 H256 0.950 . S
C280 C275 1.363 . S
C280 C279 1.415 . S
C281 H257 0.951 . S
C281 C282 1.366 1_655 S
C281 C283 1.388 . S
C282 C281 1.366 1_455 S
C282 C286 1.385 1_455 S
C283 H258 0.951 . S
C283 C281 1.388 . S
C283 C284 1.366 . S
C284 C283 1.366 . S
C284 C285 1.414 . S
C284 C287 1.499 . S
C285 H259 0.950 . S
C285 C284 1.414 . S
C285 C286 1.374 . S
C286 H260 0.950 1_655 S
C286 C282 1.385 1_655 S
C286 C285 1.374 . S
C287 C284 1.499 . S
C287 C288 1.373 . S
C287 C289 1.389 . S
C288 H261 0.950 . S
C288 C274 1.377 . S
C288 C287 1.373 . S
C289 C273 1.377 . S
C289 C287 1.389 . S
C289 C290 1.524 . S
C290 C289 1.524 . S
C290 C291 1.397 . S
C290 C295 1.363 . S
C291 H262 0.950 . S
C291 C290 1.397 . S
C291 C292 1.334 . S
C292 H263 0.950 . S
C292 C291 1.334 . S
C292 C293 1.287 . S
C293 C292 1.287 . S
C293 C294 1.524 . S
C293 H296 0.999 . S
C294 H264 0.950 . S
C294 C293 1.524 . S
C294 C295 1.415 . S
C295 H265 0.950 . S
C295 C290 1.363 . S
C295 C294 1.415 . S
H296 C293 0.999 . S
H297 C278 0.913 . S
H298 C316 0.951 . S
H299 C318 0.951 . S
H300 C320 0.950 . S
H301 C321 0.950 . S
H302 C323 0.950 . S
H303 C326 0.950 . S
H304 C327 0.950 . S
H305 C329 0.950 . S
H306 C330 0.950 . S
H307 C331 0.951 . S
H308 C333 0.951 . S
H309 C335 0.950 . S
H310 C336 0.950 . S
H311 C338 0.950 . S
H312 C341 0.950 . S
H313 C342 0.950 . S
H314 C344 0.950 . S
H315 C345 0.950 . S
C316 H298 0.951 . S
C316 C317 1.366 . S
C316 C318 1.388 . S
C317 C316 1.366 . S
C317 C321 1.385 . S
C318 H299 0.951 . S
C318 C316 1.388 . S
C318 C319 1.366 . S
C319 C318 1.366 . S
C319 C320 1.414 . S
C319 C322 1.499 . S
C320 H300 0.950 . S
C320 C319 1.414 . S
C320 C321 1.374 . S
C321 H301 0.950 . S
C321 C317 1.385 . S
C321 C320 1.374 . S
C322 C319 1.499 . S
C322 C323 1.373 . S
C322 C324 1.389 . S
C323 H302 0.950 . S
C323 C322 1.373 . S
C323 C339 1.377 . S
C324 C322 1.389 . S
C324 C325 1.524 . S
C324 C338 1.377 . S
C325 C324 1.524 . S
C325 C326 1.397 . S
C325 C330 1.363 . S
C326 H303 0.950 . S
C326 C325 1.397 . S
C326 C327 1.334 . S
C327 H304 0.950 . S
C327 C326 1.334 . S
C327 C328 1.287 . S
C328 C327 1.287 . S
C328 C329 1.524 . S
C328 H347 0.913 . S
C329 H305 0.950 . S
C329 C328 1.524 . S
C329 C330 1.415 . S
C330 H306 0.950 . S
C330 C325 1.363 . S
C330 C329 1.415 . S
C331 H307 0.951 . S
C331 C332 1.366 . S
C331 C333 1.388 . S
C332 C331 1.366 . S
C332 C336 1.385 . S
C333 H308 0.951 . S
C333 C331 1.388 . S
C333 C334 1.366 . S
C334 C333 1.366 . S
C334 C335 1.414 . S
C334 C337 1.499 . S
C335 H309 0.950 . S
C335 C334 1.414 . S
C335 C336 1.374 . S
C336 H310 0.950 . S
C336 C332 1.385 . S
C336 C335 1.374 . S
C337 C334 1.499 . S
C337 C338 1.373 . S
C337 C339 1.389 . S
C338 H311 0.950 . S
C338 C324 1.377 . S
C338 C337 1.373 . S
C339 C323 1.377 . S
C339 C337 1.389 . S
C339 C340 1.524 . S
C340 C339 1.524 . S
C340 C341 1.397 . S
C340 C345 1.363 . S
C341 H312 0.950 . S
C341 C340 1.397 . S
C341 C342 1.334 . S
C342 H313 0.950 . S
C342 C341 1.334 . S
C342 C343 1.287 . S
C343 C342 1.287 . S
C343 C344 1.524 . S
C343 H346 0.999 . S
C344 H314 0.950 . S
C344 C343 1.524 . S
C344 C345 1.415 . S
C345 H315 0.950 . S
C345 C340 1.363 . S
C345 C344 1.415 . S
H346 C343 0.999 . S
H347 C328 0.913 . S
H348 C366 0.951 . S
H349 C368 0.951 . S
H350 C370 0.950 . S
H351 C371 0.950 . S
H352 C373 0.950 . S
H353 C376 0.950 . S
H354 C377 0.950 . S
H355 C379 0.950 . S
H356 C380 0.950 . S
H357 C381 0.951 . S
H358 C383 0.951 . S
H359 C385 0.950 . S
H360 C386 0.950 . S
H361 C388 0.950 . S
H362 C391 0.950 . S
H363 C392 0.950 . S
H364 C394 0.950 . S
H365 C395 0.950 . S
C366 H348 0.951 . S
C366 C367 1.366 . S
C366 C368 1.388 . S
C367 C366 1.366 . S
C367 C371 1.385 . S
C368 H349 0.951 . S
C368 C366 1.388 . S
C368 C369 1.366 . S
C369 C368 1.366 . S
C369 C370 1.414 . S
C369 C372 1.499 . S
C370 H350 0.950 . S
C370 C369 1.414 . S
C370 C371 1.374 . S
C371 H351 0.950 . S
C371 C367 1.385 . S
C371 C370 1.374 . S
C372 C369 1.499 . S
C372 C373 1.373 . S
C372 C374 1.389 . S
C373 H352 0.950 . S
C373 C372 1.373 . S
C373 C389 1.377 . S
C374 C372 1.389 . S
C374 C375 1.524 . S
C374 C388 1.377 . S
C375 C374 1.524 . S
C375 C376 1.397 . S
C375 C380 1.363 . S
C376 H353 0.950 . S
C376 C375 1.397 . S
C376 C377 1.334 . S
C377 H354 0.950 . S
C377 C376 1.334 . S
C377 C378 1.287 . S
C378 C377 1.287 . S
C378 C379 1.524 . S
C378 H397 0.913 . S
C379 H355 0.950 . S
C379 C378 1.524 . S
C379 C380 1.415 . S
C380 H356 0.950 . S
C380 C375 1.363 . S
C380 C379 1.415 . S
C381 H357 0.951 . S
C381 C382 1.366 . S
C381 C383 1.388 . S
C382 C381 1.366 . S
C382 C386 1.385 . S
C383 H358 0.951 . S
C383 C381 1.388 . S
C383 C384 1.366 . S
C384 C383 1.366 . S
C384 C385 1.414 . S
C384 C387 1.499 . S
C385 H359 0.950 . S
C385 C384 1.414 . S
C385 C386 1.374 . S
C386 H360 0.950 . S
C386 C382 1.385 . S
C386 C385 1.374 . S
C387 C384 1.499 . S
C387 C388 1.373 . S
C387 C389 1.389 . S
C388 H361 0.950 . S
C388 C374 1.377 . S
C388 C387 1.373 . S
C389 C373 1.377 . S
C389 C387 1.389 . S
C389 C390 1.524 . S
C390 C389 1.524 . S
C390 C391 1.397 . S
C390 C395 1.363 . S
C391 H362 0.950 . S
C391 C390 1.397 . S
C391 C392 1.334 . S
C392 H363 0.950 . S
C392 C391 1.334 . S
C392 C393 1.287 . S
C393 C392 1.287 . S
C393 C394 1.524 . S
C393 H396 0.999 . S
C394 H364 0.950 . S
C394 C393 1.524 . S
C394 C395 1.415 . S
C395 H365 0.950 . S
C395 C390 1.363 . S
C395 C394 1.415 . S
H396 C393 0.999 . S
H397 C378 0.913 . S
H398 C416 0.951 . S
H399 C418 0.951 . S
H400 C420 0.950 . S
H401 C421 0.950 . S
H402 C423 0.950 . S
H403 C426 0.950 . S
H404 C427 0.950 . S
H405 C429 0.950 . S
H406 C430 0.950 . S
H407 C431 0.951 . S
H408 C433 0.951 . S
H409 C435 0.950 . S
H410 C436 0.950 . S
H411 C438 0.950 . S
H412 C441 0.950 . S
H413 C442 0.950 . S
H414 C444 0.950 . S
H415 C445 0.950 . S
C416 H398 0.951 . S
C416 C417 1.366 . S
C416 C418 1.388 . S
C417 C416 1.366 . S
C417 C421 1.385 . S
C418 H399 0.951 . S
C418 C416 1.388 . S
C418 C419 1.366 . S
C419 C418 1.366 . S
C419 C420 1.414 . S
C419 C422 1.499 . S
C420 H400 0.950 . S
C420 C419 1.414 . S
C420 C421 1.374 . S
C421 H401 0.950 . S
C421 C417 1.385 . S
C421 C420 1.374 . S
C422 C419 1.499 . S
C422 C423 1.373 . S
C422 C424 1.389 . S
C423 H402 0.950 . S
C423 C422 1.373 . S
C423 C439 1.377 . S
C424 C422 1.389 . S
C424 C425 1.524 . S
C424 C438 1.377 . S
C425 C424 1.524 . S
C425 C426 1.397 . S
C425 C430 1.363 . S
C426 H403 0.950 . S
C426 C425 1.397 . S
C426 C427 1.334 . S
C427 H404 0.950 . S
C427 C426 1.334 . S
C427 C428 1.287 . S
C428 C427 1.287 . S
C428 C429 1.524 . S
C428 H447 0.913 . S
C429 H405 0.950 . S
C429 C428 1.524 . S
C429 C430 1.415 . S
C430 H406 0.950 . S
C430 C425 1.363 . S
C430 C429 1.415 . S
C431 H407 0.951 . S
C431 C432 1.366 . S
C431 C433 1.388 . S
C432 C431 1.366 . S
C432 C436 1.385 . S
C433 H408 0.951 . S
C433 C431 1.388 . S
C433 C434 1.366 . S
C434 C433 1.366 . S
C434 C435 1.414 . S
C434 C437 1.499 . S
C435 H409 0.950 . S
C435 C434 1.414 . S
C435 C436 1.374 . S
C436 H410 0.950 . S
C436 C432 1.385 . S
C436 C435 1.374 . S
C437 C434 1.499 . S
C437 C438 1.373 . S
C437 C439 1.389 . S
C438 H411 0.950 . S
C438 C424 1.377 . S
C438 C437 1.373 . S
C439 C423 1.377 . S
C439 C437 1.389 . S
C439 C440 1.524 . S
C440 C439 1.524 . S
C440 C441 1.397 . S
C440 C445 1.363 . S
C441 H412 0.950 . S
C441 C440 1.397 . S
C441 C442 1.334 . S
C442 H413 0.950 . S
C442 C441 1.334 . S
C442 C443 1.287 . S
C443 C442 1.287 . S
C443 C444 1.524 . S
C443 H446 0.999 . S
C444 H414 0.950 . S
C444 C443 1.524 . S
C444 C445 1.415 . S
C445 H415 0.950 . S
C445 C440 1.363 . S
C445 C444 1.415 . S
H446 C443 0.999 . S
H447 C428 0.913 . S
H448 C466 0.951 . S
H449 C468 0.951 . S
H450 C470 0.950 . S
H451 C471 0.950 . S
H452 C473 0.950 . S
H453 C476 0.950 . S
H454 C477 0.950 . S
H455 C479 0.950 . S
H456 C480 0.950 . S
H457 C481 0.951 . S
H458 C483 0.951 . S
H459 C485 0.950 . S
H460 C486 0.950 . S
H461 C488 0.950 . S
H462 C491 0.950 . S
H463 C492 0.950 . S
H464 C494 0.950 . S
H465 C495 0.950 . S
C466 H448 0.951 . S
C466 C467 1.366 . S
C466 C468 1.388 . S
C467 C466 1.366 . S
C467 C471 1.385 . S
C468 H449 0.951 . S
C468 C466 1.388 . S
C468 C469 1.366 . S
C469 C468 1.366 . S
C469 C470 1.414 . S
C469 C472 1.499 . S
C470 H450 0.950 . S
C470 C469 1.414 . S
C470 C471 1.374 . S
C471 H451 0.950 . S
C471 C467 1.385 . S
C471 C470 1.374 . S
C472 C469 1.499 . S
C472 C473 1.373 . S
C472 C474 1.389 . S
C473 H452 0.950 . S
C473 C472 1.373 . S
C473 C489 1.377 . S
C474 C472 1.389 . S
C474 C475 1.524 . S
C474 C488 1.377 . S
C475 C474 1.524 . S
C475 C476 1.397 . S
C475 C480 1.363 . S
C476 H453 0.950 . S
C476 C475 1.397 . S
C476 C477 1.334 . S
C477 H454 0.950 . S
C477 C476 1.334 . S
C477 C478 1.287 . S
C478 C477 1.287 . S
C478 C479 1.524 . S
C478 H497 0.913 . S
C479 H455 0.950 . S
C479 C478 1.524 . S
C479 C480 1.415 . S
C480 H456 0.950 . S
C480 C475 1.363 . S
C480 C479 1.415 . S
C481 H457 0.951 . S
C481 C482 1.366 . S
C481 C483 1.388 . S
C482 C481 1.366 . S
C482 C486 1.385 . S
C483 H458 0.951 . S
C483 C481 1.388 . S
C483 C484 1.366 . S
C484 C483 1.366 . S
C484 C485 1.414 . S
C484 C487 1.499 . S
C485 H459 0.950 . S
C485 C484 1.414 . S
C485 C486 1.374 . S
C486 H460 0.950 . S
C486 C482 1.385 . S
C486 C485 1.374 . S
C487 C484 1.499 . S
C487 C488 1.373 . S
C487 C489 1.389 . S
C488 H461 0.950 . S
C488 C474 1.377 . S
C488 C487 1.373 . S
C489 C473 1.377 . S
C489 C487 1.389 . S
C489 C490 1.524 . S
C490 C489 1.524 . S
C490 C491 1.397 . S
C490 C495 1.363 . S
C491 H462 0.950 . S
C491 C490 1.397 . S
C491 C492 1.334 . S
C492 H463 0.950 . S
C492 C491 1.334 . S
C492 C493 1.287 . S
C493 C492 1.287 . S
C493 C494 1.524 . S
C493 H496 0.999 . S
C494 H464 0.950 . S
C494 C493 1.524 . S
C494 C495 1.415 . S
C495 H465 0.950 . S
C495 C490 1.363 . S
C495 C494 1.415 . S
H496 C493 0.999 . S
H497 C478 0.913 . S
H498 C516 0.951 . S
H499 C518 0.951 . S
H500 C520 0.950 . S
H501 C521 0.950 . S
H502 C523 0.950 . S
H503 C526 0.950 . S
H504 C527 0.950 . S
H505 C529 0.950 . S
H506 C530 0.950 . S
H507 C531 0.951 . S
H508 C533 0.951 . S
H509 C535 0.950 . S
H510 C536 0.950 . S
H511 C538 0.950 . S
H512 C541 0.950 . S
H513 C542 0.950 . S
H514 C544 0.950 . S
H515 C545 0.950 . S
C516 H498 0.951 . S
C516 C517 1.366 . S
C516 C518 1.388 . S
C517 C516 1.366 . S
C517 C521 1.385 . S
C518 H499 0.951 . S
C518 C516 1.388 . S
C518 C519 1.366 . S
C519 C518 1.366 . S
C519 C520 1.414 . S
C519 C522 1.499 . S
C520 H500 0.950 . S
C520 C519 1.414 . S
C520 C521 1.374 . S
C521 H501 0.950 . S
C521 C517 1.385 . S
C521 C520 1.374 . S
C522 C519 1.499 . S
C522 C523 1.373 . S
C522 C524 1.389 . S
C523 H502 0.950 . S
C523 C522 1.373 . S
C523 C539 1.377 . S
C524 C522 1.389 . S
C524 C525 1.524 . S
C524 C538 1.377 . S
C525 C524 1.524 . S
C525 C526 1.397 . S
C525 C530 1.363 . S
C526 H503 0.950 . S
C526 C525 1.397 . S
C526 C527 1.334 . S
C527 H504 0.950 . S
C527 C526 1.334 . S
C527 C528 1.287 . S
C528 C527 1.287 . S
C528 C529 1.524 . S
C528 H547 0.913 . S
C529 H505 0.950 . S
C529 C528 1.524 . S
C529 C530 1.415 . S
C530 H506 0.950 . S
C530 C525 1.363 . S
C530 C529 1.415 . S
C531 H507 0.951 . S
C531 C532 1.366 . S
C531 C533 1.388 . S
C532 C531 1.366 . S
C532 C536 1.385 . S
C533 H508 0.951 . S
C533 C531 1.388 . S
C533 C534 1.366 . S
C534 C533 1.366 . S
C534 C535 1.414 . S
C534 C537 1.499 . S
C535 H509 0.950 . S
C535 C534 1.414 . S
C535 C536 1.374 . S
C536 H510 0.950 . S
C536 C532 1.385 . S
C536 C535 1.374 . S
C537 C534 1.499 . S
C537 C538 1.373 . S
C537 C539 1.389 . S
C538 H511 0.950 . S
C538 C524 1.377 . S
C538 C537 1.373 . S
C539 C523 1.377 . S
C539 C537 1.389 . S
C539 C540 1.524 . S
C540 C539 1.524 . S
C540 C541 1.397 . S
C540 C545 1.363 . S
C541 H512 0.950 . S
C541 C540 1.397 . S
C541 C542 1.334 . S
C542 H513 0.950 . S
C542 C541 1.334 . S
C542 C543 1.287 . S
C543 C542 1.287 . S
C543 C544 1.524 . S
C543 H546 0.999 . S
C544 H514 0.950 . S
C544 C543 1.524 . S
C544 C545 1.415 . S
C545 H515 0.950 . S
C545 C540 1.363 . S
C545 C544 1.415 . S
H546 C543 0.999 . S
H547 C528 0.913 . S
H548 C566 0.951 . S
H549 C568 0.951 . S
H550 C570 0.950 . S
H551 C571 0.950 . S
H552 C573 0.950 . S
H553 C576 0.950 . S
H554 C577 0.950 . S
H555 C579 0.950 . S
H556 C580 0.950 . S
H557 C581 0.951 . S
H558 C583 0.951 . S
H559 C585 0.950 . S
H560 C586 0.950 . S
H561 C588 0.950 . S
H562 C591 0.950 . S
H563 C592 0.950 . S
H564 C594 0.950 . S
H565 C595 0.950 . S
C566 H548 0.951 . S
C566 C567 1.366 . S
C566 C568 1.388 . S
C567 C566 1.366 . S
C567 C571 1.385 . S
C568 H549 0.951 . S
C568 C566 1.388 . S
C568 C569 1.366 . S
C569 C568 1.366 . S
C569 C570 1.414 . S
C569 C572 1.499 . S
C570 H550 0.950 . S
C570 C569 1.414 . S
C570 C571 1.374 . S
C571 H551 0.950 . S
C571 C567 1.385 . S
C571 C570 1.374 . S
C572 C569 1.499 . S
C572 C573 1.373 . S
C572 C574 1.389 . S
C573 H552 0.950 . S
C573 C572 1.373 . S
C573 C589 1.377 . S
C574 C572 1.389 . S
C574 C575 1.524 . S
C574 C588 1.377 . S
C575 C574 1.524 . S
C575 C576 1.397 . S
C575 C580 1.363 . S
C576 H553 0.950 . S
C576 C575 1.397 . S
C576 C577 1.334 . S
C577 H554 0.950 . S
C577 C576 1.334 . S
C577 C578 1.287 . S
C578 C577 1.287 . S
C578 C579 1.524 . S
C578 H597 0.913 . S
C579 H555 0.950 . S
C579 C578 1.524 . S
C579 C580 1.415 . S
C580 H556 0.950 . S
C580 C575 1.363 . S
C580 C579 1.415 . S
C581 H557 0.951 . S
C581 C582 1.366 . S
C581 C583 1.388 . S
C582 C581 1.366 . S
C582 C586 1.385 . S
C583 H558 0.951 . S
C583 C581 1.388 . S
C583 C584 1.366 . S
C584 C583 1.366 . S
C584 C585 1.414 . S
C584 C587 1.499 . S
C585 H559 0.950 . S
C585 C584 1.414 . S
C585 C586 1.374 . S
C586 H560 0.950 . S
C586 C582 1.385 . S
C586 C585 1.374 . S
C587 C584 1.499 . S
C587 C588 1.373 . S
C587 C589 1.389 . S
C588 H561 0.950 . S
C588 C574 1.377 . S
C588 C587 1.373 . S
C589 C573 1.377 . S
C589 C587 1.389 . S
C589 C590 1.524 . S
C590 C589 1.524 . S
C590 C591 1.397 . S
C590 C595 1.363 . S
C591 H562 0.950 . S
C591 C590 1.397 . S
C591 C592 1.334 . S
C592 H563 0.950 . S
C592 C591 1.334 . S
C592 C593 1.287 . S
C593 C592 1.287 . S
C593 C594 1.524 . S
C593 H596 0.999 . S
C594 H564 0.950 . S
C594 C593 1.524 . S
C594 C595 1.415 . S
C595 H565 0.950 . S
C595 C590 1.363 . S
C595 C594 1.415 . S
H596 C593 0.999 . S
H597 C578 0.913 . S
H598 C616 0.951 . S
H599 C618 0.951 . S
H600 C620 0.950 . S
H601 C621 0.950 . S
H602 C623 0.950 . S
H603 C626 0.950 . S
H604 C627 0.950 . S
H605 C629 0.950 . S
H606 C630 0.950 . S
H607 C631 0.951 . S
H608 C633 0.951 . S
H609 C635 0.950 . S
H610 C636 0.950 . S
H611 C638 0.950 . S
H612 C641 0.950 . S
H613 C642 0.950 . S
H614 C644 0.950 . S
H615 C645 0.950 . S
C616 H598 0.951 . S
C616 C617 1.366 . S
C616 C618 1.388 . S
C617 C616 1.366 . S
C617 C621 1.385 . S
C618 H599 0.951 . S
C618 C616 1.388 . S
C618 C619 1.366 . S
C619 C618 1.366 . S
C619 C620 1.414 . S
C619 C622 1.499 . S
C620 H600 0.950 . S
C620 C619 1.414 . S
C620 C621 1.374 . S
C621 H601 0.950 . S
C621 C617 1.385 . S
C621 C620 1.374 . S
C622 C619 1.499 . S
C622 C623 1.373 . S
C622 C624 1.389 . S
C623 H602 0.950 . S
C623 C622 1.373 . S
C623 C639 1.377 . S
C624 C622 1.389 . S
C624 C625 1.524 . S
C624 C638 1.377 . S
C625 C624 1.524 . S
C625 C626 1.397 . S
C625 C630 1.363 . S
C626 H603 0.950 . S
C626 C625 1.397 . S
C626 C627 1.334 . S
C627 H604 0.950 . S
C627 C626 1.334 . S
C627 C628 1.287 . S
C628 C627 1.287 . S
C628 C629 1.524 . S
C628 H647 0.913 . S
C629 H605 0.950 . S
C629 C628 1.524 . S
C629 C630 1.415 . S
C630 H606 0.950 . S
C630 C625 1.363 . S
C630 C629 1.415 . S
C631 H607 0.951 . S
C631 C632 1.366 . S
C631 C633 1.388 . S
C632 C631 1.366 . S
C632 C636 1.385 . S
C633 H608 0.951 . S
C633 C631 1.388 . S
C633 C634 1.366 . S
C634 C633 1.366 . S
C634 C635 1.414 . S
C634 C637 1.499 . S
C635 H609 0.950 . S
C635 C634 1.414 . S
C635 C636 1.374 . S
C636 H610 0.950 . S
C636 C632 1.385 . S
C636 C635 1.374 . S
C637 C634 1.499 . S
C637 C638 1.373 . S
C637 C639 1.389 . S
C638 H611 0.950 . S
C638 C624 1.377 . S
C638 C637 1.373 . S
C639 C623 1.377 . S
C639 C637 1.389 . S
C639 C640 1.524 . S
C640 C639 1.524 . S
C640 C641 1.397 . S
C640 C645 1.363 . S
C641 H612 0.950 . S
C641 C640 1.397 . S
C641 C642 1.334 . S
C642 H613 0.950 . S
C642 C641 1.334 . S
C642 C643 1.287 . S
C643 C642 1.287 . S
C643 C644 1.524 . S
C643 H646 0.999 . S
C644 H614 0.950 . S
C644 C643 1.524 . S
C644 C645 1.415 . S
C645 H615 0.950 . S
C645 C640 1.363 . S
C645 C644 1.415 . S
H646 C643 0.999 . S
H647 C628 0.913 . S
H648 C666 0.951 . S
H649 C668 0.951 . S
H650 C670 0.950 . S
H651 C671 0.950 . S
H652 C673 0.950 . S
H653 C676 0.950 . S
H654 C677 0.950 . S
H655 C679 0.950 . S
H656 C680 0.950 . S
H657 C681 0.951 . S
H658 C683 0.951 . S
H659 C685 0.950 . S
H660 C686 0.950 . S
H661 C688 0.950 . S
H662 C691 0.950 . S
H663 C692 0.950 . S
H664 C694 0.950 . S
H665 C695 0.950 . S
C666 H648 0.951 . S
C666 C667 1.366 . S
C666 C668 1.388 . S
C667 C666 1.366 . S
C667 C671 1.385 . S
C668 H649 0.951 . S
C668 C666 1.388 . S
C668 C669 1.366 . S
C669 C668 1.366 . S
C669 C670 1.414 . S
C669 C672 1.499 . S
C670 H650 0.950 . S
C670 C669 1.414 . S
C670 C671 1.374 . S
C671 H651 0.950 . S
C671 C667 1.385 . S
C671 C670 1.374 . S
C672 C669 1.499 . S
C672 C673 1.373 . S
C672 C674 1.389 . S
C673 H652 0.950 . S
C673 C672 1.373 . S
C673 C689 1.377 . S
C674 C672 1.389 . S
C674 C675 1.524 . S
C674 C688 1.377 . S
C675 C674 1.524 . S
C675 C676 1.397 . S
C675 C680 1.363 . S
C676 H653 0.950 . S
C676 C675 1.397 . S
C676 C677 1.334 . S
C677 H654 0.950 . S
C677 C676 1.334 . S
C677 C678 1.287 . S
C678 C677 1.287 . S
C678 C679 1.524 . S
C678 H697 0.913 . S
C679 H655 0.950 . S
C679 C678 1.524 . S
C679 C680 1.415 . S
C680 H656 0.950 . S
C680 C675 1.363 . S
C680 C679 1.415 . S
C681 H657 0.951 . S
C681 C682 1.366 . S
C681 C683 1.388 . S
C682 C681 1.366 . S
C682 C686 1.385 . S
C683 H658 0.951 . S
C683 C681 1.388 . S
C683 C684 1.366 . S
C684 C683 1.366 . S
C684 C685 1.414 . S
C684 C687 1.499 . S
C685 H659 0.950 . S
C685 C684 1.414 . S
C685 C686 1.374 . S
C686 H660 0.950 . S
C686 C682 1.385 . S
C686 C685 1.374 . S
C687 C684 1.499 . S
C687 C688 1.373 . S
C687 C689 1.389 . S
C688 H661 0.950 . S
C688 C674 1.377 . S
C688 C687 1.373 . S
C689 C673 1.377 . S
C689 C687 1.389 . S
C689 C690 1.524 . S
C690 C689 1.524 . S
C690 C691 1.397 . S
C690 C695 1.363 . S
C691 H662 0.950 . S
C691 C690 1.397 . S
C691 C692 1.334 . S
C692 H663 0.950 . S
C692 C691 1.334 . S
C692 C693 1.287 . S
C693 C692 1.287 . S
C693 C694 1.524 . S
C693 H696 0.999 . S
C694 H664 0.950 . S
C694 C693 1.524 . S
C694 C695 1.415 . S
C695 H665 0.950 . S
C695 C690 1.363 . S
C695 C694 1.415 . S
H696 C693 0.999 . S
H697 C678 0.913 . S
H698 C716 0.951 . S
H699 C718 0.951 . S
H700 C720 0.950 . S
H701 C721 0.950 . S
H702 C723 0.950 . S
H703 C726 0.950 . S
H704 C727 0.950 . S
H705 C729 0.950 . S
H706 C730 0.950 . S
H707 C731 0.951 . S
H708 C733 0.951 . S
H709 C735 0.950 . S
H710 C736 0.950 . S
H711 C738 0.950 . S
H712 C741 0.950 . S
H713 C742 0.950 . S
H714 C744 0.950 . S
H715 C745 0.950 . S
C716 H698 0.951 . S
C716 C717 1.366 . S
C716 C718 1.388 . S
C717 C716 1.366 . S
C717 C721 1.385 . S
C718 H699 0.951 . S
C718 C716 1.388 . S
C718 C719 1.366 . S
C719 C718 1.366 . S
C719 C720 1.414 . S
C719 C722 1.499 . S
C720 H700 0.950 . S
C720 C719 1.414 . S
C720 C721 1.374 . S
C721 H701 0.950 . S
C721 C717 1.385 . S
C721 C720 1.374 . S
C722 C719 1.499 . S
C722 C723 1.373 . S
C722 C724 1.389 . S
C723 H702 0.950 . S
C723 C722 1.373 . S
C723 C739 1.377 . S
C724 C722 1.389 . S
C724 C725 1.524 . S
C724 C738 1.377 . S
C725 C724 1.524 . S
C725 C726 1.397 . S
C725 C730 1.363 . S
C726 H703 0.950 . S
C726 C725 1.397 . S
C726 C727 1.334 . S
C727 H704 0.950 . S
C727 C726 1.334 . S
C727 C728 1.287 . S
C728 C727 1.287 . S
C728 C729 1.524 . S
C728 H747 0.913 . S
C729 H705 0.950 . S
C729 C728 1.524 . S
C729 C730 1.415 . S
C730 H706 0.950 . S
C730 C725 1.363 . S
C730 C729 1.415 . S
C731 H707 0.951 . S
C731 C732 1.366 . S
C731 C733 1.388 . S
C732 C731 1.366 . S
C732 C736 1.385 . S
C733 H708 0.951 . S
C733 C731 1.388 . S
C733 C734 1.366 . S
C734 C733 1.366 . S
C734 C735 1.414 . S
C734 C737 1.499 . S
C735 H709 0.950 . S
C735 C734 1.414 . S
C735 C736 1.374 . S
C736 H710 0.950 . S
C736 C732 1.385 . S
C736 C735 1.374 . S
C737 C734 1.499 . S
C737 C738 1.373 . S
C737 C739 1.389 . S
C738 H711 0.950 . S
C738 C724 1.377 . S
C738 C737 1.373 . S
C739 C723 1.377 . S
C739 C737 1.389 . S
C739 C740 1.524 . S
C740 C739 1.524 . S
C740 C741 1.397 . S
C740 C745 1.363 . S
C741 H712 0.950 . S
C741 C740 1.397 . S
C741 C742 1.334 . S
C742 H713 0.950 . S
C742 C741 1.334 . S
C742 C743 1.287 . S
C743 C742 1.287 . S
C743 C744 1.524 . S
C743 H746 0.999 . S
C744 H714 0.950 . S
C744 C743 1.524 . S
C744 C745 1.415 . S
C745 H715 0.950 . S
C745 C740 1.363 . S
C745 C744 1.415 . S
H746 C743 0.999 . S
H747 C728 0.913 . S
H748 C766 0.951 . S
H749 C768 0.951 . S
H750 C770 0.950 . S
H751 C771 0.950 . S
H752 C773 0.950 . S
H753 C776 0.950 . S
H754 C777 0.950 . S
H755 C779 0.950 . S
H756 C780 0.950 . S
H757 C781 0.951 . S
H758 C783 0.951 . S
H759 C785 0.950 . S
H760 C786 0.950 . S
H761 C788 0.950 . S
H762 C791 0.950 . S
H763 C792 0.950 . S
H764 C794 0.950 . S
H765 C795 0.950 . S
C766 H748 0.951 . S
C766 C767 1.366 . S
C766 C768 1.388 . S
C767 C766 1.366 . S
C767 C771 1.385 . S
C768 H749 0.951 . S
C768 C766 1.388 . S
C768 C769 1.366 . S
C769 C768 1.366 . S
C769 C770 1.414 . S
C769 C772 1.499 . S
C770 H750 0.950 . S
C770 C769 1.414 . S
C770 C771 1.374 . S
C771 H751 0.950 . S
C771 C767 1.385 . S
C771 C770 1.374 . S
C772 C769 1.499 . S
C772 C773 1.373 . S
C772 C774 1.389 . S
C773 H752 0.950 . S
C773 C772 1.373 . S
C773 C789 1.377 . S
C774 C772 1.389 . S
C774 C775 1.524 . S
C774 C788 1.377 . S
C775 C774 1.524 . S
C775 C776 1.397 . S
C775 C780 1.363 . S
C776 H753 0.950 . S
C776 C775 1.397 . S
C776 C777 1.334 . S
C777 H754 0.950 . S
C777 C776 1.334 . S
C777 C778 1.287 . S
C778 C777 1.287 . S
C778 C779 1.524 . S
C778 H797 0.913 . S
C779 H755 0.950 . S
C779 C778 1.524 . S
C779 C780 1.415 . S
C780 H756 0.950 . S
C780 C775 1.363 . S
C780 C779 1.415 . S
C781 H757 0.951 . S
C781 C782 1.366 . S
C781 C783 1.388 . S
C782 C781 1.366 . S
C782 C786 1.385 . S
C783 H758 0.951 . S
C783 C781 1.388 . S
C783 C784 1.366 . S
C784 C783 1.366 . S
C784 C785 1.414 . S
C784 C787 1.499 . S
C785 H759 0.950 . S
C785 C784 1.414 . S
C785 C786 1.374 . S
C786 H760 0.950 . S
C786 C782 1.385 . S
C786 C785 1.374 . S
C787 C784 1.499 . S
C787 C788 1.373 . S
C787 C789 1.389 . S
C788 H761 0.950 . S
C788 C774 1.377 . S
C788 C787 1.373 . S
C789 C773 1.377 . S
C789 C787 1.389 . S
C789 C790 1.524 . S
C790 C789 1.524 . S
C790 C791 1.397 . S
C790 C795 1.363 . S
C791 H762 0.950 . S
C791 C790 1.397 . S
C791 C792 1.334 . S
C792 H763 0.950 . S
C792 C791 1.334 . S
C792 C793 1.287 . S
C793 C792 1.287 . S
C793 C794 1.524 . S
C793 H796 0.999 . S
C794 H764 0.950 . S
C794 C793 1.524 . S
C794 C795 1.415 . S
C795 H765 0.950 . S
C795 C790 1.363 . S
C795 C794 1.415 . S
H796 C793 0.999 . S
H797 C778 0.913 . S
H798 C816 0.951 . S
H799 C818 0.951 . S
H800 C820 0.950 . S
H801 C821 0.950 . S
H802 C823 0.950 . S
H803 C826 0.950 . S
H804 C827 0.950 . S
H805 C829 0.950 . S
H806 C830 0.950 . S
H807 C831 0.951 . S
H808 C833 0.951 1_655 S
H809 C835 0.950 . S
H810 C836 0.950 . S
H811 C838 0.950 . S
H812 C841 0.950 . S
H813 C842 0.950 . S
H814 C844 0.950 . S
H815 C845 0.950 1_554 S
C816 H798 0.951 . S
C816 C817 1.366 . S
C816 C818 1.388 . S
C817 C816 1.366 . S
C817 C821 1.385 1_455 S
C818 H799 0.951 . S
C818 C816 1.388 . S
C818 C819 1.366 . S
C819 C818 1.366 . S
C819 C820 1.414 1_455 S
C819 C822 1.499 . S
C820 H800 0.950 . S
C820 C819 1.414 1_655 S
C820 C821 1.374 . S
C821 H801 0.950 . S
C821 C817 1.385 1_655 S
C821 C820 1.374 . S
C822 C819 1.499 . S
C822 C823 1.373 1_455 S
C822 C824 1.389 . S
C823 H802 0.950 . S
C823 C822 1.373 1_655 S
C823 C839 1.377 1_655 S
C824 C822 1.389 . S
C824 C825 1.524 . S
C824 C838 1.377 . S
C825 C824 1.524 . S
C825 C826 1.397 . S
C825 C830 1.363 . S
C826 H803 0.950 . S
C826 C825 1.397 . S
C826 C827 1.334 . S
C827 H804 0.950 . S
C827 C826 1.334 . S
C827 C828 1.287 . S
C828 C827 1.287 . S
C828 C829 1.524 . S
C828 H847 0.913 . S
C829 H805 0.950 . S
C829 C828 1.524 . S
C829 C830 1.415 . S
C830 H806 0.950 . S
C830 C825 1.363 . S
C830 C829 1.415 . S
C831 H807 0.951 . S
C831 C832 1.366 . S
C831 C833 1.388 . S
C832 C831 1.366 . S
C832 C836 1.385 . S
C833 H808 0.951 1_455 S
C833 C831 1.388 . S
C833 C834 1.366 . S
C834 C833 1.366 . S
C834 C835 1.414 . S
C834 C837 1.499 . S
C835 H809 0.950 . S
C835 C834 1.414 . S
C835 C836 1.374 . S
C836 H810 0.950 . S
C836 C832 1.385 . S
C836 C835 1.374 . S
C837 C834 1.499 . S
C837 C838 1.373 1_556 S
C837 C839 1.389 1_556 S
C838 H811 0.950 . S
C838 C824 1.377 . S
C838 C837 1.373 1_554 S
C839 C823 1.377 1_455 S
C839 C837 1.389 1_554 S
C839 C840 1.524 1_454 S
C840 C839 1.524 1_656 S
C840 C841 1.397 . S
C840 C845 1.363 . S
C841 H812 0.950 . S
C841 C840 1.397 . S
C841 C842 1.334 . S
C842 H813 0.950 . S
C842 C841 1.334 . S
C842 C843 1.287 . S
C843 C842 1.287 . S
C843 C844 1.524 . S
C843 H846 0.999 . S
C844 H814 0.950 . S
C844 C843 1.524 . S
C844 C845 1.415 . S
C845 H815 0.950 1_556 S
C845 C840 1.363 . S
C845 C844 1.415 . S
H846 C843 0.999 . S
H847 C828 0.913 . S
H848 C866 0.951 . S
H849 C868 0.951 . S
H850 C870 0.950 . S
H851 C871 0.950 . S
H852 C873 0.950 . S
H853 C876 0.950 . S
H854 C877 0.950 . S
H855 C879 0.950 . S
H856 C880 0.950 . S
H857 C881 0.951 . S
H858 C883 0.951 . S
H859 C885 0.950 . S
H860 C886 0.950 . S
H861 C888 0.950 1_565 S
H862 C891 0.950 . S
H863 C892 0.950 . S
H864 C894 0.950 . S
H865 C895 0.950 . S
C866 H848 0.951 . S
C866 C867 1.366 . S
C866 C868 1.388 . S
C867 C866 1.366 . S
C867 C871 1.385 . S
C868 H849 0.951 . S
C868 C866 1.388 . S
C868 C869 1.366 . S
C869 C868 1.366 . S
C869 C870 1.414 . S
C869 C872 1.499 . S
C870 H850 0.950 . S
C870 C869 1.414 . S
C870 C871 1.374 . S
C871 H851 0.950 . S
C871 C867 1.385 . S
C871 C870 1.374 . S
C872 C869 1.499 . S
C872 C873 1.373 . S
C872 C874 1.389 . S
C873 H852 0.950 . S
C873 C872 1.373 . S
C873 C889 1.377 . S
C874 C872 1.389 . S
C874 C875 1.524 1_545 S
C874 C888 1.377 . S
C875 C874 1.524 1_565 S
C875 C876 1.397 . S
C875 C880 1.363 . S
C876 H853 0.950 . S
C876 C875 1.397 . S
C876 C877 1.334 . S
C877 H854 0.950 . S
C877 C876 1.334 . S
C877 C878 1.287 . S
C878 C877 1.287 . S
C878 C879 1.524 . S
C878 H897 0.913 . S
C879 H855 0.950 . S
C879 C878 1.524 . S
C879 C880 1.415 . S
C880 H856 0.950 . S
C880 C875 1.363 . S
C880 C879 1.415 . S
C881 H857 0.951 . S
C881 C882 1.366 . S
C881 C883 1.388 . S
C882 C881 1.366 . S
C882 C886 1.385 . S
C883 H858 0.951 . S
C883 C881 1.388 . S
C883 C884 1.366 . S
C884 C883 1.366 . S
C884 C885 1.414 . S
C884 C887 1.499 . S
C885 H859 0.950 . S
C885 C884 1.414 . S
C885 C886 1.374 . S
C886 H860 0.950 . S
C886 C882 1.385 . S
C886 C885 1.374 . S
C887 C884 1.499 . S
C887 C888 1.373 . S
C887 C889 1.389 . S
C888 H861 0.950 1_545 S
C888 C874 1.377 . S
C888 C887 1.373 . S
C889 C873 1.377 . S
C889 C887 1.389 . S
C889 C890 1.524 . S
C890 C889 1.524 . S
C890 C891 1.397 . S
C890 C895 1.363 . S
C891 H862 0.950 . S
C891 C890 1.397 . S
C891 C892 1.334 . S
C892 H863 0.950 . S
C892 C891 1.334 . S
C892 C893 1.287 . S
C893 C892 1.287 . S
C893 C894 1.524 . S
C893 H896 0.999 . S
C894 H864 0.950 . S
C894 C893 1.524 . S
C894 C895 1.415 . S
C895 H865 0.950 . S
C895 C890 1.363 . S
C895 C894 1.415 . S
H896 C893 0.999 . S
H897 C878 0.913 . S
H898 C916 0.951 . S
H899 C918 0.951 . S
H900 C920 0.950 . S
H901 C921 0.950 . S
H902 C923 0.950 . S
H903 C926 0.950 . S
H904 C927 0.950 . S
H905 C929 0.950 . S
H906 C930 0.950 . S
H907 C931 0.951 . S
H908 C933 0.951 . S
H909 C935 0.950 . S
H910 C936 0.950 . S
H911 C938 0.950 . S
H912 C941 0.950 . S
H913 C942 0.950 . S
H914 C944 0.950 . S
H915 C945 0.950 . S
C916 H898 0.951 . S
C916 C917 1.366 . S
C916 C918 1.388 . S
C917 C916 1.366 . S
C917 C921 1.385 . S
C918 H899 0.951 . S
C918 C916 1.388 . S
C918 C919 1.366 . S
C919 C918 1.366 . S
C919 C920 1.414 . S
C919 C922 1.499 . S
C920 H900 0.950 . S
C920 C919 1.414 . S
C920 C921 1.374 . S
C921 H901 0.950 . S
C921 C917 1.385 . S
C921 C920 1.374 . S
C922 C919 1.499 . S
C922 C923 1.373 . S
C922 C924 1.389 . S
C923 H902 0.950 . S
C923 C922 1.373 . S
C923 C939 1.377 . S
C924 C922 1.389 . S
C924 C925 1.524 . S
C924 C938 1.377 . S
C925 C924 1.524 . S
C925 C926 1.397 . S
C925 C930 1.363 . S
C926 H903 0.950 . S
C926 C925 1.397 . S
C926 C927 1.334 . S
C927 H904 0.950 . S
C927 C926 1.334 . S
C927 C928 1.287 . S
C928 C927 1.287 . S
C928 C929 1.524 . S
C928 H947 0.913 . S
C929 H905 0.950 . S
C929 C928 1.524 . S
C929 C930 1.415 . S
C930 H906 0.950 . S
C930 C925 1.363 . S
C930 C929 1.415 . S
C931 H907 0.951 . S
C931 C932 1.366 . S
C931 C933 1.388 . S
C932 C931 1.366 . S
C932 C936 1.385 . S
C933 H908 0.951 . S
C933 C931 1.388 . S
C933 C934 1.366 . S
C934 C933 1.366 . S
C934 C935 1.414 . S
C934 C937 1.499 . S
C935 H909 0.950 . S
C935 C934 1.414 . S
C935 C936 1.374 . S
C936 H910 0.950 . S
C936 C932 1.385 . S
C936 C935 1.374 . S
C937 C934 1.499 . S
C937 C938 1.373 . S
C937 C939 1.389 . S
C938 H911 0.950 . S
C938 C924 1.377 . S
C938 C937 1.373 . S
C939 C923 1.377 . S
C939 C937 1.389 . S
C939 C940 1.524 . S
C940 C939 1.524 . S
C940 C941 1.397 . S
C940 C945 1.363 . S
C941 H912 0.950 . S
C941 C940 1.397 . S
C941 C942 1.334 . S
C942 H913 0.950 . S
C942 C941 1.334 . S
C942 C943 1.287 . S
C943 C942 1.287 . S
C943 C944 1.524 . S
C943 H946 0.999 . S
C944 H914 0.950 . S
C944 C943 1.524 . S
C944 C945 1.415 . S
C945 H915 0.950 . S
C945 C940 1.363 . S
C945 C944 1.415 . S
H946 C943 0.999 . S
H947 C928 0.913 . S
H948 C966 0.951 . S
H949 C968 0.951 . S
H950 C970 0.950 1_565 S
H951 C971 0.950 . S
H952 C973 0.950 . S
H953 C976 0.950 . S
H954 C977 0.950 . S
H955 C979 0.950 . S
H956 C980 0.950 . S
H957 C981 0.951 . S
H958 C983 0.951 1_565 S
H959 C985 0.950 . S
H960 C986 0.950 . S
H961 C988 0.950 . S
H962 C991 0.950 . S
H963 C992 0.950 . S
H964 C994 0.950 . S
H965 C995 0.950 . S
C966 H948 0.951 . S
C966 C967 1.366 . S
C966 C968 1.388 . S
C967 C966 1.366 . S
C967 C971 1.385 . S
C968 H949 0.951 . S
C968 C966 1.388 . S
C968 C969 1.366 . S
C969 C968 1.366 . S
C969 C970 1.414 . S
C969 C972 1.499 . S
C970 H950 0.950 1_545 S
C970 C969 1.414 . S
C970 C971 1.374 . S
C971 H951 0.950 . S
C971 C967 1.385 . S
C971 C970 1.374 . S
C972 C969 1.499 . S
C972 C973 1.373 . S
C972 C974 1.389 . S
C973 H952 0.950 . S
C973 C972 1.373 . S
C973 C989 1.377 . S
C974 C972 1.389 . S
C974 C975 1.524 . S
C974 C988 1.377 . S
C975 C974 1.524 . S
C975 C976 1.397 1_545 S
C975 C980 1.363 . S
C976 H953 0.950 . S
C976 C975 1.397 1_565 S
C976 C977 1.334 . S
C977 H954 0.950 . S
C977 C976 1.334 . S
C977 C978 1.287 . S
C978 C977 1.287 . S
C978 C979 1.524 1_565 S
C978 H997 0.913 . S
C979 H955 0.950 . S
C979 C978 1.524 1_545 S
C979 C980 1.415 . S
C980 H956 0.950 . S
C980 C975 1.363 . S
C980 C979 1.415 . S
C981 H957 0.951 . S
C981 C982 1.366 1_565 S
C981 C983 1.388 1_565 S
C982 C981 1.366 1_545 S
C982 C986 1.385 . S
C983 H958 0.951 1_545 S
C983 C981 1.388 1_545 S
C983 C984 1.366 . S
C984 C983 1.366 . S
C984 C985 1.414 . S
C984 C987 1.499 . S
C985 H959 0.950 . S
C985 C984 1.414 . S
C985 C986 1.374 . S
C986 H960 0.950 . S
C986 C982 1.385 . S
C986 C985 1.374 . S
C987 C984 1.499 . S
C987 C988 1.373 . S
C987 C989 1.389 . S
C988 H961 0.950 . S
C988 C974 1.377 . S
C988 C987 1.373 . S
C989 C973 1.377 . S
C989 C987 1.389 . S
C989 C990 1.524 . S
C990 C989 1.524 . S
C990 C991 1.397 . S
C990 C995 1.363 . S
C991 H962 0.950 . S
C991 C990 1.397 . S
C991 C992 1.334 . S
C992 H963 0.950 . S
C992 C991 1.334 . S
C992 C993 1.287 . S
C993 C992 1.287 . S
C993 C994 1.524 . S
C993 H996 0.999 . S
C994 H964 0.950 . S
C994 C993 1.524 . S
C994 C995 1.415 . S
C995 H965 0.950 . S
C995 C990 1.363 . S
C995 C994 1.415 . S
H996 C993 0.999 . S
H997 C978 0.913 . S
H998 C1016 0.951 . S
H999 C1018 0.951 . S
H1000 C1020 0.950 . S
H1001 C1021 0.950 . S
H1002 C1023 0.950 . S
H1003 C1026 0.950 . S
H1004 C1027 0.950 . S
H1005 C1029 0.950 . S
H1006 C1030 0.950 . S
H1007 C1031 0.951 . S
H1008 C1033 0.951 . S
H1009 C1035 0.950 . S
H1010 C1036 0.950 . S
H1011 C1038 0.950 . S
H1012 C1041 0.950 . S
H1013 C1042 0.950 . S
H1014 C1044 0.950 . S
H1015 C1045 0.950 . S
C1016 H998 0.951 . S
C1016 C1017 1.366 . S
C1016 C1018 1.388 . S
C1017 C1016 1.366 . S
C1017 C1021 1.385 . S
C1018 H999 0.951 . S
C1018 C1016 1.388 . S
C1018 C1019 1.366 . S
C1019 C1018 1.366 . S
C1019 C1020 1.414 . S
C1019 C1022 1.499 . S
C1020 H1000 0.950 . S
C1020 C1019 1.414 . S
C1020 C1021 1.374 . S
C1021 H1001 0.950 . S
C1021 C1017 1.385 . S
C1021 C1020 1.374 . S
C1022 C1019 1.499 . S
C1022 C1023 1.373 . S
C1022 C1024 1.389 . S
C1023 H1002 0.950 . S
C1023 C1022 1.373 . S
C1023 C1039 1.382 . S
C1024 C1022 1.389 . S
C1024 C1025 1.524 . S
C1024 C1038 1.377 . S
C1025 C1024 1.524 . S
C1025 C1026 1.397 . S
C1025 C1030 1.363 . S
C1026 H1003 0.950 . S
C1026 C1025 1.397 . S
C1026 C1027 1.334 . S
C1027 H1004 0.950 . S
C1027 C1026 1.334 . S
C1027 C1028 1.287 . S
C1028 C1027 1.287 . S
C1028 C1029 1.524 . S
C1028 H1047 0.913 . S
C1029 H1005 0.950 . S
C1029 C1028 1.524 . S
C1029 C1030 1.415 . S
C1030 H1006 0.950 . S
C1030 C1025 1.363 . S
C1030 C1029 1.415 . S
C1031 H1007 0.951 . S
C1031 C1032 1.366 . S
C1031 C1033 1.388 . S
C1032 C1031 1.366 . S
C1032 C1036 1.385 . S
C1033 H1008 0.951 . S
C1033 C1031 1.388 . S
C1033 C1034 1.366 . S
C1034 C1033 1.366 . S
C1034 C1035 1.414 . S
C1034 C1037 1.499 . S
C1035 H1009 0.950 . S
C1035 C1034 1.414 . S
C1035 C1036 1.374 . S
C1036 H1010 0.950 . S
C1036 C1032 1.385 . S
C1036 C1035 1.374 . S
C1037 C1034 1.499 . S
C1037 C1038 1.373 1_554 S
C1037 C1039 1.387 1_554 S
C1038 H1011 0.950 . S
C1038 C1024 1.377 . S
C1038 C1037 1.373 1_556 S
C1039 C1023 1.382 . S
C1039 C1037 1.387 1_556 S
C1039 C1040 1.522 1_556 S
C1040 C1039 1.522 1_554 S
C1040 C1041 1.397 . S
C1040 C1045 1.363 . S
C1041 H1012 0.950 . S
C1041 C1040 1.397 . S
C1041 C1042 1.334 . S
C1042 H1013 0.950 . S
C1042 C1041 1.334 . S
C1042 C1043 1.287 . S
C1043 C1042 1.287 . S
C1043 C1044 1.524 . S
C1043 H1046 0.999 . S
C1044 H1014 0.950 . S
C1044 C1043 1.524 . S
C1044 C1045 1.415 . S
C1045 H1015 0.950 . S
C1045 C1040 1.363 . S
C1045 C1044 1.415 . S
H1046 C1043 0.999 . S
H1047 C1028 0.913 . S
H1048 C1066 0.951 . S
H1049 C1068 0.951 . S
H1050 C1070 0.950 1_655 S
H1051 C1071 0.950 1_655 S
H1052 C1073 0.950 . S
H1053 C1076 0.950 . S
H1054 C1077 0.950 . S
H1055 C1079 0.950 . S
H1056 C1080 0.950 . S
H1057 C1081 0.951 . S
H1058 C1083 0.951 . S
H1059 C1085 0.950 . S
H1060 C1086 0.950 . S
H1061 C1088 0.950 . S
H1062 C1091 0.950 . S
H1063 C1092 0.950 . S
H1064 C1094 0.950 . S
H1065 C1095 0.950 . S
C1066 H1048 0.951 . S
C1066 C1067 1.366 . S
C1066 C1068 1.388 . S
C1067 C1066 1.366 . S
C1067 C1071 1.385 . S
C1068 H1049 0.951 . S
C1068 C1066 1.388 . S
C1068 C1069 1.366 . S
C1069 C1068 1.366 . S
C1069 C1070 1.414 . S
C1069 C1072 1.499 . S
C1070 H1050 0.950 1_455 S
C1070 C1069 1.414 . S
C1070 C1071 1.374 . S
C1071 H1051 0.950 1_455 S
C1071 C1067 1.385 . S
C1071 C1070 1.374 . S
C1072 C1069 1.499 . S
C1072 C1073 1.373 1_455 S
C1072 C1074 1.389 . S
C1073 H1052 0.950 . S
C1073 C1072 1.373 1_655 S
C1073 C1089 1.377 . S
C1074 C1072 1.389 . S
C1074 C1075 1.524 . S
C1074 C1088 1.377 . S
C1075 C1074 1.524 . S
C1075 C1076 1.397 . S
C1075 C1080 1.363 . S
C1076 H1053 0.950 . S
C1076 C1075 1.397 . S
C1076 C1077 1.334 . S
C1077 H1054 0.950 . S
C1077 C1076 1.334 . S
C1077 C1078 1.287 . S
C1078 C1077 1.287 . S
C1078 C1079 1.524 . S
C1078 H1097 0.913 . S
C1079 H1055 0.950 . S
C1079 C1078 1.524 . S
C1079 C1080 1.415 . S
C1080 H1056 0.950 . S
C1080 C1075 1.363 . S
C1080 C1079 1.415 . S
C1081 H1057 0.951 . S
C1081 C1082 1.366 . S
C1081 C1083 1.388 . S
C1082 C1081 1.366 . S
C1082 C1086 1.385 . S
C1083 H1058 0.951 . S
C1083 C1081 1.388 . S
C1083 C1084 1.366 . S
C1084 C1083 1.366 . S
C1084 C1085 1.414 . S
C1084 C1087 1.499 . S
C1085 H1059 0.950 . S
C1085 C1084 1.414 . S
C1085 C1086 1.374 . S
C1086 H1060 0.950 . S
C1086 C1082 1.385 . S
C1086 C1085 1.374 . S
C1087 C1084 1.499 . S
C1087 C1088 1.373 . S
C1087 C1089 1.389 1_455 S
C1088 H1061 0.950 . S
C1088 C1074 1.377 . S
C1088 C1087 1.373 . S
C1089 C1073 1.377 . S
C1089 C1087 1.389 1_655 S
C1089 C1090 1.524 . S
C1090 C1089 1.524 . S
C1090 C1091 1.397 . S
C1090 C1095 1.363 . S
C1091 H1062 0.950 . S
C1091 C1090 1.397 . S
C1091 C1092 1.334 . S
C1092 H1063 0.950 . S
C1092 C1091 1.334 . S
C1092 C1093 1.287 . S
C1093 C1092 1.287 . S
C1093 C1094 1.524 . S
C1093 H1096 0.999 . S
C1094 H1064 0.950 . S
C1094 C1093 1.524 . S
C1094 C1095 1.415 . S
C1095 H1065 0.950 . S
C1095 C1090 1.363 . S
C1095 C1094 1.415 . S
H1096 C1093 0.999 . S
H1097 C1078 0.913 . S
C217 C9 0.431 . S
C232 C189 0.519 . S
C267 C49 0.155 . S
C282 C167 0.226 . S
C317 C89 0.162 . S
C332 C180 0.239 . S
C367 C26 0.273 . S
C382 C193 0.191 . S
C432 C163 0.500 . S
C417 C66 0.476 . S
C482 C176 0.504 . S
C467 C106 0.483 . S
C517 C43 2.835 . S
C532 C141 2.800 . S
C567 C83 2.952 . S
C582 C154 2.908 1_655 S
C617 C22 3.165 . S
C632 C124 2.955 . S
C682 C137 2.975 . S
C667 C62 3.175 . S
C732 C150 2.874 . S
C717 C102 3.054 . S
C767 C3 2.841 . S
C782 C128 2.810 . S
C832 C155 1.730 . S
C817 C15 1.693 . S
C867 C55 1.693 . S
C882 C129 1.762 . S
C917 C95 1.692 . S
C932 C142 1.762 . S
C982 C181 1.286 . S
C967 C42 1.275 . S
C1032 C194 1.298 . S
C1017 C82 1.285 . S
C1067 C2 1.263 . S
C1082 C168 1.283 . S
