# Generated by pormake.
# Topology nom, (4,4)-cn, num edge types: 1
# Building blocks:
#     Node 0, Type 0, BuildingBlock: NAWXER_clean_linker_0, # of connection points: 4
#     Node 1, Type 0, BuildingBlock: NAWXER_clean_linker_0, # of connection points: 4
#     Node 2, Type 0, BuildingBlock: NAWXER_clean_linker_0, # of connection points: 4
#     Node 3, Type 0, BuildingBlock: NAWXER_clean_linker_0, # of connection points: 4
#     Node 4, Type 0, BuildingBlock: NAWXER_clean_linker_0, # of connection points: 4
#     Node 5, Type 0, BuildingBlock: NAWXER_clean_linker_0, # of connection points: 4
#     Node 6, Type 1, BuildingBlock: QUQFOY_clean_sbu_3, # of connection points: 4
#     Node 7, Type 1, BuildingBlock: QUQFOY_clean_sbu_3, # of connection points: 4
#     Node 8, Type 1, BuildingBlock: QUQFOY_clean_sbu_3, # of connection points: 4
#     Node 9, Type 1, BuildingBlock: QUQFOY_clean_sbu_3, # of connection points: 4
#     Node 10, Type 1, BuildingBlock: QUQFOY_clean_sbu_3, # of connection points: 4
#     Node 11, Type 1, BuildingBlock: QUQFOY_clean_sbu_3, # of connection points: 4
#     Edge 12, Type (0, 1), BuildingBlock: OJICUG_clean_linker_0, # of connection points: 2
#     Edge 13, Type (0, 1), BuildingBlock: OJICUG_clean_linker_0, # of connection points: 2
#     Edge 14, Type (0, 1), BuildingBlock: OJICUG_clean_linker_0, # of connection points: 2
#     Edge 15, Type (0, 1), BuildingBlock: OJICUG_clean_linker_0, # of connection points: 2
#     Edge 16, Type (0, 1), BuildingBlock: OJICUG_clean_linker_0, # of connection points: 2
#     Edge 17, Type (0, 1), BuildingBlock: OJICUG_clean_linker_0, # of connection points: 2
#     Edge 18, Type (0, 1), BuildingBlock: OJICUG_clean_linker_0, # of connection points: 2
#     Edge 19, Type (0, 1), BuildingBlock: OJICUG_clean_linker_0, # of connection points: 2
#     Edge 20, Type (0, 1), BuildingBlock: OJICUG_clean_linker_0, # of connection points: 2
#     Edge 21, Type (0, 1), BuildingBlock: OJICUG_clean_linker_0, # of connection points: 2
#     Edge 22, Type (0, 1), BuildingBlock: OJICUG_clean_linker_0, # of connection points: 2
#     Edge 23, Type (0, 1), BuildingBlock: OJICUG_clean_linker_0, # of connection points: 2
#     Edge 24, Type (0, 1), BuildingBlock: OJICUG_clean_linker_0, # of connection points: 2
#     Edge 25, Type (0, 1), BuildingBlock: OJICUG_clean_linker_0, # of connection points: 2
#     Edge 26, Type (0, 1), BuildingBlock: OJICUG_clean_linker_0, # of connection points: 2
#     Edge 27, Type (0, 1), BuildingBlock: OJICUG_clean_linker_0, # of connection points: 2
#     Edge 28, Type (0, 1), BuildingBlock: OJICUG_clean_linker_0, # of connection points: 2
#     Edge 29, Type (0, 1), BuildingBlock: OJICUG_clean_linker_0, # of connection points: 2
#     Edge 30, Type (0, 1), BuildingBlock: OJICUG_clean_linker_0, # of connection points: 2
#     Edge 31, Type (0, 1), BuildingBlock: OJICUG_clean_linker_0, # of connection points: 2
#     Edge 32, Type (0, 1), BuildingBlock: OJICUG_clean_linker_0, # of connection points: 2
#     Edge 33, Type (0, 1), BuildingBlock: OJICUG_clean_linker_0, # of connection points: 2
#     Edge 34, Type (0, 1), BuildingBlock: OJICUG_clean_linker_0, # of connection points: 2
#     Edge 35, Type (0, 1), BuildingBlock: OJICUG_clean_linker_0, # of connection points: 2
# Relax obj value: 0.007
# Max RMSD: 0.111
# Mean RMSD: 0.075
data_MOF--net-nom--node1-QUQFOY_clean_sbu_3--node2-NAWXER_clean_linker_0--edge1-OJICUG_clean_linker_0
_symmetry_space_group_name_H-M    P1
_symmetry_Int_Tables_number       1
_symmetry_cell_setting            triclinic
loop_
_symmetry_equiv_pos_as_xyz
'x, y, z'
_cell_length_a     40.909598
_cell_length_b     42.03127
_cell_length_c     45.296902
_cell_angle_alpha  89.741761
_cell_angle_beta   90.252668
_cell_angle_gamma 120.03231
loop_
_atom_site_label
_atom_site_type_symbol
_atom_site_fract_x
_atom_site_fract_y
_atom_site_fract_z
_atom_type_partial_charge
C0 C 0.86497 0.4679 0.3303 0.0
C1 C 0.84901 0.44195 0.35309 0.0
C2 C 0.89855 0.47479 0.31716 0.0
C3 C 0.91667 0.45544 0.32617 0.0
C4 C 0.86606 0.42135 0.36134 0.0
C5 C 0.89992 0.42833 0.34814 0.0
C6 C 0.95598 0.46874 0.31679 0.0
C7 C 0.89271 0.42594 0.23021 0.0
C8 C 0.89809 0.45403 0.21033 0.0
C9 C 0.91443 0.43425 0.25601 0.0
C10 C 0.94206 0.47069 0.26213 0.0
C11 C 0.92484 0.4906 0.21732 0.0
C12 C 0.94685 0.49874 0.2427 0.0
C13 C 0.968 0.47998 0.28749 0.0
C14 C 0.13527 0.56923 0.28566 0.0
C15 C 0.1387 0.60332 0.27798 0.0
C16 C 0.10066 0.54017 0.29538 0.0
C17 C 0.06921 0.54489 0.29719 0.0
C18 C 0.10723 0.60803 0.28117 0.0
C19 C 0.07275 0.57895 0.29027 0.0
C20 C 0.03152 0.5143 0.30412 0.0
C21 C 0.09043 0.56233 0.39016 0.0
C22 C 0.0963 0.53725 0.40671 0.0
C23 C 0.06573 0.5504 0.36614 0.0
C24 C 0.04671 0.51323 0.358 0.0
C25 C 0.07696 0.49994 0.39863 0.0
C26 C 0.05214 0.488 0.37455 0.0
C27 C 0.02014 0.50059 0.33289 0.0
H28 H 0.85223 0.48397 0.3234 0.0
H29 H 0.91145 0.49701 0.30129 0.0
H30 H 0.85433 0.40132 0.37902 0.0
H31 H 0.91381 0.41366 0.35588 0.0
H32 H 0.87258 0.39745 0.22545 0.0
H33 H 0.91058 0.41216 0.27062 0.0
H34 H 0.92899 0.5131 0.2031 0.0
H35 H 0.96777 0.52712 0.24717 0.0
H36 H 0.15888 0.5646 0.28327 0.0
H37 H 0.09813 0.51383 0.30051 0.0
H38 H 0.10906 0.63413 0.27633 0.0
H39 H 0.04861 0.58296 0.29177 0.0
H40 H 0.10506 0.59127 0.3957 0.0
H41 H 0.06119 0.57018 0.3541 0.0
H42 H 0.08051 0.4799 0.41122 0.0
H43 H 0.03729 0.45913 0.36879 0.0
N44 N 0.98265 0.47862 0.33833 0.0
N45 N 0.00522 0.503 0.28245 0.0
C46 C 0.38326 0.86357 0.4962 0.0
C47 C 0.3988 0.84618 0.51298 0.0
C48 C 0.40582 0.8999 0.48696 0.0
C49 C 0.4443 0.91949 0.49439 0.0
C50 C 0.43735 0.86579 0.52037 0.0
C51 C 0.45984 0.90237 0.51144 0.0
C52 C 0.46759 0.95847 0.4859 0.0
C53 C 0.44506 0.89453 0.40155 0.0
C54 C 0.4287 0.90448 0.3785 0.0
C55 C 0.45794 0.91571 0.42717 0.0
C56 C 0.45373 0.94667 0.43068 0.0
C57 C 0.42493 0.93571 0.38202 0.0
C58 C 0.43711 0.95639 0.40782 0.0
C59 C 0.46933 0.97111 0.45664 0.0
C60 C 0.56986 0.13519 0.46692 0.0
C61 C 0.54683 0.14694 0.45304 0.0
C62 C 0.55571 0.09807 0.4735 0.0
C63 C 0.51837 0.07206 0.46617 0.0
C64 C 0.50963 0.12053 0.44531 0.0
C65 C 0.49569 0.08343 0.45157 0.0
C66 C 0.50241 0.03291 0.4737 0.0
C67 C 0.51513 0.09292 0.55791 0.0
C68 C 0.54344 0.09404 0.57628 0.0
C69 C 0.50143 0.06879 0.53408 0.0
C70 C 0.51593 0.04549 0.52813 0.0
C71 C 0.55754 0.07029 0.57051 0.0
C72 C 0.54363 0.04596 0.54672 0.0
C73 C 0.50178 0.02037 0.50271 0.0
H74 H 0.35367 0.84898 0.49009 0.0
H75 H 0.3931 0.91287 0.47433 0.0
H76 H 0.44989 0.85304 0.53349 0.0
H77 H 0.48938 0.91724 0.51769 0.0
H78 H 0.44817 0.87051 0.39978 0.0
H79 H 0.47196 0.90826 0.44385 0.0
H80 H 0.41337 0.94485 0.36457 0.0
H81 H 0.43397 0.98042 0.40972 0.0
H82 H 0.59888 0.15463 0.47264 0.0
H83 H 0.57387 0.08967 0.48429 0.0
H84 H 0.49086 0.12853 0.43505 0.0
H85 H 0.46677 0.06368 0.44574 0.0
H86 H 0.50391 0.11105 0.56173 0.0
H87 H 0.47951 0.06833 0.52027 0.0
H88 H 0.57903 0.07029 0.58457 0.0
H89 H 0.55484 0.02788 0.54258 0.0
N90 N 0.48435 0.9836 0.5078 0.0
N91 N 0.48635 0.00788 0.45181 0.0
C92 C 0.58198 0.47681 0.59911 0.0
C93 C 0.55796 0.46227 0.57448 0.0
C94 C 0.57141 0.49009 0.62325 0.0
C95 C 0.53618 0.48825 0.62362 0.0
C96 C 0.5234 0.46193 0.57441 0.0
C97 C 0.51264 0.47478 0.59875 0.0
C98 C 0.52354 0.50015 0.64977 0.0
C99 C 0.52894 0.40144 0.68022 0.0
C100 C 0.5608 0.41082 0.69782 0.0
C101 C 0.51823 0.42745 0.67398 0.0
C102 C 0.53906 0.46314 0.68541 0.0
C103 C 0.5815 0.4465 0.70944 0.0
C104 C 0.57037 0.47239 0.70358 0.0
C105 C 0.52729 0.49028 0.67887 0.0
C106 C 0.45432 0.51932 0.77097 0.0
C107 C 0.46397 0.55616 0.77523 0.0
C108 C 0.46549 0.50882 0.74556 0.0
C109 C 0.48571 0.53464 0.72348 0.0
C110 C 0.48432 0.58205 0.75298 0.0
C111 C 0.49494 0.57133 0.72725 0.0
C112 C 0.49827 0.52305 0.69727 0.0
C113 C 0.44691 0.57607 0.62566 0.0
C114 C 0.40974 0.55685 0.63638 0.0
C115 C 0.47453 0.56938 0.63749 0.0
C116 C 0.46558 0.54388 0.66051 0.0
C117 C 0.40132 0.53275 0.66039 0.0
C118 C 0.42892 0.52621 0.67227 0.0
C119 C 0.49177 0.53047 0.66808 0.0
H120 H 0.60872 0.47737 0.60002 0.0
H121 H 0.59071 0.50154 0.64171 0.0
H122 H 0.50461 0.45177 0.55555 0.0
H123 H 0.48554 0.47353 0.59832 0.0
H124 H 0.51268 0.37415 0.67092 0.0
H125 H 0.49363 0.41972 0.66025 0.0
H126 H 0.60605 0.4542 0.72322 0.0
H127 H 0.5865 0.49974 0.71278 0.0
H128 H 0.43782 0.49837 0.78715 0.0
H129 H 0.45793 0.48031 0.74298 0.0
H130 H 0.49269 0.61073 0.75563 0.0
H131 H 0.51105 0.59179 0.7106 0.0
H132 H 0.45407 0.59461 0.60702 0.0
H133 H 0.50244 0.58284 0.62775 0.0
H134 H 0.37294 0.51778 0.66919 0.0
H135 H 0.42079 0.50548 0.68932 0.0
N136 N 0.5053 0.51932 0.64546 0.0
N137 N 0.51524 0.50268 0.70157 0.0
C138 C 0.88157 0.40529 0.79591 0.0
C139 C 0.86324 0.41132 0.77213 0.0
C140 C 0.91497 0.434 0.8072 0.0
C141 C 0.9306 0.46948 0.79516 0.0
C142 C 0.87853 0.44692 0.76025 0.0
C143 C 0.91229 0.47576 0.7715 0.0
C144 C 0.96823 0.49832 0.80519 0.0
C145 C 0.8884 0.4778 0.87899 0.0
C146 C 0.89483 0.46271 0.90463 0.0
C147 C 0.91547 0.4922 0.85663 0.0
C148 C 0.9492 0.49124 0.85928 0.0
C149 C 0.92913 0.46287 0.90758 0.0
C150 C 0.95598 0.47696 0.88517 0.0
C151 C 0.9777 0.50496 0.83539 0.0
C152 C 0.14942 0.57992 0.83398 0.0
C153 C 0.15151 0.55635 0.85515 0.0
C154 C 0.11432 0.57358 0.82368 0.0
C155 C 0.08088 0.54332 0.83419 0.0
C156 C 0.11791 0.52703 0.86631 0.0
C157 C 0.08312 0.52058 0.85593 0.0
C158 C 0.04302 0.53374 0.82302 0.0
C159 C 0.10407 0.52896 0.74038 0.0
C160 C 0.10713 0.55458 0.71892 0.0
C161 C 0.08126 0.52213 0.76514 0.0
C162 C 0.06132 0.54094 0.76886 0.0
C163 C 0.08784 0.57402 0.72312 0.0
C164 C 0.06482 0.56697 0.74778 0.0
C165 C 0.03354 0.53058 0.79274 0.0
H166 H 0.87024 0.37819 0.80562 0.0
H167 H 0.9292 0.42816 0.82482 0.0
H168 H 0.865 0.45215 0.74175 0.0
H169 H 0.92435 0.50279 0.76154 0.0
H170 H 0.86225 0.47805 0.87599 0.0
H171 H 0.90993 0.50396 0.83725 0.0
H172 H 0.9354 0.45229 0.92733 0.0
H173 H 0.98187 0.47614 0.88793 0.0
H174 H 0.17486 0.60286 0.82503 0.0
H175 H 0.11337 0.59212 0.80748 0.0
H176 H 0.11842 0.50895 0.8832 0.0
H177 H 0.05781 0.49717 0.86459 0.0
H178 H 0.11879 0.51373 0.73774 0.0
H179 H 0.0783 0.50141 0.78093 0.0
H180 H 0.08933 0.59356 0.70674 0.0
H181 H 0.04911 0.58128 0.75012 0.0
N182 N -0.00353 0.51246 0.78498 0.0
N183 N 0.0147 0.5217 0.84307 0.0
C184 C 0.4767 0.88518 0.96079 0.0
C185 C 0.44513 0.86504 0.94254 0.0
C186 C 0.4867 0.9206 0.96962 0.0
C187 C 0.46535 0.93651 0.96031 0.0
C188 C 0.42415 0.88126 0.93276 0.0
C189 C 0.43452 0.91703 0.94132 0.0
C190 C 0.47594 0.97372 0.97027 0.0
C191 C 0.42083 0.89657 0.04574 0.0
C192 C 0.4441 0.90338 0.07062 0.0
C193 C 0.43171 0.9225 0.02308 0.0
C194 C 0.46651 0.95541 0.02448 0.0
C195 C 0.47847 0.93678 0.07228 0.0
C196 C 0.48953 0.96248 0.04945 0.0
C197 C 0.47904 0.98298 0.00043 0.0
C198 C 0.55228 0.14986 -0.00481 0.0
C199 C 0.57755 0.15742 0.01885 0.0
C200 C 0.52912 0.1138 0.98546 0.0
C201 C 0.53164 0.08477 -0.0014 0.0
C202 C 0.57804 0.12794 0.03317 0.0
C203 C 0.55556 0.09214 0.02306 0.0
C204 C 0.50993 0.04655 0.98757 0.0
C205 C 0.57858 0.10966 0.90733 0.0
C206 C 0.55585 0.11044 0.88431 0.0
C207 C 0.56216 0.08671 0.93171 0.0
C208 C 0.5228 0.06417 0.93336 0.0
C209 C 0.51642 0.08843 0.88636 0.0
C210 C 0.50005 0.06515 0.91057 0.0
C211 C 0.50561 0.03706 0.95732 0.0
H212 H 0.49313 0.87318 0.96883 0.0
H213 H 0.51098 0.93554 0.98392 0.0
H214 H 0.39981 0.86627 0.91855 0.0
H215 H 0.41803 0.92915 0.93372 0.0
H216 H 0.39425 0.87109 0.04364 0.0
H217 H 0.4128 0.91683 0.00454 0.0
H218 H 0.49669 0.94336 0.0914 0.0
H219 H 0.51632 0.98783 0.05124 0.0
H220 H 0.55104 0.17181 0.9836 0.0
H221 H 0.50968 0.10883 0.96744 0.0
H222 H 0.59619 0.13249 0.05205 0.0
H223 H 0.55761 0.07024 0.03404 0.0
H224 H 0.60904 0.12643 0.90626 0.0
H225 H 0.58019 0.08581 0.94889 0.0
H226 H 0.49834 0.0882 0.86872 0.0
H227 H 0.46966 0.04754 0.91134 0.0
N228 N 0.48882 0.001 0.94983 0.0
N229 N 0.49618 0.01902 0.00787 0.0
C230 C 0.47251 0.60669 0.19588 0.0
C231 C 0.43837 0.59379 0.21112 0.0
C232 C 0.48407 0.58233 0.18674 0.0
C233 C 0.46176 0.54465 0.1927 0.0
C234 C 0.41636 0.5561 0.21768 0.0
C235 C 0.42829 0.53167 0.20883 0.0
C236 C 0.47437 0.51957 0.18206 0.0
C237 C 0.42307 0.54555 0.10486 0.0
C238 C 0.44785 0.56432 0.08141 0.0
C239 C 0.43397 0.53042 0.12775 0.0
C240 C 0.4702 0.53442 0.12803 0.0
C241 C 0.48386 0.56773 0.08154 0.0
C242 C 0.49488 0.553 0.10458 0.0
C243 C 0.4823 0.51828 0.15192 0.0
C244 C 0.56464 0.43759 0.13744 0.0
C245 C 0.60069 0.46696 0.13007 0.0
C246 C 0.5376 0.44442 0.15011 0.0
C247 C 0.54626 0.48062 0.15527 0.0
C248 C 0.60938 0.50306 0.13651 0.0
C249 C 0.58224 0.5098 0.14854 0.0
C250 C 0.51741 0.48918 0.16493 0.0
C251 C 0.57517 0.48403 0.24895 0.0
C252 C 0.55053 0.45584 0.2681 0.0
C253 C 0.56115 0.49363 0.22447 0.0
C254 C 0.52228 0.475 0.21851 0.0
C255 C 0.51167 0.43662 0.26172 0.0
C256 C 0.49762 0.44639 0.23722 0.0
C257 C 0.50711 0.48793 0.1947 0.0
H258 H 0.48977 0.63551 0.19025 0.0
H259 H 0.51032 0.59288 0.17469 0.0
H260 H 0.38997 0.5456 0.2295 0.0
H261 H 0.41102 0.50267 0.21385 0.0
H262 H 0.3952 0.54252 0.10559 0.0
H263 H 0.41384 0.5152 0.14499 0.0
H264 H 0.5034 0.58123 0.06356 0.0
H265 H 0.52286 0.55621 0.10405 0.0
H266 H 0.55684 0.40948 0.13253 0.0
H267 H 0.50968 0.42167 0.1549 0.0
H268 H 0.63708 0.52628 0.13196 0.0
H269 H 0.58921 0.53794 0.15242 0.0
H270 H 0.60526 0.49919 0.25326 0.0
H271 H 0.58056 0.51655 0.21087 0.0
H272 H 0.49202 0.41507 0.2763 0.0
H273 H 0.46746 0.4321 0.23318 0.0
N274 N 0.4863 0.50364 0.20232 0.0
N275 N 0.5042 0.50374 0.14461 0.0
C276 C 0.71894 0.43255 0.41057 0.0
O277 O 0.72027 0.46169 0.41973 0.0
Cd278 Cd 0.66646 0.46432 0.43707 0.0
O279 O 0.68811 0.40199 0.41115 0.0
Cd280 Cd 0.62203 0.37673 0.42676 0.0
C281 C 0.60915 0.42891 0.37593 0.0
O282 O 0.63436 0.41408 0.47048 0.0
O283 O 0.57573 0.38101 0.45801 0.0
O284 O 0.62474 0.32556 0.44887 0.0
C285 C 0.60007 0.40333 0.47611 0.0
O286 O 0.62926 0.4561 0.39272 0.0
C287 C 0.59808 0.30089 0.43361 0.0
O288 O 0.60306 0.39684 0.38232 0.0
O289 O 0.58235 0.3115 0.41483 0.0
C290 C 0.2885 0.56402 0.57657 0.0
O291 O 0.25981 0.53456 0.56788 0.0
Cd292 Cd 0.20366 0.53216 0.54948 0.0
O293 O 0.28938 0.59464 0.57428 0.0
Cd294 Cd 0.24883 0.61845 0.55554 0.0
C295 C 0.18604 0.57113 0.60932 0.0
O296 O 0.22109 0.57876 0.51234 0.0
O297 O 0.19553 0.6105 0.52592 0.0
O298 O 0.30628 0.66937 0.53503 0.0
C299 C 0.19731 0.58911 0.5072 0.0
O300 O 0.17647 0.54275 0.59359 0.0
C301 C 0.30081 0.69437 0.54531 0.0
O302 O 0.21294 0.60244 0.60139 0.0
O303 O 0.27131 0.68404 0.56075 0.0
C304 C 0.72586 0.28571 0.73078 0.0
O305 O 0.72555 0.25637 0.72365 0.0
Cd306 Cd 0.66849 0.20077 0.71155 0.0
O307 O 0.69538 0.28688 0.73112 0.0
Cd308 Cd 0.62752 0.2479 0.72059 0.0
C309 C 0.6181 0.18876 0.77524 0.0
O310 O 0.6352 0.21813 0.67723 0.0
O311 O 0.57804 0.19786 0.69208 0.0
O312 O 0.6347 0.3054 0.70222 0.0
C313 C 0.60016 0.19658 0.67325 0.0
O314 O 0.63583 0.17815 0.75864 0.0
C315 C 0.60538 0.30189 0.71473 0.0
O316 O 0.61253 0.21474 0.76729 0.0
O317 O 0.58603 0.27295 0.72994 0.0
C318 C 0.29088 0.57641 0.90483 0.0
O319 O 0.29203 0.54875 0.91501 0.0
Cd320 Cd 0.34658 0.55238 0.93875 0.0
O321 O 0.31949 0.60851 0.90676 0.0
Cd322 Cd 0.38459 0.63902 0.92536 0.0
C323 C 0.40712 0.58877 0.88036 0.0
O324 O 0.37049 0.60401 0.97111 0.0
O325 O 0.42946 0.64136 0.96231 0.0
O326 O 0.37233 0.68843 0.93649 0.0
C327 C 0.4045 0.61831 0.97962 0.0
O328 O 0.39004 0.56231 0.89853 0.0
C329 C 0.40299 0.71372 0.92562 0.0
O330 O 0.40715 0.61885 0.88364 0.0
O331 O 0.42521 0.70417 0.91444 0.0
C332 C 0.71371 0.44476 0.07298 0.0
O333 O 0.74262 0.47225 0.06199 0.0
Cd334 Cd 0.79519 0.46904 0.04223 0.0
O335 O 0.7101 0.41289 0.07236 0.0
Cd336 Cd 0.74363 0.38255 0.05315 0.0
C337 C 0.81336 0.4294 0.10218 0.0
O338 O 0.76873 0.41908 0.00838 0.0
O339 O 0.79065 0.38341 0.01977 0.0
O340 O 0.68162 0.33407 0.03767 0.0
C341 C 0.78949 0.40582 0.00159 0.0
O342 O 0.82431 0.45679 0.0848 0.0
C343 C 0.68608 0.30806 0.04723 0.0
O344 O 0.78315 0.39924 0.09709 0.0
O345 O 0.71708 0.31685 0.06016 0.0
C346 C 0.27674 0.72386 0.23168 0.0
O347 O 0.27584 0.75026 0.21869 0.0
Cd348 Cd 0.33196 0.8044 0.20319 0.0
O349 O 0.30763 0.72377 0.2348 0.0
Cd350 Cd 0.37479 0.75889 0.22136 0.0
C351 C 0.38253 0.82416 0.2686 0.0
O352 O 0.36454 0.78101 0.17514 0.0
O353 O 0.42292 0.80335 0.18737 0.0
O354 O 0.3647 0.69851 0.20994 0.0
C355 C 0.39896 0.80203 0.16884 0.0
O356 O 0.36332 0.83114 0.25017 0.0
C357 C 0.39377 0.70263 0.22352 0.0
O358 O 0.39047 0.799 0.26371 0.0
O359 O 0.41446 0.73338 0.23606 0.0
C360 C 0.20957 0.64048 0.27647 0.0
C361 C 0.17436 0.63369 0.26578 0.0
H362 H 0.26965 0.67437 0.27397 0.0
C363 C 0.1733 0.65646 0.24336 0.0
H364 H 0.21142 0.62376 0.29393 0.0
C365 C 0.20653 0.68586 0.23243 0.0
C366 C 0.24163 0.69273 0.24323 0.0
H367 H 0.14673 0.65147 0.23403 0.0
H368 H 0.20472 0.70295 0.21526 0.0
C369 C 0.2429 0.66959 0.26516 0.0
C370 C 0.5849 0.21318 0.46795 0.0
C371 C 0.56107 0.1866 0.44739 0.0
H372 H 0.61535 0.27005 0.47961 0.0
C373 C 0.55012 0.19817 0.42187 0.0
H374 H 0.59336 0.20529 0.48811 0.0
C375 C 0.56211 0.23531 0.41733 0.0
C376 C 0.58574 0.26169 0.438 0.0
H377 H 0.53235 0.17856 0.40529 0.0
H378 H 0.55303 0.24336 0.39758 0.0
C379 C 0.59729 0.25032 0.4632 0.0
C380 C 0.34545 0.52683 0.61375 0.0
C381 C 0.37905 0.55919 0.62092 0.0
H382 H 0.29083 0.50295 0.59384 0.0
C383 C 0.38327 0.59325 0.61259 0.0
H384 H 0.34173 0.50015 0.61943 0.0
C385 C 0.35401 0.59491 0.59787 0.0
C386 C 0.32024 0.56249 0.59091 0.0
H387 H 0.40893 0.61859 0.61784 0.0
H388 H 0.35782 0.62159 0.59207 0.0
C389 C 0.31644 0.52844 0.59882 0.0
C390 C 0.82755 0.34665 0.75398 0.0
C391 C 0.82875 0.38007 0.75958 0.0
H392 H 0.79425 0.29072 0.74029 0.0
C393 C 0.79646 0.38284 0.75426 0.0
H394 H 0.85227 0.34397 0.75754 0.0
C395 C 0.76313 0.3523 0.74447 0.0
C396 C 0.76164 0.31855 0.73956 0.0
H397 H 0.79666 0.40828 0.75853 0.0
H398 H 0.73841 0.35504 0.74112 0.0
C399 C 0.79438 0.31623 0.74398 0.0
C400 C 0.46018 0.81741 0.92534 0.0
C401 C 0.43342 0.82664 0.93503 0.0
H402 H 0.47137 0.77431 0.91438 0.0
C403 C 0.39601 0.79865 0.93967 0.0
H404 H 0.48916 0.8386 0.92143 0.0
C405 C 0.38589 0.7619 0.93591 0.0
C406 C 0.41293 0.75257 0.92714 0.0
H407 H 0.37495 0.80509 0.94736 0.0
H408 H 0.35707 0.74078 0.94046 0.0
C409 C 0.44997 0.78069 0.92125 0.0
C410 C 0.65299 0.48542 0.09344 0.0
C411 C 0.62895 0.46046 0.11493 0.0
H412 H 0.69877 0.50021 0.06357 0.0
C413 C 0.63245 0.42967 0.12187 0.0
H414 H 0.65047 0.50891 0.08689 0.0
C415 C 0.65962 0.42424 0.10787 0.0
C416 C 0.68417 0.44977 0.08699 0.0
H417 H 0.61475 0.41011 0.13852 0.0
H418 H 0.66194 0.40047 0.11389 0.0
C419 C 0.68055 0.48035 0.07987 0.0
C420 C 0.38604 0.78164 0.51809 0.0
C421 C 0.37466 0.80767 0.52271 0.0
H422 H 0.3714 0.72519 0.52146 0.0
C423 C 0.33953 0.79649 0.53592 0.0
H424 H 0.41292 0.78956 0.50781 0.0
C425 C 0.31595 0.75982 0.54399 0.0
C426 C 0.32683 0.73354 0.53862 0.0
H427 H 0.33029 0.81615 0.53995 0.0
H428 H 0.28884 0.75193 0.55384 0.0
C429 C 0.36222 0.74484 0.52579 0.0
C430 C 0.54651 0.34822 0.7139 0.0
C431 C 0.57264 0.38346 0.70351 0.0
H432 H 0.5366 0.2948 0.72602 0.0
C433 C 0.60979 0.39202 0.69754 0.0
H434 H 0.51773 0.34112 0.71875 0.0
C435 C 0.62044 0.36546 0.70125 0.0
C436 C 0.59427 0.3301 0.71148 0.0
H437 H 0.63032 0.41897 0.68931 0.0
H438 H 0.64916 0.37261 0.69609 0.0
C439 C 0.55733 0.32184 0.71812 0.0
C440 C 0.19303 0.53152 0.8714 0.0
C441 C 0.18829 0.56195 0.86598 0.0
H442 H 0.22893 0.51215 0.88804 0.0
C443 C 0.21823 0.59735 0.87229 0.0
H444 H 0.1708 0.50392 0.86619 0.0
C445 C 0.25179 0.60209 0.88451 0.0
C446 C 0.25599 0.57151 0.89081 0.0
H447 H 0.21535 0.62131 0.86861 0.0
H448 H 0.27412 0.62969 0.88961 0.0
C449 C 0.2264 0.53622 0.88384 0.0
C450 C 0.59431 0.22321 0.02651 0.0
C451 C 0.60452 0.19586 0.02779 0.0
H452 H 0.61219 0.28027 0.03168 0.0
C453 C 0.64136 0.20573 0.03683 0.0
H454 H 0.56604 0.21655 0.02016 0.0
C455 C 0.66739 0.24198 0.04412 0.0
C456 C 0.65745 0.26935 0.042 0.0
H457 H 0.6506 0.18568 0.03749 0.0
H458 H 0.69571 0.24873 0.05046 0.0
C459 C 0.62062 0.25966 0.03333 0.0
C460 C 0.45003 0.65408 0.23069 0.0
C461 C 0.42512 0.61968 0.21826 0.0
H462 H 0.45949 0.70732 0.24238 0.0
C463 C 0.38876 0.61171 0.20984 0.0
H464 H 0.47816 0.66073 0.23754 0.0
C465 C 0.37819 0.63842 0.21235 0.0
C466 C 0.40369 0.67341 0.22358 0.0
H467 H 0.36918 0.58549 0.19997 0.0
H468 H 0.35039 0.63195 0.20476 0.0
C469 C 0.43934 0.68067 0.23348 0.0
C470 C 0.78445 0.40445 0.37509 0.0
C471 C 0.81637 0.43881 0.36948 0.0
H472 H 0.72831 0.37544 0.39245 0.0
C473 C 0.81685 0.4708 0.379 0.0
H474 H 0.78348 0.37942 0.36797 0.0
C475 C 0.78559 0.46864 0.39306 0.0
C476 C 0.75303 0.43441 0.39778 0.0
H477 H 0.84143 0.49763 0.3754 0.0
H478 H 0.78672 0.49392 0.39965 0.0
C479 C 0.75293 0.40226 0.389 0.0
C480 C 0.14749 0.53736 0.43767 0.0
C481 C 0.12201 0.55005 0.43262 0.0
H482 H 0.19154 0.53996 0.46514 0.0
C483 C 0.1214 0.57541 0.45239 0.0
H484 H 0.14884 0.51807 0.42266 0.0
C485 C 0.14585 0.588 0.47657 0.0
C486 C 0.17151 0.57554 0.48154 0.0
H487 H 0.10172 0.5853 0.44934 0.0
H488 H 0.1446 0.60753 0.49138 0.0
C489 C 0.17208 0.55006 0.46188 0.0
C490 C 0.59709 0.14109 0.60667 0.0
C491 C 0.55808 0.11994 0.60139 0.0
H492 H 0.64107 0.18223 0.63344 0.0
C493 C 0.53306 0.12407 0.61997 0.0
H494 H 0.617 0.13868 0.59249 0.0
C495 C 0.54678 0.14892 0.64336 0.0
C496 C 0.58579 0.1703 0.64852 0.0
H497 H 0.50283 0.10783 0.61658 0.0
H498 H 0.52677 0.15144 0.65733 0.0
C499 C 0.61084 0.16615 0.62997 0.0
C500 C 0.4413 0.5938 0.80217 0.0
C501 C 0.45248 0.56711 0.80274 0.0
H502 H 0.41861 0.62195 0.82646 0.0
C503 C 0.45125 0.54984 0.82974 0.0
H504 H 0.44147 0.60741 0.78177 0.0
C505 C 0.43732 0.55756 0.85509 0.0
C506 C 0.42511 0.58335 0.85424 0.0
H507 H 0.46068 0.52999 0.8313 0.0
H508 H 0.43581 0.54308 0.87535 0.0
C509 C 0.42806 0.60206 0.82775 0.0
C510 C 0.84562 0.46419 0.93665 0.0
C511 C 0.86615 0.44703 0.92842 0.0
H512 H 0.80509 0.46449 0.96621 0.0
C513 C 0.85982 0.41519 0.94361 0.0
H514 H 0.8501 0.48896 0.92562 0.0
C515 C 0.83445 0.40149 0.96708 0.0
C516 C 0.81458 0.41911 0.97569 0.0
H517 H 0.87455 0.40083 0.93742 0.0
H518 H 0.83059 0.37721 0.9786 0.0
C519 C 0.81997 0.45027 0.95999 0.0
C520 C 0.39431 0.85626 0.10387 0.0
C521 C 0.43231 0.87619 0.09506 0.0
H522 H 0.35399 0.81705 0.13395 0.0
C523 C 0.45907 0.8705 0.11021 0.0
H524 H 0.37303 0.86034 0.09304 0.0
C525 C 0.44821 0.84612 0.13403 0.0
C526 C 0.41032 0.8266 0.14294 0.0
H527 H 0.48846 0.88485 0.10367 0.0
H528 H 0.4695 0.84259 0.14547 0.0
C529 C 0.3834 0.83157 0.12744 0.0
C530 C 0.55363 0.41223 0.30468 0.0
C531 C 0.56523 0.44836 0.29563 0.0
H532 H 0.55862 0.37759 0.33712 0.0
C533 C 0.59085 0.47776 0.31329 0.0
H534 H 0.53396 0.38907 0.2914 0.0
C535 C 0.60477 0.47129 0.33937 0.0
C536 C 0.59358 0.43522 0.3484 0.0
H537 H 0.59982 0.50589 0.30712 0.0
H538 H 0.62452 0.4947 0.35238 0.0
C539 C 0.56784 0.40571 0.33077 0.0
C540 C 0.43685 0.8673 0.33882 0.0
C541 C 0.41648 0.88312 0.35058 0.0
H542 H 0.44198 0.83612 0.3037 0.0
C543 C 0.38479 0.87911 0.33503 0.0
H544 H 0.46181 0.87035 0.34981 0.0
C545 C 0.37419 0.86046 0.30819 0.0
C546 C 0.39451 0.84466 0.29658 0.0
H547 H 0.36785 0.89013 0.34366 0.0
H548 H 0.34963 0.85785 0.2968 0.0
C549 C 0.42574 0.84795 0.31224 0.0
C550 C 0.54138 0.41571 0.5342 0.0
C551 C 0.56874 0.44722 0.5491 0.0
H552 H 0.52984 0.37719 0.49937 0.0
C553 C 0.60652 0.46399 0.53975 0.0
H554 H 0.51214 0.40167 0.54113 0.0
C555 C 0.61672 0.44948 0.51621 0.0
C556 C 0.5893 0.41818 0.50128 0.0
H557 H 0.62823 0.48863 0.55035 0.0
H558 H 0.64603 0.46311 0.50947 0.0
C559 C 0.55152 0.40149 0.51041 0.0
C560 C 0.1528 0.59436 0.6798 0.0
C561 C 0.12829 0.55921 0.6913 0.0
H562 H 0.19054 0.6258 0.64491 0.0
C563 C 0.12299 0.52818 0.6757 0.0
H564 H 0.15746 0.61874 0.69147 0.0
C565 C 0.14159 0.53215 0.64904 0.0
C566 C 0.16618 0.56726 0.63748 0.0
H567 H 0.10384 0.50075 0.68384 0.0
H568 H 0.13672 0.5076 0.63755 0.0
C569 C 0.17176 0.59837 0.65321 0.0
C570 C 0.60197 0.12958 0.84285 0.0
C571 C 0.57322 0.13231 0.85734 0.0
H572 H 0.6385 0.14505 0.80542 0.0
C573 C 0.56007 0.15464 0.84518 0.0
H574 H 0.61233 0.11224 0.85165 0.0
C575 C 0.57523 0.17367 0.81881 0.0
C576 C 0.60336 0.17021 0.8039 0.0
H577 H 0.53801 0.15727 0.85604 0.0
H578 H 0.56433 0.19045 0.80979 0.0
C579 C 0.61673 0.14815 0.8163 0.0
C580 C 0.46212 0.61258 0.04272 0.0
C581 C 0.43601 0.57937 0.05642 0.0
H582 H 0.47263 0.65086 0.00769 0.0
C583 C 0.39887 0.56006 0.04539 0.0
H584 H 0.49072 0.62859 0.05098 0.0
C585 C 0.38835 0.57325 0.02091 0.0
C586 C 0.41484 0.60578 0.00672 0.0
H587 H 0.37814 0.53415 0.05508 0.0
H588 H 0.35974 0.55737 0.01259 0.0
C589 C 0.45171 0.6255 0.01802 0.0
C590 C 0.89414 0.4663 0.15657 0.0
C591 C 0.87664 0.44565 0.18212 0.0
H592 H 0.88785 0.47744 0.11146 0.0
C593 C 0.8385 0.41786 0.18051 0.0
H594 H 0.92374 0.48716 0.15665 0.0
C595 C 0.81815 0.41166 0.15421 0.0
C596 C 0.8354 0.43349 0.12918 0.0
H597 H 0.82401 0.40161 0.19977 0.0
H598 H 0.78859 0.39066 0.1538 0.0
C599 C 0.87367 0.46056 0.13054 0.0
loop_
_geom_bond_atom_site_label_1
_geom_bond_atom_site_label_2
_geom_bond_distance
_geom_bond_site_symmetry_2
_ccdc_geom_bond_type
C0 C1 1.384 . S
C0 C2 1.384 . S
C0 H28 0.931 . S
C1 C0 1.384 . S
C1 C4 1.382 . S
C2 C0 1.384 . S
C2 C3 1.381 . S
C2 H29 0.930 . S
C3 C2 1.381 . S
C3 C5 1.381 . S
C3 C6 1.487 . S
C4 C1 1.382 . S
C4 C5 1.387 . S
C4 H30 0.930 . S
C5 C3 1.381 . S
C5 C4 1.387 . S
C5 H31 0.931 . S
C6 C3 1.487 . S
C6 C13 1.399 . S
C6 N44 1.343 . S
C7 C8 1.384 . S
C7 C9 1.384 . S
C7 H32 0.931 . S
C8 C7 1.384 . S
C8 C11 1.382 . S
C9 C7 1.384 . S
C9 C10 1.381 . S
C9 H33 0.930 . S
C10 C9 1.381 . S
C10 C12 1.381 . S
C10 C13 1.487 . S
C11 C8 1.382 . S
C11 C12 1.387 . S
C11 H34 0.930 . S
C12 C10 1.381 . S
C12 C11 1.387 . S
C12 H35 0.931 . S
C13 C6 1.399 . S
C13 C10 1.487 . S
C13 N45 1.343 1_655 S
C14 C15 1.384 . S
C14 C16 1.384 . S
C14 H36 0.931 . S
C15 C14 1.384 . S
C15 C18 1.382 . S
C16 C14 1.384 . S
C16 C17 1.381 . S
C16 H37 0.930 . S
C17 C16 1.381 . S
C17 C19 1.381 . S
C17 C20 1.487 . S
C18 C15 1.382 . S
C18 C19 1.387 . S
C18 H38 0.930 . S
C19 C17 1.381 . S
C19 C18 1.387 . S
C19 H39 0.931 . S
C20 C17 1.487 . S
C20 C27 1.399 . S
C20 N45 1.343 . S
C21 C22 1.384 . S
C21 C23 1.384 . S
C21 H40 0.931 . S
C22 C21 1.384 . S
C22 C25 1.382 . S
C23 C21 1.384 . S
C23 C24 1.381 . S
C23 H41 0.930 . S
C24 C23 1.381 . S
C24 C26 1.381 . S
C24 C27 1.487 . S
C25 C22 1.382 . S
C25 C26 1.387 . S
C25 H42 0.930 . S
C26 C24 1.381 . S
C26 C25 1.387 . S
C26 H43 0.931 . S
C27 C20 1.399 . S
C27 C24 1.487 . S
C27 N44 1.343 1_455 S
H28 C0 0.931 . S
H29 C2 0.930 . S
H30 C4 0.930 . S
H31 C5 0.931 . S
H32 C7 0.931 . S
H33 C9 0.930 . S
H34 C11 0.930 . S
H35 C12 0.931 . S
H36 C14 0.931 . S
H37 C16 0.930 . S
H38 C18 0.930 . S
H39 C19 0.931 . S
H40 C21 0.931 . S
H41 C23 0.930 . S
H42 C25 0.930 . S
H43 C26 0.931 . S
N44 C6 1.343 . S
N44 C27 1.343 1_655 S
N45 C13 1.343 1_455 S
N45 C20 1.343 . S
C46 C47 1.384 . S
C46 C48 1.384 . S
C46 H74 0.931 . S
C47 C46 1.384 . S
C47 C50 1.382 . S
C48 C46 1.384 . S
C48 C49 1.381 . S
C48 H75 0.930 . S
C49 C48 1.381 . S
C49 C51 1.381 . S
C49 C52 1.487 . S
C50 C47 1.382 . S
C50 C51 1.387 . S
C50 H76 0.930 . S
C51 C49 1.381 . S
C51 C50 1.387 . S
C51 H77 0.931 . S
C52 C49 1.487 . S
C52 C59 1.399 . S
C52 N90 1.343 1_565 S
C53 C54 1.384 . S
C53 C55 1.384 . S
C53 H78 0.931 . S
C54 C53 1.384 . S
C54 C57 1.382 . S
C55 C53 1.384 . S
C55 C56 1.381 . S
C55 H79 0.930 . S
C56 C55 1.381 . S
C56 C58 1.381 . S
C56 C59 1.487 . S
C57 C54 1.382 . S
C57 C58 1.387 . S
C57 H80 0.930 . S
C58 C56 1.381 . S
C58 C57 1.387 . S
C58 H81 0.931 . S
C59 C52 1.399 . S
C59 C56 1.487 . S
C59 N91 1.343 1_565 S
C60 C61 1.384 . S
C60 C62 1.384 . S
C60 H82 0.931 . S
C61 C60 1.384 . S
C61 C64 1.382 . S
C62 C60 1.384 . S
C62 C63 1.381 . S
C62 H83 0.930 . S
C63 C62 1.381 . S
C63 C65 1.381 . S
C63 C66 1.487 . S
C64 C61 1.382 . S
C64 C65 1.387 . S
C64 H84 0.930 . S
C65 C63 1.381 . S
C65 C64 1.387 . S
C65 H85 0.931 . S
C66 C63 1.487 . S
C66 C73 1.399 . S
C66 N91 1.343 . S
C67 C68 1.384 . S
C67 C69 1.384 . S
C67 H86 0.931 . S
C68 C67 1.384 . S
C68 C71 1.382 . S
C69 C67 1.384 . S
C69 C70 1.381 . S
C69 H87 0.930 . S
C70 C69 1.381 . S
C70 C72 1.381 . S
C70 C73 1.487 . S
C71 C68 1.382 . S
C71 C72 1.387 . S
C71 H88 0.930 . S
C72 C70 1.381 . S
C72 C71 1.387 . S
C72 H89 0.931 . S
C73 C66 1.399 . S
C73 C70 1.487 . S
C73 N90 1.343 . S
H74 C46 0.931 . S
H75 C48 0.930 . S
H76 C50 0.930 . S
H77 C51 0.931 . S
H78 C53 0.931 . S
H79 C55 0.930 . S
H80 C57 0.930 . S
H81 C58 0.931 . S
H82 C60 0.931 . S
H83 C62 0.930 . S
H84 C64 0.930 . S
H85 C65 0.931 . S
H86 C67 0.931 . S
H87 C69 0.930 . S
H88 C71 0.930 . S
H89 C72 0.931 . S
N90 C52 1.343 1_545 S
N90 C73 1.343 . S
N91 C59 1.343 1_545 S
N91 C66 1.343 . S
C92 C93 1.384 . S
C92 C94 1.384 . S
C92 H120 0.931 . S
C93 C92 1.384 . S
C93 C96 1.382 . S
C94 C92 1.384 . S
C94 C95 1.381 . S
C94 H121 0.930 . S
C95 C94 1.381 . S
C95 C97 1.381 . S
C95 C98 1.487 . S
C96 C93 1.382 . S
C96 C97 1.387 . S
C96 H122 0.930 . S
C97 C95 1.381 . S
C97 C96 1.387 . S
C97 H123 0.931 . S
C98 C95 1.487 . S
C98 C105 1.399 . S
C98 N136 1.343 . S
C99 C100 1.384 . S
C99 C101 1.384 . S
C99 H124 0.931 . S
C100 C99 1.384 . S
C100 C103 1.382 . S
C101 C99 1.384 . S
C101 C102 1.381 . S
C101 H125 0.930 . S
C102 C101 1.381 . S
C102 C104 1.381 . S
C102 C105 1.487 . S
C103 C100 1.382 . S
C103 C104 1.387 . S
C103 H126 0.930 . S
C104 C102 1.381 . S
C104 C103 1.387 . S
C104 H127 0.931 . S
C105 C98 1.399 . S
C105 C102 1.487 . S
C105 N137 1.343 . S
C106 C107 1.384 . S
C106 C108 1.384 . S
C106 H128 0.931 . S
C107 C106 1.384 . S
C107 C110 1.382 . S
C108 C106 1.384 . S
C108 C109 1.381 . S
C108 H129 0.930 . S
C109 C108 1.381 . S
C109 C111 1.381 . S
C109 C112 1.487 . S
C110 C107 1.382 . S
C110 C111 1.387 . S
C110 H130 0.930 . S
C111 C109 1.381 . S
C111 C110 1.387 . S
C111 H131 0.931 . S
C112 C109 1.487 . S
C112 C119 1.399 . S
C112 N137 1.343 . S
C113 C114 1.384 . S
C113 C115 1.384 . S
C113 H132 0.931 . S
C114 C113 1.384 . S
C114 C117 1.382 . S
C115 C113 1.384 . S
C115 C116 1.381 . S
C115 H133 0.930 . S
C116 C115 1.381 . S
C116 C118 1.381 . S
C116 C119 1.487 . S
C117 C114 1.382 . S
C117 C118 1.387 . S
C117 H134 0.930 . S
C118 C116 1.381 . S
C118 C117 1.387 . S
C118 H135 0.931 . S
C119 C112 1.399 . S
C119 C116 1.487 . S
C119 N136 1.343 . S
H120 C92 0.931 . S
H121 C94 0.930 . S
H122 C96 0.930 . S
H123 C97 0.931 . S
H124 C99 0.931 . S
H125 C101 0.930 . S
H126 C103 0.930 . S
H127 C104 0.931 . S
H128 C106 0.931 . S
H129 C108 0.930 . S
H130 C110 0.930 . S
H131 C111 0.931 . S
H132 C113 0.931 . S
H133 C115 0.930 . S
H134 C117 0.930 . S
H135 C118 0.931 . S
N136 C98 1.343 . S
N136 C119 1.343 . S
N137 C105 1.343 . S
N137 C112 1.343 . S
C138 C139 1.384 . S
C138 C140 1.384 . S
C138 H166 0.931 . S
C139 C138 1.384 . S
C139 C142 1.382 . S
C140 C138 1.384 . S
C140 C141 1.381 . S
C140 H167 0.930 . S
C141 C140 1.381 . S
C141 C143 1.381 . S
C141 C144 1.487 . S
C142 C139 1.382 . S
C142 C143 1.387 . S
C142 H168 0.930 . S
C143 C141 1.381 . S
C143 C142 1.387 . S
C143 H169 0.931 . S
C144 C141 1.487 . S
C144 C151 1.399 . S
C144 N182 1.343 . S
C145 C146 1.384 . S
C145 C147 1.384 . S
C145 H170 0.931 . S
C146 C145 1.384 . S
C146 C149 1.382 . S
C147 C145 1.384 . S
C147 C148 1.381 . S
C147 H171 0.930 . S
C148 C147 1.381 . S
C148 C150 1.381 . S
C148 C151 1.487 . S
C149 C146 1.382 . S
C149 C150 1.387 . S
C149 H172 0.930 . S
C150 C148 1.381 . S
C150 C149 1.387 . S
C150 H173 0.931 . S
C151 C144 1.399 . S
C151 C148 1.487 . S
C151 N183 1.343 1_655 S
C152 C153 1.384 . S
C152 C154 1.384 . S
C152 H174 0.931 . S
C153 C152 1.384 . S
C153 C156 1.382 . S
C154 C152 1.384 . S
C154 C155 1.381 . S
C154 H175 0.930 . S
C155 C154 1.381 . S
C155 C157 1.381 . S
C155 C158 1.487 . S
C156 C153 1.382 . S
C156 C157 1.387 . S
C156 H176 0.930 . S
C157 C155 1.381 . S
C157 C156 1.387 . S
C157 H177 0.931 . S
C158 C155 1.487 . S
C158 C165 1.399 . S
C158 N183 1.343 . S
C159 C160 1.384 . S
C159 C161 1.384 . S
C159 H178 0.931 . S
C160 C159 1.384 . S
C160 C163 1.382 . S
C161 C159 1.384 . S
C161 C162 1.381 . S
C161 H179 0.930 . S
C162 C161 1.381 . S
C162 C164 1.381 . S
C162 C165 1.487 . S
C163 C160 1.382 . S
C163 C164 1.387 . S
C163 H180 0.930 . S
C164 C162 1.381 . S
C164 C163 1.387 . S
C164 H181 0.931 . S
C165 C158 1.399 . S
C165 C162 1.487 . S
C165 N182 1.343 1_455 S
H166 C138 0.931 . S
H167 C140 0.930 . S
H168 C142 0.930 . S
H169 C143 0.931 . S
H170 C145 0.931 . S
H171 C147 0.930 . S
H172 C149 0.930 . S
H173 C150 0.931 . S
H174 C152 0.931 . S
H175 C154 0.930 . S
H176 C156 0.930 . S
H177 C157 0.931 . S
H178 C159 0.931 . S
H179 C161 0.930 . S
H180 C163 0.930 . S
H181 C164 0.931 . S
N182 C144 1.343 . S
N182 C165 1.343 1_655 S
N183 C151 1.343 1_455 S
N183 C158 1.343 . S
C184 C185 1.384 . S
C184 C186 1.384 . S
C184 H212 0.931 . S
C185 C184 1.384 . S
C185 C188 1.382 . S
C186 C184 1.384 . S
C186 C187 1.381 . S
C186 H213 0.930 1_556 S
C187 C186 1.381 . S
C187 C189 1.381 . S
C187 C190 1.487 . S
C188 C185 1.382 . S
C188 C189 1.387 . S
C188 H214 0.930 . S
C189 C187 1.381 . S
C189 C188 1.387 . S
C189 H215 0.931 . S
C190 C187 1.487 . S
C190 C197 1.399 1_556 S
C190 N228 1.343 . S
C191 C192 1.384 . S
C191 C193 1.384 . S
C191 H216 0.931 . S
C192 C191 1.384 . S
C192 C195 1.382 . S
C193 C191 1.384 . S
C193 C194 1.381 . S
C193 H217 0.930 . S
C194 C193 1.381 . S
C194 C196 1.381 . S
C194 C197 1.487 . S
C195 C192 1.382 . S
C195 C196 1.387 . S
C195 H218 0.930 . S
C196 C194 1.381 . S
C196 C195 1.387 . S
C196 H219 0.931 . S
C197 C190 1.399 1_554 S
C197 C194 1.487 . S
C197 N229 1.343 1_565 S
C198 C199 1.384 . S
C198 C200 1.377 1_554 S
C198 H220 0.931 . S
C199 C198 1.384 . S
C199 C202 1.382 . S
C200 C198 1.377 1_556 S
C200 C201 1.374 1_556 S
C200 H221 0.945 . S
C201 C200 1.374 1_554 S
C201 C203 1.381 . S
C201 C204 1.498 . S
C202 C199 1.382 . S
C202 C203 1.387 . S
C202 H222 0.930 . S
C203 C201 1.381 . S
C203 C202 1.387 . S
C203 H223 0.931 . S
C204 C201 1.498 . S
C204 C211 1.363 1_554 S
C204 N229 1.372 . S
C205 C206 1.384 . S
C205 C207 1.384 . S
C205 H224 0.931 . S
C206 C205 1.384 . S
C206 C209 1.382 . S
C207 C205 1.384 . S
C207 C208 1.381 . S
C207 H225 0.930 . S
C208 C207 1.381 . S
C208 C210 1.381 . S
C208 C211 1.487 . S
C209 C206 1.382 . S
C209 C210 1.387 . S
C209 H226 0.930 . S
C210 C208 1.381 . S
C210 C209 1.387 . S
C210 H227 0.931 . S
C211 C204 1.363 1_556 S
C211 C208 1.487 . S
C211 N228 1.343 1_545 S
H212 C184 0.931 . S
H213 C186 0.930 1_554 S
H214 C188 0.930 . S
H215 C189 0.931 . S
H216 C191 0.931 . S
H217 C193 0.930 . S
H218 C195 0.930 . S
H219 C196 0.931 . S
H220 C198 0.931 . S
H221 C200 0.945 . S
H222 C202 0.930 . S
H223 C203 0.931 . S
H224 C205 0.931 . S
H225 C207 0.930 . S
H226 C209 0.930 . S
H227 C210 0.931 . S
N228 C190 1.343 . S
N228 C211 1.343 1_565 S
N229 C197 1.343 1_545 S
N229 C204 1.372 . S
C230 C231 1.384 . S
C230 C232 1.384 . S
C230 H258 0.931 . S
C231 C230 1.384 . S
C231 C234 1.382 . S
C232 C230 1.384 . S
C232 C233 1.381 . S
C232 H259 0.930 . S
C233 C232 1.381 . S
C233 C235 1.381 . S
C233 C236 1.487 . S
C234 C231 1.382 . S
C234 C235 1.387 . S
C234 H260 0.930 . S
C235 C233 1.381 . S
C235 C234 1.387 . S
C235 H261 0.931 . S
C236 C233 1.487 . S
C236 C243 1.399 . S
C236 N274 1.343 . S
C237 C238 1.384 . S
C237 C239 1.384 . S
C237 H262 0.931 . S
C238 C237 1.384 . S
C238 C241 1.382 . S
C239 C237 1.384 . S
C239 C240 1.381 . S
C239 H263 0.930 . S
C240 C239 1.381 . S
C240 C242 1.381 . S
C240 C243 1.487 . S
C241 C238 1.382 . S
C241 C242 1.387 . S
C241 H264 0.930 . S
C242 C240 1.381 . S
C242 C241 1.387 . S
C242 H265 0.931 . S
C243 C236 1.399 . S
C243 C240 1.487 . S
C243 N275 1.343 . S
C244 C245 1.384 . S
C244 C246 1.384 . S
C244 H266 0.931 . S
C245 C244 1.384 . S
C245 C248 1.382 . S
C246 C244 1.384 . S
C246 C247 1.381 . S
C246 H267 0.930 . S
C247 C246 1.381 . S
C247 C249 1.381 . S
C247 C250 1.487 . S
C248 C245 1.382 . S
C248 C249 1.387 . S
C248 H268 0.930 . S
C249 C247 1.381 . S
C249 C248 1.387 . S
C249 H269 0.931 . S
C250 C247 1.487 . S
C250 C257 1.399 . S
C250 N275 1.343 . S
C251 C252 1.384 . S
C251 C253 1.384 . S
C251 H270 0.931 . S
C252 C251 1.384 . S
C252 C255 1.382 . S
C253 C251 1.384 . S
C253 C254 1.381 . S
C253 H271 0.930 . S
C254 C253 1.381 . S
C254 C256 1.381 . S
C254 C257 1.487 . S
C255 C252 1.382 . S
C255 C256 1.387 . S
C255 H272 0.930 . S
C256 C254 1.381 . S
C256 C255 1.387 . S
C256 H273 0.931 . S
C257 C250 1.399 . S
C257 C254 1.487 . S
C257 N274 1.343 . S
H258 C230 0.931 . S
H259 C232 0.930 . S
H260 C234 0.930 . S
H261 C235 0.931 . S
H262 C237 0.931 . S
H263 C239 0.930 . S
H264 C241 0.930 . S
H265 C242 0.931 . S
H266 C244 0.931 . S
H267 C246 0.930 . S
H268 C248 0.930 . S
H269 C249 0.931 . S
H270 C251 0.931 . S
H271 C253 0.930 . S
H272 C255 0.930 . S
H273 C256 0.931 . S
N274 C236 1.343 . S
N274 C257 1.343 . S
N275 C243 1.343 . S
N275 C250 1.343 . S
C276 O277 1.306 . S
C276 O279 1.160 . S
O277 C276 1.306 . S
O277 Cd278 2.228 . S
Cd278 O277 2.228 . S
Cd278 O282 2.273 . S
Cd278 O286 2.277 . S
O279 C276 1.160 . S
O279 Cd280 2.203 . S
Cd280 O279 2.203 . S
Cd280 O282 2.411 . S
Cd280 O283 2.333 . S
Cd280 O284 2.352 . S
Cd280 O288 2.277 . S
Cd280 O289 2.356 . S
C281 O286 1.209 . S
C281 O288 1.226 . S
O282 Cd278 2.273 . S
O282 Cd280 2.411 . S
O282 C285 1.320 . S
O283 Cd280 2.333 . S
O283 C285 1.214 . S
O284 Cd280 2.352 . S
O284 C287 1.258 . S
C285 O282 1.320 . S
C285 O283 1.214 . S
O286 Cd278 2.277 . S
O286 C281 1.209 . S
C287 O284 1.258 . S
C287 O289 1.282 . S
O288 Cd280 2.277 . S
O288 C281 1.226 . S
O289 Cd280 2.356 . S
O289 C287 1.282 . S
C290 O291 1.306 . S
C290 O293 1.160 . S
O291 C290 1.306 . S
O291 Cd292 2.228 . S
Cd292 O291 2.228 . S
Cd292 O296 2.273 . S
Cd292 O300 2.277 . S
O293 C290 1.160 . S
O293 Cd294 2.203 . S
Cd294 O293 2.203 . S
Cd294 O296 2.411 . S
Cd294 O297 2.333 . S
Cd294 O298 2.352 . S
Cd294 O302 2.277 . S
Cd294 O303 2.356 . S
C295 O300 1.209 . S
C295 O302 1.226 . S
O296 Cd292 2.273 . S
O296 Cd294 2.411 . S
O296 C299 1.320 . S
O297 Cd294 2.333 . S
O297 C299 1.214 . S
O298 Cd294 2.352 . S
O298 C301 1.258 . S
C299 O296 1.320 . S
C299 O297 1.214 . S
O300 Cd292 2.277 . S
O300 C295 1.209 . S
C301 O298 1.258 . S
C301 O303 1.282 . S
O302 Cd294 2.277 . S
O302 C295 1.226 . S
O303 Cd294 2.356 . S
O303 C301 1.282 . S
C304 O305 1.306 . S
C304 O307 1.160 . S
O305 C304 1.306 . S
O305 Cd306 2.228 . S
Cd306 O305 2.228 . S
Cd306 O310 2.273 . S
Cd306 O314 2.277 . S
O307 C304 1.160 . S
O307 Cd308 2.203 . S
Cd308 O307 2.203 . S
Cd308 O310 2.411 . S
Cd308 O311 2.333 . S
Cd308 O312 2.352 . S
Cd308 O316 2.277 . S
Cd308 O317 2.356 . S
C309 O314 1.209 . S
C309 O316 1.226 . S
O310 Cd306 2.273 . S
O310 Cd308 2.411 . S
O310 C313 1.320 . S
O311 Cd308 2.333 . S
O311 C313 1.214 . S
O312 Cd308 2.352 . S
O312 C315 1.258 . S
C313 O310 1.320 . S
C313 O311 1.214 . S
O314 Cd306 2.277 . S
O314 C309 1.209 . S
C315 O312 1.258 . S
C315 O317 1.282 . S
O316 Cd308 2.277 . S
O316 C309 1.226 . S
O317 Cd308 2.356 . S
O317 C315 1.282 . S
C318 O319 1.306 . S
C318 O321 1.160 . S
O319 C318 1.306 . S
O319 Cd320 2.228 . S
Cd320 O319 2.228 . S
Cd320 O324 2.273 . S
Cd320 O328 2.277 . S
O321 C318 1.160 . S
O321 Cd322 2.203 . S
Cd322 O321 2.203 . S
Cd322 O324 2.411 . S
Cd322 O325 2.333 . S
Cd322 O326 2.352 . S
Cd322 O330 2.277 . S
Cd322 O331 2.356 . S
C323 O328 1.209 . S
C323 O330 1.226 . S
O324 Cd320 2.273 . S
O324 Cd322 2.411 . S
O324 C327 1.320 . S
O325 Cd322 2.333 . S
O325 C327 1.214 . S
O326 Cd322 2.352 . S
O326 C329 1.258 . S
C327 O324 1.320 . S
C327 O325 1.214 . S
O328 Cd320 2.277 . S
O328 C323 1.209 . S
C329 O326 1.258 . S
C329 O331 1.282 . S
O330 Cd322 2.277 . S
O330 C323 1.226 . S
O331 Cd322 2.356 . S
O331 C329 1.282 . S
C332 O333 1.306 . S
C332 O335 1.160 . S
O333 C332 1.306 . S
O333 Cd334 2.228 . S
Cd334 O333 2.228 . S
Cd334 O338 2.273 . S
Cd334 O342 2.277 . S
O335 C332 1.160 . S
O335 Cd336 2.203 . S
Cd336 O335 2.203 . S
Cd336 O338 2.411 . S
Cd336 O339 2.333 . S
Cd336 O340 2.352 . S
Cd336 O344 2.277 . S
Cd336 O345 2.356 . S
C337 O342 1.209 . S
C337 O344 1.226 . S
O338 Cd334 2.273 . S
O338 Cd336 2.411 . S
O338 C341 1.320 . S
O339 Cd336 2.333 . S
O339 C341 1.214 . S
O340 Cd336 2.352 . S
O340 C343 1.258 . S
C341 O338 1.320 . S
C341 O339 1.214 . S
O342 Cd334 2.277 . S
O342 C337 1.209 . S
C343 O340 1.258 . S
C343 O345 1.282 . S
O344 Cd336 2.277 . S
O344 C337 1.226 . S
O345 Cd336 2.356 . S
O345 C343 1.282 . S
C346 O347 1.306 . S
C346 O349 1.160 . S
O347 C346 1.306 . S
O347 Cd348 2.228 . S
Cd348 O347 2.228 . S
Cd348 O352 2.273 . S
Cd348 O356 2.277 . S
O349 C346 1.160 . S
O349 Cd350 2.203 . S
Cd350 O349 2.203 . S
Cd350 O352 2.411 . S
Cd350 O353 2.333 . S
Cd350 O354 2.352 . S
Cd350 O358 2.277 . S
Cd350 O359 2.356 . S
C351 O356 1.209 . S
C351 O358 1.226 . S
O352 Cd348 2.273 . S
O352 Cd350 2.411 . S
O352 C355 1.320 . S
O353 Cd350 2.333 . S
O353 C355 1.214 . S
O354 Cd350 2.352 . S
O354 C357 1.258 . S
C355 O352 1.320 . S
C355 O353 1.214 . S
O356 Cd348 2.277 . S
O356 C351 1.209 . S
C357 O354 1.258 . S
C357 O359 1.282 . S
O358 Cd350 2.277 . S
O358 C351 1.226 . S
O359 Cd350 2.356 . S
O359 C357 1.282 . S
C360 C361 1.387 . S
C360 H364 0.950 . S
C360 C369 1.390 . S
C361 C360 1.387 . S
C361 C363 1.387 . S
H362 C369 0.950 . S
C363 C361 1.387 . S
C363 C365 1.390 . S
C363 H367 0.950 . S
H364 C360 0.950 . S
C365 C363 1.390 . S
C365 C366 1.387 . S
C365 H368 0.950 . S
C366 C365 1.387 . S
C366 C369 1.387 . S
H367 C363 0.950 . S
H368 C365 0.950 . S
C369 C360 1.390 . S
C369 H362 0.950 . S
C369 C366 1.387 . S
C370 C371 1.387 . S
C370 H374 0.950 . S
C370 C379 1.390 . S
C371 C370 1.387 . S
C371 C373 1.387 . S
H372 C379 0.950 . S
C373 C371 1.387 . S
C373 C375 1.390 . S
C373 H377 0.950 . S
H374 C370 0.950 . S
C375 C373 1.390 . S
C375 C376 1.387 . S
C375 H378 0.950 . S
C376 C375 1.387 . S
C376 C379 1.387 . S
H377 C373 0.950 . S
H378 C375 0.950 . S
C379 C370 1.390 . S
C379 H372 0.950 . S
C379 C376 1.387 . S
C380 C381 1.387 . S
C380 H384 0.950 . S
C380 C389 1.390 . S
C381 C380 1.387 . S
C381 C383 1.387 . S
H382 C389 0.950 . S
C383 C381 1.387 . S
C383 C385 1.390 . S
C383 H387 0.950 . S
H384 C380 0.950 . S
C385 C383 1.390 . S
C385 C386 1.387 . S
C385 H388 0.950 . S
C386 C385 1.387 . S
C386 C389 1.387 . S
H387 C383 0.950 . S
H388 C385 0.950 . S
C389 C380 1.390 . S
C389 H382 0.950 . S
C389 C386 1.387 . S
C390 C391 1.387 . S
C390 H394 0.950 . S
C390 C399 1.390 . S
C391 C390 1.387 . S
C391 C393 1.387 . S
H392 C399 0.950 . S
C393 C391 1.387 . S
C393 C395 1.390 . S
C393 H397 0.950 . S
H394 C390 0.950 . S
C395 C393 1.390 . S
C395 C396 1.387 . S
C395 H398 0.950 . S
C396 C395 1.387 . S
C396 C399 1.387 . S
H397 C393 0.950 . S
H398 C395 0.950 . S
C399 C390 1.390 . S
C399 H392 0.950 . S
C399 C396 1.387 . S
C400 C401 1.387 . S
C400 H404 0.950 . S
C400 C409 1.390 . S
C401 C400 1.387 . S
C401 C403 1.387 . S
H402 C409 0.950 . S
C403 C401 1.387 . S
C403 C405 1.390 . S
C403 H407 0.950 . S
H404 C400 0.950 . S
C405 C403 1.390 . S
C405 C406 1.387 . S
C405 H408 0.950 . S
C406 C405 1.387 . S
C406 C409 1.387 . S
H407 C403 0.950 . S
H408 C405 0.950 . S
C409 C400 1.390 . S
C409 H402 0.950 . S
C409 C406 1.387 . S
C410 C411 1.387 . S
C410 H414 0.950 . S
C410 C419 1.390 . S
C411 C410 1.387 . S
C411 C413 1.387 . S
H412 C419 0.950 . S
C413 C411 1.387 . S
C413 C415 1.390 . S
C413 H417 0.950 . S
H414 C410 0.950 . S
C415 C413 1.390 . S
C415 C416 1.387 . S
C415 H418 0.950 . S
C416 C415 1.387 . S
C416 C419 1.387 . S
H417 C413 0.950 . S
H418 C415 0.950 . S
C419 C410 1.390 . S
C419 H412 0.950 . S
C419 C416 1.387 . S
C420 C421 1.387 . S
C420 H424 0.950 . S
C420 C429 1.390 . S
C421 C420 1.387 . S
C421 C423 1.387 . S
H422 C429 0.950 . S
C423 C421 1.387 . S
C423 C425 1.390 . S
C423 H427 0.950 . S
H424 C420 0.950 . S
C425 C423 1.390 . S
C425 C426 1.387 . S
C425 H428 0.950 . S
C426 C425 1.387 . S
C426 C429 1.387 . S
H427 C423 0.950 . S
H428 C425 0.950 . S
C429 C420 1.390 . S
C429 H422 0.950 . S
C429 C426 1.387 . S
C430 C431 1.387 . S
C430 H434 0.950 . S
C430 C439 1.390 . S
C431 C430 1.387 . S
C431 C433 1.387 . S
H432 C439 0.950 . S
C433 C431 1.387 . S
C433 C435 1.390 . S
C433 H437 0.950 . S
H434 C430 0.950 . S
C435 C433 1.390 . S
C435 C436 1.387 . S
C435 H438 0.950 . S
C436 C435 1.387 . S
C436 C439 1.387 . S
H437 C433 0.950 . S
H438 C435 0.950 . S
C439 C430 1.390 . S
C439 H432 0.950 . S
C439 C436 1.387 . S
C440 C441 1.387 . S
C440 H444 0.950 . S
C440 C449 1.390 . S
C441 C440 1.387 . S
C441 C443 1.387 . S
H442 C449 0.950 . S
C443 C441 1.387 . S
C443 C445 1.390 . S
C443 H447 0.950 . S
H444 C440 0.950 . S
C445 C443 1.390 . S
C445 C446 1.387 . S
C445 H448 0.950 . S
C446 C445 1.387 . S
C446 C449 1.387 . S
H447 C443 0.950 . S
H448 C445 0.950 . S
C449 C440 1.390 . S
C449 H442 0.950 . S
C449 C446 1.387 . S
C450 C451 1.387 . S
C450 H454 0.950 . S
C450 C459 1.390 . S
C451 C450 1.387 . S
C451 C453 1.387 . S
H452 C459 0.950 . S
C453 C451 1.387 . S
C453 C455 1.390 . S
C453 H457 0.950 . S
H454 C450 0.950 . S
C455 C453 1.390 . S
C455 C456 1.387 . S
C455 H458 0.950 . S
C456 C455 1.387 . S
C456 C459 1.387 . S
H457 C453 0.950 . S
H458 C455 0.950 . S
C459 C450 1.390 . S
C459 H452 0.950 . S
C459 C456 1.387 . S
C460 C461 1.387 . S
C460 H464 0.950 . S
C460 C469 1.390 . S
C461 C460 1.387 . S
C461 C463 1.387 . S
H462 C469 0.950 . S
C463 C461 1.387 . S
C463 C465 1.390 . S
C463 H467 0.950 . S
H464 C460 0.950 . S
C465 C463 1.390 . S
C465 C466 1.387 . S
C465 H468 0.950 . S
C466 C465 1.387 . S
C466 C469 1.387 . S
H467 C463 0.950 . S
H468 C465 0.950 . S
C469 C460 1.390 . S
C469 H462 0.950 . S
C469 C466 1.387 . S
C470 C471 1.387 . S
C470 H474 0.950 . S
C470 C479 1.390 . S
C471 C470 1.387 . S
C471 C473 1.387 . S
H472 C479 0.950 . S
C473 C471 1.387 . S
C473 C475 1.390 . S
C473 H477 0.950 . S
H474 C470 0.950 . S
C475 C473 1.390 . S
C475 C476 1.387 . S
C475 H478 0.950 . S
C476 C475 1.387 . S
C476 C479 1.387 . S
H477 C473 0.950 . S
H478 C475 0.950 . S
C479 C470 1.390 . S
C479 H472 0.950 . S
C479 C476 1.387 . S
C480 C481 1.387 . S
C480 H484 0.950 . S
C480 C489 1.390 . S
C481 C480 1.387 . S
C481 C483 1.387 . S
H482 C489 0.950 . S
C483 C481 1.387 . S
C483 C485 1.390 . S
C483 H487 0.950 . S
H484 C480 0.950 . S
C485 C483 1.390 . S
C485 C486 1.387 . S
C485 H488 0.950 . S
C486 C485 1.387 . S
C486 C489 1.387 . S
H487 C483 0.950 . S
H488 C485 0.950 . S
C489 C480 1.390 . S
C489 H482 0.950 . S
C489 C486 1.387 . S
C490 C491 1.387 . S
C490 H494 0.950 . S
C490 C499 1.390 . S
C491 C490 1.387 . S
C491 C493 1.387 . S
H492 C499 0.950 . S
C493 C491 1.387 . S
C493 C495 1.390 . S
C493 H497 0.950 . S
H494 C490 0.950 . S
C495 C493 1.390 . S
C495 C496 1.387 . S
C495 H498 0.950 . S
C496 C495 1.387 . S
C496 C499 1.387 . S
H497 C493 0.950 . S
H498 C495 0.950 . S
C499 C490 1.390 . S
C499 H492 0.950 . S
C499 C496 1.387 . S
C500 C501 1.387 . S
C500 H504 0.950 . S
C500 C509 1.390 . S
C501 C500 1.387 . S
C501 C503 1.387 . S
H502 C509 0.950 . S
C503 C501 1.387 . S
C503 C505 1.390 . S
C503 H507 0.950 . S
H504 C500 0.950 . S
C505 C503 1.390 . S
C505 C506 1.387 . S
C505 H508 0.950 . S
C506 C505 1.387 . S
C506 C509 1.387 . S
H507 C503 0.950 . S
H508 C505 0.950 . S
C509 C500 1.390 . S
C509 H502 0.950 . S
C509 C506 1.387 . S
C510 C511 1.387 . S
C510 H514 0.950 . S
C510 C519 1.390 1_556 S
C511 C510 1.387 . S
C511 C513 1.387 . S
H512 C519 0.950 . S
C513 C511 1.387 . S
C513 C515 1.390 . S
C513 H517 0.950 . S
H514 C510 0.950 . S
C515 C513 1.390 . S
C515 C516 1.387 1_556 S
C515 H518 0.950 . S
C516 C515 1.387 1_554 S
C516 C519 1.387 . S
H517 C513 0.950 . S
H518 C515 0.950 . S
C519 C510 1.390 1_554 S
C519 H512 0.950 . S
C519 C516 1.387 . S
C520 C521 1.387 . S
C520 H524 0.950 . S
C520 C529 1.390 . S
C521 C520 1.387 . S
C521 C523 1.387 . S
H522 C529 0.950 . S
C523 C521 1.387 . S
C523 C525 1.390 . S
C523 H527 0.950 . S
H524 C520 0.950 . S
C525 C523 1.390 . S
C525 C526 1.387 . S
C525 H528 0.950 . S
C526 C525 1.387 . S
C526 C529 1.387 . S
H527 C523 0.950 . S
H528 C525 0.950 . S
C529 C520 1.390 . S
C529 H522 0.950 . S
C529 C526 1.387 . S
C530 C531 1.387 . S
C530 H534 0.950 . S
C530 C539 1.390 . S
C531 C530 1.387 . S
C531 C533 1.387 . S
H532 C539 0.950 . S
C533 C531 1.387 . S
C533 C535 1.390 . S
C533 H537 0.950 . S
H534 C530 0.950 . S
C535 C533 1.390 . S
C535 C536 1.387 . S
C535 H538 0.950 . S
C536 C535 1.387 . S
C536 C539 1.387 . S
H537 C533 0.950 . S
H538 C535 0.950 . S
C539 C530 1.390 . S
C539 H532 0.950 . S
C539 C536 1.387 . S
C540 C541 1.387 . S
C540 H544 0.950 . S
C540 C549 1.390 . S
C541 C540 1.387 . S
C541 C543 1.387 . S
H542 C549 0.950 . S
C543 C541 1.387 . S
C543 C545 1.390 . S
C543 H547 0.950 . S
H544 C540 0.950 . S
C545 C543 1.390 . S
C545 C546 1.387 . S
C545 H548 0.950 . S
C546 C545 1.387 . S
C546 C549 1.387 . S
H547 C543 0.950 . S
H548 C545 0.950 . S
C549 C540 1.390 . S
C549 H542 0.950 . S
C549 C546 1.387 . S
C550 C551 1.387 . S
C550 H554 0.950 . S
C550 C559 1.390 . S
C551 C550 1.387 . S
C551 C553 1.387 . S
H552 C559 0.950 . S
C553 C551 1.387 . S
C553 C555 1.390 . S
C553 H557 0.950 . S
H554 C550 0.950 . S
C555 C553 1.390 . S
C555 C556 1.387 . S
C555 H558 0.950 . S
C556 C555 1.387 . S
C556 C559 1.387 . S
H557 C553 0.950 . S
H558 C555 0.950 . S
C559 C550 1.390 . S
C559 H552 0.950 . S
C559 C556 1.387 . S
C560 C561 1.387 . S
C560 H564 0.950 . S
C560 C569 1.390 . S
C561 C560 1.387 . S
C561 C563 1.387 . S
H562 C569 0.950 . S
C563 C561 1.387 . S
C563 C565 1.390 . S
C563 H567 0.950 . S
H564 C560 0.950 . S
C565 C563 1.390 . S
C565 C566 1.387 . S
C565 H568 0.950 . S
C566 C565 1.387 . S
C566 C569 1.387 . S
H567 C563 0.950 . S
H568 C565 0.950 . S
C569 C560 1.390 . S
C569 H562 0.950 . S
C569 C566 1.387 . S
C570 C571 1.387 . S
C570 H574 0.950 . S
C570 C579 1.390 . S
C571 C570 1.387 . S
C571 C573 1.387 . S
H572 C579 0.950 . S
C573 C571 1.387 . S
C573 C575 1.390 . S
C573 H577 0.950 . S
H574 C570 0.950 . S
C575 C573 1.390 . S
C575 C576 1.387 . S
C575 H578 0.950 . S
C576 C575 1.387 . S
C576 C579 1.387 . S
H577 C573 0.950 . S
H578 C575 0.950 . S
C579 C570 1.390 . S
C579 H572 0.950 . S
C579 C576 1.387 . S
C580 C581 1.387 . S
C580 H584 0.950 . S
C580 C589 1.390 1_554 S
C581 C580 1.387 . S
C581 C583 1.387 . S
H582 C589 0.950 . S
C583 C581 1.387 . S
C583 C585 1.390 1_554 S
C583 H587 0.950 . S
H584 C580 0.950 . S
C585 C583 1.390 1_556 S
C585 C586 1.387 . S
C585 H588 0.950 . S
C586 C585 1.387 . S
C586 C589 1.387 . S
H587 C583 0.950 . S
H588 C585 0.950 . S
C589 C580 1.390 1_556 S
C589 H582 0.950 . S
C589 C586 1.387 . S
C590 C591 1.387 . S
C590 H594 0.950 . S
C590 C599 1.390 . S
C591 C590 1.387 . S
C591 C593 1.387 . S
H592 C599 0.950 . S
C593 C591 1.387 . S
C593 C595 1.390 . S
C593 H597 0.950 . S
H594 C590 0.950 . S
C595 C593 1.390 . S
C595 C596 1.387 . S
C595 H598 0.950 . S
C596 C595 1.387 . S
C596 C599 1.387 . S
H597 C593 0.950 . S
H598 C595 0.950 . S
C599 C590 1.390 . S
C599 H592 0.950 . S
C599 C596 1.387 . S
C366 C346 1.634 . S
C361 C15 1.592 . S
C371 C61 1.600 . S
C376 C287 1.648 . S
C381 C114 1.583 . S
C386 C290 1.631 . S
C391 C139 1.609 . S
C396 C304 1.635 . S
C406 C329 1.647 . S
C401 C185 1.619 . S
C411 C245 1.583 . S
C416 C332 1.631 . S
C421 C47 1.585 . S
C426 C301 1.616 . S
C431 C100 1.595 . S
C436 C315 1.619 . S
C441 C153 1.561 . S
C446 C318 1.602 . S
C456 C343 1.616 . S
C451 C199 1.570 . S
C466 C357 1.619 . S
C461 C231 1.595 . S
C476 C276 1.602 . S
C471 C1 1.574 . S
C481 C22 1.479 . S
C486 C299 1.475 . S
C491 C68 1.487 . S
C496 C313 1.483 . S
C506 C323 1.491 . S
C501 C107 1.489 . S
C511 C146 1.485 . S
C516 C341 1.476 . S
C526 C355 1.484 . S
C521 C192 1.488 . S
C536 C281 1.491 . S
C531 C252 1.489 . S
C546 C351 1.510 . S
C541 C54 1.508 . S
C551 C93 1.496 . S
C556 C285 1.491 . S
C566 C295 1.504 . S
C561 C160 1.498 . S
C571 C206 1.507 . S
C576 C309 1.510 . S
C581 C238 1.495 . S
C586 C327 1.492 . S
C591 C8 1.502 . S
C596 C337 1.504 . S
