# Generated by pormake.
# Topology apo, (3,6)-cn, num edge types: 1
# Building blocks:
#     Node 0, Type 0, BuildingBlock: PAMTOO_clean_linker_0, # of connection points: 3
#     Node 1, Type 0, BuildingBlock: PAMTOO_clean_linker_0, # of connection points: 3
#     Node 2, Type 0, BuildingBlock: PAMTOO_clean_linker_0, # of connection points: 3
#     Node 3, Type 0, BuildingBlock: PAMTOO_clean_linker_0, # of connection points: 3
#     Node 4, Type 0, BuildingBlock: PAMTOO_clean_linker_0, # of connection points: 3
#     Node 5, Type 0, BuildingBlock: PAMTOO_clean_linker_0, # of connection points: 3
#     Node 6, Type 0, BuildingBlock: PAMTOO_clean_linker_0, # of connection points: 3
#     Node 7, Type 0, BuildingBlock: PAMTOO_clean_linker_0, # of connection points: 3
#     Node 8, Type 1, BuildingBlock: KUMJIN_clean_sbu_1, # of connection points: 6
#     Node 9, Type 1, BuildingBlock: KUMJIN_clean_sbu_1, # of connection points: 6
#     Node 10, Type 1, BuildingBlock: KUMJIN_clean_sbu_1, # of connection points: 6
#     Node 11, Type 1, BuildingBlock: KUMJIN_clean_sbu_1, # of connection points: 6
#     Edge 12, Type (0, 1), BuildingBlock: UVAHIK_clean_linker_0, # of connection points: 2
#     Edge 13, Type (0, 1), BuildingBlock: UVAHIK_clean_linker_0, # of connection points: 2
#     Edge 14, Type (0, 1), BuildingBlock: UVAHIK_clean_linker_0, # of connection points: 2
#     Edge 15, Type (0, 1), BuildingBlock: UVAHIK_clean_linker_0, # of connection points: 2
#     Edge 16, Type (0, 1), BuildingBlock: UVAHIK_clean_linker_0, # of connection points: 2
#     Edge 17, Type (0, 1), BuildingBlock: UVAHIK_clean_linker_0, # of connection points: 2
#     Edge 18, Type (0, 1), BuildingBlock: UVAHIK_clean_linker_0, # of connection points: 2
#     Edge 19, Type (0, 1), BuildingBlock: UVAHIK_clean_linker_0, # of connection points: 2
#     Edge 20, Type (0, 1), BuildingBlock: UVAHIK_clean_linker_0, # of connection points: 2
#     Edge 21, Type (0, 1), BuildingBlock: UVAHIK_clean_linker_0, # of connection points: 2
#     Edge 22, Type (0, 1), BuildingBlock: UVAHIK_clean_linker_0, # of connection points: 2
#     Edge 23, Type (0, 1), BuildingBlock: UVAHIK_clean_linker_0, # of connection points: 2
#     Edge 24, Type (0, 1), BuildingBlock: UVAHIK_clean_linker_0, # of connection points: 2
#     Edge 25, Type (0, 1), BuildingBlock: UVAHIK_clean_linker_0, # of connection points: 2
#     Edge 26, Type (0, 1), BuildingBlock: UVAHIK_clean_linker_0, # of connection points: 2
#     Edge 27, Type (0, 1), BuildingBlock: UVAHIK_clean_linker_0, # of connection points: 2
#     Edge 28, Type (0, 1), BuildingBlock: UVAHIK_clean_linker_0, # of connection points: 2
#     Edge 29, Type (0, 1), BuildingBlock: UVAHIK_clean_linker_0, # of connection points: 2
#     Edge 30, Type (0, 1), BuildingBlock: UVAHIK_clean_linker_0, # of connection points: 2
#     Edge 31, Type (0, 1), BuildingBlock: UVAHIK_clean_linker_0, # of connection points: 2
#     Edge 32, Type (0, 1), BuildingBlock: UVAHIK_clean_linker_0, # of connection points: 2
#     Edge 33, Type (0, 1), BuildingBlock: UVAHIK_clean_linker_0, # of connection points: 2
#     Edge 34, Type (0, 1), BuildingBlock: UVAHIK_clean_linker_0, # of connection points: 2
#     Edge 35, Type (0, 1), BuildingBlock: UVAHIK_clean_linker_0, # of connection points: 2
# Relax obj value: 0.041
# Max RMSD: 0.211
# Mean RMSD: 0.155
data_MOF--net-apo--node1-KUMJIN_clean_sbu_1--node2-PAMTOO_clean_linker_0--edge1-UVAHIK_clean_linker_0
_symmetry_space_group_name_H-M    P1
_symmetry_Int_Tables_number       1
_symmetry_cell_setting            triclinic
loop_
_symmetry_equiv_pos_as_xyz
'x, y, z'
_cell_length_a     34.980684
_cell_length_b     55.305472
_cell_length_c     64.436515
_cell_angle_alpha  89.994057
_cell_angle_beta   90.082572
_cell_angle_gamma 90.398516
loop_
_atom_site_label
_atom_site_type_symbol
_atom_site_fract_x
_atom_site_fract_y
_atom_site_fract_z
_atom_type_partial_charge
H0 H 0.34377 0.41499 0.42809 0.0
H1 H 0.28477 0.37897 0.37822 0.0
H2 H 0.26865 0.35452 0.44079 0.0
H3 H 0.26766 0.3137 0.41366 0.0
C4 C 0.2657 0.32329 0.39854 0.0
O5 O 0.25194 0.34634 0.40183 0.0
H6 H 0.29489 0.32434 0.39166 0.0
C7 C 0.32422 0.40096 0.42286 0.0
C8 C 0.30716 0.38517 0.43734 0.0
C9 C 0.3159 0.39907 0.40161 0.0
C10 C 0.29114 0.38074 0.39462 0.0
C11 C 0.27484 0.36444 0.40875 0.0
C12 C 0.28237 0.36687 0.43004 0.0
H13 H 0.17494 0.10032 0.92519 0.0
H14 H 0.24222 0.16503 0.9344 0.0
H15 H 0.23415 0.13315 0.8738 0.0
H16 H 0.3116 0.14972 0.89034 0.0
C17 C 0.30223 0.1679 0.89566 0.0
O18 O 0.26281 0.16896 0.89547 0.0
H19 H 0.31283 0.17082 0.91174 0.0
C20 C 0.19343 0.11447 0.91913 0.0
C21 C 0.20271 0.11456 0.89795 0.0
C22 C 0.20777 0.13241 0.93254 0.0
C23 C 0.23098 0.15094 0.92437 0.0
C24 C 0.24066 0.15104 0.90326 0.0
C25 C 0.22679 0.13279 0.89013 0.0
H26 H 0.85217 0.10403 0.58123 0.0
H27 H 0.79324 0.13389 0.63416 0.0
H28 H 0.7934 0.17184 0.57631 0.0
H29 H 0.8059 0.20268 0.61249 0.0
C30 C 0.78938 0.19234 0.62433 0.0
O31 O 0.77138 0.17287 0.61506 0.0
H32 H 0.80996 0.1859 0.63629 0.0
C33 C 0.83444 0.11779 0.58822 0.0
C34 C 0.82337 0.13775 0.57616 0.0
C35 C 0.82431 0.11616 0.60936 0.0
C36 C 0.80219 0.13475 0.61809 0.0
C37 C 0.79149 0.1548 0.60624 0.0
C38 C 0.802 0.15627 0.58535 0.0
H39 H 0.66323 0.4017 0.08244 0.0
H40 H 0.73581 0.33951 0.07605 0.0
H41 H 0.72906 0.37623 0.13452 0.0
H42 H 0.80505 0.36102 0.12256 0.0
C43 C 0.7981 0.34321 0.11538 0.0
O44 O 0.75903 0.33981 0.11471 0.0
H45 H 0.80976 0.34322 0.09932 0.0
C46 C 0.68302 0.38885 0.08913 0.0
C47 C 0.69441 0.39141 0.10995 0.0
C48 C 0.69803 0.37035 0.07666 0.0
C49 C 0.72434 0.3541 0.08533 0.0
C50 C 0.73525 0.35621 0.10617 0.0
C51 C 0.72049 0.37486 0.11839 0.0
H52 H 0.6892 0.59167 0.58037 0.0
H53 H 0.74312 0.66118 0.57172 0.0
H54 H 0.74103 0.62884 0.63214 0.0
H55 H 0.72139 0.67929 0.63083 0.0
C56 C 0.7424 0.68589 0.61914 0.0
O57 O 0.76204 0.66667 0.61076 0.0
H58 H 0.72657 0.69527 0.60653 0.0
C59 C 0.70527 0.60687 0.58657 0.0
C60 C 0.71398 0.60763 0.60788 0.0
C61 C 0.71567 0.626 0.57329 0.0
C62 C 0.73477 0.64623 0.58164 0.0
C63 C 0.74366 0.64718 0.60282 0.0
C64 C 0.73358 0.62789 0.61583 0.0
H65 H 0.85854 0.90597 0.08053 0.0
H66 H 0.79566 0.87803 0.13277 0.0
H67 H 0.79118 0.84067 0.07454 0.0
H68 H 0.71918 0.83868 0.09571 0.0
C69 C 0.7286 0.84149 0.11202 0.0
O70 O 0.76799 0.84044 0.11308 0.0
H71 H 0.71895 0.85966 0.11724 0.0
C72 C 0.8401 0.89221 0.08722 0.0
C73 C 0.8261 0.87321 0.07473 0.0
C74 C 0.82912 0.89419 0.10813 0.0
C75 C 0.80418 0.87685 0.11664 0.0
C76 C 0.79078 0.85757 0.10453 0.0
C77 C 0.80173 0.85576 0.08368 0.0
H78 H 0.17218 0.90678 0.42525 0.0
H79 H 0.23087 0.83914 0.43287 0.0
H80 H 0.23034 0.87397 0.37356 0.0
H81 H 0.21248 0.82066 0.37553 0.0
C82 C 0.23583 0.81569 0.38646 0.0
O83 O 0.25308 0.83625 0.3943 0.0
H84 H 0.22283 0.80511 0.39937 0.0
C85 C 0.18913 0.89227 0.41884 0.0
C86 C 0.19969 0.89296 0.39776 0.0
C87 C 0.20035 0.87308 0.43178 0.0
C88 C 0.22224 0.85429 0.42332 0.0
C89 C 0.23246 0.85457 0.40233 0.0
C90 C 0.22146 0.87387 0.38966 0.0
H91 H 0.35762 0.607 0.92545 0.0
H92 H 0.28975 0.63519 0.87512 0.0
H93 H 0.29033 0.67117 0.93385 0.0
H94 H 0.21662 0.67141 0.91389 0.0
C95 C 0.22537 0.67024 0.89733 0.0
O96 O 0.2646 0.67224 0.89587 0.0
H97 H 0.21568 0.65235 0.89128 0.0
C98 C 0.33757 0.62011 0.91943 0.0
C99 C 0.32519 0.63896 0.9324 0.0
C100 C 0.32511 0.61838 0.89868 0.0
C101 C 0.30029 0.63616 0.89091 0.0
C102 C 0.28819 0.65518 0.90357 0.0
C103 C 0.30061 0.65657 0.92419 0.0
Eu104 Eu 0.05788 0.1222 0.23524 0.0
C105 C 0.89649 0.08823 0.25947 0.0
N106 N 0.90952 0.11146 0.25894 0.0
C107 C 0.85329 0.12389 0.2407 0.0
C108 C 0.86135 0.08188 0.25013 0.0
C109 C 0.88844 0.12932 0.25001 0.0
C110 C 0.83974 0.10006 0.24069 0.0
C111 C 0.90639 0.04635 0.26927 0.0
C112 C 0.9191 0.07063 0.26876 0.0
C113 C 0.87169 0.03992 0.25968 0.0
C114 C 0.84923 0.05763 0.25016 0.0
Eu115 Eu 0.96914 0.11888 0.27483 0.0
N116 N 0.95295 0.07727 0.27769 0.0
C117 C 0.92848 0.02932 0.27984 0.0
C118 C 0.97238 0.06118 0.28973 0.0
C119 C 0.96119 0.03689 0.29049 0.0
H120 H 0.89869 0.14777 0.25017 0.0
H121 H 0.97733 0.02412 0.29967 0.0
H122 H 0.12169 0.07953 0.24774 0.0
H123 H 0.07314 0.2207 0.23358 0.0
H124 H 0.99568 0.06703 0.29944 0.0
H125 H 0.91969 0.01052 0.28059 0.0
H126 H 0.04009 0.18172 0.22854 0.0
H127 H 0.83668 0.13807 0.23353 0.0
H128 H 0.86172 0.02133 0.25977 0.0
H129 H 0.82247 0.05238 0.2429 0.0
H130 H 0.18828 0.07719 0.26035 0.0
H131 H 0.81261 0.09589 0.23333 0.0
H132 H 0.13999 0.22164 0.24612 0.0
N133 N 0.12149 0.11793 0.24664 0.0
C134 C 0.14187 0.13876 0.24911 0.0
C135 C 0.17552 0.09461 0.25734 0.0
C136 C 0.18004 0.13825 0.25615 0.0
C137 C 0.13771 0.096 0.25039 0.0
C138 C 0.19675 0.11582 0.26029 0.0
N139 N 0.08683 0.16071 0.23909 0.0
C140 C 0.06884 0.18182 0.23441 0.0
C141 C 0.14435 0.18266 0.24798 0.0
C142 C 0.12419 0.16074 0.24507 0.0
C143 C 0.12552 0.20442 0.24401 0.0
C144 C 0.08772 0.20398 0.23703 0.0
H145 H 0.22601 0.11468 0.26573 0.0
H146 H 0.22949 0.16002 0.26449 0.0
H147 H 0.19824 0.19886 0.25738 0.0
O148 O 0.05442 0.13265 0.20263 0.0
O149 O 0.06571 0.13892 0.26723 0.0
O150 O 0.00642 0.15255 0.27706 0.0
O151 O 0.09611 0.1063 0.21225 0.0
O152 O 0.00282 0.14145 0.22624 0.0
O153 O 0.9718 0.15351 0.25624 0.0
O154 O 0.96598 0.11632 0.30874 0.0
O155 O 0.96243 0.10457 0.24169 0.0
O156 O 0.02094 0.08856 0.23446 0.0
O157 O 0.92186 0.13491 0.29186 0.0
O158 O 0.02629 0.10239 0.28446 0.0
O159 O 0.05211 0.08789 0.25402 0.0
C160 C 0.04391 0.15344 0.27807 0.0
C161 C 0.07102 0.1028 0.17839 0.0
C162 C 0.0756 0.09589 0.14107 0.0
C163 C 0.05099 0.07579 0.14316 0.0
C164 C 0.04673 0.08267 0.18017 0.0
C165 C 0.03674 0.06924 0.16263 0.0
C166 C 0.08548 0.10933 0.15887 0.0
C167 C 0.97884 0.15558 0.23624 0.0
C168 C 0.0806 0.11753 0.19665 0.0
C169 C 0.20017 0.16006 0.25903 0.0
C170 C 0.18238 0.18219 0.25497 0.0
C171 C 0.98362 0.08813 0.23271 0.0
C172 C 0.93714 0.14969 0.32515 0.0
C173 C 0.92949 0.1642 0.36079 0.0
C174 C 0.93778 0.18782 0.3538 0.0
C175 C 0.9456 0.17334 0.31865 0.0
C176 C 0.92948 0.14516 0.3462 0.0
C177 C 0.94602 0.19225 0.33295 0.0
C178 C 0.04887 0.08747 0.27434 0.0
C179 C 0.93566 0.12974 0.31004 0.0
H180 H 0.04318 0.06494 0.1298 0.0
H181 H 0.03554 0.07743 0.19511 0.0
H182 H 0.01794 0.0537 0.16412 0.0
H183 H 0.10391 0.1251 0.15751 0.0
H184 H 0.93724 0.20305 0.36434 0.0
H185 H 0.95146 0.1772 0.30249 0.0
H186 H 0.92367 0.12676 0.35112 0.0
H187 H 0.95232 0.21048 0.3278 0.0
Eu188 Eu 0.46446 0.38906 0.73277 0.0
C189 C 0.63115 0.40962 0.75487 0.0
N190 N 0.61203 0.38841 0.75776 0.0
C191 C 0.66317 0.36684 0.74151 0.0
C192 C 0.66634 0.41037 0.74423 0.0
C193 C 0.62864 0.36705 0.75242 0.0
C194 C 0.68175 0.38865 0.73702 0.0
C195 C 0.63679 0.45253 0.76225 0.0
C196 C 0.61669 0.43043 0.76375 0.0
C197 C 0.67087 0.45361 0.75079 0.0
C198 C 0.68559 0.43257 0.74176 0.0
Eu199 Eu 0.55178 0.39103 0.77447 0.0
N200 N 0.58321 0.42892 0.77429 0.0
C201 C 0.62223 0.47276 0.77257 0.0
C202 C 0.5698 0.4482 0.78526 0.0
C203 C 0.58888 0.47049 0.78437 0.0
H204 H 0.61561 0.35007 0.75678 0.0
H205 H 0.57777 0.48591 0.79269 0.0
H206 H 0.39051 0.40775 0.76082 0.0
H207 H 0.47988 0.30439 0.68938 0.0
H208 H 0.5439 0.4464 0.79427 0.0
H209 H 0.63684 0.49008 0.77181 0.0
H210 H 0.49243 0.34727 0.69729 0.0
H211 H 0.67568 0.34985 0.73683 0.0
H212 H 0.68647 0.4705 0.74918 0.0
H213 H 0.71241 0.43355 0.73341 0.0
H214 H 0.33187 0.39061 0.7769 0.0
H215 H 0.70869 0.38844 0.72875 0.0
H216 H 0.42858 0.28228 0.70794 0.0
N217 N 0.40758 0.37424 0.74785 0.0
C218 C 0.39847 0.35074 0.74418 0.0
C219 C 0.35049 0.37917 0.76785 0.0
C220 C 0.36567 0.34014 0.75314 0.0
C221 C 0.38354 0.38882 0.75877 0.0
C222 C 0.3418 0.35463 0.76528 0.0
N223 N 0.45179 0.3488 0.72181 0.0
C224 C 0.47127 0.33757 0.70624 0.0
C225 C 0.41253 0.3132 0.72652 0.0
C226 C 0.42168 0.3375 0.73107 0.0
C227 C 0.43465 0.30096 0.71186 0.0
C228 C 0.46368 0.31336 0.70139 0.0
H229 H 0.31631 0.34717 0.77243 0.0
H230 H 0.33273 0.30703 0.75642 0.0
H231 H 0.37374 0.28342 0.73307 0.0
O232 O 0.43455 0.38941 0.70248 0.0
O233 O 0.45773 0.37436 0.76559 0.0
O234 O 0.51553 0.35712 0.77195 0.0
O235 O 0.43687 0.42183 0.72189 0.0
O236 O 0.52181 0.3735 0.72267 0.0
O237 O 0.54784 0.35831 0.75295 0.0
O238 O 0.5428 0.39375 0.80789 0.0
O239 O 0.54007 0.42228 0.75236 0.0
O240 O 0.52174 0.40381 0.72226 0.0
O241 O 0.59433 0.37746 0.79646 0.0
O242 O 0.49606 0.40811 0.78478 0.0
O243 O 0.46523 0.42125 0.75485 0.0
C244 C 0.47821 0.3569 0.77352 0.0
C245 C 0.40181 0.42561 0.68961 0.0
C246 C 0.37703 0.43179 0.65446 0.0
C247 C 0.35777 0.45246 0.66156 0.0
C248 C 0.38261 0.44647 0.69615 0.0
C249 C 0.36062 0.45971 0.68222 0.0
C250 C 0.39878 0.41821 0.66873 0.0
C251 C 0.54386 0.35806 0.73259 0.0
C252 C 0.42479 0.41192 0.70477 0.0
C253 C 0.35751 0.31561 0.74945 0.0
C254 C 0.38092 0.30216 0.73619 0.0
C255 C 0.54089 0.42076 0.73208 0.0
C256 C 0.56912 0.36271 0.82802 0.0
C257 C 0.57539 0.34813 0.8636 0.0
C258 C 0.55545 0.32694 0.858 0.0
C259 C 0.54978 0.34131 0.82265 0.0
C260 C 0.58225 0.36597 0.84844 0.0
C261 C 0.54295 0.32353 0.8376 0.0
C262 C 0.47269 0.42281 0.77491 0.0
C263 C 0.57383 0.38224 0.81276 0.0
H264 H 0.3401 0.46299 0.65117 0.0
H265 H 0.3843 0.45248 0.71213 0.0
H266 H 0.34566 0.47565 0.68745 0.0
H267 H 0.41397 0.40232 0.66353 0.0
H268 H 0.54991 0.31292 0.86937 0.0
H269 H 0.53973 0.33846 0.80697 0.0
H270 H 0.59693 0.3826 0.85265 0.0
H271 H 0.52777 0.30712 0.83339 0.0
Eu272 Eu 0.05453 0.88621 0.73641 0.0
C273 C 0.89126 0.85584 0.75405 0.0
N274 N 0.90409 0.8791 0.75362 0.0
C275 C 0.8517 0.89053 0.73184 0.0
C276 C 0.85841 0.8489 0.74276 0.0
C277 C 0.88462 0.89655 0.74309 0.0
C278 C 0.83865 0.86659 0.73157 0.0
C279 C 0.89929 0.8145 0.7658 0.0
C280 C 0.91185 0.83881 0.76529 0.0
C281 C 0.86708 0.80743 0.75418 0.0
C282 C 0.84669 0.82458 0.74272 0.0
Eu283 Eu 0.96006 0.88758 0.77274 0.0
N284 N 0.94336 0.84607 0.77617 0.0
C285 C 0.91889 0.79812 0.77839 0.0
C286 C 0.95988 0.83069 0.79007 0.0
C287 C 0.94877 0.80639 0.79093 0.0
H288 H 0.89483 0.91504 0.74324 0.0
H289 H 0.96274 0.79417 0.8016 0.0
H290 H 0.11134 0.84144 0.75246 0.0
H291 H 0.08387 0.98321 0.72953 0.0
H292 H 0.98083 0.83712 0.80105 0.0
H293 H 0.91014 0.77931 0.77921 0.0
H294 H 0.04622 0.94581 0.72544 0.0
H295 H 0.83651 0.90433 0.7233 0.0
H296 H 0.85735 0.78879 0.75422 0.0
H297 H 0.82178 0.81885 0.73394 0.0
H298 H 0.17549 0.83653 0.76801 0.0
H299 H 0.81334 0.86195 0.72267 0.0
H300 H 0.14862 0.98175 0.74492 0.0
N301 N 0.11578 0.87963 0.7505 0.0
C302 C 0.13831 0.89954 0.75305 0.0
C303 C 0.1653 0.85436 0.76399 0.0
C304 C 0.17537 0.89758 0.76148 0.0
C305 C 0.12882 0.85719 0.75546 0.0
C306 C 0.18863 0.87465 0.7671 0.0
N307 N 0.08808 0.92337 0.73942 0.0
C308 C 0.0739 0.94488 0.73264 0.0
C309 C 0.14707 0.94296 0.7495 0.0
C310 C 0.12428 0.92201 0.74714 0.0
C311 C 0.13206 0.96522 0.74331 0.0
C312 C 0.09544 0.96614 0.73471 0.0
H313 H 0.21693 0.8724 0.77365 0.0
H314 H 0.22652 0.9173 0.77049 0.0
H315 H 0.20174 0.957 0.76002 0.0
O316 O 0.05326 0.89276 0.7029 0.0
O317 O 0.06052 0.90563 0.76752 0.0
O318 O 1.0006 0.9191 0.77723 0.0
O319 O 0.09303 0.86699 0.71558 0.0
O320 O 0.00445 0.90911 0.72535 0.0
O321 O 0.96928 0.92172 0.75398 0.0
O322 O 0.94444 0.88528 0.806 0.0
O323 O 0.95774 0.87538 0.739 0.0
O324 O 0.01317 0.85457 0.73528 0.0
O325 O 0.91378 0.90934 0.78505 0.0
O326 O 0.0148 0.8708 0.78564 0.0
O327 O 0.04106 0.85378 0.75644 0.0
C328 C 0.0381 0.9203 0.77791 0.0
C329 C 0.11243 0.88855 0.68569 0.0
C330 C 0.13882 0.89557 0.65108 0.0
C331 C 0.16982 0.908 0.66017 0.0
C332 C 0.14385 0.9008 0.69435 0.0
C333 C 0.17226 0.91054 0.68165 0.0
C334 C 0.11008 0.88586 0.66402 0.0
C335 C 0.98009 0.92382 0.73447 0.0
C336 C 0.08202 0.87858 0.69906 0.0
C337 C 0.198 0.91846 0.76399 0.0
C338 C 0.18391 0.94107 0.75801 0.0
C339 C 0.97679 0.85725 0.7312 0.0
C340 C 0.89204 0.9093 0.82076 0.0
C341 C 0.86953 0.90738 0.85667 0.0
C342 C 0.84172 0.92475 0.8519 0.0
C343 C 0.86397 0.92669 0.81648 0.0
C344 C 0.89499 0.89983 0.84103 0.0
C345 C 0.83912 0.93437 0.83198 0.0
C346 C 0.03756 0.855 0.7767 0.0
C347 C 0.91719 0.901 0.80378 0.0
H348 H 0.19262 0.91537 0.65067 0.0
H349 H 0.14666 0.90272 0.7109 0.0
H350 H 0.19641 0.91994 0.68851 0.0
H351 H 0.08582 0.87642 0.65727 0.0
H352 H 0.82214 0.93109 0.86369 0.0
H353 H 0.86103 0.93435 0.8011 0.0
H354 H 0.91636 0.88633 0.84453 0.0
H355 H 0.81765 0.94779 0.8285 0.0
Eu356 Eu 0.46488 0.61872 0.2347 0.0
C357 C 0.64127 0.63565 0.25559 0.0
N358 N 0.62034 0.61504 0.25805 0.0
C359 C 0.6719 0.59138 0.24477 0.0
C360 C 0.67852 0.63485 0.2473 0.0
C361 C 0.63503 0.59305 0.25296 0.0
C362 C 0.69373 0.61236 0.24189 0.0
C363 C 0.64561 0.67944 0.25783 0.0
C364 C 0.62495 0.65773 0.26079 0.0
C365 C 0.68279 0.67867 0.24967 0.0
C366 C 0.69919 0.65646 0.24443 0.0
Eu367 Eu 0.55842 0.61976 0.27166 0.0
N368 N 0.58829 0.65802 0.26791 0.0
C369 C 0.62811 0.70132 0.26293 0.0
C370 C 0.57164 0.67922 0.27362 0.0
C371 C 0.59108 0.70118 0.271 0.0
H372 H 0.61849 0.57676 0.25549 0.0
H373 H 0.57755 0.71799 0.27529 0.0
H374 H 0.39725 0.6423 0.26513 0.0
H375 H 0.47162 0.52863 0.19917 0.0
H376 H 0.54353 0.67937 0.28031 0.0
H377 H 0.643 0.71839 0.26083 0.0
H378 H 0.48754 0.57175 0.20276 0.0
H379 H 0.68349 0.57391 0.24072 0.0
H380 H 0.69902 0.69518 0.24723 0.0
H381 H 0.72783 0.65619 0.23804 0.0
H382 H 0.33863 0.62881 0.28344 0.0
H383 H 0.72225 0.611 0.23547 0.0
H384 H 0.42004 0.51062 0.22048 0.0
N385 N 0.4092 0.60747 0.253 0.0
C386 C 0.39763 0.58406 0.25095 0.0
C387 C 0.35505 0.61604 0.27444 0.0
C388 C 0.36466 0.57555 0.26128 0.0
C389 C 0.38818 0.62362 0.26414 0.0
C390 C 0.34338 0.59187 0.27313 0.0
N391 N 0.45016 0.57741 0.22833 0.0
C392 C 0.46708 0.56383 0.21327 0.0
C393 C 0.4077 0.54414 0.23641 0.0
C394 C 0.41919 0.56852 0.23872 0.0
C395 C 0.42795 0.52943 0.22267 0.0
C396 C 0.45721 0.53948 0.21071 0.0
H397 H 0.31788 0.58601 0.28128 0.0
H398 H 0.3292 0.54415 0.26767 0.0
H399 H 0.36673 0.51669 0.24583 0.0
O400 O 0.44979 0.61918 0.20114 0.0
O401 O 0.46185 0.60456 0.26807 0.0
O402 O 0.51993 0.58684 0.2728 0.0
O403 O 0.4171 0.63985 0.22377 0.0
O404 O 0.5204 0.60223 0.22258 0.0
O405 O 0.54791 0.5864 0.25215 0.0
O406 O 0.55921 0.62856 0.3047 0.0
O407 O 0.56432 0.63701 0.23977 0.0
O408 O 0.50457 0.65104 0.2308 0.0
O409 O 0.59862 0.60216 0.2927 0.0
O410 O 0.50586 0.64018 0.28289 0.0
O411 O 0.473 0.65261 0.25364 0.0
C412 C 0.48298 0.58734 0.27598 0.0
C413 C 0.39473 0.64276 0.18844 0.0
C414 C 0.37764 0.65041 0.15228 0.0
C415 C 0.34518 0.66301 0.15897 0.0
C416 C 0.36183 0.65531 0.19469 0.0
C417 C 0.33725 0.66528 0.18004 0.0
C418 C 0.40225 0.64 0.16708 0.0
C419 C 0.54299 0.58656 0.2319 0.0
C420 C 0.4212 0.63365 0.2045 0.0
C421 C 0.35415 0.55108 0.25962 0.0
C422 C 0.37565 0.53542 0.24727 0.0
C423 C 0.54204 0.65193 0.22962 0.0
C424 C 0.57706 0.59705 0.32712 0.0
C425 C 0.58243 0.58909 0.36429 0.0
C426 C 0.55952 0.56828 0.36169 0.0
C427 C 0.55452 0.57617 0.32484 0.0
C428 C 0.59104 0.60343 0.34682 0.0
C429 C 0.54574 0.5619 0.34207 0.0
C430 C 0.48074 0.65416 0.27354 0.0
C431 C 0.58529 0.61269 0.30921 0.0
H432 H 0.32577 0.671 0.14783 0.0
H433 H 0.35512 0.6576 0.21098 0.0
H434 H 0.31208 0.67494 0.18504 0.0
H435 H 0.42753 0.63046 0.162 0.0
H436 H 0.55272 0.55674 0.37477 0.0
H437 H 0.54378 0.57096 0.30976 0.0
H438 H 0.6081 0.61975 0.34856 0.0
H439 H 0.52827 0.5458 0.3402 0.0
C440 C 0.1765 0.90965 0.36361 0.0
C441 C 0.18784 0.91354 0.38432 0.0
C442 C 0.16429 0.92892 0.35125 0.0
C443 C 0.12146 0.98891 0.35504 0.0
H444 H 0.15657 0.99742 0.29845 0.0
C445 C 0.07781 0.07218 0.30727 0.0
C446 C 0.0693 0.06865 0.28619 0.0
C447 C 0.09484 0.05383 0.31887 0.0
C448 C 0.14608 0.99515 0.31413 0.0
H449 H 0.19649 0.94106 0.40793 0.0
H450 H 0.17428 0.97447 0.38652 0.0
H451 H 0.18101 0.96398 0.31925 0.0
H452 H 0.07221 0.04328 0.26063 0.0
H453 H 0.10104 0.01099 0.28095 0.0
H454 H 0.08576 0.01951 0.34993 0.0
C455 C 0.17458 0.95645 0.37995 0.0
C456 C 0.16021 0.97603 0.32605 0.0
C457 C 0.18715 0.93725 0.39223 0.0
C458 C 0.07879 0.04658 0.27683 0.0
C459 C 0.09544 0.02809 0.28849 0.0
C460 C 0.10703 0.00785 0.34309 0.0
C461 C 0.16281 0.95247 0.35938 0.0
C462 C 0.14809 0.97276 0.34665 0.0
C463 C 0.10333 0.03138 0.30974 0.0
C464 C 0.1192 0.01129 0.32248 0.0
H465 H 0.17616 0.89162 0.35706 0.0
H466 H 0.15503 0.92529 0.3355 0.0
H467 H 0.11115 0.98661 0.37077 0.0
H468 H 0.07111 0.08912 0.31484 0.0
H469 H 0.10125 0.05725 0.33506 0.0
C470 C 0.34576 0.60168 0.86404 0.0
C471 C 0.33801 0.59804 0.88526 0.0
C472 C 0.35855 0.58263 0.85162 0.0
C473 C 0.40991 0.52554 0.8546 0.0
H474 H 0.36394 0.51125 0.80116 0.0
C475 C 0.45234 0.44071 0.80874 0.0
C476 C 0.45451 0.44231 0.78703 0.0
C477 C 0.43663 0.45949 0.82035 0.0
C478 C 0.37753 0.51518 0.8159 0.0
H479 H 0.33657 0.57107 0.90976 0.0
H480 H 0.36005 0.53817 0.88824 0.0
H481 H 0.33979 0.54479 0.8219 0.0
H482 H 0.44174 0.46487 0.76042 0.0
H483 H 0.41547 0.49802 0.78069 0.0
H484 H 0.44837 0.4966 0.84856 0.0
C485 C 0.35635 0.55584 0.8813 0.0
C486 C 0.36354 0.53435 0.8278 0.0
C487 C 0.34308 0.57477 0.89364 0.0
C488 C 0.44024 0.46302 0.77714 0.0
C489 C 0.42499 0.482 0.78879 0.0
C490 C 0.42424 0.50663 0.84262 0.0
C491 C 0.36435 0.55959 0.8602 0.0
C492 C 0.37943 0.53959 0.84733 0.0
C493 C 0.42321 0.48056 0.81059 0.0
C494 C 0.40809 0.50103 0.82316 0.0
H495 H 0.34274 0.61938 0.85707 0.0
H496 H 0.36483 0.58605 0.83543 0.0
H497 H 0.42307 0.52942 0.86947 0.0
H498 H 0.46271 0.42487 0.81683 0.0
H499 H 0.43493 0.45739 0.83703 0.0
C500 C 0.70334 0.56342 0.61512 0.0
C501 C 0.70148 0.5876 0.62179 0.0
C502 C 0.68928 0.54472 0.6276 0.0
C503 C 0.66182 0.52909 0.68135 0.0
H504 H 0.59719 0.48112 0.65457 0.0
C505 C 0.56583 0.46284 0.72747 0.0
C506 C 0.56182 0.43915 0.71996 0.0
C507 C 0.58554 0.4803 0.71594 0.0
C508 C 0.61565 0.49411 0.66228 0.0
H509 H 0.68385 0.61097 0.64701 0.0
H510 H 0.65963 0.57829 0.66886 0.0
H511 H 0.62744 0.51264 0.63383 0.0
H512 H 0.57539 0.41495 0.69465 0.0
H513 H 0.61009 0.44536 0.67447 0.0
H514 H 0.64993 0.51057 0.70984 0.0
C515 C 0.67226 0.57381 0.65403 0.0
C516 C 0.63296 0.51221 0.65037 0.0
C517 C 0.68619 0.59255 0.6415 0.0
C518 C 0.57784 0.43318 0.7007 0.0
C519 C 0.59765 0.4506 0.68917 0.0
C520 C 0.64463 0.5109 0.69327 0.0
C521 C 0.67318 0.54972 0.64709 0.0
C522 C 0.65606 0.53 0.65977 0.0
C523 C 0.60154 0.47443 0.69658 0.0
C524 C 0.62112 0.49327 0.68389 0.0
H525 H 0.71559 0.55893 0.6002 0.0
H526 H 0.69098 0.52631 0.62197 0.0
H527 H 0.67984 0.54237 0.68901 0.0
H528 H 0.55312 0.468 0.74211 0.0
H529 H 0.58743 0.49854 0.72198 0.0
C530 C 0.8831 0.91884 0.12265 0.0
C531 C 0.84368 0.91442 0.12105 0.0
C532 C 0.89697 0.93781 0.13494 0.0
C533 C 0.86744 0.98119 0.17655 0.0
H534 H 0.96165 0.01348 0.16055 0.0
C535 C 0.92835 0.07082 0.21249 0.0
C536 C 0.9655 0.06844 0.22054 0.0
C537 C 0.91177 0.05215 0.20079 0.0
C538 C 0.93532 0.00457 0.16517 0.0
H539 H 0.78773 0.92647 0.13067 0.0
H540 H 0.8116 0.96033 0.15133 0.0
H541 H 0.93577 0.9813 0.13877 0.0
H542 H 0.01437 0.0446 0.22264 0.0
H543 H 0.98609 0.01262 0.20134 0.0
H544 H 0.86673 0.00544 0.20261 0.0
C545 C 0.83211 0.94873 0.14377 0.0
C546 C 0.92057 0.98595 0.15282 0.0
C547 C 0.81831 0.92942 0.13182 0.0
C548 C 0.98578 0.04708 0.21655 0.0
C549 C 0.96964 0.02875 0.20442 0.0
C550 C 0.88184 1.00021 0.18866 0.0
C551 C 0.8717 0.9532 0.14558 0.0
C552 C 0.88664 0.97372 0.15844 0.0
C553 C 0.93254 0.03112 0.19644 0.0
C554 C 0.91612 0.01183 0.18319 0.0
H555 H 0.90324 0.90733 0.11466 0.0
H556 H 0.92762 0.94013 0.13626 0.0
H557 H 0.84167 0.97208 0.18168 0.0
H558 H 0.91237 0.08726 0.2149 0.0
H559 H 0.88316 0.05441 0.19466 0.0
C560 C 0.84797 0.09936 0.64338 0.0
C561 C 0.83793 0.09563 0.62244 0.0
C562 C 0.86155 0.08033 0.65555 0.0
C563 C 0.91243 0.02344 0.65225 0.0
H564 H 0.86996 0.01011 0.70664 0.0
C565 C 0.96132 0.94111 0.7001 0.0
C566 C 0.96305 0.94329 0.7218 0.0
C567 C 0.94491 0.9593 0.68804 0.0
C568 C 0.88265 0.01378 0.69165 0.0
H569 H 0.83378 0.0685 0.59814 0.0
H570 H 0.85892 0.03557 0.61925 0.0
H571 H 0.84352 0.04265 0.6856 0.0
H572 H 0.94938 0.96638 0.74787 0.0
H573 H 0.9222 0.99861 0.72683 0.0
H574 H 0.95249 0.99537 0.6584 0.0
C575 C 0.85606 0.05333 0.62614 0.0
C576 C 0.86726 0.03234 0.67955 0.0
C577 C 0.84185 0.07227 0.61405 0.0
C578 C 0.9482 0.96412 0.73118 0.0
C579 C 0.93236 0.98253 0.71908 0.0
C580 C 0.92825 0.00516 0.66446 0.0
C581 C 0.86606 0.0572 0.647 0.0
C582 C 0.88194 0.0373 0.65973 0.0
C583 C 0.9304 0.98037 0.69732 0.0
C584 C 0.91354 0.99999 0.68433 0.0
H585 H 0.84622 0.11713 0.65035 0.0
H586 H 0.86949 0.08386 0.67153 0.0
H587 H 0.92461 0.02712 0.63712 0.0
H588 H 0.9721 0.92513 0.69242 0.0
H589 H 0.94323 0.95663 0.67142 0.0
C590 C 0.70416 0.42584 0.13477 0.0
C591 C 0.6793 0.41144 0.12279 0.0
C592 C 0.69004 0.44507 0.14652 0.0
C593 C 0.60363 0.46694 0.17212 0.0
H594 H 0.65267 0.53 0.16928 0.0
C595 C 0.56819 0.5446 0.22864 0.0
C596 C 0.56073 0.56716 0.21953 0.0
C597 C 0.58323 0.52577 0.21682 0.0
C598 C 0.63867 0.5125 0.17017 0.0
H599 H 0.62016 0.40559 0.11396 0.0
H600 H 0.59538 0.43904 0.13472 0.0
H601 H 0.67769 0.4965 0.14861 0.0
H602 H 0.56393 0.58794 0.19108 0.0
H603 H 0.59096 0.55503 0.17041 0.0
H604 H 0.56477 0.48288 0.19376 0.0
C605 C 0.6258 0.4355 0.13493 0.0
C606 C 0.65313 0.49332 0.15848 0.0
C607 C 0.63999 0.41649 0.12296 0.0
C608 C 0.56934 0.5707 0.19846 0.0
C609 C 0.58492 0.55194 0.18669 0.0
C610 C 0.58952 0.48602 0.18402 0.0
C611 C 0.65071 0.45006 0.14675 0.0
C612 C 0.63566 0.47037 0.15929 0.0
C613 C 0.59164 0.52922 0.19571 0.0
C614 C 0.60683 0.50901 0.18312 0.0
H615 H 0.73463 0.42245 0.13481 0.0
H616 H 0.70983 0.45589 0.1556 0.0
H617 H 0.58976 0.44941 0.17313 0.0
H618 H 0.56165 0.54132 0.24483 0.0
H619 H 0.58843 0.5085 0.22421 0.0
C620 C 0.37227 0.4185 0.38447 0.0
C621 C 0.33255 0.41673 0.38691 0.0
C622 C 0.38818 0.43615 0.37149 0.0
C623 C 0.36265 0.48179 0.33062 0.0
H624 H 0.46123 0.50895 0.34597 0.0
C625 C 0.42988 0.57121 0.29829 0.0
C626 C 0.46509 0.56775 0.28831 0.0
C627 C 0.41284 0.55242 0.3096 0.0
C628 C 0.43372 0.50144 0.34153 0.0
H629 H 0.27813 0.43182 0.37796 0.0
H630 H 0.30563 0.46347 0.35611 0.0
H631 H 0.43299 0.47703 0.36715 0.0
H632 H 0.51053 0.54206 0.28275 0.0
H633 H 0.48167 0.5097 0.30348 0.0
H634 H 0.36311 0.50734 0.30548 0.0
C635 C 0.32477 0.45079 0.36348 0.0
C636 C 0.41758 0.48295 0.35352 0.0
C637 C 0.30889 0.43275 0.3761 0.0
C638 C 0.4834 0.54531 0.2903 0.0
C639 C 0.4669 0.52678 0.30207 0.0
C640 C 0.37846 0.50069 0.31891 0.0
C641 C 0.36472 0.45288 0.36106 0.0
C642 C 0.38188 0.47269 0.34819 0.0
C643 C 0.43139 0.53014 0.31168 0.0
C644 C 0.4142 0.51052 0.32422 0.0
H645 H 0.39101 0.40619 0.39263 0.0
H646 H 0.41893 0.43662 0.3697 0.0
H647 H 0.33554 0.47418 0.32568 0.0
H648 H 0.41565 0.58849 0.29751 0.0
H649 H 0.38557 0.55545 0.31708 0.0
C650 C 0.21075 0.08123 0.87201 0.0
C651 C 0.1867 0.09566 0.88416 0.0
C652 C 0.19555 0.06226 0.86015 0.0
C653 C 0.10767 0.02396 0.85565 0.0
H654 H 0.15221 0.00534 0.803 0.0
C655 C 0.03369 0.95914 0.79774 0.0
C656 C 0.05591 0.93982 0.79045 0.0
C657 C 0.05047 0.9779 0.80913 0.0
C658 C 0.1397 0.0103 0.81775 0.0
H659 H 0.12801 0.10246 0.89281 0.0
H660 H 0.10116 0.07021 0.87148 0.0
H661 H 0.17955 0.03934 0.82231 0.0
H662 H 0.11295 0.92466 0.79032 0.0
H663 H 0.14253 0.9581 0.80934 0.0
H664 H 0.06706 0.99537 0.85063 0.0
C665 C 0.13188 0.07271 0.87164 0.0
C666 C 0.1554 0.0297 0.82889 0.0
C667 C 0.14716 0.09135 0.88375 0.0
C668 C 0.09522 0.93961 0.79507 0.0
C669 C 0.11215 0.95865 0.80609 0.0
C670 C 0.09163 0.00488 0.84435 0.0
C671 C 0.15588 0.0576 0.85995 0.0
C672 C 0.13952 0.03685 0.84799 0.0
C673 C 0.08988 0.97792 0.81327 0.0
C674 C 0.10745 0.9979 0.82531 0.0
H675 H 0.2414 0.08415 0.87222 0.0
H676 H 0.21505 0.05089 0.85159 0.0
H677 H 0.09519 0.0284 0.87052 0.0
H678 H 0.00333 0.95993 0.7945 0.0
H679 H 0.03272 0.99262 0.81445 0.0
C680 C 0.18637 0.15216 0.96567 0.0
C681 C 0.19855 0.13144 0.955 0.0
C682 C 0.17564 0.1507 0.98656 0.0
C683 C 0.18497 0.11273 0.03352 0.0
H684 H 0.0892 0.14198 0.04989 0.0
C685 C 0.06708 0.10256 0.10281 0.0
C686 C 0.09093 0.10273 0.12038 0.0
C687 C 0.08168 0.10842 0.08325 0.0
C688 C 0.11599 0.13371 0.04554 0.0
H689 H 0.21046 0.09319 0.95804 0.0
H690 H 0.19166 0.09061 0.99437 0.0
H691 H 0.11307 0.1478 0.01462 0.0
H692 H 0.1488 0.10927 0.13121 0.0
H693 H 0.17429 0.1196 0.09703 0.0
H694 H 0.18743 0.09811 0.06425 0.0
C695 C 0.19038 0.10799 0.98666 0.0
C696 C 0.12986 0.13725 0.02542 0.0
C697 C 0.20079 0.10941 0.96579 0.0
C698 C 0.12964 0.10914 0.11799 0.0
C699 C 0.1443 0.11485 0.0984 0.0
C700 C 0.17123 0.10931 0.05367 0.0
C701 C 0.17731 0.12854 0.99723 0.0
C702 C 0.16422 0.12649 0.01909 0.0
C703 C 0.12052 0.11444 0.08079 0.0
C704 C 0.13632 0.11948 0.05982 0.0
H705 H 0.18421 0.16936 0.95771 0.0
H706 H 0.16595 0.16689 0.99435 0.0
H707 H 0.21171 0.10439 0.02916 0.0
H708 H 0.03705 0.09795 0.10418 0.0
H709 H 0.06269 0.1077 0.06997 0.0
C710 C 0.31911 0.36809 0.47311 0.0
C711 C 0.31466 0.38822 0.45998 0.0
C712 C 0.32615 0.37119 0.49436 0.0
C713 C 0.31777 0.41694 0.53633 0.0
H714 H 0.39003 0.37633 0.56556 0.0
C715 C 0.37454 0.44276 0.61672 0.0
C716 C 0.37412 0.4248 0.63217 0.0
C717 C 0.36824 0.43682 0.59595 0.0
C718 C 0.36952 0.38765 0.55762 0.0
H719 H 0.31363 0.42744 0.45914 0.0
H720 H 0.32709 0.43283 0.4958 0.0
H721 H 0.37649 0.36878 0.52883 0.0
H722 H 0.36838 0.38625 0.63766 0.0
H723 H 0.35786 0.3758 0.60112 0.0
H724 H 0.31131 0.43608 0.56493 0.0
C725 C 0.32459 0.41459 0.48981 0.0
C726 C 0.36167 0.38331 0.5366 0.0
C727 C 0.31742 0.4115 0.46866 0.0
C728 C 0.36903 0.40052 0.62616 0.0
C729 C 0.36293 0.39453 0.60525 0.0
C730 C 0.32582 0.42137 0.55721 0.0
C731 C 0.32888 0.39451 0.503 0.0
C732 C 0.33602 0.39812 0.52562 0.0
C733 C 0.36163 0.41272 0.59 0.0
C734 C 0.35211 0.40699 0.56804 0.0
H735 H 0.31754 0.34989 0.46693 0.0
H736 H 0.32899 0.35531 0.50405 0.0
H737 H 0.29713 0.42833 0.52858 0.0
H738 H 0.37938 0.46156 0.6207 0.0
H739 H 0.3683 0.45117 0.58451 0.0
C740 C 0.71354 0.36598 0.03885 0.0
C741 C 0.68614 0.3681 0.05464 0.0
C742 C 0.70227 0.36458 0.01804 0.0
C743 C 0.61848 0.37571 0.98329 0.0
H744 H 0.6762 0.3366 0.94463 0.0
C745 C 0.56316 0.34808 0.90189 0.0
C746 C 0.58854 0.35166 0.88528 0.0
C747 C 0.57557 0.35107 0.92237 0.0
C748 C 0.66001 0.34774 0.95524 0.0
H749 H 0.62553 0.36979 0.06115 0.0
H750 H 0.60565 0.36638 0.02502 0.0
H751 H 0.69656 0.3392 0.98078 0.0
H752 H 0.64678 0.36102 0.877 0.0
H753 H 0.66878 0.36575 0.91294 0.0
H754 H 0.58118 0.38344 0.95773 0.0
C755 C 0.63594 0.36665 0.02849 0.0
C756 C 0.67173 0.34935 0.97597 0.0
C757 C 0.64726 0.36844 0.04925 0.0
C758 C 0.62661 0.35827 0.88954 0.0
C759 C 0.63922 0.36082 0.91005 0.0
C760 C 0.60645 0.37377 0.96265 0.0
C761 C 0.66327 0.36488 0.01253 0.0
C762 C 0.6511 0.36334 0.99033 0.0
C763 C 0.61379 0.35728 0.92666 0.0
C764 C 0.62707 0.35975 0.94844 0.0
H765 H 0.74374 0.36594 0.04259 0.0
H766 H 0.72426 0.36367 0.00626 0.0
H767 H 0.60228 0.38712 0.99366 0.0
H768 H 0.5336 0.34312 0.89902 0.0
H769 H 0.55544 0.3481 0.93489 0.0
C770 C 0.82746 0.12048 0.54026 0.0
C771 C 0.83489 0.13956 0.55408 0.0
C772 C 0.83765 0.12246 0.51932 0.0
C773 C 0.86626 0.16833 0.47945 0.0
H774 H 0.8974 0.11166 0.4485 0.0
C775 C 0.93782 0.17351 0.39885 0.0
C776 C 0.92022 0.15969 0.3831 0.0
C777 C 0.9276 0.17035 0.41964 0.0
C778 C 0.88858 0.12759 0.45697 0.0
H779 H 0.8597 0.17533 0.55712 0.0
H780 H 0.87907 0.17849 0.52094 0.0
H781 H 0.87993 0.10764 0.48501 0.0
H782 H 0.87829 0.1313 0.37726 0.0
H783 H 0.8618 0.12517 0.4137 0.0
H784 H 0.87638 0.18831 0.45146 0.0
C785 C 0.86407 0.16231 0.52588 0.0
C786 C 0.87832 0.12532 0.47788 0.0
C787 C 0.85323 0.16049 0.5467 0.0
C788 C 0.89297 0.14205 0.38887 0.0
C789 C 0.88329 0.1386 0.40974 0.0
C790 C 0.87721 0.17063 0.4587 0.0
C791 C 0.85615 0.14342 0.51181 0.0
C792 C 0.86699 0.14568 0.48945 0.0
C793 C 0.90012 0.15296 0.42527 0.0
C794 C 0.88845 0.15031 0.44726 0.0
H795 H 0.81306 0.10422 0.54557 0.0
H796 H 0.83038 0.10768 0.509 0.0
H797 H 0.85683 0.18436 0.48755 0.0
H798 H 0.9596 0.18683 0.39519 0.0
H799 H 0.94136 0.18143 0.43137 0.0
C800 C 0.87295 0.8775 0.04524 0.0
C801 C 0.83577 0.87215 0.05224 0.0
C802 C 0.88139 0.87759 0.02401 0.0
C803 C 0.84378 0.85743 0.97262 0.0
H804 H 0.90605 0.91011 0.95133 0.0
C805 C 0.83751 0.8896 0.88785 0.0
C806 C 0.87125 0.89741 0.87804 0.0
C807 C 0.83774 0.88287 0.90873 0.0
C808 C 0.88917 0.89503 0.95704 0.0
H809 H 0.77832 0.86274 0.04232 0.0
H810 H 0.79283 0.86309 0.00541 0.0
H811 H 0.89768 0.90553 0.98869 0.0
H812 H 0.93198 0.90352 0.88219 0.0
H813 H 0.93245 0.89179 0.91894 0.0
H814 H 0.83426 0.84747 0.94089 0.0
C815 C 0.81577 0.86672 0.0163 0.0
C816 C 0.88434 0.89239 0.97848 0.0
C817 C 0.80739 0.86656 0.03751 0.0
C818 C 0.90561 0.89748 0.88936 0.0
C819 C 0.90578 0.89097 0.9104 0.0
C820 C 0.84847 0.86015 0.95119 0.0
C821 C 0.85281 0.8724 0.00924 0.0
C822 C 0.86095 0.87383 0.98654 0.0
C823 C 0.87169 0.88394 0.92039 0.0
C824 C 0.8706 0.87926 0.94313 0.0
H825 H 0.8956 0.88157 0.0562 0.0
H826 H 0.91034 0.88171 0.01916 0.0
H827 H 0.82626 0.84261 0.97826 0.0
H828 H 0.81066 0.88923 0.87945 0.0
H829 H 0.81093 0.87778 0.91595 0.0
C830 C 0.69008 0.6448 0.54059 0.0
C831 C 0.70588 0.62478 0.55086 0.0
C832 C 0.67885 0.64307 0.51978 0.0
C833 C 0.69185 0.60662 0.47214 0.0
H834 H 0.59248 0.6317 0.45683 0.0
C835 C 0.57384 0.59392 0.40277 0.0
C836 C 0.59738 0.59571 0.38517 0.0
C837 C 0.58814 0.5995 0.42248 0.0
C838 C 0.62026 0.62457 0.46087 0.0
H839 H 0.72354 0.58754 0.54713 0.0
H840 H 0.70373 0.58445 0.51094 0.0
H841 H 0.61637 0.63756 0.4921 0.0
H842 H 0.65442 0.60487 0.37448 0.0
H843 H 0.67933 0.61478 0.4089 0.0
H844 H 0.69535 0.5931 0.44107 0.0
C845 C 0.70009 0.60151 0.51892 0.0
C846 C 0.63413 0.62815 0.48102 0.0
C847 C 0.71109 0.60321 0.53972 0.0
C848 C 0.63547 0.60347 0.38771 0.0
C849 C 0.64984 0.60893 0.40745 0.0
C850 C 0.67807 0.60315 0.45197 0.0
C851 C 0.68347 0.62133 0.50875 0.0
C852 C 0.66989 0.61896 0.48696 0.0
C853 C 0.62638 0.60691 0.42507 0.0
C854 C 0.64192 0.61183 0.44617 0.0
H855 H 0.68549 0.66163 0.54879 0.0
H856 H 0.66644 0.65872 0.51233 0.0
H857 H 0.71967 0.59952 0.47617 0.0
H858 H 0.54426 0.58824 0.40131 0.0
H859 H 0.56941 0.59753 0.43575 0.0
C860 C 0.33926 0.61873 0.96653 0.0
C861 C 0.33736 0.63997 0.95455 0.0
C862 C 0.34934 0.61974 0.98753 0.0
C863 C 0.34908 0.66142 0.03187 0.0
H864 H 0.41497 0.61405 0.05784 0.0
C865 C 0.3871 0.66991 0.11783 0.0
C866 C 0.38509 0.6487 0.12975 0.0
C867 C 0.38734 0.66873 0.09621 0.0
C868 C 0.3963 0.62731 0.05085 0.0
H869 H 0.34594 0.67884 0.95518 0.0
H870 H 0.36318 0.68061 0.99184 0.0
H871 H 0.40319 0.61219 0.02043 0.0
H872 H 0.38354 0.60963 0.1286 0.0
H873 H 0.38313 0.60743 0.09062 0.0
H874 H 0.34122 0.67623 0.06212 0.0
C875 C 0.35639 0.6632 0.98502 0.0
C876 C 0.38958 0.62626 0.02942 0.0
C877 C 0.34643 0.66219 0.96402 0.0
C878 C 0.38539 0.6262 0.11969 0.0
C879 C 0.38516 0.625 0.09796 0.0
C880 C 0.35562 0.66241 0.05322 0.0
C881 C 0.35762 0.64201 0.99708 0.0
C882 C 0.36586 0.64331 0.01971 0.0
C883 C 0.38494 0.64631 0.08596 0.0
C884 C 0.37932 0.64541 0.06303 0.0
H885 H 0.33195 0.60134 0.95983 0.0
H886 H 0.34952 0.60313 0.99644 0.0
H887 H 0.33005 0.67454 0.02497 0.0
H888 H 0.38719 0.68747 0.1253 0.0
H889 H 0.38827 0.68548 0.08751 0.0
C890 C 0.216 0.866 0.46938 0.0
C891 C 0.18948 0.87288 0.4541 0.0
C892 C 0.20631 0.86679 0.49042 0.0
C893 C 0.14053 0.89681 0.52657 0.0
H894 H 0.17512 0.8477 0.5651 0.0
C895 C 0.14676 0.91184 0.61502 0.0
C896 C 0.1373 0.89245 0.62819 0.0
C897 C 0.14858 0.90854 0.59356 0.0
C898 C 0.16484 0.86142 0.55452 0.0
H899 H 0.13144 0.88512 0.44898 0.0
H900 H 0.11464 0.88662 0.48568 0.0
H901 H 0.18698 0.84283 0.52802 0.0
H902 H 0.12139 0.85453 0.62913 0.0
H903 H 0.12424 0.84878 0.59151 0.0
H904 H 0.1185 0.91544 0.55306 0.0
C905 C 0.14313 0.88097 0.48139 0.0
C906 C 0.17203 0.85877 0.5333 0.0
C907 C 0.1528 0.88014 0.46036 0.0
C908 C 0.12856 0.86984 0.61937 0.0
C909 C 0.13057 0.8665 0.59786 0.0
C910 C 0.13346 0.8995 0.54779 0.0
C911 C 0.16988 0.8745 0.49668 0.0
C912 C 0.16033 0.87656 0.5191 0.0
C913 C 0.14107 0.88575 0.58474 0.0
C914 C 0.14592 0.88198 0.56204 0.0
H915 H 0.24465 0.86062 0.46513 0.0
H916 H 0.22777 0.86201 0.5018 0.0
H917 H 0.13139 0.91095 0.51609 0.0
H918 H 0.15327 0.92955 0.62134 0.0
H919 H 0.15707 0.9237 0.58393 0.0
C920 C 0.20003 0.31223 0.38403 0.0
C921 C 0.23984 0.30886 0.38431 0.0
C922 C 0.1765 0.29747 0.37169 0.0
C923 C 0.1803 0.25348 0.32777 0.0
H924 H 0.08238 0.23173 0.34922 0.0
C925 C 0.10212 0.17 0.29567 0.0
C926 C 0.06308 0.17222 0.29087 0.0
C927 C 0.12142 0.18824 0.30643 0.0
C928 C 0.10945 0.23789 0.34294 0.0
H929 H 0.28588 0.28664 0.37284 0.0
H930 H 0.2451 0.26065 0.35173 0.0
H931 H 0.12057 0.26083 0.36906 0.0
H932 H 0.01349 0.19517 0.29419 0.0
H933 H 0.04709 0.22678 0.31386 0.0
H934 H 0.16971 0.22984 0.30204 0.0
C935 C 0.23199 0.27525 0.36028 0.0
C936 C 0.13134 0.25463 0.35426 0.0
C937 C 0.25544 0.29008 0.37245 0.0
C938 C 0.04344 0.1928 0.29779 0.0
C939 C 0.0627 0.21094 0.30894 0.0
C940 C 0.15865 0.23659 0.31662 0.0
C941 C 0.19218 0.27873 0.35967 0.0
C942 C 0.16736 0.26236 0.34697 0.0
C943 C 0.10204 0.20897 0.31308 0.0
C944 C 0.12328 0.22835 0.32422 0.0
H945 H 0.18704 0.32617 0.39341 0.0
H946 H 0.14603 0.30079 0.37157 0.0
H947 H 0.20738 0.25943 0.32138 0.0
H948 H 0.11801 0.15418 0.291 0.0
H949 H 0.15159 0.18602 0.3097 0.0
C950 C 0.35096 0.1823 0.86948 0.0
C951 C 0.31893 0.18727 0.88184 0.0
C952 C 0.36768 0.20046 0.85735 0.0
C953 C 0.34839 0.25937 0.83304 0.0
H954 H 0.4588 0.26619 0.83281 0.0
C955 C 0.42498 0.34152 0.79584 0.0
C956 C 0.45936 0.33732 0.7853 0.0
C957 C 0.40734 0.32302 0.80717 0.0
C958 C 0.42796 0.26434 0.83243 0.0
H959 H 0.28024 0.21533 0.89191 0.0
H960 H 0.30915 0.24707 0.87048 0.0
H961 H 0.42894 0.2342 0.85329 0.0
H962 H 0.50221 0.31053 0.77812 0.0
H963 H 0.47139 0.27811 0.79775 0.0
H964 H 0.34736 0.28933 0.81201 0.0
C965 C 0.32086 0.22901 0.86986 0.0
C966 C 0.41086 0.24603 0.84423 0.0
C967 C 0.30434 0.21088 0.88213 0.0
C968 C 0.47582 0.31429 0.78625 0.0
C969 C 0.4582 0.29576 0.79755 0.0
C970 C 0.3655 0.27759 0.82111 0.0
C971 C 0.35279 0.22401 0.85739 0.0
C972 C 0.37089 0.24337 0.8447 0.0
C973 C 0.42381 0.29991 0.80824 0.0
C974 C 0.40552 0.28034 0.8207 0.0
H975 H 0.36316 0.16436 0.86925 0.0
H976 H 0.39215 0.19603 0.84783 0.0
H977 H 0.31754 0.25759 0.8329 0.0
H978 H 0.41204 0.35925 0.79563 0.0
H979 H 0.38122 0.32701 0.81545 0.0
C980 C 0.74709 0.20338 0.65451 0.0
C981 C 0.76024 0.20841 0.63439 0.0
C982 C 0.72105 0.21878 0.66419 0.0
C983 C 0.68672 0.28165 0.6625 0.0
H984 H 0.60509 0.25695 0.69738 0.0
C985 C 0.57521 0.34472 0.69966 0.0
C986 C 0.56549 0.34008 0.72043 0.0
C987 C 0.59687 0.32813 0.6884 0.0
C988 C 0.62796 0.26414 0.68784 0.0
H989 H 0.75501 0.2325 0.60809 0.0
H990 H 0.70931 0.25945 0.62491 0.0
H991 H 0.64637 0.22876 0.67899 0.0
H992 H 0.56995 0.31419 0.74555 0.0
H993 H 0.60829 0.28539 0.72603 0.0
H994 H 0.66868 0.31701 0.67151 0.0
C995 C 0.71977 0.24396 0.63344 0.0
C996 C 0.6516 0.24798 0.67729 0.0
C997 C 0.74577 0.22853 0.62377 0.0
C998 C 0.57725 0.31832 0.7296 0.0
C999 C 0.59892 0.30173 0.71835 0.0
C1000 C 0.66313 0.2978 0.67306 0.0
C1001 C 0.70744 0.23944 0.65386 0.0
C1002 C 0.68139 0.25654 0.66456 0.0
C1003 C 0.60925 0.3065 0.69765 0.0
C1004 C 0.63356 0.28925 0.68594 0.0
H1005 H 0.75756 0.18777 0.66287 0.0
H1006 H 0.71235 0.21483 0.67996 0.0
H1007 H 0.70978 0.28887 0.65311 0.0
H1008 H 0.56656 0.36136 0.69219 0.0
H1009 H 0.60388 0.33223 0.67241 0.0
C1010 C 0.81287 0.32375 0.14984 0.0
C1011 C 0.81598 0.32346 0.12813 0.0
C1012 C 0.82955 0.30551 0.1618 0.0
C1013 C 0.90496 0.25923 0.15978 0.0
H1014 H 0.85179 0.23157 0.20701 0.0
C1015 C 0.96184 0.17532 0.20248 0.0
C1016 C 0.95907 0.17471 0.22424 0.0
C1017 C 0.94375 0.19341 0.19106 0.0
C1018 C 0.86724 0.23931 0.19403 0.0
H1019 H 0.83756 0.30352 0.10177 0.0
H1020 H 0.86676 0.2716 0.12259 0.0
H1021 H 0.82119 0.26313 0.18649 0.0
H1022 H 0.935 0.19278 0.25105 0.0
H1023 H 0.90378 0.22456 0.2311 0.0
H1024 H 0.95108 0.23561 0.16732 0.0
C1025 C 0.85209 0.28614 0.13045 0.0
C1026 C 0.84966 0.25738 0.18225 0.0
C1027 C 0.83529 0.30433 0.11852 0.0
C1028 C 0.93759 0.19262 0.2343 0.0
C1029 C 0.91953 0.21079 0.22285 0.0
C1030 C 0.92256 0.24124 0.17157 0.0
C1031 C 0.84962 0.28657 0.15225 0.0
C1032 C 0.86827 0.26748 0.16493 0.0
C1033 C 0.92252 0.21147 0.20108 0.0
C1034 C 0.90388 0.23095 0.1888 0.0
H1035 H 0.79777 0.33823 0.15755 0.0
H1036 H 0.82732 0.30647 0.17854 0.0
H1037 H 0.92038 0.26693 0.14677 0.0
H1038 H 0.9779 0.16175 0.19417 0.0
H1039 H 0.94613 0.19309 0.17431 0.0
C1040 C 0.76426 0.72821 0.62806 0.0
C1041 C 0.76957 0.70315 0.62982 0.0
C1042 C 0.78776 0.74432 0.63898 0.0
C1043 C 0.88122 0.74983 0.66496 0.0
H1044 H 0.83422 0.80423 0.69274 0.0
C1045 C 0.96574 0.81471 0.71933 0.0
C1046 C 0.95625 0.83929 0.71841 0.0
C1047 C 0.94377 0.79753 0.70859 0.0
C1048 C 0.8479 0.78932 0.68486 0.0
H1049 H 0.80263 0.67524 0.64494 0.0
H1050 H 0.84421 0.70346 0.66386 0.0
H1051 H 0.79436 0.77543 0.6738 0.0
H1052 H 0.9177 0.86544 0.70495 0.0
H1053 H 0.8799 0.83569 0.68585 0.0
H1054 H 0.93484 0.7639 0.6758 0.0
C1055 C 0.8223 0.71063 0.65374 0.0
C1056 C 0.82502 0.77279 0.67404 0.0
C1057 C 0.79856 0.69449 0.64293 0.0
C1058 C 0.92534 0.84653 0.70606 0.0
C1059 C 0.90355 0.82945 0.69525 0.0
C1060 C 0.90418 0.76647 0.6757 0.0
C1061 C 0.817 0.73573 0.65197 0.0
C1062 C 0.84142 0.75294 0.66385 0.0
C1063 C 0.91213 0.80469 0.69659 0.0
C1064 C 0.88782 0.78653 0.68565 0.0
H1065 H 0.7417 0.73534 0.61834 0.0
H1066 H 0.78312 0.76356 0.63718 0.0
H1067 H 0.89472 0.73482 0.65712 0.0
H1068 H 0.98928 0.80868 0.72893 0.0
H1069 H 0.95096 0.77861 0.71014 0.0
C1070 C 0.72744 0.79934 0.12776 0.0
C1071 C 0.71044 0.82214 0.12539 0.0
C1072 C 0.70936 0.78124 0.13942 0.0
C1073 C 0.61479 0.76113 0.15751 0.0
H1074 H 0.67209 0.72374 0.19767 0.0
C1075 C 0.54093 0.69272 0.21261 0.0
C1076 C 0.56043 0.67125 0.21716 0.0
C1077 C 0.55912 0.71138 0.20166 0.0
C1078 C 0.65573 0.73376 0.18633 0.0
H1079 H 0.66037 0.84341 0.13242 0.0
H1080 H 0.62865 0.81176 0.15273 0.0
H1081 H 0.7042 0.75557 0.17797 0.0
H1082 H 0.61395 0.65223 0.21331 0.0
H1083 H 0.6454 0.68444 0.19398 0.0
H1084 H 0.56649 0.73911 0.16548 0.0
C1085 C 0.65622 0.80801 0.14585 0.0
C1086 C 0.67416 0.75206 0.17508 0.0
C1087 C 0.67447 0.82618 0.13437 0.0
C1088 C 0.59828 0.66868 0.21027 0.0
C1089 C 0.6164 0.68724 0.19926 0.0
C1090 C 0.59642 0.74269 0.16861 0.0
C1091 C 0.67349 0.78535 0.14854 0.0
C1092 C 0.6539 0.76596 0.16056 0.0
C1093 C 0.59715 0.7089 0.19486 0.0
C1094 C 0.61663 0.72874 0.18317 0.0
H1095 H 0.75463 0.79544 0.12052 0.0
H1096 H 0.72308 0.76382 0.14092 0.0
H1097 H 0.59852 0.77132 0.14623 0.0
H1098 H 0.51186 0.69534 0.21789 0.0
H1099 H 0.54355 0.72791 0.19886 0.0
C1100 C 0.26872 0.8015 0.35385 0.0
C1101 C 0.26506 0.80048 0.37551 0.0
C1102 C 0.29525 0.78693 0.34365 0.0
C1103 C 0.35084 0.73088 0.35056 0.0
H1104 H 0.40528 0.75419 0.30206 0.0
C1105 C 0.46295 0.67281 0.30773 0.0
C1106 C 0.46016 0.6725 0.28596 0.0
C1107 C 0.44197 0.68941 0.3194 0.0
C1108 C 0.39012 0.74737 0.31551 0.0
H1109 H 0.28732 0.78455 0.40366 0.0
H1110 H 0.33414 0.75917 0.38592 0.0
H1111 H 0.36378 0.78155 0.32116 0.0
H1112 H 0.43363 0.68981 0.25939 0.0
H1113 H 0.39712 0.71859 0.27971 0.0
H1114 H 0.37702 0.69665 0.3448 0.0
C1115 C 0.31588 0.77074 0.37672 0.0
C1116 C 0.36628 0.76304 0.32645 0.0
C1117 C 0.28928 0.7853 0.3869 0.0
C1118 C 0.43651 0.68949 0.27613 0.0
C1119 C 0.41571 0.70613 0.28777 0.0
C1120 C 0.37478 0.71523 0.33966 0.0
C1121 C 0.31895 0.77119 0.35494 0.0
C1122 C 0.34599 0.75492 0.34397 0.0
C1123 C 0.41794 0.70618 0.30955 0.0
C1124 C 0.39436 0.72322 0.32187 0.0
H1125 H 0.25062 0.8133 0.34477 0.0
H1126 H 0.29654 0.7876 0.32687 0.0
H1127 H 0.33525 0.7239 0.3638 0.0
H1128 H 0.48091 0.66 0.31582 0.0
H1129 H 0.4446 0.68915 0.33615 0.0
C1130 C 0.19753 0.71216 0.89448 0.0
C1131 C 0.2069 0.69013 0.88501 0.0
C1132 C 0.17981 0.73047 0.88306 0.0
C1133 C 0.12244 0.73995 0.83557 0.0
H1134 H 0.15016 0.80739 0.84315 0.0
C1135 C 0.06772 0.81441 0.78083 0.0
C1136 C 0.05688 0.83658 0.7896 0.0
C1137 C 0.08603 0.79693 0.79282 0.0
C1138 C 0.14176 0.78866 0.84104 0.0
H1139 H 0.20717 0.67033 0.85606 0.0
H1140 H 0.17639 0.70232 0.83597 0.0
H1141 H 0.18293 0.7763 0.86322 0.0
H1142 H 0.05625 0.8577 0.81791 0.0
H1143 H 0.08795 0.82697 0.83903 0.0
H1144 H 0.08131 0.75223 0.81343 0.0
C1145 C 0.18176 0.70529 0.85234 0.0
C1146 C 0.16057 0.77084 0.85252 0.0
C1147 C 0.1995 0.68702 0.86376 0.0
C1148 C 0.0644 0.8408 0.81072 0.0
C1149 C 0.08279 0.82328 0.82275 0.0
C1150 C 0.10365 0.75774 0.82411 0.0
C1151 C 0.17135 0.72716 0.86189 0.0
C1152 C 0.15126 0.74624 0.84985 0.0
C1153 C 0.0938 0.80111 0.81394 0.0
C1154 C 0.1132 0.78231 0.82661 0.0
H1155 H 0.20348 0.71507 0.9108 0.0
H1156 H 0.17204 0.74702 0.89093 0.0
H1157 H 0.11401 0.72124 0.83341 0.0
H1158 H 0.06194 0.81049 0.76465 0.0
H1159 H 0.09448 0.7802 0.78546 0.0
loop_
_geom_bond_atom_site_label_1
_geom_bond_atom_site_label_2
_geom_bond_distance
_geom_bond_site_symmetry_2
_ccdc_geom_bond_type
H0 C7 0.929 . S
H1 C10 0.930 . S
H2 C12 0.929 . S
H3 C4 0.969 . S
C4 H3 0.969 . S
C4 O5 1.550 . S
C4 H6 0.973 . S
O5 C4 1.550 . S
O5 C11 1.412 . S
H6 C4 0.973 . S
C7 H0 0.929 . S
C7 C8 1.400 . S
C7 C9 1.364 . S
C8 C7 1.400 . S
C8 C12 1.377 . S
C9 C7 1.364 . S
C9 C10 1.374 . S
C10 H1 0.930 . S
C10 C9 1.374 . S
C10 C11 1.383 . S
C11 O5 1.412 . S
C11 C10 1.383 . S
C11 C12 1.394 . S
C12 H2 0.929 . S
C12 C8 1.377 . S
C12 C11 1.394 . S
H13 C20 0.929 . S
H14 C23 0.930 . S
H15 C25 0.929 . S
H16 C17 0.969 . S
C17 H16 0.969 . S
C17 O18 1.550 . S
C17 H19 0.973 . S
O18 C17 1.550 . S
O18 C24 1.412 . S
H19 C17 0.973 . S
C20 H13 0.929 . S
C20 C21 1.400 . S
C20 C22 1.364 . S
C21 C20 1.400 . S
C21 C25 1.377 . S
C22 C20 1.364 . S
C22 C23 1.374 . S
C23 H14 0.930 . S
C23 C22 1.374 . S
C23 C24 1.383 . S
C24 O18 1.412 . S
C24 C23 1.383 . S
C24 C25 1.394 . S
C25 H15 0.929 . S
C25 C21 1.377 . S
C25 C24 1.394 . S
H26 C33 0.929 . S
H27 C36 0.930 . S
H28 C38 0.929 . S
H29 C30 0.969 . S
C30 H29 0.969 . S
C30 O31 1.550 . S
C30 H32 0.973 . S
O31 C30 1.550 . S
O31 C37 1.412 . S
H32 C30 0.973 . S
C33 H26 0.929 . S
C33 C34 1.400 . S
C33 C35 1.364 . S
C34 C33 1.400 . S
C34 C38 1.377 . S
C35 C33 1.364 . S
C35 C36 1.374 . S
C36 H27 0.930 . S
C36 C35 1.374 . S
C36 C37 1.383 . S
C37 O31 1.412 . S
C37 C36 1.383 . S
C37 C38 1.394 . S
C38 H28 0.929 . S
C38 C34 1.377 . S
C38 C37 1.394 . S
H39 C46 0.929 . S
H40 C49 0.930 . S
H41 C51 0.929 . S
H42 C43 0.969 . S
C43 H42 0.969 . S
C43 O44 1.550 . S
C43 H45 0.973 . S
O44 C43 1.550 . S
O44 C50 1.412 . S
H45 C43 0.973 . S
C46 H39 0.929 . S
C46 C47 1.400 . S
C46 C48 1.364 . S
C47 C46 1.400 . S
C47 C51 1.377 . S
C48 C46 1.364 . S
C48 C49 1.374 . S
C49 H40 0.930 . S
C49 C48 1.374 . S
C49 C50 1.383 . S
C50 O44 1.412 . S
C50 C49 1.383 . S
C50 C51 1.394 . S
C51 H41 0.929 . S
C51 C47 1.377 . S
C51 C50 1.394 . S
H52 C59 0.929 . S
H53 C62 0.930 . S
H54 C64 0.929 . S
H55 C56 0.969 . S
C56 H55 0.969 . S
C56 O57 1.550 . S
C56 H58 0.973 . S
O57 C56 1.550 . S
O57 C63 1.412 . S
H58 C56 0.973 . S
C59 H52 0.929 . S
C59 C60 1.400 . S
C59 C61 1.364 . S
C60 C59 1.400 . S
C60 C64 1.377 . S
C61 C59 1.364 . S
C61 C62 1.374 . S
C62 H53 0.930 . S
C62 C61 1.374 . S
C62 C63 1.383 . S
C63 O57 1.412 . S
C63 C62 1.383 . S
C63 C64 1.394 . S
C64 H54 0.929 . S
C64 C60 1.377 . S
C64 C63 1.394 . S
H65 C72 0.929 . S
H66 C75 0.930 . S
H67 C77 0.929 . S
H68 C69 0.969 . S
C69 H68 0.969 . S
C69 O70 1.550 . S
C69 H71 0.973 . S
O70 C69 1.550 . S
O70 C76 1.412 . S
H71 C69 0.973 . S
C72 H65 0.929 . S
C72 C73 1.400 . S
C72 C74 1.364 . S
C73 C72 1.400 . S
C73 C77 1.377 . S
C74 C72 1.364 . S
C74 C75 1.374 . S
C75 H66 0.930 . S
C75 C74 1.374 . S
C75 C76 1.383 . S
C76 O70 1.412 . S
C76 C75 1.383 . S
C76 C77 1.394 . S
C77 H67 0.929 . S
C77 C73 1.377 . S
C77 C76 1.394 . S
H78 C85 0.929 . S
H79 C88 0.930 . S
H80 C90 0.929 . S
H81 C82 0.969 . S
C82 H81 0.969 . S
C82 O83 1.550 . S
C82 H84 0.973 . S
O83 C82 1.550 . S
O83 C89 1.412 . S
H84 C82 0.973 . S
C85 H78 0.929 . S
C85 C86 1.400 . S
C85 C87 1.364 . S
C86 C85 1.400 . S
C86 C90 1.377 . S
C87 C85 1.364 . S
C87 C88 1.374 . S
C88 H79 0.930 . S
C88 C87 1.374 . S
C88 C89 1.383 . S
C89 O83 1.412 . S
C89 C88 1.383 . S
C89 C90 1.394 . S
C90 H80 0.929 . S
C90 C86 1.377 . S
C90 C89 1.394 . S
H91 C98 0.929 . S
H92 C101 0.930 . S
H93 C103 0.929 . S
H94 C95 0.969 . S
C95 H94 0.969 . S
C95 O96 1.550 . S
C95 H97 0.973 . S
O96 C95 1.550 . S
O96 C102 1.412 . S
H97 C95 0.973 . S
C98 H91 0.929 . S
C98 C99 1.400 . S
C98 C100 1.364 . S
C99 C98 1.400 . S
C99 C103 1.377 . S
C100 C98 1.364 . S
C100 C101 1.374 . S
C101 H92 0.930 . S
C101 C100 1.374 . S
C101 C102 1.383 . S
C102 O96 1.412 . S
C102 C101 1.383 . S
C102 C103 1.394 . S
C103 H93 0.929 . S
C103 C99 1.377 . S
C103 C102 1.394 . S
Eu104 N133 2.600 . S
Eu104 N139 2.562 . S
Eu104 O148 2.462 . S
Eu104 O149 2.373 . S
Eu104 O151 2.432 . S
Eu104 O152 2.291 . S
Eu104 O156 2.335 . S
Eu104 O159 2.372 . S
Eu104 C168 2.787 . S
C105 N106 1.365 . S
C105 C108 1.405 . S
C105 C112 1.448 . S
N106 C105 1.365 . S
N106 C109 1.319 . S
N106 Eu115 2.600 . S
C107 C109 1.397 . S
C107 C110 1.367 . S
C107 H127 0.931 . S
C108 C105 1.405 . S
C108 C110 1.403 . S
C108 C114 1.439 . S
C109 N106 1.319 . S
C109 C107 1.397 . S
C109 H120 0.930 . S
C110 C107 1.367 . S
C110 C108 1.403 . S
C110 H131 0.929 . S
C111 C112 1.430 . S
C111 C113 1.387 . S
C111 C117 1.404 . S
C112 C105 1.448 . S
C112 C111 1.430 . S
C112 N116 1.351 . S
C113 C111 1.387 . S
C113 C114 1.374 . S
C113 H128 0.931 . S
C114 C108 1.439 . S
C114 C113 1.374 . S
C114 H129 0.931 . S
Eu115 N106 2.600 . S
Eu115 N116 2.562 . S
Eu115 O150 2.335 1_655 S
Eu115 O153 2.372 . S
Eu115 O154 2.462 . S
Eu115 O155 2.373 . S
Eu115 O157 2.432 . S
Eu115 O158 2.291 1_655 S
Eu115 C179 2.787 . S
N116 C112 1.351 . S
N116 Eu115 2.562 . S
N116 C118 1.325 . S
C117 C111 1.404 . S
C117 C119 1.366 . S
C117 H125 0.930 . S
C118 N116 1.325 . S
C118 C119 1.416 . S
C118 H124 0.929 . S
C119 C117 1.366 . S
C119 C118 1.416 . S
C119 H121 0.930 . S
H120 C109 0.930 . S
H121 C119 0.930 . S
H122 C137 0.930 . S
H123 C144 0.930 . S
H124 C118 0.929 . S
H125 C117 0.930 . S
H126 C140 0.929 . S
H127 C107 0.931 . S
H128 C113 0.931 . S
H129 C114 0.931 . S
H130 C135 0.931 . S
H131 C110 0.929 . S
H132 C143 0.930 . S
N133 Eu104 2.600 . S
N133 C134 1.365 . S
N133 C137 1.319 . S
C134 N133 1.365 . S
C134 C136 1.405 . S
C134 C142 1.448 . S
C135 H130 0.931 . S
C135 C137 1.397 . S
C135 C138 1.367 . S
C136 C134 1.405 . S
C136 C138 1.403 . S
C136 C169 1.439 . S
C137 H122 0.930 . S
C137 N133 1.319 . S
C137 C135 1.397 . S
C138 C135 1.367 . S
C138 C136 1.403 . S
C138 H145 0.929 . S
N139 Eu104 2.562 . S
N139 C140 1.325 . S
N139 C142 1.351 . S
C140 H126 0.929 . S
C140 N139 1.325 . S
C140 C144 1.416 . S
C141 C142 1.430 . S
C141 C143 1.404 . S
C141 C170 1.387 . S
C142 C134 1.448 . S
C142 N139 1.351 . S
C142 C141 1.430 . S
C143 H132 0.930 . S
C143 C141 1.404 . S
C143 C144 1.366 . S
C144 H123 0.930 . S
C144 C140 1.416 . S
C144 C143 1.366 . S
H145 C138 0.929 . S
H146 C169 0.931 . S
H147 C170 0.931 . S
O148 Eu104 2.462 . S
O148 C168 1.252 . S
O149 Eu104 2.373 . S
O149 C160 1.249 . S
O150 Eu115 2.335 1_455 S
O150 C160 1.264 . S
O151 Eu104 2.432 . S
O151 C168 1.268 . S
O152 Eu104 2.291 . S
O152 C167 1.255 1_455 S
O153 Eu115 2.372 . S
O153 C167 1.257 . S
O154 Eu115 2.462 . S
O154 C179 1.252 . S
O155 Eu115 2.373 . S
O155 C171 1.249 . S
O156 Eu104 2.335 . S
O156 C171 1.264 1_455 S
O157 Eu115 2.432 . S
O157 C179 1.268 . S
O158 Eu115 2.291 1_455 S
O158 C178 1.255 . S
O159 Eu104 2.372 . S
O159 C178 1.257 . S
C160 O149 1.249 . S
C160 O150 1.264 . S
C161 C164 1.382 . S
C161 C166 1.390 . S
C161 C168 1.506 . S
C162 C163 1.398 . S
C162 C166 1.392 . S
C163 C162 1.398 . S
C163 C165 1.372 . S
C163 H180 0.931 . S
C164 C161 1.382 . S
C164 C165 1.390 . S
C164 H181 0.931 . S
C165 C163 1.372 . S
C165 C164 1.390 . S
C165 H182 0.929 . S
C166 C161 1.390 . S
C166 C162 1.392 . S
C166 H183 0.930 . S
C167 O152 1.255 1_655 S
C167 O153 1.257 . S
C168 Eu104 2.787 . S
C168 O148 1.252 . S
C168 O151 1.268 . S
C168 C161 1.506 . S
C169 C136 1.439 . S
C169 H146 0.931 . S
C169 C170 1.374 . S
C170 C141 1.387 . S
C170 H147 0.931 . S
C170 C169 1.374 . S
C171 O155 1.249 . S
C171 O156 1.264 1_655 S
C172 C175 1.382 . S
C172 C176 1.390 . S
C172 C179 1.506 . S
C173 C174 1.398 . S
C173 C176 1.392 . S
C174 C173 1.398 . S
C174 C177 1.372 . S
C174 H184 0.931 . S
C175 C172 1.382 . S
C175 C177 1.390 . S
C175 H185 0.931 . S
C176 C172 1.390 . S
C176 C173 1.392 . S
C176 H186 0.930 . S
C177 C174 1.372 . S
C177 C175 1.390 . S
C177 H187 0.929 . S
C178 O158 1.255 . S
C178 O159 1.257 . S
C179 Eu115 2.787 . S
C179 O154 1.252 . S
C179 O157 1.268 . S
C179 C172 1.506 . S
H180 C163 0.931 . S
H181 C164 0.931 . S
H182 C165 0.929 . S
H183 C166 0.930 . S
H184 C174 0.931 . S
H185 C175 0.931 . S
H186 C176 0.930 . S
H187 C177 0.929 . S
Eu188 N217 2.600 . S
Eu188 N223 2.562 . S
Eu188 O232 2.462 . S
Eu188 O233 2.373 . S
Eu188 O235 2.432 . S
Eu188 O236 2.291 . S
Eu188 O240 2.335 . S
Eu188 O243 2.372 . S
Eu188 C252 2.787 . S
C189 N190 1.365 . S
C189 C192 1.405 . S
C189 C196 1.448 . S
N190 C189 1.365 . S
N190 C193 1.319 . S
N190 Eu199 2.600 . S
C191 C193 1.397 . S
C191 C194 1.367 . S
C191 H211 0.931 . S
C192 C189 1.405 . S
C192 C194 1.403 . S
C192 C198 1.439 . S
C193 N190 1.319 . S
C193 C191 1.397 . S
C193 H204 0.930 . S
C194 C191 1.367 . S
C194 C192 1.403 . S
C194 H215 0.929 . S
C195 C196 1.430 . S
C195 C197 1.387 . S
C195 C201 1.404 . S
C196 C189 1.448 . S
C196 C195 1.430 . S
C196 N200 1.351 . S
C197 C195 1.387 . S
C197 C198 1.374 . S
C197 H212 0.931 . S
C198 C192 1.439 . S
C198 C197 1.374 . S
C198 H213 0.931 . S
Eu199 N190 2.600 . S
Eu199 N200 2.562 . S
Eu199 O234 2.335 . S
Eu199 O237 2.372 . S
Eu199 O238 2.462 . S
Eu199 O239 2.373 . S
Eu199 O241 2.432 . S
Eu199 O242 2.291 . S
Eu199 C263 2.787 . S
N200 C196 1.351 . S
N200 Eu199 2.562 . S
N200 C202 1.325 . S
C201 C195 1.404 . S
C201 C203 1.366 . S
C201 H209 0.930 . S
C202 N200 1.325 . S
C202 C203 1.416 . S
C202 H208 0.929 . S
C203 C201 1.366 . S
C203 C202 1.416 . S
C203 H205 0.930 . S
H204 C193 0.930 . S
H205 C203 0.930 . S
H206 C221 0.930 . S
H207 C228 0.930 . S
H208 C202 0.929 . S
H209 C201 0.930 . S
H210 C224 0.929 . S
H211 C191 0.931 . S
H212 C197 0.931 . S
H213 C198 0.931 . S
H214 C219 0.931 . S
H215 C194 0.929 . S
H216 C227 0.930 . S
N217 Eu188 2.600 . S
N217 C218 1.365 . S
N217 C221 1.319 . S
C218 N217 1.365 . S
C218 C220 1.405 . S
C218 C226 1.448 . S
C219 H214 0.931 . S
C219 C221 1.397 . S
C219 C222 1.367 . S
C220 C218 1.405 . S
C220 C222 1.403 . S
C220 C253 1.439 . S
C221 H206 0.930 . S
C221 N217 1.319 . S
C221 C219 1.397 . S
C222 C219 1.367 . S
C222 C220 1.403 . S
C222 H229 0.929 . S
N223 Eu188 2.562 . S
N223 C224 1.325 . S
N223 C226 1.351 . S
C224 H210 0.929 . S
C224 N223 1.325 . S
C224 C228 1.416 . S
C225 C226 1.430 . S
C225 C227 1.404 . S
C225 C254 1.387 . S
C226 C218 1.448 . S
C226 N223 1.351 . S
C226 C225 1.430 . S
C227 H216 0.930 . S
C227 C225 1.404 . S
C227 C228 1.366 . S
C228 H207 0.930 . S
C228 C224 1.416 . S
C228 C227 1.366 . S
H229 C222 0.929 . S
H230 C253 0.931 . S
H231 C254 0.931 . S
O232 Eu188 2.462 . S
O232 C252 1.252 . S
O233 Eu188 2.373 . S
O233 C244 1.249 . S
O234 Eu199 2.335 . S
O234 C244 1.264 . S
O235 Eu188 2.432 . S
O235 C252 1.268 . S
O236 Eu188 2.291 . S
O236 C251 1.255 . S
O237 Eu199 2.372 . S
O237 C251 1.257 . S
O238 Eu199 2.462 . S
O238 C263 1.252 . S
O239 Eu199 2.373 . S
O239 C255 1.249 . S
O240 Eu188 2.335 . S
O240 C255 1.264 . S
O241 Eu199 2.432 . S
O241 C263 1.268 . S
O242 Eu199 2.291 . S
O242 C262 1.255 . S
O243 Eu188 2.372 . S
O243 C262 1.257 . S
C244 O233 1.249 . S
C244 O234 1.264 . S
C245 C248 1.382 . S
C245 C250 1.390 . S
C245 C252 1.506 . S
C246 C247 1.398 . S
C246 C250 1.392 . S
C247 C246 1.398 . S
C247 C249 1.372 . S
C247 H264 0.931 . S
C248 C245 1.382 . S
C248 C249 1.390 . S
C248 H265 0.931 . S
C249 C247 1.372 . S
C249 C248 1.390 . S
C249 H266 0.929 . S
C250 C245 1.390 . S
C250 C246 1.392 . S
C250 H267 0.930 . S
C251 O236 1.255 . S
C251 O237 1.257 . S
C252 Eu188 2.787 . S
C252 O232 1.252 . S
C252 O235 1.268 . S
C252 C245 1.506 . S
C253 C220 1.439 . S
C253 H230 0.931 . S
C253 C254 1.374 . S
C254 C225 1.387 . S
C254 H231 0.931 . S
C254 C253 1.374 . S
C255 O239 1.249 . S
C255 O240 1.264 . S
C256 C259 1.382 . S
C256 C260 1.390 . S
C256 C263 1.506 . S
C257 C258 1.398 . S
C257 C260 1.392 . S
C258 C257 1.398 . S
C258 C261 1.372 . S
C258 H268 0.931 . S
C259 C256 1.382 . S
C259 C261 1.390 . S
C259 H269 0.931 . S
C260 C256 1.390 . S
C260 C257 1.392 . S
C260 H270 0.930 . S
C261 C258 1.372 . S
C261 C259 1.390 . S
C261 H271 0.929 . S
C262 O242 1.255 . S
C262 O243 1.257 . S
C263 Eu199 2.787 . S
C263 O238 1.252 . S
C263 O241 1.268 . S
C263 C256 1.506 . S
H264 C247 0.931 . S
H265 C248 0.931 . S
H266 C249 0.929 . S
H267 C250 0.930 . S
H268 C258 0.931 . S
H269 C259 0.931 . S
H270 C260 0.930 . S
H271 C261 0.929 . S
Eu272 N301 2.600 . S
Eu272 N307 2.562 . S
Eu272 O316 2.462 . S
Eu272 O317 2.373 . S
Eu272 O319 2.432 . S
Eu272 O320 2.291 . S
Eu272 O324 2.335 . S
Eu272 O327 2.372 . S
Eu272 C336 2.787 . S
C273 N274 1.365 . S
C273 C276 1.405 . S
C273 C280 1.448 . S
N274 C273 1.365 . S
N274 C277 1.319 . S
N274 Eu283 2.600 . S
C275 C277 1.397 . S
C275 C278 1.367 . S
C275 H295 0.931 . S
C276 C273 1.405 . S
C276 C278 1.403 . S
C276 C282 1.439 . S
C277 N274 1.319 . S
C277 C275 1.397 . S
C277 H288 0.930 . S
C278 C275 1.367 . S
C278 C276 1.403 . S
C278 H299 0.929 . S
C279 C280 1.430 . S
C279 C281 1.387 . S
C279 C285 1.404 . S
C280 C273 1.448 . S
C280 C279 1.430 . S
C280 N284 1.351 . S
C281 C279 1.387 . S
C281 C282 1.374 . S
C281 H296 0.931 . S
C282 C276 1.439 . S
C282 C281 1.374 . S
C282 H297 0.931 . S
Eu283 N274 2.600 . S
Eu283 N284 2.562 . S
Eu283 O318 2.335 1_655 S
Eu283 O321 2.372 . S
Eu283 O322 2.462 . S
Eu283 O323 2.373 . S
Eu283 O325 2.432 . S
Eu283 O326 2.291 1_655 S
Eu283 C347 2.787 . S
N284 C280 1.351 . S
N284 Eu283 2.562 . S
N284 C286 1.325 . S
C285 C279 1.404 . S
C285 C287 1.366 . S
C285 H293 0.930 . S
C286 N284 1.325 . S
C286 C287 1.416 . S
C286 H292 0.929 . S
C287 C285 1.366 . S
C287 C286 1.416 . S
C287 H289 0.930 . S
H288 C277 0.930 . S
H289 C287 0.930 . S
H290 C305 0.930 . S
H291 C312 0.930 . S
H292 C286 0.929 . S
H293 C285 0.930 . S
H294 C308 0.929 . S
H295 C275 0.931 . S
H296 C281 0.931 . S
H297 C282 0.931 . S
H298 C303 0.931 . S
H299 C278 0.929 . S
H300 C311 0.930 . S
N301 Eu272 2.600 . S
N301 C302 1.365 . S
N301 C305 1.319 . S
C302 N301 1.365 . S
C302 C304 1.405 . S
C302 C310 1.448 . S
C303 H298 0.931 . S
C303 C305 1.397 . S
C303 C306 1.367 . S
C304 C302 1.405 . S
C304 C306 1.403 . S
C304 C337 1.439 . S
C305 H290 0.930 . S
C305 N301 1.319 . S
C305 C303 1.397 . S
C306 C303 1.367 . S
C306 C304 1.403 . S
C306 H313 0.929 . S
N307 Eu272 2.562 . S
N307 C308 1.325 . S
N307 C310 1.351 . S
C308 H294 0.929 . S
C308 N307 1.325 . S
C308 C312 1.416 . S
C309 C310 1.430 . S
C309 C311 1.404 . S
C309 C338 1.387 . S
C310 C302 1.448 . S
C310 N307 1.351 . S
C310 C309 1.430 . S
C311 H300 0.930 . S
C311 C309 1.404 . S
C311 C312 1.366 . S
C312 H291 0.930 . S
C312 C308 1.416 . S
C312 C311 1.366 . S
H313 C306 0.929 . S
H314 C337 0.931 . S
H315 C338 0.931 . S
O316 Eu272 2.462 . S
O316 C336 1.252 . S
O317 Eu272 2.373 . S
O317 C328 1.249 . S
O318 Eu283 2.335 1_455 S
O318 C328 1.264 . S
O319 Eu272 2.432 . S
O319 C336 1.268 . S
O320 Eu272 2.291 . S
O320 C335 1.255 1_455 S
O321 Eu283 2.372 . S
O321 C335 1.257 . S
O322 Eu283 2.462 . S
O322 C347 1.252 . S
O323 Eu283 2.373 . S
O323 C339 1.249 . S
O324 Eu272 2.335 . S
O324 C339 1.264 1_455 S
O325 Eu283 2.432 . S
O325 C347 1.268 . S
O326 Eu283 2.291 1_455 S
O326 C346 1.255 . S
O327 Eu272 2.372 . S
O327 C346 1.257 . S
C328 O317 1.249 . S
C328 O318 1.264 . S
C329 C332 1.382 . S
C329 C334 1.390 . S
C329 C336 1.506 . S
C330 C331 1.398 . S
C330 C334 1.392 . S
C331 C330 1.398 . S
C331 C333 1.372 . S
C331 H348 0.931 . S
C332 C329 1.382 . S
C332 C333 1.390 . S
C332 H349 0.931 . S
C333 C331 1.372 . S
C333 C332 1.390 . S
C333 H350 0.929 . S
C334 C329 1.390 . S
C334 C330 1.392 . S
C334 H351 0.930 . S
C335 O320 1.255 1_655 S
C335 O321 1.257 . S
C336 Eu272 2.787 . S
C336 O316 1.252 . S
C336 O319 1.268 . S
C336 C329 1.506 . S
C337 C304 1.439 . S
C337 H314 0.931 . S
C337 C338 1.374 . S
C338 C309 1.387 . S
C338 H315 0.931 . S
C338 C337 1.374 . S
C339 O323 1.249 . S
C339 O324 1.264 1_655 S
C340 C343 1.382 . S
C340 C344 1.390 . S
C340 C347 1.506 . S
C341 C342 1.398 . S
C341 C344 1.392 . S
C342 C341 1.398 . S
C342 C345 1.372 . S
C342 H352 0.931 . S
C343 C340 1.382 . S
C343 C345 1.390 . S
C343 H353 0.931 . S
C344 C340 1.390 . S
C344 C341 1.392 . S
C344 H354 0.930 . S
C345 C342 1.372 . S
C345 C343 1.390 . S
C345 H355 0.929 . S
C346 O326 1.255 . S
C346 O327 1.257 . S
C347 Eu283 2.787 . S
C347 O322 1.252 . S
C347 O325 1.268 . S
C347 C340 1.506 . S
H348 C331 0.931 . S
H349 C332 0.931 . S
H350 C333 0.929 . S
H351 C334 0.930 . S
H352 C342 0.931 . S
H353 C343 0.931 . S
H354 C344 0.930 . S
H355 C345 0.929 . S
Eu356 N385 2.600 . S
Eu356 N391 2.562 . S
Eu356 O400 2.462 . S
Eu356 O401 2.373 . S
Eu356 O403 2.432 . S
Eu356 O404 2.291 . S
Eu356 O408 2.335 . S
Eu356 O411 2.372 . S
Eu356 C420 2.787 . S
C357 N358 1.365 . S
C357 C360 1.405 . S
C357 C364 1.448 . S
N358 C357 1.365 . S
N358 C361 1.319 . S
N358 Eu367 2.600 . S
C359 C361 1.397 . S
C359 C362 1.367 . S
C359 H379 0.931 . S
C360 C357 1.405 . S
C360 C362 1.403 . S
C360 C366 1.439 . S
C361 N358 1.319 . S
C361 C359 1.397 . S
C361 H372 0.930 . S
C362 C359 1.367 . S
C362 C360 1.403 . S
C362 H383 0.929 . S
C363 C364 1.430 . S
C363 C365 1.387 . S
C363 C369 1.404 . S
C364 C357 1.448 . S
C364 C363 1.430 . S
C364 N368 1.351 . S
C365 C363 1.387 . S
C365 C366 1.374 . S
C365 H380 0.931 . S
C366 C360 1.439 . S
C366 C365 1.374 . S
C366 H381 0.931 . S
Eu367 N358 2.600 . S
Eu367 N368 2.562 . S
Eu367 O402 2.335 . S
Eu367 O405 2.372 . S
Eu367 O406 2.462 . S
Eu367 O407 2.373 . S
Eu367 O409 2.432 . S
Eu367 O410 2.291 . S
Eu367 C431 2.787 . S
N368 C364 1.351 . S
N368 Eu367 2.562 . S
N368 C370 1.325 . S
C369 C363 1.404 . S
C369 C371 1.366 . S
C369 H377 0.930 . S
C370 N368 1.325 . S
C370 C371 1.416 . S
C370 H376 0.929 . S
C371 C369 1.366 . S
C371 C370 1.416 . S
C371 H373 0.930 . S
H372 C361 0.930 . S
H373 C371 0.930 . S
H374 C389 0.930 . S
H375 C396 0.930 . S
H376 C370 0.929 . S
H377 C369 0.930 . S
H378 C392 0.929 . S
H379 C359 0.931 . S
H380 C365 0.931 . S
H381 C366 0.931 . S
H382 C387 0.931 . S
H383 C362 0.929 . S
H384 C395 0.930 . S
N385 Eu356 2.600 . S
N385 C386 1.365 . S
N385 C389 1.319 . S
C386 N385 1.365 . S
C386 C388 1.405 . S
C386 C394 1.448 . S
C387 H382 0.931 . S
C387 C389 1.397 . S
C387 C390 1.367 . S
C388 C386 1.405 . S
C388 C390 1.403 . S
C388 C421 1.439 . S
C389 H374 0.930 . S
C389 N385 1.319 . S
C389 C387 1.397 . S
C390 C387 1.367 . S
C390 C388 1.403 . S
C390 H397 0.929 . S
N391 Eu356 2.562 . S
N391 C392 1.325 . S
N391 C394 1.351 . S
C392 H378 0.929 . S
C392 N391 1.325 . S
C392 C396 1.416 . S
C393 C394 1.430 . S
C393 C395 1.404 . S
C393 C422 1.387 . S
C394 C386 1.448 . S
C394 N391 1.351 . S
C394 C393 1.430 . S
C395 H384 0.930 . S
C395 C393 1.404 . S
C395 C396 1.366 . S
C396 H375 0.930 . S
C396 C392 1.416 . S
C396 C395 1.366 . S
H397 C390 0.929 . S
H398 C421 0.931 . S
H399 C422 0.931 . S
O400 Eu356 2.462 . S
O400 C420 1.252 . S
O401 Eu356 2.373 . S
O401 C412 1.249 . S
O402 Eu367 2.335 . S
O402 C412 1.264 . S
O403 Eu356 2.432 . S
O403 C420 1.268 . S
O404 Eu356 2.291 . S
O404 C419 1.255 . S
O405 Eu367 2.372 . S
O405 C419 1.257 . S
O406 Eu367 2.462 . S
O406 C431 1.252 . S
O407 Eu367 2.373 . S
O407 C423 1.249 . S
O408 Eu356 2.335 . S
O408 C423 1.264 . S
O409 Eu367 2.432 . S
O409 C431 1.268 . S
O410 Eu367 2.291 . S
O410 C430 1.255 . S
O411 Eu356 2.372 . S
O411 C430 1.257 . S
C412 O401 1.249 . S
C412 O402 1.264 . S
C413 C416 1.382 . S
C413 C418 1.390 . S
C413 C420 1.506 . S
C414 C415 1.398 . S
C414 C418 1.392 . S
C415 C414 1.398 . S
C415 C417 1.372 . S
C415 H432 0.931 . S
C416 C413 1.382 . S
C416 C417 1.390 . S
C416 H433 0.931 . S
C417 C415 1.372 . S
C417 C416 1.390 . S
C417 H434 0.929 . S
C418 C413 1.390 . S
C418 C414 1.392 . S
C418 H435 0.930 . S
C419 O404 1.255 . S
C419 O405 1.257 . S
C420 Eu356 2.787 . S
C420 O400 1.252 . S
C420 O403 1.268 . S
C420 C413 1.506 . S
C421 C388 1.439 . S
C421 H398 0.931 . S
C421 C422 1.374 . S
C422 C393 1.387 . S
C422 H399 0.931 . S
C422 C421 1.374 . S
C423 O407 1.249 . S
C423 O408 1.264 . S
C424 C427 1.382 . S
C424 C428 1.390 . S
C424 C431 1.506 . S
C425 C426 1.398 . S
C425 C428 1.392 . S
C426 C425 1.398 . S
C426 C429 1.372 . S
C426 H436 0.931 . S
C427 C424 1.382 . S
C427 C429 1.390 . S
C427 H437 0.931 . S
C428 C424 1.390 . S
C428 C425 1.392 . S
C428 H438 0.930 . S
C429 C426 1.372 . S
C429 C427 1.390 . S
C429 H439 0.929 . S
C430 O410 1.255 . S
C430 O411 1.257 . S
C431 Eu367 2.787 . S
C431 O406 1.252 . S
C431 O409 1.268 . S
C431 C424 1.506 . S
H432 C415 0.931 . S
H433 C416 0.931 . S
H434 C417 0.929 . S
H435 C418 0.930 . S
H436 C426 0.931 . S
H437 C427 0.931 . S
H438 C428 0.930 . S
H439 C429 0.929 . S
C440 C441 1.349 . S
C440 C442 1.327 . S
C440 H465 0.950 . S
C441 C440 1.349 . S
C441 C457 1.349 . S
C442 C440 1.327 . S
C442 C461 1.429 . S
C442 H466 0.950 . S
C443 C460 1.574 1_565 S
C443 C462 1.368 . S
C443 H467 0.949 . S
H444 C448 0.949 . S
C445 C446 1.349 . S
C445 C447 1.327 . S
C445 H468 0.950 . S
C446 C445 1.349 . S
C446 C458 1.349 . S
C447 C445 1.327 . S
C447 C463 1.429 . S
C447 H469 0.950 . S
C448 H444 0.949 . S
C448 C456 1.574 . S
C448 C464 1.386 . S
H449 C457 0.950 . S
H450 C455 0.950 . S
H451 C456 0.949 . S
H452 C458 0.950 . S
H453 C459 0.950 . S
H454 C460 0.949 . S
C455 H450 0.950 . S
C455 C457 1.327 . S
C455 C461 1.429 . S
C456 C448 1.574 . S
C456 H451 0.949 . S
C456 C462 1.368 . S
C457 C441 1.349 . S
C457 H449 0.950 . S
C457 C455 1.327 . S
C458 C446 1.349 . S
C458 H452 0.950 . S
C458 C459 1.327 . S
C459 H453 0.950 . S
C459 C458 1.327 . S
C459 C463 1.429 . S
C460 C443 1.574 1_545 S
C460 H454 0.949 . S
C460 C464 1.363 1_545 S
C461 C442 1.429 . S
C461 C455 1.429 . S
C461 C462 1.523 . S
C462 C443 1.368 . S
C462 C456 1.368 . S
C462 C461 1.523 . S
C463 C447 1.429 . S
C463 C459 1.429 . S
C463 C464 1.507 1_545 S
C464 C448 1.386 . S
C464 C460 1.363 1_565 S
C464 C463 1.507 1_565 S
H465 C440 0.950 . S
H466 C442 0.950 . S
H467 C443 0.949 . S
H468 C445 0.950 . S
H469 C447 0.950 . S
C470 C471 1.349 . S
C470 C472 1.327 . S
C470 H495 0.950 . S
C471 C470 1.349 . S
C471 C487 1.349 . S
C472 C470 1.327 . S
C472 C491 1.429 . S
C472 H496 0.950 . S
C473 C490 1.574 . S
C473 C492 1.368 . S
C473 H497 0.949 . S
H474 C478 0.949 . S
C475 C476 1.349 . S
C475 C477 1.327 . S
C475 H498 0.950 . S
C476 C475 1.349 . S
C476 C488 1.349 . S
C477 C475 1.327 . S
C477 C493 1.429 . S
C477 H499 0.950 . S
C478 H474 0.949 . S
C478 C486 1.574 . S
C478 C494 1.368 . S
H479 C487 0.950 . S
H480 C485 0.950 . S
H481 C486 0.949 . S
H482 C488 0.950 . S
H483 C489 0.950 . S
H484 C490 0.949 . S
C485 H480 0.950 . S
C485 C487 1.327 . S
C485 C491 1.429 . S
C486 C478 1.574 . S
C486 H481 0.949 . S
C486 C492 1.368 . S
C487 C471 1.349 . S
C487 H479 0.950 . S
C487 C485 1.327 . S
C488 C476 1.349 . S
C488 H482 0.950 . S
C488 C489 1.327 . S
C489 H483 0.950 . S
C489 C488 1.327 . S
C489 C493 1.429 . S
C490 C473 1.574 . S
C490 H484 0.949 . S
C490 C494 1.368 . S
C491 C472 1.429 . S
C491 C485 1.429 . S
C491 C492 1.523 . S
C492 C473 1.368 . S
C492 C486 1.368 . S
C492 C491 1.523 . S
C493 C477 1.429 . S
C493 C489 1.429 . S
C493 C494 1.523 . S
C494 C478 1.368 . S
C494 C490 1.368 . S
C494 C493 1.523 . S
H495 C470 0.950 . S
H496 C472 0.950 . S
H497 C473 0.949 . S
H498 C475 0.950 . S
H499 C477 0.950 . S
C500 C501 1.349 . S
C500 C502 1.327 . S
C500 H525 0.950 . S
C501 C500 1.349 . S
C501 C517 1.349 . S
C502 C500 1.327 . S
C502 C521 1.429 . S
C502 H526 0.950 . S
C503 C520 1.574 . S
C503 C522 1.368 . S
C503 H527 0.949 . S
H504 C508 0.949 . S
C505 C506 1.349 . S
C505 C507 1.327 . S
C505 H528 0.950 . S
C506 C505 1.349 . S
C506 C518 1.349 . S
C507 C505 1.327 . S
C507 C523 1.429 . S
C507 H529 0.950 . S
C508 H504 0.949 . S
C508 C516 1.574 . S
C508 C524 1.368 . S
H509 C517 0.950 . S
H510 C515 0.950 . S
H511 C516 0.949 . S
H512 C518 0.950 . S
H513 C519 0.950 . S
H514 C520 0.949 . S
C515 H510 0.950 . S
C515 C517 1.327 . S
C515 C521 1.429 . S
C516 C508 1.574 . S
C516 H511 0.949 . S
C516 C522 1.368 . S
C517 C501 1.349 . S
C517 H509 0.950 . S
C517 C515 1.327 . S
C518 C506 1.349 . S
C518 H512 0.950 . S
C518 C519 1.327 . S
C519 H513 0.950 . S
C519 C518 1.327 . S
C519 C523 1.429 . S
C520 C503 1.574 . S
C520 H514 0.949 . S
C520 C524 1.368 . S
C521 C502 1.429 . S
C521 C515 1.429 . S
C521 C522 1.523 . S
C522 C503 1.368 . S
C522 C516 1.368 . S
C522 C521 1.523 . S
C523 C507 1.429 . S
C523 C519 1.429 . S
C523 C524 1.523 . S
C524 C508 1.368 . S
C524 C520 1.368 . S
C524 C523 1.523 . S
H525 C500 0.950 . S
H526 C502 0.950 . S
H527 C503 0.949 . S
H528 C505 0.950 . S
H529 C507 0.950 . S
C530 C531 1.349 . S
C530 C532 1.327 . S
C530 H555 0.950 . S
C531 C530 1.349 . S
C531 C547 1.349 . S
C532 C530 1.327 . S
C532 C551 1.429 . S
C532 H556 0.950 . S
C533 C550 1.574 . S
C533 C552 1.368 . S
C533 H557 0.949 . S
H534 C538 0.949 1_545 S
C535 C536 1.349 . S
C535 C537 1.327 . S
C535 H558 0.950 . S
C536 C535 1.349 . S
C536 C548 1.349 . S
C537 C535 1.327 . S
C537 C553 1.429 . S
C537 H559 0.950 . S
C538 H534 0.949 1_565 S
C538 C546 1.574 . S
C538 C554 1.368 . S
H539 C547 0.950 . S
H540 C545 0.950 . S
H541 C546 0.949 . S
H542 C548 0.950 . S
H543 C549 0.950 . S
H544 C550 0.949 . S
C545 H540 0.950 . S
C545 C547 1.327 . S
C545 C551 1.429 . S
C546 C538 1.574 . S
C546 H541 0.949 . S
C546 C552 1.368 . S
C547 C531 1.349 . S
C547 H539 0.950 . S
C547 C545 1.327 . S
C548 C536 1.349 . S
C548 H542 0.950 . S
C548 C549 1.327 . S
C549 H543 0.950 . S
C549 C548 1.327 . S
C549 C553 1.429 . S
C550 C533 1.574 . S
C550 H544 0.949 . S
C550 C554 1.368 . S
C551 C532 1.429 . S
C551 C545 1.429 . S
C551 C552 1.523 . S
C552 C533 1.368 . S
C552 C546 1.368 . S
C552 C551 1.523 . S
C553 C537 1.429 . S
C553 C549 1.429 . S
C553 C554 1.523 1_545 S
C554 C538 1.368 . S
C554 C550 1.368 . S
C554 C553 1.523 1_565 S
H555 C530 0.950 . S
H556 C532 0.950 . S
H557 C533 0.949 . S
H558 C535 0.950 . S
H559 C537 0.950 . S
C560 C561 1.349 . S
C560 C562 1.327 . S
C560 H585 0.950 . S
C561 C560 1.349 . S
C561 C577 1.349 . S
C562 C560 1.327 . S
C562 C581 1.429 . S
C562 H586 0.950 . S
C563 C580 1.574 1_545 S
C563 C582 1.368 . S
C563 H587 0.949 . S
H564 C568 0.949 . S
C565 C566 1.349 . S
C565 C567 1.327 . S
C565 H588 0.950 . S
C566 C565 1.349 . S
C566 C578 1.349 . S
C567 C565 1.327 . S
C567 C583 1.429 . S
C567 H589 0.950 . S
C568 H564 0.949 . S
C568 C576 1.574 . S
C568 C584 1.368 . S
H569 C577 0.950 . S
H570 C575 0.950 . S
H571 C576 0.949 . S
H572 C578 0.950 . S
H573 C579 0.950 1_545 S
H574 C580 0.949 . S
C575 H570 0.950 . S
C575 C577 1.327 . S
C575 C581 1.429 . S
C576 C568 1.574 . S
C576 H571 0.949 . S
C576 C582 1.368 . S
C577 C561 1.349 . S
C577 H569 0.950 . S
C577 C575 1.327 . S
C578 C566 1.349 . S
C578 H572 0.950 . S
C578 C579 1.327 . S
C579 H573 0.950 1_565 S
C579 C578 1.327 . S
C579 C583 1.429 . S
C580 C563 1.574 1_565 S
C580 H574 0.949 . S
C580 C584 1.368 1_565 S
C581 C562 1.429 . S
C581 C575 1.429 . S
C581 C582 1.523 . S
C582 C563 1.368 . S
C582 C576 1.368 . S
C582 C581 1.523 . S
C583 C567 1.429 . S
C583 C579 1.429 . S
C583 C584 1.523 1_565 S
C584 C568 1.368 . S
C584 C580 1.368 1_545 S
C584 C583 1.523 1_545 S
H585 C560 0.950 . S
H586 C562 0.950 . S
H587 C563 0.949 . S
H588 C565 0.950 . S
H589 C567 0.950 . S
C590 C591 1.349 . S
C590 C592 1.327 . S
C590 H615 0.950 . S
C591 C590 1.349 . S
C591 C607 1.349 . S
C592 C590 1.327 . S
C592 C611 1.429 . S
C592 H616 0.950 . S
C593 C610 1.574 . S
C593 C612 1.368 . S
C593 H617 0.949 . S
H594 C598 0.949 . S
C595 C596 1.349 . S
C595 C597 1.327 . S
C595 H618 0.950 . S
C596 C595 1.349 . S
C596 C608 1.349 . S
C597 C595 1.327 . S
C597 C613 1.429 . S
C597 H619 0.950 . S
C598 H594 0.949 . S
C598 C606 1.574 . S
C598 C614 1.368 . S
H599 C607 0.950 . S
H600 C605 0.950 . S
H601 C606 0.949 . S
H602 C608 0.950 . S
H603 C609 0.950 . S
H604 C610 0.949 . S
C605 H600 0.950 . S
C605 C607 1.327 . S
C605 C611 1.429 . S
C606 C598 1.574 . S
C606 H601 0.949 . S
C606 C612 1.368 . S
C607 C591 1.349 . S
C607 H599 0.950 . S
C607 C605 1.327 . S
C608 C596 1.349 . S
C608 H602 0.950 . S
C608 C609 1.327 . S
C609 H603 0.950 . S
C609 C608 1.327 . S
C609 C613 1.429 . S
C610 C593 1.574 . S
C610 H604 0.949 . S
C610 C614 1.368 . S
C611 C592 1.429 . S
C611 C605 1.429 . S
C611 C612 1.523 . S
C612 C593 1.368 . S
C612 C606 1.368 . S
C612 C611 1.523 . S
C613 C597 1.429 . S
C613 C609 1.429 . S
C613 C614 1.523 . S
C614 C598 1.368 . S
C614 C610 1.368 . S
C614 C613 1.523 . S
H615 C590 0.950 . S
H616 C592 0.950 . S
H617 C593 0.949 . S
H618 C595 0.950 . S
H619 C597 0.950 . S
C620 C621 1.349 . S
C620 C622 1.327 . S
C620 H645 0.950 . S
C621 C620 1.349 . S
C621 C637 1.349 . S
C622 C620 1.327 . S
C622 C641 1.429 . S
C622 H646 0.950 . S
C623 C640 1.574 . S
C623 C642 1.368 . S
C623 H647 0.949 . S
H624 C628 0.949 . S
C625 C626 1.349 . S
C625 C627 1.327 . S
C625 H648 0.950 . S
C626 C625 1.349 . S
C626 C638 1.349 . S
C627 C625 1.327 . S
C627 C643 1.429 . S
C627 H649 0.950 . S
C628 H624 0.949 . S
C628 C636 1.574 . S
C628 C644 1.368 . S
H629 C637 0.950 . S
H630 C635 0.950 . S
H631 C636 0.949 . S
H632 C638 0.950 . S
H633 C639 0.950 . S
H634 C640 0.949 . S
C635 H630 0.950 . S
C635 C637 1.327 . S
C635 C641 1.429 . S
C636 C628 1.574 . S
C636 H631 0.949 . S
C636 C642 1.368 . S
C637 C621 1.349 . S
C637 H629 0.950 . S
C637 C635 1.327 . S
C638 C626 1.349 . S
C638 H632 0.950 . S
C638 C639 1.327 . S
C639 H633 0.950 . S
C639 C638 1.327 . S
C639 C643 1.429 . S
C640 C623 1.574 . S
C640 H634 0.949 . S
C640 C644 1.368 . S
C641 C622 1.429 . S
C641 C635 1.429 . S
C641 C642 1.523 . S
C642 C623 1.368 . S
C642 C636 1.368 . S
C642 C641 1.523 . S
C643 C627 1.429 . S
C643 C639 1.429 . S
C643 C644 1.523 . S
C644 C628 1.368 . S
C644 C640 1.368 . S
C644 C643 1.523 . S
H645 C620 0.950 . S
H646 C622 0.950 . S
H647 C623 0.949 . S
H648 C625 0.950 . S
H649 C627 0.950 . S
C650 C651 1.349 . S
C650 C652 1.327 . S
C650 H675 0.950 . S
C651 C650 1.349 . S
C651 C667 1.349 . S
C652 C650 1.327 . S
C652 C671 1.429 . S
C652 H676 0.950 . S
C653 C670 1.587 . S
C653 C672 1.368 . S
C653 H677 0.949 . S
H654 C658 0.949 . S
C655 C656 1.349 . S
C655 C657 1.327 . S
C655 H678 0.950 . S
C656 C655 1.349 . S
C656 C668 1.349 . S
C657 C655 1.327 . S
C657 C673 1.429 . S
C657 H679 0.950 . S
C658 H654 0.949 . S
C658 C666 1.574 . S
C658 C674 1.374 . S
H659 C667 0.950 . S
H660 C665 0.950 . S
H661 C666 0.949 . S
H662 C668 0.950 . S
H663 C669 0.950 . S
H664 C670 0.937 1_565 S
C665 H660 0.950 . S
C665 C667 1.327 . S
C665 C671 1.429 . S
C666 C658 1.574 . S
C666 H661 0.949 . S
C666 C672 1.368 . S
C667 C651 1.349 . S
C667 H659 0.950 . S
C667 C665 1.327 . S
C668 C656 1.349 . S
C668 H662 0.950 . S
C668 C669 1.327 . S
C669 H663 0.950 . S
C669 C668 1.327 . S
C669 C673 1.429 . S
C670 C653 1.587 . S
C670 H664 0.937 1_545 S
C670 C674 1.368 . S
C671 C652 1.429 . S
C671 C665 1.429 . S
C671 C672 1.523 . S
C672 C653 1.368 . S
C672 C666 1.368 . S
C672 C671 1.523 . S
C673 C657 1.429 . S
C673 C669 1.429 . S
C673 C674 1.516 1_565 S
C674 C658 1.374 . S
C674 C670 1.368 . S
C674 C673 1.516 1_545 S
H675 C650 0.950 . S
H676 C652 0.950 . S
H677 C653 0.949 . S
H678 C655 0.950 . S
H679 C657 0.950 . S
C680 C681 1.349 . S
C680 C682 1.327 . S
C680 H705 0.950 . S
C681 C680 1.349 . S
C681 C697 1.349 . S
C682 C680 1.327 . S
C682 C701 1.429 . S
C682 H706 0.950 . S
C683 C700 1.574 . S
C683 C702 1.368 . S
C683 H707 0.949 . S
H684 C688 0.949 . S
C685 C686 1.349 . S
C685 C687 1.327 . S
C685 H708 0.950 . S
C686 C685 1.349 . S
C686 C698 1.349 . S
C687 C685 1.327 . S
C687 C703 1.429 . S
C687 H709 0.950 . S
C688 H684 0.949 . S
C688 C696 1.574 . S
C688 C704 1.368 . S
H689 C697 0.950 . S
H690 C695 0.950 . S
H691 C696 0.949 . S
H692 C698 0.950 . S
H693 C699 0.950 . S
H694 C700 0.949 . S
C695 H690 0.950 . S
C695 C697 1.327 . S
C695 C701 1.429 . S
C696 C688 1.574 . S
C696 H691 0.949 . S
C696 C702 1.368 . S
C697 C681 1.349 . S
C697 H689 0.950 . S
C697 C695 1.327 . S
C698 C686 1.349 . S
C698 H692 0.950 . S
C698 C699 1.327 . S
C699 H693 0.950 . S
C699 C698 1.327 . S
C699 C703 1.429 . S
C700 C683 1.574 . S
C700 H694 0.949 . S
C700 C704 1.368 . S
C701 C682 1.429 . S
C701 C695 1.429 . S
C701 C702 1.523 1_556 S
C702 C683 1.368 . S
C702 C696 1.368 . S
C702 C701 1.523 1_554 S
C703 C687 1.429 . S
C703 C699 1.429 . S
C703 C704 1.523 . S
C704 C688 1.368 . S
C704 C700 1.368 . S
C704 C703 1.523 . S
H705 C680 0.950 . S
H706 C682 0.950 . S
H707 C683 0.949 . S
H708 C685 0.950 . S
H709 C687 0.950 . S
C710 C711 1.349 . S
C710 C712 1.327 . S
C710 H735 0.950 . S
C711 C710 1.349 . S
C711 C727 1.349 . S
C712 C710 1.327 . S
C712 C731 1.429 . S
C712 H736 0.950 . S
C713 C730 1.574 . S
C713 C732 1.368 . S
C713 H737 0.949 . S
H714 C718 0.949 . S
C715 C716 1.349 . S
C715 C717 1.327 . S
C715 H738 0.950 . S
C716 C715 1.349 . S
C716 C728 1.349 . S
C717 C715 1.327 . S
C717 C733 1.429 . S
C717 H739 0.950 . S
C718 H714 0.949 . S
C718 C726 1.574 . S
C718 C734 1.368 . S
H719 C727 0.950 . S
H720 C725 0.950 . S
H721 C726 0.949 . S
H722 C728 0.950 . S
H723 C729 0.950 . S
H724 C730 0.949 . S
C725 H720 0.950 . S
C725 C727 1.327 . S
C725 C731 1.429 . S
C726 C718 1.574 . S
C726 H721 0.949 . S
C726 C732 1.368 . S
C727 C711 1.349 . S
C727 H719 0.950 . S
C727 C725 1.327 . S
C728 C716 1.349 . S
C728 H722 0.950 . S
C728 C729 1.327 . S
C729 H723 0.950 . S
C729 C728 1.327 . S
C729 C733 1.429 . S
C730 C713 1.574 . S
C730 H724 0.949 . S
C730 C734 1.368 . S
C731 C712 1.429 . S
C731 C725 1.429 . S
C731 C732 1.523 . S
C732 C713 1.368 . S
C732 C726 1.368 . S
C732 C731 1.523 . S
C733 C717 1.429 . S
C733 C729 1.429 . S
C733 C734 1.523 . S
C734 C718 1.368 . S
C734 C730 1.368 . S
C734 C733 1.523 . S
H735 C710 0.950 . S
H736 C712 0.950 . S
H737 C713 0.949 . S
H738 C715 0.950 . S
H739 C717 0.950 . S
C740 C741 1.349 . S
C740 C742 1.327 . S
C740 H765 0.950 . S
C741 C740 1.349 . S
C741 C757 1.349 . S
C742 C740 1.327 . S
C742 C761 1.429 . S
C742 H766 0.950 . S
C743 C760 1.574 . S
C743 C762 1.368 . S
C743 H767 0.949 1_556 S
H744 C748 0.949 . S
C745 C746 1.349 . S
C745 C747 1.327 . S
C745 H768 0.950 . S
C746 C745 1.349 . S
C746 C758 1.349 . S
C747 C745 1.327 . S
C747 C763 1.429 . S
C747 H769 0.950 . S
C748 H744 0.949 . S
C748 C756 1.574 . S
C748 C764 1.368 . S
H749 C757 0.950 . S
H750 C755 0.950 . S
H751 C756 0.949 . S
H752 C758 0.950 . S
H753 C759 0.950 . S
H754 C760 0.949 . S
C755 H750 0.950 . S
C755 C757 1.327 . S
C755 C761 1.429 . S
C756 C748 1.574 . S
C756 H751 0.949 . S
C756 C762 1.368 . S
C757 C741 1.349 . S
C757 H749 0.950 . S
C757 C755 1.327 . S
C758 C746 1.349 . S
C758 H752 0.950 . S
C758 C759 1.327 . S
C759 H753 0.950 . S
C759 C758 1.327 . S
C759 C763 1.429 . S
C760 C743 1.574 . S
C760 H754 0.949 . S
C760 C764 1.368 . S
C761 C742 1.429 . S
C761 C755 1.429 . S
C761 C762 1.523 1_554 S
C762 C743 1.368 . S
C762 C756 1.368 . S
C762 C761 1.523 1_556 S
C763 C747 1.429 . S
C763 C759 1.429 . S
C763 C764 1.523 . S
C764 C748 1.368 . S
C764 C760 1.368 . S
C764 C763 1.523 . S
H765 C740 0.950 . S
H766 C742 0.950 . S
H767 C743 0.949 1_554 S
H768 C745 0.950 . S
H769 C747 0.950 . S
C770 C771 1.349 . S
C770 C772 1.327 . S
C770 H795 0.950 . S
C771 C770 1.349 . S
C771 C787 1.349 . S
C772 C770 1.327 . S
C772 C791 1.429 . S
C772 H796 0.950 . S
C773 C790 1.574 . S
C773 C792 1.368 . S
C773 H797 0.949 . S
H774 C778 0.949 . S
C775 C776 1.349 . S
C775 C777 1.327 . S
C775 H798 0.950 . S
C776 C775 1.349 . S
C776 C788 1.349 . S
C777 C775 1.327 . S
C777 C793 1.429 . S
C777 H799 0.950 . S
C778 H774 0.949 . S
C778 C786 1.574 . S
C778 C794 1.368 . S
H779 C787 0.950 . S
H780 C785 0.950 . S
H781 C786 0.949 . S
H782 C788 0.950 . S
H783 C789 0.950 . S
H784 C790 0.949 . S
C785 H780 0.950 . S
C785 C787 1.327 . S
C785 C791 1.429 . S
C786 C778 1.574 . S
C786 H781 0.949 . S
C786 C792 1.368 . S
C787 C771 1.349 . S
C787 H779 0.950 . S
C787 C785 1.327 . S
C788 C776 1.349 . S
C788 H782 0.950 . S
C788 C789 1.327 . S
C789 H783 0.950 . S
C789 C788 1.327 . S
C789 C793 1.429 . S
C790 C773 1.574 . S
C790 H784 0.949 . S
C790 C794 1.368 . S
C791 C772 1.429 . S
C791 C785 1.429 . S
C791 C792 1.523 . S
C792 C773 1.368 . S
C792 C786 1.368 . S
C792 C791 1.523 . S
C793 C777 1.429 . S
C793 C789 1.429 . S
C793 C794 1.523 . S
C794 C778 1.368 . S
C794 C790 1.368 . S
C794 C793 1.523 . S
H795 C770 0.950 . S
H796 C772 0.950 . S
H797 C773 0.949 . S
H798 C775 0.950 . S
H799 C777 0.950 . S
C800 C801 1.349 . S
C800 C802 1.327 . S
C800 H825 0.950 . S
C801 C800 1.349 . S
C801 C817 1.349 . S
C802 C800 1.327 . S
C802 C821 1.429 . S
C802 H826 0.950 . S
C803 C820 1.574 . S
C803 C822 1.368 . S
C803 H827 0.949 . S
H804 C808 0.949 . S
C805 C806 1.349 . S
C805 C807 1.327 . S
C805 H828 0.950 . S
C806 C805 1.349 . S
C806 C818 1.349 . S
C807 C805 1.327 . S
C807 C823 1.429 . S
C807 H829 0.950 . S
C808 H804 0.949 . S
C808 C816 1.574 . S
C808 C824 1.368 . S
H809 C817 0.950 . S
H810 C815 0.950 1_556 S
H811 C816 0.949 . S
H812 C818 0.950 . S
H813 C819 0.950 . S
H814 C820 0.949 . S
C815 H810 0.950 1_554 S
C815 C817 1.327 . S
C815 C821 1.429 . S
C816 C808 1.574 . S
C816 H811 0.949 . S
C816 C822 1.368 . S
C817 C801 1.349 . S
C817 H809 0.950 . S
C817 C815 1.327 . S
C818 C806 1.349 . S
C818 H812 0.950 . S
C818 C819 1.327 . S
C819 H813 0.950 . S
C819 C818 1.327 . S
C819 C823 1.429 . S
C820 C803 1.574 . S
C820 H814 0.949 . S
C820 C824 1.368 . S
C821 C802 1.429 . S
C821 C815 1.429 . S
C821 C822 1.523 1_554 S
C822 C803 1.368 . S
C822 C816 1.368 . S
C822 C821 1.523 1_556 S
C823 C807 1.429 . S
C823 C819 1.429 . S
C823 C824 1.523 . S
C824 C808 1.368 . S
C824 C820 1.368 . S
C824 C823 1.523 . S
H825 C800 0.950 . S
H826 C802 0.950 . S
H827 C803 0.949 . S
H828 C805 0.950 . S
H829 C807 0.950 . S
C830 C831 1.349 . S
C830 C832 1.327 . S
C830 H855 0.950 . S
C831 C830 1.349 . S
C831 C847 1.349 . S
C832 C830 1.327 . S
C832 C851 1.429 . S
C832 H856 0.950 . S
C833 C850 1.574 . S
C833 C852 1.368 . S
C833 H857 0.949 . S
H834 C838 0.949 . S
C835 C836 1.349 . S
C835 C837 1.327 . S
C835 H858 0.950 . S
C836 C835 1.349 . S
C836 C848 1.349 . S
C837 C835 1.327 . S
C837 C853 1.429 . S
C837 H859 0.950 . S
C838 H834 0.949 . S
C838 C846 1.574 . S
C838 C854 1.368 . S
H839 C847 0.950 . S
H840 C845 0.950 . S
H841 C846 0.949 . S
H842 C848 0.950 . S
H843 C849 0.950 . S
H844 C850 0.949 . S
C845 H840 0.950 . S
C845 C847 1.327 . S
C845 C851 1.429 . S
C846 C838 1.574 . S
C846 H841 0.949 . S
C846 C852 1.368 . S
C847 C831 1.349 . S
C847 H839 0.950 . S
C847 C845 1.327 . S
C848 C836 1.349 . S
C848 H842 0.950 . S
C848 C849 1.327 . S
C849 H843 0.950 . S
C849 C848 1.327 . S
C849 C853 1.429 . S
C850 C833 1.574 . S
C850 H844 0.949 . S
C850 C854 1.368 . S
C851 C832 1.429 . S
C851 C845 1.429 . S
C851 C852 1.523 . S
C852 C833 1.368 . S
C852 C846 1.368 . S
C852 C851 1.523 . S
C853 C837 1.429 . S
C853 C849 1.429 . S
C853 C854 1.523 . S
C854 C838 1.368 . S
C854 C850 1.368 . S
C854 C853 1.523 . S
H855 C830 0.950 . S
H856 C832 0.950 . S
H857 C833 0.949 . S
H858 C835 0.950 . S
H859 C837 0.950 . S
C860 C861 1.349 . S
C860 C862 1.327 . S
C860 H885 0.950 . S
C861 C860 1.349 . S
C861 C877 1.349 . S
C862 C860 1.327 . S
C862 C881 1.429 . S
C862 H886 0.950 . S
C863 C880 1.574 . S
C863 C882 1.368 . S
C863 H887 0.949 . S
H864 C868 0.949 . S
C865 C866 1.349 . S
C865 C867 1.327 . S
C865 H888 0.950 . S
C866 C865 1.349 . S
C866 C878 1.349 . S
C867 C865 1.327 . S
C867 C883 1.429 . S
C867 H889 0.950 . S
C868 H864 0.949 . S
C868 C876 1.574 . S
C868 C884 1.368 . S
H869 C877 0.950 . S
H870 C875 0.950 . S
H871 C876 0.949 . S
H872 C878 0.950 . S
H873 C879 0.950 . S
H874 C880 0.949 . S
C875 H870 0.950 . S
C875 C877 1.327 . S
C875 C881 1.429 . S
C876 C868 1.574 . S
C876 H871 0.949 . S
C876 C882 1.368 . S
C877 C861 1.349 . S
C877 H869 0.950 . S
C877 C875 1.327 . S
C878 C866 1.349 . S
C878 H872 0.950 . S
C878 C879 1.327 . S
C879 H873 0.950 . S
C879 C878 1.327 . S
C879 C883 1.429 . S
C880 C863 1.574 . S
C880 H874 0.949 . S
C880 C884 1.368 . S
C881 C862 1.429 . S
C881 C875 1.429 . S
C881 C882 1.523 1_556 S
C882 C863 1.368 . S
C882 C876 1.368 . S
C882 C881 1.523 1_554 S
C883 C867 1.429 . S
C883 C879 1.429 . S
C883 C884 1.523 . S
C884 C868 1.368 . S
C884 C880 1.368 . S
C884 C883 1.523 . S
H885 C860 0.950 . S
H886 C862 0.950 . S
H887 C863 0.949 . S
H888 C865 0.950 . S
H889 C867 0.950 . S
C890 C891 1.349 . S
C890 C892 1.327 . S
C890 H915 0.950 . S
C891 C890 1.349 . S
C891 C907 1.349 . S
C892 C890 1.327 . S
C892 C911 1.429 . S
C892 H916 0.950 . S
C893 C910 1.574 . S
C893 C912 1.368 . S
C893 H917 0.949 . S
H894 C898 0.949 . S
C895 C896 1.349 . S
C895 C897 1.327 . S
C895 H918 0.950 . S
C896 C895 1.349 . S
C896 C908 1.349 . S
C897 C895 1.327 . S
C897 C913 1.429 . S
C897 H919 0.950 . S
C898 H894 0.949 . S
C898 C906 1.574 . S
C898 C914 1.368 . S
H899 C907 0.950 . S
H900 C905 0.950 . S
H901 C906 0.949 . S
H902 C908 0.950 . S
H903 C909 0.950 . S
H904 C910 0.949 . S
C905 H900 0.950 . S
C905 C907 1.327 . S
C905 C911 1.429 . S
C906 C898 1.574 . S
C906 H901 0.949 . S
C906 C912 1.368 . S
C907 C891 1.349 . S
C907 H899 0.950 . S
C907 C905 1.327 . S
C908 C896 1.349 . S
C908 H902 0.950 . S
C908 C909 1.327 . S
C909 H903 0.950 . S
C909 C908 1.327 . S
C909 C913 1.429 . S
C910 C893 1.574 . S
C910 H904 0.949 . S
C910 C914 1.368 . S
C911 C892 1.429 . S
C911 C905 1.429 . S
C911 C912 1.523 . S
C912 C893 1.368 . S
C912 C906 1.368 . S
C912 C911 1.523 . S
C913 C897 1.429 . S
C913 C909 1.429 . S
C913 C914 1.523 . S
C914 C898 1.368 . S
C914 C910 1.368 . S
C914 C913 1.523 . S
H915 C890 0.950 . S
H916 C892 0.950 . S
H917 C893 0.949 . S
H918 C895 0.950 . S
H919 C897 0.950 . S
C920 C921 1.349 . S
C920 C922 1.327 . S
C920 H945 0.950 . S
C921 C920 1.349 . S
C921 C937 1.349 . S
C922 C920 1.327 . S
C922 C941 1.429 . S
C922 H946 0.950 . S
C923 C940 1.574 . S
C923 C942 1.368 . S
C923 H947 0.949 . S
H924 C928 0.949 . S
C925 C926 1.349 . S
C925 C927 1.327 . S
C925 H948 0.950 . S
C926 C925 1.349 . S
C926 C938 1.349 . S
C927 C925 1.327 . S
C927 C943 1.429 . S
C927 H949 0.950 . S
C928 H924 0.949 . S
C928 C936 1.574 . S
C928 C944 1.368 . S
H929 C937 0.950 . S
H930 C935 0.950 . S
H931 C936 0.949 . S
H932 C938 0.950 . S
H933 C939 0.950 . S
H934 C940 0.949 . S
C935 H930 0.950 . S
C935 C937 1.327 . S
C935 C941 1.429 . S
C936 C928 1.574 . S
C936 H931 0.949 . S
C936 C942 1.368 . S
C937 C921 1.349 . S
C937 H929 0.950 . S
C937 C935 1.327 . S
C938 C926 1.349 . S
C938 H932 0.950 . S
C938 C939 1.327 . S
C939 H933 0.950 . S
C939 C938 1.327 . S
C939 C943 1.429 . S
C940 C923 1.574 . S
C940 H934 0.949 . S
C940 C944 1.368 . S
C941 C922 1.429 . S
C941 C935 1.429 . S
C941 C942 1.523 . S
C942 C923 1.368 . S
C942 C936 1.368 . S
C942 C941 1.523 . S
C943 C927 1.429 . S
C943 C939 1.429 . S
C943 C944 1.523 . S
C944 C928 1.368 . S
C944 C940 1.368 . S
C944 C943 1.523 . S
H945 C920 0.950 . S
H946 C922 0.950 . S
H947 C923 0.949 . S
H948 C925 0.950 . S
H949 C927 0.950 . S
C950 C951 1.349 . S
C950 C952 1.327 . S
C950 H975 0.950 . S
C951 C950 1.349 . S
C951 C967 1.349 . S
C952 C950 1.327 . S
C952 C971 1.429 . S
C952 H976 0.950 . S
C953 C970 1.574 . S
C953 C972 1.368 . S
C953 H977 0.949 . S
H954 C958 0.949 . S
C955 C956 1.349 . S
C955 C957 1.327 . S
C955 H978 0.950 . S
C956 C955 1.349 . S
C956 C968 1.349 . S
C957 C955 1.327 . S
C957 C973 1.429 . S
C957 H979 0.950 . S
C958 H954 0.949 . S
C958 C966 1.574 . S
C958 C974 1.368 . S
H959 C967 0.950 . S
H960 C965 0.950 . S
H961 C966 0.949 . S
H962 C968 0.950 . S
H963 C969 0.950 . S
H964 C970 0.949 . S
C965 H960 0.950 . S
C965 C967 1.327 . S
C965 C971 1.429 . S
C966 C958 1.574 . S
C966 H961 0.949 . S
C966 C972 1.368 . S
C967 C951 1.349 . S
C967 H959 0.950 . S
C967 C965 1.327 . S
C968 C956 1.349 . S
C968 H962 0.950 . S
C968 C969 1.327 . S
C969 H963 0.950 . S
C969 C968 1.327 . S
C969 C973 1.429 . S
C970 C953 1.574 . S
C970 H964 0.949 . S
C970 C974 1.368 . S
C971 C952 1.429 . S
C971 C965 1.429 . S
C971 C972 1.523 . S
C972 C953 1.368 . S
C972 C966 1.368 . S
C972 C971 1.523 . S
C973 C957 1.429 . S
C973 C969 1.429 . S
C973 C974 1.523 . S
C974 C958 1.368 . S
C974 C970 1.368 . S
C974 C973 1.523 . S
H975 C950 0.950 . S
H976 C952 0.950 . S
H977 C953 0.949 . S
H978 C955 0.950 . S
H979 C957 0.950 . S
C980 C981 1.349 . S
C980 C982 1.327 . S
C980 H1005 0.950 . S
C981 C980 1.349 . S
C981 C997 1.349 . S
C982 C980 1.327 . S
C982 C1001 1.429 . S
C982 H1006 0.950 . S
C983 C1000 1.574 . S
C983 C1002 1.368 . S
C983 H1007 0.949 . S
H984 C988 0.949 . S
C985 C986 1.349 . S
C985 C987 1.327 . S
C985 H1008 0.950 . S
C986 C985 1.349 . S
C986 C998 1.349 . S
C987 C985 1.327 . S
C987 C1003 1.429 . S
C987 H1009 0.950 . S
C988 H984 0.949 . S
C988 C996 1.574 . S
C988 C1004 1.368 . S
H989 C997 0.950 . S
H990 C995 0.950 . S
H991 C996 0.949 . S
H992 C998 0.950 . S
H993 C999 0.950 . S
H994 C1000 0.949 . S
C995 H990 0.950 . S
C995 C997 1.327 . S
C995 C1001 1.429 . S
C996 C988 1.574 . S
C996 H991 0.949 . S
C996 C1002 1.368 . S
C997 C981 1.349 . S
C997 H989 0.950 . S
C997 C995 1.327 . S
C998 C986 1.349 . S
C998 H992 0.950 . S
C998 C999 1.327 . S
C999 H993 0.950 . S
C999 C998 1.327 . S
C999 C1003 1.429 . S
C1000 C983 1.574 . S
C1000 H994 0.949 . S
C1000 C1004 1.368 . S
C1001 C982 1.429 . S
C1001 C995 1.429 . S
C1001 C1002 1.523 . S
C1002 C983 1.368 . S
C1002 C996 1.368 . S
C1002 C1001 1.523 . S
C1003 C987 1.429 . S
C1003 C999 1.429 . S
C1003 C1004 1.523 . S
C1004 C988 1.368 . S
C1004 C1000 1.368 . S
C1004 C1003 1.523 . S
H1005 C980 0.950 . S
H1006 C982 0.950 . S
H1007 C983 0.949 . S
H1008 C985 0.950 . S
H1009 C987 0.950 . S
C1010 C1011 1.349 . S
C1010 C1012 1.327 . S
C1010 H1035 0.950 . S
C1011 C1010 1.349 . S
C1011 C1027 1.349 . S
C1012 C1010 1.327 . S
C1012 C1031 1.429 . S
C1012 H1036 0.950 . S
C1013 C1030 1.574 . S
C1013 C1032 1.368 . S
C1013 H1037 0.949 . S
H1014 C1018 0.949 . S
C1015 C1016 1.349 . S
C1015 C1017 1.327 . S
C1015 H1038 0.950 . S
C1016 C1015 1.349 . S
C1016 C1028 1.349 . S
C1017 C1015 1.327 . S
C1017 C1033 1.429 . S
C1017 H1039 0.950 . S
C1018 H1014 0.949 . S
C1018 C1026 1.574 . S
C1018 C1034 1.368 . S
H1019 C1027 0.950 . S
H1020 C1025 0.950 . S
H1021 C1026 0.949 . S
H1022 C1028 0.950 . S
H1023 C1029 0.950 . S
H1024 C1030 0.949 . S
C1025 H1020 0.950 . S
C1025 C1027 1.327 . S
C1025 C1031 1.429 . S
C1026 C1018 1.574 . S
C1026 H1021 0.949 . S
C1026 C1032 1.368 . S
C1027 C1011 1.349 . S
C1027 H1019 0.950 . S
C1027 C1025 1.327 . S
C1028 C1016 1.349 . S
C1028 H1022 0.950 . S
C1028 C1029 1.327 . S
C1029 H1023 0.950 . S
C1029 C1028 1.327 . S
C1029 C1033 1.429 . S
C1030 C1013 1.574 . S
C1030 H1024 0.949 . S
C1030 C1034 1.368 . S
C1031 C1012 1.429 . S
C1031 C1025 1.429 . S
C1031 C1032 1.523 . S
C1032 C1013 1.368 . S
C1032 C1026 1.368 . S
C1032 C1031 1.523 . S
C1033 C1017 1.429 . S
C1033 C1029 1.429 . S
C1033 C1034 1.523 . S
C1034 C1018 1.368 . S
C1034 C1030 1.368 . S
C1034 C1033 1.523 . S
H1035 C1010 0.950 . S
H1036 C1012 0.950 . S
H1037 C1013 0.949 . S
H1038 C1015 0.950 . S
H1039 C1017 0.950 . S
C1040 C1041 1.349 . S
C1040 C1042 1.327 . S
C1040 H1065 0.950 . S
C1041 C1040 1.349 . S
C1041 C1057 1.349 . S
C1042 C1040 1.327 . S
C1042 C1061 1.429 . S
C1042 H1066 0.950 . S
C1043 C1060 1.574 . S
C1043 C1062 1.368 . S
C1043 H1067 0.949 . S
H1044 C1048 0.949 . S
C1045 C1046 1.349 . S
C1045 C1047 1.327 . S
C1045 H1068 0.950 . S
C1046 C1045 1.349 . S
C1046 C1058 1.349 . S
C1047 C1045 1.327 . S
C1047 C1063 1.429 . S
C1047 H1069 0.950 . S
C1048 H1044 0.949 . S
C1048 C1056 1.574 . S
C1048 C1064 1.368 . S
H1049 C1057 0.950 . S
H1050 C1055 0.950 . S
H1051 C1056 0.949 . S
H1052 C1058 0.950 . S
H1053 C1059 0.950 . S
H1054 C1060 0.949 . S
C1055 H1050 0.950 . S
C1055 C1057 1.327 . S
C1055 C1061 1.429 . S
C1056 C1048 1.574 . S
C1056 H1051 0.949 . S
C1056 C1062 1.368 . S
C1057 C1041 1.349 . S
C1057 H1049 0.950 . S
C1057 C1055 1.327 . S
C1058 C1046 1.349 . S
C1058 H1052 0.950 . S
C1058 C1059 1.327 . S
C1059 H1053 0.950 . S
C1059 C1058 1.327 . S
C1059 C1063 1.429 . S
C1060 C1043 1.574 . S
C1060 H1054 0.949 . S
C1060 C1064 1.368 . S
C1061 C1042 1.429 . S
C1061 C1055 1.429 . S
C1061 C1062 1.523 . S
C1062 C1043 1.368 . S
C1062 C1056 1.368 . S
C1062 C1061 1.523 . S
C1063 C1047 1.429 . S
C1063 C1059 1.429 . S
C1063 C1064 1.523 . S
C1064 C1048 1.368 . S
C1064 C1060 1.368 . S
C1064 C1063 1.523 . S
H1065 C1040 0.950 . S
H1066 C1042 0.950 . S
H1067 C1043 0.949 . S
H1068 C1045 0.950 . S
H1069 C1047 0.950 . S
C1070 C1071 1.349 . S
C1070 C1072 1.327 . S
C1070 H1095 0.950 . S
C1071 C1070 1.349 . S
C1071 C1087 1.349 . S
C1072 C1070 1.327 . S
C1072 C1091 1.429 . S
C1072 H1096 0.950 . S
C1073 C1090 1.574 . S
C1073 C1092 1.368 . S
C1073 H1097 0.949 . S
H1074 C1078 0.949 . S
C1075 C1076 1.349 . S
C1075 C1077 1.327 . S
C1075 H1098 0.950 . S
C1076 C1075 1.349 . S
C1076 C1088 1.349 . S
C1077 C1075 1.327 . S
C1077 C1093 1.429 . S
C1077 H1099 0.950 . S
C1078 H1074 0.949 . S
C1078 C1086 1.574 . S
C1078 C1094 1.368 . S
H1079 C1087 0.950 . S
H1080 C1085 0.950 . S
H1081 C1086 0.949 . S
H1082 C1088 0.950 . S
H1083 C1089 0.950 . S
H1084 C1090 0.949 . S
C1085 H1080 0.950 . S
C1085 C1087 1.327 . S
C1085 C1091 1.429 . S
C1086 C1078 1.574 . S
C1086 H1081 0.949 . S
C1086 C1092 1.368 . S
C1087 C1071 1.349 . S
C1087 H1079 0.950 . S
C1087 C1085 1.327 . S
C1088 C1076 1.349 . S
C1088 H1082 0.950 . S
C1088 C1089 1.327 . S
C1089 H1083 0.950 . S
C1089 C1088 1.327 . S
C1089 C1093 1.429 . S
C1090 C1073 1.574 . S
C1090 H1084 0.949 . S
C1090 C1094 1.368 . S
C1091 C1072 1.429 . S
C1091 C1085 1.429 . S
C1091 C1092 1.523 . S
C1092 C1073 1.368 . S
C1092 C1086 1.368 . S
C1092 C1091 1.523 . S
C1093 C1077 1.429 . S
C1093 C1089 1.429 . S
C1093 C1094 1.523 . S
C1094 C1078 1.368 . S
C1094 C1090 1.368 . S
C1094 C1093 1.523 . S
H1095 C1070 0.950 . S
H1096 C1072 0.950 . S
H1097 C1073 0.949 . S
H1098 C1075 0.950 . S
H1099 C1077 0.950 . S
C1100 C1101 1.349 . S
C1100 C1102 1.327 . S
C1100 H1125 0.950 . S
C1101 C1100 1.349 . S
C1101 C1117 1.349 . S
C1102 C1100 1.327 . S
C1102 C1121 1.429 . S
C1102 H1126 0.950 . S
C1103 C1120 1.574 . S
C1103 C1122 1.368 . S
C1103 H1127 0.949 . S
H1104 C1108 0.949 . S
C1105 C1106 1.349 . S
C1105 C1107 1.327 . S
C1105 H1128 0.950 . S
C1106 C1105 1.349 . S
C1106 C1118 1.349 . S
C1107 C1105 1.327 . S
C1107 C1123 1.429 . S
C1107 H1129 0.950 . S
C1108 H1104 0.949 . S
C1108 C1116 1.574 . S
C1108 C1124 1.368 . S
H1109 C1117 0.950 . S
H1110 C1115 0.950 . S
H1111 C1116 0.949 . S
H1112 C1118 0.950 . S
H1113 C1119 0.950 . S
H1114 C1120 0.949 . S
C1115 H1110 0.950 . S
C1115 C1117 1.327 . S
C1115 C1121 1.429 . S
C1116 C1108 1.574 . S
C1116 H1111 0.949 . S
C1116 C1122 1.368 . S
C1117 C1101 1.349 . S
C1117 H1109 0.950 . S
C1117 C1115 1.327 . S
C1118 C1106 1.349 . S
C1118 H1112 0.950 . S
C1118 C1119 1.327 . S
C1119 H1113 0.950 . S
C1119 C1118 1.327 . S
C1119 C1123 1.429 . S
C1120 C1103 1.574 . S
C1120 H1114 0.949 . S
C1120 C1124 1.368 . S
C1121 C1102 1.429 . S
C1121 C1115 1.429 . S
C1121 C1122 1.523 . S
C1122 C1103 1.368 . S
C1122 C1116 1.368 . S
C1122 C1121 1.523 . S
C1123 C1107 1.429 . S
C1123 C1119 1.429 . S
C1123 C1124 1.523 . S
C1124 C1108 1.368 . S
C1124 C1120 1.368 . S
C1124 C1123 1.523 . S
H1125 C1100 0.950 . S
H1126 C1102 0.950 . S
H1127 C1103 0.949 . S
H1128 C1105 0.950 . S
H1129 C1107 0.950 . S
C1130 C1131 1.349 . S
C1130 C1132 1.327 . S
C1130 H1155 0.950 . S
C1131 C1130 1.349 . S
C1131 C1147 1.349 . S
C1132 C1130 1.327 . S
C1132 C1151 1.429 . S
C1132 H1156 0.950 . S
C1133 C1150 1.574 . S
C1133 C1152 1.368 . S
C1133 H1157 0.949 . S
H1134 C1138 0.949 . S
C1135 C1136 1.349 . S
C1135 C1137 1.327 . S
C1135 H1158 0.950 . S
C1136 C1135 1.349 . S
C1136 C1148 1.349 . S
C1137 C1135 1.327 . S
C1137 C1153 1.429 . S
C1137 H1159 0.950 . S
C1138 H1134 0.949 . S
C1138 C1146 1.574 . S
C1138 C1154 1.368 . S
H1139 C1147 0.950 . S
H1140 C1145 0.950 . S
H1141 C1146 0.949 . S
H1142 C1148 0.950 . S
H1143 C1149 0.950 . S
H1144 C1150 0.949 . S
C1145 H1140 0.950 . S
C1145 C1147 1.327 . S
C1145 C1151 1.429 . S
C1146 C1138 1.574 . S
C1146 H1141 0.949 . S
C1146 C1152 1.368 . S
C1147 C1131 1.349 . S
C1147 H1139 0.950 . S
C1147 C1145 1.327 . S
C1148 C1136 1.349 . S
C1148 H1142 0.950 . S
C1148 C1149 1.327 . S
C1149 H1143 0.950 . S
C1149 C1148 1.327 . S
C1149 C1153 1.429 . S
C1150 C1133 1.574 . S
C1150 H1144 0.949 . S
C1150 C1154 1.368 . S
C1151 C1132 1.429 . S
C1151 C1145 1.429 . S
C1151 C1152 1.523 . S
C1152 C1133 1.368 . S
C1152 C1146 1.368 . S
C1152 C1151 1.523 . S
C1153 C1137 1.429 . S
C1153 C1149 1.429 . S
C1153 C1154 1.523 . S
C1154 C1138 1.368 . S
C1154 C1150 1.368 . S
C1154 C1153 1.523 . S
H1155 C1130 0.950 . S
H1156 C1132 0.950 . S
H1157 C1133 0.949 . S
H1158 C1135 0.950 . S
H1159 C1137 0.950 . S
C441 C86 1.639 . S
C446 C178 1.622 . S
C476 C262 1.700 . S
C471 C100 1.721 . S
C506 C255 1.629 . S
C501 C60 1.631 . S
C531 C74 1.712 . S
C536 C171 1.713 . S
C566 C335 1.700 . S
C561 C35 1.720 . S
C596 C419 1.622 . S
C591 C47 1.641 . S
C621 C9 1.710 . S
C626 C412 1.713 . S
C651 C21 1.634 . S
C656 C328 1.629 . S
C686 C162 1.450 . S
C681 C22 1.600 . S
C716 C246 1.455 . S
C711 C8 1.614 . S
C746 C257 1.415 . S
C741 C48 1.610 . S
C776 C173 1.423 . S
C771 C34 1.625 . S
C806 C341 1.455 . S
C801 C73 1.617 . S
C831 C61 1.599 . S
C836 C425 1.450 . S
C866 C414 1.423 . S
C861 C99 1.627 . S
C891 C87 1.608 . S
C896 C330 1.415 . S
C926 C160 1.638 . S
C921 C4 1.550 . S
C956 C244 1.510 . S
C951 C17 1.491 . S
C981 C30 1.549 . S
C986 C251 1.611 . S
C1016 C167 1.480 . S
C1011 C43 1.484 . S
C1046 C339 1.510 . S
C1041 C56 1.466 . S
C1071 C69 1.577 . S
C1076 C423 1.638 . S
C1101 C82 1.462 . S
C1106 C430 1.480 . S
C1131 C95 1.573 . S
C1136 C346 1.610 . S
