# Generated by pormake.
# Topology nom, (4,4)-cn, num edge types: 1
# Building blocks:
#     Node 0, Type 0, BuildingBlock: MIFKUJ_clean_linker_1, # of connection points: 4
#     Node 1, Type 0, BuildingBlock: MIFKUJ_clean_linker_1, # of connection points: 4
#     Node 2, Type 0, BuildingBlock: MIFKUJ_clean_linker_1, # of connection points: 4
#     Node 3, Type 0, BuildingBlock: MIFKUJ_clean_linker_1, # of connection points: 4
#     Node 4, Type 0, BuildingBlock: MIFKUJ_clean_linker_1, # of connection points: 4
#     Node 5, Type 0, BuildingBlock: MIFKUJ_clean_linker_1, # of connection points: 4
#     Node 6, Type 1, BuildingBlock: GALJAG_clean_sbu_0, # of connection points: 4
#     Node 7, Type 1, BuildingBlock: GALJAG_clean_sbu_0, # of connection points: 4
#     Node 8, Type 1, BuildingBlock: GALJAG_clean_sbu_0, # of connection points: 4
#     Node 9, Type 1, BuildingBlock: GALJAG_clean_sbu_0, # of connection points: 4
#     Node 10, Type 1, BuildingBlock: GALJAG_clean_sbu_0, # of connection points: 4
#     Node 11, Type 1, BuildingBlock: GALJAG_clean_sbu_0, # of connection points: 4
#     Edge 12, Type (0, 1), BuildingBlock: XIVTED_clean_linker_0, # of connection points: 2
#     Edge 13, Type (0, 1), BuildingBlock: XIVTED_clean_linker_0, # of connection points: 2
#     Edge 14, Type (0, 1), BuildingBlock: XIVTED_clean_linker_0, # of connection points: 2
#     Edge 15, Type (0, 1), BuildingBlock: XIVTED_clean_linker_0, # of connection points: 2
#     Edge 16, Type (0, 1), BuildingBlock: XIVTED_clean_linker_0, # of connection points: 2
#     Edge 17, Type (0, 1), BuildingBlock: XIVTED_clean_linker_0, # of connection points: 2
#     Edge 18, Type (0, 1), BuildingBlock: XIVTED_clean_linker_0, # of connection points: 2
#     Edge 19, Type (0, 1), BuildingBlock: XIVTED_clean_linker_0, # of connection points: 2
#     Edge 20, Type (0, 1), BuildingBlock: XIVTED_clean_linker_0, # of connection points: 2
#     Edge 21, Type (0, 1), BuildingBlock: XIVTED_clean_linker_0, # of connection points: 2
#     Edge 22, Type (0, 1), BuildingBlock: XIVTED_clean_linker_0, # of connection points: 2
#     Edge 23, Type (0, 1), BuildingBlock: XIVTED_clean_linker_0, # of connection points: 2
#     Edge 24, Type (0, 1), BuildingBlock: XIVTED_clean_linker_0, # of connection points: 2
#     Edge 25, Type (0, 1), BuildingBlock: XIVTED_clean_linker_0, # of connection points: 2
#     Edge 26, Type (0, 1), BuildingBlock: XIVTED_clean_linker_0, # of connection points: 2
#     Edge 27, Type (0, 1), BuildingBlock: XIVTED_clean_linker_0, # of connection points: 2
#     Edge 28, Type (0, 1), BuildingBlock: XIVTED_clean_linker_0, # of connection points: 2
#     Edge 29, Type (0, 1), BuildingBlock: XIVTED_clean_linker_0, # of connection points: 2
#     Edge 30, Type (0, 1), BuildingBlock: XIVTED_clean_linker_0, # of connection points: 2
#     Edge 31, Type (0, 1), BuildingBlock: XIVTED_clean_linker_0, # of connection points: 2
#     Edge 32, Type (0, 1), BuildingBlock: XIVTED_clean_linker_0, # of connection points: 2
#     Edge 33, Type (0, 1), BuildingBlock: XIVTED_clean_linker_0, # of connection points: 2
#     Edge 34, Type (0, 1), BuildingBlock: XIVTED_clean_linker_0, # of connection points: 2
#     Edge 35, Type (0, 1), BuildingBlock: XIVTED_clean_linker_0, # of connection points: 2
# Relax obj value: 0.004
# Max RMSD: 0.109
# Mean RMSD: 0.081
data_MOF--net-nom--node1-GALJAG_clean_sbu_0--node2-MIFKUJ_clean_linker_1--edge1-XIVTED_clean_linker_0
_symmetry_space_group_name_H-M    P1
_symmetry_Int_Tables_number       1
_symmetry_cell_setting            triclinic
loop_
_symmetry_equiv_pos_as_xyz
'x, y, z'
_cell_length_a     53.558641
_cell_length_b     53.460836
_cell_length_c     58.606013
_cell_angle_alpha  90.042673
_cell_angle_beta   89.967485
_cell_angle_gamma 120.05031
loop_
_atom_site_label
_atom_site_type_symbol
_atom_site_fract_x
_atom_site_fract_y
_atom_site_fract_z
_atom_type_partial_charge
H0 H 0.98738 0.49377 0.27909 0.0
H1 H 0.95448 0.47244 0.24683 0.0
H2 H 0.91873 0.52761 0.26071 0.0
H3 H 0.95219 0.54928 0.2928 0.0
H4 H 0.02932 0.55119 0.28523 0.0
H5 H 0.93984 0.47985 0.32323 0.0
H6 H 0.88918 0.45879 0.33427 0.0
H7 H 0.90758 0.54098 0.36262 0.0
H8 H 0.95816 0.56172 0.35175 0.0
H9 H 0.04129 0.59546 0.37844 0.0
H10 H 0.07337 0.607 0.41128 0.0
H11 H 0.1025 0.55038 0.38489 0.0
H12 H 0.07103 0.5397 0.35189 0.0
H13 H -0.00306 0.54482 0.36539 0.0
H14 H 0.08333 0.6156 0.33432 0.0
H15 H 0.13396 0.64353 0.32317 0.0
H16 H 0.123 0.57363 0.27953 0.0
H17 H 0.07243 0.54518 0.29132 0.0
C18 C 0.97211 0.52298 0.2884 0.0
C19 C 0.97243 0.50125 0.27519 0.0
C20 C 0.95346 0.48892 0.25687 0.0
C21 C 0.93392 0.49825 0.25128 0.0
C22 C 0.93367 0.52011 0.26451 0.0
C23 C 0.95261 0.53235 0.28294 0.0
C24 C 0.99271 0.53601 0.30758 0.0
C25 C 0.02233 0.54946 0.30282 0.0
C26 C 0.98351 0.53529 0.33032 0.0
C27 C 0.95268 0.52241 0.3365 0.0
C28 C 0.93286 0.49335 0.33165 0.0
C29 C 0.90392 0.48137 0.33795 0.0
C30 C 0.89433 0.49821 0.34934 0.0
C31 C 0.91431 0.5273 0.35418 0.0
C32 C 0.9432 0.53923 0.34788 0.0
C33 C 0.05392 0.56689 0.36265 0.0
C34 C 0.05473 0.58569 0.37972 0.0
C35 C 0.07298 0.59212 0.39855 0.0
C36 C 0.09053 0.57957 0.40082 0.0
C37 C 0.08972 0.56086 0.38357 0.0
C38 C 0.07165 0.55463 0.36468 0.0
C39 C 0.03364 0.55893 0.34318 0.0
C40 C 0.0041 0.5466 0.34784 0.0
C41 C 0.043 0.56149 0.32027 0.0
C42 C 0.07406 0.57802 0.31398 0.0
C43 C 0.09188 0.60593 0.32275 0.0
C44 C 0.1208 0.62197 0.31629 0.0
C45 C 0.13236 0.61069 0.30053 0.0
C46 C 0.11454 0.58288 0.2916 0.0
C47 C 0.08568 0.56664 0.29834 0.0
H48 H 0.41138 0.96011 0.51975 0.0
H49 H 0.38135 0.90948 0.53068 0.0
H50 H 0.44626 0.89143 0.50467 0.0
H51 H 0.47601 0.94211 0.49352 0.0
H52 H 0.46626 -0.00055 0.53433 0.0
H53 H 0.41982 0.95424 0.46145 0.0
H54 H 0.40852 0.92128 0.42905 0.0
H55 H 0.49964 0.95689 0.41644 0.0
H56 H 0.51072 0.98926 0.44905 0.0
H57 H 0.54717 0.07627 0.46483 0.0
H58 H 0.5686 0.12647 0.45192 0.0
H59 H 0.5008 0.13341 0.48606 0.0
H60 H 0.47934 0.08325 0.49866 0.0
H61 H 0.49587 0.03137 0.4545 0.0
H62 H 0.5459 0.07337 0.52181 0.0
H63 H 0.56574 0.10505 0.5548 0.0
H64 H 0.47928 0.07687 0.57888 0.0
H65 H 0.45964 0.04444 0.54605 0.0
C66 C 0.44579 0.9548 0.50566 0.0
C67 C 0.41911 0.94521 0.51641 0.0
C68 C 0.40204 0.91629 0.52274 0.0
C69 C 0.41141 0.89638 0.51859 0.0
C70 C 0.4382 0.90609 0.50782 0.0
C71 C 0.45527 0.93505 0.50146 0.0
C72 C 0.46389 0.98568 0.49944 0.0
C73 C 0.47236 0.00646 0.51682 0.0
C74 C 0.47332 0.99474 0.47682 0.0
C75 C 0.46611 0.97404 0.45774 0.0
C76 C 0.43732 0.95467 0.45185 0.0
C77 C 0.43091 0.93604 0.43323 0.0
C78 C 0.4532 0.93647 0.42019 0.0
C79 C 0.48199 0.95575 0.4263 0.0
C80 C 0.48836 0.9744 0.44482 0.0
C81 C 0.51177 0.07608 0.48281 0.0
C82 C 0.53706 0.08869 0.46963 0.0
C83 C 0.54934 0.11738 0.46238 0.0
C84 C 0.53629 0.13379 0.46792 0.0
C85 C 0.51116 0.12119 0.48134 0.0
C86 C 0.49906 0.09264 0.48874 0.0
C87 C 0.49751 0.04515 0.48928 0.0
C88 C 0.48978 0.02438 0.47201 0.0
C89 C 0.48966 0.03603 0.51209 0.0
C90 C 0.50129 0.05668 0.5314 0.0
C91 C 0.53122 0.07427 0.53407 0.0
C92 C 0.54253 0.09248 0.55295 0.0
C93 C 0.52416 0.09361 0.56958 0.0
C94 C 0.49411 0.07624 0.56665 0.0
C95 C 0.48281 0.05782 0.54782 0.0
H96 H 0.51197 0.54148 0.70258 0.0
H97 H 0.49896 0.56248 0.73429 0.0
H98 H 0.40871 0.50696 0.7184 0.0
H99 H 0.42192 0.48572 0.68684 0.0
H100 H 0.49554 0.48275 0.69688 0.0
H101 H 0.48146 0.55621 0.6569 0.0
H102 H 0.45231 0.57757 0.64529 0.0
H103 H 0.38819 0.49518 0.61744 0.0
H104 H 0.41771 0.47428 0.62868 0.0
H105 H 0.46581 0.44233 0.60187 0.0
H106 H 0.48582 0.42955 0.56947 0.0
H107 H 0.57005 0.47365 0.60109 0.0
H108 H 0.55017 0.48764 0.63285 0.0
H109 H 0.47413 0.49088 0.61581 0.0
H110 H 0.48384 0.41713 0.64881 0.0
H111 H 0.50393 0.38725 0.66123 0.0
H112 H 0.5636 0.45616 0.70525 0.0
H113 H 0.54407 0.48646 0.69225 0.0
C114 C 0.46793 0.51218 0.69232 0.0
C115 C 0.48939 0.5339 0.70591 0.0
C116 C 0.48193 0.54603 0.7239 0.0
C117 C 0.45282 0.53644 0.72879 0.0
C118 C 0.43132 0.51465 0.71513 0.0
C119 C 0.43882 0.50264 0.69702 0.0
C120 C 0.47623 0.49918 0.67358 0.0
C121 C 0.49134 0.48486 0.67908 0.0
C122 C 0.46906 0.50041 0.65058 0.0
C123 C 0.45165 0.51364 0.64374 0.0
C124 C 0.46107 0.5428 0.64836 0.0
C125 C 0.44433 0.55492 0.64177 0.0
C126 C 0.41789 0.5381 0.6304 0.0
C127 C 0.40863 0.50891 0.6258 0.0
C128 C 0.4254 0.49687 0.63231 0.0
C129 C 0.5064 0.46582 0.61991 0.0
C130 C 0.4886 0.44928 0.60181 0.0
C131 C 0.50005 0.44174 0.58338 0.0
C132 C 0.52959 0.45053 0.58263 0.0
C133 C 0.5473 0.46681 0.60093 0.0
C134 C 0.53587 0.47451 0.61928 0.0
C135 C 0.49451 0.47516 0.63892 0.0
C136 C 0.47858 0.48871 0.63353 0.0
C137 C 0.49994 0.47214 0.66213 0.0
C138 C 0.51273 0.45429 0.66929 0.0
C139 C 0.50163 0.4261 0.66079 0.0
C140 C 0.51301 0.40896 0.66797 0.0
C141 C 0.53533 0.41943 0.68417 0.0
C142 C 0.54625 0.4475 0.69287 0.0
C143 C 0.53513 0.46481 0.68543 0.0
H144 H 0.03614 0.53574 0.77783 0.0
H145 H 0.06899 0.55574 0.74542 0.0
H146 H 0.10476 0.50117 0.76156 0.0
H147 H 0.07133 0.48083 0.79388 0.0
H148 H 0.99432 0.47815 0.78578 0.0
H149 H 0.0865 0.55102 0.8189 0.0
H150 H 0.13722 0.57082 0.82878 0.0
H151 H 0.11483 0.49408 0.86831 0.0
H152 H 0.0647 0.47365 0.85695 0.0
H153 H 0.9881 0.44386 0.88193 0.0
H154 H 0.95698 0.43328 0.91515 0.0
H155 H 0.91631 0.47665 0.88318 0.0
H156 H 0.94867 0.4886 0.85059 0.0
H157 H 0.02794 0.49118 0.86597 0.0
H158 H 0.94139 0.41674 0.83682 0.0
H159 H 0.8906 0.38776 0.82619 0.0
H160 H 0.90043 0.45466 0.77965 0.0
H161 H 0.95106 0.48421 0.79093 0.0
C162 C 0.05145 0.50697 0.78833 0.0
C163 C 0.05103 0.52805 0.77436 0.0
C164 C 0.06998 0.53963 0.75597 0.0
C165 C 0.08961 0.53018 0.75102 0.0
C166 C 0.08978 0.50877 0.76488 0.0
C167 C 0.07085 0.49727 0.78341 0.0
C168 C 0.03127 0.49525 0.80789 0.0
C169 C 0.00157 0.48125 0.80337 0.0
C170 C 0.04087 0.49787 0.83071 0.0
C171 C 0.0718 0.51058 0.83681 0.0
C172 C 0.09263 0.53824 0.82932 0.0
C173 C 0.12162 0.54973 0.8353 0.0
C174 C 0.1303 0.53405 0.84931 0.0
C175 C 0.10921 0.50657 0.85709 0.0
C176 C 0.08038 0.49496 0.85082 0.0
C177 C 0.97066 0.46688 0.86363 0.0
C178 C 0.97254 0.45118 0.8821 0.0
C179 C 0.95448 0.44487 0.90102 0.0
C180 C 0.93401 0.45403 0.90189 0.0
C181 C 0.93203 0.46955 0.88327 0.0
C182 C 0.95028 0.47608 0.86444 0.0
C183 C 0.99079 0.47465 0.84398 0.0
C184 C 0.02049 0.48791 0.84843 0.0
C185 C 0.98113 0.47025 0.82105 0.0
C186 C 0.95005 0.45293 0.81497 0.0
C187 C 0.93255 0.42551 0.82468 0.0
C188 C 0.90355 0.40888 0.81853 0.0
C189 C 0.89165 0.41903 0.80214 0.0
C190 C 0.90917 0.44629 0.79223 0.0
C191 C 0.93806 0.46315 0.79868 0.0
H192 H 0.61185 0.06856 0.01961 0.0
H193 H 0.6408 0.11895 0.03141 0.0
H194 H 0.57609 0.1364 0.00408 0.0
H195 H 0.5474 0.08589 0.99202 0.0
H196 H 0.55658 0.02885 0.03321 0.0
H197 H 0.6053 0.07545 0.96127 0.0
H198 H 0.61686 0.10897 0.92927 0.0
H199 H 0.52595 0.07118 0.91461 0.0
H200 H 0.51457 0.03827 0.94685 0.0
H201 H 0.47978 0.95141 0.96238 0.0
H202 H 0.45928 0.90117 0.94985 0.0
H203 H 0.52727 0.89588 0.98515 0.0
H204 H 0.54778 0.94612 0.99748 0.0
H205 H 0.53092 -0.0028 0.95287 0.0
H206 H 0.47945 0.94944 0.0178 0.0
H207 H 0.45987 0.91719 0.05047 0.0
H208 H 0.5448 0.95761 0.08088 0.0
H209 H 0.56455 0.98868 0.04747 0.0
C210 C 0.57759 0.07354 0.00482 0.0
C211 C 0.60393 0.08327 0.01614 0.0
C212 C 0.62038 0.11205 0.02298 0.0
C213 C 0.61072 0.13171 0.01879 0.0
C214 C 0.58433 0.12192 0.00732 0.0
C215 C 0.56788 0.09306 0.00045 0.0
C216 C 0.56007 0.04269 0.99833 0.0
C217 C 0.55135 0.02182 0.01562 0.0
C218 C 0.55171 0.03372 0.97553 0.0
C219 C 0.55906 0.05454 0.95654 0.0
C220 C 0.58789 0.07464 0.9513 0.0
C221 C 0.59445 0.0936 0.9329 0.0
C222 C 0.5723 0.09276 0.91943 0.0
C223 C 0.54348 0.07267 0.92483 0.0
C224 C 0.53695 0.05369 0.94314 0.0
C225 C 0.51518 0.95243 0.98097 0.0
C226 C 0.49019 0.93937 0.96747 0.0
C227 C 0.47844 0.91066 0.96043 0.0
C228 C 0.49173 0.89466 0.9665 0.0
C229 C 0.51673 0.90778 0.98005 0.0
C230 C 0.5283 0.93637 0.98727 0.0
C231 C 0.52841 0.98322 0.98769 0.0
C232 C 0.5362 0.00408 0.9705 0.0
C233 C 0.53506 0.99218 0.01069 0.0
C234 C 0.52358 0.97134 0.02998 0.0
C235 C 0.49402 0.95091 0.03122 0.0
C236 C 0.48274 0.93276 0.05014 0.0
C237 C 0.50068 0.93489 0.06845 0.0
C238 C 0.53037 0.95509 0.06702 0.0
C239 C 0.54168 0.97308 0.04798 0.0
H240 H 0.51595 0.49924 0.20794 0.0
H241 H 0.52771 0.47899 0.2408 0.0
H242 H 0.61681 0.52151 0.21951 0.0
H243 H 0.60528 0.54288 0.18706 0.0
H244 H 0.53235 0.55238 0.19776 0.0
H245 H 0.54663 0.47755 0.1601 0.0
H246 H 0.57483 0.45517 0.14819 0.0
H247 H 0.63865 0.53623 0.11834 0.0
H248 H 0.61024 0.55821 0.13 0.0
H249 H 0.56271 0.59326 0.10407 0.0
H250 H 0.5425 0.60499 0.07116 0.0
H251 H 0.45669 0.55116 0.09841 0.0
H252 H 0.47719 0.5402 0.1315 0.0
H253 H 0.55457 0.54195 0.11739 0.0
H254 H 0.54166 0.61532 0.14807 0.0
H255 H 0.51952 0.64378 0.15935 0.0
H256 H 0.46137 0.57493 0.20406 0.0
H257 H 0.48286 0.54596 0.19215 0.0
C258 C 0.55963 0.52238 0.19481 0.0
C259 C 0.53807 0.50438 0.21034 0.0
C260 C 0.54478 0.4928 0.22911 0.0
C261 C 0.57313 0.49868 0.23261 0.0
C262 C 0.59472 0.51644 0.21701 0.0
C263 C 0.5881 0.52851 0.19843 0.0
C264 C 0.55202 0.5352 0.17541 0.0
C265 C 0.53675 0.54965 0.18015 0.0
C266 C 0.55935 0.53329 0.15251 0.0
C267 C 0.57645 0.51957 0.14603 0.0
C268 C 0.56679 0.49048 0.15112 0.0
C269 C 0.58296 0.47776 0.14434 0.0
C270 C 0.60894 0.49389 0.13223 0.0
C271 C 0.61851 0.52305 0.12727 0.0
C272 C 0.60238 0.5357 0.13403 0.0
C273 C 0.52148 0.566 0.12029 0.0
C274 C 0.53956 0.58414 0.10297 0.0
C275 C 0.52793 0.59068 0.08411 0.0
C276 C 0.49791 0.57893 0.08203 0.0
C277 C 0.47991 0.56097 0.09957 0.0
C278 C 0.49158 0.5546 0.11849 0.0
C279 C 0.53364 0.5578 0.13972 0.0
C280 C 0.54995 0.5445 0.135 0.0
C281 C 0.52779 0.56133 0.16267 0.0
C282 C 0.51368 0.57824 0.16897 0.0
C283 C 0.52372 0.606 0.15991 0.0
C284 C 0.51117 0.62234 0.16644 0.0
C285 C 0.48874 0.61151 0.18255 0.0
C286 C 0.47878 0.58384 0.19173 0.0
C287 C 0.49104 0.5673 0.18492 0.0
In288 In 0.63095 0.39374 0.40586 0.0
O289 O 0.67905 0.42295 0.41357 0.0
O290 O 0.6672 0.39798 0.38313 0.0
C291 C 0.61102 0.40727 0.44343 0.0
C292 C 0.61429 0.41388 0.37009 0.0
C293 C 0.61208 0.3376 0.41514 0.0
O294 O 0.63737 0.42082 0.43788 0.0
O295 O 0.59488 0.38723 0.42994 0.0
O296 O 0.59813 0.34557 0.40268 0.0
O297 O 0.6356 0.35788 0.42269 0.0
C298 C 0.68729 0.41606 0.39564 0.0
O299 O 0.61348 0.3899 0.36964 0.0
O300 O 0.62289 0.42738 0.38869 0.0
In301 In 0.25036 0.63297 0.57584 0.0
O302 O 0.26893 0.60326 0.56977 0.0
O303 O 0.28765 0.6349 0.59594 0.0
C304 C 0.21353 0.61748 0.54021 0.0
C305 C 0.21557 0.61093 0.61252 0.0
C306 C 0.28546 0.68932 0.56561 0.0
O307 O 0.23386 0.61201 0.54095 0.0
O308 O 0.21147 0.63026 0.55759 0.0
O309 O 0.26887 0.68128 0.5827 0.0
O310 O 0.28442 0.66903 0.55393 0.0
C311 C 0.28766 0.61437 0.58533 0.0
O312 O 0.2309 0.63778 0.60909 0.0
O313 O 0.21754 0.59527 0.59732 0.0
In314 In 0.63027 0.25381 0.74448 0.0
O315 O 0.67864 0.27439 0.73746 0.0
O316 O 0.66543 0.28894 0.76633 0.0
C317 C 0.60852 0.21611 0.70947 0.0
C318 C 0.616 0.21779 0.78045 0.0
C319 C 0.61097 0.29014 0.73313 0.0
O320 O 0.63494 0.2349 0.7109 0.0
O321 O 0.59323 0.21595 0.72593 0.0
O322 O 0.60451 0.27669 0.75187 0.0
O323 O 0.62711 0.28536 0.72045 0.0
C324 C 0.68607 0.29097 0.75455 0.0
O325 O 0.60389 0.23247 0.77658 0.0
O326 O 0.63486 0.22099 0.76601 0.0
In327 In 0.39244 0.63293 0.90659 0.0
O328 O 0.34478 0.59856 0.90912 0.0
O329 O 0.35608 0.63611 0.88934 0.0
C330 C 0.41213 0.61764 0.94347 0.0
C331 C 0.40593 0.61337 0.86874 0.0
C332 C 0.4139 0.68927 0.91668 0.0
O333 O 0.38727 0.61473 0.94276 0.0
O334 O 0.42677 0.62781 0.92554 0.0
O335 O 0.4264 0.68081 0.90303 0.0
O336 O 0.39069 0.6694 0.92502 0.0
C337 C 0.33631 0.61208 0.89661 0.0
O338 O 0.41479 0.63989 0.87194 0.0
O339 O 0.39069 0.597 0.88468 0.0
In340 In 0.77233 0.39454 0.07666 0.0
O341 O 0.79246 0.38946 0.10951 0.0
O342 O 0.8067 0.43197 0.09744 0.0
C343 C 0.73539 0.33882 0.06602 0.0
C344 C 0.73481 0.41263 0.08688 0.0
C345 C 0.80901 0.40957 0.04098 0.0
O346 O 0.75216 0.34604 0.08297 0.0
O347 O 0.73715 0.35967 0.05465 0.0
O348 O 0.7944 0.4217 0.04496 0.0
O349 O 0.80541 0.3903 0.05514 0.0
C350 C 0.80857 0.41628 0.11261 0.0
O351 O 0.75083 0.42141 0.06946 0.0
O352 O 0.73762 0.39467 0.09894 0.0
In353 In 0.3942 0.77667 0.24434 0.0
O354 O 0.4198 0.75382 0.25173 0.0
O355 O 0.39515 0.74313 0.22117 0.0
C356 C 0.41001 0.8137 0.27983 0.0
C357 C 0.41619 0.81369 0.20895 0.0
C358 C 0.33863 0.73927 0.25489 0.0
O359 O 0.42102 0.79796 0.27629 0.0
O360 O 0.39155 0.81114 0.26524 0.0
O361 O 0.3458 0.75334 0.23643 0.0
O362 O 0.35938 0.74399 0.26775 0.0
C363 C 0.412 0.73907 0.23359 0.0
O364 O 0.38951 0.79999 0.21336 0.0
O365 O 0.43165 0.80912 0.22262 0.0
H366 H 0.15389 0.6206 0.25705 0.0
H367 H 0.3183 0.71434 0.29634 0.0
H368 H 0.17994 0.64066 0.32742 0.0
H369 H 0.29022 0.71871 0.22821 0.0
H370 H 0.26814 0.68194 0.30725 0.0
H371 H 0.20436 0.65114 0.24538 0.0
C372 C 0.17029 0.63127 0.27002 0.0
C373 C 0.16282 0.6282 0.29322 0.0
C374 C 0.27294 0.68998 0.28991 0.0
C375 C 0.22035 0.663 0.28005 0.0
C376 C 0.30156 0.70839 0.28365 0.0
C377 C 0.30837 0.71926 0.26135 0.0
C378 C 0.25097 0.68209 0.2737 0.0
C379 C 0.28584 0.71087 0.2456 0.0
C380 C 0.19899 0.64881 0.26336 0.0
C381 C 0.18481 0.64269 0.30935 0.0
N382 N 0.25808 0.69268 0.25206 0.0
N383 N 0.2126 0.65939 0.30247 0.0
H384 H 0.5928 0.17723 0.46731 0.0
H385 H 0.55916 0.2909 0.40586 0.0
H386 H 0.50714 0.15827 0.44867 0.0
H387 H 0.64041 0.31496 0.43836 0.0
H388 H 0.541 0.24083 0.41773 0.0
H389 H 0.61195 0.22661 0.45313 0.0
C390 C 0.57806 0.18344 0.46014 0.0
C391 C 0.54834 0.1637 0.45926 0.0
C392 C 0.56282 0.25706 0.42222 0.0
C393 C 0.57003 0.22004 0.44302 0.0
C394 C 0.57322 0.2856 0.41538 0.0
C395 C 0.60128 0.30708 0.42121 0.0
C396 C 0.5807 0.24993 0.43482 0.0
C397 C 0.61859 0.29906 0.43359 0.0
C398 C 0.58896 0.21163 0.45215 0.0
C399 C 0.53016 0.17293 0.44995 0.0
N400 N 0.60802 0.27111 0.43999 0.0
N401 N 0.5413 0.20041 0.44216 0.0
H402 H 0.408 0.5768 0.65389 0.0
H403 H 0.29427 0.57285 0.56342 0.0
H404 H 0.38664 0.52832 0.59097 0.0
H405 H 0.32646 0.63196 0.62034 0.0
H406 H 0.32689 0.5551 0.57385 0.0
H407 H 0.37743 0.59645 0.64239 0.0
C408 C 0.3971 0.57045 0.63758 0.0
C409 C 0.3999 0.55079 0.62342 0.0
C410 C 0.32689 0.57202 0.58401 0.0
C411 C 0.36445 0.5729 0.6103 0.0
C412 C 0.30826 0.58212 0.57808 0.0
C413 C 0.30767 0.60387 0.59105 0.0
C414 C 0.34493 0.58363 0.60314 0.0
C415 C 0.32624 0.61516 0.60987 0.0
C416 C 0.3795 0.58157 0.63107 0.0
C417 C 0.38479 0.54301 0.60263 0.0
N418 N 0.34404 0.60483 0.6154 0.0
N419 N 0.36767 0.55401 0.59674 0.0
H420 H 0.84433 0.39117 0.82963 0.0
H421 H 0.73429 0.30679 0.72865 0.0
H422 H 0.86979 0.40573 0.75886 0.0
H423 H 0.70691 0.31971 0.79471 0.0
H424 H 0.78463 0.33888 0.73996 0.0
H425 H 0.79406 0.36045 0.81777 0.0
C426 C 0.83928 0.38783 0.81159 0.0
C427 C 0.86113 0.40097 0.79518 0.0
C428 C 0.76755 0.33474 0.75191 0.0
C429 C 0.80388 0.36583 0.78151 0.0
C430 C 0.73889 0.3164 0.74551 0.0
C431 C 0.71647 0.31065 0.76078 0.0
C432 C 0.77377 0.34698 0.77385 0.0
C433 C 0.72357 0.32366 0.7824 0.0
C434 C 0.81064 0.37046 0.80484 0.0
C435 C 0.85348 0.39615 0.77202 0.0
N436 N 0.75161 0.34107 0.78836 0.0
N437 N 0.82547 0.37878 0.76585 0.0
H438 H 0.43536 0.85119 0.96664 0.0
H439 H 0.46698 0.73543 0.90643 0.0
H440 H 0.52088 0.86953 0.94816 0.0
H441 H 0.38721 0.71275 0.94094 0.0
H442 H 0.486 0.78588 0.91789 0.0
H443 H 0.41611 0.80139 0.95353 0.0
C444 C 0.45005 0.84474 0.95972 0.0
C445 C 0.47975 0.86446 0.95854 0.0
C446 C 0.46433 0.76984 0.92293 0.0
C447 C 0.45793 0.80758 0.94353 0.0
C448 C 0.45345 0.7411 0.91633 0.0
C449 C 0.42552 0.71992 0.9228 0.0
C450 C 0.44702 0.77743 0.93588 0.0
C451 C 0.4089 0.7284 0.93566 0.0
C452 C 0.43909 0.81631 0.95236 0.0
C453 C 0.49787 0.8549 0.94961 0.0
N454 N 0.41988 0.7565 0.94174 0.0
N455 N 0.48667 0.82716 0.94238 0.0
H456 H 0.63704 0.50131 0.09151 0.0
H457 H 0.7002 0.39841 0.12447 0.0
H458 H 0.61991 0.45593 0.15565 0.0
H459 H 0.724 0.45046 0.06343 0.0
H460 H 0.66827 0.41686 0.13509 0.0
H461 H 0.66672 0.48068 0.07995 0.0
C462 C 0.6396 0.48708 0.10322 0.0
C463 C 0.62609 0.48051 0.12467 0.0
C464 C 0.68042 0.42421 0.11935 0.0
C465 C 0.65982 0.4565 0.11139 0.0
C466 C 0.69863 0.41367 0.11326 0.0
C467 C 0.71481 0.42299 0.09306 0.0
C468 C 0.67832 0.4442 0.10511 0.0
C469 C 0.71194 0.44276 0.07918 0.0
C470 C 0.65644 0.47519 0.09654 0.0
C471 C 0.62969 0.46142 0.13889 0.0
N472 N 0.69407 0.45274 0.08548 0.0
N473 N 0.64628 0.45017 0.13202 0.0
H474 H 0.40184 0.84779 0.49531 0.0
H475 H 0.29274 0.73732 0.58837 0.0
H476 H 0.37966 0.87489 0.55782 0.0
H477 H 0.32107 0.71101 0.52872 0.0
H478 H 0.32377 0.78789 0.57724 0.0
H479 H 0.37184 0.79751 0.5071 0.0
C480 C 0.39082 0.8432 0.51159 0.0
C481 C 0.39331 0.86566 0.52558 0.0
C482 C 0.32324 0.77105 0.56661 0.0
C483 C 0.35857 0.80802 0.53908 0.0
C484 C 0.30553 0.7422 0.57296 0.0
C485 C 0.30435 0.71998 0.55944 0.0
C486 C 0.33979 0.77768 0.54657 0.0
C487 C 0.32134 0.72749 0.53965 0.0
C488 C 0.37355 0.81445 0.51826 0.0
C489 C 0.37809 0.85831 0.54632 0.0
N490 N 0.33831 0.75568 0.53379 0.0
N491 N 0.36138 0.83015 0.55242 0.0
H492 H 0.54561 0.40935 0.72802 0.0
H493 H 0.61467 0.31335 0.69111 0.0
H494 H 0.5515 0.38758 0.6581 0.0
H495 H 0.58296 0.31117 0.75921 0.0
H496 H 0.59665 0.34522 0.6794 0.0
H497 H 0.56433 0.37805 0.74049 0.0
C498 C 0.551 0.39809 0.71532 0.0
C499 C 0.547 0.40099 0.69201 0.0
C500 C 0.59359 0.33776 0.6969 0.0
C501 C 0.56837 0.36533 0.70609 0.0
C502 C 0.60395 0.31965 0.70362 0.0
C503 C 0.60025 0.30959 0.72616 0.0
C504 C 0.57969 0.3462 0.71288 0.0
C505 C 0.58616 0.31839 0.74165 0.0
C506 C 0.56147 0.38013 0.72243 0.0
C507 C 0.55403 0.38573 0.67624 0.0
N508 N 0.57647 0.33633 0.73474 0.0
N509 N 0.5645 0.36866 0.68356 0.0
H510 H 0.17064 0.59073 0.85869 0.0
H511 H 0.29166 0.55674 0.90149 0.0
H512 H 0.16044 0.50533 0.85548 0.0
H513 H 0.31162 0.64112 0.87766 0.0
H514 H 0.24137 0.53775 0.88993 0.0
H515 H 0.22078 0.60995 0.87026 0.0
C516 C 0.17888 0.576 0.86021 0.0
C517 C 0.16107 0.54627 0.85606 0.0
C518 C 0.25679 0.56041 0.88725 0.0
C519 C 0.21834 0.56817 0.86994 0.0
C520 C 0.28541 0.57127 0.89393 0.0
C521 C 0.30577 0.6005 0.89047 0.0
C522 C 0.24845 0.57903 0.87737 0.0
C523 C 0.29658 0.61841 0.88054 0.0
C524 C 0.2075 0.58701 0.86698 0.0
C525 C 0.17302 0.52828 0.85889 0.0
N526 N 0.26854 0.60741 0.87442 0.0
N527 N 0.20082 0.53948 0.86575 0.0
H528 H 0.64038 0.15204 0.05897 0.0
H529 H 0.69953 0.31853 0.02912 0.0
H530 H 0.62061 0.18096 0.99634 0.0
H531 H 0.72665 0.28997 0.0881 0.0
H532 H 0.66818 0.26814 0.01799 0.0
H533 H 0.66997 0.20229 0.07094 0.0
C534 C 0.64236 0.16895 0.04767 0.0
C535 C 0.62809 0.16221 0.02653 0.0
C536 C 0.68094 0.27286 0.03339 0.0
C537 C 0.6617 0.2199 0.04031 0.0
C538 C 0.69881 0.30163 0.03978 0.0
C539 C 0.71575 0.30841 0.05955 0.0
C540 C 0.67993 0.25069 0.0469 0.0
C541 C 0.71397 0.28567 0.07271 0.0
C542 C 0.65915 0.19766 0.05458 0.0
C543 C 0.63097 0.18507 0.01286 0.0
N544 N 0.6964 0.25782 0.06613 0.0
N545 N 0.64749 0.21288 0.01996 0.0
H546 H 0.47056 0.64117 0.15588 0.0
H547 H 0.44155 0.71989 0.2596 0.0
H548 H 0.47871 0.62248 0.22617 0.0
H549 H 0.4062 0.71337 0.19227 0.0
H550 H 0.45945 0.68778 0.24745 0.0
H551 H 0.45109 0.67164 0.16861 0.0
C552 C 0.46824 0.64353 0.174 0.0
C553 C 0.47619 0.62932 0.19002 0.0
C554 C 0.44766 0.69331 0.2354 0.0
C555 C 0.45413 0.66416 0.2047 0.0
C556 C 0.43753 0.71166 0.2423 0.0
C557 C 0.42239 0.71925 0.22691 0.0
C558 C 0.44295 0.68289 0.21289 0.0
C559 C 0.41772 0.70799 0.20469 0.0
C560 C 0.45702 0.66077 0.18125 0.0
C561 C 0.47258 0.63289 0.21329 0.0
N562 N 0.42813 0.69053 0.1983 0.0
N563 N 0.46199 0.65014 0.21996 0.0
H564 H 0.84602 0.46071 0.32518 0.0
H565 H 0.73502 0.4547 0.4198 0.0
H566 H 0.87264 0.50681 0.38916 0.0
H567 H 0.70926 0.40496 0.3575 0.0
H568 H 0.78562 0.47458 0.40883 0.0
H569 H 0.79574 0.44032 0.33675 0.0
C570 C 0.84131 0.46641 0.34173 0.0
C571 C 0.86363 0.48552 0.35621 0.0
C572 C 0.76889 0.45929 0.39758 0.0
C573 C 0.80601 0.46249 0.36948 0.0
C574 C 0.74003 0.44796 0.40383 0.0
C575 C 0.71795 0.42818 0.38953 0.0
C576 C 0.77566 0.45079 0.37686 0.0
C577 C 0.72561 0.42016 0.36904 0.0
C578 C 0.81257 0.45488 0.34828 0.0
C579 C 0.85616 0.49248 0.37731 0.0
N580 N 0.7538 0.43151 0.36331 0.0
N581 N 0.828 0.48098 0.3833 0.0
H582 H 0.14482 0.58618 0.40319 0.0
H583 H 0.16487 0.62162 0.53655 0.0
H584 H 0.07865 0.5862 0.44535 0.0
H585 H 0.21904 0.59828 0.49828 0.0
H586 H 0.13476 0.61231 0.50268 0.0
H587 H 0.17416 0.59423 0.43723 0.0
C588 C 0.13635 0.58772 0.41958 0.0
C589 C 0.10909 0.58541 0.42131 0.0
C590 C 0.15316 0.60911 0.50172 0.0
C591 C 0.14291 0.59513 0.46038 0.0
C592 C 0.17036 0.61443 0.52103 0.0
C593 C 0.19445 0.61068 0.5202 0.0
C594 C 0.1603 0.60028 0.48136 0.0
C595 C 0.2006 0.60135 0.49966 0.0
C596 C 0.1532 0.59244 0.43901 0.0
C597 C 0.09964 0.58825 0.44304 0.0
N598 N 0.18372 0.59662 0.48101 0.0
N599 N 0.11653 0.593 0.46168 0.0
H600 H 0.57251 0.14753 0.57253 0.0
H601 H 0.55422 0.1696 0.70486 0.0
H602 H 0.50389 0.08227 0.61371 0.0
H603 H 0.63448 0.21928 0.66857 0.0
H604 H 0.53332 0.13963 0.67084 0.0
H605 H 0.59343 0.17661 0.60677 0.0
C606 C 0.56186 0.1392 0.58874 0.0
C607 C 0.5364 0.11223 0.59015 0.0
C608 C 0.55554 0.157 0.67038 0.0
C609 C 0.56009 0.14581 0.62943 0.0
C610 C 0.56747 0.17411 0.68976 0.0
C611 C 0.59612 0.19691 0.68951 0.0
C612 C 0.57228 0.163 0.65052 0.0
C613 C 0.61233 0.20184 0.6695 0.0
C614 C 0.5738 0.1559 0.60829 0.0
C615 C 0.52329 0.10303 0.61165 0.0
N616 N 0.60012 0.18514 0.65075 0.0
N617 N 0.53526 0.11979 0.63042 0.0
H618 H 0.47732 0.59316 0.7419 0.0
H619 H 0.38503 0.55701 0.85687 0.0
H620 H 0.41075 0.5073 0.76075 0.0
H621 H 0.44135 0.64402 0.83315 0.0
H622 H 0.39551 0.53846 0.82229 0.0
H623 H 0.46568 0.61232 0.77567 0.0
C624 C 0.46025 0.57835 0.75315 0.0
C625 C 0.44502 0.54858 0.74853 0.0
C626 C 0.40556 0.56162 0.82459 0.0
C627 C 0.43158 0.57033 0.78719 0.0
C628 C 0.39965 0.57223 0.84437 0.0
C629 C 0.41238 0.60211 0.84789 0.0
C630 C 0.42451 0.58101 0.80822 0.0
C631 C 0.43108 0.62082 0.8311 0.0
C632 C 0.45353 0.58931 0.77236 0.0
C633 C 0.42286 0.53042 0.76353 0.0
N634 N 0.43666 0.60996 0.81201 0.0
N635 N 0.41693 0.54156 0.78224 0.0
H636 H 0.91612 0.48888 0.92206 0.0
H637 H 0.83668 0.38145 0.02613 0.0
H638 H 0.90903 0.40507 0.92846 0.0
H639 H 0.82455 0.45344 0.01014 0.0
H640 H 0.86702 0.39229 0.99226 0.0
H641 H 0.88573 0.47839 0.95583 0.0
C642 C 0.90802 0.46817 0.93041 0.0
C643 C 0.91521 0.44783 0.92229 0.0
C644 C 0.85773 0.40572 0.99614 0.0
C645 C 0.88084 0.43599 0.96133 0.0
C646 C 0.8405 0.39962 0.01552 0.0
C647 C 0.82808 0.41657 0.02092 0.0
C648 C 0.86279 0.42911 0.98214 0.0
C649 C 0.83369 0.4398 0.00656 0.0
C650 C 0.8908 0.4623 0.9498 0.0
C651 C 0.90451 0.42163 0.93422 0.0
N652 N 0.85071 0.44544 0.98783 0.0
N653 N 0.88796 0.41652 0.95314 0.0
H654 H 0.5243 0.90964 0.09508 0.0
H655 H 0.38854 0.83062 0.17869 0.0
H656 H 0.44891 0.91888 0.08943 0.0
H657 H 0.4715 0.83925 0.19314 0.0
H658 H 0.40901 0.86027 0.14445 0.0
H659 H 0.50405 0.88105 0.12966 0.0
C660 C 0.50356 0.9058 0.10112 0.0
C661 C 0.48834 0.91677 0.08923 0.0
C662 C 0.42275 0.85576 0.15517 0.0
C663 C 0.46483 0.88362 0.12872 0.0
C664 C 0.41108 0.83885 0.17469 0.0
C665 C 0.42837 0.83251 0.18876 0.0
C666 C 0.45184 0.86615 0.14958 0.0
C667 C 0.45742 0.84368 0.18279 0.0
C668 C 0.49196 0.88936 0.12084 0.0
C669 C 0.46127 0.91053 0.09774 0.0
N670 N 0.4682 0.85983 0.1636 0.0
N671 N 0.45038 0.89436 0.11692 0.0
H672 H 0.60226 0.4688 0.23372 0.0
H673 H 0.60309 0.45838 0.36925 0.0
H674 H 0.55953 0.50098 0.27711 0.0
H675 H 0.60984 0.39706 0.32553 0.0
H676 H 0.59328 0.47935 0.33566 0.0
H677 H 0.61197 0.44759 0.26736 0.0
C678 C 0.59511 0.47152 0.25036 0.0
C679 C 0.58002 0.48654 0.25273 0.0
C680 C 0.5968 0.46123 0.33345 0.0
C681 C 0.59112 0.46261 0.29107 0.0
C682 C 0.60242 0.4493 0.35258 0.0
C683 C 0.60716 0.42591 0.35012 0.0
C684 C 0.59647 0.45004 0.31171 0.0
C685 C 0.60611 0.41498 0.32814 0.0
C686 C 0.60046 0.45928 0.26946 0.0
C687 C 0.57102 0.48934 0.2746 0.0
N688 N 0.6011 0.42729 0.30973 0.0
N689 N 0.57684 0.47762 0.29296 0.0
H690 H 0.47909 0.90567 0.4069 0.0
H691 H 0.38693 0.84722 0.29184 0.0
H692 H 0.41249 0.92431 0.38715 0.0
H693 H 0.44879 0.82299 0.31384 0.0
H694 H 0.39718 0.87681 0.32611 0.0
H695 H 0.46926 0.87628 0.37251 0.0
C696 C 0.46242 0.90361 0.39531 0.0
C697 C 0.44661 0.91751 0.39991 0.0
C698 C 0.40856 0.86507 0.32346 0.0
C699 C 0.43518 0.88381 0.36052 0.0
C700 C 0.40278 0.84823 0.30385 0.0
C701 C 0.41704 0.83263 0.3 0.0
C702 C 0.42881 0.86638 0.33935 0.0
C703 C 0.43731 0.83469 0.31615 0.0
C704 C 0.45675 0.88674 0.37572 0.0
C705 C 0.42499 0.91374 0.38443 0.0
N706 N 0.44259 0.85125 0.33514 0.0
N707 N 0.41999 0.89735 0.36541 0.0
H708 H 0.50538 0.40026 0.55762 0.0
H709 H 0.64002 0.45233 0.4732 0.0
H710 H 0.58202 0.4844 0.56181 0.0
H711 H 0.55657 0.37731 0.46096 0.0
H712 H 0.62072 0.46266 0.5076 0.0
H713 H 0.52534 0.3897 0.52395 0.0
C714 C 0.52635 0.41659 0.55144 0.0
C715 C 0.54195 0.44334 0.5626 0.0
C716 C 0.60664 0.44396 0.49736 0.0
C717 C 0.56515 0.43115 0.52414 0.0
C718 C 0.61765 0.43804 0.47776 0.0
C719 C 0.59984 0.41398 0.4642 0.0
C720 C 0.57769 0.42553 0.50352 0.0
C721 C 0.57103 0.39616 0.47089 0.0
C722 C 0.5378 0.41047 0.53225 0.0
C723 C 0.56933 0.46335 0.55401 0.0
N724 N 0.56088 0.40226 0.4901 0.0
N725 N 0.58003 0.45686 0.53531 0.0
H726 H 0.12078 0.58687 0.73794 0.0
H727 H 0.18317 0.55409 0.62467 0.0
H728 H 0.10377 0.50169 0.71916 0.0
H729 H 0.20628 0.64 0.64688 0.0
H730 H 0.15335 0.53434 0.65882 0.0
H731 H 0.15168 0.60662 0.70441 0.0
C732 C 0.12352 0.57231 0.72672 0.0
C733 C 0.10956 0.54255 0.73131 0.0
C734 C 0.16496 0.55751 0.65625 0.0
C735 C 0.14504 0.56505 0.69288 0.0
C736 C 0.18193 0.56879 0.63673 0.0
C737 C 0.19718 0.59873 0.63294 0.0
C738 C 0.16313 0.57629 0.67206 0.0
C739 C 0.19485 0.61678 0.64914 0.0
C740 C 0.14128 0.58362 0.70763 0.0
C741 C 0.11429 0.52478 0.71639 0.0
N742 N 0.17811 0.60528 0.66797 0.0
N743 N 0.13151 0.53628 0.69778 0.0
H744 H 0.54535 0.12243 0.90593 0.0
H745 H 0.64113 0.18637 0.7931 0.0
H746 H 0.61462 0.10724 0.88732 0.0
H747 H 0.57601 0.20669 0.81391 0.0
H748 H 0.63095 0.15645 0.82715 0.0
H749 H 0.55561 0.15269 0.87205 0.0
C750 C 0.56269 0.12543 0.89469 0.0
C751 C 0.57911 0.11222 0.89945 0.0
C752 C 0.61886 0.16743 0.82429 0.0
C753 C 0.59106 0.14695 0.86066 0.0
C754 C 0.62462 0.18446 0.80482 0.0
C755 C 0.60937 0.19901 0.80068 0.0
C756 C 0.59765 0.16485 0.83975 0.0
C757 C 0.58826 0.19582 0.81645 0.0
C758 C 0.56862 0.14281 0.8754 0.0
C759 C 0.6016 0.11723 0.88446 0.0
N760 N 0.58301 0.17907 0.83529 0.0
N761 N 0.60683 0.13409 0.86571 0.0
H762 H 0.5156 0.58321 0.0375 0.0
H763 H 0.38785 0.60227 0.98597 0.0
H764 H 0.45142 0.58752 0.07931 0.0
H765 H 0.46279 0.6174 0.94738 0.0
H766 H 0.40846 0.59262 0.01984 0.0
H767 H 0.49454 0.59219 0.00383 0.0
C768 C 0.49724 0.58628 0.03968 0.0
C769 C 0.48539 0.5847 0.06139 0.0
C770 C 0.42037 0.59803 0.00395 0.0
C771 C 0.46075 0.59441 0.02268 0.0
C772 C 0.40857 0.60343 0.98461 0.0
C773 C 0.42366 0.61067 0.96386 0.0
C774 C 0.44734 0.59967 0.00247 0.0
C775 C 0.45046 0.61194 0.96305 0.0
C776 C 0.48509 0.59122 0.02038 0.0
C777 C 0.46111 0.58818 0.06295 0.0
N778 N 0.46142 0.60646 0.98207 0.0
N779 N 0.44958 0.59283 0.04387 0.0
H780 H 0.90286 0.44131 0.2386 0.0
H781 H 0.84235 0.47317 0.12394 0.0
H782 H 0.92059 0.52632 0.21855 0.0
H783 H 0.81743 0.38724 0.14728 0.0
H784 H 0.87232 0.4931 0.15794 0.0
H785 H 0.87247 0.42113 0.20481 0.0
C786 C 0.90039 0.45574 0.22706 0.0
C787 C 0.91436 0.48556 0.23138 0.0
C788 C 0.86031 0.46989 0.15565 0.0
C789 C 0.87951 0.4626 0.19268 0.0
C790 C 0.84326 0.45849 0.1362 0.0
C791 C 0.8274 0.4285 0.13279 0.0
C792 C 0.86161 0.45117 0.1718 0.0
C793 C 0.82933 0.4105 0.14925 0.0
C794 C 0.88294 0.44419 0.20782 0.0
C795 C 0.91003 0.50317 0.21602 0.0
N796 N 0.84614 0.42212 0.16804 0.0
N797 N 0.8931 0.49145 0.19731 0.0
loop_
_geom_bond_atom_site_label_1
_geom_bond_atom_site_label_2
_geom_bond_distance
_geom_bond_site_symmetry_2
_ccdc_geom_bond_type
H0 C19 0.949 . S
H1 C20 0.950 . S
H2 C22 0.950 . S
H3 C23 0.950 . S
H4 C25 0.950 . S
H5 C28 0.950 . S
H6 C29 0.950 . S
H7 C31 0.951 . S
H8 C32 0.949 . S
H9 C34 0.949 . S
H10 C35 0.950 . S
H11 C37 0.950 . S
H12 C38 0.950 . S
H13 C40 0.950 . S
H14 C43 0.950 . S
H15 C44 0.950 . S
H16 C46 0.951 . S
H17 C47 0.949 . S
C18 C19 1.376 . S
C18 C23 1.386 . S
C18 C24 1.483 . S
C19 H0 0.949 . S
C19 C18 1.376 . S
C19 C20 1.397 . S
C20 H1 0.950 . S
C20 C19 1.397 . S
C20 C21 1.391 . S
C21 C20 1.391 . S
C21 C22 1.405 . S
C22 H2 0.950 . S
C22 C21 1.405 . S
C22 C23 1.367 . S
C23 H3 0.950 . S
C23 C18 1.386 . S
C23 C22 1.367 . S
C24 C18 1.483 . S
C24 C25 1.382 1_655 S
C24 C26 1.403 . S
C25 H4 0.950 . S
C25 C24 1.382 1_455 S
C25 C41 1.411 . S
C26 C24 1.403 . S
C26 C27 1.489 . S
C26 C40 1.411 1_655 S
C27 C26 1.489 . S
C27 C28 1.383 . S
C27 C32 1.382 . S
C28 H5 0.950 . S
C28 C27 1.383 . S
C28 C29 1.395 . S
C29 H6 0.950 . S
C29 C28 1.395 . S
C29 C30 1.288 . S
C30 C29 1.288 . S
C30 C31 1.392 . S
C31 H7 0.951 . S
C31 C30 1.392 . S
C31 C32 1.392 . S
C32 H8 0.949 . S
C32 C27 1.382 . S
C32 C31 1.392 . S
C33 C34 1.376 . S
C33 C38 1.386 . S
C33 C39 1.483 . S
C34 H9 0.949 . S
C34 C33 1.376 . S
C34 C35 1.397 . S
C35 H10 0.950 . S
C35 C34 1.397 . S
C35 C36 1.391 . S
C36 C35 1.391 . S
C36 C37 1.405 . S
C37 H11 0.950 . S
C37 C36 1.405 . S
C37 C38 1.367 . S
C38 H12 0.950 . S
C38 C33 1.386 . S
C38 C37 1.367 . S
C39 C33 1.483 . S
C39 C40 1.382 . S
C39 C41 1.403 . S
C40 H13 0.950 . S
C40 C26 1.411 1_455 S
C40 C39 1.382 . S
C41 C25 1.411 . S
C41 C39 1.403 . S
C41 C42 1.489 . S
C42 C41 1.489 . S
C42 C43 1.383 . S
C42 C47 1.382 . S
C43 H14 0.950 . S
C43 C42 1.383 . S
C43 C44 1.395 . S
C44 H15 0.950 . S
C44 C43 1.395 . S
C44 C45 1.288 . S
C45 C44 1.288 . S
C45 C46 1.392 . S
C46 H16 0.951 . S
C46 C45 1.392 . S
C46 C47 1.392 . S
C47 H17 0.949 . S
C47 C42 1.382 . S
C47 C46 1.392 . S
H48 C67 0.949 . S
H49 C68 0.950 . S
H50 C70 0.950 . S
H51 C71 0.950 . S
H52 C73 0.953 . S
H53 C76 0.950 . S
H54 C77 0.950 . S
H55 C79 0.951 . S
H56 C80 0.949 . S
H57 C82 0.949 . S
H58 C83 0.950 . S
H59 C85 0.950 . S
H60 C86 0.950 . S
H61 C88 0.950 . S
H62 C91 0.950 . S
H63 C92 0.950 . S
H64 C94 0.951 . S
H65 C95 0.949 . S
C66 C67 1.376 . S
C66 C71 1.386 . S
C66 C72 1.483 . S
C67 H48 0.949 . S
C67 C66 1.376 . S
C67 C68 1.397 . S
C68 H49 0.950 . S
C68 C67 1.397 . S
C68 C69 1.391 . S
C69 C68 1.391 . S
C69 C70 1.405 . S
C70 H50 0.950 . S
C70 C69 1.405 . S
C70 C71 1.367 . S
C71 H51 0.950 . S
C71 C66 1.386 . S
C71 C70 1.367 . S
C72 C66 1.483 . S
C72 C73 1.382 1_565 S
C72 C74 1.403 . S
C73 H52 0.953 . S
C73 C72 1.382 1_545 S
C73 C89 1.411 . S
C74 C72 1.403 . S
C74 C75 1.489 . S
C74 C88 1.411 1_565 S
C75 C74 1.489 . S
C75 C76 1.383 . S
C75 C80 1.382 . S
C76 H53 0.950 . S
C76 C75 1.383 . S
C76 C77 1.395 . S
C77 H54 0.950 . S
C77 C76 1.395 . S
C77 C78 1.288 . S
C78 C77 1.288 . S
C78 C79 1.392 . S
C79 H55 0.951 . S
C79 C78 1.392 . S
C79 C80 1.392 . S
C80 H56 0.949 . S
C80 C75 1.382 . S
C80 C79 1.392 . S
C81 C82 1.376 . S
C81 C86 1.386 . S
C81 C87 1.483 . S
C82 H57 0.949 . S
C82 C81 1.376 . S
C82 C83 1.397 . S
C83 H58 0.950 . S
C83 C82 1.397 . S
C83 C84 1.391 . S
C84 C83 1.391 . S
C84 C85 1.405 . S
C85 H59 0.950 . S
C85 C84 1.405 . S
C85 C86 1.367 . S
C86 H60 0.950 . S
C86 C81 1.386 . S
C86 C85 1.367 . S
C87 C81 1.483 . S
C87 C88 1.382 . S
C87 C89 1.403 . S
C88 H61 0.950 . S
C88 C74 1.411 1_545 S
C88 C87 1.382 . S
C89 C73 1.411 . S
C89 C87 1.403 . S
C89 C90 1.489 . S
C90 C89 1.489 . S
C90 C91 1.383 . S
C90 C95 1.382 . S
C91 H62 0.950 . S
C91 C90 1.383 . S
C91 C92 1.395 . S
C92 H63 0.950 . S
C92 C91 1.395 . S
C92 C93 1.288 . S
C93 C92 1.288 . S
C93 C94 1.392 . S
C94 H64 0.951 . S
C94 C93 1.392 . S
C94 C95 1.392 . S
C95 H65 0.949 . S
C95 C90 1.382 . S
C95 C94 1.392 . S
H96 C115 0.949 . S
H97 C116 0.950 . S
H98 C118 0.950 . S
H99 C119 0.950 . S
H100 C121 0.950 . S
H101 C124 0.950 . S
H102 C125 0.950 . S
H103 C127 0.951 . S
H104 C128 0.949 . S
H105 C130 0.949 . S
H106 C131 0.950 . S
H107 C133 0.950 . S
H108 C134 0.950 . S
H109 C136 0.950 . S
H110 C139 0.950 . S
H111 C140 0.950 . S
H112 C142 0.951 . S
H113 C143 0.949 . S
C114 C115 1.376 . S
C114 C119 1.386 . S
C114 C120 1.483 . S
C115 H96 0.949 . S
C115 C114 1.376 . S
C115 C116 1.397 . S
C116 H97 0.950 . S
C116 C115 1.397 . S
C116 C117 1.391 . S
C117 C116 1.391 . S
C117 C118 1.405 . S
C118 H98 0.950 . S
C118 C117 1.405 . S
C118 C119 1.367 . S
C119 H99 0.950 . S
C119 C114 1.386 . S
C119 C118 1.367 . S
C120 C114 1.483 . S
C120 C121 1.382 . S
C120 C122 1.403 . S
C121 H100 0.950 . S
C121 C120 1.382 . S
C121 C137 1.411 . S
C122 C120 1.403 . S
C122 C123 1.489 . S
C122 C136 1.411 . S
C123 C122 1.489 . S
C123 C124 1.383 . S
C123 C128 1.382 . S
C124 H101 0.950 . S
C124 C123 1.383 . S
C124 C125 1.395 . S
C125 H102 0.950 . S
C125 C124 1.395 . S
C125 C126 1.288 . S
C126 C125 1.288 . S
C126 C127 1.392 . S
C127 H103 0.951 . S
C127 C126 1.392 . S
C127 C128 1.392 . S
C128 H104 0.949 . S
C128 C123 1.382 . S
C128 C127 1.392 . S
C129 C130 1.376 . S
C129 C134 1.386 . S
C129 C135 1.483 . S
C130 H105 0.949 . S
C130 C129 1.376 . S
C130 C131 1.397 . S
C131 H106 0.950 . S
C131 C130 1.397 . S
C131 C132 1.391 . S
C132 C131 1.391 . S
C132 C133 1.405 . S
C133 H107 0.950 . S
C133 C132 1.405 . S
C133 C134 1.367 . S
C134 H108 0.950 . S
C134 C129 1.386 . S
C134 C133 1.367 . S
C135 C129 1.483 . S
C135 C136 1.382 . S
C135 C137 1.403 . S
C136 H109 0.950 . S
C136 C122 1.411 . S
C136 C135 1.382 . S
C137 C121 1.411 . S
C137 C135 1.403 . S
C137 C138 1.489 . S
C138 C137 1.489 . S
C138 C139 1.383 . S
C138 C143 1.382 . S
C139 H110 0.950 . S
C139 C138 1.383 . S
C139 C140 1.395 . S
C140 H111 0.950 . S
C140 C139 1.395 . S
C140 C141 1.288 . S
C141 C140 1.288 . S
C141 C142 1.392 . S
C142 H112 0.951 . S
C142 C141 1.392 . S
C142 C143 1.392 . S
C143 H113 0.949 . S
C143 C138 1.382 . S
C143 C142 1.392 . S
H144 C163 0.949 . S
H145 C164 0.950 . S
H146 C166 0.950 . S
H147 C167 0.950 . S
H148 C169 0.950 . S
H149 C172 0.950 . S
H150 C173 0.950 . S
H151 C175 0.951 . S
H152 C176 0.949 . S
H153 C178 0.949 . S
H154 C179 0.950 . S
H155 C181 0.950 . S
H156 C182 0.950 . S
H157 C184 0.950 . S
H158 C187 0.950 . S
H159 C188 0.950 . S
H160 C190 0.951 . S
H161 C191 0.949 . S
C162 C163 1.376 . S
C162 C167 1.386 . S
C162 C168 1.483 . S
C163 H144 0.949 . S
C163 C162 1.376 . S
C163 C164 1.397 . S
C164 H145 0.950 . S
C164 C163 1.397 . S
C164 C165 1.391 . S
C165 C164 1.391 . S
C165 C166 1.405 . S
C166 H146 0.950 . S
C166 C165 1.405 . S
C166 C167 1.367 . S
C167 H147 0.950 . S
C167 C162 1.386 . S
C167 C166 1.367 . S
C168 C162 1.483 . S
C168 C169 1.382 . S
C168 C170 1.403 . S
C169 H148 0.950 . S
C169 C168 1.382 . S
C169 C185 1.411 1_455 S
C170 C168 1.403 . S
C170 C171 1.489 . S
C170 C184 1.411 . S
C171 C170 1.489 . S
C171 C172 1.383 . S
C171 C176 1.382 . S
C172 H149 0.950 . S
C172 C171 1.383 . S
C172 C173 1.395 . S
C173 H150 0.950 . S
C173 C172 1.395 . S
C173 C174 1.288 . S
C174 C173 1.288 . S
C174 C175 1.392 . S
C175 H151 0.951 . S
C175 C174 1.392 . S
C175 C176 1.392 . S
C176 H152 0.949 . S
C176 C171 1.382 . S
C176 C175 1.392 . S
C177 C178 1.376 . S
C177 C182 1.386 . S
C177 C183 1.483 . S
C178 H153 0.949 . S
C178 C177 1.376 . S
C178 C179 1.397 . S
C179 H154 0.950 . S
C179 C178 1.397 . S
C179 C180 1.391 . S
C180 C179 1.391 . S
C180 C181 1.405 . S
C181 H155 0.950 . S
C181 C180 1.405 . S
C181 C182 1.367 . S
C182 H156 0.950 . S
C182 C177 1.386 . S
C182 C181 1.367 . S
C183 C177 1.483 . S
C183 C184 1.382 1_655 S
C183 C185 1.403 . S
C184 H157 0.950 . S
C184 C170 1.411 . S
C184 C183 1.382 1_455 S
C185 C169 1.411 1_655 S
C185 C183 1.403 . S
C185 C186 1.489 . S
C186 C185 1.489 . S
C186 C187 1.383 . S
C186 C191 1.382 . S
C187 H158 0.950 . S
C187 C186 1.383 . S
C187 C188 1.395 . S
C188 H159 0.950 . S
C188 C187 1.395 . S
C188 C189 1.288 . S
C189 C188 1.288 . S
C189 C190 1.392 . S
C190 H160 0.951 . S
C190 C189 1.392 . S
C190 C191 1.392 . S
C191 H161 0.949 . S
C191 C186 1.382 . S
C191 C190 1.392 . S
H192 C211 0.949 . S
H193 C212 0.950 . S
H194 C214 0.950 . S
H195 C215 0.950 . S
H196 C217 0.950 . S
H197 C220 0.950 . S
H198 C221 0.950 . S
H199 C223 0.951 . S
H200 C224 0.949 . S
H201 C226 0.949 . S
H202 C227 0.950 . S
H203 C229 0.950 . S
H204 C230 0.950 . S
H205 C232 0.952 . S
H206 C235 0.950 . S
H207 C236 0.950 . S
H208 C238 0.951 . S
H209 C239 0.949 . S
C210 C211 1.376 . S
C210 C215 1.386 1_554 S
C210 C216 1.483 1_554 S
C211 H192 0.949 . S
C211 C210 1.376 . S
C211 C212 1.397 . S
C212 H193 0.950 . S
C212 C211 1.397 . S
C212 C213 1.391 . S
C213 C212 1.391 . S
C213 C214 1.405 . S
C214 H194 0.950 . S
C214 C213 1.405 . S
C214 C215 1.367 1_554 S
C215 H195 0.950 . S
C215 C210 1.386 1_556 S
C215 C214 1.367 1_556 S
C216 C210 1.483 1_556 S
C216 C217 1.382 1_556 S
C216 C218 1.403 . S
C217 H196 0.950 . S
C217 C216 1.382 1_554 S
C217 C233 1.411 1_545 S
C218 C216 1.403 . S
C218 C219 1.489 . S
C218 C232 1.411 . S
C219 C218 1.489 . S
C219 C220 1.383 . S
C219 C224 1.382 . S
C220 H197 0.950 . S
C220 C219 1.383 . S
C220 C221 1.395 . S
C221 H198 0.950 . S
C221 C220 1.395 . S
C221 C222 1.288 . S
C222 C221 1.288 . S
C222 C223 1.392 . S
C223 H199 0.951 . S
C223 C222 1.392 . S
C223 C224 1.392 . S
C224 H200 0.949 . S
C224 C219 1.382 . S
C224 C223 1.392 . S
C225 C226 1.376 . S
C225 C230 1.386 . S
C225 C231 1.483 . S
C226 H201 0.949 . S
C226 C225 1.376 . S
C226 C227 1.397 . S
C227 H202 0.950 . S
C227 C226 1.397 . S
C227 C228 1.391 . S
C228 C227 1.391 . S
C228 C229 1.405 . S
C229 H203 0.950 . S
C229 C228 1.405 . S
C229 C230 1.367 . S
C230 H204 0.950 . S
C230 C225 1.386 . S
C230 C229 1.367 . S
C231 C225 1.483 . S
C231 C232 1.382 1_565 S
C231 C233 1.403 1_556 S
C232 H205 0.952 . S
C232 C218 1.411 . S
C232 C231 1.382 1_545 S
C233 C217 1.411 1_565 S
C233 C231 1.403 1_554 S
C233 C234 1.489 . S
C234 C233 1.489 . S
C234 C235 1.383 . S
C234 C239 1.382 . S
C235 H206 0.950 . S
C235 C234 1.383 . S
C235 C236 1.395 . S
C236 H207 0.950 . S
C236 C235 1.395 . S
C236 C237 1.288 . S
C237 C236 1.288 . S
C237 C238 1.392 . S
C238 H208 0.951 . S
C238 C237 1.392 . S
C238 C239 1.392 . S
C239 H209 0.949 . S
C239 C234 1.382 . S
C239 C238 1.392 . S
H240 C259 0.949 . S
H241 C260 0.950 . S
H242 C262 0.950 . S
H243 C263 0.950 . S
H244 C265 0.950 . S
H245 C268 0.950 . S
H246 C269 0.950 . S
H247 C271 0.951 . S
H248 C272 0.949 . S
H249 C274 0.949 . S
H250 C275 0.950 . S
H251 C277 0.950 . S
H252 C278 0.950 . S
H253 C280 0.950 . S
H254 C283 0.950 . S
H255 C284 0.950 . S
H256 C286 0.951 . S
H257 C287 0.949 . S
C258 C259 1.376 . S
C258 C263 1.386 . S
C258 C264 1.483 . S
C259 H240 0.949 . S
C259 C258 1.376 . S
C259 C260 1.397 . S
C260 H241 0.950 . S
C260 C259 1.397 . S
C260 C261 1.391 . S
C261 C260 1.391 . S
C261 C262 1.405 . S
C262 H242 0.950 . S
C262 C261 1.405 . S
C262 C263 1.367 . S
C263 H243 0.950 . S
C263 C258 1.386 . S
C263 C262 1.367 . S
C264 C258 1.483 . S
C264 C265 1.382 . S
C264 C266 1.403 . S
C265 H244 0.950 . S
C265 C264 1.382 . S
C265 C281 1.411 . S
C266 C264 1.403 . S
C266 C267 1.489 . S
C266 C280 1.411 . S
C267 C266 1.489 . S
C267 C268 1.383 . S
C267 C272 1.382 . S
C268 H245 0.950 . S
C268 C267 1.383 . S
C268 C269 1.395 . S
C269 H246 0.950 . S
C269 C268 1.395 . S
C269 C270 1.288 . S
C270 C269 1.288 . S
C270 C271 1.392 . S
C271 H247 0.951 . S
C271 C270 1.392 . S
C271 C272 1.392 . S
C272 H248 0.949 . S
C272 C267 1.382 . S
C272 C271 1.392 . S
C273 C274 1.376 . S
C273 C278 1.386 . S
C273 C279 1.483 . S
C274 H249 0.949 . S
C274 C273 1.376 . S
C274 C275 1.397 . S
C275 H250 0.950 . S
C275 C274 1.397 . S
C275 C276 1.391 . S
C276 C275 1.391 . S
C276 C277 1.405 . S
C277 H251 0.950 . S
C277 C276 1.405 . S
C277 C278 1.367 . S
C278 H252 0.950 . S
C278 C273 1.386 . S
C278 C277 1.367 . S
C279 C273 1.483 . S
C279 C280 1.382 . S
C279 C281 1.403 . S
C280 H253 0.950 . S
C280 C266 1.411 . S
C280 C279 1.382 . S
C281 C265 1.411 . S
C281 C279 1.403 . S
C281 C282 1.489 . S
C282 C281 1.489 . S
C282 C283 1.383 . S
C282 C287 1.382 . S
C283 H254 0.950 . S
C283 C282 1.383 . S
C283 C284 1.395 . S
C284 H255 0.950 . S
C284 C283 1.395 . S
C284 C285 1.288 . S
C285 C284 1.288 . S
C285 C286 1.392 . S
C286 H256 0.951 . S
C286 C285 1.392 . S
C286 C287 1.392 . S
C287 H257 0.949 . S
C287 C282 1.382 . S
C287 C286 1.392 . S
In288 O289 2.294 . S
In288 O290 2.326 . S
In288 O294 2.266 . S
In288 O295 2.326 . S
In288 O296 2.266 . S
In288 O297 2.326 . S
In288 O299 2.294 . S
In288 O300 2.326 . S
O289 In288 2.294 . S
O289 C298 1.240 . S
O290 In288 2.326 . S
O290 C298 1.252 . S
C291 O294 1.252 . S
C291 O295 1.260 . S
C292 O299 1.240 . S
C292 O300 1.252 . S
C293 O296 1.252 . S
C293 O297 1.260 . S
O294 In288 2.266 . S
O294 C291 1.252 . S
O295 In288 2.326 . S
O295 C291 1.260 . S
O296 In288 2.266 . S
O296 C293 1.252 . S
O297 In288 2.326 . S
O297 C293 1.260 . S
C298 O289 1.240 . S
C298 O290 1.252 . S
O299 In288 2.294 . S
O299 C292 1.240 . S
O300 In288 2.326 . S
O300 C292 1.252 . S
In301 O302 2.294 . S
In301 O303 2.326 . S
In301 O307 2.266 . S
In301 O308 2.326 . S
In301 O309 2.266 . S
In301 O310 2.326 . S
In301 O312 2.294 . S
In301 O313 2.326 . S
O302 In301 2.294 . S
O302 C311 1.240 . S
O303 In301 2.326 . S
O303 C311 1.252 . S
C304 O307 1.252 . S
C304 O308 1.260 . S
C305 O312 1.240 . S
C305 O313 1.252 . S
C306 O309 1.252 . S
C306 O310 1.260 . S
O307 In301 2.266 . S
O307 C304 1.252 . S
O308 In301 2.326 . S
O308 C304 1.260 . S
O309 In301 2.266 . S
O309 C306 1.252 . S
O310 In301 2.326 . S
O310 C306 1.260 . S
C311 O302 1.240 . S
C311 O303 1.252 . S
O312 In301 2.294 . S
O312 C305 1.240 . S
O313 In301 2.326 . S
O313 C305 1.252 . S
In314 O315 2.294 . S
In314 O316 2.326 . S
In314 O320 2.266 . S
In314 O321 2.326 . S
In314 O322 2.266 . S
In314 O323 2.326 . S
In314 O325 2.294 . S
In314 O326 2.326 . S
O315 In314 2.294 . S
O315 C324 1.240 . S
O316 In314 2.326 . S
O316 C324 1.252 . S
C317 O320 1.252 . S
C317 O321 1.260 . S
C318 O325 1.240 . S
C318 O326 1.252 . S
C319 O322 1.252 . S
C319 O323 1.260 . S
O320 In314 2.266 . S
O320 C317 1.252 . S
O321 In314 2.326 . S
O321 C317 1.260 . S
O322 In314 2.266 . S
O322 C319 1.252 . S
O323 In314 2.326 . S
O323 C319 1.260 . S
C324 O315 1.240 . S
C324 O316 1.252 . S
O325 In314 2.294 . S
O325 C318 1.240 . S
O326 In314 2.326 . S
O326 C318 1.252 . S
In327 O328 2.294 . S
In327 O329 2.326 . S
In327 O333 2.266 . S
In327 O334 2.326 . S
In327 O335 2.266 . S
In327 O336 2.326 . S
In327 O338 2.294 . S
In327 O339 2.326 . S
O328 In327 2.294 . S
O328 C337 1.240 . S
O329 In327 2.326 . S
O329 C337 1.252 . S
C330 O333 1.252 . S
C330 O334 1.260 . S
C331 O338 1.240 . S
C331 O339 1.252 . S
C332 O335 1.252 . S
C332 O336 1.260 . S
O333 In327 2.266 . S
O333 C330 1.252 . S
O334 In327 2.326 . S
O334 C330 1.260 . S
O335 In327 2.266 . S
O335 C332 1.252 . S
O336 In327 2.326 . S
O336 C332 1.260 . S
C337 O328 1.240 . S
C337 O329 1.252 . S
O338 In327 2.294 . S
O338 C331 1.240 . S
O339 In327 2.326 . S
O339 C331 1.252 . S
In340 O341 2.294 . S
In340 O342 2.326 . S
In340 O346 2.266 . S
In340 O347 2.326 . S
In340 O348 2.266 . S
In340 O349 2.326 . S
In340 O351 2.294 . S
In340 O352 2.326 . S
O341 In340 2.294 . S
O341 C350 1.240 . S
O342 In340 2.326 . S
O342 C350 1.252 . S
C343 O346 1.252 . S
C343 O347 1.260 . S
C344 O351 1.240 . S
C344 O352 1.252 . S
C345 O348 1.252 . S
C345 O349 1.260 . S
O346 In340 2.266 . S
O346 C343 1.252 . S
O347 In340 2.326 . S
O347 C343 1.260 . S
O348 In340 2.266 . S
O348 C345 1.252 . S
O349 In340 2.326 . S
O349 C345 1.260 . S
C350 O341 1.240 . S
C350 O342 1.252 . S
O351 In340 2.294 . S
O351 C344 1.240 . S
O352 In340 2.326 . S
O352 C344 1.252 . S
In353 O354 2.294 . S
In353 O355 2.326 . S
In353 O359 2.266 . S
In353 O360 2.326 . S
In353 O361 2.266 . S
In353 O362 2.326 . S
In353 O364 2.294 . S
In353 O365 2.326 . S
O354 In353 2.294 . S
O354 C363 1.240 . S
O355 In353 2.326 . S
O355 C363 1.252 . S
C356 O359 1.252 . S
C356 O360 1.260 . S
C357 O364 1.240 . S
C357 O365 1.252 . S
C358 O361 1.252 . S
C358 O362 1.260 . S
O359 In353 2.266 . S
O359 C356 1.252 . S
O360 In353 2.326 . S
O360 C356 1.260 . S
O361 In353 2.266 . S
O361 C358 1.252 . S
O362 In353 2.326 . S
O362 C358 1.260 . S
C363 O354 1.240 . S
C363 O355 1.252 . S
O364 In353 2.294 . S
O364 C357 1.240 . S
O365 In353 2.326 . S
O365 C357 1.252 . S
H366 C372 0.930 . S
H367 C376 0.930 . S
H368 C381 0.929 . S
H369 C379 0.929 . S
H370 C374 0.929 . S
H371 C380 0.929 . S
C372 H366 0.930 . S
C372 C373 1.367 . S
C372 C380 1.378 . S
C373 C372 1.367 . S
C373 C381 1.433 . S
C374 H370 0.929 . S
C374 C376 1.378 . S
C374 C378 1.350 . S
C375 C378 1.463 . S
C375 C380 1.350 . S
C375 N383 1.427 . S
C376 H367 0.930 . S
C376 C374 1.378 . S
C376 C377 1.367 . S
C377 C376 1.367 . S
C377 C379 1.433 . S
C378 C374 1.350 . S
C378 C375 1.463 . S
C378 N382 1.427 . S
C379 H369 0.929 . S
C379 C377 1.433 . S
C379 N382 1.384 . S
C380 H371 0.929 . S
C380 C372 1.378 . S
C380 C375 1.350 . S
C381 H368 0.929 . S
C381 C373 1.433 . S
C381 N383 1.384 . S
N382 C378 1.427 . S
N382 C379 1.384 . S
N383 C375 1.427 . S
N383 C381 1.384 . S
H384 C390 0.930 . S
H385 C394 0.930 . S
H386 C399 0.929 . S
H387 C397 0.929 . S
H388 C392 0.929 . S
H389 C398 0.929 . S
C390 H384 0.930 . S
C390 C391 1.367 . S
C390 C398 1.378 . S
C391 C390 1.367 . S
C391 C399 1.433 . S
C392 H388 0.929 . S
C392 C394 1.378 . S
C392 C396 1.350 . S
C393 C396 1.463 . S
C393 C398 1.350 . S
C393 N401 1.427 . S
C394 H385 0.930 . S
C394 C392 1.378 . S
C394 C395 1.367 . S
C395 C394 1.367 . S
C395 C397 1.433 . S
C396 C392 1.350 . S
C396 C393 1.463 . S
C396 N400 1.427 . S
C397 H387 0.929 . S
C397 C395 1.433 . S
C397 N400 1.384 . S
C398 H389 0.929 . S
C398 C390 1.378 . S
C398 C393 1.350 . S
C399 H386 0.929 . S
C399 C391 1.433 . S
C399 N401 1.384 . S
N400 C396 1.427 . S
N400 C397 1.384 . S
N401 C393 1.427 . S
N401 C399 1.384 . S
H402 C408 0.930 . S
H403 C412 0.930 . S
H404 C417 0.929 . S
H405 C415 0.929 . S
H406 C410 0.929 . S
H407 C416 0.929 . S
C408 H402 0.930 . S
C408 C409 1.367 . S
C408 C416 1.378 . S
C409 C408 1.367 . S
C409 C417 1.433 . S
C410 H406 0.929 . S
C410 C412 1.378 . S
C410 C414 1.350 . S
C411 C414 1.463 . S
C411 C416 1.350 . S
C411 N419 1.427 . S
C412 H403 0.930 . S
C412 C410 1.378 . S
C412 C413 1.367 . S
C413 C412 1.367 . S
C413 C415 1.433 . S
C414 C410 1.350 . S
C414 C411 1.463 . S
C414 N418 1.427 . S
C415 H405 0.929 . S
C415 C413 1.433 . S
C415 N418 1.384 . S
C416 H407 0.929 . S
C416 C408 1.378 . S
C416 C411 1.350 . S
C417 H404 0.929 . S
C417 C409 1.433 . S
C417 N419 1.384 . S
N418 C414 1.427 . S
N418 C415 1.384 . S
N419 C411 1.427 . S
N419 C417 1.384 . S
H420 C426 0.930 . S
H421 C430 0.930 . S
H422 C435 0.929 . S
H423 C433 0.929 . S
H424 C428 0.929 . S
H425 C434 0.929 . S
C426 H420 0.930 . S
C426 C427 1.367 . S
C426 C434 1.378 . S
C427 C426 1.367 . S
C427 C435 1.433 . S
C428 H424 0.929 . S
C428 C430 1.378 . S
C428 C432 1.350 . S
C429 C432 1.463 . S
C429 C434 1.350 . S
C429 N437 1.427 . S
C430 H421 0.930 . S
C430 C428 1.378 . S
C430 C431 1.367 . S
C431 C430 1.367 . S
C431 C433 1.433 . S
C432 C428 1.350 . S
C432 C429 1.463 . S
C432 N436 1.427 . S
C433 H423 0.929 . S
C433 C431 1.433 . S
C433 N436 1.384 . S
C434 H425 0.929 . S
C434 C426 1.378 . S
C434 C429 1.350 . S
C435 H422 0.929 . S
C435 C427 1.433 . S
C435 N437 1.384 . S
N436 C432 1.427 . S
N436 C433 1.384 . S
N437 C429 1.427 . S
N437 C435 1.384 . S
H438 C444 0.930 . S
H439 C448 0.930 . S
H440 C453 0.929 . S
H441 C451 0.929 . S
H442 C446 0.929 . S
H443 C452 0.929 . S
C444 H438 0.930 . S
C444 C445 1.367 . S
C444 C452 1.378 . S
C445 C444 1.367 . S
C445 C453 1.433 . S
C446 H442 0.929 . S
C446 C448 1.378 . S
C446 C450 1.350 . S
C447 C450 1.463 . S
C447 C452 1.350 . S
C447 N455 1.427 . S
C448 H439 0.930 . S
C448 C446 1.378 . S
C448 C449 1.367 . S
C449 C448 1.367 . S
C449 C451 1.433 . S
C450 C446 1.350 . S
C450 C447 1.463 . S
C450 N454 1.427 . S
C451 H441 0.929 . S
C451 C449 1.433 . S
C451 N454 1.384 . S
C452 H443 0.929 . S
C452 C444 1.378 . S
C452 C447 1.350 . S
C453 H440 0.929 . S
C453 C445 1.433 . S
C453 N455 1.384 . S
N454 C450 1.427 . S
N454 C451 1.384 . S
N455 C447 1.427 . S
N455 C453 1.384 . S
H456 C462 0.930 . S
H457 C466 0.930 . S
H458 C471 0.929 . S
H459 C469 0.929 . S
H460 C464 0.929 . S
H461 C470 0.929 . S
C462 H456 0.930 . S
C462 C463 1.367 . S
C462 C470 1.378 . S
C463 C462 1.367 . S
C463 C471 1.433 . S
C464 H460 0.929 . S
C464 C466 1.378 . S
C464 C468 1.350 . S
C465 C468 1.463 . S
C465 C470 1.350 . S
C465 N473 1.427 . S
C466 H457 0.930 . S
C466 C464 1.378 . S
C466 C467 1.367 . S
C467 C466 1.367 . S
C467 C469 1.433 . S
C468 C464 1.350 . S
C468 C465 1.463 . S
C468 N472 1.427 . S
C469 H459 0.929 . S
C469 C467 1.433 . S
C469 N472 1.384 . S
C470 H461 0.929 . S
C470 C462 1.378 . S
C470 C465 1.350 . S
C471 H458 0.929 . S
C471 C463 1.433 . S
C471 N473 1.384 . S
N472 C468 1.427 . S
N472 C469 1.384 . S
N473 C465 1.427 . S
N473 C471 1.384 . S
H474 C480 0.930 . S
H475 C484 0.930 . S
H476 C489 0.929 . S
H477 C487 0.929 . S
H478 C482 0.929 . S
H479 C488 0.929 . S
C480 H474 0.930 . S
C480 C481 1.367 . S
C480 C488 1.378 . S
C481 C480 1.367 . S
C481 C489 1.433 . S
C482 H478 0.929 . S
C482 C484 1.378 . S
C482 C486 1.350 . S
C483 C486 1.463 . S
C483 C488 1.350 . S
C483 N491 1.427 . S
C484 H475 0.930 . S
C484 C482 1.378 . S
C484 C485 1.367 . S
C485 C484 1.367 . S
C485 C487 1.433 . S
C486 C482 1.350 . S
C486 C483 1.463 . S
C486 N490 1.427 . S
C487 H477 0.929 . S
C487 C485 1.433 . S
C487 N490 1.384 . S
C488 H479 0.929 . S
C488 C480 1.378 . S
C488 C483 1.350 . S
C489 H476 0.929 . S
C489 C481 1.433 . S
C489 N491 1.384 . S
N490 C486 1.427 . S
N490 C487 1.384 . S
N491 C483 1.427 . S
N491 C489 1.384 . S
H492 C498 0.930 . S
H493 C502 0.930 . S
H494 C507 0.929 . S
H495 C505 0.929 . S
H496 C500 0.929 . S
H497 C506 0.929 . S
C498 H492 0.930 . S
C498 C499 1.367 . S
C498 C506 1.378 . S
C499 C498 1.367 . S
C499 C507 1.433 . S
C500 H496 0.929 . S
C500 C502 1.378 . S
C500 C504 1.350 . S
C501 C504 1.463 . S
C501 C506 1.350 . S
C501 N509 1.427 . S
C502 H493 0.930 . S
C502 C500 1.378 . S
C502 C503 1.367 . S
C503 C502 1.367 . S
C503 C505 1.433 . S
C504 C500 1.350 . S
C504 C501 1.463 . S
C504 N508 1.427 . S
C505 H495 0.929 . S
C505 C503 1.433 . S
C505 N508 1.384 . S
C506 H497 0.929 . S
C506 C498 1.378 . S
C506 C501 1.350 . S
C507 H494 0.929 . S
C507 C499 1.433 . S
C507 N509 1.384 . S
N508 C504 1.427 . S
N508 C505 1.384 . S
N509 C501 1.427 . S
N509 C507 1.384 . S
H510 C516 0.930 . S
H511 C520 0.930 . S
H512 C525 0.929 . S
H513 C523 0.929 . S
H514 C518 0.929 . S
H515 C524 0.929 . S
C516 H510 0.930 . S
C516 C517 1.367 . S
C516 C524 1.378 . S
C517 C516 1.367 . S
C517 C525 1.433 . S
C518 H514 0.929 . S
C518 C520 1.378 . S
C518 C522 1.350 . S
C519 C522 1.463 . S
C519 C524 1.350 . S
C519 N527 1.427 . S
C520 H511 0.930 . S
C520 C518 1.378 . S
C520 C521 1.367 . S
C521 C520 1.367 . S
C521 C523 1.433 . S
C522 C518 1.350 . S
C522 C519 1.463 . S
C522 N526 1.427 . S
C523 H513 0.929 . S
C523 C521 1.433 . S
C523 N526 1.384 . S
C524 H515 0.929 . S
C524 C516 1.378 . S
C524 C519 1.350 . S
C525 H512 0.929 . S
C525 C517 1.433 . S
C525 N527 1.384 . S
N526 C522 1.427 . S
N526 C523 1.384 . S
N527 C519 1.427 . S
N527 C525 1.384 . S
H528 C534 0.930 . S
H529 C538 0.930 . S
H530 C543 0.929 1_556 S
H531 C541 0.929 . S
H532 C536 0.929 . S
H533 C542 0.929 . S
C534 H528 0.930 . S
C534 C535 1.367 . S
C534 C542 1.378 . S
C535 C534 1.367 . S
C535 C543 1.433 . S
C536 H532 0.929 . S
C536 C538 1.378 . S
C536 C540 1.350 . S
C537 C540 1.463 . S
C537 C542 1.350 . S
C537 N545 1.427 . S
C538 H529 0.930 . S
C538 C536 1.378 . S
C538 C539 1.367 . S
C539 C538 1.367 . S
C539 C541 1.433 . S
C540 C536 1.350 . S
C540 C537 1.463 . S
C540 N544 1.427 . S
C541 H531 0.929 . S
C541 C539 1.433 . S
C541 N544 1.384 . S
C542 H533 0.929 . S
C542 C534 1.378 . S
C542 C537 1.350 . S
C543 H530 0.929 1_554 S
C543 C535 1.433 . S
C543 N545 1.384 . S
N544 C540 1.427 . S
N544 C541 1.384 . S
N545 C537 1.427 . S
N545 C543 1.384 . S
H546 C552 0.930 . S
H547 C556 0.930 . S
H548 C561 0.929 . S
H549 C559 0.929 . S
H550 C554 0.929 . S
H551 C560 0.929 . S
C552 H546 0.930 . S
C552 C553 1.367 . S
C552 C560 1.378 . S
C553 C552 1.367 . S
C553 C561 1.433 . S
C554 H550 0.929 . S
C554 C556 1.378 . S
C554 C558 1.350 . S
C555 C558 1.463 . S
C555 C560 1.350 . S
C555 N563 1.427 . S
C556 H547 0.930 . S
C556 C554 1.378 . S
C556 C557 1.367 . S
C557 C556 1.367 . S
C557 C559 1.433 . S
C558 C554 1.350 . S
C558 C555 1.463 . S
C558 N562 1.427 . S
C559 H549 0.929 . S
C559 C557 1.433 . S
C559 N562 1.384 . S
C560 H551 0.929 . S
C560 C552 1.378 . S
C560 C555 1.350 . S
C561 H548 0.929 . S
C561 C553 1.433 . S
C561 N563 1.384 . S
N562 C558 1.427 . S
N562 C559 1.384 . S
N563 C555 1.427 . S
N563 C561 1.384 . S
H564 C570 0.930 . S
H565 C574 0.930 . S
H566 C579 0.929 . S
H567 C577 0.929 . S
H568 C572 0.929 . S
H569 C578 0.929 . S
C570 H564 0.930 . S
C570 C571 1.367 . S
C570 C578 1.378 . S
C571 C570 1.367 . S
C571 C579 1.433 . S
C572 H568 0.929 . S
C572 C574 1.378 . S
C572 C576 1.350 . S
C573 C576 1.463 . S
C573 C578 1.350 . S
C573 N581 1.427 . S
C574 H565 0.930 . S
C574 C572 1.378 . S
C574 C575 1.367 . S
C575 C574 1.367 . S
C575 C577 1.433 . S
C576 C572 1.350 . S
C576 C573 1.463 . S
C576 N580 1.427 . S
C577 H567 0.929 . S
C577 C575 1.433 . S
C577 N580 1.384 . S
C578 H569 0.929 . S
C578 C570 1.378 . S
C578 C573 1.350 . S
C579 H566 0.929 . S
C579 C571 1.433 . S
C579 N581 1.384 . S
N580 C576 1.427 . S
N580 C577 1.384 . S
N581 C573 1.427 . S
N581 C579 1.384 . S
H582 C588 0.930 . S
H583 C592 0.930 . S
H584 C597 0.929 . S
H585 C595 0.929 . S
H586 C590 0.929 . S
H587 C596 0.929 . S
C588 H582 0.930 . S
C588 C589 1.367 . S
C588 C596 1.378 . S
C589 C588 1.367 . S
C589 C597 1.433 . S
C590 H586 0.929 . S
C590 C592 1.378 . S
C590 C594 1.350 . S
C591 C594 1.463 . S
C591 C596 1.350 . S
C591 N599 1.427 . S
C592 H583 0.930 . S
C592 C590 1.378 . S
C592 C593 1.367 . S
C593 C592 1.367 . S
C593 C595 1.433 . S
C594 C590 1.350 . S
C594 C591 1.463 . S
C594 N598 1.427 . S
C595 H585 0.929 . S
C595 C593 1.433 . S
C595 N598 1.384 . S
C596 H587 0.929 . S
C596 C588 1.378 . S
C596 C591 1.350 . S
C597 H584 0.929 . S
C597 C589 1.433 . S
C597 N599 1.384 . S
N598 C594 1.427 . S
N598 C595 1.384 . S
N599 C591 1.427 . S
N599 C597 1.384 . S
H600 C606 0.930 . S
H601 C610 0.930 . S
H602 C615 0.929 . S
H603 C613 0.929 . S
H604 C608 0.929 . S
H605 C614 0.929 . S
C606 H600 0.930 . S
C606 C607 1.367 . S
C606 C614 1.378 . S
C607 C606 1.367 . S
C607 C615 1.433 . S
C608 H604 0.929 . S
C608 C610 1.378 . S
C608 C612 1.350 . S
C609 C612 1.463 . S
C609 C614 1.350 . S
C609 N617 1.427 . S
C610 H601 0.930 . S
C610 C608 1.378 . S
C610 C611 1.367 . S
C611 C610 1.367 . S
C611 C613 1.433 . S
C612 C608 1.350 . S
C612 C609 1.463 . S
C612 N616 1.427 . S
C613 H603 0.929 . S
C613 C611 1.433 . S
C613 N616 1.384 . S
C614 H605 0.929 . S
C614 C606 1.378 . S
C614 C609 1.350 . S
C615 H602 0.929 . S
C615 C607 1.433 . S
C615 N617 1.384 . S
N616 C612 1.427 . S
N616 C613 1.384 . S
N617 C609 1.427 . S
N617 C615 1.384 . S
H618 C624 0.930 . S
H619 C628 0.930 . S
H620 C633 0.929 . S
H621 C631 0.929 . S
H622 C626 0.929 . S
H623 C632 0.929 . S
C624 H618 0.930 . S
C624 C625 1.367 . S
C624 C632 1.378 . S
C625 C624 1.367 . S
C625 C633 1.433 . S
C626 H622 0.929 . S
C626 C628 1.378 . S
C626 C630 1.350 . S
C627 C630 1.463 . S
C627 C632 1.350 . S
C627 N635 1.427 . S
C628 H619 0.930 . S
C628 C626 1.378 . S
C628 C629 1.367 . S
C629 C628 1.367 . S
C629 C631 1.433 . S
C630 C626 1.350 . S
C630 C627 1.463 . S
C630 N634 1.427 . S
C631 H621 0.929 . S
C631 C629 1.433 . S
C631 N634 1.384 . S
C632 H623 0.929 . S
C632 C624 1.378 . S
C632 C627 1.350 . S
C633 H620 0.929 . S
C633 C625 1.433 . S
C633 N635 1.384 . S
N634 C630 1.427 . S
N634 C631 1.384 . S
N635 C627 1.427 . S
N635 C633 1.384 . S
H636 C642 0.930 . S
H637 C646 0.930 . S
H638 C651 0.929 . S
H639 C649 0.929 . S
H640 C644 0.929 . S
H641 C650 0.929 . S
C642 H636 0.930 . S
C642 C643 1.367 . S
C642 C650 1.378 . S
C643 C642 1.367 . S
C643 C651 1.433 . S
C644 H640 0.929 . S
C644 C646 1.378 1_556 S
C644 C648 1.350 . S
C645 C648 1.463 . S
C645 C650 1.350 . S
C645 N653 1.427 . S
C646 H637 0.930 . S
C646 C644 1.378 1_554 S
C646 C647 1.367 . S
C647 C646 1.367 . S
C647 C649 1.433 . S
C648 C644 1.350 . S
C648 C645 1.463 . S
C648 N652 1.427 . S
C649 H639 0.929 . S
C649 C647 1.433 . S
C649 N652 1.384 1_554 S
C650 H641 0.929 . S
C650 C642 1.378 . S
C650 C645 1.350 . S
C651 H638 0.929 . S
C651 C643 1.433 . S
C651 N653 1.384 . S
N652 C648 1.427 . S
N652 C649 1.384 1_556 S
N653 C645 1.427 . S
N653 C651 1.384 . S
H654 C660 0.930 . S
H655 C664 0.930 . S
H656 C669 0.929 . S
H657 C667 0.929 . S
H658 C662 0.929 . S
H659 C668 0.929 . S
C660 H654 0.930 . S
C660 C661 1.367 . S
C660 C668 1.378 . S
C661 C660 1.367 . S
C661 C669 1.433 . S
C662 H658 0.929 . S
C662 C664 1.378 . S
C662 C666 1.350 . S
C663 C666 1.463 . S
C663 C668 1.350 . S
C663 N671 1.427 . S
C664 H655 0.930 . S
C664 C662 1.378 . S
C664 C665 1.367 . S
C665 C664 1.367 . S
C665 C667 1.433 . S
C666 C662 1.350 . S
C666 C663 1.463 . S
C666 N670 1.427 . S
C667 H657 0.929 . S
C667 C665 1.433 . S
C667 N670 1.384 . S
C668 H659 0.929 . S
C668 C660 1.378 . S
C668 C663 1.350 . S
C669 H656 0.929 . S
C669 C661 1.433 . S
C669 N671 1.384 . S
N670 C666 1.427 . S
N670 C667 1.384 . S
N671 C663 1.427 . S
N671 C669 1.384 . S
H672 C678 0.930 . S
H673 C682 0.930 . S
H674 C687 0.929 . S
H675 C685 0.929 . S
H676 C680 0.929 . S
H677 C686 0.929 . S
C678 H672 0.930 . S
C678 C679 1.367 . S
C678 C686 1.378 . S
C679 C678 1.367 . S
C679 C687 1.433 . S
C680 H676 0.929 . S
C680 C682 1.378 . S
C680 C684 1.350 . S
C681 C684 1.463 . S
C681 C686 1.350 . S
C681 N689 1.427 . S
C682 H673 0.930 . S
C682 C680 1.378 . S
C682 C683 1.367 . S
C683 C682 1.367 . S
C683 C685 1.433 . S
C684 C680 1.350 . S
C684 C681 1.463 . S
C684 N688 1.427 . S
C685 H675 0.929 . S
C685 C683 1.433 . S
C685 N688 1.384 . S
C686 H677 0.929 . S
C686 C678 1.378 . S
C686 C681 1.350 . S
C687 H674 0.929 . S
C687 C679 1.433 . S
C687 N689 1.384 . S
N688 C684 1.427 . S
N688 C685 1.384 . S
N689 C681 1.427 . S
N689 C687 1.384 . S
H690 C696 0.930 . S
H691 C700 0.930 . S
H692 C705 0.929 . S
H693 C703 0.929 . S
H694 C698 0.929 . S
H695 C704 0.929 . S
C696 H690 0.930 . S
C696 C697 1.367 . S
C696 C704 1.378 . S
C697 C696 1.367 . S
C697 C705 1.433 . S
C698 H694 0.929 . S
C698 C700 1.378 . S
C698 C702 1.350 . S
C699 C702 1.463 . S
C699 C704 1.350 . S
C699 N707 1.427 . S
C700 H691 0.930 . S
C700 C698 1.378 . S
C700 C701 1.367 . S
C701 C700 1.367 . S
C701 C703 1.433 . S
C702 C698 1.350 . S
C702 C699 1.463 . S
C702 N706 1.427 . S
C703 H693 0.929 . S
C703 C701 1.433 . S
C703 N706 1.384 . S
C704 H695 0.929 . S
C704 C696 1.378 . S
C704 C699 1.350 . S
C705 H692 0.929 . S
C705 C697 1.433 . S
C705 N707 1.384 . S
N706 C702 1.427 . S
N706 C703 1.384 . S
N707 C699 1.427 . S
N707 C705 1.384 . S
H708 C714 0.930 . S
H709 C718 0.930 . S
H710 C723 0.929 . S
H711 C721 0.929 . S
H712 C716 0.929 . S
H713 C722 0.929 . S
C714 H708 0.930 . S
C714 C715 1.367 . S
C714 C722 1.378 . S
C715 C714 1.367 . S
C715 C723 1.433 . S
C716 H712 0.929 . S
C716 C718 1.378 . S
C716 C720 1.350 . S
C717 C720 1.463 . S
C717 C722 1.350 . S
C717 N725 1.427 . S
C718 H709 0.930 . S
C718 C716 1.378 . S
C718 C719 1.367 . S
C719 C718 1.367 . S
C719 C721 1.433 . S
C720 C716 1.350 . S
C720 C717 1.463 . S
C720 N724 1.427 . S
C721 H711 0.929 . S
C721 C719 1.433 . S
C721 N724 1.384 . S
C722 H713 0.929 . S
C722 C714 1.378 . S
C722 C717 1.350 . S
C723 H710 0.929 . S
C723 C715 1.433 . S
C723 N725 1.384 . S
N724 C720 1.427 . S
N724 C721 1.384 . S
N725 C717 1.427 . S
N725 C723 1.384 . S
H726 C732 0.930 . S
H727 C736 0.930 . S
H728 C741 0.929 . S
H729 C739 0.929 . S
H730 C734 0.929 . S
H731 C740 0.929 . S
C732 H726 0.930 . S
C732 C733 1.367 . S
C732 C740 1.378 . S
C733 C732 1.367 . S
C733 C741 1.433 . S
C734 H730 0.929 . S
C734 C736 1.378 . S
C734 C738 1.350 . S
C735 C738 1.463 . S
C735 C740 1.350 . S
C735 N743 1.427 . S
C736 H727 0.930 . S
C736 C734 1.378 . S
C736 C737 1.367 . S
C737 C736 1.367 . S
C737 C739 1.433 . S
C738 C734 1.350 . S
C738 C735 1.463 . S
C738 N742 1.427 . S
C739 H729 0.929 . S
C739 C737 1.433 . S
C739 N742 1.384 . S
C740 H731 0.929 . S
C740 C732 1.378 . S
C740 C735 1.350 . S
C741 H728 0.929 . S
C741 C733 1.433 . S
C741 N743 1.384 . S
N742 C738 1.427 . S
N742 C739 1.384 . S
N743 C735 1.427 . S
N743 C741 1.384 . S
H744 C750 0.930 . S
H745 C754 0.930 . S
H746 C759 0.929 . S
H747 C757 0.929 . S
H748 C752 0.929 . S
H749 C758 0.929 . S
C750 H744 0.930 . S
C750 C751 1.367 . S
C750 C758 1.378 . S
C751 C750 1.367 . S
C751 C759 1.433 . S
C752 H748 0.929 . S
C752 C754 1.378 . S
C752 C756 1.350 . S
C753 C756 1.463 . S
C753 C758 1.350 . S
C753 N761 1.427 . S
C754 H745 0.930 . S
C754 C752 1.378 . S
C754 C755 1.367 . S
C755 C754 1.367 . S
C755 C757 1.433 . S
C756 C752 1.350 . S
C756 C753 1.463 . S
C756 N760 1.427 . S
C757 H747 0.929 . S
C757 C755 1.433 . S
C757 N760 1.384 . S
C758 H749 0.929 . S
C758 C750 1.378 . S
C758 C753 1.350 . S
C759 H746 0.929 . S
C759 C751 1.433 . S
C759 N761 1.384 . S
N760 C756 1.427 . S
N760 C757 1.384 . S
N761 C753 1.427 . S
N761 C759 1.384 . S
H762 C768 0.930 . S
H763 C772 0.930 . S
H764 C777 0.929 . S
H765 C775 0.929 . S
H766 C770 0.929 . S
H767 C776 0.929 . S
C768 H762 0.930 . S
C768 C769 1.367 . S
C768 C776 1.378 . S
C769 C768 1.367 . S
C769 C777 1.433 . S
C770 H766 0.929 . S
C770 C772 1.378 1_554 S
C770 C774 1.350 . S
C771 C774 1.463 . S
C771 C776 1.350 . S
C771 N779 1.427 . S
C772 H763 0.930 . S
C772 C770 1.378 1_556 S
C772 C773 1.367 . S
C773 C772 1.367 . S
C773 C775 1.433 . S
C774 C770 1.350 . S
C774 C771 1.463 . S
C774 N778 1.427 1_554 S
C775 H765 0.929 . S
C775 C773 1.433 . S
C775 N778 1.384 . S
C776 H767 0.929 . S
C776 C768 1.378 . S
C776 C771 1.350 . S
C777 H764 0.929 . S
C777 C769 1.433 . S
C777 N779 1.384 . S
N778 C774 1.427 1_556 S
N778 C775 1.384 . S
N779 C771 1.427 . S
N779 C777 1.384 . S
H780 C786 0.930 . S
H781 C790 0.930 . S
H782 C795 0.929 . S
H783 C793 0.929 . S
H784 C788 0.929 . S
H785 C794 0.929 . S
C786 H780 0.930 . S
C786 C787 1.367 . S
C786 C794 1.378 . S
C787 C786 1.367 . S
C787 C795 1.433 . S
C788 H784 0.929 . S
C788 C790 1.378 . S
C788 C792 1.350 . S
C789 C792 1.463 . S
C789 C794 1.350 . S
C789 N797 1.427 . S
C790 H781 0.930 . S
C790 C788 1.378 . S
C790 C791 1.367 . S
C791 C790 1.367 . S
C791 C793 1.433 . S
C792 C788 1.350 . S
C792 C789 1.463 . S
C792 N796 1.427 . S
C793 H783 0.929 . S
C793 C791 1.433 . S
C793 N796 1.384 . S
C794 H785 0.929 . S
C794 C786 1.378 . S
C794 C789 1.350 . S
C795 H782 0.929 . S
C795 C787 1.433 . S
C795 N797 1.384 . S
N796 C792 1.427 . S
N796 C793 1.384 . S
N797 C789 1.427 . S
N797 C795 1.384 . S
C377 C358 1.583 . S
C373 C45 1.582 . S
C391 C84 1.585 . S
C395 C293 1.586 . S
C409 C126 1.568 . S
C413 C311 1.583 . S
C427 C189 1.573 . S
C431 C324 1.573 . S
C449 C332 1.588 . S
C445 C228 1.587 . S
C463 C270 1.568 . S
C467 C344 1.582 . S
C481 C69 1.579 . S
C485 C306 1.586 . S
C499 C141 1.582 . S
C503 C319 1.583 . S
C517 C174 1.570 . S
C521 C337 1.581 . S
C539 C343 1.588 . S
C535 C213 1.581 . S
C557 C363 1.573 . S
C553 C285 1.573 . S
C575 C298 1.583 . S
C571 C30 1.571 . S
C589 C36 1.599 . S
C593 C304 1.605 . S
C607 C93 1.608 . S
C611 C317 1.607 . S
C629 C331 1.603 . S
C625 C117 1.586 . S
C643 C180 1.604 . S
C647 C345 1.610 . S
C665 C357 1.599 . S
C661 C237 1.599 . S
C683 C292 1.602 . S
C679 C261 1.586 . S
C701 C356 1.607 . S
C697 C78 1.573 . S
C715 C132 1.603 . S
C719 C291 1.606 . S
C737 C305 1.602 . S
C733 C165 1.585 . S
C751 C222 1.567 . S
C755 C318 1.597 . S
C769 C276 1.608 . S
C773 C330 1.611 . S
C787 C21 1.586 . S
C791 C350 1.602 . S
