# Generated by pormake.
# Topology apo, (3,6)-cn, num edge types: 1
# Building blocks:
#     Node 0, Type 0, BuildingBlock: BELTOD_clean_linker_0, # of connection points: 3
#     Node 1, Type 0, BuildingBlock: BELTOD_clean_linker_0, # of connection points: 3
#     Node 2, Type 0, BuildingBlock: BELTOD_clean_linker_0, # of connection points: 3
#     Node 3, Type 0, BuildingBlock: BELTOD_clean_linker_0, # of connection points: 3
#     Node 4, Type 0, BuildingBlock: BELTOD_clean_linker_0, # of connection points: 3
#     Node 5, Type 0, BuildingBlock: BELTOD_clean_linker_0, # of connection points: 3
#     Node 6, Type 0, BuildingBlock: BELTOD_clean_linker_0, # of connection points: 3
#     Node 7, Type 0, BuildingBlock: BELTOD_clean_linker_0, # of connection points: 3
#     Node 8, Type 1, BuildingBlock: KUMBOL_clean_sbu_1, # of connection points: 6
#     Node 9, Type 1, BuildingBlock: KUMBOL_clean_sbu_1, # of connection points: 6
#     Node 10, Type 1, BuildingBlock: KUMBOL_clean_sbu_1, # of connection points: 6
#     Node 11, Type 1, BuildingBlock: KUMBOL_clean_sbu_1, # of connection points: 6
#     Edge 12, Type (0, 1), BuildingBlock: TEMPAE_clean_linker_10, # of connection points: 2
#     Edge 13, Type (0, 1), BuildingBlock: TEMPAE_clean_linker_10, # of connection points: 2
#     Edge 14, Type (0, 1), BuildingBlock: TEMPAE_clean_linker_10, # of connection points: 2
#     Edge 15, Type (0, 1), BuildingBlock: TEMPAE_clean_linker_10, # of connection points: 2
#     Edge 16, Type (0, 1), BuildingBlock: TEMPAE_clean_linker_10, # of connection points: 2
#     Edge 17, Type (0, 1), BuildingBlock: TEMPAE_clean_linker_10, # of connection points: 2
#     Edge 18, Type (0, 1), BuildingBlock: TEMPAE_clean_linker_10, # of connection points: 2
#     Edge 19, Type (0, 1), BuildingBlock: TEMPAE_clean_linker_10, # of connection points: 2
#     Edge 20, Type (0, 1), BuildingBlock: TEMPAE_clean_linker_10, # of connection points: 2
#     Edge 21, Type (0, 1), BuildingBlock: TEMPAE_clean_linker_10, # of connection points: 2
#     Edge 22, Type (0, 1), BuildingBlock: TEMPAE_clean_linker_10, # of connection points: 2
#     Edge 23, Type (0, 1), BuildingBlock: TEMPAE_clean_linker_10, # of connection points: 2
#     Edge 24, Type (0, 1), BuildingBlock: TEMPAE_clean_linker_10, # of connection points: 2
#     Edge 25, Type (0, 1), BuildingBlock: TEMPAE_clean_linker_10, # of connection points: 2
#     Edge 26, Type (0, 1), BuildingBlock: TEMPAE_clean_linker_10, # of connection points: 2
#     Edge 27, Type (0, 1), BuildingBlock: TEMPAE_clean_linker_10, # of connection points: 2
#     Edge 28, Type (0, 1), BuildingBlock: TEMPAE_clean_linker_10, # of connection points: 2
#     Edge 29, Type (0, 1), BuildingBlock: TEMPAE_clean_linker_10, # of connection points: 2
#     Edge 30, Type (0, 1), BuildingBlock: TEMPAE_clean_linker_10, # of connection points: 2
#     Edge 31, Type (0, 1), BuildingBlock: TEMPAE_clean_linker_10, # of connection points: 2
#     Edge 32, Type (0, 1), BuildingBlock: TEMPAE_clean_linker_10, # of connection points: 2
#     Edge 33, Type (0, 1), BuildingBlock: TEMPAE_clean_linker_10, # of connection points: 2
#     Edge 34, Type (0, 1), BuildingBlock: TEMPAE_clean_linker_10, # of connection points: 2
#     Edge 35, Type (0, 1), BuildingBlock: TEMPAE_clean_linker_10, # of connection points: 2
# Relax obj value: 0.009
# Max RMSD: 0.111
# Mean RMSD: 0.081
data_MOF--net-apo--node1-KUMBOL_clean_sbu_1--node2-BELTOD_clean_linker_0--edge1-TEMPAE_clean_linker_10
_symmetry_space_group_name_H-M    P1
_symmetry_Int_Tables_number       1
_symmetry_cell_setting            triclinic
loop_
_symmetry_equiv_pos_as_xyz
'x, y, z'
_cell_length_a     27.842365
_cell_length_b     49.151571
_cell_length_c     60.636234
_cell_angle_alpha  89.654878
_cell_angle_beta   89.901023
_cell_angle_gamma 90.737962
loop_
_atom_site_label
_atom_site_type_symbol
_atom_site_fract_x
_atom_site_fract_y
_atom_site_fract_z
_atom_type_partial_charge
P0 P 0.34327 0.35299 0.40617 0.0
H1 H 0.34647 0.31196 0.44066 0.0
H2 H 0.34527 0.31485 0.48099 0.0
H3 H 0.3168 0.40082 0.47627 0.0
H4 H 0.31646 0.39773 0.43608 0.0
H5 H 0.35321 0.31235 0.37195 0.0
H6 H 0.29614 0.28226 0.3535 0.0
H7 H 0.18055 0.31566 0.39202 0.0
H8 H 0.23846 0.34605 0.41057 0.0
H9 H 0.40357 0.39997 0.41523 0.0
H10 H 0.29124 0.37898 0.36924 0.0
O11 O 0.39743 0.33935 0.40308 0.0
H12 H 0.41363 0.44422 0.39738 0.0
H13 H 0.30275 0.42274 0.35052 0.0
C14 C 0.33257 0.35468 0.43538 0.0
C15 C 0.33906 0.33131 0.44832 0.0
C16 C 0.33844 0.33298 0.47131 0.0
C17 C 0.33178 0.35816 0.48163 0.0
C18 C 0.32289 0.38129 0.46863 0.0
C19 C 0.32274 0.3795 0.44565 0.0
C20 C 0.30015 0.331 0.39292 0.0
C21 C 0.3157 0.31309 0.37661 0.0
C22 C 0.28303 0.29581 0.36611 0.0
C23 C 0.23397 0.29632 0.37154 0.0
C24 C 0.21818 0.3148 0.38756 0.0
C25 C 0.25115 0.33203 0.39821 0.0
C26 C 0.34654 0.38627 0.39367 0.0
C27 C 0.38089 0.40498 0.40132 0.0
C28 C 0.38687 0.43019 0.39097 0.0
C29 C 0.35937 0.43698 0.37234 0.0
C30 C 0.32417 0.41834 0.36496 0.0
C31 C 0.31776 0.39317 0.37558 0.0
P32 P 0.29651 0.09779 0.91195 0.0
H33 H 0.32047 0.06749 0.87261 0.0
H34 H 0.27608 0.03479 0.85022 0.0
H35 H 0.15513 0.0403 0.89482 0.0
H36 H 0.19872 0.07436 0.91619 0.0
H37 H 0.33459 0.15043 0.92573 0.0
H38 H 0.35471 0.19216 0.90544 0.0
H39 H 0.29711 0.15631 0.84595 0.0
H40 H 0.27467 0.11569 0.86653 0.0
H41 H 0.30623 0.06661 0.9524 0.0
H42 H 0.22646 0.13613 0.93011 0.0
O43 O 0.35172 0.0857 0.91543 0.0
H44 H 0.27109 0.07083 0.9891 0.0
H45 H 0.19167 0.14088 0.96707 0.0
C46 C 0.26305 0.07325 0.89608 0.0
C47 C 0.28432 0.06166 0.87749 0.0
C48 C 0.25893 0.04277 0.8648 0.0
C49 C 0.21196 0.03463 0.87073 0.0
C50 C 0.19087 0.04631 0.88951 0.0
C51 C 0.21603 0.06565 0.90193 0.0
C52 C 0.30305 0.12992 0.89773 0.0
C53 C 0.32527 0.15189 0.90843 0.0
C54 C 0.33729 0.17562 0.89671 0.0
C55 C 0.32811 0.1776 0.87392 0.0
C56 C 0.30428 0.15579 0.86349 0.0
C57 C 0.29174 0.13226 0.87529 0.0
C58 C 0.27002 0.10154 0.9388 0.0
C59 C 0.28146 0.08296 0.9555 0.0
C60 C 0.26135 0.0854 0.97646 0.0
C61 C 0.22908 0.1064 0.98106 0.0
C62 C 0.21635 0.12447 0.96401 0.0
C63 C 0.23657 0.12197 0.94298 0.0
P64 P 0.8357 0.13905 0.60342 0.0
H65 H 0.83991 0.17873 0.56772 0.0
H66 H 0.84139 0.17467 0.52757 0.0
H67 H 0.8315 0.08728 0.53361 0.0
H68 H 0.82781 0.09137 0.57387 0.0
H69 H 0.79644 0.13825 0.64805 0.0
H70 H 0.73585 0.16564 0.66637 0.0
H71 H 0.70396 0.2053 0.60456 0.0
H72 H 0.76313 0.17713 0.58601 0.0
H73 H 0.92392 0.11285 0.61751 0.0
H74 H 0.77228 0.09395 0.6176 0.0
O75 O 0.88248 0.15954 0.60868 0.0
H76 H 0.9398 0.07041 0.63698 0.0
H77 H 0.78795 0.05091 0.63682 0.0
C78 C 0.83282 0.13545 0.57386 0.0
C79 C 0.83684 0.1587 0.56046 0.0
C80 C 0.83798 0.15638 0.53754 0.0
C81 C 0.83645 0.13067 0.5276 0.0
C82 C 0.83274 0.10731 0.54096 0.0
C83 C 0.83044 0.10969 0.56396 0.0
C84 C 0.78399 0.15512 0.6155 0.0
C85 C 0.77529 0.15207 0.63819 0.0
C86 C 0.74077 0.16782 0.64872 0.0
C87 C 0.71528 0.18751 0.63684 0.0
C88 C 0.7232 0.19022 0.61405 0.0
C89 C 0.75709 0.17404 0.60344 0.0
C90 C 0.84685 0.1068 0.61659 0.0
C91 C 0.894 0.09948 0.62167 0.0
C92 C 0.90307 0.07505 0.63265 0.0
C93 C 0.86512 0.05728 0.63856 0.0
C94 C 0.81789 0.06434 0.63282 0.0
C95 C 0.80889 0.08885 0.62179 0.0
P96 P 0.78825 0.39937 0.09387 0.0
H97 H 0.81484 0.42837 0.13346 0.0
H98 H 0.77138 0.45831 0.15822 0.0
H99 H 0.64303 0.44692 0.11908 0.0
H100 H 0.68613 0.41572 0.09525 0.0
H101 H 0.87663 0.36806 0.09355 0.0
H102 H 0.90351 0.32889 0.11499 0.0
H103 H 0.76566 0.32473 0.1478 0.0
H104 H 0.73876 0.36375 0.12593 0.0
H105 H 0.74037 0.43399 0.06171 0.0
H106 H 0.77154 0.34869 0.06921 0.0
O107 O 0.83787 0.41697 0.08719 0.0
H108 H 0.70687 0.42523 0.02504 0.0
H109 H 0.73877 0.33996 0.03252 0.0
C110 C 0.7541 0.42038 0.11222 0.0
C111 C 0.77726 0.43227 0.1303 0.0
C112 C 0.7524 0.44956 0.14435 0.0
C113 C 0.70379 0.45547 0.1405 0.0
C114 C 0.68032 0.44279 0.12266 0.0
C115 C 0.70515 0.42517 0.10879 0.0
C116 C 0.80609 0.36912 0.1085 0.0
C117 C 0.85214 0.35868 0.10532 0.0
C118 C 0.86754 0.33635 0.11766 0.0
C119 C 0.837 0.3239 0.13336 0.0
C120 C 0.79006 0.33378 0.13583 0.0
C121 C 0.77471 0.35618 0.12344 0.0
C122 C 0.75761 0.39194 0.06839 0.0
C123 C 0.73909 0.4133 0.05567 0.0
C124 C 0.72 0.40831 0.03473 0.0
C125 C 0.72024 0.38193 0.02596 0.0
C126 C 0.73832 0.36051 0.03886 0.0
C127 C 0.75682 0.36548 0.0599 0.0
P128 P 0.7818 0.60569 0.59127 0.0
H129 H 0.81832 0.63445 0.55286 0.0
H130 H 0.78579 0.64237 0.51601 0.0
H131 H 0.65158 0.60456 0.536 0.0
H132 H 0.68422 0.59709 0.57305 0.0
H133 H 0.83398 0.61051 0.63223 0.0
H134 H 0.85565 0.64907 0.65561 0.0
H135 H 0.7826 0.70329 0.61092 0.0
H136 H 0.76047 0.66449 0.58764 0.0
H137 H 0.76453 0.54776 0.5849 0.0
H138 H 0.72297 0.60894 0.63168 0.0
O139 O 0.83401 0.59131 0.58501 0.0
H140 H 0.7266 0.51253 0.60802 0.0
H141 H 0.68549 0.57382 0.65493 0.0
C142 C 0.75397 0.61484 0.56553 0.0
C143 C 0.78166 0.62821 0.54939 0.0
C144 C 0.76307 0.63265 0.52834 0.0
C145 C 0.71632 0.62378 0.52301 0.0
C146 C 0.68764 0.61173 0.53963 0.0
C147 C 0.70638 0.60728 0.56077 0.0
C148 C 0.79582 0.63464 0.60821 0.0
C149 C 0.82242 0.63068 0.62752 0.0
C150 C 0.83454 0.65269 0.64092 0.0
C151 C 0.82068 0.67914 0.63509 0.0
C152 C 0.79394 0.6831 0.6157 0.0
C153 C 0.78128 0.66095 0.60241 0.0
C154 C 0.7474 0.58084 0.60677 0.0
C155 C 0.74686 0.55363 0.60004 0.0
C156 C 0.72514 0.53354 0.61324 0.0
C157 C 0.70372 0.54039 0.63344 0.0
C158 C 0.70256 0.56789 0.63966 0.0
C159 C 0.72386 0.58799 0.62633 0.0
P160 P 0.81696 0.8595 0.10349 0.0
H161 H 0.83818 0.87335 0.14874 0.0
H162 H 0.84764 0.91644 0.16816 0.0
H163 H 0.81523 0.96008 0.10806 0.0
H164 H 0.80558 0.91667 0.08867 0.0
H165 H 0.78741 0.803 0.09777 0.0
H166 H 0.72686 0.7744 0.1163 0.0
H167 H 0.67433 0.84478 0.15064 0.0
H168 H 0.73437 0.87331 0.13189 0.0
H169 H 0.8913 0.87897 0.0737 0.0
H170 H 0.74645 0.84775 0.06818 0.0
O171 O 0.86559 0.84196 0.11048 0.0
H172 H 0.89726 0.88211 0.0336 0.0
H173 H 0.7525 0.85007 0.02792 0.0
C174 C 0.82182 0.89182 0.11725 0.0
C175 C 0.83293 0.89219 0.13976 0.0
C176 C 0.83791 0.91684 0.15088 0.0
C177 C 0.8321 0.94168 0.13965 0.0
C178 C 0.82025 0.94126 0.11709 0.0
C179 C 0.81477 0.91647 0.106 0.0
C180 C 0.76588 0.84019 0.11362 0.0
C181 C 0.76217 0.81236 0.10892 0.0
C182 C 0.72751 0.79606 0.1195 0.0
C183 C 0.69618 0.80732 0.1351 0.0
C184 C 0.69843 0.83549 0.13892 0.0
C185 C 0.73277 0.85183 0.12815 0.0
C186 C 0.81859 0.86303 0.07389 0.0
C187 C 0.86077 0.87273 0.0638 0.0
C188 C 0.86427 0.87427 0.04085 0.0
C189 C 0.82557 0.86604 0.02747 0.0
C190 C 0.78292 0.85671 0.03771 0.0
C191 C 0.77944 0.85527 0.06075 0.0
P192 P 0.27289 0.89361 0.4162 0.0
H193 H 0.28583 0.85011 0.4481 0.0
H194 H 0.24975 0.84094 0.48421 0.0
H195 H 0.15035 0.90649 0.47377 0.0
H196 H 0.18649 0.91553 0.43762 0.0
H197 H 0.36582 0.87541 0.39999 0.0
H198 H 0.39016 0.83795 0.37698 0.0
H199 H 0.24139 0.81234 0.3708 0.0
H200 H 0.21828 0.84832 0.39604 0.0
H201 H 0.28516 0.95251 0.41193 0.0
H202 H 0.19118 0.89051 0.38531 0.0
O203 O 0.32302 0.90806 0.42598 0.0
H204 H 0.24422 0.98695 0.39014 0.0
H205 H 0.15109 0.92472 0.36292 0.0
C206 C 0.23847 0.88321 0.44002 0.0
C207 C 0.25545 0.86204 0.45332 0.0
C208 C 0.23513 0.85702 0.47405 0.0
C209 C 0.19749 0.87317 0.4819 0.0
C210 C 0.17906 0.8936 0.4681 0.0
C211 C 0.1997 0.89873 0.44739 0.0
C212 C 0.29007 0.865 0.39952 0.0
C213 C 0.33841 0.86159 0.39389 0.0
C214 C 0.35225 0.84021 0.38032 0.0
C215 C 0.31786 0.8221 0.3714 0.0
C216 C 0.26927 0.82551 0.37734 0.0
C217 C 0.2557 0.84648 0.39152 0.0
C218 C 0.24213 0.91874 0.39988 0.0
C219 C 0.25611 0.94618 0.40121 0.0
C220 C 0.23273 0.9659 0.38867 0.0
C221 C 0.19469 0.95857 0.37459 0.0
C222 C 0.1801 0.93109 0.37366 0.0
C223 C 0.20345 0.91139 0.38629 0.0
P224 P 0.33055 0.62783 0.90092 0.0
H225 H 0.33646 0.61147 0.85538 0.0
H226 H 0.33951 0.56698 0.83759 0.0
H227 H 0.3122 0.52768 0.90026 0.0
H228 H 0.3064 0.57223 0.91785 0.0
H229 H 0.33731 0.68597 0.89209 0.0
H230 H 0.28366 0.71797 0.87397 0.0
H231 H 0.17777 0.65369 0.86604 0.0
H232 H 0.23144 0.6219 0.88475 0.0
H233 H 0.37873 0.59409 0.93354 0.0
H234 H 0.28039 0.66114 0.93362 0.0
O235 O 0.38574 0.63871 0.89429 0.0
H236 H 0.38184 0.59501 0.9736 0.0
H237 H 0.28692 0.66411 0.97342 0.0
C238 C 0.3227 0.59518 0.88802 0.0
C239 C 0.3299 0.59332 0.86521 0.0
C240 C 0.33143 0.56796 0.85505 0.0
C241 C 0.32645 0.54406 0.86766 0.0
C242 C 0.31642 0.54593 0.89029 0.0
C243 C 0.31373 0.57139 0.90036 0.0
C244 C 0.28874 0.65149 0.88926 0.0
C245 C 0.30249 0.6788 0.88652 0.0
C246 C 0.27185 0.69703 0.87607 0.0
C247 C 0.22675 0.68827 0.86821 0.0
C248 C 0.21222 0.66109 0.87191 0.0
C249 C 0.24296 0.64286 0.88246 0.0
C250 C 0.32806 0.6269 0.93058 0.0
C251 C 0.35721 0.60879 0.94223 0.0
C252 C 0.35971 0.60974 0.9652 0.0
C253 C 0.3348 0.62972 0.97701 0.0
C254 C 0.30571 0.64795 0.96516 0.0
C255 C 0.30217 0.64642 0.94221 0.0
C256 C 0.84513 0.10339 0.25371 0.0
C257 C 0.85007 0.05587 0.26448 0.0
C258 C 0.86949 0.08251 0.26439 0.0
C259 C 0.8069 0.05039 0.2533 0.0
C260 C 0.80167 0.09799 0.24258 0.0
C261 C 0.78282 0.07136 0.24236 0.0
N262 N 0.86507 0.12879 0.25343 0.0
C263 C 0.8429 0.14989 0.24311 0.0
C264 C 0.77889 0.11946 0.23168 0.0
C265 C 0.79951 0.14554 0.23203 0.0
Gd266 Gd 0.05622 0.12983 0.23155 0.0
Gd267 Gd 0.93795 0.13382 0.27194 0.0
N268 N 0.91186 0.08825 0.27473 0.0
C269 C 0.87428 0.03555 0.27608 0.0
C270 C 0.9334 0.06899 0.28746 0.0
C271 C 0.91566 0.04226 0.28794 0.0
H272 H 0.96317 0.07418 0.29793 0.0
H273 H 0.93345 0.02696 0.29777 0.0
H274 H 0.0497 0.19262 0.2104 0.0
H275 H 0.85879 0.17005 0.24343 0.0
H276 H 0.10087 0.23374 0.20693 0.0
H277 H 0.86054 0.01483 0.27655 0.0
H278 H 0.79166 0.03 0.25313 0.0
H279 H 0.12655 0.08145 0.25304 0.0
H280 H 0.74548 0.11611 0.22291 0.0
H281 H 0.78208 0.16226 0.22372 0.0
H282 H 0.24802 0.20913 0.24269 0.0
H283 H 0.74965 0.06677 0.23376 0.0
H284 H 0.26106 0.11811 0.27071 0.0
H285 H 0.20694 0.0778 0.26976 0.0
N286 N 0.13279 0.12389 0.247 0.0
C287 C 0.16263 0.14603 0.24659 0.0
C288 C 0.14872 0.09944 0.25454 0.0
C289 C 0.22521 0.11998 0.264 0.0
C290 C 0.19473 0.0972 0.26354 0.0
C291 C 0.20967 0.14467 0.25507 0.0
H292 H 0.27618 0.16708 0.26039 0.0
N293 N 0.10114 0.17041 0.22872 0.0
C294 C 0.14678 0.16981 0.23669 0.0
C295 C 0.16055 0.21601 0.22417 0.0
C296 C 0.17754 0.19272 0.23486 0.0
C297 C 0.08488 0.19275 0.21773 0.0
C298 C 0.11409 0.21596 0.21549 0.0
O299 O 0.9326 0.11802 0.23694 0.0
O300 O 0.00283 0.09539 0.23487 0.0
O301 O 0.05085 0.13252 0.19575 0.0
O302 O 0.10129 0.10503 0.21082 0.0
O303 O 0.00622 0.11564 0.28573 0.0
O304 O 0.0412 0.09569 0.2556 0.0
O305 O 0.06395 0.16034 0.25922 0.0
O306 O 0.995 0.16388 0.28092 0.0
O307 O 0.91736 0.12804 0.30639 0.0
O308 O 0.88839 0.16198 0.28718 0.0
O309 O 0.99225 0.15418 0.2201 0.0
O310 O 0.95203 0.17103 0.25071 0.0
C311 C 0.95787 0.09795 0.22918 0.0
C312 C 0.03652 0.09839 0.27703 0.0
C313 C 0.12463 0.12597 0.17738 0.0
C314 C 0.15414 0.13369 0.13996 0.0
C315 C 0.20288 0.14718 0.17132 0.0
C316 C 0.16755 0.13723 0.18561 0.0
C317 C 0.19624 0.14553 0.14862 0.0
C318 C 0.11823 0.12395 0.15446 0.0
C319 C 0.08672 0.11621 0.19256 0.0
C320 C 0.22402 0.19164 0.24373 0.0
C321 C 0.24 0.16771 0.25387 0.0
H322 H 0.18305 0.23405 0.22243 0.0
C323 C 0.03922 0.17069 0.27562 0.0
C324 C 0.96515 0.17248 0.2298 0.0
C325 C 0.86397 0.15884 0.32576 0.0
C326 C 0.85109 0.15873 0.36561 0.0
C327 C 0.81075 0.19172 0.34244 0.0
C328 C 0.83255 0.18087 0.32379 0.0
C329 C 0.82021 0.18088 0.36325 0.0
C330 C 0.87271 0.14754 0.34681 0.0
C331 C 0.89092 0.1497 0.30622 0.0
H332 H 0.23577 0.15588 0.17786 0.0
H333 H 0.17422 0.13803 0.20306 0.0
H334 H 0.22466 0.15285 0.13779 0.0
H335 H 0.08553 0.11489 0.14796 0.0
H336 H 0.78689 0.20882 0.34078 0.0
H337 H 0.82548 0.19008 0.30787 0.0
H338 H 0.80329 0.18974 0.37758 0.0
H339 H 0.89735 0.13079 0.3487 0.0
C340 C 0.66298 0.39533 0.76027 0.0
C341 C 0.65196 0.44182 0.7721 0.0
C342 C 0.63563 0.41456 0.77106 0.0
C343 C 0.69443 0.44967 0.7611 0.0
C344 C 0.70635 0.40293 0.74973 0.0
C345 C 0.72157 0.43026 0.74995 0.0
N346 N 0.64638 0.36924 0.75958 0.0
C347 C 0.67223 0.3495 0.74947 0.0
C348 C 0.73276 0.38284 0.73903 0.0
C349 C 0.71576 0.35597 0.73903 0.0
Gd350 Gd 0.45426 0.36652 0.73634 0.0
Gd351 Gd 0.57153 0.36029 0.77605 0.0
N352 N 0.5942 0.40641 0.78126 0.0
C353 C 0.62591 0.46022 0.78474 0.0
C354 C 0.5722 0.42356 0.79564 0.0
C355 C 0.58659 0.45086 0.79704 0.0
H356 H 0.5444 0.41632 0.80663 0.0
H357 H 0.56791 0.46452 0.80794 0.0
H358 H 0.45779 0.29962 0.72519 0.0
H359 H 0.65904 0.32881 0.74939 0.0
H360 H 0.40596 0.25896 0.72985 0.0
H361 H 0.63722 0.48133 0.78598 0.0
H362 H 0.70709 0.4706 0.76147 0.0
H363 H 0.39001 0.41929 0.75367 0.0
H364 H 0.76623 0.38786 0.73072 0.0
H365 H 0.736 0.34028 0.73088 0.0
H366 H 0.26159 0.29321 0.76238 0.0
H367 H 0.75444 0.43657 0.74168 0.0
H368 H 0.25377 0.38898 0.77657 0.0
H369 H 0.31045 0.42748 0.77034 0.0
N370 N 0.3789 0.37657 0.75126 0.0
C371 C 0.34797 0.35521 0.75409 0.0
C372 C 0.36575 0.40233 0.75666 0.0
C373 C 0.28871 0.38526 0.76938 0.0
C374 C 0.32063 0.40704 0.76593 0.0
C375 C 0.30207 0.35895 0.76334 0.0
H376 H 0.23573 0.33887 0.77338 0.0
N377 N 0.40739 0.32654 0.7393 0.0
C378 C 0.36237 0.32947 0.74768 0.0
C379 C 0.34762 0.28116 0.74425 0.0
C380 C 0.33149 0.3068 0.75062 0.0
C381 C 0.42278 0.30175 0.73245 0.0
C382 C 0.39334 0.27867 0.735 0.0
O383 O 0.58077 0.37667 0.74115 0.0
O384 O 0.51069 0.39951 0.73762 0.0
O385 O 0.4525 0.35941 0.7009 0.0
O386 O 0.41325 0.39285 0.71496 0.0
O387 O 0.50305 0.37897 0.78936 0.0
O388 O 0.47562 0.40081 0.75852 0.0
O389 O 0.44487 0.3437 0.76863 0.0
O390 O 0.51889 0.32502 0.77574 0.0
O391 O 0.58096 0.3603 0.81197 0.0
O392 O 0.62386 0.33375 0.79116 0.0
O393 O 0.51445 0.33991 0.72379 0.0
O394 O 0.56197 0.32466 0.75301 0.0
C395 C 0.55559 0.39608 0.73207 0.0
C396 C 0.47574 0.39729 0.77992 0.0
C397 C 0.38 0.37206 0.6835 0.0
C398 C 0.34418 0.36801 0.647 0.0
C399 C 0.29492 0.36162 0.67976 0.0
C400 C 0.33493 0.36642 0.69304 0.0
C401 C 0.29936 0.36256 0.65686 0.0
C402 C 0.3846 0.37251 0.66043 0.0
C403 C 0.42183 0.37877 0.69733 0.0
C404 C 0.2858 0.31041 0.75995 0.0
C405 C 0.27111 0.33641 0.76625 0.0
H406 H 0.32504 0.2632 0.74632 0.0
C407 C 0.47221 0.32575 0.77837 0.0
C408 C 0.54629 0.32323 0.73245 0.0
C409 C 0.63804 0.33036 0.83055 0.0
C410 C 0.65349 0.32986 0.87021 0.0
C411 C 0.68424 0.2939 0.847 0.0
C412 C 0.66402 0.30618 0.82851 0.0
C413 C 0.67883 0.30553 0.86774 0.0
C414 C 0.63328 0.34236 0.8515 0.0
C415 C 0.61358 0.34163 0.811 0.0
H416 H 0.26027 0.35739 0.68724 0.0
H417 H 0.33039 0.36613 0.71072 0.0
H418 H 0.26782 0.35883 0.64683 0.0
H419 H 0.41923 0.37706 0.65296 0.0
H420 H 0.70396 0.27519 0.84528 0.0
H421 H 0.66801 0.29643 0.81265 0.0
H422 H 0.69503 0.29568 0.88187 0.0
H423 H 0.61327 0.36099 0.85335 0.0
C424 C 0.8471 0.82838 0.76062 0.0
C425 C 0.85182 0.78233 0.7748 0.0
C426 C 0.87123 0.80888 0.77279 0.0
C427 C 0.80898 0.77553 0.76378 0.0
C428 C 0.80334 0.82193 0.75009 0.0
C429 C 0.78474 0.7953 0.75151 0.0
N430 N 0.86703 0.85364 0.75871 0.0
C431 C 0.84382 0.87395 0.74783 0.0
C432 C 0.77991 0.84243 0.73828 0.0
C433 C 0.80008 0.86861 0.7373 0.0
Gd434 Gd 0.05645 0.85885 0.73511 0.0
Gd435 Gd 0.94066 0.8609 0.77633 0.0
N436 N 0.91279 0.81608 0.78317 0.0
C437 C 0.87552 0.76355 0.78821 0.0
C438 C 0.93374 0.79847 0.79763 0.0
C439 C 0.91616 0.77182 0.79997 0.0
H440 H 0.96331 0.80489 0.80785 0.0
H441 H 0.93358 0.75778 0.81112 0.0
H442 H 0.04996 0.91724 0.70743 0.0
H443 H 0.85923 0.89422 0.74716 0.0
H444 H 0.09335 0.96148 0.70544 0.0
H445 H 0.86183 0.74295 0.79017 0.0
H446 H 0.79387 0.75514 0.76495 0.0
H447 H 0.12931 0.81664 0.764 0.0
H448 H 0.74624 0.83829 0.72995 0.0
H449 H 0.78201 0.88465 0.7284 0.0
H450 H 0.22347 0.9515 0.75673 0.0
H451 H 0.7515 0.78983 0.74328 0.0
H452 H 0.24228 0.86475 0.79191 0.0
H453 H 0.20003 0.82048 0.78801 0.0
N454 N 0.12671 0.85904 0.75684 0.0
C455 C 0.15182 0.883 0.75723 0.0
C456 C 0.14515 0.83643 0.76671 0.0
C457 C 0.21017 0.86337 0.78189 0.0
C458 C 0.18626 0.83838 0.77984 0.0
C459 C 0.19384 0.8859 0.77001 0.0
H460 H 0.25105 0.91354 0.77991 0.0
N461 N 0.09604 0.90096 0.7319 0.0
C462 C 0.13667 0.90437 0.74401 0.0
C463 C 0.14646 0.95 0.72949 0.0
C464 C 0.16258 0.92919 0.74341 0.0
C465 C 0.0811 0.9207 0.71767 0.0
C466 C 0.10576 0.94564 0.71643 0.0
O467 O 0.93253 0.84412 0.74177 0.0
O468 O 0.00465 0.82349 0.73728 0.0
O469 O 0.05596 0.85628 0.69855 0.0
O470 O 0.11472 0.83998 0.71836 0.0
O471 O 0.00767 0.84041 0.78914 0.0
O472 O 0.04429 0.82272 0.75813 0.0
O473 O 0.04409 0.89523 0.757 0.0
O474 O 0.01375 0.87467 0.78783 0.0
O475 O 0.90525 0.85946 0.80851 0.0
O476 O 0.91003 0.89774 0.78981 0.0
O477 O 0.99022 0.8796 0.72177 0.0
O478 O 0.95114 0.89662 0.75286 0.0
C479 C 0.95885 0.82523 0.73279 0.0
C480 C 0.03526 0.82243 0.77949 0.0
C481 C 0.12256 0.83306 0.67938 0.0
C482 C 0.13677 0.83037 0.63964 0.0
C483 C 0.18437 0.80343 0.66506 0.0
C484 C 0.15916 0.81402 0.68279 0.0
C485 C 0.17342 0.81153 0.64368 0.0
C486 C 0.11145 0.84132 0.65767 0.0
C487 C 0.0969 0.84366 0.69882 0.0
C488 C 0.20342 0.93246 0.75673 0.0
C489 C 0.21899 0.91087 0.77001 0.0
H490 H 0.16531 0.96939 0.7286 0.0
C491 C 0.03837 0.8944 0.77843 0.0
C492 C 0.96164 0.89708 0.73158 0.0
C493 C 0.87003 0.89943 0.82552 0.0
C494 C 0.84905 0.90442 0.86446 0.0
C495 C 0.82357 0.93811 0.83752 0.0
C496 C 0.8461 0.92372 0.82076 0.0
C497 C 0.82519 0.92865 0.85922 0.0
C498 C 0.87089 0.88959 0.84742 0.0
C499 C 0.89578 0.88531 0.80774 0.0
H500 H 0.21266 0.78894 0.66792 0.0
H501 H 0.16845 0.80719 0.69923 0.0
H502 H 0.19429 0.8033 0.63024 0.0
H503 H 0.08331 0.85595 0.65482 0.0
H504 H 0.8051 0.95679 0.83369 0.0
H505 H 0.84489 0.93166 0.80407 0.0
H506 H 0.80758 0.94026 0.87196 0.0
H507 H 0.8899 0.87107 0.85131 0.0
C508 C 0.64193 0.6641 0.25648 0.0
C509 C 0.6379 0.71181 0.26602 0.0
C510 C 0.61809 0.68524 0.26663 0.0
C511 C 0.68126 0.71679 0.25472 0.0
C512 C 0.68613 0.66884 0.24563 0.0
C513 C 0.7054 0.69535 0.24462 0.0
N514 N 0.62148 0.63889 0.25695 0.0
C515 C 0.64496 0.61712 0.24848 0.0
C516 C 0.70944 0.64679 0.23601 0.0
C517 C 0.689 0.62075 0.23767 0.0
Gd518 Gd 0.4325 0.62988 0.2335 0.0
Gd519 Gd 0.54699 0.63458 0.2747 0.0
N520 N 0.57607 0.67975 0.27739 0.0
C521 C 0.6139 0.73251 0.27708 0.0
C522 C 0.5544 0.69953 0.28938 0.0
C523 C 0.57237 0.72624 0.28909 0.0
H524 H 0.52397 0.69484 0.29962 0.0
H525 H 0.55445 0.74191 0.29835 0.0
H526 H 0.45014 0.56923 0.21091 0.0
H527 H 0.63006 0.59687 0.25019 0.0
H528 H 0.41442 0.52288 0.21241 0.0
H529 H 0.62784 0.75319 0.27695 0.0
H530 H 0.69677 0.73711 0.25395 0.0
H531 H 0.34853 0.67117 0.25545 0.0
H532 H 0.74344 0.64958 0.22753 0.0
H533 H 0.70719 0.60347 0.2307 0.0
H534 H 0.2789 0.53169 0.26094 0.0
H535 H 0.73903 0.69946 0.23614 0.0
H536 H 0.24022 0.62119 0.28574 0.0
H537 H 0.27519 0.66678 0.27794 0.0
N538 N 0.35896 0.62858 0.25291 0.0
C539 C 0.33825 0.60353 0.25554 0.0
C540 C 0.33549 0.65118 0.25984 0.0
C541 C 0.27332 0.62301 0.2764 0.0
C542 C 0.29306 0.64876 0.27211 0.0
C543 C 0.29522 0.60002 0.2676 0.0
H544 H 0.24197 0.57074 0.27933 0.0
N545 N 0.39992 0.58565 0.23346 0.0
C546 C 0.35876 0.5815 0.24512 0.0
C547 C 0.35797 0.53408 0.23485 0.0
C548 C 0.33721 0.55545 0.24654 0.0
C549 C 0.41898 0.5653 0.22111 0.0
C550 C 0.39866 0.53913 0.22184 0.0
O551 O 0.55167 0.65073 0.23972 0.0
O552 O 0.4772 0.6684 0.23387 0.0
O553 O 0.44098 0.62842 0.1979 0.0
O554 O 0.3739 0.6415 0.21211 0.0
O555 O 0.47973 0.65577 0.28643 0.0
O556 O 0.4345 0.66741 0.25551 0.0
O557 O 0.44963 0.59631 0.25748 0.0
O558 O 0.47503 0.6199 0.28739 0.0
O559 O 0.5823 0.63924 0.30687 0.0
O560 O 0.5777 0.59948 0.29059 0.0
O561 O 0.50223 0.61177 0.22169 0.0
O562 O 0.5409 0.59702 0.25335 0.0
C563 C 0.52384 0.66912 0.23082 0.0
C564 C 0.44687 0.67063 0.27644 0.0
C565 C 0.3955 0.65959 0.17732 0.0
C566 C 0.38462 0.67189 0.13852 0.0
C567 C 0.38846 0.70696 0.16686 0.0
C568 C 0.39469 0.68713 0.18312 0.0
C569 C 0.38273 0.69947 0.14481 0.0
C570 C 0.39172 0.65214 0.15511 0.0
C571 C 0.39854 0.6381 0.19411 0.0
C572 C 0.29562 0.55164 0.25937 0.0
C573 C 0.27469 0.57387 0.26989 0.0
H574 H 0.3425 0.51376 0.2355 0.0
C575 C 0.45215 0.59912 0.27885 0.0
C576 C 0.532 0.59538 0.23202 0.0
C577 C 0.61861 0.60027 0.32572 0.0
C578 C 0.63907 0.59594 0.36472 0.0
C579 C 0.66725 0.56263 0.33835 0.0
C580 C 0.6442 0.57645 0.32137 0.0
C581 C 0.66455 0.57218 0.35989 0.0
C582 C 0.6167 0.61027 0.34744 0.0
C583 C 0.59204 0.61338 0.30763 0.0
H584 H 0.38722 0.72821 0.17139 0.0
H585 H 0.39816 0.69323 0.20019 0.0
H586 H 0.376 0.71537 0.13284 0.0
H587 H 0.39427 0.63081 0.15094 0.0
H588 H 0.68697 0.54432 0.33484 0.0
H589 H 0.64628 0.56843 0.30479 0.0
H590 H 0.6827 0.56103 0.37282 0.0
H591 H 0.59655 0.62845 0.35101 0.0
C592 C 0.12061 0.97911 0.3582 0.0
C593 C 0.17069 0.97952 0.36082 0.0
C594 C 0.09769 -0.00138 0.34504 0.0
C595 C 0.12551 0.01903 0.33425 0.0
C596 C 0.176 0.01966 0.33691 0.0
C597 C 0.19797 -0.00011 0.35014 0.0
C598 C 0.04374 -0.00267 0.34261 0.0
C599 C 0.20689 0.04099 0.32552 0.0
C600 C 0.07349 0.05292 0.28341 0.0
C601 C 0.05921 0.07814 0.29172 0.0
C602 C 0.09531 0.03357 0.29706 0.0
C603 C 0.10199 0.03931 0.31969 0.0
C604 C 0.08662 0.06447 0.3283 0.0
C605 C 0.06555 0.08364 0.31418 0.0
C606 C 0.1114 0.00703 0.28722 0.0
C607 C 0.09262 0.07117 0.35241 0.0
H608 H 0.09923 0.96367 0.36663 0.0
H609 H 0.23672 0.00012 0.35181 0.0
H610 H 0.02785 0.01682 0.34792 0.0
H611 H 0.03409 0.99445 0.32502 0.0
H612 H 0.02723 0.9805 0.35243 0.0
H613 H 0.24556 0.03898 0.32963 0.0
H614 H 0.20267 0.03937 0.30738 0.0
H615 H 0.19513 0.06162 0.33028 0.0
H616 H 0.06754 0.04822 0.26618 0.0
H617 H 0.05422 0.10302 0.32071 0.0
H618 H 0.09301 0.98971 0.29564 0.0
H619 H 0.15056 0.00458 0.2898 0.0
H620 H 0.10386 0.00581 0.26927 0.0
H621 H 0.0745 0.05539 0.36273 0.0
H622 H 0.07762 0.09133 0.35661 0.0
H623 H 0.13128 0.07116 0.3568 0.0
C624 C 0.3779 0.50336 0.86568 0.0
C625 C 0.33843 0.51771 0.85766 0.0
C626 C 0.39628 0.48127 0.85404 0.0
C627 C 0.3738 0.473 0.83421 0.0
C628 C 0.33168 0.48617 0.82695 0.0
C629 C 0.31491 0.50876 0.8386 0.0
C630 C 0.44196 0.46823 0.86202 0.0
C631 C 0.3058 0.47725 0.80632 0.0
C632 C 0.45447 0.44424 0.79004 0.0
C633 C 0.44903 0.41628 0.79367 0.0
C634 C 0.43028 0.46288 0.80324 0.0
C635 C 0.39805 0.45318 0.8197 0.0
C636 C 0.39096 0.42482 0.82277 0.0
C637 C 0.41754 0.40662 0.80999 0.0
C638 C 0.44012 0.49292 0.7999 0.0
C639 C 0.35537 0.41376 0.83944 0.0
H640 H 0.39634 0.51059 0.88031 0.0
H641 H 0.28429 0.51993 0.83249 0.0
H642 H 0.43764 0.44579 0.86273 0.0
H643 H 0.4715 0.47291 0.85022 0.0
H644 H 0.45279 0.47558 0.8786 0.0
H645 H 0.27084 0.48761 0.80428 0.0
H646 H 0.32841 0.48183 0.79165 0.0
H647 H 0.29933 0.45494 0.80674 0.0
H648 H 0.47889 0.45151 0.77728 0.0
H649 H 0.4129 0.38487 0.81236 0.0
H650 H 0.45301 0.50208 0.81553 0.0
H651 H 0.40655 0.50339 0.79524 0.0
H652 H 0.46747 0.49695 0.78687 0.0
H653 H 0.36639 0.41978 0.85631 0.0
H654 H 0.35216 0.39122 0.83886 0.0
H655 H 0.31946 0.42256 0.83641 0.0
C656 C 0.69481 0.51892 0.67082 0.0
C657 C 0.68387 0.51885 0.64824 0.0
C658 C 0.67666 0.49855 0.685 0.0
C659 C 0.64657 0.47777 0.6764 0.0
C660 C 0.63565 0.47751 0.6536 0.0
C661 C 0.6546 0.49799 0.63978 0.0
C662 C 0.68951 0.49932 0.70918 0.0
C663 C 0.60325 0.45583 0.64388 0.0
C664 C 0.62447 0.41204 0.70848 0.0
C665 C 0.57969 0.41695 0.71814 0.0
C666 C 0.64737 0.4319 0.69528 0.0
C667 C 0.62446 0.45704 0.69137 0.0
C668 C 0.57935 0.46212 0.70119 0.0
C669 C 0.55758 0.44205 0.71447 0.0
C670 C 0.69576 0.42587 0.68532 0.0
C671 C 0.55378 0.48868 0.69749 0.0
H672 H 0.71807 0.53477 0.67736 0.0
H673 H 0.64582 0.49797 0.62236 0.0
H674 H 0.65644 0.50059 0.71934 0.0
H675 H 0.70778 0.48025 0.71397 0.0
H676 H 0.71342 0.51684 0.71325 0.0
H677 H 0.59934 0.45807 0.62574 0.0
H678 H 0.61766 0.43536 0.64755 0.0
H679 H 0.56709 0.45682 0.65154 0.0
H680 H 0.64141 0.39256 0.71104 0.0
H681 H 0.52308 0.4461 0.722 0.0
H682 H 0.72234 0.44168 0.69026 0.0
H683 H 0.69334 0.42644 0.66706 0.0
H684 H 0.70932 0.40565 0.69049 0.0
H685 H 0.57705 0.50596 0.70269 0.0
H686 H 0.51932 0.48963 0.70671 0.0
H687 H 0.54623 0.49146 0.67967 0.0
C688 C 0.8703 0.98804 0.14183 0.0
C689 C 0.84102 0.96774 0.15138 0.0
C690 C 0.88446 0.01109 0.15388 0.0
C691 C 0.86888 0.01392 0.17599 0.0
C692 C 0.83699 0.99431 0.18527 0.0
C693 C 0.8235 0.97143 0.17286 0.0
C694 C 0.91841 0.03159 0.14339 0.0
C695 C 0.81885 0.99688 0.20863 0.0
C696 C 0.95503 0.05082 0.21427 0.0
C697 C 0.93435 0.07657 0.21581 0.0
C698 C 0.93357 0.03024 0.20163 0.0
C699 C 0.89041 0.03553 0.19013 0.0
C700 C 0.86897 0.06141 0.19184 0.0
C701 C 0.89134 0.08168 0.20461 0.0
C702 C 0.95732 0.00282 0.20048 0.0
C703 C 0.82292 0.06784 0.17991 0.0
H704 H 0.88417 0.98526 0.12529 0.0
H705 H 0.80013 0.95603 0.18017 0.0
H706 H 0.90518 0.05255 0.14585 0.0
H707 H 0.95411 0.03034 0.15142 0.0
H708 H 0.92304 0.02808 0.12544 0.0
H709 H 0.79242 0.98061 0.21303 0.0
H710 H 0.84941 0.9959 0.22032 0.0
H711 H 0.80168 0.0169 0.21087 0.0
H712 H 0.98802 0.04666 0.22307 0.0
H713 H 0.87548 0.10165 0.2056 0.0
H714 H 0.9671 -0.00175 0.18316 0.0
H715 H 0.93193 0.98665 0.20614 0.0
H716 H 0.99029 0.00186 0.21074 0.0
H717 H 0.82898 0.067 0.16184 0.0
H718 H 0.80927 0.0883 0.18414 0.0
H719 H 0.7948 0.05243 0.18401 0.0
C720 C 0.91525 0.01624 0.64612 0.0
C721 C 0.87503 0.03195 0.65121 0.0
C722 C 0.92729 0.99351 0.65896 0.0
C723 C 0.89818 0.98613 0.67725 0.0
C724 C 0.85667 0.00134 0.68209 0.0
C725 C 0.84566 0.02413 0.66905 0.0
C726 C 0.97188 0.97781 0.6533 0.0
C727 C 0.8246 0.99396 0.70137 0.0
C728 C 0.9142 0.91465 0.7001 0.0
C729 C 0.9436 0.91971 0.71831 0.0
C730 C 0.8977 0.9362 0.68696 0.0
C731 C 0.91248 0.9632 0.69184 0.0
C732 C 0.94242 0.96824 0.71029 0.0
C733 C 0.95701 0.94639 0.72355 0.0
C734 C 0.86486 0.93008 0.6678 0.0
C735 C 0.96002 0.9966 0.71571 0.0
H736 H 0.93764 0.02187 0.63214 0.0
H737 H 0.81482 0.0363 0.67325 0.0
H738 H 0.9976 0.97873 0.66725 0.0
H739 H 0.9626 0.95606 0.65066 0.0
H740 H 0.99009 0.98584 0.63825 0.0
H741 H 0.79182 0.00659 0.70194 0.0
H742 H 0.8136 0.97222 0.70052 0.0
H743 H 0.84462 0.99677 0.71701 0.0
H744 H 0.90381 0.89386 0.69629 0.0
H745 H 0.9802 0.95003 0.73761 0.0
H746 H 0.88294 0.9358 0.6521 0.0
H747 H 0.83183 0.94238 0.66902 0.0
H748 H 0.85438 0.90822 0.66709 0.0
H749 H 0.98102 0.00507 0.70163 0.0
H750 H 0.98303 0.99702 0.73066 0.0
H751 H 0.92906 0.01018 0.71837 0.0
C752 C 0.70216 0.49864 0.16245 0.0
C753 C 0.67818 0.47527 0.15472 0.0
C754 C 0.67855 0.51771 0.17559 0.0
C755 C 0.62947 0.51359 0.18089 0.0
C756 C 0.60497 0.49009 0.1732 0.0
C757 C 0.62966 0.47114 0.16033 0.0
C758 C 0.70599 0.54246 0.18357 0.0
C759 C 0.55254 0.48508 0.17845 0.0
C760 C 0.57868 0.55225 0.22957 0.0
C761 C 0.55634 0.57418 0.21902 0.0
C762 C 0.60228 0.53224 0.21736 0.0
C763 C 0.60358 0.53422 0.19407 0.0
C764 C 0.5808 0.55619 0.18333 0.0
C765 C 0.5574 0.57587 0.19592 0.0
C766 C 0.62613 0.50908 0.22939 0.0
C767 C 0.5815 0.55906 0.15852 0.0
H768 H 0.73934 0.50236 0.15792 0.0
H769 H 0.61095 0.45299 0.15477 0.0
H770 H 0.68977 0.56117 0.17668 0.0
H771 H 0.70364 0.54382 0.2018 0.0
H772 H 0.74449 0.54211 0.17875 0.0
H773 H 0.53877 0.46572 0.17135 0.0
H774 H 0.54709 0.48445 0.19658 0.0
H775 H 0.53078 0.50206 0.1719 0.0
H776 H 0.57769 0.55068 0.2474 0.0
H777 H 0.54035 0.59278 0.18763 0.0
H778 H 0.66517 0.50922 0.22567 0.0
H779 H 0.61122 0.48934 0.22361 0.0
H780 H 0.62125 0.51027 0.24754 0.0
H781 H 0.61911 0.56098 0.15259 0.0
H782 H 0.56129 0.57707 0.1527 0.0
H783 H 0.56569 0.54057 0.15085 0.0
C784 C 0.41738 0.47147 0.35692 0.0
C785 C 0.36966 0.46264 0.35995 0.0
C786 C 0.42838 0.495 0.34471 0.0
C787 C 0.39081 0.50999 0.335 0.0
C788 C 0.3425 0.50148 0.33813 0.0
C789 C 0.33246 0.47791 0.35064 0.0
C790 C 0.48041 0.50334 0.34163 0.0
C791 C 0.30159 0.51697 0.32791 0.0
C792 C 0.42463 0.58132 0.31554 0.0
C793 C 0.4347 0.57678 0.29323 0.0
C794 C 0.40865 0.55993 0.32926 0.0
C795 C 0.40278 0.53349 0.32041 0.0
C796 C 0.41212 0.52898 0.2978 0.0
C797 C 0.42834 0.55063 0.28456 0.0
C798 C 0.39915 0.56545 0.35332 0.0
C799 C 0.40615 0.50113 0.28768 0.0
H800 H 0.44647 0.45954 0.3636 0.0
H801 H 0.29548 0.47142 0.3531 0.0
H802 H 0.49033 0.50189 0.32395 0.0
H803 H 0.48596 0.52484 0.3466 0.0
H804 H 0.50515 0.49041 0.35136 0.0
H805 H 0.26595 0.50841 0.33273 0.0
H806 H 0.30344 0.53864 0.3329 0.0
H807 H 0.30463 0.51651 0.30967 0.0
H808 H 0.42937 0.60156 0.32226 0.0
H809 H 0.43709 0.54688 0.26746 0.0
H810 H 0.42514 0.55413 0.36362 0.0
H811 H 0.36265 0.5581 0.35795 0.0
H812 H 0.40231 0.58744 0.35729 0.0
H813 H 0.43033 0.48651 0.29597 0.0
H814 H 0.41424 0.50118 0.26973 0.0
H815 H 0.3688 0.49358 0.29014 0.0
C816 C 0.20961 0.99232 0.84765 0.0
C817 C 0.18527 0.01406 0.85739 0.0
C818 C 0.18522 0.97309 0.8347 0.0
C819 C 0.13503 0.97524 0.83176 0.0
C820 C 0.11001 0.99682 0.84174 0.0
C821 C 0.13547 0.01612 0.85422 0.0
C822 C 0.21328 0.95068 0.82391 0.0
C823 C 0.05634 -0.00043 0.83913 0.0
C824 C 0.07773 0.93998 0.78273 0.0
C825 C 0.0614 0.9155 0.79222 0.0
C826 C 0.10195 0.95959 0.79537 0.0
C827 C 0.10873 0.95488 0.81819 0.0
C828 C 0.09087 0.93058 0.82802 0.0
C829 C 0.06765 0.91108 0.81488 0.0
C830 C 0.12107 0.98506 0.7842 0.0
C831 C 0.09675 0.92505 0.85238 0.0
H832 H 0.24786 0.99016 0.85026 0.0
H833 H 0.11632 0.03303 0.86128 0.0
H834 H 0.19784 0.93049 0.82844 0.0
H835 H 0.21068 0.95275 0.80573 0.0
H836 H 0.25184 0.95117 0.82858 0.0
H837 H 0.04201 0.01702 0.84853 0.0
H838 H 0.04726 0.00236 0.82146 0.0
H839 H 0.03785 0.98067 0.84487 0.0
H840 H 0.0717 0.94384 0.76536 0.0
H841 H 0.05489 0.89223 0.82233 0.0
H842 H 0.1609 0.98522 0.78478 0.0
H843 H 0.10873 0.00341 0.793 0.0
H844 H 0.10969 0.98652 0.76669 0.0
H845 H 0.13548 0.92409 0.85654 0.0
H846 H 0.07913 0.90564 0.8576 0.0
H847 H 0.08124 0.9419 0.86205 0.0
C848 C 0.16203 0.1158 0.00769 0.0
C849 C 0.21051 0.10994 0.00381 0.0
C850 C 0.14475 0.11943 0.02926 0.0
C851 C 0.17682 0.11725 0.04725 0.0
C852 C 0.22567 0.11116 0.0434 0.0
C853 C 0.24187 0.10762 0.02176 0.0
C854 C 0.09242 0.12578 0.0328 0.0
C855 C 0.26115 0.10883 0.06213 0.0
C856 C 0.16064 0.15253 0.10184 0.0
C857 C 0.14971 0.1305 0.11581 0.0
C858 C 0.16595 0.14885 0.07909 0.0
C859 C 0.16049 0.12245 0.07017 0.0
C860 C 0.14587 0.1005 0.08398 0.0
C861 C 0.14051 0.10482 0.10672 0.0
C862 C 0.18096 0.17285 0.06491 0.0
C863 C 0.13957 0.07208 0.07507 0.0
H864 H 0.13756 0.11735 0.99387 0.0
H865 H 0.27951 0.10354 0.01884 0.0
H866 H 0.07572 0.11036 0.04394 0.0
H867 H 0.08906 0.14582 0.04094 0.0
H868 H 0.07195 0.12621 0.01709 0.0
H869 H 0.29756 0.10321 0.05635 0.0
H870 H 0.26392 0.1285 0.07096 0.0
H871 H 0.24849 0.09327 0.0742 0.0
H872 H 0.16714 0.17246 0.10889 0.0
H873 H 0.1322 0.08776 0.11755 0.0
H874 H 0.15914 0.17364 0.04964 0.0
H875 H 0.21906 0.17062 0.0599 0.0
H876 H 0.17735 0.19246 0.07375 0.0
H877 H 0.11863 0.07234 0.05953 0.0
H878 H 0.1212 0.05831 0.08708 0.0
H879 H 0.17533 0.06357 0.07123 0.0
C880 C 0.3105 0.34276 0.51977 0.0
C881 C 0.33619 0.3605 0.50584 0.0
C882 C 0.31461 0.34474 0.54275 0.0
C883 C 0.34575 0.36467 0.55194 0.0
C884 C 0.3724 0.38235 0.5379 0.0
C885 C 0.367 0.38018 0.51498 0.0
C886 C 0.28516 0.32574 0.5572 0.0
C887 C 0.40641 0.40359 0.54709 0.0
C888 C 0.31621 0.38505 0.61049 0.0
C889 C 0.34811 0.36912 0.62269 0.0
C890 C 0.3164 0.38461 0.58739 0.0
C891 C 0.34891 0.36753 0.57627 0.0
C892 C 0.38237 0.35209 0.5885 0.0
C893 C 0.38177 0.35321 0.61163 0.0
C894 C 0.28076 0.40173 0.57493 0.0
C895 C 0.41752 0.33363 0.57719 0.0
H896 H 0.28659 0.32762 0.51266 0.0
H897 H 0.3874 0.39364 0.50414 0.0
H898 H 0.30907 0.31415 0.56834 0.0
H899 H 0.26066 0.33767 0.56775 0.0
H900 H 0.26331 0.31108 0.54745 0.0
H901 H 0.42582 0.41505 0.5339 0.0
H902 H 0.38622 0.41823 0.55728 0.0
H903 H 0.43319 0.39383 0.558 0.0
H904 H 0.29063 0.39764 0.6191 0.0
H905 H 0.40633 0.34084 0.62111 0.0
H906 H 0.25508 0.38831 0.56603 0.0
H907 H 0.29956 0.4145 0.56239 0.0
H908 H 0.26012 0.41522 0.586 0.0
H909 H 0.39766 0.31688 0.5689 0.0
H910 H 0.4435 0.32461 0.58894 0.0
H911 H 0.43777 0.34501 0.56426 0.0
C912 C 0.66079 0.387 0.99509 0.0
C913 C 0.70455 0.37697 0.00294 0.0
C914 C 0.64584 0.38203 0.9733 0.0
C915 C 0.67576 0.36703 0.95903 0.0
C916 C 0.72042 0.3574 0.96681 0.0
C917 C 0.73408 0.36233 0.98867 0.0
C918 C 0.59772 0.39228 0.96573 0.0
C919 C 0.75376 0.34166 0.95207 0.0
C920 C 0.63309 0.32592 0.91015 0.0
C921 C 0.64964 0.34195 0.89245 0.0
C922 C 0.63776 0.33489 0.93196 0.0
C923 C 0.6603 0.36031 0.93617 0.0
C924 C 0.67393 0.37742 0.91825 0.0
C925 C 0.66816 0.36806 0.89653 0.0
C926 C 0.62171 0.31627 0.95052 0.0
C927 C 0.69806 0.40466 0.92201 0.0
H928 H 0.63786 0.39827 0.00613 0.0
H929 H 0.76829 0.35496 0.99459 0.0
H930 H 0.60179 0.40422 0.95024 0.0
H931 H 0.57356 0.37475 0.96209 0.0
H932 H 0.58024 0.40518 0.97832 0.0
H933 H 0.7881 0.33665 0.96038 0.0
H934 H 0.73603 0.3224 0.94688 0.0
H935 H 0.762 0.35361 0.93692 0.0
H936 H 0.6183 0.30581 0.90694 0.0
H937 H 0.68106 0.38041 0.88283 0.0
H938 H 0.6015 0.32775 0.96312 0.0
H939 H 0.65368 0.30758 0.95873 0.0
H940 H 0.59872 0.29921 0.94455 0.0
H941 H 0.67878 0.41628 0.93483 0.0
H942 H 0.69995 0.4171 0.90667 0.0
H943 H 0.73518 0.40143 0.92804 0.0
C944 C 0.87679 0.11404 0.4934 0.0
C945 C 0.83969 0.12862 0.50331 0.0
C946 C 0.88339 0.11473 0.47039 0.0
C947 C 0.85164 0.13004 0.45712 0.0
C948 C 0.81268 0.14362 0.46709 0.0
C949 C 0.80752 0.14297 0.49008 0.0
C950 C 0.92567 0.10026 0.46048 0.0
C951 C 0.77739 0.15972 0.45354 0.0
C952 C 0.88526 0.16429 0.40316 0.0
C953 C 0.86051 0.14803 0.38797 0.0
C954 C 0.88608 0.15733 0.42562 0.0
C955 C 0.86062 0.13387 0.43306 0.0
C956 C 0.83833 0.11641 0.41751 0.0
C957 C 0.83871 0.12369 0.39504 0.0
C958 C 0.91127 0.17617 0.44157 0.0
C959 C 0.81085 0.09124 0.42473 0.0
H960 H 0.90187 0.10309 0.50372 0.0
H961 H 0.77865 0.15407 0.4978 0.0
H962 H 0.91463 0.08866 0.44565 0.0
H963 H 0.95309 0.11551 0.45515 0.0
H964 H 0.94255 0.0861 0.47243 0.0
H965 H 0.74688 0.16711 0.4636 0.0
H966 H 0.79595 0.17758 0.44596 0.0
H967 H 0.76287 0.14707 0.43994 0.0
H968 H 0.90209 0.18313 0.39757 0.0
H969 H 0.81935 0.11127 0.38321 0.0
H970 H 0.93348 0.16439 0.45331 0.0
H971 H 0.88415 0.18727 0.45134 0.0
H972 H 0.93466 0.19134 0.43296 0.0
H973 H 0.83148 0.07959 0.43716 0.0
H974 H 0.8023 0.0777 0.41063 0.0
H975 H 0.77664 0.09732 0.4326 0.0
C976 C 0.87278 0.86064 0.99239 0.0
C977 C 0.82976 0.86761 0.00297 0.0
C978 C 0.87839 0.86381 0.96948 0.0
C979 C 0.84 0.8741 0.95678 0.0
C980 C 0.79591 0.88021 0.96723 0.0
C981 C 0.79136 0.87695 0.99017 0.0
C982 C 0.92592 0.85699 0.95899 0.0
C983 C 0.75403 0.89115 0.95428 0.0
C984 C 0.86467 0.91411 0.90419 0.0
C985 C 0.85158 0.89538 0.88785 0.0
C986 C 0.86273 0.90706 0.92661 0.0
C987 C 0.84696 0.88065 0.93294 0.0
C988 C 0.8355 0.86126 0.91649 0.0
C989 C 0.83818 0.86883 0.89408 0.0
C990 C 0.8761 0.92823 0.94357 0.0
C991 C 0.81857 0.8329 0.92257 0.0
H992 H 0.90235 0.85289 0.00207 0.0
H993 H 0.75815 0.88262 0.99817 0.0
H994 H 0.92032 0.84327 0.94474 0.0
H995 H 0.94341 0.87586 0.95261 0.0
H996 H 0.95076 0.8471 0.97081 0.0
H997 H 0.72114 0.89295 0.96454 0.0
H998 H 0.76348 0.91156 0.94751 0.0
H999 H 0.74587 0.87772 0.94009 0.0
H1000 H 0.87579 0.93453 0.89939 0.0
H1001 H 0.82794 0.85433 0.88148 0.0
H1002 H 0.90352 0.92012 0.95502 0.0
H1003 H 0.84404 0.93329 0.95356 0.0
H1004 H 0.89041 0.94726 0.9359 0.0
H1005 H 0.84381 0.82345 0.9344 0.0
H1006 H 0.8151 0.81955 0.90792 0.0
H1007 H 0.78308 0.83391 0.93086 0.0
C1008 C 0.65281 0.63288 0.49441 0.0
C1009 C 0.69954 0.62477 0.49976 0.0
C1010 C 0.6364 0.63219 0.47246 0.0
C1011 C 0.66721 0.62272 0.45563 0.0
C1012 C 0.7147 0.6151 0.46094 0.0
C1013 C 0.73024 0.61628 0.48287 0.0
C1014 C 0.58578 0.64085 0.46741 0.0
C1015 C 0.74867 0.60462 0.44358 0.0
C1016 C 0.62443 0.58622 0.40455 0.0
C1017 C 0.63639 0.6051 0.38795 0.0
C1018 C 0.63063 0.59253 0.42687 0.0
C1019 C 0.64937 0.61839 0.43275 0.0
C1020 C 0.65762 0.63835 0.41615 0.0
C1021 C 0.65099 0.63145 0.39385 0.0
C1022 C 0.6208 0.57071 0.44398 0.0
C1023 C 0.67687 0.66628 0.42179 0.0
H1024 H 0.62905 0.63965 0.50739 0.0
H1025 H 0.76612 0.60957 0.48692 0.0
H1026 H 0.58536 0.65471 0.4529 0.0
H1027 H 0.56357 0.62271 0.46322 0.0
H1028 H 0.56885 0.65123 0.48161 0.0
H1029 H 0.7851 0.60075 0.45026 0.0
H1030 H 0.73419 0.58535 0.43665 0.0
H1031 H 0.75198 0.61947 0.4298 0.0
H1032 H 0.61229 0.56597 0.39998 0.0
H1033 H 0.66011 0.64611 0.38104 0.0
H1034 H 0.59973 0.57898 0.4579 0.0
H1035 H 0.65536 0.56344 0.45078 0.0
H1036 H 0.60092 0.55301 0.43702 0.0
H1037 H 0.65781 0.67459 0.4363 0.0
H1038 H 0.67341 0.68075 0.40775 0.0
H1039 H 0.71544 0.66486 0.42616 0.0
C1040 C 0.38534 0.62669 0.01135 0.0
C1041 C 0.34109 0.63255 1.00136 0.0
C1042 C 0.39259 0.63069 0.03399 0.0
C1043 C 0.35539 0.64183 0.04687 0.0
C1044 C 0.31046 0.64741 0.03708 0.0
C1045 C 0.30359 0.64223 0.01458 0.0
C1046 C 0.44049 0.62357 0.04401 0.0
C1047 C 0.27012 0.65973 0.0502 0.0
C1048 C 0.35749 0.63841 0.10945 0.0
C1049 C 0.3783 0.66374 0.11494 0.0
C1050 C 0.35143 0.63059 0.08739 0.0
C1051 C 0.36423 0.64901 0.07031 0.0
C1052 C 0.38479 0.67461 0.07559 0.0
C1053 C 0.3926 0.68138 0.09775 0.0
C1054 C 0.33111 0.60266 0.08238 0.0
C1055 C 0.39795 0.69509 0.05784 0.0
H1056 H 0.41503 0.61964 1.00144 0.0
H1057 H 0.26883 0.64615 0.00731 0.0
H1058 H 0.46002 0.64244 0.04875 0.0
H1059 H 0.43517 0.61122 0.05922 0.0
H1060 H 0.46341 0.61206 0.03241 0.0
H1061 H 0.23728 0.66274 0.04014 0.0
H1062 H 0.26076 0.64652 0.06449 0.0
H1063 H 0.28191 0.67972 0.05683 0.0
H1064 H 0.34515 0.62466 0.12232 0.0
H1065 H 0.40999 0.70062 0.10149 0.0
H1066 H 0.35447 0.59213 0.07039 0.0
H1067 H 0.29518 0.60452 0.07471 0.0
H1068 H 0.32754 0.58977 0.09742 0.0
H1069 H 0.42583 0.68665 0.04684 0.0
H1070 H 0.41171 0.71456 0.06474 0.0
H1071 H 0.36604 0.69942 0.04751 0.0
C1072 C 0.13087 0.86928 0.50994 0.0
C1073 C 0.18011 0.86986 0.50496 0.0
C1074 C 0.11471 0.86521 0.53174 0.0
C1075 C 0.14867 0.86173 0.54887 0.0
C1076 C 0.19839 0.8633 0.54397 0.0
C1077 C 0.21343 0.86731 0.52212 0.0
C1078 C 0.06145 0.86376 0.53631 0.0
C1079 C 0.2359 0.85996 0.56173 0.0
C1080 C 0.12617 0.86633 0.61046 0.0
C1081 C 0.12741 0.83876 0.61647 0.0
C1082 C 0.12877 0.87427 0.58814 0.0
C1083 C 0.13316 0.85415 0.57163 0.0
C1084 C 0.12997 0.8263 0.57758 0.0
C1085 C 0.12672 0.81898 0.59989 0.0
C1086 C 0.13072 0.90418 0.58242 0.0
C1087 C 0.13436 0.80412 0.56058 0.0
H1088 H 0.10498 0.8713 0.49672 0.0
H1089 H 0.25153 0.86841 0.51843 0.0
H1090 H 0.05084 0.84249 0.54041 0.0
H1091 H 0.05226 0.87648 0.55073 0.0
H1092 H 0.03998 0.87053 0.52191 0.0
H1093 H 0.27301 0.86294 0.55532 0.0
H1094 H 0.22988 0.87477 0.57515 0.0
H1095 H 0.23289 0.83927 0.56907 0.0
H1096 H 0.1265 0.88171 0.6232 0.0
H1097 H 0.12657 0.79762 0.60446 0.0
H1098 H 0.10912 0.90847 0.56747 0.0
H1099 H 0.16841 0.91032 0.57879 0.0
H1100 H 0.11743 0.91688 0.59619 0.0
H1101 H 0.11044 0.8081 0.54636 0.0
H1102 H 0.12541 0.7837 0.56752 0.0
H1103 H 0.17178 0.8038 0.55425 0.0
C1104 C 0.21188 0.2504 0.35691 0.0
C1105 C 0.19987 0.27773 0.36011 0.0
C1106 C 0.18266 0.23311 0.34427 0.0
C1107 C 0.14044 0.24341 0.33452 0.0
C1108 C 0.12701 0.27065 0.33843 0.0
C1109 C 0.15689 0.28752 0.35124 0.0
C1110 C 0.19786 0.20406 0.34074 0.0
C1111 C 0.08218 0.2823 0.3283 0.0
C1112 C 0.09973 0.20784 0.28232 0.0
C1113 C 0.06334 0.19052 0.29025 0.0
C1114 C 0.12451 0.22555 0.29648 0.0
C1115 C 0.11218 0.22607 0.31914 0.0
C1116 C 0.07438 0.20921 0.32716 0.0
C1117 C 0.05039 0.19166 0.3126 0.0
C1118 C 0.16452 0.2433 0.28727 0.0
C1119 C 0.06015 0.20913 0.35119 0.0
H1120 H 0.24467 0.24264 0.36406 0.0
H1121 H 0.1476 0.30865 0.35358 0.0
H1122 H 0.16803 0.18981 0.34505 0.0
H1123 H 0.20651 0.20094 0.32307 0.0
H1124 H 0.22982 0.19869 0.35072 0.0
H1125 H 0.07476 0.30313 0.33433 0.0
H1126 H 0.08617 0.28312 0.3101 0.0
H1127 H 0.05066 0.26901 0.33202 0.0
H1128 H 0.10848 0.20777 0.26502 0.0
H1129 H 0.02222 0.17827 0.31889 0.0
H1130 H 0.19928 0.23703 0.2945 0.0
H1131 H 0.15889 0.26485 0.29182 0.0
H1132 H 0.16724 0.24197 0.26904 0.0
H1133 H 0.09039 0.20164 0.36136 0.0
H1134 H 0.02809 0.19602 0.35449 0.0
H1135 H 0.05236 0.23011 0.35668 0.0
C1136 C 0.31965 0.21125 0.84273 0.0
C1137 C 0.34597 0.20141 0.86077 0.0
C1138 C 0.33818 0.23204 0.82906 0.0
C1139 C 0.38368 0.24371 0.83382 0.0
C1140 C 0.40972 0.2346 0.85241 0.0
C1141 C 0.39083 0.2134 0.86551 0.0
C1142 C 0.3097 0.24098 0.80917 0.0
C1143 C 0.45806 0.24687 0.85822 0.0
C1144 C 0.4589 0.27732 0.78881 0.0
C1145 C 0.44877 0.30478 0.79206 0.0
C1146 C 0.4365 0.25713 0.80179 0.0
C1147 C 0.40494 0.26481 0.81896 0.0
C1148 C 0.39484 0.29266 0.82228 0.0
C1149 C 0.41614 0.31231 0.80841 0.0
C1150 C 0.44669 0.22761 0.79718 0.0
C1151 C 0.3627 0.30174 0.84083 0.0
H1152 H 0.28463 0.20252 0.83911 0.0
H1153 H 0.41199 0.20572 0.87911 0.0
H1154 H 0.30278 0.26312 0.80994 0.0
H1155 H 0.33074 0.2374 0.79392 0.0
H1156 H 0.27473 0.22998 0.80784 0.0
H1157 H 0.47198 0.23899 0.87415 0.0
H1158 H 0.4845 0.24227 0.8451 0.0
H1159 H 0.45556 0.26935 0.85924 0.0
H1160 H 0.48365 0.27166 0.77584 0.0
H1161 H 0.40851 0.33367 0.81078 0.0
H1162 H 0.41249 0.21615 0.79484 0.0
H1163 H 0.46532 0.21836 0.81148 0.0
H1164 H 0.46939 0.22504 0.78227 0.0
H1165 H 0.32664 0.29211 0.83931 0.0
H1166 H 0.35852 0.32419 0.84111 0.0
H1167 H 0.37787 0.29508 0.85687 0.0
C1168 C 0.69289 0.23482 0.64687 0.0
C1169 C 0.68403 0.20677 0.64867 0.0
C1170 C 0.66745 0.25335 0.65981 0.0
C1171 C 0.6315 0.2436 0.67452 0.0
C1172 C 0.62089 0.21535 0.67563 0.0
C1173 C 0.64783 0.19721 0.66292 0.0
C1174 C 0.68065 0.28322 0.65849 0.0
C1175 C 0.58192 0.20423 0.69063 0.0
C1176 C 0.60514 0.28608 0.72513 0.0
C1177 C 0.56608 0.30165 0.71809 0.0
C1178 C 0.62682 0.26726 0.71108 0.0
C1179 C 0.60752 0.2628 0.6898 0.0
C1180 C 0.5665 0.27732 0.68299 0.0
C1181 C 0.5468 0.2969 0.69704 0.0
C1182 C 0.67123 0.25269 0.71881 0.0
C1183 C 0.54373 0.2724 0.66077 0.0
H1184 H 0.72128 0.24217 0.63602 0.0
H1185 H 0.6409 0.1755 0.66422 0.0
H1186 H 0.64841 0.29543 0.65479 0.0
H1187 H 0.69469 0.2901 0.67467 0.0
H1188 H 0.70829 0.28759 0.64567 0.0
H1189 H 0.57441 0.1823 0.68768 0.0
H1190 H 0.59284 0.20676 0.70808 0.0
H1191 H 0.54825 0.21571 0.68825 0.0
H1192 H 0.61959 0.2889 0.74153 0.0
H1193 H 0.51616 0.30845 0.69149 0.0
H1194 H 0.70135 0.2568 0.7072 0.0
H1195 H 0.66462 0.2304 0.71899 0.0
H1196 H 0.68255 0.25906 0.73559 0.0
H1197 H 0.56877 0.27903 0.64749 0.0
H1198 H 0.50951 0.28353 0.65878 0.0
H1199 H 0.5365 0.25034 0.65849 0.0
C1200 C 0.82547 0.27846 0.15212 0.0
C1201 C 0.8547 0.30127 0.1475 0.0
C1202 C 0.84197 0.25713 0.16555 0.0
C1203 C 0.88876 0.25866 0.17464 0.0
C1204 C 0.91837 0.28165 0.17007 0.0
C1205 C 0.901 0.30264 0.15659 0.0
C1206 C 0.80944 0.23286 0.16992 0.0
C1207 C 0.96843 0.28411 0.17948 0.0
C1208 C 0.91938 0.21593 0.22516 0.0
C1209 C 0.94493 0.19445 0.21578 0.0
C1210 C 0.90036 0.23677 0.21195 0.0
C1211 C 0.90707 0.23618 0.1888 0.0
C1212 C 0.93247 0.21447 0.17921 0.0
C1213 C 0.95104 0.19392 0.19278 0.0
C1214 C 0.87348 0.25959 0.22278 0.0
C1215 C 0.94041 0.21306 0.1546 0.0
H1216 H 0.78987 0.27712 0.14498 0.0
H1217 H 0.92354 0.32037 0.15341 0.0
H1218 H 0.82659 0.21409 0.16383 0.0
H1219 H 0.80379 0.23022 0.18792 0.0
H1220 H 0.77388 0.23491 0.16183 0.0
H1221 H 0.98692 0.30328 0.17433 0.0
H1222 H 0.96685 0.28339 0.19776 0.0
H1223 H 0.99038 0.26668 0.17407 0.0
H1224 H 0.91444 0.2166 0.24288 0.0
H1225 H 0.97047 0.1774 0.18526 0.0
H1226 H 0.83692 0.2611 0.21567 0.0
H1227 H 0.89224 0.27925 0.21949 0.0
H1228 H 0.87021 0.25672 0.24091 0.0
H1229 H 0.90542 0.21339 0.14588 0.0
H1230 H 0.95988 0.19446 0.14968 0.0
H1231 H 0.96141 0.23113 0.14894 0.0
C1232 C 0.83009 0.70108 0.67198 0.0
C1233 C 0.8355 0.70248 0.649 0.0
C1234 C 0.84726 0.72209 0.68551 0.0
C1235 C 0.87095 0.74485 0.67583 0.0
C1236 C 0.87541 0.74671 0.6526 0.0
C1237 C 0.85736 0.72554 0.63944 0.0
C1238 C 0.8412 0.7196 0.7102 0.0
C1239 C 0.90079 0.77059 0.64172 0.0
C1240 C 0.88983 0.80876 0.70984 0.0
C1241 C 0.93652 0.80509 0.71783 0.0
C1242 C 0.86774 0.78924 0.69631 0.0
C1243 C 0.89358 0.76589 0.69009 0.0
C1244 C 0.94127 0.76246 0.69758 0.0
C1245 C 0.96203 0.782 0.71147 0.0
C1246 C 0.8166 0.79344 0.68891 0.0
C1247 C 0.97032 0.73805 0.69101 0.0
H1248 H 0.81271 0.68338 0.67937 0.0
H1249 H 0.86193 0.72655 0.62169 0.0
H1250 H 0.87692 0.71786 0.71813 0.0
H1251 H 0.82417 0.73813 0.71685 0.0
H1252 H 0.81899 0.70158 0.715 0.0
H1253 H 0.8991 0.76965 0.62344 0.0
H1254 H 0.88468 0.78996 0.64718 0.0
H1255 H 0.93907 0.77107 0.64678 0.0
H1256 H 0.87051 0.82696 0.71408 0.0
H1257 H 0.99828 0.77907 0.71745 0.0
H1258 H 0.79322 0.77707 0.69589 0.0
H1259 H 0.81411 0.79214 0.67069 0.0
H1260 H 0.80242 0.81339 0.69421 0.0
H1261 H 0.95243 0.71913 0.69707 0.0
H1262 H 0.00743 0.73887 0.6977 0.0
H1263 H 0.97238 0.73672 0.67278 0.0
C1264 C 0.66316 0.79198 0.17158 0.0
C1265 C 0.66414 0.78936 0.14856 0.0
C1266 C 0.63709 0.77347 0.18483 0.0
C1267 C 0.61099 0.75198 0.17479 0.0
C1268 C 0.61022 0.74989 0.15151 0.0
C1269 C 0.6371 0.7685 0.13867 0.0
C1270 C 0.63927 0.7762 0.2096 0.0
C1271 C 0.58233 0.72744 0.1402 0.0
C1272 C 0.59222 0.68712 0.20812 0.0
C1273 C 0.54523 0.69006 0.216 0.0
C1274 C 0.614 0.70718 0.19483 0.0
C1275 C 0.5877 0.73049 0.18871 0.0
C1276 C 0.53967 0.73322 0.19603 0.0
C1277 C 0.51908 0.71303 0.20971 0.0
C1278 C 0.66539 0.7035 0.18751 0.0
C1279 C 0.51023 0.75757 0.18959 0.0
H1280 H 0.68447 0.80786 0.17933 0.0
H1281 H 0.63746 0.76655 0.12087 0.0
H1282 H 0.60252 0.77616 0.21669 0.0
H1283 H 0.65819 0.7585 0.21676 0.0
H1284 H 0.65834 0.7951 0.21477 0.0
H1285 H 0.58196 0.73002 0.12199 0.0
H1286 H 0.59856 0.70751 0.1442 0.0
H1287 H 0.54472 0.72674 0.14628 0.0
H1288 H 0.61208 0.66901 0.21224 0.0
H1289 H 0.48261 0.71538 0.21563 0.0
H1290 H 0.68814 0.72029 0.19406 0.0
H1291 H 0.66783 0.70441 0.16926 0.0
H1292 H 0.6804 0.68386 0.19325 0.0
H1293 H 0.52706 0.77636 0.19627 0.0
H1294 H 0.47271 0.756 0.19579 0.0
H1295 H 0.50938 0.75977 0.17138 0.0
C1296 C 0.30759 0.775 0.35522 0.0
C1297 C 0.33292 0.79992 0.35606 0.0
C1298 C 0.32218 0.75397 0.34118 0.0
C1299 C 0.36429 0.7574 0.32829 0.0
C1300 C 0.38996 0.7824 0.32893 0.0
C1301 C 0.37338 0.80349 0.34235 0.0
C1302 C 0.29286 0.72794 0.34037 0.0
C1303 C 0.43581 0.78666 0.31592 0.0
C1304 C 0.43132 0.69359 0.31249 0.0
C1305 C 0.42346 0.69223 0.28964 0.0
C1306 C 0.41288 0.71486 0.32513 0.0
C1307 C 0.38306 0.73439 0.31503 0.0
C1308 C 0.37285 0.73243 0.29221 0.0
C1309 C 0.39445 0.71194 0.27966 0.0
C1310 C 0.42666 0.71687 0.34915 0.0
C1311 C 0.33944 0.75209 0.28101 0.0
H1312 H 0.27675 0.77156 0.36581 0.0
H1313 H 0.39258 0.82278 0.3421 0.0
H1314 H 0.28539 0.72229 0.323 0.0
H1315 H 0.31339 0.71109 0.3479 0.0
H1316 H 0.25818 0.72967 0.34931 0.0
H1317 H 0.45252 0.80696 0.31887 0.0
H1318 H 0.46211 0.77078 0.32041 0.0
H1319 H 0.42854 0.78468 0.29804 0.0
H1320 H 0.45329 0.67844 0.32053 0.0
H1321 H 0.38876 0.71155 0.262 0.0
H1322 H 0.39415 0.71542 0.35969 0.0
H1323 H 0.44394 0.73694 0.35234 0.0
H1324 H 0.45183 0.70066 0.35426 0.0
H1325 H 0.30599 0.75426 0.2908 0.0
H1326 H 0.32972 0.74544 0.2641 0.0
H1327 H 0.3568 0.77247 0.27987 0.0
C1328 C 0.1462 0.70789 0.85895 0.0
C1329 C 0.19603 0.70728 0.85551 0.0
C1330 C 0.11722 0.72592 0.84699 0.0
C1331 C 0.13864 0.74375 0.83128 0.0
C1332 C 0.18882 0.74308 0.82764 0.0
C1333 C 0.21683 0.72483 0.83975 0.0
C1334 C 0.06377 0.72602 0.85122 0.0
C1335 C 0.21308 0.76186 0.81114 0.0
C1336 C 0.06585 0.7755 0.78518 0.0
C1337 C 0.05867 0.80174 0.7933 0.0
C1338 C 0.09027 0.75604 0.79776 0.0
C1339 C 0.10884 0.76331 0.81867 0.0
C1340 C 0.10111 0.78975 0.82701 0.0
C1341 C 0.07556 0.80858 0.8143 0.0
C1342 C 0.09715 0.72794 0.78846 0.0
C1343 C 0.12112 0.79844 0.84903 0.0
H1344 H 0.12993 0.69453 0.87121 0.0
H1345 H 0.25517 0.72415 0.83671 0.0
H1346 H 0.0529 0.74631 0.85724 0.0
H1347 H 0.04402 0.72224 0.83563 0.0
H1348 H 0.05252 0.71041 0.86357 0.0
H1349 H 0.252 0.75767 0.80934 0.0
H1350 H 0.19581 0.75993 0.79474 0.0
H1351 H 0.209 0.78325 0.81648 0.0
H1352 H 0.0524 0.77023 0.76896 0.0
H1353 H 0.07032 0.82901 0.82044 0.0
H1354 H 0.08445 0.71229 0.80047 0.0
H1355 H 0.13592 0.72444 0.78555 0.0
H1356 H 0.07762 0.72498 0.77268 0.0
H1357 H 0.10886 0.78417 0.86217 0.0
H1358 H 0.11023 0.81936 0.85352 0.0
H1359 H 0.16093 0.79777 0.84857 0.0
loop_
_geom_bond_atom_site_label_1
_geom_bond_atom_site_label_2
_geom_bond_distance
_geom_bond_site_symmetry_2
_ccdc_geom_bond_type
P0 O11 1.490 . S
P0 C14 1.812 . S
P0 C20 1.803 . S
P0 C26 1.819 . S
H1 C15 0.941 . S
H2 C16 0.939 . S
H3 C18 0.940 . S
H4 C19 0.940 . S
H5 C21 0.939 . S
H6 C22 0.942 . S
H7 C24 0.940 . S
H8 C25 0.939 . S
H9 C27 0.941 . S
H10 C31 0.939 . S
O11 P0 1.490 . S
H12 C28 0.939 . S
H13 C30 0.940 . S
C14 P0 1.812 . S
C14 C15 1.389 . S
C14 C19 1.391 . S
C15 H1 0.941 . S
C15 C14 1.389 . S
C15 C16 1.397 . S
C16 H2 0.939 . S
C16 C15 1.397 . S
C16 C17 1.378 . S
C17 C16 1.378 . S
C17 C18 1.378 . S
C18 H3 0.940 . S
C18 C17 1.378 . S
C18 C19 1.396 . S
C19 H4 0.940 . S
C19 C14 1.391 . S
C19 C18 1.396 . S
C20 P0 1.803 . S
C20 C21 1.378 . S
C20 C25 1.400 . S
C21 H5 0.939 . S
C21 C20 1.378 . S
C21 C22 1.361 . S
C22 H6 0.942 . S
C22 C21 1.361 . S
C22 C23 1.369 . S
C23 C22 1.369 . S
C23 C24 1.404 . S
C24 H7 0.940 . S
C24 C23 1.404 . S
C24 C25 1.389 . S
C25 H8 0.939 . S
C25 C20 1.400 . S
C25 C24 1.389 . S
C26 P0 1.819 . S
C26 C27 1.391 . S
C26 C31 1.391 . S
C27 H9 0.941 . S
C27 C26 1.391 . S
C27 C28 1.396 . S
C28 H12 0.939 . S
C28 C27 1.396 . S
C28 C29 1.397 . S
C29 C28 1.397 . S
C29 C30 1.385 . S
C30 H13 0.940 . S
C30 C29 1.385 . S
C30 C31 1.388 . S
C31 H10 0.939 . S
C31 C26 1.391 . S
C31 C30 1.388 . S
P32 O43 1.490 . S
P32 C46 1.812 . S
P32 C52 1.803 . S
P32 C58 1.819 . S
H33 C47 0.941 . S
H34 C48 0.939 . S
H35 C50 0.940 . S
H36 C51 0.940 . S
H37 C53 0.939 . S
H38 C54 0.942 . S
H39 C56 0.940 . S
H40 C57 0.939 . S
H41 C59 0.941 . S
H42 C63 0.939 . S
O43 P32 1.490 . S
H44 C60 0.939 . S
H45 C62 0.940 . S
C46 P32 1.812 . S
C46 C47 1.389 . S
C46 C51 1.391 . S
C47 H33 0.941 . S
C47 C46 1.389 . S
C47 C48 1.397 . S
C48 H34 0.939 . S
C48 C47 1.397 . S
C48 C49 1.378 . S
C49 C48 1.378 . S
C49 C50 1.378 . S
C50 H35 0.940 . S
C50 C49 1.378 . S
C50 C51 1.396 . S
C51 H36 0.940 . S
C51 C46 1.391 . S
C51 C50 1.396 . S
C52 P32 1.803 . S
C52 C53 1.378 . S
C52 C57 1.400 . S
C53 H37 0.939 . S
C53 C52 1.378 . S
C53 C54 1.361 . S
C54 H38 0.942 . S
C54 C53 1.361 . S
C54 C55 1.369 . S
C55 C54 1.369 . S
C55 C56 1.404 . S
C56 H39 0.940 . S
C56 C55 1.404 . S
C56 C57 1.389 . S
C57 H40 0.939 . S
C57 C52 1.400 . S
C57 C56 1.389 . S
C58 P32 1.819 . S
C58 C59 1.391 . S
C58 C63 1.391 . S
C59 H41 0.941 . S
C59 C58 1.391 . S
C59 C60 1.396 . S
C60 H44 0.939 . S
C60 C59 1.396 . S
C60 C61 1.397 . S
C61 C60 1.397 . S
C61 C62 1.385 . S
C62 H45 0.940 . S
C62 C61 1.385 . S
C62 C63 1.388 . S
C63 H42 0.939 . S
C63 C58 1.391 . S
C63 C62 1.388 . S
P64 O75 1.490 . S
P64 C78 1.812 . S
P64 C84 1.803 . S
P64 C90 1.819 . S
H65 C79 0.941 . S
H66 C80 0.939 . S
H67 C82 0.940 . S
H68 C83 0.940 . S
H69 C85 0.939 . S
H70 C86 0.942 . S
H71 C88 0.940 . S
H72 C89 0.939 . S
H73 C91 0.941 . S
H74 C95 0.939 . S
O75 P64 1.490 . S
H76 C92 0.939 . S
H77 C94 0.940 . S
C78 P64 1.812 . S
C78 C79 1.389 . S
C78 C83 1.391 . S
C79 H65 0.941 . S
C79 C78 1.389 . S
C79 C80 1.397 . S
C80 H66 0.939 . S
C80 C79 1.397 . S
C80 C81 1.378 . S
C81 C80 1.378 . S
C81 C82 1.378 . S
C82 H67 0.940 . S
C82 C81 1.378 . S
C82 C83 1.396 . S
C83 H68 0.940 . S
C83 C78 1.391 . S
C83 C82 1.396 . S
C84 P64 1.803 . S
C84 C85 1.378 . S
C84 C89 1.400 . S
C85 H69 0.939 . S
C85 C84 1.378 . S
C85 C86 1.361 . S
C86 H70 0.942 . S
C86 C85 1.361 . S
C86 C87 1.369 . S
C87 C86 1.369 . S
C87 C88 1.404 . S
C88 H71 0.940 . S
C88 C87 1.404 . S
C88 C89 1.389 . S
C89 H72 0.939 . S
C89 C84 1.400 . S
C89 C88 1.389 . S
C90 P64 1.819 . S
C90 C91 1.391 . S
C90 C95 1.391 . S
C91 H73 0.941 . S
C91 C90 1.391 . S
C91 C92 1.396 . S
C92 H76 0.939 . S
C92 C91 1.396 . S
C92 C93 1.397 . S
C93 C92 1.397 . S
C93 C94 1.385 . S
C94 H77 0.940 . S
C94 C93 1.385 . S
C94 C95 1.388 . S
C95 H74 0.939 . S
C95 C90 1.391 . S
C95 C94 1.388 . S
P96 O107 1.490 . S
P96 C110 1.812 . S
P96 C116 1.803 . S
P96 C122 1.819 . S
H97 C111 0.941 . S
H98 C112 0.939 . S
H99 C114 0.940 . S
H100 C115 0.940 . S
H101 C117 0.939 . S
H102 C118 0.942 . S
H103 C120 0.940 . S
H104 C121 0.939 . S
H105 C123 0.941 . S
H106 C127 0.939 . S
O107 P96 1.490 . S
H108 C124 0.939 . S
H109 C126 0.940 . S
C110 P96 1.812 . S
C110 C111 1.389 . S
C110 C115 1.391 . S
C111 H97 0.941 . S
C111 C110 1.389 . S
C111 C112 1.397 . S
C112 H98 0.939 . S
C112 C111 1.397 . S
C112 C113 1.378 . S
C113 C112 1.378 . S
C113 C114 1.378 . S
C114 H99 0.940 . S
C114 C113 1.378 . S
C114 C115 1.396 . S
C115 H100 0.940 . S
C115 C110 1.391 . S
C115 C114 1.396 . S
C116 P96 1.803 . S
C116 C117 1.378 . S
C116 C121 1.400 . S
C117 H101 0.939 . S
C117 C116 1.378 . S
C117 C118 1.361 . S
C118 H102 0.942 . S
C118 C117 1.361 . S
C118 C119 1.369 . S
C119 C118 1.369 . S
C119 C120 1.404 . S
C120 H103 0.940 . S
C120 C119 1.404 . S
C120 C121 1.389 . S
C121 H104 0.939 . S
C121 C116 1.400 . S
C121 C120 1.389 . S
C122 P96 1.819 . S
C122 C123 1.391 . S
C122 C127 1.391 . S
C123 H105 0.941 . S
C123 C122 1.391 . S
C123 C124 1.396 . S
C124 H108 0.939 . S
C124 C123 1.396 . S
C124 C125 1.397 . S
C125 C124 1.397 . S
C125 C126 1.385 . S
C126 H109 0.940 . S
C126 C125 1.385 . S
C126 C127 1.388 . S
C127 H106 0.939 . S
C127 C122 1.391 . S
C127 C126 1.388 . S
P128 O139 1.490 . S
P128 C142 1.812 . S
P128 C148 1.803 . S
P128 C154 1.819 . S
H129 C143 0.941 . S
H130 C144 0.939 . S
H131 C146 0.940 . S
H132 C147 0.940 . S
H133 C149 0.939 . S
H134 C150 0.942 . S
H135 C152 0.940 . S
H136 C153 0.939 . S
H137 C155 0.941 . S
H138 C159 0.939 . S
O139 P128 1.490 . S
H140 C156 0.939 . S
H141 C158 0.940 . S
C142 P128 1.812 . S
C142 C143 1.389 . S
C142 C147 1.391 . S
C143 H129 0.941 . S
C143 C142 1.389 . S
C143 C144 1.397 . S
C144 H130 0.939 . S
C144 C143 1.397 . S
C144 C145 1.378 . S
C145 C144 1.378 . S
C145 C146 1.378 . S
C146 H131 0.940 . S
C146 C145 1.378 . S
C146 C147 1.396 . S
C147 H132 0.940 . S
C147 C142 1.391 . S
C147 C146 1.396 . S
C148 P128 1.803 . S
C148 C149 1.378 . S
C148 C153 1.400 . S
C149 H133 0.939 . S
C149 C148 1.378 . S
C149 C150 1.361 . S
C150 H134 0.942 . S
C150 C149 1.361 . S
C150 C151 1.369 . S
C151 C150 1.369 . S
C151 C152 1.404 . S
C152 H135 0.940 . S
C152 C151 1.404 . S
C152 C153 1.389 . S
C153 H136 0.939 . S
C153 C148 1.400 . S
C153 C152 1.389 . S
C154 P128 1.819 . S
C154 C155 1.391 . S
C154 C159 1.391 . S
C155 H137 0.941 . S
C155 C154 1.391 . S
C155 C156 1.396 . S
C156 H140 0.939 . S
C156 C155 1.396 . S
C156 C157 1.397 . S
C157 C156 1.397 . S
C157 C158 1.385 . S
C158 H141 0.940 . S
C158 C157 1.385 . S
C158 C159 1.388 . S
C159 H138 0.939 . S
C159 C154 1.391 . S
C159 C158 1.388 . S
P160 O171 1.490 . S
P160 C174 1.812 . S
P160 C180 1.803 . S
P160 C186 1.819 . S
H161 C175 0.941 . S
H162 C176 0.939 . S
H163 C178 0.940 . S
H164 C179 0.940 . S
H165 C181 0.939 . S
H166 C182 0.942 . S
H167 C184 0.940 . S
H168 C185 0.939 . S
H169 C187 0.941 . S
H170 C191 0.939 . S
O171 P160 1.490 . S
H172 C188 0.939 . S
H173 C190 0.940 . S
C174 P160 1.812 . S
C174 C175 1.389 . S
C174 C179 1.391 . S
C175 H161 0.941 . S
C175 C174 1.389 . S
C175 C176 1.397 . S
C176 H162 0.939 . S
C176 C175 1.397 . S
C176 C177 1.378 . S
C177 C176 1.378 . S
C177 C178 1.378 . S
C178 H163 0.940 . S
C178 C177 1.378 . S
C178 C179 1.396 . S
C179 H164 0.940 . S
C179 C174 1.391 . S
C179 C178 1.396 . S
C180 P160 1.803 . S
C180 C181 1.378 . S
C180 C185 1.400 . S
C181 H165 0.939 . S
C181 C180 1.378 . S
C181 C182 1.361 . S
C182 H166 0.942 . S
C182 C181 1.361 . S
C182 C183 1.369 . S
C183 C182 1.369 . S
C183 C184 1.404 . S
C184 H167 0.940 . S
C184 C183 1.404 . S
C184 C185 1.389 . S
C185 H168 0.939 . S
C185 C180 1.400 . S
C185 C184 1.389 . S
C186 P160 1.819 . S
C186 C187 1.391 . S
C186 C191 1.391 . S
C187 H169 0.941 . S
C187 C186 1.391 . S
C187 C188 1.396 . S
C188 H172 0.939 . S
C188 C187 1.396 . S
C188 C189 1.397 . S
C189 C188 1.397 . S
C189 C190 1.385 . S
C190 H173 0.940 . S
C190 C189 1.385 . S
C190 C191 1.388 . S
C191 H170 0.939 . S
C191 C186 1.391 . S
C191 C190 1.388 . S
P192 O203 1.490 . S
P192 C206 1.812 . S
P192 C212 1.803 . S
P192 C218 1.819 . S
H193 C207 0.941 . S
H194 C208 0.939 . S
H195 C210 0.940 . S
H196 C211 0.940 . S
H197 C213 0.939 . S
H198 C214 0.942 . S
H199 C216 0.940 . S
H200 C217 0.939 . S
H201 C219 0.941 . S
H202 C223 0.939 . S
O203 P192 1.490 . S
H204 C220 0.939 . S
H205 C222 0.940 . S
C206 P192 1.812 . S
C206 C207 1.389 . S
C206 C211 1.391 . S
C207 H193 0.941 . S
C207 C206 1.389 . S
C207 C208 1.397 . S
C208 H194 0.939 . S
C208 C207 1.397 . S
C208 C209 1.378 . S
C209 C208 1.378 . S
C209 C210 1.378 . S
C210 H195 0.940 . S
C210 C209 1.378 . S
C210 C211 1.396 . S
C211 H196 0.940 . S
C211 C206 1.391 . S
C211 C210 1.396 . S
C212 P192 1.803 . S
C212 C213 1.378 . S
C212 C217 1.400 . S
C213 H197 0.939 . S
C213 C212 1.378 . S
C213 C214 1.361 . S
C214 H198 0.942 . S
C214 C213 1.361 . S
C214 C215 1.369 . S
C215 C214 1.369 . S
C215 C216 1.404 . S
C216 H199 0.940 . S
C216 C215 1.404 . S
C216 C217 1.389 . S
C217 H200 0.939 . S
C217 C212 1.400 . S
C217 C216 1.389 . S
C218 P192 1.819 . S
C218 C219 1.391 . S
C218 C223 1.391 . S
C219 H201 0.941 . S
C219 C218 1.391 . S
C219 C220 1.396 . S
C220 H204 0.939 . S
C220 C219 1.396 . S
C220 C221 1.397 . S
C221 C220 1.397 . S
C221 C222 1.385 . S
C222 H205 0.940 . S
C222 C221 1.385 . S
C222 C223 1.388 . S
C223 H202 0.939 . S
C223 C218 1.391 . S
C223 C222 1.388 . S
P224 O235 1.490 . S
P224 C238 1.812 . S
P224 C244 1.803 . S
P224 C250 1.819 . S
H225 C239 0.941 . S
H226 C240 0.939 . S
H227 C242 0.940 . S
H228 C243 0.940 . S
H229 C245 0.939 . S
H230 C246 0.942 . S
H231 C248 0.940 . S
H232 C249 0.939 . S
H233 C251 0.941 . S
H234 C255 0.939 . S
O235 P224 1.490 . S
H236 C252 0.939 . S
H237 C254 0.940 . S
C238 P224 1.812 . S
C238 C239 1.389 . S
C238 C243 1.391 . S
C239 H225 0.941 . S
C239 C238 1.389 . S
C239 C240 1.397 . S
C240 H226 0.939 . S
C240 C239 1.397 . S
C240 C241 1.378 . S
C241 C240 1.378 . S
C241 C242 1.378 . S
C242 H227 0.940 . S
C242 C241 1.378 . S
C242 C243 1.396 . S
C243 H228 0.940 . S
C243 C238 1.391 . S
C243 C242 1.396 . S
C244 P224 1.803 . S
C244 C245 1.378 . S
C244 C249 1.400 . S
C245 H229 0.939 . S
C245 C244 1.378 . S
C245 C246 1.361 . S
C246 H230 0.942 . S
C246 C245 1.361 . S
C246 C247 1.369 . S
C247 C246 1.369 . S
C247 C248 1.404 . S
C248 H231 0.940 . S
C248 C247 1.404 . S
C248 C249 1.389 . S
C249 H232 0.939 . S
C249 C244 1.400 . S
C249 C248 1.389 . S
C250 P224 1.819 . S
C250 C251 1.391 . S
C250 C255 1.391 . S
C251 H233 0.941 . S
C251 C250 1.391 . S
C251 C252 1.396 . S
C252 H236 0.939 . S
C252 C251 1.396 . S
C252 C253 1.397 . S
C253 C252 1.397 . S
C253 C254 1.385 . S
C254 H237 0.940 . S
C254 C253 1.385 . S
C254 C255 1.388 . S
C255 H234 0.939 . S
C255 C250 1.391 . S
C255 C254 1.388 . S
C256 C258 1.422 . S
C256 C260 1.415 . S
C256 N262 1.369 . S
C257 C258 1.421 . S
C257 C259 1.417 . S
C257 C269 1.422 . S
C258 C256 1.422 . S
C258 C257 1.421 . S
C258 N268 1.359 . S
C259 C257 1.417 . S
C259 C261 1.329 . S
C259 H278 0.930 . S
C260 C256 1.415 . S
C260 C261 1.437 . S
C260 C264 1.413 . S
C261 C259 1.329 . S
C261 C260 1.437 . S
C261 H283 0.929 . S
N262 C256 1.369 . S
N262 C263 1.338 . S
N262 Gd267 2.622 . S
C263 N262 1.338 . S
C263 C265 1.378 . S
C263 H275 0.929 . S
C264 C260 1.413 . S
C264 C265 1.348 . S
C264 H280 0.931 . S
C265 C263 1.378 . S
C265 C264 1.348 . S
C265 H281 0.930 . S
Gd266 N286 2.622 . S
Gd266 N293 2.570 . S
Gd266 O300 2.353 . S
Gd266 O301 2.468 . S
Gd266 O302 2.427 . S
Gd266 O304 2.388 . S
Gd266 O305 2.386 . S
Gd266 O309 2.307 . S
Gd266 C319 2.805 . S
Gd267 N262 2.622 . S
Gd267 N268 2.570 . S
Gd267 O299 2.386 . S
Gd267 O303 2.307 1_655 S
Gd267 O306 2.353 1_655 S
Gd267 O307 2.468 . S
Gd267 O308 2.427 . S
Gd267 O310 2.388 . S
Gd267 C331 2.805 . S
N268 C258 1.359 . S
N268 Gd267 2.570 . S
N268 C270 1.343 . S
C269 C257 1.422 . S
C269 C271 1.321 . S
C269 H277 0.931 . S
C270 N268 1.343 . S
C270 C271 1.390 . S
C270 H272 0.931 . S
C271 C269 1.321 . S
C271 C270 1.390 . S
C271 H273 0.930 . S
H272 C270 0.931 . S
H273 C271 0.930 . S
H274 C297 0.931 . S
H275 C263 0.929 . S
H276 C298 0.930 . S
H277 C269 0.931 . S
H278 C259 0.930 . S
H279 C288 0.929 . S
H280 C264 0.931 . S
H281 C265 0.930 . S
H282 C320 0.930 . S
H283 C261 0.929 . S
H284 C289 0.931 . S
H285 C290 0.930 . S
N286 Gd266 2.622 . S
N286 C287 1.369 . S
N286 C288 1.338 . S
C287 N286 1.369 . S
C287 C291 1.415 . S
C287 C294 1.422 . S
C288 H279 0.929 . S
C288 N286 1.338 . S
C288 C290 1.378 . S
C289 H284 0.931 . S
C289 C290 1.348 . S
C289 C291 1.413 . S
C290 H285 0.930 . S
C290 C288 1.378 . S
C290 C289 1.348 . S
C291 C287 1.415 . S
C291 C289 1.413 . S
C291 C321 1.437 . S
H292 C321 0.929 . S
N293 Gd266 2.570 . S
N293 C294 1.359 . S
N293 C297 1.343 . S
C294 C287 1.422 . S
C294 N293 1.359 . S
C294 C296 1.421 . S
C295 C296 1.422 . S
C295 C298 1.321 . S
C295 H322 0.931 . S
C296 C294 1.421 . S
C296 C295 1.422 . S
C296 C320 1.417 . S
C297 H274 0.931 . S
C297 N293 1.343 . S
C297 C298 1.390 . S
C298 H276 0.930 . S
C298 C295 1.321 . S
C298 C297 1.390 . S
O299 Gd267 2.386 . S
O299 C311 1.265 . S
O300 Gd266 2.353 . S
O300 C311 1.242 1_455 S
O301 Gd266 2.468 . S
O301 C319 1.263 . S
O302 Gd266 2.427 . S
O302 C319 1.252 . S
O303 Gd267 2.307 1_455 S
O303 C312 1.261 . S
O304 Gd266 2.388 . S
O304 C312 1.252 . S
O305 Gd266 2.386 . S
O305 C323 1.265 . S
O306 Gd267 2.353 1_455 S
O306 C323 1.242 . S
O307 Gd267 2.468 . S
O307 C331 1.263 . S
O308 Gd267 2.427 . S
O308 C331 1.252 . S
O309 Gd266 2.307 . S
O309 C324 1.261 1_455 S
O310 Gd267 2.388 . S
O310 C324 1.252 . S
C311 O299 1.265 . S
C311 O300 1.242 1_655 S
C312 O303 1.261 . S
C312 O304 1.252 . S
C313 C316 1.394 . S
C313 C318 1.370 . S
C313 C319 1.500 . S
C314 C317 1.383 . S
C314 C318 1.395 . S
C315 C316 1.396 . S
C315 C317 1.365 . S
C315 H332 0.929 . S
C316 C313 1.394 . S
C316 C315 1.396 . S
C316 H333 0.930 . S
C317 C314 1.383 . S
C317 C315 1.365 . S
C317 H334 0.931 . S
C318 C313 1.370 . S
C318 C314 1.395 . S
C318 H335 0.930 . S
C319 Gd266 2.805 . S
C319 O301 1.263 . S
C319 O302 1.252 . S
C319 C313 1.500 . S
C320 H282 0.930 . S
C320 C296 1.417 . S
C320 C321 1.329 . S
C321 C291 1.437 . S
C321 H292 0.929 . S
C321 C320 1.329 . S
H322 C295 0.931 . S
C323 O305 1.265 . S
C323 O306 1.242 . S
C324 O309 1.261 1_655 S
C324 O310 1.252 . S
C325 C328 1.394 . S
C325 C330 1.370 . S
C325 C331 1.500 . S
C326 C329 1.383 . S
C326 C330 1.395 . S
C327 C328 1.396 . S
C327 C329 1.365 . S
C327 H336 0.929 . S
C328 C325 1.394 . S
C328 C327 1.396 . S
C328 H337 0.930 . S
C329 C326 1.383 . S
C329 C327 1.365 . S
C329 H338 0.931 . S
C330 C325 1.370 . S
C330 C326 1.395 . S
C330 H339 0.930 . S
C331 Gd267 2.805 . S
C331 O307 1.263 . S
C331 O308 1.252 . S
C331 C325 1.500 . S
H332 C315 0.929 . S
H333 C316 0.930 . S
H334 C317 0.931 . S
H335 C318 0.930 . S
H336 C327 0.929 . S
H337 C328 0.930 . S
H338 C329 0.931 . S
H339 C330 0.930 . S
C340 C342 1.422 . S
C340 C344 1.415 . S
C340 N346 1.369 . S
C341 C342 1.421 . S
C341 C343 1.417 . S
C341 C353 1.422 . S
C342 C340 1.422 . S
C342 C341 1.421 . S
C342 N352 1.359 . S
C343 C341 1.417 . S
C343 C345 1.329 . S
C343 H362 0.930 . S
C344 C340 1.415 . S
C344 C345 1.437 . S
C344 C348 1.413 . S
C345 C343 1.329 . S
C345 C344 1.437 . S
C345 H367 0.929 . S
N346 C340 1.369 . S
N346 C347 1.338 . S
N346 Gd351 2.622 . S
C347 N346 1.338 . S
C347 C349 1.378 . S
C347 H359 0.929 . S
C348 C344 1.413 . S
C348 C349 1.348 . S
C348 H364 0.931 . S
C349 C347 1.378 . S
C349 C348 1.348 . S
C349 H365 0.930 . S
Gd350 N370 2.622 . S
Gd350 N377 2.570 . S
Gd350 O384 2.353 . S
Gd350 O385 2.468 . S
Gd350 O386 2.427 . S
Gd350 O388 2.388 . S
Gd350 O389 2.386 . S
Gd350 O393 2.307 . S
Gd350 C403 2.805 . S
Gd351 N346 2.622 . S
Gd351 N352 2.570 . S
Gd351 O383 2.386 . S
Gd351 O387 2.307 . S
Gd351 O390 2.353 . S
Gd351 O391 2.468 . S
Gd351 O392 2.427 . S
Gd351 O394 2.388 . S
Gd351 C415 2.805 . S
N352 C342 1.359 . S
N352 Gd351 2.570 . S
N352 C354 1.343 . S
C353 C341 1.422 . S
C353 C355 1.321 . S
C353 H361 0.931 . S
C354 N352 1.343 . S
C354 C355 1.390 . S
C354 H356 0.931 . S
C355 C353 1.321 . S
C355 C354 1.390 . S
C355 H357 0.930 . S
H356 C354 0.931 . S
H357 C355 0.930 . S
H358 C381 0.931 . S
H359 C347 0.929 . S
H360 C382 0.930 . S
H361 C353 0.931 . S
H362 C343 0.930 . S
H363 C372 0.929 . S
H364 C348 0.931 . S
H365 C349 0.930 . S
H366 C404 0.930 . S
H367 C345 0.929 . S
H368 C373 0.931 . S
H369 C374 0.930 . S
N370 Gd350 2.622 . S
N370 C371 1.369 . S
N370 C372 1.338 . S
C371 N370 1.369 . S
C371 C375 1.415 . S
C371 C378 1.422 . S
C372 H363 0.929 . S
C372 N370 1.338 . S
C372 C374 1.378 . S
C373 H368 0.931 . S
C373 C374 1.348 . S
C373 C375 1.413 . S
C374 H369 0.930 . S
C374 C372 1.378 . S
C374 C373 1.348 . S
C375 C371 1.415 . S
C375 C373 1.413 . S
C375 C405 1.437 . S
H376 C405 0.929 . S
N377 Gd350 2.570 . S
N377 C378 1.359 . S
N377 C381 1.343 . S
C378 C371 1.422 . S
C378 N377 1.359 . S
C378 C380 1.421 . S
C379 C380 1.422 . S
C379 C382 1.321 . S
C379 H406 0.931 . S
C380 C378 1.421 . S
C380 C379 1.422 . S
C380 C404 1.417 . S
C381 H358 0.931 . S
C381 N377 1.343 . S
C381 C382 1.390 . S
C382 H360 0.930 . S
C382 C379 1.321 . S
C382 C381 1.390 . S
O383 Gd351 2.386 . S
O383 C395 1.265 . S
O384 Gd350 2.353 . S
O384 C395 1.242 . S
O385 Gd350 2.468 . S
O385 C403 1.263 . S
O386 Gd350 2.427 . S
O386 C403 1.252 . S
O387 Gd351 2.307 . S
O387 C396 1.261 . S
O388 Gd350 2.388 . S
O388 C396 1.252 . S
O389 Gd350 2.386 . S
O389 C407 1.265 . S
O390 Gd351 2.353 . S
O390 C407 1.242 . S
O391 Gd351 2.468 . S
O391 C415 1.263 . S
O392 Gd351 2.427 . S
O392 C415 1.252 . S
O393 Gd350 2.307 . S
O393 C408 1.261 . S
O394 Gd351 2.388 . S
O394 C408 1.252 . S
C395 O383 1.265 . S
C395 O384 1.242 . S
C396 O387 1.261 . S
C396 O388 1.252 . S
C397 C400 1.394 . S
C397 C402 1.370 . S
C397 C403 1.500 . S
C398 C401 1.383 . S
C398 C402 1.395 . S
C399 C400 1.396 . S
C399 C401 1.365 . S
C399 H416 0.929 . S
C400 C397 1.394 . S
C400 C399 1.396 . S
C400 H417 0.930 . S
C401 C398 1.383 . S
C401 C399 1.365 . S
C401 H418 0.931 . S
C402 C397 1.370 . S
C402 C398 1.395 . S
C402 H419 0.930 . S
C403 Gd350 2.805 . S
C403 O385 1.263 . S
C403 O386 1.252 . S
C403 C397 1.500 . S
C404 H366 0.930 . S
C404 C380 1.417 . S
C404 C405 1.329 . S
C405 C375 1.437 . S
C405 H376 0.929 . S
C405 C404 1.329 . S
H406 C379 0.931 . S
C407 O389 1.265 . S
C407 O390 1.242 . S
C408 O393 1.261 . S
C408 O394 1.252 . S
C409 C412 1.394 . S
C409 C414 1.370 . S
C409 C415 1.500 . S
C410 C413 1.383 . S
C410 C414 1.395 . S
C411 C412 1.396 . S
C411 C413 1.365 . S
C411 H420 0.929 . S
C412 C409 1.394 . S
C412 C411 1.396 . S
C412 H421 0.930 . S
C413 C410 1.383 . S
C413 C411 1.365 . S
C413 H422 0.931 . S
C414 C409 1.370 . S
C414 C410 1.395 . S
C414 H423 0.930 . S
C415 Gd351 2.805 . S
C415 O391 1.263 . S
C415 O392 1.252 . S
C415 C409 1.500 . S
H416 C399 0.929 . S
H417 C400 0.930 . S
H418 C401 0.931 . S
H419 C402 0.930 . S
H420 C411 0.929 . S
H421 C412 0.930 . S
H422 C413 0.931 . S
H423 C414 0.930 . S
C424 C426 1.422 . S
C424 C428 1.415 . S
C424 N430 1.369 . S
C425 C426 1.421 . S
C425 C427 1.417 . S
C425 C437 1.422 . S
C426 C424 1.422 . S
C426 C425 1.421 . S
C426 N436 1.359 . S
C427 C425 1.417 . S
C427 C429 1.329 . S
C427 H446 0.930 . S
C428 C424 1.415 . S
C428 C429 1.437 . S
C428 C432 1.413 . S
C429 C427 1.329 . S
C429 C428 1.437 . S
C429 H451 0.929 . S
N430 C424 1.369 . S
N430 C431 1.338 . S
N430 Gd435 2.622 . S
C431 N430 1.338 . S
C431 C433 1.378 . S
C431 H443 0.929 . S
C432 C428 1.413 . S
C432 C433 1.348 . S
C432 H448 0.931 . S
C433 C431 1.378 . S
C433 C432 1.348 . S
C433 H449 0.930 . S
Gd434 N454 2.622 . S
Gd434 N461 2.570 . S
Gd434 O468 2.353 . S
Gd434 O469 2.468 . S
Gd434 O470 2.427 . S
Gd434 O472 2.388 . S
Gd434 O473 2.386 . S
Gd434 O477 2.307 . S
Gd434 C487 2.805 . S
Gd435 N430 2.622 . S
Gd435 N436 2.570 . S
Gd435 O467 2.386 . S
Gd435 O471 2.307 1_655 S
Gd435 O474 2.353 1_655 S
Gd435 O475 2.468 . S
Gd435 O476 2.427 . S
Gd435 O478 2.388 . S
Gd435 C499 2.805 . S
N436 C426 1.359 . S
N436 Gd435 2.570 . S
N436 C438 1.343 . S
C437 C425 1.422 . S
C437 C439 1.321 . S
C437 H445 0.931 . S
C438 N436 1.343 . S
C438 C439 1.390 . S
C438 H440 0.931 . S
C439 C437 1.321 . S
C439 C438 1.390 . S
C439 H441 0.930 . S
H440 C438 0.931 . S
H441 C439 0.930 . S
H442 C465 0.931 . S
H443 C431 0.929 . S
H444 C466 0.930 . S
H445 C437 0.931 . S
H446 C427 0.930 . S
H447 C456 0.929 . S
H448 C432 0.931 . S
H449 C433 0.930 . S
H450 C488 0.930 . S
H451 C429 0.929 . S
H452 C457 0.931 . S
H453 C458 0.930 . S
N454 Gd434 2.622 . S
N454 C455 1.369 . S
N454 C456 1.338 . S
C455 N454 1.369 . S
C455 C459 1.415 . S
C455 C462 1.422 . S
C456 H447 0.929 . S
C456 N454 1.338 . S
C456 C458 1.378 . S
C457 H452 0.931 . S
C457 C458 1.348 . S
C457 C459 1.413 . S
C458 H453 0.930 . S
C458 C456 1.378 . S
C458 C457 1.348 . S
C459 C455 1.415 . S
C459 C457 1.413 . S
C459 C489 1.437 . S
H460 C489 0.929 . S
N461 Gd434 2.570 . S
N461 C462 1.359 . S
N461 C465 1.343 . S
C462 C455 1.422 . S
C462 N461 1.359 . S
C462 C464 1.421 . S
C463 C464 1.422 . S
C463 C466 1.321 . S
C463 H490 0.931 . S
C464 C462 1.421 . S
C464 C463 1.422 . S
C464 C488 1.417 . S
C465 H442 0.931 . S
C465 N461 1.343 . S
C465 C466 1.390 . S
C466 H444 0.930 . S
C466 C463 1.321 . S
C466 C465 1.390 . S
O467 Gd435 2.386 . S
O467 C479 1.265 . S
O468 Gd434 2.353 . S
O468 C479 1.242 1_455 S
O469 Gd434 2.468 . S
O469 C487 1.263 . S
O470 Gd434 2.427 . S
O470 C487 1.252 . S
O471 Gd435 2.307 1_455 S
O471 C480 1.261 . S
O472 Gd434 2.388 . S
O472 C480 1.252 . S
O473 Gd434 2.386 . S
O473 C491 1.265 . S
O474 Gd435 2.353 1_455 S
O474 C491 1.242 . S
O475 Gd435 2.468 . S
O475 C499 1.263 . S
O476 Gd435 2.427 . S
O476 C499 1.252 . S
O477 Gd434 2.307 . S
O477 C492 1.261 1_455 S
O478 Gd435 2.388 . S
O478 C492 1.252 . S
C479 O467 1.265 . S
C479 O468 1.242 1_655 S
C480 O471 1.261 . S
C480 O472 1.252 . S
C481 C484 1.394 . S
C481 C486 1.370 . S
C481 C487 1.500 . S
C482 C485 1.383 . S
C482 C486 1.395 . S
C483 C484 1.396 . S
C483 C485 1.365 . S
C483 H500 0.929 . S
C484 C481 1.394 . S
C484 C483 1.396 . S
C484 H501 0.930 . S
C485 C482 1.383 . S
C485 C483 1.365 . S
C485 H502 0.931 . S
C486 C481 1.370 . S
C486 C482 1.395 . S
C486 H503 0.930 . S
C487 Gd434 2.805 . S
C487 O469 1.263 . S
C487 O470 1.252 . S
C487 C481 1.500 . S
C488 H450 0.930 . S
C488 C464 1.417 . S
C488 C489 1.329 . S
C489 C459 1.437 . S
C489 H460 0.929 . S
C489 C488 1.329 . S
H490 C463 0.931 . S
C491 O473 1.265 . S
C491 O474 1.242 . S
C492 O477 1.261 1_655 S
C492 O478 1.252 . S
C493 C496 1.394 . S
C493 C498 1.370 . S
C493 C499 1.500 . S
C494 C497 1.383 . S
C494 C498 1.395 . S
C495 C496 1.396 . S
C495 C497 1.365 . S
C495 H504 0.929 . S
C496 C493 1.394 . S
C496 C495 1.396 . S
C496 H505 0.930 . S
C497 C494 1.383 . S
C497 C495 1.365 . S
C497 H506 0.931 . S
C498 C493 1.370 . S
C498 C494 1.395 . S
C498 H507 0.930 . S
C499 Gd435 2.805 . S
C499 O475 1.263 . S
C499 O476 1.252 . S
C499 C493 1.500 . S
H500 C483 0.929 . S
H501 C484 0.930 . S
H502 C485 0.931 . S
H503 C486 0.930 . S
H504 C495 0.929 . S
H505 C496 0.930 . S
H506 C497 0.931 . S
H507 C498 0.930 . S
C508 C510 1.422 . S
C508 C512 1.415 . S
C508 N514 1.369 . S
C509 C510 1.421 . S
C509 C511 1.417 . S
C509 C521 1.422 . S
C510 C508 1.422 . S
C510 C509 1.421 . S
C510 N520 1.359 . S
C511 C509 1.417 . S
C511 C513 1.329 . S
C511 H530 0.930 . S
C512 C508 1.415 . S
C512 C513 1.437 . S
C512 C516 1.413 . S
C513 C511 1.329 . S
C513 C512 1.437 . S
C513 H535 0.929 . S
N514 C508 1.369 . S
N514 C515 1.338 . S
N514 Gd519 2.622 . S
C515 N514 1.338 . S
C515 C517 1.378 . S
C515 H527 0.929 . S
C516 C512 1.413 . S
C516 C517 1.348 . S
C516 H532 0.931 . S
C517 C515 1.378 . S
C517 C516 1.348 . S
C517 H533 0.930 . S
Gd518 N538 2.622 . S
Gd518 N545 2.570 . S
Gd518 O552 2.353 . S
Gd518 O553 2.468 . S
Gd518 O554 2.427 . S
Gd518 O556 2.388 . S
Gd518 O557 2.386 . S
Gd518 O561 2.307 . S
Gd518 C571 2.805 . S
Gd519 N514 2.622 . S
Gd519 N520 2.570 . S
Gd519 O551 2.386 . S
Gd519 O555 2.307 . S
Gd519 O558 2.353 . S
Gd519 O559 2.468 . S
Gd519 O560 2.427 . S
Gd519 O562 2.388 . S
Gd519 C583 2.805 . S
N520 C510 1.359 . S
N520 Gd519 2.570 . S
N520 C522 1.343 . S
C521 C509 1.422 . S
C521 C523 1.321 . S
C521 H529 0.931 . S
C522 N520 1.343 . S
C522 C523 1.390 . S
C522 H524 0.931 . S
C523 C521 1.321 . S
C523 C522 1.390 . S
C523 H525 0.930 . S
H524 C522 0.931 . S
H525 C523 0.930 . S
H526 C549 0.931 . S
H527 C515 0.929 . S
H528 C550 0.930 . S
H529 C521 0.931 . S
H530 C511 0.930 . S
H531 C540 0.929 . S
H532 C516 0.931 . S
H533 C517 0.930 . S
H534 C572 0.930 . S
H535 C513 0.929 . S
H536 C541 0.931 . S
H537 C542 0.930 . S
N538 Gd518 2.622 . S
N538 C539 1.369 . S
N538 C540 1.338 . S
C539 N538 1.369 . S
C539 C543 1.415 . S
C539 C546 1.422 . S
C540 H531 0.929 . S
C540 N538 1.338 . S
C540 C542 1.378 . S
C541 H536 0.931 . S
C541 C542 1.348 . S
C541 C543 1.413 . S
C542 H537 0.930 . S
C542 C540 1.378 . S
C542 C541 1.348 . S
C543 C539 1.415 . S
C543 C541 1.413 . S
C543 C573 1.437 . S
H544 C573 0.929 . S
N545 Gd518 2.570 . S
N545 C546 1.359 . S
N545 C549 1.343 . S
C546 C539 1.422 . S
C546 N545 1.359 . S
C546 C548 1.421 . S
C547 C548 1.422 . S
C547 C550 1.321 . S
C547 H574 0.931 . S
C548 C546 1.421 . S
C548 C547 1.422 . S
C548 C572 1.417 . S
C549 H526 0.931 . S
C549 N545 1.343 . S
C549 C550 1.390 . S
C550 H528 0.930 . S
C550 C547 1.321 . S
C550 C549 1.390 . S
O551 Gd519 2.386 . S
O551 C563 1.265 . S
O552 Gd518 2.353 . S
O552 C563 1.242 . S
O553 Gd518 2.468 . S
O553 C571 1.263 . S
O554 Gd518 2.427 . S
O554 C571 1.252 . S
O555 Gd519 2.307 . S
O555 C564 1.261 . S
O556 Gd518 2.388 . S
O556 C564 1.252 . S
O557 Gd518 2.386 . S
O557 C575 1.265 . S
O558 Gd519 2.353 . S
O558 C575 1.242 . S
O559 Gd519 2.468 . S
O559 C583 1.263 . S
O560 Gd519 2.427 . S
O560 C583 1.252 . S
O561 Gd518 2.307 . S
O561 C576 1.261 . S
O562 Gd519 2.388 . S
O562 C576 1.252 . S
C563 O551 1.265 . S
C563 O552 1.242 . S
C564 O555 1.261 . S
C564 O556 1.252 . S
C565 C568 1.394 . S
C565 C570 1.370 . S
C565 C571 1.500 . S
C566 C569 1.383 . S
C566 C570 1.395 . S
C567 C568 1.396 . S
C567 C569 1.365 . S
C567 H584 0.929 . S
C568 C565 1.394 . S
C568 C567 1.396 . S
C568 H585 0.930 . S
C569 C566 1.383 . S
C569 C567 1.365 . S
C569 H586 0.931 . S
C570 C565 1.370 . S
C570 C566 1.395 . S
C570 H587 0.930 . S
C571 Gd518 2.805 . S
C571 O553 1.263 . S
C571 O554 1.252 . S
C571 C565 1.500 . S
C572 H534 0.930 . S
C572 C548 1.417 . S
C572 C573 1.329 . S
C573 C543 1.437 . S
C573 H544 0.929 . S
C573 C572 1.329 . S
H574 C547 0.931 . S
C575 O557 1.265 . S
C575 O558 1.242 . S
C576 O561 1.261 . S
C576 O562 1.252 . S
C577 C580 1.394 . S
C577 C582 1.370 . S
C577 C583 1.500 . S
C578 C581 1.383 . S
C578 C582 1.395 . S
C579 C580 1.396 . S
C579 C581 1.365 . S
C579 H588 0.929 . S
C580 C577 1.394 . S
C580 C579 1.396 . S
C580 H589 0.930 . S
C581 C578 1.383 . S
C581 C579 1.365 . S
C581 H590 0.931 . S
C582 C577 1.370 . S
C582 C578 1.395 . S
C582 H591 0.930 . S
C583 Gd519 2.805 . S
C583 O559 1.263 . S
C583 O560 1.252 . S
C583 C577 1.500 . S
H584 C567 0.929 . S
H585 C568 0.930 . S
H586 C569 0.931 . S
H587 C570 0.930 . S
H588 C579 0.929 . S
H589 C580 0.930 . S
H590 C581 0.931 . S
H591 C582 0.930 . S
C592 C593 1.391 . S
C592 C594 1.394 . S
C592 H608 0.931 . S
C593 C592 1.391 . S
C593 C597 1.376 . S
C594 C592 1.394 . S
C594 C595 1.369 1_565 S
C594 C598 1.531 . S
C595 C594 1.369 1_545 S
C595 C596 1.410 . S
C595 C603 1.503 . S
C596 C595 1.410 . S
C596 C597 1.392 1_545 S
C596 C599 1.511 . S
C597 C593 1.376 . S
C597 C596 1.392 1_565 S
C597 H609 0.929 . S
C598 C594 1.531 . S
C598 H610 0.960 1_565 S
C598 H611 0.962 . S
C598 H612 0.960 . S
C599 C596 1.511 . S
C599 H613 0.961 . S
C599 H614 0.961 . S
C599 H615 0.961 . S
C600 C601 1.370 . S
C600 C602 1.363 . S
C600 H616 0.931 . S
C601 C600 1.370 . S
C601 C605 1.408 . S
C602 C600 1.363 . S
C602 C603 1.370 . S
C602 C606 1.524 . S
C603 C595 1.503 . S
C603 C602 1.370 . S
C603 C604 1.403 . S
C604 C603 1.403 . S
C604 C605 1.404 . S
C604 C607 1.539 . S
C605 C601 1.408 . S
C605 C604 1.404 . S
C605 H617 0.930 . S
C606 C602 1.524 . S
C606 H618 0.956 1_545 S
C606 H619 0.961 . S
C606 H620 0.961 . S
C607 C604 1.539 . S
C607 H621 0.958 . S
C607 H622 0.961 . S
C607 H623 0.960 . S
H608 C592 0.931 . S
H609 C597 0.929 . S
H610 C598 0.960 1_545 S
H611 C598 0.962 . S
H612 C598 0.960 . S
H613 C599 0.961 . S
H614 C599 0.961 . S
H615 C599 0.961 . S
H616 C600 0.931 . S
H617 C605 0.930 . S
H618 C606 0.956 1_565 S
H619 C606 0.961 . S
H620 C606 0.961 . S
H621 C607 0.958 . S
H622 C607 0.961 . S
H623 C607 0.960 . S
C624 C625 1.391 . S
C624 C626 1.394 . S
C624 H640 0.931 . S
C625 C624 1.391 . S
C625 C629 1.376 . S
C626 C624 1.394 . S
C626 C627 1.369 . S
C626 C630 1.531 . S
C627 C626 1.369 . S
C627 C628 1.410 . S
C627 C635 1.503 . S
C628 C627 1.410 . S
C628 C629 1.392 . S
C628 C631 1.511 . S
C629 C625 1.376 . S
C629 C628 1.392 . S
C629 H641 0.929 . S
C630 C626 1.531 . S
C630 H642 0.960 . S
C630 H643 0.962 . S
C630 H644 0.960 . S
C631 C628 1.511 . S
C631 H645 0.961 . S
C631 H646 0.961 . S
C631 H647 0.961 . S
C632 C633 1.370 . S
C632 C634 1.363 . S
C632 H648 0.931 . S
C633 C632 1.370 . S
C633 C637 1.408 . S
C634 C632 1.363 . S
C634 C635 1.370 . S
C634 C638 1.524 . S
C635 C627 1.503 . S
C635 C634 1.370 . S
C635 C636 1.403 . S
C636 C635 1.403 . S
C636 C637 1.404 . S
C636 C639 1.539 . S
C637 C633 1.408 . S
C637 C636 1.404 . S
C637 H649 0.930 . S
C638 C634 1.524 . S
C638 H650 0.956 . S
C638 H651 0.961 . S
C638 H652 0.961 . S
C639 C636 1.539 . S
C639 H653 0.958 . S
C639 H654 0.961 . S
C639 H655 0.960 . S
H640 C624 0.931 . S
H641 C629 0.929 . S
H642 C630 0.960 . S
H643 C630 0.962 . S
H644 C630 0.960 . S
H645 C631 0.961 . S
H646 C631 0.961 . S
H647 C631 0.961 . S
H648 C632 0.931 . S
H649 C637 0.930 . S
H650 C638 0.956 . S
H651 C638 0.961 . S
H652 C638 0.961 . S
H653 C639 0.958 . S
H654 C639 0.961 . S
H655 C639 0.960 . S
C656 C657 1.391 . S
C656 C658 1.394 . S
C656 H672 0.931 . S
C657 C656 1.391 . S
C657 C661 1.376 . S
C658 C656 1.394 . S
C658 C659 1.369 . S
C658 C662 1.531 . S
C659 C658 1.369 . S
C659 C660 1.410 . S
C659 C667 1.503 . S
C660 C659 1.410 . S
C660 C661 1.392 . S
C660 C663 1.511 . S
C661 C657 1.376 . S
C661 C660 1.392 . S
C661 H673 0.929 . S
C662 C658 1.531 . S
C662 H674 0.960 . S
C662 H675 0.962 . S
C662 H676 0.960 . S
C663 C660 1.511 . S
C663 H677 0.961 . S
C663 H678 0.961 . S
C663 H679 0.961 . S
C664 C665 1.370 . S
C664 C666 1.363 . S
C664 H680 0.931 . S
C665 C664 1.370 . S
C665 C669 1.408 . S
C666 C664 1.363 . S
C666 C667 1.370 . S
C666 C670 1.524 . S
C667 C659 1.503 . S
C667 C666 1.370 . S
C667 C668 1.403 . S
C668 C667 1.403 . S
C668 C669 1.404 . S
C668 C671 1.539 . S
C669 C665 1.408 . S
C669 C668 1.404 . S
C669 H681 0.930 . S
C670 C666 1.524 . S
C670 H682 0.956 . S
C670 H683 0.961 . S
C670 H684 0.961 . S
C671 C668 1.539 . S
C671 H685 0.958 . S
C671 H686 0.961 . S
C671 H687 0.960 . S
H672 C656 0.931 . S
H673 C661 0.929 . S
H674 C662 0.960 . S
H675 C662 0.962 . S
H676 C662 0.960 . S
H677 C663 0.961 . S
H678 C663 0.961 . S
H679 C663 0.961 . S
H680 C664 0.931 . S
H681 C669 0.930 . S
H682 C670 0.956 . S
H683 C670 0.961 . S
H684 C670 0.961 . S
H685 C671 0.958 . S
H686 C671 0.961 . S
H687 C671 0.960 . S
C688 C689 1.391 . S
C688 C690 1.394 1_565 S
C688 H704 0.931 . S
C689 C688 1.391 . S
C689 C693 1.376 . S
C690 C688 1.394 1_545 S
C690 C691 1.369 . S
C690 C694 1.531 . S
C691 C690 1.369 . S
C691 C692 1.410 . S
C691 C699 1.503 . S
C692 C691 1.410 . S
C692 C693 1.392 1_545 S
C692 C695 1.511 . S
C693 C689 1.376 . S
C693 C692 1.392 1_565 S
C693 H705 0.929 . S
C694 C690 1.531 . S
C694 H706 0.960 . S
C694 H707 0.962 . S
C694 H708 0.960 . S
C695 C692 1.511 . S
C695 H709 0.961 . S
C695 H710 0.961 . S
C695 H711 0.961 . S
C696 C697 1.370 . S
C696 C698 1.363 . S
C696 H712 0.931 . S
C697 C696 1.370 . S
C697 C701 1.408 . S
C698 C696 1.363 . S
C698 C699 1.370 . S
C698 C702 1.540 . S
C699 C691 1.503 . S
C699 C698 1.370 . S
C699 C700 1.403 . S
C700 C699 1.403 . S
C700 C701 1.404 . S
C700 C703 1.539 . S
C701 C697 1.408 . S
C701 C700 1.404 . S
C701 H713 0.930 . S
C702 C698 1.540 . S
C702 H714 0.950 1_545 S
C702 H715 0.954 1_545 S
C702 H716 0.958 1_545 S
C703 C700 1.539 . S
C703 H717 0.958 . S
C703 H718 0.961 . S
C703 H719 0.960 . S
H704 C688 0.931 . S
H705 C693 0.929 . S
H706 C694 0.960 . S
H707 C694 0.962 . S
H708 C694 0.960 . S
H709 C695 0.961 . S
H710 C695 0.961 . S
H711 C695 0.961 . S
H712 C696 0.931 . S
H713 C701 0.930 . S
H714 C702 0.950 1_565 S
H715 C702 0.954 1_565 S
H716 C702 0.958 1_565 S
H717 C703 0.958 . S
H718 C703 0.961 . S
H719 C703 0.960 . S
C720 C721 1.391 . S
C720 C722 1.394 1_545 S
C720 H736 0.931 . S
C721 C720 1.391 . S
C721 C725 1.376 . S
C722 C720 1.394 1_565 S
C722 C723 1.369 . S
C722 C726 1.531 . S
C723 C722 1.369 . S
C723 C724 1.410 1_565 S
C723 C731 1.503 . S
C724 C723 1.410 1_545 S
C724 C725 1.392 . S
C724 C727 1.511 . S
C725 C721 1.376 . S
C725 C724 1.392 . S
C725 H737 0.929 . S
C726 C722 1.531 . S
C726 H738 0.960 . S
C726 H739 0.962 . S
C726 H740 0.960 . S
C727 C724 1.511 . S
C727 H741 0.961 . S
C727 H742 0.961 1_545 S
C727 H743 0.961 . S
C728 C729 1.370 . S
C728 C730 1.363 . S
C728 H744 0.931 . S
C729 C728 1.370 . S
C729 C733 1.408 . S
C730 C728 1.363 . S
C730 C731 1.370 . S
C730 C734 1.524 . S
C731 C723 1.503 . S
C731 C730 1.370 . S
C731 C732 1.403 . S
C732 C731 1.403 . S
C732 C733 1.404 . S
C732 C735 1.539 1_565 S
C733 C729 1.408 . S
C733 C732 1.404 . S
C733 H745 0.930 . S
C734 C730 1.524 . S
C734 H746 0.956 . S
C734 H747 0.961 . S
C734 H748 0.961 . S
C735 C732 1.539 1_545 S
C735 H749 0.958 . S
C735 H750 0.961 . S
C735 H751 0.960 . S
H736 C720 0.931 . S
H737 C725 0.929 . S
H738 C726 0.960 . S
H739 C726 0.962 . S
H740 C726 0.960 . S
H741 C727 0.961 . S
H742 C727 0.961 1_565 S
H743 C727 0.961 . S
H744 C728 0.931 . S
H745 C733 0.930 . S
H746 C734 0.956 . S
H747 C734 0.961 . S
H748 C734 0.961 . S
H749 C735 0.958 . S
H750 C735 0.961 . S
H751 C735 0.960 . S
C752 C753 1.391 . S
C752 C754 1.394 . S
C752 H768 0.931 . S
C753 C752 1.391 . S
C753 C757 1.376 . S
C754 C752 1.394 . S
C754 C755 1.369 . S
C754 C758 1.531 . S
C755 C754 1.369 . S
C755 C756 1.410 . S
C755 C763 1.503 . S
C756 C755 1.410 . S
C756 C757 1.392 . S
C756 C759 1.511 . S
C757 C753 1.376 . S
C757 C756 1.392 . S
C757 H769 0.929 . S
C758 C754 1.531 . S
C758 H770 0.960 . S
C758 H771 0.962 . S
C758 H772 0.960 . S
C759 C756 1.511 . S
C759 H773 0.961 . S
C759 H774 0.961 . S
C759 H775 0.961 . S
C760 C761 1.370 . S
C760 C762 1.363 . S
C760 H776 0.931 . S
C761 C760 1.370 . S
C761 C765 1.408 . S
C762 C760 1.363 . S
C762 C763 1.370 . S
C762 C766 1.524 . S
C763 C755 1.503 . S
C763 C762 1.370 . S
C763 C764 1.403 . S
C764 C763 1.403 . S
C764 C765 1.404 . S
C764 C767 1.539 . S
C765 C761 1.408 . S
C765 C764 1.404 . S
C765 H777 0.930 . S
C766 C762 1.524 . S
C766 H778 0.956 . S
C766 H779 0.961 . S
C766 H780 0.961 . S
C767 C764 1.539 . S
C767 H781 0.958 . S
C767 H782 0.961 . S
C767 H783 0.960 . S
H768 C752 0.931 . S
H769 C757 0.929 . S
H770 C758 0.960 . S
H771 C758 0.962 . S
H772 C758 0.960 . S
H773 C759 0.961 . S
H774 C759 0.961 . S
H775 C759 0.961 . S
H776 C760 0.931 . S
H777 C765 0.930 . S
H778 C766 0.956 . S
H779 C766 0.961 . S
H780 C766 0.961 . S
H781 C767 0.958 . S
H782 C767 0.961 . S
H783 C767 0.960 . S
C784 C785 1.391 . S
C784 C786 1.394 . S
C784 H800 0.931 . S
C785 C784 1.391 . S
C785 C789 1.376 . S
C786 C784 1.394 . S
C786 C787 1.369 . S
C786 C790 1.531 . S
C787 C786 1.369 . S
C787 C788 1.410 . S
C787 C795 1.503 . S
C788 C787 1.410 . S
C788 C789 1.392 . S
C788 C791 1.511 . S
C789 C785 1.376 . S
C789 C788 1.392 . S
C789 H801 0.929 . S
C790 C786 1.531 . S
C790 H802 0.960 . S
C790 H803 0.962 . S
C790 H804 0.960 . S
C791 C788 1.511 . S
C791 H805 0.961 . S
C791 H806 0.961 . S
C791 H807 0.961 . S
C792 C793 1.370 . S
C792 C794 1.363 . S
C792 H808 0.931 . S
C793 C792 1.370 . S
C793 C797 1.408 . S
C794 C792 1.363 . S
C794 C795 1.370 . S
C794 C798 1.524 . S
C795 C787 1.503 . S
C795 C794 1.370 . S
C795 C796 1.403 . S
C796 C795 1.403 . S
C796 C797 1.404 . S
C796 C799 1.539 . S
C797 C793 1.408 . S
C797 C796 1.404 . S
C797 H809 0.930 . S
C798 C794 1.524 . S
C798 H810 0.956 . S
C798 H811 0.961 . S
C798 H812 0.961 . S
C799 C796 1.539 . S
C799 H813 0.958 . S
C799 H814 0.961 . S
C799 H815 0.960 . S
H800 C784 0.931 . S
H801 C789 0.929 . S
H802 C790 0.960 . S
H803 C790 0.962 . S
H804 C790 0.960 . S
H805 C791 0.961 . S
H806 C791 0.961 . S
H807 C791 0.961 . S
H808 C792 0.931 . S
H809 C797 0.930 . S
H810 C798 0.956 . S
H811 C798 0.961 . S
H812 C798 0.961 . S
H813 C799 0.958 . S
H814 C799 0.961 . S
H815 C799 0.960 . S
C816 C817 1.388 . S
C816 C818 1.397 1_545 S
C816 H832 0.931 . S
C817 C816 1.388 . S
C817 C821 1.376 . S
C818 C816 1.397 1_565 S
C818 C819 1.369 . S
C818 C822 1.531 . S
C819 C818 1.369 . S
C819 C820 1.410 . S
C819 C827 1.503 . S
C820 C819 1.410 . S
C820 C821 1.392 1_565 S
C820 C823 1.511 . S
C821 C817 1.376 . S
C821 C820 1.392 1_545 S
C821 H833 0.929 . S
C822 C818 1.531 . S
C822 H834 0.960 . S
C822 H835 0.962 . S
C822 H836 0.960 . S
C823 C820 1.511 . S
C823 H837 0.961 1_565 S
C823 H838 0.961 . S
C823 H839 0.961 . S
C824 C825 1.370 . S
C824 C826 1.363 . S
C824 H840 0.931 . S
C825 C824 1.370 . S
C825 C829 1.408 . S
C826 C824 1.363 . S
C826 C827 1.370 . S
C826 C830 1.524 . S
C827 C819 1.503 . S
C827 C826 1.370 . S
C827 C828 1.403 . S
C828 C827 1.403 . S
C828 C829 1.404 . S
C828 C831 1.539 . S
C829 C825 1.408 . S
C829 C828 1.404 . S
C829 H841 0.930 . S
C830 C826 1.524 . S
C830 H842 0.956 . S
C830 H843 0.961 1_565 S
C830 H844 0.961 . S
C831 C828 1.539 . S
C831 H845 0.958 . S
C831 H846 0.961 . S
C831 H847 0.960 . S
H832 C816 0.931 . S
H833 C821 0.929 . S
H834 C822 0.960 . S
H835 C822 0.962 . S
H836 C822 0.960 . S
H837 C823 0.961 1_545 S
H838 C823 0.961 . S
H839 C823 0.961 . S
H840 C824 0.931 . S
H841 C829 0.930 . S
H842 C830 0.956 . S
H843 C830 0.961 1_545 S
H844 C830 0.961 . S
H845 C831 0.958 . S
H846 C831 0.961 . S
H847 C831 0.960 . S
C848 C849 1.391 1_554 S
C848 C850 1.394 . S
C848 H864 0.931 1_554 S
C849 C848 1.391 1_556 S
C849 C853 1.376 1_556 S
C850 C848 1.394 . S
C850 C851 1.369 . S
C850 C854 1.531 . S
C851 C850 1.369 . S
C851 C852 1.410 . S
C851 C859 1.503 . S
C852 C851 1.410 . S
C852 C853 1.392 . S
C852 C855 1.511 . S
C853 C849 1.376 1_554 S
C853 C852 1.392 . S
C853 H865 0.929 . S
C854 C850 1.531 . S
C854 H866 0.960 . S
C854 H867 0.962 . S
C854 H868 0.960 . S
C855 C852 1.511 . S
C855 H869 0.961 . S
C855 H870 0.961 . S
C855 H871 0.961 . S
C856 C857 1.370 . S
C856 C858 1.363 . S
C856 H872 0.931 . S
C857 C856 1.370 . S
C857 C861 1.408 . S
C858 C856 1.363 . S
C858 C859 1.370 . S
C858 C862 1.524 . S
C859 C851 1.503 . S
C859 C858 1.370 . S
C859 C860 1.403 . S
C860 C859 1.403 . S
C860 C861 1.404 . S
C860 C863 1.539 . S
C861 C857 1.408 . S
C861 C860 1.404 . S
C861 H873 0.930 . S
C862 C858 1.524 . S
C862 H874 0.956 . S
C862 H875 0.961 . S
C862 H876 0.961 . S
C863 C860 1.539 . S
C863 H877 0.958 . S
C863 H878 0.961 . S
C863 H879 0.960 . S
H864 C848 0.931 1_556 S
H865 C853 0.929 . S
H866 C854 0.960 . S
H867 C854 0.962 . S
H868 C854 0.960 . S
H869 C855 0.961 . S
H870 C855 0.961 . S
H871 C855 0.961 . S
H872 C856 0.931 . S
H873 C861 0.930 . S
H874 C862 0.956 . S
H875 C862 0.961 . S
H876 C862 0.961 . S
H877 C863 0.958 . S
H878 C863 0.961 . S
H879 C863 0.960 . S
C880 C881 1.391 . S
C880 C882 1.394 . S
C880 H896 0.931 . S
C881 C880 1.391 . S
C881 C885 1.376 . S
C882 C880 1.394 . S
C882 C883 1.369 . S
C882 C886 1.531 . S
C883 C882 1.369 . S
C883 C884 1.410 . S
C883 C891 1.503 . S
C884 C883 1.410 . S
C884 C885 1.392 . S
C884 C887 1.511 . S
C885 C881 1.376 . S
C885 C884 1.392 . S
C885 H897 0.929 . S
C886 C882 1.531 . S
C886 H898 0.960 . S
C886 H899 0.962 . S
C886 H900 0.960 . S
C887 C884 1.511 . S
C887 H901 0.961 . S
C887 H902 0.961 . S
C887 H903 0.961 . S
C888 C889 1.370 . S
C888 C890 1.363 . S
C888 H904 0.931 . S
C889 C888 1.370 . S
C889 C893 1.408 . S
C890 C888 1.363 . S
C890 C891 1.370 . S
C890 C894 1.524 . S
C891 C883 1.503 . S
C891 C890 1.370 . S
C891 C892 1.403 . S
C892 C891 1.403 . S
C892 C893 1.404 . S
C892 C895 1.539 . S
C893 C889 1.408 . S
C893 C892 1.404 . S
C893 H905 0.930 . S
C894 C890 1.524 . S
C894 H906 0.956 . S
C894 H907 0.961 . S
C894 H908 0.961 . S
C895 C892 1.539 . S
C895 H909 0.958 . S
C895 H910 0.961 . S
C895 H911 0.960 . S
H896 C880 0.931 . S
H897 C885 0.929 . S
H898 C886 0.960 . S
H899 C886 0.962 . S
H900 C886 0.960 . S
H901 C887 0.961 . S
H902 C887 0.961 . S
H903 C887 0.961 . S
H904 C888 0.931 . S
H905 C893 0.930 . S
H906 C894 0.956 . S
H907 C894 0.961 . S
H908 C894 0.961 . S
H909 C895 0.958 . S
H910 C895 0.961 . S
H911 C895 0.960 . S
C912 C913 1.391 . S
C912 C914 1.394 1_554 S
C912 H928 0.931 . S
C913 C912 1.391 . S
C913 C917 1.376 1_554 S
C914 C912 1.394 1_556 S
C914 C915 1.369 . S
C914 C918 1.531 . S
C915 C914 1.369 . S
C915 C916 1.410 . S
C915 C923 1.503 . S
C916 C915 1.410 . S
C916 C917 1.392 . S
C916 C919 1.511 . S
C917 C913 1.376 1_556 S
C917 C916 1.392 . S
C917 H929 0.929 . S
C918 C914 1.531 . S
C918 H930 0.960 . S
C918 H931 0.962 . S
C918 H932 0.960 . S
C919 C916 1.511 . S
C919 H933 0.961 . S
C919 H934 0.961 . S
C919 H935 0.961 . S
C920 C921 1.370 . S
C920 C922 1.363 . S
C920 H936 0.931 . S
C921 C920 1.370 . S
C921 C925 1.408 . S
C922 C920 1.363 . S
C922 C923 1.370 . S
C922 C926 1.524 . S
C923 C915 1.503 . S
C923 C922 1.370 . S
C923 C924 1.403 . S
C924 C923 1.403 . S
C924 C925 1.404 . S
C924 C927 1.539 . S
C925 C921 1.408 . S
C925 C924 1.404 . S
C925 H937 0.930 . S
C926 C922 1.524 . S
C926 H938 0.956 . S
C926 H939 0.961 . S
C926 H940 0.961 . S
C927 C924 1.539 . S
C927 H941 0.958 . S
C927 H942 0.961 . S
C927 H943 0.960 . S
H928 C912 0.931 . S
H929 C917 0.929 . S
H930 C918 0.960 . S
H931 C918 0.962 . S
H932 C918 0.960 . S
H933 C919 0.961 . S
H934 C919 0.961 . S
H935 C919 0.961 . S
H936 C920 0.931 . S
H937 C925 0.930 . S
H938 C926 0.956 . S
H939 C926 0.961 . S
H940 C926 0.961 . S
H941 C927 0.958 . S
H942 C927 0.961 . S
H943 C927 0.960 . S
C944 C945 1.391 . S
C944 C946 1.394 . S
C944 H960 0.931 . S
C945 C944 1.391 . S
C945 C949 1.376 . S
C946 C944 1.394 . S
C946 C947 1.369 . S
C946 C950 1.531 . S
C947 C946 1.369 . S
C947 C948 1.410 . S
C947 C955 1.503 . S
C948 C947 1.410 . S
C948 C949 1.392 . S
C948 C951 1.511 . S
C949 C945 1.376 . S
C949 C948 1.392 . S
C949 H961 0.929 . S
C950 C946 1.531 . S
C950 H962 0.960 . S
C950 H963 0.962 . S
C950 H964 0.960 . S
C951 C948 1.511 . S
C951 H965 0.961 . S
C951 H966 0.961 . S
C951 H967 0.961 . S
C952 C953 1.370 . S
C952 C954 1.363 . S
C952 H968 0.931 . S
C953 C952 1.370 . S
C953 C957 1.408 . S
C954 C952 1.363 . S
C954 C955 1.370 . S
C954 C958 1.524 . S
C955 C947 1.503 . S
C955 C954 1.370 . S
C955 C956 1.403 . S
C956 C955 1.403 . S
C956 C957 1.404 . S
C956 C959 1.539 . S
C957 C953 1.408 . S
C957 C956 1.404 . S
C957 H969 0.930 . S
C958 C954 1.524 . S
C958 H970 0.956 . S
C958 H971 0.961 . S
C958 H972 0.961 . S
C959 C956 1.539 . S
C959 H973 0.958 . S
C959 H974 0.961 . S
C959 H975 0.960 . S
H960 C944 0.931 . S
H961 C949 0.929 . S
H962 C950 0.960 . S
H963 C950 0.962 . S
H964 C950 0.960 . S
H965 C951 0.961 . S
H966 C951 0.961 . S
H967 C951 0.961 . S
H968 C952 0.931 . S
H969 C957 0.930 . S
H970 C958 0.956 . S
H971 C958 0.961 . S
H972 C958 0.961 . S
H973 C959 0.958 . S
H974 C959 0.961 . S
H975 C959 0.960 . S
C976 C977 1.391 . S
C976 C978 1.394 1_554 S
C976 H992 0.931 . S
C977 C976 1.391 . S
C977 C981 1.376 1_554 S
C978 C976 1.394 1_556 S
C978 C979 1.369 . S
C978 C982 1.531 . S
C979 C978 1.369 . S
C979 C980 1.410 . S
C979 C987 1.503 . S
C980 C979 1.410 . S
C980 C981 1.392 . S
C980 C983 1.511 . S
C981 C977 1.376 1_556 S
C981 C980 1.392 . S
C981 H993 0.929 . S
C982 C978 1.531 . S
C982 H994 0.960 . S
C982 H995 0.962 . S
C982 H996 0.960 . S
C983 C980 1.511 . S
C983 H997 0.961 . S
C983 H998 0.961 . S
C983 H999 0.961 . S
C984 C985 1.370 . S
C984 C986 1.363 . S
C984 H1000 0.931 . S
C985 C984 1.370 . S
C985 C989 1.408 . S
C986 C984 1.363 . S
C986 C987 1.370 . S
C986 C990 1.524 . S
C987 C979 1.503 . S
C987 C986 1.370 . S
C987 C988 1.403 . S
C988 C987 1.403 . S
C988 C989 1.404 . S
C988 C991 1.539 . S
C989 C985 1.408 . S
C989 C988 1.404 . S
C989 H1001 0.930 . S
C990 C986 1.524 . S
C990 H1002 0.956 . S
C990 H1003 0.961 . S
C990 H1004 0.961 . S
C991 C988 1.539 . S
C991 H1005 0.958 . S
C991 H1006 0.961 . S
C991 H1007 0.960 . S
H992 C976 0.931 . S
H993 C981 0.929 . S
H994 C982 0.960 . S
H995 C982 0.962 . S
H996 C982 0.960 . S
H997 C983 0.961 . S
H998 C983 0.961 . S
H999 C983 0.961 . S
H1000 C984 0.931 . S
H1001 C989 0.930 . S
H1002 C990 0.956 . S
H1003 C990 0.961 . S
H1004 C990 0.961 . S
H1005 C991 0.958 . S
H1006 C991 0.961 . S
H1007 C991 0.960 . S
C1008 C1009 1.391 . S
C1008 C1010 1.394 . S
C1008 H1024 0.931 . S
C1009 C1008 1.391 . S
C1009 C1013 1.376 . S
C1010 C1008 1.394 . S
C1010 C1011 1.369 . S
C1010 C1014 1.531 . S
C1011 C1010 1.369 . S
C1011 C1012 1.410 . S
C1011 C1019 1.503 . S
C1012 C1011 1.410 . S
C1012 C1013 1.392 . S
C1012 C1015 1.511 . S
C1013 C1009 1.376 . S
C1013 C1012 1.392 . S
C1013 H1025 0.929 . S
C1014 C1010 1.531 . S
C1014 H1026 0.960 . S
C1014 H1027 0.962 . S
C1014 H1028 0.960 . S
C1015 C1012 1.511 . S
C1015 H1029 0.961 . S
C1015 H1030 0.961 . S
C1015 H1031 0.961 . S
C1016 C1017 1.370 . S
C1016 C1018 1.363 . S
C1016 H1032 0.931 . S
C1017 C1016 1.370 . S
C1017 C1021 1.408 . S
C1018 C1016 1.363 . S
C1018 C1019 1.370 . S
C1018 C1022 1.524 . S
C1019 C1011 1.503 . S
C1019 C1018 1.370 . S
C1019 C1020 1.403 . S
C1020 C1019 1.403 . S
C1020 C1021 1.404 . S
C1020 C1023 1.539 . S
C1021 C1017 1.408 . S
C1021 C1020 1.404 . S
C1021 H1033 0.930 . S
C1022 C1018 1.524 . S
C1022 H1034 0.956 . S
C1022 H1035 0.961 . S
C1022 H1036 0.961 . S
C1023 C1020 1.539 . S
C1023 H1037 0.958 . S
C1023 H1038 0.961 . S
C1023 H1039 0.960 . S
H1024 C1008 0.931 . S
H1025 C1013 0.929 . S
H1026 C1014 0.960 . S
H1027 C1014 0.962 . S
H1028 C1014 0.960 . S
H1029 C1015 0.961 . S
H1030 C1015 0.961 . S
H1031 C1015 0.961 . S
H1032 C1016 0.931 . S
H1033 C1021 0.930 . S
H1034 C1022 0.956 . S
H1035 C1022 0.961 . S
H1036 C1022 0.961 . S
H1037 C1023 0.958 . S
H1038 C1023 0.961 . S
H1039 C1023 0.960 . S
C1040 C1041 1.391 . S
C1040 C1042 1.394 1_556 S
C1040 H1056 0.931 . S
C1041 C1040 1.391 . S
C1041 C1045 1.376 1_556 S
C1042 C1040 1.394 1_554 S
C1042 C1043 1.369 . S
C1042 C1046 1.531 . S
C1043 C1042 1.369 . S
C1043 C1044 1.410 . S
C1043 C1051 1.503 . S
C1044 C1043 1.410 . S
C1044 C1045 1.392 . S
C1044 C1047 1.511 . S
C1045 C1041 1.376 1_554 S
C1045 C1044 1.392 . S
C1045 H1057 0.929 . S
C1046 C1042 1.531 . S
C1046 H1058 0.960 . S
C1046 H1059 0.962 . S
C1046 H1060 0.960 . S
C1047 C1044 1.511 . S
C1047 H1061 0.961 . S
C1047 H1062 0.961 . S
C1047 H1063 0.961 . S
C1048 C1049 1.370 . S
C1048 C1050 1.363 . S
C1048 H1064 0.931 . S
C1049 C1048 1.370 . S
C1049 C1053 1.408 . S
C1050 C1048 1.363 . S
C1050 C1051 1.370 . S
C1050 C1054 1.524 . S
C1051 C1043 1.503 . S
C1051 C1050 1.370 . S
C1051 C1052 1.403 . S
C1052 C1051 1.403 . S
C1052 C1053 1.404 . S
C1052 C1055 1.539 . S
C1053 C1049 1.408 . S
C1053 C1052 1.404 . S
C1053 H1065 0.930 . S
C1054 C1050 1.524 . S
C1054 H1066 0.956 . S
C1054 H1067 0.961 . S
C1054 H1068 0.961 . S
C1055 C1052 1.539 . S
C1055 H1069 0.958 . S
C1055 H1070 0.961 . S
C1055 H1071 0.960 . S
H1056 C1040 0.931 . S
H1057 C1045 0.929 . S
H1058 C1046 0.960 . S
H1059 C1046 0.962 . S
H1060 C1046 0.960 . S
H1061 C1047 0.961 . S
H1062 C1047 0.961 . S
H1063 C1047 0.961 . S
H1064 C1048 0.931 . S
H1065 C1053 0.930 . S
H1066 C1054 0.956 . S
H1067 C1054 0.961 . S
H1068 C1054 0.961 . S
H1069 C1055 0.958 . S
H1070 C1055 0.961 . S
H1071 C1055 0.960 . S
C1072 C1073 1.391 . S
C1072 C1074 1.394 . S
C1072 H1088 0.931 . S
C1073 C1072 1.391 . S
C1073 C1077 1.376 . S
C1074 C1072 1.394 . S
C1074 C1075 1.369 . S
C1074 C1078 1.531 . S
C1075 C1074 1.369 . S
C1075 C1076 1.410 . S
C1075 C1083 1.503 . S
C1076 C1075 1.410 . S
C1076 C1077 1.392 . S
C1076 C1079 1.511 . S
C1077 C1073 1.376 . S
C1077 C1076 1.392 . S
C1077 H1089 0.929 . S
C1078 C1074 1.531 . S
C1078 H1090 0.960 . S
C1078 H1091 0.962 . S
C1078 H1092 0.960 . S
C1079 C1076 1.511 . S
C1079 H1093 0.961 . S
C1079 H1094 0.961 . S
C1079 H1095 0.961 . S
C1080 C1081 1.370 . S
C1080 C1082 1.363 . S
C1080 H1096 0.931 . S
C1081 C1080 1.370 . S
C1081 C1085 1.408 . S
C1082 C1080 1.363 . S
C1082 C1083 1.370 . S
C1082 C1086 1.524 . S
C1083 C1075 1.503 . S
C1083 C1082 1.370 . S
C1083 C1084 1.403 . S
C1084 C1083 1.403 . S
C1084 C1085 1.404 . S
C1084 C1087 1.539 . S
C1085 C1081 1.408 . S
C1085 C1084 1.404 . S
C1085 H1097 0.930 . S
C1086 C1082 1.524 . S
C1086 H1098 0.956 . S
C1086 H1099 0.961 . S
C1086 H1100 0.961 . S
C1087 C1084 1.539 . S
C1087 H1101 0.958 . S
C1087 H1102 0.961 . S
C1087 H1103 0.960 . S
H1088 C1072 0.931 . S
H1089 C1077 0.929 . S
H1090 C1078 0.960 . S
H1091 C1078 0.962 . S
H1092 C1078 0.960 . S
H1093 C1079 0.961 . S
H1094 C1079 0.961 . S
H1095 C1079 0.961 . S
H1096 C1080 0.931 . S
H1097 C1085 0.930 . S
H1098 C1086 0.956 . S
H1099 C1086 0.961 . S
H1100 C1086 0.961 . S
H1101 C1087 0.958 . S
H1102 C1087 0.961 . S
H1103 C1087 0.960 . S
C1104 C1105 1.391 . S
C1104 C1106 1.394 . S
C1104 H1120 0.931 . S
C1105 C1104 1.391 . S
C1105 C1109 1.376 . S
C1106 C1104 1.394 . S
C1106 C1107 1.369 . S
C1106 C1110 1.531 . S
C1107 C1106 1.369 . S
C1107 C1108 1.410 . S
C1107 C1115 1.503 . S
C1108 C1107 1.410 . S
C1108 C1109 1.392 . S
C1108 C1111 1.511 . S
C1109 C1105 1.376 . S
C1109 C1108 1.392 . S
C1109 H1121 0.929 . S
C1110 C1106 1.531 . S
C1110 H1122 0.960 . S
C1110 H1123 0.962 . S
C1110 H1124 0.960 . S
C1111 C1108 1.511 . S
C1111 H1125 0.961 . S
C1111 H1126 0.961 . S
C1111 H1127 0.961 . S
C1112 C1113 1.370 . S
C1112 C1114 1.363 . S
C1112 H1128 0.931 . S
C1113 C1112 1.370 . S
C1113 C1117 1.408 . S
C1114 C1112 1.363 . S
C1114 C1115 1.370 . S
C1114 C1118 1.524 . S
C1115 C1107 1.503 . S
C1115 C1114 1.370 . S
C1115 C1116 1.403 . S
C1116 C1115 1.403 . S
C1116 C1117 1.404 . S
C1116 C1119 1.539 . S
C1117 C1113 1.408 . S
C1117 C1116 1.404 . S
C1117 H1129 0.930 . S
C1118 C1114 1.524 . S
C1118 H1130 0.956 . S
C1118 H1131 0.961 . S
C1118 H1132 0.961 . S
C1119 C1116 1.539 . S
C1119 H1133 0.958 . S
C1119 H1134 0.961 . S
C1119 H1135 0.960 . S
H1120 C1104 0.931 . S
H1121 C1109 0.929 . S
H1122 C1110 0.960 . S
H1123 C1110 0.962 . S
H1124 C1110 0.960 . S
H1125 C1111 0.961 . S
H1126 C1111 0.961 . S
H1127 C1111 0.961 . S
H1128 C1112 0.931 . S
H1129 C1117 0.930 . S
H1130 C1118 0.956 . S
H1131 C1118 0.961 . S
H1132 C1118 0.961 . S
H1133 C1119 0.958 . S
H1134 C1119 0.961 . S
H1135 C1119 0.960 . S
C1136 C1137 1.391 . S
C1136 C1138 1.394 . S
C1136 H1152 0.931 . S
C1137 C1136 1.391 . S
C1137 C1141 1.376 . S
C1138 C1136 1.394 . S
C1138 C1139 1.369 . S
C1138 C1142 1.531 . S
C1139 C1138 1.369 . S
C1139 C1140 1.410 . S
C1139 C1147 1.503 . S
C1140 C1139 1.410 . S
C1140 C1141 1.392 . S
C1140 C1143 1.511 . S
C1141 C1137 1.376 . S
C1141 C1140 1.392 . S
C1141 H1153 0.929 . S
C1142 C1138 1.531 . S
C1142 H1154 0.960 . S
C1142 H1155 0.962 . S
C1142 H1156 0.960 . S
C1143 C1140 1.511 . S
C1143 H1157 0.961 . S
C1143 H1158 0.961 . S
C1143 H1159 0.961 . S
C1144 C1145 1.370 . S
C1144 C1146 1.363 . S
C1144 H1160 0.931 . S
C1145 C1144 1.370 . S
C1145 C1149 1.408 . S
C1146 C1144 1.363 . S
C1146 C1147 1.370 . S
C1146 C1150 1.524 . S
C1147 C1139 1.503 . S
C1147 C1146 1.370 . S
C1147 C1148 1.403 . S
C1148 C1147 1.403 . S
C1148 C1149 1.404 . S
C1148 C1151 1.539 . S
C1149 C1145 1.408 . S
C1149 C1148 1.404 . S
C1149 H1161 0.930 . S
C1150 C1146 1.524 . S
C1150 H1162 0.956 . S
C1150 H1163 0.961 . S
C1150 H1164 0.961 . S
C1151 C1148 1.539 . S
C1151 H1165 0.958 . S
C1151 H1166 0.961 . S
C1151 H1167 0.960 . S
H1152 C1136 0.931 . S
H1153 C1141 0.929 . S
H1154 C1142 0.960 . S
H1155 C1142 0.962 . S
H1156 C1142 0.960 . S
H1157 C1143 0.961 . S
H1158 C1143 0.961 . S
H1159 C1143 0.961 . S
H1160 C1144 0.931 . S
H1161 C1149 0.930 . S
H1162 C1150 0.956 . S
H1163 C1150 0.961 . S
H1164 C1150 0.961 . S
H1165 C1151 0.958 . S
H1166 C1151 0.961 . S
H1167 C1151 0.960 . S
C1168 C1169 1.391 . S
C1168 C1170 1.394 . S
C1168 H1184 0.931 . S
C1169 C1168 1.391 . S
C1169 C1173 1.376 . S
C1170 C1168 1.394 . S
C1170 C1171 1.369 . S
C1170 C1174 1.531 . S
C1171 C1170 1.369 . S
C1171 C1172 1.410 . S
C1171 C1179 1.503 . S
C1172 C1171 1.410 . S
C1172 C1173 1.392 . S
C1172 C1175 1.511 . S
C1173 C1169 1.376 . S
C1173 C1172 1.392 . S
C1173 H1185 0.929 . S
C1174 C1170 1.531 . S
C1174 H1186 0.960 . S
C1174 H1187 0.962 . S
C1174 H1188 0.960 . S
C1175 C1172 1.511 . S
C1175 H1189 0.961 . S
C1175 H1190 0.961 . S
C1175 H1191 0.961 . S
C1176 C1177 1.370 . S
C1176 C1178 1.363 . S
C1176 H1192 0.931 . S
C1177 C1176 1.370 . S
C1177 C1181 1.408 . S
C1178 C1176 1.363 . S
C1178 C1179 1.370 . S
C1178 C1182 1.524 . S
C1179 C1171 1.503 . S
C1179 C1178 1.370 . S
C1179 C1180 1.403 . S
C1180 C1179 1.403 . S
C1180 C1181 1.404 . S
C1180 C1183 1.539 . S
C1181 C1177 1.408 . S
C1181 C1180 1.404 . S
C1181 H1193 0.930 . S
C1182 C1178 1.524 . S
C1182 H1194 0.956 . S
C1182 H1195 0.961 . S
C1182 H1196 0.961 . S
C1183 C1180 1.539 . S
C1183 H1197 0.958 . S
C1183 H1198 0.961 . S
C1183 H1199 0.960 . S
H1184 C1168 0.931 . S
H1185 C1173 0.929 . S
H1186 C1174 0.960 . S
H1187 C1174 0.962 . S
H1188 C1174 0.960 . S
H1189 C1175 0.961 . S
H1190 C1175 0.961 . S
H1191 C1175 0.961 . S
H1192 C1176 0.931 . S
H1193 C1181 0.930 . S
H1194 C1182 0.956 . S
H1195 C1182 0.961 . S
H1196 C1182 0.961 . S
H1197 C1183 0.958 . S
H1198 C1183 0.961 . S
H1199 C1183 0.960 . S
C1200 C1201 1.391 . S
C1200 C1202 1.394 . S
C1200 H1216 0.931 . S
C1201 C1200 1.391 . S
C1201 C1205 1.376 . S
C1202 C1200 1.394 . S
C1202 C1203 1.369 . S
C1202 C1206 1.531 . S
C1203 C1202 1.369 . S
C1203 C1204 1.410 . S
C1203 C1211 1.503 . S
C1204 C1203 1.410 . S
C1204 C1205 1.392 . S
C1204 C1207 1.511 . S
C1205 C1201 1.376 . S
C1205 C1204 1.392 . S
C1205 H1217 0.929 . S
C1206 C1202 1.531 . S
C1206 H1218 0.960 . S
C1206 H1219 0.962 . S
C1206 H1220 0.960 . S
C1207 C1204 1.511 . S
C1207 H1221 0.961 . S
C1207 H1222 0.961 . S
C1207 H1223 0.961 . S
C1208 C1209 1.370 . S
C1208 C1210 1.363 . S
C1208 H1224 0.931 . S
C1209 C1208 1.370 . S
C1209 C1213 1.408 . S
C1210 C1208 1.363 . S
C1210 C1211 1.370 . S
C1210 C1214 1.524 . S
C1211 C1203 1.503 . S
C1211 C1210 1.370 . S
C1211 C1212 1.403 . S
C1212 C1211 1.403 . S
C1212 C1213 1.404 . S
C1212 C1215 1.539 . S
C1213 C1209 1.408 . S
C1213 C1212 1.404 . S
C1213 H1225 0.930 . S
C1214 C1210 1.524 . S
C1214 H1226 0.956 . S
C1214 H1227 0.961 . S
C1214 H1228 0.961 . S
C1215 C1212 1.539 . S
C1215 H1229 0.958 . S
C1215 H1230 0.961 1_655 S
C1215 H1231 0.960 . S
H1216 C1200 0.931 . S
H1217 C1205 0.929 . S
H1218 C1206 0.960 . S
H1219 C1206 0.962 . S
H1220 C1206 0.960 . S
H1221 C1207 0.961 . S
H1222 C1207 0.961 . S
H1223 C1207 0.961 . S
H1224 C1208 0.931 . S
H1225 C1213 0.930 . S
H1226 C1214 0.956 . S
H1227 C1214 0.961 . S
H1228 C1214 0.961 . S
H1229 C1215 0.958 . S
H1230 C1215 0.961 1_455 S
H1231 C1215 0.960 . S
C1232 C1233 1.391 . S
C1232 C1234 1.394 . S
C1232 H1248 0.931 . S
C1233 C1232 1.391 . S
C1233 C1237 1.376 . S
C1234 C1232 1.394 . S
C1234 C1235 1.369 . S
C1234 C1238 1.531 . S
C1235 C1234 1.369 . S
C1235 C1236 1.410 . S
C1235 C1243 1.503 . S
C1236 C1235 1.410 . S
C1236 C1237 1.392 . S
C1236 C1239 1.511 . S
C1237 C1233 1.376 . S
C1237 C1236 1.392 . S
C1237 H1249 0.929 . S
C1238 C1234 1.531 . S
C1238 H1250 0.960 . S
C1238 H1251 0.962 . S
C1238 H1252 0.960 . S
C1239 C1236 1.511 . S
C1239 H1253 0.961 . S
C1239 H1254 0.961 . S
C1239 H1255 0.961 . S
C1240 C1241 1.370 . S
C1240 C1242 1.363 . S
C1240 H1256 0.931 . S
C1241 C1240 1.370 . S
C1241 C1245 1.408 . S
C1242 C1240 1.363 . S
C1242 C1243 1.370 . S
C1242 C1246 1.524 . S
C1243 C1235 1.503 . S
C1243 C1242 1.370 . S
C1243 C1244 1.403 . S
C1244 C1243 1.403 . S
C1244 C1245 1.404 . S
C1244 C1247 1.539 . S
C1245 C1241 1.408 . S
C1245 C1244 1.404 . S
C1245 H1257 0.936 . S
C1246 C1242 1.524 . S
C1246 H1258 0.956 . S
C1246 H1259 0.961 . S
C1246 H1260 0.961 . S
C1247 C1244 1.539 . S
C1247 H1261 0.958 . S
C1247 H1262 0.961 1_655 S
C1247 H1263 0.960 . S
H1248 C1232 0.931 . S
H1249 C1237 0.929 . S
H1250 C1238 0.960 . S
H1251 C1238 0.962 . S
H1252 C1238 0.960 . S
H1253 C1239 0.961 . S
H1254 C1239 0.961 . S
H1255 C1239 0.961 . S
H1256 C1240 0.931 . S
H1257 C1245 0.936 . S
H1258 C1246 0.956 . S
H1259 C1246 0.961 . S
H1260 C1246 0.961 . S
H1261 C1247 0.958 . S
H1262 C1247 0.961 1_455 S
H1263 C1247 0.960 . S
C1264 C1265 1.391 . S
C1264 C1266 1.394 . S
C1264 H1280 0.931 . S
C1265 C1264 1.391 . S
C1265 C1269 1.376 . S
C1266 C1264 1.394 . S
C1266 C1267 1.369 . S
C1266 C1270 1.531 . S
C1267 C1266 1.369 . S
C1267 C1268 1.410 . S
C1267 C1275 1.503 . S
C1268 C1267 1.410 . S
C1268 C1269 1.392 . S
C1268 C1271 1.511 . S
C1269 C1265 1.376 . S
C1269 C1268 1.392 . S
C1269 H1281 0.929 . S
C1270 C1266 1.531 . S
C1270 H1282 0.960 . S
C1270 H1283 0.962 . S
C1270 H1284 0.960 . S
C1271 C1268 1.511 . S
C1271 H1285 0.961 . S
C1271 H1286 0.961 . S
C1271 H1287 0.961 . S
C1272 C1273 1.370 . S
C1272 C1274 1.363 . S
C1272 H1288 0.931 . S
C1273 C1272 1.370 . S
C1273 C1277 1.408 . S
C1274 C1272 1.363 . S
C1274 C1275 1.370 . S
C1274 C1278 1.524 . S
C1275 C1267 1.503 . S
C1275 C1274 1.370 . S
C1275 C1276 1.403 . S
C1276 C1275 1.403 . S
C1276 C1277 1.404 . S
C1276 C1279 1.539 . S
C1277 C1273 1.408 . S
C1277 C1276 1.404 . S
C1277 H1289 0.930 . S
C1278 C1274 1.524 . S
C1278 H1290 0.956 . S
C1278 H1291 0.961 . S
C1278 H1292 0.961 . S
C1279 C1276 1.539 . S
C1279 H1293 0.958 . S
C1279 H1294 0.961 . S
C1279 H1295 0.960 . S
H1280 C1264 0.931 . S
H1281 C1269 0.929 . S
H1282 C1270 0.960 . S
H1283 C1270 0.962 . S
H1284 C1270 0.960 . S
H1285 C1271 0.961 . S
H1286 C1271 0.961 . S
H1287 C1271 0.961 . S
H1288 C1272 0.931 . S
H1289 C1277 0.930 . S
H1290 C1278 0.956 . S
H1291 C1278 0.961 . S
H1292 C1278 0.961 . S
H1293 C1279 0.958 . S
H1294 C1279 0.961 . S
H1295 C1279 0.960 . S
C1296 C1297 1.391 . S
C1296 C1298 1.394 . S
C1296 H1312 0.931 . S
C1297 C1296 1.391 . S
C1297 C1301 1.376 . S
C1298 C1296 1.394 . S
C1298 C1299 1.369 . S
C1298 C1302 1.531 . S
C1299 C1298 1.369 . S
C1299 C1300 1.410 . S
C1299 C1307 1.503 . S
C1300 C1299 1.410 . S
C1300 C1301 1.392 . S
C1300 C1303 1.511 . S
C1301 C1297 1.376 . S
C1301 C1300 1.392 . S
C1301 H1313 0.929 . S
C1302 C1298 1.531 . S
C1302 H1314 0.960 . S
C1302 H1315 0.962 . S
C1302 H1316 0.960 . S
C1303 C1300 1.511 . S
C1303 H1317 0.961 . S
C1303 H1318 0.961 . S
C1303 H1319 0.961 . S
C1304 C1305 1.370 . S
C1304 C1306 1.363 . S
C1304 H1320 0.931 . S
C1305 C1304 1.370 . S
C1305 C1309 1.408 . S
C1306 C1304 1.363 . S
C1306 C1307 1.370 . S
C1306 C1310 1.524 . S
C1307 C1299 1.503 . S
C1307 C1306 1.370 . S
C1307 C1308 1.403 . S
C1308 C1307 1.403 . S
C1308 C1309 1.404 . S
C1308 C1311 1.539 . S
C1309 C1305 1.408 . S
C1309 C1308 1.404 . S
C1309 H1321 0.930 . S
C1310 C1306 1.524 . S
C1310 H1322 0.956 . S
C1310 H1323 0.961 . S
C1310 H1324 0.961 . S
C1311 C1308 1.539 . S
C1311 H1325 0.958 . S
C1311 H1326 0.961 . S
C1311 H1327 0.960 . S
H1312 C1296 0.931 . S
H1313 C1301 0.929 . S
H1314 C1302 0.960 . S
H1315 C1302 0.962 . S
H1316 C1302 0.960 . S
H1317 C1303 0.961 . S
H1318 C1303 0.961 . S
H1319 C1303 0.961 . S
H1320 C1304 0.931 . S
H1321 C1309 0.930 . S
H1322 C1310 0.956 . S
H1323 C1310 0.961 . S
H1324 C1310 0.961 . S
H1325 C1311 0.958 . S
H1326 C1311 0.961 . S
H1327 C1311 0.960 . S
C1328 C1329 1.391 . S
C1328 C1330 1.394 . S
C1328 H1344 0.931 . S
C1329 C1328 1.391 . S
C1329 C1333 1.376 . S
C1330 C1328 1.394 . S
C1330 C1331 1.369 . S
C1330 C1334 1.531 . S
C1331 C1330 1.369 . S
C1331 C1332 1.410 . S
C1331 C1339 1.503 . S
C1332 C1331 1.410 . S
C1332 C1333 1.392 . S
C1332 C1335 1.511 . S
C1333 C1329 1.376 . S
C1333 C1332 1.392 . S
C1333 H1345 0.929 . S
C1334 C1330 1.531 . S
C1334 H1346 0.960 . S
C1334 H1347 0.962 . S
C1334 H1348 0.960 . S
C1335 C1332 1.511 . S
C1335 H1349 0.961 . S
C1335 H1350 0.961 . S
C1335 H1351 0.961 . S
C1336 C1337 1.370 . S
C1336 C1338 1.363 . S
C1336 H1352 0.931 . S
C1337 C1336 1.370 . S
C1337 C1341 1.408 . S
C1338 C1336 1.363 . S
C1338 C1339 1.370 . S
C1338 C1342 1.524 . S
C1339 C1331 1.503 . S
C1339 C1338 1.370 . S
C1339 C1340 1.403 . S
C1340 C1339 1.403 . S
C1340 C1341 1.404 . S
C1340 C1343 1.539 . S
C1341 C1337 1.408 . S
C1341 C1340 1.404 . S
C1341 H1353 0.930 . S
C1342 C1338 1.524 . S
C1342 H1354 0.956 . S
C1342 H1355 0.961 . S
C1342 H1356 0.961 . S
C1343 C1340 1.539 . S
C1343 H1357 0.958 . S
C1343 H1358 0.961 . S
C1343 H1359 0.960 . S
H1344 C1328 0.931 . S
H1345 C1333 0.929 . S
H1346 C1334 0.960 . S
H1347 C1334 0.962 . S
H1348 C1334 0.960 . S
H1349 C1335 0.961 . S
H1350 C1335 0.961 . S
H1351 C1335 0.961 . S
H1352 C1336 0.931 . S
H1353 C1341 0.930 . S
H1354 C1342 0.956 . S
H1355 C1342 0.961 . S
H1356 C1342 0.961 . S
H1357 C1343 0.958 . S
H1358 C1343 0.961 . S
H1359 C1343 0.960 . S
C593 C221 1.473 . S
C601 C312 1.481 . S
C633 C396 1.478 . S
C625 C241 1.474 . S
C665 C395 1.482 . S
C657 C157 1.474 . S
C689 C177 1.463 . S
C697 C311 1.479 . S
C729 C492 1.467 . S
C721 C93 1.407 . S
C761 C576 1.483 . S
C753 C113 1.479 . S
C785 C29 1.399 . S
C793 C575 1.482 . S
C817 C49 1.477 . S
C825 C491 1.480 . S
C857 C314 1.311 . S
C849 C61 1.494 . S
C889 C398 1.357 . S
C881 C17 1.437 . S
C921 C410 1.400 . S
C913 C125 1.510 . S
C953 C326 1.395 . S
C945 C81 1.513 . S
C985 C494 1.337 . S
C977 C189 1.442 . S
C1009 C145 1.499 . S
C1017 C578 1.339 . S
C1049 C566 1.385 . S
C1041 C253 1.452 . S
C1073 C209 1.516 . S
C1081 C482 1.375 . S
C1113 C323 1.558 . S
C1105 C23 1.519 . S
C1145 C407 1.571 . S
C1137 C55 1.572 . S
C1169 C87 1.529 . S
C1177 C408 1.539 . S
C1209 C324 1.553 . S
C1201 C119 1.545 . S
C1241 C479 1.562 . S
C1233 C151 1.536 . S
C1265 C183 1.530 . S
C1273 C563 1.576 . S
C1297 C215 1.546 . S
C1305 C564 1.532 . S
C1329 C247 1.491 . S
C1337 C480 1.552 . S
