# Generated by pormake.
# Topology zzz, (3,6)-cn, num edge types: 1
# Building blocks:
#     Node 0, Type 0, BuildingBlock: BETDIP_clean_linker_0, # of connection points: 3
#     Node 1, Type 0, BuildingBlock: BETDIP_clean_linker_0, # of connection points: 3
#     Node 2, Type 0, BuildingBlock: BETDIP_clean_linker_0, # of connection points: 3
#     Node 3, Type 0, BuildingBlock: BETDIP_clean_linker_0, # of connection points: 3
#     Node 4, Type 0, BuildingBlock: BETDIP_clean_linker_0, # of connection points: 3
#     Node 5, Type 0, BuildingBlock: BETDIP_clean_linker_0, # of connection points: 3
#     Node 6, Type 0, BuildingBlock: BETDIP_clean_linker_0, # of connection points: 3
#     Node 7, Type 0, BuildingBlock: BETDIP_clean_linker_0, # of connection points: 3
#     Node 8, Type 1, BuildingBlock: BETDEL_clean_sbu_0, # of connection points: 6
#     Node 9, Type 1, BuildingBlock: BETDEL_clean_sbu_0, # of connection points: 6
#     Node 10, Type 1, BuildingBlock: BETDEL_clean_sbu_0, # of connection points: 6
#     Node 11, Type 1, BuildingBlock: BETDEL_clean_sbu_0, # of connection points: 6
#     Edge 12, Type (0, 1), BuildingBlock: EZIPEK_clean_linker_0, # of connection points: 2
#     Edge 13, Type (0, 1), BuildingBlock: EZIPEK_clean_linker_0, # of connection points: 2
#     Edge 14, Type (0, 1), BuildingBlock: EZIPEK_clean_linker_0, # of connection points: 2
#     Edge 15, Type (0, 1), BuildingBlock: EZIPEK_clean_linker_0, # of connection points: 2
#     Edge 16, Type (0, 1), BuildingBlock: EZIPEK_clean_linker_0, # of connection points: 2
#     Edge 17, Type (0, 1), BuildingBlock: EZIPEK_clean_linker_0, # of connection points: 2
#     Edge 18, Type (0, 1), BuildingBlock: EZIPEK_clean_linker_0, # of connection points: 2
#     Edge 19, Type (0, 1), BuildingBlock: EZIPEK_clean_linker_0, # of connection points: 2
#     Edge 20, Type (0, 1), BuildingBlock: EZIPEK_clean_linker_0, # of connection points: 2
#     Edge 21, Type (0, 1), BuildingBlock: EZIPEK_clean_linker_0, # of connection points: 2
#     Edge 22, Type (0, 1), BuildingBlock: EZIPEK_clean_linker_0, # of connection points: 2
#     Edge 23, Type (0, 1), BuildingBlock: EZIPEK_clean_linker_0, # of connection points: 2
#     Edge 24, Type (0, 1), BuildingBlock: EZIPEK_clean_linker_0, # of connection points: 2
#     Edge 25, Type (0, 1), BuildingBlock: EZIPEK_clean_linker_0, # of connection points: 2
#     Edge 26, Type (0, 1), BuildingBlock: EZIPEK_clean_linker_0, # of connection points: 2
#     Edge 27, Type (0, 1), BuildingBlock: EZIPEK_clean_linker_0, # of connection points: 2
#     Edge 28, Type (0, 1), BuildingBlock: EZIPEK_clean_linker_0, # of connection points: 2
#     Edge 29, Type (0, 1), BuildingBlock: EZIPEK_clean_linker_0, # of connection points: 2
#     Edge 30, Type (0, 1), BuildingBlock: EZIPEK_clean_linker_0, # of connection points: 2
#     Edge 31, Type (0, 1), BuildingBlock: EZIPEK_clean_linker_0, # of connection points: 2
#     Edge 32, Type (0, 1), BuildingBlock: EZIPEK_clean_linker_0, # of connection points: 2
#     Edge 33, Type (0, 1), BuildingBlock: EZIPEK_clean_linker_0, # of connection points: 2
#     Edge 34, Type (0, 1), BuildingBlock: EZIPEK_clean_linker_0, # of connection points: 2
#     Edge 35, Type (0, 1), BuildingBlock: EZIPEK_clean_linker_0, # of connection points: 2
# Relax obj value: 0.169
# Max RMSD: 0.185
# Mean RMSD: 0.120
data_MOF--net-zzz--node1-BETDEL_clean_sbu_0--node2-BETDIP_clean_linker_0--edge1-EZIPEK_clean_linker_0
_symmetry_space_group_name_H-M    P1
_symmetry_Int_Tables_number       1
_symmetry_cell_setting            triclinic
loop_
_symmetry_equiv_pos_as_xyz
'x, y, z'
_cell_length_a     35.998993
_cell_length_b     36.947589
_cell_length_c     10.872559
_cell_angle_alpha  91.195495
_cell_angle_beta   88.659996
_cell_angle_gamma 95.22565
loop_
_atom_site_label
_atom_site_type_symbol
_atom_site_fract_x
_atom_site_fract_y
_atom_site_fract_z
_atom_type_partial_charge
H0 H 0.75985 0.53347 0.27972 0.0
H1 H 0.76029 0.45993 0.96547 0.0
H2 H 0.85505 0.47433 0.19796 0.0
H3 H 0.74053 0.52474 0.89661 0.0
C4 C 0.71597 0.51682 0.95324 0.0
C5 C 0.77307 0.51326 0.22487 0.0
C6 C 0.80918 0.50429 0.25389 0.0
C7 C 0.75524 0.4973 0.11946 0.0
C8 C 0.77346 0.47197 0.04693 0.0
C9 C 0.80977 0.46441 0.07337 0.0
C10 C 0.82648 0.47945 0.17923 0.0
N11 N 0.72072 0.50875 0.07958 0.0
H12 H 0.97063 0.76252 0.26972 0.0
H13 H 0.03277 0.76793 0.92359 0.0
H14 H 0.02013 0.86489 0.13569 0.0
H15 H 0.04882 0.71038 0.00446 0.0
C16 C 0.01946 0.7005 0.01127 0.0
C17 C 0.98721 0.77792 0.20103 0.0
C18 C 0.99414 0.816 0.21502 0.0
C19 C 1.0023 0.75992 0.09763 0.0
C20 C 0.02307 0.78067 0.00748 0.0
C21 C 0.02912 0.81845 0.02167 0.0
C22 C 0.0155 0.83547 0.12618 0.0
N23 N 0.9948 0.72152 0.08097 0.0
H24 H 0.75531 0.98739 0.28455 0.0
H25 H 0.77396 0.0463 0.94614 0.0
H26 H 0.6652 0.03569 0.11579 0.0
H27 H 0.79687 0.97771 0.91795 0.0
C28 C 0.81769 0.99039 0.98005 0.0
C29 C 0.74504 1.00312 0.21179 0.0
C30 C 0.70738 0.01117 0.21376 0.0
C31 C 0.76885 0.01456 0.11179 0.0
C32 C 0.75552 0.03621 0.02042 0.0
C33 C 0.71811 0.04332 0.02102 0.0
C34 C 0.6944 0.03043 0.11663 0.0
N35 N 0.80541 1.00293 0.09782 0.0
H36 H 0.52549 0.76909 0.30756 0.0
H37 H 0.54972 0.76455 0.91634 0.0
H38 H 0.569 0.67519 0.14094 0.0
H39 H 0.498 0.80189 0.93725 0.0
C40 C 0.5147 0.82161 -0.00685 0.0
C41 C 0.53733 0.75572 0.22828 0.0
C42 C 0.54715 0.71961 0.23666 0.0
C43 C 0.5407 0.77334 0.113 0.0
C44 C 0.55051 0.7532 0.00716 0.0
C45 C 0.55756 0.71688 0.01749 0.0
C46 C 0.56204 0.70307 0.13341 0.0
N47 N 0.53147 0.8099 0.10145 0.0
H48 H 0.27031 0.47618 0.88344 0.0
H49 H 0.2642 0.53687 0.22823 0.0
H50 H 0.16986 0.52359 -0.00175 0.0
H51 H 0.3242 0.55116 0.18369 0.0
C52 C 0.33278 0.52405 0.16644 0.0
C53 C 0.25532 0.4922 0.94899 0.0
C54 C 0.21764 0.49841 0.92792 0.0
C55 C 0.27335 0.50724 0.05617 0.0
C56 C 0.25268 0.52728 0.14119 0.0
C57 C 0.21579 0.53308 0.11906 0.0
C58 C 0.19891 0.51925 0.01274 0.0
N59 N 0.31119 0.50104 0.08176 0.0
H60 H 0.04723 0.27262 0.87409 0.0
H61 H 0.97239 0.26536 0.19236 0.0
H62 H 0.9925 0.16973 0.98349 0.0
H63 H 0.96523 0.32498 0.13358 0.0
C64 C 0.99471 0.33415 0.12602 0.0
C65 C 0.02798 0.25695 0.9348 0.0
C66 C 0.02075 0.21909 0.91508 0.0
C67 C 1.01 0.27437 0.03393 0.0
C68 C 0.98536 0.25321 0.1129 0.0
C69 C 0.97997 0.21547 0.0961 0.0
C70 C 0.99675 0.19908 -0.00428 0.0
N71 N 0.01932 0.31216 0.06003 0.0
H72 H 0.27249 0.05179 0.88236 0.0
H73 H 0.25225 0.98343 0.20004 0.0
H74 H 0.36103 0.99686 0.0324 0.0
H75 H 0.19175 0.97879 0.11585 0.0
C76 C 0.19143 1.00819 0.11805 0.0
C77 C 0.28222 0.03384 0.94967 0.0
C78 C 0.3196 0.02505 0.94452 0.0
C79 C 0.2574 0.01882 0.04207 0.0
C80 C 0.27045 0.99492 0.12747 0.0
C81 C 0.30788 0.98772 0.12532 0.0
C82 C 0.33196 1.00266 0.03385 0.0
N83 N 0.2204 0.02968 0.05438 0.0
H84 H 0.47545 0.25511 0.835 0.0
H85 H 0.54793 0.2642 0.14847 0.0
H86 H 0.53507 0.35735 0.93285 0.0
H87 H 0.55508 0.20283 0.0816 0.0
C88 C 0.52512 0.19577 0.08565 0.0
C89 C 0.49536 0.27086 0.89247 0.0
C90 C 0.50471 0.30817 0.86958 0.0
C91 C 0.51192 0.25422 -0.00856 0.0
C92 C 0.53663 0.27565 0.06807 0.0
C93 C 0.5439 0.31289 0.04866 0.0
C94 C 0.52937 0.3283 0.94682 0.0
N95 N 0.50114 0.21717 0.02104 0.0
Dy96 Dy 0.03408 1.00406 0.65376 0.0
C97 C 0.95795 0.08091 0.31589 0.0
C98 C 0.05934 0.95308 0.80172 0.0
Dy99 Dy 0.98598 0.0326 0.46923 0.0
O100 O 0.06977 0.95913 0.68908 0.0
O101 O 0.03828 0.97821 0.83851 0.0
O102 O 0.08508 0.03288 0.56732 0.0
O103 O 0.04131 0.01263 0.45546 0.0
C104 C 0.07275 0.03106 0.4555 0.0
C105 C 0.94733 1.00646 0.66796 0.0
O106 O 0.9836 0.97619 0.38895 0.0
O107 O 1.00117 0.95471 0.57394 0.0
O108 O 0.94786 0.07526 0.42909 0.0
O109 O 0.98146 0.05764 0.28303 0.0
O110 O 0.93489 1.00396 0.55654 0.0
O111 O 0.97899 0.02436 0.66785 0.0
O112 O 0.0361 0.06027 0.73549 0.0
O113 O 0.01899 0.08195 0.55008 0.0
C114 C 0.98915 0.94882 0.46089 0.0
C115 C 0.03067 0.08778 0.66374 0.0
Dy116 Dy 0.48984 0.99053 0.48236 0.0
C117 C 0.597 0.07634 0.76189 0.0
C118 C 0.43044 0.95307 0.36827 0.0
Dy119 Dy 0.5353 0.03967 0.66117 0.0
O120 O 0.4562 0.97452 0.31535 0.0
O121 O 0.43916 0.95011 0.48218 0.0
O122 O 0.53791 0.98639 0.34733 0.0
O123 O 0.54846 0.99623 0.53337 0.0
C124 C 0.5633 0.99642 0.427 0.0
C125 C 0.46198 0.03348 0.7201 0.0
O126 O 0.52754 0.08027 0.51414 0.0
O127 O 0.48398 0.04492 0.3989 0.0
O128 O 0.5698 0.05895 0.82286 0.0
O129 O 0.58869 0.07588 0.64657 0.0
O130 O 0.48811 0.0422 0.79886 0.0
O131 O 0.47619 0.03401 0.61219 0.0
O132 O 0.49532 0.9512 0.63524 0.0
O133 O 0.5413 0.98529 0.74431 0.0
C134 C 0.505 0.0757 0.41919 0.0
C135 C 0.51916 0.95509 0.72665 0.0
Dy136 Dy 0.5061 0.52334 0.66606 0.0
C137 C 0.56271 0.44985 0.26479 0.0
C138 C 0.52139 0.57619 0.83563 0.0
Dy139 Dy 0.54216 0.49702 0.44436 0.0
O140 O 0.48864 0.55752 0.82803 0.0
O141 O 0.54522 0.56252 0.76181 0.0
O142 O 0.44802 0.50456 0.61028 0.0
O143 O 0.48883 0.52042 0.47406 0.0
C144 C 0.45571 0.50603 0.49216 0.0
C145 C 0.58982 0.51254 0.62846 0.0
O146 O 0.54654 0.55548 0.38423 0.0
O147 O 0.51777 0.57529 0.56188 0.0
O148 O 0.57911 0.45653 0.36796 0.0
O149 O 0.53702 0.47209 0.25375 0.0
O150 O 0.59784 0.51992 0.51408 0.0
O151 O 0.55713 0.49695 0.63703 0.0
O152 O 0.50249 0.46542 0.72409 0.0
O153 O 0.50857 0.4473 0.52133 0.0
C154 C 0.53467 0.58208 0.45491 0.0
C155 C 0.50154 0.43933 0.63829 0.0
Dy156 Dy 0.99507 0.48744 0.68999 0.0
C157 C 0.08168 0.56622 0.34409 0.0
C158 C 0.95145 0.45721 0.87713 0.0
Dy159 Dy 0.02964 0.535 0.50413 0.0
O160 O 0.9579 0.44194 0.77174 0.0
O161 O 0.97413 0.48641 0.88644 0.0
O162 O 0.97269 0.44848 0.54283 0.0
O163 O 0.02481 0.47584 0.51504 0.0
C164 C 1.00041 0.45387 0.46598 0.0
C165 C 1.00506 0.57304 0.69962 0.0
O166 O 0.9714 0.52615 0.431 0.0
O167 O 0.94824 0.51813 0.62625 0.0
O168 O 0.07991 0.57244 0.46131 0.0
O169 O 0.05159 0.54639 0.31198 0.0
O170 O 1.0038 0.58312 0.58638 0.0
O171 O 0.02016 0.54355 0.7022 0.0
O172 O 0.05363 0.48028 0.74768 0.0
O173 O 0.07976 0.51168 0.5811 0.0
C174 C 0.94258 0.52339 0.50909 0.0
C175 C 0.08342 0.4933 0.68258 0.0
C176 C 0.16508 0.04795 0.28533 0.0
C177 C 0.15926 0.02364 0.18303 0.0
C178 C 0.09193 0.0166 0.23341 0.0
C179 C 0.09899 0.03581 0.34608 0.0
N180 N 0.13696 0.08424 0.44493 0.0
N181 N 0.11722 0.98657 0.05382 0.0
C182 C 0.13399 0.05612 0.36109 0.0
C183 C 0.12254 1.00895 0.15458 0.0
N184 N 0.20044 0.06077 0.31695 0.0
N185 N 0.05607 1.00787 0.19784 0.0
H186 H 0.13825 0.98334 -0.01201 0.0
H187 H 0.09268 0.97015 0.03839 0.0
H188 H 0.03341 0.01717 0.24573 0.0
H189 H 0.04878 0.99596 0.11321 0.0
H190 H 0.20662 0.07464 0.39937 0.0
H191 H 0.22412 0.0554 0.26553 0.0
H192 H 0.16078 0.10226 0.4536 0.0
H193 H 0.11387 0.09224 0.49488 0.0
C194 C 0.50001 0.17038 0.28786 0.0
C195 C 0.51114 0.16442 0.16342 0.0
C196 C 0.51596 0.09998 0.20441 0.0
C197 C 0.50443 0.10566 0.32906 0.0
N198 N 0.4775 0.14409 0.48196 0.0
N199 N 0.52061 0.1227 -0.00404 0.0
C200 C 0.494 0.14027 0.36851 0.0
C201 C 0.51604 0.12885 0.11951 0.0
N202 N 0.49655 0.20502 0.33012 0.0
N203 N 0.52928 0.06782 0.16862 0.0
H204 H 0.52089 0.14341 0.932 0.0
H205 H 0.52026 0.09681 0.95618 0.0
H206 H 0.53051 0.04616 0.22758 0.0
H207 H 0.54215 0.06363 0.08339 0.0
H208 H 0.49325 0.21193 0.4228 0.0
H209 H 0.49877 0.22731 0.27233 0.0
H210 H 0.46601 0.16763 0.51226 0.0
H211 H 0.47231 0.12248 0.54208 0.0
C212 C 0.37197 0.48116 0.28377 0.0
C213 C 0.36749 0.51552 0.23094 0.0
C214 C 0.41798 0.54338 0.35956 0.0
C215 C 0.4255 0.50882 0.4015 0.0
N216 N 0.41292 0.44373 0.38965 0.0
N217 N 0.39455 0.57667 0.1939 0.0
C218 C 0.40364 0.47732 0.35853 0.0
C219 C 0.39335 0.54565 0.2607 0.0
N220 N 0.34508 0.45289 0.27104 0.0
N221 N 0.4323 0.57427 0.41907 0.0
H222 H 0.37873 0.57871 0.11553 0.0
H223 H 0.41418 0.59876 0.20813 0.0
H224 H 0.44864 0.57387 0.49677 0.0
H225 H 0.42453 0.59999 0.3994 0.0
H226 H 0.3451 0.4288 0.31917 0.0
H227 H 0.32099 0.45431 0.22135 0.0
H228 H 0.40073 0.4197 0.35032 0.0
H229 H 0.43486 0.44007 0.4478 0.0
C230 C 1.01135 0.40096 0.163 0.0
C231 C 1.00835 0.36513 0.20829 0.0
C232 C 1.01398 0.38958 0.41959 0.0
C233 C 1.00933 0.42477 0.37585 0.0
N234 N 1.00571 0.46507 0.20641 0.0
N235 N 1.00999 0.32457 0.37783 0.0
C236 C 1.00937 0.43093 0.24736 0.0
C237 C 1.01115 0.35928 0.33614 0.0
N238 N 0.01618 0.40611 0.03944 0.0
N239 N 0.02173 0.38536 0.54073 0.0
H240 H 1.01154 0.30223 0.31857 0.0
H241 H 1.00665 0.31779 0.47012 0.0
H242 H 0.02451 0.40714 0.60345 0.0
H243 H 0.02872 0.36111 0.57705 0.0
H244 H 0.02185 0.43152 0.00013 0.0
H245 H 0.01765 0.38443 0.97693 0.0
H246 H 1.00141 0.47095 0.11498 0.0
H247 H 1.00539 0.48753 0.26581 0.0
C248 C 0.87033 0.96207 0.87582 0.0
C249 C 0.85732 0.99319 0.93465 0.0
C250 C 0.91334 0.02964 0.85779 0.0
C251 C 0.92158 1.00034 0.77718 0.0
N252 N 0.90715 0.93808 0.70945 0.0
N253 N 0.86509 0.05811 0.97219 0.0
C254 C 0.90008 0.96625 0.78739 0.0
C255 C 0.8788 0.02728 0.92551 0.0
N256 N 0.85413 0.92837 0.90511 0.0
N257 N 0.93781 0.05995 0.86944 0.0
H258 H 0.84044 0.05809 0.02389 0.0
H259 H 0.87689 0.08415 0.95159 0.0
H260 H 0.96343 0.06332 0.82344 0.0
H261 H 0.93452 0.08019 0.93601 0.0
H262 H 0.86449 0.90429 0.87426 0.0
H263 H 0.8326 0.9246 0.97091 0.0
H264 H 0.88945 0.91427 0.70135 0.0
H265 H 0.92993 0.93911 0.64837 0.0
C266 C 0.55246 0.87216 0.88253 0.0
C267 C 0.51951 0.85979 0.94941 0.0
C268 C 0.49104 0.91503 0.8946 0.0
C269 C 0.52125 0.92423 0.8116 0.0
N270 N 0.58084 0.91169 0.72342 0.0
N271 N 0.45648 0.86825 0.01503 0.0
C272 C 0.55232 0.90313 0.80603 0.0
C273 C 0.48861 0.88103 0.95486 0.0
N274 N 0.58371 0.85405 0.8913 0.0
N275 N 0.46541 0.93945 0.9193 0.0
H276 H 0.4544 0.84457 0.06639 0.0
H277 H 0.43142 0.88 0.00804 0.0
H278 H 0.4676 0.96526 0.88124 0.0
H279 H 0.44452 0.9358 -0.013 0.0
H280 H 0.60967 0.86344 0.85449 0.0
H281 H 0.58448 0.83103 0.94461 0.0
H282 H 0.60224 0.89518 0.70405 0.0
H283 H 0.58199 0.93449 0.66798 0.0
C284 C 0.65721 0.48327 0.86994 0.0
C285 C 0.67885 0.51656 0.894 0.0
C286 C 0.6414 0.54725 0.74872 0.0
C287 C 0.61865 0.51417 0.72705 0.0
N288 N 0.60171 0.45155 0.78473 0.0
N289 N 0.68696 0.58147 0.87796 0.0
C290 C 0.62519 0.48264 0.79446 0.0
C291 C 0.66936 0.54892 0.84009 0.0
N292 N 0.66898 0.45156 0.91053 0.0
N293 N 0.63697 0.57705 0.67997 0.0
H294 H 0.7072 0.58343 0.94557 0.0
H295 H 0.67923 0.60661 0.85172 0.0
H296 H 0.61624 0.57764 0.61529 0.0
H297 H 0.65529 0.60052 0.6808 0.0
H298 H 0.658 0.42595 0.88035 0.0
H299 H 0.69152 0.4507 0.9684 0.0
H300 H 0.60193 0.43009 0.84535 0.0
H301 H 0.58071 0.44744 0.72083 0.0
C302 C 0.97968 0.65813 0.8693 0.0
C303 C 1.00836 0.66373 0.95683 0.0
C304 C 0.03239 0.60603 0.89208 0.0
C305 C 1.00356 0.60019 0.80378 0.0
N306 N 0.94298 0.61474 0.74053 0.0
N307 N 0.05285 0.63721 0.08018 0.0
C308 C 0.9749 0.62428 0.80355 0.0
C309 C 0.03156 0.63565 0.97759 0.0
N310 N 0.95861 0.68571 0.84211 0.0
N311 N 0.06221 0.58558 0.89043 0.0
H312 H 0.05269 0.65847 0.14495 0.0
H313 H 0.06697 0.61545 0.10757 0.0
H314 H 0.06536 0.56346 0.83226 0.0
H315 H 0.08594 0.59247 0.94207 0.0
H316 H 0.94042 0.68438 0.76866 0.0
H317 H 0.96127 0.71102 0.88648 0.0
H318 H 0.91975 0.62964 0.74602 0.0
H319 H 0.93824 0.58987 0.69372 0.0
C320 C 0.98954 0.18004 0.2764 0.0
C321 C 0.96374 0.19061 0.192 0.0
C322 C 0.92856 0.13086 0.21059 0.0
C323 C 0.9598 0.11803 0.2673 0.0
N324 N 0.02355 0.13055 0.33569 0.0
N325 N 0.90676 0.1776 0.08319 0.0
C326 C 0.9912 0.14267 0.29636 0.0
C327 C 0.93204 0.16664 0.16279 0.0
N328 N 1.01389 0.20551 0.3313 0.0
N329 N 0.89611 0.10891 0.20095 0.0
H330 H 0.90858 0.20422 0.05145 0.0
H331 H 0.8853 0.16023 0.04609 0.0
H332 H 0.89341 0.08209 0.23062 0.0
H333 H 0.87143 0.11805 0.17064 0.0
H334 H 0.03155 0.19931 0.40101 0.0
H335 H 1.01304 0.23323 0.3175 0.0
H336 H 0.04789 0.14761 0.34864 0.0
H337 H 0.02787 0.10321 0.34008 0.0
C338 C 0.34184 0.93579 0.18933 0.0
C339 C 0.32457 0.96763 0.22334 0.0
C340 C 0.37202 0.98432 0.37385 0.0
C341 C 0.39127 0.95409 0.3336 0.0
N342 N 0.39032 0.896 0.22964 0.0
N343 N 0.31384 0.01224 0.38141 0.0
C344 C 0.37451 0.92781 0.25089 0.0
C345 C 0.33617 0.98802 0.32874 0.0
N346 N 0.32829 0.91502 0.09228 0.0
N347 N 0.38917 0.01133 0.44596 0.0
H348 H 0.28744 0.01576 0.34906 0.0
H349 H 0.31972 0.02561 0.46503 0.0
H350 H 0.41598 1.01073 0.47887 0.0
H351 H 0.37797 0.03591 0.4651 0.0
H352 H 0.34174 0.89378 0.05238 0.0
H353 H 0.30361 0.92015 0.04989 0.0
H354 H 0.37806 0.87452 0.17682 0.0
H355 H 0.41458 0.89018 0.27315 0.0
C356 C 0.59062 0.36247 0.11379 0.0
C357 C 0.55887 0.33874 0.14442 0.0
C358 C 0.52937 0.38786 0.24664 0.0
C359 C 0.56051 0.41258 0.21297 0.0
N360 N 0.6252 0.42114 0.14662 0.0
N361 N 0.50815 0.32526 0.2882 0.0
C362 C 0.59279 0.39911 0.15763 0.0
C363 C 0.53199 0.35026 0.2288 0.0
N364 N 0.61728 0.35033 0.03611 0.0
N365 N 0.49683 0.39975 0.29224 0.0
H366 H 0.51013 0.29742 0.27772 0.0
H367 H 0.48989 0.3322 0.35884 0.0
H368 H 0.4921 0.42689 0.30365 0.0
H369 H 0.47267 0.38245 0.30669 0.0
H370 H 0.6391 0.36721 -0.00204 0.0
H371 H 0.6163 0.32311 0.00723 0.0
H372 H 0.65057 0.41131 0.12146 0.0
H373 H 0.62715 0.44874 0.17043 0.0
C374 C 0.17785 0.58236 0.19381 0.0
C375 C 0.19118 0.54809 0.21298 0.0
C376 C 0.13235 0.52564 0.30737 0.0
C377 C 0.11843 0.56007 0.29014 0.0
N378 N 0.13166 0.62402 0.24984 0.0
N379 N 0.18723 0.49357 0.33061 0.0
C380 C 0.14246 0.58954 0.24443 0.0
C381 C 0.17058 0.52223 0.28617 0.0
N382 N 0.19839 0.60716 0.12286 0.0
N383 N 0.10927 0.49561 0.3385 0.0
H384 H 0.21546 0.49047 0.31512 0.0
H385 H 0.17415 0.47555 0.39403 0.0
H386 H 0.08063 0.49543 0.3518 0.0
H387 H 0.11815 0.46955 0.33916 0.0
H388 H 0.18837 0.63102 0.09338 0.0
H389 H 0.22513 0.60274 0.08995 0.0
H390 H 0.1494 0.64685 0.22691 0.0
H391 H 0.10576 0.62996 0.28605 0.0
C392 C 0.01588 0.85714 0.85336 0.0
C393 C 0.04347 0.84274 0.92198 0.0
C394 C 0.08537 0.89738 0.88225 0.0
C395 C 0.05426 0.91522 0.84526 0.0
N396 N 0.98765 0.91127 0.80517 0.0
N397 N 0.10567 0.84758 -0.00137 0.0
C398 C 0.0189 0.89487 0.83209 0.0
C399 C 0.07896 0.86217 0.93349 0.0
N400 N 0.98588 0.83495 0.81455 0.0
N401 N 0.12069 0.91382 0.86847 0.0
H402 H 0.10164 0.82118 0.03215 0.0
H403 H 0.13073 0.86203 0.02288 0.0
H404 H 0.12619 0.93938 0.82966 0.0
H405 H 0.14447 0.9008 0.88561 0.0
H406 H 0.96624 0.84337 0.75489 0.0
H407 H 0.98323 0.80711 0.83111 0.0
H408 H 0.96099 0.8977 0.80897 0.0
H409 H 0.9872 0.93891 0.79141 0.0
C410 C 0.69019 0.04047 0.8157 0.0
C411 C 0.70127 0.06191 0.91953 0.0
C412 C 0.65189 0.10179 0.88339 0.0
C413 C 0.63578 0.07511 0.80066 0.0
N414 N 0.63811 0.01684 0.69459 0.0
N415 N 0.69751 0.11601 0.04319 0.0
C416 C 0.65495 0.04431 0.76569 0.0
C417 C 0.68412 0.09421 0.94825 0.0
N418 N 0.71243 0.01528 0.76877 0.0
N419 N 0.63578 0.13359 0.9016 0.0
H420 H 0.72199 0.11124 0.08755 0.0
H421 H 0.68432 0.1379 0.07936 0.0
H422 H 0.6119 0.13919 0.85544 0.0
H423 H 0.64726 0.15526 0.95515 0.0
H424 H 0.70717 1.00124 0.68597 0.0
H425 H 0.73828 0.01145 0.80478 0.0
H426 H 0.64912 0.992 0.67896 0.0
H427 H 0.61148 0.01715 0.65997 0.0
C428 C 0.51292 0.67745 0.88919 0.0
C429 C 0.55053 0.68905 0.91862 0.0
C430 C 0.56634 0.62665 0.90566 0.0
C431 C 0.52902 0.61462 0.87485 0.0
N432 N 0.47222 0.63223 0.78444 0.0
N433 N 0.61463 0.67685 0.90393 0.0
C434 C 0.50372 0.64093 0.85059 0.0
C435 C 0.57785 0.66424 0.90481 0.0
N436 N 0.48541 0.70039 0.9034 0.0
N437 N 0.59031 0.60244 0.94146 0.0
H438 H 0.62288 0.70471 0.90773 0.0
H439 H 0.63603 0.66005 0.88751 0.0
H440 H 0.58221 0.57479 0.95135 0.0
H441 H 0.61681 0.61048 0.97431 0.0
H442 H 0.45714 0.69124 0.90131 0.0
H443 H 0.49041 0.72813 0.9207 0.0
H444 H 0.45535 0.6518 0.75571 0.0
H445 H 0.46512 0.60682 0.74462 0.0
C446 C 0.85702 0.42193 0.01477 0.0
C447 C 0.83535 0.44998 0.97971 0.0
C448 C 0.88961 0.48328 0.88889 0.0
C449 C 0.91241 0.45567 0.92391 0.0
N450 N 0.91558 0.39433 -0.00656 0.0
N451 N 0.82787 0.49513 0.82867 0.0
C452 C 0.89531 0.42327 0.97716 0.0
C453 C 0.85059 0.47598 0.89599 0.0
N454 N 0.8413 0.39567 0.09093 0.0
N455 N 0.9043 0.51702 0.85384 0.0
H456 H 0.79905 0.48918 0.82885 0.0
H457 H 0.838 0.51324 0.7609 0.0
H458 H 0.93235 0.52618 0.85538 0.0
H459 H 0.88774 0.5381 0.83776 0.0
H460 H 0.85635 0.37667 0.13249 0.0
H461 H 0.81295 0.39423 0.11521 0.0
H462 H 0.90378 0.36906 0.02236 0.0
H463 H 0.94393 0.39503 0.97076 0.0
C464 C 1.01171 0.18698 0.71827 0.0
C465 C 0.03666 0.19763 0.81263 0.0
C466 C 0.06587 0.1404 0.77966 0.0
C467 C 0.03451 0.12629 0.71081 0.0
N468 N 0.97315 0.13598 0.63686 0.0
N469 N 0.08972 0.18595 0.92983 0.0
C470 C 1.00656 0.14975 0.68321 0.0
C471 C 0.06508 0.17504 0.84011 0.0
N472 N 0.99047 0.21192 0.67152 0.0
N473 N 0.09636 0.12115 0.78608 0.0
H474 H 0.09018 0.21176 0.97113 0.0
H475 H 0.10831 0.16911 0.96576 0.0
H476 H 0.09815 0.0963 0.74007 0.0
H477 H 0.12108 0.13144 0.82705 0.0
H478 H 0.97326 0.20629 0.5964 0.0
H479 H 0.99348 0.23913 0.70072 0.0
H480 H 0.95113 0.15179 0.62297 0.0
H481 H 0.9654 0.1082 0.62938 0.0
C482 C 0.37309 0.06714 0.86404 0.0
C483 C 0.34732 0.03626 0.84531 0.0
C484 C 0.39516 1.00534 0.73501 0.0
C485 C 0.42143 0.03606 0.75076 0.0
N486 N 0.43229 0.09981 0.80442 0.0
N487 N 0.33004 0.98267 0.72455 0.0
C488 C 0.40929 0.06832 0.80623 0.0
C489 C 0.35704 1.00821 0.76445 0.0
N490 N 0.36365 0.09421 0.9427 0.0
N491 N 0.40692 0.97228 0.7053 0.0
H492 H 0.30194 0.98416 0.74854 0.0
H493 H 0.33526 0.96274 0.65861 0.0
H494 H 0.43502 0.96851 0.69681 0.0
H495 H 0.38923 0.94831 0.70386 0.0
H496 H 0.38256 0.11541 0.97261 0.0
H497 H 0.33688 0.09434 0.98168 0.0
H498 H 0.42394 0.12477 0.83507 0.0
H499 H 0.45866 0.10152 0.76197 0.0
C500 C 0.46276 0.35437 0.80968 0.0
C501 C 0.48877 0.32953 0.77204 0.0
C502 C 0.51854 0.37388 0.62896 0.0
C503 C 0.49432 0.40016 0.67278 0.0
N504 N 0.43575 0.41097 0.77277 0.0
N505 N 0.53016 0.31001 0.61476 0.0
C506 C 0.46379 0.3889 0.75262 0.0
C507 C 0.51213 0.33732 0.66858 0.0
N508 N 0.43906 0.34574 0.90656 0.0
N509 N 0.54978 0.38418 0.55997 0.0
H510 H 0.52607 0.28343 0.64669 0.0
H511 H 0.54563 0.31293 0.53279 0.0
H512 H 0.55803 0.41099 0.53821 0.0
H513 H 0.56985 0.36664 0.53511 0.0
H514 H 0.42263 0.36416 0.95016 0.0
H515 H 0.43723 0.32005 0.94578 0.0
H516 H 0.41138 0.40311 0.82251 0.0
H517 H 0.43527 0.43584 0.7294 0.0
C518 C 0.18879 0.512 0.73495 0.0
C519 C 0.19492 0.48513 0.82007 0.0
C520 C 0.1318 0.45634 0.77875 0.0
C521 C 0.12253 0.4889 0.72342 0.0
N522 N 0.14351 0.55143 0.67214 0.0
N523 N 0.17293 0.42966 0.91901 0.0
C524 C 0.15157 0.51753 0.70471 0.0
C525 C 0.16681 0.45614 0.83833 0.0
N526 N 0.21834 0.53455 0.69391 0.0
N527 N 0.10783 0.42557 0.77251 0.0
H528 H 0.19884 0.42858 0.95942 0.0
H529 H 0.15213 0.41017 0.94902 0.0
H530 H 0.08314 0.42415 0.72383 0.0
H531 H 0.11445 0.40054 0.80381 0.0
H532 H 0.21608 0.55343 0.62511 0.0
H533 H 0.24551 0.53127 0.72055 0.0
H534 H 0.16368 0.57344 0.66578 0.0
H535 H 0.11649 0.5592 0.66938 0.0
C536 C 0.95147 0.86035 0.29829 0.0
C537 C 0.98078 0.83822 0.31981 0.0
C538 C 1.01355 0.88729 0.43764 0.0
C539 C 0.98478 0.91026 0.41531 0.0
N540 N 0.92131 0.91475 0.35467 0.0
N541 N 0.03078 0.82548 0.44824 0.0
C542 C 0.95194 0.89553 0.35554 0.0
C543 C 1.00805 0.84983 0.40604 0.0
N544 N 0.92465 0.84845 0.21661 0.0
N545 N 0.04772 0.90172 0.47599 0.0
H546 H 0.0274 0.79807 0.4215 0.0
H547 H 0.04981 0.83179 0.51803 0.0
H548 H 0.05505 0.92962 0.48146 0.0
H549 H 0.07031 0.88634 0.48547 0.0
H550 H 0.90503 0.8648 0.1843 0.0
H551 H 0.92334 0.82225 0.17798 0.0
H552 H 0.89567 0.90409 0.32105 0.0
H553 H 0.92063 0.94017 0.39777 0.0
C554 C 0.6579 0.96781 0.31327 0.0
C555 C 0.67966 1.00184 0.31515 0.0
C556 C 0.62645 0.03121 0.39787 0.0
C557 C 0.60429 0.99746 0.39952 0.0
N558 N 0.6018 0.93207 0.38578 0.0
N559 N 0.68871 0.0619 0.40335 0.0
C560 C 0.62109 0.96511 0.36703 0.0
C561 C 0.66539 0.03175 0.37649 0.0
N562 N 0.67152 0.93883 0.25356 0.0
N563 N 0.61009 0.063 0.40211 0.0
H564 H 0.71738 0.0628 0.38452 0.0
H565 H 0.68003 0.08389 0.45466 0.0
H566 H 0.58133 0.06349 0.40193 0.0
H567 H 0.62492 0.08832 0.39031 0.0
H568 H 0.65548 0.91445 0.23575 0.0
H569 H 0.69871 0.93998 0.21758 0.0
H570 H 0.61366 0.90754 0.37332 0.0
H571 H 0.57483 0.92944 0.42387 0.0
C572 C 0.50647 0.66544 0.29242 0.0
C573 C 0.53356 0.69307 0.3331 0.0
C574 C 0.55589 0.64953 0.4753 0.0
C575 C 0.53538 0.6203 0.41117 0.0
N576 N 0.49395 0.60137 0.24542 0.0
N577 N 0.58393 0.712 0.46618 0.0
C578 C 0.5112 0.62851 0.31645 0.0
C579 C 0.55781 0.68541 0.42739 0.0
N580 N 0.47804 0.67464 0.22196 0.0
N581 N 0.57368 0.64319 0.58102 0.0
H582 H 0.58441 0.73863 0.43531 0.0
H583 H 0.60561 0.70732 0.52391 0.0
H584 H 0.57313 0.61752 0.61861 0.0
H585 H 0.58634 0.66386 0.63642 0.0
H586 H 0.45614 0.6561 0.19435 0.0
H587 H 0.47497 0.7017 0.20157 0.0
H588 H 0.48033 0.6064 0.16485 0.0
H589 H 0.49583 0.57387 0.2607 0.0
C590 C 0.86126 0.5493 0.3193 0.0
C591 C 0.83292 0.52188 0.35297 0.0
C592 C 0.87396 0.49904 0.50376 0.0
C593 C 0.90346 0.52533 0.46598 0.0
N594 N 0.92036 0.5828 0.36891 0.0
N595 N 0.80731 0.48027 0.50416 0.0
C596 C 0.89552 0.55292 0.38378 0.0
C597 C 0.83758 0.50063 0.45656 0.0
N598 N 0.85621 0.5702 0.22008 0.0
N599 N 0.88098 0.47054 0.57524 0.0
H600 H 0.78081 0.481 0.46759 0.0
H601 H 0.80775 0.46592 0.58548 0.0
H602 H 0.90721 0.46633 0.60666 0.0
H603 H 0.86128 0.44888 0.59451 0.0
H604 H 0.87743 0.58736 0.17977 0.0
H605 H 0.83078 0.56897 0.17528 0.0
H606 H 0.91478 0.60515 0.31786 0.0
H607 H 0.94496 0.58687 0.4181 0.0
loop_
_geom_bond_atom_site_label_1
_geom_bond_atom_site_label_2
_geom_bond_distance
_geom_bond_site_symmetry_2
_ccdc_geom_bond_type
H0 C5 0.930 . S
H1 C8 0.930 1_556 S
H2 C10 0.930 . S
H3 C4 1.016 1_556 S
C4 H3 1.016 1_554 S
C4 N11 1.286 . S
C5 H0 0.930 . S
C5 C6 1.397 . S
C5 C7 1.361 . S
C6 C5 1.397 . S
C6 C10 1.390 . S
C7 C5 1.361 . S
C7 C8 1.393 . S
C7 N11 1.413 . S
C8 H1 0.930 1_554 S
C8 C7 1.393 . S
C8 C9 1.399 . S
C9 C8 1.399 . S
C9 C10 1.381 . S
C10 H2 0.930 . S
C10 C6 1.390 . S
C10 C9 1.381 . S
N11 C4 1.286 . S
N11 C7 1.413 . S
H12 C17 0.930 . S
H13 C20 0.930 . S
H14 C22 0.930 . S
H15 C16 1.016 1_556 S
C16 H15 1.016 1_554 S
C16 N23 1.286 1_655 S
C17 H12 0.930 . S
C17 C18 1.397 . S
C17 C19 1.361 . S
C18 C17 1.397 . S
C18 C22 1.390 1_455 S
C19 C17 1.361 . S
C19 C20 1.393 1_554 S
C19 N23 1.413 . S
C20 H13 0.930 . S
C20 C19 1.393 1_556 S
C20 C21 1.405 1_556 S
C21 C20 1.405 1_554 S
C21 C22 1.379 1_455 S
C22 H14 0.930 . S
C22 C18 1.390 1_655 S
C22 C21 1.379 1_655 S
N23 C16 1.286 1_455 S
N23 C19 1.413 . S
H24 C29 0.930 . S
H25 C32 0.930 . S
H26 C34 0.930 . S
H27 C28 1.016 . S
C28 H27 1.016 . S
C28 N35 1.286 1_556 S
C29 H24 0.930 . S
C29 C30 1.397 . S
C29 C31 1.361 . S
C30 C29 1.397 . S
C30 C34 1.390 . S
C31 C29 1.361 . S
C31 C32 1.393 1_554 S
C31 N35 1.413 . S
C32 H25 0.930 . S
C32 C31 1.393 1_556 S
C32 C33 1.399 . S
C33 C32 1.399 . S
C33 C34 1.381 1_556 S
C34 H26 0.930 . S
C34 C30 1.390 . S
C34 C33 1.381 1_554 S
N35 C28 1.286 1_554 S
N35 C31 1.413 . S
H36 C41 0.930 . S
H37 C44 0.930 1_556 S
H38 C46 0.930 . S
H39 C40 1.016 1_556 S
C40 H39 1.016 1_554 S
C40 N47 1.286 . S
C41 H36 0.930 . S
C41 C42 1.397 . S
C41 C43 1.361 . S
C42 C41 1.397 . S
C42 C46 1.390 . S
C43 C41 1.361 . S
C43 C44 1.393 . S
C43 N47 1.413 . S
C44 H37 0.930 1_554 S
C44 C43 1.393 . S
C44 C45 1.399 . S
C45 C44 1.399 . S
C45 C46 1.381 . S
C46 H38 0.930 . S
C46 C42 1.390 . S
C46 C45 1.381 . S
N47 C40 1.286 . S
N47 C43 1.413 . S
H48 C53 0.930 . S
H49 C56 0.930 . S
H50 C58 0.930 . S
H51 C52 1.016 . S
C52 H51 1.016 . S
C52 N59 1.286 . S
C53 H48 0.930 . S
C53 C54 1.397 . S
C53 C55 1.361 1_556 S
C54 C53 1.397 . S
C54 C58 1.390 1_556 S
C55 C53 1.361 1_554 S
C55 C56 1.393 . S
C55 N59 1.413 . S
C56 H49 0.930 . S
C56 C55 1.393 . S
C56 C57 1.399 . S
C57 C56 1.399 . S
C57 C58 1.381 . S
C58 H50 0.930 . S
C58 C54 1.390 1_554 S
C58 C57 1.381 . S
N59 C52 1.286 . S
N59 C55 1.413 . S
H60 C65 0.930 . S
H61 C68 0.930 . S
H62 C70 0.930 . S
H63 C64 1.025 . S
C64 H63 1.025 . S
C64 N71 1.271 1_655 S
C65 H60 0.930 . S
C65 C66 1.397 . S
C65 C67 1.361 1_556 S
C66 C65 1.397 . S
C66 C70 1.390 1_456 S
C67 C65 1.361 1_554 S
C67 C68 1.393 . S
C67 N71 1.413 . S
C68 H61 0.930 . S
C68 C67 1.393 . S
C68 C69 1.401 . S
C69 C68 1.401 . S
C69 C70 1.378 1_455 S
C70 H62 0.930 . S
C70 C66 1.390 1_654 S
C70 C69 1.378 1_655 S
N71 C64 1.271 1_455 S
N71 C67 1.413 . S
H72 C77 0.930 . S
H73 C80 0.930 . S
H74 C82 0.930 . S
H75 C76 1.016 . S
C76 H75 1.016 . S
C76 N83 1.286 . S
C77 H72 0.930 . S
C77 C78 1.397 . S
C77 C79 1.361 1_556 S
C78 C77 1.397 . S
C78 C82 1.390 1_556 S
C79 C77 1.361 1_554 S
C79 C80 1.393 . S
C79 N83 1.413 . S
C80 H73 0.930 . S
C80 C79 1.393 . S
C80 C81 1.399 . S
C81 C80 1.399 . S
C81 C82 1.381 . S
C82 H74 0.930 . S
C82 C78 1.390 1_554 S
C82 C81 1.381 . S
N83 C76 1.286 . S
N83 C79 1.413 . S
H84 C89 0.930 . S
H85 C92 0.930 . S
H86 C94 0.930 . S
H87 C88 1.016 . S
C88 H87 1.016 . S
C88 N95 1.286 . S
C89 H84 0.930 . S
C89 C90 1.397 . S
C89 C91 1.361 1_556 S
C90 C89 1.397 . S
C90 C94 1.390 . S
C91 C89 1.361 1_554 S
C91 C92 1.393 . S
C91 N95 1.413 . S
C92 H85 0.930 . S
C92 C91 1.393 . S
C92 C93 1.399 . S
C93 C92 1.399 . S
C93 C94 1.381 1_554 S
C94 H86 0.930 . S
C94 C90 1.390 . S
C94 C93 1.381 1_556 S
N95 C88 1.286 . S
N95 C91 1.413 . S
Dy96 O100 2.398 . S
Dy96 O101 2.491 1_455 S
Dy96 O102 2.403 . S
Dy96 O103 2.664 1_565 S
Dy96 O107 2.326 . S
Dy96 O111 2.310 1_455 S
Dy96 O112 2.351 1_565 S
C97 O108 1.185 . S
C97 O109 1.355 1_655 S
C98 O100 1.185 . S
C98 O101 1.355 1_455 S
Dy99 O103 2.310 1_655 S
Dy99 O106 2.351 1_545 S
Dy99 O108 2.398 . S
Dy99 O109 2.491 1_655 S
Dy99 O110 2.403 . S
Dy99 O111 2.664 1_545 S
Dy99 O113 2.326 . S
O100 Dy96 2.398 . S
O100 C98 1.185 . S
O101 Dy96 2.491 1_655 S
O101 C98 1.355 1_655 S
O102 Dy96 2.403 . S
O102 C104 1.254 1_565 S
O103 Dy96 2.664 1_545 S
O103 Dy99 2.310 1_455 S
O103 C104 1.268 . S
C104 O102 1.254 1_545 S
C104 O103 1.268 . S
C105 O110 1.254 1_565 S
C105 O111 1.268 . S
O106 Dy99 2.351 1_565 S
O106 C114 1.249 . S
O107 Dy96 2.326 . S
O107 C114 1.267 1_455 S
O108 C97 1.185 . S
O108 Dy99 2.398 . S
O109 C97 1.355 1_455 S
O109 Dy99 2.491 1_455 S
O110 Dy99 2.403 . S
O110 C105 1.254 1_545 S
O111 Dy96 2.310 1_655 S
O111 Dy99 2.664 1_565 S
O111 C105 1.268 . S
O112 Dy96 2.351 1_545 S
O112 C115 1.249 . S
O113 Dy99 2.326 . S
O113 C115 1.267 1_655 S
C114 O106 1.249 . S
C114 O107 1.267 1_655 S
C115 O112 1.249 . S
C115 O113 1.267 1_455 S
Dy116 O120 2.398 . S
Dy116 O121 2.491 1_565 S
Dy116 O122 2.403 . S
Dy116 O123 2.664 . S
Dy116 O127 2.326 1_565 S
Dy116 O131 2.310 1_565 S
Dy116 O132 2.351 . S
C117 O128 1.185 . S
C117 O129 1.355 1_545 S
C118 O120 1.184 1_545 S
C118 O121 1.356 . S
Dy119 O123 2.310 1_545 S
Dy119 O126 2.351 . S
Dy119 O128 2.398 . S
Dy119 O129 2.491 1_545 S
Dy119 O130 2.403 . S
Dy119 O131 2.664 . S
Dy119 O133 2.326 1_545 S
O120 Dy116 2.398 . S
O120 C118 1.184 1_565 S
O121 Dy116 2.491 1_545 S
O121 C118 1.356 . S
O122 Dy116 2.403 . S
O122 C124 1.254 . S
O123 Dy116 2.664 . S
O123 Dy119 2.310 1_565 S
O123 C124 1.268 . S
C124 O122 1.254 . S
C124 O123 1.268 . S
C125 O130 1.254 . S
C125 O131 1.268 . S
O126 Dy119 2.351 . S
O126 C134 1.249 . S
O127 Dy116 2.326 1_545 S
O127 C134 1.267 . S
O128 C117 1.185 . S
O128 Dy119 2.398 . S
O129 C117 1.355 1_565 S
O129 Dy119 2.491 1_565 S
O130 Dy119 2.403 . S
O130 C125 1.254 . S
O131 Dy116 2.310 1_545 S
O131 Dy119 2.664 . S
O131 C125 1.268 . S
O132 Dy116 2.351 . S
O132 C135 1.249 . S
O133 Dy119 2.326 1_565 S
O133 C135 1.267 . S
C134 O126 1.249 . S
C134 O127 1.267 . S
C135 O132 1.249 . S
C135 O133 1.267 . S
Dy136 O140 2.398 . S
Dy136 O141 2.491 . S
Dy136 O142 2.403 . S
Dy136 O143 2.664 . S
Dy136 O147 2.326 . S
Dy136 O151 2.310 . S
Dy136 O152 2.351 . S
C137 O148 1.185 . S
C137 O149 1.355 . S
C138 O140 1.185 . S
C138 O141 1.355 . S
Dy139 O143 2.310 . S
Dy139 O146 2.351 . S
Dy139 O148 2.398 . S
Dy139 O149 2.491 . S
Dy139 O150 2.403 . S
Dy139 O151 2.664 . S
Dy139 O153 2.326 . S
O140 Dy136 2.398 . S
O140 C138 1.185 . S
O141 Dy136 2.491 . S
O141 C138 1.355 . S
O142 Dy136 2.403 . S
O142 C144 1.254 . S
O143 Dy136 2.664 . S
O143 Dy139 2.310 . S
O143 C144 1.268 . S
C144 O142 1.254 . S
C144 O143 1.268 . S
C145 O150 1.254 . S
C145 O151 1.268 . S
O146 Dy139 2.351 . S
O146 C154 1.249 . S
O147 Dy136 2.326 . S
O147 C154 1.267 . S
O148 C137 1.185 . S
O148 Dy139 2.398 . S
O149 C137 1.355 . S
O149 Dy139 2.491 . S
O150 Dy139 2.403 . S
O150 C145 1.254 . S
O151 Dy136 2.310 . S
O151 Dy139 2.664 . S
O151 C145 1.268 . S
O152 Dy136 2.351 . S
O152 C155 1.249 . S
O153 Dy139 2.326 . S
O153 C155 1.267 . S
C154 O146 1.249 . S
C154 O147 1.267 . S
C155 O152 1.249 . S
C155 O153 1.267 . S
Dy156 O160 2.398 . S
Dy156 O161 2.491 . S
Dy156 O162 2.403 . S
Dy156 O163 2.664 1_655 S
Dy156 O167 2.326 . S
Dy156 O171 2.310 . S
Dy156 O172 2.351 1_655 S
C157 O168 1.185 . S
C157 O169 1.355 . S
C158 O160 1.185 . S
C158 O161 1.355 . S
Dy159 O163 2.310 . S
Dy159 O166 2.351 1_455 S
Dy159 O168 2.398 . S
Dy159 O169 2.491 . S
Dy159 O170 2.403 . S
Dy159 O171 2.664 1_455 S
Dy159 O173 2.326 . S
O160 Dy156 2.398 . S
O160 C158 1.185 . S
O161 Dy156 2.491 . S
O161 C158 1.355 . S
O162 Dy156 2.403 . S
O162 C164 1.254 . S
O163 Dy156 2.664 1_455 S
O163 Dy159 2.310 . S
O163 C164 1.268 1_455 S
C164 O162 1.254 . S
C164 O163 1.268 1_655 S
C165 O170 1.254 . S
C165 O171 1.268 1_455 S
O166 Dy159 2.351 1_655 S
O166 C174 1.249 . S
O167 Dy156 2.326 . S
O167 C174 1.267 . S
O168 C157 1.185 . S
O168 Dy159 2.398 . S
O169 C157 1.355 . S
O169 Dy159 2.491 . S
O170 Dy159 2.403 . S
O170 C165 1.254 . S
O171 Dy156 2.310 . S
O171 Dy159 2.664 1_655 S
O171 C165 1.268 1_655 S
O172 Dy156 2.351 1_455 S
O172 C175 1.249 . S
O173 Dy159 2.326 . S
O173 C175 1.267 . S
C174 O166 1.249 . S
C174 O167 1.267 . S
C175 O172 1.249 . S
C175 O173 1.267 . S
C176 C177 1.363 . S
C176 C182 1.379 . S
C176 N184 1.356 . S
C177 C176 1.363 . S
C177 C183 1.363 . S
C178 C179 1.363 . S
C178 C183 1.379 . S
C178 N185 1.356 1_545 S
C179 C178 1.363 . S
C179 C182 1.363 . S
N180 C182 1.356 . S
N180 H192 0.984 . S
N180 H193 0.985 . S
N181 C183 1.356 . S
N181 H186 0.984 . S
N181 H187 0.985 1_545 S
C182 C176 1.379 . S
C182 C179 1.363 . S
C182 N180 1.356 . S
C183 C177 1.363 . S
C183 C178 1.379 . S
C183 N181 1.356 . S
N184 C176 1.356 . S
N184 H190 0.984 . S
N184 H191 0.984 . S
N185 C178 1.356 1_565 S
N185 H188 0.984 . S
N185 H189 0.985 . S
H186 N181 0.984 . S
H187 N181 0.985 1_565 S
H188 N185 0.984 . S
H189 N185 0.985 . S
H190 N184 0.984 . S
H191 N184 0.984 . S
H192 N180 0.984 . S
H193 N180 0.985 . S
C194 C195 1.363 . S
C194 C200 1.379 . S
C194 N202 1.356 . S
C195 C194 1.363 . S
C195 C201 1.363 . S
C196 C197 1.363 . S
C196 C201 1.379 . S
C196 N203 1.356 . S
C197 C196 1.363 . S
C197 C200 1.363 . S
N198 C200 1.356 . S
N198 H210 0.984 . S
N198 H211 0.985 . S
N199 C201 1.356 . S
N199 H204 0.984 1_554 S
N199 H205 0.985 1_554 S
C200 C194 1.379 . S
C200 C197 1.363 . S
C200 N198 1.356 . S
C201 C195 1.363 . S
C201 C196 1.379 . S
C201 N199 1.356 . S
N202 C194 1.356 . S
N202 H208 0.984 . S
N202 H209 0.984 . S
N203 C196 1.356 . S
N203 H206 0.984 . S
N203 H207 0.985 . S
H204 N199 0.984 1_556 S
H205 N199 0.985 1_556 S
H206 N203 0.984 . S
H207 N203 0.985 . S
H208 N202 0.984 . S
H209 N202 0.984 . S
H210 N198 0.984 . S
H211 N198 0.985 . S
C212 C213 1.363 . S
C212 C218 1.379 . S
C212 N220 1.356 . S
C213 C212 1.363 . S
C213 C219 1.363 . S
C214 C215 1.363 . S
C214 C219 1.379 . S
C214 N221 1.356 . S
C215 C214 1.363 . S
C215 C218 1.363 . S
N216 C218 1.356 . S
N216 H228 0.984 . S
N216 H229 0.985 . S
N217 C219 1.356 . S
N217 H222 0.984 . S
N217 H223 0.985 . S
C218 C212 1.379 . S
C218 C215 1.363 . S
C218 N216 1.356 . S
C219 C213 1.363 . S
C219 C214 1.379 . S
C219 N217 1.356 . S
N220 C212 1.356 . S
N220 H226 0.984 . S
N220 H227 0.984 . S
N221 C214 1.356 . S
N221 H224 0.984 . S
N221 H225 0.985 . S
H222 N217 0.984 . S
H223 N217 0.985 . S
H224 N221 0.984 . S
H225 N221 0.985 . S
H226 N220 0.984 . S
H227 N220 0.984 . S
H228 N216 0.984 . S
H229 N216 0.985 . S
C230 C231 1.363 1_455 S
C230 C236 1.379 . S
C230 N238 1.356 . S
C231 C230 1.363 1_655 S
C231 C237 1.363 . S
C232 C233 1.364 . S
C232 C237 1.379 . S
C232 N239 1.356 . S
C233 C232 1.364 . S
C233 C236 1.361 1_655 S
N234 C236 1.356 . S
N234 H246 0.984 . S
N234 H247 0.985 . S
N235 C237 1.356 . S
N235 H240 0.984 . S
N235 H241 0.985 . S
C236 C230 1.379 . S
C236 C233 1.361 1_455 S
C236 N234 1.356 . S
C237 C231 1.363 . S
C237 C232 1.379 . S
C237 N235 1.356 . S
N238 C230 1.356 . S
N238 H244 0.984 . S
N238 H245 0.984 . S
N239 C232 1.356 . S
N239 H242 0.984 . S
N239 H243 0.985 . S
H240 N235 0.984 . S
H241 N235 0.985 . S
H242 N239 0.984 . S
H243 N239 0.985 . S
H244 N238 0.984 . S
H245 N238 0.984 . S
H246 N234 0.984 . S
H247 N234 0.985 . S
C248 C249 1.363 . S
C248 C254 1.379 . S
C248 N256 1.356 . S
C249 C248 1.363 . S
C249 C255 1.363 . S
C250 C251 1.363 1_545 S
C250 C255 1.379 1_545 S
C250 N257 1.356 . S
C251 C250 1.363 1_565 S
C251 C254 1.363 . S
N252 C254 1.356 . S
N252 H264 0.984 . S
N252 H265 0.985 . S
N253 C255 1.356 1_545 S
N253 H258 0.990 . S
N253 H259 0.985 . S
C254 C248 1.379 . S
C254 C251 1.363 . S
C254 N252 1.356 . S
C255 C249 1.363 . S
C255 C250 1.379 1_565 S
C255 N253 1.356 1_565 S
N256 C248 1.356 . S
N256 H262 0.984 . S
N256 H263 0.984 1_556 S
N257 C250 1.356 . S
N257 H260 0.984 . S
N257 H261 0.985 . S
H258 N253 0.990 . S
H259 N253 0.985 . S
H260 N257 0.984 . S
H261 N257 0.985 . S
H262 N256 0.984 . S
H263 N256 0.984 1_554 S
H264 N252 0.984 . S
H265 N252 0.985 . S
C266 C267 1.363 . S
C266 C272 1.379 . S
C266 N274 1.356 1_556 S
C267 C266 1.363 . S
C267 C273 1.363 . S
C268 C269 1.363 . S
C268 C273 1.379 . S
C268 N275 1.356 . S
C269 C268 1.363 . S
C269 C272 1.363 . S
N270 C272 1.356 . S
N270 H282 0.984 . S
N270 H283 0.985 . S
N271 C273 1.356 1_554 S
N271 H276 0.984 . S
N271 H277 0.985 1_554 S
C272 C266 1.379 . S
C272 C269 1.363 . S
C272 N270 1.356 . S
C273 C267 1.363 . S
C273 C268 1.379 . S
C273 N271 1.356 1_556 S
N274 C266 1.356 1_554 S
N274 H280 0.984 . S
N274 H281 0.984 . S
N275 C268 1.356 . S
N275 H278 0.984 . S
N275 H279 0.985 . S
H276 N271 0.984 . S
H277 N271 0.985 1_556 S
H278 N275 0.984 . S
H279 N275 0.985 . S
H280 N274 0.984 . S
H281 N274 0.984 . S
H282 N270 0.984 . S
H283 N270 0.985 . S
C284 C285 1.363 . S
C284 C290 1.379 . S
C284 N292 1.356 . S
C285 C284 1.363 . S
C285 C291 1.363 . S
C286 C287 1.363 . S
C286 C291 1.379 . S
C286 N293 1.356 . S
C287 C286 1.363 . S
C287 C290 1.363 . S
N288 C290 1.356 . S
N288 H300 0.984 . S
N288 H301 0.985 . S
N289 C291 1.356 1_554 S
N289 H294 0.984 . S
N289 H295 0.985 . S
C290 C284 1.379 . S
C290 C287 1.363 . S
C290 N288 1.356 . S
C291 C285 1.363 . S
C291 C286 1.379 . S
C291 N289 1.356 1_556 S
N292 C284 1.356 . S
N292 H298 0.984 . S
N292 H299 0.984 . S
N293 C286 1.356 . S
N293 H296 0.984 . S
N293 H297 0.985 . S
H294 N289 0.984 . S
H295 N289 0.985 . S
H296 N293 0.984 . S
H297 N293 0.985 . S
H298 N292 0.984 . S
H299 N292 0.984 . S
H300 N288 0.984 . S
H301 N288 0.985 . S
C302 C303 1.362 1_655 S
C302 C308 1.379 . S
C302 N310 1.356 . S
C303 C302 1.362 1_455 S
C303 C309 1.364 . S
C304 C305 1.384 . S
C304 C309 1.379 . S
C304 N311 1.356 . S
C305 C304 1.384 . S
C305 C308 1.341 1_455 S
N306 C308 1.356 . S
N306 H318 0.984 . S
N306 H319 0.985 . S
N307 C309 1.356 1_554 S
N307 H312 0.984 . S
N307 H313 0.985 . S
C308 C302 1.379 . S
C308 C305 1.341 1_655 S
C308 N306 1.356 . S
C309 C303 1.364 . S
C309 C304 1.379 . S
C309 N307 1.356 1_556 S
N310 C302 1.356 . S
N310 H316 0.984 . S
N310 H317 0.984 . S
N311 C304 1.356 . S
N311 H314 0.984 . S
N311 H315 0.985 . S
H312 N307 0.984 . S
H313 N307 0.985 . S
H314 N311 0.984 . S
H315 N311 0.985 . S
H316 N310 0.984 . S
H317 N310 0.984 . S
H318 N306 0.984 . S
H319 N306 0.985 . S
C320 C321 1.363 1_455 S
C320 C326 1.379 . S
C320 N328 1.356 . S
C321 C320 1.363 1_655 S
C321 C327 1.363 . S
C322 C323 1.363 . S
C322 C327 1.379 . S
C322 N329 1.356 . S
C323 C322 1.363 . S
C323 C326 1.363 1_655 S
N324 C326 1.356 . S
N324 H336 0.984 . S
N324 H337 0.985 . S
N325 C327 1.356 . S
N325 H330 0.984 . S
N325 H331 0.985 . S
C326 C320 1.379 . S
C326 C323 1.363 1_455 S
C326 N324 1.356 . S
C327 C321 1.363 . S
C327 C322 1.379 . S
C327 N325 1.356 . S
N328 C320 1.356 . S
N328 H334 0.984 . S
N328 H335 0.984 . S
N329 C322 1.356 . S
N329 H332 0.984 . S
N329 H333 0.985 . S
H330 N325 0.984 . S
H331 N325 0.985 . S
H332 N329 0.984 . S
H333 N329 0.985 . S
H334 N328 0.984 . S
H335 N328 0.984 . S
H336 N324 0.984 . S
H337 N324 0.985 . S
C338 C339 1.363 . S
C338 C344 1.379 1_545 S
C338 N346 1.356 . S
C339 C338 1.363 . S
C339 C345 1.363 . S
C340 C341 1.363 . S
C340 C345 1.379 . S
C340 N347 1.356 . S
C341 C340 1.363 . S
C341 C344 1.363 1_545 S
N342 C344 1.356 . S
N342 H354 0.984 . S
N342 H355 0.985 . S
N343 C345 1.356 . S
N343 H348 0.984 . S
N343 H349 0.985 . S
C344 C338 1.379 1_565 S
C344 C341 1.363 1_565 S
C344 N342 1.356 . S
C345 C339 1.363 . S
C345 C340 1.379 . S
C345 N343 1.356 . S
N346 C338 1.356 . S
N346 H352 0.984 1_545 S
N346 H353 0.984 . S
N347 C340 1.356 . S
N347 H350 0.984 . S
N347 H351 0.985 . S
H348 N343 0.984 . S
H349 N343 0.985 . S
H350 N347 0.984 . S
H351 N347 0.985 . S
H352 N346 0.984 1_565 S
H353 N346 0.984 . S
H354 N342 0.984 . S
H355 N342 0.985 . S
C356 C357 1.363 . S
C356 C362 1.379 . S
C356 N364 1.356 . S
C357 C356 1.363 . S
C357 C363 1.363 . S
C358 C359 1.363 . S
C358 C363 1.379 . S
C358 N365 1.356 . S
C359 C358 1.363 . S
C359 C362 1.363 . S
N360 C362 1.356 . S
N360 H372 0.984 . S
N360 H373 0.985 . S
N361 C363 1.356 . S
N361 H366 0.984 . S
N361 H367 0.985 . S
C362 C356 1.379 . S
C362 C359 1.363 . S
C362 N360 1.356 . S
C363 C357 1.363 . S
C363 C358 1.379 . S
C363 N361 1.356 . S
N364 C356 1.356 . S
N364 H370 0.984 1_554 S
N364 H371 0.984 1_554 S
N365 C358 1.356 . S
N365 H368 0.984 . S
N365 H369 0.985 . S
H366 N361 0.984 . S
H367 N361 0.985 . S
H368 N365 0.984 . S
H369 N365 0.985 . S
H370 N364 0.984 1_556 S
H371 N364 0.984 1_556 S
H372 N360 0.984 . S
H373 N360 0.985 . S
C374 C375 1.363 . S
C374 C380 1.379 . S
C374 N382 1.356 . S
C375 C374 1.363 . S
C375 C381 1.363 . S
C376 C377 1.363 . S
C376 C381 1.379 . S
C376 N383 1.356 . S
C377 C376 1.363 . S
C377 C380 1.363 . S
N378 C380 1.356 . S
N378 H390 0.984 . S
N378 H391 0.985 . S
N379 C381 1.356 . S
N379 H384 0.984 . S
N379 H385 0.985 1_554 S
C380 C374 1.379 . S
C380 C377 1.363 . S
C380 N378 1.356 . S
C381 C375 1.363 . S
C381 C376 1.379 . S
C381 N379 1.356 . S
N382 C374 1.356 . S
N382 H388 0.984 . S
N382 H389 0.984 . S
N383 C376 1.356 . S
N383 H386 0.984 . S
N383 H387 0.985 . S
H384 N379 0.984 . S
H385 N379 0.985 1_556 S
H386 N383 0.984 . S
H387 N383 0.985 . S
H388 N382 0.984 . S
H389 N382 0.984 . S
H390 N378 0.984 . S
H391 N378 0.985 . S
C392 C393 1.363 1_655 S
C392 C398 1.379 . S
C392 N400 1.356 1_556 S
C393 C392 1.363 1_455 S
C393 C399 1.363 . S
C394 C395 1.363 . S
C394 C399 1.379 . S
C394 N401 1.356 . S
C395 C394 1.363 . S
C395 C398 1.363 1_455 S
N396 C398 1.356 . S
N396 H408 0.984 1_556 S
N396 H409 0.985 . S
N397 C399 1.356 . S
N397 H402 0.984 . S
N397 H403 0.985 . S
C398 C392 1.379 . S
C398 C395 1.363 1_655 S
C398 N396 1.356 . S
C399 C393 1.363 . S
C399 C394 1.379 . S
C399 N397 1.356 . S
N400 C392 1.356 1_554 S
N400 H406 0.984 . S
N400 H407 0.984 . S
N401 C394 1.356 . S
N401 H404 0.984 . S
N401 H405 0.985 . S
H402 N397 0.984 . S
H403 N397 0.985 . S
H404 N401 0.984 . S
H405 N401 0.985 . S
H406 N400 0.984 . S
H407 N400 0.984 . S
H408 N396 0.984 1_554 S
H409 N396 0.985 . S
C410 C411 1.363 1_554 S
C410 C416 1.379 1_554 S
C410 N418 1.356 . S
C411 C410 1.363 1_556 S
C411 C417 1.363 . S
C412 C413 1.363 1_545 S
C412 C417 1.379 1_545 S
C412 N419 1.356 . S
C413 C412 1.363 1_565 S
C413 C416 1.363 . S
N414 C416 1.356 1_554 S
N414 H426 0.984 . S
N414 H427 0.985 . S
N415 C417 1.356 . S
N415 H420 0.984 . S
N415 H421 0.985 1_565 S
C416 C410 1.379 1_556 S
C416 C413 1.363 . S
C416 N414 1.356 1_556 S
C417 C411 1.363 . S
C417 C412 1.379 1_565 S
C417 N415 1.356 . S
N418 C410 1.356 . S
N418 H424 0.984 . S
N418 H425 0.984 . S
N419 C412 1.356 . S
N419 H422 0.984 . S
N419 H423 0.985 . S
H420 N415 0.984 . S
H421 N415 0.985 1_545 S
H422 N419 0.984 . S
H423 N419 0.985 . S
H424 N418 0.984 . S
H425 N418 0.984 . S
H426 N414 0.984 . S
H427 N414 0.985 . S
C428 C429 1.363 . S
C428 C434 1.379 . S
C428 N436 1.356 . S
C429 C428 1.363 . S
C429 C435 1.363 1_556 S
C430 C431 1.363 . S
C430 C435 1.379 1_556 S
C430 N437 1.356 . S
C431 C430 1.363 . S
C431 C434 1.363 . S
N432 C434 1.356 . S
N432 H444 0.984 . S
N432 H445 0.985 . S
N433 C435 1.356 . S
N433 H438 0.984 . S
N433 H439 0.985 . S
C434 C428 1.379 . S
C434 C431 1.363 . S
C434 N432 1.356 . S
C435 C429 1.363 1_554 S
C435 C430 1.379 1_554 S
C435 N433 1.356 . S
N436 C428 1.356 . S
N436 H442 0.984 . S
N436 H443 0.984 . S
N437 C430 1.356 . S
N437 H440 0.984 . S
N437 H441 0.985 . S
H438 N433 0.984 . S
H439 N433 0.985 . S
H440 N437 0.984 . S
H441 N437 0.985 . S
H442 N436 0.984 . S
H443 N436 0.984 . S
H444 N432 0.984 . S
H445 N432 0.985 . S
C446 C447 1.363 1_554 S
C446 C452 1.379 1_554 S
C446 N454 1.356 . S
C447 C446 1.363 1_556 S
C447 C453 1.363 . S
C448 C449 1.363 . S
C448 C453 1.379 . S
C448 N455 1.356 . S
C449 C448 1.363 . S
C449 C452 1.363 . S
N450 C452 1.356 . S
N450 H462 0.984 1_556 S
N450 H463 0.985 . S
N451 C453 1.356 . S
N451 H456 0.984 . S
N451 H457 0.985 . S
C452 C446 1.379 1_556 S
C452 C449 1.363 . S
C452 N450 1.356 . S
C453 C447 1.363 . S
C453 C448 1.379 . S
C453 N451 1.356 . S
N454 C446 1.356 . S
N454 H460 0.984 . S
N454 H461 0.984 . S
N455 C448 1.356 . S
N455 H458 0.984 . S
N455 H459 0.985 . S
H456 N451 0.984 . S
H457 N451 0.985 . S
H458 N455 0.984 . S
H459 N455 0.985 . S
H460 N454 0.984 . S
H461 N454 0.984 . S
H462 N450 0.984 1_554 S
H463 N450 0.985 . S
C464 C465 1.363 1_655 S
C464 C470 1.379 . S
C464 N472 1.356 . S
C465 C464 1.363 1_455 S
C465 C471 1.363 . S
C466 C467 1.363 . S
C466 C471 1.379 . S
C466 N473 1.356 . S
C467 C466 1.363 . S
C467 C470 1.363 1_455 S
N468 C470 1.356 . S
N468 H480 0.984 . S
N468 H481 0.985 . S
N469 C471 1.356 1_554 S
N469 H474 0.984 . S
N469 H475 0.985 . S
C470 C464 1.379 . S
C470 C467 1.363 1_655 S
C470 N468 1.356 . S
C471 C465 1.363 . S
C471 C466 1.379 . S
C471 N469 1.356 1_556 S
N472 C464 1.356 . S
N472 H478 0.984 . S
N472 H479 0.984 . S
N473 C466 1.356 . S
N473 H476 0.984 . S
N473 H477 0.985 . S
H474 N469 0.984 . S
H475 N469 0.985 . S
H476 N473 0.984 . S
H477 N473 0.985 . S
H478 N472 0.984 . S
H479 N472 0.984 . S
H480 N468 0.984 . S
H481 N468 0.985 . S
C482 C483 1.363 . S
C482 C488 1.379 . S
C482 N490 1.356 . S
C483 C482 1.363 . S
C483 C489 1.363 . S
C484 C485 1.363 . S
C484 C489 1.379 . S
C484 N491 1.356 1_545 S
C485 C484 1.363 . S
C485 C488 1.363 . S
N486 C488 1.356 . S
N486 H498 0.984 . S
N486 H499 0.985 . S
N487 C489 1.356 1_565 S
N487 H492 0.984 1_565 S
N487 H493 0.985 . S
C488 C482 1.379 . S
C488 C485 1.363 . S
C488 N486 1.356 . S
C489 C483 1.363 . S
C489 C484 1.379 . S
C489 N487 1.356 1_545 S
N490 C482 1.356 . S
N490 H496 0.984 1_556 S
N490 H497 0.984 . S
N491 C484 1.356 1_565 S
N491 H494 0.984 . S
N491 H495 0.985 . S
H492 N487 0.984 1_545 S
H493 N487 0.985 . S
H494 N491 0.984 . S
H495 N491 0.985 . S
H496 N490 0.984 1_554 S
H497 N490 0.984 . S
H498 N486 0.984 . S
H499 N486 0.985 . S
C500 C501 1.363 . S
C500 C506 1.379 . S
C500 N508 1.356 . S
C501 C500 1.363 . S
C501 C507 1.363 . S
C502 C503 1.363 . S
C502 C507 1.379 . S
C502 N509 1.356 . S
C503 C502 1.363 . S
C503 C506 1.363 . S
N504 C506 1.356 . S
N504 H516 0.984 . S
N504 H517 0.985 . S
N505 C507 1.356 . S
N505 H510 0.984 . S
N505 H511 0.985 . S
C506 C500 1.379 . S
C506 C503 1.363 . S
C506 N504 1.356 . S
C507 C501 1.363 . S
C507 C502 1.379 . S
C507 N505 1.356 . S
N508 C500 1.356 . S
N508 H514 0.984 1_556 S
N508 H515 0.984 . S
N509 C502 1.356 . S
N509 H512 0.984 . S
N509 H513 0.985 . S
H510 N505 0.984 . S
H511 N505 0.985 . S
H512 N509 0.984 . S
H513 N509 0.985 . S
H514 N508 0.984 1_554 S
H515 N508 0.984 . S
H516 N504 0.984 . S
H517 N504 0.985 . S
C518 C519 1.363 . S
C518 C524 1.379 . S
C518 N526 1.356 . S
C519 C518 1.363 . S
C519 C525 1.363 . S
C520 C521 1.363 . S
C520 C525 1.379 . S
C520 N527 1.356 . S
C521 C520 1.363 . S
C521 C524 1.363 . S
N522 C524 1.356 . S
N522 H534 0.984 . S
N522 H535 0.985 . S
N523 C525 1.356 . S
N523 H528 0.984 . S
N523 H529 0.985 . S
C524 C518 1.379 . S
C524 C521 1.363 . S
C524 N522 1.356 . S
C525 C519 1.363 . S
C525 C520 1.379 . S
C525 N523 1.356 . S
N526 C518 1.356 . S
N526 H532 0.984 . S
N526 H533 0.984 . S
N527 C520 1.356 . S
N527 H530 0.984 . S
N527 H531 0.985 . S
H528 N523 0.984 . S
H529 N523 0.985 . S
H530 N527 0.984 . S
H531 N527 0.985 . S
H532 N526 0.984 . S
H533 N526 0.984 . S
H534 N522 0.984 . S
H535 N522 0.985 . S
C536 C537 1.363 . S
C536 C542 1.379 . S
C536 N544 1.356 . S
C537 C536 1.363 . S
C537 C543 1.363 1_655 S
C538 C539 1.363 1_455 S
C538 C543 1.379 . S
C538 N545 1.356 . S
C539 C538 1.363 1_655 S
C539 C542 1.363 . S
N540 C542 1.356 . S
N540 H552 0.984 . S
N540 H553 0.985 . S
N541 C543 1.356 . S
N541 H546 0.984 . S
N541 H547 0.985 . S
C542 C536 1.379 . S
C542 C539 1.363 . S
C542 N540 1.356 . S
C543 C537 1.363 1_455 S
C543 C538 1.379 . S
C543 N541 1.356 . S
N544 C536 1.356 . S
N544 H550 0.984 . S
N544 H551 0.984 . S
N545 C538 1.356 . S
N545 H548 0.984 . S
N545 H549 0.985 . S
H546 N541 0.984 . S
H547 N541 0.985 . S
H548 N545 0.984 . S
H549 N545 0.985 . S
H550 N544 0.984 . S
H551 N544 0.984 . S
H552 N540 0.984 . S
H553 N540 0.985 . S
C554 C555 1.363 . S
C554 C560 1.379 . S
C554 N562 1.356 . S
C555 C554 1.363 . S
C555 C561 1.363 . S
C556 C557 1.363 . S
C556 C561 1.379 . S
C556 N563 1.356 . S
C557 C556 1.363 . S
C557 C560 1.363 . S
N558 C560 1.356 . S
N558 H570 0.984 . S
N558 H571 0.985 . S
N559 C561 1.356 . S
N559 H564 0.984 . S
N559 H565 0.985 . S
C560 C554 1.379 . S
C560 C557 1.363 . S
C560 N558 1.356 . S
C561 C555 1.363 . S
C561 C556 1.379 . S
C561 N559 1.356 . S
N562 C554 1.356 . S
N562 H568 0.984 . S
N562 H569 0.984 . S
N563 C556 1.356 . S
N563 H566 0.984 . S
N563 H567 0.985 . S
H564 N559 0.984 . S
H565 N559 0.985 . S
H566 N563 0.984 . S
H567 N563 0.985 . S
H568 N562 0.984 . S
H569 N562 0.984 . S
H570 N558 0.984 . S
H571 N558 0.985 . S
C572 C573 1.363 . S
C572 C578 1.379 . S
C572 N580 1.356 . S
C573 C572 1.363 . S
C573 C579 1.363 . S
C574 C575 1.363 . S
C574 C579 1.379 . S
C574 N581 1.356 . S
C575 C574 1.363 . S
C575 C578 1.363 . S
N576 C578 1.356 . S
N576 H588 0.984 . S
N576 H589 0.985 . S
N577 C579 1.356 . S
N577 H582 0.984 . S
N577 H583 0.985 . S
C578 C572 1.379 . S
C578 C575 1.363 . S
C578 N576 1.356 . S
C579 C573 1.363 . S
C579 C574 1.379 . S
C579 N577 1.356 . S
N580 C572 1.356 . S
N580 H586 0.984 . S
N580 H587 0.984 . S
N581 C574 1.356 . S
N581 H584 0.984 . S
N581 H585 0.985 . S
H582 N577 0.984 . S
H583 N577 0.985 . S
H584 N581 0.984 . S
H585 N581 0.985 . S
H586 N580 0.984 . S
H587 N580 0.984 . S
H588 N576 0.984 . S
H589 N576 0.985 . S
C590 C591 1.363 . S
C590 C596 1.379 . S
C590 N598 1.356 . S
C591 C590 1.363 . S
C591 C597 1.363 . S
C592 C593 1.363 . S
C592 C597 1.379 . S
C592 N599 1.356 . S
C593 C592 1.363 . S
C593 C596 1.363 . S
N594 C596 1.356 . S
N594 H606 0.984 . S
N594 H607 0.985 . S
N595 C597 1.356 . S
N595 H600 0.984 . S
N595 H601 0.985 . S
C596 C590 1.379 . S
C596 C593 1.363 . S
C596 N594 1.356 . S
C597 C591 1.363 . S
C597 C592 1.379 . S
C597 N595 1.356 . S
N598 C590 1.356 . S
N598 H604 0.984 . S
N598 H605 0.984 . S
N599 C592 1.356 . S
N599 H602 0.984 . S
N599 H603 0.985 . S
H600 N595 0.984 . S
H601 N595 0.985 . S
H602 N599 0.984 . S
H603 N599 0.985 . S
H604 N598 0.984 . S
H605 N598 0.984 . S
H606 N594 0.984 . S
H607 N594 0.985 . S
C177 C76 1.633 . S
C179 C104 1.747 . S
C197 C134 1.814 . S
C195 C88 1.711 . S
C215 C144 1.673 . S
C213 C52 1.532 . S
C233 C164 1.554 . S
C231 C64 1.441 . S
C251 C105 1.750 . S
C249 C28 1.647 . S
C267 C40 1.720 1_556 S
C269 C135 1.814 . S
C285 C4 1.533 1_556 S
C287 C145 1.673 . S
C303 C16 1.440 1_456 S
C305 C165 1.556 . S
C323 C97 1.026 . S
C321 C69 1.012 1_655 S
C341 C118 0.905 . S
C339 C81 0.875 . S
C359 C137 1.161 . S
C357 C93 1.146 . S
C375 C57 0.939 . S
C377 C157 0.944 . S
C393 C21 1.006 1_556 S
C395 C98 1.025 . S
C413 C117 0.904 1_565 S
C411 C33 0.869 . S
C431 C138 1.161 . S
C429 C45 1.135 1_556 S
C447 C9 0.935 1_556 S
C449 C158 0.951 . S
C465 C66 1.549 . S
C467 C115 1.679 . S
C483 C78 1.489 . S
C485 C125 1.659 . S
C503 C155 1.856 . S
C501 C90 1.696 . S
C521 C175 1.836 . S
C519 C54 1.688 . S
C537 C18 1.557 1_655 S
C539 C114 1.680 . S
C557 C124 1.659 . S
C555 C30 1.475 . S
C575 C154 1.856 . S
C573 C42 1.691 . S
C591 C6 1.697 . S
C593 C174 1.839 . S
