# Generated by pormake.
# Topology rtl, (3,6)-cn, num edge types: 1
# Building blocks:
#     Node 0, Type 0, BuildingBlock: BELTOD_clean_linker_0, # of connection points: 3
#     Node 1, Type 0, BuildingBlock: BELTOD_clean_linker_0, # of connection points: 3
#     Node 2, Type 0, BuildingBlock: BELTOD_clean_linker_0, # of connection points: 3
#     Node 3, Type 0, BuildingBlock: BELTOD_clean_linker_0, # of connection points: 3
#     Node 4, Type 1, BuildingBlock: FUNLAD_clean_sbu_0, # of connection points: 6
#     Node 5, Type 1, BuildingBlock: FUNLAD_clean_sbu_0, # of connection points: 6
#     Edge 6, Type (0, 1), BuildingBlock: UVAHIK_clean_linker_0, # of connection points: 2
#     Edge 7, Type (0, 1), BuildingBlock: UVAHIK_clean_linker_0, # of connection points: 2
#     Edge 8, Type (0, 1), BuildingBlock: UVAHIK_clean_linker_0, # of connection points: 2
#     Edge 9, Type (0, 1), BuildingBlock: UVAHIK_clean_linker_0, # of connection points: 2
#     Edge 10, Type (0, 1), BuildingBlock: UVAHIK_clean_linker_0, # of connection points: 2
#     Edge 11, Type (0, 1), BuildingBlock: UVAHIK_clean_linker_0, # of connection points: 2
#     Edge 12, Type (0, 1), BuildingBlock: UVAHIK_clean_linker_0, # of connection points: 2
#     Edge 13, Type (0, 1), BuildingBlock: UVAHIK_clean_linker_0, # of connection points: 2
#     Edge 14, Type (0, 1), BuildingBlock: UVAHIK_clean_linker_0, # of connection points: 2
#     Edge 15, Type (0, 1), BuildingBlock: UVAHIK_clean_linker_0, # of connection points: 2
#     Edge 16, Type (0, 1), BuildingBlock: UVAHIK_clean_linker_0, # of connection points: 2
#     Edge 17, Type (0, 1), BuildingBlock: UVAHIK_clean_linker_0, # of connection points: 2
# Relax obj value: 0.024
# Max RMSD: 0.078
# Mean RMSD: 0.068
data_MOF--net-rtl--node1-FUNLAD_clean_sbu_0--node2-BELTOD_clean_linker_0--edge1-UVAHIK_clean_linker_0
_symmetry_space_group_name_H-M    P1
_symmetry_Int_Tables_number       1
_symmetry_cell_setting            triclinic
loop_
_symmetry_equiv_pos_as_xyz
'x, y, z'
_cell_length_a     56.266973
_cell_length_b     46.710509
_cell_length_c     32.770848
_cell_angle_alpha  89.151344
_cell_angle_beta   90.98752
_cell_angle_gamma 90.608147
loop_
_atom_site_label
_atom_site_type_symbol
_atom_site_fract_x
_atom_site_fract_y
_atom_site_fract_z
_atom_type_partial_charge
P0 P 0.14278 0.792 0.02592 0.0
H1 H 0.15559 0.80058 0.11098 0.0
H2 H 0.13178 0.80697 0.17169 0.0
H3 H 0.06826 0.7853 0.10237 0.0
H4 H 0.0923 0.77865 0.04171 0.0
H5 H 0.18833 0.78521 0.9878 0.0
H6 H 0.21479 0.74475 0.98107 0.0
H7 H 0.16452 0.69033 0.04463 0.0
H8 H 0.13813 0.73146 0.05186 0.0
H9 H 0.10545 0.83293 0.008 0.0
H10 H 0.14028 0.76512 0.94488 0.0
O11 O 0.16045 0.82078 0.02991 0.0
H12 H 0.0834 0.84553 0.94555 0.0
H13 H 0.11844 0.77786 0.88219 0.0
C14 C 0.12561 0.79003 0.07168 0.0
C15 C 0.1366 0.79663 0.10907 0.0
C16 C 0.12297 0.8001 0.14381 0.0
C17 C 0.0981 0.79703 0.14162 0.0
C18 C 0.08735 0.78826 0.10474 0.0
C19 C 0.10107 0.78451 0.07007 0.0
C20 C 0.16154 0.7614 0.02098 0.0
C21 C 0.18301 0.7646 0.00041 0.0
C22 C 0.19801 0.74133 0.9962 0.0
C23 C 0.19174 0.71424 0.01221 0.0
C24 C 0.16995 0.71098 0.03233 0.0
C25 C 0.15486 0.73441 0.03644 0.0
C26 C 0.12428 0.79789 0.9813 0.0
C27 C 0.10796 0.82035 0.98094 0.0
C28 C 0.09533 0.82749 0.94526 0.0
C29 C 0.09916 0.81261 0.90905 0.0
C30 C 0.1152 0.78972 0.90967 0.0
C31 C 0.12764 0.78238 0.94556 0.0
P32 P 0.63955 0.71877 0.51844 0.0
H33 H 0.65623 0.68463 0.45116 0.0
H34 H 0.63815 0.67074 0.3864 0.0
H35 H 0.57731 0.72325 0.41083 0.0
H36 H 0.59541 0.73639 0.47663 0.0
H37 H 0.67411 0.74341 0.57486 0.0
H38 H 0.69843 0.78704 0.57274 0.0
H39 H 0.66452 0.81177 0.4586 0.0
H40 H 0.63971 0.76842 0.46133 0.0
H41 H 0.59891 0.68036 0.52731 0.0
H42 H 0.63166 0.74903 0.59555 0.0
O43 O 0.65958 0.69367 0.52982 0.0
H44 H 0.57316 0.66926 0.58465 0.0
H45 H 0.60627 0.73753 0.65327 0.0
C46 C 0.62692 0.71105 0.46896 0.0
C47 C 0.63904 0.69324 0.44258 0.0
C48 C 0.62874 0.68554 0.40527 0.0
C49 C 0.6062 0.69581 0.39336 0.0
C50 C 0.59451 0.71461 0.41933 0.0
C51 C 0.60484 0.72222 0.45682 0.0
C52 C 0.65507 0.75266 0.51838 0.0
C53 C 0.67152 0.75851 0.54983 0.0
C54 C 0.68535 0.78346 0.54865 0.0
C55 C 0.68329 0.80274 0.51553 0.0
C56 C 0.66644 0.79718 0.48442 0.0
C57 C 0.65226 0.77241 0.48602 0.0
C58 C 0.6171 0.71574 0.5568 0.0
C59 C 0.6001 0.69365 0.55409 0.0
C60 C 0.58537 0.68729 0.58691 0.0
C61 C 0.58777 0.70252 0.6234 0.0
C62 C 0.60413 0.7254 0.6255 0.0
C63 C 0.61866 0.73199 0.59241 0.0
P64 P 0.90794 0.30043 -0.00016 0.0
H65 H 0.88273 0.29037 0.92139 0.0
H66 H 0.89214 0.26089 0.86291 0.0
H67 H 0.95729 0.23456 0.92362 0.0
H68 H 0.94788 0.26429 0.98174 0.0
H69 H 0.88801 0.35808 0.99543 0.0
H70 H 0.8473 0.37562 0.99495 0.0
H71 H 0.82093 0.28846 0.00203 0.0
H72 H 0.86179 0.27107 0.00166 0.0
H73 H 0.92766 0.3138 0.08062 0.0
H74 H 0.89742 0.24043 0.01964 0.0
O75 O 0.92694 0.32811 0.00041 0.0
H76 H 0.93469 0.28452 0.14213 0.0
H77 H 0.90459 0.21097 0.08074 0.0
C78 C 0.91444 0.27912 0.9562 0.0
C79 C 0.89897 0.27816 0.92225 0.0
C80 C 0.90435 0.26125 0.88882 0.0
C81 C 0.92543 0.24531 0.88867 0.0
C82 C 0.94103 0.24678 0.92257 0.0
C83 C 0.9356 0.26361 0.95593 0.0
C84 C 0.8779 0.31328 -0.00125 0.0
C85 C 0.87349 0.34273 0.99682 0.0
C86 C 0.85018 0.35274 0.99679 0.0
C87 C 0.83085 0.33344 -0.00136 0.0
C88 C 0.8354 0.30388 0.00019 0.0
C89 C 0.85874 0.29391 0.00029 0.0
C90 C 0.91241 0.27914 0.04544 0.0
C91 C 0.92259 0.29137 0.08045 0.0
C92 C 0.92665 0.27461 0.11552 0.0
C93 C 0.92033 0.24538 0.11622 0.0
C94 C 0.90948 0.23345 0.08133 0.0
C95 C 0.90552 0.25022 0.04628 0.0
P96 P 0.41357 0.19701 0.51659 0.0
H97 H 0.43078 0.18643 0.60022 0.0
H98 H 0.43652 0.21772 0.65885 0.0
H99 H 0.40891 0.28882 0.58725 0.0
H100 H 0.404 0.25763 0.52862 0.0
H101 H 0.39306 0.13937 0.50867 0.0
H102 H 0.35209 0.12147 0.50705 0.0
H103 H 0.32677 0.20803 0.51798 0.0
H104 H 0.36775 0.22563 0.52042 0.0
H105 H 0.45585 0.22903 0.494 0.0
H106 H 0.38735 0.20957 0.43948 0.0
O107 O 0.43235 0.16968 0.52103 0.0
H108 H 0.46566 0.2592 0.43497 0.0
H109 H 0.39676 0.24025 0.38094 0.0
C110 C 0.41739 0.21985 0.55995 0.0
C111 C 0.4261 0.20879 0.59717 0.0
C112 C 0.42917 0.22667 0.63075 0.0
C113 C 0.42332 0.25586 0.62771 0.0
C114 C 0.41406 0.26662 0.59046 0.0
C115 C 0.41112 0.24876 0.55694 0.0
C116 C 0.38343 0.18378 0.5152 0.0
C117 C 0.37869 0.15447 0.51091 0.0
C118 C 0.35524 0.14429 0.50968 0.0
C119 C 0.33613 0.16331 0.51253 0.0
C120 C 0.34105 0.19274 0.51645 0.0
C121 C 0.36449 0.20286 0.51775 0.0
C122 C 0.42084 0.21729 0.47132 0.0
C123 C 0.44295 0.23122 0.46925 0.0
C124 C 0.44845 0.24862 0.43565 0.0
C125 C 0.4319 0.25235 0.4034 0.0
C126 C 0.40996 0.23768 0.40512 0.0
C127 C 0.40449 0.22026 0.4388 0.0
C128 C 0.00661 0.97463 0.44887 0.0
N129 N 0.04749 0.03822 0.50614 0.0
C130 C 0.06583 0.01951 0.50513 0.0
C131 C 0.08928 0.02955 0.50469 0.0
C132 C 0.09392 0.05914 0.50543 0.0
C133 C 0.07464 0.07796 0.5065 0.0
C134 C 0.05145 0.06699 0.50677 0.0
Zn135 Zn 0.01346 0.02254 0.50695 0.0
C136 C 0.98187 0.0526 0.44765 0.0
N137 N 0.94267 0.98893 0.5091 0.0
C138 C 0.93885 0.9602 0.50645 0.0
C139 C 0.92422 0.00743 0.51142 0.0
C140 C 0.90082 0.99719 0.51123 0.0
C141 C 0.8964 0.9677 0.50792 0.0
C142 C 0.91572 0.94909 0.50551 0.0
Zn143 Zn 0.97668 0.00465 0.50854 0.0
O144 O 0.02174 0.9931 0.46113 0.0
C145 C 0.00857 0.97459 0.56755 0.0
O146 O 0.98588 0.97443 0.46365 0.0
H147 H 0.92764 0.03021 0.51317 0.0
H148 H 0.0623 0.99671 0.50482 0.0
H149 H 0.95375 0.94586 0.50492 0.0
O150 O 0.02341 0.99213 0.55204 0.0
O151 O 0.98696 0.97512 0.55556 0.0
H152 H 0.03661 0.08148 0.50744 0.0
O153 O 0.9682 0.03492 0.55348 0.0
O154 O 0.00471 0.0518 0.55307 0.0
O155 O 0.96693 0.03447 0.46156 0.0
O156 O 0.00306 0.0526 0.46167 0.0
C157 C 0.9838 0.05238 0.56704 0.0
H158 H 0.10362 0.01428 0.5044 0.0
H159 H 0.07742 0.10094 0.50664 0.0
H160 H 0.88632 0.01218 0.51288 0.0
H161 H 0.91298 0.92617 0.50336 0.0
C162 C 0.47881 0.44866 0.95454 0.0
N163 N 0.54593 0.46339 0.00831 0.0
C164 C 0.54907 0.43454 0.00915 0.0
C165 C 0.5719 0.42316 0.00812 0.0
C166 C 0.59174 0.44164 0.00629 0.0
C167 C 0.58794 0.47133 0.00538 0.0
C168 C 0.56481 0.48177 0.0064 0.0
Zn169 Zn 0.51233 0.47956 0.01014 0.0
C170 C 0.50492 0.52638 0.94964 0.0
N171 N 0.4421 0.51321 0.01443 0.0
C172 C 0.42264 0.49593 0.01886 0.0
C173 C 0.43991 0.54206 0.00967 0.0
C174 C 0.41751 0.5545 0.008 0.0
C175 C 0.39714 0.53719 0.01193 0.0
C176 C 0.39982 0.5076 0.01806 0.0
Zn177 Zn 0.47555 0.49655 0.01292 0.0
O178 O 0.5004 0.44963 0.96654 0.0
C179 C 0.48314 0.44977 0.07361 0.0
O180 O 0.46407 0.46611 0.96906 0.0
H181 H 0.45557 0.55548 0.00668 0.0
H182 H 0.53382 0.42029 0.01077 0.0
H183 H 0.42478 0.47305 0.02249 0.0
O184 O 0.50362 0.45036 0.05779 0.0
O185 O 0.46742 0.46719 0.06066 0.0
H186 H 0.56194 0.50463 0.00564 0.0
O187 O 0.48764 0.52683 0.05696 0.0
O188 O 0.52373 0.50976 0.0534 0.0
O189 O 0.4843 0.52557 0.96481 0.0
O190 O 0.52061 0.50909 0.96292 0.0
C191 C 0.50939 0.52751 0.06817 0.0
H192 H 0.57401 0.40014 0.00936 0.0
H193 H 0.60268 0.48636 0.00341 0.0
H194 H 0.41611 0.57747 0.00375 0.0
H195 H 0.38446 0.49362 0.02111 0.0
C196 C 0.29416 0.16404 0.53731 0.0
C197 C 0.31118 0.15255 0.51143 0.0
C198 C 0.27067 0.15406 0.53618 0.0
C199 C 0.23365 0.09223 0.50554 0.0
H200 H 0.18201 0.1464 0.50947 0.0
C201 C 0.13573 0.05807 0.48003 0.0
C202 C 0.11874 0.07024 0.50531 0.0
C203 C 0.15916 0.06827 0.48026 0.0
C204 C 0.19622 0.13097 0.50882 0.0
H205 H 0.31675 0.12175 0.46372 0.0
H206 H 0.27576 0.10421 0.46193 0.0
H207 H 0.22303 0.1638 0.51103 0.0
H208 H 0.11311 0.10248 0.55098 0.0
H209 H 0.15403 0.1202 0.55157 0.0
H210 H 0.20689 0.05938 0.50359 0.0
C211 C 0.28069 0.12072 0.48343 0.0
C212 C 0.21972 0.14095 0.50968 0.0
C213 C 0.30417 0.13076 0.48449 0.0
C214 C 0.1257 0.09292 0.53072 0.0
C215 C 0.14914 0.10309 0.53103 0.0
C216 C 0.21015 0.08225 0.50478 0.0
C217 C 0.26367 0.13229 0.50923 0.0
C218 C 0.2387 0.12169 0.50808 0.0
C219 C 0.16617 0.09085 0.50585 0.0
C220 C 0.19116 0.10149 0.50643 0.0
H221 H 0.29905 0.18051 0.5589 0.0
H222 H 0.25806 0.16309 0.55688 0.0
H223 H 0.24789 0.07683 0.50486 0.0
H224 H 0.13084 0.04085 0.45965 0.0
H225 H 0.17172 0.05869 0.45999 0.0
C226 C 0.21313 0.67162 0.04228 0.0
C227 C 0.20846 0.69001 0.00878 0.0
C228 C 0.2312 0.6513 0.04055 0.0
C229 C 0.28784 0.642 0.99096 0.0
H230 H 0.28462 0.56342 0.03044 0.0
C231 C 0.36779 0.56866 0.97591 0.0
C232 C 0.37333 0.55024 0.00882 0.0
C233 C 0.34609 0.5828 0.97409 0.0
C234 C 0.28588 0.58541 0.0197 0.0
H235 H 0.21776 0.69988 0.94611 0.0
H236 H 0.24941 0.66479 0.94337 0.0
H237 H 0.24899 0.59308 0.03085 0.0
H238 H 0.36041 0.53144 0.06509 0.0
H239 H 0.32262 0.55694 0.06277 0.0
H240 H 0.32465 0.63509 0.98107 0.0
C241 C 0.23938 0.6664 0.97116 0.0
C242 C 0.26545 0.60231 0.01981 0.0
C243 C 0.2213 0.68653 0.97279 0.0
C244 C 0.35646 0.5455 0.03933 0.0
C245 C 0.33481 0.56003 0.03785 0.0
C246 C 0.30822 0.62531 0.99126 0.0
C247 C 0.24495 0.64913 0.00535 0.0
C248 C 0.26624 0.63071 0.00517 0.0
C249 C 0.32955 0.57928 0.00553 0.0
C250 C 0.30753 0.59673 0.00536 0.0
H251 H 0.20366 0.67386 0.07052 0.0
H252 H 0.23519 0.63832 0.06741 0.0
H253 H 0.2891 0.66403 0.98033 0.0
H254 H 0.38037 0.57227 0.95166 0.0
H255 H 0.34242 0.59678 0.94814 0.0
C256 C 0.70473 0.84495 0.54548 0.0
C257 C 0.70016 0.82713 0.51208 0.0
C258 C 0.72285 0.8656 0.5439 0.0
C259 C 0.76595 0.90158 0.47334 0.0
H260 H 0.80457 0.90719 0.57213 0.0
C261 C 0.86458 0.93674 0.47693 0.0
C262 C 0.87176 0.95631 0.50696 0.0
C263 C 0.84155 0.9253 0.47664 0.0
C264 C 0.79377 0.90616 0.54449 0.0
H265 H 0.71042 0.8173 0.45052 0.0
H266 H 0.74251 0.85255 0.44805 0.0
H267 H 0.76763 0.8797 0.57319 0.0
H268 H 0.86059 0.97945 0.56001 0.0
H269 H 0.82032 0.9589 0.56001 0.0
H270 H 0.79303 0.92686 0.44433 0.0
C271 C 0.73178 0.85134 0.47513 0.0
C272 C 0.7725 0.89051 0.54506 0.0
C273 C 0.71342 0.83102 0.47652 0.0
C274 C 0.85542 0.96448 0.53645 0.0
C275 C 0.83249 0.95267 0.53655 0.0
C276 C 0.78743 0.91688 0.47267 0.0
C277 C 0.73709 0.8685 0.50913 0.0
C278 C 0.75845 0.88764 0.50934 0.0
C279 C 0.82539 0.9329 0.50672 0.0
C280 C 0.80167 0.91896 0.50811 0.0
H281 H 0.69456 0.84251 0.57312 0.0
H282 H 0.72602 0.87886 0.57031 0.0
H283 H 0.7554 0.90037 0.44546 0.0
H284 H 0.87681 0.93027 0.45369 0.0
H285 H 0.83658 0.90989 0.45354 0.0
C286 C 0.80047 0.36807 0.02267 0.0
C287 C 0.80609 0.34417 -0.00074 0.0
C288 C 0.77725 0.37831 0.02315 0.0
C289 C 0.71483 0.35707 0.00246 0.0
H290 H 0.70454 0.43903 -0.00144 0.0
C291 C 0.62132 0.40603 0.98193 0.0
C292 C 0.61623 0.43008 0.00543 0.0
C293 C 0.64441 0.39532 0.98093 0.0
C294 C 0.70711 0.4161 0.00012 0.0
H295 H 0.7917 0.31244 0.9577 0.0
H296 H 0.75113 0.33034 0.95852 0.0
H297 H 0.74491 0.42076 0.99721 0.0
H298 H 0.63135 0.46135 0.04699 0.0
H299 H 0.67159 0.44268 0.04527 0.0
H300 H 0.677 0.35244 0.00541 0.0
C301 C 0.76465 0.34092 0.97695 0.0
C302 C 0.73026 0.40562 -0.00066 0.0
C303 C 0.7879 0.33066 0.97647 0.0
C304 C 0.63474 0.44309 0.02803 0.0
C305 C 0.65781 0.43239 0.02704 0.0
C306 C 0.69167 0.36756 0.00324 0.0
C307 C 0.75907 0.36491 0.00023 0.0
C308 C 0.7344 0.37599 0.00061 0.0
C309 C 0.66294 0.40842 0.00342 0.0
C310 C 0.68754 0.3972 0.00219 0.0
H311 H 0.81398 0.37866 0.04112 0.0
H312 H 0.77347 0.39653 0.04197 0.0
H313 H 0.71743 0.33414 0.00404 0.0
H314 H 0.60754 0.39575 0.96371 0.0
H315 H 0.64783 0.37707 0.96197 0.0
C316 C 0.06439 0.82501 0.16887 0.0
C317 C 0.08349 0.80638 0.17615 0.0
C318 C 0.05317 0.83805 0.2013 0.0
C319 C 0.06688 0.86014 0.30634 0.0
H320 H 0.00121 0.88454 0.30323 0.0
C321 C 0.03589 0.95462 0.40066 0.0
C322 C 0.01344 0.95306 0.41872 0.0
C323 C 0.04283 0.93381 0.37332 0.0
C324 C 0.01951 0.87762 0.3049 0.0
H325 H 0.10461 0.78507 0.22316 0.0
H326 H 0.08467 0.80735 0.27999 0.0
H327 H 0.01492 0.8508 0.25286 0.0
H328 H 0.98061 0.92842 0.42208 0.0
H329 H 0.99289 0.8918 0.37459 0.0
H330 H 0.07148 0.8867 0.35846 0.0
C331 C 0.07878 0.81251 0.24914 0.0
C332 C 0.02744 0.85849 0.27575 0.0
C333 C 0.09014 0.79963 0.21665 0.0
C334 C 0.99799 0.9303 0.40854 0.0
C335 C 0.005 0.90936 0.38124 0.0
C336 C 0.05894 0.87911 0.33552 0.0
C337 C 0.06069 0.83263 0.24181 0.0
C338 C 0.05135 0.84998 0.27561 0.0
C339 C 0.02758 0.91078 0.36351 0.0
C340 C 0.03531 0.88861 0.33461 0.0
H341 H 0.05906 0.83092 0.13799 0.0
H342 H 0.03954 0.85366 0.19437 0.0
H343 H 0.08547 0.85438 0.307 0.0
H344 H 0.04818 0.97194 0.40766 0.0
H345 H 0.06014 0.93594 0.35957 0.0
C346 C 0.55121 0.68451 0.65881 0.0
C347 C 0.5754 0.69217 0.66039 0.0
C348 C 0.54051 0.67121 0.69242 0.0
C349 C 0.55093 0.65186 0.80269 0.0
H350 H 0.50817 0.58866 0.77737 0.0
C351 C 0.53457 0.55522 0.91027 0.0
C352 C 0.51076 0.54771 0.91759 0.0
C353 C 0.54015 0.57588 0.88064 0.0
C354 C 0.51987 0.60646 0.78487 0.0
H355 H 0.60727 0.69246 0.69843 0.0
H356 H 0.589 0.66863 0.75639 0.0
H357 H 0.52179 0.62033 0.72264 0.0
H358 H 0.47414 0.5557 0.89945 0.0
H359 H 0.48406 0.59128 0.84656 0.0
H360 H 0.54996 0.63669 0.86471 0.0
C361 C 0.57792 0.67356 0.72993 0.0
C362 C 0.52759 0.62477 0.75359 0.0
C363 C 0.58849 0.6872 0.6966 0.0
C364 C 0.49265 0.5611 0.89446 0.0
C365 C 0.49828 0.58137 0.86423 0.0
C366 C 0.54354 0.63323 0.8338 0.0
C367 C 0.5539 0.66487 0.72806 0.0
C368 C 0.54357 0.64744 0.76196 0.0
C369 C 0.52207 0.58903 0.85728 0.0
C370 C 0.52824 0.61015 0.82503 0.0
H371 H 0.54071 0.68831 0.63128 0.0
H372 H 0.52187 0.6654 0.69013 0.0
H373 H 0.56276 0.66944 0.81053 0.0
H374 H 0.54889 0.54538 0.92776 0.0
H375 H 0.55865 0.58128 0.87552 0.0
C376 C 0.90912 0.20662 0.1665 0.0
C377 C 0.92568 0.22716 0.15267 0.0
C378 C 0.91464 0.18864 0.19973 0.0
C379 C 0.96583 0.15837 0.25602 0.0
H380 H 0.91971 0.14038 0.33941 0.0
C381 C 0.99111 0.09418 0.40135 0.0
C382 C 0.97482 0.07335 0.41522 0.0
C383 C 0.9847 0.1135 0.37026 0.0
C384 C 0.9327 0.14494 0.31612 0.0
H385 H 0.96097 0.24501 0.16303 0.0
H386 H 0.97048 0.21389 0.2213 0.0
H387 H 0.90919 0.17332 0.28359 0.0
H388 H 0.93893 0.05663 0.40748 0.0
H389 H 0.92786 0.09012 0.35274 0.0
H390 H 0.98927 0.12987 0.28815 0.0
C391 C 0.95329 0.21154 0.20625 0.0
C392 C 0.92668 0.16384 0.28419 0.0
C393 C 0.94774 0.22959 0.17316 0.0
C394 C 0.95189 0.07244 0.39753 0.0
C395 C 0.9455 0.09175 0.36632 0.0
C396 C 0.97183 0.13944 0.28783 0.0
C397 C 0.93688 0.19072 0.21971 0.0
C398 C 0.9432 0.1708 0.25384 0.0
C399 C 0.96188 0.11241 0.35217 0.0
C400 C 0.95536 0.13253 0.31832 0.0
H401 H 0.89188 0.20442 0.15159 0.0
H402 H 0.90168 0.17268 0.20919 0.0
H403 H 0.97881 0.1629 0.2327 0.0
H404 H 0.00887 0.0956 0.41449 0.0
H405 H 0.99762 0.12944 0.36057 0.0
C406 C 0.42236 0.26574 0.70295 0.0
C407 C 0.42717 0.27517 0.66294 0.0
C408 C 0.42624 0.28391 0.73599 0.0
C409 C 0.43293 0.36009 0.76232 0.0
H410 H 0.46556 0.3309 0.85924 0.0
C411 C 0.44806 0.42836 0.90644 0.0
C412 C 0.47112 0.42762 0.92357 0.0
C413 C 0.44117 0.40898 0.87622 0.0
C414 C 0.45645 0.33935 0.83235 0.0
H415 H 0.44018 0.31101 0.62649 0.0
H416 H 0.44668 0.34271 0.68401 0.0
H417 H 0.45645 0.29874 0.80287 0.0
H418 H 0.50492 0.40565 0.9229 0.0
H419 H 0.4929 0.37196 0.87025 0.0
H420 H 0.43339 0.40083 0.79142 0.0
C421 C 0.43961 0.32139 0.68975 0.0
C422 C 0.45104 0.32089 0.80026 0.0
C423 C 0.43585 0.30321 0.65678 0.0
C424 C 0.48702 0.40683 0.91032 0.0
C425 C 0.48009 0.38738 0.88033 0.0
C426 C 0.43821 0.37851 0.79451 0.0
C427 C 0.4349 0.31193 0.72971 0.0
C428 C 0.43947 0.33114 0.7647 0.0
C429 C 0.45716 0.38836 0.86275 0.0
C430 C 0.45027 0.36841 0.82967 0.0
H431 H 0.41532 0.24442 0.70873 0.0
H432 H 0.4222 0.27613 0.76641 0.0
H433 H 0.42378 0.36854 0.73546 0.0
H434 H 0.43538 0.44408 0.91604 0.0
H435 H 0.42331 0.41007 0.86348 0.0
C436 C 0.60818 0.68063 0.32031 0.0
C437 C 0.5946 0.68548 0.35512 0.0
C438 C 0.59805 0.66723 0.28634 0.0
C439 C 0.54222 0.64746 0.2339 0.0
H440 H 0.5774 0.581 0.20084 0.0
C441 C 0.50256 0.56229 0.12429 0.0
C442 C 0.51818 0.54867 0.09802 0.0
C443 C 0.51132 0.58123 0.15378 0.0
C444 C 0.5675 0.59976 0.20898 0.0
H445 H 0.55931 0.68137 0.38049 0.0
H446 H 0.54154 0.65851 0.32062 0.0
H447 H 0.5936 0.61148 0.25406 0.0
H448 H 0.55503 0.54523 0.08059 0.0
H449 H 0.57017 0.57893 0.13064 0.0
H450 H 0.51622 0.63596 0.18838 0.0
C451 C 0.56006 0.66504 0.31988 0.0
C452 C 0.5768 0.61718 0.23965 0.0
C453 C 0.57025 0.67821 0.35411 0.0
C454 C 0.54258 0.55506 0.10085 0.0
C455 C 0.55128 0.57429 0.12977 0.0
C456 C 0.53302 0.63021 0.20268 0.0
C457 C 0.57405 0.65869 0.2862 0.0
C458 C 0.56426 0.64114 0.25248 0.0
C459 C 0.53585 0.58724 0.15717 0.0
C460 C 0.54555 0.60608 0.18988 0.0
H461 H 0.62682 0.68658 0.31965 0.0
H462 H 0.60912 0.66298 0.26044 0.0
H463 H 0.53225 0.66589 0.24322 0.0
H464 H 0.48365 0.55773 0.12279 0.0
H465 H 0.49892 0.59053 0.17458 0.0
C466 C 0.91342 0.20982 0.83509 0.0
C467 C 0.9311 0.22698 0.85356 0.0
C468 C 0.919 0.19177 0.80306 0.0
C469 C 0.96983 0.15526 0.75744 0.0
H470 H 0.92658 0.14566 0.66513 0.0
C471 C 0.9951 0.09164 0.61517 0.0
C472 C 0.97768 0.07307 0.59888 0.0
C473 C 0.98937 0.11097 0.64554 0.0
C474 C 0.93874 0.14792 0.6909 0.0
H475 H 0.96834 0.23934 0.85199 0.0
H476 H 0.97805 0.20798 0.79602 0.0
H477 H 0.91663 0.17866 0.71912 0.0
H478 H 0.94052 0.06037 0.60157 0.0
H479 H 0.93058 0.09399 0.65471 0.0
H480 H 0.99193 0.12452 0.72924 0.0
C481 C 0.95996 0.20803 0.80681 0.0
C482 C 0.93303 0.16681 0.72184 0.0
C483 C 0.9544 0.22603 0.83886 0.0
C484 C 0.95436 0.07439 0.61344 0.0
C485 C 0.94862 0.09378 0.64373 0.0
C486 C 0.97555 0.13642 0.72648 0.0
C487 C 0.94238 0.19051 0.78872 0.0
C488 C 0.9485 0.17068 0.75551 0.0
C489 C 0.96607 0.11222 0.66021 0.0
C490 C 0.96006 0.1325 0.69288 0.0
H491 H 0.89537 0.2098 0.84606 0.0
H492 H 0.90509 0.17828 0.79019 0.0
H493 H 0.98195 0.15735 0.78328 0.0
H494 H 0.01322 0.09125 0.60454 0.0
H495 H 0.00315 0.12514 0.65726 0.0
C496 C 0.43097 0.26475 0.32845 0.0
C497 C 0.4373 0.27204 0.36869 0.0
C498 C 0.43591 0.2835 0.29597 0.0
C499 C 0.47444 0.34477 0.26735 0.0
H500 H 0.42733 0.35689 0.18122 0.0
C501 C 0.49518 0.40981 0.1211 0.0
C502 C 0.47773 0.42896 0.10673 0.0
C503 C 0.49018 0.39023 0.15249 0.0
C504 C 0.4406 0.35386 0.20517 0.0
H505 H 0.45336 0.30504 0.4064 0.0
H506 H 0.46203 0.33765 0.34981 0.0
H507 H 0.41866 0.32375 0.23743 0.0
H508 H 0.44128 0.44246 0.11396 0.0
H509 H 0.43263 0.40841 0.16902 0.0
H510 H 0.49621 0.37526 0.23558 0.0
C511 C 0.4536 0.31723 0.34326 0.0
C512 C 0.43575 0.33464 0.23712 0.0
C513 C 0.44865 0.29852 0.3757 0.0
C514 C 0.45512 0.42798 0.1243 0.0
C515 C 0.45011 0.40836 0.15569 0.0
C516 C 0.47931 0.36393 0.23538 0.0
C517 C 0.4473 0.30995 0.30303 0.0
C518 C 0.45258 0.32996 0.26864 0.0
C519 C 0.46761 0.38932 0.17021 0.0
C520 C 0.46244 0.36875 0.20397 0.0
H521 H 0.42247 0.24437 0.32197 0.0
H522 H 0.43111 0.27711 0.26525 0.0
H523 H 0.48788 0.34142 0.29094 0.0
H524 H 0.51276 0.4099 0.10811 0.0
H525 H 0.50394 0.3756 0.16261 0.0
C526 C 0.06398 0.83048 0.86832 0.0
C527 C 0.08806 0.82275 0.87019 0.0
C528 C 0.05435 0.84321 0.83294 0.0
C529 C 0.0726 0.88918 0.74895 0.0
H530 H 0.01217 0.86914 0.69776 0.0
C531 C 0.04089 0.94763 0.6035 0.0
C532 C 0.01664 0.95399 0.59935 0.0
C533 C 0.04894 0.92914 0.63443 0.0
C534 C 0.02894 0.87524 0.712 0.0
H535 H 0.12075 0.82155 0.83621 0.0
H536 H 0.10395 0.84394 0.77456 0.0
H537 H 0.02715 0.84064 0.75577 0.0
H538 H 0.98168 0.94562 0.62385 0.0
H539 H 0.99582 0.91412 0.67905 0.0
H540 H 0.07422 0.92431 0.70681 0.0
C541 C 0.09255 0.84007 0.80041 0.0
C542 C 0.03754 0.85881 0.74504 0.0
C543 C 0.10209 0.82705 0.83554 0.0
C544 C 0.00049 0.94105 0.62632 0.0
C545 C 0.0086 0.92286 0.6578 0.0
C546 C 0.06391 0.90579 0.71643 0.0
C547 C 0.06873 0.84878 0.79906 0.0
C548 C 0.05952 0.86557 0.76363 0.0
C549 C 0.033 0.91694 0.66253 0.0
C550 C 0.04203 0.89899 0.69729 0.0
H551 H 0.05275 0.82724 0.89454 0.0
H552 H 0.03595 0.84984 0.83272 0.0
H553 H 0.08939 0.89521 0.76327 0.0
H554 H 0.05373 0.95695 0.58278 0.0
H555 H 0.06774 0.92452 0.63631 0.0
loop_
_geom_bond_atom_site_label_1
_geom_bond_atom_site_label_2
_geom_bond_distance
_geom_bond_site_symmetry_2
_ccdc_geom_bond_type
P0 O11 1.490 . S
P0 C14 1.812 . S
P0 C20 1.803 . S
P0 C26 1.819 1_554 S
H1 C15 0.941 . S
H2 C16 0.939 . S
H3 C18 0.940 . S
H4 C19 0.940 . S
H5 C21 0.939 1_556 S
H6 C22 0.942 1_556 S
H7 C24 0.940 . S
H8 C25 0.939 . S
H9 C27 0.941 . S
H10 C31 0.939 . S
O11 P0 1.490 . S
H12 C28 0.939 . S
H13 C30 0.940 . S
C14 P0 1.812 . S
C14 C15 1.389 . S
C14 C19 1.391 . S
C15 H1 0.941 . S
C15 C14 1.389 . S
C15 C16 1.397 . S
C16 H2 0.939 . S
C16 C15 1.397 . S
C16 C17 1.378 . S
C17 C16 1.378 . S
C17 C18 1.378 . S
C18 H3 0.940 . S
C18 C17 1.378 . S
C18 C19 1.396 . S
C19 H4 0.940 . S
C19 C14 1.391 . S
C19 C18 1.396 . S
C20 P0 1.803 . S
C20 C21 1.378 . S
C20 C25 1.400 . S
C21 H5 0.939 1_554 S
C21 C20 1.378 . S
C21 C22 1.361 . S
C22 H6 0.942 1_554 S
C22 C21 1.361 . S
C22 C23 1.369 . S
C23 C22 1.369 . S
C23 C24 1.404 . S
C24 H7 0.940 . S
C24 C23 1.404 . S
C24 C25 1.389 . S
C25 H8 0.939 . S
C25 C20 1.400 . S
C25 C24 1.389 . S
C26 P0 1.819 1_556 S
C26 C27 1.391 . S
C26 C31 1.391 . S
C27 H9 0.941 . S
C27 C26 1.391 . S
C27 C28 1.396 . S
C28 H12 0.939 . S
C28 C27 1.396 . S
C28 C29 1.397 . S
C29 C28 1.397 . S
C29 C30 1.385 . S
C30 H13 0.940 . S
C30 C29 1.385 . S
C30 C31 1.388 . S
C31 H10 0.939 . S
C31 C26 1.391 . S
C31 C30 1.388 . S
P32 O43 1.490 . S
P32 C46 1.812 . S
P32 C52 1.803 . S
P32 C58 1.819 . S
H33 C47 0.941 . S
H34 C48 0.939 . S
H35 C50 0.940 . S
H36 C51 0.940 . S
H37 C53 0.939 . S
H38 C54 0.942 . S
H39 C56 0.940 . S
H40 C57 0.939 . S
H41 C59 0.941 . S
H42 C63 0.939 . S
O43 P32 1.490 . S
H44 C60 0.939 . S
H45 C62 0.940 . S
C46 P32 1.812 . S
C46 C47 1.389 . S
C46 C51 1.391 . S
C47 H33 0.941 . S
C47 C46 1.389 . S
C47 C48 1.397 . S
C48 H34 0.939 . S
C48 C47 1.397 . S
C48 C49 1.378 . S
C49 C48 1.378 . S
C49 C50 1.378 . S
C50 H35 0.940 . S
C50 C49 1.378 . S
C50 C51 1.396 . S
C51 H36 0.940 . S
C51 C46 1.391 . S
C51 C50 1.396 . S
C52 P32 1.803 . S
C52 C53 1.378 . S
C52 C57 1.400 . S
C53 H37 0.939 . S
C53 C52 1.378 . S
C53 C54 1.361 . S
C54 H38 0.942 . S
C54 C53 1.361 . S
C54 C55 1.369 . S
C55 C54 1.369 . S
C55 C56 1.404 . S
C56 H39 0.940 . S
C56 C55 1.404 . S
C56 C57 1.389 . S
C57 H40 0.939 . S
C57 C52 1.400 . S
C57 C56 1.389 . S
C58 P32 1.819 . S
C58 C59 1.391 . S
C58 C63 1.391 . S
C59 H41 0.941 . S
C59 C58 1.391 . S
C59 C60 1.396 . S
C60 H44 0.939 . S
C60 C59 1.396 . S
C60 C61 1.397 . S
C61 C60 1.397 . S
C61 C62 1.385 . S
C62 H45 0.940 . S
C62 C61 1.385 . S
C62 C63 1.388 . S
C63 H42 0.939 . S
C63 C58 1.391 . S
C63 C62 1.388 . S
P64 O75 1.490 . S
P64 C78 1.812 1_554 S
P64 C84 1.803 . S
P64 C90 1.819 . S
H65 C79 0.941 . S
H66 C80 0.939 . S
H67 C82 0.940 . S
H68 C83 0.940 . S
H69 C85 0.939 . S
H70 C86 0.942 . S
H71 C88 0.940 . S
H72 C89 0.939 . S
H73 C91 0.941 . S
H74 C95 0.939 . S
O75 P64 1.490 . S
H76 C92 0.939 . S
H77 C94 0.940 . S
C78 P64 1.812 1_556 S
C78 C79 1.389 . S
C78 C83 1.391 . S
C79 H65 0.941 . S
C79 C78 1.389 . S
C79 C80 1.397 . S
C80 H66 0.939 . S
C80 C79 1.397 . S
C80 C81 1.378 . S
C81 C80 1.378 . S
C81 C82 1.378 . S
C82 H67 0.940 . S
C82 C81 1.378 . S
C82 C83 1.396 . S
C83 H68 0.940 . S
C83 C78 1.391 . S
C83 C82 1.396 . S
C84 P64 1.803 . S
C84 C85 1.378 . S
C84 C89 1.400 1_554 S
C85 H69 0.939 . S
C85 C84 1.378 . S
C85 C86 1.361 . S
C86 H70 0.942 . S
C86 C85 1.361 . S
C86 C87 1.369 . S
C87 C86 1.369 . S
C87 C88 1.404 1_554 S
C88 H71 0.940 . S
C88 C87 1.404 1_556 S
C88 C89 1.389 . S
C89 H72 0.939 . S
C89 C84 1.400 1_556 S
C89 C88 1.389 . S
C90 P64 1.819 . S
C90 C91 1.391 . S
C90 C95 1.391 . S
C91 H73 0.941 . S
C91 C90 1.391 . S
C91 C92 1.396 . S
C92 H76 0.939 . S
C92 C91 1.396 . S
C92 C93 1.397 . S
C93 C92 1.397 . S
C93 C94 1.385 . S
C94 H77 0.940 . S
C94 C93 1.385 . S
C94 C95 1.388 . S
C95 H74 0.939 . S
C95 C90 1.391 . S
C95 C94 1.388 . S
P96 O107 1.490 . S
P96 C110 1.812 . S
P96 C116 1.803 . S
P96 C122 1.819 . S
H97 C111 0.941 . S
H98 C112 0.939 . S
H99 C114 0.940 . S
H100 C115 0.940 . S
H101 C117 0.939 . S
H102 C118 0.942 . S
H103 C120 0.940 . S
H104 C121 0.939 . S
H105 C123 0.941 . S
H106 C127 0.939 . S
O107 P96 1.490 . S
H108 C124 0.939 . S
H109 C126 0.940 . S
C110 P96 1.812 . S
C110 C111 1.389 . S
C110 C115 1.391 . S
C111 H97 0.941 . S
C111 C110 1.389 . S
C111 C112 1.397 . S
C112 H98 0.939 . S
C112 C111 1.397 . S
C112 C113 1.378 . S
C113 C112 1.378 . S
C113 C114 1.378 . S
C114 H99 0.940 . S
C114 C113 1.378 . S
C114 C115 1.396 . S
C115 H100 0.940 . S
C115 C110 1.391 . S
C115 C114 1.396 . S
C116 P96 1.803 . S
C116 C117 1.378 . S
C116 C121 1.400 . S
C117 H101 0.939 . S
C117 C116 1.378 . S
C117 C118 1.361 . S
C118 H102 0.942 . S
C118 C117 1.361 . S
C118 C119 1.369 . S
C119 C118 1.369 . S
C119 C120 1.404 . S
C120 H103 0.940 . S
C120 C119 1.404 . S
C120 C121 1.389 . S
C121 H104 0.939 . S
C121 C116 1.400 . S
C121 C120 1.389 . S
C122 P96 1.819 . S
C122 C123 1.391 . S
C122 C127 1.391 . S
C123 H105 0.941 . S
C123 C122 1.391 . S
C123 C124 1.396 . S
C124 H108 0.939 . S
C124 C123 1.396 . S
C124 C125 1.397 . S
C125 C124 1.397 . S
C125 C126 1.385 . S
C126 H109 0.940 . S
C126 C125 1.385 . S
C126 C127 1.388 . S
C127 H106 0.939 . S
C127 C122 1.391 . S
C127 C126 1.388 . S
C128 O144 1.251 . S
C128 O146 1.254 1_455 S
N129 C130 1.333 . S
N129 C134 1.307 . S
N129 Zn135 2.020 . S
C130 N129 1.333 . S
C130 C131 1.379 . S
C130 H148 0.952 . S
C131 C130 1.379 . S
C131 C132 1.390 . S
C131 H158 0.949 . S
C132 C131 1.390 . S
C132 C133 1.357 . S
C133 C132 1.357 . S
C133 C134 1.370 . S
C133 H159 0.950 . S
C134 N129 1.307 . S
C134 C133 1.370 . S
C134 H152 0.948 . S
Zn135 N129 2.020 . S
Zn135 O144 2.039 1_545 S
Zn135 O150 2.034 1_545 S
Zn135 O154 2.025 . S
Zn135 O156 2.024 . S
C136 O155 1.246 . S
C136 O156 1.249 1_655 S
N137 C138 1.307 . S
N137 C139 1.333 . S
N137 Zn143 2.020 . S
C138 N137 1.307 . S
C138 C142 1.370 . S
C138 H149 0.948 . S
C139 N137 1.333 . S
C139 C140 1.379 . S
C139 H147 0.952 . S
C140 C139 1.379 . S
C140 C141 1.390 . S
C140 H160 0.949 . S
C141 C140 1.390 . S
C141 C142 1.357 . S
C142 C138 1.370 . S
C142 C141 1.357 . S
C142 H161 0.950 . S
Zn143 N137 2.020 . S
Zn143 O146 2.025 . S
Zn143 O151 2.024 . S
Zn143 O153 2.039 1_565 S
Zn143 O155 2.034 1_565 S
O144 C128 1.251 . S
O144 Zn135 2.039 1_565 S
C145 O150 1.246 . S
C145 O151 1.249 1_455 S
O146 C128 1.254 1_655 S
O146 Zn143 2.025 . S
H147 C139 0.952 . S
H148 C130 0.952 . S
H149 C138 0.948 . S
O150 Zn135 2.034 1_565 S
O150 C145 1.246 . S
O151 Zn143 2.024 . S
O151 C145 1.249 1_655 S
H152 C134 0.948 . S
O153 Zn143 2.039 1_545 S
O153 C157 1.251 . S
O154 Zn135 2.025 . S
O154 C157 1.254 1_455 S
O155 C136 1.246 . S
O155 Zn143 2.034 1_545 S
O156 Zn135 2.024 . S
O156 C136 1.249 1_455 S
C157 O153 1.251 . S
C157 O154 1.254 1_655 S
H158 C131 0.949 . S
H159 C133 0.950 . S
H160 C140 0.949 . S
H161 C142 0.950 . S
C162 O178 1.251 . S
C162 O180 1.254 . S
N163 C164 1.339 . S
N163 C168 1.307 . S
N163 Zn169 2.020 . S
C164 N163 1.339 . S
C164 C165 1.379 1_554 S
C164 H182 0.946 1_554 S
C165 C164 1.379 1_556 S
C165 C166 1.388 1_556 S
C165 H192 0.951 . S
C166 C165 1.388 1_554 S
C166 C167 1.357 . S
C167 C166 1.357 . S
C167 C168 1.370 . S
C167 H193 0.950 . S
C168 N163 1.307 . S
C168 C167 1.370 . S
C168 H186 0.948 . S
Zn169 N163 2.020 . S
Zn169 O178 2.039 1_554 S
Zn169 O184 2.034 . S
Zn169 O188 2.025 . S
Zn169 O190 2.024 1_554 S
C170 O189 1.246 . S
C170 O190 1.249 . S
N171 C172 1.307 . S
N171 C173 1.333 . S
N171 Zn177 2.020 . S
C172 N171 1.307 . S
C172 C176 1.370 . S
C172 H183 0.948 1_554 S
C173 N171 1.333 . S
C173 C174 1.379 . S
C173 H181 0.952 . S
C174 C173 1.379 . S
C174 C175 1.390 . S
C174 H194 0.949 . S
C175 C174 1.390 . S
C175 C176 1.357 . S
C176 C172 1.370 . S
C176 C175 1.357 . S
C176 H195 0.950 1_554 S
Zn177 N171 2.020 . S
Zn177 O180 2.025 1_554 S
Zn177 O185 2.024 . S
Zn177 O187 2.039 . S
Zn177 O189 2.034 1_554 S
O178 C162 1.251 . S
O178 Zn169 2.039 1_556 S
C179 O184 1.246 . S
C179 O185 1.249 . S
O180 C162 1.254 . S
O180 Zn177 2.025 1_556 S
H181 C173 0.952 . S
H182 C164 0.946 1_556 S
H183 C172 0.948 1_556 S
O184 Zn169 2.034 . S
O184 C179 1.246 . S
O185 Zn177 2.024 . S
O185 C179 1.249 . S
H186 C168 0.948 . S
O187 Zn177 2.039 . S
O187 C191 1.251 . S
O188 Zn169 2.025 . S
O188 C191 1.254 . S
O189 C170 1.246 . S
O189 Zn177 2.034 1_556 S
O190 Zn169 2.024 1_556 S
O190 C170 1.249 . S
C191 O187 1.251 . S
C191 O188 1.254 . S
H192 C165 0.951 . S
H193 C167 0.950 . S
H194 C174 0.949 . S
H195 C176 0.950 1_556 S
C196 C197 1.349 . S
C196 C198 1.327 . S
C196 H221 0.950 . S
C197 C196 1.349 . S
C197 C213 1.349 . S
C198 C196 1.327 . S
C198 C217 1.429 . S
C198 H222 0.950 . S
C199 C216 1.574 . S
C199 C218 1.368 . S
C199 H223 0.949 . S
H200 C204 0.949 . S
C201 C202 1.349 . S
C201 C203 1.327 . S
C201 H224 0.950 . S
C202 C201 1.349 . S
C202 C214 1.349 . S
C203 C201 1.327 . S
C203 C219 1.429 . S
C203 H225 0.950 . S
C204 H200 0.949 . S
C204 C212 1.574 . S
C204 C220 1.368 . S
H205 C213 0.950 . S
H206 C211 0.950 . S
H207 C212 0.949 . S
H208 C214 0.950 . S
H209 C215 0.950 . S
H210 C216 0.949 . S
C211 H206 0.950 . S
C211 C213 1.327 . S
C211 C217 1.429 . S
C212 C204 1.574 . S
C212 H207 0.949 . S
C212 C218 1.368 . S
C213 C197 1.349 . S
C213 H205 0.950 . S
C213 C211 1.327 . S
C214 C202 1.349 . S
C214 H208 0.950 . S
C214 C215 1.327 . S
C215 H209 0.950 . S
C215 C214 1.327 . S
C215 C219 1.429 . S
C216 C199 1.574 . S
C216 H210 0.949 . S
C216 C220 1.368 . S
C217 C198 1.429 . S
C217 C211 1.429 . S
C217 C218 1.523 . S
C218 C199 1.368 . S
C218 C212 1.368 . S
C218 C217 1.523 . S
C219 C203 1.429 . S
C219 C215 1.429 . S
C219 C220 1.523 . S
C220 C204 1.368 . S
C220 C216 1.368 . S
C220 C219 1.523 . S
H221 C196 0.950 . S
H222 C198 0.950 . S
H223 C199 0.949 . S
H224 C201 0.950 . S
H225 C203 0.950 . S
C226 C227 1.349 . S
C226 C228 1.327 . S
C226 H251 0.950 . S
C227 C226 1.349 . S
C227 C243 1.349 1_554 S
C228 C226 1.327 . S
C228 C247 1.429 . S
C228 H252 0.950 . S
C229 C246 1.574 . S
C229 C248 1.368 1_556 S
C229 H253 0.949 . S
H230 C234 0.949 . S
C231 C232 1.349 1_556 S
C231 C233 1.327 . S
C231 H254 0.950 . S
C232 C231 1.349 1_554 S
C232 C244 1.349 . S
C233 C231 1.327 . S
C233 C249 1.429 1_556 S
C233 H255 0.950 . S
C234 H230 0.949 . S
C234 C242 1.574 . S
C234 C250 1.368 . S
H235 C243 0.950 . S
H236 C241 0.950 . S
H237 C242 0.949 . S
H238 C244 0.950 . S
H239 C245 0.950 . S
H240 C246 0.949 . S
C241 H236 0.950 . S
C241 C243 1.327 . S
C241 C247 1.429 1_556 S
C242 C234 1.574 . S
C242 H237 0.949 . S
C242 C248 1.368 . S
C243 C227 1.349 1_556 S
C243 H235 0.950 . S
C243 C241 1.327 . S
C244 C232 1.349 . S
C244 H238 0.950 . S
C244 C245 1.327 . S
C245 H239 0.950 . S
C245 C244 1.327 . S
C245 C249 1.429 . S
C246 C229 1.574 . S
C246 H240 0.949 . S
C246 C250 1.368 1_556 S
C247 C228 1.429 . S
C247 C241 1.429 1_554 S
C247 C248 1.523 . S
C248 C229 1.368 1_554 S
C248 C242 1.368 . S
C248 C247 1.523 . S
C249 C233 1.429 1_554 S
C249 C245 1.429 . S
C249 C250 1.523 . S
C250 C234 1.368 . S
C250 C246 1.368 1_554 S
C250 C249 1.523 . S
H251 C226 0.950 . S
H252 C228 0.950 . S
H253 C229 0.949 . S
H254 C231 0.950 . S
H255 C233 0.950 . S
C256 C257 1.349 . S
C256 C258 1.327 . S
C256 H281 0.950 . S
C257 C256 1.349 . S
C257 C273 1.349 . S
C258 C256 1.327 . S
C258 C277 1.429 . S
C258 H282 0.950 . S
C259 C276 1.574 . S
C259 C278 1.368 . S
C259 H283 0.949 . S
H260 C264 0.949 . S
C261 C262 1.349 . S
C261 C263 1.327 . S
C261 H284 0.950 . S
C262 C261 1.349 . S
C262 C274 1.349 . S
C263 C261 1.327 . S
C263 C279 1.429 . S
C263 H285 0.950 . S
C264 H260 0.949 . S
C264 C272 1.574 . S
C264 C280 1.368 . S
H265 C273 0.950 . S
H266 C271 0.950 . S
H267 C272 0.949 . S
H268 C274 0.950 . S
H269 C275 0.950 . S
H270 C276 0.949 . S
C271 H266 0.950 . S
C271 C273 1.327 . S
C271 C277 1.429 . S
C272 C264 1.574 . S
C272 H267 0.949 . S
C272 C278 1.368 . S
C273 C257 1.349 . S
C273 H265 0.950 . S
C273 C271 1.327 . S
C274 C262 1.349 . S
C274 H268 0.950 . S
C274 C275 1.327 . S
C275 H269 0.950 . S
C275 C274 1.327 . S
C275 C279 1.429 . S
C276 C259 1.574 . S
C276 H270 0.949 . S
C276 C280 1.368 . S
C277 C258 1.429 . S
C277 C271 1.429 . S
C277 C278 1.523 . S
C278 C259 1.368 . S
C278 C272 1.368 . S
C278 C277 1.523 . S
C279 C263 1.429 . S
C279 C275 1.429 . S
C279 C280 1.523 . S
C280 C264 1.368 . S
C280 C276 1.368 . S
C280 C279 1.523 . S
H281 C256 0.950 . S
H282 C258 0.950 . S
H283 C259 0.949 . S
H284 C261 0.950 . S
H285 C263 0.950 . S
C286 C287 1.349 . S
C286 C288 1.327 . S
C286 H311 0.950 . S
C287 C286 1.349 . S
C287 C303 1.349 1_554 S
C288 C286 1.327 . S
C288 C307 1.429 . S
C288 H312 0.950 . S
C289 C306 1.574 . S
C289 C308 1.368 1_556 S
C289 H313 0.949 . S
H290 C294 0.949 . S
C291 C292 1.349 1_556 S
C291 C293 1.327 . S
C291 H314 0.950 . S
C292 C291 1.349 1_554 S
C292 C304 1.349 . S
C293 C291 1.327 . S
C293 C309 1.429 1_556 S
C293 H315 0.950 . S
C294 H290 0.949 . S
C294 C302 1.574 . S
C294 C310 1.368 . S
H295 C303 0.950 . S
H296 C301 0.950 . S
H297 C302 0.949 . S
H298 C304 0.950 . S
H299 C305 0.950 . S
H300 C306 0.949 . S
C301 H296 0.950 . S
C301 C303 1.327 . S
C301 C307 1.429 1_556 S
C302 C294 1.574 . S
C302 H297 0.949 . S
C302 C308 1.368 . S
C303 C287 1.349 1_556 S
C303 H295 0.950 . S
C303 C301 1.327 . S
C304 C292 1.349 . S
C304 H298 0.950 . S
C304 C305 1.327 . S
C305 H299 0.950 . S
C305 C304 1.327 . S
C305 C309 1.429 . S
C306 C289 1.574 . S
C306 H300 0.949 . S
C306 C310 1.368 1_556 S
C307 C288 1.429 . S
C307 C301 1.429 1_554 S
C307 C308 1.523 . S
C308 C289 1.368 1_554 S
C308 C302 1.368 . S
C308 C307 1.523 . S
C309 C293 1.429 1_554 S
C309 C305 1.429 . S
C309 C310 1.523 . S
C310 C294 1.368 . S
C310 C306 1.368 1_554 S
C310 C309 1.523 . S
H311 C286 0.950 . S
H312 C288 0.950 . S
H313 C289 0.949 . S
H314 C291 0.950 . S
H315 C293 0.950 . S
C316 C317 1.349 . S
C316 C318 1.327 . S
C316 H341 0.950 . S
C317 C316 1.349 . S
C317 C333 1.349 . S
C318 C316 1.327 . S
C318 C337 1.429 . S
C318 H342 0.950 . S
C319 C336 1.574 . S
C319 C338 1.368 . S
C319 H343 0.949 . S
H320 C324 0.949 . S
C321 C322 1.349 . S
C321 C323 1.327 . S
C321 H344 0.950 . S
C322 C321 1.349 . S
C322 C334 1.349 . S
C323 C321 1.327 . S
C323 C339 1.429 . S
C323 H345 0.950 . S
C324 H320 0.949 . S
C324 C332 1.574 . S
C324 C340 1.368 . S
H325 C333 0.950 . S
H326 C331 0.950 . S
H327 C332 0.949 . S
H328 C334 0.950 . S
H329 C335 0.950 . S
H330 C336 0.949 . S
C331 H326 0.950 . S
C331 C333 1.327 . S
C331 C337 1.429 . S
C332 C324 1.574 . S
C332 H327 0.949 . S
C332 C338 1.368 . S
C333 C317 1.349 . S
C333 H325 0.950 . S
C333 C331 1.327 . S
C334 C322 1.349 . S
C334 H328 0.950 . S
C334 C335 1.327 . S
C335 H329 0.950 . S
C335 C334 1.327 . S
C335 C339 1.429 . S
C336 C319 1.574 . S
C336 H330 0.949 . S
C336 C340 1.368 . S
C337 C318 1.429 . S
C337 C331 1.429 . S
C337 C338 1.523 . S
C338 C319 1.368 . S
C338 C332 1.368 . S
C338 C337 1.523 . S
C339 C323 1.429 . S
C339 C335 1.429 . S
C339 C340 1.523 . S
C340 C324 1.368 . S
C340 C336 1.368 . S
C340 C339 1.523 . S
H341 C316 0.950 . S
H342 C318 0.950 . S
H343 C319 0.949 . S
H344 C321 0.950 . S
H345 C323 0.950 . S
C346 C347 1.349 . S
C346 C348 1.327 . S
C346 H371 0.950 . S
C347 C346 1.349 . S
C347 C363 1.349 . S
C348 C346 1.327 . S
C348 C367 1.429 . S
C348 H372 0.950 . S
C349 C366 1.574 . S
C349 C368 1.368 . S
C349 H373 0.949 . S
H350 C354 0.949 . S
C351 C352 1.349 . S
C351 C353 1.327 . S
C351 H374 0.950 . S
C352 C351 1.349 . S
C352 C364 1.349 . S
C353 C351 1.327 . S
C353 C369 1.429 . S
C353 H375 0.950 . S
C354 H350 0.949 . S
C354 C362 1.574 . S
C354 C370 1.368 . S
H355 C363 0.950 . S
H356 C361 0.950 . S
H357 C362 0.949 . S
H358 C364 0.950 . S
H359 C365 0.950 . S
H360 C366 0.949 . S
C361 H356 0.950 . S
C361 C363 1.327 . S
C361 C367 1.429 . S
C362 C354 1.574 . S
C362 H357 0.949 . S
C362 C368 1.368 . S
C363 C347 1.349 . S
C363 H355 0.950 . S
C363 C361 1.327 . S
C364 C352 1.349 . S
C364 H358 0.950 . S
C364 C365 1.327 . S
C365 H359 0.950 . S
C365 C364 1.327 . S
C365 C369 1.429 . S
C366 C349 1.574 . S
C366 H360 0.949 . S
C366 C370 1.368 . S
C367 C348 1.429 . S
C367 C361 1.429 . S
C367 C368 1.523 . S
C368 C349 1.368 . S
C368 C362 1.368 . S
C368 C367 1.523 . S
C369 C353 1.429 . S
C369 C365 1.429 . S
C369 C370 1.523 . S
C370 C354 1.368 . S
C370 C366 1.368 . S
C370 C369 1.523 . S
H371 C346 0.950 . S
H372 C348 0.950 . S
H373 C349 0.949 . S
H374 C351 0.950 . S
H375 C353 0.950 . S
C376 C377 1.349 . S
C376 C378 1.327 . S
C376 H401 0.950 . S
C377 C376 1.349 . S
C377 C393 1.349 . S
C378 C376 1.327 . S
C378 C397 1.429 . S
C378 H402 0.950 . S
C379 C396 1.574 . S
C379 C398 1.368 . S
C379 H403 0.949 . S
H380 C384 0.949 . S
C381 C382 1.349 . S
C381 C383 1.327 . S
C381 H404 0.950 . S
C382 C381 1.349 . S
C382 C394 1.349 . S
C383 C381 1.327 . S
C383 C399 1.429 . S
C383 H405 0.950 . S
C384 H380 0.949 . S
C384 C392 1.574 . S
C384 C400 1.368 . S
H385 C393 0.950 . S
H386 C391 0.950 . S
H387 C392 0.949 . S
H388 C394 0.950 . S
H389 C395 0.950 . S
H390 C396 0.949 . S
C391 H386 0.950 . S
C391 C393 1.327 . S
C391 C397 1.429 . S
C392 C384 1.574 . S
C392 H387 0.949 . S
C392 C398 1.368 . S
C393 C377 1.349 . S
C393 H385 0.950 . S
C393 C391 1.327 . S
C394 C382 1.349 . S
C394 H388 0.950 . S
C394 C395 1.327 . S
C395 H389 0.950 . S
C395 C394 1.327 . S
C395 C399 1.429 . S
C396 C379 1.574 . S
C396 H390 0.949 . S
C396 C400 1.368 . S
C397 C378 1.429 . S
C397 C391 1.429 . S
C397 C398 1.523 . S
C398 C379 1.368 . S
C398 C392 1.368 . S
C398 C397 1.523 . S
C399 C383 1.429 . S
C399 C395 1.429 . S
C399 C400 1.523 . S
C400 C384 1.368 . S
C400 C396 1.368 . S
C400 C399 1.523 . S
H401 C376 0.950 . S
H402 C378 0.950 . S
H403 C379 0.949 . S
H404 C381 0.950 . S
H405 C383 0.950 . S
C406 C407 1.349 . S
C406 C408 1.327 . S
C406 H431 0.950 . S
C407 C406 1.349 . S
C407 C423 1.349 . S
C408 C406 1.327 . S
C408 C427 1.429 . S
C408 H432 0.950 . S
C409 C426 1.574 . S
C409 C428 1.368 . S
C409 H433 0.949 . S
H410 C414 0.949 . S
C411 C412 1.349 . S
C411 C413 1.327 . S
C411 H434 0.950 . S
C412 C411 1.349 . S
C412 C424 1.349 . S
C413 C411 1.327 . S
C413 C429 1.429 . S
C413 H435 0.950 . S
C414 H410 0.949 . S
C414 C422 1.574 . S
C414 C430 1.368 . S
H415 C423 0.950 . S
H416 C421 0.950 . S
H417 C422 0.949 . S
H418 C424 0.950 . S
H419 C425 0.950 . S
H420 C426 0.949 . S
C421 H416 0.950 . S
C421 C423 1.327 . S
C421 C427 1.429 . S
C422 C414 1.574 . S
C422 H417 0.949 . S
C422 C428 1.368 . S
C423 C407 1.349 . S
C423 H415 0.950 . S
C423 C421 1.327 . S
C424 C412 1.349 . S
C424 H418 0.950 . S
C424 C425 1.327 . S
C425 H419 0.950 . S
C425 C424 1.327 . S
C425 C429 1.429 . S
C426 C409 1.574 . S
C426 H420 0.949 . S
C426 C430 1.368 . S
C427 C408 1.429 . S
C427 C421 1.429 . S
C427 C428 1.523 . S
C428 C409 1.368 . S
C428 C422 1.368 . S
C428 C427 1.523 . S
C429 C413 1.429 . S
C429 C425 1.429 . S
C429 C430 1.523 . S
C430 C414 1.368 . S
C430 C426 1.368 . S
C430 C429 1.523 . S
H431 C406 0.950 . S
H432 C408 0.950 . S
H433 C409 0.949 . S
H434 C411 0.950 . S
H435 C413 0.950 . S
C436 C437 1.349 . S
C436 C438 1.327 . S
C436 H461 0.950 . S
C437 C436 1.349 . S
C437 C453 1.349 . S
C438 C436 1.327 . S
C438 C457 1.429 . S
C438 H462 0.950 . S
C439 C456 1.574 . S
C439 C458 1.368 . S
C439 H463 0.949 . S
H440 C444 0.949 . S
C441 C442 1.349 . S
C441 C443 1.327 . S
C441 H464 0.950 . S
C442 C441 1.349 . S
C442 C454 1.349 . S
C443 C441 1.327 . S
C443 C459 1.429 . S
C443 H465 0.950 . S
C444 H440 0.949 . S
C444 C452 1.574 . S
C444 C460 1.368 . S
H445 C453 0.950 . S
H446 C451 0.950 . S
H447 C452 0.949 . S
H448 C454 0.950 . S
H449 C455 0.950 . S
H450 C456 0.949 . S
C451 H446 0.950 . S
C451 C453 1.327 . S
C451 C457 1.429 . S
C452 C444 1.574 . S
C452 H447 0.949 . S
C452 C458 1.368 . S
C453 C437 1.349 . S
C453 H445 0.950 . S
C453 C451 1.327 . S
C454 C442 1.349 . S
C454 H448 0.950 . S
C454 C455 1.327 . S
C455 H449 0.950 . S
C455 C454 1.327 . S
C455 C459 1.429 . S
C456 C439 1.574 . S
C456 H450 0.949 . S
C456 C460 1.368 . S
C457 C438 1.429 . S
C457 C451 1.429 . S
C457 C458 1.523 . S
C458 C439 1.368 . S
C458 C452 1.368 . S
C458 C457 1.523 . S
C459 C443 1.429 . S
C459 C455 1.429 . S
C459 C460 1.523 . S
C460 C444 1.368 . S
C460 C456 1.368 . S
C460 C459 1.523 . S
H461 C436 0.950 . S
H462 C438 0.950 . S
H463 C439 0.949 . S
H464 C441 0.950 . S
H465 C443 0.950 . S
C466 C467 1.349 . S
C466 C468 1.327 . S
C466 H491 0.950 . S
C467 C466 1.349 . S
C467 C483 1.349 . S
C468 C466 1.327 . S
C468 C487 1.429 . S
C468 H492 0.950 . S
C469 C486 1.574 . S
C469 C488 1.368 . S
C469 H493 0.949 . S
H470 C474 0.949 . S
C471 C472 1.349 . S
C471 C473 1.327 . S
C471 H494 0.950 . S
C472 C471 1.349 . S
C472 C484 1.349 . S
C473 C471 1.327 . S
C473 C489 1.429 . S
C473 H495 0.950 . S
C474 H470 0.949 . S
C474 C482 1.574 . S
C474 C490 1.368 . S
H475 C483 0.950 . S
H476 C481 0.950 . S
H477 C482 0.949 . S
H478 C484 0.950 . S
H479 C485 0.950 . S
H480 C486 0.949 . S
C481 H476 0.950 . S
C481 C483 1.327 . S
C481 C487 1.429 . S
C482 C474 1.574 . S
C482 H477 0.949 . S
C482 C488 1.368 . S
C483 C467 1.349 . S
C483 H475 0.950 . S
C483 C481 1.327 . S
C484 C472 1.349 . S
C484 H478 0.950 . S
C484 C485 1.327 . S
C485 H479 0.950 . S
C485 C484 1.327 . S
C485 C489 1.429 . S
C486 C469 1.574 . S
C486 H480 0.949 . S
C486 C490 1.368 . S
C487 C468 1.429 . S
C487 C481 1.429 . S
C487 C488 1.523 . S
C488 C469 1.368 . S
C488 C482 1.368 . S
C488 C487 1.523 . S
C489 C473 1.429 . S
C489 C485 1.429 . S
C489 C490 1.523 . S
C490 C474 1.368 . S
C490 C486 1.368 . S
C490 C489 1.523 . S
H491 C466 0.950 . S
H492 C468 0.950 . S
H493 C469 0.949 . S
H494 C471 0.950 . S
H495 C473 0.950 . S
C496 C497 1.349 . S
C496 C498 1.327 . S
C496 H521 0.950 . S
C497 C496 1.349 . S
C497 C513 1.349 . S
C498 C496 1.327 . S
C498 C517 1.429 . S
C498 H522 0.950 . S
C499 C516 1.574 . S
C499 C518 1.368 . S
C499 H523 0.949 . S
H500 C504 0.949 . S
C501 C502 1.349 . S
C501 C503 1.327 . S
C501 H524 0.950 . S
C502 C501 1.349 . S
C502 C514 1.349 . S
C503 C501 1.327 . S
C503 C519 1.429 . S
C503 H525 0.950 . S
C504 H500 0.949 . S
C504 C512 1.574 . S
C504 C520 1.368 . S
H505 C513 0.950 . S
H506 C511 0.950 . S
H507 C512 0.949 . S
H508 C514 0.950 . S
H509 C515 0.950 . S
H510 C516 0.949 . S
C511 H506 0.950 . S
C511 C513 1.327 . S
C511 C517 1.429 . S
C512 C504 1.574 . S
C512 H507 0.949 . S
C512 C518 1.368 . S
C513 C497 1.349 . S
C513 H505 0.950 . S
C513 C511 1.327 . S
C514 C502 1.349 . S
C514 H508 0.950 . S
C514 C515 1.327 . S
C515 H509 0.950 . S
C515 C514 1.327 . S
C515 C519 1.429 . S
C516 C499 1.574 . S
C516 H510 0.949 . S
C516 C520 1.368 . S
C517 C498 1.429 . S
C517 C511 1.429 . S
C517 C518 1.523 . S
C518 C499 1.368 . S
C518 C512 1.368 . S
C518 C517 1.523 . S
C519 C503 1.429 . S
C519 C515 1.429 . S
C519 C520 1.523 . S
C520 C504 1.368 . S
C520 C516 1.368 . S
C520 C519 1.523 . S
H521 C496 0.950 . S
H522 C498 0.950 . S
H523 C499 0.949 . S
H524 C501 0.950 . S
H525 C503 0.950 . S
C526 C527 1.349 . S
C526 C528 1.327 . S
C526 H551 0.950 . S
C527 C526 1.349 . S
C527 C543 1.349 . S
C528 C526 1.327 . S
C528 C547 1.429 . S
C528 H552 0.950 . S
C529 C546 1.574 . S
C529 C548 1.368 . S
C529 H553 0.949 . S
H530 C534 0.949 . S
C531 C532 1.349 . S
C531 C533 1.327 . S
C531 H554 0.950 . S
C532 C531 1.349 . S
C532 C544 1.349 . S
C533 C531 1.327 . S
C533 C549 1.429 . S
C533 H555 0.950 . S
C534 H530 0.949 . S
C534 C542 1.574 . S
C534 C550 1.368 . S
H535 C543 0.950 . S
H536 C541 0.950 . S
H537 C542 0.949 . S
H538 C544 0.950 1_655 S
H539 C545 0.950 . S
H540 C546 0.949 . S
C541 H536 0.950 . S
C541 C543 1.327 . S
C541 C547 1.429 . S
C542 C534 1.574 . S
C542 H537 0.949 . S
C542 C548 1.368 . S
C543 C527 1.349 . S
C543 H535 0.950 . S
C543 C541 1.327 . S
C544 C532 1.349 . S
C544 H538 0.950 1_455 S
C544 C545 1.327 . S
C545 H539 0.950 . S
C545 C544 1.327 . S
C545 C549 1.429 . S
C546 C529 1.574 . S
C546 H540 0.949 . S
C546 C550 1.368 . S
C547 C528 1.429 . S
C547 C541 1.429 . S
C547 C548 1.523 . S
C548 C529 1.368 . S
C548 C542 1.368 . S
C548 C547 1.523 . S
C549 C533 1.429 . S
C549 C545 1.429 . S
C549 C550 1.523 . S
C550 C534 1.368 . S
C550 C546 1.368 . S
C550 C549 1.523 . S
H551 C526 0.950 . S
H552 C528 0.950 . S
H553 C529 0.949 . S
H554 C531 0.950 . S
H555 C533 0.950 . S
C202 C132 1.599 . S
C197 C119 1.599 . S
C227 C23 1.465 . S
C232 C175 1.534 . S
C257 C55 1.509 . S
C262 C141 1.599 . S
C287 C87 1.535 . S
C292 C166 1.534 . S
C322 C128 1.566 . S
C317 C17 1.489 . S
C352 C170 1.643 . S
C347 C61 1.529 . S
C377 C93 1.561 . S
C382 C136 1.561 . S
C407 C113 1.642 . S
C412 C162 1.641 . S
C442 C191 1.641 . S
C437 C49 1.543 . S
C472 C157 1.566 . S
C467 C81 1.567 . S
C502 C179 1.643 . S
C497 C125 1.645 . S
C527 C29 1.471 . S
C532 C145 1.561 . S
