# Generated by pormake.
# Topology ctn, (3,4)-cn, num edge types: 1
# Building blocks:
#     Node 0, Type 0, BuildingBlock: BETDIP_clean_linker_0, # of connection points: 3
#     Node 1, Type 0, BuildingBlock: BETDIP_clean_linker_0, # of connection points: 3
#     Node 2, Type 0, BuildingBlock: BETDIP_clean_linker_0, # of connection points: 3
#     Node 3, Type 0, BuildingBlock: BETDIP_clean_linker_0, # of connection points: 3
#     Node 4, Type 0, BuildingBlock: BETDIP_clean_linker_0, # of connection points: 3
#     Node 5, Type 0, BuildingBlock: BETDIP_clean_linker_0, # of connection points: 3
#     Node 6, Type 0, BuildingBlock: BETDIP_clean_linker_0, # of connection points: 3
#     Node 7, Type 0, BuildingBlock: BETDIP_clean_linker_0, # of connection points: 3
#     Node 8, Type 0, BuildingBlock: BETDIP_clean_linker_0, # of connection points: 3
#     Node 9, Type 0, BuildingBlock: BETDIP_clean_linker_0, # of connection points: 3
#     Node 10, Type 0, BuildingBlock: BETDIP_clean_linker_0, # of connection points: 3
#     Node 11, Type 0, BuildingBlock: BETDIP_clean_linker_0, # of connection points: 3
#     Node 12, Type 0, BuildingBlock: BETDIP_clean_linker_0, # of connection points: 3
#     Node 13, Type 0, BuildingBlock: BETDIP_clean_linker_0, # of connection points: 3
#     Node 14, Type 0, BuildingBlock: BETDIP_clean_linker_0, # of connection points: 3
#     Node 15, Type 0, BuildingBlock: BETDIP_clean_linker_0, # of connection points: 3
#     Node 16, Type 1, BuildingBlock: QUQFOY_clean_sbu_1, # of connection points: 4
#     Node 17, Type 1, BuildingBlock: QUQFOY_clean_sbu_1, # of connection points: 4
#     Node 18, Type 1, BuildingBlock: QUQFOY_clean_sbu_1, # of connection points: 4
#     Node 19, Type 1, BuildingBlock: QUQFOY_clean_sbu_1, # of connection points: 4
#     Node 20, Type 1, BuildingBlock: QUQFOY_clean_sbu_1, # of connection points: 4
#     Node 21, Type 1, BuildingBlock: QUQFOY_clean_sbu_1, # of connection points: 4
#     Node 22, Type 1, BuildingBlock: QUQFOY_clean_sbu_1, # of connection points: 4
#     Node 23, Type 1, BuildingBlock: QUQFOY_clean_sbu_1, # of connection points: 4
#     Node 24, Type 1, BuildingBlock: QUQFOY_clean_sbu_1, # of connection points: 4
#     Node 25, Type 1, BuildingBlock: QUQFOY_clean_sbu_1, # of connection points: 4
#     Node 26, Type 1, BuildingBlock: QUQFOY_clean_sbu_1, # of connection points: 4
#     Node 27, Type 1, BuildingBlock: QUQFOY_clean_sbu_1, # of connection points: 4
#     Edge 28, Type (0, 1), BuildingBlock: ZUJKAS_clean_linker_0, # of connection points: 2
#     Edge 29, Type (0, 1), BuildingBlock: ZUJKAS_clean_linker_0, # of connection points: 2
#     Edge 30, Type (0, 1), BuildingBlock: ZUJKAS_clean_linker_0, # of connection points: 2
#     Edge 31, Type (0, 1), BuildingBlock: ZUJKAS_clean_linker_0, # of connection points: 2
#     Edge 32, Type (0, 1), BuildingBlock: ZUJKAS_clean_linker_0, # of connection points: 2
#     Edge 33, Type (0, 1), BuildingBlock: ZUJKAS_clean_linker_0, # of connection points: 2
#     Edge 34, Type (0, 1), BuildingBlock: ZUJKAS_clean_linker_0, # of connection points: 2
#     Edge 35, Type (0, 1), BuildingBlock: ZUJKAS_clean_linker_0, # of connection points: 2
#     Edge 36, Type (0, 1), BuildingBlock: ZUJKAS_clean_linker_0, # of connection points: 2
#     Edge 37, Type (0, 1), BuildingBlock: ZUJKAS_clean_linker_0, # of connection points: 2
#     Edge 38, Type (0, 1), BuildingBlock: ZUJKAS_clean_linker_0, # of connection points: 2
#     Edge 39, Type (0, 1), BuildingBlock: ZUJKAS_clean_linker_0, # of connection points: 2
#     Edge 40, Type (0, 1), BuildingBlock: ZUJKAS_clean_linker_0, # of connection points: 2
#     Edge 41, Type (0, 1), BuildingBlock: ZUJKAS_clean_linker_0, # of connection points: 2
#     Edge 42, Type (0, 1), BuildingBlock: ZUJKAS_clean_linker_0, # of connection points: 2
#     Edge 43, Type (0, 1), BuildingBlock: ZUJKAS_clean_linker_0, # of connection points: 2
#     Edge 44, Type (0, 1), BuildingBlock: ZUJKAS_clean_linker_0, # of connection points: 2
#     Edge 45, Type (0, 1), BuildingBlock: ZUJKAS_clean_linker_0, # of connection points: 2
#     Edge 46, Type (0, 1), BuildingBlock: ZUJKAS_clean_linker_0, # of connection points: 2
#     Edge 47, Type (0, 1), BuildingBlock: ZUJKAS_clean_linker_0, # of connection points: 2
#     Edge 48, Type (0, 1), BuildingBlock: ZUJKAS_clean_linker_0, # of connection points: 2
#     Edge 49, Type (0, 1), BuildingBlock: ZUJKAS_clean_linker_0, # of connection points: 2
#     Edge 50, Type (0, 1), BuildingBlock: ZUJKAS_clean_linker_0, # of connection points: 2
#     Edge 51, Type (0, 1), BuildingBlock: ZUJKAS_clean_linker_0, # of connection points: 2
#     Edge 52, Type (0, 1), BuildingBlock: ZUJKAS_clean_linker_0, # of connection points: 2
#     Edge 53, Type (0, 1), BuildingBlock: ZUJKAS_clean_linker_0, # of connection points: 2
#     Edge 54, Type (0, 1), BuildingBlock: ZUJKAS_clean_linker_0, # of connection points: 2
#     Edge 55, Type (0, 1), BuildingBlock: ZUJKAS_clean_linker_0, # of connection points: 2
#     Edge 56, Type (0, 1), BuildingBlock: ZUJKAS_clean_linker_0, # of connection points: 2
#     Edge 57, Type (0, 1), BuildingBlock: ZUJKAS_clean_linker_0, # of connection points: 2
#     Edge 58, Type (0, 1), BuildingBlock: ZUJKAS_clean_linker_0, # of connection points: 2
#     Edge 59, Type (0, 1), BuildingBlock: ZUJKAS_clean_linker_0, # of connection points: 2
#     Edge 60, Type (0, 1), BuildingBlock: ZUJKAS_clean_linker_0, # of connection points: 2
#     Edge 61, Type (0, 1), BuildingBlock: ZUJKAS_clean_linker_0, # of connection points: 2
#     Edge 62, Type (0, 1), BuildingBlock: ZUJKAS_clean_linker_0, # of connection points: 2
#     Edge 63, Type (0, 1), BuildingBlock: ZUJKAS_clean_linker_0, # of connection points: 2
#     Edge 64, Type (0, 1), BuildingBlock: ZUJKAS_clean_linker_0, # of connection points: 2
#     Edge 65, Type (0, 1), BuildingBlock: ZUJKAS_clean_linker_0, # of connection points: 2
#     Edge 66, Type (0, 1), BuildingBlock: ZUJKAS_clean_linker_0, # of connection points: 2
#     Edge 67, Type (0, 1), BuildingBlock: ZUJKAS_clean_linker_0, # of connection points: 2
#     Edge 68, Type (0, 1), BuildingBlock: ZUJKAS_clean_linker_0, # of connection points: 2
#     Edge 69, Type (0, 1), BuildingBlock: ZUJKAS_clean_linker_0, # of connection points: 2
#     Edge 70, Type (0, 1), BuildingBlock: ZUJKAS_clean_linker_0, # of connection points: 2
#     Edge 71, Type (0, 1), BuildingBlock: ZUJKAS_clean_linker_0, # of connection points: 2
#     Edge 72, Type (0, 1), BuildingBlock: ZUJKAS_clean_linker_0, # of connection points: 2
#     Edge 73, Type (0, 1), BuildingBlock: ZUJKAS_clean_linker_0, # of connection points: 2
#     Edge 74, Type (0, 1), BuildingBlock: ZUJKAS_clean_linker_0, # of connection points: 2
#     Edge 75, Type (0, 1), BuildingBlock: ZUJKAS_clean_linker_0, # of connection points: 2
# Relax obj value: 0.093
# Max RMSD: 0.191
# Mean RMSD: 0.143
data_MOF--net-ctn--node1-QUQFOY_clean_sbu_1--node2-BETDIP_clean_linker_0--edge1-ZUJKAS_clean_linker_0
_symmetry_space_group_name_H-M    P1
_symmetry_Int_Tables_number       1
_symmetry_cell_setting            triclinic
loop_
_symmetry_equiv_pos_as_xyz
'x, y, z'
_cell_length_a     68.011486
_cell_length_b     68.1226
_cell_length_c     75.096355
_cell_angle_alpha  96.511911
_cell_angle_beta   93.83924
_cell_angle_gamma 97.473959
loop_
_atom_site_label
_atom_site_type_symbol
_atom_site_fract_x
_atom_site_fract_y
_atom_site_fract_z
_atom_type_partial_charge
H0 H 0.06575 0.13617 0.0959 0.0
H1 H 0.10532 0.10084 0.06879 0.0
H2 H 0.08854 0.08927 0.12114 0.0
H3 H 0.11106 0.12606 0.05299 0.0
C4 C 0.09761 0.13306 0.05242 0.0
C5 C 0.07512 0.12444 0.09576 0.0
C6 C 0.07597 0.11322 0.11027 0.0
C7 C 0.08629 0.12067 0.08105 0.0
C8 C 0.09777 0.10487 0.08059 0.0
C9 C 0.09867 0.09337 0.09499 0.0
C10 C 0.088 0.09797 0.10994 0.0
N11 N 0.08479 0.1324 0.06662 0.0
H12 H 0.26067 0.72143 0.21324 0.0
H13 H 0.31753 0.75561 0.23128 0.0
H14 H 0.30264 0.69712 0.24697 0.0
H15 H 0.2986 0.78185 0.22884 0.0
C16 C 0.29032 0.77636 0.21598 0.0
C17 C 0.27497 0.72281 0.22092 0.0
C18 C 0.28005 0.70703 0.22999 0.0
C19 C 0.28816 0.74051 0.22167 0.0
C20 C 0.30694 0.74228 0.23121 0.0
C21 C 0.31241 0.72649 0.24012 0.0
C22 C 0.29881 0.70901 0.23953 0.0
N23 N 0.28242 0.75586 0.21199 0.0
H24 H 0.91022 0.48737 0.02975 0.0
H25 H 0.94286 0.44953 0.05856 0.0
H26 H 0.93935 0.50917 0.0824 0.0
H27 H 0.91598 0.42537 0.04213 0.0
C28 C 0.92001 0.43079 0.02961 0.0
C29 C 0.91877 0.48508 0.04185 0.0
C30 C 0.92369 0.50067 0.05608 0.0
C31 C 0.92508 0.46647 0.04293 0.0
C32 C 0.937 0.46353 0.05812 0.0
C33 C 0.94254 0.479 0.07223 0.0
C34 C 0.93557 0.49742 0.07125 0.0
N35 N 0.92067 0.45142 0.02799 0.0
H36 H 0.72427 0.791 0.21327 0.0
H37 H 0.74296 0.84512 0.24872 0.0
H38 H 0.76894 0.83586 0.19849 0.0
H39 H 0.73751 0.82241 0.26991 0.0
C40 C 0.72299 0.81504 0.26407 0.0
C41 C 0.73374 0.80523 0.2162 0.0
C42 C 0.74666 0.81195 0.20359 0.0
C43 C 0.7329 0.81676 0.23273 0.0
C44 C 0.74437 0.83568 0.2364 0.0
C45 C 0.75705 0.84283 0.22388 0.0
C46 C 0.75841 0.83071 0.20773 0.0
N47 N 0.71983 0.80937 0.24518 0.0
H48 H 0.05823 0.9585 0.44085 0.0
H49 H 0.11506 0.98034 0.4696 0.0
H50 H 0.09552 0.00817 0.42441 0.0
H51 H 0.11279 0.9478 0.47567 0.0
C52 C 0.09741 0.94579 0.47899 0.0
C53 C 0.07201 0.96874 0.44241 0.0
C54 C 0.07518 0.98342 0.43078 0.0
C55 C 0.08658 0.9671 0.45606 0.0
C56 C 0.10426 0.98068 0.45843 0.0
C57 C 0.10757 0.99556 0.44707 0.0
C58 C 0.09308 0.99662 0.43315 0.0
N59 N 0.08251 0.95261 0.46801 0.0
H60 H 0.23413 0.79441 0.82373 0.0
H61 H 0.26416 0.75533 0.78945 0.0
H62 H 0.27713 0.76141 0.84673 0.0
H63 H 0.24128 0.75839 0.7685 0.0
C64 C 0.23377 0.77114 0.77227 0.0
C65 C 0.24494 0.78409 0.82217 0.0
C66 C 0.25522 0.7789 0.83739 0.0
C67 C 0.24783 0.7756 0.80487 0.0
C68 C 0.26163 0.76198 0.80269 0.0
C69 C 0.27215 0.75663 0.81777 0.0
C70 C 0.26882 0.76515 0.83506 0.0
N71 N 0.23624 0.78098 0.79018 0.0
H72 H 0.97143 0.61401 0.44927 0.0
H73 H 0.93215 0.55845 0.43833 0.0
H74 H 0.93041 0.59661 0.48761 0.0
H75 H 0.94075 0.55877 0.41035 0.0
C76 C 0.95589 0.56646 0.41163 0.0
C77 C 0.95946 0.60362 0.45311 0.0
C78 C 0.95157 0.60747 0.46972 0.0
C79 C 0.95259 0.58605 0.44166 0.0
C80 C 0.93746 0.57223 0.44687 0.0
C81 C 0.92921 0.57605 0.46336 0.0
C82 C 0.93641 0.59369 0.47471 0.0
N83 N 0.96224 0.58223 0.42569 0.0
H84 H 0.78945 0.83536 0.77359 0.0
H85 H 0.81752 0.80102 0.80986 0.0
H86 H 0.7661 0.82751 0.82461 0.0
H87 H 0.83036 0.7883 0.78547 0.0
C88 C 0.83239 0.80032 0.77715 0.0
C89 C 0.7898 0.82893 0.78614 0.0
C90 C 0.77579 0.83273 0.79855 0.0
C91 C 0.80472 0.81733 0.78993 0.0
C92 C 0.80581 0.80963 0.80652 0.0
C93 C 0.79187 0.81317 0.81906 0.0
C94 C 0.77683 0.82463 0.81494 0.0
N95 N 0.81893 0.81462 0.77715 0.0
H96 H 0.29618 0.33566 0.27952 0.0
H97 H 0.32907 0.30673 0.31703 0.0
H98 H 0.27222 0.32354 0.3294 0.0
H99 H 0.35502 0.32634 0.30463 0.0
C100 C 0.3499 0.32174 0.29057 0.0
C101 C 0.2972 0.32943 0.29215 0.0
C102 C 0.28217 0.33084 0.30399 0.0
C103 C 0.31423 0.3211 0.29692 0.0
C104 C 0.31596 0.31335 0.31341 0.0
C105 C 0.30085 0.31409 0.32524 0.0
C106 C 0.28403 0.32296 0.32044 0.0
N107 N 0.32941 0.32066 0.28487 0.0
H108 H 0.40206 0.97595 0.53651 0.0
H109 H 0.43823 0.9412 0.5656 0.0
H110 H 0.43914 0.00345 0.58382 0.0
H111 H 0.41301 0.91528 0.55155 0.0
C112 C 0.41461 0.92023 0.5384 0.0
C113 C 0.41254 0.97499 0.54779 0.0
C114 C 0.41947 0.99195 0.56017 0.0
C115 C 0.41902 0.95665 0.54976 0.0
C116 C 0.43276 0.95522 0.56421 0.0
C117 C 0.44005 0.97201 0.57662 0.0
C118 C 0.43314 0.99029 0.57462 0.0
N119 N 0.41293 0.94037 0.53613 0.0
H120 H 0.24369 0.28843 0.72438 0.0
H121 H 0.25649 0.34509 0.75734 0.0
H122 H 0.28128 0.33679 0.70632 0.0
H123 H 0.2521 0.32369 0.77963 0.0
C124 C 0.23825 0.31498 0.77361 0.0
C125 C 0.25105 0.3037 0.72644 0.0
C126 C 0.26322 0.31099 0.71358 0.0
C127 C 0.24879 0.3158 0.74233 0.0
C128 C 0.25838 0.33561 0.74518 0.0
C129 C 0.27028 0.3433 0.73229 0.0
C130 C 0.27256 0.33086 0.71655 0.0
N131 N 0.23623 0.30793 0.75495 0.0
H132 H 0.76298 0.2342 0.72311 0.0
H133 H 0.82237 0.26592 0.73268 0.0
H134 H 0.8086 0.2092 0.7519 0.0
H135 H 0.80855 0.29185 0.7254 0.0
C136 C 0.79535 0.28617 0.71645 0.0
C137 C 0.77823 0.23506 0.72868 0.0
C138 C 0.78414 0.21952 0.73766 0.0
C139 C 0.79172 0.25198 0.72703 0.0
C140 C 0.81154 0.2533 0.73431 0.0
C141 C 0.81771 0.2379 0.74336 0.0
C142 C 0.80392 0.22109 0.74493 0.0
N143 N 0.78487 0.26689 0.71734 0.0
H144 H 0.56307 0.63171 0.59457 0.0
H145 H 0.60282 0.59946 0.56458 0.0
H146 H 0.58123 0.57848 0.61242 0.0
H147 H 0.61129 0.62829 0.55389 0.0
C148 C 0.59754 0.63474 0.55302 0.0
C149 C 0.57181 0.6195 0.59308 0.0
C150 C 0.57055 0.60516 0.60515 0.0
C151 C 0.58379 0.61788 0.57866 0.0
C152 C 0.59448 0.60155 0.57623 0.0
C153 C 0.59369 0.58722 0.58835 0.0
C154 C 0.58175 0.58925 0.60283 0.0
N155 N 0.58367 0.63214 0.56621 0.0
H156 H 0.5595 0.455 0.93852 0.0
H157 H 0.61929 0.46896 0.9634 0.0
H158 H 0.5999 0.50216 0.92188 0.0
H159 H 0.6137 0.43723 0.97 0.0
C160 C 0.59842 0.43631 0.97357 0.0
C161 C 0.57416 0.46366 0.93945 0.0
C162 C 0.57809 0.47872 0.92833 0.0
C163 C 0.58904 0.45968 0.95182 0.0
C164 C 0.6079 0.47129 0.95341 0.0
C165 C 0.61197 0.48655 0.94254 0.0
C166 C 0.59708 0.48995 0.92987 0.0
N167 N 0.58418 0.44492 0.96335 0.0
H168 H 0.7294 0.28212 0.31764 0.0
H169 H 0.76109 0.24578 0.28232 0.0
H170 H 0.77987 0.25712 0.33859 0.0
H171 H 0.73649 0.24582 0.26235 0.0
C172 C 0.72743 0.25726 0.26635 0.0
C173 C 0.74154 0.27348 0.31562 0.0
C174 C 0.75443 0.2709 0.33034 0.0
C175 C 0.7436 0.26445 0.29829 0.0
C176 C 0.75896 0.25271 0.29558 0.0
C177 C 0.77203 0.25 0.31011 0.0
C178 C 0.76979 0.25925 0.32739 0.0
N179 N 0.72974 0.26742 0.28414 0.0
H180 H 0.4576 0.11611 0.94006 0.0
H181 H 0.42242 0.05825 0.93538 0.0
H182 H 0.41209 0.10427 0.97611 0.0
H183 H 0.44889 0.04805 0.92368 0.0
C184 C 0.45567 0.05997 0.9167 0.0
C185 C 0.44571 0.10612 0.94452 0.0
C186 C 0.43503 0.11278 0.95886 0.0
C187 C 0.44161 0.0864 0.93621 0.0
C188 C 0.42623 0.07335 0.94197 0.0
C189 C 0.41544 0.07979 0.95628 0.0
C190 C 0.41983 0.09953 0.96456 0.0
N191 N 0.4535 0.08015 0.92236 0.0
O192 O 0.25262 0.88245 0.02173 0.0
Cd193 Cd 0.26217 0.9036 0.04345 0.0
Cd194 Cd 0.23293 0.92159 0.02961 0.0
O195 O 0.22702 0.89591 0.01156 0.0
O196 O 0.27837 0.88971 0.05962 0.0
O197 O 0.25099 0.90158 0.06744 0.0
C198 C 0.2657 0.89217 0.07141 0.0
C199 C 0.2074 0.93607 0.04288 0.0
C200 C 0.23782 0.882 0.01037 0.0
C201 C 0.27494 0.94223 0.03002 0.0
O202 O 0.25665 0.94194 0.02514 0.0
O203 O 0.28058 0.92845 0.03833 0.0
O204 O 0.2098 0.93616 0.02602 0.0
O205 O 0.21904 0.92681 0.0522 0.0
O206 O 0.1495 0.5234 0.26632 0.0
Cd207 Cd 0.13241 0.49895 0.2739 0.0
Cd208 Cd 0.10514 0.50756 0.24672 0.0
O209 O 0.12906 0.52849 0.24375 0.0
O210 O 0.15124 0.48593 0.28834 0.0
O211 O 0.13557 0.47146 0.26247 0.0
C212 C 0.14803 0.47077 0.27608 0.0
C213 C 0.08424 0.49582 0.22066 0.0
C214 C 0.1455 0.53303 0.25331 0.0
C215 C 0.0934 0.50898 0.28528 0.0
O216 O 0.08937 0.51139 0.269 0.0
O217 O 0.1099 0.50363 0.29023 0.0
O218 O 0.08529 0.51377 0.22841 0.0
O219 O 0.09561 0.48432 0.22743 0.0
O220 O 0.78616 0.71058 0.9849 0.0
Cd221 Cd 0.77953 0.69155 0.00386 0.0
Cd222 Cd 0.80859 0.67323 0.98941 0.0
O223 O 0.81197 0.69735 0.97511 0.0
O224 O 0.76208 0.70477 0.0202 0.0
O225 O 0.792 0.69843 0.02927 0.0
C226 C 0.77581 0.70545 0.03302 0.0
C227 C 0.8353 0.66239 0.00457 0.0
C228 C 0.80038 0.71054 0.97472 0.0
C229 C 0.76808 0.64975 0.98536 0.0
O230 O 0.7857 0.65069 0.98062 0.0
O231 O 0.76289 0.66422 0.99531 0.0
O232 O 0.83276 0.65998 0.98725 0.0
O233 O 0.82321 0.67217 0.01337 0.0
O234 O 0.94337 0.043 0.28465 0.0
Cd235 Cd 0.92685 0.05025 0.2629 0.0
Cd236 Cd 0.90474 0.06352 0.28878 0.0
O237 O 0.92702 0.05671 0.30604 0.0
O238 O 0.94398 0.04694 0.24266 0.0
O239 O 0.9352 0.07602 0.2528 0.0
C240 C 0.94485 0.06579 0.24173 0.0
C241 C 0.89362 0.09448 0.29318 0.0
C242 C 0.94117 0.04737 0.30124 0.0
C243 C 0.88546 0.02899 0.26231 0.0
O244 O 0.88412 0.04007 0.27684 0.0
O245 O 0.90106 0.03133 0.25396 0.0
O246 O 0.88898 0.08087 0.30337 0.0
O247 O 0.90518 0.09069 0.28062 0.0
O248 O 0.29378 0.21371 0.49144 0.0
Cd249 Cd 0.28512 0.19491 0.51007 0.0
Cd250 Cd 0.31158 0.1737 0.49483 0.0
O251 O 0.31747 0.19772 0.48073 0.0
O252 O 0.2706 0.21092 0.52718 0.0
O253 O 0.2983 0.19924 0.53525 0.0
C254 C 0.28404 0.20917 0.53962 0.0
C255 C 0.33656 0.1599 0.50961 0.0
C256 C 0.30757 0.21231 0.48092 0.0
C257 C 0.26933 0.15422 0.49123 0.0
O258 O 0.2867 0.15349 0.4862 0.0
O259 O 0.26567 0.16926 0.50144 0.0
O260 O 0.33402 0.15796 0.49229 0.0
O261 O 0.32554 0.1708 0.51864 0.0
O262 O 0.44755 0.55316 0.79143 0.0
Cd263 Cd 0.4302 0.55731 0.76898 0.0
Cd264 Cd 0.40658 0.56992 0.79479 0.0
O265 O 0.42889 0.56372 0.81242 0.0
O266 O 0.4481 0.55269 0.74952 0.0
O267 O 0.43687 0.58144 0.75593 0.0
C268 C 0.44763 0.5708 0.74635 0.0
C269 C 0.39423 0.60028 0.79923 0.0
C270 C 0.44441 0.55652 0.80791 0.0
C271 C 0.38932 0.53421 0.76873 0.0
O272 O 0.38679 0.54607 0.78243 0.0
O273 O 0.40547 0.53638 0.76112 0.0
O274 O 0.39017 0.58653 0.80941 0.0
O275 O 0.40589 0.59699 0.78664 0.0
O276 O 0.7522 0.37814 0.51327 0.0
Cd277 Cd 0.76169 0.3991 0.53522 0.0
Cd278 Cd 0.73446 0.41873 0.51993 0.0
O279 O 0.72834 0.39317 0.50185 0.0
O280 O 0.77687 0.3848 0.55186 0.0
O281 O 0.74944 0.39714 0.55877 0.0
C282 C 0.76384 0.38755 0.56325 0.0
C283 C 0.70891 0.4343 0.53202 0.0
C284 C 0.7382 0.37852 0.50127 0.0
C285 C 0.77722 0.43748 0.5223 0.0
O286 O 0.75938 0.43799 0.51642 0.0
O287 O 0.78144 0.42344 0.53101 0.0
O288 O 0.71246 0.4345 0.51539 0.0
O289 O 0.71943 0.42439 0.54176 0.0
O290 O 0.65064 0.03461 0.76933 0.0
Cd291 Cd 0.63299 0.00921 0.77436 0.0
Cd292 Cd 0.60714 0.02027 0.74827 0.0
O293 O 0.63129 0.04148 0.7468 0.0
O294 O 0.6511 0.99498 0.78838 0.0
O295 O 0.63672 0.98254 0.76145 0.0
C296 C 0.64846 0.98074 0.77524 0.0
C297 C 0.58903 0.0073 0.72106 0.0
C298 C 0.64733 0.04532 0.75697 0.0
C299 C 0.59355 0.01865 0.78563 0.0
O300 O 0.59015 0.02318 0.76988 0.0
O301 O 0.60964 0.01218 0.79004 0.0
O302 O 0.58878 0.02534 0.7282 0.0
O303 O 0.59987 0.99639 0.72933 0.0
O304 O 0.00613 0.27908 0.9098 0.0
Cd305 Cd 0.01484 0.25591 0.89347 0.0
Cd306 Cd 0.03096 0.28574 0.87665 0.0
O307 O 0.02207 0.30384 0.89765 0.0
O308 O 0.01191 0.23286 0.90761 0.0
O309 O 0.04099 0.24681 0.90025 0.0
C310 C 0.03101 0.23373 0.90856 0.0
C311 C 0.06347 0.29074 0.86842 0.0
C312 C 0.01112 0.29767 0.9095 0.0
C313 C 0.99769 0.25704 0.85609 0.0
O314 O 0.00934 0.27331 0.85662 0.0
O315 O 0.99817 0.24683 0.86924 0.0
O316 O 0.05084 0.30252 0.86459 0.0
O317 O 0.05773 0.27626 0.87744 0.0
O318 O 0.49966 0.77523 0.41058 0.0
Cd319 Cd 0.50919 0.75293 0.39382 0.0
Cd320 Cd 0.52282 0.78369 0.37692 0.0
O321 O 0.51394 0.8009 0.39851 0.0
O322 O 0.50782 0.72977 0.40784 0.0
O323 O 0.53611 0.74524 0.40022 0.0
C324 C 0.52698 0.73169 0.40861 0.0
C325 C 0.55479 0.78976 0.36764 0.0
C326 C 0.5037 0.79396 0.41051 0.0
C327 C 0.49047 0.75353 0.35689 0.0
O328 O 0.50095 0.77047 0.35741 0.0
O329 O 0.49227 0.74318 0.36981 0.0
O330 O 0.54162 0.80122 0.36445 0.0
O331 O 0.54995 0.77508 0.37671 0.0
O332 O 0.00458 0.78836 0.66335 0.0
Cd333 Cd 0.02702 0.78314 0.64705 0.0
Cd334 Cd 0.01153 0.81003 0.62882 0.0
O335 O 0.99399 0.81273 0.65008 0.0
O336 O 0.04524 0.76927 0.66137 0.0
O337 O 0.05427 0.79894 0.65282 0.0
C338 C 0.05874 0.78439 0.66125 0.0
C339 C 0.02819 0.83778 0.61823 0.0
C340 C 0.99304 0.80154 0.66252 0.0
C341 C 0.00977 0.76881 0.60949 0.0
O342 O 0.00423 0.78589 0.60934 0.0
O343 O 0.01974 0.76477 0.62318 0.0
O344 O 0.00912 0.83333 0.61562 0.0
O345 O 0.03781 0.82698 0.62782 0.0
O346 O 0.50015 0.27906 0.15806 0.0
Cd347 Cd 0.52118 0.27288 0.1405 0.0
Cd348 Cd 0.50964 0.30375 0.12588 0.0
O349 O 0.49569 0.30808 0.14929 0.0
O350 O 0.53879 0.25654 0.15269 0.0
O351 O 0.54916 0.28682 0.14602 0.0
C352 C 0.55298 0.27117 0.15313 0.0
C353 C 0.52798 0.33014 0.11465 0.0
C354 C 0.4924 0.29508 0.16 0.0
C355 C 0.50077 0.26369 0.10376 0.0
O356 O 0.49696 0.28153 0.1059 0.0
O357 O 0.51152 0.25733 0.11572 0.0
O358 O 0.50886 0.32846 0.11438 0.0
O359 O 0.5369 0.31732 0.12233 0.0
H360 H 0.25048 0.75999 0.86743 0.0
H361 H 0.24477 0.77479 0.89761 0.0
H362 H 0.2457 0.83235 0.87874 0.0
H363 H 0.25185 0.8178 0.84867 0.0
H364 H 0.27016 0.83223 0.91059 0.0
H365 H 0.19333 0.79463 0.91495 0.0
H366 H 0.21123 0.77842 0.90862 0.0
H367 H 0.20447 0.79585 0.89386 0.0
C368 C 0.24954 0.77582 0.86974 0.0
C369 C 0.2516 0.78774 0.85567 0.0
C370 C 0.24604 0.78418 0.88692 0.0
C371 C 0.24452 0.80458 0.89031 0.0
C372 C 0.24665 0.81653 0.87633 0.0
H373 H 0.21128 0.87932 0.98075 0.0
H374 H 0.21153 0.85831 0.95209 0.0
C375 C 0.25008 0.80818 0.85916 0.0
C376 C 0.24172 0.81378 0.90861 0.0
H377 H 0.20916 0.81438 0.94136 0.0
C378 C 0.25685 0.82832 0.91733 0.0
C379 C 0.22424 0.80871 0.91727 0.0
C380 C 0.20728 0.79367 0.90819 0.0
C381 C 0.25503 0.8379 0.93454 0.0
C382 C 0.23772 0.83262 0.94334 0.0
C383 C 0.22249 0.81819 0.9346 0.0
C384 C 0.23512 0.84258 0.96139 0.0
C385 C 0.2715 0.85389 0.94307 0.0
C386 C 0.24769 0.84 0.97626 0.0
C387 C 0.24761 0.85195 0.99262 0.0
C388 C 0.23494 0.86671 0.9944 0.0
C389 C 0.22129 0.86818 0.97983 0.0
C390 C 0.2214 0.85619 0.96344 0.0
H391 H 0.2819 0.85889 0.93316 0.0
H392 H 0.26527 0.86704 0.94935 0.0
H393 H 0.28015 0.84793 0.95379 0.0
H394 H 0.25821 0.82937 0.97495 0.0
H395 H 0.25819 0.85028 0.0036 0.0
H396 H 0.94838 0.53705 0.38354 0.0
H397 H 0.9717 0.52601 0.36221 0.0
H398 H 0.01821 0.57059 0.38932 0.0
H399 H 0.99504 0.58183 0.41044 0.0
H400 H 0.01547 0.56959 0.35219 0.0
H401 H 0.01746 0.49389 0.37244 0.0
H402 H 0.99294 0.49957 0.36664 0.0
H403 H 0.00752 0.5133 0.386 0.0
C404 C 0.96359 0.54446 0.3849 0.0
C405 C 0.9699 0.56024 0.39862 0.0
C406 C 0.9769 0.53807 0.37283 0.0
C407 C 0.99673 0.54729 0.3744 0.0
C408 C 0.00299 0.56322 0.38797 0.0
H409 H 0.09767 0.50865 0.32185 0.0
H410 H 0.07411 0.5176 0.34368 0.0
C411 C 0.9897 0.56962 0.40001 0.0
C412 C 0.01092 0.54079 0.36164 0.0
H413 H 0.0338 0.50111 0.34646 0.0
C414 C 0.01951 0.55463 0.35095 0.0
C415 C 0.01633 0.52135 0.36027 0.0
C416 C 0.00825 0.50619 0.37205 0.0
C417 C 0.03319 0.54947 0.33869 0.0
C418 C 0.03813 0.52985 0.3369 0.0
C419 C 0.02981 0.51608 0.34779 0.0
C420 C 0.05188 0.52341 0.3237 0.0
C421 C 0.04245 0.56515 0.32792 0.0
C422 C 0.04691 0.52327 0.30528 0.0
C423 C 0.06028 0.51824 0.29281 0.0
C424 C 0.07887 0.51311 0.29854 0.0
C425 C 0.08353 0.5126 0.317 0.0
C426 C 0.0701 0.51769 0.32949 0.0
H427 H 0.04103 0.58046 0.33408 0.0
H428 H 0.05845 0.56402 0.32669 0.0
H429 H 0.03477 0.56287 0.31419 0.0
H430 H 0.03274 0.52727 0.30055 0.0
H431 H 0.05611 0.5186 0.2787 0.0
H432 H 0.7616 0.79428 0.83567 0.0
H433 H 0.76396 0.77977 0.86401 0.0
H434 H 0.82734 0.79859 0.86994 0.0
H435 H 0.82506 0.81347 0.84182 0.0
H436 H 0.78733 0.74944 0.87092 0.0
H437 H 0.80859 0.818 0.91948 0.0
H438 H 0.79762 0.81847 0.89697 0.0
H439 H 0.82348 0.81592 0.90063 0.0
C440 C 0.77599 0.79559 0.84316 0.0
C441 C 0.79315 0.80499 0.83653 0.0
C442 C 0.77732 0.78724 0.85928 0.0
C443 C 0.79578 0.78832 0.86913 0.0
C444 C 0.81291 0.79787 0.86266 0.0
H445 H 0.82664 0.71238 0.94869 0.0
H446 H 0.82652 0.73252 0.92375 0.0
C447 C 0.81161 0.80616 0.84651 0.0
C448 C 0.79728 0.77843 0.88561 0.0
H449 H 0.81013 0.78701 0.93086 0.0
C450 C 0.79226 0.75764 0.88403 0.0
C451 C 0.80361 0.78923 0.90268 0.0
C452 C 0.80849 0.81167 0.90517 0.0
C453 C 0.79365 0.7473 0.89907 0.0
C454 C 0.80043 0.75803 0.91607 0.0
C455 C 0.80516 0.77885 0.91773 0.0
C456 C 0.80214 0.74775 0.93229 0.0
C457 C 0.78762 0.72498 0.8967 0.0
C458 C 0.78898 0.75028 0.94568 0.0
C459 C 0.78898 0.73881 0.95998 0.0
C460 C 0.80224 0.72468 0.96113 0.0
C461 C 0.81616 0.72303 0.94818 0.0
C462 C 0.81609 0.73447 0.93388 0.0
H463 H 0.77901 0.71957 0.88358 0.0
H464 H 0.80118 0.71751 0.8973 0.0
H465 H 0.77852 0.72041 0.90766 0.0
H466 H 0.77816 0.76055 0.94468 0.0
H467 H 0.77814 0.74054 0.96976 0.0
H468 H 0.08003 0.99046 0.39614 0.0
H469 H 0.05534 -0.00025 0.37459 0.0
H470 H 0.01043 0.99138 0.41192 0.0
H471 H 0.03516 0.9825 0.43382 0.0
H472 H 0.0016 0.97482 0.36998 0.0
H473 H 0.03069 0.05531 0.38897 0.0
H474 H 0.04856 0.03821 0.38544 0.0
H475 H 0.0335 0.03684 0.40409 0.0
C476 C 0.06488 0.99047 0.39974 0.0
C477 C 0.05959 0.98597 0.41676 0.0
C478 C 0.05081 0.99569 0.38739 0.0
C479 C 0.03121 0.99639 0.39181 0.0
C480 C 0.02555 0.9909 0.40835 0.0
H481 H 0.9423 0.05552 0.33791 0.0
H482 H 0.96332 0.04271 0.36043 0.0
C483 C 0.03965 0.98574 0.42078 0.0
C484 C 0.01706 0.0041 0.37953 0.0
H485 H 0.00641 0.04718 0.36433 0.0
C486 C 0.00252 0.99062 0.36877 0.0
C487 C 0.01831 0.02474 0.37819 0.0
C488 C 0.0335 0.03973 0.38983 0.0
C489 C 0.98941 0.99729 0.35628 0.0
C490 C 0.99107 0.01789 0.35453 0.0
C491 C 0.00528 0.03139 0.36567 0.0
C492 C 0.97848 0.0257 0.34093 0.0
C493 C 0.97387 0.9823 0.34505 0.0
C494 C 0.98041 0.02068 0.32257 0.0
C495 C 0.96856 0.02805 0.30969 0.0
C496 C 0.95454 0.04059 0.31495 0.0
C497 C 0.95291 0.04587 0.3334 0.0
C498 C 0.96487 0.03855 0.34628 0.0
H499 H 0.97153 0.96795 0.35084 0.0
H500 H 0.95944 0.98823 0.34381 0.0
H501 H 0.97878 0.97924 0.33134 0.0
H502 H 0.9911 0.01105 0.31821 0.0
H503 H 0.97023 0.02371 0.29561 0.0
H504 H 0.23546 0.28474 0.69157 0.0
H505 H 0.24055 0.26518 0.66322 0.0
H506 H 0.30295 0.28872 0.66966 0.0
H507 H 0.29806 0.30812 0.69804 0.0
H508 H 0.28387 0.29261 0.63618 0.0
H509 H 0.26862 0.21518 0.65333 0.0
H510 H 0.24977 0.23058 0.6587 0.0
H511 H 0.27419 0.23665 0.67023 0.0
C512 C 0.25032 0.28546 0.68711 0.0
C513 C 0.26634 0.29806 0.697 0.0
C514 C 0.25321 0.27426 0.67093 0.0
C515 C 0.27216 0.27539 0.66445 0.0
C516 C 0.28822 0.28764 0.67446 0.0
H517 H 0.30816 0.20615 0.5697 0.0
H518 H 0.30614 0.22199 0.60045 0.0
C519 C 0.28536 0.2988 0.6906 0.0
C520 C 0.27504 0.26493 0.64664 0.0
H521 H 0.27119 0.21887 0.62235 0.0
C522 C 0.28122 0.27649 0.63318 0.0
C523 C 0.27175 0.2439 0.64286 0.0
C524 C 0.26588 0.23079 0.65706 0.0
C525 C 0.28371 0.26758 0.61587 0.0
C526 C 0.27976 0.2466 0.61191 0.0
C527 C 0.27409 0.23498 0.62547 0.0
C528 C 0.28078 0.2366 0.59354 0.0
C529 C 0.29053 0.28067 0.60192 0.0
C530 C 0.26704 0.23943 0.57964 0.0
C531 C 0.2681 0.23043 0.56216 0.0
C532 C 0.28296 0.21841 0.55826 0.0
C533 C 0.2966 0.2154 0.57227 0.0
C534 C 0.29545 0.22437 0.58982 0.0
H535 H 0.29724 0.29585 0.60811 0.0
H536 H 0.30158 0.27393 0.59382 0.0
H537 H 0.27755 0.28217 0.59264 0.0
H538 H 0.25548 0.24865 0.58232 0.0
H539 H 0.25732 0.233 0.5517 0.0
H540 H 0.56581 0.63778 0.62868 0.0
H541 H 0.54391 0.63887 0.65345 0.0
H542 H 0.52293 0.57618 0.6393 0.0
H543 H 0.54455 0.57499 0.61459 0.0
H544 H 0.4923 0.60429 0.64642 0.0
H545 H 0.5544 0.60928 0.69988 0.0
H546 H 0.55664 0.62582 0.6828 0.0
H547 H 0.55691 0.59963 0.67686 0.0
C548 C 0.55639 0.62429 0.6308 0.0
C549 C 0.557 0.60625 0.61982 0.0
C550 C 0.54398 0.62493 0.64495 0.0
C551 C 0.53192 0.60758 0.64818 0.0
C552 C 0.53217 0.58971 0.63699 0.0
H553 H 0.47378 0.55243 0.72689 0.0
H554 H 0.49366 0.56534 0.70389 0.0
C555 C 0.54463 0.58902 0.62299 0.0
C556 C 0.51945 0.60756 0.66357 0.0
H557 H 0.52181 0.60409 0.70862 0.0
C558 C 0.49868 0.60469 0.6601 0.0
C559 C 0.52794 0.60798 0.68133 0.0
C560 C 0.55019 0.61077 0.6856 0.0
C561 C 0.48613 0.60137 0.67389 0.0
C562 C 0.49464 0.60088 0.69149 0.0
C563 C 0.51539 0.60462 0.69509 0.0
C564 C 0.4825 0.59373 0.70568 0.0
C565 C 0.46392 0.59723 0.66942 0.0
C566 C 0.46965 0.60552 0.71433 0.0
C567 C 0.45821 0.59817 0.72762 0.0
C568 C 0.45945 0.57893 0.73232 0.0
C569 C 0.47239 0.56728 0.72357 0.0
C570 C 0.48383 0.57464 0.71045 0.0
H571 H 0.45972 0.59711 0.65485 0.0
H572 H 0.45798 0.58258 0.67351 0.0
H573 H 0.4567 0.60882 0.67708 0.0
H574 H 0.46852 0.62035 0.71083 0.0
H575 H 0.4484 0.60751 0.73414 0.0
H576 H 0.81469 0.32105 0.70853 0.0
H577 H 0.80556 0.34029 0.68435 0.0
H578 H 0.75206 0.2985 0.66968 0.0
H579 H 0.76134 0.27899 0.6935 0.0
H580 H 0.77245 0.30461 0.64124 0.0
H581 H 0.76478 0.37774 0.67849 0.0
H582 H 0.78829 0.36979 0.68419 0.0
H583 H 0.76568 0.35556 0.68944 0.0
C584 C 0.80086 0.31616 0.70028 0.0
C585 C 0.7888 0.29852 0.70283 0.0
C586 C 0.79557 0.32724 0.68658 0.0
C587 C 0.77797 0.321 0.67538 0.0
C588 C 0.76565 0.30364 0.67823 0.0
H589 H 0.73716 0.38724 0.58916 0.0
H590 H 0.73899 0.37137 0.6169 0.0
C591 C 0.771 0.29249 0.69183 0.0
C592 C 0.77339 0.33146 0.65964 0.0
H593 H 0.76856 0.37725 0.6468 0.0
C594 C 0.77135 0.32045 0.6425 0.0
C595 C 0.7717 0.35207 0.66128 0.0
C596 C 0.77252 0.36443 0.67936 0.0
C597 C 0.76845 0.3296 0.62693 0.0
C598 C 0.768 0.35042 0.62851 0.0
C599 C 0.76918 0.36133 0.64564 0.0
C600 C 0.76726 0.3611 0.61244 0.0
C601 C 0.76604 0.31691 0.60888 0.0
C602 C 0.78278 0.36101 0.60107 0.0
C603 C 0.78176 0.36995 0.58529 0.0
C604 C 0.76525 0.37932 0.58062 0.0
C605 C 0.75003 0.38006 0.59237 0.0
C606 C 0.75105 0.37103 0.6082 0.0
H607 H 0.76101 0.30098 0.61015 0.0
H608 H 0.75517 0.32219 0.59946 0.0
H609 H 0.78059 0.31782 0.60295 0.0
H610 H 0.79561 0.35378 0.6043 0.0
H611 H 0.79385 0.36927 0.57665 0.0
H612 H 0.47305 0.95322 0.57369 0.0
H613 H 0.49968 0.95231 0.597 0.0
H614 H 0.46979 0.98778 0.63499 0.0
H615 H 0.44277 0.98825 0.6119 0.0
H616 H 0.52409 0.98483 0.61453 0.0
H617 H 0.48415 0.9434 0.66359 0.0
H618 H 0.47404 0.94324 0.6407 0.0
H619 H 0.47197 0.96379 0.65747 0.0
C620 C 0.47191 0.96045 0.58712 0.0
C621 C 0.45574 0.97073 0.59099 0.0
C622 C 0.48719 0.95999 0.60038 0.0
C623 C 0.48654 0.96969 0.61778 0.0
C624 C 0.47035 0.97981 0.62175 0.0
H625 H 0.57099 0.02881 0.69822 0.0
H626 H 0.54828 0.0164 0.67173 0.0
C627 C 0.45506 0.98029 0.60849 0.0
C628 C 0.50354 0.97071 0.63139 0.0
H629 H 0.51524 0.96361 0.67488 0.0
C630 C 0.52225 0.97985 0.62761 0.0
C631 C 0.50121 0.9639 0.64833 0.0
C632 C 0.4818 0.95284 0.65272 0.0
C633 C 0.53835 0.98356 0.64075 0.0
C634 C 0.53557 0.97819 0.65813 0.0
C635 C 0.51726 0.96786 0.66156 0.0
C636 C 0.5506 0.98528 0.67341 0.0
C637 C 0.55807 0.99373 0.6361 0.0
C638 C 0.55934 0.97184 0.68322 0.0
C639 C 0.57246 0.97892 0.69845 0.0
C640 C 0.57667 -0.00048 0.7042 0.0
C641 C 0.56804 0.01286 0.69416 0.0
C642 C 0.55515 0.00581 0.67893 0.0
H643 H 0.55961 0.99126 0.6214 0.0
H644 H 0.55906 0.01004 0.64011 0.0
H645 H 0.57068 0.98829 0.64332 0.0
H646 H 0.55584 0.95591 0.67921 0.0
H647 H 0.57882 0.9683 0.706 0.0
H648 H 0.83995 0.27039 0.76308 0.0
H649 H 0.8728 0.27206 0.77903 0.0
H650 H 0.8746 0.21045 0.75911 0.0
H651 H 0.84203 0.20883 0.74268 0.0
H652 H 0.88091 0.24855 0.80574 0.0
H653 H 0.92988 0.23774 0.75019 0.0
H654 H 0.9053 0.2447 0.74674 0.0
H655 H 0.90828 0.21924 0.74896 0.0
C656 C 0.84754 0.25734 0.76175 0.0
C657 C 0.83838 0.23946 0.75166 0.0
C658 C 0.86625 0.25828 0.77095 0.0
C659 C 0.87619 0.24143 0.77013 0.0
C660 C 0.86733 0.22372 0.75969 0.0
H661 H 0.96778 0.22534 0.85188 0.0
H662 H 0.93894 0.21944 0.8297 0.0
C663 C 0.84862 0.22276 0.75049 0.0
C664 C 0.89502 0.24197 0.78136 0.0
H665 H 0.94415 0.23666 0.77979 0.0
C666 C 0.89475 0.24597 0.80007 0.0
C667 C 0.91303 0.23866 0.77389 0.0
C668 C 0.91428 0.23501 0.75383 0.0
C669 C 0.91201 0.24676 0.81156 0.0
C670 C 0.92995 0.24308 0.80414 0.0
C671 C 0.93028 0.23917 0.78542 0.0
C672 C 0.94871 0.24454 0.81568 0.0
C673 C 0.911 0.25202 0.83153 0.0
C674 C 0.96417 0.25995 0.81451 0.0
C675 C 0.98071 0.26332 0.82708 0.0
C676 C 0.98206 0.25128 0.84104 0.0
C677 C 0.96714 0.23499 0.84141 0.0
C678 C 0.95061 0.23163 0.8288 0.0
H679 H 0.89729 0.25854 0.83462 0.0
H680 H 0.91101 0.23831 0.83823 0.0
H681 H 0.92412 0.26281 0.83739 0.0
H682 H 0.96301 0.27 0.8044 0.0
H683 H 0.99198 0.2759 0.8263 0.0
H684 H 0.42548 0.92885 0.50528 0.0
H685 H 0.43972 0.90716 0.48283 0.0
H686 H 0.43368 0.85984 0.51649 0.0
H687 H 0.41949 0.88152 0.53912 0.0
H688 H 0.47557 0.88847 0.49107 0.0
H689 H 0.4089 0.83403 0.46494 0.0
H690 H 0.40711 0.85857 0.47615 0.0
H691 H 0.41332 0.83925 0.48901 0.0
C692 C 0.42692 0.91374 0.50782 0.0
C693 C 0.42136 0.90679 0.52393 0.0
C694 C 0.4351 0.90142 0.49499 0.0
C695 C 0.4376 0.88192 0.498 0.0
C696 C 0.43162 0.87479 0.51387 0.0
H697 H 0.48587 0.78456 0.44052 0.0
H698 H 0.47079 0.80658 0.46193 0.0
C699 C 0.42357 0.88715 0.52676 0.0
C700 C 0.44753 0.86943 0.48502 0.0
H701 H 0.43989 0.82692 0.4553 0.0
C702 C 0.4678 0.87506 0.48315 0.0
C703 C 0.4373 0.85193 0.47487 0.0
C704 C 0.41541 0.84557 0.47617 0.0
C705 C 0.47828 0.86336 0.4716 0.0
C706 C 0.46804 0.84587 0.46135 0.0
C707 C 0.44771 0.84034 0.46318 0.0
C708 C 0.47812 0.83293 0.44877 0.0
C709 C 0.50032 0.86955 0.4709 0.0
C710 C 0.4873 0.84046 0.43428 0.0
C711 C 0.49612 0.82794 0.4221 0.0
C712 C 0.49564 0.80759 0.42404 0.0
C713 C 0.4865 0.80015 0.43862 0.0
C714 C 0.47784 0.8127 0.45086 0.0
H715 H 0.50682 0.8798 0.48304 0.0
H716 H 0.5084 0.85638 0.46971 0.0
H717 H 0.5028 0.87754 0.45899 0.0
H718 H 0.4873 0.85592 0.43218 0.0
H719 H 0.50287 0.8341 0.41092 0.0
H720 H 0.23982 0.32216 0.80992 0.0
H721 H 0.21267 0.31595 0.82934 0.0
H722 H 0.17264 0.29222 0.78263 0.0
H723 H 0.1998 0.29779 0.7633 0.0
H724 H 0.17927 0.3318 0.83029 0.0
H725 H 0.16 0.25001 0.81485 0.0
H726 H 0.18256 0.26329 0.80829 0.0
H727 H 0.15939 0.26195 0.79479 0.0
C728 C 0.22526 0.31535 0.80387 0.0
C729 C 0.22193 0.31032 0.78516 0.0
C730 C 0.20978 0.31183 0.81494 0.0
C731 C 0.19069 0.30328 0.80749 0.0
C732 C 0.18736 0.29828 0.78876 0.0
H733 H 0.07787 0.31738 0.84643 0.0
H734 H 0.11003 0.32033 0.8338 0.0
C735 C 0.20288 0.30161 0.7777 0.0
C736 C 0.17394 0.30083 0.81911 0.0
H737 H 0.13505 0.26752 0.82828 0.0
C738 C 0.16976 0.31767 0.83003 0.0
C739 C 0.16175 0.28232 0.81908 0.0
C740 C 0.16628 0.26334 0.80877 0.0
C741 C 0.15322 0.31672 0.84026 0.0
C742 C 0.14019 0.29858 0.83916 0.0
C743 C 0.14488 0.28151 0.82893 0.0
C744 C 0.12105 0.29725 0.84764 0.0
C745 C 0.14988 0.33522 0.8521 0.0
C746 C 0.11631 0.28295 0.85932 0.0
C747 C 0.09772 0.28102 0.86642 0.0
C748 C 0.08358 0.29336 0.8619 0.0
C749 C 0.08848 0.30776 0.85033 0.0
C750 C 0.10695 0.30958 0.84318 0.0
H751 H 0.16411 0.34518 0.85626 0.0
H752 H 0.14005 0.34369 0.84447 0.0
H753 H 0.14272 0.33143 0.86436 0.0
H754 H 0.12692 0.27318 0.86284 0.0
H755 H 0.09437 0.26974 0.87525 0.0
H756 H 0.6193 0.63869 0.52439 0.0
H757 H 0.61195 0.65569 0.49809 0.0
H758 H 0.55901 0.67245 0.52068 0.0
H759 H 0.56622 0.65553 0.54692 0.0
H760 H 0.57616 0.64702 0.47417 0.0
H761 H 0.58864 0.72531 0.50697 0.0
H762 H 0.59841 0.70526 0.51691 0.0
H763 H 0.57273 0.70851 0.51832 0.0
C764 C 0.60618 0.64616 0.52378 0.0
C765 C 0.59335 0.64582 0.53767 0.0
C766 C 0.60201 0.65581 0.50878 0.0
C767 C 0.58507 0.66549 0.50757 0.0
C768 C 0.57232 0.66532 0.52151 0.0
H769 H 0.51195 0.69898 0.42364 0.0
H770 H 0.52889 0.68211 0.44587 0.0
C771 C 0.57642 0.65557 0.53645 0.0
C772 C 0.58014 0.675 0.49138 0.0
H773 H 0.57127 0.71938 0.47775 0.0
C774 C 0.57532 0.66288 0.47487 0.0
C775 C 0.57933 0.69572 0.49231 0.0
C776 C 0.58522 0.70953 0.50954 0.0
C777 C 0.56877 0.67081 0.45942 0.0
C778 C 0.56689 0.69133 0.46061 0.0
C779 C 0.57263 0.70362 0.47691 0.0
C780 C 0.55752 0.70007 0.44557 0.0
C781 C 0.56362 0.65713 0.44203 0.0
C782 C 0.56804 0.71572 0.43795 0.0
C783 C 0.55839 0.72539 0.42515 0.0
C784 C 0.53799 0.71975 0.42002 0.0
C785 C 0.52768 0.70367 0.42729 0.0
C786 C 0.53736 0.69393 0.43994 0.0
H787 H 0.57103 0.64352 0.442 0.0
H788 H 0.5473 0.65237 0.4403 0.0
H789 H 0.56797 0.66488 0.43035 0.0
H790 H 0.58358 0.72075 0.44223 0.0
H791 H 0.5667 0.7378 0.41986 0.0
H792 H 0.86041 0.77556 0.7748 0.0
H793 H 0.88858 0.77699 0.75602 0.0
H794 H 0.86988 0.82822 0.73436 0.0
H795 H 0.84193 0.82707 0.75325 0.0
H796 H 0.88774 0.77422 0.71878 0.0
H797 H 0.92856 0.84703 0.75051 0.0
H798 H 0.90876 0.83341 0.76088 0.0
H799 H 0.90306 0.84781 0.74305 0.0
C800 C 0.86239 0.78715 0.76606 0.0
C801 C 0.84908 0.80122 0.76552 0.0
C802 C 0.87844 0.78796 0.75537 0.0
C803 C 0.88148 0.80291 0.74404 0.0
C804 C 0.86805 0.81684 0.74332 0.0
H805 H 0.96541 0.82746 0.66463 0.0
H806 H 0.93855 0.82803 0.68473 0.0
C807 C 0.85201 0.81607 0.75403 0.0
C808 C 0.89837 0.80352 0.73258 0.0
H809 H 0.94045 0.83269 0.72368 0.0
C810 C 0.89932 0.78695 0.7199 0.0
C811 C 0.9134 0.8202 0.73407 0.0
C812 C 0.91356 0.83806 0.74797 0.0
C813 C 0.91479 0.78671 0.70847 0.0
C814 C 0.92982 0.80337 0.70997 0.0
C815 C 0.92886 0.81997 0.7226 0.0
C816 C 0.9467 0.80373 0.69855 0.0
C817 C 0.91475 0.76879 0.69466 0.0
C818 C 0.96042 0.7902 0.70003 0.0
C819 C 0.97578 0.78984 0.68862 0.0
C820 C 0.97773 0.80305 0.67553 0.0
C821 C 0.9643 0.81704 0.6745 0.0
C822 C 0.94895 0.8174 0.68597 0.0
H823 H 0.89994 0.75943 0.69244 0.0
H824 H 0.91907 0.77345 0.68161 0.0
H825 H 0.92574 0.75944 0.69941 0.0
H826 H 0.9591 0.77977 0.70989 0.0
H827 H 0.98591 0.77895 0.68986 0.0
H828 H 0.06109 0.93956 0.49287 0.0
H829 H 0.05357 0.92434 0.52003 0.0
H830 H 0.11493 0.9154 0.5288 0.0
H831 H 0.12256 0.93058 0.5015 0.0
H832 H 0.08701 0.88153 0.53142 0.0
H833 H 0.06909 0.94861 0.57273 0.0
H834 H 0.05589 0.94378 0.55082 0.0
H835 H 0.08252 0.95001 0.55285 0.0
C836 C 0.07299 0.93439 0.50058 0.0
C837 C 0.09244 0.93624 0.49512 0.0
C838 C 0.06871 0.92585 0.51617 0.0
C839 C 0.08378 0.9191 0.52658 0.0
C840 C 0.10315 0.9207 0.52102 0.0
H841 H 0.0684 0.84723 0.61631 0.0
H842 H 0.08482 0.86911 0.59634 0.0
C843 C 0.10746 0.9293 0.50545 0.0
C844 C 0.07904 0.90955 0.5428 0.0
H845 H 0.05889 0.91716 0.58301 0.0
C846 C 0.08116 0.88935 0.54286 0.0
C847 C 0.07148 0.91988 0.55766 0.0
C848 C 0.06977 0.94182 0.55865 0.0
C849 C 0.07488 0.87888 0.55698 0.0
C850 C 0.06666 0.88904 0.57157 0.0
C851 C 0.06524 0.90944 0.57182 0.0
C852 C 0.05756 0.87826 0.58568 0.0
C853 C 0.07611 0.8568 0.55567 0.0
C854 C 0.03698 0.87705 0.58698 0.0
C855 C 0.02761 0.86476 0.59843 0.0
C856 C 0.03866 0.85344 0.60882 0.0
C857 C 0.05947 0.85569 0.6084 0.0
C858 C 0.06886 0.86805 0.59692 0.0
H859 H 0.07931 0.85057 0.54201 0.0
H860 H 0.08824 0.85418 0.56538 0.0
H861 H 0.06199 0.8485 0.5591 0.0
H862 H 0.02801 0.88491 0.5785 0.0
H863 H 0.01158 0.86348 0.59852 0.0
H864 H 0.22073 0.75102 0.73949 0.0
H865 H 0.19323 0.75722 0.71904 0.0
H866 H 0.18501 0.80885 0.75522 0.0
H867 H 0.21217 0.80251 0.77584 0.0
H868 H 0.15079 0.78399 0.74619 0.0
H869 H 0.18774 0.79823 0.68451 0.0
H870 H 0.19273 0.77535 0.69244 0.0
H871 H 0.20147 0.79875 0.70603 0.0
C872 C 0.21322 0.76385 0.74292 0.0
C873 C 0.21849 0.77619 0.75926 0.0
C874 C 0.19763 0.76747 0.73117 0.0
C875 C 0.18724 0.78366 0.73549 0.0
C876 C 0.19289 0.79633 0.7516 0.0
H877 H 0.08995 0.81493 0.66579 0.0
H878 H 0.1218 0.8163 0.68367 0.0
C879 C 0.20839 0.79266 0.76337 0.0
C880 C 0.1693 0.78623 0.72412 0.0
H881 H 0.15209 0.79038 0.68111 0.0
C882 C 0.15114 0.78563 0.73201 0.0
C883 C 0.16979 0.78859 0.70567 0.0
C884 C 0.18902 0.79048 0.69669 0.0
C885 C 0.13334 0.78658 0.72182 0.0
C886 C 0.13366 0.7878 0.70317 0.0
C887 C 0.1519 0.78921 0.69538 0.0
C888 C 0.11504 0.78673 0.69152 0.0
C889 C 0.1143 0.78614 0.7311 0.0
C890 C 0.101 0.7695 0.68971 0.0
C891 C 0.08289 0.76868 0.6796 0.0
C892 C 0.0785 0.78507 0.671 0.0
C893 C 0.09287 0.80211 0.67233 0.0
C894 C 0.11105 0.80291 0.6825 0.0
H895 H 0.11727 0.79077 0.74581 0.0
H896 H 0.10444 0.79608 0.72544 0.0
H897 H 0.10625 0.77071 0.72909 0.0
H898 H 0.10397 0.75672 0.6963 0.0
H899 H 0.07223 0.75526 0.67873 0.0
H900 H 0.95745 0.64611 0.46244 0.0
H901 H 0.96934 0.67607 0.48383 0.0
H902 H 0.97551 0.63922 0.52637 0.0
H903 H 0.96361 0.60935 0.50518 0.0
H904 H 0.94967 0.6848 0.5198 0.0
H905 H 0.03057 0.67873 0.52598 0.0
H906 H 0.01446 0.66826 0.50612 0.0
H907 H 0.01365 0.65611 0.52608 0.0
C908 C 0.96154 0.64446 0.47632 0.0
C909 C 0.95956 0.62551 0.48223 0.0
C910 C 0.96826 0.66151 0.48848 0.0
C911 C 0.97337 0.65971 0.50656 0.0
C912 C 0.97174 0.6408 0.5124 0.0
H913 H 0.01383 0.72924 0.60696 0.0
H914 H 0.00499 0.70409 0.58081 0.0
C915 C 0.96484 0.62382 0.50034 0.0
C916 C 0.97951 0.67756 0.51972 0.0
H917 H 0.01901 0.70183 0.5475 0.0
C918 C 0.96486 0.68879 0.52573 0.0
C919 C 0.99929 0.68244 0.52739 0.0
C920 C 0.01551 0.67088 0.52104 0.0
C921 C 0.96934 0.70438 0.53989 0.0
C922 C 0.98911 0.70908 0.54784 0.0
C923 C 0.00387 0.69817 0.54139 0.0
C924 C 0.99461 0.72457 0.56347 0.0
C925 C 0.95268 0.71502 0.54673 0.0
C926 C 0.9919 0.74446 0.56232 0.0
C927 C 0.99673 0.75884 0.5773 0.0
C928 C 0.00465 0.75362 0.59362 0.0
C929 C 0.00773 0.73375 0.5946 0.0
C930 C 0.00273 0.71937 0.57967 0.0
H931 H 0.93783 0.70638 0.54224 0.0
H932 H 0.95409 0.71778 0.56165 0.0
H933 H 0.95335 0.72964 0.54146 0.0
H934 H 0.9861 0.74888 0.54982 0.0
H935 H 0.99439 0.77407 0.57605 0.0
H936 H 0.77764 0.86065 0.2554 0.0
H937 H 0.79721 0.89386 0.26115 0.0
H938 H 0.78304 0.90356 0.20627 0.0
H939 H 0.76298 0.87065 0.20055 0.0
H940 H 0.83023 0.90748 0.2436 0.0
H941 H 0.77003 0.95432 0.2354 0.0
H942 H 0.76515 0.9283 0.23855 0.0
H943 H 0.7707 0.93531 0.21688 0.0
C944 C 0.77845 0.86998 0.24464 0.0
C945 C 0.76876 0.86304 0.22753 0.0
C946 C 0.78971 0.88888 0.24791 0.0
C947 C 0.79134 0.90123 0.23419 0.0
C948 C 0.78167 0.89439 0.21712 0.0
H949 H 0.88411 0.00132 0.23267 0.0
H950 H 0.86031 0.97094 0.22479 0.0
C951 C 0.77043 0.87549 0.21383 0.0
C952 C 0.804 0.92087 0.23752 0.0
H953 H 0.80326 0.97094 0.23775 0.0
C954 C 0.82434 0.92136 0.24236 0.0
C955 C 0.7962 0.93893 0.23601 0.0
C956 C 0.77429 0.9393 0.23159 0.0
C957 C 0.83719 0.93945 0.24558 0.0
C958 C 0.82951 0.95747 0.24362 0.0
C959 C 0.80911 0.95704 0.239 0.0
C960 C 0.84242 0.97694 0.24701 0.0
C961 C 0.85883 0.93914 0.25138 0.0
C962 C 0.83965 0.99077 0.26161 0.0
C963 C 0.85315 0.0082 0.26612 0.0
C964 C 0.86963 0.0121 0.25605 0.0
C965 C 0.87169 0.99871 0.2408 0.0
C966 C 0.85816 0.9813 0.23631 0.0
H967 H 0.86135 0.92475 0.25615 0.0
H968 H 0.86784 0.94128 0.23979 0.0
H969 H 0.86429 0.95142 0.2623 0.0
H970 H 0.82749 0.9877 0.26995 0.0
H971 H 0.85106 0.01824 0.27788 0.0
H972 H 0.76711 0.21225 0.29269 0.0
H973 H 0.79196 0.18946 0.28961 0.0
H974 H 0.83673 0.23518 0.3178 0.0
H975 H 0.81165 0.25784 0.32142 0.0
H976 H 0.82577 0.19064 0.2736 0.0
H977 H 0.84224 0.19016 0.347 0.0
H978 H 0.82179 0.20139 0.33796 0.0
H979 H 0.84675 0.2144 0.3397 0.0
C980 C 0.78228 0.21745 0.29814 0.0
C981 C 0.78746 0.23673 0.30739 0.0
C982 C 0.79647 0.20444 0.29639 0.0
C983 C 0.81615 0.21048 0.30374 0.0
C984 C 0.82153 0.23 0.31244 0.0
H985 H 0.90341 0.12831 0.27711 0.0
H986 H 0.88742 0.15867 0.27984 0.0
C987 C 0.80725 0.24295 0.31443 0.0
C988 C 0.83076 0.19607 0.30246 0.0
H989 H 0.86056 0.17128 0.32771 0.0
C990 C 0.83348 0.18647 0.28542 0.0
C991 C 0.8407 0.19056 0.31791 0.0
C992 C 0.83763 0.19951 0.33669 0.0
C993 C 0.84532 0.17107 0.28343 0.0
C994 C 0.85524 0.16555 0.29889 0.0
C995 C 0.85306 0.17563 0.31587 0.0
C996 C 0.86619 0.14802 0.29802 0.0
C997 C 0.84621 0.1602 0.26489 0.0
C998 C 0.86018 0.13234 0.30792 0.0
C999 C 0.8695 0.11525 0.30667 0.0
C1000 C 0.88499 0.11336 0.29537 0.0
C1001 C 0.8914 0.12927 0.2858 0.0
C1002 C 0.88218 0.14655 0.28724 0.0
H1003 H 0.83413 0.16313 0.25525 0.0
H1004 H 0.86064 0.16534 0.25968 0.0
H1005 H 0.84507 0.14385 0.26527 0.0
H1006 H 0.84791 0.13313 0.31634 0.0
H1007 H 0.86419 0.10328 0.31423 0.0
H1008 H 0.37814 0.08562 0.96518 0.0
H1009 H 0.35423 0.06276 0.97871 0.0
H1010 H 0.39515 0.01941 0.97725 0.0
H1011 H 0.41916 0.04216 0.96378 0.0
H1012 H 0.34003 0.01795 0.96296 0.0
H1013 H 0.37867 0.03225 0.03193 0.0
H1014 H 0.38127 0.05039 0.01614 0.0
H1015 H 0.39347 0.0286 0.01311 0.0
C1016 C 0.382 0.07121 0.96773 0.0
C1017 C 0.40046 0.06562 0.96342 0.0
C1018 C 0.36836 0.0582 0.9754 0.0
C1019 C 0.3731 0.03958 0.97906 0.0
C1020 C 0.39137 0.03383 0.97458 0.0
H1021 H 0.31534 0.94314 0.03078 0.0
H1022 H 0.33914 0.96736 0.0188 0.0
C1023 C 0.40495 0.04674 0.96678 0.0
C1024 C 0.3589 0.02605 0.98752 0.0
H1025 H 0.35035 0.00773 0.02714 0.0
C1026 C 0.34217 0.01572 0.977 0.0
C1027 C 0.36199 0.02318 0.00577 0.0
C1028 C 0.37975 0.03421 0.01753 0.0
C1029 C 0.32845 0.00225 0.98422 0.0
C1030 C 0.33134 -0.00045 0.0026 0.0
C1031 C 0.34814 0.00991 0.0131 0.0
C1032 C 0.31718 0.9858 0.01105 0.0
C1033 C 0.31132 0.99065 0.97198 0.0
C1034 C 0.29711 0.98856 0.01121 0.0
C1035 C 0.28348 0.97469 0.01789 0.0
C1036 C 0.28973 0.95797 0.0248 0.0
C1037 C 0.31005 0.95583 0.02552 0.0
C1038 C 0.32366 0.96963 0.01866 0.0
H1039 H 0.31434 0.99027 0.9576 0.0
H1040 H 0.30815 0.97507 0.97514 0.0
H1041 H 0.29779 0.99791 0.97385 0.0
H1042 H 0.29193 0.00125 0.00586 0.0
H1043 H 0.26797 0.9769 0.01736 0.0
H1044 H 0.26667 0.35807 0.32641 0.0
H1045 H 0.24094 0.37837 0.31883 0.0
H1046 H 0.23416 0.34927 0.2643 0.0
H1047 H 0.25982 0.32862 0.27181 0.0
H1048 H 0.24567 0.40346 0.28792 0.0
H1049 H 0.17552 0.34998 0.28266 0.0
H1050 H 0.19729 0.34666 0.29657 0.0
H1051 H 0.19702 0.34218 0.27258 0.0
C1052 C 0.25941 0.35564 0.3129 0.0
C1053 C 0.26527 0.34174 0.2997 0.0
C1054 C 0.2448 0.36731 0.30859 0.0
C1055 C 0.23564 0.36518 0.29106 0.0
C1056 C 0.24098 0.35096 0.27794 0.0
H1057 H 0.14889 0.43842 0.25082 0.0
H1058 H 0.16962 0.41163 0.25274 0.0
C1059 C 0.25571 0.33931 0.28222 0.0
C1060 C 0.22179 0.37912 0.28632 0.0
H1061 H 0.17257 0.38334 0.27859 0.0
C1062 C 0.2297 0.39906 0.28574 0.0
C1063 C 0.20105 0.37319 0.28327 0.0
C1064 C 0.19205 0.35186 0.28382 0.0
C1065 C 0.21732 0.41342 0.28264 0.0
C1066 C 0.19646 0.40774 0.28048 0.0
C1067 C 0.18857 0.38762 0.28035 0.0
C1068 C 0.18275 0.42284 0.2796 0.0
C1069 C 0.22668 0.43461 0.28184 0.0
C1070 C 0.18288 0.43757 0.29425 0.0
C1071 C 0.17121 0.45283 0.29319 0.0
C1072 C 0.159 0.45356 0.27748 0.0
C1073 C 0.15821 0.43829 0.26307 0.0
C1074 C 0.17001 0.42299 0.26414 0.0
H1075 H 0.2424 0.43531 0.27847 0.0
H1076 H 0.21829 0.44171 0.27173 0.0
H1077 H 0.22656 0.44343 0.29519 0.0
H1078 H 0.19233 0.43747 0.30644 0.0
H1079 H 0.17202 0.46422 0.30461 0.0
H1080 H 0.10989 0.03571 0.44583 0.0
H1081 H 0.13938 0.06078 0.45161 0.0
H1082 H 0.17542 0.01515 0.46221 0.0
H1083 H 0.14597 0.98975 0.45604 0.0
H1084 H 0.18011 0.04971 0.48896 0.0
H1085 H 0.18672 0.06965 0.41974 0.0
H1086 H 0.16225 0.06958 0.4274 0.0
H1087 H 0.17269 0.04665 0.42436 0.0
C1088 C 0.12413 0.03091 0.44904 0.0
C1089 C 0.12562 0.0107 0.45031 0.0
C1090 C 0.14095 0.04527 0.45238 0.0
C1091 C 0.15955 0.03973 0.45707 0.0
C1092 C 0.16115 0.01964 0.45849 0.0
H1093 H 0.27131 0.12072 0.46795 0.0
H1094 H 0.24545 0.09204 0.45963 0.0
C1095 C 0.14432 0.0052 0.45506 0.0
C1096 C 0.17711 0.05516 0.46129 0.0
H1097 H 0.20565 0.09182 0.44347 0.0
C1098 C 0.18585 0.0588 0.479 0.0
C1099 C 0.1846 0.06682 0.44819 0.0
C1100 C 0.17623 0.06292 0.42881 0.0
C1101 C 0.20152 0.07436 0.48413 0.0
C1102 C 0.2084 0.08661 0.47122 0.0
C1103 C 0.20015 0.08249 0.45336 0.0
C1104 C 0.22389 0.10403 0.47612 0.0
C1105 C 0.21053 0.07765 0.50333 0.0
C1106 C 0.22012 0.12036 0.48788 0.0
C1107 C 0.23479 0.1368 0.49262 0.0
C1108 C 0.2535 0.13718 0.48564 0.0
C1109 C 0.25709 0.12088 0.47361 0.0
C1110 C 0.24236 0.10448 0.46883 0.0
H1111 H 0.20694 0.06428 0.51034 0.0
H1112 H 0.22696 0.08148 0.50388 0.0
H1113 H 0.20453 0.09029 0.51075 0.0
H1114 H 0.2058 0.12037 0.49339 0.0
H1115 H 0.23151 0.14912 0.50187 0.0
H1116 H 0.77994 0.19957 0.76713 0.0
H1117 H 0.75724 0.16936 0.76971 0.0
H1118 H 0.73226 0.16939 0.71539 0.0
H1119 H 0.75561 0.19907 0.71236 0.0
H1120 H 0.71685 0.1631 0.76705 0.0
H1121 H 0.74528 0.11295 0.71426 0.0
H1122 H 0.75852 0.13717 0.72306 0.0
H1123 H 0.73784 0.135 0.7064 0.0
C1124 C 0.76984 0.19299 0.75562 0.0
C1125 C 0.76974 0.20163 0.73947 0.0
C1126 C 0.75676 0.17582 0.75718 0.0
C1127 C 0.74333 0.16693 0.74264 0.0
C1128 C 0.74284 0.17575 0.72663 0.0
H1129 H 0.64719 0.06863 0.72965 0.0
H1130 H 0.67079 0.09803 0.72632 0.0
C1131 C 0.756 0.19287 0.72502 0.0
C1132 C 0.72957 0.14868 0.74442 0.0
H1133 H 0.71537 0.10021 0.72624 0.0
C1134 C 0.7166 0.14932 0.75819 0.0
C1135 C 0.72932 0.13071 0.73285 0.0
C1136 C 0.74361 0.12879 0.71842 0.0
C1137 C 0.70318 0.13255 0.76054 0.0
C1138 C 0.70282 0.11471 0.74888 0.0
C1139 C 0.71573 0.114 0.73511 0.0
C1140 C 0.689 0.09662 0.75074 0.0
C1141 C 0.68923 0.13406 0.77529 0.0
C1142 C 0.6917 0.086 0.76545 0.0
C1143 C 0.67833 0.06913 0.76736 0.0
C1144 C 0.662 0.06267 0.75462 0.0
C1145 C 0.65955 0.07324 0.73975 0.0
C1146 C 0.67301 0.09002 0.7378 0.0
H1147 H 0.68906 0.14975 0.78115 0.0
H1148 H 0.67385 0.12741 0.77009 0.0
H1149 H 0.69403 0.12557 0.78619 0.0
H1150 H 0.70412 0.09083 0.77547 0.0
H1151 H 0.68066 0.06132 0.77895 0.0
H1152 H 0.41532 0.00815 0.52871 0.0
H1153 H 0.40363 0.03975 0.52412 0.0
H1154 H 0.39764 0.05189 0.58096 0.0
H1155 H 0.40913 0.02006 0.58569 0.0
H1156 H 0.36601 0.05016 0.5334 0.0
H1157 H 0.42935 0.10415 0.56787 0.0
H1158 H 0.43167 0.07839 0.56071 0.0
H1159 H 0.41903 0.08476 0.58032 0.0
C1160 C 0.41144 0.01747 0.54025 0.0
C1161 C 0.41301 0.01152 0.55755 0.0
C1162 C 0.40491 0.03559 0.53761 0.0
C1163 C 0.39996 0.04821 0.55222 0.0
C1164 C 0.40173 0.0425 0.56956 0.0
H1165 H 0.33908 0.15318 0.54496 0.0
H1166 H 0.35606 0.12766 0.55773 0.0
C1167 C 0.40826 0.02432 0.57222 0.0
C1168 C 0.39185 0.06672 0.54894 0.0
H1169 H 0.40207 0.11763 0.55521 0.0
C1170 C 0.37383 0.0649 0.53827 0.0
C1171 C 0.40208 0.08591 0.55539 0.0
C1172 C 0.42168 0.08857 0.56662 0.0
C1173 C 0.36592 0.08177 0.53358 0.0
C1174 C 0.3764 0.10092 0.53958 0.0
C1175 C 0.39414 0.10286 0.55067 0.0
C1176 C 0.36949 0.11881 0.53332 0.0
C1177 C 0.34656 0.07905 0.52194 0.0
C1178 C 0.37211 0.12267 0.51565 0.0
C1179 C 0.36245 0.13712 0.50832 0.0
C1180 C 0.34999 0.14796 0.51858 0.0
C1181 C 0.34858 0.14508 0.53674 0.0
C1182 C 0.35825 0.13053 0.54405 0.0
H1183 H 0.33875 0.06352 0.52079 0.0
H1184 H 0.33652 0.08941 0.52748 0.0
H1185 H 0.34958 0.08262 0.50824 0.0
H1186 H 0.38077 0.11374 0.50721 0.0
H1187 H 0.36394 0.13905 0.49433 0.0
H1188 H 0.63107 0.5867 0.57691 0.0
H1189 H 0.64839 0.55784 0.5703 0.0
H1190 H 0.59957 0.51971 0.58776 0.0
H1191 H 0.58162 0.5483 0.59343 0.0
H1192 H 0.66138 0.53141 0.59114 0.0
H1193 H 0.60439 0.49221 0.53805 0.0
H1194 H 0.60428 0.51776 0.54742 0.0
H1195 H 0.59511 0.49769 0.55961 0.0
C1196 C 0.62388 0.57215 0.57915 0.0
C1197 C 0.60482 0.56983 0.5855 0.0
C1198 C 0.6339 0.55569 0.57554 0.0
C1199 C 0.62513 0.53656 0.57825 0.0
C1200 C 0.60644 0.53426 0.58521 0.0
H1201 H 0.69822 0.4383 0.56678 0.0
H1202 H 0.67632 0.46107 0.57976 0.0
C1203 C 0.59631 0.5507 0.58867 0.0
C1204 C 0.63549 0.51908 0.57337 0.0
H1205 H 0.63171 0.47565 0.54499 0.0
C1206 C 0.65486 0.51913 0.58114 0.0
C1207 C 0.62699 0.50316 0.56021 0.0
C1208 C 0.60663 0.5027 0.5507 0.0
C1209 C 0.66618 0.50399 0.57578 0.0
C1210 C 0.65768 0.48809 0.5626 0.0
C1211 C 0.63811 0.48775 0.55521 0.0
C1212 C 0.66952 0.4729 0.55484 0.0
C1213 C 0.68744 0.5057 0.58364 0.0
C1214 C 0.67222 0.47134 0.53641 0.0
C1215 C 0.68442 0.45821 0.52895 0.0
C1216 C 0.69425 0.44636 0.53977 0.0
C1217 C 0.69094 0.44733 0.55812 0.0
C1218 C 0.67857 0.46044 0.56558 0.0
H1219 H 0.69294 0.52088 0.59061 0.0
H1220 H 0.68842 0.49494 0.59359 0.0
H1221 H 0.69744 0.50211 0.57299 0.0
H1222 H 0.66534 0.48075 0.52784 0.0
H1223 H 0.68658 0.45783 0.51476 0.0
H1224 H 0.74449 0.30798 0.34071 0.0
H1225 H 0.73901 0.32245 0.37102 0.0
H1226 H 0.75252 0.26904 0.39208 0.0
H1227 H 0.75747 0.25412 0.36175 0.0
H1228 H 0.71079 0.29928 0.39808 0.0
H1229 H 0.7914 0.32315 0.41901 0.0
H1230 H 0.78181 0.32119 0.39576 0.0
H1231 H 0.78341 0.29904 0.40623 0.0
C1232 C 0.74609 0.29919 0.35173 0.0
C1233 C 0.75147 0.27989 0.34879 0.0
C1234 C 0.743 0.30751 0.36902 0.0
C1235 C 0.74537 0.29675 0.38367 0.0
C1236 C 0.75069 0.27753 0.38087 0.0
H1237 H 0.75361 0.3433 0.49702 0.0
H1238 H 0.75291 0.32061 0.46927 0.0
C1239 C 0.75368 0.26914 0.36357 0.0
C1240 C 0.7427 0.30589 0.40196 0.0
H1241 H 0.7686 0.33147 0.43976 0.0
C1242 C 0.72338 0.30623 0.40729 0.0
C1243 C 0.7592 0.31471 0.41387 0.0
C1244 C 0.78019 0.31465 0.40856 0.0
C1245 C 0.7201 0.31545 0.42433 0.0
C1246 C 0.7366 0.32496 0.43607 0.0
C1247 C 0.75595 0.32416 0.43079 0.0
C1248 C 0.73431 0.3368 0.45345 0.0
C1249 C 0.69903 0.31477 0.42961 0.0
C1250 C 0.72369 0.35317 0.45391 0.0
C1251 C 0.72389 0.36605 0.46981 0.0
C1252 C 0.73503 0.36301 0.48548 0.0
C1253 C 0.74494 0.34611 0.48518 0.0
C1254 C 0.74458 0.33314 0.46932 0.0
H1255 H 0.68921 0.30168 0.4222 0.0
H1256 H 0.69835 0.31414 0.44427 0.0
H1257 H 0.69307 0.3284 0.42618 0.0
H1258 H 0.71605 0.35659 0.44177 0.0
H1259 H 0.71621 0.37899 0.46952 0.0
H1260 H 0.46536 0.02351 0.90571 0.0
H1261 H 0.48875 0.01502 0.88352 0.0
H1262 H 0.49943 0.07664 0.87404 0.0
H1263 H 0.47633 0.08525 0.89631 0.0
H1264 H 0.48816 0.0201 0.84711 0.0
H1265 H 0.55548 0.06307 0.88587 0.0
H1266 H 0.53229 0.05734 0.89581 0.0
H1267 H 0.53561 0.07754 0.88233 0.0
C1268 C 0.47273 0.03521 0.89887 0.0
C1269 C 0.4692 0.05502 0.90281 0.0
C1270 C 0.48603 0.03036 0.88623 0.0
C1271 C 0.49604 0.04527 0.8774 0.0
C1272 C 0.49217 0.065 0.88101 0.0
H1273 H 0.55826 0.03341 0.7812 0.0
H1274 H 0.53435 0.03858 0.80353 0.0
C1275 C 0.47889 0.06987 0.89367 0.0
C1276 C 0.51045 0.04017 0.86433 0.0
H1277 H 0.55905 0.05046 0.85559 0.0
C1278 C 0.50369 0.02664 0.84898 0.0
C1279 C 0.53074 0.0485 0.86699 0.0
C1280 C 0.53905 0.06227 0.88372 0.0
C1281 C 0.51661 0.0216 0.83593 0.0
C1282 C 0.53671 0.03059 0.83823 0.0
C1283 C 0.54357 0.04373 0.8538 0.0
C1284 C 0.55086 0.02679 0.82455 0.0
C1285 C 0.50869 0.00656 0.81991 0.0
C1286 C 0.56826 0.01881 0.82909 0.0
C1287 C 0.58206 0.01598 0.81641 0.0
C1288 C 0.57874 0.02118 0.79897 0.0
C1289 C 0.56124 0.02914 0.79447 0.0
C1290 C 0.54748 0.03199 0.80718 0.0
H1291 H 0.49489 0.99711 0.82261 0.0
H1292 H 0.50508 0.01457 0.8083 0.0
H1293 H 0.51992 0.99674 0.81606 0.0
H1294 H 0.57117 0.01482 0.84248 0.0
H1295 H 0.59538 0.00984 0.82033 0.0
H1296 H 0.315 0.27949 0.33165 0.0
H1297 H 0.31828 0.26585 0.36029 0.0
H1298 H 0.2939 0.31566 0.3867 0.0
H1299 H 0.29105 0.32978 0.35822 0.0
H1300 H 0.3396 0.28718 0.39541 0.0
H1301 H 0.25839 0.26259 0.39703 0.0
H1302 H 0.26951 0.26702 0.37641 0.0
H1303 H 0.26604 0.28768 0.39238 0.0
C1304 C 0.31056 0.2877 0.34357 0.0
C1305 C 0.30273 0.30573 0.34262 0.0
C1306 C 0.31237 0.27983 0.35989 0.0
C1307 C 0.30624 0.28973 0.3755 0.0
C1308 C 0.29854 0.30775 0.37471 0.0
H1309 H 0.29182 0.24712 0.47945 0.0
H1310 H 0.29357 0.26842 0.45536 0.0
C1311 C 0.29681 0.31571 0.35841 0.0
C1312 C 0.30763 0.28095 0.39256 0.0
H1313 H 0.27949 0.25646 0.42123 0.0
C1314 C 0.3265 0.28054 0.40116 0.0
C1315 C 0.29047 0.27245 0.39998 0.0
C1316 C 0.26991 0.27228 0.391 0.0
C1317 C 0.32867 0.27171 0.41706 0.0
C1318 C 0.31151 0.26265 0.42422 0.0
C1319 C 0.29263 0.26344 0.41575 0.0
C1320 C 0.3127 0.25134 0.43991 0.0
C1321 C 0.34927 0.27235 0.42608 0.0
C1322 C 0.32314 0.23484 0.43938 0.0
C1323 C 0.32233 0.22274 0.45321 0.0
C1324 C 0.31076 0.22671 0.46769 0.0
C1325 C 0.30083 0.24361 0.46847 0.0
C1326 C 0.30179 0.2558 0.45471 0.0
H1327 H 0.3596 0.28513 0.42262 0.0
H1328 H 0.34909 0.27352 0.44093 0.0
H1329 H 0.35527 0.25846 0.42136 0.0
H1330 H 0.33125 0.2308 0.4279 0.0
H1331 H 0.33004 0.20976 0.45211 0.0
H1332 H 0.54017 0.48431 0.93537 0.0
H1333 H 0.51529 0.49627 0.91561 0.0
H1334 H 0.55569 0.49718 0.87374 0.0
H1335 H 0.5805 0.4851 0.89332 0.0
H1336 H 0.52264 0.5335 0.89995 0.0
H1337 H 0.50192 0.4675 0.84846 0.0
H1338 H 0.51341 0.46584 0.87054 0.0
H1339 H 0.52823 0.47492 0.85349 0.0
C1340 C 0.54355 0.48666 0.92181 0.0
C1341 C 0.56223 0.48376 0.91584 0.0
C1342 C 0.5294 0.4936 0.91061 0.0
C1343 C 0.53364 0.49745 0.89321 0.0
C1344 C 0.55207 0.49405 0.88706 0.0
H1345 H 0.48084 0.54483 0.80345 0.0
H1346 H 0.50208 0.53153 0.82528 0.0
C1347 C 0.56624 0.48726 0.89827 0.0
C1348 C 0.51941 0.50624 0.88181 0.0
H1349 H 0.49173 0.498 0.84144 0.0
C1350 C 0.51567 0.52571 0.88724 0.0
C1351 C 0.51048 0.49601 0.86525 0.0
C1352 C 0.51353 0.47484 0.8591 0.0
C1353 C 0.50377 0.53554 0.87618 0.0
C1354 C 0.49508 0.52542 0.85945 0.0
C1355 C 0.49849 0.50577 0.85424 0.0
C1356 C 0.48279 0.53501 0.84686 0.0
C1357 C 0.50122 0.5569 0.88219 0.0
C1358 C 0.465 0.54163 0.85183 0.0
C1359 C 0.45288 0.54944 0.8394 0.0
C1360 C 0.45822 0.55048 0.82172 0.0
C1361 C 0.47626 0.54421 0.81693 0.0
C1362 C 0.4884 0.53655 0.82938 0.0
H1363 H 0.51281 0.56402 0.89294 0.0
H1364 H 0.50185 0.56589 0.87074 0.0
H1365 H 0.48649 0.55726 0.88763 0.0
H1366 H 0.4602 0.54023 0.86514 0.0
H1367 H 0.439 0.55398 0.84347 0.0
H1368 H 0.75264 0.82456 0.17066 0.0
H1369 H 0.75725 0.80457 0.14275 0.0
H1370 H 0.74704 0.75099 0.16833 0.0
H1371 H 0.74417 0.77106 0.19687 0.0
H1372 H 0.77664 0.74878 0.14852 0.0
H1373 H 0.71613 0.77317 0.10744 0.0
H1374 H 0.73364 0.79421 0.11713 0.0
H1375 H 0.71945 0.77938 0.13152 0.0
C1376 C 0.75161 0.80855 0.17051 0.0
C1377 C 0.74809 0.7995 0.18617 0.0
C1378 C 0.75388 0.79708 0.15437 0.0
C1379 C 0.75202 0.77621 0.15327 0.0
C1380 C 0.74837 0.76706 0.16879 0.0
H1381 H 0.74067 0.7063 0.04792 0.0
H1382 H 0.73503 0.72132 0.07789 0.0
C1383 C 0.74649 0.77858 0.18508 0.0
C1384 C 0.7546 0.76407 0.13607 0.0
H1385 H 0.74029 0.75756 0.09116 0.0
C1386 C 0.76851 0.75051 0.136 0.0
C1387 C 0.74375 0.76601 0.11976 0.0
C1388 C 0.72726 0.77882 0.119 0.0
C1389 C 0.77221 0.73923 0.12003 0.0
C1390 C 0.76233 0.74219 0.10354 0.0
C1391 C 0.74811 0.75543 0.10371 0.0
C1392 C 0.76619 0.73166 0.08593 0.0
C1393 C 0.78637 0.72401 0.12115 0.0
C1394 C 0.78561 0.73224 0.08043 0.0
C1395 C 0.78889 0.72315 0.06341 0.0
C1396 C 0.77276 0.71394 0.05141 0.0
C1397 C 0.75338 0.71341 0.05689 0.0
C1398 C 0.75015 0.72201 0.07401 0.0
H1399 H 0.78711 0.7188 0.13465 0.0
H1400 H 0.78191 0.71084 0.11088 0.0
H1401 H 0.80155 0.73094 0.11892 0.0
H1402 H 0.7982 0.74012 0.08908 0.0
H1403 H 0.80396 0.72393 0.05942 0.0
H1404 H 0.03574 0.11124 0.10811 0.0
H1405 H 0.01424 0.11034 0.13289 0.0
H1406 H 0.06604 0.12124 0.171 0.0
H1407 H 0.08754 0.12108 0.14609 0.0
H1408 H 0.04341 0.0911 0.1782 0.0
H1409 H 0.99498 0.14861 0.16901 0.0
H1410 H 0.99381 0.13199 0.14859 0.0
H1411 H 0.01703 0.14713 0.1571 0.0
C1412 C 0.04247 0.11394 0.12181 0.0
C1413 C 0.06323 0.11624 0.12527 0.0
C1414 C 0.03018 0.11359 0.13599 0.0
C1415 C 0.03845 0.11605 0.15391 0.0
C1416 C 0.05928 0.11937 0.15733 0.0
H1417 H 0.95898 0.10547 0.24184 0.0
H1418 H 0.98241 0.11995 0.22172 0.0
C1419 C 0.07155 0.1193 0.14314 0.0
C1420 C 0.02554 0.11237 0.16875 0.0
H1421 H 0.98153 0.12151 0.18523 0.0
C1422 C 0.0301 0.09809 0.17991 0.0
C1423 C 0.00829 0.12164 0.17131 0.0
C1424 C 0.0034 0.13835 0.16097 0.0
C1425 C 0.01744 0.09209 0.19283 0.0
C1426 C 0.99929 0.09999 0.19422 0.0
C1427 C 0.99523 0.11511 0.18386 0.0
C1428 C 0.98402 0.09184 0.20564 0.0
C1429 C 0.0236 0.07714 0.20474 0.0
C1430 C 0.97665 0.07143 0.20285 0.0
C1431 C 0.96354 0.06315 0.21436 0.0
C1432 C 0.95719 0.07518 0.2287 0.0
C1433 C 0.96368 0.09584 0.23092 0.0
C1434 C 0.97705 0.10411 0.21946 0.0
H1435 H 0.04005 0.07787 0.20634 0.0
H1436 H 0.01808 0.07966 0.21829 0.0
H1437 H 0.01736 0.06186 0.19849 0.0
H1438 H 0.98133 0.06178 0.19193 0.0
H1439 H 0.95858 0.04724 0.21213 0.0
H1440 H 0.27475 0.76794 0.18095 0.0
H1441 H 0.26956 0.79161 0.15961 0.0
H1442 H 0.29095 0.84061 0.20081 0.0
H1443 H 0.29687 0.81683 0.22214 0.0
H1444 H 0.24647 0.82069 0.15924 0.0
H1445 H 0.32597 0.85334 0.16137 0.0
H1446 H 0.31806 0.83122 0.17153 0.0
H1447 H 0.31554 0.85544 0.18272 0.0
C1448 C 0.27834 0.78375 0.1855 0.0
C1449 C 0.28632 0.7906 0.20318 0.0
C1450 C 0.27532 0.79727 0.17328 0.0
C1451 C 0.28013 0.81788 0.17852 0.0
C1452 C 0.28757 0.82477 0.19634 0.0
H1453 H 0.24436 0.89781 0.10093 0.0
H1454 H 0.24739 0.88243 0.12882 0.0
C1455 C 0.29083 0.81121 0.20853 0.0
C1456 C 0.27758 0.83193 0.16509 0.0
H1457 H 0.30319 0.86666 0.14278 0.0
C1458 C 0.25883 0.83085 0.1557 0.0
C1459 C 0.29377 0.84509 0.16045 0.0
C1460 C 0.31451 0.84628 0.16941 0.0
C1461 C 0.25595 0.84205 0.14139 0.0
C1462 C 0.27217 0.85512 0.13669 0.0
C1463 C 0.29075 0.85672 0.1465 0.0
C1464 C 0.27083 0.86562 0.12048 0.0
C1465 C 0.23585 0.83897 0.13089 0.0
C1466 C 0.28347 0.86187 0.10685 0.0
C1467 C 0.282 0.87085 0.09112 0.0
C1468 C 0.26776 0.88372 0.08861 0.0
C1469 C 0.25535 0.88783 0.10242 0.0
C1470 C 0.25699 0.87896 0.1183 0.0
H1471 H 0.22645 0.82523 0.13368 0.0
H1472 H 0.22791 0.85185 0.13471 0.0
H1473 H 0.23745 0.83794 0.11621 0.0
H1474 H 0.29427 0.85165 0.10822 0.0
H1475 H 0.29179 0.86735 0.08077 0.0
H1476 H 0.97485 0.50484 0.08737 0.0
H1477 H 0.99884 0.49995 0.11162 0.0
H1478 H 0.96651 0.44194 0.11532 0.0
H1479 H 0.94215 0.44687 0.09118 0.0
H1480 H 0.97664 0.46608 0.14868 0.0
H1481 H 0.04206 0.46267 0.10895 0.0
H1482 H 0.02965 0.48385 0.10569 0.0
H1483 H 0.01684 0.45908 0.09869 0.0
C1484 C 0.97274 0.4911 0.09343 0.0
C1485 C 0.95661 0.47625 0.08741 0.0
C1486 C 0.98661 0.48822 0.1071 0.0
C1487 C 0.98465 0.47041 0.11496 0.0
C1488 C 0.96839 0.45567 0.10922 0.0
H1489 H 0.07994 0.46012 0.19853 0.0
H1490 H 0.05519 0.44913 0.17267 0.0
C1491 C 0.95453 0.4585 0.09546 0.0
C1492 C 0.99912 0.46788 0.12982 0.0
H1493 H 0.049 0.47125 0.14108 0.0
C1494 C 0.99241 0.46675 0.14697 0.0
C1495 C 0.01964 0.46839 0.12749 0.0
C1496 C 0.02748 0.46835 0.10917 0.0
C1497 C 0.00591 0.46776 0.16211 0.0
C1498 C 0.02654 0.47009 0.15996 0.0
C1499 C 0.03315 0.46961 0.14266 0.0
C1500 C 0.04132 0.47603 0.17557 0.0
C1501 C 0.99808 0.46724 0.18039 0.0
C1502 C 0.04184 0.49484 0.1854 0.0
C1503 C 0.05593 0.50118 0.19989 0.0
C1504 C 0.06981 0.48881 0.20491 0.0
C1505 C 0.06939 0.46994 0.19499 0.0
C1506 C 0.05529 0.46364 0.18028 0.0
H1507 H 0.98246 0.45973 0.17938 0.0
H1508 H 0.00743 0.45942 0.18916 0.0
H1509 H 0.99839 0.48275 0.18691 0.0
H1510 H 0.03139 0.50473 0.18176 0.0
H1511 H 0.05581 0.5158 0.20723 0.0
H1512 H 0.33762 0.69836 0.24033 0.0
H1513 H 0.36916 0.70031 0.25862 0.0
H1514 H 0.36365 0.76042 0.28068 0.0
H1515 H 0.33186 0.75844 0.26276 0.0
H1516 H 0.40483 0.72783 0.26026 0.0
H1517 H 0.37008 0.73036 0.32517 0.0
H1518 H 0.35586 0.72287 0.30374 0.0
H1519 H 0.36373 0.74885 0.31135 0.0
C1520 C 0.34309 0.71197 0.24914 0.0
C1521 C 0.33217 0.72819 0.25025 0.0
C1522 C 0.36115 0.71309 0.25947 0.0
C1523 C 0.36854 0.73039 0.27116 0.0
C1524 C 0.35801 0.74683 0.27192 0.0
H1525 H 0.4827 0.77199 0.32724 0.0
H1526 H 0.454 0.76379 0.30517 0.0
C1527 C 0.33996 0.74574 0.26156 0.0
C1528 C 0.38709 0.73113 0.28283 0.0
H1529 H 0.40536 0.73684 0.32679 0.0
C1530 C 0.40498 0.72968 0.27481 0.0
C1531 C 0.38711 0.73316 0.30177 0.0
C1532 C 0.36816 0.73371 0.31107 0.0
C1533 C 0.42308 0.73091 0.2853 0.0
C1534 C 0.42322 0.73386 0.30426 0.0
C1535 C 0.40522 0.73466 0.31224 0.0
C1536 C 0.44189 0.73721 0.31617 0.0
C1537 C 0.44186 0.72899 0.27603 0.0
C1538 C 0.44466 0.72493 0.32967 0.0
C1539 C 0.46103 0.72964 0.34242 0.0
C1540 C 0.47482 0.74683 0.34198 0.0
C1541 C 0.47239 0.75863 0.32799 0.0
C1542 C 0.45604 0.7539 0.31526 0.0
H1543 H 0.43856 0.72097 0.26221 0.0
H1544 H 0.44965 0.74411 0.27495 0.0
H1545 H 0.45207 0.72099 0.28376 0.0
H1546 H 0.43384 0.71203 0.33064 0.0
H1547 H 0.46244 0.72024 0.35302 0.0
H1548 H 0.93627 0.43967 0.99847 0.0
H1549 H 0.95159 0.41734 0.97745 0.0
H1550 H 0.93611 0.36889 0.00852 0.0
H1551 H 0.92114 0.39132 0.02984 0.0
H1552 H 0.97524 0.37306 0.0012 0.0
H1553 H 0.92662 0.37292 0.93879 0.0
H1554 H 0.937 0.39741 0.94924 0.0
H1555 H 0.91982 0.382 0.96073 0.0
C1556 C 0.93587 0.4242 0.00068 0.0
C1557 C 0.92748 0.41715 0.01575 0.0
C1558 C 0.94455 0.41143 0.98861 0.0
C1559 C 0.94477 0.3914 0.9913 0.0
C1560 C 0.93603 0.38428 0.00616 0.0
H1561 H 0.99042 0.28972 0.9384 0.0
H1562 H 0.97539 0.31314 0.95856 0.0
C1563 C 0.92745 0.39706 0.01828 0.0
C1564 C 0.95516 0.37816 0.9793 0.0
H1565 H 0.95615 0.35805 0.93566 0.0
C1566 C 0.97101 0.3697 0.98688 0.0
C1567 C 0.94966 0.3739 0.96062 0.0
C1568 C 0.93223 0.38187 0.95186 0.0
C1569 C 0.98161 0.35718 0.97625 0.0
C1570 C 0.97609 0.35292 0.95761 0.0
C1571 C 0.96037 0.36147 0.94997 0.0
C1572 C 0.98601 0.33902 0.94589 0.0
C1573 C 0.99877 0.34879 0.98499 0.0
C1574 C 0.99686 0.34586 0.93204 0.0
C1575 C 0.00553 0.33253 0.92049 0.0
C1576 C 0.00325 0.31209 0.92248 0.0
C1577 C 0.99249 0.30536 0.9365 0.0
C1578 C 0.98395 0.31872 0.94809 0.0
H1579 H 0.004 0.35707 0.99843 0.0
H1580 H 0.99393 0.33298 0.98675 0.0
H1581 H 0.01145 0.34922 0.9764 0.0
H1582 H 0.99852 0.3615 0.93012 0.0
H1583 H 0.01364 0.33818 0.90978 0.0
H1584 H 0.72647 0.82038 0.30045 0.0
H1585 H 0.70027 0.8143 0.32083 0.0
H1586 H 0.65746 0.7946 0.2752 0.0
H1587 H 0.68367 0.80012 0.25484 0.0
H1588 H 0.66753 0.83166 0.3241 0.0
H1589 H 0.64551 0.75042 0.30589 0.0
H1590 H 0.66799 0.76353 0.29901 0.0
H1591 H 0.64441 0.76367 0.28662 0.0
C1592 C 0.71149 0.81451 0.29481 0.0
C1593 C 0.70712 0.81058 0.27611 0.0
C1594 C 0.69656 0.81107 0.30644 0.0
C1595 C 0.67696 0.80366 0.29956 0.0
C1596 C 0.67257 0.79979 0.28084 0.0
H1597 H 0.56765 0.81758 0.34612 0.0
H1598 H 0.59868 0.82095 0.3316 0.0
C1599 C 0.68754 0.80308 0.26921 0.0
C1600 C 0.66092 0.8011 0.3119 0.0
H1601 H 0.62242 0.76793 0.32199 0.0
C1602 C 0.65781 0.81765 0.32379 0.0
C1603 C 0.64846 0.78274 0.31176 0.0
C1604 C 0.65188 0.76403 0.30027 0.0
C1605 C 0.6421 0.81657 0.33499 0.0
C1606 C 0.62884 0.79858 0.33395 0.0
C1607 C 0.63244 0.78179 0.32263 0.0
C1608 C 0.61056 0.79716 0.34372 0.0
C1609 C 0.63987 0.83473 0.3478 0.0
C1610 C 0.6067 0.78239 0.35514 0.0
C1611 C 0.58879 0.78027 0.36335 0.0
C1612 C 0.57441 0.79283 0.3602 0.0
C1613 C 0.57846 0.80776 0.34896 0.0
C1614 C 0.59628 0.8098 0.34072 0.0
H1615 H 0.65436 0.84445 0.35133 0.0
H1616 H 0.62955 0.84361 0.34127 0.0
H1617 H 0.63376 0.83049 0.36039 0.0
H1618 H 0.61746 0.77239 0.35755 0.0
H1619 H 0.58607 0.76858 0.37189 0.0
H1620 H 0.11788 0.13453 0.02264 0.0
H1621 H 0.11059 0.15146 0.99628 0.0
H1622 H 0.06016 0.17214 0.02059 0.0
H1623 H 0.06731 0.1553 0.04689 0.0
H1624 H 0.07395 0.14513 0.97335 0.0
H1625 H 0.09266 0.2232 0.00612 0.0
H1626 H 0.10117 0.20232 0.0157 0.0
H1627 H 0.07613 0.20745 0.01789 0.0
C1628 C 0.1053 0.14278 0.02236 0.0
C1629 C 0.0932 0.14364 0.0368 0.0
C1630 C 0.10115 0.1524 0.00732 0.0
C1631 C 0.08499 0.16322 0.00661 0.0
C1632 C 0.07289 0.16411 0.02103 0.0
H1633 H 0.01387 0.2021 0.92392 0.0
H1634 H 0.02949 0.18398 0.94594 0.0
C1635 C 0.07695 0.1544 0.036 0.0
C1636 C 0.0803 0.17308 0.99058 0.0
H1637 H 0.07455 0.21841 0.97728 0.0
C1638 C 0.07429 0.16117 0.97413 0.0
C1639 C 0.08104 0.19401 0.99159 0.0
C1640 C 0.08827 0.20756 0.00872 0.0
C1641 C 0.0681 0.1696 0.95885 0.0
C1642 C 0.06781 0.19042 0.96014 0.0
C1643 C 0.0747 0.20242 0.97636 0.0
C1644 C 0.05905 0.19993 0.94529 0.0
C1645 C 0.06169 0.15615 0.94151 0.0
C1646 C 0.07051 0.21489 0.93757 0.0
C1647 C 0.06161 0.22529 0.9249 0.0
C1648 C 0.04104 0.22107 0.91999 0.0
C1649 C 0.02975 0.20569 0.9274 0.0
C1650 C 0.03867 0.19523 0.93992 0.0
H1651 H 0.06799 0.14187 0.94126 0.0
H1652 H 0.04522 0.15258 0.94015 0.0
H1653 H 0.06631 0.16357 0.92974 0.0
H1654 H 0.08625 0.21881 0.94165 0.0
H1655 H 0.07069 0.23713 0.91951 0.0
H1656 H 0.34333 0.30417 0.25565 0.0
H1657 H 0.36823 0.29917 0.23415 0.0
H1658 H 0.41456 0.32861 0.27399 0.0
H1659 H 0.38974 0.33283 0.29578 0.0
H1660 H 0.39253 0.32482 0.21981 0.0
H1661 H 0.43766 0.27926 0.2581 0.0
H1662 H 0.41378 0.28495 0.2646 0.0
H1663 H 0.4358 0.30286 0.27064 0.0
C1664 C 0.35884 0.30948 0.25983 0.0
C1665 C 0.36469 0.31884 0.27736 0.0
C1666 C 0.37305 0.30662 0.24755 0.0
C1667 C 0.39332 0.31319 0.25254 0.0
C1668 C 0.3991 0.32288 0.26998 0.0
H1669 H 0.48076 0.33019 0.17392 0.0
H1670 H 0.45728 0.33497 0.19678 0.0
C1671 C 0.38492 0.32544 0.28236 0.0
C1672 C 0.40827 0.31042 0.2393 0.0
H1673 H 0.45186 0.29187 0.2328 0.0
C1674 C 0.40545 0.31751 0.22261 0.0
C1675 C 0.42497 0.30061 0.24286 0.0
C1676 C 0.42814 0.2913 0.25994 0.0
C1677 C 0.41892 0.31523 0.20943 0.0
C1678 C 0.4361 0.30626 0.2133 0.0
C1679 C 0.43883 0.299 0.22993 0.0
C1680 C 0.45111 0.30365 0.20008 0.0
C1681 C 0.41425 0.32196 0.19133 0.0
C1682 C 0.45619 0.28461 0.19497 0.0
C1683 C 0.46997 0.28192 0.18225 0.0
C1684 C 0.47879 0.2982 0.17427 0.0
C1685 C 0.47401 0.31732 0.17967 0.0
C1686 C 0.46047 0.32005 0.19263 0.0
H1687 H 0.39809 0.3227 0.18876 0.0
H1688 H 0.42231 0.33715 0.19102 0.0
H1689 H 0.41891 0.31179 0.18027 0.0
H1690 H 0.44924 0.27175 0.20061 0.0
H1691 H 0.47333 0.26699 0.17836 0.0
H1692 H 0.56199 0.4315 0.9874 0.0
H1693 H 0.55333 0.41508 0.01366 0.0
H1694 H 0.61329 0.40143 0.02116 0.0
H1695 H 0.62216 0.41814 0.99496 0.0
H1696 H 0.5554 0.37555 0.01851 0.0
H1697 H 0.60356 0.42716 0.07132 0.0
H1698 H 0.59804 0.43362 0.04904 0.0
H1699 H 0.61613 0.4172 0.05277 0.0
C1700 C 0.57336 0.42505 0.99464 0.0
C1701 C 0.59278 0.42607 0.98917 0.0
C1702 C 0.56839 0.41571 0.00966 0.0
C1703 C 0.58275 0.40733 0.01951 0.0
C1704 C 0.60211 0.40819 0.01398 0.0
H1705 H 0.56676 0.33276 0.10617 0.0
H1706 H 0.58202 0.35277 0.08422 0.0
C1707 C 0.6071 0.41756 0.99895 0.0
C1708 C 0.57708 0.39697 0.03508 0.0
H1709 H 0.58576 0.39829 0.0806 0.0
C1710 C 0.56205 0.38052 0.03207 0.0
C1711 C 0.58588 0.40345 0.05274 0.0
C1712 C 0.60169 0.42142 0.05677 0.0
C1713 C 0.55546 0.37043 0.04627 0.0
C1714 C 0.56397 0.37712 0.06395 0.0
C1715 C 0.5793 0.39329 0.06699 0.0
C1716 C 0.55639 0.36775 0.07938 0.0
C1717 C 0.53935 0.35269 0.0423 0.0
C1718 C 0.53731 0.37027 0.08439 0.0
C1719 C 0.52859 0.35893 0.09685 0.0
C1720 C 0.53881 0.34489 0.10454 0.0
C1721 C 0.55851 0.34345 0.10047 0.0
C1722 C 0.56724 0.35483 0.08794 0.0
H1723 H 0.53721 0.34703 0.02774 0.0
H1724 H 0.54293 0.34038 0.04992 0.0
H1725 H 0.52508 0.35712 0.04657 0.0
H1726 H 0.52882 0.38033 0.078 0.0
H1727 H 0.51345 0.36051 0.0998 0.0
H1728 H 0.70145 0.28481 0.27058 0.0
H1729 H 0.67338 0.28861 0.24976 0.0
H1730 H 0.68823 0.24092 0.21242 0.0
H1731 H 0.7166 0.23722 0.23313 0.0
H1732 H 0.67794 0.2738 0.19593 0.0
H1733 H 0.62225 0.24841 0.24224 0.0
H1734 H 0.64033 0.26911 0.25189 0.0
H1735 H 0.64814 0.24528 0.24545 0.0
C1736 C 0.6988 0.27517 0.25792 0.0
C1737 C 0.71107 0.26054 0.25352 0.0
C1738 C 0.68272 0.27734 0.24607 0.0
C1739 C 0.67855 0.26482 0.22971 0.0
C1740 C 0.69117 0.25067 0.22503 0.0
H1741 H 0.56587 0.23909 0.1664 0.0
H1742 H 0.5973 0.23793 0.18366 0.0
C1743 C 0.7073 0.24853 0.23686 0.0
C1744 C 0.66066 0.26605 0.21774 0.0
H1745 H 0.60996 0.26036 0.21592 0.0
C1746 C 0.66306 0.27087 0.20025 0.0
C1747 C 0.64129 0.26196 0.22339 0.0
C1748 C 0.63775 0.25572 0.2417 0.0
C1749 C 0.64653 0.27187 0.18828 0.0
C1750 C 0.62718 0.2682 0.19409 0.0
C1751 C 0.62483 0.26329 0.21154 0.0
C1752 C 0.60901 0.26874 0.18221 0.0
C1753 C 0.64989 0.27638 0.16943 0.0
C1754 C 0.60525 0.28643 0.1755 0.0
C1755 C 0.58727 0.28713 0.16551 0.0
C1756 C 0.57271 0.27019 0.16226 0.0
C1757 C 0.57674 0.25242 0.1687 0.0
C1758 C 0.5947 0.25172 0.17858 0.0
H1759 H 0.66502 0.27394 0.16576 0.0
H1760 H 0.63872 0.26698 0.15949 0.0
H1761 H 0.64832 0.29225 0.16847 0.0
H1762 H 0.61594 0.29985 0.17843 0.0
H1763 H 0.58456 0.30106 0.16081 0.0
H1764 H 0.41064 0.13934 0.9711 0.0
H1765 H 0.42001 0.16961 0.99242 0.0
H1766 H 0.48177 0.16129 0.99165 0.0
H1767 H 0.47253 0.13109 0.97039 0.0
H1768 H 0.43784 0.16824 0.02578 0.0
H1769 H 0.48463 0.22115 0.99009 0.0
H1770 H 0.46829 0.19989 0.97842 0.0
H1771 H 0.49236 0.19685 0.98834 0.0
C1772 C 0.42625 0.1442 0.97522 0.0
C1773 C 0.44085 0.13282 0.96915 0.0
C1774 C 0.43158 0.16151 0.98733 0.0
C1775 C 0.45159 0.16778 0.99348 0.0
C1776 C 0.46628 0.15699 0.98675 0.0
H1777 H 0.5039 0.22413 0.09577 0.0
H1778 H 0.49068 0.2021 0.06848 0.0
C1779 C 0.46098 0.1397 0.97462 0.0
C1780 C 0.45687 0.18389 0.00864 0.0
H1781 H 0.48803 0.22718 0.02246 0.0
C1782 C 0.44858 0.18128 0.02497 0.0
C1783 C 0.47078 0.20095 0.00752 0.0
C1784 C 0.47939 0.20501 0.99009 0.0
C1785 C 0.45448 0.19484 0.04044 0.0
C1786 C 0.46924 0.21125 0.03958 0.0
C1787 C 0.47689 0.2144 0.02308 0.0
C1788 C 0.47744 0.22481 0.05588 0.0
C1789 C 0.44506 0.19136 0.05765 0.0
C1790 C 0.47466 0.24494 0.05762 0.0
C1791 C 0.48218 0.2576 0.07321 0.0
C1792 C 0.49276 0.25033 0.08724 0.0
C1793 C 0.49574 0.23019 0.08528 0.0
C1794 C 0.48816 0.21756 0.06973 0.0
H1795 H 0.43064 0.18135 0.05503 0.0
H1796 H 0.45518 0.1842 0.06628 0.0
H1797 H 0.44253 0.20567 0.06521 0.0
H1798 H 0.46649 0.25078 0.04699 0.0
H1799 H 0.47972 0.27306 0.07425 0.0
H1800 H 0.25565 0.37679 0.74679 0.0
H1801 H 0.27263 0.41119 0.75161 0.0
H1802 H 0.32435 0.39175 0.72877 0.0
H1803 H 0.30786 0.3573 0.72443 0.0
H1804 H 0.31226 0.42421 0.7722 0.0
H1805 H 0.30981 0.43934 0.70096 0.0
H1806 H 0.29275 0.42015 0.70875 0.0
H1807 H 0.31783 0.41606 0.70528 0.0
C1808 C 0.2707 0.37979 0.74293 0.0
C1809 C 0.28037 0.36426 0.73518 0.0
C1810 C 0.28029 0.39946 0.74556 0.0
C1811 C 0.29957 0.40395 0.74028 0.0
C1812 C 0.30929 0.38857 0.73259 0.0
H1813 H 0.39275 0.50168 0.74483 0.0
H1814 H 0.36901 0.47122 0.73757 0.0
C1815 C 0.29982 0.36891 0.7301 0.0
C1816 C 0.31006 0.42458 0.74355 0.0
H1817 H 0.33082 0.46276 0.72214 0.0
C1818 C 0.31613 0.43281 0.76132 0.0
C1819 C 0.3151 0.43556 0.72926 0.0
C1820 C 0.30844 0.42746 0.70996 0.0
C1821 C 0.32791 0.45151 0.76518 0.0
C1822 C 0.33324 0.46244 0.75086 0.0
C1823 C 0.32669 0.45437 0.73309 0.0
C1824 C 0.34663 0.4817 0.754 0.0
C1825 C 0.33531 0.4589 0.78449 0.0
C1826 C 0.34163 0.49795 0.76516 0.0
C1827 C 0.35526 0.51532 0.7695 0.0
C1828 C 0.37401 0.51685 0.76251 0.0
C1829 C 0.37848 0.50098 0.75049 0.0
C1830 C 0.36492 0.48355 0.74631 0.0
H1831 H 0.33402 0.44668 0.79315 0.0
H1832 H 0.3511 0.46587 0.78553 0.0
H1833 H 0.32627 0.4703 0.78987 0.0
H1834 H 0.32737 0.49703 0.77085 0.0
H1835 H 0.35126 0.52738 0.77862 0.0
H1836 H 0.2997 0.7537 0.79287 0.0
H1837 H 0.32204 0.72836 0.78862 0.0
H1838 H 0.29936 0.7012 0.83361 0.0
H1839 H 0.2766 0.726 0.8376 0.0
H1840 H 0.35193 0.71833 0.81281 0.0
H1841 H 0.29183 0.6549 0.79266 0.0
H1842 H 0.28767 0.68059 0.79315 0.0
H1843 H 0.28872 0.66923 0.81361 0.0
C1844 C 0.29936 0.74222 0.80175 0.0
C1845 C 0.28628 0.74178 0.8155 0.0
C1846 C 0.31222 0.72786 0.79938 0.0
C1847 C 0.31213 0.71277 0.81063 0.0
C1848 C 0.29942 0.71255 0.8246 0.0
H1849 H 0.37029 0.61119 0.82517 0.0
H1850 H 0.352 0.63976 0.8274 0.0
C1851 C 0.28657 0.72686 0.82697 0.0
C1852 C 0.3252 0.69712 0.80779 0.0
H1853 H 0.32421 0.64669 0.79957 0.0
C1854 C 0.34592 0.70267 0.80975 0.0
C1855 C 0.31727 0.67674 0.80368 0.0
C1856 C 0.29515 0.66998 0.80047 0.0
C1857 C 0.35895 0.68824 0.80841 0.0
C1858 C 0.35096 0.66784 0.80483 0.0
C1859 C 0.33026 0.66236 0.80243 0.0
C1860 C 0.36367 0.65174 0.80418 0.0
C1861 C 0.38108 0.69483 0.81142 0.0
C1862 C 0.37649 0.64915 0.79047 0.0
C1863 C 0.38703 0.63276 0.78913 0.0
C1864 C 0.38479 0.6187 0.80145 0.0
C1865 C 0.37234 0.6217 0.81543 0.0
C1866 C 0.36185 0.63802 0.81674 0.0
H1867 H 0.38467 0.7107 0.81736 0.0
H1868 H 0.38811 0.68541 0.82044 0.0
H1869 H 0.38777 0.6931 0.79836 0.0
H1870 H 0.37786 0.65943 0.78048 0.0
H1871 H 0.39645 0.63081 0.77818 0.0
H1872 H 0.92727 0.5354 0.46059 0.0
H1873 H 0.90167 0.51163 0.471 0.0
H1874 H 0.8703 0.56001 0.48982 0.0
H1875 H 0.89561 0.58385 0.47923 0.0
H1876 H 0.87676 0.53227 0.51527 0.0
H1877 H 0.84346 0.49519 0.44823 0.0
H1878 H 0.87006 0.49684 0.45197 0.0
H1879 H 0.85885 0.51921 0.45117 0.0
C1880 C 0.91476 0.54094 0.4667 0.0
C1881 C 0.91342 0.56149 0.46906 0.0
C1882 C 0.90021 0.52736 0.47268 0.0
C1883 C 0.8841 0.53411 0.48105 0.0
C1884 C 0.88268 0.55457 0.48341 0.0
H1885 H 0.77335 0.4687 0.50315 0.0
H1886 H 0.79983 0.49242 0.49422 0.0
C1887 C 0.89717 0.56814 0.4774 0.0
C1888 C 0.86881 0.51991 0.48766 0.0
H1889 H 0.83153 0.48164 0.47371 0.0
C1890 C 0.86686 0.52117 0.50622 0.0
C1891 C 0.85589 0.50561 0.47575 0.0
C1892 C 0.85698 0.50413 0.45564 0.0
C1893 C 0.8523 0.50837 0.51323 0.0
C1894 C 0.83953 0.49391 0.50134 0.0
C1895 C 0.84145 0.4927 0.48277 0.0
C1896 C 0.82366 0.48021 0.50778 0.0
C1897 C 0.85038 0.51065 0.53324 0.0
C1898 C 0.82835 0.4656 0.51846 0.0
C1899 C 0.81324 0.45197 0.52361 0.0
C1900 C 0.7932 0.45273 0.51809 0.0
C1901 C 0.7886 0.46767 0.50765 0.0
C1902 C 0.8037 0.48123 0.50249 0.0
H1903 H 0.85853 0.52502 0.54005 0.0
H1904 H 0.8345 0.50975 0.5361 0.0
H1905 H 0.85664 0.49833 0.53912 0.0
H1906 H 0.84372 0.46444 0.52246 0.0
H1907 H 0.8173 0.44061 0.5316 0.0
H1908 H 0.75293 0.83276 0.76707 0.0
H1909 H 0.72963 0.85612 0.76043 0.0
H1910 H 0.74118 0.8856 0.81474 0.0
H1911 H 0.76469 0.86264 0.8214 0.0
H1912 H 0.69448 0.86567 0.7792 0.0
H1913 H 0.75425 0.92991 0.78132 0.0
H1914 H 0.75906 0.90432 0.77865 0.0
H1915 H 0.75532 0.91637 0.80047 0.0
C1916 C 0.7505 0.84425 0.77758 0.0
C1917 C 0.76071 0.84593 0.79474 0.0
C1918 C 0.73713 0.85747 0.77379 0.0
C1919 C 0.73391 0.87266 0.78705 0.0
C1920 C 0.74365 0.87406 0.8043 0.0
H1921 H 0.67185 0.97248 0.80346 0.0
H1922 H 0.69125 0.94493 0.80453 0.0
C1923 C 0.75695 0.86084 0.80811 0.0
C1924 C 0.72078 0.88748 0.78288 0.0
H1925 H 0.72107 0.93735 0.7814 0.0
C1926 C 0.70023 0.88132 0.77946 0.0
C1927 C 0.72845 0.90781 0.78312 0.0
C1928 C 0.7505 0.91504 0.78592 0.0
C1929 C 0.687 0.89523 0.77714 0.0
C1930 C 0.69464 0.91568 0.77805 0.0
C1931 C 0.71526 0.92166 0.78082 0.0
C1932 C 0.68159 0.93138 0.77738 0.0
C1933 C 0.66494 0.88812 0.77452 0.0
C1934 C 0.66959 0.93281 0.76175 0.0
C1935 C 0.65838 0.94861 0.76108 0.0
C1936 C 0.65915 0.96324 0.77601 0.0
C1937 C 0.67095 0.96151 0.7917 0.0
C1938 C 0.68206 0.94577 0.79236 0.0
H1939 H 0.66129 0.87247 0.77738 0.0
H1940 H 0.65676 0.89783 0.78337 0.0
H1941 H 0.65954 0.88891 0.76038 0.0
H1942 H 0.66927 0.922 0.74995 0.0
H1943 H 0.64948 0.94959 0.74879 0.0
H1944 H 0.6315 0.5037 0.97455 0.0
H1945 H 0.66085 0.52907 0.97933 0.0
H1946 H 0.66478 0.52588 0.92201 0.0
H1947 H 0.63536 0.50037 0.91709 0.0
H1948 H 0.70021 0.53002 0.96869 0.0
H1949 H 0.65864 0.58462 0.93789 0.0
H1950 H 0.64638 0.56158 0.94414 0.0
H1951 H 0.65926 0.56144 0.92402 0.0
C1952 C 0.63885 0.50807 0.96297 0.0
C1953 C 0.63107 0.50014 0.94544 0.0
C1954 C 0.65556 0.52262 0.96572 0.0
C1955 C 0.66475 0.52952 0.95101 0.0
C1956 C 0.65764 0.52097 0.93352 0.0
H1957 H 0.77386 0.61593 0.96404 0.0
H1958 H 0.7497 0.58607 0.95455 0.0
C1959 C 0.64088 0.50644 0.93074 0.0
C1960 C 0.68099 0.54648 0.9541 0.0
H1961 H 0.69199 0.59563 0.94862 0.0
C1962 C 0.69854 0.54434 0.96418 0.0
C1963 C 0.67856 0.56515 0.94836 0.0
C1964 C 0.65966 0.5685 0.93813 0.0
C1965 C 0.71369 0.56052 0.96891 0.0
C1966 C 0.71123 0.57919 0.96319 0.0
C1967 C 0.69382 0.58123 0.95287 0.0
C1968 C 0.72594 0.59716 0.96872 0.0
C1969 C 0.73185 0.55773 0.98053 0.0
C1970 C 0.72041 0.61338 0.97951 0.0
C1971 C 0.73409 0.63048 0.98487 0.0
C1972 C 0.75356 0.63169 0.97947 0.0
C1973 C 0.75901 0.61544 0.96849 0.0
C1974 C 0.74527 0.59833 0.96313 0.0
H1975 H 0.72963 0.54364 0.98673 0.0
H1976 H 0.74466 0.55724 0.97216 0.0
H1977 H 0.73574 0.57041 0.9914 0.0
H1978 H 0.70551 0.61275 0.98391 0.0
H1979 H 0.72938 0.6427 0.99329 0.0
H1980 H 0.28747 0.6683 0.22626 0.0
H1981 H 0.26421 0.63832 0.22857 0.0
H1982 H 0.21685 0.67416 0.23573 0.0
H1983 H 0.24016 0.7043 0.23401 0.0
H1984 H 0.21973 0.64807 0.26123 0.0
H1985 H 0.21956 0.60874 0.19232 0.0
H1986 H 0.24396 0.61621 0.20361 0.0
H1987 H 0.22895 0.63489 0.1981 0.0
C1988 C 0.2721 0.66979 0.2283 0.0
C1989 C 0.26565 0.68867 0.22998 0.0
C1990 C 0.25878 0.65263 0.22941 0.0
C1991 C 0.23878 0.65401 0.23208 0.0
C1992 C 0.23223 0.67278 0.23353 0.0
H1993 H 0.14146 0.5573 0.22706 0.0
H1994 H 0.16426 0.5865 0.22187 0.0
C1995 C 0.24552 0.68996 0.23243 0.0
C1996 C 0.22494 0.63604 0.23445 0.0
H1997 H 0.20433 0.59001 0.21389 0.0
C1998 C 0.21629 0.6354 0.25086 0.0
C1999 C 0.22037 0.61964 0.22083 0.0
C2000 C 0.22854 0.6199 0.20265 0.0
C2001 C 0.20338 0.61865 0.25413 0.0
C2002 C 0.19931 0.60198 0.24073 0.0
C2003 C 0.20769 0.60274 0.2242 0.0
C2004 C 0.18601 0.58381 0.2435 0.0
C2005 C 0.19397 0.61904 0.27179 0.0
C2006 C 0.19091 0.57242 0.25717 0.0
C2007 C 0.1779 0.55573 0.26021 0.0
C2008 C 0.1598 0.55009 0.24956 0.0
C2009 C 0.15522 0.56126 0.23556 0.0
C2010 C 0.16824 0.57794 0.23255 0.0
H2011 H 0.19472 0.63449 0.27864 0.0
H2012 H 0.17815 0.61212 0.26977 0.0
H2013 H 0.20202 0.61041 0.28083 0.0
H2014 H 0.20476 0.57652 0.26555 0.0
H2015 H 0.18196 0.54739 0.27103 0.0
H2016 H 0.94402 0.53801 0.06768 0.0
H2017 H 0.93256 0.57024 0.06547 0.0
H2018 H 0.87695 0.54033 0.03844 0.0
H2019 H 0.8877 0.5081 0.04165 0.0
H2020 H 0.92378 0.58716 0.03703 0.0
H2021 H 0.85671 0.57888 0.07428 0.0
H2022 H 0.87491 0.56187 0.07502 0.0
H2023 H 0.85548 0.55834 0.05692 0.0
C2024 C 0.92914 0.53824 0.06166 0.0
C2025 C 0.91675 0.52038 0.05493 0.0
C2026 C 0.92268 0.55672 0.06028 0.0
C2027 C 0.90373 0.55774 0.05212 0.0
C2028 C 0.8914 0.53996 0.04528 0.0
H2029 H 0.86014 0.63848 0.98917 0.0
H2030 H 0.87987 0.61673 0.00378 0.0
C2031 C 0.89774 0.5215 0.04683 0.0
C2032 C 0.89725 0.57731 0.04959 0.0
H2033 H 0.85714 0.60245 0.05228 0.0
C2034 C 0.90937 0.59069 0.04069 0.0
C2035 C 0.87874 0.5823 0.05482 0.0
C2036 C 0.86586 0.56966 0.06598 0.0
C2037 C 0.90281 0.60814 0.0357 0.0
C2038 C 0.88339 0.61199 0.0392 0.0
C2039 C 0.87191 0.5994 0.04929 0.0
C2040 C 0.8738 0.62748 0.03085 0.0
C2041 C 0.9167 0.62208 0.02648 0.0
C2042 C 0.86364 0.64082 0.04114 0.0
C2043 C 0.85194 0.65313 0.03272 0.0
C2044 C 0.85021 0.65226 0.01387 0.0
C2045 C 0.86121 0.63963 0.00372 0.0
C2046 C 0.8727 0.62725 0.0121 0.0
H2047 H 0.93245 0.62179 0.03134 0.0
H2048 H 0.91514 0.61709 0.01181 0.0
H2049 H 0.91343 0.63767 0.02876 0.0
H2050 H 0.86417 0.64119 0.05562 0.0
H2051 H 0.84361 0.66267 0.04091 0.0
H2052 H 0.08749 0.05664 0.10564 0.0
H2053 H 0.10493 0.02745 0.10249 0.0
H2054 H 0.15163 0.06075 0.07761 0.0
H2055 H 0.13483 0.09031 0.08156 0.0
H2056 H 0.11271 0.00714 0.07219 0.0
H2057 H 0.18385 0.03467 0.11253 0.0
H2058 H 0.16247 0.04778 0.11388 0.0
H2059 H 0.17881 0.051 0.0962 0.0
C2060 C 0.10174 0.05795 0.09994 0.0
C2061 C 0.10979 0.0759 0.09393 0.0
C2062 C 0.11161 0.04117 0.09802 0.0
C2063 C 0.12975 0.04197 0.09007 0.0
C2064 C 0.13791 0.05989 0.08419 0.0
H2065 H 0.18059 0.95563 0.0261 0.0
H2066 H 0.16001 0.97877 0.03988 0.0
C2067 C 0.12812 0.07671 0.08621 0.0
C2068 C 0.13933 0.0237 0.08657 0.0
H2069 H 0.18408 0.00627 0.09012 0.0
C2070 C 0.12823 0.00684 0.07638 0.0
C2071 C 0.15945 0.02308 0.09235 0.0
C2072 C 0.17175 0.04004 0.10452 0.0
C2073 C 0.13703 0.98987 0.0709 0.0
C2074 C 0.15758 0.98996 0.07536 0.0
C2075 C 0.16838 0.0063 0.08649 0.0
C2076 C 0.16855 0.97422 0.06724 0.0
C2077 C 0.12426 0.97216 0.06013 0.0
C2078 C 0.18038 0.964 0.07803 0.0
C2079 C 0.19237 0.95078 0.07014 0.0
C2080 C 0.19285 0.94774 0.05134 0.0
C2081 C 0.18052 0.95755 0.04061 0.0
C2082 C 0.1686 0.97071 0.04847 0.0
H2083 H 0.1085 0.97141 0.06341 0.0
H2084 H 0.12461 0.97367 0.0456 0.0
H2085 H 0.12967 0.95794 0.06262 0.0
H2086 H 0.18066 0.96661 0.09255 0.0
H2087 H 0.20178 0.94353 0.07877 0.0
loop_
_geom_bond_atom_site_label_1
_geom_bond_atom_site_label_2
_geom_bond_distance
_geom_bond_site_symmetry_2
_ccdc_geom_bond_type
H0 C5 0.930 . S
H1 C8 0.930 . S
H2 C10 0.930 . S
H3 C4 1.016 . S
C4 H3 1.016 . S
C4 N11 1.286 . S
C5 H0 0.930 . S
C5 C6 1.397 . S
C5 C7 1.361 . S
C6 C5 1.397 . S
C6 C10 1.390 . S
C7 C5 1.361 . S
C7 C8 1.393 . S
C7 N11 1.413 . S
C8 H1 0.930 . S
C8 C7 1.393 . S
C8 C9 1.399 . S
C9 C8 1.399 . S
C9 C10 1.381 . S
C10 H2 0.930 . S
C10 C6 1.390 . S
C10 C9 1.381 . S
N11 C4 1.286 . S
N11 C7 1.413 . S
H12 C17 0.930 . S
H13 C20 0.930 . S
H14 C22 0.930 . S
H15 C16 1.016 . S
C16 H15 1.016 . S
C16 N23 1.286 . S
C17 H12 0.930 . S
C17 C18 1.397 . S
C17 C19 1.361 . S
C18 C17 1.397 . S
C18 C22 1.390 . S
C19 C17 1.361 . S
C19 C20 1.393 . S
C19 N23 1.413 . S
C20 H13 0.930 . S
C20 C19 1.393 . S
C20 C21 1.399 . S
C21 C20 1.399 . S
C21 C22 1.381 . S
C22 H14 0.930 . S
C22 C18 1.390 . S
C22 C21 1.381 . S
N23 C16 1.286 . S
N23 C19 1.413 . S
H24 C29 0.930 . S
H25 C32 0.930 . S
H26 C34 0.930 . S
H27 C28 1.016 . S
C28 H27 1.016 . S
C28 N35 1.286 . S
C29 H24 0.930 . S
C29 C30 1.397 . S
C29 C31 1.361 . S
C30 C29 1.397 . S
C30 C34 1.390 . S
C31 C29 1.361 . S
C31 C32 1.393 . S
C31 N35 1.413 . S
C32 H25 0.930 . S
C32 C31 1.393 . S
C32 C33 1.399 . S
C33 C32 1.399 . S
C33 C34 1.381 . S
C34 H26 0.930 . S
C34 C30 1.390 . S
C34 C33 1.381 . S
N35 C28 1.286 . S
N35 C31 1.413 . S
H36 C41 0.930 . S
H37 C44 0.930 . S
H38 C46 0.930 . S
H39 C40 1.016 . S
C40 H39 1.016 . S
C40 N47 1.286 . S
C41 H36 0.930 . S
C41 C42 1.397 . S
C41 C43 1.361 . S
C42 C41 1.397 . S
C42 C46 1.390 . S
C43 C41 1.361 . S
C43 C44 1.393 . S
C43 N47 1.413 . S
C44 H37 0.930 . S
C44 C43 1.393 . S
C44 C45 1.399 . S
C45 C44 1.399 . S
C45 C46 1.381 . S
C46 H38 0.930 . S
C46 C42 1.390 . S
C46 C45 1.381 . S
N47 C40 1.286 . S
N47 C43 1.413 . S
H48 C53 0.930 . S
H49 C56 0.930 . S
H50 C58 0.930 . S
H51 C52 1.016 . S
C52 H51 1.016 . S
C52 N59 1.286 . S
C53 H48 0.930 . S
C53 C54 1.397 . S
C53 C55 1.361 . S
C54 C53 1.397 . S
C54 C58 1.390 . S
C55 C53 1.361 . S
C55 C56 1.393 . S
C55 N59 1.413 . S
C56 H49 0.930 . S
C56 C55 1.393 . S
C56 C57 1.399 . S
C57 C56 1.399 . S
C57 C58 1.381 . S
C58 H50 0.930 . S
C58 C54 1.390 . S
C58 C57 1.381 . S
N59 C52 1.286 . S
N59 C55 1.413 . S
H60 C65 0.930 . S
H61 C68 0.930 . S
H62 C70 0.930 . S
H63 C64 1.016 . S
C64 H63 1.016 . S
C64 N71 1.286 . S
C65 H60 0.930 . S
C65 C66 1.397 . S
C65 C67 1.361 . S
C66 C65 1.397 . S
C66 C70 1.390 . S
C67 C65 1.361 . S
C67 C68 1.393 . S
C67 N71 1.413 . S
C68 H61 0.930 . S
C68 C67 1.393 . S
C68 C69 1.399 . S
C69 C68 1.399 . S
C69 C70 1.381 . S
C70 H62 0.930 . S
C70 C66 1.390 . S
C70 C69 1.381 . S
N71 C64 1.286 . S
N71 C67 1.413 . S
H72 C77 0.930 . S
H73 C80 0.930 . S
H74 C82 0.930 . S
H75 C76 1.016 . S
C76 H75 1.016 . S
C76 N83 1.286 . S
C77 H72 0.930 . S
C77 C78 1.397 . S
C77 C79 1.361 . S
C78 C77 1.397 . S
C78 C82 1.390 . S
C79 C77 1.361 . S
C79 C80 1.393 . S
C79 N83 1.413 . S
C80 H73 0.930 . S
C80 C79 1.393 . S
C80 C81 1.399 . S
C81 C80 1.399 . S
C81 C82 1.381 . S
C82 H74 0.930 . S
C82 C78 1.390 . S
C82 C81 1.381 . S
N83 C76 1.286 . S
N83 C79 1.413 . S
H84 C89 0.930 . S
H85 C92 0.930 . S
H86 C94 0.930 . S
H87 C88 1.016 . S
C88 H87 1.016 . S
C88 N95 1.286 . S
C89 H84 0.930 . S
C89 C90 1.397 . S
C89 C91 1.361 . S
C90 C89 1.397 . S
C90 C94 1.390 . S
C91 C89 1.361 . S
C91 C92 1.393 . S
C91 N95 1.413 . S
C92 H85 0.930 . S
C92 C91 1.393 . S
C92 C93 1.399 . S
C93 C92 1.399 . S
C93 C94 1.381 . S
C94 H86 0.930 . S
C94 C90 1.390 . S
C94 C93 1.381 . S
N95 C88 1.286 . S
N95 C91 1.413 . S
H96 C101 0.930 . S
H97 C104 0.930 . S
H98 C106 0.930 . S
H99 C100 1.016 . S
C100 H99 1.016 . S
C100 N107 1.286 . S
C101 H96 0.930 . S
C101 C102 1.397 . S
C101 C103 1.361 . S
C102 C101 1.397 . S
C102 C106 1.390 . S
C103 C101 1.361 . S
C103 C104 1.393 . S
C103 N107 1.413 . S
C104 H97 0.930 . S
C104 C103 1.393 . S
C104 C105 1.399 . S
C105 C104 1.399 . S
C105 C106 1.381 . S
C106 H98 0.930 . S
C106 C102 1.390 . S
C106 C105 1.381 . S
N107 C100 1.286 . S
N107 C103 1.413 . S
H108 C113 0.930 . S
H109 C116 0.930 . S
H110 C118 0.930 . S
H111 C112 1.016 . S
C112 H111 1.016 . S
C112 N119 1.286 . S
C113 H108 0.930 . S
C113 C114 1.397 . S
C113 C115 1.361 . S
C114 C113 1.397 . S
C114 C118 1.390 . S
C115 C113 1.361 . S
C115 C116 1.393 . S
C115 N119 1.413 . S
C116 H109 0.930 . S
C116 C115 1.393 . S
C116 C117 1.399 . S
C117 C116 1.399 . S
C117 C118 1.381 . S
C118 H110 0.930 . S
C118 C114 1.390 . S
C118 C117 1.381 . S
N119 C112 1.286 . S
N119 C115 1.413 . S
H120 C125 0.930 . S
H121 C128 0.930 . S
H122 C130 0.930 . S
H123 C124 1.016 . S
C124 H123 1.016 . S
C124 N131 1.286 . S
C125 H120 0.930 . S
C125 C126 1.397 . S
C125 C127 1.361 . S
C126 C125 1.397 . S
C126 C130 1.390 . S
C127 C125 1.361 . S
C127 C128 1.393 . S
C127 N131 1.413 . S
C128 H121 0.930 . S
C128 C127 1.393 . S
C128 C129 1.399 . S
C129 C128 1.399 . S
C129 C130 1.381 . S
C130 H122 0.930 . S
C130 C126 1.390 . S
C130 C129 1.381 . S
N131 C124 1.286 . S
N131 C127 1.413 . S
H132 C137 0.930 . S
H133 C140 0.930 . S
H134 C142 0.930 . S
H135 C136 1.016 . S
C136 H135 1.016 . S
C136 N143 1.286 . S
C137 H132 0.930 . S
C137 C138 1.397 . S
C137 C139 1.361 . S
C138 C137 1.397 . S
C138 C142 1.390 . S
C139 C137 1.361 . S
C139 C140 1.393 . S
C139 N143 1.413 . S
C140 H133 0.930 . S
C140 C139 1.393 . S
C140 C141 1.399 . S
C141 C140 1.399 . S
C141 C142 1.381 . S
C142 H134 0.930 . S
C142 C138 1.390 . S
C142 C141 1.381 . S
N143 C136 1.286 . S
N143 C139 1.413 . S
H144 C149 0.930 . S
H145 C152 0.930 . S
H146 C154 0.930 . S
H147 C148 1.016 . S
C148 H147 1.016 . S
C148 N155 1.286 . S
C149 H144 0.930 . S
C149 C150 1.397 . S
C149 C151 1.361 . S
C150 C149 1.397 . S
C150 C154 1.390 . S
C151 C149 1.361 . S
C151 C152 1.393 . S
C151 N155 1.413 . S
C152 H145 0.930 . S
C152 C151 1.393 . S
C152 C153 1.399 . S
C153 C152 1.399 . S
C153 C154 1.381 . S
C154 H146 0.930 . S
C154 C150 1.390 . S
C154 C153 1.381 . S
N155 C148 1.286 . S
N155 C151 1.413 . S
H156 C161 0.930 . S
H157 C164 0.930 . S
H158 C166 0.930 . S
H159 C160 1.016 . S
C160 H159 1.016 . S
C160 N167 1.286 . S
C161 H156 0.930 . S
C161 C162 1.397 . S
C161 C163 1.361 . S
C162 C161 1.397 . S
C162 C166 1.390 . S
C163 C161 1.361 . S
C163 C164 1.393 . S
C163 N167 1.413 . S
C164 H157 0.930 . S
C164 C163 1.393 . S
C164 C165 1.399 . S
C165 C164 1.399 . S
C165 C166 1.381 . S
C166 H158 0.930 . S
C166 C162 1.390 . S
C166 C165 1.381 . S
N167 C160 1.286 . S
N167 C163 1.413 . S
H168 C173 0.930 . S
H169 C176 0.930 . S
H170 C178 0.930 . S
H171 C172 1.016 . S
C172 H171 1.016 . S
C172 N179 1.286 . S
C173 H168 0.930 . S
C173 C174 1.397 . S
C173 C175 1.361 . S
C174 C173 1.397 . S
C174 C178 1.390 . S
C175 C173 1.361 . S
C175 C176 1.393 . S
C175 N179 1.413 . S
C176 H169 0.930 . S
C176 C175 1.393 . S
C176 C177 1.399 . S
C177 C176 1.399 . S
C177 C178 1.381 . S
C178 H170 0.930 . S
C178 C174 1.390 . S
C178 C177 1.381 . S
N179 C172 1.286 . S
N179 C175 1.413 . S
H180 C185 0.930 . S
H181 C188 0.930 . S
H182 C190 0.930 . S
H183 C184 1.016 . S
C184 H183 1.016 . S
C184 N191 1.286 . S
C185 H180 0.930 . S
C185 C186 1.397 . S
C185 C187 1.361 . S
C186 C185 1.397 . S
C186 C190 1.390 . S
C187 C185 1.361 . S
C187 C188 1.393 . S
C187 N191 1.413 . S
C188 H181 0.930 . S
C188 C187 1.393 . S
C188 C189 1.399 . S
C189 C188 1.399 . S
C189 C190 1.381 . S
C190 H182 0.930 . S
C190 C186 1.390 . S
C190 C189 1.381 . S
N191 C184 1.286 . S
N191 C187 1.413 . S
O192 Cd193 2.223 . S
O192 C200 1.315 . S
Cd193 O192 2.223 . S
Cd193 O196 2.297 . S
Cd193 O197 2.439 . S
Cd193 O203 2.240 . S
Cd194 O195 2.240 . S
Cd194 O202 2.223 . S
Cd194 O204 2.297 . S
Cd194 O205 2.439 . S
O195 Cd194 2.240 . S
O195 C200 1.279 . S
O196 Cd193 2.297 . S
O196 C198 1.247 . S
O197 Cd193 2.439 . S
O197 C198 1.208 . S
C198 O196 1.247 . S
C198 O197 1.208 . S
C199 O204 1.247 . S
C199 O205 1.208 . S
C200 O192 1.315 . S
C200 O195 1.279 . S
C201 O202 1.315 . S
C201 O203 1.279 . S
O202 Cd194 2.223 . S
O202 C201 1.315 . S
O203 Cd193 2.240 . S
O203 C201 1.279 . S
O204 Cd194 2.297 . S
O204 C199 1.247 . S
O205 Cd194 2.439 . S
O205 C199 1.208 . S
O206 Cd207 2.223 . S
O206 C214 1.315 . S
Cd207 O206 2.223 . S
Cd207 O210 2.297 . S
Cd207 O211 2.439 . S
Cd207 O217 2.240 . S
Cd208 O209 2.240 . S
Cd208 O216 2.223 . S
Cd208 O218 2.297 . S
Cd208 O219 2.439 . S
O209 Cd208 2.240 . S
O209 C214 1.279 . S
O210 Cd207 2.297 . S
O210 C212 1.247 . S
O211 Cd207 2.439 . S
O211 C212 1.208 . S
C212 O210 1.247 . S
C212 O211 1.208 . S
C213 O218 1.247 . S
C213 O219 1.208 . S
C214 O206 1.315 . S
C214 O209 1.279 . S
C215 O216 1.315 . S
C215 O217 1.279 . S
O216 Cd208 2.223 . S
O216 C215 1.315 . S
O217 Cd207 2.240 . S
O217 C215 1.279 . S
O218 Cd208 2.297 . S
O218 C213 1.247 . S
O219 Cd208 2.439 . S
O219 C213 1.208 . S
O220 Cd221 2.223 1_556 S
O220 C228 1.315 . S
Cd221 O220 2.223 1_554 S
Cd221 O224 2.297 . S
Cd221 O225 2.439 . S
Cd221 O231 2.240 . S
Cd222 O223 2.240 . S
Cd222 O230 2.223 . S
Cd222 O232 2.297 1_556 S
Cd222 O233 2.439 1_556 S
O223 Cd222 2.240 . S
O223 C228 1.279 . S
O224 Cd221 2.297 . S
O224 C226 1.247 . S
O225 Cd221 2.439 . S
O225 C226 1.208 . S
C226 O224 1.247 . S
C226 O225 1.208 . S
C227 O232 1.247 . S
C227 O233 1.208 . S
C228 O220 1.315 . S
C228 O223 1.279 . S
C229 O230 1.315 . S
C229 O231 1.279 1_556 S
O230 Cd222 2.223 . S
O230 C229 1.315 . S
O231 Cd221 2.240 . S
O231 C229 1.279 1_554 S
O232 Cd222 2.297 1_554 S
O232 C227 1.247 . S
O233 Cd222 2.439 1_554 S
O233 C227 1.208 . S
O234 Cd235 2.223 . S
O234 C242 1.315 . S
Cd235 O234 2.223 . S
Cd235 O238 2.297 . S
Cd235 O239 2.439 . S
Cd235 O245 2.240 . S
Cd236 O237 2.240 . S
Cd236 O244 2.223 . S
Cd236 O246 2.297 . S
Cd236 O247 2.439 . S
O237 Cd236 2.240 . S
O237 C242 1.279 . S
O238 Cd235 2.297 . S
O238 C240 1.247 . S
O239 Cd235 2.439 . S
O239 C240 1.208 . S
C240 O238 1.247 . S
C240 O239 1.208 . S
C241 O246 1.247 . S
C241 O247 1.208 . S
C242 O234 1.315 . S
C242 O237 1.279 . S
C243 O244 1.315 . S
C243 O245 1.279 . S
O244 Cd236 2.223 . S
O244 C243 1.315 . S
O245 Cd235 2.240 . S
O245 C243 1.279 . S
O246 Cd236 2.297 . S
O246 C241 1.247 . S
O247 Cd236 2.439 . S
O247 C241 1.208 . S
O248 Cd249 2.223 . S
O248 C256 1.315 . S
Cd249 O248 2.223 . S
Cd249 O252 2.297 . S
Cd249 O253 2.439 . S
Cd249 O259 2.240 . S
Cd250 O251 2.240 . S
Cd250 O258 2.223 . S
Cd250 O260 2.297 . S
Cd250 O261 2.439 . S
O251 Cd250 2.240 . S
O251 C256 1.279 . S
O252 Cd249 2.297 . S
O252 C254 1.247 . S
O253 Cd249 2.439 . S
O253 C254 1.208 . S
C254 O252 1.247 . S
C254 O253 1.208 . S
C255 O260 1.247 . S
C255 O261 1.208 . S
C256 O248 1.315 . S
C256 O251 1.279 . S
C257 O258 1.315 . S
C257 O259 1.279 . S
O258 Cd250 2.223 . S
O258 C257 1.315 . S
O259 Cd249 2.240 . S
O259 C257 1.279 . S
O260 Cd250 2.297 . S
O260 C255 1.247 . S
O261 Cd250 2.439 . S
O261 C255 1.208 . S
O262 Cd263 2.223 . S
O262 C270 1.315 . S
Cd263 O262 2.223 . S
Cd263 O266 2.297 . S
Cd263 O267 2.439 . S
Cd263 O273 2.240 . S
Cd264 O265 2.240 . S
Cd264 O272 2.223 . S
Cd264 O274 2.297 . S
Cd264 O275 2.439 . S
O265 Cd264 2.240 . S
O265 C270 1.279 . S
O266 Cd263 2.297 . S
O266 C268 1.247 . S
O267 Cd263 2.439 . S
O267 C268 1.208 . S
C268 O266 1.247 . S
C268 O267 1.208 . S
C269 O274 1.247 . S
C269 O275 1.208 . S
C270 O262 1.315 . S
C270 O265 1.279 . S
C271 O272 1.315 . S
C271 O273 1.279 . S
O272 Cd264 2.223 . S
O272 C271 1.315 . S
O273 Cd263 2.240 . S
O273 C271 1.279 . S
O274 Cd264 2.297 . S
O274 C269 1.247 . S
O275 Cd264 2.439 . S
O275 C269 1.208 . S
O276 Cd277 2.223 . S
O276 C284 1.315 . S
Cd277 O276 2.223 . S
Cd277 O280 2.297 . S
Cd277 O281 2.439 . S
Cd277 O287 2.240 . S
Cd278 O279 2.240 . S
Cd278 O286 2.223 . S
Cd278 O288 2.297 . S
Cd278 O289 2.439 . S
O279 Cd278 2.240 . S
O279 C284 1.279 . S
O280 Cd277 2.297 . S
O280 C282 1.247 . S
O281 Cd277 2.439 . S
O281 C282 1.208 . S
C282 O280 1.247 . S
C282 O281 1.208 . S
C283 O288 1.247 . S
C283 O289 1.208 . S
C284 O276 1.315 . S
C284 O279 1.279 . S
C285 O286 1.315 . S
C285 O287 1.279 . S
O286 Cd278 2.223 . S
O286 C285 1.315 . S
O287 Cd277 2.240 . S
O287 C285 1.279 . S
O288 Cd278 2.297 . S
O288 C283 1.247 . S
O289 Cd278 2.439 . S
O289 C283 1.208 . S
O290 Cd291 2.223 1_545 S
O290 C298 1.315 . S
Cd291 O290 2.223 1_565 S
Cd291 O294 2.297 . S
Cd291 O295 2.439 . S
Cd291 O301 2.240 1_565 S
Cd292 O293 2.240 . S
Cd292 O300 2.223 . S
Cd292 O302 2.297 . S
Cd292 O303 2.439 1_545 S
O293 Cd292 2.240 . S
O293 C298 1.279 . S
O294 Cd291 2.297 . S
O294 C296 1.247 . S
O295 Cd291 2.439 . S
O295 C296 1.208 . S
C296 O294 1.247 . S
C296 O295 1.208 . S
C297 O302 1.247 1_565 S
C297 O303 1.208 . S
C298 O290 1.315 . S
C298 O293 1.279 . S
C299 O300 1.315 . S
C299 O301 1.279 . S
O300 Cd292 2.223 . S
O300 C299 1.315 . S
O301 Cd291 2.240 1_545 S
O301 C299 1.279 . S
O302 Cd292 2.297 . S
O302 C297 1.247 1_545 S
O303 Cd292 2.439 1_565 S
O303 C297 1.208 . S
O304 Cd305 2.223 . S
O304 C312 1.315 . S
Cd305 O304 2.223 . S
Cd305 O308 2.297 1_655 S
Cd305 O309 2.439 1_655 S
Cd305 O315 2.240 . S
Cd306 O307 2.240 . S
Cd306 O314 2.223 1_455 S
Cd306 O316 2.297 . S
Cd306 O317 2.439 . S
O307 Cd306 2.240 . S
O307 C312 1.279 1_455 S
O308 Cd305 2.297 1_455 S
O308 C310 1.247 . S
O309 Cd305 2.439 1_455 S
O309 C310 1.208 . S
C310 O308 1.247 . S
C310 O309 1.208 . S
C311 O316 1.247 . S
C311 O317 1.208 . S
C312 O304 1.315 . S
C312 O307 1.279 1_655 S
C313 O314 1.315 . S
C313 O315 1.279 . S
O314 Cd306 2.223 1_655 S
O314 C313 1.315 . S
O315 Cd305 2.240 . S
O315 C313 1.279 . S
O316 Cd306 2.297 . S
O316 C311 1.247 . S
O317 Cd306 2.439 . S
O317 C311 1.208 . S
O318 Cd319 2.223 . S
O318 C326 1.315 . S
Cd319 O318 2.223 . S
Cd319 O322 2.297 . S
Cd319 O323 2.439 . S
Cd319 O329 2.240 . S
Cd320 O321 2.240 . S
Cd320 O328 2.223 . S
Cd320 O330 2.297 . S
Cd320 O331 2.439 . S
O321 Cd320 2.240 . S
O321 C326 1.279 . S
O322 Cd319 2.297 . S
O322 C324 1.247 . S
O323 Cd319 2.439 . S
O323 C324 1.208 . S
C324 O322 1.247 . S
C324 O323 1.208 . S
C325 O330 1.247 . S
C325 O331 1.208 . S
C326 O318 1.315 . S
C326 O321 1.279 . S
C327 O328 1.315 . S
C327 O329 1.279 . S
O328 Cd320 2.223 . S
O328 C327 1.315 . S
O329 Cd319 2.240 . S
O329 C327 1.279 . S
O330 Cd320 2.297 . S
O330 C325 1.247 . S
O331 Cd320 2.439 . S
O331 C325 1.208 . S
O332 Cd333 2.223 . S
O332 C340 1.315 1_455 S
Cd333 O332 2.223 . S
Cd333 O336 2.297 . S
Cd333 O337 2.439 . S
Cd333 O343 2.240 . S
Cd334 O335 2.240 . S
Cd334 O342 2.223 1_455 S
Cd334 O344 2.297 . S
Cd334 O345 2.439 . S
O335 Cd334 2.240 . S
O335 C340 1.279 1_455 S
O336 Cd333 2.297 . S
O336 C338 1.247 . S
O337 Cd333 2.439 . S
O337 C338 1.208 . S
C338 O336 1.247 . S
C338 O337 1.208 . S
C339 O344 1.247 . S
C339 O345 1.208 . S
C340 O332 1.315 1_655 S
C340 O335 1.279 1_655 S
C341 O342 1.315 1_455 S
C341 O343 1.279 . S
O342 Cd334 2.223 1_655 S
O342 C341 1.315 1_655 S
O343 Cd333 2.240 . S
O343 C341 1.279 . S
O344 Cd334 2.297 . S
O344 C339 1.247 . S
O345 Cd334 2.439 . S
O345 C339 1.208 . S
O346 Cd347 2.223 . S
O346 C354 1.315 . S
Cd347 O346 2.223 . S
Cd347 O350 2.297 . S
Cd347 O351 2.439 . S
Cd347 O357 2.240 . S
Cd348 O349 2.240 . S
Cd348 O356 2.223 . S
Cd348 O358 2.297 . S
Cd348 O359 2.439 . S
O349 Cd348 2.240 . S
O349 C354 1.279 . S
O350 Cd347 2.297 . S
O350 C352 1.247 . S
O351 Cd347 2.439 . S
O351 C352 1.208 . S
C352 O350 1.247 . S
C352 O351 1.208 . S
C353 O358 1.247 . S
C353 O359 1.208 . S
C354 O346 1.315 . S
C354 O349 1.279 . S
C355 O356 1.315 . S
C355 O357 1.279 . S
O356 Cd348 2.223 . S
O356 C355 1.315 . S
O357 Cd347 2.240 . S
O357 C355 1.279 . S
O358 Cd348 2.297 . S
O358 C353 1.247 . S
O359 Cd348 2.439 . S
O359 C353 1.208 . S
H360 C368 0.929 . S
H361 C370 0.930 . S
H362 C372 0.930 . S
H363 C375 0.929 . S
H364 C378 0.930 . S
H365 C380 0.960 . S
H366 C380 0.960 . S
H367 C380 0.960 . S
C368 H360 0.929 . S
C368 C369 1.377 . S
C368 C370 1.384 . S
C369 C368 1.377 . S
C369 C375 1.390 . S
C370 H361 0.930 . S
C370 C368 1.384 . S
C370 C371 1.372 . S
C371 C370 1.372 . S
C371 C372 1.400 . S
C371 C376 1.490 . S
C372 H362 0.930 . S
C372 C371 1.400 . S
C372 C375 1.386 . S
H373 C389 0.930 . S
H374 C390 0.931 . S
C375 H363 0.929 . S
C375 C369 1.390 . S
C375 C372 1.386 . S
C376 C371 1.490 . S
C376 C378 1.395 . S
C376 C379 1.403 . S
H377 C383 0.930 . S
C378 H364 0.930 . S
C378 C376 1.395 . S
C378 C381 1.403 . S
C379 C376 1.403 . S
C379 C380 1.524 . S
C379 C383 1.400 . S
C380 H365 0.960 . S
C380 H366 0.960 . S
C380 H367 0.960 . S
C380 C379 1.524 . S
C381 C378 1.403 . S
C381 C382 1.392 . S
C381 C385 1.495 . S
C382 C381 1.392 . S
C382 C383 1.385 . S
C382 C384 1.478 . S
C383 H377 0.930 . S
C383 C379 1.400 . S
C383 C382 1.385 . S
C384 C382 1.478 . S
C384 C386 1.381 . S
C384 C390 1.383 . S
C385 C381 1.495 . S
C385 H391 0.959 . S
C385 H392 0.961 . S
C385 H393 0.960 . S
C386 C384 1.381 . S
C386 C387 1.394 1_556 S
C386 H394 0.930 . S
C387 C386 1.394 1_554 S
C387 C388 1.383 . S
C387 H395 0.929 . S
C388 C387 1.383 . S
C388 C389 1.377 1_554 S
C389 H373 0.930 . S
C389 C388 1.377 1_556 S
C389 C390 1.379 . S
C390 H374 0.931 . S
C390 C384 1.383 . S
C390 C389 1.379 . S
H391 C385 0.959 . S
H392 C385 0.961 . S
H393 C385 0.960 . S
H394 C386 0.930 . S
H395 C387 0.929 . S
H396 C404 0.929 . S
H397 C406 0.930 . S
H398 C408 0.930 1_455 S
H399 C411 0.929 . S
H400 C414 0.930 . S
H401 C416 0.960 . S
H402 C416 0.960 . S
H403 C416 0.960 . S
C404 H396 0.929 . S
C404 C405 1.377 . S
C404 C406 1.384 . S
C405 C404 1.377 . S
C405 C411 1.390 . S
C406 H397 0.930 . S
C406 C404 1.384 . S
C406 C407 1.372 . S
C407 C406 1.372 . S
C407 C408 1.400 . S
C407 C412 1.490 1_655 S
C408 H398 0.930 1_655 S
C408 C407 1.400 . S
C408 C411 1.386 . S
H409 C425 0.930 . S
H410 C426 0.931 . S
C411 H399 0.929 . S
C411 C405 1.390 . S
C411 C408 1.386 . S
C412 C407 1.490 1_455 S
C412 C414 1.395 1_455 S
C412 C415 1.403 . S
H413 C419 0.930 . S
C414 H400 0.930 . S
C414 C412 1.395 1_655 S
C414 C417 1.403 1_655 S
C415 C412 1.403 . S
C415 C416 1.524 . S
C415 C419 1.400 . S
C416 H401 0.960 . S
C416 H402 0.960 . S
C416 H403 0.960 . S
C416 C415 1.524 . S
C417 C414 1.403 1_455 S
C417 C418 1.392 . S
C417 C421 1.495 . S
C418 C417 1.392 . S
C418 C419 1.385 . S
C418 C420 1.478 . S
C419 H413 0.930 . S
C419 C415 1.400 . S
C419 C418 1.385 . S
C420 C418 1.478 . S
C420 C422 1.381 . S
C420 C426 1.383 . S
C421 C417 1.495 . S
C421 H427 0.959 1_455 S
C421 H428 0.961 . S
C421 H429 0.960 . S
C422 C420 1.381 . S
C422 C423 1.394 . S
C422 H430 0.930 . S
C423 C422 1.394 . S
C423 C424 1.383 . S
C423 H431 0.929 . S
C424 C423 1.383 . S
C424 C425 1.377 . S
C425 H409 0.930 . S
C425 C424 1.377 . S
C425 C426 1.379 . S
C426 H410 0.931 . S
C426 C420 1.383 . S
C426 C425 1.379 . S
H427 C421 0.959 1_655 S
H428 C421 0.961 . S
H429 C421 0.960 . S
H430 C422 0.930 . S
H431 C423 0.929 . S
H432 C440 0.929 . S
H433 C442 0.930 . S
H434 C444 0.930 . S
H435 C447 0.929 . S
H436 C450 0.930 . S
H437 C452 0.960 . S
H438 C452 0.960 . S
H439 C452 0.960 . S
C440 H432 0.929 . S
C440 C441 1.377 . S
C440 C442 1.384 . S
C441 C440 1.377 . S
C441 C447 1.390 . S
C442 H433 0.930 . S
C442 C440 1.384 . S
C442 C443 1.372 . S
C443 C442 1.372 . S
C443 C444 1.400 . S
C443 C448 1.490 . S
C444 H434 0.930 . S
C444 C443 1.400 . S
C444 C447 1.386 . S
H445 C461 0.930 . S
H446 C462 0.931 . S
C447 H435 0.929 . S
C447 C441 1.390 . S
C447 C444 1.386 . S
C448 C443 1.490 . S
C448 C450 1.395 . S
C448 C451 1.403 . S
H449 C455 0.930 . S
C450 H436 0.930 . S
C450 C448 1.395 . S
C450 C453 1.403 . S
C451 C448 1.403 . S
C451 C452 1.524 . S
C451 C455 1.400 . S
C452 H437 0.960 . S
C452 H438 0.960 . S
C452 H439 0.960 . S
C452 C451 1.524 . S
C453 C450 1.403 . S
C453 C454 1.392 . S
C453 C457 1.495 . S
C454 C453 1.392 . S
C454 C455 1.385 . S
C454 C456 1.478 . S
C455 H449 0.930 . S
C455 C451 1.400 . S
C455 C454 1.385 . S
C456 C454 1.478 . S
C456 C458 1.381 . S
C456 C462 1.383 . S
C457 C453 1.495 . S
C457 H463 0.959 . S
C457 H464 0.961 . S
C457 H465 0.960 . S
C458 C456 1.381 . S
C458 C459 1.394 . S
C458 H466 0.930 . S
C459 C458 1.394 . S
C459 C460 1.383 . S
C459 H467 0.929 . S
C460 C459 1.383 . S
C460 C461 1.377 . S
C461 H445 0.930 . S
C461 C460 1.377 . S
C461 C462 1.379 . S
C462 H446 0.931 . S
C462 C456 1.383 . S
C462 C461 1.379 . S
H463 C457 0.959 . S
H464 C457 0.961 . S
H465 C457 0.960 . S
H466 C458 0.930 . S
H467 C459 0.929 . S
H468 C476 0.929 . S
H469 C478 0.930 . S
H470 C480 0.930 . S
H471 C483 0.929 . S
H472 C486 0.930 . S
H473 C488 0.960 . S
H474 C488 0.960 . S
H475 C488 0.960 . S
C476 H468 0.929 . S
C476 C477 1.377 . S
C476 C478 1.384 . S
C477 C476 1.377 . S
C477 C483 1.390 . S
C478 H469 0.930 . S
C478 C476 1.384 . S
C478 C479 1.372 . S
C479 C478 1.372 . S
C479 C480 1.400 1_565 S
C479 C484 1.490 1_565 S
C480 H470 0.930 . S
C480 C479 1.400 1_545 S
C480 C483 1.386 1_545 S
H481 C497 0.930 . S
H482 C498 0.931 . S
C483 H471 0.929 . S
C483 C477 1.390 . S
C483 C480 1.386 1_565 S
C484 C479 1.490 1_545 S
C484 C486 1.395 1_545 S
C484 C487 1.403 . S
H485 C491 0.930 . S
C486 H472 0.930 . S
C486 C484 1.395 1_565 S
C486 C489 1.431 . S
C487 C484 1.403 . S
C487 C488 1.524 . S
C487 C491 1.400 . S
C488 H473 0.960 . S
C488 H474 0.960 . S
C488 H475 0.960 . S
C488 C487 1.524 . S
C489 C486 1.431 . S
C489 C490 1.339 1_565 S
C489 C493 1.523 1_455 S
C490 C489 1.339 1_545 S
C490 C491 1.385 . S
C490 C492 1.498 . S
C491 H485 0.930 . S
C491 C487 1.400 . S
C491 C490 1.385 . S
C492 C490 1.498 . S
C492 C494 1.381 1_455 S
C492 C498 1.363 1_455 S
C493 C489 1.523 1_655 S
C493 H499 0.974 . S
C493 H500 0.961 . S
C493 H501 0.960 . S
C494 C492 1.381 1_655 S
C494 C495 1.394 . S
C494 H502 0.930 1_655 S
C495 C494 1.394 . S
C495 C496 1.383 . S
C495 H503 0.929 . S
C496 C495 1.383 . S
C496 C497 1.377 . S
C497 H481 0.930 . S
C497 C496 1.377 . S
C497 C498 1.379 . S
C498 H482 0.931 . S
C498 C492 1.363 1_655 S
C498 C497 1.379 . S
H499 C493 0.974 . S
H500 C493 0.961 . S
H501 C493 0.960 . S
H502 C494 0.930 1_455 S
H503 C495 0.929 . S
H504 C512 0.929 . S
H505 C514 0.930 . S
H506 C516 0.930 . S
H507 C519 0.929 . S
H508 C522 0.930 . S
H509 C524 0.960 . S
H510 C524 0.960 . S
H511 C524 0.960 . S
C512 H504 0.929 . S
C512 C513 1.377 . S
C512 C514 1.384 . S
C513 C512 1.377 . S
C513 C519 1.390 . S
C514 H505 0.930 . S
C514 C512 1.384 . S
C514 C515 1.372 . S
C515 C514 1.372 . S
C515 C516 1.400 . S
C515 C520 1.490 . S
C516 H506 0.930 . S
C516 C515 1.400 . S
C516 C519 1.386 . S
H517 C533 0.930 . S
H518 C534 0.931 . S
C519 H507 0.929 . S
C519 C513 1.390 . S
C519 C516 1.386 . S
C520 C515 1.490 . S
C520 C522 1.395 . S
C520 C523 1.403 . S
H521 C527 0.930 . S
C522 H508 0.930 . S
C522 C520 1.395 . S
C522 C525 1.403 . S
C523 C520 1.403 . S
C523 C524 1.524 . S
C523 C527 1.400 . S
C524 H509 0.960 . S
C524 H510 0.960 . S
C524 H511 0.960 . S
C524 C523 1.524 . S
C525 C522 1.403 . S
C525 C526 1.392 . S
C525 C529 1.495 . S
C526 C525 1.392 . S
C526 C527 1.385 . S
C526 C528 1.478 . S
C527 H521 0.930 . S
C527 C523 1.400 . S
C527 C526 1.385 . S
C528 C526 1.478 . S
C528 C530 1.381 . S
C528 C534 1.383 . S
C529 C525 1.495 . S
C529 H535 0.959 . S
C529 H536 0.961 . S
C529 H537 0.960 . S
C530 C528 1.381 . S
C530 C531 1.394 . S
C530 H538 0.930 . S
C531 C530 1.394 . S
C531 C532 1.383 . S
C531 H539 0.929 . S
C532 C531 1.383 . S
C532 C533 1.377 . S
C533 H517 0.930 . S
C533 C532 1.377 . S
C533 C534 1.379 . S
C534 H518 0.931 . S
C534 C528 1.383 . S
C534 C533 1.379 . S
H535 C529 0.959 . S
H536 C529 0.961 . S
H537 C529 0.960 . S
H538 C530 0.930 . S
H539 C531 0.929 . S
H540 C548 0.929 . S
H541 C550 0.930 . S
H542 C552 0.930 . S
H543 C555 0.929 . S
H544 C558 0.930 . S
H545 C560 0.960 . S
H546 C560 0.960 . S
H547 C560 0.960 . S
C548 H540 0.929 . S
C548 C549 1.377 . S
C548 C550 1.384 . S
C549 C548 1.377 . S
C549 C555 1.390 . S
C550 H541 0.930 . S
C550 C548 1.384 . S
C550 C551 1.372 . S
C551 C550 1.372 . S
C551 C552 1.400 . S
C551 C556 1.490 . S
C552 H542 0.930 . S
C552 C551 1.400 . S
C552 C555 1.386 . S
H553 C569 0.930 . S
H554 C570 0.931 . S
C555 H543 0.929 . S
C555 C549 1.390 . S
C555 C552 1.386 . S
C556 C551 1.490 . S
C556 C558 1.395 . S
C556 C559 1.403 . S
H557 C563 0.930 . S
C558 H544 0.930 . S
C558 C556 1.395 . S
C558 C561 1.403 . S
C559 C556 1.403 . S
C559 C560 1.524 . S
C559 C563 1.400 . S
C560 H545 0.960 . S
C560 H546 0.960 . S
C560 H547 0.960 . S
C560 C559 1.524 . S
C561 C558 1.403 . S
C561 C562 1.392 . S
C561 C565 1.495 . S
C562 C561 1.392 . S
C562 C563 1.385 . S
C562 C564 1.478 . S
C563 H557 0.930 . S
C563 C559 1.400 . S
C563 C562 1.385 . S
C564 C562 1.478 . S
C564 C566 1.381 . S
C564 C570 1.383 . S
C565 C561 1.495 . S
C565 H571 0.959 . S
C565 H572 0.961 . S
C565 H573 0.960 . S
C566 C564 1.381 . S
C566 C567 1.394 . S
C566 H574 0.930 . S
C567 C566 1.394 . S
C567 C568 1.383 . S
C567 H575 0.929 . S
C568 C567 1.383 . S
C568 C569 1.377 . S
C569 H553 0.930 . S
C569 C568 1.377 . S
C569 C570 1.379 . S
C570 H554 0.931 . S
C570 C564 1.383 . S
C570 C569 1.379 . S
H571 C565 0.959 . S
H572 C565 0.961 . S
H573 C565 0.960 . S
H574 C566 0.930 . S
H575 C567 0.929 . S
H576 C584 0.929 . S
H577 C586 0.930 . S
H578 C588 0.930 . S
H579 C591 0.929 . S
H580 C594 0.930 . S
H581 C596 0.960 . S
H582 C596 0.960 . S
H583 C596 0.960 . S
C584 H576 0.929 . S
C584 C585 1.377 . S
C584 C586 1.384 . S
C585 C584 1.377 . S
C585 C591 1.390 . S
C586 H577 0.930 . S
C586 C584 1.384 . S
C586 C587 1.372 . S
C587 C586 1.372 . S
C587 C588 1.400 . S
C587 C592 1.490 . S
C588 H578 0.930 . S
C588 C587 1.400 . S
C588 C591 1.386 . S
H589 C605 0.930 . S
H590 C606 0.931 . S
C591 H579 0.929 . S
C591 C585 1.390 . S
C591 C588 1.386 . S
C592 C587 1.490 . S
C592 C594 1.395 . S
C592 C595 1.403 . S
H593 C599 0.930 . S
C594 H580 0.930 . S
C594 C592 1.395 . S
C594 C597 1.403 . S
C595 C592 1.403 . S
C595 C596 1.524 . S
C595 C599 1.400 . S
C596 H581 0.960 . S
C596 H582 0.960 . S
C596 H583 0.960 . S
C596 C595 1.524 . S
C597 C594 1.403 . S
C597 C598 1.392 . S
C597 C601 1.495 . S
C598 C597 1.392 . S
C598 C599 1.385 . S
C598 C600 1.478 . S
C599 H593 0.930 . S
C599 C595 1.400 . S
C599 C598 1.385 . S
C600 C598 1.478 . S
C600 C602 1.381 . S
C600 C606 1.383 . S
C601 C597 1.495 . S
C601 H607 0.959 . S
C601 H608 0.961 . S
C601 H609 0.960 . S
C602 C600 1.381 . S
C602 C603 1.394 . S
C602 H610 0.930 . S
C603 C602 1.394 . S
C603 C604 1.383 . S
C603 H611 0.929 . S
C604 C603 1.383 . S
C604 C605 1.377 . S
C605 H589 0.930 . S
C605 C604 1.377 . S
C605 C606 1.379 . S
C606 H590 0.931 . S
C606 C600 1.383 . S
C606 C605 1.379 . S
H607 C601 0.959 . S
H608 C601 0.961 . S
H609 C601 0.960 . S
H610 C602 0.930 . S
H611 C603 0.929 . S
H612 C620 0.929 . S
H613 C622 0.930 . S
H614 C624 0.930 . S
H615 C627 0.929 . S
H616 C630 0.930 . S
H617 C632 0.960 . S
H618 C632 0.960 . S
H619 C632 0.960 . S
C620 H612 0.929 . S
C620 C621 1.377 . S
C620 C622 1.384 . S
C621 C620 1.377 . S
C621 C627 1.390 . S
C622 H613 0.930 . S
C622 C620 1.384 . S
C622 C623 1.372 . S
C623 C622 1.372 . S
C623 C624 1.400 . S
C623 C628 1.490 . S
C624 H614 0.930 . S
C624 C623 1.400 . S
C624 C627 1.386 . S
H625 C641 0.930 . S
H626 C642 0.931 . S
C627 H615 0.929 . S
C627 C621 1.390 . S
C627 C624 1.386 . S
C628 C623 1.490 . S
C628 C630 1.395 . S
C628 C631 1.403 . S
H629 C635 0.930 . S
C630 H616 0.930 . S
C630 C628 1.395 . S
C630 C633 1.403 . S
C631 C628 1.403 . S
C631 C632 1.524 . S
C631 C635 1.400 . S
C632 H617 0.960 . S
C632 H618 0.960 . S
C632 H619 0.960 . S
C632 C631 1.524 . S
C633 C630 1.403 . S
C633 C634 1.392 . S
C633 C637 1.495 . S
C634 C633 1.392 . S
C634 C635 1.385 . S
C634 C636 1.478 . S
C635 H629 0.930 . S
C635 C631 1.400 . S
C635 C634 1.385 . S
C636 C634 1.478 . S
C636 C638 1.381 . S
C636 C642 1.383 . S
C637 C633 1.495 . S
C637 H643 0.959 . S
C637 H644 0.961 . S
C637 H645 0.960 . S
C638 C636 1.381 . S
C638 C639 1.394 . S
C638 H646 0.930 . S
C639 C638 1.394 . S
C639 C640 1.383 . S
C639 H647 0.929 . S
C640 C639 1.383 . S
C640 C641 1.377 . S
C641 H625 0.930 . S
C641 C640 1.377 . S
C641 C642 1.379 . S
C642 H626 0.931 . S
C642 C636 1.383 . S
C642 C641 1.379 . S
H643 C637 0.959 . S
H644 C637 0.961 . S
H645 C637 0.960 . S
H646 C638 0.930 . S
H647 C639 0.929 . S
H648 C656 0.929 . S
H649 C658 0.930 . S
H650 C660 0.930 . S
H651 C663 0.929 . S
H652 C666 0.930 . S
H653 C668 0.960 . S
H654 C668 0.960 . S
H655 C668 0.960 . S
C656 H648 0.929 . S
C656 C657 1.377 . S
C656 C658 1.384 . S
C657 C656 1.377 . S
C657 C663 1.390 . S
C658 H649 0.930 . S
C658 C656 1.384 . S
C658 C659 1.372 . S
C659 C658 1.372 . S
C659 C660 1.400 . S
C659 C664 1.490 . S
C660 H650 0.930 . S
C660 C659 1.400 . S
C660 C663 1.386 . S
H661 C677 0.930 . S
H662 C678 0.931 . S
C663 H651 0.929 . S
C663 C657 1.390 . S
C663 C660 1.386 . S
C664 C659 1.490 . S
C664 C666 1.395 . S
C664 C667 1.403 . S
H665 C671 0.930 . S
C666 H652 0.930 . S
C666 C664 1.395 . S
C666 C669 1.403 . S
C667 C664 1.403 . S
C667 C668 1.524 . S
C667 C671 1.400 . S
C668 H653 0.960 . S
C668 H654 0.960 . S
C668 H655 0.960 . S
C668 C667 1.524 . S
C669 C666 1.403 . S
C669 C670 1.392 . S
C669 C673 1.495 . S
C670 C669 1.392 . S
C670 C671 1.385 . S
C670 C672 1.478 . S
C671 H665 0.930 . S
C671 C667 1.400 . S
C671 C670 1.385 . S
C672 C670 1.478 . S
C672 C674 1.381 . S
C672 C678 1.383 . S
C673 C669 1.495 . S
C673 H679 0.959 . S
C673 H680 0.961 . S
C673 H681 0.960 . S
C674 C672 1.381 . S
C674 C675 1.394 . S
C674 H682 0.930 . S
C675 C674 1.394 . S
C675 C676 1.383 . S
C675 H683 0.929 . S
C676 C675 1.383 . S
C676 C677 1.377 . S
C677 H661 0.930 . S
C677 C676 1.377 . S
C677 C678 1.379 . S
C678 H662 0.931 . S
C678 C672 1.383 . S
C678 C677 1.379 . S
H679 C673 0.959 . S
H680 C673 0.961 . S
H681 C673 0.960 . S
H682 C674 0.930 . S
H683 C675 0.929 . S
H684 C692 0.929 . S
H685 C694 0.930 . S
H686 C696 0.930 . S
H687 C699 0.929 . S
H688 C702 0.930 . S
H689 C704 0.960 . S
H690 C704 0.960 . S
H691 C704 0.960 . S
C692 H684 0.929 . S
C692 C693 1.377 . S
C692 C694 1.384 . S
C693 C692 1.377 . S
C693 C699 1.390 . S
C694 H685 0.930 . S
C694 C692 1.384 . S
C694 C695 1.372 . S
C695 C694 1.372 . S
C695 C696 1.400 . S
C695 C700 1.490 . S
C696 H686 0.930 . S
C696 C695 1.400 . S
C696 C699 1.386 . S
H697 C713 0.930 . S
H698 C714 0.931 . S
C699 H687 0.929 . S
C699 C693 1.390 . S
C699 C696 1.386 . S
C700 C695 1.490 . S
C700 C702 1.395 . S
C700 C703 1.403 . S
H701 C707 0.930 . S
C702 H688 0.930 . S
C702 C700 1.395 . S
C702 C705 1.403 . S
C703 C700 1.403 . S
C703 C704 1.524 . S
C703 C707 1.400 . S
C704 H689 0.960 . S
C704 H690 0.960 . S
C704 H691 0.960 . S
C704 C703 1.524 . S
C705 C702 1.403 . S
C705 C706 1.392 . S
C705 C709 1.495 . S
C706 C705 1.392 . S
C706 C707 1.385 . S
C706 C708 1.478 . S
C707 H701 0.930 . S
C707 C703 1.400 . S
C707 C706 1.385 . S
C708 C706 1.478 . S
C708 C710 1.381 . S
C708 C714 1.383 . S
C709 C705 1.495 . S
C709 H715 0.959 . S
C709 H716 0.961 . S
C709 H717 0.960 . S
C710 C708 1.381 . S
C710 C711 1.394 . S
C710 H718 0.930 . S
C711 C710 1.394 . S
C711 C712 1.383 . S
C711 H719 0.929 . S
C712 C711 1.383 . S
C712 C713 1.377 . S
C713 H697 0.930 . S
C713 C712 1.377 . S
C713 C714 1.379 . S
C714 H698 0.931 . S
C714 C708 1.383 . S
C714 C713 1.379 . S
H715 C709 0.959 . S
H716 C709 0.961 . S
H717 C709 0.960 . S
H718 C710 0.930 . S
H719 C711 0.929 . S
H720 C728 0.929 . S
H721 C730 0.930 . S
H722 C732 0.930 . S
H723 C735 0.929 . S
H724 C738 0.930 . S
H725 C740 0.960 . S
H726 C740 0.960 . S
H727 C740 0.960 . S
C728 H720 0.929 . S
C728 C729 1.377 . S
C728 C730 1.384 . S
C729 C728 1.377 . S
C729 C735 1.390 . S
C730 H721 0.930 . S
C730 C728 1.384 . S
C730 C731 1.372 . S
C731 C730 1.372 . S
C731 C732 1.400 . S
C731 C736 1.490 . S
C732 H722 0.930 . S
C732 C731 1.400 . S
C732 C735 1.386 . S
H733 C749 0.930 . S
H734 C750 0.931 . S
C735 H723 0.929 . S
C735 C729 1.390 . S
C735 C732 1.386 . S
C736 C731 1.490 . S
C736 C738 1.395 . S
C736 C739 1.403 . S
H737 C743 0.930 . S
C738 H724 0.930 . S
C738 C736 1.395 . S
C738 C741 1.403 . S
C739 C736 1.403 . S
C739 C740 1.524 . S
C739 C743 1.400 . S
C740 H725 0.960 . S
C740 H726 0.960 . S
C740 H727 0.960 . S
C740 C739 1.524 . S
C741 C738 1.403 . S
C741 C742 1.392 . S
C741 C745 1.495 . S
C742 C741 1.392 . S
C742 C743 1.385 . S
C742 C744 1.478 . S
C743 H737 0.930 . S
C743 C739 1.400 . S
C743 C742 1.385 . S
C744 C742 1.478 . S
C744 C746 1.381 . S
C744 C750 1.383 . S
C745 C741 1.495 . S
C745 H751 0.959 . S
C745 H752 0.961 . S
C745 H753 0.960 . S
C746 C744 1.381 . S
C746 C747 1.394 . S
C746 H754 0.930 . S
C747 C746 1.394 . S
C747 C748 1.383 . S
C747 H755 0.929 . S
C748 C747 1.383 . S
C748 C749 1.377 . S
C749 H733 0.930 . S
C749 C748 1.377 . S
C749 C750 1.379 . S
C750 H734 0.931 . S
C750 C744 1.383 . S
C750 C749 1.379 . S
H751 C745 0.959 . S
H752 C745 0.961 . S
H753 C745 0.960 . S
H754 C746 0.930 . S
H755 C747 0.929 . S
H756 C764 0.929 . S
H757 C766 0.930 . S
H758 C768 0.930 . S
H759 C771 0.929 . S
H760 C774 0.930 . S
H761 C776 0.960 . S
H762 C776 0.960 . S
H763 C776 0.960 . S
C764 H756 0.929 . S
C764 C765 1.377 . S
C764 C766 1.384 . S
C765 C764 1.377 . S
C765 C771 1.390 . S
C766 H757 0.930 . S
C766 C764 1.384 . S
C766 C767 1.372 . S
C767 C766 1.372 . S
C767 C768 1.400 . S
C767 C772 1.490 . S
C768 H758 0.930 . S
C768 C767 1.400 . S
C768 C771 1.386 . S
H769 C785 0.930 . S
H770 C786 0.931 . S
C771 H759 0.929 . S
C771 C765 1.390 . S
C771 C768 1.386 . S
C772 C767 1.490 . S
C772 C774 1.395 . S
C772 C775 1.403 . S
H773 C779 0.930 . S
C774 H760 0.930 . S
C774 C772 1.395 . S
C774 C777 1.403 . S
C775 C772 1.403 . S
C775 C776 1.524 . S
C775 C779 1.400 . S
C776 H761 0.960 . S
C776 H762 0.960 . S
C776 H763 0.960 . S
C776 C775 1.524 . S
C777 C774 1.403 . S
C777 C778 1.392 . S
C777 C781 1.495 . S
C778 C777 1.392 . S
C778 C779 1.385 . S
C778 C780 1.478 . S
C779 H773 0.930 . S
C779 C775 1.400 . S
C779 C778 1.385 . S
C780 C778 1.478 . S
C780 C782 1.381 . S
C780 C786 1.383 . S
C781 C777 1.495 . S
C781 H787 0.959 . S
C781 H788 0.961 . S
C781 H789 0.960 . S
C782 C780 1.381 . S
C782 C783 1.394 . S
C782 H790 0.930 . S
C783 C782 1.394 . S
C783 C784 1.383 . S
C783 H791 0.929 . S
C784 C783 1.383 . S
C784 C785 1.377 . S
C785 H769 0.930 . S
C785 C784 1.377 . S
C785 C786 1.379 . S
C786 H770 0.931 . S
C786 C780 1.383 . S
C786 C785 1.379 . S
H787 C781 0.959 . S
H788 C781 0.961 . S
H789 C781 0.960 . S
H790 C782 0.930 . S
H791 C783 0.929 . S
H792 C800 0.929 . S
H793 C802 0.930 . S
H794 C804 0.930 . S
H795 C807 0.929 . S
H796 C810 0.930 . S
H797 C812 0.960 . S
H798 C812 0.960 . S
H799 C812 0.960 . S
C800 H792 0.929 . S
C800 C801 1.377 . S
C800 C802 1.384 . S
C801 C800 1.377 . S
C801 C807 1.390 . S
C802 H793 0.930 . S
C802 C800 1.384 . S
C802 C803 1.372 . S
C803 C802 1.372 . S
C803 C804 1.400 . S
C803 C808 1.490 . S
C804 H794 0.930 . S
C804 C803 1.400 . S
C804 C807 1.386 . S
H805 C821 0.930 . S
H806 C822 0.931 . S
C807 H795 0.929 . S
C807 C801 1.390 . S
C807 C804 1.386 . S
C808 C803 1.490 . S
C808 C810 1.395 . S
C808 C811 1.403 . S
H809 C815 0.930 . S
C810 H796 0.930 . S
C810 C808 1.395 . S
C810 C813 1.403 . S
C811 C808 1.403 . S
C811 C812 1.524 . S
C811 C815 1.400 . S
C812 H797 0.960 . S
C812 H798 0.960 . S
C812 H799 0.960 . S
C812 C811 1.524 . S
C813 C810 1.403 . S
C813 C814 1.392 . S
C813 C817 1.495 . S
C814 C813 1.392 . S
C814 C815 1.385 . S
C814 C816 1.478 . S
C815 H809 0.930 . S
C815 C811 1.400 . S
C815 C814 1.385 . S
C816 C814 1.478 . S
C816 C818 1.381 . S
C816 C822 1.383 . S
C817 C813 1.495 . S
C817 H823 0.959 . S
C817 H824 0.961 . S
C817 H825 0.960 . S
C818 C816 1.381 . S
C818 C819 1.394 . S
C818 H826 0.930 . S
C819 C818 1.394 . S
C819 C820 1.383 . S
C819 H827 0.929 . S
C820 C819 1.383 . S
C820 C821 1.377 . S
C821 H805 0.930 . S
C821 C820 1.377 . S
C821 C822 1.379 . S
C822 H806 0.931 . S
C822 C816 1.383 . S
C822 C821 1.379 . S
H823 C817 0.959 . S
H824 C817 0.961 . S
H825 C817 0.960 . S
H826 C818 0.930 . S
H827 C819 0.929 . S
H828 C836 0.929 . S
H829 C838 0.930 . S
H830 C840 0.930 . S
H831 C843 0.929 . S
H832 C846 0.930 . S
H833 C848 0.960 . S
H834 C848 0.960 . S
H835 C848 0.960 . S
C836 H828 0.929 . S
C836 C837 1.377 . S
C836 C838 1.384 . S
C837 C836 1.377 . S
C837 C843 1.390 . S
C838 H829 0.930 . S
C838 C836 1.384 . S
C838 C839 1.372 . S
C839 C838 1.372 . S
C839 C840 1.400 . S
C839 C844 1.490 . S
C840 H830 0.930 . S
C840 C839 1.400 . S
C840 C843 1.386 . S
H841 C857 0.930 . S
H842 C858 0.931 . S
C843 H831 0.929 . S
C843 C837 1.390 . S
C843 C840 1.386 . S
C844 C839 1.490 . S
C844 C846 1.395 . S
C844 C847 1.403 . S
H845 C851 0.930 . S
C846 H832 0.930 . S
C846 C844 1.395 . S
C846 C849 1.403 . S
C847 C844 1.403 . S
C847 C848 1.524 . S
C847 C851 1.400 . S
C848 H833 0.960 . S
C848 H834 0.960 . S
C848 H835 0.960 . S
C848 C847 1.524 . S
C849 C846 1.403 . S
C849 C850 1.392 . S
C849 C853 1.495 . S
C850 C849 1.392 . S
C850 C851 1.385 . S
C850 C852 1.478 . S
C851 H845 0.930 . S
C851 C847 1.400 . S
C851 C850 1.385 . S
C852 C850 1.478 . S
C852 C854 1.381 . S
C852 C858 1.383 . S
C853 C849 1.495 . S
C853 H859 0.959 . S
C853 H860 0.961 . S
C853 H861 0.960 . S
C854 C852 1.381 . S
C854 C855 1.394 . S
C854 H862 0.930 . S
C855 C854 1.394 . S
C855 C856 1.383 . S
C855 H863 0.929 . S
C856 C855 1.383 . S
C856 C857 1.377 . S
C857 H841 0.930 . S
C857 C856 1.377 . S
C857 C858 1.379 . S
C858 H842 0.931 . S
C858 C852 1.383 . S
C858 C857 1.379 . S
H859 C853 0.959 . S
H860 C853 0.961 . S
H861 C853 0.960 . S
H862 C854 0.930 . S
H863 C855 0.929 . S
H864 C872 0.929 . S
H865 C874 0.930 . S
H866 C876 0.930 . S
H867 C879 0.929 . S
H868 C882 0.930 . S
H869 C884 0.960 . S
H870 C884 0.960 . S
H871 C884 0.960 . S
C872 H864 0.929 . S
C872 C873 1.377 . S
C872 C874 1.384 . S
C873 C872 1.377 . S
C873 C879 1.390 . S
C874 H865 0.930 . S
C874 C872 1.384 . S
C874 C875 1.372 . S
C875 C874 1.372 . S
C875 C876 1.400 . S
C875 C880 1.490 . S
C876 H866 0.930 . S
C876 C875 1.400 . S
C876 C879 1.386 . S
H877 C893 0.930 . S
H878 C894 0.931 . S
C879 H867 0.929 . S
C879 C873 1.390 . S
C879 C876 1.386 . S
C880 C875 1.490 . S
C880 C882 1.395 . S
C880 C883 1.403 . S
H881 C887 0.930 . S
C882 H868 0.930 . S
C882 C880 1.395 . S
C882 C885 1.403 . S
C883 C880 1.403 . S
C883 C884 1.524 . S
C883 C887 1.400 . S
C884 H869 0.960 . S
C884 H870 0.960 . S
C884 H871 0.960 . S
C884 C883 1.524 . S
C885 C882 1.403 . S
C885 C886 1.392 . S
C885 C889 1.495 . S
C886 C885 1.392 . S
C886 C887 1.385 . S
C886 C888 1.478 . S
C887 H881 0.930 . S
C887 C883 1.400 . S
C887 C886 1.385 . S
C888 C886 1.478 . S
C888 C890 1.381 . S
C888 C894 1.383 . S
C889 C885 1.495 . S
C889 H895 0.959 . S
C889 H896 0.961 . S
C889 H897 0.960 . S
C890 C888 1.381 . S
C890 C891 1.394 . S
C890 H898 0.930 . S
C891 C890 1.394 . S
C891 C892 1.383 . S
C891 H899 0.929 . S
C892 C891 1.383 . S
C892 C893 1.377 . S
C893 H877 0.930 . S
C893 C892 1.377 . S
C893 C894 1.379 . S
C894 H878 0.931 . S
C894 C888 1.383 . S
C894 C893 1.379 . S
H895 C889 0.959 . S
H896 C889 0.961 . S
H897 C889 0.960 . S
H898 C890 0.930 . S
H899 C891 0.929 . S
H900 C908 0.929 . S
H901 C910 0.930 . S
H902 C912 0.930 . S
H903 C915 0.929 . S
H904 C918 0.930 . S
H905 C920 0.960 . S
H906 C920 0.960 . S
H907 C920 0.960 . S
C908 H900 0.929 . S
C908 C909 1.377 . S
C908 C910 1.384 . S
C909 C908 1.377 . S
C909 C915 1.390 . S
C910 H901 0.930 . S
C910 C908 1.384 . S
C910 C911 1.372 . S
C911 C910 1.372 . S
C911 C912 1.400 . S
C911 C916 1.490 . S
C912 H902 0.930 . S
C912 C911 1.400 . S
C912 C915 1.386 . S
H913 C929 0.930 . S
H914 C930 0.931 . S
C915 H903 0.929 . S
C915 C909 1.390 . S
C915 C912 1.386 . S
C916 C911 1.490 . S
C916 C918 1.395 . S
C916 C919 1.403 . S
H917 C923 0.930 . S
C918 H904 0.930 . S
C918 C916 1.395 . S
C918 C921 1.403 . S
C919 C916 1.403 . S
C919 C920 1.524 . S
C919 C923 1.400 . S
C920 H905 0.960 . S
C920 H906 0.960 . S
C920 H907 0.960 . S
C920 C919 1.524 . S
C921 C918 1.403 . S
C921 C922 1.392 . S
C921 C925 1.495 . S
C922 C921 1.392 . S
C922 C923 1.385 . S
C922 C924 1.478 . S
C923 H917 0.930 . S
C923 C919 1.400 . S
C923 C922 1.385 . S
C924 C922 1.478 . S
C924 C926 1.381 . S
C924 C930 1.383 . S
C925 C921 1.495 . S
C925 H931 0.959 . S
C925 H932 0.961 . S
C925 H933 0.960 . S
C926 C924 1.381 . S
C926 C927 1.394 1_655 S
C926 H934 0.948 . S
C927 C926 1.394 1_455 S
C927 C928 1.383 1_455 S
C927 H935 0.929 . S
C928 C927 1.383 1_655 S
C928 C929 1.377 . S
C929 H913 0.930 . S
C929 C928 1.377 . S
C929 C930 1.379 . S
C930 H914 0.931 . S
C930 C924 1.383 . S
C930 C929 1.379 . S
H931 C925 0.959 . S
H932 C925 0.961 . S
H933 C925 0.960 . S
H934 C926 0.948 . S
H935 C927 0.929 . S
H936 C944 0.929 . S
H937 C946 0.930 . S
H938 C948 0.930 . S
H939 C951 0.929 . S
H940 C954 0.930 . S
H941 C956 0.960 . S
H942 C956 0.960 . S
H943 C956 0.960 . S
C944 H936 0.929 . S
C944 C945 1.377 . S
C944 C946 1.384 . S
C945 C944 1.377 . S
C945 C951 1.390 . S
C946 H937 0.930 . S
C946 C944 1.384 . S
C946 C947 1.372 . S
C947 C946 1.372 . S
C947 C948 1.400 . S
C947 C952 1.490 . S
C948 H938 0.930 . S
C948 C947 1.400 . S
C948 C951 1.386 . S
H949 C965 0.930 . S
H950 C966 0.931 . S
C951 H939 0.929 . S
C951 C945 1.390 . S
C951 C948 1.386 . S
C952 C947 1.490 . S
C952 C954 1.395 . S
C952 C955 1.403 . S
H953 C959 0.930 . S
C954 H940 0.930 . S
C954 C952 1.395 . S
C954 C957 1.403 . S
C955 C952 1.403 . S
C955 C956 1.524 . S
C955 C959 1.400 . S
C956 H941 0.960 . S
C956 H942 0.960 . S
C956 H943 0.960 . S
C956 C955 1.524 . S
C957 C954 1.403 . S
C957 C958 1.392 . S
C957 C961 1.495 . S
C958 C957 1.392 . S
C958 C959 1.385 . S
C958 C960 1.478 . S
C959 H953 0.930 . S
C959 C955 1.400 . S
C959 C958 1.385 . S
C960 C958 1.478 . S
C960 C962 1.381 . S
C960 C966 1.383 1_565 S
C961 C957 1.495 . S
C961 H967 0.959 . S
C961 H968 0.961 . S
C961 H969 0.960 . S
C962 C960 1.381 . S
C962 C963 1.394 1_565 S
C962 H970 0.930 . S
C963 C962 1.394 1_545 S
C963 C964 1.383 . S
C963 H971 0.929 . S
C964 C963 1.383 . S
C964 C965 1.377 . S
C965 H949 0.930 . S
C965 C964 1.377 . S
C965 C966 1.379 . S
C966 H950 0.931 . S
C966 C960 1.383 1_545 S
C966 C965 1.379 . S
H967 C961 0.959 . S
H968 C961 0.961 . S
H969 C961 0.960 . S
H970 C962 0.930 . S
H971 C963 0.929 . S
H972 C980 0.929 . S
H973 C982 0.930 . S
H974 C984 0.930 . S
H975 C987 0.929 . S
H976 C990 0.930 . S
H977 C992 0.960 . S
H978 C992 0.960 . S
H979 C992 0.960 . S
C980 H972 0.929 . S
C980 C981 1.377 . S
C980 C982 1.384 . S
C981 C980 1.377 . S
C981 C987 1.390 . S
C982 H973 0.930 . S
C982 C980 1.384 . S
C982 C983 1.372 . S
C983 C982 1.372 . S
C983 C984 1.400 . S
C983 C988 1.490 . S
C984 H974 0.930 . S
C984 C983 1.400 . S
C984 C987 1.386 . S
H985 C1001 0.930 . S
H986 C1002 0.931 . S
C987 H975 0.929 . S
C987 C981 1.390 . S
C987 C984 1.386 . S
C988 C983 1.490 . S
C988 C990 1.395 . S
C988 C991 1.403 . S
H989 C995 0.930 . S
C990 H976 0.930 . S
C990 C988 1.395 . S
C990 C993 1.403 . S
C991 C988 1.403 . S
C991 C992 1.524 . S
C991 C995 1.400 . S
C992 H977 0.960 . S
C992 H978 0.960 . S
C992 H979 0.960 . S
C992 C991 1.524 . S
C993 C990 1.403 . S
C993 C994 1.392 . S
C993 C997 1.495 . S
C994 C993 1.392 . S
C994 C995 1.385 . S
C994 C996 1.478 . S
C995 H989 0.930 . S
C995 C991 1.400 . S
C995 C994 1.385 . S
C996 C994 1.478 . S
C996 C998 1.381 . S
C996 C1002 1.383 . S
C997 C993 1.495 . S
C997 H1003 0.959 . S
C997 H1004 0.961 . S
C997 H1005 0.960 . S
C998 C996 1.381 . S
C998 C999 1.394 . S
C998 H1006 0.930 . S
C999 C998 1.394 . S
C999 C1000 1.383 . S
C999 H1007 0.929 . S
C1000 C999 1.383 . S
C1000 C1001 1.377 . S
C1001 H985 0.930 . S
C1001 C1000 1.377 . S
C1001 C1002 1.379 . S
C1002 H986 0.931 . S
C1002 C996 1.383 . S
C1002 C1001 1.379 . S
H1003 C997 0.959 . S
H1004 C997 0.961 . S
H1005 C997 0.960 . S
H1006 C998 0.930 . S
H1007 C999 0.929 . S
H1008 C1016 0.929 . S
H1009 C1018 0.930 . S
H1010 C1020 0.930 . S
H1011 C1023 0.929 . S
H1012 C1026 0.930 . S
H1013 C1028 0.964 1_554 S
H1014 C1028 0.961 1_554 S
H1015 C1028 0.957 . S
C1016 H1008 0.929 . S
C1016 C1017 1.377 . S
C1016 C1018 1.384 . S
C1017 C1016 1.377 . S
C1017 C1023 1.390 . S
C1018 H1009 0.930 . S
C1018 C1016 1.384 . S
C1018 C1019 1.372 . S
C1019 C1018 1.372 . S
C1019 C1020 1.400 . S
C1019 C1024 1.490 . S
C1020 H1010 0.930 . S
C1020 C1019 1.400 . S
C1020 C1023 1.386 . S
H1021 C1037 0.930 . S
H1022 C1038 0.931 1_556 S
C1023 H1011 0.929 . S
C1023 C1017 1.390 . S
C1023 C1020 1.386 . S
C1024 C1019 1.490 . S
C1024 C1026 1.395 . S
C1024 C1027 1.403 . S
H1025 C1031 0.930 . S
C1026 H1012 0.930 . S
C1026 C1024 1.395 . S
C1026 C1029 1.403 . S
C1027 C1024 1.403 . S
C1027 C1028 1.522 . S
C1027 C1031 1.400 1_556 S
C1028 H1013 0.964 1_556 S
C1028 H1014 0.961 1_556 S
C1028 H1015 0.957 . S
C1028 C1027 1.522 . S
C1029 C1026 1.403 . S
C1029 C1030 1.392 . S
C1029 C1033 1.495 . S
C1030 C1029 1.392 . S
C1030 C1031 1.385 1_556 S
C1030 C1032 1.478 1_546 S
C1031 H1025 0.930 . S
C1031 C1027 1.400 1_554 S
C1031 C1030 1.385 1_554 S
C1032 C1030 1.478 1_564 S
C1032 C1034 1.388 . S
C1032 C1038 1.383 . S
C1033 C1029 1.495 . S
C1033 H1039 0.959 . S
C1033 H1040 0.961 1_545 S
C1033 H1041 0.960 . S
C1034 C1032 1.388 . S
C1034 C1035 1.409 . S
C1034 H1042 0.908 1_565 S
C1035 C1034 1.409 . S
C1035 C1036 1.383 . S
C1035 H1043 0.929 . S
C1036 C1035 1.383 . S
C1036 C1037 1.377 . S
C1037 H1021 0.930 . S
C1037 C1036 1.377 . S
C1037 C1038 1.379 . S
C1038 H1022 0.931 1_554 S
C1038 C1032 1.383 . S
C1038 C1037 1.379 . S
H1039 C1033 0.959 . S
H1040 C1033 0.961 1_565 S
H1041 C1033 0.960 . S
H1042 C1034 0.908 1_545 S
H1043 C1035 0.929 . S
H1044 C1052 0.929 . S
H1045 C1054 0.930 . S
H1046 C1056 0.930 . S
H1047 C1059 0.929 . S
H1048 C1062 0.930 . S
H1049 C1064 0.960 . S
H1050 C1064 0.960 . S
H1051 C1064 0.960 . S
C1052 H1044 0.929 . S
C1052 C1053 1.377 . S
C1052 C1054 1.384 . S
C1053 C1052 1.377 . S
C1053 C1059 1.390 . S
C1054 H1045 0.930 . S
C1054 C1052 1.384 . S
C1054 C1055 1.372 . S
C1055 C1054 1.372 . S
C1055 C1056 1.400 . S
C1055 C1060 1.490 . S
C1056 H1046 0.930 . S
C1056 C1055 1.400 . S
C1056 C1059 1.386 . S
H1057 C1073 0.930 . S
H1058 C1074 0.931 . S
C1059 H1047 0.929 . S
C1059 C1053 1.390 . S
C1059 C1056 1.386 . S
C1060 C1055 1.490 . S
C1060 C1062 1.395 . S
C1060 C1063 1.403 . S
H1061 C1067 0.930 . S
C1062 H1048 0.930 . S
C1062 C1060 1.395 . S
C1062 C1065 1.403 . S
C1063 C1060 1.403 . S
C1063 C1064 1.524 . S
C1063 C1067 1.400 . S
C1064 H1049 0.960 . S
C1064 H1050 0.960 . S
C1064 H1051 0.960 . S
C1064 C1063 1.524 . S
C1065 C1062 1.403 . S
C1065 C1066 1.392 . S
C1065 C1069 1.495 . S
C1066 C1065 1.392 . S
C1066 C1067 1.385 . S
C1066 C1068 1.478 . S
C1067 H1061 0.930 . S
C1067 C1063 1.400 . S
C1067 C1066 1.385 . S
C1068 C1066 1.478 . S
C1068 C1070 1.381 . S
C1068 C1074 1.383 . S
C1069 C1065 1.495 . S
C1069 H1075 0.959 . S
C1069 H1076 0.961 . S
C1069 H1077 0.960 . S
C1070 C1068 1.381 . S
C1070 C1071 1.394 . S
C1070 H1078 0.930 . S
C1071 C1070 1.394 . S
C1071 C1072 1.383 . S
C1071 H1079 0.929 . S
C1072 C1071 1.383 . S
C1072 C1073 1.377 . S
C1073 H1057 0.930 . S
C1073 C1072 1.377 . S
C1073 C1074 1.379 . S
C1074 H1058 0.931 . S
C1074 C1068 1.383 . S
C1074 C1073 1.379 . S
H1075 C1069 0.959 . S
H1076 C1069 0.961 . S
H1077 C1069 0.960 . S
H1078 C1070 0.930 . S
H1079 C1071 0.929 . S
H1080 C1088 0.929 . S
H1081 C1090 0.930 . S
H1082 C1092 0.930 . S
H1083 C1095 0.929 . S
H1084 C1098 0.930 . S
H1085 C1100 0.960 . S
H1086 C1100 0.960 . S
H1087 C1100 0.960 . S
C1088 H1080 0.929 . S
C1088 C1089 1.377 1_545 S
C1088 C1090 1.384 . S
C1089 C1088 1.377 1_565 S
C1089 C1095 1.390 . S
C1090 H1081 0.930 . S
C1090 C1088 1.384 . S
C1090 C1091 1.372 . S
C1091 C1090 1.372 . S
C1091 C1092 1.400 . S
C1091 C1096 1.490 . S
C1092 H1082 0.930 . S
C1092 C1091 1.400 . S
C1092 C1095 1.386 1_545 S
H1093 C1109 0.930 . S
H1094 C1110 0.931 . S
C1095 H1083 0.929 . S
C1095 C1089 1.390 . S
C1095 C1092 1.386 1_565 S
C1096 C1091 1.490 . S
C1096 C1098 1.395 . S
C1096 C1099 1.403 . S
H1097 C1103 0.930 . S
C1098 H1084 0.930 . S
C1098 C1096 1.395 . S
C1098 C1101 1.403 . S
C1099 C1096 1.403 . S
C1099 C1100 1.524 . S
C1099 C1103 1.400 . S
C1100 H1085 0.960 . S
C1100 H1086 0.960 . S
C1100 H1087 0.960 . S
C1100 C1099 1.524 . S
C1101 C1098 1.403 . S
C1101 C1102 1.392 . S
C1101 C1105 1.495 . S
C1102 C1101 1.392 . S
C1102 C1103 1.385 . S
C1102 C1104 1.478 . S
C1103 H1097 0.930 . S
C1103 C1099 1.400 . S
C1103 C1102 1.385 . S
C1104 C1102 1.478 . S
C1104 C1106 1.381 . S
C1104 C1110 1.383 . S
C1105 C1101 1.495 . S
C1105 H1111 0.959 . S
C1105 H1112 0.961 . S
C1105 H1113 0.960 . S
C1106 C1104 1.381 . S
C1106 C1107 1.394 . S
C1106 H1114 0.930 . S
C1107 C1106 1.394 . S
C1107 C1108 1.383 . S
C1107 H1115 0.929 . S
C1108 C1107 1.383 . S
C1108 C1109 1.377 . S
C1109 H1093 0.930 . S
C1109 C1108 1.377 . S
C1109 C1110 1.379 . S
C1110 H1094 0.931 . S
C1110 C1104 1.383 . S
C1110 C1109 1.379 . S
H1111 C1105 0.959 . S
H1112 C1105 0.961 . S
H1113 C1105 0.960 . S
H1114 C1106 0.930 . S
H1115 C1107 0.929 . S
H1116 C1124 0.929 . S
H1117 C1126 0.930 . S
H1118 C1128 0.930 . S
H1119 C1131 0.929 . S
H1120 C1134 0.930 . S
H1121 C1136 0.960 . S
H1122 C1136 0.960 . S
H1123 C1136 0.960 . S
C1124 H1116 0.929 . S
C1124 C1125 1.377 . S
C1124 C1126 1.384 . S
C1125 C1124 1.377 . S
C1125 C1131 1.390 . S
C1126 H1117 0.930 . S
C1126 C1124 1.384 . S
C1126 C1127 1.372 . S
C1127 C1126 1.372 . S
C1127 C1128 1.400 . S
C1127 C1132 1.490 . S
C1128 H1118 0.930 . S
C1128 C1127 1.400 . S
C1128 C1131 1.386 . S
H1129 C1145 0.930 . S
H1130 C1146 0.931 . S
C1131 H1119 0.929 . S
C1131 C1125 1.390 . S
C1131 C1128 1.386 . S
C1132 C1127 1.490 . S
C1132 C1134 1.395 . S
C1132 C1135 1.403 . S
H1133 C1139 0.930 . S
C1134 H1120 0.930 . S
C1134 C1132 1.395 . S
C1134 C1137 1.403 . S
C1135 C1132 1.403 . S
C1135 C1136 1.524 . S
C1135 C1139 1.400 . S
C1136 H1121 0.960 . S
C1136 H1122 0.960 . S
C1136 H1123 0.960 . S
C1136 C1135 1.524 . S
C1137 C1134 1.403 . S
C1137 C1138 1.392 . S
C1137 C1141 1.495 . S
C1138 C1137 1.392 . S
C1138 C1139 1.385 . S
C1138 C1140 1.478 . S
C1139 H1133 0.930 . S
C1139 C1135 1.400 . S
C1139 C1138 1.385 . S
C1140 C1138 1.478 . S
C1140 C1142 1.381 . S
C1140 C1146 1.383 . S
C1141 C1137 1.495 . S
C1141 H1147 0.959 . S
C1141 H1148 0.961 . S
C1141 H1149 0.960 . S
C1142 C1140 1.381 . S
C1142 C1143 1.394 . S
C1142 H1150 0.930 . S
C1143 C1142 1.394 . S
C1143 C1144 1.383 . S
C1143 H1151 0.929 . S
C1144 C1143 1.383 . S
C1144 C1145 1.377 . S
C1145 H1129 0.930 . S
C1145 C1144 1.377 . S
C1145 C1146 1.379 . S
C1146 H1130 0.931 . S
C1146 C1140 1.383 . S
C1146 C1145 1.379 . S
H1147 C1141 0.959 . S
H1148 C1141 0.961 . S
H1149 C1141 0.960 . S
H1150 C1142 0.930 . S
H1151 C1143 0.929 . S
H1152 C1160 0.929 . S
H1153 C1162 0.930 . S
H1154 C1164 0.930 . S
H1155 C1167 0.929 . S
H1156 C1170 0.930 . S
H1157 C1172 0.960 . S
H1158 C1172 0.960 . S
H1159 C1172 0.960 . S
C1160 H1152 0.929 . S
C1160 C1161 1.377 . S
C1160 C1162 1.384 . S
C1161 C1160 1.377 . S
C1161 C1167 1.390 . S
C1162 H1153 0.930 . S
C1162 C1160 1.384 . S
C1162 C1163 1.372 1_565 S
C1163 C1162 1.372 1_545 S
C1163 C1164 1.400 . S
C1163 C1168 1.490 . S
C1164 H1154 0.930 . S
C1164 C1163 1.400 . S
C1164 C1167 1.386 1_545 S
H1165 C1181 0.930 . S
H1166 C1182 0.931 . S
C1167 H1155 0.929 . S
C1167 C1161 1.390 . S
C1167 C1164 1.386 1_565 S
C1168 C1163 1.490 . S
C1168 C1170 1.395 . S
C1168 C1171 1.403 . S
H1169 C1175 0.930 . S
C1170 H1156 0.930 . S
C1170 C1168 1.395 . S
C1170 C1173 1.403 . S
C1171 C1168 1.403 . S
C1171 C1172 1.524 . S
C1171 C1175 1.400 . S
C1172 H1157 0.960 . S
C1172 H1158 0.960 . S
C1172 H1159 0.960 . S
C1172 C1171 1.524 . S
C1173 C1170 1.403 . S
C1173 C1174 1.392 . S
C1173 C1177 1.495 . S
C1174 C1173 1.392 . S
C1174 C1175 1.385 . S
C1174 C1176 1.478 . S
C1175 H1169 0.930 . S
C1175 C1171 1.400 . S
C1175 C1174 1.385 . S
C1176 C1174 1.478 . S
C1176 C1178 1.381 . S
C1176 C1182 1.383 . S
C1177 C1173 1.495 . S
C1177 H1183 0.959 . S
C1177 H1184 0.961 . S
C1177 H1185 0.960 . S
C1178 C1176 1.381 . S
C1178 C1179 1.394 . S
C1178 H1186 0.930 . S
C1179 C1178 1.394 . S
C1179 C1180 1.383 . S
C1179 H1187 0.929 . S
C1180 C1179 1.383 . S
C1180 C1181 1.377 . S
C1181 H1165 0.930 . S
C1181 C1180 1.377 . S
C1181 C1182 1.379 . S
C1182 H1166 0.931 . S
C1182 C1176 1.383 . S
C1182 C1181 1.379 . S
H1183 C1177 0.959 . S
H1184 C1177 0.961 . S
H1185 C1177 0.960 . S
H1186 C1178 0.930 . S
H1187 C1179 0.929 . S
H1188 C1196 0.929 . S
H1189 C1198 0.930 . S
H1190 C1200 0.930 . S
H1191 C1203 0.929 . S
H1192 C1206 0.930 . S
H1193 C1208 0.960 . S
H1194 C1208 0.960 . S
H1195 C1208 0.960 . S
C1196 H1188 0.929 . S
C1196 C1197 1.377 . S
C1196 C1198 1.384 . S
C1197 C1196 1.377 . S
C1197 C1203 1.390 . S
C1198 H1189 0.930 . S
C1198 C1196 1.384 . S
C1198 C1199 1.372 . S
C1199 C1198 1.372 . S
C1199 C1200 1.400 . S
C1199 C1204 1.490 . S
C1200 H1190 0.930 . S
C1200 C1199 1.400 . S
C1200 C1203 1.386 . S
H1201 C1217 0.930 . S
H1202 C1218 0.931 . S
C1203 H1191 0.929 . S
C1203 C1197 1.390 . S
C1203 C1200 1.386 . S
C1204 C1199 1.490 . S
C1204 C1206 1.395 . S
C1204 C1207 1.403 . S
H1205 C1211 0.930 . S
C1206 H1192 0.930 . S
C1206 C1204 1.395 . S
C1206 C1209 1.403 . S
C1207 C1204 1.403 . S
C1207 C1208 1.524 . S
C1207 C1211 1.400 . S
C1208 H1193 0.960 . S
C1208 H1194 0.960 . S
C1208 H1195 0.960 . S
C1208 C1207 1.524 . S
C1209 C1206 1.403 . S
C1209 C1210 1.392 . S
C1209 C1213 1.495 . S
C1210 C1209 1.392 . S
C1210 C1211 1.385 . S
C1210 C1212 1.478 . S
C1211 H1205 0.930 . S
C1211 C1207 1.400 . S
C1211 C1210 1.385 . S
C1212 C1210 1.478 . S
C1212 C1214 1.381 . S
C1212 C1218 1.383 . S
C1213 C1209 1.495 . S
C1213 H1219 0.959 . S
C1213 H1220 0.961 . S
C1213 H1221 0.960 . S
C1214 C1212 1.381 . S
C1214 C1215 1.394 . S
C1214 H1222 0.930 . S
C1215 C1214 1.394 . S
C1215 C1216 1.383 . S
C1215 H1223 0.929 . S
C1216 C1215 1.383 . S
C1216 C1217 1.377 . S
C1217 H1201 0.930 . S
C1217 C1216 1.377 . S
C1217 C1218 1.379 . S
C1218 H1202 0.931 . S
C1218 C1212 1.383 . S
C1218 C1217 1.379 . S
H1219 C1213 0.959 . S
H1220 C1213 0.961 . S
H1221 C1213 0.960 . S
H1222 C1214 0.930 . S
H1223 C1215 0.929 . S
H1224 C1232 0.929 . S
H1225 C1234 0.930 . S
H1226 C1236 0.930 . S
H1227 C1239 0.929 . S
H1228 C1242 0.930 . S
H1229 C1244 0.960 . S
H1230 C1244 0.960 . S
H1231 C1244 0.960 . S
C1232 H1224 0.929 . S
C1232 C1233 1.377 . S
C1232 C1234 1.384 . S
C1233 C1232 1.377 . S
C1233 C1239 1.390 . S
C1234 H1225 0.930 . S
C1234 C1232 1.384 . S
C1234 C1235 1.372 . S
C1235 C1234 1.372 . S
C1235 C1236 1.400 . S
C1235 C1240 1.490 . S
C1236 H1226 0.930 . S
C1236 C1235 1.400 . S
C1236 C1239 1.386 . S
H1237 C1253 0.930 . S
H1238 C1254 0.931 . S
C1239 H1227 0.929 . S
C1239 C1233 1.390 . S
C1239 C1236 1.386 . S
C1240 C1235 1.490 . S
C1240 C1242 1.395 . S
C1240 C1243 1.403 . S
H1241 C1247 0.930 . S
C1242 H1228 0.930 . S
C1242 C1240 1.395 . S
C1242 C1245 1.403 . S
C1243 C1240 1.403 . S
C1243 C1244 1.524 . S
C1243 C1247 1.400 . S
C1244 H1229 0.960 . S
C1244 H1230 0.960 . S
C1244 H1231 0.960 . S
C1244 C1243 1.524 . S
C1245 C1242 1.403 . S
C1245 C1246 1.392 . S
C1245 C1249 1.495 . S
C1246 C1245 1.392 . S
C1246 C1247 1.385 . S
C1246 C1248 1.478 . S
C1247 H1241 0.930 . S
C1247 C1243 1.400 . S
C1247 C1246 1.385 . S
C1248 C1246 1.478 . S
C1248 C1250 1.381 . S
C1248 C1254 1.383 . S
C1249 C1245 1.495 . S
C1249 H1255 0.959 . S
C1249 H1256 0.961 . S
C1249 H1257 0.960 . S
C1250 C1248 1.381 . S
C1250 C1251 1.394 . S
C1250 H1258 0.930 . S
C1251 C1250 1.394 . S
C1251 C1252 1.383 . S
C1251 H1259 0.929 . S
C1252 C1251 1.383 . S
C1252 C1253 1.377 . S
C1253 H1237 0.930 . S
C1253 C1252 1.377 . S
C1253 C1254 1.379 . S
C1254 H1238 0.931 . S
C1254 C1248 1.383 . S
C1254 C1253 1.379 . S
H1255 C1249 0.959 . S
H1256 C1249 0.961 . S
H1257 C1249 0.960 . S
H1258 C1250 0.930 . S
H1259 C1251 0.929 . S
H1260 C1268 0.929 . S
H1261 C1270 0.930 . S
H1262 C1272 0.930 . S
H1263 C1275 0.929 . S
H1264 C1278 0.930 . S
H1265 C1280 0.960 . S
H1266 C1280 0.960 . S
H1267 C1280 0.960 . S
C1268 H1260 0.929 . S
C1268 C1269 1.377 . S
C1268 C1270 1.384 . S
C1269 C1268 1.377 . S
C1269 C1275 1.390 . S
C1270 H1261 0.930 . S
C1270 C1268 1.384 . S
C1270 C1271 1.372 . S
C1271 C1270 1.372 . S
C1271 C1272 1.400 . S
C1271 C1276 1.490 . S
C1272 H1262 0.930 . S
C1272 C1271 1.400 . S
C1272 C1275 1.386 . S
H1273 C1289 0.930 . S
H1274 C1290 0.931 . S
C1275 H1263 0.929 . S
C1275 C1269 1.390 . S
C1275 C1272 1.386 . S
C1276 C1271 1.490 . S
C1276 C1278 1.395 . S
C1276 C1279 1.403 . S
H1277 C1283 0.930 . S
C1278 H1264 0.930 . S
C1278 C1276 1.395 . S
C1278 C1281 1.403 . S
C1279 C1276 1.403 . S
C1279 C1280 1.524 . S
C1279 C1283 1.400 . S
C1280 H1265 0.960 . S
C1280 H1266 0.960 . S
C1280 H1267 0.960 . S
C1280 C1279 1.524 . S
C1281 C1278 1.403 . S
C1281 C1282 1.392 . S
C1281 C1285 1.495 . S
C1282 C1281 1.392 . S
C1282 C1283 1.385 . S
C1282 C1284 1.478 . S
C1283 H1277 0.930 . S
C1283 C1279 1.400 . S
C1283 C1282 1.385 . S
C1284 C1282 1.478 . S
C1284 C1286 1.381 . S
C1284 C1290 1.383 . S
C1285 C1281 1.495 . S
C1285 H1291 0.959 . S
C1285 H1292 0.961 . S
C1285 H1293 0.960 . S
C1286 C1284 1.381 . S
C1286 C1287 1.394 . S
C1286 H1294 0.930 . S
C1287 C1286 1.394 . S
C1287 C1288 1.383 . S
C1287 H1295 0.929 . S
C1288 C1287 1.383 . S
C1288 C1289 1.377 . S
C1289 H1273 0.930 . S
C1289 C1288 1.377 . S
C1289 C1290 1.379 . S
C1290 H1274 0.931 . S
C1290 C1284 1.383 . S
C1290 C1289 1.379 . S
H1291 C1285 0.959 . S
H1292 C1285 0.961 . S
H1293 C1285 0.960 . S
H1294 C1286 0.930 . S
H1295 C1287 0.929 . S
H1296 C1304 0.929 . S
H1297 C1306 0.930 . S
H1298 C1308 0.930 . S
H1299 C1311 0.929 . S
H1300 C1314 0.930 . S
H1301 C1316 0.960 . S
H1302 C1316 0.960 . S
H1303 C1316 0.960 . S
C1304 H1296 0.929 . S
C1304 C1305 1.377 . S
C1304 C1306 1.384 . S
C1305 C1304 1.377 . S
C1305 C1311 1.390 . S
C1306 H1297 0.930 . S
C1306 C1304 1.384 . S
C1306 C1307 1.372 . S
C1307 C1306 1.372 . S
C1307 C1308 1.400 . S
C1307 C1312 1.490 . S
C1308 H1298 0.930 . S
C1308 C1307 1.400 . S
C1308 C1311 1.386 . S
H1309 C1325 0.930 . S
H1310 C1326 0.931 . S
C1311 H1299 0.929 . S
C1311 C1305 1.390 . S
C1311 C1308 1.386 . S
C1312 C1307 1.490 . S
C1312 C1314 1.395 . S
C1312 C1315 1.403 . S
H1313 C1319 0.930 . S
C1314 H1300 0.930 . S
C1314 C1312 1.395 . S
C1314 C1317 1.403 . S
C1315 C1312 1.403 . S
C1315 C1316 1.524 . S
C1315 C1319 1.400 . S
C1316 H1301 0.960 . S
C1316 H1302 0.960 . S
C1316 H1303 0.960 . S
C1316 C1315 1.524 . S
C1317 C1314 1.403 . S
C1317 C1318 1.392 . S
C1317 C1321 1.495 . S
C1318 C1317 1.392 . S
C1318 C1319 1.385 . S
C1318 C1320 1.478 . S
C1319 H1313 0.930 . S
C1319 C1315 1.400 . S
C1319 C1318 1.385 . S
C1320 C1318 1.478 . S
C1320 C1322 1.381 . S
C1320 C1326 1.383 . S
C1321 C1317 1.495 . S
C1321 H1327 0.959 . S
C1321 H1328 0.961 . S
C1321 H1329 0.960 . S
C1322 C1320 1.381 . S
C1322 C1323 1.394 . S
C1322 H1330 0.930 . S
C1323 C1322 1.394 . S
C1323 C1324 1.383 . S
C1323 H1331 0.929 . S
C1324 C1323 1.383 . S
C1324 C1325 1.377 . S
C1325 H1309 0.930 . S
C1325 C1324 1.377 . S
C1325 C1326 1.379 . S
C1326 H1310 0.931 . S
C1326 C1320 1.383 . S
C1326 C1325 1.379 . S
H1327 C1321 0.959 . S
H1328 C1321 0.961 . S
H1329 C1321 0.960 . S
H1330 C1322 0.930 . S
H1331 C1323 0.929 . S
H1332 C1340 0.929 . S
H1333 C1342 0.930 . S
H1334 C1344 0.930 . S
H1335 C1347 0.929 . S
H1336 C1350 0.930 . S
H1337 C1352 0.960 . S
H1338 C1352 0.960 . S
H1339 C1352 0.960 . S
C1340 H1332 0.929 . S
C1340 C1341 1.377 . S
C1340 C1342 1.384 . S
C1341 C1340 1.377 . S
C1341 C1347 1.390 . S
C1342 H1333 0.930 . S
C1342 C1340 1.384 . S
C1342 C1343 1.372 . S
C1343 C1342 1.372 . S
C1343 C1344 1.400 . S
C1343 C1348 1.490 . S
C1344 H1334 0.930 . S
C1344 C1343 1.400 . S
C1344 C1347 1.386 . S
H1345 C1361 0.930 . S
H1346 C1362 0.931 . S
C1347 H1335 0.929 . S
C1347 C1341 1.390 . S
C1347 C1344 1.386 . S
C1348 C1343 1.490 . S
C1348 C1350 1.395 . S
C1348 C1351 1.403 . S
H1349 C1355 0.930 . S
C1350 H1336 0.930 . S
C1350 C1348 1.395 . S
C1350 C1353 1.403 . S
C1351 C1348 1.403 . S
C1351 C1352 1.524 . S
C1351 C1355 1.400 . S
C1352 H1337 0.960 . S
C1352 H1338 0.960 . S
C1352 H1339 0.960 . S
C1352 C1351 1.524 . S
C1353 C1350 1.403 . S
C1353 C1354 1.392 . S
C1353 C1357 1.495 . S
C1354 C1353 1.392 . S
C1354 C1355 1.385 . S
C1354 C1356 1.478 . S
C1355 H1349 0.930 . S
C1355 C1351 1.400 . S
C1355 C1354 1.385 . S
C1356 C1354 1.478 . S
C1356 C1358 1.381 . S
C1356 C1362 1.383 . S
C1357 C1353 1.495 . S
C1357 H1363 0.959 . S
C1357 H1364 0.961 . S
C1357 H1365 0.960 . S
C1358 C1356 1.381 . S
C1358 C1359 1.394 . S
C1358 H1366 0.930 . S
C1359 C1358 1.394 . S
C1359 C1360 1.383 . S
C1359 H1367 0.929 . S
C1360 C1359 1.383 . S
C1360 C1361 1.377 . S
C1361 H1345 0.930 . S
C1361 C1360 1.377 . S
C1361 C1362 1.379 . S
C1362 H1346 0.931 . S
C1362 C1356 1.383 . S
C1362 C1361 1.379 . S
H1363 C1357 0.959 . S
H1364 C1357 0.961 . S
H1365 C1357 0.960 . S
H1366 C1358 0.930 . S
H1367 C1359 0.929 . S
H1368 C1376 0.929 . S
H1369 C1378 0.930 . S
H1370 C1380 0.930 . S
H1371 C1383 0.929 . S
H1372 C1386 0.930 . S
H1373 C1388 0.960 . S
H1374 C1388 0.960 . S
H1375 C1388 0.960 . S
C1376 H1368 0.929 . S
C1376 C1377 1.377 . S
C1376 C1378 1.384 . S
C1377 C1376 1.377 . S
C1377 C1383 1.390 . S
C1378 H1369 0.930 . S
C1378 C1376 1.384 . S
C1378 C1379 1.372 . S
C1379 C1378 1.372 . S
C1379 C1380 1.400 . S
C1379 C1384 1.490 . S
C1380 H1370 0.930 . S
C1380 C1379 1.400 . S
C1380 C1383 1.386 . S
H1381 C1397 0.930 . S
H1382 C1398 0.931 . S
C1383 H1371 0.929 . S
C1383 C1377 1.390 . S
C1383 C1380 1.386 . S
C1384 C1379 1.490 . S
C1384 C1386 1.395 . S
C1384 C1387 1.403 . S
H1385 C1391 0.930 . S
C1386 H1372 0.930 . S
C1386 C1384 1.395 . S
C1386 C1389 1.403 . S
C1387 C1384 1.403 . S
C1387 C1388 1.524 . S
C1387 C1391 1.400 . S
C1388 H1373 0.960 . S
C1388 H1374 0.960 . S
C1388 H1375 0.960 . S
C1388 C1387 1.524 . S
C1389 C1386 1.403 . S
C1389 C1390 1.392 . S
C1389 C1393 1.495 . S
C1390 C1389 1.392 . S
C1390 C1391 1.385 . S
C1390 C1392 1.478 . S
C1391 H1385 0.930 . S
C1391 C1387 1.400 . S
C1391 C1390 1.385 . S
C1392 C1390 1.478 . S
C1392 C1394 1.381 . S
C1392 C1398 1.383 . S
C1393 C1389 1.495 . S
C1393 H1399 0.959 . S
C1393 H1400 0.961 . S
C1393 H1401 0.960 . S
C1394 C1392 1.381 . S
C1394 C1395 1.394 . S
C1394 H1402 0.930 . S
C1395 C1394 1.394 . S
C1395 C1396 1.383 . S
C1395 H1403 0.929 . S
C1396 C1395 1.383 . S
C1396 C1397 1.377 . S
C1397 H1381 0.930 . S
C1397 C1396 1.377 . S
C1397 C1398 1.379 . S
C1398 H1382 0.931 . S
C1398 C1392 1.383 . S
C1398 C1397 1.379 . S
H1399 C1393 0.959 . S
H1400 C1393 0.961 . S
H1401 C1393 0.960 . S
H1402 C1394 0.930 . S
H1403 C1395 0.929 . S
H1404 C1412 0.929 . S
H1405 C1414 0.930 . S
H1406 C1416 0.930 . S
H1407 C1419 0.929 . S
H1408 C1422 0.930 . S
H1409 C1424 0.960 . S
H1410 C1424 0.960 . S
H1411 C1424 0.960 . S
C1412 H1404 0.929 . S
C1412 C1413 1.377 . S
C1412 C1414 1.384 . S
C1413 C1412 1.377 . S
C1413 C1419 1.390 . S
C1414 H1405 0.930 . S
C1414 C1412 1.384 . S
C1414 C1415 1.372 . S
C1415 C1414 1.372 . S
C1415 C1416 1.400 . S
C1415 C1420 1.490 . S
C1416 H1406 0.930 . S
C1416 C1415 1.400 . S
C1416 C1419 1.386 . S
H1417 C1433 0.930 . S
H1418 C1434 0.931 . S
C1419 H1407 0.929 . S
C1419 C1413 1.390 . S
C1419 C1416 1.386 . S
C1420 C1415 1.490 . S
C1420 C1422 1.395 . S
C1420 C1423 1.403 . S
H1421 C1427 0.930 . S
C1422 H1408 0.930 . S
C1422 C1420 1.395 . S
C1422 C1425 1.403 . S
C1423 C1420 1.403 . S
C1423 C1424 1.524 . S
C1423 C1427 1.400 . S
C1424 H1409 0.960 . S
C1424 H1410 0.960 . S
C1424 H1411 0.960 . S
C1424 C1423 1.524 . S
C1425 C1422 1.403 . S
C1425 C1426 1.392 . S
C1425 C1429 1.495 . S
C1426 C1425 1.392 . S
C1426 C1427 1.385 . S
C1426 C1428 1.478 . S
C1427 H1421 0.930 . S
C1427 C1423 1.400 . S
C1427 C1426 1.385 . S
C1428 C1426 1.478 . S
C1428 C1430 1.381 . S
C1428 C1434 1.383 . S
C1429 C1425 1.495 . S
C1429 H1435 0.959 . S
C1429 H1436 0.961 . S
C1429 H1437 0.960 . S
C1430 C1428 1.381 . S
C1430 C1431 1.394 1_455 S
C1430 H1438 0.933 . S
C1431 C1430 1.394 1_655 S
C1431 C1432 1.383 . S
C1431 H1439 0.929 . S
C1432 C1431 1.383 . S
C1432 C1433 1.377 1_655 S
C1433 H1417 0.930 . S
C1433 C1432 1.377 1_455 S
C1433 C1434 1.379 . S
C1434 H1418 0.931 . S
C1434 C1428 1.383 . S
C1434 C1433 1.379 . S
H1435 C1429 0.959 . S
H1436 C1429 0.961 . S
H1437 C1429 0.960 . S
H1438 C1430 0.933 . S
H1439 C1431 0.929 . S
H1440 C1448 0.929 . S
H1441 C1450 0.930 . S
H1442 C1452 0.930 . S
H1443 C1455 0.929 . S
H1444 C1458 0.930 . S
H1445 C1460 0.960 . S
H1446 C1460 0.960 . S
H1447 C1460 0.960 . S
C1448 H1440 0.929 . S
C1448 C1449 1.377 . S
C1448 C1450 1.384 . S
C1449 C1448 1.377 . S
C1449 C1455 1.390 . S
C1450 H1441 0.930 . S
C1450 C1448 1.384 . S
C1450 C1451 1.372 . S
C1451 C1450 1.372 . S
C1451 C1452 1.400 . S
C1451 C1456 1.490 . S
C1452 H1442 0.930 . S
C1452 C1451 1.400 . S
C1452 C1455 1.386 . S
H1453 C1469 0.930 . S
H1454 C1470 0.931 . S
C1455 H1443 0.929 . S
C1455 C1449 1.390 . S
C1455 C1452 1.386 . S
C1456 C1451 1.490 . S
C1456 C1458 1.395 . S
C1456 C1459 1.403 . S
H1457 C1463 0.930 . S
C1458 H1444 0.930 . S
C1458 C1456 1.395 . S
C1458 C1461 1.403 . S
C1459 C1456 1.403 . S
C1459 C1460 1.524 . S
C1459 C1463 1.400 . S
C1460 H1445 0.960 . S
C1460 H1446 0.960 . S
C1460 H1447 0.960 . S
C1460 C1459 1.524 . S
C1461 C1458 1.403 . S
C1461 C1462 1.392 . S
C1461 C1465 1.495 . S
C1462 C1461 1.392 . S
C1462 C1463 1.385 . S
C1462 C1464 1.478 . S
C1463 H1457 0.930 . S
C1463 C1459 1.400 . S
C1463 C1462 1.385 . S
C1464 C1462 1.478 . S
C1464 C1466 1.381 . S
C1464 C1470 1.383 . S
C1465 C1461 1.495 . S
C1465 H1471 0.959 . S
C1465 H1472 0.961 . S
C1465 H1473 0.960 . S
C1466 C1464 1.381 . S
C1466 C1467 1.394 . S
C1466 H1474 0.930 . S
C1467 C1466 1.394 . S
C1467 C1468 1.383 . S
C1467 H1475 0.929 . S
C1468 C1467 1.383 . S
C1468 C1469 1.377 . S
C1469 H1453 0.930 . S
C1469 C1468 1.377 . S
C1469 C1470 1.379 . S
C1470 H1454 0.931 . S
C1470 C1464 1.383 . S
C1470 C1469 1.379 . S
H1471 C1465 0.959 . S
H1472 C1465 0.961 . S
H1473 C1465 0.960 . S
H1474 C1466 0.930 . S
H1475 C1467 0.929 . S
H1476 C1484 0.929 . S
H1477 C1486 0.930 . S
H1478 C1488 0.930 . S
H1479 C1491 0.929 . S
H1480 C1494 0.930 . S
H1481 C1496 0.960 . S
H1482 C1496 0.960 . S
H1483 C1496 0.960 1_655 S
C1484 H1476 0.929 . S
C1484 C1485 1.377 . S
C1484 C1486 1.384 . S
C1485 C1484 1.377 . S
C1485 C1491 1.390 . S
C1486 H1477 0.930 . S
C1486 C1484 1.384 . S
C1486 C1487 1.372 . S
C1487 C1486 1.372 . S
C1487 C1488 1.400 . S
C1487 C1492 1.490 . S
C1488 H1478 0.930 . S
C1488 C1487 1.400 . S
C1488 C1491 1.386 . S
H1489 C1505 0.930 . S
H1490 C1506 0.931 . S
C1491 H1479 0.929 . S
C1491 C1485 1.390 . S
C1491 C1488 1.386 . S
C1492 C1487 1.490 . S
C1492 C1494 1.395 . S
C1492 C1495 1.403 . S
H1493 C1499 0.930 . S
C1494 H1480 0.930 . S
C1494 C1492 1.395 . S
C1494 C1497 1.403 . S
C1495 C1492 1.403 . S
C1495 C1496 1.524 1_655 S
C1495 C1499 1.400 1_655 S
C1496 H1481 0.960 . S
C1496 H1482 0.960 . S
C1496 H1483 0.960 1_455 S
C1496 C1495 1.524 1_455 S
C1497 C1494 1.403 . S
C1497 C1498 1.392 1_655 S
C1497 C1501 1.495 . S
C1498 C1497 1.392 1_455 S
C1498 C1499 1.385 . S
C1498 C1500 1.478 . S
C1499 H1493 0.930 . S
C1499 C1495 1.400 1_455 S
C1499 C1498 1.385 . S
C1500 C1498 1.478 . S
C1500 C1502 1.381 . S
C1500 C1506 1.383 . S
C1501 C1497 1.495 . S
C1501 H1507 0.959 . S
C1501 H1508 0.961 . S
C1501 H1509 0.960 . S
C1502 C1500 1.381 . S
C1502 C1503 1.394 . S
C1502 H1510 0.930 . S
C1503 C1502 1.394 . S
C1503 C1504 1.383 . S
C1503 H1511 0.929 . S
C1504 C1503 1.383 . S
C1504 C1505 1.377 . S
C1505 H1489 0.930 . S
C1505 C1504 1.377 . S
C1505 C1506 1.379 . S
C1506 H1490 0.931 . S
C1506 C1500 1.383 . S
C1506 C1505 1.379 . S
H1507 C1501 0.959 . S
H1508 C1501 0.961 . S
H1509 C1501 0.960 . S
H1510 C1502 0.930 . S
H1511 C1503 0.929 . S
H1512 C1520 0.929 . S
H1513 C1522 0.930 . S
H1514 C1524 0.930 . S
H1515 C1527 0.929 . S
H1516 C1530 0.930 . S
H1517 C1532 0.960 . S
H1518 C1532 0.960 . S
H1519 C1532 0.960 . S
C1520 H1512 0.929 . S
C1520 C1521 1.377 . S
C1520 C1522 1.384 . S
C1521 C1520 1.377 . S
C1521 C1527 1.390 . S
C1522 H1513 0.930 . S
C1522 C1520 1.384 . S
C1522 C1523 1.372 . S
C1523 C1522 1.372 . S
C1523 C1524 1.400 . S
C1523 C1528 1.490 . S
C1524 H1514 0.930 . S
C1524 C1523 1.400 . S
C1524 C1527 1.386 . S
H1525 C1541 0.930 . S
H1526 C1542 0.931 . S
C1527 H1515 0.929 . S
C1527 C1521 1.390 . S
C1527 C1524 1.386 . S
C1528 C1523 1.490 . S
C1528 C1530 1.395 . S
C1528 C1531 1.403 . S
H1529 C1535 0.930 . S
C1530 H1516 0.930 . S
C1530 C1528 1.395 . S
C1530 C1533 1.403 . S
C1531 C1528 1.403 . S
C1531 C1532 1.524 . S
C1531 C1535 1.400 . S
C1532 H1517 0.960 . S
C1532 H1518 0.960 . S
C1532 H1519 0.960 . S
C1532 C1531 1.524 . S
C1533 C1530 1.403 . S
C1533 C1534 1.392 . S
C1533 C1537 1.495 . S
C1534 C1533 1.392 . S
C1534 C1535 1.385 . S
C1534 C1536 1.478 . S
C1535 H1529 0.930 . S
C1535 C1531 1.400 . S
C1535 C1534 1.385 . S
C1536 C1534 1.478 . S
C1536 C1538 1.381 . S
C1536 C1542 1.383 . S
C1537 C1533 1.495 . S
C1537 H1543 0.959 . S
C1537 H1544 0.961 . S
C1537 H1545 0.960 . S
C1538 C1536 1.381 . S
C1538 C1539 1.394 . S
C1538 H1546 0.930 . S
C1539 C1538 1.394 . S
C1539 C1540 1.383 . S
C1539 H1547 0.929 . S
C1540 C1539 1.383 . S
C1540 C1541 1.377 . S
C1541 H1525 0.930 . S
C1541 C1540 1.377 . S
C1541 C1542 1.379 . S
C1542 H1526 0.931 . S
C1542 C1536 1.383 . S
C1542 C1541 1.379 . S
H1543 C1537 0.959 . S
H1544 C1537 0.961 . S
H1545 C1537 0.960 . S
H1546 C1538 0.930 . S
H1547 C1539 0.929 . S
H1548 C1556 0.929 . S
H1549 C1558 0.930 . S
H1550 C1560 0.930 1_556 S
H1551 C1563 0.929 . S
H1552 C1566 0.930 1_554 S
H1553 C1568 0.960 . S
H1554 C1568 0.960 . S
H1555 C1568 0.960 . S
C1556 H1548 0.929 . S
C1556 C1557 1.377 . S
C1556 C1558 1.384 . S
C1557 C1556 1.377 . S
C1557 C1563 1.390 . S
C1558 H1549 0.930 . S
C1558 C1556 1.384 . S
C1558 C1559 1.376 . S
C1559 C1558 1.376 . S
C1559 C1560 1.402 . S
C1559 C1564 1.484 1_554 S
C1560 H1550 0.930 1_554 S
C1560 C1559 1.402 . S
C1560 C1563 1.386 . S
H1561 C1577 0.930 . S
H1562 C1578 0.931 . S
C1563 H1551 0.929 . S
C1563 C1557 1.390 . S
C1563 C1560 1.386 . S
C1564 C1559 1.484 1_556 S
C1564 C1566 1.395 . S
C1564 C1567 1.403 . S
H1565 C1571 0.930 . S
C1566 H1552 0.930 1_556 S
C1566 C1564 1.395 . S
C1566 C1569 1.403 . S
C1567 C1564 1.403 . S
C1567 C1568 1.524 . S
C1567 C1571 1.400 . S
C1568 H1553 0.960 . S
C1568 H1554 0.960 . S
C1568 H1555 0.960 . S
C1568 C1567 1.524 . S
C1569 C1566 1.403 . S
C1569 C1570 1.392 . S
C1569 C1573 1.495 . S
C1570 C1569 1.392 . S
C1570 C1571 1.385 . S
C1570 C1572 1.478 . S
C1571 H1565 0.930 . S
C1571 C1567 1.400 . S
C1571 C1570 1.385 . S
C1572 C1570 1.478 . S
C1572 C1574 1.381 . S
C1572 C1578 1.383 . S
C1573 C1569 1.495 . S
C1573 H1579 0.994 . S
C1573 H1580 0.961 . S
C1573 H1581 0.960 . S
C1574 C1572 1.381 . S
C1574 C1575 1.394 . S
C1574 H1582 0.930 . S
C1575 C1574 1.394 . S
C1575 C1576 1.383 . S
C1575 H1583 0.929 1_655 S
C1576 C1575 1.383 . S
C1576 C1577 1.377 . S
C1577 H1561 0.930 . S
C1577 C1576 1.377 . S
C1577 C1578 1.379 . S
C1578 H1562 0.931 . S
C1578 C1572 1.383 . S
C1578 C1577 1.379 . S
H1579 C1573 0.994 . S
H1580 C1573 0.961 . S
H1581 C1573 0.960 . S
H1582 C1574 0.930 . S
H1583 C1575 0.929 1_455 S
H1584 C1592 0.929 . S
H1585 C1594 0.930 . S
H1586 C1596 0.930 . S
H1587 C1599 0.929 . S
H1588 C1602 0.930 . S
H1589 C1604 0.960 . S
H1590 C1604 0.960 . S
H1591 C1604 0.960 . S
C1592 H1584 0.929 . S
C1592 C1593 1.377 . S
C1592 C1594 1.384 . S
C1593 C1592 1.377 . S
C1593 C1599 1.390 . S
C1594 H1585 0.930 . S
C1594 C1592 1.384 . S
C1594 C1595 1.372 . S
C1595 C1594 1.372 . S
C1595 C1596 1.400 . S
C1595 C1600 1.490 . S
C1596 H1586 0.930 . S
C1596 C1595 1.400 . S
C1596 C1599 1.386 . S
H1597 C1613 0.930 . S
H1598 C1614 0.931 . S
C1599 H1587 0.929 . S
C1599 C1593 1.390 . S
C1599 C1596 1.386 . S
C1600 C1595 1.490 . S
C1600 C1602 1.395 . S
C1600 C1603 1.403 . S
H1601 C1607 0.930 . S
C1602 H1588 0.930 . S
C1602 C1600 1.395 . S
C1602 C1605 1.403 . S
C1603 C1600 1.403 . S
C1603 C1604 1.524 . S
C1603 C1607 1.400 . S
C1604 H1589 0.960 . S
C1604 H1590 0.960 . S
C1604 H1591 0.960 . S
C1604 C1603 1.524 . S
C1605 C1602 1.403 . S
C1605 C1606 1.392 . S
C1605 C1609 1.495 . S
C1606 C1605 1.392 . S
C1606 C1607 1.385 . S
C1606 C1608 1.478 . S
C1607 H1601 0.930 . S
C1607 C1603 1.400 . S
C1607 C1606 1.385 . S
C1608 C1606 1.478 . S
C1608 C1610 1.381 . S
C1608 C1614 1.383 . S
C1609 C1605 1.495 . S
C1609 H1615 0.959 . S
C1609 H1616 0.961 . S
C1609 H1617 0.960 . S
C1610 C1608 1.381 . S
C1610 C1611 1.394 . S
C1610 H1618 0.930 . S
C1611 C1610 1.394 . S
C1611 C1612 1.383 . S
C1611 H1619 0.929 . S
C1612 C1611 1.383 . S
C1612 C1613 1.377 . S
C1613 H1597 0.930 . S
C1613 C1612 1.377 . S
C1613 C1614 1.379 . S
C1614 H1598 0.931 . S
C1614 C1608 1.383 . S
C1614 C1613 1.379 . S
H1615 C1609 0.959 . S
H1616 C1609 0.961 . S
H1617 C1609 0.960 . S
H1618 C1610 0.930 . S
H1619 C1611 0.929 . S
H1620 C1628 0.929 . S
H1621 C1630 0.930 . S
H1622 C1632 0.930 . S
H1623 C1635 0.929 . S
H1624 C1638 0.930 . S
H1625 C1640 0.960 . S
H1626 C1640 0.960 . S
H1627 C1640 0.960 . S
C1628 H1620 0.929 . S
C1628 C1629 1.377 . S
C1628 C1630 1.384 . S
C1629 C1628 1.377 . S
C1629 C1635 1.390 . S
C1630 H1621 0.930 . S
C1630 C1628 1.384 . S
C1630 C1631 1.372 . S
C1631 C1630 1.372 . S
C1631 C1632 1.400 . S
C1631 C1636 1.490 . S
C1632 H1622 0.930 . S
C1632 C1631 1.400 . S
C1632 C1635 1.386 . S
H1633 C1649 0.930 . S
H1634 C1650 0.931 . S
C1635 H1623 0.929 . S
C1635 C1629 1.390 . S
C1635 C1632 1.386 . S
C1636 C1631 1.490 . S
C1636 C1638 1.395 1_554 S
C1636 C1639 1.403 . S
H1637 C1643 0.930 . S
C1638 H1624 0.930 . S
C1638 C1636 1.395 1_556 S
C1638 C1641 1.403 . S
C1639 C1636 1.403 . S
C1639 C1640 1.524 . S
C1639 C1643 1.400 1_554 S
C1640 H1625 0.960 . S
C1640 H1626 0.960 . S
C1640 H1627 0.960 . S
C1640 C1639 1.524 . S
C1641 C1638 1.403 . S
C1641 C1642 1.392 . S
C1641 C1645 1.495 . S
C1642 C1641 1.392 . S
C1642 C1643 1.385 . S
C1642 C1644 1.478 . S
C1643 H1637 0.930 . S
C1643 C1639 1.400 1_556 S
C1643 C1642 1.385 . S
C1644 C1642 1.478 . S
C1644 C1646 1.381 . S
C1644 C1650 1.383 . S
C1645 C1641 1.495 . S
C1645 H1651 0.959 . S
C1645 H1652 0.961 . S
C1645 H1653 0.960 . S
C1646 C1644 1.381 . S
C1646 C1647 1.394 . S
C1646 H1654 0.930 . S
C1647 C1646 1.394 . S
C1647 C1648 1.383 . S
C1647 H1655 0.929 . S
C1648 C1647 1.383 . S
C1648 C1649 1.377 . S
C1649 H1633 0.930 . S
C1649 C1648 1.377 . S
C1649 C1650 1.379 . S
C1650 H1634 0.931 . S
C1650 C1644 1.383 . S
C1650 C1649 1.379 . S
H1651 C1645 0.959 . S
H1652 C1645 0.961 . S
H1653 C1645 0.960 . S
H1654 C1646 0.930 . S
H1655 C1647 0.929 . S
H1656 C1664 0.929 . S
H1657 C1666 0.930 . S
H1658 C1668 0.930 . S
H1659 C1671 0.929 . S
H1660 C1674 0.930 . S
H1661 C1676 0.960 . S
H1662 C1676 0.960 . S
H1663 C1676 0.960 . S
C1664 H1656 0.929 . S
C1664 C1665 1.377 . S
C1664 C1666 1.384 . S
C1665 C1664 1.377 . S
C1665 C1671 1.390 . S
C1666 H1657 0.930 . S
C1666 C1664 1.384 . S
C1666 C1667 1.372 . S
C1667 C1666 1.372 . S
C1667 C1668 1.400 . S
C1667 C1672 1.490 . S
C1668 H1658 0.930 . S
C1668 C1667 1.400 . S
C1668 C1671 1.386 . S
H1669 C1685 0.930 . S
H1670 C1686 0.931 . S
C1671 H1659 0.929 . S
C1671 C1665 1.390 . S
C1671 C1668 1.386 . S
C1672 C1667 1.490 . S
C1672 C1674 1.395 . S
C1672 C1675 1.403 . S
H1673 C1679 0.930 . S
C1674 H1660 0.930 . S
C1674 C1672 1.395 . S
C1674 C1677 1.403 . S
C1675 C1672 1.403 . S
C1675 C1676 1.524 . S
C1675 C1679 1.400 . S
C1676 H1661 0.960 . S
C1676 H1662 0.960 . S
C1676 H1663 0.960 . S
C1676 C1675 1.524 . S
C1677 C1674 1.403 . S
C1677 C1678 1.392 . S
C1677 C1681 1.495 . S
C1678 C1677 1.392 . S
C1678 C1679 1.385 . S
C1678 C1680 1.478 . S
C1679 H1673 0.930 . S
C1679 C1675 1.400 . S
C1679 C1678 1.385 . S
C1680 C1678 1.478 . S
C1680 C1682 1.381 . S
C1680 C1686 1.383 . S
C1681 C1677 1.495 . S
C1681 H1687 0.959 . S
C1681 H1688 0.961 . S
C1681 H1689 0.960 . S
C1682 C1680 1.381 . S
C1682 C1683 1.394 . S
C1682 H1690 0.930 . S
C1683 C1682 1.394 . S
C1683 C1684 1.383 . S
C1683 H1691 0.929 . S
C1684 C1683 1.383 . S
C1684 C1685 1.377 . S
C1685 H1669 0.930 . S
C1685 C1684 1.377 . S
C1685 C1686 1.379 . S
C1686 H1670 0.931 . S
C1686 C1680 1.383 . S
C1686 C1685 1.379 . S
H1687 C1681 0.959 . S
H1688 C1681 0.961 . S
H1689 C1681 0.960 . S
H1690 C1682 0.930 . S
H1691 C1683 0.929 . S
H1692 C1700 0.929 . S
H1693 C1702 0.930 . S
H1694 C1704 0.930 . S
H1695 C1707 0.929 . S
H1696 C1710 0.893 1_556 S
H1697 C1712 0.960 . S
H1698 C1712 0.960 . S
H1699 C1712 0.960 . S
C1700 H1692 0.929 . S
C1700 C1701 1.377 . S
C1700 C1702 1.384 . S
C1701 C1700 1.377 . S
C1701 C1707 1.390 . S
C1702 H1693 0.930 . S
C1702 C1700 1.384 . S
C1702 C1703 1.372 . S
C1703 C1702 1.372 . S
C1703 C1704 1.400 . S
C1703 C1708 1.490 1_556 S
C1704 H1694 0.930 . S
C1704 C1703 1.400 . S
C1704 C1707 1.386 . S
H1705 C1721 0.930 . S
H1706 C1722 0.931 . S
C1707 H1695 0.929 . S
C1707 C1701 1.390 . S
C1707 C1704 1.386 . S
C1708 C1703 1.490 1_554 S
C1708 C1710 1.397 . S
C1708 C1711 1.403 . S
H1709 C1715 0.930 . S
C1710 H1696 0.893 1_554 S
C1710 C1708 1.397 . S
C1710 C1713 1.437 . S
C1711 C1708 1.403 . S
C1711 C1712 1.524 . S
C1711 C1715 1.400 . S
C1712 H1697 0.960 . S
C1712 H1698 0.960 . S
C1712 H1699 0.960 . S
C1712 C1711 1.524 . S
C1713 C1710 1.437 . S
C1713 C1714 1.392 . S
C1713 C1717 1.495 . S
C1714 C1713 1.392 . S
C1714 C1715 1.385 . S
C1714 C1716 1.478 . S
C1715 H1709 0.930 . S
C1715 C1711 1.400 . S
C1715 C1714 1.385 . S
C1716 C1714 1.478 . S
C1716 C1718 1.381 . S
C1716 C1722 1.383 . S
C1717 C1713 1.495 . S
C1717 H1723 0.959 1_554 S
C1717 H1724 0.961 . S
C1717 H1725 0.960 . S
C1718 C1716 1.381 . S
C1718 C1719 1.394 . S
C1718 H1726 0.930 . S
C1719 C1718 1.394 . S
C1719 C1720 1.383 . S
C1719 H1727 0.929 . S
C1720 C1719 1.383 . S
C1720 C1721 1.377 . S
C1721 H1705 0.930 . S
C1721 C1720 1.377 . S
C1721 C1722 1.379 . S
C1722 H1706 0.931 . S
C1722 C1716 1.383 . S
C1722 C1721 1.379 . S
H1723 C1717 0.959 1_556 S
H1724 C1717 0.961 . S
H1725 C1717 0.960 . S
H1726 C1718 0.930 . S
H1727 C1719 0.929 . S
H1728 C1736 0.929 . S
H1729 C1738 0.930 . S
H1730 C1740 0.930 . S
H1731 C1743 0.929 . S
H1732 C1746 0.930 . S
H1733 C1748 0.960 . S
H1734 C1748 0.960 . S
H1735 C1748 0.960 . S
C1736 H1728 0.929 . S
C1736 C1737 1.377 . S
C1736 C1738 1.384 . S
C1737 C1736 1.377 . S
C1737 C1743 1.390 . S
C1738 H1729 0.930 . S
C1738 C1736 1.384 . S
C1738 C1739 1.372 . S
C1739 C1738 1.372 . S
C1739 C1740 1.400 . S
C1739 C1744 1.490 . S
C1740 H1730 0.930 . S
C1740 C1739 1.400 . S
C1740 C1743 1.386 . S
H1741 C1757 0.930 . S
H1742 C1758 0.931 . S
C1743 H1731 0.929 . S
C1743 C1737 1.390 . S
C1743 C1740 1.386 . S
C1744 C1739 1.490 . S
C1744 C1746 1.395 . S
C1744 C1747 1.403 . S
H1745 C1751 0.930 . S
C1746 H1732 0.930 . S
C1746 C1744 1.395 . S
C1746 C1749 1.403 . S
C1747 C1744 1.403 . S
C1747 C1748 1.524 . S
C1747 C1751 1.400 . S
C1748 H1733 0.960 . S
C1748 H1734 0.960 . S
C1748 H1735 0.960 . S
C1748 C1747 1.524 . S
C1749 C1746 1.403 . S
C1749 C1750 1.392 . S
C1749 C1753 1.495 . S
C1750 C1749 1.392 . S
C1750 C1751 1.385 . S
C1750 C1752 1.478 . S
C1751 H1745 0.930 . S
C1751 C1747 1.400 . S
C1751 C1750 1.385 . S
C1752 C1750 1.478 . S
C1752 C1754 1.381 . S
C1752 C1758 1.383 . S
C1753 C1749 1.495 . S
C1753 H1759 0.959 . S
C1753 H1760 0.961 . S
C1753 H1761 0.960 . S
C1754 C1752 1.381 . S
C1754 C1755 1.394 . S
C1754 H1762 0.930 . S
C1755 C1754 1.394 . S
C1755 C1756 1.383 . S
C1755 H1763 0.929 . S
C1756 C1755 1.383 . S
C1756 C1757 1.377 . S
C1757 H1741 0.930 . S
C1757 C1756 1.377 . S
C1757 C1758 1.379 . S
C1758 H1742 0.931 . S
C1758 C1752 1.383 . S
C1758 C1757 1.379 . S
H1759 C1753 0.959 . S
H1760 C1753 0.961 . S
H1761 C1753 0.960 . S
H1762 C1754 0.930 . S
H1763 C1755 0.929 . S
H1764 C1772 0.929 . S
H1765 C1774 0.930 . S
H1766 C1776 0.978 . S
H1767 C1779 0.929 . S
H1768 C1782 0.930 . S
H1769 C1784 0.960 . S
H1770 C1784 0.960 1_556 S
H1771 C1784 0.960 . S
C1772 H1764 0.929 . S
C1772 C1773 1.377 . S
C1772 C1774 1.384 . S
C1773 C1772 1.377 . S
C1773 C1779 1.390 . S
C1774 H1765 0.930 . S
C1774 C1772 1.384 . S
C1774 C1775 1.372 . S
C1775 C1774 1.372 . S
C1775 C1776 1.400 . S
C1775 C1780 1.490 1_556 S
C1776 H1766 0.978 . S
C1776 C1775 1.400 . S
C1776 C1779 1.386 . S
H1777 C1793 0.930 . S
H1778 C1794 0.931 . S
C1779 H1767 0.929 . S
C1779 C1773 1.390 . S
C1779 C1776 1.386 . S
C1780 C1775 1.490 1_554 S
C1780 C1782 1.395 . S
C1780 C1783 1.403 . S
H1781 C1787 0.930 . S
C1782 H1768 0.930 . S
C1782 C1780 1.395 . S
C1782 C1785 1.403 . S
C1783 C1780 1.403 . S
C1783 C1784 1.524 . S
C1783 C1787 1.400 . S
C1784 H1769 0.960 . S
C1784 H1770 0.960 1_554 S
C1784 H1771 0.960 . S
C1784 C1783 1.524 . S
C1785 C1782 1.403 . S
C1785 C1786 1.392 . S
C1785 C1789 1.495 . S
C1786 C1785 1.392 . S
C1786 C1787 1.385 . S
C1786 C1788 1.478 . S
C1787 H1781 0.930 . S
C1787 C1783 1.400 . S
C1787 C1786 1.385 . S
C1788 C1786 1.478 . S
C1788 C1790 1.381 . S
C1788 C1794 1.383 . S
C1789 C1785 1.495 . S
C1789 H1795 0.959 . S
C1789 H1796 0.961 . S
C1789 H1797 0.960 . S
C1790 C1788 1.381 . S
C1790 C1791 1.394 . S
C1790 H1798 0.930 . S
C1791 C1790 1.394 . S
C1791 C1792 1.383 . S
C1791 H1799 0.929 . S
C1792 C1791 1.383 . S
C1792 C1793 1.377 . S
C1793 H1777 0.930 . S
C1793 C1792 1.377 . S
C1793 C1794 1.379 . S
C1794 H1778 0.931 . S
C1794 C1788 1.383 . S
C1794 C1793 1.379 . S
H1795 C1789 0.959 . S
H1796 C1789 0.961 . S
H1797 C1789 0.960 . S
H1798 C1790 0.930 . S
H1799 C1791 0.929 . S
H1800 C1808 0.929 . S
H1801 C1810 0.930 . S
H1802 C1812 0.930 . S
H1803 C1815 0.929 . S
H1804 C1818 0.930 . S
H1805 C1820 0.960 . S
H1806 C1820 0.960 . S
H1807 C1820 0.960 . S
C1808 H1800 0.929 . S
C1808 C1809 1.377 . S
C1808 C1810 1.384 . S
C1809 C1808 1.377 . S
C1809 C1815 1.390 . S
C1810 H1801 0.930 . S
C1810 C1808 1.384 . S
C1810 C1811 1.372 . S
C1811 C1810 1.372 . S
C1811 C1812 1.400 . S
C1811 C1816 1.490 . S
C1812 H1802 0.930 . S
C1812 C1811 1.400 . S
C1812 C1815 1.386 . S
H1813 C1829 0.930 . S
H1814 C1830 0.931 . S
C1815 H1803 0.929 . S
C1815 C1809 1.390 . S
C1815 C1812 1.386 . S
C1816 C1811 1.490 . S
C1816 C1818 1.395 . S
C1816 C1819 1.403 . S
H1817 C1823 0.930 . S
C1818 H1804 0.930 . S
C1818 C1816 1.395 . S
C1818 C1821 1.403 . S
C1819 C1816 1.403 . S
C1819 C1820 1.524 . S
C1819 C1823 1.400 . S
C1820 H1805 0.960 . S
C1820 H1806 0.960 . S
C1820 H1807 0.960 . S
C1820 C1819 1.524 . S
C1821 C1818 1.403 . S
C1821 C1822 1.392 . S
C1821 C1825 1.495 . S
C1822 C1821 1.392 . S
C1822 C1823 1.385 . S
C1822 C1824 1.478 . S
C1823 H1817 0.930 . S
C1823 C1819 1.400 . S
C1823 C1822 1.385 . S
C1824 C1822 1.478 . S
C1824 C1826 1.381 . S
C1824 C1830 1.383 . S
C1825 C1821 1.495 . S
C1825 H1831 0.959 . S
C1825 H1832 0.961 . S
C1825 H1833 0.960 . S
C1826 C1824 1.381 . S
C1826 C1827 1.394 . S
C1826 H1834 0.930 . S
C1827 C1826 1.394 . S
C1827 C1828 1.383 . S
C1827 H1835 0.929 . S
C1828 C1827 1.383 . S
C1828 C1829 1.377 . S
C1829 H1813 0.930 . S
C1829 C1828 1.377 . S
C1829 C1830 1.379 . S
C1830 H1814 0.931 . S
C1830 C1824 1.383 . S
C1830 C1829 1.379 . S
H1831 C1825 0.959 . S
H1832 C1825 0.961 . S
H1833 C1825 0.960 . S
H1834 C1826 0.930 . S
H1835 C1827 0.929 . S
H1836 C1844 0.929 . S
H1837 C1846 0.930 . S
H1838 C1848 0.930 . S
H1839 C1851 0.929 . S
H1840 C1854 0.930 . S
H1841 C1856 0.960 . S
H1842 C1856 0.960 . S
H1843 C1856 0.960 . S
C1844 H1836 0.929 . S
C1844 C1845 1.377 . S
C1844 C1846 1.384 . S
C1845 C1844 1.377 . S
C1845 C1851 1.390 . S
C1846 H1837 0.930 . S
C1846 C1844 1.384 . S
C1846 C1847 1.372 . S
C1847 C1846 1.372 . S
C1847 C1848 1.400 . S
C1847 C1852 1.490 . S
C1848 H1838 0.930 . S
C1848 C1847 1.400 . S
C1848 C1851 1.386 . S
H1849 C1865 0.930 . S
H1850 C1866 0.931 . S
C1851 H1839 0.929 . S
C1851 C1845 1.390 . S
C1851 C1848 1.386 . S
C1852 C1847 1.490 . S
C1852 C1854 1.395 . S
C1852 C1855 1.403 . S
H1853 C1859 0.930 . S
C1854 H1840 0.930 . S
C1854 C1852 1.395 . S
C1854 C1857 1.403 . S
C1855 C1852 1.403 . S
C1855 C1856 1.524 . S
C1855 C1859 1.400 . S
C1856 H1841 0.960 . S
C1856 H1842 0.960 . S
C1856 H1843 0.960 . S
C1856 C1855 1.524 . S
C1857 C1854 1.403 . S
C1857 C1858 1.392 . S
C1857 C1861 1.495 . S
C1858 C1857 1.392 . S
C1858 C1859 1.385 . S
C1858 C1860 1.478 . S
C1859 H1853 0.930 . S
C1859 C1855 1.400 . S
C1859 C1858 1.385 . S
C1860 C1858 1.478 . S
C1860 C1862 1.381 . S
C1860 C1866 1.383 . S
C1861 C1857 1.495 . S
C1861 H1867 0.959 . S
C1861 H1868 0.961 . S
C1861 H1869 0.960 . S
C1862 C1860 1.381 . S
C1862 C1863 1.394 . S
C1862 H1870 0.930 . S
C1863 C1862 1.394 . S
C1863 C1864 1.383 . S
C1863 H1871 0.929 . S
C1864 C1863 1.383 . S
C1864 C1865 1.377 . S
C1865 H1849 0.930 . S
C1865 C1864 1.377 . S
C1865 C1866 1.379 . S
C1866 H1850 0.931 . S
C1866 C1860 1.383 . S
C1866 C1865 1.379 . S
H1867 C1861 0.959 . S
H1868 C1861 0.961 . S
H1869 C1861 0.960 . S
H1870 C1862 0.930 . S
H1871 C1863 0.929 . S
H1872 C1880 0.929 . S
H1873 C1882 0.930 . S
H1874 C1884 0.930 . S
H1875 C1887 0.929 . S
H1876 C1890 0.930 . S
H1877 C1892 0.960 . S
H1878 C1892 0.960 . S
H1879 C1892 0.960 . S
C1880 H1872 0.929 . S
C1880 C1881 1.377 . S
C1880 C1882 1.384 . S
C1881 C1880 1.377 . S
C1881 C1887 1.390 . S
C1882 H1873 0.930 . S
C1882 C1880 1.384 . S
C1882 C1883 1.372 . S
C1883 C1882 1.372 . S
C1883 C1884 1.400 . S
C1883 C1888 1.490 . S
C1884 H1874 0.930 . S
C1884 C1883 1.400 . S
C1884 C1887 1.386 . S
H1885 C1901 0.930 . S
H1886 C1902 0.931 . S
C1887 H1875 0.929 . S
C1887 C1881 1.390 . S
C1887 C1884 1.386 . S
C1888 C1883 1.490 . S
C1888 C1890 1.395 . S
C1888 C1891 1.403 . S
H1889 C1895 0.930 . S
C1890 H1876 0.930 . S
C1890 C1888 1.395 . S
C1890 C1893 1.403 . S
C1891 C1888 1.403 . S
C1891 C1892 1.524 . S
C1891 C1895 1.400 . S
C1892 H1877 0.960 . S
C1892 H1878 0.960 . S
C1892 H1879 0.960 . S
C1892 C1891 1.524 . S
C1893 C1890 1.403 . S
C1893 C1894 1.392 . S
C1893 C1897 1.495 . S
C1894 C1893 1.392 . S
C1894 C1895 1.385 . S
C1894 C1896 1.478 . S
C1895 H1889 0.930 . S
C1895 C1891 1.400 . S
C1895 C1894 1.385 . S
C1896 C1894 1.478 . S
C1896 C1898 1.381 . S
C1896 C1902 1.383 . S
C1897 C1893 1.495 . S
C1897 H1903 0.959 . S
C1897 H1904 0.961 . S
C1897 H1905 0.960 . S
C1898 C1896 1.381 . S
C1898 C1899 1.394 . S
C1898 H1906 0.930 . S
C1899 C1898 1.394 . S
C1899 C1900 1.383 . S
C1899 H1907 0.929 . S
C1900 C1899 1.383 . S
C1900 C1901 1.377 . S
C1901 H1885 0.930 . S
C1901 C1900 1.377 . S
C1901 C1902 1.379 . S
C1902 H1886 0.931 . S
C1902 C1896 1.383 . S
C1902 C1901 1.379 . S
H1903 C1897 0.959 . S
H1904 C1897 0.961 . S
H1905 C1897 0.960 . S
H1906 C1898 0.930 . S
H1907 C1899 0.929 . S
H1908 C1916 0.929 . S
H1909 C1918 0.930 . S
H1910 C1920 0.930 . S
H1911 C1923 0.929 . S
H1912 C1926 0.930 . S
H1913 C1928 0.960 . S
H1914 C1928 0.960 . S
H1915 C1928 0.960 . S
C1916 H1908 0.929 . S
C1916 C1917 1.377 . S
C1916 C1918 1.384 . S
C1917 C1916 1.377 . S
C1917 C1923 1.390 . S
C1918 H1909 0.930 . S
C1918 C1916 1.384 . S
C1918 C1919 1.372 . S
C1919 C1918 1.372 . S
C1919 C1920 1.400 . S
C1919 C1924 1.490 . S
C1920 H1910 0.930 . S
C1920 C1919 1.400 . S
C1920 C1923 1.386 . S
H1921 C1937 0.930 . S
H1922 C1938 0.931 . S
C1923 H1911 0.929 . S
C1923 C1917 1.390 . S
C1923 C1920 1.386 . S
C1924 C1919 1.490 . S
C1924 C1926 1.395 . S
C1924 C1927 1.403 . S
H1925 C1931 0.930 . S
C1926 H1912 0.930 . S
C1926 C1924 1.395 . S
C1926 C1929 1.403 . S
C1927 C1924 1.403 . S
C1927 C1928 1.524 . S
C1927 C1931 1.400 . S
C1928 H1913 0.960 . S
C1928 H1914 0.960 . S
C1928 H1915 0.960 . S
C1928 C1927 1.524 . S
C1929 C1926 1.403 . S
C1929 C1930 1.392 . S
C1929 C1933 1.495 . S
C1930 C1929 1.392 . S
C1930 C1931 1.385 . S
C1930 C1932 1.478 . S
C1931 H1925 0.930 . S
C1931 C1927 1.400 . S
C1931 C1930 1.385 . S
C1932 C1930 1.478 . S
C1932 C1934 1.381 . S
C1932 C1938 1.383 . S
C1933 C1929 1.495 . S
C1933 H1939 0.959 . S
C1933 H1940 0.961 . S
C1933 H1941 0.960 . S
C1934 C1932 1.381 . S
C1934 C1935 1.394 . S
C1934 H1942 0.930 . S
C1935 C1934 1.394 . S
C1935 C1936 1.383 . S
C1935 H1943 0.929 . S
C1936 C1935 1.383 . S
C1936 C1937 1.377 . S
C1937 H1921 0.930 . S
C1937 C1936 1.377 . S
C1937 C1938 1.379 . S
C1938 H1922 0.931 . S
C1938 C1932 1.383 . S
C1938 C1937 1.379 . S
H1939 C1933 0.959 . S
H1940 C1933 0.961 . S
H1941 C1933 0.960 . S
H1942 C1934 0.930 . S
H1943 C1935 0.929 . S
H1944 C1952 0.929 . S
H1945 C1954 0.930 . S
H1946 C1956 0.930 . S
H1947 C1959 0.929 . S
H1948 C1962 0.930 . S
H1949 C1964 0.960 . S
H1950 C1964 0.960 . S
H1951 C1964 0.960 . S
C1952 H1944 0.929 . S
C1952 C1953 1.377 . S
C1952 C1954 1.384 . S
C1953 C1952 1.377 . S
C1953 C1959 1.390 . S
C1954 H1945 0.930 . S
C1954 C1952 1.384 . S
C1954 C1955 1.372 . S
C1955 C1954 1.372 . S
C1955 C1956 1.400 . S
C1955 C1960 1.490 . S
C1956 H1946 0.930 . S
C1956 C1955 1.400 . S
C1956 C1959 1.386 . S
H1957 C1973 0.930 . S
H1958 C1974 0.931 . S
C1959 H1947 0.929 . S
C1959 C1953 1.390 . S
C1959 C1956 1.386 . S
C1960 C1955 1.490 . S
C1960 C1962 1.395 . S
C1960 C1963 1.403 . S
H1961 C1967 0.930 . S
C1962 H1948 0.930 . S
C1962 C1960 1.395 . S
C1962 C1965 1.403 . S
C1963 C1960 1.403 . S
C1963 C1964 1.524 . S
C1963 C1967 1.400 . S
C1964 H1949 0.960 . S
C1964 H1950 0.960 . S
C1964 H1951 0.960 . S
C1964 C1963 1.524 . S
C1965 C1962 1.403 . S
C1965 C1966 1.392 . S
C1965 C1969 1.495 . S
C1966 C1965 1.392 . S
C1966 C1967 1.385 . S
C1966 C1968 1.478 . S
C1967 H1961 0.930 . S
C1967 C1963 1.400 . S
C1967 C1966 1.385 . S
C1968 C1966 1.478 . S
C1968 C1970 1.381 . S
C1968 C1974 1.383 . S
C1969 C1965 1.495 . S
C1969 H1975 0.959 . S
C1969 H1976 0.961 . S
C1969 H1977 0.960 . S
C1970 C1968 1.381 . S
C1970 C1971 1.394 . S
C1970 H1978 0.930 . S
C1971 C1970 1.394 . S
C1971 C1972 1.383 . S
C1971 H1979 0.929 1_556 S
C1972 C1971 1.383 . S
C1972 C1973 1.377 . S
C1973 H1957 0.930 . S
C1973 C1972 1.377 . S
C1973 C1974 1.379 . S
C1974 H1958 0.931 . S
C1974 C1968 1.383 . S
C1974 C1973 1.379 . S
H1975 C1969 0.959 . S
H1976 C1969 0.961 . S
H1977 C1969 0.960 . S
H1978 C1970 0.930 . S
H1979 C1971 0.929 1_554 S
H1980 C1988 0.929 . S
H1981 C1990 0.930 . S
H1982 C1992 0.930 . S
H1983 C1995 0.929 . S
H1984 C1998 0.930 . S
H1985 C2000 0.960 . S
H1986 C2000 0.960 . S
H1987 C2000 0.960 . S
C1988 H1980 0.929 . S
C1988 C1989 1.377 . S
C1988 C1990 1.384 . S
C1989 C1988 1.377 . S
C1989 C1995 1.390 . S
C1990 H1981 0.930 . S
C1990 C1988 1.384 . S
C1990 C1991 1.372 . S
C1991 C1990 1.372 . S
C1991 C1992 1.400 . S
C1991 C1996 1.490 . S
C1992 H1982 0.930 . S
C1992 C1991 1.400 . S
C1992 C1995 1.386 . S
H1993 C2009 0.930 . S
H1994 C2010 0.931 . S
C1995 H1983 0.929 . S
C1995 C1989 1.390 . S
C1995 C1992 1.386 . S
C1996 C1991 1.490 . S
C1996 C1998 1.395 . S
C1996 C1999 1.403 . S
H1997 C2003 0.930 . S
C1998 H1984 0.930 . S
C1998 C1996 1.395 . S
C1998 C2001 1.403 . S
C1999 C1996 1.403 . S
C1999 C2000 1.524 . S
C1999 C2003 1.400 . S
C2000 H1985 0.960 . S
C2000 H1986 0.960 . S
C2000 H1987 0.960 . S
C2000 C1999 1.524 . S
C2001 C1998 1.403 . S
C2001 C2002 1.392 . S
C2001 C2005 1.495 . S
C2002 C2001 1.392 . S
C2002 C2003 1.385 . S
C2002 C2004 1.478 . S
C2003 H1997 0.930 . S
C2003 C1999 1.400 . S
C2003 C2002 1.385 . S
C2004 C2002 1.478 . S
C2004 C2006 1.381 . S
C2004 C2010 1.383 . S
C2005 C2001 1.495 . S
C2005 H2011 0.959 . S
C2005 H2012 0.961 . S
C2005 H2013 0.960 . S
C2006 C2004 1.381 . S
C2006 C2007 1.394 . S
C2006 H2014 0.930 . S
C2007 C2006 1.394 . S
C2007 C2008 1.383 . S
C2007 H2015 0.929 . S
C2008 C2007 1.383 . S
C2008 C2009 1.377 . S
C2009 H1993 0.930 . S
C2009 C2008 1.377 . S
C2009 C2010 1.379 . S
C2010 H1994 0.931 . S
C2010 C2004 1.383 . S
C2010 C2009 1.379 . S
H2011 C2005 0.959 . S
H2012 C2005 0.961 . S
H2013 C2005 0.960 . S
H2014 C2006 0.930 . S
H2015 C2007 0.929 . S
H2016 C2024 0.929 . S
H2017 C2026 0.930 . S
H2018 C2028 0.930 . S
H2019 C2031 0.929 . S
H2020 C2034 0.930 . S
H2021 C2036 0.960 . S
H2022 C2036 0.960 . S
H2023 C2036 0.960 . S
C2024 H2016 0.929 . S
C2024 C2025 1.377 . S
C2024 C2026 1.384 . S
C2025 C2024 1.377 . S
C2025 C2031 1.390 . S
C2026 H2017 0.930 . S
C2026 C2024 1.384 . S
C2026 C2027 1.372 . S
C2027 C2026 1.372 . S
C2027 C2028 1.400 . S
C2027 C2032 1.490 . S
C2028 H2018 0.930 . S
C2028 C2027 1.400 . S
C2028 C2031 1.386 . S
H2029 C2045 0.930 . S
H2030 C2046 0.931 . S
C2031 H2019 0.929 . S
C2031 C2025 1.390 . S
C2031 C2028 1.386 . S
C2032 C2027 1.490 . S
C2032 C2034 1.395 . S
C2032 C2035 1.403 . S
H2033 C2039 0.930 . S
C2034 H2020 0.930 . S
C2034 C2032 1.395 . S
C2034 C2037 1.403 . S
C2035 C2032 1.403 . S
C2035 C2036 1.524 . S
C2035 C2039 1.400 . S
C2036 H2021 0.960 . S
C2036 H2022 0.960 . S
C2036 H2023 0.960 . S
C2036 C2035 1.524 . S
C2037 C2034 1.403 . S
C2037 C2038 1.392 . S
C2037 C2041 1.495 . S
C2038 C2037 1.392 . S
C2038 C2039 1.385 . S
C2038 C2040 1.478 . S
C2039 H2033 0.930 . S
C2039 C2035 1.400 . S
C2039 C2038 1.385 . S
C2040 C2038 1.478 . S
C2040 C2042 1.381 . S
C2040 C2046 1.383 . S
C2041 C2037 1.495 . S
C2041 H2047 0.959 . S
C2041 H2048 0.961 . S
C2041 H2049 0.960 . S
C2042 C2040 1.381 . S
C2042 C2043 1.394 . S
C2042 H2050 0.930 . S
C2043 C2042 1.394 . S
C2043 C2044 1.383 . S
C2043 H2051 0.929 . S
C2044 C2043 1.383 . S
C2044 C2045 1.377 . S
C2045 H2029 0.930 . S
C2045 C2044 1.377 . S
C2045 C2046 1.379 . S
C2046 H2030 0.931 . S
C2046 C2040 1.383 . S
C2046 C2045 1.379 . S
H2047 C2041 0.959 . S
H2048 C2041 0.961 . S
H2049 C2041 0.960 . S
H2050 C2042 0.930 . S
H2051 C2043 0.929 . S
H2052 C2060 0.929 . S
H2053 C2062 0.930 . S
H2054 C2064 0.930 . S
H2055 C2067 0.929 . S
H2056 C2070 0.930 . S
H2057 C2072 0.960 . S
H2058 C2072 0.960 . S
H2059 C2072 0.960 . S
C2060 H2052 0.929 . S
C2060 C2061 1.377 . S
C2060 C2062 1.384 . S
C2061 C2060 1.377 . S
C2061 C2067 1.390 . S
C2062 H2053 0.930 . S
C2062 C2060 1.384 . S
C2062 C2063 1.372 . S
C2063 C2062 1.372 . S
C2063 C2064 1.400 . S
C2063 C2068 1.490 . S
C2064 H2054 0.930 . S
C2064 C2063 1.400 . S
C2064 C2067 1.386 . S
H2065 C2081 0.930 . S
H2066 C2082 0.931 . S
C2067 H2055 0.929 . S
C2067 C2061 1.390 . S
C2067 C2064 1.386 . S
C2068 C2063 1.490 . S
C2068 C2070 1.395 . S
C2068 C2071 1.403 . S
H2069 C2075 0.930 . S
C2070 H2056 0.930 . S
C2070 C2068 1.395 . S
C2070 C2073 1.403 . S
C2071 C2068 1.403 . S
C2071 C2072 1.524 . S
C2071 C2075 1.400 . S
C2072 H2057 0.960 . S
C2072 H2058 0.960 . S
C2072 H2059 0.960 . S
C2072 C2071 1.524 . S
C2073 C2070 1.403 . S
C2073 C2074 1.392 . S
C2073 C2077 1.495 . S
C2074 C2073 1.392 . S
C2074 C2075 1.385 . S
C2074 C2076 1.478 . S
C2075 H2069 0.930 . S
C2075 C2071 1.400 . S
C2075 C2074 1.385 . S
C2076 C2074 1.478 . S
C2076 C2078 1.381 . S
C2076 C2082 1.383 . S
C2077 C2073 1.495 . S
C2077 H2083 0.959 . S
C2077 H2084 0.961 . S
C2077 H2085 0.960 . S
C2078 C2076 1.381 . S
C2078 C2079 1.394 1_545 S
C2078 H2086 0.930 . S
C2079 C2078 1.394 1_565 S
C2079 C2080 1.383 . S
C2079 H2087 0.929 . S
C2080 C2079 1.383 . S
C2080 C2081 1.377 1_565 S
C2081 H2065 0.930 . S
C2081 C2080 1.377 1_545 S
C2081 C2082 1.379 . S
C2082 H2066 0.931 . S
C2082 C2076 1.383 . S
C2082 C2081 1.379 . S
H2083 C2077 0.959 . S
H2084 C2077 0.961 . S
H2085 C2077 0.960 . S
H2086 C2078 0.930 . S
H2087 C2079 0.929 . S
C388 C200 1.901 . S
C369 C66 1.921 . S
C424 C215 1.325 . S
C405 C76 1.356 . S
C441 C93 2.173 . S
C460 C228 2.154 . S
C496 C242 1.402 . S
C477 C54 1.408 . S
C532 C254 1.705 . S
C513 C126 1.782 . S
C568 C268 1.589 . S
C549 C150 1.609 . S
C585 C136 1.338 . S
C604 C282 1.330 . S
C640 C297 1.632 . S
C621 C117 1.711 . S
C657 C141 1.360 . S
C676 C313 1.347 . S
C712 C326 1.323 . S
C693 C112 1.305 . S
C729 C124 1.696 . S
C748 C311 1.615 . S
C784 C324 1.257 . S
C765 C148 1.246 . S
C801 C88 1.648 . S
C820 C340 1.640 . S
C837 C52 1.604 . S
C856 C339 1.597 . S
C873 C64 1.455 . S
C892 C338 1.407 . S
C909 C78 1.261 . S
C928 C341 1.218 1_655 S
C945 C45 2.020 . S
C964 C243 2.012 . S
C981 C177 1.826 . S
C1000 C241 1.803 . S
C1036 C201 1.266 . S
C1017 C189 1.314 . S
C1072 C212 1.861 . S
C1053 C102 1.897 . S
C1089 C57 1.643 . S
C1108 C257 1.636 . S
C1144 C298 1.959 . S
C1125 C138 1.957 . S
C1180 C255 1.827 . S
C1161 C114 1.881 . S
C1216 C283 1.579 . S
C1197 C153 1.591 . S
C1252 C284 1.914 . S
C1233 C174 1.921 . S
C1269 C184 1.355 . S
C1288 C299 1.333 . S
C1305 C105 2.175 . S
C1324 C256 2.167 . S
C1360 C270 1.423 . S
C1341 C162 1.408 . S
C1377 C42 1.781 . S
C1396 C226 1.704 . S
C1432 C240 1.561 . S
C1413 C6 1.603 . S
C1468 C198 1.339 . S
C1449 C16 1.338 . S
C1504 C213 1.646 . S
C1485 C33 1.707 . S
C1521 C21 1.357 . S
C1540 C327 1.344 . S
C1557 C28 1.297 . S
C1576 C312 1.292 . S
C1593 C40 1.697 . S
C1612 C325 1.625 . S
C1629 C4 1.248 . S
C1648 C310 1.268 . S
C1684 C354 1.650 . S
C1665 C100 1.649 . S
C1720 C353 1.571 . S
C1701 C160 1.600 . S
C1756 C352 1.442 . S
C1737 C172 1.458 . S
C1773 C186 1.264 . S
C1792 C355 1.245 . S
C1809 C129 2.020 . S
C1828 C271 1.993 . S
C1864 C269 1.797 . S
C1845 C69 1.827 . S
C1900 C285 1.319 . S
C1881 C81 1.320 . S
C1936 C296 1.855 . S
C1917 C90 1.896 . S
C1953 C165 1.642 . S
C1972 C229 1.608 . S
C2008 C214 1.951 . S
C1989 C18 1.956 . S
C2025 C30 1.884 . S
C2044 C227 1.841 . S
C2080 C199 1.566 . S
C2061 C9 1.593 . S
