# Generated by pormake.
# Topology hwx, (6,3)-cn, num edge types: 1
# Building blocks:
#     Node 0, Type 0, BuildingBlock: IZENUY_clean_sbu_0, # of connection points: 6
#     Node 1, Type 0, BuildingBlock: IZENUY_clean_sbu_0, # of connection points: 6
#     Node 2, Type 0, BuildingBlock: IZENUY_clean_sbu_0, # of connection points: 6
#     Node 3, Type 0, BuildingBlock: IZENUY_clean_sbu_0, # of connection points: 6
#     Node 4, Type 1, BuildingBlock: QEWDON_clean_linker_0, # of connection points: 3
#     Node 5, Type 1, BuildingBlock: QEWDON_clean_linker_0, # of connection points: 3
#     Node 6, Type 1, BuildingBlock: QEWDON_clean_linker_0, # of connection points: 3
#     Node 7, Type 1, BuildingBlock: QEWDON_clean_linker_0, # of connection points: 3
#     Node 8, Type 1, BuildingBlock: QEWDON_clean_linker_0, # of connection points: 3
#     Node 9, Type 1, BuildingBlock: QEWDON_clean_linker_0, # of connection points: 3
#     Node 10, Type 1, BuildingBlock: QEWDON_clean_linker_0, # of connection points: 3
#     Node 11, Type 1, BuildingBlock: QEWDON_clean_linker_0, # of connection points: 3
#     Edge 12, Type (0, 1), BuildingBlock: AJUNOK_clean_linker_0, # of connection points: 2
#     Edge 13, Type (0, 1), BuildingBlock: AJUNOK_clean_linker_0, # of connection points: 2
#     Edge 14, Type (0, 1), BuildingBlock: AJUNOK_clean_linker_0, # of connection points: 2
#     Edge 15, Type (0, 1), BuildingBlock: AJUNOK_clean_linker_0, # of connection points: 2
#     Edge 16, Type (0, 1), BuildingBlock: AJUNOK_clean_linker_0, # of connection points: 2
#     Edge 17, Type (0, 1), BuildingBlock: AJUNOK_clean_linker_0, # of connection points: 2
#     Edge 18, Type (0, 1), BuildingBlock: AJUNOK_clean_linker_0, # of connection points: 2
#     Edge 19, Type (0, 1), BuildingBlock: AJUNOK_clean_linker_0, # of connection points: 2
#     Edge 20, Type (0, 1), BuildingBlock: AJUNOK_clean_linker_0, # of connection points: 2
#     Edge 21, Type (0, 1), BuildingBlock: AJUNOK_clean_linker_0, # of connection points: 2
#     Edge 22, Type (0, 1), BuildingBlock: AJUNOK_clean_linker_0, # of connection points: 2
#     Edge 23, Type (0, 1), BuildingBlock: AJUNOK_clean_linker_0, # of connection points: 2
#     Edge 24, Type (0, 1), BuildingBlock: AJUNOK_clean_linker_0, # of connection points: 2
#     Edge 25, Type (0, 1), BuildingBlock: AJUNOK_clean_linker_0, # of connection points: 2
#     Edge 26, Type (0, 1), BuildingBlock: AJUNOK_clean_linker_0, # of connection points: 2
#     Edge 27, Type (0, 1), BuildingBlock: AJUNOK_clean_linker_0, # of connection points: 2
#     Edge 28, Type (0, 1), BuildingBlock: AJUNOK_clean_linker_0, # of connection points: 2
#     Edge 29, Type (0, 1), BuildingBlock: AJUNOK_clean_linker_0, # of connection points: 2
#     Edge 30, Type (0, 1), BuildingBlock: AJUNOK_clean_linker_0, # of connection points: 2
#     Edge 31, Type (0, 1), BuildingBlock: AJUNOK_clean_linker_0, # of connection points: 2
#     Edge 32, Type (0, 1), BuildingBlock: AJUNOK_clean_linker_0, # of connection points: 2
#     Edge 33, Type (0, 1), BuildingBlock: AJUNOK_clean_linker_0, # of connection points: 2
#     Edge 34, Type (0, 1), BuildingBlock: AJUNOK_clean_linker_0, # of connection points: 2
#     Edge 35, Type (0, 1), BuildingBlock: AJUNOK_clean_linker_0, # of connection points: 2
# Relax obj value: 0.005
# Max RMSD: 0.109
# Mean RMSD: 0.087
data_MOF--net-hwx--node1-IZENUY_clean_sbu_0--node2-QEWDON_clean_linker_0--edge1-AJUNOK_clean_linker_0
_symmetry_space_group_name_H-M    P1
_symmetry_Int_Tables_number       1
_symmetry_cell_setting            triclinic
loop_
_symmetry_equiv_pos_as_xyz
'x, y, z'
_cell_length_a     40.077557
_cell_length_b     40.106945
_cell_length_c     15.167652
_cell_angle_alpha  92.694979
_cell_angle_beta   92.794332
_cell_angle_gamma 90.183972
loop_
_atom_site_label
_atom_site_type_symbol
_atom_site_fract_x
_atom_site_fract_y
_atom_site_fract_z
_atom_type_partial_charge
Fe0 Fe 0.2647 0.27849 0.11528 0.0
Fe1 Fe 0.26815 0.27221 0.91395 0.0
O2 O 0.25062 0.25974 0.01213 0.0
Fe3 Fe 0.21924 0.22831 0.00689 0.0
O4 O 0.19744 0.24568 0.10202 0.0
O5 O 0.22294 0.29324 0.13838 0.0
O6 O 0.27284 0.31973 0.07182 0.0
C7 C 0.26241 0.33295 0.00135 0.0
C8 C 0.25753 0.21025 0.1513 0.0
O9 O 0.25459 0.31496 0.93285 0.0
C10 C 0.2641 0.20482 0.87855 0.0
O11 O 0.30733 0.26453 0.09938 0.0
O12 O 0.30978 0.28169 0.96471 0.0
O13 O 0.24472 0.20149 0.07605 0.0
O14 O 0.25915 0.24076 0.17683 0.0
C15 C 0.19957 0.26336 0.86395 0.0
O16 O 0.28286 0.23021 0.88847 0.0
O17 O 0.23545 0.20513 0.91056 0.0
C18 C 0.32406 0.27106 0.03393 0.0
O19 O 0.22989 0.26501 0.84484 0.0
O20 O 0.19156 0.253 0.9373 0.0
C21 C 0.19748 0.2746 0.1394 0.0
Fe22 Fe 0.27949 0.78264 0.60624 0.0
Fe23 Fe 0.32094 0.73092 0.50533 0.0
O24 O 0.28921 0.76151 0.50551 0.0
Fe25 Fe 0.2675 0.7706 0.40493 0.0
O26 O 0.28023 0.81398 0.41674 0.0
O27 O 0.26986 0.8228 0.55673 0.0
O28 O 0.32215 0.79797 0.62652 0.0
C29 C 0.34721 0.77915 0.63319 0.0
C30 C 0.21643 0.77168 0.52854 0.0
O31 O 0.34559 0.74967 0.59984 0.0
C32 C 0.27315 0.70306 0.37865 0.0
O33 O 0.28735 0.74604 0.67318 0.0
O34 O 0.29758 0.7052 0.57609 0.0
O35 O 0.2271 0.77908 0.45454 0.0
O36 O 0.23643 0.76874 0.5944 0.0
C37 C 0.33523 0.7636 0.35865 0.0
O38 O 0.30272 0.70591 0.41095 0.0
O39 O 0.25342 0.72745 0.38486 0.0
C40 C 0.28795 0.71514 0.65082 0.0
O41 O 0.34578 0.75513 0.43413 0.0
O42 O 0.30415 0.76383 0.3377 0.0
C43 C 0.2771 0.83374 0.4829 0.0
Fe44 Fe 0.77297 0.78706 0.89899 0.0
Fe45 Fe 0.77737 0.7826 0.10029 0.0
O46 O 0.79052 0.80083 0.00382 0.0
Fe47 Fe 0.82146 0.83258 0.01244 0.0
O48 O 0.80466 0.85464 0.91677 0.0
O49 O 0.75764 0.82865 0.87668 0.0
O50 O 0.73136 0.77779 0.93931 0.0
C51 C 0.7173 0.78774 0.00897 0.0
C52 C 0.84149 0.79614 0.86824 0.0
O53 O 0.73461 0.7957 0.0786 0.0
C54 C 0.8445 0.78732 0.14019 0.0
O55 O 0.78761 0.7446 0.91453 0.0
O56 O 0.76891 0.74117 0.04738 0.0
O57 O 0.84927 0.80778 0.94512 0.0
O58 O 0.81126 0.79401 0.84002 0.0
C59 C 0.78485 0.85107 0.15292 0.0
O60 O 0.81937 0.76829 0.12827 0.0
O61 O 0.84395 0.81623 0.10976 0.0
C62 C 0.78053 0.72742 0.9788 0.0
O63 O 0.78344 0.82063 0.1711 0.0
O64 O 0.7957 0.85953 0.08057 0.0
C65 C 0.77597 0.85439 0.87763 0.0
Fe66 Fe 0.71612 0.33444 0.50639 0.0
Fe67 Fe 0.76557 0.28963 0.60779 0.0
O68 O 0.74801 0.30353 0.5065 0.0
Fe69 Fe 0.7624 0.28634 0.40546 0.0
O70 O 0.77535 0.32711 0.37251 0.0
O71 O 0.72973 0.35409 0.40682 0.0
O72 O 0.74265 0.36451 0.57044 0.0
C73 C 0.75747 0.35908 0.64352 0.0
C74 C 0.69261 0.29259 0.36908 0.0
O75 O 0.76135 0.32966 0.66854 0.0
C76 C 0.7606 0.22989 0.5003 0.0
O77 O 0.69689 0.32023 0.60607 0.0
O78 O 0.72516 0.27535 0.63978 0.0
O79 O 0.72216 0.28922 0.34456 0.0
O80 O 0.6868 0.30714 0.44217 0.0
C81 C 0.82192 0.2935 0.51367 0.0
O82 O 0.773 0.24691 0.56624 0.0
O83 O 0.75057 0.24402 0.43125 0.0
C84 C 0.6992 0.29292 0.64483 0.0
O85 O 0.80749 0.30275 0.58279 0.0
O86 O 0.80545 0.28048 0.44749 0.0
C87 C 0.75705 0.35261 0.36809 0.0
H88 H 0.27127 0.56114 0.11985 0.0
C89 C 0.26922 0.57719 0.06438 0.0
C90 C 0.25964 0.61083 0.07749 0.0
C91 C 0.27912 0.56508 0.98112 0.0
H92 H 0.25075 0.65719 0.01409 0.0
C93 C 0.25765 0.63121 0.00453 0.0
C94 C 0.26745 0.61959 0.92108 0.0
C95 C 0.27806 0.58642 0.91004 0.0
C96 C 0.29643 0.53256 0.97097 0.0
H97 H 0.28757 0.57765 0.84745 0.0
C98 C 0.28065 0.50193 0.98575 0.0
C99 C 0.29751 0.47161 0.96896 0.0
C100 C 0.32935 0.53245 0.94283 0.0
H101 H 0.34208 0.55567 0.93197 0.0
C102 C 0.34616 0.50253 0.92812 0.0
H103 H 0.25522 0.50164 0.00693 0.0
C104 C 0.3303 0.47229 0.9404 0.0
H105 H 0.34369 0.44927 0.92761 0.0
H106 H 0.37147 0.50278 0.90631 0.0
H107 H 0.98324 0.74372 0.38362 0.0
C108 C 0.97005 0.75154 0.44172 0.0
C109 C 0.93735 0.76377 0.43237 0.0
C110 C 0.98508 0.74806 0.52659 0.0
H111 H 0.89428 0.78103 0.49933 0.0
C112 C 0.91986 0.77251 0.50759 0.0
C113 C 0.93438 0.76922 0.59277 0.0
C114 C 0.96722 0.75709 0.60173 0.0
C115 C 1.01716 0.73028 0.5378 0.0
H116 H 0.9788 0.75411 0.66692 0.0
C117 C 0.04823 0.7464 0.53096 0.0
C118 C 0.07821 0.72894 0.54826 0.0
C119 C 1.01635 0.6967 0.55969 0.0
H120 H 0.9927 0.684 0.56544 0.0
C121 C 0.04594 0.67927 0.57485 0.0
H122 H 0.04906 0.77245 0.51513 0.0
C123 C 0.07665 0.69526 0.56955 0.0
H124 H 0.09935 0.68132 0.58237 0.0
H125 H 0.04506 0.65336 0.59161 0.0
H126 H 0.79966 0.4978 0.89353 0.0
C127 C 0.79387 0.48436 0.95128 0.0
C128 C 0.78247 0.4512 0.94102 0.0
C129 C 0.80063 0.49904 0.03651 0.0
H130 H 0.76789 0.40768 0.0078 0.0
C131 C 0.77657 0.43336 0.01595 0.0
C132 C 0.78286 0.44759 0.10111 0.0
C133 C 0.79485 0.48056 0.1113 0.0
C134 C 0.81854 0.53145 0.04735 0.0
H135 H 0.80098 0.49133 0.17701 0.0
C136 C 0.8045 0.56104 0.01552 0.0
C137 C 0.82261 0.59135 0.02537 0.0
C138 C 0.85074 0.53243 0.0883 0.0
H139 H 0.86207 0.50994 0.11271 0.0
C140 C 0.86888 0.56222 0.09665 0.0
H141 H 0.7796 0.56052 0.98422 0.0
C142 C 0.85499 0.59148 0.06537 0.0
H143 H 0.86927 0.61448 0.07437 0.0
H144 H 0.89373 0.56267 0.12799 0.0
H145 H 0.06108 0.26662 0.62398 0.0
C146 C 0.07187 0.27588 0.56564 0.0
C147 C 0.10562 0.2855 0.56874 0.0
C148 C 0.05291 0.27462 0.48519 0.0
H149 H 0.1461 0.3017 0.49285 0.0
C150 C 0.11976 0.2953 0.49102 0.0
C151 C 0.10169 0.29292 0.40939 0.0
C152 C 0.06798 0.28278 0.40708 0.0
C153 C 1.02017 0.25752 0.48045 0.0
H154 H 0.05411 0.27927 0.34414 0.0
C155 C 0.99024 0.27499 0.49352 0.0
C156 C 0.9598 0.25733 0.49373 0.0
C157 C 1.01937 0.22267 0.46688 0.0
H158 H 0.04223 0.2089 0.45715 0.0
C159 C 0.98921 0.20527 0.46692 0.0
H160 H 0.99065 0.30191 0.50402 0.0
C161 C 0.95958 0.22245 0.48055 0.0
H162 H 0.93633 0.20855 0.47999 0.0
H163 H 0.9888 0.17838 0.45658 0.0
H164 H 0.78334 0.98965 0.39095 0.0
C165 C 0.774 0.97916 0.44961 0.0
C166 C 0.76375 0.94559 0.44731 0.0
C167 C 0.77584 0.99825 0.52978 0.0
H168 H 0.74696 0.90568 0.52436 0.0
C169 C 0.75392 0.93185 0.52556 0.0
C170 C 0.7571 0.94995 0.60689 0.0
C171 C 0.76778 0.98344 0.60837 0.0
C172 C 0.79361 0.03063 0.53437 0.0
H173 H 0.77184 0.99731 0.67109 0.0
C174 C 0.77691 0.06087 0.51937 0.0
C175 C 0.79502 0.09114 0.52474 0.0
C176 C 0.82822 0.03088 0.55353 0.0
H177 H 0.8414 1.00779 0.56489 0.0
C178 C 0.84612 0.06081 0.55804 0.0
H179 H 0.75015 0.06091 0.50505 0.0
C180 C 0.82964 0.09079 0.54403 0.0
H181 H 0.84389 0.11387 0.54881 0.0
H182 H 0.87281 0.06079 0.57294 0.0
H183 H 0.55425 0.25095 0.11853 0.0
C184 C 0.56754 0.25654 0.06038 0.0
C185 C 0.60084 0.26765 0.06976 0.0
C186 C 0.55247 0.24979 0.97553 0.0
H187 H 0.64428 0.2816 0.0014 0.0
C188 C 0.61844 0.2733 0.99425 0.0
C189 C 0.60375 0.26704 0.90962 0.0
C190 C 0.57069 0.25531 0.90021 0.0
C191 C 0.51994 0.23208 0.96569 0.0
H192 H 0.55966 0.24918 0.83474 0.0
C193 C 0.49043 0.24659 -0.00353 0.0
C194 C 0.46002 0.22862 0.98788 0.0
C195 C 0.51879 0.19959 0.92686 0.0
H196 H 0.54123 0.18793 0.90323 0.0
C197 C 0.48887 0.18162 0.91965 0.0
H198 H 0.49108 0.27173 0.02606 0.0
C199 C 0.45968 0.19595 0.95005 0.0
H200 H 0.43658 0.18177 0.94211 0.0
H201 H 0.48827 0.15653 0.88996 0.0
H202 H 0.30397 0.06529 0.634 0.0
C203 C 0.29749 0.07912 0.57595 0.0
C204 C 0.28618 0.11214 0.58572 0.0
C205 C 0.30238 0.06478 0.49101 0.0
H206 H 0.2711 0.15612 0.51885 0.0
C207 C 0.27945 0.13049 0.51079 0.0
C208 C 0.28475 0.1168 0.42602 0.0
C209 C 0.29581 0.08373 0.41623 0.0
C210 C 0.31998 0.03261 0.48052 0.0
H211 H 0.30099 0.07333 0.35106 0.0
C212 C 0.30345 1.00168 0.48548 0.0
C213 C 0.32084 0.97164 0.46911 0.0
C214 C 0.3539 0.0332 0.46163 0.0
H215 H 0.36695 0.05675 0.45754 0.0
C216 C 0.37124 1.00353 0.44749 0.0
H217 H 0.27717 1.00102 0.49908 0.0
C218 C 0.35485 0.97295 0.4508 0.0
H219 H 0.36872 0.95018 0.43878 0.0
H220 H 0.39742 1.00423 0.43307 0.0
H221 H 0.48844 0.77882 0.88776 0.0
C222 C 0.4729 0.78152 0.94415 0.0
C223 C 0.43977 0.79288 0.9325 0.0
C224 C 0.48493 0.77083 0.02687 0.0
H225 H 0.39356 0.80206 -0.00374 0.0
C226 C 0.41935 0.79435 0.00521 0.0
C227 C 0.43047 0.78252 0.08692 0.0
C228 C 0.46355 0.77162 0.09796 0.0
C229 C 0.51735 0.75323 0.03611 0.0
H230 H 0.47207 0.76168 0.16036 0.0
C231 C 0.54805 0.76886 0.02092 0.0
C232 C 0.57834 0.75171 0.03628 0.0
C233 C 0.51737 0.72021 0.06337 0.0
H234 H 0.4941 0.70759 0.07454 0.0
C235 C 0.54725 0.70311 0.07662 0.0
H236 H 0.54844 0.79439 0.00054 0.0
C237 C 0.57755 0.7188 0.06386 0.0
H238 H 0.60055 0.70523 0.07573 0.0
H239 H 0.54693 0.67771 0.09773 0.0
C240 C 0.14295 0.26096 0.20376 0.0
C241 C 0.16945 0.2838 0.19686 0.0
C242 C 0.11914 0.26574 0.26773 0.0
C243 C 0.12064 0.29366 0.32739 0.0
H244 H 0.14147 0.23814 0.16259 0.0
H245 H 0.1009 0.24614 0.27449 0.0
S246 S 0.18064 0.36429 0.32655 0.0
N247 N 0.19268 0.33794 0.2475 0.0
N248 N 0.14766 0.34693 0.36733 0.0
C249 C 0.14507 0.31821 0.31617 0.0
C250 C 0.16948 0.31332 0.25104 0.0
C251 C 0.29045 0.69827 0.80692 0.0
C252 C 0.28171 0.69045 0.71755 0.0
C253 C 0.28566 0.67521 0.87156 0.0
C254 C 0.27123 0.6436 0.85001 0.0
H255 H 0.30187 0.72214 0.82702 0.0
H256 H 0.29394 0.68207 0.93894 0.0
S257 S 0.24178 0.61197 0.62561 0.0
N258 N 0.25712 0.64942 0.61036 0.0
N259 N 0.24681 0.60641 0.73266 0.0
C260 C 0.26181 0.63569 0.76081 0.0
C261 C 0.26729 0.65904 0.69452 0.0
C262 C 0.89526 0.80335 0.23638 0.0
C263 C 0.87225 0.77849 0.2037 0.0
C264 C 0.91838 0.79752 0.3063 0.0
C265 C 0.91976 0.76649 0.34519 0.0
H266 H 0.8943 0.82817 0.21117 0.0
H267 H 0.93403 0.81797 0.33334 0.0
S268 S 0.86848 0.69172 0.27851 0.0
N269 N 0.85489 0.72043 0.2111 0.0
N270 N 0.8984 0.70982 0.34278 0.0
C271 C 0.8986 0.74076 0.30996 0.0
C272 C 0.8749 0.74664 0.23899 0.0
C273 C 0.79339 0.38158 0.77041 0.0
C274 C 0.76735 0.3869 0.70715 0.0
C275 C 0.7997 0.40413 0.84227 0.0
C276 C 0.7802 0.43288 0.85399 0.0
H277 H 0.80813 0.35899 0.76657 0.0
H278 H 0.81888 0.39812 0.8918 0.0
S279 S 0.71148 0.46045 0.7028 0.0
N280 N 0.72387 0.42475 0.65656 0.0
N281 N 0.73575 0.46717 0.79321 0.0
C282 C 0.75569 0.4399 0.78829 0.0
C283 C 0.74927 0.41688 0.71433 0.0
C284 C 0.67082 0.25708 0.24055 0.0
C285 C 0.66502 0.28264 0.30462 0.0
C286 C 0.64846 0.25089 0.16808 0.0
C287 C 0.61941 0.27003 0.15658 0.0
H288 H 0.69361 0.24263 0.24432 0.0
H289 H 0.65478 0.23205 0.11814 0.0
S290 S 0.59072 0.33754 0.30927 0.0
N291 N 0.62653 0.32537 0.35571 0.0
N292 N 0.58444 0.31366 0.21812 0.0
C293 C 0.61197 0.29406 0.22289 0.0
C294 C 0.63481 0.30038 0.29738 0.0
C295 C 0.24813 0.15328 0.78532 0.0
C296 C 0.27276 0.17702 0.81516 0.0
C297 C 0.25358 0.13019 0.71511 0.0
C298 C 0.28398 0.12965 0.67309 0.0
H299 H 0.22372 0.15363 0.81299 0.0
H300 H 0.23324 0.11395 0.69027 0.0
S301 S 0.35805 0.18311 0.73133 0.0
N302 N 0.33005 0.19596 0.80155 0.0
N303 N 0.33989 0.1526 0.66944 0.0
C304 C 0.30954 0.15156 0.7055 0.0
C305 C 0.30408 0.17518 0.77672 0.0
C306 C 0.3906 0.78353 0.31039 0.0
C307 C 0.35936 0.76826 0.28944 0.0
C308 C 0.41357 0.7882 0.2448 0.0
C309 C 0.40615 0.77748 0.15627 0.0
H310 H 0.39712 0.79235 0.37766 0.0
H311 H 0.43713 0.80054 0.26326 0.0
S312 S 0.3296 0.73199 0.07004 0.0
N313 N 0.3233 0.74017 0.17553 0.0
N314 N 0.36664 0.74792 0.05329 0.0
C315 C 0.37543 0.76113 0.1354 0.0
C316 C 0.35198 0.7568 0.20167 0.0
C317 C 0.79007 0.90846 0.8115 0.0
C318 C 0.76686 0.88242 0.82002 0.0
C319 C 0.78515 0.93223 0.74738 0.0
C320 C 0.75673 0.93113 0.68922 0.0
H321 H 0.81325 0.90958 0.85139 0.0
H322 H 0.80498 0.95009 0.73927 0.0
S323 S 0.6852 0.87244 0.69469 0.0
N324 N 0.71197 0.86008 0.77258 0.0
N325 N 0.70275 0.90501 0.65243 0.0
C326 C 0.7319 0.90717 0.70206 0.0
C327 C 0.73693 0.88281 0.76732 0.0
C328 C 0.87115 0.8125 0.73708 0.0
C329 C 0.86785 0.79048 0.80526 0.0
C330 C 0.89406 0.80626 0.67151 0.0
C331 C 0.91406 0.77738 0.67065 0.0
H332 H 0.85553 0.83446 0.73374 0.0
H333 H 0.89553 0.82383 0.6197 0.0
S334 S 0.91421 0.71191 0.83601 0.0
N335 N 0.88655 0.73939 0.87066 0.0
N336 N 0.92877 0.7266 0.74533 0.0
C337 C 0.91137 0.75552 0.74012 0.0
C338 C 0.88836 0.76228 0.8078 0.0
C339 C 0.7897 0.37272 0.24398 0.0
C340 C 0.76569 0.37913 0.30738 0.0
C341 C 0.79607 0.39573 0.18012 0.0
C342 C 0.77909 0.42633 0.17757 0.0
H343 H 0.80291 0.3492 0.24136 0.0
H344 H 0.81385 0.38915 0.13068 0.0
S345 S 0.71636 0.45702 0.33293 0.0
N346 N 0.72659 0.41972 0.36703 0.0
N347 N 0.73892 0.46294 0.24667 0.0
C348 C 0.75634 0.43395 0.24288 0.0
C349 C 0.74953 0.41036 0.30773 0.0
C350 C 0.18101 0.2577 0.706 0.0
C351 C 0.17385 0.26803 0.79274 0.0
C352 C 0.15847 0.26303 0.63521 0.0
C353 C 0.12801 0.27959 0.64756 0.0
H354 H 0.20427 0.24518 0.69252 0.0
H355 H 0.16508 0.254 0.56994 0.0
S356 S 0.09723 0.31124 0.86244 0.0
N357 N 0.1339 0.29464 0.88841 0.0
N358 N 0.09159 0.30578 0.75403 0.0
C359 C 0.12016 0.28953 0.73436 0.0
C360 C 0.14309 0.28355 0.8072 0.0
C361 C 0.23714 0.67516 0.25578 0.0
C362 C 0.2649 0.67408 0.3161 0.0
C363 C 0.23358 0.65214 0.18315 0.0
C364 C 0.25772 0.6273 0.16753 0.0
H365 H 0.21919 0.69519 0.2611 0.0
H366 H 0.21296 0.65529 0.13544 0.0
S367 S 0.33155 0.60982 0.31542 0.0
N368 N 0.3138 0.64245 0.36366 0.0
N369 N 0.30799 0.60048 0.2254 0.0
C370 C 0.28373 0.62394 0.23219 0.0
C371 C 0.28711 0.64705 0.30674 0.0
C372 C 0.40173 0.7649 0.70955 0.0
C373 C 0.37587 0.78821 0.69624 0.0
C374 C 0.42492 0.76855 0.78152 0.0
C375 C 0.42339 0.79576 0.84297 0.0
H376 H 0.40282 0.74236 0.66758 0.0
H377 H 0.44229 0.74839 0.79309 0.0
S378 S 0.366 0.86785 0.82713 0.0
N379 N 0.35399 0.8425 0.74248 0.0
N380 N 0.39792 0.8494 0.87734 0.0
C381 C 0.40018 0.82114 0.82498 0.0
C382 C 0.37638 0.81739 0.75174 0.0
C383 C 0.78952 0.86915 0.31134 0.0
C384 C 0.77974 0.87653 0.22433 0.0
C385 C 0.78464 0.89192 0.38179 0.0
C386 C 0.76902 0.92284 0.36885 0.0
H387 H 0.80147 0.84564 0.32525 0.0
H388 H 0.79342 0.88515 0.44721 0.0
S389 S 0.73878 0.95417 0.15308 0.0
N390 N 0.75448 0.91708 0.12781 0.0
N391 N 0.74403 0.95975 0.26154 0.0
C392 C 0.75944 0.9308 0.28183 0.0
C393 C 0.76503 0.90765 0.20934 0.0
C394 C 0.64445 0.30387 0.71551 0.0
C395 C 0.67278 0.28345 0.70518 0.0
C396 C 0.62086 0.29733 0.77825 0.0
C397 C 0.62475 0.27018 0.83281 0.0
H398 H 0.64091 0.32571 0.67681 0.0
H399 H 0.60027 0.31444 0.78681 0.0
S400 S 0.69215 0.20724 0.82823 0.0
N401 N 0.70151 0.23321 0.75174 0.0
N402 N 0.65737 0.22155 0.86969 0.0
C403 C 0.65191 0.24875 0.82083 0.0
C404 C 0.67584 0.25518 0.75695 0.0
C405 C 0.25182 0.15317 0.21167 0.0
C406 C 0.26749 0.18476 0.21515 0.0
C407 C 0.25852 0.13042 0.27808 0.0
C408 C 0.28116 0.13853 0.34968 0.0
H409 H 0.23326 0.14653 0.15944 0.0
H410 H 0.24491 0.10698 0.27538 0.0
S411 S 0.33283 0.2154 0.38159 0.0
N412 N 0.30954 0.22111 0.29081 0.0
N413 N 0.32211 0.1784 0.4146 0.0
C414 C 0.29846 0.16907 0.35078 0.0
C415 C 0.29163 0.19217 0.2838 0.0
C416 C 0.26907 0.38304 0.91089 0.0
C417 C 0.26545 0.36972 0.99423 0.0
C418 C 0.2773 0.41674 0.90306 0.0
C419 C 0.2816 0.43861 0.97795 0.0
H420 H 0.26738 0.36699 0.85135 0.0
H421 H 0.2818 0.42546 0.83812 0.0
S422 S 0.27079 0.41768 0.21005 0.0
N423 N 0.26379 0.38209 0.1527 0.0
N424 N 0.27899 0.44556 0.13714 0.0
C425 C 0.27588 0.42635 0.06099 0.0
C426 C 0.26787 0.39187 0.06932 0.0
C427 C 0.15747 0.76546 0.46283 0.0
C428 C 0.17998 0.76529 0.53745 0.0
C429 C 0.12385 0.75565 0.4676 0.0
C430 C 0.11154 0.7452 0.54702 0.0
H431 H 0.16608 0.77206 0.39933 0.0
H432 H 0.10784 0.7547 0.40789 0.0
S433 S 0.1584 0.74331 0.76346 0.0
N434 N 0.18606 0.75622 0.69531 0.0
N435 N 0.12328 0.73765 0.70308 0.0
C436 C 0.13313 0.74645 0.62282 0.0
C437 C 0.1672 0.75653 0.61839 0.0
C438 C 0.81477 0.6778 0.93446 0.0
C439 C 0.787 0.69098 0.97717 0.0
C440 C 0.82514 0.64481 0.94634 0.0
C441 C 0.80771 0.6236 -0.00018 0.0
H442 H 0.82978 0.69363 0.89592 0.0
H443 H 0.84771 0.6362 0.91622 0.0
S444 S 0.73129 0.64485 0.1181 0.0
N445 N 0.7407 0.67936 0.06927 0.0
N446 N 0.76002 0.61738 0.09048 0.0
C447 C 0.7787 0.63579 0.03809 0.0
C448 C 0.76841 0.66947 0.0271 0.0
C449 C 0.87736 0.28154 0.58893 0.0
C450 C 0.85883 0.29187 0.51393 0.0
C451 C 0.91113 0.27259 0.58385 0.0
C452 C 0.92755 0.27447 0.50434 0.0
H453 H 0.86515 0.27806 0.65001 0.0
H454 H 0.92398 0.26246 0.64104 0.0
S455 S 0.89143 0.30392 0.2928 0.0
N456 N 0.86028 0.30627 0.36021 0.0
N457 N 0.92381 0.29 0.35165 0.0
C458 C 0.91002 0.28702 0.43101 0.0
C459 C 0.87562 0.29564 0.43562 0.0
C460 C 0.76686 0.1783 0.58519 0.0
C461 C 0.76259 0.19289 0.50257 0.0
C462 C 0.77484 0.14451 0.59146 0.0
C463 C 0.77856 0.12382 0.51549 0.0
H464 H 0.76549 0.19345 0.64596 0.0
H465 H 0.77984 0.13487 0.65632 0.0
S466 S 0.767 0.14819 0.28356 0.0
N467 N 0.76017 0.18292 0.34278 0.0
N468 N 0.77526 0.11921 0.35531 0.0
C469 C 0.77233 0.13727 0.43253 0.0
C470 C 0.76419 0.17184 0.42586 0.0
C471 C 0.37415 0.23793 0.08103 0.0
C472 C 0.36055 0.26475 0.03493 0.0
C473 C 0.40712 0.22746 0.06935 0.0
C474 C 0.42789 0.24388 0.01272 0.0
H475 H 0.35863 0.22364 0.12222 0.0
H476 H 0.41606 0.20556 0.1022 0.0
S477 S 0.40554 0.31769 0.88462 0.0
N478 N 0.37135 0.30915 0.93596 0.0
N479 N 0.43335 0.28967 0.91527 0.0
C480 C 0.41533 0.27201 0.97088 0.0
C481 C 0.38164 0.28238 0.98163 0.0
C482 C 0.28279 0.89242 0.54996 0.0
C483 C 0.28347 0.87021 0.47497 0.0
C484 C 0.29291 0.92597 0.54663 0.0
C485 C 0.3042 0.9385 0.46836 0.0
H486 H 0.27561 0.8836 0.61276 0.0
H487 H 0.29348 0.94174 0.60669 0.0
S488 S 0.30778 0.89247 0.25143 0.0
N489 N 0.29397 0.86465 0.3179 0.0
N490 N 0.31313 0.92732 0.31286 0.0
C491 C 0.30345 0.91724 0.3921 0.0
C492 C 0.29304 0.88323 0.39504 0.0
C493 C 0.66653 0.78101 0.09688 0.0
C494 C 0.68044 0.78405 0.01403 0.0
C495 C 0.63278 0.77262 0.1035 0.0
C496 C 0.61141 0.76757 0.0278 0.0
H497 H 0.68214 0.7834 0.1572 0.0
H498 H 0.62363 0.76865 0.16826 0.0
S499 S 0.6339 0.77635 0.79611 0.0
N500 N 0.66911 0.78412 0.85481 0.0
N501 N 0.60554 0.76862 0.8681 0.0
C502 C 0.62425 0.77255 0.94501 0.0
C503 C 0.65879 0.78073 0.93794 0.0
loop_
_geom_bond_atom_site_label_1
_geom_bond_atom_site_label_2
_geom_bond_distance
_geom_bond_site_symmetry_2
_ccdc_geom_bond_type
Fe0 O2 1.923 . S
Fe0 O5 1.997 . S
Fe0 O6 2.002 . S
Fe0 O11 1.976 . S
Fe0 O14 1.996 . S
Fe1 O2 1.913 1_556 S
Fe1 O9 1.997 . S
Fe1 O12 1.996 . S
Fe1 O16 1.976 . S
Fe1 O19 2.002 . S
O2 Fe0 1.923 . S
O2 Fe1 1.913 1_554 S
O2 Fe3 1.918 1_554 S
Fe3 O2 1.918 1_556 S
Fe3 O4 2.002 1_556 S
Fe3 O13 1.976 1_556 S
Fe3 O17 1.996 . S
Fe3 O20 1.997 . S
O4 Fe3 2.002 1_554 S
O4 C21 1.295 . S
O5 Fe0 1.997 . S
O5 C21 1.235 . S
O6 Fe0 2.002 . S
O6 C7 1.295 . S
C7 O6 1.295 . S
C7 O9 1.235 1_554 S
C8 O13 1.287 . S
C8 O14 1.255 . S
O9 Fe1 1.997 . S
O9 C7 1.235 1_556 S
C10 O16 1.287 . S
C10 O17 1.255 . S
O11 Fe0 1.976 . S
O11 C18 1.287 . S
O12 Fe1 1.996 . S
O12 C18 1.255 1_556 S
O13 Fe3 1.976 1_554 S
O13 C8 1.287 . S
O14 Fe0 1.996 . S
O14 C8 1.255 . S
C15 O19 1.295 . S
C15 O20 1.235 . S
O16 Fe1 1.976 . S
O16 C10 1.287 . S
O17 Fe3 1.996 . S
O17 C10 1.255 . S
C18 O11 1.287 . S
C18 O12 1.255 1_554 S
O19 Fe1 2.002 . S
O19 C15 1.295 . S
O20 Fe3 1.997 . S
O20 C15 1.235 . S
C21 O4 1.295 . S
C21 O5 1.235 . S
Fe22 O24 1.918 . S
Fe22 O27 1.997 . S
Fe22 O28 2.002 . S
Fe22 O33 1.976 . S
Fe22 O36 1.996 . S
Fe23 O24 1.918 . S
Fe23 O31 1.997 . S
Fe23 O34 1.996 . S
Fe23 O38 1.976 . S
Fe23 O41 2.002 . S
O24 Fe22 1.918 . S
O24 Fe23 1.918 . S
O24 Fe25 1.918 . S
Fe25 O24 1.918 . S
Fe25 O26 2.002 . S
Fe25 O35 1.976 . S
Fe25 O39 1.996 . S
Fe25 O42 1.997 . S
O26 Fe25 2.002 . S
O26 C43 1.295 . S
O27 Fe22 1.997 . S
O27 C43 1.235 . S
O28 Fe22 2.002 . S
O28 C29 1.295 . S
C29 O28 1.295 . S
C29 O31 1.235 . S
C30 O35 1.287 . S
C30 O36 1.255 . S
O31 Fe23 1.997 . S
O31 C29 1.235 . S
C32 O38 1.287 . S
C32 O39 1.255 . S
O33 Fe22 1.976 . S
O33 C40 1.287 . S
O34 Fe23 1.996 . S
O34 C40 1.255 . S
O35 Fe25 1.976 . S
O35 C30 1.287 . S
O36 Fe22 1.996 . S
O36 C30 1.255 . S
C37 O41 1.295 . S
C37 O42 1.235 . S
O38 Fe23 1.976 . S
O38 C32 1.287 . S
O39 Fe25 1.996 . S
O39 C32 1.255 . S
C40 O33 1.287 . S
C40 O34 1.255 . S
O41 Fe23 2.002 . S
O41 C37 1.295 . S
O42 Fe25 1.997 . S
O42 C37 1.235 . S
C43 O26 1.295 . S
C43 O27 1.235 . S
Fe44 O46 1.918 1_556 S
Fe44 O49 1.997 . S
Fe44 O50 2.002 . S
Fe44 O55 1.976 . S
Fe44 O58 1.996 . S
Fe45 O46 1.918 . S
Fe45 O53 1.997 . S
Fe45 O56 1.996 . S
Fe45 O60 1.976 . S
Fe45 O63 2.002 . S
O46 Fe44 1.918 1_554 S
O46 Fe45 1.918 . S
O46 Fe47 1.918 . S
Fe47 O46 1.918 . S
Fe47 O48 2.002 1_554 S
Fe47 O57 1.976 1_554 S
Fe47 O61 1.996 . S
Fe47 O64 1.997 . S
O48 Fe47 2.002 1_556 S
O48 C65 1.295 . S
O49 Fe44 1.997 . S
O49 C65 1.235 . S
O50 Fe44 2.002 . S
O50 C51 1.295 1_556 S
C51 O50 1.295 1_554 S
C51 O53 1.235 . S
C52 O57 1.287 . S
C52 O58 1.255 . S
O53 Fe45 1.997 . S
O53 C51 1.235 . S
C54 O60 1.287 . S
C54 O61 1.255 . S
O55 Fe44 1.976 . S
O55 C62 1.287 1_556 S
O56 Fe45 1.996 . S
O56 C62 1.255 . S
O57 Fe47 1.976 1_556 S
O57 C52 1.287 . S
O58 Fe44 1.996 . S
O58 C52 1.255 . S
C59 O63 1.295 . S
C59 O64 1.235 . S
O60 Fe45 1.976 . S
O60 C54 1.287 . S
O61 Fe47 1.996 . S
O61 C54 1.255 . S
C62 O55 1.287 1_554 S
C62 O56 1.255 . S
O63 Fe45 2.002 . S
O63 C59 1.295 . S
O64 Fe47 1.997 . S
O64 C59 1.235 . S
C65 O48 1.295 . S
C65 O49 1.235 . S
Fe66 O68 1.918 . S
Fe66 O71 1.997 . S
Fe66 O72 2.002 . S
Fe66 O77 1.976 . S
Fe66 O80 1.996 . S
Fe67 O68 1.918 . S
Fe67 O75 1.997 . S
Fe67 O78 1.996 . S
Fe67 O82 1.976 . S
Fe67 O85 2.002 . S
O68 Fe66 1.918 . S
O68 Fe67 1.918 . S
O68 Fe69 1.918 . S
Fe69 O68 1.918 . S
Fe69 O70 2.002 . S
Fe69 O79 1.976 . S
Fe69 O83 1.996 . S
Fe69 O86 1.997 . S
O70 Fe69 2.002 . S
O70 C87 1.295 . S
O71 Fe66 1.997 . S
O71 C87 1.235 . S
O72 Fe66 2.002 . S
O72 C73 1.295 . S
C73 O72 1.295 . S
C73 O75 1.235 . S
C74 O79 1.287 . S
C74 O80 1.255 . S
O75 Fe67 1.997 . S
O75 C73 1.235 . S
C76 O82 1.287 . S
C76 O83 1.255 . S
O77 Fe66 1.976 . S
O77 C84 1.287 . S
O78 Fe67 1.996 . S
O78 C84 1.255 . S
O79 Fe69 1.976 . S
O79 C74 1.287 . S
O80 Fe66 1.996 . S
O80 C74 1.255 . S
C81 O85 1.295 . S
C81 O86 1.235 . S
O82 Fe67 1.976 . S
O82 C76 1.287 . S
O83 Fe69 1.996 . S
O83 C76 1.255 . S
C84 O77 1.287 . S
C84 O78 1.255 . S
O85 Fe67 2.002 . S
O85 C81 1.295 . S
O86 Fe69 1.997 . S
O86 C81 1.235 . S
C87 O70 1.295 . S
C87 O71 1.235 . S
H88 C89 0.949 . S
C89 H88 0.949 . S
C89 C90 1.395 . S
C89 C91 1.391 1_554 S
C90 C89 1.395 . S
C90 C93 1.390 . S
C91 C89 1.391 1_556 S
C91 C95 1.387 . S
C91 C96 1.491 . S
H92 C93 0.950 . S
C93 C90 1.390 . S
C93 H92 0.950 . S
C93 C94 1.378 1_554 S
C94 C93 1.378 1_556 S
C94 C95 1.409 . S
C95 C91 1.387 . S
C95 C94 1.409 . S
C95 H97 0.951 . S
C96 C91 1.491 . S
C96 C98 1.382 1_556 S
C96 C100 1.404 . S
H97 C95 0.951 . S
C98 C96 1.382 1_554 S
C98 C99 1.390 1_554 S
C98 H103 0.949 . S
C99 C98 1.390 1_556 S
C99 C104 1.399 . S
C100 C96 1.404 . S
C100 H101 0.950 . S
C100 C102 1.375 . S
H101 C100 0.950 . S
C102 C100 1.375 . S
C102 C104 1.382 . S
C102 H106 0.950 . S
H103 C98 0.949 . S
C104 C99 1.399 . S
C104 C102 1.382 . S
C104 H105 0.952 . S
H105 C104 0.952 . S
H106 C102 0.950 . S
H107 C108 0.949 . S
C108 H107 0.949 . S
C108 C109 1.395 . S
C108 C110 1.391 . S
C109 C108 1.395 . S
C109 C112 1.390 . S
C110 C108 1.391 . S
C110 C114 1.387 . S
C110 C115 1.491 1_655 S
H111 C112 0.950 . S
C112 C109 1.390 . S
C112 H111 0.950 . S
C112 C113 1.378 . S
C113 C112 1.378 . S
C113 C114 1.409 . S
C114 C110 1.387 . S
C114 C113 1.409 . S
C114 H116 0.951 . S
C115 C110 1.491 1_455 S
C115 C117 1.382 . S
C115 C119 1.404 . S
H116 C114 0.951 . S
C117 C115 1.382 . S
C117 C118 1.390 . S
C117 H122 0.949 . S
C118 C117 1.390 . S
C118 C123 1.399 . S
C119 C115 1.404 . S
C119 H120 0.950 . S
C119 C121 1.375 . S
H120 C119 0.950 . S
C121 C119 1.375 . S
C121 C123 1.382 . S
C121 H125 0.950 . S
H122 C117 0.949 . S
C123 C118 1.399 . S
C123 C121 1.382 . S
C123 H124 0.952 . S
H124 C123 0.952 . S
H125 C121 0.950 . S
H126 C127 0.949 . S
C127 H126 0.949 . S
C127 C128 1.395 . S
C127 C129 1.391 1_556 S
C128 C127 1.395 . S
C128 C131 1.390 1_556 S
C129 C127 1.391 1_554 S
C129 C133 1.387 . S
C129 C134 1.491 . S
H130 C131 0.950 . S
C131 C128 1.390 1_554 S
C131 H130 0.950 . S
C131 C132 1.378 . S
C132 C131 1.378 . S
C132 C133 1.409 . S
C133 C129 1.387 . S
C133 C132 1.409 . S
C133 H135 0.951 . S
C134 C129 1.491 . S
C134 C136 1.382 . S
C134 C138 1.404 . S
H135 C133 0.951 . S
C136 C134 1.382 . S
C136 C137 1.390 . S
C136 H141 0.949 1_554 S
C137 C136 1.390 . S
C137 C142 1.399 . S
C138 C134 1.404 . S
C138 H139 0.950 . S
C138 C140 1.375 . S
H139 C138 0.950 . S
C140 C138 1.375 . S
C140 C142 1.382 . S
C140 H144 0.950 . S
H141 C136 0.949 1_556 S
C142 C137 1.399 . S
C142 C140 1.382 . S
C142 H143 0.952 . S
H143 C142 0.952 . S
H144 C140 0.950 . S
H145 C146 0.949 . S
C146 H145 0.949 . S
C146 C147 1.395 . S
C146 C148 1.391 . S
C147 C146 1.395 . S
C147 C150 1.390 . S
C148 C146 1.391 . S
C148 C152 1.387 . S
C148 C153 1.491 1_455 S
H149 C150 0.950 . S
C150 C147 1.390 . S
C150 H149 0.950 . S
C150 C151 1.378 . S
C151 C150 1.378 . S
C151 C152 1.409 . S
C152 C148 1.387 . S
C152 C151 1.409 . S
C152 H154 0.951 . S
C153 C148 1.491 1_655 S
C153 C155 1.382 . S
C153 C157 1.404 . S
H154 C152 0.951 . S
C155 C153 1.382 . S
C155 C156 1.390 . S
C155 H160 0.949 . S
C156 C155 1.390 . S
C156 C161 1.399 . S
C157 C153 1.404 . S
C157 H158 0.950 . S
C157 C159 1.375 . S
H158 C157 0.950 . S
C159 C157 1.375 . S
C159 C161 1.382 . S
C159 H163 0.950 . S
H160 C155 0.949 . S
C161 C156 1.399 . S
C161 C159 1.382 . S
C161 H162 0.952 . S
H162 C161 0.952 . S
H163 C159 0.950 . S
H164 C165 0.949 . S
C165 H164 0.949 . S
C165 C166 1.395 . S
C165 C167 1.391 . S
C166 C165 1.395 . S
C166 C169 1.390 . S
C167 C165 1.391 . S
C167 C171 1.387 . S
C167 C172 1.491 1_565 S
H168 C169 0.950 . S
C169 C166 1.390 . S
C169 H168 0.950 . S
C169 C170 1.378 . S
C170 C169 1.378 . S
C170 C171 1.409 . S
C171 C167 1.387 . S
C171 C170 1.409 . S
C171 H173 0.951 . S
C172 C167 1.491 1_545 S
C172 C174 1.382 . S
C172 C176 1.404 . S
H173 C171 0.951 . S
C174 C172 1.382 . S
C174 C175 1.390 . S
C174 H179 0.949 . S
C175 C174 1.390 . S
C175 C180 1.399 . S
C176 C172 1.404 . S
C176 H177 0.950 . S
C176 C178 1.375 . S
H177 C176 0.950 . S
C178 C176 1.375 . S
C178 C180 1.382 . S
C178 H182 0.950 . S
H179 C174 0.949 . S
C180 C175 1.399 . S
C180 C178 1.382 . S
C180 H181 0.952 . S
H181 C180 0.952 . S
H182 C178 0.950 . S
H183 C184 0.949 . S
C184 H183 0.949 . S
C184 C185 1.395 . S
C184 C186 1.391 1_554 S
C185 C184 1.395 . S
C185 C188 1.390 . S
C186 C184 1.391 1_556 S
C186 C190 1.387 . S
C186 C191 1.491 . S
H187 C188 0.950 . S
C188 C185 1.390 . S
C188 H187 0.950 . S
C188 C189 1.378 1_554 S
C189 C188 1.378 1_556 S
C189 C190 1.409 . S
C190 C186 1.387 . S
C190 C189 1.409 . S
C190 H192 0.951 . S
C191 C186 1.491 . S
C191 C193 1.382 1_556 S
C191 C195 1.404 . S
H192 C190 0.951 . S
C193 C191 1.382 1_554 S
C193 C194 1.390 1_554 S
C193 H198 0.949 . S
C194 C193 1.390 1_556 S
C194 C199 1.399 . S
C195 C191 1.404 . S
C195 H196 0.950 . S
C195 C197 1.375 . S
H196 C195 0.950 . S
C197 C195 1.375 . S
C197 C199 1.382 . S
C197 H201 0.950 . S
H198 C193 0.949 . S
C199 C194 1.399 . S
C199 C197 1.382 . S
C199 H200 0.952 . S
H200 C199 0.952 . S
H201 C197 0.950 . S
H202 C203 0.949 . S
C203 H202 0.949 . S
C203 C204 1.395 . S
C203 C205 1.391 . S
C204 C203 1.395 . S
C204 C207 1.390 . S
C205 C203 1.391 . S
C205 C209 1.387 . S
C205 C210 1.491 1_545 S
H206 C207 0.950 . S
C207 C204 1.390 . S
C207 H206 0.950 . S
C207 C208 1.378 . S
C208 C207 1.378 . S
C208 C209 1.409 . S
C209 C205 1.387 . S
C209 C208 1.409 . S
C209 H211 0.951 . S
C210 C205 1.491 1_565 S
C210 C212 1.382 . S
C210 C214 1.404 . S
H211 C209 0.951 . S
C212 C210 1.382 . S
C212 C213 1.390 . S
C212 H217 0.949 . S
C213 C212 1.390 . S
C213 C218 1.399 . S
C214 C210 1.404 . S
C214 H215 0.950 . S
C214 C216 1.375 . S
H215 C214 0.950 . S
C216 C214 1.375 . S
C216 C218 1.382 . S
C216 H220 0.950 . S
H217 C212 0.949 . S
C218 C213 1.399 . S
C218 C216 1.382 . S
C218 H219 0.952 . S
H219 C218 0.952 . S
H220 C216 0.950 . S
H221 C222 0.949 . S
C222 H221 0.949 . S
C222 C223 1.395 . S
C222 C224 1.391 1_556 S
C223 C222 1.395 . S
C223 C226 1.390 1_556 S
C224 C222 1.391 1_554 S
C224 C228 1.387 . S
C224 C229 1.491 . S
H225 C226 0.950 . S
C226 C223 1.390 1_554 S
C226 H225 0.950 . S
C226 C227 1.378 . S
C227 C226 1.378 . S
C227 C228 1.409 . S
C228 C224 1.387 . S
C228 C227 1.409 . S
C228 H230 0.951 . S
C229 C224 1.491 . S
C229 C231 1.382 . S
C229 C233 1.404 . S
H230 C228 0.951 . S
C231 C229 1.382 . S
C231 C232 1.390 . S
C231 H236 0.949 1_554 S
C232 C231 1.390 . S
C232 C237 1.399 . S
C233 C229 1.404 . S
C233 H234 0.950 . S
C233 C235 1.375 . S
H234 C233 0.950 . S
C235 C233 1.375 . S
C235 C237 1.382 . S
C235 H239 0.950 . S
H236 C231 0.949 1_556 S
C237 C232 1.399 . S
C237 C235 1.382 . S
C237 H238 0.952 . S
H238 C237 0.952 . S
H239 C235 0.950 . S
C240 C241 1.369 . S
C240 C242 1.419 . S
C240 H244 0.930 . S
C241 C240 1.369 . S
C241 C250 1.429 . S
C242 C240 1.419 . S
C242 C243 1.363 . S
C242 H245 0.929 . S
C243 C242 1.363 . S
C243 C249 1.428 . S
H244 C240 0.930 . S
H245 C242 0.929 . S
S246 N247 1.613 . S
S246 N248 1.610 . S
N247 S246 1.613 . S
N247 C250 1.350 . S
N248 S246 1.610 . S
N248 C249 1.351 . S
C249 C243 1.428 . S
C249 N248 1.351 . S
C249 C250 1.434 . S
C250 C241 1.429 . S
C250 N247 1.350 . S
C250 C249 1.434 . S
C251 C252 1.369 . S
C251 C253 1.419 . S
C251 H255 0.930 . S
C252 C251 1.369 . S
C252 C261 1.429 . S
C253 C251 1.419 . S
C253 C254 1.363 . S
C253 H256 0.929 . S
C254 C253 1.363 . S
C254 C260 1.428 . S
H255 C251 0.930 . S
H256 C253 0.929 . S
S257 N258 1.613 . S
S257 N259 1.610 . S
N258 S257 1.613 . S
N258 C261 1.350 . S
N259 S257 1.610 . S
N259 C260 1.351 . S
C260 C254 1.428 . S
C260 N259 1.351 . S
C260 C261 1.434 . S
C261 C252 1.429 . S
C261 N258 1.350 . S
C261 C260 1.434 . S
C262 C263 1.369 . S
C262 C264 1.419 . S
C262 H266 0.930 . S
C263 C262 1.369 . S
C263 C272 1.429 . S
C264 C262 1.419 . S
C264 C265 1.363 . S
C264 H267 0.929 . S
C265 C264 1.363 . S
C265 C271 1.428 . S
H266 C262 0.930 . S
H267 C264 0.929 . S
S268 N269 1.613 . S
S268 N270 1.610 . S
N269 S268 1.613 . S
N269 C272 1.350 . S
N270 S268 1.610 . S
N270 C271 1.351 . S
C271 C265 1.428 . S
C271 N270 1.351 . S
C271 C272 1.434 . S
C272 C263 1.429 . S
C272 N269 1.350 . S
C272 C271 1.434 . S
C273 C274 1.369 . S
C273 C275 1.419 . S
C273 H277 0.930 . S
C274 C273 1.369 . S
C274 C283 1.429 . S
C275 C273 1.419 . S
C275 C276 1.363 . S
C275 H278 0.929 . S
C276 C275 1.363 . S
C276 C282 1.428 . S
H277 C273 0.930 . S
H278 C275 0.929 . S
S279 N280 1.613 . S
S279 N281 1.610 . S
N280 S279 1.613 . S
N280 C283 1.350 . S
N281 S279 1.610 . S
N281 C282 1.351 . S
C282 C276 1.428 . S
C282 N281 1.351 . S
C282 C283 1.434 . S
C283 C274 1.429 . S
C283 N280 1.350 . S
C283 C282 1.434 . S
C284 C285 1.369 . S
C284 C286 1.419 . S
C284 H288 0.930 . S
C285 C284 1.369 . S
C285 C294 1.429 . S
C286 C284 1.419 . S
C286 C287 1.363 . S
C286 H289 0.929 . S
C287 C286 1.363 . S
C287 C293 1.428 . S
H288 C284 0.930 . S
H289 C286 0.929 . S
S290 N291 1.613 . S
S290 N292 1.610 . S
N291 S290 1.613 . S
N291 C294 1.350 . S
N292 S290 1.610 . S
N292 C293 1.351 . S
C293 C287 1.428 . S
C293 N292 1.351 . S
C293 C294 1.434 . S
C294 C285 1.429 . S
C294 N291 1.350 . S
C294 C293 1.434 . S
C295 C296 1.369 . S
C295 C297 1.419 . S
C295 H299 0.930 . S
C296 C295 1.369 . S
C296 C305 1.429 . S
C297 C295 1.419 . S
C297 C298 1.363 . S
C297 H300 0.929 . S
C298 C297 1.363 . S
C298 C304 1.428 . S
H299 C295 0.930 . S
H300 C297 0.929 . S
S301 N302 1.613 . S
S301 N303 1.610 . S
N302 S301 1.613 . S
N302 C305 1.350 . S
N303 S301 1.610 . S
N303 C304 1.351 . S
C304 C298 1.428 . S
C304 N303 1.351 . S
C304 C305 1.434 . S
C305 C296 1.429 . S
C305 N302 1.350 . S
C305 C304 1.434 . S
C306 C307 1.369 . S
C306 C308 1.419 . S
C306 H310 0.930 . S
C307 C306 1.369 . S
C307 C316 1.429 . S
C308 C306 1.419 . S
C308 C309 1.363 . S
C308 H311 0.929 . S
C309 C308 1.363 . S
C309 C315 1.428 . S
H310 C306 0.930 . S
H311 C308 0.929 . S
S312 N313 1.613 . S
S312 N314 1.610 . S
N313 S312 1.613 . S
N313 C316 1.350 . S
N314 S312 1.610 . S
N314 C315 1.351 . S
C315 C309 1.428 . S
C315 N314 1.351 . S
C315 C316 1.434 . S
C316 C307 1.429 . S
C316 N313 1.350 . S
C316 C315 1.434 . S
C317 C318 1.369 . S
C317 C319 1.419 . S
C317 H321 0.930 . S
C318 C317 1.369 . S
C318 C327 1.429 . S
C319 C317 1.419 . S
C319 C320 1.363 . S
C319 H322 0.929 . S
C320 C319 1.363 . S
C320 C326 1.428 . S
H321 C317 0.930 . S
H322 C319 0.929 . S
S323 N324 1.613 . S
S323 N325 1.610 . S
N324 S323 1.613 . S
N324 C327 1.350 . S
N325 S323 1.610 . S
N325 C326 1.351 . S
C326 C320 1.428 . S
C326 N325 1.351 . S
C326 C327 1.434 . S
C327 C318 1.429 . S
C327 N324 1.350 . S
C327 C326 1.434 . S
C328 C329 1.369 . S
C328 C330 1.419 . S
C328 H332 0.930 . S
C329 C328 1.369 . S
C329 C338 1.429 . S
C330 C328 1.419 . S
C330 C331 1.363 . S
C330 H333 0.929 . S
C331 C330 1.363 . S
C331 C337 1.428 . S
H332 C328 0.930 . S
H333 C330 0.929 . S
S334 N335 1.613 . S
S334 N336 1.610 . S
N335 S334 1.613 . S
N335 C338 1.350 . S
N336 S334 1.610 . S
N336 C337 1.351 . S
C337 C331 1.428 . S
C337 N336 1.351 . S
C337 C338 1.434 . S
C338 C329 1.429 . S
C338 N335 1.350 . S
C338 C337 1.434 . S
C339 C340 1.369 . S
C339 C341 1.419 . S
C339 H343 0.930 . S
C340 C339 1.369 . S
C340 C349 1.429 . S
C341 C339 1.419 . S
C341 C342 1.363 . S
C341 H344 0.929 . S
C342 C341 1.363 . S
C342 C348 1.428 . S
H343 C339 0.930 . S
H344 C341 0.929 . S
S345 N346 1.613 . S
S345 N347 1.610 . S
N346 S345 1.613 . S
N346 C349 1.350 . S
N347 S345 1.610 . S
N347 C348 1.351 . S
C348 C342 1.428 . S
C348 N347 1.351 . S
C348 C349 1.434 . S
C349 C340 1.429 . S
C349 N346 1.350 . S
C349 C348 1.434 . S
C350 C351 1.369 . S
C350 C352 1.419 . S
C350 H354 0.930 . S
C351 C350 1.369 . S
C351 C360 1.429 . S
C352 C350 1.419 . S
C352 C353 1.363 . S
C352 H355 0.929 . S
C353 C352 1.363 . S
C353 C359 1.428 . S
H354 C350 0.930 . S
H355 C352 0.929 . S
S356 N357 1.613 . S
S356 N358 1.610 . S
N357 S356 1.613 . S
N357 C360 1.350 . S
N358 S356 1.610 . S
N358 C359 1.351 . S
C359 C353 1.428 . S
C359 N358 1.351 . S
C359 C360 1.434 . S
C360 C351 1.429 . S
C360 N357 1.350 . S
C360 C359 1.434 . S
C361 C362 1.369 . S
C361 C363 1.419 . S
C361 H365 0.930 . S
C362 C361 1.369 . S
C362 C371 1.429 . S
C363 C361 1.419 . S
C363 C364 1.363 . S
C363 H366 0.929 . S
C364 C363 1.363 . S
C364 C370 1.428 . S
H365 C361 0.930 . S
H366 C363 0.929 . S
S367 N368 1.613 . S
S367 N369 1.610 . S
N368 S367 1.613 . S
N368 C371 1.350 . S
N369 S367 1.610 . S
N369 C370 1.351 . S
C370 C364 1.428 . S
C370 N369 1.351 . S
C370 C371 1.434 . S
C371 C362 1.429 . S
C371 N368 1.350 . S
C371 C370 1.434 . S
C372 C373 1.369 . S
C372 C374 1.419 . S
C372 H376 0.930 . S
C373 C372 1.369 . S
C373 C382 1.429 . S
C374 C372 1.419 . S
C374 C375 1.363 . S
C374 H377 0.929 . S
C375 C374 1.363 . S
C375 C381 1.428 . S
H376 C372 0.930 . S
H377 C374 0.929 . S
S378 N379 1.613 . S
S378 N380 1.610 . S
N379 S378 1.613 . S
N379 C382 1.350 . S
N380 S378 1.610 . S
N380 C381 1.351 . S
C381 C375 1.428 . S
C381 N380 1.351 . S
C381 C382 1.434 . S
C382 C373 1.429 . S
C382 N379 1.350 . S
C382 C381 1.434 . S
C383 C384 1.369 . S
C383 C385 1.419 . S
C383 H387 0.930 . S
C384 C383 1.369 . S
C384 C393 1.429 . S
C385 C383 1.419 . S
C385 C386 1.363 . S
C385 H388 0.929 . S
C386 C385 1.363 . S
C386 C392 1.428 . S
H387 C383 0.930 . S
H388 C385 0.929 . S
S389 N390 1.613 . S
S389 N391 1.610 . S
N390 S389 1.613 . S
N390 C393 1.350 . S
N391 S389 1.610 . S
N391 C392 1.351 . S
C392 C386 1.428 . S
C392 N391 1.351 . S
C392 C393 1.434 . S
C393 C384 1.429 . S
C393 N390 1.350 . S
C393 C392 1.434 . S
C394 C395 1.369 . S
C394 C396 1.419 . S
C394 H398 0.930 . S
C395 C394 1.369 . S
C395 C404 1.429 . S
C396 C394 1.419 . S
C396 C397 1.363 . S
C396 H399 0.929 . S
C397 C396 1.363 . S
C397 C403 1.428 . S
H398 C394 0.930 . S
H399 C396 0.929 . S
S400 N401 1.613 . S
S400 N402 1.610 . S
N401 S400 1.613 . S
N401 C404 1.350 . S
N402 S400 1.610 . S
N402 C403 1.351 . S
C403 C397 1.428 . S
C403 N402 1.351 . S
C403 C404 1.434 . S
C404 C395 1.429 . S
C404 N401 1.350 . S
C404 C403 1.434 . S
C405 C406 1.369 . S
C405 C407 1.419 . S
C405 H409 0.930 . S
C406 C405 1.369 . S
C406 C415 1.429 . S
C407 C405 1.419 . S
C407 C408 1.363 . S
C407 H410 0.929 . S
C408 C407 1.363 . S
C408 C414 1.428 . S
H409 C405 0.930 . S
H410 C407 0.929 . S
S411 N412 1.613 . S
S411 N413 1.610 . S
N412 S411 1.613 . S
N412 C415 1.350 . S
N413 S411 1.610 . S
N413 C414 1.351 . S
C414 C408 1.428 . S
C414 N413 1.351 . S
C414 C415 1.434 . S
C415 C406 1.429 . S
C415 N412 1.350 . S
C415 C414 1.434 . S
C416 C417 1.369 1_556 S
C416 C418 1.419 . S
C416 H420 0.930 . S
C417 C416 1.369 1_554 S
C417 C426 1.429 . S
C418 C416 1.419 . S
C418 C419 1.363 1_556 S
C418 H421 0.929 . S
C419 C418 1.363 1_554 S
C419 C425 1.428 . S
H420 C416 0.930 . S
H421 C418 0.929 . S
S422 N423 1.613 . S
S422 N424 1.610 . S
N423 S422 1.613 . S
N423 C426 1.350 . S
N424 S422 1.610 . S
N424 C425 1.351 . S
C425 C419 1.428 . S
C425 N424 1.351 . S
C425 C426 1.434 . S
C426 C417 1.429 . S
C426 N423 1.350 . S
C426 C425 1.434 . S
C427 C428 1.369 . S
C427 C429 1.419 . S
C427 H431 0.930 . S
C428 C427 1.369 . S
C428 C437 1.429 . S
C429 C427 1.419 . S
C429 C430 1.363 . S
C429 H432 0.929 . S
C430 C429 1.363 . S
C430 C436 1.428 . S
H431 C427 0.930 . S
H432 C429 0.929 . S
S433 N434 1.613 . S
S433 N435 1.610 . S
N434 S433 1.613 . S
N434 C437 1.350 . S
N435 S433 1.610 . S
N435 C436 1.351 . S
C436 C430 1.428 . S
C436 N435 1.351 . S
C436 C437 1.434 . S
C437 C428 1.429 . S
C437 N434 1.350 . S
C437 C436 1.434 . S
C438 C439 1.369 1_556 S
C438 C440 1.419 . S
C438 H442 0.930 . S
C439 C438 1.369 1_554 S
C439 C448 1.429 . S
C440 C438 1.419 . S
C440 C441 1.363 1_556 S
C440 H443 0.929 . S
C441 C440 1.363 1_554 S
C441 C447 1.428 . S
H442 C438 0.930 . S
H443 C440 0.929 . S
S444 N445 1.613 . S
S444 N446 1.610 . S
N445 S444 1.613 . S
N445 C448 1.350 . S
N446 S444 1.610 . S
N446 C447 1.351 . S
C447 C441 1.428 . S
C447 N446 1.351 . S
C447 C448 1.434 . S
C448 C439 1.429 . S
C448 N445 1.350 . S
C448 C447 1.434 . S
C449 C450 1.369 . S
C449 C451 1.419 . S
C449 H453 0.930 . S
C450 C449 1.369 . S
C450 C459 1.429 . S
C451 C449 1.419 . S
C451 C452 1.363 . S
C451 H454 0.929 . S
C452 C451 1.363 . S
C452 C458 1.428 . S
H453 C449 0.930 . S
H454 C451 0.929 . S
S455 N456 1.613 . S
S455 N457 1.610 . S
N456 S455 1.613 . S
N456 C459 1.350 . S
N457 S455 1.610 . S
N457 C458 1.351 . S
C458 C452 1.428 . S
C458 N457 1.351 . S
C458 C459 1.434 . S
C459 C450 1.429 . S
C459 N456 1.350 . S
C459 C458 1.434 . S
C460 C461 1.369 . S
C460 C462 1.419 . S
C460 H464 0.930 . S
C461 C460 1.369 . S
C461 C470 1.429 . S
C462 C460 1.419 . S
C462 C463 1.363 . S
C462 H465 0.929 . S
C463 C462 1.363 . S
C463 C469 1.428 . S
H464 C460 0.930 . S
H465 C462 0.929 . S
S466 N467 1.613 . S
S466 N468 1.610 . S
N467 S466 1.613 . S
N467 C470 1.350 . S
N468 S466 1.610 . S
N468 C469 1.351 . S
C469 C463 1.428 . S
C469 N468 1.351 . S
C469 C470 1.434 . S
C470 C461 1.429 . S
C470 N467 1.350 . S
C470 C469 1.434 . S
C471 C472 1.369 1_556 S
C471 C473 1.419 . S
C471 H475 0.930 . S
C472 C471 1.369 1_554 S
C472 C481 1.429 . S
C473 C471 1.419 . S
C473 C474 1.363 1_556 S
C473 H476 0.929 . S
C474 C473 1.363 1_554 S
C474 C480 1.428 . S
H475 C471 0.930 . S
H476 C473 0.929 . S
S477 N478 1.613 . S
S477 N479 1.610 . S
N478 S477 1.613 . S
N478 C481 1.350 . S
N479 S477 1.610 . S
N479 C480 1.351 . S
C480 C474 1.428 . S
C480 N479 1.351 . S
C480 C481 1.434 . S
C481 C472 1.429 . S
C481 N478 1.350 . S
C481 C480 1.434 . S
C482 C483 1.369 . S
C482 C484 1.419 . S
C482 H486 0.930 . S
C483 C482 1.369 . S
C483 C492 1.429 . S
C484 C482 1.419 . S
C484 C485 1.363 . S
C484 H487 0.929 . S
C485 C484 1.363 . S
C485 C491 1.428 . S
H486 C482 0.930 . S
H487 C484 0.929 . S
S488 N489 1.613 . S
S488 N490 1.610 . S
N489 S488 1.613 . S
N489 C492 1.350 . S
N490 S488 1.610 . S
N490 C491 1.351 . S
C491 C485 1.428 . S
C491 N490 1.351 . S
C491 C492 1.434 . S
C492 C483 1.429 . S
C492 N489 1.350 . S
C492 C491 1.434 . S
C493 C494 1.369 . S
C493 C495 1.419 . S
C493 H497 0.930 . S
C494 C493 1.369 . S
C494 C503 1.429 1_554 S
C495 C493 1.419 . S
C495 C496 1.363 . S
C495 H498 0.929 . S
C496 C495 1.363 . S
C496 C502 1.428 1_554 S
H497 C493 0.930 . S
H498 C495 0.929 . S
S499 N500 1.613 . S
S499 N501 1.610 . S
N500 S499 1.613 . S
N500 C503 1.350 . S
N501 S499 1.610 . S
N501 C502 1.351 . S
C502 C496 1.428 1_556 S
C502 N501 1.351 . S
C502 C503 1.434 . S
C503 C494 1.429 1_556 S
C503 N500 1.350 . S
C503 C502 1.434 . S
C241 C21 1.515 . S
C243 C151 1.524 . S
C252 C40 1.504 . S
C254 C94 1.499 . S
C265 C109 1.477 . S
C263 C54 1.521 . S
C274 C73 1.533 . S
C276 C128 1.504 . S
C287 C185 1.463 . S
C285 C74 1.503 . S
C298 C204 1.491 . S
C296 C10 1.537 . S
C309 C227 1.535 . S
C307 C37 1.532 . S
C320 C170 1.511 . S
C318 C65 1.500 . S
C329 C52 1.473 . S
C331 C113 1.471 . S
C340 C87 1.515 . S
C342 C132 1.522 . S
C351 C15 1.567 . S
C353 C147 1.528 . S
C364 C90 1.470 . S
C362 C32 1.517 . S
C373 C29 1.545 . S
C375 C223 1.509 . S
C386 C166 1.515 . S
C384 C59 1.552 . S
C397 C189 1.483 . S
C395 C84 1.486 . S
C406 C8 1.485 . S
C408 C208 1.482 . S
C419 C99 1.383 1_554 S
C417 C7 1.503 . S
C430 C118 1.379 . S
C428 C30 1.488 . S
C439 C62 1.501 . S
C441 C137 1.389 . S
C450 C81 1.515 . S
C452 C156 1.383 . S
C463 C175 1.367 . S
C461 C76 1.500 . S
C472 C18 1.489 . S
C474 C194 1.379 1_554 S
C483 C43 1.504 . S
C485 C213 1.396 . S
C494 C51 1.516 . S
C496 C232 1.388 . S
