# Generated by pormake.
# Topology pth, (4,4)-cn, num edge types: 1
# Building blocks:
#     Node 0, Type 0, BuildingBlock: GALJAG_clean_sbu_0, # of connection points: 4
#     Node 1, Type 0, BuildingBlock: GALJAG_clean_sbu_0, # of connection points: 4
#     Node 2, Type 0, BuildingBlock: GALJAG_clean_sbu_0, # of connection points: 4
#     Node 3, Type 1, BuildingBlock: AZAVOO_clean_linker_0, # of connection points: 4
#     Node 4, Type 1, BuildingBlock: AZAVOO_clean_linker_0, # of connection points: 4
#     Node 5, Type 1, BuildingBlock: AZAVOO_clean_linker_0, # of connection points: 4
#     Edge 6, Type (0, 1), BuildingBlock: FUNLAD_clean_linker_0, # of connection points: 2
#     Edge 7, Type (0, 1), BuildingBlock: FUNLAD_clean_linker_0, # of connection points: 2
#     Edge 8, Type (0, 1), BuildingBlock: FUNLAD_clean_linker_0, # of connection points: 2
#     Edge 9, Type (0, 1), BuildingBlock: FUNLAD_clean_linker_0, # of connection points: 2
#     Edge 10, Type (0, 1), BuildingBlock: FUNLAD_clean_linker_0, # of connection points: 2
#     Edge 11, Type (0, 1), BuildingBlock: FUNLAD_clean_linker_0, # of connection points: 2
#     Edge 12, Type (0, 1), BuildingBlock: FUNLAD_clean_linker_0, # of connection points: 2
#     Edge 13, Type (0, 1), BuildingBlock: FUNLAD_clean_linker_0, # of connection points: 2
#     Edge 14, Type (0, 1), BuildingBlock: FUNLAD_clean_linker_0, # of connection points: 2
#     Edge 15, Type (0, 1), BuildingBlock: FUNLAD_clean_linker_0, # of connection points: 2
#     Edge 16, Type (0, 1), BuildingBlock: FUNLAD_clean_linker_0, # of connection points: 2
#     Edge 17, Type (0, 1), BuildingBlock: FUNLAD_clean_linker_0, # of connection points: 2
# Relax obj value: 0.123
# Max RMSD: 0.232
# Mean RMSD: 0.161
data_MOF--net-pth--node1-GALJAG_clean_sbu_0--node2-AZAVOO_clean_linker_0--edge1-FUNLAD_clean_linker_0
_symmetry_space_group_name_H-M    P1
_symmetry_Int_Tables_number       1
_symmetry_cell_setting            triclinic
loop_
_symmetry_equiv_pos_as_xyz
'x, y, z'
_cell_length_a     30.581031
_cell_length_b     30.901011
_cell_length_c     79.11725
_cell_angle_alpha  93.002062
_cell_angle_beta   88.998922
_cell_angle_gamma 120.01353
loop_
_atom_site_label
_atom_site_type_symbol
_atom_site_fract_x
_atom_site_fract_y
_atom_site_fract_z
_atom_type_partial_charge
In0 In 0.06801 0.04787 0.0574 0.0
O1 O 0.01561 0.071 0.07076 0.0
O2 O 0.07682 0.0766 0.08491 0.0
C3 C 0.01466 0.01131 0.02826 0.0
C4 C 0.15097 0.12966 0.04681 0.0
C5 C 0.06651 0.96774 0.06992 0.0
O6 O -0.0025 0.0228 0.04128 0.0
O7 O 0.05864 0.01817 0.02996 0.0
O8 O 0.10669 0.00908 0.06863 0.0
O9 O 0.02723 0.96673 0.06474 0.0
C10 C 0.03885 0.08242 0.08476 0.0
O11 O 0.14987 0.08889 0.04879 0.0
O12 O 0.11039 0.12925 0.0503 0.0
In13 In 0.02016 0.04144 0.38741 0.0
O14 O 0.06256 0.11369 0.37351 0.0
O15 O 0.98396 0.06742 0.36845 0.0
C16 C 0.09451 0.04901 0.40718 0.0
C17 C 0.96082 0.04654 0.41202 0.0
C18 C 0.0047 0.9614 0.36752 0.0
O19 O 0.10195 0.08208 0.39698 0.0
O20 O 0.04996 0.01264 0.40731 0.0
O21 O 0.97127 0.96037 0.37735 0.0
O22 O 0.04497 0.00306 0.36739 0.0
C23 C 0.02429 0.10724 0.36549 0.0
O24 O 0.94648 0.0084 0.4021 0.0
O25 O 0.00442 0.08232 0.40922 0.0
In26 In 0.04562 0.06012 0.72659 0.0
O27 O -0.00054 0.98065 0.73545 0.0
O28 O 0.98425 0.03601 0.74647 0.0
C29 C 0.11435 0.04823 0.70834 0.0
C30 C 0.98585 0.06983 0.70428 0.0
C31 C 0.11271 0.1309 0.74856 0.0
O32 O 0.08331 0.01512 0.71782 0.0
O33 O 0.10954 0.08633 0.70771 0.0
O34 O 0.0949 0.14158 0.73619 0.0
O35 O 0.09535 0.08474 0.75008 0.0
C36 C 0.97357 0.99086 0.74578 0.0
O37 O 0.00626 0.10031 0.7168 0.0
O38 O -0.00377 0.03512 0.70294 0.0
H39 H 0.9661 0.39789 0.11397 0.0
H40 H 0.06971 0.83528 0.25135 0.0
H41 H 0.92666 0.39038 0.21223 0.0
H42 H 0.92514 0.31495 0.20008 0.0
H43 H 0.08811 0.39694 0.19736 0.0
H44 H 0.08908 0.47176 0.20961 0.0
H45 H 0.92874 0.44517 0.18342 0.0
H46 H 0.92912 0.41578 0.15409 0.0
H47 H 0.09115 0.51305 0.15278 0.0
H48 H 0.09011 0.542 0.18213 0.0
H49 H 0.93155 0.54344 0.18705 0.0
H50 H 0.93238 0.59379 0.16399 0.0
H51 H 0.09295 0.69197 0.17159 0.0
H52 H 0.09169 0.6411 0.19459 0.0
H53 H 0.93848 0.60006 0.21939 0.0
H54 H 0.94348 0.68031 0.22691 0.0
H55 H 0.09765 0.74047 0.24402 0.0
H56 H 0.09232 0.6603 0.23622 0.0
H57 H 0.93081 0.54725 0.25222 0.0
H58 H 0.9349 0.59638 0.27788 0.0
H59 H 0.0891 0.63229 0.28631 0.0
H60 H 0.08503 0.58441 0.26014 0.0
H61 H 0.92645 0.43151 0.24957 0.0
H62 H 0.924 0.37478 0.27055 0.0
H63 H 0.08648 0.44297 0.26788 0.0
H64 H 0.08812 0.49843 0.24658 0.0
O65 O 0.96679 0.41007 0.12555 0.0
O66 O 0.05015 0.4601 0.12562 0.0
O67 O 0.98786 0.77105 0.23877 0.0
O68 O 0.06691 0.80341 0.24803 0.0
C69 C 0.00833 0.48358 0.21593 0.0
C70 C 0.00909 0.51268 0.20266 0.0
C71 C 0.01066 0.55848 0.20636 0.0
C72 C 0.01137 0.57523 0.22332 0.0
C73 C 0.00929 0.54539 0.23662 0.0
C74 C 0.00835 0.49984 0.23291 0.0
C75 C 0.00796 0.43622 0.21176 0.0
C76 C 0.96198 0.39147 0.20942 0.0
C77 C 0.96121 0.34869 0.20238 0.0
C78 C 0.00649 0.35016 0.19767 0.0
C79 C 0.05266 0.39444 0.20103 0.0
C80 C 0.05334 0.43722 0.20797 0.0
C81 C 0.00938 0.4956 0.18482 0.0
C82 C 0.96422 0.46004 0.17674 0.0
C83 C 0.96458 0.44336 0.16001 0.0
C84 C 0.01018 0.46205 0.15109 0.0
C85 C 0.05539 0.49789 0.15928 0.0
C86 C 0.05493 0.51454 0.17601 0.0
C87 C 0.01153 0.58888 0.19242 0.0
C88 C 0.96683 0.57579 0.18368 0.0
C89 C 0.96736 0.60463 0.1706 0.0
C90 C 0.01274 0.64676 0.16602 0.0
C91 C 0.05757 0.6594 0.17475 0.0
C92 C 0.05691 0.6307 0.1879 0.0
C93 C 0.01506 0.62449 0.22723 0.0
C94 C 0.97342 0.6308 0.2246 0.0
C95 C 0.97633 0.67658 0.22898 0.0
C96 C 0.02097 0.71681 0.2361 0.0
C97 C 0.06273 0.71032 0.23858 0.0
C98 C 0.0598 0.66459 0.23414 0.0
C99 C 0.00769 0.56258 0.25432 0.0
C100 C 0.96491 0.56443 0.25992 0.0
C101 C 0.96735 0.59249 0.27463 0.0
C102 C 0.01261 0.61891 0.28404 0.0
C103 C 0.054 0.61317 0.27916 0.0
C104 C 0.05159 0.5853 0.26436 0.0
C105 C 0.00744 0.46893 0.24667 0.0
C106 C 0.96145 0.43438 0.25369 0.0
C107 C 0.96021 0.40222 0.2657 0.0
C108 C 0.00506 0.40425 0.27085 0.0
C109 C 0.05122 0.43993 0.264 0.0
C110 C 0.05234 0.47188 0.25196 0.0
C111 C 0.01046 0.44415 0.13333 0.0
C112 C 0.02406 0.76528 0.24101 0.0
H113 H 0.59594 0.99563 0.45136 0.0
H114 H 0.25435 0.06125 0.59171 0.0
H115 H 0.58334 0.95666 0.55402 0.0
H116 H 0.65164 0.95114 0.53934 0.0
H117 H 0.71633 0.10506 0.52592 0.0
H118 H 0.64906 0.11057 0.54114 0.0
H119 H 0.53074 0.95817 0.52163 0.0
H120 H 0.55493 0.95936 0.49195 0.0
H121 H 0.58708 0.11224 0.49038 0.0
H122 H 0.56345 0.11072 0.52017 0.0
H123 H 0.42396 0.95331 0.52551 0.0
H124 H 0.36775 0.95052 0.50329 0.0
H125 H 0.41697 0.10665 0.51491 0.0
H126 H 0.4741 0.10925 0.53677 0.0
H127 H 0.38278 0.94696 0.56706 0.0
H128 H 0.30358 0.94189 0.57635 0.0
H129 H 0.37779 0.10354 0.57945 0.0
H130 H 0.45671 0.10793 0.57025 0.0
H131 H 0.45574 0.94442 0.59268 0.0
H132 H 0.40906 0.93363 0.61898 0.0
H133 H 0.46639 0.09324 0.62356 0.0
H134 H 0.51472 0.1036 0.59773 0.0
H135 H 0.54247 0.95296 0.58775 0.0
H136 H 0.60191 0.95428 0.60839 0.0
H137 H 0.69733 0.11357 0.60333 0.0
H138 H 0.63686 0.11191 0.58305 0.0
O139 O 0.58635 0.99592 0.46308 0.0
O140 O 0.60168 0.07424 0.46286 0.0
O141 O 0.24873 0.97915 0.58625 0.0
O142 O 0.28499 0.06212 0.58788 0.0
C143 C 0.56438 0.03359 0.55377 0.0
C144 C 0.53228 0.03395 0.5412 0.0
C145 C 0.48714 0.03291 0.5459 0.0
C146 C 0.47357 0.03063 0.56306 0.0
C147 C 0.50517 0.02934 0.57559 0.0
C148 C 0.55081 0.03126 0.57098 0.0
C149 C 0.6113 0.03395 0.54855 0.0
C150 C 0.61336 0.98965 0.54843 0.0
C151 C 0.65201 0.98641 0.53986 0.0
C152 C 0.68897 0.0274 0.53123 0.0
C153 C 0.68877 0.07289 0.53253 0.0
C154 C 0.6503 0.07615 0.54118 0.0
C155 C 0.54547 0.03438 0.52303 0.0
C156 C 0.54308 0.99187 0.51485 0.0
C157 C 0.55686 0.99266 0.49789 0.0
C158 C 0.57299 0.03592 0.48879 0.0
C159 C 0.57485 0.07832 0.49702 0.0
C160 C 0.56123 0.07753 0.514 0.0
C161 C 0.45268 0.03138 0.53273 0.0
C162 C 0.42247 0.98681 0.52321 0.0
C163 C 0.39031 0.98528 0.51061 0.0
C164 C 0.38786 0.02836 0.50739 0.0
C165 C 0.41844 0.07303 0.51697 0.0
C166 C 0.45067 0.07451 0.52954 0.0
C167 C 0.42519 0.02777 0.56793 0.0
C168 C 0.38165 0.98115 0.56966 0.0
C169 C 0.33658 0.97842 0.57501 0.0
C170 C 0.33436 0.02235 0.57865 0.0
C171 C 0.37815 0.06901 0.57674 0.0
C172 C 0.42321 0.07166 0.57144 0.0
C173 C 0.48881 0.02481 0.59342 0.0
C174 C 0.45993 0.9772 0.59981 0.0
C175 C 0.43266 0.97108 0.61468 0.0
C176 C 0.43324 0.01245 0.62324 0.0
C177 C 0.46538 0.06058 0.61743 0.0
C178 C 0.49308 0.06668 0.60266 0.0
C179 C 0.58526 0.03241 0.58409 0.0
C180 C 0.57583 0.98818 0.59133 0.0
C181 C 0.61007 0.98897 0.60296 0.0
C182 C 0.6544 0.03404 0.60747 0.0
C183 C 0.66325 0.0784 0.6003 0.0
C184 C 0.62895 0.07754 0.58868 0.0
C185 C 0.58789 0.03671 0.4708 0.0
C186 C 0.28671 0.01969 0.58448 0.0
H187 H 0.60094 0.67379 0.00292 0.0
H188 H 0.34222 0.22915 0.87287 0.0
H189 H 0.5885 0.68012 0.90718 0.0
H190 H 0.65075 0.76264 0.9191 0.0
H191 H 0.76562 0.72001 0.91494 0.0
H192 H 0.70336 0.63856 0.90225 0.0
H193 H 0.5214 0.59673 0.93447 0.0
H194 H 0.54199 0.63007 0.9638 0.0
H195 H 0.67866 0.62116 0.96091 0.0
H196 H 0.65729 0.58736 0.93166 0.0
H197 H 0.4399 0.48896 0.91923 0.0
H198 H 0.39407 0.43413 0.94217 0.0
H199 H 0.52684 0.42582 0.95442 0.0
H200 H 0.57187 0.4796 0.9311 0.0
H201 H 0.42999 0.47526 0.87993 0.0
H202 H 0.36228 0.39088 0.87161 0.0
H203 H 0.45354 0.33024 0.88848 0.0
H204 H 0.52131 0.41496 0.89647 0.0
H205 H 0.50263 0.56424 0.85831 0.0
H206 H 0.45183 0.51724 0.83333 0.0
H207 H 0.50697 0.41344 0.83596 0.0
H208 H 0.55778 0.4608 0.86095 0.0
H209 H 0.59606 0.66789 0.87185 0.0
H210 H 0.65133 0.72122 0.84991 0.0
H211 H 0.70711 0.61845 0.8402 0.0
H212 H 0.6532 0.56658 0.86258 0.0
O213 O 0.59343 0.66039 0.99133 0.0
O214 O 0.66341 0.65544 0.98915 0.0
O215 O 0.32314 0.29604 0.86747 0.0
O216 O 0.36807 0.26282 0.87628 0.0
C217 C 0.60211 0.6013 0.89979 0.0
C218 C 0.57552 0.57017 0.91313 0.0
C219 C 0.53644 0.5207 0.90952 0.0
C220 C 0.52302 0.50271 0.89257 0.0
C221 C 0.55001 0.53381 0.87921 0.0
C222 C 0.59013 0.58282 0.88282 0.0
C223 C 0.64162 0.65363 0.90391 0.0
C224 C 0.6275 0.68935 0.9084 0.0
C225 C 0.66301 0.7362 0.91538 0.0
C226 C 0.71307 0.74775 0.91826 0.0
C227 C 0.72761 0.71271 0.91277 0.0
C228 C 0.69213 0.66605 0.90556 0.0
C229 C 0.58796 0.58985 0.93097 0.0
C230 C 0.55568 0.6019 0.94023 0.0
C231 C 0.56759 0.621 0.95696 0.0
C232 C 0.61204 0.62838 0.96469 0.0
C233 C 0.64419 0.61603 0.95534 0.0
C234 C 0.63215 0.59682 0.93863 0.0
C235 C 0.50902 0.48799 0.92353 0.0
C236 C 0.45893 0.47513 0.92686 0.0
C237 C 0.43305 0.44422 0.94004 0.0
C238 C 0.45695 0.42582 0.95014 0.0
C239 C 0.5073 0.43902 0.94676 0.0
C240 C 0.53312 0.46989 0.93355 0.0
C241 C 0.48055 0.45116 0.88875 0.0
C242 C 0.43518 0.44366 0.88186 0.0
C243 C 0.3966 0.39545 0.87712 0.0
C244 C 0.40257 0.3538 0.87933 0.0
C245 C 0.44775 0.36146 0.88657 0.0
C246 C 0.48641 0.40976 0.89123 0.0
C247 C 0.53325 0.51545 0.86152 0.0
C248 C 0.50539 0.53261 0.85305 0.0
C249 C 0.47631 0.50565 0.83881 0.0
C250 C 0.47478 0.46119 0.83294 0.0
C251 C 0.50691 0.44716 0.84042 0.0
C252 C 0.53618 0.4743 0.85458 0.0
C253 C 0.6211 0.61374 0.8689 0.0
C254 C 0.62038 0.65711 0.865 0.0
C255 C 0.65161 0.68721 0.85236 0.0
C256 C 0.68384 0.67421 0.84336 0.0
C257 C 0.68342 0.62999 0.84708 0.0
C258 C 0.65239 0.6001 0.85975 0.0
C259 C 0.62468 0.64886 0.98245 0.0
C260 C 0.36209 0.30259 0.874 0.0
C261 C 0.05059 0.11371 0.11503 0.0
C262 C 0.02378 0.10238 0.09968 0.0
C263 C 0.03808 0.135 0.12893 0.0
C264 C -0.0013 0.14583 0.1277 0.0
C265 C 0.97068 0.13259 0.11255 0.0
C266 C 0.98316 0.11123 0.09865 0.0
C267 C 0.98652 0.17209 0.14164 0.0
C268 C 0.02059 0.20317 0.15344 0.0
C269 C 0.01171 0.23585 0.16579 0.0
C270 C 0.04424 0.25747 0.17988 0.0
C271 C 0.04121 0.29302 0.19073 0.0
C272 C 0.00559 0.3078 0.18768 0.0
H273 H 0.95018 0.23536 0.15212 0.0
C274 C 0.97194 0.28505 0.17393 0.0
C275 C 0.97502 0.24964 0.16306 0.0
H276 H 0.94483 0.29651 0.17102 0.0
H277 H 0.08161 0.10655 0.11626 0.0
H278 H 0.05941 0.14279 0.14055 0.0
H279 H 0.93987 0.14006 0.11129 0.0
H280 H 0.96156 0.1025 0.08702 0.0
H281 H 0.9492 0.16803 0.14136 0.0
H282 H 0.05787 0.20711 0.15369 0.0
H283 H 0.073 0.24778 0.18226 0.0
H284 H 0.06749 0.30978 0.20128 0.0
C285 C 0.88395 0.00606 0.43004 0.0
C286 C 0.93043 0.04822 0.42645 0.0
C287 C 0.85671 0.00679 0.44431 0.0
C288 C 0.87566 0.04976 0.45532 0.0
C289 C 0.92143 0.09229 0.45142 0.0
C290 C 0.9487 0.09149 0.43719 0.0
C291 C 0.84816 0.05236 0.47063 0.0
C292 C 0.81468 0.01185 0.47882 0.0
C293 C 0.78527 0.015 0.49345 0.0
C294 C 0.73649 0.97485 0.49587 0.0
C295 C 0.70593 0.9781 0.50859 0.0
C296 C 0.72388 0.0214 0.51935 0.0
H297 H 0.84245 0.08817 0.50367 0.0
C298 C 0.77381 0.06046 0.51755 0.0
C299 C 0.80427 0.05731 0.50474 0.0
H300 H 0.78907 0.09385 0.52586 0.0
H301 H 0.86878 0.97231 0.4219 0.0
H302 H 0.82068 0.97385 0.44649 0.0
H303 H 0.93656 0.12607 0.45955 0.0
H304 H 0.98437 0.12464 0.43471 0.0
H305 H 0.8561 0.08932 0.47527 0.0
H306 H 0.80633 0.97476 0.47422 0.0
H307 H 0.72116 0.94167 0.48744 0.0
H308 H 0.66747 0.94756 0.50947 0.0
C309 C 0.92503 0.90378 0.75576 0.0
C310 C 0.93405 0.95308 0.75634 0.0
C311 C 0.88815 0.86827 0.76598 0.0
C312 C 0.8597 0.88151 0.77704 0.0
C313 C 0.86797 0.93049 0.77729 0.0
C314 C 0.90497 0.96603 0.76712 0.0
C315 C 0.82081 0.84524 0.78833 0.0
C316 C 0.82295 0.8063 0.79428 0.0
C317 C 0.78607 0.772 0.80649 0.0
C318 C 0.8015 0.7477 0.81739 0.0
C319 C 0.76833 0.71592 0.82931 0.0
C320 C 0.71866 0.70723 0.83044 0.0
H321 H 0.72226 0.77934 0.7988 0.0
C322 C 0.70281 0.73068 0.81926 0.0
C323 C 0.73609 0.76265 0.80738 0.0
H324 H 0.66447 0.72391 0.81956 0.0
H325 H 0.94653 0.89262 0.74743 0.0
H326 H 0.88174 0.83047 0.76501 0.0
H327 H 0.84627 0.94154 0.78556 0.0
H328 H 0.91085 0.00368 0.76775 0.0
H329 H 0.79167 0.85319 0.79283 0.0
H330 H 0.8549 0.8013 0.79111 0.0
H331 H 0.83969 0.75403 0.81692 0.0
H332 H 0.78197 0.6989 0.83784 0.0
C333 C 0.01919 0.87978 0.07898 0.0
C334 C 0.06502 0.92492 0.07784 0.0
C335 C 0.0168 0.84066 0.08777 0.0
C336 C 0.0602 0.8462 0.09577 0.0
C337 C 0.10645 0.89042 0.09388 0.0
C338 C 0.10886 0.9295 0.08505 0.0
C339 C 0.05852 0.80749 0.10654 0.0
C340 C 0.01666 0.77536 0.11477 0.0
C341 C 0.01579 0.74075 0.12728 0.0
C342 C 0.97723 0.72282 0.13934 0.0
C343 C 0.97593 0.69188 0.1518 0.0
C344 C 0.01315 0.67805 0.15242 0.0
H345 H 0.08152 0.73704 0.11818 0.0
C346 C 0.05104 0.69485 0.14012 0.0
C347 C 0.05223 0.72563 0.12759 0.0
H348 H 0.07958 0.68386 0.14011 0.0
H349 H 0.98493 0.87495 0.07332 0.0
H350 H 0.98084 0.80641 0.08833 0.0
H351 H 0.14057 0.89542 0.09972 0.0
H352 H 0.1448 0.96377 0.08426 0.0
H353 H 0.09409 0.80901 0.10897 0.0
H354 H 0.98237 0.77722 0.11347 0.0
H355 H 0.94852 0.73359 0.13935 0.0
H356 H 0.94643 0.67972 0.16119 0.0
C357 C 0.12252 0.01481 0.42972 0.0
C358 C 0.13439 0.05216 0.41823 0.0
C359 C 0.15968 0.01719 0.44029 0.0
C360 C 0.20982 0.05679 0.43948 0.0
C361 C 0.22152 0.09457 0.42817 0.0
C362 C 0.18418 0.09221 0.41757 0.0
C363 C 0.25002 0.06072 0.45077 0.0
C364 C 0.24839 0.02047 0.45723 0.0
C365 C 0.28566 0.02352 0.46967 0.0
C366 C 0.27076 0.98368 0.48033 0.0
C367 C 0.30392 0.9852 0.49252 0.0
C368 C 0.35301 0.02649 0.49422 0.0
H369 H 0.34869 0.09519 0.46278 0.0
C370 C 0.3684 0.06598 0.48332 0.0
C371 C 0.33514 0.06452 0.47113 0.0
H372 H 0.40639 0.09779 0.48409 0.0
H373 H 0.0843 0.9838 0.43066 0.0
H374 H 0.14851 0.98841 0.44931 0.0
H375 H 0.25969 0.12581 0.42746 0.0
H376 H 0.19428 0.12167 0.40888 0.0
H377 H 0.2813 0.09796 0.45387 0.0
H378 H 0.21725 0.98334 0.45386 0.0
H379 H 0.23294 0.95157 0.47942 0.0
H380 H 0.29076 0.9544 0.50083 0.0
C381 C 0.17764 0.21997 0.75603 0.0
C382 C 0.15389 0.16909 0.75952 0.0
C383 C 0.21987 0.25535 0.76548 0.0
C384 C 0.23892 0.24037 0.77869 0.0
C385 C 0.21431 0.18956 0.78232 0.0
C386 C 0.17226 0.15434 0.77288 0.0
C387 C 0.28506 0.27548 0.78868 0.0
C388 C 0.30639 0.32571 0.78939 0.0
C389 C 0.35136 0.35927 0.80015 0.0
C390 C 0.38126 0.40971 0.79626 0.0
C391 C 0.4225 0.44281 0.80655 0.0
C392 C 0.43461 0.42598 0.82093 0.0
H393 H 0.34048 0.30485 0.81861 0.0
C394 C 0.40484 0.37557 0.82481 0.0
C395 C 0.36356 0.34267 0.81463 0.0
H396 H 0.41221 0.36192 0.83614 0.0
H397 H 0.16449 0.2323 0.74569 0.0
H398 H 0.23801 0.29382 0.76198 0.0
H399 H 0.228 0.17686 0.7924 0.0
H400 H 0.15481 0.11535 0.77586 0.0
H401 H 0.30183 0.25845 0.79589 0.0
H402 H 0.29081 0.3434 0.78196 0.0
H403 H 0.37246 0.42365 0.78529 0.0
H404 H 0.44462 0.48162 0.80336 0.0
C405 C 0.92896 0.0376 0.67892 0.0
C406 C 0.95082 0.07305 0.6925 0.0
C407 C 0.89382 0.0388 0.66822 0.0
C408 C 0.87945 0.07532 0.67098 0.0
C409 C 0.90257 0.11172 0.68423 0.0
C410 C 0.93775 0.11049 0.69496 0.0
C411 C 0.84122 0.07701 0.66013 0.0
C412 C 0.80402 0.03605 0.65192 0.0
C413 C 0.76567 0.03677 0.64085 0.0
C414 C 0.74061 -0.00253 0.62862 0.0
C415 C 0.70438 0.99645 0.61787 0.0
C416 C 0.69202 0.03458 0.6192 0.0
H417 H 0.76975 0.10462 0.65202 0.0
C418 C 0.7164 0.07353 0.63163 0.0
C419 C 0.75273 0.07459 0.64239 0.0
H420 H 0.70696 0.10292 0.63319 0.0
H421 H 0.93876 0.00864 0.6766 0.0
H422 H 0.87851 0.0113 0.65774 0.0
H423 H 0.89268 0.14064 0.6865 0.0
H424 H 0.95421 0.13847 0.70529 0.0
H425 H 0.84364 0.11305 0.65923 0.0
H426 H 0.80164 8e-05 0.65305 0.0
H427 H 0.74958 0.9677 0.62722 0.0
H428 H 0.68671 0.9662 0.6083 0.0
C429 C 0.93503 0.97999 0.01154 0.0
C430 C 0.98499 0.98986 0.01246 0.0
C431 C 0.90585 0.95687 -0.00305 0.0
C432 C 0.92629 0.9435 0.98288 0.0
C433 C 0.97664 0.95436 0.98375 0.0
C434 C 0.00575 0.9774 -0.00164 0.0
C435 C 0.89538 0.9143 0.96776 0.0
C436 C 0.85044 0.90959 0.96387 0.0
C437 C 0.8161 0.87251 0.95079 0.0
C438 C 0.76396 0.84877 0.95356 0.0
C439 C 0.73047 0.80943 0.94267 0.0
C440 C 0.74835 0.79355 0.92853 0.0
H441 H 0.87394 0.87721 0.93341 0.0
C442 C 0.80042 0.81941 0.9252 0.0
C443 C 0.83403 0.85849 0.93623 0.0
H444 H 0.81534 0.8089 0.91422 0.0
H445 H 0.91797 0.98898 0.02226 0.0
H446 H 0.86692 0.94805 -0.00285 0.0
H447 H 0.99329 0.94418 0.97319 0.0
H448 H 0.04423 0.9846 -0.0013 0.0
H449 H 0.90924 0.8936 0.96007 0.0
H450 H 0.83581 0.92969 0.97146 0.0
H451 H 0.74921 0.85902 0.96466 0.0
H452 H 0.69078 0.79005 0.94583 0.0
C453 C 0.03875 0.92001 0.34783 0.0
C454 C -0.001 0.91663 0.35789 0.0
C455 C 0.03536 0.8773 0.33967 0.0
C456 C 0.99216 0.8301 0.34149 0.0
C457 C 0.9517 0.82701 0.35108 0.0
C458 C 0.95516 0.86983 0.35929 0.0
C459 C 0.98756 0.78392 0.33305 0.0
C460 C 0.02787 0.77868 0.32929 0.0
C461 C 0.02439 0.73519 0.31922 0.0
C462 C 0.06569 0.74252 0.30925 0.0
C463 C 0.0626 0.70405 0.29838 0.0
C464 C 0.01829 0.65698 0.29743 0.0
H465 H 0.94904 0.67988 0.32694 0.0
C466 C 0.97796 0.64874 0.30816 0.0
C467 C 0.98093 0.68745 0.31896 0.0
H468 H 0.94369 0.61263 0.30798 0.0
H469 H 0.07284 0.95567 0.34638 0.0
H470 H 0.06649 0.88167 0.33181 0.0
H471 H 0.91769 0.79124 0.35246 0.0
H472 H 0.92384 0.86615 0.36693 0.0
H473 H 0.94978 0.75382 0.32973 0.0
H474 H 0.06552 0.80877 0.33277 0.0
H475 H 0.09976 0.77884 0.30932 0.0
H476 H 0.09414 0.71207 0.29014 0.0
C477 C 0.16012 0.0018 0.70068 0.0
C478 C 0.15518 0.04435 0.69946 0.0
C479 C 0.20041 -0.00049 0.69291 0.0
C480 C 0.23643 0.0398 0.68376 0.0
C481 C 0.23144 0.0823 0.68265 0.0
C482 C 0.19114 0.08448 0.69033 0.0
C483 C 0.28004 0.03946 0.67537 0.0
C484 C 0.27979 -0.00264 0.66989 0.0
C485 C 0.32113 -0.00132 0.65946 0.0
C486 C 0.30911 0.96187 0.64644 0.0
C487 C 0.34604 0.96523 0.6351 0.0
C488 C 0.39611 0.00508 0.63675 0.0
H489 H 0.38243 0.06509 0.67202 0.0
C490 C 0.40876 0.04016 0.65049 0.0
C491 C 0.37164 0.03704 0.66173 0.0
H492 H 0.44714 0.07069 0.65234 0.0
H493 H 0.13323 0.97054 0.7078 0.0
H494 H 0.20367 0.96664 0.69442 0.0
H495 H 0.25874 0.11392 0.67574 0.0
H496 H 0.18853 0.11794 0.68927 0.0
H497 H 0.31187 0.07549 0.67231 0.0
H498 H 0.24618 0.96119 0.67136 0.0
H499 H 0.27052 0.93179 0.6445 0.0
H500 H 0.33465 0.93791 0.62456 0.0
C501 C 0.23733 0.1702 0.03439 0.0
C502 C 0.19511 0.17339 0.03993 0.0
C503 C 0.27706 0.21002 0.02639 0.0
C504 C 0.27513 0.25372 0.02374 0.0
C505 C 0.23422 0.25786 0.03013 0.0
C506 C 0.19439 0.21796 0.03805 0.0
C507 C 0.31382 0.2948 0.01382 0.0
C508 C 0.33852 0.28667 0.00089 0.0
C509 C 0.3715 0.32533 0.98901 0.0
C510 C 0.40427 0.31641 0.97869 0.0
C511 C 0.43286 0.34954 0.96632 0.0
C512 C 0.42901 0.39224 0.96393 0.0
H513 H 0.34263 0.37648 0.99406 0.0
C514 C 0.39688 0.40169 0.97442 0.0
C515 C 0.36827 0.36858 0.98678 0.0
H516 H 0.39343 0.43453 0.97296 0.0
H517 H 0.23916 0.13648 0.03588 0.0
H518 H 0.30889 0.20621 0.02219 0.0
H519 H 0.23211 0.29133 0.02841 0.0
H520 H 0.16251 0.22163 0.04234 0.0
H521 H 0.31883 0.3318 0.01649 0.0
H522 H 0.33284 0.24933 -0.00169 0.0
H523 H 0.40715 0.28318 0.98 0.0
H524 H 0.45681 0.34088 0.9583 0.0
C525 C 0.98218 0.13659 0.34598 0.0
C526 C 0.02643 0.14377 0.35374 0.0
C527 C 0.9841 0.17153 0.33503 0.0
C528 C 0.03043 0.21445 0.33167 0.0
C529 C 0.07471 0.22109 0.33921 0.0
C530 C 0.07274 0.18629 0.35022 0.0
C531 C 0.03419 0.25205 0.31992 0.0
C532 C -0.00398 0.26076 0.31711 0.0
C533 C -0.00015 0.29827 0.3053 0.0
C534 C 0.96902 0.31967 0.30784 0.0
C535 C 0.97101 0.35446 0.2968 0.0
C536 C 0.00357 0.36819 0.28286 0.0
H537 H 0.05514 0.29467 0.28851 0.0
C538 C 0.03401 0.3463 0.28021 0.0
C539 C 0.03214 0.31167 0.29127 0.0
H540 H 0.05853 0.35505 0.26935 0.0
H541 H 0.94599 0.10395 0.34836 0.0
H542 H 0.94938 0.16426 0.32904 0.0
H543 H 0.11092 0.25354 0.33669 0.0
H544 H 0.10752 0.19269 0.35596 0.0
H545 H 0.07054 0.2749 0.31407 0.0
H546 H 0.96138 0.24148 0.32425 0.0
H547 H 0.94354 0.30972 0.31848 0.0
H548 H 0.94731 0.37087 0.29927 0.0
loop_
_geom_bond_atom_site_label_1
_geom_bond_atom_site_label_2
_geom_bond_distance
_geom_bond_site_symmetry_2
_ccdc_geom_bond_type
In0 O1 2.294 . S
In0 O2 2.326 . S
In0 O6 2.266 1_445 S
In0 O7 2.326 1_545 S
In0 O8 2.266 1_545 S
In0 O9 2.326 1_545 S
In0 O11 2.294 . S
In0 O12 2.326 . S
O1 In0 2.294 . S
O1 C10 1.240 . S
O2 In0 2.326 . S
O2 C10 1.252 . S
C3 O6 1.252 . S
C3 O7 1.260 1_655 S
C4 O11 1.240 . S
C4 O12 1.252 . S
C5 O8 1.252 . S
C5 O9 1.260 . S
O6 In0 2.266 1_665 S
O6 C3 1.252 . S
O7 In0 2.326 1_565 S
O7 C3 1.260 1_455 S
O8 In0 2.266 1_565 S
O8 C5 1.252 . S
O9 In0 2.326 1_565 S
O9 C5 1.260 . S
C10 O1 1.240 . S
C10 O2 1.252 . S
O11 In0 2.294 . S
O11 C4 1.240 . S
O12 In0 2.326 . S
O12 C4 1.252 . S
In13 O14 2.294 . S
In13 O15 2.326 1_455 S
In13 O19 2.266 . S
In13 O20 2.326 1_545 S
In13 O21 2.266 1_445 S
In13 O22 2.326 1_545 S
In13 O24 2.294 1_445 S
In13 O25 2.326 1_455 S
O14 In13 2.294 . S
O14 C23 1.240 . S
O15 In13 2.326 1_655 S
O15 C23 1.252 1_655 S
C16 O19 1.252 . S
C16 O20 1.260 1_545 S
C17 O24 1.240 1_545 S
C17 O25 1.252 . S
C18 O21 1.252 1_455 S
C18 O22 1.260 . S
O19 In13 2.266 . S
O19 C16 1.252 . S
O20 In13 2.326 1_565 S
O20 C16 1.260 1_565 S
O21 In13 2.266 1_665 S
O21 C18 1.252 1_655 S
O22 In13 2.326 1_565 S
O22 C18 1.260 . S
C23 O14 1.240 . S
C23 O15 1.252 1_455 S
O24 In13 2.294 1_665 S
O24 C17 1.240 1_565 S
O25 In13 2.326 1_655 S
O25 C17 1.252 . S
In26 O27 2.294 1_545 S
In26 O28 2.326 . S
In26 O32 2.266 . S
In26 O33 2.326 . S
In26 O34 2.266 . S
In26 O35 2.326 . S
In26 O37 2.294 . S
In26 O38 2.326 . S
O27 In26 2.294 1_565 S
O27 C36 1.249 . S
O28 In26 2.326 . S
O28 C36 1.248 1_545 S
C29 O32 1.252 . S
C29 O33 1.260 . S
C30 O37 1.240 1_655 S
C30 O38 1.252 1_655 S
C31 O34 1.252 . S
C31 O35 1.260 . S
O32 In26 2.266 . S
O32 C29 1.252 . S
O33 In26 2.326 . S
O33 C29 1.260 . S
O34 In26 2.266 . S
O34 C31 1.252 . S
O35 In26 2.326 . S
O35 C31 1.260 . S
C36 O27 1.249 . S
C36 O28 1.248 1_565 S
O37 In26 2.294 . S
O37 C30 1.240 1_455 S
O38 In26 2.326 . S
O38 C30 1.252 1_455 S
H39 O65 0.856 . S
H40 O68 0.854 . S
H41 C76 0.930 . S
H42 C77 0.930 . S
H43 C79 0.930 . S
H44 C80 0.930 . S
H45 C82 0.931 1_655 S
H46 C83 0.930 1_655 S
H47 C85 0.930 . S
H48 C86 0.929 . S
H49 C88 0.930 1_655 S
H50 C89 0.931 1_655 S
H51 C91 0.930 . S
H52 C92 0.929 . S
H53 C94 0.931 . S
H54 C95 0.909 1_655 S
H55 C97 0.930 . S
H56 C98 0.932 . S
H57 C100 0.930 . S
H58 C101 0.929 . S
H59 C103 0.931 . S
H60 C104 0.930 . S
H61 C106 0.929 . S
H62 C107 0.931 . S
H63 C109 0.930 . S
H64 C110 0.929 . S
O65 H39 0.856 . S
O65 C111 1.300 . S
O66 C111 1.209 . S
O67 C112 1.199 . S
O68 H40 0.854 . S
O68 C112 1.297 . S
C69 C70 1.404 . S
C69 C74 1.397 . S
C69 C75 1.492 . S
C70 C69 1.404 . S
C70 C71 1.396 . S
C70 C81 1.492 . S
C71 C70 1.396 . S
C71 C72 1.397 . S
C71 C87 1.509 . S
C72 C71 1.397 . S
C72 C73 1.412 . S
C72 C93 1.485 . S
C73 C72 1.412 . S
C73 C74 1.388 . S
C73 C99 1.490 . S
C74 C69 1.397 . S
C74 C73 1.388 . S
C74 C105 1.519 . S
C75 C69 1.492 . S
C75 C76 1.363 1_455 S
C75 C80 1.390 . S
C76 H41 0.930 . S
C76 C75 1.363 1_655 S
C76 C77 1.372 . S
C77 H42 0.930 . S
C77 C76 1.372 . S
C77 C78 1.383 1_655 S
C78 C77 1.383 1_455 S
C78 C79 1.395 . S
C79 H43 0.930 . S
C79 C78 1.395 . S
C79 C80 1.362 . S
C80 H44 0.930 . S
C80 C75 1.390 . S
C80 C79 1.362 . S
C81 C70 1.492 . S
C81 C82 1.377 . S
C81 C86 1.397 . S
C82 H45 0.931 1_455 S
C82 C81 1.377 . S
C82 C83 1.376 . S
C83 H46 0.930 1_455 S
C83 C82 1.376 . S
C83 C84 1.376 . S
C84 C83 1.376 . S
C84 C85 1.378 . S
C84 C111 1.486 . S
C85 H47 0.930 . S
C85 C84 1.378 . S
C85 C86 1.376 . S
C86 H48 0.929 . S
C86 C81 1.397 . S
C86 C85 1.376 . S
C87 C71 1.509 . S
C87 C88 1.391 . S
C87 C92 1.386 . S
C88 H49 0.930 1_455 S
C88 C87 1.391 . S
C88 C89 1.375 . S
C89 H50 0.931 1_455 S
C89 C88 1.375 . S
C89 C90 1.375 . S
C90 C89 1.375 . S
C90 C91 1.361 . S
C91 H51 0.930 . S
C91 C90 1.361 . S
C91 C92 1.399 . S
C92 H52 0.929 . S
C92 C87 1.386 . S
C92 C91 1.399 . S
C93 C72 1.485 . S
C93 C94 1.394 1_455 S
C93 C98 1.360 . S
C94 H53 0.931 . S
C94 C93 1.394 1_655 S
C94 C95 1.382 1_655 S
C95 H54 0.909 1_455 S
C95 C94 1.382 1_455 S
C95 C96 1.407 . S
C96 C95 1.407 . S
C96 C97 1.390 . S
C96 C112 1.476 . S
C97 H55 0.930 . S
C97 C96 1.390 . S
C97 C98 1.366 . S
C98 H56 0.932 . S
C98 C93 1.360 . S
C98 C97 1.366 . S
C99 C73 1.490 . S
C99 C100 1.380 1_455 S
C99 C104 1.386 . S
C100 H57 0.930 . S
C100 C99 1.380 1_655 S
C100 C101 1.381 . S
C101 H58 0.929 . S
C101 C100 1.381 . S
C101 C102 1.371 1_655 S
C102 C101 1.371 1_455 S
C102 C103 1.380 . S
C103 H59 0.931 . S
C103 C102 1.380 . S
C103 C104 1.387 . S
C104 H60 0.930 . S
C104 C99 1.386 . S
C104 C103 1.387 . S
C105 C74 1.519 . S
C105 C106 1.377 1_455 S
C105 C110 1.361 . S
C106 H61 0.929 . S
C106 C105 1.377 1_655 S
C106 C107 1.386 . S
C107 H62 0.931 . S
C107 C106 1.386 . S
C107 C108 1.363 1_655 S
C108 C107 1.363 1_455 S
C108 C109 1.385 . S
C109 H63 0.930 . S
C109 C108 1.385 . S
C109 C110 1.396 . S
C110 H64 0.929 . S
C110 C105 1.361 . S
C110 C109 1.396 . S
C111 O65 1.300 . S
C111 O66 1.209 . S
C111 C84 1.486 . S
C112 O67 1.199 . S
C112 O68 1.297 . S
C112 C96 1.476 . S
H113 O139 0.856 . S
H114 O142 0.854 . S
H115 C150 0.930 . S
H116 C151 0.930 . S
H117 C153 0.930 . S
H118 C154 0.930 . S
H119 C156 0.931 1_565 S
H120 C157 0.930 1_565 S
H121 C159 0.930 . S
H122 C160 0.929 . S
H123 C162 0.930 1_565 S
H124 C163 0.931 1_565 S
H125 C165 0.930 . S
H126 C166 0.929 . S
H127 C168 0.931 1_565 S
H128 C169 0.930 1_565 S
H129 C171 0.930 . S
H130 C172 0.932 . S
H131 C174 0.930 1_565 S
H132 C175 0.932 . S
H133 C177 0.931 . S
H134 C178 0.930 . S
H135 C180 0.929 1_565 S
H136 C181 0.931 1_565 S
H137 C183 0.930 . S
H138 C184 0.929 . S
O139 H113 0.856 . S
O139 C185 1.300 . S
O140 C185 1.209 . S
O141 C186 1.199 . S
O142 H114 0.854 . S
O142 C186 1.297 . S
C143 C144 1.404 . S
C143 C148 1.397 . S
C143 C149 1.492 . S
C144 C143 1.404 . S
C144 C145 1.396 . S
C144 C155 1.492 . S
C145 C144 1.396 . S
C145 C146 1.397 . S
C145 C161 1.509 . S
C146 C145 1.397 . S
C146 C147 1.412 . S
C146 C167 1.485 . S
C147 C146 1.412 . S
C147 C148 1.388 . S
C147 C173 1.490 . S
C148 C143 1.397 . S
C148 C147 1.388 . S
C148 C179 1.519 . S
C149 C143 1.492 . S
C149 C150 1.363 1_545 S
C149 C154 1.390 . S
C150 H115 0.930 . S
C150 C149 1.363 1_565 S
C150 C151 1.372 . S
C151 H116 0.930 . S
C151 C150 1.372 . S
C151 C152 1.383 1_565 S
C152 C151 1.383 1_545 S
C152 C153 1.395 . S
C153 H117 0.930 . S
C153 C152 1.395 . S
C153 C154 1.362 . S
C154 H118 0.930 . S
C154 C149 1.390 . S
C154 C153 1.362 . S
C155 C144 1.492 . S
C155 C156 1.377 . S
C155 C160 1.397 . S
C156 H119 0.931 1_545 S
C156 C155 1.377 . S
C156 C157 1.376 . S
C157 H120 0.930 1_545 S
C157 C156 1.376 . S
C157 C158 1.376 . S
C158 C157 1.376 . S
C158 C159 1.378 . S
C158 C185 1.486 . S
C159 H121 0.930 . S
C159 C158 1.378 . S
C159 C160 1.376 . S
C160 H122 0.929 . S
C160 C155 1.397 . S
C160 C159 1.376 . S
C161 C145 1.509 . S
C161 C162 1.391 . S
C161 C166 1.386 . S
C162 H123 0.930 1_545 S
C162 C161 1.391 . S
C162 C163 1.375 . S
C163 H124 0.931 1_545 S
C163 C162 1.375 . S
C163 C164 1.375 . S
C164 C163 1.375 . S
C164 C165 1.361 . S
C165 H125 0.930 . S
C165 C164 1.361 . S
C165 C166 1.399 . S
C166 H126 0.929 . S
C166 C161 1.386 . S
C166 C165 1.399 . S
C167 C146 1.485 . S
C167 C168 1.394 . S
C167 C172 1.360 . S
C168 H127 0.931 1_545 S
C168 C167 1.394 . S
C168 C169 1.372 . S
C169 H128 0.930 1_545 S
C169 C168 1.372 . S
C169 C170 1.397 . S
C170 C169 1.397 . S
C170 C171 1.390 . S
C170 C186 1.476 . S
C171 H129 0.930 . S
C171 C170 1.390 . S
C171 C172 1.366 . S
C172 H130 0.932 . S
C172 C167 1.360 . S
C172 C171 1.366 . S
C173 C147 1.490 . S
C173 C174 1.380 . S
C173 C178 1.386 . S
C174 H131 0.930 1_545 S
C174 C173 1.380 . S
C174 C175 1.381 1_545 S
C175 H132 0.932 . S
C175 C174 1.381 1_565 S
C175 C176 1.369 1_565 S
C176 C175 1.369 1_545 S
C176 C177 1.380 . S
C177 H133 0.931 . S
C177 C176 1.380 . S
C177 C178 1.387 . S
C178 H134 0.930 . S
C178 C173 1.386 . S
C178 C177 1.387 . S
C179 C148 1.519 . S
C179 C180 1.377 . S
C179 C184 1.361 . S
C180 H135 0.929 1_545 S
C180 C179 1.377 . S
C180 C181 1.386 . S
C181 H136 0.931 1_545 S
C181 C180 1.386 . S
C181 C182 1.363 . S
C182 C181 1.363 . S
C182 C183 1.385 . S
C183 H137 0.930 . S
C183 C182 1.385 . S
C183 C184 1.396 . S
C184 H138 0.929 . S
C184 C179 1.361 . S
C184 C183 1.396 . S
C185 O139 1.300 . S
C185 O140 1.209 . S
C185 C158 1.486 . S
C186 O141 1.199 . S
C186 O142 1.297 . S
C186 C170 1.476 . S
H187 O213 0.856 . S
H188 O216 0.854 . S
H189 C224 0.930 . S
H190 C225 0.930 . S
H191 C227 0.930 . S
H192 C228 0.930 . S
H193 C230 0.931 . S
H194 C231 0.930 . S
H195 C233 0.930 . S
H196 C234 0.929 . S
H197 C236 0.930 . S
H198 C237 0.931 . S
H199 C239 0.930 . S
H200 C240 0.929 . S
H201 C242 0.931 . S
H202 C243 0.930 . S
H203 C245 0.930 . S
H204 C246 0.932 . S
H205 C248 0.930 . S
H206 C249 0.929 . S
H207 C251 0.931 . S
H208 C252 0.930 . S
H209 C254 0.929 . S
H210 C255 0.931 . S
H211 C257 0.930 . S
H212 C258 0.929 . S
O213 H187 0.856 . S
O213 C259 1.300 1_554 S
O214 C259 1.209 1_554 S
O215 C260 1.199 . S
O216 H188 0.854 . S
O216 C260 1.297 . S
C217 C218 1.404 . S
C217 C222 1.397 . S
C217 C223 1.492 . S
C218 C217 1.404 . S
C218 C219 1.396 . S
C218 C229 1.492 . S
C219 C218 1.396 . S
C219 C220 1.397 . S
C219 C235 1.509 . S
C220 C219 1.397 . S
C220 C221 1.412 . S
C220 C241 1.485 . S
C221 C220 1.412 . S
C221 C222 1.388 . S
C221 C247 1.490 . S
C222 C217 1.397 . S
C222 C221 1.388 . S
C222 C253 1.519 . S
C223 C217 1.492 . S
C223 C224 1.363 . S
C223 C228 1.390 . S
C224 H189 0.930 . S
C224 C223 1.363 . S
C224 C225 1.372 . S
C225 H190 0.930 . S
C225 C224 1.372 . S
C225 C226 1.383 . S
C226 C225 1.383 . S
C226 C227 1.395 . S
C227 H191 0.930 . S
C227 C226 1.395 . S
C227 C228 1.362 . S
C228 H192 0.930 . S
C228 C223 1.390 . S
C228 C227 1.362 . S
C229 C218 1.492 . S
C229 C230 1.377 . S
C229 C234 1.397 . S
C230 H193 0.931 . S
C230 C229 1.377 . S
C230 C231 1.376 . S
C231 H194 0.930 . S
C231 C230 1.376 . S
C231 C232 1.376 . S
C232 C231 1.376 . S
C232 C233 1.378 . S
C232 C259 1.486 . S
C233 H195 0.930 . S
C233 C232 1.378 . S
C233 C234 1.376 . S
C234 H196 0.929 . S
C234 C229 1.397 . S
C234 C233 1.376 . S
C235 C219 1.509 . S
C235 C236 1.391 . S
C235 C240 1.386 . S
C236 H197 0.930 . S
C236 C235 1.391 . S
C236 C237 1.375 . S
C237 H198 0.931 . S
C237 C236 1.375 . S
C237 C238 1.375 . S
C238 C237 1.375 . S
C238 C239 1.361 . S
C239 H199 0.930 . S
C239 C238 1.361 . S
C239 C240 1.399 . S
C240 H200 0.929 . S
C240 C235 1.386 . S
C240 C239 1.399 . S
C241 C220 1.485 . S
C241 C242 1.394 . S
C241 C246 1.360 . S
C242 H201 0.931 . S
C242 C241 1.394 . S
C242 C243 1.372 . S
C243 H202 0.930 . S
C243 C242 1.372 . S
C243 C244 1.397 . S
C244 C243 1.397 . S
C244 C245 1.390 . S
C244 C260 1.476 . S
C245 H203 0.930 . S
C245 C244 1.390 . S
C245 C246 1.366 . S
C246 H204 0.932 . S
C246 C241 1.360 . S
C246 C245 1.366 . S
C247 C221 1.490 . S
C247 C248 1.380 . S
C247 C252 1.386 . S
C248 H205 0.930 . S
C248 C247 1.380 . S
C248 C249 1.381 . S
C249 H206 0.929 . S
C249 C248 1.381 . S
C249 C250 1.371 . S
C250 C249 1.371 . S
C250 C251 1.380 . S
C251 H207 0.931 . S
C251 C250 1.380 . S
C251 C252 1.387 . S
C252 H208 0.930 . S
C252 C247 1.386 . S
C252 C251 1.387 . S
C253 C222 1.519 . S
C253 C254 1.377 . S
C253 C258 1.361 . S
C254 H209 0.929 . S
C254 C253 1.377 . S
C254 C255 1.386 . S
C255 H210 0.931 . S
C255 C254 1.386 . S
C255 C256 1.363 . S
C256 C255 1.363 . S
C256 C257 1.385 . S
C257 H211 0.930 . S
C257 C256 1.385 . S
C257 C258 1.396 . S
C258 H212 0.929 . S
C258 C253 1.361 . S
C258 C257 1.396 . S
C259 O213 1.300 1_556 S
C259 O214 1.209 1_556 S
C259 C232 1.486 . S
C260 O215 1.199 . S
C260 O216 1.297 . S
C260 C244 1.476 . S
C261 C262 1.386 . S
C261 C263 1.383 . S
C261 H277 0.951 . S
C262 C261 1.386 . S
C262 C266 1.383 . S
C263 C261 1.383 . S
C263 C264 1.402 . S
C263 H278 0.951 . S
C264 C263 1.402 . S
C264 C265 1.375 . S
C264 C267 1.481 . S
C265 C264 1.375 . S
C265 C266 1.367 . S
C265 H279 0.951 . S
C266 C262 1.383 . S
C266 C265 1.367 . S
C266 H280 0.950 . S
C267 C264 1.481 . S
C267 C268 1.297 . S
C267 H281 0.950 . S
C268 C267 1.297 . S
C268 C269 1.479 . S
C268 H282 0.950 . S
C269 C268 1.479 . S
C269 C270 1.375 . S
C269 C275 1.404 . S
C270 C269 1.375 . S
C270 C271 1.369 . S
C270 H283 0.950 . S
C271 C270 1.369 . S
C271 C272 1.392 . S
C271 H284 0.951 . S
C272 C271 1.392 . S
C272 C274 1.384 . S
H273 C275 0.949 . S
C274 C272 1.384 . S
C274 C275 1.385 . S
C274 H276 0.950 . S
C275 C269 1.404 . S
C275 H273 0.949 . S
C275 C274 1.385 . S
H276 C274 0.950 . S
H277 C261 0.951 . S
H278 C263 0.951 . S
H279 C265 0.951 . S
H280 C266 0.950 . S
H281 C267 0.950 . S
H282 C268 0.950 . S
H283 C270 0.950 . S
H284 C271 0.951 . S
C285 C286 1.386 . S
C285 C287 1.383 . S
C285 H301 0.951 . S
C286 C285 1.386 . S
C286 C290 1.383 . S
C287 C285 1.383 . S
C287 C288 1.402 . S
C287 H302 0.952 1_545 S
C288 C287 1.402 . S
C288 C289 1.375 . S
C288 C291 1.481 . S
C289 C288 1.375 . S
C289 C290 1.367 . S
C289 H303 0.951 . S
C290 C286 1.383 . S
C290 C289 1.367 . S
C290 H304 0.950 . S
C291 C288 1.481 . S
C291 C292 1.297 1_545 S
C291 H305 0.950 . S
C292 C291 1.297 1_565 S
C292 C293 1.479 1_565 S
C292 H306 0.950 . S
C293 C292 1.479 1_545 S
C293 C294 1.375 1_545 S
C293 C299 1.404 . S
C294 C293 1.375 1_565 S
C294 C295 1.369 1_565 S
C294 H307 0.950 . S
C295 C294 1.369 1_545 S
C295 C296 1.392 . S
C295 H308 0.957 1_545 S
C296 C295 1.392 . S
C296 C298 1.384 . S
H297 C299 0.949 . S
C298 C296 1.384 . S
C298 C299 1.385 . S
C298 H300 0.950 . S
C299 C293 1.404 . S
C299 H297 0.949 . S
C299 C298 1.385 . S
H300 C298 0.950 . S
H301 C285 0.951 . S
H302 C287 0.952 1_565 S
H303 C289 0.951 . S
H304 C290 0.950 . S
H305 C291 0.950 . S
H306 C292 0.950 . S
H307 C294 0.950 . S
H308 C295 0.957 1_565 S
C309 C310 1.386 . S
C309 C311 1.383 . S
C309 H325 0.951 . S
C310 C309 1.386 . S
C310 C314 1.383 . S
C311 C309 1.383 . S
C311 C312 1.402 . S
C311 H326 0.951 . S
C312 C311 1.402 . S
C312 C313 1.375 . S
C312 C315 1.481 . S
C313 C312 1.375 . S
C313 C314 1.367 . S
C313 H327 0.951 . S
C314 C310 1.383 . S
C314 C313 1.367 . S
C314 H328 0.950 . S
C315 C312 1.481 . S
C315 C316 1.297 . S
C315 H329 0.950 . S
C316 C315 1.297 . S
C316 C317 1.479 . S
C316 H330 0.950 . S
C317 C316 1.479 . S
C317 C318 1.375 . S
C317 C323 1.404 . S
C318 C317 1.375 . S
C318 C319 1.369 . S
C318 H331 0.950 . S
C319 C318 1.369 . S
C319 C320 1.392 . S
C319 H332 0.951 . S
C320 C319 1.392 . S
C320 C322 1.384 . S
H321 C323 0.949 . S
C322 C320 1.384 . S
C322 C323 1.385 . S
C322 H324 0.950 . S
C323 C317 1.404 . S
C323 H321 0.949 . S
C323 C322 1.385 . S
H324 C322 0.950 . S
H325 C309 0.951 . S
H326 C311 0.951 . S
H327 C313 0.951 . S
H328 C314 0.950 . S
H329 C315 0.950 . S
H330 C316 0.950 . S
H331 C318 0.950 . S
H332 C319 0.951 . S
C333 C334 1.386 . S
C333 C335 1.383 . S
C333 H349 0.951 . S
C334 C333 1.386 . S
C334 C338 1.383 . S
C335 C333 1.383 . S
C335 C336 1.402 . S
C335 H350 0.951 . S
C336 C335 1.402 . S
C336 C337 1.375 . S
C336 C339 1.481 . S
C337 C336 1.375 . S
C337 C338 1.367 . S
C337 H351 0.951 . S
C338 C334 1.383 . S
C338 C337 1.367 . S
C338 H352 0.950 . S
C339 C336 1.481 . S
C339 C340 1.297 . S
C339 H353 0.950 . S
C340 C339 1.297 . S
C340 C341 1.479 . S
C340 H354 0.950 . S
C341 C340 1.479 . S
C341 C342 1.375 . S
C341 C347 1.404 . S
C342 C341 1.375 . S
C342 C343 1.369 . S
C342 H355 0.950 . S
C343 C342 1.369 . S
C343 C344 1.392 . S
C343 H356 0.951 . S
C344 C343 1.392 . S
C344 C346 1.384 . S
H345 C347 0.949 . S
C346 C344 1.384 . S
C346 C347 1.385 . S
C346 H348 0.950 . S
C347 C341 1.404 . S
C347 H345 0.949 . S
C347 C346 1.385 . S
H348 C346 0.950 . S
H349 C333 0.951 . S
H350 C335 0.951 . S
H351 C337 0.951 . S
H352 C338 0.950 . S
H353 C339 0.950 . S
H354 C340 0.950 . S
H355 C342 0.950 . S
H356 C343 0.951 . S
C357 C358 1.386 1_565 S
C357 C359 1.383 1_565 S
C357 H373 0.951 . S
C358 C357 1.386 1_545 S
C358 C362 1.383 . S
C359 C357 1.383 1_545 S
C359 C360 1.402 . S
C359 H374 0.951 1_545 S
C360 C359 1.402 . S
C360 C361 1.375 . S
C360 C363 1.481 . S
C361 C360 1.375 . S
C361 C362 1.367 . S
C361 H375 0.951 . S
C362 C358 1.383 . S
C362 C361 1.367 . S
C362 H376 0.950 . S
C363 C360 1.481 . S
C363 C364 1.297 . S
C363 H377 0.950 . S
C364 C363 1.297 . S
C364 C365 1.479 . S
C364 H378 0.950 1_545 S
C365 C364 1.479 . S
C365 C366 1.375 . S
C365 C371 1.404 . S
C366 C365 1.375 . S
C366 C367 1.369 . S
C366 H379 0.950 1_545 S
C367 C366 1.369 . S
C367 C368 1.392 . S
C367 H380 0.951 . S
C368 C367 1.392 . S
C368 C370 1.384 . S
H369 C371 0.949 . S
C370 C368 1.384 . S
C370 C371 1.385 . S
C370 H372 0.950 . S
C371 C365 1.404 . S
C371 H369 0.949 . S
C371 C370 1.385 . S
H372 C370 0.950 . S
H373 C357 0.951 . S
H374 C359 0.951 1_565 S
H375 C361 0.951 . S
H376 C362 0.950 . S
H377 C363 0.950 . S
H378 C364 0.950 1_565 S
H379 C366 0.950 1_565 S
H380 C367 0.951 . S
C381 C382 1.386 . S
C381 C383 1.383 . S
C381 H397 0.951 . S
C382 C381 1.386 . S
C382 C386 1.383 . S
C383 C381 1.383 . S
C383 C384 1.402 . S
C383 H398 0.951 . S
C384 C383 1.402 . S
C384 C385 1.375 . S
C384 C387 1.481 . S
C385 C384 1.375 . S
C385 C386 1.367 . S
C385 H399 0.951 . S
C386 C382 1.383 . S
C386 C385 1.367 . S
C386 H400 0.950 . S
C387 C384 1.481 . S
C387 C388 1.297 . S
C387 H401 0.950 . S
C388 C387 1.297 . S
C388 C389 1.479 . S
C388 H402 0.950 . S
C389 C388 1.479 . S
C389 C390 1.375 . S
C389 C395 1.404 . S
C390 C389 1.375 . S
C390 C391 1.369 . S
C390 H403 0.950 . S
C391 C390 1.369 . S
C391 C392 1.392 . S
C391 H404 0.951 . S
C392 C391 1.392 . S
C392 C394 1.384 . S
H393 C395 0.949 . S
C394 C392 1.384 . S
C394 C395 1.385 . S
C394 H396 0.950 . S
C395 C389 1.404 . S
C395 H393 0.949 . S
C395 C394 1.385 . S
H396 C394 0.950 . S
H397 C381 0.951 . S
H398 C383 0.951 . S
H399 C385 0.951 . S
H400 C386 0.950 . S
H401 C387 0.950 . S
H402 C388 0.950 . S
H403 C390 0.950 . S
H404 C391 0.951 . S
C405 C406 1.386 . S
C405 C407 1.383 . S
C405 H421 0.951 . S
C406 C405 1.386 . S
C406 C410 1.383 . S
C407 C405 1.383 . S
C407 C408 1.402 . S
C407 H422 0.951 . S
C408 C407 1.402 . S
C408 C409 1.375 . S
C408 C411 1.481 . S
C409 C408 1.375 . S
C409 C410 1.367 . S
C409 H423 0.951 . S
C410 C406 1.383 . S
C410 C409 1.367 . S
C410 H424 0.950 . S
C411 C408 1.481 . S
C411 C412 1.297 . S
C411 H425 0.950 . S
C412 C411 1.297 . S
C412 C413 1.479 . S
C412 H426 0.950 . S
C413 C412 1.479 . S
C413 C414 1.375 . S
C413 C419 1.404 . S
C414 C413 1.375 . S
C414 C415 1.369 . S
C414 H427 0.950 . S
C415 C414 1.369 . S
C415 C416 1.392 . S
C415 H428 0.951 . S
C416 C415 1.392 . S
C416 C418 1.384 . S
H417 C419 0.949 . S
C418 C416 1.384 . S
C418 C419 1.385 . S
C418 H420 0.950 . S
C419 C413 1.404 . S
C419 H417 0.949 . S
C419 C418 1.385 . S
H420 C418 0.950 . S
H421 C405 0.951 . S
H422 C407 0.951 . S
H423 C409 0.951 . S
H424 C410 0.950 . S
H425 C411 0.950 . S
H426 C412 0.950 . S
H427 C414 0.950 . S
H428 C415 0.951 . S
C429 C430 1.386 . S
C429 C431 1.383 . S
C429 H445 0.951 . S
C430 C429 1.386 . S
C430 C434 1.383 . S
C431 C429 1.383 . S
C431 C432 1.397 . S
C431 H446 0.951 . S
C432 C431 1.397 . S
C432 C433 1.373 1_554 S
C432 C435 1.485 1_554 S
C433 C432 1.373 1_556 S
C433 C434 1.332 1_556 S
C433 H447 0.990 . S
C434 C430 1.383 . S
C434 C433 1.332 1_554 S
C434 H448 0.950 1_655 S
C435 C432 1.485 1_556 S
C435 C436 1.297 . S
C435 H449 0.950 . S
C436 C435 1.297 . S
C436 C437 1.479 . S
C436 H450 0.950 . S
C437 C436 1.479 . S
C437 C438 1.375 . S
C437 C443 1.404 . S
C438 C437 1.375 . S
C438 C439 1.369 . S
C438 H451 0.950 . S
C439 C438 1.369 . S
C439 C440 1.392 . S
C439 H452 0.951 . S
C440 C439 1.392 . S
C440 C442 1.384 . S
H441 C443 0.949 . S
C442 C440 1.384 . S
C442 C443 1.385 . S
C442 H444 0.950 . S
C443 C437 1.404 . S
C443 H441 0.949 . S
C443 C442 1.385 . S
H444 C442 0.950 . S
H445 C429 0.951 . S
H446 C431 0.951 . S
H447 C433 0.990 . S
H448 C434 0.950 1_455 S
H449 C435 0.950 . S
H450 C436 0.950 . S
H451 C438 0.950 . S
H452 C439 0.951 . S
C453 C454 1.386 . S
C453 C455 1.383 . S
C453 H469 0.951 . S
C454 C453 1.386 . S
C454 C458 1.383 . S
C455 C453 1.383 . S
C455 C456 1.402 . S
C455 H470 0.951 . S
C456 C455 1.402 . S
C456 C457 1.375 . S
C456 C459 1.481 . S
C457 C456 1.375 . S
C457 C458 1.367 . S
C457 H471 0.951 1_455 S
C458 C454 1.383 . S
C458 C457 1.367 . S
C458 H472 0.950 1_455 S
C459 C456 1.481 . S
C459 C460 1.297 . S
C459 H473 0.948 1_455 S
C460 C459 1.297 . S
C460 C461 1.479 . S
C460 H474 0.950 . S
C461 C460 1.479 . S
C461 C462 1.375 . S
C461 C467 1.404 . S
C462 C461 1.375 . S
C462 C463 1.369 . S
C462 H475 0.950 . S
C463 C462 1.369 . S
C463 C464 1.392 . S
C463 H476 0.951 . S
C464 C463 1.392 . S
C464 C466 1.384 1_455 S
H465 C467 0.949 . S
C466 C464 1.384 1_655 S
C466 C467 1.385 1_655 S
C466 H468 0.950 . S
C467 C461 1.404 . S
C467 H465 0.949 . S
C467 C466 1.385 1_455 S
H468 C466 0.950 . S
H469 C453 0.951 . S
H470 C455 0.951 . S
H471 C457 0.951 1_655 S
H472 C458 0.950 1_655 S
H473 C459 0.948 1_655 S
H474 C460 0.950 . S
H475 C462 0.950 . S
H476 C463 0.951 . S
C477 C478 1.386 . S
C477 C479 1.383 . S
C477 H493 0.951 . S
C478 C477 1.386 . S
C478 C482 1.383 . S
C479 C477 1.383 . S
C479 C480 1.402 . S
C479 H494 0.951 . S
C480 C479 1.402 . S
C480 C481 1.375 . S
C480 C483 1.481 . S
C481 C480 1.375 . S
C481 C482 1.367 . S
C481 H495 0.951 . S
C482 C478 1.383 . S
C482 C481 1.367 . S
C482 H496 0.950 . S
C483 C480 1.481 . S
C483 C484 1.297 . S
C483 H497 0.950 . S
C484 C483 1.297 . S
C484 C485 1.479 . S
C484 H498 0.950 . S
C485 C484 1.479 . S
C485 C486 1.375 . S
C485 C491 1.404 . S
C486 C485 1.375 . S
C486 C487 1.369 . S
C486 H499 0.950 1_545 S
C487 C486 1.369 . S
C487 C488 1.392 . S
C487 H500 0.951 1_545 S
C488 C487 1.392 . S
C488 C490 1.384 . S
H489 C491 0.949 . S
C490 C488 1.384 . S
C490 C491 1.385 . S
C490 H492 0.950 . S
C491 C485 1.404 . S
C491 H489 0.949 . S
C491 C490 1.385 . S
H492 C490 0.950 . S
H493 C477 0.951 . S
H494 C479 0.951 . S
H495 C481 0.951 . S
H496 C482 0.950 . S
H497 C483 0.950 . S
H498 C484 0.950 . S
H499 C486 0.950 1_565 S
H500 C487 0.951 1_565 S
C501 C502 1.386 . S
C501 C503 1.383 . S
C501 H517 0.951 . S
C502 C501 1.386 . S
C502 C506 1.383 . S
C503 C501 1.383 . S
C503 C504 1.402 . S
C503 H518 0.951 . S
C504 C503 1.402 . S
C504 C505 1.375 . S
C504 C507 1.481 . S
C505 C504 1.375 . S
C505 C506 1.367 . S
C505 H519 0.951 . S
C506 C502 1.383 . S
C506 C505 1.367 . S
C506 H520 0.950 . S
C507 C504 1.481 . S
C507 C508 1.297 1_554 S
C507 H521 0.950 . S
C508 C507 1.297 1_556 S
C508 C509 1.479 . S
C508 H522 0.950 . S
C509 C508 1.479 . S
C509 C510 1.375 . S
C509 C515 1.404 . S
C510 C509 1.375 . S
C510 C511 1.369 . S
C510 H523 0.950 . S
C511 C510 1.369 . S
C511 C512 1.392 . S
C511 H524 0.951 . S
C512 C511 1.392 . S
C512 C514 1.384 . S
H513 C515 0.949 . S
C514 C512 1.384 . S
C514 C515 1.385 . S
C514 H516 0.950 . S
C515 C509 1.404 . S
C515 H513 0.949 . S
C515 C514 1.385 . S
H516 C514 0.950 . S
H517 C501 0.951 . S
H518 C503 0.951 . S
H519 C505 0.951 . S
H520 C506 0.950 . S
H521 C507 0.950 . S
H522 C508 0.950 . S
H523 C510 0.950 . S
H524 C511 0.951 . S
C525 C526 1.386 1_655 S
C525 C527 1.383 . S
C525 H541 0.951 . S
C526 C525 1.386 1_455 S
C526 C530 1.383 . S
C527 C525 1.383 . S
C527 C528 1.402 1_655 S
C527 H542 0.951 . S
C528 C527 1.402 1_455 S
C528 C529 1.375 . S
C528 C531 1.481 . S
C529 C528 1.375 . S
C529 C530 1.367 . S
C529 H543 0.951 . S
C530 C526 1.383 . S
C530 C529 1.367 . S
C530 H544 0.950 . S
C531 C528 1.481 . S
C531 C532 1.297 . S
C531 H545 0.950 . S
C532 C531 1.297 . S
C532 C533 1.479 . S
C532 H546 0.950 1_455 S
C533 C532 1.479 . S
C533 C534 1.375 1_455 S
C533 C539 1.404 . S
C534 C533 1.375 1_655 S
C534 C535 1.369 . S
C534 H547 0.950 . S
C535 C534 1.369 . S
C535 C536 1.392 1_655 S
C535 H548 0.951 . S
C536 C535 1.392 1_455 S
C536 C538 1.384 . S
H537 C539 0.949 . S
C538 C536 1.384 . S
C538 C539 1.385 . S
C538 H540 0.950 . S
C539 C533 1.404 . S
C539 H537 0.949 . S
C539 C538 1.385 . S
H540 C538 0.950 . S
H541 C525 0.951 . S
H542 C527 0.951 . S
H543 C529 0.951 . S
H544 C530 0.950 . S
H545 C531 0.950 . S
H546 C532 0.950 1_655 S
H547 C534 0.950 . S
H548 C535 0.951 . S
C272 C78 1.382 . S
C262 C10 1.508 . S
C286 C17 1.397 . S
C296 C152 1.368 . S
C310 C36 2.219 1_655 S
C320 C256 2.206 . S
C334 C5 0.831 . S
C344 C90 0.802 . S
C368 C164 0.771 . S
C358 C16 0.797 . S
C382 C31 1.574 . S
C392 C250 1.407 . S
C416 C182 2.175 . S
C406 C30 2.204 . S
C430 C3 1.469 . S
C440 C226 1.442 . S
C464 C102 1.491 . S
C454 C18 1.609 . S
C488 C176 1.362 . S
C478 C29 1.546 . S
C512 C238 0.768 . S
C502 C4 0.811 . S
C526 C23 2.271 . S
C536 C108 2.257 . S
