# Generated by pormake.
# Topology rtl, (3,6)-cn, num edge types: 1
# Building blocks:
#     Node 0, Type 0, BuildingBlock: CUQRIR_clean_linker_1, # of connection points: 3
#     Node 1, Type 0, BuildingBlock: CUQRIR_clean_linker_1, # of connection points: 3
#     Node 2, Type 0, BuildingBlock: CUQRIR_clean_linker_1, # of connection points: 3
#     Node 3, Type 0, BuildingBlock: CUQRIR_clean_linker_1, # of connection points: 3
#     Node 4, Type 1, BuildingBlock: FUNLAD_clean_sbu_0, # of connection points: 6
#     Node 5, Type 1, BuildingBlock: FUNLAD_clean_sbu_0, # of connection points: 6
#     Edge 6, Type (0, 1), BuildingBlock: KIFKEQ_clean_linker_1, # of connection points: 2
#     Edge 7, Type (0, 1), BuildingBlock: KIFKEQ_clean_linker_1, # of connection points: 2
#     Edge 8, Type (0, 1), BuildingBlock: KIFKEQ_clean_linker_1, # of connection points: 2
#     Edge 9, Type (0, 1), BuildingBlock: KIFKEQ_clean_linker_1, # of connection points: 2
#     Edge 10, Type (0, 1), BuildingBlock: KIFKEQ_clean_linker_1, # of connection points: 2
#     Edge 11, Type (0, 1), BuildingBlock: KIFKEQ_clean_linker_1, # of connection points: 2
#     Edge 12, Type (0, 1), BuildingBlock: KIFKEQ_clean_linker_1, # of connection points: 2
#     Edge 13, Type (0, 1), BuildingBlock: KIFKEQ_clean_linker_1, # of connection points: 2
#     Edge 14, Type (0, 1), BuildingBlock: KIFKEQ_clean_linker_1, # of connection points: 2
#     Edge 15, Type (0, 1), BuildingBlock: KIFKEQ_clean_linker_1, # of connection points: 2
#     Edge 16, Type (0, 1), BuildingBlock: KIFKEQ_clean_linker_1, # of connection points: 2
#     Edge 17, Type (0, 1), BuildingBlock: KIFKEQ_clean_linker_1, # of connection points: 2
# Relax obj value: 0.002
# Max RMSD: 0.038
# Mean RMSD: 0.032
data_MOF--net-rtl--node1-FUNLAD_clean_sbu_0--node2-CUQRIR_clean_linker_1--edge1-KIFKEQ_clean_linker_1
_symmetry_space_group_name_H-M    P1
_symmetry_Int_Tables_number       1
_symmetry_cell_setting            triclinic
loop_
_symmetry_equiv_pos_as_xyz
'x, y, z'
_cell_length_a     38.438949
_cell_length_b     38.416816
_cell_length_c     19.36629
_cell_angle_alpha  90.053365
_cell_angle_beta   90.957579
_cell_angle_gamma 89.992052
loop_
_atom_site_label
_atom_site_type_symbol
_atom_site_fract_x
_atom_site_fract_y
_atom_site_fract_z
_atom_type_partial_charge
C0 C 0.19049 0.81068 0.96552 0.0
N1 N 0.16745 0.83505 0.9863 0.0
N2 N 0.20918 0.79842 0.0201 0.0
C3 C 0.19636 0.80038 0.89167 0.0
C4 C 0.1968 0.81618 0.0748 0.0
N5 N 0.17161 0.83863 0.05417 0.0
C6 C 0.20869 0.81089 0.14839 0.0
H7 H 0.17805 0.77913 0.87744 0.0
H8 H 0.2233 0.79079 0.88462 0.0
H9 H 0.19148 0.82267 0.85643 0.0
H10 H 0.23085 0.82864 0.15954 0.0
H11 H 0.21767 0.78374 0.15674 0.0
H12 H 0.18763 0.817 0.18495 0.0
C13 C 0.69664 0.69255 0.57756 0.0
N14 N 0.67189 0.66953 0.5567 0.0
N15 N 0.70806 0.71123 0.52331 0.0
C16 C 0.70784 0.69874 0.65137 0.0
C17 C 0.68939 0.69899 0.46871 0.0
N18 N 0.66713 0.6738 0.48902 0.0
C19 C 0.6949 0.70988 0.39507 0.0
H20 H 0.71773 0.72564 0.65869 0.0
H21 H 0.72909 0.68032 0.66506 0.0
H22 H 0.68594 0.69426 0.68687 0.0
H23 H 0.72159 0.72013 0.38807 0.0
H24 H 0.67609 0.73078 0.3815 0.0
H25 H 0.69053 0.6877 0.35923 0.0
C26 C 0.80998 0.19097 0.06492 0.0
N27 N 0.83497 0.16902 0.04294 0.0
N28 N 0.79688 0.20975 0.0115 0.0
C29 C 0.79904 0.1948 0.13872 0.0
C30 C 0.81493 0.19863 0.95628 0.0
N31 N 0.83831 0.17393 0.97547 0.0
C32 C 0.80807 0.21034 0.88322 0.0
H33 H 0.77708 0.17677 0.14813 0.0
H34 H 0.79008 0.22174 0.14909 0.0
H35 H 0.8206 0.18808 0.17508 0.0
H36 H 0.82623 0.23182 0.8709 0.0
H37 H 0.78105 0.22008 0.87658 0.0
H38 H 0.81245 0.18872 0.84633 0.0
C39 C 0.31237 0.31295 0.45669 0.0
N40 N 0.33684 0.33635 0.47707 0.0
N41 N 0.30142 0.29416 0.51126 0.0
C42 C 0.30075 0.30677 0.38315 0.0
C43 C 0.3201 0.30681 0.5655 0.0
N44 N 0.34183 0.33224 0.54462 0.0
C45 C 0.31614 0.29519 0.63908 0.0
H46 H 0.27905 0.3248 0.37028 0.0
H47 H 0.29135 0.27969 0.37585 0.0
H48 H 0.3223 0.3118 0.34707 0.0
H49 H 0.33406 0.27305 0.64908 0.0
H50 H 0.28917 0.28625 0.64834 0.0
H51 H 0.3229 0.3164 0.67584 0.0
C52 C 0.03877 0.9666 0.41727 0.0
N53 N 0.06287 0.06064 0.51592 0.0
C54 C 0.09666 0.05067 0.52416 0.0
C55 C 0.12323 0.07546 0.5245 0.0
C56 C 0.11495 0.11075 0.51532 0.0
C57 C 0.07991 0.12031 0.50666 0.0
C58 C 0.05413 0.09473 0.50759 0.0
Zn59 Zn 0.02446 0.02386 0.5156 0.0
C60 C 0.96882 0.03928 0.40976 0.0
N61 N 0.94369 0.94759 0.51447 0.0
C62 C 0.95285 0.91352 0.52059 0.0
C63 C 0.90973 0.95727 0.50872 0.0
C64 C 0.88341 0.9322 0.50875 0.0
C65 C 0.89205 0.89677 0.51561 0.0
C66 C 0.9274 0.88765 0.52176 0.0
Zn67 Zn 0.98194 0.98454 0.51469 0.0
O68 O 0.0519 0.99422 0.44266 0.0
C69 C 0.03713 0.96889 0.62083 0.0
O70 O 0.00927 0.95621 0.43781 0.0
H71 H 0.90299 0.98451 0.504 0.0
H72 H 0.10306 0.02342 0.53025 0.0
H73 H 0.98 0.90635 0.52498 0.0
O74 O 0.05008 0.99686 0.59749 0.0
O75 O 0.00886 0.95744 0.59461 0.0
H76 H 0.02711 0.10213 0.50163 0.0
O77 O 0.95533 0.01354 0.5906 0.0
O78 O 0.99658 0.05303 0.58955 0.0
O79 O 0.95543 0.0122 0.43584 0.0
O80 O 0.99804 0.05015 0.43278 0.0
C81 C 0.96795 0.04203 0.61322 0.0
H82 H 0.15001 0.06707 0.53074 0.0
H83 H 0.0725 0.14732 0.50011 0.0
H84 H 0.85664 0.94055 0.50275 0.0
H85 H 0.93542 0.86084 0.52837 0.0
C86 C 0.4683 0.46806 0.91363 0.0
N87 N 0.56084 0.44581 0.02195 0.0
C88 C 0.55141 0.41181 0.02803 0.0
C89 C 0.57664 0.38565 0.02871 0.0
C90 C 0.61183 0.39456 0.02205 0.0
C91 C 0.62085 0.4298 0.01591 0.0
C92 C 0.59484 0.45515 0.01648 0.0
Zn93 Zn 0.52337 0.48357 0.01925 0.0
C94 C 0.5396 0.53913 0.91657 0.0
N95 N 0.44544 0.56264 0.01223 0.0
C96 C 0.41142 0.55344 1.00421 0.0
C97 C 0.45497 0.59657 0.01983 0.0
C98 C 0.4298 0.62275 0.02055 0.0
C99 C 0.39454 0.61396 0.01236 0.0
C100 C 0.38544 0.57884 1.0036 0.0
Zn101 Zn 0.48282 0.52484 0.01486 0.0
O102 O 0.49546 0.45535 0.94222 0.0
C103 C 0.46638 0.46939 0.11721 0.0
O104 O 0.45703 0.49747 0.93347 0.0
H105 H 0.48217 0.60335 0.02569 0.0
H106 H 0.52423 0.40492 0.03181 0.0
H107 H 0.40438 0.52631 0.99879 0.0
O108 O 0.49547 0.45765 0.09732 0.0
O109 O 0.45424 0.49704 0.08999 0.0
H110 H 0.60181 0.48232 0.0122 0.0
O111 O 0.5093 0.55136 0.09598 0.0
O112 O 0.55082 0.51219 0.09692 0.0
O113 O 0.51184 0.55225 0.94012 0.0
O114 O 0.55046 0.51022 0.94045 0.0
C115 C 0.53791 0.54006 0.121 0.0
H116 H 0.56868 0.3587 0.03298 0.0
H117 H 0.64777 0.43768 0.01134 0.0
H118 H 0.43782 0.64962 0.0268 0.0
H119 H 0.35846 0.57106 0.99773 0.0
H120 H 0.30932 0.22745 0.55003 0.0
H121 H 0.23438 0.30191 0.474 0.0
H122 H 0.2645 0.18218 0.54977 0.0
H123 H 0.18884 0.2575 0.4761 0.0
H124 H 0.12331 0.16294 0.42188 0.0
H125 H 0.16904 0.20684 0.41985 0.0
H126 H 0.21421 0.16333 0.60676 0.0
H127 H 0.1691 0.11869 0.60685 0.0
C128 C 0.28302 0.23397 0.53388 0.0
C129 C 0.27499 0.26779 0.51187 0.0
C130 C 0.25729 0.20826 0.53402 0.0
C131 C 0.22292 0.21608 0.51291 0.0
C132 C 0.21507 0.25026 0.49141 0.0
C133 C 0.24094 0.27577 0.49052 0.0
C134 C 0.14303 0.1629 0.46252 0.0
C135 C 0.14271 0.13747 0.51451 0.0
C136 C 0.16918 0.18813 0.46162 0.0
C137 C 0.19537 0.18881 0.51329 0.0
C138 C 0.19489 0.16331 0.56543 0.0
C139 C 0.16898 0.1378 0.56574 0.0
H140 H 0.27611 0.80602 0.05907 0.0
H141 H 0.20137 0.73192 0.98073 0.0
H142 H 0.32171 0.76159 0.05613 0.0
H143 H 0.24613 0.68666 0.98031 0.0
H144 H 0.34062 0.62318 0.92101 0.0
H145 H 0.29605 0.66831 0.92237 0.0
H146 H 0.34201 0.71051 0.1099 0.0
H147 H 0.3873 0.66613 0.10646 0.0
C148 C 0.2696 0.77994 0.04195 0.0
C149 C 0.23562 0.77206 0.02001 0.0
C150 C 0.2955 0.75443 0.04054 0.0
C151 C 0.28771 0.72039 0.01796 0.0
C152 C 0.25334 0.71266 0.99672 0.0
C153 C 0.22763 0.73834 0.99732 0.0
C154 C 0.34106 0.64214 0.96246 0.0
C155 C 0.36737 0.64126 0.01354 0.0
C156 C 0.31544 0.66792 0.96355 0.0
C157 C 0.31526 0.69313 0.01638 0.0
C158 C 0.34161 0.69201 0.06769 0.0
C159 C 0.3675 0.66651 0.06598 0.0
H160 H 0.69924 0.77788 0.48522 0.0
H161 H 0.77518 0.70438 0.56147 0.0
H162 H 0.74391 0.82361 0.48377 0.0
H163 H 0.82017 0.7498 0.55977 0.0
H164 H 0.89423 0.83088 0.46068 0.0
H165 H 0.84965 0.78588 0.46482 0.0
H166 H 0.7822 0.85595 0.57408 0.0
H167 H 0.82719 0.90068 0.57276 0.0
C168 C 0.7256 0.77174 0.50162 0.0
C169 C 0.73411 0.73798 0.52345 0.0
C170 C 0.75101 0.79774 0.50115 0.0
C171 C 0.78544 0.79015 0.52159 0.0
C172 C 0.79387 0.75623 0.54331 0.0
C173 C 0.76831 0.7304 0.54468 0.0
C174 C 0.87016 0.83665 0.48658 0.0
C175 C 0.86449 0.86952 0.5166 0.0
C176 C 0.84459 0.81087 0.48862 0.0
C177 C 0.81256 0.81748 0.51979 0.0
C178 C 0.80659 0.85033 0.54912 0.0
C179 C 0.83234 0.87599 0.54798 0.0
H180 H 0.80403 0.27702 0.97778 0.0
H181 H 0.7305 0.20127 0.04919 0.0
H182 H 0.75937 0.3223 0.98191 0.0
H183 H 0.68495 0.24578 0.05071 0.0
H184 H 0.62058 0.34011 0.11099 0.0
H185 H 0.66575 0.29553 0.10966 0.0
H186 H 0.70849 0.34221 0.92642 0.0
H187 H 0.66412 0.38745 0.9299 0.0
C188 C 0.77803 0.27023 0.99374 0.0
C189 C 0.77038 0.23604 0.01325 0.0
C190 C 0.75238 0.29595 0.99576 0.0
C191 C 0.71838 0.28779 0.01648 0.0
C192 C 0.7109 0.25326 0.03568 0.0
C193 C 0.73676 0.2277 0.03448 0.0
C194 C 0.63967 0.34069 0.07048 0.0
C195 C 0.63898 0.36723 0.02071 0.0
C196 C 0.66548 0.31508 0.06941 0.0
C197 C 0.6909 0.31514 0.0179 0.0
C198 C 0.68987 0.34164 0.96773 0.0
C199 C 0.66436 0.36751 0.96944 0.0
H200 H 0.18406 0.90336 0.10028 0.0
H201 H 0.11194 0.81811 0.11018 0.0
H202 H 0.15013 0.93579 0.18453 0.0
H203 H 0.07892 0.84882 0.19826 0.0
H204 H 0.01125 0.92264 0.3198 0.0
H205 H 0.04154 0.89374 0.22625 0.0
H206 H 0.13893 0.93728 0.30109 0.0
H207 H 0.10815 0.96772 0.39157 0.0
C208 C 0.1606 0.89189 0.12046 0.0
C209 C 0.14997 0.85882 0.09858 0.0
C210 C 0.14142 0.91004 0.16949 0.0
C211 C 0.11177 0.89492 0.19916 0.0
C212 C 0.10111 0.86173 0.17606 0.0
C213 C 0.11995 0.84399 0.12592 0.0
C214 C 0.03915 0.92594 0.31608 0.0
C215 C 0.05734 0.94746 0.36286 0.0
C216 C 0.05662 0.90925 0.26257 0.0
C217 C 0.09284 0.91313 0.25545 0.0
C218 C 0.11098 0.93426 0.30339 0.0
C219 C 0.0934 0.95149 0.3559 0.0
H220 H 0.6974 0.62242 0.64686 0.0
H221 H 0.60207 0.66617 0.56563 0.0
H222 H 0.66476 0.5896 0.73211 0.0
H223 H 0.56877 0.63213 0.64856 0.0
H224 H 0.5272 0.60374 0.86217 0.0
H225 H 0.55846 0.63277 0.77024 0.0
H226 H 0.62529 0.54294 0.75045 0.0
H227 H 0.59474 0.5144 0.84389 0.0
C228 C 0.66931 0.6245 0.64692 0.0
C229 C 0.65215 0.6469 0.60049 0.0
C230 C 0.65053 0.60553 0.6952 0.0
C231 C 0.61407 0.60838 0.6977 0.0
C232 C 0.59684 0.62978 0.649 0.0
C233 C 0.61575 0.6489 0.60094 0.0
C234 C 0.54859 0.5902 0.83824 0.0
C235 C 0.55858 0.55683 0.86066 0.0
C236 C 0.56634 0.60672 0.78502 0.0
C237 C 0.59438 0.5902 0.75263 0.0
C238 C 0.60415 0.55667 0.77478 0.0
C239 C 0.58655 0.54024 0.82827 0.0
H240 H 0.89578 0.18818 0.10017 0.0
H241 H 0.82261 0.10382 0.08534 0.0
H242 H 0.92945 0.15632 0.18771 0.0
H243 H 0.85715 0.07024 0.16892 0.0
H244 H 0.89962 0.03764 0.37826 0.0
H245 H 0.86896 0.06796 0.28568 0.0
H246 H 0.96648 0.11102 0.21696 0.0
H247 H 0.99669 0.08224 0.31275 0.0
C248 C 0.8877 0.16221 0.11459 0.0
C249 C 0.85716 0.14801 0.08616 0.0
C250 C 0.90691 0.14381 0.16444 0.0
C251 C 0.8961 0.11056 0.18613 0.0
C252 C 0.866 0.096 0.15505 0.0
C253 C 0.84645 0.11482 0.10638 0.0
C254 C 0.91446 0.05365 0.34337 0.0
C255 C 0.95051 0.05767 0.35286 0.0
C256 C 0.89693 0.07083 0.28964 0.0
C257 C 0.91512 0.0919 0.24294 0.0
C258 C 0.95137 0.09557 0.25228 0.0
C259 C 0.9688 0.07894 0.30703 0.0
H260 H 0.40641 0.31961 0.59284 0.0
H261 H 0.32224 0.39315 0.59819 0.0
H262 H 0.4392 0.35423 0.67773 0.0
H263 H 0.35324 0.42691 0.68677 0.0
H264 H 0.42619 0.4949 0.81216 0.0
H265 H 0.39827 0.46395 0.7165 0.0
H266 H 0.44085 0.36699 0.79399 0.0
H267 H 0.47044 0.39847 0.88673 0.0
C268 C 0.39526 0.34352 0.6122 0.0
C269 C 0.36237 0.35434 0.58891 0.0
C270 C 0.41362 0.36313 0.66153 0.0
C271 C 0.39888 0.39341 0.69008 0.0
C272 C 0.3659 0.40425 0.66546 0.0
C273 C 0.34798 0.38498 0.61501 0.0
C274 C 0.42957 0.46696 0.80848 0.0
C275 C 0.45047 0.44909 0.85686 0.0
C276 C 0.4134 0.44911 0.75378 0.0
C277 C 0.41714 0.41279 0.74697 0.0
C278 C 0.4379 0.39499 0.79611 0.0
C279 C 0.45465 0.41297 0.84989 0.0
H280 H 0.66508 0.60386 0.4782 0.0
H281 H 0.61886 0.69821 0.39956 0.0
H282 H 0.63132 0.56976 0.39361 0.0
H283 H 0.58634 0.66487 0.31278 0.0
H284 H 0.51245 0.59421 0.19631 0.0
H285 H 0.54059 0.62466 0.29224 0.0
H286 H 0.63137 0.55929 0.27159 0.0
H287 H 0.60266 0.528 0.17705 0.0
C288 C 0.64732 0.61713 0.44313 0.0
C289 C 0.64455 0.6535 0.4447 0.0
C290 C 0.62836 0.59779 0.39414 0.0
C291 C 0.60635 0.61455 0.34572 0.0
C292 C 0.60273 0.65096 0.34944 0.0
C293 C 0.62152 0.67016 0.39862 0.0
C294 C 0.53841 0.58629 0.21226 0.0
C295 C 0.55538 0.55877 0.17878 0.0
C296 C 0.55461 0.60384 0.26721 0.0
C297 C 0.58833 0.59454 0.28974 0.0
C298 C 0.6052 0.56683 0.25646 0.0
C299 C 0.58886 0.54907 0.20178 0.0
H300 H 0.84082 0.10437 0.96023 0.0
H301 H 0.88531 0.20026 0.88825 0.0
H302 H 0.87465 0.07173 0.87638 0.0
H303 H 0.91778 0.16824 0.80118 0.0
H304 H 0.99262 0.09765 0.68737 0.0
H305 H 0.96403 0.12864 0.78044 0.0
H306 H 0.8739 0.06226 0.75506 0.0
H307 H 0.903 0.03055 0.66375 0.0
C308 C 0.85838 0.11831 0.92707 0.0
C309 C 0.8608 0.15465 0.93073 0.0
C310 C 0.87727 0.09978 0.87814 0.0
C311 C 0.89871 0.11734 0.83132 0.0
C312 C 0.90183 0.15376 0.83665 0.0
C313 C 0.88312 0.17218 0.88603 0.0
C314 C 0.96668 0.0897 0.70165 0.0
C315 C 0.95008 0.06163 0.66812 0.0
C316 C 0.95022 0.10755 0.75492 0.0
C317 C 0.91666 0.09794 0.77559 0.0
C318 C 0.90001 0.06998 0.74158 0.0
C319 C 0.91657 0.05196 0.68872 0.0
H320 H 0.40638 0.3409 0.46603 0.0
H321 H 0.30982 0.38348 0.38833 0.0
H322 H 0.43855 0.376 0.38363 0.0
H323 H 0.34139 0.41711 0.30257 0.0
H324 H 0.41014 0.49309 0.18811 0.0
H325 H 0.37979 0.46409 0.28143 0.0
H326 H 0.44863 0.37567 0.26332 0.0
H327 H 0.47968 0.40521 0.172 0.0
C328 C 0.39217 0.35828 0.43188 0.0
C329 C 0.35577 0.3597 0.43339 0.0
C330 C 0.41045 0.37792 0.38379 0.0
C331 C 0.39259 0.39912 0.33564 0.0
C332 C 0.3561 0.40136 0.33904 0.0
C333 C 0.33794 0.38194 0.38764 0.0
C334 C 0.41878 0.46746 0.20414 0.0
C335 C 0.44732 0.45145 0.17262 0.0
C336 C 0.4013 0.45076 0.25753 0.0
C337 C 0.41176 0.41753 0.28026 0.0
C338 C 0.44025 0.40152 0.24833 0.0
C339 C 0.4579 0.41834 0.19543 0.0
H340 H 0.11892 0.81014 0.89768 0.0
H341 H 0.1651 0.90482 0.97495 0.0
H342 H 0.08575 0.84332 0.81144 0.0
H343 H 0.13061 0.93866 0.89179 0.0
H344 H 0.10175 0.98078 0.67714 0.0
H345 H 0.13055 0.94909 0.7707 0.0
H346 H 0.03986 0.88354 0.79042 0.0
H347 H 0.01158 0.91446 0.69519 0.0
C348 C 0.12127 0.83822 0.89689 0.0
C349 C 0.14432 0.85506 0.94272 0.0
C350 C 0.10217 0.85731 0.84798 0.0
C351 C 0.10561 0.89374 0.84425 0.0
C352 C 0.12771 0.91062 0.89236 0.0
C353 C 0.14699 0.89142 0.94087 0.0
C354 C 0.08795 0.95962 0.7015 0.0
C355 C 0.05445 0.95004 0.67847 0.0
C356 C 0.10435 0.94161 0.75562 0.0
C357 C 0.08753 0.91375 0.78842 0.0
C358 C 0.05382 0.90449 0.76581 0.0
C359 C 0.03754 0.92232 0.71131 0.0
loop_
_geom_bond_atom_site_label_1
_geom_bond_atom_site_label_2
_geom_bond_distance
_geom_bond_site_symmetry_2
_ccdc_geom_bond_type
C0 N1 1.317 . S
C0 N2 1.348 1_556 S
C0 C3 1.485 . S
N1 C0 1.317 . S
N1 N5 1.370 1_556 S
N2 C0 1.348 1_554 S
N2 C4 1.346 . S
C3 C0 1.485 . S
C3 H7 0.960 . S
C3 H8 0.961 . S
C3 H9 0.960 . S
C4 N2 1.346 . S
C4 N5 1.307 . S
C4 C6 1.486 . S
N5 N1 1.370 1_554 S
N5 C4 1.307 . S
C6 C4 1.486 . S
C6 H10 0.960 . S
C6 H11 0.960 . S
C6 H12 0.959 . S
H7 C3 0.960 . S
H8 C3 0.961 . S
H9 C3 0.960 . S
H10 C6 0.960 . S
H11 C6 0.960 . S
H12 C6 0.959 . S
C13 N14 1.317 . S
C13 N15 1.348 . S
C13 C16 1.485 . S
N14 C13 1.317 . S
N14 N18 1.370 . S
N15 C13 1.348 . S
N15 C17 1.346 . S
C16 C13 1.485 . S
C16 H20 0.960 . S
C16 H21 0.961 . S
C16 H22 0.960 . S
C17 N15 1.346 . S
C17 N18 1.307 . S
C17 C19 1.486 . S
N18 N14 1.370 . S
N18 C17 1.307 . S
C19 C17 1.486 . S
C19 H23 0.960 . S
C19 H24 0.960 . S
C19 H25 0.959 . S
H20 C16 0.960 . S
H21 C16 0.961 . S
H22 C16 0.960 . S
H23 C19 0.960 . S
H24 C19 0.960 . S
H25 C19 0.959 . S
C26 N27 1.317 . S
C26 N28 1.348 . S
C26 C29 1.485 . S
N27 C26 1.317 . S
N27 N31 1.370 1_554 S
N28 C26 1.348 . S
N28 C30 1.346 1_554 S
C29 C26 1.485 . S
C29 H33 0.960 . S
C29 H34 0.961 . S
C29 H35 0.960 . S
C30 N28 1.346 1_556 S
C30 N31 1.307 . S
C30 C32 1.486 . S
N31 N27 1.370 1_556 S
N31 C30 1.307 . S
C32 C30 1.486 . S
C32 H36 0.960 . S
C32 H37 0.960 . S
C32 H38 0.959 . S
H33 C29 0.960 . S
H34 C29 0.961 . S
H35 C29 0.960 . S
H36 C32 0.960 . S
H37 C32 0.960 . S
H38 C32 0.959 . S
C39 N40 1.317 . S
C39 N41 1.348 . S
C39 C42 1.485 . S
N40 C39 1.317 . S
N40 N44 1.370 . S
N41 C39 1.348 . S
N41 C43 1.346 . S
C42 C39 1.485 . S
C42 H46 0.960 . S
C42 H47 0.961 . S
C42 H48 0.960 . S
C43 N41 1.346 . S
C43 N44 1.307 . S
C43 C45 1.486 . S
N44 N40 1.370 . S
N44 C43 1.307 . S
C45 C43 1.486 . S
C45 H49 0.960 . S
C45 H50 0.960 . S
C45 H51 0.959 . S
H46 C42 0.960 . S
H47 C42 0.961 . S
H48 C42 0.960 . S
H49 C45 0.960 . S
H50 C45 0.960 . S
H51 C45 0.959 . S
C52 O68 1.251 . S
C52 O70 1.254 . S
N53 C54 1.333 . S
N53 C58 1.307 . S
N53 Zn59 2.020 . S
C54 N53 1.333 . S
C54 C55 1.379 . S
C54 H72 0.952 . S
C55 C54 1.379 . S
C55 C56 1.390 . S
C55 H82 0.949 . S
C56 C55 1.390 . S
C56 C57 1.357 . S
C57 C56 1.357 . S
C57 C58 1.370 . S
C57 H83 0.950 . S
C58 N53 1.307 . S
C58 C57 1.370 . S
C58 H76 0.948 . S
Zn59 N53 2.020 . S
Zn59 O68 2.039 1_545 S
Zn59 O74 2.034 1_545 S
Zn59 O78 2.025 1_455 S
Zn59 O80 2.024 1_455 S
C60 O79 1.246 . S
C60 O80 1.249 . S
N61 C62 1.307 . S
N61 C63 1.333 . S
N61 Zn67 2.020 . S
C62 N61 1.307 . S
C62 C66 1.370 . S
C62 H73 0.948 . S
C63 N61 1.333 . S
C63 C64 1.379 . S
C63 H71 0.952 . S
C64 C63 1.379 . S
C64 C65 1.390 . S
C64 H84 0.949 . S
C65 C64 1.390 . S
C65 C66 1.357 . S
C66 C62 1.370 . S
C66 C65 1.357 . S
C66 H85 0.950 . S
Zn67 N61 2.020 . S
Zn67 O70 2.025 1_655 S
Zn67 O75 2.024 1_655 S
Zn67 O77 2.039 1_565 S
Zn67 O79 2.034 1_565 S
O68 C52 1.251 . S
O68 Zn59 2.039 1_565 S
C69 O74 1.246 . S
C69 O75 1.249 . S
O70 C52 1.254 . S
O70 Zn67 2.025 1_455 S
H71 C63 0.952 . S
H72 C54 0.952 . S
H73 C62 0.948 . S
O74 Zn59 2.034 1_565 S
O74 C69 1.246 . S
O75 Zn67 2.024 1_455 S
O75 C69 1.249 . S
H76 C58 0.948 . S
O77 Zn67 2.039 1_545 S
O77 C81 1.251 . S
O78 Zn59 2.025 1_655 S
O78 C81 1.254 . S
O79 C60 1.246 . S
O79 Zn67 2.034 1_545 S
O80 Zn59 2.024 1_655 S
O80 C60 1.249 . S
C81 O77 1.251 . S
C81 O78 1.254 . S
H82 C55 0.949 . S
H83 C57 0.950 . S
H84 C64 0.949 . S
H85 C66 0.950 . S
C86 O102 1.251 . S
C86 O104 1.254 . S
N87 C88 1.333 1_554 S
N87 C92 1.307 . S
N87 Zn93 2.020 . S
C88 N87 1.333 1_556 S
C88 C89 1.379 . S
C88 H106 0.952 . S
C89 C88 1.379 . S
C89 C90 1.390 1_556 S
C89 H116 0.949 . S
C90 C89 1.390 1_554 S
C90 C91 1.357 . S
C91 C90 1.357 . S
C91 C92 1.370 . S
C91 H117 0.950 . S
C92 N87 1.307 . S
C92 C91 1.370 . S
C92 H110 0.948 . S
Zn93 N87 2.020 . S
Zn93 O102 2.039 1_554 S
Zn93 O108 2.034 . S
Zn93 O112 2.025 . S
Zn93 O114 2.024 1_554 S
C94 O113 1.246 . S
C94 O114 1.249 . S
N95 C96 1.307 1_554 S
N95 C97 1.333 . S
N95 Zn101 2.020 . S
C96 N95 1.307 1_556 S
C96 C100 1.370 . S
C96 H107 0.948 . S
C97 N95 1.333 . S
C97 C98 1.379 . S
C97 H105 0.952 . S
C98 C97 1.379 . S
C98 C99 1.390 . S
C98 H118 0.949 . S
C99 C98 1.390 . S
C99 C100 1.357 1_554 S
C100 C96 1.370 . S
C100 C99 1.357 1_556 S
C100 H119 0.950 . S
Zn101 N95 2.020 . S
Zn101 O104 2.025 1_554 S
Zn101 O109 2.024 . S
Zn101 O111 2.039 . S
Zn101 O113 2.034 1_554 S
O102 C86 1.251 . S
O102 Zn93 2.039 1_556 S
C103 O108 1.246 . S
C103 O109 1.249 . S
O104 C86 1.254 . S
O104 Zn101 2.025 1_556 S
H105 C97 0.952 . S
H106 C88 0.952 . S
H107 C96 0.948 . S
O108 Zn93 2.034 . S
O108 C103 1.246 . S
O109 Zn101 2.024 . S
O109 C103 1.249 . S
H110 C92 0.948 . S
O111 Zn101 2.039 . S
O111 C115 1.251 . S
O112 Zn93 2.025 . S
O112 C115 1.254 . S
O113 C94 1.246 . S
O113 Zn101 2.034 1_556 S
O114 Zn93 2.024 1_556 S
O114 C94 1.249 . S
C115 O111 1.251 . S
C115 O112 1.254 . S
H116 C89 0.949 . S
H117 C91 0.950 . S
H118 C98 0.949 . S
H119 C100 0.950 . S
H120 C128 0.950 . S
H121 C133 0.950 . S
H122 C130 0.950 . S
H123 C132 0.950 . S
H124 C134 0.950 . S
H125 C136 0.950 . S
H126 C138 0.950 . S
H127 C139 0.950 . S
C128 H120 0.950 . S
C128 C129 1.386 . S
C128 C130 1.391 . S
C129 C128 1.386 . S
C129 C133 1.393 . S
C130 H122 0.950 . S
C130 C128 1.391 . S
C130 C131 1.400 . S
C131 C130 1.400 . S
C131 C132 1.398 . S
C131 C137 1.491 . S
C132 H123 0.950 . S
C132 C131 1.398 . S
C132 C133 1.391 . S
C133 H121 0.950 . S
C133 C129 1.393 . S
C133 C132 1.391 . S
C134 H124 0.950 . S
C134 C135 1.386 . S
C134 C136 1.391 . S
C135 C134 1.386 . S
C135 C139 1.393 . S
C136 H125 0.950 . S
C136 C134 1.391 . S
C136 C137 1.400 . S
C137 C131 1.491 . S
C137 C136 1.400 . S
C137 C138 1.398 . S
C138 H126 0.950 . S
C138 C137 1.398 . S
C138 C139 1.391 . S
C139 H127 0.950 . S
C139 C135 1.393 . S
C139 C138 1.391 . S
H140 C148 0.950 . S
H141 C153 0.950 . S
H142 C150 0.950 . S
H143 C152 0.950 . S
H144 C154 0.950 . S
H145 C156 0.950 . S
H146 C158 0.950 . S
H147 C159 0.950 . S
C148 H140 0.950 . S
C148 C149 1.386 . S
C148 C150 1.391 . S
C149 C148 1.386 . S
C149 C153 1.393 1_554 S
C150 H142 0.950 . S
C150 C148 1.391 . S
C150 C151 1.400 . S
C151 C150 1.400 . S
C151 C152 1.398 1_554 S
C151 C157 1.491 . S
C152 H143 0.950 . S
C152 C151 1.398 1_556 S
C152 C153 1.391 . S
C153 H141 0.950 . S
C153 C149 1.393 1_556 S
C153 C152 1.391 . S
C154 H144 0.950 . S
C154 C155 1.386 1_556 S
C154 C156 1.391 . S
C155 C154 1.386 1_554 S
C155 C159 1.393 . S
C156 H145 0.950 . S
C156 C154 1.391 . S
C156 C157 1.400 1_556 S
C157 C151 1.491 . S
C157 C156 1.400 1_554 S
C157 C158 1.398 . S
C158 H146 0.950 . S
C158 C157 1.398 . S
C158 C159 1.391 . S
C159 H147 0.950 . S
C159 C155 1.393 . S
C159 C158 1.391 . S
H160 C168 0.950 . S
H161 C173 0.950 . S
H162 C170 0.950 . S
H163 C172 0.950 . S
H164 C174 0.950 . S
H165 C176 0.950 . S
H166 C178 0.950 . S
H167 C179 0.950 . S
C168 H160 0.950 . S
C168 C169 1.386 . S
C168 C170 1.391 . S
C169 C168 1.386 . S
C169 C173 1.393 . S
C170 H162 0.950 . S
C170 C168 1.391 . S
C170 C171 1.400 . S
C171 C170 1.400 . S
C171 C172 1.398 . S
C171 C177 1.491 . S
C172 H163 0.950 . S
C172 C171 1.398 . S
C172 C173 1.391 . S
C173 H161 0.950 . S
C173 C169 1.393 . S
C173 C172 1.391 . S
C174 H164 0.950 . S
C174 C175 1.386 . S
C174 C176 1.391 . S
C175 C174 1.386 . S
C175 C179 1.393 . S
C176 H165 0.950 . S
C176 C174 1.391 . S
C176 C177 1.400 . S
C177 C171 1.491 . S
C177 C176 1.400 . S
C177 C178 1.398 . S
C178 H166 0.950 . S
C178 C177 1.398 . S
C178 C179 1.391 . S
C179 H167 0.950 . S
C179 C175 1.393 . S
C179 C178 1.391 . S
H180 C188 0.950 . S
H181 C193 0.950 . S
H182 C190 0.950 . S
H183 C192 0.950 . S
H184 C194 0.950 . S
H185 C196 0.950 . S
H186 C198 0.950 . S
H187 C199 0.950 . S
C188 H180 0.950 . S
C188 C189 1.384 1_556 S
C188 C190 1.391 . S
C189 C188 1.384 1_554 S
C189 C193 1.394 . S
C190 H182 0.950 . S
C190 C188 1.391 . S
C190 C191 1.400 1_556 S
C191 C190 1.400 1_554 S
C191 C192 1.398 . S
C191 C197 1.491 . S
C192 H183 0.950 . S
C192 C191 1.398 . S
C192 C193 1.391 . S
C193 H181 0.950 . S
C193 C189 1.394 . S
C193 C192 1.391 . S
C194 H184 0.950 . S
C194 C195 1.386 . S
C194 C196 1.391 . S
C195 C194 1.386 . S
C195 C199 1.393 1_554 S
C196 H185 0.950 . S
C196 C194 1.391 . S
C196 C197 1.400 . S
C197 C191 1.491 . S
C197 C196 1.400 . S
C197 C198 1.398 1_554 S
C198 H186 0.950 . S
C198 C197 1.398 1_556 S
C198 C199 1.391 . S
C199 H187 0.950 . S
C199 C195 1.393 1_556 S
C199 C198 1.391 . S
H200 C208 0.950 . S
H201 C213 0.950 . S
H202 C210 0.950 . S
H203 C212 0.950 . S
H204 C214 0.950 . S
H205 C216 0.950 . S
H206 C218 0.950 . S
H207 C219 0.950 . S
C208 H200 0.950 . S
C208 C209 1.386 . S
C208 C210 1.391 . S
C209 C208 1.386 . S
C209 C213 1.393 . S
C210 H202 0.950 . S
C210 C208 1.391 . S
C210 C211 1.400 . S
C211 C210 1.400 . S
C211 C212 1.398 . S
C211 C217 1.491 . S
C212 H203 0.950 . S
C212 C211 1.398 . S
C212 C213 1.391 . S
C213 H201 0.950 . S
C213 C209 1.393 . S
C213 C212 1.391 . S
C214 H204 0.950 . S
C214 C215 1.386 . S
C214 C216 1.391 . S
C215 C214 1.386 . S
C215 C219 1.393 . S
C216 H205 0.950 . S
C216 C214 1.391 . S
C216 C217 1.400 . S
C217 C211 1.491 . S
C217 C216 1.400 . S
C217 C218 1.398 . S
C218 H206 0.950 . S
C218 C217 1.398 . S
C218 C219 1.391 . S
C219 H207 0.950 . S
C219 C215 1.393 . S
C219 C218 1.391 . S
H220 C228 0.950 . S
H221 C233 0.950 . S
H222 C230 0.950 . S
H223 C232 0.950 . S
H224 C234 0.950 . S
H225 C236 0.950 . S
H226 C238 0.950 . S
H227 C239 0.950 . S
C228 H220 0.950 . S
C228 C229 1.386 . S
C228 C230 1.391 . S
C229 C228 1.386 . S
C229 C233 1.393 . S
C230 H222 0.950 . S
C230 C228 1.391 . S
C230 C231 1.400 . S
C231 C230 1.400 . S
C231 C232 1.398 . S
C231 C237 1.491 . S
C232 H223 0.950 . S
C232 C231 1.398 . S
C232 C233 1.391 . S
C233 H221 0.950 . S
C233 C229 1.393 . S
C233 C232 1.391 . S
C234 H224 0.950 . S
C234 C235 1.386 . S
C234 C236 1.391 . S
C235 C234 1.386 . S
C235 C239 1.393 . S
C236 H225 0.950 . S
C236 C234 1.391 . S
C236 C237 1.400 . S
C237 C231 1.491 . S
C237 C236 1.400 . S
C237 C238 1.398 . S
C238 H226 0.950 . S
C238 C237 1.398 . S
C238 C239 1.391 . S
C239 H227 0.950 . S
C239 C235 1.393 . S
C239 C238 1.391 . S
H240 C248 0.950 . S
H241 C253 0.950 . S
H242 C250 0.950 . S
H243 C252 0.950 . S
H244 C254 0.950 . S
H245 C256 0.950 . S
H246 C258 0.950 . S
H247 C259 0.950 . S
C248 H240 0.950 . S
C248 C249 1.386 . S
C248 C250 1.391 . S
C249 C248 1.386 . S
C249 C253 1.393 . S
C250 H242 0.950 . S
C250 C248 1.391 . S
C250 C251 1.400 . S
C251 C250 1.400 . S
C251 C252 1.398 . S
C251 C257 1.491 . S
C252 H243 0.950 . S
C252 C251 1.398 . S
C252 C253 1.391 . S
C253 H241 0.950 . S
C253 C249 1.393 . S
C253 C252 1.391 . S
C254 H244 0.950 . S
C254 C255 1.386 . S
C254 C256 1.391 . S
C255 C254 1.386 . S
C255 C259 1.393 . S
C256 H245 0.950 . S
C256 C254 1.391 . S
C256 C257 1.400 . S
C257 C251 1.491 . S
C257 C256 1.400 . S
C257 C258 1.398 . S
C258 H246 0.950 . S
C258 C257 1.398 . S
C258 C259 1.391 . S
C259 H247 0.950 . S
C259 C255 1.393 . S
C259 C258 1.391 . S
H260 C268 0.950 . S
H261 C273 0.950 . S
H262 C270 0.950 . S
H263 C272 0.950 . S
H264 C274 0.950 . S
H265 C276 0.950 . S
H266 C278 0.950 . S
H267 C279 0.950 . S
C268 H260 0.950 . S
C268 C269 1.386 . S
C268 C270 1.391 . S
C269 C268 1.386 . S
C269 C273 1.393 . S
C270 H262 0.950 . S
C270 C268 1.391 . S
C270 C271 1.400 . S
C271 C270 1.400 . S
C271 C272 1.398 . S
C271 C277 1.491 . S
C272 H263 0.950 . S
C272 C271 1.398 . S
C272 C273 1.391 . S
C273 H261 0.950 . S
C273 C269 1.393 . S
C273 C272 1.391 . S
C274 H264 0.950 . S
C274 C275 1.386 . S
C274 C276 1.391 . S
C275 C274 1.386 . S
C275 C279 1.393 . S
C276 H265 0.950 . S
C276 C274 1.391 . S
C276 C277 1.400 . S
C277 C271 1.491 . S
C277 C276 1.400 . S
C277 C278 1.398 . S
C278 H266 0.950 . S
C278 C277 1.398 . S
C278 C279 1.391 . S
C279 H267 0.950 . S
C279 C275 1.393 . S
C279 C278 1.391 . S
H280 C288 0.950 . S
H281 C293 0.950 . S
H282 C290 0.950 . S
H283 C292 0.950 . S
H284 C294 0.950 . S
H285 C296 0.950 . S
H286 C298 0.950 . S
H287 C299 0.950 . S
C288 H280 0.950 . S
C288 C289 1.386 . S
C288 C290 1.391 . S
C289 C288 1.386 . S
C289 C293 1.393 . S
C290 H282 0.950 . S
C290 C288 1.391 . S
C290 C291 1.400 . S
C291 C290 1.400 . S
C291 C292 1.398 . S
C291 C297 1.491 . S
C292 H283 0.950 . S
C292 C291 1.398 . S
C292 C293 1.391 . S
C293 H281 0.950 . S
C293 C289 1.393 . S
C293 C292 1.391 . S
C294 H284 0.950 . S
C294 C295 1.386 . S
C294 C296 1.391 . S
C295 C294 1.386 . S
C295 C299 1.393 . S
C296 H285 0.950 . S
C296 C294 1.391 . S
C296 C297 1.400 . S
C297 C291 1.491 . S
C297 C296 1.400 . S
C297 C298 1.398 . S
C298 H286 0.950 . S
C298 C297 1.398 . S
C298 C299 1.391 . S
C299 H287 0.950 . S
C299 C295 1.393 . S
C299 C298 1.391 . S
H300 C308 0.950 . S
H301 C313 0.950 . S
H302 C310 0.950 . S
H303 C312 0.950 . S
H304 C314 0.950 . S
H305 C316 0.950 . S
H306 C318 0.950 . S
H307 C319 0.950 . S
C308 H300 0.950 . S
C308 C309 1.386 . S
C308 C310 1.391 . S
C309 C308 1.386 . S
C309 C313 1.393 . S
C310 H302 0.950 . S
C310 C308 1.391 . S
C310 C311 1.400 . S
C311 C310 1.400 . S
C311 C312 1.398 . S
C311 C317 1.491 . S
C312 H303 0.950 . S
C312 C311 1.398 . S
C312 C313 1.391 . S
C313 H301 0.950 . S
C313 C309 1.393 . S
C313 C312 1.391 . S
C314 H304 0.950 . S
C314 C315 1.386 . S
C314 C316 1.391 . S
C315 C314 1.386 . S
C315 C319 1.393 . S
C316 H305 0.950 . S
C316 C314 1.391 . S
C316 C317 1.400 . S
C317 C311 1.491 . S
C317 C316 1.400 . S
C317 C318 1.398 . S
C318 H306 0.950 . S
C318 C317 1.398 . S
C318 C319 1.391 . S
C319 H307 0.950 . S
C319 C315 1.393 . S
C319 C318 1.391 . S
H320 C328 0.950 . S
H321 C333 0.950 . S
H322 C330 0.950 . S
H323 C332 0.950 . S
H324 C334 0.950 . S
H325 C336 0.950 . S
H326 C338 0.950 . S
H327 C339 0.950 . S
C328 H320 0.950 . S
C328 C329 1.386 . S
C328 C330 1.391 . S
C329 C328 1.386 . S
C329 C333 1.393 . S
C330 H322 0.950 . S
C330 C328 1.391 . S
C330 C331 1.400 . S
C331 C330 1.400 . S
C331 C332 1.398 . S
C331 C337 1.491 . S
C332 H323 0.950 . S
C332 C331 1.398 . S
C332 C333 1.391 . S
C333 H321 0.950 . S
C333 C329 1.393 . S
C333 C332 1.391 . S
C334 H324 0.950 . S
C334 C335 1.386 . S
C334 C336 1.391 . S
C335 C334 1.386 . S
C335 C339 1.393 . S
C336 H325 0.950 . S
C336 C334 1.391 . S
C336 C337 1.400 . S
C337 C331 1.491 . S
C337 C336 1.400 . S
C337 C338 1.398 . S
C338 H326 0.950 . S
C338 C337 1.398 . S
C338 C339 1.391 . S
C339 H327 0.950 . S
C339 C335 1.393 . S
C339 C338 1.391 . S
H340 C348 0.950 . S
H341 C353 0.950 . S
H342 C350 0.950 . S
H343 C352 0.950 . S
H344 C354 0.950 . S
H345 C356 0.950 . S
H346 C358 0.950 . S
H347 C359 0.950 . S
C348 H340 0.950 . S
C348 C349 1.386 . S
C348 C350 1.391 . S
C349 C348 1.386 . S
C349 C353 1.393 . S
C350 H342 0.950 . S
C350 C348 1.391 . S
C350 C351 1.400 . S
C351 C350 1.400 . S
C351 C352 1.398 . S
C351 C357 1.491 . S
C352 H343 0.950 . S
C352 C351 1.398 . S
C352 C353 1.391 . S
C353 H341 0.950 . S
C353 C349 1.393 . S
C353 C352 1.391 . S
C354 H344 0.950 . S
C354 C355 1.386 . S
C354 C356 1.391 . S
C355 C354 1.386 . S
C355 C359 1.393 . S
C356 H345 0.950 . S
C356 C354 1.391 . S
C356 C357 1.400 . S
C357 C351 1.491 . S
C357 C356 1.400 . S
C357 C358 1.398 . S
C358 H346 0.950 . S
C358 C357 1.398 . S
C358 C359 1.391 . S
C359 H347 0.950 . S
C359 C355 1.393 . S
C359 C358 1.391 . S
C135 C56 1.515 . S
C129 N41 1.515 . S
C149 N2 1.515 . S
C155 C99 1.514 . S
C169 N15 1.512 . S
C175 C65 1.512 . S
C189 N28 1.515 . S
C195 C90 1.510 . S
C215 C52 1.517 . S
C209 N5 1.517 . S
C235 C94 1.516 . S
C229 N14 1.508 . S
C249 N27 1.504 . S
C255 C60 1.516 . S
C269 N44 1.516 . S
C275 C86 1.516 . S
C295 C115 1.517 . S
C289 N18 1.513 . S
C315 C81 1.519 . S
C309 N31 1.512 . S
C335 C103 1.518 . S
C329 N40 1.511 . S
C349 N1 1.513 . S
C355 C69 1.512 . S
