# Generated by pormake.
# Topology pyr, (3,6)-cn, num edge types: 1
# Building blocks:
#     Node 0, Type 0, BuildingBlock: VETTIZ_charged_linker_0, # of connection points: 3
#     Node 1, Type 0, BuildingBlock: VETTIZ_charged_linker_0, # of connection points: 3
#     Node 2, Type 0, BuildingBlock: VETTIZ_charged_linker_0, # of connection points: 3
#     Node 3, Type 0, BuildingBlock: VETTIZ_charged_linker_0, # of connection points: 3
#     Node 4, Type 0, BuildingBlock: VETTIZ_charged_linker_0, # of connection points: 3
#     Node 5, Type 0, BuildingBlock: VETTIZ_charged_linker_0, # of connection points: 3
#     Node 6, Type 0, BuildingBlock: VETTIZ_charged_linker_0, # of connection points: 3
#     Node 7, Type 0, BuildingBlock: VETTIZ_charged_linker_0, # of connection points: 3
#     Node 8, Type 1, BuildingBlock: BETDEL_clean_sbu_0, # of connection points: 6
#     Node 9, Type 1, BuildingBlock: BETDEL_clean_sbu_0, # of connection points: 6
#     Node 10, Type 1, BuildingBlock: BETDEL_clean_sbu_0, # of connection points: 6
#     Node 11, Type 1, BuildingBlock: BETDEL_clean_sbu_0, # of connection points: 6
#     Edge 12, Type (0, 1), BuildingBlock: TEMPAE_clean_linker_10, # of connection points: 2
#     Edge 13, Type (0, 1), BuildingBlock: TEMPAE_clean_linker_10, # of connection points: 2
#     Edge 14, Type (0, 1), BuildingBlock: TEMPAE_clean_linker_10, # of connection points: 2
#     Edge 15, Type (0, 1), BuildingBlock: TEMPAE_clean_linker_10, # of connection points: 2
#     Edge 16, Type (0, 1), BuildingBlock: TEMPAE_clean_linker_10, # of connection points: 2
#     Edge 17, Type (0, 1), BuildingBlock: TEMPAE_clean_linker_10, # of connection points: 2
#     Edge 18, Type (0, 1), BuildingBlock: TEMPAE_clean_linker_10, # of connection points: 2
#     Edge 19, Type (0, 1), BuildingBlock: TEMPAE_clean_linker_10, # of connection points: 2
#     Edge 20, Type (0, 1), BuildingBlock: TEMPAE_clean_linker_10, # of connection points: 2
#     Edge 21, Type (0, 1), BuildingBlock: TEMPAE_clean_linker_10, # of connection points: 2
#     Edge 22, Type (0, 1), BuildingBlock: TEMPAE_clean_linker_10, # of connection points: 2
#     Edge 23, Type (0, 1), BuildingBlock: TEMPAE_clean_linker_10, # of connection points: 2
#     Edge 24, Type (0, 1), BuildingBlock: TEMPAE_clean_linker_10, # of connection points: 2
#     Edge 25, Type (0, 1), BuildingBlock: TEMPAE_clean_linker_10, # of connection points: 2
#     Edge 26, Type (0, 1), BuildingBlock: TEMPAE_clean_linker_10, # of connection points: 2
#     Edge 27, Type (0, 1), BuildingBlock: TEMPAE_clean_linker_10, # of connection points: 2
#     Edge 28, Type (0, 1), BuildingBlock: TEMPAE_clean_linker_10, # of connection points: 2
#     Edge 29, Type (0, 1), BuildingBlock: TEMPAE_clean_linker_10, # of connection points: 2
#     Edge 30, Type (0, 1), BuildingBlock: TEMPAE_clean_linker_10, # of connection points: 2
#     Edge 31, Type (0, 1), BuildingBlock: TEMPAE_clean_linker_10, # of connection points: 2
#     Edge 32, Type (0, 1), BuildingBlock: TEMPAE_clean_linker_10, # of connection points: 2
#     Edge 33, Type (0, 1), BuildingBlock: TEMPAE_clean_linker_10, # of connection points: 2
#     Edge 34, Type (0, 1), BuildingBlock: TEMPAE_clean_linker_10, # of connection points: 2
#     Edge 35, Type (0, 1), BuildingBlock: TEMPAE_clean_linker_10, # of connection points: 2
# Relax obj value: 0.028
# Max RMSD: 0.091
# Mean RMSD: 0.039
data_MOF--net-pyr--node1-BETDEL_clean_sbu_0--node2-VETTIZ_charged_linker_0--edge1-TEMPAE_clean_linker_10
_symmetry_space_group_name_H-M    P1
_symmetry_Int_Tables_number       1
_symmetry_cell_setting            triclinic
loop_
_symmetry_equiv_pos_as_xyz
'x, y, z'
_cell_length_a     45.243337
_cell_length_b     46.849082
_cell_length_c     43.377948
_cell_angle_alpha  91.263353
_cell_angle_beta   88.802781
_cell_angle_gamma 94.324492
loop_
_atom_site_label
_atom_site_type_symbol
_atom_site_fract_x
_atom_site_fract_y
_atom_site_fract_z
_atom_type_partial_charge
C0 C 0.14266 0.14089 0.23264 0.0
C1 C 0.11334 0.14789 0.23826 0.0
C2 C 0.1018 0.16932 0.22081 0.0
C3 C 0.14858 0.17641 0.19276 0.0
C4 C 0.15985 0.15546 0.21002 0.0
C5 C 0.19164 0.15108 0.20171 0.0
H6 H 0.31265 0.18588 0.11243 0.0
C7 C 0.17238 0.18772 0.17161 0.0
C8 C 0.19775 0.17321 0.17693 0.0
H9 H 0.29993 0.11819 0.17881 0.0
H10 H 0.25188 0.13371 0.19276 0.0
H11 H 0.28073 0.23531 0.15287 0.0
H12 H 0.25043 0.17344 0.08345 0.0
H13 H 0.23514 0.20572 0.07543 0.0
H14 H 0.27481 0.20433 0.07469 0.0
H15 H 0.29057 0.23927 0.11281 0.0
H16 H 0.25688 0.25229 0.12894 0.0
C17 C 0.2106 0.15815 0.23061 0.0
C18 C 0.19317 0.12008 0.18879 0.0
C19 C 0.15128 0.26361 0.09543 0.0
C20 C 0.1691 0.27934 0.07397 0.0
C21 C 0.19938 0.27465 0.0709 0.0
C22 C 0.21167 0.25414 0.08879 0.0
C23 C 0.19347 0.23839 0.11007 0.0
C24 C 0.16389 0.24352 0.11331 0.0
C25 C 0.14824 0.22611 0.13823 0.0
C26 C 0.17312 0.20903 0.14887 0.0
C27 C 0.19946 0.21614 0.13219 0.0
C28 C 0.13771 0.2469 0.16384 0.0
C29 C 0.12303 0.2067 0.12324 0.0
C30 C 0.2996 0.17445 0.13009 0.0
C31 C 0.31019 0.15067 0.14438 0.0
C32 C 0.29259 0.13678 0.16763 0.0
C33 C 0.26444 0.14557 0.17541 0.0
C34 C 0.25354 0.16828 0.15958 0.0
C35 C 0.2712 0.18253 0.13762 0.0
C36 C 0.25539 0.20504 0.12184 0.0
C37 C 0.22519 0.20167 0.13768 0.0
C38 C 0.2243 0.18027 0.15989 0.0
C39 C 0.2717 0.2346 0.12917 0.0
C40 C 0.2539 0.19704 0.08698 0.0
H41 H 0.10921 0.19963 0.18545 0.0
H42 H 0.15227 0.12482 0.24607 0.0
H43 H 0.17237 0.11255 0.17688 0.0
H44 H 0.21082 0.1182 0.17102 0.0
H45 H 0.19639 0.1049 0.20753 0.0
H46 H 0.20271 0.17705 0.24344 0.0
H47 H 0.20919 0.13989 0.24662 0.0
H48 H 0.23414 0.16405 0.22496 0.0
H49 H 0.12812 0.26749 0.09891 0.0
H50 H 0.21348 0.28685 0.05466 0.0
H51 H 0.23486 0.25141 0.08544 0.0
H52 H 0.1521 0.26723 0.16461 0.0
H53 H 0.11468 0.25251 0.15995 0.0
H54 H 0.13903 0.2382 0.18723 0.0
H55 H 0.13066 0.19757 0.10081 0.0
H56 H 0.11562 0.18804 0.13726 0.0
H57 H 0.10359 0.21903 0.11872 0.0
H58 H 0.07923 0.17497 0.22476 0.0
C59 C 0.11924 0.18356 0.19802 0.0
C60 C 0.21027 0.85102 0.60978 0.0
C61 C 0.20021 0.87781 0.61836 0.0
C62 C 0.21101 0.89181 0.64537 0.0
C63 C 0.24142 0.85268 0.65482 0.0
C64 C 0.23102 0.83899 0.62819 0.0
C65 C 0.24508 0.81123 0.62196 0.0
H66 H 0.34316 0.71769 0.66506 0.0
C67 C 0.26279 0.83469 0.66869 0.0
C68 C 0.26517 0.81036 0.64952 0.0
H69 H 0.28898 0.71222 0.58391 0.0
H70 H 0.2671 0.75597 0.59975 0.0
H71 H 0.36142 0.78311 0.66164 0.0
H72 H 0.29209 0.73555 0.712 0.0
H73 H 0.30528 0.76353 0.73679 0.0
H74 H 0.33007 0.73726 0.72338 0.0
H75 H 0.36839 0.76251 0.69475 0.0
H76 H 0.35969 0.79938 0.69838 0.0
C77 C 0.26295 0.81385 0.59118 0.0
C78 C 0.22033 0.78656 0.62224 0.0
C79 C 0.31254 0.86697 0.76894 0.0
C80 C 0.3339 0.85507 0.7868 0.0
C81 C 0.34422 0.82847 0.77771 0.0
C82 C 0.33379 0.81412 0.75101 0.0
C83 C 0.31286 0.82651 0.73305 0.0
C84 C 0.30244 0.8524 0.74219 0.0
C85 C 0.28055 0.86243 0.71994 0.0
C86 C 0.2795 0.8382 0.69603 0.0
C87 C 0.29851 0.81734 0.70386 0.0
C88 C 0.29363 0.89113 0.70633 0.0
C89 C 0.25046 0.86422 0.73733 0.0
C90 C 0.3262 0.72555 0.65091 0.0
C91 C 0.31768 0.71135 0.62329 0.0
C92 C 0.29606 0.72285 0.60522 0.0
C93 C 0.28337 0.74822 0.61447 0.0
C94 C 0.29253 0.76235 0.642 0.0
C95 C 0.31346 0.75077 0.65973 0.0
C96 C 0.32098 0.76857 0.68804 0.0
C97 C 0.30127 0.79294 0.68441 0.0
C98 C 0.28464 0.78934 0.65742 0.0
C99 C 0.35436 0.77888 0.68595 0.0
C100 C 0.31192 0.75042 0.71668 0.0
H101 H 0.23873 0.89113 0.68395 0.0
H102 H 0.20257 0.83997 0.58892 0.0
H103 H 0.2037 0.79016 0.64091 0.0
H104 H 0.22867 0.7656 0.62701 0.0
H105 H 0.2085 0.78501 0.60001 0.0
H106 H 0.27356 0.8359 0.58858 0.0
H107 H 0.24836 0.80913 0.57114 0.0
H108 H 0.28147 0.79981 0.58975 0.0
H109 H 0.30448 0.88756 0.77515 0.0
H110 H 0.36047 0.81878 0.79129 0.0
H111 H 0.34269 0.79406 0.74528 0.0
H112 H 0.31826 0.89193 0.70476 0.0
H113 H 0.28756 0.90966 0.72091 0.0
H114 H 0.28669 0.89418 0.68242 0.0
H115 H 0.24647 0.84621 0.75357 0.0
H116 H 0.23129 0.86229 0.72191 0.0
H117 H 0.25002 0.8845 0.75103 0.0
H118 H 0.20337 0.91236 0.65251 0.0
C119 C 0.23145 0.87938 0.66366 0.0
C120 C 0.62493 0.24625 0.89435 0.0
C121 C 0.59973 0.23089 0.88222 0.0
C122 C 0.58673 0.24135 0.85582 0.0
C123 C 0.62342 0.28197 0.85464 0.0
C124 C 0.63634 0.2715 0.88027 0.0
C125 C 0.66312 0.29006 0.89028 0.0
H126 H 0.75683 0.40806 0.87052 0.0
C127 C 0.64055 0.30898 0.84598 0.0
C128 C 0.66387 0.31372 0.86686 0.0
H129 H 0.76096 0.34202 0.93808 0.0
H130 H 0.7165 0.31749 0.91803 0.0
H131 H 0.68881 0.41401 0.87662 0.0
H132 H 0.73876 0.36424 0.81264 0.0
H133 H 0.71262 0.38153 0.79174 0.0
H134 H 0.74038 0.40267 0.81312 0.0
H135 H 0.70756 0.42981 0.84364 0.0
H136 H 0.67008 0.41367 0.8416 0.0
C137 C 0.65704 0.30143 0.92345 0.0
C138 C 0.69055 0.27219 0.88692 0.0
C139 C 0.61002 0.36639 0.75458 0.0
C140 C 0.62089 0.39295 0.74237 0.0
C141 C 0.64506 0.40817 0.75696 0.0
C142 C 0.65849 0.39707 0.78244 0.0
C143 C 0.64765 0.37047 0.79401 0.0
C144 C 0.62353 0.35575 0.78044 0.0
C145 C 0.61423 0.32842 0.797 0.0
C146 C 0.63705 0.32904 0.82235 0.0
C147 C 0.65673 0.35365 0.82023 0.0
C148 C 0.58243 0.33078 0.8102 0.0
C149 C 0.61734 0.30295 0.77414 0.0
C150 C 0.74831 0.38818 0.88082 0.0
C151 C 0.76255 0.37702 0.90597 0.0
C152 C 0.75032 0.35132 0.91897 0.0
C153 C 0.72455 0.33697 0.90713 0.0
C154 C 0.71068 0.34832 0.88192 0.0
C155 C 0.72257 0.37354 0.86923 0.0
C156 C 0.70477 0.38247 0.84262 0.0
C157 C 0.6805 0.35821 0.84115 0.0
C158 C 0.68407 0.33832 0.86426 0.0
C159 C 0.69223 0.41157 0.85125 0.0
C160 C 0.72504 0.383 0.81338 0.0
H161 H 0.58741 0.27359 0.82208 0.0
H162 H 0.6358 0.23862 0.91425 0.0
H163 H 0.68807 0.25649 0.86735 0.0
H164 H 0.71121 0.28536 0.88145 0.0
H165 H 0.6937 0.25998 0.90811 0.0
H166 H 0.63352 0.30658 0.9264 0.0
H167 H 0.66132 0.28524 0.94081 0.0
H168 H 0.67019 0.32161 0.92909 0.0
H169 H 0.59158 0.35393 0.74416 0.0
H170 H 0.6535 0.429 0.74897 0.0
H171 H 0.6768 0.40976 0.79223 0.0
H172 H 0.57929 0.35303 0.81846 0.0
H173 H 0.56561 0.32506 0.79237 0.0
H174 H 0.57749 0.31738 0.83054 0.0
H175 H 0.63772 0.30651 0.7595 0.0
H176 H 0.61973 0.28256 0.78577 0.0
H177 H 0.59809 0.30023 0.75858 0.0
H178 H 0.56719 0.23009 0.84609 0.0
C179 C 0.59839 0.26675 0.84202 0.0
C180 C 0.89346 0.7574 0.366 0.0
C181 C 0.88219 0.77344 0.39085 0.0
C182 C 0.85618 0.76252 0.40636 0.0
C183 C 0.85324 0.72046 0.37262 0.0
C184 C 0.87866 0.73113 0.3573 0.0
C185 C 0.8876 0.71142 0.3314 0.0
H186 H 0.86007 0.58888 0.24713 0.0
C187 C 0.84344 0.69254 0.35809 0.0
C188 C 0.86348 0.68712 0.33387 0.0
H189 H 0.93258 0.65355 0.23592 0.0
H190 H 0.91417 0.6805 0.27939 0.0
H191 H 0.86399 0.58627 0.31913 0.0
H192 H 0.80816 0.63316 0.26265 0.0
H193 H 0.78612 0.61676 0.29221 0.0
H194 H 0.80512 0.59481 0.26488 0.0
H195 H 0.83178 0.56928 0.30103 0.0
H196 H 0.8296 0.58664 0.33852 0.0
C197 C 0.91859 0.70146 0.33845 0.0
C198 C 0.88613 0.72756 0.30075 0.0
C199 C 0.75124 0.63589 0.39949 0.0
C200 C 0.73721 0.60898 0.39159 0.0
C201 C 0.7493 0.59282 0.36728 0.0
C202 C 0.77473 0.6034 0.3509 0.0
C203 C 0.78845 0.6304 0.35898 0.0
C204 C 0.7768 0.64603 0.38311 0.0
C205 C 0.79483 0.67384 0.38915 0.0
C206 C 0.81911 0.67242 0.36457 0.0
C207 C 0.81514 0.64704 0.3468 0.0
C208 C 0.80723 0.67319 0.42216 0.0
C209 C 0.77488 0.69866 0.38373 0.0
C210 C 0.87177 0.609 0.2539 0.0
C211 C 0.89772 0.6192 0.23798 0.0
C212 C 0.91265 0.64518 0.24791 0.0
C213 C 0.90184 0.66085 0.27309 0.0
C214 C 0.87585 0.65043 0.28875 0.0
C215 C 0.8614 0.62479 0.27921 0.0
C216 C 0.8347 0.61653 0.29927 0.0
C217 C 0.83518 0.64169 0.32202 0.0
C218 C 0.85926 0.66156 0.31567 0.0
C219 C 0.83997 0.58812 0.31526 0.0
C220 C 0.80694 0.615 0.27885 0.0
H221 H 0.8221 0.72915 0.41027 0.0
H222 H 0.91322 0.76524 0.35337 0.0
H223 H 0.86686 0.74098 0.30105 0.0
H224 H 0.88282 0.71309 0.28049 0.0
H225 H 0.90648 0.74194 0.2969 0.0
H226 H 0.92115 0.69886 0.36367 0.0
H227 H 0.9365 0.71729 0.33049 0.0
H228 H 0.92236 0.68025 0.32813 0.0
H229 H 0.74272 0.64865 0.41834 0.0
H230 H 0.73877 0.57213 0.36063 0.0
H231 H 0.78269 0.59017 0.3325 0.0
H232 H 0.81235 0.65113 0.42811 0.0
H233 H 0.79097 0.68044 0.43962 0.0
H234 H 0.82844 0.68622 0.42477 0.0
H235 H 0.7599 0.69347 0.36403 0.0
H236 H 0.78759 0.71878 0.37738 0.0
H237 H 0.76078 0.70272 0.40439 0.0
H238 H 0.84722 0.77413 0.42584 0.0
C239 C 0.8417 0.73623 0.3974 0.0
C240 C 0.79492 0.7095 0.8807 0.0
C241 C 0.82041 0.69534 0.87297 0.0
C242 C 0.83527 0.701 0.84466 0.0
C243 C 0.80205 0.73754 0.83446 0.0
C244 C 0.78598 0.73033 0.86095 0.0
C245 C 0.75999 0.74823 0.8659 0.0
H246 H 0.69626 0.86926 0.83535 0.0
C247 C 0.78938 0.7624 0.82109 0.0
C248 C 0.76427 0.7684 0.83891 0.0
H249 H 0.6662 0.80362 0.89993 0.0
H250 H 0.70419 0.77399 0.88096 0.0
H251 H 0.70304 0.82604 0.77868 0.0
H252 H 0.76609 0.86483 0.84278 0.0
H253 H 0.7814 0.86819 0.80529 0.0
H254 H 0.7476 0.88442 0.81476 0.0
H255 H 0.71931 0.86179 0.77377 0.0
H256 H 0.73674 0.83105 0.758 0.0
C257 C 0.73103 0.72844 0.86341 0.0
C258 C 0.76367 0.76427 0.89736 0.0
C259 C 0.84914 0.81973 0.7403 0.0
C260 C 0.84498 0.84572 0.7261 0.0
C261 C 0.81835 0.85893 0.73165 0.0
C262 C 0.79672 0.84704 0.75211 0.0
C263 C 0.80186 0.82178 0.76734 0.0
C264 C 0.82731 0.80813 0.76068 0.0
C265 C 0.82875 0.78124 0.77863 0.0
C266 C 0.80014 0.78131 0.79762 0.0
C267 C 0.78481 0.80538 0.79127 0.0
C268 C 0.82858 0.7554 0.75562 0.0
C269 C 0.8566 0.78509 0.79897 0.0
C270 C 0.69748 0.84835 0.84517 0.0
C271 C 0.67853 0.83913 0.8697 0.0
C272 C 0.68105 0.81167 0.88168 0.0
C273 C 0.70302 0.7944 0.87056 0.0
C274 C 0.72275 0.80464 0.84726 0.0
C275 C 0.71914 0.83071 0.8342 0.0
C276 C 0.74134 0.83749 0.80865 0.0
C277 C 0.75919 0.81133 0.80896 0.0
C278 C 0.74861 0.79254 0.83214 0.0
C279 C 0.72442 0.83943 0.77813 0.0
C280 C 0.76012 0.86524 0.81804 0.0
H281 H 0.83883 0.72592 0.8045 0.0
H282 H 0.78279 0.70502 0.90205 0.0
H283 H 0.78664 0.77431 0.89949 0.0
H284 H 0.7489 0.78176 0.90061 0.0
H285 H 0.75941 0.74931 0.91674 0.0
H286 H 0.73466 0.70829 0.85028 0.0
H287 H 0.72202 0.72234 0.88655 0.0
H288 H 0.71375 0.73844 0.85053 0.0
H289 H 0.86918 0.80888 0.73595 0.0
H290 H 0.8147 0.87902 0.72097 0.0
H291 H 0.77721 0.85838 0.7559 0.0
H292 H 0.81844 0.76028 0.73337 0.0
H293 H 0.85143 0.7493 0.75035 0.0
H294 H 0.81495 0.73649 0.76421 0.0
H295 H 0.85804 0.80656 0.81057 0.0
H296 H 0.85663 0.76959 0.81765 0.0
H297 H 0.87714 0.78333 0.78479 0.0
H298 H 0.85495 0.69026 0.83825 0.0
C299 C 0.82611 0.72192 0.82528 0.0
C300 C 0.81186 0.17085 0.40057 0.0
C301 C 0.82291 0.1444 0.39249 0.0
C302 C 0.81524 0.13109 0.36408 0.0
C303 C 0.78509 0.16988 0.35253 0.0
C304 C 0.79273 0.18304 0.38039 0.0
C305 C 0.7772 0.21007 0.38605 0.0
H306 H 0.6756 0.29861 0.33973 0.0
C307 C 0.76396 0.18731 0.33747 0.0
C308 C 0.75907 0.21088 0.357 0.0
H309 H 0.72663 0.30566 0.4231 0.0
H310 H 0.75215 0.26407 0.40717 0.0
H311 H 0.66109 0.23394 0.34083 0.0
H312 H 0.73125 0.28368 0.29393 0.0
H313 H 0.71777 0.25675 0.26792 0.0
H314 H 0.69322 0.28262 0.28272 0.0
H315 H 0.65495 0.25253 0.30611 0.0
H316 H 0.66635 0.21642 0.30524 0.0
C317 C 0.75729 0.20609 0.41536 0.0
C318 C 0.80098 0.23554 0.38812 0.0
C319 C 0.72041 0.15381 0.23465 0.0
C320 C 0.69775 0.16359 0.21674 0.0
C321 C 0.68511 0.18916 0.22597 0.0
C322 C 0.69436 0.20428 0.25267 0.0
C323 C 0.71621 0.19364 0.27082 0.0
C324 C 0.72894 0.16888 0.26165 0.0
C325 C 0.75054 0.15985 0.28478 0.0
C326 C 0.74885 0.18349 0.30916 0.0
C327 C 0.72881 0.20321 0.30077 0.0
C328 C 0.73886 0.13016 0.29717 0.0
C329 C 0.78156 0.16043 0.26895 0.0
C330 C 0.69265 0.29158 0.35435 0.0
C331 C 0.69908 0.30551 0.38271 0.0
C332 C 0.72101 0.29515 0.40129 0.0
C333 C 0.73584 0.27103 0.39197 0.0
C334 C 0.72857 0.25697 0.36386 0.0
C335 C 0.70755 0.26758 0.34545 0.0
C336 C 0.70232 0.24997 0.31649 0.0
C337 C 0.72357 0.22689 0.32052 0.0
C338 C 0.73881 0.23092 0.34836 0.0
C339 C 0.66949 0.23764 0.31684 0.0
C340 C 0.71135 0.26911 0.28864 0.0
H341 H 0.79159 0.13254 0.3227 0.0
H342 H 0.81728 0.18133 0.42246 0.0
H343 H 0.81941 0.23265 0.37121 0.0
H344 H 0.79236 0.25614 0.38232 0.0
H345 H 0.81065 0.23743 0.41147 0.0
H346 H 0.747 0.18379 0.41642 0.0
H347 H 0.77038 0.21035 0.43658 0.0
H348 H 0.73845 0.21973 0.41596 0.0
H349 H 0.73087 0.13443 0.22831 0.0
H350 H 0.66718 0.19703 0.21325 0.0
H351 H 0.6835 0.22328 0.25856 0.0
H352 H 0.71432 0.1268 0.29558 0.0
H353 H 0.74852 0.11248 0.28386 0.0
H354 H 0.7432 0.12784 0.32194 0.0
H355 H 0.78545 0.17955 0.25423 0.0
H356 H 0.79984 0.16207 0.28551 0.0
H357 H 0.78364 0.14113 0.25396 0.0
H358 H 0.82375 0.11079 0.35745 0.0
C359 C 0.79659 0.14377 0.34397 0.0
C360 C 0.39995 0.64476 0.25892 0.0
C361 C 0.38599 0.62086 0.27411 0.0
C362 C 0.35762 0.61013 0.2643 0.0
C363 C 0.35853 0.64542 0.22413 0.0
C364 C 0.38579 0.65674 0.23428 0.0
C365 C 0.3971 0.68258 0.21617 0.0
H366 H 0.37864 0.77256 0.09843 0.0
C367 C 0.3504 0.66196 0.19728 0.0
C368 C 0.37289 0.68388 0.19253 0.0
H369 H 0.44746 0.77898 0.1664 0.0
H370 H 0.42637 0.73559 0.18998 0.0
H371 H 0.32405 0.75402 0.14639 0.0
H372 H 0.37961 0.70704 0.0853 0.0
H373 H 0.3454 0.68677 0.0871 0.0
H374 H 0.34734 0.72242 0.07169 0.0
H375 H 0.32415 0.75605 0.10507 0.0
H376 H 0.30156 0.72883 0.12485 0.0
C377 C 0.39867 0.70904 0.23835 0.0
C378 C 0.42716 0.67636 0.20077 0.0
C379 C 0.25588 0.63225 0.13905 0.0
C380 C 0.24451 0.64083 0.11088 0.0
C381 C 0.26097 0.66262 0.09441 0.0
C382 C 0.28731 0.676 0.10599 0.0
C383 C 0.29802 0.66733 0.13416 0.0
C384 C 0.28276 0.64532 0.14981 0.0
C385 C 0.29907 0.6371 0.17784 0.0
C386 C 0.32615 0.65839 0.17683 0.0
C387 C 0.32507 0.67639 0.15149 0.0
C388 C 0.27923 0.64204 0.2067 0.0
C389 C 0.3074 0.60579 0.17296 0.0
C390 C 0.3893 0.76452 0.11825 0.0
C391 C 0.41471 0.77934 0.13058 0.0
C392 C 0.42766 0.76822 0.15665 0.0
C393 C 0.41541 0.74298 0.1703 0.0
C394 C 0.38975 0.72867 0.15796 0.0
C395 C 0.37717 0.73951 0.13233 0.0
C396 C 0.34972 0.72178 0.12256 0.0
C397 C 0.34739 0.699 0.14707 0.0
C398 C 0.37104 0.70293 0.16761 0.0
C399 C 0.32336 0.74104 0.12459 0.0
C400 C 0.35554 0.70891 0.08992 0.0
H401 H 0.32248 0.61283 0.23321 0.0
H402 H 0.42164 0.65378 0.26566 0.0
H403 H 0.426 0.65436 0.19047 0.0
H404 H 0.43359 0.69084 0.18166 0.0
H405 H 0.44515 0.67795 0.2179 0.0
H406 H 0.38167 0.70655 0.25721 0.0
H407 H 0.4207 0.71228 0.24925 0.0
H408 H 0.39376 0.7289 0.22682 0.0
H409 H 0.24425 0.61575 0.15268 0.0
H410 H 0.25387 0.66921 0.07217 0.0
H411 H 0.29848 0.69247 0.09236 0.0
H412 H 0.26736 0.66182 0.20446 0.0
H413 H 0.26228 0.62387 0.20987 0.0
H414 H 0.29201 0.64538 0.22806 0.0
H415 H 0.31215 0.60104 0.14818 0.0
H416 H 0.32786 0.60132 0.18479 0.0
H417 H 0.28904 0.59032 0.18063 0.0
H418 H 0.3457 0.59247 0.27598 0.0
C419 C 0.34396 0.62215 0.23947 0.0
C420 C 0.11245 0.26225 0.64486 0.0
C421 C 0.12569 0.24402 0.6231 0.0
C422 C 0.15468 0.25219 0.61213 0.0
C423 C 0.15565 0.29632 0.64238 0.0
C424 C 0.12797 0.2879 0.65448 0.0
C425 C 0.11804 0.30881 0.67879 0.0
H426 H 0.14733 0.4311 0.76335 0.0
C427 C 0.16553 0.32433 0.6565 0.0
C428 C 0.14384 0.33161 0.6783 0.0
H429 H 0.07139 0.36981 0.77119 0.0
H430 H 0.0902 0.34192 0.72859 0.0
H431 H 0.14614 0.43345 0.69102 0.0
H432 H 0.19809 0.38516 0.75017 0.0
H433 H 0.22152 0.40179 0.72171 0.0
H434 H 0.20146 0.42354 0.74826 0.0
H435 H 0.17903 0.44929 0.70878 0.0
H436 H 0.18041 0.43051 0.672 0.0
C437 C 0.089 0.32068 0.66812 0.0
C438 C 0.11516 0.29319 0.70996 0.0
C439 C 0.25986 0.37807 0.61641 0.0
C440 C 0.2737 0.40532 0.6231 0.0
C441 C 0.26119 0.42252 0.64627 0.0
C442 C 0.2354 0.41268 0.66257 0.0
C443 C 0.22174 0.38542 0.65549 0.0
C444 C 0.23394 0.3687 0.63261 0.0
C445 C 0.21602 0.3407 0.6275 0.0
C446 C 0.19078 0.34352 0.65075 0.0
C447 C 0.19439 0.3696 0.66733 0.0
C448 C 0.20507 0.33973 0.59387 0.0
C449 C 0.23545 0.31605 0.63544 0.0
C450 C 0.13497 0.4115 0.75605 0.0
C451 C 0.10802 0.40246 0.77085 0.0
C452 C 0.09218 0.37722 0.76015 0.0
C453 C 0.10323 0.36097 0.73553 0.0
C454 C 0.1304 0.37005 0.72125 0.0
C455 C 0.14559 0.39515 0.73128 0.0
C456 C 0.17339 0.40217 0.71239 0.0
C457 C 0.17313 0.37645 0.69041 0.0
C458 C 0.1479 0.35765 0.69573 0.0
C459 C 0.16986 0.43038 0.69523 0.0
C460 C 0.20017 0.40344 0.73413 0.0
H461 H 0.1913 0.28307 0.61187 0.0
H462 H 0.09038 0.25699 0.65414 0.0
H463 H 0.13178 0.27696 0.71138 0.0
H464 H 0.11966 0.30768 0.73001 0.0
H465 H 0.09284 0.28188 0.71294 0.0
H466 H 0.09021 0.32494 0.64298 0.0
H467 H 0.06966 0.30513 0.67239 0.0
H468 H 0.08468 0.34135 0.67937 0.0
H469 H 0.26875 0.36447 0.59852 0.0
H470 H 0.27159 0.44349 0.65202 0.0
H471 H 0.22709 0.42667 0.68008 0.0
H472 H 0.19699 0.36069 0.58774 0.0
H473 H 0.22328 0.33507 0.57737 0.0
H474 H 0.18623 0.32384 0.58994 0.0
H475 H 0.25279 0.32324 0.65233 0.0
H476 H 0.22253 0.29806 0.64678 0.0
H477 H 0.24692 0.30782 0.61455 0.0
H478 H 0.16628 0.23838 0.59649 0.0
C479 C 0.1695 0.27817 0.62139 0.0
Dy480 Dy 0.01674 0.01874 0.47816 0.0
C481 C 0.9826 0.96523 0.59216 0.0
C482 C 0.03145 0.04906 0.42655 0.0
Dy483 Dy 0.9946 0.99702 0.54101 0.0
O484 O 0.04956 0.04415 0.44826 0.0
O485 O 0.00522 0.03727 0.43288 0.0
O486 O 0.04955 0.98509 0.47548 0.0
O487 O 0.03779 1.00273 0.51854 0.0
C488 C 0.05193 0.98373 0.50518 0.0
C489 C 0.95825 0.0308 0.51366 0.0
O490 O 0.02589 0.03388 0.55524 0.0
O491 O 0.02081 0.05771 0.50974 0.0
O492 O 0.97561 0.99135 0.58888 0.0
O493 O 0.99664 0.95668 0.56767 0.0
O494 O 0.95965 0.02886 0.54338 0.0
O495 O 0.97353 0.01253 0.50067 0.0
O496 O 0.9909 0.97907 0.46136 0.0
O497 O 0.98212 0.9592 0.50965 0.0
C498 C 0.02843 0.05764 0.5391 0.0
C499 C 0.98113 0.95748 0.47907 0.0
Dy500 Dy 0.53175 0.01693 0.03035 0.0
C501 C 0.43715 0.96917 0.9559 0.0
C502 C 0.57303 0.04682 0.06567 0.0
Dy503 Dy 0.48014 0.99763 0.99043 0.0
O504 O 0.54841 0.03419 0.07588 0.0
O505 O 0.57541 0.04299 0.03602 0.0
O506 O 0.53455 0.97229 0.04702 0.0
O507 O 0.49305 0.98638 0.03644 0.0
C508 C 0.50651 0.96499 0.0439 0.0
C509 C 0.50598 0.04959 0.97706 0.0
O510 O 0.45571 0.01636 0.0298 0.0
O511 O 0.49623 0.04596 0.04479 0.0
O512 O 0.44895 0.99472 0.95077 0.0
O513 O 0.44866 0.95909 0.98018 0.0
O514 O 0.47773 0.04282 0.97505 0.0
O515 O 0.51913 0.02794 0.98422 0.0
O516 O 0.55697 0.99462 0.99368 0.0
O517 O 0.51558 0.9709 0.97148 0.0
C518 C 0.46737 0.03861 0.0458 0.0
C519 C 0.54465 0.97502 0.97454 0.0
Dy520 Dy 0.5174 0.48151 0.48451 0.0
C521 C 0.45397 0.56154 0.55645 0.0
C522 C 0.55713 0.44919 0.45472 0.0
Dy523 Dy 0.49319 0.52843 0.52697 0.0
O524 O 0.52856 0.44322 0.45543 0.0
O525 O 0.5638 0.47288 0.46994 0.0
O526 O 0.47157 0.45902 0.48198 0.0
O527 O 0.48477 0.48253 0.52173 0.0
C528 C 0.46321 0.46908 0.50874 0.0
C529 C 0.54745 0.54076 0.50281 0.0
O530 O 0.51174 0.50243 0.56367 0.0
O531 O 0.53788 0.47329 0.53043 0.0
O532 O 0.4824 0.56793 0.55416 0.0
O533 O 0.44717 0.53693 0.54313 0.0
O534 O 0.53904 0.55077 0.52955 0.0
O535 O 0.52584 0.52745 0.48974 0.0
O536 O 0.49969 0.50842 0.44808 0.0
O537 O 0.47132 0.53526 0.48144 0.0
C538 C 0.53109 0.48279 0.55867 0.0
C539 C 0.47908 0.5268 0.45313 0.0
Dy540 Dy 0.01595 0.48414 0.01454 0.0
C541 C 0.9563 0.5831 0.98797 0.0
C542 C 0.04946 0.43876 0.01965 0.0
Dy543 Dy 0.99193 0.53952 0.9947 0.0
O544 O 0.03009 0.44648 0.04007 0.0
O545 O 0.05049 0.45576 0.99643 0.0
O546 O 0.98537 0.48275 0.0562 0.0
O547 O 1.00198 0.5223 0.03884 0.0
C548 C 0.98416 0.51037 0.05809 0.0
C549 C 0.02273 0.51265 0.95065 0.0
O550 O 0.0316 0.55774 0.02057 0.0
O551 O 0.05596 0.51591 0.01823 0.0
O552 O 0.98218 0.58155 0.97471 0.0
O553 O 0.95026 0.56114 0.0053 0.0
O554 O 0.02166 0.54028 0.95226 0.0
O555 O 0.00521 0.50121 0.97044 0.0
O556 O 0.97445 0.46511 0.99261 0.0
O557 O 0.95204 0.50788 0.99004 0.0
C558 C 0.05593 0.54396 0.02322 0.0
C559 C 0.95089 0.47951 0.98775 0.0
C560 C 0.08051 0.14978 0.28515 0.0
C561 C 0.09546 0.13356 0.26315 0.0
C562 C 0.06655 0.1368 0.31098 0.0
C563 C 0.06754 0.10695 0.31467 0.0
C564 C 0.08116 0.09027 0.29161 0.0
C565 C 0.09507 0.10382 0.26614 0.0
C566 C 0.0523 0.15526 0.33516 0.0
C567 C 0.0824 0.05833 0.2946 0.0
C568 C 0.06877 0.07756 0.39506 0.0
C569 C 0.03986 0.06504 0.39855 0.0
C570 C 0.07777 0.0919 0.36811 0.0
C571 C 0.05734 0.09358 0.34405 0.0
C572 C 0.02788 0.08148 0.34771 0.0
C573 C 0.01944 0.06734 0.37507 0.0
C574 C 0.10933 0.10473 0.36514 0.0
C575 C 0.00557 0.08288 0.3225 0.0
H576 H 0.08096 0.17282 0.28295 0.0
H577 H 0.10626 0.09124 0.24887 0.0
H578 H 0.0299 0.14575 0.34168 0.0
H579 H 0.06581 0.1564 0.35627 0.0
H580 H 0.05033 0.17739 0.32717 0.0
H581 H 0.09114 0.04813 0.27327 0.0
H582 H 0.09694 0.05393 0.31396 0.0
H583 H 0.06003 0.04812 0.29999 0.0
H584 H 0.08451 0.0759 0.41333 0.0
H585 H 0.99702 0.0577 0.37787 0.0
H586 H 0.10957 0.12776 0.35965 0.0
H587 H 0.12092 0.09396 0.34586 0.0
H588 H 0.12201 0.10262 0.38653 0.0
H589 H 0.00416 0.10536 0.31551 0.0
H590 H 0.98311 0.07395 0.32973 0.0
H591 H 0.01286 0.07068 0.30186 0.0
C592 C 0.37716 0.87354 0.81801 0.0
C593 C 0.34641 0.87082 0.81408 0.0
C594 C 0.38963 0.88915 0.84305 0.0
C595 C 0.37086 0.90222 0.86477 0.0
C596 C 0.33974 0.89915 0.86125 0.0
C597 C 0.32786 0.88357 0.83578 0.0
C598 C 0.42296 0.89222 0.84581 0.0
C599 C 0.31908 0.91261 0.88412 0.0
C600 C 0.40774 0.9242 0.94023 0.0
C601 C 0.41679 0.95292 0.93481 0.0
C602 C 0.39138 0.90765 0.91822 0.0
C603 C 0.38415 0.92023 0.89022 0.0
C604 C 0.39206 0.94961 0.88537 0.0
C605 C 0.40825 0.96563 0.9078 0.0
C606 C 0.38309 0.87644 0.92427 0.0
C607 C 0.38482 0.96378 0.85579 0.0
H608 H 0.39157 0.86403 0.80102 0.0
H609 H 0.30405 0.88126 0.83289 0.0
H610 H 0.43101 0.91513 0.84441 0.0
H611 H 0.42945 0.88461 0.86856 0.0
H612 H 0.43436 0.88002 0.82745 0.0
H613 H 0.29539 0.90699 0.87893 0.0
H614 H 0.32339 0.90564 0.90778 0.0
H615 H 0.32321 0.93625 0.88398 0.0
H616 H 0.41429 0.9144 0.9612 0.0
H617 H 0.41517 0.9879 0.90364 0.0
H618 H 0.3961 0.86298 0.90852 0.0
H619 H 0.3593 0.87104 0.91952 0.0
H620 H 0.38743 0.87077 0.94841 0.0
H621 H 0.39743 0.95449 0.83629 0.0
H622 H 0.3904 0.98729 0.8567 0.0
H623 H 0.36091 0.95972 0.85077 0.0
C624 C 0.62494 0.42118 0.69341 0.0
C625 C 0.60725 0.40506 0.71478 0.0
C626 C 0.61248 0.43389 0.66818 0.0
C627 C 0.58157 0.42987 0.66351 0.0
C628 C 0.56361 0.41307 0.68443 0.0
C629 C 0.57658 0.40113 0.70992 0.0
C630 C 0.63244 0.45186 0.64664 0.0
C631 C 0.53063 0.40782 0.67998 0.0
C632 C 0.54507 0.48341 0.61443 0.0
C633 C 0.54406 0.4694 0.58551 0.0
C634 C 0.55726 0.47085 0.63997 0.0
C635 C 0.56813 0.44332 0.63672 0.0
C636 C 0.56677 0.42891 0.60767 0.0
C637 C 0.55507 0.44224 0.58239 0.0
C638 C 0.55887 0.4872 0.67034 0.0
C639 C 0.57755 0.39933 0.60332 0.0
H640 H 0.64872 0.42387 0.69627 0.0
H641 H 0.56251 0.3891 0.72631 0.0
H642 H 0.63141 0.44248 0.62296 0.0
H643 H 0.62473 0.47374 0.6456 0.0
H644 H 0.65591 0.45356 0.65393 0.0
H645 H 0.51993 0.39327 0.6975 0.0
H646 H 0.52005 0.42843 0.68139 0.0
H647 H 0.52622 0.39834 0.65671 0.0
H648 H 0.53673 0.50444 0.61702 0.0
H649 H 0.55411 0.4311 0.56022 0.0
H650 H 0.58227 0.49045 0.67762 0.0
H651 H 0.54649 0.47469 0.6885 0.0
H652 H 0.54962 0.50844 0.66905 0.0
H653 H 0.60155 0.39987 0.60823 0.0
H654 H 0.574 0.39061 0.57955 0.0
H655 H 0.56584 0.38445 0.61986 0.0
C656 C 0.89045 0.59224 0.18772 0.0
C657 C 0.90938 0.60277 0.21124 0.0
C658 C 0.90134 0.57712 0.16208 0.0
C659 C 0.9318 0.57202 0.16014 0.0
C660 C 0.95093 0.58236 0.18401 0.0
C661 C 0.93953 0.59777 0.20914 0.0
C662 C 0.88033 0.56686 0.13689 0.0
C663 C 0.98345 0.57706 0.18306 0.0
C664 C 0.9566 0.51103 0.10867 0.0
C665 C 0.96937 0.52586 0.08341 0.0
C666 C 0.94403 0.52575 0.13369 0.0
C667 C 0.9438 0.55597 0.13315 0.0
C668 C 0.95593 0.57093 0.10724 0.0
C669 C 0.96881 0.55571 0.08282 0.0
C670 C 0.93164 0.50903 0.16101 0.0
C671 C 0.95571 0.60306 0.10549 0.0
H672 H 0.86719 0.59631 0.18912 0.0
H673 H 0.95416 0.6056 0.22743 0.0
H674 H 0.88807 0.57623 0.1146 0.0
H675 H 0.88005 0.54326 0.13406 0.0
H676 H 0.85733 0.57272 0.14176 0.0
H677 H 0.99523 0.58605 0.20372 0.0
H678 H 0.98609 0.55371 0.18148 0.0
H679 H 0.99429 0.58678 0.16222 0.0
H680 H 0.95704 0.48794 0.10922 0.0
H681 H 0.97863 0.56725 0.06329 0.0
H682 H 0.90814 0.51337 0.16536 0.0
H683 H 0.94405 0.51602 0.18199 0.0
H684 H 0.93295 0.48559 0.15759 0.0
H685 H 0.93285 0.60965 0.10929 0.0
H686 H 0.96426 0.61124 0.0829 0.0
H687 H 0.96958 0.61342 0.12398 0.0
C688 C 0.35668 0.12591 0.15286 0.0
C689 C 0.33775 0.13845 0.13274 0.0
C690 C 0.38059 0.11114 0.14143 0.0
C691 C 0.38578 0.10917 0.1092 0.0
C692 C 0.36777 0.12309 0.08892 0.0
C693 C 0.34385 0.13733 0.10089 0.0
C694 C 0.39935 0.09646 0.16371 0.0
C695 C 0.37274 0.12166 0.05438 0.0
C696 C 0.45687 0.08405 0.0738 0.0
C697 C 0.44755 0.05603 0.06441 0.0
C698 C 0.43732 0.10142 0.08953 0.0
C699 C 0.408 0.0903 0.09623 0.0
C700 C 0.39895 0.06161 0.08803 0.0
C701 C 0.4188 0.04488 0.07204 0.0
C702 C 0.44761 0.132 0.0977 0.0
C703 C 0.36794 0.04888 0.09512 0.0
H704 H 0.3524 0.12706 0.17751 0.0
H705 H 0.32912 0.14644 0.08505 0.0
H706 H 0.39515 0.07291 0.16095 0.0
H707 H 0.42325 0.10175 0.15869 0.0
H708 H 0.39447 0.10255 0.18809 0.0
H709 H 0.35878 0.13608 0.04208 0.0
H710 H 0.39635 0.12753 0.0484 0.0
H711 H 0.36742 0.09942 0.04578 0.0
H712 H 0.47911 0.09275 0.06795 0.0
H713 H 0.41163 0.02309 0.0652 0.0
H714 H 0.44217 0.13696 0.1222 0.0
H715 H 0.43582 0.14672 0.08343 0.0
H716 H 0.47185 0.13645 0.09377 0.0
H717 H 0.3623 0.05219 0.11989 0.0
H718 H 0.36523 0.02559 0.0895 0.0
H719 H 0.35175 0.05984 0.08162 0.0
C720 C 0.18386 0.92014 0.59123 0.0
C721 C 0.17856 0.89142 0.59941 0.0
C722 C 0.16294 0.93394 0.57477 0.0
C723 C 0.13588 0.91873 0.56667 0.0
C724 C 0.13059 0.88957 0.57449 0.0
C725 C 0.15214 0.87617 0.5906 0.0
C726 C 0.16961 0.96493 0.56643 0.0
C727 C 0.10186 0.87278 0.56656 0.0
C728 C 0.07231 0.96506 0.55305 0.0
C729 C 0.07219 0.96579 0.5208 0.0
C730 C 0.09226 0.94897 0.56828 0.0
C731 C 0.11291 0.93372 0.55078 0.0
C732 C 0.11254 0.93406 0.51815 0.0
C733 C 0.09199 0.94994 0.50354 0.0
C734 C 0.09165 0.94881 0.60309 0.0
C735 C 0.13442 0.91834 0.49873 0.0
H736 H 0.20445 0.93184 0.59776 0.0
H737 H 0.14797 0.85401 0.59715 0.0
H738 H 0.16751 0.96743 0.54121 0.0
H739 H 0.1533 0.97829 0.57804 0.0
H740 H 0.19224 0.97327 0.5732 0.0
H741 H 0.10156 0.85006 0.57344 0.0
H742 H 0.08306 0.88269 0.57836 0.0
H743 H 0.09811 0.87341 0.5414 0.0
H744 H 0.05695 0.97726 0.56644 0.0
H745 H 0.0919 0.95049 0.47857 0.0
H746 H 0.11257 0.95953 0.61194 0.0
H747 H 0.09009 0.92647 0.61131 0.0
H748 H 0.07275 0.95993 0.61317 0.0
H749 H 0.15729 0.92747 0.50335 0.0
H750 H 0.13038 0.91974 0.47365 0.0
H751 H 0.13328 0.89544 0.50495 0.0
C752 C 0.81247 0.40359 0.89861 0.0
C753 C 0.79012 0.39193 0.91855 0.0
C754 C 0.83868 0.4175 0.91015 0.0
C755 C 0.84269 0.41985 0.94243 0.0
C756 C 0.82023 0.40814 0.96268 0.0
C757 C 0.79425 0.39434 0.95051 0.0
C758 C 0.86212 0.42964 0.88778 0.0
C759 C 0.82358 0.41034 0.99723 0.0
C760 C 0.92137 0.43424 0.97159 0.0
C761 C 0.92291 0.46391 0.97736 0.0
C762 C 0.89535 0.41958 0.96045 0.0
C763 C 0.87022 0.43492 0.95499 0.0
C764 C 0.8715 0.46478 0.96115 0.0
C765 C 0.89777 0.47889 0.97224 0.0
C766 C 0.89485 0.38772 0.95418 0.0
C767 C 0.8452 0.48194 0.9557 0.0
H768 H 0.80966 0.40149 0.87389 0.0
H769 H 0.77694 0.38574 0.96609 0.0
H770 H 0.86628 0.45303 0.89202 0.0
H771 H 0.8833 0.41982 0.89138 0.0
H772 H 0.85567 0.42592 0.86336 0.0
H773 H 0.80426 0.39978 0.00983 0.0
H774 H 0.84388 0.40034 1.00398 0.0
H775 H 0.82617 0.43317 0.00471 0.0
H776 H 0.94062 0.42244 0.97541 0.0
H777 H 0.89861 0.50179 0.97665 0.0
H778 H 0.89056 0.38302 0.92943 0.0
H779 H 0.87657 0.37647 0.96764 0.0
H780 H 0.91604 0.37883 0.96015 0.0
H781 H 0.83927 0.48034 0.931 0.0
H782 H 0.8496 0.50492 0.96219 0.0
H783 H 0.82566 0.47308 0.9692 0.0
C784 C 0.6866 0.61564 0.41382 0.0
C785 C 0.7099 0.59794 0.40842 0.0
C786 C 0.66049 0.60551 0.42937 0.0
C787 C 0.65774 0.57711 0.44022 0.0
C788 C 0.68129 0.55919 0.43504 0.0
C789 C 0.70701 0.56977 0.41901 0.0
C790 C 0.63569 0.62514 0.4339 0.0
C791 C 0.67937 0.52892 0.4466 0.0
C792 C 0.59983 0.56196 0.50386 0.0
C793 C 0.57619 0.54867 0.48727 0.0
C794 C 0.62684 0.57058 0.48899 0.0
C795 C 0.63005 0.5662 0.4567 0.0
C796 C 0.60632 0.55239 0.43995 0.0
C797 C 0.57977 0.54359 0.45549 0.0
C798 C 0.6518 0.58474 0.50775 0.0
C799 C 0.60868 0.54758 0.40547 0.0
H800 H 0.68861 0.63731 0.40536 0.0
H801 H 0.72509 0.55611 0.41513 0.0
H802 H 0.61522 0.61534 0.42311 0.0
H803 H 0.6307 0.6281 0.45886 0.0
H804 H 0.64119 0.6465 0.42378 0.0
H805 H 0.69978 0.51788 0.44109 0.0
H806 H 0.67562 0.52905 0.47196 0.0
H807 H 0.66021 0.51631 0.43621 0.0
H808 H 0.59716 0.56573 0.52848 0.0
H809 H 0.56152 0.53331 0.44257 0.0
H810 H 0.65673 0.60712 0.50031 0.0
H811 H 0.67225 0.57341 0.50378 0.0
H812 H 0.64641 0.585 0.53286 0.0
H813 H 0.61247 0.56848 0.39392 0.0
H814 H 0.5884 0.53606 0.39596 0.0
H815 H 0.62794 0.53505 0.3996 0.0
C816 C 0.16868 0.33009 0.0583 0.0
C817 C 0.15609 0.30189 0.05667 0.0
C818 C 0.15331 0.35267 0.0476 0.0
C819 C 0.12492 0.34667 0.03482 0.0
C820 C 0.11335 0.31797 0.03069 0.0
C821 C 0.12904 0.29587 0.04188 0.0
C822 C 0.16632 0.38303 0.05246 0.0
C823 C 0.08335 0.31071 0.01673 0.0
C824 C 0.0684 0.40078 0.05101 0.0
C825 C 0.06835 0.41493 0.02298 0.0
C826 C 0.08688 0.3786 0.05508 0.0
C827 C 0.10549 0.37025 0.03035 0.0
C828 C 0.10528 0.38427 1.00181 0.0
C829 C 0.08673 0.40665 0.9985 0.0
C830 C 0.08659 0.36421 0.08595 0.0
C831 C 0.1246 0.37567 0.97491 0.0
H832 H 0.18956 0.33469 0.06989 0.0
H833 H 0.11954 0.27394 0.04036 0.0
H834 H 0.16398 0.39575 0.03151 0.0
H835 H 0.15405 0.39336 0.07155 0.0
H836 H 0.19014 0.3839 0.05843 0.0
H837 H 0.07973 0.28755 0.01072 0.0
H838 H 0.06575 0.31637 0.03348 0.0
H839 H 0.08085 0.32325 0.99568 0.0
H840 H 0.0542 0.40728 0.06994 0.0
H841 H 0.08656 0.41763 0.97676 0.0
H842 H 0.10917 0.36616 0.09565 0.0
H843 H 0.07998 0.34103 0.08303 0.0
H844 H 0.07109 0.37357 0.10288 0.0
H845 H 0.14828 0.37856 0.98124 0.0
H846 H 0.12133 0.38837 0.95408 0.0
H847 H 0.11971 0.35265 0.96907 0.0
C848 C 0.58421 0.20283 0.92938 0.0
C849 C 0.58703 0.20418 0.89713 0.0
C850 C 0.57199 0.17793 0.94378 0.0
C851 C 0.56243 0.15366 0.92554 0.0
C852 C 0.56553 0.15477 0.893 0.0
C853 C 0.57769 0.18001 0.87921 0.0
C854 C 0.56886 0.17774 0.9785 0.0
C855 C 0.55583 0.12932 0.87271 0.0
C856 C 0.55172 0.08012 0.96199 0.0
C857 C 0.5208 0.07671 0.96567 0.0
C858 C 0.56565 0.10519 0.94932 0.0
C859 C 0.54826 0.12743 0.94035 0.0
C860 C 0.51708 0.12432 0.94482 0.0
C861 C 0.50376 0.09899 0.95734 0.0
C862 C 0.59892 0.10764 0.94495 0.0
C863 C 0.49772 0.14757 0.9359 0.0
H864 H 0.59106 0.22151 0.9434 0.0
H865 H 0.58017 0.18072 0.85433 0.0
H866 H 0.5451 0.17436 0.98531 0.0
H867 H 0.58029 0.15974 0.98779 0.0
H868 H 0.57816 0.19804 0.98943 0.0
H869 H 0.56054 0.13332 0.84788 0.0
H870 H 0.56728 0.11034 0.87941 0.0
H871 H 0.53168 0.12394 0.87594 0.0
H872 H 0.56498 0.06295 0.96845 0.0
H873 H 0.47985 0.09652 0.96032 0.0
H874 H 0.6086 0.12732 0.95673 0.0
H875 H 0.60471 0.10949 0.92005 0.0
H876 H 0.60935 0.0889 0.95403 0.0
H877 H 0.50519 0.1681 0.94755 0.0
H878 H 0.47399 0.14232 0.94199 0.0
H879 H 0.49972 0.15096 0.91068 0.0
C880 C 0.92855 0.80429 0.40315 0.0
C881 C 0.89755 0.80122 0.40102 0.0
C882 C 0.94313 0.8299 0.41431 0.0
C883 C 0.92633 0.85305 0.42356 0.0
C884 C 0.89511 0.85032 0.42078 0.0
C885 C 0.88113 0.82449 0.40955 0.0
C886 C 0.97644 0.83193 0.41696 0.0
C887 C 0.87639 0.87452 0.43025 0.0
C888 C 0.95809 0.90728 0.4829 0.0
C889 C 0.96779 0.93061 0.46453 0.0
C890 C 0.94488 0.8819 0.46981 0.0
C891 C 0.9412 0.87965 0.43749 0.0
C892 C 0.95117 0.90295 0.41874 0.0
C893 C 0.96435 0.92814 0.43247 0.0
C894 C 0.9346 0.85756 0.49065 0.0
C895 C 0.94763 0.90138 0.3842 0.0
H896 H 0.9414 0.78635 0.39691 0.0
H897 H 0.85723 0.82249 0.4075 0.0
H898 H 0.98634 0.85103 0.4048 0.0
H899 H 0.98251 0.83456 0.44157 0.0
H900 H 0.98641 0.81264 0.40725 0.0
H901 H 0.85252 0.86942 0.42546 0.0
H902 H 0.87875 0.87928 0.45528 0.0
H903 H 0.88414 0.89424 0.41787 0.0
H904 H 0.96067 0.90882 0.50768 0.0
H905 H 0.97175 0.94597 0.41803 0.0
H906 H 0.94539 0.83792 0.48349 0.0
H907 H 0.91032 0.85273 0.48861 0.0
H908 H 0.93961 0.86249 0.51525 0.0
H909 H 0.95868 0.88279 0.37435 0.0
H910 H 0.95711 0.9211 0.37278 0.0
H911 H 0.92378 0.89806 0.37862 0.0
C912 C 0.34272 0.68266 0.58236 0.0
C913 C 0.33269 0.68557 0.61299 0.0
C914 C 0.36043 0.66047 0.57336 0.0
C915 C 0.36838 0.64083 0.59556 0.0
C916 C 0.35714 0.64282 0.62614 0.0
C917 C 0.33933 0.6651 0.63445 0.0
C918 C 0.3718 0.65886 0.54044 0.0
C919 C 0.36502 0.62224 0.65044 0.0
C920 C 0.40172 0.57288 0.56682 0.0
C921 C 0.43213 0.58079 0.56887 0.0
C922 C 0.3806 0.59202 0.57588 0.0
C923 C 0.39022 0.61962 0.58734 0.0
C924 C 0.42094 0.62734 0.59031 0.0
C925 C 0.44155 0.60781 0.58096 0.0
C926 C 0.34807 0.58301 0.57238 0.0
C927 C 0.43206 0.65647 0.60273 0.0
H928 H 0.33789 0.69851 0.56572 0.0
H929 H 0.33119 0.66693 0.65804 0.0
H930 H 0.39617 0.66382 0.53979 0.0
H931 H 0.36737 0.63688 0.53075 0.0
H932 H 0.3615 0.67411 0.52543 0.0
H933 H 0.35255 0.62527 0.67245 0.0
H934 H 0.36047 0.5998 0.64215 0.0
H935 H 0.38909 0.62537 0.65507 0.0
H936 H 0.39441 0.55195 0.55744 0.0
H937 H 0.46507 0.61392 0.58257 0.0
H938 H 0.3385 0.59648 0.55498 0.0
H939 H 0.33588 0.58634 0.59446 0.0
H940 H 0.34422 0.56018 0.56503 0.0
H941 H 0.42529 0.67333 0.58735 0.0
H942 H 0.45657 0.65871 0.60466 0.0
H943 H 0.42199 0.66041 0.62583 0.0
C944 C 0.89799 0.86308 0.71758 0.0
C945 C 0.86887 0.85988 0.70686 0.0
C946 C 0.92042 0.87858 0.70082 0.0
C947 C 0.91347 0.89095 0.67268 0.0
C948 C 0.88433 0.88689 0.66124 0.0
C949 C 0.86233 0.87149 0.67856 0.0
C950 C 0.95121 0.88261 0.71377 0.0
C951 C 0.87617 0.89949 0.63109 0.0
C952 C 0.9545 0.95761 0.64138 0.0
C953 C 0.97029 0.94625 0.6165 0.0
C954 C 0.93743 0.93959 0.66129 0.0
C955 C 0.93599 0.90961 0.65586 0.0
C956 C 0.95361 0.89798 0.63209 0.0
C957 C 0.97074 0.91652 0.6127 0.0
C958 C 0.91931 0.95276 0.68676 0.0
C959 C 0.95266 0.86613 0.62562 0.0
H960 H 0.903 0.85433 0.73964 0.0
H961 H 0.83988 0.86871 0.67013 0.0
H962 H 0.96794 0.87677 0.69613 0.0
H963 H 0.95633 0.90549 0.72012 0.0
H964 H 0.95358 0.86957 0.73454 0.0
H965 H 0.85296 0.89297 0.62463 0.0
H966 H 0.87881 0.92321 0.63284 0.0
H967 H 0.89126 0.89271 0.61227 0.0
H968 H 0.95433 0.98063 0.6444 0.0
H969 H 0.98301 0.90774 0.59343 0.0
H970 H 0.92196 0.94174 0.70879 0.0
H971 H 0.89548 0.95012 0.68096 0.0
H972 H 0.92566 0.97596 0.69025 0.0
H973 H 0.95452 0.85431 0.64729 0.0
H974 H 0.97063 0.86034 0.60934 0.0
H975 H 0.93104 0.85884 0.61538 0.0
C976 C 0.68283 0.11618 0.19122 0.0
C977 C 0.68553 0.14622 0.19009 0.0
C978 C 0.66803 0.09964 0.16817 0.0
C979 C 0.65484 0.11343 0.14386 0.0
C980 C 0.65868 0.14357 0.14168 0.0
C981 C 0.67436 0.15956 0.16458 0.0
C982 C 0.66499 0.06746 0.17089 0.0
C983 C 0.64458 0.1591 0.11632 0.0
C984 C 0.62375 0.06965 0.07542 0.0
C985 C 0.59419 0.06402 0.08504 0.0
C986 C 0.644 0.08556 0.09441 0.0
C987 C 0.63405 0.09668 0.1231 0.0
C988 C 0.60399 0.09149 0.13248 0.0
C989 C 0.58454 0.07486 0.11351 0.0
C990 C 0.67605 0.09002 0.0841 0.0
C991 C 0.59233 0.10352 0.16258 0.0
H992 H 0.69099 0.10549 0.21087 0.0
H993 H 0.67701 0.18266 0.16295 0.0
H994 H 0.64193 0.06046 0.17802 0.0
H995 H 0.66952 0.05694 0.14829 0.0
H996 H 0.68026 0.05987 0.18815 0.0
H997 H 0.65202 0.18225 0.11616 0.0
H998 H 0.64976 0.14945 0.09347 0.0
H999 H 0.62012 0.15698 0.11954 0.0
H1000 H 0.63114 0.06109 0.05339 0.0
H1001 H 0.56157 0.07067 0.12078 0.0
H1002 H 0.69034 0.08054 0.10103 0.0
H1003 H 0.68294 0.11321 0.08328 0.0
H1004 H 0.68015 0.08017 0.06102 0.0
H1005 H 0.60362 0.0945 0.18219 0.0
H1006 H 0.56805 0.09869 0.16568 0.0
H1007 H 0.59717 0.1271 0.16363 0.0
C1008 C 0.39659 0.57724 0.30393 0.0
C1009 C 0.40069 0.607 0.29997 0.0
C1010 C 0.40932 0.56392 0.32861 0.0
C1011 C 0.42731 0.58055 0.34961 0.0
C1012 C 0.43216 0.61046 0.34545 0.0
C1013 C 0.4186 0.62334 0.32094 0.0
C1014 C 0.40326 0.53203 0.33236 0.0
C1015 C 0.45155 0.62892 0.36705 0.0
C1016 C 0.43815 0.55183 0.42983 0.0
C1017 C 0.46561 0.53993 0.42645 0.0
C1018 C 0.42536 0.56487 0.40499 0.0
C1019 C 0.44065 0.56665 0.37617 0.0
C1020 C 0.4685 0.55486 0.37269 0.0
C1021 C 0.48048 0.54138 0.39775 0.0
C1022 C 0.39536 0.57661 0.40956 0.0
C1023 C 0.48581 0.55678 0.34258 0.0
H1024 H 0.38347 0.56415 0.28761 0.0
H1025 H 0.42172 0.64634 0.31856 0.0
H1026 H 0.42437 0.52143 0.3312 0.0
H1027 H 0.39292 0.5276 0.35535 0.0
H1028 H 0.38835 0.5222 0.31438 0.0
H1029 H 0.45435 0.65157 0.35981 0.0
H1030 H 0.44174 0.62829 0.3907 0.0
H1031 H 0.47376 0.62048 0.36817 0.0
H1032 H 0.42645 0.55068 0.45189 0.0
H1033 H 0.50186 0.53252 0.39503 0.0
H1034 H 0.37954 0.56626 0.39276 0.0
H1035 H 0.39702 0.59991 0.40516 0.0
H1036 H 0.38613 0.57311 0.43322 0.0
H1037 H 0.47276 0.54567 0.32392 0.0
H1038 H 0.50745 0.54716 0.34382 0.0
H1039 H 0.48994 0.57952 0.33605 0.0
C1040 C 0.11481 0.42796 0.82199 0.0
C1041 C 0.09639 0.41918 0.79739 0.0
C1042 C 0.10388 0.44314 0.84758 0.0
C1043 C 0.07395 0.45015 0.84835 0.0
C1044 C 0.05537 0.44162 0.82337 0.0
C1045 C 0.06675 0.42605 0.79833 0.0
C1046 C 0.12424 0.45134 0.87399 0.0
C1047 C 0.02347 0.449 0.82305 0.0
C1048 C 0.03496 0.46677 0.92455 0.0
C1049 C 0.03682 0.49679 0.92509 0.0
C1050 C 0.0477 0.45135 0.9002 0.0
C1051 C 0.06193 0.46629 0.87529 0.0
C1052 C 0.06385 0.49663 0.87573 0.0
C1053 C 0.05151 0.51152 0.90078 0.0
C1054 C 0.04566 0.41906 0.901 0.0
C1055 C 0.07846 0.51336 0.84947 0.0
H1056 H 0.13765 0.42242 0.82148 0.0
H1057 H 0.05253 0.41952 0.77923 0.0
H1058 H 0.12587 0.4749 0.87771 0.0
H1059 H 0.11499 0.44165 0.89557 0.0
H1060 H 0.1469 0.44426 0.86987 0.0
H1061 H 0.01216 0.44139 0.80158 0.0
H1062 H 0.0111 0.43928 0.84304 0.0
H1063 H 0.02235 0.47254 0.82533 0.0
H1064 H 0.02332 0.45527 0.9431 0.0
H1065 H 0.05291 0.53472 0.90105 0.0
H1066 H 0.06805 0.41109 0.89803 0.0
H1067 H 0.03207 0.41005 0.8816 0.0
H1068 H 0.03561 0.41079 0.92295 0.0
H1069 H 0.10172 0.50777 0.84613 0.0
H1070 H 0.07843 0.53686 0.85345 0.0
H1071 H 0.06675 0.50759 0.82772 0.0
C1072 C 0.64264 0.87716 0.86538 0.0
C1073 C 0.65735 0.85862 0.88374 0.0
C1074 C 0.62411 0.89691 0.87871 0.0
C1075 C 0.61976 0.89774 0.91109 0.0
C1076 C 0.63399 0.87873 0.92971 0.0
C1077 C 0.65284 0.85961 0.91584 0.0
C1078 C 0.60943 0.91707 0.8582 0.0
C1079 C 0.62954 0.87876 0.96433 0.0
C1080 C 0.59397 0.96391 0.95225 0.0
C1081 C 0.56371 0.95614 0.95682 0.0
C1082 C 0.61236 0.94543 0.93651 0.0
C1083 C 0.60022 0.91841 0.92566 0.0
C1084 C 0.56963 0.91061 0.92991 0.0
C1085 C 0.55169 0.92968 0.94523 0.0
C1086 C 0.64484 0.95461 0.93189 0.0
C1087 C 0.55602 0.88177 0.91911 0.0
H1088 H 0.64562 0.87627 0.84054 0.0
H1089 H 0.66453 0.84583 0.93031 0.0
H1090 H 0.58498 0.91384 0.86088 0.0
H1091 H 0.61589 0.93957 0.86517 0.0
H1092 H 0.6155 0.91398 0.83347 0.0
H1093 H 0.64139 0.86187 0.97536 0.0
H1094 H 0.63758 0.89985 0.97431 0.0
H1095 H 0.60557 0.87539 0.97028 0.0
H1096 H 0.60329 0.98443 0.96099 0.0
H1097 H 0.52833 0.92346 0.94891 0.0
H1098 H 0.65116 0.95282 0.90711 0.0
H1099 H 0.65847 0.94023 0.94458 0.0
H1100 H 0.6504 0.97698 0.94006 0.0
H1101 H 0.56052 0.87852 0.8941 0.0
H1102 H 0.53166 0.8794 0.92333 0.0
H1103 H 0.56623 0.86453 0.93131 0.0
C1104 C 0.83344 0.10217 0.42308 0.0
C1105 C 0.84188 0.13005 0.41366 0.0
C1106 C 0.85204 0.08726 0.44131 0.0
C1107 C 0.88003 0.10036 0.44971 0.0
C1108 C 0.88839 0.12878 0.44076 0.0
C1109 C 0.869 0.14345 0.42305 0.0
C1110 C 0.84205 0.05721 0.45093 0.0
C1111 C 0.91826 0.14324 0.4488 0.0
C1112 C 0.92062 0.06716 0.51418 0.0
C1113 C 0.93878 0.04916 0.49749 0.0
C1114 C 0.90151 0.08421 0.49896 0.0
C1115 C 0.90109 0.08361 0.46632 0.0
C1116 C 0.9199 0.06589 0.4494 0.0
C1117 C 0.93813 0.04852 0.46524 0.0
C1118 C 0.88132 0.10237 0.51777 0.0
C1119 C 0.92051 0.06497 0.41456 0.0
H1120 H 0.8123 0.09198 0.41592 0.0
H1121 H 0.87549 0.16498 0.41552 0.0
H1122 H 0.8565 0.04178 0.43969 0.0
H1123 H 0.8441 0.05523 0.47622 0.0
H1124 H 0.81873 0.05104 0.44461 0.0
H1125 H 0.92077 0.16588 0.44146 0.0
H1126 H 0.92165 0.14267 0.47402 0.0
H1127 H 0.93604 0.1315 0.43741 0.0
H1128 H 0.92101 0.06759 0.53917 0.0
H1129 H 0.95169 0.03422 0.45233 0.0
H1130 H 0.85785 0.09541 0.51298 0.0
H1131 H 0.88496 0.12511 0.51112 0.0
H1132 H 0.88485 0.10095 0.54295 0.0
H1133 H 0.89878 0.05589 0.406 0.0
H1134 H 0.93809 0.05181 0.40494 0.0
H1135 H 0.92429 0.08695 0.40554 0.0
C1136 C 0.19817 0.64229 0.07946 0.0
C1137 C 0.21607 0.62701 0.09838 0.0
C1138 C 0.17221 0.62931 0.06643 0.0
C1139 C 0.16288 0.60068 0.07357 0.0
C1140 C 0.18013 0.58534 0.09339 0.0
C1141 C 0.20674 0.59841 0.10495 0.0
C1142 C 0.15494 0.64618 0.04469 0.0
C1143 C 0.17048 0.55504 0.10239 0.0
C1144 C 0.08148 0.57688 0.0617 0.0
C1145 C 0.083 0.55946 0.03516 0.0
C1146 C 0.10735 0.59007 0.07476 0.0
C1147 C 0.13521 0.5867 0.06011 0.0
C1148 C 0.13664 0.56977 0.0327 0.0
C1149 C 0.11055 0.55581 0.02095 0.0
C1150 C 0.10494 0.60695 0.10465 0.0
C1151 C 0.1657 0.56652 0.0157 0.0
H1152 H 0.20429 0.66456 0.07473 0.0
H1153 H 0.22033 0.5859 0.11887 0.0
H1154 H 0.15208 0.6343 0.0224 0.0
H1155 H 0.13247 0.64896 0.05446 0.0
H1156 H 0.16603 0.66768 0.04012 0.0
H1157 H 0.18506 0.54687 0.11996 0.0
H1158 H 0.1474 0.55392 0.11172 0.0
H1159 H 0.17072 0.54062 0.08178 0.0
H1160 H 0.06013 0.5793 0.07289 0.0
H1161 H 0.1116 0.54234 1.00036 0.0
H1162 H 0.11364 0.62946 0.1014 0.0
H1163 H 0.11865 0.59786 0.12238 0.0
H1164 H 0.08172 0.60684 0.11353 0.0
H1165 H 0.1767 0.58793 0.01062 0.0
H1166 H 0.16274 0.55416 0.99369 0.0
H1167 H 0.18084 0.55543 0.03035 0.0
C1168 C 0.3243 0.39775 0.60132 0.0
C1169 C 0.30108 0.41568 0.60592 0.0
C1170 C 0.35025 0.40707 0.58502 0.0
C1171 C 0.35295 0.43491 0.57265 0.0
C1172 C 0.32951 0.45308 0.57708 0.0
C1173 C 0.30392 0.44331 0.59383 0.0
C1174 C 0.37494 0.38722 0.58132 0.0
C1175 C 0.33143 0.48279 0.56399 0.0
C1176 C 0.43093 0.46763 0.55604 0.0
C1177 C 0.43447 0.46148 0.52445 0.0
C1178 C 0.40439 0.45947 0.5719 0.0
C1179 C 0.38063 0.4451 0.55569 0.0
C1180 C 0.38381 0.43951 0.52358 0.0
C1181 C 0.41081 0.4476 0.50837 0.0
C1182 C 0.40206 0.46562 0.60615 0.0
C1183 C 0.35883 0.42465 0.50541 0.0
H1184 H 0.32232 0.3765 0.61091 0.0
H1185 H 0.28589 0.45713 0.59706 0.0
H1186 H 0.37984 0.38331 0.55649 0.0
H1187 H 0.39548 0.39734 0.59167 0.0
H1188 H 0.36939 0.36628 0.59238 0.0
H1189 H 0.31106 0.49406 0.56897 0.0
H1190 H 0.35065 0.49581 0.57372 0.0
H1191 H 0.33507 0.48155 0.53864 0.0
H1192 H 0.44919 0.47835 0.5686 0.0
H1193 H 0.41345 0.44299 0.48391 0.0
H1194 H 0.39829 0.44521 0.61865 0.0
H1195 H 0.38281 0.47834 0.61141 0.0
H1196 H 0.42234 0.47752 0.61519 0.0
H1197 H 0.35381 0.40262 0.51393 0.0
H1198 H 0.36423 0.42332 0.48034 0.0
H1199 H 0.33842 0.43617 0.50876 0.0
C1200 C 0.84357 0.65067 0.88608 0.0
C1201 C 0.83361 0.67711 0.89547 0.0
C1202 C 0.86086 0.63557 0.90551 0.0
C1203 C 0.86862 0.64748 0.9348 0.0
C1204 C 0.85711 0.67334 0.94512 0.0
C1205 C 0.83959 0.68784 0.9253 0.0
C1206 C 0.87229 0.60774 0.89394 0.0
C1207 C 0.86496 0.68668 0.97616 0.0
C1208 C 0.9045 0.59725 0.98727 0.0
C1209 C 0.93449 0.60303 0.97927 0.0
C1210 C 0.88265 0.6126 0.97417 0.0
C1211 C 0.89122 0.63431 0.95294 0.0
C1212 C 0.92167 0.64159 0.94663 0.0
C1213 C 0.94299 0.62569 0.95978 0.0
C1214 C 0.85042 0.60421 0.9814 0.0
C1215 C 0.93167 0.66498 0.92449 0.0
H1216 H 0.8387 0.64233 0.86308 0.0
H1217 H 0.83208 0.70846 0.93244 0.0
H1218 H 0.89661 0.61074 0.88984 0.0
H1219 H 0.8682 0.59095 0.91148 0.0
H1220 H 0.86177 0.6 0.87208 0.0
H1221 H 0.85101 0.70453 0.98244 0.0
H1222 H 0.86244 0.67046 0.99445 0.0
H1223 H 0.88853 0.69519 0.97563 0.0
H1224 H 0.89793 0.57966 1.00238 0.0
H1225 H 0.96623 0.63021 0.95375 0.0
H1226 H 0.84023 0.59276 0.96114 0.0
H1227 H 0.83805 0.62345 0.9861 0.0
H1228 H 0.84762 0.58996 1.00156 0.0
H1229 H 0.92513 0.65827 0.90074 0.0
H1230 H 0.95607 0.66992 0.92456 0.0
H1231 H 0.92072 0.68484 0.93041 0.0
C1232 C 0.43625 0.83021 0.13547 0.0
C1233 C 0.42736 0.80652 0.11663 0.0
C1234 C 0.44806 0.85604 0.1227 0.0
C1235 C 0.45131 0.85825 0.09027 0.0
C1236 C 0.44225 0.83446 0.07109 0.0
C1237 C 0.4303 0.80894 0.08449 0.0
C1238 C 0.45719 0.88096 0.14397 0.0
C1239 C 0.44558 0.83582 0.03644 0.0
C1240 C 0.46108 0.93321 0.05709 0.0
C1241 C 0.492 0.93728 0.05399 0.0
C1242 C 0.44743 0.90744 0.06843 0.0
C1243 C 0.46515 0.88516 0.07658 0.0
C1244 C 0.49635 0.88894 0.0726 0.0
C1245 C 0.50937 0.91497 0.06148 0.0
C1246 C 0.41413 0.90429 0.07237 0.0
C1247 C 0.51605 0.86567 0.08063 0.0
H1248 H 0.43362 0.82868 0.16029 0.0
H1249 H 0.42372 0.79065 0.06978 0.0
H1250 H 0.4813 0.88681 0.14109 0.0
H1251 H 0.44544 0.89996 0.13793 0.0
H1252 H 0.45238 0.87609 0.1686 0.0
H1253 H 0.43676 0.81573 0.02472 0.0
H1254 H 0.43382 0.85388 0.02777 0.0
H1255 H 0.46934 0.83987 0.02989 0.0
H1256 H 0.44756 0.95039 0.05127 0.0
H1257 H 0.53328 0.91795 0.05888 0.0
H1258 H 0.40811 0.90146 0.0971 0.0
H1259 H 0.40494 0.88491 0.0597 0.0
H1260 H 0.40345 0.92317 0.06397 0.0
H1261 H 0.51399 0.86139 0.10566 0.0
H1262 H 0.53974 0.87146 0.07482 0.0
H1263 H 0.50894 0.84547 0.06815 0.0
C1264 C 0.08913 0.20093 0.63078 0.0
C1265 C 0.10973 0.21665 0.61181 0.0
C1266 C 0.07422 0.17523 0.62022 0.0
C1267 C 0.0808 0.16429 0.59038 0.0
C1268 C 0.10167 0.1798 0.57121 0.0
C1269 C 0.11529 0.20598 0.58184 0.0
C1270 C 0.0514 0.15979 0.64101 0.0
C1271 C 0.10987 0.16861 0.53947 0.0
C1272 C 0.06511 0.08463 0.57303 0.0
C1273 C 0.04071 0.08458 0.5537 0.0
C1274 C 0.07831 0.11041 0.58531 0.0
C1275 C 0.06604 0.1366 0.57904 0.0
C1276 C 0.04058 0.13641 0.56055 0.0
C1277 C 0.02859 0.11045 0.54756 0.0
C1278 C 0.10604 0.10974 0.60398 0.0
C1279 C 0.02615 0.16366 0.55423 0.0
H1280 H 0.08478 0.20842 0.6541 0.0
H1281 H 0.1303 0.21808 0.56639 0.0
H1282 H 0.03011 0.15583 0.62881 0.0
H1283 H 0.05883 0.13862 0.64701 0.0
H1284 H 0.04735 0.17205 0.6627 0.0
H1285 H 0.12778 0.1824 0.52815 0.0
H1286 H 0.1173 0.14666 0.54103 0.0
H1287 H 0.0902 0.16726 0.52454 0.0
H1288 H 0.07459 0.06459 0.57755 0.0
H1289 H 0.00951 0.11032 0.53282 0.0
H1290 H 0.10276 0.11983 0.62703 0.0
H1291 H 0.12462 0.12233 0.59229 0.0
H1292 H 0.11254 0.0876 0.60708 0.0
H1293 H 0.02185 0.17538 0.57619 0.0
H1294 H 0.00489 0.1595 0.54196 0.0
H1295 H 0.04127 0.17791 0.53993 0.0
C1296 C 0.67425 0.35034 0.37238 0.0
C1297 C 0.68176 0.32973 0.39329 0.0
C1298 C 0.65525 0.37153 0.3812 0.0
C1299 C 0.64361 0.37223 0.41171 0.0
C1300 C 0.65201 0.3522 0.43326 0.0
C1301 C 0.67095 0.33116 0.42378 0.0
C1302 C 0.64691 0.39259 0.35761 0.0
C1303 C 0.64015 0.35236 0.46606 0.0
C1304 C 0.60949 0.43861 0.44372 0.0
C1305 C 0.57913 0.43054 0.44141 0.0
C1306 C 0.63081 0.4201 0.43353 0.0
C1307 C 0.62147 0.39293 0.42075 0.0
C1308 C 0.59081 0.38507 0.41755 0.0
C1309 C 0.56998 0.404 0.42796 0.0
C1310 C 0.66327 0.42931 0.43726 0.0
C1311 C 0.57999 0.35636 0.40382 0.0
H1312 H 0.6829 0.34963 0.34891 0.0
H1313 H 0.67636 0.31514 0.43997 0.0
H1314 H 0.62282 0.3894 0.35318 0.0
H1315 H 0.65134 0.41485 0.36653 0.0
H1316 H 0.65923 0.39023 0.33539 0.0
H1317 H 0.65025 0.33649 0.48044 0.0
H1318 H 0.64442 0.37393 0.47684 0.0
H1319 H 0.61578 0.3474 0.4662 0.0
H1320 H 0.6166 0.4592 0.45408 0.0
H1321 H 0.5465 0.39777 0.42614 0.0
H1322 H 0.67543 0.42701 0.41498 0.0
H1323 H 0.67308 0.41524 0.4539 0.0
H1324 H 0.66688 0.45185 0.44567 0.0
H1325 H 0.5902 0.35337 0.38061 0.0
H1326 H 0.55549 0.35402 0.40175 0.0
H1327 H 0.58684 0.33896 0.41844 0.0
loop_
_geom_bond_atom_site_label_1
_geom_bond_atom_site_label_2
_geom_bond_distance
_geom_bond_site_symmetry_2
_ccdc_geom_bond_type
C0 C1 1.391 . S
C0 C4 1.391 . S
C0 H42 0.948 . S
C1 C0 1.391 . S
C1 C2 1.391 . S
C2 C1 1.391 . S
C2 H58 0.947 . S
C2 C59 1.392 . S
C3 C4 1.391 . S
C3 C7 1.397 . S
C3 C59 1.419 . S
C4 C0 1.391 . S
C4 C3 1.391 . S
C4 C5 1.399 . S
C5 C4 1.399 . S
C5 C8 1.396 . S
C5 C17 1.453 . S
C5 C18 1.684 . S
H6 C30 0.948 . S
C7 C3 1.397 . S
C7 C8 1.394 . S
C7 C26 1.723 . S
C8 C5 1.396 . S
C8 C7 1.394 . S
C8 C38 1.723 . S
H9 C32 0.947 . S
H10 C33 0.948 . S
H11 C39 0.982 . S
H12 C40 0.979 . S
H13 C40 0.980 . S
H14 C40 0.983 . S
H15 C39 0.979 . S
H16 C39 0.977 . S
C17 C5 1.453 . S
C17 H46 0.982 . S
C17 H47 0.979 . S
C17 H48 0.977 . S
C18 C5 1.684 . S
C18 H43 0.979 . S
C18 H44 0.980 . S
C18 H45 0.983 . S
C19 C20 1.391 . S
C19 C24 1.391 . S
C19 H49 0.948 . S
C20 C19 1.391 . S
C20 C21 1.391 . S
C21 C20 1.391 . S
C21 C22 1.392 . S
C21 H50 0.947 . S
C22 C21 1.392 . S
C22 C23 1.419 . S
C22 H51 0.948 . S
C23 C22 1.419 . S
C23 C24 1.391 . S
C23 C27 1.397 . S
C24 C19 1.391 . S
C24 C23 1.391 . S
C24 C25 1.399 . S
C25 C24 1.399 . S
C25 C26 1.396 . S
C25 C28 1.453 . S
C25 C29 1.684 . S
C26 C7 1.723 . S
C26 C25 1.396 . S
C26 C27 1.394 . S
C27 C23 1.397 . S
C27 C26 1.394 . S
C27 C37 1.723 . S
C28 C25 1.453 . S
C28 H52 0.982 . S
C28 H53 0.979 . S
C28 H54 0.977 . S
C29 C25 1.684 . S
C29 H55 0.979 . S
C29 H56 0.980 . S
C29 H57 0.983 . S
C30 H6 0.948 . S
C30 C31 1.391 . S
C30 C35 1.391 . S
C31 C30 1.391 . S
C31 C32 1.391 . S
C32 H9 0.947 . S
C32 C31 1.391 . S
C32 C33 1.392 . S
C33 H10 0.948 . S
C33 C32 1.392 . S
C33 C34 1.419 . S
C34 C33 1.419 . S
C34 C35 1.391 . S
C34 C38 1.397 . S
C35 C30 1.391 . S
C35 C34 1.391 . S
C35 C36 1.399 . S
C36 C35 1.399 . S
C36 C37 1.396 . S
C36 C39 1.453 . S
C36 C40 1.684 . S
C37 C27 1.723 . S
C37 C36 1.396 . S
C37 C38 1.394 . S
C38 C8 1.723 . S
C38 C34 1.397 . S
C38 C37 1.394 . S
C39 H11 0.982 . S
C39 H15 0.979 . S
C39 H16 0.977 . S
C39 C36 1.453 . S
C40 H12 0.979 . S
C40 H13 0.980 . S
C40 H14 0.983 . S
C40 C36 1.684 . S
H41 C59 0.948 . S
H42 C0 0.948 . S
H43 C18 0.979 . S
H44 C18 0.980 . S
H45 C18 0.983 . S
H46 C17 0.982 . S
H47 C17 0.979 . S
H48 C17 0.977 . S
H49 C19 0.948 . S
H50 C21 0.947 . S
H51 C22 0.948 . S
H52 C28 0.982 . S
H53 C28 0.979 . S
H54 C28 0.977 . S
H55 C29 0.979 . S
H56 C29 0.980 . S
H57 C29 0.983 . S
H58 C2 0.947 . S
C59 C2 1.392 . S
C59 C3 1.419 . S
C59 H41 0.948 . S
C60 C61 1.391 . S
C60 C64 1.391 . S
C60 H102 0.948 . S
C61 C60 1.391 . S
C61 C62 1.391 . S
C62 C61 1.391 . S
C62 H118 0.947 . S
C62 C119 1.392 . S
C63 C64 1.391 . S
C63 C67 1.397 . S
C63 C119 1.419 . S
C64 C60 1.391 . S
C64 C63 1.391 . S
C64 C65 1.399 . S
C65 C64 1.399 . S
C65 C68 1.396 . S
C65 C77 1.453 . S
C65 C78 1.684 . S
H66 C90 0.948 . S
C67 C63 1.397 . S
C67 C68 1.394 . S
C67 C86 1.723 . S
C68 C65 1.396 . S
C68 C67 1.394 . S
C68 C98 1.723 . S
H69 C92 0.947 . S
H70 C93 0.948 . S
H71 C99 0.982 . S
H72 C100 0.979 . S
H73 C100 0.980 . S
H74 C100 0.983 . S
H75 C99 0.979 . S
H76 C99 0.977 . S
C77 C65 1.453 . S
C77 H106 0.982 . S
C77 H107 0.979 . S
C77 H108 0.977 . S
C78 C65 1.684 . S
C78 H103 0.979 . S
C78 H104 0.980 . S
C78 H105 0.983 . S
C79 C80 1.391 . S
C79 C84 1.391 . S
C79 H109 0.948 . S
C80 C79 1.391 . S
C80 C81 1.391 . S
C81 C80 1.391 . S
C81 C82 1.392 . S
C81 H110 0.947 . S
C82 C81 1.392 . S
C82 C83 1.419 . S
C82 H111 0.948 . S
C83 C82 1.419 . S
C83 C84 1.391 . S
C83 C87 1.397 . S
C84 C79 1.391 . S
C84 C83 1.391 . S
C84 C85 1.399 . S
C85 C84 1.399 . S
C85 C86 1.396 . S
C85 C88 1.453 . S
C85 C89 1.684 . S
C86 C67 1.723 . S
C86 C85 1.396 . S
C86 C87 1.394 . S
C87 C83 1.397 . S
C87 C86 1.394 . S
C87 C97 1.723 . S
C88 C85 1.453 . S
C88 H112 0.982 . S
C88 H113 0.979 . S
C88 H114 0.977 . S
C89 C85 1.684 . S
C89 H115 0.979 . S
C89 H116 0.980 . S
C89 H117 0.983 . S
C90 H66 0.948 . S
C90 C91 1.391 . S
C90 C95 1.391 . S
C91 C90 1.391 . S
C91 C92 1.391 . S
C92 H69 0.947 . S
C92 C91 1.391 . S
C92 C93 1.392 . S
C93 H70 0.948 . S
C93 C92 1.392 . S
C93 C94 1.419 . S
C94 C93 1.419 . S
C94 C95 1.391 . S
C94 C98 1.397 . S
C95 C90 1.391 . S
C95 C94 1.391 . S
C95 C96 1.399 . S
C96 C95 1.399 . S
C96 C97 1.396 . S
C96 C99 1.453 . S
C96 C100 1.684 . S
C97 C87 1.723 . S
C97 C96 1.396 . S
C97 C98 1.394 . S
C98 C68 1.723 . S
C98 C94 1.397 . S
C98 C97 1.394 . S
C99 H71 0.982 . S
C99 H75 0.979 . S
C99 H76 0.977 . S
C99 C96 1.453 . S
C100 H72 0.979 . S
C100 H73 0.980 . S
C100 H74 0.983 . S
C100 C96 1.684 . S
H101 C119 0.948 . S
H102 C60 0.948 . S
H103 C78 0.979 . S
H104 C78 0.980 . S
H105 C78 0.983 . S
H106 C77 0.982 . S
H107 C77 0.979 . S
H108 C77 0.977 . S
H109 C79 0.948 . S
H110 C81 0.947 . S
H111 C82 0.948 . S
H112 C88 0.982 . S
H113 C88 0.979 . S
H114 C88 0.977 . S
H115 C89 0.979 . S
H116 C89 0.980 . S
H117 C89 0.983 . S
H118 C62 0.947 . S
C119 C62 1.392 . S
C119 C63 1.419 . S
C119 H101 0.948 . S
C120 C121 1.391 . S
C120 C124 1.391 . S
C120 H162 0.948 . S
C121 C120 1.391 . S
C121 C122 1.391 . S
C122 C121 1.391 . S
C122 H178 0.947 . S
C122 C179 1.392 . S
C123 C124 1.391 . S
C123 C127 1.397 . S
C123 C179 1.419 . S
C124 C120 1.391 . S
C124 C123 1.391 . S
C124 C125 1.399 . S
C125 C124 1.399 . S
C125 C128 1.396 . S
C125 C137 1.453 . S
C125 C138 1.684 . S
H126 C150 0.948 . S
C127 C123 1.397 . S
C127 C128 1.394 . S
C127 C146 1.723 . S
C128 C125 1.396 . S
C128 C127 1.394 . S
C128 C158 1.723 . S
H129 C152 0.947 . S
H130 C153 0.948 . S
H131 C159 0.982 . S
H132 C160 0.979 . S
H133 C160 0.980 . S
H134 C160 0.983 . S
H135 C159 0.979 . S
H136 C159 0.977 . S
C137 C125 1.453 . S
C137 H166 0.982 . S
C137 H167 0.979 . S
C137 H168 0.977 . S
C138 C125 1.684 . S
C138 H163 0.979 . S
C138 H164 0.980 . S
C138 H165 0.983 . S
C139 C140 1.391 . S
C139 C144 1.391 . S
C139 H169 0.948 . S
C140 C139 1.391 . S
C140 C141 1.391 . S
C141 C140 1.391 . S
C141 C142 1.392 . S
C141 H170 0.947 . S
C142 C141 1.392 . S
C142 C143 1.419 . S
C142 H171 0.948 . S
C143 C142 1.419 . S
C143 C144 1.391 . S
C143 C147 1.397 . S
C144 C139 1.391 . S
C144 C143 1.391 . S
C144 C145 1.399 . S
C145 C144 1.399 . S
C145 C146 1.396 . S
C145 C148 1.453 . S
C145 C149 1.684 . S
C146 C127 1.723 . S
C146 C145 1.396 . S
C146 C147 1.394 . S
C147 C143 1.397 . S
C147 C146 1.394 . S
C147 C157 1.723 . S
C148 C145 1.453 . S
C148 H172 0.982 . S
C148 H173 0.979 . S
C148 H174 0.977 . S
C149 C145 1.684 . S
C149 H175 0.979 . S
C149 H176 0.980 . S
C149 H177 0.983 . S
C150 H126 0.948 . S
C150 C151 1.391 . S
C150 C155 1.391 . S
C151 C150 1.391 . S
C151 C152 1.391 . S
C152 H129 0.947 . S
C152 C151 1.391 . S
C152 C153 1.392 . S
C153 H130 0.948 . S
C153 C152 1.392 . S
C153 C154 1.419 . S
C154 C153 1.419 . S
C154 C155 1.391 . S
C154 C158 1.397 . S
C155 C150 1.391 . S
C155 C154 1.391 . S
C155 C156 1.399 . S
C156 C155 1.399 . S
C156 C157 1.396 . S
C156 C159 1.453 . S
C156 C160 1.684 . S
C157 C147 1.723 . S
C157 C156 1.396 . S
C157 C158 1.394 . S
C158 C128 1.723 . S
C158 C154 1.397 . S
C158 C157 1.394 . S
C159 H131 0.982 . S
C159 H135 0.979 . S
C159 H136 0.977 . S
C159 C156 1.453 . S
C160 H132 0.979 . S
C160 H133 0.980 . S
C160 H134 0.983 . S
C160 C156 1.684 . S
H161 C179 0.948 . S
H162 C120 0.948 . S
H163 C138 0.979 . S
H164 C138 0.980 . S
H165 C138 0.983 . S
H166 C137 0.982 . S
H167 C137 0.979 . S
H168 C137 0.977 . S
H169 C139 0.948 . S
H170 C141 0.947 . S
H171 C142 0.948 . S
H172 C148 0.982 . S
H173 C148 0.979 . S
H174 C148 0.977 . S
H175 C149 0.979 . S
H176 C149 0.980 . S
H177 C149 0.983 . S
H178 C122 0.947 . S
C179 C122 1.392 . S
C179 C123 1.419 . S
C179 H161 0.948 . S
C180 C181 1.391 . S
C180 C184 1.391 . S
C180 H222 0.948 . S
C181 C180 1.391 . S
C181 C182 1.391 . S
C182 C181 1.391 . S
C182 H238 0.947 . S
C182 C239 1.392 . S
C183 C184 1.391 . S
C183 C187 1.397 . S
C183 C239 1.419 . S
C184 C180 1.391 . S
C184 C183 1.391 . S
C184 C185 1.399 . S
C185 C184 1.399 . S
C185 C188 1.396 . S
C185 C197 1.453 . S
C185 C198 1.684 . S
H186 C210 0.948 . S
C187 C183 1.397 . S
C187 C188 1.394 . S
C187 C206 1.723 . S
C188 C185 1.396 . S
C188 C187 1.394 . S
C188 C218 1.723 . S
H189 C212 0.947 . S
H190 C213 0.948 . S
H191 C219 0.982 . S
H192 C220 0.979 . S
H193 C220 0.980 . S
H194 C220 0.983 . S
H195 C219 0.979 . S
H196 C219 0.977 . S
C197 C185 1.453 . S
C197 H226 0.982 . S
C197 H227 0.979 . S
C197 H228 0.977 . S
C198 C185 1.684 . S
C198 H223 0.979 . S
C198 H224 0.980 . S
C198 H225 0.983 . S
C199 C200 1.391 . S
C199 C204 1.391 . S
C199 H229 0.948 . S
C200 C199 1.391 . S
C200 C201 1.391 . S
C201 C200 1.391 . S
C201 C202 1.392 . S
C201 H230 0.947 . S
C202 C201 1.392 . S
C202 C203 1.419 . S
C202 H231 0.948 . S
C203 C202 1.419 . S
C203 C204 1.391 . S
C203 C207 1.397 . S
C204 C199 1.391 . S
C204 C203 1.391 . S
C204 C205 1.399 . S
C205 C204 1.399 . S
C205 C206 1.396 . S
C205 C208 1.453 . S
C205 C209 1.684 . S
C206 C187 1.723 . S
C206 C205 1.396 . S
C206 C207 1.394 . S
C207 C203 1.397 . S
C207 C206 1.394 . S
C207 C217 1.723 . S
C208 C205 1.453 . S
C208 H232 0.982 . S
C208 H233 0.979 . S
C208 H234 0.977 . S
C209 C205 1.684 . S
C209 H235 0.979 . S
C209 H236 0.980 . S
C209 H237 0.983 . S
C210 H186 0.948 . S
C210 C211 1.391 . S
C210 C215 1.391 . S
C211 C210 1.391 . S
C211 C212 1.391 . S
C212 H189 0.947 . S
C212 C211 1.391 . S
C212 C213 1.392 . S
C213 H190 0.948 . S
C213 C212 1.392 . S
C213 C214 1.419 . S
C214 C213 1.419 . S
C214 C215 1.391 . S
C214 C218 1.397 . S
C215 C210 1.391 . S
C215 C214 1.391 . S
C215 C216 1.399 . S
C216 C215 1.399 . S
C216 C217 1.396 . S
C216 C219 1.453 . S
C216 C220 1.684 . S
C217 C207 1.723 . S
C217 C216 1.396 . S
C217 C218 1.394 . S
C218 C188 1.723 . S
C218 C214 1.397 . S
C218 C217 1.394 . S
C219 H191 0.982 . S
C219 H195 0.979 . S
C219 H196 0.977 . S
C219 C216 1.453 . S
C220 H192 0.979 . S
C220 H193 0.980 . S
C220 H194 0.983 . S
C220 C216 1.684 . S
H221 C239 0.948 . S
H222 C180 0.948 . S
H223 C198 0.979 . S
H224 C198 0.980 . S
H225 C198 0.983 . S
H226 C197 0.982 . S
H227 C197 0.979 . S
H228 C197 0.977 . S
H229 C199 0.948 . S
H230 C201 0.947 . S
H231 C202 0.948 . S
H232 C208 0.982 . S
H233 C208 0.979 . S
H234 C208 0.977 . S
H235 C209 0.979 . S
H236 C209 0.980 . S
H237 C209 0.983 . S
H238 C182 0.947 . S
C239 C182 1.392 . S
C239 C183 1.419 . S
C239 H221 0.948 . S
C240 C241 1.391 . S
C240 C244 1.391 . S
C240 H282 0.948 . S
C241 C240 1.391 . S
C241 C242 1.391 . S
C242 C241 1.391 . S
C242 H298 0.947 . S
C242 C299 1.392 . S
C243 C244 1.391 . S
C243 C247 1.397 . S
C243 C299 1.419 . S
C244 C240 1.391 . S
C244 C243 1.391 . S
C244 C245 1.399 . S
C245 C244 1.399 . S
C245 C248 1.396 . S
C245 C257 1.453 . S
C245 C258 1.684 . S
H246 C270 0.948 . S
C247 C243 1.397 . S
C247 C248 1.394 . S
C247 C266 1.723 . S
C248 C245 1.396 . S
C248 C247 1.394 . S
C248 C278 1.723 . S
H249 C272 0.947 . S
H250 C273 0.948 . S
H251 C279 0.982 . S
H252 C280 0.979 . S
H253 C280 0.980 . S
H254 C280 0.983 . S
H255 C279 0.979 . S
H256 C279 0.977 . S
C257 C245 1.453 . S
C257 H286 0.982 . S
C257 H287 0.979 . S
C257 H288 0.977 . S
C258 C245 1.684 . S
C258 H283 0.979 . S
C258 H284 0.980 . S
C258 H285 0.983 . S
C259 C260 1.391 . S
C259 C264 1.391 . S
C259 H289 0.948 . S
C260 C259 1.391 . S
C260 C261 1.391 . S
C261 C260 1.391 . S
C261 C262 1.392 . S
C261 H290 0.947 . S
C262 C261 1.392 . S
C262 C263 1.419 . S
C262 H291 0.948 . S
C263 C262 1.419 . S
C263 C264 1.391 . S
C263 C267 1.397 . S
C264 C259 1.391 . S
C264 C263 1.391 . S
C264 C265 1.399 . S
C265 C264 1.399 . S
C265 C266 1.396 . S
C265 C268 1.453 . S
C265 C269 1.684 . S
C266 C247 1.723 . S
C266 C265 1.396 . S
C266 C267 1.394 . S
C267 C263 1.397 . S
C267 C266 1.394 . S
C267 C277 1.723 . S
C268 C265 1.453 . S
C268 H292 0.982 . S
C268 H293 0.979 . S
C268 H294 0.977 . S
C269 C265 1.684 . S
C269 H295 0.979 . S
C269 H296 0.980 . S
C269 H297 0.983 . S
C270 H246 0.948 . S
C270 C271 1.391 . S
C270 C275 1.391 . S
C271 C270 1.391 . S
C271 C272 1.391 . S
C272 H249 0.947 . S
C272 C271 1.391 . S
C272 C273 1.392 . S
C273 H250 0.948 . S
C273 C272 1.392 . S
C273 C274 1.419 . S
C274 C273 1.419 . S
C274 C275 1.391 . S
C274 C278 1.397 . S
C275 C270 1.391 . S
C275 C274 1.391 . S
C275 C276 1.399 . S
C276 C275 1.399 . S
C276 C277 1.396 . S
C276 C279 1.453 . S
C276 C280 1.684 . S
C277 C267 1.723 . S
C277 C276 1.396 . S
C277 C278 1.394 . S
C278 C248 1.723 . S
C278 C274 1.397 . S
C278 C277 1.394 . S
C279 H251 0.982 . S
C279 H255 0.979 . S
C279 H256 0.977 . S
C279 C276 1.453 . S
C280 H252 0.979 . S
C280 H253 0.980 . S
C280 H254 0.983 . S
C280 C276 1.684 . S
H281 C299 0.948 . S
H282 C240 0.948 . S
H283 C258 0.979 . S
H284 C258 0.980 . S
H285 C258 0.983 . S
H286 C257 0.982 . S
H287 C257 0.979 . S
H288 C257 0.977 . S
H289 C259 0.948 . S
H290 C261 0.947 . S
H291 C262 0.948 . S
H292 C268 0.982 . S
H293 C268 0.979 . S
H294 C268 0.977 . S
H295 C269 0.979 . S
H296 C269 0.980 . S
H297 C269 0.983 . S
H298 C242 0.947 . S
C299 C242 1.392 . S
C299 C243 1.419 . S
C299 H281 0.948 . S
C300 C301 1.391 . S
C300 C304 1.391 . S
C300 H342 0.948 . S
C301 C300 1.391 . S
C301 C302 1.391 . S
C302 C301 1.391 . S
C302 H358 0.947 . S
C302 C359 1.392 . S
C303 C304 1.391 . S
C303 C307 1.397 . S
C303 C359 1.419 . S
C304 C300 1.391 . S
C304 C303 1.391 . S
C304 C305 1.399 . S
C305 C304 1.399 . S
C305 C308 1.396 . S
C305 C317 1.453 . S
C305 C318 1.684 . S
H306 C330 0.948 . S
C307 C303 1.397 . S
C307 C308 1.394 . S
C307 C326 1.723 . S
C308 C305 1.396 . S
C308 C307 1.394 . S
C308 C338 1.723 . S
H309 C332 0.947 . S
H310 C333 0.948 . S
H311 C339 0.982 . S
H312 C340 0.979 . S
H313 C340 0.980 . S
H314 C340 0.983 . S
H315 C339 0.979 . S
H316 C339 0.977 . S
C317 C305 1.453 . S
C317 H346 0.982 . S
C317 H347 0.979 . S
C317 H348 0.977 . S
C318 C305 1.684 . S
C318 H343 0.979 . S
C318 H344 0.980 . S
C318 H345 0.983 . S
C319 C320 1.391 . S
C319 C324 1.391 . S
C319 H349 0.948 . S
C320 C319 1.391 . S
C320 C321 1.391 . S
C321 C320 1.391 . S
C321 C322 1.392 . S
C321 H350 0.947 . S
C322 C321 1.392 . S
C322 C323 1.419 . S
C322 H351 0.948 . S
C323 C322 1.419 . S
C323 C324 1.391 . S
C323 C327 1.397 . S
C324 C319 1.391 . S
C324 C323 1.391 . S
C324 C325 1.399 . S
C325 C324 1.399 . S
C325 C326 1.396 . S
C325 C328 1.453 . S
C325 C329 1.684 . S
C326 C307 1.723 . S
C326 C325 1.396 . S
C326 C327 1.394 . S
C327 C323 1.397 . S
C327 C326 1.394 . S
C327 C337 1.723 . S
C328 C325 1.453 . S
C328 H352 0.982 . S
C328 H353 0.979 . S
C328 H354 0.977 . S
C329 C325 1.684 . S
C329 H355 0.979 . S
C329 H356 0.980 . S
C329 H357 0.983 . S
C330 H306 0.948 . S
C330 C331 1.391 . S
C330 C335 1.391 . S
C331 C330 1.391 . S
C331 C332 1.391 . S
C332 H309 0.947 . S
C332 C331 1.391 . S
C332 C333 1.392 . S
C333 H310 0.948 . S
C333 C332 1.392 . S
C333 C334 1.419 . S
C334 C333 1.419 . S
C334 C335 1.391 . S
C334 C338 1.397 . S
C335 C330 1.391 . S
C335 C334 1.391 . S
C335 C336 1.399 . S
C336 C335 1.399 . S
C336 C337 1.396 . S
C336 C339 1.453 . S
C336 C340 1.684 . S
C337 C327 1.723 . S
C337 C336 1.396 . S
C337 C338 1.394 . S
C338 C308 1.723 . S
C338 C334 1.397 . S
C338 C337 1.394 . S
C339 H311 0.982 . S
C339 H315 0.979 . S
C339 H316 0.977 . S
C339 C336 1.453 . S
C340 H312 0.979 . S
C340 H313 0.980 . S
C340 H314 0.983 . S
C340 C336 1.684 . S
H341 C359 0.948 . S
H342 C300 0.948 . S
H343 C318 0.979 . S
H344 C318 0.980 . S
H345 C318 0.983 . S
H346 C317 0.982 . S
H347 C317 0.979 . S
H348 C317 0.977 . S
H349 C319 0.948 . S
H350 C321 0.947 . S
H351 C322 0.948 . S
H352 C328 0.982 . S
H353 C328 0.979 . S
H354 C328 0.977 . S
H355 C329 0.979 . S
H356 C329 0.980 . S
H357 C329 0.983 . S
H358 C302 0.947 . S
C359 C302 1.392 . S
C359 C303 1.419 . S
C359 H341 0.948 . S
C360 C361 1.391 . S
C360 C364 1.391 . S
C360 H402 0.948 . S
C361 C360 1.391 . S
C361 C362 1.391 . S
C362 C361 1.391 . S
C362 H418 0.947 . S
C362 C419 1.392 . S
C363 C364 1.391 . S
C363 C367 1.397 . S
C363 C419 1.419 . S
C364 C360 1.391 . S
C364 C363 1.391 . S
C364 C365 1.399 . S
C365 C364 1.399 . S
C365 C368 1.396 . S
C365 C377 1.453 . S
C365 C378 1.684 . S
H366 C390 0.948 . S
C367 C363 1.397 . S
C367 C368 1.394 . S
C367 C386 1.723 . S
C368 C365 1.396 . S
C368 C367 1.394 . S
C368 C398 1.723 . S
H369 C392 0.947 . S
H370 C393 0.948 . S
H371 C399 0.982 . S
H372 C400 0.979 . S
H373 C400 0.980 . S
H374 C400 0.983 . S
H375 C399 0.979 . S
H376 C399 0.977 . S
C377 C365 1.453 . S
C377 H406 0.982 . S
C377 H407 0.979 . S
C377 H408 0.977 . S
C378 C365 1.684 . S
C378 H403 0.979 . S
C378 H404 0.980 . S
C378 H405 0.983 . S
C379 C380 1.391 . S
C379 C384 1.391 . S
C379 H409 0.948 . S
C380 C379 1.391 . S
C380 C381 1.391 . S
C381 C380 1.391 . S
C381 C382 1.392 . S
C381 H410 0.947 . S
C382 C381 1.392 . S
C382 C383 1.419 . S
C382 H411 0.948 . S
C383 C382 1.419 . S
C383 C384 1.391 . S
C383 C387 1.397 . S
C384 C379 1.391 . S
C384 C383 1.391 . S
C384 C385 1.399 . S
C385 C384 1.399 . S
C385 C386 1.396 . S
C385 C388 1.453 . S
C385 C389 1.684 . S
C386 C367 1.723 . S
C386 C385 1.396 . S
C386 C387 1.394 . S
C387 C383 1.397 . S
C387 C386 1.394 . S
C387 C397 1.723 . S
C388 C385 1.453 . S
C388 H412 0.982 . S
C388 H413 0.979 . S
C388 H414 0.977 . S
C389 C385 1.684 . S
C389 H415 0.979 . S
C389 H416 0.980 . S
C389 H417 0.983 . S
C390 H366 0.948 . S
C390 C391 1.391 . S
C390 C395 1.391 . S
C391 C390 1.391 . S
C391 C392 1.391 . S
C392 H369 0.947 . S
C392 C391 1.391 . S
C392 C393 1.392 . S
C393 H370 0.948 . S
C393 C392 1.392 . S
C393 C394 1.419 . S
C394 C393 1.419 . S
C394 C395 1.391 . S
C394 C398 1.397 . S
C395 C390 1.391 . S
C395 C394 1.391 . S
C395 C396 1.399 . S
C396 C395 1.399 . S
C396 C397 1.396 . S
C396 C399 1.453 . S
C396 C400 1.684 . S
C397 C387 1.723 . S
C397 C396 1.396 . S
C397 C398 1.394 . S
C398 C368 1.723 . S
C398 C394 1.397 . S
C398 C397 1.394 . S
C399 H371 0.982 . S
C399 H375 0.979 . S
C399 H376 0.977 . S
C399 C396 1.453 . S
C400 H372 0.979 . S
C400 H373 0.980 . S
C400 H374 0.983 . S
C400 C396 1.684 . S
H401 C419 0.948 . S
H402 C360 0.948 . S
H403 C378 0.979 . S
H404 C378 0.980 . S
H405 C378 0.983 . S
H406 C377 0.982 . S
H407 C377 0.979 . S
H408 C377 0.977 . S
H409 C379 0.948 . S
H410 C381 0.947 . S
H411 C382 0.948 . S
H412 C388 0.982 . S
H413 C388 0.979 . S
H414 C388 0.977 . S
H415 C389 0.979 . S
H416 C389 0.980 . S
H417 C389 0.983 . S
H418 C362 0.947 . S
C419 C362 1.392 . S
C419 C363 1.419 . S
C419 H401 0.948 . S
C420 C421 1.391 . S
C420 C424 1.391 . S
C420 H462 0.948 . S
C421 C420 1.391 . S
C421 C422 1.391 . S
C422 C421 1.391 . S
C422 H478 0.947 . S
C422 C479 1.392 . S
C423 C424 1.391 . S
C423 C427 1.397 . S
C423 C479 1.419 . S
C424 C420 1.391 . S
C424 C423 1.391 . S
C424 C425 1.399 . S
C425 C424 1.399 . S
C425 C428 1.396 . S
C425 C437 1.453 . S
C425 C438 1.684 . S
H426 C450 0.948 . S
C427 C423 1.397 . S
C427 C428 1.394 . S
C427 C446 1.723 . S
C428 C425 1.396 . S
C428 C427 1.394 . S
C428 C458 1.723 . S
H429 C452 0.947 . S
H430 C453 0.948 . S
H431 C459 0.982 . S
H432 C460 0.979 . S
H433 C460 0.980 . S
H434 C460 0.983 . S
H435 C459 0.979 . S
H436 C459 0.977 . S
C437 C425 1.453 . S
C437 H466 0.982 . S
C437 H467 0.979 . S
C437 H468 0.977 . S
C438 C425 1.684 . S
C438 H463 0.979 . S
C438 H464 0.980 . S
C438 H465 0.983 . S
C439 C440 1.391 . S
C439 C444 1.391 . S
C439 H469 0.948 . S
C440 C439 1.391 . S
C440 C441 1.391 . S
C441 C440 1.391 . S
C441 C442 1.392 . S
C441 H470 0.947 . S
C442 C441 1.392 . S
C442 C443 1.419 . S
C442 H471 0.948 . S
C443 C442 1.419 . S
C443 C444 1.391 . S
C443 C447 1.397 . S
C444 C439 1.391 . S
C444 C443 1.391 . S
C444 C445 1.399 . S
C445 C444 1.399 . S
C445 C446 1.396 . S
C445 C448 1.453 . S
C445 C449 1.684 . S
C446 C427 1.723 . S
C446 C445 1.396 . S
C446 C447 1.394 . S
C447 C443 1.397 . S
C447 C446 1.394 . S
C447 C457 1.723 . S
C448 C445 1.453 . S
C448 H472 0.982 . S
C448 H473 0.979 . S
C448 H474 0.977 . S
C449 C445 1.684 . S
C449 H475 0.979 . S
C449 H476 0.980 . S
C449 H477 0.983 . S
C450 H426 0.948 . S
C450 C451 1.391 . S
C450 C455 1.391 . S
C451 C450 1.391 . S
C451 C452 1.391 . S
C452 H429 0.947 . S
C452 C451 1.391 . S
C452 C453 1.392 . S
C453 H430 0.948 . S
C453 C452 1.392 . S
C453 C454 1.419 . S
C454 C453 1.419 . S
C454 C455 1.391 . S
C454 C458 1.397 . S
C455 C450 1.391 . S
C455 C454 1.391 . S
C455 C456 1.399 . S
C456 C455 1.399 . S
C456 C457 1.396 . S
C456 C459 1.453 . S
C456 C460 1.684 . S
C457 C447 1.723 . S
C457 C456 1.396 . S
C457 C458 1.394 . S
C458 C428 1.723 . S
C458 C454 1.397 . S
C458 C457 1.394 . S
C459 H431 0.982 . S
C459 H435 0.979 . S
C459 H436 0.977 . S
C459 C456 1.453 . S
C460 H432 0.979 . S
C460 H433 0.980 . S
C460 H434 0.983 . S
C460 C456 1.684 . S
H461 C479 0.948 . S
H462 C420 0.948 . S
H463 C438 0.979 . S
H464 C438 0.980 . S
H465 C438 0.983 . S
H466 C437 0.982 . S
H467 C437 0.979 . S
H468 C437 0.977 . S
H469 C439 0.948 . S
H470 C441 0.947 . S
H471 C442 0.948 . S
H472 C448 0.982 . S
H473 C448 0.979 . S
H474 C448 0.977 . S
H475 C449 0.979 . S
H476 C449 0.980 . S
H477 C449 0.983 . S
H478 C422 0.947 . S
C479 C422 1.392 . S
C479 C423 1.419 . S
C479 H461 0.948 . S
Dy480 O484 2.398 . S
Dy480 O485 2.491 . S
Dy480 O486 2.403 1_545 S
Dy480 O487 2.664 1_545 S
Dy480 O491 2.326 . S
Dy480 O495 2.310 1_455 S
Dy480 O496 2.351 1_445 S
C481 O492 1.185 . S
C481 O493 1.355 . S
C482 O484 1.185 . S
C482 O485 1.355 . S
Dy483 O487 2.310 1_655 S
Dy483 O490 2.351 1_665 S
Dy483 O492 2.398 . S
Dy483 O493 2.491 . S
Dy483 O494 2.403 1_565 S
Dy483 O495 2.664 1_565 S
Dy483 O497 2.326 . S
O484 Dy480 2.398 . S
O484 C482 1.185 . S
O485 Dy480 2.491 . S
O485 C482 1.355 . S
O486 Dy480 2.403 1_565 S
O486 C488 1.254 . S
O487 Dy480 2.664 1_565 S
O487 Dy483 2.310 1_455 S
O487 C488 1.268 . S
C488 O486 1.254 . S
C488 O487 1.268 . S
C489 O494 1.254 . S
C489 O495 1.268 . S
O490 Dy483 2.351 1_445 S
O490 C498 1.249 . S
O491 Dy480 2.326 . S
O491 C498 1.267 . S
O492 C481 1.185 . S
O492 Dy483 2.398 . S
O493 C481 1.355 . S
O493 Dy483 2.491 . S
O494 Dy483 2.403 1_545 S
O494 C489 1.254 . S
O495 Dy480 2.310 1_655 S
O495 Dy483 2.664 1_545 S
O495 C489 1.268 . S
O496 Dy480 2.351 1_665 S
O496 C499 1.249 . S
O497 Dy483 2.326 . S
O497 C499 1.267 . S
C498 O490 1.249 . S
C498 O491 1.267 . S
C499 O496 1.249 . S
C499 O497 1.267 . S
Dy500 O504 2.398 . S
Dy500 O505 2.491 . S
Dy500 O506 2.403 1_545 S
Dy500 O507 2.664 1_545 S
Dy500 O511 2.326 . S
Dy500 O515 2.310 1_554 S
Dy500 O516 2.351 1_544 S
C501 O512 1.185 . S
C501 O513 1.355 . S
C502 O504 1.185 . S
C502 O505 1.355 . S
Dy503 O507 2.334 1_556 S
Dy503 O510 2.331 1_566 S
Dy503 O512 2.403 . S
Dy503 O513 2.525 . S
Dy503 O514 2.373 1_565 S
Dy503 O515 2.646 1_565 S
Dy503 O517 2.342 . S
O504 Dy500 2.398 . S
O504 C502 1.185 . S
O505 Dy500 2.491 . S
O505 C502 1.355 . S
O506 Dy500 2.403 1_565 S
O506 C508 1.254 . S
O507 Dy500 2.664 1_565 S
O507 Dy503 2.334 1_554 S
O507 C508 1.268 . S
C508 O506 1.254 . S
C508 O507 1.268 . S
C509 O514 1.254 . S
C509 O515 1.268 . S
O510 Dy503 2.331 1_544 S
O510 C518 1.249 . S
O511 Dy500 2.326 . S
O511 C518 1.267 . S
O512 C501 1.185 . S
O512 Dy503 2.403 . S
O513 C501 1.355 . S
O513 Dy503 2.525 . S
O514 Dy503 2.373 1_545 S
O514 C509 1.254 . S
O515 Dy500 2.310 1_556 S
O515 Dy503 2.646 1_545 S
O515 C509 1.268 . S
O516 Dy500 2.351 1_566 S
O516 C519 1.249 . S
O517 Dy503 2.342 . S
O517 C519 1.267 . S
C518 O510 1.249 . S
C518 O511 1.267 . S
C519 O516 1.249 . S
C519 O517 1.267 . S
Dy520 O524 2.398 . S
Dy520 O525 2.491 . S
Dy520 O526 2.403 . S
Dy520 O527 2.664 . S
Dy520 O531 2.326 . S
Dy520 O535 2.310 . S
Dy520 O536 2.351 . S
C521 O532 1.185 . S
C521 O533 1.355 . S
C522 O524 1.185 . S
C522 O525 1.355 . S
Dy523 O527 2.310 . S
Dy523 O530 2.351 . S
Dy523 O532 2.398 . S
Dy523 O533 2.491 . S
Dy523 O534 2.403 . S
Dy523 O535 2.664 . S
Dy523 O537 2.326 . S
O524 Dy520 2.398 . S
O524 C522 1.185 . S
O525 Dy520 2.491 . S
O525 C522 1.355 . S
O526 Dy520 2.403 . S
O526 C528 1.254 . S
O527 Dy520 2.664 . S
O527 Dy523 2.310 . S
O527 C528 1.268 . S
C528 O526 1.254 . S
C528 O527 1.268 . S
C529 O534 1.254 . S
C529 O535 1.268 . S
O530 Dy523 2.351 . S
O530 C538 1.249 . S
O531 Dy520 2.326 . S
O531 C538 1.267 . S
O532 C521 1.185 . S
O532 Dy523 2.398 . S
O533 C521 1.355 . S
O533 Dy523 2.491 . S
O534 Dy523 2.403 . S
O534 C529 1.254 . S
O535 Dy520 2.310 . S
O535 Dy523 2.664 . S
O535 C529 1.268 . S
O536 Dy520 2.351 . S
O536 C539 1.249 . S
O537 Dy523 2.326 . S
O537 C539 1.267 . S
C538 O530 1.249 . S
C538 O531 1.267 . S
C539 O536 1.249 . S
C539 O537 1.267 . S
Dy540 O544 2.398 . S
Dy540 O545 2.491 . S
Dy540 O546 2.403 1_455 S
Dy540 O547 2.664 1_455 S
Dy540 O551 2.326 . S
Dy540 O555 2.310 1_554 S
Dy540 O556 2.351 1_454 S
C541 O552 1.185 . S
C541 O553 1.355 . S
C542 O544 1.185 . S
C542 O545 1.355 . S
Dy543 O547 2.310 1_556 S
Dy543 O550 2.351 1_656 S
Dy543 O552 2.398 . S
Dy543 O553 2.491 . S
Dy543 O554 2.403 1_655 S
Dy543 O555 2.664 1_655 S
Dy543 O557 2.326 . S
O544 Dy540 2.398 . S
O544 C542 1.185 . S
O545 Dy540 2.491 . S
O545 C542 1.355 . S
O546 Dy540 2.403 1_655 S
O546 C548 1.254 . S
O547 Dy540 2.664 1_655 S
O547 Dy543 2.310 1_554 S
O547 C548 1.268 . S
C548 O546 1.254 . S
C548 O547 1.268 . S
C549 O554 1.254 . S
C549 O555 1.268 . S
O550 Dy543 2.351 1_454 S
O550 C558 1.249 . S
O551 Dy540 2.326 . S
O551 C558 1.267 . S
O552 C541 1.185 . S
O552 Dy543 2.398 . S
O553 C541 1.355 . S
O553 Dy543 2.491 . S
O554 Dy543 2.403 1_455 S
O554 C549 1.254 . S
O555 Dy540 2.310 1_556 S
O555 Dy543 2.664 1_455 S
O555 C549 1.268 . S
O556 Dy540 2.351 1_656 S
O556 C559 1.249 . S
O557 Dy543 2.326 . S
O557 C559 1.267 . S
C558 O550 1.249 . S
C558 O551 1.267 . S
C559 O556 1.249 . S
C559 O557 1.267 . S
C560 C561 1.391 . S
C560 C562 1.394 . S
C560 H576 0.931 . S
C561 C560 1.391 . S
C561 C565 1.376 . S
C562 C560 1.394 . S
C562 C563 1.369 . S
C562 C566 1.531 . S
C563 C562 1.369 . S
C563 C564 1.410 . S
C563 C571 1.503 . S
C564 C563 1.410 . S
C564 C565 1.392 . S
C564 C567 1.511 . S
C565 C561 1.376 . S
C565 C564 1.392 . S
C565 H577 0.929 . S
C566 C562 1.531 . S
C566 H578 0.960 . S
C566 H579 0.962 . S
C566 H580 0.960 . S
C567 C564 1.511 . S
C567 H581 0.961 . S
C567 H582 0.961 . S
C567 H583 0.961 . S
C568 C569 1.370 . S
C568 C570 1.363 . S
C568 H584 0.931 . S
C569 C568 1.370 . S
C569 C573 1.408 . S
C570 C568 1.363 . S
C570 C571 1.370 . S
C570 C574 1.524 . S
C571 C563 1.503 . S
C571 C570 1.370 . S
C571 C572 1.403 . S
C572 C571 1.403 . S
C572 C573 1.404 . S
C572 C575 1.539 . S
C573 C569 1.408 . S
C573 C572 1.404 . S
C573 H585 0.930 . S
C574 C570 1.524 . S
C574 H586 0.956 . S
C574 H587 0.961 . S
C574 H588 0.961 . S
C575 C572 1.539 . S
C575 H589 0.958 . S
C575 H590 0.961 . S
C575 H591 0.960 . S
H576 C560 0.931 . S
H577 C565 0.929 . S
H578 C566 0.960 . S
H579 C566 0.962 . S
H580 C566 0.960 . S
H581 C567 0.961 . S
H582 C567 0.961 . S
H583 C567 0.961 . S
H584 C568 0.931 . S
H585 C573 0.930 . S
H586 C574 0.956 . S
H587 C574 0.961 . S
H588 C574 0.961 . S
H589 C575 0.958 . S
H590 C575 0.961 . S
H591 C575 0.960 . S
C592 C593 1.391 . S
C592 C594 1.394 . S
C592 H608 0.931 . S
C593 C592 1.391 . S
C593 C597 1.376 . S
C594 C592 1.394 . S
C594 C595 1.369 . S
C594 C598 1.531 . S
C595 C594 1.369 . S
C595 C596 1.410 . S
C595 C603 1.503 . S
C596 C595 1.410 . S
C596 C597 1.392 . S
C596 C599 1.511 . S
C597 C593 1.376 . S
C597 C596 1.392 . S
C597 H609 0.929 . S
C598 C594 1.531 . S
C598 H610 0.960 . S
C598 H611 0.962 . S
C598 H612 0.960 . S
C599 C596 1.511 . S
C599 H613 0.961 . S
C599 H614 0.961 . S
C599 H615 0.961 . S
C600 C601 1.370 . S
C600 C602 1.363 . S
C600 H616 0.931 . S
C601 C600 1.370 . S
C601 C605 1.408 . S
C602 C600 1.363 . S
C602 C603 1.370 . S
C602 C606 1.524 . S
C603 C595 1.503 . S
C603 C602 1.370 . S
C603 C604 1.403 . S
C604 C603 1.403 . S
C604 C605 1.404 . S
C604 C607 1.539 . S
C605 C601 1.408 . S
C605 C604 1.404 . S
C605 H617 0.930 . S
C606 C602 1.524 . S
C606 H618 0.956 . S
C606 H619 0.961 . S
C606 H620 0.961 . S
C607 C604 1.539 . S
C607 H621 0.958 1_565 S
C607 H622 0.961 . S
C607 H623 0.960 . S
H608 C592 0.931 . S
H609 C597 0.929 . S
H610 C598 0.960 . S
H611 C598 0.962 . S
H612 C598 0.960 . S
H613 C599 0.961 . S
H614 C599 0.961 . S
H615 C599 0.961 . S
H616 C600 0.931 . S
H617 C605 0.930 . S
H618 C606 0.956 . S
H619 C606 0.961 . S
H620 C606 0.961 . S
H621 C607 0.958 1_545 S
H622 C607 0.961 . S
H623 C607 0.960 . S
C624 C625 1.391 . S
C624 C626 1.394 . S
C624 H640 0.931 . S
C625 C624 1.391 . S
C625 C629 1.376 . S
C626 C624 1.394 . S
C626 C627 1.369 . S
C626 C630 1.531 . S
C627 C626 1.369 . S
C627 C628 1.410 . S
C627 C635 1.503 . S
C628 C627 1.410 . S
C628 C629 1.392 . S
C628 C631 1.511 . S
C629 C625 1.376 . S
C629 C628 1.392 . S
C629 H641 0.929 . S
C630 C626 1.531 . S
C630 H642 0.960 . S
C630 H643 0.962 . S
C630 H644 0.960 . S
C631 C628 1.511 . S
C631 H645 0.961 . S
C631 H646 0.961 . S
C631 H647 0.961 . S
C632 C633 1.370 . S
C632 C634 1.363 . S
C632 H648 0.931 . S
C633 C632 1.370 . S
C633 C637 1.408 . S
C634 C632 1.363 . S
C634 C635 1.370 . S
C634 C638 1.524 . S
C635 C627 1.503 . S
C635 C634 1.370 . S
C635 C636 1.403 . S
C636 C635 1.403 . S
C636 C637 1.404 . S
C636 C639 1.539 . S
C637 C633 1.408 . S
C637 C636 1.404 . S
C637 H649 0.930 . S
C638 C634 1.524 . S
C638 H650 0.956 . S
C638 H651 0.961 . S
C638 H652 0.961 . S
C639 C636 1.539 . S
C639 H653 0.958 . S
C639 H654 0.961 . S
C639 H655 0.960 . S
H640 C624 0.931 . S
H641 C629 0.929 . S
H642 C630 0.960 . S
H643 C630 0.962 . S
H644 C630 0.960 . S
H645 C631 0.961 . S
H646 C631 0.961 . S
H647 C631 0.961 . S
H648 C632 0.931 . S
H649 C637 0.930 . S
H650 C638 0.956 . S
H651 C638 0.961 . S
H652 C638 0.961 . S
H653 C639 0.958 . S
H654 C639 0.961 . S
H655 C639 0.960 . S
C656 C657 1.391 . S
C656 C658 1.394 . S
C656 H672 0.931 . S
C657 C656 1.391 . S
C657 C661 1.376 . S
C658 C656 1.394 . S
C658 C659 1.369 . S
C658 C662 1.531 . S
C659 C658 1.369 . S
C659 C660 1.410 . S
C659 C667 1.503 . S
C660 C659 1.410 . S
C660 C661 1.392 . S
C660 C663 1.511 . S
C661 C657 1.376 . S
C661 C660 1.392 . S
C661 H673 0.929 . S
C662 C658 1.531 . S
C662 H674 0.960 . S
C662 H675 0.962 . S
C662 H676 0.960 . S
C663 C660 1.511 . S
C663 H677 0.961 . S
C663 H678 0.961 . S
C663 H679 0.961 . S
C664 C665 1.370 . S
C664 C666 1.363 . S
C664 H680 0.931 . S
C665 C664 1.370 . S
C665 C669 1.408 . S
C666 C664 1.363 . S
C666 C667 1.370 . S
C666 C670 1.524 . S
C667 C659 1.503 . S
C667 C666 1.370 . S
C667 C668 1.403 . S
C668 C667 1.403 . S
C668 C669 1.404 . S
C668 C671 1.539 1_655 S
C669 C665 1.408 . S
C669 C668 1.404 . S
C669 H681 0.930 1_655 S
C670 C666 1.524 . S
C670 H682 0.956 . S
C670 H683 0.961 . S
C670 H684 0.961 . S
C671 C668 1.539 1_455 S
C671 H685 0.958 . S
C671 H686 0.961 . S
C671 H687 0.960 1_455 S
H672 C656 0.931 . S
H673 C661 0.929 . S
H674 C662 0.960 . S
H675 C662 0.962 . S
H676 C662 0.960 . S
H677 C663 0.961 . S
H678 C663 0.961 . S
H679 C663 0.961 . S
H680 C664 0.931 . S
H681 C669 0.930 1_455 S
H682 C670 0.956 . S
H683 C670 0.961 . S
H684 C670 0.961 . S
H685 C671 0.958 . S
H686 C671 0.961 . S
H687 C671 0.960 1_655 S
C688 C689 1.391 . S
C688 C690 1.394 . S
C688 H704 0.931 . S
C689 C688 1.391 . S
C689 C693 1.376 . S
C690 C688 1.394 . S
C690 C691 1.369 . S
C690 C694 1.531 . S
C691 C690 1.369 . S
C691 C692 1.410 . S
C691 C699 1.503 . S
C692 C691 1.410 . S
C692 C693 1.392 . S
C692 C695 1.511 . S
C693 C689 1.376 . S
C693 C692 1.392 . S
C693 H705 0.929 . S
C694 C690 1.531 . S
C694 H706 0.960 . S
C694 H707 0.962 . S
C694 H708 0.960 . S
C695 C692 1.511 . S
C695 H709 0.961 . S
C695 H710 0.961 . S
C695 H711 0.961 . S
C696 C697 1.370 . S
C696 C698 1.363 . S
C696 H712 0.931 . S
C697 C696 1.370 . S
C697 C701 1.408 . S
C698 C696 1.363 . S
C698 C699 1.370 . S
C698 C702 1.524 . S
C699 C691 1.503 . S
C699 C698 1.370 . S
C699 C700 1.403 . S
C700 C699 1.403 . S
C700 C701 1.404 . S
C700 C703 1.539 . S
C701 C697 1.408 . S
C701 C700 1.404 . S
C701 H713 0.930 . S
C702 C698 1.524 . S
C702 H714 0.956 . S
C702 H715 0.961 . S
C702 H716 0.961 . S
C703 C700 1.539 . S
C703 H717 0.958 . S
C703 H718 0.961 . S
C703 H719 0.960 . S
H704 C688 0.931 . S
H705 C693 0.929 . S
H706 C694 0.960 . S
H707 C694 0.962 . S
H708 C694 0.960 . S
H709 C695 0.961 . S
H710 C695 0.961 . S
H711 C695 0.961 . S
H712 C696 0.931 . S
H713 C701 0.930 . S
H714 C702 0.956 . S
H715 C702 0.961 . S
H716 C702 0.961 . S
H717 C703 0.958 . S
H718 C703 0.961 . S
H719 C703 0.960 . S
C720 C721 1.391 . S
C720 C722 1.394 . S
C720 H736 0.931 . S
C721 C720 1.391 . S
C721 C725 1.376 . S
C722 C720 1.394 . S
C722 C723 1.369 . S
C722 C726 1.531 . S
C723 C722 1.369 . S
C723 C724 1.410 . S
C723 C731 1.503 . S
C724 C723 1.410 . S
C724 C725 1.392 . S
C724 C727 1.511 . S
C725 C721 1.376 . S
C725 C724 1.392 . S
C725 H737 0.929 . S
C726 C722 1.531 . S
C726 H738 0.960 . S
C726 H739 0.962 . S
C726 H740 0.960 . S
C727 C724 1.511 . S
C727 H741 0.961 . S
C727 H742 0.961 . S
C727 H743 0.961 . S
C728 C729 1.370 . S
C728 C730 1.363 . S
C728 H744 0.931 . S
C729 C728 1.370 . S
C729 C733 1.408 . S
C730 C728 1.363 . S
C730 C731 1.370 . S
C730 C734 1.524 . S
C731 C723 1.503 . S
C731 C730 1.370 . S
C731 C732 1.403 . S
C732 C731 1.403 . S
C732 C733 1.404 . S
C732 C735 1.539 . S
C733 C729 1.408 . S
C733 C732 1.404 . S
C733 H745 0.930 . S
C734 C730 1.524 . S
C734 H746 0.956 . S
C734 H747 0.961 . S
C734 H748 0.961 . S
C735 C732 1.539 . S
C735 H749 0.958 . S
C735 H750 0.961 . S
C735 H751 0.960 . S
H736 C720 0.931 . S
H737 C725 0.929 . S
H738 C726 0.960 . S
H739 C726 0.962 . S
H740 C726 0.960 . S
H741 C727 0.961 . S
H742 C727 0.961 . S
H743 C727 0.961 . S
H744 C728 0.931 . S
H745 C733 0.930 . S
H746 C734 0.956 . S
H747 C734 0.961 . S
H748 C734 0.961 . S
H749 C735 0.958 . S
H750 C735 0.961 . S
H751 C735 0.960 . S
C752 C753 1.391 . S
C752 C754 1.394 . S
C752 H768 0.931 . S
C753 C752 1.391 . S
C753 C757 1.376 . S
C754 C752 1.394 . S
C754 C755 1.369 . S
C754 C758 1.531 . S
C755 C754 1.369 . S
C755 C756 1.410 . S
C755 C763 1.503 . S
C756 C755 1.410 . S
C756 C757 1.392 . S
C756 C759 1.511 . S
C757 C753 1.376 . S
C757 C756 1.392 . S
C757 H769 0.929 . S
C758 C754 1.531 . S
C758 H770 0.960 . S
C758 H771 0.962 . S
C758 H772 0.960 . S
C759 C756 1.511 . S
C759 H773 0.961 . S
C759 H774 0.961 . S
C759 H775 0.961 . S
C760 C761 1.370 . S
C760 C762 1.363 . S
C760 H776 0.931 . S
C761 C760 1.370 . S
C761 C765 1.408 . S
C762 C760 1.363 . S
C762 C763 1.370 . S
C762 C766 1.524 . S
C763 C755 1.503 . S
C763 C762 1.370 . S
C763 C764 1.403 . S
C764 C763 1.403 . S
C764 C765 1.404 . S
C764 C767 1.539 . S
C765 C761 1.408 . S
C765 C764 1.404 . S
C765 H777 0.930 . S
C766 C762 1.524 . S
C766 H778 0.956 . S
C766 H779 0.961 . S
C766 H780 0.961 . S
C767 C764 1.539 . S
C767 H781 0.958 . S
C767 H782 0.961 . S
C767 H783 0.960 . S
H768 C752 0.931 . S
H769 C757 0.929 . S
H770 C758 0.960 . S
H771 C758 0.962 . S
H772 C758 0.960 . S
H773 C759 0.961 . S
H774 C759 0.961 . S
H775 C759 0.961 . S
H776 C760 0.931 . S
H777 C765 0.930 . S
H778 C766 0.956 . S
H779 C766 0.961 . S
H780 C766 0.961 . S
H781 C767 0.958 . S
H782 C767 0.961 . S
H783 C767 0.960 . S
C784 C785 1.391 . S
C784 C786 1.394 . S
C784 H800 0.931 . S
C785 C784 1.391 . S
C785 C789 1.376 . S
C786 C784 1.394 . S
C786 C787 1.369 . S
C786 C790 1.531 . S
C787 C786 1.369 . S
C787 C788 1.410 . S
C787 C795 1.503 . S
C788 C787 1.410 . S
C788 C789 1.392 . S
C788 C791 1.511 . S
C789 C785 1.376 . S
C789 C788 1.392 . S
C789 H801 0.929 . S
C790 C786 1.531 . S
C790 H802 0.960 . S
C790 H803 0.962 . S
C790 H804 0.960 . S
C791 C788 1.511 . S
C791 H805 0.961 . S
C791 H806 0.961 . S
C791 H807 0.961 . S
C792 C793 1.370 . S
C792 C794 1.363 . S
C792 H808 0.931 . S
C793 C792 1.370 . S
C793 C797 1.408 . S
C794 C792 1.363 . S
C794 C795 1.370 . S
C794 C798 1.524 . S
C795 C787 1.503 . S
C795 C794 1.370 . S
C795 C796 1.403 . S
C796 C795 1.403 . S
C796 C797 1.404 . S
C796 C799 1.539 . S
C797 C793 1.408 . S
C797 C796 1.404 . S
C797 H809 0.930 . S
C798 C794 1.524 . S
C798 H810 0.956 . S
C798 H811 0.961 . S
C798 H812 0.961 . S
C799 C796 1.539 . S
C799 H813 0.958 . S
C799 H814 0.961 . S
C799 H815 0.960 . S
H800 C784 0.931 . S
H801 C789 0.929 . S
H802 C790 0.960 . S
H803 C790 0.962 . S
H804 C790 0.960 . S
H805 C791 0.961 . S
H806 C791 0.961 . S
H807 C791 0.961 . S
H808 C792 0.931 . S
H809 C797 0.930 . S
H810 C798 0.956 . S
H811 C798 0.961 . S
H812 C798 0.961 . S
H813 C799 0.958 . S
H814 C799 0.961 . S
H815 C799 0.960 . S
C816 C817 1.391 . S
C816 C818 1.394 . S
C816 H832 0.931 . S
C817 C816 1.391 . S
C817 C821 1.376 . S
C818 C816 1.394 . S
C818 C819 1.369 . S
C818 C822 1.531 . S
C819 C818 1.369 . S
C819 C820 1.410 . S
C819 C827 1.503 . S
C820 C819 1.410 . S
C820 C821 1.392 . S
C820 C823 1.511 . S
C821 C817 1.376 . S
C821 C820 1.392 . S
C821 H833 0.929 . S
C822 C818 1.531 . S
C822 H834 0.960 . S
C822 H835 0.962 . S
C822 H836 0.960 . S
C823 C820 1.511 . S
C823 H837 0.961 . S
C823 H838 0.961 . S
C823 H839 0.961 . S
C824 C825 1.370 . S
C824 C826 1.363 . S
C824 H840 0.931 . S
C825 C824 1.370 . S
C825 C829 1.408 . S
C826 C824 1.363 . S
C826 C827 1.370 . S
C826 C830 1.524 . S
C827 C819 1.503 . S
C827 C826 1.370 . S
C827 C828 1.403 . S
C828 C827 1.403 . S
C828 C829 1.404 . S
C828 C831 1.539 . S
C829 C825 1.408 . S
C829 C828 1.404 . S
C829 H841 0.930 . S
C830 C826 1.524 . S
C830 H842 0.956 . S
C830 H843 0.961 . S
C830 H844 0.961 . S
C831 C828 1.539 . S
C831 H845 0.958 . S
C831 H846 0.961 . S
C831 H847 0.960 . S
H832 C816 0.931 . S
H833 C821 0.929 . S
H834 C822 0.960 . S
H835 C822 0.962 . S
H836 C822 0.960 . S
H837 C823 0.961 . S
H838 C823 0.961 . S
H839 C823 0.961 . S
H840 C824 0.931 . S
H841 C829 0.930 . S
H842 C830 0.956 . S
H843 C830 0.961 . S
H844 C830 0.961 . S
H845 C831 0.958 . S
H846 C831 0.961 . S
H847 C831 0.960 . S
C848 C849 1.391 . S
C848 C850 1.394 . S
C848 H864 0.931 . S
C849 C848 1.391 . S
C849 C853 1.376 . S
C850 C848 1.394 . S
C850 C851 1.369 . S
C850 C854 1.531 . S
C851 C850 1.369 . S
C851 C852 1.410 . S
C851 C859 1.503 . S
C852 C851 1.410 . S
C852 C853 1.392 . S
C852 C855 1.511 . S
C853 C849 1.376 . S
C853 C852 1.392 . S
C853 H865 0.929 . S
C854 C850 1.531 . S
C854 H866 0.960 . S
C854 H867 0.962 . S
C854 H868 0.960 . S
C855 C852 1.511 . S
C855 H869 0.961 . S
C855 H870 0.961 . S
C855 H871 0.961 . S
C856 C857 1.370 . S
C856 C858 1.363 . S
C856 H872 0.931 . S
C857 C856 1.370 . S
C857 C861 1.408 . S
C858 C856 1.363 . S
C858 C859 1.370 . S
C858 C862 1.524 . S
C859 C851 1.503 . S
C859 C858 1.370 . S
C859 C860 1.403 . S
C860 C859 1.403 . S
C860 C861 1.404 . S
C860 C863 1.539 . S
C861 C857 1.408 . S
C861 C860 1.404 . S
C861 H873 0.930 . S
C862 C858 1.524 . S
C862 H874 0.956 . S
C862 H875 0.961 . S
C862 H876 0.961 . S
C863 C860 1.539 . S
C863 H877 0.958 . S
C863 H878 0.961 . S
C863 H879 0.960 . S
H864 C848 0.931 . S
H865 C853 0.929 . S
H866 C854 0.960 . S
H867 C854 0.962 . S
H868 C854 0.960 . S
H869 C855 0.961 . S
H870 C855 0.961 . S
H871 C855 0.961 . S
H872 C856 0.931 . S
H873 C861 0.930 . S
H874 C862 0.956 . S
H875 C862 0.961 . S
H876 C862 0.961 . S
H877 C863 0.958 . S
H878 C863 0.961 . S
H879 C863 0.960 . S
C880 C881 1.391 . S
C880 C882 1.394 . S
C880 H896 0.931 . S
C881 C880 1.391 . S
C881 C885 1.376 . S
C882 C880 1.394 . S
C882 C883 1.369 . S
C882 C886 1.531 . S
C883 C882 1.369 . S
C883 C884 1.410 . S
C883 C891 1.503 . S
C884 C883 1.410 . S
C884 C885 1.392 . S
C884 C887 1.511 . S
C885 C881 1.376 . S
C885 C884 1.392 . S
C885 H897 0.929 . S
C886 C882 1.531 . S
C886 H898 0.960 . S
C886 H899 0.962 . S
C886 H900 0.960 . S
C887 C884 1.511 . S
C887 H901 0.961 . S
C887 H902 0.961 . S
C887 H903 0.961 . S
C888 C889 1.370 . S
C888 C890 1.363 . S
C888 H904 0.931 . S
C889 C888 1.370 . S
C889 C893 1.408 . S
C890 C888 1.363 . S
C890 C891 1.370 . S
C890 C894 1.524 . S
C891 C883 1.503 . S
C891 C890 1.370 . S
C891 C892 1.403 . S
C892 C891 1.403 . S
C892 C893 1.404 . S
C892 C895 1.539 . S
C893 C889 1.408 . S
C893 C892 1.404 . S
C893 H905 0.930 . S
C894 C890 1.524 . S
C894 H906 0.956 . S
C894 H907 0.961 . S
C894 H908 0.961 . S
C895 C892 1.539 . S
C895 H909 0.958 . S
C895 H910 0.961 . S
C895 H911 0.960 . S
H896 C880 0.931 . S
H897 C885 0.929 . S
H898 C886 0.960 . S
H899 C886 0.962 . S
H900 C886 0.960 . S
H901 C887 0.961 . S
H902 C887 0.961 . S
H903 C887 0.961 . S
H904 C888 0.931 . S
H905 C893 0.930 . S
H906 C894 0.956 . S
H907 C894 0.961 . S
H908 C894 0.961 . S
H909 C895 0.958 . S
H910 C895 0.961 . S
H911 C895 0.960 . S
C912 C913 1.391 . S
C912 C914 1.394 . S
C912 H928 0.931 . S
C913 C912 1.391 . S
C913 C917 1.376 . S
C914 C912 1.394 . S
C914 C915 1.369 . S
C914 C918 1.531 . S
C915 C914 1.369 . S
C915 C916 1.410 . S
C915 C923 1.503 . S
C916 C915 1.410 . S
C916 C917 1.392 . S
C916 C919 1.511 . S
C917 C913 1.376 . S
C917 C916 1.392 . S
C917 H929 0.929 . S
C918 C914 1.531 . S
C918 H930 0.960 . S
C918 H931 0.962 . S
C918 H932 0.960 . S
C919 C916 1.511 . S
C919 H933 0.961 . S
C919 H934 0.961 . S
C919 H935 0.961 . S
C920 C921 1.370 . S
C920 C922 1.363 . S
C920 H936 0.931 . S
C921 C920 1.370 . S
C921 C925 1.408 . S
C922 C920 1.363 . S
C922 C923 1.370 . S
C922 C926 1.524 . S
C923 C915 1.503 . S
C923 C922 1.370 . S
C923 C924 1.403 . S
C924 C923 1.403 . S
C924 C925 1.404 . S
C924 C927 1.539 . S
C925 C921 1.408 . S
C925 C924 1.404 . S
C925 H937 0.930 . S
C926 C922 1.524 . S
C926 H938 0.956 . S
C926 H939 0.961 . S
C926 H940 0.961 . S
C927 C924 1.539 . S
C927 H941 0.958 . S
C927 H942 0.961 . S
C927 H943 0.960 . S
H928 C912 0.931 . S
H929 C917 0.929 . S
H930 C918 0.960 . S
H931 C918 0.962 . S
H932 C918 0.960 . S
H933 C919 0.961 . S
H934 C919 0.961 . S
H935 C919 0.961 . S
H936 C920 0.931 . S
H937 C925 0.930 . S
H938 C926 0.956 . S
H939 C926 0.961 . S
H940 C926 0.961 . S
H941 C927 0.958 . S
H942 C927 0.961 . S
H943 C927 0.960 . S
C944 C945 1.391 . S
C944 C946 1.394 . S
C944 H960 0.931 . S
C945 C944 1.391 . S
C945 C949 1.376 . S
C946 C944 1.394 . S
C946 C947 1.369 . S
C946 C950 1.531 . S
C947 C946 1.369 . S
C947 C948 1.410 . S
C947 C955 1.503 . S
C948 C947 1.410 . S
C948 C949 1.392 . S
C948 C951 1.511 . S
C949 C945 1.376 . S
C949 C948 1.392 . S
C949 H961 0.929 . S
C950 C946 1.531 . S
C950 H962 0.960 . S
C950 H963 0.962 . S
C950 H964 0.960 . S
C951 C948 1.511 . S
C951 H965 0.961 . S
C951 H966 0.961 . S
C951 H967 0.961 . S
C952 C953 1.370 . S
C952 C954 1.363 . S
C952 H968 0.931 . S
C953 C952 1.370 . S
C953 C957 1.408 . S
C954 C952 1.363 . S
C954 C955 1.370 . S
C954 C958 1.524 . S
C955 C947 1.503 . S
C955 C954 1.370 . S
C955 C956 1.403 . S
C956 C955 1.403 . S
C956 C957 1.404 . S
C956 C959 1.539 . S
C957 C953 1.408 . S
C957 C956 1.404 . S
C957 H969 0.930 . S
C958 C954 1.524 . S
C958 H970 0.956 . S
C958 H971 0.961 . S
C958 H972 0.961 . S
C959 C956 1.539 . S
C959 H973 0.958 . S
C959 H974 0.961 . S
C959 H975 0.960 . S
H960 C944 0.931 . S
H961 C949 0.929 . S
H962 C950 0.960 . S
H963 C950 0.962 . S
H964 C950 0.960 . S
H965 C951 0.961 . S
H966 C951 0.961 . S
H967 C951 0.961 . S
H968 C952 0.931 . S
H969 C957 0.930 . S
H970 C958 0.956 . S
H971 C958 0.961 . S
H972 C958 0.961 . S
H973 C959 0.958 . S
H974 C959 0.961 . S
H975 C959 0.960 . S
C976 C977 1.391 . S
C976 C978 1.394 . S
C976 H992 0.931 . S
C977 C976 1.391 . S
C977 C981 1.376 . S
C978 C976 1.394 . S
C978 C979 1.369 . S
C978 C982 1.531 . S
C979 C978 1.369 . S
C979 C980 1.410 . S
C979 C987 1.503 . S
C980 C979 1.410 . S
C980 C981 1.392 . S
C980 C983 1.511 . S
C981 C977 1.376 . S
C981 C980 1.392 . S
C981 H993 0.929 . S
C982 C978 1.531 . S
C982 H994 0.960 . S
C982 H995 0.962 . S
C982 H996 0.960 . S
C983 C980 1.511 . S
C983 H997 0.961 . S
C983 H998 0.961 . S
C983 H999 0.961 . S
C984 C985 1.370 . S
C984 C986 1.363 . S
C984 H1000 0.931 . S
C985 C984 1.370 . S
C985 C989 1.408 . S
C986 C984 1.363 . S
C986 C987 1.370 . S
C986 C990 1.524 . S
C987 C979 1.503 . S
C987 C986 1.370 . S
C987 C988 1.403 . S
C988 C987 1.403 . S
C988 C989 1.404 . S
C988 C991 1.539 . S
C989 C985 1.408 . S
C989 C988 1.404 . S
C989 H1001 0.930 . S
C990 C986 1.524 . S
C990 H1002 0.956 . S
C990 H1003 0.961 . S
C990 H1004 0.961 . S
C991 C988 1.539 . S
C991 H1005 0.958 . S
C991 H1006 0.961 . S
C991 H1007 0.960 . S
H992 C976 0.931 . S
H993 C981 0.929 . S
H994 C982 0.960 . S
H995 C982 0.962 . S
H996 C982 0.960 . S
H997 C983 0.961 . S
H998 C983 0.961 . S
H999 C983 0.961 . S
H1000 C984 0.931 . S
H1001 C989 0.930 . S
H1002 C990 0.956 . S
H1003 C990 0.961 . S
H1004 C990 0.961 . S
H1005 C991 0.958 . S
H1006 C991 0.961 . S
H1007 C991 0.960 . S
C1008 C1009 1.391 . S
C1008 C1010 1.394 . S
C1008 H1024 0.931 . S
C1009 C1008 1.391 . S
C1009 C1013 1.376 . S
C1010 C1008 1.394 . S
C1010 C1011 1.369 . S
C1010 C1014 1.531 . S
C1011 C1010 1.369 . S
C1011 C1012 1.410 . S
C1011 C1019 1.503 . S
C1012 C1011 1.410 . S
C1012 C1013 1.392 . S
C1012 C1015 1.511 . S
C1013 C1009 1.376 . S
C1013 C1012 1.392 . S
C1013 H1025 0.929 . S
C1014 C1010 1.531 . S
C1014 H1026 0.960 . S
C1014 H1027 0.962 . S
C1014 H1028 0.960 . S
C1015 C1012 1.511 . S
C1015 H1029 0.961 . S
C1015 H1030 0.961 . S
C1015 H1031 0.961 . S
C1016 C1017 1.370 . S
C1016 C1018 1.363 . S
C1016 H1032 0.931 . S
C1017 C1016 1.370 . S
C1017 C1021 1.408 . S
C1018 C1016 1.363 . S
C1018 C1019 1.370 . S
C1018 C1022 1.524 . S
C1019 C1011 1.503 . S
C1019 C1018 1.370 . S
C1019 C1020 1.403 . S
C1020 C1019 1.403 . S
C1020 C1021 1.404 . S
C1020 C1023 1.539 . S
C1021 C1017 1.408 . S
C1021 C1020 1.404 . S
C1021 H1033 0.930 . S
C1022 C1018 1.524 . S
C1022 H1034 0.956 . S
C1022 H1035 0.961 . S
C1022 H1036 0.961 . S
C1023 C1020 1.539 . S
C1023 H1037 0.958 . S
C1023 H1038 0.961 . S
C1023 H1039 0.960 . S
H1024 C1008 0.931 . S
H1025 C1013 0.929 . S
H1026 C1014 0.960 . S
H1027 C1014 0.962 . S
H1028 C1014 0.960 . S
H1029 C1015 0.961 . S
H1030 C1015 0.961 . S
H1031 C1015 0.961 . S
H1032 C1016 0.931 . S
H1033 C1021 0.930 . S
H1034 C1022 0.956 . S
H1035 C1022 0.961 . S
H1036 C1022 0.961 . S
H1037 C1023 0.958 . S
H1038 C1023 0.961 . S
H1039 C1023 0.960 . S
C1040 C1041 1.391 . S
C1040 C1042 1.394 . S
C1040 H1056 0.931 . S
C1041 C1040 1.391 . S
C1041 C1045 1.376 . S
C1042 C1040 1.394 . S
C1042 C1043 1.369 . S
C1042 C1046 1.531 . S
C1043 C1042 1.369 . S
C1043 C1044 1.410 . S
C1043 C1051 1.503 . S
C1044 C1043 1.410 . S
C1044 C1045 1.392 . S
C1044 C1047 1.511 . S
C1045 C1041 1.376 . S
C1045 C1044 1.392 . S
C1045 H1057 0.929 . S
C1046 C1042 1.531 . S
C1046 H1058 0.960 . S
C1046 H1059 0.962 . S
C1046 H1060 0.960 . S
C1047 C1044 1.511 . S
C1047 H1061 0.961 . S
C1047 H1062 0.961 . S
C1047 H1063 0.961 . S
C1048 C1049 1.370 . S
C1048 C1050 1.363 . S
C1048 H1064 0.931 . S
C1049 C1048 1.370 . S
C1049 C1053 1.408 . S
C1050 C1048 1.363 . S
C1050 C1051 1.370 . S
C1050 C1054 1.524 . S
C1051 C1043 1.503 . S
C1051 C1050 1.370 . S
C1051 C1052 1.403 . S
C1052 C1051 1.403 . S
C1052 C1053 1.404 . S
C1052 C1055 1.539 . S
C1053 C1049 1.408 . S
C1053 C1052 1.404 . S
C1053 H1065 0.930 . S
C1054 C1050 1.524 . S
C1054 H1066 0.956 . S
C1054 H1067 0.961 . S
C1054 H1068 0.961 . S
C1055 C1052 1.539 . S
C1055 H1069 0.958 . S
C1055 H1070 0.961 . S
C1055 H1071 0.960 . S
H1056 C1040 0.931 . S
H1057 C1045 0.929 . S
H1058 C1046 0.960 . S
H1059 C1046 0.962 . S
H1060 C1046 0.960 . S
H1061 C1047 0.961 . S
H1062 C1047 0.961 . S
H1063 C1047 0.961 . S
H1064 C1048 0.931 . S
H1065 C1053 0.930 . S
H1066 C1054 0.956 . S
H1067 C1054 0.961 . S
H1068 C1054 0.961 . S
H1069 C1055 0.958 . S
H1070 C1055 0.961 . S
H1071 C1055 0.960 . S
C1072 C1073 1.391 . S
C1072 C1074 1.394 . S
C1072 H1088 0.931 . S
C1073 C1072 1.391 . S
C1073 C1077 1.376 . S
C1074 C1072 1.394 . S
C1074 C1075 1.369 . S
C1074 C1078 1.531 . S
C1075 C1074 1.369 . S
C1075 C1076 1.410 . S
C1075 C1083 1.503 . S
C1076 C1075 1.410 . S
C1076 C1077 1.392 . S
C1076 C1079 1.511 . S
C1077 C1073 1.376 . S
C1077 C1076 1.392 . S
C1077 H1089 0.929 . S
C1078 C1074 1.531 . S
C1078 H1090 0.960 . S
C1078 H1091 0.962 . S
C1078 H1092 0.960 . S
C1079 C1076 1.511 . S
C1079 H1093 0.961 . S
C1079 H1094 0.961 . S
C1079 H1095 0.961 . S
C1080 C1081 1.370 . S
C1080 C1082 1.363 . S
C1080 H1096 0.931 . S
C1081 C1080 1.370 . S
C1081 C1085 1.408 . S
C1082 C1080 1.363 . S
C1082 C1083 1.370 . S
C1082 C1086 1.524 . S
C1083 C1075 1.503 . S
C1083 C1082 1.370 . S
C1083 C1084 1.403 . S
C1084 C1083 1.403 . S
C1084 C1085 1.404 . S
C1084 C1087 1.539 . S
C1085 C1081 1.408 . S
C1085 C1084 1.404 . S
C1085 H1097 0.930 . S
C1086 C1082 1.524 . S
C1086 H1098 0.956 . S
C1086 H1099 0.961 . S
C1086 H1100 0.961 . S
C1087 C1084 1.539 . S
C1087 H1101 0.958 . S
C1087 H1102 0.961 . S
C1087 H1103 0.960 . S
H1088 C1072 0.931 . S
H1089 C1077 0.929 . S
H1090 C1078 0.960 . S
H1091 C1078 0.962 . S
H1092 C1078 0.960 . S
H1093 C1079 0.961 . S
H1094 C1079 0.961 . S
H1095 C1079 0.961 . S
H1096 C1080 0.931 . S
H1097 C1085 0.930 . S
H1098 C1086 0.956 . S
H1099 C1086 0.961 . S
H1100 C1086 0.961 . S
H1101 C1087 0.958 . S
H1102 C1087 0.961 . S
H1103 C1087 0.960 . S
C1104 C1105 1.391 . S
C1104 C1106 1.394 . S
C1104 H1120 0.931 . S
C1105 C1104 1.391 . S
C1105 C1109 1.376 . S
C1106 C1104 1.394 . S
C1106 C1107 1.369 . S
C1106 C1110 1.531 . S
C1107 C1106 1.369 . S
C1107 C1108 1.410 . S
C1107 C1115 1.503 . S
C1108 C1107 1.410 . S
C1108 C1109 1.392 . S
C1108 C1111 1.511 . S
C1109 C1105 1.376 . S
C1109 C1108 1.392 . S
C1109 H1121 0.929 . S
C1110 C1106 1.531 . S
C1110 H1122 0.960 . S
C1110 H1123 0.962 . S
C1110 H1124 0.960 . S
C1111 C1108 1.511 . S
C1111 H1125 0.961 . S
C1111 H1126 0.961 . S
C1111 H1127 0.961 . S
C1112 C1113 1.370 . S
C1112 C1114 1.363 . S
C1112 H1128 0.931 . S
C1113 C1112 1.370 . S
C1113 C1117 1.408 . S
C1114 C1112 1.363 . S
C1114 C1115 1.370 . S
C1114 C1118 1.524 . S
C1115 C1107 1.503 . S
C1115 C1114 1.370 . S
C1115 C1116 1.403 . S
C1116 C1115 1.403 . S
C1116 C1117 1.404 . S
C1116 C1119 1.539 . S
C1117 C1113 1.408 . S
C1117 C1116 1.404 . S
C1117 H1129 0.930 . S
C1118 C1114 1.524 . S
C1118 H1130 0.956 . S
C1118 H1131 0.961 . S
C1118 H1132 0.961 . S
C1119 C1116 1.539 . S
C1119 H1133 0.958 . S
C1119 H1134 0.961 . S
C1119 H1135 0.960 . S
H1120 C1104 0.931 . S
H1121 C1109 0.929 . S
H1122 C1110 0.960 . S
H1123 C1110 0.962 . S
H1124 C1110 0.960 . S
H1125 C1111 0.961 . S
H1126 C1111 0.961 . S
H1127 C1111 0.961 . S
H1128 C1112 0.931 . S
H1129 C1117 0.930 . S
H1130 C1118 0.956 . S
H1131 C1118 0.961 . S
H1132 C1118 0.961 . S
H1133 C1119 0.958 . S
H1134 C1119 0.961 . S
H1135 C1119 0.960 . S
C1136 C1137 1.391 . S
C1136 C1138 1.394 . S
C1136 H1152 0.931 . S
C1137 C1136 1.391 . S
C1137 C1141 1.376 . S
C1138 C1136 1.394 . S
C1138 C1139 1.369 . S
C1138 C1142 1.531 . S
C1139 C1138 1.369 . S
C1139 C1140 1.410 . S
C1139 C1147 1.503 . S
C1140 C1139 1.410 . S
C1140 C1141 1.392 . S
C1140 C1143 1.511 . S
C1141 C1137 1.376 . S
C1141 C1140 1.392 . S
C1141 H1153 0.929 . S
C1142 C1138 1.531 . S
C1142 H1154 0.960 . S
C1142 H1155 0.962 . S
C1142 H1156 0.960 . S
C1143 C1140 1.511 . S
C1143 H1157 0.961 . S
C1143 H1158 0.961 . S
C1143 H1159 0.961 . S
C1144 C1145 1.370 . S
C1144 C1146 1.363 . S
C1144 H1160 0.931 . S
C1145 C1144 1.370 . S
C1145 C1149 1.408 . S
C1146 C1144 1.363 . S
C1146 C1147 1.370 . S
C1146 C1150 1.524 . S
C1147 C1139 1.503 . S
C1147 C1146 1.370 . S
C1147 C1148 1.403 . S
C1148 C1147 1.403 . S
C1148 C1149 1.404 . S
C1148 C1151 1.532 1_554 S
C1149 C1145 1.408 . S
C1149 C1148 1.404 . S
C1149 H1161 0.930 1_554 S
C1150 C1146 1.524 . S
C1150 H1162 0.956 . S
C1150 H1163 0.961 . S
C1150 H1164 0.961 . S
C1151 C1148 1.532 1_556 S
C1151 H1165 0.963 . S
C1151 H1166 0.970 . S
C1151 H1167 0.954 1_556 S
H1152 C1136 0.931 . S
H1153 C1141 0.929 . S
H1154 C1142 0.960 . S
H1155 C1142 0.962 . S
H1156 C1142 0.960 . S
H1157 C1143 0.961 . S
H1158 C1143 0.961 . S
H1159 C1143 0.961 . S
H1160 C1144 0.931 . S
H1161 C1149 0.930 1_556 S
H1162 C1150 0.956 . S
H1163 C1150 0.961 . S
H1164 C1150 0.961 . S
H1165 C1151 0.963 . S
H1166 C1151 0.970 . S
H1167 C1151 0.954 1_554 S
C1168 C1169 1.391 . S
C1168 C1170 1.394 . S
C1168 H1184 0.931 . S
C1169 C1168 1.391 . S
C1169 C1173 1.376 . S
C1170 C1168 1.394 . S
C1170 C1171 1.369 . S
C1170 C1174 1.531 . S
C1171 C1170 1.369 . S
C1171 C1172 1.410 . S
C1171 C1179 1.503 . S
C1172 C1171 1.410 . S
C1172 C1173 1.392 . S
C1172 C1175 1.511 . S
C1173 C1169 1.376 . S
C1173 C1172 1.392 . S
C1173 H1185 0.929 . S
C1174 C1170 1.531 . S
C1174 H1186 0.960 . S
C1174 H1187 0.962 . S
C1174 H1188 0.960 . S
C1175 C1172 1.511 . S
C1175 H1189 0.961 . S
C1175 H1190 0.961 . S
C1175 H1191 0.961 . S
C1176 C1177 1.370 . S
C1176 C1178 1.363 . S
C1176 H1192 0.931 . S
C1177 C1176 1.370 . S
C1177 C1181 1.408 . S
C1178 C1176 1.363 . S
C1178 C1179 1.370 . S
C1178 C1182 1.524 . S
C1179 C1171 1.503 . S
C1179 C1178 1.370 . S
C1179 C1180 1.403 . S
C1180 C1179 1.403 . S
C1180 C1181 1.404 . S
C1180 C1183 1.539 . S
C1181 C1177 1.408 . S
C1181 C1180 1.404 . S
C1181 H1193 0.930 . S
C1182 C1178 1.524 . S
C1182 H1194 0.956 . S
C1182 H1195 0.961 . S
C1182 H1196 0.961 . S
C1183 C1180 1.539 . S
C1183 H1197 0.958 . S
C1183 H1198 0.961 . S
C1183 H1199 0.960 . S
H1184 C1168 0.931 . S
H1185 C1173 0.929 . S
H1186 C1174 0.960 . S
H1187 C1174 0.962 . S
H1188 C1174 0.960 . S
H1189 C1175 0.961 . S
H1190 C1175 0.961 . S
H1191 C1175 0.961 . S
H1192 C1176 0.931 . S
H1193 C1181 0.930 . S
H1194 C1182 0.956 . S
H1195 C1182 0.961 . S
H1196 C1182 0.961 . S
H1197 C1183 0.958 . S
H1198 C1183 0.961 . S
H1199 C1183 0.960 . S
C1200 C1201 1.391 . S
C1200 C1202 1.394 . S
C1200 H1216 0.931 . S
C1201 C1200 1.391 . S
C1201 C1205 1.376 . S
C1202 C1200 1.394 . S
C1202 C1203 1.369 . S
C1202 C1206 1.531 . S
C1203 C1202 1.369 . S
C1203 C1204 1.410 . S
C1203 C1211 1.503 . S
C1204 C1203 1.410 . S
C1204 C1205 1.392 . S
C1204 C1207 1.511 . S
C1205 C1201 1.376 . S
C1205 C1204 1.392 . S
C1205 H1217 0.929 . S
C1206 C1202 1.531 . S
C1206 H1218 0.960 . S
C1206 H1219 0.962 . S
C1206 H1220 0.960 . S
C1207 C1204 1.511 . S
C1207 H1221 0.961 . S
C1207 H1222 0.961 . S
C1207 H1223 0.961 . S
C1208 C1209 1.370 . S
C1208 C1210 1.363 . S
C1208 H1224 0.931 . S
C1209 C1208 1.370 . S
C1209 C1213 1.408 . S
C1210 C1208 1.363 . S
C1210 C1211 1.370 . S
C1210 C1214 1.524 . S
C1211 C1203 1.503 . S
C1211 C1210 1.370 . S
C1211 C1212 1.403 . S
C1212 C1211 1.403 . S
C1212 C1213 1.404 . S
C1212 C1215 1.539 . S
C1213 C1209 1.408 . S
C1213 C1212 1.404 . S
C1213 H1225 0.930 . S
C1214 C1210 1.524 . S
C1214 H1226 0.956 . S
C1214 H1227 0.961 . S
C1214 H1228 0.961 . S
C1215 C1212 1.539 . S
C1215 H1229 0.958 . S
C1215 H1230 0.961 . S
C1215 H1231 0.960 . S
H1216 C1200 0.931 . S
H1217 C1205 0.929 . S
H1218 C1206 0.960 . S
H1219 C1206 0.962 . S
H1220 C1206 0.960 . S
H1221 C1207 0.961 . S
H1222 C1207 0.961 . S
H1223 C1207 0.961 . S
H1224 C1208 0.931 . S
H1225 C1213 0.930 . S
H1226 C1214 0.956 . S
H1227 C1214 0.961 . S
H1228 C1214 0.961 . S
H1229 C1215 0.958 . S
H1230 C1215 0.961 . S
H1231 C1215 0.960 . S
C1232 C1233 1.391 . S
C1232 C1234 1.394 . S
C1232 H1248 0.931 . S
C1233 C1232 1.391 . S
C1233 C1237 1.376 . S
C1234 C1232 1.394 . S
C1234 C1235 1.369 . S
C1234 C1238 1.531 . S
C1235 C1234 1.369 . S
C1235 C1236 1.410 . S
C1235 C1243 1.503 . S
C1236 C1235 1.410 . S
C1236 C1237 1.392 . S
C1236 C1239 1.511 . S
C1237 C1233 1.376 . S
C1237 C1236 1.392 . S
C1237 H1249 0.929 . S
C1238 C1234 1.531 . S
C1238 H1250 0.960 . S
C1238 H1251 0.962 . S
C1238 H1252 0.960 . S
C1239 C1236 1.511 . S
C1239 H1253 0.961 . S
C1239 H1254 0.961 . S
C1239 H1255 0.961 . S
C1240 C1241 1.370 . S
C1240 C1242 1.363 . S
C1240 H1256 0.931 . S
C1241 C1240 1.370 . S
C1241 C1245 1.408 . S
C1242 C1240 1.363 . S
C1242 C1243 1.370 . S
C1242 C1246 1.524 . S
C1243 C1235 1.503 . S
C1243 C1242 1.370 . S
C1243 C1244 1.403 . S
C1244 C1243 1.403 . S
C1244 C1245 1.404 . S
C1244 C1247 1.539 . S
C1245 C1241 1.408 . S
C1245 C1244 1.404 . S
C1245 H1257 0.930 . S
C1246 C1242 1.524 . S
C1246 H1258 0.956 . S
C1246 H1259 0.961 . S
C1246 H1260 0.973 . S
C1247 C1244 1.539 . S
C1247 H1261 0.958 . S
C1247 H1262 0.961 . S
C1247 H1263 0.960 . S
H1248 C1232 0.931 . S
H1249 C1237 0.929 . S
H1250 C1238 0.960 . S
H1251 C1238 0.962 . S
H1252 C1238 0.960 . S
H1253 C1239 0.961 . S
H1254 C1239 0.961 . S
H1255 C1239 0.961 . S
H1256 C1240 0.931 . S
H1257 C1245 0.930 . S
H1258 C1246 0.956 . S
H1259 C1246 0.961 . S
H1260 C1246 0.973 . S
H1261 C1247 0.958 . S
H1262 C1247 0.961 . S
H1263 C1247 0.960 . S
C1264 C1265 1.391 . S
C1264 C1266 1.394 . S
C1264 H1280 0.931 . S
C1265 C1264 1.391 . S
C1265 C1269 1.376 . S
C1266 C1264 1.394 . S
C1266 C1267 1.369 . S
C1266 C1270 1.531 . S
C1267 C1266 1.369 . S
C1267 C1268 1.410 . S
C1267 C1275 1.503 . S
C1268 C1267 1.410 . S
C1268 C1269 1.392 . S
C1268 C1271 1.511 . S
C1269 C1265 1.376 . S
C1269 C1268 1.392 . S
C1269 H1281 0.929 . S
C1270 C1266 1.531 . S
C1270 H1282 0.960 . S
C1270 H1283 0.962 . S
C1270 H1284 0.960 . S
C1271 C1268 1.511 . S
C1271 H1285 0.961 . S
C1271 H1286 0.961 . S
C1271 H1287 0.961 . S
C1272 C1273 1.370 . S
C1272 C1274 1.363 . S
C1272 H1288 0.931 . S
C1273 C1272 1.370 . S
C1273 C1277 1.408 . S
C1274 C1272 1.363 . S
C1274 C1275 1.370 . S
C1274 C1278 1.524 . S
C1275 C1267 1.503 . S
C1275 C1274 1.370 . S
C1275 C1276 1.403 . S
C1276 C1275 1.403 . S
C1276 C1277 1.404 . S
C1276 C1279 1.539 . S
C1277 C1273 1.408 . S
C1277 C1276 1.404 . S
C1277 H1289 0.898 1_455 S
C1278 C1274 1.524 . S
C1278 H1290 0.956 . S
C1278 H1291 0.961 . S
C1278 H1292 0.961 . S
C1279 C1276 1.539 . S
C1279 H1293 0.958 1_455 S
C1279 H1294 0.961 1_455 S
C1279 H1295 0.960 . S
H1280 C1264 0.931 . S
H1281 C1269 0.929 . S
H1282 C1270 0.960 . S
H1283 C1270 0.962 . S
H1284 C1270 0.960 . S
H1285 C1271 0.961 . S
H1286 C1271 0.961 . S
H1287 C1271 0.961 . S
H1288 C1272 0.931 . S
H1289 C1277 0.898 1_655 S
H1290 C1278 0.956 . S
H1291 C1278 0.961 . S
H1292 C1278 0.961 . S
H1293 C1279 0.958 1_655 S
H1294 C1279 0.961 1_655 S
H1295 C1279 0.960 . S
C1296 C1297 1.391 . S
C1296 C1298 1.394 . S
C1296 H1312 0.931 . S
C1297 C1296 1.391 . S
C1297 C1301 1.376 . S
C1298 C1296 1.394 . S
C1298 C1299 1.369 . S
C1298 C1302 1.531 . S
C1299 C1298 1.369 . S
C1299 C1300 1.410 . S
C1299 C1307 1.503 . S
C1300 C1299 1.410 . S
C1300 C1301 1.392 . S
C1300 C1303 1.511 . S
C1301 C1297 1.376 . S
C1301 C1300 1.392 . S
C1301 H1313 0.929 . S
C1302 C1298 1.531 . S
C1302 H1314 0.960 . S
C1302 H1315 0.962 . S
C1302 H1316 0.960 . S
C1303 C1300 1.511 . S
C1303 H1317 0.961 . S
C1303 H1318 0.961 . S
C1303 H1319 0.961 . S
C1304 C1305 1.370 . S
C1304 C1306 1.363 . S
C1304 H1320 0.931 . S
C1305 C1304 1.370 . S
C1305 C1309 1.408 . S
C1306 C1304 1.363 . S
C1306 C1307 1.370 . S
C1306 C1310 1.524 . S
C1307 C1299 1.503 . S
C1307 C1306 1.370 . S
C1307 C1308 1.403 . S
C1308 C1307 1.403 . S
C1308 C1309 1.404 . S
C1308 C1311 1.539 . S
C1309 C1305 1.408 . S
C1309 C1308 1.404 . S
C1309 H1321 0.930 . S
C1310 C1306 1.524 . S
C1310 H1322 0.956 . S
C1310 H1323 0.961 . S
C1310 H1324 0.961 . S
C1311 C1308 1.539 . S
C1311 H1325 0.958 . S
C1311 H1326 0.961 . S
C1311 H1327 0.960 . S
H1312 C1296 0.931 . S
H1313 C1301 0.929 . S
H1314 C1302 0.960 . S
H1315 C1302 0.962 . S
H1316 C1302 0.960 . S
H1317 C1303 0.961 . S
H1318 C1303 0.961 . S
H1319 C1303 0.961 . S
H1320 C1304 0.931 . S
H1321 C1309 0.930 . S
H1322 C1310 0.956 . S
H1323 C1310 0.961 . S
H1324 C1310 0.961 . S
H1325 C1311 0.958 . S
H1326 C1311 0.961 . S
H1327 C1311 0.960 . S
C561 C1 1.424 . S
C569 C482 1.543 . S
C593 C80 1.345 . S
C601 C501 1.327 . S
C633 C538 1.742 . S
C625 C140 1.738 . S
C657 C211 1.672 . S
C665 C548 1.652 . S
C697 C518 2.006 . S
C689 C31 1.830 . S
C729 C488 1.409 . S
C721 C61 1.451 . S
C761 C559 1.512 . S
C753 C151 1.519 . S
C793 C529 1.415 . S
C785 C200 1.384 . S
C817 C20 1.667 . S
C825 C542 1.766 . S
C857 C509 1.690 . S
C849 C121 1.718 . S
C881 C181 1.689 . S
C889 C499 1.741 . S
C913 C91 1.220 . S
C921 C521 1.230 . S
C953 C481 1.555 . S
C945 C260 1.500 . S
C977 C320 1.334 . S
C985 C502 1.332 . S
C1009 C361 1.753 . S
C1017 C539 1.739 . S
C1041 C451 1.692 . S
C1049 C549 1.651 . S
C1073 C271 1.928 . S
C1081 C519 2.013 . S
C1113 C489 1.433 . S
C1105 C301 1.387 . S
C1145 C558 1.511 . S
C1137 C380 1.475 . S
C1177 C528 1.396 . S
C1169 C440 1.419 . S
C1201 C241 1.629 . S
C1209 C541 1.774 . S
C1241 C508 1.690 . S
C1233 C391 1.724 . S
C1273 C498 1.745 . S
C1265 C421 1.718 . S
C1297 C331 1.242 . S
C1305 C522 1.231 . S
