# Generated by pormake.
# Topology cml, (3,6)-cn, num edge types: 1
# Building blocks:
#     Node 0, Type 0, BuildingBlock: VETTIZ_charged_linker_0, # of connection points: 3
#     Node 1, Type 0, BuildingBlock: VETTIZ_charged_linker_0, # of connection points: 3
#     Node 2, Type 0, BuildingBlock: VETTIZ_charged_linker_0, # of connection points: 3
#     Node 3, Type 0, BuildingBlock: VETTIZ_charged_linker_0, # of connection points: 3
#     Node 4, Type 0, BuildingBlock: VETTIZ_charged_linker_0, # of connection points: 3
#     Node 5, Type 0, BuildingBlock: VETTIZ_charged_linker_0, # of connection points: 3
#     Node 6, Type 0, BuildingBlock: VETTIZ_charged_linker_0, # of connection points: 3
#     Node 7, Type 0, BuildingBlock: VETTIZ_charged_linker_0, # of connection points: 3
#     Node 8, Type 1, BuildingBlock: OJICUG_clean_sbu_0, # of connection points: 6
#     Node 9, Type 1, BuildingBlock: OJICUG_clean_sbu_0, # of connection points: 6
#     Node 10, Type 1, BuildingBlock: OJICUG_clean_sbu_0, # of connection points: 6
#     Node 11, Type 1, BuildingBlock: OJICUG_clean_sbu_0, # of connection points: 6
#     Edge 12, Type (0, 1), BuildingBlock: EZIPEK_clean_linker_0, # of connection points: 2
#     Edge 13, Type (0, 1), BuildingBlock: EZIPEK_clean_linker_0, # of connection points: 2
#     Edge 14, Type (0, 1), BuildingBlock: EZIPEK_clean_linker_0, # of connection points: 2
#     Edge 15, Type (0, 1), BuildingBlock: EZIPEK_clean_linker_0, # of connection points: 2
#     Edge 16, Type (0, 1), BuildingBlock: EZIPEK_clean_linker_0, # of connection points: 2
#     Edge 17, Type (0, 1), BuildingBlock: EZIPEK_clean_linker_0, # of connection points: 2
#     Edge 18, Type (0, 1), BuildingBlock: EZIPEK_clean_linker_0, # of connection points: 2
#     Edge 19, Type (0, 1), BuildingBlock: EZIPEK_clean_linker_0, # of connection points: 2
#     Edge 20, Type (0, 1), BuildingBlock: EZIPEK_clean_linker_0, # of connection points: 2
#     Edge 21, Type (0, 1), BuildingBlock: EZIPEK_clean_linker_0, # of connection points: 2
#     Edge 22, Type (0, 1), BuildingBlock: EZIPEK_clean_linker_0, # of connection points: 2
#     Edge 23, Type (0, 1), BuildingBlock: EZIPEK_clean_linker_0, # of connection points: 2
#     Edge 24, Type (0, 1), BuildingBlock: EZIPEK_clean_linker_0, # of connection points: 2
#     Edge 25, Type (0, 1), BuildingBlock: EZIPEK_clean_linker_0, # of connection points: 2
#     Edge 26, Type (0, 1), BuildingBlock: EZIPEK_clean_linker_0, # of connection points: 2
#     Edge 27, Type (0, 1), BuildingBlock: EZIPEK_clean_linker_0, # of connection points: 2
#     Edge 28, Type (0, 1), BuildingBlock: EZIPEK_clean_linker_0, # of connection points: 2
#     Edge 29, Type (0, 1), BuildingBlock: EZIPEK_clean_linker_0, # of connection points: 2
#     Edge 30, Type (0, 1), BuildingBlock: EZIPEK_clean_linker_0, # of connection points: 2
#     Edge 31, Type (0, 1), BuildingBlock: EZIPEK_clean_linker_0, # of connection points: 2
#     Edge 32, Type (0, 1), BuildingBlock: EZIPEK_clean_linker_0, # of connection points: 2
#     Edge 33, Type (0, 1), BuildingBlock: EZIPEK_clean_linker_0, # of connection points: 2
#     Edge 34, Type (0, 1), BuildingBlock: EZIPEK_clean_linker_0, # of connection points: 2
#     Edge 35, Type (0, 1), BuildingBlock: EZIPEK_clean_linker_0, # of connection points: 2
# Relax obj value: 0.076
# Max RMSD: 0.088
# Mean RMSD: 0.083
data_MOF--net-cml--node1-OJICUG_clean_sbu_0--node2-VETTIZ_charged_linker_0--edge1-EZIPEK_clean_linker_0
_symmetry_space_group_name_H-M    P1
_symmetry_Int_Tables_number       1
_symmetry_cell_setting            triclinic
loop_
_symmetry_equiv_pos_as_xyz
'x, y, z'
_cell_length_a     36.863682
_cell_length_b     37.1619
_cell_length_c     35.306595
_cell_angle_alpha  90.025355
_cell_angle_beta   89.875048
_cell_angle_gamma 90.04684
loop_
_atom_site_label
_atom_site_type_symbol
_atom_site_fract_x
_atom_site_fract_y
_atom_site_fract_z
_atom_type_partial_charge
C0 C 0.33499 0.33158 0.10875 0.0
C1 C 0.37086 0.33954 0.11951 0.0
C2 C 0.39273 0.36044 0.09512 0.0
C3 C 0.34172 0.37016 0.05369 0.0
C4 C 0.32143 0.3463 0.075 0.0
C5 C 0.28539 0.33834 0.05673 0.0
H6 H 0.16949 0.36844 0.91126 0.0
C7 C 0.31901 0.38348 0.02252 0.0
C8 C 0.28639 0.36412 0.0232 0.0
H9 H 0.16484 0.28435 0.99538 0.0
H10 H 0.2176 0.30932 0.02687 0.0
H11 H 0.19036 0.43269 0.9716 0.0
H12 H 0.25446 0.3665 0.89691 0.0
H13 H 0.26901 0.41152 0.89255 0.0
H14 H 0.22312 0.39998 0.88039 0.0
H15 H 0.19333 0.44167 0.92178 0.0
H16 H 0.22608 0.45961 0.95479 0.0
C17 C 0.25475 0.34816 0.08485 0.0
C18 C 0.28518 0.29827 0.04412 0.0
C19 C 0.35893 0.49436 0.94981 0.0
C20 C 0.34297 0.51451 0.92073 0.0
C21 C 0.30873 0.50441 0.90673 0.0
C22 C 0.29067 0.47422 0.92155 0.0
C23 C 0.30727 0.45388 0.95035 0.0
C24 C 0.34076 0.46427 0.96412 0.0
C25 C 0.35485 0.43921 0.99404 0.0
C26 C 0.3236 0.41272 0.9971 0.0
C27 C 0.29602 0.42122 0.97124 0.0
C28 C 0.36013 0.46116 0.03088 0.0
C29 C 0.39004 0.4211 0.97908 0.0
C30 C 0.17992 0.35575 0.93661 0.0
C31 C 0.16367 0.32446 0.95098 0.0
C32 C 0.17744 0.30838 0.98399 0.0
C33 C 0.2081 0.32267 0.0019 0.0
C34 C 0.22519 0.35307 0.98632 0.0
C35 C 0.21073 0.36952 0.95463 0.0
C36 C 0.23284 0.4014 0.942 0.0
C37 C 0.26419 0.39976 0.96973 0.0
C38 C 0.25933 0.37158 0.99579 0.0
C39 C 0.2096 0.43575 0.94747 0.0
C40 C 0.24549 0.39486 0.90071 0.0
H41 H 0.39577 0.39295 0.04607 0.0
H42 H 0.31792 0.31475 0.12638 0.0
H43 H 0.31291 0.28647 0.04361 0.0
H44 H 0.27501 0.29489 0.01482 0.0
H45 H 0.26855 0.28146 0.06353 0.0
H46 H 0.25955 0.37529 0.0972 0.0
H47 H 0.25349 0.32848 0.10849 0.0
H48 H 0.22784 0.34919 0.07121 0.0
H49 H 0.38558 0.50138 0.96041 0.0
H50 H 0.29639 0.51951 0.88391 0.0
H51 H 0.26481 0.46749 0.90957 0.0
H52 H 0.33516 0.4767 0.03767 0.0
H53 H 0.38287 0.48057 0.02774 0.0
H54 H 0.36584 0.44429 0.05579 0.0
H55 H 0.39263 0.42328 0.94775 0.0
H56 H 0.39047 0.39177 0.98482 0.0
H57 H 0.41462 0.43365 0.99159 0.0
H58 H 0.42068 0.36618 0.10244 0.0
C59 C 0.37822 0.37617 0.06262 0.0
C60 C 0.81755 0.64442 0.43272 0.0
C61 C 0.83491 0.67459 0.4482 0.0
C62 C 0.82284 0.68873 0.483 0.0
C63 C 0.77489 0.64413 0.48524 0.0
C64 C 0.78766 0.62965 0.45165 0.0
C65 C 0.76519 0.59831 0.43845 0.0
H66 H 0.61429 0.49611 0.45797 0.0
C67 C 0.74151 0.62455 0.49583 0.0
C68 C 0.7356 0.59778 0.46837 0.0
H69 H 0.70066 0.48319 0.37649 0.0
H70 H 0.73297 0.5337 0.40417 0.0
H71 H 0.66865 0.51348 0.53281 0.0
H72 H 0.60727 0.57616 0.4533 0.0
H73 H 0.61004 0.60285 0.49426 0.0
H74 H 0.587 0.55992 0.49618 0.0
H75 H 0.62015 0.51231 0.52777 0.0
H76 H 0.64165 0.54518 0.55731 0.0
C77 C 0.78907 0.564 0.43983 0.0
C78 C 0.74997 0.60724 0.39869 0.0
C79 C 0.6704 0.65871 0.61473 0.0
C80 C 0.63538 0.64928 0.62736 0.0
C81 C 0.61359 0.62706 0.60435 0.0
C82 C 0.62708 0.61245 0.57072 0.0
C83 C 0.66253 0.62072 0.55928 0.0
C84 C 0.68297 0.64489 0.58002 0.0
C85 C 0.71786 0.65442 0.55996 0.0
C86 C 0.71592 0.62982 0.52548 0.0
C87 C 0.68386 0.60949 0.52598 0.0
C88 C 0.75004 0.64447 0.58591 0.0
C89 C 0.71643 0.69484 0.54896 0.0
C90 C 0.64038 0.50409 0.44653 0.0
C91 C 0.65534 0.48591 0.41543 0.0
C92 C 0.68904 0.49692 0.40072 0.0
C93 C 0.70756 0.5262 0.41676 0.0
C94 C 0.69206 0.54456 0.44771 0.0
C95 C 0.6592 0.53312 0.46231 0.0
C96 C 0.64688 0.55552 0.49537 0.0
C97 C 0.67818 0.58192 0.49877 0.0
C98 C 0.70428 0.57565 0.47054 0.0
C99 C 0.64395 0.53051 0.5303 0.0
C100 C 0.61085 0.5745 0.48454 0.0
H101 H 0.78466 0.68552 0.528 0.0
H102 H 0.82663 0.63312 0.40605 0.0
H103 H 0.74014 0.63553 0.39769 0.0
H104 H 0.72645 0.59052 0.39082 0.0
H105 H 0.77122 0.60412 0.37658 0.0
H106 H 0.81064 0.56631 0.46171 0.0
H107 H 0.80268 0.5591 0.41221 0.0
H108 H 0.77351 0.53975 0.44804 0.0
H109 H 0.68745 0.67632 0.63145 0.0
H110 H 0.58634 0.61996 0.61321 0.0
H111 H 0.60947 0.59497 0.55512 0.0
H112 H 0.74631 0.61699 0.59778 0.0
H113 H 0.7522 0.6636 0.60999 0.0
H114 H 0.77623 0.64411 0.57067 0.0
H115 H 0.6881 0.70511 0.54804 0.0
H116 H 0.72722 0.69988 0.52016 0.0
H117 H 0.73154 0.71172 0.56958 0.0
H118 H 0.83624 0.71191 0.49528 0.0
C119 C 0.7929 0.67357 0.5017 0.0
C120 C 0.66297 0.50942 0.95469 0.0
C121 C 0.62734 0.52049 0.9631 0.0
C122 C 0.60643 0.50018 0.9888 0.0
C123 C 0.65595 0.45836 0.99688 0.0
C124 C 0.67617 0.47757 0.97082 0.0
C125 C 0.71063 0.45825 0.96015 0.0
H126 H 0.81656 0.31015 0.97746 0.0
C127 C 0.67673 0.42616 0.00762 0.0
C128 C 0.70842 0.42534 0.98566 0.0
H129 H 0.82855 0.39788 0.89839 0.0
H130 H 0.77718 0.42855 0.92697 0.0
H131 H 0.8003 0.36088 0.05014 0.0
H132 H 0.72945 0.30373 0.97397 0.0
H133 H 0.71541 0.29564 0.02099 0.0
H134 H 0.75989 0.2817 0.00615 0.0
H135 H 0.7931 0.31329 0.05418 0.0
H136 H 0.76342 0.34531 0.07708 0.0
C137 C 0.74317 0.48256 0.97058 0.0
C138 C 0.7086 0.4482 0.9175 0.0
C139 C 0.63114 0.34873 0.11543 0.0
C140 C 0.6453 0.31864 0.13399 0.0
C141 C 0.67789 0.30311 0.12115 0.0
C142 C 0.69641 0.31795 0.09001 0.0
C143 C 0.68207 0.34854 0.07185 0.0
C144 C 0.64994 0.36332 0.08476 0.0
C145 C 0.63881 0.39601 0.0628 0.0
C146 C 0.67017 0.39924 0.03519 0.0
C147 C 0.69517 0.3712 0.0402 0.0
C148 C 0.63719 0.42827 0.0906 0.0
C149 C 0.60242 0.38765 0.04248 0.0
C150 C 0.80792 0.33598 0.96649 0.0
C151 C 0.82586 0.35168 0.93558 0.0
C152 C 0.81458 0.38543 0.92203 0.0
C153 C 0.78481 0.40297 0.93852 0.0
C154 C 0.76621 0.38638 0.96866 0.0
C155 C 0.77818 0.3537 0.98254 0.0
C156 C 0.7553 0.34027 0.01491 0.0
C157 C 0.72645 0.36928 0.01678 0.0
C158 C 0.73311 0.39631 0.98978 0.0
C159 C 0.77909 0.33957 0.05105 0.0
C160 C 0.73919 0.30327 0.00377 0.0
H161 H 0.60342 0.45547 0.02551 0.0
H162 H 0.67937 0.52418 0.93448 0.0
H163 H 0.68005 0.44649 0.90747 0.0
H164 H 0.72 0.42128 0.91146 0.0
H165 H 0.72268 0.4685 0.89965 0.0
H166 H 0.73942 0.49422 -0.00065 0.0
H167 H 0.74586 0.5052 0.95023 0.0
H168 H 0.7691 0.46775 0.97148 0.0
H169 H 0.60607 0.36096 0.12505 0.0
H170 H 0.68902 0.27983 0.13543 0.0
H171 H 0.72118 0.30518 0.08136 0.0
H172 H 0.66127 0.42828 0.10955 0.0
H173 H 0.61257 0.42677 0.10873 0.0
H174 H 0.63747 0.45463 0.07631 0.0
H175 H 0.59781 0.35819 0.03939 0.0
H176 H 0.60188 0.39809 0.01309 0.0
H177 H 0.57896 0.39878 0.05842 0.0
H178 H 0.57879 0.50799 0.99533 0.0
C179 C 0.62069 0.46955 0.00609 0.0
C180 C 0.18893 0.63522 0.43666 0.0
C181 C 0.1718 0.66649 0.44988 0.0
C182 C 0.18244 0.68184 0.4845 0.0
C183 C 0.22806 0.63566 0.49185 0.0
C184 C 0.21692 0.62019 0.45817 0.0
C185 C 0.23868 0.58727 0.44825 0.0
H186 H 0.37787 0.47566 0.4907 0.0
C187 C 0.25829 0.61409 0.50683 0.0
C188 C 0.26437 0.58537 0.48174 0.0
H189 H 0.31179 0.47527 0.39003 0.0
H190 H 0.27469 0.52341 0.41584 0.0
H191 H 0.38977 0.55348 0.49095 0.0
H192 H 0.31159 0.49207 0.55371 0.0
H193 H 0.32967 0.52432 0.58494 0.0
H194 H 0.35939 0.49167 0.56323 0.0
H195 H 0.40134 0.53171 0.53456 0.0
H196 H 0.38417 0.57715 0.53337 0.0
C197 C 0.25899 0.59464 0.41053 0.0
C198 C 0.21265 0.5546 0.44703 0.0
C199 C 0.32784 0.65758 0.62224 0.0
C200 C 0.35851 0.64385 0.64068 0.0
C201 C 0.3727 0.61028 0.63002 0.0
C202 C 0.35728 0.59088 0.60025 0.0
C203 C 0.3276 0.60549 0.58073 0.0
C204 C 0.31287 0.63793 0.59222 0.0
C205 C 0.28137 0.64906 0.5679 0.0
C206 C 0.28057 0.61855 0.53921 0.0
C207 C 0.30779 0.59332 0.54689 0.0
C208 C 0.29096 0.6856 0.54924 0.0
C209 C 0.24675 0.64973 0.59293 0.0
C210 C 0.35479 0.48546 0.47478 0.0
C211 C 0.3473 0.47189 0.43865 0.0
C212 C 0.31767 0.48551 0.41809 0.0
C213 C 0.2965 0.51354 0.433 0.0
C214 C 0.30561 0.52832 0.46845 0.0
C215 C 0.33412 0.51393 0.48881 0.0
C216 C 0.34216 0.53473 0.5242 0.0
C217 C 0.31366 0.56398 0.52199 0.0
C218 C 0.29215 0.56003 0.4895 0.0
C219 C 0.38137 0.54997 0.52103 0.0
C220 C 0.33569 0.50953 0.55851 0.0
H221 H 0.21759 0.67953 0.5317 0.0
H222 H 0.18087 0.62304 0.41009 0.0
H223 H 0.19278 0.55589 0.47076 0.0
H224 H 0.22675 0.52863 0.45047 0.0
H225 H 0.1971 0.55408 0.42012 0.0
H226 H 0.26615 0.62362 0.40775 0.0
H227 H 0.24202 0.58727 0.38575 0.0
H228 H 0.28522 0.58041 0.4086 0.0
H229 H 0.31651 0.68333 0.6304 0.0
H230 H 0.3962 0.5994 0.64441 0.0
H231 H 0.36961 0.56567 0.59308 0.0
H232 H 0.3197 0.68579 0.53955 0.0
H233 H 0.28745 0.70811 0.56964 0.0
H234 H 0.27483 0.69142 0.52372 0.0
H235 H 0.24884 0.63044 0.61693 0.0
H236 H 0.22223 0.64112 0.57733 0.0
H237 H 0.24209 0.67688 0.60516 0.0
H238 H 0.16915 0.70589 0.49494 0.0
C239 C 0.21046 0.66652 0.50565 0.0
C240 C 0.83226 0.83701 0.11447 0.0
C241 C 0.86371 0.85116 0.13104 0.0
C242 C 0.87824 0.88376 0.11767 0.0
C243 C 0.83034 0.88774 0.0711 0.0
C244 C 0.816 0.8558 0.08459 0.0
C245 C 0.78277 0.84442 0.06305 0.0
H246 H 0.65902 0.87951 0.92779 0.0
C247 C 0.80724 0.90028 0.03969 0.0
C248 C 0.77914 0.87525 0.03502 0.0
H249 H 0.67062 0.78446 0.99755 0.0
H250 H 0.72224 0.80929 0.02631 0.0
H251 H 0.67986 0.94005 0.99122 0.0
H252 H 0.74222 0.88133 0.90841 0.0
H253 H 0.75797 0.92592 0.90841 0.0
H254 H 0.71161 0.91676 0.89544 0.0
H255 H 0.6764 0.94864 0.94133 0.0
H256 H 0.71052 0.97025 0.97002 0.0
C257 C 0.75056 0.8431 0.09122 0.0
C258 C 0.79096 0.80807 0.04306 0.0
C259 C 0.8425 0.01225 0.96632 0.0
C260 C 0.8265 0.03029 0.9358 0.0
C261 C 0.79242 0.01901 0.92233 0.0
C262 C 0.77512 0.98894 0.93815 0.0
C263 C 0.79208 0.9702 0.96782 0.0
C264 C 0.82479 0.98247 0.98198 0.0
C265 C 0.83841 0.95978 0.01413 0.0
C266 C 0.80927 0.931 0.01593 0.0
C267 C 0.78231 0.93709 0.98862 0.0
C268 C 0.83907 0.98336 0.05039 0.0
C269 C 0.87575 0.94401 0.00258 0.0
C270 C 0.67038 0.86489 0.95133 0.0
C271 C 0.65503 0.83225 0.96472 0.0
C272 C 0.67665 0.81196 0.9903 0.0
C273 C 0.70816 0.82597 0.00646 0.0
C274 C 0.72024 0.86008 0.99575 0.0
C275 C 0.70221 0.87851 0.96769 0.0
C276 C 0.72161 0.91273 0.95693 0.0
C277 C 0.75352 0.91203 0.98414 0.0
C278 C 0.75234 0.88112 0.00689 0.0
C279 C 0.69588 0.94478 0.96494 0.0
C280 C 0.73391 0.90941 0.91508 0.0
H281 H 0.87413 0.92682 0.07872 0.0
H282 H 0.82092 0.81178 0.1243 0.0
H283 H 0.82062 0.80357 0.03951 0.0
H284 H 0.78003 0.80707 0.01387 0.0
H285 H 0.78 0.78499 0.05948 0.0
H286 H 0.75041 0.86748 0.10952 0.0
H287 H 0.75258 0.81918 0.10997 0.0
H288 H 0.72388 0.8426 0.07716 0.0
H289 H 0.86862 0.02074 0.97716 0.0
H290 H 0.77979 0.03291 0.89884 0.0
H291 H 0.74954 0.98112 0.92628 0.0
H292 H 0.81805 0.00482 0.04931 0.0
H293 H 0.86578 0.99678 0.05397 0.0
H294 H 0.83255 0.96793 0.0763 0.0
H295 H 0.87566 0.93572 0.97229 0.0
H296 H 0.88297 0.91947 0.01844 0.0
H297 H 0.89768 0.96421 0.00632 0.0
H298 H 0.9026 0.89481 0.13028 0.0
C299 C 0.86168 0.90221 0.08782 0.0
C300 C 0.32296 0.14214 0.45152 0.0
C301 C 0.34049 0.17184 0.46898 0.0
C302 C 0.32054 0.19009 0.49766 0.0
C303 C 0.27262 0.1459 0.49567 0.0
C304 C 0.28974 0.12939 0.46564 0.0
C305 C 0.26792 0.09825 0.45045 0.0
H306 H 0.11448 0.99733 0.46013 0.0
C307 C 0.2378 0.12765 0.50245 0.0
C308 C 0.23451 0.09985 0.47572 0.0
H309 H 0.20542 0.98237 0.38476 0.0
H310 H 0.23577 0.03422 0.41249 0.0
H311 H 0.16336 0.01944 0.53838 0.0
H312 H 0.10665 0.07581 0.45023 0.0
H313 H 0.10705 0.10547 0.489 0.0
H314 H 0.08389 0.06271 0.49293 0.0
H315 H 0.11572 0.01576 0.52826 0.0
H316 H 0.13254 0.05089 0.55797 0.0
C317 C 0.29006 0.06338 0.45675 0.0
C318 C 0.25855 0.10591 0.4085 0.0
C319 C 0.1595 0.1614 0.61598 0.0
C320 C 0.12377 0.15208 0.62608 0.0
C321 C 0.10273 0.13158 0.60067 0.0
C322 C 0.1179 0.11782 0.56743 0.0
C323 C 0.15428 0.12528 0.55895 0.0
C324 C 0.17375 0.1486 0.58162 0.0
C325 C 0.20963 0.15851 0.56396 0.0
C326 C 0.20986 0.13394 0.52936 0.0
C327 C 0.17773 0.11393 0.52737 0.0
C328 C 0.24032 0.14893 0.59197 0.0
C329 C 0.20836 0.19899 0.55298 0.0
C330 C 0.14123 0.005 0.4502 0.0
C331 C 0.15806 0.98583 0.42093 0.0
C332 C 0.19243 0.99673 0.4078 0.0
C333 C 0.20979 0.02679 0.42381 0.0
C334 C 0.19242 0.04598 0.45311 0.0
C335 C 0.15874 0.03482 0.4658 0.0
C336 C 0.14371 0.05855 0.49641 0.0
C337 C 0.17436 0.08546 0.50085 0.0
C338 C 0.20278 0.07813 0.47538 0.0
C339 C 0.13836 0.03514 0.53227 0.0
C340 C 0.10841 0.07649 0.48168 0.0
H341 H 0.2749 0.19163 0.5339 0.0
H342 H 0.33376 0.12941 0.42645 0.0
H343 H 0.25154 0.13477 0.40449 0.0
H344 H 0.23462 0.09078 0.39858 0.0
H345 H 0.2819 0.09967 0.38969 0.0
H346 H 0.30528 0.06463 0.48391 0.0
H347 H 0.31013 0.05929 0.43363 0.0
H348 H 0.27287 0.03917 0.45922 0.0
H349 H 0.17587 0.17804 0.63444 0.0
H350 H 0.07487 0.12484 0.60752 0.0
H351 H 0.10092 0.10137 0.54996 0.0
H352 H 0.23703 0.12088 0.60242 0.0
H353 H 0.23989 0.16724 0.61685 0.0
H354 H 0.2675 0.15055 0.57892 0.0
H355 H 0.18043 0.21027 0.55441 0.0
H356 H 0.21721 0.20353 0.52331 0.0
H357 H 0.22547 0.21553 0.57215 0.0
H358 H 0.32873 0.21562 0.50913 0.0
C359 C 0.28766 0.17684 0.51156 0.0
C360 C 0.15851 0.00447 0.94459 0.0
C361 C 0.12858 0.02069 0.96246 0.0
C362 C 0.1184 0.00969 -0.00096 0.0
C363 C 0.16574 0.96464 0.99854 0.0
C364 C 0.17686 0.97658 0.96329 0.0
C365 C 0.20874 0.95539 0.94848 0.0
H366 H 0.32573 0.81591 0.97172 0.0
C367 C 0.18861 0.93373 0.00918 0.0
C368 C 0.2143 0.92838 0.98033 0.0
H369 H 0.32053 0.8899 0.87781 0.0
H370 H 0.27115 0.92215 0.90836 0.0
H371 H 0.31429 0.87433 0.03888 0.0
H372 H 0.24069 0.80535 0.97813 0.0
H373 H 0.22707 0.80495 0.02574 0.0
H374 H 0.27145 0.78842 0.01317 0.0
H375 H 0.3129 0.82651 0.04587 0.0
H376 H 0.28351 0.85641 0.072 0.0
C377 C 0.24138 0.98134 0.94442 0.0
C378 C 0.19724 0.93686 0.91109 0.0
C379 C 0.15496 0.86069 0.12505 0.0
C380 C 0.16928 0.82939 0.14118 0.0
C381 C 0.20137 0.81441 0.12641 0.0
C382 C 0.21817 0.82986 0.09459 0.0
C383 C 0.20266 0.86054 0.07769 0.0
C384 C 0.17202 0.87581 0.09353 0.0
C385 C 0.15945 0.90853 0.07242 0.0
C386 C 0.18691 0.90983 0.04043 0.0
C387 C 0.21198 0.88161 0.04348 0.0
C388 C 0.16275 0.94155 0.09914 0.0
C389 C 0.1205 0.90103 0.05786 0.0
C390 C 0.31401 0.83928 0.95807 0.0
C391 C 0.32678 0.8508 0.92271 0.0
C392 C 0.3109 0.88092 0.90522 0.0
C393 C 0.28235 0.89944 0.92299 0.0
C394 C 0.26943 0.88735 0.95833 0.0
C395 C 0.28534 0.85773 0.97522 0.0
C396 C 0.26745 0.84773 0.01198 0.0
C397 C 0.23854 0.87656 0.01484 0.0
C398 C 0.23971 0.89974 0.98337 0.0
C399 C 0.29587 0.85109 0.04403 0.0
C400 C 0.25091 0.80957 0.00744 0.0
H401 H 0.12736 0.97422 0.04478 0.0
H402 H 0.16675 0.0127 0.91643 0.0
H403 H 0.16876 0.92706 0.91299 0.0
H404 H 0.21349 0.91274 0.90446 0.0
H405 H 0.19891 0.95585 0.88687 0.0
H406 H 0.24178 0.0012 0.96801 0.0
H407 H 0.23993 0.99661 0.91743 0.0
H408 H 0.26779 0.96745 0.94602 0.0
H409 H 0.13053 0.87279 0.13647 0.0
H410 H 0.21283 0.79042 0.13902 0.0
H411 H 0.24223 0.81702 0.08405 0.0
H412 H 0.18383 0.93728 0.12121 0.0
H413 H 0.13674 0.94704 0.11399 0.0
H414 H 0.17162 0.96614 0.08402 0.0
H415 H 0.11814 0.87294 0.0472 0.0
H416 H 0.11259 0.91814 0.03377 0.0
H417 H 0.10022 0.90452 0.08089 0.0
H418 H 0.09541 0.0221 0.01307 0.0
C419 C 0.13689 0.98185 0.01723 0.0
C420 C 0.6835 0.13061 0.43446 0.0
C421 C 0.66521 0.16064 0.44904 0.0
C422 C 0.67586 0.17551 0.48389 0.0
C423 C 0.72497 0.13254 0.48772 0.0
C424 C 0.71332 0.11696 0.45427 0.0
C425 C 0.73703 0.08605 0.44222 0.0
H426 H 0.89898 0.00313 0.45562 0.0
C427 C 0.75886 0.11461 0.49912 0.0
C428 C 0.76618 0.08741 0.47255 0.0
H429 H 0.80778 0.97068 0.38697 0.0
H430 H 0.77145 0.01882 0.41404 0.0
H431 H 0.88765 0.09164 0.45797 0.0
H432 H 0.85313 0.00245 0.52644 0.0
H433 H 0.85563 0.03901 0.55772 0.0
H434 H 0.89619 0.02365 0.53388 0.0
H435 H 0.91743 0.06381 0.48551 0.0
H436 H 0.89529 0.10232 0.50601 0.0
C437 C 0.75245 0.09432 0.40237 0.0
C438 C 0.71446 0.05085 0.44424 0.0
C439 C 0.82929 0.16052 0.61316 0.0
C440 C 0.86307 0.15082 0.6283 0.0
C441 C 0.88409 0.12431 0.61027 0.0
C442 C 0.87154 0.1072 0.57756 0.0
C443 C 0.83753 0.1167 0.56278 0.0
C444 C 0.81702 0.14298 0.58044 0.0
C445 C 0.78186 0.14983 0.56012 0.0
C446 C 0.78417 0.12237 0.52827 0.0
C447 C 0.81692 0.10332 0.52993 0.0
C448 C 0.78243 0.18911 0.54522 0.0
C449 C 0.75025 0.14133 0.58767 0.0
C450 C 0.87136 0.00682 0.44595 0.0
C451 C 0.85649 0.98396 0.41833 0.0
C452 C 0.81999 0.9886 0.40755 0.0
C453 C 0.79898 0.01628 0.42342 0.0
C454 C 0.81434 0.03878 0.45112 0.0
C455 C 0.84953 0.03294 0.46287 0.0
C456 C 0.85931 0.05497 0.49704 0.0
C457 C 0.82475 0.0764 0.50266 0.0
C458 C 0.79897 0.06763 0.47496 0.0
C459 C 0.89177 0.07945 0.48641 0.0
C460 C 0.86671 0.02892 0.53057 0.0
H461 H 0.71303 0.17439 0.52948 0.0
H462 H 0.67532 0.11881 0.40775 0.0
H463 H 0.69034 0.05376 0.46299 0.0
H464 H 0.73009 0.0283 0.45665 0.0
H465 H 0.70447 0.04279 0.41581 0.0
H466 H 0.76459 0.12174 0.40167 0.0
H467 H 0.73071 0.0932 0.38066 0.0
H468 H 0.77398 0.07552 0.39359 0.0
H469 H 0.81293 0.18113 0.62655 0.0
H470 H 0.91031 0.11685 0.62166 0.0
H471 H 0.88886 0.08732 0.56502 0.0
H472 H 0.81064 0.19854 0.53983 0.0
H473 H 0.76999 0.20791 0.56597 0.0
H474 H 0.76868 0.19211 0.51763 0.0
H475 H 0.75622 0.11669 0.60443 0.0
H476 H 0.72449 0.13559 0.57295 0.0
H477 H 0.7459 0.16379 0.60794 0.0
H478 H 0.66174 0.19867 0.49533 0.0
C479 C 0.70567 0.16154 0.50341 0.0
Sc480 Sc 0.00672 0.75871 0.30399 0.0
Sc481 Sc 0.0122 0.85307 0.29764 0.0
Sc482 Sc 0.00781 0.81186 0.38618 0.0
O483 O 0.00899 0.80777 0.32918 0.0
C484 C 0.95227 0.74717 0.37138 0.0
C485 C 0.95675 0.80715 0.25009 0.0
C486 C 0.95692 0.87574 0.36366 0.0
C487 C 0.06456 0.79862 0.25323 0.0
C488 C 0.05947 0.74595 0.37478 0.0
C489 C 0.06375 0.87477 0.3637 0.0
O490 O 0.96006 0.74267 0.33665 0.0
O491 O 0.96731 0.83702 0.26351 0.0
O492 O 0.96267 0.84801 0.38377 0.0
O493 O 0.05358 0.77015 0.26951 0.0
O494 O 0.05221 0.77523 0.39172 0.0
O495 O 0.05748 0.87343 0.32848 0.0
O496 O 0.04326 0.73515 0.34505 0.0
O497 O 0.0505 0.82942 0.25878 0.0
O498 O 0.04622 0.8563 0.38797 0.0
O499 O 0.96985 0.77687 0.26001 0.0
O500 O 0.96915 0.76877 0.39295 0.0
O501 O 0.9749 0.88261 0.33367 0.0
Sc502 Sc 0.9929 0.23589 0.80995 0.0
Sc503 Sc 0.99078 0.14268 0.81512 0.0
Sc504 Sc 0.98364 0.1925 0.8981 0.0
O505 O 0.98888 0.19044 0.84136 0.0
C506 C 0.045 0.25132 0.87815 0.0
C507 C 0.04561 0.18198 0.76507 0.0
C508 C 0.03414 0.1243 0.89069 0.0
C509 C 0.94203 0.19103 0.75947 0.0
C510 C 0.93823 0.26041 0.87548 0.0
C511 C 0.92601 0.1321 0.87301 0.0
O512 O 0.03909 0.2526 0.84261 0.0
O513 O 0.04113 0.15683 0.7888 0.0
O514 O 0.02486 0.1526 0.90832 0.0
O515 O 0.94693 0.22088 0.77629 0.0
O516 O 0.94181 0.23214 0.89512 0.0
O517 O 0.94096 0.12635 0.84115 0.0
O518 O 0.95732 0.2671 0.84629 0.0
O519 O 0.95915 0.16236 0.76782 0.0
O520 O 0.94075 0.15218 0.89804 0.0
O521 O 0.02778 0.21125 0.76719 0.0
O522 O 0.02562 0.23346 0.9016 0.0
O523 O 0.02215 0.1163 0.85813 0.0
Sc524 Sc 0.4957 0.25858 0.31192 0.0
Sc525 Sc 0.49884 0.35145 0.3054 0.0
Sc526 Sc 0.50857 0.31087 0.39258 0.0
O527 O 0.50172 0.30708 0.33669 0.0
C528 C 0.44972 0.2477 0.38391 0.0
C529 C 0.44423 0.30759 0.26081 0.0
C530 C 0.45354 0.37325 0.37879 0.0
C531 C 0.54778 0.29674 0.25659 0.0
C532 C 0.55433 0.24378 0.37643 0.0
C533 C 0.55886 0.37523 0.36155 0.0
O534 O 0.44933 0.24731 0.34774 0.0
O535 O 0.44793 0.33362 0.28346 0.0
O536 O 0.46276 0.3461 0.39838 0.0
O537 O 0.54187 0.26894 0.27669 0.0
O538 O 0.55415 0.27565 0.38938 0.0
O539 O 0.54866 0.37248 0.32735 0.0
O540 O 0.53117 0.23223 0.35257 0.0
O541 O 0.53066 0.32637 0.26059 0.0
O542 O 0.54496 0.35682 0.38839 0.0
O543 O 0.46177 0.27844 0.2655 0.0
O544 O 0.47307 0.26546 0.40292 0.0
O545 O 0.46756 0.38085 0.34683 0.0
Sc546 Sc 0.5021 0.73785 0.80751 0.0
Sc547 Sc 0.50129 0.64485 0.81209 0.0
Sc548 Sc 0.48719 0.69434 0.89338 0.0
O549 O 0.49631 0.6923 0.83776 0.0
C550 C 0.54603 0.75659 0.87927 0.0
C551 C 0.55738 0.68488 0.76513 0.0
C552 C 0.54227 0.63068 0.89013 0.0
C553 C 0.45347 0.69212 0.75556 0.0
C554 C 0.4408 0.75877 0.86767 0.0
C555 C 0.43867 0.62668 0.86758 0.0
O556 O 0.54682 0.75432 0.84318 0.0
O557 O 0.55309 0.6609 0.79015 0.0
O558 O 0.53326 0.66055 0.90487 0.0
O559 O 0.45738 0.72204 0.77258 0.0
O560 O 0.4413 0.72874 0.88486 0.0
O561 O 0.45052 0.62607 0.8338 0.0
O562 O 0.46448 0.76782 0.84311 0.0
O563 O 0.47217 0.66413 0.76289 0.0
O564 O 0.45121 0.64774 0.89294 0.0
O565 O 0.53862 0.71367 0.76561 0.0
O566 O 0.52245 0.74049 0.89965 0.0
O567 O 0.5295 0.61995 0.85866 0.0
C568 C 0.14102 0.27864 0.90476 0.0
C569 C 0.13344 0.30722 0.93027 0.0
C570 C 0.06886 0.3035 0.91496 0.0
C571 C 0.07584 0.27207 0.8934 0.0
N572 N 0.11773 0.22833 0.86829 0.0
N573 N 0.09047 0.34538 0.96253 0.0
C574 C 0.11176 0.25938 0.88816 0.0
C575 C 0.09743 0.31935 0.93611 0.0
N576 N 0.1762 0.27047 0.89588 0.0
N577 N 0.03523 0.31893 0.91391 0.0
H578 H 0.11087 0.35818 0.97793 0.0
H579 H 0.06442 0.3525 0.97113 0.0
H580 H 0.01426 0.30872 0.89726 0.0
H581 H 0.02912 0.34364 0.92626 0.0
H582 H 0.18359 0.2526 0.87452 0.0
H583 H 0.19835 0.28363 0.90797 0.0
H584 H 0.14263 0.21517 0.86733 0.0
H585 H 0.09713 0.21436 0.8544 0.0
C586 C 0.85782 0.72532 0.40789 0.0
C587 C 0.86471 0.69243 0.42701 0.0
C588 C 0.92723 0.69243 0.40316 0.0
C589 C 0.92143 0.72718 0.38779 0.0
N590 N 0.88275 0.77857 0.37777 0.0
N591 N 0.90655 0.64629 0.44676 0.0
C592 C 0.88711 0.74416 0.39073 0.0
C593 C 0.89956 0.67628 0.42556 0.0
N594 N 0.82307 0.73791 0.40509 0.0
N595 N 0.95902 0.67477 0.39591 0.0
H596 H 0.88691 0.63369 0.46345 0.0
H597 H 0.93236 0.63547 0.45022 0.0
H598 H 0.97987 0.68598 0.37973 0.0
H599 H 0.96363 0.64801 0.40314 0.0
H600 H 0.81572 0.75962 0.38816 0.0
H601 H 0.80087 0.72483 0.41724 0.0
H602 H 0.8598 0.79407 0.38318 0.0
H603 H 0.9031 0.7926 0.36342 0.0
C604 C 0.89028 0.33092 0.93544 0.0
C605 C 0.85613 0.33208 0.91721 0.0
C606 C 0.87848 0.2916 0.86748 0.0
C607 C 0.91108 0.28707 0.88825 0.0
N608 N 0.9472 0.2995 0.94379 0.0
N609 N 0.81584 0.31165 0.86796 0.0
C610 C 0.91683 0.30603 0.92269 0.0
C611 C 0.8498 0.31223 0.88351 0.0
N612 N 0.89745 0.35413 0.96457 0.0
N613 N 0.87473 0.27576 0.83272 0.0
H614 H 0.79427 0.32678 0.87857 0.0
H615 H 0.80821 0.29442 0.84614 0.0
H616 H 0.8942 0.25872 0.821 0.0
H617 H 0.85345 0.2813 0.8143 0.0
H618 H 0.92304 0.35735 0.97652 0.0
H619 H 0.87846 0.37264 0.97465 0.0
H620 H 0.95088 0.30918 0.97119 0.0
H621 H 0.96791 0.28233 0.93502 0.0
C622 C 0.10608 0.67836 0.4386 0.0
C623 C 0.14269 0.68369 0.42762 0.0
C624 C 0.12366 0.72495 0.37737 0.0
C625 C 0.08765 0.72282 0.39132 0.0
N626 N 0.0442 0.7003 0.43668 0.0
N627 N 0.18749 0.71366 0.38896 0.0
C628 C 0.07868 0.70015 0.42226 0.0
C629 C 0.15183 0.7072 0.39739 0.0
N630 N 0.09759 0.652 0.46416 0.0
N631 N 0.1308 0.74389 0.34497 0.0
H632 H 0.20886 0.70059 0.40252 0.0
H633 H 0.19613 0.73358 0.37029 0.0
H634 H 0.1109 0.75803 0.33022 0.0
H635 H 0.15574 0.74352 0.33109 0.0
H636 H 0.07114 0.64422 0.47052 0.0
H637 H 0.11713 0.63567 0.4768 0.0
H638 H 0.03686 0.68753 0.46179 0.0
H639 H 0.02316 0.71525 0.42484 0.0
C640 C 0.60803 0.78216 0.95871 0.0
C641 C 0.61973 0.8171 0.94884 0.0
C642 C 0.57682 0.81561 0.89549 0.0
C643 C 0.5738 0.77767 0.90007 0.0
N644 N 0.59202 0.72422 0.93425 0.0
N645 N 0.59292 0.87186 0.92602 0.0
C646 C 0.59112 0.76079 0.93111 0.0
C647 C 0.59816 0.83573 0.92185 0.0
N648 N 0.60714 0.77167 0.99568 0.0
N649 N 0.55906 0.83251 0.86665 0.0
H650 H 0.60252 0.88562 0.94977 0.0
H651 H 0.57509 0.88687 0.90955 0.0
H652 H 0.54129 0.81927 0.84844 0.0
H653 H 0.56365 0.85931 0.85944 0.0
H654 H 0.59582 0.74725 0.00429 0.0
H655 H 0.61319 0.78964 0.01755 0.0
H656 H 0.60609 0.71128 0.95595 0.0
H657 H 0.58249 0.70733 0.9129 0.0
C658 C 0.38939 0.22051 0.46524 0.0
C659 C 0.37648 0.18638 0.45408 0.0
C660 C 0.41947 0.1883 0.40064 0.0
C661 C 0.4231 0.22619 0.40612 0.0
N662 N 0.40697 0.27884 0.44324 0.0
N663 N 0.40063 0.13151 0.42862 0.0
C664 C 0.40665 0.24244 0.43826 0.0
C665 C 0.39733 0.16802 0.42624 0.0
N666 N 0.39164 0.22924 0.50264 0.0
N667 N 0.43744 0.17153 0.37173 0.0
H668 H 0.38953 0.11716 0.45128 0.0
H669 H 0.41783 0.11626 0.41161 0.0
H670 H 0.45684 0.18423 0.35494 0.0
H671 H 0.43206 0.14517 0.36345 0.0
H672 H 0.40382 0.25296 0.51207 0.0
H673 H 0.38614 0.21028 0.52373 0.0
H674 H 0.39329 0.29118 0.46568 0.0
H675 H 0.41739 0.29653 0.4231 0.0
C676 C 0.39272 0.84029 0.9095 0.0
C677 C 0.35605 0.83012 0.90382 0.0
C678 C 0.37554 0.77694 0.86805 0.0
C679 C 0.41201 0.78476 0.87775 0.0
N680 N 0.4559 0.82201 0.90988 0.0
N681 N 0.31167 0.78846 0.87948 0.0
C682 C 0.42087 0.8162 0.89866 0.0
C683 C 0.3472 0.79844 0.88335 0.0
N684 N 0.40054 0.873 0.92527 0.0
N685 N 0.3682 0.74951 0.84338 0.0
H686 H 0.29011 0.80444 0.88862 0.0
H687 H 0.30349 0.76353 0.86909 0.0
H688 H 0.38845 0.73346 0.83151 0.0
H689 H 0.34262 0.74449 0.83212 0.0
H690 H 0.42657 0.88378 0.92657 0.0
H691 H 0.38055 0.89083 0.93452 0.0
H692 H 0.46356 0.84208 0.92882 0.0
H693 H 0.47734 0.80518 0.90231 0.0
C694 C 0.59995 0.16871 0.43163 0.0
C695 C 0.63675 0.17865 0.42656 0.0
C696 C 0.6191 0.22576 0.3818 0.0
C697 C 0.58225 0.21896 0.39075 0.0
N698 N 0.53678 0.18594 0.42573 0.0
N699 N 0.68222 0.21716 0.39857 0.0
C700 C 0.57234 0.19064 0.41571 0.0
C701 C 0.64662 0.20718 0.40188 0.0
N702 N 0.59154 0.13827 0.45154 0.0
N703 N 0.62761 0.24942 0.35344 0.0
H704 H 0.70337 0.20324 0.41157 0.0
H705 H 0.69076 0.24044 0.3848 0.0
H706 H 0.60794 0.26321 0.33798 0.0
H707 H 0.65374 0.2531 0.34291 0.0
H708 H 0.56554 0.12741 0.45301 0.0
H709 H 0.61118 0.12211 0.46426 0.0
H710 H 0.52823 0.16861 0.44711 0.0
H711 H 0.51569 0.20115 0.41438 0.0
C712 C 0.35579 0.58058 0.91049 0.0
C713 C 0.3642 0.54398 0.90299 0.0
C714 C 0.42154 0.56171 0.87365 0.0
C715 C 0.41229 0.59852 0.87884 0.0
N716 N 0.36746 0.6432 0.895 0.0
N717 N 0.39997 0.50041 0.86884 0.0
C718 C 0.37841 0.60807 0.89514 0.0
C719 C 0.39542 0.53484 0.88168 0.0
N720 N 0.3271 0.58899 0.93339 0.0
N721 N 0.456 0.55213 0.86338 0.0
H722 H 0.38115 0.47998 0.87398 0.0
H723 H 0.4204 0.49307 0.84993 0.0
H724 H 0.47675 0.57066 0.8588 0.0
H725 H 0.46508 0.52558 0.86329 0.0
H726 H 0.32204 0.61491 0.9433 0.0
H727 H 0.30972 0.56959 0.94467 0.0
H728 H 0.34157 0.65138 0.90311 0.0
H729 H 0.38319 0.66387 0.88353 0.0
C730 C 0.60515 0.46629 0.3729 0.0
C731 C 0.63417 0.45681 0.3971 0.0
C732 C 0.61836 0.39302 0.39053 0.0
C733 C 0.58621 0.40302 0.37115 0.0
N734 N 0.54659 0.44993 0.34762 0.0
N735 N 0.66776 0.41179 0.43135 0.0
C736 C 0.57911 0.43983 0.36288 0.0
C737 C 0.64081 0.42029 0.4064 0.0
N738 N 0.60262 0.50066 0.3593 0.0
N739 N 0.62789 0.35754 0.39276 0.0
H740 H 0.68532 0.431 0.44269 0.0
H741 H 0.67126 0.38617 0.44267 0.0
H742 H 0.61241 0.33701 0.38069 0.0
H743 H 0.65269 0.34871 0.40332 0.0
H744 H 0.58439 0.50827 0.33829 0.0
H745 H 0.62105 0.52088 0.36642 0.0
H746 H 0.53827 0.47662 0.34552 0.0
H747 H 0.52629 0.43183 0.34007 0.0
C748 C 0.59335 0.57888 0.96695 0.0
C749 C 0.6107 0.55236 0.94441 0.0
C750 C 0.59311 0.58595 0.88802 0.0
C751 C 0.5685 0.60679 0.90993 0.0
N752 N 0.54074 0.61689 0.97162 0.0
N753 N 0.6201 0.52732 0.88166 0.0
C754 C 0.56756 0.60201 0.94993 0.0
C755 C 0.60897 0.55499 0.90434 0.0
N756 N 0.60137 0.58197 0.00455 0.0
N757 N 0.60196 0.59594 0.85195 0.0
H758 H 0.62924 0.50275 0.8921 0.0
H759 H 0.61622 0.52742 0.8524 0.0
H760 H 0.59311 0.62004 0.84001 0.0
H761 H 0.62172 0.58265 0.83607 0.0
H762 H 0.59135 0.60281 0.02136 0.0
H763 H 0.62114 0.56621 0.01762 0.0
H764 H 0.53781 0.61117 0.00037 0.0
H765 H 0.51891 0.63113 0.96058 0.0
C766 C 0.36379 0.41004 0.41515 0.0
C767 C 0.37336 0.44657 0.42107 0.0
C768 C 0.43618 0.43365 0.40344 0.0
C769 C 0.42598 0.39799 0.39417 0.0
N770 N 0.37897 0.3538 0.38415 0.0
N771 N 0.41636 0.49502 0.41255 0.0
C772 C 0.38943 0.38653 0.39804 0.0
C773 C 0.4089 0.45896 0.41265 0.0
N774 N 0.33078 0.39755 0.42695 0.0
N775 N 0.47204 0.44293 0.40503 0.0
H776 H 0.39683 0.51458 0.41834 0.0
H777 H 0.44089 0.50565 0.40302 0.0
H778 H 0.49287 0.42457 0.39995 0.0
H779 H 0.48116 0.46765 0.41518 0.0
H780 H 0.32388 0.37037 0.42712 0.0
H781 H 0.31125 0.41407 0.43941 0.0
H782 H 0.352 0.34552 0.38277 0.0
H783 H 0.39694 0.33612 0.37089 0.0
C784 C 0.86257 0.05279 0.88055 0.0
C785 C 0.8466 0.05954 0.91641 0.0
C786 C 0.87201 0.12061 0.9161 0.0
C787 C 0.89205 0.11167 0.88299 0.0
N788 N 0.88651 0.07944 0.82362 0.0
N789 N 0.83387 0.10009 0.96805 0.0
C790 C 0.88153 0.0808 0.86194 0.0
C791 C 0.85031 0.09374 0.93395 0.0
N792 N 0.86123 0.01914 0.86491 0.0
N793 N 0.87122 0.15553 0.9282 0.0
H794 H 0.81611 0.08179 0.9807 0.0
H795 H 0.83899 0.12263 0.9847 0.0
H796 H 0.88284 0.17636 0.9125 0.0
H797 H 0.8554 0.16472 0.95063 0.0
H798 H 0.87621 0.01198 0.84099 0.0
H799 H 0.84787 0.99751 0.87755 0.0
H800 H 0.8769 0.05844 0.80684 0.0
H801 H 0.89431 0.10178 0.80778 0.0
C802 C 0.10792 0.96581 0.37889 0.0
C803 C 0.13756 0.95645 0.40231 0.0
C804 C 0.12176 0.89255 0.39623 0.0
C805 C 0.08952 0.90251 0.37704 0.0
N806 N 0.04855 0.94917 0.35601 0.0
N807 N 0.17157 0.91163 0.43642 0.0
C808 C 0.08176 0.93929 0.36972 0.0
C809 C 0.14436 0.91995 0.41171 0.0
N810 N 0.10495 9e-05 0.36518 0.0
N811 N 0.13119 0.85707 0.39875 0.0
H812 H 0.18915 0.93094 0.44751 0.0
H813 H 0.1753 0.88604 0.44776 0.0
H814 H 0.11521 0.83642 0.38767 0.0
H815 H 0.15612 0.84829 0.40899 0.0
H816 H 0.08597 0.00757 0.34483 0.0
H817 H 0.12374 0.02027 0.37133 0.0
H818 H 0.04004 0.97583 0.35412 0.0
H819 H 0.02797 0.9308 0.35003 0.0
C820 C 0.11701 0.0836 0.93901 0.0
C821 C 0.10572 0.04724 0.94223 0.0
C822 C 0.04639 0.0626 0.91578 0.0
C823 C 0.05868 0.0983 0.90942 0.0
N824 N 0.10748 0.14162 0.90927 0.0
N825 N 0.0627 0.00046 0.92712 0.0
C826 C 0.09451 0.10856 0.91953 0.0
C827 C 0.0713 0.03624 0.92859 0.0
N828 N 0.14872 0.09446 0.95548 0.0
N829 N 0.0105 0.05425 0.91129 0.0
H830 H 0.08032 0.98026 0.93615 0.0
H831 H 0.03959 0.9906 0.91374 0.0
H832 H 0.99106 0.07304 0.90302 0.0
H833 H -0.00069 0.02968 0.91939 0.0
H834 H 0.15644 0.12132 0.95783 0.0
H835 H 0.16618 0.07675 0.96933 0.0
H836 H 0.13452 0.14925 0.91219 0.0
H837 H 0.09183 0.16051 0.8949 0.0
C838 C 0.89654 0.9306 0.4291 0.0
C839 C 0.87885 0.95381 0.40322 0.0
C840 C 0.90617 0.91993 0.35097 0.0
C841 C 0.92936 0.90207 0.37704 0.0
N842 N 0.95246 0.89968 0.44139 0.0
N843 N 0.87277 0.97455 0.33853 0.0
C844 C 0.92616 0.9098 0.41634 0.0
C845 C 0.88515 0.9496 0.36376 0.0
N846 N 0.88498 0.9281 0.46579 0.0
N847 N 0.90306 0.90802 0.31452 0.0
H848 H 0.85884 0.99768 0.34671 0.0
H849 H 0.87971 0.97403 0.30989 0.0
H850 H 0.91607 0.88497 0.30462 0.0
H851 H 0.88416 0.91855 0.29561 0.0
H852 H 0.89568 0.90942 0.48476 0.0
H853 H 0.86207 0.94162 0.47578 0.0
H854 H 0.95201 0.90743 0.46978 0.0
H855 H 0.97693 0.88801 0.43312 0.0
C856 C 0.38808 0.29383 0.17039 0.0
C857 C 0.38518 0.33 0.15765 0.0
C858 C 0.42457 0.34932 0.20881 0.0
C859 C 0.42357 0.31432 0.22517 0.0
N860 N 0.39622 0.25505 0.22489 0.0
N861 N 0.38999 0.39299 0.17402 0.0
C862 C 0.40287 0.28695 0.20702 0.0
C863 C 0.39967 0.358 0.18013 0.0
N864 N 0.37832 0.26603 0.14727 0.0
N865 N 0.45101 0.37358 0.21802 0.0
H866 H 0.37037 0.40036 0.15422 0.0
H867 H 0.39844 0.41385 0.19173 0.0
H868 H 0.47342 0.36711 0.23457 0.0
H869 H 0.45348 0.39841 0.20446 0.0
H870 H 0.3832 0.23919 0.15408 0.0
H871 H 0.36853 0.26989 0.1199 0.0
H872 H 0.37879 0.2356 0.21388 0.0
H873 H 0.40472 0.24975 0.25246 0.0
C874 C 0.61637 0.69616 0.67643 0.0
C875 C 0.62147 0.65967 0.66558 0.0
C876 C 0.58302 0.64045 0.71792 0.0
C877 C 0.581 0.67643 0.73178 0.0
N878 N 0.60543 0.73686 0.72882 0.0
N879 N 0.62062 0.59746 0.68518 0.0
C880 C 0.6007 0.70389 0.71251 0.0
C881 C 0.60876 0.632 0.68968 0.0
N882 N 0.62468 0.72339 0.65198 0.0
N883 N 0.55841 0.61484 0.72861 0.0
H884 H 0.64045 0.59048 0.66534 0.0
H885 H 0.61371 0.57694 0.70402 0.0
H886 H 0.53527 0.62042 0.7445 0.0
H887 H 0.55804 0.58912 0.71676 0.0
H888 H 0.61806 0.75017 0.6574 0.0
H889 H 0.63507 0.71895 0.62491 0.0
H890 H 0.62198 0.75667 0.71701 0.0
H891 H 0.59644 0.74283 0.75613 0.0
C892 C 0.59502 0.28259 0.16217 0.0
C893 C 0.62579 0.30483 0.16764 0.0
C894 C 0.60997 0.31242 0.23455 0.0
C895 C 0.57634 0.29525 0.22739 0.0
N896 N 0.53581 0.26398 0.18519 0.0
N897 N 0.66347 0.34116 0.2082 0.0
C898 C 0.56878 0.27973 0.19157 0.0
C899 C 0.6339 0.31931 0.20382 0.0
N900 N 0.591 0.26451 0.12872 0.0
N901 N 0.61889 0.32198 0.27078 0.0
H902 H 0.68233 0.34562 0.18663 0.0
H903 H 0.6685 0.35624 0.23248 0.0
H904 H 0.60164 0.31757 0.29379 0.0
H905 H 0.64434 0.33152 0.27862 0.0
H906 H 0.57087 0.24542 0.12386 0.0
H907 H 0.60988 0.2664 0.10675 0.0
H908 H 0.52685 0.25589 0.15859 0.0
H909 H 0.51632 0.2607 0.20639 0.0
C910 C 0.40697 0.68664 0.66041 0.0
C911 C 0.37714 0.66454 0.67059 0.0
C912 C 0.39185 0.67141 0.73769 0.0
C913 C 0.42477 0.68837 0.72701 0.0
N914 N 0.46445 0.713 0.67938 0.0
N915 N 0.3395 0.63647 0.71792 0.0
C916 C 0.43228 0.69689 0.68871 0.0
C917 C 0.36868 0.65763 0.70907 0.0
N918 N 0.41109 0.69742 0.62362 0.0
N919 N 0.38311 0.66834 0.77523 0.0
H920 H 0.32116 0.62734 0.69759 0.0
H921 H 0.33409 0.62673 0.74497 0.0
H922 H 0.40001 0.67766 0.79678 0.0
H923 H 0.35819 0.65909 0.78514 0.0
H924 H 0.43041 0.71602 0.61471 0.0
H925 H 0.39313 0.68988 0.60224 0.0
H926 H 0.47371 0.71613 0.65172 0.0
H927 H 0.48293 0.72191 0.69968 0.0
C928 C 0.87232 0.83748 0.20002 0.0
C929 C 0.88263 0.83175 0.16179 0.0
C930 C 0.9386 0.8022 0.18189 0.0
C931 C 0.92883 0.80879 0.22018 0.0
N932 N 0.88306 0.8235 0.26628 0.0
N933 N 0.91959 0.80047 0.11617 0.0
C934 C 0.89441 0.82334 0.22939 0.0
C935 C 0.91376 0.81114 0.15273 0.0
N936 N 0.84245 0.85786 0.20817 0.0
N937 N 0.97253 0.78987 0.17324 0.0
H938 H 0.90193 0.80698 0.09415 0.0
H939 H 0.93993 0.78254 0.10825 0.0
H940 H 0.99141 0.78284 0.19381 0.0
H941 H 0.98287 0.7888 0.14579 0.0
H942 H 0.83591 0.86667 0.23533 0.0
H943 H 0.82507 0.86766 0.18731 0.0
H944 H 0.85709 0.83102 0.27476 0.0
H945 H 0.89879 0.81294 0.28817 0.0
C946 C 0.0942 0.13198 0.68598 0.0
C947 C 0.10858 0.16059 0.66417 0.0
C948 C 0.08963 0.20251 0.71404 0.0
C949 C 0.06866 0.17476 0.73118 0.0
N950 N 0.0429 0.11482 0.72357 0.0
N951 N 0.11461 0.22485 0.6551 0.0
C952 C 0.06878 0.13981 0.71466 0.0
C953 C 0.10504 0.19648 0.67755 0.0
N954 N 0.10449 0.09727 0.6792 0.0
N955 N 0.09583 0.23406 0.73277 0.0
H956 H 0.12458 0.22171 0.62766 0.0
H957 H 0.10927 0.25149 0.6625 0.0
H958 H 0.08701 0.23861 0.76044 0.0
H959 H 0.11333 0.25383 0.72246 0.0
H960 H 0.09627 0.07595 0.69643 0.0
H961 H 0.12436 0.09057 0.65931 0.0
H962 H 0.04114 0.09006 0.70975 0.0
H963 H 0.02026 0.12044 0.74022 0.0
C964 C 0.15313 0.82736 0.2099 0.0
C965 C 0.1495 0.81257 0.17312 0.0
C966 C 0.09484 0.77978 0.19248 0.0
C967 C 0.09678 0.79709 0.22825 0.0
N968 N 0.13245 0.82774 0.27528 0.0
N969 N 0.12339 0.76827 0.13153 0.0
C970 C 0.12765 0.81772 0.23835 0.0
C971 C 0.12258 0.78635 0.16526 0.0
N972 N 0.17998 0.85185 0.21694 0.0
N973 N 0.06552 0.75882 0.18385 0.0
H974 H 0.14298 0.77313 0.1108 0.0
H975 H 0.10662 0.74661 0.12508 0.0
H976 H 0.04595 0.75167 0.20379 0.0
H977 H 0.05978 0.74932 0.1568 0.0
H978 H 0.18161 0.86708 0.24162 0.0
H979 H 0.20013 0.85799 0.19715 0.0
H980 H 0.15573 0.84034 0.28538 0.0
H981 H 0.1143 0.82049 0.29669 0.0
C982 C 0.86596 0.15613 0.69911 0.0
C983 C 0.87733 0.1683 0.6629 0.0
C984 C 0.92731 0.2021 0.69135 0.0
C985 C 0.91655 0.1891 0.72742 0.0
N986 N 0.87091 0.16259 0.76737 0.0
N987 N 0.91187 0.20995 0.62507 0.0
C988 C 0.88415 0.16906 0.73183 0.0
C989 C 0.9057 0.19381 0.65927 0.0
N990 N 0.83918 0.1308 0.70205 0.0
N991 N 0.95924 0.2205 0.68746 0.0
H992 H 0.89637 0.20426 0.6011 0.0
H993 H 0.92997 0.23117 0.62124 0.0
H994 H 0.97531 0.22792 0.71045 0.0
H995 H 0.97088 0.2267 0.66137 0.0
H996 H 0.83267 0.11768 0.72721 0.0
H997 H 0.82472 0.12127 0.67875 0.0
H998 H 0.84577 0.1508 0.77263 0.0
H999 H 0.8838 0.17206 0.79173 0.0
loop_
_geom_bond_atom_site_label_1
_geom_bond_atom_site_label_2
_geom_bond_distance
_geom_bond_site_symmetry_2
_ccdc_geom_bond_type
C0 C1 1.391 . S
C0 C4 1.391 . S
C0 H42 0.948 . S
C1 C0 1.391 . S
C1 C2 1.391 . S
C2 C1 1.391 . S
C2 H58 0.947 . S
C2 C59 1.392 . S
C3 C4 1.391 . S
C3 C7 1.397 . S
C3 C59 1.419 . S
C4 C0 1.391 . S
C4 C3 1.391 . S
C4 C5 1.399 . S
C5 C4 1.399 . S
C5 C8 1.396 . S
C5 C17 1.453 . S
C5 C18 1.684 . S
H6 C30 0.948 . S
C7 C3 1.397 . S
C7 C8 1.394 . S
C7 C26 1.723 . S
C8 C5 1.396 . S
C8 C7 1.394 . S
C8 C38 1.723 . S
H9 C32 0.947 1_554 S
H10 C33 0.948 . S
H11 C39 0.982 . S
H12 C40 0.979 . S
H13 C40 0.980 . S
H14 C40 0.983 . S
H15 C39 0.979 . S
H16 C39 0.977 . S
C17 C5 1.453 . S
C17 H46 0.982 . S
C17 H47 0.979 . S
C17 H48 0.977 . S
C18 C5 1.684 . S
C18 H43 0.979 . S
C18 H44 0.980 . S
C18 H45 0.983 . S
C19 C20 1.391 . S
C19 C24 1.391 . S
C19 H49 0.948 . S
C20 C19 1.391 . S
C20 C21 1.391 . S
C21 C20 1.391 . S
C21 C22 1.392 . S
C21 H50 0.947 . S
C22 C21 1.392 . S
C22 C23 1.419 . S
C22 H51 0.948 . S
C23 C22 1.419 . S
C23 C24 1.391 . S
C23 C27 1.397 . S
C24 C19 1.391 . S
C24 C23 1.391 . S
C24 C25 1.399 1_556 S
C25 C24 1.399 1_554 S
C25 C26 1.396 . S
C25 C28 1.453 . S
C25 C29 1.684 . S
C26 C7 1.723 . S
C26 C25 1.396 . S
C26 C27 1.394 1_554 S
C27 C23 1.397 . S
C27 C26 1.394 1_556 S
C27 C37 1.723 . S
C28 C25 1.453 . S
C28 H52 0.982 . S
C28 H53 0.979 . S
C28 H54 0.977 . S
C29 C25 1.684 . S
C29 H55 0.979 . S
C29 H56 0.980 . S
C29 H57 0.983 . S
C30 H6 0.948 . S
C30 C31 1.391 . S
C30 C35 1.391 . S
C31 C30 1.391 . S
C31 C32 1.391 . S
C32 H9 0.947 1_556 S
C32 C31 1.391 . S
C32 C33 1.392 1_556 S
C33 H10 0.948 . S
C33 C32 1.392 1_554 S
C33 C34 1.419 1_554 S
C34 C33 1.419 1_556 S
C34 C35 1.391 . S
C34 C38 1.397 1_556 S
C35 C30 1.391 . S
C35 C34 1.391 . S
C35 C36 1.399 . S
C36 C35 1.399 . S
C36 C37 1.396 . S
C36 C39 1.453 . S
C36 C40 1.684 . S
C37 C27 1.723 . S
C37 C36 1.396 . S
C37 C38 1.394 1_556 S
C38 C8 1.723 . S
C38 C34 1.397 1_554 S
C38 C37 1.394 1_554 S
C39 H11 0.982 . S
C39 H15 0.979 . S
C39 H16 0.977 . S
C39 C36 1.453 . S
C40 H12 0.979 . S
C40 H13 0.980 . S
C40 H14 0.983 . S
C40 C36 1.684 . S
H41 C59 0.948 . S
H42 C0 0.948 . S
H43 C18 0.979 . S
H44 C18 0.980 . S
H45 C18 0.983 . S
H46 C17 0.982 . S
H47 C17 0.979 . S
H48 C17 0.977 . S
H49 C19 0.948 . S
H50 C21 0.947 . S
H51 C22 0.948 . S
H52 C28 0.982 . S
H53 C28 0.979 . S
H54 C28 0.977 . S
H55 C29 0.979 . S
H56 C29 0.980 . S
H57 C29 0.983 . S
H58 C2 0.947 . S
C59 C2 1.392 . S
C59 C3 1.419 . S
C59 H41 0.948 . S
C60 C61 1.391 . S
C60 C64 1.391 . S
C60 H102 0.948 . S
C61 C60 1.391 . S
C61 C62 1.391 . S
C62 C61 1.391 . S
C62 H118 0.947 . S
C62 C119 1.392 . S
C63 C64 1.391 . S
C63 C67 1.397 . S
C63 C119 1.419 . S
C64 C60 1.391 . S
C64 C63 1.391 . S
C64 C65 1.399 . S
C65 C64 1.399 . S
C65 C68 1.396 . S
C65 C77 1.453 . S
C65 C78 1.684 . S
H66 C90 0.948 . S
C67 C63 1.397 . S
C67 C68 1.394 . S
C67 C86 1.723 . S
C68 C65 1.396 . S
C68 C67 1.394 . S
C68 C98 1.723 . S
H69 C92 0.947 . S
H70 C93 0.948 . S
H71 C99 0.982 . S
H72 C100 0.979 . S
H73 C100 0.980 . S
H74 C100 0.983 . S
H75 C99 0.979 . S
H76 C99 0.977 . S
C77 C65 1.453 . S
C77 H106 0.982 . S
C77 H107 0.979 . S
C77 H108 0.977 . S
C78 C65 1.684 . S
C78 H103 0.979 . S
C78 H104 0.980 . S
C78 H105 0.983 . S
C79 C80 1.391 . S
C79 C84 1.391 . S
C79 H109 0.948 . S
C80 C79 1.391 . S
C80 C81 1.391 . S
C81 C80 1.391 . S
C81 C82 1.392 . S
C81 H110 0.947 . S
C82 C81 1.392 . S
C82 C83 1.419 . S
C82 H111 0.948 . S
C83 C82 1.419 . S
C83 C84 1.391 . S
C83 C87 1.397 . S
C84 C79 1.391 . S
C84 C83 1.391 . S
C84 C85 1.399 . S
C85 C84 1.399 . S
C85 C86 1.396 . S
C85 C88 1.453 . S
C85 C89 1.684 . S
C86 C67 1.723 . S
C86 C85 1.396 . S
C86 C87 1.394 . S
C87 C83 1.397 . S
C87 C86 1.394 . S
C87 C97 1.723 . S
C88 C85 1.453 . S
C88 H112 0.982 . S
C88 H113 0.979 . S
C88 H114 0.977 . S
C89 C85 1.684 . S
C89 H115 0.979 . S
C89 H116 0.980 . S
C89 H117 0.983 . S
C90 H66 0.948 . S
C90 C91 1.391 . S
C90 C95 1.391 . S
C91 C90 1.391 . S
C91 C92 1.391 . S
C92 H69 0.947 . S
C92 C91 1.391 . S
C92 C93 1.392 . S
C93 H70 0.948 . S
C93 C92 1.392 . S
C93 C94 1.419 . S
C94 C93 1.419 . S
C94 C95 1.391 . S
C94 C98 1.397 . S
C95 C90 1.391 . S
C95 C94 1.391 . S
C95 C96 1.399 . S
C96 C95 1.399 . S
C96 C97 1.396 . S
C96 C99 1.453 . S
C96 C100 1.684 . S
C97 C87 1.723 . S
C97 C96 1.396 . S
C97 C98 1.394 . S
C98 C68 1.723 . S
C98 C94 1.397 . S
C98 C97 1.394 . S
C99 H71 0.982 . S
C99 H75 0.979 . S
C99 H76 0.977 . S
C99 C96 1.453 . S
C100 H72 0.979 . S
C100 H73 0.980 . S
C100 H74 0.983 . S
C100 C96 1.684 . S
H101 C119 0.948 . S
H102 C60 0.948 . S
H103 C78 0.979 . S
H104 C78 0.980 . S
H105 C78 0.983 . S
H106 C77 0.982 . S
H107 C77 0.979 . S
H108 C77 0.977 . S
H109 C79 0.948 . S
H110 C81 0.947 . S
H111 C82 0.948 . S
H112 C88 0.982 . S
H113 C88 0.979 . S
H114 C88 0.977 . S
H115 C89 0.979 . S
H116 C89 0.980 . S
H117 C89 0.983 . S
H118 C62 0.947 . S
C119 C62 1.392 . S
C119 C63 1.419 . S
C119 H101 0.948 . S
C120 C121 1.391 . S
C120 C124 1.391 . S
C120 H162 0.948 . S
C121 C120 1.391 . S
C121 C122 1.391 . S
C122 C121 1.391 . S
C122 H178 0.947 . S
C122 C179 1.392 . S
C123 C124 1.391 . S
C123 C127 1.397 . S
C123 C179 1.419 . S
C124 C120 1.391 . S
C124 C123 1.391 . S
C124 C125 1.399 . S
C125 C124 1.399 . S
C125 C128 1.396 . S
C125 C137 1.453 . S
C125 C138 1.684 . S
H126 C150 0.948 . S
C127 C123 1.397 . S
C127 C128 1.394 . S
C127 C146 1.723 1_556 S
C128 C125 1.396 . S
C128 C127 1.394 . S
C128 C158 1.723 . S
H129 C152 0.947 . S
H130 C153 0.948 . S
H131 C159 0.982 . S
H132 C160 0.979 . S
H133 C160 0.980 . S
H134 C160 0.983 . S
H135 C159 0.979 . S
H136 C159 0.977 . S
C137 C125 1.453 . S
C137 H166 0.982 . S
C137 H167 0.979 . S
C137 H168 0.977 . S
C138 C125 1.684 . S
C138 H163 0.979 . S
C138 H164 0.980 . S
C138 H165 0.983 . S
C139 C140 1.391 . S
C139 C144 1.391 . S
C139 H169 0.948 . S
C140 C139 1.391 . S
C140 C141 1.391 . S
C141 C140 1.391 . S
C141 C142 1.392 . S
C141 H170 0.947 . S
C142 C141 1.392 . S
C142 C143 1.419 . S
C142 H171 0.948 . S
C143 C142 1.419 . S
C143 C144 1.391 . S
C143 C147 1.397 . S
C144 C139 1.391 . S
C144 C143 1.391 . S
C144 C145 1.399 . S
C145 C144 1.399 . S
C145 C146 1.396 . S
C145 C148 1.453 . S
C145 C149 1.684 . S
C146 C127 1.723 1_554 S
C146 C145 1.396 . S
C146 C147 1.394 . S
C147 C143 1.397 . S
C147 C146 1.394 . S
C147 C157 1.723 . S
C148 C145 1.453 . S
C148 H172 0.982 . S
C148 H173 0.979 . S
C148 H174 0.977 . S
C149 C145 1.684 . S
C149 H175 0.979 . S
C149 H176 0.980 . S
C149 H177 0.983 . S
C150 H126 0.948 . S
C150 C151 1.391 . S
C150 C155 1.391 . S
C151 C150 1.391 . S
C151 C152 1.391 . S
C152 H129 0.947 . S
C152 C151 1.391 . S
C152 C153 1.392 . S
C153 H130 0.948 . S
C153 C152 1.392 . S
C153 C154 1.419 . S
C154 C153 1.419 . S
C154 C155 1.391 . S
C154 C158 1.397 . S
C155 C150 1.391 . S
C155 C154 1.391 . S
C155 C156 1.399 1_556 S
C156 C155 1.399 1_554 S
C156 C157 1.396 . S
C156 C159 1.453 . S
C156 C160 1.684 . S
C157 C147 1.723 . S
C157 C156 1.396 . S
C157 C158 1.394 1_554 S
C158 C128 1.723 . S
C158 C154 1.397 . S
C158 C157 1.394 1_556 S
C159 H131 0.982 . S
C159 H135 0.979 . S
C159 H136 0.977 . S
C159 C156 1.453 . S
C160 H132 0.979 . S
C160 H133 0.980 . S
C160 H134 0.983 . S
C160 C156 1.684 . S
H161 C179 0.948 1_554 S
H162 C120 0.948 . S
H163 C138 0.979 . S
H164 C138 0.980 . S
H165 C138 0.983 . S
H166 C137 0.982 . S
H167 C137 0.979 . S
H168 C137 0.977 . S
H169 C139 0.948 . S
H170 C141 0.947 . S
H171 C142 0.948 . S
H172 C148 0.982 . S
H173 C148 0.979 . S
H174 C148 0.977 . S
H175 C149 0.979 . S
H176 C149 0.980 . S
H177 C149 0.983 . S
H178 C122 0.947 . S
C179 C122 1.392 . S
C179 C123 1.419 . S
C179 H161 0.948 1_556 S
C180 C181 1.391 . S
C180 C184 1.391 . S
C180 H222 0.948 . S
C181 C180 1.391 . S
C181 C182 1.391 . S
C182 C181 1.391 . S
C182 H238 0.947 . S
C182 C239 1.392 . S
C183 C184 1.391 . S
C183 C187 1.397 . S
C183 C239 1.419 . S
C184 C180 1.391 . S
C184 C183 1.391 . S
C184 C185 1.399 . S
C185 C184 1.399 . S
C185 C188 1.396 . S
C185 C197 1.453 . S
C185 C198 1.684 . S
H186 C210 0.948 . S
C187 C183 1.397 . S
C187 C188 1.394 . S
C187 C206 1.723 . S
C188 C185 1.396 . S
C188 C187 1.394 . S
C188 C218 1.723 . S
H189 C212 0.947 . S
H190 C213 0.948 . S
H191 C219 0.982 . S
H192 C220 0.979 . S
H193 C220 0.980 . S
H194 C220 0.983 . S
H195 C219 0.979 . S
H196 C219 0.977 . S
C197 C185 1.453 . S
C197 H226 0.982 . S
C197 H227 0.979 . S
C197 H228 0.977 . S
C198 C185 1.684 . S
C198 H223 0.979 . S
C198 H224 0.980 . S
C198 H225 0.983 . S
C199 C200 1.391 . S
C199 C204 1.391 . S
C199 H229 0.948 . S
C200 C199 1.391 . S
C200 C201 1.391 . S
C201 C200 1.391 . S
C201 C202 1.392 . S
C201 H230 0.947 . S
C202 C201 1.392 . S
C202 C203 1.419 . S
C202 H231 0.948 . S
C203 C202 1.419 . S
C203 C204 1.391 . S
C203 C207 1.397 . S
C204 C199 1.391 . S
C204 C203 1.391 . S
C204 C205 1.399 . S
C205 C204 1.399 . S
C205 C206 1.396 . S
C205 C208 1.453 . S
C205 C209 1.684 . S
C206 C187 1.723 . S
C206 C205 1.396 . S
C206 C207 1.394 . S
C207 C203 1.397 . S
C207 C206 1.394 . S
C207 C217 1.723 . S
C208 C205 1.453 . S
C208 H232 0.982 . S
C208 H233 0.979 . S
C208 H234 0.977 . S
C209 C205 1.684 . S
C209 H235 0.979 . S
C209 H236 0.980 . S
C209 H237 0.983 . S
C210 H186 0.948 . S
C210 C211 1.391 . S
C210 C215 1.391 . S
C211 C210 1.391 . S
C211 C212 1.391 . S
C212 H189 0.947 . S
C212 C211 1.391 . S
C212 C213 1.392 . S
C213 H190 0.948 . S
C213 C212 1.392 . S
C213 C214 1.419 . S
C214 C213 1.419 . S
C214 C215 1.391 . S
C214 C218 1.397 . S
C215 C210 1.391 . S
C215 C214 1.391 . S
C215 C216 1.399 . S
C216 C215 1.399 . S
C216 C217 1.396 . S
C216 C219 1.453 . S
C216 C220 1.684 . S
C217 C207 1.723 . S
C217 C216 1.396 . S
C217 C218 1.394 . S
C218 C188 1.723 . S
C218 C214 1.397 . S
C218 C217 1.394 . S
C219 H191 0.982 . S
C219 H195 0.979 . S
C219 H196 0.977 . S
C219 C216 1.453 . S
C220 H192 0.979 . S
C220 H193 0.980 . S
C220 H194 0.983 . S
C220 C216 1.684 . S
H221 C239 0.948 . S
H222 C180 0.948 . S
H223 C198 0.979 . S
H224 C198 0.980 . S
H225 C198 0.983 . S
H226 C197 0.982 . S
H227 C197 0.979 . S
H228 C197 0.977 . S
H229 C199 0.948 . S
H230 C201 0.947 . S
H231 C202 0.948 . S
H232 C208 0.982 . S
H233 C208 0.979 . S
H234 C208 0.977 . S
H235 C209 0.979 . S
H236 C209 0.980 . S
H237 C209 0.983 . S
H238 C182 0.947 . S
C239 C182 1.392 . S
C239 C183 1.419 . S
C239 H221 0.948 . S
C240 C241 1.391 . S
C240 C244 1.391 . S
C240 H282 0.948 . S
C241 C240 1.391 . S
C241 C242 1.391 . S
C242 C241 1.391 . S
C242 H298 0.947 . S
C242 C299 1.392 . S
C243 C244 1.391 . S
C243 C247 1.397 . S
C243 C299 1.419 . S
C244 C240 1.391 . S
C244 C243 1.391 . S
C244 C245 1.399 . S
C245 C244 1.399 . S
C245 C248 1.396 . S
C245 C257 1.453 . S
C245 C258 1.684 . S
H246 C270 0.948 . S
C247 C243 1.397 . S
C247 C248 1.394 . S
C247 C266 1.723 . S
C248 C245 1.396 . S
C248 C247 1.394 . S
C248 C278 1.723 . S
H249 C272 0.947 1_554 S
H250 C273 0.948 . S
H251 C279 0.982 . S
H252 C280 0.979 . S
H253 C280 0.980 . S
H254 C280 0.983 . S
H255 C279 0.979 . S
H256 C279 0.977 . S
C257 C245 1.453 . S
C257 H286 0.982 . S
C257 H287 0.979 . S
C257 H288 0.977 . S
C258 C245 1.684 . S
C258 H283 0.979 . S
C258 H284 0.980 . S
C258 H285 0.983 . S
C259 C260 1.391 . S
C259 C264 1.391 1_545 S
C259 H289 0.948 . S
C260 C259 1.391 . S
C260 C261 1.391 . S
C261 C260 1.391 . S
C261 C262 1.392 1_545 S
C261 H290 0.947 . S
C262 C261 1.392 1_565 S
C262 C263 1.419 . S
C262 H291 0.948 . S
C263 C262 1.419 . S
C263 C264 1.391 . S
C263 C267 1.397 . S
C264 C259 1.391 1_565 S
C264 C263 1.391 . S
C264 C265 1.399 1_556 S
C265 C264 1.399 1_554 S
C265 C266 1.396 . S
C265 C268 1.453 . S
C265 C269 1.684 . S
C266 C247 1.723 . S
C266 C265 1.396 . S
C266 C267 1.394 1_554 S
C267 C263 1.397 . S
C267 C266 1.394 1_556 S
C267 C277 1.723 . S
C268 C265 1.453 . S
C268 H292 0.982 . S
C268 H293 0.979 1_565 S
C268 H294 0.977 . S
C269 C265 1.684 . S
C269 H295 0.979 . S
C269 H296 0.980 . S
C269 H297 0.983 . S
C270 H246 0.948 . S
C270 C271 1.391 . S
C270 C275 1.391 . S
C271 C270 1.391 . S
C271 C272 1.391 . S
C272 H249 0.947 1_556 S
C272 C271 1.391 . S
C272 C273 1.392 1_556 S
C273 H250 0.948 . S
C273 C272 1.392 1_554 S
C273 C274 1.419 1_554 S
C274 C273 1.419 1_556 S
C274 C275 1.391 . S
C274 C278 1.397 1_556 S
C275 C270 1.391 . S
C275 C274 1.391 . S
C275 C276 1.399 . S
C276 C275 1.399 . S
C276 C277 1.396 . S
C276 C279 1.453 . S
C276 C280 1.684 . S
C277 C267 1.723 . S
C277 C276 1.396 . S
C277 C278 1.394 1_556 S
C278 C248 1.723 . S
C278 C274 1.397 1_554 S
C278 C277 1.394 1_554 S
C279 H251 0.982 . S
C279 H255 0.979 . S
C279 H256 0.977 . S
C279 C276 1.453 . S
C280 H252 0.979 . S
C280 H253 0.980 . S
C280 H254 0.983 . S
C280 C276 1.684 . S
H281 C299 0.948 . S
H282 C240 0.948 . S
H283 C258 0.979 . S
H284 C258 0.980 . S
H285 C258 0.983 . S
H286 C257 0.982 . S
H287 C257 0.979 . S
H288 C257 0.977 . S
H289 C259 0.948 . S
H290 C261 0.947 . S
H291 C262 0.948 . S
H292 C268 0.982 . S
H293 C268 0.979 1_545 S
H294 C268 0.977 . S
H295 C269 0.979 . S
H296 C269 0.980 . S
H297 C269 0.983 . S
H298 C242 0.947 . S
C299 C242 1.392 . S
C299 C243 1.419 . S
C299 H281 0.948 . S
C300 C301 1.391 . S
C300 C304 1.391 . S
C300 H342 0.948 . S
C301 C300 1.391 . S
C301 C302 1.391 . S
C302 C301 1.391 . S
C302 H358 0.947 . S
C302 C359 1.392 . S
C303 C304 1.391 . S
C303 C307 1.397 . S
C303 C359 1.419 . S
C304 C300 1.391 . S
C304 C303 1.391 . S
C304 C305 1.399 . S
C305 C304 1.399 . S
C305 C308 1.396 . S
C305 C317 1.453 . S
C305 C318 1.684 . S
H306 C330 0.948 . S
C307 C303 1.397 . S
C307 C308 1.394 . S
C307 C326 1.723 . S
C308 C305 1.396 . S
C308 C307 1.394 . S
C308 C338 1.723 . S
H309 C332 0.947 . S
H310 C333 0.948 . S
H311 C339 0.982 . S
H312 C340 0.979 . S
H313 C340 0.980 . S
H314 C340 0.983 . S
H315 C339 0.979 1_565 S
H316 C339 0.977 . S
C317 C305 1.453 . S
C317 H346 0.982 . S
C317 H347 0.979 . S
C317 H348 0.977 . S
C318 C305 1.684 . S
C318 H343 0.979 . S
C318 H344 0.980 . S
C318 H345 0.983 . S
C319 C320 1.391 . S
C319 C324 1.391 . S
C319 H349 0.948 . S
C320 C319 1.391 . S
C320 C321 1.391 . S
C321 C320 1.391 . S
C321 C322 1.392 . S
C321 H350 0.947 . S
C322 C321 1.392 . S
C322 C323 1.419 . S
C322 H351 0.948 . S
C323 C322 1.419 . S
C323 C324 1.391 . S
C323 C327 1.397 . S
C324 C319 1.391 . S
C324 C323 1.391 . S
C324 C325 1.399 . S
C325 C324 1.399 . S
C325 C326 1.396 . S
C325 C328 1.453 . S
C325 C329 1.684 . S
C326 C307 1.723 . S
C326 C325 1.396 . S
C326 C327 1.394 . S
C327 C323 1.397 . S
C327 C326 1.394 . S
C327 C337 1.723 . S
C328 C325 1.453 . S
C328 H352 0.982 . S
C328 H353 0.979 . S
C328 H354 0.977 . S
C329 C325 1.684 . S
C329 H355 0.979 . S
C329 H356 0.980 . S
C329 H357 0.983 . S
C330 H306 0.948 . S
C330 C331 1.391 . S
C330 C335 1.391 1_565 S
C331 C330 1.391 . S
C331 C332 1.391 . S
C332 H309 0.947 . S
C332 C331 1.391 . S
C332 C333 1.392 1_565 S
C333 H310 0.948 . S
C333 C332 1.392 1_545 S
C333 C334 1.419 . S
C334 C333 1.419 . S
C334 C335 1.391 . S
C334 C338 1.397 . S
C335 C330 1.391 1_545 S
C335 C334 1.391 . S
C335 C336 1.399 . S
C336 C335 1.399 . S
C336 C337 1.396 . S
C336 C339 1.453 . S
C336 C340 1.684 . S
C337 C327 1.723 . S
C337 C336 1.396 . S
C337 C338 1.394 . S
C338 C308 1.723 . S
C338 C334 1.397 . S
C338 C337 1.394 . S
C339 H311 0.982 . S
C339 H315 0.979 1_545 S
C339 H316 0.977 . S
C339 C336 1.453 . S
C340 H312 0.979 . S
C340 H313 0.980 . S
C340 H314 0.983 . S
C340 C336 1.684 . S
H341 C359 0.948 . S
H342 C300 0.948 . S
H343 C318 0.979 . S
H344 C318 0.980 . S
H345 C318 0.983 . S
H346 C317 0.982 . S
H347 C317 0.979 . S
H348 C317 0.977 . S
H349 C319 0.948 . S
H350 C321 0.947 . S
H351 C322 0.948 . S
H352 C328 0.982 . S
H353 C328 0.979 . S
H354 C328 0.977 . S
H355 C329 0.979 . S
H356 C329 0.980 . S
H357 C329 0.983 . S
H358 C302 0.947 . S
C359 C302 1.392 . S
C359 C303 1.419 . S
C359 H341 0.948 . S
C360 C361 1.390 . S
C360 C364 1.392 1_545 S
C360 H402 0.948 . S
C361 C360 1.390 . S
C361 C362 1.391 . S
C362 C361 1.391 . S
C362 H418 0.947 . S
C362 C419 1.392 1_545 S
C363 C364 1.391 . S
C363 C367 1.397 . S
C363 C419 1.419 . S
C364 C360 1.392 1_565 S
C364 C363 1.391 . S
C364 C365 1.399 . S
C365 C364 1.399 . S
C365 C368 1.396 . S
C365 C377 1.453 . S
C365 C378 1.684 . S
H366 C390 0.948 . S
C367 C363 1.397 . S
C367 C368 1.394 . S
C367 C386 1.723 1_556 S
C368 C365 1.396 . S
C368 C367 1.394 . S
C368 C398 1.723 . S
H369 C392 0.947 . S
H370 C393 0.948 . S
H371 C399 0.982 . S
H372 C400 0.979 . S
H373 C400 0.980 . S
H374 C400 0.983 . S
H375 C399 0.979 . S
H376 C399 0.977 . S
C377 C365 1.453 . S
C377 H406 0.982 . S
C377 H407 0.979 . S
C377 H408 0.977 . S
C378 C365 1.684 . S
C378 H403 0.979 . S
C378 H404 0.980 . S
C378 H405 0.983 . S
C379 C380 1.391 . S
C379 C384 1.391 . S
C379 H409 0.948 . S
C380 C379 1.391 . S
C380 C381 1.391 . S
C381 C380 1.391 . S
C381 C382 1.392 . S
C381 H410 0.947 . S
C382 C381 1.392 . S
C382 C383 1.419 . S
C382 H411 0.948 . S
C383 C382 1.419 . S
C383 C384 1.391 . S
C383 C387 1.397 . S
C384 C379 1.391 . S
C384 C383 1.391 . S
C384 C385 1.399 . S
C385 C384 1.399 . S
C385 C386 1.396 . S
C385 C388 1.453 . S
C385 C389 1.684 . S
C386 C367 1.723 1_554 S
C386 C385 1.396 . S
C386 C387 1.394 . S
C387 C383 1.397 . S
C387 C386 1.394 . S
C387 C397 1.723 . S
C388 C385 1.453 . S
C388 H412 0.982 . S
C388 H413 0.979 . S
C388 H414 0.977 . S
C389 C385 1.684 . S
C389 H415 0.979 . S
C389 H416 0.980 . S
C389 H417 0.983 . S
C390 H366 0.948 . S
C390 C391 1.391 . S
C390 C395 1.391 . S
C391 C390 1.391 . S
C391 C392 1.391 . S
C392 H369 0.947 . S
C392 C391 1.391 . S
C392 C393 1.392 . S
C393 H370 0.948 . S
C393 C392 1.392 . S
C393 C394 1.419 . S
C394 C393 1.419 . S
C394 C395 1.391 . S
C394 C398 1.397 . S
C395 C390 1.391 . S
C395 C394 1.391 . S
C395 C396 1.399 1_556 S
C396 C395 1.399 1_554 S
C396 C397 1.396 . S
C396 C399 1.453 . S
C396 C400 1.684 . S
C397 C387 1.723 . S
C397 C396 1.396 . S
C397 C398 1.394 1_554 S
C398 C368 1.723 . S
C398 C394 1.397 . S
C398 C397 1.394 1_556 S
C399 H371 0.982 . S
C399 H375 0.979 . S
C399 H376 0.977 . S
C399 C396 1.453 . S
C400 H372 0.979 . S
C400 H373 0.980 . S
C400 H374 0.983 . S
C400 C396 1.684 . S
H401 C419 0.948 1_554 S
H402 C360 0.948 . S
H403 C378 0.979 . S
H404 C378 0.980 . S
H405 C378 0.983 . S
H406 C377 0.982 . S
H407 C377 0.979 . S
H408 C377 0.977 . S
H409 C379 0.948 . S
H410 C381 0.947 . S
H411 C382 0.948 . S
H412 C388 0.982 . S
H413 C388 0.979 . S
H414 C388 0.977 . S
H415 C389 0.979 . S
H416 C389 0.980 . S
H417 C389 0.983 . S
H418 C362 0.947 . S
C419 C362 1.392 1_565 S
C419 C363 1.419 . S
C419 H401 0.948 1_556 S
C420 C421 1.391 . S
C420 C424 1.391 . S
C420 H462 0.948 . S
C421 C420 1.391 . S
C421 C422 1.391 . S
C422 C421 1.391 . S
C422 H478 0.947 . S
C422 C479 1.392 . S
C423 C424 1.391 . S
C423 C427 1.397 . S
C423 C479 1.419 . S
C424 C420 1.391 . S
C424 C423 1.391 . S
C424 C425 1.399 . S
C425 C424 1.399 . S
C425 C428 1.396 . S
C425 C437 1.453 . S
C425 C438 1.684 . S
H426 C450 0.948 . S
C427 C423 1.397 . S
C427 C428 1.394 . S
C427 C446 1.723 . S
C428 C425 1.396 . S
C428 C427 1.394 . S
C428 C458 1.723 . S
H429 C452 0.947 . S
H430 C453 0.948 . S
H431 C459 0.982 . S
H432 C460 0.979 1_565 S
H433 C460 0.980 . S
H434 C460 0.983 1_565 S
H435 C459 0.979 . S
H436 C459 0.977 . S
C437 C425 1.453 . S
C437 H466 0.982 . S
C437 H467 0.979 . S
C437 H468 0.977 . S
C438 C425 1.684 . S
C438 H463 0.979 . S
C438 H464 0.980 . S
C438 H465 0.983 . S
C439 C440 1.391 . S
C439 C444 1.391 . S
C439 H469 0.948 . S
C440 C439 1.391 . S
C440 C441 1.391 . S
C441 C440 1.391 . S
C441 C442 1.392 . S
C441 H470 0.947 . S
C442 C441 1.392 . S
C442 C443 1.419 . S
C442 H471 0.948 . S
C443 C442 1.419 . S
C443 C444 1.391 . S
C443 C447 1.397 . S
C444 C439 1.391 . S
C444 C443 1.391 . S
C444 C445 1.399 . S
C445 C444 1.399 . S
C445 C446 1.396 . S
C445 C448 1.453 . S
C445 C449 1.684 . S
C446 C427 1.723 . S
C446 C445 1.396 . S
C446 C447 1.394 . S
C447 C443 1.397 . S
C447 C446 1.394 . S
C447 C457 1.723 . S
C448 C445 1.453 . S
C448 H472 0.982 . S
C448 H473 0.979 . S
C448 H474 0.977 . S
C449 C445 1.684 . S
C449 H475 0.979 . S
C449 H476 0.980 . S
C449 H477 0.983 . S
C450 H426 0.948 . S
C450 C451 1.391 . S
C450 C455 1.391 1_565 S
C451 C450 1.391 . S
C451 C452 1.391 . S
C452 H429 0.947 . S
C452 C451 1.391 . S
C452 C453 1.392 1_565 S
C453 H430 0.948 . S
C453 C452 1.392 1_545 S
C453 C454 1.419 . S
C454 C453 1.419 . S
C454 C455 1.391 . S
C454 C458 1.397 . S
C455 C450 1.391 1_545 S
C455 C454 1.391 . S
C455 C456 1.399 . S
C456 C455 1.399 . S
C456 C457 1.396 . S
C456 C459 1.453 . S
C456 C460 1.684 . S
C457 C447 1.723 . S
C457 C456 1.396 . S
C457 C458 1.394 . S
C458 C428 1.723 . S
C458 C454 1.397 . S
C458 C457 1.394 . S
C459 H431 0.982 . S
C459 H435 0.979 . S
C459 H436 0.977 . S
C459 C456 1.453 . S
C460 H432 0.979 1_545 S
C460 H433 0.980 . S
C460 H434 0.983 1_545 S
C460 C456 1.684 . S
H461 C479 0.948 . S
H462 C420 0.948 . S
H463 C438 0.979 . S
H464 C438 0.980 . S
H465 C438 0.983 . S
H466 C437 0.982 . S
H467 C437 0.979 . S
H468 C437 0.977 . S
H469 C439 0.948 . S
H470 C441 0.947 . S
H471 C442 0.948 . S
H472 C448 0.982 . S
H473 C448 0.979 . S
H474 C448 0.977 . S
H475 C449 0.979 . S
H476 C449 0.980 . S
H477 C449 0.983 . S
H478 C422 0.947 . S
C479 C422 1.392 . S
C479 C423 1.419 . S
C479 H461 0.948 . S
Sc480 O483 2.025 . S
Sc480 O490 2.105 1_455 S
Sc480 O493 2.105 . S
Sc480 O496 2.105 . S
Sc480 O499 2.105 1_455 S
Sc481 O483 2.025 . S
Sc481 O491 2.105 1_455 S
Sc481 O495 2.105 . S
Sc481 O497 2.105 . S
Sc481 O501 2.105 1_455 S
Sc482 O483 2.025 . S
Sc482 O492 2.105 1_455 S
Sc482 O494 2.105 . S
Sc482 O498 2.105 . S
Sc482 O500 2.105 1_455 S
O483 Sc480 2.025 . S
O483 Sc481 2.025 . S
O483 Sc482 2.025 . S
C484 O490 1.268 . S
C484 O500 1.268 . S
C485 O491 1.268 . S
C485 O499 1.268 . S
C486 O492 1.268 . S
C486 O501 1.268 . S
C487 O493 1.268 . S
C487 O497 1.268 . S
C488 O494 1.268 . S
C488 O496 1.268 . S
C489 O495 1.268 . S
C489 O498 1.268 . S
O490 Sc480 2.105 1_655 S
O490 C484 1.268 . S
O491 Sc481 2.105 1_655 S
O491 C485 1.268 . S
O492 Sc482 2.105 1_655 S
O492 C486 1.268 . S
O493 Sc480 2.105 . S
O493 C487 1.268 . S
O494 Sc482 2.105 . S
O494 C488 1.268 . S
O495 Sc481 2.105 . S
O495 C489 1.268 . S
O496 Sc480 2.105 . S
O496 C488 1.268 . S
O497 Sc481 2.105 . S
O497 C487 1.268 . S
O498 Sc482 2.105 . S
O498 C489 1.268 . S
O499 Sc480 2.105 1_655 S
O499 C485 1.268 . S
O500 Sc482 2.105 1_655 S
O500 C484 1.268 . S
O501 Sc481 2.105 1_655 S
O501 C486 1.268 . S
Sc502 O505 2.025 . S
Sc502 O512 2.105 . S
Sc502 O515 2.105 1_455 S
Sc502 O518 2.105 1_455 S
Sc502 O521 2.105 . S
Sc503 O505 2.025 . S
Sc503 O513 2.105 . S
Sc503 O517 2.105 1_455 S
Sc503 O519 2.105 1_455 S
Sc503 O523 2.105 . S
Sc504 O505 2.025 . S
Sc504 O514 2.105 . S
Sc504 O516 2.105 1_455 S
Sc504 O520 2.105 1_455 S
Sc504 O522 2.105 . S
O505 Sc502 2.025 . S
O505 Sc503 2.025 . S
O505 Sc504 2.025 . S
C506 O512 1.268 . S
C506 O522 1.268 . S
C507 O513 1.268 . S
C507 O521 1.268 . S
C508 O514 1.268 . S
C508 O523 1.268 . S
C509 O515 1.268 . S
C509 O519 1.268 . S
C510 O516 1.268 . S
C510 O518 1.268 . S
C511 O517 1.268 . S
C511 O520 1.268 . S
O512 Sc502 2.105 . S
O512 C506 1.268 . S
O513 Sc503 2.105 . S
O513 C507 1.268 . S
O514 Sc504 2.105 . S
O514 C508 1.268 . S
O515 Sc502 2.105 1_655 S
O515 C509 1.268 . S
O516 Sc504 2.105 1_655 S
O516 C510 1.268 . S
O517 Sc503 2.105 1_655 S
O517 C511 1.268 . S
O518 Sc502 2.105 1_655 S
O518 C510 1.268 . S
O519 Sc503 2.105 1_655 S
O519 C509 1.268 . S
O520 Sc504 2.105 1_655 S
O520 C511 1.268 . S
O521 Sc502 2.105 . S
O521 C507 1.268 . S
O522 Sc504 2.105 . S
O522 C506 1.268 . S
O523 Sc503 2.105 . S
O523 C508 1.268 . S
Sc524 O527 2.025 . S
Sc524 O534 2.105 . S
Sc524 O537 2.105 . S
Sc524 O540 2.105 . S
Sc524 O543 2.105 . S
Sc525 O527 2.025 . S
Sc525 O535 2.105 . S
Sc525 O539 2.105 . S
Sc525 O541 2.105 . S
Sc525 O545 2.105 . S
Sc526 O527 2.025 . S
Sc526 O536 2.105 . S
Sc526 O538 2.105 . S
Sc526 O542 2.105 . S
Sc526 O544 2.105 . S
O527 Sc524 2.025 . S
O527 Sc525 2.025 . S
O527 Sc526 2.025 . S
C528 O534 1.268 . S
C528 O544 1.268 . S
C529 O535 1.268 . S
C529 O543 1.268 . S
C530 O536 1.268 . S
C530 O545 1.268 . S
C531 O537 1.268 . S
C531 O541 1.268 . S
C532 O538 1.268 . S
C532 O540 1.268 . S
C533 O539 1.268 . S
C533 O542 1.268 . S
O534 Sc524 2.105 . S
O534 C528 1.268 . S
O535 Sc525 2.105 . S
O535 C529 1.268 . S
O536 Sc526 2.105 . S
O536 C530 1.268 . S
O537 Sc524 2.105 . S
O537 C531 1.268 . S
O538 Sc526 2.105 . S
O538 C532 1.268 . S
O539 Sc525 2.105 . S
O539 C533 1.268 . S
O540 Sc524 2.105 . S
O540 C532 1.268 . S
O541 Sc525 2.105 . S
O541 C531 1.268 . S
O542 Sc526 2.105 . S
O542 C533 1.268 . S
O543 Sc524 2.105 . S
O543 C529 1.268 . S
O544 Sc526 2.105 . S
O544 C528 1.268 . S
O545 Sc525 2.105 . S
O545 C530 1.268 . S
Sc546 O549 2.025 . S
Sc546 O556 2.105 . S
Sc546 O559 2.105 . S
Sc546 O562 2.105 . S
Sc546 O565 2.105 . S
Sc547 O549 2.025 . S
Sc547 O557 2.105 . S
Sc547 O561 2.105 . S
Sc547 O563 2.105 . S
Sc547 O567 2.105 . S
Sc548 O549 2.025 . S
Sc548 O558 2.105 . S
Sc548 O560 2.105 . S
Sc548 O564 2.105 . S
Sc548 O566 2.105 . S
O549 Sc546 2.025 . S
O549 Sc547 2.025 . S
O549 Sc548 2.025 . S
C550 O556 1.268 . S
C550 O566 1.268 . S
C551 O557 1.268 . S
C551 O565 1.268 . S
C552 O558 1.268 . S
C552 O567 1.268 . S
C553 O559 1.268 . S
C553 O563 1.268 . S
C554 O560 1.268 . S
C554 O562 1.268 . S
C555 O561 1.268 . S
C555 O564 1.268 . S
O556 Sc546 2.105 . S
O556 C550 1.268 . S
O557 Sc547 2.105 . S
O557 C551 1.268 . S
O558 Sc548 2.105 . S
O558 C552 1.268 . S
O559 Sc546 2.105 . S
O559 C553 1.268 . S
O560 Sc548 2.105 . S
O560 C554 1.268 . S
O561 Sc547 2.105 . S
O561 C555 1.268 . S
O562 Sc546 2.105 . S
O562 C554 1.268 . S
O563 Sc547 2.105 . S
O563 C553 1.268 . S
O564 Sc548 2.105 . S
O564 C555 1.268 . S
O565 Sc546 2.105 . S
O565 C551 1.268 . S
O566 Sc548 2.105 . S
O566 C550 1.268 . S
O567 Sc547 2.105 . S
O567 C552 1.268 . S
C568 C569 1.363 . S
C568 C574 1.379 . S
C568 N576 1.356 . S
C569 C568 1.363 . S
C569 C575 1.363 . S
C570 C571 1.363 . S
C570 C575 1.379 . S
C570 N577 1.356 . S
C571 C570 1.363 . S
C571 C574 1.363 . S
N572 C574 1.356 . S
N572 H584 0.984 . S
N572 H585 0.985 . S
N573 C575 1.356 . S
N573 H578 0.984 . S
N573 H579 0.985 . S
C574 C568 1.379 . S
C574 C571 1.363 . S
C574 N572 1.356 . S
C575 C569 1.363 . S
C575 C570 1.379 . S
C575 N573 1.356 . S
N576 C568 1.356 . S
N576 H582 0.984 . S
N576 H583 0.984 . S
N577 C570 1.356 . S
N577 H580 0.984 . S
N577 H581 0.985 . S
H578 N573 0.984 . S
H579 N573 0.985 . S
H580 N577 0.984 . S
H581 N577 0.985 . S
H582 N576 0.984 . S
H583 N576 0.984 . S
H584 N572 0.984 . S
H585 N572 0.985 . S
C586 C587 1.363 . S
C586 C592 1.379 . S
C586 N594 1.356 . S
C587 C586 1.363 . S
C587 C593 1.363 . S
C588 C589 1.363 . S
C588 C593 1.379 . S
C588 N595 1.356 . S
C589 C588 1.363 . S
C589 C592 1.363 . S
N590 C592 1.356 . S
N590 H602 0.984 . S
N590 H603 0.985 . S
N591 C593 1.356 . S
N591 H596 0.984 . S
N591 H597 0.985 . S
C592 C586 1.379 . S
C592 C589 1.363 . S
C592 N590 1.356 . S
C593 C587 1.363 . S
C593 C588 1.379 . S
C593 N591 1.356 . S
N594 C586 1.356 . S
N594 H600 0.984 . S
N594 H601 0.984 . S
N595 C588 1.356 . S
N595 H598 0.984 . S
N595 H599 0.985 . S
H596 N591 0.984 . S
H597 N591 0.985 . S
H598 N595 0.984 . S
H599 N595 0.985 . S
H600 N594 0.984 . S
H601 N594 0.984 . S
H602 N590 0.984 . S
H603 N590 0.985 . S
C604 C605 1.363 . S
C604 C610 1.379 . S
C604 N612 1.356 . S
C605 C604 1.363 . S
C605 C611 1.363 . S
C606 C607 1.363 . S
C606 C611 1.379 . S
C606 N613 1.356 . S
C607 C606 1.363 . S
C607 C610 1.363 . S
N608 C610 1.356 . S
N608 H620 0.984 . S
N608 H621 0.985 . S
N609 C611 1.356 . S
N609 H614 0.984 . S
N609 H615 0.985 . S
C610 C604 1.379 . S
C610 C607 1.363 . S
C610 N608 1.356 . S
C611 C605 1.363 . S
C611 C606 1.379 . S
C611 N609 1.356 . S
N612 C604 1.356 . S
N612 H618 0.984 . S
N612 H619 0.984 . S
N613 C606 1.356 . S
N613 H616 0.984 . S
N613 H617 0.985 . S
H614 N609 0.984 . S
H615 N609 0.985 . S
H616 N613 0.984 . S
H617 N613 0.985 . S
H618 N612 0.984 . S
H619 N612 0.984 . S
H620 N608 0.984 . S
H621 N608 0.985 . S
C622 C623 1.363 . S
C622 C628 1.379 . S
C622 N630 1.356 . S
C623 C622 1.363 . S
C623 C629 1.363 . S
C624 C625 1.363 . S
C624 C629 1.379 . S
C624 N631 1.356 . S
C625 C624 1.363 . S
C625 C628 1.363 . S
N626 C628 1.356 . S
N626 H638 0.984 . S
N626 H639 0.985 . S
N627 C629 1.356 . S
N627 H632 0.984 . S
N627 H633 0.985 . S
C628 C622 1.379 . S
C628 C625 1.363 . S
C628 N626 1.356 . S
C629 C623 1.363 . S
C629 C624 1.379 . S
C629 N627 1.356 . S
N630 C622 1.356 . S
N630 H636 0.984 . S
N630 H637 0.984 . S
N631 C624 1.356 . S
N631 H634 0.984 . S
N631 H635 0.985 . S
H632 N627 0.984 . S
H633 N627 0.985 . S
H634 N631 0.984 . S
H635 N631 0.985 . S
H636 N630 0.984 . S
H637 N630 0.984 . S
H638 N626 0.984 . S
H639 N626 0.985 . S
C640 C641 1.363 . S
C640 C646 1.379 . S
C640 N648 1.356 . S
C641 C640 1.363 . S
C641 C647 1.363 . S
C642 C643 1.363 . S
C642 C647 1.379 . S
C642 N649 1.356 . S
C643 C642 1.363 . S
C643 C646 1.363 . S
N644 C646 1.356 . S
N644 H656 0.984 . S
N644 H657 0.985 . S
N645 C647 1.356 . S
N645 H650 0.984 . S
N645 H651 0.985 . S
C646 C640 1.379 . S
C646 C643 1.363 . S
C646 N644 1.356 . S
C647 C641 1.363 . S
C647 C642 1.379 . S
C647 N645 1.356 . S
N648 C640 1.356 . S
N648 H654 0.984 . S
N648 H655 0.984 . S
N649 C642 1.356 . S
N649 H652 0.984 . S
N649 H653 0.985 . S
H650 N645 0.984 . S
H651 N645 0.985 . S
H652 N649 0.984 . S
H653 N649 0.985 . S
H654 N648 0.984 . S
H655 N648 0.984 . S
H656 N644 0.984 . S
H657 N644 0.985 . S
C658 C659 1.363 . S
C658 C664 1.379 . S
C658 N666 1.356 . S
C659 C658 1.363 . S
C659 C665 1.363 . S
C660 C661 1.363 . S
C660 C665 1.379 . S
C660 N667 1.356 . S
C661 C660 1.363 . S
C661 C664 1.363 . S
N662 C664 1.356 . S
N662 H674 0.984 . S
N662 H675 0.985 . S
N663 C665 1.356 . S
N663 H668 0.984 . S
N663 H669 0.985 . S
C664 C658 1.379 . S
C664 C661 1.363 . S
C664 N662 1.356 . S
C665 C659 1.363 . S
C665 C660 1.379 . S
C665 N663 1.356 . S
N666 C658 1.356 . S
N666 H672 0.984 . S
N666 H673 0.984 . S
N667 C660 1.356 . S
N667 H670 0.984 . S
N667 H671 0.985 . S
H668 N663 0.984 . S
H669 N663 0.985 . S
H670 N667 0.984 . S
H671 N667 0.985 . S
H672 N666 0.984 . S
H673 N666 0.984 . S
H674 N662 0.984 . S
H675 N662 0.985 . S
C676 C677 1.363 . S
C676 C682 1.379 . S
C676 N684 1.356 . S
C677 C676 1.363 . S
C677 C683 1.363 . S
C678 C679 1.363 . S
C678 C683 1.379 . S
C678 N685 1.356 . S
C679 C678 1.363 . S
C679 C682 1.363 . S
N680 C682 1.356 . S
N680 H692 0.984 . S
N680 H693 0.985 . S
N681 C683 1.356 . S
N681 H686 0.984 . S
N681 H687 0.985 . S
C682 C676 1.379 . S
C682 C679 1.363 . S
C682 N680 1.356 . S
C683 C677 1.363 . S
C683 C678 1.379 . S
C683 N681 1.356 . S
N684 C676 1.356 . S
N684 H690 0.984 . S
N684 H691 0.984 . S
N685 C678 1.356 . S
N685 H688 0.984 . S
N685 H689 0.985 . S
H686 N681 0.984 . S
H687 N681 0.985 . S
H688 N685 0.984 . S
H689 N685 0.985 . S
H690 N684 0.984 . S
H691 N684 0.984 . S
H692 N680 0.984 . S
H693 N680 0.985 . S
C694 C695 1.363 . S
C694 C700 1.379 . S
C694 N702 1.356 . S
C695 C694 1.363 . S
C695 C701 1.363 . S
C696 C697 1.363 . S
C696 C701 1.379 . S
C696 N703 1.356 . S
C697 C696 1.363 . S
C697 C700 1.363 . S
N698 C700 1.356 . S
N698 H710 0.984 . S
N698 H711 0.985 . S
N699 C701 1.356 . S
N699 H704 0.984 . S
N699 H705 0.985 . S
C700 C694 1.379 . S
C700 C697 1.363 . S
C700 N698 1.356 . S
C701 C695 1.363 . S
C701 C696 1.379 . S
C701 N699 1.356 . S
N702 C694 1.356 . S
N702 H708 0.984 . S
N702 H709 0.984 . S
N703 C696 1.356 . S
N703 H706 0.984 . S
N703 H707 0.985 . S
H704 N699 0.984 . S
H705 N699 0.985 . S
H706 N703 0.984 . S
H707 N703 0.985 . S
H708 N702 0.984 . S
H709 N702 0.984 . S
H710 N698 0.984 . S
H711 N698 0.985 . S
C712 C713 1.363 . S
C712 C718 1.379 . S
C712 N720 1.356 . S
C713 C712 1.363 . S
C713 C719 1.363 . S
C714 C715 1.363 . S
C714 C719 1.379 . S
C714 N721 1.356 . S
C715 C714 1.363 . S
C715 C718 1.363 . S
N716 C718 1.356 . S
N716 H728 0.984 . S
N716 H729 0.985 . S
N717 C719 1.356 . S
N717 H722 0.984 . S
N717 H723 0.985 . S
C718 C712 1.379 . S
C718 C715 1.363 . S
C718 N716 1.356 . S
C719 C713 1.363 . S
C719 C714 1.379 . S
C719 N717 1.356 . S
N720 C712 1.356 . S
N720 H726 0.984 . S
N720 H727 0.984 . S
N721 C714 1.356 . S
N721 H724 0.984 . S
N721 H725 0.985 . S
H722 N717 0.984 . S
H723 N717 0.985 . S
H724 N721 0.984 . S
H725 N721 0.985 . S
H726 N720 0.984 . S
H727 N720 0.984 . S
H728 N716 0.984 . S
H729 N716 0.985 . S
C730 C731 1.363 . S
C730 C736 1.379 . S
C730 N738 1.356 . S
C731 C730 1.363 . S
C731 C737 1.363 . S
C732 C733 1.363 . S
C732 C737 1.379 . S
C732 N739 1.356 . S
C733 C732 1.363 . S
C733 C736 1.363 . S
N734 C736 1.356 . S
N734 H746 0.984 . S
N734 H747 0.985 . S
N735 C737 1.356 . S
N735 H740 0.984 . S
N735 H741 0.985 . S
C736 C730 1.379 . S
C736 C733 1.363 . S
C736 N734 1.356 . S
C737 C731 1.363 . S
C737 C732 1.379 . S
C737 N735 1.356 . S
N738 C730 1.356 . S
N738 H744 0.984 . S
N738 H745 0.984 . S
N739 C732 1.356 . S
N739 H742 0.984 . S
N739 H743 0.985 . S
H740 N735 0.984 . S
H741 N735 0.985 . S
H742 N739 0.984 . S
H743 N739 0.985 . S
H744 N738 0.984 . S
H745 N738 0.984 . S
H746 N734 0.984 . S
H747 N734 0.985 . S
C748 C749 1.363 . S
C748 C754 1.379 . S
C748 N756 1.356 . S
C749 C748 1.363 . S
C749 C755 1.363 . S
C750 C751 1.363 . S
C750 C755 1.379 . S
C750 N757 1.356 . S
C751 C750 1.363 . S
C751 C754 1.363 . S
N752 C754 1.356 . S
N752 H764 0.984 . S
N752 H765 0.985 . S
N753 C755 1.356 . S
N753 H758 0.984 . S
N753 H759 0.985 . S
C754 C748 1.379 . S
C754 C751 1.363 . S
C754 N752 1.356 . S
C755 C749 1.363 . S
C755 C750 1.379 . S
C755 N753 1.356 . S
N756 C748 1.356 . S
N756 H762 0.984 . S
N756 H763 0.984 . S
N757 C750 1.356 . S
N757 H760 0.984 . S
N757 H761 0.985 . S
H758 N753 0.984 . S
H759 N753 0.985 . S
H760 N757 0.984 . S
H761 N757 0.985 . S
H762 N756 0.984 . S
H763 N756 0.984 . S
H764 N752 0.984 . S
H765 N752 0.985 . S
C766 C767 1.363 . S
C766 C772 1.379 . S
C766 N774 1.356 . S
C767 C766 1.363 . S
C767 C773 1.363 . S
C768 C769 1.363 . S
C768 C773 1.379 . S
C768 N775 1.356 . S
C769 C768 1.363 . S
C769 C772 1.363 . S
N770 C772 1.356 . S
N770 H782 0.984 . S
N770 H783 0.985 . S
N771 C773 1.356 . S
N771 H776 0.984 . S
N771 H777 0.985 . S
C772 C766 1.379 . S
C772 C769 1.363 . S
C772 N770 1.356 . S
C773 C767 1.363 . S
C773 C768 1.379 . S
C773 N771 1.356 . S
N774 C766 1.356 . S
N774 H780 0.984 . S
N774 H781 0.984 . S
N775 C768 1.356 . S
N775 H778 0.984 . S
N775 H779 0.985 . S
H776 N771 0.984 . S
H777 N771 0.985 . S
H778 N775 0.984 . S
H779 N775 0.985 . S
H780 N774 0.984 . S
H781 N774 0.984 . S
H782 N770 0.984 . S
H783 N770 0.985 . S
C784 C785 1.363 . S
C784 C790 1.379 . S
C784 N792 1.356 . S
C785 C784 1.363 . S
C785 C791 1.363 . S
C786 C787 1.363 . S
C786 C791 1.379 . S
C786 N793 1.356 . S
C787 C786 1.363 . S
C787 C790 1.363 . S
N788 C790 1.356 . S
N788 H800 0.984 . S
N788 H801 0.985 . S
N789 C791 1.356 . S
N789 H794 0.984 . S
N789 H795 0.985 . S
C790 C784 1.379 . S
C790 C787 1.363 . S
C790 N788 1.356 . S
C791 C785 1.363 . S
C791 C786 1.379 . S
C791 N789 1.356 . S
N792 C784 1.356 . S
N792 H798 0.984 . S
N792 H799 0.984 . S
N793 C786 1.356 . S
N793 H796 0.984 . S
N793 H797 0.985 . S
H794 N789 0.984 . S
H795 N789 0.985 . S
H796 N793 0.984 . S
H797 N793 0.985 . S
H798 N792 0.984 . S
H799 N792 0.984 . S
H800 N788 0.984 . S
H801 N788 0.985 . S
C802 C803 1.363 . S
C802 C808 1.379 . S
C802 N810 1.330 1_565 S
C803 C802 1.363 . S
C803 C809 1.363 . S
C804 C805 1.363 . S
C804 C809 1.379 . S
C804 N811 1.356 . S
C805 C804 1.363 . S
C805 C808 1.363 . S
N806 C808 1.356 . S
N806 H818 0.984 . S
N806 H819 0.985 . S
N807 C809 1.356 . S
N807 H812 0.984 . S
N807 H813 0.985 . S
C808 C802 1.379 . S
C808 C805 1.363 . S
C808 N806 1.356 . S
C809 C803 1.363 . S
C809 C804 1.379 . S
C809 N807 1.356 . S
N810 C802 1.330 1_545 S
N810 H816 1.004 . S
N810 H817 0.992 . S
N811 C804 1.356 . S
N811 H814 0.984 . S
N811 H815 0.985 . S
H812 N807 0.984 . S
H813 N807 0.985 . S
H814 N811 0.984 . S
H815 N811 0.985 . S
H816 N810 1.004 . S
H817 N810 0.992 . S
H818 N806 0.984 . S
H819 N806 0.985 . S
C820 C821 1.363 . S
C820 C826 1.379 . S
C820 N828 1.356 . S
C821 C820 1.363 . S
C821 C827 1.363 . S
C822 C823 1.363 . S
C822 C827 1.379 . S
C822 N829 1.356 . S
C823 C822 1.363 . S
C823 C826 1.363 . S
N824 C826 1.356 . S
N824 H836 0.984 . S
N824 H837 0.985 . S
N825 C827 1.356 . S
N825 H830 0.984 . S
N825 H831 0.985 . S
C826 C820 1.379 . S
C826 C823 1.363 . S
C826 N824 1.356 . S
C827 C821 1.363 . S
C827 C822 1.379 . S
C827 N825 1.356 . S
N828 C820 1.356 . S
N828 H834 0.984 . S
N828 H835 0.984 . S
N829 C822 1.356 . S
N829 H832 0.984 . S
N829 H833 0.985 . S
H830 N825 0.984 . S
H831 N825 0.985 . S
H832 N829 0.984 . S
H833 N829 0.985 . S
H834 N828 0.984 . S
H835 N828 0.984 . S
H836 N824 0.984 . S
H837 N824 0.985 . S
C838 C839 1.363 . S
C838 C844 1.379 . S
C838 N846 1.356 . S
C839 C838 1.363 . S
C839 C845 1.363 . S
C840 C841 1.363 . S
C840 C845 1.379 . S
C840 N847 1.356 . S
C841 C840 1.363 . S
C841 C844 1.363 . S
N842 C844 1.356 . S
N842 H854 0.984 . S
N842 H855 0.985 . S
N843 C845 1.356 . S
N843 H848 0.984 . S
N843 H849 0.985 . S
C844 C838 1.379 . S
C844 C841 1.363 . S
C844 N842 1.356 . S
C845 C839 1.363 . S
C845 C840 1.379 . S
C845 N843 1.356 . S
N846 C838 1.356 . S
N846 H852 0.984 . S
N846 H853 0.984 . S
N847 C840 1.356 . S
N847 H850 0.984 . S
N847 H851 0.985 . S
H848 N843 0.984 . S
H849 N843 0.985 . S
H850 N847 0.984 . S
H851 N847 0.985 . S
H852 N846 0.984 . S
H853 N846 0.984 . S
H854 N842 0.984 . S
H855 N842 0.985 . S
C856 C857 1.363 . S
C856 C862 1.379 . S
C856 N864 1.356 . S
C857 C856 1.363 . S
C857 C863 1.363 . S
C858 C859 1.363 . S
C858 C863 1.379 . S
C858 N865 1.356 . S
C859 C858 1.363 . S
C859 C862 1.363 . S
N860 C862 1.356 . S
N860 H872 0.984 . S
N860 H873 0.985 . S
N861 C863 1.356 . S
N861 H866 0.984 . S
N861 H867 0.985 . S
C862 C856 1.379 . S
C862 C859 1.363 . S
C862 N860 1.356 . S
C863 C857 1.363 . S
C863 C858 1.379 . S
C863 N861 1.356 . S
N864 C856 1.356 . S
N864 H870 0.984 . S
N864 H871 0.984 . S
N865 C858 1.356 . S
N865 H868 0.984 . S
N865 H869 0.985 . S
H866 N861 0.984 . S
H867 N861 0.985 . S
H868 N865 0.984 . S
H869 N865 0.985 . S
H870 N864 0.984 . S
H871 N864 0.984 . S
H872 N860 0.984 . S
H873 N860 0.985 . S
C874 C875 1.363 . S
C874 C880 1.379 . S
C874 N882 1.356 . S
C875 C874 1.363 . S
C875 C881 1.363 . S
C876 C877 1.363 . S
C876 C881 1.379 . S
C876 N883 1.356 . S
C877 C876 1.363 . S
C877 C880 1.363 . S
N878 C880 1.356 . S
N878 H890 0.984 . S
N878 H891 0.985 . S
N879 C881 1.356 . S
N879 H884 0.984 . S
N879 H885 0.985 . S
C880 C874 1.379 . S
C880 C877 1.363 . S
C880 N878 1.356 . S
C881 C875 1.363 . S
C881 C876 1.379 . S
C881 N879 1.356 . S
N882 C874 1.356 . S
N882 H888 0.984 . S
N882 H889 0.984 . S
N883 C876 1.356 . S
N883 H886 0.984 . S
N883 H887 0.985 . S
H884 N879 0.984 . S
H885 N879 0.985 . S
H886 N883 0.984 . S
H887 N883 0.985 . S
H888 N882 0.984 . S
H889 N882 0.984 . S
H890 N878 0.984 . S
H891 N878 0.985 . S
C892 C893 1.363 . S
C892 C898 1.379 . S
C892 N900 1.356 . S
C893 C892 1.363 . S
C893 C899 1.363 . S
C894 C895 1.363 . S
C894 C899 1.379 . S
C894 N901 1.356 . S
C895 C894 1.363 . S
C895 C898 1.363 . S
N896 C898 1.356 . S
N896 H908 0.984 . S
N896 H909 0.985 . S
N897 C899 1.356 . S
N897 H902 0.984 . S
N897 H903 0.985 . S
C898 C892 1.379 . S
C898 C895 1.363 . S
C898 N896 1.356 . S
C899 C893 1.363 . S
C899 C894 1.379 . S
C899 N897 1.356 . S
N900 C892 1.356 . S
N900 H906 0.984 . S
N900 H907 0.984 . S
N901 C894 1.356 . S
N901 H904 0.984 . S
N901 H905 0.985 . S
H902 N897 0.984 . S
H903 N897 0.985 . S
H904 N901 0.984 . S
H905 N901 0.985 . S
H906 N900 0.984 . S
H907 N900 0.984 . S
H908 N896 0.984 . S
H909 N896 0.985 . S
C910 C911 1.363 . S
C910 C916 1.379 . S
C910 N918 1.356 . S
C911 C910 1.363 . S
C911 C917 1.363 . S
C912 C913 1.363 . S
C912 C917 1.379 . S
C912 N919 1.356 . S
C913 C912 1.363 . S
C913 C916 1.363 . S
N914 C916 1.356 . S
N914 H926 0.984 . S
N914 H927 0.985 . S
N915 C917 1.356 . S
N915 H920 0.984 . S
N915 H921 0.985 . S
C916 C910 1.379 . S
C916 C913 1.363 . S
C916 N914 1.356 . S
C917 C911 1.363 . S
C917 C912 1.379 . S
C917 N915 1.356 . S
N918 C910 1.356 . S
N918 H924 0.984 . S
N918 H925 0.984 . S
N919 C912 1.356 . S
N919 H922 0.984 . S
N919 H923 0.985 . S
H920 N915 0.984 . S
H921 N915 0.985 . S
H922 N919 0.984 . S
H923 N919 0.985 . S
H924 N918 0.984 . S
H925 N918 0.984 . S
H926 N914 0.984 . S
H927 N914 0.985 . S
C928 C929 1.363 . S
C928 C934 1.379 . S
C928 N936 1.356 . S
C929 C928 1.363 . S
C929 C935 1.363 . S
C930 C931 1.363 . S
C930 C935 1.379 . S
C930 N937 1.356 . S
C931 C930 1.363 . S
C931 C934 1.363 . S
N932 C934 1.356 . S
N932 H944 0.984 . S
N932 H945 0.985 . S
N933 C935 1.356 . S
N933 H938 0.984 . S
N933 H939 0.985 . S
C934 C928 1.379 . S
C934 C931 1.363 . S
C934 N932 1.356 . S
C935 C929 1.363 . S
C935 C930 1.379 . S
C935 N933 1.356 . S
N936 C928 1.356 . S
N936 H942 0.984 . S
N936 H943 0.984 . S
N937 C930 1.356 . S
N937 H940 0.984 . S
N937 H941 0.985 . S
H938 N933 0.984 . S
H939 N933 0.985 . S
H940 N937 0.984 . S
H941 N937 0.985 . S
H942 N936 0.984 . S
H943 N936 0.984 . S
H944 N932 0.984 . S
H945 N932 0.985 . S
C946 C947 1.363 . S
C946 C952 1.379 . S
C946 N954 1.356 . S
C947 C946 1.363 . S
C947 C953 1.363 . S
C948 C949 1.363 . S
C948 C953 1.379 . S
C948 N955 1.356 . S
C949 C948 1.363 . S
C949 C952 1.363 . S
N950 C952 1.356 . S
N950 H962 0.984 . S
N950 H963 0.985 . S
N951 C953 1.356 . S
N951 H956 0.984 . S
N951 H957 0.985 . S
C952 C946 1.379 . S
C952 C949 1.363 . S
C952 N950 1.356 . S
C953 C947 1.363 . S
C953 C948 1.379 . S
C953 N951 1.356 . S
N954 C946 1.356 . S
N954 H960 0.984 . S
N954 H961 0.984 . S
N955 C948 1.356 . S
N955 H958 0.984 . S
N955 H959 0.985 . S
H956 N951 0.984 . S
H957 N951 0.985 . S
H958 N955 0.984 . S
H959 N955 0.985 . S
H960 N954 0.984 . S
H961 N954 0.984 . S
H962 N950 0.984 . S
H963 N950 0.985 . S
C964 C965 1.363 . S
C964 C970 1.379 . S
C964 N972 1.356 . S
C965 C964 1.363 . S
C965 C971 1.363 . S
C966 C967 1.363 . S
C966 C971 1.379 . S
C966 N973 1.356 . S
C967 C966 1.363 . S
C967 C970 1.363 . S
N968 C970 1.356 . S
N968 H980 0.984 . S
N968 H981 0.985 . S
N969 C971 1.356 . S
N969 H974 0.984 . S
N969 H975 0.985 . S
C970 C964 1.379 . S
C970 C967 1.363 . S
C970 N968 1.356 . S
C971 C965 1.363 . S
C971 C966 1.379 . S
C971 N969 1.356 . S
N972 C964 1.356 . S
N972 H978 0.984 . S
N972 H979 0.984 . S
N973 C966 1.356 . S
N973 H976 0.984 . S
N973 H977 0.985 . S
H974 N969 0.984 . S
H975 N969 0.985 . S
H976 N973 0.984 . S
H977 N973 0.985 . S
H978 N972 0.984 . S
H979 N972 0.984 . S
H980 N968 0.984 . S
H981 N968 0.985 . S
C982 C983 1.363 . S
C982 C988 1.379 . S
C982 N990 1.356 . S
C983 C982 1.363 . S
C983 C989 1.363 . S
C984 C985 1.363 . S
C984 C989 1.379 . S
C984 N991 1.356 . S
C985 C984 1.363 . S
C985 C988 1.363 . S
N986 C988 1.356 . S
N986 H998 0.984 . S
N986 H999 0.985 . S
N987 C989 1.356 . S
N987 H992 0.984 . S
N987 H993 0.985 . S
C988 C982 1.379 . S
C988 C985 1.363 . S
C988 N986 1.356 . S
C989 C983 1.363 . S
C989 C984 1.379 . S
C989 N987 1.356 . S
N990 C982 1.356 . S
N990 H996 0.984 . S
N990 H997 0.984 . S
N991 C984 1.356 . S
N991 H994 0.984 . S
N991 H995 0.985 . S
H992 N987 0.984 . S
H993 N987 0.985 . S
H994 N991 0.984 . S
H995 N991 0.985 . S
H996 N990 0.984 . S
H997 N990 0.984 . S
H998 N986 0.984 . S
H999 N986 0.985 . S
C569 C31 1.537 . S
C571 C506 1.534 . S
C589 C484 1.535 . S
C587 C61 1.538 . S
C607 C510 1.535 . S
C605 C151 1.506 . S
C625 C488 1.535 . S
C623 C181 1.591 . S
C643 C550 1.535 . S
C641 C271 1.537 . S
C661 C528 1.535 . S
C659 C301 1.537 . S
C677 C391 1.505 . S
C679 C554 1.535 . S
C697 C532 1.535 . S
C695 C421 1.592 . S
C713 C20 1.580 . S
C715 C555 1.626 . S
C733 C533 1.626 . S
C731 C91 1.580 . S
C749 C121 1.482 . S
C751 C552 1.626 . S
C767 C211 1.626 . S
C769 C530 1.626 . S
C787 C511 1.626 . S
C785 C260 1.581 . S
C803 C331 1.580 . S
C805 C489 1.625 . S
C823 C508 1.626 . S
C821 C361 1.481 . S
C841 C486 1.626 . S
C839 C451 1.627 . S
C859 C529 1.613 . S
C857 C1 1.476 . S
C877 C551 1.613 . S
C875 C80 1.476 . S
C893 C140 1.554 . S
C895 C531 1.613 . S
C913 C553 1.613 . S
C911 C200 1.539 . S
C931 C485 1.613 . S
C929 C241 1.477 . S
C947 C320 1.476 . S
C949 C507 1.611 . S
C965 C380 1.554 . S
C967 C487 1.611 . S
C983 C440 1.539 . S
C985 C509 1.615 . S
