# Generated by pormake.
# Topology nom, (4,4)-cn, num edge types: 1
# Building blocks:
#     Node 0, Type 0, BuildingBlock: KUFVIS_clean_linker_0, # of connection points: 4
#     Node 1, Type 0, BuildingBlock: KUFVIS_clean_linker_0, # of connection points: 4
#     Node 2, Type 0, BuildingBlock: KUFVIS_clean_linker_0, # of connection points: 4
#     Node 3, Type 0, BuildingBlock: KUFVIS_clean_linker_0, # of connection points: 4
#     Node 4, Type 0, BuildingBlock: KUFVIS_clean_linker_0, # of connection points: 4
#     Node 5, Type 0, BuildingBlock: KUFVIS_clean_linker_0, # of connection points: 4
#     Node 6, Type 1, BuildingBlock: GALJAG_clean_sbu_0, # of connection points: 4
#     Node 7, Type 1, BuildingBlock: GALJAG_clean_sbu_0, # of connection points: 4
#     Node 8, Type 1, BuildingBlock: GALJAG_clean_sbu_0, # of connection points: 4
#     Node 9, Type 1, BuildingBlock: GALJAG_clean_sbu_0, # of connection points: 4
#     Node 10, Type 1, BuildingBlock: GALJAG_clean_sbu_0, # of connection points: 4
#     Node 11, Type 1, BuildingBlock: GALJAG_clean_sbu_0, # of connection points: 4
#     Edge 12, Type (0, 1), BuildingBlock: EZIPEK_clean_linker_0, # of connection points: 2
#     Edge 13, Type (0, 1), BuildingBlock: EZIPEK_clean_linker_0, # of connection points: 2
#     Edge 14, Type (0, 1), BuildingBlock: EZIPEK_clean_linker_0, # of connection points: 2
#     Edge 15, Type (0, 1), BuildingBlock: EZIPEK_clean_linker_0, # of connection points: 2
#     Edge 16, Type (0, 1), BuildingBlock: EZIPEK_clean_linker_0, # of connection points: 2
#     Edge 17, Type (0, 1), BuildingBlock: EZIPEK_clean_linker_0, # of connection points: 2
#     Edge 18, Type (0, 1), BuildingBlock: EZIPEK_clean_linker_0, # of connection points: 2
#     Edge 19, Type (0, 1), BuildingBlock: EZIPEK_clean_linker_0, # of connection points: 2
#     Edge 20, Type (0, 1), BuildingBlock: EZIPEK_clean_linker_0, # of connection points: 2
#     Edge 21, Type (0, 1), BuildingBlock: EZIPEK_clean_linker_0, # of connection points: 2
#     Edge 22, Type (0, 1), BuildingBlock: EZIPEK_clean_linker_0, # of connection points: 2
#     Edge 23, Type (0, 1), BuildingBlock: EZIPEK_clean_linker_0, # of connection points: 2
#     Edge 24, Type (0, 1), BuildingBlock: EZIPEK_clean_linker_0, # of connection points: 2
#     Edge 25, Type (0, 1), BuildingBlock: EZIPEK_clean_linker_0, # of connection points: 2
#     Edge 26, Type (0, 1), BuildingBlock: EZIPEK_clean_linker_0, # of connection points: 2
#     Edge 27, Type (0, 1), BuildingBlock: EZIPEK_clean_linker_0, # of connection points: 2
#     Edge 28, Type (0, 1), BuildingBlock: EZIPEK_clean_linker_0, # of connection points: 2
#     Edge 29, Type (0, 1), BuildingBlock: EZIPEK_clean_linker_0, # of connection points: 2
#     Edge 30, Type (0, 1), BuildingBlock: EZIPEK_clean_linker_0, # of connection points: 2
#     Edge 31, Type (0, 1), BuildingBlock: EZIPEK_clean_linker_0, # of connection points: 2
#     Edge 32, Type (0, 1), BuildingBlock: EZIPEK_clean_linker_0, # of connection points: 2
#     Edge 33, Type (0, 1), BuildingBlock: EZIPEK_clean_linker_0, # of connection points: 2
#     Edge 34, Type (0, 1), BuildingBlock: EZIPEK_clean_linker_0, # of connection points: 2
#     Edge 35, Type (0, 1), BuildingBlock: EZIPEK_clean_linker_0, # of connection points: 2
# Relax obj value: 0.012
# Max RMSD: 0.070
# Mean RMSD: 0.063
data_MOF--net-nom--node1-GALJAG_clean_sbu_0--node2-KUFVIS_clean_linker_0--edge1-EZIPEK_clean_linker_0
_symmetry_space_group_name_H-M    P1
_symmetry_Int_Tables_number       1
_symmetry_cell_setting            triclinic
loop_
_symmetry_equiv_pos_as_xyz
'x, y, z'
_cell_length_a     33.293129
_cell_length_b     33.249623
_cell_length_c     35.623038
_cell_angle_alpha  89.871544
_cell_angle_beta   90.038104
_cell_angle_gamma 119.9831
loop_
_atom_site_label
_atom_site_type_symbol
_atom_site_fract_x
_atom_site_fract_y
_atom_site_fract_z
_atom_type_partial_charge
H0 H 0.19003 0.63478 0.3476 0.0
H1 H 0.08331 0.60047 0.26618 0.0
H2 H 0.04872 0.54261 0.37866 0.0
H3 H 0.98308 0.54427 0.36767 0.0
H4 H 0.8769 0.48098 0.28428 0.0
H5 H 1.0184 0.53514 0.25191 0.0
C6 C 0.1535 0.61631 0.34026 0.0
C7 C 0.12059 0.58943 0.3673 0.0
C8 C 0.14011 0.61923 0.30375 0.0
C9 C 0.09285 0.59612 0.2943 0.0
C10 C 0.05867 0.5683 0.32115 0.0
C11 C 0.07343 0.56463 0.35761 0.0
C12 C 1.00806 0.54333 0.31122 0.0
C13 C 0.97366 0.53355 0.33883 0.0
C14 C 0.92643 0.51059 0.32909 0.0
C15 C 0.91334 0.49815 0.29186 0.0
C16 C 0.94648 0.5076 0.26422 0.0
C17 C 0.99357 0.52942 0.27381 0.0
H18 H 0.59281 0.18143 0.52395 0.0
H19 H 0.5257 0.07764 0.43926 0.0
H20 H 0.54307 0.03887 0.55191 0.0
H21 H 0.47429 0.97426 0.53768 0.0
H22 H 0.43847 0.87099 0.45262 0.0
H23 H 0.53013 1.01374 0.42504 0.0
C24 C 0.57569 0.14524 0.51556 0.0
C25 C 0.56872 0.11127 0.54189 0.0
C26 C 0.5609 0.13324 0.47857 0.0
C27 C 0.53816 0.08632 0.46782 0.0
C28 C 0.53087 0.05119 0.49409 0.0
C29 C 0.54704 0.06449 0.53119 0.0
C30 C 0.50624 1.001 0.48304 0.0
C31 C 0.47856 0.96568 0.50922 0.0
C32 C 0.45479 0.9188 0.4983 0.0
C33 C 0.45786 0.90707 0.4613 0.0
C34 C 0.48437 0.94126 0.43501 0.0
C35 C 0.50921 0.98795 0.44587 0.0
H36 H 0.58058 0.41612 0.62085 0.0
H37 H 0.51643 0.45776 0.7042 0.0
H38 H 0.52399 0.50139 0.58811 0.0
H39 H 0.46096 0.50388 0.60219 0.0
H40 H 0.42375 0.57284 0.68457 0.0
H41 H 0.51315 0.52079 0.71628 0.0
C42 C 0.56295 0.43499 0.62838 0.0
C43 C 0.55253 0.45789 0.60061 0.0
C44 C 0.55076 0.43578 0.66565 0.0
C45 C 0.52706 0.45934 0.67531 0.0
C46 C 0.51653 0.48349 0.64765 0.0
C47 C 0.53021 0.48275 0.61016 0.0
C48 C 0.49119 0.50888 0.65767 0.0
C49 C 0.46457 0.51674 0.63056 0.0
C50 C 0.44125 0.5407 0.64015 0.0
C51 C 0.44276 0.55538 0.67698 0.0
C52 C 0.4678 0.54724 0.7043 0.0
C53 C 0.49281 0.52513 0.69465 0.0
H54 H 0.19167 0.57805 0.78245 0.0
H55 H 0.08791 0.51003 0.86706 0.0
H56 H 0.04953 0.52685 0.754 0.0
H57 H 0.98467 0.46187 0.7666 0.0
H58 H 0.87987 0.41912 0.85101 0.0
H59 H 1.02179 0.50663 0.88218 0.0
C60 C 0.15547 0.56065 0.79081 0.0
C61 C 0.12157 0.55291 0.76432 0.0
C62 C 0.14339 0.5462 0.82789 0.0
C63 C 0.09641 0.52255 0.8385 0.0
C64 C 0.06121 0.51445 0.81208 0.0
C65 C 0.07481 0.53099 0.77498 0.0
C66 C 1.01073 0.48835 0.82281 0.0
C67 C 0.97586 0.46345 0.79557 0.0
C68 C 0.9288 0.43918 0.80574 0.0
C69 C 0.91622 0.43846 0.84311 0.0
C70 C 0.94972 0.46206 0.87051 0.0
C71 C 0.99673 0.48754 0.86046 0.0
H72 H 0.47992 0.87131 0.02125 0.0
H73 H 0.54725 0.97597 0.93694 0.0
H74 H 0.52461 1.01306 0.04837 0.0
H75 H 0.59486 0.07829 0.03531 0.0
H76 H 0.63093 0.182 0.95009 0.0
H77 H 0.54038 0.03912 0.92244 0.0
C78 C 0.49668 0.90757 0.01296 0.0
C79 C 0.5015 0.94099 0.03902 0.0
C80 C 0.51204 0.91996 0.97611 0.0
C81 C 0.53424 0.96688 0.96536 0.0
C82 C 0.54 1.00155 0.99139 0.0
C83 C 0.52236 0.98777 0.02812 0.0
C84 C 0.56432 0.05175 0.98036 0.0
C85 C 0.59128 0.08699 0.00666 0.0
C86 C 0.61495 0.13394 -0.00427 0.0
C87 C 0.6122 0.14579 0.95864 0.0
C88 C 0.58587 0.11169 0.93233 0.0
C89 C 0.56142 0.06489 0.94316 0.0
H90 H 0.48548 0.63593 0.12152 0.0
H91 H 0.55193 0.59758 0.20554 0.0
H92 H 0.54495 0.55312 0.08988 0.0
H93 H 0.60688 0.5496 0.10378 0.0
H94 H 0.64682 0.4838 0.18719 0.0
H95 H 0.55821 0.53667 0.21879 0.0
C96 C 0.50383 0.61784 0.12934 0.0
C97 C 0.51513 0.59546 0.10184 0.0
C98 C 0.51625 0.61772 0.16666 0.0
C99 C 0.54113 0.59538 0.17664 0.0
C100 C 0.55232 0.57145 0.14932 0.0
C101 C 0.53831 0.57152 0.11176 0.0
C102 C 0.57851 0.54688 0.15972 0.0
C103 C 0.60434 0.53805 0.13252 0.0
C104 C 0.62816 0.51463 0.14239 0.0
C105 C 0.62781 0.50126 0.1795 0.0
C106 C 0.60336 0.51003 0.20689 0.0
C107 C 0.5781 0.53191 0.19706 0.0
In108 In 0.65571 0.4035 0.40365 0.0
O109 O 0.73137 0.45537 0.41866 0.0
O110 O 0.71871 0.40938 0.37312 0.0
C111 C 0.61783 0.42311 0.4625 0.0
C112 C 0.63534 0.44099 0.34466 0.0
C113 C 0.61999 0.31126 0.41516 0.0
O114 O 0.65943 0.4322 0.46233 0.0
O115 O 0.5952 0.40399 0.43313 0.0
O116 O 0.60464 0.32692 0.39015 0.0
O117 O 0.65363 0.34178 0.43373 0.0
C118 C 0.74821 0.44237 0.39289 0.0
O119 O 0.62844 0.40006 0.34425 0.0
O120 O 0.65246 0.46298 0.37467 0.0
In121 In 0.27665 0.64637 0.5657 0.0
O122 O 0.31824 0.61302 0.54368 0.0
O123 O 0.3163 0.62187 0.60254 0.0
C124 C 0.22045 0.61884 0.50517 0.0
C125 C 0.21752 0.6174 0.62435 0.0
C126 C 0.33325 0.73901 0.55708 0.0
O127 O 0.22907 0.59151 0.52346 0.0
O128 O 0.24002 0.65989 0.51741 0.0
O129 O 0.29664 0.72213 0.57644 0.0
O130 O 0.34182 0.70941 0.54281 0.0
C131 C 0.33079 0.6078 0.57584 0.0
O132 O 0.25792 0.65198 0.62641 0.0
O133 O 0.20651 0.59818 0.59266 0.0
In134 In 0.65761 0.27151 0.73666 0.0
O135 O 0.73269 0.29995 0.71719 0.0
O136 O 0.72086 0.32968 0.76581 0.0
C137 C 0.63329 0.21265 0.67816 0.0
C138 C 0.62324 0.21273 0.79543 0.0
C139 C 0.62177 0.32815 0.7293 0.0
O140 O 0.65963 0.21337 0.70389 0.0
O141 O 0.61978 0.2417 0.68165 0.0
O142 O 0.6108 0.29973 0.75614 0.0
O143 O 0.65158 0.329 0.70699 0.0
C144 C 0.74994 0.3288 0.74366 0.0
O145 O 0.59764 0.21336 0.76965 0.0
O146 O 0.66575 0.24182 0.79184 0.0
In147 In 0.41438 0.64933 0.90261 0.0
O148 O 0.33845 0.59602 0.91608 0.0
O149 O 0.35161 0.6451 0.8728 0.0
C150 C 0.45087 0.62917 0.96233 0.0
C151 C 0.43554 0.61341 0.84317 0.0
C152 C 0.45154 0.74172 0.91385 0.0
O153 O 0.40951 0.62085 0.96174 0.0
O154 O 0.47388 0.64767 0.93292 0.0
O155 O 0.46691 0.72559 0.88934 0.0
O156 O 0.41714 0.71157 0.93208 0.0
C157 C 0.32187 0.61065 0.89126 0.0
O158 O 0.44073 0.65367 0.84282 0.0
O159 O 0.41975 0.59124 0.8734 0.0
In160 In 0.78989 0.40568 0.0665 0.0
O161 O 0.81293 0.40123 0.12588 0.0
O162 O 0.85219 0.46468 0.09596 0.0
C163 C 0.73363 0.3133 0.05587 0.0
C164 C 0.73697 0.44543 0.07743 0.0
C165 C 0.84793 0.42567 0.00782 0.0
O166 O 0.765 0.32933 0.08048 0.0
O167 O 0.73008 0.34356 0.03711 0.0
O168 O 0.81442 0.4333 0.00731 0.0
O169 O 0.85204 0.40768 0.03771 0.0
C170 C 0.84693 0.44213 0.12581 0.0
O171 O 0.76699 0.4585 0.05177 0.0
O172 O 0.73286 0.41186 0.09689 0.0
In173 In 0.41142 0.78495 0.23706 0.0
O174 O 0.45597 0.76051 0.20711 0.0
O175 O 0.41931 0.72269 0.25542 0.0
C176 C 0.44752 0.84572 0.29466 0.0
C177 C 0.435 0.84148 0.17711 0.0
C178 C 0.31817 0.72991 0.24216 0.0
O179 O 0.44776 0.80797 0.29426 0.0
O180 O 0.43101 0.85353 0.26569 0.0
O181 O 0.33961 0.73516 0.21171 0.0
O182 O 0.34349 0.7524 0.26939 0.0
C183 C 0.44626 0.72703 0.22891 0.0
O184 O 0.39639 0.82607 0.19349 0.0
O185 O 0.46146 0.82836 0.19105 0.0
C186 C 0.20006 0.62438 0.25865 0.0
C187 C 0.17733 0.646 0.27589 0.0
C188 C 0.24228 0.72284 0.26002 0.0
C189 C 0.26705 0.70136 0.24629 0.0
N190 N 0.26617 0.63278 0.22319 0.0
N191 N 0.17007 0.71353 0.2852 0.0
C192 C 0.24458 0.6524 0.24212 0.0
C193 C 0.19623 0.69466 0.27367 0.0
N194 N 0.18005 0.57711 0.26027 0.0
N195 N 0.26358 0.77025 0.26082 0.0
H196 H 0.13628 0.69322 0.29521 0.0
H197 H 0.18005 0.74845 0.28257 0.0
H198 H 0.29581 0.79156 0.24836 0.0
H199 H 0.25009 0.78876 0.27406 0.0
H200 H 0.19672 0.55894 0.25269 0.0
H201 H 0.14658 0.55576 0.27057 0.0
H202 H 0.25031 0.59776 0.21631 0.0
H203 H 0.29921 0.65208 0.21169 0.0
C204 C 0.61631 0.19798 0.43684 0.0
C205 C 0.57092 0.17152 0.45181 0.0
C206 C 0.55424 0.23348 0.43586 0.0
C207 C 0.60048 0.26094 0.4226 0.0
N208 N 0.67106 0.26545 0.40084 0.0
N209 N 0.49317 0.15792 0.45731 0.0
C210 C 0.63009 0.24182 0.41998 0.0
C211 C 0.53861 0.18721 0.44825 0.0
N212 N 0.64677 0.18194 0.44035 0.0
N213 N 0.52631 0.25256 0.439 0.0
H214 H 0.48116 0.12417 0.467 0.0
H215 H 0.46678 0.16535 0.4522 0.0
H216 H 0.53595 0.28588 0.42962 0.0
H217 H 0.49452 0.23655 0.45284 0.0
H218 H 0.68205 0.20182 0.43455 0.0
H219 H 0.63689 0.14887 0.45068 0.0
H220 H 0.69256 0.25187 0.395 0.0
H221 H 0.68165 0.29732 0.38774 0.0
C222 C 0.36504 0.52196 0.6125 0.0
C223 C 0.41389 0.55074 0.61257 0.0
C224 C 0.40722 0.61021 0.57665 0.0
C225 C 0.3586 0.58499 0.58256 0.0
N226 N 0.28986 0.51581 0.60306 0.0
N227 N 0.48266 0.62068 0.59352 0.0
C228 C 0.33703 0.54014 0.59911 0.0
C229 C 0.43537 0.59403 0.59349 0.0
N230 N 0.34584 0.47747 0.62566 0.0
N231 N 0.4263 0.64993 0.55557 0.0
H232 H 0.50402 0.60878 0.60423 0.0
H233 H 0.50082 0.65493 0.58423 0.0
H234 H 0.40658 0.66313 0.54374 0.0
H235 H 0.46094 0.66806 0.54743 0.0
H236 H 0.31068 0.45311 0.62417 0.0
H237 H 0.36598 0.46368 0.63553 0.0
H238 H 0.27195 0.48543 0.61869 0.0
H239 H 0.26834 0.52696 0.59137 0.0
C240 C 0.87373 0.36595 0.77265 0.0
C241 C 0.89089 0.41397 0.77813 0.0
C242 C 0.82095 0.40701 0.7489 0.0
C243 C 0.80053 0.35802 0.7499 0.0
N244 N 0.80644 0.28984 0.76285 0.0
N245 N 0.88325 0.4817 0.77022 0.0
C246 C 0.82697 0.33715 0.76093 0.0
C247 C 0.8655 0.43509 0.76517 0.0
N248 N 0.90208 0.34801 0.77944 0.0
N249 N 0.79767 0.42641 0.73216 0.0
H250 H 0.91679 0.50338 0.78023 0.0
H251 H 0.86449 0.49863 0.76586 0.0
H252 H 0.76511 0.40648 0.71983 0.0
H253 H 0.81193 0.46189 0.72762 0.0
H254 H 0.89341 0.31411 0.77292 0.0
H255 H 0.93624 0.36849 0.78853 0.0
H256 H 0.82203 0.27254 0.77494 0.0
H257 H 0.77239 0.26745 0.75444 0.0
C258 C 0.45671 0.85582 0.9342 0.0
C259 C 0.50203 0.88189 0.94931 0.0
C260 C 0.51789 0.81927 0.93415 0.0
C261 C 0.47162 0.79215 0.92086 0.0
N262 N 0.40175 0.78862 0.89831 0.0
N263 N 0.57942 0.89471 0.95519 0.0
C264 C 0.44255 0.81184 0.91767 0.0
C265 C 0.53395 0.86571 0.94614 0.0
N266 N 0.4266 0.87233 0.93734 0.0
N267 N 0.5454 0.79975 0.9377 0.0
H268 H 0.59168 0.92862 0.96448 0.0
H269 H 0.6056 0.88689 0.95043 0.0
H270 H 0.53544 0.76631 0.92862 0.0
H271 H 0.57716 0.81558 0.95155 0.0
H272 H 0.39132 0.8527 0.93148 0.0
H273 H 0.43674 0.90551 0.94744 0.0
H274 H 0.38072 0.80265 0.89206 0.0
H275 H 0.3909 0.75665 0.88541 0.0
C276 C 0.6319 0.45627 0.10053 0.0
C277 C 0.65348 0.50228 0.11458 0.0
C278 C 0.72993 0.51453 0.09685 0.0
C279 C 0.70855 0.46756 0.08477 0.0
N280 N 0.63965 0.39804 0.06527 0.0
N281 N 0.72015 0.57878 0.11761 0.0
C282 C 0.65954 0.43982 0.0834 0.0
C283 C 0.70163 0.5327 0.10957 0.0
N284 N 0.58524 0.42776 0.10529 0.0
N285 N 0.77721 0.54075 0.09859 0.0
H286 H 0.70004 0.59258 0.1274 0.0
H287 H 0.75421 0.60389 0.11154 0.0
H288 H 0.79922 0.52924 0.08888 0.0
H289 H 0.79488 0.57305 0.11155 0.0
H290 H 0.568 0.3922 0.10019 0.0
H291 H 0.56381 0.43963 0.11589 0.0
H292 H 0.60421 0.37771 0.06037 0.0
H293 H 0.65917 0.38551 0.05204 0.0
C294 C 0.44259 0.85524 0.5429 0.0
C295 C 0.42449 0.88042 0.52424 0.0
C296 C 0.34533 0.81552 0.5325 0.0
C297 C 0.36346 0.78959 0.55023 0.0
N298 N 0.42722 0.78875 0.58152 0.0
N299 N 0.35961 0.89079 0.51048 0.0
C300 C 0.41153 0.81085 0.55844 0.0
C301 C 0.37603 0.86265 0.5225 0.0
N302 N 0.48948 0.87293 0.54415 0.0
N303 N 0.29959 0.79433 0.52252 0.0
H304 H 0.38161 0.92528 0.50262 0.0
H305 H 0.32479 0.88155 0.51175 0.0
H306 H 0.27583 0.75975 0.52856 0.0
H307 H 0.28569 0.80993 0.50562 0.0
H308 H 0.50496 0.85401 0.55301 0.0
H309 H 0.51303 0.90629 0.53463 0.0
H310 H 0.46117 0.80399 0.59128 0.0
H311 H 0.40512 0.75657 0.5938 0.0
C312 C 0.53374 0.36334 0.69979 0.0
C313 C 0.56403 0.41136 0.6937 0.0
C314 C 0.6277 0.4058 0.72314 0.0
C315 C 0.59973 0.35675 0.72277 0.0
N316 N 0.52614 0.28781 0.71069 0.0
N317 N 0.63881 0.47982 0.7009 0.0
C318 C 0.55236 0.33519 0.71196 0.0
C319 C 0.61057 0.4332 0.70648 0.0
N320 N 0.48739 0.34475 0.69313 0.0
N321 N 0.67048 0.4259 0.73965 0.0
H322 H 0.62644 0.50101 0.69059 0.0
H323 H 0.67451 0.49725 0.70512 0.0
H324 H 0.68358 0.40646 0.75225 0.0
H325 H 0.69133 0.46148 0.74372 0.0
H326 H 0.46256 0.31084 0.70009 0.0
H327 H 0.47323 0.36472 0.68368 0.0
H328 H 0.49323 0.26997 0.69879 0.0
H329 H 0.53827 0.26588 0.71948 0.0
C330 C 0.19869 0.52609 0.85856 0.0
C331 C 0.18165 0.55731 0.85485 0.0
C332 C 0.25087 0.61799 0.88656 0.0
C333 C 0.27139 0.58959 0.884 0.0
N334 N 0.2654 0.51621 0.86808 0.0
N335 N 0.18947 0.63222 0.86613 0.0
C336 C 0.2451 0.54309 0.87097 0.0
C337 C 0.20686 0.60286 0.86973 0.0
N338 N 0.17053 0.48038 0.84964 0.0
N339 N 0.27335 0.65909 0.90564 0.0
H340 H 0.15625 0.62131 0.85579 0.0
H341 H 0.20839 0.66761 0.87187 0.0
H342 H 0.30531 0.67061 0.91875 0.0
H343 H 0.25875 0.67971 0.91143 0.0
H344 H 0.17896 0.45467 0.85482 0.0
H345 H 0.13668 0.4674 0.83999 0.0
H346 H 0.25028 0.48436 0.85437 0.0
H347 H 0.29877 0.52676 0.87765 0.0
C348 C 0.69121 0.18852 0.02523 0.0
C349 C 0.64312 0.17244 0.02217 0.0
C350 C 0.65424 0.24348 0.05246 0.0
C351 C 0.70293 0.26284 0.04918 0.0
N352 N 0.7687 0.25453 0.03244 0.0
N353 N 0.57757 0.18262 0.0337 0.0
C354 C 0.72177 0.23523 0.03639 0.0
C355 C 0.62417 0.19908 0.03667 0.0
N356 N 0.7075 0.15916 0.01682 0.0
N357 N 0.63698 0.26742 0.07121 0.0
H358 H 0.55446 0.14918 0.02418 0.0
H359 H 0.56202 0.20246 0.03915 0.0
H360 H 0.65827 0.29973 0.08352 0.0
H361 H 0.60202 0.25376 0.07752 0.0
H362 H 0.74148 0.16698 0.02164 0.0
H363 H 0.68578 0.12505 0.00806 0.0
H364 H 0.78434 0.23821 0.01889 0.0
H365 H 0.79235 0.28828 0.04074 0.0
C366 C 0.45467 0.61978 0.20481 0.0
C367 C 0.50202 0.64161 0.19439 0.0
C368 C 0.51411 0.71519 0.21995 0.0
C369 C 0.46536 0.6956 0.22305 0.0
N370 N 0.3883 0.62906 0.21762 0.0
N371 N 0.57778 0.70978 0.19217 0.0
C372 C 0.43532 0.64752 0.21615 0.0
C373 C 0.53228 0.68909 0.20268 0.0
N374 N 0.42821 0.57252 0.20305 0.0
N375 N 0.54289 0.75858 0.23392 0.0
H376 H 0.59245 0.6912 0.18075 0.0
H377 H 0.60037 0.74549 0.19308 0.0
H378 H 0.53042 0.77805 0.24732 0.0
H379 H 0.57875 0.77332 0.23555 0.0
H380 H 0.39443 0.55386 0.21326 0.0
H381 H 0.44184 0.55171 0.19461 0.0
H382 H 0.3647 0.59573 0.20841 0.0
H383 H 0.37255 0.64798 0.22567 0.0
C384 C 0.86368 0.45186 0.37034 0.0
C385 C 0.88885 0.4982 0.35697 0.0
C386 C 0.82504 0.51117 0.37448 0.0
C387 C 0.79874 0.46392 0.38587 0.0
N388 N 0.79671 0.39332 0.4046 0.0
N389 N 0.89988 0.57528 0.35508 0.0
C390 C 0.81939 0.43556 0.38705 0.0
C391 C 0.87166 0.52905 0.36233 0.0
N392 N 0.88135 0.42295 0.36531 0.0
N393 N 0.80457 0.53798 0.37277 0.0
H394 H 0.93393 0.58889 0.3457 0.0
H395 H 0.89126 0.60057 0.36146 0.0
H396 H 0.77086 0.52661 0.38193 0.0
H397 H 0.81988 0.57065 0.36028 0.0
H398 H 0.86256 0.38726 0.36989 0.0
H399 H 0.91475 0.43469 0.35501 0.0
H400 H 0.81132 0.37244 0.40932 0.0
H401 H 0.7645 0.38086 0.41752 0.0
C402 C 0.16575 0.56759 0.41035 0.0
C403 C 0.13724 0.58766 0.40562 0.0
C404 C 0.15386 0.61619 0.47025 0.0
C405 C 0.18912 0.60409 0.47219 0.0
N406 N 0.23244 0.57263 0.44181 0.0
N407 N 0.10674 0.63474 0.43002 0.0
C408 C 0.19571 0.58026 0.4419 0.0
C409 C 0.13148 0.61253 0.43544 0.0
N410 N 0.16437 0.53672 0.3844 0.0
N411 N 0.14091 0.63003 0.50189 0.0
H412 H 0.08943 0.63268 0.40508 0.0
H413 H 0.1062 0.65794 0.44933 0.0
H414 H 0.15536 0.63147 0.5282 0.0
H415 H 0.11252 0.63516 0.5028 0.0
H416 H 0.18118 0.51767 0.38802 0.0
H417 H 0.14251 0.52674 0.36106 0.0
H418 H 0.24159 0.56 0.41856 0.0
H419 H 0.25659 0.58295 0.46348 0.0
C420 C 0.63219 0.1494 0.58895 0.0
C421 C 0.58409 0.12625 0.58094 0.0
C422 C 0.56881 0.1488 0.64225 0.0
C423 C 0.61715 0.17885 0.64705 0.0
N424 N 0.69561 0.2096 0.62474 0.0
N425 N 0.50592 0.10422 0.59891 0.0
C426 C 0.64923 0.17904 0.62073 0.0
C427 C 0.55205 0.12536 0.60757 0.0
N428 N 0.66138 0.14323 0.56581 0.0
N429 N 0.53909 0.14216 0.67116 0.0
H430 H 0.49214 0.08543 0.57426 0.0
H431 H 0.48169 0.10751 0.6151 0.0
H432 H 0.55045 0.15825 0.6972 0.0
H433 H 0.50395 0.11742 0.67068 0.0
H434 H 0.69627 0.15574 0.57173 0.0
H435 H 0.64953 0.12174 0.54227 0.0
H436 H 0.72013 0.21515 0.60424 0.0
H437 H 0.70951 0.232 0.64754 0.0
C438 C 0.49865 0.60356 0.75799 0.0
C439 C 0.46468 0.56001 0.74356 0.0
C440 C 0.41208 0.55048 0.79505 0.0
C441 C 0.44651 0.59349 0.81027 0.0
N442 N 0.52638 0.65512 0.81166 0.0
N443 N 0.39462 0.48681 0.75274 0.0
C444 C 0.49105 0.61832 0.79337 0.0
C445 C 0.42332 0.53165 0.76377 0.0
N446 N 0.53727 0.63153 0.73723 0.0
N447 N 0.36773 0.52921 0.80862 0.0
H448 H 0.40188 0.47216 0.7297 0.0
H449 H 0.36622 0.46299 0.76845 0.0
H450 H 0.3573 0.54276 0.8304 0.0
H451 H 0.34014 0.5005 0.79593 0.0
H452 H 0.56049 0.66596 0.74409 0.0
H453 H 0.54464 0.62108 0.7118 0.0
H454 H 0.56063 0.67184 0.8024 0.0
H455 H 0.52236 0.66616 0.83807 0.0
C456 C 0.91837 0.41464 0.92849 0.0
C457 C 0.93395 0.45767 0.90997 0.0
C458 C 0.90272 0.48322 0.96092 0.0
C459 C 0.88019 0.4374 0.97575 0.0
N460 N 0.86224 0.35758 0.97111 0.0
N461 N 0.9393 0.53259 0.90685 0.0
C462 C 0.88738 0.40266 0.95926 0.0
C463 C 0.92615 0.49217 0.92591 0.0
N464 N 0.93295 0.38511 0.91625 0.0
N465 N 0.90276 0.51838 0.98079 0.0
H466 H 0.95782 0.54088 0.88171 0.0
H467 H 0.92946 0.55657 0.91477 0.0
H468 H 0.88696 0.5133 0.00701 0.0
H469 H 0.92226 0.5532 0.97311 0.0
H470 H 0.92631 0.35511 0.93065 0.0
H471 H 0.95563 0.3931 0.89362 0.0
H472 H 0.8624 0.33004 0.95737 0.0
H473 H 0.83777 0.34679 0.99258 0.0
C474 C 0.43484 0.89345 0.08153 0.0
C475 C 0.48293 0.92506 0.07742 0.0
C476 C 0.49484 0.91196 0.14302 0.0
C477 C 0.44916 0.87317 0.14426 0.0
N478 N 0.37667 0.82366 0.11213 0.0
N479 N 0.56015 0.96217 0.10366 0.0
C480 C 0.41896 0.86337 0.11311 0.0
C481 C 0.51337 0.93429 0.10815 0.0
N482 N 0.40458 0.89178 0.05483 0.0
N483 N 0.52015 0.92809 0.17528 0.0
H484 H 0.57532 0.97931 0.07863 0.0
H485 H 0.58412 0.96548 0.12401 0.0
H486 H 0.50686 0.91389 0.20162 0.0
H487 H 0.5521 0.95866 0.17639 0.0
H488 H 0.36869 0.87229 0.05791 0.0
H489 H 0.41547 0.91372 0.03145 0.0
H490 H 0.35578 0.81278 0.08828 0.0
H491 H 0.36414 0.79904 0.13356 0.0
C492 C 0.64879 0.52413 0.26567 0.0
C493 C 0.60659 0.4971 0.24616 0.0
C494 C 0.57957 0.43862 0.29611 0.0
C495 C 0.62467 0.46183 0.3121 0.0
N496 N 0.70446 0.52391 0.30913 0.0
N497 N 0.53236 0.4272 0.24093 0.0
C498 C 0.65981 0.50426 0.29646 0.0
C499 C 0.57184 0.4541 0.26103 0.0
N500 N 0.67849 0.5687 0.2544 0.0
N501 N 0.54389 0.40265 0.31494 0.0
H502 H 0.52494 0.43813 0.2157 0.0
H503 H 0.50837 0.39305 0.24807 0.0
H504 H 0.54804 0.39112 0.34114 0.0
H505 H 0.50942 0.38727 0.3064 0.0
H506 H 0.70779 0.59169 0.2696 0.0
H507 H 0.67127 0.58407 0.23177 0.0
H508 H 0.73233 0.55206 0.29605 0.0
H509 H 0.71467 0.50948 0.33047 0.0
C510 C 0.51316 0.91409 0.38103 0.0
C511 C 0.48153 0.92701 0.39533 0.0
C512 C 0.42832 0.88769 0.34343 0.0
C513 C 0.46057 0.87595 0.32813 0.0
N514 N 0.53782 0.88678 0.3275 0.0
N515 N 0.41564 0.93726 0.38563 0.0
C516 C 0.50437 0.89188 0.34545 0.0
C517 C 0.4415 0.9178 0.37475 0.0
N518 N 0.55061 0.92158 0.40206 0.0
N519 N 0.38385 0.86725 0.33014 0.0
H520 H 0.42419 0.95912 0.40885 0.0
H521 H 0.38863 0.93549 0.36959 0.0
H522 H 0.37129 0.84267 0.30874 0.0
H523 H 0.35775 0.87086 0.34304 0.0
H524 H 0.57188 0.90798 0.39533 0.0
H525 H 0.55892 0.93948 0.42749 0.0
H526 H 0.57181 0.90145 0.33711 0.0
H527 H 0.53276 0.87145 0.30111 0.0
C528 C 0.60533 0.48857 0.54461 0.0
C529 C 0.56395 0.4533 0.56124 0.0
C530 C 0.55644 0.39858 0.51221 0.0
C531 C 0.59726 0.43413 0.49491 0.0
N532 N 0.6534 0.51568 0.48884 0.0
N533 N 0.4938 0.37938 0.55614 0.0
C534 C 0.61955 0.48006 0.50933 0.0
C535 C 0.53729 0.40989 0.54323 0.0
N536 N 0.63203 0.52934 0.56323 0.0
N537 N 0.5378 0.35348 0.50087 0.0
H538 H 0.47895 0.38683 0.57895 0.0
H539 H 0.47091 0.34897 0.5421 0.0
H540 H 0.55179 0.34319 0.47931 0.0
H541 H 0.5111 0.32557 0.51516 0.0
H542 H 0.66532 0.55403 0.5547 0.0
H543 H 0.62202 0.53726 0.58863 0.0
H544 H 0.66782 0.55047 0.49628 0.0
H545 H 0.66385 0.5109 0.46243 0.0
C546 C 0.1423 0.53533 0.70177 0.0
C547 C 0.13637 0.56654 0.72491 0.0
C548 C 0.17447 0.62784 0.67763 0.0
C549 C 0.18669 0.59878 0.65742 0.0
N550 N 0.18719 0.52648 0.6525 0.0
N551 N 0.14762 0.6428 0.73648 0.0
C552 C 0.17133 0.55265 0.6697 0.0
C553 C 0.1523 0.61284 0.71313 0.0
N554 N 0.12055 0.48919 0.71081 0.0
N555 N 0.18309 0.6692 0.66243 0.0
H556 H 0.12963 0.63226 0.76188 0.0
H557 H 0.1635 0.67841 0.7317 0.0
H558 H 0.19871 0.68085 0.63624 0.0
H559 H 0.17116 0.68999 0.67409 0.0
H560 H 0.11965 0.4639 0.69307 0.0
H561 H 0.09965 0.47556 0.73454 0.0
H562 H 0.1815 0.49479 0.66296 0.0
H563 H 0.20968 0.53808 0.62962 0.0
C564 C 0.56063 0.14948 0.8847 0.0
C565 C 0.58574 0.12656 0.89314 0.0
C566 C 0.62411 0.1492 0.83197 0.0
C567 C 0.6056 0.17906 0.82676 0.0
N568 N 0.5574 0.20956 0.84844 0.0
N569 N 0.64252 0.10506 0.8759 0.0
C570 C 0.57339 0.17912 0.8528 0.0
C571 C 0.61729 0.12586 0.86681 0.0
N572 N 0.52493 0.14309 0.90753 0.0
N573 N 0.64752 0.14261 0.80332 0.0
H574 H 0.6375 0.08639 0.9007 0.0
H575 H 0.67027 0.10853 0.85993 0.0
H576 H 0.65235 0.1586 0.77716 0.0
H577 H 0.65809 0.11797 0.80412 0.0
H578 H 0.50245 0.15542 0.90128 0.0
H579 H 0.51515 0.12157 0.93114 0.0
H580 H 0.53815 0.21499 0.86875 0.0
H581 H 0.56607 0.23203 0.82559 0.0
C582 C 0.53054 0.6431 0.04401 0.0
C583 C 0.50383 0.5998 0.06231 0.0
C584 C 0.44845 0.57264 0.01025 0.0
C585 C 0.47093 0.61842 -0.00467 0.0
N586 N 0.53031 0.69911 0.00077 0.0
N587 N 0.43585 0.52374 0.06466 0.0
C588 C 0.5116 0.65411 0.01259 0.0
C589 C 0.46254 0.56441 0.04576 0.0
N590 N 0.57391 0.67379 0.05699 0.0
N591 N 0.41454 0.53689 0.99001 0.0
H592 H 0.44586 0.51601 0.09019 0.0
H593 H 0.4026 0.49893 0.0562 0.0
H594 H 0.4041 0.54149 0.9635 0.0
H595 H 0.39998 0.50216 -0.00221 0.0
H596 H 0.59687 0.7041 0.04277 0.0
H597 H 0.5886 0.66662 0.08011 0.0
H598 H 0.5569 0.72716 0.01493 0.0
H599 H 0.51644 0.70917 0.97889 0.0
C600 C 0.91556 0.5232 0.20581 0.0
C601 C 0.93042 0.49556 0.22493 0.0
C602 C 0.89968 0.43844 0.17421 0.0
C603 C 0.87809 0.46219 0.15853 0.0
N604 N 0.86048 0.52436 0.16222 0.0
N605 N 0.93462 0.42543 0.22923 0.0
C606 C 0.88519 0.50424 0.17471 0.0
C607 C 0.92235 0.45293 0.20949 0.0
N608 N 0.93026 0.56747 0.21771 0.0
N609 N 0.89962 0.40293 0.15489 0.0
H610 H 0.95259 0.43563 0.25462 0.0
H611 H 0.92454 0.39145 0.22163 0.0
H612 H 0.88435 0.39214 0.12852 0.0
H613 H 0.91852 0.38723 0.16324 0.0
H614 H 0.92422 0.59092 0.20282 0.0
H615 H 0.95246 0.58218 0.24059 0.0
H616 H 0.86061 0.55222 0.17564 0.0
H617 H 0.83625 0.51058 0.14061 0.0
loop_
_geom_bond_atom_site_label_1
_geom_bond_atom_site_label_2
_geom_bond_distance
_geom_bond_site_symmetry_2
_ccdc_geom_bond_type
H0 C6 0.930 . S
H1 C9 0.931 . S
H2 C11 0.931 . S
H3 C13 0.930 . S
H4 C15 0.930 . S
H5 C17 0.924 1_455 S
C6 H0 0.930 . S
C6 C7 1.380 . S
C6 C8 1.394 . S
C7 C6 1.380 . S
C7 C11 1.382 . S
C8 C6 1.394 . S
C8 C9 1.400 . S
C9 H1 0.931 . S
C9 C8 1.400 . S
C9 C10 1.375 . S
C10 C9 1.375 . S
C10 C11 1.415 . S
C10 C12 1.501 1_455 S
C11 H2 0.931 . S
C11 C7 1.382 . S
C11 C10 1.415 . S
C12 C10 1.501 1_655 S
C12 C13 1.384 . S
C12 C17 1.408 . S
C13 H3 0.930 . S
C13 C12 1.384 . S
C13 C14 1.389 . S
C14 C13 1.389 . S
C14 C15 1.405 . S
C15 H4 0.930 . S
C15 C14 1.405 . S
C15 C16 1.364 . S
C16 C15 1.364 . S
C16 C17 1.400 . S
C17 H5 0.924 1_655 S
C17 C12 1.408 . S
C17 C16 1.400 . S
H18 C24 0.930 . S
H19 C27 0.931 . S
H20 C29 0.931 . S
H21 C31 0.930 . S
H22 C33 0.930 . S
H23 C35 0.923 1_545 S
C24 H18 0.930 . S
C24 C25 1.380 . S
C24 C26 1.394 . S
C25 C24 1.380 . S
C25 C29 1.382 . S
C26 C24 1.394 . S
C26 C27 1.400 . S
C27 H19 0.931 . S
C27 C26 1.400 . S
C27 C28 1.375 . S
C28 C27 1.375 . S
C28 C29 1.415 . S
C28 C30 1.501 1_545 S
C29 H20 0.931 . S
C29 C25 1.382 . S
C29 C28 1.415 . S
C30 C28 1.501 1_565 S
C30 C31 1.384 . S
C30 C35 1.408 . S
C31 H21 0.930 . S
C31 C30 1.384 . S
C31 C32 1.389 . S
C32 C31 1.389 . S
C32 C33 1.405 . S
C33 H22 0.930 . S
C33 C32 1.405 . S
C33 C34 1.364 . S
C34 C33 1.364 . S
C34 C35 1.400 . S
C35 H23 0.923 1_565 S
C35 C30 1.408 . S
C35 C34 1.400 . S
H36 C42 0.930 . S
H37 C45 0.931 . S
H38 C47 0.931 . S
H39 C49 0.930 . S
H40 C51 0.930 . S
H41 C53 0.931 . S
C42 H36 0.930 . S
C42 C43 1.380 . S
C42 C44 1.394 . S
C43 C42 1.380 . S
C43 C47 1.382 . S
C44 C42 1.394 . S
C44 C45 1.400 . S
C45 H37 0.931 . S
C45 C44 1.400 . S
C45 C46 1.375 . S
C46 C45 1.375 . S
C46 C47 1.415 . S
C46 C48 1.501 . S
C47 H38 0.931 . S
C47 C43 1.382 . S
C47 C46 1.415 . S
C48 C46 1.501 . S
C48 C49 1.384 . S
C48 C53 1.408 . S
C49 H39 0.930 . S
C49 C48 1.384 . S
C49 C50 1.389 . S
C50 C49 1.389 . S
C50 C51 1.405 . S
C51 H40 0.930 . S
C51 C50 1.405 . S
C51 C52 1.364 . S
C52 C51 1.364 . S
C52 C53 1.400 . S
C53 H41 0.931 . S
C53 C48 1.408 . S
C53 C52 1.400 . S
H54 C60 0.930 . S
H55 C63 0.931 . S
H56 C65 0.931 . S
H57 C67 0.930 . S
H58 C69 0.930 . S
H59 C71 0.935 . S
C60 H54 0.930 . S
C60 C61 1.380 . S
C60 C62 1.394 . S
C61 C60 1.380 . S
C61 C65 1.382 . S
C62 C60 1.394 . S
C62 C63 1.400 . S
C63 H55 0.931 . S
C63 C62 1.400 . S
C63 C64 1.375 . S
C64 C63 1.375 . S
C64 C65 1.415 . S
C64 C66 1.501 1_455 S
C65 H56 0.931 . S
C65 C61 1.382 . S
C65 C64 1.415 . S
C66 C64 1.501 1_655 S
C66 C67 1.384 . S
C66 C71 1.408 . S
C67 H57 0.930 . S
C67 C66 1.384 . S
C67 C68 1.389 . S
C68 C67 1.389 . S
C68 C69 1.405 . S
C69 H58 0.930 . S
C69 C68 1.405 . S
C69 C70 1.364 . S
C70 C69 1.364 . S
C70 C71 1.400 . S
C71 H59 0.935 . S
C71 C66 1.408 . S
C71 C70 1.400 . S
H72 C78 0.930 . S
H73 C81 0.931 . S
H74 C83 0.924 1_545 S
H75 C85 0.930 . S
H76 C87 0.930 . S
H77 C89 0.931 . S
C78 H72 0.930 . S
C78 C79 1.380 . S
C78 C80 1.394 1_554 S
C79 C78 1.380 . S
C79 C83 1.382 . S
C80 C78 1.394 1_556 S
C80 C81 1.400 . S
C81 H73 0.931 . S
C81 C80 1.400 . S
C81 C82 1.375 . S
C82 C81 1.375 . S
C82 C83 1.415 1_556 S
C82 C84 1.501 1_565 S
C83 H74 0.924 1_565 S
C83 C79 1.382 . S
C83 C82 1.415 1_554 S
C84 C82 1.501 1_545 S
C84 C85 1.384 1_556 S
C84 C89 1.408 . S
C85 H75 0.930 . S
C85 C84 1.384 1_554 S
C85 C86 1.389 1_554 S
C86 C85 1.389 1_556 S
C86 C87 1.405 . S
C87 H76 0.930 . S
C87 C86 1.405 . S
C87 C88 1.364 . S
C88 C87 1.364 . S
C88 C89 1.400 . S
C89 H77 0.931 . S
C89 C84 1.408 . S
C89 C88 1.400 . S
H90 C96 0.930 . S
H91 C99 0.931 . S
H92 C101 0.931 . S
H93 C103 0.930 . S
H94 C105 0.930 . S
H95 C107 0.931 . S
C96 H90 0.930 . S
C96 C97 1.380 . S
C96 C98 1.394 . S
C97 C96 1.380 . S
C97 C101 1.382 . S
C98 C96 1.394 . S
C98 C99 1.400 . S
C99 H91 0.931 . S
C99 C98 1.400 . S
C99 C100 1.375 . S
C100 C99 1.375 . S
C100 C101 1.415 . S
C100 C102 1.501 . S
C101 H92 0.931 . S
C101 C97 1.382 . S
C101 C100 1.415 . S
C102 C100 1.501 . S
C102 C103 1.384 . S
C102 C107 1.408 . S
C103 H93 0.930 . S
C103 C102 1.384 . S
C103 C104 1.389 . S
C104 C103 1.389 . S
C104 C105 1.405 . S
C105 H94 0.930 . S
C105 C104 1.405 . S
C105 C106 1.364 . S
C106 C105 1.364 . S
C106 C107 1.400 . S
C107 H95 0.931 . S
C107 C102 1.408 . S
C107 C106 1.400 . S
In108 O109 2.294 . S
In108 O110 2.326 . S
In108 O114 2.266 . S
In108 O115 2.326 . S
In108 O116 2.266 . S
In108 O117 2.326 . S
In108 O119 2.294 . S
In108 O120 2.326 . S
O109 In108 2.294 . S
O109 C118 1.240 . S
O110 In108 2.326 . S
O110 C118 1.252 . S
C111 O114 1.252 . S
C111 O115 1.260 . S
C112 O119 1.240 . S
C112 O120 1.252 . S
C113 O116 1.252 . S
C113 O117 1.260 . S
O114 In108 2.266 . S
O114 C111 1.252 . S
O115 In108 2.326 . S
O115 C111 1.260 . S
O116 In108 2.266 . S
O116 C113 1.252 . S
O117 In108 2.326 . S
O117 C113 1.260 . S
C118 O109 1.240 . S
C118 O110 1.252 . S
O119 In108 2.294 . S
O119 C112 1.240 . S
O120 In108 2.326 . S
O120 C112 1.252 . S
In121 O122 2.294 . S
In121 O123 2.326 . S
In121 O127 2.266 . S
In121 O128 2.326 . S
In121 O129 2.266 . S
In121 O130 2.326 . S
In121 O132 2.294 . S
In121 O133 2.326 . S
O122 In121 2.294 . S
O122 C131 1.240 . S
O123 In121 2.326 . S
O123 C131 1.252 . S
C124 O127 1.252 . S
C124 O128 1.260 . S
C125 O132 1.240 . S
C125 O133 1.252 . S
C126 O129 1.252 . S
C126 O130 1.260 . S
O127 In121 2.266 . S
O127 C124 1.252 . S
O128 In121 2.326 . S
O128 C124 1.260 . S
O129 In121 2.266 . S
O129 C126 1.252 . S
O130 In121 2.326 . S
O130 C126 1.260 . S
C131 O122 1.240 . S
C131 O123 1.252 . S
O132 In121 2.294 . S
O132 C125 1.240 . S
O133 In121 2.326 . S
O133 C125 1.252 . S
In134 O135 2.294 . S
In134 O136 2.326 . S
In134 O140 2.266 . S
In134 O141 2.326 . S
In134 O142 2.266 . S
In134 O143 2.326 . S
In134 O145 2.294 . S
In134 O146 2.326 . S
O135 In134 2.294 . S
O135 C144 1.240 . S
O136 In134 2.326 . S
O136 C144 1.252 . S
C137 O140 1.252 . S
C137 O141 1.260 . S
C138 O145 1.240 . S
C138 O146 1.252 . S
C139 O142 1.252 . S
C139 O143 1.260 . S
O140 In134 2.266 . S
O140 C137 1.252 . S
O141 In134 2.326 . S
O141 C137 1.260 . S
O142 In134 2.266 . S
O142 C139 1.252 . S
O143 In134 2.326 . S
O143 C139 1.260 . S
C144 O135 1.240 . S
C144 O136 1.252 . S
O145 In134 2.294 . S
O145 C138 1.240 . S
O146 In134 2.326 . S
O146 C138 1.252 . S
In147 O148 2.294 . S
In147 O149 2.326 . S
In147 O153 2.266 . S
In147 O154 2.326 . S
In147 O155 2.266 . S
In147 O156 2.326 . S
In147 O158 2.294 . S
In147 O159 2.326 . S
O148 In147 2.294 . S
O148 C157 1.240 . S
O149 In147 2.326 . S
O149 C157 1.252 . S
C150 O153 1.252 . S
C150 O154 1.260 . S
C151 O158 1.240 . S
C151 O159 1.252 . S
C152 O155 1.252 . S
C152 O156 1.260 . S
O153 In147 2.266 . S
O153 C150 1.252 . S
O154 In147 2.326 . S
O154 C150 1.260 . S
O155 In147 2.266 . S
O155 C152 1.252 . S
O156 In147 2.326 . S
O156 C152 1.260 . S
C157 O148 1.240 . S
C157 O149 1.252 . S
O158 In147 2.294 . S
O158 C151 1.240 . S
O159 In147 2.326 . S
O159 C151 1.252 . S
In160 O161 2.294 . S
In160 O162 2.326 . S
In160 O166 2.266 . S
In160 O167 2.326 . S
In160 O168 2.266 . S
In160 O169 2.326 . S
In160 O171 2.294 . S
In160 O172 2.326 . S
O161 In160 2.294 . S
O161 C170 1.240 . S
O162 In160 2.326 . S
O162 C170 1.252 . S
C163 O166 1.252 . S
C163 O167 1.260 . S
C164 O171 1.240 . S
C164 O172 1.252 . S
C165 O168 1.252 . S
C165 O169 1.260 . S
O166 In160 2.266 . S
O166 C163 1.252 . S
O167 In160 2.326 . S
O167 C163 1.260 . S
O168 In160 2.266 . S
O168 C165 1.252 . S
O169 In160 2.326 . S
O169 C165 1.260 . S
C170 O161 1.240 . S
C170 O162 1.252 . S
O171 In160 2.294 . S
O171 C164 1.240 . S
O172 In160 2.326 . S
O172 C164 1.252 . S
In173 O174 2.294 . S
In173 O175 2.326 . S
In173 O179 2.266 . S
In173 O180 2.326 . S
In173 O181 2.266 . S
In173 O182 2.326 . S
In173 O184 2.294 . S
In173 O185 2.326 . S
O174 In173 2.294 . S
O174 C183 1.240 . S
O175 In173 2.326 . S
O175 C183 1.252 . S
C176 O179 1.252 . S
C176 O180 1.260 . S
C177 O184 1.240 . S
C177 O185 1.252 . S
C178 O181 1.252 . S
C178 O182 1.260 . S
O179 In173 2.266 . S
O179 C176 1.252 . S
O180 In173 2.326 . S
O180 C176 1.260 . S
O181 In173 2.266 . S
O181 C178 1.252 . S
O182 In173 2.326 . S
O182 C178 1.260 . S
C183 O174 1.240 . S
C183 O175 1.252 . S
O184 In173 2.294 . S
O184 C177 1.240 . S
O185 In173 2.326 . S
O185 C177 1.252 . S
C186 C187 1.363 . S
C186 C192 1.379 . S
C186 N194 1.356 . S
C187 C186 1.363 . S
C187 C193 1.363 . S
C188 C189 1.363 . S
C188 C193 1.379 . S
C188 N195 1.356 . S
C189 C188 1.363 . S
C189 C192 1.363 . S
N190 C192 1.356 . S
N190 H202 0.984 . S
N190 H203 0.985 . S
N191 C193 1.356 . S
N191 H196 0.984 . S
N191 H197 0.985 . S
C192 C186 1.379 . S
C192 C189 1.363 . S
C192 N190 1.356 . S
C193 C187 1.363 . S
C193 C188 1.379 . S
C193 N191 1.356 . S
N194 C186 1.356 . S
N194 H200 0.984 . S
N194 H201 0.984 . S
N195 C188 1.356 . S
N195 H198 0.984 . S
N195 H199 0.985 . S
H196 N191 0.984 . S
H197 N191 0.985 . S
H198 N195 0.984 . S
H199 N195 0.985 . S
H200 N194 0.984 . S
H201 N194 0.984 . S
H202 N190 0.984 . S
H203 N190 0.985 . S
C204 C205 1.363 . S
C204 C210 1.379 . S
C204 N212 1.356 . S
C205 C204 1.363 . S
C205 C211 1.363 . S
C206 C207 1.363 . S
C206 C211 1.379 . S
C206 N213 1.356 . S
C207 C206 1.363 . S
C207 C210 1.363 . S
N208 C210 1.356 . S
N208 H220 0.984 . S
N208 H221 0.985 . S
N209 C211 1.356 . S
N209 H214 0.984 . S
N209 H215 0.985 . S
C210 C204 1.379 . S
C210 C207 1.363 . S
C210 N208 1.356 . S
C211 C205 1.363 . S
C211 C206 1.379 . S
C211 N209 1.356 . S
N212 C204 1.356 . S
N212 H218 0.984 . S
N212 H219 0.984 . S
N213 C206 1.356 . S
N213 H216 0.984 . S
N213 H217 0.985 . S
H214 N209 0.984 . S
H215 N209 0.985 . S
H216 N213 0.984 . S
H217 N213 0.985 . S
H218 N212 0.984 . S
H219 N212 0.984 . S
H220 N208 0.984 . S
H221 N208 0.985 . S
C222 C223 1.363 . S
C222 C228 1.379 . S
C222 N230 1.356 . S
C223 C222 1.363 . S
C223 C229 1.363 . S
C224 C225 1.363 . S
C224 C229 1.379 . S
C224 N231 1.356 . S
C225 C224 1.363 . S
C225 C228 1.363 . S
N226 C228 1.356 . S
N226 H238 0.984 . S
N226 H239 0.985 . S
N227 C229 1.356 . S
N227 H232 0.984 . S
N227 H233 0.985 . S
C228 C222 1.379 . S
C228 C225 1.363 . S
C228 N226 1.356 . S
C229 C223 1.363 . S
C229 C224 1.379 . S
C229 N227 1.356 . S
N230 C222 1.356 . S
N230 H236 0.984 . S
N230 H237 0.984 . S
N231 C224 1.356 . S
N231 H234 0.984 . S
N231 H235 0.985 . S
H232 N227 0.984 . S
H233 N227 0.985 . S
H234 N231 0.984 . S
H235 N231 0.985 . S
H236 N230 0.984 . S
H237 N230 0.984 . S
H238 N226 0.984 . S
H239 N226 0.985 . S
C240 C241 1.363 . S
C240 C246 1.379 . S
C240 N248 1.356 . S
C241 C240 1.363 . S
C241 C247 1.363 . S
C242 C243 1.363 . S
C242 C247 1.379 . S
C242 N249 1.356 . S
C243 C242 1.363 . S
C243 C246 1.363 . S
N244 C246 1.356 . S
N244 H256 0.984 . S
N244 H257 0.985 . S
N245 C247 1.356 . S
N245 H250 0.984 . S
N245 H251 0.985 . S
C246 C240 1.379 . S
C246 C243 1.363 . S
C246 N244 1.356 . S
C247 C241 1.363 . S
C247 C242 1.379 . S
C247 N245 1.356 . S
N248 C240 1.356 . S
N248 H254 0.984 . S
N248 H255 0.984 . S
N249 C242 1.356 . S
N249 H252 0.984 . S
N249 H253 0.985 . S
H250 N245 0.984 . S
H251 N245 0.985 . S
H252 N249 0.984 . S
H253 N249 0.985 . S
H254 N248 0.984 . S
H255 N248 0.984 . S
H256 N244 0.984 . S
H257 N244 0.985 . S
C258 C259 1.363 . S
C258 C264 1.379 . S
C258 N266 1.356 . S
C259 C258 1.363 . S
C259 C265 1.363 . S
C260 C261 1.363 . S
C260 C265 1.379 . S
C260 N267 1.356 . S
C261 C260 1.363 . S
C261 C264 1.363 . S
N262 C264 1.356 . S
N262 H274 0.984 . S
N262 H275 0.985 . S
N263 C265 1.356 1_554 S
N263 H268 0.984 . S
N263 H269 0.985 . S
C264 C258 1.379 . S
C264 C261 1.363 . S
C264 N262 1.356 . S
C265 C259 1.363 . S
C265 C260 1.379 . S
C265 N263 1.356 1_556 S
N266 C258 1.356 . S
N266 H272 0.984 . S
N266 H273 0.984 . S
N267 C260 1.356 . S
N267 H270 0.984 . S
N267 H271 0.985 1_556 S
H268 N263 0.984 . S
H269 N263 0.985 . S
H270 N267 0.984 . S
H271 N267 0.985 1_554 S
H272 N266 0.984 . S
H273 N266 0.984 . S
H274 N262 0.984 . S
H275 N262 0.985 . S
C276 C277 1.363 . S
C276 C282 1.379 . S
C276 N284 1.356 . S
C277 C276 1.363 . S
C277 C283 1.363 . S
C278 C279 1.363 . S
C278 C283 1.379 . S
C278 N285 1.356 . S
C279 C278 1.363 . S
C279 C282 1.363 . S
N280 C282 1.356 . S
N280 H292 0.984 . S
N280 H293 0.985 . S
N281 C283 1.356 . S
N281 H286 0.984 . S
N281 H287 0.985 . S
C282 C276 1.379 . S
C282 C279 1.363 . S
C282 N280 1.356 . S
C283 C277 1.363 . S
C283 C278 1.379 . S
C283 N281 1.356 . S
N284 C276 1.356 . S
N284 H290 0.984 . S
N284 H291 0.984 . S
N285 C278 1.356 . S
N285 H288 0.984 . S
N285 H289 0.985 . S
H286 N281 0.984 . S
H287 N281 0.985 . S
H288 N285 0.984 . S
H289 N285 0.985 . S
H290 N284 0.984 . S
H291 N284 0.984 . S
H292 N280 0.984 . S
H293 N280 0.985 . S
C294 C295 1.363 . S
C294 C300 1.379 . S
C294 N302 1.356 . S
C295 C294 1.363 . S
C295 C301 1.363 . S
C296 C297 1.363 . S
C296 C301 1.379 . S
C296 N303 1.356 . S
C297 C296 1.363 . S
C297 C300 1.363 . S
N298 C300 1.356 . S
N298 H310 0.984 . S
N298 H311 0.985 . S
N299 C301 1.356 . S
N299 H304 0.984 . S
N299 H305 0.985 . S
C300 C294 1.379 . S
C300 C297 1.363 . S
C300 N298 1.356 . S
C301 C295 1.363 . S
C301 C296 1.379 . S
C301 N299 1.356 . S
N302 C294 1.356 . S
N302 H308 0.984 . S
N302 H309 0.984 . S
N303 C296 1.356 . S
N303 H306 0.984 . S
N303 H307 0.985 . S
H304 N299 0.984 . S
H305 N299 0.985 . S
H306 N303 0.984 . S
H307 N303 0.985 . S
H308 N302 0.984 . S
H309 N302 0.984 . S
H310 N298 0.984 . S
H311 N298 0.985 . S
C312 C313 1.363 . S
C312 C318 1.379 . S
C312 N320 1.356 . S
C313 C312 1.363 . S
C313 C319 1.363 . S
C314 C315 1.363 . S
C314 C319 1.379 . S
C314 N321 1.356 . S
C315 C314 1.363 . S
C315 C318 1.363 . S
N316 C318 1.356 . S
N316 H328 0.984 . S
N316 H329 0.985 . S
N317 C319 1.356 . S
N317 H322 0.984 . S
N317 H323 0.985 . S
C318 C312 1.379 . S
C318 C315 1.363 . S
C318 N316 1.356 . S
C319 C313 1.363 . S
C319 C314 1.379 . S
C319 N317 1.356 . S
N320 C312 1.356 . S
N320 H326 0.984 . S
N320 H327 0.984 . S
N321 C314 1.356 . S
N321 H324 0.984 . S
N321 H325 0.985 . S
H322 N317 0.984 . S
H323 N317 0.985 . S
H324 N321 0.984 . S
H325 N321 0.985 . S
H326 N320 0.984 . S
H327 N320 0.984 . S
H328 N316 0.984 . S
H329 N316 0.985 . S
C330 C331 1.363 . S
C330 C336 1.379 . S
C330 N338 1.356 . S
C331 C330 1.363 . S
C331 C337 1.363 . S
C332 C333 1.363 . S
C332 C337 1.379 . S
C332 N339 1.356 . S
C333 C332 1.363 . S
C333 C336 1.363 . S
N334 C336 1.356 . S
N334 H346 0.984 . S
N334 H347 0.985 . S
N335 C337 1.356 . S
N335 H340 0.984 . S
N335 H341 0.985 . S
C336 C330 1.379 . S
C336 C333 1.363 . S
C336 N334 1.356 . S
C337 C331 1.363 . S
C337 C332 1.379 . S
C337 N335 1.356 . S
N338 C330 1.356 . S
N338 H344 0.984 . S
N338 H345 0.984 . S
N339 C332 1.356 . S
N339 H342 0.984 . S
N339 H343 0.985 . S
H340 N335 0.984 . S
H341 N335 0.985 . S
H342 N339 0.984 . S
H343 N339 0.985 . S
H344 N338 0.984 . S
H345 N338 0.984 . S
H346 N334 0.984 . S
H347 N334 0.985 . S
C348 C349 1.356 1_556 S
C348 C354 1.375 1_556 S
C348 N356 1.366 . S
C349 C348 1.356 1_554 S
C349 C355 1.363 . S
C350 C351 1.363 . S
C350 C355 1.379 . S
C350 N357 1.356 . S
C351 C350 1.363 . S
C351 C354 1.363 . S
N352 C354 1.356 1_556 S
N352 H364 0.984 . S
N352 H365 0.985 1_556 S
N353 C355 1.356 . S
N353 H358 0.984 . S
N353 H359 0.985 . S
C354 C348 1.375 1_554 S
C354 C351 1.363 . S
C354 N352 1.356 1_554 S
C355 C349 1.363 . S
C355 C350 1.379 . S
C355 N353 1.356 . S
N356 C348 1.366 . S
N356 H362 0.984 . S
N356 H363 0.984 . S
N357 C350 1.356 . S
N357 H360 0.984 . S
N357 H361 0.985 . S
H358 N353 0.984 . S
H359 N353 0.985 . S
H360 N357 0.984 . S
H361 N357 0.985 . S
H362 N356 0.984 . S
H363 N356 0.984 . S
H364 N352 0.984 . S
H365 N352 0.985 1_554 S
C366 C367 1.363 . S
C366 C372 1.379 . S
C366 N374 1.356 . S
C367 C366 1.363 . S
C367 C373 1.363 . S
C368 C369 1.363 . S
C368 C373 1.379 . S
C368 N375 1.356 . S
C369 C368 1.363 . S
C369 C372 1.363 . S
N370 C372 1.356 . S
N370 H382 0.984 . S
N370 H383 0.985 . S
N371 C373 1.356 . S
N371 H376 0.984 . S
N371 H377 0.985 . S
C372 C366 1.379 . S
C372 C369 1.363 . S
C372 N370 1.356 . S
C373 C367 1.363 . S
C373 C368 1.379 . S
C373 N371 1.356 . S
N374 C366 1.356 . S
N374 H380 0.984 . S
N374 H381 0.984 . S
N375 C368 1.356 . S
N375 H378 0.984 . S
N375 H379 0.985 . S
H376 N371 0.984 . S
H377 N371 0.985 . S
H378 N375 0.984 . S
H379 N375 0.985 . S
H380 N374 0.984 . S
H381 N374 0.984 . S
H382 N370 0.984 . S
H383 N370 0.985 . S
C384 C385 1.363 . S
C384 C390 1.379 . S
C384 N392 1.356 . S
C385 C384 1.363 . S
C385 C391 1.363 . S
C386 C387 1.363 . S
C386 C391 1.379 . S
C386 N393 1.356 . S
C387 C386 1.363 . S
C387 C390 1.363 . S
N388 C390 1.356 . S
N388 H400 0.984 . S
N388 H401 0.985 . S
N389 C391 1.356 . S
N389 H394 0.984 . S
N389 H395 0.985 . S
C390 C384 1.379 . S
C390 C387 1.363 . S
C390 N388 1.356 . S
C391 C385 1.363 . S
C391 C386 1.379 . S
C391 N389 1.356 . S
N392 C384 1.356 . S
N392 H398 0.984 . S
N392 H399 0.984 . S
N393 C386 1.356 . S
N393 H396 0.984 . S
N393 H397 0.985 . S
H394 N389 0.984 . S
H395 N389 0.985 . S
H396 N393 0.984 . S
H397 N393 0.985 . S
H398 N392 0.984 . S
H399 N392 0.984 . S
H400 N388 0.984 . S
H401 N388 0.985 . S
C402 C403 1.363 . S
C402 C408 1.379 . S
C402 N410 1.356 . S
C403 C402 1.363 . S
C403 C409 1.363 . S
C404 C405 1.363 . S
C404 C409 1.379 . S
C404 N411 1.356 . S
C405 C404 1.363 . S
C405 C408 1.363 . S
N406 C408 1.356 . S
N406 H418 0.984 . S
N406 H419 0.985 . S
N407 C409 1.356 . S
N407 H412 0.984 . S
N407 H413 0.985 . S
C408 C402 1.379 . S
C408 C405 1.363 . S
C408 N406 1.356 . S
C409 C403 1.363 . S
C409 C404 1.379 . S
C409 N407 1.356 . S
N410 C402 1.356 . S
N410 H416 0.984 . S
N410 H417 0.984 . S
N411 C404 1.356 . S
N411 H414 0.984 . S
N411 H415 0.985 . S
H412 N407 0.984 . S
H413 N407 0.985 . S
H414 N411 0.984 . S
H415 N411 0.985 . S
H416 N410 0.984 . S
H417 N410 0.984 . S
H418 N406 0.984 . S
H419 N406 0.985 . S
C420 C421 1.363 . S
C420 C426 1.379 . S
C420 N428 1.356 . S
C421 C420 1.363 . S
C421 C427 1.363 . S
C422 C423 1.363 . S
C422 C427 1.379 . S
C422 N429 1.356 . S
C423 C422 1.363 . S
C423 C426 1.363 . S
N424 C426 1.356 . S
N424 H436 0.984 . S
N424 H437 0.985 . S
N425 C427 1.356 . S
N425 H430 0.984 . S
N425 H431 0.985 . S
C426 C420 1.379 . S
C426 C423 1.363 . S
C426 N424 1.356 . S
C427 C421 1.363 . S
C427 C422 1.379 . S
C427 N425 1.356 . S
N428 C420 1.356 . S
N428 H434 0.984 . S
N428 H435 0.984 . S
N429 C422 1.356 . S
N429 H432 0.984 . S
N429 H433 0.985 . S
H430 N425 0.984 . S
H431 N425 0.985 . S
H432 N429 0.984 . S
H433 N429 0.985 . S
H434 N428 0.984 . S
H435 N428 0.984 . S
H436 N424 0.984 . S
H437 N424 0.985 . S
C438 C439 1.363 . S
C438 C444 1.379 . S
C438 N446 1.356 . S
C439 C438 1.363 . S
C439 C445 1.363 . S
C440 C441 1.363 . S
C440 C445 1.379 . S
C440 N447 1.356 . S
C441 C440 1.363 . S
C441 C444 1.363 . S
N442 C444 1.356 . S
N442 H454 0.984 . S
N442 H455 0.985 . S
N443 C445 1.356 . S
N443 H448 0.984 . S
N443 H449 0.985 . S
C444 C438 1.379 . S
C444 C441 1.363 . S
C444 N442 1.356 . S
C445 C439 1.363 . S
C445 C440 1.379 . S
C445 N443 1.356 . S
N446 C438 1.356 . S
N446 H452 0.984 . S
N446 H453 0.984 . S
N447 C440 1.356 . S
N447 H450 0.984 . S
N447 H451 0.985 . S
H448 N443 0.984 . S
H449 N443 0.985 . S
H450 N447 0.984 . S
H451 N447 0.985 . S
H452 N446 0.984 . S
H453 N446 0.984 . S
H454 N442 0.984 . S
H455 N442 0.985 . S
C456 C457 1.363 . S
C456 C462 1.379 . S
C456 N464 1.356 . S
C457 C456 1.363 . S
C457 C463 1.363 . S
C458 C459 1.363 . S
C458 C463 1.379 . S
C458 N465 1.356 1_556 S
C459 C458 1.363 . S
C459 C462 1.363 . S
N460 C462 1.356 . S
N460 H472 0.984 . S
N460 H473 0.985 . S
N461 C463 1.356 . S
N461 H466 0.984 . S
N461 H467 0.985 . S
C462 C456 1.379 . S
C462 C459 1.363 . S
C462 N460 1.356 . S
C463 C457 1.363 . S
C463 C458 1.379 . S
C463 N461 1.356 . S
N464 C456 1.356 . S
N464 H470 0.984 . S
N464 H471 0.984 . S
N465 C458 1.356 1_554 S
N465 H468 0.984 . S
N465 H469 0.985 . S
H466 N461 0.984 . S
H467 N461 0.985 . S
H468 N465 0.984 . S
H469 N465 0.985 . S
H470 N464 0.984 . S
H471 N464 0.984 . S
H472 N460 0.984 . S
H473 N460 0.985 . S
C474 C475 1.363 . S
C474 C480 1.379 . S
C474 N482 1.356 . S
C475 C474 1.363 . S
C475 C481 1.363 . S
C476 C477 1.363 . S
C476 C481 1.379 . S
C476 N483 1.356 . S
C477 C476 1.363 . S
C477 C480 1.363 . S
N478 C480 1.356 . S
N478 H490 0.984 . S
N478 H491 0.985 . S
N479 C481 1.356 . S
N479 H484 0.984 . S
N479 H485 0.985 . S
C480 C474 1.379 . S
C480 C477 1.363 . S
C480 N478 1.356 . S
C481 C475 1.363 . S
C481 C476 1.379 . S
C481 N479 1.356 . S
N482 C474 1.356 . S
N482 H488 0.984 . S
N482 H489 0.984 . S
N483 C476 1.356 . S
N483 H486 0.984 . S
N483 H487 0.985 . S
H484 N479 0.984 . S
H485 N479 0.985 . S
H486 N483 0.984 . S
H487 N483 0.985 . S
H488 N482 0.984 . S
H489 N482 0.984 . S
H490 N478 0.984 . S
H491 N478 0.985 . S
C492 C493 1.363 . S
C492 C498 1.379 . S
C492 N500 1.356 . S
C493 C492 1.363 . S
C493 C499 1.363 . S
C494 C495 1.363 . S
C494 C499 1.379 . S
C494 N501 1.356 . S
C495 C494 1.363 . S
C495 C498 1.363 . S
N496 C498 1.356 . S
N496 H508 0.984 . S
N496 H509 0.985 . S
N497 C499 1.356 . S
N497 H502 0.984 . S
N497 H503 0.985 . S
C498 C492 1.379 . S
C498 C495 1.363 . S
C498 N496 1.356 . S
C499 C493 1.363 . S
C499 C494 1.379 . S
C499 N497 1.356 . S
N500 C492 1.356 . S
N500 H506 0.984 . S
N500 H507 0.984 . S
N501 C494 1.356 . S
N501 H504 0.984 . S
N501 H505 0.985 . S
H502 N497 0.984 . S
H503 N497 0.985 . S
H504 N501 0.984 . S
H505 N501 0.985 . S
H506 N500 0.984 . S
H507 N500 0.984 . S
H508 N496 0.984 . S
H509 N496 0.985 . S
C510 C511 1.363 . S
C510 C516 1.379 . S
C510 N518 1.356 . S
C511 C510 1.363 . S
C511 C517 1.363 . S
C512 C513 1.363 . S
C512 C517 1.379 . S
C512 N519 1.356 . S
C513 C512 1.363 . S
C513 C516 1.363 . S
N514 C516 1.356 . S
N514 H526 0.984 . S
N514 H527 0.985 . S
N515 C517 1.356 . S
N515 H520 0.984 . S
N515 H521 0.985 . S
C516 C510 1.379 . S
C516 C513 1.363 . S
C516 N514 1.356 . S
C517 C511 1.363 . S
C517 C512 1.379 . S
C517 N515 1.356 . S
N518 C510 1.356 . S
N518 H524 0.984 . S
N518 H525 0.984 . S
N519 C512 1.356 . S
N519 H522 0.984 . S
N519 H523 0.985 . S
H520 N515 0.984 . S
H521 N515 0.985 . S
H522 N519 0.984 . S
H523 N519 0.985 . S
H524 N518 0.984 . S
H525 N518 0.984 . S
H526 N514 0.984 . S
H527 N514 0.985 . S
C528 C529 1.363 . S
C528 C534 1.379 . S
C528 N536 1.356 . S
C529 C528 1.363 . S
C529 C535 1.363 . S
C530 C531 1.363 . S
C530 C535 1.379 . S
C530 N537 1.356 . S
C531 C530 1.363 . S
C531 C534 1.363 . S
N532 C534 1.356 . S
N532 H544 0.984 . S
N532 H545 0.985 . S
N533 C535 1.356 . S
N533 H538 0.984 . S
N533 H539 0.985 . S
C534 C528 1.379 . S
C534 C531 1.363 . S
C534 N532 1.356 . S
C535 C529 1.363 . S
C535 C530 1.379 . S
C535 N533 1.356 . S
N536 C528 1.356 . S
N536 H542 0.984 . S
N536 H543 0.984 . S
N537 C530 1.356 . S
N537 H540 0.984 . S
N537 H541 0.985 . S
H538 N533 0.984 . S
H539 N533 0.985 . S
H540 N537 0.984 . S
H541 N537 0.985 . S
H542 N536 0.984 . S
H543 N536 0.984 . S
H544 N532 0.984 . S
H545 N532 0.985 . S
C546 C547 1.363 . S
C546 C552 1.379 . S
C546 N554 1.356 . S
C547 C546 1.363 . S
C547 C553 1.363 . S
C548 C549 1.363 . S
C548 C553 1.379 . S
C548 N555 1.356 . S
C549 C548 1.363 . S
C549 C552 1.363 . S
N550 C552 1.356 . S
N550 H562 0.984 . S
N550 H563 0.985 . S
N551 C553 1.356 . S
N551 H556 0.984 . S
N551 H557 0.985 . S
C552 C546 1.379 . S
C552 C549 1.363 . S
C552 N550 1.356 . S
C553 C547 1.363 . S
C553 C548 1.379 . S
C553 N551 1.356 . S
N554 C546 1.356 . S
N554 H560 0.984 . S
N554 H561 0.984 . S
N555 C548 1.356 . S
N555 H558 0.984 . S
N555 H559 0.985 . S
H556 N551 0.984 . S
H557 N551 0.985 . S
H558 N555 0.984 . S
H559 N555 0.985 . S
H560 N554 0.984 . S
H561 N554 0.984 . S
H562 N550 0.984 . S
H563 N550 0.985 . S
C564 C565 1.363 . S
C564 C570 1.379 . S
C564 N572 1.356 . S
C565 C564 1.363 . S
C565 C571 1.363 . S
C566 C567 1.363 . S
C566 C571 1.379 . S
C566 N573 1.356 . S
C567 C566 1.363 . S
C567 C570 1.363 . S
N568 C570 1.356 . S
N568 H580 0.984 . S
N568 H581 0.985 . S
N569 C571 1.356 . S
N569 H574 0.984 . S
N569 H575 0.985 . S
C570 C564 1.379 . S
C570 C567 1.363 . S
C570 N568 1.356 . S
C571 C565 1.363 . S
C571 C566 1.379 . S
C571 N569 1.356 . S
N572 C564 1.356 . S
N572 H578 0.984 . S
N572 H579 0.984 . S
N573 C566 1.356 . S
N573 H576 0.984 . S
N573 H577 0.985 . S
H574 N569 0.984 . S
H575 N569 0.985 . S
H576 N573 0.984 . S
H577 N573 0.985 . S
H578 N572 0.984 . S
H579 N572 0.984 . S
H580 N568 0.984 . S
H581 N568 0.985 . S
C582 C583 1.363 . S
C582 C588 1.379 . S
C582 N590 1.356 . S
C583 C582 1.363 . S
C583 C589 1.363 . S
C584 C585 1.363 . S
C584 C589 1.379 . S
C584 N591 1.356 1_554 S
C585 C584 1.363 . S
C585 C588 1.363 . S
N586 C588 1.356 . S
N586 H598 0.984 . S
N586 H599 0.960 1_554 S
N587 C589 1.356 . S
N587 H592 0.984 . S
N587 H593 0.985 . S
C588 C582 1.379 . S
C588 C585 1.363 . S
C588 N586 1.356 . S
C589 C583 1.363 . S
C589 C584 1.379 . S
C589 N587 1.356 . S
N590 C582 1.356 . S
N590 H596 0.984 . S
N590 H597 0.984 . S
N591 C584 1.356 1_556 S
N591 H594 0.984 . S
N591 H595 0.985 . S
H592 N587 0.984 . S
H593 N587 0.985 . S
H594 N591 0.984 . S
H595 N591 0.985 . S
H596 N590 0.984 . S
H597 N590 0.984 . S
H598 N586 0.984 . S
H599 N586 0.960 1_556 S
C600 C601 1.363 . S
C600 C606 1.379 . S
C600 N608 1.356 . S
C601 C600 1.363 . S
C601 C607 1.363 . S
C602 C603 1.363 . S
C602 C607 1.379 . S
C602 N609 1.356 . S
C603 C602 1.363 . S
C603 C606 1.363 . S
N604 C606 1.356 . S
N604 H616 0.984 . S
N604 H617 0.985 . S
N605 C607 1.356 . S
N605 H610 0.984 . S
N605 H611 0.985 . S
C606 C600 1.379 . S
C606 C603 1.363 . S
C606 N604 1.356 . S
C607 C601 1.363 . S
C607 C602 1.379 . S
C607 N605 1.356 . S
N608 C600 1.356 . S
N608 H614 0.984 . S
N608 H615 0.984 . S
N609 C602 1.356 . S
N609 H612 0.984 . S
N609 H613 0.985 . S
H610 N605 0.984 . S
H611 N605 0.985 . S
H612 N609 0.984 . S
H613 N609 0.985 . S
H614 N608 0.984 . S
H615 N608 0.984 . S
H616 N604 0.984 . S
H617 N604 0.985 . S
C189 C178 1.578 . S
C187 C8 1.538 . S
C205 C26 1.542 . S
C207 C113 1.582 . S
C223 C50 1.543 . S
C225 C131 1.583 . S
C241 C68 1.534 . S
C243 C144 1.572 . S
C261 C152 1.581 . S
C259 C80 1.540 . S
C277 C104 1.538 . S
C279 C164 1.578 . S
C295 C32 1.547 . S
C297 C126 1.589 . S
C313 C44 1.539 . S
C315 C139 1.579 . S
C331 C62 1.536 . S
C333 C157 1.574 . S
C351 C163 1.584 . S
C349 C86 1.542 1_554 S
C369 C183 1.570 . S
C367 C98 1.533 . S
C387 C118 1.578 . S
C385 C14 1.539 . S
C403 C7 1.521 . S
C405 C124 1.569 . S
C421 C25 1.521 . S
C423 C137 1.569 . S
C441 C151 1.565 . S
C439 C52 1.522 . S
C457 C70 1.529 . S
C459 C165 1.573 1_556 S
C477 C177 1.563 . S
C475 C79 1.514 . S
C495 C112 1.564 . S
C493 C106 1.520 . S
C513 C176 1.567 . S
C511 C34 1.524 . S
C529 C43 1.519 . S
C531 C111 1.567 . S
C549 C125 1.568 . S
C547 C61 1.519 . S
C565 C88 1.518 . S
C567 C138 1.562 . S
C583 C97 1.522 . S
C585 C150 1.570 1_554 S
C601 C16 1.524 . S
C603 C170 1.568 . S
