# Generated by pormake.
# Topology zzz, (3,6)-cn, num edge types: 1
# Building blocks:
#     Node 0, Type 0, BuildingBlock: BETDIP_clean_linker_0, # of connection points: 3
#     Node 1, Type 0, BuildingBlock: BETDIP_clean_linker_0, # of connection points: 3
#     Node 2, Type 0, BuildingBlock: BETDIP_clean_linker_0, # of connection points: 3
#     Node 3, Type 0, BuildingBlock: BETDIP_clean_linker_0, # of connection points: 3
#     Node 4, Type 0, BuildingBlock: BETDIP_clean_linker_0, # of connection points: 3
#     Node 5, Type 0, BuildingBlock: BETDIP_clean_linker_0, # of connection points: 3
#     Node 6, Type 0, BuildingBlock: BETDIP_clean_linker_0, # of connection points: 3
#     Node 7, Type 0, BuildingBlock: BETDIP_clean_linker_0, # of connection points: 3
#     Node 8, Type 1, BuildingBlock: BETDEL_clean_sbu_0, # of connection points: 6
#     Node 9, Type 1, BuildingBlock: BETDEL_clean_sbu_0, # of connection points: 6
#     Node 10, Type 1, BuildingBlock: BETDEL_clean_sbu_0, # of connection points: 6
#     Node 11, Type 1, BuildingBlock: BETDEL_clean_sbu_0, # of connection points: 6
#     Edge 12, Type (0, 1), BuildingBlock: UVAHIK_clean_linker_0, # of connection points: 2
#     Edge 13, Type (0, 1), BuildingBlock: UVAHIK_clean_linker_0, # of connection points: 2
#     Edge 14, Type (0, 1), BuildingBlock: UVAHIK_clean_linker_0, # of connection points: 2
#     Edge 15, Type (0, 1), BuildingBlock: UVAHIK_clean_linker_0, # of connection points: 2
#     Edge 16, Type (0, 1), BuildingBlock: UVAHIK_clean_linker_0, # of connection points: 2
#     Edge 17, Type (0, 1), BuildingBlock: UVAHIK_clean_linker_0, # of connection points: 2
#     Edge 18, Type (0, 1), BuildingBlock: UVAHIK_clean_linker_0, # of connection points: 2
#     Edge 19, Type (0, 1), BuildingBlock: UVAHIK_clean_linker_0, # of connection points: 2
#     Edge 20, Type (0, 1), BuildingBlock: UVAHIK_clean_linker_0, # of connection points: 2
#     Edge 21, Type (0, 1), BuildingBlock: UVAHIK_clean_linker_0, # of connection points: 2
#     Edge 22, Type (0, 1), BuildingBlock: UVAHIK_clean_linker_0, # of connection points: 2
#     Edge 23, Type (0, 1), BuildingBlock: UVAHIK_clean_linker_0, # of connection points: 2
#     Edge 24, Type (0, 1), BuildingBlock: UVAHIK_clean_linker_0, # of connection points: 2
#     Edge 25, Type (0, 1), BuildingBlock: UVAHIK_clean_linker_0, # of connection points: 2
#     Edge 26, Type (0, 1), BuildingBlock: UVAHIK_clean_linker_0, # of connection points: 2
#     Edge 27, Type (0, 1), BuildingBlock: UVAHIK_clean_linker_0, # of connection points: 2
#     Edge 28, Type (0, 1), BuildingBlock: UVAHIK_clean_linker_0, # of connection points: 2
#     Edge 29, Type (0, 1), BuildingBlock: UVAHIK_clean_linker_0, # of connection points: 2
#     Edge 30, Type (0, 1), BuildingBlock: UVAHIK_clean_linker_0, # of connection points: 2
#     Edge 31, Type (0, 1), BuildingBlock: UVAHIK_clean_linker_0, # of connection points: 2
#     Edge 32, Type (0, 1), BuildingBlock: UVAHIK_clean_linker_0, # of connection points: 2
#     Edge 33, Type (0, 1), BuildingBlock: UVAHIK_clean_linker_0, # of connection points: 2
#     Edge 34, Type (0, 1), BuildingBlock: UVAHIK_clean_linker_0, # of connection points: 2
#     Edge 35, Type (0, 1), BuildingBlock: UVAHIK_clean_linker_0, # of connection points: 2
# Relax obj value: 0.150
# Max RMSD: 0.174
# Mean RMSD: 0.112
data_MOF--net-zzz--node1-BETDEL_clean_sbu_0--node2-BETDIP_clean_linker_0--edge1-UVAHIK_clean_linker_0
_symmetry_space_group_name_H-M    P1
_symmetry_Int_Tables_number       1
_symmetry_cell_setting            triclinic
loop_
_symmetry_equiv_pos_as_xyz
'x, y, z'
_cell_length_a     64.35162
_cell_length_b     65.843441
_cell_length_c     19.125547
_cell_angle_alpha  91.609926
_cell_angle_beta   88.431828
_cell_angle_gamma 95.11626
loop_
_atom_site_label
_atom_site_type_symbol
_atom_site_fract_x
_atom_site_fract_y
_atom_site_fract_z
_atom_type_partial_charge
H0 H 0.74482 0.51834 0.23154 0.0
H1 H 0.74967 0.50663 0.00855 0.0
H2 H 0.79835 0.49177 0.14117 0.0
H3 H 0.73507 0.54151 0.02806 0.0
C4 C 0.72158 0.5329 0.05171 0.0
C5 C 0.75296 0.51221 0.18649 0.0
C6 C 0.77247 0.50444 0.19439 0.0
C7 C 0.74445 0.51277 0.11929 0.0
C8 C 0.75572 0.50576 0.0606 0.0
C9 C 0.77495 0.49787 0.06863 0.0
C10 C 0.78292 0.49689 0.1355 0.0
N11 N 0.72486 0.52074 0.11018 0.0
H12 H 0.99111 0.74536 0.20537 0.0
H13 H 0.01612 0.76005 -0.00061 0.0
H14 H 0.02092 0.80506 0.16566 0.0
H15 H 0.98392 0.73866 0.97835 0.0
C16 C 0.9891 0.72609 0.00711 0.0
C17 C 0.9998 0.75587 0.17044 0.0
C18 C 1.00628 0.77577 0.19409 0.0
C19 C 1.00355 0.74996 0.10023 0.0
C20 C 0.01363 0.76421 0.05398 0.0
C21 C 0.02017 0.78402 0.07766 0.0
C22 C 0.01695 0.78941 0.14802 0.0
N23 N 0.99654 0.72996 0.07599 0.0
H24 H 0.75212 0.97457 0.21137 0.0
H25 H 0.76019 0.99608 0.00052 0.0
H26 H 0.70754 0.01163 0.12597 0.0
H27 H 0.76892 0.95667 0.00388 0.0
C28 C 0.7819 0.96384 0.03358 0.0
C29 C 0.74697 0.98335 0.16907 0.0
C30 C 0.72841 0.99319 0.17701 0.0
C31 C 0.75855 0.9844 0.10539 0.0
C32 C 0.75149 0.99533 0.04987 0.0
C33 C 0.73342 0.00553 0.05809 0.0
C34 C 0.7221 0.0045 0.12147 0.0
N35 N 0.7773 0.97457 0.09692 0.0
H36 H 0.53086 0.76335 0.23665 0.0
H37 H 0.51102 0.75715 0.02252 0.0
H38 H 0.50503 0.70533 0.15476 0.0
H39 H 0.54796 0.78138 0.03095 0.0
C40 C 0.53772 0.79133 0.05866 0.0
C41 C 0.52374 0.75416 0.19435 0.0
C42 C 0.51809 0.73323 0.20326 0.0
C43 C 0.52102 0.76296 0.1291 0.0
C44 C 0.51274 0.75066 0.07326 0.0
C45 C 0.50647 0.73002 0.08325 0.0
C46 C 0.50897 0.72157 0.14826 0.0
N47 N 0.52657 0.78411 0.1196 0.0
H48 H 0.27382 0.49771 0.90062 0.0
H49 H 0.2679 0.50018 0.12632 0.0
H50 H 0.21374 0.48604 0.00294 0.0
H51 H 0.29408 0.5305 0.08706 0.0
C52 C 0.30374 0.51842 0.0703 0.0
C53 C 0.26435 0.49589 0.9481 0.0
C54 C 0.24258 0.49115 0.94419 0.0
C55 C 0.27367 0.49899 0.01411 0.0
C56 C 0.26103 0.49748 0.07541 0.0
C57 C 0.23954 0.49243 0.07131 0.0
C58 C 0.23057 0.48904 0.00595 0.0
N59 N 0.29561 0.50384 0.01938 0.0
H60 H 0.01849 0.26428 0.9441 0.0
H61 H 0.02061 0.25204 0.16456 0.0
H62 H 0.03697 0.20704 0.01196 0.0
H63 H 0.9918 0.27122 0.1605 0.0
C64 C 1.00001 0.28411 0.13417 0.0
C65 C 0.02207 0.2545 0.98593 0.0
C66 C 0.02882 0.23511 0.97013 0.0
C67 C 0.01915 0.26085 0.05628 0.0
C68 C 0.02294 0.24754 0.11021 0.0
C69 C 0.02952 0.22822 0.09438 0.0
C70 C 0.03284 0.22238 0.02453 0.0
N71 N 0.0121 0.28039 0.07243 0.0
H72 H 0.25375 0.025 0.91982 0.0
H73 H 0.25243 0.011 0.13925 0.0
H74 H 0.31088 0.02627 0.03215 0.0
H75 H 0.22588 0.98503 0.07697 0.0
C76 C 0.21759 0.99839 0.06824 0.0
C77 C 0.26179 0.02357 0.96822 0.0
C78 C 0.28375 0.02657 0.96928 0.0
C79 C 0.25034 0.01791 0.02974 0.0
C80 C 0.26104 0.0154 0.09175 0.0
C81 C 0.28279 0.01872 0.09305 0.0
C82 C 0.29394 0.02446 0.03195 0.0
N83 N 0.22817 0.01454 0.02957 0.0
H84 H 0.49134 0.24516 0.9264 0.0
H85 H 0.47707 0.25255 0.14739 0.0
H86 H 0.46716 0.3001 0.00742 0.0
H87 H 0.50746 0.23536 0.14703 0.0
C88 C 0.50116 0.22255 0.11465 0.0
C89 C 0.48518 0.25388 0.96984 0.0
C90 C 0.47847 0.27334 0.95876 0.0
C91 C 0.48461 0.24612 0.03811 0.0
C92 C 0.47739 0.25808 0.09454 0.0
C93 C 0.47104 0.27748 0.08365 0.0
C94 C 0.47115 0.28469 0.01566 0.0
N95 N 0.49181 0.22666 0.05036 0.0
Dy96 Dy 0.01322 0.9961 0.65505 0.0
C97 C 0.99331 0.03504 0.39775 0.0
C98 C 0.0109 0.97438 0.77413 0.0
Dy99 Dy 0.99739 0.01189 0.51127 0.0
O100 O 0.02619 0.98789 0.75758 0.0
O101 O 0.9966 0.9737 0.72724 0.0
O102 O 0.04732 0.99486 0.62218 0.0
O103 O 0.02597 0.0043 0.55423 0.0
C104 C 0.04483 1.00119 0.55937 0.0
C105 C 0.96798 0.99807 0.60412 0.0
O106 O 1.00042 0.97949 0.47866 0.0
O107 O 1.00423 0.96756 0.59138 0.0
O108 O 0.98035 0.03355 0.451 0.0
O109 O 0.00804 0.02302 0.40514 0.0
O110 O 0.96565 0.99669 0.53667 0.0
O111 O 0.98507 0.00815 0.61812 0.0
O112 O 0.01332 0.02933 0.6837 0.0
O113 O 0.00938 0.04042 0.5701 0.0
C114 C 1.00151 0.96451 0.52312 0.0
C115 C 0.013 0.04407 0.63762 0.0
Dy116 Dy 0.49038 0.99235 0.54605 0.0
C117 C 0.56089 0.03426 0.68697 0.0
C118 C 0.45288 0.97845 0.492 0.0
Dy119 Dy 0.52447 0.01859 0.62919 0.0
O120 O 0.47067 0.97875 0.458 0.0
O121 O 0.45572 0.98544 0.5553 0.0
O122 O 0.51404 0.9721 0.50018 0.0
O123 O 0.52309 1.00262 0.52873 0.0
C124 C 0.52967 0.98579 0.50982 0.0
C125 C 0.48482 0.02429 0.66608 0.0
O126 O 0.52088 0.03959 0.54149 0.0
O127 O 0.48971 0.02359 0.5003 0.0
O128 O 0.5443 0.02737 0.72221 0.0
O129 O 0.55743 0.03288 0.62046 0.0
O130 O 0.50002 0.03863 0.67169 0.0
O131 O 0.49204 0.00774 0.64783 0.0
O132 O 0.49454 0.97111 0.63249 0.0
O133 O 0.52659 0.9867 0.66812 0.0
C134 C 0.50444 0.03909 0.50101 0.0
C135 C 0.51173 0.97128 0.66934 0.0
Dy136 Dy 0.49956 0.51266 0.65177 0.0
C137 C 0.51842 0.46955 0.39101 0.0
C138 C 0.50268 0.53639 0.76999 0.0
Dy139 Dy 0.516 0.49434 0.50658 0.0
O140 O 0.48657 0.52371 0.75495 0.0
O141 O 0.51726 0.5351 0.72215 0.0
O142 O 0.46593 0.5148 0.62155 0.0
O143 O 0.48737 0.5036 0.55153 0.0
C144 C 0.46868 0.50766 0.55812 0.0
C145 C 0.54501 0.50765 0.59896 0.0
O146 O 0.51488 0.52663 0.47513 0.0
O147 O 0.50996 0.54021 0.58809 0.0
O148 O 0.53117 0.47048 0.44273 0.0
O149 O 0.50508 0.48312 0.40087 0.0
O150 O 0.5483 0.50806 0.53139 0.0
O151 O 0.52723 0.49875 0.61262 0.0
O152 O 0.4981 0.47975 0.68036 0.0
O153 O 0.50313 0.46675 0.5666 0.0
C154 C 0.51358 0.54231 0.51978 0.0
C155 C 0.49882 0.46421 0.63448 0.0
Dy156 Dy 0.99923 0.50112 0.63726 0.0
C157 C 0.0438 0.51494 0.38081 0.0
C158 C 0.97402 0.50114 0.75402 0.0
Dy159 Dy 0.0184 0.51362 0.49731 0.0
O160 O 0.98133 0.48506 0.72528 0.0
O161 O 0.98132 0.51721 0.72062 0.0
O162 O 0.00747 0.46903 0.6182 0.0
O163 O 1.00007 0.48651 0.53353 0.0
C164 C 1.00654 0.46984 0.5505 0.0
C165 C 0.01 0.54454 0.58357 0.0
O166 O 0.98524 0.5108 0.46328 0.0
O167 O 0.97155 0.5093 0.57672 0.0
O168 O 0.0392 0.5307 0.41848 0.0
O169 O 0.03364 0.49863 0.40509 0.0
O170 O 0.00852 0.54512 0.51596 0.0
O171 O 0.01732 0.52829 0.60074 0.0
O172 O 0.03243 0.50408 0.67068 0.0
O173 O 0.04576 0.50432 0.55691 0.0
C174 C 0.96921 0.51102 0.50838 0.0
C175 C 0.04831 0.50317 0.6253 0.0
C176 C 0.18597 0.01717 0.10272 0.0
C177 C 0.19836 1.00089 0.11103 0.0
C178 C 0.16847 0.01937 0.14706 0.0
C179 C 0.1494 0.00814 0.32375 0.0
H180 H 0.09301 0.00939 0.25868 0.0
C181 C 0.07941 0.99282 0.51164 0.0
C182 C 0.06142 1.00305 0.50423 0.0
C183 C 0.09556 0.99444 0.46133 0.0
C184 C 0.10868 0.00943 0.27787 0.0
H185 H 0.20207 0.97411 0.17113 0.0
H186 H 0.17204 0.97823 0.24907 0.0
H187 H 0.12228 0.00938 0.17377 0.0
H188 H 0.04638 0.02336 0.43904 0.0
H189 H 0.07481 0.02657 0.35088 0.0
H190 H 0.13627 0.00846 0.42738 0.0
C191 C 0.17569 0.9892 0.20837 0.0
C192 C 0.12542 0.00938 0.22912 0.0
C193 C 0.19282 0.98681 0.16357 0.0
C194 C 0.0599 0.01502 0.44529 0.0
C195 C 0.07624 0.01685 0.39493 0.0
C196 C 0.13282 0.00849 0.37229 0.0
C197 C 0.16342 0.00557 0.20108 0.0
C198 C 0.14586 0.0082 0.25169 0.0
C199 C 0.09438 0.00666 0.40254 0.0
C200 C 0.11213 0.00853 0.35018 0.0
H201 H 0.18987 0.02823 0.06252 0.0
H202 H 0.15924 0.03212 0.14044 0.0
H203 H 0.16506 0.00755 0.34261 0.0
H204 H 0.08096 0.98335 0.5563 0.0
H205 H 0.10892 0.9859 0.46844 0.0
C206 C 0.50195 0.20075 0.21805 0.0
C207 C 0.49968 0.20205 0.14554 0.0
C208 C 0.50056 0.18186 0.24996 0.0
C209 C 0.51024 0.12923 0.22461 0.0
H210 H 0.47298 0.11968 0.38567 0.0
C211 C 0.52047 0.06907 0.43418 0.0
C212 C 0.50264 0.0564 0.45402 0.0
C213 C 0.51888 0.08542 0.38995 0.0
C214 C 0.48334 0.12204 0.34046 0.0
H215 H 0.49447 0.18454 0.04907 0.0
H216 H 0.4928 0.15111 0.10504 0.0
H217 H 0.4721 0.15094 0.31976 0.0
H218 H 0.46914 0.05106 0.44302 0.0
H219 H 0.46632 0.08008 0.36738 0.0
H220 H 0.52215 0.10074 0.24734 0.0
C221 C 0.4953 0.1649 0.13704 0.0
C222 C 0.48288 0.13994 0.30293 0.0
C223 C 0.4962 0.18396 0.10513 0.0
C224 C 0.48317 0.06049 0.42861 0.0
C225 C 0.48154 0.07712 0.38549 0.0
C226 C 0.511 0.1115 0.26308 0.0
C227 C 0.49731 0.16372 0.20991 0.0
C228 C 0.49645 0.14381 0.24504 0.0
C229 C 0.49938 0.08974 0.36559 0.0
C230 C 0.49768 0.10782 0.32179 0.0
H231 H 0.50464 0.21446 0.25042 0.0
H232 H 0.50236 0.1814 0.30604 0.0
H233 H 0.52096 0.13192 0.18052 0.0
H234 H 0.53571 0.06629 0.45249 0.0
H235 H 0.53287 0.09499 0.37602 0.0
C236 C 0.33554 0.50004 0.09703 0.0
C237 C 0.32232 0.51558 0.11216 0.0
C238 C 0.3522 0.49728 0.14098 0.0
C239 C 0.3677 0.50634 0.32338 0.0
H240 H 0.42478 0.5028 0.25728 0.0
C241 C 0.43535 0.51784 0.51308 0.0
C242 C 0.45271 0.5065 0.50345 0.0
C243 C 0.41994 0.51716 0.46284 0.0
C244 C 0.40887 0.50343 0.27664 0.0
H245 H 0.31638 0.54056 0.18387 0.0
H246 H 0.34504 0.53561 0.26043 0.0
H247 H 0.39704 0.50459 0.1728 0.0
H248 H 0.46721 0.48506 0.43446 0.0
H249 H 0.44016 0.48367 0.34607 0.0
H250 H 0.37914 0.50504 0.42674 0.0
C251 C 0.34262 0.52553 0.2151 0.0
C252 C 0.393 0.50449 0.22815 0.0
C253 C 0.32627 0.52843 0.171 0.0
C254 C 0.45427 0.49431 0.44242 0.0
C255 C 0.4387 0.4935 0.39196 0.0
C256 C 0.38342 0.50507 0.37159 0.0
C257 C 0.35565 0.5098 0.20123 0.0
C258 C 0.37232 0.50646 0.25118 0.0
C259 C 0.42125 0.50487 0.4017 0.0
C260 C 0.40434 0.50414 0.34917 0.0
H261 H 0.33288 0.48991 0.05196 0.0
H262 H 0.36199 0.48503 0.12903 0.0
H263 H 0.35184 0.50742 0.34275 0.0
H264 H 0.43376 0.52749 0.55939 0.0
H265 H 0.40707 0.52652 0.47178 0.0
C266 C 0.99385 0.30543 0.24016 0.0
C267 C 1.00057 0.30436 0.16994 0.0
C268 C 0.99463 0.32409 0.27677 0.0
C269 C 0.01821 0.37798 0.27099 0.0
H270 H 0.9773 0.38497 0.42052 0.0
C271 C 1.00537 0.45372 0.43009 0.0
C272 C 0.00732 0.45188 0.50265 0.0
C273 C 1.00525 0.43649 0.38539 0.0
C274 C 0.98882 0.38318 0.37891 0.0
H275 H 0.01311 0.32199 0.08213 0.0
H276 H 0.01363 0.35493 0.14511 0.0
H277 H 0.97459 0.35396 0.34789 0.0
H278 H 0.01068 0.43063 0.58527 0.0
H279 H 0.00964 0.40045 0.50734 0.0
H280 H 0.03182 0.40782 0.30148 0.0
C281 C 0.00832 0.34125 0.17283 0.0
C282 C 0.98742 0.36534 0.33749 0.0
C283 C 0.0079 0.3224 0.13644 0.0
C284 C 0.0092 0.43253 0.52961 0.0
C285 C 0.00858 0.41527 0.48516 0.0
C286 C 0.0193 0.39607 0.31165 0.0
C287 C 1.00171 0.34235 0.2437 0.0
C288 C 1.00236 0.36222 0.28384 0.0
C289 C 1.00653 0.4171 0.41278 0.0
C290 C 1.00483 0.39863 0.36672 0.0
H291 H 0.98832 0.2917 0.2674 0.0
H292 H 0.98996 0.32405 0.33157 0.0
H293 H 0.03014 0.37616 0.2309 0.0
H294 H 1.00362 0.4684 0.40797 0.0
H295 H 1.0035 0.43821 0.32975 0.0
C296 C 0.80553 0.9557 0.93394 0.0
C297 C 0.80297 0.96529 -0.00036 0.0
C298 C 0.8245 0.95832 0.89673 0.0
C299 C 0.88081 0.97424 0.90961 0.0
H300 H 0.8759 0.98565 0.71325 0.0
C301 C 0.95203 0.99929 0.72565 0.0
C302 C 0.95106 0.99227 0.65563 0.0
C303 C 0.93492 0.99529 0.77184 0.0
C304 C 0.87764 0.98218 0.76768 0.0
H305 H 0.81856 0.98462 0.07937 0.0
H306 H 0.85196 0.98923 0.01404 0.0
H307 H 0.84463 0.9799 0.78637 0.0
H308 H 0.932 0.97463 0.5801 0.0
H309 H 0.90252 0.96722 0.66044 0.0
H310 H 0.91395 0.97642 0.89037 0.0
C311 C 0.83921 0.97961 0.99146 0.0
C312 C 0.85964 0.97894 0.80975 0.0
C313 C 0.82008 0.97702 0.02878 0.0
C314 C 0.9331 0.98046 0.63353 0.0
C315 C 0.91612 0.97635 0.67958 0.0
C316 C 0.89891 0.9774 0.86721 0.0
C317 C 0.84146 0.97064 0.92428 0.0
C318 C 0.86094 0.97472 0.88104 0.0
C319 C 0.91655 0.98412 0.74891 0.0
C320 C 0.89754 0.98119 0.79543 0.0
H321 H 0.79263 0.9465 0.91038 0.0
H322 H 0.8258 0.95088 0.84576 0.0
H323 H 0.88233 0.97096 0.96431 0.0
H324 H 0.96573 0.00842 0.7441 0.0
H325 H 0.93581 1.00157 0.82471 0.0
C326 C 0.55103 0.82047 0.98476 0.0
C327 C 0.53548 0.81172 0.03038 0.0
C328 C 0.54852 0.83888 0.95257 0.0
C329 C 0.50934 0.86774 0.88327 0.0
H330 H 0.55062 0.91431 0.891 0.0
C331 C 0.49683 0.94181 0.74048 0.0
C332 C 0.51435 0.95368 0.71397 0.0
C333 C 0.4992 0.92531 0.78328 0.0
C334 C 0.53906 0.90138 0.88702 0.0
H335 H 0.50507 0.81531 0.07819 0.0
H336 H 0.50035 0.84729 0.01977 0.0
H337 H 0.55536 0.88423 0.95841 0.0
H338 H 0.54813 0.95735 0.71062 0.0
H339 H 0.55239 0.92799 0.78185 0.0
H340 H 0.49354 0.88406 0.80918 0.0
C341 C 0.51465 0.84002 0.01014 0.0
C342 C 0.54173 0.88421 0.92639 0.0
C343 C 0.5174 0.82183 0.0438 0.0
C344 C 0.53432 0.94858 0.73075 0.0
C345 C 0.53672 0.93178 0.77226 0.0
C346 C 0.50688 0.88469 0.84265 0.0
C347 C 0.53016 0.84865 0.96394 0.0
C348 C 0.52689 0.86725 0.92492 0.0
C349 C 0.51919 0.91988 0.79948 0.0
C350 C 0.5217 0.90182 0.84376 0.0
H351 H 0.56505 0.8129 0.9733 0.0
H352 H 0.56064 0.84514 0.91684 0.0
H353 H 0.49781 0.85473 0.88047 0.0
H354 H 0.48122 0.9455 0.72919 0.0
H355 H 0.48525 0.91699 0.80421 0.0
C356 C 0.7012 0.54151 0.94996 0.0
C357 C 0.70169 0.53149 0.01365 0.0
C358 C 0.68338 0.53939 0.90943 0.0
C359 C 0.62667 0.5259 0.91232 0.0
H360 H 0.63587 0.51451 0.71444 0.0
C361 C 0.55862 0.50586 0.72027 0.0
C362 C 0.56151 0.51231 0.65097 0.0
C363 C 0.57498 0.50871 0.76752 0.0
C364 C 0.63295 0.51802 0.76927 0.0
H365 H 0.68359 0.51182 0.08609 0.0
H366 H 0.6521 0.50827 0.01519 0.0
H367 H 0.66538 0.51843 0.79172 0.0
H368 H 0.58342 0.52761 0.5777 0.0
H369 H 0.61169 0.53317 0.66017 0.0
H370 H 0.59422 0.52584 0.88959 0.0
C371 C 0.66565 0.51775 0.99671 0.0
C372 C 0.64993 0.52016 0.81373 0.0
C373 C 0.68367 0.51973 0.03719 0.0
C374 C 0.5808 0.52231 0.63059 0.0
C375 C 0.59707 0.52532 0.67787 0.0
C376 C 0.60962 0.52394 0.86758 0.0
C377 C 0.66546 0.52728 0.93172 0.0
C378 C 0.64705 0.52427 0.88569 0.0
C379 C 0.59457 0.5182 0.74666 0.0
C380 C 0.61255 0.52012 0.79523 0.0
H381 H 0.71483 0.55071 0.93061 0.0
H382 H 0.68366 0.54718 0.86024 0.0
H383 H 0.62396 0.52919 0.96746 0.0
H384 H 0.5439 0.49808 0.73745 0.0
H385 H 0.57243 0.50286 0.81969 0.0
C386 C 0.98276 0.70378 0.9018 0.0
C387 C 0.98959 0.70598 0.97083 0.0
C388 C 0.98434 0.68554 0.86392 0.0
C389 C 0.99071 0.63068 0.87917 0.0
H390 H 0.01114 0.63581 0.68727 0.0
C391 C 0.01172 0.5615 0.70272 0.0
C392 C 1.00651 0.56186 0.63194 0.0
C393 C 0.00923 0.57844 0.74719 0.0
C394 C 1.00516 0.63406 0.74045 0.0
H395 H 1.00297 0.69062 0.05534 0.0
H396 H 1.00581 0.65856 0.9888 0.0
H397 H 0.00748 0.66631 0.75946 0.0
H398 H 0.99396 0.57985 0.55266 0.0
H399 H 0.98934 0.60921 0.63002 0.0
H400 H 0.98832 0.59832 0.85968 0.0
C401 C 0.99912 0.67098 0.96414 0.0
C402 C 1.00309 0.65158 0.78192 0.0
C403 C 0.99756 0.68934 0.00215 0.0
C404 C 0.9983 0.57922 0.60684 0.0
C405 C 0.99578 0.59609 0.65114 0.0
C406 C 0.99273 0.61308 0.83745 0.0
C407 C 0.99283 0.66901 0.89415 0.0
C408 C 0.99564 0.65014 0.85154 0.0
C409 C 1.00147 0.59606 0.72164 0.0
C410 C 0.99979 0.61458 0.76731 0.0
H411 H 0.97647 0.71635 0.87656 0.0
H412 H 0.979 0.68442 0.81062 0.0
H413 H 0.98481 0.62907 0.93249 0.0
H414 H 0.01808 0.54828 0.72342 0.0
H415 H 0.01389 0.57793 0.80104 0.0
C416 C 0.01171 0.2075 0.189 0.0
C417 C 0.02978 0.21254 0.14808 0.0
C418 C 0.0091 0.18889 0.22285 0.0
C419 C 0.02519 0.13756 0.19353 0.0
H420 H 0.99552 0.12607 0.36898 0.0
C421 C 0.01363 0.05751 0.31318 0.0
C422 C 0.99501 0.05254 0.35128 0.0
C423 C 0.01766 0.07683 0.28489 0.0
C424 C 1.00357 0.12904 0.31935 0.0
H425 H 0.06024 0.20338 0.11681 0.0
H426 H 0.05588 0.17102 0.17714 0.0
H427 H 1.005 0.16139 0.33732 0.0
H428 H 0.96523 0.063 0.38449 0.0
H429 H 0.97202 0.09656 0.33351 0.0
H430 H 0.02358 0.10526 0.17514 0.0
C431 C 0.0435 0.18115 0.18152 0.0
C432 C 0.00912 0.14926 0.30156 0.0
C433 C 0.04609 0.19971 0.14764 0.0
C434 C 0.97975 0.06651 0.35553 0.0
C435 C 0.98375 0.08579 0.32715 0.0
C436 C 0.01961 0.11736 0.21126 0.0
C437 C 0.02455 0.1751 0.21637 0.0
C438 C 0.01995 0.15373 0.23838 0.0
C439 C 1.00309 0.09144 0.29412 0.0
C440 C 0.00864 0.11288 0.27417 0.0
H441 H 0.99883 0.21704 0.18963 0.0
H442 H 0.99431 0.18465 0.24929 0.0
H443 H 0.03312 0.14052 0.14369 0.0
H444 H 0.02571 0.04704 0.30953 0.0
H445 H 0.03272 0.08073 0.25975 0.0
C446 C 0.29183 0.99529 0.18584 0.0
C447 C 0.29446 0.01459 0.15571 0.0
C448 C 0.30631 0.98963 0.23324 0.0
C449 C 0.33822 0.98406 0.34773 0.0
H450 H 0.39421 0.99881 0.27471 0.0
C451 C 0.41432 0.97933 0.49902 0.0
C452 C 0.43231 0.97504 0.46006 0.0
C453 C 0.39542 0.98036 0.46572 0.0
C454 C 0.37869 0.9943 0.29533 0.0
H455 H 0.31276 0.04381 0.15634 0.0
H456 H 0.33784 0.03412 0.23997 0.0
H457 H 0.36453 0.00988 0.2155 0.0
H458 H 0.44439 0.96665 0.35752 0.0
H459 H 0.41127 0.96814 0.29931 0.0
H460 H 0.35266 0.9684 0.42781 0.0
C461 C 0.32496 0.02317 0.22582 0.0
C462 C 0.36169 1.00097 0.2621 0.0
C463 C 0.3106 0.02877 0.17837 0.0
C464 C 0.43076 0.97015 0.38851 0.0
C465 C 0.41185 0.97112 0.35525 0.0
C466 C 0.35535 0.97745 0.38147 0.0
C467 C 0.32354 1.00324 0.25103 0.0
C468 C 0.3413 0.99611 0.2882 0.0
C469 C 0.39424 0.9771 0.39299 0.0
C470 C 0.37576 0.98255 0.35551 0.0
H471 H 0.27953 0.98408 0.16878 0.0
H472 H 0.30486 0.97418 0.2519 0.0
H473 H 0.32263 0.98005 0.36871 0.0
H474 H 0.41512 0.98313 0.55443 0.0
H475 H 0.38216 0.98509 0.49614 0.0
C476 C 0.48431 0.29626 0.19003 0.0
C477 C 0.46817 0.29211 0.14241 0.0
C478 C 0.48601 0.31466 0.22831 0.0
C479 C 0.47431 0.36647 0.19696 0.0
H480 H 0.50101 0.3784 0.3744 0.0
C481 C 0.49588 0.44816 0.30904 0.0
C482 C 0.5145 0.45124 0.34597 0.0
C483 C 0.48898 0.42871 0.28355 0.0
C484 C 0.49372 0.37526 0.32439 0.0
H485 H 0.43953 0.30234 0.10482 0.0
H486 H 0.44224 0.33438 0.17283 0.0
H487 H 0.48802 0.34337 0.34424 0.0
H488 H 0.54147 0.43698 0.37979 0.0
H489 H 0.52969 0.40311 0.3338 0.0
H490 H 0.48038 0.39827 0.17649 0.0
C491 C 0.45392 0.32374 0.17903 0.0
C492 C 0.48614 0.35525 0.30746 0.0
C493 C 0.45226 0.30535 0.14066 0.0
C494 C 0.52702 0.435 0.35163 0.0
C495 C 0.52013 0.41557 0.32623 0.0
C496 C 0.48186 0.38647 0.21393 0.0
C497 C 0.47153 0.32912 0.21967 0.0
C498 C 0.47666 0.35059 0.24305 0.0
C499 C 0.50064 0.41207 0.29461 0.0
C500 C 0.492 0.391 0.27721 0.0
H501 H 0.49685 0.28637 0.19212 0.0
H502 H 0.49976 0.31832 0.25922 0.0
H503 H 0.46747 0.36334 0.14623 0.0
H504 H 0.48587 0.46042 0.30432 0.0
H505 H 0.47393 0.42648 0.2592 0.0
C506 C 0.21048 0.47677 0.14522 0.0
C507 C 0.2255 0.49315 0.13322 0.0
C508 C 0.19274 0.47962 0.18648 0.0
C509 C 0.15971 0.52056 0.21925 0.0
H510 H 0.12669 0.48067 0.33057 0.0
C511 C 0.07709 0.53191 0.3336 0.0
C512 C 0.06286 0.5145 0.33695 0.0
C513 C 0.09759 0.53024 0.30983 0.0
C514 C 0.13567 0.49185 0.29888 0.0
H515 H 0.23507 0.52469 0.16003 0.0
H516 H 0.20404 0.5297 0.23313 0.0
H517 H 0.16313 0.4758 0.302 0.0
H518 H 0.05814 0.48212 0.31228 0.0
H519 H 0.09378 0.4793 0.26878 0.0
H520 H 0.13213 0.53634 0.21447 0.0
C521 C 0.20586 0.51474 0.21003 0.0
C522 C 0.15656 0.48915 0.2832 0.0
C523 C 0.2237 0.51182 0.16905 0.0
C524 C 0.06886 0.49577 0.31042 0.0
C525 C 0.08932 0.4941 0.28651 0.0
C526 C 0.1388 0.52324 0.23481 0.0
C527 C 0.18972 0.49897 0.21592 0.0
C528 C 0.1687 0.50331 0.24227 0.0
C529 C 0.10411 0.51115 0.28884 0.0
C530 C 0.12647 0.50871 0.27368 0.0
H531 H 0.21158 0.46227 0.11771 0.0
H532 H 0.18057 0.46719 0.18985 0.0
H533 H 0.16855 0.53154 0.1864 0.0
H534 H 0.07285 0.54653 0.35403 0.0
H535 H 0.10861 0.54366 0.3121 0.0
C536 C 0.01341 0.80447 0.97479 0.0
C537 C 0.02675 0.80045 0.02853 0.0
C538 C 0.01566 0.82328 0.94224 0.0
C539 C 0.03528 0.87629 0.98554 0.0
H540 H 0.01572 0.88565 0.80032 0.0
C541 C 0.03148 0.95551 0.85575 0.0
C542 C 0.01263 0.95762 0.82239 0.0
C543 C 0.03505 0.93692 0.88511 0.0
C544 C 0.02119 0.88321 0.85225 0.0
H545 H 0.05416 0.81189 0.08547 0.0
H546 H 0.05867 0.84449 0.02658 0.0
H547 H 0.02146 0.85112 0.83302 0.0
H548 H 0.98209 0.94274 0.79891 0.0
H549 H 0.98838 0.91039 0.84979 0.0
H550 H 0.0351 0.9086 0.00396 0.0
C551 C 0.04602 0.83346 0.01121 0.0
C552 C 0.02447 0.86345 0.87103 0.0
C553 C 0.04363 0.81471 0.04428 0.0
C554 C 0.9968 0.94151 0.824 0.0
C555 C 1.00045 0.92295 0.8525 0.0
C556 C 0.03228 0.89613 0.96627 0.0
C557 C 0.03143 0.83836 0.96234 0.0
C558 C 0.03104 0.85964 0.93854 0.0
C559 C 0.01988 0.92025 0.88073 0.0
C560 C 0.02468 0.89965 0.90013 0.0
H561 H 1.00011 0.79385 0.96234 0.0
H562 H 1.004 0.82648 0.90529 0.0
H563 H 0.04004 0.87396 0.03836 0.0
H564 H 0.04395 0.96769 0.85499 0.0
H565 H 0.05011 0.93519 0.90705 0.0
C566 C 0.7177 0.00423 0.94062 0.0
C567 C 0.72482 0.01578 -0.00076 0.0
C568 C 0.70462 0.0124 0.89373 0.0
C569 C 0.66583 0.0501 0.90051 0.0
H570 H 0.65612 0.02942 0.71147 0.0
C571 C 0.5989 0.04499 0.67323 0.0
C572 C 0.58148 0.03982 0.71703 0.0
C573 C 0.6189 0.04769 0.70071 0.0
C574 C 0.65876 0.03574 0.76368 0.0
H575 H 0.7258 0.04535 0.0518 0.0
H576 H 0.7038 0.06008 0.96808 0.0
H577 H 0.689 0.02466 0.76609 0.0
H578 H 0.57101 0.03416 0.82383 0.0
H579 H 0.60579 0.03848 0.87178 0.0
H580 H 0.63562 0.06113 0.89824 0.0
C581 C 0.70759 0.0445 0.95936 0.0
C582 C 0.67754 0.03277 0.79536 0.0
C583 C 0.72035 0.03619 0.00689 0.0
C584 C 0.5842 0.03823 0.78903 0.0
C585 C 0.60416 0.04085 0.81648 0.0
C586 C 0.64719 0.05326 0.86861 0.0
C587 C 0.69865 0.03236 0.90434 0.0
C588 C 0.68096 0.0392 0.86518 0.0
C589 C 0.6218 0.04521 0.77247 0.0
C590 C 0.64307 0.04537 0.80094 0.0
H591 H 0.72084 0.98838 0.93425 0.0
H592 H 0.69795 1.00248 0.85253 0.0
H593 H 0.6677 0.05516 0.95449 0.0
H594 H 0.59718 0.04631 0.61739 0.0
H595 H 0.63211 0.05129 0.66555 0.0
C596 C 0.48053 0.70436 0.03076 0.0
C597 C 0.49982 0.71599 0.02528 0.0
C598 C 0.47714 0.68598 0.99294 0.0
C599 C 0.50126 0.65155 0.86124 0.0
H600 H 0.47891 0.60948 0.98781 0.0
C601 C 0.51931 0.56883 0.81927 0.0
C602 C 0.50191 0.55438 0.81703 0.0
C603 C 0.51726 0.5885 0.84571 0.0
C604 C 0.485 0.62107 0.95171 0.0
H605 H 0.52998 0.71876 0.97217 0.0
H606 H 0.52433 0.68661 0.90665 0.0
H607 H 0.47672 0.64526 0.02063 0.0
H608 H 0.4692 0.54851 0.84626 0.0
H609 H 0.46573 0.58295 0.89433 0.0
H610 H 0.5103 0.62721 0.79378 0.0
C611 C 0.5116 0.69163 0.939 0.0
C612 C 0.48359 0.64159 0.97004 0.0
C613 C 0.51486 0.71014 0.97624 0.0
C614 C 0.48288 0.55935 0.84767 0.0
C615 C 0.48086 0.57907 0.87469 0.0
C616 C 0.50285 0.63104 0.8433 0.0
C617 C 0.49316 0.6788 0.95002 0.0
C618 C 0.49202 0.65711 0.92554 0.0
C619 C 0.49782 0.59403 0.87097 0.0
C620 C 0.49509 0.61564 0.88897 0.0
H621 H 0.46878 0.70861 0.06877 0.0
H622 H 0.46255 0.67673 0.00114 0.0
H623 H 0.50762 0.66306 0.82529 0.0
H624 H 0.5342 0.56536 0.79624 0.0
H625 H 0.5307 0.59965 0.84382 0.0
C626 C 0.79584 0.51019 0.96512 0.0
C627 C 0.78889 0.49395 0.00824 0.0
C628 C 0.81446 0.50959 0.92627 0.0
C629 C 0.85674 0.47849 0.86735 0.0
H630 H 0.89277 0.5251 0.93331 0.0
C631 C 0.94559 0.48185 0.82211 0.0
C632 C 0.9552 0.50056 0.79945 0.0
C633 C 0.92518 0.48063 0.84959 0.0
C634 C 0.88293 0.51212 0.91352 0.0
H635 H 0.79421 0.46342 0.03818 0.0
H636 H 0.82658 0.46215 0.96898 0.0
H637 H 0.85557 0.52323 0.96104 0.0
H638 H 0.95176 0.53287 0.79189 0.0
H639 H 0.91621 0.53075 0.83839 0.0
H640 H 0.88405 0.46748 0.81896 0.0
C641 C 0.81783 0.4754 0.96566 0.0
C642 C 0.8616 0.5111 0.92919 0.0
C643 C 0.79932 0.47608 0.00507 0.0
C644 C 0.94473 0.51825 0.80929 0.0
C645 C 0.9243 0.51701 0.83601 0.0
C646 C 0.8781 0.47964 0.85075 0.0
C647 C 0.82617 0.49264 0.92956 0.0
C648 C 0.84832 0.49428 0.90639 0.0
C649 C 0.91403 0.49807 0.8543 0.0
C650 C 0.89146 0.49645 0.87394 0.0
H651 H 0.78812 0.52418 0.96714 0.0
H652 H 0.8205 0.52296 0.89799 0.0
H653 H 0.84679 0.46532 0.84955 0.0
H654 H 0.95338 0.46799 0.81511 0.0
H655 H 0.91792 0.4659 0.86494 0.0
C656 C 0.04763 0.21907 0.87151 0.0
C657 C 0.02891 0.2258 0.89898 0.0
C658 C 0.0473 0.20222 0.82529 0.0
C659 C 0.04085 0.15672 0.79968 0.0
H660 H 0.99916 0.13849 0.66392 0.0
C661 C 0.01995 0.07126 0.73182 0.0
C662 C 0.01633 0.0658 0.66135 0.0
C663 C 0.02255 0.09184 0.75332 0.0
C664 C 0.01104 0.14339 0.7013 0.0
H665 H 0.99527 0.22169 0.89424 0.0
H666 H 0.99457 0.19245 0.81301 0.0
H667 H 1.00245 0.17415 0.70428 0.0
H668 H 0.01279 0.07792 0.55812 0.0
H669 H 0.01743 0.11352 0.59558 0.0
H670 H 0.04935 0.12601 0.79726 0.0
C671 C 0.00955 0.20011 0.82666 0.0
C672 C 0.01284 0.16381 0.72468 0.0
C673 C 0.00992 0.21705 0.87271 0.0
C674 C 0.01549 0.08144 0.61296 0.0
C675 C 0.01802 0.10194 0.63444 0.0
C676 C 0.039 0.13633 0.77653 0.0
C677 C 0.02821 0.19172 0.8061 0.0
C678 C 0.02766 0.1707 0.77464 0.0
C679 C 0.02152 0.10743 0.70488 0.0
C680 C 0.02393 0.12934 0.72764 0.0
H681 H 0.06246 0.22541 0.89177 0.0
H682 H 0.06197 0.19646 0.80902 0.0
H683 H 0.05218 0.16133 0.83919 0.0
H684 H 0.02064 0.05967 0.77055 0.0
H685 H 0.02499 0.09554 0.80818 0.0
C686 C 0.30366 0.0127 0.86875 0.0
C687 C 0.29714 0.02981 0.90576 0.0
C688 C 0.322 0.01428 0.82734 0.0
C689 C 0.37217 0.04667 0.82039 0.0
H690 H 0.38487 0.00966 0.66709 0.0
C691 C 0.45532 0.04588 0.69465 0.0
C692 C 0.46261 0.0265 0.68474 0.0
C693 C 0.43429 0.04786 0.71239 0.0
C694 C 0.38156 0.02008 0.70998 0.0
H695 H 0.30381 0.06219 0.92519 0.0
H696 H 0.33514 0.06533 0.84974 0.0
H697 H 0.34876 0.01107 0.70832 0.0
H698 H 0.45376 0.99402 0.6881 0.0
H699 H 0.41704 0.99743 0.71709 0.0
H700 H 0.40501 0.05555 0.82218 0.0
C701 C 0.32651 0.05052 0.85392 0.0
C702 C 0.36084 0.02088 0.73376 0.0
C703 C 0.30829 0.04886 0.896 0.0
C704 C 0.44849 0.00916 0.69331 0.0
C705 C 0.42744 0.01112 0.71012 0.0
C706 C 0.39283 0.04601 0.79613 0.0
C707 C 0.33422 0.03306 0.8219 0.0
C708 C 0.35586 0.03392 0.79026 0.0
C709 C 0.42007 0.03049 0.72015 0.0
C710 C 0.39785 0.03243 0.74154 0.0
H711 H 0.29565 0.99775 0.87708 0.0
H712 H 0.32738 1.00043 0.80432 0.0
H713 H 0.3692 0.05661 0.8649 0.0
H714 H 0.46587 0.05952 0.68855 0.0
H715 H 0.42911 0.06301 0.71957 0.0
C716 C 0.46367 0.2907 0.86051 0.0
C717 C 0.48132 0.28411 0.89172 0.0
C718 C 0.46545 0.30793 0.81886 0.0
C719 C 0.47152 0.3536 0.79945 0.0
H720 H 0.51713 0.37162 0.67313 0.0
C721 C 0.49034 0.43861 0.7295 0.0
C722 C 0.49572 0.44285 0.6593 0.0
C723 C 0.48823 0.41845 0.75241 0.0
C724 C 0.5042 0.36678 0.70798 0.0
H725 H 0.51484 0.28937 0.89924 0.0
H726 H 0.5181 0.31923 0.82529 0.0
H727 H 0.5141 0.33661 0.71432 0.0
H728 H 0.503 0.42892 0.5582 0.0
H729 H 0.4993 0.39403 0.59818 0.0
H730 H 0.46169 0.38374 0.79373 0.0
C731 C 0.50286 0.31109 0.83269 0.0
C732 C 0.50254 0.34673 0.73188 0.0
C733 C 0.50105 0.2938 0.87443 0.0
C734 C 0.49882 0.42637 0.61269 0.0
C735 C 0.49686 0.40628 0.63568 0.0
C736 C 0.47327 0.37365 0.77604 0.0
C737 C 0.48493 0.31902 0.80768 0.0
C738 C 0.48617 0.33987 0.778 0.0
C739 C 0.4916 0.40203 0.70585 0.0
C740 C 0.48966 0.38055 0.7302 0.0
H741 H 0.44825 0.28372 0.87403 0.0
H742 H 0.45137 0.31334 0.79917 0.0
H743 H 0.45892 0.34902 0.83595 0.0
H744 H 0.48789 0.45086 0.76696 0.0
H745 H 0.48433 0.41574 0.80701 0.0
C746 C 0.22571 0.50889 0.85095 0.0
C747 C 0.23087 0.49048 0.87839 0.0
C748 C 0.20789 0.50937 0.8105 0.0
C749 C 0.15634 0.48052 0.79671 0.0
H750 H 0.14768 0.51838 0.65105 0.0
C751 C 0.07358 0.49935 0.72193 0.0
C752 C 0.06976 0.50125 0.65047 0.0
C753 C 0.09388 0.49761 0.74474 0.0
C754 C 0.14983 0.5076 0.69137 0.0
H755 H 0.22249 0.45797 0.88052 0.0
H756 H 0.19199 0.45857 0.80761 0.0
H757 H 0.18296 0.51529 0.69134 0.0
H758 H 0.08455 0.50285 0.54703 0.0
H759 H 0.11967 0.49973 0.58672 0.0
H760 H 0.1233 0.4728 0.79692 0.0
C761 C 0.20135 0.47275 0.81841 0.0
C762 C 0.17008 0.50593 0.7148 0.0
C763 C 0.21909 0.47231 0.85892 0.0
C764 C 0.08679 0.50143 0.60254 0.0
C765 C 0.10705 0.49977 0.62534 0.0
C766 C 0.13613 0.48224 0.77355 0.0
C767 C 0.19487 0.49141 0.79689 0.0
C768 C 0.17361 0.49239 0.76795 0.0
C769 C 0.1109 0.49781 0.69672 0.0
C770 C 0.13255 0.49587 0.7208 0.0
H771 H 0.23417 0.52317 0.86674 0.0
H772 H 0.20341 0.52403 0.79509 0.0
H773 H 0.15832 0.47019 0.83861 0.0
H774 H 0.0609 0.49921 0.76038 0.0
H775 H 0.09626 0.49637 0.80023 0.0
C776 C 0.97906 0.79189 0.26311 0.0
C777 C 0.99891 0.78457 0.26104 0.0
C778 C 0.975 0.80849 0.30697 0.0
C779 C 0.99243 0.84349 0.44991 0.0
H780 H 0.98619 0.88632 0.31895 0.0
C781 C 0.0097 0.9283 0.52951 0.0
C782 C 0.99926 0.94313 0.49681 0.0
C783 C 0.00715 0.90789 0.50696 0.0
C784 C 0.9874 0.87465 0.35697 0.0
H785 H 0.02921 0.78716 0.30822 0.0
H786 H 0.02177 0.81555 0.38766 0.0
H787 H 0.98395 0.85101 0.27794 0.0
H788 H 0.97758 0.94825 0.416 0.0
H789 H 0.9722 0.91252 0.37862 0.0
H790 H 0.9955 0.86693 0.52943 0.0
C791 C 0.00945 0.80863 0.35493 0.0
C792 C 0.98617 0.85435 0.33318 0.0
C793 C 0.01366 0.79227 0.31004 0.0
C794 C 0.98606 0.93715 0.44141 0.0
C795 C 0.98306 0.91661 0.41993 0.0
C796 C 0.99315 0.8638 0.47424 0.0
C797 C 0.9906 0.81769 0.35035 0.0
C798 C 0.98902 0.83862 0.3791 0.0
C799 C 0.99364 0.90164 0.45219 0.0
C800 C 0.99111 0.87977 0.42779 0.0
H801 H 0.96762 0.78648 0.22478 0.0
H802 H 0.96034 0.81522 0.3027 0.0
H803 H 0.99473 0.8316 0.48621 0.0
H804 H 0.0201 0.93253 0.57215 0.0
H805 H 0.01606 0.89711 0.53213 0.0
C806 C 0.70675 0.97109 0.26161 0.0
C807 C 0.7141 0.99063 0.23924 0.0
C808 C 0.68921 0.96847 0.30683 0.0
C809 C 0.64324 0.96618 0.35003 0.0
H810 H 0.62682 0.00871 0.4786 0.0
C811 C 0.55665 0.97398 0.42536 0.0
C812 C 0.5516 0.98311 0.48994 0.0
C813 C 0.57756 0.97285 0.40437 0.0
C814 C 0.63112 0.99643 0.4439 0.0
H815 H 0.71006 0.02284 0.25161 0.0
H816 H 0.67952 0.0184 0.3284 0.0
H817 H 0.6624 0.01008 0.43301 0.0
H818 H 0.56413 0.99655 0.58584 0.0
H819 H 0.60057 0.9942 0.5508 0.0
H820 H 0.61211 0.9522 0.36251 0.0
C821 C 0.68714 0.00498 0.31219 0.0
C822 C 0.65159 0.99739 0.41674 0.0
C823 C 0.70467 0.00757 0.26763 0.0
C824 C 0.56771 0.99018 0.53467 0.0
C825 C 0.58861 0.98875 0.51441 0.0
C826 C 0.62283 0.96504 0.37803 0.0
C827 C 0.67862 0.98534 0.33043 0.0
C828 C 0.65783 0.98261 0.3678 0.0
C829 C 0.59391 0.98042 0.44828 0.0
C830 C 0.61627 0.98044 0.42396 0.0
H831 H 0.71362 0.95773 0.24041 0.0
H832 H 0.68346 0.95314 0.32096 0.0
H833 H 0.64724 0.95454 0.31216 0.0
H834 H 0.54444 0.96839 0.38998 0.0
H835 H 0.58082 0.9666 0.3527 0.0
C836 C 0.50813 0.71543 0.31392 0.0
C837 C 0.52372 0.7219 0.26457 0.0
C838 C 0.51016 0.69817 0.35368 0.0
C839 C 0.52906 0.64935 0.32447 0.0
H840 H 0.52095 0.64032 0.52292 0.0
C841 C 0.52866 0.56818 0.4337 0.0
C842 C 0.51618 0.56336 0.49328 0.0
C843 C 0.53154 0.58831 0.41078 0.0
C844 C 0.52288 0.64242 0.46714 0.0
H845 H 0.55402 0.71616 0.22054 0.0
H846 H 0.5575 0.68595 0.2895 0.0
H847 H 0.52282 0.675 0.47957 0.0
H848 H 0.49648 0.57577 0.57458 0.0
H849 H 0.5004 0.61038 0.53275 0.0
H850 H 0.52781 0.61703 0.31037 0.0
C851 C 0.54391 0.69436 0.29826 0.0
C852 C 0.52418 0.66238 0.44262 0.0
C853 C 0.54206 0.71181 0.25963 0.0
C854 C 0.50638 0.57902 0.5288 0.0
C855 C 0.50883 0.59901 0.50503 0.0
C856 C 0.52727 0.6294 0.34861 0.0
C857 C 0.52758 0.68689 0.34336 0.0
C858 C 0.52733 0.66602 0.37105 0.0
C859 C 0.52158 0.60407 0.44587 0.0
C860 C 0.5241 0.62554 0.42039 0.0
H861 H 0.4936 0.72258 0.31708 0.0
H862 H 0.49729 0.69263 0.38777 0.0
H863 H 0.53112 0.65172 0.26878 0.0
H864 H 0.5366 0.55648 0.40569 0.0
H865 H 0.54183 0.59146 0.36598 0.0
C866 C 0.79121 0.48865 0.28774 0.0
C867 C 0.78431 0.50633 0.26 0.0
C868 C 0.80917 0.48978 0.32777 0.0
C869 C 0.84967 0.52451 0.41697 0.0
H870 H 0.8868 0.48531 0.34356 0.0
C871 C 0.9312 0.51546 0.53057 0.0
C872 C 0.94772 0.51228 0.48281 0.0
C873 C 0.91073 0.51565 0.50777 0.0
C874 C 0.8767 0.49644 0.3644 0.0
H875 H 0.78974 0.53919 0.25729 0.0
H876 H 0.82091 0.5413 0.32849 0.0
H877 H 0.85104 0.48365 0.30398 0.0
H878 H 0.95556 0.50715 0.37317 0.0
H879 H 0.91979 0.5074 0.33337 0.0
H880 H 0.87559 0.53744 0.4767 0.0
C881 C 0.81246 0.52653 0.31949 0.0
C882 C 0.85605 0.49531 0.3425 0.0
C883 C 0.79444 0.52537 0.27932 0.0
C884 C 0.94326 0.50962 0.41142 0.0
C885 C 0.92272 0.50963 0.38867 0.0
C886 C 0.87033 0.52552 0.43944 0.0
C887 C 0.82068 0.50864 0.3408 0.0
C888 C 0.84225 0.50934 0.3683 0.0
C889 C 0.90616 0.51249 0.43666 0.0
C890 C 0.88415 0.51156 0.41304 0.0
H891 H 0.78388 0.47377 0.27273 0.0
H892 H 0.81481 0.47575 0.34465 0.0
H893 H 0.83949 0.53557 0.43782 0.0
H894 H 0.934 0.51762 0.58598 0.0
H895 H 0.89838 0.51772 0.54623 0.0
loop_
_geom_bond_atom_site_label_1
_geom_bond_atom_site_label_2
_geom_bond_distance
_geom_bond_site_symmetry_2
_ccdc_geom_bond_type
H0 C5 0.930 . S
H1 C8 0.930 1_556 S
H2 C10 0.930 . S
H3 C4 1.016 1_556 S
C4 H3 1.016 1_554 S
C4 N11 1.286 . S
C5 H0 0.930 . S
C5 C6 1.397 . S
C5 C7 1.361 . S
C6 C5 1.397 . S
C6 C10 1.390 . S
C7 C5 1.361 . S
C7 C8 1.393 . S
C7 N11 1.413 . S
C8 H1 0.930 1_554 S
C8 C7 1.393 . S
C8 C9 1.399 . S
C9 C8 1.399 . S
C9 C10 1.381 . S
C10 H2 0.930 . S
C10 C6 1.390 . S
C10 C9 1.381 . S
N11 C4 1.286 . S
N11 C7 1.413 . S
H12 C17 0.930 . S
H13 C20 0.930 . S
H14 C22 0.930 . S
H15 C16 1.032 . S
C16 H15 1.032 . S
C16 N23 1.269 1_656 S
C17 H12 0.930 . S
C17 C18 1.411 . S
C17 C19 1.361 . S
C18 C17 1.411 . S
C18 C22 1.381 1_455 S
C19 C17 1.361 . S
C19 C20 1.393 1_554 S
C19 N23 1.413 . S
C20 H13 0.930 . S
C20 C19 1.393 1_556 S
C20 C21 1.403 . S
C21 C20 1.403 . S
C21 C22 1.379 1_456 S
C22 H14 0.930 . S
C22 C18 1.381 1_655 S
C22 C21 1.379 1_654 S
N23 C16 1.269 1_454 S
N23 C19 1.413 . S
H24 C29 0.930 . S
H25 C32 0.930 . S
H26 C34 0.930 . S
H27 C28 1.016 . S
C28 H27 1.016 . S
C28 N35 1.286 1_556 S
C29 H24 0.930 . S
C29 C30 1.397 . S
C29 C31 1.361 . S
C30 C29 1.397 . S
C30 C34 1.390 . S
C31 C29 1.361 . S
C31 C32 1.393 1_554 S
C31 N35 1.413 . S
C32 H25 0.930 . S
C32 C31 1.393 1_556 S
C32 C33 1.399 . S
C33 C32 1.399 . S
C33 C34 1.381 1_556 S
C34 H26 0.930 . S
C34 C30 1.390 . S
C34 C33 1.381 1_554 S
N35 C28 1.286 1_554 S
N35 C31 1.413 . S
H36 C41 0.930 . S
H37 C44 0.930 . S
H38 C46 0.930 . S
H39 C40 1.016 . S
C40 H39 1.016 . S
C40 N47 1.286 . S
C41 H36 0.930 . S
C41 C42 1.397 . S
C41 C43 1.361 . S
C42 C41 1.397 . S
C42 C46 1.390 . S
C43 C41 1.361 . S
C43 C44 1.393 . S
C43 N47 1.413 . S
C44 H37 0.930 . S
C44 C43 1.393 . S
C44 C45 1.399 . S
C45 C44 1.399 . S
C45 C46 1.381 . S
C46 H38 0.930 . S
C46 C42 1.390 . S
C46 C45 1.381 . S
N47 C40 1.286 . S
N47 C43 1.413 . S
H48 C53 0.930 1_556 S
H49 C56 0.930 . S
H50 C58 0.930 . S
H51 C52 1.016 . S
C52 H51 1.016 . S
C52 N59 1.286 . S
C53 H48 0.930 1_554 S
C53 C54 1.397 . S
C53 C55 1.361 . S
C54 C53 1.397 . S
C54 C58 1.390 . S
C55 C53 1.361 . S
C55 C56 1.393 . S
C55 N59 1.413 . S
C56 H49 0.930 . S
C56 C55 1.393 . S
C56 C57 1.399 . S
C57 C56 1.399 . S
C57 C58 1.381 . S
C58 H50 0.930 . S
C58 C54 1.390 . S
C58 C57 1.381 . S
N59 C52 1.286 . S
N59 C55 1.413 . S
H60 C65 0.930 . S
H61 C68 0.930 . S
H62 C70 0.930 . S
H63 C64 1.023 . S
C64 H63 1.023 . S
C64 N71 1.273 1_655 S
C65 H60 0.930 . S
C65 C66 1.397 . S
C65 C67 1.361 . S
C66 C65 1.397 . S
C66 C70 1.390 1_455 S
C67 C65 1.361 . S
C67 C68 1.393 . S
C67 N71 1.413 . S
C68 H61 0.930 . S
C68 C67 1.393 . S
C68 C69 1.401 . S
C69 C68 1.401 . S
C69 C70 1.378 1_455 S
C70 H62 0.930 . S
C70 C66 1.390 1_655 S
C70 C69 1.378 1_655 S
N71 C64 1.273 1_455 S
N71 C67 1.413 . S
H72 C77 0.930 . S
H73 C80 0.930 . S
H74 C82 0.930 . S
H75 C76 1.016 . S
C76 H75 1.016 . S
C76 N83 1.286 . S
C77 H72 0.930 . S
C77 C78 1.397 . S
C77 C79 1.361 . S
C78 C77 1.397 . S
C78 C82 1.390 . S
C79 C77 1.361 . S
C79 C80 1.393 . S
C79 N83 1.413 . S
C80 H73 0.930 . S
C80 C79 1.393 . S
C80 C81 1.399 . S
C81 C80 1.399 . S
C81 C82 1.381 . S
C82 H74 0.930 . S
C82 C78 1.390 . S
C82 C81 1.381 . S
N83 C76 1.286 . S
N83 C79 1.413 . S
H84 C89 0.930 . S
H85 C92 0.930 . S
H86 C94 0.930 . S
H87 C88 1.016 . S
C88 H87 1.016 . S
C88 N95 1.286 . S
C89 H84 0.930 . S
C89 C90 1.397 . S
C89 C91 1.361 1_556 S
C90 C89 1.397 . S
C90 C94 1.390 1_556 S
C91 C89 1.361 1_554 S
C91 C92 1.393 . S
C91 N95 1.413 . S
C92 H85 0.930 . S
C92 C91 1.393 . S
C92 C93 1.399 . S
C93 C92 1.399 . S
C93 C94 1.381 . S
C94 H86 0.930 . S
C94 C90 1.390 1_554 S
C94 C93 1.381 . S
N95 C88 1.286 . S
N95 C91 1.413 . S
Dy96 O100 2.398 . S
Dy96 O101 2.491 1_455 S
Dy96 O102 2.403 . S
Dy96 O103 2.664 1_565 S
Dy96 O107 2.326 . S
Dy96 O111 2.310 1_455 S
Dy96 O112 2.351 1_565 S
C97 O108 1.185 . S
C97 O109 1.355 1_655 S
C98 O100 1.185 . S
C98 O101 1.355 1_455 S
Dy99 O103 2.310 1_655 S
Dy99 O106 2.351 1_545 S
Dy99 O108 2.398 . S
Dy99 O109 2.491 1_655 S
Dy99 O110 2.403 . S
Dy99 O111 2.664 1_545 S
Dy99 O113 2.326 . S
O100 Dy96 2.398 . S
O100 C98 1.185 . S
O101 Dy96 2.491 1_655 S
O101 C98 1.355 1_655 S
O102 Dy96 2.403 . S
O102 C104 1.254 1_565 S
O103 Dy96 2.664 1_545 S
O103 Dy99 2.310 1_455 S
O103 C104 1.268 . S
C104 O102 1.254 1_545 S
C104 O103 1.268 . S
C105 O110 1.254 1_565 S
C105 O111 1.268 . S
O106 Dy99 2.351 1_565 S
O106 C114 1.249 . S
O107 Dy96 2.326 . S
O107 C114 1.267 1_455 S
O108 C97 1.185 . S
O108 Dy99 2.398 . S
O109 C97 1.355 1_455 S
O109 Dy99 2.491 1_455 S
O110 Dy99 2.403 . S
O110 C105 1.254 1_545 S
O111 Dy96 2.310 1_655 S
O111 Dy99 2.664 1_565 S
O111 C105 1.268 . S
O112 Dy96 2.351 1_545 S
O112 C115 1.249 . S
O113 Dy99 2.326 . S
O113 C115 1.267 1_655 S
C114 O106 1.249 . S
C114 O107 1.267 1_655 S
C115 O112 1.249 . S
C115 O113 1.267 1_455 S
Dy116 O120 2.398 . S
Dy116 O121 2.491 1_565 S
Dy116 O122 2.403 . S
Dy116 O123 2.664 . S
Dy116 O127 2.326 1_565 S
Dy116 O131 2.310 1_565 S
Dy116 O132 2.351 . S
C117 O128 1.186 1_565 S
C117 O129 1.355 . S
C118 O120 1.185 1_545 S
C118 O121 1.355 . S
Dy119 O123 2.310 1_545 S
Dy119 O126 2.351 . S
Dy119 O128 2.398 . S
Dy119 O129 2.491 1_545 S
Dy119 O130 2.403 . S
Dy119 O131 2.664 . S
Dy119 O133 2.326 1_545 S
O120 Dy116 2.398 . S
O120 C118 1.185 1_565 S
O121 Dy116 2.491 1_545 S
O121 C118 1.355 . S
O122 Dy116 2.403 . S
O122 C124 1.254 . S
O123 Dy116 2.664 . S
O123 Dy119 2.310 1_565 S
O123 C124 1.268 . S
C124 O122 1.254 . S
C124 O123 1.268 . S
C125 O130 1.254 . S
C125 O131 1.268 . S
O126 Dy119 2.351 . S
O126 C134 1.249 . S
O127 Dy116 2.326 1_545 S
O127 C134 1.267 . S
O128 C117 1.186 1_545 S
O128 Dy119 2.398 . S
O129 C117 1.355 . S
O129 Dy119 2.491 1_565 S
O130 Dy119 2.403 . S
O130 C125 1.254 . S
O131 Dy116 2.310 1_545 S
O131 Dy119 2.664 . S
O131 C125 1.268 . S
O132 Dy116 2.351 . S
O132 C135 1.249 . S
O133 Dy119 2.326 1_565 S
O133 C135 1.267 . S
C134 O126 1.249 . S
C134 O127 1.267 . S
C135 O132 1.249 . S
C135 O133 1.267 . S
Dy136 O140 2.398 . S
Dy136 O141 2.491 . S
Dy136 O142 2.403 . S
Dy136 O143 2.664 . S
Dy136 O147 2.326 . S
Dy136 O151 2.310 . S
Dy136 O152 2.351 . S
C137 O148 1.185 . S
C137 O149 1.355 . S
C138 O140 1.185 . S
C138 O141 1.355 . S
Dy139 O143 2.310 . S
Dy139 O146 2.351 . S
Dy139 O148 2.398 . S
Dy139 O149 2.491 . S
Dy139 O150 2.403 . S
Dy139 O151 2.664 . S
Dy139 O153 2.326 . S
O140 Dy136 2.398 . S
O140 C138 1.185 . S
O141 Dy136 2.491 . S
O141 C138 1.355 . S
O142 Dy136 2.403 . S
O142 C144 1.254 . S
O143 Dy136 2.664 . S
O143 Dy139 2.310 . S
O143 C144 1.268 . S
C144 O142 1.254 . S
C144 O143 1.268 . S
C145 O150 1.254 . S
C145 O151 1.268 . S
O146 Dy139 2.351 . S
O146 C154 1.249 . S
O147 Dy136 2.326 . S
O147 C154 1.267 . S
O148 C137 1.185 . S
O148 Dy139 2.398 . S
O149 C137 1.355 . S
O149 Dy139 2.491 . S
O150 Dy139 2.403 . S
O150 C145 1.254 . S
O151 Dy136 2.310 . S
O151 Dy139 2.664 . S
O151 C145 1.268 . S
O152 Dy136 2.351 . S
O152 C155 1.249 . S
O153 Dy139 2.326 . S
O153 C155 1.267 . S
C154 O146 1.249 . S
C154 O147 1.267 . S
C155 O152 1.249 . S
C155 O153 1.267 . S
Dy156 O160 2.398 . S
Dy156 O161 2.491 . S
Dy156 O162 2.403 . S
Dy156 O163 2.664 1_655 S
Dy156 O167 2.326 . S
Dy156 O171 2.310 . S
Dy156 O172 2.351 1_655 S
C157 O168 1.185 . S
C157 O169 1.355 . S
C158 O160 1.185 . S
C158 O161 1.355 . S
Dy159 O163 2.310 . S
Dy159 O166 2.351 1_455 S
Dy159 O168 2.398 . S
Dy159 O169 2.491 . S
Dy159 O170 2.403 . S
Dy159 O171 2.664 1_455 S
Dy159 O173 2.326 . S
O160 Dy156 2.398 . S
O160 C158 1.185 . S
O161 Dy156 2.491 . S
O161 C158 1.355 . S
O162 Dy156 2.403 . S
O162 C164 1.254 . S
O163 Dy156 2.664 1_455 S
O163 Dy159 2.310 . S
O163 C164 1.268 1_455 S
C164 O162 1.254 . S
C164 O163 1.268 1_655 S
C165 O170 1.254 . S
C165 O171 1.268 1_455 S
O166 Dy159 2.351 1_655 S
O166 C174 1.249 . S
O167 Dy156 2.326 . S
O167 C174 1.267 . S
O168 C157 1.185 . S
O168 Dy159 2.398 . S
O169 C157 1.355 . S
O169 Dy159 2.491 . S
O170 Dy159 2.403 . S
O170 C165 1.254 . S
O171 Dy156 2.310 . S
O171 Dy159 2.664 1_655 S
O171 C165 1.268 1_655 S
O172 Dy156 2.351 1_455 S
O172 C175 1.249 . S
O173 Dy159 2.326 . S
O173 C175 1.267 . S
C174 O166 1.249 . S
C174 O167 1.267 . S
C175 O172 1.249 . S
C175 O173 1.267 . S
C176 C177 1.349 . S
C176 C178 1.327 . S
C176 H201 0.950 . S
C177 C176 1.349 . S
C177 C193 1.349 . S
C178 C176 1.327 . S
C178 C197 1.429 . S
C178 H202 0.950 . S
C179 C196 1.574 . S
C179 C198 1.368 . S
C179 H203 0.949 . S
H180 C184 0.949 . S
C181 C182 1.323 1_565 S
C181 C183 1.323 1_565 S
C181 H204 0.981 . S
C182 C181 1.323 1_545 S
C182 C194 1.349 . S
C183 C181 1.323 1_545 S
C183 C199 1.429 . S
C183 H205 0.950 1_545 S
C184 H180 0.949 . S
C184 C192 1.574 . S
C184 C200 1.368 . S
H185 C193 0.950 . S
H186 C191 0.950 . S
H187 C192 0.949 . S
H188 C194 0.950 . S
H189 C195 0.950 . S
H190 C196 0.920 1_565 S
C191 H186 0.950 . S
C191 C193 1.327 . S
C191 C197 1.429 . S
C192 C184 1.574 . S
C192 H187 0.949 . S
C192 C198 1.368 . S
C193 C177 1.349 . S
C193 H185 0.950 . S
C193 C191 1.327 . S
C194 C182 1.349 . S
C194 H188 0.950 . S
C194 C195 1.327 . S
C195 H189 0.950 . S
C195 C194 1.327 . S
C195 C199 1.429 . S
C196 C179 1.574 . S
C196 H190 0.920 1_545 S
C196 C200 1.368 . S
C197 C178 1.429 . S
C197 C191 1.429 . S
C197 C198 1.523 . S
C198 C179 1.368 . S
C198 C192 1.368 . S
C198 C197 1.523 . S
C199 C183 1.429 . S
C199 C195 1.429 . S
C199 C200 1.523 . S
C200 C184 1.368 . S
C200 C196 1.368 . S
C200 C199 1.523 . S
H201 C176 0.950 . S
H202 C178 0.950 . S
H203 C179 0.949 . S
H204 C181 0.981 . S
H205 C183 0.950 1_565 S
C206 C207 1.349 . S
C206 C208 1.327 . S
C206 H231 0.950 . S
C207 C206 1.349 . S
C207 C223 1.349 . S
C208 C206 1.327 . S
C208 C227 1.429 . S
C208 H232 0.950 . S
C209 C226 1.574 . S
C209 C228 1.368 . S
C209 H233 0.949 . S
H210 C214 0.949 . S
C211 C212 1.349 . S
C211 C213 1.327 . S
C211 H234 0.950 . S
C212 C211 1.349 . S
C212 C224 1.349 . S
C213 C211 1.327 . S
C213 C229 1.429 . S
C213 H235 0.950 . S
C214 H210 0.949 . S
C214 C222 1.574 . S
C214 C230 1.368 . S
H215 C223 0.950 . S
H216 C221 0.950 . S
H217 C222 0.949 . S
H218 C224 0.950 . S
H219 C225 0.950 . S
H220 C226 0.949 . S
C221 H216 0.950 . S
C221 C223 1.327 . S
C221 C227 1.429 . S
C222 C214 1.574 . S
C222 H217 0.949 . S
C222 C228 1.368 . S
C223 C207 1.349 . S
C223 H215 0.950 . S
C223 C221 1.327 . S
C224 C212 1.349 . S
C224 H218 0.950 . S
C224 C225 1.327 . S
C225 H219 0.950 . S
C225 C224 1.327 . S
C225 C229 1.429 . S
C226 C209 1.574 . S
C226 H220 0.949 . S
C226 C230 1.368 . S
C227 C208 1.429 . S
C227 C221 1.429 . S
C227 C228 1.523 . S
C228 C209 1.368 . S
C228 C222 1.368 . S
C228 C227 1.523 . S
C229 C213 1.429 . S
C229 C225 1.429 . S
C229 C230 1.523 . S
C230 C214 1.368 . S
C230 C226 1.368 . S
C230 C229 1.523 . S
H231 C206 0.950 . S
H232 C208 0.950 . S
H233 C209 0.949 . S
H234 C211 0.950 . S
H235 C213 0.950 . S
C236 C237 1.349 . S
C236 C238 1.327 . S
C236 H261 0.950 . S
C237 C236 1.349 . S
C237 C253 1.349 . S
C238 C236 1.327 . S
C238 C257 1.429 . S
C238 H262 0.950 . S
C239 C256 1.574 . S
C239 C258 1.368 . S
C239 H263 0.949 . S
H240 C244 0.949 . S
C241 C242 1.349 . S
C241 C243 1.327 . S
C241 H264 0.950 . S
C242 C241 1.349 . S
C242 C254 1.349 . S
C243 C241 1.327 . S
C243 C259 1.429 . S
C243 H265 0.950 . S
C244 H240 0.949 . S
C244 C252 1.574 . S
C244 C260 1.368 . S
H245 C253 0.950 . S
H246 C251 0.950 . S
H247 C252 0.949 . S
H248 C254 0.950 . S
H249 C255 0.950 . S
H250 C256 0.949 . S
C251 H246 0.950 . S
C251 C253 1.327 . S
C251 C257 1.429 . S
C252 C244 1.574 . S
C252 H247 0.949 . S
C252 C258 1.368 . S
C253 C237 1.349 . S
C253 H245 0.950 . S
C253 C251 1.327 . S
C254 C242 1.349 . S
C254 H248 0.950 . S
C254 C255 1.327 . S
C255 H249 0.950 . S
C255 C254 1.327 . S
C255 C259 1.429 . S
C256 C239 1.574 . S
C256 H250 0.949 . S
C256 C260 1.368 . S
C257 C238 1.429 . S
C257 C251 1.429 . S
C257 C258 1.523 . S
C258 C239 1.368 . S
C258 C252 1.368 . S
C258 C257 1.523 . S
C259 C243 1.429 . S
C259 C255 1.429 . S
C259 C260 1.523 . S
C260 C244 1.368 . S
C260 C256 1.368 . S
C260 C259 1.523 . S
H261 C236 0.950 . S
H262 C238 0.950 . S
H263 C239 0.949 . S
H264 C241 0.950 . S
H265 C243 0.950 . S
C266 C267 1.349 1_655 S
C266 C268 1.327 . S
C266 H291 0.950 . S
C267 C266 1.349 1_455 S
C267 C283 1.349 . S
C268 C266 1.327 . S
C268 C287 1.428 . S
C268 H292 0.950 . S
C269 C286 1.578 . S
C269 C288 1.369 1_455 S
C269 H293 0.949 . S
H270 C274 0.949 . S
C271 C272 1.348 1_455 S
C271 C273 1.326 . S
C271 H294 0.949 . S
C272 C271 1.348 1_655 S
C272 C284 1.349 . S
C273 C271 1.326 . S
C273 C289 1.433 1_455 S
C273 H295 0.951 . S
C274 H270 0.949 . S
C274 C282 1.574 . S
C274 C290 1.368 . S
H275 C283 0.950 . S
H276 C281 0.950 . S
H277 C282 0.949 . S
H278 C284 0.950 . S
H279 C285 0.950 . S
H280 C286 0.949 . S
C281 H276 0.950 . S
C281 C283 1.327 . S
C281 C287 1.428 1_455 S
C282 C274 1.574 . S
C282 H277 0.949 . S
C282 C288 1.369 . S
C283 C267 1.349 . S
C283 H275 0.950 . S
C283 C281 1.327 . S
C284 C272 1.349 . S
C284 H278 0.950 . S
C284 C285 1.327 . S
C285 H279 0.950 . S
C285 C284 1.327 . S
C285 C289 1.431 . S
C286 C269 1.578 . S
C286 H280 0.949 . S
C286 C290 1.369 1_455 S
C287 C268 1.428 . S
C287 C281 1.428 1_655 S
C287 C288 1.522 . S
C288 C269 1.369 1_655 S
C288 C282 1.369 . S
C288 C287 1.522 . S
C289 C273 1.433 1_655 S
C289 C285 1.431 . S
C289 C290 1.522 . S
C290 C274 1.368 . S
C290 C286 1.369 1_655 S
C290 C289 1.522 . S
H291 C266 0.950 . S
H292 C268 0.950 . S
H293 C269 0.949 . S
H294 C271 0.949 . S
H295 C273 0.951 . S
C296 C297 1.349 . S
C296 C298 1.327 . S
C296 H321 0.950 . S
C297 C296 1.349 . S
C297 C313 1.349 . S
C298 C296 1.327 . S
C298 C317 1.429 . S
C298 H322 0.950 . S
C299 C316 1.574 . S
C299 C318 1.368 . S
C299 H323 0.949 . S
H300 C304 0.949 . S
C301 C302 1.349 . S
C301 C303 1.327 . S
C301 H324 0.950 1_565 S
C302 C301 1.349 . S
C302 C314 1.349 . S
C303 C301 1.327 . S
C303 C319 1.429 . S
C303 H325 0.950 . S
C304 H300 0.949 . S
C304 C312 1.574 . S
C304 C320 1.368 . S
H305 C313 0.950 1_554 S
H306 C311 0.950 . S
H307 C312 0.949 . S
H308 C314 0.950 . S
H309 C315 0.950 . S
H310 C316 0.949 . S
C311 H306 0.950 . S
C311 C313 1.327 . S
C311 C317 1.429 . S
C312 C304 1.574 . S
C312 H307 0.949 . S
C312 C318 1.368 . S
C313 C297 1.349 . S
C313 H305 0.950 1_556 S
C313 C311 1.327 . S
C314 C302 1.349 . S
C314 H308 0.950 . S
C314 C315 1.327 . S
C315 H309 0.950 . S
C315 C314 1.327 . S
C315 C319 1.429 . S
C316 C299 1.574 . S
C316 H310 0.949 . S
C316 C320 1.368 . S
C317 C298 1.429 . S
C317 C311 1.429 . S
C317 C318 1.523 . S
C318 C299 1.368 . S
C318 C312 1.368 . S
C318 C317 1.523 . S
C319 C303 1.429 . S
C319 C315 1.429 . S
C319 C320 1.523 . S
C320 C304 1.368 . S
C320 C316 1.368 . S
C320 C319 1.523 . S
H321 C296 0.950 . S
H322 C298 0.950 . S
H323 C299 0.949 . S
H324 C301 0.950 1_545 S
H325 C303 0.950 . S
C326 C327 1.349 . S
C326 C328 1.327 1_554 S
C326 H351 0.950 . S
C327 C326 1.349 . S
C327 C343 1.349 1_554 S
C328 C326 1.327 1_556 S
C328 C347 1.429 . S
C328 H352 0.950 . S
C329 C346 1.574 . S
C329 C348 1.368 . S
C329 H353 0.949 . S
H330 C334 0.949 . S
C331 C332 1.349 . S
C331 C333 1.327 . S
C331 H354 0.950 . S
C332 C331 1.349 . S
C332 C344 1.349 . S
C333 C331 1.327 . S
C333 C349 1.429 . S
C333 H355 0.950 . S
C334 H330 0.949 . S
C334 C342 1.574 . S
C334 C350 1.368 . S
H335 C343 0.950 . S
H336 C341 0.950 . S
H337 C342 0.949 . S
H338 C344 0.950 . S
H339 C345 0.950 . S
H340 C346 0.949 . S
C341 H336 0.950 . S
C341 C343 1.327 . S
C341 C347 1.429 . S
C342 C334 1.574 . S
C342 H337 0.949 . S
C342 C348 1.368 . S
C343 C327 1.349 1_556 S
C343 H335 0.950 . S
C343 C341 1.327 . S
C344 C332 1.349 . S
C344 H338 0.950 . S
C344 C345 1.327 . S
C345 H339 0.950 . S
C345 C344 1.327 . S
C345 C349 1.429 . S
C346 C329 1.574 . S
C346 H340 0.949 . S
C346 C350 1.368 . S
C347 C328 1.429 . S
C347 C341 1.429 . S
C347 C348 1.523 . S
C348 C329 1.368 . S
C348 C342 1.368 . S
C348 C347 1.523 . S
C349 C333 1.429 . S
C349 C345 1.429 . S
C349 C350 1.523 . S
C350 C334 1.368 . S
C350 C346 1.368 . S
C350 C349 1.523 . S
H351 C326 0.950 . S
H352 C328 0.950 . S
H353 C329 0.949 . S
H354 C331 0.950 . S
H355 C333 0.950 . S
C356 C357 1.349 . S
C356 C358 1.327 . S
C356 H381 0.950 . S
C357 C356 1.349 . S
C357 C373 1.349 1_556 S
C358 C356 1.327 . S
C358 C377 1.429 . S
C358 H382 0.950 . S
C359 C376 1.574 . S
C359 C378 1.368 . S
C359 H383 0.949 . S
H360 C364 0.949 . S
C361 C362 1.349 . S
C361 C363 1.327 . S
C361 H384 0.950 . S
C362 C361 1.349 . S
C362 C374 1.349 . S
C363 C361 1.327 . S
C363 C379 1.429 . S
C363 H385 0.950 . S
C364 H360 0.949 . S
C364 C372 1.574 . S
C364 C380 1.368 . S
H365 C373 0.950 . S
H366 C371 0.950 . S
H367 C372 0.949 . S
H368 C374 0.950 . S
H369 C375 0.950 . S
H370 C376 0.949 . S
C371 H366 0.950 . S
C371 C373 1.327 1_556 S
C371 C377 1.429 . S
C372 C364 1.574 . S
C372 H367 0.949 . S
C372 C378 1.368 . S
C373 C357 1.349 1_554 S
C373 H365 0.950 . S
C373 C371 1.327 1_554 S
C374 C362 1.349 . S
C374 H368 0.950 . S
C374 C375 1.327 . S
C375 H369 0.950 . S
C375 C374 1.327 . S
C375 C379 1.429 . S
C376 C359 1.574 . S
C376 H370 0.949 . S
C376 C380 1.368 . S
C377 C358 1.429 . S
C377 C371 1.429 . S
C377 C378 1.523 . S
C378 C359 1.368 . S
C378 C372 1.368 . S
C378 C377 1.523 . S
C379 C363 1.429 . S
C379 C375 1.429 . S
C379 C380 1.523 . S
C380 C364 1.368 . S
C380 C376 1.368 . S
C380 C379 1.523 . S
H381 C356 0.950 . S
H382 C358 0.950 . S
H383 C359 0.949 . S
H384 C361 0.950 . S
H385 C363 0.950 . S
C386 C387 1.349 1_455 S
C386 C388 1.327 . S
C386 H411 0.950 . S
C387 C386 1.349 1_655 S
C387 C403 1.349 1_556 S
C388 C386 1.327 . S
C388 C407 1.428 . S
C388 H412 0.950 . S
C389 C406 1.573 . S
C389 C408 1.372 1_655 S
C389 H413 0.951 . S
H390 C394 0.949 . S
C391 C392 1.349 1_655 S
C391 C393 1.327 . S
C391 H414 0.953 . S
C392 C391 1.349 1_455 S
C392 C404 1.349 . S
C393 C391 1.327 . S
C393 C409 1.432 1_655 S
C393 H415 0.950 . S
C394 H390 0.949 . S
C394 C402 1.574 . S
C394 C410 1.367 . S
H395 C403 0.950 . S
H396 C401 0.949 . S
H397 C402 0.949 . S
H398 C404 0.950 . S
H399 C405 0.950 . S
H400 C406 0.948 . S
C401 H396 0.949 . S
C401 C403 1.332 1_556 S
C401 C407 1.429 1_655 S
C402 C394 1.574 . S
C402 H397 0.949 . S
C402 C408 1.369 . S
C403 C387 1.349 1_554 S
C403 H395 0.950 . S
C403 C401 1.332 1_554 S
C404 C392 1.349 . S
C404 H398 0.950 . S
C404 C405 1.327 . S
C405 H399 0.950 . S
C405 C404 1.327 . S
C405 C409 1.430 . S
C406 C389 1.573 . S
C406 H400 0.948 . S
C406 C410 1.369 1_655 S
C407 C388 1.428 . S
C407 C401 1.429 1_455 S
C407 C408 1.522 . S
C408 C389 1.372 1_455 S
C408 C402 1.369 . S
C408 C407 1.522 . S
C409 C393 1.432 1_455 S
C409 C405 1.430 . S
C409 C410 1.522 . S
C410 C394 1.367 . S
C410 C406 1.369 1_455 S
C410 C409 1.522 . S
H411 C386 0.950 . S
H412 C388 0.950 . S
H413 C389 0.951 . S
H414 C391 0.953 . S
H415 C393 0.950 . S
C416 C417 1.347 1_655 S
C416 C418 1.327 . S
C416 H441 0.950 . S
C417 C416 1.347 1_455 S
C417 C433 1.350 . S
C418 C416 1.327 . S
C418 C437 1.429 . S
C418 H442 0.950 . S
C419 C436 1.574 . S
C419 C438 1.368 1_455 S
C419 H443 0.949 . S
H420 C424 0.949 . S
C421 C422 1.349 . S
C421 C423 1.327 . S
C421 H444 0.933 1_655 S
C422 C421 1.349 . S
C422 C434 1.349 . S
C423 C421 1.327 . S
C423 C439 1.429 . S
C423 H445 0.950 1_655 S
C424 H420 0.949 . S
C424 C432 1.574 . S
C424 C440 1.368 . S
H425 C433 0.950 . S
H426 C431 0.950 . S
H427 C432 0.949 . S
H428 C434 0.950 . S
H429 C435 0.950 . S
H430 C436 0.949 . S
C431 H426 0.950 . S
C431 C433 1.327 . S
C431 C437 1.429 1_455 S
C432 C424 1.574 . S
C432 H427 0.949 . S
C432 C438 1.368 . S
C433 C417 1.350 . S
C433 H425 0.950 . S
C433 C431 1.327 . S
C434 C422 1.349 . S
C434 H428 0.950 . S
C434 C435 1.327 . S
C435 H429 0.950 . S
C435 C434 1.327 . S
C435 C439 1.429 . S
C436 C419 1.574 . S
C436 H430 0.949 . S
C436 C440 1.368 1_455 S
C437 C418 1.429 . S
C437 C431 1.429 1_655 S
C437 C438 1.523 . S
C438 C419 1.368 1_655 S
C438 C432 1.368 . S
C438 C437 1.523 . S
C439 C423 1.429 . S
C439 C435 1.429 . S
C439 C440 1.523 . S
C440 C424 1.368 . S
C440 C436 1.368 1_655 S
C440 C439 1.523 . S
H441 C416 0.950 . S
H442 C418 0.950 . S
H443 C419 0.949 . S
H444 C421 0.933 1_455 S
H445 C423 0.950 1_455 S
C446 C447 1.349 . S
C446 C448 1.327 . S
C446 H471 0.950 . S
C447 C446 1.349 . S
C447 C463 1.349 . S
C448 C446 1.327 . S
C448 C467 1.429 . S
C448 H472 0.950 . S
C449 C466 1.574 . S
C449 C468 1.368 . S
C449 H473 0.949 . S
H450 C454 0.949 . S
C451 C452 1.349 . S
C451 C453 1.327 . S
C451 H474 0.950 . S
C452 C451 1.349 . S
C452 C464 1.349 . S
C453 C451 1.327 . S
C453 C469 1.429 . S
C453 H475 0.950 . S
C454 H450 0.949 . S
C454 C462 1.574 . S
C454 C470 1.368 . S
H455 C463 0.950 . S
H456 C461 0.950 . S
H457 C462 0.949 . S
H458 C464 0.950 1_565 S
H459 C465 0.950 . S
H460 C466 0.949 . S
C461 H456 0.950 . S
C461 C463 1.327 . S
C461 C467 1.429 . S
C462 C454 1.574 . S
C462 H457 0.949 . S
C462 C468 1.368 . S
C463 C447 1.349 . S
C463 H455 0.950 . S
C463 C461 1.327 . S
C464 C452 1.349 . S
C464 H458 0.950 1_545 S
C464 C465 1.327 . S
C465 H459 0.950 . S
C465 C464 1.327 . S
C465 C469 1.429 . S
C466 C449 1.574 . S
C466 H460 0.949 . S
C466 C470 1.368 . S
C467 C448 1.429 . S
C467 C461 1.429 . S
C467 C468 1.523 . S
C468 C449 1.368 . S
C468 C462 1.368 . S
C468 C467 1.523 . S
C469 C453 1.429 . S
C469 C465 1.429 . S
C469 C470 1.523 . S
C470 C454 1.368 . S
C470 C466 1.368 . S
C470 C469 1.523 . S
H471 C446 0.950 . S
H472 C448 0.950 . S
H473 C449 0.949 . S
H474 C451 0.950 . S
H475 C453 0.950 . S
C476 C477 1.349 . S
C476 C478 1.327 . S
C476 H501 0.950 . S
C477 C476 1.349 . S
C477 C493 1.349 . S
C478 C476 1.327 . S
C478 C497 1.429 . S
C478 H502 0.950 . S
C479 C496 1.574 . S
C479 C498 1.368 . S
C479 H503 0.949 . S
H480 C484 0.949 . S
C481 C482 1.349 . S
C481 C483 1.327 . S
C481 H504 0.950 . S
C482 C481 1.349 . S
C482 C494 1.349 . S
C483 C481 1.327 . S
C483 C499 1.429 . S
C483 H505 0.950 . S
C484 H480 0.949 . S
C484 C492 1.574 . S
C484 C500 1.368 . S
H485 C493 0.950 . S
H486 C491 0.950 . S
H487 C492 0.949 . S
H488 C494 0.950 . S
H489 C495 0.950 . S
H490 C496 0.949 . S
C491 H486 0.950 . S
C491 C493 1.327 . S
C491 C497 1.429 . S
C492 C484 1.574 . S
C492 H487 0.949 . S
C492 C498 1.368 . S
C493 C477 1.349 . S
C493 H485 0.950 . S
C493 C491 1.327 . S
C494 C482 1.349 . S
C494 H488 0.950 . S
C494 C495 1.327 . S
C495 H489 0.950 . S
C495 C494 1.327 . S
C495 C499 1.429 . S
C496 C479 1.574 . S
C496 H490 0.949 . S
C496 C500 1.368 . S
C497 C478 1.429 . S
C497 C491 1.429 . S
C497 C498 1.523 . S
C498 C479 1.368 . S
C498 C492 1.368 . S
C498 C497 1.523 . S
C499 C483 1.429 . S
C499 C495 1.429 . S
C499 C500 1.523 . S
C500 C484 1.368 . S
C500 C496 1.368 . S
C500 C499 1.523 . S
H501 C476 0.950 . S
H502 C478 0.950 . S
H503 C479 0.949 . S
H504 C481 0.950 . S
H505 C483 0.950 . S
C506 C507 1.349 . S
C506 C508 1.327 . S
C506 H531 0.950 . S
C507 C506 1.349 . S
C507 C523 1.349 . S
C508 C506 1.327 . S
C508 C527 1.429 . S
C508 H532 0.950 . S
C509 C526 1.574 . S
C509 C528 1.368 . S
C509 H533 0.949 . S
H510 C514 0.949 . S
C511 C512 1.349 . S
C511 C513 1.327 . S
C511 H534 0.950 . S
C512 C511 1.349 . S
C512 C524 1.349 . S
C513 C511 1.327 . S
C513 C529 1.429 . S
C513 H535 0.950 . S
C514 H510 0.949 . S
C514 C522 1.574 . S
C514 C530 1.368 . S
H515 C523 0.950 . S
H516 C521 0.950 . S
H517 C522 0.949 . S
H518 C524 0.950 . S
H519 C525 0.950 . S
H520 C526 0.949 . S
C521 H516 0.950 . S
C521 C523 1.327 . S
C521 C527 1.429 . S
C522 C514 1.574 . S
C522 H517 0.949 . S
C522 C528 1.368 . S
C523 C507 1.349 . S
C523 H515 0.950 . S
C523 C521 1.327 . S
C524 C512 1.349 . S
C524 H518 0.950 . S
C524 C525 1.327 . S
C525 H519 0.950 . S
C525 C524 1.327 . S
C525 C529 1.429 . S
C526 C509 1.574 . S
C526 H520 0.949 . S
C526 C530 1.368 . S
C527 C508 1.429 . S
C527 C521 1.429 . S
C527 C528 1.523 . S
C528 C509 1.368 . S
C528 C522 1.368 . S
C528 C527 1.523 . S
C529 C513 1.429 . S
C529 C525 1.429 . S
C529 C530 1.523 . S
C530 C514 1.368 . S
C530 C526 1.368 . S
C530 C529 1.523 . S
H531 C506 0.950 . S
H532 C508 0.950 . S
H533 C509 0.949 . S
H534 C511 0.950 . S
H535 C513 0.950 . S
C536 C537 1.353 . S
C536 C538 1.327 . S
C536 H561 0.950 . S
C537 C536 1.353 . S
C537 C553 1.345 1_655 S
C538 C536 1.327 . S
C538 C557 1.429 1_655 S
C538 H562 0.950 . S
C539 C556 1.574 . S
C539 C558 1.368 . S
C539 H563 0.949 . S
H540 C544 0.949 . S
C541 C542 1.349 . S
C541 C543 1.327 . S
C541 H564 0.950 . S
C542 C541 1.349 . S
C542 C554 1.349 1_455 S
C543 C541 1.327 . S
C543 C559 1.429 . S
C543 H565 0.950 . S
C544 H540 0.949 . S
C544 C552 1.574 . S
C544 C560 1.368 1_655 S
H545 C553 0.950 . S
H546 C551 0.950 . S
H547 C552 0.949 . S
H548 C554 0.950 . S
H549 C555 0.950 . S
H550 C556 0.949 . S
C551 H546 0.950 . S
C551 C553 1.327 . S
C551 C557 1.429 . S
C552 C544 1.574 . S
C552 H547 0.949 . S
C552 C558 1.368 1_655 S
C553 C537 1.345 1_455 S
C553 H545 0.950 . S
C553 C551 1.327 . S
C554 C542 1.349 1_655 S
C554 H548 0.950 . S
C554 C555 1.327 . S
C555 H549 0.950 . S
C555 C554 1.327 . S
C555 C559 1.429 1_655 S
C556 C539 1.574 . S
C556 H550 0.949 . S
C556 C560 1.368 . S
C557 C538 1.429 1_455 S
C557 C551 1.429 . S
C557 C558 1.523 . S
C558 C539 1.368 . S
C558 C552 1.368 1_455 S
C558 C557 1.523 . S
C559 C543 1.429 . S
C559 C555 1.429 1_455 S
C559 C560 1.523 . S
C560 C544 1.368 1_455 S
C560 C556 1.368 . S
C560 C559 1.523 . S
H561 C536 0.950 . S
H562 C538 0.950 . S
H563 C539 0.949 . S
H564 C541 0.950 . S
H565 C543 0.950 . S
C566 C567 1.349 . S
C566 C568 1.327 . S
C566 H591 0.950 . S
C567 C566 1.349 . S
C567 C583 1.349 . S
C568 C566 1.327 . S
C568 C587 1.429 . S
C568 H592 0.950 . S
C569 C586 1.574 . S
C569 C588 1.368 . S
C569 H593 0.980 . S
H570 C574 0.949 . S
C571 C572 1.349 1_545 S
C571 C573 1.327 . S
C571 H594 0.950 . S
C572 C571 1.349 1_565 S
C572 C584 1.349 . S
C573 C571 1.327 . S
C573 C589 1.429 1_545 S
C573 H595 0.950 . S
C574 H570 0.949 . S
C574 C582 1.574 . S
C574 C590 1.368 . S
H575 C583 0.950 . S
H576 C581 0.950 . S
H577 C582 0.949 . S
H578 C584 0.950 . S
H579 C585 0.950 . S
H580 C586 0.949 1_545 S
C581 H576 0.950 . S
C581 C583 1.327 . S
C581 C587 1.429 . S
C582 C574 1.574 . S
C582 H577 0.949 . S
C582 C588 1.368 . S
C583 C567 1.349 . S
C583 H575 0.950 . S
C583 C581 1.327 . S
C584 C572 1.349 . S
C584 H578 0.950 . S
C584 C585 1.327 . S
C585 H579 0.950 . S
C585 C584 1.327 . S
C585 C589 1.429 . S
C586 C569 1.574 . S
C586 H580 0.949 1_565 S
C586 C590 1.368 . S
C587 C568 1.429 . S
C587 C581 1.429 . S
C587 C588 1.523 . S
C588 C569 1.368 . S
C588 C582 1.368 . S
C588 C587 1.523 . S
C589 C573 1.429 1_565 S
C589 C585 1.429 . S
C589 C590 1.523 . S
C590 C574 1.368 . S
C590 C586 1.368 . S
C590 C589 1.523 . S
H591 C566 0.950 . S
H592 C568 0.950 . S
H593 C569 0.980 . S
H594 C571 0.950 . S
H595 C573 0.950 . S
C596 C597 1.349 . S
C596 C598 1.327 . S
C596 H621 0.950 . S
C597 C596 1.349 . S
C597 C613 1.349 1_554 S
C598 C596 1.327 . S
C598 C617 1.429 1_554 S
C598 H622 0.950 . S
C599 C616 1.574 . S
C599 C618 1.368 . S
C599 H623 0.949 . S
H600 C604 0.949 . S
C601 C602 1.349 . S
C601 C603 1.327 . S
C601 H624 0.950 . S
C602 C601 1.349 . S
C602 C614 1.349 . S
C603 C601 1.327 . S
C603 C619 1.429 . S
C603 H625 0.950 . S
C604 H600 0.949 . S
C604 C612 1.574 . S
C604 C620 1.368 . S
H605 C613 0.950 . S
H606 C611 0.950 . S
H607 C612 0.949 . S
H608 C614 0.950 . S
H609 C615 0.950 . S
H610 C616 0.949 . S
C611 H606 0.950 . S
C611 C613 1.327 . S
C611 C617 1.429 . S
C612 C604 1.574 . S
C612 H607 0.949 . S
C612 C618 1.368 . S
C613 C597 1.349 1_556 S
C613 H605 0.950 . S
C613 C611 1.327 . S
C614 C602 1.349 . S
C614 H608 0.950 . S
C614 C615 1.327 . S
C615 H609 0.950 . S
C615 C614 1.327 . S
C615 C619 1.429 . S
C616 C599 1.574 . S
C616 H610 0.949 . S
C616 C620 1.368 . S
C617 C598 1.429 1_556 S
C617 C611 1.429 . S
C617 C618 1.523 . S
C618 C599 1.368 . S
C618 C612 1.368 . S
C618 C617 1.523 . S
C619 C603 1.429 . S
C619 C615 1.429 . S
C619 C620 1.523 . S
C620 C604 1.368 . S
C620 C616 1.368 . S
C620 C619 1.523 . S
H621 C596 0.950 . S
H622 C598 0.950 . S
H623 C599 0.949 . S
H624 C601 0.950 . S
H625 C603 0.950 . S
C626 C627 1.349 . S
C626 C628 1.327 . S
C626 H651 0.950 1_556 S
C627 C626 1.349 . S
C627 C643 1.349 . S
C628 C626 1.327 . S
C628 C647 1.429 . S
C628 H652 0.950 . S
C629 C646 1.574 . S
C629 C648 1.368 . S
C629 H653 0.949 . S
H630 C634 0.949 . S
C631 C632 1.349 . S
C631 C633 1.327 . S
C631 H654 0.950 . S
C632 C631 1.349 . S
C632 C644 1.349 . S
C633 C631 1.327 . S
C633 C649 1.429 . S
C633 H655 0.950 . S
C634 H630 0.949 . S
C634 C642 1.574 . S
C634 C650 1.368 . S
H635 C643 0.950 . S
H636 C641 0.950 . S
H637 C642 0.949 . S
H638 C644 0.950 . S
H639 C645 0.950 . S
H640 C646 0.949 . S
C641 H636 0.950 . S
C641 C643 1.327 . S
C641 C647 1.429 . S
C642 C634 1.574 . S
C642 H637 0.949 . S
C642 C648 1.368 . S
C643 C627 1.349 . S
C643 H635 0.950 . S
C643 C641 1.327 . S
C644 C632 1.349 . S
C644 H638 0.950 . S
C644 C645 1.327 . S
C645 H639 0.950 . S
C645 C644 1.327 . S
C645 C649 1.429 . S
C646 C629 1.574 . S
C646 H640 0.949 . S
C646 C650 1.368 . S
C647 C628 1.429 . S
C647 C641 1.429 . S
C647 C648 1.523 . S
C648 C629 1.368 . S
C648 C642 1.368 . S
C648 C647 1.523 . S
C649 C633 1.429 . S
C649 C645 1.429 . S
C649 C650 1.523 . S
C650 C634 1.368 . S
C650 C646 1.368 . S
C650 C649 1.523 . S
H651 C626 0.950 1_554 S
H652 C628 0.950 . S
H653 C629 0.949 . S
H654 C631 0.950 . S
H655 C633 0.950 . S
C656 C657 1.369 . S
C656 C658 1.327 . S
C656 H681 0.950 . S
C657 C656 1.369 . S
C657 C673 1.332 1_455 S
C658 C656 1.327 . S
C658 C677 1.429 . S
C658 H682 0.950 . S
C659 C676 1.574 . S
C659 C678 1.368 1_655 S
C659 H683 0.949 . S
H660 C664 0.949 . S
C661 C662 1.349 1_655 S
C661 C663 1.327 . S
C661 H684 0.950 . S
C662 C661 1.349 1_455 S
C662 C674 1.349 . S
C663 C661 1.327 . S
C663 C679 1.429 1_655 S
C663 H685 0.950 . S
C664 H660 0.949 . S
C664 C672 1.574 . S
C664 C680 1.368 . S
H665 C673 0.950 1_554 S
H666 C671 0.950 . S
H667 C672 0.949 . S
H668 C674 0.950 . S
H669 C675 0.950 . S
H670 C676 0.949 . S
C671 H666 0.950 . S
C671 C673 1.327 . S
C671 C677 1.429 1_655 S
C672 C664 1.574 . S
C672 H667 0.949 . S
C672 C678 1.368 . S
C673 C657 1.332 1_655 S
C673 H665 0.950 1_556 S
C673 C671 1.327 . S
C674 C662 1.349 . S
C674 H668 0.950 . S
C674 C675 1.327 . S
C675 H669 0.950 . S
C675 C674 1.327 . S
C675 C679 1.429 . S
C676 C659 1.574 . S
C676 H670 0.949 . S
C676 C680 1.368 1_655 S
C677 C658 1.429 . S
C677 C671 1.429 1_455 S
C677 C678 1.523 . S
C678 C659 1.368 1_455 S
C678 C672 1.368 . S
C678 C677 1.523 . S
C679 C663 1.429 1_455 S
C679 C675 1.429 . S
C679 C680 1.523 . S
C680 C664 1.368 . S
C680 C676 1.368 1_455 S
C680 C679 1.523 . S
H681 C656 0.950 . S
H682 C658 0.950 . S
H683 C659 0.949 . S
H684 C661 0.950 . S
H685 C663 0.950 . S
C686 C687 1.349 1_556 S
C686 C688 1.327 . S
C686 H711 0.950 . S
C687 C686 1.349 1_554 S
C687 C703 1.349 . S
C688 C686 1.327 . S
C688 C707 1.429 . S
C688 H712 0.950 . S
C689 C706 1.574 . S
C689 C708 1.368 . S
C689 H713 0.949 . S
H690 C694 0.949 1_565 S
C691 C692 1.349 . S
C691 C693 1.327 . S
C691 H714 0.950 . S
C692 C691 1.349 . S
C692 C704 1.350 . S
C693 C691 1.327 . S
C693 C709 1.429 . S
C693 H715 0.950 . S
C694 H690 0.949 1_545 S
C694 C702 1.574 . S
C694 C710 1.368 . S
H695 C703 0.950 . S
H696 C701 0.950 . S
H697 C702 0.949 . S
H698 C704 0.948 1_565 S
H699 C705 0.950 1_565 S
H700 C706 0.949 . S
C701 H696 0.950 . S
C701 C703 1.327 1_556 S
C701 C707 1.429 . S
C702 C694 1.574 . S
C702 H697 0.949 . S
C702 C708 1.368 . S
C703 C687 1.349 . S
C703 H695 0.950 . S
C703 C701 1.327 1_554 S
C704 C692 1.350 . S
C704 H698 0.948 1_545 S
C704 C705 1.328 . S
C705 H699 0.950 1_545 S
C705 C704 1.328 . S
C705 C709 1.429 . S
C706 C689 1.574 . S
C706 H700 0.949 . S
C706 C710 1.368 . S
C707 C688 1.429 . S
C707 C701 1.429 . S
C707 C708 1.523 . S
C708 C689 1.368 . S
C708 C702 1.368 . S
C708 C707 1.523 . S
C709 C693 1.429 . S
C709 C705 1.429 . S
C709 C710 1.523 . S
C710 C694 1.368 . S
C710 C706 1.368 . S
C710 C709 1.523 . S
H711 C686 0.950 . S
H712 C688 0.950 . S
H713 C689 0.949 . S
H714 C691 0.950 . S
H715 C693 0.950 . S
C716 C717 1.349 . S
C716 C718 1.327 . S
C716 H741 0.950 . S
C717 C716 1.349 . S
C717 C733 1.349 . S
C718 C716 1.327 . S
C718 C737 1.429 . S
C718 H742 0.950 . S
C719 C736 1.574 . S
C719 C738 1.368 . S
C719 H743 0.949 . S
H720 C724 0.949 . S
C721 C722 1.349 . S
C721 C723 1.327 . S
C721 H744 0.950 . S
C722 C721 1.349 . S
C722 C734 1.349 . S
C723 C721 1.327 . S
C723 C739 1.429 . S
C723 H745 0.950 . S
C724 H720 0.949 . S
C724 C732 1.574 . S
C724 C740 1.368 . S
H725 C733 0.950 . S
H726 C731 0.950 . S
H727 C732 0.949 . S
H728 C734 0.950 . S
H729 C735 0.950 . S
H730 C736 0.949 . S
C731 H726 0.950 . S
C731 C733 1.327 . S
C731 C737 1.429 . S
C732 C724 1.574 . S
C732 H727 0.949 . S
C732 C738 1.368 . S
C733 C717 1.349 . S
C733 H725 0.950 . S
C733 C731 1.327 . S
C734 C722 1.349 . S
C734 H728 0.950 . S
C734 C735 1.327 . S
C735 H729 0.950 . S
C735 C734 1.327 . S
C735 C739 1.429 . S
C736 C719 1.574 . S
C736 H730 0.949 . S
C736 C740 1.368 . S
C737 C718 1.429 . S
C737 C731 1.429 . S
C737 C738 1.523 . S
C738 C719 1.368 . S
C738 C732 1.368 . S
C738 C737 1.523 . S
C739 C723 1.429 . S
C739 C735 1.429 . S
C739 C740 1.523 . S
C740 C724 1.368 . S
C740 C736 1.368 . S
C740 C739 1.523 . S
H741 C716 0.950 . S
H742 C718 0.950 . S
H743 C719 0.949 . S
H744 C721 0.950 . S
H745 C723 0.950 . S
C746 C747 1.349 . S
C746 C748 1.327 . S
C746 H771 0.950 . S
C747 C746 1.349 . S
C747 C763 1.349 . S
C748 C746 1.327 . S
C748 C767 1.429 . S
C748 H772 0.950 . S
C749 C766 1.574 . S
C749 C768 1.368 . S
C749 H773 0.949 . S
H750 C754 0.949 . S
C751 C752 1.349 . S
C751 C753 1.327 . S
C751 H774 0.950 . S
C752 C751 1.349 . S
C752 C764 1.349 . S
C753 C751 1.327 . S
C753 C769 1.429 . S
C753 H775 0.950 . S
C754 H750 0.949 . S
C754 C762 1.574 . S
C754 C770 1.368 . S
H755 C763 0.950 . S
H756 C761 0.950 . S
H757 C762 0.949 . S
H758 C764 0.950 . S
H759 C765 0.950 . S
H760 C766 0.949 . S
C761 H756 0.950 . S
C761 C763 1.327 . S
C761 C767 1.429 . S
C762 C754 1.574 . S
C762 H757 0.949 . S
C762 C768 1.368 . S
C763 C747 1.349 . S
C763 H755 0.950 . S
C763 C761 1.327 . S
C764 C752 1.349 . S
C764 H758 0.950 . S
C764 C765 1.327 . S
C765 H759 0.950 . S
C765 C764 1.327 . S
C765 C769 1.429 . S
C766 C749 1.574 . S
C766 H760 0.949 . S
C766 C770 1.368 . S
C767 C748 1.429 . S
C767 C761 1.429 . S
C767 C768 1.523 . S
C768 C749 1.368 . S
C768 C762 1.368 . S
C768 C767 1.523 . S
C769 C753 1.429 . S
C769 C765 1.429 . S
C769 C770 1.523 . S
C770 C754 1.368 . S
C770 C766 1.368 . S
C770 C769 1.523 . S
H771 C746 0.950 . S
H772 C748 0.950 . S
H773 C749 0.949 . S
H774 C751 0.950 . S
H775 C753 0.950 . S
C776 C777 1.365 . S
C776 C778 1.327 . S
C776 H801 0.950 . S
C777 C776 1.365 . S
C777 C793 1.336 1_655 S
C778 C776 1.327 . S
C778 C797 1.429 . S
C778 H802 0.950 . S
C779 C796 1.574 . S
C779 C798 1.368 1_455 S
C779 H803 0.949 . S
H780 C784 0.949 . S
C781 C782 1.349 1_455 S
C781 C783 1.327 . S
C781 H804 0.950 . S
C782 C781 1.349 1_655 S
C782 C794 1.349 . S
C783 C781 1.327 . S
C783 C799 1.429 1_455 S
C783 H805 0.950 . S
C784 H780 0.949 . S
C784 C792 1.574 . S
C784 C800 1.368 . S
H785 C793 0.950 . S
H786 C791 0.950 . S
H787 C792 0.949 . S
H788 C794 0.950 . S
H789 C795 0.950 . S
H790 C796 0.949 . S
C791 H786 0.950 . S
C791 C793 1.327 . S
C791 C797 1.429 1_455 S
C792 C784 1.574 . S
C792 H787 0.949 . S
C792 C798 1.368 . S
C793 C777 1.336 1_455 S
C793 H785 0.950 . S
C793 C791 1.327 . S
C794 C782 1.349 . S
C794 H788 0.950 . S
C794 C795 1.327 . S
C795 H789 0.950 . S
C795 C794 1.327 . S
C795 C799 1.429 . S
C796 C779 1.574 . S
C796 H790 0.949 . S
C796 C800 1.368 1_455 S
C797 C778 1.429 . S
C797 C791 1.429 1_655 S
C797 C798 1.523 . S
C798 C779 1.368 1_655 S
C798 C792 1.368 . S
C798 C797 1.523 . S
C799 C783 1.429 1_655 S
C799 C795 1.429 . S
C799 C800 1.523 . S
C800 C784 1.368 . S
C800 C796 1.368 1_655 S
C800 C799 1.523 . S
H801 C776 0.950 . S
H802 C778 0.950 . S
H803 C779 0.949 . S
H804 C781 0.950 . S
H805 C783 0.950 . S
C806 C807 1.349 . S
C806 C808 1.327 . S
C806 H831 0.950 . S
C807 C806 1.349 . S
C807 C823 1.349 . S
C808 C806 1.327 . S
C808 C827 1.429 . S
C808 H832 0.950 . S
C809 C826 1.574 . S
C809 C828 1.368 . S
C809 H833 0.949 . S
H810 C814 0.949 . S
C811 C812 1.349 . S
C811 C813 1.327 . S
C811 H834 0.950 . S
C812 C811 1.349 . S
C812 C824 1.349 . S
C813 C811 1.327 . S
C813 C829 1.429 . S
C813 H835 0.950 . S
C814 H810 0.949 . S
C814 C822 1.574 . S
C814 C830 1.368 . S
H815 C823 0.950 . S
H816 C821 0.950 . S
H817 C822 0.949 . S
H818 C824 0.950 . S
H819 C825 0.950 . S
H820 C826 0.949 . S
C821 H816 0.950 . S
C821 C823 1.327 . S
C821 C827 1.429 . S
C822 C814 1.574 . S
C822 H817 0.949 . S
C822 C828 1.368 . S
C823 C807 1.349 . S
C823 H815 0.950 . S
C823 C821 1.327 . S
C824 C812 1.349 . S
C824 H818 0.950 . S
C824 C825 1.327 . S
C825 H819 0.950 . S
C825 C824 1.327 . S
C825 C829 1.429 . S
C826 C809 1.574 . S
C826 H820 0.949 . S
C826 C830 1.368 . S
C827 C808 1.429 . S
C827 C821 1.429 . S
C827 C828 1.523 . S
C828 C809 1.368 . S
C828 C822 1.368 . S
C828 C827 1.523 . S
C829 C813 1.429 . S
C829 C825 1.429 . S
C829 C830 1.523 . S
C830 C814 1.368 . S
C830 C826 1.368 . S
C830 C829 1.523 . S
H831 C806 0.950 . S
H832 C808 0.950 . S
H833 C809 0.949 . S
H834 C811 0.950 . S
H835 C813 0.950 . S
C836 C837 1.349 . S
C836 C838 1.327 . S
C836 H861 0.950 . S
C837 C836 1.349 . S
C837 C853 1.349 . S
C838 C836 1.327 . S
C838 C857 1.429 . S
C838 H862 0.950 . S
C839 C856 1.574 . S
C839 C858 1.368 . S
C839 H863 0.949 . S
H840 C844 0.949 . S
C841 C842 1.349 . S
C841 C843 1.327 . S
C841 H864 0.950 . S
C842 C841 1.349 . S
C842 C854 1.349 . S
C843 C841 1.327 . S
C843 C859 1.429 . S
C843 H865 0.950 . S
C844 H840 0.949 . S
C844 C852 1.574 . S
C844 C860 1.368 . S
H845 C853 0.950 . S
H846 C851 0.950 . S
H847 C852 0.949 . S
H848 C854 0.950 . S
H849 C855 0.950 . S
H850 C856 0.949 . S
C851 H846 0.950 . S
C851 C853 1.327 . S
C851 C857 1.429 . S
C852 C844 1.574 . S
C852 H847 0.949 . S
C852 C858 1.368 . S
C853 C837 1.349 . S
C853 H845 0.950 . S
C853 C851 1.327 . S
C854 C842 1.349 . S
C854 H848 0.950 . S
C854 C855 1.327 . S
C855 H849 0.950 . S
C855 C854 1.327 . S
C855 C859 1.429 . S
C856 C839 1.574 . S
C856 H850 0.949 . S
C856 C860 1.368 . S
C857 C838 1.429 . S
C857 C851 1.429 . S
C857 C858 1.523 . S
C858 C839 1.368 . S
C858 C852 1.368 . S
C858 C857 1.523 . S
C859 C843 1.429 . S
C859 C855 1.429 . S
C859 C860 1.523 . S
C860 C844 1.368 . S
C860 C856 1.368 . S
C860 C859 1.523 . S
H861 C836 0.950 . S
H862 C838 0.950 . S
H863 C839 0.949 . S
H864 C841 0.950 . S
H865 C843 0.950 . S
C866 C867 1.349 . S
C866 C868 1.327 . S
C866 H891 0.950 . S
C867 C866 1.349 . S
C867 C883 1.349 . S
C868 C866 1.327 . S
C868 C887 1.429 . S
C868 H892 0.950 . S
C869 C886 1.574 . S
C869 C888 1.368 . S
C869 H893 0.949 . S
H870 C874 0.949 . S
C871 C872 1.349 . S
C871 C873 1.327 . S
C871 H894 0.950 . S
C872 C871 1.349 . S
C872 C884 1.349 . S
C873 C871 1.327 . S
C873 C889 1.429 . S
C873 H895 0.950 . S
C874 H870 0.949 . S
C874 C882 1.574 . S
C874 C890 1.368 . S
H875 C883 0.950 . S
H876 C881 0.950 . S
H877 C882 0.949 . S
H878 C884 0.950 . S
H879 C885 0.950 . S
H880 C886 0.949 . S
C881 H876 0.950 . S
C881 C883 1.327 . S
C881 C887 1.429 . S
C882 C874 1.574 . S
C882 H877 0.949 . S
C882 C888 1.368 . S
C883 C867 1.349 . S
C883 H875 0.950 . S
C883 C881 1.327 . S
C884 C872 1.349 . S
C884 H878 0.950 . S
C884 C885 1.327 . S
C885 H879 0.950 . S
C885 C884 1.327 . S
C885 C889 1.429 . S
C886 C869 1.574 . S
C886 H880 0.949 . S
C886 C890 1.368 . S
C887 C868 1.429 . S
C887 C881 1.429 . S
C887 C888 1.523 . S
C888 C869 1.368 . S
C888 C882 1.368 . S
C888 C887 1.523 . S
C889 C873 1.429 . S
C889 C885 1.429 . S
C889 C890 1.523 . S
C890 C874 1.368 . S
C890 C886 1.368 . S
C890 C889 1.523 . S
H891 C866 0.950 . S
H892 C868 0.950 . S
H893 C869 0.949 . S
H894 C871 0.950 . S
H895 C873 0.950 . S
C177 C76 1.670 . S
C182 C104 1.710 . S
C212 C134 1.829 . S
C207 C88 1.768 . S
C242 C144 1.448 . S
C237 C52 1.396 . S
C272 C164 1.296 . S
C267 C64 1.264 1_455 S
C302 C105 1.715 . S
C297 C28 1.686 . S
C327 C40 1.776 . S
C332 C135 1.829 . S
C357 C4 1.397 1_556 S
C362 C145 1.448 . S
C387 C16 1.259 . S
C392 C165 1.299 . S
C422 C97 0.675 . S
C417 C69 0.681 . S
C452 C118 0.290 . S
C447 C81 0.416 . S
C482 C137 0.866 . S
C477 C93 0.861 . S
C507 C57 0.556 . S
C512 C157 0.536 . S
C537 C21 0.677 1_655 S
C542 C98 0.674 . S
C572 C117 0.289 . S
C567 C33 0.437 . S
C602 C138 0.866 . S
C597 C45 0.859 . S
C627 C9 0.559 1_556 S
C632 C158 0.549 . S
C657 C66 1.488 1_556 S
C662 C115 1.552 . S
C687 C78 1.323 . S
C692 C125 1.386 . S
C722 C155 1.784 . S
C717 C90 1.699 . S
C752 C175 1.792 . S
C747 C54 1.710 1_556 S
C777 C18 1.485 1_655 S
C782 C114 1.553 . S
C812 C124 1.387 . S
C807 C30 1.311 . S
C842 C154 1.784 . S
C837 C42 1.690 . S
C867 C6 1.714 . S
C872 C174 1.798 . S
