# Generated by pormake.
# Topology wbl, (4,4)-cn, num edge types: 1
# Building blocks:
#     Node 0, Type 0, BuildingBlock: NAWXER_clean_linker_0, # of connection points: 4
#     Node 1, Type 0, BuildingBlock: NAWXER_clean_linker_0, # of connection points: 4
#     Node 2, Type 0, BuildingBlock: NAWXER_clean_linker_0, # of connection points: 4
#     Node 3, Type 0, BuildingBlock: NAWXER_clean_linker_0, # of connection points: 4
#     Node 4, Type 0, BuildingBlock: NAWXER_clean_linker_0, # of connection points: 4
#     Node 5, Type 0, BuildingBlock: NAWXER_clean_linker_0, # of connection points: 4
#     Node 6, Type 0, BuildingBlock: NAWXER_clean_linker_0, # of connection points: 4
#     Node 7, Type 0, BuildingBlock: NAWXER_clean_linker_0, # of connection points: 4
#     Node 8, Type 1, BuildingBlock: QUQFOY_clean_sbu_3, # of connection points: 4
#     Node 9, Type 1, BuildingBlock: QUQFOY_clean_sbu_3, # of connection points: 4
#     Node 10, Type 1, BuildingBlock: QUQFOY_clean_sbu_3, # of connection points: 4
#     Node 11, Type 1, BuildingBlock: QUQFOY_clean_sbu_3, # of connection points: 4
#     Node 12, Type 1, BuildingBlock: QUQFOY_clean_sbu_3, # of connection points: 4
#     Node 13, Type 1, BuildingBlock: QUQFOY_clean_sbu_3, # of connection points: 4
#     Node 14, Type 1, BuildingBlock: QUQFOY_clean_sbu_3, # of connection points: 4
#     Node 15, Type 1, BuildingBlock: QUQFOY_clean_sbu_3, # of connection points: 4
#     Edge 16, Type (0, 1), BuildingBlock: CIFDUS_clean_linker_0, # of connection points: 2
#     Edge 17, Type (0, 1), BuildingBlock: CIFDUS_clean_linker_0, # of connection points: 2
#     Edge 18, Type (0, 1), BuildingBlock: CIFDUS_clean_linker_0, # of connection points: 2
#     Edge 19, Type (0, 1), BuildingBlock: CIFDUS_clean_linker_0, # of connection points: 2
#     Edge 20, Type (0, 1), BuildingBlock: CIFDUS_clean_linker_0, # of connection points: 2
#     Edge 21, Type (0, 1), BuildingBlock: CIFDUS_clean_linker_0, # of connection points: 2
#     Edge 22, Type (0, 1), BuildingBlock: CIFDUS_clean_linker_0, # of connection points: 2
#     Edge 23, Type (0, 1), BuildingBlock: CIFDUS_clean_linker_0, # of connection points: 2
#     Edge 24, Type (0, 1), BuildingBlock: CIFDUS_clean_linker_0, # of connection points: 2
#     Edge 25, Type (0, 1), BuildingBlock: CIFDUS_clean_linker_0, # of connection points: 2
#     Edge 26, Type (0, 1), BuildingBlock: CIFDUS_clean_linker_0, # of connection points: 2
#     Edge 27, Type (0, 1), BuildingBlock: CIFDUS_clean_linker_0, # of connection points: 2
#     Edge 28, Type (0, 1), BuildingBlock: CIFDUS_clean_linker_0, # of connection points: 2
#     Edge 29, Type (0, 1), BuildingBlock: CIFDUS_clean_linker_0, # of connection points: 2
#     Edge 30, Type (0, 1), BuildingBlock: CIFDUS_clean_linker_0, # of connection points: 2
#     Edge 31, Type (0, 1), BuildingBlock: CIFDUS_clean_linker_0, # of connection points: 2
#     Edge 32, Type (0, 1), BuildingBlock: CIFDUS_clean_linker_0, # of connection points: 2
#     Edge 33, Type (0, 1), BuildingBlock: CIFDUS_clean_linker_0, # of connection points: 2
#     Edge 34, Type (0, 1), BuildingBlock: CIFDUS_clean_linker_0, # of connection points: 2
#     Edge 35, Type (0, 1), BuildingBlock: CIFDUS_clean_linker_0, # of connection points: 2
#     Edge 36, Type (0, 1), BuildingBlock: CIFDUS_clean_linker_0, # of connection points: 2
#     Edge 37, Type (0, 1), BuildingBlock: CIFDUS_clean_linker_0, # of connection points: 2
#     Edge 38, Type (0, 1), BuildingBlock: CIFDUS_clean_linker_0, # of connection points: 2
#     Edge 39, Type (0, 1), BuildingBlock: CIFDUS_clean_linker_0, # of connection points: 2
#     Edge 40, Type (0, 1), BuildingBlock: CIFDUS_clean_linker_0, # of connection points: 2
#     Edge 41, Type (0, 1), BuildingBlock: CIFDUS_clean_linker_0, # of connection points: 2
#     Edge 42, Type (0, 1), BuildingBlock: CIFDUS_clean_linker_0, # of connection points: 2
#     Edge 43, Type (0, 1), BuildingBlock: CIFDUS_clean_linker_0, # of connection points: 2
#     Edge 44, Type (0, 1), BuildingBlock: CIFDUS_clean_linker_0, # of connection points: 2
#     Edge 45, Type (0, 1), BuildingBlock: CIFDUS_clean_linker_0, # of connection points: 2
#     Edge 46, Type (0, 1), BuildingBlock: CIFDUS_clean_linker_0, # of connection points: 2
#     Edge 47, Type (0, 1), BuildingBlock: CIFDUS_clean_linker_0, # of connection points: 2
# Relax obj value: 0.171
# Max RMSD: 0.174
# Mean RMSD: 0.145
data_MOF--net-wbl--node1-QUQFOY_clean_sbu_3--node2-NAWXER_clean_linker_0--edge1-CIFDUS_clean_linker_0
_symmetry_space_group_name_H-M    P1
_symmetry_Int_Tables_number       1
_symmetry_cell_setting            triclinic
loop_
_symmetry_equiv_pos_as_xyz
'x, y, z'
_cell_length_a     41.489725
_cell_length_b     41.888809
_cell_length_c     70.524536
_cell_angle_alpha  90.551336
_cell_angle_beta   90.205226
_cell_angle_gamma 90.215623
loop_
_atom_site_label
_atom_site_type_symbol
_atom_site_fract_x
_atom_site_fract_y
_atom_site_fract_z
_atom_type_partial_charge
C0 C 0.09809 0.97178 0.37132 0.0
C1 C 0.11642 -0.00854 0.38356 0.0
C2 C 0.08504 0.98407 0.35459 0.0
C3 C 0.09001 0.01622 0.34991 0.0
C4 C 0.12393 0.02269 0.37777 0.0
C5 C 0.11046 0.03507 0.36125 0.0
C6 C 0.06854 0.03182 0.3361 0.0
C7 C 0.1405 0.98137 0.30011 0.0
C8 C 0.1285 0.95366 0.29116 0.0
C9 C 0.11957 0.00302 0.30874 0.0
C10 C 0.08618 -0.00244 0.30842 0.0
C11 C 0.09508 0.94809 0.29088 0.0
C12 C 0.07402 0.97015 0.29923 0.0
C13 C 0.06421 0.02098 0.3173 0.0
C14 C 0.96185 0.11237 0.28879 0.0
C15 C 0.94069 0.09043 0.27998 0.0
C16 C -0.01183 0.10164 0.2994 0.0
C17 C -0.00622 0.06879 0.30142 0.0
C18 C 0.94711 0.05757 0.28159 0.0
C19 C 0.97351 0.04691 0.29206 0.0
C20 C 0.02004 0.05689 0.31368 0.0
C21 C 0.9499 0.09701 0.35725 0.0
C22 C 0.96293 0.12024 0.36964 0.0
C23 C 0.96944 0.08165 0.34391 0.0
C24 C 0.00231 0.08944 0.34263 0.0
C25 C -0.00478 0.12964 0.36736 0.0
C26 C 0.01477 0.11419 0.35407 0.0
C27 C 0.02478 0.06797 0.33247 0.0
H28 H 0.09168 0.94771 0.37535 0.0
H29 H 0.06884 0.96925 0.3462 0.0
H30 H 0.13868 0.03824 0.3866 0.0
H31 H 0.11451 0.05995 0.35791 0.0
H32 H 0.16619 -0.01392 0.30065 0.0
H33 H 0.12946 0.02423 0.31551 0.0
H34 H 0.0853 0.9269 0.28402 0.0
H35 H 0.0483 0.96562 0.29876 0.0
H36 H 0.95802 0.13782 0.28758 0.0
H37 H 0.00395 0.11901 0.30616 0.0
H38 H 0.93112 0.0399 0.27531 0.0
H39 H 0.97738 0.02147 0.29342 0.0
H40 H 0.92505 0.08939 0.35864 0.0
H41 H 0.95935 0.06213 0.33561 0.0
H42 H 0.00604 0.14719 0.37682 0.0
H43 H 0.04015 0.12031 0.35349 0.0
N44 N 0.04882 0.05496 0.34288 0.0
N45 N 0.03998 0.03376 0.30676 0.0
C46 C 0.94313 0.44068 0.59587 0.0
C47 C 0.96036 0.42583 0.61056 0.0
C48 C 0.95889 0.461 0.58323 0.0
C49 C -0.00781 0.46665 0.58499 0.0
C50 C -0.00607 0.43042 0.61164 0.0
C51 C 0.00959 0.4506 0.59903 0.0
C52 C 0.00823 0.49268 0.57449 0.0
C53 C -0.00891 0.41768 0.53144 0.0
C54 C 0.96187 0.42216 0.52171 0.0
C55 C 0.00514 0.44264 0.54175 0.0
C56 C -0.00954 0.4727 0.54247 0.0
C57 C 0.94744 0.45252 0.52209 0.0
C58 C 0.96189 0.47779 0.53225 0.0
C59 C 0.00456 0.49771 0.55487 0.0
C60 C 0.10072 0.60085 0.5386 0.0
C61 C 0.08191 0.62624 0.53175 0.0
C62 C 0.08614 0.57419 0.54678 0.0
C63 C 0.05248 0.57206 0.54798 0.0
C64 C 0.04805 0.62357 0.53276 0.0
C65 C 0.03353 0.59659 0.54059 0.0
C66 C 0.03705 0.54477 0.55745 0.0
C67 C 0.0691 0.60658 0.60884 0.0
C68 C 0.08896 0.58991 0.62152 0.0
C69 C 0.05563 0.59078 0.59304 0.0
C70 C 0.06224 0.55832 0.58973 0.0
C71 C 0.09744 0.55826 0.61729 0.0
C72 C 0.08419 0.54264 0.60157 0.0
C73 C 0.04202 0.53863 0.57686 0.0
H74 H 0.9173 0.43748 0.59456 0.0
H75 H 0.94472 0.47365 0.57282 0.0
H76 H 0.008 0.4199 0.62291 0.0
H77 H 0.03523 0.45476 0.60079 0.0
H78 H 0.00256 0.3945 0.53165 0.0
H79 H 0.02725 0.43828 0.54952 0.0
H80 H 0.92493 0.45658 0.51469 0.0
H81 H 0.95023 0.50088 0.53269 0.0
H82 H 0.12675 0.60152 0.53772 0.0
H83 H 0.10115 0.55525 0.55225 0.0
H84 H 0.03262 0.64272 0.52804 0.0
H85 H 0.00749 0.59537 0.54148 0.0
H86 H 0.06212 0.63097 0.6119 0.0
H87 H 0.03827 0.6032 0.58433 0.0
H88 H 0.11294 0.54504 0.62677 0.0
H89 H 0.08956 0.51759 0.59932 0.0
N90 N 0.02712 0.51308 0.58459 0.0
N91 N 0.01877 0.52384 0.547 0.0
C92 C 0.51102 0.42739 0.8631 0.0
C93 C 0.54344 0.4296 0.86875 0.0
C94 C 0.49965 0.44542 0.84801 0.0
C95 C 0.52053 0.46564 0.83814 0.0
C96 C 0.56499 0.44763 0.85778 0.0
C97 C 0.55354 0.46569 0.84255 0.0
C98 C 0.50631 0.49089 0.82641 0.0
C99 C 0.58572 0.47279 0.77882 0.0
C100 C 0.58503 0.43917 0.77901 0.0
C101 C 0.56116 0.49047 0.78731 0.0
C102 C 0.53571 0.47504 0.79649 0.0
C103 C 0.55859 0.42379 0.78752 0.0
C104 C 0.53422 0.44157 0.79626 0.0
C105 C 0.51179 0.4944 0.80686 0.0
C106 C 0.43259 0.61274 0.78918 0.0
C107 C 0.41246 0.59965 0.77498 0.0
C108 C 0.45424 0.59334 0.79902 0.0
C109 C 0.45598 0.56053 0.79485 0.0
C110 C 0.41565 0.56709 0.77025 0.0
C111 C 0.43732 0.54785 0.77999 0.0
C112 C 0.47542 0.53851 0.80641 0.0
C113 C 0.40239 0.57729 0.85102 0.0
C114 C 0.41899 0.59283 0.86592 0.0
C115 C 0.41949 0.56021 0.83712 0.0
C116 C 0.45327 0.55879 0.83798 0.0
C117 C 0.45284 0.59294 0.8659 0.0
C118 C 0.46976 0.57591 0.85216 0.0
C119 C 0.47176 0.53616 0.82621 0.0
H120 H 0.49399 0.41342 0.87121 0.0
H121 H 0.47407 0.44518 0.84484 0.0
H122 H 0.59006 0.44989 0.86193 0.0
H123 H 0.56993 0.48152 0.83524 0.0
H124 H 0.60586 0.48561 0.77279 0.0
H125 H 0.56276 0.5163 0.78737 0.0
H126 H 0.55686 0.398 0.78764 0.0
H127 H 0.51442 0.42921 0.803 0.0
H128 H 0.43118 0.63781 0.79296 0.0
H129 H 0.46906 0.60381 0.81013 0.0
H130 H 0.40026 0.55594 0.75966 0.0
H131 H 0.43831 0.52261 0.77652 0.0
H132 H 0.3763 0.57675 0.85075 0.0
H133 H 0.40636 0.54681 0.82637 0.0
H134 H 0.46627 0.60515 0.87702 0.0
H135 H 0.49583 0.57505 0.85304 0.0
N136 N 0.48699 0.51222 0.83535 0.0
N137 N 0.49571 0.51778 0.79747 0.0
C138 C 0.46588 0.89634 0.04591 0.0
C139 C 0.44453 0.90848 0.03238 0.0
C140 C 0.48791 0.91643 0.0551 0.0
C141 C 0.4883 0.94941 0.0515 0.0
C142 C 0.44535 0.94115 0.0282 0.0
C143 C 0.46697 0.96153 0.03779 0.0
C144 C 0.51224 0.97072 0.06105 0.0
C145 C 0.46169 0.93702 0.11626 0.0
C146 C 0.48093 0.91513 0.12623 0.0
C147 C 0.47365 0.95218 0.10009 0.0
C148 C 0.50501 0.94579 0.09377 0.0
C149 C 0.51125 0.90694 0.11878 0.0
C150 C 0.52336 0.92251 0.10293 0.0
C151 C 0.52113 0.96723 0.0803 0.0
C152 C 0.59969 0.07991 0.10093 0.0
C153 C 0.62099 0.06484 0.11351 0.0
C154 C 0.58138 0.06177 0.08803 0.0
C155 C 0.58448 0.02837 0.08738 0.0
C156 C 0.62554 0.0317 0.11192 0.0
C157 C 0.60735 0.01365 0.09905 0.0
C158 C 0.5606 0.0082 0.07721 0.0
C159 C 0.61827 0.06055 0.03566 0.0
C160 C 0.60116 0.08684 0.02859 0.0
C161 C 0.60201 0.03531 0.04427 0.0
C162 C 0.5683 0.03576 0.04596 0.0
C163 C 0.56721 0.08616 0.02922 0.0
C164 C 0.55093 0.06072 0.03772 0.0
C165 C 0.55173 0.01222 0.05806 0.0
H166 H 0.4663 0.87101 0.04888 0.0
H167 H 0.50527 0.90577 0.06456 0.0
H168 H 0.42942 0.95081 0.01751 0.0
H169 H 0.46714 -0.01329 0.03444 0.0
H170 H 0.43832 0.94404 0.12163 0.0
H171 H 0.45935 0.97047 0.09335 0.0
H172 H 0.52637 0.88957 0.12575 0.0
H173 H 0.54767 0.91736 0.09827 0.0
H174 H 0.59548 0.10536 0.10199 0.0
H175 H 0.56333 0.07363 0.07953 0.0
H176 H 0.64206 0.01954 0.12132 0.0
H177 H 0.61005 -0.01207 0.09883 0.0
H178 H 0.64433 0.05988 0.03504 0.0
H179 H 0.61585 0.01599 0.0503 0.0
H180 H 0.5532 0.10606 0.02408 0.0
H181 H 0.52492 0.06152 0.0389 0.0
N182 N 0.52778 -0.00658 0.05064 0.0
N183 N 0.54497 -0.01409 0.08749 0.0
C184 C 0.07744 0.57987 0.89879 0.0
C185 C 0.09176 0.56114 0.88445 0.0
C186 C 0.05708 0.56587 0.91221 0.0
C187 C 0.05091 0.53286 0.91159 0.0
C188 C 0.08645 0.52795 0.88443 0.0
C189 C 0.06629 0.51406 0.89781 0.0
C190 C 0.02502 0.51817 0.92303 0.0
C191 C 0.10209 0.54679 0.96327 0.0
C192 C 0.0946 0.57563 0.97258 0.0
C193 C 0.07806 0.52898 0.95413 0.0
C194 C 0.04601 0.53951 0.9542 0.0
C195 C 0.0623 0.58571 0.9731 0.0
C196 C 0.0381 0.56757 0.96414 0.0
C197 C 0.02152 0.52223 0.94279 0.0
C198 C 0.9162 0.4244 0.95759 0.0
C199 C 0.89615 0.44121 0.97023 0.0
C200 C 0.94251 0.43944 0.94914 0.0
C201 C 0.94895 0.47193 0.95266 0.0
C202 C 0.90411 0.47315 0.97478 0.0
C203 C 0.93022 0.48833 0.96606 0.0
C204 C 0.9745 0.48891 0.94199 0.0
C205 C 0.90256 0.46029 0.89526 0.0
C206 C 0.91615 0.4417 0.88068 0.0
C207 C 0.92224 0.47333 0.90958 0.0
C208 C 0.95559 0.46741 0.9096 0.0
C209 C 0.94914 0.43458 0.8813 0.0
C210 C 0.96864 0.44732 0.8956 0.0
C211 C 0.97799 0.48537 0.92214 0.0
H212 H 0.0812 0.60546 0.89932 0.0
H213 H 0.04493 0.58107 0.9224 0.0
H214 H 0.09649 0.51275 0.87346 0.0
H215 H 0.06166 0.48861 0.8969 0.0
H216 H 0.12677 0.53857 0.96244 0.0
H217 H 0.08462 0.50732 0.94658 0.0
H218 H 0.05585 0.60777 0.98025 0.0
H219 H 0.01347 0.57606 0.96432 0.0
H220 H 0.91099 0.39989 0.95362 0.0
H221 H 0.95732 0.4258 0.93942 0.0
H222 H 0.88988 0.48667 0.98486 0.0
H223 H 0.93509 0.51322 0.96933 0.0
H224 H 0.87717 0.46622 0.89496 0.0
H225 H 0.91172 0.48932 0.91999 0.0
H226 H 0.96007 0.42007 0.87029 0.0
H227 H -0.00573 0.44247 0.8953 0.0
N228 N 0.00313 0.49998 0.9136 0.0
N229 N -0.00367 0.50753 0.95161 0.0
C230 C 0.44011 0.58405 0.14928 0.0
C231 C 0.45952 0.59684 0.13487 0.0
C232 C 0.45306 0.56267 0.16241 0.0
C233 C 0.48567 0.55384 0.1614 0.0
C234 C 0.49237 0.5887 0.13436 0.0
C235 C 0.50522 0.56745 0.14743 0.0
C236 C 0.49884 0.52758 0.173 0.0
C237 C 0.48353 0.60619 0.21487 0.0
C238 C 0.45539 0.60225 0.2256 0.0
C239 C 0.49577 0.58092 0.20415 0.0
C240 C 0.48031 0.5511 0.20409 0.0
C241 C 0.43968 0.57246 0.22547 0.0
C242 C 0.45238 0.54685 0.21497 0.0
C243 C 0.49398 0.5247 0.19271 0.0
C244 C 0.58401 0.41498 0.20988 0.0
C245 C 0.56452 0.39504 0.22102 0.0
C246 C 0.57127 0.4422 0.20147 0.0
C247 C 0.53848 0.44967 0.20346 0.0
C248 C 0.53221 0.40396 0.22412 0.0
C249 C 0.51933 0.431 0.2154 0.0
C250 C 0.52404 0.47616 0.19255 0.0
C251 C 0.55411 0.40505 0.14603 0.0
C252 C 0.58101 0.41636 0.13601 0.0
C253 C 0.53789 0.42513 0.15876 0.0
C254 C 0.5481 0.45685 0.16134 0.0
C255 C 0.59182 0.44775 0.13921 0.0
C256 C 0.57526 0.46793 0.15159 0.0
C257 C 0.52927 0.47954 0.1729 0.0
H258 H 0.41477 0.58994 0.15013 0.0
H259 H 0.43723 0.55196 0.17276 0.0
H260 H 0.50796 0.59755 0.12329 0.0
H261 H 0.53037 0.56084 0.14624 0.0
H262 H 0.49595 0.62899 0.21466 0.0
H263 H 0.51752 0.5846 0.19597 0.0
H264 H 0.41798 0.56894 0.2337 0.0
H265 H 0.44021 0.52393 0.21512 0.0
H266 H 0.60888 0.40904 0.20697 0.0
H267 H 0.58695 0.45693 0.19295 0.0
H268 H 0.51664 0.38975 0.23301 0.0
H269 H 0.49412 0.43666 0.21746 0.0
H270 H 0.54528 0.38096 0.14368 0.0
H271 H 0.51677 0.4163 0.16605 0.0
H272 H 0.6122 0.45714 0.13145 0.0
H273 H 0.58332 0.49242 0.15335 0.0
N274 N 0.51648 0.50499 0.16394 0.0
N275 N 0.50652 0.49894 0.2018 0.0
C276 C 0.43817 0.95121 0.39958 0.0
C277 C 0.42463 0.96955 0.38498 0.0
C278 C 0.45456 0.96607 0.41466 0.0
C279 C 0.45761 -0.00053 0.41536 0.0
C280 C 0.42536 0.00304 0.38669 0.0
C281 C 0.44198 0.01781 0.40162 0.0
C282 C 0.48219 0.01475 0.42767 0.0
C283 C 0.40266 -0.01062 0.46694 0.0
C284 C 0.40931 0.96227 0.47783 0.0
C285 C 0.42721 0.00469 0.45705 0.0
C286 C 0.45896 -0.0066 0.45803 0.0
C287 C 0.44109 0.95092 0.47882 0.0
C288 C 0.46586 0.96669 0.46918 0.0
C289 C 0.48467 0.00968 0.44736 0.0
C290 C 0.60309 0.0911 0.46576 0.0
C291 C 0.61982 0.07022 0.47779 0.0
C292 C 0.57446 0.08153 0.45692 0.0
C293 C 0.56243 0.05044 0.45924 0.0
C294 C 0.60618 0.03998 0.48132 0.0
C295 C 0.5779 0.03016 0.47206 0.0
C296 C 0.53433 0.03876 0.44806 0.0
C297 C 0.60308 0.04943 0.39617 0.0
C298 C 0.59974 0.08036 0.38867 0.0
C299 C 0.58217 0.03848 0.41017 0.0
C300 C 0.55716 0.05792 0.41674 0.0
C301 C 0.57564 0.10037 0.39625 0.0
C302 C 0.55407 0.08895 0.40978 0.0
C303 C 0.53146 0.04393 0.42837 0.0
H304 H 0.43826 0.92539 0.39864 0.0
H305 H 0.467 0.95137 0.42488 0.0
H306 H 0.41457 0.01786 0.37591 0.0
H307 H 0.44413 0.0436 0.40187 0.0
H308 H 0.3783 -0.00156 0.46584 0.0
H309 H 0.42144 0.02546 0.44867 0.0
H310 H 0.44675 0.9301 0.48718 0.0
H311 H 0.49026 0.95771 0.47013 0.0
H312 H 0.61254 0.11454 0.46256 0.0
H313 H 0.56206 0.0984 0.448 0.0
H314 H 0.61761 0.02355 0.49098 0.0
H315 H 0.56869 0.00631 0.47449 0.0
H316 H 0.62068 0.03287 0.39058 0.0
H317 H 0.58439 0.01417 0.41511 0.0
H318 H 0.57269 0.12459 0.39137 0.0
H319 H 0.53459 0.10413 0.41458 0.0
N320 N 0.50567 0.03168 0.41898 0.0
N321 N 0.51076 0.02169 0.45687 0.0
C322 C 0.05197 0.93384 0.65909 0.0
C323 C 0.03725 0.92535 0.64172 0.0
C324 C 0.03577 0.95289 0.67236 0.0
C325 C 0.00399 0.96292 0.66891 0.0
C326 C 0.00522 0.93498 0.63852 0.0
C327 C -0.01119 0.95328 0.65197 0.0
C328 C -0.01218 -0.01315 0.6813 0.0
C329 C 0.00744 0.90476 0.71905 0.0
C330 C 0.03195 0.91053 0.73248 0.0
C331 C -0.00628 0.92994 0.70911 0.0
C332 C 0.00429 0.96138 0.71235 0.0
C333 C 0.04196 0.94213 0.73607 0.0
C334 C 0.02796 0.96741 0.7262 0.0
C335 C -0.00956 -0.01217 0.70133 0.0
C336 C 0.90315 0.09604 0.72309 0.0
C337 C 0.92421 0.11857 0.73147 0.0
C338 C 0.91527 0.069 0.71387 0.0
C339 C 0.94859 0.06374 0.71313 0.0
C340 C 0.9576 0.11252 0.73114 0.0
C341 C 0.96962 0.08519 0.72219 0.0
C342 C 0.96163 0.03693 0.70196 0.0
C343 C 0.9433 0.11052 0.65485 0.0
C344 C 0.91513 0.10251 0.64473 0.0
C345 C 0.9561 0.08937 0.6681 0.0
C346 C 0.94115 0.05978 0.67113 0.0
C347 C 0.89927 0.07363 0.64861 0.0
C348 C 0.91243 0.05224 0.66155 0.0
C349 C 0.9576 0.03506 0.6822 0.0
H350 H 0.07638 0.92658 0.66229 0.0
H351 H 0.04876 0.96082 0.68488 0.0
H352 H -0.00692 0.92974 0.62524 0.0
H353 H 0.96449 0.96094 0.64877 0.0
H354 H -0.00055 0.88066 0.71585 0.0
H355 H 0.97503 0.92481 0.69874 0.0
H356 H 0.06063 0.94724 0.74644 0.0
H357 H 0.03619 -0.00843 0.72903 0.0
H358 H 0.87731 0.09947 0.72339 0.0
H359 H 0.89869 0.05242 0.70706 0.0
H360 H 0.97466 0.12949 0.73711 0.0
H361 H -0.00456 0.0815 0.72165 0.0
H362 H 0.95596 0.13264 0.65204 0.0
H363 H 0.97852 0.09535 0.67524 0.0
H364 H 0.87775 0.06677 0.64081 0.0
H365 H 0.9008 0.02934 0.66362 0.0
N366 N 0.97107 0.01037 0.6726 0.0
N367 N 0.97774 0.01318 0.71092 0.0
C368 C 0.38177 0.65916 0.03926 0.0
O369 O 0.40551 0.66668 0.02888 0.0
Cd370 Cd 0.4022 0.67951 0.996 0.0
O371 O 0.35308 0.65935 0.03266 0.0
Cd372 Cd 0.32711 0.67456 0.00191 0.0
C373 C 0.36155 0.74869 0.00243 0.0
O374 O 0.36385 0.64294 0.98305 0.0
O375 O 0.33258 0.67269 0.96659 0.0
O376 O 0.2875 0.63417 0.01029 0.0
C377 C 0.35356 0.65077 0.96688 0.0
O378 O 0.38638 0.7351 0.99563 0.0
C379 C 0.26291 0.64941 0.00472 0.0
O380 O 0.3372 0.7323 0.00761 0.0
O381 O 0.26782 0.67744 0.99858 0.0
C382 C 0.40606 0.85944 0.22516 0.0
O383 O 0.42863 0.85698 0.23726 0.0
Cd384 Cd 0.4211 0.84023 0.26907 0.0
O385 O 0.3769 0.85401 0.22993 0.0
Cd386 Cd 0.34755 0.83953 0.2598 0.0
C387 C 0.38438 0.76791 0.25948 0.0
O388 O 0.37918 0.87323 0.28115 0.0
O389 O 0.34899 0.83869 0.29498 0.0
O390 O 0.30972 0.87963 0.24932 0.0
C391 C 0.36689 0.86321 0.29638 0.0
O392 O 0.40842 0.78364 0.26592 0.0
C393 C 0.28438 0.86522 0.25455 0.0
O394 O 0.35846 0.78221 0.25489 0.0
O395 O 0.28802 0.83731 0.26114 0.0
C396 C 0.15178 0.91391 0.48483 0.0
O397 O 0.14716 0.93512 0.49748 0.0
Cd398 Cd 0.16185 0.9299 0.52975 0.0
O399 O 0.16288 0.88661 0.48935 0.0
Cd400 Cd 0.17885 0.86061 0.5201 0.0
C401 C 0.2415 0.91124 0.52188 0.0
O402 O 0.13765 0.88201 0.54101 0.0
O403 O 0.18121 0.86739 0.55506 0.0
O404 O 0.14916 0.81288 0.51013 0.0
C405 C 0.15185 0.87537 0.55636 0.0
O406 O 0.2207 0.93078 0.52834 0.0
C407 C 0.16977 0.79309 0.51619 0.0
O408 O 0.23302 0.88328 0.51657 0.0
O409 O 0.19581 0.80469 0.5229 0.0
C410 C 0.14794 0.64207 0.78838 0.0
O411 O 0.15692 0.61976 0.7773 0.0
Cd412 Cd 0.17276 0.62628 0.74482 0.0
O413 O 0.14799 0.67099 0.78292 0.0
Cd414 Cd 0.16557 0.69942 0.75379 0.0
C415 C 0.2409 0.66838 0.75418 0.0
O416 O 0.13783 0.66468 0.73099 0.0
O417 O 0.16991 0.69944 0.71887 0.0
O418 O 0.12336 0.73785 0.76058 0.0
C419 C 0.14869 0.67799 0.71627 0.0
O420 O 0.22839 0.64397 0.74616 0.0
C421 C 0.14072 0.76247 0.75812 0.0
O422 O 0.22335 0.69112 0.76031 0.0
O423 O 0.17033 0.7578 0.75454 0.0
C424 C 0.88425 0.13914 0.47185 0.0
O425 O 0.88444 0.11658 0.48373 0.0
Cd426 Cd 0.86789 0.12059 0.51584 0.0
O427 O 0.87554 0.16719 0.47682 0.0
Cd428 Cd 0.85618 0.19356 0.50692 0.0
C429 C 0.79042 0.14548 0.50686 0.0
O430 O 0.89314 0.16742 0.5286 0.0
O431 O 0.85282 0.19074 0.54184 0.0
O432 O 0.8896 0.23905 0.4984 0.0
C433 C 0.87962 0.17668 0.54373 0.0
O434 O 0.80957 0.12401 0.51272 0.0
C435 C 0.86899 0.26034 0.50243 0.0
O436 O 0.80087 0.17322 0.50274 0.0
O437 O 0.84146 0.25058 0.50776 0.0
C438 C 0.876 0.37996 0.70684 0.0
O439 O 0.89972 0.3749 0.71783 0.0
Cd440 Cd 0.89799 0.36666 0.75128 0.0
O441 O 0.84713 0.37957 0.71303 0.0
Cd442 Cd 0.82215 0.3663 0.7443 0.0
C443 C 0.86069 0.29488 0.74776 0.0
O444 O 0.85713 0.40154 0.76268 0.0
O445 O 0.82628 0.37145 0.77924 0.0
O446 O 0.77664 0.39984 0.73504 0.0
C447 C 0.84661 0.39405 0.77886 0.0
O448 O 0.88502 0.31039 0.75396 0.0
C449 C 0.75522 0.38129 0.74162 0.0
O450 O 0.83577 0.30937 0.74175 0.0
O451 O 0.7649 0.35514 0.74854 0.0
C452 C 0.62279 0.37483 0.96603 0.0
O453 O 0.61577 0.39628 0.97814 0.0
Cd454 Cd 0.63697 0.39769 0.00929 0.0
O455 O 0.63951 0.35062 0.97073 0.0
Cd456 Cd 0.66169 0.32775 0.00102 0.0
C457 C 0.71814 0.38535 -0.00091 0.0
O458 O 0.62035 0.34811 0.02211 0.0
O459 O 0.66386 0.33314 0.03606 0.0
O460 O 0.63339 0.2802 0.98999 0.0
C461 C 0.63481 0.34213 0.03747 0.0
O462 O 0.69499 0.40332 0.00423 0.0
C463 C 0.65372 0.2602 0.99605 0.0
O464 O 0.71351 0.35555 0.99625 0.0
O465 O 0.6793 0.27154 0.00353 0.0
C466 C 0.66788 0.12781 0.28735 0.0
O467 O 0.67781 0.10229 0.27951 0.0
Cd468 Cd 0.69543 0.09808 0.24722 0.0
O469 O 0.66852 0.15431 0.27862 0.0
Cd470 Cd 0.68847 0.17433 0.24769 0.0
C471 C 0.76377 0.14227 0.25227 0.0
O472 O 0.66172 0.13279 0.22954 0.0
O473 O 0.69169 0.16387 0.21297 0.0
O474 O 0.64538 0.21362 0.24913 0.0
C475 C 0.67185 0.14078 0.21337 0.0
O476 O 0.75093 0.11567 0.2477 0.0
C477 C 0.66322 0.23785 0.24656 0.0
O478 O 0.74655 0.16707 0.25494 0.0
O479 O 0.69327 0.23276 0.24493 0.0
H480 H 0.17503 0.96629 0.26558 0.0
H481 H 0.13295 0.88967 0.29756 0.0
H482 H 0.1757 0.85352 0.28688 0.0
H483 H 0.22864 0.84595 0.27159 0.0
H484 H 0.27042 0.92337 0.23991 0.0
H485 H 0.22399 0.95673 0.24704 0.0
C486 C 0.17507 0.94154 0.26999 0.0
C487 C 0.15126 0.93066 0.28249 0.0
C488 C 0.19973 0.92109 0.2639 0.0
C489 C 0.15114 0.8985 0.28793 0.0
C490 C 0.17564 0.87792 0.2819 0.0
C491 C 0.22722 0.86985 0.26588 0.0
C492 C 0.2532 0.88226 0.25544 0.0
C493 C 0.20059 0.88921 0.27031 0.0
C494 C 0.25094 0.91329 0.24812 0.0
C495 C 0.22444 0.93249 0.25226 0.0
H496 H 0.13834 0.65449 0.54348 0.0
H497 H 0.06052 0.66521 0.50317 0.0
H498 H 0.08219 0.71677 0.49379 0.0
H499 H 0.12085 0.76074 0.49878 0.0
H500 H 0.20021 0.74857 0.53772 0.0
H501 H 0.18096 0.69502 0.54524 0.0
C502 C 0.12642 0.66755 0.53229 0.0
C503 C 0.09734 0.65593 0.52438 0.0
C504 C 0.13938 0.69698 0.52663 0.0
C505 C 0.08231 0.67378 0.51003 0.0
C506 C 0.09487 0.70323 0.50448 0.0
C507 C 0.13425 0.74614 0.50866 0.0
C508 C 0.16174 0.75876 0.51781 0.0
C509 C 0.12298 0.71539 0.51299 0.0
C510 C 0.17899 0.73946 0.53046 0.0
C511 C 0.16785 0.7089 0.53489 0.0
H512 H 0.3741 0.64407 0.7922 0.0
H513 H 0.3911 0.59781 0.73817 0.0
H514 H 0.34047 0.6188 0.72601 0.0
H515 H 0.2879 0.64322 0.73241 0.0
H516 H 0.27142 0.69103 0.78587 0.0
H517 H 0.32593 0.67742 0.79636 0.0
C518 C 0.36735 0.63939 0.77757 0.0
C519 C 0.38602 0.61858 0.76631 0.0
C520 C 0.3382 0.65165 0.7706 0.0
C521 C 0.37671 0.61287 0.74737 0.0
C522 C 0.3478 0.62497 0.74036 0.0
C523 C 0.29659 0.65132 0.74617 0.0
C524 C 0.27568 0.66764 0.75848 0.0
C525 C 0.32775 0.64322 0.75212 0.0
C526 C 0.28718 0.67842 0.77617 0.0
C527 C 0.31822 0.67039 0.78223 0.0
H528 H 0.39304 0.8756 0.04547 0.0
H529 H 0.45095 0.89017 0.99573 0.0
H530 H 0.42591 0.84363 0.98031 0.0
H531 H 0.39438 0.79412 0.98337 0.0
H532 H 0.33584 0.77967 0.03296 0.0
H533 H 0.35344 0.83128 0.04589 0.0
C534 C 0.39933 0.86903 0.03104 0.0
C535 C 0.42376 0.88596 0.02169 0.0
C536 C 0.3849 0.8422 0.02235 0.0
C537 C 0.43202 0.87743 0.00306 0.0
C538 C 0.41788 0.85074 0.99434 0.0
C539 C 0.38477 0.80274 0.99675 0.0
C540 C 0.36422 0.78299 0.00733 0.0
C541 C 0.39527 0.83223 0.00416 0.0
C542 C 0.35164 0.79448 0.02455 0.0
C543 C 0.36199 0.82384 0.03204 0.0
H544 H 0.14427 0.55674 0.99493 0.0
H545 H 0.10425 0.6396 0.96791 0.0
H546 H 0.15162 0.67109 0.97722 0.0
H547 H 0.20698 0.67336 0.99011 0.0
H548 H 0.24692 0.58982 0.01664 0.0
H549 H 0.19707 0.56048 0.01056 0.0
C550 C 0.14583 0.58178 0.99125 0.0
C551 C 0.12097 0.59574 0.98061 0.0
C552 C 0.17326 0.59959 0.99645 0.0
C553 C 0.12301 0.62834 0.97618 0.0
C554 C 0.15021 0.64629 0.98138 0.0
C555 C 0.20458 0.64891 0.99484 0.0
C556 C 0.23083 0.63375 0.00363 0.0
C557 C 0.17586 0.63195 0.9911 0.0
C558 C 0.22723 0.60206 0.00973 0.0
C559 C 0.19873 0.58518 0.00621 0.0
H560 H 0.39624 0.63004 0.22347 0.0
H561 H 0.48769 0.63587 0.25253 0.0
H562 H 0.47164 0.68595 0.26771 0.0
H563 H 0.43459 0.73073 0.26978 0.0
H564 H 0.3441 0.72747 0.23943 0.0
H565 H 0.35642 0.67351 0.22802 0.0
C566 C 0.41225 0.64205 0.23345 0.0
C567 C 0.44313 0.62955 0.23686 0.0
C568 C 0.40315 0.67136 0.24175 0.0
C569 C 0.46389 0.64529 0.24965 0.0
C570 C 0.45475 0.67389 0.25829 0.0
C571 C 0.41727 0.71814 0.26087 0.0
C572 C 0.38865 0.73338 0.25528 0.0
C573 C 0.42488 0.68761 0.25399 0.0
C574 C 0.36639 0.71642 0.24391 0.0
C575 C 0.37351 0.68561 0.23728 0.0
H576 H 0.36668 -0.01122 0.50205 0.0
H577 H 0.39234 0.89932 0.47564 0.0
H578 H 0.34383 0.87418 0.48864 0.0
H579 H 0.29136 0.8795 0.50479 0.0
H580 H 0.26655 0.96958 0.53118 0.0
H581 H 0.31759 -0.00758 0.52113 0.0
C582 C 0.36175 0.96368 0.49935 0.0
C583 C 0.38268 0.94595 0.48779 0.0
C584 C 0.3339 0.94955 0.50679 0.0
C585 C 0.37646 0.91337 0.48455 0.0
C586 C 0.34868 0.89908 0.49189 0.0
C587 C 0.29733 0.90396 0.50862 0.0
C588 C 0.27481 0.92286 0.51849 0.0
C589 C 0.32679 0.91718 0.50264 0.0
C590 C 0.28315 0.95448 0.52343 0.0
C591 C 0.31236 0.96767 0.51765 0.0
H592 H 0.0962 0.90094 0.73724 0.0
H593 H 0.00329 0.85881 0.74856 0.0
H594 H 0.0293 0.81029 0.75979 0.0
H595 H 0.07792 0.77794 0.76305 0.0
H596 H 0.17092 0.81914 0.7507 0.0
H597 H 0.14545 0.87021 0.74367 0.0
C598 C 0.08171 0.8814 0.74257 0.0
C599 C 0.04788 0.88328 0.74189 0.0
C600 C 0.09682 0.85338 0.74873 0.0
C601 C 0.02937 0.85769 0.74868 0.0
C602 C 0.04421 0.82999 0.75513 0.0
C603 C 0.09271 0.79822 0.75913 0.0
C604 C 0.12622 0.79463 0.7572 0.0
C605 C 0.07786 0.82724 0.75469 0.0
C606 C 0.14504 0.82121 0.7522 0.0
C607 C 0.13048 0.85039 0.74809 0.0
H608 H 0.62259 0.45237 0.7482 0.0
H609 H 0.61078 0.38413 0.79323 0.0
H610 H 0.66006 0.35733 0.78356 0.0
H611 H 0.70982 0.35708 0.76496 0.0
H612 H 0.72477 0.42872 0.72231 0.0
H613 H 0.6712 0.45054 0.72854 0.0
C614 C 0.63076 0.43169 0.75596 0.0
C615 C 0.61293 0.4206 0.77157 0.0
C616 C 0.65993 0.41712 0.75085 0.0
C617 C 0.6236 0.39314 0.78105 0.0
C618 C 0.65205 0.37792 0.77565 0.0
C619 C 0.70112 0.3771 0.75678 0.0
C620 C 0.72123 0.39134 0.74324 0.0
C621 C 0.67084 0.39021 0.76092 0.0
C622 C 0.70975 0.41743 0.73286 0.0
C623 C 0.67918 0.42996 0.73646 0.0
H624 H 0.5861 0.12588 -0.00103 0.0
H625 H 0.65539 0.11383 0.04413 0.0
H626 H 0.68093 0.16431 0.03608 0.0
H627 H 0.67993 0.21481 0.01865 0.0
H628 H 0.60824 0.22868 0.97508 0.0
H629 H 0.58751 0.17478 0.98002 0.0
C630 C 0.60684 0.13423 0.00702 0.0
C631 C 0.61861 0.11599 0.02219 0.0
C632 C 0.62099 0.16381 0.00264 0.0
C633 C 0.64594 0.12702 0.03223 0.0
C634 C 0.66047 0.15611 0.02774 0.0
C635 C 0.66025 0.20576 0.00994 0.0
C636 C 0.64559 0.22577 0.99656 0.0
C637 C 0.64776 0.17506 0.01327 0.0
C638 C 0.61989 0.2138 0.98552 0.0
C639 C 0.60791 0.18301 0.9884 0.0
H640 H 0.9008 0.13972 0.28984 0.0
H641 H 0.91385 0.06576 0.24747 0.0
H642 H 0.86122 0.07771 0.23395 0.0
H643 H 0.80931 0.10503 0.23629 0.0
H644 H 0.79633 0.18005 0.27782 0.0
H645 H 0.85168 0.17259 0.28911 0.0
C646 C 0.89257 0.12672 0.27735 0.0
C647 C 0.91108 0.10133 0.26999 0.0
C648 C 0.86228 0.13389 0.26951 0.0
C649 C 0.89978 0.08475 0.25383 0.0
C650 C 0.86974 0.09169 0.24598 0.0
C651 C 0.81881 0.12013 0.2476 0.0
C652 C 0.79871 0.14274 0.25639 0.0
C653 C 0.85041 0.11552 0.25407 0.0
C654 C 0.81138 0.16248 0.27083 0.0
C655 C 0.84292 0.15802 0.27738 0.0
H656 H 0.89932 0.40298 0.52473 0.0
H657 H -0.01064 0.37855 0.49799 0.0
H658 H 0.96688 0.32737 0.48754 0.0
H659 H 0.92424 0.28706 0.48956 0.0
H660 H 0.83446 0.31042 0.51698 0.0
H661 H 0.85393 0.3647 0.52324 0.0
C662 C 0.91369 0.38678 0.51619 0.0
C663 C 0.94607 0.39434 0.51232 0.0
C664 C 0.90076 0.35707 0.51052 0.0
C665 C 0.96451 0.37303 0.50136 0.0
C666 C 0.95169 0.34377 0.4954 0.0
C667 C 0.90869 0.30417 0.49663 0.0
C668 C 0.87812 0.29456 0.50302 0.0
C669 C 0.92024 0.33509 0.50047 0.0
C670 C 0.85816 0.31714 0.51198 0.0
C671 C 0.86935 0.34815 0.51566 0.0
H672 H 0.64214 0.12978 0.48839 0.0
H673 H 0.6713 0.03092 0.48439 0.0
H674 H 0.72524 0.04544 0.49478 0.0
H675 H 0.7654 0.08616 0.5026 0.0
H676 H 0.73866 0.18562 0.5033 0.0
H677 H 0.68272 0.17087 0.49608 0.0
C678 C 0.66025 0.11134 0.48959 0.0
C679 C 0.65222 0.07919 0.48555 0.0
C680 C 0.69186 0.11998 0.49479 0.0
C681 C 0.67616 0.05575 0.48773 0.0
C682 C 0.70731 0.06406 0.49347 0.0
C683 C 0.74731 0.10467 0.50137 0.0
C684 C 0.75618 0.13696 0.50353 0.0
C685 C 0.71554 0.0961 0.49674 0.0
C686 C 0.73248 0.1606 0.50165 0.0
C687 C 0.70051 0.15217 0.49754 0.0
H688 H 0.87404 0.15413 0.71825 0.0
H689 H 0.94639 0.15239 0.76245 0.0
H690 H 0.93117 0.20611 0.77241 0.0
H691 H 0.90078 0.25525 0.76668 0.0
H692 H 0.82699 0.25612 0.72341 0.0
H693 H 0.83853 0.20043 0.7155 0.0
C694 C 0.88598 0.165 0.7304 0.0
C695 C 0.91179 0.14927 0.73933 0.0
C696 C 0.87684 0.19577 0.73625 0.0
C697 C 0.92708 0.16417 0.75492 0.0
C698 C 0.91825 0.19485 0.76074 0.0
C699 C 0.88689 0.24309 0.75571 0.0
C700 C 0.86339 0.25989 0.74547 0.0
C701 C 0.89376 0.21117 0.75117 0.0
C702 C 0.84525 0.24374 0.73149 0.0
C703 C 0.85199 0.21196 0.72687 0.0
H704 H 0.83812 0.46949 0.97688 0.0
H705 H 0.88618 0.37844 0.98023 0.0
H706 H 0.83562 0.35296 0.98932 0.0
H707 H 0.777 0.35624 0.99538 0.0
H708 H 0.73066 0.44833 0.99378 0.0
H709 H 0.78144 0.47357 0.98544 0.0
C710 C 0.83791 0.4442 0.98 0.0
C711 C 0.86613 0.42604 0.97767 0.0
C712 C 0.8089 0.42974 0.98554 0.0
C713 C 0.86483 0.39308 0.98147 0.0
C714 C 0.8359 0.37844 0.9868 0.0
C715 C 0.77809 0.38183 0.99329 0.0
C716 C 0.74992 0.40024 0.99513 0.0
C717 C 0.80764 0.39646 0.98865 0.0
C718 C 0.75187 0.43347 0.99252 0.0
C719 C 0.78094 0.44801 0.98768 0.0
H720 H 0.62579 0.38181 0.2334 0.0
H721 H 0.53235 0.3381 0.22456 0.0
H722 H 0.55411 0.28653 0.23347 0.0
H723 H 0.60038 0.25284 0.24116 0.0
H724 H 0.69485 0.29527 0.24709 0.0
H725 H 0.67206 0.34816 0.24152 0.0
C726 C 0.61013 0.36105 0.23328 0.0
C727 C 0.57738 0.36414 0.22821 0.0
C728 C 0.62308 0.33106 0.23771 0.0
C729 C 0.55747 0.33686 0.22867 0.0
C730 C 0.56999 0.30715 0.23356 0.0
C731 C 0.61597 0.27369 0.24142 0.0
C732 C 0.64928 0.27012 0.24451 0.0
C733 C 0.60284 0.30387 0.23776 0.0
C734 C 0.66915 0.29736 0.24468 0.0
C735 C 0.65612 0.3276 0.24149 0.0
H736 H 0.13568 0.93239 0.39611 0.0
H737 H 0.11221 0.02758 0.41565 0.0
H738 H 0.12088 0.01172 0.44824 0.0
H739 H 0.13387 0.9713 0.47131 0.0
H740 H 0.15695 0.8755 0.45298 0.0
H741 H 0.14899 0.89104 0.41985 0.0
C742 C 0.13248 0.94963 0.40751 0.0
C743 C 0.12376 0.9813 0.40329 0.0
C744 C 0.13705 0.94022 0.42646 0.0
C745 C 0.11978 0.00331 0.4183 0.0
C746 C 0.12435 -0.00582 0.43703 0.0
C747 C 0.13708 0.95363 0.46015 0.0
C748 C 0.14587 0.92222 0.4647 0.0
C749 C 0.13282 0.96275 0.44127 0.0
C750 C 0.15007 0.89983 0.44992 0.0
C751 C 0.14561 0.90874 0.43097 0.0
H752 H 0.11973 0.64631 0.6298 0.0
H753 H 0.07631 0.56366 0.65543 0.0
H754 H 0.09005 0.58404 0.68694 0.0
H755 H 0.1152 0.62452 0.70721 0.0
H756 H 0.16102 0.70651 0.68223 0.0
H757 H 0.14561 0.68735 0.65052 0.0
C758 C 0.11327 0.63297 0.64234 0.0
C759 C 0.09726 0.60348 0.64037 0.0
C760 C 0.12172 0.64464 0.6605 0.0
C761 C 0.08901 0.58624 0.65665 0.0
C762 C 0.09675 0.59791 0.67466 0.0
C763 C 0.12174 0.6383 0.69485 0.0
C764 C 0.13917 0.66689 0.69707 0.0
C765 C 0.11326 0.62694 0.67674 0.0
C766 C 0.14764 0.68434 0.68089 0.0
C767 C 0.13881 0.67342 0.66276 0.0
H768 H 0.43257 0.58197 0.90257 0.0
H769 H 0.36618 0.63246 0.86665 0.0
H770 H 0.33941 0.6549 0.89479 0.0
H771 H 0.33618 0.66099 0.92984 0.0
H772 H 0.40339 0.60933 0.96489 0.0
H773 H 0.42872 0.58681 0.93683 0.0
C774 C 0.4124 0.59813 0.90087 0.0
C775 C 0.40166 0.60599 0.8826 0.0
C776 C 0.39734 0.61077 0.91697 0.0
C777 C 0.37491 0.62617 0.88061 0.0
C778 C 0.35973 0.63905 0.89668 0.0
C779 C 0.35635 0.6448 0.93128 0.0
C780 C 0.36795 0.63703 0.94946 0.0
C781 C 0.37091 0.63168 0.91497 0.0
C782 C 0.39397 0.61583 0.95112 0.0
C783 C 0.40854 0.60289 0.93507 0.0
H784 H 0.42071 0.89739 0.13876 0.0
H785 H 0.51968 0.90816 0.15711 0.0
H786 H 0.50526 0.8911 0.18874 0.0
H787 H 0.46499 0.87454 0.21152 0.0
H788 H 0.36536 0.86524 0.19446 0.0
H789 H 0.3796 0.88078 0.16214 0.0
C790 C 0.43908 0.89607 0.14969 0.0
C791 C 0.47136 0.90364 0.14535 0.0
C792 C 0.43053 0.88673 0.16815 0.0
C793 C 0.49482 0.90166 0.15976 0.0
C794 C 0.48657 0.89222 0.17798 0.0
C795 C 0.44626 0.87583 0.20078 0.0
C796 C 0.41413 0.86873 0.20548 0.0
C797 C 0.45456 0.88483 0.18235 0.0
C798 C 0.3903 0.87062 0.19129 0.0
C799 C 0.39844 0.87948 0.17279 0.0
H800 H 0.07821 0.61672 0.86605 0.0
H801 H 0.14587 0.53863 0.86677 0.0
H802 H 0.16962 0.55731 0.83732 0.0
H803 H 0.16839 0.59322 0.81006 0.0
H804 H 0.10316 0.6731 0.80999 0.0
H805 H 0.08162 0.65664 0.8407 0.0
C806 C 0.09867 0.6042 0.86006 0.0
C807 C 0.10978 0.5759 0.8685 0.0
C808 C 0.11247 0.61523 0.84314 0.0
C809 C 0.13624 0.55999 0.86037 0.0
C810 C 0.14994 0.5707 0.84354 0.0
C811 C 0.14958 0.60712 0.81684 0.0
C812 C 0.137 0.63402 0.80768 0.0
C813 C 0.13767 0.59777 0.83454 0.0
C814 C 0.11312 0.65221 0.81676 0.0
C815 C 0.10076 0.64276 0.83428 0.0
H816 H 0.40179 0.58834 0.11666 0.0
H817 H 0.48594 0.64931 0.11807 0.0
H818 H 0.46809 0.67531 0.08913 0.0
H819 H 0.43153 0.6771 0.06181 0.0
H820 H 0.34632 0.61784 0.06067 0.0
H821 H 0.36128 0.59529 0.09138 0.0
C822 C 0.41584 0.60786 0.11094 0.0
C823 C 0.44553 0.6164 0.11938 0.0
C824 C 0.40538 0.62284 0.09426 0.0
C825 C 0.46342 0.64168 0.11164 0.0
C826 C 0.4532 0.65665 0.0951 0.0
C827 C 0.41606 0.65948 0.06839 0.0
C828 C 0.38815 0.64877 0.05889 0.0
C829 C 0.42475 0.64675 0.086 0.0
C830 C 0.368 0.62638 0.0677 0.0
C831 C 0.37662 0.61339 0.08521 0.0
H832 H 0.38916 0.91455 0.38017 0.0
H833 H 0.43664 -0.01044 0.34915 0.0
H834 H 0.42247 0.96358 0.31931 0.0
H835 H 0.39845 0.91898 0.3019 0.0
H836 H 0.35109 0.84316 0.33213 0.0
H837 H 0.36371 0.86981 0.36236 0.0
C838 C 0.39634 0.92518 0.36687 0.0
C839 C 0.41369 0.95417 0.36697 0.0
C840 C 0.38841 0.90986 0.34961 0.0
C841 C 0.42266 0.9677 0.34957 0.0
C842 C 0.41486 0.95269 0.33245 0.0
C843 C 0.39089 0.9082 0.31509 0.0
C844 C 0.37407 0.87903 0.31477 0.0
C845 C 0.39801 0.92368 0.3323 0.0
C846 C 0.36418 0.86558 0.332 0.0
C847 C 0.37137 0.88081 0.34928 0.0
H848 H 0.10174 0.93056 0.63373 0.0
H849 H 0.01469 0.88271 0.61481 0.0
H850 H 0.04265 0.86292 0.58684 0.0
H851 H 0.0908 0.86229 0.56655 0.0
H852 H 0.17911 0.90496 0.587 0.0
H853 H 0.15182 0.92294 0.61594 0.0
C854 C 0.08891 0.91509 0.62387 0.0
C855 C 0.05574 0.90894 0.62633 0.0
C856 C 0.10537 0.90291 0.60802 0.0
C857 C 0.03984 0.88895 0.61308 0.0
C858 C 0.05588 0.87734 0.5971 0.0
C859 C 0.10405 0.87521 0.5775 0.0
C860 C 0.13667 0.88269 0.57469 0.0
C861 C 0.08841 0.88482 0.5942 0.0
C862 C 0.15391 0.899 0.58895 0.0
C863 C 0.13829 0.90937 0.60542 0.0
H864 H 0.59587 0.39333 0.87848 0.0
H865 H 0.51264 0.44108 0.90167 0.0
H866 H 0.52911 0.42688 0.93361 0.0
H867 H 0.56832 0.4038 0.95512 0.0
H868 H 0.65111 0.35425 0.93299 0.0
H869 H 0.63361 0.36592 0.90048 0.0
C870 C 0.58133 0.40031 0.89057 0.0
C871 C 0.55303 0.41809 0.88774 0.0
C872 C 0.59088 0.39187 0.90904 0.0
C873 C 0.53427 0.42699 0.90346 0.0
C874 C 0.54375 0.41908 0.92175 0.0
C875 C 0.58247 0.39539 0.94317 0.0
C876 C 0.61111 0.37856 0.94638 0.0
C877 C 0.57217 0.40193 0.92471 0.0
C878 C 0.62894 0.36729 0.93081 0.0
C879 C 0.61902 0.3741 0.91226 0.0
H880 H 0.6198 0.04715 0.15003 0.0
H881 H 0.65218 0.12285 0.11369 0.0
H882 H 0.67211 0.1529 0.14144 0.0
H883 H 0.67877 0.15796 0.1763 0.0
H884 H 0.64376 0.08234 0.21205 0.0
H885 H 0.62671 0.05178 0.18423 0.0
C886 C 0.63172 0.07 0.14814 0.0
C887 C 0.63493 0.08263 0.12987 0.0
C888 C 0.64249 0.08718 0.16407 0.0
C889 C 0.64956 0.11266 0.12766 0.0
C890 C 0.66092 0.12978 0.1435 0.0
C891 C 0.66757 0.13472 0.17794 0.0
C892 C 0.66251 0.12245 0.1962 0.0
C893 C 0.65729 0.11736 0.16181 0.0
C894 C 0.64777 0.09241 0.19816 0.0
C895 C 0.63805 0.07486 0.18226 0.0
H896 H 0.92973 0.08282 0.39353 0.0
H897 H 0.95682 0.18091 0.38442 0.0
H898 H 0.93268 0.19619 0.41488 0.0
H899 H 0.90722 0.18059 0.4452 0.0
H900 H 0.8833 0.08148 0.45418 0.0
H901 H 0.90247 0.06779 0.4226 0.0
C902 C 0.92968 0.10769 0.39797 0.0
C903 C 0.94478 0.13074 0.38668 0.0
C904 C 0.91657 0.11606 0.4156 0.0
C905 C 0.9453 0.16273 0.39289 0.0
C906 C 0.93157 0.17144 0.4103 0.0
C907 C 0.90593 0.1561 0.44013 0.0
C908 C 0.89406 0.13207 0.4521 0.0
C909 C 0.91767 0.14816 0.42197 0.0
C910 C 0.89266 0.10039 0.44537 0.0
C911 C 0.90354 0.0925 0.42727 0.0
H912 H 0.90329 0.44108 0.62759 0.0
H913 H 0.97974 0.3714 0.62839 0.0
H914 H 0.95868 0.34953 0.65777 0.0
H915 H 0.92252 0.35433 0.68504 0.0
H916 H 0.84462 0.42206 0.68392 0.0
H917 H 0.86185 0.44014 0.65256 0.0
C918 C 0.91485 0.42052 0.63385 0.0
C919 C 0.94354 0.40839 0.62596 0.0
C920 C 0.90253 0.40793 0.65077 0.0
C921 C 0.95816 0.38179 0.6344 0.0
C922 C 0.9461 0.36919 0.65119 0.0
C923 C 0.90907 0.37275 0.67778 0.0
C924 C 0.88272 0.38726 0.68681 0.0
C925 C 0.91901 0.38282 0.65983 0.0
C926 C 0.86507 0.41066 0.67721 0.0
C927 C 0.87501 0.42107 0.65935 0.0
H928 H 0.58207 0.12061 0.36003 0.0
H929 H 0.66183 0.06295 0.37926 0.0
H930 H 0.68995 0.07269 0.34965 0.0
H931 H 0.69038 0.09474 0.31735 0.0
H932 H 0.61371 0.15718 0.29986 0.0
H933 H 0.58637 0.14924 0.33016 0.0
C934 C 0.606 0.11083 0.35819 0.0
C935 C 0.61925 0.0904 0.37194 0.0
C936 C 0.62264 0.11737 0.34137 0.0
C937 C 0.65026 0.07782 0.3688 0.0
C938 C 0.6666 0.08359 0.35189 0.0
C939 C 0.66786 0.10684 0.32033 0.0
C940 C 0.65376 0.12617 0.30643 0.0
C941 C 0.65268 0.10272 0.3379 0.0
C942 C 0.6249 0.14219 0.31043 0.0
C943 C 0.60924 0.13753 0.32768 0.0
H944 H 0.95085 0.12074 0.61491 0.0
H945 H 0.85509 0.12657 0.63809 0.0
H946 H 0.83607 0.15307 0.60931 0.0
H947 H 0.84597 0.17054 0.57655 0.0
H948 H 0.941 0.16033 0.55266 0.0
H949 H 0.96117 0.13984 0.58274 0.0
C950 C 0.92598 0.12844 0.61377 0.0
C951 C 0.9044 0.12205 0.62856 0.0
C952 C 0.91509 0.14258 0.59699 0.0
C953 C 0.87207 0.13141 0.62683 0.0
C954 C 0.86122 0.14644 0.61039 0.0
C955 C 0.87117 0.1642 0.57804 0.0
C956 C 0.89198 0.16686 0.56243 0.0
C957 C 0.88238 0.15154 0.59522 0.0
C958 C 0.9245 0.1583 0.56446 0.0
C959 C 0.93605 0.1466 0.58164 0.0
H960 H 0.93057 0.45447 0.84451 0.0
H961 H 0.8592 0.40832 0.8791 0.0
H962 H 0.83035 0.39006 0.85045 0.0
H963 H 0.82734 0.38532 0.81545 0.0
H964 H 0.8989 0.43303 0.78145 0.0
H965 H 0.9258 0.45265 0.81001 0.0
C966 C 0.90867 0.4404 0.84574 0.0
C967 C 0.89716 0.43228 0.86375 0.0
C968 C 0.89238 0.43026 0.82934 0.0
C969 C 0.86845 0.41468 0.86529 0.0
C970 C 0.8521 0.40421 0.84895 0.0
C971 C 0.84873 0.40013 0.81433 0.0
C972 C 0.86125 0.40745 0.79635 0.0
C973 C 0.8641 0.41153 0.83088 0.0
C974 C 0.8888 0.42694 0.7951 0.0
C975 C 0.90426 0.43815 0.81142 0.0
H976 H 0.55065 0.38867 0.10627 0.0
H977 H 0.64464 0.4022 0.1313 0.0
H978 H 0.66978 0.37707 0.10355 0.0
H979 H 0.66509 0.35598 0.07089 0.0
H980 H 0.57103 0.34679 0.0451 0.0
H981 H 0.54576 0.36516 0.07442 0.0
C982 C 0.57657 0.38542 0.10578 0.0
C983 C 0.59583 0.39702 0.12075 0.0
C984 C 0.59081 0.37205 0.08956 0.0
C985 C 0.62943 0.39335 0.11988 0.0
C986 C 0.64376 0.37911 0.10402 0.0
C987 C 0.63906 0.35759 0.07182 0.0
C988 C 0.61993 0.35021 0.05587 0.0
C989 C 0.62473 0.36909 0.08857 0.0
C990 C 0.58624 0.3526 0.05717 0.0
C991 C 0.57178 0.36308 0.07393 0.0
loop_
_geom_bond_atom_site_label_1
_geom_bond_atom_site_label_2
_geom_bond_distance
_geom_bond_site_symmetry_2
_ccdc_geom_bond_type
C0 C1 1.384 . S
C0 C2 1.384 . S
C0 H28 0.931 . S
C1 C0 1.384 . S
C1 C4 1.382 1_565 S
C2 C0 1.384 . S
C2 C3 1.381 1_565 S
C2 H29 0.930 . S
C3 C2 1.381 1_545 S
C3 C5 1.381 . S
C3 C6 1.487 . S
C4 C1 1.382 1_545 S
C4 C5 1.387 . S
C4 H30 0.930 . S
C5 C3 1.381 . S
C5 C4 1.387 . S
C5 H31 0.931 . S
C6 C3 1.487 . S
C6 C13 1.399 . S
C6 N44 1.343 . S
C7 C8 1.384 . S
C7 C9 1.384 . S
C7 H32 0.931 . S
C8 C7 1.384 . S
C8 C11 1.382 . S
C9 C7 1.384 . S
C9 C10 1.381 . S
C9 H33 0.930 1_565 S
C10 C9 1.381 . S
C10 C12 1.381 . S
C10 C13 1.487 1_565 S
C11 C8 1.382 . S
C11 C12 1.387 . S
C11 H34 0.930 . S
C12 C10 1.381 . S
C12 C11 1.387 . S
C12 H35 0.931 . S
C13 C6 1.399 . S
C13 C10 1.487 1_545 S
C13 N45 1.343 . S
C14 C15 1.384 . S
C14 C16 1.384 . S
C14 H36 0.931 . S
C15 C14 1.384 . S
C15 C18 1.382 . S
C16 C14 1.384 . S
C16 C17 1.381 . S
C16 H37 0.930 . S
C17 C16 1.381 . S
C17 C19 1.381 . S
C17 C20 1.487 1_655 S
C18 C15 1.382 . S
C18 C19 1.387 . S
C18 H38 0.930 . S
C19 C17 1.381 . S
C19 C18 1.387 . S
C19 H39 0.931 . S
C20 C17 1.487 1_455 S
C20 C27 1.399 . S
C20 N45 1.343 . S
C21 C22 1.384 . S
C21 C23 1.384 . S
C21 H40 0.931 . S
C22 C21 1.384 . S
C22 C25 1.382 . S
C23 C21 1.384 . S
C23 C24 1.381 . S
C23 H41 0.930 . S
C24 C23 1.381 . S
C24 C26 1.381 1_655 S
C24 C27 1.487 1_655 S
C25 C22 1.382 . S
C25 C26 1.387 1_655 S
C25 H42 0.930 . S
C26 C24 1.381 1_455 S
C26 C25 1.387 1_455 S
C26 H43 0.931 . S
C27 C20 1.399 . S
C27 C24 1.487 1_455 S
C27 N44 1.343 . S
H28 C0 0.931 . S
H29 C2 0.930 . S
H30 C4 0.930 . S
H31 C5 0.931 . S
H32 C7 0.931 . S
H33 C9 0.930 1_545 S
H34 C11 0.930 . S
H35 C12 0.931 . S
H36 C14 0.931 . S
H37 C16 0.930 . S
H38 C18 0.930 . S
H39 C19 0.931 . S
H40 C21 0.931 . S
H41 C23 0.930 . S
H42 C25 0.930 . S
H43 C26 0.931 . S
N44 C6 1.343 . S
N44 C27 1.343 . S
N45 C13 1.343 . S
N45 C20 1.343 . S
C46 C47 1.384 . S
C46 C48 1.384 . S
C46 H74 0.931 . S
C47 C46 1.384 . S
C47 C50 1.382 . S
C48 C46 1.384 . S
C48 C49 1.381 . S
C48 H75 0.930 . S
C49 C48 1.381 . S
C49 C51 1.381 . S
C49 C52 1.487 . S
C50 C47 1.382 . S
C50 C51 1.387 . S
C50 H76 0.930 . S
C51 C49 1.381 . S
C51 C50 1.387 . S
C51 H77 0.931 1_655 S
C52 C49 1.487 . S
C52 C59 1.399 . S
C52 N90 1.343 1_655 S
C53 C54 1.384 . S
C53 C55 1.384 . S
C53 H78 0.931 . S
C54 C53 1.384 . S
C54 C57 1.382 . S
C55 C53 1.384 . S
C55 C56 1.381 . S
C55 H79 0.930 . S
C56 C55 1.381 . S
C56 C58 1.381 . S
C56 C59 1.487 . S
C57 C54 1.382 . S
C57 C58 1.387 . S
C57 H80 0.930 . S
C58 C56 1.381 . S
C58 C57 1.387 . S
C58 H81 0.931 . S
C59 C52 1.399 . S
C59 C56 1.487 . S
C59 N91 1.343 1_655 S
C60 C61 1.384 . S
C60 C62 1.384 . S
C60 H82 0.931 . S
C61 C60 1.384 . S
C61 C64 1.382 . S
C62 C60 1.384 . S
C62 C63 1.381 . S
C62 H83 0.930 . S
C63 C62 1.381 . S
C63 C65 1.381 . S
C63 C66 1.487 . S
C64 C61 1.382 . S
C64 C65 1.387 . S
C64 H84 0.930 . S
C65 C63 1.381 . S
C65 C64 1.387 . S
C65 H85 0.931 . S
C66 C63 1.487 . S
C66 C73 1.399 . S
C66 N91 1.343 . S
C67 C68 1.384 . S
C67 C69 1.384 . S
C67 H86 0.931 . S
C68 C67 1.384 . S
C68 C71 1.382 . S
C69 C67 1.384 . S
C69 C70 1.381 . S
C69 H87 0.930 . S
C70 C69 1.381 . S
C70 C72 1.381 . S
C70 C73 1.487 . S
C71 C68 1.382 . S
C71 C72 1.387 . S
C71 H88 0.930 . S
C72 C70 1.381 . S
C72 C71 1.387 . S
C72 H89 0.931 . S
C73 C66 1.399 . S
C73 C70 1.487 . S
C73 N90 1.343 . S
H74 C46 0.931 . S
H75 C48 0.930 . S
H76 C50 0.930 . S
H77 C51 0.931 1_455 S
H78 C53 0.931 . S
H79 C55 0.930 . S
H80 C57 0.930 . S
H81 C58 0.931 . S
H82 C60 0.931 . S
H83 C62 0.930 . S
H84 C64 0.930 . S
H85 C65 0.931 . S
H86 C67 0.931 . S
H87 C69 0.930 . S
H88 C71 0.930 . S
H89 C72 0.931 . S
N90 C52 1.343 1_455 S
N90 C73 1.343 . S
N91 C59 1.343 1_455 S
N91 C66 1.343 . S
C92 C93 1.384 . S
C92 C94 1.384 . S
C92 H120 0.931 . S
C93 C92 1.384 . S
C93 C96 1.382 . S
C94 C92 1.384 . S
C94 C95 1.381 . S
C94 H121 0.930 . S
C95 C94 1.381 . S
C95 C97 1.381 . S
C95 C98 1.487 . S
C96 C93 1.382 . S
C96 C97 1.387 . S
C96 H122 0.930 . S
C97 C95 1.381 . S
C97 C96 1.387 . S
C97 H123 0.931 . S
C98 C95 1.487 . S
C98 C105 1.399 . S
C98 N136 1.343 . S
C99 C100 1.384 . S
C99 C101 1.384 . S
C99 H124 0.931 . S
C100 C99 1.384 . S
C100 C103 1.382 . S
C101 C99 1.384 . S
C101 C102 1.381 . S
C101 H125 0.930 . S
C102 C101 1.381 . S
C102 C104 1.381 . S
C102 C105 1.487 . S
C103 C100 1.382 . S
C103 C104 1.387 . S
C103 H126 0.930 . S
C104 C102 1.381 . S
C104 C103 1.387 . S
C104 H127 0.931 . S
C105 C98 1.399 . S
C105 C102 1.487 . S
C105 N137 1.343 . S
C106 C107 1.384 . S
C106 C108 1.384 . S
C106 H128 0.931 . S
C107 C106 1.384 . S
C107 C110 1.382 . S
C108 C106 1.384 . S
C108 C109 1.381 . S
C108 H129 0.930 . S
C109 C108 1.381 . S
C109 C111 1.381 . S
C109 C112 1.487 . S
C110 C107 1.382 . S
C110 C111 1.387 . S
C110 H130 0.930 . S
C111 C109 1.381 . S
C111 C110 1.387 . S
C111 H131 0.931 . S
C112 C109 1.487 . S
C112 C119 1.399 . S
C112 N137 1.343 . S
C113 C114 1.384 . S
C113 C115 1.384 . S
C113 H132 0.931 . S
C114 C113 1.384 . S
C114 C117 1.382 . S
C115 C113 1.384 . S
C115 C116 1.381 . S
C115 H133 0.930 . S
C116 C115 1.381 . S
C116 C118 1.381 . S
C116 C119 1.487 . S
C117 C114 1.382 . S
C117 C118 1.387 . S
C117 H134 0.930 . S
C118 C116 1.381 . S
C118 C117 1.387 . S
C118 H135 0.931 . S
C119 C112 1.399 . S
C119 C116 1.487 . S
C119 N136 1.343 . S
H120 C92 0.931 . S
H121 C94 0.930 . S
H122 C96 0.930 . S
H123 C97 0.931 . S
H124 C99 0.931 . S
H125 C101 0.930 . S
H126 C103 0.930 . S
H127 C104 0.931 . S
H128 C106 0.931 . S
H129 C108 0.930 . S
H130 C110 0.930 . S
H131 C111 0.931 . S
H132 C113 0.931 . S
H133 C115 0.930 . S
H134 C117 0.930 . S
H135 C118 0.931 . S
N136 C98 1.343 . S
N136 C119 1.343 . S
N137 C105 1.343 . S
N137 C112 1.343 . S
C138 C139 1.384 . S
C138 C140 1.384 . S
C138 H166 0.931 . S
C139 C138 1.384 . S
C139 C142 1.382 . S
C140 C138 1.384 . S
C140 C141 1.381 . S
C140 H167 0.930 . S
C141 C140 1.381 . S
C141 C143 1.381 . S
C141 C144 1.487 . S
C142 C139 1.382 . S
C142 C143 1.387 . S
C142 H168 0.930 . S
C143 C141 1.381 . S
C143 C142 1.387 . S
C143 H169 0.931 . S
C144 C141 1.487 . S
C144 C151 1.399 . S
C144 N182 1.343 1_565 S
C145 C146 1.384 . S
C145 C147 1.384 . S
C145 H170 0.931 . S
C146 C145 1.384 . S
C146 C149 1.382 . S
C147 C145 1.384 . S
C147 C148 1.381 . S
C147 H171 0.930 . S
C148 C147 1.381 . S
C148 C150 1.381 . S
C148 C151 1.487 . S
C149 C146 1.382 . S
C149 C150 1.387 . S
C149 H172 0.930 . S
C150 C148 1.381 . S
C150 C149 1.387 . S
C150 H173 0.931 . S
C151 C144 1.399 . S
C151 C148 1.487 . S
C151 N183 1.343 . S
C152 C153 1.384 . S
C152 C154 1.384 . S
C152 H174 0.931 . S
C153 C152 1.384 . S
C153 C156 1.382 . S
C154 C152 1.384 . S
C154 C155 1.381 . S
C154 H175 0.930 . S
C155 C154 1.381 . S
C155 C157 1.381 . S
C155 C158 1.487 . S
C156 C153 1.382 . S
C156 C157 1.387 . S
C156 H176 0.930 . S
C157 C155 1.381 . S
C157 C156 1.387 . S
C157 H177 0.931 . S
C158 C155 1.487 . S
C158 C165 1.399 . S
C158 N183 1.343 1_545 S
C159 C160 1.384 . S
C159 C161 1.384 . S
C159 H178 0.931 . S
C160 C159 1.384 . S
C160 C163 1.382 . S
C161 C159 1.384 . S
C161 C162 1.381 . S
C161 H179 0.930 . S
C162 C161 1.381 . S
C162 C164 1.381 . S
C162 C165 1.487 . S
C163 C160 1.382 . S
C163 C164 1.387 . S
C163 H180 0.930 . S
C164 C162 1.381 . S
C164 C163 1.387 . S
C164 H181 0.931 . S
C165 C158 1.399 . S
C165 C162 1.487 . S
C165 N182 1.343 . S
H166 C138 0.931 . S
H167 C140 0.930 . S
H168 C142 0.930 . S
H169 C143 0.931 . S
H170 C145 0.931 . S
H171 C147 0.930 . S
H172 C149 0.930 . S
H173 C150 0.931 . S
H174 C152 0.931 . S
H175 C154 0.930 . S
H176 C156 0.930 . S
H177 C157 0.931 . S
H178 C159 0.931 . S
H179 C161 0.930 . S
H180 C163 0.930 . S
H181 C164 0.931 . S
N182 C144 1.343 1_545 S
N182 C165 1.343 . S
N183 C151 1.343 . S
N183 C158 1.343 1_565 S
C184 C185 1.384 . S
C184 C186 1.384 . S
C184 H212 0.931 . S
C185 C184 1.384 . S
C185 C188 1.382 . S
C186 C184 1.384 . S
C186 C187 1.381 . S
C186 H213 0.930 . S
C187 C186 1.381 . S
C187 C189 1.381 . S
C187 C190 1.487 . S
C188 C185 1.382 . S
C188 C189 1.387 . S
C188 H214 0.930 . S
C189 C187 1.381 . S
C189 C188 1.387 . S
C189 H215 0.931 . S
C190 C187 1.487 . S
C190 C197 1.399 . S
C190 N228 1.343 . S
C191 C192 1.384 . S
C191 C193 1.384 . S
C191 H216 0.931 . S
C192 C191 1.384 . S
C192 C195 1.382 . S
C193 C191 1.384 . S
C193 C194 1.381 . S
C193 H217 0.930 . S
C194 C193 1.381 . S
C194 C196 1.381 . S
C194 C197 1.487 . S
C195 C192 1.382 . S
C195 C196 1.387 . S
C195 H218 0.930 . S
C196 C194 1.381 . S
C196 C195 1.387 . S
C196 H219 0.931 . S
C197 C190 1.399 . S
C197 C194 1.487 . S
C197 N229 1.343 1_455 S
C198 C199 1.384 . S
C198 C200 1.384 . S
C198 H220 0.931 . S
C199 C198 1.384 . S
C199 C202 1.382 . S
C200 C198 1.384 . S
C200 C201 1.381 . S
C200 H221 0.930 . S
C201 C200 1.381 . S
C201 C203 1.381 . S
C201 C204 1.487 . S
C202 C199 1.382 . S
C202 C203 1.387 . S
C202 H222 0.930 . S
C203 C201 1.381 . S
C203 C202 1.387 . S
C203 H223 0.931 . S
C204 C201 1.487 . S
C204 C211 1.399 . S
C204 N229 1.343 . S
C205 C206 1.384 . S
C205 C207 1.384 . S
C205 H224 0.931 . S
C206 C205 1.384 . S
C206 C209 1.382 . S
C207 C205 1.384 . S
C207 C208 1.381 . S
C207 H225 0.930 . S
C208 C207 1.381 . S
C208 C210 1.381 . S
C208 C211 1.487 . S
C209 C206 1.382 . S
C209 C210 1.387 . S
C209 H226 0.930 . S
C210 C208 1.381 . S
C210 C209 1.387 . S
C210 H227 0.931 . S
C211 C204 1.399 . S
C211 C208 1.487 . S
C211 N228 1.343 1_655 S
H212 C184 0.931 . S
H213 C186 0.930 . S
H214 C188 0.930 . S
H215 C189 0.931 . S
H216 C191 0.931 . S
H217 C193 0.930 . S
H218 C195 0.930 . S
H219 C196 0.931 . S
H220 C198 0.931 . S
H221 C200 0.930 . S
H222 C202 0.930 . S
H223 C203 0.931 . S
H224 C205 0.931 . S
H225 C207 0.930 . S
H226 C209 0.930 . S
H227 C210 0.931 . S
N228 C190 1.343 . S
N228 C211 1.343 1_455 S
N229 C197 1.343 1_655 S
N229 C204 1.343 . S
C230 C231 1.384 . S
C230 C232 1.384 . S
C230 H258 0.931 . S
C231 C230 1.384 . S
C231 C234 1.382 . S
C232 C230 1.384 . S
C232 C233 1.381 . S
C232 H259 0.930 . S
C233 C232 1.381 . S
C233 C235 1.381 . S
C233 C236 1.487 . S
C234 C231 1.382 . S
C234 C235 1.387 . S
C234 H260 0.930 . S
C235 C233 1.381 . S
C235 C234 1.387 . S
C235 H261 0.931 . S
C236 C233 1.487 . S
C236 C243 1.399 . S
C236 N274 1.343 . S
C237 C238 1.384 . S
C237 C239 1.384 . S
C237 H262 0.931 . S
C238 C237 1.384 . S
C238 C241 1.382 . S
C239 C237 1.384 . S
C239 C240 1.381 . S
C239 H263 0.930 . S
C240 C239 1.381 . S
C240 C242 1.381 . S
C240 C243 1.487 . S
C241 C238 1.382 . S
C241 C242 1.387 . S
C241 H264 0.930 . S
C242 C240 1.381 . S
C242 C241 1.387 . S
C242 H265 0.931 . S
C243 C236 1.399 . S
C243 C240 1.487 . S
C243 N275 1.343 . S
C244 C245 1.384 . S
C244 C246 1.384 . S
C244 H266 0.931 . S
C245 C244 1.384 . S
C245 C248 1.382 . S
C246 C244 1.384 . S
C246 C247 1.381 . S
C246 H267 0.930 . S
C247 C246 1.381 . S
C247 C249 1.381 . S
C247 C250 1.487 . S
C248 C245 1.382 . S
C248 C249 1.387 . S
C248 H268 0.930 . S
C249 C247 1.381 . S
C249 C248 1.387 . S
C249 H269 0.931 . S
C250 C247 1.487 . S
C250 C257 1.399 . S
C250 N275 1.343 . S
C251 C252 1.384 . S
C251 C253 1.384 . S
C251 H270 0.931 . S
C252 C251 1.384 . S
C252 C255 1.382 . S
C253 C251 1.384 . S
C253 C254 1.381 . S
C253 H271 0.930 . S
C254 C253 1.381 . S
C254 C256 1.381 . S
C254 C257 1.487 . S
C255 C252 1.382 . S
C255 C256 1.387 . S
C255 H272 0.930 . S
C256 C254 1.381 . S
C256 C255 1.387 . S
C256 H273 0.931 . S
C257 C250 1.399 . S
C257 C254 1.487 . S
C257 N274 1.343 . S
H258 C230 0.931 . S
H259 C232 0.930 . S
H260 C234 0.930 . S
H261 C235 0.931 . S
H262 C237 0.931 . S
H263 C239 0.930 . S
H264 C241 0.930 . S
H265 C242 0.931 . S
H266 C244 0.931 . S
H267 C246 0.930 . S
H268 C248 0.930 . S
H269 C249 0.931 . S
H270 C251 0.931 . S
H271 C253 0.930 . S
H272 C255 0.930 . S
H273 C256 0.931 . S
N274 C236 1.343 . S
N274 C257 1.343 . S
N275 C243 1.343 . S
N275 C250 1.343 . S
C276 C277 1.384 . S
C276 C278 1.384 . S
C276 H304 0.931 . S
C277 C276 1.384 . S
C277 C280 1.382 . S
C278 C276 1.384 . S
C278 C279 1.381 . S
C278 H305 0.930 . S
C279 C278 1.381 . S
C279 C281 1.381 . S
C279 C282 1.487 . S
C280 C277 1.382 . S
C280 C281 1.387 . S
C280 H306 0.930 . S
C281 C279 1.381 . S
C281 C280 1.387 . S
C281 H307 0.931 1_565 S
C282 C279 1.487 . S
C282 C289 1.399 . S
C282 N320 1.343 1_565 S
C283 C284 1.384 . S
C283 C285 1.384 . S
C283 H308 0.931 . S
C284 C283 1.384 . S
C284 C287 1.382 . S
C285 C283 1.384 . S
C285 C286 1.381 . S
C285 H309 0.930 . S
C286 C285 1.381 . S
C286 C288 1.381 . S
C286 C289 1.487 . S
C287 C284 1.382 . S
C287 C288 1.387 . S
C287 H310 0.930 . S
C288 C286 1.381 . S
C288 C287 1.387 . S
C288 H311 0.931 . S
C289 C282 1.399 . S
C289 C286 1.487 . S
C289 N321 1.343 1_565 S
C290 C291 1.384 . S
C290 C292 1.384 . S
C290 H312 0.931 . S
C291 C290 1.384 . S
C291 C294 1.382 . S
C292 C290 1.384 . S
C292 C293 1.381 . S
C292 H313 0.930 . S
C293 C292 1.381 . S
C293 C295 1.381 . S
C293 C296 1.487 . S
C294 C291 1.382 . S
C294 C295 1.387 . S
C294 H314 0.930 . S
C295 C293 1.381 . S
C295 C294 1.387 . S
C295 H315 0.931 . S
C296 C293 1.487 . S
C296 C303 1.399 . S
C296 N321 1.343 . S
C297 C298 1.384 . S
C297 C299 1.384 . S
C297 H316 0.931 . S
C298 C297 1.384 . S
C298 C301 1.382 . S
C299 C297 1.384 . S
C299 C300 1.381 . S
C299 H317 0.930 . S
C300 C299 1.381 . S
C300 C302 1.381 . S
C300 C303 1.487 . S
C301 C298 1.382 . S
C301 C302 1.387 . S
C301 H318 0.930 . S
C302 C300 1.381 . S
C302 C301 1.387 . S
C302 H319 0.931 . S
C303 C296 1.399 . S
C303 C300 1.487 . S
C303 N320 1.343 . S
H304 C276 0.931 . S
H305 C278 0.930 . S
H306 C280 0.930 . S
H307 C281 0.931 1_545 S
H308 C283 0.931 . S
H309 C285 0.930 . S
H310 C287 0.930 . S
H311 C288 0.931 . S
H312 C290 0.931 . S
H313 C292 0.930 . S
H314 C294 0.930 . S
H315 C295 0.931 . S
H316 C297 0.931 . S
H317 C299 0.930 . S
H318 C301 0.930 . S
H319 C302 0.931 . S
N320 C282 1.343 1_545 S
N320 C303 1.343 . S
N321 C289 1.343 1_545 S
N321 C296 1.343 . S
C322 C323 1.384 . S
C322 C324 1.384 1_565 S
C322 H350 0.931 . S
C323 C322 1.384 . S
C323 C326 1.382 . S
C324 C322 1.384 1_545 S
C324 C325 1.381 . S
C324 H351 0.930 . S
C325 C324 1.381 . S
C325 C327 1.381 1_545 S
C325 C328 1.487 . S
C326 C323 1.382 . S
C326 C327 1.387 . S
C326 H352 0.930 . S
C327 C325 1.381 1_565 S
C327 C326 1.387 . S
C327 H353 0.931 . S
C328 C325 1.487 . S
C328 C335 1.399 . S
C328 N366 1.343 . S
C329 C330 1.384 . S
C329 C331 1.384 . S
C329 H354 0.931 . S
C330 C329 1.384 . S
C330 C333 1.382 1_565 S
C331 C329 1.384 . S
C331 C332 1.381 1_565 S
C331 H355 0.930 . S
C332 C331 1.381 1_545 S
C332 C334 1.381 . S
C332 C335 1.487 . S
C333 C330 1.382 1_545 S
C333 C334 1.387 . S
C333 H356 0.930 . S
C334 C332 1.381 . S
C334 C333 1.387 . S
C334 H357 0.931 . S
C335 C328 1.399 . S
C335 C332 1.487 . S
C335 N367 1.343 . S
C336 C337 1.384 . S
C336 C338 1.384 . S
C336 H358 0.931 . S
C337 C336 1.384 . S
C337 C340 1.382 1_655 S
C338 C336 1.384 . S
C338 C339 1.381 1_655 S
C338 H359 0.930 . S
C339 C338 1.381 1_455 S
C339 C341 1.381 . S
C339 C342 1.487 . S
C340 C337 1.382 1_455 S
C340 C341 1.387 . S
C340 H360 0.930 . S
C341 C339 1.381 . S
C341 C340 1.387 . S
C341 H361 0.931 . S
C342 C339 1.487 . S
C342 C349 1.399 . S
C342 N367 1.343 . S
C343 C344 1.384 . S
C343 C345 1.384 1_655 S
C343 H362 0.931 . S
C344 C343 1.384 . S
C344 C347 1.382 . S
C345 C343 1.384 1_455 S
C345 C346 1.381 . S
C345 H363 0.930 . S
C346 C345 1.381 . S
C346 C348 1.381 1_455 S
C346 C349 1.487 . S
C347 C344 1.382 . S
C347 C348 1.387 . S
C347 H364 0.930 . S
C348 C346 1.381 1_655 S
C348 C347 1.387 . S
C348 H365 0.931 . S
C349 C342 1.399 . S
C349 C346 1.487 . S
C349 N366 1.343 . S
H350 C322 0.931 . S
H351 C324 0.930 . S
H352 C326 0.930 . S
H353 C327 0.931 . S
H354 C329 0.931 . S
H355 C331 0.930 . S
H356 C333 0.930 . S
H357 C334 0.931 . S
H358 C336 0.931 . S
H359 C338 0.930 . S
H360 C340 0.930 . S
H361 C341 0.931 . S
H362 C343 0.931 . S
H363 C345 0.930 . S
H364 C347 0.930 . S
H365 C348 0.931 . S
N366 C328 1.343 . S
N366 C349 1.343 . S
N367 C335 1.343 . S
N367 C342 1.343 . S
C368 O369 1.306 . S
C368 O371 1.160 . S
O369 C368 1.306 . S
O369 Cd370 2.228 . S
Cd370 O369 2.228 . S
Cd370 O374 2.273 1_554 S
Cd370 O378 2.277 . S
O371 C368 1.160 . S
O371 Cd372 2.203 . S
Cd372 O371 2.203 . S
Cd372 O374 2.411 1_554 S
Cd372 O375 2.333 1_554 S
Cd372 O376 2.352 . S
Cd372 O380 2.277 . S
Cd372 O381 2.356 . S
C373 O378 1.209 . S
C373 O380 1.226 . S
O374 Cd370 2.273 1_556 S
O374 Cd372 2.411 1_556 S
O374 C377 1.320 . S
O375 Cd372 2.333 1_556 S
O375 C377 1.214 . S
O376 Cd372 2.352 . S
O376 C379 1.258 . S
C377 O374 1.320 . S
C377 O375 1.214 . S
O378 Cd370 2.277 . S
O378 C373 1.209 . S
C379 O376 1.258 . S
C379 O381 1.282 . S
O380 Cd372 2.277 . S
O380 C373 1.226 . S
O381 Cd372 2.356 . S
O381 C379 1.282 . S
C382 O383 1.306 . S
C382 O385 1.160 . S
O383 C382 1.306 . S
O383 Cd384 2.228 . S
Cd384 O383 2.228 . S
Cd384 O388 2.273 . S
Cd384 O392 2.277 . S
O385 C382 1.160 . S
O385 Cd386 2.203 . S
Cd386 O385 2.203 . S
Cd386 O388 2.411 . S
Cd386 O389 2.333 . S
Cd386 O390 2.352 . S
Cd386 O394 2.277 . S
Cd386 O395 2.356 . S
C387 O392 1.209 . S
C387 O394 1.226 . S
O388 Cd384 2.273 . S
O388 Cd386 2.411 . S
O388 C391 1.320 . S
O389 Cd386 2.333 . S
O389 C391 1.214 . S
O390 Cd386 2.352 . S
O390 C393 1.258 . S
C391 O388 1.320 . S
C391 O389 1.214 . S
O392 Cd384 2.277 . S
O392 C387 1.209 . S
C393 O390 1.258 . S
C393 O395 1.282 . S
O394 Cd386 2.277 . S
O394 C387 1.226 . S
O395 Cd386 2.356 . S
O395 C393 1.282 . S
C396 O397 1.306 . S
C396 O399 1.160 . S
O397 C396 1.306 . S
O397 Cd398 2.228 . S
Cd398 O397 2.228 . S
Cd398 O402 2.273 . S
Cd398 O406 2.277 . S
O399 C396 1.160 . S
O399 Cd400 2.203 . S
Cd400 O399 2.203 . S
Cd400 O402 2.411 . S
Cd400 O403 2.333 . S
Cd400 O404 2.352 . S
Cd400 O408 2.277 . S
Cd400 O409 2.356 . S
C401 O406 1.209 . S
C401 O408 1.226 . S
O402 Cd398 2.273 . S
O402 Cd400 2.411 . S
O402 C405 1.320 . S
O403 Cd400 2.333 . S
O403 C405 1.214 . S
O404 Cd400 2.352 . S
O404 C407 1.258 . S
C405 O402 1.320 . S
C405 O403 1.214 . S
O406 Cd398 2.277 . S
O406 C401 1.209 . S
C407 O404 1.258 . S
C407 O409 1.282 . S
O408 Cd400 2.277 . S
O408 C401 1.226 . S
O409 Cd400 2.356 . S
O409 C407 1.282 . S
C410 O411 1.306 . S
C410 O413 1.160 . S
O411 C410 1.306 . S
O411 Cd412 2.228 . S
Cd412 O411 2.228 . S
Cd412 O416 2.273 . S
Cd412 O420 2.277 . S
O413 C410 1.160 . S
O413 Cd414 2.203 . S
Cd414 O413 2.203 . S
Cd414 O416 2.411 . S
Cd414 O417 2.333 . S
Cd414 O418 2.352 . S
Cd414 O422 2.277 . S
Cd414 O423 2.356 . S
C415 O420 1.209 . S
C415 O422 1.226 . S
O416 Cd412 2.273 . S
O416 Cd414 2.411 . S
O416 C419 1.320 . S
O417 Cd414 2.333 . S
O417 C419 1.214 . S
O418 Cd414 2.352 . S
O418 C421 1.258 . S
C419 O416 1.320 . S
C419 O417 1.214 . S
O420 Cd412 2.277 . S
O420 C415 1.209 . S
C421 O418 1.258 . S
C421 O423 1.282 . S
O422 Cd414 2.277 . S
O422 C415 1.226 . S
O423 Cd414 2.356 . S
O423 C421 1.282 . S
C424 O425 1.306 . S
C424 O427 1.160 . S
O425 C424 1.306 . S
O425 Cd426 2.228 . S
Cd426 O425 2.228 . S
Cd426 O430 2.273 . S
Cd426 O434 2.277 . S
O427 C424 1.160 . S
O427 Cd428 2.203 . S
Cd428 O427 2.203 . S
Cd428 O430 2.411 . S
Cd428 O431 2.333 . S
Cd428 O432 2.352 . S
Cd428 O436 2.277 . S
Cd428 O437 2.356 . S
C429 O434 1.209 . S
C429 O436 1.226 . S
O430 Cd426 2.273 . S
O430 Cd428 2.411 . S
O430 C433 1.320 . S
O431 Cd428 2.333 . S
O431 C433 1.214 . S
O432 Cd428 2.352 . S
O432 C435 1.258 . S
C433 O430 1.320 . S
C433 O431 1.214 . S
O434 Cd426 2.277 . S
O434 C429 1.209 . S
C435 O432 1.258 . S
C435 O437 1.282 . S
O436 Cd428 2.277 . S
O436 C429 1.226 . S
O437 Cd428 2.356 . S
O437 C435 1.282 . S
C438 O439 1.306 . S
C438 O441 1.160 . S
O439 C438 1.306 . S
O439 Cd440 2.228 . S
Cd440 O439 2.228 . S
Cd440 O444 2.273 . S
Cd440 O448 2.277 . S
O441 C438 1.160 . S
O441 Cd442 2.203 . S
Cd442 O441 2.203 . S
Cd442 O444 2.411 . S
Cd442 O445 2.333 . S
Cd442 O446 2.352 . S
Cd442 O450 2.277 . S
Cd442 O451 2.356 . S
C443 O448 1.209 . S
C443 O450 1.226 . S
O444 Cd440 2.273 . S
O444 Cd442 2.411 . S
O444 C447 1.320 . S
O445 Cd442 2.333 . S
O445 C447 1.214 . S
O446 Cd442 2.352 . S
O446 C449 1.258 . S
C447 O444 1.320 . S
C447 O445 1.214 . S
O448 Cd440 2.277 . S
O448 C443 1.209 . S
C449 O446 1.258 . S
C449 O451 1.282 . S
O450 Cd442 2.277 . S
O450 C443 1.226 . S
O451 Cd442 2.356 . S
O451 C449 1.282 . S
C452 O453 1.306 . S
C452 O455 1.160 . S
O453 C452 1.306 . S
O453 Cd454 2.228 . S
Cd454 O453 2.228 . S
Cd454 O458 2.273 1_556 S
Cd454 O462 2.277 . S
O455 C452 1.160 . S
O455 Cd456 2.203 1_556 S
Cd456 O455 2.203 1_554 S
Cd456 O458 2.411 . S
Cd456 O459 2.333 . S
Cd456 O460 2.352 . S
Cd456 O464 2.277 1_554 S
Cd456 O465 2.356 . S
C457 O462 1.209 . S
C457 O464 1.226 . S
O458 Cd454 2.273 1_554 S
O458 Cd456 2.411 . S
O458 C461 1.320 . S
O459 Cd456 2.333 . S
O459 C461 1.214 . S
O460 Cd456 2.352 . S
O460 C463 1.258 . S
C461 O458 1.320 . S
C461 O459 1.214 . S
O462 Cd454 2.277 . S
O462 C457 1.209 . S
C463 O460 1.258 . S
C463 O465 1.282 . S
O464 Cd456 2.277 1_556 S
O464 C457 1.226 . S
O465 Cd456 2.356 . S
O465 C463 1.282 . S
C466 O467 1.306 . S
C466 O469 1.160 . S
O467 C466 1.306 . S
O467 Cd468 2.228 . S
Cd468 O467 2.228 . S
Cd468 O472 2.273 . S
Cd468 O476 2.277 . S
O469 C466 1.160 . S
O469 Cd470 2.203 . S
Cd470 O469 2.203 . S
Cd470 O472 2.411 . S
Cd470 O473 2.333 . S
Cd470 O474 2.352 . S
Cd470 O478 2.277 . S
Cd470 O479 2.356 . S
C471 O476 1.209 . S
C471 O478 1.226 . S
O472 Cd468 2.273 . S
O472 Cd470 2.411 . S
O472 C475 1.320 . S
O473 Cd470 2.333 . S
O473 C475 1.214 . S
O474 Cd470 2.352 . S
O474 C477 1.258 . S
C475 O472 1.320 . S
C475 O473 1.214 . S
O476 Cd468 2.277 . S
O476 C471 1.209 . S
C477 O474 1.258 . S
C477 O479 1.282 . S
O478 Cd470 2.277 . S
O478 C471 1.226 . S
O479 Cd470 2.356 . S
O479 C477 1.282 . S
H480 C486 0.930 . S
H481 C489 0.930 . S
H482 C490 0.930 . S
H483 C491 0.930 . S
H484 C494 0.930 . S
H485 C495 0.930 . S
C486 H480 0.930 . S
C486 C487 1.355 . S
C486 C488 1.415 . S
C487 C486 1.355 . S
C487 C489 1.419 . S
C488 C486 1.415 . S
C488 C493 1.425 . S
C488 C495 1.409 . S
C489 H481 0.930 . S
C489 C487 1.419 . S
C489 C490 1.362 . S
C490 H482 0.930 . S
C490 C489 1.362 . S
C490 C493 1.409 . S
C491 H483 0.930 . S
C491 C492 1.355 . S
C491 C493 1.415 . S
C492 C491 1.355 . S
C492 C494 1.419 . S
C493 C488 1.425 . S
C493 C490 1.409 . S
C493 C491 1.415 . S
C494 H484 0.930 . S
C494 C492 1.419 . S
C494 C495 1.362 . S
C495 H485 0.930 . S
C495 C488 1.409 . S
C495 C494 1.362 . S
H496 C502 0.930 . S
H497 C505 0.930 . S
H498 C506 0.930 . S
H499 C507 0.930 . S
H500 C510 0.930 . S
H501 C511 0.930 . S
C502 H496 0.930 . S
C502 C503 1.355 . S
C502 C504 1.415 . S
C503 C502 1.355 . S
C503 C505 1.419 . S
C504 C502 1.415 . S
C504 C509 1.425 . S
C504 C511 1.409 . S
C505 H497 0.930 . S
C505 C503 1.419 . S
C505 C506 1.362 . S
C506 H498 0.930 . S
C506 C505 1.362 . S
C506 C509 1.409 . S
C507 H499 0.930 . S
C507 C508 1.355 . S
C507 C509 1.415 . S
C508 C507 1.355 . S
C508 C510 1.419 . S
C509 C504 1.425 . S
C509 C506 1.409 . S
C509 C507 1.415 . S
C510 H500 0.930 . S
C510 C508 1.419 . S
C510 C511 1.362 . S
C511 H501 0.930 . S
C511 C504 1.409 . S
C511 C510 1.362 . S
H512 C518 0.930 . S
H513 C521 0.930 . S
H514 C522 0.930 . S
H515 C523 0.930 . S
H516 C526 0.930 . S
H517 C527 0.930 . S
C518 H512 0.930 . S
C518 C519 1.355 . S
C518 C520 1.415 . S
C519 C518 1.355 . S
C519 C521 1.419 . S
C520 C518 1.415 . S
C520 C525 1.425 . S
C520 C527 1.409 . S
C521 H513 0.930 . S
C521 C519 1.419 . S
C521 C522 1.362 . S
C522 H514 0.930 . S
C522 C521 1.362 . S
C522 C525 1.409 . S
C523 H515 0.930 . S
C523 C524 1.355 . S
C523 C525 1.415 . S
C524 C523 1.355 . S
C524 C526 1.419 . S
C525 C520 1.425 . S
C525 C522 1.409 . S
C525 C523 1.415 . S
C526 H516 0.930 . S
C526 C524 1.419 . S
C526 C527 1.362 . S
C527 H517 0.930 . S
C527 C520 1.409 . S
C527 C526 1.362 . S
H528 C534 0.930 . S
H529 C537 0.923 1_556 S
H530 C538 0.930 1_556 S
H531 C539 0.930 1_556 S
H532 C542 0.930 . S
H533 C543 0.930 . S
C534 H528 0.930 . S
C534 C535 1.355 . S
C534 C536 1.415 . S
C535 C534 1.355 . S
C535 C537 1.419 . S
C536 C534 1.415 . S
C536 C541 1.425 . S
C536 C543 1.409 . S
C537 H529 0.923 1_554 S
C537 C535 1.419 . S
C537 C538 1.362 . S
C538 H530 0.930 1_554 S
C538 C537 1.362 . S
C538 C541 1.409 . S
C539 H531 0.930 1_554 S
C539 C540 1.355 . S
C539 C541 1.415 . S
C540 C539 1.355 . S
C540 C542 1.419 . S
C541 C536 1.425 . S
C541 C538 1.409 . S
C541 C539 1.415 . S
C542 H532 0.930 . S
C542 C540 1.419 . S
C542 C543 1.362 . S
C543 H533 0.930 . S
C543 C536 1.409 . S
C543 C542 1.362 . S
H544 C550 0.930 . S
H545 C553 0.930 1_554 S
H546 C554 0.930 . S
H547 C555 0.930 . S
H548 C558 0.930 . S
H549 C559 0.930 . S
C550 H544 0.930 . S
C550 C551 1.355 . S
C550 C552 1.415 . S
C551 C550 1.355 . S
C551 C553 1.419 . S
C552 C550 1.415 . S
C552 C557 1.425 . S
C552 C559 1.409 . S
C553 H545 0.930 1_556 S
C553 C551 1.419 . S
C553 C554 1.362 1_556 S
C554 H546 0.930 . S
C554 C553 1.362 1_554 S
C554 C557 1.409 1_554 S
C555 H547 0.930 . S
C555 C556 1.355 1_554 S
C555 C557 1.415 1_554 S
C556 C555 1.355 1_556 S
C556 C558 1.419 . S
C557 C552 1.425 . S
C557 C554 1.409 1_556 S
C557 C555 1.415 1_556 S
C558 H548 0.930 . S
C558 C556 1.419 . S
C558 C559 1.362 . S
C559 H549 0.930 . S
C559 C552 1.409 . S
C559 C558 1.362 . S
H560 C566 0.930 . S
H561 C569 0.930 . S
H562 C570 0.930 . S
H563 C571 0.930 . S
H564 C574 0.930 . S
H565 C575 0.930 . S
C566 H560 0.930 . S
C566 C567 1.355 . S
C566 C568 1.415 . S
C567 C566 1.355 . S
C567 C569 1.419 . S
C568 C566 1.415 . S
C568 C573 1.425 . S
C568 C575 1.409 . S
C569 H561 0.930 . S
C569 C567 1.419 . S
C569 C570 1.362 . S
C570 H562 0.930 . S
C570 C569 1.362 . S
C570 C573 1.409 . S
C571 H563 0.930 . S
C571 C572 1.355 . S
C571 C573 1.415 . S
C572 C571 1.355 . S
C572 C574 1.419 . S
C573 C568 1.425 . S
C573 C570 1.409 . S
C573 C571 1.415 . S
C574 H564 0.930 . S
C574 C572 1.419 . S
C574 C575 1.362 . S
C575 H565 0.930 . S
C575 C568 1.409 . S
C575 C574 1.362 . S
H576 C582 0.930 . S
H577 C585 0.930 . S
H578 C586 0.930 . S
H579 C587 0.930 . S
H580 C590 0.930 . S
H581 C591 0.930 . S
C582 H576 0.930 . S
C582 C583 1.355 . S
C582 C584 1.415 . S
C583 C582 1.355 . S
C583 C585 1.419 . S
C584 C582 1.415 . S
C584 C589 1.425 . S
C584 C591 1.409 . S
C585 H577 0.930 . S
C585 C583 1.419 . S
C585 C586 1.362 . S
C586 H578 0.930 . S
C586 C585 1.362 . S
C586 C589 1.409 . S
C587 H579 0.930 . S
C587 C588 1.355 . S
C587 C589 1.415 . S
C588 C587 1.355 . S
C588 C590 1.419 . S
C589 C584 1.425 . S
C589 C586 1.409 . S
C589 C587 1.415 . S
C590 H580 0.930 . S
C590 C588 1.419 . S
C590 C591 1.362 . S
C591 H581 0.930 . S
C591 C584 1.409 . S
C591 C590 1.362 . S
H592 C598 0.930 . S
H593 C601 0.930 . S
H594 C602 0.930 . S
H595 C603 0.930 . S
H596 C606 0.930 . S
H597 C607 0.930 . S
C598 H592 0.930 . S
C598 C599 1.355 . S
C598 C600 1.415 . S
C599 C598 1.355 . S
C599 C601 1.419 . S
C600 C598 1.415 . S
C600 C605 1.425 . S
C600 C607 1.409 . S
C601 H593 0.930 . S
C601 C599 1.419 . S
C601 C602 1.362 . S
C602 H594 0.930 . S
C602 C601 1.362 . S
C602 C605 1.409 . S
C603 H595 0.930 . S
C603 C604 1.355 . S
C603 C605 1.415 . S
C604 C603 1.355 . S
C604 C606 1.419 . S
C605 C600 1.425 . S
C605 C602 1.409 . S
C605 C603 1.415 . S
C606 H596 0.930 . S
C606 C604 1.419 . S
C606 C607 1.362 . S
C607 H597 0.930 . S
C607 C600 1.409 . S
C607 C606 1.362 . S
H608 C614 0.930 . S
H609 C617 0.930 . S
H610 C618 0.930 . S
H611 C619 0.930 . S
H612 C622 0.930 . S
H613 C623 0.930 . S
C614 H608 0.930 . S
C614 C615 1.355 . S
C614 C616 1.415 . S
C615 C614 1.355 . S
C615 C617 1.419 . S
C616 C614 1.415 . S
C616 C621 1.425 . S
C616 C623 1.409 . S
C617 H609 0.930 . S
C617 C615 1.419 . S
C617 C618 1.362 . S
C618 H610 0.930 . S
C618 C617 1.362 . S
C618 C621 1.409 . S
C619 H611 0.930 . S
C619 C620 1.355 . S
C619 C621 1.415 . S
C620 C619 1.355 . S
C620 C622 1.419 . S
C621 C616 1.425 . S
C621 C618 1.409 . S
C621 C619 1.415 . S
C622 H612 0.930 . S
C622 C620 1.419 . S
C622 C623 1.362 . S
C623 H613 0.930 . S
C623 C616 1.409 . S
C623 C622 1.362 . S
H624 C630 0.930 . S
H625 C633 0.930 . S
H626 C634 0.930 . S
H627 C635 0.930 . S
H628 C638 0.930 1_556 S
H629 C639 0.930 1_556 S
C630 H624 0.930 . S
C630 C631 1.355 . S
C630 C632 1.415 . S
C631 C630 1.355 . S
C631 C633 1.419 . S
C632 C630 1.415 . S
C632 C637 1.425 . S
C632 C639 1.409 . S
C633 H625 0.930 . S
C633 C631 1.419 . S
C633 C634 1.362 . S
C634 H626 0.930 . S
C634 C633 1.362 . S
C634 C637 1.409 . S
C635 H627 0.930 . S
C635 C636 1.355 . S
C635 C637 1.415 . S
C636 C635 1.355 . S
C636 C638 1.419 . S
C637 C632 1.425 . S
C637 C634 1.409 . S
C637 C635 1.415 . S
C638 H628 0.930 1_554 S
C638 C636 1.419 . S
C638 C639 1.362 . S
C639 H629 0.930 1_554 S
C639 C632 1.409 . S
C639 C638 1.362 . S
H640 C646 0.930 . S
H641 C649 0.930 . S
H642 C650 0.930 . S
H643 C651 0.930 . S
H644 C654 0.930 . S
H645 C655 0.930 . S
C646 H640 0.930 . S
C646 C647 1.355 . S
C646 C648 1.415 . S
C647 C646 1.355 . S
C647 C649 1.419 . S
C648 C646 1.415 . S
C648 C653 1.425 . S
C648 C655 1.409 . S
C649 H641 0.930 . S
C649 C647 1.419 . S
C649 C650 1.362 . S
C650 H642 0.930 . S
C650 C649 1.362 . S
C650 C653 1.409 . S
C651 H643 0.930 . S
C651 C652 1.355 . S
C651 C653 1.415 . S
C652 C651 1.355 . S
C652 C654 1.419 . S
C653 C648 1.425 . S
C653 C650 1.409 . S
C653 C651 1.415 . S
C654 H644 0.930 . S
C654 C652 1.419 . S
C654 C655 1.362 . S
C655 H645 0.930 . S
C655 C648 1.409 . S
C655 C654 1.362 . S
H656 C662 0.930 . S
H657 C665 0.930 . S
H658 C666 0.930 . S
H659 C667 0.930 . S
H660 C670 0.930 . S
H661 C671 0.930 . S
C662 H656 0.930 . S
C662 C663 1.355 . S
C662 C664 1.415 . S
C663 C662 1.355 . S
C663 C665 1.419 . S
C664 C662 1.415 . S
C664 C669 1.425 . S
C664 C671 1.409 . S
C665 H657 0.930 . S
C665 C663 1.419 . S
C665 C666 1.362 . S
C666 H658 0.930 . S
C666 C665 1.362 . S
C666 C669 1.409 . S
C667 H659 0.930 . S
C667 C668 1.355 . S
C667 C669 1.415 . S
C668 C667 1.355 . S
C668 C670 1.419 . S
C669 C664 1.425 . S
C669 C666 1.409 . S
C669 C667 1.415 . S
C670 H660 0.930 . S
C670 C668 1.419 . S
C670 C671 1.362 . S
C671 H661 0.930 . S
C671 C664 1.409 . S
C671 C670 1.362 . S
H672 C678 0.930 . S
H673 C681 0.930 . S
H674 C682 0.930 . S
H675 C683 0.930 . S
H676 C686 0.930 . S
H677 C687 0.930 . S
C678 H672 0.930 . S
C678 C679 1.355 . S
C678 C680 1.415 . S
C679 C678 1.355 . S
C679 C681 1.419 . S
C680 C678 1.415 . S
C680 C685 1.425 . S
C680 C687 1.409 . S
C681 H673 0.930 . S
C681 C679 1.419 . S
C681 C682 1.362 . S
C682 H674 0.930 . S
C682 C681 1.362 . S
C682 C685 1.409 . S
C683 H675 0.930 . S
C683 C684 1.355 . S
C683 C685 1.415 . S
C684 C683 1.355 . S
C684 C686 1.419 . S
C685 C680 1.425 . S
C685 C682 1.409 . S
C685 C683 1.415 . S
C686 H676 0.930 . S
C686 C684 1.419 . S
C686 C687 1.362 . S
C687 H677 0.930 . S
C687 C680 1.409 . S
C687 C686 1.362 . S
H688 C694 0.930 . S
H689 C697 0.930 . S
H690 C698 0.930 . S
H691 C699 0.930 . S
H692 C702 0.930 . S
H693 C703 0.930 . S
C694 H688 0.930 . S
C694 C695 1.355 . S
C694 C696 1.415 . S
C695 C694 1.355 . S
C695 C697 1.419 . S
C696 C694 1.415 . S
C696 C701 1.425 . S
C696 C703 1.409 . S
C697 H689 0.930 . S
C697 C695 1.419 . S
C697 C698 1.362 . S
C698 H690 0.930 . S
C698 C697 1.362 . S
C698 C701 1.409 . S
C699 H691 0.930 . S
C699 C700 1.355 . S
C699 C701 1.415 . S
C700 C699 1.355 . S
C700 C702 1.419 . S
C701 C696 1.425 . S
C701 C698 1.409 . S
C701 C699 1.415 . S
C702 H692 0.930 . S
C702 C700 1.419 . S
C702 C703 1.362 . S
C703 H693 0.930 . S
C703 C696 1.409 . S
C703 C702 1.362 . S
H704 C710 0.930 . S
H705 C713 0.930 . S
H706 C714 0.930 . S
H707 C715 0.930 . S
H708 C718 0.930 . S
H709 C719 0.930 . S
C710 H704 0.930 . S
C710 C711 1.355 . S
C710 C712 1.415 . S
C711 C710 1.355 . S
C711 C713 1.419 . S
C712 C710 1.415 . S
C712 C717 1.425 . S
C712 C719 1.409 1_556 S
C713 H705 0.930 . S
C713 C711 1.419 . S
C713 C714 1.362 . S
C714 H706 0.930 . S
C714 C713 1.362 . S
C714 C717 1.409 . S
C715 H707 0.930 . S
C715 C716 1.355 . S
C715 C717 1.415 . S
C716 C715 1.355 . S
C716 C718 1.419 1_556 S
C717 C712 1.425 . S
C717 C714 1.409 . S
C717 C715 1.415 . S
C718 H708 0.930 . S
C718 C716 1.419 1_554 S
C718 C719 1.362 . S
C719 H709 0.930 . S
C719 C712 1.409 1_554 S
C719 C718 1.362 . S
H720 C726 0.930 . S
H721 C729 0.930 . S
H722 C730 0.930 . S
H723 C731 0.930 . S
H724 C734 0.930 . S
H725 C735 0.930 . S
C726 H720 0.930 . S
C726 C727 1.355 . S
C726 C728 1.415 . S
C727 C726 1.355 . S
C727 C729 1.419 . S
C728 C726 1.415 . S
C728 C733 1.425 . S
C728 C735 1.409 . S
C729 H721 0.930 . S
C729 C727 1.419 . S
C729 C730 1.362 . S
C730 H722 0.930 . S
C730 C729 1.362 . S
C730 C733 1.409 . S
C731 H723 0.930 . S
C731 C732 1.355 . S
C731 C733 1.415 . S
C732 C731 1.355 . S
C732 C734 1.419 . S
C733 C728 1.425 . S
C733 C730 1.409 . S
C733 C731 1.415 . S
C734 H724 0.930 . S
C734 C732 1.419 . S
C734 C735 1.362 . S
C735 H725 0.930 . S
C735 C728 1.409 . S
C735 C734 1.362 . S
H736 C742 0.930 . S
H737 C745 0.930 . S
H738 C746 0.930 . S
H739 C747 0.930 . S
H740 C750 0.930 . S
H741 C751 0.930 . S
C742 H736 0.930 . S
C742 C743 1.355 . S
C742 C744 1.415 . S
C743 C742 1.355 . S
C743 C745 1.419 . S
C744 C742 1.415 . S
C744 C749 1.425 . S
C744 C751 1.409 . S
C745 H737 0.930 . S
C745 C743 1.419 . S
C745 C746 1.362 . S
C746 H738 0.930 . S
C746 C745 1.362 . S
C746 C749 1.409 . S
C747 H739 0.930 . S
C747 C748 1.355 . S
C747 C749 1.415 . S
C748 C747 1.355 . S
C748 C750 1.419 . S
C749 C744 1.425 . S
C749 C746 1.409 . S
C749 C747 1.415 . S
C750 H740 0.930 . S
C750 C748 1.419 . S
C750 C751 1.362 . S
C751 H741 0.930 . S
C751 C744 1.409 . S
C751 C750 1.362 . S
H752 C758 0.930 . S
H753 C761 0.930 . S
H754 C762 0.930 . S
H755 C763 0.930 . S
H756 C766 0.930 . S
H757 C767 0.930 . S
C758 H752 0.930 . S
C758 C759 1.355 . S
C758 C760 1.415 . S
C759 C758 1.355 . S
C759 C761 1.419 . S
C760 C758 1.415 . S
C760 C765 1.425 . S
C760 C767 1.409 . S
C761 H753 0.930 . S
C761 C759 1.419 . S
C761 C762 1.362 . S
C762 H754 0.930 . S
C762 C761 1.362 . S
C762 C765 1.409 . S
C763 H755 0.930 . S
C763 C764 1.355 . S
C763 C765 1.415 . S
C764 C763 1.355 . S
C764 C766 1.419 . S
C765 C760 1.425 . S
C765 C762 1.409 . S
C765 C763 1.415 . S
C766 H756 0.930 . S
C766 C764 1.419 . S
C766 C767 1.362 . S
C767 H757 0.930 . S
C767 C760 1.409 . S
C767 C766 1.362 . S
H768 C774 0.930 . S
H769 C777 0.930 . S
H770 C778 0.930 . S
H771 C779 0.930 . S
H772 C782 0.930 . S
H773 C783 0.930 . S
C774 H768 0.930 . S
C774 C775 1.355 . S
C774 C776 1.415 . S
C775 C774 1.355 . S
C775 C777 1.419 . S
C776 C774 1.415 . S
C776 C781 1.425 . S
C776 C783 1.409 . S
C777 H769 0.930 . S
C777 C775 1.419 . S
C777 C778 1.362 . S
C778 H770 0.930 . S
C778 C777 1.362 . S
C778 C781 1.409 . S
C779 H771 0.930 . S
C779 C780 1.355 . S
C779 C781 1.415 . S
C780 C779 1.355 . S
C780 C782 1.419 . S
C781 C776 1.425 . S
C781 C778 1.409 . S
C781 C779 1.415 . S
C782 H772 0.930 . S
C782 C780 1.419 . S
C782 C783 1.362 . S
C783 H773 0.930 . S
C783 C776 1.409 . S
C783 C782 1.362 . S
H784 C790 0.930 . S
H785 C793 0.930 . S
H786 C794 0.930 . S
H787 C795 0.930 . S
H788 C798 0.930 . S
H789 C799 0.930 . S
C790 H784 0.930 . S
C790 C791 1.355 . S
C790 C792 1.415 . S
C791 C790 1.355 . S
C791 C793 1.419 . S
C792 C790 1.415 . S
C792 C797 1.425 . S
C792 C799 1.409 . S
C793 H785 0.930 . S
C793 C791 1.419 . S
C793 C794 1.362 . S
C794 H786 0.930 . S
C794 C793 1.362 . S
C794 C797 1.409 . S
C795 H787 0.930 . S
C795 C796 1.355 . S
C795 C797 1.415 . S
C796 C795 1.355 . S
C796 C798 1.419 . S
C797 C792 1.425 . S
C797 C794 1.409 . S
C797 C795 1.415 . S
C798 H788 0.930 . S
C798 C796 1.419 . S
C798 C799 1.362 . S
C799 H789 0.930 . S
C799 C792 1.409 . S
C799 C798 1.362 . S
H800 C806 0.930 . S
H801 C809 0.930 . S
H802 C810 0.930 . S
H803 C811 0.930 . S
H804 C814 0.930 . S
H805 C815 0.930 . S
C806 H800 0.930 . S
C806 C807 1.355 . S
C806 C808 1.415 . S
C807 C806 1.355 . S
C807 C809 1.419 . S
C808 C806 1.415 . S
C808 C813 1.425 . S
C808 C815 1.409 . S
C809 H801 0.930 . S
C809 C807 1.419 . S
C809 C810 1.362 . S
C810 H802 0.930 . S
C810 C809 1.362 . S
C810 C813 1.409 . S
C811 H803 0.930 . S
C811 C812 1.355 . S
C811 C813 1.415 . S
C812 C811 1.355 . S
C812 C814 1.419 . S
C813 C808 1.425 . S
C813 C810 1.409 . S
C813 C811 1.415 . S
C814 H804 0.930 . S
C814 C812 1.419 . S
C814 C815 1.362 . S
C815 H805 0.930 . S
C815 C808 1.409 . S
C815 C814 1.362 . S
H816 C822 0.930 . S
H817 C825 0.930 . S
H818 C826 0.930 . S
H819 C827 0.930 . S
H820 C830 0.930 . S
H821 C831 0.930 . S
C822 H816 0.930 . S
C822 C823 1.355 . S
C822 C824 1.415 . S
C823 C822 1.355 . S
C823 C825 1.419 . S
C824 C822 1.415 . S
C824 C829 1.425 . S
C824 C831 1.409 . S
C825 H817 0.930 . S
C825 C823 1.419 . S
C825 C826 1.362 . S
C826 H818 0.930 . S
C826 C825 1.362 . S
C826 C829 1.409 . S
C827 H819 0.930 . S
C827 C828 1.355 . S
C827 C829 1.415 . S
C828 C827 1.355 . S
C828 C830 1.419 . S
C829 C824 1.425 . S
C829 C826 1.409 . S
C829 C827 1.415 . S
C830 H820 0.930 . S
C830 C828 1.419 . S
C830 C831 1.362 . S
C831 H821 0.930 . S
C831 C824 1.409 . S
C831 C830 1.362 . S
H832 C838 0.930 . S
H833 C841 0.930 . S
H834 C842 0.930 . S
H835 C843 0.930 . S
H836 C846 0.930 . S
H837 C847 0.930 . S
C838 H832 0.930 . S
C838 C839 1.355 . S
C838 C840 1.415 . S
C839 C838 1.355 . S
C839 C841 1.419 . S
C840 C838 1.415 . S
C840 C845 1.425 . S
C840 C847 1.409 . S
C841 H833 0.930 . S
C841 C839 1.419 . S
C841 C842 1.362 . S
C842 H834 0.930 . S
C842 C841 1.362 . S
C842 C845 1.409 . S
C843 H835 0.930 . S
C843 C844 1.355 . S
C843 C845 1.415 . S
C844 C843 1.355 . S
C844 C846 1.419 . S
C845 C840 1.425 . S
C845 C842 1.409 . S
C845 C843 1.415 . S
C846 H836 0.930 . S
C846 C844 1.419 . S
C846 C847 1.362 . S
C847 H837 0.930 . S
C847 C840 1.409 . S
C847 C846 1.362 . S
H848 C854 0.930 . S
H849 C857 0.930 . S
H850 C858 0.930 . S
H851 C859 0.930 . S
H852 C862 0.930 . S
H853 C863 0.930 . S
C854 H848 0.930 . S
C854 C855 1.355 . S
C854 C856 1.415 . S
C855 C854 1.355 . S
C855 C857 1.419 . S
C856 C854 1.415 . S
C856 C861 1.425 . S
C856 C863 1.409 . S
C857 H849 0.930 . S
C857 C855 1.419 . S
C857 C858 1.362 . S
C858 H850 0.930 . S
C858 C857 1.362 . S
C858 C861 1.409 . S
C859 H851 0.930 . S
C859 C860 1.355 . S
C859 C861 1.415 . S
C860 C859 1.355 . S
C860 C862 1.419 . S
C861 C856 1.425 . S
C861 C858 1.409 . S
C861 C859 1.415 . S
C862 H852 0.930 . S
C862 C860 1.419 . S
C862 C863 1.362 . S
C863 H853 0.930 . S
C863 C856 1.409 . S
C863 C862 1.362 . S
H864 C870 0.930 . S
H865 C873 0.930 . S
H866 C874 0.930 . S
H867 C875 0.930 . S
H868 C878 0.930 . S
H869 C879 0.930 . S
C870 H864 0.930 . S
C870 C871 1.355 . S
C870 C872 1.415 . S
C871 C870 1.355 . S
C871 C873 1.419 . S
C872 C870 1.415 . S
C872 C877 1.425 . S
C872 C879 1.409 . S
C873 H865 0.930 . S
C873 C871 1.419 . S
C873 C874 1.362 . S
C874 H866 0.930 . S
C874 C873 1.362 . S
C874 C877 1.409 . S
C875 H867 0.930 . S
C875 C876 1.355 . S
C875 C877 1.415 . S
C876 C875 1.355 . S
C876 C878 1.419 . S
C877 C872 1.425 . S
C877 C874 1.409 . S
C877 C875 1.415 . S
C878 H868 0.930 . S
C878 C876 1.419 . S
C878 C879 1.362 . S
C879 H869 0.930 . S
C879 C872 1.409 . S
C879 C878 1.362 . S
H880 C886 0.930 . S
H881 C889 0.930 . S
H882 C890 0.930 . S
H883 C891 0.930 . S
H884 C894 0.930 . S
H885 C895 0.930 . S
C886 H880 0.930 . S
C886 C887 1.355 . S
C886 C888 1.415 . S
C887 C886 1.355 . S
C887 C889 1.419 . S
C888 C886 1.415 . S
C888 C893 1.425 . S
C888 C895 1.409 . S
C889 H881 0.930 . S
C889 C887 1.419 . S
C889 C890 1.362 . S
C890 H882 0.930 . S
C890 C889 1.362 . S
C890 C893 1.409 . S
C891 H883 0.930 . S
C891 C892 1.355 . S
C891 C893 1.415 . S
C892 C891 1.355 . S
C892 C894 1.419 . S
C893 C888 1.425 . S
C893 C890 1.409 . S
C893 C891 1.415 . S
C894 H884 0.930 . S
C894 C892 1.419 . S
C894 C895 1.362 . S
C895 H885 0.930 . S
C895 C888 1.409 . S
C895 C894 1.362 . S
H896 C902 0.930 . S
H897 C905 0.930 . S
H898 C906 0.930 . S
H899 C907 0.930 . S
H900 C910 0.930 . S
H901 C911 0.930 . S
C902 H896 0.930 . S
C902 C903 1.355 . S
C902 C904 1.415 . S
C903 C902 1.355 . S
C903 C905 1.419 . S
C904 C902 1.415 . S
C904 C909 1.425 . S
C904 C911 1.409 . S
C905 H897 0.930 . S
C905 C903 1.419 . S
C905 C906 1.362 . S
C906 H898 0.930 . S
C906 C905 1.362 . S
C906 C909 1.409 . S
C907 H899 0.930 . S
C907 C908 1.355 . S
C907 C909 1.415 . S
C908 C907 1.355 . S
C908 C910 1.419 . S
C909 C904 1.425 . S
C909 C906 1.409 . S
C909 C907 1.415 . S
C910 H900 0.930 . S
C910 C908 1.419 . S
C910 C911 1.362 . S
C911 H901 0.930 . S
C911 C904 1.409 . S
C911 C910 1.362 . S
H912 C918 0.930 . S
H913 C921 0.930 . S
H914 C922 0.930 . S
H915 C923 0.930 . S
H916 C926 0.930 . S
H917 C927 0.930 . S
C918 H912 0.930 . S
C918 C919 1.355 . S
C918 C920 1.415 . S
C919 C918 1.355 . S
C919 C921 1.419 . S
C920 C918 1.415 . S
C920 C925 1.425 . S
C920 C927 1.409 . S
C921 H913 0.930 . S
C921 C919 1.419 . S
C921 C922 1.362 . S
C922 H914 0.930 . S
C922 C921 1.362 . S
C922 C925 1.409 . S
C923 H915 0.930 . S
C923 C924 1.355 . S
C923 C925 1.415 . S
C924 C923 1.355 . S
C924 C926 1.419 . S
C925 C920 1.425 . S
C925 C922 1.409 . S
C925 C923 1.415 . S
C926 H916 0.930 . S
C926 C924 1.419 . S
C926 C927 1.362 . S
C927 H917 0.930 . S
C927 C920 1.409 . S
C927 C926 1.362 . S
H928 C934 0.930 . S
H929 C937 0.930 . S
H930 C938 0.930 . S
H931 C939 0.930 . S
H932 C942 0.930 . S
H933 C943 0.930 . S
C934 H928 0.930 . S
C934 C935 1.355 . S
C934 C936 1.415 . S
C935 C934 1.355 . S
C935 C937 1.419 . S
C936 C934 1.415 . S
C936 C941 1.425 . S
C936 C943 1.409 . S
C937 H929 0.930 . S
C937 C935 1.419 . S
C937 C938 1.362 . S
C938 H930 0.930 . S
C938 C937 1.362 . S
C938 C941 1.409 . S
C939 H931 0.930 . S
C939 C940 1.355 . S
C939 C941 1.415 . S
C940 C939 1.355 . S
C940 C942 1.419 . S
C941 C936 1.425 . S
C941 C938 1.409 . S
C941 C939 1.415 . S
C942 H932 0.930 . S
C942 C940 1.419 . S
C942 C943 1.362 . S
C943 H933 0.930 . S
C943 C936 1.409 . S
C943 C942 1.362 . S
H944 C950 0.930 . S
H945 C953 0.930 . S
H946 C954 0.930 . S
H947 C955 0.930 . S
H948 C958 0.930 . S
H949 C959 0.930 . S
C950 H944 0.930 . S
C950 C951 1.355 . S
C950 C952 1.415 . S
C951 C950 1.355 . S
C951 C953 1.419 . S
C952 C950 1.415 . S
C952 C957 1.425 . S
C952 C959 1.409 . S
C953 H945 0.930 . S
C953 C951 1.419 . S
C953 C954 1.362 . S
C954 H946 0.930 . S
C954 C953 1.362 . S
C954 C957 1.409 . S
C955 H947 0.930 . S
C955 C956 1.355 . S
C955 C957 1.415 . S
C956 C955 1.355 . S
C956 C958 1.419 . S
C957 C952 1.425 . S
C957 C954 1.409 . S
C957 C955 1.415 . S
C958 H948 0.930 . S
C958 C956 1.419 . S
C958 C959 1.362 . S
C959 H949 0.930 . S
C959 C952 1.409 . S
C959 C958 1.362 . S
H960 C966 0.930 . S
H961 C969 0.930 . S
H962 C970 0.930 . S
H963 C971 0.930 . S
H964 C974 0.930 . S
H965 C975 0.930 . S
C966 H960 0.930 . S
C966 C967 1.355 . S
C966 C968 1.415 . S
C967 C966 1.355 . S
C967 C969 1.419 . S
C968 C966 1.415 . S
C968 C973 1.425 . S
C968 C975 1.409 . S
C969 H961 0.930 . S
C969 C967 1.419 . S
C969 C970 1.362 . S
C970 H962 0.930 . S
C970 C969 1.362 . S
C970 C973 1.409 . S
C971 H963 0.930 . S
C971 C972 1.355 . S
C971 C973 1.415 . S
C972 C971 1.355 . S
C972 C974 1.419 . S
C973 C968 1.425 . S
C973 C970 1.409 . S
C973 C971 1.415 . S
C974 H964 0.930 . S
C974 C972 1.419 . S
C974 C975 1.362 . S
C975 H965 0.930 . S
C975 C968 1.409 . S
C975 C974 1.362 . S
H976 C982 0.930 . S
H977 C985 0.930 . S
H978 C986 0.930 . S
H979 C987 0.930 . S
H980 C990 0.930 . S
H981 C991 0.930 . S
C982 H976 0.930 . S
C982 C983 1.355 . S
C982 C984 1.415 . S
C983 C982 1.355 . S
C983 C985 1.419 . S
C984 C982 1.415 . S
C984 C989 1.425 . S
C984 C991 1.409 . S
C985 H977 0.930 . S
C985 C983 1.419 . S
C985 C986 1.362 . S
C986 H978 0.930 . S
C986 C985 1.362 . S
C986 C989 1.409 . S
C987 H979 0.930 . S
C987 C988 1.355 . S
C987 C989 1.415 . S
C988 C987 1.355 . S
C988 C990 1.419 . S
C989 C984 1.425 . S
C989 C986 1.409 . S
C989 C987 1.415 . S
C990 H980 0.930 . S
C990 C988 1.419 . S
C990 C991 1.362 . S
C991 H981 0.930 . S
C991 C984 1.409 . S
C991 C990 1.362 . S
C492 C393 1.361 . S
C487 C8 1.349 . S
C508 C407 1.369 . S
C503 C61 1.371 . S
C524 C415 1.412 . S
C519 C107 1.413 . S
C535 C139 1.385 . S
C540 C373 1.389 . S
C551 C192 1.322 . S
C556 C379 1.318 1_556 S
C567 C238 1.317 . S
C572 C387 1.311 . S
C588 C401 1.425 . S
C583 C284 1.421 . S
C604 C421 1.388 . S
C599 C330 1.390 . S
C615 C100 1.298 . S
C620 C449 1.333 . S
C636 C463 1.424 . S
C631 C160 1.370 . S
C647 C15 1.325 . S
C652 C471 1.328 . S
C668 C435 1.293 . S
C663 C54 1.222 . S
C679 C291 1.356 . S
C684 C429 1.413 . S
C695 C337 1.416 . S
C700 C443 1.408 . S
C716 C457 1.380 . S
C711 C199 1.358 . S
C727 C245 1.348 . S
C732 C477 1.421 . S
C748 C396 1.649 . S
C743 C1 1.687 . S
C764 C419 1.691 . S
C759 C68 1.683 . S
C775 C114 1.753 . S
C780 C377 1.746 . S
C791 C146 1.746 . S
C796 C382 1.728 . S
C807 C185 1.638 . S
C812 C410 1.617 . S
C828 C368 1.624 . S
C823 C231 1.661 . S
C844 C391 1.637 . S
C839 C277 1.642 . S
C860 C405 1.656 . S
C855 C323 1.652 . S
C876 C452 1.582 . S
C871 C93 1.624 . S
C892 C475 1.639 . S
C887 C153 1.657 . S
C903 C22 1.610 . S
C908 C424 1.559 . S
C924 C438 1.600 . S
C919 C47 1.634 . S
C940 C466 1.712 . S
C935 C298 1.759 . S
C951 C344 1.738 . S
C956 C433 1.723 . S
C972 C447 1.728 . S
C967 C206 1.745 . S
C988 C461 1.695 . S
C983 C252 1.714 . S
