# Generated by pormake.
# Topology ctn, (3,4)-cn, num edge types: 1
# Building blocks:
#     Node 0, Type 0, BuildingBlock: ESEHIV_clean_linker_0, # of connection points: 3
#     Node 1, Type 0, BuildingBlock: ESEHIV_clean_linker_0, # of connection points: 3
#     Node 2, Type 0, BuildingBlock: ESEHIV_clean_linker_0, # of connection points: 3
#     Node 3, Type 0, BuildingBlock: ESEHIV_clean_linker_0, # of connection points: 3
#     Node 4, Type 0, BuildingBlock: ESEHIV_clean_linker_0, # of connection points: 3
#     Node 5, Type 0, BuildingBlock: ESEHIV_clean_linker_0, # of connection points: 3
#     Node 6, Type 0, BuildingBlock: ESEHIV_clean_linker_0, # of connection points: 3
#     Node 7, Type 0, BuildingBlock: ESEHIV_clean_linker_0, # of connection points: 3
#     Node 8, Type 0, BuildingBlock: ESEHIV_clean_linker_0, # of connection points: 3
#     Node 9, Type 0, BuildingBlock: ESEHIV_clean_linker_0, # of connection points: 3
#     Node 10, Type 0, BuildingBlock: ESEHIV_clean_linker_0, # of connection points: 3
#     Node 11, Type 0, BuildingBlock: ESEHIV_clean_linker_0, # of connection points: 3
#     Node 12, Type 0, BuildingBlock: ESEHIV_clean_linker_0, # of connection points: 3
#     Node 13, Type 0, BuildingBlock: ESEHIV_clean_linker_0, # of connection points: 3
#     Node 14, Type 0, BuildingBlock: ESEHIV_clean_linker_0, # of connection points: 3
#     Node 15, Type 0, BuildingBlock: ESEHIV_clean_linker_0, # of connection points: 3
#     Node 16, Type 1, BuildingBlock: UXUYUI_clean_sbu_0, # of connection points: 4
#     Node 17, Type 1, BuildingBlock: UXUYUI_clean_sbu_0, # of connection points: 4
#     Node 18, Type 1, BuildingBlock: UXUYUI_clean_sbu_0, # of connection points: 4
#     Node 19, Type 1, BuildingBlock: UXUYUI_clean_sbu_0, # of connection points: 4
#     Node 20, Type 1, BuildingBlock: UXUYUI_clean_sbu_0, # of connection points: 4
#     Node 21, Type 1, BuildingBlock: UXUYUI_clean_sbu_0, # of connection points: 4
#     Node 22, Type 1, BuildingBlock: UXUYUI_clean_sbu_0, # of connection points: 4
#     Node 23, Type 1, BuildingBlock: UXUYUI_clean_sbu_0, # of connection points: 4
#     Node 24, Type 1, BuildingBlock: UXUYUI_clean_sbu_0, # of connection points: 4
#     Node 25, Type 1, BuildingBlock: UXUYUI_clean_sbu_0, # of connection points: 4
#     Node 26, Type 1, BuildingBlock: UXUYUI_clean_sbu_0, # of connection points: 4
#     Node 27, Type 1, BuildingBlock: UXUYUI_clean_sbu_0, # of connection points: 4
#     Edge 28, Type (0, 1), BuildingBlock: TEMPAE_clean_linker_10, # of connection points: 2
#     Edge 29, Type (0, 1), BuildingBlock: TEMPAE_clean_linker_10, # of connection points: 2
#     Edge 30, Type (0, 1), BuildingBlock: TEMPAE_clean_linker_10, # of connection points: 2
#     Edge 31, Type (0, 1), BuildingBlock: TEMPAE_clean_linker_10, # of connection points: 2
#     Edge 32, Type (0, 1), BuildingBlock: TEMPAE_clean_linker_10, # of connection points: 2
#     Edge 33, Type (0, 1), BuildingBlock: TEMPAE_clean_linker_10, # of connection points: 2
#     Edge 34, Type (0, 1), BuildingBlock: TEMPAE_clean_linker_10, # of connection points: 2
#     Edge 35, Type (0, 1), BuildingBlock: TEMPAE_clean_linker_10, # of connection points: 2
#     Edge 36, Type (0, 1), BuildingBlock: TEMPAE_clean_linker_10, # of connection points: 2
#     Edge 37, Type (0, 1), BuildingBlock: TEMPAE_clean_linker_10, # of connection points: 2
#     Edge 38, Type (0, 1), BuildingBlock: TEMPAE_clean_linker_10, # of connection points: 2
#     Edge 39, Type (0, 1), BuildingBlock: TEMPAE_clean_linker_10, # of connection points: 2
#     Edge 40, Type (0, 1), BuildingBlock: TEMPAE_clean_linker_10, # of connection points: 2
#     Edge 41, Type (0, 1), BuildingBlock: TEMPAE_clean_linker_10, # of connection points: 2
#     Edge 42, Type (0, 1), BuildingBlock: TEMPAE_clean_linker_10, # of connection points: 2
#     Edge 43, Type (0, 1), BuildingBlock: TEMPAE_clean_linker_10, # of connection points: 2
#     Edge 44, Type (0, 1), BuildingBlock: TEMPAE_clean_linker_10, # of connection points: 2
#     Edge 45, Type (0, 1), BuildingBlock: TEMPAE_clean_linker_10, # of connection points: 2
#     Edge 46, Type (0, 1), BuildingBlock: TEMPAE_clean_linker_10, # of connection points: 2
#     Edge 47, Type (0, 1), BuildingBlock: TEMPAE_clean_linker_10, # of connection points: 2
#     Edge 48, Type (0, 1), BuildingBlock: TEMPAE_clean_linker_10, # of connection points: 2
#     Edge 49, Type (0, 1), BuildingBlock: TEMPAE_clean_linker_10, # of connection points: 2
#     Edge 50, Type (0, 1), BuildingBlock: TEMPAE_clean_linker_10, # of connection points: 2
#     Edge 51, Type (0, 1), BuildingBlock: TEMPAE_clean_linker_10, # of connection points: 2
#     Edge 52, Type (0, 1), BuildingBlock: TEMPAE_clean_linker_10, # of connection points: 2
#     Edge 53, Type (0, 1), BuildingBlock: TEMPAE_clean_linker_10, # of connection points: 2
#     Edge 54, Type (0, 1), BuildingBlock: TEMPAE_clean_linker_10, # of connection points: 2
#     Edge 55, Type (0, 1), BuildingBlock: TEMPAE_clean_linker_10, # of connection points: 2
#     Edge 56, Type (0, 1), BuildingBlock: TEMPAE_clean_linker_10, # of connection points: 2
#     Edge 57, Type (0, 1), BuildingBlock: TEMPAE_clean_linker_10, # of connection points: 2
#     Edge 58, Type (0, 1), BuildingBlock: TEMPAE_clean_linker_10, # of connection points: 2
#     Edge 59, Type (0, 1), BuildingBlock: TEMPAE_clean_linker_10, # of connection points: 2
#     Edge 60, Type (0, 1), BuildingBlock: TEMPAE_clean_linker_10, # of connection points: 2
#     Edge 61, Type (0, 1), BuildingBlock: TEMPAE_clean_linker_10, # of connection points: 2
#     Edge 62, Type (0, 1), BuildingBlock: TEMPAE_clean_linker_10, # of connection points: 2
#     Edge 63, Type (0, 1), BuildingBlock: TEMPAE_clean_linker_10, # of connection points: 2
#     Edge 64, Type (0, 1), BuildingBlock: TEMPAE_clean_linker_10, # of connection points: 2
#     Edge 65, Type (0, 1), BuildingBlock: TEMPAE_clean_linker_10, # of connection points: 2
#     Edge 66, Type (0, 1), BuildingBlock: TEMPAE_clean_linker_10, # of connection points: 2
#     Edge 67, Type (0, 1), BuildingBlock: TEMPAE_clean_linker_10, # of connection points: 2
#     Edge 68, Type (0, 1), BuildingBlock: TEMPAE_clean_linker_10, # of connection points: 2
#     Edge 69, Type (0, 1), BuildingBlock: TEMPAE_clean_linker_10, # of connection points: 2
#     Edge 70, Type (0, 1), BuildingBlock: TEMPAE_clean_linker_10, # of connection points: 2
#     Edge 71, Type (0, 1), BuildingBlock: TEMPAE_clean_linker_10, # of connection points: 2
#     Edge 72, Type (0, 1), BuildingBlock: TEMPAE_clean_linker_10, # of connection points: 2
#     Edge 73, Type (0, 1), BuildingBlock: TEMPAE_clean_linker_10, # of connection points: 2
#     Edge 74, Type (0, 1), BuildingBlock: TEMPAE_clean_linker_10, # of connection points: 2
#     Edge 75, Type (0, 1), BuildingBlock: TEMPAE_clean_linker_10, # of connection points: 2
# Relax obj value: 0.000
# Max RMSD: 0.006
# Mean RMSD: 0.004
data_MOF--net-ctn--node1-UXUYUI_clean_sbu_0--node2-ESEHIV_clean_linker_0--edge1-TEMPAE_clean_linker_10
_symmetry_space_group_name_H-M    P1
_symmetry_Int_Tables_number       1
_symmetry_cell_setting            triclinic
loop_
_symmetry_equiv_pos_as_xyz
'x, y, z'
_cell_length_a     65.738693
_cell_length_b     65.743129
_cell_length_c     65.63082
_cell_angle_alpha  89.930352
_cell_angle_beta   90.146123
_cell_angle_gamma 90.083355
loop_
_atom_site_label
_atom_site_type_symbol
_atom_site_fract_x
_atom_site_fract_y
_atom_site_fract_z
_atom_type_partial_charge
H0 H 0.01417 0.06569 0.04618 0.0
H1 H 0.04845 0.0132 0.06493 0.0
H2 H 0.06651 0.04691 0.0118 0.0
C3 C 0.02675 0.05532 0.04388 0.0
C4 C 0.03999 0.05835 0.02733 0.0
C5 C 0.02961 0.03903 0.0575 0.0
C6 C 0.04605 0.02573 0.05446 0.0
C7 C 0.05946 0.02846 0.03802 0.0
C8 C 0.05625 0.04476 0.02452 0.0
H9 H 0.29601 0.68971 0.24423 0.0
H10 H 0.31634 0.73943 0.20665 0.0
H11 H 0.26187 0.7069 0.19091 0.0
C12 C 0.29419 0.69923 0.23086 0.0
C13 C 0.27736 0.69616 0.21794 0.0
C14 C 0.30839 0.71481 0.22701 0.0
C15 C 0.30547 0.72747 0.20995 0.0
C16 C 0.28853 0.72492 0.19712 0.0
C17 C 0.27459 0.70924 0.20118 0.0
H18 H 0.9551 0.48981 0.06639 0.0
H19 H 0.98993 0.43762 0.04842 0.0
H20 H 0.94019 0.4581 0.011 0.0
C21 C 0.95814 0.47782 0.05551 0.0
C22 C 0.94554 0.4756 0.03829 0.0
C23 C 0.9743 0.46431 0.05918 0.0
C24 C 0.97763 0.4482 0.04553 0.0
C25 C 0.96525 0.44567 0.0282 0.0
C26 C 0.94937 0.45956 0.02466 0.0
H27 H 0.69151 0.76182 0.20999 0.0
H28 H 0.74473 0.79582 0.19292 0.0
H29 H 0.70953 0.81425 0.24487 0.0
C30 C 0.70189 0.77438 0.21262 0.0
C31 C 0.69841 0.78776 0.22894 0.0
C32 C 0.71865 0.77709 0.19965 0.0
C33 C 0.73204 0.7934 0.20315 0.0
C34 C 0.72875 0.80705 0.21929 0.0
C35 C 0.71189 0.80409 0.2321 0.0
H36 H 0.01404 0.93782 0.45875 0.0
H37 H 0.04934 0.98964 0.44005 0.0
H38 H 0.0659 0.95639 0.49413 0.0
C39 C 0.02672 0.94809 0.46117 0.0
C40 C 0.03988 0.9449 0.47779 0.0
C41 C 0.02984 0.96439 0.44763 0.0
C42 C 0.04644 0.97752 0.45086 0.0
C43 C 0.05968 0.97478 0.46753 0.0
C44 C 0.05618 0.95842 0.48093 0.0
H45 H 0.19088 0.74054 0.7982 0.0
H46 H 0.24549 0.70786 0.8137 0.0
H47 H 0.21058 0.69081 0.76081 0.0
C48 C 0.2018 0.72863 0.79504 0.0
C49 C 0.19885 0.71606 0.77801 0.0
C50 C 0.21873 0.72598 0.80793 0.0
C51 C 0.23251 0.71016 0.80376 0.0
C52 C 0.22964 0.69721 0.78692 0.0
C53 C 0.21286 0.70048 0.77399 0.0
H54 H 0.94303 0.5446 0.49639 0.0
H55 H 0.9942 0.5639 0.46034 0.0
H56 H 0.95789 0.51275 0.44129 0.0
C57 C 0.95284 0.54268 0.48328 0.0
C58 C 0.94863 0.52715 0.46922 0.0
C59 C 0.96907 0.55624 0.48004 0.0
C60 C 0.98152 0.55364 0.46284 0.0
C61 C 0.97768 0.53796 0.44878 0.0
C62 C 0.96098 0.52496 0.45195 0.0
H63 H 0.76227 0.7964 0.81691 0.0
H64 H 0.79616 0.81352 0.76375 0.0
H65 H 0.81403 0.76089 0.79847 0.0
C66 C 0.77492 0.79377 0.80669 0.0
C67 C 0.78784 0.77701 0.80985 0.0
C68 C 0.77776 0.80685 0.79 0.0
C69 C 0.79374 0.80314 0.77636 0.0
C70 C 0.80701 0.78664 0.77933 0.0
C71 C 0.80389 0.77365 0.7961 0.0
H72 H 0.26105 0.29751 0.31476 0.0
H73 H 0.29683 0.31594 0.2632 0.0
H74 H 0.31468 0.2637 0.29839 0.0
C75 C 0.27392 0.29504 0.30478 0.0
C76 C 0.28742 0.27889 0.30867 0.0
C77 C 0.27728 0.30851 0.2885 0.0
C78 C 0.29422 0.30563 0.27584 0.0
C79 C 0.3078 0.28954 0.27939 0.0
C80 C 0.30438 0.27633 0.29588 0.0
H81 H 0.45907 0.99197 0.56546 0.0
H82 H 0.49048 0.93646 0.55169 0.0
H83 H 0.43967 0.95539 0.51468 0.0
C84 C 0.4609 0.97869 0.55586 0.0
C85 C 0.44725 0.97518 0.53973 0.0
C86 C 0.47644 0.96474 0.56024 0.0
C87 C 0.47853 0.94725 0.54817 0.0
C88 C 0.4654 0.94373 0.53156 0.0
C89 C 0.44971 0.95774 0.52758 0.0
H90 H 0.18846 0.2634 0.70535 0.0
H91 H 0.24286 0.29623 0.68931 0.0
H92 H 0.20679 0.31568 0.74025 0.0
C93 C 0.19893 0.2759 0.70792 0.0
C94 C 0.1956 0.28922 0.7243 0.0
C95 C 0.21606 0.27815 0.69531 0.0
C96 C 0.22983 0.2941 0.69917 0.0
C97 C 0.22646 0.30782 0.7152 0.0
C98 C 0.20937 0.30522 0.72775 0.0
H99 H 0.79572 0.19127 0.74467 0.0
H100 H 0.81605 0.24089 0.70715 0.0
H101 H 0.76248 0.20725 0.69044 0.0
C102 C 0.79404 0.20057 0.73114 0.0
C103 C 0.77769 0.19691 0.71775 0.0
C104 C 0.80799 0.21641 0.72752 0.0
C105 C 0.80512 0.22899 0.71041 0.0
C106 C 0.78858 0.22601 0.6971 0.0
C107 C 0.77507 0.20981 0.7008 0.0
H108 H 0.51179 0.56232 0.54604 0.0
H109 H 0.54519 0.5088 0.56289 0.0
H110 H 0.56378 0.54407 0.51086 0.0
C111 C 0.52404 0.55172 0.5431 0.0
C112 C 0.53721 0.55506 0.52656 0.0
C113 C 0.52696 0.53519 0.55637 0.0
C114 C 0.54327 0.52184 0.55296 0.0
C115 C 0.55673 0.52489 0.5366 0.0
C116 C 0.55351 0.54155 0.52349 0.0
H117 H 0.51389 0.43629 0.95736 0.0
H118 H 0.54787 0.48946 0.94007 0.0
H119 H 0.56493 0.45574 0.99362 0.0
C120 C 0.52625 0.44685 0.96017 0.0
C121 C 0.53897 0.44402 0.97721 0.0
C122 C 0.5293 0.46323 0.94671 0.0
C123 C 0.54543 0.47682 0.95039 0.0
C124 C 0.55844 0.47421 0.96723 0.0
C125 C 0.55502 0.4578 0.98057 0.0
H126 H 0.69224 0.24196 0.29746 0.0
H127 H 0.74548 0.20801 0.3144 0.0
H128 H 0.71003 0.18965 0.2624 0.0
C129 C 0.7024 0.22925 0.29492 0.0
C130 C 0.69897 0.2161 0.27835 0.0
C131 C 0.71921 0.22651 0.30789 0.0
C132 C 0.73274 0.21043 0.30417 0.0
C133 C 0.72952 0.197 0.28782 0.0
C134 C 0.7126 0.19996 0.27501 0.0
H135 H 0.43879 0.0479 0.99221 0.0
H136 H 0.49175 0.06546 0.95799 0.0
H137 H 0.45878 0.0111 0.94208 0.0
C138 C 0.44931 0.04527 0.9798 0.0
C139 C 0.44674 0.02808 0.96737 0.0
C140 C 0.46571 0.05869 0.97676 0.0
C141 C 0.47946 0.05483 0.96084 0.0
C142 C 0.47705 0.03777 0.94812 0.0
C143 C 0.46072 0.02439 0.95165 0.0
Li144 Li 0.27036 0.89065 0.99879 0.0
Li145 Li 0.25555 0.86404 0.02227 0.0
Li146 Li 0.24907 0.86454 0.98393 0.0
Li147 Li 0.23408 0.88955 0.00568 0.0
C148 C 0.29578 0.85908 0.99798 0.0
N149 N 0.33772 0.85697 0.99609 0.0
C150 C 0.30712 0.855 0.01555 0.0
C151 C 0.30578 0.86197 0.97942 0.0
C152 C 0.32831 0.854 0.01428 0.0
C153 C 0.32699 0.8609 0.97879 0.0
C154 C 0.25084 0.91202 0.03423 0.0
C155 C 0.23271 0.93079 0.06001 0.0
N156 N 0.23718 0.94844 0.05016 0.0
C157 C 0.2552 0.93036 0.02435 0.0
C158 C 0.23946 0.91223 0.0522 0.0
C159 C 0.2482 0.9486 0.03265 0.0
C160 C 0.29392 0.92091 0.97872 0.0
N161 N 0.29365 0.90785 0.99479 0.0
C162 C 0.32634 0.91969 0.00572 0.0
C163 C 0.30925 0.9073 0.00842 0.0
C164 C 0.32719 0.93323 0.98912 0.0
C165 C 0.31054 0.93379 0.97561 0.0
H166 H 0.28104 0.9216 0.96849 0.0
H167 H 0.30844 0.89724 0.02142 0.0
C168 C 0.26618 0.82721 0.04138 0.0
N169 N 0.26005 0.84658 0.0451 0.0
C170 C 0.26965 0.81373 0.0575 0.0
C171 C 0.26001 0.84026 0.08099 0.0
C172 C 0.257 0.85329 0.06442 0.0
C173 C 0.2665 0.82014 0.0777 0.0
H174 H 0.26853 0.82229 0.02584 0.0
H175 H 0.25213 0.86872 0.06699 0.0
C176 C 0.24385 0.89453 0.95884 0.0
N177 N 0.23596 0.89358 0.91746 0.0
C178 C 0.22403 0.89736 0.9516 0.0
C179 C 0.25965 0.89128 0.94502 0.0
C180 C 0.22036 0.89684 0.93062 0.0
C181 C 0.25535 0.89082 0.92417 0.0
C182 C 0.21005 0.85651 0.01181 0.0
C183 C 0.19462 0.86205 0.99821 0.0
C184 C 0.20501 0.84779 0.03056 0.0
C185 C 0.17434 0.85894 0.00371 0.0
C186 C 0.18454 0.84489 0.03547 0.0
N187 N 0.16976 0.85049 0.02206 0.0
C188 C 0.26078 0.83421 0.95541 0.0
C189 C 0.22717 0.84631 0.95098 0.0
C190 C 0.25847 0.82094 0.93893 0.0
N191 N 0.24528 0.84667 0.96102 0.0
C192 C 0.22425 0.83343 0.93432 0.0
C193 C 0.24 0.82043 0.92807 0.0
H194 H 0.27489 0.83438 0.96387 0.0
H195 H 0.21495 0.8561 0.9558 0.0
C196 C 0.20865 0.92346 0.99832 0.0
N197 N 0.21088 0.90684 0.01047 0.0
C198 C 0.19243 0.93684 1.00123 0.0
C199 C 0.18136 0.91617 0.02957 0.0
C200 C 0.19785 0.90324 0.02615 0.0
C201 C 0.17842 0.93321 0.01696 0.0
H202 H 0.21961 0.92646 0.98644 0.0
H203 H 0.20039 0.8905 0.03623 0.0
O204 O 0.27502 0.86035 0.99896 0.0
O205 O 0.257 0.89396 0.02591 0.0
O206 O 0.24773 0.89471 0.97935 0.0
O207 O 0.23002 0.85942 0.00678 0.0
H208 H 0.2997 0.85292 0.03009 0.0
H209 H 0.29727 0.86512 0.96566 0.0
H210 H 0.33728 0.85096 0.02779 0.0
H211 H 0.33491 0.8632 0.96455 0.0
H212 H 0.22378 0.93114 0.07383 0.0
H213 H 0.2636 0.93053 0.01023 0.0
H214 H 0.23542 0.89823 0.05981 0.0
H215 H 0.25141 0.96288 0.0251 0.0
H216 H 0.33878 0.91853 0.0165 0.0
H217 H 0.31015 0.94432 0.96292 0.0
H218 H 0.27498 0.79853 0.05413 0.0
H219 H 0.25702 0.84587 0.09619 0.0
H220 H 0.21153 0.89958 0.96203 0.0
H221 H 0.27505 0.889 0.95033 0.0
H222 H 0.20508 0.89889 0.92482 0.0
H223 H 0.26743 0.88822 0.91332 0.0
H224 H 0.19823 0.86913 0.9838 0.0
H225 H 0.21677 0.84335 0.04123 0.0
H226 H 0.16223 0.86333 0.99341 0.0
H227 H 0.1804 0.83821 0.04995 0.0
H228 H 0.27093 0.81095 0.93496 0.0
H229 H 0.20982 0.8338 0.92633 0.0
H230 H 0.19078 0.94978 0.99115 0.0
H231 H 0.17124 0.91307 0.0422 0.0
Li232 Li 0.11255 0.50633 0.2708 0.0
Li233 Li 0.1393 0.48298 0.25554 0.0
Li234 Li 0.13767 0.52118 0.24823 0.0
Li235 Li 0.11264 0.4984 0.23477 0.0
C236 C 0.14554 0.50855 0.2951 0.0
N237 N 0.15017 0.51186 0.33683 0.0
C238 C 0.15174 0.49174 0.30659 0.0
C239 C 0.14196 0.52711 0.30481 0.0
C240 C 0.15394 0.49371 0.32768 0.0
C241 C 0.1443 0.52846 0.32592 0.0
C242 C 0.09425 0.46693 0.25186 0.0
C243 C 0.08211 0.43644 0.23547 0.0
N244 N 0.06266 0.44318 0.23751 0.0
C245 C 0.07416 0.47352 0.25393 0.0
C246 C 0.0983 0.44822 0.24266 0.0
C247 C 0.0584 0.4613 0.24652 0.0
C248 C 0.08093 0.52481 0.29333 0.0
N249 N 0.09561 0.51029 0.29417 0.0
C250 C 0.08545 0.50107 0.32793 0.0
C251 C 0.09782 0.49824 0.31088 0.0
C252 C 0.07032 0.51618 0.32766 0.0
C253 C 0.0681 0.52805 0.30995 0.0
H254 H 0.07899 0.53375 0.27964 0.0
H255 H 0.10919 0.48638 0.31097 0.0
C256 C 0.17545 0.46026 0.25152 0.0
N257 N 0.15661 0.46019 0.25999 0.0
C258 C 0.18845 0.44368 0.25424 0.0
C259 C 0.16269 0.42759 0.275 0.0
C260 C 0.15003 0.44432 0.27156 0.0
C261 C 0.18212 0.4271 0.26616 0.0
H262 H 0.18034 0.47319 0.24255 0.0
H263 H 0.13499 0.44474 0.27818 0.0
C264 C 0.10639 0.54542 0.24414 0.0
N265 N 0.1048 0.58681 0.2368 0.0
C266 C 0.10257 0.55271 0.22447 0.0
C267 C 0.10924 0.55922 0.26008 0.0
C268 C 0.10185 0.57368 0.22107 0.0
C269 C 0.10844 0.58007 0.25606 0.0
C270 C 0.1438 0.49401 0.20891 0.0
C271 C 0.137 0.50838 0.19475 0.0
C272 C 0.15179 0.47554 0.20207 0.0
C273 C 0.13823 0.50402 0.17396 0.0
C274 C 0.15281 0.47177 0.18115 0.0
N275 N 0.14606 0.48596 0.16765 0.0
C276 C 0.16826 0.54955 0.25902 0.0
C277 C 0.15402 0.55548 0.2264 0.0
C278 C 0.18125 0.56625 0.25679 0.0
N279 N 0.15489 0.54454 0.24399 0.0
C280 C 0.16664 0.57237 0.22357 0.0
C281 C 0.18055 0.57796 0.23887 0.0
H282 H 0.16904 0.54044 0.2727 0.0
H283 H 0.14352 0.5512 0.21452 0.0
C284 C 0.07789 0.50451 0.20985 0.0
N285 N 0.09449 0.49244 0.21235 0.0
C286 C 0.06432 0.50107 0.1938 0.0
C287 C 0.08469 0.47231 0.18357 0.0
C288 C 0.0978 0.47626 0.19988 0.0
C289 C 0.06776 0.48491 0.18025 0.0
H290 H 0.07513 0.51682 0.22038 0.0
H291 H 0.11055 0.4663 0.20265 0.0
O292 O 0.14309 0.50685 0.27445 0.0
O293 O 0.10989 0.47893 0.25849 0.0
O294 O 0.10739 0.52493 0.24776 0.0
O295 O 0.14264 0.49796 0.22935 0.0
H296 H 0.15472 0.47731 0.29936 0.0
H297 H 0.13739 0.54033 0.29615 0.0
H298 H 0.15862 0.4808 0.33677 0.0
H299 H 0.14146 0.5427 0.33364 0.0
H300 H 0.085 0.42198 0.2282 0.0
H301 H 0.07083 0.48802 0.26096 0.0
H302 H 0.1138 0.44299 0.24087 0.0
H303 H 0.04277 0.46625 0.24787 0.0
H304 H 0.08785 0.4916 0.34123 0.0
H305 H 0.05635 0.53951 0.30878 0.0
H306 H 0.2034 0.44391 0.24734 0.0
H307 H 0.15728 0.41504 0.28423 0.0
H308 H 0.10049 0.54233 0.21187 0.0
H309 H 0.11206 0.55389 0.2754 0.0
H310 H 0.09905 0.57951 0.2059 0.0
H311 H 0.11071 0.59089 0.26826 0.0
H312 H 0.1304 0.52253 0.19975 0.0
H313 H 0.15692 0.46413 0.21277 0.0
H314 H 0.13287 0.51495 0.16286 0.0
H315 H 0.15889 0.45752 0.17566 0.0
H316 H 0.19199 0.5697 0.26885 0.0
H317 H 0.16536 0.58103 0.20959 0.0
H318 H 0.05144 0.51114 0.19184 0.0
H319 H 0.08764 0.45939 0.1738 0.0
Li320 Li 0.73239 0.61419 0.00232 0.0
Li321 Li 0.74875 0.63987 0.02335 0.0
Li322 Li 0.75351 0.63951 0.98597 0.0
Li323 Li 0.77017 0.61347 0.00707 0.0
C324 C 0.70808 0.64716 0.99742 0.0
N325 N 0.6672 0.65248 0.98902 0.0
C326 C 0.69511 0.65516 0.01224 0.0
C327 C 0.70027 0.64211 0.97825 0.0
C328 C 0.67449 0.65767 0.00772 0.0
C329 C 0.67956 0.64484 0.97432 0.0
C330 C 0.73747 0.60429 0.04476 0.0
C331 C 0.7334 0.58357 0.07483 0.0
N332 N 0.71579 0.5935 0.07914 0.0
C333 C 0.71946 0.6144 0.04959 0.0
C334 C 0.74461 0.58885 0.05755 0.0
C335 C 0.70866 0.60868 0.06699 0.0
C336 C 0.7118 0.58003 0.98674 0.0
N337 N 0.70916 0.59658 0.99887 0.0
C338 C 0.67442 0.58726 0.00467 0.0
C339 C 0.69094 0.60026 0.00795 0.0
C340 C 0.67666 0.57016 0.99207 0.0
C341 C 0.69571 0.56658 0.98312 0.0
H342 H 0.72644 0.57729 0.9798 0.0
H343 H 0.68909 0.61329 0.01772 0.0
C344 C 0.73804 0.67594 0.04368 0.0
N345 N 0.74619 0.65717 0.0466 0.0
C346 C 0.73533 0.6891 0.06014 0.0
C347 C 0.75002 0.66363 0.08226 0.0
C348 C 0.75227 0.65089 0.06539 0.0
C349 C 0.74131 0.68302 0.07982 0.0
H350 H 0.73345 0.68059 0.02854 0.0
H351 H 0.75886 0.63595 0.06733 0.0
C352 C 0.7583 0.60688 0.96172 0.0
N353 N 0.76706 0.60224 0.92083 0.0
C354 C 0.77835 0.6038 0.95541 0.0
C355 C 0.74267 0.60724 0.94726 0.0
C356 C 0.78248 0.60158 0.93466 0.0
C357 C 0.74741 0.60497 0.92665 0.0
C358 C 0.79001 0.6489 0.02048 0.0
C359 C 0.80185 0.66607 0.01633 0.0
C360 C 0.79386 0.63743 0.03802 0.0
C361 C 0.81739 0.6715 0.02983 0.0
C362 C 0.80954 0.64336 0.05114 0.0
N363 N 0.82088 0.66013 0.04681 0.0
C364 C 0.74291 0.66995 0.9569 0.0
C365 C 0.77561 0.65558 0.95256 0.0
C366 C 0.74593 0.68281 0.94021 0.0
N367 N 0.75758 0.65653 0.96261 0.0
C368 C 0.77921 0.66801 0.93566 0.0
C369 C 0.76427 0.68193 0.92925 0.0
H370 H 0.72899 0.67097 0.96551 0.0
H371 H 0.7873 0.64525 0.95777 0.0
C372 C 0.79052 0.57756 0.01841 0.0
N373 N 0.79337 0.5963 0.01012 0.0
C374 C 0.80704 0.56457 0.0215 0.0
C375 C 0.82908 0.59017 0.00693 0.0
C376 C 0.81214 0.60276 0.0043 0.0
C377 C 0.82665 0.57084 0.01576 0.0
H378 H 0.77538 0.57271 0.02259 0.0
H379 H 0.81396 0.61772 0.99766 0.0
O380 O 0.7283 0.6444 1.00162 0.0
O381 O 0.74856 0.61003 0.0281 0.0
O382 O 0.754 0.60929 0.98196 0.0
O383 O 0.77469 0.64348 0.00742 0.0
H384 H 0.70084 0.65923 0.02715 0.0
H385 H 0.71011 0.63616 0.96655 0.0
H386 H 0.66427 0.66372 0.01909 0.0
H387 H 0.67332 0.6409 0.95958 0.0
H388 H 0.73874 0.57164 0.08486 0.0
H389 H 0.71406 0.62675 0.04019 0.0
H390 H 0.75874 0.58112 0.05428 0.0
H391 H 0.69468 0.6164 0.07089 0.0
H392 H 0.6601 0.59045 0.01212 0.0
H393 H 0.69809 0.55367 0.97318 0.0
H394 H 0.7283 0.70375 0.05748 0.0
H395 H 0.75521 0.65838 0.09702 0.0
H396 H 0.79063 0.60336 0.96639 0.0
H397 H 0.72702 0.60912 0.95189 0.0
H398 H 0.79795 0.59937 0.92956 0.0
H399 H 0.73546 0.60532 0.91529 0.0
H400 H 0.79903 0.6751 0.00281 0.0
H401 H 0.78486 0.6241 0.04149 0.0
H402 H 0.82668 0.68475 0.02681 0.0
H403 H 0.81268 0.63463 0.06477 0.0
H404 H 0.73416 0.69361 0.93622 0.0
H405 H 0.79354 0.66666 0.92768 0.0
H406 H 0.80447 0.54967 0.02808 0.0
H407 H 0.84396 0.59562 0.0024 0.0
Li408 Li 0.86677 0.02128 0.25574 0.0
Li409 Li 0.89239 0.99874 0.27141 0.0
Li410 Li 0.89222 0.0057 0.23332 0.0
Li411 Li 0.86657 0.98327 0.2491 0.0
C412 C 0.90076 0.04494 0.25979 0.0
N413 N 0.90823 0.08576 0.26656 0.0
C414 C 0.90642 0.05172 0.27918 0.0
C415 C 0.89927 0.05888 0.24378 0.0
C416 C 0.91003 0.07243 0.28231 0.0
C417 C 0.903 0.07947 0.24752 0.0
C418 C 0.85837 0.99355 0.295 0.0
C419 C 0.8578 0.96921 0.32253 0.0
N420 N 0.85088 0.98391 0.3353 0.0
C421 C 0.85103 0.00836 0.30834 0.0
C422 C 0.86158 0.97376 0.30209 0.0
C423 C 0.84742 0.00322 0.32867 0.0
C424 C 0.83457 0.04836 0.24647 0.0
N425 N 0.84996 0.04473 0.25987 0.0
C426 C 0.84077 0.07407 0.27932 0.0
C427 C 0.85316 0.05711 0.27616 0.0
C428 C 0.82485 0.0783 0.26563 0.0
C429 C 0.82186 0.06517 0.24901 0.0
H430 H 0.83199 0.03806 0.23391 0.0
H431 H 0.86518 0.05371 0.28687 0.0
C432 C 0.92601 0.98204 0.2924 0.0
N433 N 0.90955 0.99432 0.29468 0.0
C434 C 0.93908 0.97837 0.30882 0.0
C435 C 0.9182 1.00023 0.32962 0.0
C436 C 0.90557 0.00353 0.31278 0.0
C437 C 0.93525 0.9875 0.32777 0.0
H438 H 0.92904 0.97513 0.27779 0.0
H439 H 0.89274 0.01366 0.31412 0.0
C440 C 0.8581 0.01071 0.20978 0.0
N441 N 0.8505 0.01967 0.16931 0.0
C442 C 0.85061 0.99569 0.19669 0.0
C443 C 0.8614 0.03036 0.20235 0.0
C444 C 0.84695 1.00049 0.17627 0.0
C445 C 0.85756 0.03457 0.18183 0.0
C446 C 0.90056 0.9595 0.24492 0.0
C447 C 0.90601 0.95273 0.22551 0.0
C448 C 0.89933 0.94556 0.26097 0.0
C449 C 0.90968 0.93205 0.22237 0.0
C450 C 0.90312 0.925 0.25723 0.0
N451 N 0.90814 0.91872 0.23816 0.0
C452 C 0.92575 0.02234 0.21229 0.0
C453 C 0.90514 1.00086 0.19191 0.0
C454 C 0.93879 0.02597 0.1959 0.0
N455 N 0.90923 0.01007 0.21002 0.0
C456 C 0.91772 0.00412 0.17509 0.0
C457 C 0.93484 0.01682 0.17695 0.0
H458 H 0.92888 0.02926 0.2269 0.0
H459 H 0.89226 0.99074 0.19056 0.0
C460 C 0.834 0.95666 0.25844 0.0
N461 N 0.8495 0.9599 0.24514 0.0
C462 C 0.82112 0.9399 0.25612 0.0
C463 C 0.84007 0.93025 0.22618 0.0
C464 C 0.85263 0.94718 0.22913 0.0
C465 C 0.82406 0.92641 0.23981 0.0
H466 H 0.83146 0.96723 0.27076 0.0
H467 H 0.86472 0.95027 0.21847 0.0
O468 O 0.89702 0.02473 0.25648 0.0
O469 O 0.86219 0.99836 0.27508 0.0
O470 O 0.86196 0.00622 0.22979 0.0
O471 O 0.89679 0.97969 0.24823 0.0
H472 H 0.90786 0.04114 0.2917 0.0
H473 H 0.8954 0.05387 0.22859 0.0
H474 H 0.91426 0.07789 0.29728 0.0
H475 H 0.9018 0.09043 0.23527 0.0
H476 H 0.86031 0.95396 0.32822 0.0
H477 H 0.84821 0.02368 0.30309 0.0
H478 H 0.86682 0.96201 0.2919 0.0
H479 H 0.84185 0.01457 0.33919 0.0
H480 H 0.8437 0.08382 0.29229 0.0
H481 H 0.80955 0.06763 0.23829 0.0
H482 H 0.95196 0.96834 0.30672 0.0
H483 H 0.91487 0.00788 0.34382 0.0
H484 H 0.84773 0.98047 0.2022 0.0
H485 H 0.86676 0.04226 0.21234 0.0
H486 H 0.84127 0.98898 0.16594 0.0
H487 H 0.86015 0.0497 0.17588 0.0
H488 H 0.90724 0.9633 0.21295 0.0
H489 H 0.89566 0.95057 0.27618 0.0
H490 H 0.91375 0.92659 0.20738 0.0
H491 H 0.90213 0.91405 0.2695 0.0
H492 H 0.95173 0.03597 0.198 0.0
H493 H 0.91431 0.99646 0.16088 0.0
H494 H 0.80874 0.93774 0.26677 0.0
H495 H 0.84295 0.92022 0.21344 0.0
Li496 Li 0.25149 0.14009 0.52062 0.0
Li497 Li 0.2351 0.11306 0.49824 0.0
Li498 Li 0.27349 0.11488 0.5049 0.0
Li499 Li 0.25672 0.13973 0.48408 0.0
C500 C 0.24572 0.10685 0.54435 0.0
N501 N 0.23519 0.10161 0.58476 0.0
C502 C 0.22596 0.10097 0.54954 0.0
C503 C 0.2602 0.10978 0.55971 0.0
C504 C 0.22091 0.09847 0.57006 0.0
C505 C 0.25456 0.10715 0.58005 0.0
C506 C 0.22109 0.15753 0.48819 0.0
C507 C 0.19883 0.16818 0.46097 0.0
N508 N 0.20365 0.18792 0.46496 0.0
C509 C 0.22573 0.17789 0.49213 0.0
C510 C 0.20747 0.15258 0.47258 0.0
C511 C 0.21679 0.19304 0.48016 0.0
C512 C 0.26045 0.17226 0.54788 0.0
N513 N 0.2469 0.15715 0.54382 0.0
C514 C 0.22635 0.16724 0.5721 0.0
C515 C 0.2299 0.15465 0.55533 0.0
C516 C 0.24021 0.18285 0.57679 0.0
C517 C 0.25742 0.18532 0.56437 0.0
H518 H 0.27355 0.17434 0.53818 0.0
H519 H 0.21896 0.14303 0.55137 0.0
C520 C 0.2153 0.07665 0.48689 0.0
N521 N 0.21227 0.09562 0.49452 0.0
C522 C 0.19882 0.06355 0.4838 0.0
C523 C 0.17649 0.08952 0.49707 0.0
C524 C 0.19337 0.10224 0.49962 0.0
C525 C 0.17912 0.06993 0.48896 0.0
H526 H 0.23053 0.07174 0.48315 0.0
H527 H 0.19144 0.11739 0.50573 0.0
C528 C 0.29727 0.14701 0.50988 0.0
N529 N 0.33832 0.15043 0.51846 0.0
C530 C 0.31106 0.15159 0.49435 0.0
C531 C 0.30436 0.14432 0.52979 0.0
C532 C 0.33175 0.15323 0.49899 0.0
C533 C 0.32517 0.14606 0.53382 0.0
C534 C 0.26249 0.10801 0.45878 0.0
C535 C 0.28106 0.11495 0.4511 0.0
C536 C 0.24821 0.09935 0.44555 0.0
C537 C 0.28503 0.11317 0.43028 0.0
C538 C 0.25276 0.0978 0.42483 0.0
N539 N 0.27092 0.10469 0.41768 0.0
C540 C 0.29564 0.08321 0.52382 0.0
C541 C 0.31384 0.09972 0.49748 0.0
C542 C 0.31197 0.07009 0.52743 0.0
N543 N 0.29686 0.09776 0.50912 0.0
C544 C 0.33059 0.08705 0.50068 0.0
C545 C 0.32982 0.0719 0.5158 0.0
H546 H 0.28186 0.08159 0.53261 0.0
H547 H 0.31448 0.11108 0.48567 0.0
C548 C 0.27067 0.17469 0.46317 0.0
N549 N 0.25914 0.15766 0.46089 0.0
C550 C 0.27327 0.18819 0.44693 0.0
C551 C 0.25147 0.16682 0.4264 0.0
C552 C 0.2492 0.1538 0.44309 0.0
C553 C 0.26378 0.18421 0.42815 0.0
H554 H 0.27784 0.17784 0.47766 0.0
H555 H 0.2394 0.14067 0.44183 0.0
O556 O 0.25089 0.10957 0.52435 0.0
O557 O 0.23013 0.14247 0.49933 0.0
O558 O 0.27694 0.14518 0.50564 0.0
O559 O 0.25828 0.10971 0.4791 0.0
H560 H 0.21459 0.09852 0.53787 0.0
H561 H 0.27564 0.11401 0.55597 0.0
H562 H 0.20564 0.09405 0.57429 0.0
H563 H 0.26559 0.10947 0.59208 0.0
H564 H 0.18837 0.1646 0.44875 0.0
H565 H 0.23632 0.18191 0.50413 0.0
H566 H 0.20384 0.13686 0.46929 0.0
H567 H 0.22035 0.20887 0.48292 0.0
H568 H 0.21269 0.16507 0.58104 0.0
H569 H 0.26849 0.19714 0.56745 0.0
H570 H 0.20149 0.04849 0.47771 0.0
H571 H 0.16152 0.09502 0.50113 0.0
H572 H 0.30593 0.15355 0.47881 0.0
H573 H 0.29391 0.14095 0.54202 0.0
H574 H 0.3426 0.15664 0.48709 0.0
H575 H 0.33085 0.14394 0.54915 0.0
H576 H 0.29209 0.12205 0.46102 0.0
H577 H 0.23368 0.09407 0.45117 0.0
H578 H 0.29928 0.11862 0.42412 0.0
H579 H 0.24183 0.09119 0.41441 0.0
H580 H 0.31046 0.05841 0.53898 0.0
H581 H 0.34406 0.08921 0.49146 0.0
H582 H 0.28287 0.20144 0.44897 0.0
H583 H 0.24348 0.16342 0.41236 0.0
Li584 Li 0.39142 0.49754 0.77061 0.0
Li585 Li 0.36668 0.52054 0.75699 0.0
Li586 Li 0.36459 0.48228 0.74985 0.0
Li587 Li 0.39167 0.50532 0.73448 0.0
C588 C 0.36009 0.49355 0.79642 0.0
N589 N 0.35756 0.48574 0.83773 0.0
C590 C 0.36698 0.50794 0.8105 0.0
C591 C 0.35187 0.47519 0.80336 0.0
C592 C 0.36561 0.5037 0.83131 0.0
C593 C 0.35071 0.47153 0.82431 0.0
C594 C 0.39854 0.54445 0.76078 0.0
C595 C 0.39761 0.579 0.74838 0.0
N596 N 0.40125 0.58586 0.76759 0.0
C597 C 0.40237 0.55184 0.78039 0.0
C598 C 0.39626 0.55813 0.74463 0.0
C599 C 0.40366 0.57282 0.78352 0.0
C600 C 0.42616 0.50355 0.7956 0.0
N601 N 0.40944 0.49158 0.79316 0.0
C602 C 0.41889 0.4717 0.82226 0.0
C603 C 0.4059 0.47557 0.80583 0.0
C604 C 0.43593 0.48421 0.82552 0.0
C605 C 0.4396 0.50019 0.81178 0.0
H606 H 0.4291 0.51573 0.78493 0.0
H607 H 0.39304 0.46569 0.80315 0.0
C608 C 0.33633 0.54916 0.74618 0.0
N609 N 0.34981 0.54414 0.76111 0.0
C610 C 0.32362 0.56604 0.74835 0.0
C611 C 0.33872 0.5723 0.78132 0.0
C612 C 0.35105 0.55524 0.77855 0.0
C613 C 0.32471 0.57792 0.76612 0.0
H614 H 0.33524 0.53992 0.73263 0.0
H615 H 0.36161 0.55094 0.79036 0.0
C616 C 0.4091 0.46555 0.75401 0.0
N617 N 0.43966 0.44098 0.76909 0.0
C618 C 0.42943 0.47148 0.75212 0.0
C619 C 0.40429 0.44708 0.76339 0.0
C620 C 0.44467 0.45886 0.75991 0.0
C621 C 0.41997 0.43488 0.77095 0.0
C622 C 0.35846 0.50815 0.71026 0.0
C623 C 0.35177 0.4916 0.69868 0.0
C624 C 0.3623 0.52676 0.70069 0.0
C625 C 0.34935 0.49386 0.67765 0.0
C626 C 0.35973 0.52841 0.67962 0.0
N627 N 0.35338 0.51206 0.66862 0.0
C628 C 0.32831 0.45942 0.75379 0.0
C629 C 0.35369 0.44393 0.73345 0.0
C630 C 0.31531 0.44284 0.75083 0.0
N631 N 0.34714 0.45957 0.74527 0.0
C632 C 0.34104 0.42721 0.72978 0.0
C633 C 0.32163 0.42649 0.73865 0.0
H634 H 0.32342 0.47218 0.76294 0.0
H635 H 0.36872 0.44452 0.72679 0.0
C636 C 0.42375 0.52301 0.71179 0.0
N637 N 0.40858 0.50896 0.71102 0.0
C638 C 0.4365 0.526 0.69504 0.0
C639 C 0.41804 0.49975 0.67707 0.0
C640 C 0.40579 0.49713 0.69426 0.0
C641 C 0.43367 0.51439 0.67726 0.0
H642 H 0.42613 0.53176 0.72551 0.0
H643 H 0.39404 0.48563 0.69422 0.0
O644 O 0.36137 0.49738 0.77596 0.0
O645 O 0.39701 0.52395 0.75742 0.0
O646 O 0.39396 0.47795 0.74701 0.0
O647 O 0.36114 0.50615 0.73086 0.0
H648 H 0.37376 0.52201 0.80542 0.0
H649 H 0.34666 0.46376 0.79273 0.0
H650 H 0.37104 0.51465 0.84236 0.0
H651 H 0.34445 0.45737 0.82989 0.0
H652 H 0.39579 0.58974 0.73602 0.0
H653 H 0.40401 0.54155 0.79314 0.0
H654 H 0.39346 0.55271 0.72935 0.0
H655 H 0.40647 0.57875 0.79864 0.0
H656 H 0.41575 0.4589 0.83218 0.0
H657 H 0.45256 0.51021 0.81367 0.0
H658 H 0.31279 0.5695 0.73639 0.0
H659 H 0.34029 0.58108 0.79518 0.0
H660 H 0.43335 0.48579 0.74494 0.0
H661 H 0.38859 0.44236 0.76505 0.0
H662 H 0.46047 0.46331 0.7587 0.0
H663 H 0.41649 0.4206 0.77838 0.0
H664 H 0.34858 0.47713 0.70582 0.0
H665 H 0.36723 0.5398 0.70942 0.0
H666 H 0.34429 0.48114 0.66849 0.0
H667 H 0.36276 0.5427 0.67201 0.0
H668 H 0.30037 0.4429 0.75776 0.0
H669 H 0.34645 0.41485 0.72036 0.0
H670 H 0.44864 0.53709 0.69616 0.0
H671 H 0.41515 0.4905 0.66374 0.0
Li672 Li 0.77143 0.39053 0.49914 0.0
Li673 Li 0.75575 0.36425 0.52119 0.0
Li674 Li 0.75061 0.3641 0.48409 0.0
Li675 Li 0.73442 0.39012 0.50564 0.0
C676 C 0.78459 0.34483 0.48957 0.0
N677 N 0.79883 0.31173 0.46805 0.0
C678 C 0.78086 0.32512 0.49663 0.0
C679 C 0.79564 0.34774 0.47164 0.0
C680 C 0.78818 0.30857 0.48552 0.0
C681 C 0.80268 0.33079 0.46095 0.0
C682 C 0.76268 0.39624 0.54506 0.0
C683 C 0.75521 0.39439 0.58097 0.0
N684 N 0.77499 0.39881 0.58525 0.0
C685 C 0.78289 0.40088 0.5498 0.0
C686 C 0.74868 0.39309 0.56075 0.0
C687 C 0.78883 0.40208 0.57023 0.0
C688 C 0.79192 0.42838 0.49531 0.0
N689 N 0.79462 0.4079 0.4959 0.0
C690 C 0.8306 0.41206 0.49235 0.0
C691 C 0.8135 0.3996 0.49466 0.0
C692 C 0.82828 0.43333 0.491 0.0
C693 C 0.8085 0.44138 0.49249 0.0
H694 H 0.7768 0.43464 0.49681 0.0
H695 H 0.8153 0.38328 0.49566 0.0
C696 C 0.74499 0.33394 0.55004 0.0
N697 N 0.75991 0.34712 0.54445 0.0
C698 C 0.74782 0.32087 0.56661 0.0
C699 C 0.78142 0.33505 0.57132 0.0
C700 C 0.77799 0.34772 0.55454 0.0
C701 C 0.76623 0.32132 0.57758 0.0
H702 H 0.73097 0.33331 0.54144 0.0
H703 H 0.78981 0.35799 0.54949 0.0
C704 C 0.75406 0.40978 0.46742 0.0
N705 N 0.76587 0.44296 0.4444 0.0
C706 C 0.74348 0.42815 0.46892 0.0
C707 C 0.77059 0.40826 0.45414 0.0
C708 C 0.7497 0.44475 0.45716 0.0
C709 C 0.77635 0.42523 0.44267 0.0
C710 C 0.70977 0.35822 0.50842 0.0
C711 C 0.69743 0.35305 0.49183 0.0
C712 C 0.7009 0.36209 0.52735 0.0
C713 C 0.67637 0.35194 0.49446 0.0
C714 C 0.67978 0.36088 0.52935 0.0
N715 N 0.66806 0.35587 0.51299 0.0
C716 C 0.73933 0.32762 0.46425 0.0
C717 C 0.75217 0.353 0.4421 0.0
C718 C 0.73643 0.31433 0.4479 0.0
N719 N 0.747 0.34657 0.46107 0.0
C720 C 0.74974 0.34014 0.42533 0.0
C721 C 0.74165 0.3205 0.42805 0.0
H722 H 0.73534 0.32289 0.47952 0.0
H723 H 0.75828 0.36809 0.43995 0.0
C724 C 0.7111 0.42065 0.52488 0.0
N725 N 0.71104 0.40703 0.50931 0.0
C726 C 0.69444 0.43345 0.52793 0.0
C727 C 0.67787 0.4179 0.49895 0.0
C728 C 0.69502 0.40566 0.49623 0.0
C729 C 0.6775 0.43205 0.51494 0.0
H730 H 0.72416 0.42168 0.53487 0.0
H731 H 0.69559 0.39513 0.48361 0.0
O732 O 0.77696 0.36118 0.49985 0.0
O733 O 0.75662 0.39475 0.52517 0.0
O734 O 0.74824 0.39339 0.47888 0.0
O735 O 0.7304 0.35961 0.50611 0.0
H736 H 0.7722 0.32262 0.51041 0.0
H737 H 0.79852 0.36291 0.4659 0.0
H738 H 0.78532 0.29322 0.49073 0.0
H739 H 0.81115 0.3328 0.44698 0.0
H740 H 0.74457 0.39187 0.59327 0.0
H741 H 0.79394 0.40337 0.53787 0.0
H742 H 0.73296 0.38957 0.55733 0.0
H743 H 0.80444 0.40556 0.57413 0.0
H744 H 0.84546 0.40504 0.49188 0.0
H745 H 0.8057 0.45755 0.49125 0.0
H746 H 0.73584 0.31024 0.5705 0.0
H747 H 0.79579 0.33611 0.57935 0.0
H748 H 0.73067 0.42961 0.4791 0.0
H749 H 0.77915 0.39428 0.45302 0.0
H750 H 0.74169 0.45907 0.4582 0.0
H751 H 0.78921 0.42432 0.43247 0.0
H752 H 0.70401 0.35016 0.47703 0.0
H753 H 0.71022 0.36615 0.54033 0.0
H754 H 0.66664 0.34805 0.48173 0.0
H755 H 0.67271 0.36394 0.54388 0.0
H756 H 0.72987 0.29949 0.45078 0.0
H757 H 0.75434 0.3455 0.41044 0.0
H758 H 0.69469 0.44418 0.54044 0.0
H759 H 0.6652 0.41659 0.48845 0.0
Li760 Li 0.64143 0.98328 0.75698 0.0
Li761 Li 0.61398 0.00529 0.77218 0.0
Li762 Li 0.61537 0.99906 0.73572 0.0
Li763 Li 0.64065 0.0209 0.7513 0.0
C764 C 0.5953 0.96685 0.75291 0.0
N765 N 0.56207 0.94345 0.7419 0.0
C766 C 0.57695 0.96869 0.76347 0.0
C767 C 0.59679 0.95291 0.73691 0.0
C768 C 0.56031 0.95677 0.75764 0.0
C769 C 0.57981 0.94129 0.73152 0.0
C770 C 0.6496 0.01899 0.79263 0.0
C771 C 0.6443 0.04997 0.8115 0.0
N772 N 0.66103 0.04577 0.82298 0.0
C773 C 0.66673 0.01496 0.8046 0.0
C774 C 0.63827 0.03662 0.79608 0.0
C775 C 0.67227 0.02869 0.81988 0.0
C776 C 0.67834 0.9639 0.76741 0.0
N777 N 0.65876 0.96049 0.76164 0.0
C778 C 0.66415 0.92453 0.76223 0.0
C779 C 0.65146 0.9413 0.75919 0.0
C780 C 0.68451 0.92747 0.76824 0.0
C781 C 0.69149 0.94756 0.77093 0.0
H782 H 0.6837 0.97934 0.76934 0.0
H783 H 0.63582 0.939 0.75466 0.0
C784 C 0.57985 0.02038 0.7933 0.0
N785 N 0.597 0.00904 0.79538 0.0
C786 C 0.56713 0.02364 0.80999 0.0
C787 C 0.58989 0.0034 0.83066 0.0
C788 C 0.6022 1.00054 0.81355 0.0
C789 C 0.57208 0.01513 0.82903 0.0
H790 H 0.57601 0.02679 0.77862 0.0
H791 H 0.61597 0.99162 0.81476 0.0
C792 C 0.65342 0.99059 0.71427 0.0
N793 N 0.66949 0.97404 0.67914 0.0
C794 C 0.66346 0.00301 0.70019 0.0
C795 C 0.65163 0.96976 0.7105 0.0
C796 C 0.67146 0.99435 0.68252 0.0
C797 C 0.65984 0.96168 0.69265 0.0
C798 C 0.60649 0.04038 0.73591 0.0
C799 C 0.61739 0.04139 0.71768 0.0
C800 C 0.59138 0.05477 0.73985 0.0
C801 C 0.61295 0.05674 0.70364 0.0
C802 C 0.58739 0.06991 0.72543 0.0
N803 N 0.59816 0.07057 0.70777 0.0
C804 C 0.57763 0.99453 0.71535 0.0
C805 C 0.6056 0.99507 0.69279 0.0
C806 C 0.56417 0.99132 0.69916 0.0
N807 N 0.59802 0.99569 0.71205 0.0
C808 C 0.59266 0.99237 0.67609 0.0
C809 C 0.57159 0.99008 0.67911 0.0
H810 H 0.57179 0.99589 0.73065 0.0
H811 H 0.62165 0.99695 0.6902 0.0
C812 C 0.67675 0.04123 0.74036 0.0
N813 N 0.6578 0.04419 0.74803 0.0
C814 C 0.68971 0.05777 0.73702 0.0
C815 C 0.66368 0.08004 0.75023 0.0
C816 C 0.65112 0.0631 0.75305 0.0
C817 C 0.6832 0.07749 0.74196 0.0
H818 H 0.68177 0.026 0.73676 0.0
H819 H 0.63598 0.06506 0.75915 0.0
O820 O 0.61171 0.97851 0.75838 0.0
O821 O 0.64408 0.00576 0.77752 0.0
O822 O 0.64546 0.99887 0.73163 0.0
O823 O 0.61057 0.02551 0.74996 0.0
H824 H 0.5755 0.97924 0.77599 0.0
H825 H 0.61079 0.95126 0.72851 0.0
H826 H 0.546 0.95812 0.76562 0.0
H827 H 0.58072 0.93059 0.71905 0.0
H828 H 0.63569 0.06369 0.81432 0.0
H829 H 0.67567 1.00138 0.80209 0.0
H830 H 0.62501 0.04002 0.78691 0.0
H831 H 0.6855 0.02578 0.82927 0.0
H832 H 0.65808 0.90944 0.7596 0.0
H833 H 0.70689 0.95068 0.77591 0.0
H834 H 0.55341 0.03252 0.80794 0.0
H835 H 0.59442 0.99673 0.84507 0.0
H836 H 0.6649 0.0192 0.70277 0.0
H837 H 0.64396 0.95995 0.72118 0.0
H838 H 0.6792 0.0038 0.67146 0.0
H839 H 0.65852 0.94557 0.68955 0.0
H840 H 0.62919 0.03049 0.71437 0.0
H841 H 0.58286 0.0543 0.75392 0.0
H842 H 0.62127 0.05767 0.68948 0.0
H843 H 0.57574 0.08115 0.72828 0.0
H844 H 0.54814 0.98956 0.70246 0.0
H845 H 0.59917 0.9923 0.66096 0.0
H846 H 0.70474 0.05514 0.73084 0.0
H847 H 0.65807 0.09502 0.75413 0.0
Li848 Li 0.0219 0.25557 0.86351 0.0
Li849 Li 1.00016 0.27016 0.89064 0.0
Li850 Li 0.00704 0.23445 0.88973 0.0
Li851 Li 0.98528 0.24844 0.86432 0.0
C852 C 0.0419 0.24651 0.90386 0.0
N853 N 0.07052 0.22408 0.92511 0.0
C854 C 0.04012 0.24393 0.92494 0.0
C855 C 0.05822 0.23758 0.89361 0.0
C856 C 0.05473 0.23254 0.9354 0.0
C857 C 0.07256 0.22636 0.90462 0.0
C858 C 0.00607 0.29394 0.85525 0.0
C859 C 0.0058 0.32326 0.83311 0.0
N860 N 0.02069 0.33193 0.84463 0.0
C861 C 0.02132 0.30318 0.8669 0.0
C862 C 0.99819 0.30408 0.83825 0.0
C863 C 0.02852 0.32237 0.86127 0.0
C864 C 0.0446 0.25048 0.82744 0.0
N865 N 0.04432 0.26041 0.8456 0.0
C866 C 0.07571 0.27709 0.83772 0.0
C867 C 0.05948 0.27346 0.85097 0.0
C868 C 0.07648 0.26692 0.81894 0.0
C869 C 0.06071 0.25339 0.81388 0.0
H870 H 0.03228 0.2403 0.8235 0.0
H871 H 0.05908 0.28094 0.86562 0.0
C872 C 0.00551 0.29456 0.92586 0.0
N873 N 0.99576 0.29361 0.90761 0.0
C874 C 0.00259 0.31113 0.93882 0.0
C875 C 0.97977 0.32568 0.9139 0.0
C876 C 0.98323 0.30886 0.90137 0.0
C877 C 0.98944 0.32696 0.93299 0.0
H878 H 0.01565 0.2825 0.93036 0.0
H879 H 0.97587 0.308 0.88665 0.0
C880 C 1.00023 0.21019 0.85552 0.0
N881 N 0.98451 0.17225 0.84641 0.0
C882 C 0.98465 0.2019 0.86739 0.0
C883 C 0.00787 0.19913 0.83906 0.0
C884 C 0.97689 0.18272 0.86253 0.0
C885 C 0.99971 0.17999 0.83469 0.0
C886 C 0.9617 0.25574 0.89876 0.0
C887 C 0.95085 0.24895 0.91575 0.0
C888 C 0.95333 0.27083 0.88627 0.0
C889 C 0.93185 0.25742 0.92001 0.0
C890 C 0.9343 0.27892 0.89104 0.0
N891 N 0.92404 0.27211 0.90768 0.0
C892 C 1.00111 0.20965 0.92438 0.0
C893 C 0.0252 0.19655 0.90104 0.0
C894 C 0.00413 0.19311 0.93741 0.0
N895 N 0.01161 0.21107 0.90663 0.0
C896 C 0.02877 0.17978 0.91367 0.0
C897 C 0.01818 0.17789 0.93218 0.0
H898 H 0.99049 0.22147 0.92848 0.0
H899 H 0.0334 0.19811 0.88686 0.0
C900 C 0.96221 0.25255 0.82823 0.0
N901 N 0.96218 0.24386 0.84703 0.0
C902 C 0.94563 0.24996 0.81511 0.0
C903 C 0.92942 0.22921 0.84078 0.0
C904 C 0.94622 0.23237 0.85348 0.0
C905 C 0.92889 0.23812 0.82129 0.0
H906 H 0.97512 0.26157 0.82347 0.0
H907 H 0.94649 0.22566 0.86852 0.0
O908 O 0.02744 0.25716 0.89322 0.0
O909 O 0.99868 0.27517 0.86046 0.0
O910 O 0.00815 0.22895 0.85997 0.0
O911 O 0.98031 0.24747 0.89445 0.0
H912 H 0.02731 0.25013 0.93311 0.0
H913 H 0.05969 0.23899 0.87728 0.0
H914 H 0.05342 0.23029 0.95167 0.0
H915 H 0.08522 0.21934 0.89685 0.0
H916 H 0.99986 0.33126 0.81998 0.0
H917 H 0.02755 0.29564 0.88015 0.0
H918 H 0.9863 0.29721 0.82912 0.0
H919 H 0.04034 0.32967 0.87014 0.0
H920 H 0.0877 0.28747 0.84225 0.0
H921 H 0.06071 0.24538 0.79946 0.0
H922 H 0.01073 0.31161 0.95318 0.0
H923 H 0.96939 0.33741 0.90877 0.0
H924 H 0.9786 0.21013 0.88025 0.0
H925 H 0.02 0.20525 0.82977 0.0
H926 H 0.96482 0.17615 0.87158 0.0
H927 H 0.00547 0.17127 0.82198 0.0
H928 H 0.95701 0.23723 0.92555 0.0
H929 H 0.96138 0.27628 0.87301 0.0
H930 H 0.92331 0.25231 0.93313 0.0
H931 H 0.92769 0.29061 0.8815 0.0
H932 H 0.9954 0.1922 0.95134 0.0
H933 H 0.03994 0.16859 0.90911 0.0
H934 H 0.94586 0.2574 0.80038 0.0
H935 H 0.91709 0.2197 0.84615 0.0
Li936 Li 0.52233 0.75628 0.36643 0.0
Li937 Li 0.49908 0.76995 0.39165 0.0
Li938 Li 0.50714 0.73335 0.39128 0.0
Li939 Li 0.48446 0.74829 0.36464 0.0
C940 C 0.5459 0.76003 0.39972 0.0
N941 N 0.58698 0.76705 0.40546 0.0
C942 C 0.55276 0.77921 0.40589 0.0
C943 C 0.55994 0.74439 0.39666 0.0
C944 C 0.57359 0.78246 0.40868 0.0
C945 C 0.58064 0.74825 0.39958 0.0
C946 C 0.49793 0.79539 0.35858 0.0
C947 C 0.48072 0.82508 0.34557 0.0
N948 N 0.49594 0.837 0.35301 0.0
C949 C 0.51336 0.80793 0.36612 0.0
C950 C 0.48142 0.80401 0.34826 0.0
C951 C 0.5121 0.82893 0.36316 0.0
C952 C 0.54829 0.74808 0.33335 0.0
N953 N 0.54566 0.76096 0.34933 0.0
C954 C 0.57554 0.77957 0.33991 0.0
C955 C 0.5588 0.77662 0.35266 0.0
C956 C 0.57869 0.76643 0.32336 0.0
C957 C 0.56475 0.75053 0.32013 0.0
H958 H 0.53753 0.7359 0.33078 0.0
H959 H 0.55635 0.78696 0.36513 0.0
C960 C 0.50321 0.79274 0.42775 0.0
N961 N 0.49319 0.79226 0.40961 0.0
C962 C 0.5 0.80866 0.44146 0.0
C963 C 0.47561 0.82301 0.41793 0.0
C964 C 0.47934 0.80684 0.40467 0.0
C965 C 0.48612 0.82418 0.43658 0.0
H966 H 0.51383 0.78076 0.43154 0.0
H967 H 0.47112 0.80596 0.39044 0.0
C968 C 0.5115 0.70967 0.35781 0.0
N969 N 0.51779 0.66858 0.35169 0.0
C970 C 0.49529 0.69708 0.35215 0.0
C971 C 0.53096 0.70142 0.36003 0.0
C972 C 0.49877 0.67633 0.34921 0.0
C973 C 0.53381 0.6806 0.35697 0.0
C974 C 0.46182 0.75311 0.40183 0.0
C975 C 0.45491 0.74638 0.42079 0.0
C976 C 0.4502 0.76698 0.39063 0.0
C977 C 0.43639 0.75362 0.42823 0.0
C978 C 0.43178 0.77388 0.39859 0.0
N979 N 0.42531 0.76711 0.41707 0.0
C980 C 0.52513 0.71062 0.42331 0.0
C981 C 0.49921 0.69308 0.40532 0.0
C982 C 0.52809 0.6939 0.43613 0.0
N983 N 0.51102 0.70986 0.40813 0.0
C984 C 0.50184 0.67591 0.41764 0.0
C985 C 0.51642 0.67621 0.43332 0.0
H986 H 0.53396 0.7243 0.42561 0.0
H987 H 0.48759 0.69309 0.39366 0.0
C988 C 0.46166 0.75227 0.32832 0.0
N989 N 0.46192 0.74333 0.34698 0.0
C990 C 0.44522 0.74921 0.31512 0.0
C991 C 0.42985 0.72739 0.34044 0.0
C992 C 0.44651 0.73101 0.35321 0.0
C993 C 0.42897 0.73661 0.3211 0.0
H994 H 0.4742 0.76189 0.32372 0.0
H995 H 0.44722 0.72392 0.36808 0.0
O996 O 0.52557 0.75655 0.39681 0.0
O997 O 0.49877 0.77482 0.36156 0.0
O998 O 0.50835 0.73 0.36092 0.0
O999 O 0.47997 0.74626 0.39441 0.0
H1000 H 0.54217 0.79155 0.40825 0.0
H1001 H 0.55489 0.72941 0.39213 0.0
H1002 H 0.57911 0.79725 0.41333 0.0
H1003 H 0.59166 0.73629 0.39719 0.0
H1004 H 0.46803 0.83197 0.33764 0.0
H1005 H 0.52593 0.80156 0.37459 0.0
H1006 H 0.4692 0.79457 0.34254 0.0
H1007 H 0.5239 0.83882 0.36902 0.0
H1008 H 0.58571 0.79222 0.34278 0.0
H1009 H 0.56665 0.73997 0.30763 0.0
H1010 H 0.50855 0.80895 0.45558 0.0
H1011 H 0.46445 0.83436 0.4137 0.0
H1012 H 0.48017 0.70322 0.35022 0.0
H1013 H 0.54373 0.711 0.364 0.0
H1014 H 0.48634 0.66639 0.34498 0.0
H1015 H 0.54878 0.674 0.35874 0.0
H1016 H 0.46378 0.73567 0.42965 0.0
H1017 H 0.45544 0.77253 0.37603 0.0
H1018 H 0.43083 0.74854 0.44287 0.0
H1019 H 0.42266 0.78466 0.39011 0.0
H1020 H 0.5395 0.69475 0.44804 0.0
H1021 H 0.49228 0.6627 0.41521 0.0
H1022 H 0.44516 0.75686 0.30051 0.0
H1023 H 0.4179 0.71728 0.34561 0.0
Li1024 Li 0.0057 0.76977 0.61645 0.0
Li1025 Li 0.98295 0.75618 0.64139 0.0
Li1026 Li 0.02124 0.74925 0.64331 0.0
Li1027 Li 0.99812 0.73366 0.6164 0.0
C1028 C 0.00979 0.7957 0.64781 0.0
N1029 N 0.0174 0.83698 0.6504 0.0
C1030 C 0.99534 0.80968 0.64088 0.0
C1031 C 0.02811 0.80273 0.6561 0.0
C1032 C 0.99948 0.83048 0.64228 0.0
C1033 C 0.03166 0.82365 0.65728 0.0
C1034 C 0.95881 0.75978 0.60966 0.0
C1035 C 0.92426 0.74744 0.61107 0.0
N1036 N 0.91738 0.76658 0.6073 0.0
C1037 C 0.95139 0.77931 0.6057 0.0
C1038 C 0.94514 0.74369 0.61226 0.0
C1039 C 0.93039 0.78244 0.60459 0.0
C1040 C 0.99943 0.79449 0.58156 0.0
N1041 N 0.01143 0.79224 0.59831 0.0
C1042 C 0.03098 0.8215 0.58885 0.0
C1043 C 0.02731 0.80507 0.60186 0.0
C1044 C 0.01842 0.82457 0.57179 0.0
C1045 C 0.00261 0.81065 0.56808 0.0
H1046 H 0.98737 0.78369 0.57862 0.0
H1047 H 0.03723 0.80253 0.61474 0.0
C1048 C 0.95456 0.74554 0.67203 0.0
N1049 N 0.95948 0.76035 0.65841 0.0
C1050 C 0.93781 0.74784 0.6849 0.0
C1051 C 0.93146 0.78065 0.66963 0.0
C1052 C 0.9484 0.77777 0.65716 0.0
C1053 C 0.92596 0.76559 0.68381 0.0
H1054 H 0.96379 0.73201 0.67311 0.0
H1055 H 0.95261 0.78948 0.64648 0.0
C1056 C 0.03765 0.7533 0.59862 0.0
N1057 N 0.0619 0.76837 0.5678 0.0
C1058 C 0.03163 0.7512 0.5783 0.0
C1059 C 0.05605 0.7629 0.6033 0.0
C1060 C 0.04409 0.75898 0.56293 0.0
C1061 C 0.06809 0.77045 0.58749 0.0
C1062 C 0.99566 0.70962 0.64965 0.0
C1063 C 0.01238 0.69817 0.65613 0.0
C1064 C 0.97707 0.69993 0.64598 0.0
C1065 C 0.01029 0.67715 0.65851 0.0
C1066 C 0.9756 0.67888 0.64851 0.0
N1067 N 0.99211 0.66802 0.65465 0.0
C1068 C 0.04437 0.75327 0.67952 0.0
C1069 C 0.05978 0.73322 0.65383 0.0
C1070 C 0.0611 0.75039 0.69238 0.0
N1071 N 0.04411 0.74486 0.66061 0.0
C1072 C 0.07665 0.72964 0.66633 0.0
C1073 C 0.07748 0.7384 0.68582 0.0
H1074 H 0.03159 0.76228 0.68457 0.0
H1075 H 0.05909 0.72664 0.63875 0.0
C1076 C 0.98016 0.71038 0.58477 0.0
N1077 N 0.99459 0.71008 0.59963 0.0
C1078 C 0.97732 0.69351 0.57214 0.0
C1079 C 0.0045 0.67641 0.59007 0.0
C1080 C 0.00692 0.6937 0.60223 0.0
C1081 C 0.9895 0.67612 0.57475 0.0
H1082 H 0.97098 0.72382 0.58253 0.0
H1083 H 0.0187 0.69404 0.61375 0.0
O1084 O 0.00605 0.77525 0.64651 0.0
O1085 O 0.97932 0.75642 0.61102 0.0
O1086 O 0.02539 0.74631 0.61388 0.0
O1087 O 0.99749 0.7302 0.647 0.0
H1088 H 0.98131 0.80454 0.63403 0.0
H1089 H 0.03957 0.79217 0.66134 0.0
H1090 H 0.98849 0.84145 0.63681 0.0
H1091 H 0.0458 0.82929 0.66359 0.0
H1092 H 0.91352 0.73512 0.61313 0.0
H1093 H 0.96167 0.79202 0.60382 0.0
H1094 H 0.95058 0.72846 0.61517 0.0
H1095 H 0.92445 0.7975 0.60167 0.0
H1096 H 0.04365 0.83156 0.59201 0.0
H1097 H 0.99257 0.8124 0.55509 0.0
H1098 H 0.93442 0.73597 0.69584 0.0
H1099 H 0.92269 0.79449 0.66805 0.0
H1100 H 0.01737 0.74386 0.57448 0.0
H1101 H 0.06083 0.76473 0.61899 0.0
H1102 H 0.03957 0.75761 0.54713 0.0
H1103 H 0.08231 0.77803 0.59087 0.0
H1104 H 0.02684 0.7054 0.65919 0.0
H1105 H 0.96392 0.70856 0.64122 0.0
H1106 H 0.02314 0.66809 0.6634 0.0
H1107 H 0.96133 0.67119 0.6456 0.0
H1108 H 0.06113 0.75723 0.70739 0.0
H1109 H 0.08904 0.72037 0.66073 0.0
H1110 H 0.96593 0.69426 0.56022 0.0
H1111 H 0.01419 0.66338 0.59278 0.0
Li1112 Li 0.50641 0.26903 0.11619 0.0
Li1113 Li 0.48308 0.25388 0.14316 0.0
Li1114 Li 0.52128 0.24644 0.14154 0.0
Li1115 Li 0.49837 0.23306 0.1165 0.0
C1116 C 0.50933 0.29319 0.14942 0.0
N1117 N 0.51377 0.3347 0.15447 0.0
C1118 C 0.49286 0.30498 0.15581 0.0
C1119 C 0.52813 0.30249 0.14587 0.0
C1120 C 0.49539 0.32594 0.15822 0.0
C1121 C 0.53004 0.3235 0.14842 0.0
C1122 C 0.46648 0.24974 0.09854 0.0
C1123 C 0.43575 0.23283 0.08775 0.0
N1124 N 0.4418 0.23462 0.06802 0.0
C1125 C 0.47235 0.25155 0.07818 0.0
C1126 C 0.44802 0.24041 0.10342 0.0
C1127 C 0.45967 0.24374 0.06295 0.0
C1128 C 0.52418 0.29086 0.08364 0.0
N1129 N 0.51041 0.29227 0.09899 0.0
C1130 C 0.50187 0.32619 0.08884 0.0
C1131 C 0.49906 0.30936 0.10158 0.0
C1132 C 0.51617 0.32525 0.07299 0.0
C1133 C 0.52734 0.30724 0.07043 0.0
H1134 H 0.53261 0.27693 0.0815 0.0
H1135 H 0.48768 0.30986 0.11341 0.0
C1136 C 0.46012 0.24997 0.17933 0.0
N1137 N 0.46038 0.25863 0.16051 0.0
C1138 C 0.44363 0.25309 0.19234 0.0
C1139 C 0.42831 0.2746 0.16665 0.0
C1140 C 0.44493 0.27074 0.15397 0.0
C1141 C 0.4275 0.26561 0.18606 0.0
H1142 H 0.47273 0.24058 0.1842 0.0
H1143 H 0.4456 0.27751 0.13896 0.0
C1144 C 0.54541 0.24264 0.1098 0.0
N1145 N 0.5868 0.23581 0.10723 0.0
C1146 C 0.55278 0.22305 0.10612 0.0
C1147 C 0.5591 0.25877 0.112 0.0
C1148 C 0.57376 0.2199 0.10491 0.0
C1149 C 0.57997 0.255 0.11071 0.0
C1150 C 0.49384 0.20728 0.1478 0.0
C1151 C 0.5082 0.1931 0.14121 0.0
C1152 C 0.47526 0.20052 0.15564 0.0
C1153 C 0.50371 0.17236 0.1425 0.0
C1154 C 0.47137 0.17964 0.15673 0.0
N1155 N 0.48555 0.16612 0.15018 0.0
C1156 C 0.54958 0.25684 0.17244 0.0
C1157 C 0.55574 0.22467 0.15757 0.0
C1158 C 0.56631 0.25449 0.18542 0.0
N1159 N 0.54468 0.2421 0.15875 0.0
C1160 C 0.57265 0.22173 0.17015 0.0
C1161 C 0.57816 0.23674 0.18438 0.0
H1162 H 0.54036 0.27038 0.17348 0.0
H1163 H 0.55152 0.213 0.14685 0.0
C1164 C 0.50467 0.20852 0.08168 0.0
N1165 N 0.49254 0.21068 0.09829 0.0
C1166 C 0.50146 0.19257 0.06799 0.0
C1167 C 0.4728 0.18173 0.08824 0.0
C1168 C 0.47652 0.19795 0.10149 0.0
C1169 C 0.48547 0.17877 0.07129 0.0
H1170 H 0.51685 0.21924 0.07901 0.0
H1171 H 0.4665 0.20042 0.11425 0.0
O1172 O 0.50708 0.27267 0.14677 0.0
O1173 O 0.47894 0.25676 0.11367 0.0
O1174 O 0.52491 0.24601 0.11124 0.0
O1175 O 0.49793 0.22766 0.14661 0.0
H1176 H 0.47825 0.29805 0.15878 0.0
H1177 H 0.5411 0.2936 0.1412 0.0
H1178 H 0.48274 0.33525 0.16305 0.0
H1179 H 0.54447 0.3309 0.14561 0.0
H1180 H 0.42147 0.22545 0.09128 0.0
H1181 H 0.48666 0.25869 0.07421 0.0
H1182 H 0.44334 0.23882 0.11915 0.0
H1183 H 0.46407 0.24489 0.04712 0.0
H1184 H 0.49267 0.33965 0.09111 0.0
H1185 H 0.53852 0.30587 0.05842 0.0
H1186 H 0.4436 0.24605 0.20727 0.0
H1187 H 0.4161 0.28428 0.16127 0.0
H1188 H 0.54247 0.21032 0.10453 0.0
H1189 H 0.55369 0.27404 0.11465 0.0
H1190 H 0.57966 0.2048 0.10221 0.0
H1191 H 0.59072 0.26735 0.11246 0.0
H1192 H 0.52244 0.19804 0.13473 0.0
H1193 H 0.46386 0.21124 0.16061 0.0
H1194 H 0.51463 0.16124 0.1373 0.0
H1195 H 0.45703 0.1742 0.1627 0.0
H1196 H 0.56969 0.26631 0.1964 0.0
H1197 H 0.58142 0.20788 0.16861 0.0
H1198 H 0.5116 0.1909 0.05513 0.0
H1199 H 0.45999 0.17176 0.0911 0.0
C1200 C 0.21832 0.76072 0.82388 0.0
C1201 C 0.22204 0.73977 0.82567 0.0
C1202 C 0.22128 0.77391 0.84045 0.0
C1203 C 0.22832 0.76602 0.85926 0.0
C1204 C 0.23224 0.74493 0.86117 0.0
C1205 C 0.22896 0.73206 0.8444 0.0
C1206 C 0.21683 0.79629 0.83782 0.0
C1207 C 0.23984 0.73595 0.88095 0.0
C1208 C 0.25297 0.80278 0.89669 0.0
C1209 C 0.2371 0.80635 0.9105 0.0
C1210 C 0.25039 0.78959 0.88005 0.0
C1211 C 0.23141 0.77983 0.877 0.0
C1212 C 0.21532 0.78336 0.89084 0.0
C1213 C 0.21838 0.79647 0.90745 0.0
C1214 C 0.26795 0.78615 0.86568 0.0
C1215 C 0.19483 0.7733 0.88808 0.0
H1216 H 0.2133 0.7669 0.8094 0.0
H1217 H 0.23159 0.71587 0.84606 0.0
H1218 H 0.20518 0.80114 0.849 0.0
H1219 H 0.23076 0.80533 0.84089 0.0
H1220 H 0.21128 0.79999 0.82225 0.0
H1221 H 0.24259 0.71932 0.87981 0.0
H1222 H 0.25423 0.7435 0.88558 0.0
H1223 H 0.22861 0.73869 0.89322 0.0
H1224 H 0.26739 0.81054 0.89871 0.0
H1225 H 0.20612 0.79881 0.91819 0.0
H1226 H 0.26368 0.79109 0.85008 0.0
H1227 H 0.27158 0.76969 0.8649 0.0
H1228 H 0.28186 0.79454 0.87041 0.0
H1229 H 0.18835 0.77743 0.873 0.0
H1230 H 0.18383 0.77777 0.90009 0.0
H1231 H 0.19654 0.75652 0.88837 0.0
C1232 C 0.98308 0.53166 0.41147 0.0
C1233 C 0.99126 0.53499 0.43094 0.0
C1234 C 0.99577 0.52871 0.39454 0.0
C1235 C 0.01717 0.52891 0.39717 0.0
C1236 C 0.02551 0.53222 0.41681 0.0
C1237 C 0.01246 0.5353 0.43343 0.0
C1238 C 0.98629 0.52545 0.37382 0.0
C1239 C 0.04822 0.53233 0.42029 0.0
C1240 C 0.04967 0.50285 0.35706 0.0
C1241 C 0.05679 0.51943 0.34559 0.0
C1242 C 0.03687 0.50572 0.37392 0.0
C1243 C 0.03084 0.52564 0.37939 0.0
C1244 C 0.03789 0.54244 0.36788 0.0
C1245 C 0.05085 0.53915 0.35122 0.0
C1246 C 0.02977 0.48741 0.38588 0.0
C1247 C 0.03174 0.56392 0.37316 0.0
H1248 H 0.96671 0.53161 0.40944 0.0
H1249 H 0.01886 0.53762 0.44849 0.0
H1250 H 0.99166 0.53734 0.36309 0.0
H1251 H 0.9911 0.51054 0.36758 0.0
H1252 H 0.96941 0.52586 0.37432 0.0
H1253 H 0.05227 0.53509 0.4365 0.0
H1254 H 0.05479 0.51754 0.41556 0.0
H1255 H 0.05544 0.5443 0.41081 0.0
H1256 H 0.05387 0.48753 0.35269 0.0
H1257 H 0.05649 0.55211 0.34271 0.0
H1258 H 0.01292 0.48643 0.3854 0.0
H1259 H 0.03427 0.48899 0.4021 0.0
H1260 H 0.03614 0.47296 0.3799 0.0
H1261 H 0.01492 0.56529 0.3729 0.0
H1262 H 0.03825 0.5753 0.36248 0.0
H1263 H 0.03687 0.56766 0.38883 0.0
C1264 C 0.78696 0.74187 0.82506 0.0
C1265 C 0.78451 0.76296 0.8274 0.0
C1266 C 0.78393 0.72847 0.84146 0.0
C1267 C 0.77805 0.73627 0.86066 0.0
C1268 C 0.77544 0.7575 0.86313 0.0
C1269 C 0.77881 0.77057 0.84653 0.0
C1270 C 0.78697 0.70594 0.83823 0.0
C1271 C 0.76907 0.7664 0.88333 0.0
C1272 C 0.752 0.70042 0.89796 0.0
C1273 C 0.76788 0.69568 0.91151 0.0
C1274 C 0.75507 0.71365 0.88142 0.0
C1275 C 0.77457 0.72221 0.87815 0.0
C1276 C 0.79072 0.71737 0.89161 0.0
C1277 C 0.78716 0.70428 0.90816 0.0
C1278 C 0.73743 0.71851 0.86747 0.0
C1279 C 0.81176 0.72608 0.88856 0.0
H1280 H 0.79102 0.73576 0.8103 0.0
H1281 H 0.77717 0.78684 0.84862 0.0
H1282 H 0.79855 0.70009 0.84908 0.0
H1283 H 0.77259 0.69766 0.84133 0.0
H1284 H 0.79195 0.70235 0.82248 0.0
H1285 H 0.76743 0.7832 0.88267 0.0
H1286 H 0.75435 0.7597 0.88816 0.0
H1287 H 0.78046 0.76256 0.89522 0.0
H1288 H 0.73713 0.69364 0.90017 0.0
H1289 H 0.79947 0.70103 0.91868 0.0
H1290 H 0.74104 0.71379 0.85167 0.0
H1291 H 0.73476 0.73517 0.86719 0.0
H1292 H 0.72316 0.7108 0.87225 0.0
H1293 H 0.81746 0.72205 0.8732 0.0
H1294 H 0.82278 0.72048 0.90013 0.0
H1295 H 0.8112 0.74293 0.8894 0.0
C1296 C 0.00883 0.95117 0.41842 0.0
C1297 C 0.01582 0.96767 0.43005 0.0
C1298 C 0.9956 0.95409 0.40183 0.0
C1299 C 0.98924 0.97401 0.39667 0.0
C1300 C 0.99623 0.99074 0.40833 0.0
C1301 C 0.00938 0.98737 0.42488 0.0
C1302 C 0.98851 0.93586 0.38976 0.0
C1303 C 0.98978 0.01222 0.40333 0.0
C1304 C 0.97025 0.98393 0.34276 0.0
C1305 C 0.94907 0.98395 0.34543 0.0
C1306 C 0.98348 0.9807 0.35929 0.0
C1307 C 0.97537 0.97738 0.37898 0.0
C1308 C 0.95401 0.97735 0.38178 0.0
C1309 C 0.94113 0.98065 0.36499 0.0
C1310 C 0.00616 0.98097 0.35569 0.0
C1311 C 0.94477 0.97376 0.40251 0.0
H1312 H 0.01393 0.93593 0.42212 0.0
H1313 H 0.01447 1.00018 0.43395 0.0
H1314 H 0.97165 0.93508 0.3898 0.0
H1315 H 0.99337 0.93739 0.37366 0.0
H1316 H 0.99459 0.92135 0.39594 0.0
H1317 H 0.99665 0.02357 0.41382 0.0
H1318 H 0.99427 0.01608 0.3875 0.0
H1319 H 0.97298 0.01351 0.40418 0.0
H1320 H 0.97652 0.98675 0.32776 0.0
H1321 H 0.92479 0.9804 0.36713 0.0
H1322 H 0.01293 0.9663 0.36056 0.0
H1323 H 0.01334 0.9931 0.36501 0.0
H1324 H 0.01003 0.98363 0.33944 0.0
H1325 H 0.94963 0.95874 0.4085 0.0
H1326 H 0.92788 0.9742 0.40213 0.0
H1327 H 0.95027 0.98546 0.41339 0.0
C1328 C 0.2035 0.25851 0.66502 0.0
C1329 C 0.21954 0.26389 0.67808 0.0
C1330 C 0.20661 0.24524 0.64856 0.0
C1331 C 0.22621 0.23702 0.64515 0.0
C1332 C 0.24243 0.24228 0.65838 0.0
C1333 C 0.23893 0.25571 0.67463 0.0
C1334 C 0.18895 0.24016 0.6347 0.0
C1335 C 0.26351 0.23371 0.65537 0.0
C1336 C 0.23036 0.18891 0.61321 0.0
C1337 C 0.23659 0.1967 0.59432 0.0
C1338 C 0.22701 0.20183 0.62991 0.0
C1339 C 0.22978 0.22308 0.62762 0.0
C1340 C 0.23597 0.23104 0.60855 0.0
C1341 C 0.23937 0.21776 0.59216 0.0
C1342 C 0.22061 0.19274 0.65003 0.0
C1343 C 0.2389 0.25362 0.60542 0.0
H1344 H 0.18854 0.26497 0.66747 0.0
H1345 H 0.25133 0.25963 0.68482 0.0
H1346 H 0.19251 0.24487 0.61886 0.0
H1347 H 0.18638 0.22348 0.63451 0.0
H1348 H 0.17465 0.24775 0.63947 0.0
H1349 H 0.2744 0.23907 0.66717 0.0
H1350 H 0.26295 0.21684 0.65581 0.0
H1351 H 0.26938 0.23815 0.64017 0.0
H1352 H 0.22839 0.17264 0.61502 0.0
H1353 H 0.24393 0.22389 0.57753 0.0
H1354 H 0.20576 0.19915 0.65476 0.0
H1355 H 0.23185 0.19675 0.66202 0.0
H1356 H 0.21923 0.17591 0.64934 0.0
H1357 H 0.22453 0.26177 0.60879 0.0
H1358 H 0.24363 0.25738 0.58962 0.0
H1359 H 0.25061 0.25944 0.61612 0.0
C1360 C 0.52102 0.52784 0.59338 0.0
C1361 C 0.51309 0.53198 0.57395 0.0
C1362 C 0.50813 0.52498 0.61018 0.0
C1363 C 0.48678 0.5261 0.60746 0.0
C1364 C 0.47868 0.53015 0.58785 0.0
C1365 C 0.49194 0.53315 0.57136 0.0
C1366 C 0.51737 0.52094 0.63087 0.0
C1367 C 0.45601 0.53122 0.58428 0.0
C1368 C 0.45338 0.50073 0.64742 0.0
C1369 C 0.44708 0.5174 0.65918 0.0
C1370 C 0.4661 0.50336 0.63044 0.0
C1371 C 0.47293 0.52311 0.62518 0.0
C1372 C 0.46667 0.54 0.63695 0.0
C1373 C 0.45375 0.53696 0.6537 0.0
C1374 C 0.47234 0.48498 0.6182 0.0
C1375 C 0.47369 0.56129 0.6319 0.0
H1376 H 0.53736 0.52716 0.59549 0.0
H1377 H 0.48575 0.53614 0.55633 0.0
H1378 H 0.51256 0.5329 0.64175 0.0
H1379 H 0.51182 0.50618 0.6369 0.0
H1380 H 0.53426 0.52059 0.63043 0.0
H1381 H 0.45215 0.5343 0.56808 0.0
H1382 H 0.44878 0.51667 0.58888 0.0
H1383 H 0.44929 0.54337 0.59383 0.0
H1384 H 0.44863 0.48552 0.65165 0.0
H1385 H 0.44872 0.55 0.66242 0.0
H1386 H 0.48912 0.48321 0.61872 0.0
H1387 H 0.46799 0.48707 0.60199 0.0
H1388 H 0.46524 0.47073 0.62392 0.0
H1389 H 0.49056 0.56202 0.63224 0.0
H1390 H 0.46763 0.57278 0.64269 0.0
H1391 H 0.46878 0.56544 0.61626 0.0
C1392 C 0.78843 0.26097 0.68158 0.0
C1393 C 0.78542 0.23993 0.67941 0.0
C1394 C 0.78551 0.27433 0.66512 0.0
C1395 C 0.77926 0.26653 0.64601 0.0
C1396 C 0.77614 0.24533 0.64369 0.0
C1397 C 0.77933 0.2323 0.66038 0.0
C1398 C 0.78905 0.29682 0.66821 0.0
C1399 C 0.76942 0.23643 0.62357 0.0
C1400 C 0.75371 0.30284 0.60874 0.0
C1401 C 0.76962 0.30736 0.59521 0.0
C1402 C 0.7566 0.2895 0.62522 0.0
C1403 C 0.77593 0.28057 0.62845 0.0
C1404 C 0.79209 0.28514 0.61498 0.0
C1405 C 0.78872 0.29837 0.59849 0.0
C1406 C 0.73895 0.28496 0.6392 0.0
C1407 C 0.81296 0.27601 0.61797 0.0
H1408 H 0.79284 0.26707 0.69628 0.0
H1409 H 0.77725 0.21606 0.65844 0.0
H1410 H 0.80069 0.30239 0.65732 0.0
H1411 H 0.77483 0.30534 0.66508 0.0
H1412 H 0.7942 0.30041 0.68394 0.0
H1413 H 0.76748 0.21966 0.62431 0.0
H1414 H 0.75478 0.24333 0.61877 0.0
H1415 H 0.78076 0.24004 0.6116 0.0
H1416 H 0.73899 0.30992 0.60658 0.0
H1417 H 0.80104 0.30145 0.58799 0.0
H1418 H 0.74275 0.28969 0.65498 0.0
H1419 H 0.73598 0.26834 0.63956 0.0
H1420 H 0.7248 0.29286 0.63441 0.0
H1421 H 0.81892 0.28005 0.63327 0.0
H1422 H 0.82398 0.28131 0.6063 0.0
H1423 H 0.812 0.25918 0.61728 0.0
C1424 C 0.49226 0.95401 0.5932 0.0
C1425 C 0.49045 0.9684 0.57756 0.0
C1426 C 0.50518 0.95749 0.60992 0.0
C1427 C 0.51694 0.97555 0.6107 0.0
C1428 C 0.51535 0.99 0.59474 0.0
C1429 C 0.5019 0.98636 0.57847 0.0
C1430 C 0.50609 0.94194 0.62685 0.0
C1431 C 0.52797 0.0092 0.59474 0.0
C1432 C 0.5376 0.99413 0.6616 0.0
C1433 C 0.55755 0.98645 0.6615 0.0
C1434 C 0.52416 0.99046 0.64533 0.0
C1435 C 0.53094 0.97933 0.6282 0.0
C1436 C 0.55108 0.97179 0.62779 0.0
C1437 C 0.56401 0.97517 0.64452 0.0
C1438 C 0.50268 0.99846 0.6465 0.0
C1439 C 0.55901 0.96015 0.60965 0.0
H1440 H 0.48325 0.9402 0.59251 0.0
H1441 H 0.50055 0.99741 0.56626 0.0
H1442 H 0.52179 0.93598 0.62841 0.0
H1443 H 0.50206 0.94919 0.64156 0.0
H1444 H 0.49561 0.92894 0.62416 0.0
H1445 H 0.5253 0.01863 0.58094 0.0
H1446 H 0.52441 0.01845 0.60839 0.0
H1447 H 0.54437 0.00529 0.59556 0.0
H1448 H 0.53244 0.0032 0.67434 0.0
H1449 H 0.57917 0.96875 0.64432 0.0
H1450 H 0.49168 0.98578 0.64455 0.0
H1451 H 0.49991 0.00944 0.63395 0.0
H1452 H 0.49952 0.00615 0.66122 0.0
H1453 H 0.55007 0.94598 0.60754 0.0
H1454 H 0.57531 0.95603 0.61134 0.0
H1455 H 0.55716 0.96936 0.59559 0.0
C1456 C 0.83615 0.20309 0.74986 0.0
C1457 C 0.82562 0.21971 0.74151 0.0
C1458 C 0.85279 0.20595 0.76302 0.0
C1459 C 0.85931 0.22593 0.76776 0.0
C1460 C 0.84885 0.24278 0.75934 0.0
C1461 C 0.83207 0.23948 0.74646 0.0
C1462 C 0.86344 0.18758 0.77181 0.0
C1463 C 0.85542 0.26433 0.76391 0.0
C1464 C 0.8912 0.23438 0.81546 0.0
C1465 C 0.91102 0.23509 0.80753 0.0
C1466 C 0.87427 0.23131 0.80273 0.0
C1467 C 0.87713 0.22919 0.78146 0.0
C1468 C 0.89702 0.23008 0.7733 0.0
C1469 C 0.91371 0.23287 0.78642 0.0
C1470 C 0.85331 0.23029 0.81204 0.0
C1471 C 0.90069 0.22804 0.75069 0.0
H1472 H 0.83155 0.18775 0.74591 0.0
H1473 H 0.82388 0.25245 0.74039 0.0
H1474 H 0.87957 0.18742 0.7669 0.0
H1475 H 0.86338 0.18835 0.7887 0.0
H1476 H 0.85618 0.17307 0.76704 0.0
H1477 H 0.84587 0.27577 0.75591 0.0
H1478 H 0.85458 0.2672 0.78053 0.0
H1479 H 0.87149 0.26656 0.75928 0.0
H1480 H 0.88885 0.23643 0.83166 0.0
H1481 H 0.92893 0.23305 0.78012 0.0
H1482 H 0.84599 0.21557 0.80819 0.0
H1483 H 0.84359 0.24251 0.80563 0.0
H1484 H 0.85369 0.2319 0.82888 0.0
H1485 H 0.89521 0.21301 0.74531 0.0
H1486 H 0.91704 0.22959 0.74671 0.0
H1487 H 0.89196 0.23982 0.7423 0.0
C1488 C 0.4879 0.91958 0.51237 0.0
C1489 C 0.46829 0.92566 0.51816 0.0
C1490 C 0.49086 0.90287 0.4994 0.0
C1491 C 0.47381 0.89201 0.49189 0.0
C1492 C 0.45398 0.89799 0.49774 0.0
C1493 C 0.45146 0.91469 0.51084 0.0
C1494 C 0.51225 0.89695 0.49356 0.0
C1495 C 0.4354 0.88683 0.49005 0.0
C1496 C 0.48043 0.86138 0.44323 0.0
C1497 C 0.48271 0.84152 0.45078 0.0
C1498 C 0.47739 0.8779 0.45641 0.0
C1499 C 0.47671 0.87456 0.47772 0.0
C1500 C 0.47898 0.85458 0.48547 0.0
C1501 C 0.4819 0.83831 0.47192 0.0
C1502 C 0.47503 0.89898 0.44754 0.0
C1503 C 0.47837 0.85039 0.50808 0.0
H1504 H 0.50098 0.92812 0.51768 0.0
H1505 H 0.43627 0.91908 0.51545 0.0
H1506 H 0.51512 0.88085 0.49773 0.0
H1507 H 0.51416 0.89825 0.47681 0.0
H1508 H 0.52391 0.90663 0.5011 0.0
H1509 H 0.42104 0.89333 0.49609 0.0
H1510 H 0.43488 0.88744 0.47316 0.0
H1511 H 0.43622 0.87056 0.49447 0.0
H1512 H 0.48133 0.86408 0.42696 0.0
H1513 H 0.48334 0.82301 0.47791 0.0
H1514 H 0.48731 0.90903 0.45333 0.0
H1515 H 0.46035 0.90566 0.45244 0.0
H1516 H 0.47555 0.89897 0.43063 0.0
H1517 H 0.49052 0.85916 0.51591 0.0
H1518 H 0.4804 0.834 0.51167 0.0
H1519 H 0.46363 0.85549 0.51446 0.0
C1520 C 0.18071 0.28581 0.7592 0.0
C1521 C 0.17792 0.28623 0.73802 0.0
C1522 C 0.16422 0.28261 0.7724 0.0
C1523 C 0.14441 0.28011 0.76422 0.0
C1524 C 0.14149 0.28075 0.74283 0.0
C1525 C 0.15832 0.28362 0.72998 0.0
C1526 C 0.16803 0.28168 0.79508 0.0
C1527 C 0.12058 0.2785 0.73354 0.0
C1528 C 0.10415 0.25372 0.7964 0.0
C1529 C 0.09372 0.2703 0.80477 0.0
C1530 C 0.12073 0.25669 0.78326 0.0
C1531 C 0.12678 0.27673 0.77806 0.0
C1532 C 0.1161 0.29352 0.78627 0.0
C1533 C 0.09982 0.2901 0.79968 0.0
C1534 C 0.13193 0.23839 0.77513 0.0
C1535 C 0.12184 0.3151 0.78084 0.0
H1536 H 0.19589 0.28761 0.76543 0.0
H1537 H 0.15613 0.28411 0.71361 0.0
H1538 H 0.15918 0.29369 0.8029 0.0
H1539 H 0.1628 0.26682 0.80118 0.0
H1540 H 0.18437 0.28366 0.79897 0.0
H1541 H 0.12083 0.2798 0.71666 0.0
H1542 H 0.11402 0.2635 0.73769 0.0
H1543 H 0.11028 0.29033 0.7397 0.0
H1544 H 0.09956 0.2384 0.80047 0.0
H1545 H 0.09165 0.30293 0.806 0.0
H1546 H 0.14818 0.23916 0.77969 0.0
H1547 H 0.13142 0.23836 0.75823 0.0
H1548 H 0.12542 0.22384 0.78076 0.0
H1549 H 0.13771 0.31824 0.78571 0.0
H1550 H 0.11167 0.32645 0.78807 0.0
H1551 H 0.12121 0.31718 0.76407 0.0
C1552 C 0.51434 0.57868 0.50683 0.0
C1553 C 0.53405 0.57276 0.51262 0.0
C1554 C 0.51112 0.59543 0.49391 0.0
C1555 C 0.52803 0.60641 0.48631 0.0
C1556 C 0.54796 0.60044 0.49191 0.0
C1557 C 0.55072 0.58382 0.5051 0.0
C1558 C 0.48962 0.60141 0.48844 0.0
C1559 C 0.56639 0.61167 0.48402 0.0
C1560 C 0.5207 0.63867 0.43866 0.0
C1561 C 0.51925 0.6583 0.44687 0.0
C1562 C 0.52362 0.62165 0.4513 0.0
C1563 C 0.52487 0.6243 0.47268 0.0
C1564 C 0.52322 0.64407 0.48106 0.0
C1565 C 0.52055 0.66083 0.46805 0.0
C1566 C 0.52558 0.60086 0.44176 0.0
C1567 C 0.52419 0.64751 0.50379 0.0
H1568 H 0.50135 0.57009 0.51226 0.0
H1569 H 0.56599 0.57966 0.50972 0.0
H1570 H 0.48678 0.61738 0.49308 0.0
H1571 H 0.48745 0.60062 0.47169 0.0
H1572 H 0.47812 0.59148 0.49584 0.0
H1573 H 0.58087 0.60471 0.48928 0.0
H1574 H 0.56624 0.61183 0.46711 0.0
H1575 H 0.566 0.62772 0.48918 0.0
H1576 H 0.5199 0.63667 0.42228 0.0
H1577 H 0.51919 0.67595 0.47447 0.0
H1578 H 0.5136 0.59059 0.44774 0.0
H1579 H 0.54048 0.59408 0.4459 0.0
H1580 H 0.52431 0.60138 0.42489 0.0
H1581 H 0.51208 0.63858 0.51146 0.0
H1582 H 0.52234 0.66379 0.50788 0.0
H1583 H 0.53898 0.6421 0.50986 0.0
C1584 C 0.82166 0.78558 0.74399 0.0
C1585 C 0.82428 0.78314 0.76509 0.0
C1586 C 0.8379 0.78263 0.73044 0.0
C1587 C 0.85722 0.77697 0.73813 0.0
C1588 C 0.85995 0.77432 0.75937 0.0
C1589 C 0.84349 0.7775 0.77258 0.0
C1590 C 0.83439 0.78564 0.70789 0.0
C1591 C 0.88031 0.76827 0.76817 0.0
C1592 C 0.89521 0.7522 0.70225 0.0
C1593 C 0.90818 0.76852 0.69757 0.0
C1594 C 0.87857 0.75473 0.7154 0.0
C1595 C 0.87468 0.77408 0.72399 0.0
C1596 C 0.88761 0.79065 0.71923 0.0
C1597 C 0.90422 0.78766 0.70616 0.0
C1598 C 0.86516 0.73667 0.72013 0.0
C1599 C 0.88396 0.81153 0.72804 0.0
H1600 H 0.80682 0.78966 0.73803 0.0
H1601 H 0.84576 0.77588 0.78886 0.0
H1602 H 0.8447 0.79767 0.70204 0.0
H1603 H 0.83802 0.77145 0.69955 0.0
H1604 H 0.81845 0.79001 0.70435 0.0
H1605 H 0.8798 0.76637 0.78498 0.0
H1606 H 0.88545 0.75376 0.76127 0.0
H1607 H 0.89188 0.77998 0.76444 0.0
H1608 H 0.89794 0.73743 0.69548 0.0
H1609 H 0.91431 0.8003 0.70292 0.0
H1610 H 0.84925 0.73994 0.71552 0.0
H1611 H 0.8651 0.73378 0.73679 0.0
H1612 H 0.87025 0.72263 0.71225 0.0
H1613 H 0.86845 0.81683 0.724 0.0
H1614 H 0.89516 0.82292 0.7225 0.0
H1615 H 0.88486 0.81087 0.74491 0.0
C1616 C 0.05328 0.91545 0.49811 0.0
C1617 C 0.03671 0.92734 0.49179 0.0
C1618 C 0.05054 0.8987 0.51113 0.0
C1619 C 0.03077 0.89372 0.51806 0.0
C1620 C 0.01399 0.9057 0.51179 0.0
C1621 C 0.01715 0.92235 0.49872 0.0
C1622 C 0.06882 0.88625 0.51739 0.0
C1623 C 0.99268 0.90096 0.51892 0.0
C1624 C 0.02061 0.83986 0.53677 0.0
C1625 C 0.02173 0.84224 0.55799 0.0
C1626 C 0.02355 0.85647 0.5236 0.0
C1627 C 0.02764 0.87596 0.53184 0.0
C1628 C 0.02878 0.87846 0.55324 0.0
C1629 C 0.02585 0.86158 0.56604 0.0
C1630 C 0.02235 0.85314 0.50087 0.0
C1631 C 0.03299 0.89901 0.56261 0.0
H1632 H 0.06839 0.91906 0.49261 0.0
H1633 H 0.00432 0.93162 0.4941 0.0
H1634 H 0.07032 0.88618 0.53423 0.0
H1635 H 0.06676 0.87023 0.51248 0.0
H1636 H 0.08318 0.89217 0.51073 0.0
H1637 H 0.98128 0.91178 0.5127 0.0
H1638 H 0.98836 0.88533 0.51423 0.0
H1639 H 0.99204 0.90148 0.53581 0.0
H1640 H 0.01768 0.82492 0.53044 0.0
H1641 H 0.02647 0.86359 0.58242 0.0
H1642 H 0.03692 0.85764 0.49365 0.0
H1643 H 0.01027 0.86288 0.49421 0.0
H1644 H 0.01906 0.83704 0.49691 0.0
H1645 H 0.04779 0.90496 0.5571 0.0
H1646 H 0.03339 0.89841 0.57953 0.0
H1647 H 0.02111 0.91001 0.55784 0.0
C1648 C 0.16139 0.7203 0.77256 0.0
C1649 C 0.18104 0.71917 0.76442 0.0
C1650 C 0.14438 0.72315 0.75988 0.0
C1651 C 0.14716 0.7253 0.73859 0.0
C1652 C 0.16701 0.72431 0.73032 0.0
C1653 C 0.18371 0.72107 0.74332 0.0
C1654 C 0.12344 0.72375 0.76926 0.0
C1655 C 0.17065 0.72688 0.70775 0.0
C1656 C 0.10257 0.7153 0.70287 0.0
C1657 C 0.09534 0.73504 0.69927 0.0
C1658 C 0.1193 0.71189 0.71578 0.0
C1659 C 0.12928 0.72866 0.72498 0.0
C1660 C 0.12216 0.74864 0.7212 0.0
C1661 C 0.10514 0.75157 0.70855 0.0
C1662 C 0.12619 0.69034 0.71972 0.0
C1663 C 0.1326 0.76693 0.73041 0.0
H1664 H 0.15931 0.71865 0.78887 0.0
H1665 H 0.19893 0.72037 0.73704 0.0
H1666 H 0.11616 0.73863 0.76607 0.0
H1667 H 0.11368 0.71183 0.76232 0.0
H1668 H 0.12385 0.72138 0.78601 0.0
H1669 H 0.18704 0.72601 0.70379 0.0
H1670 H 0.16235 0.71495 0.69915 0.0
H1671 H 0.16465 0.7418 0.7026 0.0
H1672 H 0.09488 0.7025 0.69584 0.0
H1673 H 0.09967 0.76685 0.70562 0.0
H1674 H 0.12573 0.68707 0.73631 0.0
H1675 H 0.14217 0.68841 0.71472 0.0
H1676 H 0.11658 0.67897 0.71168 0.0
H1677 H 0.13216 0.76596 0.74727 0.0
H1678 H 0.12543 0.78147 0.72561 0.0
H1679 H 0.14885 0.76719 0.72587 0.0
C1680 C 0.97233 0.57038 0.51544 0.0
C1681 C 0.97268 0.57346 0.49429 0.0
C1682 C 0.97538 0.58663 0.52901 0.0
C1683 C 0.97866 0.60647 0.52124 0.0
C1684 C 0.97905 0.60966 0.4999 0.0
C1685 C 0.97614 0.59312 0.4867 0.0
C1686 C 0.97507 0.58257 0.55165 0.0
C1687 C 0.98228 0.63061 0.49101 0.0
C1688 C 0.96717 0.65187 0.55519 0.0
C1689 C 0.98671 0.65796 0.5614 0.0
C1690 C 0.96434 0.63513 0.54221 0.0
C1691 C 0.98143 0.62398 0.5354 0.0
C1692 C 1.00117 0.62982 0.54182 0.0
C1693 C 0.00358 0.64677 0.55463 0.0
C1694 C 0.94304 0.62946 0.53564 0.0
C1695 C 0.01977 0.61827 0.53498 0.0
H1696 H 0.96985 0.55518 0.52137 0.0
H1697 H 0.97615 0.59563 0.47037 0.0
H1698 H 0.98963 0.58757 0.55863 0.0
H1699 H 0.96275 0.59149 0.5589 0.0
H1700 H 0.9727 0.56622 0.55522 0.0
H1701 H 0.98233 0.6305 0.47408 0.0
H1702 H 0.97008 0.64099 0.49625 0.0
H1703 H 0.99695 0.63699 0.49643 0.0
H1704 H 0.954 0.66014 0.56058 0.0
H1705 H 0.01877 0.65147 0.55904 0.0
H1706 H 0.9396 0.6136 0.54029 0.0
H1707 H 0.94181 0.63014 0.51879 0.0
H1708 H 0.93135 0.63967 0.54229 0.0
H1709 H 0.01824 0.60194 0.53902 0.0
H1710 H 0.03398 0.62425 0.54195 0.0
H1711 H 0.02118 0.61917 0.51816 0.0
C1712 C 0.764 0.82167 0.2214 0.0
C1713 C 0.74288 0.82445 0.22265 0.0
C1714 C 0.77749 0.83801 0.22431 0.0
C1715 C 0.76969 0.85762 0.22852 0.0
C1716 C 0.74839 0.86051 0.22986 0.0
C1717 C 0.73525 0.84389 0.22694 0.0
C1718 C 0.8001 0.83428 0.22287 0.0
C1719 C 0.73947 0.8812 0.23422 0.0
C1720 C 0.80426 0.89677 0.2536 0.0
C1721 C 0.81033 0.90862 0.23689 0.0
C1722 C 0.79113 0.88008 0.25109 0.0
C1723 C 0.7838 0.87515 0.2314 0.0
C1724 C 0.78989 0.88703 0.21446 0.0
C1725 C 0.80309 0.90359 0.2174 0.0
C1726 C 0.78509 0.86772 0.26952 0.0
C1727 C 0.78233 0.88233 0.19323 0.0
H1728 H 0.77 0.80664 0.21834 0.0
H1729 H 0.71894 0.84619 0.22769 0.0
H1730 H 0.80672 0.84386 0.21063 0.0
H1731 H 0.80764 0.8387 0.23735 0.0
H1732 H 0.80372 0.8181 0.21963 0.0
H1733 H 0.72259 0.88087 0.23491 0.0
H1734 H 0.7454 0.88704 0.24893 0.0
H1735 H 0.74415 0.89213 0.22221 0.0
H1736 H 0.80999 0.90041 0.26867 0.0
H1737 H 0.80749 0.91284 0.20445 0.0
H1738 H 0.78959 0.8516 0.26738 0.0
H1739 H 0.76832 0.86799 0.27135 0.0
H1740 H 0.79221 0.87346 0.28377 0.0
H1741 H 0.78659 0.86659 0.18896 0.0
H1742 H 0.78859 0.89296 0.18166 0.0
H1743 H 0.76548 0.88322 0.19278 0.0
C1744 C 0.73616 0.1603 0.27968 0.0
C1745 C 0.74371 0.17973 0.28429 0.0
C1746 C 0.74936 0.14383 0.27652 0.0
C1747 C 0.77065 0.14684 0.27797 0.0
C1748 C 0.77838 0.16643 0.28254 0.0
C1749 C 0.76483 0.18263 0.28566 0.0
C1750 C 0.74051 0.12316 0.27176 0.0
C1751 C 0.80097 0.17029 0.28413 0.0
C1752 C 0.80405 0.10077 0.28838 0.0
C1753 C 0.81123 0.09608 0.26883 0.0
C1754 C 0.7909 0.11728 0.29158 0.0
C1755 C 0.78481 0.12945 0.27484 0.0
C1756 C 0.79211 0.12489 0.25508 0.0
C1757 C 0.8052 0.10826 0.25232 0.0
C1758 C 0.78339 0.12158 0.31287 0.0
C1759 C 0.78605 0.13757 0.23686 0.0
H1760 H 0.71986 0.15788 0.27887 0.0
H1761 H 0.77078 0.19766 0.28897 0.0
H1762 H 0.74645 0.11761 0.25697 0.0
H1763 H 0.74524 0.11205 0.28359 0.0
H1764 H 0.72363 0.12338 0.271 0.0
H1765 H 0.80453 0.18642 0.28769 0.0
H1766 H 0.80765 0.16052 0.29621 0.0
H1767 H 0.80851 0.16619 0.2696 0.0
H1768 H 0.80841 0.09127 0.30118 0.0
H1769 H 0.81089 0.10489 0.23721 0.0
H1770 H 0.76654 0.12056 0.31326 0.0
H1771 H 0.78758 0.1373 0.31739 0.0
H1772 H 0.78973 0.11082 0.32428 0.0
H1773 H 0.76929 0.13723 0.23492 0.0
H1774 H 0.7932 0.13213 0.22255 0.0
H1775 H 0.7905 0.15367 0.23933 0.0
C1776 C 0.40959 0.02164 0.97276 0.0
C1777 C 0.42938 0.01401 0.97076 0.0
C1778 C 0.39297 0.00852 0.97571 0.0
C1779 C 0.39627 0.98727 0.977 0.0
C1780 C 0.41628 0.9795 0.97519 0.0
C1781 C 0.43257 0.99296 0.97194 0.0
C1782 C 0.37185 0.01739 0.97724 0.0
C1783 C 0.42047 0.95698 0.97681 0.0
C1784 C 0.35538 0.95541 0.00279 0.0
C1785 C 0.34512 0.94686 0.98604 0.0
C1786 C 0.3722 0.96833 1.00008 0.0
C1787 C 0.37877 0.97317 0.98013 0.0
C1788 C 0.36851 0.9647 0.96316 0.0
C1789 C 0.35196 0.95153 0.96631 0.0
C1790 C 0.38287 0.9769 0.01858 0.0
C1791 C 0.37493 0.96963 0.94163 0.0
H1792 H 0.40707 0.0379 0.97166 0.0
H1793 H 0.4479 0.98704 0.9706 0.0
H1794 H 0.36199 0.01092 0.96512 0.0
H1795 H 0.36495 0.01324 0.99209 0.0
H1796 H 0.37185 0.03422 0.97578 0.0
H1797 H 0.43692 0.95342 0.97541 0.0
H1798 H 0.41495 0.95113 0.99167 0.0
H1799 H 0.41208 0.94869 0.96471 0.0
H1800 H 0.35009 0.95225 0.01809 0.0
H1801 H 0.34447 0.94477 0.95325 0.0
H1802 H 0.38173 0.99373 0.01856 0.0
H1803 H 0.39929 0.97302 0.01813 0.0
H1804 H 0.37637 0.97105 0.03306 0.0
H1805 H 0.3743 0.98631 0.9391 0.0
H1806 H 0.36516 0.96205 0.93007 0.0
H1807 H 0.39091 0.96482 0.93919 0.0
C1808 C 0.2422 0.3224 0.28341 0.0
C1809 C 0.2632 0.32577 0.28493 0.0
C1810 C 0.22869 0.33862 0.28008 0.0
C1811 C 0.23637 0.35872 0.27868 0.0
C1812 C 0.25758 0.36219 0.28038 0.0
C1813 C 0.27076 0.34564 0.28327 0.0
C1814 C 0.20624 0.33423 0.27794 0.0
C1815 C 0.26633 0.38342 0.27936 0.0
C1816 C 0.20487 0.39979 0.25269 0.0
C1817 C 0.19577 0.40944 0.26936 0.0
C1818 C 0.21787 0.38308 0.25547 0.0
C1819 C 0.22221 0.37613 0.27546 0.0
C1820 C 0.21314 0.38593 0.29236 0.0
C1821 C 0.19985 0.40233 0.28909 0.0
C1822 C 0.2269 0.3728 0.23704 0.0
C1823 C 0.21768 0.37924 0.31392 0.0
H1824 H 0.23637 0.307 0.28454 0.0
H1825 H 0.287 0.34826 0.28465 0.0
H1826 H 0.19767 0.34223 0.29006 0.0
H1827 H 0.2006 0.34007 0.2631 0.0
H1828 H 0.20279 0.31771 0.27892 0.0
H1829 H 0.28312 0.38356 0.28133 0.0
H1830 H 0.26256 0.39051 0.26448 0.0
H1831 H 0.25944 0.39303 0.29139 0.0
H1832 H 0.20157 0.40518 0.23741 0.0
H1833 H 0.19294 0.40991 0.302 0.0
H1834 H 0.22287 0.3564 0.23706 0.0
H1835 H 0.24374 0.37383 0.23759 0.0
H1836 H 0.22153 0.37968 0.22252 0.0
H1837 H 0.2132 0.36311 0.31603 0.0
H1838 H 0.20959 0.38862 0.32539 0.0
H1839 H 0.23428 0.38026 0.31688 0.0
C1840 C 0.09593 0.98158 0.47803 0.0
C1841 C 0.07716 0.98893 0.47089 0.0
C1842 C 0.11247 0.99473 0.48133 0.0
C1843 C 0.11038 0.01573 0.47705 0.0
C1844 C 0.09157 0.02327 0.46974 0.0
C1845 C 0.07517 0.00984 0.46692 0.0
C1846 C 0.13222 0.98612 0.48934 0.0
C1847 C 0.08878 0.04554 0.46481 0.0
C1848 C 0.14724 0.0532 0.50152 0.0
C1849 C 0.16142 0.0562 0.48588 0.0
C1850 C 0.13062 0.03998 0.49891 0.0
C1851 C 0.12794 0.02979 0.48008 0.0
C1852 C 0.14211 0.03296 0.46416 0.0
C1853 C 0.15876 0.046 0.46731 0.0
C1854 C 0.11604 0.03676 0.51636 0.0
C1855 C 0.13962 0.02265 0.44376 0.0
H1856 H 0.09782 0.96544 0.48084 0.0
H1857 H 0.06068 0.01579 0.46175 0.0
H1858 H 0.14453 0.98865 0.47809 0.0
H1859 H 0.13672 0.99409 0.50355 0.0
H1860 H 0.13116 0.96956 0.49258 0.0
H1861 H 0.07331 0.04892 0.45887 0.0
H1862 H 0.09145 0.05484 0.47865 0.0
H1863 H 0.10012 0.05037 0.45328 0.0
H1864 H 0.14937 0.06092 0.51596 0.0
H1865 H 0.16959 0.04847 0.45512 0.0
H1866 H 0.11561 0.0204 0.52056 0.0
H1867 H 0.10043 0.04113 0.51168 0.0
H1868 H 0.12034 0.04571 0.53006 0.0
H1869 H 0.13988 0.0059 0.44573 0.0
H1870 H 0.15176 0.02702 0.43284 0.0
H1871 H 0.12465 0.02666 0.43702 0.0
C1872 C 0.74255 0.18146 0.71746 0.0
C1873 C 0.76347 0.17954 0.72145 0.0
C1874 C 0.72913 0.16509 0.7206 0.0
C1875 C 0.7367 0.14643 0.72826 0.0
C1876 C 0.75772 0.14443 0.73252 0.0
C1877 C 0.77084 0.16091 0.7289 0.0
C1878 C 0.70684 0.16776 0.71567 0.0
C1879 C 0.76637 0.12484 0.74087 0.0
C1880 C 0.69964 0.10986 0.7537 0.0
C1881 C 0.69668 0.09528 0.7384 0.0
C1882 C 0.71265 0.12657 0.75063 0.0
C1883 C 0.72267 0.12891 0.73168 0.0
C1884 C 0.71951 0.11436 0.71609 0.0
C1885 C 0.70668 0.09764 0.71969 0.0
C1886 C 0.71587 0.14156 0.76775 0.0
C1887 C 0.72965 0.11647 0.69558 0.0
H1888 H 0.73657 0.19583 0.71204 0.0
H1889 H 0.78699 0.15907 0.73169 0.0
H1890 H 0.70198 0.15618 0.70437 0.0
H1891 H 0.69758 0.16538 0.72957 0.0
H1892 H 0.70343 0.1831 0.70943 0.0
H1893 H 0.78295 0.12597 0.74404 0.0
H1894 H 0.75846 0.12063 0.75519 0.0
H1895 H 0.7638 0.11232 0.72986 0.0
H1896 H 0.69208 0.10798 0.76824 0.0
H1897 H 0.70424 0.08651 0.70776 0.0
H1898 H 0.71148 0.15706 0.76271 0.0
H1899 H 0.73223 0.14211 0.77193 0.0
H1900 H 0.70693 0.13758 0.78154 0.0
H1901 H 0.7256 0.13131 0.68861 0.0
H1902 H 0.72521 0.10413 0.68491 0.0
H1903 H 0.74643 0.11624 0.69745 0.0
C1904 C 0.4336 0.01063 0.53589 0.0
C1905 C 0.43024 0.98955 0.53576 0.0
C1906 C 0.41757 0.02434 0.53249 0.0
C1907 C 0.39767 0.01679 0.52901 0.0
C1908 C 0.3942 0.99553 0.52883 0.0
C1909 C 0.41053 0.98217 0.53214 0.0
C1910 C 0.42193 0.04689 0.53258 0.0
C1911 C 0.37318 0.98689 0.52536 0.0
C1912 C 0.35278 0.05182 0.53901 0.0
C1913 C 0.34737 0.05794 0.51922 0.0
C1914 C 0.36909 0.03845 0.54241 0.0
C1915 C 0.38044 0.03113 0.52565 0.0
C1916 C 0.37521 0.03736 0.50566 0.0
C1917 C 0.3587 0.05058 0.50268 0.0
C1918 C 0.37415 0.03211 0.56395 0.0
C1919 C 0.38698 0.02995 0.48739 0.0
H1920 H 0.44884 0.0164 0.53847 0.0
H1921 H 0.4078 0.96591 0.53228 0.0
H1922 H 0.41736 0.05369 0.51779 0.0
H1923 H 0.41281 0.05444 0.5446 0.0
H1924 H 0.43827 0.05028 0.53532 0.0
H1925 H 0.37305 0.96999 0.52559 0.0
H1926 H 0.36267 0.99249 0.5373 0.0
H1927 H 0.36713 0.99213 0.51046 0.0
H1928 H 0.34437 0.05764 0.55192 0.0
H1929 H 0.35448 0.05491 0.48731 0.0
H1930 H 0.38999 0.03659 0.56774 0.0
H1931 H 0.37323 0.01531 0.56537 0.0
H1932 H 0.36376 0.03903 0.57531 0.0
H1933 H 0.40332 0.03383 0.48913 0.0
H1934 H 0.38132 0.03665 0.4729 0.0
H1935 H 0.38589 0.01315 0.48633 0.0
C1936 C 0.58506 0.50281 0.54996 0.0
C1937 C 0.57421 0.51078 0.5333 0.0
C1938 C 0.6016 0.48962 0.54711 0.0
C1939 C 0.60775 0.48452 0.52711 0.0
C1940 C 0.59697 0.49253 0.51022 0.0
C1941 C 0.58024 0.50537 0.51352 0.0
C1942 C 0.61255 0.48121 0.56553 0.0
C1943 C 0.60319 0.48763 0.48864 0.0
C1944 C 0.66224 0.46651 0.52003 0.0
C1945 C 0.65963 0.44546 0.51794 0.0
C1946 C 0.64547 0.47942 0.52278 0.0
C1947 C 0.62565 0.47102 0.52386 0.0
C1948 C 0.62295 0.44972 0.52191 0.0
C1949 C 0.63997 0.43721 0.51877 0.0
C1950 C 0.64895 0.50207 0.5244 0.0
C1951 C 0.60212 0.44013 0.52336 0.0
H1952 H 0.58082 0.5071 0.56531 0.0
H1953 H 0.57179 0.51108 0.50052 0.0
H1954 H 0.61278 0.46435 0.56491 0.0
H1955 H 0.6286 0.48646 0.56557 0.0
H1956 H 0.60535 0.48596 0.58006 0.0
H1957 H 0.59342 0.49535 0.47717 0.0
H1958 H 0.61921 0.49233 0.48612 0.0
H1959 H 0.60236 0.47098 0.48606 0.0
H1960 H 0.67742 0.47292 0.51919 0.0
H1961 H 0.63797 0.42091 0.51733 0.0
H1962 H 0.64343 0.50768 0.53933 0.0
H1963 H 0.64014 0.5101 0.5124 0.0
H1964 H 0.66526 0.50622 0.52282 0.0
H1965 H 0.59514 0.4439 0.53826 0.0
H1966 H 0.60265 0.42332 0.52175 0.0
H1967 H 0.59203 0.44638 0.51133 0.0
C1968 C 0.74189 0.2487 0.32916 0.0
C1969 C 0.72258 0.24039 0.32545 0.0
C1970 C 0.74528 0.26182 0.34571 0.0
C1971 C 0.72902 0.26655 0.359 0.0
C1972 C 0.70951 0.2581 0.35537 0.0
C1973 C 0.7065 0.24522 0.33857 0.0
C1974 C 0.76623 0.27073 0.3489 0.0
C1975 C 0.69184 0.26255 0.36932 0.0
C1976 C 0.74192 0.28563 0.4122 0.0
C1977 C 0.73855 0.30664 0.4103 0.0
C1978 C 0.73879 0.27241 0.39568 0.0
C1979 C 0.73239 0.28038 0.37667 0.0
C1980 C 0.72913 0.30155 0.37456 0.0
C1981 C 0.73209 0.31439 0.3914 0.0
C1982 C 0.74228 0.2499 0.39859 0.0
C1983 C 0.72245 0.31066 0.3545 0.0
H1984 H 0.75431 0.24515 0.31893 0.0
H1985 H 0.69161 0.23863 0.33587 0.0
H1986 H 0.76541 0.28759 0.34857 0.0
H1987 H 0.77216 0.2663 0.3641 0.0
H1988 H 0.7772 0.26565 0.33711 0.0
H1989 H 0.67769 0.25464 0.36449 0.0
H1990 H 0.69563 0.25778 0.3851 0.0
H1991 H 0.68887 0.27915 0.36969 0.0
H1992 H 0.74723 0.27948 0.42658 0.0
H1993 H 0.72908 0.33051 0.3898 0.0
H1994 H 0.75431 0.24457 0.38805 0.0
H1995 H 0.7282 0.24135 0.39483 0.0
H1996 H 0.74689 0.24607 0.41443 0.0
H1997 H 0.73348 0.30667 0.34238 0.0
H1998 H 0.72111 0.32749 0.35521 0.0
H1999 H 0.7075 0.30425 0.34994 0.0
C2000 C 0.51237 0.03709 0.93349 0.0
C2001 C 0.49137 0.03413 0.93093 0.0
C2002 C 0.52597 0.03395 0.91731 0.0
C2003 C 0.51842 0.02767 0.89809 0.0
C2004 C 0.49726 0.02457 0.89543 0.0
C2005 C 0.48401 0.02787 0.91184 0.0
C2006 C 0.54843 0.03739 0.92077 0.0
C2007 C 0.48858 0.01792 0.87517 0.0
C2008 C 0.55007 0.03759 0.85064 0.0
C2009 C 0.55869 0.01842 0.847 0.0
C2010 C 0.5371 0.04085 0.8673 0.0
C2011 C 0.53259 0.02455 0.88067 0.0
C2012 C 0.54136 0.0052 0.87719 0.0
C2013 C 0.5543 0.00237 0.86042 0.0
C2014 C 0.52813 0.06173 0.87052 0.0
C2015 C 0.53688 0.98741 0.89106 0.0
H2016 H 0.51822 0.04168 0.94824 0.0
H2017 H 0.46779 0.02585 0.90962 0.0
H2018 H 0.55696 0.02322 0.91751 0.0
H2019 H 0.55412 0.04923 0.91014 0.0
H2020 H 0.55187 0.04222 0.93662 0.0
H2021 H 0.47182 0.01581 0.87571 0.0
H2022 H 0.49217 0.02942 0.86332 0.0
H2023 H 0.49567 0.0034 0.87036 0.0
H2024 H 0.55361 0.05015 0.84054 0.0
H2025 H 0.56069 0.98746 0.85759 0.0
H2026 H 0.53239 0.06751 0.88583 0.0
H2027 H 0.51129 0.06087 0.86996 0.0
H2028 H 0.53334 0.07286 0.85889 0.0
H2029 H 0.54102 0.99127 0.90699 0.0
H2030 H 0.54527 0.97348 0.88654 0.0
H2031 H 0.52034 0.98403 0.89083 0.0
C2032 C 0.26408 0.25798 0.33063 0.0
C2033 C 0.28381 0.26478 0.32609 0.0
C2034 C 0.26043 0.24486 0.34713 0.0
C2035 C 0.27691 0.23825 0.35937 0.0
C2036 C 0.29688 0.24494 0.35483 0.0
C2037 C 0.30008 0.25815 0.3383 0.0
C2038 C 0.23891 0.23807 0.35147 0.0
C2039 C 0.31486 0.23823 0.3675 0.0
C2040 C 0.26627 0.21924 0.41308 0.0
C2041 C 0.26679 0.19807 0.41047 0.0
C2042 C 0.26941 0.23249 0.39657 0.0
C2043 C 0.27327 0.22438 0.37697 0.0
C2044 C 0.27375 0.20302 0.37423 0.0
C2045 C 0.27047 0.19014 0.39099 0.0
C2046 C 0.26861 0.25516 0.40009 0.0
C2047 C 0.27795 0.19378 0.35361 0.0
H2048 H 0.25145 0.26276 0.32111 0.0
H2049 H 0.31533 0.26354 0.33511 0.0
H2050 H 0.23788 0.22125 0.3506 0.0
H2051 H 0.23456 0.24252 0.36716 0.0
H2052 H 0.22776 0.24472 0.34062 0.0
H2053 H 0.32946 0.24453 0.36177 0.0
H2054 H 0.31282 0.24314 0.38353 0.0
H2055 H 0.31588 0.22138 0.36756 0.0
H2056 H 0.26319 0.22548 0.42804 0.0
H2057 H 0.27114 0.1738 0.38892 0.0
H2058 H 0.25673 0.26208 0.39026 0.0
H2059 H 0.28335 0.2622 0.39582 0.0
H2060 H 0.26529 0.25903 0.41622 0.0
H2061 H 0.2665 0.19915 0.34238 0.0
H2062 H 0.27762 0.17689 0.35399 0.0
H2063 H 0.29309 0.19879 0.34809 0.0
C2064 C 0.50833 0.48557 0.9238 0.0
C2065 C 0.51563 0.46614 0.9288 0.0
C2066 C 0.4954 0.48855 0.90698 0.0
C2067 C 0.48961 0.4717 0.89485 0.0
C2068 C 0.49693 0.45205 0.8998 0.0
C2069 C 0.50984 0.44951 0.91671 0.0
C2070 C 0.48785 0.50972 0.90226 0.0
C2071 C 0.49117 0.43371 0.8872 0.0
C2072 C 0.44171 0.47618 0.86249 0.0
C2073 C 0.44973 0.48068 0.8432 0.0
C2074 C 0.4545 0.47317 0.8794 0.0
C2075 C 0.47586 0.47463 0.87699 0.0
C2076 C 0.48406 0.47905 0.85754 0.0
C2077 C 0.4709 0.48204 0.8409 0.0
C2078 C 0.44515 0.46858 0.89989 0.0
C2079 C 0.50674 0.48063 0.85432 0.0
H2080 H 0.51252 0.49845 0.93322 0.0
H2081 H 0.51563 0.4345 0.92032 0.0
H2082 H 0.49246 0.51417 0.88663 0.0
H2083 H 0.47099 0.51003 0.90275 0.0
H2084 H 0.49383 0.52122 0.91314 0.0
H2085 H 0.49814 0.41948 0.89309 0.0
H2086 H 0.4744 0.43183 0.88704 0.0
H2087 H 0.49607 0.43596 0.87119 0.0
H2088 H 0.42536 0.47537 0.86445 0.0
H2089 H 0.47722 0.48525 0.826 0.0
H2090 H 0.44954 0.48052 0.911 0.0
H2091 H 0.45103 0.4539 0.90581 0.0
H2092 H 0.42829 0.46775 0.89918 0.0
H2093 H 0.51313 0.49281 0.86412 0.0
H2094 H 0.51069 0.48401 0.83822 0.0
H2095 H 0.5142 0.46618 0.85883 0.0
C2096 C 0.7415 0.75506 0.17857 0.0
C2097 C 0.72208 0.76302 0.18229 0.0
C2098 C 0.74497 0.74185 0.16215 0.0
C2099 C 0.72867 0.73662 0.14901 0.0
C2100 C 0.70903 0.74464 0.15267 0.0
C2101 C 0.70596 0.75767 0.16931 0.0
C2102 C 0.76608 0.73343 0.1589 0.0
C2103 C 0.69131 0.7396 0.13888 0.0
C2104 C 0.74122 0.71783 0.09572 0.0
C2105 C 0.73835 0.69674 0.09765 0.0
C2106 C 0.73808 0.73097 0.11227 0.0
C2107 C 0.73217 0.72284 0.13135 0.0
C2108 C 0.72946 0.70158 0.13351 0.0
C2109 C 0.73245 0.68882 0.11663 0.0
C2110 C 0.74102 0.75356 0.10932 0.0
C2111 C 0.72328 0.69232 0.15363 0.0
H2112 H 0.75395 0.759 0.18869 0.0
H2113 H 0.69097 0.76397 0.17199 0.0
H2114 H 0.76563 0.71657 0.15926 0.0
H2115 H 0.77177 0.73799 0.14366 0.0
H2116 H 0.77704 0.73881 0.17062 0.0
H2117 H 0.677 0.74707 0.14383 0.0
H2118 H 0.69473 0.74449 0.12307 0.0
H2119 H 0.68881 0.72292 0.13854 0.0
H2120 H 0.74611 0.72411 0.08126 0.0
H2121 H 0.72986 0.67262 0.11826 0.0
H2122 H 0.753 0.75923 0.11983 0.0
H2123 H 0.72677 0.76174 0.1131 0.0
H2124 H 0.74542 0.75749 0.09346 0.0
H2125 H 0.73436 0.69665 0.16566 0.0
H2126 H 0.72237 0.67546 0.15295 0.0
H2127 H 0.70823 0.69831 0.15829 0.0
C2128 C 0.00872 0.01628 0.08007 0.0
C2129 C 0.01544 0.0359 0.07493 0.0
C2130 C 0.99552 0.01306 0.09656 0.0
C2131 C 0.98876 0.02987 0.10817 0.0
C2132 C 0.99537 0.04972 0.10301 0.0
C2133 C 0.00866 0.05249 0.0865 0.0
C2134 C 0.98882 0.99165 0.10156 0.0
C2135 C 0.98851 0.06804 0.11502 0.0
C2136 C 0.94068 0.02363 0.13975 0.0
C2137 C 0.94864 0.02028 0.15933 0.0
C2138 C 0.95354 0.02684 0.12298 0.0
C2139 C 0.9749 0.02665 0.12583 0.0
C2140 C 0.98304 0.02329 0.14554 0.0
C2141 C 0.96982 0.02017 0.16204 0.0
C2142 C 0.94427 0.03049 0.10223 0.0
C2143 C 0.00572 0.02284 0.14919 0.0
H2144 H 0.01363 0.0034 0.07104 0.0
H2145 H 0.01398 0.06766 0.08283 0.0
H2146 H 0.99331 0.98776 0.1174 0.0
H2147 H 0.972 0.99053 0.10069 0.0
H2148 H 0.9955 0.98022 0.09109 0.0
H2149 H 0.99472 0.08249 0.10881 0.0
H2150 H 0.97166 0.06894 0.11496 0.0
H2151 H 0.99343 0.06652 0.13113 0.0
H2152 H 0.92433 0.02398 0.13757 0.0
H2153 H 0.9761 0.01732 0.17706 0.0
H2154 H 0.94959 0.01872 0.09138 0.0
H2155 H 0.94931 0.04545 0.09623 0.0
H2156 H 0.92738 0.03021 0.10258 0.0
H2157 H 0.01274 0.01064 0.1399 0.0
H2158 H 0.00961 0.02018 0.16546 0.0
H2159 H 0.01264 0.03745 0.14431 0.0
C2160 C 0.3012 0.74245 0.16567 0.0
C2161 C 0.28536 0.73867 0.17944 0.0
C2162 C 0.29836 0.75542 0.14888 0.0
C2163 C 0.27933 0.76511 0.146 0.0
C2164 C 0.26333 0.76142 0.15994 0.0
C2165 C 0.26649 0.74812 0.1764 0.0
C2166 C 0.31569 0.75868 0.13417 0.0
C2167 C 0.24293 0.7717 0.15759 0.0
C2168 C 0.27796 0.81317 0.11369 0.0
C2169 C 0.26992 0.80597 0.09519 0.0
C2170 C 0.28096 0.80008 0.13036 0.0
C2171 C 0.27618 0.77917 0.12844 0.0
C2172 C 0.2683 0.77172 0.10979 0.0
C2173 C 0.2651 0.78521 0.09348 0.0
C2174 C 0.28921 0.80866 0.15006 0.0
C2175 C 0.26319 0.74948 0.10708 0.0
H2176 H 0.31574 0.735 0.1679 0.0
H2177 H 0.25429 0.74536 0.18715 0.0
H2178 H 0.31088 0.7543 0.11857 0.0
H2179 H 0.31987 0.77503 0.13369 0.0
H2180 H 0.3294 0.74974 0.13838 0.0
H2181 H 0.23213 0.76734 0.16985 0.0
H2182 H 0.24492 0.78847 0.15783 0.0
H2183 H 0.23607 0.7677 0.14267 0.0
H2184 H 0.28211 0.82905 0.11514 0.0
H2185 H 0.25856 0.77948 0.07945 0.0
H2186 H 0.30384 0.8012 0.15396 0.0
H2187 H 0.27848 0.80543 0.16268 0.0
H2188 H 0.29175 0.82535 0.14922 0.0
H2189 H 0.27678 0.74003 0.1104 0.0
H2190 H 0.2578 0.74599 0.09141 0.0
H2191 H 0.25119 0.74495 0.11803 0.0
C2192 C 0.99501 0.48648 0.08241 0.0
C2193 C 0.98773 0.46708 0.07727 0.0
C2194 C 0.00792 0.48935 0.09925 0.0
C2195 C 0.01366 0.47241 0.11131 0.0
C2196 C 0.00628 0.4528 0.10626 0.0
C2197 C 0.99344 0.45037 0.08929 0.0
C2198 C 0.01555 0.51049 0.10405 0.0
C2199 C 0.01196 0.43438 0.1188 0.0
C2200 C 0.06174 0.47676 0.14339 0.0
C2201 C 0.05385 0.48131 0.1627 0.0
C2202 C 0.04884 0.47374 0.12657 0.0
C2203 C 0.02751 0.47522 0.1291 0.0
C2204 C 0.01943 0.47963 0.14859 0.0
C2205 C 0.03269 0.48266 0.16513 0.0
C2206 C 0.05806 0.46919 0.10602 0.0
C2207 C 0.99677 0.4812 0.15194 0.0
H2208 H 0.99086 0.49943 0.07304 0.0
H2209 H 0.98767 0.43537 0.08555 0.0
H2210 H 0.01104 0.51482 0.11974 0.0
H2211 H 0.03241 0.5108 0.10348 0.0
H2212 H 0.00956 0.52207 0.09326 0.0
H2213 H 0.00482 0.42021 0.11295 0.0
H2214 H 0.02872 0.43239 0.11883 0.0
H2215 H 0.00721 0.4366 0.13485 0.0
H2216 H 0.07808 0.47595 0.14134 0.0
H2217 H 0.02648 0.48591 0.18006 0.0
H2218 H 0.05369 0.48118 0.09495 0.0
H2219 H 0.05207 0.45455 0.10012 0.0
H2220 H 0.07492 0.46831 0.10665 0.0
H2221 H 0.99037 0.49347 0.14225 0.0
H2222 H 0.99292 0.48444 0.16808 0.0
H2223 H 0.98923 0.4668 0.14737 0.0
C2224 C 0.33263 0.7376 0.24601 0.0
C2225 C 0.32617 0.7179 0.24084 0.0
C2226 C 0.34939 0.74074 0.25896 0.0
C2227 C 0.35985 0.72379 0.26716 0.0
C2228 C 0.35337 0.70387 0.26212 0.0
C2229 C 0.3367 0.70117 0.24896 0.0
C2230 C 0.35589 0.76223 0.26387 0.0
C2231 C 0.36405 0.68539 0.27064 0.0
C2232 C 0.41408 0.73116 0.28617 0.0
C2233 C 0.41125 0.73315 0.30728 0.0
C2234 C 0.3975 0.72817 0.27295 0.0
C2235 C 0.37758 0.7269 0.28101 0.0
C2236 C 0.3746 0.72872 0.30229 0.0
C2237 C 0.39143 0.73192 0.31513 0.0
C2238 C 0.4013 0.72641 0.25034 0.0
C2239 C 0.35361 0.72734 0.31148 0.0
H2240 H 0.32443 0.75064 0.24011 0.0
H2241 H 0.33205 0.68589 0.24484 0.0
H2242 H 0.35494 0.76485 0.28054 0.0
H2243 H 0.37198 0.76457 0.25938 0.0
H2244 H 0.34636 0.77377 0.25599 0.0
H2245 H 0.35692 0.67094 0.26551 0.0
H2246 H 0.38023 0.68543 0.2659 0.0
H2247 H 0.36381 0.68582 0.28754 0.0
H2248 H 0.42931 0.73174 0.27994 0.0
H2249 H 0.389 0.73375 0.33135 0.0
H2250 H 0.39268 0.73834 0.24206 0.0
H2251 H 0.39578 0.71148 0.24472 0.0
H2252 H 0.41768 0.72793 0.24647 0.0
H2253 H 0.34383 0.73963 0.30528 0.0
H2254 H 0.35391 0.72862 0.32836 0.0
H2255 H 0.34641 0.71265 0.3073 0.0
C2256 C 0.9887 0.42275 0.00854 0.0
C2257 C 0.96884 0.42849 0.01384 0.0
C2258 C 0.99226 0.4064 0.99528 0.0
C2259 C 0.97557 0.39558 0.98693 0.0
C2260 C 0.95549 0.40139 0.99204 0.0
C2261 C 0.95238 0.41769 0.00548 0.0
C2262 C 0.0139 0.40062 0.99026 0.0
C2263 C 0.93729 0.39029 0.98341 0.0
C2264 C 0.98411 0.36439 0.9389 0.0
C2265 C 0.98583 0.34459 0.94678 0.0
C2266 C 0.9807 0.3811 0.95176 0.0
C2267 C 0.97911 0.37801 0.97306 0.0
C2268 C 0.98088 0.35811 0.98112 0.0
C2269 C 0.98412 0.34166 0.9679 0.0
C2270 C 0.97882 0.40208 0.94257 0.0
C2271 C 0.97933 0.35418 0.00374 0.0
H2272 H 1.00151 0.43118 0.01465 0.0
H2273 H 0.93699 0.42179 0.00969 0.0
H2274 H 0.01676 0.38463 0.99484 0.0
H2275 H 0.01638 0.40162 0.97358 0.0
H2276 H 0.02519 0.41055 0.99803 0.0
H2277 H 0.92267 0.39702 0.98848 0.0
H2278 H 0.93778 0.39059 0.96651 0.0
H2279 H 0.93768 0.3741 0.98817 0.0
H2280 H 0.98568 0.36688 0.92266 0.0
H2281 H 0.98509 0.32642 0.97413 0.0
H2282 H 0.99082 0.41219 0.94884 0.0
H2283 H 0.96393 0.40884 0.94669 0.0
H2284 H 0.98015 0.4019 0.9257 0.0
H2285 H 0.99106 0.36313 0.01199 0.0
H2286 H 0.98131 0.33785 0.00761 0.0
H2287 H 0.96428 0.35924 0.00941 0.0
C2288 C 0.67604 0.76507 0.25003 0.0
C2289 C 0.68077 0.78459 0.24277 0.0
C2290 C 0.65949 0.76186 0.26315 0.0
C2291 C 0.64731 0.77856 0.26912 0.0
C2292 C 0.65197 0.7983 0.26181 0.0
C2293 C 0.66866 0.80108 0.24876 0.0
C2294 C 0.6551 0.74061 0.27071 0.0
C2295 C 0.63929 0.81648 0.26772 0.0
C2296 C 0.59378 0.76786 0.28828 0.0
C2297 C 0.59629 0.76942 0.30946 0.0
C2298 C 0.61023 0.77083 0.27498 0.0
C2299 C 0.62971 0.77539 0.28304 0.0
C2300 C 0.63237 0.77691 0.30441 0.0
C2301 C 0.61563 0.77396 0.31734 0.0
C2302 C 0.60674 0.7692 0.25229 0.0
C2303 C 0.65292 0.7816 0.3136 0.0
H2304 H 0.68549 0.75231 0.24567 0.0
H2305 H 0.67209 0.81617 0.24302 0.0
H2306 H 0.65579 0.74023 0.2876 0.0
H2307 H 0.63949 0.736 0.2662 0.0
H2308 H 0.66602 0.72926 0.26464 0.0
H2309 H 0.64489 0.8308 0.26069 0.0
H2310 H 0.62325 0.81406 0.26298 0.0
H2311 H 0.63936 0.81831 0.28452 0.0
H2312 H 0.57883 0.76461 0.28207 0.0
H2313 H 0.61774 0.77495 0.3337 0.0
H2314 H 0.61665 0.75721 0.24581 0.0
H2315 H 0.6109 0.78374 0.24477 0.0
H2316 H 0.59067 0.76556 0.24847 0.0
H2317 H 0.66409 0.76986 0.30896 0.0
H2318 H 0.65247 0.7822 0.33051 0.0
H2319 H 0.65856 0.79643 0.30782 0.0
C2320 C 0.01728 0.08118 0.00659 0.0
C2321 C 0.03691 0.07575 0.01306 0.0
C2322 C 0.01415 0.09768 0.99334 0.0
C2323 C 0.03107 0.10896 0.9862 0.0
C2324 C 0.05093 0.10348 0.99252 0.0
C2325 C 0.0536 0.08702 0.00592 0.0
C2326 C 0.99273 0.10309 0.98701 0.0
C2327 C 0.06936 0.11508 0.9852 0.0
C2328 C 0.02448 0.1406 0.93803 0.0
C2329 C 0.02175 0.16022 0.94599 0.0
C2330 C 0.02765 0.12381 0.95092 0.0
C2331 C 0.02797 0.12664 0.9723 0.0
C2332 C 0.02525 0.14638 0.98044 0.0
C2333 C 0.02227 0.16292 0.9672 0.0
C2334 C 0.03057 0.10301 0.94166 0.0
C2335 C 0.02545 0.15004 0.00315 0.0
H2336 H 0.00431 0.0724 0.01176 0.0
H2337 H 0.06879 0.08316 0.01105 0.0
H2338 H 0.98928 0.11897 0.99154 0.0
H2339 H 0.99124 0.10226 0.97019 0.0
H2340 H 0.98121 0.09285 0.99396 0.0
H2341 H 0.0838 0.1086 0.99115 0.0
H2342 H 0.0699 0.11499 0.96831 0.0
H2343 H 0.06834 0.1312 0.99007 0.0
H2344 H 0.02384 0.13828 0.9217 0.0
H2345 H 0.02053 0.17804 0.97351 0.0
H2346 H 0.01842 0.09257 0.94699 0.0
H2347 H 0.04531 0.0965 0.94671 0.0
H2348 H 0.03029 0.10341 0.92474 0.0
H2349 H 0.01342 0.1408 0.01056 0.0
H2350 H 0.02297 0.16629 0.00705 0.0
H2351 H 0.04023 0.14516 0.0097 0.0
C2352 C 0.32259 0.28524 0.24456 0.0
C2353 C 0.32544 0.28635 0.2657 0.0
C2354 C 0.33907 0.28181 0.23143 0.0
C2355 C 0.35893 0.27985 0.23962 0.0
C2356 C 0.36191 0.28123 0.26096 0.0
C2357 C 0.34508 0.28425 0.27377 0.0
C2358 C 0.3352 0.28004 0.20881 0.0
C2359 C 0.38287 0.27961 0.27027 0.0
C2360 C 0.39965 0.25287 0.20868 0.0
C2361 C 0.40993 0.26927 0.19971 0.0
C2362 C 0.38291 0.25608 0.22153 0.0
C2363 C 0.37657 0.27621 0.22586 0.0
C2364 C 0.38707 0.29284 0.217 0.0
C2365 C 0.40349 0.28915 0.20385 0.0
C2366 C 0.37188 0.23794 0.23035 0.0
C2367 C 0.38106 0.31451 0.22154 0.0
H2368 H 0.30737 0.28668 0.23833 0.0
H2369 H 0.3473 0.28526 0.29011 0.0
H2370 H 0.34389 0.2919 0.20051 0.0
H2371 H 0.34059 0.26506 0.20325 0.0
H2372 H 0.31883 0.28165 0.20491 0.0
H2373 H 0.38267 0.28157 0.28708 0.0
H2374 H 0.38957 0.26455 0.26672 0.0
H2375 H 0.39303 0.29132 0.26358 0.0
H2376 H 0.40452 0.23749 0.20535 0.0
H2377 H 0.41156 0.30185 0.19705 0.0
H2378 H 0.3556 0.23841 0.22588 0.0
H2379 H 0.37252 0.23843 0.24723 0.0
H2380 H 0.37846 0.22329 0.22516 0.0
H2381 H 0.36513 0.31721 0.21663 0.0
H2382 H 0.39105 0.32573 0.21378 0.0
H2383 H 0.38175 0.31727 0.23821 0.0
C2384 C 0.51568 0.42098 0.99706 0.0
C2385 C 0.5355 0.42666 0.99147 0.0
C2386 C 0.5122 0.40457 0.01035 0.0
C2387 C 0.52892 0.39367 0.01845 0.0
C2388 C 0.54896 0.39939 0.01302 0.0
C2389 C 0.552 0.41572 0.99953 0.0
C2390 C 0.49059 0.39888 0.01568 0.0
C2391 C 0.56721 0.38821 0.0214 0.0
C2392 C 0.52094 0.36262 0.06679 0.0
C2393 C 0.51924 0.34282 0.05904 0.0
C2394 C 0.52414 0.37931 0.05377 0.0
C2395 C 0.52547 0.37614 0.03247 0.0
C2396 C 0.52358 0.3562 0.02455 0.0
C2397 C 0.52058 0.33978 0.03793 0.0
C2398 C 0.52628 0.40031 0.06283 0.0
C2399 C 0.52467 0.35221 1.00193 0.0
H2400 H 0.50284 0.42951 0.9912 0.0
H2401 H 0.56736 0.41974 0.99508 0.0
H2402 H 0.4876 0.38285 0.01135 0.0
H2403 H 0.48832 0.40005 0.03238 0.0
H2404 H 0.47925 0.40875 0.00792 0.0
H2405 H 0.58181 0.39489 0.01611 0.0
H2406 H 0.56697 0.38851 0.0383 0.0
H2407 H 0.56664 0.37202 0.01668 0.0
H2408 H 0.52013 0.36503 0.0831 0.0
H2409 H 0.51902 0.32454 0.03183 0.0
H2410 H 0.51449 0.41055 0.05642 0.0
H2411 H 0.5413 0.40683 0.05874 0.0
H2412 H 0.52485 0.40021 0.07969 0.0
H2413 H 0.51272 0.36103 0.99389 0.0
H2414 H 0.52269 0.33584 0.9982 0.0
H2415 H 0.53957 0.35736 0.99591 0.0
C2416 C 0.6833 0.21689 0.24337 0.0
C2417 C 0.68122 0.21927 0.26452 0.0
C2418 C 0.66669 0.21972 0.23017 0.0
C2419 C 0.64753 0.22522 0.23826 0.0
C2420 C 0.64533 0.22776 0.25956 0.0
C2421 C 0.66216 0.22469 0.27242 0.0
C2422 C 0.66966 0.21683 0.20755 0.0
C2423 C 0.62516 0.23365 0.26877 0.0
C2424 C 0.60895 0.25013 0.20287 0.0
C2425 C 0.59598 0.23379 0.19817 0.0
C2426 C 0.62572 0.24758 0.21593 0.0
C2427 C 0.62975 0.22819 0.22443 0.0
C2428 C 0.61679 0.21162 0.21972 0.0
C2429 C 0.60005 0.21464 0.20673 0.0
C2430 C 0.63915 0.26564 0.22062 0.0
C2431 C 0.62059 0.1907 0.22844 0.0
H2432 H 0.69802 0.21302 0.23708 0.0
H2433 H 0.66032 0.22629 0.28875 0.0
H2434 H 0.65916 0.20488 0.20184 0.0
H2435 H 0.6659 0.2311 0.19933 0.0
H2436 H 0.68549 0.21242 0.2037 0.0
H2437 H 0.62604 0.23534 0.28559 0.0
H2438 H 0.61985 0.24823 0.26211 0.0
H2439 H 0.61352 0.22196 0.26512 0.0
H2440 H 0.60614 0.26492 0.19612 0.0
H2441 H 0.58997 0.20199 0.20349 0.0
H2442 H 0.65496 0.2625 0.21567 0.0
H2443 H 0.6396 0.26832 0.2373 0.0
H2444 H 0.63382 0.27975 0.21298 0.0
H2445 H 0.63599 0.18538 0.22409 0.0
H2446 H 0.60924 0.17936 0.22309 0.0
H2447 H 0.62012 0.19129 0.24532 0.0
C2448 C 0.45177 0.08861 0.99596 0.0
C2449 C 0.4685 0.07666 0.99028 0.0
C2450 C 0.45415 0.10541 0.00896 0.0
C2451 C 0.47372 0.1104 0.01651 0.0
C2452 C 0.49068 0.09847 0.01077 0.0
C2453 C 0.48787 0.08177 0.99773 0.0
C2454 C 0.4357 0.11782 0.01463 0.0
C2455 C 0.51179 0.10323 0.01856 0.0
C2456 C 0.48361 0.164 0.03605 0.0
C2457 C 0.48211 0.16134 0.05721 0.0
C2458 C 0.48081 0.1476 0.02263 0.0
C2459 C 0.47645 0.12802 0.03054 0.0
C2460 C 0.47484 0.12525 0.05188 0.0
C2461 C 0.47765 0.14194 0.06494 0.0
C2462 C 0.48253 0.15121 0.99997 0.0
C2463 C 0.47032 0.10461 0.06092 0.0
H2464 H 0.4368 0.08492 0.99006 0.0
H2465 H 0.50082 0.07246 0.99362 0.0
H2466 H 0.43363 0.11764 0.0314 0.0
H2467 H 0.43795 0.1339 0.01002 0.0
H2468 H 0.42157 0.11203 0.00735 0.0
H2469 H 0.5234 0.09259 0.0125 0.0
H2470 H 0.51612 0.11897 0.01423 0.0
H2471 H 0.51204 0.10242 0.03545 0.0
H2472 H 0.48678 0.179 0.02995 0.0
H2473 H 0.47672 0.13971 0.08128 0.0
H2474 H 0.46817 0.14672 0.99227 0.0
H2475 H 0.49483 0.14161 0.99358 0.0
H2476 H 0.48583 0.16737 0.99626 0.0
H2477 H 0.45571 0.09872 0.05481 0.0
H2478 H 0.46937 0.10503 0.07782 0.0
H2479 H 0.48235 0.09367 0.05651 0.0
C2480 C 0.26162 0.32172 0.72027 0.0
C2481 C 0.24062 0.32508 0.71866 0.0
C2482 C 0.27515 0.33794 0.72368 0.0
C2483 C 0.26751 0.35803 0.72511 0.0
C2484 C 0.24632 0.3615 0.72327 0.0
C2485 C 0.23312 0.34496 0.72026 0.0
C2486 C 0.29758 0.33356 0.72594 0.0
C2487 C 0.23761 0.38271 0.72432 0.0
C2488 C 0.29877 0.39895 0.7517 0.0
C2489 C 0.30799 0.40882 0.73518 0.0
C2490 C 0.28582 0.3822 0.74867 0.0
C2491 C 0.28167 0.37544 0.72859 0.0
C2492 C 0.29087 0.38545 0.71185 0.0
C2493 C 0.30409 0.40189 0.71536 0.0
C2494 C 0.27662 0.37171 0.76694 0.0
C2495 C 0.28653 0.37896 0.6902 0.0
H2496 H 0.26741 0.30633 0.71917 0.0
H2497 H 0.2169 0.34758 0.71882 0.0
H2498 H 0.30626 0.34175 0.714 0.0
H2499 H 0.30309 0.33919 0.7409 0.0
H2500 H 0.30102 0.31706 0.72479 0.0
H2501 H 0.22085 0.38287 0.72214 0.0
H2502 H 0.24121 0.38966 0.73929 0.0
H2503 H 0.24467 0.39244 0.71244 0.0
H2504 H 0.30193 0.40418 0.76705 0.0
H2505 H 0.31108 0.40964 0.70257 0.0
H2506 H 0.28064 0.35533 0.76682 0.0
H2507 H 0.25979 0.37272 0.76625 0.0
H2508 H 0.28187 0.37845 0.78155 0.0
H2509 H 0.291 0.36285 0.68803 0.0
H2510 H 0.29476 0.38845 0.67887 0.0
H2511 H 0.26997 0.38 0.68707 0.0
C2512 C 0.23645 0.6609 0.77725 0.0
C2513 C 0.24392 0.68005 0.78309 0.0
C2514 C 0.24964 0.64443 0.77405 0.0
C2515 C 0.27083 0.64709 0.77689 0.0
C2516 C 0.27851 0.66638 0.78266 0.0
C2517 C 0.26498 0.68263 0.78563 0.0
C2518 C 0.24085 0.62412 0.76786 0.0
C2519 C 0.301 0.66981 0.78585 0.0
C2520 C 0.30242 0.59992 0.78799 0.0
C2521 C 0.31112 0.59584 0.76891 0.0
C2522 C 0.28946 0.61663 0.79083 0.0
C2523 C 0.28492 0.62956 0.77416 0.0
C2524 C 0.29364 0.62558 0.75487 0.0
C2525 C 0.30667 0.60882 0.75249 0.0
C2526 C 0.28049 0.62037 0.81165 0.0
C2527 C 0.28914 0.63898 0.73672 0.0
H2528 H 0.2202 0.65867 0.77554 0.0
H2529 H 0.27093 0.69742 0.78985 0.0
H2530 H 0.24791 0.61892 0.75344 0.0
H2531 H 0.24437 0.61254 0.77967 0.0
H2532 H 0.22409 0.62471 0.76571 0.0
H2533 H 0.30455 0.68577 0.79016 0.0
H2534 H 0.30671 0.65957 0.79803 0.0
H2535 H 0.30944 0.66604 0.77174 0.0
H2536 H 0.30548 0.58983 0.8007 0.0
H2537 H 0.31352 0.606 0.73777 0.0
H2538 H 0.26365 0.61954 0.81083 0.0
H2539 H 0.28453 0.63588 0.81696 0.0
H2540 H 0.2859 0.60918 0.82314 0.0
H2541 H 0.27254 0.6391 0.73361 0.0
H2542 H 0.29716 0.63385 0.72276 0.0
H2543 H 0.29375 0.65488 0.74003 0.0
C2544 C 0.91564 0.51197 0.45792 0.0
C2545 C 0.93118 0.51328 0.47249 0.0
C2546 C 0.89882 0.49912 0.46095 0.0
C2547 C 0.89784 0.48691 0.47873 0.0
C2548 C 0.91371 0.488 0.49335 0.0
C2549 C 0.93007 0.5014 0.49018 0.0
C2550 C 0.88199 0.49881 0.44526 0.0
C2551 C 0.91349 0.47487 0.51224 0.0
C2552 C 0.84659 0.46668 0.49644 0.0
C2553 C 0.84629 0.447 0.48807 0.0
C2554 C 0.86312 0.47988 0.49331 0.0
C2555 C 0.88015 0.4731 0.48208 0.0
C2556 C 0.88022 0.45317 0.47394 0.0
C2557 C 0.86321 0.44051 0.47676 0.0
C2558 C 0.86228 0.50116 0.50192 0.0
C2559 C 0.89827 0.44522 0.46222 0.0
H2560 H 0.9165 0.5213 0.44431 0.0
H2561 H 0.9422 0.50237 0.50136 0.0
H2562 H 0.88029 0.48329 0.43889 0.0
H2563 H 0.86732 0.50283 0.45254 0.0
H2564 H 0.88485 0.50958 0.43252 0.0
H2565 H 0.9273 0.47708 0.52179 0.0
H2566 H 0.89991 0.4784 0.52157 0.0
H2567 H 0.91246 0.45859 0.50789 0.0
H2568 H 0.83394 0.47184 0.50561 0.0
H2569 H 0.86316 0.42557 0.46983 0.0
H2570 H 0.86442 0.51246 0.48953 0.0
H2571 H 0.87481 0.50342 0.51302 0.0
H2572 H 0.84761 0.50435 0.50965 0.0
H2573 H 0.90053 0.45439 0.44821 0.0
H2574 H 0.89639 0.42902 0.45779 0.0
H2575 H 0.9123 0.4467 0.47154 0.0
C2576 C 0.75447 0.82756 0.76803 0.0
C2577 C 0.76406 0.8245 0.78688 0.0
C2578 C 0.74137 0.84414 0.76491 0.0
C2579 C 0.73813 0.85822 0.7809 0.0
C2580 C 0.74797 0.85529 0.7999 0.0
C2581 C 0.76066 0.83834 0.80273 0.0
C2582 C 0.73086 0.84649 0.74456 0.0
C2583 C 0.74524 0.87016 0.8172 0.0
C2584 C 0.71904 0.91094 0.7665 0.0
C2585 C 0.69833 0.90974 0.77163 0.0
C2586 C 0.73219 0.8944 0.76964 0.0
C2587 C 0.72443 0.876 0.77775 0.0
C2588 C 0.70356 0.87458 0.78282 0.0
C2589 C 0.69084 0.89149 0.77991 0.0
C2590 C 0.7544 0.8966 0.76427 0.0
C2591 C 0.69464 0.85516 0.79128 0.0
H2592 H 0.75699 0.81676 0.75582 0.0
H2593 H 0.76823 0.83606 0.81725 0.0
H2594 H 0.71413 0.8467 0.74673 0.0
H2595 H 0.73518 0.8612 0.73749 0.0
H2596 H 0.73473 0.83403 0.73384 0.0
H2597 H 0.75425 0.86589 0.83089 0.0
H2598 H 0.74992 0.88561 0.81225 0.0
H2599 H 0.72896 0.87099 0.82151 0.0
H2600 H 0.725 0.92476 0.75976 0.0
H2601 H 0.67501 0.89042 0.78432 0.0
H2602 H 0.7585 0.8855 0.75225 0.0
H2603 H 0.76398 0.89318 0.77779 0.0
H2604 H 0.75819 0.91213 0.75875 0.0
H2605 H 0.69748 0.8424 0.78061 0.0
H2606 H 0.678 0.85633 0.79392 0.0
H2607 H 0.70216 0.85124 0.80592 0.0
C2608 C 0.58032 0.4953 0.99059 0.0
C2609 C 0.57568 0.48855 0.97083 0.0
C2610 C 0.59668 0.50859 0.99421 0.0
C2611 C 0.60866 0.51545 0.97767 0.0
C2612 C 0.60401 0.50882 0.95767 0.0
C2613 C 0.58764 0.49542 0.9545 0.0
C2614 C 0.60116 0.51529 0.01576 0.0
C2615 C 0.61639 0.51581 0.93962 0.0
C2616 C 0.63971 0.56387 0.98455 0.0
C2617 C 0.65925 0.55613 0.98833 0.0
C2618 C 0.62314 0.55082 0.98099 0.0
C2619 C 0.62613 0.52949 0.98129 0.0
C2620 C 0.6458 0.52158 0.98511 0.0
C2621 C 0.66211 0.53499 0.98853 0.0
C2622 C 0.60243 0.55986 0.97683 0.0
C2623 C 0.64959 0.49894 0.98568 0.0
H2624 H 0.571 0.49033 0.00326 0.0
H2625 H 0.58439 0.49007 0.93922 0.0
H2626 H 0.61692 0.51098 0.02003 0.0
H2627 H 0.60012 0.53209 0.01687 0.0
H2628 H 0.59051 0.50844 0.02697 0.0
H2629 H 0.61057 0.50956 0.925 0.0
H2630 H 0.61627 0.53266 0.93868 0.0
H2631 H 0.63247 0.51104 0.94154 0.0
H2632 H 0.63742 0.58019 0.98409 0.0
H2633 H 0.67711 0.52889 0.99169 0.0
H2634 H 0.59138 0.55441 0.98837 0.0
H2635 H 0.59682 0.55478 0.96172 0.0
H2636 H 0.60265 0.57675 0.97709 0.0
H2637 H 0.64008 0.4918 0.99767 0.0
H2638 H 0.66579 0.49524 0.98877 0.0
H2639 H 0.64514 0.49199 0.97094 0.0
C2640 C 0.27005 0.65995 0.22781 0.0
C2641 C 0.26286 0.67912 0.22173 0.0
C2642 C 0.25665 0.64361 0.23102 0.0
C2643 C 0.23551 0.64642 0.22795 0.0
C2644 C 0.22811 0.66573 0.22193 0.0
C2645 C 0.24185 0.68185 0.21896 0.0
C2646 C 0.26514 0.62326 0.2375 0.0
C2647 C 0.20569 0.66933 0.21846 0.0
C2648 C 0.20342 0.59949 0.21702 0.0
C2649 C 0.19445 0.59569 0.23604 0.0
C2650 C 0.21665 0.61603 0.21414 0.0
C2651 C 0.22119 0.62904 0.23072 0.0
C2652 C 0.21221 0.62533 0.24995 0.0
C2653 C 0.19891 0.60876 0.25236 0.0
C2654 C 0.22589 0.6195 0.19338 0.0
C2655 C 0.21671 0.63883 0.26801 0.0
H2656 H 0.28626 0.65758 0.2297 0.0
H2657 H 0.2361 0.69667 0.21456 0.0
H2658 H 0.25787 0.61824 0.2519 0.0
H2659 H 0.26161 0.61163 0.22578 0.0
H2660 H 0.28188 0.62374 0.23982 0.0
H2661 H 0.20237 0.68527 0.21392 0.0
H2662 H 0.19998 0.65902 0.20635 0.0
H2663 H 0.19707 0.66578 0.23253 0.0
H2664 H 0.20035 0.58933 0.20439 0.0
H2665 H 0.19184 0.60615 0.26704 0.0
H2666 H 0.24271 0.61852 0.1944 0.0
H2667 H 0.2221 0.63499 0.18785 0.0
H2668 H 0.22047 0.60825 0.18196 0.0
H2669 H 0.23328 0.63883 0.27126 0.0
H2670 H 0.20851 0.63387 0.28195 0.0
H2671 H 0.21231 0.65474 0.2645 0.0
C2672 C 0.90962 0.48268 0.02709 0.0
C2673 C 0.92829 0.48989 0.03464 0.0
C2674 C 0.8932 0.49591 0.02368 0.0
C2675 C 0.89536 0.51686 0.02816 0.0
C2676 C 0.91411 0.52427 0.03582 0.0
C2677 C 0.93037 0.51073 0.03884 0.0
C2678 C 0.87349 0.48744 0.01538 0.0
C2679 C 0.91697 0.54648 0.04091 0.0
C2680 C 0.85873 0.55435 0.00346 0.0
C2681 C 0.84442 0.55726 0.01899 0.0
C2682 C 0.87538 0.54124 0.00622 0.0
C2683 C 0.8779 0.53098 0.02505 0.0
C2684 C 0.86362 0.53405 0.04086 0.0
C2685 C 0.847 0.54706 0.0376 0.0
C2686 C 0.89014 0.53817 0.98891 0.0
C2687 C 0.8659 0.52361 0.06124 0.0
H2688 H 0.9077 0.46658 0.02411 0.0
H2689 H 0.94479 0.51654 0.04437 0.0
H2690 H 0.86108 0.48991 0.02651 0.0
H2691 H 0.86921 0.49555 1.00117 0.0
H2692 H 0.87449 0.4709 0.01205 0.0
H2693 H 0.93244 0.54978 0.04692 0.0
H2694 H 0.91438 0.55592 0.02713 0.0
H2695 H 0.90562 0.55121 0.05244 0.0
H2696 H 0.85668 0.56203 0.98898 0.0
H2697 H 0.8361 0.54946 0.04974 0.0
H2698 H 0.89048 0.52188 0.98453 0.0
H2699 H 0.90574 0.54239 0.99383 0.0
H2700 H 0.88608 0.54734 0.97526 0.0
H2701 H 0.8656 0.50686 0.05919 0.0
H2702 H 0.85369 0.5279 0.07207 0.0
H2703 H 0.88083 0.52755 0.06813 0.0
C2704 C 0.08156 0.00699 0.01551 0.0
C2705 C 0.07687 0.01433 0.03501 0.0
C2706 C 0.098 0.99373 0.01245 0.0
C2707 C 0.11008 0.98765 0.02928 0.0
C2708 C 0.10541 0.99497 0.049 0.0
C2709 C 0.08888 0.00821 0.05163 0.0
C2710 C 0.10244 0.9862 0.99119 0.0
C2711 C 0.11796 0.9889 0.06732 0.0
C2712 C 0.14155 0.93937 0.02464 0.0
C2713 C 0.16094 0.94717 0.02027 0.0
C2714 C 0.12488 0.95236 0.02762 0.0
C2715 C 0.12764 0.97368 0.02623 0.0
C2716 C 0.14718 0.98166 0.02191 0.0
C2717 C 0.16358 0.96832 0.01897 0.0
C2718 C 0.10427 0.94325 0.03213 0.0
C2719 C 0.15076 0.0043 0.0204 0.0
H2720 H 0.07219 0.01144 0.00265 0.0
H2721 H 0.08551 0.01402 0.06669 0.0
H2722 H 0.11809 0.99064 0.9867 0.0
H2723 H 0.10169 0.96935 0.99081 0.0
H2724 H 0.09159 0.99235 0.97974 0.0
H2725 H 0.11225 0.99581 0.08164 0.0
H2726 H 0.11786 0.97211 0.06906 0.0
H2727 H 0.13401 0.99362 0.06511 0.0
H2728 H 0.13934 0.92305 0.02541 0.0
H2729 H 0.17856 0.97448 0.01589 0.0
H2730 H 0.0932 0.9479 0.02022 0.0
H2731 H 0.09854 0.94908 0.0469 0.0
H2732 H 0.10469 0.92637 0.03282 0.0
H2733 H 0.14097 0.01088 0.00829 0.0
H2734 H 0.16687 0.00807 0.01694 0.0
H2735 H 0.14652 0.01176 0.03493 0.0
loop_
_geom_bond_atom_site_label_1
_geom_bond_atom_site_label_2
_geom_bond_distance
_geom_bond_site_symmetry_2
_ccdc_geom_bond_type
H0 C3 0.931 . S
H1 C6 0.928 . S
H2 C8 0.930 . S
C3 H0 0.931 . S
C3 C4 1.413 . S
C3 C5 1.360 . S
C4 C3 1.413 . S
C4 C8 1.429 . S
C5 C3 1.360 . S
C5 C6 1.372 . S
C6 H1 0.928 . S
C6 C5 1.372 . S
C6 C7 1.404 . S
C7 C6 1.404 . S
C7 C8 1.391 . S
C8 H2 0.930 . S
C8 C4 1.429 . S
C8 C7 1.391 . S
H9 C12 0.931 . S
H10 C15 0.928 . S
H11 C17 0.930 . S
C12 H9 0.931 . S
C12 C13 1.413 . S
C12 C14 1.360 . S
C13 C12 1.413 . S
C13 C17 1.429 . S
C14 C12 1.360 . S
C14 C15 1.372 . S
C15 H10 0.928 . S
C15 C14 1.372 . S
C15 C16 1.404 . S
C16 C15 1.404 . S
C16 C17 1.391 . S
C17 H11 0.930 . S
C17 C13 1.429 . S
C17 C16 1.391 . S
H18 C21 0.931 . S
H19 C24 0.928 . S
H20 C26 0.930 . S
C21 H18 0.931 . S
C21 C22 1.413 . S
C21 C23 1.360 . S
C22 C21 1.413 . S
C22 C26 1.429 . S
C23 C21 1.360 . S
C23 C24 1.372 . S
C24 H19 0.928 . S
C24 C23 1.372 . S
C24 C25 1.404 . S
C25 C24 1.404 . S
C25 C26 1.391 . S
C26 H20 0.930 . S
C26 C22 1.429 . S
C26 C25 1.391 . S
H27 C30 0.931 . S
H28 C33 0.928 . S
H29 C35 0.930 . S
C30 H27 0.931 . S
C30 C31 1.413 . S
C30 C32 1.360 . S
C31 C30 1.413 . S
C31 C35 1.429 . S
C32 C30 1.360 . S
C32 C33 1.372 . S
C33 H28 0.928 . S
C33 C32 1.372 . S
C33 C34 1.404 . S
C34 C33 1.404 . S
C34 C35 1.391 . S
C35 H29 0.930 . S
C35 C31 1.429 . S
C35 C34 1.391 . S
H36 C39 0.931 . S
H37 C42 0.928 . S
H38 C44 0.930 . S
C39 H36 0.931 . S
C39 C40 1.413 . S
C39 C41 1.360 . S
C40 C39 1.413 . S
C40 C44 1.429 . S
C41 C39 1.360 . S
C41 C42 1.372 . S
C42 H37 0.928 . S
C42 C41 1.372 . S
C42 C43 1.404 . S
C43 C42 1.404 . S
C43 C44 1.391 . S
C44 H38 0.930 . S
C44 C40 1.429 . S
C44 C43 1.391 . S
H45 C48 0.931 . S
H46 C51 0.928 . S
H47 C53 0.930 . S
C48 H45 0.931 . S
C48 C49 1.413 . S
C48 C50 1.360 . S
C49 C48 1.413 . S
C49 C53 1.429 . S
C50 C48 1.360 . S
C50 C51 1.372 . S
C51 H46 0.928 . S
C51 C50 1.372 . S
C51 C52 1.404 . S
C52 C51 1.404 . S
C52 C53 1.391 . S
C53 H47 0.930 . S
C53 C49 1.429 . S
C53 C52 1.391 . S
H54 C57 0.931 . S
H55 C60 0.928 . S
H56 C62 0.930 . S
C57 H54 0.931 . S
C57 C58 1.413 . S
C57 C59 1.360 . S
C58 C57 1.413 . S
C58 C62 1.429 . S
C59 C57 1.360 . S
C59 C60 1.372 . S
C60 H55 0.928 . S
C60 C59 1.372 . S
C60 C61 1.404 . S
C61 C60 1.404 . S
C61 C62 1.391 . S
C62 H56 0.930 . S
C62 C58 1.429 . S
C62 C61 1.391 . S
H63 C66 0.931 . S
H64 C69 0.928 . S
H65 C71 0.930 . S
C66 H63 0.931 . S
C66 C67 1.413 . S
C66 C68 1.360 . S
C67 C66 1.413 . S
C67 C71 1.429 . S
C68 C66 1.360 . S
C68 C69 1.372 . S
C69 H64 0.928 . S
C69 C68 1.372 . S
C69 C70 1.404 . S
C70 C69 1.404 . S
C70 C71 1.391 . S
C71 H65 0.930 . S
C71 C67 1.429 . S
C71 C70 1.391 . S
H72 C75 0.931 . S
H73 C78 0.928 . S
H74 C80 0.930 . S
C75 H72 0.931 . S
C75 C76 1.413 . S
C75 C77 1.360 . S
C76 C75 1.413 . S
C76 C80 1.429 . S
C77 C75 1.360 . S
C77 C78 1.372 . S
C78 H73 0.928 . S
C78 C77 1.372 . S
C78 C79 1.404 . S
C79 C78 1.404 . S
C79 C80 1.391 . S
C80 H74 0.930 . S
C80 C76 1.429 . S
C80 C79 1.391 . S
H81 C84 0.931 . S
H82 C87 0.928 . S
H83 C89 0.930 . S
C84 H81 0.931 . S
C84 C85 1.413 . S
C84 C86 1.360 . S
C85 C84 1.413 . S
C85 C89 1.429 . S
C86 C84 1.360 . S
C86 C87 1.372 . S
C87 H82 0.928 . S
C87 C86 1.372 . S
C87 C88 1.404 . S
C88 C87 1.404 . S
C88 C89 1.391 . S
C89 H83 0.930 . S
C89 C85 1.429 . S
C89 C88 1.391 . S
H90 C93 0.931 . S
H91 C96 0.928 . S
H92 C98 0.930 . S
C93 H90 0.931 . S
C93 C94 1.413 . S
C93 C95 1.360 . S
C94 C93 1.413 . S
C94 C98 1.429 . S
C95 C93 1.360 . S
C95 C96 1.372 . S
C96 H91 0.928 . S
C96 C95 1.372 . S
C96 C97 1.404 . S
C97 C96 1.404 . S
C97 C98 1.391 . S
C98 H92 0.930 . S
C98 C94 1.429 . S
C98 C97 1.391 . S
H99 C102 0.931 . S
H100 C105 0.928 . S
H101 C107 0.930 . S
C102 H99 0.931 . S
C102 C103 1.413 . S
C102 C104 1.360 . S
C103 C102 1.413 . S
C103 C107 1.429 . S
C104 C102 1.360 . S
C104 C105 1.372 . S
C105 H100 0.928 . S
C105 C104 1.372 . S
C105 C106 1.404 . S
C106 C105 1.404 . S
C106 C107 1.391 . S
C107 H101 0.930 . S
C107 C103 1.429 . S
C107 C106 1.391 . S
H108 C111 0.931 . S
H109 C114 0.928 . S
H110 C116 0.930 . S
C111 H108 0.931 . S
C111 C112 1.413 . S
C111 C113 1.360 . S
C112 C111 1.413 . S
C112 C116 1.429 . S
C113 C111 1.360 . S
C113 C114 1.372 . S
C114 H109 0.928 . S
C114 C113 1.372 . S
C114 C115 1.404 . S
C115 C114 1.404 . S
C115 C116 1.391 . S
C116 H110 0.930 . S
C116 C112 1.429 . S
C116 C115 1.391 . S
H117 C120 0.931 . S
H118 C123 0.928 . S
H119 C125 0.930 . S
C120 H117 0.931 . S
C120 C121 1.413 . S
C120 C122 1.360 . S
C121 C120 1.413 . S
C121 C125 1.429 . S
C122 C120 1.360 . S
C122 C123 1.372 . S
C123 H118 0.928 . S
C123 C122 1.372 . S
C123 C124 1.404 . S
C124 C123 1.404 . S
C124 C125 1.391 . S
C125 H119 0.930 . S
C125 C121 1.429 . S
C125 C124 1.391 . S
H126 C129 0.931 . S
H127 C132 0.928 . S
H128 C134 0.930 . S
C129 H126 0.931 . S
C129 C130 1.413 . S
C129 C131 1.360 . S
C130 C129 1.413 . S
C130 C134 1.429 . S
C131 C129 1.360 . S
C131 C132 1.372 . S
C132 H127 0.928 . S
C132 C131 1.372 . S
C132 C133 1.404 . S
C133 C132 1.404 . S
C133 C134 1.391 . S
C134 H128 0.930 . S
C134 C130 1.429 . S
C134 C133 1.391 . S
H135 C138 0.931 . S
H136 C141 0.928 . S
H137 C143 0.930 . S
C138 H135 0.931 . S
C138 C139 1.413 . S
C138 C140 1.360 . S
C139 C138 1.413 . S
C139 C143 1.429 . S
C140 C138 1.360 . S
C140 C141 1.372 . S
C141 H136 0.928 . S
C141 C140 1.372 . S
C141 C142 1.404 . S
C142 C141 1.404 . S
C142 C143 1.391 . S
C143 H137 0.930 . S
C143 C139 1.429 . S
C143 C142 1.391 . S
Li144 N161 1.990 . S
Li144 O204 1.956 . S
Li144 O205 1.970 1_556 S
Li144 O206 1.961 . S
Li145 N169 1.990 . S
Li145 O204 1.970 1_554 S
Li145 O205 1.956 . S
Li145 O207 1.961 . S
Li146 N191 1.990 . S
Li146 O204 1.961 . S
Li146 O206 1.956 . S
Li146 O207 1.970 1_556 S
Li147 N197 1.990 . S
Li147 O205 1.961 . S
Li147 O206 1.970 1_554 S
Li147 O207 1.956 . S
C148 C150 1.348 1_556 S
C148 C151 1.356 . S
C148 O204 1.325 . S
N149 C152 1.314 1_556 S
N149 C153 1.279 . S
C150 C148 1.348 1_554 S
C150 C152 1.353 . S
C150 H208 0.929 . S
C151 C148 1.356 . S
C151 C153 1.358 . S
C151 H209 0.930 . S
C152 N149 1.314 1_554 S
C152 C150 1.353 . S
C152 H210 0.930 . S
C153 N149 1.279 . S
C153 C151 1.358 . S
C153 H211 0.930 . S
C154 C157 1.348 . S
C154 C158 1.356 . S
C154 O205 1.325 . S
C155 N156 1.279 . S
C155 C158 1.358 . S
C155 H212 0.930 . S
N156 C155 1.279 . S
N156 C159 1.314 . S
C157 C154 1.348 . S
C157 C159 1.353 . S
C157 H213 0.929 . S
C158 C154 1.356 . S
C158 C155 1.358 . S
C158 H214 0.930 . S
C159 N156 1.314 . S
C159 C157 1.353 . S
C159 H215 0.930 . S
C160 N161 1.314 . S
C160 C165 1.353 . S
C160 H166 0.930 . S
N161 Li144 1.990 . S
N161 C160 1.314 . S
N161 C163 1.279 . S
C162 C163 1.358 . S
C162 C164 1.356 . S
C162 H216 0.930 . S
C163 N161 1.279 . S
C163 C162 1.358 . S
C163 H167 0.930 . S
C164 C162 1.356 . S
C164 C165 1.348 . S
C165 C160 1.353 . S
C165 C164 1.348 . S
C165 H217 0.929 . S
H166 C160 0.930 . S
H167 C163 0.930 . S
C168 N169 1.314 . S
C168 C170 1.353 . S
C168 H174 0.930 . S
N169 Li145 1.990 . S
N169 C168 1.314 . S
N169 C172 1.279 . S
C170 C168 1.353 . S
C170 C173 1.348 . S
C170 H218 0.929 . S
C171 C172 1.358 . S
C171 C173 1.356 . S
C171 H219 0.930 . S
C172 N169 1.279 . S
C172 C171 1.358 . S
C172 H175 0.930 . S
C173 C170 1.348 . S
C173 C171 1.356 . S
H174 C168 0.930 . S
H175 C172 0.930 . S
C176 C178 1.348 . S
C176 C179 1.356 . S
C176 O206 1.325 . S
N177 C180 1.314 . S
N177 C181 1.279 . S
C178 C176 1.348 . S
C178 C180 1.353 . S
C178 H220 0.929 . S
C179 C176 1.356 . S
C179 C181 1.358 . S
C179 H221 0.930 . S
C180 N177 1.314 . S
C180 C178 1.353 . S
C180 H222 0.930 . S
C181 N177 1.279 . S
C181 C179 1.358 . S
C181 H223 0.930 . S
C182 C183 1.348 1_554 S
C182 C184 1.356 . S
C182 O207 1.325 . S
C183 C182 1.348 1_556 S
C183 C185 1.353 . S
C183 H224 0.929 . S
C184 C182 1.356 . S
C184 C186 1.358 . S
C184 H225 0.930 . S
C185 C183 1.353 . S
C185 N187 1.314 1_556 S
C185 H226 0.930 . S
C186 C184 1.358 . S
C186 N187 1.279 . S
C186 H227 0.930 . S
N187 C185 1.314 1_554 S
N187 C186 1.279 . S
C188 C190 1.353 . S
C188 N191 1.314 . S
C188 H194 0.930 . S
C189 N191 1.279 . S
C189 C192 1.358 . S
C189 H195 0.930 . S
C190 C188 1.353 . S
C190 C193 1.348 . S
C190 H228 0.929 . S
N191 Li146 1.990 . S
N191 C188 1.314 . S
N191 C189 1.279 . S
C192 C189 1.358 . S
C192 C193 1.356 . S
C192 H229 0.930 . S
C193 C190 1.348 . S
C193 C192 1.356 . S
H194 C188 0.930 . S
H195 C189 0.930 . S
C196 N197 1.314 . S
C196 C198 1.353 . S
C196 H202 0.930 . S
N197 Li147 1.990 . S
N197 C196 1.314 . S
N197 C200 1.279 . S
C198 C196 1.353 . S
C198 C201 1.348 . S
C198 H230 0.929 . S
C199 C200 1.358 . S
C199 C201 1.356 . S
C199 H231 0.930 . S
C200 N197 1.279 . S
C200 C199 1.358 . S
C200 H203 0.930 . S
C201 C198 1.348 . S
C201 C199 1.356 . S
H202 C196 0.930 . S
H203 C200 0.930 . S
O204 Li144 1.956 . S
O204 Li145 1.970 1_556 S
O204 Li146 1.961 . S
O204 C148 1.325 . S
O205 Li144 1.970 1_554 S
O205 Li145 1.956 . S
O205 Li147 1.961 . S
O205 C154 1.325 . S
O206 Li144 1.961 . S
O206 Li146 1.956 . S
O206 Li147 1.970 1_556 S
O206 C176 1.325 . S
O207 Li145 1.961 . S
O207 Li146 1.970 1_554 S
O207 Li147 1.956 . S
O207 C182 1.325 . S
H208 C150 0.929 . S
H209 C151 0.930 . S
H210 C152 0.930 . S
H211 C153 0.930 . S
H212 C155 0.930 . S
H213 C157 0.929 . S
H214 C158 0.930 . S
H215 C159 0.930 . S
H216 C162 0.930 . S
H217 C165 0.929 . S
H218 C170 0.929 . S
H219 C171 0.930 . S
H220 C178 0.929 . S
H221 C179 0.930 . S
H222 C180 0.930 . S
H223 C181 0.930 . S
H224 C183 0.929 . S
H225 C184 0.930 . S
H226 C185 0.930 . S
H227 C186 0.930 . S
H228 C190 0.929 . S
H229 C192 0.930 . S
H230 C198 0.929 . S
H231 C199 0.930 . S
Li232 N249 1.990 . S
Li232 O292 1.956 . S
Li232 O293 1.970 . S
Li232 O294 1.961 . S
Li233 N257 1.990 . S
Li233 O292 1.970 . S
Li233 O293 1.956 . S
Li233 O295 1.961 . S
Li234 N279 1.990 . S
Li234 O292 1.961 . S
Li234 O294 1.956 . S
Li234 O295 1.970 . S
Li235 N285 1.990 . S
Li235 O293 1.961 . S
Li235 O294 1.970 . S
Li235 O295 1.956 . S
C236 C238 1.348 . S
C236 C239 1.356 . S
C236 O292 1.325 . S
N237 C240 1.314 . S
N237 C241 1.279 . S
C238 C236 1.348 . S
C238 C240 1.353 . S
C238 H296 0.929 . S
C239 C236 1.356 . S
C239 C241 1.358 . S
C239 H297 0.930 . S
C240 N237 1.314 . S
C240 C238 1.353 . S
C240 H298 0.930 . S
C241 N237 1.279 . S
C241 C239 1.358 . S
C241 H299 0.930 . S
C242 C245 1.348 . S
C242 C246 1.356 . S
C242 O293 1.325 . S
C243 N244 1.279 . S
C243 C246 1.358 . S
C243 H300 0.930 . S
N244 C243 1.279 . S
N244 C247 1.314 . S
C245 C242 1.348 . S
C245 C247 1.353 . S
C245 H301 0.929 . S
C246 C242 1.356 . S
C246 C243 1.358 . S
C246 H302 0.930 . S
C247 N244 1.314 . S
C247 C245 1.353 . S
C247 H303 0.930 . S
C248 N249 1.314 . S
C248 C253 1.353 . S
C248 H254 0.930 . S
N249 Li232 1.990 . S
N249 C248 1.314 . S
N249 C251 1.279 . S
C250 C251 1.358 . S
C250 C252 1.356 . S
C250 H304 0.930 . S
C251 N249 1.279 . S
C251 C250 1.358 . S
C251 H255 0.930 . S
C252 C250 1.356 . S
C252 C253 1.348 . S
C253 C248 1.353 . S
C253 C252 1.348 . S
C253 H305 0.929 . S
H254 C248 0.930 . S
H255 C251 0.930 . S
C256 N257 1.314 . S
C256 C258 1.353 . S
C256 H262 0.930 . S
N257 Li233 1.990 . S
N257 C256 1.314 . S
N257 C260 1.279 . S
C258 C256 1.353 . S
C258 C261 1.348 . S
C258 H306 0.929 . S
C259 C260 1.358 . S
C259 C261 1.356 . S
C259 H307 0.930 . S
C260 N257 1.279 . S
C260 C259 1.358 . S
C260 H263 0.930 . S
C261 C258 1.348 . S
C261 C259 1.356 . S
H262 C256 0.930 . S
H263 C260 0.930 . S
C264 C266 1.348 . S
C264 C267 1.356 . S
C264 O294 1.325 . S
N265 C268 1.314 . S
N265 C269 1.279 . S
C266 C264 1.348 . S
C266 C268 1.353 . S
C266 H308 0.929 . S
C267 C264 1.356 . S
C267 C269 1.358 . S
C267 H309 0.930 . S
C268 N265 1.314 . S
C268 C266 1.353 . S
C268 H310 0.930 . S
C269 N265 1.279 . S
C269 C267 1.358 . S
C269 H311 0.930 . S
C270 C271 1.348 . S
C270 C272 1.356 . S
C270 O295 1.325 . S
C271 C270 1.348 . S
C271 C273 1.353 . S
C271 H312 0.929 . S
C272 C270 1.356 . S
C272 C274 1.358 . S
C272 H313 0.930 . S
C273 C271 1.353 . S
C273 N275 1.314 . S
C273 H314 0.930 . S
C274 C272 1.358 . S
C274 N275 1.279 . S
C274 H315 0.930 . S
N275 C273 1.314 . S
N275 C274 1.279 . S
C276 C278 1.353 . S
C276 N279 1.314 . S
C276 H282 0.930 . S
C277 N279 1.279 . S
C277 C280 1.358 . S
C277 H283 0.930 . S
C278 C276 1.353 . S
C278 C281 1.348 . S
C278 H316 0.929 . S
N279 Li234 1.990 . S
N279 C276 1.314 . S
N279 C277 1.279 . S
C280 C277 1.358 . S
C280 C281 1.356 . S
C280 H317 0.930 . S
C281 C278 1.348 . S
C281 C280 1.356 . S
H282 C276 0.930 . S
H283 C277 0.930 . S
C284 N285 1.314 . S
C284 C286 1.353 . S
C284 H290 0.930 . S
N285 Li235 1.990 . S
N285 C284 1.314 . S
N285 C288 1.279 . S
C286 C284 1.353 . S
C286 C289 1.348 . S
C286 H318 0.929 . S
C287 C288 1.358 . S
C287 C289 1.356 . S
C287 H319 0.930 . S
C288 N285 1.279 . S
C288 C287 1.358 . S
C288 H291 0.930 . S
C289 C286 1.348 . S
C289 C287 1.356 . S
H290 C284 0.930 . S
H291 C288 0.930 . S
O292 Li232 1.956 . S
O292 Li233 1.970 . S
O292 Li234 1.961 . S
O292 C236 1.325 . S
O293 Li232 1.970 . S
O293 Li233 1.956 . S
O293 Li235 1.961 . S
O293 C242 1.325 . S
O294 Li232 1.961 . S
O294 Li234 1.956 . S
O294 Li235 1.970 . S
O294 C264 1.325 . S
O295 Li233 1.961 . S
O295 Li234 1.970 . S
O295 Li235 1.956 . S
O295 C270 1.325 . S
H296 C238 0.929 . S
H297 C239 0.930 . S
H298 C240 0.930 . S
H299 C241 0.930 . S
H300 C243 0.930 . S
H301 C245 0.929 . S
H302 C246 0.930 . S
H303 C247 0.930 . S
H304 C250 0.930 . S
H305 C253 0.929 . S
H306 C258 0.929 . S
H307 C259 0.930 . S
H308 C266 0.929 . S
H309 C267 0.930 . S
H310 C268 0.930 . S
H311 C269 0.930 . S
H312 C271 0.929 . S
H313 C272 0.930 . S
H314 C273 0.930 . S
H315 C274 0.930 . S
H316 C278 0.929 . S
H317 C280 0.930 . S
H318 C286 0.929 . S
H319 C287 0.930 . S
Li320 N337 1.990 . S
Li320 O380 1.958 . S
Li320 O381 1.970 1_556 S
Li320 O382 1.961 . S
Li321 N345 1.990 . S
Li321 O380 1.928 1_554 S
Li321 O381 1.956 . S
Li321 O383 1.961 . S
Li322 N367 1.990 . S
Li322 O380 1.994 . S
Li322 O382 1.956 . S
Li322 O383 1.970 1_556 S
Li323 N373 1.990 . S
Li323 O381 1.961 . S
Li323 O382 1.970 1_554 S
Li323 O383 1.956 . S
C324 C326 1.348 1_556 S
C324 C327 1.356 . S
C324 O380 1.333 . S
N325 C328 1.314 1_556 S
N325 C329 1.279 . S
C326 C324 1.348 1_554 S
C326 C328 1.353 . S
C326 H384 0.929 . S
C327 C324 1.356 . S
C327 C329 1.358 . S
C327 H385 0.930 . S
C328 N325 1.314 1_554 S
C328 C326 1.353 . S
C328 H386 0.930 . S
C329 N325 1.279 . S
C329 C327 1.358 . S
C329 H387 0.930 . S
C330 C333 1.348 . S
C330 C334 1.356 . S
C330 O381 1.325 . S
C331 N332 1.279 . S
C331 C334 1.358 . S
C331 H388 0.930 . S
N332 C331 1.279 . S
N332 C335 1.314 . S
C333 C330 1.348 . S
C333 C335 1.353 . S
C333 H389 0.929 . S
C334 C330 1.356 . S
C334 C331 1.358 . S
C334 H390 0.930 . S
C335 N332 1.314 . S
C335 C333 1.353 . S
C335 H391 0.930 . S
C336 N337 1.314 . S
C336 C341 1.353 . S
C336 H342 0.930 . S
N337 Li320 1.990 . S
N337 C336 1.314 . S
N337 C339 1.279 . S
C338 C339 1.358 . S
C338 C340 1.356 . S
C338 H392 0.930 . S
C339 N337 1.279 . S
C339 C338 1.358 . S
C339 H343 0.930 . S
C340 C338 1.356 . S
C340 C341 1.348 . S
C341 C336 1.353 . S
C341 C340 1.348 . S
C341 H393 0.929 . S
H342 C336 0.930 . S
H343 C339 0.930 . S
C344 N345 1.314 . S
C344 C346 1.353 . S
C344 H350 0.930 . S
N345 Li321 1.990 . S
N345 C344 1.314 . S
N345 C348 1.279 . S
C346 C344 1.353 . S
C346 C349 1.348 . S
C346 H394 0.929 . S
C347 C348 1.358 . S
C347 C349 1.356 . S
C347 H395 0.930 . S
C348 N345 1.279 . S
C348 C347 1.358 . S
C348 H351 0.930 . S
C349 C346 1.348 . S
C349 C347 1.356 . S
H350 C344 0.930 . S
H351 C348 0.930 . S
C352 C354 1.348 . S
C352 C355 1.356 . S
C352 O382 1.325 . S
N353 C356 1.314 . S
N353 C357 1.279 . S
C354 C352 1.348 . S
C354 C356 1.353 . S
C354 H396 0.929 . S
C355 C352 1.356 . S
C355 C357 1.358 . S
C355 H397 0.930 . S
C356 N353 1.314 . S
C356 C354 1.353 . S
C356 H398 0.930 . S
C357 N353 1.279 . S
C357 C355 1.358 . S
C357 H399 0.930 . S
C358 C359 1.348 1_554 S
C358 C360 1.356 . S
C358 O383 1.325 . S
C359 C358 1.348 1_556 S
C359 C361 1.353 . S
C359 H400 0.929 . S
C360 C358 1.356 . S
C360 C362 1.358 . S
C360 H401 0.930 . S
C361 C359 1.353 . S
C361 N363 1.314 1_556 S
C361 H402 0.930 . S
C362 C360 1.358 . S
C362 N363 1.279 . S
C362 H403 0.930 . S
N363 C361 1.314 1_554 S
N363 C362 1.279 . S
C364 C366 1.353 . S
C364 N367 1.314 . S
C364 H370 0.930 . S
C365 N367 1.279 . S
C365 C368 1.358 . S
C365 H371 0.930 . S
C366 C364 1.353 . S
C366 C369 1.348 . S
C366 H404 0.929 . S
N367 Li322 1.990 . S
N367 C364 1.314 . S
N367 C365 1.279 . S
C368 C365 1.358 . S
C368 C369 1.356 . S
C368 H405 0.930 . S
C369 C366 1.348 . S
C369 C368 1.356 . S
H370 C364 0.930 . S
H371 C365 0.930 . S
C372 N373 1.314 . S
C372 C374 1.353 . S
C372 H378 0.930 . S
N373 Li323 1.990 . S
N373 C372 1.314 . S
N373 C376 1.279 . S
C374 C372 1.353 . S
C374 C377 1.348 . S
C374 H406 0.929 . S
C375 C376 1.358 . S
C375 C377 1.356 . S
C375 H407 0.930 . S
C376 N373 1.279 . S
C376 C375 1.358 . S
C376 H379 0.930 . S
C377 C374 1.348 . S
C377 C375 1.356 . S
H378 C372 0.930 . S
H379 C376 0.930 . S
O380 Li320 1.958 . S
O380 Li321 1.928 1_556 S
O380 Li322 1.994 . S
O380 C324 1.333 . S
O381 Li320 1.970 1_554 S
O381 Li321 1.956 . S
O381 Li323 1.961 . S
O381 C330 1.325 . S
O382 Li320 1.961 . S
O382 Li322 1.956 . S
O382 Li323 1.970 1_556 S
O382 C352 1.325 . S
O383 Li321 1.961 . S
O383 Li322 1.970 1_554 S
O383 Li323 1.956 . S
O383 C358 1.325 . S
H384 C326 0.929 . S
H385 C327 0.930 . S
H386 C328 0.930 . S
H387 C329 0.930 . S
H388 C331 0.930 . S
H389 C333 0.929 . S
H390 C334 0.930 . S
H391 C335 0.930 . S
H392 C338 0.930 . S
H393 C341 0.929 . S
H394 C346 0.929 . S
H395 C347 0.930 . S
H396 C354 0.929 . S
H397 C355 0.930 . S
H398 C356 0.930 . S
H399 C357 0.930 . S
H400 C359 0.929 . S
H401 C360 0.930 . S
H402 C361 0.930 . S
H403 C362 0.930 . S
H404 C366 0.929 . S
H405 C368 0.930 . S
H406 C374 0.929 . S
H407 C375 0.930 . S
Li408 N425 1.990 . S
Li408 O468 1.956 . S
Li408 O469 1.970 1_545 S
Li408 O470 1.961 . S
Li409 N433 1.990 . S
Li409 O468 1.970 1_565 S
Li409 O469 1.956 . S
Li409 O471 1.961 . S
Li410 N455 1.990 . S
Li410 O468 1.961 . S
Li410 O470 1.956 . S
Li410 O471 1.970 1_545 S
Li411 N461 1.990 . S
Li411 O469 1.961 . S
Li411 O470 1.970 1_565 S
Li411 O471 1.956 . S
C412 C414 1.348 . S
C412 C415 1.356 . S
C412 O468 1.325 . S
N413 C416 1.314 . S
N413 C417 1.279 . S
C414 C412 1.348 . S
C414 C416 1.353 . S
C414 H472 0.929 . S
C415 C412 1.356 . S
C415 C417 1.358 . S
C415 H473 0.930 . S
C416 N413 1.314 . S
C416 C414 1.353 . S
C416 H474 0.930 . S
C417 N413 1.279 . S
C417 C415 1.358 . S
C417 H475 0.930 . S
C418 C421 1.348 1_565 S
C418 C422 1.356 . S
C418 O469 1.325 . S
C419 N420 1.279 . S
C419 C422 1.358 . S
C419 H476 0.930 . S
N420 C419 1.279 . S
N420 C423 1.314 1_565 S
C421 C418 1.348 1_545 S
C421 C423 1.353 . S
C421 H477 0.929 . S
C422 C418 1.356 . S
C422 C419 1.358 . S
C422 H478 0.930 . S
C423 N420 1.314 1_545 S
C423 C421 1.353 . S
C423 H479 0.930 . S
C424 N425 1.314 . S
C424 C429 1.353 . S
C424 H430 0.930 . S
N425 Li408 1.990 . S
N425 C424 1.314 . S
N425 C427 1.279 . S
C426 C427 1.358 . S
C426 C428 1.356 . S
C426 H480 0.930 . S
C427 N425 1.279 . S
C427 C426 1.358 . S
C427 H431 0.930 . S
C428 C426 1.356 . S
C428 C429 1.348 . S
C429 C424 1.353 . S
C429 C428 1.348 . S
C429 H481 0.929 . S
H430 C424 0.930 . S
H431 C427 0.930 . S
C432 N433 1.314 . S
C432 C434 1.353 . S
C432 H438 0.930 . S
N433 Li409 1.990 . S
N433 C432 1.314 . S
N433 C436 1.279 . S
C434 C432 1.353 . S
C434 C437 1.348 . S
C434 H482 0.929 . S
C435 C436 1.358 . S
C435 C437 1.356 . S
C435 H483 0.930 . S
C436 N433 1.279 . S
C436 C435 1.358 . S
C436 H439 0.930 . S
C437 C434 1.348 . S
C437 C435 1.356 . S
H438 C432 0.930 . S
H439 C436 0.930 . S
C440 C442 1.348 1_545 S
C440 C443 1.356 . S
C440 O470 1.325 . S
N441 C444 1.314 1_545 S
N441 C445 1.279 . S
C442 C440 1.348 1_565 S
C442 C444 1.353 . S
C442 H484 0.929 . S
C443 C440 1.356 . S
C443 C445 1.358 . S
C443 H485 0.930 . S
C444 N441 1.314 1_565 S
C444 C442 1.353 . S
C444 H486 0.930 . S
C445 N441 1.279 . S
C445 C443 1.358 . S
C445 H487 0.930 . S
C446 C447 1.348 . S
C446 C448 1.356 . S
C446 O471 1.325 . S
C447 C446 1.348 . S
C447 C449 1.353 . S
C447 H488 0.929 . S
C448 C446 1.356 . S
C448 C450 1.358 . S
C448 H489 0.930 . S
C449 C447 1.353 . S
C449 N451 1.314 . S
C449 H490 0.930 . S
C450 C448 1.358 . S
C450 N451 1.279 . S
C450 H491 0.930 . S
N451 C449 1.314 . S
N451 C450 1.279 . S
C452 C454 1.353 . S
C452 N455 1.314 . S
C452 H458 0.930 . S
C453 N455 1.279 . S
C453 C456 1.358 . S
C453 H459 0.930 . S
C454 C452 1.353 . S
C454 C457 1.348 . S
C454 H492 0.929 . S
N455 Li410 1.990 . S
N455 C452 1.314 . S
N455 C453 1.279 . S
C456 C453 1.358 . S
C456 C457 1.356 . S
C456 H493 0.930 . S
C457 C454 1.348 . S
C457 C456 1.356 . S
H458 C452 0.930 . S
H459 C453 0.930 . S
C460 N461 1.314 . S
C460 C462 1.353 . S
C460 H466 0.930 . S
N461 Li411 1.990 . S
N461 C460 1.314 . S
N461 C464 1.279 . S
C462 C460 1.353 . S
C462 C465 1.348 . S
C462 H494 0.929 . S
C463 C464 1.358 . S
C463 C465 1.356 . S
C463 H495 0.930 . S
C464 N461 1.279 . S
C464 C463 1.358 . S
C464 H467 0.930 . S
C465 C462 1.348 . S
C465 C463 1.356 . S
H466 C460 0.930 . S
H467 C464 0.930 . S
O468 Li408 1.956 . S
O468 Li409 1.970 1_545 S
O468 Li410 1.961 . S
O468 C412 1.325 . S
O469 Li408 1.970 1_565 S
O469 Li409 1.956 . S
O469 Li411 1.961 . S
O469 C418 1.325 . S
O470 Li408 1.961 . S
O470 Li410 1.956 . S
O470 Li411 1.970 1_545 S
O470 C440 1.325 . S
O471 Li409 1.961 . S
O471 Li410 1.970 1_565 S
O471 Li411 1.956 . S
O471 C446 1.325 . S
H472 C414 0.929 . S
H473 C415 0.930 . S
H474 C416 0.930 . S
H475 C417 0.930 . S
H476 C419 0.930 . S
H477 C421 0.929 . S
H478 C422 0.930 . S
H479 C423 0.930 . S
H480 C426 0.930 . S
H481 C429 0.929 . S
H482 C434 0.929 . S
H483 C435 0.930 . S
H484 C442 0.929 . S
H485 C443 0.930 . S
H486 C444 0.930 . S
H487 C445 0.930 . S
H488 C447 0.929 . S
H489 C448 0.930 . S
H490 C449 0.930 . S
H491 C450 0.930 . S
H492 C454 0.929 . S
H493 C456 0.930 . S
H494 C462 0.929 . S
H495 C463 0.930 . S
Li496 N513 1.990 . S
Li496 O556 1.956 . S
Li496 O557 1.970 . S
Li496 O558 1.961 . S
Li497 N521 1.990 . S
Li497 O556 1.970 . S
Li497 O557 1.956 . S
Li497 O559 1.961 . S
Li498 N543 1.990 . S
Li498 O556 1.961 . S
Li498 O558 1.956 . S
Li498 O559 1.970 . S
Li499 N549 1.990 . S
Li499 O557 1.961 . S
Li499 O558 1.970 . S
Li499 O559 1.956 . S
C500 C502 1.348 . S
C500 C503 1.356 . S
C500 O556 1.325 . S
N501 C504 1.314 . S
N501 C505 1.279 . S
C502 C500 1.348 . S
C502 C504 1.353 . S
C502 H560 0.929 . S
C503 C500 1.356 . S
C503 C505 1.358 . S
C503 H561 0.930 . S
C504 N501 1.314 . S
C504 C502 1.353 . S
C504 H562 0.930 . S
C505 N501 1.279 . S
C505 C503 1.358 . S
C505 H563 0.930 . S
C506 C509 1.348 . S
C506 C510 1.356 . S
C506 O557 1.325 . S
C507 N508 1.279 . S
C507 C510 1.358 . S
C507 H564 0.930 . S
N508 C507 1.279 . S
N508 C511 1.314 . S
C509 C506 1.348 . S
C509 C511 1.353 . S
C509 H565 0.929 . S
C510 C506 1.356 . S
C510 C507 1.358 . S
C510 H566 0.930 . S
C511 N508 1.314 . S
C511 C509 1.353 . S
C511 H567 0.930 . S
C512 N513 1.314 . S
C512 C517 1.353 . S
C512 H518 0.930 . S
N513 Li496 1.990 . S
N513 C512 1.314 . S
N513 C515 1.279 . S
C514 C515 1.358 . S
C514 C516 1.356 . S
C514 H568 0.930 . S
C515 N513 1.279 . S
C515 C514 1.358 . S
C515 H519 0.930 . S
C516 C514 1.356 . S
C516 C517 1.348 . S
C517 C512 1.353 . S
C517 C516 1.348 . S
C517 H569 0.929 . S
H518 C512 0.930 . S
H519 C515 0.930 . S
C520 N521 1.314 . S
C520 C522 1.353 . S
C520 H526 0.930 . S
N521 Li497 1.990 . S
N521 C520 1.314 . S
N521 C524 1.279 . S
C522 C520 1.353 . S
C522 C525 1.348 . S
C522 H570 0.929 . S
C523 C524 1.358 . S
C523 C525 1.356 . S
C523 H571 0.930 . S
C524 N521 1.279 . S
C524 C523 1.358 . S
C524 H527 0.930 . S
C525 C522 1.348 . S
C525 C523 1.356 . S
H526 C520 0.930 . S
H527 C524 0.930 . S
C528 C530 1.348 . S
C528 C531 1.356 . S
C528 O558 1.325 . S
N529 C532 1.314 . S
N529 C533 1.279 . S
C530 C528 1.348 . S
C530 C532 1.353 . S
C530 H572 0.929 . S
C531 C528 1.356 . S
C531 C533 1.358 . S
C531 H573 0.930 . S
C532 N529 1.314 . S
C532 C530 1.353 . S
C532 H574 0.930 . S
C533 N529 1.279 . S
C533 C531 1.358 . S
C533 H575 0.930 . S
C534 C535 1.348 . S
C534 C536 1.356 . S
C534 O559 1.325 . S
C535 C534 1.348 . S
C535 C537 1.353 . S
C535 H576 0.929 . S
C536 C534 1.356 . S
C536 C538 1.358 . S
C536 H577 0.930 . S
C537 C535 1.353 . S
C537 N539 1.314 . S
C537 H578 0.930 . S
C538 C536 1.358 . S
C538 N539 1.279 . S
C538 H579 0.930 . S
N539 C537 1.314 . S
N539 C538 1.279 . S
C540 C542 1.353 . S
C540 N543 1.314 . S
C540 H546 0.930 . S
C541 N543 1.279 . S
C541 C544 1.358 . S
C541 H547 0.930 . S
C542 C540 1.353 . S
C542 C545 1.348 . S
C542 H580 0.929 . S
N543 Li498 1.990 . S
N543 C540 1.314 . S
N543 C541 1.279 . S
C544 C541 1.358 . S
C544 C545 1.356 . S
C544 H581 0.930 . S
C545 C542 1.348 . S
C545 C544 1.356 . S
H546 C540 0.930 . S
H547 C541 0.930 . S
C548 N549 1.314 . S
C548 C550 1.353 . S
C548 H554 0.930 . S
N549 Li499 1.990 . S
N549 C548 1.314 . S
N549 C552 1.279 . S
C550 C548 1.353 . S
C550 C553 1.348 . S
C550 H582 0.929 . S
C551 C552 1.358 . S
C551 C553 1.356 . S
C551 H583 0.930 . S
C552 N549 1.279 . S
C552 C551 1.358 . S
C552 H555 0.930 . S
C553 C550 1.348 . S
C553 C551 1.356 . S
H554 C548 0.930 . S
H555 C552 0.930 . S
O556 Li496 1.956 . S
O556 Li497 1.970 . S
O556 Li498 1.961 . S
O556 C500 1.325 . S
O557 Li496 1.970 . S
O557 Li497 1.956 . S
O557 Li499 1.961 . S
O557 C506 1.325 . S
O558 Li496 1.961 . S
O558 Li498 1.956 . S
O558 Li499 1.970 . S
O558 C528 1.325 . S
O559 Li497 1.961 . S
O559 Li498 1.970 . S
O559 Li499 1.956 . S
O559 C534 1.325 . S
H560 C502 0.929 . S
H561 C503 0.930 . S
H562 C504 0.930 . S
H563 C505 0.930 . S
H564 C507 0.930 . S
H565 C509 0.929 . S
H566 C510 0.930 . S
H567 C511 0.930 . S
H568 C514 0.930 . S
H569 C517 0.929 . S
H570 C522 0.929 . S
H571 C523 0.930 . S
H572 C530 0.929 . S
H573 C531 0.930 . S
H574 C532 0.930 . S
H575 C533 0.930 . S
H576 C535 0.929 . S
H577 C536 0.930 . S
H578 C537 0.930 . S
H579 C538 0.930 . S
H580 C542 0.929 . S
H581 C544 0.930 . S
H582 C550 0.929 . S
H583 C551 0.930 . S
Li584 N601 1.990 . S
Li584 O644 1.956 . S
Li584 O645 1.970 . S
Li584 O646 1.961 . S
Li585 N609 1.990 . S
Li585 O644 1.970 . S
Li585 O645 1.956 . S
Li585 O647 1.961 . S
Li586 N631 1.990 . S
Li586 O644 1.961 . S
Li586 O646 1.956 . S
Li586 O647 1.970 . S
Li587 N637 1.990 . S
Li587 O645 1.961 . S
Li587 O646 1.970 . S
Li587 O647 1.956 . S
C588 C590 1.348 . S
C588 C591 1.356 . S
C588 O644 1.325 . S
N589 C592 1.314 . S
N589 C593 1.279 . S
C590 C588 1.348 . S
C590 C592 1.353 . S
C590 H648 0.929 . S
C591 C588 1.356 . S
C591 C593 1.358 . S
C591 H649 0.930 . S
C592 N589 1.314 . S
C592 C590 1.353 . S
C592 H650 0.930 . S
C593 N589 1.279 . S
C593 C591 1.358 . S
C593 H651 0.930 . S
C594 C597 1.348 . S
C594 C598 1.356 . S
C594 O645 1.325 . S
C595 N596 1.279 . S
C595 C598 1.358 . S
C595 H652 0.930 . S
N596 C595 1.279 . S
N596 C599 1.314 . S
C597 C594 1.348 . S
C597 C599 1.353 . S
C597 H653 0.929 . S
C598 C594 1.356 . S
C598 C595 1.358 . S
C598 H654 0.930 . S
C599 N596 1.314 . S
C599 C597 1.353 . S
C599 H655 0.930 . S
C600 N601 1.314 . S
C600 C605 1.353 . S
C600 H606 0.930 . S
N601 Li584 1.990 . S
N601 C600 1.314 . S
N601 C603 1.279 . S
C602 C603 1.358 . S
C602 C604 1.356 . S
C602 H656 0.930 . S
C603 N601 1.279 . S
C603 C602 1.358 . S
C603 H607 0.930 . S
C604 C602 1.356 . S
C604 C605 1.348 . S
C605 C600 1.353 . S
C605 C604 1.348 . S
C605 H657 0.929 . S
H606 C600 0.930 . S
H607 C603 0.930 . S
C608 N609 1.314 . S
C608 C610 1.353 . S
C608 H614 0.930 . S
N609 Li585 1.990 . S
N609 C608 1.314 . S
N609 C612 1.279 . S
C610 C608 1.353 . S
C610 C613 1.348 . S
C610 H658 0.929 . S
C611 C612 1.358 . S
C611 C613 1.356 . S
C611 H659 0.930 . S
C612 N609 1.279 . S
C612 C611 1.358 . S
C612 H615 0.930 . S
C613 C610 1.348 . S
C613 C611 1.356 . S
H614 C608 0.930 . S
H615 C612 0.930 . S
C616 C618 1.348 . S
C616 C619 1.356 . S
C616 O646 1.325 . S
N617 C620 1.314 . S
N617 C621 1.279 . S
C618 C616 1.348 . S
C618 C620 1.353 . S
C618 H660 0.929 . S
C619 C616 1.356 . S
C619 C621 1.358 . S
C619 H661 0.930 . S
C620 N617 1.314 . S
C620 C618 1.353 . S
C620 H662 0.930 . S
C621 N617 1.279 . S
C621 C619 1.358 . S
C621 H663 0.930 . S
C622 C623 1.348 . S
C622 C624 1.356 . S
C622 O647 1.325 . S
C623 C622 1.348 . S
C623 C625 1.353 . S
C623 H664 0.929 . S
C624 C622 1.356 . S
C624 C626 1.358 . S
C624 H665 0.930 . S
C625 C623 1.353 . S
C625 N627 1.314 . S
C625 H666 0.930 . S
C626 C624 1.358 . S
C626 N627 1.279 . S
C626 H667 0.930 . S
N627 C625 1.314 . S
N627 C626 1.279 . S
C628 C630 1.353 . S
C628 N631 1.314 . S
C628 H634 0.930 . S
C629 N631 1.279 . S
C629 C632 1.358 . S
C629 H635 0.930 . S
C630 C628 1.353 . S
C630 C633 1.348 . S
C630 H668 0.929 . S
N631 Li586 1.990 . S
N631 C628 1.314 . S
N631 C629 1.279 . S
C632 C629 1.358 . S
C632 C633 1.356 . S
C632 H669 0.930 . S
C633 C630 1.348 . S
C633 C632 1.356 . S
H634 C628 0.930 . S
H635 C629 0.930 . S
C636 N637 1.314 . S
C636 C638 1.353 . S
C636 H642 0.930 . S
N637 Li587 1.990 . S
N637 C636 1.314 . S
N637 C640 1.279 . S
C638 C636 1.353 . S
C638 C641 1.348 . S
C638 H670 0.929 . S
C639 C640 1.358 . S
C639 C641 1.356 . S
C639 H671 0.930 . S
C640 N637 1.279 . S
C640 C639 1.358 . S
C640 H643 0.930 . S
C641 C638 1.348 . S
C641 C639 1.356 . S
H642 C636 0.930 . S
H643 C640 0.930 . S
O644 Li584 1.956 . S
O644 Li585 1.970 . S
O644 Li586 1.961 . S
O644 C588 1.325 . S
O645 Li584 1.970 . S
O645 Li585 1.956 . S
O645 Li587 1.961 . S
O645 C594 1.325 . S
O646 Li584 1.961 . S
O646 Li586 1.956 . S
O646 Li587 1.970 . S
O646 C616 1.325 . S
O647 Li585 1.961 . S
O647 Li586 1.970 . S
O647 Li587 1.956 . S
O647 C622 1.325 . S
H648 C590 0.929 . S
H649 C591 0.930 . S
H650 C592 0.930 . S
H651 C593 0.930 . S
H652 C595 0.930 . S
H653 C597 0.929 . S
H654 C598 0.930 . S
H655 C599 0.930 . S
H656 C602 0.930 . S
H657 C605 0.929 . S
H658 C610 0.929 . S
H659 C611 0.930 . S
H660 C618 0.929 . S
H661 C619 0.930 . S
H662 C620 0.930 . S
H663 C621 0.930 . S
H664 C623 0.929 . S
H665 C624 0.930 . S
H666 C625 0.930 . S
H667 C626 0.930 . S
H668 C630 0.929 . S
H669 C632 0.930 . S
H670 C638 0.929 . S
H671 C639 0.930 . S
Li672 N689 1.990 . S
Li672 O732 1.956 . S
Li672 O733 1.970 . S
Li672 O734 1.961 . S
Li673 N697 1.990 . S
Li673 O732 1.970 . S
Li673 O733 1.956 . S
Li673 O735 1.961 . S
Li674 N719 1.990 . S
Li674 O732 1.961 . S
Li674 O734 1.956 . S
Li674 O735 1.970 . S
Li675 N725 1.990 . S
Li675 O733 1.961 . S
Li675 O734 1.970 . S
Li675 O735 1.956 . S
C676 C678 1.348 . S
C676 C679 1.356 . S
C676 O732 1.325 . S
N677 C680 1.314 . S
N677 C681 1.279 . S
C678 C676 1.348 . S
C678 C680 1.353 . S
C678 H736 0.929 . S
C679 C676 1.356 . S
C679 C681 1.358 . S
C679 H737 0.930 . S
C680 N677 1.314 . S
C680 C678 1.353 . S
C680 H738 0.930 . S
C681 N677 1.279 . S
C681 C679 1.358 . S
C681 H739 0.930 . S
C682 C685 1.348 . S
C682 C686 1.356 . S
C682 O733 1.325 . S
C683 N684 1.279 . S
C683 C686 1.358 . S
C683 H740 0.930 . S
N684 C683 1.279 . S
N684 C687 1.314 . S
C685 C682 1.348 . S
C685 C687 1.353 . S
C685 H741 0.929 . S
C686 C682 1.356 . S
C686 C683 1.358 . S
C686 H742 0.930 . S
C687 N684 1.314 . S
C687 C685 1.353 . S
C687 H743 0.930 . S
C688 N689 1.314 . S
C688 C693 1.353 . S
C688 H694 0.930 . S
N689 Li672 1.990 . S
N689 C688 1.314 . S
N689 C691 1.279 . S
C690 C691 1.358 . S
C690 C692 1.356 . S
C690 H744 0.930 . S
C691 N689 1.279 . S
C691 C690 1.358 . S
C691 H695 0.930 . S
C692 C690 1.356 . S
C692 C693 1.348 . S
C693 C688 1.353 . S
C693 C692 1.348 . S
C693 H745 0.929 . S
H694 C688 0.930 . S
H695 C691 0.930 . S
C696 N697 1.314 . S
C696 C698 1.353 . S
C696 H702 0.930 . S
N697 Li673 1.990 . S
N697 C696 1.314 . S
N697 C700 1.279 . S
C698 C696 1.353 . S
C698 C701 1.348 . S
C698 H746 0.929 . S
C699 C700 1.358 . S
C699 C701 1.356 . S
C699 H747 0.930 . S
C700 N697 1.279 . S
C700 C699 1.358 . S
C700 H703 0.930 . S
C701 C698 1.348 . S
C701 C699 1.356 . S
H702 C696 0.930 . S
H703 C700 0.930 . S
C704 C706 1.348 . S
C704 C707 1.356 . S
C704 O734 1.325 . S
N705 C708 1.314 . S
N705 C709 1.279 . S
C706 C704 1.348 . S
C706 C708 1.353 . S
C706 H748 0.929 . S
C707 C704 1.356 . S
C707 C709 1.358 . S
C707 H749 0.930 . S
C708 N705 1.314 . S
C708 C706 1.353 . S
C708 H750 0.930 . S
C709 N705 1.279 . S
C709 C707 1.358 . S
C709 H751 0.930 . S
C710 C711 1.348 . S
C710 C712 1.356 . S
C710 O735 1.325 . S
C711 C710 1.348 . S
C711 C713 1.353 . S
C711 H752 0.929 . S
C712 C710 1.356 . S
C712 C714 1.358 . S
C712 H753 0.930 . S
C713 C711 1.353 . S
C713 N715 1.314 . S
C713 H754 0.930 . S
C714 C712 1.358 . S
C714 N715 1.279 . S
C714 H755 0.930 . S
N715 C713 1.314 . S
N715 C714 1.279 . S
C716 C718 1.353 . S
C716 N719 1.314 . S
C716 H722 0.930 . S
C717 N719 1.279 . S
C717 C720 1.358 . S
C717 H723 0.930 . S
C718 C716 1.353 . S
C718 C721 1.348 . S
C718 H756 0.929 . S
N719 Li674 1.990 . S
N719 C716 1.314 . S
N719 C717 1.279 . S
C720 C717 1.358 . S
C720 C721 1.356 . S
C720 H757 0.930 . S
C721 C718 1.348 . S
C721 C720 1.356 . S
H722 C716 0.930 . S
H723 C717 0.930 . S
C724 N725 1.314 . S
C724 C726 1.353 . S
C724 H730 0.930 . S
N725 Li675 1.990 . S
N725 C724 1.314 . S
N725 C728 1.279 . S
C726 C724 1.353 . S
C726 C729 1.348 . S
C726 H758 0.929 . S
C727 C728 1.358 . S
C727 C729 1.356 . S
C727 H759 0.930 . S
C728 N725 1.279 . S
C728 C727 1.358 . S
C728 H731 0.930 . S
C729 C726 1.348 . S
C729 C727 1.356 . S
H730 C724 0.930 . S
H731 C728 0.930 . S
O732 Li672 1.956 . S
O732 Li673 1.970 . S
O732 Li674 1.961 . S
O732 C676 1.325 . S
O733 Li672 1.970 . S
O733 Li673 1.956 . S
O733 Li675 1.961 . S
O733 C682 1.325 . S
O734 Li672 1.961 . S
O734 Li674 1.956 . S
O734 Li675 1.970 . S
O734 C704 1.325 . S
O735 Li673 1.961 . S
O735 Li674 1.970 . S
O735 Li675 1.956 . S
O735 C710 1.325 . S
H736 C678 0.929 . S
H737 C679 0.930 . S
H738 C680 0.930 . S
H739 C681 0.930 . S
H740 C683 0.930 . S
H741 C685 0.929 . S
H742 C686 0.930 . S
H743 C687 0.930 . S
H744 C690 0.930 . S
H745 C693 0.929 . S
H746 C698 0.929 . S
H747 C699 0.930 . S
H748 C706 0.929 . S
H749 C707 0.930 . S
H750 C708 0.930 . S
H751 C709 0.930 . S
H752 C711 0.929 . S
H753 C712 0.930 . S
H754 C713 0.930 . S
H755 C714 0.930 . S
H756 C718 0.929 . S
H757 C720 0.930 . S
H758 C726 0.929 . S
H759 C727 0.930 . S
Li760 N777 1.990 . S
Li760 O820 1.956 . S
Li760 O821 1.970 1_565 S
Li760 O822 1.961 . S
Li761 N785 1.990 . S
Li761 O820 1.970 1_545 S
Li761 O821 1.956 . S
Li761 O823 1.961 . S
Li762 N807 1.990 . S
Li762 O820 1.961 . S
Li762 O822 1.956 . S
Li762 O823 1.970 1_565 S
Li763 N813 1.990 . S
Li763 O821 1.961 . S
Li763 O822 1.970 1_545 S
Li763 O823 1.956 . S
C764 C766 1.348 . S
C764 C767 1.356 . S
C764 O820 1.325 . S
N765 C768 1.314 . S
N765 C769 1.279 . S
C766 C764 1.348 . S
C766 C768 1.353 . S
C766 H824 0.929 . S
C767 C764 1.356 . S
C767 C769 1.358 . S
C767 H825 0.930 . S
C768 N765 1.314 . S
C768 C766 1.353 . S
C768 H826 0.930 . S
C769 N765 1.279 . S
C769 C767 1.358 . S
C769 H827 0.930 . S
C770 C773 1.348 1_545 S
C770 C774 1.356 . S
C770 O821 1.325 . S
C771 N772 1.279 . S
C771 C774 1.358 . S
C771 H828 0.930 . S
N772 C771 1.279 . S
N772 C775 1.314 1_545 S
C773 C770 1.348 1_565 S
C773 C775 1.353 . S
C773 H829 0.929 . S
C774 C770 1.356 . S
C774 C771 1.358 . S
C774 H830 0.930 . S
C775 N772 1.314 1_565 S
C775 C773 1.353 . S
C775 H831 0.930 . S
C776 N777 1.314 . S
C776 C781 1.353 . S
C776 H782 0.930 . S
N777 Li760 1.990 . S
N777 C776 1.314 . S
N777 C779 1.279 . S
C778 C779 1.358 . S
C778 C780 1.356 . S
C778 H832 0.930 . S
C779 N777 1.279 . S
C779 C778 1.358 . S
C779 H783 0.930 . S
C780 C778 1.356 . S
C780 C781 1.348 . S
C781 C776 1.353 . S
C781 C780 1.348 . S
C781 H833 0.929 . S
H782 C776 0.930 . S
H783 C779 0.930 . S
C784 N785 1.314 . S
C784 C786 1.353 . S
C784 H790 0.930 . S
N785 Li761 1.990 . S
N785 C784 1.314 . S
N785 C788 1.279 . S
C786 C784 1.353 . S
C786 C789 1.348 . S
C786 H834 0.929 . S
C787 C788 1.358 . S
C787 C789 1.356 . S
C787 H835 0.930 . S
C788 N785 1.279 . S
C788 C787 1.358 . S
C788 H791 0.930 . S
C789 C786 1.348 . S
C789 C787 1.356 . S
H790 C784 0.930 . S
H791 C788 0.930 . S
C792 C794 1.348 1_565 S
C792 C795 1.356 . S
C792 O822 1.325 . S
N793 C796 1.314 1_565 S
N793 C797 1.279 . S
C794 C792 1.348 1_545 S
C794 C796 1.353 . S
C794 H836 0.929 . S
C795 C792 1.356 . S
C795 C797 1.358 . S
C795 H837 0.930 . S
C796 N793 1.314 1_545 S
C796 C794 1.353 . S
C796 H838 0.930 . S
C797 N793 1.279 . S
C797 C795 1.358 . S
C797 H839 0.930 . S
C798 C799 1.348 . S
C798 C800 1.356 . S
C798 O823 1.325 . S
C799 C798 1.348 . S
C799 C801 1.353 . S
C799 H840 0.929 . S
C800 C798 1.356 . S
C800 C802 1.358 . S
C800 H841 0.930 . S
C801 C799 1.353 . S
C801 N803 1.314 . S
C801 H842 0.930 . S
C802 C800 1.358 . S
C802 N803 1.279 . S
C802 H843 0.930 . S
N803 C801 1.314 . S
N803 C802 1.279 . S
C804 C806 1.353 . S
C804 N807 1.314 . S
C804 H810 0.930 . S
C805 N807 1.279 . S
C805 C808 1.358 . S
C805 H811 0.930 . S
C806 C804 1.353 . S
C806 C809 1.348 . S
C806 H844 0.929 . S
N807 Li762 1.990 . S
N807 C804 1.314 . S
N807 C805 1.279 . S
C808 C805 1.358 . S
C808 C809 1.356 . S
C808 H845 0.930 . S
C809 C806 1.348 . S
C809 C808 1.356 . S
H810 C804 0.930 . S
H811 C805 0.930 . S
C812 N813 1.314 . S
C812 C814 1.353 . S
C812 H818 0.930 . S
N813 Li763 1.990 . S
N813 C812 1.314 . S
N813 C816 1.279 . S
C814 C812 1.353 . S
C814 C817 1.348 . S
C814 H846 0.929 . S
C815 C816 1.358 . S
C815 C817 1.356 . S
C815 H847 0.930 . S
C816 N813 1.279 . S
C816 C815 1.358 . S
C816 H819 0.930 . S
C817 C814 1.348 . S
C817 C815 1.356 . S
H818 C812 0.930 . S
H819 C816 0.930 . S
O820 Li760 1.956 . S
O820 Li761 1.970 1_565 S
O820 Li762 1.961 . S
O820 C764 1.325 . S
O821 Li760 1.970 1_545 S
O821 Li761 1.956 . S
O821 Li763 1.961 . S
O821 C770 1.325 . S
O822 Li760 1.961 . S
O822 Li762 1.956 . S
O822 Li763 1.970 1_565 S
O822 C792 1.325 . S
O823 Li761 1.961 . S
O823 Li762 1.970 1_545 S
O823 Li763 1.956 . S
O823 C798 1.325 . S
H824 C766 0.929 . S
H825 C767 0.930 . S
H826 C768 0.930 . S
H827 C769 0.930 . S
H828 C771 0.930 . S
H829 C773 0.929 . S
H830 C774 0.930 . S
H831 C775 0.930 . S
H832 C778 0.930 . S
H833 C781 0.929 . S
H834 C786 0.929 . S
H835 C787 0.930 . S
H836 C794 0.929 . S
H837 C795 0.930 . S
H838 C796 0.930 . S
H839 C797 0.930 . S
H840 C799 0.929 . S
H841 C800 0.930 . S
H842 C801 0.930 . S
H843 C802 0.930 . S
H844 C806 0.929 . S
H845 C808 0.930 . S
H846 C814 0.929 . S
H847 C815 0.930 . S
Li848 N865 1.990 . S
Li848 O908 1.956 . S
Li848 O909 1.970 1_455 S
Li848 O910 1.961 . S
Li849 N873 1.990 . S
Li849 O908 1.970 1_655 S
Li849 O909 1.956 . S
Li849 O911 1.961 . S
Li850 N895 1.990 . S
Li850 O908 1.961 . S
Li850 O910 1.956 . S
Li850 O911 1.970 1_455 S
Li851 N901 1.990 . S
Li851 O909 1.961 . S
Li851 O910 1.970 1_655 S
Li851 O911 1.956 . S
C852 C854 1.348 . S
C852 C855 1.356 . S
C852 O908 1.325 . S
N853 C856 1.314 . S
N853 C857 1.279 . S
C854 C852 1.348 . S
C854 C856 1.353 . S
C854 H912 0.929 . S
C855 C852 1.356 . S
C855 C857 1.358 . S
C855 H913 0.930 . S
C856 N853 1.314 . S
C856 C854 1.353 . S
C856 H914 0.930 . S
C857 N853 1.279 . S
C857 C855 1.358 . S
C857 H915 0.930 . S
C858 C861 1.348 1_655 S
C858 C862 1.356 . S
C858 O909 1.325 . S
C859 N860 1.279 . S
C859 C862 1.358 . S
C859 H916 0.930 . S
N860 C859 1.279 . S
N860 C863 1.314 1_655 S
C861 C858 1.348 1_455 S
C861 C863 1.353 . S
C861 H917 0.929 . S
C862 C858 1.356 . S
C862 C859 1.358 . S
C862 H918 0.930 . S
C863 N860 1.314 1_455 S
C863 C861 1.353 . S
C863 H919 0.930 . S
C864 N865 1.314 . S
C864 C869 1.353 . S
C864 H870 0.930 . S
N865 Li848 1.990 . S
N865 C864 1.314 . S
N865 C867 1.279 . S
C866 C867 1.358 . S
C866 C868 1.356 . S
C866 H920 0.930 . S
C867 N865 1.279 . S
C867 C866 1.358 . S
C867 H871 0.930 . S
C868 C866 1.356 . S
C868 C869 1.348 . S
C869 C864 1.353 . S
C869 C868 1.348 . S
C869 H921 0.929 . S
H870 C864 0.930 . S
H871 C867 0.930 . S
C872 N873 1.314 . S
C872 C874 1.353 . S
C872 H878 0.930 . S
N873 Li849 1.990 . S
N873 C872 1.314 . S
N873 C876 1.279 . S
C874 C872 1.353 . S
C874 C877 1.348 . S
C874 H922 0.929 . S
C875 C876 1.358 . S
C875 C877 1.356 . S
C875 H923 0.930 . S
C876 N873 1.279 . S
C876 C875 1.358 . S
C876 H879 0.930 . S
C877 C874 1.348 . S
C877 C875 1.356 . S
H878 C872 0.930 . S
H879 C876 0.930 . S
C880 C882 1.348 1_455 S
C880 C883 1.356 . S
C880 O910 1.325 . S
N881 C884 1.314 1_455 S
N881 C885 1.279 . S
C882 C880 1.348 1_655 S
C882 C884 1.353 . S
C882 H924 0.929 . S
C883 C880 1.356 . S
C883 C885 1.358 . S
C883 H925 0.930 . S
C884 N881 1.314 1_655 S
C884 C882 1.353 . S
C884 H926 0.930 . S
C885 N881 1.279 . S
C885 C883 1.358 . S
C885 H927 0.930 . S
C886 C887 1.348 . S
C886 C888 1.356 . S
C886 O911 1.325 . S
C887 C886 1.348 . S
C887 C889 1.353 . S
C887 H928 0.929 . S
C888 C886 1.356 . S
C888 C890 1.358 . S
C888 H929 0.930 . S
C889 C887 1.353 . S
C889 N891 1.314 . S
C889 H930 0.930 . S
C890 C888 1.358 . S
C890 N891 1.279 . S
C890 H931 0.930 . S
N891 C889 1.314 . S
N891 C890 1.279 . S
C892 C894 1.353 . S
C892 N895 1.314 . S
C892 H898 0.930 . S
C893 N895 1.279 . S
C893 C896 1.358 . S
C893 H899 0.930 . S
C894 C892 1.353 . S
C894 C897 1.348 . S
C894 H932 0.929 . S
N895 Li850 1.990 . S
N895 C892 1.314 . S
N895 C893 1.279 . S
C896 C893 1.358 . S
C896 C897 1.356 . S
C896 H933 0.930 . S
C897 C894 1.348 . S
C897 C896 1.356 . S
H898 C892 0.930 . S
H899 C893 0.930 . S
C900 N901 1.314 . S
C900 C902 1.353 . S
C900 H906 0.930 . S
N901 Li851 1.990 . S
N901 C900 1.314 . S
N901 C904 1.279 . S
C902 C900 1.353 . S
C902 C905 1.348 . S
C902 H934 0.929 . S
C903 C904 1.358 . S
C903 C905 1.356 . S
C903 H935 0.930 . S
C904 N901 1.279 . S
C904 C903 1.358 . S
C904 H907 0.930 . S
C905 C902 1.348 . S
C905 C903 1.356 . S
H906 C900 0.930 . S
H907 C904 0.930 . S
O908 Li848 1.956 . S
O908 Li849 1.970 1_455 S
O908 Li850 1.961 . S
O908 C852 1.325 . S
O909 Li848 1.970 1_655 S
O909 Li849 1.956 . S
O909 Li851 1.961 . S
O909 C858 1.325 . S
O910 Li848 1.961 . S
O910 Li850 1.956 . S
O910 Li851 1.970 1_455 S
O910 C880 1.325 . S
O911 Li849 1.961 . S
O911 Li850 1.970 1_655 S
O911 Li851 1.956 . S
O911 C886 1.325 . S
H912 C854 0.929 . S
H913 C855 0.930 . S
H914 C856 0.930 . S
H915 C857 0.930 . S
H916 C859 0.930 . S
H917 C861 0.929 . S
H918 C862 0.930 . S
H919 C863 0.930 . S
H920 C866 0.930 . S
H921 C869 0.929 . S
H922 C874 0.929 . S
H923 C875 0.930 . S
H924 C882 0.929 . S
H925 C883 0.930 . S
H926 C884 0.930 . S
H927 C885 0.930 . S
H928 C887 0.929 . S
H929 C888 0.930 . S
H930 C889 0.930 . S
H931 C890 0.930 . S
H932 C894 0.929 . S
H933 C896 0.930 . S
H934 C902 0.929 . S
H935 C903 0.930 . S
Li936 N953 1.990 . S
Li936 O996 1.956 . S
Li936 O997 1.970 . S
Li936 O998 1.961 . S
Li937 N961 1.990 . S
Li937 O996 1.970 . S
Li937 O997 1.956 . S
Li937 O999 1.961 . S
Li938 N983 1.990 . S
Li938 O996 1.961 . S
Li938 O998 1.956 . S
Li938 O999 1.970 . S
Li939 N989 1.990 . S
Li939 O997 1.961 . S
Li939 O998 1.970 . S
Li939 O999 1.956 . S
C940 C942 1.348 . S
C940 C943 1.356 . S
C940 O996 1.325 . S
N941 C944 1.314 . S
N941 C945 1.279 . S
C942 C940 1.348 . S
C942 C944 1.353 . S
C942 H1000 0.929 . S
C943 C940 1.356 . S
C943 C945 1.358 . S
C943 H1001 0.930 . S
C944 N941 1.314 . S
C944 C942 1.353 . S
C944 H1002 0.930 . S
C945 N941 1.279 . S
C945 C943 1.358 . S
C945 H1003 0.930 . S
C946 C949 1.348 . S
C946 C950 1.356 . S
C946 O997 1.325 . S
C947 N948 1.279 . S
C947 C950 1.358 . S
C947 H1004 0.930 . S
N948 C947 1.279 . S
N948 C951 1.314 . S
C949 C946 1.348 . S
C949 C951 1.353 . S
C949 H1005 0.929 . S
C950 C946 1.356 . S
C950 C947 1.358 . S
C950 H1006 0.930 . S
C951 N948 1.314 . S
C951 C949 1.353 . S
C951 H1007 0.930 . S
C952 N953 1.314 . S
C952 C957 1.353 . S
C952 H958 0.930 . S
N953 Li936 1.990 . S
N953 C952 1.314 . S
N953 C955 1.279 . S
C954 C955 1.358 . S
C954 C956 1.356 . S
C954 H1008 0.930 . S
C955 N953 1.279 . S
C955 C954 1.358 . S
C955 H959 0.930 . S
C956 C954 1.356 . S
C956 C957 1.348 . S
C957 C952 1.353 . S
C957 C956 1.348 . S
C957 H1009 0.929 . S
H958 C952 0.930 . S
H959 C955 0.930 . S
C960 N961 1.314 . S
C960 C962 1.353 . S
C960 H966 0.930 . S
N961 Li937 1.990 . S
N961 C960 1.314 . S
N961 C964 1.279 . S
C962 C960 1.353 . S
C962 C965 1.348 . S
C962 H1010 0.929 . S
C963 C964 1.358 . S
C963 C965 1.356 . S
C963 H1011 0.930 . S
C964 N961 1.279 . S
C964 C963 1.358 . S
C964 H967 0.930 . S
C965 C962 1.348 . S
C965 C963 1.356 . S
H966 C960 0.930 . S
H967 C964 0.930 . S
C968 C970 1.348 . S
C968 C971 1.356 . S
C968 O998 1.325 . S
N969 C972 1.314 . S
N969 C973 1.279 . S
C970 C968 1.348 . S
C970 C972 1.353 . S
C970 H1012 0.929 . S
C971 C968 1.356 . S
C971 C973 1.358 . S
C971 H1013 0.930 . S
C972 N969 1.314 . S
C972 C970 1.353 . S
C972 H1014 0.930 . S
C973 N969 1.279 . S
C973 C971 1.358 . S
C973 H1015 0.930 . S
C974 C975 1.348 . S
C974 C976 1.356 . S
C974 O999 1.325 . S
C975 C974 1.348 . S
C975 C977 1.353 . S
C975 H1016 0.929 . S
C976 C974 1.356 . S
C976 C978 1.358 . S
C976 H1017 0.930 . S
C977 C975 1.353 . S
C977 N979 1.314 . S
C977 H1018 0.930 . S
C978 C976 1.358 . S
C978 N979 1.279 . S
C978 H1019 0.930 . S
N979 C977 1.314 . S
N979 C978 1.279 . S
C980 C982 1.353 . S
C980 N983 1.314 . S
C980 H986 0.930 . S
C981 N983 1.279 . S
C981 C984 1.358 . S
C981 H987 0.930 . S
C982 C980 1.353 . S
C982 C985 1.348 . S
C982 H1020 0.929 . S
N983 Li938 1.990 . S
N983 C980 1.314 . S
N983 C981 1.279 . S
C984 C981 1.358 . S
C984 C985 1.356 . S
C984 H1021 0.930 . S
C985 C982 1.348 . S
C985 C984 1.356 . S
H986 C980 0.930 . S
H987 C981 0.930 . S
C988 N989 1.314 . S
C988 C990 1.353 . S
C988 H994 0.930 . S
N989 Li939 1.990 . S
N989 C988 1.314 . S
N989 C992 1.279 . S
C990 C988 1.353 . S
C990 C993 1.348 . S
C990 H1022 0.929 . S
C991 C992 1.358 . S
C991 C993 1.356 . S
C991 H1023 0.930 . S
C992 N989 1.279 . S
C992 C991 1.358 . S
C992 H995 0.930 . S
C993 C990 1.348 . S
C993 C991 1.356 . S
H994 C988 0.930 . S
H995 C992 0.930 . S
O996 Li936 1.956 . S
O996 Li937 1.970 . S
O996 Li938 1.961 . S
O996 C940 1.325 . S
O997 Li936 1.970 . S
O997 Li937 1.956 . S
O997 Li939 1.961 . S
O997 C946 1.325 . S
O998 Li936 1.961 . S
O998 Li938 1.956 . S
O998 Li939 1.970 . S
O998 C968 1.325 . S
O999 Li937 1.961 . S
O999 Li938 1.970 . S
O999 Li939 1.956 . S
O999 C974 1.325 . S
H1000 C942 0.929 . S
H1001 C943 0.930 . S
H1002 C944 0.930 . S
H1003 C945 0.930 . S
H1004 C947 0.930 . S
H1005 C949 0.929 . S
H1006 C950 0.930 . S
H1007 C951 0.930 . S
H1008 C954 0.930 . S
H1009 C957 0.929 . S
H1010 C962 0.929 . S
H1011 C963 0.930 . S
H1012 C970 0.929 . S
H1013 C971 0.930 . S
H1014 C972 0.930 . S
H1015 C973 0.930 . S
H1016 C975 0.929 . S
H1017 C976 0.930 . S
H1018 C977 0.930 . S
H1019 C978 0.930 . S
H1020 C982 0.929 . S
H1021 C984 0.930 . S
H1022 C990 0.929 . S
H1023 C991 0.930 . S
Li1024 N1041 1.990 . S
Li1024 O1084 1.956 . S
Li1024 O1085 1.970 1_455 S
Li1024 O1086 1.961 . S
Li1025 N1049 1.990 . S
Li1025 O1084 1.970 1_655 S
Li1025 O1085 1.956 . S
Li1025 O1087 1.961 . S
Li1026 N1071 1.990 . S
Li1026 O1084 1.961 . S
Li1026 O1086 1.956 . S
Li1026 O1087 1.970 1_455 S
Li1027 N1077 1.990 . S
Li1027 O1085 1.961 . S
Li1027 O1086 1.970 1_655 S
Li1027 O1087 1.956 . S
C1028 C1030 1.348 1_455 S
C1028 C1031 1.356 . S
C1028 O1084 1.325 . S
N1029 C1032 1.314 1_455 S
N1029 C1033 1.279 . S
C1030 C1028 1.348 1_655 S
C1030 C1032 1.353 . S
C1030 H1088 0.929 . S
C1031 C1028 1.356 . S
C1031 C1033 1.358 . S
C1031 H1089 0.930 . S
C1032 N1029 1.314 1_655 S
C1032 C1030 1.353 . S
C1032 H1090 0.930 . S
C1033 N1029 1.279 . S
C1033 C1031 1.358 . S
C1033 H1091 0.930 . S
C1034 C1037 1.348 . S
C1034 C1038 1.356 . S
C1034 O1085 1.325 . S
C1035 N1036 1.279 . S
C1035 C1038 1.358 . S
C1035 H1092 0.930 . S
N1036 C1035 1.279 . S
N1036 C1039 1.314 . S
C1037 C1034 1.348 . S
C1037 C1039 1.353 . S
C1037 H1093 0.929 . S
C1038 C1034 1.356 . S
C1038 C1035 1.358 . S
C1038 H1094 0.930 . S
C1039 N1036 1.314 . S
C1039 C1037 1.353 . S
C1039 H1095 0.930 . S
C1040 N1041 1.314 . S
C1040 C1045 1.353 . S
C1040 H1046 0.930 . S
N1041 Li1024 1.990 . S
N1041 C1040 1.314 . S
N1041 C1043 1.279 . S
C1042 C1043 1.358 . S
C1042 C1044 1.356 . S
C1042 H1096 0.930 . S
C1043 N1041 1.279 . S
C1043 C1042 1.358 . S
C1043 H1047 0.930 . S
C1044 C1042 1.356 . S
C1044 C1045 1.348 . S
C1045 C1040 1.353 . S
C1045 C1044 1.348 . S
C1045 H1097 0.929 . S
H1046 C1040 0.930 . S
H1047 C1043 0.930 . S
C1048 N1049 1.314 . S
C1048 C1050 1.353 . S
C1048 H1054 0.930 . S
N1049 Li1025 1.990 . S
N1049 C1048 1.314 . S
N1049 C1052 1.279 . S
C1050 C1048 1.353 . S
C1050 C1053 1.348 . S
C1050 H1098 0.929 . S
C1051 C1052 1.358 . S
C1051 C1053 1.356 . S
C1051 H1099 0.930 . S
C1052 N1049 1.279 . S
C1052 C1051 1.358 . S
C1052 H1055 0.930 . S
C1053 C1050 1.348 . S
C1053 C1051 1.356 . S
H1054 C1048 0.930 . S
H1055 C1052 0.930 . S
C1056 C1058 1.348 . S
C1056 C1059 1.356 . S
C1056 O1086 1.325 . S
N1057 C1060 1.314 . S
N1057 C1061 1.279 . S
C1058 C1056 1.348 . S
C1058 C1060 1.353 . S
C1058 H1100 0.929 . S
C1059 C1056 1.356 . S
C1059 C1061 1.358 . S
C1059 H1101 0.930 . S
C1060 N1057 1.314 . S
C1060 C1058 1.353 . S
C1060 H1102 0.930 . S
C1061 N1057 1.279 . S
C1061 C1059 1.358 . S
C1061 H1103 0.930 . S
C1062 C1063 1.348 1_655 S
C1062 C1064 1.356 . S
C1062 O1087 1.325 . S
C1063 C1062 1.348 1_455 S
C1063 C1065 1.353 . S
C1063 H1104 0.929 . S
C1064 C1062 1.356 . S
C1064 C1066 1.358 . S
C1064 H1105 0.930 . S
C1065 C1063 1.353 . S
C1065 N1067 1.314 1_455 S
C1065 H1106 0.930 . S
C1066 C1064 1.358 . S
C1066 N1067 1.279 . S
C1066 H1107 0.930 . S
N1067 C1065 1.314 1_655 S
N1067 C1066 1.279 . S
C1068 C1070 1.353 . S
C1068 N1071 1.314 . S
C1068 H1074 0.930 . S
C1069 N1071 1.279 . S
C1069 C1072 1.358 . S
C1069 H1075 0.930 . S
C1070 C1068 1.353 . S
C1070 C1073 1.348 . S
C1070 H1108 0.929 . S
N1071 Li1026 1.990 . S
N1071 C1068 1.314 . S
N1071 C1069 1.279 . S
C1072 C1069 1.358 . S
C1072 C1073 1.356 . S
C1072 H1109 0.930 . S
C1073 C1070 1.348 . S
C1073 C1072 1.356 . S
H1074 C1068 0.930 . S
H1075 C1069 0.930 . S
C1076 N1077 1.314 . S
C1076 C1078 1.353 . S
C1076 H1082 0.930 . S
N1077 Li1027 1.990 . S
N1077 C1076 1.314 . S
N1077 C1080 1.279 . S
C1078 C1076 1.353 . S
C1078 C1081 1.348 . S
C1078 H1110 0.929 . S
C1079 C1080 1.358 . S
C1079 C1081 1.356 . S
C1079 H1111 0.930 . S
C1080 N1077 1.279 . S
C1080 C1079 1.358 . S
C1080 H1083 0.930 . S
C1081 C1078 1.348 . S
C1081 C1079 1.356 . S
H1082 C1076 0.930 . S
H1083 C1080 0.930 . S
O1084 Li1024 1.956 . S
O1084 Li1025 1.970 1_455 S
O1084 Li1026 1.961 . S
O1084 C1028 1.325 . S
O1085 Li1024 1.970 1_655 S
O1085 Li1025 1.956 . S
O1085 Li1027 1.961 . S
O1085 C1034 1.325 . S
O1086 Li1024 1.961 . S
O1086 Li1026 1.956 . S
O1086 Li1027 1.970 1_455 S
O1086 C1056 1.325 . S
O1087 Li1025 1.961 . S
O1087 Li1026 1.970 1_655 S
O1087 Li1027 1.956 . S
O1087 C1062 1.325 . S
H1088 C1030 0.929 . S
H1089 C1031 0.930 . S
H1090 C1032 0.930 . S
H1091 C1033 0.930 . S
H1092 C1035 0.930 . S
H1093 C1037 0.929 . S
H1094 C1038 0.930 . S
H1095 C1039 0.930 . S
H1096 C1042 0.930 . S
H1097 C1045 0.929 . S
H1098 C1050 0.929 . S
H1099 C1051 0.930 . S
H1100 C1058 0.929 . S
H1101 C1059 0.930 . S
H1102 C1060 0.930 . S
H1103 C1061 0.930 . S
H1104 C1063 0.929 . S
H1105 C1064 0.930 . S
H1106 C1065 0.930 . S
H1107 C1066 0.930 . S
H1108 C1070 0.929 . S
H1109 C1072 0.930 . S
H1110 C1078 0.929 . S
H1111 C1079 0.930 . S
Li1112 N1129 1.990 . S
Li1112 O1172 1.956 . S
Li1112 O1173 1.970 . S
Li1112 O1174 1.961 . S
Li1113 N1137 1.990 . S
Li1113 O1172 1.970 . S
Li1113 O1173 1.956 . S
Li1113 O1175 1.961 . S
Li1114 N1159 1.990 . S
Li1114 O1172 1.961 . S
Li1114 O1174 1.956 . S
Li1114 O1175 1.970 . S
Li1115 N1165 1.990 . S
Li1115 O1173 1.961 . S
Li1115 O1174 1.970 . S
Li1115 O1175 1.956 . S
C1116 C1118 1.348 . S
C1116 C1119 1.356 . S
C1116 O1172 1.325 . S
N1117 C1120 1.314 . S
N1117 C1121 1.279 . S
C1118 C1116 1.348 . S
C1118 C1120 1.353 . S
C1118 H1176 0.929 . S
C1119 C1116 1.356 . S
C1119 C1121 1.358 . S
C1119 H1177 0.930 . S
C1120 N1117 1.314 . S
C1120 C1118 1.353 . S
C1120 H1178 0.930 . S
C1121 N1117 1.279 . S
C1121 C1119 1.358 . S
C1121 H1179 0.930 . S
C1122 C1125 1.348 . S
C1122 C1126 1.356 . S
C1122 O1173 1.325 . S
C1123 N1124 1.279 . S
C1123 C1126 1.358 . S
C1123 H1180 0.930 . S
N1124 C1123 1.279 . S
N1124 C1127 1.314 . S
C1125 C1122 1.348 . S
C1125 C1127 1.353 . S
C1125 H1181 0.929 . S
C1126 C1122 1.356 . S
C1126 C1123 1.358 . S
C1126 H1182 0.930 . S
C1127 N1124 1.314 . S
C1127 C1125 1.353 . S
C1127 H1183 0.930 . S
C1128 N1129 1.314 . S
C1128 C1133 1.353 . S
C1128 H1134 0.930 . S
N1129 Li1112 1.990 . S
N1129 C1128 1.314 . S
N1129 C1131 1.279 . S
C1130 C1131 1.358 . S
C1130 C1132 1.356 . S
C1130 H1184 0.930 . S
C1131 N1129 1.279 . S
C1131 C1130 1.358 . S
C1131 H1135 0.930 . S
C1132 C1130 1.356 . S
C1132 C1133 1.348 . S
C1133 C1128 1.353 . S
C1133 C1132 1.348 . S
C1133 H1185 0.929 . S
H1134 C1128 0.930 . S
H1135 C1131 0.930 . S
C1136 N1137 1.314 . S
C1136 C1138 1.353 . S
C1136 H1142 0.930 . S
N1137 Li1113 1.990 . S
N1137 C1136 1.314 . S
N1137 C1140 1.279 . S
C1138 C1136 1.353 . S
C1138 C1141 1.348 . S
C1138 H1186 0.929 . S
C1139 C1140 1.358 . S
C1139 C1141 1.356 . S
C1139 H1187 0.930 . S
C1140 N1137 1.279 . S
C1140 C1139 1.358 . S
C1140 H1143 0.930 . S
C1141 C1138 1.348 . S
C1141 C1139 1.356 . S
H1142 C1136 0.930 . S
H1143 C1140 0.930 . S
C1144 C1146 1.348 . S
C1144 C1147 1.356 . S
C1144 O1174 1.325 . S
N1145 C1148 1.314 . S
N1145 C1149 1.279 . S
C1146 C1144 1.348 . S
C1146 C1148 1.353 . S
C1146 H1188 0.929 . S
C1147 C1144 1.356 . S
C1147 C1149 1.358 . S
C1147 H1189 0.930 . S
C1148 N1145 1.314 . S
C1148 C1146 1.353 . S
C1148 H1190 0.930 . S
C1149 N1145 1.279 . S
C1149 C1147 1.358 . S
C1149 H1191 0.930 . S
C1150 C1151 1.348 . S
C1150 C1152 1.356 . S
C1150 O1175 1.325 . S
C1151 C1150 1.348 . S
C1151 C1153 1.353 . S
C1151 H1192 0.929 . S
C1152 C1150 1.356 . S
C1152 C1154 1.358 . S
C1152 H1193 0.930 . S
C1153 C1151 1.353 . S
C1153 N1155 1.314 . S
C1153 H1194 0.930 . S
C1154 C1152 1.358 . S
C1154 N1155 1.279 . S
C1154 H1195 0.930 . S
N1155 C1153 1.314 . S
N1155 C1154 1.279 . S
C1156 C1158 1.353 . S
C1156 N1159 1.314 . S
C1156 H1162 0.930 . S
C1157 N1159 1.279 . S
C1157 C1160 1.358 . S
C1157 H1163 0.930 . S
C1158 C1156 1.353 . S
C1158 C1161 1.348 . S
C1158 H1196 0.929 . S
N1159 Li1114 1.990 . S
N1159 C1156 1.314 . S
N1159 C1157 1.279 . S
C1160 C1157 1.358 . S
C1160 C1161 1.356 . S
C1160 H1197 0.930 . S
C1161 C1158 1.348 . S
C1161 C1160 1.356 . S
H1162 C1156 0.930 . S
H1163 C1157 0.930 . S
C1164 N1165 1.314 . S
C1164 C1166 1.353 . S
C1164 H1170 0.930 . S
N1165 Li1115 1.990 . S
N1165 C1164 1.314 . S
N1165 C1168 1.279 . S
C1166 C1164 1.353 . S
C1166 C1169 1.348 . S
C1166 H1198 0.929 . S
C1167 C1168 1.358 . S
C1167 C1169 1.356 . S
C1167 H1199 0.930 . S
C1168 N1165 1.279 . S
C1168 C1167 1.358 . S
C1168 H1171 0.930 . S
C1169 C1166 1.348 . S
C1169 C1167 1.356 . S
H1170 C1164 0.930 . S
H1171 C1168 0.930 . S
O1172 Li1112 1.956 . S
O1172 Li1113 1.970 . S
O1172 Li1114 1.961 . S
O1172 C1116 1.325 . S
O1173 Li1112 1.970 . S
O1173 Li1113 1.956 . S
O1173 Li1115 1.961 . S
O1173 C1122 1.325 . S
O1174 Li1112 1.961 . S
O1174 Li1114 1.956 . S
O1174 Li1115 1.970 . S
O1174 C1144 1.325 . S
O1175 Li1113 1.961 . S
O1175 Li1114 1.970 . S
O1175 Li1115 1.956 . S
O1175 C1150 1.325 . S
H1176 C1118 0.929 . S
H1177 C1119 0.930 . S
H1178 C1120 0.930 . S
H1179 C1121 0.930 . S
H1180 C1123 0.930 . S
H1181 C1125 0.929 . S
H1182 C1126 0.930 . S
H1183 C1127 0.930 . S
H1184 C1130 0.930 . S
H1185 C1133 0.929 . S
H1186 C1138 0.929 . S
H1187 C1139 0.930 . S
H1188 C1146 0.929 . S
H1189 C1147 0.930 . S
H1190 C1148 0.930 . S
H1191 C1149 0.930 . S
H1192 C1151 0.929 . S
H1193 C1152 0.930 . S
H1194 C1153 0.930 . S
H1195 C1154 0.930 . S
H1196 C1158 0.929 . S
H1197 C1160 0.930 . S
H1198 C1166 0.929 . S
H1199 C1167 0.930 . S
C1200 C1201 1.391 . S
C1200 C1202 1.394 . S
C1200 H1216 0.931 . S
C1201 C1200 1.391 . S
C1201 C1205 1.376 . S
C1202 C1200 1.394 . S
C1202 C1203 1.369 . S
C1202 C1206 1.531 . S
C1203 C1202 1.369 . S
C1203 C1204 1.410 . S
C1203 C1211 1.503 . S
C1204 C1203 1.410 . S
C1204 C1205 1.392 . S
C1204 C1207 1.511 . S
C1205 C1201 1.376 . S
C1205 C1204 1.392 . S
C1205 H1217 0.929 . S
C1206 C1202 1.531 . S
C1206 H1218 0.960 . S
C1206 H1219 0.962 . S
C1206 H1220 0.960 . S
C1207 C1204 1.511 . S
C1207 H1221 0.961 . S
C1207 H1222 0.961 . S
C1207 H1223 0.961 . S
C1208 C1209 1.370 . S
C1208 C1210 1.363 . S
C1208 H1224 0.931 . S
C1209 C1208 1.370 . S
C1209 C1213 1.408 . S
C1210 C1208 1.363 . S
C1210 C1211 1.370 . S
C1210 C1214 1.524 . S
C1211 C1203 1.503 . S
C1211 C1210 1.370 . S
C1211 C1212 1.403 . S
C1212 C1211 1.403 . S
C1212 C1213 1.404 . S
C1212 C1215 1.539 . S
C1213 C1209 1.408 . S
C1213 C1212 1.404 . S
C1213 H1225 0.930 . S
C1214 C1210 1.524 . S
C1214 H1226 0.956 . S
C1214 H1227 0.961 . S
C1214 H1228 0.961 . S
C1215 C1212 1.539 . S
C1215 H1229 0.958 . S
C1215 H1230 0.961 . S
C1215 H1231 0.960 . S
H1216 C1200 0.931 . S
H1217 C1205 0.929 . S
H1218 C1206 0.960 . S
H1219 C1206 0.962 . S
H1220 C1206 0.960 . S
H1221 C1207 0.961 . S
H1222 C1207 0.961 . S
H1223 C1207 0.961 . S
H1224 C1208 0.931 . S
H1225 C1213 0.930 . S
H1226 C1214 0.956 . S
H1227 C1214 0.961 . S
H1228 C1214 0.961 . S
H1229 C1215 0.958 . S
H1230 C1215 0.961 . S
H1231 C1215 0.960 . S
C1232 C1233 1.391 . S
C1232 C1234 1.394 1_655 S
C1232 H1248 0.931 . S
C1233 C1232 1.391 . S
C1233 C1237 1.376 1_655 S
C1234 C1232 1.394 1_455 S
C1234 C1235 1.369 . S
C1234 C1238 1.531 1_455 S
C1235 C1234 1.369 . S
C1235 C1236 1.410 . S
C1235 C1243 1.503 . S
C1236 C1235 1.410 . S
C1236 C1237 1.392 . S
C1236 C1239 1.511 . S
C1237 C1233 1.376 1_455 S
C1237 C1236 1.392 . S
C1237 H1249 0.929 . S
C1238 C1234 1.531 1_655 S
C1238 H1250 0.960 1_655 S
C1238 H1251 0.962 . S
C1238 H1252 0.960 . S
C1239 C1236 1.511 . S
C1239 H1253 0.961 . S
C1239 H1254 0.961 . S
C1239 H1255 0.961 . S
C1240 C1241 1.370 . S
C1240 C1242 1.363 . S
C1240 H1256 0.931 . S
C1241 C1240 1.370 . S
C1241 C1245 1.408 . S
C1242 C1240 1.363 . S
C1242 C1243 1.370 . S
C1242 C1246 1.524 . S
C1243 C1235 1.503 . S
C1243 C1242 1.370 . S
C1243 C1244 1.403 . S
C1244 C1243 1.403 . S
C1244 C1245 1.404 . S
C1244 C1247 1.539 . S
C1245 C1241 1.408 . S
C1245 C1244 1.404 . S
C1245 H1257 0.930 . S
C1246 C1242 1.524 . S
C1246 H1258 0.956 . S
C1246 H1259 0.961 . S
C1246 H1260 0.961 . S
C1247 C1244 1.539 . S
C1247 H1261 0.958 . S
C1247 H1262 0.961 . S
C1247 H1263 0.960 . S
H1248 C1232 0.931 . S
H1249 C1237 0.929 . S
H1250 C1238 0.960 1_455 S
H1251 C1238 0.962 . S
H1252 C1238 0.960 . S
H1253 C1239 0.961 . S
H1254 C1239 0.961 . S
H1255 C1239 0.961 . S
H1256 C1240 0.931 . S
H1257 C1245 0.930 . S
H1258 C1246 0.956 . S
H1259 C1246 0.961 . S
H1260 C1246 0.961 . S
H1261 C1247 0.958 . S
H1262 C1247 0.961 . S
H1263 C1247 0.960 . S
C1264 C1265 1.391 . S
C1264 C1266 1.394 . S
C1264 H1280 0.931 . S
C1265 C1264 1.391 . S
C1265 C1269 1.376 . S
C1266 C1264 1.394 . S
C1266 C1267 1.369 . S
C1266 C1270 1.531 . S
C1267 C1266 1.369 . S
C1267 C1268 1.410 . S
C1267 C1275 1.503 . S
C1268 C1267 1.410 . S
C1268 C1269 1.392 . S
C1268 C1271 1.511 . S
C1269 C1265 1.376 . S
C1269 C1268 1.392 . S
C1269 H1281 0.929 . S
C1270 C1266 1.531 . S
C1270 H1282 0.960 . S
C1270 H1283 0.962 . S
C1270 H1284 0.960 . S
C1271 C1268 1.511 . S
C1271 H1285 0.961 . S
C1271 H1286 0.961 . S
C1271 H1287 0.961 . S
C1272 C1273 1.370 . S
C1272 C1274 1.363 . S
C1272 H1288 0.931 . S
C1273 C1272 1.370 . S
C1273 C1277 1.408 . S
C1274 C1272 1.363 . S
C1274 C1275 1.370 . S
C1274 C1278 1.524 . S
C1275 C1267 1.503 . S
C1275 C1274 1.370 . S
C1275 C1276 1.403 . S
C1276 C1275 1.403 . S
C1276 C1277 1.404 . S
C1276 C1279 1.539 . S
C1277 C1273 1.408 . S
C1277 C1276 1.404 . S
C1277 H1289 0.930 . S
C1278 C1274 1.524 . S
C1278 H1290 0.956 . S
C1278 H1291 0.961 . S
C1278 H1292 0.961 . S
C1279 C1276 1.539 . S
C1279 H1293 0.958 . S
C1279 H1294 0.961 . S
C1279 H1295 0.960 . S
H1280 C1264 0.931 . S
H1281 C1269 0.929 . S
H1282 C1270 0.960 . S
H1283 C1270 0.962 . S
H1284 C1270 0.960 . S
H1285 C1271 0.961 . S
H1286 C1271 0.961 . S
H1287 C1271 0.961 . S
H1288 C1272 0.931 . S
H1289 C1277 0.930 . S
H1290 C1278 0.956 . S
H1291 C1278 0.961 . S
H1292 C1278 0.961 . S
H1293 C1279 0.958 . S
H1294 C1279 0.961 . S
H1295 C1279 0.960 . S
C1296 C1297 1.391 . S
C1296 C1298 1.394 1_455 S
C1296 H1312 0.931 . S
C1297 C1296 1.391 . S
C1297 C1301 1.376 1_455 S
C1298 C1296 1.394 1_655 S
C1298 C1299 1.369 . S
C1298 C1302 1.531 1_655 S
C1299 C1298 1.369 . S
C1299 C1300 1.410 . S
C1299 C1307 1.503 . S
C1300 C1299 1.410 . S
C1300 C1301 1.392 . S
C1300 C1303 1.512 . S
C1301 C1297 1.376 1_655 S
C1301 C1300 1.392 . S
C1301 H1313 0.929 . S
C1302 C1298 1.531 1_455 S
C1302 H1314 0.960 1_455 S
C1302 H1315 0.962 . S
C1302 H1316 0.960 . S
C1303 C1300 1.512 . S
C1303 H1317 0.959 1_565 S
C1303 H1318 0.961 1_565 S
C1303 H1319 0.961 . S
C1304 C1305 1.370 . S
C1304 C1306 1.363 . S
C1304 H1320 0.931 1_565 S
C1305 C1304 1.370 . S
C1305 C1309 1.408 . S
C1306 C1304 1.363 . S
C1306 C1307 1.370 . S
C1306 C1310 1.524 1_565 S
C1307 C1299 1.503 . S
C1307 C1306 1.370 . S
C1307 C1308 1.403 . S
C1308 C1307 1.403 . S
C1308 C1309 1.404 . S
C1308 C1311 1.539 . S
C1309 C1305 1.408 . S
C1309 C1308 1.404 . S
C1309 H1321 0.930 . S
C1310 C1306 1.524 1_545 S
C1310 H1322 0.956 1_655 S
C1310 H1323 0.961 . S
C1310 H1324 0.961 . S
C1311 C1308 1.539 . S
C1311 H1325 0.958 . S
C1311 H1326 0.961 . S
C1311 H1327 0.960 . S
H1312 C1296 0.931 . S
H1313 C1301 0.929 . S
H1314 C1302 0.960 1_655 S
H1315 C1302 0.962 . S
H1316 C1302 0.960 . S
H1317 C1303 0.959 1_545 S
H1318 C1303 0.961 1_545 S
H1319 C1303 0.961 . S
H1320 C1304 0.931 1_545 S
H1321 C1309 0.930 . S
H1322 C1310 0.956 1_455 S
H1323 C1310 0.961 . S
H1324 C1310 0.961 . S
H1325 C1311 0.958 . S
H1326 C1311 0.961 . S
H1327 C1311 0.960 . S
C1328 C1329 1.391 . S
C1328 C1330 1.394 . S
C1328 H1344 0.931 . S
C1329 C1328 1.391 . S
C1329 C1333 1.376 . S
C1330 C1328 1.394 . S
C1330 C1331 1.369 . S
C1330 C1334 1.531 . S
C1331 C1330 1.369 . S
C1331 C1332 1.410 . S
C1331 C1339 1.503 . S
C1332 C1331 1.410 . S
C1332 C1333 1.392 . S
C1332 C1335 1.511 . S
C1333 C1329 1.376 . S
C1333 C1332 1.392 . S
C1333 H1345 0.929 . S
C1334 C1330 1.531 . S
C1334 H1346 0.960 . S
C1334 H1347 0.962 . S
C1334 H1348 0.960 . S
C1335 C1332 1.511 . S
C1335 H1349 0.961 . S
C1335 H1350 0.961 . S
C1335 H1351 0.961 . S
C1336 C1337 1.370 . S
C1336 C1338 1.363 . S
C1336 H1352 0.931 . S
C1337 C1336 1.370 . S
C1337 C1341 1.408 . S
C1338 C1336 1.363 . S
C1338 C1339 1.370 . S
C1338 C1342 1.524 . S
C1339 C1331 1.503 . S
C1339 C1338 1.370 . S
C1339 C1340 1.403 . S
C1340 C1339 1.403 . S
C1340 C1341 1.404 . S
C1340 C1343 1.539 . S
C1341 C1337 1.408 . S
C1341 C1340 1.404 . S
C1341 H1353 0.930 . S
C1342 C1338 1.524 . S
C1342 H1354 0.956 . S
C1342 H1355 0.961 . S
C1342 H1356 0.961 . S
C1343 C1340 1.539 . S
C1343 H1357 0.958 . S
C1343 H1358 0.961 . S
C1343 H1359 0.960 . S
H1344 C1328 0.931 . S
H1345 C1333 0.929 . S
H1346 C1334 0.960 . S
H1347 C1334 0.962 . S
H1348 C1334 0.960 . S
H1349 C1335 0.961 . S
H1350 C1335 0.961 . S
H1351 C1335 0.961 . S
H1352 C1336 0.931 . S
H1353 C1341 0.930 . S
H1354 C1342 0.956 . S
H1355 C1342 0.961 . S
H1356 C1342 0.961 . S
H1357 C1343 0.958 . S
H1358 C1343 0.961 . S
H1359 C1343 0.960 . S
C1360 C1361 1.391 . S
C1360 C1362 1.394 . S
C1360 H1376 0.931 . S
C1361 C1360 1.391 . S
C1361 C1365 1.376 . S
C1362 C1360 1.394 . S
C1362 C1363 1.369 . S
C1362 C1366 1.531 . S
C1363 C1362 1.369 . S
C1363 C1364 1.410 . S
C1363 C1371 1.503 . S
C1364 C1363 1.410 . S
C1364 C1365 1.392 . S
C1364 C1367 1.511 . S
C1365 C1361 1.376 . S
C1365 C1364 1.392 . S
C1365 H1377 0.929 . S
C1366 C1362 1.531 . S
C1366 H1378 0.960 . S
C1366 H1379 0.962 . S
C1366 H1380 0.960 . S
C1367 C1364 1.511 . S
C1367 H1381 0.961 . S
C1367 H1382 0.961 . S
C1367 H1383 0.961 . S
C1368 C1369 1.370 . S
C1368 C1370 1.363 . S
C1368 H1384 0.931 . S
C1369 C1368 1.370 . S
C1369 C1373 1.408 . S
C1370 C1368 1.363 . S
C1370 C1371 1.370 . S
C1370 C1374 1.524 . S
C1371 C1363 1.503 . S
C1371 C1370 1.370 . S
C1371 C1372 1.403 . S
C1372 C1371 1.403 . S
C1372 C1373 1.404 . S
C1372 C1375 1.539 . S
C1373 C1369 1.408 . S
C1373 C1372 1.404 . S
C1373 H1385 0.930 . S
C1374 C1370 1.524 . S
C1374 H1386 0.956 . S
C1374 H1387 0.961 . S
C1374 H1388 0.961 . S
C1375 C1372 1.539 . S
C1375 H1389 0.958 . S
C1375 H1390 0.961 . S
C1375 H1391 0.960 . S
H1376 C1360 0.931 . S
H1377 C1365 0.929 . S
H1378 C1366 0.960 . S
H1379 C1366 0.962 . S
H1380 C1366 0.960 . S
H1381 C1367 0.961 . S
H1382 C1367 0.961 . S
H1383 C1367 0.961 . S
H1384 C1368 0.931 . S
H1385 C1373 0.930 . S
H1386 C1374 0.956 . S
H1387 C1374 0.961 . S
H1388 C1374 0.961 . S
H1389 C1375 0.958 . S
H1390 C1375 0.961 . S
H1391 C1375 0.960 . S
C1392 C1393 1.391 . S
C1392 C1394 1.394 . S
C1392 H1408 0.931 . S
C1393 C1392 1.391 . S
C1393 C1397 1.376 . S
C1394 C1392 1.394 . S
C1394 C1395 1.369 . S
C1394 C1398 1.531 . S
C1395 C1394 1.369 . S
C1395 C1396 1.410 . S
C1395 C1403 1.503 . S
C1396 C1395 1.410 . S
C1396 C1397 1.392 . S
C1396 C1399 1.511 . S
C1397 C1393 1.376 . S
C1397 C1396 1.392 . S
C1397 H1409 0.929 . S
C1398 C1394 1.531 . S
C1398 H1410 0.960 . S
C1398 H1411 0.962 . S
C1398 H1412 0.960 . S
C1399 C1396 1.511 . S
C1399 H1413 0.961 . S
C1399 H1414 0.961 . S
C1399 H1415 0.961 . S
C1400 C1401 1.370 . S
C1400 C1402 1.363 . S
C1400 H1416 0.931 . S
C1401 C1400 1.370 . S
C1401 C1405 1.408 . S
C1402 C1400 1.363 . S
C1402 C1403 1.370 . S
C1402 C1406 1.524 . S
C1403 C1395 1.503 . S
C1403 C1402 1.370 . S
C1403 C1404 1.403 . S
C1404 C1403 1.403 . S
C1404 C1405 1.404 . S
C1404 C1407 1.539 . S
C1405 C1401 1.408 . S
C1405 C1404 1.404 . S
C1405 H1417 0.930 . S
C1406 C1402 1.524 . S
C1406 H1418 0.956 . S
C1406 H1419 0.961 . S
C1406 H1420 0.961 . S
C1407 C1404 1.539 . S
C1407 H1421 0.958 . S
C1407 H1422 0.961 . S
C1407 H1423 0.960 . S
H1408 C1392 0.931 . S
H1409 C1397 0.929 . S
H1410 C1398 0.960 . S
H1411 C1398 0.962 . S
H1412 C1398 0.960 . S
H1413 C1399 0.961 . S
H1414 C1399 0.961 . S
H1415 C1399 0.961 . S
H1416 C1400 0.931 . S
H1417 C1405 0.930 . S
H1418 C1406 0.956 . S
H1419 C1406 0.961 . S
H1420 C1406 0.961 . S
H1421 C1407 0.958 . S
H1422 C1407 0.961 . S
H1423 C1407 0.960 . S
C1424 C1425 1.391 . S
C1424 C1426 1.394 . S
C1424 H1440 0.931 . S
C1425 C1424 1.391 . S
C1425 C1429 1.376 . S
C1426 C1424 1.394 . S
C1426 C1427 1.369 . S
C1426 C1430 1.531 . S
C1427 C1426 1.369 . S
C1427 C1428 1.410 . S
C1427 C1435 1.503 . S
C1428 C1427 1.410 . S
C1428 C1429 1.392 . S
C1428 C1431 1.511 . S
C1429 C1425 1.376 . S
C1429 C1428 1.392 . S
C1429 H1441 0.929 . S
C1430 C1426 1.531 . S
C1430 H1442 0.960 . S
C1430 H1443 0.962 . S
C1430 H1444 0.960 . S
C1431 C1428 1.511 . S
C1431 H1445 0.961 1_565 S
C1431 H1446 0.964 . S
C1431 H1447 0.961 . S
C1432 C1433 1.370 . S
C1432 C1434 1.363 . S
C1432 H1448 0.931 1_565 S
C1433 C1432 1.370 . S
C1433 C1437 1.408 . S
C1434 C1432 1.363 . S
C1434 C1435 1.370 . S
C1434 C1438 1.524 1_565 S
C1435 C1427 1.503 . S
C1435 C1434 1.370 . S
C1435 C1436 1.403 . S
C1436 C1435 1.403 . S
C1436 C1437 1.404 . S
C1436 C1439 1.539 . S
C1437 C1433 1.408 . S
C1437 C1436 1.404 . S
C1437 H1449 0.930 . S
C1438 C1434 1.524 1_545 S
C1438 H1450 0.956 . S
C1438 H1451 0.961 . S
C1438 H1452 0.961 . S
C1439 C1436 1.539 . S
C1439 H1453 0.958 . S
C1439 H1454 0.961 . S
C1439 H1455 0.960 . S
H1440 C1424 0.931 . S
H1441 C1429 0.929 . S
H1442 C1430 0.960 . S
H1443 C1430 0.962 . S
H1444 C1430 0.960 . S
H1445 C1431 0.961 1_545 S
H1446 C1431 0.964 . S
H1447 C1431 0.961 . S
H1448 C1432 0.931 1_545 S
H1449 C1437 0.930 . S
H1450 C1438 0.956 . S
H1451 C1438 0.961 . S
H1452 C1438 0.961 . S
H1453 C1439 0.958 . S
H1454 C1439 0.961 . S
H1455 C1439 0.960 . S
C1456 C1457 1.391 . S
C1456 C1458 1.394 . S
C1456 H1472 0.931 . S
C1457 C1456 1.391 . S
C1457 C1461 1.376 . S
C1458 C1456 1.394 . S
C1458 C1459 1.369 . S
C1458 C1462 1.531 . S
C1459 C1458 1.369 . S
C1459 C1460 1.410 . S
C1459 C1467 1.503 . S
C1460 C1459 1.410 . S
C1460 C1461 1.392 . S
C1460 C1463 1.511 . S
C1461 C1457 1.376 . S
C1461 C1460 1.392 . S
C1461 H1473 0.929 . S
C1462 C1458 1.531 . S
C1462 H1474 0.960 . S
C1462 H1475 0.962 . S
C1462 H1476 0.960 . S
C1463 C1460 1.511 . S
C1463 H1477 0.961 . S
C1463 H1478 0.961 . S
C1463 H1479 0.961 . S
C1464 C1465 1.370 . S
C1464 C1466 1.363 . S
C1464 H1480 0.931 . S
C1465 C1464 1.370 . S
C1465 C1469 1.408 . S
C1466 C1464 1.363 . S
C1466 C1467 1.370 . S
C1466 C1470 1.524 . S
C1467 C1459 1.503 . S
C1467 C1466 1.370 . S
C1467 C1468 1.403 . S
C1468 C1467 1.403 . S
C1468 C1469 1.404 . S
C1468 C1471 1.539 . S
C1469 C1465 1.408 . S
C1469 C1468 1.404 . S
C1469 H1481 0.930 . S
C1470 C1466 1.524 . S
C1470 H1482 0.956 . S
C1470 H1483 0.961 . S
C1470 H1484 0.961 . S
C1471 C1468 1.539 . S
C1471 H1485 0.958 . S
C1471 H1486 0.961 . S
C1471 H1487 0.960 . S
H1472 C1456 0.931 . S
H1473 C1461 0.929 . S
H1474 C1462 0.960 . S
H1475 C1462 0.962 . S
H1476 C1462 0.960 . S
H1477 C1463 0.961 . S
H1478 C1463 0.961 . S
H1479 C1463 0.961 . S
H1480 C1464 0.931 . S
H1481 C1469 0.930 . S
H1482 C1470 0.956 . S
H1483 C1470 0.961 . S
H1484 C1470 0.961 . S
H1485 C1471 0.958 . S
H1486 C1471 0.961 . S
H1487 C1471 0.960 . S
C1488 C1489 1.391 . S
C1488 C1490 1.394 . S
C1488 H1504 0.931 . S
C1489 C1488 1.391 . S
C1489 C1493 1.376 . S
C1490 C1488 1.394 . S
C1490 C1491 1.369 . S
C1490 C1494 1.531 . S
C1491 C1490 1.369 . S
C1491 C1492 1.410 . S
C1491 C1499 1.503 . S
C1492 C1491 1.410 . S
C1492 C1493 1.392 . S
C1492 C1495 1.511 . S
C1493 C1489 1.376 . S
C1493 C1492 1.392 . S
C1493 H1505 0.929 . S
C1494 C1490 1.531 . S
C1494 H1506 0.960 . S
C1494 H1507 0.962 . S
C1494 H1508 0.960 . S
C1495 C1492 1.511 . S
C1495 H1509 0.961 . S
C1495 H1510 0.961 . S
C1495 H1511 0.961 . S
C1496 C1497 1.370 . S
C1496 C1498 1.363 . S
C1496 H1512 0.931 . S
C1497 C1496 1.370 . S
C1497 C1501 1.408 . S
C1498 C1496 1.363 . S
C1498 C1499 1.370 . S
C1498 C1502 1.524 . S
C1499 C1491 1.503 . S
C1499 C1498 1.370 . S
C1499 C1500 1.403 . S
C1500 C1499 1.403 . S
C1500 C1501 1.404 . S
C1500 C1503 1.539 . S
C1501 C1497 1.408 . S
C1501 C1500 1.404 . S
C1501 H1513 0.930 . S
C1502 C1498 1.524 . S
C1502 H1514 0.956 . S
C1502 H1515 0.961 . S
C1502 H1516 0.961 . S
C1503 C1500 1.539 . S
C1503 H1517 0.958 . S
C1503 H1518 0.961 . S
C1503 H1519 0.960 . S
H1504 C1488 0.931 . S
H1505 C1493 0.929 . S
H1506 C1494 0.960 . S
H1507 C1494 0.962 . S
H1508 C1494 0.960 . S
H1509 C1495 0.961 . S
H1510 C1495 0.961 . S
H1511 C1495 0.961 . S
H1512 C1496 0.931 . S
H1513 C1501 0.930 . S
H1514 C1502 0.956 . S
H1515 C1502 0.961 . S
H1516 C1502 0.961 . S
H1517 C1503 0.958 . S
H1518 C1503 0.961 . S
H1519 C1503 0.960 . S
C1520 C1521 1.391 . S
C1520 C1522 1.394 . S
C1520 H1536 0.931 . S
C1521 C1520 1.391 . S
C1521 C1525 1.376 . S
C1522 C1520 1.394 . S
C1522 C1523 1.369 . S
C1522 C1526 1.531 . S
C1523 C1522 1.369 . S
C1523 C1524 1.410 . S
C1523 C1531 1.503 . S
C1524 C1523 1.410 . S
C1524 C1525 1.392 . S
C1524 C1527 1.511 . S
C1525 C1521 1.376 . S
C1525 C1524 1.392 . S
C1525 H1537 0.929 . S
C1526 C1522 1.531 . S
C1526 H1538 0.960 . S
C1526 H1539 0.962 . S
C1526 H1540 0.960 . S
C1527 C1524 1.511 . S
C1527 H1541 0.961 . S
C1527 H1542 0.961 . S
C1527 H1543 0.961 . S
C1528 C1529 1.370 . S
C1528 C1530 1.363 . S
C1528 H1544 0.931 . S
C1529 C1528 1.370 . S
C1529 C1533 1.408 . S
C1530 C1528 1.363 . S
C1530 C1531 1.370 . S
C1530 C1534 1.524 . S
C1531 C1523 1.503 . S
C1531 C1530 1.370 . S
C1531 C1532 1.403 . S
C1532 C1531 1.403 . S
C1532 C1533 1.404 . S
C1532 C1535 1.539 . S
C1533 C1529 1.408 . S
C1533 C1532 1.404 . S
C1533 H1545 0.930 . S
C1534 C1530 1.524 . S
C1534 H1546 0.956 . S
C1534 H1547 0.961 . S
C1534 H1548 0.961 . S
C1535 C1532 1.539 . S
C1535 H1549 0.958 . S
C1535 H1550 0.961 . S
C1535 H1551 0.960 . S
H1536 C1520 0.931 . S
H1537 C1525 0.929 . S
H1538 C1526 0.960 . S
H1539 C1526 0.962 . S
H1540 C1526 0.960 . S
H1541 C1527 0.961 . S
H1542 C1527 0.961 . S
H1543 C1527 0.961 . S
H1544 C1528 0.931 . S
H1545 C1533 0.930 . S
H1546 C1534 0.956 . S
H1547 C1534 0.961 . S
H1548 C1534 0.961 . S
H1549 C1535 0.958 . S
H1550 C1535 0.961 . S
H1551 C1535 0.960 . S
C1552 C1553 1.391 . S
C1552 C1554 1.394 . S
C1552 H1568 0.931 . S
C1553 C1552 1.391 . S
C1553 C1557 1.376 . S
C1554 C1552 1.394 . S
C1554 C1555 1.369 . S
C1554 C1558 1.531 . S
C1555 C1554 1.369 . S
C1555 C1556 1.410 . S
C1555 C1563 1.503 . S
C1556 C1555 1.410 . S
C1556 C1557 1.392 . S
C1556 C1559 1.511 . S
C1557 C1553 1.376 . S
C1557 C1556 1.392 . S
C1557 H1569 0.929 . S
C1558 C1554 1.531 . S
C1558 H1570 0.960 . S
C1558 H1571 0.962 . S
C1558 H1572 0.960 . S
C1559 C1556 1.511 . S
C1559 H1573 0.961 . S
C1559 H1574 0.961 . S
C1559 H1575 0.961 . S
C1560 C1561 1.370 . S
C1560 C1562 1.363 . S
C1560 H1576 0.931 . S
C1561 C1560 1.370 . S
C1561 C1565 1.408 . S
C1562 C1560 1.363 . S
C1562 C1563 1.370 . S
C1562 C1566 1.524 . S
C1563 C1555 1.503 . S
C1563 C1562 1.370 . S
C1563 C1564 1.403 . S
C1564 C1563 1.403 . S
C1564 C1565 1.404 . S
C1564 C1567 1.539 . S
C1565 C1561 1.408 . S
C1565 C1564 1.404 . S
C1565 H1577 0.930 . S
C1566 C1562 1.524 . S
C1566 H1578 0.956 . S
C1566 H1579 0.961 . S
C1566 H1580 0.961 . S
C1567 C1564 1.539 . S
C1567 H1581 0.958 . S
C1567 H1582 0.961 . S
C1567 H1583 0.960 . S
H1568 C1552 0.931 . S
H1569 C1557 0.929 . S
H1570 C1558 0.960 . S
H1571 C1558 0.962 . S
H1572 C1558 0.960 . S
H1573 C1559 0.961 . S
H1574 C1559 0.961 . S
H1575 C1559 0.961 . S
H1576 C1560 0.931 . S
H1577 C1565 0.930 . S
H1578 C1566 0.956 . S
H1579 C1566 0.961 . S
H1580 C1566 0.961 . S
H1581 C1567 0.958 . S
H1582 C1567 0.961 . S
H1583 C1567 0.960 . S
C1584 C1585 1.391 . S
C1584 C1586 1.394 . S
C1584 H1600 0.931 . S
C1585 C1584 1.391 . S
C1585 C1589 1.376 . S
C1586 C1584 1.394 . S
C1586 C1587 1.369 . S
C1586 C1590 1.531 . S
C1587 C1586 1.369 . S
C1587 C1588 1.410 . S
C1587 C1595 1.503 . S
C1588 C1587 1.410 . S
C1588 C1589 1.392 . S
C1588 C1591 1.511 . S
C1589 C1585 1.376 . S
C1589 C1588 1.392 . S
C1589 H1601 0.929 . S
C1590 C1586 1.531 . S
C1590 H1602 0.960 . S
C1590 H1603 0.962 . S
C1590 H1604 0.960 . S
C1591 C1588 1.511 . S
C1591 H1605 0.961 . S
C1591 H1606 0.961 . S
C1591 H1607 0.961 . S
C1592 C1593 1.370 . S
C1592 C1594 1.363 . S
C1592 H1608 0.931 . S
C1593 C1592 1.370 . S
C1593 C1597 1.408 . S
C1594 C1592 1.363 . S
C1594 C1595 1.370 . S
C1594 C1598 1.524 . S
C1595 C1587 1.503 . S
C1595 C1594 1.370 . S
C1595 C1596 1.403 . S
C1596 C1595 1.403 . S
C1596 C1597 1.404 . S
C1596 C1599 1.539 . S
C1597 C1593 1.408 . S
C1597 C1596 1.404 . S
C1597 H1609 0.930 . S
C1598 C1594 1.524 . S
C1598 H1610 0.956 . S
C1598 H1611 0.961 . S
C1598 H1612 0.961 . S
C1599 C1596 1.539 . S
C1599 H1613 0.958 . S
C1599 H1614 0.961 . S
C1599 H1615 0.960 . S
H1600 C1584 0.931 . S
H1601 C1589 0.929 . S
H1602 C1590 0.960 . S
H1603 C1590 0.962 . S
H1604 C1590 0.960 . S
H1605 C1591 0.961 . S
H1606 C1591 0.961 . S
H1607 C1591 0.961 . S
H1608 C1592 0.931 . S
H1609 C1597 0.930 . S
H1610 C1598 0.956 . S
H1611 C1598 0.961 . S
H1612 C1598 0.961 . S
H1613 C1599 0.958 . S
H1614 C1599 0.961 . S
H1615 C1599 0.960 . S
C1616 C1617 1.391 . S
C1616 C1618 1.394 . S
C1616 H1632 0.931 . S
C1617 C1616 1.391 . S
C1617 C1621 1.376 . S
C1618 C1616 1.394 . S
C1618 C1619 1.369 . S
C1618 C1622 1.531 . S
C1619 C1618 1.369 . S
C1619 C1620 1.410 . S
C1619 C1627 1.503 . S
C1620 C1619 1.410 . S
C1620 C1621 1.392 . S
C1620 C1623 1.511 1_455 S
C1621 C1617 1.376 . S
C1621 C1620 1.392 . S
C1621 H1633 0.929 1_455 S
C1622 C1618 1.531 . S
C1622 H1634 0.960 . S
C1622 H1635 0.962 . S
C1622 H1636 0.960 . S
C1623 C1620 1.511 1_655 S
C1623 H1637 0.961 . S
C1623 H1638 0.961 . S
C1623 H1639 0.961 . S
C1624 C1625 1.370 . S
C1624 C1626 1.363 . S
C1624 H1640 0.931 . S
C1625 C1624 1.370 . S
C1625 C1629 1.408 . S
C1626 C1624 1.363 . S
C1626 C1627 1.370 . S
C1626 C1630 1.524 . S
C1627 C1619 1.503 . S
C1627 C1626 1.370 . S
C1627 C1628 1.403 . S
C1628 C1627 1.403 . S
C1628 C1629 1.404 . S
C1628 C1631 1.539 1_455 S
C1629 C1625 1.408 . S
C1629 C1628 1.404 . S
C1629 H1641 0.921 1_455 S
C1630 C1626 1.524 . S
C1630 H1642 0.956 . S
C1630 H1643 0.961 . S
C1630 H1644 0.961 . S
C1631 C1628 1.539 1_655 S
C1631 H1645 0.958 1_655 S
C1631 H1646 0.961 . S
C1631 H1647 0.960 . S
H1632 C1616 0.931 . S
H1633 C1621 0.929 1_655 S
H1634 C1622 0.960 . S
H1635 C1622 0.962 . S
H1636 C1622 0.960 . S
H1637 C1623 0.961 . S
H1638 C1623 0.961 . S
H1639 C1623 0.961 . S
H1640 C1624 0.931 . S
H1641 C1629 0.921 1_655 S
H1642 C1630 0.956 . S
H1643 C1630 0.961 . S
H1644 C1630 0.961 . S
H1645 C1631 0.958 1_455 S
H1646 C1631 0.961 . S
H1647 C1631 0.960 . S
C1648 C1649 1.391 . S
C1648 C1650 1.394 . S
C1648 H1664 0.931 . S
C1649 C1648 1.391 . S
C1649 C1653 1.376 . S
C1650 C1648 1.394 . S
C1650 C1651 1.369 . S
C1650 C1654 1.531 . S
C1651 C1650 1.369 . S
C1651 C1652 1.410 . S
C1651 C1659 1.503 . S
C1652 C1651 1.410 . S
C1652 C1653 1.392 . S
C1652 C1655 1.511 . S
C1653 C1649 1.376 . S
C1653 C1652 1.392 . S
C1653 H1665 0.929 . S
C1654 C1650 1.531 . S
C1654 H1666 0.960 . S
C1654 H1667 0.962 . S
C1654 H1668 0.960 . S
C1655 C1652 1.511 . S
C1655 H1669 0.961 . S
C1655 H1670 0.961 . S
C1655 H1671 0.961 . S
C1656 C1657 1.370 . S
C1656 C1658 1.363 . S
C1656 H1672 0.931 . S
C1657 C1656 1.370 . S
C1657 C1661 1.408 . S
C1658 C1656 1.363 . S
C1658 C1659 1.370 . S
C1658 C1662 1.524 . S
C1659 C1651 1.503 . S
C1659 C1658 1.370 . S
C1659 C1660 1.403 . S
C1660 C1659 1.403 . S
C1660 C1661 1.404 . S
C1660 C1663 1.539 . S
C1661 C1657 1.408 . S
C1661 C1660 1.404 . S
C1661 H1673 0.930 . S
C1662 C1658 1.524 . S
C1662 H1674 0.956 . S
C1662 H1675 0.961 . S
C1662 H1676 0.961 . S
C1663 C1660 1.539 . S
C1663 H1677 0.958 . S
C1663 H1678 0.961 . S
C1663 H1679 0.960 . S
H1664 C1648 0.931 . S
H1665 C1653 0.929 . S
H1666 C1654 0.960 . S
H1667 C1654 0.962 . S
H1668 C1654 0.960 . S
H1669 C1655 0.961 . S
H1670 C1655 0.961 . S
H1671 C1655 0.961 . S
H1672 C1656 0.931 . S
H1673 C1661 0.930 . S
H1674 C1662 0.956 . S
H1675 C1662 0.961 . S
H1676 C1662 0.961 . S
H1677 C1663 0.958 . S
H1678 C1663 0.961 . S
H1679 C1663 0.960 . S
C1680 C1681 1.391 . S
C1680 C1682 1.394 . S
C1680 H1696 0.931 . S
C1681 C1680 1.391 . S
C1681 C1685 1.376 . S
C1682 C1680 1.394 . S
C1682 C1683 1.369 . S
C1682 C1686 1.531 . S
C1683 C1682 1.369 . S
C1683 C1684 1.410 . S
C1683 C1691 1.503 . S
C1684 C1683 1.410 . S
C1684 C1685 1.392 . S
C1684 C1687 1.511 1_655 S
C1685 C1681 1.376 . S
C1685 C1684 1.392 . S
C1685 H1697 0.931 . S
C1686 C1682 1.531 . S
C1686 H1698 0.960 . S
C1686 H1699 0.962 . S
C1686 H1700 0.960 . S
C1687 C1684 1.511 1_455 S
C1687 H1701 0.961 . S
C1687 H1702 0.961 . S
C1687 H1703 0.961 . S
C1688 C1689 1.370 . S
C1688 C1690 1.363 . S
C1688 H1704 0.931 . S
C1689 C1688 1.370 . S
C1689 C1693 1.408 . S
C1690 C1688 1.363 . S
C1690 C1691 1.370 . S
C1690 C1694 1.524 . S
C1691 C1683 1.503 . S
C1691 C1690 1.370 . S
C1691 C1692 1.403 . S
C1692 C1691 1.403 . S
C1692 C1693 1.404 . S
C1692 C1695 1.539 1_655 S
C1693 C1689 1.408 . S
C1693 C1692 1.404 . S
C1693 H1705 0.930 1_655 S
C1694 C1690 1.524 . S
C1694 H1706 0.956 . S
C1694 H1707 0.961 . S
C1694 H1708 0.961 . S
C1695 C1692 1.539 1_455 S
C1695 H1709 0.958 . S
C1695 H1710 0.961 . S
C1695 H1711 0.960 . S
H1696 C1680 0.931 . S
H1697 C1685 0.931 . S
H1698 C1686 0.960 . S
H1699 C1686 0.962 . S
H1700 C1686 0.960 . S
H1701 C1687 0.961 . S
H1702 C1687 0.961 . S
H1703 C1687 0.961 . S
H1704 C1688 0.931 . S
H1705 C1693 0.930 1_455 S
H1706 C1694 0.956 . S
H1707 C1694 0.961 . S
H1708 C1694 0.961 . S
H1709 C1695 0.958 . S
H1710 C1695 0.961 . S
H1711 C1695 0.960 . S
C1712 C1713 1.391 . S
C1712 C1714 1.394 . S
C1712 H1728 0.931 . S
C1713 C1712 1.391 . S
C1713 C1717 1.376 . S
C1714 C1712 1.394 . S
C1714 C1715 1.369 . S
C1714 C1718 1.531 . S
C1715 C1714 1.369 . S
C1715 C1716 1.410 . S
C1715 C1723 1.503 . S
C1716 C1715 1.410 . S
C1716 C1717 1.392 . S
C1716 C1719 1.511 . S
C1717 C1713 1.376 . S
C1717 C1716 1.392 . S
C1717 H1729 0.929 . S
C1718 C1714 1.531 . S
C1718 H1730 0.960 . S
C1718 H1731 0.962 . S
C1718 H1732 0.960 . S
C1719 C1716 1.511 . S
C1719 H1733 0.961 . S
C1719 H1734 0.961 . S
C1719 H1735 0.961 . S
C1720 C1721 1.370 . S
C1720 C1722 1.363 . S
C1720 H1736 0.931 . S
C1721 C1720 1.370 . S
C1721 C1725 1.408 . S
C1722 C1720 1.363 . S
C1722 C1723 1.370 . S
C1722 C1726 1.524 . S
C1723 C1715 1.503 . S
C1723 C1722 1.370 . S
C1723 C1724 1.403 . S
C1724 C1723 1.403 . S
C1724 C1725 1.404 . S
C1724 C1727 1.539 . S
C1725 C1721 1.408 . S
C1725 C1724 1.404 . S
C1725 H1737 0.930 . S
C1726 C1722 1.524 . S
C1726 H1738 0.956 . S
C1726 H1739 0.961 . S
C1726 H1740 0.961 . S
C1727 C1724 1.539 . S
C1727 H1741 0.958 . S
C1727 H1742 0.961 . S
C1727 H1743 0.960 . S
H1728 C1712 0.931 . S
H1729 C1717 0.929 . S
H1730 C1718 0.960 . S
H1731 C1718 0.962 . S
H1732 C1718 0.960 . S
H1733 C1719 0.961 . S
H1734 C1719 0.961 . S
H1735 C1719 0.961 . S
H1736 C1720 0.931 . S
H1737 C1725 0.930 . S
H1738 C1726 0.956 . S
H1739 C1726 0.961 . S
H1740 C1726 0.961 . S
H1741 C1727 0.958 . S
H1742 C1727 0.961 . S
H1743 C1727 0.960 . S
C1744 C1745 1.391 . S
C1744 C1746 1.394 . S
C1744 H1760 0.931 . S
C1745 C1744 1.391 . S
C1745 C1749 1.376 . S
C1746 C1744 1.394 . S
C1746 C1747 1.369 . S
C1746 C1750 1.531 . S
C1747 C1746 1.369 . S
C1747 C1748 1.410 . S
C1747 C1755 1.503 . S
C1748 C1747 1.410 . S
C1748 C1749 1.392 . S
C1748 C1751 1.511 . S
C1749 C1745 1.376 . S
C1749 C1748 1.392 . S
C1749 H1761 0.929 . S
C1750 C1746 1.531 . S
C1750 H1762 0.960 . S
C1750 H1763 0.962 . S
C1750 H1764 0.960 . S
C1751 C1748 1.511 . S
C1751 H1765 0.961 . S
C1751 H1766 0.961 . S
C1751 H1767 0.961 . S
C1752 C1753 1.370 . S
C1752 C1754 1.363 . S
C1752 H1768 0.931 . S
C1753 C1752 1.370 . S
C1753 C1757 1.408 . S
C1754 C1752 1.363 . S
C1754 C1755 1.370 . S
C1754 C1758 1.524 . S
C1755 C1747 1.503 . S
C1755 C1754 1.370 . S
C1755 C1756 1.403 . S
C1756 C1755 1.403 . S
C1756 C1757 1.404 . S
C1756 C1759 1.539 . S
C1757 C1753 1.408 . S
C1757 C1756 1.404 . S
C1757 H1769 0.930 . S
C1758 C1754 1.524 . S
C1758 H1770 0.956 . S
C1758 H1771 0.961 . S
C1758 H1772 0.961 . S
C1759 C1756 1.539 . S
C1759 H1773 0.958 . S
C1759 H1774 0.961 . S
C1759 H1775 0.960 . S
H1760 C1744 0.931 . S
H1761 C1749 0.929 . S
H1762 C1750 0.960 . S
H1763 C1750 0.962 . S
H1764 C1750 0.960 . S
H1765 C1751 0.961 . S
H1766 C1751 0.961 . S
H1767 C1751 0.961 . S
H1768 C1752 0.931 . S
H1769 C1757 0.930 . S
H1770 C1758 0.956 . S
H1771 C1758 0.961 . S
H1772 C1758 0.961 . S
H1773 C1759 0.958 . S
H1774 C1759 0.961 . S
H1775 C1759 0.960 . S
C1776 C1777 1.391 . S
C1776 C1778 1.394 . S
C1776 H1792 0.931 . S
C1777 C1776 1.391 . S
C1777 C1781 1.376 1_545 S
C1778 C1776 1.394 . S
C1778 C1779 1.369 1_545 S
C1778 C1782 1.531 . S
C1779 C1778 1.369 1_565 S
C1779 C1780 1.410 . S
C1779 C1787 1.503 . S
C1780 C1779 1.410 . S
C1780 C1781 1.392 . S
C1780 C1783 1.511 . S
C1781 C1777 1.376 1_565 S
C1781 C1780 1.392 . S
C1781 H1793 0.929 . S
C1782 C1778 1.531 . S
C1782 H1794 0.960 . S
C1782 H1795 0.962 . S
C1782 H1796 0.960 . S
C1783 C1780 1.511 . S
C1783 H1797 0.961 . S
C1783 H1798 0.961 . S
C1783 H1799 0.961 . S
C1784 C1785 1.370 1_554 S
C1784 C1786 1.363 1_554 S
C1784 H1800 0.931 . S
C1785 C1784 1.370 1_556 S
C1785 C1789 1.408 . S
C1786 C1784 1.363 1_556 S
C1786 C1787 1.370 . S
C1786 C1790 1.524 1_556 S
C1787 C1779 1.503 . S
C1787 C1786 1.370 . S
C1787 C1788 1.403 . S
C1788 C1787 1.403 . S
C1788 C1789 1.404 . S
C1788 C1791 1.539 . S
C1789 C1785 1.408 . S
C1789 C1788 1.404 . S
C1789 H1801 0.930 . S
C1790 C1786 1.524 1_554 S
C1790 H1802 0.956 . S
C1790 H1803 0.961 . S
C1790 H1804 0.961 . S
C1791 C1788 1.539 . S
C1791 H1805 0.958 . S
C1791 H1806 0.961 . S
C1791 H1807 0.960 . S
H1792 C1776 0.931 . S
H1793 C1781 0.929 . S
H1794 C1782 0.960 . S
H1795 C1782 0.962 . S
H1796 C1782 0.960 . S
H1797 C1783 0.961 . S
H1798 C1783 0.961 . S
H1799 C1783 0.961 . S
H1800 C1784 0.931 . S
H1801 C1789 0.930 . S
H1802 C1790 0.956 . S
H1803 C1790 0.961 . S
H1804 C1790 0.961 . S
H1805 C1791 0.958 . S
H1806 C1791 0.961 . S
H1807 C1791 0.960 . S
C1808 C1809 1.391 . S
C1808 C1810 1.394 . S
C1808 H1824 0.931 . S
C1809 C1808 1.391 . S
C1809 C1813 1.376 . S
C1810 C1808 1.394 . S
C1810 C1811 1.369 . S
C1810 C1814 1.531 . S
C1811 C1810 1.369 . S
C1811 C1812 1.410 . S
C1811 C1819 1.503 . S
C1812 C1811 1.410 . S
C1812 C1813 1.392 . S
C1812 C1815 1.511 . S
C1813 C1809 1.376 . S
C1813 C1812 1.392 . S
C1813 H1825 0.929 . S
C1814 C1810 1.531 . S
C1814 H1826 0.960 . S
C1814 H1827 0.962 . S
C1814 H1828 0.960 . S
C1815 C1812 1.511 . S
C1815 H1829 0.961 . S
C1815 H1830 0.961 . S
C1815 H1831 0.961 . S
C1816 C1817 1.370 . S
C1816 C1818 1.363 . S
C1816 H1832 0.931 . S
C1817 C1816 1.370 . S
C1817 C1821 1.408 . S
C1818 C1816 1.363 . S
C1818 C1819 1.370 . S
C1818 C1822 1.524 . S
C1819 C1811 1.503 . S
C1819 C1818 1.370 . S
C1819 C1820 1.403 . S
C1820 C1819 1.403 . S
C1820 C1821 1.404 . S
C1820 C1823 1.539 . S
C1821 C1817 1.408 . S
C1821 C1820 1.404 . S
C1821 H1833 0.930 . S
C1822 C1818 1.524 . S
C1822 H1834 0.956 . S
C1822 H1835 0.961 . S
C1822 H1836 0.961 . S
C1823 C1820 1.539 . S
C1823 H1837 0.958 . S
C1823 H1838 0.961 . S
C1823 H1839 0.960 . S
H1824 C1808 0.931 . S
H1825 C1813 0.929 . S
H1826 C1814 0.960 . S
H1827 C1814 0.962 . S
H1828 C1814 0.960 . S
H1829 C1815 0.961 . S
H1830 C1815 0.961 . S
H1831 C1815 0.961 . S
H1832 C1816 0.931 . S
H1833 C1821 0.930 . S
H1834 C1822 0.956 . S
H1835 C1822 0.961 . S
H1836 C1822 0.961 . S
H1837 C1823 0.958 . S
H1838 C1823 0.961 . S
H1839 C1823 0.960 . S
C1840 C1841 1.391 . S
C1840 C1842 1.402 . S
C1840 H1856 0.931 . S
C1841 C1840 1.391 . S
C1841 C1845 1.376 1_565 S
C1842 C1840 1.402 . S
C1842 C1843 1.356 1_565 S
C1842 C1846 1.536 . S
C1843 C1842 1.356 1_545 S
C1843 C1844 1.410 . S
C1843 C1851 1.503 . S
C1844 C1843 1.410 . S
C1844 C1845 1.392 . S
C1844 C1847 1.511 . S
C1845 C1841 1.376 1_545 S
C1845 C1844 1.392 . S
C1845 H1857 0.929 . S
C1846 C1842 1.536 . S
C1846 H1858 0.960 . S
C1846 H1859 0.962 . S
C1846 H1860 0.960 . S
C1847 C1844 1.511 . S
C1847 H1861 0.961 . S
C1847 H1862 0.961 . S
C1847 H1863 0.961 . S
C1848 C1849 1.370 . S
C1848 C1850 1.363 . S
C1848 H1864 0.931 . S
C1849 C1848 1.370 . S
C1849 C1853 1.408 . S
C1850 C1848 1.363 . S
C1850 C1851 1.370 . S
C1850 C1854 1.524 . S
C1851 C1843 1.503 . S
C1851 C1850 1.370 . S
C1851 C1852 1.403 . S
C1852 C1851 1.403 . S
C1852 C1853 1.404 . S
C1852 C1855 1.539 . S
C1853 C1849 1.408 . S
C1853 C1852 1.404 . S
C1853 H1865 0.930 . S
C1854 C1850 1.524 . S
C1854 H1866 0.956 . S
C1854 H1867 0.961 . S
C1854 H1868 0.961 . S
C1855 C1852 1.539 . S
C1855 H1869 0.958 . S
C1855 H1870 0.961 . S
C1855 H1871 0.960 . S
H1856 C1840 0.931 . S
H1857 C1845 0.929 . S
H1858 C1846 0.960 . S
H1859 C1846 0.962 . S
H1860 C1846 0.960 . S
H1861 C1847 0.961 . S
H1862 C1847 0.961 . S
H1863 C1847 0.961 . S
H1864 C1848 0.931 . S
H1865 C1853 0.930 . S
H1866 C1854 0.956 . S
H1867 C1854 0.961 . S
H1868 C1854 0.961 . S
H1869 C1855 0.958 . S
H1870 C1855 0.961 . S
H1871 C1855 0.960 . S
C1872 C1873 1.391 . S
C1872 C1874 1.394 . S
C1872 H1888 0.931 . S
C1873 C1872 1.391 . S
C1873 C1877 1.376 . S
C1874 C1872 1.394 . S
C1874 C1875 1.369 . S
C1874 C1878 1.531 . S
C1875 C1874 1.369 . S
C1875 C1876 1.410 . S
C1875 C1883 1.503 . S
C1876 C1875 1.410 . S
C1876 C1877 1.392 . S
C1876 C1879 1.511 . S
C1877 C1873 1.376 . S
C1877 C1876 1.392 . S
C1877 H1889 0.929 . S
C1878 C1874 1.531 . S
C1878 H1890 0.960 . S
C1878 H1891 0.962 . S
C1878 H1892 0.960 . S
C1879 C1876 1.511 . S
C1879 H1893 0.961 . S
C1879 H1894 0.961 . S
C1879 H1895 0.961 . S
C1880 C1881 1.370 . S
C1880 C1882 1.363 . S
C1880 H1896 0.931 . S
C1881 C1880 1.370 . S
C1881 C1885 1.408 . S
C1882 C1880 1.363 . S
C1882 C1883 1.370 . S
C1882 C1886 1.524 . S
C1883 C1875 1.503 . S
C1883 C1882 1.370 . S
C1883 C1884 1.403 . S
C1884 C1883 1.403 . S
C1884 C1885 1.404 . S
C1884 C1887 1.539 . S
C1885 C1881 1.408 . S
C1885 C1884 1.404 . S
C1885 H1897 0.930 . S
C1886 C1882 1.524 . S
C1886 H1898 0.956 . S
C1886 H1899 0.961 . S
C1886 H1900 0.961 . S
C1887 C1884 1.539 . S
C1887 H1901 0.958 . S
C1887 H1902 0.961 . S
C1887 H1903 0.960 . S
H1888 C1872 0.931 . S
H1889 C1877 0.929 . S
H1890 C1878 0.960 . S
H1891 C1878 0.962 . S
H1892 C1878 0.960 . S
H1893 C1879 0.961 . S
H1894 C1879 0.961 . S
H1895 C1879 0.961 . S
H1896 C1880 0.931 . S
H1897 C1885 0.930 . S
H1898 C1886 0.956 . S
H1899 C1886 0.961 . S
H1900 C1886 0.961 . S
H1901 C1887 0.958 . S
H1902 C1887 0.961 . S
H1903 C1887 0.960 . S
C1904 C1905 1.391 1_545 S
C1904 C1906 1.394 . S
C1904 H1920 0.931 . S
C1905 C1904 1.391 1_565 S
C1905 C1909 1.376 . S
C1906 C1904 1.394 . S
C1906 C1907 1.369 . S
C1906 C1910 1.531 . S
C1907 C1906 1.369 . S
C1907 C1908 1.410 1_545 S
C1907 C1915 1.503 . S
C1908 C1907 1.410 1_565 S
C1908 C1909 1.392 . S
C1908 C1911 1.511 . S
C1909 C1905 1.376 . S
C1909 C1908 1.392 . S
C1909 H1921 0.929 . S
C1910 C1906 1.531 . S
C1910 H1922 0.960 . S
C1910 H1923 0.962 . S
C1910 H1924 0.960 . S
C1911 C1908 1.511 . S
C1911 H1925 0.961 . S
C1911 H1926 0.961 . S
C1911 H1927 0.961 . S
C1912 C1913 1.370 . S
C1912 C1914 1.363 . S
C1912 H1928 0.931 . S
C1913 C1912 1.370 . S
C1913 C1917 1.408 . S
C1914 C1912 1.363 . S
C1914 C1915 1.370 . S
C1914 C1918 1.524 . S
C1915 C1907 1.503 . S
C1915 C1914 1.370 . S
C1915 C1916 1.403 . S
C1916 C1915 1.403 . S
C1916 C1917 1.404 . S
C1916 C1919 1.539 . S
C1917 C1913 1.408 . S
C1917 C1916 1.404 . S
C1917 H1929 0.930 . S
C1918 C1914 1.524 . S
C1918 H1930 0.956 . S
C1918 H1931 0.961 . S
C1918 H1932 0.961 . S
C1919 C1916 1.539 . S
C1919 H1933 0.958 . S
C1919 H1934 0.961 . S
C1919 H1935 0.960 . S
H1920 C1904 0.931 . S
H1921 C1909 0.929 . S
H1922 C1910 0.960 . S
H1923 C1910 0.962 . S
H1924 C1910 0.960 . S
H1925 C1911 0.961 . S
H1926 C1911 0.961 . S
H1927 C1911 0.961 . S
H1928 C1912 0.931 . S
H1929 C1917 0.930 . S
H1930 C1918 0.956 . S
H1931 C1918 0.961 . S
H1932 C1918 0.961 . S
H1933 C1919 0.958 . S
H1934 C1919 0.961 . S
H1935 C1919 0.960 . S
C1936 C1937 1.391 . S
C1936 C1938 1.394 . S
C1936 H1952 0.931 . S
C1937 C1936 1.391 . S
C1937 C1941 1.376 . S
C1938 C1936 1.394 . S
C1938 C1939 1.369 . S
C1938 C1942 1.531 . S
C1939 C1938 1.369 . S
C1939 C1940 1.410 . S
C1939 C1947 1.503 . S
C1940 C1939 1.410 . S
C1940 C1941 1.392 . S
C1940 C1943 1.511 . S
C1941 C1937 1.376 . S
C1941 C1940 1.392 . S
C1941 H1953 0.929 . S
C1942 C1938 1.531 . S
C1942 H1954 0.960 . S
C1942 H1955 0.962 . S
C1942 H1956 0.960 . S
C1943 C1940 1.511 . S
C1943 H1957 0.961 . S
C1943 H1958 0.961 . S
C1943 H1959 0.961 . S
C1944 C1945 1.370 . S
C1944 C1946 1.363 . S
C1944 H1960 0.931 . S
C1945 C1944 1.370 . S
C1945 C1949 1.408 . S
C1946 C1944 1.363 . S
C1946 C1947 1.370 . S
C1946 C1950 1.524 . S
C1947 C1939 1.503 . S
C1947 C1946 1.370 . S
C1947 C1948 1.403 . S
C1948 C1947 1.403 . S
C1948 C1949 1.404 . S
C1948 C1951 1.539 . S
C1949 C1945 1.408 . S
C1949 C1948 1.404 . S
C1949 H1961 0.930 . S
C1950 C1946 1.524 . S
C1950 H1962 0.956 . S
C1950 H1963 0.961 . S
C1950 H1964 0.961 . S
C1951 C1948 1.539 . S
C1951 H1965 0.958 . S
C1951 H1966 0.961 . S
C1951 H1967 0.960 . S
H1952 C1936 0.931 . S
H1953 C1941 0.929 . S
H1954 C1942 0.960 . S
H1955 C1942 0.962 . S
H1956 C1942 0.960 . S
H1957 C1943 0.961 . S
H1958 C1943 0.961 . S
H1959 C1943 0.961 . S
H1960 C1944 0.931 . S
H1961 C1949 0.930 . S
H1962 C1950 0.956 . S
H1963 C1950 0.961 . S
H1964 C1950 0.961 . S
H1965 C1951 0.958 . S
H1966 C1951 0.961 . S
H1967 C1951 0.960 . S
C1968 C1969 1.391 . S
C1968 C1970 1.394 . S
C1968 H1984 0.931 . S
C1969 C1968 1.391 . S
C1969 C1973 1.376 . S
C1970 C1968 1.394 . S
C1970 C1971 1.369 . S
C1970 C1974 1.531 . S
C1971 C1970 1.369 . S
C1971 C1972 1.410 . S
C1971 C1979 1.503 . S
C1972 C1971 1.410 . S
C1972 C1973 1.392 . S
C1972 C1975 1.511 . S
C1973 C1969 1.376 . S
C1973 C1972 1.392 . S
C1973 H1985 0.929 . S
C1974 C1970 1.531 . S
C1974 H1986 0.960 . S
C1974 H1987 0.962 . S
C1974 H1988 0.960 . S
C1975 C1972 1.511 . S
C1975 H1989 0.961 . S
C1975 H1990 0.961 . S
C1975 H1991 0.961 . S
C1976 C1977 1.370 . S
C1976 C1978 1.363 . S
C1976 H1992 0.931 . S
C1977 C1976 1.370 . S
C1977 C1981 1.408 . S
C1978 C1976 1.363 . S
C1978 C1979 1.370 . S
C1978 C1982 1.524 . S
C1979 C1971 1.503 . S
C1979 C1978 1.370 . S
C1979 C1980 1.403 . S
C1980 C1979 1.403 . S
C1980 C1981 1.404 . S
C1980 C1983 1.539 . S
C1981 C1977 1.408 . S
C1981 C1980 1.404 . S
C1981 H1993 0.930 . S
C1982 C1978 1.524 . S
C1982 H1994 0.956 . S
C1982 H1995 0.961 . S
C1982 H1996 0.961 . S
C1983 C1980 1.539 . S
C1983 H1997 0.958 . S
C1983 H1998 0.961 . S
C1983 H1999 0.960 . S
H1984 C1968 0.931 . S
H1985 C1973 0.929 . S
H1986 C1974 0.960 . S
H1987 C1974 0.962 . S
H1988 C1974 0.960 . S
H1989 C1975 0.961 . S
H1990 C1975 0.961 . S
H1991 C1975 0.961 . S
H1992 C1976 0.931 . S
H1993 C1981 0.930 . S
H1994 C1982 0.956 . S
H1995 C1982 0.961 . S
H1996 C1982 0.961 . S
H1997 C1983 0.958 . S
H1998 C1983 0.961 . S
H1999 C1983 0.960 . S
C2000 C2001 1.391 . S
C2000 C2002 1.394 . S
C2000 H2016 0.931 . S
C2001 C2000 1.391 . S
C2001 C2005 1.376 . S
C2002 C2000 1.394 . S
C2002 C2003 1.369 . S
C2002 C2006 1.531 . S
C2003 C2002 1.369 . S
C2003 C2004 1.410 . S
C2003 C2011 1.503 . S
C2004 C2003 1.410 . S
C2004 C2005 1.392 . S
C2004 C2007 1.511 . S
C2005 C2001 1.376 . S
C2005 C2004 1.392 . S
C2005 H2017 0.929 . S
C2006 C2002 1.531 . S
C2006 H2018 0.960 . S
C2006 H2019 0.962 . S
C2006 H2020 0.960 . S
C2007 C2004 1.511 . S
C2007 H2021 0.961 . S
C2007 H2022 0.961 . S
C2007 H2023 0.961 . S
C2008 C2009 1.370 . S
C2008 C2010 1.363 . S
C2008 H2024 0.931 . S
C2009 C2008 1.370 . S
C2009 C2013 1.408 1_545 S
C2010 C2008 1.363 . S
C2010 C2011 1.370 . S
C2010 C2014 1.524 . S
C2011 C2003 1.503 . S
C2011 C2010 1.370 . S
C2011 C2012 1.403 1_545 S
C2012 C2011 1.403 1_565 S
C2012 C2013 1.404 . S
C2012 C2015 1.539 . S
C2013 C2009 1.408 1_565 S
C2013 C2012 1.404 . S
C2013 H2025 0.930 . S
C2014 C2010 1.524 . S
C2014 H2026 0.956 . S
C2014 H2027 0.961 . S
C2014 H2028 0.961 . S
C2015 C2012 1.539 . S
C2015 H2029 0.958 . S
C2015 H2030 0.961 . S
C2015 H2031 0.960 . S
H2016 C2000 0.931 . S
H2017 C2005 0.929 . S
H2018 C2006 0.960 . S
H2019 C2006 0.962 . S
H2020 C2006 0.960 . S
H2021 C2007 0.961 . S
H2022 C2007 0.961 . S
H2023 C2007 0.961 . S
H2024 C2008 0.931 . S
H2025 C2013 0.930 . S
H2026 C2014 0.956 . S
H2027 C2014 0.961 . S
H2028 C2014 0.961 . S
H2029 C2015 0.958 . S
H2030 C2015 0.961 . S
H2031 C2015 0.960 . S
C2032 C2033 1.391 . S
C2032 C2034 1.394 . S
C2032 H2048 0.931 . S
C2033 C2032 1.391 . S
C2033 C2037 1.376 . S
C2034 C2032 1.394 . S
C2034 C2035 1.369 . S
C2034 C2038 1.531 . S
C2035 C2034 1.369 . S
C2035 C2036 1.410 . S
C2035 C2043 1.503 . S
C2036 C2035 1.410 . S
C2036 C2037 1.392 . S
C2036 C2039 1.511 . S
C2037 C2033 1.376 . S
C2037 C2036 1.392 . S
C2037 H2049 0.929 . S
C2038 C2034 1.531 . S
C2038 H2050 0.960 . S
C2038 H2051 0.962 . S
C2038 H2052 0.960 . S
C2039 C2036 1.511 . S
C2039 H2053 0.961 . S
C2039 H2054 0.961 . S
C2039 H2055 0.961 . S
C2040 C2041 1.370 . S
C2040 C2042 1.363 . S
C2040 H2056 0.931 . S
C2041 C2040 1.370 . S
C2041 C2045 1.408 . S
C2042 C2040 1.363 . S
C2042 C2043 1.370 . S
C2042 C2046 1.524 . S
C2043 C2035 1.503 . S
C2043 C2042 1.370 . S
C2043 C2044 1.403 . S
C2044 C2043 1.403 . S
C2044 C2045 1.404 . S
C2044 C2047 1.539 . S
C2045 C2041 1.408 . S
C2045 C2044 1.404 . S
C2045 H2057 0.930 . S
C2046 C2042 1.524 . S
C2046 H2058 0.956 . S
C2046 H2059 0.961 . S
C2046 H2060 0.961 . S
C2047 C2044 1.539 . S
C2047 H2061 0.958 . S
C2047 H2062 0.961 . S
C2047 H2063 0.960 . S
H2048 C2032 0.931 . S
H2049 C2037 0.929 . S
H2050 C2038 0.960 . S
H2051 C2038 0.962 . S
H2052 C2038 0.960 . S
H2053 C2039 0.961 . S
H2054 C2039 0.961 . S
H2055 C2039 0.961 . S
H2056 C2040 0.931 . S
H2057 C2045 0.930 . S
H2058 C2046 0.956 . S
H2059 C2046 0.961 . S
H2060 C2046 0.961 . S
H2061 C2047 0.958 . S
H2062 C2047 0.961 . S
H2063 C2047 0.960 . S
C2064 C2065 1.391 . S
C2064 C2066 1.394 . S
C2064 H2080 0.931 . S
C2065 C2064 1.391 . S
C2065 C2069 1.376 . S
C2066 C2064 1.394 . S
C2066 C2067 1.369 . S
C2066 C2070 1.531 . S
C2067 C2066 1.369 . S
C2067 C2068 1.410 . S
C2067 C2075 1.503 . S
C2068 C2067 1.410 . S
C2068 C2069 1.392 . S
C2068 C2071 1.511 . S
C2069 C2065 1.376 . S
C2069 C2068 1.392 . S
C2069 H2081 0.929 . S
C2070 C2066 1.531 . S
C2070 H2082 0.960 . S
C2070 H2083 0.962 . S
C2070 H2084 0.960 . S
C2071 C2068 1.511 . S
C2071 H2085 0.961 . S
C2071 H2086 0.961 . S
C2071 H2087 0.961 . S
C2072 C2073 1.370 . S
C2072 C2074 1.363 . S
C2072 H2088 0.931 . S
C2073 C2072 1.370 . S
C2073 C2077 1.408 . S
C2074 C2072 1.363 . S
C2074 C2075 1.370 . S
C2074 C2078 1.524 . S
C2075 C2067 1.503 . S
C2075 C2074 1.370 . S
C2075 C2076 1.403 . S
C2076 C2075 1.403 . S
C2076 C2077 1.404 . S
C2076 C2079 1.539 . S
C2077 C2073 1.408 . S
C2077 C2076 1.404 . S
C2077 H2089 0.930 . S
C2078 C2074 1.524 . S
C2078 H2090 0.956 . S
C2078 H2091 0.961 . S
C2078 H2092 0.961 . S
C2079 C2076 1.539 . S
C2079 H2093 0.958 . S
C2079 H2094 0.961 . S
C2079 H2095 0.960 . S
H2080 C2064 0.931 . S
H2081 C2069 0.929 . S
H2082 C2070 0.960 . S
H2083 C2070 0.962 . S
H2084 C2070 0.960 . S
H2085 C2071 0.961 . S
H2086 C2071 0.961 . S
H2087 C2071 0.961 . S
H2088 C2072 0.931 . S
H2089 C2077 0.930 . S
H2090 C2078 0.956 . S
H2091 C2078 0.961 . S
H2092 C2078 0.961 . S
H2093 C2079 0.958 . S
H2094 C2079 0.961 . S
H2095 C2079 0.960 . S
C2096 C2097 1.391 . S
C2096 C2098 1.394 . S
C2096 H2112 0.931 . S
C2097 C2096 1.391 . S
C2097 C2101 1.376 . S
C2098 C2096 1.394 . S
C2098 C2099 1.369 . S
C2098 C2102 1.531 . S
C2099 C2098 1.369 . S
C2099 C2100 1.410 . S
C2099 C2107 1.503 . S
C2100 C2099 1.410 . S
C2100 C2101 1.392 . S
C2100 C2103 1.511 . S
C2101 C2097 1.376 . S
C2101 C2100 1.392 . S
C2101 H2113 0.929 . S
C2102 C2098 1.531 . S
C2102 H2114 0.960 . S
C2102 H2115 0.962 . S
C2102 H2116 0.960 . S
C2103 C2100 1.511 . S
C2103 H2117 0.961 . S
C2103 H2118 0.961 . S
C2103 H2119 0.961 . S
C2104 C2105 1.370 . S
C2104 C2106 1.363 . S
C2104 H2120 0.931 . S
C2105 C2104 1.370 . S
C2105 C2109 1.408 . S
C2106 C2104 1.363 . S
C2106 C2107 1.370 . S
C2106 C2110 1.524 . S
C2107 C2099 1.503 . S
C2107 C2106 1.370 . S
C2107 C2108 1.403 . S
C2108 C2107 1.403 . S
C2108 C2109 1.404 . S
C2108 C2111 1.539 . S
C2109 C2105 1.408 . S
C2109 C2108 1.404 . S
C2109 H2121 0.930 . S
C2110 C2106 1.524 . S
C2110 H2122 0.956 . S
C2110 H2123 0.961 . S
C2110 H2124 0.961 . S
C2111 C2108 1.539 . S
C2111 H2125 0.958 . S
C2111 H2126 0.961 . S
C2111 H2127 0.960 . S
H2112 C2096 0.931 . S
H2113 C2101 0.929 . S
H2114 C2102 0.960 . S
H2115 C2102 0.962 . S
H2116 C2102 0.960 . S
H2117 C2103 0.961 . S
H2118 C2103 0.961 . S
H2119 C2103 0.961 . S
H2120 C2104 0.931 . S
H2121 C2109 0.930 . S
H2122 C2110 0.956 . S
H2123 C2110 0.961 . S
H2124 C2110 0.961 . S
H2125 C2111 0.958 . S
H2126 C2111 0.961 . S
H2127 C2111 0.960 . S
C2128 C2129 1.391 1_655 S
C2128 C2130 1.394 . S
C2128 H2144 0.931 . S
C2129 C2128 1.391 1_455 S
C2129 C2133 1.376 . S
C2130 C2128 1.394 . S
C2130 C2131 1.369 . S
C2130 C2134 1.531 1_545 S
C2131 C2130 1.369 . S
C2131 C2132 1.410 1_655 S
C2131 C2139 1.503 . S
C2132 C2131 1.410 1_455 S
C2132 C2133 1.392 . S
C2132 C2135 1.511 . S
C2133 C2129 1.376 . S
C2133 C2132 1.392 . S
C2133 H2145 0.929 . S
C2134 C2130 1.531 1_565 S
C2134 H2146 0.960 . S
C2134 H2147 0.962 1_565 S
C2134 H2148 0.960 . S
C2135 C2132 1.511 . S
C2135 H2149 0.961 . S
C2135 H2150 0.961 1_455 S
C2135 H2151 0.961 . S
C2136 C2137 1.370 . S
C2136 C2138 1.363 . S
C2136 H2152 0.931 . S
C2137 C2136 1.370 . S
C2137 C2141 1.368 1_545 S
C2138 C2136 1.363 . S
C2138 C2139 1.370 . S
C2138 C2142 1.524 . S
C2139 C2131 1.503 . S
C2139 C2138 1.370 . S
C2139 C2140 1.405 . S
C2140 C2139 1.405 . S
C2140 C2141 1.402 1_545 S
C2140 C2143 1.537 1_545 S
C2141 C2137 1.368 1_565 S
C2141 C2140 1.402 1_565 S
C2141 H2153 0.973 . S
C2142 C2138 1.524 . S
C2142 H2154 0.956 . S
C2142 H2155 0.961 . S
C2142 H2156 0.961 . S
C2143 C2140 1.537 1_565 S
C2143 H2157 0.958 . S
C2143 H2158 0.961 . S
C2143 H2159 0.960 1_655 S
H2144 C2128 0.931 . S
H2145 C2133 0.929 . S
H2146 C2134 0.960 . S
H2147 C2134 0.962 1_545 S
H2148 C2134 0.960 . S
H2149 C2135 0.961 . S
H2150 C2135 0.961 1_655 S
H2151 C2135 0.961 . S
H2152 C2136 0.931 . S
H2153 C2141 0.973 . S
H2154 C2142 0.956 . S
H2155 C2142 0.961 . S
H2156 C2142 0.961 . S
H2157 C2143 0.958 . S
H2158 C2143 0.961 . S
H2159 C2143 0.960 1_455 S
C2160 C2161 1.391 . S
C2160 C2162 1.394 . S
C2160 H2176 0.931 . S
C2161 C2160 1.391 . S
C2161 C2165 1.376 . S
C2162 C2160 1.394 . S
C2162 C2163 1.369 . S
C2162 C2166 1.531 . S
C2163 C2162 1.369 . S
C2163 C2164 1.410 . S
C2163 C2171 1.503 . S
C2164 C2163 1.410 . S
C2164 C2165 1.392 . S
C2164 C2167 1.511 . S
C2165 C2161 1.376 . S
C2165 C2164 1.392 . S
C2165 H2177 0.929 . S
C2166 C2162 1.531 . S
C2166 H2178 0.960 . S
C2166 H2179 0.962 . S
C2166 H2180 0.960 . S
C2167 C2164 1.511 . S
C2167 H2181 0.961 . S
C2167 H2182 0.961 . S
C2167 H2183 0.961 . S
C2168 C2169 1.370 . S
C2168 C2170 1.363 . S
C2168 H2184 0.931 . S
C2169 C2168 1.370 . S
C2169 C2173 1.408 . S
C2170 C2168 1.363 . S
C2170 C2171 1.370 . S
C2170 C2174 1.524 . S
C2171 C2163 1.503 . S
C2171 C2170 1.370 . S
C2171 C2172 1.403 . S
C2172 C2171 1.403 . S
C2172 C2173 1.404 . S
C2172 C2175 1.539 . S
C2173 C2169 1.408 . S
C2173 C2172 1.404 . S
C2173 H2185 0.930 . S
C2174 C2170 1.524 . S
C2174 H2186 0.956 . S
C2174 H2187 0.961 . S
C2174 H2188 0.961 . S
C2175 C2172 1.539 . S
C2175 H2189 0.958 . S
C2175 H2190 0.961 . S
C2175 H2191 0.960 . S
H2176 C2160 0.931 . S
H2177 C2165 0.929 . S
H2178 C2166 0.960 . S
H2179 C2166 0.962 . S
H2180 C2166 0.960 . S
H2181 C2167 0.961 . S
H2182 C2167 0.961 . S
H2183 C2167 0.961 . S
H2184 C2168 0.931 . S
H2185 C2173 0.930 . S
H2186 C2174 0.956 . S
H2187 C2174 0.961 . S
H2188 C2174 0.961 . S
H2189 C2175 0.958 . S
H2190 C2175 0.961 . S
H2191 C2175 0.960 . S
C2192 C2193 1.391 . S
C2192 C2194 1.394 1_655 S
C2192 H2208 0.931 . S
C2193 C2192 1.391 . S
C2193 C2197 1.376 1_655 S
C2194 C2192 1.394 1_455 S
C2194 C2195 1.369 . S
C2194 C2198 1.531 1_455 S
C2195 C2194 1.369 . S
C2195 C2196 1.410 . S
C2195 C2203 1.503 . S
C2196 C2195 1.410 . S
C2196 C2197 1.392 . S
C2196 C2199 1.511 . S
C2197 C2193 1.376 1_455 S
C2197 C2196 1.392 . S
C2197 H2209 0.929 . S
C2198 C2194 1.531 1_655 S
C2198 H2210 0.960 1_655 S
C2198 H2211 0.962 1_655 S
C2198 H2212 0.960 . S
C2199 C2196 1.511 . S
C2199 H2213 0.961 . S
C2199 H2214 0.961 . S
C2199 H2215 0.961 . S
C2200 C2201 1.370 . S
C2200 C2202 1.363 . S
C2200 H2216 0.931 . S
C2201 C2200 1.370 . S
C2201 C2205 1.408 . S
C2202 C2200 1.363 . S
C2202 C2203 1.370 . S
C2202 C2206 1.524 . S
C2203 C2195 1.503 . S
C2203 C2202 1.370 . S
C2203 C2204 1.403 . S
C2204 C2203 1.403 . S
C2204 C2205 1.404 . S
C2204 C2207 1.539 . S
C2205 C2201 1.408 . S
C2205 C2204 1.404 . S
C2205 H2217 0.930 . S
C2206 C2202 1.524 . S
C2206 H2218 0.956 . S
C2206 H2219 0.961 . S
C2206 H2220 0.961 . S
C2207 C2204 1.539 . S
C2207 H2221 0.958 1_455 S
C2207 H2222 0.961 . S
C2207 H2223 0.975 . S
H2208 C2192 0.931 . S
H2209 C2197 0.929 . S
H2210 C2198 0.960 1_455 S
H2211 C2198 0.962 1_455 S
H2212 C2198 0.960 . S
H2213 C2199 0.961 . S
H2214 C2199 0.961 . S
H2215 C2199 0.961 . S
H2216 C2200 0.931 . S
H2217 C2205 0.930 . S
H2218 C2206 0.956 . S
H2219 C2206 0.961 . S
H2220 C2206 0.961 . S
H2221 C2207 0.958 1_655 S
H2222 C2207 0.961 . S
H2223 C2207 0.975 . S
C2224 C2225 1.391 . S
C2224 C2226 1.394 . S
C2224 H2240 0.931 . S
C2225 C2224 1.391 . S
C2225 C2229 1.376 . S
C2226 C2224 1.394 . S
C2226 C2227 1.369 . S
C2226 C2230 1.531 . S
C2227 C2226 1.369 . S
C2227 C2228 1.410 . S
C2227 C2235 1.503 . S
C2228 C2227 1.410 . S
C2228 C2229 1.392 . S
C2228 C2231 1.511 . S
C2229 C2225 1.376 . S
C2229 C2228 1.392 . S
C2229 H2241 0.929 . S
C2230 C2226 1.531 . S
C2230 H2242 0.960 . S
C2230 H2243 0.962 . S
C2230 H2244 0.960 . S
C2231 C2228 1.511 . S
C2231 H2245 0.961 . S
C2231 H2246 0.961 . S
C2231 H2247 0.961 . S
C2232 C2233 1.370 . S
C2232 C2234 1.363 . S
C2232 H2248 0.931 . S
C2233 C2232 1.370 . S
C2233 C2237 1.408 . S
C2234 C2232 1.363 . S
C2234 C2235 1.370 . S
C2234 C2238 1.524 . S
C2235 C2227 1.503 . S
C2235 C2234 1.370 . S
C2235 C2236 1.403 . S
C2236 C2235 1.403 . S
C2236 C2237 1.404 . S
C2236 C2239 1.539 . S
C2237 C2233 1.408 . S
C2237 C2236 1.404 . S
C2237 H2249 0.930 . S
C2238 C2234 1.524 . S
C2238 H2250 0.956 . S
C2238 H2251 0.961 . S
C2238 H2252 0.961 . S
C2239 C2236 1.539 . S
C2239 H2253 0.958 . S
C2239 H2254 0.961 . S
C2239 H2255 0.960 . S
H2240 C2224 0.931 . S
H2241 C2229 0.929 . S
H2242 C2230 0.960 . S
H2243 C2230 0.962 . S
H2244 C2230 0.960 . S
H2245 C2231 0.961 . S
H2246 C2231 0.961 . S
H2247 C2231 0.961 . S
H2248 C2232 0.931 . S
H2249 C2237 0.930 . S
H2250 C2238 0.956 . S
H2251 C2238 0.961 . S
H2252 C2238 0.961 . S
H2253 C2239 0.958 . S
H2254 C2239 0.961 . S
H2255 C2239 0.960 . S
C2256 C2257 1.391 . S
C2256 C2258 1.377 1_554 S
C2256 H2272 0.922 1_655 S
C2257 C2256 1.391 . S
C2257 C2261 1.376 1_554 S
C2258 C2256 1.377 1_556 S
C2258 C2259 1.391 . S
C2258 C2262 1.526 1_656 S
C2259 C2258 1.391 . S
C2259 C2260 1.410 . S
C2259 C2267 1.503 . S
C2260 C2259 1.410 . S
C2260 C2261 1.392 . S
C2260 C2263 1.511 . S
C2261 C2257 1.376 1_556 S
C2261 C2260 1.392 . S
C2261 H2273 0.929 . S
C2262 C2258 1.526 1_454 S
C2262 H2274 0.962 . S
C2262 H2275 0.962 1_554 S
C2262 H2276 0.960 . S
C2263 C2260 1.511 . S
C2263 H2277 0.961 . S
C2263 H2278 0.961 . S
C2263 H2279 0.961 . S
C2264 C2265 1.370 . S
C2264 C2266 1.363 . S
C2264 H2280 0.909 1_655 S
C2265 C2264 1.370 . S
C2265 C2269 1.408 . S
C2266 C2264 1.363 . S
C2266 C2267 1.370 . S
C2266 C2270 1.524 . S
C2267 C2259 1.503 . S
C2267 C2266 1.370 . S
C2267 C2268 1.403 . S
C2268 C2267 1.403 . S
C2268 C2269 1.404 . S
C2268 C2271 1.539 . S
C2269 C2265 1.408 . S
C2269 C2268 1.404 . S
C2269 H2281 0.930 . S
C2270 C2266 1.524 . S
C2270 H2282 0.956 1_655 S
C2270 H2283 0.961 . S
C2270 H2284 0.961 1_655 S
C2271 C2268 1.539 . S
C2271 H2285 0.958 1_556 S
C2271 H2286 0.961 . S
C2271 H2287 0.958 1_556 S
H2272 C2256 0.922 1_455 S
H2273 C2261 0.929 . S
H2274 C2262 0.962 . S
H2275 C2262 0.962 1_556 S
H2276 C2262 0.960 . S
H2277 C2263 0.961 . S
H2278 C2263 0.961 . S
H2279 C2263 0.961 . S
H2280 C2264 0.909 1_455 S
H2281 C2269 0.930 . S
H2282 C2270 0.956 1_455 S
H2283 C2270 0.961 . S
H2284 C2270 0.961 1_455 S
H2285 C2271 0.958 1_554 S
H2286 C2271 0.961 . S
H2287 C2271 0.958 1_554 S
C2288 C2289 1.391 . S
C2288 C2290 1.394 . S
C2288 H2304 0.931 . S
C2289 C2288 1.391 . S
C2289 C2293 1.376 . S
C2290 C2288 1.394 . S
C2290 C2291 1.369 . S
C2290 C2294 1.531 . S
C2291 C2290 1.369 . S
C2291 C2292 1.410 . S
C2291 C2299 1.503 . S
C2292 C2291 1.410 . S
C2292 C2293 1.392 . S
C2292 C2295 1.511 . S
C2293 C2289 1.376 . S
C2293 C2292 1.392 . S
C2293 H2305 0.929 . S
C2294 C2290 1.531 . S
C2294 H2306 0.960 . S
C2294 H2307 0.962 . S
C2294 H2308 0.960 . S
C2295 C2292 1.511 . S
C2295 H2309 0.961 . S
C2295 H2310 0.961 . S
C2295 H2311 0.961 . S
C2296 C2297 1.370 . S
C2296 C2298 1.363 . S
C2296 H2312 0.931 . S
C2297 C2296 1.370 . S
C2297 C2301 1.408 . S
C2298 C2296 1.363 . S
C2298 C2299 1.370 . S
C2298 C2302 1.524 . S
C2299 C2291 1.503 . S
C2299 C2298 1.370 . S
C2299 C2300 1.403 . S
C2300 C2299 1.403 . S
C2300 C2301 1.404 . S
C2300 C2303 1.539 . S
C2301 C2297 1.408 . S
C2301 C2300 1.404 . S
C2301 H2313 0.930 . S
C2302 C2298 1.524 . S
C2302 H2314 0.956 . S
C2302 H2315 0.961 . S
C2302 H2316 0.961 . S
C2303 C2300 1.539 . S
C2303 H2317 0.958 . S
C2303 H2318 0.961 . S
C2303 H2319 0.960 . S
H2304 C2288 0.931 . S
H2305 C2293 0.929 . S
H2306 C2294 0.960 . S
H2307 C2294 0.962 . S
H2308 C2294 0.960 . S
H2309 C2295 0.961 . S
H2310 C2295 0.961 . S
H2311 C2295 0.961 . S
H2312 C2296 0.931 . S
H2313 C2301 0.930 . S
H2314 C2302 0.956 . S
H2315 C2302 0.961 . S
H2316 C2302 0.961 . S
H2317 C2303 0.958 . S
H2318 C2303 0.961 . S
H2319 C2303 0.960 . S
C2320 C2321 1.391 . S
C2320 C2322 1.394 1_554 S
C2320 H2336 0.931 1_455 S
C2321 C2320 1.391 . S
C2321 C2325 1.376 1_554 S
C2322 C2320 1.394 1_556 S
C2322 C2323 1.369 . S
C2322 C2326 1.531 1_455 S
C2323 C2322 1.369 . S
C2323 C2324 1.410 . S
C2323 C2331 1.503 . S
C2324 C2323 1.410 . S
C2324 C2325 1.392 . S
C2324 C2327 1.511 . S
C2325 C2321 1.376 1_556 S
C2325 C2324 1.392 . S
C2325 H2337 0.929 . S
C2326 C2322 1.531 1_655 S
C2326 H2338 0.960 . S
C2326 H2339 0.962 . S
C2326 H2340 0.960 1_556 S
C2327 C2324 1.511 . S
C2327 H2341 0.961 . S
C2327 H2342 0.961 . S
C2327 H2343 0.961 . S
C2328 C2329 1.370 . S
C2328 C2330 1.363 . S
C2328 H2344 0.931 . S
C2329 C2328 1.370 . S
C2329 C2333 1.408 . S
C2330 C2328 1.363 . S
C2330 C2331 1.370 . S
C2330 C2334 1.524 . S
C2331 C2323 1.503 . S
C2331 C2330 1.370 . S
C2331 C2332 1.403 . S
C2332 C2331 1.403 . S
C2332 C2333 1.404 . S
C2332 C2335 1.509 1_556 S
C2333 C2329 1.408 . S
C2333 C2332 1.404 . S
C2333 H2345 0.930 . S
C2334 C2330 1.524 . S
C2334 H2346 0.956 1_455 S
C2334 H2347 0.961 . S
C2334 H2348 0.961 . S
C2335 C2332 1.509 1_554 S
C2335 H2349 0.978 . S
C2335 H2350 0.961 . S
C2335 H2351 0.971 . S
H2336 C2320 0.931 1_655 S
H2337 C2325 0.929 . S
H2338 C2326 0.960 . S
H2339 C2326 0.962 . S
H2340 C2326 0.960 1_554 S
H2341 C2327 0.961 . S
H2342 C2327 0.961 . S
H2343 C2327 0.961 . S
H2344 C2328 0.931 . S
H2345 C2333 0.930 . S
H2346 C2334 0.956 1_655 S
H2347 C2334 0.961 . S
H2348 C2334 0.961 . S
H2349 C2335 0.978 . S
H2350 C2335 0.961 . S
H2351 C2335 0.971 . S
C2352 C2353 1.391 . S
C2352 C2354 1.394 . S
C2352 H2368 0.931 . S
C2353 C2352 1.391 . S
C2353 C2357 1.376 . S
C2354 C2352 1.394 . S
C2354 C2355 1.369 . S
C2354 C2358 1.531 . S
C2355 C2354 1.369 . S
C2355 C2356 1.410 . S
C2355 C2363 1.503 . S
C2356 C2355 1.410 . S
C2356 C2357 1.392 . S
C2356 C2359 1.511 . S
C2357 C2353 1.376 . S
C2357 C2356 1.392 . S
C2357 H2369 0.929 . S
C2358 C2354 1.531 . S
C2358 H2370 0.960 . S
C2358 H2371 0.962 . S
C2358 H2372 0.960 . S
C2359 C2356 1.511 . S
C2359 H2373 0.961 . S
C2359 H2374 0.961 . S
C2359 H2375 0.961 . S
C2360 C2361 1.370 . S
C2360 C2362 1.363 . S
C2360 H2376 0.931 . S
C2361 C2360 1.370 . S
C2361 C2365 1.408 . S
C2362 C2360 1.363 . S
C2362 C2363 1.370 . S
C2362 C2366 1.524 . S
C2363 C2355 1.503 . S
C2363 C2362 1.370 . S
C2363 C2364 1.403 . S
C2364 C2363 1.403 . S
C2364 C2365 1.404 . S
C2364 C2367 1.539 . S
C2365 C2361 1.408 . S
C2365 C2364 1.404 . S
C2365 H2377 0.930 . S
C2366 C2362 1.524 . S
C2366 H2378 0.956 . S
C2366 H2379 0.961 . S
C2366 H2380 0.961 . S
C2367 C2364 1.539 . S
C2367 H2381 0.958 . S
C2367 H2382 0.961 . S
C2367 H2383 0.960 . S
H2368 C2352 0.931 . S
H2369 C2357 0.929 . S
H2370 C2358 0.960 . S
H2371 C2358 0.962 . S
H2372 C2358 0.960 . S
H2373 C2359 0.961 . S
H2374 C2359 0.961 . S
H2375 C2359 0.961 . S
H2376 C2360 0.931 . S
H2377 C2365 0.930 . S
H2378 C2366 0.956 . S
H2379 C2366 0.961 . S
H2380 C2366 0.961 . S
H2381 C2367 0.958 . S
H2382 C2367 0.961 . S
H2383 C2367 0.960 . S
C2384 C2385 1.391 1_554 S
C2384 C2386 1.394 . S
C2384 H2400 0.931 1_554 S
C2385 C2384 1.391 1_556 S
C2385 C2389 1.376 . S
C2386 C2384 1.394 . S
C2386 C2387 1.369 . S
C2386 C2390 1.531 . S
C2387 C2386 1.369 . S
C2387 C2388 1.410 . S
C2387 C2395 1.503 . S
C2388 C2387 1.410 . S
C2388 C2389 1.392 1_554 S
C2388 C2391 1.511 . S
C2389 C2385 1.376 . S
C2389 C2388 1.392 1_556 S
C2389 H2401 0.929 . S
C2390 C2386 1.531 . S
C2390 H2402 0.960 . S
C2390 H2403 0.962 . S
C2390 H2404 0.960 . S
C2391 C2388 1.511 . S
C2391 H2405 0.961 . S
C2391 H2406 0.961 . S
C2391 H2407 0.991 . S
C2392 C2393 1.370 . S
C2392 C2394 1.363 . S
C2392 H2408 0.931 . S
C2393 C2392 1.370 . S
C2393 C2397 1.408 . S
C2394 C2392 1.363 . S
C2394 C2395 1.370 . S
C2394 C2398 1.524 . S
C2395 C2387 1.503 . S
C2395 C2394 1.370 . S
C2395 C2396 1.403 . S
C2396 C2395 1.403 . S
C2396 C2397 1.404 . S
C2396 C2399 1.539 1_554 S
C2397 C2393 1.408 . S
C2397 C2396 1.404 . S
C2397 H2409 0.930 . S
C2398 C2394 1.524 . S
C2398 H2410 0.956 . S
C2398 H2411 0.961 . S
C2398 H2412 0.961 . S
C2399 C2396 1.539 1_556 S
C2399 H2413 0.958 . S
C2399 H2414 0.961 . S
C2399 H2415 0.960 . S
H2400 C2384 0.931 1_556 S
H2401 C2389 0.929 . S
H2402 C2390 0.960 . S
H2403 C2390 0.962 . S
H2404 C2390 0.960 . S
H2405 C2391 0.961 . S
H2406 C2391 0.961 . S
H2407 C2391 0.991 . S
H2408 C2392 0.931 . S
H2409 C2397 0.930 . S
H2410 C2398 0.956 . S
H2411 C2398 0.961 . S
H2412 C2398 0.961 . S
H2413 C2399 0.958 . S
H2414 C2399 0.961 . S
H2415 C2399 0.960 . S
C2416 C2417 1.391 . S
C2416 C2418 1.394 . S
C2416 H2432 0.931 . S
C2417 C2416 1.391 . S
C2417 C2421 1.376 . S
C2418 C2416 1.394 . S
C2418 C2419 1.369 . S
C2418 C2422 1.531 . S
C2419 C2418 1.369 . S
C2419 C2420 1.410 . S
C2419 C2427 1.503 . S
C2420 C2419 1.410 . S
C2420 C2421 1.392 . S
C2420 C2423 1.511 . S
C2421 C2417 1.376 . S
C2421 C2420 1.392 . S
C2421 H2433 0.929 . S
C2422 C2418 1.531 . S
C2422 H2434 0.960 . S
C2422 H2435 0.962 . S
C2422 H2436 0.960 . S
C2423 C2420 1.511 . S
C2423 H2437 0.961 . S
C2423 H2438 0.961 . S
C2423 H2439 0.961 . S
C2424 C2425 1.370 . S
C2424 C2426 1.363 . S
C2424 H2440 0.931 . S
C2425 C2424 1.370 . S
C2425 C2429 1.408 . S
C2426 C2424 1.363 . S
C2426 C2427 1.370 . S
C2426 C2430 1.524 . S
C2427 C2419 1.503 . S
C2427 C2426 1.370 . S
C2427 C2428 1.403 . S
C2428 C2427 1.403 . S
C2428 C2429 1.404 . S
C2428 C2431 1.539 . S
C2429 C2425 1.408 . S
C2429 C2428 1.404 . S
C2429 H2441 0.930 . S
C2430 C2426 1.524 . S
C2430 H2442 0.956 . S
C2430 H2443 0.961 . S
C2430 H2444 0.961 . S
C2431 C2428 1.539 . S
C2431 H2445 0.958 . S
C2431 H2446 0.961 . S
C2431 H2447 0.960 . S
H2432 C2416 0.931 . S
H2433 C2421 0.929 . S
H2434 C2422 0.960 . S
H2435 C2422 0.962 . S
H2436 C2422 0.960 . S
H2437 C2423 0.961 . S
H2438 C2423 0.961 . S
H2439 C2423 0.961 . S
H2440 C2424 0.931 . S
H2441 C2429 0.930 . S
H2442 C2430 0.956 . S
H2443 C2430 0.961 . S
H2444 C2430 0.961 . S
H2445 C2431 0.958 . S
H2446 C2431 0.961 . S
H2447 C2431 0.960 . S
C2448 C2449 1.391 1_554 S
C2448 C2450 1.394 . S
C2448 H2464 0.931 . S
C2449 C2448 1.391 1_556 S
C2449 C2453 1.376 . S
C2450 C2448 1.394 . S
C2450 C2451 1.369 . S
C2450 C2454 1.531 . S
C2451 C2450 1.369 . S
C2451 C2452 1.410 . S
C2451 C2459 1.503 . S
C2452 C2451 1.410 . S
C2452 C2453 1.392 1_554 S
C2452 C2455 1.511 . S
C2453 C2449 1.376 . S
C2453 C2452 1.392 1_556 S
C2453 H2465 0.929 . S
C2454 C2450 1.531 . S
C2454 H2466 0.960 . S
C2454 H2467 0.962 . S
C2454 H2468 0.960 . S
C2455 C2452 1.511 . S
C2455 H2469 0.961 1_554 S
C2455 H2470 0.961 . S
C2455 H2471 0.961 . S
C2456 C2457 1.370 . S
C2456 C2458 1.363 . S
C2456 H2472 0.931 . S
C2457 C2456 1.370 . S
C2457 C2461 1.408 . S
C2458 C2456 1.363 . S
C2458 C2459 1.370 . S
C2458 C2462 1.524 . S
C2459 C2451 1.503 . S
C2459 C2458 1.370 . S
C2459 C2460 1.403 . S
C2460 C2459 1.403 . S
C2460 C2461 1.404 . S
C2460 C2463 1.539 . S
C2461 C2457 1.408 . S
C2461 C2460 1.404 . S
C2461 H2473 0.930 . S
C2462 C2458 1.524 . S
C2462 H2474 0.956 . S
C2462 H2475 0.961 1_554 S
C2462 H2476 0.961 . S
C2463 C2460 1.539 . S
C2463 H2477 0.958 . S
C2463 H2478 0.961 . S
C2463 H2479 0.960 . S
H2464 C2448 0.931 . S
H2465 C2453 0.929 . S
H2466 C2454 0.960 . S
H2467 C2454 0.962 . S
H2468 C2454 0.960 . S
H2469 C2455 0.961 1_556 S
H2470 C2455 0.961 . S
H2471 C2455 0.961 . S
H2472 C2456 0.931 . S
H2473 C2461 0.930 . S
H2474 C2462 0.956 . S
H2475 C2462 0.961 1_556 S
H2476 C2462 0.961 . S
H2477 C2463 0.958 . S
H2478 C2463 0.961 . S
H2479 C2463 0.960 . S
C2480 C2481 1.391 . S
C2480 C2482 1.394 . S
C2480 H2496 0.931 . S
C2481 C2480 1.391 . S
C2481 C2485 1.376 . S
C2482 C2480 1.394 . S
C2482 C2483 1.369 . S
C2482 C2486 1.531 . S
C2483 C2482 1.369 . S
C2483 C2484 1.410 . S
C2483 C2491 1.503 . S
C2484 C2483 1.410 . S
C2484 C2485 1.392 . S
C2484 C2487 1.511 . S
C2485 C2481 1.376 . S
C2485 C2484 1.392 . S
C2485 H2497 0.929 . S
C2486 C2482 1.531 . S
C2486 H2498 0.960 . S
C2486 H2499 0.962 . S
C2486 H2500 0.960 . S
C2487 C2484 1.511 . S
C2487 H2501 0.961 . S
C2487 H2502 0.961 . S
C2487 H2503 0.961 . S
C2488 C2489 1.370 . S
C2488 C2490 1.363 . S
C2488 H2504 0.931 . S
C2489 C2488 1.370 . S
C2489 C2493 1.408 . S
C2490 C2488 1.363 . S
C2490 C2491 1.370 . S
C2490 C2494 1.524 . S
C2491 C2483 1.503 . S
C2491 C2490 1.370 . S
C2491 C2492 1.403 . S
C2492 C2491 1.403 . S
C2492 C2493 1.404 . S
C2492 C2495 1.539 . S
C2493 C2489 1.408 . S
C2493 C2492 1.404 . S
C2493 H2505 0.930 . S
C2494 C2490 1.524 . S
C2494 H2506 0.956 . S
C2494 H2507 0.961 . S
C2494 H2508 0.961 . S
C2495 C2492 1.539 . S
C2495 H2509 0.958 . S
C2495 H2510 0.961 . S
C2495 H2511 0.960 . S
H2496 C2480 0.931 . S
H2497 C2485 0.929 . S
H2498 C2486 0.960 . S
H2499 C2486 0.962 . S
H2500 C2486 0.960 . S
H2501 C2487 0.961 . S
H2502 C2487 0.961 . S
H2503 C2487 0.961 . S
H2504 C2488 0.931 . S
H2505 C2493 0.930 . S
H2506 C2494 0.956 . S
H2507 C2494 0.961 . S
H2508 C2494 0.961 . S
H2509 C2495 0.958 . S
H2510 C2495 0.961 . S
H2511 C2495 0.960 . S
C2512 C2513 1.391 . S
C2512 C2514 1.394 . S
C2512 H2528 0.931 . S
C2513 C2512 1.391 . S
C2513 C2517 1.376 . S
C2514 C2512 1.394 . S
C2514 C2515 1.369 . S
C2514 C2518 1.531 . S
C2515 C2514 1.369 . S
C2515 C2516 1.410 . S
C2515 C2523 1.503 . S
C2516 C2515 1.410 . S
C2516 C2517 1.392 . S
C2516 C2519 1.511 . S
C2517 C2513 1.376 . S
C2517 C2516 1.392 . S
C2517 H2529 0.929 . S
C2518 C2514 1.531 . S
C2518 H2530 0.960 . S
C2518 H2531 0.962 . S
C2518 H2532 0.960 . S
C2519 C2516 1.511 . S
C2519 H2533 0.961 . S
C2519 H2534 0.961 . S
C2519 H2535 0.961 . S
C2520 C2521 1.370 . S
C2520 C2522 1.363 . S
C2520 H2536 0.931 . S
C2521 C2520 1.370 . S
C2521 C2525 1.408 . S
C2522 C2520 1.363 . S
C2522 C2523 1.370 . S
C2522 C2526 1.524 . S
C2523 C2515 1.503 . S
C2523 C2522 1.370 . S
C2523 C2524 1.403 . S
C2524 C2523 1.403 . S
C2524 C2525 1.404 . S
C2524 C2527 1.539 . S
C2525 C2521 1.408 . S
C2525 C2524 1.404 . S
C2525 H2537 0.930 . S
C2526 C2522 1.524 . S
C2526 H2538 0.956 . S
C2526 H2539 0.961 . S
C2526 H2540 0.961 . S
C2527 C2524 1.539 . S
C2527 H2541 0.958 . S
C2527 H2542 0.961 . S
C2527 H2543 0.960 . S
H2528 C2512 0.931 . S
H2529 C2517 0.929 . S
H2530 C2518 0.960 . S
H2531 C2518 0.962 . S
H2532 C2518 0.960 . S
H2533 C2519 0.961 . S
H2534 C2519 0.961 . S
H2535 C2519 0.961 . S
H2536 C2520 0.931 . S
H2537 C2525 0.930 . S
H2538 C2526 0.956 . S
H2539 C2526 0.961 . S
H2540 C2526 0.961 . S
H2541 C2527 0.958 . S
H2542 C2527 0.961 . S
H2543 C2527 0.960 . S
C2544 C2545 1.391 . S
C2544 C2546 1.394 . S
C2544 H2560 0.931 . S
C2545 C2544 1.391 . S
C2545 C2549 1.376 . S
C2546 C2544 1.394 . S
C2546 C2547 1.369 . S
C2546 C2550 1.531 . S
C2547 C2546 1.369 . S
C2547 C2548 1.410 . S
C2547 C2555 1.503 . S
C2548 C2547 1.410 . S
C2548 C2549 1.392 . S
C2548 C2551 1.511 . S
C2549 C2545 1.376 . S
C2549 C2548 1.392 . S
C2549 H2561 0.929 . S
C2550 C2546 1.531 . S
C2550 H2562 0.960 . S
C2550 H2563 0.962 . S
C2550 H2564 0.960 . S
C2551 C2548 1.511 . S
C2551 H2565 0.961 . S
C2551 H2566 0.961 . S
C2551 H2567 0.961 . S
C2552 C2553 1.370 . S
C2552 C2554 1.363 . S
C2552 H2568 0.931 . S
C2553 C2552 1.370 . S
C2553 C2557 1.408 . S
C2554 C2552 1.363 . S
C2554 C2555 1.370 . S
C2554 C2558 1.524 . S
C2555 C2547 1.503 . S
C2555 C2554 1.370 . S
C2555 C2556 1.403 . S
C2556 C2555 1.403 . S
C2556 C2557 1.404 . S
C2556 C2559 1.539 . S
C2557 C2553 1.408 . S
C2557 C2556 1.404 . S
C2557 H2569 0.930 . S
C2558 C2554 1.524 . S
C2558 H2570 0.956 . S
C2558 H2571 0.961 . S
C2558 H2572 0.961 . S
C2559 C2556 1.539 . S
C2559 H2573 0.958 . S
C2559 H2574 0.961 . S
C2559 H2575 0.960 . S
H2560 C2544 0.931 . S
H2561 C2549 0.929 . S
H2562 C2550 0.960 . S
H2563 C2550 0.962 . S
H2564 C2550 0.960 . S
H2565 C2551 0.961 . S
H2566 C2551 0.961 . S
H2567 C2551 0.961 . S
H2568 C2552 0.931 . S
H2569 C2557 0.930 . S
H2570 C2558 0.956 . S
H2571 C2558 0.961 . S
H2572 C2558 0.961 . S
H2573 C2559 0.958 . S
H2574 C2559 0.961 . S
H2575 C2559 0.960 . S
C2576 C2577 1.391 . S
C2576 C2578 1.394 . S
C2576 H2592 0.931 . S
C2577 C2576 1.391 . S
C2577 C2581 1.376 . S
C2578 C2576 1.394 . S
C2578 C2579 1.369 . S
C2578 C2582 1.531 . S
C2579 C2578 1.369 . S
C2579 C2580 1.410 . S
C2579 C2587 1.503 . S
C2580 C2579 1.410 . S
C2580 C2581 1.392 . S
C2580 C2583 1.511 . S
C2581 C2577 1.376 . S
C2581 C2580 1.392 . S
C2581 H2593 0.929 . S
C2582 C2578 1.531 . S
C2582 H2594 0.960 . S
C2582 H2595 0.962 . S
C2582 H2596 0.960 . S
C2583 C2580 1.511 . S
C2583 H2597 0.961 . S
C2583 H2598 0.961 . S
C2583 H2599 0.961 . S
C2584 C2585 1.370 . S
C2584 C2586 1.363 . S
C2584 H2600 0.931 . S
C2585 C2584 1.370 . S
C2585 C2589 1.408 . S
C2586 C2584 1.363 . S
C2586 C2587 1.370 . S
C2586 C2590 1.524 . S
C2587 C2579 1.503 . S
C2587 C2586 1.370 . S
C2587 C2588 1.403 . S
C2588 C2587 1.403 . S
C2588 C2589 1.404 . S
C2588 C2591 1.539 . S
C2589 C2585 1.408 . S
C2589 C2588 1.404 . S
C2589 H2601 0.930 . S
C2590 C2586 1.524 . S
C2590 H2602 0.956 . S
C2590 H2603 0.961 . S
C2590 H2604 0.961 . S
C2591 C2588 1.539 . S
C2591 H2605 0.958 . S
C2591 H2606 0.961 . S
C2591 H2607 0.960 . S
H2592 C2576 0.931 . S
H2593 C2581 0.929 . S
H2594 C2582 0.960 . S
H2595 C2582 0.962 . S
H2596 C2582 0.960 . S
H2597 C2583 0.961 . S
H2598 C2583 0.961 . S
H2599 C2583 0.961 . S
H2600 C2584 0.931 . S
H2601 C2589 0.930 . S
H2602 C2590 0.956 . S
H2603 C2590 0.961 . S
H2604 C2590 0.961 . S
H2605 C2591 0.958 . S
H2606 C2591 0.961 . S
H2607 C2591 0.960 . S
C2608 C2609 1.391 . S
C2608 C2610 1.394 . S
C2608 H2624 0.933 . S
C2609 C2608 1.391 . S
C2609 C2613 1.376 . S
C2610 C2608 1.394 . S
C2610 C2611 1.369 . S
C2610 C2614 1.531 1_556 S
C2611 C2610 1.369 . S
C2611 C2612 1.410 . S
C2611 C2619 1.503 . S
C2612 C2611 1.410 . S
C2612 C2613 1.392 . S
C2612 C2615 1.511 . S
C2613 C2609 1.376 . S
C2613 C2612 1.392 . S
C2613 H2625 0.929 . S
C2614 C2610 1.531 1_554 S
C2614 H2626 0.960 . S
C2614 H2627 0.962 . S
C2614 H2628 0.960 . S
C2615 C2612 1.511 . S
C2615 H2629 0.961 . S
C2615 H2630 0.961 . S
C2615 H2631 0.961 . S
C2616 C2617 1.370 . S
C2616 C2618 1.363 . S
C2616 H2632 0.931 . S
C2617 C2616 1.370 . S
C2617 C2621 1.408 1_556 S
C2618 C2616 1.363 . S
C2618 C2619 1.370 . S
C2618 C2622 1.524 . S
C2619 C2611 1.503 . S
C2619 C2618 1.370 . S
C2619 C2620 1.403 . S
C2620 C2619 1.403 . S
C2620 C2621 1.404 1_556 S
C2620 C2623 1.539 1_556 S
C2621 C2617 1.408 1_554 S
C2621 C2620 1.404 1_554 S
C2621 H2633 0.930 . S
C2622 C2618 1.524 . S
C2622 H2634 0.956 . S
C2622 H2635 0.961 . S
C2622 H2636 0.961 . S
C2623 C2620 1.539 1_554 S
C2623 H2637 0.958 . S
C2623 H2638 0.961 . S
C2623 H2639 0.960 . S
H2624 C2608 0.933 . S
H2625 C2613 0.929 . S
H2626 C2614 0.960 . S
H2627 C2614 0.962 . S
H2628 C2614 0.960 . S
H2629 C2615 0.961 . S
H2630 C2615 0.961 . S
H2631 C2615 0.961 . S
H2632 C2616 0.931 . S
H2633 C2621 0.930 . S
H2634 C2622 0.956 . S
H2635 C2622 0.961 . S
H2636 C2622 0.961 . S
H2637 C2623 0.958 . S
H2638 C2623 0.961 . S
H2639 C2623 0.960 . S
C2640 C2641 1.391 . S
C2640 C2642 1.394 . S
C2640 H2656 0.931 . S
C2641 C2640 1.391 . S
C2641 C2645 1.376 . S
C2642 C2640 1.394 . S
C2642 C2643 1.369 . S
C2642 C2646 1.531 . S
C2643 C2642 1.369 . S
C2643 C2644 1.410 . S
C2643 C2651 1.503 . S
C2644 C2643 1.410 . S
C2644 C2645 1.392 . S
C2644 C2647 1.511 . S
C2645 C2641 1.376 . S
C2645 C2644 1.392 . S
C2645 H2657 0.929 . S
C2646 C2642 1.531 . S
C2646 H2658 0.960 . S
C2646 H2659 0.962 . S
C2646 H2660 0.960 . S
C2647 C2644 1.511 . S
C2647 H2661 0.961 . S
C2647 H2662 0.961 . S
C2647 H2663 0.961 . S
C2648 C2649 1.370 . S
C2648 C2650 1.363 . S
C2648 H2664 0.931 . S
C2649 C2648 1.370 . S
C2649 C2653 1.408 . S
C2650 C2648 1.363 . S
C2650 C2651 1.370 . S
C2650 C2654 1.524 . S
C2651 C2643 1.503 . S
C2651 C2650 1.370 . S
C2651 C2652 1.403 . S
C2652 C2651 1.403 . S
C2652 C2653 1.404 . S
C2652 C2655 1.539 . S
C2653 C2649 1.408 . S
C2653 C2652 1.404 . S
C2653 H2665 0.930 . S
C2654 C2650 1.524 . S
C2654 H2666 0.956 . S
C2654 H2667 0.961 . S
C2654 H2668 0.961 . S
C2655 C2652 1.539 . S
C2655 H2669 0.958 . S
C2655 H2670 0.961 . S
C2655 H2671 0.960 . S
H2656 C2640 0.931 . S
H2657 C2645 0.929 . S
H2658 C2646 0.960 . S
H2659 C2646 0.962 . S
H2660 C2646 0.960 . S
H2661 C2647 0.961 . S
H2662 C2647 0.961 . S
H2663 C2647 0.961 . S
H2664 C2648 0.931 . S
H2665 C2653 0.930 . S
H2666 C2654 0.956 . S
H2667 C2654 0.961 . S
H2668 C2654 0.961 . S
H2669 C2655 0.958 . S
H2670 C2655 0.961 . S
H2671 C2655 0.960 . S
C2672 C2673 1.391 . S
C2672 C2674 1.394 . S
C2672 H2688 0.931 . S
C2673 C2672 1.391 . S
C2673 C2677 1.376 . S
C2674 C2672 1.394 . S
C2674 C2675 1.369 . S
C2674 C2678 1.531 . S
C2675 C2674 1.369 . S
C2675 C2676 1.410 . S
C2675 C2683 1.503 . S
C2676 C2675 1.410 . S
C2676 C2677 1.392 . S
C2676 C2679 1.511 . S
C2677 C2673 1.376 . S
C2677 C2676 1.392 . S
C2677 H2689 0.929 . S
C2678 C2674 1.531 . S
C2678 H2690 0.960 . S
C2678 H2691 0.962 1_554 S
C2678 H2692 0.960 . S
C2679 C2676 1.511 . S
C2679 H2693 0.961 . S
C2679 H2694 0.961 . S
C2679 H2695 0.961 . S
C2680 C2681 1.370 . S
C2680 C2682 1.363 . S
C2680 H2696 0.931 1_554 S
C2681 C2680 1.370 . S
C2681 C2685 1.408 . S
C2682 C2680 1.363 . S
C2682 C2683 1.370 . S
C2682 C2686 1.524 1_554 S
C2683 C2675 1.503 . S
C2683 C2682 1.370 . S
C2683 C2684 1.403 . S
C2684 C2683 1.403 . S
C2684 C2685 1.404 . S
C2684 C2687 1.539 . S
C2685 C2681 1.408 . S
C2685 C2684 1.404 . S
C2685 H2697 0.930 . S
C2686 C2682 1.524 1_556 S
C2686 H2698 0.956 . S
C2686 H2699 0.961 . S
C2686 H2700 0.961 . S
C2687 C2684 1.539 . S
C2687 H2701 0.958 . S
C2687 H2702 0.961 . S
C2687 H2703 0.960 . S
H2688 C2672 0.931 . S
H2689 C2677 0.929 . S
H2690 C2678 0.960 . S
H2691 C2678 0.962 1_556 S
H2692 C2678 0.960 . S
H2693 C2679 0.961 . S
H2694 C2679 0.961 . S
H2695 C2679 0.961 . S
H2696 C2680 0.931 1_556 S
H2697 C2685 0.930 . S
H2698 C2686 0.956 . S
H2699 C2686 0.961 . S
H2700 C2686 0.961 . S
H2701 C2687 0.958 . S
H2702 C2687 0.961 . S
H2703 C2687 0.960 . S
C2704 C2705 1.391 . S
C2704 C2706 1.394 1_545 S
C2704 H2720 0.931 1_554 S
C2705 C2704 1.391 . S
C2705 C2709 1.376 1_545 S
C2706 C2704 1.394 1_565 S
C2706 C2707 1.369 . S
C2706 C2710 1.531 1_554 S
C2707 C2706 1.369 . S
C2707 C2708 1.410 . S
C2707 C2715 1.503 . S
C2708 C2707 1.410 . S
C2708 C2709 1.392 . S
C2708 C2711 1.511 . S
C2709 C2705 1.376 1_565 S
C2709 C2708 1.392 . S
C2709 H2721 0.929 . S
C2710 C2706 1.531 1_556 S
C2710 H2722 0.960 . S
C2710 H2723 0.962 . S
C2710 H2724 0.960 1_565 S
C2711 C2708 1.511 . S
C2711 H2725 0.961 . S
C2711 H2726 0.961 . S
C2711 H2727 0.961 . S
C2712 C2713 1.370 . S
C2712 C2714 1.363 . S
C2712 H2728 0.931 . S
C2713 C2712 1.370 . S
C2713 C2717 1.408 . S
C2714 C2712 1.363 . S
C2714 C2715 1.370 . S
C2714 C2718 1.524 . S
C2715 C2707 1.503 . S
C2715 C2714 1.370 . S
C2715 C2716 1.403 . S
C2716 C2715 1.403 . S
C2716 C2717 1.404 . S
C2716 C2719 1.539 . S
C2717 C2713 1.408 . S
C2717 C2716 1.404 . S
C2717 H2729 0.930 . S
C2718 C2714 1.524 . S
C2718 H2730 0.956 1_554 S
C2718 H2731 0.961 . S
C2718 H2732 0.961 . S
C2719 C2716 1.539 . S
C2719 H2733 0.958 1_565 S
C2719 H2734 0.961 . S
C2719 H2735 0.960 1_565 S
H2720 C2704 0.931 1_556 S
H2721 C2709 0.929 . S
H2722 C2710 0.960 . S
H2723 C2710 0.962 . S
H2724 C2710 0.960 1_545 S
H2725 C2711 0.961 . S
H2726 C2711 0.961 . S
H2727 C2711 0.961 . S
H2728 C2712 0.931 . S
H2729 C2717 0.930 . S
H2730 C2718 0.956 1_556 S
H2731 C2718 0.961 . S
H2732 C2718 0.961 . S
H2733 C2719 0.958 1_545 S
H2734 C2719 0.961 . S
H2735 C2719 0.960 1_545 S
C1209 C193 1.510 . S
C1201 C50 1.509 . S
C1241 C252 1.498 . S
C1233 C61 1.491 . S
C1265 C67 1.501 . S
C1273 C369 1.510 . S
C1305 C437 1.505 . S
C1297 C41 1.502 . S
C1337 C516 1.500 . S
C1329 C95 1.492 . S
C1369 C641 1.518 . S
C1361 C113 1.511 . S
C1393 C106 1.484 . S
C1401 C701 1.489 . S
C1433 C809 1.516 . S
C1425 C86 1.512 . S
C1457 C104 1.489 . S
C1465 C905 1.497 . S
C1497 C965 1.516 . S
C1489 C88 1.508 . S
C1521 C94 1.510 . S
C1529 C868 1.520 . S
C1561 C985 1.504 . S
C1553 C112 1.494 . S
C1585 C70 1.488 . S
C1593 C1053 1.497 . S
C1617 C40 1.514 . S
C1625 C1044 1.513 . S
C1649 C49 1.508 . S
C1657 C1073 1.507 . S
C1681 C59 1.516 . S
C1689 C1081 1.516 . S
C1713 C34 1.488 . S
C1721 C465 1.495 . S
C1745 C133 1.498 . S
C1753 C428 1.498 . S
C1785 C164 1.514 . S
C1777 C139 1.505 . S
C1817 C261 1.510 . S
C1809 C77 1.505 . S
C1841 C43 1.488 . S
C1849 C525 1.499 . S
C1881 C817 1.504 . S
C1873 C103 1.490 . S
C1913 C545 1.527 . S
C1905 C85 1.524 . S
C1945 C729 1.495 . S
C1937 C115 1.494 . S
C1977 C721 1.510 . S
C1969 C131 1.507 . S
C2001 C142 1.497 . S
C2009 C789 1.499 . S
C2033 C76 1.505 . S
C2041 C553 1.508 . S
C2073 C604 1.507 . S
C2065 C122 1.494 . S
C2097 C32 1.497 . S
C2105 C349 1.499 . S
C2137 C457 1.519 . S
C2129 C5 1.511 . S
C2169 C173 1.489 . S
C2161 C16 1.480 . S
C2201 C289 1.518 . S
C2193 C23 1.510 . S
C2225 C14 1.494 . S
C2233 C993 1.495 . S
C2257 C25 1.507 . S
C2265 C877 1.516 . S
C2289 C31 1.518 . S
C2297 C956 1.517 . S
C2321 C4 1.493 . S
C2329 C897 1.504 . S
C2361 C1141 1.497 . S
C2353 C79 1.489 . S
C2393 C1132 1.515 . S
C2385 C121 1.505 . S
C2425 C1161 1.510 . S
C2417 C130 1.501 . S
C2449 C140 1.517 . S
C2457 C1169 1.515 . S
C2481 C97 1.487 . S
C2489 C633 1.496 . S
C2521 C613 1.499 . S
C2513 C52 1.497 . S
C2553 C692 1.514 . S
C2545 C58 1.508 . S
C2585 C780 1.510 . S
C2577 C68 1.512 . S
C2609 C124 1.493 . S
C2617 C340 1.500 . S
C2649 C281 1.502 . S
C2641 C13 1.502 . S
C2673 C22 1.519 . S
C2681 C377 1.527 . S
C2713 C201 1.497 . S
C2705 C7 1.485 . S
