# Generated by pormake.
# Topology nom, (4,4)-cn, num edge types: 1
# Building blocks:
#     Node 0, Type 0, BuildingBlock: NAHDIM_clean_linker_0, # of connection points: 4
#     Node 1, Type 0, BuildingBlock: NAHDIM_clean_linker_0, # of connection points: 4
#     Node 2, Type 0, BuildingBlock: NAHDIM_clean_linker_0, # of connection points: 4
#     Node 3, Type 0, BuildingBlock: NAHDIM_clean_linker_0, # of connection points: 4
#     Node 4, Type 0, BuildingBlock: NAHDIM_clean_linker_0, # of connection points: 4
#     Node 5, Type 0, BuildingBlock: NAHDIM_clean_linker_0, # of connection points: 4
#     Node 6, Type 1, BuildingBlock: CEKHIL_clean_sbu_0, # of connection points: 4
#     Node 7, Type 1, BuildingBlock: CEKHIL_clean_sbu_0, # of connection points: 4
#     Node 8, Type 1, BuildingBlock: CEKHIL_clean_sbu_0, # of connection points: 4
#     Node 9, Type 1, BuildingBlock: CEKHIL_clean_sbu_0, # of connection points: 4
#     Node 10, Type 1, BuildingBlock: CEKHIL_clean_sbu_0, # of connection points: 4
#     Node 11, Type 1, BuildingBlock: CEKHIL_clean_sbu_0, # of connection points: 4
#     Edge 12, Type (0, 1), BuildingBlock: CIFDUS_clean_linker_0, # of connection points: 2
#     Edge 13, Type (0, 1), BuildingBlock: CIFDUS_clean_linker_0, # of connection points: 2
#     Edge 14, Type (0, 1), BuildingBlock: CIFDUS_clean_linker_0, # of connection points: 2
#     Edge 15, Type (0, 1), BuildingBlock: CIFDUS_clean_linker_0, # of connection points: 2
#     Edge 16, Type (0, 1), BuildingBlock: CIFDUS_clean_linker_0, # of connection points: 2
#     Edge 17, Type (0, 1), BuildingBlock: CIFDUS_clean_linker_0, # of connection points: 2
#     Edge 18, Type (0, 1), BuildingBlock: CIFDUS_clean_linker_0, # of connection points: 2
#     Edge 19, Type (0, 1), BuildingBlock: CIFDUS_clean_linker_0, # of connection points: 2
#     Edge 20, Type (0, 1), BuildingBlock: CIFDUS_clean_linker_0, # of connection points: 2
#     Edge 21, Type (0, 1), BuildingBlock: CIFDUS_clean_linker_0, # of connection points: 2
#     Edge 22, Type (0, 1), BuildingBlock: CIFDUS_clean_linker_0, # of connection points: 2
#     Edge 23, Type (0, 1), BuildingBlock: CIFDUS_clean_linker_0, # of connection points: 2
#     Edge 24, Type (0, 1), BuildingBlock: CIFDUS_clean_linker_0, # of connection points: 2
#     Edge 25, Type (0, 1), BuildingBlock: CIFDUS_clean_linker_0, # of connection points: 2
#     Edge 26, Type (0, 1), BuildingBlock: CIFDUS_clean_linker_0, # of connection points: 2
#     Edge 27, Type (0, 1), BuildingBlock: CIFDUS_clean_linker_0, # of connection points: 2
#     Edge 28, Type (0, 1), BuildingBlock: CIFDUS_clean_linker_0, # of connection points: 2
#     Edge 29, Type (0, 1), BuildingBlock: CIFDUS_clean_linker_0, # of connection points: 2
#     Edge 30, Type (0, 1), BuildingBlock: CIFDUS_clean_linker_0, # of connection points: 2
#     Edge 31, Type (0, 1), BuildingBlock: CIFDUS_clean_linker_0, # of connection points: 2
#     Edge 32, Type (0, 1), BuildingBlock: CIFDUS_clean_linker_0, # of connection points: 2
#     Edge 33, Type (0, 1), BuildingBlock: CIFDUS_clean_linker_0, # of connection points: 2
#     Edge 34, Type (0, 1), BuildingBlock: CIFDUS_clean_linker_0, # of connection points: 2
#     Edge 35, Type (0, 1), BuildingBlock: CIFDUS_clean_linker_0, # of connection points: 2
# Relax obj value: 0.044
# Max RMSD: 0.129
# Mean RMSD: 0.097
data_MOF--net-nom--node1-CEKHIL_clean_sbu_0--node2-NAHDIM_clean_linker_0--edge1-CIFDUS_clean_linker_0
_symmetry_space_group_name_H-M    P1
_symmetry_Int_Tables_number       1
_symmetry_cell_setting            triclinic
loop_
_symmetry_equiv_pos_as_xyz
'x, y, z'
_cell_length_a     53.403575
_cell_length_b     52.823724
_cell_length_c     64.037995
_cell_angle_alpha  90.150447
_cell_angle_beta   90.119423
_cell_angle_gamma 121.21659
loop_
_atom_site_label
_atom_site_type_symbol
_atom_site_fract_x
_atom_site_fract_y
_atom_site_fract_z
_atom_type_partial_charge
C0 C 0.18204 0.60011 0.23415 0.0
C1 C 0.18872 0.61472 0.25585 0.0
C2 C 0.13968 0.60036 0.26859 0.0
C3 C 0.12973 0.57018 0.2716 0.0
C4 C 0.10083 0.55026 0.2778 0.0
C5 C 0.08156 0.56067 0.28116 0.0
C6 C 0.09166 0.59109 0.27868 0.0
C7 C 0.12065 0.61053 0.27246 0.0
C8 C 0.09074 0.51797 0.28047 0.0
C9 C 0.07169 0.60297 0.28228 0.0
C10 C 0.89321 0.44002 0.17571 0.0
C11 C 0.90779 0.45781 0.19473 0.0
C12 C 0.94353 0.46388 0.22117 0.0
C13 C 0.94821 0.49097 0.22889 0.0
C14 C 0.96725 0.50527 0.24576 0.0
C15 C 0.9816 0.49206 0.25525 0.0
C16 C 0.97722 0.465 0.24739 0.0
C17 C 0.95826 0.45131 0.23037 0.0
C18 C 0.97194 0.53444 0.25352 0.0
C19 C 0.99245 0.4505 0.25706 0.0
C20 C 0.86618 0.45241 0.36935 0.0
C21 C 0.88229 0.48177 0.36277 0.0
C22 C 0.91218 0.49516 0.35818 0.0
C23 C 0.92612 0.47867 0.36042 0.0
C24 C 0.90988 0.44899 0.36729 0.0
C25 C 0.88004 0.43623 0.37185 0.0
C26 C 0.9289 0.52696 0.35105 0.0
C27 C 0.92412 0.43088 0.36994 0.0
C28 C 0.13571 0.58941 0.42155 0.0
C29 C 0.11384 0.57009 0.43843 0.0
C30 C 0.06795 0.55734 0.42088 0.0
C31 C 0.05318 0.57124 0.41409 0.0
C32 C 0.03326 0.5597 0.39736 0.0
C33 C 0.02745 0.5331 0.38763 0.0
C34 C 0.04117 0.51808 0.39514 0.0
C35 C 0.06148 0.53047 0.41156 0.0
C36 C 0.01892 0.57622 0.38979 0.0
C37 C 0.03455 0.48901 0.38569 0.0
C38 C 0.05047 0.53963 0.28641 0.0
C39 C 0.03094 0.5252 0.26992 0.0
C40 C 0.00103 0.50645 0.27353 0.0
C41 C 0.99004 0.50224 0.2941 0.0
C42 C 0.9599 0.48444 0.2982 0.0
C43 C 0.94925 0.48133 0.31843 0.0
C44 C 0.96841 0.49531 0.33537 0.0
C45 C 0.95781 0.49282 0.35592 0.0
C46 C 0.9775 0.5053 0.37259 0.0
C47 C 0.00771 0.52135 0.36921 0.0
C48 C 0.01869 0.52582 0.34861 0.0
C49 C 0.04885 0.5435 0.34452 0.0
C50 C 0.05936 0.54806 0.32417 0.0
C51 C 0.04013 0.53479 0.30717 0.0
C52 C 0.00973 0.51638 0.31098 0.0
C53 C 0.99895 0.51239 0.33167 0.0
C54 C 0.80401 0.38822 0.37146 0.0
C55 C 0.81457 0.41903 0.36249 0.0
O56 O 0.16708 0.6203 0.26173 0.0
O57 O 0.08817 0.57048 0.43637 0.0
O58 O 0.83763 0.4405 0.37431 0.0
O59 O 0.92512 0.44927 0.20495 0.0
H60 H 0.18997 0.59968 0.26736 0.0
H61 H 0.16153 0.57814 0.23439 0.0
H62 H 0.17941 0.61403 0.22242 0.0
H63 H 0.20007 0.59681 0.22917 0.0
H64 H 0.14412 0.56181 0.26895 0.0
H65 H 0.12853 0.63382 0.27026 0.0
H66 H 0.07377 0.50464 0.26855 0.0
H67 H 0.10895 0.51371 0.27885 0.0
H68 H 0.08058 0.51023 0.29607 0.0
H69 H 0.08273 0.6271 0.27919 0.0
H70 H 0.05211 0.59117 0.27201 0.0
H71 H 0.06393 0.59884 0.29868 0.0
H72 H 0.89332 0.46111 0.2055 0.0
H73 H 0.91237 0.47095 0.15117 0.0
H74 H 0.89453 0.41943 0.17669 0.0
H75 H 0.86909 0.42815 0.17929 0.0
H76 H 0.93713 0.50112 0.22183 0.0
H77 H 0.95467 0.43053 0.22424 0.0
H78 H 0.96365 0.53184 0.26973 0.0
H79 H 0.9957 0.55132 0.25388 0.0
H80 H 0.96061 0.54273 0.24362 0.0
H81 H 0.98604 0.429 0.24951 0.0
H82 H 0.01652 0.46545 0.25569 0.0
H83 H 0.9872 0.44674 0.27396 0.0
H84 H 0.82179 0.41964 0.34607 0.0
H85 H 0.87133 0.49413 0.36121 0.0
H86 H 0.86776 0.41388 0.37775 0.0
H87 H 0.93694 0.52806 0.3349 0.0
H88 H 0.91524 0.5372 0.35125 0.0
H89 H 0.94833 0.54017 0.36123 0.0
H90 H 0.90807 0.40753 0.37412 0.0
H91 H 0.93531 0.43116 0.35526 0.0
H92 H 0.94104 0.44085 0.3824 0.0
H93 H 0.10923 0.54713 0.43676 0.0
H94 H 0.15654 0.58967 0.42334 0.0
H95 H 0.12661 0.58044 0.40582 0.0
H96 H 0.14038 0.61248 0.4226 0.0
H97 H 0.05803 0.59175 0.42155 0.0
H98 H 0.07185 0.51881 0.41712 0.0
H99 H 0.02291 0.58072 0.37281 0.0
H100 H 0.99488 0.56234 0.39205 0.0
H101 H 0.02715 0.59755 0.39819 0.0
H102 H 0.04423 0.47836 0.39489 0.0
H103 H 0.0105 0.47351 0.38458 0.0
H104 H 0.04348 0.49283 0.36961 0.0
H105 H 0.03908 0.5289 0.25402 0.0
H106 H 0.94415 0.47304 0.28578 0.0
H107 H 0.92581 0.46768 0.32064 0.0
H108 H 0.9692 0.50274 0.38838 0.0
H109 H 0.06467 0.55432 0.35699 0.0
H110 H 0.08276 0.56206 0.32192 0.0
H111 H 0.7995 0.38774 0.38844 0.0
H112 H 0.78371 0.3712 0.3634 0.0
H113 H 0.82066 0.382 0.36906 0.0
C114 C 0.42307 0.82831 0.57847 0.0
C115 C 0.41215 0.82458 0.55583 0.0
C116 C 0.42476 0.8746 0.54544 0.0
C117 C 0.45526 0.88678 0.54459 0.0
C118 C 0.47417 0.91649 0.53915 0.0
C119 C 0.46241 0.93439 0.53445 0.0
C120 C 0.4318 0.92224 0.53512 0.0
C121 C 0.41338 0.89246 0.54062 0.0
C122 C 0.50675 0.92883 0.53849 0.0
C123 C 0.41858 0.94077 0.53008 0.0
C124 C 0.57209 0.12726 0.63867 0.0
C125 C 0.5546 0.11218 0.61968 0.0
C126 C 0.55098 0.07689 0.59318 0.0
C127 C 0.52399 0.07081 0.58489 0.0
C128 C 0.5109 0.05095 0.56813 0.0
C129 C 0.52515 0.03709 0.55948 0.0
C130 C 0.55216 0.04298 0.56792 0.0
C131 C 0.56469 0.06281 0.5847 0.0
C132 C 0.48197 0.04493 0.55954 0.0
C133 C 0.56784 0.02841 0.55913 0.0
C134 C 0.57432 0.14874 0.44247 0.0
C135 C 0.54398 0.12999 0.44243 0.0
C136 C 0.53094 0.10003 0.44753 0.0
C137 C 0.54888 0.08838 0.45236 0.0
C138 C 0.57971 0.10714 0.45225 0.0
C139 C 0.59217 0.13729 0.4476 0.0
C140 C 0.49796 0.08084 0.44748 0.0
C141 C 0.59945 0.09533 0.45704 0.0
C142 C 0.4343 0.94699 0.35228 0.0
C143 C 0.43082 0.92121 0.36556 0.0
C144 C 0.46833 0.94718 0.39268 0.0
C145 C 0.45294 0.95791 0.40379 0.0
C146 C 0.46558 0.97675 0.42104 0.0
C147 C 0.49425 0.98521 0.4274 0.0
C148 C 0.50983 0.97447 0.41641 0.0
C149 C 0.49658 0.95547 0.39921 0.0
C150 C 0.4482 0.98762 0.4325 0.0
C151 C 0.54045 0.98312 0.42284 0.0
C152 C 0.48218 0.96595 0.52905 0.0
C153 C 0.49393 0.98651 0.54537 0.0
C154 C 0.51214 0.0167 0.5414 0.0
C155 C 0.51831 0.02689 0.52058 0.0
C156 C 0.53538 0.05725 0.51602 0.0
C157 C 0.54077 0.06707 0.49548 0.0
C158 C 0.53007 0.04687 0.4787 0.0
C159 C 0.5351 0.05662 0.45775 0.0
C160 C 0.52432 0.03596 0.44145 0.0
C161 C 0.50785 0.00559 0.44545 0.0
C162 C 0.50218 0.99539 0.46629 0.0
C163 C 0.48517 0.96502 0.47086 0.0
C164 C 0.4786 0.95529 0.4914 0.0
C165 C 0.48913 0.97553 0.50814 0.0
C166 C 0.507 0.00618 0.5039 0.0
C167 C 0.51333 0.01614 0.48295 0.0
C168 C 0.62962 0.19964 0.4175 0.0
C169 C 0.61393 0.20057 0.43727 0.0
O170 O 0.40559 0.84603 0.55095 0.0
O171 O 0.45694 0.92917 0.37562 0.0
O172 O 0.58509 0.17743 0.43719 0.0
O173 O 0.56454 0.09605 0.60927 0.0
H174 H 0.42955 0.82652 0.54524 0.0
H175 H 0.44376 0.84986 0.58059 0.0
H176 H 0.40667 0.82757 0.5895 0.0
H177 H 0.42736 0.81046 0.58253 0.0
H178 H 0.46467 0.87348 0.54826 0.0
H179 H 0.38989 0.88293 0.54125 0.0
H180 H 0.51784 0.94665 0.55037 0.0
H181 H 0.51238 0.91167 0.54156 0.0
H182 H 0.5155 0.93881 0.52298 0.0
H183 H 0.39439 0.9282 0.5318 0.0
H184 H 0.42806 0.96045 0.54053 0.0
H185 H 0.42407 0.94893 0.51379 0.0
H186 H 0.55024 0.12623 0.60912 0.0
H187 H 0.54221 0.10621 0.6634 0.0
H188 H 0.59322 0.12741 0.63738 0.0
H189 H 0.58256 0.1516 0.6353 0.0
H190 H 0.51308 0.08149 0.59138 0.0
H191 H 0.58541 0.06755 0.59126 0.0
H192 H 0.4657 0.02079 0.55993 0.0
H193 H 0.47318 0.0567 0.56843 0.0
H194 H 0.48468 0.05199 0.54297 0.0
H195 H 0.58886 0.03558 0.56733 0.0
H196 H 0.55362 0.004 0.56044 0.0
H197 H 0.57237 0.03375 0.54229 0.0
H198 H 0.6254 0.19912 0.45134 0.0
H199 H 0.53044 0.13905 0.43842 0.0
H200 H 0.61573 0.15155 0.44785 0.0
H201 H 0.49014 0.06668 0.4616 0.0
H202 H 0.48732 0.09416 0.44683 0.0
H203 H 0.49087 0.06611 0.43359 0.0
H204 H 0.62289 0.11204 0.45425 0.0
H205 H 0.59685 0.08845 0.47364 0.0
H206 H 0.59315 0.07545 0.44731 0.0
H207 H 0.41337 0.91525 0.37733 0.0
H208 H 0.45191 0.95364 0.34054 0.0
H209 H 0.41346 0.94048 0.34405 0.0
H210 H 0.44004 0.96649 0.36225 0.0
H211 H 0.43109 0.95194 0.39916 0.0
H212 H 0.50836 0.94718 0.39064 0.0
H213 H 0.4443 0.97937 0.4488 0.0
H214 H 0.46081 0.01214 0.43321 0.0
H215 H 0.4267 0.98018 0.42497 0.0
H216 H 0.54932 0.97213 0.41311 0.0
H217 H 0.55518 0.00747 0.42149 0.0
H218 H 0.5406 0.97723 0.43946 0.0
H219 H 0.48894 0.97889 0.5614 0.0
H220 H 0.54437 0.07381 0.52829 0.0
H221 H 0.55358 0.09073 0.49294 0.0
H222 H 0.52777 0.04365 0.42542 0.0
H223 H 0.47648 0.94845 0.4586 0.0
H224 H 0.46516 0.93167 0.49398 0.0
H225 H 0.61835 0.20089 0.40328 0.0
H226 H 0.65265 0.2185 0.41751 0.0
H227 H 0.62997 0.17885 0.41673 0.0
C228 C 0.58496 0.41709 0.75175 0.0
C229 C 0.57952 0.40389 0.72963 0.0
C230 C 0.54568 0.41734 0.71434 0.0
C231 C 0.56606 0.44794 0.71282 0.0
C232 C 0.55744 0.46738 0.70565 0.0
C233 C 0.52799 0.45603 0.69971 0.0
C234 C 0.50766 0.42521 0.70059 0.0
C235 C 0.51681 0.4063 0.70793 0.0
C236 C 0.57966 0.50014 0.70472 0.0
C237 C 0.47614 0.41235 0.6941 0.0
C238 C 0.42095 0.54109 0.79806 0.0
C239 C 0.42375 0.52758 0.77853 0.0
C240 C 0.46207 0.53211 0.75515 0.0
C241 C 0.44373 0.50582 0.74403 0.0
C242 C 0.4548 0.49669 0.72774 0.0
C243 C 0.48476 0.51421 0.72243 0.0
C244 C 0.50333 0.54053 0.73369 0.0
C245 C 0.49168 0.54914 0.74993 0.0
C246 C 0.43448 0.46838 0.7161 0.0
C247 C 0.5354 0.5596 0.72846 0.0
C248 C 0.44 0.57463 0.60613 0.0
C249 C 0.42479 0.54433 0.61017 0.0
C250 C 0.43989 0.52973 0.61451 0.0
C251 C 0.47092 0.54604 0.61475 0.0
C252 C 0.48634 0.57661 0.61005 0.0
C253 C 0.47062 0.59056 0.60565 0.0
C254 C 0.42271 0.49701 0.61915 0.0
C255 C 0.51936 0.59455 0.60991 0.0
C256 C 0.59044 0.45508 0.56215 0.0
C257 C 0.58463 0.47057 0.54422 0.0
C258 C 0.5465 0.47685 0.56055 0.0
C259 C 0.51635 0.46197 0.56405 0.0
C260 C 0.50455 0.47117 0.57982 0.0
C261 C 0.52344 0.49643 0.59199 0.0
C262 C 0.55385 0.51248 0.58785 0.0
C263 C 0.56514 0.50234 0.57236 0.0
C264 C 0.47201 0.45356 0.58376 0.0
C265 C 0.57451 0.5402 0.59997 0.0
C266 C 0.51799 0.47644 0.69365 0.0
C267 C 0.50796 0.48717 0.7095 0.0
C268 C 0.49652 0.50504 0.70494 0.0
C269 C 0.49503 0.51259 0.68401 0.0
C270 C 0.48326 0.5302 0.67888 0.0
C271 C 0.48086 0.53657 0.65819 0.0
C272 C 0.49037 0.52577 0.64183 0.0
C273 C 0.48708 0.53126 0.62072 0.0
C274 C 0.49809 0.52153 0.60487 0.0
C275 C 0.51162 0.50555 0.6095 0.0
C276 C 0.51369 0.49845 0.63049 0.0
C277 C 0.52567 0.48101 0.63566 0.0
C278 C 0.52725 0.47386 0.65634 0.0
C279 C 0.51707 0.48403 0.67264 0.0
C280 C 0.50529 0.50198 0.6678 0.0
C281 C 0.50325 0.50886 0.6467 0.0
C282 C 0.44366 0.63899 0.61049 0.0
C283 C 0.42211 0.60656 0.61608 0.0
O284 O 0.55259 0.39776 0.72213 0.0
O285 O 0.55657 0.46577 0.54578 0.0
O286 O 0.42484 0.58811 0.60206 0.0
O287 O 0.45214 0.54178 0.77095 0.0
H288 H 0.59722 0.42016 0.71925 0.0
H289 H 0.58661 0.4389 0.75158 0.0
H290 H 0.56682 0.40233 0.76239 0.0
H291 H 0.60586 0.42044 0.75811 0.0
H292 H 0.58861 0.45703 0.71744 0.0
H293 H 0.5013 0.3827 0.70898 0.0
H294 H 0.57318 0.51213 0.71562 0.0
H295 H 0.60205 0.50539 0.70893 0.0
H296 H 0.58012 0.50853 0.68875 0.0
H297 H 0.46326 0.38781 0.69514 0.0
H298 H 0.46579 0.42144 0.70424 0.0
H299 H 0.47511 0.41886 0.6778 0.0
H300 H 0.40706 0.52304 0.76626 0.0
H301 H 0.40935 0.50779 0.82071 0.0
H302 H 0.44127 0.56378 0.79937 0.0
H303 H 0.40626 0.54974 0.79381 0.0
H304 H 0.42076 0.49235 0.74795 0.0
H305 H 0.50567 0.56931 0.75864 0.0
H306 H 0.43352 0.47333 0.69938 0.0
H307 H 0.44305 0.45323 0.71688 0.0
H308 H 0.41191 0.4568 0.72251 0.0
H309 H 0.54691 0.57955 0.73861 0.0
H310 H 0.54617 0.54651 0.7302 0.0
H311 H 0.53788 0.56675 0.71191 0.0
H312 H 0.42712 0.60256 0.63224 0.0
H313 H 0.40106 0.53225 0.61017 0.0
H314 H 0.48222 0.61381 0.60173 0.0
H315 H 0.42544 0.49347 0.63588 0.0
H316 H 0.39896 0.48692 0.61586 0.0
H317 H 0.43115 0.48533 0.60975 0.0
H318 H 0.52806 0.61839 0.60689 0.0
H319 H 0.52801 0.59235 0.62515 0.0
H320 H 0.52766 0.58588 0.59765 0.0
H321 H 0.60098 0.4947 0.54482 0.0
H322 H 0.61263 0.45828 0.56069 0.0
H323 H 0.5893 0.46446 0.5774 0.0
H324 H 0.5739 0.43097 0.56204 0.0
H325 H 0.50211 0.44251 0.55475 0.0
H326 H 0.58846 0.51454 0.56962 0.0
H327 H 0.46775 0.44697 0.60044 0.0
H328 H 0.46252 0.46753 0.5805 0.0
H329 H 0.46056 0.43333 0.57387 0.0
H330 H 0.59675 0.5523 0.59303 0.0
H331 H 0.56581 0.55526 0.6006 0.0
H332 H 0.57639 0.53424 0.61626 0.0
H333 H 0.50853 0.48104 0.72558 0.0
H334 H 0.47549 0.53904 0.6908 0.0
H335 H 0.47141 0.55006 0.65518 0.0
H336 H 0.49587 0.52623 0.58871 0.0
H337 H 0.53371 0.47242 0.62377 0.0
H338 H 0.53652 0.46022 0.65939 0.0
H339 H 0.44051 0.64332 0.59401 0.0
H340 H 0.44052 0.65401 0.62086 0.0
H341 H 0.46653 0.64444 0.61264 0.0
C342 C 0.19724 0.58253 0.90607 0.0
C343 C 0.19821 0.57259 0.88368 0.0
C344 C 0.14646 0.53797 0.87486 0.0
C345 C 0.1387 0.5596 0.87272 0.0
C346 C 0.10998 0.55165 0.86761 0.0
C347 C 0.08834 0.52146 0.86485 0.0
C348 C 0.0959 0.49959 0.86712 0.0
C349 C 0.12494 0.5082 0.87194 0.0
C350 C 0.10272 0.57559 0.86529 0.0
C351 C 0.07329 0.46714 0.86452 0.0
C352 C 0.95078 0.53936 0.9635 0.0
C353 C 0.94936 0.50998 0.9596 0.0
C354 C 0.95761 0.50131 0.92402 0.0
C355 C 0.95555 0.47526 0.91699 0.0
C356 C 0.97353 0.47588 0.9008 0.0
C357 C 0.99342 0.50318 0.89118 0.0
C358 C 0.99539 0.52957 0.89827 0.0
C359 C 0.97748 0.52832 0.91472 0.0
C360 C 0.97102 0.44736 0.89377 0.0
C361 C 0.01601 0.55897 0.8882 0.0
C362 C 0.87281 0.44371 0.78061 0.0
C363 C 0.88072 0.42517 0.79034 0.0
C364 C 0.9103 0.4344 0.79324 0.0
C365 C 0.93225 0.46323 0.78693 0.0
C366 C 0.92416 0.48171 0.77672 0.0
C367 C 0.89443 0.47139 0.77332 0.0
C368 C 0.91798 0.41342 0.80322 0.0
C369 C 0.9468 0.51251 0.76971 0.0
C370 C 0.07694 0.45424 0.68688 0.0
C371 C 0.08649 0.48478 0.696 0.0
C372 C 0.05341 0.48698 0.72095 0.0
C373 C 0.04366 0.46291 0.73446 0.0
C374 C 0.03063 0.46241 0.7536 0.0
C375 C 0.02799 0.48683 0.75937 0.0
C376 C 0.03919 0.51174 0.74612 0.0
C377 C 0.05129 0.51123 0.72684 0.0
C378 C 0.01836 0.43526 0.76717 0.0
C379 C 0.03738 0.53844 0.75197 0.0
C380 C 0.05771 0.51283 0.85998 0.0
C381 C 0.03989 0.51131 0.87651 0.0
C382 C 0.01103 0.50393 0.87303 0.0
C383 C -0.00067 0.49746 0.85256 0.0
C384 C 0.97043 0.49015 0.84852 0.0
C385 C 0.95879 0.48291 0.82846 0.0
C386 C 0.97558 0.4827 0.81166 0.0
C387 C 0.96355 0.47418 0.79136 0.0
C388 C 0.98121 0.47549 0.77486 0.0
C389 C 0.01072 0.48505 0.778 0.0
C390 C 0.02294 0.49274 0.79829 0.0
C391 C 0.05238 0.50185 0.8021 0.0
C392 C 0.0639 0.5086 0.82227 0.0
C393 C 0.04646 0.50666 0.83935 0.0
C394 C 0.01701 0.49849 0.83572 0.0
C395 C 0.00518 0.49132 0.81521 0.0
C396 C 0.81039 0.44435 0.79501 0.0
C397 C 0.82413 0.42515 0.79421 0.0
O398 O 0.1741 0.54468 0.87982 0.0
O399 O 0.06195 0.48585 0.7013 0.0
O400 O 0.84438 0.43537 0.77817 0.0
O401 O 0.93977 0.50004 0.93947 0.0
H402 H 0.19811 0.58886 0.87275 0.0
H403 H 0.17801 0.58504 0.90811 0.0
H404 H 0.19553 0.56606 0.91761 0.0
H405 H 0.21728 0.60428 0.90946 0.0
H406 H 0.15472 0.58277 0.87507 0.0
H407 H 0.13096 0.49162 0.87364 0.0
H408 H 0.08833 0.574 0.87834 0.0
H409 H 0.12259 0.59813 0.86547 0.0
H410 H 0.09059 0.57254 0.85048 0.0
H411 H 0.08215 0.45278 0.8684 0.0
H412 H 0.05415 0.46103 0.87467 0.0
H413 H 0.06534 0.46267 0.84812 0.0
H414 H 0.97201 0.51438 0.9619 0.0
H415 H 0.95504 0.54555 0.98029 0.0
H416 H 0.96893 0.5573 0.95439 0.0
H417 H 0.93009 0.53793 0.95873 0.0
H418 H 0.93994 0.45449 0.92432 0.0
H419 H 0.97853 0.54831 0.92006 0.0
H420 H 0.96173 0.44181 0.87773 0.0
H421 H 0.99304 0.45001 0.89323 0.0
H422 H 0.95676 0.42858 0.90421 0.0
H423 H 0.01392 0.57722 0.89488 0.0
H424 H 0.03891 0.56444 0.89038 0.0
H425 H 0.01168 0.55759 0.87114 0.0
H426 H 0.83513 0.42764 0.80956 0.0
H427 H 0.86373 0.40343 0.7955 0.0
H428 H 0.88788 0.48531 0.76561 0.0
H429 H 0.92486 0.42029 0.81965 0.0
H430 H 0.89908 0.39028 0.80325 0.0
H431 H 0.93652 0.41401 0.79492 0.0
H432 H 0.93678 0.52544 0.76474 0.0
H433 H 0.96273 0.5247 0.78248 0.0
H434 H 0.95912 0.51099 0.75631 0.0
H435 H 0.10032 0.48851 0.7101 0.0
H436 H 0.09634 0.45274 0.68281 0.0
H437 H 0.06389 0.43673 0.69847 0.0
H438 H 0.06336 0.44995 0.67264 0.0
H439 H 0.0449 0.44396 0.7296 0.0
H440 H 0.05877 0.52959 0.71611 0.0
H441 H 0.02805 0.44155 0.78306 0.0
H442 H 0.99433 0.42521 0.76876 0.0
H443 H 0.02267 0.41836 0.76068 0.0
H444 H 0.05037 0.55737 0.7413 0.0
H445 H 0.0142 0.53253 0.75134 0.0
H446 H 0.04536 0.5455 0.7682 0.0
H447 H 0.04868 0.51614 0.89228 0.0
H448 H 0.95637 0.48972 0.86083 0.0
H449 H 0.93638 0.47734 0.82633 0.0
H450 H 0.97186 0.46907 0.75929 0.0
H451 H 0.06674 0.50357 0.78956 0.0
H452 H 0.08664 0.51525 0.82431 0.0
H453 H 0.79841 0.44215 0.78025 0.0
H454 H 0.79497 0.43789 0.80833 0.0
H455 H 0.8278 0.46795 0.79714 0.0
C456 C 0.4192 0.82198 0.90145 0.0
C457 C 0.42474 0.81658 0.92407 0.0
C458 C 0.4625 0.86617 0.93632 0.0
C459 C 0.44398 0.87769 0.93791 0.0
C460 C 0.45515 0.90728 0.94367 0.0
C461 C 0.48542 0.9258 0.94777 0.0
C462 C 0.50408 0.91428 0.94641 0.0
C463 C 0.49228 0.88451 0.94082 0.0
C464 C 0.43466 0.91891 0.94507 0.0
C465 C 0.53654 0.93355 0.95053 0.0
C466 C 0.57437 0.11914 0.84348 0.0
C467 C 0.56164 0.10579 0.86413 0.0
C468 C 0.54158 0.06004 0.88287 0.0
C469 C 0.56242 0.05778 0.89463 0.0
C470 C 0.55445 0.04073 0.91283 0.0
C471 C 0.52496 0.02592 0.91953 0.0
C472 C 0.50385 0.02838 0.90775 0.0
C473 C 0.51242 0.04529 0.88938 0.0
C474 C 0.57749 0.03816 0.92471 0.0
C475 C 0.47227 0.01295 0.91449 0.0
C476 C 0.57438 0.14719 0.02591 0.0
C477 C 0.59352 0.13693 0.02217 0.0
C478 C 0.58302 0.10648 0.02151 0.0
C479 C 0.55278 0.08604 0.02445 0.0
C480 C 0.53382 0.09641 0.02941 0.0
C481 C 0.54502 0.12697 0.03033 0.0
C482 C 0.604 0.09613 0.01691 0.0
C483 C 0.50155 0.07524 0.03292 0.0
C484 C 0.54577 0.95282 0.12836 0.0
C485 C 0.51912 0.9272 0.11732 0.0
C486 C 0.50821 0.95273 0.08961 0.0
C487 C 0.53291 0.96096 0.07716 0.0
C488 C 0.5381 0.97803 0.0591 0.0
C489 C 0.51785 0.98643 0.05317 0.0
C490 C 0.49267 0.97757 0.06544 0.0
C491 C 0.48832 0.96098 0.08356 0.0
C492 C 0.56531 0.98731 0.04645 0.0
C493 C 0.47047 0.98587 0.05957 0.0
C494 C 0.49773 0.95761 0.95235 0.0
C495 C 0.50437 0.97662 0.9354 0.0
C496 C 0.5162 0.00692 0.93835 0.0
C497 C 0.52139 0.01873 0.95881 0.0
C498 C 0.53264 0.04901 0.96235 0.0
C499 C 0.53861 0.06059 0.9825 0.0
C500 C 0.53375 0.04235 -0.00012 0.0
C501 C 0.54054 0.05409 0.02038 0.0
C502 C 0.53542 0.0354 0.03731 0.0
C503 C 0.52322 0.00496 0.03438 0.0
C504 C 0.51605 0.99275 0.01401 0.0
C505 C 0.50326 0.96218 0.01051 0.0
C506 C 0.49693 0.95053 0.99034 0.0
C507 C 0.5032 0.96902 0.97293 0.0
C508 C 0.51532 -0.00024 0.97614 0.0
C509 C 0.52169 0.01162 0.9967 0.0
C510 C 0.59371 0.21535 0.00186 0.0
C511 C 0.60507 0.19719 0.01228 0.0
O512 O 0.45283 0.83784 0.93028 0.0
O513 O 0.50264 0.93723 0.10764 0.0
O514 O 0.58334 0.17633 0.02512 0.0
O515 O 0.54931 0.07539 0.86476 0.0
H516 H 0.40846 0.81741 0.93439 0.0
H517 H 0.42056 0.84359 0.90011 0.0
H518 H 0.43569 0.82218 0.89079 0.0
H519 H 0.39697 0.80437 0.8963 0.0
H520 H 0.42087 0.86401 0.9345 0.0
H521 H 0.50639 0.87547 0.9396 0.0
H522 H 0.44 0.93545 0.93256 0.0
H523 H 0.41133 0.90107 0.94338 0.0
H524 H 0.4376 0.93028 0.96029 0.0
H525 H 0.54824 0.92149 0.94805 0.0
H526 H 0.54615 0.95313 0.9401 0.0
H527 H 0.54029 0.94182 0.96687 0.0
H528 H 0.54751 0.11314 0.87147 0.0
H529 H 0.61975 0.14634 0.84977 0.0
H530 H 0.56521 0.10039 0.8318 0.0
H531 H 0.56066 0.12826 0.83772 0.0
H532 H 0.5849 0.06904 0.88946 0.0
H533 H 0.49645 0.04705 0.88004 0.0
H534 H 0.58079 0.04858 0.94034 0.0
H535 H 0.57012 0.01449 0.92713 0.0
H536 H 0.59886 0.04906 0.91649 0.0
H537 H 0.45918 0.01941 0.90483 0.0
H538 H 0.4624 0.98863 0.9132 0.0
H539 H 0.47089 0.01815 0.93111 0.0
H540 H 0.61007 0.18617 -0.00053 0.0
H541 H 0.61655 0.15264 0.01958 0.0
H542 H 0.53061 0.13522 0.0336 0.0
H543 H 0.59969 0.08644 0.00096 0.0
H544 H 0.62721 0.1145 0.01781 0.0
H545 H 0.60059 0.07856 0.02806 0.0
H546 H 0.48965 0.0869 0.03623 0.0
H547 H 0.49164 0.06094 0.01893 0.0
H548 H 0.4985 0.06059 0.04629 0.0
H549 H 0.52651 0.91698 0.10551 0.0
H550 H 0.56034 0.96993 0.11698 0.0
H551 H 0.55866 0.94459 0.13636 0.0
H552 H 0.53874 0.9634 0.14011 0.0
H553 H 0.54837 0.95446 0.08149 0.0
H554 H 0.46929 0.95445 0.09323 0.0
H555 H 0.55903 0.97658 0.03084 0.0
H556 H 0.57751 0.01163 0.044 0.0
H557 H 0.58011 0.98115 0.05408 0.0
H558 H 0.45037 0.9742 0.06923 0.0
H559 H 0.48033 0.01007 0.06174 0.0
H560 H 0.46424 0.98069 0.04285 0.0
H561 H 0.50067 0.96773 0.91964 0.0
H562 H 0.53703 0.06412 0.94957 0.0
H563 H 0.54732 0.0841 0.98422 0.0
H564 H 0.54077 0.04463 0.05297 0.0
H565 H 0.49814 0.94692 0.02331 0.0
H566 H 0.48728 0.92686 0.98856 0.0
H567 H 0.61043 0.23195 0.9911 0.0
H568 H 0.57367 0.20049 0.99263 0.0
H569 H 0.58818 0.22699 0.01379 0.0
C570 C 0.59908 0.41492 0.06415 0.0
C571 C 0.61171 0.42163 0.08642 0.0
C572 C 0.59509 0.45412 0.09999 0.0
C573 C 0.56514 0.43227 0.1013 0.0
C574 C 0.54444 0.43971 0.10721 0.0
C575 C 0.55387 0.46945 0.11209 0.0
C576 C 0.58404 0.49131 0.11135 0.0
C577 C 0.60422 0.48329 0.10532 0.0
C578 C 0.51245 0.41592 0.10802 0.0
C579 C 0.59495 0.52328 0.1166 0.0
C580 C 0.46764 0.57279 0.00928 0.0
C581 C 0.48039 0.56832 0.02851 0.0
C582 C 0.47838 0.52978 0.05059 0.0
C583 C 0.50161 0.54954 0.0637 0.0
C584 C 0.5102 0.5393 0.0808 0.0
C585 C 0.49437 0.50876 0.08562 0.0
C586 C 0.47075 0.48878 0.07267 0.0
C587 C 0.46329 0.49955 0.05515 0.0
C588 C 0.53632 0.56136 0.09365 0.0
C589 C 0.45336 0.45609 0.07736 0.0
C590 C 0.46031 0.58775 0.20021 0.0
C591 C 0.48985 0.59866 0.19627 0.0
C592 C 0.49992 0.57959 0.19138 0.0
C593 C 0.47986 0.54868 0.19076 0.0
C594 C 0.44985 0.53735 0.19469 0.0
C595 C 0.44028 0.55701 0.19916 0.0
C596 C 0.53208 0.59251 0.18712 0.0
C597 C 0.42801 0.50447 0.19433 0.0
C598 C 0.59759 0.53441 0.29079 0.0
C599 C 0.59391 0.50587 0.2815 0.0
C600 C 0.55588 0.49287 0.2545 0.0
C601 C 0.57326 0.51584 0.24054 0.0
C602 C 0.56094 0.52 0.22244 0.0
C603 C 0.53083 0.50045 0.21806 0.0
C604 C 0.51353 0.47687 0.23181 0.0
C605 C 0.52632 0.47346 0.24988 0.0
C606 C 0.58001 0.54555 0.20817 0.0
C607 C 0.48141 0.45555 0.22759 0.0
C608 C 0.53227 0.47816 0.11714 0.0
C609 C 0.52011 0.48535 0.10053 0.0
C610 C 0.50302 0.49792 0.10403 0.0
C611 C 0.49777 0.50344 0.12471 0.0
C612 C 0.48145 0.51691 0.12882 0.0
C613 C 0.47892 0.52497 0.14904 0.0
C614 C 0.49172 0.5189 0.166 0.0
C615 C 0.49068 0.52841 0.18644 0.0
C616 C 0.50294 0.52133 0.20303 0.0
C617 C 0.51706 0.50562 0.19973 0.0
C618 C 0.51918 0.4967 0.17931 0.0
C619 C 0.53403 0.48167 0.17533 0.0
C620 C 0.53793 0.47507 0.15498 0.0
C621 C 0.52662 0.48275 0.13792 0.0
C622 C 0.50992 0.49613 0.14167 0.0
C623 C 0.50657 0.50353 0.16237 0.0
C624 C 0.41413 0.59062 0.23067 0.0
C625 C 0.42448 0.6023 0.20849 0.0
O626 O 0.61587 0.44837 0.09341 0.0
O627 O 0.56631 0.48866 0.2727 0.0
O628 O 0.45243 0.6077 0.20522 0.0
O629 O 0.4701 0.53899 0.03347 0.0
H630 H 0.59625 0.40355 0.09696 0.0
H631 H 0.57702 0.4121 0.0638 0.0
H632 H 0.6134 0.43323 0.05339 0.0
H633 H 0.59699 0.39407 0.0583 0.0
H634 H 0.5576 0.40945 0.09754 0.0
H635 H 0.62733 0.49993 0.10444 0.0
H636 H 0.50019 0.42049 0.0961 0.0
H637 H 0.50877 0.39349 0.10509 0.0
H638 H 0.50332 0.41614 0.12354 0.0
H639 H 0.61901 0.53772 0.11458 0.0
H640 H 0.5839 0.53162 0.10648 0.0
H641 H 0.58947 0.52507 0.13303 0.0
H642 H 0.50473 0.58266 0.02924 0.0
H643 H 0.48652 0.58454 0.99813 0.0
H644 H 0.45701 0.55115 0.00045 0.0
H645 H 0.44403 0.59203 0.02044 0.0
H646 H 0.51351 0.57305 0.06069 0.0
H647 H 0.44539 0.48442 0.04504 0.0
H648 H 0.52862 0.56614 0.10838 0.0
H649 H 0.5504 0.55236 0.09779 0.0
H650 H 0.54989 0.58261 0.08528 0.0
H651 H 0.43387 0.44392 0.06704 0.0
H652 H 0.4675 0.4466 0.07524 0.0
H653 H 0.44603 0.45251 0.09388 0.0
H654 H 0.40907 0.58559 0.197 0.0
H655 H 0.50511 0.62235 0.19708 0.0
H656 H 0.41726 0.54808 0.20202 0.0
H657 H 0.53506 0.58359 0.17223 0.0
H658 H 0.54427 0.61706 0.18623 0.0
H659 H 0.54181 0.586 0.1998 0.0
H660 H 0.40558 0.49906 0.19846 0.0
H661 H 0.42739 0.49548 0.17852 0.0
H662 H 0.43494 0.49314 0.20546 0.0
H663 H 0.61092 0.51142 0.26941 0.0
H664 H 0.58056 0.5292 0.30276 0.0
H665 H 0.61956 0.54785 0.29814 0.0
H666 H 0.59566 0.54802 0.27846 0.0
H667 H 0.59627 0.53083 0.24374 0.0
H668 H 0.51315 0.45572 0.26071 0.0
H669 H 0.58181 0.53693 0.19279 0.0
H670 H 0.56991 0.55909 0.20549 0.0
H671 H 0.6024 0.56007 0.21461 0.0
H672 H 0.47167 0.43676 0.23873 0.0
H673 H 0.46938 0.46745 0.22887 0.0
H674 H 0.47825 0.44666 0.21144 0.0
H675 H 0.52524 0.4825 0.08463 0.0
H676 H 0.47112 0.52212 0.11636 0.0
H677 H 0.46691 0.53615 0.1512 0.0
H678 H 0.50229 0.52899 0.21865 0.0
H679 H 0.54342 0.47549 0.18787 0.0
H680 H 0.55017 0.46414 0.15276 0.0
H681 H 0.42948 0.60652 0.24253 0.0
H682 H 0.39197 0.58703 0.23335 0.0
H683 H 0.41286 0.56919 0.23298 0.0
Co684 Co 0.6254 0.3932 0.40461 0.0
O685 O 0.65128 0.39311 0.38394 0.0
O686 O 0.66318 0.4296 0.4064 0.0
C687 C 0.61061 0.34723 0.41606 0.0
O688 O 0.60504 0.40049 0.42879 0.0
Co689 Co 0.55911 0.34902 0.40258 0.0
O690 O 0.55869 0.36248 0.43133 0.0
C691 C 0.58559 0.40081 0.37467 0.0
C692 C 0.67119 0.41844 0.39156 0.0
C693 C 0.58034 0.38641 0.4384 0.0
O694 O 0.61044 0.41086 0.38384 0.0
O695 O 0.56285 0.37581 0.37907 0.0
O696 O 0.63447 0.37006 0.42307 0.0
O697 O 0.59708 0.35252 0.40149 0.0
Co698 Co 0.24579 0.61765 0.5787 0.0
O699 O 0.2761 0.62244 0.5974 0.0
O700 O 0.25351 0.58609 0.57429 0.0
C701 C 0.2701 0.66522 0.56827 0.0
O702 O 0.21484 0.60611 0.55603 0.0
Co703 Co 0.21276 0.64997 0.58515 0.0
O704 O 0.19868 0.63769 0.55616 0.0
C705 C 0.19853 0.59883 0.61162 0.0
C706 C 0.27364 0.59912 0.58858 0.0
C707 C 0.20027 0.61674 0.54772 0.0
O708 O 0.21564 0.594 0.60051 0.0
O709 O 0.19523 0.6209 0.60873 0.0
O710 O 0.27476 0.64576 0.55968 0.0
O711 O 0.25185 0.65583 0.58375 0.0
Co712 Co 0.63903 0.25167 0.74414 0.0
O713 O 0.64461 0.28131 0.72434 0.0
O714 O 0.6075 0.25954 0.74636 0.0
C715 C 0.68545 0.2769 0.75611 0.0
O716 O 0.62694 0.22179 0.76772 0.0
Co717 Co 0.67153 0.21868 0.74004 0.0
O718 O 0.65655 0.20341 0.76828 0.0
C719 C 0.62111 0.2016 0.71266 0.0
C720 C 0.62118 0.27931 0.73193 0.0
C721 C 0.63632 0.20622 0.77626 0.0
O722 O 0.61631 0.21973 0.72274 0.0
O723 O 0.64326 0.19904 0.71631 0.0
O724 O 0.6657 0.28179 0.76337 0.0
O725 O 0.67735 0.25826 0.74069 0.0
Co726 Co 0.39923 0.61356 0.90572 0.0
O727 O 0.37062 0.60909 0.88556 0.0
O728 O 0.36201 0.57772 0.91123 0.0
C729 C 0.41505 0.6614 0.9126 0.0
O730 O 0.42282 0.61193 0.9303 0.0
Co731 Co 0.46501 0.65729 0.89854 0.0
O732 O 0.46791 0.65229 0.92884 0.0
C733 C 0.43562 0.59996 0.8764 0.0
C734 C 0.35184 0.58567 0.89571 0.0
C735 C 0.44803 0.62985 0.93856 0.0
O736 O 0.41199 0.59188 0.8867 0.0
O737 O 0.45869 0.62567 0.8781 0.0
O738 O 0.39207 0.6403 0.92177 0.0
O739 O 0.42675 0.65312 0.89854 0.0
Co740 Co 0.77356 0.3784 0.06729 0.0
O741 O 0.74121 0.36631 0.08594 0.0
O742 O 0.76342 0.40861 0.06864 0.0
C743 C 0.75285 0.33494 0.05 0.0
O744 O 0.80624 0.39806 0.04591 0.0
Co745 Co 0.80978 0.34924 0.0673 0.0
O746 O 0.82953 0.37317 0.04228 0.0
C747 C 0.82068 0.39273 0.10005 0.0
C748 C 0.74251 0.39081 0.08117 0.0
C749 C 0.82532 0.39386 0.03696 0.0
O750 O 0.80202 0.39753 0.09106 0.0
O751 O 0.82585 0.37289 0.09372 0.0
O752 O 0.74707 0.35517 0.04512 0.0
O753 O 0.76955 0.34041 0.0662 0.0
Co754 Co 0.40141 0.77325 0.23612 0.0
O755 O 0.39884 0.74541 0.21578 0.0
O756 O 0.4368 0.77147 0.23673 0.0
C757 C 0.35647 0.74214 0.24922 0.0
O758 O 0.41091 0.803 0.25974 0.0
Co759 Co 0.35852 0.79568 0.23487 0.0
O760 O 0.37125 0.80672 0.26423 0.0
C761 C 0.40898 0.82131 0.2061 0.0
C762 C 0.424 0.7508 0.2226 0.0
C763 C 0.39593 0.81125 0.2704 0.0
O764 O 0.41835 0.80573 0.21465 0.0
O765 O 0.38492 0.81946 0.21127 0.0
O766 O 0.37905 0.74121 0.25554 0.0
O767 O 0.36131 0.76061 0.23429 0.0
H768 H 0.23967 0.62715 0.27477 0.0
H769 H 0.20302 0.66661 0.23595 0.0
H770 H 0.25155 0.71108 0.23199 0.0
H771 H 0.30498 0.7366 0.23701 0.0
H772 H 0.34108 0.69676 0.27615 0.0
H773 H 0.29211 0.65485 0.28285 0.0
C774 C 0.24226 0.64566 0.26569 0.0
C775 C 0.21791 0.64353 0.2555 0.0
C776 C 0.27011 0.67104 0.26349 0.0
C777 C 0.22154 0.66772 0.24382 0.0
C778 C 0.24924 0.69309 0.24154 0.0
C779 C 0.30206 0.71895 0.24725 0.0
C780 C 0.32662 0.71959 0.25583 0.0
C781 C 0.27379 0.6947 0.25092 0.0
C782 C 0.32253 0.69671 0.26922 0.0
C783 C 0.29453 0.67265 0.27302 0.0
H784 H 0.57783 0.21468 0.41674 0.0
H785 H 0.65189 0.25133 0.45871 0.0
H786 H 0.65532 0.29934 0.45765 0.0
H787 H 0.63949 0.33148 0.44277 0.0
H788 H 0.56618 0.29512 0.40006 0.0
H789 H 0.55966 0.24602 0.40391 0.0
C790 C 0.59439 0.23306 0.42594 0.0
C791 C 0.61439 0.22942 0.43799 0.0
C792 C 0.59632 0.26053 0.42514 0.0
C793 C 0.63611 0.25356 0.4495 0.0
C794 C 0.63808 0.28096 0.44887 0.0
C795 C 0.62181 0.31274 0.43453 0.0
C796 C 0.60351 0.31695 0.42099 0.0
C797 C 0.61859 0.28478 0.43649 0.0
C798 C 0.58061 0.29245 0.41051 0.0
C799 C 0.57698 0.26443 0.41262 0.0
H800 H 0.38012 0.58083 0.58486 0.0
H801 H 0.39505 0.62006 0.64628 0.0
H802 H 0.34837 0.61814 0.64431 0.0
H803 H 0.30631 0.61046 0.6235 0.0
H804 H 0.29068 0.56995 0.56256 0.0
H805 H 0.33434 0.56636 0.56625 0.0
C806 C 0.37293 0.58833 0.59804 0.0
C807 C 0.39112 0.60064 0.61573 0.0
C808 C 0.34599 0.58696 0.59687 0.0
C809 C 0.3814 0.61046 0.63254 0.0
C810 C 0.35479 0.60944 0.6314 0.0
C811 C 0.31216 0.60029 0.61123 0.0
C812 C 0.29559 0.59079 0.59271 0.0
C813 C 0.33732 0.59847 0.61342 0.0
C814 C 0.30312 0.57737 0.57699 0.0
C815 C 0.32822 0.57557 0.57901 0.0
H816 H 0.80962 0.38993 0.75855 0.0
H817 H 0.78548 0.38814 0.82307 0.0
H818 H 0.74197 0.33919 0.81784 0.0
H819 H 0.70753 0.30058 0.79371 0.0
H820 H 0.73194 0.30134 0.72954 0.0
H821 H 0.77922 0.34666 0.736 0.0
C822 C 0.79525 0.37863 0.77161 0.0
C823 C 0.80056 0.39289 0.79116 0.0
C824 C 0.77038 0.35034 0.76853 0.0
C825 C 0.78168 0.3777 0.80786 0.0
C826 C 0.75682 0.34976 0.80488 0.0
C827 C 0.72363 0.31025 0.78134 0.0
C828 C 0.71636 0.29799 0.76119 0.0
C829 C 0.75047 0.33636 0.78512 0.0
C830 C 0.73724 0.31041 0.74522 0.0
C831 C 0.76409 0.33651 0.74886 0.0
H832 H 0.4604 0.79773 0.90905 0.0
H833 H 0.38005 0.76747 0.94291 0.0
H834 H 0.37168 0.71749 0.94408 0.0
H835 H 0.38538 0.68191 0.93356 0.0
H836 H 0.46403 0.71081 0.89784 0.0
H837 H 0.47517 0.76198 0.89954 0.0
C838 C 0.44123 0.78018 0.91683 0.0
C839 C 0.42093 0.78626 0.92595 0.0
C840 C 0.43626 0.75135 0.91709 0.0
C841 C 0.39605 0.76336 0.93588 0.0
C842 C 0.39123 0.7348 0.93652 0.0
C843 C 0.40517 0.69943 0.92636 0.0
C844 C 0.42382 0.69264 0.91552 0.0
C845 C 0.41096 0.72848 0.92693 0.0
C846 C 0.44929 0.71554 0.9062 0.0
C847 C 0.45561 0.74474 0.90712 0.0
H848 H 0.62432 0.38251 0.10401 0.0
H849 H 0.66404 0.464 0.06926 0.0
H850 H 0.70943 0.46342 0.06629 0.0
H851 H 0.73603 0.43716 0.07086 0.0
H852 H 0.69581 0.35565 0.1058 0.0
H853 H 0.65269 0.35916 0.11175 0.0
C854 C 0.64305 0.40034 0.09604 0.0
C855 C 0.64077 0.4231 0.0867 0.0
C856 C 0.66898 0.39984 0.09439 0.0
C857 C 0.66526 0.44614 0.07646 0.0
C858 C 0.69117 0.4458 0.07475 0.0
C859 C 0.71804 0.42045 0.08007 0.0
C860 C 0.71902 0.39603 0.08765 0.0
C861 C 0.69305 0.4224 0.08326 0.0
C862 C 0.69558 0.37461 0.09965 0.0
C863 C 0.67081 0.37651 0.10301 0.0
H864 H 0.35749 0.8028 0.57251 0.0
H865 H 0.40656 0.77844 0.53243 0.0
H866 H 0.36489 0.72783 0.5303 0.0
H867 H 0.31696 0.6896 0.54276 0.0
H868 H 0.26883 0.71228 0.58517 0.0
H869 H 0.30745 0.7646 0.58317 0.0
C870 C 0.35886 0.78641 0.56317 0.0
C871 C 0.38513 0.79426 0.55279 0.0
C872 C 0.33507 0.75711 0.56248 0.0
C873 C 0.38665 0.77291 0.54063 0.0
C874 C 0.36286 0.74398 0.53942 0.0
C875 C 0.31463 0.706 0.55134 0.0
C876 C 0.29024 0.69707 0.56429 0.0
C877 C 0.33729 0.73569 0.55071 0.0
C878 C 0.28751 0.71862 0.5752 0.0
C879 C 0.30965 0.74848 0.57414 0.0
H880 H 0.61768 0.39282 0.70928 0.0
H881 H 0.54259 0.35145 0.74983 0.0
H882 H 0.54712 0.30779 0.75284 0.0
H883 H 0.57526 0.28342 0.74628 0.0
H884 H 0.64955 0.32495 0.70484 0.0
H885 H 0.64213 0.36618 0.69956 0.0
C886 C 0.60214 0.37414 0.71862 0.0
C887 C 0.58029 0.37564 0.72972 0.0
C888 C 0.60472 0.34912 0.72012 0.0
C889 C 0.55999 0.35103 0.74148 0.0
C890 C 0.56252 0.32607 0.74316 0.0
C891 C 0.58949 0.30125 0.73583 0.0
C892 C 0.61312 0.30125 0.72619 0.0
C893 C 0.58523 0.32514 0.73291 0.0
C894 C 0.63128 0.32444 0.71258 0.0
C895 C 0.62716 0.34815 0.70959 0.0
H896 H 0.21785 0.53991 0.90376 0.0
H897 H 0.2413 0.60498 0.85528 0.0
H898 H 0.28935 0.61054 0.85227 0.0
H899 H 0.32669 0.60216 0.86649 0.0
H900 H 0.30573 0.54074 0.91716 0.0
H901 H 0.25465 0.5281 0.916 0.0
C902 C 0.23344 0.5551 0.89244 0.0
C903 C 0.22621 0.57247 0.88007 0.0
C904 C 0.26151 0.55892 0.89124 0.0
C905 C 0.24641 0.59164 0.86518 0.0
C906 C 0.27393 0.59487 0.86346 0.0
C907 C 0.31089 0.58555 0.87705 0.0
C908 C 0.3201 0.57266 0.89205 0.0
C909 C 0.28202 0.57938 0.87687 0.0
C910 C 0.29924 0.55106 0.90549 0.0
C911 C 0.27008 0.54402 0.90494 0.0
H912 H 0.66107 0.22614 0.99826 0.0
H913 H 0.61026 0.21487 0.05348 0.0
H914 H 0.65394 0.25322 0.07148 0.0
H915 H 0.70486 0.29452 0.06979 0.0
H916 H 0.75437 0.30972 0.01343 0.0
H917 H 0.71336 0.26491 0.99766 0.0
C918 C 0.65982 0.23165 0.0144 0.0
C919 C 0.63261 0.21741 0.02461 0.0
C920 C 0.68484 0.25445 0.02439 0.0
C921 C 0.63101 0.22515 0.04538 0.0
C922 C 0.65596 0.24719 0.05565 0.0
C923 C 0.70689 0.28727 0.05435 0.0
C924 C 0.73252 0.3047 0.04284 0.0
C925 C 0.68277 0.26253 0.04511 0.0
C926 C 0.7349 0.29605 0.0226 0.0
C927 C 0.71138 0.27071 0.01356 0.0
H928 H 0.46221 0.65696 0.2254 0.0
H929 H 0.38665 0.61108 0.18507 0.0
H930 H 0.3834 0.65542 0.18296 0.0
H931 H 0.39837 0.70476 0.19571 0.0
H932 H 0.47134 0.74979 0.23839 0.0
H933 H 0.47991 0.7086 0.23592 0.0
C934 C 0.44532 0.6569 0.21593 0.0
C935 C 0.42465 0.63078 0.20544 0.0
C936 C 0.44317 0.68228 0.21518 0.0
C937 C 0.40279 0.63088 0.19327 0.0
C938 C 0.40092 0.65621 0.19207 0.0
C939 C 0.41655 0.70591 0.20419 0.0
C940 C 0.43401 0.73018 0.2174 0.0
C941 C 0.4205 0.68172 0.20339 0.0
C942 C 0.45756 0.73135 0.22814 0.0
C943 C 0.46227 0.70767 0.22688 0.0
H944 H 0.7997 0.44678 0.39241 0.0
H945 H 0.77223 0.40225 0.33278 0.0
H946 H 0.72666 0.40247 0.33487 0.0
H947 H 0.69211 0.40901 0.35592 0.0
H948 H 0.71944 0.45359 0.41549 0.0
H949 H 0.76814 0.46072 0.41079 0.0
C950 C 0.78415 0.43787 0.37959 0.0
C951 C 0.78939 0.42454 0.3624 0.0
C952 C 0.758 0.43807 0.38091 0.0
C953 C 0.76874 0.41276 0.34609 0.0
C954 C 0.74267 0.41279 0.34731 0.0
C955 C 0.70901 0.42101 0.36761 0.0
C956 C 0.70217 0.43044 0.38612 0.0
C957 C 0.73669 0.42452 0.36496 0.0
C958 C 0.72423 0.44618 0.40107 0.0
C959 C 0.75197 0.44994 0.3985 0.0
H960 H 0.144 0.5521 0.46213 0.0
H961 H 0.1149 0.61451 0.462 0.0
H962 H 0.13835 0.63381 0.49592 0.0
H963 H 0.16781 0.63346 0.52524 0.0
H964 H 0.19791 0.57168 0.52488 0.0
H965 H 0.1733 0.55161 0.49154 0.0
C966 C 0.14254 0.5697 0.46968 0.0
C967 C 0.12713 0.58134 0.45983 0.0
C968 C 0.15635 0.58089 0.48902 0.0
C969 C 0.12606 0.60472 0.46948 0.0
C970 C 0.13959 0.61584 0.48881 0.0
C971 C 0.16895 0.61554 0.51795 0.0
C972 C 0.18473 0.60414 0.52765 0.0
C973 C 0.15485 0.60414 0.4987 0.0
C974 C 0.18594 0.58093 0.51785 0.0
C975 C 0.17187 0.56941 0.49875 0.0
H976 H 0.51679 0.13438 0.63704 0.0
H977 H 0.55027 0.05915 0.6442 0.0
H978 H 0.58997 0.09615 0.67703 0.0
H979 H 0.613 0.1498 0.69807 0.0
H980 H 0.58259 0.21138 0.6926 0.0
H981 H 0.54584 0.18269 0.66633 0.0
C982 C 0.52904 0.12632 0.6452 0.0
C983 C 0.53303 0.0957 0.63459 0.0
C984 C 0.55539 0.14818 0.66505 0.0
C985 C 0.55054 0.07871 0.64964 0.0
C986 C 0.57604 0.10252 0.6693 0.0
C987 C 0.59857 0.15591 0.69078 0.0
C988 C 0.59966 0.18232 0.69649 0.0
C989 C 0.57876 0.13695 0.67606 0.0
C990 C 0.58063 0.19081 0.68762 0.0
C991 C 0.55926 0.17452 0.6724 0.0
H992 H 0.46995 0.52564 0.80689 0.0
H993 H 0.36094 0.48176 0.78893 0.0
H994 H 0.35753 0.51515 0.8236 0.0
H995 H 0.39013 0.55892 0.85341 0.0
H996 H 0.48211 0.59561 0.86732 0.0
H997 H 0.48864 0.56539 0.84192 0.0
C998 C 0.4487 0.5223 0.81066 0.0
C999 C 0.41721 0.50413 0.79208 0.0
C1000 C 0.44446 0.54321 0.83101 0.0
C1001 C 0.37943 0.49436 0.79927 0.0
C1002 C 0.37794 0.51635 0.82018 0.0
C1003 C 0.41024 0.5592 0.85047 0.0
C1004 C 0.43617 0.57889 0.86145 0.0
C1005 C 0.41033 0.54093 0.83503 0.0
C1006 C 0.46314 0.58018 0.85815 0.0
C1007 C 0.46729 0.56283 0.84363 0.0
H1008 H 0.89157 0.49032 0.96748 0.0
H1009 H 0.96103 0.47554 0.98492 0.0
H1010 H 0.92834 0.43706 0.00933 0.0
H1011 H 0.88059 0.40894 0.02665 0.0
H1012 H 0.81217 0.42613 0.01092 0.0
H1013 H 0.84396 0.46258 0.98503 0.0
C1014 C 0.89966 0.47896 0.97682 0.0
C1015 C 0.92893 0.48632 0.97477 0.0
C1016 C 0.88093 0.45729 0.9911 0.0
C1017 C 0.93877 0.47068 0.9865 0.0
C1018 C 0.92008 0.44864 0.00042 0.0
C1019 C 0.87257 0.42049 0.01742 0.0
C1020 C 0.84406 0.41481 0.02063 0.0
C1021 C 0.8912 0.44194 0.00297 0.0
C1022 C 0.83408 0.43021 0.00877 0.0
C1023 C 0.85223 0.45103 0.99397 0.0
H1024 H 0.47686 0.92569 0.14228 0.0
H1025 H 0.52003 0.87758 0.12878 0.0
H1026 H 0.4902 0.84068 0.15522 0.0
H1027 H 0.45152 0.82209 0.18201 0.0
H1028 H 0.40745 0.86986 0.19408 0.0
H1029 H 0.43775 0.9067 0.16813 0.0
C1030 C 0.47948 0.90691 0.14491 0.0
C1031 C 0.50013 0.90396 0.13325 0.0
C1032 C 0.46209 0.88573 0.15985 0.0
C1033 C 0.50387 0.87999 0.13731 0.0
C1034 C 0.48689 0.85897 0.15243 0.0
C1035 C 0.44856 0.84056 0.17895 0.0
C1036 C 0.4272 0.84316 0.18997 0.0
C1037 C 0.46586 0.86158 0.16377 0.0
C1038 C 0.42354 0.86715 0.18572 0.0
C1039 C 0.44093 0.88832 0.17093 0.0
H1040 H 0.55246 0.4669 0.30868 0.0
H1041 H 0.64382 0.50671 0.2933 0.0
H1042 H 0.64981 0.47865 0.32128 0.0
H1043 H 0.62853 0.44186 0.3496 0.0
H1044 H 0.53639 0.40049 0.36329 0.0
H1045 H 0.53117 0.42992 0.33629 0.0
C1046 C 0.57362 0.46918 0.31127 0.0
C1047 C 0.59752 0.48828 0.29861 0.0
C1048 C 0.57672 0.45271 0.32706 0.0
C1049 C 0.625 0.49169 0.3026 0.0
C1050 C 0.62842 0.47572 0.31859 0.0
C1051 C 0.60736 0.43941 0.34669 0.0
C1052 C 0.58288 0.41903 0.35841 0.0
C1053 C 0.60437 0.45602 0.33084 0.0
C1054 C 0.55552 0.41587 0.35438 0.0
C1055 C 0.55252 0.43273 0.33899 0.0
H1056 H 0.46397 0.90957 0.33872 0.0
H1057 H 0.37561 0.87357 0.3608 0.0
H1058 H 0.3576 0.83419 0.33477 0.0
H1059 H 0.36601 0.81346 0.3034 0.0
H1060 H 0.45376 0.84918 0.2803 0.0
H1061 H 0.47309 0.88483 0.30928 0.0
C1062 C 0.4409 0.89267 0.33809 0.0
C1063 C 0.42116 0.89439 0.35174 0.0
C1064 C 0.43056 0.87023 0.32281 0.0
C1065 C 0.39125 0.8726 0.35058 0.0
C1066 C 0.3809 0.85016 0.33564 0.0
C1067 C 0.38942 0.8288 0.30487 0.0
C1068 C 0.4084 0.82903 0.28962 0.0
C1069 C 0.40022 0.8493 0.32132 0.0
C1070 C 0.43871 0.84863 0.29187 0.0
C1071 C 0.44973 0.86913 0.30834 0.0
H1072 H 0.54359 0.42162 0.52226 0.0
H1073 H 0.63407 0.49222 0.52058 0.0
H1074 H 0.64101 0.47259 0.48789 0.0
H1075 H 0.6213 0.43539 0.45982 0.0
H1076 H 0.53049 0.36499 0.46158 0.0
H1077 H 0.52374 0.38478 0.49403 0.0
C1078 C 0.56471 0.43294 0.51458 0.0
C1079 C 0.5881 0.4588 0.52353 0.0
C1080 C 0.56851 0.42157 0.49581 0.0
C1081 C 0.61558 0.47267 0.51372 0.0
C1082 C 0.61958 0.4614 0.49509 0.0
C1083 C 0.60001 0.42436 0.46726 0.0
C1084 C 0.57651 0.39867 0.4582 0.0
C1085 C 0.59618 0.43588 0.48597 0.0
C1086 C 0.54908 0.38472 0.46816 0.0
C1087 C 0.54513 0.39603 0.48675 0.0
H1088 H 0.14251 0.50471 0.68393 0.0
H1089 H 0.07048 0.51791 0.67175 0.0
H1090 H 0.09937 0.55511 0.64579 0.0
H1091 H 0.14456 0.58314 0.62559 0.0
H1092 H 0.21512 0.5671 0.63516 0.0
H1093 H 0.1874 0.53181 0.66289 0.0
C1094 C 0.13324 0.51585 0.67562 0.0
C1095 C 0.10454 0.50873 0.68014 0.0
C1096 C 0.14966 0.53666 0.66011 0.0
C1097 C 0.09264 0.52309 0.669 0.0
C1098 C 0.10911 0.54438 0.654 0.0
C1099 C 0.15389 0.57202 0.63385 0.0
C1100 C 0.18182 0.57774 0.62844 0.0
C1101 C 0.13756 0.55124 0.64936 0.0
C1102 C 0.19355 0.5629 0.63902 0.0
C1103 C 0.17776 0.5428 0.65489 0.0
H1104 H 0.5905 0.17011 0.87658 0.0
H1105 H 0.60561 0.08423 0.85651 0.0
H1106 H 0.62181 0.10931 0.81525 0.0
H1107 H 0.62852 0.15423 0.7892 0.0
H1108 H 0.61816 0.22745 0.80696 0.0
H1109 H 0.60346 0.21061 0.84257 0.0
C1110 C 0.59771 0.15959 0.86562 0.0
C1111 C 0.59119 0.12176 0.87002 0.0
C1112 C 0.60665 0.17217 0.83914 0.0
C1113 C 0.60708 0.10493 0.8529 0.0
C1114 C 0.61562 0.11981 0.82697 0.0
C1115 C 0.6225 0.16493 0.80092 0.0
C1116 C 0.62412 0.19192 0.79657 0.0
C1117 C 0.61438 0.15219 0.82042 0.0
C1118 C 0.61647 0.20684 0.81139 0.0
C1119 C 0.60816 0.19755 0.83204 0.0
H1120 H 0.50633 0.63346 0.03364 0.0
H1121 H 0.4127 0.53021 0.03719 0.0
H1122 H 0.3967 0.54113 0.99621 0.0
H1123 H 0.41576 0.58042 0.96227 0.0
H1124 H 0.49457 0.66782 0.96166 0.0
H1125 H 0.51013 0.66422 0.99622 0.0
C1126 C 0.48521 0.61697 0.02733 0.0
C1127 C 0.46403 0.57893 0.0381 0.0
C1128 C 0.47394 0.62079 0.00176 0.0
C1129 C 0.42585 0.55128 0.02948 0.0
C1130 C 0.41683 0.55774 0.00362 0.0
C1131 C 0.43541 0.59731 0.97009 0.0
C1132 C 0.45472 0.62448 0.96008 0.0
C1133 C 0.44131 0.59164 0.99005 0.0
C1134 C 0.48065 0.64734 0.96992 0.0
C1135 C 0.49005 0.64579 0.98998 0.0
H1136 H 0.88297 0.4939 0.17865 0.0
H1137 H 0.9611 0.46541 0.16917 0.0
H1138 H 0.92497 0.42504 0.13622 0.0
H1139 H 0.87169 0.40071 0.11524 0.0
H1140 H 0.8078 0.42737 0.12279 0.0
H1141 H 0.83492 0.46337 0.14992 0.0
C1142 C 0.8916 0.48241 0.17009 0.0
C1143 C 0.92317 0.48007 0.17993 0.0
C1144 C 0.8704 0.45573 0.15019 0.0
C1145 C 0.94109 0.46409 0.16417 0.0
C1146 C 0.91784 0.43808 0.14446 0.0
C1147 C 0.86464 0.41403 0.12324 0.0
C1148 C 0.83815 0.4123 0.11769 0.0
C1149 C 0.88284 0.43364 0.13839 0.0
C1150 C 0.82843 0.42986 0.12758 0.0
C1151 C 0.84382 0.45083 0.14328 0.0
loop_
_geom_bond_atom_site_label_1
_geom_bond_atom_site_label_2
_geom_bond_distance
_geom_bond_site_symmetry_2
_ccdc_geom_bond_type
C0 C1 1.560 . S
C0 H61 0.959 . S
C0 H62 0.959 . S
C0 H63 0.960 . S
C1 C0 1.560 . S
C1 O56 1.426 . S
C1 H60 0.980 . S
C2 C3 1.407 . S
C2 C7 1.418 . S
C2 O56 1.334 . S
C3 C2 1.407 . S
C3 C4 1.360 . S
C3 H64 0.929 . S
C4 C3 1.360 . S
C4 C5 1.401 . S
C4 C8 1.527 . S
C5 C4 1.401 . S
C5 C6 1.405 . S
C5 C38 1.587 . S
C6 C5 1.405 . S
C6 C7 1.332 . S
C6 C9 1.496 . S
C7 C2 1.418 . S
C7 C6 1.332 . S
C7 H65 0.929 . S
C8 C4 1.527 . S
C8 H66 0.959 . S
C8 H67 0.961 . S
C8 H68 0.961 . S
C9 C6 1.496 . S
C9 H69 0.960 . S
C9 H70 0.960 . S
C9 H71 0.961 . S
C10 C11 1.517 . S
C10 H73 0.961 . S
C10 H74 0.960 . S
C10 H75 0.959 . S
C11 C10 1.517 . S
C11 O59 1.468 . S
C11 H72 0.980 . S
C12 C13 1.349 . S
C12 C17 1.367 . S
C12 O59 1.408 . S
C13 C12 1.349 . S
C13 C14 1.407 . S
C13 H76 0.930 . S
C14 C13 1.407 . S
C14 C15 1.449 . S
C14 C18 1.535 . S
C15 C14 1.449 . S
C15 C16 1.384 . S
C15 C40 1.553 1_655 S
C16 C15 1.384 . S
C16 C17 1.364 . S
C16 C19 1.450 . S
C17 C12 1.367 . S
C17 C16 1.364 . S
C17 H77 0.931 . S
C18 C14 1.535 . S
C18 H78 0.959 1_655 S
C18 H79 0.961 1_655 S
C18 H80 0.959 . S
C19 C16 1.450 . S
C19 H81 0.960 . S
C19 H82 0.960 1_655 S
C19 H83 0.960 . S
C20 C21 1.309 . S
C20 C25 1.304 . S
C20 O58 1.435 . S
C21 C20 1.309 . S
C21 C22 1.476 . S
C21 H85 0.930 . S
C22 C21 1.476 . S
C22 C23 1.400 . S
C22 C26 1.567 . S
C23 C22 1.400 . S
C23 C24 1.373 . S
C23 C45 1.432 . S
C24 C23 1.373 . S
C24 C25 1.339 . S
C24 C27 1.530 . S
C25 C20 1.304 . S
C25 C24 1.339 . S
C25 H86 0.930 . S
C26 C22 1.567 . S
C26 H87 0.961 . S
C26 H88 0.960 . S
C26 H89 0.958 . S
C27 C24 1.530 . S
C27 H90 0.961 . S
C27 H91 0.960 . S
C27 H92 0.960 . S
C28 C29 1.530 . S
C28 H94 0.961 . S
C28 H95 0.961 . S
C28 H96 0.959 . S
C29 C28 1.530 . S
C29 O57 1.412 . S
C29 H93 0.980 . S
C30 C31 1.288 . S
C30 C35 1.377 . S
C30 O57 1.393 . S
C31 C30 1.288 . S
C31 C32 1.369 . S
C31 H97 0.932 . S
C32 C31 1.369 . S
C32 C33 1.398 . S
C32 C36 1.527 . S
C33 C32 1.398 . S
C33 C34 1.380 . S
C33 C47 1.497 . S
C34 C33 1.380 . S
C34 C35 1.383 . S
C34 C37 1.603 . S
C35 C30 1.377 . S
C35 C34 1.383 . S
C35 H98 0.929 . S
C36 C32 1.527 . S
C36 H99 0.961 . S
C36 H100 0.959 . S
C36 H101 0.959 . S
C37 C34 1.603 . S
C37 H102 0.960 . S
C37 H103 0.962 . S
C37 H104 0.961 . S
C38 C5 1.587 . S
C38 C39 1.360 . S
C38 C51 1.412 . S
C39 C38 1.360 . S
C39 C40 1.365 . S
C39 H105 0.929 . S
C40 C15 1.553 1_455 S
C40 C39 1.365 . S
C40 C41 1.404 . S
C41 C40 1.404 . S
C41 C42 1.395 1_455 S
C41 C52 1.451 . S
C42 C41 1.395 1_655 S
C42 C43 1.322 . S
C42 H106 0.930 . S
C43 C42 1.322 . S
C43 C44 1.459 . S
C43 H107 0.929 . S
C44 C43 1.459 . S
C44 C45 1.445 . S
C44 C53 1.395 1_655 S
C45 C23 1.432 . S
C45 C44 1.445 . S
C45 C46 1.370 . S
C46 C45 1.370 . S
C46 C47 1.438 1_655 S
C46 H108 0.930 . S
C47 C33 1.497 . S
C47 C46 1.438 1_455 S
C47 C48 1.360 . S
C48 C47 1.360 . S
C48 C49 1.401 . S
C48 C53 1.446 . S
C49 C48 1.401 . S
C49 C50 1.347 . S
C49 H109 0.929 . S
C50 C49 1.347 . S
C50 C51 1.455 . S
C50 H110 0.930 . S
C51 C38 1.412 . S
C51 C50 1.455 . S
C51 C52 1.331 . S
C52 C41 1.451 . S
C52 C51 1.331 . S
C52 C53 1.497 . S
C53 C44 1.395 1_455 S
C53 C48 1.446 . S
C53 C52 1.497 . S
C54 C55 1.582 . S
C54 H111 0.962 . S
C54 H112 0.959 . S
C54 H113 0.958 . S
C55 C54 1.582 . S
C55 O58 1.458 . S
C55 H84 0.980 . S
O56 C1 1.426 . S
O56 C2 1.334 . S
O57 C29 1.412 . S
O57 C30 1.393 . S
O58 C20 1.435 . S
O58 C55 1.458 . S
O59 C11 1.468 . S
O59 C12 1.408 . S
H60 C1 0.980 . S
H61 C0 0.959 . S
H62 C0 0.959 . S
H63 C0 0.960 . S
H64 C3 0.929 . S
H65 C7 0.929 . S
H66 C8 0.959 . S
H67 C8 0.961 . S
H68 C8 0.961 . S
H69 C9 0.960 . S
H70 C9 0.960 . S
H71 C9 0.961 . S
H72 C11 0.980 . S
H73 C10 0.961 . S
H74 C10 0.960 . S
H75 C10 0.959 . S
H76 C13 0.930 . S
H77 C17 0.931 . S
H78 C18 0.959 1_455 S
H79 C18 0.961 1_455 S
H80 C18 0.959 . S
H81 C19 0.960 . S
H82 C19 0.960 1_455 S
H83 C19 0.960 . S
H84 C55 0.980 . S
H85 C21 0.930 . S
H86 C25 0.930 . S
H87 C26 0.961 . S
H88 C26 0.960 . S
H89 C26 0.958 . S
H90 C27 0.961 . S
H91 C27 0.960 . S
H92 C27 0.960 . S
H93 C29 0.980 . S
H94 C28 0.961 . S
H95 C28 0.961 . S
H96 C28 0.959 . S
H97 C31 0.932 . S
H98 C35 0.929 . S
H99 C36 0.961 . S
H100 C36 0.959 . S
H101 C36 0.959 . S
H102 C37 0.960 . S
H103 C37 0.962 . S
H104 C37 0.961 . S
H105 C39 0.929 . S
H106 C42 0.930 . S
H107 C43 0.929 . S
H108 C46 0.930 . S
H109 C49 0.929 . S
H110 C50 0.930 . S
H111 C54 0.962 . S
H112 C54 0.959 . S
H113 C54 0.958 . S
C114 C115 1.560 . S
C114 H175 0.959 . S
C114 H176 0.959 . S
C114 H177 0.960 . S
C115 C114 1.560 . S
C115 O170 1.426 . S
C115 H174 0.980 . S
C116 C117 1.407 . S
C116 C121 1.418 . S
C116 O170 1.334 . S
C117 C116 1.407 . S
C117 C118 1.360 . S
C117 H178 0.929 . S
C118 C117 1.360 . S
C118 C119 1.401 . S
C118 C122 1.527 . S
C119 C118 1.401 . S
C119 C120 1.405 . S
C119 C152 1.587 . S
C120 C119 1.405 . S
C120 C121 1.332 . S
C120 C123 1.496 . S
C121 C116 1.418 . S
C121 C120 1.332 . S
C121 H179 0.929 . S
C122 C118 1.527 . S
C122 H180 0.959 . S
C122 H181 0.961 . S
C122 H182 0.961 . S
C123 C120 1.496 . S
C123 H183 0.960 . S
C123 H184 0.960 . S
C123 H185 0.961 . S
C124 C125 1.517 . S
C124 H187 0.961 . S
C124 H188 0.960 . S
C124 H189 0.959 . S
C125 C124 1.517 . S
C125 O173 1.468 . S
C125 H186 0.980 . S
C126 C127 1.349 . S
C126 C131 1.367 . S
C126 O173 1.408 . S
C127 C126 1.349 . S
C127 C128 1.407 . S
C127 H190 0.930 . S
C128 C127 1.407 . S
C128 C129 1.449 . S
C128 C132 1.535 . S
C129 C128 1.449 . S
C129 C130 1.384 . S
C129 C154 1.553 . S
C130 C129 1.384 . S
C130 C131 1.364 . S
C130 C133 1.450 . S
C131 C126 1.367 . S
C131 C130 1.364 . S
C131 H191 0.931 . S
C132 C128 1.535 . S
C132 H192 0.959 . S
C132 H193 0.961 . S
C132 H194 0.959 . S
C133 C130 1.450 . S
C133 H195 0.960 . S
C133 H196 0.960 . S
C133 H197 0.960 . S
C134 C135 1.309 . S
C134 C139 1.304 . S
C134 O172 1.435 . S
C135 C134 1.309 . S
C135 C136 1.476 . S
C135 H199 0.930 . S
C136 C135 1.476 . S
C136 C137 1.400 . S
C136 C140 1.567 . S
C137 C136 1.400 . S
C137 C138 1.373 . S
C137 C159 1.432 . S
C138 C137 1.373 . S
C138 C139 1.339 . S
C138 C141 1.530 . S
C139 C134 1.304 . S
C139 C138 1.339 . S
C139 H200 0.930 . S
C140 C136 1.567 . S
C140 H201 0.961 . S
C140 H202 0.960 . S
C140 H203 0.958 . S
C141 C138 1.530 . S
C141 H204 0.961 . S
C141 H205 0.960 . S
C141 H206 0.960 . S
C142 C143 1.530 . S
C142 H208 0.961 . S
C142 H209 0.961 . S
C142 H210 0.959 . S
C143 C142 1.530 . S
C143 O171 1.412 . S
C143 H207 0.980 . S
C144 C145 1.288 . S
C144 C149 1.377 . S
C144 O171 1.393 . S
C145 C144 1.288 . S
C145 C146 1.369 . S
C145 H211 0.932 . S
C146 C145 1.369 . S
C146 C147 1.398 . S
C146 C150 1.527 1_565 S
C147 C146 1.398 . S
C147 C148 1.380 . S
C147 C161 1.497 1_565 S
C148 C147 1.380 . S
C148 C149 1.383 . S
C148 C151 1.603 . S
C149 C144 1.377 . S
C149 C148 1.383 . S
C149 H212 0.929 . S
C150 C146 1.527 1_545 S
C150 H213 0.961 . S
C150 H214 0.959 . S
C150 H215 0.959 1_545 S
C151 C148 1.603 . S
C151 H216 0.960 . S
C151 H217 0.962 . S
C151 H218 0.961 . S
C152 C119 1.587 . S
C152 C153 1.360 . S
C152 C165 1.412 . S
C153 C152 1.360 . S
C153 C154 1.365 1_565 S
C153 H219 0.929 . S
C154 C129 1.553 . S
C154 C153 1.365 1_545 S
C154 C155 1.404 . S
C155 C154 1.404 . S
C155 C156 1.395 . S
C155 C166 1.451 . S
C156 C155 1.395 . S
C156 C157 1.322 . S
C156 H220 0.930 . S
C157 C156 1.322 . S
C157 C158 1.459 . S
C157 H221 0.929 . S
C158 C157 1.459 . S
C158 C159 1.445 . S
C158 C167 1.395 . S
C159 C137 1.432 . S
C159 C158 1.445 . S
C159 C160 1.370 . S
C160 C159 1.370 . S
C160 C161 1.438 . S
C160 H222 0.930 . S
C161 C147 1.497 1_545 S
C161 C160 1.438 . S
C161 C162 1.360 1_545 S
C162 C161 1.360 1_565 S
C162 C163 1.401 . S
C162 C167 1.446 1_565 S
C163 C162 1.401 . S
C163 C164 1.347 . S
C163 H223 0.929 . S
C164 C163 1.347 . S
C164 C165 1.455 . S
C164 H224 0.930 . S
C165 C152 1.412 . S
C165 C164 1.455 . S
C165 C166 1.331 1_565 S
C166 C155 1.451 . S
C166 C165 1.331 1_545 S
C166 C167 1.497 . S
C167 C158 1.395 . S
C167 C162 1.446 1_545 S
C167 C166 1.497 . S
C168 C169 1.582 . S
C168 H225 0.962 . S
C168 H226 0.959 . S
C168 H227 0.958 . S
C169 C168 1.582 . S
C169 O172 1.458 . S
C169 H198 0.980 . S
O170 C115 1.426 . S
O170 C116 1.334 . S
O171 C143 1.412 . S
O171 C144 1.393 . S
O172 C134 1.435 . S
O172 C169 1.458 . S
O173 C125 1.468 . S
O173 C126 1.408 . S
H174 C115 0.980 . S
H175 C114 0.959 . S
H176 C114 0.959 . S
H177 C114 0.960 . S
H178 C117 0.929 . S
H179 C121 0.929 . S
H180 C122 0.959 . S
H181 C122 0.961 . S
H182 C122 0.961 . S
H183 C123 0.960 . S
H184 C123 0.960 . S
H185 C123 0.961 . S
H186 C125 0.980 . S
H187 C124 0.961 . S
H188 C124 0.960 . S
H189 C124 0.959 . S
H190 C127 0.930 . S
H191 C131 0.931 . S
H192 C132 0.959 . S
H193 C132 0.961 . S
H194 C132 0.959 . S
H195 C133 0.960 . S
H196 C133 0.960 . S
H197 C133 0.960 . S
H198 C169 0.980 . S
H199 C135 0.930 . S
H200 C139 0.930 . S
H201 C140 0.961 . S
H202 C140 0.960 . S
H203 C140 0.958 . S
H204 C141 0.961 . S
H205 C141 0.960 . S
H206 C141 0.960 . S
H207 C143 0.980 . S
H208 C142 0.961 . S
H209 C142 0.961 . S
H210 C142 0.959 . S
H211 C145 0.932 . S
H212 C149 0.929 . S
H213 C150 0.961 . S
H214 C150 0.959 . S
H215 C150 0.959 1_565 S
H216 C151 0.960 . S
H217 C151 0.962 . S
H218 C151 0.961 . S
H219 C153 0.929 . S
H220 C156 0.930 . S
H221 C157 0.929 . S
H222 C160 0.930 . S
H223 C163 0.929 . S
H224 C164 0.930 . S
H225 C168 0.962 . S
H226 C168 0.959 . S
H227 C168 0.958 . S
C228 C229 1.560 . S
C228 H289 0.959 . S
C228 H290 0.959 . S
C228 H291 0.960 . S
C229 C228 1.560 . S
C229 O284 1.426 . S
C229 H288 0.980 . S
C230 C231 1.407 . S
C230 C235 1.418 . S
C230 O284 1.334 . S
C231 C230 1.407 . S
C231 C232 1.360 . S
C231 H292 0.929 . S
C232 C231 1.360 . S
C232 C233 1.401 . S
C232 C236 1.527 . S
C233 C232 1.401 . S
C233 C234 1.405 . S
C233 C266 1.587 . S
C234 C233 1.405 . S
C234 C235 1.332 . S
C234 C237 1.496 . S
C235 C230 1.418 . S
C235 C234 1.332 . S
C235 H293 0.929 . S
C236 C232 1.527 . S
C236 H294 0.959 . S
C236 H295 0.961 . S
C236 H296 0.961 . S
C237 C234 1.496 . S
C237 H297 0.960 . S
C237 H298 0.960 . S
C237 H299 0.961 . S
C238 C239 1.517 . S
C238 H301 0.961 . S
C238 H302 0.960 . S
C238 H303 0.959 . S
C239 C238 1.517 . S
C239 O287 1.468 . S
C239 H300 0.980 . S
C240 C241 1.349 . S
C240 C245 1.367 . S
C240 O287 1.408 . S
C241 C240 1.349 . S
C241 C242 1.407 . S
C241 H304 0.930 . S
C242 C241 1.407 . S
C242 C243 1.449 . S
C242 C246 1.535 . S
C243 C242 1.449 . S
C243 C244 1.384 . S
C243 C268 1.553 . S
C244 C243 1.384 . S
C244 C245 1.364 . S
C244 C247 1.450 . S
C245 C240 1.367 . S
C245 C244 1.364 . S
C245 H305 0.931 . S
C246 C242 1.535 . S
C246 H306 0.959 . S
C246 H307 0.961 . S
C246 H308 0.959 . S
C247 C244 1.450 . S
C247 H309 0.960 . S
C247 H310 0.960 . S
C247 H311 0.960 . S
C248 C249 1.309 . S
C248 C253 1.304 . S
C248 O286 1.435 . S
C249 C248 1.309 . S
C249 C250 1.476 . S
C249 H313 0.930 . S
C250 C249 1.476 . S
C250 C251 1.400 . S
C250 C254 1.567 . S
C251 C250 1.400 . S
C251 C252 1.373 . S
C251 C273 1.432 . S
C252 C251 1.373 . S
C252 C253 1.339 . S
C252 C255 1.530 . S
C253 C248 1.304 . S
C253 C252 1.339 . S
C253 H314 0.930 . S
C254 C250 1.567 . S
C254 H315 0.961 . S
C254 H316 0.960 . S
C254 H317 0.958 . S
C255 C252 1.530 . S
C255 H318 0.961 . S
C255 H319 0.960 . S
C255 H320 0.960 . S
C256 C257 1.530 . S
C256 H322 0.961 . S
C256 H323 0.961 . S
C256 H324 0.959 . S
C257 C256 1.530 . S
C257 O285 1.412 . S
C257 H321 0.980 . S
C258 C259 1.288 . S
C258 C263 1.377 . S
C258 O285 1.393 . S
C259 C258 1.288 . S
C259 C260 1.369 . S
C259 H325 0.932 . S
C260 C259 1.369 . S
C260 C261 1.398 . S
C260 C264 1.527 . S
C261 C260 1.398 . S
C261 C262 1.380 . S
C261 C275 1.497 . S
C262 C261 1.380 . S
C262 C263 1.383 . S
C262 C265 1.603 . S
C263 C258 1.377 . S
C263 C262 1.383 . S
C263 H326 0.929 . S
C264 C260 1.527 . S
C264 H327 0.961 . S
C264 H328 0.959 . S
C264 H329 0.959 . S
C265 C262 1.603 . S
C265 H330 0.960 . S
C265 H331 0.962 . S
C265 H332 0.961 . S
C266 C233 1.587 . S
C266 C267 1.360 . S
C266 C279 1.412 . S
C267 C266 1.360 . S
C267 C268 1.365 . S
C267 H333 0.929 . S
C268 C243 1.553 . S
C268 C267 1.365 . S
C268 C269 1.404 . S
C269 C268 1.404 . S
C269 C270 1.395 . S
C269 C280 1.451 . S
C270 C269 1.395 . S
C270 C271 1.322 . S
C270 H334 0.930 . S
C271 C270 1.322 . S
C271 C272 1.459 . S
C271 H335 0.929 . S
C272 C271 1.459 . S
C272 C273 1.445 . S
C272 C281 1.395 . S
C273 C251 1.432 . S
C273 C272 1.445 . S
C273 C274 1.370 . S
C274 C273 1.370 . S
C274 C275 1.438 . S
C274 H336 0.930 . S
C275 C261 1.497 . S
C275 C274 1.438 . S
C275 C276 1.360 . S
C276 C275 1.360 . S
C276 C277 1.401 . S
C276 C281 1.446 . S
C277 C276 1.401 . S
C277 C278 1.347 . S
C277 H337 0.929 . S
C278 C277 1.347 . S
C278 C279 1.455 . S
C278 H338 0.930 . S
C279 C266 1.412 . S
C279 C278 1.455 . S
C279 C280 1.331 . S
C280 C269 1.451 . S
C280 C279 1.331 . S
C280 C281 1.497 . S
C281 C272 1.395 . S
C281 C276 1.446 . S
C281 C280 1.497 . S
C282 C283 1.582 . S
C282 H339 0.962 . S
C282 H340 0.959 . S
C282 H341 0.958 . S
C283 C282 1.582 . S
C283 O286 1.458 . S
C283 H312 0.980 . S
O284 C229 1.426 . S
O284 C230 1.334 . S
O285 C257 1.412 . S
O285 C258 1.393 . S
O286 C248 1.435 . S
O286 C283 1.458 . S
O287 C239 1.468 . S
O287 C240 1.408 . S
H288 C229 0.980 . S
H289 C228 0.959 . S
H290 C228 0.959 . S
H291 C228 0.960 . S
H292 C231 0.929 . S
H293 C235 0.929 . S
H294 C236 0.959 . S
H295 C236 0.961 . S
H296 C236 0.961 . S
H297 C237 0.960 . S
H298 C237 0.960 . S
H299 C237 0.961 . S
H300 C239 0.980 . S
H301 C238 0.961 . S
H302 C238 0.960 . S
H303 C238 0.959 . S
H304 C241 0.930 . S
H305 C245 0.931 . S
H306 C246 0.959 . S
H307 C246 0.961 . S
H308 C246 0.959 . S
H309 C247 0.960 . S
H310 C247 0.960 . S
H311 C247 0.960 . S
H312 C283 0.980 . S
H313 C249 0.930 . S
H314 C253 0.930 . S
H315 C254 0.961 . S
H316 C254 0.960 . S
H317 C254 0.958 . S
H318 C255 0.961 . S
H319 C255 0.960 . S
H320 C255 0.960 . S
H321 C257 0.980 . S
H322 C256 0.961 . S
H323 C256 0.961 . S
H324 C256 0.959 . S
H325 C259 0.932 . S
H326 C263 0.929 . S
H327 C264 0.961 . S
H328 C264 0.959 . S
H329 C264 0.959 . S
H330 C265 0.960 . S
H331 C265 0.962 . S
H332 C265 0.961 . S
H333 C267 0.929 . S
H334 C270 0.930 . S
H335 C271 0.929 . S
H336 C274 0.930 . S
H337 C277 0.929 . S
H338 C278 0.930 . S
H339 C282 0.962 . S
H340 C282 0.959 . S
H341 C282 0.958 . S
C342 C343 1.560 . S
C342 H403 0.959 . S
C342 H404 0.959 . S
C342 H405 0.960 . S
C343 C342 1.560 . S
C343 O398 1.426 . S
C343 H402 0.980 . S
C344 C345 1.407 . S
C344 C349 1.418 . S
C344 O398 1.334 . S
C345 C344 1.407 . S
C345 C346 1.360 . S
C345 H406 0.929 . S
C346 C345 1.360 . S
C346 C347 1.401 . S
C346 C350 1.527 . S
C347 C346 1.401 . S
C347 C348 1.405 . S
C347 C380 1.587 . S
C348 C347 1.405 . S
C348 C349 1.332 . S
C348 C351 1.496 . S
C349 C344 1.418 . S
C349 C348 1.332 . S
C349 H407 0.929 . S
C350 C346 1.527 . S
C350 H408 0.959 . S
C350 H409 0.961 . S
C350 H410 0.961 . S
C351 C348 1.496 . S
C351 H411 0.960 . S
C351 H412 0.960 . S
C351 H413 0.961 . S
C352 C353 1.517 . S
C352 H415 0.961 . S
C352 H416 0.960 . S
C352 H417 0.959 . S
C353 C352 1.517 . S
C353 O401 1.468 . S
C353 H414 0.980 . S
C354 C355 1.349 . S
C354 C359 1.367 . S
C354 O401 1.408 . S
C355 C354 1.349 . S
C355 C356 1.407 . S
C355 H418 0.930 . S
C356 C355 1.407 . S
C356 C357 1.449 . S
C356 C360 1.535 . S
C357 C356 1.449 . S
C357 C358 1.384 . S
C357 C382 1.553 1_655 S
C358 C357 1.384 . S
C358 C359 1.364 . S
C358 C361 1.450 . S
C359 C354 1.367 . S
C359 C358 1.364 . S
C359 H419 0.931 . S
C360 C356 1.535 . S
C360 H420 0.959 1_655 S
C360 H421 0.957 1_655 S
C360 H422 0.959 . S
C361 C358 1.450 . S
C361 H423 0.960 . S
C361 H424 0.960 1_655 S
C361 H425 0.960 . S
C362 C363 1.309 . S
C362 C367 1.304 . S
C362 O400 1.435 . S
C363 C362 1.309 . S
C363 C364 1.476 . S
C363 H427 0.930 . S
C364 C363 1.476 . S
C364 C365 1.400 . S
C364 C368 1.567 . S
C365 C364 1.400 . S
C365 C366 1.373 . S
C365 C387 1.432 . S
C366 C365 1.373 . S
C366 C367 1.339 . S
C366 C369 1.530 . S
C367 C362 1.304 . S
C367 C366 1.339 . S
C367 H428 0.930 . S
C368 C364 1.567 . S
C368 H429 0.961 . S
C368 H430 0.960 . S
C368 H431 0.958 . S
C369 C366 1.530 . S
C369 H432 0.961 . S
C369 H433 0.960 . S
C369 H434 0.960 . S
C370 C371 1.530 . S
C370 H436 0.961 . S
C370 H437 0.961 . S
C370 H438 0.959 . S
C371 C370 1.530 . S
C371 O399 1.412 . S
C371 H435 0.980 . S
C372 C373 1.288 . S
C372 C377 1.377 . S
C372 O399 1.393 . S
C373 C372 1.288 . S
C373 C374 1.369 . S
C373 H439 0.932 . S
C374 C373 1.369 . S
C374 C375 1.398 . S
C374 C378 1.527 . S
C375 C374 1.398 . S
C375 C376 1.380 . S
C375 C389 1.497 . S
C376 C375 1.380 . S
C376 C377 1.383 . S
C376 C379 1.603 . S
C377 C372 1.377 . S
C377 C376 1.383 . S
C377 H440 0.929 . S
C378 C374 1.527 . S
C378 H441 0.961 . S
C378 H442 0.959 1_455 S
C378 H443 0.959 . S
C379 C376 1.603 . S
C379 H444 0.960 . S
C379 H445 0.962 . S
C379 H446 0.961 . S
C380 C347 1.587 . S
C380 C381 1.360 . S
C380 C393 1.412 . S
C381 C380 1.360 . S
C381 C382 1.365 . S
C381 H447 0.929 . S
C382 C357 1.553 1_455 S
C382 C381 1.365 . S
C382 C383 1.404 . S
C383 C382 1.404 . S
C383 C384 1.395 1_455 S
C383 C394 1.451 . S
C384 C383 1.395 1_655 S
C384 C385 1.322 . S
C384 H448 0.930 . S
C385 C384 1.322 . S
C385 C386 1.459 . S
C385 H449 0.929 . S
C386 C385 1.459 . S
C386 C387 1.445 . S
C386 C395 1.395 1_655 S
C387 C365 1.432 . S
C387 C386 1.445 . S
C387 C388 1.370 . S
C388 C387 1.370 . S
C388 C389 1.438 1_655 S
C388 H450 0.930 . S
C389 C375 1.497 . S
C389 C388 1.438 1_455 S
C389 C390 1.360 . S
C390 C389 1.360 . S
C390 C391 1.401 . S
C390 C395 1.446 . S
C391 C390 1.401 . S
C391 C392 1.347 . S
C391 H451 0.929 . S
C392 C391 1.347 . S
C392 C393 1.455 . S
C392 H452 0.930 . S
C393 C380 1.412 . S
C393 C392 1.455 . S
C393 C394 1.331 . S
C394 C383 1.451 . S
C394 C393 1.331 . S
C394 C395 1.497 . S
C395 C386 1.395 1_455 S
C395 C390 1.446 . S
C395 C394 1.497 . S
C396 C397 1.582 . S
C396 H453 0.962 . S
C396 H454 0.959 . S
C396 H455 0.958 . S
C397 C396 1.582 . S
C397 O400 1.458 . S
C397 H426 0.980 . S
O398 C343 1.426 . S
O398 C344 1.334 . S
O399 C371 1.412 . S
O399 C372 1.393 . S
O400 C362 1.435 . S
O400 C397 1.458 . S
O401 C353 1.468 . S
O401 C354 1.408 . S
H402 C343 0.980 . S
H403 C342 0.959 . S
H404 C342 0.959 . S
H405 C342 0.960 . S
H406 C345 0.929 . S
H407 C349 0.929 . S
H408 C350 0.959 . S
H409 C350 0.961 . S
H410 C350 0.961 . S
H411 C351 0.960 . S
H412 C351 0.960 . S
H413 C351 0.961 . S
H414 C353 0.980 . S
H415 C352 0.961 . S
H416 C352 0.960 . S
H417 C352 0.959 . S
H418 C355 0.930 . S
H419 C359 0.931 . S
H420 C360 0.959 1_455 S
H421 C360 0.957 1_455 S
H422 C360 0.959 . S
H423 C361 0.960 . S
H424 C361 0.960 1_455 S
H425 C361 0.960 . S
H426 C397 0.980 . S
H427 C363 0.930 . S
H428 C367 0.930 . S
H429 C368 0.961 . S
H430 C368 0.960 . S
H431 C368 0.958 . S
H432 C369 0.961 . S
H433 C369 0.960 . S
H434 C369 0.960 . S
H435 C371 0.980 . S
H436 C370 0.961 . S
H437 C370 0.961 . S
H438 C370 0.959 . S
H439 C373 0.932 . S
H440 C377 0.929 . S
H441 C378 0.961 . S
H442 C378 0.959 1_655 S
H443 C378 0.959 . S
H444 C379 0.960 . S
H445 C379 0.962 . S
H446 C379 0.961 . S
H447 C381 0.929 . S
H448 C384 0.930 . S
H449 C385 0.929 . S
H450 C388 0.930 . S
H451 C391 0.929 . S
H452 C392 0.930 . S
H453 C396 0.962 . S
H454 C396 0.959 . S
H455 C396 0.958 . S
C456 C457 1.560 . S
C456 H517 0.959 . S
C456 H518 0.959 . S
C456 H519 0.960 . S
C457 C456 1.560 . S
C457 O512 1.426 . S
C457 H516 0.980 . S
C458 C459 1.407 . S
C458 C463 1.418 . S
C458 O512 1.334 . S
C459 C458 1.407 . S
C459 C460 1.360 . S
C459 H520 0.929 . S
C460 C459 1.360 . S
C460 C461 1.401 . S
C460 C464 1.527 . S
C461 C460 1.401 . S
C461 C462 1.405 . S
C461 C494 1.587 . S
C462 C461 1.405 . S
C462 C463 1.332 . S
C462 C465 1.496 . S
C463 C458 1.418 . S
C463 C462 1.332 . S
C463 H521 0.929 . S
C464 C460 1.527 . S
C464 H522 0.959 . S
C464 H523 0.961 . S
C464 H524 0.961 . S
C465 C462 1.496 . S
C465 H525 0.960 . S
C465 H526 0.960 . S
C465 H527 0.961 . S
C466 C467 1.517 . S
C466 H529 0.961 . S
C466 H530 0.960 . S
C466 H531 0.959 . S
C467 C466 1.517 . S
C467 O515 1.468 . S
C467 H528 0.980 . S
C468 C469 1.349 . S
C468 C473 1.367 . S
C468 O515 1.408 . S
C469 C468 1.349 . S
C469 C470 1.407 . S
C469 H532 0.930 . S
C470 C469 1.407 . S
C470 C471 1.449 . S
C470 C474 1.535 . S
C471 C470 1.449 . S
C471 C472 1.384 . S
C471 C496 1.553 . S
C472 C471 1.384 . S
C472 C473 1.364 . S
C472 C475 1.450 . S
C473 C468 1.367 . S
C473 C472 1.364 . S
C473 H533 0.931 . S
C474 C470 1.535 . S
C474 H534 0.959 . S
C474 H535 0.961 . S
C474 H536 0.959 . S
C475 C472 1.450 . S
C475 H537 0.960 . S
C475 H538 0.960 . S
C475 H539 0.960 . S
C476 C477 1.309 . S
C476 C481 1.304 . S
C476 O514 1.435 . S
C477 C476 1.309 . S
C477 C478 1.476 . S
C477 H541 0.930 . S
C478 C477 1.476 . S
C478 C479 1.400 . S
C478 C482 1.567 . S
C479 C478 1.400 . S
C479 C480 1.373 . S
C479 C501 1.432 . S
C480 C479 1.373 . S
C480 C481 1.339 . S
C480 C483 1.530 . S
C481 C476 1.304 . S
C481 C480 1.339 . S
C481 H542 0.930 . S
C482 C478 1.567 . S
C482 H543 0.961 . S
C482 H544 0.960 . S
C482 H545 0.958 . S
C483 C480 1.530 . S
C483 H546 0.961 . S
C483 H547 0.960 . S
C483 H548 0.960 . S
C484 C485 1.530 . S
C484 H550 0.961 . S
C484 H551 0.961 . S
C484 H552 0.959 . S
C485 C484 1.530 . S
C485 O513 1.412 . S
C485 H549 0.980 . S
C486 C487 1.288 . S
C486 C491 1.377 . S
C486 O513 1.393 . S
C487 C486 1.288 . S
C487 C488 1.369 . S
C487 H553 0.932 . S
C488 C487 1.369 . S
C488 C489 1.398 . S
C488 C492 1.526 1_565 S
C489 C488 1.398 . S
C489 C490 1.380 . S
C489 C503 1.497 1_565 S
C490 C489 1.380 . S
C490 C491 1.383 . S
C490 C493 1.603 . S
C491 C486 1.377 . S
C491 C490 1.383 . S
C491 H554 0.929 . S
C492 C488 1.526 1_545 S
C492 H555 0.961 1_545 S
C492 H556 0.976 . S
C492 H557 0.944 1_545 S
C493 C490 1.603 . S
C493 H558 0.960 . S
C493 H559 0.962 . S
C493 H560 0.961 . S
C494 C461 1.587 . S
C494 C495 1.360 . S
C494 C507 1.412 . S
C495 C494 1.360 . S
C495 C496 1.365 1_565 S
C495 H561 0.929 . S
C496 C471 1.553 . S
C496 C495 1.365 1_545 S
C496 C497 1.404 . S
C497 C496 1.404 . S
C497 C498 1.395 . S
C497 C508 1.451 1_545 S
C498 C497 1.395 . S
C498 C499 1.322 . S
C498 H562 0.930 . S
C499 C498 1.322 . S
C499 C500 1.414 1_556 S
C499 H563 0.929 . S
C500 C499 1.414 1_554 S
C500 C501 1.497 . S
C500 C509 1.390 1_554 S
C501 C479 1.432 . S
C501 C500 1.497 . S
C501 C502 1.370 . S
C502 C501 1.370 . S
C502 C503 1.438 . S
C502 H564 0.930 . S
C503 C489 1.497 1_545 S
C503 C502 1.438 . S
C503 C504 1.360 1_545 S
C504 C503 1.360 1_565 S
C504 C505 1.401 . S
C504 C509 1.446 1_564 S
C505 C504 1.401 . S
C505 C506 1.347 1_554 S
C505 H565 0.929 . S
C506 C505 1.347 1_556 S
C506 C507 1.455 . S
C506 H566 0.930 . S
C507 C494 1.412 . S
C507 C506 1.455 . S
C507 C508 1.331 . S
C508 C497 1.451 1_565 S
C508 C507 1.331 . S
C508 C509 1.497 1_565 S
C509 C500 1.390 1_556 S
C509 C504 1.446 1_546 S
C509 C508 1.497 1_545 S
C510 C511 1.582 . S
C510 H567 0.962 . S
C510 H568 0.959 . S
C510 H569 0.958 . S
C511 C510 1.582 . S
C511 O514 1.458 . S
C511 H540 0.980 . S
O512 C457 1.426 . S
O512 C458 1.334 . S
O513 C485 1.412 . S
O513 C486 1.393 . S
O514 C476 1.435 . S
O514 C511 1.458 . S
O515 C467 1.468 . S
O515 C468 1.408 . S
H516 C457 0.980 . S
H517 C456 0.959 . S
H518 C456 0.959 . S
H519 C456 0.960 . S
H520 C459 0.929 . S
H521 C463 0.929 . S
H522 C464 0.959 . S
H523 C464 0.961 . S
H524 C464 0.961 . S
H525 C465 0.960 . S
H526 C465 0.960 . S
H527 C465 0.961 . S
H528 C467 0.980 . S
H529 C466 0.961 . S
H530 C466 0.960 . S
H531 C466 0.959 . S
H532 C469 0.930 . S
H533 C473 0.931 . S
H534 C474 0.959 . S
H535 C474 0.961 . S
H536 C474 0.959 . S
H537 C475 0.960 . S
H538 C475 0.960 . S
H539 C475 0.960 . S
H540 C511 0.980 . S
H541 C477 0.930 . S
H542 C481 0.930 . S
H543 C482 0.961 . S
H544 C482 0.960 . S
H545 C482 0.958 . S
H546 C483 0.961 . S
H547 C483 0.960 . S
H548 C483 0.960 . S
H549 C485 0.980 . S
H550 C484 0.961 . S
H551 C484 0.961 . S
H552 C484 0.959 . S
H553 C487 0.932 . S
H554 C491 0.929 . S
H555 C492 0.961 1_565 S
H556 C492 0.976 . S
H557 C492 0.944 1_565 S
H558 C493 0.960 . S
H559 C493 0.962 . S
H560 C493 0.961 . S
H561 C495 0.929 . S
H562 C498 0.930 . S
H563 C499 0.929 . S
H564 C502 0.930 . S
H565 C505 0.929 . S
H566 C506 0.930 . S
H567 C510 0.962 . S
H568 C510 0.959 . S
H569 C510 0.958 . S
C570 C571 1.560 . S
C570 H631 0.959 . S
C570 H632 0.959 . S
C570 H633 0.960 . S
C571 C570 1.560 . S
C571 O626 1.426 . S
C571 H630 0.980 . S
C572 C573 1.407 . S
C572 C577 1.418 . S
C572 O626 1.334 . S
C573 C572 1.407 . S
C573 C574 1.360 . S
C573 H634 0.929 . S
C574 C573 1.360 . S
C574 C575 1.401 . S
C574 C578 1.527 . S
C575 C574 1.401 . S
C575 C576 1.405 . S
C575 C608 1.587 . S
C576 C575 1.405 . S
C576 C577 1.332 . S
C576 C579 1.496 . S
C577 C572 1.418 . S
C577 C576 1.332 . S
C577 H635 0.929 . S
C578 C574 1.527 . S
C578 H636 0.959 . S
C578 H637 0.961 . S
C578 H638 0.961 . S
C579 C576 1.496 . S
C579 H639 0.960 . S
C579 H640 0.960 . S
C579 H641 0.961 . S
C580 C581 1.517 . S
C580 H643 0.961 . S
C580 H644 0.960 . S
C580 H645 0.959 . S
C581 C580 1.517 . S
C581 O629 1.468 . S
C581 H642 0.980 . S
C582 C583 1.349 . S
C582 C587 1.367 . S
C582 O629 1.408 . S
C583 C582 1.349 . S
C583 C584 1.407 . S
C583 H646 0.930 . S
C584 C583 1.407 . S
C584 C585 1.449 . S
C584 C588 1.535 . S
C585 C584 1.449 . S
C585 C586 1.384 . S
C585 C610 1.553 . S
C586 C585 1.384 . S
C586 C587 1.364 . S
C586 C589 1.450 . S
C587 C582 1.367 . S
C587 C586 1.364 . S
C587 H647 0.931 . S
C588 C584 1.535 . S
C588 H648 0.959 . S
C588 H649 0.961 . S
C588 H650 0.959 . S
C589 C586 1.450 . S
C589 H651 0.960 . S
C589 H652 0.960 . S
C589 H653 0.960 . S
C590 C591 1.309 . S
C590 C595 1.304 . S
C590 O628 1.435 . S
C591 C590 1.309 . S
C591 C592 1.476 . S
C591 H655 0.930 . S
C592 C591 1.476 . S
C592 C593 1.400 . S
C592 C596 1.567 . S
C593 C592 1.400 . S
C593 C594 1.373 . S
C593 C615 1.432 . S
C594 C593 1.373 . S
C594 C595 1.339 . S
C594 C597 1.530 . S
C595 C590 1.304 . S
C595 C594 1.339 . S
C595 H656 0.930 . S
C596 C592 1.567 . S
C596 H657 0.961 . S
C596 H658 0.960 . S
C596 H659 0.958 . S
C597 C594 1.530 . S
C597 H660 0.961 . S
C597 H661 0.960 . S
C597 H662 0.960 . S
C598 C599 1.530 . S
C598 H664 0.961 . S
C598 H665 0.961 . S
C598 H666 0.959 . S
C599 C598 1.530 . S
C599 O627 1.412 . S
C599 H663 0.980 . S
C600 C601 1.288 . S
C600 C605 1.377 . S
C600 O627 1.393 . S
C601 C600 1.288 . S
C601 C602 1.369 . S
C601 H667 0.932 . S
C602 C601 1.369 . S
C602 C603 1.398 . S
C602 C606 1.527 . S
C603 C602 1.398 . S
C603 C604 1.380 . S
C603 C617 1.497 . S
C604 C603 1.380 . S
C604 C605 1.383 . S
C604 C607 1.603 . S
C605 C600 1.377 . S
C605 C604 1.383 . S
C605 H668 0.929 . S
C606 C602 1.527 . S
C606 H669 0.961 . S
C606 H670 0.959 . S
C606 H671 0.959 . S
C607 C604 1.603 . S
C607 H672 0.960 . S
C607 H673 0.962 . S
C607 H674 0.961 . S
C608 C575 1.587 . S
C608 C609 1.360 . S
C608 C621 1.412 . S
C609 C608 1.360 . S
C609 C610 1.365 . S
C609 H675 0.929 . S
C610 C585 1.553 . S
C610 C609 1.365 . S
C610 C611 1.404 . S
C611 C610 1.404 . S
C611 C612 1.395 . S
C611 C622 1.451 . S
C612 C611 1.395 . S
C612 C613 1.322 . S
C612 H676 0.930 . S
C613 C612 1.322 . S
C613 C614 1.459 . S
C613 H677 0.929 . S
C614 C613 1.459 . S
C614 C615 1.445 . S
C614 C623 1.395 . S
C615 C593 1.432 . S
C615 C614 1.445 . S
C615 C616 1.370 . S
C616 C615 1.370 . S
C616 C617 1.438 . S
C616 H678 0.930 . S
C617 C603 1.497 . S
C617 C616 1.438 . S
C617 C618 1.360 . S
C618 C617 1.360 . S
C618 C619 1.401 . S
C618 C623 1.446 . S
C619 C618 1.401 . S
C619 C620 1.347 . S
C619 H679 0.929 . S
C620 C619 1.347 . S
C620 C621 1.455 . S
C620 H680 0.930 . S
C621 C608 1.412 . S
C621 C620 1.455 . S
C621 C622 1.331 . S
C622 C611 1.451 . S
C622 C621 1.331 . S
C622 C623 1.497 . S
C623 C614 1.395 . S
C623 C618 1.446 . S
C623 C622 1.497 . S
C624 C625 1.582 . S
C624 H681 0.962 . S
C624 H682 0.959 . S
C624 H683 0.958 . S
C625 C624 1.582 . S
C625 O628 1.458 . S
C625 H654 0.980 . S
O626 C571 1.426 . S
O626 C572 1.334 . S
O627 C599 1.412 . S
O627 C600 1.393 . S
O628 C590 1.435 . S
O628 C625 1.458 . S
O629 C581 1.468 . S
O629 C582 1.408 . S
H630 C571 0.980 . S
H631 C570 0.959 . S
H632 C570 0.959 . S
H633 C570 0.960 . S
H634 C573 0.929 . S
H635 C577 0.929 . S
H636 C578 0.959 . S
H637 C578 0.961 . S
H638 C578 0.961 . S
H639 C579 0.960 . S
H640 C579 0.960 . S
H641 C579 0.961 . S
H642 C581 0.980 . S
H643 C580 0.961 . S
H644 C580 0.960 . S
H645 C580 0.959 . S
H646 C583 0.930 . S
H647 C587 0.931 . S
H648 C588 0.959 . S
H649 C588 0.961 . S
H650 C588 0.959 . S
H651 C589 0.960 . S
H652 C589 0.960 . S
H653 C589 0.960 . S
H654 C625 0.980 . S
H655 C591 0.930 . S
H656 C595 0.930 . S
H657 C596 0.961 . S
H658 C596 0.960 . S
H659 C596 0.958 . S
H660 C597 0.961 . S
H661 C597 0.960 . S
H662 C597 0.960 . S
H663 C599 0.980 . S
H664 C598 0.961 . S
H665 C598 0.961 . S
H666 C598 0.959 . S
H667 C601 0.932 . S
H668 C605 0.929 . S
H669 C606 0.961 . S
H670 C606 0.959 . S
H671 C606 0.959 . S
H672 C607 0.960 . S
H673 C607 0.962 . S
H674 C607 0.961 . S
H675 C609 0.929 . S
H676 C612 0.930 . S
H677 C613 0.929 . S
H678 C616 0.930 . S
H679 C619 0.929 . S
H680 C620 0.930 . S
H681 C624 0.962 . S
H682 C624 0.959 . S
H683 C624 0.958 . S
Co684 O685 2.216 . S
Co684 O686 2.091 . S
Co684 O688 2.004 . S
Co684 O694 2.021 . S
Co684 O696 2.137 . S
Co684 O697 2.244 . S
O685 Co684 2.216 . S
O685 C692 1.247 . S
O686 Co684 2.091 . S
O686 C692 1.261 . S
C687 O696 1.247 . S
C687 O697 1.272 . S
O688 Co684 2.004 . S
O688 C693 1.259 . S
Co689 O690 2.061 . S
Co689 O695 2.052 . S
Co689 O697 2.135 . S
O690 Co689 2.061 . S
O690 C693 1.235 . S
C691 O694 1.238 . S
C691 O695 1.241 . S
C692 O685 1.247 . S
C692 O686 1.261 . S
C693 O688 1.259 . S
C693 O690 1.235 . S
O694 Co684 2.021 . S
O694 C691 1.238 . S
O695 Co689 2.052 . S
O695 C691 1.241 . S
O696 Co684 2.137 . S
O696 C687 1.247 . S
O697 Co684 2.244 . S
O697 C687 1.272 . S
O697 Co689 2.135 . S
Co698 O699 2.216 . S
Co698 O700 2.091 . S
Co698 O702 2.004 . S
Co698 O708 2.021 . S
Co698 O710 2.137 . S
Co698 O711 2.244 . S
O699 Co698 2.216 . S
O699 C706 1.247 . S
O700 Co698 2.091 . S
O700 C706 1.261 . S
C701 O710 1.247 . S
C701 O711 1.272 . S
O702 Co698 2.004 . S
O702 C707 1.259 . S
Co703 O704 2.061 . S
Co703 O709 2.052 . S
Co703 O711 2.135 . S
O704 Co703 2.061 . S
O704 C707 1.235 . S
C705 O708 1.238 . S
C705 O709 1.241 . S
C706 O699 1.247 . S
C706 O700 1.261 . S
C707 O702 1.259 . S
C707 O704 1.235 . S
O708 Co698 2.021 . S
O708 C705 1.238 . S
O709 Co703 2.052 . S
O709 C705 1.241 . S
O710 Co698 2.137 . S
O710 C701 1.247 . S
O711 Co698 2.244 . S
O711 C701 1.272 . S
O711 Co703 2.135 . S
Co712 O713 2.216 . S
Co712 O714 2.091 . S
Co712 O716 2.004 . S
Co712 O722 2.021 . S
Co712 O724 2.137 . S
Co712 O725 2.244 . S
O713 Co712 2.216 . S
O713 C720 1.247 . S
O714 Co712 2.091 . S
O714 C720 1.261 . S
C715 O724 1.247 . S
C715 O725 1.272 . S
O716 Co712 2.004 . S
O716 C721 1.259 . S
Co717 O718 2.061 . S
Co717 O723 2.052 . S
Co717 O725 2.135 . S
O718 Co717 2.061 . S
O718 C721 1.235 . S
C719 O722 1.238 . S
C719 O723 1.241 . S
C720 O713 1.247 . S
C720 O714 1.261 . S
C721 O716 1.259 . S
C721 O718 1.235 . S
O722 Co712 2.021 . S
O722 C719 1.238 . S
O723 Co717 2.052 . S
O723 C719 1.241 . S
O724 Co712 2.137 . S
O724 C715 1.247 . S
O725 Co712 2.244 . S
O725 C715 1.272 . S
O725 Co717 2.135 . S
Co726 O727 2.216 . S
Co726 O728 2.091 . S
Co726 O730 2.004 . S
Co726 O736 2.021 . S
Co726 O738 2.137 . S
Co726 O739 2.244 . S
O727 Co726 2.216 . S
O727 C734 1.247 . S
O728 Co726 2.091 . S
O728 C734 1.261 . S
C729 O738 1.247 . S
C729 O739 1.272 . S
O730 Co726 2.004 . S
O730 C735 1.259 . S
Co731 O732 2.061 . S
Co731 O737 2.052 . S
Co731 O739 2.135 . S
O732 Co731 2.061 . S
O732 C735 1.235 . S
C733 O736 1.238 . S
C733 O737 1.241 . S
C734 O727 1.247 . S
C734 O728 1.261 . S
C735 O730 1.259 . S
C735 O732 1.235 . S
O736 Co726 2.021 . S
O736 C733 1.238 . S
O737 Co731 2.052 . S
O737 C733 1.241 . S
O738 Co726 2.137 . S
O738 C729 1.247 . S
O739 Co726 2.244 . S
O739 C729 1.272 . S
O739 Co731 2.135 . S
Co740 O741 2.216 . S
Co740 O742 2.091 . S
Co740 O744 2.004 . S
Co740 O750 2.021 . S
Co740 O752 2.137 . S
Co740 O753 2.244 . S
O741 Co740 2.216 . S
O741 C748 1.247 . S
O742 Co740 2.091 . S
O742 C748 1.261 . S
C743 O752 1.247 . S
C743 O753 1.272 . S
O744 Co740 2.004 . S
O744 C749 1.259 . S
Co745 O746 2.061 . S
Co745 O751 2.052 . S
Co745 O753 2.135 . S
O746 Co745 2.061 . S
O746 C749 1.235 . S
C747 O750 1.238 . S
C747 O751 1.241 . S
C748 O741 1.247 . S
C748 O742 1.261 . S
C749 O744 1.259 . S
C749 O746 1.235 . S
O750 Co740 2.021 . S
O750 C747 1.238 . S
O751 Co745 2.052 . S
O751 C747 1.241 . S
O752 Co740 2.137 . S
O752 C743 1.247 . S
O753 Co740 2.244 . S
O753 C743 1.272 . S
O753 Co745 2.135 . S
Co754 O755 2.216 . S
Co754 O756 2.091 . S
Co754 O758 2.004 . S
Co754 O764 2.021 . S
Co754 O766 2.137 . S
Co754 O767 2.244 . S
O755 Co754 2.216 . S
O755 C762 1.247 . S
O756 Co754 2.091 . S
O756 C762 1.261 . S
C757 O766 1.247 . S
C757 O767 1.272 . S
O758 Co754 2.004 . S
O758 C763 1.259 . S
Co759 O760 2.061 . S
Co759 O765 2.052 . S
Co759 O767 2.135 . S
O760 Co759 2.061 . S
O760 C763 1.235 . S
C761 O764 1.238 . S
C761 O765 1.241 . S
C762 O755 1.247 . S
C762 O756 1.261 . S
C763 O758 1.259 . S
C763 O760 1.235 . S
O764 Co754 2.021 . S
O764 C761 1.238 . S
O765 Co759 2.052 . S
O765 C761 1.241 . S
O766 Co754 2.137 . S
O766 C757 1.247 . S
O767 Co754 2.244 . S
O767 C757 1.272 . S
O767 Co759 2.135 . S
H768 C774 0.930 . S
H769 C777 0.930 . S
H770 C778 0.930 . S
H771 C779 0.930 . S
H772 C782 0.930 . S
H773 C783 0.930 . S
C774 H768 0.930 . S
C774 C775 1.355 . S
C774 C776 1.415 . S
C775 C774 1.355 . S
C775 C777 1.419 . S
C776 C774 1.415 . S
C776 C781 1.425 . S
C776 C783 1.409 . S
C777 H769 0.930 . S
C777 C775 1.419 . S
C777 C778 1.362 . S
C778 H770 0.930 . S
C778 C777 1.362 . S
C778 C781 1.409 . S
C779 H771 0.930 . S
C779 C780 1.355 . S
C779 C781 1.415 . S
C780 C779 1.355 . S
C780 C782 1.419 . S
C781 C776 1.425 . S
C781 C778 1.409 . S
C781 C779 1.415 . S
C782 H772 0.930 . S
C782 C780 1.419 . S
C782 C783 1.362 . S
C783 H773 0.930 . S
C783 C776 1.409 . S
C783 C782 1.362 . S
H784 C790 0.930 . S
H785 C793 0.930 . S
H786 C794 0.930 . S
H787 C795 0.930 . S
H788 C798 0.930 . S
H789 C799 0.930 . S
C790 H784 0.930 . S
C790 C791 1.355 . S
C790 C792 1.415 . S
C791 C790 1.355 . S
C791 C793 1.419 . S
C792 C790 1.415 . S
C792 C797 1.425 . S
C792 C799 1.409 . S
C793 H785 0.930 . S
C793 C791 1.419 . S
C793 C794 1.362 . S
C794 H786 0.930 . S
C794 C793 1.362 . S
C794 C797 1.409 . S
C795 H787 0.930 . S
C795 C796 1.355 . S
C795 C797 1.415 . S
C796 C795 1.355 . S
C796 C798 1.419 . S
C797 C792 1.425 . S
C797 C794 1.409 . S
C797 C795 1.415 . S
C798 H788 0.930 . S
C798 C796 1.419 . S
C798 C799 1.362 . S
C799 H789 0.930 . S
C799 C792 1.409 . S
C799 C798 1.362 . S
H800 C806 0.930 . S
H801 C809 0.930 . S
H802 C810 0.930 . S
H803 C811 0.930 . S
H804 C814 0.930 . S
H805 C815 0.930 . S
C806 H800 0.930 . S
C806 C807 1.355 . S
C806 C808 1.415 . S
C807 C806 1.355 . S
C807 C809 1.419 . S
C808 C806 1.415 . S
C808 C813 1.425 . S
C808 C815 1.409 . S
C809 H801 0.930 . S
C809 C807 1.419 . S
C809 C810 1.362 . S
C810 H802 0.930 . S
C810 C809 1.362 . S
C810 C813 1.409 . S
C811 H803 0.930 . S
C811 C812 1.355 . S
C811 C813 1.415 . S
C812 C811 1.355 . S
C812 C814 1.419 . S
C813 C808 1.425 . S
C813 C810 1.409 . S
C813 C811 1.415 . S
C814 H804 0.930 . S
C814 C812 1.419 . S
C814 C815 1.362 . S
C815 H805 0.930 . S
C815 C808 1.409 . S
C815 C814 1.362 . S
H816 C822 0.930 . S
H817 C825 0.930 . S
H818 C826 0.930 . S
H819 C827 0.930 . S
H820 C830 0.930 . S
H821 C831 0.930 . S
C822 H816 0.930 . S
C822 C823 1.355 . S
C822 C824 1.415 . S
C823 C822 1.355 . S
C823 C825 1.419 . S
C824 C822 1.415 . S
C824 C829 1.425 . S
C824 C831 1.409 . S
C825 H817 0.930 . S
C825 C823 1.419 . S
C825 C826 1.362 . S
C826 H818 0.930 . S
C826 C825 1.362 . S
C826 C829 1.409 . S
C827 H819 0.930 . S
C827 C828 1.355 . S
C827 C829 1.415 . S
C828 C827 1.355 . S
C828 C830 1.419 . S
C829 C824 1.425 . S
C829 C826 1.409 . S
C829 C827 1.415 . S
C830 H820 0.930 . S
C830 C828 1.419 . S
C830 C831 1.362 . S
C831 H821 0.930 . S
C831 C824 1.409 . S
C831 C830 1.362 . S
H832 C838 0.930 . S
H833 C841 0.930 . S
H834 C842 0.930 . S
H835 C843 0.930 . S
H836 C846 0.930 . S
H837 C847 0.930 . S
C838 H832 0.930 . S
C838 C839 1.355 . S
C838 C840 1.415 . S
C839 C838 1.355 . S
C839 C841 1.419 . S
C840 C838 1.415 . S
C840 C845 1.425 . S
C840 C847 1.409 . S
C841 H833 0.930 . S
C841 C839 1.419 . S
C841 C842 1.362 . S
C842 H834 0.930 . S
C842 C841 1.362 . S
C842 C845 1.409 . S
C843 H835 0.930 . S
C843 C844 1.355 . S
C843 C845 1.415 . S
C844 C843 1.355 . S
C844 C846 1.419 . S
C845 C840 1.425 . S
C845 C842 1.409 . S
C845 C843 1.415 . S
C846 H836 0.930 . S
C846 C844 1.419 . S
C846 C847 1.362 . S
C847 H837 0.930 . S
C847 C840 1.409 . S
C847 C846 1.362 . S
H848 C854 0.930 . S
H849 C857 0.930 . S
H850 C858 0.930 . S
H851 C859 0.930 . S
H852 C862 0.930 . S
H853 C863 0.930 . S
C854 H848 0.930 . S
C854 C855 1.355 . S
C854 C856 1.415 . S
C855 C854 1.355 . S
C855 C857 1.419 . S
C856 C854 1.415 . S
C856 C861 1.425 . S
C856 C863 1.409 . S
C857 H849 0.930 . S
C857 C855 1.419 . S
C857 C858 1.362 . S
C858 H850 0.930 . S
C858 C857 1.362 . S
C858 C861 1.409 . S
C859 H851 0.930 . S
C859 C860 1.355 . S
C859 C861 1.415 . S
C860 C859 1.355 . S
C860 C862 1.419 . S
C861 C856 1.425 . S
C861 C858 1.409 . S
C861 C859 1.415 . S
C862 H852 0.930 . S
C862 C860 1.419 . S
C862 C863 1.362 . S
C863 H853 0.930 . S
C863 C856 1.409 . S
C863 C862 1.362 . S
H864 C870 0.930 . S
H865 C873 0.930 . S
H866 C874 0.930 . S
H867 C875 0.930 . S
H868 C878 0.930 . S
H869 C879 0.930 . S
C870 H864 0.930 . S
C870 C871 1.355 . S
C870 C872 1.415 . S
C871 C870 1.355 . S
C871 C873 1.419 . S
C872 C870 1.415 . S
C872 C877 1.425 . S
C872 C879 1.409 . S
C873 H865 0.930 . S
C873 C871 1.419 . S
C873 C874 1.362 . S
C874 H866 0.930 . S
C874 C873 1.362 . S
C874 C877 1.409 . S
C875 H867 0.930 . S
C875 C876 1.355 . S
C875 C877 1.415 . S
C876 C875 1.355 . S
C876 C878 1.419 . S
C877 C872 1.425 . S
C877 C874 1.409 . S
C877 C875 1.415 . S
C878 H868 0.930 . S
C878 C876 1.419 . S
C878 C879 1.362 . S
C879 H869 0.930 . S
C879 C872 1.409 . S
C879 C878 1.362 . S
H880 C886 0.930 . S
H881 C889 0.930 . S
H882 C890 0.930 . S
H883 C891 0.930 . S
H884 C894 0.930 . S
H885 C895 0.930 . S
C886 H880 0.930 . S
C886 C887 1.355 . S
C886 C888 1.415 . S
C887 C886 1.355 . S
C887 C889 1.419 . S
C888 C886 1.415 . S
C888 C893 1.425 . S
C888 C895 1.409 . S
C889 H881 0.930 . S
C889 C887 1.419 . S
C889 C890 1.362 . S
C890 H882 0.930 . S
C890 C889 1.362 . S
C890 C893 1.409 . S
C891 H883 0.930 . S
C891 C892 1.355 . S
C891 C893 1.415 . S
C892 C891 1.355 . S
C892 C894 1.419 . S
C893 C888 1.425 . S
C893 C890 1.409 . S
C893 C891 1.415 . S
C894 H884 0.930 . S
C894 C892 1.419 . S
C894 C895 1.362 . S
C895 H885 0.930 . S
C895 C888 1.409 . S
C895 C894 1.362 . S
H896 C902 0.930 . S
H897 C905 0.930 . S
H898 C906 0.930 . S
H899 C907 0.930 . S
H900 C910 0.930 . S
H901 C911 0.930 . S
C902 H896 0.930 . S
C902 C903 1.355 . S
C902 C904 1.415 . S
C903 C902 1.355 . S
C903 C905 1.419 . S
C904 C902 1.415 . S
C904 C909 1.425 . S
C904 C911 1.409 . S
C905 H897 0.930 . S
C905 C903 1.419 . S
C905 C906 1.362 . S
C906 H898 0.930 . S
C906 C905 1.362 . S
C906 C909 1.409 . S
C907 H899 0.930 . S
C907 C908 1.355 . S
C907 C909 1.415 . S
C908 C907 1.355 . S
C908 C910 1.419 . S
C909 C904 1.425 . S
C909 C906 1.409 . S
C909 C907 1.415 . S
C910 H900 0.930 . S
C910 C908 1.419 . S
C910 C911 1.362 . S
C911 H901 0.930 . S
C911 C904 1.409 . S
C911 C910 1.362 . S
H912 C918 0.930 . S
H913 C921 0.930 . S
H914 C922 0.930 . S
H915 C923 0.930 . S
H916 C926 0.930 . S
H917 C927 0.930 . S
C918 H912 0.930 . S
C918 C919 1.355 . S
C918 C920 1.415 . S
C919 C918 1.355 . S
C919 C921 1.419 . S
C920 C918 1.415 . S
C920 C925 1.425 . S
C920 C927 1.409 . S
C921 H913 0.930 . S
C921 C919 1.419 . S
C921 C922 1.362 . S
C922 H914 0.930 . S
C922 C921 1.362 . S
C922 C925 1.409 . S
C923 H915 0.930 . S
C923 C924 1.355 . S
C923 C925 1.415 . S
C924 C923 1.355 . S
C924 C926 1.419 . S
C925 C920 1.425 . S
C925 C922 1.409 . S
C925 C923 1.415 . S
C926 H916 0.930 . S
C926 C924 1.419 . S
C926 C927 1.362 . S
C927 H917 0.930 . S
C927 C920 1.409 . S
C927 C926 1.362 . S
H928 C934 0.930 . S
H929 C937 0.930 . S
H930 C938 0.930 . S
H931 C939 0.930 . S
H932 C942 0.930 . S
H933 C943 0.930 . S
C934 H928 0.930 . S
C934 C935 1.355 . S
C934 C936 1.415 . S
C935 C934 1.355 . S
C935 C937 1.419 . S
C936 C934 1.415 . S
C936 C941 1.425 . S
C936 C943 1.409 . S
C937 H929 0.930 . S
C937 C935 1.419 . S
C937 C938 1.362 . S
C938 H930 0.930 . S
C938 C937 1.362 . S
C938 C941 1.409 . S
C939 H931 0.930 . S
C939 C940 1.355 . S
C939 C941 1.415 . S
C940 C939 1.355 . S
C940 C942 1.419 . S
C941 C936 1.425 . S
C941 C938 1.409 . S
C941 C939 1.415 . S
C942 H932 0.930 . S
C942 C940 1.419 . S
C942 C943 1.362 . S
C943 H933 0.930 . S
C943 C936 1.409 . S
C943 C942 1.362 . S
H944 C950 0.930 . S
H945 C953 0.930 . S
H946 C954 0.930 . S
H947 C955 0.930 . S
H948 C958 0.930 . S
H949 C959 0.930 . S
C950 H944 0.930 . S
C950 C951 1.355 . S
C950 C952 1.415 . S
C951 C950 1.355 . S
C951 C953 1.419 . S
C952 C950 1.415 . S
C952 C957 1.425 . S
C952 C959 1.409 . S
C953 H945 0.930 . S
C953 C951 1.419 . S
C953 C954 1.362 . S
C954 H946 0.930 . S
C954 C953 1.362 . S
C954 C957 1.409 . S
C955 H947 0.930 . S
C955 C956 1.355 . S
C955 C957 1.415 . S
C956 C955 1.355 . S
C956 C958 1.419 . S
C957 C952 1.425 . S
C957 C954 1.409 . S
C957 C955 1.415 . S
C958 H948 0.930 . S
C958 C956 1.419 . S
C958 C959 1.362 . S
C959 H949 0.930 . S
C959 C952 1.409 . S
C959 C958 1.362 . S
H960 C966 0.930 . S
H961 C969 0.930 . S
H962 C970 0.930 . S
H963 C971 0.930 . S
H964 C974 0.930 . S
H965 C975 0.930 . S
C966 H960 0.930 . S
C966 C967 1.355 . S
C966 C968 1.415 . S
C967 C966 1.355 . S
C967 C969 1.419 . S
C968 C966 1.415 . S
C968 C973 1.425 . S
C968 C975 1.409 . S
C969 H961 0.930 . S
C969 C967 1.419 . S
C969 C970 1.362 . S
C970 H962 0.930 . S
C970 C969 1.362 . S
C970 C973 1.409 . S
C971 H963 0.930 . S
C971 C972 1.355 . S
C971 C973 1.415 . S
C972 C971 1.355 . S
C972 C974 1.419 . S
C973 C968 1.425 . S
C973 C970 1.409 . S
C973 C971 1.415 . S
C974 H964 0.930 . S
C974 C972 1.419 . S
C974 C975 1.362 . S
C975 H965 0.930 . S
C975 C968 1.409 . S
C975 C974 1.362 . S
H976 C982 0.930 . S
H977 C985 0.930 . S
H978 C986 0.930 . S
H979 C987 0.930 . S
H980 C990 0.930 . S
H981 C991 0.930 . S
C982 H976 0.930 . S
C982 C983 1.355 . S
C982 C984 1.415 . S
C983 C982 1.355 . S
C983 C985 1.419 . S
C984 C982 1.415 . S
C984 C989 1.425 . S
C984 C991 1.409 . S
C985 H977 0.930 . S
C985 C983 1.419 . S
C985 C986 1.362 . S
C986 H978 0.930 . S
C986 C985 1.362 . S
C986 C989 1.409 . S
C987 H979 0.930 . S
C987 C988 1.355 . S
C987 C989 1.415 . S
C988 C987 1.355 . S
C988 C990 1.419 . S
C989 C984 1.425 . S
C989 C986 1.409 . S
C989 C987 1.415 . S
C990 H980 0.930 . S
C990 C988 1.419 . S
C990 C991 1.362 . S
C991 H981 0.930 . S
C991 C984 1.409 . S
C991 C990 1.362 . S
H992 C998 0.930 . S
H993 C1001 0.930 . S
H994 C1002 0.930 . S
H995 C1003 0.930 . S
H996 C1006 0.930 . S
H997 C1007 0.930 . S
C998 H992 0.930 . S
C998 C999 1.355 . S
C998 C1000 1.415 . S
C999 C998 1.355 . S
C999 C1001 1.419 . S
C1000 C998 1.415 . S
C1000 C1005 1.425 . S
C1000 C1007 1.409 . S
C1001 H993 0.930 . S
C1001 C999 1.419 . S
C1001 C1002 1.362 . S
C1002 H994 0.930 . S
C1002 C1001 1.362 . S
C1002 C1005 1.409 . S
C1003 H995 0.930 . S
C1003 C1004 1.355 . S
C1003 C1005 1.415 . S
C1004 C1003 1.355 . S
C1004 C1006 1.419 . S
C1005 C1000 1.425 . S
C1005 C1002 1.409 . S
C1005 C1003 1.415 . S
C1006 H996 0.930 . S
C1006 C1004 1.419 . S
C1006 C1007 1.362 . S
C1007 H997 0.930 . S
C1007 C1000 1.409 . S
C1007 C1006 1.362 . S
H1008 C1014 0.930 . S
H1009 C1017 0.930 . S
H1010 C1018 0.903 1_554 S
H1011 C1019 0.930 . S
H1012 C1022 0.930 . S
H1013 C1023 0.930 . S
C1014 H1008 0.930 . S
C1014 C1015 1.355 . S
C1014 C1016 1.415 . S
C1015 C1014 1.355 . S
C1015 C1017 1.419 . S
C1016 C1014 1.415 . S
C1016 C1021 1.425 . S
C1016 C1023 1.409 . S
C1017 H1009 0.930 . S
C1017 C1015 1.419 . S
C1017 C1018 1.362 . S
C1018 H1010 0.903 1_556 S
C1018 C1017 1.362 . S
C1018 C1021 1.409 . S
C1019 H1011 0.930 . S
C1019 C1020 1.355 . S
C1019 C1021 1.415 1_554 S
C1020 C1019 1.355 . S
C1020 C1022 1.419 . S
C1021 C1016 1.425 . S
C1021 C1018 1.409 . S
C1021 C1019 1.415 1_556 S
C1022 H1012 0.930 . S
C1022 C1020 1.419 . S
C1022 C1023 1.362 1_554 S
C1023 H1013 0.930 . S
C1023 C1016 1.409 . S
C1023 C1022 1.362 1_556 S
H1024 C1030 0.930 . S
H1025 C1033 0.930 . S
H1026 C1034 0.930 . S
H1027 C1035 0.930 . S
H1028 C1038 0.930 . S
H1029 C1039 0.930 . S
C1030 H1024 0.930 . S
C1030 C1031 1.355 . S
C1030 C1032 1.415 . S
C1031 C1030 1.355 . S
C1031 C1033 1.419 . S
C1032 C1030 1.415 . S
C1032 C1037 1.425 . S
C1032 C1039 1.409 . S
C1033 H1025 0.930 . S
C1033 C1031 1.419 . S
C1033 C1034 1.362 . S
C1034 H1026 0.930 . S
C1034 C1033 1.362 . S
C1034 C1037 1.409 . S
C1035 H1027 0.930 . S
C1035 C1036 1.355 . S
C1035 C1037 1.415 . S
C1036 C1035 1.355 . S
C1036 C1038 1.419 . S
C1037 C1032 1.425 . S
C1037 C1034 1.409 . S
C1037 C1035 1.415 . S
C1038 H1028 0.930 . S
C1038 C1036 1.419 . S
C1038 C1039 1.362 . S
C1039 H1029 0.930 . S
C1039 C1032 1.409 . S
C1039 C1038 1.362 . S
H1040 C1046 0.930 . S
H1041 C1049 0.930 . S
H1042 C1050 0.930 . S
H1043 C1051 0.930 . S
H1044 C1054 0.930 . S
H1045 C1055 0.930 . S
C1046 H1040 0.930 . S
C1046 C1047 1.355 . S
C1046 C1048 1.415 . S
C1047 C1046 1.355 . S
C1047 C1049 1.419 . S
C1048 C1046 1.415 . S
C1048 C1053 1.425 . S
C1048 C1055 1.409 . S
C1049 H1041 0.930 . S
C1049 C1047 1.419 . S
C1049 C1050 1.362 . S
C1050 H1042 0.930 . S
C1050 C1049 1.362 . S
C1050 C1053 1.409 . S
C1051 H1043 0.930 . S
C1051 C1052 1.355 . S
C1051 C1053 1.415 . S
C1052 C1051 1.355 . S
C1052 C1054 1.419 . S
C1053 C1048 1.425 . S
C1053 C1050 1.409 . S
C1053 C1051 1.415 . S
C1054 H1044 0.930 . S
C1054 C1052 1.419 . S
C1054 C1055 1.362 . S
C1055 H1045 0.930 . S
C1055 C1048 1.409 . S
C1055 C1054 1.362 . S
H1056 C1062 0.930 . S
H1057 C1065 0.930 . S
H1058 C1066 0.930 . S
H1059 C1067 0.930 . S
H1060 C1070 0.930 . S
H1061 C1071 0.930 . S
C1062 H1056 0.930 . S
C1062 C1063 1.355 . S
C1062 C1064 1.415 . S
C1063 C1062 1.355 . S
C1063 C1065 1.419 . S
C1064 C1062 1.415 . S
C1064 C1069 1.425 . S
C1064 C1071 1.409 . S
C1065 H1057 0.930 . S
C1065 C1063 1.419 . S
C1065 C1066 1.362 . S
C1066 H1058 0.930 . S
C1066 C1065 1.362 . S
C1066 C1069 1.409 . S
C1067 H1059 0.930 . S
C1067 C1068 1.355 . S
C1067 C1069 1.415 . S
C1068 C1067 1.355 . S
C1068 C1070 1.419 . S
C1069 C1064 1.425 . S
C1069 C1066 1.409 . S
C1069 C1067 1.415 . S
C1070 H1060 0.930 . S
C1070 C1068 1.419 . S
C1070 C1071 1.362 . S
C1071 H1061 0.930 . S
C1071 C1064 1.409 . S
C1071 C1070 1.362 . S
H1072 C1078 0.930 . S
H1073 C1081 0.930 . S
H1074 C1082 0.930 . S
H1075 C1083 0.930 . S
H1076 C1086 0.930 . S
H1077 C1087 0.930 . S
C1078 H1072 0.930 . S
C1078 C1079 1.355 . S
C1078 C1080 1.415 . S
C1079 C1078 1.355 . S
C1079 C1081 1.419 . S
C1080 C1078 1.415 . S
C1080 C1085 1.425 . S
C1080 C1087 1.409 . S
C1081 H1073 0.930 . S
C1081 C1079 1.419 . S
C1081 C1082 1.362 . S
C1082 H1074 0.930 . S
C1082 C1081 1.362 . S
C1082 C1085 1.409 . S
C1083 H1075 0.930 . S
C1083 C1084 1.355 . S
C1083 C1085 1.415 . S
C1084 C1083 1.355 . S
C1084 C1086 1.419 . S
C1085 C1080 1.425 . S
C1085 C1082 1.409 . S
C1085 C1083 1.415 . S
C1086 H1076 0.930 . S
C1086 C1084 1.419 . S
C1086 C1087 1.362 . S
C1087 H1077 0.930 . S
C1087 C1080 1.409 . S
C1087 C1086 1.362 . S
H1088 C1094 0.930 . S
H1089 C1097 0.930 . S
H1090 C1098 0.930 . S
H1091 C1099 0.930 . S
H1092 C1102 0.930 . S
H1093 C1103 0.930 . S
C1094 H1088 0.930 . S
C1094 C1095 1.355 . S
C1094 C1096 1.415 . S
C1095 C1094 1.355 . S
C1095 C1097 1.419 . S
C1096 C1094 1.415 . S
C1096 C1101 1.425 . S
C1096 C1103 1.409 . S
C1097 H1089 0.930 . S
C1097 C1095 1.419 . S
C1097 C1098 1.362 . S
C1098 H1090 0.930 . S
C1098 C1097 1.362 . S
C1098 C1101 1.409 . S
C1099 H1091 0.930 . S
C1099 C1100 1.355 . S
C1099 C1101 1.415 . S
C1100 C1099 1.355 . S
C1100 C1102 1.419 . S
C1101 C1096 1.425 . S
C1101 C1098 1.409 . S
C1101 C1099 1.415 . S
C1102 H1092 0.930 . S
C1102 C1100 1.419 . S
C1102 C1103 1.362 . S
C1103 H1093 0.930 . S
C1103 C1096 1.409 . S
C1103 C1102 1.362 . S
H1104 C1110 0.930 . S
H1105 C1113 0.930 . S
H1106 C1114 0.930 . S
H1107 C1115 0.930 . S
H1108 C1118 0.930 . S
H1109 C1119 0.930 . S
C1110 H1104 0.930 . S
C1110 C1111 1.355 . S
C1110 C1112 1.415 . S
C1111 C1110 1.355 . S
C1111 C1113 1.419 . S
C1112 C1110 1.415 . S
C1112 C1117 1.425 . S
C1112 C1119 1.409 . S
C1113 H1105 0.930 . S
C1113 C1111 1.419 . S
C1113 C1114 1.362 . S
C1114 H1106 0.930 . S
C1114 C1113 1.362 . S
C1114 C1117 1.409 . S
C1115 H1107 0.930 . S
C1115 C1116 1.355 . S
C1115 C1117 1.415 . S
C1116 C1115 1.355 . S
C1116 C1118 1.419 . S
C1117 C1112 1.425 . S
C1117 C1114 1.409 . S
C1117 C1115 1.415 . S
C1118 H1108 0.930 . S
C1118 C1116 1.419 . S
C1118 C1119 1.362 . S
C1119 H1109 0.930 . S
C1119 C1112 1.409 . S
C1119 C1118 1.362 . S
H1120 C1126 0.930 . S
H1121 C1129 0.930 . S
H1122 C1130 0.930 . S
H1123 C1131 0.930 . S
H1124 C1134 0.930 . S
H1125 C1135 0.930 . S
C1126 H1120 0.930 . S
C1126 C1127 1.355 . S
C1126 C1128 1.415 1_554 S
C1127 C1126 1.355 . S
C1127 C1129 1.419 . S
C1128 C1126 1.415 1_556 S
C1128 C1133 1.425 . S
C1128 C1135 1.409 . S
C1129 H1121 0.930 . S
C1129 C1127 1.419 . S
C1129 C1130 1.362 . S
C1130 H1122 0.930 . S
C1130 C1129 1.362 . S
C1130 C1133 1.409 1_554 S
C1131 H1123 0.930 . S
C1131 C1132 1.355 . S
C1131 C1133 1.415 . S
C1132 C1131 1.355 . S
C1132 C1134 1.419 . S
C1133 C1128 1.425 . S
C1133 C1130 1.409 1_556 S
C1133 C1131 1.415 . S
C1134 H1124 0.930 . S
C1134 C1132 1.419 . S
C1134 C1135 1.362 . S
C1135 H1125 0.930 . S
C1135 C1128 1.409 . S
C1135 C1134 1.362 . S
H1136 C1142 0.930 . S
H1137 C1145 0.930 . S
H1138 C1146 0.930 . S
H1139 C1147 0.930 . S
H1140 C1150 0.930 . S
H1141 C1151 0.930 . S
C1142 H1136 0.930 . S
C1142 C1143 1.355 . S
C1142 C1144 1.415 . S
C1143 C1142 1.355 . S
C1143 C1145 1.419 . S
C1144 C1142 1.415 . S
C1144 C1149 1.425 . S
C1144 C1151 1.409 . S
C1145 H1137 0.930 . S
C1145 C1143 1.419 . S
C1145 C1146 1.362 . S
C1146 H1138 0.930 . S
C1146 C1145 1.362 . S
C1146 C1149 1.409 . S
C1147 H1139 0.930 . S
C1147 C1148 1.355 . S
C1147 C1149 1.415 . S
C1148 C1147 1.355 . S
C1148 C1150 1.419 . S
C1149 C1144 1.425 . S
C1149 C1146 1.409 . S
C1149 C1147 1.415 . S
C1150 H1140 0.930 . S
C1150 C1148 1.419 . S
C1150 C1151 1.362 . S
C1151 H1141 0.930 . S
C1151 C1144 1.409 . S
C1151 C1150 1.362 . S
C780 C757 1.683 . S
C775 C1 1.315 . S
C791 C169 1.478 . S
C796 C687 1.834 . S
C807 C283 1.494 . S
C812 C706 1.808 . S
C823 C397 1.366 . S
C828 C715 1.680 . S
C844 C729 1.565 . S
C839 C457 1.225 . S
C855 C571 1.209 . S
C860 C748 1.601 . S
C871 C115 1.348 . S
C876 C701 1.690 . S
C887 C229 1.187 . S
C892 C720 1.557 . S
C903 C343 1.240 . S
C908 C734 1.573 . S
C924 C743 1.639 . S
C919 C511 1.327 . S
C940 C762 1.823 . S
C935 C625 1.482 . S
C956 C692 1.802 . S
C951 C55 1.467 . S
C967 C29 1.195 . S
C972 C707 1.451 . S
C983 C125 0.808 . S
C988 C719 1.521 . S
C1004 C733 1.434 . S
C999 C239 0.999 . S
C1015 C353 0.806 . S
C1020 C749 1.445 . S
C1036 C761 1.344 . S
C1031 C485 1.038 . S
C1052 C691 1.412 . S
C1047 C599 1.056 . S
C1068 C763 1.467 . S
C1063 C143 1.092 . S
C1079 C257 1.150 . S
C1084 C693 1.462 . S
C1100 C705 1.407 . S
C1095 C371 1.190 . S
C1111 C467 0.799 . S
C1116 C721 1.445 . S
C1127 C581 0.921 . S
C1132 C735 1.473 . S
C1143 C11 0.842 . S
C1148 C747 1.536 . S
