# Generated by pormake.
# Topology pth, (4,4)-cn, num edge types: 1
# Building blocks:
#     Node 0, Type 0, BuildingBlock: AZAVOO_clean_sbu_0, # of connection points: 4
#     Node 1, Type 0, BuildingBlock: AZAVOO_clean_sbu_0, # of connection points: 4
#     Node 2, Type 0, BuildingBlock: AZAVOO_clean_sbu_0, # of connection points: 4
#     Node 3, Type 1, BuildingBlock: NAWXER_clean_linker_0, # of connection points: 4
#     Node 4, Type 1, BuildingBlock: NAWXER_clean_linker_0, # of connection points: 4
#     Node 5, Type 1, BuildingBlock: NAWXER_clean_linker_0, # of connection points: 4
#     Edge 6, Type (0, 1), BuildingBlock: MIFKUJ_clean_linker_0, # of connection points: 2
#     Edge 7, Type (0, 1), BuildingBlock: MIFKUJ_clean_linker_0, # of connection points: 2
#     Edge 8, Type (0, 1), BuildingBlock: MIFKUJ_clean_linker_0, # of connection points: 2
#     Edge 9, Type (0, 1), BuildingBlock: MIFKUJ_clean_linker_0, # of connection points: 2
#     Edge 10, Type (0, 1), BuildingBlock: MIFKUJ_clean_linker_0, # of connection points: 2
#     Edge 11, Type (0, 1), BuildingBlock: MIFKUJ_clean_linker_0, # of connection points: 2
#     Edge 12, Type (0, 1), BuildingBlock: MIFKUJ_clean_linker_0, # of connection points: 2
#     Edge 13, Type (0, 1), BuildingBlock: MIFKUJ_clean_linker_0, # of connection points: 2
#     Edge 14, Type (0, 1), BuildingBlock: MIFKUJ_clean_linker_0, # of connection points: 2
#     Edge 15, Type (0, 1), BuildingBlock: MIFKUJ_clean_linker_0, # of connection points: 2
#     Edge 16, Type (0, 1), BuildingBlock: MIFKUJ_clean_linker_0, # of connection points: 2
#     Edge 17, Type (0, 1), BuildingBlock: MIFKUJ_clean_linker_0, # of connection points: 2
# Relax obj value: 0.065
# Max RMSD: 0.210
# Mean RMSD: 0.105
data_MOF--net-pth--node1-AZAVOO_clean_sbu_0--node2-NAWXER_clean_linker_0--edge1-MIFKUJ_clean_linker_0
_symmetry_space_group_name_H-M    P1
_symmetry_Int_Tables_number       1
_symmetry_cell_setting            triclinic
loop_
_symmetry_equiv_pos_as_xyz
'x, y, z'
_cell_length_a     35.819886
_cell_length_b     36.489163
_cell_length_c     80.521507
_cell_angle_alpha  90.783789
_cell_angle_beta   92.544691
_cell_angle_gamma 121.77676
loop_
_atom_site_label
_atom_site_type_symbol
_atom_site_fract_x
_atom_site_fract_y
_atom_site_fract_z
_atom_type_partial_charge
Mg0 Mg 0.07717 0.05645 0.04427 0.0
O1 O 0.01417 0.01161 0.02816 0.0
O2 O 0.00171 0.05214 0.01095 0.0
Mg3 Mg 0.05594 0.12272 0.01633 0.0
C4 C 0.99136 0.0155 0.01647 0.0
C5 C 0.09311 0.9978 0.06669 0.0
O6 O 0.13296 0.0253 0.06214 0.0
O7 O 0.04051 0.07851 0.05984 0.0
O8 O 0.03234 0.12133 0.04249 0.0
O9 O 0.11784 0.05167 0.0251 0.0
O10 O 0.09921 0.10059 0.02553 0.0
C11 C 0.02783 0.10459 0.05666 0.0
C12 C 0.11766 0.08329 0.01808 0.0
O13 O 0.06161 0.00194 0.06146 0.0
Mg14 Mg 0.9512 0.00737 0.37108 0.0
O15 O 0.00865 0.02707 0.39016 0.0
O16 O 0.01794 0.08188 0.40631 0.0
Mg17 Mg 0.96736 0.09822 0.39713 0.0
C18 C 0.02863 0.05482 0.40222 0.0
C19 C 0.94087 0.92886 0.35145 0.0
O20 O 0.89982 0.91461 0.35458 0.0
O21 O 0.99482 0.06617 0.35617 0.0
O22 O 0.00057 0.11935 0.37236 0.0
O23 O 0.90352 0.96334 0.38924 0.0
O24 O 0.92449 0.03171 0.3869 0.0
C25 C 0.00871 0.10599 0.35906 0.0
C26 C 0.90242 0.99642 0.39453 0.0
O27 O 0.97069 0.96668 0.35666 0.0
Mg28 Mg 0.98489 0.99058 0.70105 0.0
O29 O 0.03135 0.04545 0.71982 0.0
O30 O 0.99217 0.04991 0.7397 0.0
Mg31 Mg 0.91987 8e-05 0.73272 0.0
C32 C 0.02883 0.06245 0.73335 0.0
C33 C 0.07832 0.02369 0.6885 0.0
O34 O 0.08598 0.01994 0.7043 0.0
O35 O 0.9625 0.0327 0.68955 0.0
O36 O 0.9221 0.03624 0.70915 0.0
O37 O 0.99011 0.94355 0.71681 0.0
O38 O 0.9399 0.96084 0.71916 0.0
C39 C 0.93817 0.04566 0.69486 0.0
C40 C 0.95767 0.94017 0.72464 0.0
O41 O 0.04 0.01397 0.68335 0.0
C42 C 0.01403 0.3938 0.2366 0.0
C43 C 0.05246 0.40688 0.24665 0.0
C44 C 0.00891 0.42406 0.22808 0.0
C45 C 0.04225 0.46791 0.22937 0.0
C46 C 0.08545 0.45095 0.24816 0.0
C47 C 0.08021 0.48126 0.23967 0.0
C48 C 0.03803 0.49979 0.21972 0.0
C49 C 0.05676 0.41613 0.18424 0.0
C50 C 0.0181 0.38846 0.17438 0.0
C51 C 0.0612 0.45147 0.19313 0.0
C52 C 0.02705 0.45968 0.19231 0.0
C53 C 0.98424 0.39716 0.17339 0.0
C54 C 0.98886 0.43272 0.18219 0.0
C55 C 0.0305 0.49569 0.20227 0.0
C56 C 0.06557 0.6703 0.18591 0.0
C57 C 0.03507 0.65925 0.17229 0.0
C58 C 0.06357 0.63841 0.19589 0.0
C59 C 0.03075 0.59484 0.19256 0.0
C60 C 0.00216 0.61564 0.169 0.0
C61 C 0.00024 0.5837 0.17898 0.0
C62 C 0.03007 0.56071 0.20251 0.0
C63 C 0.99369 0.63169 0.23736 0.0
C64 C 0.02352 0.65338 0.25112 0.0
C65 C -0.00212 0.60303 0.22715 0.0
C66 C 0.03233 0.59583 0.23034 0.0
C67 C 0.05801 0.64617 0.25431 0.0
C68 C 0.06218 0.61741 0.24407 0.0
C69 C 0.03533 0.5636 0.22009 0.0
H70 H 0.98814 0.36006 0.23514 0.0
H71 H 0.97905 0.41319 0.22038 0.0
H72 H 0.1151 0.46201 0.25601 0.0
H73 H 0.10615 0.51502 0.24088 0.0
H74 H 0.08333 0.41013 0.18524 0.0
H75 H 0.09117 0.47225 0.20073 0.0
H76 H 0.9544 0.37672 0.16568 0.0
H77 H 0.96226 0.43871 0.18136 0.0
H78 H 0.09115 0.70363 0.18881 0.0
H79 H 0.08825 0.64779 0.20601 0.0
H80 H 0.97857 0.60609 0.15847 0.0
H81 H 0.97498 0.55025 0.17607 0.0
H82 H 0.96696 0.63678 0.2345 0.0
H83 H 0.97363 0.58588 0.21693 0.0
H84 H 0.08117 0.66198 0.26494 0.0
H85 H 0.08864 0.6119 0.24689 0.0
N86 N 0.03992 0.53342 0.22802 0.0
N87 N 0.02705 0.5264 0.19428 0.0
C88 C 0.66151 0.0911 0.51503 0.0
C89 C 0.64374 0.05048 0.50684 0.0
C90 C 0.63418 0.10199 0.52266 0.0
C91 C 0.58865 0.07225 0.52244 0.0
C92 C 0.598 0.02118 0.50633 0.0
C93 C 0.57071 0.03208 0.51399 0.0
C94 C 0.55943 0.08256 0.531 0.0
C95 C 0.64853 0.07665 0.57056 0.0
C96 C 0.67509 0.1156 0.57993 0.0
C97 C 0.61343 0.07066 0.56011 0.0
C98 C 0.60476 0.10381 0.55859 0.0
C99 C 0.66594 0.14849 0.57857 0.0
C100 C 0.631 0.14257 0.56802 0.0
C101 C 0.5673 0.09777 0.54779 0.0
C102 C 0.39423 0.0735 0.56345 0.0
C103 C 0.40855 0.10778 0.57521 0.0
C104 C 0.42427 0.07114 0.55376 0.0
C105 C 0.46916 0.10354 0.55534 0.0
C106 C 0.45345 0.14015 0.57684 0.0
C107 C 0.48348 0.13799 0.567 0.0
C108 C 0.50164 0.09945 0.54604 0.0
C109 C 0.41641 0.11314 0.50787 0.0
C110 C 0.38843 0.07537 0.49801 0.0
C111 C 0.45121 0.11679 0.51782 0.0
C112 C 0.45869 0.08271 0.51817 0.0
C113 C 0.39674 0.04172 0.49806 0.0
C114 C 0.43175 0.04552 0.50798 0.0
C115 C 0.49479 0.08604 0.52904 0.0
H116 H 0.69661 0.11434 0.5157 0.0
H117 H 0.64866 0.13355 0.52881 0.0
H118 H 0.58321 0.99 0.49983 0.0
H119 H 0.5356 0.00884 0.51354 0.0
H120 H 0.65417 0.05037 0.57165 0.0
H121 H 0.59275 0.03992 0.55338 0.0
H122 H 0.68592 0.17887 0.58561 0.0
H123 H 0.62459 0.1684 0.56715 0.0
H124 H 0.36 0.04756 0.5622 0.0
H125 H 0.41249 0.0432 0.54541 0.0
H126 H 0.46534 0.16695 0.5858 0.0
H127 H 0.51801 0.16306 0.56861 0.0
H128 H 0.41166 0.14009 0.50781 0.0
H129 H 0.47235 0.14631 0.52524 0.0
H130 H 0.37567 0.01209 0.49071 0.0
H131 H 0.43716 0.01896 0.50799 0.0
N132 N 0.52353 0.07741 0.52223 0.0
N133 N 0.53802 0.10546 0.55467 0.0
C134 C 0.44227 0.35944 0.84109 0.0
C135 C 0.42442 0.37197 0.82811 0.0
C136 C 0.47675 0.39053 0.85175 0.0
C137 C 0.49287 0.4346 0.84994 0.0
C138 C 0.44245 0.41606 0.82565 0.0
C139 C 0.47634 0.44709 0.83649 0.0
C140 C 0.52627 0.46805 0.86202 0.0
C141 C 0.40892 0.38022 0.89121 0.0
C142 C 0.41843 0.35986 0.90393 0.0
C143 C 0.44295 0.41446 0.88318 0.0
C144 C 0.48698 0.42822 0.88752 0.0
C145 C 0.46254 0.37403 0.90835 0.0
C146 C 0.49649 0.408 0.90025 0.0
C147 C 0.52352 0.46493 0.87948 0.0
C148 C 0.64945 0.64584 0.90437 0.0
C149 C 0.67232 0.64075 0.91791 0.0
C150 C 0.62258 0.61138 0.89311 0.0
C151 C 0.61784 0.57106 0.89517 0.0
C152 C 0.66699 0.60004 0.92003 0.0
C153 C 0.63963 0.56541 0.90885 0.0
C154 C 0.5888 0.53449 0.8834 0.0
C155 C 0.70815 0.62434 0.85644 0.0
C156 C 0.70005 0.64282 0.84262 0.0
C157 C 0.67327 0.59006 0.86411 0.0
C158 C 0.6296 0.57395 0.85822 0.0
C159 C 0.65631 0.62623 0.83664 0.0
C160 C 0.62147 0.59203 0.84433 0.0
C161 C 0.59238 0.53712 0.86602 0.0
H162 H 0.42933 0.32559 0.84304 0.0
H163 H 0.49012 0.38006 0.86161 0.0
H164 H 0.42918 0.4265 0.81574 0.0
H165 H 0.48861 0.48089 0.8347 0.0
H166 H 0.37525 0.37047 0.88777 0.0
H167 H 0.4349 0.43045 0.87373 0.0
H168 H 0.47079 0.35879 0.91807 0.0
H169 H 0.53025 0.41841 0.90388 0.0
H170 H 0.65181 0.67632 0.90255 0.0
H171 H 0.60509 0.6161 0.88287 0.0
H172 H 0.68444 0.59501 0.93018 0.0
H173 H 0.63607 0.53439 0.9107 0.0
H174 H 0.74144 0.63642 0.86136 0.0
H175 H 0.68052 0.57584 0.87451 0.0
H176 H 0.649 0.63915 0.82581 0.0
H177 H 0.58809 0.57977 0.83945 0.0
N178 N 0.56067 0.50407 0.85599 0.0
N179 N 0.55491 0.49828 0.88948 0.0
H180 H 0.00387 0.16414 0.05492 0.0
H181 H 0.9906 0.19876 0.0779 0.0
H182 H 0.00093 0.11404 0.11209 0.0
H183 H 0.01582 0.07986 0.08909 0.0
H184 H 0.93499 0.18022 0.10077 0.0
H185 H 0.05443 0.17231 0.14809 0.0
H186 H 0.11703 0.16158 0.14895 0.0
H187 H 0.15174 0.21538 0.10088 0.0
H188 H 0.08966 0.22682 0.09984 0.0
H189 H 0.94747 0.30547 0.17201 0.0
H190 H 0.93917 0.24471 0.15527 0.0
H191 H 0.06973 0.3271 0.13836 0.0
H192 H 0.07839 0.38746 0.15526 0.0
H193 H 0.05711 0.25119 0.14436 0.0
H194 H 0.97525 0.30427 0.11491 0.0
H195 H 0.91846 0.32291 0.11164 0.0
H196 H 0.81798 0.19182 0.11988 0.0
H197 H 0.87431 0.17255 0.12341 0.0
C198 C 0.00273 0.15228 0.06727 0.0
C199 C 0.01178 0.11972 0.07018 0.0
C200 C 0.99486 0.17204 0.08041 0.0
C201 C 0.99556 0.15957 0.09677 0.0
C202 C 0.00109 0.12475 0.0996 0.0
C203 C 0.00944 0.10515 0.08642 0.0
C204 C 0.99483 0.18609 0.11073 0.0
C205 C 0.96134 0.19524 0.11045 0.0
C206 C 0.02946 0.20614 0.12326 0.0
C207 C 0.06712 0.19986 0.12381 0.0
C208 C 0.0755 0.18189 0.13773 0.0
C209 C 0.11087 0.17569 0.13825 0.0
C210 C 0.13824 0.18763 0.12495 0.0
C211 C 0.13042 0.20599 0.11114 0.0
C212 C 0.09514 0.2123 0.11058 0.0
C213 C 0.97436 0.31047 0.16472 0.0
C214 C 0.01349 0.35118 0.16484 0.0
C215 C 0.96962 0.27578 0.1552 0.0
C216 C 0.00366 0.28146 0.14543 0.0
C217 C 0.04311 0.32188 0.14586 0.0
C218 C 0.04802 0.35637 0.1555 0.0
C219 C -0.00206 0.24623 0.13411 0.0
C220 C 0.03011 0.23531 0.13495 0.0
C221 C 0.96283 0.22558 0.12178 0.0
C222 C 0.92899 0.23711 0.11963 0.0
C223 C 0.94107 0.27951 0.11615 0.0
C224 C 0.90897 0.29018 0.11423 0.0
C225 C 0.86465 0.2586 0.11561 0.0
C226 C 0.85233 0.21626 0.11886 0.0
C227 C 0.88432 0.20545 0.12082 0.0
H228 H 0.83985 0.26692 0.11411 0.0
H229 H 0.16557 0.18277 0.12536 0.0
H230 H 0.89271 0.0603 0.40701 0.0
H231 H 0.85232 0.05863 0.43065 0.0
H232 H 0.8143 0.92703 0.4386 0.0
H233 H 0.85589 0.92864 0.41482 0.0
H234 H 0.74413 0.94156 0.43854 0.0
H235 H 0.88439 -0.00098 0.46621 0.0
H236 H 0.96508 0.04561 0.47021 0.0
H237 H 0.95561 0.1581 0.47157 0.0
H238 H 0.8749 0.11228 0.4673 0.0
H239 H 0.63983 0.97337 0.50671 0.0
H240 H 0.68594 0.95417 0.49194 0.0
H241 H 0.75897 0.08258 0.47356 0.0
H242 H 0.71299 0.10184 0.48811 0.0
H243 H 0.81302 0.05508 0.48394 0.0
H244 H 0.67645 -0.00155 0.44977 0.0
H245 H 0.59594 0.95317 0.44439 0.0
H246 H 0.59931 0.83976 0.4547 0.0
H247 H 0.67983 0.8845 0.46036 0.0
C248 C 0.87662 0.03117 0.4139 0.0
C249 C 0.87817 0.99482 0.40916 0.0
C250 C 0.85341 0.03027 0.42743 0.0
C251 C 0.83097 0.99297 0.43653 0.0
C252 C 0.83182 0.95626 0.4318 0.0
C253 C 0.85555 0.95725 0.41825 0.0
C254 C 0.80511 0.99268 0.45039 0.0
C255 C 0.75919 0.96548 0.44878 0.0
C256 C 0.82489 0.02429 0.46359 0.0
C257 C 0.87349 0.05213 0.46638 0.0
C258 C 0.8995 0.03371 0.46727 0.0
C259 C 0.94526 0.05999 0.46959 0.0
C260 C 0.96546 0.10479 0.47113 0.0
C261 C 0.93992 0.12339 0.47038 0.0
C262 C 0.89413 0.09726 0.46804 0.0
C263 C 0.66566 0.99745 0.49948 0.0
C264 C 0.67266 0.03909 0.49852 0.0
C265 C 0.69206 0.98648 0.49112 0.0
C266 C 0.72571 0.01689 0.4816 0.0
C267 C 0.73336 0.05871 0.48094 0.0
C268 C 0.70708 0.06969 0.48928 0.0
C269 C 0.75202 0.0052 0.47165 0.0
C270 C 0.79802 0.03021 0.47403 0.0
C271 C 0.73232 0.97166 0.45914 0.0
C272 C 0.684 0.94483 0.4557 0.0
C273 C 0.65995 0.96389 0.45103 0.0
C274 C 0.61434 0.93833 0.4479 0.0
C275 C 0.5925 0.89363 0.44926 0.0
C276 C 0.61625 0.87439 0.4537 0.0
C277 C 0.66186 0.89983 0.45686 0.0
H278 H 0.55719 0.87389 0.44683 0.0
H279 H 0.0009 0.12508 0.47292 0.0
H280 H 0.8898 0.92681 0.74301 0.0
H281 H 0.86183 0.88238 0.76697 0.0
H282 H 0.96069 0.84937 0.76405 0.0
H283 H 0.98955 0.89459 0.73995 0.0
H284 H 0.87685 0.77849 0.76614 0.0
H285 H 0.96933 0.91232 0.7959 0.0
H286 H 0.00218 0.98985 0.80262 0.0
H287 H 0.87555 0.96647 0.81387 0.0
H288 H 0.84175 0.88888 0.80696 0.0
H289 H 0.77817 0.65116 0.83544 0.0
H290 H 0.83637 0.7072 0.81956 0.0
H291 H 0.76285 0.76985 0.81417 0.0
H292 H 0.70542 0.71497 0.83057 0.0
H293 H 0.84958 0.82835 0.81933 0.0
H294 H 0.75635 0.69968 0.78393 0.0
H295 H 0.72106 0.62241 0.77595 0.0
H296 H 0.84791 0.63702 0.77451 0.0
H297 H 0.88393 0.71432 0.78269 0.0
C298 C 0.90629 0.91089 0.74759 0.0
C299 C 0.9422 0.9146 0.73964 0.0
C300 C 0.89023 0.88548 0.76133 0.0
C301 C 0.90961 0.86313 0.76742 0.0
C302 C 0.94555 0.86672 0.75959 0.0
C303 C 0.96193 0.89251 0.74585 0.0
C304 C 0.88977 0.83367 0.78119 0.0
C305 C 0.87191 0.78947 0.77797 0.0
C306 C 0.88274 0.84807 0.79647 0.0
C307 C 0.90296 0.89472 0.80083 0.0
C308 C 0.94841 0.92372 0.7997 0.0
C309 C 0.96722 0.9677 0.80356 0.0
C310 C 0.94096 0.98308 0.80866 0.0
C311 C 0.89585 0.9545 0.80993 0.0
C312 C 0.87686 0.91049 0.80607 0.0
C313 C 0.77483 0.67736 0.83117 0.0
C314 C 0.73696 0.6784 0.83411 0.0
C315 C 0.80797 0.70918 0.822 0.0
C316 C 0.80362 0.74233 0.8155 0.0
C317 C 0.76681 0.74448 0.81904 0.0
C318 C 0.73378 0.71283 0.82824 0.0
C319 C 0.83559 0.77315 0.80404 0.0
C320 C 0.8556 0.81754 0.80769 0.0
C321 C 0.8444 0.75896 0.78909 0.0
C322 C 0.82279 0.71259 0.78412 0.0
C323 C 0.77669 0.68632 0.78203 0.0
C324 C 0.75656 0.64255 0.77746 0.0
C325 C 0.78222 0.62478 0.77478 0.0
C326 C 0.82808 0.6508 0.77663 0.0
C327 C 0.84836 0.69459 0.78123 0.0
H328 H 0.76659 0.59089 0.77124 0.0
H329 H 0.95558 0.01714 0.81163 0.0
H330 H 0.01451 0.9341 0.07771 0.0
H331 H 0.00159 0.87494 0.09534 0.0
H332 H 0.14038 0.92205 0.09793 0.0
H333 H 0.15353 0.98088 0.08013 0.0
H334 H 0.09213 0.83632 0.092 0.0
H335 H 0.09242 0.93858 0.13047 0.0
H336 H 0.06869 0.98648 0.14098 0.0
H337 H 0.93662 0.87804 0.14305 0.0
H338 H 0.95946 0.82955 0.13233 0.0
H339 H 0.1095 0.72628 0.1603 0.0
H340 H 0.11555 0.78182 0.14204 0.0
H341 H 0.97481 0.72377 0.14069 0.0
H342 H 0.96859 0.66847 0.15932 0.0
H343 H 0.01939 0.81185 0.14526 0.0
H344 H 0.0202 0.70909 0.10799 0.0
H345 H 0.04446 0.66143 0.09772 0.0
H346 H 0.17488 0.77103 0.09349 0.0
H347 H 0.15157 0.81932 0.10397 0.0
C348 C 0.04231 0.93193 0.08205 0.0
C349 C 0.08508 0.96226 0.07755 0.0
C350 C 0.03487 0.89818 0.09218 0.0
C351 C 0.07009 0.89433 0.09807 0.0
C352 C 0.11274 0.92442 0.09351 0.0
C353 C 0.1202 0.95811 0.08338 0.0
C354 C 0.0626 0.85874 0.10886 0.0
C355 C 0.07667 0.83127 0.10374 0.0
C356 C 0.04132 0.85144 0.12394 0.0
C357 C 0.02755 0.88052 0.13043 0.0
C358 C 0.05824 0.92501 0.13304 0.0
C359 C 0.04497 0.95225 0.13905 0.0
C360 C 0.00114 0.93534 0.14263 0.0
C361 C 0.97053 0.89111 0.14024 0.0
C362 C 0.98363 0.86372 0.13421 0.0
C363 C 0.07986 0.72554 0.15625 0.0
C364 C 0.03855 0.69302 0.16125 0.0
C365 C 0.08333 0.75706 0.14569 0.0
C366 C 0.04557 0.7566 0.13987 0.0
C367 C 0.00432 0.72455 0.145 0.0
C368 C 0.00079 0.69286 0.15553 0.0
C369 C 0.04944 0.78983 0.12849 0.0
C370 C 0.03463 0.81679 0.13348 0.0
C371 C 0.07011 0.79672 0.11329 0.0
C372 C 0.08421 0.76779 0.10691 0.0
C373 C 0.05415 0.723 0.105 0.0
C374 C 0.06771 0.69588 0.09911 0.0
C375 C 0.11121 0.71318 0.09499 0.0
C376 C 0.14121 0.75767 0.0967 0.0
C377 C 0.12783 0.78494 0.1026 0.0
H378 H 0.12164 0.69213 0.09043 0.0
H379 H 0.99093 0.95648 0.14729 0.0
H380 H 0.07321 0.01592 0.3937 0.0
H381 H 0.13429 0.01813 0.40943 0.0
H382 H 0.12741 0.09668 0.44827 0.0
H383 H 0.06724 0.09574 0.4324 0.0
H384 H 0.20933 0.12775 0.44205 0.0
H385 H 0.08669 0.98656 0.45203 0.0
H386 H 0.02257 0.91414 0.4443 0.0
H387 H 0.10489 0.88291 0.41818 0.0
H388 H 0.16944 0.95538 0.42559 0.0
H389 H 0.33279 0.10162 0.50658 0.0
H390 H 0.27219 0.09695 0.48956 0.0
H391 H 0.29673 0.03391 0.4496 0.0
H392 H 0.35822 0.03931 0.46642 0.0
H393 H 0.20748 0.99455 0.45558 0.0
H394 H 0.33061 0.13631 0.44669 0.0
H395 H 0.39407 0.20842 0.45527 0.0
H396 H 0.30922 0.23803 0.48038 0.0
H397 H 0.24531 0.16581 0.47215 0.0
C398 C 0.08461 0.03359 0.40561 0.0
C399 C 0.0653 0.05562 0.4118 0.0
C400 C 0.11944 0.03466 0.41463 0.0
C401 C 0.13508 0.05709 0.43015 0.0
C402 C 0.11591 0.07918 0.43633 0.0
C403 C 0.08146 0.07856 0.42724 0.0
C404 C 0.17192 0.05824 0.43986 0.0
C405 C 0.2086 0.09856 0.44518 0.0
C406 C 0.17153 0.02022 0.44362 0.0
C407 C 0.13281 0.97655 0.43923 0.0
C408 C 0.09106 0.96436 0.44454 0.0
C409 C 0.05465 0.92328 0.44023 0.0
C410 C 0.05963 0.89398 0.43071 0.0
C411 C 0.10107 0.90566 0.42553 0.0
C412 C 0.13758 0.94671 0.42979 0.0
C413 C 0.32567 0.08716 0.49411 0.0
C414 C 0.35066 0.07119 0.48781 0.0
C415 C 0.29087 0.08433 0.48444 0.0
C416 C 0.28032 0.06547 0.46828 0.0
C417 C 0.30441 0.04856 0.46206 0.0
C418 C 0.33942 0.05156 0.47171 0.0
C419 C 0.2444 0.06395 0.45786 0.0
C420 C 0.20806 0.02364 0.4524 0.0
C421 C 0.2449 0.10192 0.45407 0.0
C422 C 0.28324 0.1455 0.45893 0.0
C423 C 0.32553 0.15807 0.45415 0.0
C424 C 0.36158 0.19899 0.45893 0.0
C425 C 0.3557 0.22776 0.4684 0.0
C426 C 0.31373 0.2157 0.47306 0.0
C427 C 0.27758 0.17479 0.46833 0.0
H428 H 0.38365 0.25942 0.47209 0.0
H429 H 0.0314 0.8622 0.42739 0.0
H430 H 0.0412 0.08846 0.76612 0.0
H431 H 0.10966 0.14248 0.78114 0.0
H432 H 0.17769 0.16867 0.73575 0.0
H433 H 0.10953 0.11317 0.72078 0.0
H434 H 0.22617 0.16546 0.75926 0.0
H435 H 0.14981 0.23936 0.75384 0.0
H436 H 0.08797 0.25063 0.75552 0.0
H437 H 0.09188 0.24062 0.80856 0.0
H438 H 0.15338 0.22869 0.80718 0.0
H439 H 0.4136 0.36501 0.79418 0.0
H440 H 0.34725 0.31287 0.7771 0.0
H441 H 0.28114 0.25447 0.82154 0.0
H442 H 0.34749 0.30603 0.83864 0.0
H443 H 0.23401 0.27765 0.79736 0.0
H444 H 0.31158 0.20189 0.80117 0.0
H445 H 0.3757 0.19476 0.79813 0.0
H446 H 0.37193 0.21465 0.74579 0.0
H447 H 0.30814 0.22255 0.74858 0.0
C448 C 0.07065 0.10595 0.7593 0.0
C449 C 0.06991 0.09671 0.74224 0.0
C450 C 0.10979 0.137 0.76789 0.0
C451 C 0.14878 0.16029 0.75954 0.0
C452 C 0.14806 0.15121 0.74248 0.0
C453 C 0.10905 0.11958 0.73392 0.0
C454 C 0.19049 0.1931 0.76874 0.0
C455 C 0.22795 0.1904 0.76736 0.0
C456 C 0.19293 0.2255 0.77947 0.0
C457 C 0.15598 0.23275 0.78038 0.0
C458 C 0.13728 0.23925 0.76585 0.0
C459 C 0.10232 0.2458 0.76675 0.0
C460 C 0.08594 0.24624 0.78213 0.0
C461 C 0.10457 0.24023 0.79665 0.0
C462 C 0.13952 0.23361 0.79582 0.0
C463 C 0.38494 0.34082 0.80025 0.0
C464 C 0.38556 0.33928 0.81768 0.0
C465 C 0.34723 0.31114 0.79052 0.0
C466 C 0.30949 0.27996 0.79811 0.0
C467 C 0.31005 0.27835 0.8155 0.0
C468 C 0.34794 0.30753 0.82522 0.0
C469 C 0.26901 0.24945 0.78794 0.0
C470 C 0.23197 0.25275 0.78914 0.0
C471 C 0.26721 0.21824 0.77681 0.0
C472 C 0.30542 0.2133 0.77512 0.0
C473 C 0.32469 0.20516 0.78905 0.0
C474 C 0.36091 0.20089 0.78736 0.0
C475 C 0.37796 0.20438 0.77178 0.0
C476 C 0.35873 0.21202 0.75785 0.0
C477 C 0.32253 0.21637 0.75948 0.0
H478 H 0.406 0.20105 0.7705 0.0
H479 H 0.05887 0.25132 0.7828 0.0
H480 H 0.90237 0.09319 0.70304 0.0
H481 H 0.86862 0.12061 0.684 0.0
H482 H 0.90713 0.07566 0.6421 0.0
H483 H 0.94224 0.04946 0.66105 0.0
H484 H 0.91051 0.14831 0.63501 0.0
H485 H 0.8053 0.01281 0.65777 0.0
H486 H 0.7678 0.96319 0.68018 0.0
H487 H 0.72722 0.04698 0.69872 0.0
H488 H 0.76499 0.09741 0.67652 0.0
H489 H 0.736 0.09399 0.57435 0.0
H490 H 0.79094 0.09704 0.59446 0.0
H491 H 0.75039 0.15261 0.63185 0.0
H492 H 0.69486 0.14894 0.6119 0.0
H493 H 0.75111 0.08262 0.64239 0.0
H494 H 0.84949 0.2133 0.61609 0.0
H495 H 0.88506 0.25903 0.5925 0.0
H496 H 0.93621 0.18017 0.57916 0.0
H497 H 0.90041 0.13355 0.60253 0.0
C498 C 0.90438 0.08986 0.68978 0.0
C499 C 0.92433 0.06851 0.68355 0.0
C500 C 0.88501 0.10548 0.67891 0.0
C501 C 0.88439 0.09918 0.66163 0.0
C502 C 0.90701 0.08067 0.65539 0.0
C503 C 0.92698 0.0656 0.66625 0.0
C504 C 0.8567 0.1079 0.65015 0.0
C505 C 0.87563 0.13384 0.63656 0.0
C506 C 0.81126 0.08944 0.65231 0.0
C507 C 0.78838 0.0591 0.66561 0.0
C508 C 0.78864 0.02079 0.6667 0.0
C509 C 0.76731 0.99251 0.67935 0.0
C510 C 0.74526 0.00199 0.6909 0.0
C511 C 0.74439 0.03973 0.68979 0.0
C512 C 0.76574 0.06816 0.67717 0.0
C513 C 0.73902 0.10711 0.58684 0.0
C514 C 0.71103 0.12105 0.59159 0.0
C515 C 0.7707 0.10925 0.59825 0.0
C516 C 0.77493 0.12538 0.6146 0.0
C517 C 0.74777 0.14029 0.61926 0.0
C518 C 0.71623 0.13835 0.60783 0.0
C519 C 0.80482 0.12293 0.6272 0.0
C520 C 0.78616 0.09781 0.64097 0.0
C521 C 0.85024 0.14165 0.62504 0.0
C522 C 0.87196 0.16972 0.611 0.0
C523 C 0.86803 0.20549 0.60805 0.0
C524 C 0.88829 0.23162 0.59473 0.0
C525 C 0.9128 0.22246 0.58432 0.0
C526 C 0.91719 0.18721 0.58723 0.0
C527 C 0.89696 0.16095 0.60053 0.0
H528 H 0.92847 0.24273 0.57401 0.0
H529 H 0.72876 0.98005 0.70068 0.0
H530 H 0.94632 0.93435 0.02851 0.0
H531 H 0.88617 0.86856 0.01427 0.0
H532 H 0.89116 0.94151 0.97177 0.0
H533 H 0.94997 0.0075 0.98616 0.0
H534 H 0.8098 0.88496 0.97654 0.0
H535 H 0.94151 0.8806 0.9738 0.0
H536 H 0.00731 0.88197 0.98521 0.0
H537 H 0.92593 0.77001 0.01289 0.0
H538 H 0.85965 0.76831 0.0018 0.0
H539 H 0.72623 0.72565 0.91071 0.0
H540 H 0.7737 0.7867 0.93 0.0
H541 H 0.73463 0.70146 0.97089 0.0
H542 H 0.68542 0.64015 0.95179 0.0
H543 H 0.82771 0.75987 0.96937 0.0
H544 H 0.69473 0.76172 0.96858 0.0
H545 H 0.63106 0.76138 0.95543 0.0
H546 H 0.71798 0.87982 0.9322 0.0
H547 H 0.78222 0.88055 0.94502 0.0
C548 C 0.93434 0.9364 0.01618 0.0
C549 C 0.9531 0.97609 0.00842 0.0
C550 C 0.90009 0.89874 0.00802 0.0
C551 C 0.88469 0.89992 0.99181 0.0
C552 C 0.90248 0.93975 0.98426 0.0
C553 C 0.9362 0.97748 0.9925 0.0
C554 C 0.85108 0.85969 0.98241 0.0
C555 C 0.81393 0.85777 0.97488 0.0
C556 C 0.85593 0.82376 0.9805 0.0
C557 C 0.8957 0.82462 0.98712 0.0
C558 C 0.93769 0.85646 0.98242 0.0
C559 C 0.97506 0.85727 0.98881 0.0
C560 C 0.97081 0.82618 -0.00019 0.0
C561 C 0.92917 0.79413 0.0044 0.0
C562 C 0.89169 0.7932 -0.00195 0.0
C563 C 0.72701 0.71981 0.92383 0.0
C564 C 0.70171 0.67787 0.92967 0.0
C565 C 0.75438 0.75477 0.93482 0.0
C566 C 0.75733 0.74852 0.95184 0.0
C567 C 0.7327 0.70681 0.95776 0.0
C568 C 0.70485 0.67182 0.9468 0.0
C569 C 0.78708 0.78565 0.96333 0.0
C570 C 0.82344 0.78693 0.97122 0.0
C571 C 0.78189 0.82124 0.96534 0.0
C572 C 0.7433 0.82098 0.95766 0.0
C573 C 0.70029 0.78751 0.96056 0.0
C574 C 0.66409 0.78728 0.95318 0.0
C575 C 0.67047 0.82051 0.94296 0.0
C576 C 0.71308 0.85409 0.94012 0.0
C577 C 0.7494 0.85444 0.94745 0.0
H578 H 0.6424 0.82028 0.93726 0.0
H579 H -0.00021 0.82686 0.00475 0.0
H580 H 0.88477 0.84715 0.33834 0.0
H581 H 0.90318 0.80192 0.32245 0.0
H582 H 0.04056 0.90258 0.32723 0.0
H583 H 0.02237 0.94838 0.34297 0.0
H584 H 0.01605 0.8687 0.29584 0.0
H585 H 0.00207 0.81424 0.35034 0.0
H586 H 0.96633 0.78564 0.37656 0.0
H587 H 0.85797 0.67603 0.34961 0.0
H588 H 0.89278 0.70428 0.32318 0.0
H589 H 0.08712 0.73257 0.26481 0.0
H590 H 0.07704 0.78058 0.28306 0.0
H591 H 0.93712 0.68839 0.28064 0.0
H592 H 0.94706 0.63983 0.26283 0.0
H593 H 0.96831 0.72019 0.31204 0.0
H594 H 0.98043 0.77706 0.25749 0.0
H595 H 0.01604 0.80577 0.23125 0.0
H596 H 0.12826 0.91102 0.25848 0.0
H597 H 0.09353 0.88258 0.28491 0.0
C598 C 0.91893 0.85969 0.33606 0.0
C599 C 0.95212 0.90134 0.34196 0.0
C600 C 0.92941 0.8337 0.32703 0.0
C601 C 0.9733 0.84869 0.32384 0.0
C602 C 0.0065 0.89037 0.32959 0.0
C603 C 0.99604 0.91643 0.33862 0.0
C604 C 0.98429 0.82105 0.31421 0.0
C605 C 0.00629 0.8365 0.29953 0.0
C606 C 0.97086 0.77877 0.31888 0.0
C607 C 0.94988 0.76158 0.33476 0.0
C608 C 0.97046 0.7842 0.34999 0.0
C609 C 0.9504 0.76802 0.36489 0.0
C610 C 0.90986 0.72909 0.36475 0.0
C611 C 0.88935 0.7062 0.3497 0.0
C612 C 0.90926 0.72226 0.33476 0.0
C613 C 0.05428 0.72241 0.2683 0.0
C614 C 0.01784 0.68254 0.2623 0.0
C615 C 0.04853 0.74998 0.27861 0.0
C616 C 0.00627 0.73821 0.28305 0.0
C617 C 0.96999 0.69814 0.27732 0.0
C618 C 0.97569 0.67062 0.26702 0.0
C619 C -0.00046 0.76765 0.29358 0.0
C620 C 0.97837 0.75253 0.30843 0.0
C621 C 0.01376 0.81022 0.28907 0.0
C622 C 0.03459 0.82743 0.27318 0.0
C623 C 0.01285 0.80613 0.25789 0.0
C624 C 0.03285 0.82239 0.24298 0.0
C625 C 0.07444 0.86012 0.2432 0.0
C626 C 0.09607 0.88175 0.25833 0.0
C627 C 0.07624 0.86559 0.27328 0.0
H628 H 0.08987 0.87266 0.23164 0.0
H629 H 0.89437 0.71662 0.3763 0.0
H630 H 0.07185 0.02978 0.65482 0.0
H631 H 0.12936 0.0506 0.63529 0.0
H632 H 0.22179 0.07062 0.67588 0.0
H633 H 0.16452 0.05012 0.69557 0.0
H634 H 0.25792 0.135 0.65323 0.0
H635 H 0.17494 0.97969 0.6526 0.0
H636 H 0.10767 0.90714 0.64982 0.0
H637 H 0.08196 0.93096 0.5998 0.0
H638 H 0.14881 0.00392 0.60236 0.0
H639 H 0.41886 0.12316 0.60885 0.0
H640 H 0.36386 0.11613 0.6276 0.0
H641 H 0.27168 0.08555 0.58556 0.0
H642 H 0.3265 0.09199 0.56676 0.0
H643 H 0.23455 0.0289 0.60846 0.0
H644 H 0.31989 0.18303 0.60839 0.0
H645 H 0.38723 0.2555 0.61112 0.0
H646 H 0.40881 0.23476 0.66209 0.0
H647 H 0.3419 0.16189 0.65961 0.0
C648 C 0.10445 0.03879 0.65962 0.0
C649 C 0.11353 0.03795 0.67674 0.0
C650 C 0.13724 0.05062 0.64843 0.0
C651 C 0.17965 0.0617 0.65414 0.0
C652 C 0.18921 0.06212 0.67125 0.0
C653 C 0.15639 0.05019 0.68246 0.0
C654 C 0.21361 0.0714 0.64218 0.0
C655 C 0.25311 0.11173 0.64352 0.0
C656 C 0.20674 0.04132 0.62932 0.0
C657 C 0.16661 0.99742 0.62774 0.0
C658 C 0.15474 0.96959 0.64106 0.0
C659 C 0.11673 0.92837 0.63951 0.0
C660 C 0.09049 0.9145 0.62466 0.0
C661 C 0.10228 0.94178 0.6113 0.0
C662 C 0.14024 0.98305 0.61279 0.0
C663 C 0.38717 0.1158 0.60359 0.0
C664 C 0.3769 0.10808 0.58636 0.0
C665 C 0.35576 0.11182 0.61431 0.0
C666 C 0.31372 0.10064 0.60798 0.0
C667 C 0.30387 0.09412 0.59072 0.0
C668 C 0.33514 0.09777 0.58001 0.0
C669 C 0.27909 0.09268 0.61942 0.0
C670 C 0.23941 0.05248 0.61804 0.0
C671 C 0.28585 0.12296 0.63221 0.0
C672 C 0.32606 0.16683 0.63376 0.0
C673 C 0.33917 0.19378 0.62015 0.0
C674 C 0.37724 0.23496 0.62166 0.0
C675 C 0.40234 0.24969 0.63676 0.0
C676 C 0.38936 0.22329 0.6504 0.0
C677 C 0.35133 0.18206 0.64895 0.0
H678 H 0.4318 0.28158 0.6379 0.0
H679 H 0.06108 0.88257 0.62349 0.0
H680 H 0.09423 0.11987 0.99369 0.0
H681 H 0.13528 0.15653 0.96971 0.0
H682 H 0.23012 0.12132 0.98289 0.0
H683 H 0.18833 0.08366 0.00678 0.0
H684 H 0.21263 0.22454 0.97152 0.0
H685 H 0.28491 0.12289 0.94939 0.0
H686 H 0.26182 0.04639 0.94594 0.0
H687 H 0.12636 0.00949 0.94157 0.0
H688 H 0.14862 0.08579 0.94476 0.0
H689 H 0.41554 0.35167 0.93745 0.0
H690 H 0.3558 0.29612 0.95286 0.0
H691 H 0.28039 0.2347 0.90676 0.0
H692 H 0.34054 0.29024 0.89116 0.0
H693 H 0.27806 0.17597 0.93018 0.0
H694 H 0.25202 0.29102 0.92691 0.0
H695 H 0.27113 0.36653 0.92892 0.0
H696 H 0.30437 0.37319 0.98123 0.0
H697 H 0.2861 0.29788 0.97948 0.0
C698 C 0.12355 0.11959 0.99142 0.0
C699 C 0.13858 0.09967 0.00228 0.0
C700 C 0.14688 0.14035 0.97763 0.0
C701 C 0.18588 0.14186 0.9745 0.0
C702 C 0.19978 0.12009 0.98488 0.0
C703 C 0.17601 0.09874 -0.00143 0.0
C704 C 0.21444 0.17027 0.96164 0.0
C705 C 0.22652 0.21367 0.9624 0.0
C706 C 0.23218 0.1561 0.94956 0.0
C707 C 0.21847 0.1101 0.94745 0.0
C708 C 0.2502 0.09849 0.94761 0.0
C709 C 0.23726 0.05514 0.94572 0.0
C710 C 0.19265 0.02309 0.94358 0.0
C711 C 0.16089 0.03433 0.94329 0.0
C712 C 0.17366 0.07763 0.94516 0.0
C713 C 0.38649 0.32606 0.93058 0.0
C714 C 0.38262 0.32525 0.91312 0.0
C715 C 0.35234 0.29451 0.93939 0.0
C716 C 0.31369 0.26158 0.93092 0.0
C717 C 0.31002 0.25995 0.91348 0.0
C718 C 0.34416 0.29178 0.90463 0.0
C719 C 0.27677 0.22999 0.94051 0.0
C720 C 0.26342 0.18632 0.93917 0.0
C721 C 0.25709 0.24359 0.95188 0.0
C722 C 0.268 0.28889 0.95303 0.0
C723 C 0.26374 0.30869 0.93881 0.0
C724 C 0.27436 0.35144 0.93991 0.0
C725 C 0.28903 0.37467 0.95518 0.0
C726 C 0.29303 0.35516 0.9694 0.0
C727 C 0.2825 0.31242 0.96837 0.0
H728 H 0.29723 0.40776 0.95601 0.0
H729 H 0.1827 0.98955 0.94213 0.0
H730 H 0.02729 0.09078 0.32783 0.0
H731 H 0.05427 0.14108 0.30523 0.0
H732 H 0.06597 0.2415 0.3381 0.0
H733 H 0.04066 0.19235 0.36069 0.0
H734 H 0.01428 0.1742 0.29115 0.0
H735 H 0.13639 0.33914 0.32745 0.0
H736 H 0.19651 0.3672 0.3493 0.0
H737 H 0.21628 0.26362 0.33776 0.0
H738 H 0.15673 0.23524 0.31566 0.0
H739 H 0.99145 0.34055 0.26415 0.0
H740 H -0.00032 0.28747 0.2792 0.0
H741 H 0.13342 0.34695 0.26476 0.0
H742 H 0.12541 0.40066 0.24972 0.0
H743 H 0.13007 0.32988 0.2963 0.0
H744 H 0.05397 0.24863 0.24726 0.0
H745 H -0.00183 0.21933 0.22377 0.0
H746 H 0.89587 0.15292 0.25759 0.0
H747 H 0.95095 0.18235 0.28133 0.0
C748 C 0.03668 0.12389 0.33034 0.0
C749 C 0.03136 0.13736 0.34605 0.0
C750 C 0.05204 0.15258 0.3174 0.0
C751 C 0.06246 0.19521 0.31995 0.0
C752 C 0.05916 0.20914 0.33585 0.0
C753 C 0.04417 0.18071 0.34877 0.0
C754 C 0.0711 0.22371 0.30577 0.0
C755 C 0.04004 0.20809 0.29216 0.0
C756 C 0.10559 0.26766 0.30673 0.0
C757 C 0.1419 0.28496 0.3199 0.0
C758 C 0.15376 0.3225 0.32946 0.0
C759 C 0.1877 0.33843 0.34193 0.0
C760 C 0.21017 0.31718 0.34493 0.0
C761 C 0.19878 0.27999 0.33545 0.0
C762 C 0.16488 0.26394 0.32297 0.0
C763 C 0.02245 0.34204 0.26401 0.0
C764 C 0.05771 0.37461 0.25569 0.0
C765 C 0.02711 0.31162 0.27257 0.0
C766 C 0.06691 0.31271 0.27284 0.0
C767 C 0.10235 0.34537 0.26464 0.0
C768 C 0.09778 0.37608 0.25612 0.0
C769 C 0.07155 0.28075 0.28241 0.0
C770 C 0.1051 0.29575 0.29509 0.0
C771 C 0.04012 0.23599 0.28034 0.0
C772 C 0.00667 0.21785 0.2661 0.0
C773 C 0.01955 0.22797 0.24971 0.0
C774 C 0.98804 0.21132 0.23634 0.0
C775 C 0.9435 0.1843 0.23919 0.0
C776 C 0.93039 0.17383 0.25541 0.0
C777 C 0.96177 0.19043 0.26883 0.0
H778 H 0.91915 0.17145 0.22882 0.0
H779 H 0.23641 0.32955 0.35459 0.0
loop_
_geom_bond_atom_site_label_1
_geom_bond_atom_site_label_2
_geom_bond_distance
_geom_bond_site_symmetry_2
_ccdc_geom_bond_type
Mg0 O1 2.028 . S
Mg0 O7 1.986 . S
Mg0 O9 2.114 . S
Mg0 O10 2.251 . S
Mg0 O13 2.010 . S
O1 Mg0 2.028 . S
O1 C4 1.248 1_455 S
O2 Mg3 2.028 . S
O2 C4 1.249 1_455 S
Mg3 O2 2.028 . S
Mg3 O8 2.032 . S
Mg3 O10 2.079 . S
C4 O1 1.248 1_655 S
C4 O2 1.249 1_655 S
C5 O6 1.264 1_565 S
C5 O13 1.249 1_565 S
O6 C5 1.264 1_545 S
O7 Mg0 1.986 . S
O7 C11 1.246 . S
O8 Mg3 2.032 . S
O8 C11 1.259 . S
O9 Mg0 2.114 . S
O9 C12 1.252 . S
O10 Mg0 2.251 . S
O10 Mg3 2.079 . S
O10 C12 1.273 . S
C11 O7 1.246 . S
C11 O8 1.259 . S
C12 O9 1.252 . S
C12 O10 1.273 . S
O13 Mg0 2.010 . S
O13 C5 1.249 1_545 S
Mg14 O15 2.028 1_655 S
Mg14 O21 1.986 1_655 S
Mg14 O23 2.114 1_545 S
Mg14 O24 2.251 . S
Mg14 O27 2.010 1_545 S
O15 Mg14 2.028 1_455 S
O15 C18 1.250 . S
O16 Mg17 2.028 . S
O16 C18 1.248 . S
Mg17 O16 2.028 . S
Mg17 O22 2.032 . S
Mg17 O24 2.079 1_455 S
C18 O15 1.250 . S
C18 O16 1.248 . S
C19 O20 1.264 . S
C19 O27 1.249 . S
O20 C19 1.264 . S
O21 Mg14 1.986 1_455 S
O21 C25 1.246 . S
O22 Mg17 2.032 . S
O22 C25 1.259 . S
O23 Mg14 2.114 1_565 S
O23 C26 1.252 1_565 S
O24 Mg14 2.251 . S
O24 Mg17 2.079 1_655 S
O24 C26 1.273 . S
C25 O21 1.246 . S
C25 O22 1.259 . S
C26 O23 1.252 1_545 S
C26 O24 1.273 . S
O27 Mg14 2.010 1_565 S
O27 C19 1.249 . S
Mg28 O29 2.028 . S
Mg28 O35 1.986 1_455 S
Mg28 O37 2.114 1_545 S
Mg28 O38 2.251 1_445 S
Mg28 O41 2.010 1_545 S
O29 Mg28 2.028 . S
O29 C32 1.250 . S
O30 Mg31 2.028 1_455 S
O30 C32 1.248 . S
Mg31 O30 2.028 1_655 S
Mg31 O36 2.032 . S
Mg31 O38 2.079 1_545 S
C32 O29 1.250 . S
C32 O30 1.248 . S
C33 O34 1.264 . S
C33 O41 1.249 . S
O34 C33 1.264 . S
O35 Mg28 1.986 1_655 S
O35 C39 1.246 . S
O36 Mg31 2.032 . S
O36 C39 1.259 . S
O37 Mg28 2.114 1_565 S
O37 C40 1.252 1_455 S
O38 Mg28 2.251 1_665 S
O38 Mg31 2.079 1_565 S
O38 C40 1.273 . S
C39 O35 1.246 . S
C39 O36 1.259 . S
C40 O37 1.252 1_655 S
C40 O38 1.273 . S
O41 Mg28 2.010 1_565 S
O41 C33 1.249 . S
C42 C43 1.384 1_655 S
C42 C44 1.384 1_655 S
C42 H70 0.931 . S
C43 C42 1.384 1_455 S
C43 C46 1.382 . S
C44 C42 1.384 1_455 S
C44 C45 1.381 . S
C44 H71 0.930 1_455 S
C45 C44 1.381 . S
C45 C47 1.381 . S
C45 C48 1.487 . S
C46 C43 1.382 . S
C46 C47 1.387 . S
C46 H72 0.930 . S
C47 C45 1.381 . S
C47 C46 1.387 . S
C47 H73 0.931 . S
C48 C45 1.487 . S
C48 C55 1.399 . S
C48 N86 1.343 . S
C49 C50 1.384 . S
C49 C51 1.384 . S
C49 H74 0.931 . S
C50 C49 1.384 . S
C50 C53 1.382 . S
C51 C49 1.384 . S
C51 C52 1.381 . S
C51 H75 0.930 . S
C52 C51 1.381 . S
C52 C54 1.381 . S
C52 C55 1.487 . S
C53 C50 1.382 . S
C53 C54 1.387 . S
C53 H76 0.930 1_455 S
C54 C52 1.381 . S
C54 C53 1.387 . S
C54 H77 0.931 1_455 S
C55 C48 1.399 . S
C55 C52 1.487 . S
C55 N87 1.343 . S
C56 C57 1.384 . S
C56 C58 1.384 . S
C56 H78 0.931 . S
C57 C56 1.384 . S
C57 C60 1.382 . S
C58 C56 1.384 . S
C58 C59 1.381 . S
C58 H79 0.930 . S
C59 C58 1.381 . S
C59 C61 1.381 . S
C59 C62 1.487 . S
C60 C57 1.382 . S
C60 C61 1.387 . S
C60 H80 0.930 1_455 S
C61 C59 1.381 . S
C61 C60 1.387 . S
C61 H81 0.931 1_455 S
C62 C59 1.487 . S
C62 C69 1.399 . S
C62 N87 1.343 . S
C63 C64 1.384 1_655 S
C63 C65 1.384 1_655 S
C63 H82 0.931 . S
C64 C63 1.384 1_455 S
C64 C67 1.382 . S
C65 C63 1.384 1_455 S
C65 C66 1.381 . S
C65 H83 0.930 1_455 S
C66 C65 1.381 . S
C66 C68 1.381 . S
C66 C69 1.487 . S
C67 C64 1.382 . S
C67 C68 1.387 . S
C67 H84 0.930 . S
C68 C66 1.381 . S
C68 C67 1.387 . S
C68 H85 0.931 . S
C69 C62 1.399 . S
C69 C66 1.487 . S
C69 N86 1.343 . S
H70 C42 0.931 . S
H71 C44 0.930 1_655 S
H72 C46 0.930 . S
H73 C47 0.931 . S
H74 C49 0.931 . S
H75 C51 0.930 . S
H76 C53 0.930 1_655 S
H77 C54 0.931 1_655 S
H78 C56 0.931 . S
H79 C58 0.930 . S
H80 C60 0.930 1_655 S
H81 C61 0.931 1_655 S
H82 C63 0.931 . S
H83 C65 0.930 1_655 S
H84 C67 0.930 . S
H85 C68 0.931 . S
N86 C48 1.343 . S
N86 C69 1.343 . S
N87 C55 1.343 . S
N87 C62 1.343 . S
C88 C89 1.384 . S
C88 C90 1.384 . S
C88 H116 0.931 . S
C89 C88 1.384 . S
C89 C92 1.382 . S
C90 C88 1.384 . S
C90 C91 1.381 . S
C90 H117 0.930 . S
C91 C90 1.381 . S
C91 C93 1.381 . S
C91 C94 1.487 . S
C92 C89 1.382 . S
C92 C93 1.387 . S
C92 H118 0.930 . S
C93 C91 1.381 . S
C93 C92 1.387 . S
C93 H119 0.931 . S
C94 C91 1.487 . S
C94 C101 1.399 . S
C94 N132 1.343 . S
C95 C96 1.384 . S
C95 C97 1.384 . S
C95 H120 0.931 . S
C96 C95 1.384 . S
C96 C99 1.382 . S
C97 C95 1.384 . S
C97 C98 1.381 . S
C97 H121 0.930 . S
C98 C97 1.381 . S
C98 C100 1.381 . S
C98 C101 1.487 . S
C99 C96 1.382 . S
C99 C100 1.387 . S
C99 H122 0.930 . S
C100 C98 1.381 . S
C100 C99 1.387 . S
C100 H123 0.931 . S
C101 C94 1.399 . S
C101 C98 1.487 . S
C101 N133 1.343 . S
C102 C103 1.384 . S
C102 C104 1.384 . S
C102 H124 0.931 . S
C103 C102 1.384 . S
C103 C106 1.382 . S
C104 C102 1.384 . S
C104 C105 1.381 . S
C104 H125 0.930 . S
C105 C104 1.381 . S
C105 C107 1.381 . S
C105 C108 1.487 . S
C106 C103 1.382 . S
C106 C107 1.387 . S
C106 H126 0.930 . S
C107 C105 1.381 . S
C107 C106 1.387 . S
C107 H127 0.931 . S
C108 C105 1.487 . S
C108 C115 1.399 . S
C108 N133 1.343 . S
C109 C110 1.384 . S
C109 C111 1.384 . S
C109 H128 0.931 . S
C110 C109 1.384 . S
C110 C113 1.382 . S
C111 C109 1.384 . S
C111 C112 1.381 . S
C111 H129 0.930 . S
C112 C111 1.381 . S
C112 C114 1.381 . S
C112 C115 1.487 . S
C113 C110 1.382 . S
C113 C114 1.387 . S
C113 H130 0.930 . S
C114 C112 1.381 . S
C114 C113 1.387 . S
C114 H131 0.931 . S
C115 C108 1.399 . S
C115 C112 1.487 . S
C115 N132 1.343 . S
H116 C88 0.931 . S
H117 C90 0.930 . S
H118 C92 0.930 . S
H119 C93 0.931 . S
H120 C95 0.931 . S
H121 C97 0.930 . S
H122 C99 0.930 . S
H123 C100 0.931 . S
H124 C102 0.931 . S
H125 C104 0.930 . S
H126 C106 0.930 . S
H127 C107 0.931 . S
H128 C109 0.931 . S
H129 C111 0.930 . S
H130 C113 0.930 . S
H131 C114 0.931 . S
N132 C94 1.343 . S
N132 C115 1.343 . S
N133 C101 1.343 . S
N133 C108 1.343 . S
C134 C135 1.384 . S
C134 C136 1.384 . S
C134 H162 0.931 . S
C135 C134 1.384 . S
C135 C138 1.382 . S
C136 C134 1.384 . S
C136 C137 1.381 . S
C136 H163 0.930 . S
C137 C136 1.381 . S
C137 C139 1.381 . S
C137 C140 1.487 . S
C138 C135 1.382 . S
C138 C139 1.387 . S
C138 H164 0.930 . S
C139 C137 1.381 . S
C139 C138 1.387 . S
C139 H165 0.931 . S
C140 C137 1.487 . S
C140 C147 1.399 . S
C140 N178 1.343 . S
C141 C142 1.384 . S
C141 C143 1.384 . S
C141 H166 0.931 . S
C142 C141 1.384 . S
C142 C145 1.382 . S
C143 C141 1.384 . S
C143 C144 1.381 . S
C143 H167 0.930 . S
C144 C143 1.381 . S
C144 C146 1.381 . S
C144 C147 1.487 . S
C145 C142 1.382 . S
C145 C146 1.387 . S
C145 H168 0.930 . S
C146 C144 1.381 . S
C146 C145 1.387 . S
C146 H169 0.931 . S
C147 C140 1.399 . S
C147 C144 1.487 . S
C147 N179 1.343 . S
C148 C149 1.384 . S
C148 C150 1.384 . S
C148 H170 0.931 . S
C149 C148 1.384 . S
C149 C152 1.382 . S
C150 C148 1.384 . S
C150 C151 1.381 . S
C150 H171 0.930 . S
C151 C150 1.381 . S
C151 C153 1.381 . S
C151 C154 1.487 . S
C152 C149 1.382 . S
C152 C153 1.387 . S
C152 H172 0.930 . S
C153 C151 1.381 . S
C153 C152 1.387 . S
C153 H173 0.931 . S
C154 C151 1.487 . S
C154 C161 1.399 . S
C154 N179 1.343 . S
C155 C156 1.384 . S
C155 C157 1.384 . S
C155 H174 0.931 . S
C156 C155 1.384 . S
C156 C159 1.382 . S
C157 C155 1.384 . S
C157 C158 1.381 . S
C157 H175 0.930 . S
C158 C157 1.381 . S
C158 C160 1.381 . S
C158 C161 1.487 . S
C159 C156 1.382 . S
C159 C160 1.387 . S
C159 H176 0.930 . S
C160 C158 1.381 . S
C160 C159 1.387 . S
C160 H177 0.931 . S
C161 C154 1.399 . S
C161 C158 1.487 . S
C161 N178 1.343 . S
H162 C134 0.931 . S
H163 C136 0.930 . S
H164 C138 0.930 . S
H165 C139 0.931 . S
H166 C141 0.931 . S
H167 C143 0.930 . S
H168 C145 0.930 . S
H169 C146 0.931 . S
H170 C148 0.931 . S
H171 C150 0.930 . S
H172 C152 0.930 . S
H173 C153 0.931 . S
H174 C155 0.931 . S
H175 C157 0.930 . S
H176 C159 0.930 . S
H177 C160 0.931 . S
N178 C140 1.343 . S
N178 C161 1.343 . S
N179 C147 1.343 . S
N179 C154 1.343 . S
H180 C198 0.951 . S
H181 C200 0.951 . S
H182 C202 0.950 . S
H183 C203 0.950 . S
H184 C205 0.950 1_655 S
H185 C208 0.950 . S
H186 C209 0.950 . S
H187 C211 0.950 . S
H188 C212 0.950 . S
H189 C213 0.948 1_655 S
H190 C215 0.959 . S
H191 C217 0.950 . S
H192 C218 0.950 . S
H193 C220 0.950 . S
H194 C223 0.950 . S
H195 C224 0.950 . S
H196 C226 0.950 . S
H197 C227 0.950 . S
C198 H180 0.951 . S
C198 C199 1.366 . S
C198 C200 1.388 . S
C199 C198 1.366 . S
C199 C203 1.385 1_455 S
C200 H181 0.951 . S
C200 C198 1.388 . S
C200 C201 1.366 . S
C201 C200 1.366 . S
C201 C202 1.414 1_455 S
C201 C204 1.499 . S
C202 H182 0.950 . S
C202 C201 1.414 1_655 S
C202 C203 1.374 . S
C203 H183 0.950 . S
C203 C199 1.385 1_655 S
C203 C202 1.374 . S
C204 C201 1.499 . S
C204 C205 1.373 . S
C204 C206 1.389 . S
C205 H184 0.950 1_455 S
C205 C204 1.373 . S
C205 C221 1.377 . S
C206 C204 1.389 . S
C206 C207 1.524 . S
C206 C220 1.377 . S
C207 C206 1.524 . S
C207 C208 1.397 . S
C207 C212 1.363 . S
C208 H185 0.950 . S
C208 C207 1.397 . S
C208 C209 1.334 . S
C209 H186 0.950 . S
C209 C208 1.334 . S
C209 C210 1.287 . S
C210 C209 1.287 . S
C210 C211 1.524 . S
C210 H229 0.913 . S
C211 H187 0.950 . S
C211 C210 1.524 . S
C211 C212 1.415 . S
C212 H188 0.950 . S
C212 C207 1.363 . S
C212 C211 1.415 . S
C213 H189 0.948 1_455 S
C213 C214 1.368 . S
C213 C215 1.397 1_455 S
C214 C213 1.368 . S
C214 C218 1.385 . S
C215 H190 0.959 . S
C215 C213 1.397 1_655 S
C215 C216 1.350 1_655 S
C216 C215 1.350 1_455 S
C216 C217 1.414 . S
C216 C219 1.499 . S
C217 H191 0.950 . S
C217 C216 1.414 . S
C217 C218 1.374 . S
C218 H192 0.950 . S
C218 C214 1.385 . S
C218 C217 1.374 . S
C219 C216 1.499 . S
C219 C220 1.373 . S
C219 C221 1.389 . S
C220 H193 0.950 . S
C220 C206 1.377 . S
C220 C219 1.373 . S
C221 C205 1.377 . S
C221 C219 1.389 . S
C221 C222 1.524 1_455 S
C222 C221 1.524 1_655 S
C222 C223 1.397 1_655 S
C222 C227 1.363 . S
C223 H194 0.950 . S
C223 C222 1.397 1_455 S
C223 C224 1.334 1_455 S
C224 H195 0.950 . S
C224 C223 1.334 1_655 S
C224 C225 1.287 . S
C225 C224 1.287 . S
C225 C226 1.524 . S
C225 H228 0.999 . S
C226 H196 0.950 . S
C226 C225 1.524 . S
C226 C227 1.415 . S
C227 H197 0.950 . S
C227 C222 1.363 . S
C227 C226 1.415 . S
H228 C225 0.999 . S
H229 C210 0.913 . S
H230 C248 0.951 . S
H231 C250 0.951 . S
H232 C252 0.950 . S
H233 C253 0.950 . S
H234 C255 0.950 . S
H235 C258 0.950 . S
H236 C259 0.950 . S
H237 C261 0.950 . S
H238 C262 0.950 . S
H239 C263 0.951 . S
H240 C265 0.951 1_565 S
H241 C267 0.950 . S
H242 C268 0.950 . S
H243 C270 0.950 . S
H244 C273 0.950 . S
H245 C274 0.950 . S
H246 C276 0.950 . S
H247 C277 0.950 . S
C248 H230 0.951 . S
C248 C249 1.366 . S
C248 C250 1.388 . S
C249 C248 1.366 . S
C249 C253 1.385 1_545 S
C250 H231 0.951 . S
C250 C248 1.388 . S
C250 C251 1.366 . S
C251 C250 1.366 . S
C251 C252 1.414 1_545 S
C251 C254 1.499 . S
C252 H232 0.950 . S
C252 C251 1.414 1_565 S
C252 C253 1.374 . S
C253 H233 0.950 . S
C253 C249 1.385 1_565 S
C253 C252 1.374 . S
C254 C251 1.499 . S
C254 C255 1.373 1_545 S
C254 C256 1.389 . S
C255 H234 0.950 . S
C255 C254 1.373 1_565 S
C255 C271 1.377 . S
C256 C254 1.389 . S
C256 C257 1.524 . S
C256 C270 1.377 . S
C257 C256 1.524 . S
C257 C258 1.397 . S
C257 C262 1.363 . S
C258 H235 0.950 . S
C258 C257 1.397 . S
C258 C259 1.334 . S
C259 H236 0.950 . S
C259 C258 1.334 . S
C259 C260 1.287 . S
C260 C259 1.287 . S
C260 C261 1.524 . S
C260 H279 0.913 . S
C261 H237 0.950 . S
C261 C260 1.524 . S
C261 C262 1.415 . S
C262 H238 0.950 . S
C262 C257 1.363 . S
C262 C261 1.415 . S
C263 H239 0.951 . S
C263 C264 1.366 . S
C263 C265 1.388 . S
C264 C263 1.366 . S
C264 C268 1.385 . S
C265 H240 0.951 1_545 S
C265 C263 1.388 . S
C265 C266 1.366 . S
C266 C265 1.366 . S
C266 C267 1.414 . S
C266 C269 1.499 . S
C267 H241 0.950 . S
C267 C266 1.414 . S
C267 C268 1.374 . S
C268 H242 0.950 . S
C268 C264 1.385 . S
C268 C267 1.374 . S
C269 C266 1.499 . S
C269 C270 1.373 . S
C269 C271 1.389 1_545 S
C270 H243 0.950 . S
C270 C256 1.377 . S
C270 C269 1.373 . S
C271 C255 1.377 . S
C271 C269 1.389 1_565 S
C271 C272 1.524 . S
C272 C271 1.524 . S
C272 C273 1.397 . S
C272 C277 1.363 . S
C273 H244 0.950 . S
C273 C272 1.397 . S
C273 C274 1.334 . S
C274 H245 0.950 . S
C274 C273 1.334 . S
C274 C275 1.287 . S
C275 C274 1.287 . S
C275 C276 1.524 . S
C275 H278 0.999 . S
C276 H246 0.950 . S
C276 C275 1.524 . S
C276 C277 1.415 . S
C277 H247 0.950 . S
C277 C272 1.363 . S
C277 C276 1.415 . S
H278 C275 0.999 . S
H279 C260 0.913 . S
H280 C298 0.951 . S
H281 C300 0.951 . S
H282 C302 0.950 . S
H283 C303 0.950 . S
H284 C305 0.950 . S
H285 C308 0.950 . S
H286 C309 0.950 . S
H287 C311 0.950 . S
H288 C312 0.950 . S
H289 C313 0.951 . S
H290 C315 0.951 . S
H291 C317 0.950 . S
H292 C318 0.950 . S
H293 C320 0.950 . S
H294 C323 0.950 . S
H295 C324 0.950 . S
H296 C326 0.950 . S
H297 C327 0.950 . S
C298 H280 0.951 . S
C298 C299 1.366 . S
C298 C300 1.388 . S
C299 C298 1.366 . S
C299 C303 1.385 . S
C300 H281 0.951 . S
C300 C298 1.388 . S
C300 C301 1.366 . S
C301 C300 1.366 . S
C301 C302 1.414 . S
C301 C304 1.499 . S
C302 H282 0.950 . S
C302 C301 1.414 . S
C302 C303 1.374 . S
C303 H283 0.950 . S
C303 C299 1.385 . S
C303 C302 1.374 . S
C304 C301 1.499 . S
C304 C305 1.373 . S
C304 C306 1.389 . S
C305 H284 0.950 . S
C305 C304 1.373 . S
C305 C321 1.377 . S
C306 C304 1.389 . S
C306 C307 1.524 . S
C306 C320 1.377 . S
C307 C306 1.524 . S
C307 C308 1.397 . S
C307 C312 1.363 . S
C308 H285 0.950 . S
C308 C307 1.397 . S
C308 C309 1.334 . S
C309 H286 0.950 . S
C309 C308 1.334 . S
C309 C310 1.287 . S
C310 C309 1.287 . S
C310 C311 1.524 . S
C310 H329 0.913 1_565 S
C311 H287 0.950 . S
C311 C310 1.524 . S
C311 C312 1.415 . S
C312 H288 0.950 . S
C312 C307 1.363 . S
C312 C311 1.415 . S
C313 H289 0.951 . S
C313 C314 1.366 . S
C313 C315 1.388 . S
C314 C313 1.366 . S
C314 C318 1.385 . S
C315 H290 0.951 . S
C315 C313 1.388 . S
C315 C316 1.366 . S
C316 C315 1.366 . S
C316 C317 1.414 . S
C316 C319 1.499 . S
C317 H291 0.950 . S
C317 C316 1.414 . S
C317 C318 1.374 . S
C318 H292 0.950 . S
C318 C314 1.385 . S
C318 C317 1.374 . S
C319 C316 1.499 . S
C319 C320 1.373 . S
C319 C321 1.389 . S
C320 H293 0.950 . S
C320 C306 1.377 . S
C320 C319 1.373 . S
C321 C305 1.377 . S
C321 C319 1.389 . S
C321 C322 1.524 . S
C322 C321 1.524 . S
C322 C323 1.397 . S
C322 C327 1.363 . S
C323 H294 0.950 . S
C323 C322 1.397 . S
C323 C324 1.334 . S
C324 H295 0.950 . S
C324 C323 1.334 . S
C324 C325 1.287 . S
C325 C324 1.287 . S
C325 C326 1.524 . S
C325 H328 0.999 . S
C326 H296 0.950 . S
C326 C325 1.524 . S
C326 C327 1.415 . S
C327 H297 0.950 . S
C327 C322 1.363 . S
C327 C326 1.415 . S
H328 C325 0.999 . S
H329 C310 0.913 1_545 S
H330 C348 0.951 . S
H331 C350 0.951 . S
H332 C352 0.950 . S
H333 C353 0.950 . S
H334 C355 0.950 . S
H335 C358 0.950 . S
H336 C359 0.950 . S
H337 C361 0.950 . S
H338 C362 0.950 . S
H339 C363 0.951 . S
H340 C365 0.951 . S
H341 C367 0.950 1_655 S
H342 C368 0.950 1_655 S
H343 C370 0.950 . S
H344 C373 0.950 . S
H345 C374 0.950 . S
H346 C376 0.950 . S
H347 C377 0.950 . S
C348 H330 0.951 . S
C348 C349 1.366 . S
C348 C350 1.388 . S
C349 C348 1.366 . S
C349 C353 1.385 . S
C350 H331 0.951 . S
C350 C348 1.388 . S
C350 C351 1.366 . S
C351 C350 1.366 . S
C351 C352 1.414 . S
C351 C354 1.499 . S
C352 H332 0.950 . S
C352 C351 1.414 . S
C352 C353 1.374 . S
C353 H333 0.950 . S
C353 C349 1.385 . S
C353 C352 1.374 . S
C354 C351 1.499 . S
C354 C355 1.373 . S
C354 C356 1.389 . S
C355 H334 0.950 . S
C355 C354 1.373 . S
C355 C371 1.377 . S
C356 C354 1.389 . S
C356 C357 1.524 . S
C356 C370 1.377 . S
C357 C356 1.524 . S
C357 C358 1.397 . S
C357 C362 1.363 1_455 S
C358 H335 0.950 . S
C358 C357 1.397 . S
C358 C359 1.334 . S
C359 H336 0.950 . S
C359 C358 1.334 . S
C359 C360 1.287 . S
C360 C359 1.287 . S
C360 C361 1.524 1_455 S
C360 H379 0.913 . S
C361 H337 0.950 . S
C361 C360 1.524 1_655 S
C361 C362 1.415 . S
C362 H338 0.950 . S
C362 C357 1.363 1_655 S
C362 C361 1.415 . S
C363 H339 0.951 . S
C363 C364 1.366 . S
C363 C365 1.388 . S
C364 C363 1.366 . S
C364 C368 1.385 . S
C365 H340 0.951 . S
C365 C363 1.388 . S
C365 C366 1.366 . S
C366 C365 1.366 . S
C366 C367 1.414 . S
C366 C369 1.499 . S
C367 H341 0.950 1_455 S
C367 C366 1.414 . S
C367 C368 1.374 . S
C368 H342 0.950 1_455 S
C368 C364 1.385 . S
C368 C367 1.374 . S
C369 C366 1.499 . S
C369 C370 1.373 . S
C369 C371 1.389 . S
C370 H343 0.950 . S
C370 C356 1.377 . S
C370 C369 1.373 . S
C371 C355 1.377 . S
C371 C369 1.389 . S
C371 C372 1.524 . S
C372 C371 1.524 . S
C372 C373 1.397 . S
C372 C377 1.363 . S
C373 H344 0.950 . S
C373 C372 1.397 . S
C373 C374 1.334 . S
C374 H345 0.950 . S
C374 C373 1.334 . S
C374 C375 1.287 . S
C375 C374 1.287 . S
C375 C376 1.524 . S
C375 H378 0.999 . S
C376 H346 0.950 . S
C376 C375 1.524 . S
C376 C377 1.415 . S
C377 H347 0.950 . S
C377 C372 1.363 . S
C377 C376 1.415 . S
H378 C375 0.999 . S
H379 C360 0.913 . S
H380 C398 0.951 . S
H381 C400 0.951 . S
H382 C402 0.950 . S
H383 C403 0.950 . S
H384 C405 0.950 . S
H385 C408 0.950 . S
H386 C409 0.950 . S
H387 C411 0.950 . S
H388 C412 0.950 . S
H389 C413 0.951 . S
H390 C415 0.951 . S
H391 C417 0.950 . S
H392 C418 0.950 . S
H393 C420 0.950 . S
H394 C423 0.950 . S
H395 C424 0.950 . S
H396 C426 0.950 . S
H397 C427 0.950 . S
C398 H380 0.951 . S
C398 C399 1.366 . S
C398 C400 1.388 . S
C399 C398 1.366 . S
C399 C403 1.385 . S
C400 H381 0.951 . S
C400 C398 1.388 . S
C400 C401 1.366 . S
C401 C400 1.366 . S
C401 C402 1.414 . S
C401 C404 1.499 . S
C402 H382 0.950 . S
C402 C401 1.414 . S
C402 C403 1.374 . S
C403 H383 0.950 . S
C403 C399 1.385 . S
C403 C402 1.374 . S
C404 C401 1.499 . S
C404 C405 1.373 . S
C404 C406 1.389 . S
C405 H384 0.950 . S
C405 C404 1.373 . S
C405 C421 1.377 . S
C406 C404 1.389 . S
C406 C407 1.530 . S
C406 C420 1.377 . S
C407 C406 1.530 . S
C407 C408 1.393 1_545 S
C407 C412 1.360 . S
C408 H385 0.950 . S
C408 C407 1.393 1_565 S
C408 C409 1.334 . S
C409 H386 0.950 . S
C409 C408 1.334 . S
C409 C410 1.287 . S
C410 C409 1.287 . S
C410 C411 1.524 . S
C410 H429 0.913 . S
C411 H387 0.950 . S
C411 C410 1.524 . S
C411 C412 1.415 1_565 S
C412 H388 0.950 . S
C412 C407 1.360 . S
C412 C411 1.415 1_545 S
C413 H389 0.951 . S
C413 C414 1.366 . S
C413 C415 1.388 . S
C414 C413 1.366 . S
C414 C418 1.385 . S
C415 H390 0.951 . S
C415 C413 1.388 . S
C415 C416 1.366 . S
C416 C415 1.366 . S
C416 C417 1.414 . S
C416 C419 1.499 . S
C417 H391 0.950 . S
C417 C416 1.414 . S
C417 C418 1.374 . S
C418 H392 0.950 . S
C418 C414 1.385 . S
C418 C417 1.374 . S
C419 C416 1.499 . S
C419 C420 1.373 . S
C419 C421 1.389 . S
C420 H393 0.950 . S
C420 C406 1.377 . S
C420 C419 1.373 . S
C421 C405 1.377 . S
C421 C419 1.389 . S
C421 C422 1.524 . S
C422 C421 1.524 . S
C422 C423 1.397 . S
C422 C427 1.363 . S
C423 H394 0.950 . S
C423 C422 1.397 . S
C423 C424 1.334 . S
C424 H395 0.950 . S
C424 C423 1.334 . S
C424 C425 1.287 . S
C425 C424 1.287 . S
C425 C426 1.524 . S
C425 H428 0.999 . S
C426 H396 0.950 . S
C426 C425 1.524 . S
C426 C427 1.415 . S
C427 H397 0.950 . S
C427 C422 1.363 . S
C427 C426 1.415 . S
H428 C425 0.999 . S
H429 C410 0.913 . S
H430 C448 0.951 . S
H431 C450 0.951 . S
H432 C452 0.950 . S
H433 C453 0.950 . S
H434 C455 0.950 . S
H435 C458 0.950 . S
H436 C459 0.950 . S
H437 C461 0.950 . S
H438 C462 0.950 . S
H439 C463 0.951 . S
H440 C465 0.951 . S
H441 C467 0.950 . S
H442 C468 0.950 . S
H443 C470 0.950 . S
H444 C473 0.950 . S
H445 C474 0.950 . S
H446 C476 0.950 . S
H447 C477 0.950 . S
C448 H430 0.951 . S
C448 C449 1.366 . S
C448 C450 1.388 . S
C449 C448 1.366 . S
C449 C453 1.385 . S
C450 H431 0.951 . S
C450 C448 1.388 . S
C450 C451 1.366 . S
C451 C450 1.366 . S
C451 C452 1.414 . S
C451 C454 1.499 . S
C452 H432 0.950 . S
C452 C451 1.414 . S
C452 C453 1.374 . S
C453 H433 0.950 . S
C453 C449 1.385 . S
C453 C452 1.374 . S
C454 C451 1.499 . S
C454 C455 1.373 . S
C454 C456 1.389 . S
C455 H434 0.950 . S
C455 C454 1.373 . S
C455 C471 1.377 . S
C456 C454 1.389 . S
C456 C457 1.524 . S
C456 C470 1.377 . S
C457 C456 1.524 . S
C457 C458 1.397 . S
C457 C462 1.363 . S
C458 H435 0.950 . S
C458 C457 1.397 . S
C458 C459 1.334 . S
C459 H436 0.950 . S
C459 C458 1.334 . S
C459 C460 1.287 . S
C460 C459 1.287 . S
C460 C461 1.524 . S
C460 H479 0.913 . S
C461 H437 0.950 . S
C461 C460 1.524 . S
C461 C462 1.415 . S
C462 H438 0.950 . S
C462 C457 1.363 . S
C462 C461 1.415 . S
C463 H439 0.951 . S
C463 C464 1.366 . S
C463 C465 1.388 . S
C464 C463 1.366 . S
C464 C468 1.385 . S
C465 H440 0.951 . S
C465 C463 1.388 . S
C465 C466 1.366 . S
C466 C465 1.366 . S
C466 C467 1.414 . S
C466 C469 1.499 . S
C467 H441 0.950 . S
C467 C466 1.414 . S
C467 C468 1.374 . S
C468 H442 0.950 . S
C468 C464 1.385 . S
C468 C467 1.374 . S
C469 C466 1.499 . S
C469 C470 1.373 . S
C469 C471 1.389 . S
C470 H443 0.950 . S
C470 C456 1.377 . S
C470 C469 1.373 . S
C471 C455 1.377 . S
C471 C469 1.389 . S
C471 C472 1.524 . S
C472 C471 1.524 . S
C472 C473 1.397 . S
C472 C477 1.363 . S
C473 H444 0.950 . S
C473 C472 1.397 . S
C473 C474 1.334 . S
C474 H445 0.950 . S
C474 C473 1.334 . S
C474 C475 1.287 . S
C475 C474 1.287 . S
C475 C476 1.524 . S
C475 H478 0.999 . S
C476 H446 0.950 . S
C476 C475 1.524 . S
C476 C477 1.415 . S
C477 H447 0.950 . S
C477 C472 1.363 . S
C477 C476 1.415 . S
H478 C475 0.999 . S
H479 C460 0.913 . S
H480 C498 0.951 . S
H481 C500 0.951 . S
H482 C502 0.950 . S
H483 C503 0.950 . S
H484 C505 0.950 . S
H485 C508 0.950 . S
H486 C509 0.950 . S
H487 C511 0.950 . S
H488 C512 0.950 1_545 S
H489 C513 0.951 . S
H490 C515 0.951 . S
H491 C517 0.950 . S
H492 C518 0.950 . S
H493 C520 0.950 . S
H494 C523 0.950 . S
H495 C524 0.950 . S
H496 C526 0.950 . S
H497 C527 0.950 . S
C498 H480 0.951 . S
C498 C499 1.366 . S
C498 C500 1.388 . S
C499 C498 1.366 . S
C499 C503 1.385 . S
C500 H481 0.951 . S
C500 C498 1.388 . S
C500 C501 1.366 . S
C501 C500 1.366 . S
C501 C502 1.414 . S
C501 C504 1.499 . S
C502 H482 0.950 . S
C502 C501 1.414 . S
C502 C503 1.374 . S
C503 H483 0.950 . S
C503 C499 1.385 . S
C503 C502 1.374 . S
C504 C501 1.499 . S
C504 C505 1.373 . S
C504 C506 1.389 . S
C505 H484 0.950 . S
C505 C504 1.373 . S
C505 C521 1.377 . S
C506 C504 1.389 . S
C506 C507 1.524 1_545 S
C506 C520 1.377 . S
C507 C506 1.524 1_565 S
C507 C508 1.397 . S
C507 C512 1.363 . S
C508 H485 0.950 . S
C508 C507 1.397 . S
C508 C509 1.334 . S
C509 H486 0.950 . S
C509 C508 1.334 . S
C509 C510 1.287 . S
C510 C509 1.287 . S
C510 C511 1.524 . S
C510 H529 0.913 . S
C511 H487 0.950 . S
C511 C510 1.524 . S
C511 C512 1.415 . S
C512 H488 0.950 1_565 S
C512 C507 1.363 . S
C512 C511 1.415 . S
C513 H489 0.951 . S
C513 C514 1.366 . S
C513 C515 1.388 . S
C514 C513 1.366 . S
C514 C518 1.385 . S
C515 H490 0.951 . S
C515 C513 1.388 . S
C515 C516 1.366 . S
C516 C515 1.366 . S
C516 C517 1.414 . S
C516 C519 1.499 . S
C517 H491 0.950 . S
C517 C516 1.414 . S
C517 C518 1.374 . S
C518 H492 0.950 . S
C518 C514 1.385 . S
C518 C517 1.374 . S
C519 C516 1.499 . S
C519 C520 1.373 . S
C519 C521 1.389 . S
C520 H493 0.950 . S
C520 C506 1.377 . S
C520 C519 1.373 . S
C521 C505 1.377 . S
C521 C519 1.389 . S
C521 C522 1.524 . S
C522 C521 1.524 . S
C522 C523 1.397 . S
C522 C527 1.363 . S
C523 H494 0.950 . S
C523 C522 1.397 . S
C523 C524 1.334 . S
C524 H495 0.950 . S
C524 C523 1.334 . S
C524 C525 1.287 . S
C525 C524 1.287 . S
C525 C526 1.524 . S
C525 H528 0.999 . S
C526 H496 0.950 . S
C526 C525 1.524 . S
C526 C527 1.415 . S
C527 H497 0.950 . S
C527 C522 1.363 . S
C527 C526 1.415 . S
H528 C525 0.999 . S
H529 C510 0.913 . S
H530 C548 0.951 . S
H531 C550 0.951 . S
H532 C552 0.950 . S
H533 C553 0.956 1_545 S
H534 C555 0.950 . S
H535 C558 0.950 . S
H536 C559 0.950 1_455 S
H537 C561 0.950 . S
H538 C562 0.950 . S
H539 C563 0.951 . S
H540 C565 0.951 . S
H541 C567 0.950 . S
H542 C568 0.950 . S
H543 C570 0.950 . S
H544 C573 0.950 . S
H545 C574 0.950 . S
H546 C576 0.950 . S
H547 C577 0.950 . S
C548 H530 0.951 . S
C548 C549 1.366 . S
C548 C550 1.388 . S
C549 C548 1.366 . S
C549 C553 1.385 . S
C550 H531 0.951 . S
C550 C548 1.388 . S
C550 C551 1.366 1_554 S
C551 C550 1.366 1_556 S
C551 C552 1.414 . S
C551 C554 1.499 . S
C552 H532 0.950 . S
C552 C551 1.414 . S
C552 C553 1.374 1_556 S
C553 H533 0.956 1_565 S
C553 C549 1.385 . S
C553 C552 1.374 1_554 S
C554 C551 1.499 . S
C554 C555 1.373 . S
C554 C556 1.389 . S
C555 H534 0.950 . S
C555 C554 1.373 . S
C555 C571 1.377 . S
C556 C554 1.389 . S
C556 C557 1.524 . S
C556 C570 1.377 . S
C557 C556 1.524 . S
C557 C558 1.397 . S
C557 C562 1.363 . S
C558 H535 0.950 . S
C558 C557 1.397 . S
C558 C559 1.334 . S
C559 H536 0.950 1_655 S
C559 C558 1.334 . S
C559 C560 1.287 . S
C560 C559 1.287 . S
C560 C561 1.524 1_556 S
C560 H579 0.896 1_556 S
C561 H537 0.950 . S
C561 C560 1.524 1_554 S
C561 C562 1.415 1_554 S
C562 H538 0.950 . S
C562 C557 1.363 . S
C562 C561 1.415 1_556 S
C563 H539 0.951 . S
C563 C564 1.366 . S
C563 C565 1.388 . S
C564 C563 1.366 . S
C564 C568 1.385 . S
C565 H540 0.951 . S
C565 C563 1.388 . S
C565 C566 1.366 . S
C566 C565 1.366 . S
C566 C567 1.414 . S
C566 C569 1.499 . S
C567 H541 0.950 . S
C567 C566 1.414 . S
C567 C568 1.374 . S
C568 H542 0.950 . S
C568 C564 1.385 . S
C568 C567 1.374 . S
C569 C566 1.499 . S
C569 C570 1.373 . S
C569 C571 1.389 . S
C570 H543 0.950 . S
C570 C556 1.377 . S
C570 C569 1.373 . S
C571 C555 1.377 . S
C571 C569 1.389 . S
C571 C572 1.524 . S
C572 C571 1.524 . S
C572 C573 1.397 . S
C572 C577 1.363 . S
C573 H544 0.950 . S
C573 C572 1.397 . S
C573 C574 1.334 . S
C574 H545 0.950 . S
C574 C573 1.334 . S
C574 C575 1.287 . S
C575 C574 1.287 . S
C575 C576 1.524 . S
C575 H578 0.999 . S
C576 H546 0.950 . S
C576 C575 1.524 . S
C576 C577 1.415 . S
C577 H547 0.950 . S
C577 C572 1.363 . S
C577 C576 1.415 . S
H578 C575 0.999 . S
H579 C560 0.896 1_554 S
H580 C598 0.951 . S
H581 C600 0.951 . S
H582 C602 0.950 . S
H583 C603 0.950 . S
H584 C605 0.950 . S
H585 C608 0.950 . S
H586 C609 0.950 . S
H587 C611 0.950 . S
H588 C612 0.950 . S
H589 C613 0.951 . S
H590 C615 0.951 . S
H591 C617 0.950 . S
H592 C618 0.950 . S
H593 C620 0.950 . S
H594 C623 0.950 . S
H595 C624 0.950 . S
H596 C626 0.950 . S
H597 C627 0.950 . S
C598 H580 0.951 . S
C598 C599 1.366 . S
C598 C600 1.388 . S
C599 C598 1.366 . S
C599 C603 1.385 1_655 S
C600 H581 0.951 . S
C600 C598 1.388 . S
C600 C601 1.366 . S
C601 C600 1.366 . S
C601 C602 1.414 1_655 S
C601 C604 1.507 . S
C602 H582 0.950 . S
C602 C601 1.414 1_455 S
C602 C603 1.374 . S
C603 H583 0.950 . S
C603 C599 1.385 1_455 S
C603 C602 1.374 . S
C604 C601 1.507 . S
C604 C605 1.360 1_655 S
C604 C606 1.395 . S
C605 H584 0.950 . S
C605 C604 1.360 1_455 S
C605 C621 1.377 . S
C606 C604 1.395 . S
C606 C607 1.524 . S
C606 C620 1.377 . S
C607 C606 1.524 . S
C607 C608 1.397 . S
C607 C612 1.363 . S
C608 H585 0.950 . S
C608 C607 1.397 . S
C608 C609 1.334 . S
C609 H586 0.950 . S
C609 C608 1.334 . S
C609 C610 1.287 . S
C610 C609 1.287 . S
C610 C611 1.524 . S
C610 H629 0.913 . S
C611 H587 0.950 . S
C611 C610 1.524 . S
C611 C612 1.415 . S
C612 H588 0.950 . S
C612 C607 1.363 . S
C612 C611 1.415 . S
C613 H589 0.951 . S
C613 C614 1.366 . S
C613 C615 1.388 . S
C614 C613 1.366 . S
C614 C618 1.385 1_455 S
C615 H590 0.951 . S
C615 C613 1.388 . S
C615 C616 1.366 . S
C616 C615 1.366 . S
C616 C617 1.414 1_455 S
C616 C619 1.499 . S
C617 H591 0.950 . S
C617 C616 1.414 1_655 S
C617 C618 1.374 . S
C618 H592 0.950 . S
C618 C614 1.385 1_655 S
C618 C617 1.374 . S
C619 C616 1.499 . S
C619 C620 1.373 1_455 S
C619 C621 1.389 . S
C620 H593 0.950 . S
C620 C606 1.377 . S
C620 C619 1.373 1_655 S
C621 C605 1.377 . S
C621 C619 1.389 . S
C621 C622 1.524 . S
C622 C621 1.524 . S
C622 C623 1.397 . S
C622 C627 1.363 . S
C623 H594 0.950 . S
C623 C622 1.397 . S
C623 C624 1.334 . S
C624 H595 0.950 . S
C624 C623 1.334 . S
C624 C625 1.287 . S
C625 C624 1.287 . S
C625 C626 1.524 . S
C625 H628 0.999 . S
C626 H596 0.950 . S
C626 C625 1.524 . S
C626 C627 1.415 . S
C627 H597 0.950 . S
C627 C622 1.363 . S
C627 C626 1.415 . S
H628 C625 0.999 . S
H629 C610 0.913 . S
H630 C648 0.951 . S
H631 C650 0.951 . S
H632 C652 0.931 1_565 S
H633 C653 0.954 . S
H634 C655 0.950 . S
H635 C658 0.950 . S
H636 C659 0.950 . S
H637 C661 0.950 . S
H638 C662 0.950 1_545 S
H639 C663 0.951 . S
H640 C665 0.951 . S
H641 C667 0.950 . S
H642 C668 0.950 . S
H643 C670 0.950 . S
H644 C673 0.950 . S
H645 C674 0.950 . S
H646 C676 0.950 . S
H647 C677 0.950 . S
C648 H630 0.951 . S
C648 C649 1.366 . S
C648 C650 1.388 . S
C649 C648 1.366 . S
C649 C653 1.378 1_545 S
C650 H631 0.951 . S
C650 C648 1.388 . S
C650 C651 1.366 . S
C651 C650 1.366 . S
C651 C652 1.414 . S
C651 C654 1.499 . S
C652 H632 0.931 1_545 S
C652 C651 1.414 . S
C652 C653 1.377 1_545 S
C653 H633 0.954 . S
C653 C649 1.378 1_565 S
C653 C652 1.377 1_565 S
C654 C651 1.499 . S
C654 C655 1.373 . S
C654 C656 1.389 . S
C655 H634 0.950 . S
C655 C654 1.373 . S
C655 C671 1.377 . S
C656 C654 1.389 . S
C656 C657 1.524 1_545 S
C656 C670 1.377 . S
C657 C656 1.524 1_565 S
C657 C658 1.397 . S
C657 C662 1.363 . S
C658 H635 0.950 . S
C658 C657 1.397 . S
C658 C659 1.334 . S
C659 H636 0.950 . S
C659 C658 1.334 . S
C659 C660 1.287 . S
C660 C659 1.287 . S
C660 C661 1.524 . S
C660 H679 0.913 . S
C661 H637 0.950 . S
C661 C660 1.524 . S
C661 C662 1.415 . S
C662 H638 0.950 1_565 S
C662 C657 1.363 . S
C662 C661 1.415 . S
C663 H639 0.951 . S
C663 C664 1.366 . S
C663 C665 1.388 . S
C664 C663 1.366 . S
C664 C668 1.385 . S
C665 H640 0.951 . S
C665 C663 1.388 . S
C665 C666 1.366 . S
C666 C665 1.366 . S
C666 C667 1.414 . S
C666 C669 1.499 . S
C667 H641 0.950 . S
C667 C666 1.414 . S
C667 C668 1.374 . S
C668 H642 0.950 . S
C668 C664 1.385 . S
C668 C667 1.374 . S
C669 C666 1.499 . S
C669 C670 1.373 . S
C669 C671 1.389 . S
C670 H643 0.950 . S
C670 C656 1.377 . S
C670 C669 1.373 . S
C671 C655 1.377 . S
C671 C669 1.389 . S
C671 C672 1.524 . S
C672 C671 1.524 . S
C672 C673 1.397 . S
C672 C677 1.363 . S
C673 H644 0.950 . S
C673 C672 1.397 . S
C673 C674 1.334 . S
C674 H645 0.950 . S
C674 C673 1.334 . S
C674 C675 1.287 . S
C675 C674 1.287 . S
C675 C676 1.524 . S
C675 H678 0.999 . S
C676 H646 0.950 . S
C676 C675 1.524 . S
C676 C677 1.415 . S
C677 H647 0.950 . S
C677 C672 1.363 . S
C677 C676 1.415 . S
H678 C675 0.999 . S
H679 C660 0.913 . S
H680 C698 0.965 . S
H681 C700 0.951 . S
H682 C702 0.950 . S
H683 C703 0.950 . S
H684 C705 0.950 . S
H685 C708 0.950 . S
H686 C709 0.950 . S
H687 C711 0.950 . S
H688 C712 0.950 . S
H689 C713 0.951 . S
H690 C715 0.951 . S
H691 C717 0.950 . S
H692 C718 0.950 . S
H693 C720 0.950 . S
H694 C723 0.950 . S
H695 C724 0.950 . S
H696 C726 0.950 1_554 S
H697 C727 0.950 1_554 S
C698 H680 0.965 . S
C698 C699 1.328 1_556 S
C698 C700 1.413 . S
C699 C698 1.328 1_554 S
C699 C703 1.385 . S
C700 H681 0.951 . S
C700 C698 1.413 . S
C700 C701 1.366 . S
C701 C700 1.366 . S
C701 C702 1.414 1_556 S
C701 C704 1.499 . S
C702 H682 0.950 . S
C702 C701 1.414 1_554 S
C702 C703 1.374 . S
C703 H683 0.950 . S
C703 C699 1.385 . S
C703 C702 1.374 . S
C704 C701 1.499 . S
C704 C705 1.373 . S
C704 C706 1.389 . S
C705 H684 0.950 . S
C705 C704 1.373 . S
C705 C721 1.377 . S
C706 C704 1.389 . S
C706 C707 1.524 . S
C706 C720 1.377 . S
C707 C706 1.524 . S
C707 C708 1.397 . S
C707 C712 1.363 . S
C708 H685 0.950 . S
C708 C707 1.397 . S
C708 C709 1.334 . S
C709 H686 0.950 . S
C709 C708 1.334 . S
C709 C710 1.287 . S
C710 C709 1.287 . S
C710 C711 1.524 . S
C710 H729 0.913 . S
C711 H687 0.950 . S
C711 C710 1.524 . S
C711 C712 1.415 . S
C712 H688 0.950 . S
C712 C707 1.363 . S
C712 C711 1.415 . S
C713 H689 0.951 . S
C713 C714 1.366 . S
C713 C715 1.388 . S
C714 C713 1.366 . S
C714 C718 1.385 . S
C715 H690 0.951 . S
C715 C713 1.388 . S
C715 C716 1.366 . S
C716 C715 1.366 . S
C716 C717 1.414 . S
C716 C719 1.499 . S
C717 H691 0.950 . S
C717 C716 1.414 . S
C717 C718 1.374 . S
C718 H692 0.950 . S
C718 C714 1.385 . S
C718 C717 1.374 . S
C719 C716 1.499 . S
C719 C720 1.373 . S
C719 C721 1.389 . S
C720 H693 0.950 . S
C720 C706 1.377 . S
C720 C719 1.373 . S
C721 C705 1.377 . S
C721 C719 1.389 . S
C721 C722 1.524 . S
C722 C721 1.524 . S
C722 C723 1.397 . S
C722 C727 1.363 . S
C723 H694 0.950 . S
C723 C722 1.397 . S
C723 C724 1.334 . S
C724 H695 0.950 . S
C724 C723 1.334 . S
C724 C725 1.287 . S
C725 C724 1.287 . S
C725 C726 1.524 . S
C725 H728 0.999 . S
C726 H696 0.950 1_556 S
C726 C725 1.524 . S
C726 C727 1.415 . S
C727 H697 0.950 1_556 S
C727 C722 1.363 . S
C727 C726 1.415 . S
H728 C725 0.999 . S
H729 C710 0.913 . S
H730 C748 0.951 . S
H731 C750 0.951 . S
H732 C752 0.950 . S
H733 C753 0.966 . S
H734 C755 0.950 . S
H735 C758 0.950 . S
H736 C759 0.950 . S
H737 C761 0.950 . S
H738 C762 0.950 . S
H739 C763 0.951 . S
H740 C765 0.951 . S
H741 C767 0.950 . S
H742 C768 0.950 . S
H743 C770 0.950 . S
H744 C773 0.950 . S
H745 C774 0.950 . S
H746 C776 0.950 . S
H747 C777 0.950 . S
C748 H730 0.951 . S
C748 C749 1.366 . S
C748 C750 1.388 . S
C749 C748 1.366 . S
C749 C753 1.357 1_455 S
C750 H731 0.951 . S
C750 C748 1.388 . S
C750 C751 1.366 . S
C751 C750 1.366 . S
C751 C752 1.414 1_455 S
C751 C754 1.499 . S
C752 H732 0.950 . S
C752 C751 1.414 1_655 S
C752 C753 1.386 . S
C753 H733 0.966 . S
C753 C749 1.357 1_655 S
C753 C752 1.386 . S
C754 C751 1.499 . S
C754 C755 1.373 1_455 S
C754 C756 1.389 . S
C755 H734 0.950 . S
C755 C754 1.373 1_655 S
C755 C771 1.377 . S
C756 C754 1.389 . S
C756 C757 1.524 . S
C756 C770 1.377 . S
C757 C756 1.524 . S
C757 C758 1.397 . S
C757 C762 1.363 . S
C758 H735 0.950 . S
C758 C757 1.397 . S
C758 C759 1.334 . S
C759 H736 0.950 . S
C759 C758 1.334 . S
C759 C760 1.287 . S
C760 C759 1.287 . S
C760 C761 1.524 . S
C760 H779 0.913 . S
C761 H737 0.950 . S
C761 C760 1.524 . S
C761 C762 1.415 . S
C762 H738 0.950 . S
C762 C757 1.363 . S
C762 C761 1.415 . S
C763 H739 0.951 . S
C763 C764 1.366 1_655 S
C763 C765 1.388 . S
C764 C763 1.366 1_455 S
C764 C768 1.385 . S
C765 H740 0.951 . S
C765 C763 1.388 . S
C765 C766 1.366 1_655 S
C766 C765 1.366 1_455 S
C766 C767 1.414 . S
C766 C769 1.499 . S
C767 H741 0.950 . S
C767 C766 1.414 . S
C767 C768 1.374 . S
C768 H742 0.950 . S
C768 C764 1.385 . S
C768 C767 1.374 . S
C769 C766 1.499 . S
C769 C770 1.373 . S
C769 C771 1.389 1_455 S
C770 H743 0.950 . S
C770 C756 1.377 . S
C770 C769 1.373 . S
C771 C755 1.377 . S
C771 C769 1.389 1_655 S
C771 C772 1.524 . S
C772 C771 1.524 . S
C772 C773 1.397 . S
C772 C777 1.363 . S
C773 H744 0.950 . S
C773 C772 1.397 . S
C773 C774 1.334 . S
C774 H745 0.950 . S
C774 C773 1.334 . S
C774 C775 1.287 . S
C775 C774 1.287 . S
C775 C776 1.524 . S
C775 H778 0.999 . S
C776 H746 0.950 . S
C776 C775 1.524 . S
C776 C777 1.415 . S
C777 H747 0.950 . S
C777 C772 1.363 . S
C777 C776 1.415 . S
H778 C775 0.999 . S
H779 C760 0.913 . S
C214 C50 1.345 . S
C199 C11 1.326 . S
C249 C26 1.505 . S
C264 C89 1.514 . S
C299 C40 1.376 . S
C314 C156 1.385 . S
C349 C5 1.187 . S
C364 C57 1.341 . S
C414 C110 1.509 . S
C399 C18 1.493 . S
C449 C32 1.358 . S
C464 C135 1.375 . S
C514 C96 1.218 . S
C499 C39 1.204 . S
C549 C4 1.367 1_565 S
C564 C149 1.383 . S
C614 C64 1.349 . S
C599 C19 1.197 . S
C664 C103 1.251 . S
C649 C33 1.109 1_545 S
C714 C142 1.392 . S
C699 C12 1.385 . S
C749 C25 1.333 . S
C764 C43 1.352 . S
