# Generated by pormake.
# Topology zzz, (3,6)-cn, num edge types: 1
# Building blocks:
#     Node 0, Type 0, BuildingBlock: ESEHIV_clean_linker_0, # of connection points: 3
#     Node 1, Type 0, BuildingBlock: ESEHIV_clean_linker_0, # of connection points: 3
#     Node 2, Type 0, BuildingBlock: ESEHIV_clean_linker_0, # of connection points: 3
#     Node 3, Type 0, BuildingBlock: ESEHIV_clean_linker_0, # of connection points: 3
#     Node 4, Type 0, BuildingBlock: ESEHIV_clean_linker_0, # of connection points: 3
#     Node 5, Type 0, BuildingBlock: ESEHIV_clean_linker_0, # of connection points: 3
#     Node 6, Type 0, BuildingBlock: ESEHIV_clean_linker_0, # of connection points: 3
#     Node 7, Type 0, BuildingBlock: ESEHIV_clean_linker_0, # of connection points: 3
#     Node 8, Type 1, BuildingBlock: KUMJIN_clean_sbu_0, # of connection points: 6
#     Node 9, Type 1, BuildingBlock: KUMJIN_clean_sbu_0, # of connection points: 6
#     Node 10, Type 1, BuildingBlock: KUMJIN_clean_sbu_0, # of connection points: 6
#     Node 11, Type 1, BuildingBlock: KUMJIN_clean_sbu_0, # of connection points: 6
#     Edge 12, Type (0, 1), BuildingBlock: UVAHIK_clean_linker_0, # of connection points: 2
#     Edge 13, Type (0, 1), BuildingBlock: UVAHIK_clean_linker_0, # of connection points: 2
#     Edge 14, Type (0, 1), BuildingBlock: UVAHIK_clean_linker_0, # of connection points: 2
#     Edge 15, Type (0, 1), BuildingBlock: UVAHIK_clean_linker_0, # of connection points: 2
#     Edge 16, Type (0, 1), BuildingBlock: UVAHIK_clean_linker_0, # of connection points: 2
#     Edge 17, Type (0, 1), BuildingBlock: UVAHIK_clean_linker_0, # of connection points: 2
#     Edge 18, Type (0, 1), BuildingBlock: UVAHIK_clean_linker_0, # of connection points: 2
#     Edge 19, Type (0, 1), BuildingBlock: UVAHIK_clean_linker_0, # of connection points: 2
#     Edge 20, Type (0, 1), BuildingBlock: UVAHIK_clean_linker_0, # of connection points: 2
#     Edge 21, Type (0, 1), BuildingBlock: UVAHIK_clean_linker_0, # of connection points: 2
#     Edge 22, Type (0, 1), BuildingBlock: UVAHIK_clean_linker_0, # of connection points: 2
#     Edge 23, Type (0, 1), BuildingBlock: UVAHIK_clean_linker_0, # of connection points: 2
#     Edge 24, Type (0, 1), BuildingBlock: UVAHIK_clean_linker_0, # of connection points: 2
#     Edge 25, Type (0, 1), BuildingBlock: UVAHIK_clean_linker_0, # of connection points: 2
#     Edge 26, Type (0, 1), BuildingBlock: UVAHIK_clean_linker_0, # of connection points: 2
#     Edge 27, Type (0, 1), BuildingBlock: UVAHIK_clean_linker_0, # of connection points: 2
#     Edge 28, Type (0, 1), BuildingBlock: UVAHIK_clean_linker_0, # of connection points: 2
#     Edge 29, Type (0, 1), BuildingBlock: UVAHIK_clean_linker_0, # of connection points: 2
#     Edge 30, Type (0, 1), BuildingBlock: UVAHIK_clean_linker_0, # of connection points: 2
#     Edge 31, Type (0, 1), BuildingBlock: UVAHIK_clean_linker_0, # of connection points: 2
#     Edge 32, Type (0, 1), BuildingBlock: UVAHIK_clean_linker_0, # of connection points: 2
#     Edge 33, Type (0, 1), BuildingBlock: UVAHIK_clean_linker_0, # of connection points: 2
#     Edge 34, Type (0, 1), BuildingBlock: UVAHIK_clean_linker_0, # of connection points: 2
#     Edge 35, Type (0, 1), BuildingBlock: UVAHIK_clean_linker_0, # of connection points: 2
# Relax obj value: 0.297
# Max RMSD: 0.224
# Mean RMSD: 0.211
data_MOF--net-zzz--node1-KUMJIN_clean_sbu_0--node2-ESEHIV_clean_linker_0--edge1-UVAHIK_clean_linker_0
_symmetry_space_group_name_H-M    P1
_symmetry_Int_Tables_number       1
_symmetry_cell_setting            triclinic
loop_
_symmetry_equiv_pos_as_xyz
'x, y, z'
_cell_length_a     58.054048
_cell_length_b     57.870751
_cell_length_c     20.222543
_cell_angle_alpha  90.706317
_cell_angle_beta   89.956634
_cell_angle_gamma 89.971953
loop_
_atom_site_label
_atom_site_type_symbol
_atom_site_fract_x
_atom_site_fract_y
_atom_site_fract_z
_atom_type_partial_charge
H0 H 0.7889 0.57205 0.1756 0.0
H1 H 0.73305 0.57512 0.03681 0.0
H2 H 0.72857 0.5306 0.20574 0.0
C3 C 0.77143 0.56762 0.16136 0.0
C4 C 0.75947 0.55153 0.19951 0.0
C5 C 0.7624 0.57587 0.10181 0.0
C6 C 0.74026 0.56885 0.08268 0.0
C7 C 0.72783 0.55262 0.11958 0.0
C8 C 0.73755 0.54379 0.17828 0.0
H9 H 0.94049 0.80332 0.16368 0.0
H10 H 0.94017 0.74813 0.02086 0.0
H11 H 0.99183 0.74967 0.17452 0.0
C12 C 0.94729 0.78687 0.14629 0.0
C13 C 0.96654 0.77744 0.17817 0.0
C14 C 0.938 0.7767 0.0891 0.0
C15 C 0.94753 0.75605 0.06489 0.0
C16 C 0.96696 0.74599 0.09456 0.0
C17 C 0.97658 0.75685 0.15176 0.0
H18 H 0.71618 0.94434 0.15799 0.0
H19 H 0.78065 0.93082 0.05921 0.0
H20 H 0.77814 0.97672 0.22779 0.0
C21 C 0.73466 0.94623 0.15391 0.0
C22 C 0.74582 0.96015 0.20133 0.0
C23 C 0.74673 0.93594 0.10077 0.0
C24 C 0.77069 0.93923 0.09777 0.0
C25 C 0.78213 0.95445 0.14126 0.0
C26 C 0.76955 0.96509 0.19345 0.0
H27 H 0.58011 0.72857 0.2132 0.0
H28 H 0.53988 0.79012 0.24666 0.0
H29 H 0.57787 0.78079 0.06493 0.0
C30 C 0.57501 0.74576 0.19814 0.0
C31 C 0.58118 0.7534 0.13515 0.0
C32 C 0.56007 0.75865 0.23878 0.0
C33 C 0.55196 0.78027 0.2167 0.0
C34 C 0.55891 0.78861 0.15433 0.0
C35 C 0.57338 0.77497 0.11408 0.0
H36 H 0.21794 0.45711 0.06718 0.0
H37 H 0.26563 0.44548 0.22426 0.0
H38 H 0.2833 0.49163 0.0647 0.0
C39 C 0.2349 0.45975 0.08857 0.0
C40 C 0.24985 0.47555 0.05951 0.0
C41 C 0.24056 0.44883 0.1475 0.0
C42 C 0.26196 0.45327 0.177 0.0
C43 C 0.27817 0.46815 0.14707 0.0
C44 C 0.27168 0.47961 0.0881 0.0
H45 H 0.07126 0.22478 0.08768 0.0
H46 H 0.07438 0.2863 0.20741 0.0
H47 H 0.02938 0.28363 0.03768 0.0
C48 C 0.0662 0.24261 0.09648 0.0
C49 C 0.04997 0.25279 0.05445 0.0
C50 C 0.07467 0.25439 0.15221 0.0
C51 C 0.06769 0.27718 0.16434 0.0
C52 C 0.05154 0.28812 0.12367 0.0
C53 C 0.04216 0.27562 0.06896 0.0
H54 H 0.30044 0.07814 0.07322 0.0
H55 H 0.24069 0.07919 0.19876 0.0
H56 H 0.24378 0.03234 0.03171 0.0
C57 C 0.28306 0.07246 0.08398 0.0
C58 C 0.27319 0.05519 0.04373 0.0
C59 C 0.27178 0.08094 0.14071 0.0
C60 C 0.24966 0.0727 0.15528 0.0
C61 C 0.23937 0.05526 0.11663 0.0
C62 C 0.25131 0.04621 0.06092 0.0
H63 H 0.43233 0.29312 0.03303 0.0
H64 H 0.47119 0.22999 0.02526 0.0
H65 H 0.42427 0.24382 0.18738 0.0
C66 C 0.436 0.27624 0.05329 0.0
C67 C 0.42643 0.27011 0.11407 0.0
C68 C 0.45189 0.26192 0.02061 0.0
C69 C 0.45829 0.24073 0.04925 0.0
C70 C 0.44837 0.23392 0.1101 0.0
C71 C 0.43216 0.24869 0.14103 0.0
Eu72 Eu 0.03587 1.00332 0.70347 0.0
C73 C 0.94682 0.9829 0.53165 0.0
C74 C 0.9593 0.95933 0.43872 0.0
C75 C 0.92023 0.95562 0.48018 0.0
C76 C 0.96393 0.97618 0.48811 0.0
C77 C 0.92459 0.97312 0.52722 0.0
C78 C 0.93757 0.94872 0.43603 0.0
C79 C 0.91208 1.0 0.61219 0.0
N80 N 0.95153 0.99988 0.57622 0.0
C81 C 0.93435 0.00915 0.6146 0.0
C82 C 0.90725 0.98166 0.56896 0.0
Eu83 Eu 0.98988 0.01393 0.5812 0.0
N84 N 0.98478 0.98678 0.49218 0.0
C85 C 1.00112 0.9824 0.44472 0.0
C86 C 0.97646 0.95398 0.39255 0.0
C87 C 0.99732 0.96582 0.39504 0.0
H88 H 0.93807 0.02317 0.64874 0.0
H89 H 0.01059 0.96213 0.35878 0.0
H90 H 0.93383 0.93557 0.39899 0.0
H91 H 0.89871 0.00702 0.64389 0.0
H92 H 0.01743 0.99114 0.44463 0.0
H93 H 0.01286 0.06235 0.90744 0.0
H94 H 0.97362 0.94109 0.35409 0.0
H95 H 0.0893 0.98931 0.65746 0.0
H96 H 0.00754 0.02981 0.83017 0.0
H97 H 0.12852 0.00615 0.65891 0.0
H98 H 0.90335 0.94773 0.47649 0.0
H99 H 0.0487 0.08536 0.9046 0.0
H100 H 0.0885 0.09067 0.85837 0.0
H101 H 0.88998 0.9746 0.56706 0.0
H102 H 0.12014 0.07554 0.78923 0.0
N103 N 0.03983 0.03427 0.78177 0.0
C104 C 0.02337 0.03941 0.82814 0.0
C105 C 0.0465 0.07096 0.87045 0.0
C106 C 0.06398 0.06463 0.82619 0.0
C107 C 0.0263 0.05797 0.87234 0.0
C108 C 0.06018 0.04576 0.78261 0.0
H109 H 0.13542 0.04367 0.71562 0.0
N110 N 0.07407 0.01783 0.708 0.0
C111 C 0.11438 0.01529 0.68236 0.0
C112 C 0.07786 0.03735 0.74389 0.0
C113 C 0.0922 0.00586 0.6814 0.0
C114 C 0.11818 0.03649 0.71421 0.0
C115 C 0.09996 0.04744 0.74737 0.0
O116 O 0.05532 0.97261 0.73152 0.0
O117 O 0.01181 0.98765 0.62921 0.0
O118 O 0.97439 0.99224 0.66341 0.0
O119 O 0.99973 1.0006 0.7495 0.0
O120 O 0.04453 0.97373 0.63179 0.0
O121 O 0.03229 0.98893 0.80198 0.0
O122 O 0.96726 0.04282 0.55799 0.0
O123 O 0.0139 0.0302 0.6557 0.0
O124 O 0.05384 0.0187 0.61421 0.0
O125 O 0.02556 0.01535 0.53203 0.0
O126 O 0.97965 0.03997 0.66057 0.0
O127 O 0.99749 0.03647 0.4981 0.0
C128 C 0.02463 0.97225 0.60379 0.0
C129 C 0.03609 0.94824 0.80559 0.0
C130 C 0.00444 0.92332 0.83814 0.0
C131 C 0.01261 0.94507 0.81995 0.0
C132 C 0.01974 0.90454 0.8407 0.0
C133 C 0.05117 0.92931 0.80801 0.0
C134 C 0.04297 0.90753 0.8252 0.0
C135 C 0.97945 0.99327 0.72727 0.0
C136 C 0.04526 0.97109 0.78877 0.0
C137 C 0.10339 0.06732 0.78669 0.0
C138 C 0.08539 0.07591 0.82613 0.0
C139 C 0.99989 0.04393 0.68402 0.0
C140 C 0.99 0.07521 0.53166 0.0
C141 C 0.01164 0.08263 0.50918 0.0
C142 C 0.02098 0.10376 0.53102 0.0
C143 C 0.00838 0.11764 0.5756 0.0
C144 C 0.9774 0.08968 0.57495 0.0
C145 C 0.98664 0.11067 0.59697 0.0
C146 C 0.04713 0.01909 0.55149 0.0
C147 C 0.98183 0.05151 0.51613 0.0
H148 H 1.00078 0.9595 0.81891 0.0
H149 H 0.01369 0.8876 0.85489 0.0
H150 H 0.06931 0.93141 0.79691 0.0
H151 H 0.05468 0.89299 0.82716 0.0
H152 H 0.02151 0.07178 0.47563 0.0
H153 H 0.01509 0.13412 0.59268 0.0
H154 H 0.96069 0.08449 0.59341 0.0
H155 H 0.97698 0.1215 0.63107 0.0
Eu156 Eu 0.51102 0.03008 0.67182 0.0
C157 C 0.53818 0.94066 0.51135 0.0
C158 C 0.56413 0.95478 0.42756 0.0
C159 C 0.56864 0.91576 0.46843 0.0
C160 C 0.54548 0.95829 0.47148 0.0
C161 C 0.54915 0.91889 0.50871 0.0
C162 C 0.57612 0.93369 0.42782 0.0
C163 C 0.51876 0.90406 0.57773 0.0
N164 N 0.51905 0.94415 0.54838 0.0
C165 C 0.50843 0.9259 0.57787 0.0
C166 C 0.53951 0.90065 0.5441 0.0
Eu167 Eu 0.5029 0.98187 0.55161 0.0
N168 N 0.53339 0.97837 0.47246 0.0
C169 C 0.53796 0.99488 0.42637 0.0
C170 C 0.56969 0.97226 0.38327 0.0
C171 C 0.55628 0.99222 0.38192 0.0
H172 H 0.49218 0.92843 0.60307 0.0
H173 H 0.56013 0.00569 0.34694 0.0
H174 H 0.59068 0.93082 0.39519 0.0
H175 H 0.51064 0.88988 0.60317 0.0
H176 H 0.5281 0.01056 0.42434 0.0
H177 H 0.45817 0.00832 0.8882 0.0
H178 H 0.58391 0.97028 0.34892 0.0
H179 H 0.51749 0.08155 0.60091 0.0
H180 H 0.48814 1.00216 0.80543 0.0
H181 H 0.4992 0.12016 0.60241 0.0
H182 H 0.57749 0.89928 0.46641 0.0
H183 H 0.43541 0.04439 0.8895 0.0
H184 H 0.42826 0.08355 0.84251 0.0
H185 H 0.5474 0.88368 0.5434 0.0
H186 H 0.43925 0.11392 0.7646 0.0
N187 N 0.48271 0.03435 0.75687 0.0
C188 C 0.47869 0.01812 0.80422 0.0
C189 C 0.44873 0.04186 0.85254 0.0
C190 C 0.45359 0.05893 0.80629 0.0
C191 C 0.46155 0.02151 0.85198 0.0
C192 C 0.47103 0.05472 0.75884 0.0
H193 H 0.46588 0.12786 0.67579 0.0
N194 N 0.49449 0.06754 0.67185 0.0
C195 C 0.49272 0.1067 0.6341 0.0
C196 C 0.47706 0.07178 0.71486 0.0
C197 C 0.50306 0.08488 0.63354 0.0
C198 C 0.47388 0.11094 0.6754 0.0
C199 C 0.46605 0.09353 0.71725 0.0
O200 O 0.5375 0.0555 0.69524 0.0
O201 O 0.52836 0.00529 0.60124 0.0
O202 O 0.51885 0.966 0.64328 0.0
O203 O 0.51496 0.99536 0.72355 0.0
O204 O 0.53803 0.03958 0.59538 0.0
O205 O 0.53249 0.0263 0.75972 0.0
O206 O 0.47473 0.95897 0.52232 0.0
O207 O 0.48623 0.00614 0.62361 0.0
O208 O 0.48896 0.04308 0.58759 0.0
O209 O 0.4995 0.01747 0.50335 0.0
O210 O 0.47393 0.97274 0.62318 0.0
O211 O 0.48515 0.9865 0.45756 0.0
C212 C 0.54223 0.019 0.57371 0.0
C213 C 0.57081 0.03789 0.73498 0.0
C214 C 0.60201 0.01001 0.72025 0.0
C215 C 0.57879 0.01493 0.73387 0.0
C216 C 0.61712 0.02831 0.70621 0.0
C217 C 0.58626 0.05591 0.72187 0.0
C218 C 0.60925 0.05109 0.70713 0.0
C219 C 0.51943 0.97369 0.70541 0.0
C220 C 0.54613 0.04318 0.74256 0.0
C221 C 0.44807 0.09742 0.7625 0.0
C222 C 0.44185 0.08015 0.80691 0.0
C223 C 0.47144 0.99301 0.64925 0.0
C224 C 0.44535 0.9777 0.46461 0.0
C225 C 0.43874 1.00106 0.46792 0.0
C226 C 0.4154 0.00733 0.46421 0.0
C227 C 0.39869 0.98978 0.45856 0.0
C228 C 0.42844 0.96053 0.45885 0.0
C229 C 0.40521 0.96657 0.45616 0.0
C230 C 0.49078 0.03748 0.52418 0.0
C231 C 0.46966 0.97085 0.47022 0.0
H232 H 0.56698 1.00082 0.74282 0.0
H233 H 0.6352 0.02511 0.69656 0.0
H234 H 0.58041 0.07369 0.72166 0.0
H235 H 0.62104 0.06507 0.69674 0.0
H236 H 0.45168 0.01436 0.47343 0.0
H237 H 0.38058 0.99396 0.45413 0.0
H238 H 0.43321 0.94243 0.45685 0.0
H239 H 0.39222 0.95324 0.4515 0.0
Eu240 Eu 0.53062 0.49912 0.57567 0.0
C241 C 0.43024 0.50518 0.62435 0.0
C242 C 0.41779 0.53465 0.54843 0.0
C243 C 0.39323 0.50157 0.56811 0.0
C244 C 0.43449 0.5256 0.59209 0.0
C245 C 0.40923 0.49327 0.61402 0.0
C246 C 0.39748 0.52228 0.53552 0.0
C247 C 0.41969 0.46766 0.7019 0.0
N248 N 0.44588 0.49771 0.66904 0.0
C249 C 0.43998 0.48026 0.71101 0.0
C250 C 0.40447 0.47385 0.65201 0.0
Eu251 Eu 0.48148 0.5185 0.67776 0.0
N252 N 0.45435 0.53719 0.60559 0.0
C253 C 0.45691 0.55926 0.58266 0.0
C254 C 0.42168 0.55617 0.52015 0.0
C255 C 0.44111 0.56871 0.53846 0.0
H256 H 0.45069 0.47616 0.75276 0.0
H257 H 0.44372 0.58595 0.51969 0.0
H258 H 0.38469 0.52885 0.50158 0.0
H259 H 0.41561 0.45348 0.73427 0.0
H260 H 0.47046 0.57043 0.59935 0.0
H261 H 0.57215 0.43982 0.75126 0.0
H262 H 0.40936 0.56362 0.48629 0.0
H263 H 0.55787 0.54107 0.48805 0.0
H264 H 0.54308 0.45204 0.67374 0.0
H265 H 0.59248 0.56512 0.49575 0.0
H266 H 0.37721 0.49248 0.55896 0.0
H267 H 0.60692 0.46347 0.77003 0.0
H268 H 0.63025 0.49799 0.7409 0.0
H269 H 0.3886 0.46425 0.64548 0.0
H270 H 0.63547 0.5325 0.67311 0.0
N271 N 0.55926 0.48418 0.64987 0.0
C272 C 0.5573 0.46347 0.68171 0.0
C273 C 0.59384 0.46932 0.73589 0.0
C274 C 0.59667 0.48965 0.70045 0.0
C275 C 0.57422 0.45601 0.72566 0.0
C276 C 0.57902 0.49661 0.65668 0.0
H277 H 0.62153 0.55765 0.58208 0.0
N278 N 0.56524 0.52171 0.57495 0.0
C279 C 0.58958 0.55169 0.5316 0.0
C280 C 0.58194 0.51608 0.61879 0.0
C281 C 0.56964 0.53824 0.5285 0.0
C282 C 0.60594 0.54737 0.58017 0.0
C283 C 0.6026 0.52898 0.62321 0.0
O284 O 0.54986 0.4948 0.48356 0.0
O285 O 0.49199 0.50123 0.5829 0.0
O286 O 0.48606 0.48019 0.69623 0.0
O287 O 0.51283 0.46728 0.61796 0.0
O288 O 0.50684 0.51125 0.49426 0.0
O289 O 0.53258 0.46548 0.52576 0.0
O290 O 0.46143 0.52129 0.76881 0.0
O291 O 0.52015 0.51597 0.67157 0.0
O292 O 0.5245 0.5368 0.55315 0.0
O293 O 0.5008 0.55002 0.63846 0.0
O294 O 0.50457 0.50447 0.75785 0.0
O295 O 0.48102 0.55058 0.73608 0.0
C296 C 0.48764 0.50796 0.52492 0.0
C297 C 0.53211 0.46912 0.40887 0.0
C298 C 0.49948 0.45624 0.34154 0.0
C299 C 0.50971 0.45997 0.4038 0.0
C300 C 0.51174 0.46243 0.28436 0.0
C301 C 0.54406 0.47497 0.35114 0.0
C302 C 0.53383 0.47178 0.28931 0.0
C303 C 0.49789 0.46357 0.66631 0.0
C304 C 0.54281 0.47375 0.47378 0.0
C305 C 0.61967 0.52264 0.66858 0.0
C306 C 0.61673 0.50297 0.70699 0.0
C307 C 0.52401 0.5084 0.72907 0.0
C308 C 0.48165 0.54228 0.85088 0.0
C309 C 0.50053 0.55708 0.86188 0.0
C310 C 0.51311 0.55627 0.92133 0.0
C311 C 0.50638 0.5405 0.97009 0.0
C312 C 0.47496 0.52711 0.90114 0.0
C313 C 0.48732 0.52621 0.96016 0.0
C314 C 0.51421 0.55357 0.58649 0.0
C315 C 0.47021 0.54118 0.78545 0.0
H316 H 0.50021 0.45576 0.44819 0.0
H317 H 0.50457 0.45939 0.2356 0.0
H318 H 0.56125 0.48219 0.35396 0.0
H319 H 0.54317 0.47632 0.24498 0.0
H320 H 0.50541 0.56925 0.8241 0.0
H321 H 0.5159 0.53911 0.0159 0.0
H322 H 0.46047 0.51555 0.89427 0.0
H323 H 0.48225 0.51421 0.99813 0.0
Eu324 Eu 0.0204 0.54015 0.55515 0.0
C325 C 0.99689 0.44117 0.61603 0.0
C326 C 0.95639 0.4315 0.62649 0.0
C327 C 0.98289 0.40351 0.57856 0.0
C328 C 0.9747 0.44737 0.63394 0.0
C329 C 1.00126 0.41882 0.58991 0.0
C330 C 0.96049 0.40982 0.5969 0.0
C331 C 0.04183 0.42725 0.59483 0.0
N332 N 0.01434 0.45636 0.62795 0.0
C333 C 0.03671 0.44915 0.62084 0.0
C334 C 0.02404 0.41218 0.57799 0.0
Eu335 Eu 1.00296 0.49403 0.66641 0.0
N336 N 0.97125 0.46829 0.663 0.0
C337 C 0.95045 0.47367 0.6911 0.0
C338 C 0.93465 0.43755 0.65118 0.0
C339 C 0.93178 0.45857 0.68473 0.0
H340 H 0.05103 0.46014 0.6328 0.0
H341 H 0.91519 0.46319 0.7055 0.0
H342 H 0.9466 0.39754 0.58994 0.0
H343 H 0.05957 0.42205 0.58743 0.0
H344 H 0.94813 0.49001 0.71673 0.0
H345 H 0.10771 0.57519 0.54549 0.0
H346 H 0.92018 0.42583 0.64644 0.0
H347 H 0.97016 0.57 0.57909 0.0
H348 H 0.07687 0.54641 0.52599 0.0
H349 H 0.95763 0.60765 0.62173 0.0
H350 H 0.98594 0.38645 0.55766 0.0
H351 H 0.0985 0.61259 0.59998 0.0
H352 H 0.06862 0.63954 0.64704 0.0
H353 H 0.02809 0.39524 0.55774 0.0
H354 H 0.02777 0.64828 0.66805 0.0
N355 N 0.05063 0.56732 0.56932 0.0
C356 C 0.0727 0.56286 0.54899 0.0
C357 C 0.08493 0.60008 0.59122 0.0
C358 C 0.06209 0.60502 0.60865 0.0
C359 C 0.09018 0.57904 0.56023 0.0
C360 C 0.04505 0.58815 0.5961 0.0
H361 H 0.98633 0.63668 0.65782 0.0
N362 N 0.00609 0.57684 0.59131 0.0
C363 C 0.97583 0.60377 0.61819 0.0
C364 C 0.02208 0.59308 0.60741 0.0
C365 C 0.98315 0.58227 0.59376 0.0
C366 C 0.99207 0.62008 0.63866 0.0
C367 C 0.01552 0.61504 0.63221 0.0
O368 O 0.99977 0.54842 0.46775 0.0
O369 O 0.01302 0.50212 0.56237 0.0
O370 O 0.04211 0.49718 0.66235 0.0
O371 O 0.04902 0.53503 0.63086 0.0
O372 O 0.04311 0.51122 0.51493 0.0
O373 O 0.03685 0.54732 0.46077 0.0
O374 O 0.02419 0.49882 0.75506 0.0
O375 O 0.00902 0.53202 0.6576 0.0
O376 O 0.98191 0.53357 0.54201 0.0
O377 O 0.97155 0.5009 0.60184 0.0
O378 O 0.97893 0.52252 0.70322 0.0
O379 O 0.99356 0.47837 0.76082 0.0
C380 C 0.02985 0.49417 0.52951 0.0
C381 C 0.01579 0.53221 0.36974 0.0
C382 C 0.03169 0.5006 0.30176 0.0
C383 C 0.03283 0.51548 0.35721 0.0
C384 C 0.01263 0.50234 0.25923 0.0
C385 C 0.99698 0.53369 0.32655 0.0
C386 C 0.9954 0.51876 0.2718 0.0
C387 C 0.05561 0.51562 0.65925 0.0
C388 C 0.01751 0.54776 0.42824 0.0
C389 C 0.03249 0.63145 0.64818 0.0
C390 C 0.05575 0.62647 0.63628 0.0
C391 C 0.99172 0.53988 0.68839 0.0
C392 C 1.00315 0.50176 0.85353 0.0
C393 C 0.98207 0.51352 0.85534 0.0
C394 C 0.97588 0.52776 0.9093 0.0
C395 C 0.99129 0.52966 0.96287 0.0
C396 C 0.01832 0.50401 0.907 0.0
C397 C 0.01232 0.51782 0.96158 0.0
C398 C 0.96687 0.51755 0.55951 0.0
C399 C 0.00992 0.48849 0.79402 0.0
H400 H 0.0471 0.51394 0.39107 0.0
H401 H 0.01122 0.49141 0.2156 0.0
H402 H 0.98353 0.54636 0.33522 0.0
H403 H 0.98085 0.52004 0.23861 0.0
H404 H 0.97061 0.51168 0.81387 0.0
H405 H 0.98705 0.53992 1.00627 0.0
H406 H 0.03481 0.49524 0.90632 0.0
H407 H 0.02404 0.51941 1.00299 0.0
C408 C 0.19618 0.05644 0.12315 0.0
C409 C 0.21706 0.04583 0.1405 0.0
C410 C 0.17587 0.05188 0.15867 0.0
C411 C 0.15061 0.01267 0.28745 0.0
H412 H 0.11077 0.06502 0.32505 0.0
C413 C 0.0874 0.0135 0.50787 0.0
C414 C 0.06508 0.02235 0.49928 0.0
C415 C 0.10428 0.0158 0.45892 0.0
C416 C 0.12154 0.05014 0.31446 0.0
H417 H 0.23306 0.02222 0.20843 0.0
H418 H 0.19799 0.01421 0.27032 0.0
H419 H 0.14284 0.06918 0.24782 0.0
H420 H 0.0429 0.04001 0.43019 0.0
H421 H 0.0726 0.0446 0.3448 0.0
H422 H 0.12973 0.99389 0.35578 0.0
C423 C 0.19685 0.02557 0.22835 0.0
C424 C 0.13997 0.05247 0.26981 0.0
C425 C 0.21706 0.03006 0.19267 0.0
C426 C 0.06002 0.03338 0.43929 0.0
C427 C 0.07706 0.03601 0.3903 0.0
C428 C 0.13236 0.01042 0.33242 0.0
C429 C 0.17599 0.03683 0.21307 0.0
C430 C 0.15505 0.03385 0.25626 0.0
C431 C 0.09943 0.02708 0.39935 0.0
C432 C 0.11775 0.0292 0.3474 0.0
H433 H 0.19583 0.06912 0.08423 0.0
H434 H 0.1602 0.06067 0.14448 0.0
H435 H 0.16134 0.99772 0.27752 0.0
H436 H 0.09176 1.00405 0.55153 0.0
H437 H 0.12126 0.00876 0.46799 0.0
C438 C 0.45817 0.19108 0.10964 0.0
C439 C 0.45516 0.21213 0.14433 0.0
C440 C 0.46184 0.17038 0.14402 0.0
C441 C 0.44802 0.14373 0.30139 0.0
H442 H 0.50059 0.10335 0.27574 0.0
C443 C 0.47179 0.07499 0.49391 0.0
C444 C 0.48374 0.05491 0.47434 0.0
C445 C 0.46713 0.09248 0.44867 0.0
C446 C 0.4855 0.11409 0.28287 0.0
H447 H 0.4557 0.22795 0.24234 0.0
H448 H 0.46114 0.19205 0.3014 0.0
H449 H 0.49541 0.13665 0.20399 0.0
H450 H 0.49833 0.03674 0.38973 0.0
H451 H 0.48935 0.0667 0.3103 0.0
H452 H 0.43769 0.12135 0.37914 0.0
C453 C 0.46033 0.19147 0.24787 0.0
C454 C 0.48264 0.13326 0.24173 0.0
C455 C 0.4571 0.21205 0.2138 0.0
C456 C 0.48957 0.05216 0.40716 0.0
C457 C 0.48457 0.06952 0.3615 0.0
C458 C 0.45062 0.12442 0.34169 0.0
C459 C 0.46229 0.17036 0.21362 0.0
C460 C 0.46416 0.14856 0.25162 0.0
C461 C 0.47368 0.0902 0.38177 0.0
C462 C 0.46972 0.10956 0.33427 0.0
H463 H 0.45682 0.19045 0.05625 0.0
H464 H 0.46344 0.15431 0.11639 0.0
H465 H 0.43342 0.15509 0.30955 0.0
H466 H 0.46621 0.07739 0.54457 0.0
H467 H 0.45883 0.10805 0.46692 0.0
C468 C 0.31262 0.49341 0.17735 0.0
C469 C 0.3012 0.47196 0.17964 0.0
C470 C 0.33336 0.49705 0.21183 0.0
C471 C 0.37982 0.46525 0.30614 0.0
H472 H 0.39377 0.52679 0.37204 0.0
C473 C 0.45309 0.48363 0.49651 0.0
C474 C 0.46614 0.50376 0.48738 0.0
C475 C 0.43343 0.47935 0.45786 0.0
C476 C 0.39024 0.5095 0.35366 0.0
H477 H 0.3039 0.43717 0.21814 0.0
H478 H 0.33843 0.44394 0.28129 0.0
H479 H 0.3591 0.52038 0.30713 0.0
H480 H 0.46999 0.53429 0.42781 0.0
H481 H 0.43558 0.5271 0.36096 0.0
H482 H 0.41017 0.45428 0.35707 0.0
C483 C 0.33194 0.45796 0.25176 0.0
C484 C 0.37032 0.50579 0.31572 0.0
C485 C 0.31159 0.45418 0.21621 0.0
C486 C 0.4598 0.51898 0.43706 0.0
C487 C 0.44006 0.51486 0.39892 0.0
C488 C 0.39934 0.46889 0.34568 0.0
C489 C 0.34321 0.4795 0.25068 0.0
C490 C 0.36478 0.4836 0.29075 0.0
C491 C 0.42643 0.4951 0.40915 0.0
C492 C 0.40506 0.4911 0.36917 0.0
H493 H 0.30532 0.50766 0.15024 0.0
H494 H 0.34157 0.51376 0.20793 0.0
H495 H 0.37678 0.44795 0.28731 0.0
H496 H 0.45807 0.47123 0.53359 0.0
H497 H 0.42343 0.46394 0.4672 0.0
C498 C 0.02329 0.31735 0.17065 0.0
C499 C 0.045 0.31233 0.14291 0.0
C500 C 0.0197 0.33794 0.20748 0.0
C501 C 0.05329 0.37872 0.31131 0.0
H502 H 0.99938 0.41813 0.30892 0.0
C503 C 0.05093 0.46414 0.46313 0.0
C504 C 0.02998 0.47252 0.48857 0.0
C505 C 0.05162 0.44457 0.42163 0.0
C506 C 0.01441 0.40712 0.31137 0.0
H507 H 0.07948 0.32561 0.12927 0.0
H508 H 0.07323 0.36136 0.19205 0.0
H509 H 1.002 0.38511 0.23244 0.0
H510 H 0.99308 0.46738 0.48782 0.0
H511 H 0.99413 0.43296 0.41604 0.0
H512 H 0.06557 0.39992 0.39096 0.0
C513 C 0.05899 0.34941 0.18624 0.0
C514 C 0.01596 0.38821 0.26693 0.0
C515 C 0.06249 0.32905 0.14932 0.0
C516 C 0.00956 0.46108 0.47012 0.0
C517 C 0.0102 0.44147 0.42812 0.0
C518 C 0.05162 0.39732 0.35623 0.0
C519 C 0.03783 0.35382 0.21802 0.0
C520 C 0.03557 0.37388 0.26572 0.0
C521 C 0.03128 0.43284 0.40295 0.0
C522 C 0.03229 0.4121 0.35676 0.0
H523 H 0.00963 0.30464 0.16798 0.0
H524 H 1.00318 0.3407 0.2312 0.0
H525 H 0.06846 0.36785 0.31303 0.0
H526 H 0.06694 0.47282 0.47528 0.0
H527 H 0.06821 0.43909 0.40285 0.0
C528 C 0.8127 0.98208 0.10329 0.0
C529 C 0.80666 0.95996 0.12543 0.0
C530 C 0.83339 0.98558 0.06847 0.0
C531 C 0.87445 0.95241 0.96249 0.0
H532 H 0.91035 0.00881 0.96782 0.0
C533 C 0.96377 0.99351 0.84381 0.0
C534 C 0.96118 0.98737 0.77661 0.0
C535 C 0.94612 0.98943 0.88964 0.0
C536 C 0.90065 0.99284 0.96591 0.0
H537 H 0.81833 0.92456 0.13216 0.0
H538 H 0.85456 0.9307 0.07355 0.0
H539 H 0.87862 1.00377 0.04569 0.0
H540 H 0.93819 0.97072 0.70636 0.0
H541 H 0.9073 0.96392 0.78589 0.0
H542 H 0.89635 0.94156 0.88245 0.0
C543 C 0.84318 0.94531 0.08152 0.0
C544 C 0.88226 0.99004 0.01033 0.0
C545 C 0.82256 0.94184 0.11618 0.0
C546 C 0.94067 0.97622 0.7572 0.0
C547 C 0.92301 0.97208 0.80314 0.0
C548 C 0.8927 0.9553 0.91772 0.0
C549 C 0.84852 0.96702 0.05482 0.0
C550 C 0.86882 0.9698 0.0093 0.0
C551 C 0.92533 0.97892 0.86994 0.0
C552 C 0.90607 0.97558 0.9186 0.0
H553 H 0.80062 0.99627 0.10832 0.0
H554 H 0.83678 1.00254 0.04864 0.0
H555 H 0.8644 0.93668 0.95928 0.0
H556 H 0.97935 1.00181 0.86121 0.0
H557 H 0.94881 0.99453 0.94075 0.0
C558 C 0.55798 0.832 0.14839 0.0
C559 C 0.54984 0.81039 0.12633 0.0
C560 C 0.55316 0.85207 0.11234 0.0
C561 C 0.51556 0.87492 0.97793 0.0
H562 H 0.56683 0.91588 0.94223 0.0
C563 C 0.51579 0.93393 0.75219 0.0
C564 C 0.52377 0.95672 0.75879 0.0
C565 C 0.51855 0.91808 0.8031 0.0
C566 C 0.55224 0.90481 0.9524 0.0
H567 H 0.52991 0.7928 0.05081 0.0
H568 H 0.52125 0.82751 0.98859 0.0
H569 H 0.57126 0.88495 0.02276 0.0
H570 H 0.54088 0.9808 0.82538 0.0
H571 H 0.54601 0.9529 0.91475 0.0
H572 H 0.49672 0.89431 0.90656 0.0
C573 C 0.53111 0.82927 0.03379 0.0
C574 C 0.55475 0.88709 0.99875 0.0
C575 C 0.53605 0.80932 0.06942 0.0
C576 C 0.5347 0.96329 0.81827 0.0
C577 C 0.53769 0.9473 0.86941 0.0
C578 C 0.51309 0.89252 0.93165 0.0
C579 C 0.54001 0.85088 0.05377 0.0
C580 C 0.53659 0.87155 0.01102 0.0
C581 C 0.52937 0.92452 0.86267 0.0
C582 C 0.53154 0.90738 0.91706 0.0
H583 H 0.56898 0.8332 0.19153 0.0
H584 H 0.56013 0.86841 0.12954 0.0
H585 H 0.50103 0.86367 0.98702 0.0
H586 H 0.50659 0.92842 0.70866 0.0
H587 H 0.51211 0.90067 0.79572 0.0
C588 C 0.7066 0.53261 0.02843 0.0
C589 C 0.70599 0.54366 0.09065 0.0
C590 C 0.68632 0.52827 0.99315 0.0
C591 C 0.62236 0.52569 1.00512 0.0
H592 H 0.62616 0.53702 0.81682 0.0
C593 C 0.54945 0.49885 0.82418 0.0
C594 C 0.54493 0.51278 0.76934 0.0
C595 C 0.56835 0.50335 0.86536 0.0
C596 C 0.62465 0.53391 0.86929 0.0
H597 H 0.68358 0.55824 0.1657 0.0
H598 H 0.64784 0.55062 0.10409 0.0
H599 H 0.66 0.5426 0.88583 0.0
H600 H 0.55558 0.54347 0.71754 0.0
H601 H 0.58885 0.5513 0.78881 0.0
H602 H 0.58682 0.51738 0.98852 0.0
C603 C 0.66407 0.54508 0.08276 0.0
C604 C 0.64422 0.53684 0.90897 0.0
C605 C 0.6845 0.54936 0.11831 0.0
C606 C 0.5592 0.53191 0.75796 0.0
C607 C 0.57822 0.53639 0.79903 0.0
C608 C 0.60275 0.52268 0.9653 0.0
C609 C 0.66478 0.53506 0.01878 0.0
C610 C 0.64348 0.53252 0.97736 0.0
C611 C 0.5831 0.52215 0.85337 0.0
C612 C 0.60366 0.5265 0.89661 0.0
H613 H 0.72297 0.52813 1.00585 0.0
H614 H 0.6876 0.52002 0.94493 0.0
H615 H 0.62106 0.5222 0.05748 0.0
H616 H 0.53844 0.48425 0.83485 0.0
H617 H 0.5716 0.4918 0.906 0.0
C618 C 0.97876 0.70357 0.09228 0.0
C619 C 0.97703 0.72504 0.06065 0.0
C620 C 0.98294 0.6831 0.05522 0.0
C621 C 0.97273 0.65969 0.88687 0.0
H622 H 0.0144 0.60997 0.93184 0.0
C623 C 0.97029 0.57006 0.75401 0.0
C624 C 0.9914 0.56124 0.73069 0.0
C625 C 0.96953 0.58954 0.79603 0.0
C626 C 1.00271 0.62374 0.91855 0.0
H627 H 0.97994 0.74187 0.96592 0.0
H628 H 0.9871 0.70661 0.90211 0.0
H629 H 0.0122 0.64469 1.0031 0.0
H630 H 0.02842 0.56522 0.73686 0.0
H631 H 0.02716 0.59917 0.81107 0.0
H632 H 0.96298 0.63879 0.80305 0.0
C633 C 0.98494 0.70536 0.95515 0.0
C634 C 1.00134 0.64357 0.95968 0.0
C635 C 0.98102 0.72565 0.99195 0.0
C636 C 0.01185 0.5719 0.75263 0.0
C637 C 0.01112 0.59121 0.79572 0.0
C638 C 0.97379 0.63978 0.84662 0.0
C639 C 0.98524 0.68367 0.98571 0.0
C640 C 0.98647 0.66196 0.94401 0.0
C641 C 0.98992 0.60043 0.81759 0.0
C642 C 0.98889 0.62155 0.8615 0.0
H643 H 0.97553 0.70241 0.14488 0.0
H644 H 0.9831 0.66672 0.0805 0.0
H645 H 0.9609 0.67333 0.87343 0.0
H646 H 0.95425 0.56194 0.73925 0.0
H647 H 0.95292 0.59592 0.81248 0.0
C648 C 0.10554 0.22607 0.18428 0.0
C649 C 0.08807 0.24172 0.20256 0.0
C650 C 0.11455 0.21073 0.23061 0.0
C651 C 0.10702 0.19259 0.40839 0.0
H652 H 0.10336 0.13193 0.32638 0.0
C653 C 0.05971 0.12262 0.54435 0.0
C654 C 0.04307 0.11208 0.50361 0.0
C655 C 0.07876 0.13367 0.51645 0.0
C656 C 0.10441 0.14873 0.35037 0.0
H657 H 0.06762 0.25477 0.28459 0.0
H658 H 0.08243 0.22801 0.36388 0.0
H659 H 0.1127 0.1649 0.25949 0.0
H660 H 0.03411 0.1033 0.40246 0.0
H661 H 0.06627 0.12311 0.35383 0.0
H662 H 0.09546 0.17699 0.4971 0.0
C663 C 0.08993 0.22763 0.31488 0.0
C664 C 0.11024 0.16775 0.31199 0.0
C665 C 0.0812 0.24306 0.26899 0.0
C666 C 0.04669 0.11125 0.43511 0.0
C667 C 0.06543 0.12253 0.40723 0.0
C668 C 0.10036 0.17371 0.44621 0.0
C669 C 0.10593 0.21048 0.29575 0.0
C670 C 0.10959 0.19021 0.33946 0.0
C671 C 0.08124 0.13479 0.44723 0.0
C672 C 0.097 0.15191 0.41613 0.0
H673 H 0.11143 0.22498 0.13351 0.0
H674 H 0.12727 0.19822 0.2143 0.0
H675 H 0.10767 0.20946 0.4321 0.0
H676 H 0.05756 0.123 0.59757 0.0
H677 H 0.09086 0.14231 0.54908 0.0
C678 C 0.30141 0.11133 0.16899 0.0
C679 C 0.28477 0.09527 0.1897 0.0
C680 C 0.31819 0.11945 0.21313 0.0
C681 C 0.36068 0.10509 0.28745 0.0
H682 H 0.35546 0.10423 0.47836 0.0
C683 C 0.42103 0.0476 0.42213 0.0
C684 C 0.40846 0.03202 0.46091 0.0
C685 C 0.4118 0.06918 0.40669 0.0
C686 C 0.35738 0.10465 0.42513 0.0
H687 H 0.27097 0.07769 0.27534 0.0
H688 H 0.29975 0.09185 0.35146 0.0
H689 H 0.32402 0.11985 0.41255 0.0
H690 H 0.37802 0.02822 0.52185 0.0
H691 H 0.3613 0.0649 0.4921 0.0
H692 H 0.39264 0.08775 0.29839 0.0
C693 C 0.30004 0.09827 0.30138 0.0
C694 C 0.33941 0.11377 0.38749 0.0
C695 C 0.28343 0.09003 0.2573 0.0
C696 C 0.38776 0.03952 0.48996 0.0
C697 C 0.37837 0.06091 0.47376 0.0
C698 C 0.37848 0.09577 0.32488 0.0
C699 C 0.31851 0.11176 0.27881 0.0
C700 C 0.34012 0.11229 0.31808 0.0
C701 C 0.38962 0.07544 0.42859 0.0
C702 C 0.37614 0.09359 0.39384 0.0
H703 H 0.30251 0.11629 0.11762 0.0
H704 H 0.33199 0.13016 0.19456 0.0
H705 H 0.36196 0.10379 0.23409 0.0
H706 H 0.43715 0.0425 0.39928 0.0
H707 H 0.42129 0.08011 0.37327 0.0
C708 C 0.39901 0.30363 0.12243 0.0
C709 C 0.41386 0.28792 0.15352 0.0
C710 C 0.39338 0.32461 0.15342 0.0
C711 C 0.40324 0.36049 0.30618 0.0
H712 H 0.42888 0.40344 0.18044 0.0
C713 C 0.47259 0.42469 0.37505 0.0
C714 C 0.47707 0.444 0.33564 0.0
C715 C 0.45376 0.41044 0.36169 0.0
C716 C 0.42103 0.39217 0.21634 0.0
H717 H 0.43177 0.28049 0.24495 0.0
H718 H 0.42195 0.31678 0.29874 0.0
H719 H 0.41293 0.36736 0.14125 0.0
H720 H 0.4638 0.46498 0.25615 0.0
H721 H 0.43096 0.43994 0.23228 0.0
H722 H 0.41266 0.38495 0.38167 0.0
C723 C 0.41461 0.31309 0.25053 0.0
C724 C 0.4118 0.3713 0.19365 0.0
C725 C 0.4203 0.29218 0.21951 0.0
C726 C 0.46118 0.44983 0.28614 0.0
C727 C 0.44237 0.43548 0.2725 0.0
C728 C 0.41231 0.38152 0.32892 0.0
C729 C 0.40243 0.33016 0.21607 0.0
C730 C 0.40418 0.35461 0.23859 0.0
C731 C 0.43892 0.4151 0.30849 0.0
C732 C 0.42273 0.3969 0.28453 0.0
H733 H 0.39333 0.30055 0.07208 0.0
H734 H 0.38357 0.33725 0.12616 0.0
H735 H 0.39708 0.34813 0.34188 0.0
H736 H 0.48452 0.41956 0.4133 0.0
H737 H 0.452 0.39478 0.38999 0.0
C738 C 0.20931 0.41916 0.14618 0.0
C739 C 0.22227 0.43569 0.18148 0.0
C740 C 0.18754 0.41258 0.16867 0.0
C741 C 0.13752 0.4249 0.18555 0.0
H742 H 0.11596 0.43477 0.36502 0.0
C743 C 0.04679 0.46191 0.26001 0.0
C744 C 0.0508 0.48389 0.28867 0.0
C745 C 0.06501 0.44623 0.25084 0.0
C746 C 0.12161 0.43137 0.31475 0.0
H747 H 0.22392 0.45631 0.27126 0.0
H748 H 0.18599 0.44532 0.31013 0.0
H749 H 0.15541 0.42157 0.34584 0.0
H750 H 0.07763 0.50685 0.32599 0.0
H751 H 0.10859 0.47925 0.31362 0.0
H752 H 0.10402 0.43608 0.15482 0.0
C753 C 0.19248 0.43705 0.26556 0.0
C754 C 0.14423 0.42403 0.30366 0.0
C755 C 0.21433 0.44344 0.24334 0.0
C756 C 0.07348 0.48985 0.30656 0.0
C757 C 0.09136 0.47407 0.29919 0.0
C758 C 0.11481 0.43196 0.19676 0.0
C759 C 0.17824 0.42267 0.22643 0.0
C760 C 0.15293 0.42228 0.23884 0.0
C761 C 0.08732 0.45212 0.27177 0.0
C762 C 0.10722 0.43666 0.26126 0.0
H763 H 0.21522 0.41281 0.09847 0.0
H764 H 0.17731 0.40101 0.13817 0.0
H765 H 0.14349 0.42385 0.13487 0.0
H766 H 0.02958 0.4566 0.24598 0.0
H767 H 0.06165 0.42943 0.22865 0.0
C768 C 0.9037 0.80311 0.07869 0.0
C769 C 0.92134 0.79 0.04873 0.0
C770 C 0.89288 0.82086 0.04396 0.0
C771 C 0.89901 0.85352 0.88343 0.0
H772 H 0.91022 0.90363 0.00768 0.0
C773 C 0.96228 0.92174 0.81226 0.0
C774 C 0.98029 0.92021 0.85826 0.0
C775 C 0.94005 0.9145 0.82947 0.0
C776 C 0.90666 0.88998 0.97195 0.0
H777 H 0.93923 0.7832 0.9564 0.0
H778 H 0.92122 0.81392 0.89708 0.0
H779 H 0.8952 0.86749 0.04734 0.0
H780 H 0.98919 0.91249 0.95927 0.0
H781 H 0.95094 0.8999 0.98965 0.0
H782 H 0.914 0.87498 0.80996 0.0
C783 C 0.91518 0.81078 0.94678 0.0
C784 C 0.89777 0.86911 0.99462 0.0
C785 C 0.92576 0.79298 0.98117 0.0
C786 C 0.97551 0.91355 0.92302 0.0
C787 C 0.95341 0.90665 0.94045 0.0
C788 C 0.90864 0.87415 0.86117 0.0
C789 C 0.89984 0.82611 0.97909 0.0
C790 C 0.89646 0.84977 0.95173 0.0
C791 C 0.93561 0.90592 0.8931 0.0
C792 C 0.915 0.8915 0.9069 0.0
H793 H 0.89949 0.80076 0.13036 0.0
H794 H 0.88051 0.83166 0.06989 0.0
H795 H 0.89669 0.83949 0.84813 0.0
H796 H 0.96571 0.92711 0.76207 0.0
H797 H 0.92671 0.91436 0.79207 0.0
C798 C 0.71138 0.91612 0.05262 0.0
C799 C 0.73405 0.92439 0.04462 0.0
C800 C 0.69746 0.91149 0.99763 0.0
C801 C 0.69546 0.93314 0.8271 0.0
H802 H 0.63375 0.90793 0.83604 0.0
C803 C 0.62796 0.97778 0.68286 0.0
C804 C 0.6111 0.98622 0.72672 0.0
C805 C 0.64073 0.95815 0.69852 0.0
C806 C 0.65105 0.91479 0.83215 0.0
H807 H 0.76066 0.92994 0.96995 0.0
H808 H 0.73757 0.91915 0.87699 0.0
H809 H 0.66349 0.89353 0.91035 0.0
H810 H 0.59236 0.97913 0.81706 0.0
H811 H 0.61506 0.94554 0.84557 0.0
H812 H 0.68306 0.95508 0.75171 0.0
C813 C 0.72982 0.91829 0.9256 0.0
C814 C 0.66809 0.90668 0.87511 0.0
C815 C 0.74339 0.92408 0.98014 0.0
C816 C 0.60537 0.97314 0.78244 0.0
C817 C 0.61833 0.95369 0.79857 0.0
C818 C 0.67863 0.94095 0.78394 0.0
C819 C 0.70615 0.91398 0.93311 0.0
C820 C 0.69016 0.91681 0.8759 0.0
C821 C 0.63718 0.94695 0.75905 0.0
C822 C 0.65588 0.93292 0.78859 0.0
H823 H 0.70372 0.91452 0.1011 0.0
H824 H 0.67946 0.90776 1.00627 0.0
H825 H 0.71197 0.94177 0.82576 0.0
H826 H 0.63236 0.98723 0.63871 0.0
H827 H 0.65474 0.953 0.66613 0.0
C828 C 0.58008 0.7318 0.02829 0.0
C829 C 0.59156 0.73665 0.08784 0.0
C830 C 0.58459 0.71135 0.99349 0.0
C831 C 0.59267 0.6653 0.92923 0.0
H832 H 0.59315 0.6179 0.06287 0.0
C833 C 0.54757 0.57866 0.88146 0.0
C834 C 0.53272 0.57233 0.93319 0.0
C835 C 0.56486 0.59511 0.89183 0.0
C836 C 0.59306 0.63088 0.02472 0.0
H837 H 0.61906 0.7258 0.15269 0.0
H838 H 0.62768 0.6904 0.09044 0.0
H839 H 0.60681 0.65625 0.09059 0.0
H840 H 0.52466 0.57834 0.03676 0.0
H841 H 0.55407 0.60727 0.05442 0.0
H842 H 0.57641 0.64049 0.86579 0.0
C843 C 0.61451 0.70187 0.07191 0.0
C844 C 0.60132 0.65292 0.04024 0.0
C845 C 0.60973 0.72222 0.10734 0.0
C846 C 0.53602 0.58239 0.99601 0.0
C847 C 0.55308 0.59898 1.00623 0.0
C848 C 0.58396 0.64335 0.91413 0.0
C849 C 0.60085 0.69539 0.01722 0.0
C850 C 0.59982 0.67085 0.99399 0.0
C851 C 0.56745 0.60592 0.95401 0.0
C852 C 0.58272 0.62635 0.96313 0.0
H853 H 0.56591 0.74254 0.01219 0.0
H854 H 0.57355 0.70714 0.95195 0.0
H855 H 0.59202 0.67842 0.89156 0.0
H856 H 0.54555 0.57126 0.83249 0.0
H857 H 0.57574 0.59983 0.85065 0.0
C858 C 0.77844 0.57997 0.98781 0.0
C859 C 0.77814 0.58741 0.05431 0.0
C860 C 0.79808 0.58313 0.94926 0.0
C861 C 0.85905 0.60276 0.94721 0.0
H862 H 0.86996 0.5373 0.91953 0.0
C863 C 0.9503 0.56143 0.94281 0.0
C864 C 0.95329 0.54015 0.90925 0.0
C865 C 0.92868 0.57219 0.94495 0.0
C866 C 0.86735 0.55576 0.92457 0.0
H867 H 0.79624 0.60821 0.1276 0.0
H868 H 0.83101 0.61258 0.06132 0.0
H869 H 0.83167 0.55063 0.94264 0.0
H870 H 0.93539 0.51422 0.8494 0.0
H871 H 0.89927 0.53401 0.84692 0.0
H872 H 0.89517 0.60765 0.92978 0.0
C873 C 0.81614 0.60429 0.03907 0.0
C874 C 0.84519 0.56343 0.93808 0.0
C875 C 0.7963 0.60149 0.07738 0.0
C876 C 0.93434 0.5307 0.87499 0.0
C877 C 0.91317 0.54189 0.87485 0.0
C878 C 0.88141 0.59508 0.93213 0.0
C879 C 0.81783 0.59338 0.97689 0.0
C880 C 0.84078 0.5869 0.95066 0.0
C881 C 0.90968 0.56223 0.91214 0.0
C882 C 0.88588 0.57136 0.92173 0.0
H883 H 0.76479 0.56928 0.96765 0.0
H884 H 0.79881 0.57501 0.90072 0.0
H885 H 0.85611 0.62094 0.95744 0.0
H886 H 0.96454 0.56973 0.96812 0.0
H887 H 0.92677 0.58786 0.97425 0.0
C888 C 0.01923 0.22801 1.00124 0.0
C889 C 0.04124 0.23805 0.99846 0.0
C890 C 0.01356 0.20892 0.96041 0.0
C891 C 0.03324 0.17316 0.81352 0.0
H892 H 1.00053 0.12414 0.90222 0.0
C893 C 0.02566 0.07899 0.70314 0.0
C894 C 0.0052 0.06677 0.71576 0.0
C895 C 0.02965 0.1008 0.73305 0.0
C896 C 0.00939 0.13769 0.87595 0.0
H897 H 0.07424 0.23632 0.94892 0.0
H898 H 0.06436 0.20359 0.87715 0.0
H899 H 0.00681 0.16082 0.95918 0.0
H900 H 0.97226 0.06869 0.76561 0.0
H901 H 0.97898 0.10634 0.81694 0.0
H902 H 0.03588 0.14983 0.73025 0.0
C903 C 0.05128 0.21041 0.91023 0.0
C904 C 0.01298 0.1589 0.90888 0.0
C905 C 0.05695 0.22934 0.95124 0.0
C906 C 0.98846 0.07735 0.75626 0.0
C907 C 0.99241 0.09898 0.78609 0.0
C908 C 0.02956 0.15191 0.78037 0.0
C909 C 0.02976 0.19934 0.91561 0.0
C910 C 0.02498 0.17705 0.8784 0.0
C911 C 0.0132 0.111 0.77596 0.0
C912 C 0.01752 0.13378 0.81101 0.0
H913 H 0.00693 0.23393 0.03803 0.0
H914 H 0.99668 0.2012 0.96554 0.0
H915 H 0.04242 0.18666 0.7879 0.0
H916 H 0.03858 0.07168 0.67039 0.0
H917 H 0.04586 0.10938 0.72365 0.0
C918 C 0.29648 0.02363 0.98833 0.0
C919 C 0.28741 0.04614 0.98749 0.0
C920 C 0.31461 0.01722 0.94552 0.0
C921 C 0.36219 0.0444 0.84858 0.0
H922 H 0.37142 0.98229 0.78009 0.0
C923 C 0.43892 0.02085 0.67403 0.0
C924 C 0.45022 0.99982 0.68584 0.0
C925 C 0.4182 0.02633 0.70678 0.0
C926 C 0.36925 0.99971 0.79926 0.0
H927 H 0.28942 0.07916 0.93884 0.0
H928 H 0.32014 0.06786 0.86271 0.0
H929 H 0.33645 0.99155 0.84206 0.0
H930 H 0.44802 0.96754 0.73821 0.0
H931 H 0.41225 0.97712 0.79609 0.0
H932 H 0.395 0.05253 0.80595 0.0
C933 C 0.31386 0.05522 0.89737 0.0
C934 C 0.3491 1.00504 0.83498 0.0
C935 C 0.29593 0.06162 0.94032 0.0
C936 C 0.43991 0.98406 0.72906 0.0
C937 C 0.41927 0.9895 0.7618 0.0
C938 C 0.38227 0.0391 0.8127 0.0
C939 C 0.32409 0.03318 0.90073 0.0
C940 C 0.34525 0.02747 0.8605 0.0
C941 C 0.4081 0.01076 0.75147 0.0
C942 C 0.3862 0.01663 0.78777 0.0
H943 H 0.29063 0.01149 0.02504 0.0
H944 H 0.32199 1.00014 0.9502 0.0
H945 H 0.36027 0.06176 0.86839 0.0
H946 H 0.44601 0.03301 0.63919 0.0
H947 H 0.40998 0.0427 0.69655 0.0
C948 C 0.48409 0.28256 0.96464 0.0
C949 C 0.46265 0.27139 0.96009 0.0
C950 C 0.49031 0.29943 0.91853 0.0
C951 C 0.46035 0.34268 0.82058 0.0
H952 H 0.52098 0.35919 0.75601 0.0
C953 C 0.484 0.43575 0.75206 0.0
C954 C 0.49487 0.43952 0.6909 0.0
C955 C 0.48102 0.41341 0.77611 0.0
C956 C 0.50391 0.35468 0.77321 0.0
H957 H 0.43176 0.26776 0.90122 0.0
H958 H 0.44279 0.29661 0.81992 0.0
H959 H 0.51511 0.32177 0.80987 0.0
H960 H 0.51204 0.4224 0.6085 0.0
H961 H 0.50729 0.3832 0.65177 0.0
H962 H 0.44926 0.37574 0.78631 0.0
C963 C 0.45473 0.29264 0.85934 0.0
C964 C 0.50058 0.33333 0.80435 0.0
C965 C 0.44855 0.27582 0.90524 0.0
C966 C 0.50337 0.4202 0.65544 0.0
C967 C 0.50073 0.39774 0.68025 0.0
C968 C 0.46375 0.36404 0.7905 0.0
C969 C 0.47511 0.30553 0.86736 0.0
C970 C 0.47875 0.32714 0.82886 0.0
C971 C 0.48926 0.39411 0.74057 0.0
C972 C 0.4856 0.37045 0.76716 0.0
H973 H 0.495 0.2799 0.00731 0.0
H974 H 0.50609 0.30905 0.92641 0.0
H975 H 0.44338 0.33873 0.83967 0.0
H976 H 0.47811 0.45007 0.78242 0.0
H977 H 0.47256 0.41126 0.82341 0.0
C978 C 0.22449 0.50637 0.01668 0.0
C979 C 0.24046 0.48871 1.00312 0.0
C980 C 0.20824 0.51286 0.9692 0.0
C981 C 0.17867 0.48675 0.82312 0.0
H982 H 0.14565 0.54494 0.82633 0.0
C983 C 0.08646 0.49355 0.71902 0.0
C984 C 0.07889 0.51427 0.69052 0.0
C985 C 0.10798 0.49217 0.74995 0.0
C986 C 0.15477 0.52864 0.82377 0.0
H987 H 0.25296 0.46503 0.9279 0.0
H988 H 0.22568 0.47729 0.84318 0.0
H989 H 0.18152 0.54136 0.88734 0.0
H990 H 0.08813 0.55004 0.67464 0.0
H991 H 0.12603 0.54742 0.72555 0.0
H992 H 0.15234 0.4742 0.7582 0.0
C993 C 0.2251 0.48575 0.89119 0.0
C994 C 0.17532 0.52647 0.85974 0.0
C995 C 0.24118 0.47905 0.93917 0.0
C996 C 0.09351 0.53363 0.69432 0.0
C997 C 0.11521 0.53219 0.72468 0.0
C998 C 0.15832 0.489 0.78656 0.0
C999 C 0.20759 0.50189 0.90659 0.0
C1000 C 0.18737 0.50532 0.86126 0.0
C1001 C 0.12281 0.51142 0.75313 0.0
C1002 C 0.1457 0.5098 0.78751 0.0
H1003 H 0.22313 0.51361 0.06621 0.0
H1004 H 0.19508 0.52514 0.98385 0.0
H1005 H 0.18705 0.47004 0.82322 0.0
H1006 H 0.07566 0.47831 0.71836 0.0
H1007 H 0.11273 0.476 0.77263 0.0
C1008 C 0.96135 0.79823 0.28687 0.0
C1009 C 0.97618 0.79119 0.23523 0.0
C1010 C 0.96738 0.81629 0.33045 0.0
C1011 C 0.01586 0.85378 0.39023 0.0
H1012 H 0.9668 0.89745 0.42872 0.0
C1013 C 0.03441 0.94268 0.51689 0.0
C1014 C 0.01803 0.95225 0.56055 0.0
C1015 C 0.02945 0.9228 0.47901 0.0
C1016 C 0.9807 0.88534 0.41954 0.0
H1017 H 0.00954 0.79723 0.19118 0.0
H1018 H 0.02041 0.82852 0.26816 0.0
H1019 H 0.95878 0.8629 0.36261 0.0
H1020 H 0.98395 0.94754 0.60143 0.0
H1021 H 0.97517 0.91271 0.53583 0.0
H1022 H 0.03777 0.87615 0.44738 0.0
C1023 C 0.00402 0.81996 0.27507 0.0
C1024 C 0.97608 0.86539 0.38131 0.0
C1025 C 0.99791 0.80182 0.23114 0.0
C1026 C 0.99668 0.94102 0.56675 0.0
C1027 C 0.99172 0.92096 0.52907 0.0
C1028 C 0.02046 0.87368 0.42878 0.0
C1029 C 0.98848 0.82804 0.32402 0.0
C1030 C 0.99357 0.84923 0.3659 0.0
C1031 C 0.00805 0.91146 0.48447 0.0
C1032 C 1.00298 0.88989 0.44404 0.0
H1033 H 0.94439 0.79057 0.29119 0.0
H1034 H 0.95512 0.82149 0.36818 0.0
H1035 H 0.02977 0.84175 0.38032 0.0
H1036 H 0.05115 0.95074 0.51166 0.0
H1037 H 0.04243 0.91646 0.4449 0.0
C1038 C 0.72161 0.99129 0.25494 0.0
C1039 C 0.73154 0.96917 0.25735 0.0
C1040 C 0.70329 0.9974 0.29745 0.0
C1041 C 0.65632 0.96957 0.39476 0.0
H1042 H 0.6455 0.03173 0.46088 0.0
C1043 C 0.57616 0.02902 0.50334 0.0
C1044 C 0.565 0.01299 0.54398 0.0
C1045 C 0.59765 0.02398 0.47485 0.0
C1046 C 0.6481 0.01428 0.4424 0.0
H1047 H 0.73044 0.93635 0.30712 0.0
H1048 H 0.69925 0.94711 0.38261 0.0
H1049 H 0.68097 0.02292 0.40083 0.0
H1050 H 0.56861 0.97984 0.59123 0.0
H1051 H 0.60607 0.97079 0.54095 0.0
H1052 H 0.62336 0.96098 0.43561 0.0
C1053 C 0.70522 0.95976 0.34751 0.0
C1054 C 0.66855 0.00922 0.4078 0.0
C1055 C 0.72343 0.95369 0.30502 0.0
C1056 C 0.57641 0.99221 0.55827 0.0
C1057 C 0.59794 0.98709 0.52954 0.0
C1058 C 0.63589 0.97463 0.42937 0.0
C1059 C 0.69433 0.98146 0.34312 0.0
C1060 C 0.67296 0.9868 0.38294 0.0
C1061 C 0.60882 1.00283 0.48682 0.0
C1062 C 0.63132 0.99712 0.45325 0.0
H1063 H 0.72704 1.00334 0.21746 0.0
H1064 H 0.69535 0.01419 0.29183 0.0
H1065 H 0.65871 0.95219 0.37557 0.0
H1066 H 0.56799 0.04536 0.49231 0.0
H1067 H 0.60519 0.03651 0.44195 0.0
C1068 C 0.56653 0.73749 0.34427 0.0
C1069 C 0.55101 0.74703 0.2987 0.0
C1070 C 0.55945 0.72022 0.38775 0.0
C1071 C 0.51738 0.67296 0.39036 0.0
H1072 H 0.54316 0.66098 0.56348 0.0
C1073 C 0.5226 0.58104 0.49471 0.0
C1074 C 0.51706 0.57753 0.56156 0.0
C1075 C 0.52459 0.60335 0.46952 0.0
C1076 C 0.53561 0.66415 0.51548 0.0
H1077 H 0.51554 0.74701 0.26612 0.0
H1078 H 0.50297 0.7171 0.34287 0.0
H1079 H 0.54937 0.69855 0.51192 0.0
H1080 H 0.50933 0.59493 0.65444 0.0
H1081 H 0.51308 0.63412 0.61037 0.0
H1082 H 0.50403 0.63849 0.39313 0.0
C1083 C 0.52072 0.72282 0.34457 0.0
C1084 C 0.5393 0.68564 0.48569 0.0
C1085 C 0.5278 0.74025 0.3013 0.0
C1086 C 0.51367 0.59702 0.60276 0.0
C1087 C 0.5159 0.61946 0.57756 0.0
C1088 C 0.51387 0.65147 0.41983 0.0
C1089 C 0.53669 0.71188 0.38639 0.0
C1090 C 0.53052 0.69023 0.42223 0.0
C1091 C 0.5212 0.62289 0.51039 0.0
C1092 C 0.52328 0.64659 0.48223 0.0
H1093 H 0.58459 0.74217 0.34272 0.0
H1094 H 0.5723 0.7122 0.41879 0.0
H1095 H 0.51058 0.67565 0.34121 0.0
H1096 H 0.525 0.56651 0.46119 0.0
H1097 H 0.52897 0.60528 0.41781 0.0
C1098 C 0.78373 0.5201 0.24646 0.0
C1099 C 0.77233 0.54132 0.25563 0.0
C1100 C 0.8024 0.51409 0.28694 0.0
C1101 C 0.83481 0.52974 0.44098 0.0
H1102 H 0.88815 0.51024 0.33908 0.0
C1103 C 0.92406 0.50938 0.56089 0.0
C1104 C 0.94353 0.51835 0.52866 0.0
C1105 C 0.90219 0.51027 0.53131 0.0
C1106 C 0.87345 0.51569 0.36837 0.0
H1107 H 0.77081 0.57232 0.31624 0.0
H1108 H 0.8028 0.5616 0.38818 0.0
H1109 H 0.85088 0.51404 0.28469 0.0
H1110 H 0.95507 0.53526 0.43948 0.0
H1111 H 0.91716 0.53668 0.38793 0.0
H1112 H 0.85761 0.53182 0.52444 0.0
C1113 C 0.79737 0.54949 0.35005 0.0
C1114 C 0.85196 0.5176 0.3373 0.0
C1115 C 0.77888 0.55558 0.30917 0.0
C1116 C 0.94052 0.52822 0.466 0.0
C1117 C 0.91875 0.52886 0.43609 0.0
C1118 C 0.8563 0.52758 0.47227 0.0
C1119 C 0.81004 0.52913 0.33771 0.0
C1120 C 0.83236 0.52494 0.37289 0.0
C1121 C 0.89924 0.51992 0.46828 0.0
C1122 C 0.87601 0.52087 0.43615 0.0
H1123 H 0.77945 0.50905 0.2046 0.0
H1124 H 0.81155 0.49814 0.27646 0.0
H1125 H 0.82012 0.53535 0.47005 0.0
H1126 H 0.92559 0.50204 0.6095 0.0
H1127 H 0.8876 0.50316 0.55753 0.0
loop_
_geom_bond_atom_site_label_1
_geom_bond_atom_site_label_2
_geom_bond_distance
_geom_bond_site_symmetry_2
_ccdc_geom_bond_type
H0 C3 0.931 . S
H1 C6 0.928 . S
H2 C8 0.930 . S
C3 H0 0.931 . S
C3 C4 1.413 . S
C3 C5 1.360 . S
C4 C3 1.413 . S
C4 C8 1.429 . S
C5 C3 1.360 . S
C5 C6 1.372 . S
C6 H1 0.928 . S
C6 C5 1.372 . S
C6 C7 1.404 . S
C7 C6 1.404 . S
C7 C8 1.391 . S
C8 H2 0.930 . S
C8 C4 1.429 . S
C8 C7 1.391 . S
H9 C12 0.931 . S
H10 C15 0.928 . S
H11 C17 0.930 . S
C12 H9 0.931 . S
C12 C13 1.413 . S
C12 C14 1.360 . S
C13 C12 1.413 . S
C13 C17 1.429 . S
C14 C12 1.360 . S
C14 C15 1.372 . S
C15 H10 0.928 . S
C15 C14 1.372 . S
C15 C16 1.404 . S
C16 C15 1.404 . S
C16 C17 1.391 . S
C17 H11 0.930 . S
C17 C13 1.429 . S
C17 C16 1.391 . S
H18 C21 0.931 . S
H19 C24 0.928 . S
H20 C26 0.930 . S
C21 H18 0.931 . S
C21 C22 1.413 . S
C21 C23 1.360 . S
C22 C21 1.413 . S
C22 C26 1.429 . S
C23 C21 1.360 . S
C23 C24 1.372 . S
C24 H19 0.928 . S
C24 C23 1.372 . S
C24 C25 1.404 . S
C25 C24 1.404 . S
C25 C26 1.391 . S
C26 H20 0.930 . S
C26 C22 1.429 . S
C26 C25 1.391 . S
H27 C30 0.931 . S
H28 C33 0.928 . S
H29 C35 0.930 . S
C30 H27 0.931 . S
C30 C31 1.413 . S
C30 C32 1.360 . S
C31 C30 1.413 . S
C31 C35 1.429 . S
C32 C30 1.360 . S
C32 C33 1.372 . S
C33 H28 0.928 . S
C33 C32 1.372 . S
C33 C34 1.404 . S
C34 C33 1.404 . S
C34 C35 1.391 . S
C35 H29 0.930 . S
C35 C31 1.429 . S
C35 C34 1.391 . S
H36 C39 0.934 . S
H37 C42 0.928 . S
H38 C44 0.930 . S
C39 H36 0.934 . S
C39 C40 1.413 1_554 S
C39 C41 1.360 . S
C40 C39 1.413 1_556 S
C40 C44 1.429 . S
C41 C39 1.360 . S
C41 C42 1.372 . S
C42 H37 0.928 . S
C42 C41 1.372 . S
C42 C43 1.404 . S
C43 C42 1.404 . S
C43 C44 1.391 1_554 S
C44 H38 0.930 . S
C44 C40 1.429 . S
C44 C43 1.391 1_556 S
H45 C48 0.931 1_556 S
H46 C51 0.928 . S
H47 C53 0.930 . S
C48 H45 0.931 1_554 S
C48 C49 1.413 1_554 S
C48 C50 1.360 . S
C49 C48 1.413 1_556 S
C49 C53 1.429 . S
C50 C48 1.360 . S
C50 C51 1.372 . S
C51 H46 0.928 . S
C51 C50 1.372 . S
C51 C52 1.404 . S
C52 C51 1.404 . S
C52 C53 1.391 1_554 S
C53 H47 0.930 . S
C53 C49 1.429 . S
C53 C52 1.391 1_556 S
H54 C57 0.931 1_556 S
H55 C60 0.928 . S
H56 C62 0.930 . S
C57 H54 0.931 1_554 S
C57 C58 1.413 1_554 S
C57 C59 1.360 . S
C58 C57 1.413 1_556 S
C58 C62 1.429 . S
C59 C57 1.360 . S
C59 C60 1.372 . S
C60 H55 0.928 . S
C60 C59 1.372 . S
C60 C61 1.404 . S
C61 C60 1.404 . S
C61 C62 1.391 1_554 S
C62 H56 0.930 . S
C62 C58 1.429 . S
C62 C61 1.391 1_556 S
H63 C66 0.931 1_556 S
H64 C69 0.928 . S
H65 C71 0.930 . S
C66 H63 0.931 1_554 S
C66 C67 1.413 . S
C66 C68 1.360 1_554 S
C67 C66 1.413 . S
C67 C71 1.429 . S
C68 C66 1.360 1_556 S
C68 C69 1.372 . S
C69 H64 0.928 . S
C69 C68 1.372 . S
C69 C70 1.404 1_556 S
C70 C69 1.404 1_554 S
C70 C71 1.391 . S
C71 H65 0.930 . S
C71 C67 1.429 . S
C71 C70 1.391 . S
Eu72 N103 2.657 1_565 S
Eu72 N110 2.609 . S
Eu72 O116 2.558 . S
Eu72 O117 2.612 1_455 S
Eu72 O119 2.339 1_455 S
Eu72 O120 2.563 . S
Eu72 O121 2.419 . S
Eu72 O123 2.380 1_565 S
Eu72 O124 2.432 . S
Eu72 C136 2.848 . S
C73 C76 1.429 1_545 S
C73 C77 1.411 . S
C73 N80 1.377 . S
C74 C76 1.420 . S
C74 C78 1.423 . S
C74 C86 1.392 . S
C75 C77 1.420 1_565 S
C75 C78 1.351 . S
C75 H98 0.931 . S
C76 C73 1.429 1_565 S
C76 C74 1.420 . S
C76 N84 1.362 . S
C77 C73 1.411 . S
C77 C75 1.420 1_545 S
C77 C82 1.395 . S
C78 C74 1.423 . S
C78 C75 1.351 . S
C78 H90 0.930 . S
C79 C81 1.400 . S
C79 C82 1.386 . S
C79 H91 0.930 . S
N80 C73 1.377 . S
N80 C81 1.321 . S
N80 Eu83 2.609 . S
C81 C79 1.400 . S
C81 N80 1.321 . S
C81 H88 0.930 . S
C82 C77 1.395 . S
C82 C79 1.386 . S
C82 H101 0.930 . S
Eu83 N80 2.609 . S
Eu83 N84 2.655 1_545 S
Eu83 O117 2.380 1_545 S
Eu83 O118 2.432 . S
Eu83 O122 2.558 . S
Eu83 O123 2.612 1_655 S
Eu83 O125 2.339 1_655 S
Eu83 O126 2.563 1_655 S
Eu83 O127 2.419 . S
Eu83 C147 2.848 . S
N84 C76 1.362 . S
N84 Eu83 2.655 1_565 S
N84 C85 1.335 1_655 S
C85 N84 1.335 1_455 S
C85 C87 1.413 1_455 S
C85 H92 0.929 . S
C86 C74 1.392 . S
C86 C87 1.368 . S
C86 H94 0.930 . S
C87 C85 1.413 1_655 S
C87 C86 1.368 . S
C87 H89 0.930 1_655 S
H88 C81 0.930 . S
H89 C87 0.930 1_455 S
H90 C78 0.930 . S
H91 C79 0.930 . S
H92 C85 0.929 . S
H93 C107 0.930 1_655 S
H94 C86 0.930 . S
H95 C113 0.930 . S
H96 C104 0.929 1_655 S
H97 C111 0.930 . S
H98 C75 0.931 . S
H99 C105 0.930 . S
H100 C138 0.930 . S
H101 C82 0.930 . S
H102 C137 0.931 . S
N103 Eu72 2.657 1_545 S
N103 C104 1.334 . S
N103 C108 1.362 . S
C104 H96 0.929 1_455 S
C104 N103 1.334 . S
C104 C107 1.413 . S
C105 H99 0.930 . S
C105 C106 1.392 . S
C105 C107 1.367 . S
C106 C105 1.392 . S
C106 C108 1.420 . S
C106 C138 1.423 . S
C107 H93 0.930 1_455 S
C107 C104 1.413 . S
C107 C105 1.367 . S
C108 N103 1.362 . S
C108 C106 1.420 . S
C108 C112 1.429 . S
H109 C114 0.928 1_545 S
N110 Eu72 2.609 . S
N110 C112 1.377 1_565 S
N110 C113 1.321 . S
C111 H97 0.930 . S
C111 C113 1.400 . S
C111 C114 1.404 . S
C112 C108 1.429 . S
C112 N110 1.377 1_545 S
C112 C115 1.411 . S
C113 H95 0.930 . S
C113 N110 1.321 . S
C113 C111 1.400 . S
C114 H109 0.928 1_565 S
C114 C111 1.404 . S
C114 C115 1.380 1_565 S
C115 C112 1.411 . S
C115 C114 1.380 1_545 S
C115 C137 1.420 . S
O116 Eu72 2.558 . S
O116 C136 1.257 . S
O117 Eu72 2.612 1_655 S
O117 Eu83 2.380 1_565 S
O117 C128 1.276 . S
O118 Eu83 2.432 . S
O118 C135 1.264 . S
O119 Eu72 2.339 1_655 S
O119 C135 1.254 1_565 S
O120 Eu72 2.563 . S
O120 C128 1.235 1_455 S
O121 Eu72 2.419 . S
O121 C136 1.249 . S
O122 Eu83 2.558 . S
O122 C147 1.257 . S
O123 Eu72 2.380 1_545 S
O123 Eu83 2.612 1_455 S
O123 C139 1.276 . S
O124 Eu72 2.432 . S
O124 C146 1.264 1_565 S
O125 Eu83 2.339 1_455 S
O125 C146 1.254 . S
O126 Eu83 2.563 1_455 S
O126 C139 1.235 . S
O127 Eu83 2.419 . S
O127 C147 1.249 . S
C128 O117 1.276 . S
C128 O120 1.235 1_655 S
C129 C131 1.393 . S
C129 C133 1.395 . S
C129 C136 1.492 . S
C130 C131 1.392 . S
C130 C132 1.386 . S
C131 C129 1.393 . S
C131 C130 1.392 . S
C131 H148 0.929 1_455 S
C132 C130 1.386 . S
C132 C134 1.395 . S
C132 H149 0.930 . S
C133 C129 1.395 . S
C133 C134 1.379 . S
C133 H150 0.930 . S
C134 C132 1.395 . S
C134 C133 1.379 . S
C134 H151 0.930 . S
C135 O118 1.264 . S
C135 O119 1.254 1_545 S
C136 Eu72 2.848 . S
C136 O116 1.257 . S
C136 O121 1.249 . S
C136 C129 1.492 . S
C137 H102 0.931 . S
C137 C115 1.420 . S
C137 C138 1.351 . S
C138 H100 0.930 . S
C138 C106 1.423 . S
C138 C137 1.351 . S
C139 O123 1.276 . S
C139 O126 1.235 . S
C140 C141 1.393 . S
C140 C144 1.395 . S
C140 C147 1.492 . S
C141 C140 1.393 . S
C141 C142 1.392 . S
C141 H152 0.930 1_655 S
C142 C141 1.392 . S
C142 C143 1.386 . S
C143 C142 1.386 . S
C143 C145 1.395 . S
C143 H153 0.930 . S
C144 C140 1.395 . S
C144 C145 1.379 . S
C144 H154 0.930 . S
C145 C143 1.395 . S
C145 C144 1.379 . S
C145 H155 0.930 . S
C146 O124 1.264 1_545 S
C146 O125 1.254 . S
C147 Eu83 2.848 . S
C147 O122 1.257 . S
C147 O127 1.249 . S
C147 C140 1.492 . S
H148 C131 0.929 1_655 S
H149 C132 0.930 . S
H150 C133 0.930 . S
H151 C134 0.930 . S
H152 C141 0.930 1_455 S
H153 C143 0.930 . S
H154 C144 0.930 . S
H155 C145 0.930 . S
Eu156 N187 2.657 . S
Eu156 N194 2.609 . S
Eu156 O200 2.558 . S
Eu156 O201 2.612 1_545 S
Eu156 O203 2.339 1_545 S
Eu156 O204 2.563 . S
Eu156 O205 2.419 . S
Eu156 O207 2.380 . S
Eu156 O208 2.432 . S
Eu156 C220 2.848 . S
C157 C160 1.429 . S
C157 C161 1.411 . S
C157 N164 1.377 . S
C158 C160 1.420 . S
C158 C162 1.423 . S
C158 C170 1.392 . S
C159 C161 1.420 . S
C159 C162 1.351 . S
C159 H182 0.931 . S
C160 C157 1.429 . S
C160 C158 1.420 . S
C160 N168 1.362 . S
C161 C157 1.411 . S
C161 C159 1.420 . S
C161 C166 1.395 . S
C162 C158 1.423 . S
C162 C159 1.351 . S
C162 H174 0.930 . S
C163 C165 1.400 . S
C163 C166 1.386 . S
C163 H175 0.930 . S
N164 C157 1.377 . S
N164 C165 1.321 . S
N164 Eu167 2.609 . S
C165 C163 1.400 . S
C165 N164 1.321 . S
C165 H172 0.930 . S
C166 C161 1.395 . S
C166 C163 1.386 . S
C166 H185 0.930 . S
Eu167 N164 2.609 . S
Eu167 N168 2.657 . S
Eu167 O201 2.380 . S
Eu167 O202 2.432 . S
Eu167 O206 2.558 . S
Eu167 O207 2.612 1_565 S
Eu167 O209 2.339 1_565 S
Eu167 O210 2.563 1_565 S
Eu167 O211 2.419 . S
Eu167 C231 2.848 . S
N168 C160 1.362 . S
N168 Eu167 2.657 . S
N168 C169 1.334 1_565 S
C169 N168 1.334 1_545 S
C169 C171 1.413 . S
C169 H176 0.929 . S
C170 C158 1.392 . S
C170 C171 1.367 1_565 S
C170 H178 0.930 . S
C171 C169 1.413 . S
C171 C170 1.367 1_545 S
C171 H173 0.930 . S
H172 C165 0.930 . S
H173 C171 0.930 . S
H174 C162 0.930 . S
H175 C163 0.930 . S
H176 C169 0.929 . S
H177 C191 0.930 1_565 S
H178 C170 0.930 . S
H179 C197 0.930 . S
H180 C188 0.929 1_565 S
H181 C195 0.930 . S
H182 C159 0.931 . S
H183 C189 0.930 . S
H184 C222 0.930 . S
H185 C166 0.930 . S
H186 C221 0.931 . S
N187 Eu156 2.657 . S
N187 C188 1.334 . S
N187 C192 1.362 . S
C188 H180 0.929 1_545 S
C188 N187 1.334 . S
C188 C191 1.413 . S
C189 H183 0.930 . S
C189 C190 1.392 . S
C189 C191 1.367 . S
C190 C189 1.392 . S
C190 C192 1.420 . S
C190 C222 1.423 . S
C191 H177 0.930 1_545 S
C191 C188 1.413 . S
C191 C189 1.367 . S
C192 N187 1.362 . S
C192 C190 1.420 . S
C192 C196 1.429 . S
H193 C198 0.930 . S
N194 Eu156 2.609 . S
N194 C196 1.377 . S
N194 C197 1.321 . S
C195 H181 0.930 . S
C195 C197 1.400 . S
C195 C198 1.386 . S
C196 C192 1.429 . S
C196 N194 1.377 . S
C196 C199 1.411 . S
C197 H179 0.930 . S
C197 N194 1.321 . S
C197 C195 1.400 . S
C198 H193 0.930 . S
C198 C195 1.386 . S
C198 C199 1.395 . S
C199 C196 1.411 . S
C199 C198 1.395 . S
C199 C221 1.420 . S
O200 Eu156 2.558 . S
O200 C220 1.257 . S
O201 Eu156 2.612 1_565 S
O201 Eu167 2.380 . S
O201 C212 1.276 . S
O202 Eu167 2.432 . S
O202 C219 1.264 . S
O203 Eu156 2.339 1_565 S
O203 C219 1.254 . S
O204 Eu156 2.563 . S
O204 C212 1.235 1_545 S
O205 Eu156 2.419 . S
O205 C220 1.249 . S
O206 Eu167 2.558 . S
O206 C231 1.257 . S
O207 Eu156 2.380 . S
O207 Eu167 2.612 1_545 S
O207 C223 1.276 . S
O208 Eu156 2.432 . S
O208 C230 1.264 . S
O209 Eu167 2.339 1_545 S
O209 C230 1.254 . S
O210 Eu167 2.563 1_545 S
O210 C223 1.235 . S
O211 Eu167 2.419 . S
O211 C231 1.249 . S
C212 O201 1.276 . S
C212 O204 1.235 1_565 S
C213 C215 1.393 . S
C213 C217 1.395 . S
C213 C220 1.492 . S
C214 C215 1.392 . S
C214 C216 1.386 . S
C215 C213 1.393 . S
C215 C214 1.392 . S
C215 H232 0.930 . S
C216 C214 1.386 . S
C216 C218 1.395 . S
C216 H233 0.930 . S
C217 C213 1.395 . S
C217 C218 1.379 . S
C217 H234 0.930 . S
C218 C216 1.395 . S
C218 C217 1.379 . S
C218 H235 0.930 . S
C219 O202 1.264 . S
C219 O203 1.254 . S
C220 Eu156 2.848 . S
C220 O200 1.257 . S
C220 O205 1.249 . S
C220 C213 1.492 . S
C221 H186 0.931 . S
C221 C199 1.420 . S
C221 C222 1.351 . S
C222 H184 0.930 . S
C222 C190 1.423 . S
C222 C221 1.351 . S
C223 O207 1.276 . S
C223 O210 1.235 . S
C224 C225 1.393 . S
C224 C228 1.395 . S
C224 C231 1.492 . S
C225 C224 1.393 . S
C225 C226 1.392 . S
C225 H236 0.930 1_565 S
C226 C225 1.392 . S
C226 C227 1.386 . S
C227 C226 1.386 . S
C227 C229 1.395 . S
C227 H237 0.930 . S
C228 C224 1.395 . S
C228 C229 1.379 . S
C228 H238 0.930 . S
C229 C227 1.395 . S
C229 C228 1.379 . S
C229 H239 0.930 . S
C230 O208 1.264 . S
C230 O209 1.254 . S
C231 Eu167 2.848 . S
C231 O206 1.257 . S
C231 O211 1.249 . S
C231 C224 1.492 . S
H232 C215 0.930 . S
H233 C216 0.930 . S
H234 C217 0.930 . S
H235 C218 0.930 . S
H236 C225 0.930 1_545 S
H237 C227 0.930 . S
H238 C228 0.930 . S
H239 C229 0.930 . S
Eu240 N271 2.657 . S
Eu240 N278 2.609 . S
Eu240 O284 2.558 . S
Eu240 O285 2.612 . S
Eu240 O287 2.339 . S
Eu240 O288 2.563 . S
Eu240 O289 2.419 . S
Eu240 O291 2.380 . S
Eu240 O292 2.432 . S
Eu240 C304 2.848 . S
C241 C244 1.429 . S
C241 C245 1.411 . S
C241 N248 1.377 . S
C242 C244 1.420 . S
C242 C246 1.423 . S
C242 C254 1.392 . S
C243 C245 1.420 . S
C243 C246 1.351 . S
C243 H266 0.931 . S
C244 C241 1.429 . S
C244 C242 1.420 . S
C244 N252 1.362 . S
C245 C241 1.411 . S
C245 C243 1.420 . S
C245 C250 1.395 . S
C246 C242 1.423 . S
C246 C243 1.351 . S
C246 H258 0.930 . S
C247 C249 1.400 . S
C247 C250 1.386 . S
C247 H259 0.930 . S
N248 C241 1.377 . S
N248 C249 1.321 . S
N248 Eu251 2.609 . S
C249 C247 1.400 . S
C249 N248 1.321 . S
C249 H256 0.930 . S
C250 C245 1.395 . S
C250 C247 1.386 . S
C250 H269 0.930 . S
Eu251 N248 2.609 . S
Eu251 N252 2.657 . S
Eu251 O285 2.380 . S
Eu251 O286 2.432 . S
Eu251 O290 2.558 . S
Eu251 O291 2.612 . S
Eu251 O293 2.339 . S
Eu251 O294 2.563 . S
Eu251 O295 2.419 . S
Eu251 C315 2.848 . S
N252 C244 1.362 . S
N252 Eu251 2.657 . S
N252 C253 1.334 . S
C253 N252 1.334 . S
C253 C255 1.413 . S
C253 H260 0.929 . S
C254 C242 1.392 . S
C254 C255 1.367 . S
C254 H262 0.930 . S
C255 C253 1.413 . S
C255 C254 1.367 . S
C255 H257 0.930 . S
H256 C249 0.930 . S
H257 C255 0.930 . S
H258 C246 0.930 . S
H259 C247 0.930 . S
H260 C253 0.929 . S
H261 C275 0.930 . S
H262 C254 0.930 . S
H263 C281 0.930 . S
H264 C272 0.929 . S
H265 C279 0.930 . S
H266 C243 0.931 . S
H267 C273 0.930 . S
H268 C306 0.930 . S
H269 C250 0.930 . S
H270 C305 0.931 . S
N271 Eu240 2.657 . S
N271 C272 1.334 . S
N271 C276 1.362 . S
C272 H264 0.929 . S
C272 N271 1.334 . S
C272 C275 1.413 . S
C273 H267 0.930 . S
C273 C274 1.392 . S
C273 C275 1.367 . S
C274 C273 1.392 . S
C274 C276 1.420 . S
C274 C306 1.423 . S
C275 H261 0.930 . S
C275 C272 1.413 . S
C275 C273 1.367 . S
C276 N271 1.362 . S
C276 C274 1.420 . S
C276 C280 1.429 . S
H277 C282 0.930 . S
N278 Eu240 2.609 . S
N278 C280 1.377 . S
N278 C281 1.321 . S
C279 H265 0.930 . S
C279 C281 1.400 . S
C279 C282 1.386 . S
C280 C276 1.429 . S
C280 N278 1.377 . S
C280 C283 1.411 . S
C281 H263 0.930 . S
C281 N278 1.321 . S
C281 C279 1.400 . S
C282 H277 0.930 . S
C282 C279 1.386 . S
C282 C283 1.395 . S
C283 C280 1.411 . S
C283 C282 1.395 . S
C283 C305 1.420 . S
O284 Eu240 2.558 . S
O284 C304 1.257 . S
O285 Eu240 2.612 . S
O285 Eu251 2.380 . S
O285 C296 1.276 . S
O286 Eu251 2.432 . S
O286 C303 1.264 . S
O287 Eu240 2.339 . S
O287 C303 1.254 . S
O288 Eu240 2.563 . S
O288 C296 1.235 . S
O289 Eu240 2.419 . S
O289 C304 1.249 . S
O290 Eu251 2.558 . S
O290 C315 1.257 . S
O291 Eu240 2.380 . S
O291 Eu251 2.612 . S
O291 C307 1.276 . S
O292 Eu240 2.432 . S
O292 C314 1.264 . S
O293 Eu251 2.339 . S
O293 C314 1.254 . S
O294 Eu251 2.563 . S
O294 C307 1.235 . S
O295 Eu251 2.419 . S
O295 C315 1.249 . S
C296 O285 1.276 . S
C296 O288 1.235 . S
C297 C299 1.393 . S
C297 C301 1.395 . S
C297 C304 1.492 . S
C298 C299 1.392 . S
C298 C300 1.386 . S
C299 C297 1.393 . S
C299 C298 1.392 . S
C299 H316 0.930 . S
C300 C298 1.386 . S
C300 C302 1.395 . S
C300 H317 0.930 . S
C301 C297 1.395 . S
C301 C302 1.379 . S
C301 H318 0.930 . S
C302 C300 1.395 . S
C302 C301 1.379 . S
C302 H319 0.930 . S
C303 O286 1.264 . S
C303 O287 1.254 . S
C304 Eu240 2.848 . S
C304 O284 1.257 . S
C304 O289 1.249 . S
C304 C297 1.492 . S
C305 H270 0.931 . S
C305 C283 1.420 . S
C305 C306 1.351 . S
C306 H268 0.930 . S
C306 C274 1.423 . S
C306 C305 1.351 . S
C307 O291 1.276 . S
C307 O294 1.235 . S
C308 C309 1.393 . S
C308 C312 1.395 . S
C308 C315 1.492 . S
C309 C308 1.393 . S
C309 C310 1.392 . S
C309 H320 0.930 . S
C310 C309 1.392 . S
C310 C311 1.386 . S
C311 C310 1.386 . S
C311 C313 1.395 . S
C311 H321 0.930 . S
C312 C308 1.395 . S
C312 C313 1.379 . S
C312 H322 0.930 . S
C313 C311 1.395 . S
C313 C312 1.379 . S
C313 H323 0.930 . S
C314 O292 1.264 . S
C314 O293 1.254 . S
C315 Eu251 2.848 . S
C315 O290 1.257 . S
C315 O295 1.249 . S
C315 C308 1.492 . S
H316 C299 0.930 . S
H317 C300 0.930 . S
H318 C301 0.930 . S
H319 C302 0.930 . S
H320 C309 0.930 . S
H321 C311 0.930 . S
H322 C312 0.930 . S
H323 C313 0.930 . S
Eu324 N355 2.657 . S
Eu324 N362 2.609 . S
Eu324 O368 2.558 . S
Eu324 O369 2.612 . S
Eu324 O371 2.339 . S
Eu324 O372 2.563 . S
Eu324 O373 2.419 . S
Eu324 O375 2.383 . S
Eu324 O376 2.432 1_455 S
Eu324 C388 2.848 . S
C325 C328 1.429 . S
C325 C329 1.411 . S
C325 N332 1.377 . S
C326 C328 1.420 . S
C326 C330 1.423 . S
C326 C338 1.392 . S
C327 C329 1.420 . S
C327 C330 1.351 . S
C327 H350 0.931 . S
C328 C325 1.429 . S
C328 C326 1.420 . S
C328 N336 1.362 . S
C329 C325 1.411 . S
C329 C327 1.420 . S
C329 C334 1.395 . S
C330 C326 1.423 . S
C330 C327 1.351 . S
C330 H342 0.930 . S
C331 C333 1.400 . S
C331 C334 1.386 1_455 S
C331 H343 0.930 . S
N332 C325 1.377 . S
N332 C333 1.321 1_655 S
N332 Eu335 2.609 . S
C333 C331 1.400 . S
C333 N332 1.321 1_455 S
C333 H340 0.930 . S
C334 C329 1.395 . S
C334 C331 1.386 1_655 S
C334 H353 0.930 . S
Eu335 N332 2.609 . S
Eu335 N336 2.657 . S
Eu335 O369 2.380 1_655 S
Eu335 O370 2.432 1_655 S
Eu335 O374 2.558 . S
Eu335 O375 2.611 1_655 S
Eu335 O377 2.339 . S
Eu335 O378 2.563 . S
Eu335 O379 2.419 . S
Eu335 C399 2.848 . S
N336 C328 1.362 . S
N336 Eu335 2.657 . S
N336 C337 1.334 . S
C337 N336 1.334 . S
C337 C339 1.413 . S
C337 H344 0.929 . S
C338 C326 1.392 . S
C338 C339 1.367 . S
C338 H346 0.930 . S
C339 C337 1.413 . S
C339 C338 1.367 . S
C339 H341 0.930 . S
H340 C333 0.930 . S
H341 C339 0.930 . S
H342 C330 0.930 . S
H343 C331 0.930 . S
H344 C337 0.929 . S
H345 C359 0.930 . S
H346 C338 0.930 . S
H347 C365 0.930 1_655 S
H348 C356 0.929 . S
H349 C363 0.930 . S
H350 C327 0.931 . S
H351 C357 0.930 . S
H352 C390 0.930 . S
H353 C334 0.930 . S
H354 C389 0.931 . S
N355 Eu324 2.657 . S
N355 C356 1.334 . S
N355 C360 1.362 . S
C356 H348 0.929 . S
C356 N355 1.334 . S
C356 C359 1.413 . S
C357 H351 0.930 . S
C357 C358 1.392 . S
C357 C359 1.367 . S
C358 C357 1.392 . S
C358 C360 1.420 . S
C358 C390 1.423 . S
C359 H345 0.930 . S
C359 C356 1.413 . S
C359 C357 1.367 . S
C360 N355 1.362 . S
C360 C358 1.420 . S
C360 C364 1.429 . S
H361 C366 0.930 . S
N362 Eu324 2.609 . S
N362 C364 1.377 . S
N362 C365 1.321 . S
C363 H349 0.930 . S
C363 C365 1.399 1_655 S
C363 C366 1.385 1_655 S
C364 C360 1.429 . S
C364 N362 1.377 . S
C364 C367 1.411 . S
C365 H347 0.930 1_455 S
C365 N362 1.321 . S
C365 C363 1.399 1_455 S
C366 H361 0.930 . S
C366 C363 1.385 1_455 S
C366 C367 1.395 . S
C367 C364 1.411 . S
C367 C366 1.395 . S
C367 C389 1.420 . S
O368 Eu324 2.558 . S
O368 C388 1.257 . S
O369 Eu324 2.612 . S
O369 Eu335 2.380 1_455 S
O369 C380 1.276 . S
O370 Eu335 2.432 1_455 S
O370 C387 1.264 . S
O371 Eu324 2.339 . S
O371 C387 1.254 . S
O372 Eu324 2.563 . S
O372 C380 1.235 . S
O373 Eu324 2.419 . S
O373 C388 1.249 . S
O374 Eu335 2.558 . S
O374 C399 1.257 . S
O375 Eu324 2.383 . S
O375 Eu335 2.611 1_455 S
O375 C391 1.274 1_455 S
O376 Eu324 2.432 1_655 S
O376 C398 1.264 . S
O377 Eu335 2.339 . S
O377 C398 1.254 . S
O378 Eu335 2.563 . S
O378 C391 1.235 . S
O379 Eu335 2.419 . S
O379 C399 1.249 . S
C380 O369 1.276 . S
C380 O372 1.235 . S
C381 C383 1.393 . S
C381 C385 1.395 . S
C381 C388 1.492 . S
C382 C383 1.392 . S
C382 C384 1.386 . S
C383 C381 1.393 . S
C383 C382 1.392 . S
C383 H400 0.930 . S
C384 C382 1.386 . S
C384 C386 1.395 . S
C384 H401 0.930 . S
C385 C381 1.395 . S
C385 C386 1.379 . S
C385 H402 0.930 . S
C386 C384 1.395 . S
C386 C385 1.379 . S
C386 H403 0.930 . S
C387 O370 1.264 . S
C387 O371 1.254 . S
C388 Eu324 2.848 . S
C388 O368 1.257 . S
C388 O373 1.249 . S
C388 C381 1.492 . S
C389 H354 0.931 . S
C389 C367 1.420 . S
C389 C390 1.351 . S
C390 H352 0.930 . S
C390 C358 1.423 . S
C390 C389 1.351 . S
C391 O375 1.274 1_655 S
C391 O378 1.235 . S
C392 C393 1.393 . S
C392 C396 1.395 . S
C392 C399 1.492 . S
C393 C392 1.393 . S
C393 C394 1.392 . S
C393 H404 0.930 . S
C394 C393 1.392 . S
C394 C395 1.386 . S
C395 C394 1.386 . S
C395 C397 1.395 . S
C395 H405 0.930 . S
C396 C392 1.395 . S
C396 C397 1.379 . S
C396 H406 0.930 . S
C397 C395 1.395 . S
C397 C396 1.379 . S
C397 H407 0.930 . S
C398 O376 1.264 . S
C398 O377 1.254 . S
C399 Eu335 2.848 . S
C399 O374 1.257 . S
C399 O379 1.249 . S
C399 C392 1.492 . S
H400 C383 0.930 . S
H401 C384 0.930 . S
H402 C385 0.930 . S
H403 C386 0.930 . S
H404 C393 0.930 . S
H405 C395 0.930 . S
H406 C396 0.930 . S
H407 C397 0.930 . S
C408 C409 1.349 . S
C408 C410 1.327 . S
C408 H433 0.950 . S
C409 C408 1.349 . S
C409 C425 1.349 . S
C410 C408 1.327 . S
C410 C429 1.429 . S
C410 H434 0.950 . S
C411 C428 1.574 . S
C411 C430 1.368 . S
C411 H435 0.949 . S
H412 C416 0.949 . S
C413 C414 1.349 . S
C413 C415 1.327 . S
C413 H436 0.950 1_545 S
C414 C413 1.349 . S
C414 C426 1.349 . S
C415 C413 1.327 . S
C415 C431 1.429 . S
C415 H437 0.950 1_545 S
C416 H412 0.949 . S
C416 C424 1.574 . S
C416 C432 1.368 . S
H417 C425 0.950 . S
H418 C423 0.950 . S
H419 C424 0.949 . S
H420 C426 0.950 . S
H421 C427 0.950 . S
H422 C428 0.949 . S
C423 H418 0.950 . S
C423 C425 1.327 . S
C423 C429 1.429 . S
C424 C416 1.574 . S
C424 H419 0.949 . S
C424 C430 1.368 . S
C425 C409 1.349 . S
C425 H417 0.950 . S
C425 C423 1.327 . S
C426 C414 1.349 . S
C426 H420 0.950 . S
C426 C427 1.327 . S
C427 H421 0.950 . S
C427 C426 1.327 . S
C427 C431 1.429 . S
C428 C411 1.574 . S
C428 H422 0.949 . S
C428 C432 1.368 . S
C429 C410 1.429 . S
C429 C423 1.429 . S
C429 C430 1.523 . S
C430 C411 1.368 . S
C430 C424 1.368 . S
C430 C429 1.523 . S
C431 C415 1.429 . S
C431 C427 1.429 . S
C431 C432 1.523 . S
C432 C416 1.368 . S
C432 C428 1.368 . S
C432 C431 1.523 . S
H433 C408 0.950 . S
H434 C410 0.950 . S
H435 C411 0.949 . S
H436 C413 0.950 1_565 S
H437 C415 0.950 1_565 S
C438 C439 1.349 . S
C438 C440 1.327 . S
C438 H463 0.950 . S
C439 C438 1.349 . S
C439 C455 1.349 . S
C440 C438 1.327 . S
C440 C459 1.429 . S
C440 H464 0.950 . S
C441 C458 1.574 . S
C441 C460 1.368 . S
C441 H465 0.949 . S
H442 C446 0.949 . S
C443 C444 1.349 . S
C443 C445 1.327 . S
C443 H466 0.950 . S
C444 C443 1.349 . S
C444 C456 1.349 . S
C445 C443 1.327 . S
C445 C461 1.429 . S
C445 H467 0.950 . S
C446 H442 0.949 . S
C446 C454 1.574 . S
C446 C462 1.368 . S
H447 C455 0.950 . S
H448 C453 0.950 . S
H449 C454 0.949 . S
H450 C456 0.950 . S
H451 C457 0.950 . S
H452 C458 0.949 . S
C453 H448 0.950 . S
C453 C455 1.327 . S
C453 C459 1.429 . S
C454 C446 1.574 . S
C454 H449 0.949 . S
C454 C460 1.368 . S
C455 C439 1.349 . S
C455 H447 0.950 . S
C455 C453 1.327 . S
C456 C444 1.349 . S
C456 H450 0.950 . S
C456 C457 1.327 . S
C457 H451 0.950 . S
C457 C456 1.327 . S
C457 C461 1.429 . S
C458 C441 1.574 . S
C458 H452 0.949 . S
C458 C462 1.368 . S
C459 C440 1.429 . S
C459 C453 1.429 . S
C459 C460 1.523 . S
C460 C441 1.368 . S
C460 C454 1.368 . S
C460 C459 1.523 . S
C461 C445 1.429 . S
C461 C457 1.429 . S
C461 C462 1.523 . S
C462 C446 1.368 . S
C462 C458 1.368 . S
C462 C461 1.523 . S
H463 C438 0.950 . S
H464 C440 0.950 . S
H465 C441 0.949 . S
H466 C443 0.950 . S
H467 C445 0.950 . S
C468 C469 1.349 . S
C468 C470 1.327 . S
C468 H493 0.950 . S
C469 C468 1.349 . S
C469 C485 1.349 . S
C470 C468 1.327 . S
C470 C489 1.429 . S
C470 H494 0.950 . S
C471 C488 1.574 . S
C471 C490 1.368 . S
C471 H495 0.949 . S
H472 C476 0.949 . S
C473 C474 1.349 . S
C473 C475 1.327 . S
C473 H496 0.950 . S
C474 C473 1.349 . S
C474 C486 1.349 . S
C475 C473 1.327 . S
C475 C491 1.429 . S
C475 H497 0.950 . S
C476 H472 0.949 . S
C476 C484 1.574 . S
C476 C492 1.368 . S
H477 C485 0.950 . S
H478 C483 0.950 . S
H479 C484 0.949 . S
H480 C486 0.950 . S
H481 C487 0.950 . S
H482 C488 0.949 . S
C483 H478 0.950 . S
C483 C485 1.327 . S
C483 C489 1.429 . S
C484 C476 1.574 . S
C484 H479 0.949 . S
C484 C490 1.368 . S
C485 C469 1.349 . S
C485 H477 0.950 . S
C485 C483 1.327 . S
C486 C474 1.349 . S
C486 H480 0.950 . S
C486 C487 1.327 . S
C487 H481 0.950 . S
C487 C486 1.327 . S
C487 C491 1.429 . S
C488 C471 1.574 . S
C488 H482 0.949 . S
C488 C492 1.368 . S
C489 C470 1.429 . S
C489 C483 1.429 . S
C489 C490 1.523 . S
C490 C471 1.368 . S
C490 C484 1.368 . S
C490 C489 1.523 . S
C491 C475 1.429 . S
C491 C487 1.429 . S
C491 C492 1.523 . S
C492 C476 1.368 . S
C492 C488 1.368 . S
C492 C491 1.523 . S
H493 C468 0.950 . S
H494 C470 0.950 . S
H495 C471 0.949 . S
H496 C473 0.950 . S
H497 C475 0.950 . S
C498 C499 1.349 . S
C498 C500 1.327 . S
C498 H523 0.950 . S
C499 C498 1.349 . S
C499 C515 1.349 . S
C500 C498 1.327 . S
C500 C519 1.429 . S
C500 H524 0.950 . S
C501 C518 1.574 . S
C501 C520 1.368 . S
C501 H525 0.949 . S
H502 C506 0.949 . S
C503 C504 1.349 . S
C503 C505 1.327 . S
C503 H526 0.950 . S
C504 C503 1.349 . S
C504 C516 1.349 . S
C505 C503 1.327 . S
C505 C521 1.429 . S
C505 H527 0.950 . S
C506 H502 0.949 . S
C506 C514 1.574 . S
C506 C522 1.368 . S
H507 C515 0.950 . S
H508 C513 0.950 . S
H509 C514 0.949 . S
H510 C516 0.950 . S
H511 C517 0.950 . S
H512 C518 0.949 . S
C513 H508 0.950 . S
C513 C515 1.327 . S
C513 C519 1.429 . S
C514 C506 1.574 . S
C514 H509 0.949 . S
C514 C520 1.368 . S
C515 C499 1.349 . S
C515 H507 0.950 . S
C515 C513 1.327 . S
C516 C504 1.349 . S
C516 H510 0.950 . S
C516 C517 1.327 . S
C517 H511 0.950 . S
C517 C516 1.327 . S
C517 C521 1.429 . S
C518 C501 1.574 . S
C518 H512 0.949 . S
C518 C522 1.368 . S
C519 C500 1.429 . S
C519 C513 1.429 . S
C519 C520 1.523 . S
C520 C501 1.368 . S
C520 C514 1.368 . S
C520 C519 1.523 . S
C521 C505 1.429 . S
C521 C517 1.429 . S
C521 C522 1.523 . S
C522 C506 1.368 . S
C522 C518 1.368 . S
C522 C521 1.523 . S
H523 C498 0.950 . S
H524 C500 0.950 . S
H525 C501 0.949 . S
H526 C503 0.950 . S
H527 C505 0.950 . S
C528 C529 1.349 . S
C528 C530 1.327 . S
C528 H553 0.950 . S
C529 C528 1.349 . S
C529 C545 1.349 . S
C530 C528 1.327 . S
C530 C549 1.429 . S
C530 H554 0.950 . S
C531 C548 1.574 . S
C531 C550 1.368 . S
C531 H555 0.949 . S
H532 C536 0.949 . S
C533 C534 1.349 . S
C533 C535 1.327 . S
C533 H556 0.950 . S
C534 C533 1.349 . S
C534 C546 1.349 1_565 S
C535 C533 1.327 . S
C535 C551 1.429 . S
C535 H557 0.950 . S
C536 H532 0.949 . S
C536 C544 1.574 1_556 S
C536 C552 1.368 . S
H537 C545 0.950 . S
H538 C543 0.950 . S
H539 C544 0.949 . S
H540 C546 0.950 . S
H541 C547 0.950 1_545 S
H542 C548 0.949 . S
C543 H538 0.950 . S
C543 C545 1.327 . S
C543 C549 1.429 . S
C544 C536 1.574 1_554 S
C544 H539 0.949 . S
C544 C550 1.368 1_554 S
C545 C529 1.349 . S
C545 H537 0.950 . S
C545 C543 1.327 . S
C546 C534 1.349 1_545 S
C546 H540 0.950 . S
C546 C547 1.327 1_545 S
C547 H541 0.950 1_565 S
C547 C546 1.327 1_565 S
C547 C551 1.429 . S
C548 C531 1.574 . S
C548 H542 0.949 . S
C548 C552 1.368 . S
C549 C530 1.429 . S
C549 C543 1.429 . S
C549 C550 1.523 1_554 S
C550 C531 1.368 . S
C550 C544 1.368 1_556 S
C550 C549 1.523 1_556 S
C551 C535 1.429 . S
C551 C547 1.429 . S
C551 C552 1.523 . S
C552 C536 1.368 . S
C552 C548 1.368 . S
C552 C551 1.523 . S
H553 C528 0.950 . S
H554 C530 0.950 . S
H555 C531 0.949 . S
H556 C533 0.950 . S
H557 C535 0.950 . S
C558 C559 1.349 . S
C558 C560 1.327 . S
C558 H583 0.950 . S
C559 C558 1.349 . S
C559 C575 1.349 . S
C560 C558 1.327 . S
C560 C579 1.429 . S
C560 H584 0.950 . S
C561 C578 1.574 . S
C561 C580 1.368 . S
C561 H585 0.949 . S
H562 C566 0.949 . S
C563 C564 1.349 . S
C563 C565 1.327 . S
C563 H586 0.950 . S
C564 C563 1.349 . S
C564 C576 1.349 . S
C565 C563 1.327 . S
C565 C581 1.429 . S
C565 H587 0.950 . S
C566 H562 0.949 . S
C566 C574 1.574 . S
C566 C582 1.368 . S
H567 C575 0.950 . S
H568 C573 0.950 . S
H569 C574 0.949 . S
H570 C576 0.950 . S
H571 C577 0.950 . S
H572 C578 0.949 . S
C573 H568 0.950 . S
C573 C575 1.327 . S
C573 C579 1.429 . S
C574 C566 1.574 . S
C574 H569 0.949 . S
C574 C580 1.368 . S
C575 C559 1.349 . S
C575 H567 0.950 . S
C575 C573 1.327 . S
C576 C564 1.349 . S
C576 H570 0.950 . S
C576 C577 1.327 . S
C577 H571 0.950 . S
C577 C576 1.327 . S
C577 C581 1.429 . S
C578 C561 1.574 . S
C578 H572 0.949 . S
C578 C582 1.368 . S
C579 C560 1.429 . S
C579 C573 1.429 . S
C579 C580 1.523 1_554 S
C580 C561 1.368 . S
C580 C574 1.368 . S
C580 C579 1.523 1_556 S
C581 C565 1.429 . S
C581 C577 1.429 . S
C581 C582 1.523 . S
C582 C566 1.368 . S
C582 C578 1.368 . S
C582 C581 1.523 . S
H583 C558 0.950 . S
H584 C560 0.950 . S
H585 C561 0.949 . S
H586 C563 0.950 . S
H587 C565 0.950 . S
C588 C589 1.349 . S
C588 C590 1.327 . S
C588 H613 0.950 . S
C589 C588 1.349 . S
C589 C605 1.349 . S
C590 C588 1.327 . S
C590 C609 1.429 . S
C590 H614 0.950 . S
C591 C608 1.574 . S
C591 C610 1.368 . S
C591 H615 0.949 1_556 S
H592 C596 0.949 . S
C593 C594 1.349 . S
C593 C595 1.327 . S
C593 H616 0.950 . S
C594 C593 1.349 . S
C594 C606 1.349 . S
C595 C593 1.327 . S
C595 C611 1.429 . S
C595 H617 0.950 . S
C596 H592 0.949 . S
C596 C604 1.574 . S
C596 C612 1.368 . S
H597 C605 0.950 . S
H598 C603 0.950 . S
H599 C604 0.949 . S
H600 C606 0.950 . S
H601 C607 0.950 . S
H602 C608 0.949 . S
C603 H598 0.950 . S
C603 C605 1.327 . S
C603 C609 1.429 . S
C604 C596 1.574 . S
C604 H599 0.949 . S
C604 C610 1.368 . S
C605 C589 1.349 . S
C605 H597 0.950 . S
C605 C603 1.327 . S
C606 C594 1.349 . S
C606 H600 0.950 . S
C606 C607 1.327 . S
C607 H601 0.950 . S
C607 C606 1.327 . S
C607 C611 1.429 . S
C608 C591 1.574 . S
C608 H602 0.949 . S
C608 C612 1.368 . S
C609 C590 1.429 . S
C609 C603 1.429 . S
C609 C610 1.523 1_554 S
C610 C591 1.368 . S
C610 C604 1.368 . S
C610 C609 1.523 1_556 S
C611 C595 1.429 . S
C611 C607 1.429 . S
C611 C612 1.523 . S
C612 C596 1.368 . S
C612 C608 1.368 . S
C612 C611 1.523 . S
H613 C588 0.950 . S
H614 C590 0.950 . S
H615 C591 0.949 1_554 S
H616 C593 0.950 . S
H617 C595 0.950 . S
C618 C619 1.349 . S
C618 C620 1.327 . S
C618 H643 0.950 . S
C619 C618 1.349 . S
C619 C635 1.349 . S
C620 C618 1.327 . S
C620 C639 1.429 . S
C620 H644 0.950 . S
C621 C638 1.574 . S
C621 C640 1.368 . S
C621 H645 0.949 . S
H622 C626 0.949 . S
C623 C624 1.349 . S
C623 C625 1.327 . S
C623 H646 0.950 . S
C624 C623 1.349 . S
C624 C636 1.349 . S
C625 C623 1.327 . S
C625 C641 1.429 . S
C625 H647 0.950 . S
C626 H622 0.949 . S
C626 C634 1.574 1_556 S
C626 C642 1.368 . S
H627 C635 0.950 . S
H628 C633 0.950 1_556 S
H629 C634 0.949 . S
H630 C636 0.968 . S
H631 C637 0.950 . S
H632 C638 0.949 . S
C633 H628 0.950 1_554 S
C633 C635 1.327 . S
C633 C639 1.429 . S
C634 C626 1.574 1_554 S
C634 H629 0.949 . S
C634 C640 1.368 1_554 S
C635 C619 1.349 . S
C635 H627 0.950 . S
C635 C633 1.327 . S
C636 C624 1.349 . S
C636 H630 0.968 . S
C636 C637 1.327 . S
C637 H631 0.950 . S
C637 C636 1.327 . S
C637 C641 1.429 . S
C638 C621 1.574 . S
C638 H632 0.949 . S
C638 C642 1.368 . S
C639 C620 1.429 . S
C639 C633 1.429 . S
C639 C640 1.523 1_554 S
C640 C621 1.368 . S
C640 C634 1.368 1_556 S
C640 C639 1.523 1_556 S
C641 C625 1.429 . S
C641 C637 1.429 . S
C641 C642 1.523 . S
C642 C626 1.368 . S
C642 C638 1.368 . S
C642 C641 1.523 . S
H643 C618 0.950 . S
H644 C620 0.950 . S
H645 C621 0.949 . S
H646 C623 0.950 . S
H647 C625 0.950 . S
C648 C649 1.349 . S
C648 C650 1.327 . S
C648 H673 0.950 . S
C649 C648 1.349 . S
C649 C665 1.349 . S
C650 C648 1.327 . S
C650 C669 1.429 . S
C650 H674 0.950 . S
C651 C668 1.574 . S
C651 C670 1.368 . S
C651 H675 0.949 . S
H652 C656 0.949 . S
C653 C654 1.353 . S
C653 C655 1.327 . S
C653 H676 0.950 . S
C654 C653 1.353 . S
C654 C666 1.341 1_655 S
C655 C653 1.327 . S
C655 C671 1.429 1_655 S
C655 H677 0.950 . S
C656 H652 0.949 . S
C656 C664 1.574 . S
C656 C672 1.368 . S
H657 C665 0.950 . S
H658 C663 0.950 . S
H659 C664 0.949 . S
H660 C666 0.950 . S
H661 C667 0.950 . S
H662 C668 0.949 . S
C663 H658 0.950 . S
C663 C665 1.327 . S
C663 C669 1.429 . S
C664 C656 1.574 . S
C664 H659 0.949 . S
C664 C670 1.368 . S
C665 C649 1.349 . S
C665 H657 0.950 . S
C665 C663 1.327 . S
C666 C654 1.341 1_455 S
C666 H660 0.950 . S
C666 C667 1.327 . S
C667 H661 0.950 . S
C667 C666 1.327 . S
C667 C671 1.429 . S
C668 C651 1.574 . S
C668 H662 0.949 . S
C668 C672 1.368 . S
C669 C650 1.429 . S
C669 C663 1.429 . S
C669 C670 1.523 . S
C670 C651 1.368 . S
C670 C664 1.368 . S
C670 C669 1.523 . S
C671 C655 1.429 1_455 S
C671 C667 1.429 . S
C671 C672 1.523 . S
C672 C656 1.368 . S
C672 C668 1.368 . S
C672 C671 1.523 . S
H673 C648 0.950 . S
H674 C650 0.950 . S
H675 C651 0.949 . S
H676 C653 0.950 . S
H677 C655 0.950 . S
C678 C679 1.349 . S
C678 C680 1.327 . S
C678 H703 0.950 . S
C679 C678 1.349 . S
C679 C695 1.349 . S
C680 C678 1.327 . S
C680 C699 1.429 . S
C680 H704 0.950 . S
C681 C698 1.574 . S
C681 C700 1.368 . S
C681 H705 0.949 . S
H682 C686 0.949 . S
C683 C684 1.360 . S
C683 C685 1.327 . S
C683 H706 0.950 . S
C684 C683 1.360 . S
C684 C696 1.330 1_565 S
C685 C683 1.327 . S
C685 C701 1.429 1_565 S
C685 H707 0.950 . S
C686 H682 0.949 . S
C686 C694 1.574 . S
C686 C702 1.368 . S
H687 C695 0.950 . S
H688 C693 0.950 . S
H689 C694 0.949 . S
H690 C696 0.950 . S
H691 C697 0.950 . S
H692 C698 0.933 1_565 S
C693 H688 0.950 . S
C693 C695 1.327 . S
C693 C699 1.429 . S
C694 C686 1.574 . S
C694 H689 0.949 . S
C694 C700 1.368 . S
C695 C679 1.349 . S
C695 H687 0.950 . S
C695 C693 1.327 . S
C696 C684 1.330 1_545 S
C696 H690 0.950 . S
C696 C697 1.327 . S
C697 H691 0.950 . S
C697 C696 1.327 . S
C697 C701 1.429 . S
C698 C681 1.574 . S
C698 H692 0.933 1_545 S
C698 C702 1.368 . S
C699 C680 1.429 . S
C699 C693 1.429 . S
C699 C700 1.523 . S
C700 C681 1.368 . S
C700 C694 1.368 . S
C700 C699 1.523 . S
C701 C685 1.429 1_545 S
C701 C697 1.429 . S
C701 C702 1.523 . S
C702 C686 1.368 . S
C702 C698 1.368 . S
C702 C701 1.523 . S
H703 C678 0.950 . S
H704 C680 0.950 . S
H705 C681 0.949 . S
H706 C683 0.950 . S
H707 C685 0.950 . S
C708 C709 1.349 . S
C708 C710 1.327 . S
C708 H733 0.950 . S
C709 C708 1.349 . S
C709 C725 1.349 . S
C710 C708 1.327 . S
C710 C729 1.429 . S
C710 H734 0.950 . S
C711 C728 1.574 . S
C711 C730 1.368 . S
C711 H735 0.949 . S
H712 C716 0.949 . S
C713 C714 1.349 . S
C713 C715 1.327 . S
C713 H736 0.950 . S
C714 C713 1.349 . S
C714 C726 1.349 . S
C715 C713 1.327 . S
C715 C731 1.429 . S
C715 H737 0.950 . S
C716 H712 0.949 . S
C716 C724 1.574 . S
C716 C732 1.368 . S
H717 C725 0.950 . S
H718 C723 0.950 . S
H719 C724 0.949 . S
H720 C726 0.950 . S
H721 C727 0.950 . S
H722 C728 0.949 . S
C723 H718 0.950 . S
C723 C725 1.327 . S
C723 C729 1.429 . S
C724 C716 1.574 . S
C724 H719 0.949 . S
C724 C730 1.368 . S
C725 C709 1.349 . S
C725 H717 0.950 . S
C725 C723 1.327 . S
C726 C714 1.349 . S
C726 H720 0.950 . S
C726 C727 1.327 . S
C727 H721 0.950 . S
C727 C726 1.327 . S
C727 C731 1.429 . S
C728 C711 1.574 . S
C728 H722 0.949 . S
C728 C732 1.368 . S
C729 C710 1.429 . S
C729 C723 1.429 . S
C729 C730 1.523 . S
C730 C711 1.368 . S
C730 C724 1.368 . S
C730 C729 1.523 . S
C731 C715 1.429 . S
C731 C727 1.429 . S
C731 C732 1.523 . S
C732 C716 1.368 . S
C732 C728 1.368 . S
C732 C731 1.523 . S
H733 C708 0.950 . S
H734 C710 0.950 . S
H735 C711 0.949 . S
H736 C713 0.950 . S
H737 C715 0.950 . S
C738 C739 1.349 . S
C738 C740 1.327 . S
C738 H763 0.950 . S
C739 C738 1.349 . S
C739 C755 1.349 . S
C740 C738 1.327 . S
C740 C759 1.429 . S
C740 H764 0.950 . S
C741 C758 1.574 . S
C741 C760 1.368 . S
C741 H765 0.949 . S
H742 C746 0.949 . S
C743 C744 1.349 . S
C743 C745 1.327 . S
C743 H766 0.950 . S
C744 C743 1.349 . S
C744 C756 1.349 . S
C745 C743 1.327 . S
C745 C761 1.429 . S
C745 H767 0.950 . S
C746 H742 0.949 . S
C746 C754 1.574 . S
C746 C762 1.368 . S
H747 C755 0.950 . S
H748 C753 0.950 . S
H749 C754 0.949 . S
H750 C756 0.950 . S
H751 C757 0.950 . S
H752 C758 0.949 . S
C753 H748 0.950 . S
C753 C755 1.327 . S
C753 C759 1.429 . S
C754 C746 1.574 . S
C754 H749 0.949 . S
C754 C760 1.368 . S
C755 C739 1.349 . S
C755 H747 0.950 . S
C755 C753 1.327 . S
C756 C744 1.349 . S
C756 H750 0.950 . S
C756 C757 1.327 . S
C757 H751 0.950 . S
C757 C756 1.327 . S
C757 C761 1.429 . S
C758 C741 1.574 . S
C758 H752 0.949 . S
C758 C762 1.368 . S
C759 C740 1.429 . S
C759 C753 1.429 . S
C759 C760 1.523 . S
C760 C741 1.368 . S
C760 C754 1.368 . S
C760 C759 1.523 . S
C761 C745 1.429 . S
C761 C757 1.429 . S
C761 C762 1.523 . S
C762 C746 1.368 . S
C762 C758 1.368 . S
C762 C761 1.523 . S
H763 C738 0.950 . S
H764 C740 0.950 . S
H765 C741 0.949 . S
H766 C743 0.950 . S
H767 C745 0.950 . S
C768 C769 1.349 . S
C768 C770 1.327 . S
C768 H793 0.950 . S
C769 C768 1.349 . S
C769 C785 1.349 . S
C770 C768 1.327 . S
C770 C789 1.429 . S
C770 H794 0.950 . S
C771 C788 1.574 . S
C771 C790 1.368 1_556 S
C771 H795 0.949 . S
H772 C776 0.949 . S
C773 C774 1.349 . S
C773 C775 1.327 1_455 S
C773 H796 0.950 . S
C774 C773 1.349 . S
C774 C786 1.349 . S
C775 C773 1.327 1_655 S
C775 C791 1.429 . S
C775 H797 0.950 . S
C776 H772 0.949 . S
C776 C784 1.574 . S
C776 C792 1.368 1_554 S
H777 C785 0.950 . S
H778 C783 0.950 . S
H779 C784 0.949 . S
H780 C786 0.950 . S
H781 C787 0.950 . S
H782 C788 0.949 . S
C783 H778 0.950 . S
C783 C785 1.327 . S
C783 C789 1.429 . S
C784 C776 1.574 . S
C784 H779 0.949 . S
C784 C790 1.368 . S
C785 C769 1.349 . S
C785 H777 0.950 . S
C785 C783 1.327 . S
C786 C774 1.349 . S
C786 H780 0.950 . S
C786 C787 1.327 1_455 S
C787 H781 0.950 . S
C787 C786 1.327 1_655 S
C787 C791 1.429 . S
C788 C771 1.574 . S
C788 H782 0.949 . S
C788 C792 1.368 . S
C789 C770 1.429 . S
C789 C783 1.429 . S
C789 C790 1.523 . S
C790 C771 1.368 1_554 S
C790 C784 1.368 . S
C790 C789 1.523 . S
C791 C775 1.429 . S
C791 C787 1.429 . S
C791 C792 1.523 . S
C792 C776 1.368 1_556 S
C792 C788 1.368 . S
C792 C791 1.523 . S
H793 C768 0.950 . S
H794 C770 0.950 . S
H795 C771 0.949 . S
H796 C773 0.950 . S
H797 C775 0.950 . S
C798 C799 1.349 . S
C798 C800 1.327 . S
C798 H823 0.950 . S
C799 C798 1.349 . S
C799 C815 1.349 . S
C800 C798 1.327 . S
C800 C819 1.429 . S
C800 H824 0.950 . S
C801 C818 1.574 1_554 S
C801 C820 1.368 . S
C801 H825 0.949 . S
H802 C806 0.949 . S
C803 C804 1.349 . S
C803 C805 1.327 . S
C803 H826 0.950 . S
C804 C803 1.349 . S
C804 C816 1.349 1_545 S
C805 C803 1.327 . S
C805 C821 1.429 1_545 S
C805 H827 0.950 . S
C806 H802 0.949 . S
C806 C814 1.574 1_556 S
C806 C822 1.368 . S
H807 C815 0.950 . S
H808 C813 0.950 . S
H809 C814 0.949 . S
H810 C816 0.950 . S
H811 C817 0.950 . S
H812 C818 0.949 1_545 S
C813 H808 0.950 . S
C813 C815 1.327 . S
C813 C819 1.429 . S
C814 C806 1.574 1_554 S
C814 H809 0.949 . S
C814 C820 1.368 . S
C815 C799 1.349 . S
C815 H807 0.950 . S
C815 C813 1.327 . S
C816 C804 1.349 1_565 S
C816 H810 0.950 . S
C816 C817 1.327 . S
C817 H811 0.950 . S
C817 C816 1.327 . S
C817 C821 1.429 . S
C818 C801 1.574 1_556 S
C818 H812 0.949 1_565 S
C818 C822 1.368 . S
C819 C800 1.429 . S
C819 C813 1.429 . S
C819 C820 1.523 . S
C820 C801 1.368 . S
C820 C814 1.368 . S
C820 C819 1.523 . S
C821 C805 1.429 1_565 S
C821 C817 1.429 . S
C821 C822 1.523 . S
C822 C806 1.368 . S
C822 C818 1.368 . S
C822 C821 1.523 . S
H823 C798 0.950 . S
H824 C800 0.950 . S
H825 C801 0.949 . S
H826 C803 0.950 . S
H827 C805 0.950 . S
C828 C829 1.349 . S
C828 C830 1.327 . S
C828 H853 0.950 . S
C829 C828 1.349 . S
C829 C845 1.349 . S
C830 C828 1.327 . S
C830 C849 1.429 . S
C830 H854 0.950 . S
C831 C848 1.574 . S
C831 C850 1.368 1_556 S
C831 H855 0.949 . S
H832 C836 0.949 . S
C833 C834 1.349 . S
C833 C835 1.327 . S
C833 H856 0.950 . S
C834 C833 1.349 . S
C834 C846 1.349 . S
C835 C833 1.327 . S
C835 C851 1.429 . S
C835 H857 0.950 . S
C836 H832 0.949 . S
C836 C844 1.574 . S
C836 C852 1.368 1_554 S
H837 C845 0.950 . S
H838 C843 0.950 . S
H839 C844 0.949 . S
H840 C846 0.950 . S
H841 C847 0.950 . S
H842 C848 0.949 . S
C843 H838 0.950 . S
C843 C845 1.327 . S
C843 C849 1.429 . S
C844 C836 1.574 . S
C844 H839 0.949 . S
C844 C850 1.368 . S
C845 C829 1.349 . S
C845 H837 0.950 . S
C845 C843 1.327 . S
C846 C834 1.349 . S
C846 H840 0.950 . S
C846 C847 1.327 . S
C847 H841 0.950 . S
C847 C846 1.327 . S
C847 C851 1.429 . S
C848 C831 1.574 . S
C848 H842 0.949 . S
C848 C852 1.368 . S
C849 C830 1.429 . S
C849 C843 1.429 . S
C849 C850 1.523 . S
C850 C831 1.368 1_554 S
C850 C844 1.368 . S
C850 C849 1.523 . S
C851 C835 1.429 . S
C851 C847 1.429 . S
C851 C852 1.523 . S
C852 C836 1.368 1_556 S
C852 C848 1.368 . S
C852 C851 1.523 . S
H853 C828 0.950 . S
H854 C830 0.950 . S
H855 C831 0.949 . S
H856 C833 0.950 . S
H857 C835 0.950 . S
C858 C859 1.349 . S
C858 C860 1.327 . S
C858 H883 0.950 . S
C859 C858 1.349 . S
C859 C875 1.349 . S
C860 C858 1.327 . S
C860 C879 1.429 . S
C860 H884 0.950 . S
C861 C878 1.574 1_554 S
C861 C880 1.368 . S
C861 H885 0.949 . S
H862 C866 0.949 . S
C863 C864 1.349 . S
C863 C865 1.327 . S
C863 H886 0.950 . S
C864 C863 1.349 . S
C864 C876 1.349 . S
C865 C863 1.327 . S
C865 C881 1.429 . S
C865 H887 0.950 . S
C866 H862 0.949 . S
C866 C874 1.574 1_556 S
C866 C882 1.368 . S
H867 C875 0.950 . S
H868 C873 0.950 . S
H869 C874 0.949 . S
H870 C876 0.950 . S
H871 C877 0.950 . S
H872 C878 0.949 . S
C873 H868 0.950 . S
C873 C875 1.327 . S
C873 C879 1.429 . S
C874 C866 1.574 1_554 S
C874 H869 0.949 . S
C874 C880 1.368 . S
C875 C859 1.349 . S
C875 H867 0.950 . S
C875 C873 1.327 . S
C876 C864 1.349 . S
C876 H870 0.950 . S
C876 C877 1.327 . S
C877 H871 0.950 . S
C877 C876 1.327 . S
C877 C881 1.429 . S
C878 C861 1.574 1_556 S
C878 H872 0.949 . S
C878 C882 1.368 . S
C879 C860 1.429 . S
C879 C873 1.429 . S
C879 C880 1.523 . S
C880 C861 1.368 . S
C880 C874 1.368 . S
C880 C879 1.523 . S
C881 C865 1.429 . S
C881 C877 1.429 . S
C881 C882 1.523 . S
C882 C866 1.368 . S
C882 C878 1.368 . S
C882 C881 1.523 . S
H883 C858 0.950 . S
H884 C860 0.950 . S
H885 C861 0.949 . S
H886 C863 0.950 . S
H887 C865 0.950 . S
C888 C889 1.349 . S
C888 C890 1.327 . S
C888 H913 0.950 . S
C889 C888 1.349 . S
C889 C905 1.349 . S
C890 C888 1.327 . S
C890 C909 1.429 . S
C890 H914 0.950 . S
C891 C908 1.574 . S
C891 C910 1.368 . S
C891 H915 0.949 . S
H892 C896 0.949 . S
C893 C894 1.349 . S
C893 C895 1.327 . S
C893 H916 0.950 . S
C894 C893 1.349 . S
C894 C906 1.349 . S
C895 C893 1.327 . S
C895 C911 1.429 . S
C895 H917 0.950 . S
C896 H892 0.949 . S
C896 C904 1.574 . S
C896 C912 1.368 . S
H897 C905 0.950 . S
H898 C903 0.950 . S
H899 C904 0.949 . S
H900 C906 0.950 . S
H901 C907 0.950 . S
H902 C908 0.949 . S
C903 H898 0.950 . S
C903 C905 1.327 . S
C903 C909 1.429 . S
C904 C896 1.574 . S
C904 H899 0.949 . S
C904 C910 1.368 . S
C905 C889 1.349 . S
C905 H897 0.950 . S
C905 C903 1.327 . S
C906 C894 1.349 . S
C906 H900 0.950 . S
C906 C907 1.327 . S
C907 H901 0.950 . S
C907 C906 1.327 . S
C907 C911 1.429 . S
C908 C891 1.574 . S
C908 H902 0.949 . S
C908 C912 1.368 . S
C909 C890 1.429 . S
C909 C903 1.429 . S
C909 C910 1.523 . S
C910 C891 1.368 . S
C910 C904 1.368 . S
C910 C909 1.523 . S
C911 C895 1.429 . S
C911 C907 1.429 . S
C911 C912 1.523 . S
C912 C896 1.368 . S
C912 C908 1.368 . S
C912 C911 1.523 . S
H913 C888 0.950 . S
H914 C890 0.950 . S
H915 C891 0.949 . S
H916 C893 0.950 . S
H917 C895 0.950 . S
C918 C919 1.349 . S
C918 C920 1.327 . S
C918 H943 0.950 . S
C919 C918 1.349 . S
C919 C935 1.349 . S
C920 C918 1.327 . S
C920 C939 1.429 . S
C920 H944 0.950 . S
C921 C938 1.574 . S
C921 C940 1.368 . S
C921 H945 0.949 . S
H922 C926 0.949 . S
C923 C924 1.349 . S
C923 C925 1.327 . S
C923 H946 0.950 . S
C924 C923 1.349 . S
C924 C936 1.349 . S
C925 C923 1.327 . S
C925 C941 1.429 . S
C925 H947 0.950 . S
C926 H922 0.949 . S
C926 C934 1.574 . S
C926 C942 1.368 . S
H927 C935 0.950 . S
H928 C933 0.950 . S
H929 C934 0.949 . S
H930 C936 0.950 . S
H931 C937 0.950 . S
H932 C938 0.949 . S
C933 H928 0.950 . S
C933 C935 1.327 . S
C933 C939 1.429 . S
C934 C926 1.574 . S
C934 H929 0.949 . S
C934 C940 1.368 . S
C935 C919 1.349 . S
C935 H927 0.950 . S
C935 C933 1.327 . S
C936 C924 1.349 . S
C936 H930 0.950 . S
C936 C937 1.327 . S
C937 H931 0.950 . S
C937 C936 1.327 . S
C937 C941 1.429 . S
C938 C921 1.574 . S
C938 H932 0.949 . S
C938 C942 1.368 . S
C939 C920 1.429 . S
C939 C933 1.429 . S
C939 C940 1.523 . S
C940 C921 1.368 . S
C940 C934 1.368 . S
C940 C939 1.523 . S
C941 C925 1.429 . S
C941 C937 1.429 . S
C941 C942 1.523 . S
C942 C926 1.368 . S
C942 C938 1.368 . S
C942 C941 1.523 . S
H943 C918 0.950 . S
H944 C920 0.950 . S
H945 C921 0.949 . S
H946 C923 0.950 . S
H947 C925 0.950 . S
C948 C949 1.349 . S
C948 C950 1.327 . S
C948 H973 0.950 . S
C949 C948 1.349 . S
C949 C965 1.349 . S
C950 C948 1.327 . S
C950 C969 1.429 . S
C950 H974 0.950 . S
C951 C968 1.574 . S
C951 C970 1.368 . S
C951 H975 0.949 . S
H952 C956 0.949 . S
C953 C954 1.349 . S
C953 C955 1.327 . S
C953 H976 0.950 . S
C954 C953 1.349 . S
C954 C966 1.349 . S
C955 C953 1.327 . S
C955 C971 1.429 . S
C955 H977 0.950 . S
C956 H952 0.949 . S
C956 C964 1.574 . S
C956 C972 1.368 . S
H957 C965 0.950 . S
H958 C963 0.950 . S
H959 C964 0.949 . S
H960 C966 0.950 . S
H961 C967 0.950 . S
H962 C968 0.949 . S
C963 H958 0.950 . S
C963 C965 1.327 . S
C963 C969 1.429 . S
C964 C956 1.574 . S
C964 H959 0.949 . S
C964 C970 1.368 . S
C965 C949 1.349 . S
C965 H957 0.950 . S
C965 C963 1.327 . S
C966 C954 1.349 . S
C966 H960 0.950 . S
C966 C967 1.327 . S
C967 H961 0.950 . S
C967 C966 1.327 . S
C967 C971 1.429 . S
C968 C951 1.574 . S
C968 H962 0.949 . S
C968 C972 1.368 . S
C969 C950 1.429 . S
C969 C963 1.429 . S
C969 C970 1.523 . S
C970 C951 1.368 . S
C970 C964 1.368 . S
C970 C969 1.523 . S
C971 C955 1.429 . S
C971 C967 1.429 . S
C971 C972 1.523 . S
C972 C956 1.368 . S
C972 C968 1.368 . S
C972 C971 1.523 . S
H973 C948 0.950 . S
H974 C950 0.950 . S
H975 C951 0.949 . S
H976 C953 0.950 . S
H977 C955 0.950 . S
C978 C979 1.349 . S
C978 C980 1.327 . S
C978 H1003 0.950 . S
C979 C978 1.349 . S
C979 C995 1.349 . S
C980 C978 1.327 . S
C980 C999 1.429 . S
C980 H1004 0.950 . S
C981 C998 1.574 . S
C981 C1000 1.368 . S
C981 H1005 0.949 . S
H982 C986 0.949 . S
C983 C984 1.349 . S
C983 C985 1.327 . S
C983 H1006 0.950 . S
C984 C983 1.349 . S
C984 C996 1.349 . S
C985 C983 1.327 . S
C985 C1001 1.429 . S
C985 H1007 0.950 . S
C986 H982 0.949 . S
C986 C994 1.574 . S
C986 C1002 1.368 . S
H987 C995 0.950 . S
H988 C993 0.950 . S
H989 C994 0.949 . S
H990 C996 0.950 . S
H991 C997 0.950 . S
H992 C998 0.949 . S
C993 H988 0.950 . S
C993 C995 1.327 . S
C993 C999 1.429 . S
C994 C986 1.574 . S
C994 H989 0.949 . S
C994 C1000 1.368 . S
C995 C979 1.349 . S
C995 H987 0.950 . S
C995 C993 1.327 . S
C996 C984 1.349 . S
C996 H990 0.950 . S
C996 C997 1.327 . S
C997 H991 0.950 . S
C997 C996 1.327 . S
C997 C1001 1.429 . S
C998 C981 1.574 . S
C998 H992 0.949 . S
C998 C1002 1.368 . S
C999 C980 1.429 . S
C999 C993 1.429 . S
C999 C1000 1.523 . S
C1000 C981 1.368 . S
C1000 C994 1.368 . S
C1000 C999 1.523 . S
C1001 C985 1.429 . S
C1001 C997 1.429 . S
C1001 C1002 1.523 . S
C1002 C986 1.368 . S
C1002 C998 1.368 . S
C1002 C1001 1.523 . S
H1003 C978 0.950 . S
H1004 C980 0.950 . S
H1005 C981 0.949 . S
H1006 C983 0.950 . S
H1007 C985 0.950 . S
C1008 C1009 1.349 . S
C1008 C1010 1.327 . S
C1008 H1033 0.950 . S
C1009 C1008 1.349 . S
C1009 C1025 1.349 . S
C1010 C1008 1.327 . S
C1010 C1029 1.429 . S
C1010 H1034 0.950 . S
C1011 C1028 1.574 . S
C1011 C1030 1.368 . S
C1011 H1035 0.949 . S
H1012 C1016 0.949 . S
C1013 C1014 1.349 . S
C1013 C1015 1.327 . S
C1013 H1036 0.950 1_655 S
C1014 C1013 1.349 . S
C1014 C1026 1.349 . S
C1015 C1013 1.327 . S
C1015 C1031 1.429 . S
C1015 H1037 0.950 . S
C1016 H1012 0.949 . S
C1016 C1024 1.574 . S
C1016 C1032 1.368 . S
H1017 C1025 0.950 . S
H1018 C1023 0.950 . S
H1019 C1024 0.949 . S
H1020 C1026 0.950 . S
H1021 C1027 0.950 . S
H1022 C1028 0.949 . S
C1023 H1018 0.950 . S
C1023 C1025 1.327 . S
C1023 C1029 1.429 . S
C1024 C1016 1.574 . S
C1024 H1019 0.949 . S
C1024 C1030 1.368 . S
C1025 C1009 1.349 . S
C1025 H1017 0.950 . S
C1025 C1023 1.327 . S
C1026 C1014 1.349 . S
C1026 H1020 0.950 . S
C1026 C1027 1.327 . S
C1027 H1021 0.950 . S
C1027 C1026 1.327 . S
C1027 C1031 1.429 . S
C1028 C1011 1.574 . S
C1028 H1022 0.949 . S
C1028 C1032 1.368 . S
C1029 C1010 1.429 . S
C1029 C1023 1.429 . S
C1029 C1030 1.523 . S
C1030 C1011 1.368 . S
C1030 C1024 1.368 . S
C1030 C1029 1.523 . S
C1031 C1015 1.429 . S
C1031 C1027 1.429 . S
C1031 C1032 1.523 . S
C1032 C1016 1.368 . S
C1032 C1028 1.368 . S
C1032 C1031 1.523 . S
H1033 C1008 0.950 . S
H1034 C1010 0.950 . S
H1035 C1011 0.949 . S
H1036 C1013 0.950 1_455 S
H1037 C1015 0.950 . S
C1038 C1039 1.349 . S
C1038 C1040 1.327 . S
C1038 H1063 0.950 . S
C1039 C1038 1.349 . S
C1039 C1055 1.349 . S
C1040 C1038 1.327 . S
C1040 C1059 1.429 . S
C1040 H1064 0.950 . S
C1041 C1058 1.574 . S
C1041 C1060 1.368 . S
C1041 H1065 0.949 . S
H1042 C1046 0.949 . S
C1043 C1044 1.349 . S
C1043 C1045 1.327 . S
C1043 H1066 0.950 . S
C1044 C1043 1.349 . S
C1044 C1056 1.349 . S
C1045 C1043 1.327 . S
C1045 C1061 1.429 . S
C1045 H1067 0.950 . S
C1046 H1042 0.949 . S
C1046 C1054 1.574 . S
C1046 C1062 1.368 . S
H1047 C1055 0.950 . S
H1048 C1053 0.950 . S
H1049 C1054 0.949 . S
H1050 C1056 0.950 . S
H1051 C1057 0.950 . S
H1052 C1058 0.949 . S
C1053 H1048 0.950 . S
C1053 C1055 1.327 . S
C1053 C1059 1.429 . S
C1054 C1046 1.574 . S
C1054 H1049 0.949 . S
C1054 C1060 1.368 . S
C1055 C1039 1.349 . S
C1055 H1047 0.950 . S
C1055 C1053 1.327 . S
C1056 C1044 1.349 . S
C1056 H1050 0.950 . S
C1056 C1057 1.327 . S
C1057 H1051 0.950 . S
C1057 C1056 1.327 . S
C1057 C1061 1.429 . S
C1058 C1041 1.574 . S
C1058 H1052 0.949 . S
C1058 C1062 1.368 . S
C1059 C1040 1.429 . S
C1059 C1053 1.429 . S
C1059 C1060 1.523 . S
C1060 C1041 1.368 . S
C1060 C1054 1.368 . S
C1060 C1059 1.523 . S
C1061 C1045 1.429 . S
C1061 C1057 1.429 . S
C1061 C1062 1.523 . S
C1062 C1046 1.368 . S
C1062 C1058 1.368 . S
C1062 C1061 1.523 . S
H1063 C1038 0.950 . S
H1064 C1040 0.950 . S
H1065 C1041 0.949 . S
H1066 C1043 0.950 . S
H1067 C1045 0.950 . S
C1068 C1069 1.349 . S
C1068 C1070 1.327 . S
C1068 H1093 0.950 . S
C1069 C1068 1.349 . S
C1069 C1085 1.349 . S
C1070 C1068 1.327 . S
C1070 C1089 1.429 . S
C1070 H1094 0.950 . S
C1071 C1088 1.574 . S
C1071 C1090 1.368 . S
C1071 H1095 0.949 . S
H1072 C1076 0.949 . S
C1073 C1074 1.349 . S
C1073 C1075 1.327 . S
C1073 H1096 0.950 . S
C1074 C1073 1.349 . S
C1074 C1086 1.349 . S
C1075 C1073 1.327 . S
C1075 C1091 1.429 . S
C1075 H1097 0.950 . S
C1076 H1072 0.949 . S
C1076 C1084 1.574 . S
C1076 C1092 1.368 . S
H1077 C1085 0.950 . S
H1078 C1083 0.950 . S
H1079 C1084 0.949 . S
H1080 C1086 0.950 . S
H1081 C1087 0.950 . S
H1082 C1088 0.949 . S
C1083 H1078 0.950 . S
C1083 C1085 1.327 . S
C1083 C1089 1.429 . S
C1084 C1076 1.574 . S
C1084 H1079 0.949 . S
C1084 C1090 1.368 . S
C1085 C1069 1.349 . S
C1085 H1077 0.950 . S
C1085 C1083 1.327 . S
C1086 C1074 1.349 . S
C1086 H1080 0.950 . S
C1086 C1087 1.327 . S
C1087 H1081 0.950 . S
C1087 C1086 1.327 . S
C1087 C1091 1.429 . S
C1088 C1071 1.574 . S
C1088 H1082 0.949 . S
C1088 C1092 1.368 . S
C1089 C1070 1.429 . S
C1089 C1083 1.429 . S
C1089 C1090 1.523 . S
C1090 C1071 1.368 . S
C1090 C1084 1.368 . S
C1090 C1089 1.523 . S
C1091 C1075 1.429 . S
C1091 C1087 1.429 . S
C1091 C1092 1.523 . S
C1092 C1076 1.368 . S
C1092 C1088 1.368 . S
C1092 C1091 1.523 . S
H1093 C1068 0.950 . S
H1094 C1070 0.950 . S
H1095 C1071 0.949 . S
H1096 C1073 0.950 . S
H1097 C1075 0.950 . S
C1098 C1099 1.349 . S
C1098 C1100 1.327 . S
C1098 H1123 0.950 . S
C1099 C1098 1.349 . S
C1099 C1115 1.349 . S
C1100 C1098 1.327 . S
C1100 C1119 1.429 . S
C1100 H1124 0.950 . S
C1101 C1118 1.574 . S
C1101 C1120 1.368 . S
C1101 H1125 0.949 . S
H1102 C1106 0.949 . S
C1103 C1104 1.349 . S
C1103 C1105 1.327 . S
C1103 H1126 0.950 . S
C1104 C1103 1.349 . S
C1104 C1116 1.349 . S
C1105 C1103 1.327 . S
C1105 C1121 1.429 . S
C1105 H1127 0.950 . S
C1106 H1102 0.949 . S
C1106 C1114 1.574 . S
C1106 C1122 1.368 . S
H1107 C1115 0.950 . S
H1108 C1113 0.950 . S
H1109 C1114 0.949 . S
H1110 C1116 0.950 . S
H1111 C1117 0.950 . S
H1112 C1118 0.949 . S
C1113 H1108 0.950 . S
C1113 C1115 1.327 . S
C1113 C1119 1.429 . S
C1114 C1106 1.574 . S
C1114 H1109 0.949 . S
C1114 C1120 1.368 . S
C1115 C1099 1.349 . S
C1115 H1107 0.950 . S
C1115 C1113 1.327 . S
C1116 C1104 1.349 . S
C1116 H1110 0.950 . S
C1116 C1117 1.327 . S
C1117 H1111 0.950 . S
C1117 C1116 1.327 . S
C1117 C1121 1.429 . S
C1118 C1101 1.574 . S
C1118 H1112 0.949 . S
C1118 C1122 1.368 . S
C1119 C1100 1.429 . S
C1119 C1113 1.429 . S
C1119 C1120 1.523 . S
C1120 C1101 1.368 . S
C1120 C1114 1.368 . S
C1120 C1119 1.523 . S
C1121 C1105 1.429 . S
C1121 C1117 1.429 . S
C1121 C1122 1.523 . S
C1122 C1106 1.368 . S
C1122 C1118 1.368 . S
C1122 C1121 1.523 . S
H1123 C1098 0.950 . S
H1124 C1100 0.950 . S
H1125 C1101 0.949 . S
H1126 C1103 0.950 . S
H1127 C1105 0.950 . S
C409 C61 1.715 . S
C414 C146 1.756 . S
C444 C230 1.784 . S
C439 C70 1.756 . S
C474 C296 1.793 . S
C469 C43 1.858 . S
C504 C380 1.773 . S
C499 C52 1.837 . S
C534 C135 1.756 1_565 S
C529 C25 1.719 . S
C559 C34 1.752 . S
C564 C219 1.785 . S
C589 C7 1.862 . S
C594 C307 1.793 . S
C619 C16 1.842 . S
C624 C391 1.773 . S
C654 C142 0.461 . S
C649 C50 0.409 . S
C684 C226 0.464 . S
C679 C59 0.378 . S
C714 C298 0.488 . S
C709 C67 0.334 . S
C739 C41 0.378 . S
C744 C382 0.486 . S
C769 C14 0.392 . S
C774 C130 0.451 . S
C804 C214 0.442 . S
C799 C23 0.359 . S
C834 C310 0.488 . S
C829 C31 0.347 . S
C859 C5 0.356 . S
C864 C394 0.486 . S
C889 C49 1.899 . S
C894 C139 1.964 . S
C919 C58 1.861 . S
C924 C223 1.927 . S
C954 C303 1.875 . S
C949 C68 1.750 . S
C984 C387 1.903 . S
C979 C40 1.774 . S
C1009 C13 1.902 . S
C1014 C128 1.965 . S
C1044 C212 1.927 . S
C1039 C22 1.864 . S
C1074 C314 1.875 . S
C1069 C32 1.745 . S
C1099 C4 1.777 . S
C1104 C398 1.903 . S
