# Generated by pormake.
# Topology zzz, (3,6)-cn, num edge types: 1
# Building blocks:
#     Node 0, Type 0, BuildingBlock: MIDCAF_clean_linker_0, # of connection points: 3
#     Node 1, Type 0, BuildingBlock: MIDCAF_clean_linker_0, # of connection points: 3
#     Node 2, Type 0, BuildingBlock: MIDCAF_clean_linker_0, # of connection points: 3
#     Node 3, Type 0, BuildingBlock: MIDCAF_clean_linker_0, # of connection points: 3
#     Node 4, Type 0, BuildingBlock: MIDCAF_clean_linker_0, # of connection points: 3
#     Node 5, Type 0, BuildingBlock: MIDCAF_clean_linker_0, # of connection points: 3
#     Node 6, Type 0, BuildingBlock: MIDCAF_clean_linker_0, # of connection points: 3
#     Node 7, Type 0, BuildingBlock: MIDCAF_clean_linker_0, # of connection points: 3
#     Node 8, Type 1, BuildingBlock: BETDEL_clean_sbu_0, # of connection points: 6
#     Node 9, Type 1, BuildingBlock: BETDEL_clean_sbu_0, # of connection points: 6
#     Node 10, Type 1, BuildingBlock: BETDEL_clean_sbu_0, # of connection points: 6
#     Node 11, Type 1, BuildingBlock: BETDEL_clean_sbu_0, # of connection points: 6
#     Edge 12, Type (0, 1), BuildingBlock: EZIPEK_clean_linker_0, # of connection points: 2
#     Edge 13, Type (0, 1), BuildingBlock: EZIPEK_clean_linker_0, # of connection points: 2
#     Edge 14, Type (0, 1), BuildingBlock: EZIPEK_clean_linker_0, # of connection points: 2
#     Edge 15, Type (0, 1), BuildingBlock: EZIPEK_clean_linker_0, # of connection points: 2
#     Edge 16, Type (0, 1), BuildingBlock: EZIPEK_clean_linker_0, # of connection points: 2
#     Edge 17, Type (0, 1), BuildingBlock: EZIPEK_clean_linker_0, # of connection points: 2
#     Edge 18, Type (0, 1), BuildingBlock: EZIPEK_clean_linker_0, # of connection points: 2
#     Edge 19, Type (0, 1), BuildingBlock: EZIPEK_clean_linker_0, # of connection points: 2
#     Edge 20, Type (0, 1), BuildingBlock: EZIPEK_clean_linker_0, # of connection points: 2
#     Edge 21, Type (0, 1), BuildingBlock: EZIPEK_clean_linker_0, # of connection points: 2
#     Edge 22, Type (0, 1), BuildingBlock: EZIPEK_clean_linker_0, # of connection points: 2
#     Edge 23, Type (0, 1), BuildingBlock: EZIPEK_clean_linker_0, # of connection points: 2
#     Edge 24, Type (0, 1), BuildingBlock: EZIPEK_clean_linker_0, # of connection points: 2
#     Edge 25, Type (0, 1), BuildingBlock: EZIPEK_clean_linker_0, # of connection points: 2
#     Edge 26, Type (0, 1), BuildingBlock: EZIPEK_clean_linker_0, # of connection points: 2
#     Edge 27, Type (0, 1), BuildingBlock: EZIPEK_clean_linker_0, # of connection points: 2
#     Edge 28, Type (0, 1), BuildingBlock: EZIPEK_clean_linker_0, # of connection points: 2
#     Edge 29, Type (0, 1), BuildingBlock: EZIPEK_clean_linker_0, # of connection points: 2
#     Edge 30, Type (0, 1), BuildingBlock: EZIPEK_clean_linker_0, # of connection points: 2
#     Edge 31, Type (0, 1), BuildingBlock: EZIPEK_clean_linker_0, # of connection points: 2
#     Edge 32, Type (0, 1), BuildingBlock: EZIPEK_clean_linker_0, # of connection points: 2
#     Edge 33, Type (0, 1), BuildingBlock: EZIPEK_clean_linker_0, # of connection points: 2
#     Edge 34, Type (0, 1), BuildingBlock: EZIPEK_clean_linker_0, # of connection points: 2
#     Edge 35, Type (0, 1), BuildingBlock: EZIPEK_clean_linker_0, # of connection points: 2
# Relax obj value: 0.353
# Max RMSD: 0.231
# Mean RMSD: 0.213
data_MOF--net-zzz--node1-BETDEL_clean_sbu_0--node2-MIDCAF_clean_linker_0--edge1-EZIPEK_clean_linker_0
_symmetry_space_group_name_H-M    P1
_symmetry_Int_Tables_number       1
_symmetry_cell_setting            triclinic
loop_
_symmetry_equiv_pos_as_xyz
'x, y, z'
_cell_length_a     43.724917
_cell_length_b     43.615012
_cell_length_c     15.434841
_cell_angle_alpha  90.763554
_cell_angle_beta   89.388467
_cell_angle_gamma 95.550445
loop_
_atom_site_label
_atom_site_type_symbol
_atom_site_fract_x
_atom_site_fract_y
_atom_site_fract_z
_atom_type_partial_charge
C0 C 0.83034 0.52747 0.21654 0.0
C1 C 0.83577 0.50836 0.28626 0.0
C2 C 0.81412 0.48341 0.30511 0.0
C3 C 0.78925 0.47577 0.24985 0.0
H4 H 0.69067 0.50789 0.02148 0.0
H5 H 0.64724 0.51875 0.92929 0.0
H6 H 0.68839 0.4743 0.71268 0.0
H7 H 0.73134 0.46366 0.80223 0.0
H8 H 0.79108 0.43519 0.81949 0.0
H9 H 0.84067 0.42287 0.76334 0.0
H10 H 0.86252 0.38676 0.0114 0.0
H11 H 0.81311 0.40019 0.06961 0.0
H12 H 0.80348 0.53314 0.10315 0.0
H13 H 0.84689 0.54672 0.20055 0.0
H14 H 0.81794 0.46827 0.35819 0.0
H15 H 0.77488 0.45447 0.26054 0.0
N16 N 0.74792 0.48802 0.05222 0.0
N17 N 0.75446 0.45022 0.94483 0.0
N18 N 0.78496 0.45282 0.06792 0.0
C19 C 0.73917 0.47397 0.97509 0.0
C20 C 0.77717 0.4394 0.99099 0.0
C21 C 0.77078 0.47693 0.09922 0.0
C22 C 0.71442 0.48454 0.91996 0.0
C23 C 0.69069 0.50095 0.95386 0.0
C24 C 0.66586 0.50716 0.90131 0.0
C25 C 0.66458 0.49719 0.81412 0.0
C26 C 0.68887 0.48213 0.77963 0.0
C27 C 0.7134 0.47593 0.83153 0.0
C28 C 0.79873 0.41957 0.94968 0.0
C29 C 0.80571 0.42332 0.86123 0.0
C30 C 0.83416 0.41638 0.82901 0.0
C31 C 0.85554 0.40505 0.88441 0.0
C32 C 0.84641 0.39606 0.96841 0.0
C33 C 0.8182 0.40373 1.00142 0.0
C34 C 0.78539 0.49308 0.17514 0.0
C35 C 0.80523 0.51996 0.1616 0.0
C36 C 0.96526 0.80103 0.33649 0.0
C37 C 0.98895 0.8157 0.38728 0.0
C38 C 0.01658 0.80212 0.39435 0.0
C39 C 0.0222 0.77706 0.34113 0.0
H40 H 0.99541 0.72119 0.89682 0.0
H41 H 0.98957 0.67416 0.80833 0.0
H42 H 1.00228 0.61991 0.03419 0.0
H43 H 0.00745 0.66718 0.12428 0.0
H44 H 0.0326 0.79125 0.89705 0.0
H45 H 0.04522 0.8424 0.8348 0.0
H46 H 0.08697 0.87483 0.07493 0.0
H47 H 0.07434 0.82401 0.13799 0.0
H48 H 0.9539 0.76784 0.23544 0.0
H49 H 0.9438 0.81127 0.33012 0.0
H50 H 0.03512 0.81311 0.43319 0.0
H51 H 0.04522 0.76982 0.33888 0.0
N52 N 1.00254 0.7304 0.15116 0.0
N53 N 0.02773 0.75016 0.02473 0.0
N54 N 0.02958 0.77959 0.15201 0.0
C55 C 0.01091 0.72672 0.06626 0.0
C56 C 0.03741 0.77654 0.06784 0.0
C57 C 0.01224 0.75705 0.19408 0.0
C58 C 1.00203 0.69784 0.01738 0.0
C59 C 0.99623 0.6992 0.92816 0.0
C60 C 0.99276 0.67237 0.87754 0.0
C61 C 0.99548 0.64363 0.91471 0.0
C62 C 0.99985 0.6419 0.00456 0.0
C63 C 1.00276 0.66886 0.05583 0.0
C64 C 0.05215 0.80378 0.02265 0.0
C65 C 0.04544 0.80893 0.93554 0.0
C66 C 0.05252 0.83811 0.90003 0.0
C67 C 0.06669 0.86223 0.95088 0.0
C68 C 0.07599 0.8564 0.03507 0.0
C69 C 0.06868 0.82739 0.07084 0.0
C70 C 1.00039 0.76557 0.27963 0.0
C71 C 0.97092 0.77588 0.28317 0.0
C72 C 0.69837 0.0413 0.34594 0.0
C73 C 0.6829 0.01161 0.34308 0.0
C74 C 0.69601 0.98841 0.29525 0.0
C75 C 0.7225 0.99558 0.2442 0.0
H76 H 0.84914 0.03942 0.10128 0.0
H77 H 0.8947 0.03084 0.01182 0.0
H78 H 0.83591 0.98772 0.81375 0.0
H79 H 0.79062 0.99678 0.90171 0.0
H80 H 0.73626 0.04999 0.86237 0.0
H81 H 0.69146 0.06478 0.78566 0.0
H82 H 0.67423 0.1287 0.99202 0.0
H83 H 0.71831 0.11284 0.0713 0.0
H84 H 0.73419 0.07231 0.29125 0.0
H85 H 0.68861 0.05957 0.38193 0.0
H86 H 0.68432 0.96538 0.2917 0.0
H87 H 0.73023 0.97805 0.20108 0.0
N88 N 0.77813 0.02347 0.12866 0.0
N89 N 0.77452 0.05062 0.99847 0.0
N90 N 0.73942 0.05666 0.1108 0.0
C91 C 0.78934 0.03126 0.04781 0.0
C92 C 0.74984 0.06371 0.03017 0.0
C93 C 0.75301 0.03659 0.16035 0.0
C94 C 0.81643 0.0183 0.00887 0.0
C95 C 0.84611 0.027 0.04024 0.0
C96 C 0.87209 0.02234 0.98891 0.0
C97 C 0.86866 0.00863 0.90609 0.0
C98 C 0.83909 0.99813 0.87754 0.0
C99 C 0.81325 1.00316 0.92805 0.0
C100 C 0.73037 0.08003 0.97307 0.0
C101 C 0.72361 0.068 0.88995 0.0
C102 C 0.69793 0.07629 0.84633 0.0
C103 C 0.67919 0.09715 0.88458 0.0
C104 C 0.68824 0.11218 0.96242 0.0
C105 C 0.71339 0.10321 0.00732 0.0
C106 C 0.73602 0.02611 0.23976 0.0
C107 C 0.72461 0.04849 0.2946 0.0
C108 C 0.56715 0.64572 0.03311 0.0
C109 C 0.55057 0.63991 0.95674 0.0
C110 C 0.54077 0.66457 0.91012 0.0
C111 C 0.54551 0.69463 0.9434 0.0
H112 H 0.54368 0.78931 0.90718 0.0
H113 H 0.53811 0.83636 0.8291 0.0
H114 H 0.53031 0.88586 0.07037 0.0
H115 H 0.53601 0.83832 0.15086 0.0
H116 H 0.49346 0.73987 0.29097 0.0
H117 H 0.48513 0.69451 0.38291 0.0
H118 H 0.58285 0.69565 0.41753 0.0
H119 H 0.59107 0.74136 0.32769 0.0
H120 H 0.58363 0.67917 0.12747 0.0
H121 H 0.57494 0.62693 0.06952 0.0
H122 H 0.52801 0.66029 0.85069 0.0
H123 H 0.53581 0.71302 0.90981 0.0
N124 N 0.55169 0.75557 0.03386 0.0
N125 N 0.54269 0.77824 0.17067 0.0
N126 N 0.55557 0.72736 0.15939 0.0
C127 C 0.54512 0.78064 0.08208 0.0
C128 C 0.5484 0.7513 0.209 0.0
C129 C 0.55715 0.72897 0.07257 0.0
C130 C 0.54037 0.80976 0.03603 0.0
C131 C 0.54074 0.81001 0.9446 0.0
C132 C 0.53756 0.83699 0.89931 0.0
C133 C 0.53385 0.8646 0.9437 0.0
C134 C 0.53315 0.86472 0.03488 0.0
C135 C 0.53635 0.83751 0.08072 0.0
C136 C 0.54295 0.74403 0.30116 0.0
C137 C 0.51298 0.73206 0.32398 0.0
C138 C 0.50823 0.70559 0.37512 0.0
C139 C 0.53345 0.69103 0.40463 0.0
C140 C 0.56305 0.70619 0.39463 0.0
C141 C 0.56769 0.73282 0.34452 0.0
C142 C 0.56 0.70013 0.02364 0.0
C143 C 0.5721 0.67561 0.06584 0.0
C144 C 0.19312 0.54231 0.82671 0.0
C145 C 0.18547 0.5115 0.80195 0.0
C146 C 0.20342 0.48898 0.83414 0.0
C147 C 0.22626 0.49689 0.89687 0.0
H148 H 0.28212 0.5122 0.2941 0.0
H149 H 0.32637 0.5003 0.3776 0.0
H150 H 0.38066 0.49864 0.1433 0.0
H151 H 0.33599 0.51108 0.05825 0.0
H152 H 0.22704 0.5566 0.30178 0.0
H153 H 0.17972 0.57417 0.36123 0.0
H154 H 0.17659 0.63756 0.15027 0.0
H155 H 0.22345 0.61921 0.08847 0.0
H156 H 0.22046 0.57427 0.90558 0.0
H157 H 0.18018 0.56032 0.80251 0.0
H158 H 0.19851 0.46508 0.81469 0.0
H159 H 0.23777 0.47882 0.92633 0.0
N160 N 0.2707 0.52041 0.044 0.0
N161 N 0.26833 0.55057 0.17192 0.0
N162 N 0.23693 0.55907 0.05582 0.0
C163 C 0.28112 0.52815 0.12594 0.0
C164 C 0.24665 0.56642 0.13659 0.0
C165 C 0.24826 0.53623 0.00883 0.0
C166 C 0.30557 0.51274 0.16945 0.0
C167 C 0.30322 0.50855 0.25969 0.0
C168 C 0.32853 0.5018 0.30774 0.0
C169 C 0.35688 0.49894 0.26698 0.0
C170 C 0.35892 0.50078 0.17598 0.0
C171 C 0.33336 0.50764 0.12739 0.0
C172 C 0.22838 0.58616 0.18979 0.0
C173 C 0.21719 0.57539 0.27043 0.0
C174 C 0.19005 0.58527 0.30417 0.0
C175 C 0.1744 0.6064 0.25836 0.0
C176 C 0.18831 0.62094 0.18557 0.0
C177 C 0.21505 0.61051 0.15061 0.0
C178 C 0.2321 0.5276 0.92602 0.0
C179 C 0.21637 0.55027 0.88612 0.0
C180 C 1.00026 0.20024 0.72788 0.0
C181 C 0.03106 0.19385 0.72124 0.0
C182 C 0.05386 0.21485 0.75868 0.0
C183 C 0.04542 0.23868 0.81366 0.0
H184 H 0.00856 0.34656 0.97021 0.0
H185 H 0.01479 0.39478 0.05631 0.0
H186 H 0.03643 0.34354 0.28077 0.0
H187 H 0.02958 0.29562 0.1963 0.0
H188 H 0.97876 0.2325 0.21909 0.0
H189 H 0.96799 0.18337 0.29316 0.0
H190 H 0.9315 0.14106 0.05732 0.0
H191 H 0.94166 0.19004 0.98295 0.0
H192 H 0.96777 0.22685 0.78998 0.0
H193 H 0.98218 0.18495 0.69842 0.0
H194 H 0.07787 0.21094 0.75236 0.0
H195 H 0.06299 0.25186 0.85128 0.0
N196 N 0.01554 0.28127 0.95014 0.0
N197 N 0.98924 0.267 0.08027 0.0
N198 N 0.98515 0.23404 0.96032 0.0
C199 C 0.00757 0.28799 0.03382 0.0
C200 C 0.97765 0.24009 0.04325 0.0
C201 C 1.00398 0.254 0.91337 0.0
C202 C 0.01851 0.31744 0.07684 0.0
C203 C 0.01566 0.34584 0.03712 0.0
C204 C 0.01913 0.37331 0.08616 0.0
C205 C 0.0261 0.37263 0.17482 0.0
C206 C 0.03124 0.34454 0.21243 0.0
C207 C 0.02725 0.3172 0.16415 0.0
C208 C 0.9618 0.21491 0.09471 0.0
C209 C 0.96713 0.21318 0.184 0.0
C210 C 0.961 0.18512 0.22641 0.0
C211 C 0.94935 0.15868 0.18006 0.0
C212 C 0.94049 0.16127 0.09387 0.0
C213 C 0.94653 0.18927 0.05153 0.0
C214 C 0.01419 0.2423 0.82882 0.0
C215 C 0.99201 0.22453 0.77967 0.0
C216 C 0.33087 0.02196 0.84666 0.0
C217 C 0.34417 1.00095 0.79123 0.0
C218 C 0.32991 0.97087 0.78307 0.0
C219 C 0.30447 0.96114 0.83503 0.0
H220 H 0.18529 0.99032 0.0142 0.0
H221 H 0.13909 1.00304 0.0959 0.0
H222 H 0.18535 0.99035 0.33603 0.0
H223 H 0.23088 0.97775 0.25623 0.0
H224 H 0.27847 0.93388 0.26541 0.0
H225 H 0.32308 0.92173 0.34628 0.0
H226 H 0.35994 0.88056 0.11732 0.0
H227 H 0.3157 0.89374 0.03436 0.0
H228 H 0.29699 0.02812 0.94588 0.0
H229 H 0.34163 0.04525 0.8542 0.0
H230 H 0.33981 0.95429 0.74103 0.0
H231 H 0.2956 0.93707 0.83268 0.0
N232 N 0.2501 0.98082 0.00686 0.0
N233 N 0.25108 0.94708 0.12454 0.0
N234 N 0.28698 0.94498 0.01258 0.0
C235 C 0.23779 0.96971 0.08363 0.0
C236 C 0.27548 0.93446 0.08938 0.0
C237 C 0.27473 0.96798 0.97078 0.0
C238 C 0.21168 0.98286 0.12867 0.0
C239 C 0.18575 0.99101 0.08434 0.0
C240 C 0.15935 0.99811 0.13087 0.0
C241 C 0.1588 0.99746 0.22212 0.0
C242 C 0.18523 0.9909 0.26586 0.0
C243 C 0.21126 0.98367 0.2199 0.0
C244 C 0.29418 0.91572 0.14283 0.0
C245 C 0.29529 0.92101 0.23282 0.0
C246 C 0.32082 0.91405 0.27939 0.0
C247 C 0.3451 0.90119 0.23684 0.0
C248 C 0.3415 0.89089 0.15068 0.0
C249 C 0.31628 0.89855 0.1034 0.0
C250 C 0.29255 0.98134 0.89573 0.0
C251 C 0.30512 0.01226 0.89828 0.0
C252 C 0.4461 0.35208 0.04741 0.0
C253 C 0.46193 0.35829 0.12494 0.0
C254 C 0.46874 0.3338 0.17734 0.0
C255 C 0.46272 0.30337 0.14787 0.0
H256 H 0.43483 0.19521 0.15331 0.0
H257 H 0.44345 0.15217 0.24637 0.0
H258 H 0.52146 0.13273 0.08902 0.0
H259 H 0.51246 0.17578 0.99344 0.0
H260 H 0.43692 0.24742 0.74649 0.0
H261 H 0.4442 0.29068 0.64671 0.0
H262 H 0.53643 0.31206 0.73969 0.0
H263 H 0.52933 0.26847 0.83818 0.0
H264 H 0.42959 0.31777 0.95514 0.0
H265 H 0.44059 0.37073 0.00643 0.0
H266 H 0.4809 0.33834 0.23765 0.0
H267 H 0.47088 0.28505 0.18539 0.0
N268 N 0.45895 0.24204 0.06088 0.0
N269 N 0.47701 0.22042 0.9309 0.0
N270 N 0.46121 0.27033 0.93378 0.0
C271 C 0.46932 0.21761 0.01711 0.0
C272 C 0.47222 0.24696 0.88914 0.0
C273 C 0.45478 0.26843 0.01907 0.0
C274 C 0.4731 0.18909 0.06617 0.0
C275 C 0.45365 0.1816 0.1376 0.0
C276 C 0.45848 0.15693 0.19091 0.0
C277 C 0.4832 0.13932 0.17524 0.0
C278 C 0.50221 0.146 0.10233 0.0
C279 C 0.49701 0.17053 0.04769 0.0
C280 C 0.48255 0.25448 0.80024 0.0
C281 C 0.45955 0.25979 0.74073 0.0
C282 C 0.46348 0.28499 0.68485 0.0
C283 C 0.49054 0.30514 0.68768 0.0
C284 C 0.51525 0.297 0.73702 0.0
C285 C 0.51138 0.27159 0.79215 0.0
C286 C 0.44993 0.29732 0.0656 0.0
C287 C 0.4398 0.32179 0.01846 0.0
Dy288 Dy 0.03089 0.99657 0.62419 0.0
C289 C 0.96776 0.04699 0.35662 0.0
C290 C 0.05317 0.97055 0.76852 0.0
Dy291 Dy 0.99181 0.01504 0.48603 0.0
O292 O 0.02455 0.9736 0.75309 0.0
O293 O 0.06962 0.98155 0.70366 0.0
O294 O 0.07321 0.01692 0.55536 0.0
O295 O 0.03646 0.996 0.4825 0.0
C296 C 0.06293 0.01062 0.47785 0.0
C297 C 0.96092 1.00112 0.63532 0.0
O298 O 0.98705 0.96566 0.44742 0.0
O299 O 0.0102 0.95027 0.5719 0.0
O300 O 0.95862 0.0466 0.43654 0.0
O301 O 0.98889 0.02828 0.34596 0.0
O302 O 0.95 0.99477 0.55857 0.0
O303 O 0.987 0.01607 0.62795 0.0
O304 O 0.02954 0.04641 0.66062 0.0
O305 O 0.02085 0.05889 0.52053 0.0
C306 C 0.9956 0.94382 0.4978 0.0
C307 C 0.02833 0.06753 0.60033 0.0
Dy308 Dy 0.49551 0.97791 0.51225 0.0
C309 C 0.56768 0.07355 0.71131 0.0
C310 C 0.45063 0.94127 0.43182 0.0
Dy311 Dy 0.5278 0.03231 0.62373 0.0
O312 O 0.47541 0.93143 0.46281 0.0
O313 O 0.45059 0.97073 0.44472 0.0
O314 O 0.53746 0.96668 0.4329 0.0
O315 O 0.54075 1.00142 0.52388 0.0
C316 C 0.55612 0.98832 0.46773 0.0
C317 C 0.46567 0.02512 0.63357 0.0
O318 O 0.52418 0.05544 0.49601 0.0
O319 O 0.48645 0.02035 0.43766 0.0
O320 O 0.57133 0.06394 0.63221 0.0
O321 O 0.54261 0.05946 0.74321 0.0
O322 O 0.48214 0.05151 0.64096 0.0
O323 O 0.48356 1.00406 0.62806 0.0
O324 O 0.50161 0.95324 0.63617 0.0
O325 O 0.53606 0.99042 0.70293 0.0
C326 C 0.50322 0.0474 0.43631 0.0
C327 C 0.52107 0.9623 0.69905 0.0
Dy328 Dy 0.50121 0.5038 0.62901 0.0
C329 C 0.5125 0.46806 0.27764 0.0
C330 C 0.51361 0.52826 0.7892 0.0
Dy331 Dy 0.52206 0.48915 0.44332 0.0
O332 O 0.486 0.52012 0.76028 0.0
O333 O 0.53362 0.52286 0.72978 0.0
O334 O 0.4517 0.48926 0.59622 0.0
O335 O 0.48271 0.50823 0.50134 0.0
C336 C 0.45603 0.4951 0.51382 0.0
C337 C 0.56711 0.4964 0.56008 0.0
O338 O 0.52799 0.54052 0.43256 0.0
O339 O 0.51198 0.55154 0.57302 0.0
O340 O 0.53709 0.46505 0.32272 0.0
O341 O 0.49404 0.48332 0.32368 0.0
O342 O 0.57185 0.50232 0.47791 0.0
O343 O 0.54005 0.48415 0.57099 0.0
O344 O 0.50096 0.45273 0.64214 0.0
O345 O 0.50384 0.44213 0.49437 0.0
C346 C 0.52219 0.56051 0.49492 0.0
C347 C 0.50008 0.43286 0.57598 0.0
Dy348 Dy 0.99859 0.48369 0.59826 0.0
C349 C 0.05805 0.576 0.39072 0.0
C350 C 0.9639 0.44779 0.7123 0.0
Dy351 Dy 0.02426 0.53347 0.49109 0.0
O352 O 0.98647 0.43865 0.66671 0.0
O353 O 0.961 0.47653 0.69752 0.0
O354 O 0.02327 0.44927 0.52401 0.0
O355 O 0.00727 0.48594 0.45765 0.0
C356 C 0.02221 0.46261 0.44969 0.0
C357 C 0.9997 0.553 0.64108 0.0
O358 O 0.97832 0.52976 0.42839 0.0
O359 O 0.95563 0.49662 0.53118 0.0
O360 O 0.05396 0.57789 0.47361 0.0
O361 O 0.0443 0.55002 0.3631 0.0
O362 O 0.99684 0.56564 0.56651 0.0
O363 O 0.01583 0.53069 0.63189 0.0
O364 O 0.04441 0.49431 0.66219 0.0
O365 O 0.0665 0.51238 0.53604 0.0
C366 C 0.95376 0.51404 0.46183 0.0
C367 C 0.06945 0.5024 0.61573 0.0
C368 C 0.11388 0.97458 0.30953 0.0
C369 C 0.1303 1.0012 0.27409 0.0
C370 C 0.09826 0.0338 0.36061 0.0
C371 C 0.08469 0.00722 0.40396 0.0
N372 N 0.08451 0.95276 0.43124 0.0
N373 N 0.13978 0.05641 0.26862 0.0
C374 C 0.09358 0.97766 0.38103 0.0
C375 C 0.12272 0.03094 0.29971 0.0
N376 N 0.11775 0.94623 0.27466 0.0
N377 N 0.0877 0.06175 0.37757 0.0
H378 H 0.15708 0.0551 0.22202 0.0
H379 H 0.13802 0.07865 0.29214 0.0
H380 H 0.07071 0.06481 0.4239 0.0
H381 H 0.09413 0.08145 0.34185 0.0
H382 H 0.1041 0.92628 0.29178 0.0
H383 H 0.13254 0.94318 0.22239 0.0
H384 H 0.09308 0.93143 0.42317 0.0
H385 H 0.07047 0.95393 0.48593 0.0
C386 C 0.48612 0.08353 0.21707 0.0
C387 C 0.48989 0.11535 0.23922 0.0
C388 C 0.49724 0.10204 0.39101 0.0
C389 C 0.49756 0.07037 0.36775 0.0
N390 N 0.4974 0.03199 0.2525 0.0
N391 N 0.50641 0.15482 0.34412 0.0
C392 C 0.49335 0.06133 0.27903 0.0
C393 C 0.4978 0.12454 0.3252 0.0
N394 N 0.47463 0.07432 0.13792 0.0
N395 N 0.49432 0.1107 0.47587 0.0
H396 H 0.5078 0.17199 0.2974 0.0
H397 H 0.51528 0.16228 0.40403 0.0
H398 H 0.49098 0.09497 0.526 0.0
H399 H 0.49117 0.13318 0.49517 0.0
H400 H 0.46806 0.05137 0.12182 0.0
H401 H 0.46908 0.08978 0.09095 0.0
H402 H 0.49805 0.0253 0.18751 0.0
H403 H 0.50293 0.01492 0.29421 0.0
C404 C 0.39101 0.4685 0.35707 0.0
C405 C 0.38455 0.49711 0.32217 0.0
C406 C 0.42281 0.52427 0.41877 0.0
C407 C 0.4308 0.49559 0.44958 0.0
N408 N 0.42552 0.44015 0.44034 0.0
N409 N 0.39787 0.5518 0.30847 0.0
C410 C 0.41572 0.4676 0.41654 0.0
C411 C 0.40172 0.52483 0.34925 0.0
N412 N 0.37297 0.44228 0.33499 0.0
N413 N 0.43391 0.55103 0.45954 0.0
H414 H 0.38198 0.55342 0.25923 0.0
H415 H 0.4122 0.57202 0.31819 0.0
H416 H 0.44855 0.55163 0.51253 0.0
H417 H 0.42643 0.57241 0.44631 0.0
H418 H 0.37394 0.42127 0.36556 0.0
H419 H 0.35577 0.44189 0.28852 0.0
H420 H 0.41821 0.41915 0.41079 0.0
H421 H 0.44258 0.43857 0.48621 0.0
C422 C 0.99579 0.40186 0.28055 0.0
C423 C 0.02346 0.39992 0.23261 0.0
C424 C 0.04905 0.44255 0.3188 0.0
C425 C 0.02176 0.44363 0.369 0.0
N426 N 0.96772 0.42815 0.39074 0.0
N427 N 0.0744 0.42122 0.19349 0.0
C428 C 0.99461 0.42458 0.34724 0.0
C429 C 0.04946 0.42133 0.24761 0.0
N430 N 0.97102 0.38094 0.26448 0.0
N431 N 0.0748 0.46113 0.34137 0.0
H432 H 0.07531 0.40567 0.14179 0.0
H433 H 0.09332 0.43761 0.19554 0.0
H434 H 0.07478 0.47773 0.39064 0.0
H435 H 0.09644 0.45955 0.31406 0.0
H436 H 0.9515 0.37808 0.30371 0.0
H437 H 0.97033 0.36524 0.21279 0.0
H438 H 0.94635 0.41781 0.37196 0.0
H439 H 0.96615 0.44318 0.44325 0.0
C440 C 0.91381 0.98356 0.84276 0.0
C441 C 0.89522 0.00851 0.8442 0.0
C442 C 0.92407 0.03139 0.71915 0.0
C443 C 0.94015 0.00467 0.71141 0.0
N444 N 0.95085 0.95523 0.76434 0.0
N445 N 0.88152 0.05586 0.78321 0.0
C446 C 0.93534 0.98083 0.77335 0.0
C447 C 0.90025 0.03247 0.78262 0.0
N448 N 0.91098 0.96268 0.90835 0.0
N449 N 0.93198 0.05599 0.66668 0.0
H450 H 0.865 0.05849 0.8313 0.0
H451 H 0.88107 0.0718 0.7338 0.0
H452 H 0.94873 0.05588 0.61816 0.0
H453 H 0.92377 0.07745 0.67514 0.0
H454 H 0.92565 0.94556 0.91659 0.0
H455 H 0.89503 0.96378 0.95877 0.0
H456 H 0.94625 0.93537 0.80068 0.0
H457 H 0.96778 0.95333 0.7171 0.0
C458 C 0.50171 0.90291 0.87603 0.0
C459 C 0.53108 0.89309 0.89262 0.0
C460 C 0.55432 0.92942 0.78452 0.0
C461 C 0.52512 0.94004 0.76983 0.0
N462 N 0.47227 0.9416 0.81472 0.0
N463 N 0.58609 0.90157 0.87791 0.0
C464 C 0.49919 0.9282 0.81972 0.0
C465 C 0.55763 0.90795 0.85183 0.0
N466 N 0.47605 0.88724 0.91117 0.0
N467 N 0.57848 0.93826 0.73063 0.0
H468 H 0.58924 0.8859 0.92679 0.0
H469 H 0.60641 0.91381 0.85711 0.0
H470 H 0.57673 0.95309 0.679 0.0
H471 H 0.59941 0.92876 0.73196 0.0
H472 H 0.45377 0.89076 0.89331 0.0
H473 H 0.477 0.86917 0.95435 0.0
H474 H 0.4536 0.93639 0.85614 0.0
H475 H 0.4695 0.95997 0.77396 0.0
C476 C 0.63581 0.52516 0.70293 0.0
C477 C 0.63706 0.49976 0.75889 0.0
C478 C 0.59421 0.47164 0.6812 0.0
C479 C 0.59154 0.49764 0.62794 0.0
N480 N 0.60656 0.55123 0.59853 0.0
N481 N 0.61304 0.45198 0.81463 0.0
C482 C 0.61145 0.52504 0.64177 0.0
C483 C 0.61465 0.47414 0.75254 0.0
N484 N 0.6584 0.54907 0.70678 0.0
N485 N 0.5791 0.44372 0.65983 0.0
H486 H 0.62797 0.45281 0.86707 0.0
H487 H 0.59511 0.43448 0.81875 0.0
H488 H 0.5661 0.44006 0.60402 0.0
H489 H 0.58246 0.42334 0.69125 0.0
H490 H 0.66107 0.56654 0.66121 0.0
H491 H 0.67561 0.55051 0.75338 0.0
H492 H 0.61793 0.57275 0.61282 0.0
H493 H 0.58932 0.55203 0.55276 0.0
C494 C 0.02591 0.61355 0.8114 0.0
C495 C 0.99783 0.61637 0.85656 0.0
C496 C 0.97234 0.57371 0.77011 0.0
C497 C 0.99995 0.57214 0.72161 0.0
N498 N 0.05447 0.58624 0.70464 0.0
N499 N 0.94578 0.59697 0.89029 0.0
C500 C 0.02724 0.59064 0.7453 0.0
C501 C 0.97149 0.59558 0.83968 0.0
N502 N 0.05102 0.63377 0.82971 0.0
N503 N 0.94691 0.55456 0.74819 0.0
H504 H 0.94453 0.61301 0.94063 0.0
H505 H 0.92617 0.58156 0.88613 0.0
H506 H 0.94761 0.53707 0.70169 0.0
H507 H 0.92509 0.5559 0.77441 0.0
H508 H 0.071 0.63611 0.79227 0.0
H509 H 0.05159 0.64942 0.88152 0.0
H510 H 0.07581 0.59616 0.72502 0.0
H511 H 0.05632 0.57106 0.65273 0.0
C512 C 0.98318 0.11866 0.22043 0.0
C513 C 0.95309 0.12789 0.21525 0.0
C514 C 0.93241 0.07933 0.28074 0.0
C515 C 0.96284 0.07271 0.29875 0.0
N516 N 0.0173 0.0902 0.30148 0.0
N517 N 0.89875 0.11819 0.24308 0.0
C518 C 0.98835 0.09322 0.27208 0.0
C519 C 0.92749 0.10843 0.24546 0.0
N520 N 0.0069 0.1341 0.17555 0.0
N521 N 0.90838 0.05762 0.29638 0.0
H522 H 0.89446 0.1392 0.21642 0.0
H523 H 0.87957 0.1065 0.2724 0.0
H524 H 0.91143 0.03604 0.32152 0.0
H525 H 0.88594 0.05986 0.27738 0.0
H526 H 0.02862 0.12623 0.17021 0.0
H527 H 1.00413 0.15289 0.13625 0.0
H528 H 0.03575 0.10682 0.2916 0.0
H529 H 0.02258 0.07311 0.34356 0.0
C530 C 0.39794 0.92888 0.24498 0.0
C531 C 0.37596 0.90536 0.27655 0.0
C532 C 0.4072 0.90016 0.40556 0.0
C533 C 0.42866 0.92382 0.37366 0.0
N534 N 0.45026 0.95253 0.25198 0.0
N535 N 0.36287 0.86367 0.37489 0.0
C536 C 0.42598 0.93525 0.28926 0.0
C537 C 0.38179 0.8892 0.35292 0.0
N538 N 0.39119 0.947 0.17741 0.0
N539 N 0.4102 0.88947 0.4875 0.0
H540 H 0.34418 0.85534 0.33695 0.0
H541 H 0.36715 0.84938 0.42596 0.0
H542 H 0.42904 0.89656 0.52626 0.0
H543 H 0.39347 0.87478 0.51843 0.0
H544 H 0.40513 0.96663 0.15915 0.0
H545 H 0.37046 0.94449 0.14438 0.0
H546 H 0.45061 0.9592 0.18736 0.0
H547 H 0.47131 0.95726 0.28311 0.0
C548 C 0.45608 0.41318 0.16864 0.0
C549 C 0.47531 0.39008 0.14464 0.0
C550 C 0.52109 0.42606 0.16989 0.0
C551 C 0.5017 0.44737 0.20461 0.0
N552 N 0.45284 0.46787 0.19115 0.0
N553 N 0.52505 0.37743 0.09376 0.0
C554 C 0.46977 0.44316 0.18851 0.0
C555 C 0.50762 0.39747 0.13589 0.0
N556 N 0.42505 0.40622 0.17658 0.0
N557 N 0.55217 0.43326 0.17036 0.0
H558 H 0.51567 0.35668 0.06635 0.0
H559 H 0.54834 0.38217 0.07992 0.0
H560 H 0.56191 0.45555 0.18445 0.0
H561 H 0.56811 0.41762 0.15647 0.0
H562 H 0.41043 0.42161 0.20208 0.0
H563 H 0.41416 0.38432 0.16369 0.0
H564 H 0.42969 0.4665 0.17478 0.0
H565 H 0.46315 0.49034 0.19875 0.0
C566 C 0.11907 0.59083 0.2257 0.0
C567 C 0.14142 0.60828 0.27754 0.0
C568 C 0.1017 0.61789 0.38462 0.0
C569 C 0.08156 0.59559 0.34104 0.0
N570 N 0.06488 0.57586 0.20201 0.0
N571 N 0.154 0.64186 0.39962 0.0
C572 C 0.08821 0.58705 0.25517 0.0
C573 C 0.13254 0.62347 0.35428 0.0
N574 N 0.12762 0.57561 0.15266 0.0
N575 N 0.09082 0.63425 0.45237 0.0
H576 H 0.17632 0.64732 0.37616 0.0
H577 H 0.15014 0.65103 0.46088 0.0
H578 H 0.06752 0.6324 0.46894 0.0
H579 H 0.10374 0.65186 0.48543 0.0
H580 H 0.11282 0.55959 0.11915 0.0
H581 H 0.15001 0.57714 0.12838 0.0
H582 H 0.06788 0.5714 0.13616 0.0
H583 H 0.04192 0.57491 0.22202 0.0
C584 C 0.04323 0.91214 0.94283 0.0
C585 C 0.06775 0.89432 0.9203 0.0
C586 C 0.09073 0.93592 0.82837 0.0
C587 C 0.06336 0.95061 0.83802 0.0
N588 N 0.02213 0.9615 0.93384 0.0
N589 N 0.11594 0.8892 0.847 0.0
C590 C 0.04226 0.94147 0.90494 0.0
C591 C 0.09216 0.90644 0.86568 0.0
N592 N 0.01998 0.90026 0.99619 0.0
N593 N 0.11567 0.95086 0.78789 0.0
H594 H 0.11816 0.86809 0.87615 0.0
H595 H 0.13259 0.89499 0.79979 0.0
H596 H 0.11622 0.97384 0.76982 0.0
H597 H 0.137 0.94222 0.78286 0.0
H598 H 0.99968 0.91047 0.00649 0.0
H599 H 0.02006 0.87909 0.02678 0.0
H600 H 0.00748 0.95744 0.98691 0.0
H601 H 0.02278 0.98392 0.91051 0.0
C602 C 0.64617 0.11251 0.76374 0.0
C603 C 0.64847 0.10008 0.84765 0.0
C604 C 0.59274 0.08825 0.85253 0.0
C605 C 0.592 0.09189 0.76191 0.0
N606 N 0.61516 0.11605 0.63493 0.0
N607 N 0.62345 0.07394 0.97111 0.0
C608 C 0.61787 0.10705 0.71866 0.0
C609 C 0.62156 0.08792 0.89286 0.0
N610 N 0.67098 0.12947 0.72819 0.0
N611 N 0.56615 0.08561 0.90001 0.0
H612 H 0.64409 0.07166 0.00228 0.0
H613 H 0.60454 0.06199 1.00128 0.0
H614 H 0.54501 0.08893 0.87279 0.0
H615 H 0.56577 0.08483 0.96751 0.0
H616 H 0.67059 0.14081 0.66942 0.0
H617 H 0.69166 0.13409 0.7612 0.0
H618 H 0.63365 0.12378 0.59539 0.0
H619 H 0.5938 0.11601 0.60534 0.0
C620 C 0.50982 0.59564 0.94156 0.0
C621 C 0.54102 0.60771 0.93053 0.0
C622 C 0.55359 0.55775 0.87632 0.0
C623 C 0.52194 0.54904 0.86403 0.0
N624 N 0.46982 0.55463 0.90765 0.0
N625 N 0.59313 0.60021 0.88752 0.0
C626 C 0.49991 0.5663 0.90468 0.0
C627 C 0.56324 0.58859 0.89944 0.0
N628 N 0.49012 0.61193 0.98891 0.0
N629 N 0.5742 0.53636 0.86585 0.0
H630 H 0.60109 0.62296 0.90242 0.0
H631 H 0.60943 0.58794 0.85628 0.0
H632 H 0.56706 0.51319 0.85335 0.0
H633 H 0.59749 0.54083 0.87955 0.0
H634 H 0.46771 0.60363 0.0049 0.0
H635 H 0.49693 0.63318 0.01805 0.0
H636 H 0.45179 0.56743 0.92512 0.0
H637 H 0.46309 0.53147 0.89437 0.0
C638 C 0.89815 0.39114 0.78711 0.0
C639 C 0.8884 0.40863 0.85836 0.0
C640 C 0.93709 0.44127 0.85294 0.0
C641 C 0.94301 0.42881 0.77033 0.0
N642 N 0.93016 0.39071 0.6581 0.0
N643 N 0.8983 0.45185 0.95826 0.0
C644 C 0.92434 0.40279 0.73802 0.0
C645 C 0.90811 0.43364 0.89276 0.0
N646 N 0.88188 0.36381 0.76585 0.0
N647 N 0.95912 0.46089 0.89225 0.0
H648 H 0.87706 0.44788 0.98917 0.0
H649 H 0.9104 0.47248 0.97784 0.0
H650 H 0.98067 0.46656 0.86383 0.0
H651 H 0.95725 0.4687 0.956 0.0
H652 H 0.88907 0.34862 0.71897 0.0
H653 H 0.86258 0.3551 0.80135 0.0
H654 H 0.91509 0.37437 0.62666 0.0
H655 H 0.94943 0.39804 0.62093 0.0
C656 C 0.02518 0.15531 0.59952 0.0
C657 C 0.03787 0.1637 0.68135 0.0
C658 C 0.05355 0.11135 0.69217 0.0
C659 C 0.03368 0.10123 0.62305 0.0
N660 N 0.9943 0.11525 0.52433 0.0
N661 N 0.06015 0.14655 0.81368 0.0
C662 C 0.01808 0.12366 0.57898 0.0
C663 C 0.05134 0.141 0.72989 0.0
N664 N 0.01869 0.17754 0.54302 0.0
N665 N 0.07499 0.09322 0.72088 0.0
H666 H 0.05746 0.16704 0.84686 0.0
H667 H 0.06728 0.12938 0.853 0.0
H668 H 0.07914 0.07253 0.69033 0.0
H669 H 0.09126 0.10078 0.76733 0.0
H670 H 0.01134 0.17245 0.4799 0.0
H671 H 0.02393 0.20097 0.55659 0.0
H672 H 0.98138 0.1312 0.49574 0.0
H673 H 0.98425 0.0928 0.51809 0.0
C674 C 0.378 0.01701 0.66226 0.0
C675 C 0.37518 0.00885 0.75096 0.0
C676 C 0.43148 0.01488 0.76424 0.0
C677 C 0.43442 0.02011 0.67372 0.0
N678 N 0.41094 0.02469 0.53476 0.0
N679 N 0.3991 0.99553 0.88373 0.0
C680 C 0.40776 0.02083 0.62221 0.0
C681 C 0.40191 0.00666 0.80127 0.0
N682 N 0.3522 0.02177 0.61703 0.0
N683 N 0.45693 0.01863 0.81555 0.0
H684 H 0.37796 0.98975 0.91418 0.0
H685 H 0.41765 0.98967 0.91968 0.0
H686 H 0.47913 0.02389 0.79123 0.0
H687 H 0.45588 0.01882 0.88299 0.0
H688 H 0.35258 0.03068 0.5548 0.0
H689 H 0.3302 0.01882 0.64434 0.0
H690 H 0.39273 0.02193 0.49162 0.0
H691 H 0.43228 0.02907 0.50434 0.0
C692 C 0.51044 0.34608 0.58089 0.0
C693 C 0.49117 0.33699 0.65226 0.0
C694 C 0.47277 0.38844 0.65702 0.0
C695 C 0.49551 0.39909 0.59521 0.0
N696 N 0.5392 0.38799 0.50576 0.0
N697 N 0.45816 0.35166 0.76933 0.0
C698 C 0.51506 0.37786 0.5583 0.0
C699 C 0.4734 0.35873 0.69328 0.0
N700 N 0.52407 0.32427 0.53395 0.0
N701 N 0.44978 0.40626 0.67909 0.0
H702 H 0.4585 0.33053 0.79988 0.0
H703 H 0.4477 0.36789 0.80656 0.0
H704 H 0.44752 0.42747 0.65071 0.0
H705 H 0.43102 0.39839 0.71771 0.0
H706 H 0.53568 0.3289 0.47557 0.0
H707 H 0.52131 0.30093 0.54928 0.0
H708 H 0.55613 0.37411 0.48597 0.0
H709 H 0.54418 0.41083 0.48775 0.0
C710 C 0.15535 0.52096 0.66812 0.0
C711 C 0.15787 0.50397 0.74506 0.0
C712 C 0.10576 0.47934 0.7187 0.0
C713 C 0.10082 0.50165 0.65505 0.0
N714 N 0.12145 0.54903 0.58486 0.0
N715 N 0.13176 0.47033 0.85189 0.0
C716 C 0.12583 0.52379 0.63301 0.0
C717 C 0.13214 0.48385 0.77256 0.0
N718 N 0.18115 0.53482 0.62909 0.0
N719 N 0.08598 0.4533 0.72643 0.0
H720 H 0.14963 0.47405 0.89594 0.0
H721 H 0.11218 0.45792 0.87726 0.0
H722 H 0.06795 0.4477 0.68361 0.0
H723 H 0.09002 0.43547 0.76786 0.0
H724 H 0.1807 0.54547 0.56907 0.0
H725 H 0.20316 0.53253 0.65214 0.0
H726 H 0.13882 0.5667 0.57387 0.0
H727 H 0.10001 0.55473 0.56594 0.0
C728 C 1.0011 0.87181 0.35723 0.0
C729 C 0.98815 0.84854 0.41397 0.0
C730 C 0.97506 0.88828 0.51822 0.0
C731 C 0.99145 0.91123 0.46661 0.0
N732 N 0.02363 0.92428 0.34134 0.0
N733 N 0.9651 0.83388 0.55134 0.0
C734 C 0.00521 0.9029 0.38689 0.0
C735 C 0.97573 0.85656 0.49538 0.0
N736 N 0.00918 0.86427 0.27427 0.0
N737 N 0.95767 0.89694 0.58668 0.0
H738 H 0.96446 0.81051 0.53526 0.0
H739 H 0.95889 0.83812 0.61538 0.0
H740 H 0.95543 0.91998 0.60176 0.0
H741 H 0.94303 0.88159 0.62257 0.0
H742 H 0.01516 0.88056 0.22675 0.0
H743 H 0.00749 0.84173 0.25017 0.0
H744 H 0.0375 0.91866 0.28936 0.0
H745 H 0.02731 0.9474 0.3594 0.0
C746 C 0.64438 1.00323 0.46649 0.0
C747 C 0.65055 0.00652 0.37655 0.0
C748 C 0.5951 0.99995 0.34719 0.0
C749 C 0.5886 0.99737 0.43777 0.0
N750 N 0.60734 1.00345 0.58443 0.0
N751 N 0.63192 0.01518 0.23336 0.0
C752 C 0.61333 1.00127 0.4977 0.0
C753 C 0.62593 0.00682 0.31751 0.0
N754 N 0.66821 1.00095 0.52188 0.0
N755 N 0.57176 0.99609 0.2887 0.0
H756 H 0.65406 0.02031 0.20849 0.0
H757 H 0.615 0.01973 0.18966 0.0
H758 H 0.54869 0.99531 0.30611 0.0
H759 H 0.57522 0.99262 0.22258 0.0
H760 H 0.6653 0.99498 0.58672 0.0
H761 H 0.69111 1.00267 0.50125 0.0
H762 H 0.62413 0.00974 0.63036 0.0
H763 H 0.58526 1.00165 0.61035 0.0
C764 C 0.51987 0.63488 0.36773 0.0
C765 C 0.52962 0.65784 0.43036 0.0
C766 C 0.53772 0.61693 0.53367 0.0
C767 C 0.52448 0.59421 0.47412 0.0
N768 N 0.49444 0.58398 0.34398 0.0
N769 N 0.54279 0.67083 0.57827 0.0
C770 C 0.51311 0.60385 0.39386 0.0
C771 C 0.537 0.64888 0.51507 0.0
N772 N 0.51821 0.64229 0.28221 0.0
N773 N 0.55232 0.60827 0.60596 0.0
H774 H 0.54243 0.69431 0.56673 0.0
H775 H 0.54512 0.6656 0.6434 0.0
H776 H 0.55444 0.58541 0.6212 0.0
H777 H 0.565 0.62385 0.64656 0.0
H778 H 0.51425 0.62572 0.23324 0.0
H779 H 0.52407 0.66443 0.25891 0.0
H780 H 0.4833 0.59099 0.28931 0.0
H781 H 0.48697 0.5616 0.36239 0.0
C782 C 0.89087 0.49633 0.29268 0.0
C783 C 0.86629 0.51118 0.33028 0.0
C784 C 0.89877 0.52748 0.4553 0.0
C785 C 0.92376 0.51374 0.41594 0.0
N786 N 0.94506 0.48857 0.29199 0.0
N787 N 0.84729 0.54375 0.44127 0.0
C788 C 0.92024 0.49931 0.33293 0.0
C789 C 0.87037 0.52753 0.41008 0.0
N790 N 0.88578 0.47833 0.21992 0.0
N791 N 0.90227 0.54049 0.53606 0.0
H792 H 0.82621 0.54381 0.41027 0.0
H793 H 0.84947 0.55869 0.49441 0.0
H794 H 0.9233 0.54297 0.56778 0.0
H795 H 0.88431 0.54773 0.57336 0.0
H796 H 0.90129 0.46372 0.19525 0.0
H797 H 0.865 0.47619 0.1868 0.0
H798 H 0.94513 0.48145 0.22738 0.0
H799 H 0.9665 0.48847 0.32062 0.0
loop_
_geom_bond_atom_site_label_1
_geom_bond_atom_site_label_2
_geom_bond_distance
_geom_bond_site_symmetry_2
_ccdc_geom_bond_type
C0 C1 1.384 . S
C0 H13 0.947 . S
C0 C35 1.382 . S
C1 C0 1.384 . S
C1 C2 1.378 . S
C2 C1 1.378 . S
C2 C3 1.378 . S
C2 H14 0.952 . S
C3 C2 1.378 . S
C3 H15 0.950 . S
C3 C34 1.383 . S
H4 C23 0.947 . S
H5 C24 0.946 . S
H6 C26 0.953 . S
H7 C27 0.945 . S
H8 C29 0.952 . S
H9 C30 0.949 . S
H10 C32 0.950 . S
H11 C33 0.948 . S
H12 C35 0.951 . S
H13 C0 0.947 . S
H14 C2 0.952 . S
H15 C3 0.950 . S
N16 C19 1.382 . S
N16 C21 1.363 . S
N17 C19 1.371 1_556 S
N17 C20 1.372 . S
N18 C20 1.361 1_554 S
N18 C21 1.377 . S
C19 N16 1.382 . S
C19 N17 1.371 1_554 S
C19 C22 1.480 1_554 S
C20 N17 1.372 . S
C20 N18 1.361 1_556 S
C20 C28 1.457 . S
C21 N16 1.363 . S
C21 N18 1.377 . S
C21 C34 1.479 . S
C22 C19 1.480 1_556 S
C22 C23 1.383 1_556 S
C22 C27 1.385 . S
C23 H4 0.947 . S
C23 C22 1.383 1_554 S
C23 C24 1.388 . S
C24 H5 0.946 . S
C24 C23 1.388 . S
C24 C25 1.384 1_554 S
C25 C24 1.384 1_556 S
C25 C26 1.377 . S
C26 H6 0.953 . S
C26 C25 1.377 . S
C26 C27 1.369 . S
C27 H7 0.945 . S
C27 C22 1.385 . S
C27 C26 1.369 . S
C28 C20 1.457 . S
C28 C29 1.372 . S
C28 C33 1.364 . S
C29 H8 0.952 . S
C29 C28 1.372 . S
C29 C30 1.389 . S
C30 H9 0.949 . S
C30 C29 1.389 . S
C30 C31 1.387 . S
C31 C30 1.387 . S
C31 C32 1.372 . S
C32 H10 0.950 . S
C32 C31 1.372 . S
C32 C33 1.379 . S
C33 H11 0.948 . S
C33 C28 1.364 . S
C33 C32 1.379 . S
C34 C3 1.383 . S
C34 C21 1.479 . S
C34 C35 1.398 . S
C35 C0 1.382 . S
C35 H12 0.951 . S
C35 C34 1.398 . S
C36 C37 1.384 . S
C36 H49 0.947 . S
C36 C71 1.382 . S
C37 C36 1.384 . S
C37 C38 1.378 . S
C38 C37 1.378 . S
C38 C39 1.378 . S
C38 H50 0.952 . S
C39 C38 1.378 . S
C39 H51 0.950 . S
C39 C70 1.383 . S
H40 C59 0.947 . S
H41 C60 0.946 . S
H42 C62 0.953 . S
H43 C63 0.945 . S
H44 C65 0.952 . S
H45 C66 0.949 . S
H46 C68 0.950 . S
H47 C69 0.948 . S
H48 C71 0.951 . S
H49 C36 0.947 . S
H50 C38 0.952 . S
H51 C39 0.950 . S
N52 C55 1.382 . S
N52 C57 1.363 . S
N53 C55 1.371 1_556 S
N53 C56 1.372 . S
N54 C56 1.361 1_554 S
N54 C57 1.377 . S
C55 N52 1.382 . S
C55 N53 1.371 1_554 S
C55 C58 1.480 1_554 S
C56 N53 1.372 . S
C56 N54 1.361 1_556 S
C56 C64 1.457 . S
C57 N52 1.363 . S
C57 N54 1.377 . S
C57 C70 1.479 . S
C58 C55 1.480 1_556 S
C58 C59 1.383 1_556 S
C58 C63 1.385 . S
C59 H40 0.947 . S
C59 C58 1.383 1_554 S
C59 C60 1.388 . S
C60 H41 0.946 . S
C60 C59 1.388 . S
C60 C61 1.384 1_554 S
C61 C60 1.384 1_556 S
C61 C62 1.377 . S
C62 H42 0.953 . S
C62 C61 1.377 . S
C62 C63 1.369 . S
C63 H43 0.945 . S
C63 C58 1.385 . S
C63 C62 1.369 . S
C64 C56 1.457 . S
C64 C65 1.372 . S
C64 C69 1.364 . S
C65 H44 0.952 . S
C65 C64 1.372 . S
C65 C66 1.389 . S
C66 H45 0.949 . S
C66 C65 1.389 . S
C66 C67 1.387 . S
C67 C66 1.387 . S
C67 C68 1.372 . S
C68 H46 0.950 . S
C68 C67 1.372 . S
C68 C69 1.379 . S
C69 H47 0.948 . S
C69 C64 1.364 . S
C69 C68 1.379 . S
C70 C39 1.383 . S
C70 C57 1.479 . S
C70 C71 1.398 . S
C71 C36 1.382 . S
C71 H48 0.951 . S
C71 C70 1.398 . S
C72 C73 1.384 1_565 S
C72 H85 0.947 . S
C72 C107 1.382 1_565 S
C73 C72 1.384 1_545 S
C73 C74 1.378 . S
C74 C73 1.378 . S
C74 C75 1.378 . S
C74 H86 0.952 . S
C75 C74 1.378 . S
C75 H87 0.950 . S
C75 C106 1.383 . S
H76 C95 0.947 . S
H77 C96 0.954 . S
H78 C98 0.953 . S
H79 C99 0.945 . S
H80 C101 0.946 1_565 S
H81 C102 0.949 . S
H82 C104 0.950 . S
H83 C105 0.948 . S
H84 C107 0.951 1_565 S
H85 C72 0.947 . S
H86 C74 0.952 . S
H87 C75 0.950 . S
N88 C91 1.382 . S
N88 C93 1.363 . S
N89 C91 1.371 1_556 S
N89 C92 1.372 . S
N90 C92 1.361 1_554 S
N90 C93 1.377 . S
C91 N88 1.382 . S
C91 N89 1.371 1_554 S
C91 C94 1.480 1_554 S
C92 N89 1.372 . S
C92 N90 1.361 1_556 S
C92 C100 1.457 . S
C93 N88 1.363 . S
C93 N90 1.377 . S
C93 C106 1.479 . S
C94 C91 1.480 1_556 S
C94 C95 1.383 1_556 S
C94 C99 1.385 . S
C95 H76 0.947 . S
C95 C94 1.383 1_554 S
C95 C96 1.383 1_545 S
C96 H77 0.954 . S
C96 C95 1.383 1_565 S
C96 C97 1.382 1_564 S
C97 C96 1.382 1_546 S
C97 C98 1.377 . S
C98 H78 0.953 . S
C98 C97 1.377 . S
C98 C99 1.369 . S
C99 H79 0.945 . S
C99 C94 1.385 . S
C99 C98 1.369 . S
C100 C92 1.457 . S
C100 C101 1.377 . S
C100 C105 1.364 . S
C101 H80 0.946 1_545 S
C101 C100 1.377 . S
C101 C102 1.389 1_545 S
C102 H81 0.949 . S
C102 C101 1.389 1_565 S
C102 C103 1.387 1_565 S
C103 C102 1.387 1_545 S
C103 C104 1.372 . S
C104 H82 0.950 . S
C104 C103 1.372 . S
C104 C105 1.379 . S
C105 H83 0.948 . S
C105 C100 1.364 . S
C105 C104 1.379 . S
C106 C75 1.383 . S
C106 C93 1.479 . S
C106 C107 1.398 . S
C107 C72 1.382 1_545 S
C107 H84 0.951 1_545 S
C107 C106 1.398 . S
C108 C109 1.384 . S
C108 H121 0.947 . S
C108 C143 1.382 . S
C109 C108 1.384 . S
C109 C110 1.378 . S
C110 C109 1.378 . S
C110 C111 1.378 . S
C110 H122 0.952 . S
C111 C110 1.378 . S
C111 H123 0.950 . S
C111 C142 1.383 . S
H112 C131 0.947 . S
H113 C132 0.946 . S
H114 C134 0.953 . S
H115 C135 0.945 . S
H116 C137 0.952 . S
H117 C138 0.949 . S
H118 C140 0.950 . S
H119 C141 0.948 . S
H120 C143 0.951 1_554 S
H121 C108 0.947 . S
H122 C110 0.952 . S
H123 C111 0.950 . S
N124 C127 1.382 1_556 S
N124 C129 1.363 1_556 S
N125 C127 1.371 . S
N125 C128 1.372 . S
N126 C128 1.361 . S
N126 C129 1.377 . S
C127 N124 1.382 1_554 S
C127 N125 1.371 . S
C127 C130 1.480 . S
C128 N125 1.372 . S
C128 N126 1.361 . S
C128 C136 1.457 . S
C129 N124 1.363 1_554 S
C129 N126 1.377 . S
C129 C142 1.479 1_554 S
C130 C127 1.480 . S
C130 C131 1.383 1_554 S
C130 C135 1.385 . S
C131 H112 0.947 . S
C131 C130 1.383 1_556 S
C131 C132 1.388 . S
C132 H113 0.946 . S
C132 C131 1.388 . S
C132 C133 1.384 1_556 S
C133 C132 1.384 1_554 S
C133 C134 1.376 . S
C134 H114 0.953 . S
C134 C133 1.376 . S
C134 C135 1.369 . S
C135 H115 0.945 . S
C135 C130 1.385 . S
C135 C134 1.369 . S
C136 C128 1.457 . S
C136 C137 1.372 . S
C136 C141 1.364 . S
C137 H116 0.952 . S
C137 C136 1.372 . S
C137 C138 1.389 . S
C138 H117 0.949 . S
C138 C137 1.389 . S
C138 C139 1.387 . S
C139 C138 1.387 . S
C139 C140 1.372 . S
C140 H118 0.950 . S
C140 C139 1.372 . S
C140 C141 1.379 . S
C141 H119 0.948 . S
C141 C136 1.364 . S
C141 C140 1.379 . S
C142 C111 1.383 . S
C142 C129 1.479 1_556 S
C142 C143 1.398 . S
C143 C108 1.382 . S
C143 H120 0.951 1_556 S
C143 C142 1.398 . S
C144 C145 1.384 . S
C144 H157 0.947 . S
C144 C179 1.382 . S
C145 C144 1.384 . S
C145 C146 1.378 . S
C146 C145 1.378 . S
C146 C147 1.378 . S
C146 H158 0.952 . S
C147 C146 1.378 . S
C147 H159 0.950 . S
C147 C178 1.383 . S
H148 C167 0.947 1_556 S
H149 C168 0.946 . S
H150 C170 0.953 . S
H151 C171 0.945 . S
H152 C173 0.952 . S
H153 C174 0.949 . S
H154 C176 0.950 . S
H155 C177 0.948 . S
H156 C179 0.951 . S
H157 C144 0.947 . S
H158 C146 0.952 . S
H159 C147 0.950 . S
N160 C163 1.391 . S
N160 C165 1.361 1_554 S
N161 C163 1.371 . S
N161 C164 1.372 . S
N162 C164 1.361 . S
N162 C165 1.377 1_554 S
C163 N160 1.391 . S
C163 N161 1.371 . S
C163 C166 1.480 . S
C164 N161 1.372 . S
C164 N162 1.361 . S
C164 C172 1.457 . S
C165 N160 1.361 1_556 S
C165 N162 1.377 1_556 S
C165 C178 1.479 . S
C166 C163 1.480 . S
C166 C167 1.383 . S
C166 C171 1.385 . S
C167 H148 0.947 1_554 S
C167 C166 1.383 . S
C167 C168 1.388 . S
C168 H149 0.946 . S
C168 C167 1.388 . S
C168 C169 1.384 . S
C169 C168 1.384 . S
C169 C170 1.377 . S
C170 H150 0.953 . S
C170 C169 1.377 . S
C170 C171 1.369 . S
C171 H151 0.945 . S
C171 C166 1.385 . S
C171 C170 1.369 . S
C172 C164 1.457 . S
C172 C173 1.372 . S
C172 C177 1.364 . S
C173 H152 0.952 . S
C173 C172 1.372 . S
C173 C174 1.389 . S
C174 H153 0.949 . S
C174 C173 1.389 . S
C174 C175 1.387 . S
C175 C174 1.387 . S
C175 C176 1.372 . S
C176 H154 0.950 . S
C176 C175 1.372 . S
C176 C177 1.379 . S
C177 H155 0.948 . S
C177 C172 1.364 . S
C177 C176 1.379 . S
C178 C147 1.383 . S
C178 C165 1.479 . S
C178 C179 1.398 . S
C179 C144 1.382 . S
C179 H156 0.951 . S
C179 C178 1.398 . S
C180 C181 1.384 . S
C180 H193 0.947 . S
C180 C215 1.382 . S
C181 C180 1.384 . S
C181 C182 1.378 . S
C182 C181 1.378 . S
C182 C183 1.378 . S
C182 H194 0.952 . S
C183 C182 1.378 . S
C183 H195 0.950 . S
C183 C214 1.383 . S
H184 C203 0.947 1_556 S
H185 C204 0.946 . S
H186 C206 0.953 . S
H187 C207 0.945 . S
H188 C209 0.952 . S
H189 C210 0.949 . S
H190 C212 0.950 . S
H191 C213 0.948 . S
H192 C215 0.951 . S
H193 C180 0.947 . S
H194 C182 0.952 . S
H195 C183 0.950 . S
N196 C199 1.382 . S
N196 C201 1.363 1_554 S
N197 C199 1.371 . S
N197 C200 1.372 . S
N198 C200 1.361 . S
N198 C201 1.377 1_554 S
C199 N196 1.382 . S
C199 N197 1.371 . S
C199 C202 1.480 . S
C200 N197 1.372 . S
C200 N198 1.361 . S
C200 C208 1.457 . S
C201 N196 1.363 1_556 S
C201 N198 1.377 1_556 S
C201 C214 1.479 . S
C202 C199 1.480 . S
C202 C203 1.383 . S
C202 C207 1.385 . S
C203 H184 0.947 1_554 S
C203 C202 1.383 . S
C203 C204 1.388 . S
C204 H185 0.946 . S
C204 C203 1.388 . S
C204 C205 1.384 . S
C205 C204 1.384 . S
C205 C206 1.377 . S
C206 H186 0.953 . S
C206 C205 1.377 . S
C206 C207 1.369 . S
C207 H187 0.945 . S
C207 C202 1.385 . S
C207 C206 1.369 . S
C208 C200 1.457 . S
C208 C209 1.372 . S
C208 C213 1.364 . S
C209 H188 0.952 . S
C209 C208 1.372 . S
C209 C210 1.389 . S
C210 H189 0.949 . S
C210 C209 1.389 . S
C210 C211 1.387 . S
C211 C210 1.387 . S
C211 C212 1.372 . S
C212 H190 0.950 . S
C212 C211 1.372 . S
C212 C213 1.379 . S
C213 H191 0.948 . S
C213 C208 1.364 . S
C213 C212 1.379 . S
C214 C183 1.383 . S
C214 C201 1.479 . S
C214 C215 1.398 . S
C215 C180 1.382 . S
C215 H192 0.951 . S
C215 C214 1.398 . S
C216 C217 1.384 1_565 S
C216 H229 0.947 . S
C216 C251 1.382 1_565 S
C217 C216 1.384 1_545 S
C217 C218 1.378 . S
C218 C217 1.378 . S
C218 C219 1.378 . S
C218 H230 0.952 . S
C219 C218 1.378 . S
C219 H231 0.950 . S
C219 C250 1.383 . S
H220 C239 0.947 1_556 S
H221 C240 0.948 . S
H222 C242 0.953 . S
H223 C243 0.945 . S
H224 C245 0.950 1_565 S
H225 C246 0.954 . S
H226 C248 0.950 . S
H227 C249 0.948 . S
H228 C251 0.949 1_565 S
H229 C216 0.947 . S
H230 C218 0.952 . S
H231 C219 0.950 . S
N232 C235 1.382 1_556 S
N232 C237 1.363 . S
N233 C235 1.371 . S
N233 C236 1.372 . S
N234 C236 1.361 . S
N234 C237 1.377 1_554 S
C235 N232 1.382 1_554 S
C235 N233 1.371 . S
C235 C238 1.480 . S
C236 N233 1.372 . S
C236 N234 1.361 . S
C236 C244 1.457 . S
C237 N232 1.363 . S
C237 N234 1.377 1_556 S
C237 C250 1.479 . S
C238 C235 1.480 . S
C238 C239 1.383 . S
C238 C243 1.385 . S
C239 H220 0.947 1_554 S
C239 C238 1.383 . S
C239 C240 1.388 1_545 S
C240 H221 0.948 . S
C240 C239 1.388 1_565 S
C240 C241 1.382 1_565 S
C241 C240 1.382 1_545 S
C241 C242 1.377 . S
C242 H222 0.953 . S
C242 C241 1.377 . S
C242 C243 1.369 . S
C243 H223 0.945 . S
C243 C238 1.385 . S
C243 C242 1.369 . S
C244 C236 1.457 . S
C244 C245 1.378 . S
C244 C249 1.364 . S
C245 H224 0.950 1_545 S
C245 C244 1.378 . S
C245 C246 1.381 1_545 S
C246 H225 0.954 . S
C246 C245 1.381 1_565 S
C246 C247 1.386 1_565 S
C247 C246 1.386 1_545 S
C247 C248 1.372 . S
C248 H226 0.950 . S
C248 C247 1.372 . S
C248 C249 1.379 . S
C249 H227 0.948 . S
C249 C244 1.364 . S
C249 C248 1.379 . S
C250 C219 1.383 . S
C250 C237 1.479 . S
C250 C251 1.400 . S
C251 C216 1.382 1_545 S
C251 H228 0.949 1_545 S
C251 C250 1.400 . S
C252 C253 1.384 . S
C252 H265 0.947 . S
C252 C287 1.382 . S
C253 C252 1.384 . S
C253 C254 1.378 . S
C254 C253 1.378 . S
C254 C255 1.378 . S
C254 H266 0.952 . S
C255 C254 1.378 . S
C255 H267 0.950 . S
C255 C286 1.383 . S
H256 C275 0.947 . S
H257 C276 0.946 . S
H258 C278 0.953 1_556 S
H259 C279 0.945 . S
H260 C281 0.952 . S
H261 C282 0.949 . S
H262 C284 0.950 . S
H263 C285 0.948 . S
H264 C287 0.951 . S
H265 C252 0.947 . S
H266 C254 0.952 . S
H267 C255 0.950 . S
N268 C271 1.382 . S
N268 C273 1.363 . S
N269 C271 1.371 1_556 S
N269 C272 1.372 . S
N270 C272 1.361 1_554 S
N270 C273 1.377 . S
C271 N268 1.382 . S
C271 N269 1.371 1_554 S
C271 C274 1.480 . S
C272 N269 1.372 . S
C272 N270 1.361 1_556 S
C272 C280 1.457 . S
C273 N268 1.363 . S
C273 N270 1.377 . S
C273 C286 1.479 . S
C274 C271 1.480 . S
C274 C275 1.383 . S
C274 C279 1.385 1_554 S
C275 H256 0.947 . S
C275 C274 1.383 . S
C275 C276 1.388 . S
C276 H257 0.946 . S
C276 C275 1.388 . S
C276 C277 1.384 . S
C277 C276 1.384 . S
C277 C278 1.377 . S
C278 H258 0.953 1_554 S
C278 C277 1.377 . S
C278 C279 1.369 1_554 S
C279 H259 0.945 . S
C279 C274 1.385 1_556 S
C279 C278 1.369 1_556 S
C280 C272 1.457 . S
C280 C281 1.372 . S
C280 C285 1.364 . S
C281 H260 0.952 . S
C281 C280 1.372 . S
C281 C282 1.389 . S
C282 H261 0.949 . S
C282 C281 1.389 . S
C282 C283 1.387 . S
C283 C282 1.387 . S
C283 C284 1.372 . S
C284 H262 0.950 . S
C284 C283 1.372 . S
C284 C285 1.379 . S
C285 H263 0.948 . S
C285 C280 1.364 . S
C285 C284 1.379 . S
C286 C255 1.383 . S
C286 C273 1.479 . S
C286 C287 1.398 . S
C287 C252 1.382 . S
C287 H264 0.951 . S
C287 C286 1.398 . S
Dy288 O292 2.398 . S
Dy288 O293 2.491 1_455 S
Dy288 O294 2.403 . S
Dy288 O295 2.664 1_565 S
Dy288 O299 2.326 . S
Dy288 O303 2.310 1_455 S
Dy288 O304 2.351 1_565 S
C289 O300 1.185 1_455 S
C289 O301 1.355 . S
C290 O292 1.185 . S
C290 O293 1.355 1_455 S
Dy291 O295 2.310 1_655 S
Dy291 O298 2.351 1_545 S
Dy291 O300 2.398 . S
Dy291 O301 2.491 1_655 S
Dy291 O302 2.403 . S
Dy291 O303 2.664 1_545 S
Dy291 O305 2.326 1_655 S
O292 Dy288 2.398 . S
O292 C290 1.185 . S
O293 Dy288 2.491 1_655 S
O293 C290 1.355 1_655 S
O294 Dy288 2.403 . S
O294 C296 1.254 . S
O295 Dy288 2.664 1_545 S
O295 Dy291 2.310 1_455 S
O295 C296 1.268 1_545 S
C296 O294 1.254 . S
C296 O295 1.268 1_565 S
C297 O302 1.254 . S
C297 O303 1.268 1_545 S
O298 Dy291 2.351 1_565 S
O298 C306 1.249 . S
O299 Dy288 2.326 . S
O299 C306 1.267 1_455 S
O300 C289 1.185 1_655 S
O300 Dy291 2.398 . S
O301 C289 1.355 . S
O301 Dy291 2.491 1_455 S
O302 Dy291 2.403 . S
O302 C297 1.254 . S
O303 Dy288 2.310 1_655 S
O303 Dy291 2.664 1_565 S
O303 C297 1.268 1_565 S
O304 Dy288 2.351 1_545 S
O304 C307 1.249 . S
O305 Dy291 2.326 1_455 S
O305 C307 1.267 . S
C306 O298 1.249 . S
C306 O299 1.267 1_655 S
C307 O304 1.249 . S
C307 O305 1.267 . S
Dy308 O312 2.398 . S
Dy308 O313 2.491 . S
Dy308 O314 2.403 . S
Dy308 O315 2.664 . S
Dy308 O319 2.326 1_565 S
Dy308 O323 2.310 1_565 S
Dy308 O324 2.351 . S
C309 O320 1.185 . S
C309 O321 1.355 . S
C310 O312 1.185 . S
C310 O313 1.355 . S
Dy311 O315 2.310 1_545 S
Dy311 O318 2.351 . S
Dy311 O320 2.398 . S
Dy311 O321 2.491 . S
Dy311 O322 2.403 . S
Dy311 O323 2.664 . S
Dy311 O325 2.326 1_545 S
O312 Dy308 2.398 . S
O312 C310 1.185 . S
O313 Dy308 2.491 . S
O313 C310 1.355 . S
O314 Dy308 2.403 . S
O314 C316 1.254 . S
O315 Dy308 2.664 . S
O315 Dy311 2.310 1_565 S
O315 C316 1.268 . S
C316 O314 1.254 . S
C316 O315 1.268 . S
C317 O322 1.254 . S
C317 O323 1.268 . S
O318 Dy311 2.351 . S
O318 C326 1.249 . S
O319 Dy308 2.326 1_545 S
O319 C326 1.267 . S
O320 C309 1.185 . S
O320 Dy311 2.398 . S
O321 C309 1.355 . S
O321 Dy311 2.491 . S
O322 Dy311 2.403 . S
O322 C317 1.254 . S
O323 Dy308 2.310 1_545 S
O323 Dy311 2.664 . S
O323 C317 1.268 . S
O324 Dy308 2.351 . S
O324 C327 1.249 . S
O325 Dy311 2.326 1_565 S
O325 C327 1.267 . S
C326 O318 1.249 . S
C326 O319 1.267 . S
C327 O324 1.249 . S
C327 O325 1.267 . S
Dy328 O332 2.398 . S
Dy328 O333 2.491 . S
Dy328 O334 2.403 . S
Dy328 O335 2.664 . S
Dy328 O339 2.326 . S
Dy328 O343 2.310 . S
Dy328 O344 2.351 . S
C329 O340 1.185 . S
C329 O341 1.355 . S
C330 O332 1.185 . S
C330 O333 1.355 . S
Dy331 O335 2.310 . S
Dy331 O338 2.351 . S
Dy331 O340 2.398 . S
Dy331 O341 2.491 . S
Dy331 O342 2.403 . S
Dy331 O343 2.664 . S
Dy331 O345 2.326 . S
O332 Dy328 2.398 . S
O332 C330 1.185 . S
O333 Dy328 2.491 . S
O333 C330 1.355 . S
O334 Dy328 2.403 . S
O334 C336 1.254 . S
O335 Dy328 2.664 . S
O335 Dy331 2.310 . S
O335 C336 1.268 . S
C336 O334 1.254 . S
C336 O335 1.268 . S
C337 O342 1.254 . S
C337 O343 1.268 . S
O338 Dy331 2.351 . S
O338 C346 1.249 . S
O339 Dy328 2.326 . S
O339 C346 1.267 . S
O340 C329 1.185 . S
O340 Dy331 2.398 . S
O341 C329 1.355 . S
O341 Dy331 2.491 . S
O342 Dy331 2.403 . S
O342 C337 1.254 . S
O343 Dy328 2.310 . S
O343 Dy331 2.664 . S
O343 C337 1.268 . S
O344 Dy328 2.351 . S
O344 C347 1.249 . S
O345 Dy331 2.326 . S
O345 C347 1.267 . S
C346 O338 1.249 . S
C346 O339 1.267 . S
C347 O344 1.249 . S
C347 O345 1.267 . S
Dy348 O352 2.398 . S
Dy348 O353 2.491 . S
Dy348 O354 2.403 . S
Dy348 O355 2.664 1_655 S
Dy348 O359 2.326 . S
Dy348 O363 2.310 . S
Dy348 O364 2.351 1_655 S
C349 O360 1.185 . S
C349 O361 1.355 . S
C350 O352 1.185 . S
C350 O353 1.355 . S
Dy351 O355 2.310 . S
Dy351 O358 2.351 1_455 S
Dy351 O360 2.398 . S
Dy351 O361 2.491 . S
Dy351 O362 2.403 . S
Dy351 O363 2.664 1_455 S
Dy351 O365 2.326 . S
O352 Dy348 2.398 . S
O352 C350 1.185 . S
O353 Dy348 2.491 . S
O353 C350 1.355 . S
O354 Dy348 2.403 . S
O354 C356 1.254 1_655 S
O355 Dy348 2.664 1_455 S
O355 Dy351 2.310 . S
O355 C356 1.268 . S
C356 O354 1.254 1_455 S
C356 O355 1.268 . S
C357 O362 1.254 1_655 S
C357 O363 1.268 . S
O358 Dy351 2.351 1_655 S
O358 C366 1.249 . S
O359 Dy348 2.326 . S
O359 C366 1.267 . S
O360 C349 1.185 . S
O360 Dy351 2.398 . S
O361 C349 1.355 . S
O361 Dy351 2.491 . S
O362 Dy351 2.403 . S
O362 C357 1.254 1_455 S
O363 Dy348 2.310 . S
O363 Dy351 2.664 1_655 S
O363 C357 1.268 . S
O364 Dy348 2.351 1_455 S
O364 C367 1.249 . S
O365 Dy351 2.326 . S
O365 C367 1.267 . S
C366 O358 1.249 . S
C366 O359 1.267 . S
C367 O364 1.249 . S
C367 O365 1.267 . S
C368 C369 1.389 . S
C368 C374 1.379 . S
C368 N376 1.356 . S
C369 C368 1.389 . S
C369 C375 1.338 1_565 S
C370 C371 1.363 1_545 S
C370 C375 1.379 . S
C370 N377 1.356 . S
C371 C370 1.363 1_565 S
C371 C374 1.363 . S
N372 C374 1.356 . S
N372 H384 0.984 . S
N372 H385 0.985 . S
N373 C375 1.356 . S
N373 H378 0.984 . S
N373 H379 0.985 . S
C374 C368 1.379 . S
C374 C371 1.363 . S
C374 N372 1.356 . S
C375 C369 1.338 1_545 S
C375 C370 1.379 . S
C375 N373 1.356 . S
N376 C368 1.356 . S
N376 H382 0.984 . S
N376 H383 0.984 . S
N377 C370 1.356 . S
N377 H380 0.984 . S
N377 H381 0.985 . S
H378 N373 0.984 . S
H379 N373 0.985 . S
H380 N377 0.984 . S
H381 N377 0.985 . S
H382 N376 0.984 . S
H383 N376 0.984 . S
H384 N372 0.984 . S
H385 N372 0.985 . S
C386 C387 1.363 . S
C386 C392 1.379 . S
C386 N394 1.356 . S
C387 C386 1.363 . S
C387 C393 1.363 . S
C388 C389 1.363 . S
C388 C393 1.379 . S
C388 N395 1.356 . S
C389 C388 1.363 . S
C389 C392 1.363 . S
N390 C392 1.356 . S
N390 H402 0.984 . S
N390 H403 0.985 . S
N391 C393 1.356 . S
N391 H396 0.984 . S
N391 H397 0.985 . S
C392 C386 1.379 . S
C392 C389 1.363 . S
C392 N390 1.356 . S
C393 C387 1.363 . S
C393 C388 1.379 . S
C393 N391 1.356 . S
N394 C386 1.356 . S
N394 H400 0.984 . S
N394 H401 0.984 . S
N395 C388 1.356 . S
N395 H398 0.984 . S
N395 H399 0.985 . S
H396 N391 0.984 . S
H397 N391 0.985 . S
H398 N395 0.984 . S
H399 N395 0.985 . S
H400 N394 0.984 . S
H401 N394 0.984 . S
H402 N390 0.984 . S
H403 N390 0.985 . S
C404 C405 1.363 . S
C404 C410 1.379 . S
C404 N412 1.356 . S
C405 C404 1.363 . S
C405 C411 1.363 . S
C406 C407 1.363 . S
C406 C411 1.379 . S
C406 N413 1.356 . S
C407 C406 1.363 . S
C407 C410 1.363 . S
N408 C410 1.356 . S
N408 H420 0.984 . S
N408 H421 0.985 . S
N409 C411 1.356 . S
N409 H414 0.984 . S
N409 H415 0.985 . S
C410 C404 1.379 . S
C410 C407 1.363 . S
C410 N408 1.356 . S
C411 C405 1.363 . S
C411 C406 1.379 . S
C411 N409 1.356 . S
N412 C404 1.356 . S
N412 H418 0.984 . S
N412 H419 0.984 . S
N413 C406 1.356 . S
N413 H416 0.984 . S
N413 H417 0.985 . S
H414 N409 0.984 . S
H415 N409 0.985 . S
H416 N413 0.984 . S
H417 N413 0.985 . S
H418 N412 0.984 . S
H419 N412 0.984 . S
H420 N408 0.984 . S
H421 N408 0.985 . S
C422 C423 1.363 . S
C422 C428 1.379 . S
C422 N430 1.356 . S
C423 C422 1.363 . S
C423 C429 1.363 . S
C424 C425 1.363 . S
C424 C429 1.379 . S
C424 N431 1.356 . S
C425 C424 1.363 . S
C425 C428 1.363 . S
N426 C428 1.356 . S
N426 H438 0.984 . S
N426 H439 0.985 . S
N427 C429 1.356 . S
N427 H432 0.984 . S
N427 H433 0.985 . S
C428 C422 1.379 . S
C428 C425 1.363 . S
C428 N426 1.356 . S
C429 C423 1.363 . S
C429 C424 1.379 . S
C429 N427 1.356 . S
N430 C422 1.356 . S
N430 H436 0.984 . S
N430 H437 0.984 . S
N431 C424 1.356 . S
N431 H434 0.984 . S
N431 H435 0.985 . S
H432 N427 0.984 . S
H433 N427 0.985 . S
H434 N431 0.984 . S
H435 N431 0.985 . S
H436 N430 0.984 . S
H437 N430 0.984 . S
H438 N426 0.984 . S
H439 N426 0.985 . S
C440 C441 1.363 1_565 S
C440 C446 1.379 . S
C440 N448 1.356 . S
C441 C440 1.363 1_545 S
C441 C447 1.363 . S
C442 C443 1.363 . S
C442 C447 1.379 . S
C442 N449 1.356 . S
C443 C442 1.363 . S
C443 C446 1.363 1_545 S
N444 C446 1.356 . S
N444 H456 0.984 . S
N444 H457 0.985 . S
N445 C447 1.356 . S
N445 H450 0.984 . S
N445 H451 0.985 . S
C446 C440 1.379 . S
C446 C443 1.363 1_565 S
C446 N444 1.356 . S
C447 C441 1.363 . S
C447 C442 1.379 . S
C447 N445 1.356 . S
N448 C440 1.356 . S
N448 H454 0.984 . S
N448 H455 0.984 . S
N449 C442 1.356 . S
N449 H452 0.984 . S
N449 H453 0.985 . S
H450 N445 0.984 . S
H451 N445 0.985 . S
H452 N449 0.984 . S
H453 N449 0.985 . S
H454 N448 0.984 . S
H455 N448 0.984 . S
H456 N444 0.984 . S
H457 N444 0.985 . S
C458 C459 1.363 . S
C458 C464 1.379 . S
C458 N466 1.356 . S
C459 C458 1.363 . S
C459 C465 1.363 . S
C460 C461 1.363 . S
C460 C465 1.379 . S
C460 N467 1.356 . S
C461 C460 1.363 . S
C461 C464 1.363 . S
N462 C464 1.356 . S
N462 H474 0.984 . S
N462 H475 0.985 . S
N463 C465 1.356 . S
N463 H468 0.984 . S
N463 H469 0.985 . S
C464 C458 1.379 . S
C464 C461 1.363 . S
C464 N462 1.356 . S
C465 C459 1.363 . S
C465 C460 1.379 . S
C465 N463 1.356 . S
N466 C458 1.356 . S
N466 H472 0.984 1_556 S
N466 H473 0.984 1_556 S
N467 C460 1.356 . S
N467 H470 0.984 . S
N467 H471 0.985 . S
H468 N463 0.984 . S
H469 N463 0.985 . S
H470 N467 0.984 . S
H471 N467 0.985 . S
H472 N466 0.984 1_554 S
H473 N466 0.984 1_554 S
H474 N462 0.984 . S
H475 N462 0.985 . S
C476 C477 1.363 . S
C476 C482 1.379 . S
C476 N484 1.356 . S
C477 C476 1.363 . S
C477 C483 1.363 . S
C478 C479 1.363 . S
C478 C483 1.379 . S
C478 N485 1.356 . S
C479 C478 1.363 . S
C479 C482 1.363 . S
N480 C482 1.356 . S
N480 H492 0.984 . S
N480 H493 0.985 . S
N481 C483 1.356 . S
N481 H486 0.984 . S
N481 H487 0.985 . S
C482 C476 1.379 . S
C482 C479 1.363 . S
C482 N480 1.356 . S
C483 C477 1.363 . S
C483 C478 1.379 . S
C483 N481 1.356 . S
N484 C476 1.356 . S
N484 H490 0.984 . S
N484 H491 0.984 . S
N485 C478 1.356 . S
N485 H488 0.984 . S
N485 H489 0.985 . S
H486 N481 0.984 . S
H487 N481 0.985 . S
H488 N485 0.984 . S
H489 N485 0.985 . S
H490 N484 0.984 . S
H491 N484 0.984 . S
H492 N480 0.984 . S
H493 N480 0.985 . S
C494 C495 1.363 . S
C494 C500 1.379 . S
C494 N502 1.356 . S
C495 C494 1.363 . S
C495 C501 1.363 . S
C496 C497 1.363 . S
C496 C501 1.379 . S
C496 N503 1.356 . S
C497 C496 1.363 . S
C497 C500 1.363 . S
N498 C500 1.356 . S
N498 H510 0.984 . S
N498 H511 0.985 . S
N499 C501 1.356 . S
N499 H504 0.984 . S
N499 H505 0.985 . S
C500 C494 1.379 . S
C500 C497 1.363 . S
C500 N498 1.356 . S
C501 C495 1.363 . S
C501 C496 1.379 . S
C501 N499 1.356 . S
N502 C494 1.356 . S
N502 H508 0.984 . S
N502 H509 0.984 . S
N503 C496 1.356 . S
N503 H506 0.984 . S
N503 H507 0.985 . S
H504 N499 0.984 . S
H505 N499 0.985 . S
H506 N503 0.984 . S
H507 N503 0.985 . S
H508 N502 0.984 . S
H509 N502 0.984 . S
H510 N498 0.984 . S
H511 N498 0.985 . S
C512 C513 1.363 . S
C512 C518 1.379 . S
C512 N520 1.356 . S
C513 C512 1.363 . S
C513 C519 1.363 . S
C514 C515 1.363 . S
C514 C519 1.379 . S
C514 N521 1.356 1_455 S
C515 C514 1.363 . S
C515 C518 1.363 . S
N516 C518 1.356 . S
N516 H528 0.984 . S
N516 H529 0.985 . S
N517 C519 1.356 . S
N517 H522 0.984 . S
N517 H523 0.985 . S
C518 C512 1.379 . S
C518 C515 1.363 . S
C518 N516 1.356 . S
C519 C513 1.363 . S
C519 C514 1.379 . S
C519 N517 1.356 . S
N520 C512 1.356 . S
N520 H526 0.984 . S
N520 H527 0.984 . S
N521 C514 1.356 1_655 S
N521 H524 0.984 . S
N521 H525 0.985 . S
H522 N517 0.984 . S
H523 N517 0.985 . S
H524 N521 0.984 . S
H525 N521 0.985 . S
H526 N520 0.984 . S
H527 N520 0.984 . S
H528 N516 0.984 . S
H529 N516 0.985 . S
C530 C531 1.364 . S
C530 C536 1.379 1_545 S
C530 N538 1.356 . S
C531 C530 1.364 . S
C531 C537 1.360 1_545 S
C532 C533 1.363 . S
C532 C537 1.379 . S
C532 N539 1.356 . S
C533 C532 1.363 . S
C533 C536 1.363 . S
N534 C536 1.356 . S
N534 H546 0.984 1_565 S
N534 H547 0.985 . S
N535 C537 1.356 . S
N535 H540 0.984 . S
N535 H541 0.985 . S
C536 C530 1.379 1_565 S
C536 C533 1.363 . S
C536 N534 1.356 . S
C537 C531 1.360 1_565 S
C537 C532 1.379 . S
C537 N535 1.356 . S
N538 C530 1.356 . S
N538 H544 0.984 . S
N538 H545 0.984 . S
N539 C532 1.356 . S
N539 H542 0.984 . S
N539 H543 0.985 . S
H540 N535 0.984 . S
H541 N535 0.985 . S
H542 N539 0.984 . S
H543 N539 0.985 . S
H544 N538 0.984 . S
H545 N538 0.984 . S
H546 N534 0.984 1_545 S
H547 N534 0.985 . S
C548 C549 1.363 . S
C548 C554 1.379 . S
C548 N556 1.356 . S
C549 C548 1.363 . S
C549 C555 1.363 . S
C550 C551 1.363 . S
C550 C555 1.379 . S
C550 N557 1.356 . S
C551 C550 1.363 . S
C551 C554 1.363 . S
N552 C554 1.356 . S
N552 H564 0.984 . S
N552 H565 0.985 . S
N553 C555 1.356 . S
N553 H558 0.984 . S
N553 H559 0.985 . S
C554 C548 1.379 . S
C554 C551 1.363 . S
C554 N552 1.356 . S
C555 C549 1.363 . S
C555 C550 1.379 . S
C555 N553 1.356 . S
N556 C548 1.356 . S
N556 H562 0.984 . S
N556 H563 0.984 . S
N557 C550 1.356 . S
N557 H560 0.984 . S
N557 H561 0.985 . S
H558 N553 0.984 . S
H559 N553 0.985 . S
H560 N557 0.984 . S
H561 N557 0.985 . S
H562 N556 0.984 . S
H563 N556 0.984 . S
H564 N552 0.984 . S
H565 N552 0.985 . S
C566 C567 1.363 . S
C566 C572 1.379 . S
C566 N574 1.356 . S
C567 C566 1.363 . S
C567 C573 1.363 . S
C568 C569 1.363 . S
C568 C573 1.379 . S
C568 N575 1.356 . S
C569 C568 1.363 . S
C569 C572 1.363 . S
N570 C572 1.356 . S
N570 H582 0.984 . S
N570 H583 0.985 . S
N571 C573 1.356 . S
N571 H576 0.984 . S
N571 H577 0.985 . S
C572 C566 1.379 . S
C572 C569 1.363 . S
C572 N570 1.356 . S
C573 C567 1.363 . S
C573 C568 1.379 . S
C573 N571 1.356 . S
N574 C566 1.356 . S
N574 H580 0.984 . S
N574 H581 0.984 . S
N575 C568 1.356 . S
N575 H578 0.984 . S
N575 H579 0.985 . S
H576 N571 0.984 . S
H577 N571 0.985 . S
H578 N575 0.984 . S
H579 N575 0.985 . S
H580 N574 0.984 . S
H581 N574 0.984 . S
H582 N570 0.984 . S
H583 N570 0.985 . S
C584 C585 1.363 . S
C584 C590 1.379 . S
C584 N592 1.356 . S
C585 C584 1.363 . S
C585 C591 1.363 . S
C586 C587 1.363 . S
C586 C591 1.379 . S
C586 N593 1.356 . S
C587 C586 1.363 . S
C587 C590 1.363 . S
N588 C590 1.356 . S
N588 H600 0.984 . S
N588 H601 0.985 1_655 S
N589 C591 1.356 . S
N589 H594 0.984 . S
N589 H595 0.985 . S
C590 C584 1.379 . S
C590 C587 1.363 . S
C590 N588 1.356 . S
C591 C585 1.363 . S
C591 C586 1.379 . S
C591 N589 1.356 . S
N592 C584 1.356 . S
N592 H598 0.984 . S
N592 H599 0.984 . S
N593 C586 1.356 . S
N593 H596 0.984 1_655 S
N593 H597 0.985 . S
H594 N589 0.984 . S
H595 N589 0.985 . S
H596 N593 0.984 1_455 S
H597 N593 0.985 . S
H598 N592 0.984 . S
H599 N592 0.984 . S
H600 N588 0.984 . S
H601 N588 0.985 1_455 S
C602 C603 1.364 1_545 S
C602 C608 1.379 . S
C602 N610 1.356 . S
C603 C602 1.364 1_565 S
C603 C609 1.362 . S
C604 C605 1.363 1_565 S
C604 C609 1.379 . S
C604 N611 1.356 . S
C605 C604 1.363 1_545 S
C605 C608 1.363 . S
N606 C608 1.356 . S
N606 H618 0.984 . S
N606 H619 0.985 . S
N607 C609 1.356 . S
N607 H612 0.984 . S
N607 H613 0.985 . S
C608 C602 1.379 . S
C608 C605 1.363 . S
C608 N606 1.356 . S
C609 C603 1.362 . S
C609 C604 1.379 . S
C609 N607 1.356 . S
N610 C602 1.356 . S
N610 H616 0.984 . S
N610 H617 0.984 . S
N611 C604 1.356 . S
N611 H614 0.984 . S
N611 H615 0.985 . S
H612 N607 0.984 . S
H613 N607 0.985 . S
H614 N611 0.984 . S
H615 N611 0.985 . S
H616 N610 0.984 . S
H617 N610 0.984 . S
H618 N606 0.984 . S
H619 N606 0.985 . S
C620 C621 1.363 . S
C620 C626 1.379 . S
C620 N628 1.356 . S
C621 C620 1.363 . S
C621 C627 1.363 . S
C622 C623 1.363 . S
C622 C627 1.379 . S
C622 N629 1.356 . S
C623 C622 1.363 . S
C623 C626 1.363 . S
N624 C626 1.356 . S
N624 H636 0.984 . S
N624 H637 0.985 . S
N625 C627 1.356 . S
N625 H630 0.984 . S
N625 H631 0.985 . S
C626 C620 1.379 . S
C626 C623 1.363 . S
C626 N624 1.356 . S
C627 C621 1.363 . S
C627 C622 1.379 . S
C627 N625 1.356 . S
N628 C620 1.356 . S
N628 H634 0.984 . S
N628 H635 0.984 . S
N629 C622 1.356 . S
N629 H632 0.984 . S
N629 H633 0.985 . S
H630 N625 0.984 . S
H631 N625 0.985 . S
H632 N629 0.984 . S
H633 N629 0.985 . S
H634 N628 0.984 . S
H635 N628 0.984 . S
H636 N624 0.984 . S
H637 N624 0.985 . S
C638 C639 1.363 . S
C638 C644 1.379 . S
C638 N646 1.356 . S
C639 C638 1.363 . S
C639 C645 1.363 . S
C640 C641 1.363 . S
C640 C645 1.379 . S
C640 N647 1.356 . S
C641 C640 1.363 . S
C641 C644 1.363 . S
N642 C644 1.356 . S
N642 H654 0.984 . S
N642 H655 0.985 . S
N643 C645 1.356 . S
N643 H648 0.984 . S
N643 H649 0.985 . S
C644 C638 1.379 . S
C644 C641 1.363 . S
C644 N642 1.356 . S
C645 C639 1.363 . S
C645 C640 1.379 . S
C645 N643 1.356 . S
N646 C638 1.356 . S
N646 H652 0.984 . S
N646 H653 0.984 . S
N647 C640 1.356 . S
N647 H650 0.984 . S
N647 H651 0.985 . S
H648 N643 0.984 . S
H649 N643 0.985 . S
H650 N647 0.984 . S
H651 N647 0.985 . S
H652 N646 0.984 . S
H653 N646 0.984 . S
H654 N642 0.984 . S
H655 N642 0.985 . S
C656 C657 1.363 . S
C656 C662 1.379 . S
C656 N664 1.356 . S
C657 C656 1.363 . S
C657 C663 1.363 . S
C658 C659 1.363 . S
C658 C663 1.379 . S
C658 N665 1.356 . S
C659 C658 1.363 . S
C659 C662 1.363 . S
N660 C662 1.356 . S
N660 H672 0.984 . S
N660 H673 0.985 . S
N661 C663 1.356 . S
N661 H666 0.984 . S
N661 H667 0.985 . S
C662 C656 1.379 . S
C662 C659 1.363 . S
C662 N660 1.356 . S
C663 C657 1.363 . S
C663 C658 1.379 . S
C663 N661 1.356 . S
N664 C656 1.356 . S
N664 H670 0.984 . S
N664 H671 0.984 . S
N665 C658 1.356 . S
N665 H668 0.984 . S
N665 H669 0.985 . S
H666 N661 0.984 . S
H667 N661 0.985 . S
H668 N665 0.984 . S
H669 N665 0.985 . S
H670 N664 0.984 . S
H671 N664 0.984 . S
H672 N660 0.984 . S
H673 N660 0.985 . S
C674 C675 1.363 . S
C674 C680 1.379 . S
C674 N682 1.356 . S
C675 C674 1.363 . S
C675 C681 1.363 1_545 S
C676 C677 1.363 1_565 S
C676 C681 1.379 . S
C676 N683 1.356 . S
C677 C676 1.363 1_545 S
C677 C680 1.363 . S
N678 C680 1.356 . S
N678 H690 0.984 . S
N678 H691 0.985 . S
N679 C681 1.356 . S
N679 H684 0.984 . S
N679 H685 0.985 . S
C680 C674 1.379 . S
C680 C677 1.363 . S
C680 N678 1.356 . S
C681 C675 1.363 1_565 S
C681 C676 1.379 . S
C681 N679 1.356 . S
N682 C674 1.356 . S
N682 H688 0.984 . S
N682 H689 0.984 . S
N683 C676 1.356 . S
N683 H686 0.984 . S
N683 H687 0.985 . S
H684 N679 0.984 . S
H685 N679 0.985 . S
H686 N683 0.984 . S
H687 N683 0.985 . S
H688 N682 0.984 . S
H689 N682 0.984 . S
H690 N678 0.984 . S
H691 N678 0.985 . S
C692 C693 1.363 . S
C692 C698 1.379 . S
C692 N700 1.356 . S
C693 C692 1.363 . S
C693 C699 1.363 . S
C694 C695 1.363 . S
C694 C699 1.379 . S
C694 N701 1.356 . S
C695 C694 1.363 . S
C695 C698 1.363 . S
N696 C698 1.356 . S
N696 H708 0.984 . S
N696 H709 0.985 . S
N697 C699 1.356 . S
N697 H702 0.984 . S
N697 H703 0.985 . S
C698 C692 1.379 . S
C698 C695 1.363 . S
C698 N696 1.356 . S
C699 C693 1.363 . S
C699 C694 1.379 . S
C699 N697 1.356 . S
N700 C692 1.356 . S
N700 H706 0.984 . S
N700 H707 0.984 . S
N701 C694 1.356 . S
N701 H704 0.984 . S
N701 H705 0.985 . S
H702 N697 0.984 . S
H703 N697 0.985 . S
H704 N701 0.984 . S
H705 N701 0.985 . S
H706 N700 0.984 . S
H707 N700 0.984 . S
H708 N696 0.984 . S
H709 N696 0.985 . S
C710 C711 1.363 . S
C710 C716 1.379 . S
C710 N718 1.356 . S
C711 C710 1.363 . S
C711 C717 1.363 . S
C712 C713 1.363 . S
C712 C717 1.379 . S
C712 N719 1.356 . S
C713 C712 1.363 . S
C713 C716 1.363 . S
N714 C716 1.356 . S
N714 H726 0.984 . S
N714 H727 0.985 . S
N715 C717 1.356 . S
N715 H720 0.984 . S
N715 H721 0.985 . S
C716 C710 1.379 . S
C716 C713 1.363 . S
C716 N714 1.356 . S
C717 C711 1.363 . S
C717 C712 1.379 . S
C717 N715 1.356 . S
N718 C710 1.356 . S
N718 H724 0.984 . S
N718 H725 0.984 . S
N719 C712 1.356 . S
N719 H722 0.984 . S
N719 H723 0.985 . S
H720 N715 0.984 . S
H721 N715 0.985 . S
H722 N719 0.984 . S
H723 N719 0.985 . S
H724 N718 0.984 . S
H725 N718 0.984 . S
H726 N714 0.984 . S
H727 N714 0.985 . S
C728 C729 1.363 . S
C728 C734 1.379 . S
C728 N736 1.356 . S
C729 C728 1.363 . S
C729 C735 1.363 . S
C730 C731 1.363 . S
C730 C735 1.379 . S
C730 N737 1.356 . S
C731 C730 1.363 . S
C731 C734 1.363 . S
N732 C734 1.356 . S
N732 H744 0.984 1_655 S
N732 H745 0.985 . S
N733 C735 1.356 . S
N733 H738 0.984 . S
N733 H739 0.985 . S
C734 C728 1.379 . S
C734 C731 1.363 . S
C734 N732 1.356 . S
C735 C729 1.363 . S
C735 C730 1.379 . S
C735 N733 1.356 . S
N736 C728 1.356 . S
N736 H742 0.984 . S
N736 H743 0.984 . S
N737 C730 1.356 . S
N737 H740 0.984 . S
N737 H741 0.985 . S
H738 N733 0.984 . S
H739 N733 0.985 . S
H740 N737 0.984 . S
H741 N737 0.985 . S
H742 N736 0.984 . S
H743 N736 0.984 . S
H744 N732 0.984 1_455 S
H745 N732 0.985 . S
C746 C747 1.363 1_545 S
C746 C752 1.379 . S
C746 N754 1.356 . S
C747 C746 1.363 1_565 S
C747 C753 1.363 . S
C748 C749 1.363 . S
C748 C753 1.379 . S
C748 N755 1.356 . S
C749 C748 1.363 . S
C749 C752 1.363 1_565 S
N750 C752 1.356 . S
N750 H762 0.984 . S
N750 H763 0.985 . S
N751 C753 1.356 . S
N751 H756 0.984 . S
N751 H757 0.985 . S
C752 C746 1.379 . S
C752 C749 1.363 1_545 S
C752 N750 1.356 . S
C753 C747 1.363 . S
C753 C748 1.379 . S
C753 N751 1.356 . S
N754 C746 1.356 . S
N754 H760 0.984 . S
N754 H761 0.984 . S
N755 C748 1.356 . S
N755 H758 0.984 . S
N755 H759 0.985 . S
H756 N751 0.984 . S
H757 N751 0.985 . S
H758 N755 0.984 . S
H759 N755 0.985 . S
H760 N754 0.984 . S
H761 N754 0.984 . S
H762 N750 0.984 . S
H763 N750 0.985 . S
C764 C765 1.363 . S
C764 C770 1.379 . S
C764 N772 1.356 . S
C765 C764 1.363 . S
C765 C771 1.363 . S
C766 C767 1.363 . S
C766 C771 1.379 . S
C766 N773 1.356 . S
C767 C766 1.363 . S
C767 C770 1.363 . S
N768 C770 1.356 . S
N768 H780 0.984 . S
N768 H781 0.985 . S
N769 C771 1.356 . S
N769 H774 0.984 . S
N769 H775 0.985 . S
C770 C764 1.379 . S
C770 C767 1.363 . S
C770 N768 1.356 . S
C771 C765 1.363 . S
C771 C766 1.379 . S
C771 N769 1.356 . S
N772 C764 1.356 . S
N772 H778 0.984 . S
N772 H779 0.984 . S
N773 C766 1.356 . S
N773 H776 0.984 . S
N773 H777 0.985 . S
H774 N769 0.984 . S
H775 N769 0.985 . S
H776 N773 0.984 . S
H777 N773 0.985 . S
H778 N772 0.984 . S
H779 N772 0.984 . S
H780 N768 0.984 . S
H781 N768 0.985 . S
C782 C783 1.363 . S
C782 C788 1.379 . S
C782 N790 1.356 . S
C783 C782 1.363 . S
C783 C789 1.363 . S
C784 C785 1.363 . S
C784 C789 1.379 . S
C784 N791 1.356 . S
C785 C784 1.363 . S
C785 C788 1.363 . S
N786 C788 1.356 . S
N786 H798 0.984 . S
N786 H799 0.985 . S
N787 C789 1.356 . S
N787 H792 0.984 . S
N787 H793 0.985 . S
C788 C782 1.379 . S
C788 C785 1.363 . S
C788 N786 1.356 . S
C789 C783 1.363 . S
C789 C784 1.379 . S
C789 N787 1.356 . S
N790 C782 1.356 . S
N790 H796 0.984 . S
N790 H797 0.984 . S
N791 C784 1.356 . S
N791 H794 0.984 . S
N791 H795 0.985 . S
H792 N787 0.984 . S
H793 N787 0.985 . S
H794 N791 0.984 . S
H795 N791 0.985 . S
H796 N790 0.984 . S
H797 N790 0.984 . S
H798 N786 0.984 . S
H799 N786 0.985 . S
C369 C241 1.833 1_565 S
C371 C296 2.026 . S
C389 C326 2.504 . S
C387 C277 2.315 . S
C407 C336 2.129 . S
C405 C169 1.893 . S
C425 C356 2.066 . S
C423 C205 1.835 . S
C443 C297 2.026 . S
C441 C97 1.827 . S
C459 C133 2.403 1_556 S
C461 C327 2.506 . S
C477 C25 1.956 . S
C479 C337 2.129 . S
C495 C61 1.765 . S
C497 C357 2.066 . S
C515 C289 1.184 . S
C513 C211 1.120 . S
C533 C310 0.730 . S
C531 C247 0.735 . S
C551 C329 1.403 . S
C549 C253 1.247 . S
C567 C175 0.807 . S
C569 C349 0.828 . S
C585 C67 1.050 . S
C587 C290 1.187 1_655 S
C605 C309 0.730 . S
C603 C103 0.735 1_565 S
C623 C330 1.403 . S
C621 C109 1.321 . S
C639 C31 0.813 . S
C641 C350 0.828 . S
C657 C181 2.404 . S
C659 C307 2.679 . S
C675 C217 2.084 . S
C677 C317 2.428 . S
C695 C347 2.908 . S
C693 C283 2.466 . S
C713 C367 2.769 . S
C711 C145 2.460 . S
C729 C37 2.367 . S
C731 C306 2.687 . S
C749 C316 2.427 . S
C747 C73 2.090 1_565 S
C767 C346 2.908 . S
C765 C139 2.531 . S
C783 C1 2.511 . S
C785 C366 2.769 . S
