# Generated by pormake.
# Topology ptr, (4,4)-cn, num edge types: 1
# Building blocks:
#     Node 0, Type 0, BuildingBlock: AZAVOO_clean_sbu_0, # of connection points: 4
#     Node 1, Type 0, BuildingBlock: AZAVOO_clean_sbu_0, # of connection points: 4
#     Node 2, Type 0, BuildingBlock: AZAVOO_clean_sbu_0, # of connection points: 4
#     Node 3, Type 0, BuildingBlock: AZAVOO_clean_sbu_0, # of connection points: 4
#     Node 4, Type 0, BuildingBlock: AZAVOO_clean_sbu_0, # of connection points: 4
#     Node 5, Type 0, BuildingBlock: AZAVOO_clean_sbu_0, # of connection points: 4
#     Node 6, Type 0, BuildingBlock: AZAVOO_clean_sbu_0, # of connection points: 4
#     Node 7, Type 0, BuildingBlock: AZAVOO_clean_sbu_0, # of connection points: 4
#     Node 8, Type 0, BuildingBlock: AZAVOO_clean_sbu_0, # of connection points: 4
#     Node 9, Type 0, BuildingBlock: AZAVOO_clean_sbu_0, # of connection points: 4
#     Node 10, Type 0, BuildingBlock: AZAVOO_clean_sbu_0, # of connection points: 4
#     Node 11, Type 0, BuildingBlock: AZAVOO_clean_sbu_0, # of connection points: 4
#     Node 12, Type 0, BuildingBlock: AZAVOO_clean_sbu_0, # of connection points: 4
#     Node 13, Type 0, BuildingBlock: AZAVOO_clean_sbu_0, # of connection points: 4
#     Node 14, Type 0, BuildingBlock: AZAVOO_clean_sbu_0, # of connection points: 4
#     Node 15, Type 0, BuildingBlock: AZAVOO_clean_sbu_0, # of connection points: 4
#     Node 16, Type 0, BuildingBlock: AZAVOO_clean_sbu_0, # of connection points: 4
#     Node 17, Type 0, BuildingBlock: AZAVOO_clean_sbu_0, # of connection points: 4
#     Node 18, Type 1, BuildingBlock: MUDLON_clean_linker_0, # of connection points: 4
#     Node 19, Type 1, BuildingBlock: MUDLON_clean_linker_0, # of connection points: 4
#     Node 20, Type 1, BuildingBlock: MUDLON_clean_linker_0, # of connection points: 4
#     Node 21, Type 1, BuildingBlock: MUDLON_clean_linker_0, # of connection points: 4
#     Node 22, Type 1, BuildingBlock: MUDLON_clean_linker_0, # of connection points: 4
#     Node 23, Type 1, BuildingBlock: MUDLON_clean_linker_0, # of connection points: 4
#     Node 24, Type 1, BuildingBlock: MUDLON_clean_linker_0, # of connection points: 4
#     Node 25, Type 1, BuildingBlock: MUDLON_clean_linker_0, # of connection points: 4
#     Node 26, Type 1, BuildingBlock: MUDLON_clean_linker_0, # of connection points: 4
#     Node 27, Type 1, BuildingBlock: MUDLON_clean_linker_0, # of connection points: 4
#     Node 28, Type 1, BuildingBlock: MUDLON_clean_linker_0, # of connection points: 4
#     Node 29, Type 1, BuildingBlock: MUDLON_clean_linker_0, # of connection points: 4
#     Node 30, Type 1, BuildingBlock: MUDLON_clean_linker_0, # of connection points: 4
#     Node 31, Type 1, BuildingBlock: MUDLON_clean_linker_0, # of connection points: 4
#     Node 32, Type 1, BuildingBlock: MUDLON_clean_linker_0, # of connection points: 4
#     Node 33, Type 1, BuildingBlock: MUDLON_clean_linker_0, # of connection points: 4
#     Node 34, Type 1, BuildingBlock: MUDLON_clean_linker_0, # of connection points: 4
#     Node 35, Type 1, BuildingBlock: MUDLON_clean_linker_0, # of connection points: 4
#     Edge 36, Type (0, 1), BuildingBlock: AJUNOK_clean_linker_0, # of connection points: 2
#     Edge 37, Type (0, 1), BuildingBlock: AJUNOK_clean_linker_0, # of connection points: 2
#     Edge 38, Type (0, 1), BuildingBlock: AJUNOK_clean_linker_0, # of connection points: 2
#     Edge 39, Type (0, 1), BuildingBlock: AJUNOK_clean_linker_0, # of connection points: 2
#     Edge 40, Type (0, 1), BuildingBlock: AJUNOK_clean_linker_0, # of connection points: 2
#     Edge 41, Type (0, 1), BuildingBlock: AJUNOK_clean_linker_0, # of connection points: 2
#     Edge 42, Type (0, 1), BuildingBlock: AJUNOK_clean_linker_0, # of connection points: 2
#     Edge 43, Type (0, 1), BuildingBlock: AJUNOK_clean_linker_0, # of connection points: 2
#     Edge 44, Type (0, 1), BuildingBlock: AJUNOK_clean_linker_0, # of connection points: 2
#     Edge 45, Type (0, 1), BuildingBlock: AJUNOK_clean_linker_0, # of connection points: 2
#     Edge 46, Type (0, 1), BuildingBlock: AJUNOK_clean_linker_0, # of connection points: 2
#     Edge 47, Type (0, 1), BuildingBlock: AJUNOK_clean_linker_0, # of connection points: 2
#     Edge 48, Type (0, 1), BuildingBlock: AJUNOK_clean_linker_0, # of connection points: 2
#     Edge 49, Type (0, 1), BuildingBlock: AJUNOK_clean_linker_0, # of connection points: 2
#     Edge 50, Type (0, 1), BuildingBlock: AJUNOK_clean_linker_0, # of connection points: 2
#     Edge 51, Type (0, 1), BuildingBlock: AJUNOK_clean_linker_0, # of connection points: 2
#     Edge 52, Type (0, 1), BuildingBlock: AJUNOK_clean_linker_0, # of connection points: 2
#     Edge 53, Type (0, 1), BuildingBlock: AJUNOK_clean_linker_0, # of connection points: 2
#     Edge 54, Type (0, 1), BuildingBlock: AJUNOK_clean_linker_0, # of connection points: 2
#     Edge 55, Type (0, 1), BuildingBlock: AJUNOK_clean_linker_0, # of connection points: 2
#     Edge 56, Type (0, 1), BuildingBlock: AJUNOK_clean_linker_0, # of connection points: 2
#     Edge 57, Type (0, 1), BuildingBlock: AJUNOK_clean_linker_0, # of connection points: 2
#     Edge 58, Type (0, 1), BuildingBlock: AJUNOK_clean_linker_0, # of connection points: 2
#     Edge 59, Type (0, 1), BuildingBlock: AJUNOK_clean_linker_0, # of connection points: 2
#     Edge 60, Type (0, 1), BuildingBlock: AJUNOK_clean_linker_0, # of connection points: 2
#     Edge 61, Type (0, 1), BuildingBlock: AJUNOK_clean_linker_0, # of connection points: 2
#     Edge 62, Type (0, 1), BuildingBlock: AJUNOK_clean_linker_0, # of connection points: 2
#     Edge 63, Type (0, 1), BuildingBlock: AJUNOK_clean_linker_0, # of connection points: 2
#     Edge 64, Type (0, 1), BuildingBlock: AJUNOK_clean_linker_0, # of connection points: 2
#     Edge 65, Type (0, 1), BuildingBlock: AJUNOK_clean_linker_0, # of connection points: 2
#     Edge 66, Type (0, 1), BuildingBlock: AJUNOK_clean_linker_0, # of connection points: 2
#     Edge 67, Type (0, 1), BuildingBlock: AJUNOK_clean_linker_0, # of connection points: 2
#     Edge 68, Type (0, 1), BuildingBlock: AJUNOK_clean_linker_0, # of connection points: 2
#     Edge 69, Type (0, 1), BuildingBlock: AJUNOK_clean_linker_0, # of connection points: 2
#     Edge 70, Type (0, 1), BuildingBlock: AJUNOK_clean_linker_0, # of connection points: 2
#     Edge 71, Type (0, 1), BuildingBlock: AJUNOK_clean_linker_0, # of connection points: 2
#     Edge 72, Type (0, 1), BuildingBlock: AJUNOK_clean_linker_0, # of connection points: 2
#     Edge 73, Type (0, 1), BuildingBlock: AJUNOK_clean_linker_0, # of connection points: 2
#     Edge 74, Type (0, 1), BuildingBlock: AJUNOK_clean_linker_0, # of connection points: 2
#     Edge 75, Type (0, 1), BuildingBlock: AJUNOK_clean_linker_0, # of connection points: 2
#     Edge 76, Type (0, 1), BuildingBlock: AJUNOK_clean_linker_0, # of connection points: 2
#     Edge 77, Type (0, 1), BuildingBlock: AJUNOK_clean_linker_0, # of connection points: 2
#     Edge 78, Type (0, 1), BuildingBlock: AJUNOK_clean_linker_0, # of connection points: 2
#     Edge 79, Type (0, 1), BuildingBlock: AJUNOK_clean_linker_0, # of connection points: 2
#     Edge 80, Type (0, 1), BuildingBlock: AJUNOK_clean_linker_0, # of connection points: 2
#     Edge 81, Type (0, 1), BuildingBlock: AJUNOK_clean_linker_0, # of connection points: 2
#     Edge 82, Type (0, 1), BuildingBlock: AJUNOK_clean_linker_0, # of connection points: 2
#     Edge 83, Type (0, 1), BuildingBlock: AJUNOK_clean_linker_0, # of connection points: 2
#     Edge 84, Type (0, 1), BuildingBlock: AJUNOK_clean_linker_0, # of connection points: 2
#     Edge 85, Type (0, 1), BuildingBlock: AJUNOK_clean_linker_0, # of connection points: 2
#     Edge 86, Type (0, 1), BuildingBlock: AJUNOK_clean_linker_0, # of connection points: 2
#     Edge 87, Type (0, 1), BuildingBlock: AJUNOK_clean_linker_0, # of connection points: 2
#     Edge 88, Type (0, 1), BuildingBlock: AJUNOK_clean_linker_0, # of connection points: 2
#     Edge 89, Type (0, 1), BuildingBlock: AJUNOK_clean_linker_0, # of connection points: 2
#     Edge 90, Type (0, 1), BuildingBlock: AJUNOK_clean_linker_0, # of connection points: 2
#     Edge 91, Type (0, 1), BuildingBlock: AJUNOK_clean_linker_0, # of connection points: 2
#     Edge 92, Type (0, 1), BuildingBlock: AJUNOK_clean_linker_0, # of connection points: 2
#     Edge 93, Type (0, 1), BuildingBlock: AJUNOK_clean_linker_0, # of connection points: 2
#     Edge 94, Type (0, 1), BuildingBlock: AJUNOK_clean_linker_0, # of connection points: 2
#     Edge 95, Type (0, 1), BuildingBlock: AJUNOK_clean_linker_0, # of connection points: 2
#     Edge 96, Type (0, 1), BuildingBlock: AJUNOK_clean_linker_0, # of connection points: 2
#     Edge 97, Type (0, 1), BuildingBlock: AJUNOK_clean_linker_0, # of connection points: 2
#     Edge 98, Type (0, 1), BuildingBlock: AJUNOK_clean_linker_0, # of connection points: 2
#     Edge 99, Type (0, 1), BuildingBlock: AJUNOK_clean_linker_0, # of connection points: 2
#     Edge 100, Type (0, 1), BuildingBlock: AJUNOK_clean_linker_0, # of connection points: 2
#     Edge 101, Type (0, 1), BuildingBlock: AJUNOK_clean_linker_0, # of connection points: 2
#     Edge 102, Type (0, 1), BuildingBlock: AJUNOK_clean_linker_0, # of connection points: 2
#     Edge 103, Type (0, 1), BuildingBlock: AJUNOK_clean_linker_0, # of connection points: 2
#     Edge 104, Type (0, 1), BuildingBlock: AJUNOK_clean_linker_0, # of connection points: 2
#     Edge 105, Type (0, 1), BuildingBlock: AJUNOK_clean_linker_0, # of connection points: 2
#     Edge 106, Type (0, 1), BuildingBlock: AJUNOK_clean_linker_0, # of connection points: 2
#     Edge 107, Type (0, 1), BuildingBlock: AJUNOK_clean_linker_0, # of connection points: 2
# Relax obj value: 0.069
# Max RMSD: 0.230
# Mean RMSD: 0.113
data_MOF--net-ptr--node1-AZAVOO_clean_sbu_0--node2-MUDLON_clean_linker_0--edge1-AJUNOK_clean_linker_0
_symmetry_space_group_name_H-M    P1
_symmetry_Int_Tables_number       1
_symmetry_cell_setting            triclinic
loop_
_symmetry_equiv_pos_as_xyz
'x, y, z'
_cell_length_a     86.028794
_cell_length_b     84.771065
_cell_length_c     48.010388
_cell_angle_alpha  91.102877
_cell_angle_beta   91.083024
_cell_angle_gamma 120.03238
loop_
_atom_site_label
_atom_site_type_symbol
_atom_site_fract_x
_atom_site_fract_y
_atom_site_fract_z
_atom_type_partial_charge
Mg0 Mg 0.01326 0.36231 0.98993 0.0
O1 O 0.00666 0.37456 0.02831 0.0
O2 O 0.98277 0.37689 0.01567 0.0
Mg3 Mg 0.97469 0.3675 0.97019 0.0
C4 C 0.99483 0.37904 0.0337 0.0
C5 C 0.03476 0.34363 0.00469 0.0
O6 O 0.02813 0.33717 0.97949 0.0
O7 O 0.98876 0.3342 0.99602 0.0
O8 O 0.96618 0.33799 0.98081 0.0
O9 O 0.03152 0.39037 0.97411 0.0
O10 O 0.0024 0.37385 0.96413 0.0
C11 C 0.97211 0.32788 0.98999 0.0
C12 C 0.01723 0.38896 0.96224 0.0
O13 O 0.0311 0.35501 0.01606 0.0
Mg14 Mg 0.64869 0.63586 0.05515 0.0
O15 O 0.62957 0.622 0.0175 0.0
O16 O 0.60253 0.61756 0.02777 0.0
Mg17 Mg 0.60415 0.62754 0.07308 0.0
C18 C 0.61315 0.61635 0.01078 0.0
C19 C 0.68582 0.66012 0.02987 0.0
O20 O 0.68549 0.6714 0.04867 0.0
O21 O 0.64928 0.66248 0.0473 0.0
O22 O 0.62273 0.6576 0.06159 0.0
O23 O 0.64162 0.60882 0.07173 0.0
O24 O 0.6274 0.62372 0.0819 0.0
C25 C 0.63832 0.6681 0.05223 0.0
C26 C 0.62872 0.60933 0.08447 0.0
O27 O 0.67269 0.64389 0.0276 0.0
Mg28 Mg 0.36124 0.9905 0.98676 0.0
O29 O 0.3803 0.99807 0.02482 0.0
O30 O 0.40752 0.02017 0.0133 0.0
Mg31 Mg 0.40633 0.02474 0.96665 0.0
C32 C 0.39674 0.00944 0.03102 0.0
C33 C 0.32274 0.96333 0.00716 0.0
O34 O 0.32148 0.95592 0.98232 0.0
O35 O 0.36133 0.01736 0.99 0.0
O36 O 0.38838 0.03718 0.97438 0.0
O37 O 0.36749 0.96888 0.97313 0.0
O38 O 0.38228 0.99745 0.9604 0.0
C39 C 0.37295 0.03337 0.98295 0.0
C40 C 0.3804 0.98142 0.95927 0.0
O41 O 0.33744 0.97734 0.015 0.0
Mg42 Mg 0.98785 0.64998 0.04094 0.0
O43 O 0.99445 0.63525 0.00605 0.0
O44 O 0.01494 0.62922 0.0242 0.0
Mg45 Mg 0.02165 0.63988 0.06938 0.0
C46 C 0.00476 0.62849 0.00392 0.0
C47 C 0.96536 0.66636 0.02211 0.0
O48 O 0.9669 0.66863 0.04937 0.0
O49 O 0.01448 0.67646 0.03517 0.0
O50 O 0.03369 0.66924 0.05501 0.0
O51 O 0.96693 0.62303 0.05766 0.0
O52 O 0.99542 0.63794 0.07135 0.0
C53 C 0.03039 0.68069 0.04322 0.0
C54 C 0.97977 0.6239 0.07333 0.0
O55 O 0.9729 0.65845 0.01044 0.0
Mg56 Mg 0.36136 0.3684 0.98157 0.0
O57 O 0.38202 0.37811 0.01816 0.0
O58 O 0.4077 0.38159 0.00185 0.0
Mg59 Mg 0.40339 0.37391 0.95529 0.0
C60 C 0.39844 0.38239 0.02174 0.0
C61 C 0.32517 0.3619 0.00365 0.0
O62 O 0.32513 0.36826 0.97894 0.0
O63 O 0.35779 0.34003 0.98263 0.0
O64 O 0.38317 0.34389 0.9645 0.0
O65 O 0.37021 0.39703 0.96995 0.0
O66 O 0.38185 0.38076 0.95371 0.0
C67 C 0.36769 0.3337 0.97441 0.0
C68 C 0.38185 0.39595 0.95453 0.0
O69 O 0.33867 0.36057 0.01141 0.0
Mg70 Mg 0.63836 0.00529 0.0398 0.0
O71 O 0.6192 0.99415 0.00116 0.0
O72 O 0.5943 0.96911 0.01343 0.0
Mg73 Mg 0.59703 0.96427 0.05939 0.0
C74 C 0.60349 0.98072 0.99533 0.0
C75 C 0.66079 0.03263 0.99328 0.0
O76 O 0.64503 0.03063 0.98647 0.0
O77 O 0.64484 0.98242 0.03551 0.0
O78 O 0.61981 0.95844 0.05025 0.0
O79 O 0.62612 0.02199 0.05403 0.0
O80 O 0.61653 0.99342 0.06498 0.0
C81 C 0.63583 0.96564 0.04161 0.0
C82 C 0.61455 0.00745 0.06628 0.0
O83 O 0.66212 0.02395 0.01358 0.0
Mg84 Mg 0.67948 0.69064 0.32208 0.0
O85 O 0.67468 0.70449 0.35984 0.0
O86 O 0.65051 0.70704 0.34994 0.0
Mg87 Mg 0.64148 0.69701 0.30465 0.0
C88 C 0.66323 0.70918 0.36654 0.0
C89 C 0.70763 0.67943 0.33517 0.0
O90 O 0.70721 0.67958 0.30781 0.0
O91 O 0.65475 0.66323 0.33013 0.0
O92 O 0.63213 0.66728 0.31598 0.0
O93 O 0.69792 0.7178 0.30532 0.0
O94 O 0.66876 0.7022 0.29559 0.0
C95 C 0.63802 0.65713 0.32517 0.0
C96 C 0.68399 0.71689 0.29289 0.0
O97 O 0.69746 0.68365 0.34835 0.0
Mg98 Mg 0.30749 0.97557 0.38275 0.0
O99 O 0.28755 0.96475 0.3456 0.0
O100 O 0.2618 0.96281 0.35832 0.0
Mg101 Mg 0.26488 0.97031 0.40508 0.0
C102 C 0.27151 0.9611 0.34008 0.0
C103 C 0.34599 0.99567 0.35854 0.0
O104 O 0.34909 0.00579 0.38131 0.0
O105 O 0.31093 0.00383 0.37945 0.0
O106 O 0.2854 0.00031 0.39632 0.0
O107 O 0.29845 0.94727 0.39515 0.0
O108 O 0.28653 0.96355 0.41015 0.0
C109 C 0.30103 0.01034 0.38678 0.0
C110 C 0.28648 0.94831 0.4098 0.0
O111 O 0.33023 0.98241 0.35339 0.0
Mg112 Mg 0.02533 0.33119 0.3205 0.0
O113 O 0.04384 0.33476 0.35753 0.0
O114 O 0.07184 0.35653 0.34894 0.0
Mg115 Mg 0.07133 0.36506 0.30398 0.0
C116 C 0.06034 0.34476 0.36482 0.0
C117 C 0.98826 0.30089 0.33976 0.0
O118 O 0.98843 0.2946 0.31462 0.0
O119 O 0.02688 0.35841 0.33017 0.0
O120 O 0.05432 0.37791 0.31582 0.0
O121 O 0.0304 0.30988 0.30184 0.0
O122 O 0.04631 0.33925 0.29349 0.0
C123 C 0.03918 0.3746 0.32506 0.0
C124 C 0.04368 0.32304 0.28947 0.0
O125 O 0.00152 0.31606 0.34819 0.0
Mg126 Mg 0.66122 0.9739 0.3679 0.0
O127 O 0.67153 0.9633 0.33216 0.0
O128 O 0.69536 0.96241 0.34948 0.0
Mg129 Mg 0.69971 0.97111 0.39558 0.0
C130 C 0.6845 0.96015 0.32927 0.0
C131 C 0.62836 0.97543 0.3478 0.0
O132 O 0.62478 0.96947 0.37327 0.0
O133 O 0.68495 0.00277 0.36424 0.0
O134 O 0.70732 0.00031 0.38411 0.0
O135 O 0.64311 0.94566 0.38197 0.0
O136 O 0.67122 0.96314 0.39704 0.0
C137 C 0.70128 0.00982 0.37294 0.0
C138 C 0.65652 0.9477 0.39744 0.0
O139 O 0.6434 0.97904 0.33807 0.0
Mg140 Mg 0.02947 0.69284 0.30995 0.0
O141 O 0.0481 0.70276 0.34872 0.0
O142 O 0.0738 0.70396 0.33829 0.0
Mg143 Mg 0.07201 0.69596 0.29183 0.0
C144 C 0.06382 0.70596 0.35568 0.0
C145 C 0.98994 0.67535 0.3275 0.0
O146 O 0.98794 0.66822 0.30224 0.0
O147 O 0.02443 0.66399 0.31416 0.0
O148 O 0.04978 0.66632 0.29858 0.0
O149 O 0.04029 0.72148 0.29626 0.0
O150 O 0.05158 0.70401 0.28467 0.0
C151 C 0.03376 0.65678 0.30705 0.0
C152 C 0.05242 0.71956 0.28356 0.0
O153 O 0.00571 0.68647 0.33693 0.0
Mg154 Mg 0.30995 0.35361 0.37109 0.0
O155 O 0.29062 0.34272 0.3331 0.0
O156 O 0.26382 0.32135 0.34726 0.0
Mg157 Mg 0.26538 0.32 0.39486 0.0
C158 C 0.27422 0.33064 0.32797 0.0
C159 C 0.34662 0.36288 0.34495 0.0
O160 O 0.34585 0.35151 0.3638 0.0
O161 O 0.31034 0.32686 0.3725 0.0
O162 O 0.2842 0.30823 0.3919 0.0
O163 O 0.30317 0.37559 0.38012 0.0
O164 O 0.28861 0.34777 0.39623 0.0
C165 C 0.29942 0.31162 0.38295 0.0
C166 C 0.29006 0.36354 0.3942 0.0
O167 O 0.33405 0.36658 0.3429 0.0
Mg168 Mg 0.34881 0.02762 0.65017 0.0
O169 O 0.34286 0.04012 0.6882 0.0
O170 O 0.32019 0.04475 0.6774 0.0
Mg171 Mg 0.31201 0.03559 0.63159 0.0
C172 C 0.33203 0.04562 0.6948 0.0
C173 C 0.3738 0.01238 0.66746 0.0
O174 O 0.37326 0.01011 0.64024 0.0
O175 O 0.32356 0.00029 0.6555 0.0
O176 O 0.30161 0.00534 0.64132 0.0
O177 O 0.36813 0.05541 0.63602 0.0
O178 O 0.33931 0.04036 0.62372 0.0
C179 C 0.30701 0.99463 0.64982 0.0
C180 C 0.3547 0.05509 0.62282 0.0
O181 O 0.36514 0.01941 0.67803 0.0
Mg182 Mg 0.97819 0.30575 0.72303 0.0
O183 O 0.95969 0.29264 0.68461 0.0
O184 O 0.93245 0.2884 0.69327 0.0
Mg185 Mg 0.93324 0.29698 0.73912 0.0
C186 C 0.94351 0.28744 0.67698 0.0
C187 C 0.01416 0.30984 0.70229 0.0
O188 O 0.01293 0.30179 0.72591 0.0
O189 O 0.97953 0.33301 0.71692 0.0
O190 O 0.95231 0.32715 0.72972 0.0
O191 O 0.97053 0.27818 0.73821 0.0
O192 O 0.95641 0.29311 0.74885 0.0
C193 C 0.96817 0.33815 0.72182 0.0
C194 C 0.95754 0.27857 0.75082 0.0
O195 O 0.00208 0.31364 0.69558 0.0
Mg196 Mg 0.69696 0.65147 0.65117 0.0
O197 O 0.71714 0.66352 0.68797 0.0
O198 O 0.74271 0.68694 0.67411 0.0
Mg199 Mg 0.73901 0.68942 0.62742 0.0
C200 C 0.73315 0.67645 0.69311 0.0
C201 C 0.65854 0.62891 0.6754 0.0
O202 O 0.6538 0.63096 0.65016 0.0
O203 O 0.69216 0.67552 0.65297 0.0
O204 O 0.71793 0.69775 0.63665 0.0
O205 O 0.70728 0.6329 0.63878 0.0
O206 O 0.71754 0.66057 0.62315 0.0
C207 C 0.70218 0.69194 0.64578 0.0
C208 C 0.71835 0.64582 0.62323 0.0
O209 O 0.67513 0.63586 0.68182 0.0
Mg210 Mg 0.32309 0.30965 0.70333 0.0
O211 O 0.33021 0.29664 0.667 0.0
O212 O 0.35093 0.29019 0.68286 0.0
Mg213 Mg 0.35668 0.29855 0.72921 0.0
C214 C 0.34082 0.2904 0.66322 0.0
C215 C 0.30613 0.33197 0.68148 0.0
O216 O 0.31223 0.33962 0.70634 0.0
O217 O 0.34967 0.33604 0.69977 0.0
O218 O 0.36918 0.32898 0.71893 0.0
O219 O 0.30159 0.2824 0.71702 0.0
O220 O 0.33005 0.29589 0.73162 0.0
C221 C 0.36556 0.34053 0.70819 0.0
C222 C 0.31414 0.28195 0.73168 0.0
O223 O 0.30884 0.31918 0.67351 0.0
Mg224 Mg 0.68879 0.03157 0.64023 0.0
O225 O 0.70726 0.04598 0.67803 0.0
O226 O 0.73506 0.05225 0.66919 0.0
Mg227 Mg 0.73428 0.0424 0.62392 0.0
C228 C 0.72371 0.05268 0.68548 0.0
C229 C 0.65353 0.02772 0.66607 0.0
O230 O 0.65531 0.03928 0.64684 0.0
O231 O 0.68923 0.00546 0.64821 0.0
O232 O 0.71647 0.01214 0.63466 0.0
O233 O 0.69494 0.05848 0.62373 0.0
O234 O 0.7102 0.0446 0.614 0.0
C235 C 0.70095 0.00081 0.64344 0.0
C236 C 0.70828 0.05862 0.6114 0.0
O237 O 0.66495 0.02243 0.66798 0.0
Mg238 Mg 0.97149 0.68251 0.70094 0.0
O239 O 0.95111 0.67064 0.66438 0.0
O240 O 0.92521 0.64861 0.68001 0.0
Mg241 Mg 0.92852 0.64779 0.72735 0.0
C242 C 0.93482 0.65805 0.66017 0.0
C243 C 0.00786 0.71066 0.67506 0.0
O244 O 0.00908 0.71983 0.69817 0.0
O245 O 0.97376 0.65688 0.70197 0.0
O246 O 0.94824 0.63723 0.72178 0.0
O247 O 0.96342 0.70333 0.71119 0.0
O248 O 0.95123 0.676 0.72871 0.0
C249 C 0.96352 0.64134 0.71219 0.0
C250 C 0.95176 0.69138 0.72738 0.0
O251 O 0.99395 0.69519 0.67029 0.0
H252 H 0.24515 0.34279 0.15802 0.0
N253 N 0.22124 0.30999 0.13224 0.0
H254 H 0.25788 0.3475 0.20527 0.0
H255 H 0.21389 0.28493 0.17017 0.0
H256 H 0.22689 0.28958 0.21769 0.0
H257 H 0.23739 0.29375 0.10878 0.0
H258 H 0.26209 0.30672 0.07632 0.0
H259 H 0.23537 0.34354 0.10897 0.0
H260 H 0.26025 0.3567 0.0769 0.0
H261 H 0.21415 0.3364 0.15203 0.0
H262 H 0.19228 0.28662 0.102 0.0
H263 H 0.1855 0.33569 0.14779 0.0
H264 H 0.16361 0.28622 0.09696 0.0
H265 H 0.1151 0.33111 0.15732 0.0
H266 H 0.10358 0.33633 0.20044 0.0
H267 H 0.05991 0.2805 0.19565 0.0
H268 H 0.07225 0.27513 0.15336 0.0
H269 H 0.07092 0.27955 0.09449 0.0
H270 H 0.05619 0.29061 0.06265 0.0
H271 H 0.10021 0.34563 0.07654 0.0
H272 H 0.11489 0.33443 0.10841 0.0
H273 H 0.12387 0.30443 0.16994 0.0
H274 H 0.15412 0.30995 0.16767 0.0
H275 H 0.14986 0.30667 0.07796 0.0
N276 N 0.10047 0.29933 0.12589 0.0
H277 H 0.11943 0.30192 0.07974 0.0
C278 C 0.22858 0.3134 0.16044 0.0
C279 C 0.24104 0.33106 0.17077 0.0
C280 C 0.24842 0.33375 0.19777 0.0
C281 C 0.24359 0.31887 0.21495 0.0
C282 C 0.23086 0.30128 0.20484 0.0
C283 C 0.22347 0.2986 0.17779 0.0
C284 C 0.23449 0.31757 0.11114 0.0
C285 C 0.24215 0.30738 0.1015 0.0
C286 C 0.25628 0.31484 0.08317 0.0
C287 C 0.26303 0.33269 0.07409 0.0
C288 C 0.25511 0.34281 0.08325 0.0
C289 C 0.24093 0.33532 0.10163 0.0
C290 C 0.20524 0.31123 0.12784 0.0
C291 C 0.2033 0.32539 0.13994 0.0
C292 C 0.18694 0.32505 0.13739 0.0
C293 C 0.1724 0.31087 0.12215 0.0
C294 C 0.17467 0.29735 0.10868 0.0
C295 C 0.19095 0.29751 0.11166 0.0
C296 C 0.09461 0.3026 0.15231 0.0
C297 C 0.1032 0.31993 0.16577 0.0
C298 C 0.09659 0.32288 0.19043 0.0
C299 C 0.08093 0.30878 0.20172 0.0
C300 C 0.07233 0.2915 0.18812 0.0
C301 C 0.07922 0.28844 0.16379 0.0
C302 C 0.09395 0.30607 0.10377 0.0
C303 C 0.07759 0.29392 0.09009 0.0
C304 C 0.06922 0.30027 0.07193 0.0
C305 C 0.0771 0.31898 0.06705 0.0
C306 C 0.09382 0.33115 0.08003 0.0
C307 C 0.10223 0.32476 0.09816 0.0
C308 C 0.11928 0.30409 0.12491 0.0
C309 C 0.12939 0.30576 0.14952 0.0
C310 C 0.14683 0.30874 0.14835 0.0
C311 C 0.15444 0.30918 0.12267 0.0
C312 C 0.14436 0.30675 0.09804 0.0
C313 C 0.12699 0.3042 0.09913 0.0
H314 H 0.71615 0.78046 0.14856 0.0
N315 N 0.69397 0.79128 0.12936 0.0
H316 H 0.71441 0.7654 0.19236 0.0
H317 H 0.67098 0.78621 0.17138 0.0
H318 H 0.66915 0.77114 0.21531 0.0
H319 H 0.65828 0.76532 0.13058 0.0
H320 H 0.64368 0.73717 0.10279 0.0
H321 H 0.70563 0.78487 0.08185 0.0
H322 H 0.69047 0.7571 0.05214 0.0
H323 H 0.7198 0.82358 0.14816 0.0
H324 H 0.66637 0.79668 0.11065 0.0
H325 H 0.71944 0.85202 0.15153 0.0
H326 H 0.66644 0.82535 0.11171 0.0
H327 H 0.71793 0.94133 0.166 0.0
H328 H 0.71639 0.95426 0.21134 0.0
H329 H 0.66645 0.90516 0.22621 0.0
H330 H 0.66794 0.89242 0.18116 0.0
H331 H 0.65855 0.90001 0.13851 0.0
H332 H 0.64507 0.91122 0.10525 0.0
H333 H 0.69536 0.93951 0.06319 0.0
H334 H 0.70906 0.92872 0.09764 0.0
H335 H 0.72168 0.90475 0.13406 0.0
H336 H 0.72158 0.87609 0.12804 0.0
H337 H 0.66412 0.8465 0.13914 0.0
N338 N 0.69399 0.90953 0.14231 0.0
H339 H 0.66427 0.87519 0.14229 0.0
C340 C 0.69376 0.78443 0.15672 0.0
C341 C 0.70611 0.77879 0.16332 0.0
C342 C 0.70514 0.7703 0.18836 0.0
C343 C 0.69174 0.76728 0.20731 0.0
C344 C 0.67962 0.77336 0.20106 0.0
C345 C 0.68067 0.78197 0.17604 0.0
C346 C 0.6833 0.77707 0.10872 0.0
C347 C 0.66533 0.76385 0.11323 0.0
C348 C 0.65682 0.74776 0.09688 0.0
C349 C 0.66589 0.74475 0.07516 0.0
C350 C 0.68318 0.75886 0.06893 0.0
C351 C 0.69183 0.77479 0.08572 0.0
C352 C 0.69326 0.80795 0.12912 0.0
C353 C 0.70811 0.82391 0.14018 0.0
C354 C 0.70791 0.84025 0.14181 0.0
C355 C 0.69295 0.8412 0.13169 0.0
C356 C 0.6781 0.82519 0.12019 0.0
C357 C 0.67813 0.80869 0.11924 0.0
C358 C 0.69322 0.91588 0.17009 0.0
C359 C 0.70679 0.93329 0.17924 0.0
C360 C 0.70589 0.94062 0.2051 0.0
C361 C 0.69133 0.93064 0.22232 0.0
C362 C 0.67778 0.91315 0.21328 0.0
C363 C 0.67872 0.9058 0.18747 0.0
C364 C 0.68494 0.91375 0.12073 0.0
C365 C 0.66665 0.90834 0.12194 0.0
C366 C 0.65886 0.9146 0.10258 0.0
C367 C 0.6691 0.92612 0.08134 0.0
C368 C 0.68714 0.93068 0.07931 0.0
C369 C 0.69496 0.92453 0.09888 0.0
C370 C 0.69315 0.89219 0.13937 0.0
C371 C 0.7091 0.89202 0.13511 0.0
C372 C 0.70899 0.87556 0.13194 0.0
C373 C 0.69287 0.85878 0.13357 0.0
C374 C 0.6768 0.85902 0.13749 0.0
C375 C 0.6769 0.87554 0.13992 0.0
H376 H 0.12191 0.75801 0.14806 0.0
N377 N 0.12739 0.78878 0.12606 0.0
H378 H 0.10561 0.74398 0.19006 0.0
H379 H 0.11559 0.80466 0.16458 0.0
H380 H 0.10037 0.79129 0.20732 0.0
H381 H 0.09301 0.78254 0.12022 0.0
H382 H 0.06995 0.75926 0.08919 0.0
H383 H 0.13349 0.77568 0.07936 0.0
H384 H 0.11065 0.75344 0.04638 0.0
H385 H 0.16252 0.8026 0.13068 0.0
H386 H 0.12192 0.81749 0.11798 0.0
H387 H 0.18578 0.83471 0.13289 0.0
H388 H 0.14494 0.84983 0.12188 0.0
H389 H 0.25612 0.92868 0.16445 0.0
H390 H 0.26747 0.93884 0.21155 0.0
H391 H 0.21709 0.93467 0.23342 0.0
H392 H 0.20613 0.9259 0.18498 0.0
H393 H 0.23665 0.95085 0.1143 0.0
H394 H 0.26013 0.961 0.07957 0.0
H395 H 0.26177 0.91129 0.0886 0.0
H396 H 0.2386 0.90131 0.12316 0.0
H397 H 0.22014 0.89109 0.1702 0.0
H398 H 0.19644 0.8595 0.16444 0.0
H399 H 0.16994 0.87478 0.10197 0.0
N400 N 0.22258 0.92027 0.14264 0.0
H401 H 0.19338 0.90675 0.10921 0.0
C402 C 0.12009 0.78236 0.15307 0.0
C403 C 0.11743 0.76542 0.16114 0.0
C404 C 0.10817 0.75748 0.18517 0.0
C405 C 0.10148 0.76642 0.20185 0.0
C406 C 0.10495 0.78384 0.19455 0.0
C407 C 0.11394 0.79164 0.1702 0.0
C408 C 0.11491 0.78034 0.10268 0.0
C409 C 0.09706 0.77663 0.10371 0.0
C410 C 0.08384 0.7634 0.08558 0.0
C411 C 0.08837 0.75418 0.06548 0.0
C412 C 0.10665 0.75997 0.06201 0.0
C413 C 0.11975 0.77278 0.08068 0.0
C414 C 0.14061 0.80776 0.12452 0.0
C415 C 0.1587 0.81291 0.12834 0.0
C416 C 0.17191 0.83127 0.12994 0.0
C417 C 0.16725 0.84495 0.12821 0.0
C418 C 0.14907 0.83971 0.12322 0.0
C419 C 0.13586 0.82125 0.12115 0.0
C420 C 0.23009 0.92656 0.1707 0.0
C421 C 0.2474 0.93006 0.17895 0.0
C422 C 0.25387 0.93563 0.20633 0.0
C423 C 0.24305 0.93714 0.22657 0.0
C424 C 0.22582 0.93369 0.21838 0.0
C425 C 0.2195 0.92861 0.19074 0.0
C426 C 0.23562 0.92527 0.12108 0.0
C427 C 0.24194 0.94209 0.10848 0.0
C428 C 0.25533 0.94786 0.0888 0.0
C429 C 0.26254 0.9368 0.08123 0.0
C430 C 0.25613 0.91988 0.09362 0.0
C431 C 0.24285 0.91417 0.1134 0.0
C432 C 0.2084 0.90141 0.14038 0.0
C433 C 0.2091 0.88775 0.15561 0.0
C434 C 0.19561 0.86957 0.15193 0.0
C435 C 0.18129 0.86448 0.13251 0.0
C436 C 0.18061 0.87818 0.11735 0.0
C437 C 0.19401 0.89644 0.12135 0.0
H438 H 0.33706 0.2217 0.84969 0.0
N439 N 0.313 0.20932 0.8917 0.0
H440 H 0.335 0.23646 0.80811 0.0
H441 H 0.28408 0.20981 0.872 0.0
H442 H 0.281 0.22281 0.82854 0.0
H443 H 0.29892 0.21697 0.93535 0.0
H444 H 0.31255 0.24525 0.96414 0.0
H445 H 0.34812 0.2371 0.89111 0.0
H446 H 0.36121 0.26555 0.918 0.0
H447 H 0.34035 0.20881 0.92333 0.0
H448 H 0.29835 0.17836 0.86062 0.0
H449 H 0.3496 0.18626 0.92018 0.0
H450 H 0.30801 0.1559 0.85718 0.0
H451 H 0.37463 0.12659 0.82905 0.0
H452 H 0.36826 0.10779 0.7862 0.0
H453 H 0.31741 0.06769 0.81815 0.0
H454 H 0.32404 0.08632 0.86126 0.0
H455 H 0.33002 0.09949 0.91323 0.0
H456 H 0.33315 0.08143 0.94964 0.0
H457 H 0.38669 0.09791 0.92266 0.0
H458 H 0.38381 0.11679 0.88762 0.0
H459 H 0.37472 0.1543 0.88225 0.0
H460 H 0.36441 0.1763 0.88806 0.0
H461 H 0.30933 0.13219 0.88169 0.0
N462 N 0.3549 0.11858 0.87389 0.0
H463 H 0.31979 0.11049 0.87507 0.0
C464 C 0.31087 0.21511 0.86443 0.0
C465 C 0.32481 0.22196 0.84534 0.0
C466 C 0.32341 0.23003 0.82107 0.0
C467 C 0.30776 0.23078 0.81469 0.0
C468 C 0.29335 0.22273 0.83292 0.0
C469 C 0.295 0.21517 0.85766 0.0
C470 C 0.32232 0.22489 0.91087 0.0
C471 C 0.31271 0.22735 0.93211 0.0
C472 C 0.32048 0.24353 0.94839 0.0
C473 C 0.33803 0.25766 0.94352 0.0
C474 C 0.34787 0.25485 0.92291 0.0
C475 C 0.3402 0.23864 0.90697 0.0
C476 C 0.31905 0.19605 0.89101 0.0
C477 C 0.33326 0.19764 0.90833 0.0
C478 C 0.3386 0.18457 0.90668 0.0
C479 C 0.32977 0.16943 0.88809 0.0
C480 C 0.31512 0.16738 0.87176 0.0
C481 C 0.30973 0.18038 0.87347 0.0
C482 C 0.34979 0.10799 0.84812 0.0
C483 C 0.36204 0.11385 0.82663 0.0
C484 C 0.35844 0.10309 0.80236 0.0
C485 C 0.34242 0.08629 0.79912 0.0
C486 C 0.32983 0.08063 0.82025 0.0
C487 C 0.33356 0.09131 0.84474 0.0
C488 C 0.35679 0.10954 0.89769 0.0
C489 C 0.34259 0.09959 0.9156 0.0
C490 C 0.34432 0.08909 0.93626 0.0
C491 C 0.36006 0.08797 0.93881 0.0
C492 C 0.37445 0.09859 0.92158 0.0
C493 C 0.37282 0.1093 0.90139 0.0
C494 C 0.34811 0.13084 0.87819 0.0
C495 C 0.36043 0.14945 0.8822 0.0
C496 C 0.3545 0.16195 0.8857 0.0
C497 C 0.33603 0.15601 0.88536 0.0
C498 C 0.32365 0.13726 0.88167 0.0
C499 C 0.32962 0.12478 0.87805 0.0
H500 H 0.75611 0.12828 0.82938 0.0
N501 N 0.76368 0.11562 0.87476 0.0
H502 H 0.74707 0.11343 0.78279 0.0
H503 H 0.76298 0.08417 0.85792 0.0
H504 H 0.75401 0.06936 0.81153 0.0
H505 H 0.76297 0.08905 0.9069 0.0
H506 H 0.73838 0.06867 0.93638 0.0
H507 H 0.73484 0.11768 0.88697 0.0
H508 H 0.71064 0.09806 0.91753 0.0
H509 H 0.77618 0.1436 0.91115 0.0
H510 H 0.79301 0.11193 0.86212 0.0
H511 H 0.80723 0.16395 0.92698 0.0
H512 H 0.82395 0.13282 0.87596 0.0
H513 H 0.87609 0.21027 0.86671 0.0
H514 H 0.8895 0.22409 0.82336 0.0
H515 H 0.93849 0.22533 0.8489 0.0
H516 H 0.92471 0.21073 0.89223 0.0
H517 H 0.91164 0.20828 0.95867 0.0
H518 H 0.92927 0.23645 0.98714 0.0
H519 H 0.90994 0.26392 0.93397 0.0
H520 H 0.89224 0.23598 0.90638 0.0
H521 H 0.86464 0.21026 0.91487 0.0
H522 H 0.83323 0.1874 0.91006 0.0
H523 H 0.84734 0.14504 0.90879 0.0
N524 N 0.89329 0.20432 0.91115 0.0
H525 H 0.87913 0.16841 0.91173 0.0
C526 C 0.76023 0.10741 0.84708 0.0
C527 C 0.75589 0.11554 0.82548 0.0
C528 C 0.75064 0.10702 0.79904 0.0
C529 C 0.74972 0.0902 0.79378 0.0
C530 C 0.75465 0.08233 0.81513 0.0
C531 C 0.75971 0.09077 0.84164 0.0
C532 C 0.75056 0.10475 0.89464 0.0
C533 C 0.75159 0.09107 0.90921 0.0
C534 C 0.73763 0.07959 0.92627 0.0
C535 C 0.72258 0.0818 0.92937 0.0
C536 C 0.72194 0.09589 0.91536 0.0
C537 C 0.73577 0.10718 0.89811 0.0
C538 C 0.78207 0.12633 0.88515 0.0
C539 C 0.78656 0.14102 0.90381 0.0
C540 C 0.80438 0.15276 0.91261 0.0
C541 C 0.81831 0.15032 0.90245 0.0
C542 C 0.8137 0.13513 0.88458 0.0
C543 C 0.79581 0.12316 0.87628 0.0
C544 C 0.89938 0.20929 0.88305 0.0
C545 C 0.88947 0.21284 0.8629 0.0
C546 C 0.89721 0.22091 0.83799 0.0
C547 C 0.91503 0.2258 0.83269 0.0
C548 C 0.9246 0.22139 0.85208 0.0
C549 C 0.91679 0.21314 0.87692 0.0
C550 C 0.9006 0.21989 0.9304 0.0
C551 C 0.91086 0.22028 0.95372 0.0
C552 C 0.92106 0.23641 0.96974 0.0
C553 C 0.92123 0.25249 0.96252 0.0
C554 C 0.91003 0.25176 0.94023 0.0
C555 C 0.89984 0.23569 0.92435 0.0
C556 C 0.87442 0.1911 0.9133 0.0
C557 C 0.86111 0.19612 0.91394 0.0
C558 C 0.84294 0.18286 0.91135 0.0
C559 C 0.83755 0.16422 0.90869 0.0
C560 C 0.85089 0.15923 0.91001 0.0
C561 C 0.86909 0.17254 0.91204 0.0
H562 H 0.77625 0.72456 0.85847 0.0
N563 N 0.78383 0.70394 0.89059 0.0
H564 H 0.76408 0.71784 0.81023 0.0
H565 H 0.77624 0.67368 0.85821 0.0
H566 H 0.76427 0.66704 0.81038 0.0
H567 H 0.75477 0.66926 0.89386 0.0
H568 H 0.73157 0.65904 0.92832 0.0
H569 H 0.78397 0.72173 0.93672 0.0
H570 H 0.76155 0.71103 0.97278 0.0
H571 H 0.81481 0.73485 0.89641 0.0
H572 H 0.79137 0.67663 0.8992 0.0
H573 H 0.84466 0.73879 0.90385 0.0
H574 H 0.82121 0.6801 0.90346 0.0
H575 H 0.93645 0.73832 0.87348 0.0
H576 H 0.94461 0.73309 0.82705 0.0
H577 H 0.89182 0.68572 0.81445 0.0
H578 H 0.88398 0.69071 0.86123 0.0
H579 H 0.89738 0.68163 0.90045 0.0
H580 H 0.91088 0.66883 0.93133 0.0
H581 H 0.94252 0.72144 0.97322 0.0
H582 H 0.92891 0.73419 0.9422 0.0
H583 H 0.89586 0.74011 0.88035 0.0
H584 H 0.86616 0.73675 0.8804 0.0
H585 H 0.84717 0.68804 0.92823 0.0
N586 N 0.90608 0.71751 0.89927 0.0
H587 H 0.87648 0.69068 0.92593 0.0
C588 C 0.77713 0.6997 0.86206 0.0
C589 C 0.77369 0.71201 0.84801 0.0
C590 C 0.7668 0.70819 0.82055 0.0
C591 C 0.76309 0.69184 0.80679 0.0
C592 C 0.76677 0.67961 0.82071 0.0
C593 C 0.77376 0.68349 0.84805 0.0
C594 C 0.7709 0.69657 0.9122 0.0
C595 C 0.75633 0.67859 0.91075 0.0
C596 C 0.74309 0.67266 0.93073 0.0
C597 C 0.74439 0.6844 0.9529 0.0
C598 C 0.75968 0.7019 0.95533 0.0
C599 C 0.77263 0.70796 0.93498 0.0
C600 C 0.80102 0.70551 0.89636 0.0
C601 C 0.81622 0.72291 0.89826 0.0
C602 C 0.83329 0.72506 0.90218 0.0
C603 C 0.83561 0.70977 0.90351 0.0
C604 C 0.82015 0.69227 0.90263 0.0
C605 C 0.803 0.69019 0.89959 0.0
C606 C 0.90971 0.71496 0.87081 0.0
C607 C 0.92658 0.727 0.86047 0.0
C608 C 0.93112 0.72411 0.83384 0.0
C609 C 0.91875 0.70914 0.81696 0.0
C610 C 0.90159 0.6974 0.82699 0.0
C611 C 0.8971 0.70023 0.85369 0.0
C612 C 0.91216 0.70896 0.91907 0.0
C613 C 0.90708 0.69039 0.9164 0.0
C614 C 0.91483 0.68309 0.93401 0.0
C615 C 0.92769 0.69413 0.9547 0.0
C616 C 0.93243 0.71254 0.95774 0.0
C617 C 0.92471 0.71985 0.94008 0.0
C618 C 0.88862 0.71576 0.90293 0.0
C619 C 0.88528 0.72876 0.89096 0.0
C620 C 0.86823 0.72686 0.89128 0.0
C621 C 0.85404 0.7121 0.90442 0.0
C622 C 0.85755 0.69938 0.91736 0.0
C623 C 0.87455 0.70102 0.91633 0.0
H624 H 0.7415 0.60721 0.47421 0.0
N625 N 0.77178 0.63098 0.4509 0.0
H626 H 0.73118 0.6097 0.52042 0.0
H627 H 0.79158 0.65694 0.49198 0.0
H628 H 0.78162 0.65916 0.53816 0.0
H629 H 0.77985 0.66669 0.45221 0.0
H630 H 0.76608 0.67975 0.42237 0.0
H631 H 0.75032 0.61536 0.4064 0.0
H632 H 0.73655 0.62839 0.37637 0.0
H633 H 0.77666 0.60291 0.44181 0.0
H634 H 0.80522 0.66153 0.44939 0.0
H635 H 0.80505 0.60316 0.43908 0.0
H636 H 0.83372 0.66199 0.44942 0.0
H637 H 0.89602 0.61211 0.49266 0.0
H638 H 0.90669 0.61811 0.54159 0.0
H639 H 0.90645 0.66892 0.54139 0.0
H640 H 0.89568 0.66277 0.4925 0.0
H641 H 0.91468 0.66822 0.45334 0.0
H642 H 0.93844 0.67899 0.41946 0.0
H643 H 0.91719 0.62377 0.3876 0.0
H644 H 0.89321 0.61311 0.42133 0.0
H645 H 0.8561 0.60695 0.47388 0.0
H646 H 0.82788 0.60681 0.46856 0.0
H647 H 0.85545 0.65842 0.42767 0.0
N648 N 0.88852 0.6327 0.46049 0.0
H649 H 0.88377 0.65903 0.43515 0.0
C650 C 0.76726 0.63176 0.47948 0.0
C651 C 0.75044 0.61836 0.48833 0.0
C652 C 0.74465 0.61973 0.5148 0.0
C653 C 0.7557 0.63454 0.53301 0.0
C654 C 0.77285 0.64759 0.52456 0.0
C655 C 0.77858 0.64627 0.49806 0.0
C656 C 0.76606 0.63996 0.43149 0.0
C657 C 0.77068 0.65831 0.43544 0.0
C658 C 0.76274 0.66576 0.41847 0.0
C659 C 0.7503 0.65509 0.39705 0.0
C660 C 0.74629 0.637 0.39246 0.0
C661 C 0.75411 0.62954 0.40956 0.0
C662 C 0.78879 0.63208 0.44646 0.0
C663 C 0.78912 0.61584 0.44297 0.0
C664 C 0.80542 0.61605 0.4418 0.0
C665 C 0.82186 0.63257 0.44482 0.0
C666 C 0.82145 0.64897 0.44695 0.0
C667 C 0.80508 0.64874 0.44734 0.0
C668 C 0.89512 0.63696 0.48902 0.0
C669 C 0.89828 0.62452 0.50324 0.0
C670 C 0.90424 0.62791 0.53111 0.0
C671 C 0.90719 0.64388 0.54524 0.0
C672 C 0.90427 0.65651 0.5309 0.0
C673 C 0.89816 0.65303 0.50302 0.0
C674 C 0.90211 0.63978 0.4398 0.0
C675 C 0.915 0.65843 0.43896 0.0
C676 C 0.92861 0.66459 0.41962 0.0
C677 C 0.92958 0.65224 0.40076 0.0
C678 C 0.91657 0.63365 0.40147 0.0
C679 C 0.90295 0.62753 0.42077 0.0
C680 C 0.87205 0.6328 0.45476 0.0
C681 C 0.85598 0.61817 0.46365 0.0
C682 C 0.8398 0.61807 0.46029 0.0
C683 C 0.83918 0.63253 0.44736 0.0
C684 C 0.85533 0.64714 0.43803 0.0
C685 C 0.87163 0.6474 0.44201 0.0
H686 H 0.38632 0.12464 0.48438 0.0
N687 N 0.36259 0.13413 0.46815 0.0
H688 H 0.38595 0.10879 0.52667 0.0
H689 H 0.34169 0.12942 0.5135 0.0
H690 H 0.34136 0.11375 0.55573 0.0
H691 H 0.32748 0.10735 0.47347 0.0
H692 H 0.31171 0.07931 0.44561 0.0
H693 H 0.37253 0.12704 0.41954 0.0
H694 H 0.35633 0.099 0.39047 0.0
H695 H 0.3897 0.16769 0.46284 0.0
H696 H 0.33225 0.13715 0.47066 0.0
H697 H 0.38873 0.19602 0.4618 0.0
H698 H 0.33119 0.16529 0.47093 0.0
H699 H 0.37517 0.28249 0.49826 0.0
H700 H 0.36994 0.29181 0.54425 0.0
H701 H 0.32817 0.23652 0.55721 0.0
H702 H 0.33306 0.22731 0.5108 0.0
H703 H 0.32096 0.23417 0.46559 0.0
H704 H 0.30541 0.24518 0.43587 0.0
H705 H 0.35663 0.28817 0.40885 0.0
H706 H 0.37188 0.27574 0.43639 0.0
H707 H 0.38294 0.24398 0.49337 0.0
H708 H 0.38419 0.21585 0.49158 0.0
H709 H 0.33431 0.18941 0.44298 0.0
N710 N 0.35734 0.24971 0.47325 0.0
H711 H 0.33276 0.21703 0.44563 0.0
C712 C 0.36412 0.12825 0.4956 0.0
C713 C 0.37684 0.1228 0.50028 0.0
C714 C 0.37664 0.11381 0.52447 0.0
C715 C 0.36365 0.11011 0.54452 0.0
C716 C 0.3515 0.11643 0.54058 0.0
C717 C 0.35175 0.12548 0.5164 0.0
C718 C 0.35136 0.11934 0.44872 0.0
C719 C 0.33376 0.10598 0.45503 0.0
C720 C 0.32462 0.0899 0.4388 0.0
C721 C 0.33271 0.0869 0.41567 0.0
C722 C 0.34977 0.10086 0.40823 0.0
C723 C 0.35899 0.1169 0.42468 0.0
C724 C 0.36116 0.15033 0.46692 0.0
C725 C 0.3769 0.16714 0.46442 0.0
C726 C 0.3763 0.1833 0.46406 0.0
C727 C 0.35988 0.183 0.46645 0.0
C728 C 0.34405 0.16606 0.46866 0.0
C729 C 0.34465 0.14989 0.46875 0.0
C730 C 0.3547 0.25425 0.50123 0.0
C731 C 0.36497 0.27238 0.5111 0.0
C732 C 0.36191 0.27768 0.53718 0.0
C733 C 0.34863 0.26486 0.55402 0.0
C734 C 0.3385 0.2466 0.54449 0.0
C735 C 0.34134 0.24135 0.5181 0.0
C736 C 0.34762 0.25385 0.4526 0.0
C737 C 0.32878 0.24538 0.45216 0.0
C738 C 0.31992 0.2519 0.43542 0.0
C739 C 0.3297 0.26759 0.41981 0.0
C740 C 0.34853 0.27572 0.41973 0.0
C741 C 0.35733 0.26875 0.4357 0.0
C742 C 0.35778 0.2329 0.47001 0.0
C743 C 0.37229 0.2321 0.4823 0.0
C744 C 0.37303 0.21602 0.48108 0.0
C745 C 0.35931 0.20028 0.46718 0.0
C746 C 0.34493 0.20114 0.45436 0.0
C747 C 0.3441 0.21718 0.45582 0.0
H748 H 0.79065 0.1287 0.49807 0.0
N749 N 0.77386 0.1342 0.45297 0.0
H750 H 0.7767 0.1146 0.54122 0.0
H751 H 0.74167 0.12665 0.47011 0.0
H752 H 0.72738 0.11179 0.51304 0.0
H753 H 0.75613 0.1293 0.40439 0.0
H754 H 0.74022 0.10099 0.37569 0.0
H755 H 0.77647 0.10346 0.45893 0.0
H756 H 0.76029 0.07532 0.4313 0.0
H757 H 0.78809 0.16948 0.46515 0.0
H758 H 0.80281 0.12951 0.44079 0.0
H759 H 0.81983 0.19228 0.47236 0.0
H760 H 0.83424 0.15222 0.44693 0.0
H761 H 0.93579 0.23841 0.51329 0.0
H762 H 0.94542 0.25489 0.55818 0.0
H763 H 0.89252 0.24812 0.56713 0.0
H764 H 0.88354 0.23323 0.52128 0.0
H765 H 0.91053 0.25887 0.47322 0.0
H766 H 0.92901 0.27724 0.4352 0.0
H767 H 0.93901 0.23384 0.41113 0.0
H768 H 0.92038 0.21551 0.44896 0.0
H769 H 0.8865 0.18954 0.49582 0.0
H770 H 0.85484 0.16763 0.48508 0.0
H771 H 0.848 0.21082 0.45147 0.0
N772 N 0.90415 0.22499 0.48669 0.0
H773 H 0.87941 0.23267 0.46345 0.0
C774 C 0.76719 0.12885 0.48068 0.0
C775 C 0.77705 0.12569 0.50142 0.0
C776 C 0.76902 0.11749 0.52611 0.0
C777 C 0.75097 0.11211 0.53054 0.0
C778 C 0.74143 0.11613 0.51052 0.0
C779 C 0.74952 0.1245 0.48591 0.0
C780 C 0.76743 0.11859 0.43388 0.0
C781 C 0.75744 0.11767 0.40987 0.0
C782 C 0.74822 0.10146 0.39371 0.0
C783 C 0.74875 0.08582 0.40151 0.0
C784 C 0.75966 0.08712 0.4246 0.0
C785 C 0.76888 0.10326 0.44058 0.0
C786 C 0.79279 0.1477 0.45253 0.0
C787 C 0.79813 0.16572 0.46072 0.0
C788 C 0.8163 0.17874 0.46479 0.0
C789 C 0.82962 0.17404 0.46053 0.0
C790 C 0.82433 0.15621 0.45103 0.0
C791 C 0.80617 0.14315 0.44722 0.0
C792 C 0.90899 0.23448 0.51364 0.0
C793 C 0.92635 0.2407 0.5248 0.0
C794 C 0.93178 0.25001 0.55059 0.0
C795 C 0.91981 0.25298 0.56634 0.0
C796 C 0.90232 0.24661 0.55531 0.0
C797 C 0.89704 0.23775 0.52905 0.0
C798 C 0.91417 0.23583 0.46382 0.0
C799 C 0.91655 0.25327 0.45954 0.0
C800 C 0.92711 0.26373 0.43791 0.0
C801 C 0.93527 0.25687 0.42011 0.0
C802 C 0.93258 0.23931 0.42418 0.0
C803 C 0.92208 0.2289 0.44582 0.0
C804 C 0.88535 0.21263 0.48028 0.0
C805 C 0.8781 0.19421 0.48619 0.0
C806 C 0.86006 0.18172 0.47976 0.0
C807 C 0.84888 0.18741 0.46709 0.0
C808 C 0.85617 0.20597 0.46136 0.0
C809 C 0.8742 0.21848 0.46799 0.0
H810 H 0.99224 0.55328 0.18975 0.0
N811 N 0.96227 0.53444 0.22048 0.0
H812 H 0.99569 0.57301 0.15126 0.0
H813 H 0.93644 0.53793 0.19456 0.0
H814 H 0.94004 0.55839 0.15653 0.0
H815 H 0.95011 0.55264 0.25015 0.0
H816 H 0.96793 0.58055 0.27822 0.0
H817 H 0.99719 0.54771 0.23951 0.0
H818 H 0.01466 0.57455 0.26972 0.0
H819 H 0.96783 0.51839 0.17315 0.0
H820 H 0.96338 0.5144 0.26273 0.0
H821 H 0.9779 0.49645 0.17231 0.0
H822 H 0.97312 0.49179 0.26139 0.0
H823 H 0.03557 0.44883 0.18316 0.0
H824 H 0.03113 0.43087 0.13999 0.0
H825 H 0.97369 0.40656 0.14638 0.0
H826 H 0.97825 0.42482 0.18907 0.0
H827 H 0.9879 0.41452 0.23149 0.0
H828 H 0.994 0.39972 0.26939 0.0
H829 H 0.04093 0.45095 0.29475 0.0
H830 H 0.03542 0.46539 0.25498 0.0
H831 H 0.02194 0.48119 0.19174 0.0
H832 H 0.00767 0.49995 0.19232 0.0
H833 H 0.96464 0.45959 0.24022 0.0
N834 N 0.01054 0.44919 0.21437 0.0
H835 H 0.97882 0.44064 0.23903 0.0
C836 C 0.96399 0.54404 0.19505 0.0
C837 C 0.98067 0.55402 0.18232 0.0
C838 C 0.98266 0.56539 0.16044 0.0
C839 C 0.96823 0.56753 0.15134 0.0
C840 C 0.95137 0.55697 0.16313 0.0
C841 C 0.9493 0.54532 0.18481 0.0
C842 C 0.97211 0.54791 0.24269 0.0
C843 C 0.96408 0.55708 0.25502 0.0
C844 C 0.97431 0.57299 0.27134 0.0
C845 C 0.9928 0.57985 0.27644 0.0
C846 C 0.00052 0.56981 0.26598 0.0
C847 C 0.99043 0.55425 0.2489 0.0
C848 C 0.96629 0.51962 0.21854 0.0
C849 C 0.9693 0.51326 0.19287 0.0
C850 C 0.97487 0.50039 0.19219 0.0
C851 C 0.97684 0.4929 0.21686 0.0
C852 C 0.972 0.49761 0.24209 0.0
C853 C 0.9666 0.51067 0.24286 0.0
C854 C 0.00732 0.43834 0.18911 0.0
C855 C 0.02205 0.43966 0.17511 0.0
C856 C 0.01949 0.42933 0.15063 0.0
C857 C 0.00207 0.41746 0.13968 0.0
C858 C 0.98727 0.41587 0.15402 0.0
C859 C 0.98986 0.42626 0.17847 0.0
C860 C 0.01163 0.44097 0.23981 0.0
C861 C 0.9994 0.42266 0.24528 0.0
C862 C 0.00272 0.41426 0.2675 0.0
C863 C 0.01802 0.42412 0.28522 0.0
C864 C 0.02917 0.4429 0.28129 0.0
C865 C 0.02606 0.45118 0.25865 0.0
C866 C 0.00161 0.4597 0.21552 0.0
C867 C 0.00942 0.4764 0.20229 0.0
C868 C 0.00122 0.48701 0.20254 0.0
C869 C 0.98505 0.48117 0.21629 0.0
C870 C 0.97715 0.46441 0.22963 0.0
C871 C 0.98526 0.45362 0.22898 0.0
H872 H 0.60157 0.54454 0.22825 0.0
N873 N 0.56912 0.5338 0.24751 0.0
H874 H 0.61391 0.55995 0.18473 0.0
H875 H 0.55059 0.53983 0.20608 0.0
H876 H 0.56277 0.55505 0.16234 0.0
H877 H 0.55879 0.55959 0.24838 0.0
H878 H 0.57338 0.58786 0.27603 0.0
H879 H 0.58934 0.54022 0.29359 0.0
H880 H 0.60328 0.56819 0.32292 0.0
H881 H 0.56229 0.50181 0.22684 0.0
H882 H 0.53658 0.52845 0.26641 0.0
H883 H 0.5335 0.47409 0.22035 0.0
H884 H 0.50785 0.50028 0.26226 0.0
H885 H 0.43724 0.38592 0.19181 0.0
H886 H 0.42471 0.37713 0.14391 0.0
H887 H 0.43855 0.43267 0.12976 0.0
H888 H 0.45049 0.44134 0.17749 0.0
H889 H 0.42139 0.42258 0.21481 0.0
H890 H 0.39618 0.40921 0.24616 0.0
H891 H 0.42489 0.39024 0.29759 0.0
H892 H 0.44939 0.40242 0.26491 0.0
H893 H 0.48276 0.42158 0.22761 0.0
H894 H 0.5111 0.44918 0.23946 0.0
H895 H 0.48443 0.48088 0.23284 0.0
N896 N 0.451 0.41845 0.21729 0.0
H897 H 0.45585 0.45277 0.22391 0.0
C898 C 0.57525 0.54105 0.22038 0.0
C899 C 0.59297 0.54651 0.21368 0.0
C900 C 0.59992 0.55517 0.18877 0.0
C901 C 0.58921 0.55849 0.17003 0.0
C902 C 0.57128 0.5526 0.17641 0.0
C903 C 0.56433 0.54391 0.20134 0.0
C904 C 0.57319 0.54783 0.26863 0.0
C905 C 0.56811 0.56109 0.26505 0.0
C906 C 0.57637 0.57727 0.28122 0.0
C907 C 0.58959 0.5804 0.30175 0.0
C908 C 0.59331 0.56632 0.30708 0.0
C909 C 0.58524 0.55026 0.29055 0.0
C910 C 0.5518 0.51728 0.24709 0.0
C911 C 0.55044 0.50151 0.23474 0.0
C912 C 0.53388 0.48556 0.2313 0.0
C913 C 0.51811 0.48467 0.24093 0.0
C914 C 0.51953 0.5004 0.25406 0.0
C915 C 0.53614 0.5166 0.2568 0.0
C916 C 0.44509 0.41429 0.18834 0.0
C917 C 0.43771 0.39622 0.17828 0.0
C918 C 0.43051 0.39121 0.15109 0.0
C919 C 0.43083 0.40429 0.1333 0.0
C920 C 0.43837 0.42243 0.14311 0.0
C921 C 0.44527 0.42738 0.17047 0.0
C922 C 0.43705 0.413 0.2372 0.0
C923 C 0.42221 0.41547 0.23276 0.0
C924 C 0.40785 0.40792 0.25081 0.0
C925 C 0.40827 0.39814 0.27391 0.0
C926 C 0.42377 0.39696 0.27935 0.0
C927 C 0.43789 0.40413 0.26097 0.0
C928 C 0.46741 0.43521 0.22405 0.0
C929 C 0.48312 0.43453 0.22885 0.0
C930 C 0.49936 0.45042 0.23537 0.0
C931 C 0.50036 0.46755 0.2365 0.0
C932 C 0.48435 0.46808 0.23237 0.0
C933 C 0.46798 0.45203 0.22671 0.0
H934 H 0.54084 0.95591 0.18813 0.0
N935 N 0.53354 0.97566 0.22322 0.0
H936 H 0.55838 0.96595 0.14614 0.0
H937 H 0.54648 0.00909 0.19995 0.0
H938 H 0.56325 0.01899 0.15706 0.0
H939 H 0.5639 0.00662 0.24246 0.0
H940 H 0.58702 0.00778 0.27435 0.0
H941 H 0.53111 0.94886 0.25398 0.0
H942 H 0.55422 0.94994 0.28602 0.0
H943 H 0.5025 0.96241 0.19537 0.0
H944 H 0.53401 0.00042 0.26239 0.0
H945 H 0.48048 0.97222 0.19828 0.0
H946 H 0.51133 0.00922 0.26713 0.0
H947 H 0.41099 0.99405 0.20719 0.0
H948 H 0.39924 0.99191 0.16011 0.0
H949 H 0.45093 0.03578 0.13649 0.0
H950 H 0.46219 0.03896 0.18465 0.0
H951 H 0.43755 0.04369 0.24918 0.0
H952 H 0.41395 0.03858 0.28185 0.0
H953 H 0.40067 0.98253 0.28823 0.0
H954 H 0.42377 0.98746 0.25572 0.0
H955 H 0.43709 0.98413 0.21621 0.0
H956 H 0.45754 0.97231 0.22039 0.0
H957 H 0.50032 0.02607 0.24707 0.0
N958 N 0.44493 0.01914 0.22776 0.0
H959 H 0.47906 0.03716 0.24548 0.0
C960 C 0.54235 0.98166 0.19709 0.0
C961 C 0.54557 0.96964 0.18127 0.0
C962 C 0.55549 0.97539 0.15723 0.0
C963 C 0.5623 0.99332 0.14834 0.0
C964 C 0.55849 0.00522 0.16365 0.0
C965 C 0.54875 0.99951 0.188 0.0
C966 C 0.54575 0.97756 0.24578 0.0
C967 C 0.56153 0.99425 0.25222 0.0
C968 C 0.57479 0.99488 0.27025 0.0
C969 C 0.57252 0.97889 0.28219 0.0
C970 C 0.55631 0.96246 0.27704 0.0
C971 C 0.54309 0.96182 0.2589 0.0
C972 C 0.51998 0.98059 0.22843 0.0
C973 C 0.50443 0.97257 0.2112 0.0
C974 C 0.49172 0.97813 0.21313 0.0
C975 C 0.49395 0.99158 0.23302 0.0
C976 C 0.50925 0.99913 0.25111 0.0
C977 C 0.52225 0.9939 0.24862 0.0
C978 C 0.43751 0.01699 0.19974 0.0
C979 C 0.41982 0.0034 0.19213 0.0
C980 C 0.41315 0.00194 0.16487 0.0
C981 C 0.4242 0.01348 0.14428 0.0
C982 C 0.44198 0.02678 0.15183 0.0
C983 C 0.44848 0.02857 0.17928 0.0
C984 C 0.43259 0.0161 0.2498 0.0
C985 C 0.42972 0.03039 0.25799 0.0
C986 C 0.41627 0.02746 0.27657 0.0
C987 C 0.40535 0.01009 0.28712 0.0
C988 C 0.4087 0.99597 0.27993 0.0
C989 C 0.42213 0.99889 0.26143 0.0
C990 C 0.45649 0.01149 0.23116 0.0
C991 C 0.45073 0.99321 0.2238 0.0
C992 C 0.46262 0.98656 0.22571 0.0
C993 C 0.48079 0.9982 0.23386 0.0
C994 C 0.48643 0.0165 0.24129 0.0
C995 C 0.47435 0.02297 0.24018 0.0
H996 H 0.40138 0.93887 0.81228 0.0
N997 N 0.43275 0.96096 0.79012 0.0
H998 H 0.39098 0.94231 0.85788 0.0
H999 H 0.45325 0.986 0.83166 0.0
H1000 H 0.44321 0.98907 0.87753 0.0
H1001 H 0.44053 0.9966 0.7923 0.0
H1002 H 0.4278 0.01022 0.76172 0.0
H1003 H 0.41213 0.94595 0.74447 0.0
H1004 H 0.39893 0.95942 0.71408 0.0
H1005 H 0.44033 0.93442 0.79371 0.0
H1006 H 0.46492 0.99208 0.78043 0.0
H1007 H 0.46989 0.93693 0.79407 0.0
H1008 H 0.49438 0.99462 0.77994 0.0
H1009 H 0.54781 0.94273 0.83231 0.0
H1010 H 0.55993 0.94492 0.87977 0.0
H1011 H 0.58558 0.00361 0.87857 0.0
H1012 H 0.57382 0.00135 0.83107 0.0
H1013 H 0.56781 0.0051 0.78329 0.0
H1014 H 0.592 0.01996 0.75041 0.0
H1015 H 0.59168 0.96928 0.73663 0.0
H1016 H 0.56788 0.95469 0.77029 0.0
H1017 H 0.52393 0.94422 0.77246 0.0
H1018 H 0.4948 0.94245 0.76599 0.0
H1019 H 0.51518 0.99338 0.81295 0.0
N1020 N 0.55288 0.96981 0.79997 0.0
H1021 H 0.54428 0.99527 0.81845 0.0
C1022 C 0.42803 0.96206 0.81849 0.0
C1023 C 0.41066 0.94962 0.8267 0.0
C1024 C 0.40482 0.9515 0.85285 0.0
C1025 C 0.41636 0.96585 0.87142 0.0
C1026 C 0.43404 0.97787 0.86365 0.0
C1027 C 0.43981 0.97608 0.8374 0.0
C1028 C 0.42728 0.97016 0.77062 0.0
C1029 C 0.43172 0.98844 0.77504 0.0
C1030 C 0.42427 0.99618 0.75772 0.0
C1031 C 0.41211 0.98577 0.73584 0.0
C1032 C 0.40827 0.96776 0.73078 0.0
C1033 C 0.41578 0.96006 0.74805 0.0
C1034 C 0.45027 0.96292 0.78692 0.0
C1035 C 0.45208 0.94754 0.7903 0.0
C1036 C 0.46898 0.94902 0.7904 0.0
C1037 C 0.48454 0.96601 0.78706 0.0
C1038 C 0.4827 0.98138 0.78292 0.0
C1039 C 0.46575 0.97989 0.78291 0.0
C1040 C 0.55976 0.97177 0.82819 0.0
C1041 C 0.55596 0.95604 0.84242 0.0
C1042 C 0.56282 0.95732 0.86949 0.0
C1043 C 0.57353 0.97444 0.88295 0.0
C1044 C 0.57738 0.99024 0.86866 0.0
C1045 C 0.57056 0.98894 0.84153 0.0
C1046 C 0.56612 0.97875 0.77927 0.0
C1047 C 0.57288 0.99717 0.77313 0.0
C1048 C 0.5866 0.00561 0.75414 0.0
C1049 C 0.59365 0.99574 0.74088 0.0
C1050 C 0.58658 0.97725 0.74669 0.0
C1051 C 0.57297 0.96888 0.76573 0.0
C1052 C 0.53619 0.9697 0.79612 0.0
C1053 C 0.52206 0.95502 0.78118 0.0
C1054 C 0.50544 0.95401 0.77765 0.0
C1055 C 0.50259 0.96771 0.78911 0.0
C1056 C 0.51694 0.98268 0.80358 0.0
C1057 C 0.53361 0.9837 0.80698 0.0
H1058 H 0.98533 0.57744 0.83641 0.0
N1059 N 0.01593 0.57938 0.81666 0.0
H1060 H 0.98188 0.58813 0.8824 0.0
H1061 H 0.04044 0.59429 0.85805 0.0
H1062 H 0.03723 0.60545 0.90384 0.0
H1063 H 0.02864 0.61437 0.80624 0.0
H1064 H 0.01638 0.62735 0.77361 0.0
H1065 H 0.99014 0.56033 0.77393 0.0
H1066 H 0.97859 0.57335 0.74082 0.0
H1067 H 0.98311 0.54902 0.82384 0.0
H1068 H 0.03831 0.56714 0.80589 0.0
H1069 H 0.97608 0.5175 0.82072 0.0
H1070 H 0.03173 0.53552 0.80443 0.0
H1071 H 0.9677 0.426 0.85183 0.0
H1072 H 0.97775 0.41559 0.89171 0.0
H1073 H 0.033 0.45287 0.87245 0.0
H1074 H 0.02264 0.46296 0.83195 0.0
H1075 H 0.01474 0.4512 0.78257 0.0
H1076 H 0.01181 0.4279 0.74891 0.0
H1077 H 0.95468 0.39736 0.7622 0.0
H1078 H 0.95757 0.42181 0.79321 0.0
H1079 H 0.97264 0.46442 0.84362 0.0
H1080 H 0.97946 0.49596 0.84428 0.0
H1081 H 0.0179 0.5076 0.77982 0.0
N1082 N 0.98782 0.4494 0.81433 0.0
H1083 H 0.01181 0.47637 0.78074 0.0
C1084 C 0.01318 0.58494 0.84393 0.0
C1085 C 0.99664 0.58327 0.85116 0.0
C1086 C 0.99472 0.58952 0.87735 0.0
C1087 C 0.00923 0.59745 0.89682 0.0
C1088 C 0.0257 0.59904 0.88952 0.0
C1089 C 0.0276 0.59278 0.86338 0.0
C1090 C 0.01 0.58633 0.79385 0.0
C1091 C 0.01776 0.6053 0.79194 0.0
C1092 C 0.01083 0.61271 0.7731 0.0
C1093 C 0.99616 0.60132 0.75517 0.0
C1094 C 0.98944 0.58243 0.75515 0.0
C1095 C 0.99615 0.57496 0.77435 0.0
C1096 C 0.01128 0.56048 0.81487 0.0
C1097 C 0.9938 0.54621 0.81953 0.0
C1098 C 0.98982 0.5281 0.81788 0.0
C1099 C 0.00333 0.5238 0.81243 0.0
C1100 C 0.02086 0.53817 0.8081 0.0
C1101 C 0.02472 0.55629 0.80915 0.0
C1102 C 0.9944 0.44519 0.83917 0.0
C1103 C 0.98196 0.43213 0.85658 0.0
C1104 C 0.98775 0.42635 0.87945 0.0
C1105 C 0.00619 0.43367 0.88554 0.0
C1106 C 0.01872 0.44709 0.86833 0.0
C1107 C 0.01286 0.45286 0.84528 0.0
C1108 C 0.98625 0.43841 0.79003 0.0
C1109 C 0.00146 0.44002 0.77703 0.0
C1110 C -0.00019 0.42636 0.75832 0.0
C1111 C 0.9831 0.41035 0.75352 0.0
C1112 C 0.96778 0.40945 0.76515 0.0
C1113 C 0.96937 0.42342 0.78299 0.0
C1114 C 0.99154 0.46788 0.81213 0.0
C1115 C 0.98249 0.47381 0.82957 0.0
C1116 C 0.98634 0.49186 0.82973 0.0
C1117 C 0.99919 0.50446 0.81196 0.0
C1118 C 0.00813 0.49843 0.79414 0.0
C1119 C 0.00449 0.48038 0.79442 0.0
H1120 H 0.43775 0.43136 0.80763 0.0
N1121 N 0.44283 0.46332 0.78616 0.0
H1122 H 0.42505 0.41892 0.85205 0.0
H1123 H 0.43308 0.47882 0.82591 0.0
H1124 H 0.42103 0.4667 0.87156 0.0
H1125 H 0.40998 0.44966 0.76407 0.0
H1126 H 0.39306 0.42136 0.73653 0.0
H1127 H 0.45779 0.44548 0.75778 0.0
H1128 H 0.44114 0.41773 0.72928 0.0
H1129 H 0.46918 0.45692 0.80641 0.0
H1130 H 0.45991 0.49716 0.76796 0.0
H1131 H 0.50089 0.47914 0.81269 0.0
H1132 H 0.49205 0.51956 0.77334 0.0
H1133 H 0.58215 0.54179 0.86711 0.0
H1134 H 0.59089 0.55701 0.9134 0.0
H1135 H 0.58166 0.59948 0.88378 0.0
H1136 H 0.57292 0.58424 0.83774 0.0
H1137 H 0.56822 0.57622 0.78848 0.0
H1138 H 0.58847 0.59511 0.75261 0.0
H1139 H 0.62293 0.57272 0.76964 0.0
H1140 H 0.60282 0.55422 0.80602 0.0
H1141 H 0.55967 0.519 0.80265 0.0
H1142 H 0.52842 0.49686 0.78953 0.0
H1143 H 0.51315 0.5369 0.81105 0.0
N1144 N 0.57292 0.55296 0.8218 0.0
H1145 H 0.54443 0.55903 0.82309 0.0
C1146 C 0.43604 0.45596 0.81308 0.0
C1147 C 0.43408 0.4392 0.82124 0.0
C1148 C 0.42697 0.43216 0.84689 0.0
C1149 C 0.42189 0.44175 0.86527 0.0
C1150 C 0.42445 0.4588 0.8576 0.0
C1151 C 0.4314 0.46578 0.83166 0.0
C1152 C 0.4351 0.44976 0.76353 0.0
C1153 C 0.41702 0.4431 0.75574 0.0
C1154 C 0.40738 0.42693 0.7398 0.0
C1155 C 0.41574 0.41721 0.73074 0.0
C1156 C 0.43427 0.42479 0.73624 0.0
C1157 C 0.44387 0.44084 0.75256 0.0
C1158 C 0.46206 0.4754 0.78676 0.0
C1159 C 0.47399 0.47047 0.79888 0.0
C1160 C 0.49224 0.48322 0.80229 0.0
C1161 C 0.49904 0.50119 0.79364 0.0
C1162 C 0.48721 0.50592 0.78062 0.0
C1163 C 0.4689 0.49312 0.77727 0.0
C1164 C 0.57682 0.56176 0.84905 0.0
C1165 C 0.58183 0.55427 0.87076 0.0
C1166 C 0.58687 0.56299 0.89706 0.0
C1167 C 0.58685 0.57935 0.90214 0.0
C1168 C 0.58151 0.58673 0.88052 0.0
C1169 C 0.57657 0.57804 0.85415 0.0
C1170 C 0.5841 0.56382 0.7999 0.0
C1171 C 0.5801 0.57536 0.78448 0.0
C1172 C 0.5916 0.58603 0.76384 0.0
C1173 C 0.60719 0.58526 0.75822 0.0
C1174 C 0.61106 0.57365 0.77363 0.0
C1175 C 0.5996 0.56305 0.79427 0.0
C1176 C 0.55436 0.54052 0.8142 0.0
C1177 C 0.54953 0.52295 0.80441 0.0
C1178 C 0.53168 0.51033 0.79704 0.0
C1179 C 0.51823 0.51505 0.79941 0.0
C1180 C 0.52318 0.53286 0.80867 0.0
C1181 C 0.54109 0.54551 0.81589 0.0
H1182 H 0.68031 0.90968 0.5447 0.0
N1183 N 0.65277 0.87824 0.56501 0.0
H1184 H 0.68006 0.9234 0.50089 0.0
H1185 H 0.62786 0.8638 0.52387 0.0
H1186 H 0.62807 0.87691 0.47869 0.0
H1187 H 0.63472 0.89338 0.58528 0.0
H1188 H 0.6468 0.92145 0.61351 0.0
H1189 H 0.68507 0.89422 0.59584 0.0
H1190 H 0.69686 0.92175 0.62498 0.0
H1191 H 0.68513 0.88267 0.54919 0.0
H1192 H 0.63348 0.84389 0.58006 0.0
H1193 H 0.69337 0.85911 0.54622 0.0
H1194 H 0.64121 0.81985 0.57584 0.0
H1195 H 0.70903 0.77343 0.51966 0.0
H1196 H 0.70208 0.75457 0.47726 0.0
H1197 H 0.64968 0.7499 0.47154 0.0
H1198 H 0.6562 0.76729 0.5157 0.0
H1199 H 0.65763 0.75367 0.56806 0.0
H1200 H 0.65706 0.73238 0.60234 0.0
H1201 H 0.71516 0.76299 0.60851 0.0
H1202 H 0.71528 0.78506 0.57672 0.0
H1203 H 0.69541 0.80975 0.51401 0.0
H1204 H 0.68699 0.83313 0.51889 0.0
H1205 H 0.65929 0.80852 0.59402 0.0
N1206 N 0.68767 0.78204 0.54699 0.0
H1207 H 0.66691 0.78488 0.58848 0.0
C1208 C 0.65379 0.88588 0.53798 0.0
C1209 C 0.66878 0.90243 0.53059 0.0
C1210 C 0.66871 0.9102 0.50527 0.0
C1211 C 0.65388 0.90144 0.48646 0.0
C1212 C 0.63942 0.88432 0.49311 0.0
C1213 C 0.63934 0.87673 0.51875 0.0
C1214 C 0.65887 0.89164 0.58786 0.0
C1215 C 0.64809 0.89916 0.59466 0.0
C1216 C 0.65501 0.91519 0.61101 0.0
C1217 C 0.67285 0.92391 0.62151 0.0
C1218 C 0.68313 0.91546 0.61692 0.0
C1219 C 0.67628 0.89956 0.60018 0.0
C1220 C 0.65869 0.86505 0.56523 0.0
C1221 C 0.67558 0.86908 0.55551 0.0
C1222 C 0.68019 0.85548 0.55347 0.0
C1223 C 0.66791 0.83748 0.56054 0.0
C1224 C 0.65112 0.83358 0.57058 0.0
C1225 C 0.64663 0.84727 0.57296 0.0
C1226 C 0.68328 0.77195 0.52068 0.0
C1227 C 0.69602 0.76826 0.50926 0.0
C1228 C 0.69202 0.75753 0.48491 0.0
C1229 C 0.67526 0.75056 0.47085 0.0
C1230 C 0.66253 0.75452 0.48212 0.0
C1231 C 0.66635 0.7648 0.50712 0.0
C1232 C 0.68655 0.77101 0.57016 0.0
C1233 C 0.67014 0.75606 0.57769 0.0
C1234 C 0.66989 0.74374 0.5969 0.0
C1235 C 0.68609 0.7456 0.60768 0.0
C1236 C 0.70237 0.76112 0.601 0.0
C1237 C 0.70254 0.77374 0.58267 0.0
C1238 C 0.68166 0.79517 0.55034 0.0
C1239 C 0.6873 0.80923 0.53132 0.0
C1240 C 0.68265 0.82275 0.53437 0.0
C1241 C 0.6725 0.8228 0.55696 0.0
C1242 C 0.66685 0.80877 0.5761 0.0
C1243 C 0.67131 0.7951 0.57286 0.0
H1244 H 0.26092 0.88062 0.54888 0.0
N1245 N 0.22988 0.87178 0.57184 0.0
H1246 H 0.27203 0.8959 0.50487 0.0
H1247 H 0.21026 0.87809 0.53236 0.0
H1248 H 0.22121 0.89315 0.48835 0.0
H1249 H 0.22309 0.90019 0.57273 0.0
H1250 H 0.24029 0.9284 0.60003 0.0
H1251 H 0.24899 0.87597 0.61845 0.0
H1252 H 0.26517 0.90378 0.64785 0.0
H1253 H 0.224 0.83812 0.56807 0.0
H1254 H 0.19698 0.86886 0.57947 0.0
H1255 H 0.1951 0.80981 0.56517 0.0
H1256 H 0.16789 0.84054 0.57697 0.0
H1257 H 0.12088 0.73416 0.51781 0.0
H1258 H 0.10904 0.72218 0.47044 0.0
H1259 H 0.08104 0.75257 0.47018 0.0
H1260 H 0.09253 0.76409 0.51753 0.0
H1261 H 0.09801 0.77511 0.56748 0.0
H1262 H 0.07222 0.76462 0.59759 0.0
H1263 H 0.07045 0.7131 0.60533 0.0
H1264 H 0.09624 0.72364 0.57511 0.0
H1265 H 0.14139 0.76065 0.5814 0.0
H1266 H 0.16932 0.78941 0.59138 0.0
H1267 H 0.14937 0.8175 0.54076 0.0
N1268 N 0.11338 0.75516 0.54999 0.0
H1269 H 0.12143 0.78886 0.53151 0.0
C1270 C 0.23482 0.87816 0.54397 0.0
C1271 C 0.25205 0.88291 0.5354 0.0
C1272 C 0.25832 0.89154 0.51023 0.0
C1273 C 0.2474 0.89557 0.49313 0.0
C1274 C 0.22986 0.89016 0.50115 0.0
C1275 C 0.22358 0.88148 0.52629 0.0
C1276 C 0.23525 0.88612 0.59289 0.0
C1277 C 0.23204 0.90069 0.58927 0.0
C1278 C 0.24184 0.91687 0.60516 0.0
C1279 C 0.25471 0.91866 0.62544 0.0
C1280 C 0.25602 0.90318 0.63151 0.0
C1281 C 0.24657 0.88716 0.61508 0.0
C1282 C 0.21267 0.85553 0.57402 0.0
C1283 C 0.21179 0.83867 0.57053 0.0
C1284 C 0.19526 0.82253 0.56894 0.0
C1285 C 0.17916 0.82291 0.57078 0.0
C1286 C 0.18005 0.83982 0.57515 0.0
C1287 C 0.19667 0.85601 0.57682 0.0
C1288 C 0.10762 0.74996 0.52123 0.0
C1289 C 0.11233 0.73834 0.50735 0.0
C1290 C 0.10556 0.73154 0.48038 0.0
C1291 C 0.09389 0.73622 0.46683 0.0
C1292 C 0.08968 0.7484 0.48037 0.0
C1293 C 0.09642 0.75516 0.50736 0.0
C1294 C 0.09907 0.75009 0.56913 0.0
C1295 C 0.09222 0.76164 0.57582 0.0
C1296 C 0.07749 0.75565 0.59301 0.0
C1297 C 0.06928 0.738 0.60343 0.0
C1298 C 0.07637 0.72666 0.59715 0.0
C1299 C 0.09113 0.73268 0.58014 0.0
C1300 C 0.12943 0.7725 0.55549 0.0
C1301 C 0.14308 0.77306 0.57257 0.0
C1302 C 0.15901 0.78947 0.57818 0.0
C1303 C 0.16162 0.80575 0.56674 0.0
C1304 C 0.14772 0.80526 0.55013 0.0
C1305 C 0.13176 0.7888 0.54456 0.0
H1306 H 0.23093 0.33838 0.53302 0.0
N1307 N 0.22963 0.36541 0.56322 0.0
H1308 H 0.24266 0.34068 0.48676 0.0
H1309 H 0.24279 0.39416 0.53078 0.0
H1310 H 0.25495 0.39662 0.48398 0.0
H1311 H 0.2602 0.3884 0.5902 0.0
H1312 H 0.27919 0.38092 0.61947 0.0
H1313 H 0.22035 0.33122 0.58251 0.0
H1314 H 0.23909 0.32389 0.61142 0.0
H1315 H 0.20274 0.33066 0.54765 0.0
H1316 H 0.21295 0.3828 0.5804 0.0
H1317 H 0.17087 0.31901 0.54861 0.0
H1318 H 0.18075 0.37186 0.57848 0.0
H1319 H 0.0672 0.29769 0.52074 0.0
H1320 H 0.05788 0.30448 0.47633 0.0
H1321 H 0.1063 0.35724 0.47832 0.0
H1322 H 0.1147 0.35093 0.52395 0.0
H1323 H 0.09264 0.34684 0.56979 0.0
H1324 H 0.07438 0.34628 0.60885 0.0
H1325 H 0.06103 0.29097 0.62464 0.0
H1326 H 0.07943 0.29173 0.58576 0.0
H1327 H 0.11611 0.30822 0.52143 0.0
H1328 H 0.14819 0.31946 0.52506 0.0
H1329 H 0.15272 0.35439 0.59545 0.0
N1330 N 0.09697 0.31866 0.55113 0.0
H1331 H 0.12105 0.34436 0.58987 0.0
C1332 C 0.23583 0.36611 0.53534 0.0
C1333 C 0.23572 0.35104 0.52242 0.0
C1334 C 0.24237 0.35234 0.49582 0.0
C1335 C 0.24937 0.36873 0.48162 0.0
C1336 C 0.24943 0.38379 0.49443 0.0
C1337 C 0.24256 0.38241 0.52103 0.0
C1338 C 0.23881 0.36054 0.58391 0.0
C1339 C 0.25537 0.37433 0.59521 0.0
C1340 C 0.26621 0.37005 0.61179 0.0
C1341 C 0.26072 0.3518 0.61718 0.0
C1342 C 0.2438 0.33804 0.60702 0.0
C1343 C 0.23295 0.34232 0.59055 0.0
C1344 C 0.21043 0.35759 0.56486 0.0
C1345 C 0.19821 0.33963 0.55547 0.0
C1346 C 0.17976 0.33305 0.55535 0.0
C1347 C 0.17296 0.34445 0.56332 0.0
C1348 C 0.18526 0.36244 0.57269 0.0
C1349 C 0.20374 0.36882 0.57367 0.0
C1350 C 0.09179 0.32354 0.52533 0.0
C1351 C 0.07572 0.31074 0.5116 0.0
C1352 C 0.07057 0.31457 0.48604 0.0
C1353 C 0.08168 0.33115 0.47319 0.0
C1354 C 0.09751 0.34428 0.48748 0.0
C1355 C 0.10241 0.34062 0.51349 0.0
C1356 C 0.08728 0.31924 0.57494 0.0
C1357 C 0.08588 0.33468 0.58183 0.0
C1358 C 0.07547 0.33433 0.60409 0.0
C1359 C 0.06643 0.31863 0.61989 0.0
C1360 C 0.06815 0.30337 0.6132 0.0
C1361 C 0.07852 0.30373 0.59095 0.0
C1362 C 0.11597 0.32522 0.55531 0.0
C1363 C 0.12408 0.31833 0.5376 0.0
C1364 C 0.14247 0.32468 0.53999 0.0
C1365 C 0.15326 0.33777 0.56083 0.0
C1366 C 0.14506 0.34454 0.57885 0.0
C1367 C 0.12671 0.33858 0.57587 0.0
C1368 C 0.00676 0.38809 0.08316 0.0
C1369 C 0.99576 0.38812 0.06106 0.0
C1370 C 0.00856 0.3974 0.10861 0.0
C1371 C 0.99945 0.40711 0.11299 0.0
H1372 H 0.01413 0.38091 0.0808 0.0
H1373 H 0.01718 0.397 0.125 0.0
S1374 S 0.96973 0.41238 0.06166 0.0
N1375 N 0.97593 0.39922 0.04531 0.0
N1376 N 0.97957 0.41677 0.09292 0.0
C1377 C 0.98842 0.40727 0.09118 0.0
C1378 C 0.98652 0.39778 0.0653 0.0
C1379 C 0.60509 0.59729 0.12021 0.0
C1380 C 0.61676 0.59465 0.10307 0.0
C1381 C 0.59556 0.58502 0.14093 0.0
C1382 C 0.59731 0.56964 0.14534 0.0
H1383 H 0.60386 0.60934 0.11851 0.0
H1384 H 0.58743 0.58811 0.15447 0.0
S1385 S 0.62397 0.55496 0.10366 0.0
N1386 N 0.62804 0.57438 0.09011 0.0
N1387 N 0.60999 0.5513 0.12905 0.0
C1388 C 0.60806 0.56622 0.12735 0.0
C1389 C 0.61779 0.57871 0.10619 0.0
C1390 C 0.41503 0.02698 0.07327 0.0
C1391 C 0.40358 0.01011 0.05968 0.0
C1392 C 0.42153 0.02792 0.1006 0.0
C1393 C 0.41715 0.012 0.11516 0.0
H1394 H 0.41871 0.03956 0.0629 0.0
H1395 H 0.42989 0.04125 0.11049 0.0
S1396 S 0.38912 0.96443 0.08724 0.0
N1397 N 0.38874 0.97716 0.06194 0.0
N1398 N 0.4017 0.97881 0.11273 0.0
C1399 C 0.40607 0.99501 0.10135 0.0
C1400 C 0.39913 0.9941 0.07375 0.0
C1401 C 0.40373 0.99124 0.92338 0.0
C1402 C 0.39159 0.97743 0.9405 0.0
C1403 C 0.41235 0.98748 0.90208 0.0
C1404 C 0.40926 0.96975 0.89698 0.0
H1405 H 0.40599 0.00498 0.92542 0.0
H1406 H 0.42077 0.99841 0.88856 0.0
S1407 S 0.38086 0.9292 0.93828 0.0
N1408 N 0.37836 0.94561 0.9527 0.0
N1409 N 0.39483 0.93861 0.91265 0.0
C1410 C 0.39807 0.956 0.91498 0.0
C1411 C 0.38921 0.95983 0.93677 0.0
C1412 C 0.02701 0.40894 0.92149 0.0
C1413 C 0.01765 0.40381 0.94636 0.0
C1414 C 0.0242 0.41977 0.90259 0.0
C1415 C 0.012 0.42585 0.90815 0.0
H1416 H 0.03559 0.40352 0.9157 0.0
H1417 H 0.03069 0.42234 0.88275 0.0
S1418 S 0.98707 0.41902 0.9732 0.0
N1419 N 0.99771 0.4075 0.9774 0.0
N1420 N 0.9927 0.42824 0.94237 0.0
C1421 C 0.00383 0.42209 0.93416 0.0
C1422 C 0.00655 0.41093 0.95316 0.0
C1423 C 0.6163 0.60184 0.96697 0.0
C1424 C 0.60617 0.60743 0.9828 0.0
C1425 C 0.60991 0.59277 0.94101 0.0
C1426 C 0.59321 0.58906 0.92964 0.0
H1427 H 0.62923 0.60424 0.97479 0.0
H1428 H 0.61818 0.58871 0.92965 0.0
S1429 S 0.56141 0.60085 0.96205 0.0
N1430 N 0.5785 0.60864 0.98478 0.0
N1431 N 0.56659 0.59159 0.93588 0.0
C1432 C 0.58298 0.59469 0.94493 0.0
C1433 C 0.58941 0.60384 0.97153 0.0
C1434 C 0.99889 0.62343 0.9521 0.0
C1435 C 0.00521 0.61972 0.97701 0.0
C1436 C -3e-05 0.61596 0.92633 0.0
C1437 C 0.00736 0.60446 0.92446 0.0
H1438 H 0.99342 0.63249 0.95237 0.0
H1439 H 0.99536 0.61956 0.90765 0.0
S1440 S 0.0239 0.58874 0.98359 0.0
N1441 N 0.01792 0.6026 0.99819 0.0
N1442 N 0.01973 0.58852 0.94985 0.0
C1443 C 0.01317 0.60015 0.94923 0.0
C1444 C 0.01214 0.60777 0.97544 0.0
C1445 C 0.41037 0.4131 0.92935 0.0
C1446 C 0.39355 0.41077 0.93617 0.0
C1447 C 0.42007 0.42424 0.90762 0.0
C1448 C 0.4132 0.43326 0.89162 0.0
H1449 H 0.4158 0.40577 0.94022 0.0
H1450 H 0.43271 0.42517 0.90253 0.0
S1451 S 0.37027 0.43258 0.90251 0.0
N1452 N 0.37103 0.41943 0.9268 0.0
N1453 N 0.38897 0.43995 0.8853 0.0
C1454 C 0.39689 0.43192 0.89937 0.0
C1455 C 0.38713 0.42076 0.92182 0.0
C1456 C 0.60638 0.9892 0.9451 0.0
C1457 C 0.59553 0.97876 0.96681 0.0
C1458 C 0.59917 0.98777 0.91811 0.0
C1459 C 0.58083 0.97584 0.91173 0.0
H1460 H 0.62061 0.99851 0.94887 0.0
H1461 H 0.60807 0.99592 0.90203 0.0
S1462 S 0.5463 0.94637 0.96111 0.0
N1463 N 0.5652 0.95654 0.98004 0.0
N1464 N 0.55178 0.95407 0.9294 0.0
C1465 C 0.56977 0.96549 0.93318 0.0
C1466 C 0.57707 0.96689 0.96067 0.0
C1467 C 0.58285 0.99146 0.08032 0.0
C1468 C 0.6001 0.00686 0.08283 0.0
C1469 C 0.57012 0.98798 0.10053 0.0
C1470 C 0.57433 0.99958 0.12427 0.0
H1471 H 0.57946 0.98158 0.06331 0.0
H1472 H 0.5572 0.97557 0.09832 0.0
S1473 S 0.61743 0.0425 0.13919 0.0
N1474 N 0.62039 0.03462 0.10923 0.0
N1475 N 0.59673 0.02782 0.14798 0.0
C1476 C 0.59119 0.01571 0.12597 0.0
C1477 C 0.60403 0.0194 0.10504 0.0
C1478 C 0.96225 0.59165 0.08928 0.0
C1479 C 0.97687 0.60951 0.09304 0.0
C1480 C 0.95949 0.57804 0.10811 0.0
C1481 C 0.97122 0.58186 0.13134 0.0
H1482 H 0.95298 0.58813 0.07158 0.0
H1483 H 0.9482 0.5644 0.10434 0.0
S1484 S 0.01024 0.62695 0.15232 0.0
N1485 N 0.00245 0.63052 0.12289 0.0
N1486 N 0.99708 0.60513 0.15824 0.0
C1487 C 0.98559 0.59977 0.13565 0.0
C1488 C 0.98845 0.61354 0.11652 0.0
C1489 C 0.39665 0.38113 0.07368 0.0
C1490 C 0.40699 0.3883 0.04995 0.0
C1491 C 0.40452 0.38621 0.1006 0.0
C1492 C 0.42289 0.39892 0.10472 0.0
H1493 H 0.38243 0.37131 0.07144 0.0
H1494 H 0.39614 0.38031 0.11835 0.0
S1495 S 0.45577 0.42209 0.04984 0.0
N1496 N 0.4366 0.40891 0.0325 0.0
N1497 N 0.45121 0.4187 0.08319 0.0
C1498 C 0.43334 0.40636 0.08131 0.0
C1499 C 0.42544 0.40097 0.05389 0.0
C1500 C 0.68258 0.73433 0.40035 0.0
C1501 C 0.66582 0.71902 0.39341 0.0
C1502 C 0.68532 0.74455 0.42508 0.0
C1503 C 0.67153 0.73959 0.44428 0.0
H1504 H 0.69357 0.73871 0.38621 0.0
H1505 H 0.69836 0.75656 0.42897 0.0
S1506 S 0.62542 0.69952 0.43632 0.0
N1507 N 0.63529 0.69901 0.40742 0.0
N1508 N 0.64063 0.71743 0.45491 0.0
C1509 C 0.65472 0.72399 0.43767 0.0
C1510 C 0.65184 0.71389 0.41203 0.0
C1511 C 0.26347 0.93594 0.44648 0.0
C1512 C 0.27428 0.93319 0.42757 0.0
C1513 C 0.25404 0.92318 0.46668 0.0
C1514 C 0.25506 0.90721 0.46879 0.0
H1515 H 0.26291 0.94842 0.4466 0.0
H1516 H 0.24665 0.92633 0.48169 0.0
S1517 S 0.27916 0.89212 0.42184 0.0
N1518 N 0.28379 0.91222 0.41039 0.0
N1519 N 0.266 0.88829 0.44849 0.0
C1520 C 0.26485 0.90371 0.44899 0.0
C1521 C 0.27444 0.91667 0.42832 0.0
C1522 C 0.07395 0.35527 0.41277 0.0
C1523 C 0.06643 0.34151 0.39179 0.0
C1524 C 0.07891 0.35186 0.43903 0.0
C1525 C 0.07679 0.33466 0.44497 0.0
H1526 H 0.07558 0.36858 0.40908 0.0
H1527 H 0.08413 0.36267 0.45493 0.0
S1528 S 0.05972 0.29493 0.3952 0.0
N1529 N 0.05802 0.31058 0.37764 0.0
N1530 N 0.06821 0.30434 0.42628 0.0
C1531 C 0.0699 0.32106 0.42352 0.0
C1532 C 0.06451 0.32445 0.39711 0.0
C1533 C 0.06301 0.33221 0.24834 0.0
C1534 C 0.05458 0.31967 0.26941 0.0
C1535 C 0.07178 0.3287 0.22701 0.0
C1536 C 0.07276 0.31262 0.22606 0.0
H1537 H 0.06222 0.34456 0.2476 0.0
H1538 H 0.07729 0.33842 0.21058 0.0
S1539 S 0.05497 0.27654 0.27848 0.0
N1540 N 0.04889 0.29121 0.28937 0.0
N1541 N 0.06606 0.28487 0.24971 0.0
C1542 C 0.06514 0.30035 0.24778 0.0
C1543 C 0.05592 0.30382 0.26936 0.0
C1544 C 0.67091 0.72856 0.25739 0.0
C1545 C 0.68568 0.73147 0.27443 0.0
C1546 C 0.67278 0.74076 0.23666 0.0
C1547 C 0.68949 0.7563 0.23216 0.0
H1548 H 0.65795 0.71636 0.25916 0.0
H1549 H 0.66126 0.73749 0.22314 0.0
S1550 S 0.7317 0.77171 0.27364 0.0
N1551 N 0.71716 0.75223 0.28729 0.0
N1552 N 0.72056 0.77509 0.24827 0.0
C1553 C 0.70409 0.76 0.2501 0.0
C1554 C 0.7022 0.74762 0.27128 0.0
C1555 C 0.25351 0.96083 0.29838 0.0
C1556 C 0.26389 0.95444 0.31164 0.0
C1557 C 0.24675 0.95512 0.27096 0.0
C1558 C 0.24984 0.94252 0.25601 0.0
H1559 H 0.25098 0.97068 0.309 0.0
H1560 H 0.23935 0.9609 0.26126 0.0
S1561 S 0.27429 0.91993 0.28316 0.0
N1562 N 0.27601 0.93405 0.30877 0.0
N1563 N 0.26256 0.92253 0.25788 0.0
C1564 C 0.25963 0.9355 0.26961 0.0
C1565 C 0.26683 0.94164 0.29725 0.0
C1566 C 0.67269 0.94597 0.28154 0.0
C1567 C 0.6868 0.9532 0.30184 0.0
C1568 C 0.67426 0.93869 0.25596 0.0
C1569 C 0.69006 0.93852 0.24949 0.0
H1570 H 0.66021 0.94569 0.28555 0.0
H1571 H 0.66304 0.93323 0.24102 0.0
S1572 S 0.73102 0.95582 0.29491 0.0
N1573 N 0.71727 0.95982 0.3133 0.0
N1574 N 0.72004 0.94608 0.26527 0.0
C1575 C 0.70432 0.94582 0.26935 0.0
C1576 C 0.70273 0.95314 0.29549 0.0
C1577 C 0.08283 0.73555 0.26333 0.0
C1578 C 0.06592 0.73402 0.2664 0.0
C1579 C 0.09468 0.74686 0.24346 0.0
C1580 C 0.08996 0.7569 0.22563 0.0
H1581 H 0.0868 0.72762 0.2759 0.0
H1582 H 0.10741 0.74731 0.24146 0.0
S1583 S 0.04731 0.75795 0.22592 0.0
N1584 N 0.04533 0.74407 0.25102 0.0
N1585 N 0.06727 0.76487 0.21296 0.0
C1586 C 0.07336 0.75606 0.22932 0.0
C1587 C 0.06142 0.74473 0.24989 0.0
C1588 C 0.24817 0.31696 0.29348 0.0
C1589 C 0.26687 0.3275 0.29882 0.0
C1590 C 0.24078 0.31411 0.26633 0.0
C1591 C 0.25176 0.3217 0.24342 0.0
H1592 H 0.23908 0.31102 0.31042 0.0
H1593 H 0.22631 0.30615 0.2633 0.0
S1594 S 0.30153 0.34913 0.24543 0.0
N1595 N 0.29625 0.3448 0.27837 0.0
N1596 N 0.28226 0.33929 0.22744 0.0
C1597 C 0.27046 0.33196 0.24827 0.0
C1598 C 0.27802 0.33489 0.27591 0.0
C1599 C 0.28632 0.38255 0.43029 0.0
C1600 C 0.27843 0.36802 0.41051 0.0
C1601 C 0.27633 0.38368 0.45221 0.0
C1602 C 0.25818 0.37031 0.45483 0.0
H1603 H 0.30063 0.39214 0.4303 0.0
H1604 H 0.28322 0.39416 0.46839 0.0
S1605 S 0.23043 0.33231 0.40434 0.0
N1606 N 0.25083 0.34209 0.39187 0.0
N1607 N 0.232 0.34413 0.43307 0.0
C1608 C 0.24974 0.35693 0.43342 0.0
C1609 C 0.2599 0.3558 0.41121 0.0
C1610 C 0.66962 0.93181 0.42394 0.0
C1611 C 0.65466 0.93355 0.41674 0.0
C1612 C 0.66891 0.92054 0.44544 0.0
C1613 C 0.65331 0.91084 0.4609 0.0
H1614 H 0.68209 0.93949 0.41331 0.0
H1615 H 0.68088 0.91987 0.45054 0.0
S1616 S 0.61033 0.91057 0.4497 0.0
N1617 N 0.62355 0.92409 0.42574 0.0
N1618 N 0.62238 0.90351 0.46691 0.0
C1619 C 0.63802 0.91195 0.45314 0.0
C1620 C 0.63867 0.92318 0.43088 0.0
C1621 C 0.08953 0.72079 0.39076 0.0
C1622 C 0.071 0.71296 0.38449 0.0
C1623 C 0.0968 0.72821 0.4174 0.0
C1624 C 0.08586 0.72813 0.43885 0.0
H1625 H 0.0986 0.72148 0.37487 0.0
H1626 H 0.11117 0.73432 0.42111 0.0
S1627 S 0.03636 0.70792 0.43431 0.0
N1628 N 0.04174 0.70474 0.40272 0.0
N1629 N 0.05546 0.71855 0.45271 0.0
C1630 C 0.06729 0.72001 0.43314 0.0
C1631 C 0.05986 0.71246 0.40602 0.0
C1632 C 0.32174 0.05995 0.73092 0.0
C1633 C 0.33405 0.05447 0.72279 0.0
C1634 C 0.32419 0.06975 0.75607 0.0
C1635 C 0.33915 0.07461 0.77389 0.0
H1636 H 0.31025 0.05697 0.71753 0.0
H1637 H 0.31464 0.07405 0.76121 0.0
S1638 S 0.37447 0.06235 0.76416 0.0
N1639 N 0.36117 0.05368 0.73611 0.0
N1640 N 0.36573 0.07226 0.78306 0.0
C1641 C 0.35121 0.06874 0.76667 0.0
C1642 C 0.34867 0.05861 0.74124 0.0
C1643 C 0.93311 0.26593 0.78513 0.0
C1644 C 0.94516 0.26355 0.7686 0.0
C1645 C 0.92292 0.25325 0.80493 0.0
C1646 C 0.92431 0.23761 0.80904 0.0
H1647 H 0.932 0.27806 0.78365 0.0
H1648 H 0.91448 0.25617 0.818 0.0
S1649 S 0.95214 0.22371 0.76888 0.0
N1650 N 0.95674 0.24347 0.75604 0.0
N1651 N 0.93737 0.21952 0.79324 0.0
C1652 C 0.9356 0.23454 0.79175 0.0
C1653 C 0.94604 0.2475 0.77151 0.0
C1654 C 0.75656 0.69622 0.7295 0.0
C1655 C 0.74068 0.67979 0.72217 0.0
C1656 C 0.76367 0.70004 0.75691 0.0
C1657 C 0.75531 0.68752 0.77799 0.0
H1658 H 0.76351 0.70635 0.71405 0.0
H1659 H 0.77589 0.71285 0.76161 0.0
S1660 S 0.71346 0.64267 0.77028 0.0
N1661 N 0.71679 0.65092 0.7387 0.0
N1662 N 0.73026 0.65823 0.7901 0.0
C1663 C 0.73951 0.67105 0.77108 0.0
C1664 C 0.73217 0.66717 0.74323 0.0
C1665 C 0.74086 0.65746 0.58597 0.0
C1666 C 0.73022 0.64331 0.60383 0.0
C1667 C 0.74979 0.6547 0.56405 0.0
C1668 C 0.74845 0.63767 0.55902 0.0
H1669 H 0.74168 0.6706 0.58797 0.0
H1670 H 0.75701 0.66576 0.55004 0.0
S1671 S 0.72447 0.59686 0.60186 0.0
N1672 N 0.72037 0.61211 0.61665 0.0
N1673 N 0.73732 0.60701 0.57534 0.0
C1674 C 0.7388 0.62372 0.57766 0.0
C1675 C 0.72969 0.62652 0.60013 0.0
C1676 C 0.34235 0.06894 0.58996 0.0
C1677 C 0.357 0.07059 0.60598 0.0
C1678 C 0.34449 0.08225 0.57115 0.0
C1679 C 0.36139 0.09775 0.56751 0.0
H1680 H 0.32918 0.05693 0.59108 0.0
H1681 H 0.33297 0.07996 0.55841 0.0
S1682 S 0.40367 0.10983 0.60659 0.0
N1683 N 0.38877 0.0899 0.61861 0.0
N1684 N 0.39271 0.11489 0.58313 0.0
C1685 C 0.37599 0.10008 0.5843 0.0
C1686 C 0.37381 0.08654 0.6036 0.0
C1687 C 0.94201 0.26641 0.63885 0.0
C1688 C 0.93721 0.27901 0.64885 0.0
C1689 C 0.93612 0.25796 0.61241 0.0
C1690 C 0.92553 0.26208 0.59456 0.0
H1691 H 0.95014 0.26279 0.6518 0.0
H1692 H 0.93979 0.24796 0.60605 0.0
S1693 S 0.91059 0.29543 0.61042 0.0
N1694 N 0.9217 0.29567 0.639 0.0
N1695 N 0.91139 0.2806 0.58855 0.0
C1696 C 0.9209 0.27497 0.60425 0.0
C1697 C 0.92657 0.28324 0.63153 0.0
C1698 C 0.34716 0.27027 0.63232 0.0
C1699 C 0.34171 0.28337 0.63511 0.0
C1700 C 0.34884 0.26391 0.60598 0.0
C1701 C 0.34544 0.27066 0.58153 0.0
H1702 H 0.35019 0.2649 0.65063 0.0
H1703 H 0.35325 0.25399 0.60472 0.0
S1704 S 0.33043 0.30461 0.57706 0.0
N1705 N 0.33245 0.30244 0.61085 0.0
N1706 N 0.33598 0.29068 0.56144 0.0
C1707 C 0.33979 0.28354 0.58391 0.0
C1708 C 0.3378 0.28982 0.61067 0.0
C1709 C 0.73303 0.07188 0.57775 0.0
C1710 C 0.72044 0.07377 0.59366 0.0
C1711 C 0.74331 0.08476 0.55828 0.0
C1712 C 0.74149 0.10012 0.55388 0.0
H1713 H 0.73453 0.06 0.57948 0.0
H1714 H 0.7522 0.08222 0.5457 0.0
S1715 S 0.71203 0.11266 0.59227 0.0
N1716 N 0.70778 0.09303 0.60524 0.0
N1717 N 0.72733 0.11738 0.56862 0.0
C1718 C 0.72959 0.10267 0.57048 0.0
C1719 C 0.71905 0.0895 0.5904 0.0
C1720 C 0.93584 0.6671 0.61055 0.0
C1721 C 0.92705 0.65428 0.63125 0.0
C1722 C 0.92914 0.66378 0.58292 0.0
C1723 C 0.91353 0.64744 0.57483 0.0
H1724 H 0.94804 0.67984 0.61564 0.0
H1725 H 0.93645 0.67394 0.56765 0.0
S1726 S 0.88504 0.60961 0.62068 0.0
N1727 N 0.9015 0.62467 0.64154 0.0
N1728 N 0.88905 0.61854 0.58956 0.0
C1729 C 0.90446 0.63458 0.59521 0.0
C1730 C 0.91116 0.63799 0.62343 0.0
C1731 C 0.92953 0.68233 0.76489 0.0
C1732 C 0.94078 0.6956 0.74626 0.0
C1733 C 0.92162 0.68664 0.78667 0.0
C1734 C 0.9246 0.7044 0.79078 0.0
H1735 H 0.92752 0.66867 0.76372 0.0
H1736 H 0.91398 0.67619 0.80136 0.0
S1737 S 0.95049 0.74347 0.7454 0.0
N1738 N 0.95279 0.72681 0.73153 0.0
N1739 N 0.9377 0.73484 0.77254 0.0
C1740 C 0.93473 0.71751 0.77122 0.0
C1741 C 0.94283 0.71312 0.7489 0.0
C1742 C 0.30134 0.26547 0.77475 0.0
C1743 C 0.31023 0.26685 0.74998 0.0
C1744 C 0.29998 0.25322 0.795 0.0
C1745 C 0.30724 0.24169 0.79103 0.0
H1746 H 0.29622 0.2746 0.77913 0.0
H1747 H 0.29395 0.25349 0.81448 0.0
S1748 S 0.32964 0.23858 0.72739 0.0
N1749 N 0.32525 0.25509 0.72125 0.0
N1750 N 0.32183 0.23117 0.75851 0.0
C1751 C 0.31521 0.24225 0.76537 0.0
C1752 C 0.31693 0.25507 0.74504 0.0
C1753 C 0.74688 0.06609 0.72471 0.0
C1754 C 0.72991 0.06184 0.71349 0.0
C1755 C 0.75316 0.07512 0.75081 0.0
C1756 C 0.74285 0.08049 0.76643 0.0
H1757 H 0.75539 0.06239 0.71332 0.0
H1758 H 0.7663 0.07816 0.75865 0.0
S1759 S 0.6974 0.07232 0.74728 0.0
N1760 N 0.70275 0.06349 0.72076 0.0
N1761 N 0.71473 0.08051 0.76956 0.0
C1762 C 0.72586 0.07626 0.75569 0.0
C1763 C 0.71935 0.06692 0.72932 0.0
C1764 C 0.05411 0.34549 0.04589 0.0
C1765 C 0.04611 0.3376 0.01963 0.0
C1766 C 0.06453 0.33976 0.0607 0.0
C1767 C 0.06728 0.32582 0.04993 0.0
H1768 H 0.05221 0.3561 0.05528 0.0
H1769 H 0.07009 0.34596 0.08109 0.0
S1770 S 0.05025 0.30131 0.98156 0.0
N1771 N 0.04233 0.31546 0.98309 0.0
N1772 N 0.06194 0.30484 0.01098 0.0
C1773 C 0.05969 0.31805 0.02353 0.0
C1774 C 0.04913 0.3239 0.00837 0.0
C1775 C 0.66361 0.70027 0.05478 0.0
C1776 C 0.64503 0.68799 0.05155 0.0
C1777 C 0.67029 0.71885 0.06045 0.0
C1778 C 0.65872 0.72604 0.06272 0.0
H1779 H 0.67307 0.69539 0.05493 0.0
H1780 H 0.68457 0.72735 0.06499 0.0
S1781 S 0.60934 0.7004 0.0494 0.0
N1782 N 0.61537 0.68476 0.04671 0.0
N1783 N 0.62804 0.7199 0.05636 0.0
C1784 C 0.64027 0.71422 0.05676 0.0
C1785 C 0.63341 0.69518 0.0514 0.0
C1786 C 0.30752 0.9666 0.04891 0.0
C1787 C 0.30709 0.9561 0.02548 0.0
C1788 C 0.29294 0.96037 0.06651 0.0
C1789 C 0.27742 0.94331 0.06156 0.0
H1790 H 0.31919 0.97984 0.05371 0.0
H1791 H 0.29394 0.96885 0.0844 0.0
S1792 S 0.26918 0.91056 0.0031 0.0
N1793 N 0.28957 0.92777 0.99821 0.0
N1794 N 0.2622 0.9161 0.03149 0.0
C1795 C 0.27671 0.93265 0.03828 0.0
C1796 C 0.29152 0.93904 0.02017 0.0
C1797 C 0.38062 0.06584 0.98208 0.0
C1798 C 0.36754 0.04726 0.9795 0.0
C1799 C 0.37741 0.07921 0.97126 0.0
C1800 C 0.36115 0.07446 0.9569 0.0
H1801 H 0.39382 0.06999 0.99102 0.0
H1802 H 0.38821 0.09327 0.97252 0.0
S1803 S 0.3218 0.02776 0.94739 0.0
N1804 N 0.33697 0.02492 0.96456 0.0
N1805 N 0.33118 0.04991 0.94309 0.0
C1806 C 0.34741 0.05605 0.95629 0.0
C1807 C 0.35056 0.04247 0.96785 0.0
C1808 C 0.94084 0.30128 0.98941 0.0
C1809 C 0.95947 0.30789 0.98976 0.0
C1810 C 0.92845 0.28296 0.98272 0.0
C1811 C 0.93417 0.27049 0.97595 0.0
H1812 H 0.93577 0.31053 0.99297 0.0
H1813 H 0.9143 0.27872 0.98145 0.0
S1814 S 0.98139 0.28038 0.97659 0.0
N1815 N 0.98296 0.30006 0.98536 0.0
N1816 N 0.9597 0.26572 0.97216 0.0
C1817 C 0.95269 0.27658 0.97822 0.0
C1818 C 0.96533 0.29525 0.98529 0.0
C1819 C 0.70691 0.65481 0.00142 0.0
C1820 C 0.70084 0.66656 0.01066 0.0
C1821 C 0.72116 0.66074 0.9831 0.0
C1822 C 0.72962 0.67854 0.97294 0.0
H1823 H 0.70077 0.64101 0.00869 0.0
H1824 H 0.72562 0.65133 0.97698 0.0
S1825 S 0.71725 0.71388 0.98872 0.0
N1826 N 0.70367 0.69644 0.00747 0.0
N1827 N 0.7298 0.70736 0.97204 0.0
C1828 C 0.72332 0.69026 0.98161 0.0
C1829 C 0.70908 0.68432 0.00069 0.0
C1830 C 0.95371 0.6707 0.97622 0.0
C1831 C 0.95526 0.67314 0.00545 0.0
C1832 C 0.94454 0.67726 0.96002 0.0
C1833 C 0.93664 0.68662 0.97239 0.0
H1834 H 0.95973 0.66377 0.96566 0.0
H1835 H 0.94391 0.6753 0.93758 0.0
S1836 S 0.93585 0.6958 0.04799 0.0
N1837 N 0.94741 0.68509 0.04609 0.0
N1838 N 0.9302 0.6973 0.01552 0.0
C1839 C 0.93782 0.68893 0.00153 0.0
C1840 C 0.94709 0.68222 0.01808 0.0
C1841 C 0.34148 0.30241 0.96618 0.0
C1842 C 0.35996 0.3137 0.97237 0.0
C1843 C 0.33429 0.28398 0.95852 0.0
C1844 C 0.34526 0.27604 0.95713 0.0
H1845 H 0.33267 0.3081 0.96541 0.0
H1846 H 0.32025 0.27622 0.95199 0.0
S1847 S 0.39377 0.29885 0.97719 0.0
N1848 N 0.38862 0.31512 0.98032 0.0
N1849 N 0.37498 0.28025 0.96699 0.0
C1850 C 0.36345 0.28681 0.96571 0.0
C1851 C 0.37083 0.30567 0.97306 0.0
C1852 C 0.67464 0.05016 0.9507 0.0
C1853 C 0.67683 0.04495 0.97747 0.0
C1854 C 0.6895 0.06192 0.93532 0.0
C1855 C 0.70716 0.06911 0.94615 0.0
H1856 H 0.66134 0.04499 0.94138 0.0
H1857 H 0.68711 0.06532 0.91464 0.0
S1858 S 0.72024 0.06057 0.01589 0.0
N1859 N 0.6981 0.04824 0.01448 0.0
N1860 N 0.72598 0.07071 0.98576 0.0
C1861 C 0.70957 0.06412 0.97297 0.0
C1862 C 0.69443 0.05199 0.98857 0.0
C1863 C 0.6635 0.96407 0.05188 0.0
C1864 C 0.64515 0.95503 0.04394 0.0
C1865 C 0.67157 0.9544 0.06198 0.0
C1866 C 0.66163 0.93533 0.06419 0.0
H1867 H 0.67134 0.97882 0.05257 0.0
H1868 H 0.6853 0.96209 0.07008 0.0
S1869 S 0.61445 0.90496 0.03948 0.0
N1870 N 0.61813 0.92576 0.03442 0.0
N1871 N 0.63347 0.90753 0.05269 0.0
C1872 C 0.64385 0.926 0.05341 0.0
C1873 C 0.63557 0.93586 0.04341 0.0
C1874 C 0.06302 0.70357 0.04838 0.0
C1875 C 0.04542 0.69984 0.04211 0.0
C1876 C 0.07705 0.72135 0.05379 0.0
C1877 C 0.07424 0.73633 0.05295 0.0
H1878 H 0.06587 0.69257 0.05075 0.0
H1879 H 0.08992 0.72314 0.06062 0.0
S1880 S 0.0316 0.73446 0.03187 0.0
N1881 N 0.0265 0.7129 0.03145 0.0
N1882 N 0.05315 0.74652 0.04102 0.0
C1883 C 0.05712 0.73302 0.04412 0.0
C1884 C 0.04269 0.71476 0.03873 0.0
C1885 C 0.30916 0.347 0.04681 0.0
C1886 C 0.30939 0.35536 0.02164 0.0
C1887 C 0.29417 0.33985 0.06364 0.0
C1888 C 0.27883 0.34086 0.05611 0.0
H1889 H 0.32056 0.34573 0.05352 0.0
H1890 H 0.29461 0.3335 0.08278 0.0
S1891 S 0.27244 0.36147 0.99264 0.0
N1892 N 0.29285 0.36442 0.99026 0.0
N1893 N 0.26466 0.35085 0.022 0.0
C1894 C 0.2789 0.34939 0.03129 0.0
C1895 C 0.29416 0.35664 0.01402 0.0
C1896 C 0.72086 0.67541 0.37966 0.0
C1897 C 0.71936 0.67398 0.35032 0.0
C1898 C 0.73132 0.66978 0.39454 0.0
C1899 C 0.74058 0.66235 0.38071 0.0
H1900 H 0.71376 0.68077 0.39132 0.0
H1901 H 0.73177 0.67078 0.4171 0.0
S1902 S 0.7421 0.65654 0.30429 0.0
N1903 N 0.72881 0.66522 0.30802 0.0
N1904 N 0.74836 0.65463 0.33617 0.0
C1905 C 0.73955 0.66117 0.35146 0.0
C1906 C 0.729 0.667 0.33624 0.0
C1907 C 0.32763 0.04174 0.39144 0.0
C1908 C 0.30889 0.03042 0.38814 0.0
C1909 C 0.33531 0.06032 0.39853 0.0
C1910 C 0.32459 0.06837 0.4023 0.0
H1911 H 0.33642 0.03604 0.39039 0.0
H1912 H 0.34967 0.06812 0.40284 0.0
S1913 S 0.27521 0.04555 0.39013 0.0
N1914 N 0.28002 0.02914 0.3852 0.0
N1915 N 0.29455 0.06421 0.39782 0.0
C1916 C 0.306 0.05756 0.39658 0.0
C1917 C 0.29813 0.03857 0.38966 0.0
C1918 C 0.97446 0.29653 0.38644 0.0
C1919 C 0.97362 0.28993 0.35897 0.0
C1920 C 0.96166 0.28597 0.40579 0.0
C1921 C 0.94754 0.26838 0.39847 0.0
H1922 H 0.98533 0.30982 0.39336 0.0
H1923 H 0.96318 0.2914 0.42691 0.0
S1924 S 0.93805 0.2453 0.32876 0.0
N1925 N 0.95662 0.26502 0.32502 0.0
N1926 N 0.93256 0.24528 0.36152 0.0
C1927 C 0.94609 0.26183 0.37089 0.0
C1928 C 0.95911 0.27258 0.35111 0.0
C1929 C 0.04729 0.4062 0.31286 0.0
C1930 C 0.03472 0.38943 0.32392 0.0
C1931 C 0.04205 0.41824 0.30273 0.0
C1932 C 0.02409 0.41418 0.30366 0.0
H1933 H 0.06099 0.40945 0.30966 0.0
H1934 H 0.05191 0.42999 0.29189 0.0
S1935 S 0.98729 0.37502 0.33866 0.0
N1936 N 0.0044 0.37135 0.3408 0.0
N1937 N 0.99473 0.3944 0.32248 0.0
C1938 C 0.01198 0.39877 0.31821 0.0
C1939 C 0.01727 0.38632 0.32828 0.0
C1940 C 0.63197 0.62515 0.32036 0.0
C1941 C 0.62546 0.63716 0.32561 0.0
C1942 C 0.62021 0.60656 0.31448 0.0
C1943 C 0.60143 0.59914 0.31397 0.0
H1944 H 0.64625 0.6303 0.31882 0.0
H1945 H 0.62596 0.59823 0.30849 0.0
S1946 S 0.57762 0.62407 0.33235 0.0
N1947 N 0.59909 0.63989 0.33387 0.0
N1948 N 0.57697 0.60479 0.32373 0.0
C1949 C 0.59478 0.6107 0.32171 0.0
C1950 C 0.60678 0.62972 0.32734 0.0
C1951 C 0.37829 0.0139 0.34579 0.0
C1952 C 0.36079 0.99934 0.33956 0.0
C1953 C 0.39262 0.01743 0.32862 0.0
C1954 C 0.39001 0.00645 0.30472 0.0
H1955 H 0.38102 0.02262 0.36416 0.0
H1956 H 0.40588 0.02865 0.33432 0.0
S1957 S 0.34683 0.96743 0.27792 0.0
N1958 N 0.34167 0.97436 0.30686 0.0
N1959 N 0.36862 0.9811 0.27475 0.0
C1960 C 0.37261 0.99208 0.29793 0.0
C1961 C 0.358 0.9885 0.31529 0.0
C1962 C 0.59729 0.97044 0.341 0.0
C1963 C 0.6147 0.97718 0.33085 0.0
C1964 C 0.58382 0.97126 0.32533 0.0
C1965 C 0.58725 0.97904 0.29899 0.0
H1966 H 0.59389 0.96422 0.36113 0.0
H1967 H 0.5706 0.96573 0.33388 0.0
S1968 S 0.6304 0.99867 0.26266 0.0
N1969 N 0.63455 0.99199 0.29259 0.0
N1970 N 0.60918 0.99351 0.2632 0.0
C1971 C 0.60459 0.98603 0.28864 0.0
C1972 C 0.61831 0.98509 0.30452 0.0
C1973 C 0.03083 0.62888 0.28371 0.0
C1974 C 0.02481 0.63664 0.30393 0.0
C1975 C 0.02081 0.61035 0.27606 0.0
C1976 C 0.00446 0.59864 0.28862 0.0
H1977 H 0.04281 0.63736 0.27232 0.0
H1978 H 0.02549 0.60547 0.25897 0.0
S1979 S 0.98453 0.61153 0.34649 0.0
N1980 N 0.00255 0.63085 0.33873 0.0
N1981 N 0.98406 0.59575 0.3252 0.0
C1982 C 0.999 0.60594 0.31046 0.0
C1983 C 0.00909 0.62496 0.31793 0.0
C1984 C 0.36809 0.38913 0.31703 0.0
C1985 C 0.36211 0.37148 0.32657 0.0
C1986 C 0.38305 0.3977 0.30015 0.0
C1987 C 0.39243 0.38883 0.29185 0.0
H1988 H 0.36137 0.39653 0.3231 0.0
H1989 H 0.38743 0.41147 0.29386 0.0
S1990 S 0.38074 0.34162 0.30868 0.0
N1991 N 0.36598 0.345 0.32529 0.0
N1992 N 0.39358 0.36071 0.29262 0.0
C1993 C 0.38619 0.37092 0.30061 0.0
C1994 C 0.37117 0.36235 0.31818 0.0
C1995 C 0.29985 0.2885 0.4134 0.0
C1996 C 0.30562 0.29859 0.38909 0.0
C1997 C 0.30727 0.27805 0.42245 0.0
C1998 C 0.32054 0.2769 0.40731 0.0
H1999 H 0.29019 0.28943 0.42648 0.0
H2000 H 0.3031 0.27155 0.44227 0.0
S2001 S 0.33816 0.29843 0.33973 0.0
N2002 N 0.32419 0.30557 0.34857 0.0
N2003 N 0.33757 0.2851 0.36484 0.0
C2004 C 0.32564 0.28603 0.38196 0.0
C2005 C 0.31831 0.29704 0.37303 0.0
C2006 C 0.73196 0.03735 0.37533 0.0
C2007 C 0.71321 0.02992 0.37355 0.0
C2008 C 0.74352 0.05584 0.38217 0.0
C2009 C 0.73681 0.06764 0.38777 0.0
H2010 H 0.73772 0.02863 0.37272 0.0
H2011 H 0.75779 0.06074 0.38451 0.0
S2012 S 0.6889 0.05539 0.38339 0.0
N2013 N 0.68856 0.03619 0.37545 0.0
N2014 N 0.71026 0.07084 0.38904 0.0
C2015 C 0.71819 0.06069 0.38412 0.0
C2016 C 0.7064 0.04186 0.37685 0.0
C2017 C 0.97691 0.6753 0.37373 0.0
C2018 C 0.97421 0.6699 0.3453 0.0
C2019 C 0.9624 0.66978 0.39135 0.0
C2020 C 0.94461 0.65863 0.38127 0.0
H2021 H 0.99037 0.68363 0.38266 0.0
H2022 H 0.96518 0.67394 0.4132 0.0
S2023 S 0.93002 0.64191 0.3082 0.0
N2024 N 0.95217 0.65348 0.30764 0.0
N2025 N 0.92495 0.64329 0.34082 0.0
C2026 C 0.94164 0.65348 0.35282 0.0
C2027 C 0.95642 0.65907 0.33483 0.0
C2028 C 0.39287 0.99792 0.67328 0.0
C2029 C 0.38397 0.00634 0.68547 0.0
C2030 C 0.40209 0.99151 0.68966 0.0
C2031 C 0.4029 0.99336 0.71889 0.0
H2032 H 0.39261 0.99607 0.65086 0.0
H2033 H 0.40867 0.98507 0.67933 0.0
S2034 S 0.38178 0.01417 0.76138 0.0
N2035 N 0.37664 0.01617 0.72884 0.0
N2036 N 0.3938 0.00395 0.75949 0.0
C2037 C 0.3942 0.00186 0.73142 0.0
C2038 C 0.38478 0.00837 0.71476 0.0
C2039 C 0.96255 0.3641 0.71574 0.0
C2040 C 0.97431 0.35785 0.72355 0.0
C2041 C 0.9663 0.38175 0.72336 0.0
C2042 C 0.98169 0.39366 0.73985 0.0
H2043 H 0.94997 0.35499 0.70472 0.0
H2044 H 0.95656 0.38574 0.71753 0.0
S2045 S 0.01712 0.38382 0.76462 0.0
N2046 N 0.00257 0.36522 0.74676 0.0
N2047 N 0.00917 0.39791 0.76261 0.0
C2048 C 0.99405 0.38783 0.74645 0.0
C2049 C 0.99044 0.37004 0.73797 0.0
C2050 C 0.65057 0.61752 0.7236 0.0
C2051 C 0.64491 0.61823 0.69615 0.0
C2052 C 0.63825 0.60703 0.74352 0.0
C2053 C 0.61975 0.59681 0.73687 0.0
H2054 H 0.66468 0.62505 0.72984 0.0
H2055 H 0.64327 0.60692 0.76434 0.0
S2056 S 0.59781 0.59375 0.66816 0.0
N2057 N 0.61939 0.60775 0.66348 0.0
N2058 N 0.59628 0.58787 0.70101 0.0
C2059 C 0.61382 0.5975 0.70968 0.0
C2060 C 0.62638 0.60823 0.68931 0.0
C2061 C 0.70394 0.72187 0.65335 0.0
C2062 C 0.69447 0.70386 0.64268 0.0
C2063 C 0.69981 0.73495 0.64404 0.0
C2064 C 0.68657 0.73065 0.62286 0.0
H2065 H 0.71524 0.72609 0.66784 0.0
H2066 H 0.70789 0.74883 0.65217 0.0
S2067 S 0.6572 0.6847 0.58974 0.0
N2068 N 0.67023 0.68175 0.61216 0.0
N2069 N 0.66318 0.70645 0.59302 0.0
C2070 C 0.6762 0.71227 0.61347 0.0
C2071 C 0.68004 0.69886 0.62371 0.0
C2072 C 0.27541 0.96831 0.64985 0.0
C2073 C 0.29398 0.97471 0.64924 0.0
C2074 C 0.26274 0.94989 0.64411 0.0
C2075 C 0.2681 0.93713 0.63716 0.0
H2076 H 0.27059 0.97773 0.65379 0.0
H2077 H 0.24861 0.94576 0.64402 0.0
S2078 S 0.31521 0.94677 0.63395 0.0
N2079 N 0.31711 0.96655 0.64291 0.0
N2080 N 0.29343 0.93223 0.63103 0.0
C2081 C 0.28666 0.9432 0.63786 0.0
C2082 C 0.29955 0.96189 0.64415 0.0
C2083 C 0.0285 0.32026 0.65628 0.0
C2084 C 0.02858 0.31326 0.68264 0.0
C2085 C 0.04112 0.32245 0.63647 0.0
C2086 C 0.05431 0.31771 0.64216 0.0
H2087 H 0.01836 0.32373 0.65057 0.0
H2088 H 0.04017 0.32736 0.6162 0.0
S2089 S 0.06163 0.30051 0.7087 0.0
N2090 N 0.0439 0.30274 0.71391 0.0
N2091 N 0.06763 0.30699 0.67658 0.0
C2092 C 0.055 0.3113 0.66868 0.0
C2093 C 0.04216 0.30908 0.68893 0.0
C2094 C 0.29131 0.35065 0.67421 0.0
C2095 C 0.29528 0.3374 0.66395 0.0
C2096 C 0.28033 0.35541 0.65885 0.0
C2097 C 0.2728 0.34705 0.63271 0.0
H2098 H 0.29651 0.35726 0.69448 0.0
H2099 H 0.27742 0.36546 0.66774 0.0
S2100 S 0.28013 0.31278 0.59516 0.0
N2101 N 0.29154 0.31681 0.625 0.0
N2102 N 0.27094 0.32583 0.59627 0.0
C2103 C 0.27698 0.33416 0.62182 0.0
C2104 C 0.28822 0.32934 0.63737 0.0
C2105 C 0.70497 0.97481 0.62789 0.0
C2106 C 0.69545 0.98116 0.64367 0.0
C2107 C 0.6981 0.95617 0.62246 0.0
C2108 C 0.6815 0.94303 0.63281 0.0
H2109 H 0.71726 0.98431 0.61801 0.0
H2110 H 0.70533 0.95215 0.60846 0.0
S2111 S 0.65321 0.95223 0.68027 0.0
N2112 N 0.66984 0.97266 0.67303 0.0
N2113 N 0.65715 0.93753 0.66328 0.0
C2114 C 0.67265 0.94908 0.65072 0.0
C2115 C 0.67958 0.96813 0.65608 0.0
C2116 C 0.0387 0.73458 0.66181 0.0
C2117 C 0.02296 0.71781 0.6556 0.0
C2118 C 0.05352 0.74122 0.64456 0.0
C2119 C 0.05318 0.73127 0.62059 0.0
H2120 H 0.03974 0.74258 0.68034 0.0
H2121 H 0.06548 0.75402 0.65038 0.0
S2122 S 0.0149 0.68745 0.59353 0.0
N2123 N 0.0077 0.69194 0.62259 0.0
N2124 N 0.03559 0.70451 0.59039 0.0
C2125 C 0.03744 0.71477 0.61368 0.0
C2126 C 0.02231 0.70802 0.6311 0.0
C2127 C 0.98913 0.63517 0.7142 0.0
C2128 C 0.97068 0.62886 0.71716 0.0
C2129 C 0.99711 0.62555 0.7249 0.0
C2130 C 0.98697 0.6092 0.73885 0.0
H2131 H 0.99775 0.6482 0.70506 0.0
H2132 H 0.0115 0.63139 0.72336 0.0
S2133 S 0.93772 0.58534 0.74848 0.0
N2134 N 0.9421 0.60391 0.73189 0.0
N2135 N 0.9572 0.58619 0.75268 0.0
C2136 C 0.96829 0.60197 0.73997 0.0
C2137 C 0.96013 0.61171 0.72894 0.0
C2138 C 0.39527 0.36592 0.72618 0.0
C2139 C 0.37977 0.3601 0.70904 0.0
C2140 C 0.40738 0.38446 0.73163 0.0
C2141 C 0.40465 0.39802 0.71999 0.0
H2142 H 0.39763 0.35613 0.73685 0.0
H2143 H 0.4184 0.3881 0.74647 0.0
S2144 S 0.36811 0.3902 0.66947 0.0
N2145 N 0.36362 0.36952 0.67753 0.0
N2146 N 0.38668 0.40442 0.68742 0.0
C2147 C 0.39001 0.39247 0.70107 0.0
C2148 C 0.37754 0.37352 0.69564 0.0
C2149 C 0.63812 0.00985 0.70756 0.0
C2150 C 0.63831 0.02049 0.68524 0.0
C2151 C 0.62374 0.00216 0.72552 0.0
C2152 C 0.60892 0.00473 0.72196 0.0
H2153 H 0.64914 0.00734 0.71123 0.0
H2154 H 0.62425 0.99411 0.7424 0.0
S2155 S 0.60261 0.03131 0.66692 0.0
N2156 N 0.62233 0.03331 0.66079 0.0
N2157 N 0.59516 0.01858 0.69452 0.0
C2158 C 0.60895 0.01549 0.70003 0.0
C2159 C 0.62366 0.02341 0.68167 0.0
loop_
_geom_bond_atom_site_label_1
_geom_bond_atom_site_label_2
_geom_bond_distance
_geom_bond_site_symmetry_2
_ccdc_geom_bond_type
Mg0 O1 2.028 1_556 S
Mg0 O7 1.983 1_456 S
Mg0 O9 2.114 . S
Mg0 O10 2.251 1_455 S
Mg0 O13 2.010 1_556 S
O1 Mg0 2.028 1_554 S
O1 C4 1.250 1_455 S
O2 Mg3 2.028 1_554 S
O2 C4 1.248 . S
Mg3 O2 2.028 1_556 S
Mg3 O8 2.032 . S
Mg3 O10 2.079 . S
C4 O1 1.250 1_655 S
C4 O2 1.248 . S
C5 O6 1.282 . S
C5 O13 1.249 . S
O6 C5 1.282 . S
O7 Mg0 1.983 1_654 S
O7 C11 1.242 1_554 S
O8 Mg3 2.032 . S
O8 C11 1.259 . S
O9 Mg0 2.114 . S
O9 C12 1.252 . S
O10 Mg0 2.251 1_655 S
O10 Mg3 2.079 . S
O10 C12 1.273 1_655 S
C11 O7 1.242 1_556 S
C11 O8 1.259 . S
C12 O9 1.252 . S
C12 O10 1.273 1_455 S
O13 Mg0 2.010 1_554 S
O13 C5 1.249 . S
Mg14 O15 2.028 1_554 S
Mg14 O21 1.986 . S
Mg14 O23 2.114 . S
Mg14 O24 2.251 . S
Mg14 O27 2.010 . S
O15 Mg14 2.028 1_556 S
O15 C18 1.250 . S
O16 Mg17 2.028 1_556 S
O16 C18 1.248 . S
Mg17 O16 2.028 1_554 S
Mg17 O22 2.032 . S
Mg17 O24 2.079 . S
C18 O15 1.250 . S
C18 O16 1.248 . S
C19 O20 1.264 . S
C19 O27 1.249 . S
O20 C19 1.264 . S
O21 Mg14 1.986 . S
O21 C25 1.246 . S
O22 Mg17 2.032 . S
O22 C25 1.259 . S
O23 Mg14 2.114 . S
O23 C26 1.252 . S
O24 Mg14 2.251 . S
O24 Mg17 2.079 . S
O24 C26 1.273 . S
C25 O21 1.246 . S
C25 O22 1.259 . S
C26 O23 1.252 . S
C26 O24 1.273 . S
O27 Mg14 2.010 . S
O27 C19 1.249 . S
Mg28 O29 2.021 1_556 S
Mg28 O35 1.986 1_566 S
Mg28 O37 2.114 . S
Mg28 O38 2.251 1_565 S
Mg28 O41 2.010 1_556 S
O29 Mg28 2.021 1_554 S
O29 C32 1.243 1_565 S
O30 Mg31 2.028 1_554 S
O30 C32 1.248 . S
Mg31 O30 2.028 1_556 S
Mg31 O36 2.032 . S
Mg31 O38 2.079 . S
C32 O29 1.243 1_545 S
C32 O30 1.248 . S
C33 O34 1.257 1_554 S
C33 O41 1.249 . S
O34 C33 1.257 1_556 S
O35 Mg28 1.986 1_544 S
O35 C39 1.246 1_554 S
O36 Mg31 2.032 . S
O36 C39 1.259 . S
O37 Mg28 2.114 . S
O37 C40 1.252 . S
O38 Mg28 2.251 1_545 S
O38 Mg31 2.079 . S
O38 C40 1.273 1_545 S
C39 O35 1.246 1_556 S
C39 O36 1.259 . S
C40 O37 1.252 . S
C40 O38 1.273 1_565 S
O41 Mg28 2.010 1_554 S
O41 C33 1.249 . S
Mg42 O43 2.028 1_554 S
Mg42 O49 1.986 1_655 S
Mg42 O51 2.114 . S
Mg42 O52 2.251 1_655 S
Mg42 O55 2.010 . S
O43 Mg42 2.028 1_556 S
O43 C46 1.250 1_655 S
O44 Mg45 2.028 1_556 S
O44 C46 1.248 . S
Mg45 O44 2.028 1_554 S
Mg45 O50 2.032 . S
Mg45 O52 2.079 . S
C46 O43 1.250 1_455 S
C46 O44 1.248 . S
C47 O48 1.264 . S
C47 O55 1.249 . S
O48 C47 1.264 . S
O49 Mg42 1.986 1_455 S
O49 C53 1.246 . S
O50 Mg45 2.032 . S
O50 C53 1.259 . S
O51 Mg42 2.114 . S
O51 C54 1.252 . S
O52 Mg42 2.251 1_455 S
O52 Mg45 2.079 . S
O52 C54 1.273 1_455 S
C53 O49 1.246 . S
C53 O50 1.259 . S
C54 O51 1.252 . S
C54 O52 1.273 1_655 S
O55 Mg42 2.010 . S
O55 C47 1.249 . S
Mg56 O57 2.010 1_556 S
Mg56 O63 1.984 1_556 S
Mg56 O65 2.123 . S
Mg56 O66 2.263 . S
Mg56 O69 2.004 1_556 S
O57 Mg56 2.010 1_554 S
O57 C60 1.250 . S
O58 Mg59 2.028 1_554 S
O58 C60 1.248 . S
Mg59 O58 2.028 1_556 S
Mg59 O64 2.032 . S
Mg59 O66 2.079 . S
C60 O57 1.250 . S
C60 O58 1.248 . S
C61 O62 1.264 . S
C61 O69 1.249 . S
O62 C61 1.264 . S
O63 Mg56 1.984 1_554 S
O63 C67 1.246 1_554 S
O64 Mg59 2.032 . S
O64 C67 1.259 . S
O65 Mg56 2.123 . S
O65 C68 1.252 . S
O66 Mg56 2.263 . S
O66 Mg59 2.079 . S
O66 C68 1.273 . S
C67 O63 1.246 1_556 S
C67 O64 1.259 . S
C68 O65 1.252 . S
C68 O66 1.273 . S
O69 Mg56 2.004 1_554 S
O69 C61 1.249 . S
Mg70 O71 2.028 1_554 S
Mg70 O77 1.986 1_545 S
Mg70 O79 2.114 . S
Mg70 O80 2.251 1_545 S
Mg70 O83 2.010 . S
O71 Mg70 2.028 1_556 S
O71 C74 1.250 1_545 S
O72 Mg73 2.028 1_556 S
O72 C74 1.248 . S
Mg73 O72 2.028 1_554 S
Mg73 O78 2.032 . S
Mg73 O80 2.079 . S
C74 O71 1.250 1_565 S
C74 O72 1.248 . S
C75 O76 1.264 . S
C75 O83 1.249 . S
O76 C75 1.264 . S
O77 Mg70 1.986 1_565 S
O77 C81 1.246 . S
O78 Mg73 2.032 . S
O78 C81 1.259 . S
O79 Mg70 2.114 . S
O79 C82 1.252 . S
O80 Mg70 2.251 1_565 S
O80 Mg73 2.079 . S
O80 C82 1.273 1_565 S
C81 O77 1.246 . S
C81 O78 1.259 . S
C82 O79 1.252 . S
C82 O80 1.273 1_545 S
O83 Mg70 2.010 . S
O83 C75 1.249 . S
Mg84 O85 2.028 . S
Mg84 O91 1.986 . S
Mg84 O93 2.114 . S
Mg84 O94 2.251 . S
Mg84 O97 2.010 . S
O85 Mg84 2.028 . S
O85 C88 1.250 . S
O86 Mg87 2.028 . S
O86 C88 1.248 . S
Mg87 O86 2.028 . S
Mg87 O92 2.032 . S
Mg87 O94 2.079 . S
C88 O85 1.250 . S
C88 O86 1.248 . S
C89 O90 1.264 . S
C89 O97 1.249 . S
O90 C89 1.264 . S
O91 Mg84 1.986 . S
O91 C95 1.246 . S
O92 Mg87 2.032 . S
O92 C95 1.259 . S
O93 Mg84 2.114 . S
O93 C96 1.252 . S
O94 Mg84 2.251 . S
O94 Mg87 2.079 . S
O94 C96 1.273 . S
C95 O91 1.246 . S
C95 O92 1.259 . S
C96 O93 1.252 . S
C96 O94 1.273 . S
O97 Mg84 2.010 . S
O97 C89 1.249 . S
Mg98 O99 2.028 . S
Mg98 O105 1.940 1_565 S
Mg98 O107 2.114 . S
Mg98 O108 2.251 . S
Mg98 O111 2.010 . S
O99 Mg98 2.028 . S
O99 C102 1.250 . S
O100 Mg101 2.028 . S
O100 C102 1.248 . S
Mg101 O100 2.028 . S
Mg101 O106 2.032 . S
Mg101 O108 2.079 . S
C102 O99 1.250 . S
C102 O100 1.248 . S
C103 O104 1.264 . S
C103 O111 1.249 . S
O104 C103 1.264 . S
O105 Mg98 1.940 1_545 S
O105 C109 1.282 . S
O106 Mg101 2.032 . S
O106 C109 1.259 1_565 S
O107 Mg98 2.114 . S
O107 C110 1.252 . S
O108 Mg98 2.251 . S
O108 Mg101 2.079 . S
O108 C110 1.273 . S
C109 O105 1.282 . S
C109 O106 1.259 1_545 S
C110 O107 1.252 . S
C110 O108 1.273 . S
O111 Mg98 2.010 . S
O111 C103 1.249 . S
Mg112 O113 2.028 . S
Mg112 O119 1.986 . S
Mg112 O121 2.114 . S
Mg112 O122 2.251 . S
Mg112 O125 2.010 1_455 S
O113 Mg112 2.028 . S
O113 C116 1.250 . S
O114 Mg115 2.028 . S
O114 C116 1.248 . S
Mg115 O114 2.028 . S
Mg115 O120 2.032 . S
Mg115 O122 2.079 . S
C116 O113 1.250 . S
C116 O114 1.248 . S
C117 O118 1.264 . S
C117 O125 1.249 . S
O118 C117 1.264 . S
O119 Mg112 1.986 . S
O119 C123 1.246 . S
O120 Mg115 2.032 . S
O120 C123 1.259 . S
O121 Mg112 2.114 . S
O121 C124 1.252 . S
O122 Mg112 2.251 . S
O122 Mg115 2.079 . S
O122 C124 1.273 . S
C123 O119 1.246 . S
C123 O120 1.259 . S
C124 O121 1.252 . S
C124 O122 1.273 . S
O125 Mg112 2.010 1_655 S
O125 C117 1.249 . S
Mg126 O127 2.028 . S
Mg126 O133 1.986 . S
Mg126 O135 2.114 . S
Mg126 O136 2.251 . S
Mg126 O139 2.010 . S
O127 Mg126 2.028 . S
O127 C130 1.250 . S
O128 Mg129 2.028 . S
O128 C130 1.248 . S
Mg129 O128 2.028 . S
Mg129 O134 2.032 . S
Mg129 O136 2.079 . S
C130 O127 1.250 . S
C130 O128 1.248 . S
C131 O132 1.264 . S
C131 O139 1.249 . S
O132 C131 1.264 . S
O133 Mg126 1.986 . S
O133 C137 1.246 1_565 S
O134 Mg129 2.032 . S
O134 C137 1.259 1_565 S
O135 Mg126 2.114 . S
O135 C138 1.252 . S
O136 Mg126 2.251 . S
O136 Mg129 2.079 . S
O136 C138 1.273 . S
C137 O133 1.246 1_545 S
C137 O134 1.259 1_545 S
C138 O135 1.252 . S
C138 O136 1.273 . S
O139 Mg126 2.010 . S
O139 C131 1.249 . S
Mg140 O141 2.028 . S
Mg140 O147 1.986 . S
Mg140 O149 2.114 . S
Mg140 O150 2.251 . S
Mg140 O153 1.967 1_455 S
O141 Mg140 2.028 . S
O141 C144 1.250 . S
O142 Mg143 2.028 . S
O142 C144 1.248 . S
Mg143 O142 2.028 . S
Mg143 O148 2.032 . S
Mg143 O150 2.079 . S
C144 O141 1.250 . S
C144 O142 1.248 . S
C145 O146 1.264 . S
C145 O153 1.294 . S
O146 C145 1.264 . S
O147 Mg140 1.986 . S
O147 C151 1.246 . S
O148 Mg143 2.032 . S
O148 C151 1.259 . S
O149 Mg140 2.114 . S
O149 C152 1.252 . S
O150 Mg140 2.251 . S
O150 Mg143 2.079 . S
O150 C152 1.273 . S
C151 O147 1.246 . S
C151 O148 1.259 . S
C152 O149 1.252 . S
C152 O150 1.273 . S
O153 Mg140 1.967 1_655 S
O153 C145 1.294 . S
Mg154 O155 2.028 . S
Mg154 O161 1.986 . S
Mg154 O163 2.114 . S
Mg154 O164 2.251 . S
Mg154 O167 2.010 . S
O155 Mg154 2.028 . S
O155 C158 1.250 . S
O156 Mg157 2.028 . S
O156 C158 1.248 . S
Mg157 O156 2.028 . S
Mg157 O162 2.032 . S
Mg157 O164 2.079 . S
C158 O155 1.250 . S
C158 O156 1.248 . S
C159 O160 1.264 . S
C159 O167 1.249 . S
O160 C159 1.264 . S
O161 Mg154 1.986 . S
O161 C165 1.246 . S
O162 Mg157 2.032 . S
O162 C165 1.259 . S
O163 Mg154 2.114 . S
O163 C166 1.252 . S
O164 Mg154 2.251 . S
O164 Mg157 2.079 . S
O164 C166 1.273 . S
C165 O161 1.246 . S
C165 O162 1.259 . S
C166 O163 1.252 . S
C166 O164 1.273 . S
O167 Mg154 2.010 . S
O167 C159 1.249 . S
Mg168 O169 2.028 . S
Mg168 O175 1.986 . S
Mg168 O177 2.114 . S
Mg168 O178 2.251 . S
Mg168 O181 2.010 . S
O169 Mg168 2.028 . S
O169 C172 1.250 . S
O170 Mg171 2.028 . S
O170 C172 1.248 . S
Mg171 O170 2.028 . S
Mg171 O176 2.032 . S
Mg171 O178 2.079 . S
C172 O169 1.250 . S
C172 O170 1.248 . S
C173 O174 1.264 . S
C173 O181 1.249 . S
O174 C173 1.264 . S
O175 Mg168 1.986 . S
O175 C179 1.246 1_545 S
O176 Mg171 2.032 . S
O176 C179 1.259 1_545 S
O177 Mg168 2.114 . S
O177 C180 1.252 . S
O178 Mg168 2.251 . S
O178 Mg171 2.079 . S
O178 C180 1.273 . S
C179 O175 1.246 1_565 S
C179 O176 1.259 1_565 S
C180 O177 1.252 . S
C180 O178 1.273 . S
O181 Mg168 2.010 . S
O181 C173 1.249 . S
Mg182 O183 2.028 . S
Mg182 O189 1.986 . S
Mg182 O191 2.114 . S
Mg182 O192 2.251 . S
Mg182 O195 2.010 1_655 S
O183 Mg182 2.028 . S
O183 C186 1.250 . S
O184 Mg185 2.028 . S
O184 C186 1.248 . S
Mg185 O184 2.028 . S
Mg185 O190 2.032 . S
Mg185 O192 2.079 . S
C186 O183 1.250 . S
C186 O184 1.248 . S
C187 O188 1.264 . S
C187 O195 1.249 . S
O188 C187 1.264 . S
O189 Mg182 1.986 . S
O189 C193 1.246 . S
O190 Mg185 2.032 . S
O190 C193 1.259 . S
O191 Mg182 2.114 . S
O191 C194 1.252 . S
O192 Mg182 2.251 . S
O192 Mg185 2.079 . S
O192 C194 1.273 . S
C193 O189 1.246 . S
C193 O190 1.259 . S
C194 O191 1.252 . S
C194 O192 1.273 . S
O195 Mg182 2.010 1_455 S
O195 C187 1.249 . S
Mg196 O197 2.028 . S
Mg196 O203 1.986 . S
Mg196 O205 2.114 . S
Mg196 O206 2.251 . S
Mg196 O209 2.010 . S
O197 Mg196 2.028 . S
O197 C200 1.250 . S
O198 Mg199 2.028 . S
O198 C200 1.248 . S
Mg199 O198 2.028 . S
Mg199 O204 2.032 . S
Mg199 O206 2.079 . S
C200 O197 1.250 . S
C200 O198 1.248 . S
C201 O202 1.264 . S
C201 O209 1.249 . S
O202 C201 1.264 . S
O203 Mg196 1.986 . S
O203 C207 1.246 . S
O204 Mg199 2.032 . S
O204 C207 1.259 . S
O205 Mg196 2.114 . S
O205 C208 1.252 . S
O206 Mg196 2.251 . S
O206 Mg199 2.079 . S
O206 C208 1.273 . S
C207 O203 1.246 . S
C207 O204 1.259 . S
C208 O205 1.252 . S
C208 O206 1.273 . S
O209 Mg196 2.010 . S
O209 C201 1.249 . S
Mg210 O211 2.028 . S
Mg210 O217 1.986 . S
Mg210 O219 2.114 . S
Mg210 O220 2.251 . S
Mg210 O223 2.010 . S
O211 Mg210 2.028 . S
O211 C214 1.250 . S
O212 Mg213 2.028 . S
O212 C214 1.248 . S
Mg213 O212 2.028 . S
Mg213 O218 2.032 . S
Mg213 O220 2.079 . S
C214 O211 1.250 . S
C214 O212 1.248 . S
C215 O216 1.264 . S
C215 O223 1.249 . S
O216 C215 1.264 . S
O217 Mg210 1.986 . S
O217 C221 1.246 . S
O218 Mg213 2.032 . S
O218 C221 1.259 . S
O219 Mg210 2.114 . S
O219 C222 1.252 . S
O220 Mg210 2.251 . S
O220 Mg213 2.079 . S
O220 C222 1.273 . S
C221 O217 1.246 . S
C221 O218 1.259 . S
C222 O219 1.252 . S
C222 O220 1.273 . S
O223 Mg210 2.010 . S
O223 C215 1.249 . S
Mg224 O225 2.028 . S
Mg224 O231 1.986 . S
Mg224 O233 2.114 . S
Mg224 O234 2.251 . S
Mg224 O237 2.010 . S
O225 Mg224 2.028 . S
O225 C228 1.250 . S
O226 Mg227 2.028 . S
O226 C228 1.248 . S
Mg227 O226 2.028 . S
Mg227 O232 2.032 . S
Mg227 O234 2.079 . S
C228 O225 1.250 . S
C228 O226 1.248 . S
C229 O230 1.264 . S
C229 O237 1.249 . S
O230 C229 1.264 . S
O231 Mg224 1.986 . S
O231 C235 1.246 1_545 S
O232 Mg227 2.032 . S
O232 C235 1.259 1_545 S
O233 Mg224 2.114 . S
O233 C236 1.252 . S
O234 Mg224 2.251 . S
O234 Mg227 2.079 . S
O234 C236 1.273 . S
C235 O231 1.246 1_565 S
C235 O232 1.259 1_565 S
C236 O233 1.252 . S
C236 O234 1.273 . S
O237 Mg224 2.010 . S
O237 C229 1.249 . S
Mg238 O239 2.028 . S
Mg238 O245 1.986 . S
Mg238 O247 2.114 . S
Mg238 O248 2.251 . S
Mg238 O251 2.010 1_655 S
O239 Mg238 2.028 . S
O239 C242 1.250 . S
O240 Mg241 2.028 . S
O240 C242 1.248 . S
Mg241 O240 2.028 . S
Mg241 O246 2.032 . S
Mg241 O248 2.079 . S
C242 O239 1.250 . S
C242 O240 1.248 . S
C243 O244 1.264 . S
C243 O251 1.249 . S
O244 C243 1.264 . S
O245 Mg238 1.986 . S
O245 C249 1.246 . S
O246 Mg241 2.032 . S
O246 C249 1.259 . S
O247 Mg238 2.114 . S
O247 C250 1.252 . S
O248 Mg238 2.251 . S
O248 Mg241 2.079 . S
O248 C250 1.273 . S
C249 O245 1.246 . S
C249 O246 1.259 . S
C250 O247 1.252 . S
C250 O248 1.273 . S
O251 Mg238 2.010 1_455 S
O251 C243 1.249 . S
H252 C279 0.929 . S
N253 C278 1.433 . S
N253 C284 1.435 . S
N253 C290 1.423 . S
H254 C280 0.930 . S
H255 C283 0.931 . S
H256 C282 0.929 . S
H257 C285 0.930 . S
H258 C286 0.932 . S
H259 C289 0.929 . S
H260 C288 0.931 . S
H261 C291 0.929 . S
H262 C295 0.932 . S
H263 C292 0.931 . S
H264 C294 0.929 . S
H265 C297 0.929 . S
H266 C298 0.930 . S
H267 C300 0.929 . S
H268 C301 0.931 . S
H269 C303 0.930 . S
H270 C304 0.932 . S
H271 C306 0.931 . S
H272 C307 0.929 . S
H273 C309 0.929 . S
H274 C310 0.931 . S
H275 C312 0.929 . S
N276 C296 1.433 . S
N276 C302 1.435 . S
N276 C308 1.423 . S
H277 C313 0.932 . S
C278 N253 1.433 . S
C278 C279 1.363 . S
C278 C283 1.370 . S
C279 H252 0.929 . S
C279 C278 1.363 . S
C279 C280 1.385 . S
C280 H254 0.930 . S
C280 C279 1.385 . S
C280 C281 1.357 . S
C281 C280 1.357 . S
C281 C282 1.406 . S
C282 H256 0.929 . S
C282 C281 1.406 . S
C282 C283 1.391 . S
C283 H255 0.931 . S
C283 C278 1.370 . S
C283 C282 1.391 . S
C284 N253 1.435 . S
C284 C285 1.358 . S
C284 C289 1.371 . S
C285 H257 0.930 . S
C285 C284 1.358 . S
C285 C286 1.405 . S
C286 H258 0.932 . S
C286 C285 1.405 . S
C286 C287 1.383 . S
C287 C286 1.383 . S
C287 C288 1.393 . S
C288 H260 0.931 . S
C288 C287 1.393 . S
C288 C289 1.382 . S
C289 H259 0.929 . S
C289 C284 1.371 . S
C289 C288 1.382 . S
C290 N253 1.423 . S
C290 C291 1.362 . S
C290 C295 1.388 . S
C291 H261 0.929 . S
C291 C290 1.362 . S
C291 C292 1.376 . S
C292 H263 0.931 . S
C292 C291 1.376 . S
C292 C293 1.396 . S
C293 C292 1.396 . S
C293 C294 1.348 . S
C293 C311 1.472 . S
C294 H264 0.929 . S
C294 C293 1.348 . S
C294 C295 1.443 . S
C295 H262 0.932 . S
C295 C290 1.388 . S
C295 C294 1.443 . S
C296 N276 1.433 . S
C296 C297 1.363 . S
C296 C301 1.370 . S
C297 H265 0.929 . S
C297 C296 1.363 . S
C297 C298 1.385 . S
C298 H266 0.930 . S
C298 C297 1.385 . S
C298 C299 1.357 . S
C299 C298 1.357 . S
C299 C300 1.406 . S
C300 H267 0.929 . S
C300 C299 1.406 . S
C300 C301 1.391 . S
C301 H268 0.931 . S
C301 C296 1.370 . S
C301 C300 1.391 . S
C302 N276 1.435 . S
C302 C303 1.358 . S
C302 C307 1.371 . S
C303 H269 0.930 . S
C303 C302 1.358 . S
C303 C304 1.405 . S
C304 H270 0.932 . S
C304 C303 1.405 . S
C304 C305 1.383 . S
C305 C304 1.383 . S
C305 C306 1.393 . S
C306 H271 0.931 . S
C306 C305 1.393 . S
C306 C307 1.382 . S
C307 H272 0.929 . S
C307 C302 1.371 . S
C307 C306 1.382 . S
C308 N276 1.423 . S
C308 C309 1.362 . S
C308 C313 1.388 . S
C309 H273 0.929 . S
C309 C308 1.362 . S
C309 C310 1.376 . S
C310 H274 0.931 . S
C310 C309 1.376 . S
C310 C311 1.396 . S
C311 C293 1.472 . S
C311 C310 1.396 . S
C311 C312 1.348 . S
C312 H275 0.929 . S
C312 C311 1.348 . S
C312 C313 1.443 . S
C313 H277 0.932 . S
C313 C308 1.388 . S
C313 C312 1.443 . S
H314 C341 0.929 . S
N315 C340 1.433 . S
N315 C346 1.435 . S
N315 C352 1.423 . S
H316 C342 0.930 . S
H317 C345 0.931 . S
H318 C344 0.929 . S
H319 C347 0.930 . S
H320 C348 0.932 . S
H321 C351 0.929 . S
H322 C350 0.931 . S
H323 C353 0.929 . S
H324 C357 0.932 . S
H325 C354 0.931 . S
H326 C356 0.929 . S
H327 C359 0.929 . S
H328 C360 0.930 . S
H329 C362 0.929 . S
H330 C363 0.931 . S
H331 C365 0.930 . S
H332 C366 0.932 . S
H333 C368 0.931 . S
H334 C369 0.929 . S
H335 C371 0.929 . S
H336 C372 0.931 . S
H337 C374 0.929 . S
N338 C358 1.433 . S
N338 C364 1.435 . S
N338 C370 1.423 . S
H339 C375 0.932 . S
C340 N315 1.433 . S
C340 C341 1.363 . S
C340 C345 1.370 . S
C341 H314 0.929 . S
C341 C340 1.363 . S
C341 C342 1.385 . S
C342 H316 0.930 . S
C342 C341 1.385 . S
C342 C343 1.357 . S
C343 C342 1.357 . S
C343 C344 1.406 . S
C344 H318 0.929 . S
C344 C343 1.406 . S
C344 C345 1.391 . S
C345 H317 0.931 . S
C345 C340 1.370 . S
C345 C344 1.391 . S
C346 N315 1.435 . S
C346 C347 1.358 . S
C346 C351 1.371 . S
C347 H319 0.930 . S
C347 C346 1.358 . S
C347 C348 1.405 . S
C348 H320 0.932 . S
C348 C347 1.405 . S
C348 C349 1.383 . S
C349 C348 1.383 . S
C349 C350 1.393 . S
C350 H322 0.931 . S
C350 C349 1.393 . S
C350 C351 1.382 . S
C351 H321 0.929 . S
C351 C346 1.371 . S
C351 C350 1.382 . S
C352 N315 1.423 . S
C352 C353 1.362 . S
C352 C357 1.388 . S
C353 H323 0.929 . S
C353 C352 1.362 . S
C353 C354 1.376 . S
C354 H325 0.931 . S
C354 C353 1.376 . S
C354 C355 1.396 . S
C355 C354 1.396 . S
C355 C356 1.348 . S
C355 C373 1.472 . S
C356 H326 0.929 . S
C356 C355 1.348 . S
C356 C357 1.443 . S
C357 H324 0.932 . S
C357 C352 1.388 . S
C357 C356 1.443 . S
C358 N338 1.433 . S
C358 C359 1.363 . S
C358 C363 1.370 . S
C359 H327 0.929 . S
C359 C358 1.363 . S
C359 C360 1.385 . S
C360 H328 0.930 . S
C360 C359 1.385 . S
C360 C361 1.357 . S
C361 C360 1.357 . S
C361 C362 1.406 . S
C362 H329 0.929 . S
C362 C361 1.406 . S
C362 C363 1.391 . S
C363 H330 0.931 . S
C363 C358 1.370 . S
C363 C362 1.391 . S
C364 N338 1.435 . S
C364 C365 1.358 . S
C364 C369 1.371 . S
C365 H331 0.930 . S
C365 C364 1.358 . S
C365 C366 1.405 . S
C366 H332 0.932 . S
C366 C365 1.405 . S
C366 C367 1.383 . S
C367 C366 1.383 . S
C367 C368 1.393 . S
C368 H333 0.931 . S
C368 C367 1.393 . S
C368 C369 1.382 . S
C369 H334 0.929 . S
C369 C364 1.371 . S
C369 C368 1.382 . S
C370 N338 1.423 . S
C370 C371 1.362 . S
C370 C375 1.388 . S
C371 H335 0.929 . S
C371 C370 1.362 . S
C371 C372 1.376 . S
C372 H336 0.931 . S
C372 C371 1.376 . S
C372 C373 1.396 . S
C373 C355 1.472 . S
C373 C372 1.396 . S
C373 C374 1.348 . S
C374 H337 0.929 . S
C374 C373 1.348 . S
C374 C375 1.443 . S
C375 H339 0.932 . S
C375 C370 1.388 . S
C375 C374 1.443 . S
H376 C403 0.929 . S
N377 C402 1.433 . S
N377 C408 1.435 . S
N377 C414 1.423 . S
H378 C404 0.930 . S
H379 C407 0.931 . S
H380 C406 0.929 . S
H381 C409 0.930 . S
H382 C410 0.932 . S
H383 C413 0.929 . S
H384 C412 0.931 . S
H385 C415 0.929 . S
H386 C419 0.932 . S
H387 C416 0.931 . S
H388 C418 0.929 . S
H389 C421 0.929 . S
H390 C422 0.930 . S
H391 C424 0.929 . S
H392 C425 0.931 . S
H393 C427 0.930 . S
H394 C428 0.932 . S
H395 C430 0.931 . S
H396 C431 0.929 . S
H397 C433 0.929 . S
H398 C434 0.931 . S
H399 C436 0.929 . S
N400 C420 1.433 . S
N400 C426 1.435 . S
N400 C432 1.423 . S
H401 C437 0.932 . S
C402 N377 1.433 . S
C402 C403 1.363 . S
C402 C407 1.370 . S
C403 H376 0.929 . S
C403 C402 1.363 . S
C403 C404 1.385 . S
C404 H378 0.930 . S
C404 C403 1.385 . S
C404 C405 1.357 . S
C405 C404 1.357 . S
C405 C406 1.406 . S
C406 H380 0.929 . S
C406 C405 1.406 . S
C406 C407 1.391 . S
C407 H379 0.931 . S
C407 C402 1.370 . S
C407 C406 1.391 . S
C408 N377 1.435 . S
C408 C409 1.358 . S
C408 C413 1.371 . S
C409 H381 0.930 . S
C409 C408 1.358 . S
C409 C410 1.405 . S
C410 H382 0.932 . S
C410 C409 1.405 . S
C410 C411 1.383 . S
C411 C410 1.383 . S
C411 C412 1.393 . S
C412 H384 0.931 . S
C412 C411 1.393 . S
C412 C413 1.382 . S
C413 H383 0.929 . S
C413 C408 1.371 . S
C413 C412 1.382 . S
C414 N377 1.423 . S
C414 C415 1.362 . S
C414 C419 1.388 . S
C415 H385 0.929 . S
C415 C414 1.362 . S
C415 C416 1.376 . S
C416 H387 0.931 . S
C416 C415 1.376 . S
C416 C417 1.396 . S
C417 C416 1.396 . S
C417 C418 1.348 . S
C417 C435 1.472 . S
C418 H388 0.929 . S
C418 C417 1.348 . S
C418 C419 1.443 . S
C419 H386 0.932 . S
C419 C414 1.388 . S
C419 C418 1.443 . S
C420 N400 1.433 . S
C420 C421 1.363 . S
C420 C425 1.370 . S
C421 H389 0.929 . S
C421 C420 1.363 . S
C421 C422 1.385 . S
C422 H390 0.930 . S
C422 C421 1.385 . S
C422 C423 1.357 . S
C423 C422 1.357 . S
C423 C424 1.406 . S
C424 H391 0.929 . S
C424 C423 1.406 . S
C424 C425 1.391 . S
C425 H392 0.931 . S
C425 C420 1.370 . S
C425 C424 1.391 . S
C426 N400 1.435 . S
C426 C427 1.358 . S
C426 C431 1.371 . S
C427 H393 0.930 . S
C427 C426 1.358 . S
C427 C428 1.405 . S
C428 H394 0.932 . S
C428 C427 1.405 . S
C428 C429 1.383 . S
C429 C428 1.383 . S
C429 C430 1.393 . S
C430 H395 0.931 . S
C430 C429 1.393 . S
C430 C431 1.382 . S
C431 H396 0.929 . S
C431 C426 1.371 . S
C431 C430 1.382 . S
C432 N400 1.423 . S
C432 C433 1.362 . S
C432 C437 1.388 . S
C433 H397 0.929 . S
C433 C432 1.362 . S
C433 C434 1.376 . S
C434 H398 0.931 . S
C434 C433 1.376 . S
C434 C435 1.396 . S
C435 C417 1.472 . S
C435 C434 1.396 . S
C435 C436 1.348 . S
C436 H399 0.929 . S
C436 C435 1.348 . S
C436 C437 1.443 . S
C437 H401 0.932 . S
C437 C432 1.388 . S
C437 C436 1.443 . S
H438 C465 0.929 . S
N439 C464 1.433 . S
N439 C470 1.435 . S
N439 C476 1.423 . S
H440 C466 0.930 . S
H441 C469 0.931 . S
H442 C468 0.929 . S
H443 C471 0.930 . S
H444 C472 0.932 . S
H445 C475 0.929 . S
H446 C474 0.931 . S
H447 C477 0.929 . S
H448 C481 0.932 . S
H449 C478 0.931 . S
H450 C480 0.929 . S
H451 C483 0.929 . S
H452 C484 0.930 . S
H453 C486 0.929 . S
H454 C487 0.931 . S
H455 C489 0.930 . S
H456 C490 0.932 . S
H457 C492 0.931 . S
H458 C493 0.929 . S
H459 C495 0.929 . S
H460 C496 0.931 . S
H461 C498 0.929 . S
N462 C482 1.433 . S
N462 C488 1.435 . S
N462 C494 1.423 . S
H463 C499 0.932 . S
C464 N439 1.433 . S
C464 C465 1.363 . S
C464 C469 1.370 . S
C465 H438 0.929 . S
C465 C464 1.363 . S
C465 C466 1.385 . S
C466 H440 0.930 . S
C466 C465 1.385 . S
C466 C467 1.357 . S
C467 C466 1.357 . S
C467 C468 1.406 . S
C468 H442 0.929 . S
C468 C467 1.406 . S
C468 C469 1.391 . S
C469 H441 0.931 . S
C469 C464 1.370 . S
C469 C468 1.391 . S
C470 N439 1.435 . S
C470 C471 1.358 . S
C470 C475 1.371 . S
C471 H443 0.930 . S
C471 C470 1.358 . S
C471 C472 1.405 . S
C472 H444 0.932 . S
C472 C471 1.405 . S
C472 C473 1.383 . S
C473 C472 1.383 . S
C473 C474 1.393 . S
C474 H446 0.931 . S
C474 C473 1.393 . S
C474 C475 1.382 . S
C475 H445 0.929 . S
C475 C470 1.371 . S
C475 C474 1.382 . S
C476 N439 1.423 . S
C476 C477 1.362 . S
C476 C481 1.388 . S
C477 H447 0.929 . S
C477 C476 1.362 . S
C477 C478 1.376 . S
C478 H449 0.931 . S
C478 C477 1.376 . S
C478 C479 1.396 . S
C479 C478 1.396 . S
C479 C480 1.348 . S
C479 C497 1.472 . S
C480 H450 0.929 . S
C480 C479 1.348 . S
C480 C481 1.443 . S
C481 H448 0.932 . S
C481 C476 1.388 . S
C481 C480 1.443 . S
C482 N462 1.433 . S
C482 C483 1.363 . S
C482 C487 1.370 . S
C483 H451 0.929 . S
C483 C482 1.363 . S
C483 C484 1.385 . S
C484 H452 0.930 . S
C484 C483 1.385 . S
C484 C485 1.357 . S
C485 C484 1.357 . S
C485 C486 1.406 . S
C486 H453 0.929 . S
C486 C485 1.406 . S
C486 C487 1.391 . S
C487 H454 0.931 . S
C487 C482 1.370 . S
C487 C486 1.391 . S
C488 N462 1.435 . S
C488 C489 1.358 . S
C488 C493 1.371 . S
C489 H455 0.930 . S
C489 C488 1.358 . S
C489 C490 1.405 . S
C490 H456 0.932 . S
C490 C489 1.405 . S
C490 C491 1.383 . S
C491 C490 1.383 . S
C491 C492 1.393 . S
C492 H457 0.931 . S
C492 C491 1.393 . S
C492 C493 1.382 . S
C493 H458 0.929 . S
C493 C488 1.371 . S
C493 C492 1.382 . S
C494 N462 1.423 . S
C494 C495 1.362 . S
C494 C499 1.388 . S
C495 H459 0.929 . S
C495 C494 1.362 . S
C495 C496 1.376 . S
C496 H460 0.931 . S
C496 C495 1.376 . S
C496 C497 1.396 . S
C497 C479 1.472 . S
C497 C496 1.396 . S
C497 C498 1.348 . S
C498 H461 0.929 . S
C498 C497 1.348 . S
C498 C499 1.443 . S
C499 H463 0.932 . S
C499 C494 1.388 . S
C499 C498 1.443 . S
H500 C527 0.929 . S
N501 C526 1.433 . S
N501 C532 1.435 . S
N501 C538 1.423 . S
H502 C528 0.930 . S
H503 C531 0.931 . S
H504 C530 0.929 . S
H505 C533 0.930 . S
H506 C534 0.932 . S
H507 C537 0.929 . S
H508 C536 0.931 . S
H509 C539 0.929 . S
H510 C543 0.932 . S
H511 C540 0.931 . S
H512 C542 0.929 . S
H513 C545 0.929 . S
H514 C546 0.930 . S
H515 C548 0.929 . S
H516 C549 0.931 . S
H517 C551 0.930 . S
H518 C552 0.932 . S
H519 C554 0.931 . S
H520 C555 0.929 . S
H521 C557 0.929 . S
H522 C558 0.931 . S
H523 C560 0.929 . S
N524 C544 1.433 . S
N524 C550 1.435 . S
N524 C556 1.423 . S
H525 C561 0.932 . S
C526 N501 1.433 . S
C526 C527 1.363 . S
C526 C531 1.370 . S
C527 H500 0.929 . S
C527 C526 1.363 . S
C527 C528 1.385 . S
C528 H502 0.930 . S
C528 C527 1.385 . S
C528 C529 1.357 . S
C529 C528 1.357 . S
C529 C530 1.406 . S
C530 H504 0.929 . S
C530 C529 1.406 . S
C530 C531 1.391 . S
C531 H503 0.931 . S
C531 C526 1.370 . S
C531 C530 1.391 . S
C532 N501 1.435 . S
C532 C533 1.358 . S
C532 C537 1.371 . S
C533 H505 0.930 . S
C533 C532 1.358 . S
C533 C534 1.405 . S
C534 H506 0.932 . S
C534 C533 1.405 . S
C534 C535 1.383 . S
C535 C534 1.383 . S
C535 C536 1.393 . S
C536 H508 0.931 . S
C536 C535 1.393 . S
C536 C537 1.382 . S
C537 H507 0.929 . S
C537 C532 1.371 . S
C537 C536 1.382 . S
C538 N501 1.423 . S
C538 C539 1.362 . S
C538 C543 1.388 . S
C539 H509 0.929 . S
C539 C538 1.362 . S
C539 C540 1.376 . S
C540 H511 0.931 . S
C540 C539 1.376 . S
C540 C541 1.396 . S
C541 C540 1.396 . S
C541 C542 1.348 . S
C541 C559 1.472 . S
C542 H512 0.929 . S
C542 C541 1.348 . S
C542 C543 1.443 . S
C543 H510 0.932 . S
C543 C538 1.388 . S
C543 C542 1.443 . S
C544 N524 1.433 . S
C544 C545 1.363 . S
C544 C549 1.370 . S
C545 H513 0.929 . S
C545 C544 1.363 . S
C545 C546 1.385 . S
C546 H514 0.930 . S
C546 C545 1.385 . S
C546 C547 1.357 . S
C547 C546 1.357 . S
C547 C548 1.406 . S
C548 H515 0.929 . S
C548 C547 1.406 . S
C548 C549 1.391 . S
C549 H516 0.931 . S
C549 C544 1.370 . S
C549 C548 1.391 . S
C550 N524 1.435 . S
C550 C551 1.358 . S
C550 C555 1.371 . S
C551 H517 0.930 . S
C551 C550 1.358 . S
C551 C552 1.405 . S
C552 H518 0.932 . S
C552 C551 1.405 . S
C552 C553 1.383 . S
C553 C552 1.383 . S
C553 C554 1.393 . S
C554 H519 0.931 . S
C554 C553 1.393 . S
C554 C555 1.382 . S
C555 H520 0.929 . S
C555 C550 1.371 . S
C555 C554 1.382 . S
C556 N524 1.423 . S
C556 C557 1.362 . S
C556 C561 1.388 . S
C557 H521 0.929 . S
C557 C556 1.362 . S
C557 C558 1.376 . S
C558 H522 0.931 . S
C558 C557 1.376 . S
C558 C559 1.396 . S
C559 C541 1.472 . S
C559 C558 1.396 . S
C559 C560 1.348 . S
C560 H523 0.929 . S
C560 C559 1.348 . S
C560 C561 1.443 . S
C561 H525 0.932 . S
C561 C556 1.388 . S
C561 C560 1.443 . S
H562 C589 0.929 . S
N563 C588 1.433 . S
N563 C594 1.435 . S
N563 C600 1.423 . S
H564 C590 0.930 . S
H565 C593 0.931 . S
H566 C592 0.929 . S
H567 C595 0.930 . S
H568 C596 0.932 . S
H569 C599 0.929 . S
H570 C598 0.931 . S
H571 C601 0.929 . S
H572 C605 0.932 . S
H573 C602 0.931 . S
H574 C604 0.929 . S
H575 C607 0.929 . S
H576 C608 0.930 . S
H577 C610 0.929 . S
H578 C611 0.931 . S
H579 C613 0.930 . S
H580 C614 0.932 . S
H581 C616 0.931 . S
H582 C617 0.929 . S
H583 C619 0.929 . S
H584 C620 0.931 . S
H585 C622 0.929 . S
N586 C606 1.433 . S
N586 C612 1.435 . S
N586 C618 1.423 . S
H587 C623 0.932 . S
C588 N563 1.433 . S
C588 C589 1.363 . S
C588 C593 1.370 . S
C589 H562 0.929 . S
C589 C588 1.363 . S
C589 C590 1.385 . S
C590 H564 0.930 . S
C590 C589 1.385 . S
C590 C591 1.357 . S
C591 C590 1.357 . S
C591 C592 1.406 . S
C592 H566 0.929 . S
C592 C591 1.406 . S
C592 C593 1.391 . S
C593 H565 0.931 . S
C593 C588 1.370 . S
C593 C592 1.391 . S
C594 N563 1.435 . S
C594 C595 1.358 . S
C594 C599 1.371 . S
C595 H567 0.930 . S
C595 C594 1.358 . S
C595 C596 1.405 . S
C596 H568 0.932 . S
C596 C595 1.405 . S
C596 C597 1.383 . S
C597 C596 1.383 . S
C597 C598 1.393 . S
C598 H570 0.931 . S
C598 C597 1.393 . S
C598 C599 1.382 . S
C599 H569 0.929 . S
C599 C594 1.371 . S
C599 C598 1.382 . S
C600 N563 1.423 . S
C600 C601 1.362 . S
C600 C605 1.388 . S
C601 H571 0.929 . S
C601 C600 1.362 . S
C601 C602 1.376 . S
C602 H573 0.931 . S
C602 C601 1.376 . S
C602 C603 1.396 . S
C603 C602 1.396 . S
C603 C604 1.348 . S
C603 C621 1.472 . S
C604 H574 0.929 . S
C604 C603 1.348 . S
C604 C605 1.443 . S
C605 H572 0.932 . S
C605 C600 1.388 . S
C605 C604 1.443 . S
C606 N586 1.433 . S
C606 C607 1.363 . S
C606 C611 1.370 . S
C607 H575 0.929 . S
C607 C606 1.363 . S
C607 C608 1.385 . S
C608 H576 0.930 . S
C608 C607 1.385 . S
C608 C609 1.357 . S
C609 C608 1.357 . S
C609 C610 1.406 . S
C610 H577 0.929 . S
C610 C609 1.406 . S
C610 C611 1.391 . S
C611 H578 0.931 . S
C611 C606 1.370 . S
C611 C610 1.391 . S
C612 N586 1.435 . S
C612 C613 1.358 . S
C612 C617 1.371 . S
C613 H579 0.930 . S
C613 C612 1.358 . S
C613 C614 1.405 . S
C614 H580 0.932 . S
C614 C613 1.405 . S
C614 C615 1.383 . S
C615 C614 1.383 . S
C615 C616 1.393 . S
C616 H581 0.931 . S
C616 C615 1.393 . S
C616 C617 1.382 . S
C617 H582 0.929 . S
C617 C612 1.371 . S
C617 C616 1.382 . S
C618 N586 1.423 . S
C618 C619 1.362 . S
C618 C623 1.388 . S
C619 H583 0.929 . S
C619 C618 1.362 . S
C619 C620 1.376 . S
C620 H584 0.931 . S
C620 C619 1.376 . S
C620 C621 1.396 . S
C621 C603 1.472 . S
C621 C620 1.396 . S
C621 C622 1.348 . S
C622 H585 0.929 . S
C622 C621 1.348 . S
C622 C623 1.443 . S
C623 H587 0.932 . S
C623 C618 1.388 . S
C623 C622 1.443 . S
H624 C651 0.929 . S
N625 C650 1.433 . S
N625 C656 1.435 . S
N625 C662 1.423 . S
H626 C652 0.930 . S
H627 C655 0.931 . S
H628 C654 0.929 . S
H629 C657 0.930 . S
H630 C658 0.932 . S
H631 C661 0.929 . S
H632 C660 0.931 . S
H633 C663 0.929 . S
H634 C667 0.932 . S
H635 C664 0.931 . S
H636 C666 0.929 . S
H637 C669 0.929 . S
H638 C670 0.930 . S
H639 C672 0.929 . S
H640 C673 0.931 . S
H641 C675 0.930 . S
H642 C676 0.932 . S
H643 C678 0.931 . S
H644 C679 0.929 . S
H645 C681 0.929 . S
H646 C682 0.931 . S
H647 C684 0.929 . S
N648 C668 1.433 . S
N648 C674 1.435 . S
N648 C680 1.423 . S
H649 C685 0.932 . S
C650 N625 1.433 . S
C650 C651 1.363 . S
C650 C655 1.370 . S
C651 H624 0.929 . S
C651 C650 1.363 . S
C651 C652 1.385 . S
C652 H626 0.930 . S
C652 C651 1.385 . S
C652 C653 1.357 . S
C653 C652 1.357 . S
C653 C654 1.406 . S
C654 H628 0.929 . S
C654 C653 1.406 . S
C654 C655 1.391 . S
C655 H627 0.931 . S
C655 C650 1.370 . S
C655 C654 1.391 . S
C656 N625 1.435 . S
C656 C657 1.358 . S
C656 C661 1.371 . S
C657 H629 0.930 . S
C657 C656 1.358 . S
C657 C658 1.405 . S
C658 H630 0.932 . S
C658 C657 1.405 . S
C658 C659 1.383 . S
C659 C658 1.383 . S
C659 C660 1.393 . S
C660 H632 0.931 . S
C660 C659 1.393 . S
C660 C661 1.382 . S
C661 H631 0.929 . S
C661 C656 1.371 . S
C661 C660 1.382 . S
C662 N625 1.423 . S
C662 C663 1.362 . S
C662 C667 1.388 . S
C663 H633 0.929 . S
C663 C662 1.362 . S
C663 C664 1.376 . S
C664 H635 0.931 . S
C664 C663 1.376 . S
C664 C665 1.396 . S
C665 C664 1.396 . S
C665 C666 1.348 . S
C665 C683 1.472 . S
C666 H636 0.929 . S
C666 C665 1.348 . S
C666 C667 1.443 . S
C667 H634 0.932 . S
C667 C662 1.388 . S
C667 C666 1.443 . S
C668 N648 1.433 . S
C668 C669 1.363 . S
C668 C673 1.370 . S
C669 H637 0.929 . S
C669 C668 1.363 . S
C669 C670 1.385 . S
C670 H638 0.930 . S
C670 C669 1.385 . S
C670 C671 1.357 . S
C671 C670 1.357 . S
C671 C672 1.406 . S
C672 H639 0.929 . S
C672 C671 1.406 . S
C672 C673 1.391 . S
C673 H640 0.931 . S
C673 C668 1.370 . S
C673 C672 1.391 . S
C674 N648 1.435 . S
C674 C675 1.358 . S
C674 C679 1.371 . S
C675 H641 0.930 . S
C675 C674 1.358 . S
C675 C676 1.405 . S
C676 H642 0.932 . S
C676 C675 1.405 . S
C676 C677 1.383 . S
C677 C676 1.383 . S
C677 C678 1.393 . S
C678 H643 0.931 . S
C678 C677 1.393 . S
C678 C679 1.382 . S
C679 H644 0.929 . S
C679 C674 1.371 . S
C679 C678 1.382 . S
C680 N648 1.423 . S
C680 C681 1.362 . S
C680 C685 1.388 . S
C681 H645 0.929 . S
C681 C680 1.362 . S
C681 C682 1.376 . S
C682 H646 0.931 . S
C682 C681 1.376 . S
C682 C683 1.396 . S
C683 C665 1.472 . S
C683 C682 1.396 . S
C683 C684 1.348 . S
C684 H647 0.929 . S
C684 C683 1.348 . S
C684 C685 1.443 . S
C685 H649 0.932 . S
C685 C680 1.388 . S
C685 C684 1.443 . S
H686 C713 0.929 . S
N687 C712 1.433 . S
N687 C718 1.435 . S
N687 C724 1.423 . S
H688 C714 0.930 . S
H689 C717 0.931 . S
H690 C716 0.929 . S
H691 C719 0.930 . S
H692 C720 0.932 . S
H693 C723 0.929 . S
H694 C722 0.931 . S
H695 C725 0.929 . S
H696 C729 0.932 . S
H697 C726 0.931 . S
H698 C728 0.929 . S
H699 C731 0.929 . S
H700 C732 0.930 . S
H701 C734 0.929 . S
H702 C735 0.931 . S
H703 C737 0.930 . S
H704 C738 0.932 . S
H705 C740 0.931 . S
H706 C741 0.929 . S
H707 C743 0.929 . S
H708 C744 0.931 . S
H709 C746 0.929 . S
N710 C730 1.433 . S
N710 C736 1.435 . S
N710 C742 1.423 . S
H711 C747 0.932 . S
C712 N687 1.433 . S
C712 C713 1.363 . S
C712 C717 1.370 . S
C713 H686 0.929 . S
C713 C712 1.363 . S
C713 C714 1.385 . S
C714 H688 0.930 . S
C714 C713 1.385 . S
C714 C715 1.357 . S
C715 C714 1.357 . S
C715 C716 1.406 . S
C716 H690 0.929 . S
C716 C715 1.406 . S
C716 C717 1.391 . S
C717 H689 0.931 . S
C717 C712 1.370 . S
C717 C716 1.391 . S
C718 N687 1.435 . S
C718 C719 1.358 . S
C718 C723 1.371 . S
C719 H691 0.930 . S
C719 C718 1.358 . S
C719 C720 1.405 . S
C720 H692 0.932 . S
C720 C719 1.405 . S
C720 C721 1.383 . S
C721 C720 1.383 . S
C721 C722 1.393 . S
C722 H694 0.931 . S
C722 C721 1.393 . S
C722 C723 1.382 . S
C723 H693 0.929 . S
C723 C718 1.371 . S
C723 C722 1.382 . S
C724 N687 1.423 . S
C724 C725 1.362 . S
C724 C729 1.388 . S
C725 H695 0.929 . S
C725 C724 1.362 . S
C725 C726 1.376 . S
C726 H697 0.931 . S
C726 C725 1.376 . S
C726 C727 1.396 . S
C727 C726 1.396 . S
C727 C728 1.348 . S
C727 C745 1.472 . S
C728 H698 0.929 . S
C728 C727 1.348 . S
C728 C729 1.443 . S
C729 H696 0.932 . S
C729 C724 1.388 . S
C729 C728 1.443 . S
C730 N710 1.433 . S
C730 C731 1.363 . S
C730 C735 1.370 . S
C731 H699 0.929 . S
C731 C730 1.363 . S
C731 C732 1.385 . S
C732 H700 0.930 . S
C732 C731 1.385 . S
C732 C733 1.357 . S
C733 C732 1.357 . S
C733 C734 1.406 . S
C734 H701 0.929 . S
C734 C733 1.406 . S
C734 C735 1.391 . S
C735 H702 0.931 . S
C735 C730 1.370 . S
C735 C734 1.391 . S
C736 N710 1.435 . S
C736 C737 1.358 . S
C736 C741 1.371 . S
C737 H703 0.930 . S
C737 C736 1.358 . S
C737 C738 1.405 . S
C738 H704 0.932 . S
C738 C737 1.405 . S
C738 C739 1.383 . S
C739 C738 1.383 . S
C739 C740 1.393 . S
C740 H705 0.931 . S
C740 C739 1.393 . S
C740 C741 1.382 . S
C741 H706 0.929 . S
C741 C736 1.371 . S
C741 C740 1.382 . S
C742 N710 1.423 . S
C742 C743 1.362 . S
C742 C747 1.388 . S
C743 H707 0.929 . S
C743 C742 1.362 . S
C743 C744 1.376 . S
C744 H708 0.931 . S
C744 C743 1.376 . S
C744 C745 1.396 . S
C745 C727 1.472 . S
C745 C744 1.396 . S
C745 C746 1.348 . S
C746 H709 0.929 . S
C746 C745 1.348 . S
C746 C747 1.443 . S
C747 H711 0.932 . S
C747 C742 1.388 . S
C747 C746 1.443 . S
H748 C775 0.929 . S
N749 C774 1.433 . S
N749 C780 1.435 . S
N749 C786 1.423 . S
H750 C776 0.930 . S
H751 C779 0.931 . S
H752 C778 0.929 . S
H753 C781 0.930 . S
H754 C782 0.932 . S
H755 C785 0.929 . S
H756 C784 0.931 . S
H757 C787 0.929 . S
H758 C791 0.932 . S
H759 C788 0.931 . S
H760 C790 0.929 . S
H761 C793 0.929 . S
H762 C794 0.930 . S
H763 C796 0.929 . S
H764 C797 0.931 . S
H765 C799 0.930 . S
H766 C800 0.932 . S
H767 C802 0.931 . S
H768 C803 0.929 . S
H769 C805 0.929 . S
H770 C806 0.931 . S
H771 C808 0.929 . S
N772 C792 1.433 . S
N772 C798 1.435 . S
N772 C804 1.423 . S
H773 C809 0.932 . S
C774 N749 1.433 . S
C774 C775 1.363 . S
C774 C779 1.370 . S
C775 H748 0.929 . S
C775 C774 1.363 . S
C775 C776 1.385 . S
C776 H750 0.930 . S
C776 C775 1.385 . S
C776 C777 1.357 . S
C777 C776 1.357 . S
C777 C778 1.406 . S
C778 H752 0.929 . S
C778 C777 1.406 . S
C778 C779 1.391 . S
C779 H751 0.931 . S
C779 C774 1.370 . S
C779 C778 1.391 . S
C780 N749 1.435 . S
C780 C781 1.358 . S
C780 C785 1.371 . S
C781 H753 0.930 . S
C781 C780 1.358 . S
C781 C782 1.405 . S
C782 H754 0.932 . S
C782 C781 1.405 . S
C782 C783 1.383 . S
C783 C782 1.383 . S
C783 C784 1.393 . S
C784 H756 0.931 . S
C784 C783 1.393 . S
C784 C785 1.382 . S
C785 H755 0.929 . S
C785 C780 1.371 . S
C785 C784 1.382 . S
C786 N749 1.423 . S
C786 C787 1.362 . S
C786 C791 1.388 . S
C787 H757 0.929 . S
C787 C786 1.362 . S
C787 C788 1.376 . S
C788 H759 0.931 . S
C788 C787 1.376 . S
C788 C789 1.396 . S
C789 C788 1.396 . S
C789 C790 1.348 . S
C789 C807 1.472 . S
C790 H760 0.929 . S
C790 C789 1.348 . S
C790 C791 1.443 . S
C791 H758 0.932 . S
C791 C786 1.388 . S
C791 C790 1.443 . S
C792 N772 1.433 . S
C792 C793 1.363 . S
C792 C797 1.370 . S
C793 H761 0.929 . S
C793 C792 1.363 . S
C793 C794 1.385 . S
C794 H762 0.930 . S
C794 C793 1.385 . S
C794 C795 1.357 . S
C795 C794 1.357 . S
C795 C796 1.406 . S
C796 H763 0.929 . S
C796 C795 1.406 . S
C796 C797 1.391 . S
C797 H764 0.931 . S
C797 C792 1.370 . S
C797 C796 1.391 . S
C798 N772 1.435 . S
C798 C799 1.358 . S
C798 C803 1.371 . S
C799 H765 0.930 . S
C799 C798 1.358 . S
C799 C800 1.405 . S
C800 H766 0.932 . S
C800 C799 1.405 . S
C800 C801 1.383 . S
C801 C800 1.383 . S
C801 C802 1.393 . S
C802 H767 0.931 . S
C802 C801 1.393 . S
C802 C803 1.382 . S
C803 H768 0.929 . S
C803 C798 1.371 . S
C803 C802 1.382 . S
C804 N772 1.423 . S
C804 C805 1.362 . S
C804 C809 1.388 . S
C805 H769 0.929 . S
C805 C804 1.362 . S
C805 C806 1.376 . S
C806 H770 0.931 . S
C806 C805 1.376 . S
C806 C807 1.396 . S
C807 C789 1.472 . S
C807 C806 1.396 . S
C807 C808 1.348 . S
C808 H771 0.929 . S
C808 C807 1.348 . S
C808 C809 1.443 . S
C809 H773 0.932 . S
C809 C804 1.388 . S
C809 C808 1.443 . S
H810 C837 0.929 . S
N811 C836 1.433 . S
N811 C842 1.435 . S
N811 C848 1.423 . S
H812 C838 0.930 . S
H813 C841 0.931 . S
H814 C840 0.929 . S
H815 C843 0.930 . S
H816 C844 0.932 . S
H817 C847 0.929 . S
H818 C846 0.931 . S
H819 C849 0.929 . S
H820 C853 0.932 1_655 S
H821 C850 0.931 . S
H822 C852 0.929 . S
H823 C855 0.929 . S
H824 C856 0.930 . S
H825 C858 0.929 . S
H826 C859 0.931 . S
H827 C861 0.930 . S
H828 C862 0.932 . S
H829 C864 0.931 . S
H830 C865 0.929 . S
H831 C867 0.929 . S
H832 C868 0.931 . S
H833 C870 0.929 . S
N834 C854 1.433 . S
N834 C860 1.435 . S
N834 C866 1.423 . S
H835 C871 0.932 1_655 S
C836 N811 1.433 . S
C836 C837 1.363 . S
C836 C841 1.370 1_455 S
C837 H810 0.929 . S
C837 C836 1.363 . S
C837 C838 1.385 . S
C838 H812 0.930 . S
C838 C837 1.385 . S
C838 C839 1.357 1_455 S
C839 C838 1.357 1_655 S
C839 C840 1.406 . S
C840 H814 0.929 . S
C840 C839 1.406 . S
C840 C841 1.391 . S
C841 H813 0.931 . S
C841 C836 1.370 1_655 S
C841 C840 1.391 . S
C842 N811 1.435 . S
C842 C843 1.358 1_455 S
C842 C847 1.371 . S
C843 H815 0.930 . S
C843 C842 1.358 1_655 S
C843 C844 1.405 . S
C844 H816 0.932 . S
C844 C843 1.405 . S
C844 C845 1.383 1_655 S
C845 C844 1.383 1_455 S
C845 C846 1.393 . S
C846 H818 0.931 . S
C846 C845 1.393 . S
C846 C847 1.382 . S
C847 H817 0.929 . S
C847 C842 1.371 . S
C847 C846 1.382 . S
C848 N811 1.423 . S
C848 C849 1.362 . S
C848 C853 1.388 . S
C849 H819 0.929 . S
C849 C848 1.362 . S
C849 C850 1.376 . S
C850 H821 0.931 . S
C850 C849 1.376 . S
C850 C851 1.396 . S
C851 C850 1.396 . S
C851 C852 1.348 . S
C851 C869 1.472 . S
C852 H822 0.929 . S
C852 C851 1.348 . S
C852 C853 1.443 . S
C853 H820 0.932 1_455 S
C853 C848 1.388 . S
C853 C852 1.443 . S
C854 N834 1.433 . S
C854 C855 1.363 . S
C854 C859 1.370 1_455 S
C855 H823 0.929 . S
C855 C854 1.363 . S
C855 C856 1.385 . S
C856 H824 0.930 . S
C856 C855 1.385 . S
C856 C857 1.357 1_455 S
C857 C856 1.357 1_655 S
C857 C858 1.406 . S
C858 H825 0.929 . S
C858 C857 1.406 . S
C858 C859 1.391 . S
C859 H826 0.931 . S
C859 C854 1.370 1_655 S
C859 C858 1.391 . S
C860 N834 1.435 . S
C860 C861 1.358 1_455 S
C860 C865 1.371 . S
C861 H827 0.930 . S
C861 C860 1.358 1_655 S
C861 C862 1.405 . S
C862 H828 0.932 . S
C862 C861 1.405 . S
C862 C863 1.383 1_655 S
C863 C862 1.383 1_455 S
C863 C864 1.393 . S
C864 H829 0.931 . S
C864 C863 1.393 . S
C864 C865 1.382 . S
C865 H830 0.929 . S
C865 C860 1.371 . S
C865 C864 1.382 . S
C866 N834 1.423 . S
C866 C867 1.362 . S
C866 C871 1.388 . S
C867 H831 0.929 . S
C867 C866 1.362 . S
C867 C868 1.376 . S
C868 H832 0.931 . S
C868 C867 1.376 . S
C868 C869 1.396 . S
C869 C851 1.472 . S
C869 C868 1.396 . S
C869 C870 1.348 . S
C870 H833 0.929 . S
C870 C869 1.348 . S
C870 C871 1.443 . S
C871 H835 0.932 1_455 S
C871 C866 1.388 . S
C871 C870 1.443 . S
H872 C899 0.929 . S
N873 C898 1.433 . S
N873 C904 1.435 . S
N873 C910 1.423 . S
H874 C900 0.930 . S
H875 C903 0.931 . S
H876 C902 0.929 . S
H877 C905 0.930 . S
H878 C906 0.932 . S
H879 C909 0.929 . S
H880 C908 0.931 . S
H881 C911 0.929 . S
H882 C915 0.932 . S
H883 C912 0.931 . S
H884 C914 0.929 . S
H885 C917 0.929 . S
H886 C918 0.930 . S
H887 C920 0.929 . S
H888 C921 0.931 . S
H889 C923 0.930 . S
H890 C924 0.932 . S
H891 C926 0.931 . S
H892 C927 0.929 . S
H893 C929 0.929 . S
H894 C930 0.931 . S
H895 C932 0.929 . S
N896 C916 1.433 . S
N896 C922 1.435 . S
N896 C928 1.423 . S
H897 C933 0.932 . S
C898 N873 1.433 . S
C898 C899 1.363 . S
C898 C903 1.370 . S
C899 H872 0.929 . S
C899 C898 1.363 . S
C899 C900 1.385 . S
C900 H874 0.930 . S
C900 C899 1.385 . S
C900 C901 1.357 . S
C901 C900 1.357 . S
C901 C902 1.406 . S
C902 H876 0.929 . S
C902 C901 1.406 . S
C902 C903 1.391 . S
C903 H875 0.931 . S
C903 C898 1.370 . S
C903 C902 1.391 . S
C904 N873 1.435 . S
C904 C905 1.358 . S
C904 C909 1.371 . S
C905 H877 0.930 . S
C905 C904 1.358 . S
C905 C906 1.405 . S
C906 H878 0.932 . S
C906 C905 1.405 . S
C906 C907 1.383 . S
C907 C906 1.383 . S
C907 C908 1.393 . S
C908 H880 0.931 . S
C908 C907 1.393 . S
C908 C909 1.382 . S
C909 H879 0.929 . S
C909 C904 1.371 . S
C909 C908 1.382 . S
C910 N873 1.423 . S
C910 C911 1.362 . S
C910 C915 1.388 . S
C911 H881 0.929 . S
C911 C910 1.362 . S
C911 C912 1.376 . S
C912 H883 0.931 . S
C912 C911 1.376 . S
C912 C913 1.396 . S
C913 C912 1.396 . S
C913 C914 1.348 . S
C913 C931 1.472 . S
C914 H884 0.929 . S
C914 C913 1.348 . S
C914 C915 1.443 . S
C915 H882 0.932 . S
C915 C910 1.388 . S
C915 C914 1.443 . S
C916 N896 1.433 . S
C916 C917 1.363 . S
C916 C921 1.370 . S
C917 H885 0.929 . S
C917 C916 1.363 . S
C917 C918 1.385 . S
C918 H886 0.930 . S
C918 C917 1.385 . S
C918 C919 1.357 . S
C919 C918 1.357 . S
C919 C920 1.406 . S
C920 H887 0.929 . S
C920 C919 1.406 . S
C920 C921 1.391 . S
C921 H888 0.931 . S
C921 C916 1.370 . S
C921 C920 1.391 . S
C922 N896 1.435 . S
C922 C923 1.358 . S
C922 C927 1.371 . S
C923 H889 0.930 . S
C923 C922 1.358 . S
C923 C924 1.405 . S
C924 H890 0.932 . S
C924 C923 1.405 . S
C924 C925 1.383 . S
C925 C924 1.383 . S
C925 C926 1.393 . S
C926 H891 0.931 . S
C926 C925 1.393 . S
C926 C927 1.382 . S
C927 H892 0.929 . S
C927 C922 1.371 . S
C927 C926 1.382 . S
C928 N896 1.423 . S
C928 C929 1.362 . S
C928 C933 1.388 . S
C929 H893 0.929 . S
C929 C928 1.362 . S
C929 C930 1.376 . S
C930 H894 0.931 . S
C930 C929 1.376 . S
C930 C931 1.396 . S
C931 C913 1.472 . S
C931 C930 1.396 . S
C931 C932 1.348 . S
C932 H895 0.929 . S
C932 C931 1.348 . S
C932 C933 1.443 . S
C933 H897 0.932 . S
C933 C928 1.388 . S
C933 C932 1.443 . S
H934 C961 0.929 . S
N935 C960 1.433 . S
N935 C966 1.435 . S
N935 C972 1.423 . S
H936 C962 0.930 . S
H937 C965 0.931 . S
H938 C964 0.929 . S
H939 C967 0.930 . S
H940 C968 0.932 . S
H941 C971 0.929 . S
H942 C970 0.931 . S
H943 C973 0.929 . S
H944 C977 0.932 1_545 S
H945 C974 0.931 . S
H946 C976 0.929 . S
H947 C979 0.929 . S
H948 C980 0.930 . S
H949 C982 0.929 . S
H950 C983 0.931 . S
H951 C985 0.930 . S
H952 C986 0.932 . S
H953 C988 0.931 . S
H954 C989 0.929 . S
H955 C991 0.929 . S
H956 C992 0.931 . S
H957 C994 0.929 . S
N958 C978 1.433 . S
N958 C984 1.435 . S
N958 C990 1.423 . S
H959 C995 0.932 1_545 S
C960 N935 1.433 . S
C960 C961 1.363 . S
C960 C965 1.370 1_565 S
C961 H934 0.929 . S
C961 C960 1.363 . S
C961 C962 1.385 . S
C962 H936 0.930 . S
C962 C961 1.385 . S
C962 C963 1.357 1_565 S
C963 C962 1.357 1_545 S
C963 C964 1.406 . S
C964 H938 0.929 . S
C964 C963 1.406 . S
C964 C965 1.391 . S
C965 H937 0.931 . S
C965 C960 1.370 1_545 S
C965 C964 1.391 . S
C966 N935 1.435 . S
C966 C967 1.358 1_565 S
C966 C971 1.371 . S
C967 H939 0.930 . S
C967 C966 1.358 1_545 S
C967 C968 1.405 . S
C968 H940 0.932 . S
C968 C967 1.405 . S
C968 C969 1.383 1_545 S
C969 C968 1.383 1_565 S
C969 C970 1.393 . S
C970 H942 0.931 . S
C970 C969 1.393 . S
C970 C971 1.382 . S
C971 H941 0.929 . S
C971 C966 1.371 . S
C971 C970 1.382 . S
C972 N935 1.423 . S
C972 C973 1.362 . S
C972 C977 1.388 . S
C973 H943 0.929 . S
C973 C972 1.362 . S
C973 C974 1.376 . S
C974 H945 0.931 . S
C974 C973 1.376 . S
C974 C975 1.396 . S
C975 C974 1.396 . S
C975 C976 1.348 . S
C975 C993 1.472 . S
C976 H946 0.929 . S
C976 C975 1.348 . S
C976 C977 1.443 . S
C977 H944 0.932 1_565 S
C977 C972 1.388 . S
C977 C976 1.443 . S
C978 N958 1.433 . S
C978 C979 1.363 . S
C978 C983 1.370 1_565 S
C979 H947 0.929 . S
C979 C978 1.363 . S
C979 C980 1.385 . S
C980 H948 0.930 . S
C980 C979 1.385 . S
C980 C981 1.357 1_565 S
C981 C980 1.357 1_545 S
C981 C982 1.406 . S
C982 H949 0.929 . S
C982 C981 1.406 . S
C982 C983 1.391 . S
C983 H950 0.931 . S
C983 C978 1.370 1_545 S
C983 C982 1.391 . S
C984 N958 1.435 . S
C984 C985 1.358 1_565 S
C984 C989 1.371 . S
C985 H951 0.930 . S
C985 C984 1.358 1_545 S
C985 C986 1.405 . S
C986 H952 0.932 . S
C986 C985 1.405 . S
C986 C987 1.383 1_545 S
C987 C986 1.383 1_565 S
C987 C988 1.393 . S
C988 H953 0.931 . S
C988 C987 1.393 . S
C988 C989 1.382 . S
C989 H954 0.929 . S
C989 C984 1.371 . S
C989 C988 1.382 . S
C990 N958 1.423 . S
C990 C991 1.362 . S
C990 C995 1.388 . S
C991 H955 0.929 . S
C991 C990 1.362 . S
C991 C992 1.376 . S
C992 H956 0.931 . S
C992 C991 1.376 . S
C992 C993 1.396 . S
C993 C975 1.472 . S
C993 C992 1.396 . S
C993 C994 1.348 . S
C994 H957 0.929 . S
C994 C993 1.348 . S
C994 C995 1.443 . S
C995 H959 0.932 1_565 S
C995 C990 1.388 . S
C995 C994 1.443 . S
H996 C1023 0.929 . S
N997 C1022 1.433 . S
N997 C1028 1.435 . S
N997 C1034 1.423 . S
H998 C1024 0.930 . S
H999 C1027 0.930 . S
H1000 C1026 0.940 . S
H1001 C1029 0.930 . S
H1002 C1030 0.932 . S
H1003 C1033 0.929 . S
H1004 C1032 0.931 . S
H1005 C1035 0.929 . S
H1006 C1039 0.932 . S
H1007 C1036 0.931 . S
H1008 C1038 0.919 1_545 S
H1009 C1041 0.929 . S
H1010 C1042 0.930 . S
H1011 C1044 0.929 . S
H1012 C1045 0.991 . S
H1013 C1047 0.930 . S
H1014 C1048 0.932 . S
H1015 C1050 0.931 . S
H1016 C1051 0.929 . S
H1017 C1053 0.929 . S
H1018 C1054 0.931 . S
H1019 C1056 0.903 1_545 S
N1020 C1040 1.433 . S
N1020 C1046 1.435 . S
N1020 C1052 1.423 . S
H1021 C1057 0.932 . S
C1022 N997 1.433 . S
C1022 C1023 1.363 . S
C1022 C1027 1.365 1_565 S
C1023 H996 0.929 . S
C1023 C1022 1.363 . S
C1023 C1024 1.385 . S
C1024 H998 0.930 . S
C1024 C1023 1.385 . S
C1024 C1025 1.357 . S
C1025 C1024 1.357 . S
C1025 C1026 1.410 1_565 S
C1026 H1000 0.940 . S
C1026 C1025 1.410 1_545 S
C1026 C1027 1.388 . S
C1027 H999 0.930 . S
C1027 C1022 1.365 1_545 S
C1027 C1026 1.388 . S
C1028 N997 1.435 . S
C1028 C1029 1.358 1_565 S
C1028 C1033 1.371 . S
C1029 H1001 0.930 . S
C1029 C1028 1.358 1_545 S
C1029 C1030 1.405 . S
C1030 H1002 0.932 . S
C1030 C1029 1.405 . S
C1030 C1031 1.383 . S
C1031 C1030 1.383 . S
C1031 C1032 1.393 1_545 S
C1032 H1004 0.931 . S
C1032 C1031 1.393 1_565 S
C1032 C1033 1.382 . S
C1033 H1003 0.929 . S
C1033 C1028 1.371 . S
C1033 C1032 1.382 . S
C1034 N997 1.423 . S
C1034 C1035 1.362 . S
C1034 C1039 1.388 1_565 S
C1035 H1005 0.929 . S
C1035 C1034 1.362 . S
C1035 C1036 1.376 . S
C1036 H1007 0.931 . S
C1036 C1035 1.376 . S
C1036 C1037 1.396 . S
C1037 C1036 1.396 . S
C1037 C1038 1.385 . S
C1037 C1055 1.472 . S
C1038 H1008 0.919 1_565 S
C1038 C1037 1.385 . S
C1038 C1039 1.417 1_565 S
C1039 H1006 0.932 . S
C1039 C1034 1.388 1_545 S
C1039 C1038 1.417 1_545 S
C1040 N1020 1.433 . S
C1040 C1041 1.363 . S
C1040 C1045 1.325 1_565 S
C1041 H1009 0.929 . S
C1041 C1040 1.363 . S
C1041 C1042 1.385 . S
C1042 H1010 0.930 . S
C1042 C1041 1.385 . S
C1042 C1043 1.357 . S
C1043 C1042 1.357 . S
C1043 C1044 1.406 1_565 S
C1044 H1011 0.929 . S
C1044 C1043 1.406 1_545 S
C1044 C1045 1.380 . S
C1045 H1012 0.991 . S
C1045 C1040 1.325 1_545 S
C1045 C1044 1.380 . S
C1046 N1020 1.435 . S
C1046 C1047 1.358 1_565 S
C1046 C1051 1.371 . S
C1047 H1013 0.930 . S
C1047 C1046 1.358 1_545 S
C1047 C1048 1.405 . S
C1048 H1014 0.932 . S
C1048 C1047 1.405 . S
C1048 C1049 1.383 . S
C1049 C1048 1.383 . S
C1049 C1050 1.393 1_545 S
C1050 H1015 0.931 . S
C1050 C1049 1.393 1_565 S
C1050 C1051 1.382 . S
C1051 H1016 0.929 . S
C1051 C1046 1.371 . S
C1051 C1050 1.382 . S
C1052 N1020 1.423 . S
C1052 C1053 1.362 . S
C1052 C1057 1.388 1_565 S
C1053 H1017 0.929 . S
C1053 C1052 1.362 . S
C1053 C1054 1.376 . S
C1054 H1018 0.931 . S
C1054 C1053 1.376 . S
C1054 C1055 1.396 . S
C1055 C1037 1.472 . S
C1055 C1054 1.396 . S
C1055 C1056 1.359 . S
C1056 H1019 0.903 1_565 S
C1056 C1055 1.359 . S
C1056 C1057 1.458 1_565 S
C1057 H1021 0.932 . S
C1057 C1052 1.388 1_545 S
C1057 C1056 1.458 1_545 S
H1058 C1085 0.929 . S
N1059 C1084 1.433 . S
N1059 C1090 1.435 . S
N1059 C1096 1.423 . S
H1060 C1086 0.930 . S
H1061 C1089 0.931 . S
H1062 C1088 0.929 . S
H1063 C1091 0.930 . S
H1064 C1092 0.932 . S
H1065 C1095 0.929 . S
H1066 C1094 0.931 . S
H1067 C1097 0.929 . S
H1068 C1101 0.932 1_455 S
H1069 C1098 0.931 . S
H1070 C1100 0.929 . S
H1071 C1103 0.929 . S
H1072 C1104 0.930 . S
H1073 C1106 0.929 . S
H1074 C1107 0.931 . S
H1075 C1109 0.930 . S
H1076 C1110 0.932 . S
H1077 C1112 0.931 . S
H1078 C1113 0.929 . S
H1079 C1115 0.929 . S
H1080 C1116 0.931 . S
H1081 C1118 0.929 . S
N1082 C1102 1.433 . S
N1082 C1108 1.435 . S
N1082 C1114 1.423 . S
H1083 C1119 0.932 1_455 S
C1084 N1059 1.433 . S
C1084 C1085 1.363 . S
C1084 C1089 1.370 1_655 S
C1085 H1058 0.929 . S
C1085 C1084 1.363 . S
C1085 C1086 1.385 . S
C1086 H1060 0.930 . S
C1086 C1085 1.385 . S
C1086 C1087 1.357 1_655 S
C1087 C1086 1.357 1_455 S
C1087 C1088 1.406 . S
C1088 H1062 0.929 . S
C1088 C1087 1.406 . S
C1088 C1089 1.391 . S
C1089 H1061 0.931 . S
C1089 C1084 1.370 1_455 S
C1089 C1088 1.391 . S
C1090 N1059 1.435 . S
C1090 C1091 1.358 1_655 S
C1090 C1095 1.371 . S
C1091 H1063 0.930 . S
C1091 C1090 1.358 1_455 S
C1091 C1092 1.405 . S
C1092 H1064 0.932 . S
C1092 C1091 1.405 . S
C1092 C1093 1.383 1_455 S
C1093 C1092 1.383 1_655 S
C1093 C1094 1.393 . S
C1094 H1066 0.931 . S
C1094 C1093 1.393 . S
C1094 C1095 1.382 . S
C1095 H1065 0.929 . S
C1095 C1090 1.371 . S
C1095 C1094 1.382 . S
C1096 N1059 1.423 . S
C1096 C1097 1.362 . S
C1096 C1101 1.388 . S
C1097 H1067 0.929 . S
C1097 C1096 1.362 . S
C1097 C1098 1.376 . S
C1098 H1069 0.931 . S
C1098 C1097 1.376 . S
C1098 C1099 1.396 . S
C1099 C1098 1.396 . S
C1099 C1100 1.348 . S
C1099 C1117 1.472 . S
C1100 H1070 0.929 . S
C1100 C1099 1.348 . S
C1100 C1101 1.443 . S
C1101 H1068 0.932 1_655 S
C1101 C1096 1.388 . S
C1101 C1100 1.443 . S
C1102 N1082 1.433 . S
C1102 C1103 1.363 . S
C1102 C1107 1.370 1_655 S
C1103 H1071 0.929 . S
C1103 C1102 1.363 . S
C1103 C1104 1.385 . S
C1104 H1072 0.930 . S
C1104 C1103 1.385 . S
C1104 C1105 1.357 1_655 S
C1105 C1104 1.357 1_455 S
C1105 C1106 1.406 . S
C1106 H1073 0.929 . S
C1106 C1105 1.406 . S
C1106 C1107 1.391 . S
C1107 H1074 0.931 . S
C1107 C1102 1.370 1_455 S
C1107 C1106 1.391 . S
C1108 N1082 1.435 . S
C1108 C1109 1.358 1_655 S
C1108 C1113 1.371 . S
C1109 H1075 0.930 . S
C1109 C1108 1.358 1_455 S
C1109 C1110 1.405 . S
C1110 H1076 0.932 . S
C1110 C1109 1.405 . S
C1110 C1111 1.383 1_455 S
C1111 C1110 1.383 1_655 S
C1111 C1112 1.393 . S
C1112 H1077 0.931 . S
C1112 C1111 1.393 . S
C1112 C1113 1.382 . S
C1113 H1078 0.929 . S
C1113 C1108 1.371 . S
C1113 C1112 1.382 . S
C1114 N1082 1.423 . S
C1114 C1115 1.362 . S
C1114 C1119 1.388 . S
C1115 H1079 0.929 . S
C1115 C1114 1.362 . S
C1115 C1116 1.376 . S
C1116 H1080 0.931 . S
C1116 C1115 1.376 . S
C1116 C1117 1.396 . S
C1117 C1099 1.472 . S
C1117 C1116 1.396 . S
C1117 C1118 1.348 . S
C1118 H1081 0.929 . S
C1118 C1117 1.348 . S
C1118 C1119 1.443 . S
C1119 H1083 0.932 1_655 S
C1119 C1114 1.388 . S
C1119 C1118 1.443 . S
H1120 C1147 0.929 . S
N1121 C1146 1.433 . S
N1121 C1152 1.435 . S
N1121 C1158 1.423 . S
H1122 C1148 0.930 . S
H1123 C1151 0.931 . S
H1124 C1150 0.929 . S
H1125 C1153 0.930 . S
H1126 C1154 0.932 . S
H1127 C1157 0.929 . S
H1128 C1156 0.931 . S
H1129 C1159 0.929 . S
H1130 C1163 0.932 . S
H1131 C1160 0.931 . S
H1132 C1162 0.929 . S
H1133 C1165 0.929 . S
H1134 C1166 0.930 . S
H1135 C1168 0.929 . S
H1136 C1169 0.931 . S
H1137 C1171 0.930 . S
H1138 C1172 0.932 . S
H1139 C1174 0.931 . S
H1140 C1175 0.929 . S
H1141 C1177 0.929 . S
H1142 C1178 0.931 . S
H1143 C1180 0.929 . S
N1144 C1164 1.433 . S
N1144 C1170 1.435 . S
N1144 C1176 1.423 . S
H1145 C1181 0.932 . S
C1146 N1121 1.433 . S
C1146 C1147 1.363 . S
C1146 C1151 1.370 . S
C1147 H1120 0.929 . S
C1147 C1146 1.363 . S
C1147 C1148 1.385 . S
C1148 H1122 0.930 . S
C1148 C1147 1.385 . S
C1148 C1149 1.357 . S
C1149 C1148 1.357 . S
C1149 C1150 1.406 . S
C1150 H1124 0.929 . S
C1150 C1149 1.406 . S
C1150 C1151 1.391 . S
C1151 H1123 0.931 . S
C1151 C1146 1.370 . S
C1151 C1150 1.391 . S
C1152 N1121 1.435 . S
C1152 C1153 1.358 . S
C1152 C1157 1.371 . S
C1153 H1125 0.930 . S
C1153 C1152 1.358 . S
C1153 C1154 1.405 . S
C1154 H1126 0.932 . S
C1154 C1153 1.405 . S
C1154 C1155 1.383 . S
C1155 C1154 1.383 . S
C1155 C1156 1.393 . S
C1156 H1128 0.931 . S
C1156 C1155 1.393 . S
C1156 C1157 1.382 . S
C1157 H1127 0.929 . S
C1157 C1152 1.371 . S
C1157 C1156 1.382 . S
C1158 N1121 1.423 . S
C1158 C1159 1.362 . S
C1158 C1163 1.388 . S
C1159 H1129 0.929 . S
C1159 C1158 1.362 . S
C1159 C1160 1.376 . S
C1160 H1131 0.931 . S
C1160 C1159 1.376 . S
C1160 C1161 1.396 . S
C1161 C1160 1.396 . S
C1161 C1162 1.348 . S
C1161 C1179 1.472 . S
C1162 H1132 0.929 . S
C1162 C1161 1.348 . S
C1162 C1163 1.443 . S
C1163 H1130 0.932 . S
C1163 C1158 1.388 . S
C1163 C1162 1.443 . S
C1164 N1144 1.433 . S
C1164 C1165 1.363 . S
C1164 C1169 1.370 . S
C1165 H1133 0.929 . S
C1165 C1164 1.363 . S
C1165 C1166 1.385 . S
C1166 H1134 0.930 . S
C1166 C1165 1.385 . S
C1166 C1167 1.357 . S
C1167 C1166 1.357 . S
C1167 C1168 1.406 . S
C1168 H1135 0.929 . S
C1168 C1167 1.406 . S
C1168 C1169 1.391 . S
C1169 H1136 0.931 . S
C1169 C1164 1.370 . S
C1169 C1168 1.391 . S
C1170 N1144 1.435 . S
C1170 C1171 1.358 . S
C1170 C1175 1.371 . S
C1171 H1137 0.930 . S
C1171 C1170 1.358 . S
C1171 C1172 1.405 . S
C1172 H1138 0.932 . S
C1172 C1171 1.405 . S
C1172 C1173 1.383 . S
C1173 C1172 1.383 . S
C1173 C1174 1.393 . S
C1174 H1139 0.931 . S
C1174 C1173 1.393 . S
C1174 C1175 1.382 . S
C1175 H1140 0.929 . S
C1175 C1170 1.371 . S
C1175 C1174 1.382 . S
C1176 N1144 1.423 . S
C1176 C1177 1.362 . S
C1176 C1181 1.388 . S
C1177 H1141 0.929 . S
C1177 C1176 1.362 . S
C1177 C1178 1.376 . S
C1178 H1142 0.931 . S
C1178 C1177 1.376 . S
C1178 C1179 1.396 . S
C1179 C1161 1.472 . S
C1179 C1178 1.396 . S
C1179 C1180 1.348 . S
C1180 H1143 0.929 . S
C1180 C1179 1.348 . S
C1180 C1181 1.443 . S
C1181 H1145 0.932 . S
C1181 C1176 1.388 . S
C1181 C1180 1.443 . S
H1182 C1209 0.929 . S
N1183 C1208 1.433 . S
N1183 C1214 1.435 . S
N1183 C1220 1.423 . S
H1184 C1210 0.930 . S
H1185 C1213 0.931 . S
H1186 C1212 0.929 . S
H1187 C1215 0.930 . S
H1188 C1216 0.932 . S
H1189 C1219 0.929 . S
H1190 C1218 0.931 . S
H1191 C1221 0.929 . S
H1192 C1225 0.932 . S
H1193 C1222 0.931 . S
H1194 C1224 0.929 . S
H1195 C1227 0.929 . S
H1196 C1228 0.930 . S
H1197 C1230 0.929 . S
H1198 C1231 0.931 . S
H1199 C1233 0.930 . S
H1200 C1234 0.932 . S
H1201 C1236 0.931 . S
H1202 C1237 0.929 . S
H1203 C1239 0.929 . S
H1204 C1240 0.931 . S
H1205 C1242 0.929 . S
N1206 C1226 1.433 . S
N1206 C1232 1.435 . S
N1206 C1238 1.423 . S
H1207 C1243 0.932 . S
C1208 N1183 1.433 . S
C1208 C1209 1.363 . S
C1208 C1213 1.370 . S
C1209 H1182 0.929 . S
C1209 C1208 1.363 . S
C1209 C1210 1.385 . S
C1210 H1184 0.930 . S
C1210 C1209 1.385 . S
C1210 C1211 1.357 . S
C1211 C1210 1.357 . S
C1211 C1212 1.406 . S
C1212 H1186 0.929 . S
C1212 C1211 1.406 . S
C1212 C1213 1.391 . S
C1213 H1185 0.931 . S
C1213 C1208 1.370 . S
C1213 C1212 1.391 . S
C1214 N1183 1.435 . S
C1214 C1215 1.358 . S
C1214 C1219 1.371 . S
C1215 H1187 0.930 . S
C1215 C1214 1.358 . S
C1215 C1216 1.405 . S
C1216 H1188 0.932 . S
C1216 C1215 1.405 . S
C1216 C1217 1.383 . S
C1217 C1216 1.383 . S
C1217 C1218 1.393 . S
C1218 H1190 0.931 . S
C1218 C1217 1.393 . S
C1218 C1219 1.382 . S
C1219 H1189 0.929 . S
C1219 C1214 1.371 . S
C1219 C1218 1.382 . S
C1220 N1183 1.423 . S
C1220 C1221 1.362 . S
C1220 C1225 1.388 . S
C1221 H1191 0.929 . S
C1221 C1220 1.362 . S
C1221 C1222 1.376 . S
C1222 H1193 0.931 . S
C1222 C1221 1.376 . S
C1222 C1223 1.396 . S
C1223 C1222 1.396 . S
C1223 C1224 1.348 . S
C1223 C1241 1.472 . S
C1224 H1194 0.929 . S
C1224 C1223 1.348 . S
C1224 C1225 1.443 . S
C1225 H1192 0.932 . S
C1225 C1220 1.388 . S
C1225 C1224 1.443 . S
C1226 N1206 1.433 . S
C1226 C1227 1.363 . S
C1226 C1231 1.370 . S
C1227 H1195 0.929 . S
C1227 C1226 1.363 . S
C1227 C1228 1.385 . S
C1228 H1196 0.930 . S
C1228 C1227 1.385 . S
C1228 C1229 1.357 . S
C1229 C1228 1.357 . S
C1229 C1230 1.406 . S
C1230 H1197 0.929 . S
C1230 C1229 1.406 . S
C1230 C1231 1.391 . S
C1231 H1198 0.931 . S
C1231 C1226 1.370 . S
C1231 C1230 1.391 . S
C1232 N1206 1.435 . S
C1232 C1233 1.358 . S
C1232 C1237 1.371 . S
C1233 H1199 0.930 . S
C1233 C1232 1.358 . S
C1233 C1234 1.405 . S
C1234 H1200 0.932 . S
C1234 C1233 1.405 . S
C1234 C1235 1.383 . S
C1235 C1234 1.383 . S
C1235 C1236 1.393 . S
C1236 H1201 0.931 . S
C1236 C1235 1.393 . S
C1236 C1237 1.382 . S
C1237 H1202 0.929 . S
C1237 C1232 1.371 . S
C1237 C1236 1.382 . S
C1238 N1206 1.423 . S
C1238 C1239 1.362 . S
C1238 C1243 1.388 . S
C1239 H1203 0.929 . S
C1239 C1238 1.362 . S
C1239 C1240 1.376 . S
C1240 H1204 0.931 . S
C1240 C1239 1.376 . S
C1240 C1241 1.396 . S
C1241 C1223 1.472 . S
C1241 C1240 1.396 . S
C1241 C1242 1.348 . S
C1242 H1205 0.929 . S
C1242 C1241 1.348 . S
C1242 C1243 1.443 . S
C1243 H1207 0.932 . S
C1243 C1238 1.388 . S
C1243 C1242 1.443 . S
H1244 C1271 0.929 . S
N1245 C1270 1.433 . S
N1245 C1276 1.435 . S
N1245 C1282 1.423 . S
H1246 C1272 0.930 . S
H1247 C1275 0.931 . S
H1248 C1274 0.929 . S
H1249 C1277 0.930 . S
H1250 C1278 0.932 . S
H1251 C1281 0.929 . S
H1252 C1280 0.931 . S
H1253 C1283 0.929 . S
H1254 C1287 0.932 . S
H1255 C1284 0.931 . S
H1256 C1286 0.929 . S
H1257 C1289 0.929 . S
H1258 C1290 0.930 . S
H1259 C1292 0.929 . S
H1260 C1293 0.931 . S
H1261 C1295 0.930 . S
H1262 C1296 0.932 . S
H1263 C1298 0.931 . S
H1264 C1299 0.929 . S
H1265 C1301 0.929 . S
H1266 C1302 0.931 . S
H1267 C1304 0.929 . S
N1268 C1288 1.433 . S
N1268 C1294 1.435 . S
N1268 C1300 1.423 . S
H1269 C1305 0.932 . S
C1270 N1245 1.433 . S
C1270 C1271 1.363 . S
C1270 C1275 1.370 . S
C1271 H1244 0.929 . S
C1271 C1270 1.363 . S
C1271 C1272 1.385 . S
C1272 H1246 0.930 . S
C1272 C1271 1.385 . S
C1272 C1273 1.357 . S
C1273 C1272 1.357 . S
C1273 C1274 1.406 . S
C1274 H1248 0.929 . S
C1274 C1273 1.406 . S
C1274 C1275 1.391 . S
C1275 H1247 0.931 . S
C1275 C1270 1.370 . S
C1275 C1274 1.391 . S
C1276 N1245 1.435 . S
C1276 C1277 1.358 . S
C1276 C1281 1.371 . S
C1277 H1249 0.930 . S
C1277 C1276 1.358 . S
C1277 C1278 1.405 . S
C1278 H1250 0.932 . S
C1278 C1277 1.405 . S
C1278 C1279 1.383 . S
C1279 C1278 1.383 . S
C1279 C1280 1.393 . S
C1280 H1252 0.931 . S
C1280 C1279 1.393 . S
C1280 C1281 1.382 . S
C1281 H1251 0.929 . S
C1281 C1276 1.371 . S
C1281 C1280 1.382 . S
C1282 N1245 1.423 . S
C1282 C1283 1.362 . S
C1282 C1287 1.388 . S
C1283 H1253 0.929 . S
C1283 C1282 1.362 . S
C1283 C1284 1.376 . S
C1284 H1255 0.931 . S
C1284 C1283 1.376 . S
C1284 C1285 1.396 . S
C1285 C1284 1.396 . S
C1285 C1286 1.348 . S
C1285 C1303 1.472 . S
C1286 H1256 0.929 . S
C1286 C1285 1.348 . S
C1286 C1287 1.443 . S
C1287 H1254 0.932 . S
C1287 C1282 1.388 . S
C1287 C1286 1.443 . S
C1288 N1268 1.433 . S
C1288 C1289 1.363 . S
C1288 C1293 1.370 . S
C1289 H1257 0.929 . S
C1289 C1288 1.363 . S
C1289 C1290 1.385 . S
C1290 H1258 0.930 . S
C1290 C1289 1.385 . S
C1290 C1291 1.357 . S
C1291 C1290 1.357 . S
C1291 C1292 1.406 . S
C1292 H1259 0.929 . S
C1292 C1291 1.406 . S
C1292 C1293 1.391 . S
C1293 H1260 0.931 . S
C1293 C1288 1.370 . S
C1293 C1292 1.391 . S
C1294 N1268 1.435 . S
C1294 C1295 1.358 . S
C1294 C1299 1.371 . S
C1295 H1261 0.930 . S
C1295 C1294 1.358 . S
C1295 C1296 1.405 . S
C1296 H1262 0.932 . S
C1296 C1295 1.405 . S
C1296 C1297 1.383 . S
C1297 C1296 1.383 . S
C1297 C1298 1.393 . S
C1298 H1263 0.931 . S
C1298 C1297 1.393 . S
C1298 C1299 1.382 . S
C1299 H1264 0.929 . S
C1299 C1294 1.371 . S
C1299 C1298 1.382 . S
C1300 N1268 1.423 . S
C1300 C1301 1.362 . S
C1300 C1305 1.388 . S
C1301 H1265 0.929 . S
C1301 C1300 1.362 . S
C1301 C1302 1.376 . S
C1302 H1266 0.931 . S
C1302 C1301 1.376 . S
C1302 C1303 1.396 . S
C1303 C1285 1.472 . S
C1303 C1302 1.396 . S
C1303 C1304 1.348 . S
C1304 H1267 0.929 . S
C1304 C1303 1.348 . S
C1304 C1305 1.443 . S
C1305 H1269 0.932 . S
C1305 C1300 1.388 . S
C1305 C1304 1.443 . S
H1306 C1333 0.929 . S
N1307 C1332 1.433 . S
N1307 C1338 1.435 . S
N1307 C1344 1.423 . S
H1308 C1334 0.930 . S
H1309 C1337 0.931 . S
H1310 C1336 0.929 . S
H1311 C1339 0.930 . S
H1312 C1340 0.932 . S
H1313 C1343 0.929 . S
H1314 C1342 0.931 . S
H1315 C1345 0.929 . S
H1316 C1349 0.932 . S
H1317 C1346 0.931 . S
H1318 C1348 0.929 . S
H1319 C1351 0.929 . S
H1320 C1352 0.930 . S
H1321 C1354 0.929 . S
H1322 C1355 0.931 . S
H1323 C1357 0.930 . S
H1324 C1358 0.932 . S
H1325 C1360 0.931 . S
H1326 C1361 0.929 . S
H1327 C1363 0.929 . S
H1328 C1364 0.931 . S
H1329 C1366 0.929 . S
N1330 C1350 1.433 . S
N1330 C1356 1.435 . S
N1330 C1362 1.423 . S
H1331 C1367 0.932 . S
C1332 N1307 1.433 . S
C1332 C1333 1.363 . S
C1332 C1337 1.370 . S
C1333 H1306 0.929 . S
C1333 C1332 1.363 . S
C1333 C1334 1.385 . S
C1334 H1308 0.930 . S
C1334 C1333 1.385 . S
C1334 C1335 1.357 . S
C1335 C1334 1.357 . S
C1335 C1336 1.406 . S
C1336 H1310 0.929 . S
C1336 C1335 1.406 . S
C1336 C1337 1.391 . S
C1337 H1309 0.931 . S
C1337 C1332 1.370 . S
C1337 C1336 1.391 . S
C1338 N1307 1.435 . S
C1338 C1339 1.358 . S
C1338 C1343 1.371 . S
C1339 H1311 0.930 . S
C1339 C1338 1.358 . S
C1339 C1340 1.405 . S
C1340 H1312 0.932 . S
C1340 C1339 1.405 . S
C1340 C1341 1.383 . S
C1341 C1340 1.383 . S
C1341 C1342 1.393 . S
C1342 H1314 0.931 . S
C1342 C1341 1.393 . S
C1342 C1343 1.382 . S
C1343 H1313 0.929 . S
C1343 C1338 1.371 . S
C1343 C1342 1.382 . S
C1344 N1307 1.423 . S
C1344 C1345 1.362 . S
C1344 C1349 1.388 . S
C1345 H1315 0.929 . S
C1345 C1344 1.362 . S
C1345 C1346 1.376 . S
C1346 H1317 0.931 . S
C1346 C1345 1.376 . S
C1346 C1347 1.396 . S
C1347 C1346 1.396 . S
C1347 C1348 1.348 . S
C1347 C1365 1.472 . S
C1348 H1318 0.929 . S
C1348 C1347 1.348 . S
C1348 C1349 1.443 . S
C1349 H1316 0.932 . S
C1349 C1344 1.388 . S
C1349 C1348 1.443 . S
C1350 N1330 1.433 . S
C1350 C1351 1.363 . S
C1350 C1355 1.370 . S
C1351 H1319 0.929 . S
C1351 C1350 1.363 . S
C1351 C1352 1.385 . S
C1352 H1320 0.930 . S
C1352 C1351 1.385 . S
C1352 C1353 1.357 . S
C1353 C1352 1.357 . S
C1353 C1354 1.406 . S
C1354 H1321 0.929 . S
C1354 C1353 1.406 . S
C1354 C1355 1.391 . S
C1355 H1322 0.931 . S
C1355 C1350 1.370 . S
C1355 C1354 1.391 . S
C1356 N1330 1.435 . S
C1356 C1357 1.358 . S
C1356 C1361 1.371 . S
C1357 H1323 0.930 . S
C1357 C1356 1.358 . S
C1357 C1358 1.405 . S
C1358 H1324 0.932 . S
C1358 C1357 1.405 . S
C1358 C1359 1.383 . S
C1359 C1358 1.383 . S
C1359 C1360 1.393 . S
C1360 H1325 0.931 . S
C1360 C1359 1.393 . S
C1360 C1361 1.382 . S
C1361 H1326 0.929 . S
C1361 C1356 1.371 . S
C1361 C1360 1.382 . S
C1362 N1330 1.423 . S
C1362 C1363 1.362 . S
C1362 C1367 1.388 . S
C1363 H1327 0.929 . S
C1363 C1362 1.362 . S
C1363 C1364 1.376 . S
C1364 H1328 0.931 . S
C1364 C1363 1.376 . S
C1364 C1365 1.396 . S
C1365 C1347 1.472 . S
C1365 C1364 1.396 . S
C1365 C1366 1.348 . S
C1366 H1329 0.929 . S
C1366 C1365 1.348 . S
C1366 C1367 1.443 . S
C1367 H1331 0.932 . S
C1367 C1362 1.388 . S
C1367 C1366 1.443 . S
C1368 C1369 1.369 . S
C1368 C1370 1.419 . S
C1368 H1372 0.930 . S
C1369 C1368 1.369 . S
C1369 C1378 1.427 . S
C1370 C1368 1.419 . S
C1370 C1371 1.363 . S
C1370 H1373 0.929 . S
C1371 C1370 1.363 . S
C1371 C1377 1.428 . S
H1372 C1368 0.930 . S
H1373 C1370 0.929 . S
S1374 N1375 1.613 . S
S1374 N1376 1.610 . S
N1375 S1374 1.613 . S
N1375 C1378 1.349 1_455 S
N1376 S1374 1.610 . S
N1376 C1377 1.351 1_455 S
C1377 C1371 1.428 . S
C1377 N1376 1.351 1_655 S
C1377 C1378 1.436 . S
C1378 C1369 1.427 . S
C1378 N1375 1.349 1_655 S
C1378 C1377 1.436 . S
C1379 C1380 1.369 . S
C1379 C1381 1.419 . S
C1379 H1383 0.930 . S
C1380 C1379 1.369 . S
C1380 C1389 1.429 . S
C1381 C1379 1.419 . S
C1381 C1382 1.363 . S
C1381 H1384 0.929 . S
C1382 C1381 1.363 . S
C1382 C1388 1.428 . S
H1383 C1379 0.930 . S
H1384 C1381 0.929 . S
S1385 N1386 1.613 . S
S1385 N1387 1.610 . S
N1386 S1385 1.613 . S
N1386 C1389 1.350 . S
N1387 S1385 1.610 . S
N1387 C1388 1.351 . S
C1388 C1382 1.428 . S
C1388 N1387 1.351 . S
C1388 C1389 1.434 . S
C1389 C1380 1.429 . S
C1389 N1386 1.350 . S
C1389 C1388 1.434 . S
C1390 C1391 1.369 . S
C1390 C1392 1.419 . S
C1390 H1394 0.930 . S
C1391 C1390 1.369 . S
C1391 C1400 1.429 1_545 S
C1392 C1390 1.419 . S
C1392 C1393 1.363 . S
C1392 H1395 0.929 . S
C1393 C1392 1.363 . S
C1393 C1399 1.428 1_545 S
H1394 C1390 0.930 . S
H1395 C1392 0.929 . S
S1396 N1397 1.613 . S
S1396 N1398 1.610 . S
N1397 S1396 1.613 . S
N1397 C1400 1.350 . S
N1398 S1396 1.610 . S
N1398 C1399 1.351 . S
C1399 C1393 1.428 1_565 S
C1399 N1398 1.351 . S
C1399 C1400 1.434 . S
C1400 C1391 1.429 1_565 S
C1400 N1397 1.350 . S
C1400 C1399 1.434 . S
C1401 C1402 1.369 1_545 S
C1401 C1403 1.419 . S
C1401 H1405 0.930 . S
C1402 C1401 1.369 1_565 S
C1402 C1411 1.429 . S
C1403 C1401 1.419 . S
C1403 C1404 1.363 1_545 S
C1403 H1406 0.929 . S
C1404 C1403 1.363 1_565 S
C1404 C1410 1.428 . S
H1405 C1401 0.930 . S
H1406 C1403 0.929 . S
S1407 N1408 1.613 . S
S1407 N1409 1.610 . S
N1408 S1407 1.613 . S
N1408 C1411 1.350 . S
N1409 S1407 1.610 . S
N1409 C1410 1.351 . S
C1410 C1404 1.428 . S
C1410 N1409 1.351 . S
C1410 C1411 1.434 . S
C1411 C1402 1.429 . S
C1411 N1408 1.350 . S
C1411 C1410 1.434 . S
C1412 C1413 1.369 . S
C1412 C1414 1.419 . S
C1412 H1416 0.930 . S
C1413 C1412 1.369 . S
C1413 C1422 1.429 . S
C1414 C1412 1.419 . S
C1414 C1415 1.363 . S
C1414 H1417 0.929 . S
C1415 C1414 1.363 . S
C1415 C1421 1.429 . S
H1416 C1412 0.930 . S
H1417 C1414 0.929 . S
S1418 N1419 1.613 . S
S1418 N1420 1.610 . S
N1419 S1418 1.613 . S
N1419 C1422 1.350 1_655 S
N1420 S1418 1.610 . S
N1420 C1421 1.350 1_655 S
C1421 C1415 1.429 . S
C1421 N1420 1.350 1_455 S
C1421 C1422 1.434 . S
C1422 C1413 1.429 . S
C1422 N1419 1.350 1_455 S
C1422 C1421 1.434 . S
C1423 C1424 1.369 . S
C1423 C1425 1.419 . S
C1423 H1427 0.930 . S
C1424 C1423 1.369 . S
C1424 C1433 1.429 . S
C1425 C1423 1.419 . S
C1425 C1426 1.363 . S
C1425 H1428 0.929 . S
C1426 C1425 1.363 . S
C1426 C1432 1.428 . S
H1427 C1423 0.930 . S
H1428 C1425 0.929 . S
S1429 N1430 1.613 . S
S1429 N1431 1.610 . S
N1430 S1429 1.613 . S
N1430 C1433 1.350 . S
N1431 S1429 1.610 . S
N1431 C1432 1.351 . S
C1432 C1426 1.428 . S
C1432 N1431 1.351 . S
C1432 C1433 1.434 . S
C1433 C1424 1.429 . S
C1433 N1430 1.350 . S
C1433 C1432 1.434 . S
C1434 C1435 1.369 . S
C1434 C1436 1.419 . S
C1434 H1438 0.930 . S
C1435 C1434 1.369 . S
C1435 C1444 1.429 1_455 S
C1436 C1434 1.419 . S
C1436 C1437 1.363 . S
C1436 H1439 0.929 . S
C1437 C1436 1.363 . S
C1437 C1443 1.428 1_455 S
H1438 C1434 0.930 . S
H1439 C1436 0.929 . S
S1440 N1441 1.613 . S
S1440 N1442 1.610 . S
N1441 S1440 1.613 . S
N1441 C1444 1.350 . S
N1442 S1440 1.610 . S
N1442 C1443 1.351 . S
C1443 C1437 1.428 1_655 S
C1443 N1442 1.351 . S
C1443 C1444 1.434 . S
C1444 C1435 1.429 1_655 S
C1444 N1441 1.350 . S
C1444 C1443 1.434 . S
C1445 C1446 1.369 . S
C1445 C1447 1.419 . S
C1445 H1449 0.930 . S
C1446 C1445 1.369 . S
C1446 C1455 1.429 . S
C1447 C1445 1.419 . S
C1447 C1448 1.363 . S
C1447 H1450 0.929 . S
C1448 C1447 1.363 . S
C1448 C1454 1.428 . S
H1449 C1445 0.930 . S
H1450 C1447 0.929 . S
S1451 N1452 1.613 . S
S1451 N1453 1.610 . S
N1452 S1451 1.613 . S
N1452 C1455 1.350 . S
N1453 S1451 1.610 . S
N1453 C1454 1.351 . S
C1454 C1448 1.428 . S
C1454 N1453 1.351 . S
C1454 C1455 1.434 . S
C1455 C1446 1.429 . S
C1455 N1452 1.350 . S
C1455 C1454 1.434 . S
C1456 C1457 1.369 1_545 S
C1456 C1458 1.419 . S
C1456 H1460 0.930 . S
C1457 C1456 1.369 1_565 S
C1457 C1466 1.429 . S
C1458 C1456 1.419 . S
C1458 C1459 1.363 1_545 S
C1458 H1461 0.929 . S
C1459 C1458 1.363 1_565 S
C1459 C1465 1.428 . S
H1460 C1456 0.930 . S
H1461 C1458 0.929 . S
S1462 N1463 1.613 . S
S1462 N1464 1.610 . S
N1463 S1462 1.613 . S
N1463 C1466 1.350 . S
N1464 S1462 1.610 . S
N1464 C1465 1.351 . S
C1465 C1459 1.428 . S
C1465 N1464 1.351 . S
C1465 C1466 1.434 . S
C1466 C1457 1.429 . S
C1466 N1463 1.350 . S
C1466 C1465 1.434 . S
C1467 C1468 1.369 1_565 S
C1467 C1469 1.419 . S
C1467 H1471 0.930 . S
C1468 C1467 1.369 1_545 S
C1468 C1477 1.429 . S
C1469 C1467 1.419 . S
C1469 C1470 1.363 1_565 S
C1469 H1472 0.929 . S
C1470 C1469 1.363 1_545 S
C1470 C1476 1.428 . S
H1471 C1467 0.930 . S
H1472 C1469 0.929 . S
S1473 N1474 1.613 . S
S1473 N1475 1.610 . S
N1474 S1473 1.613 . S
N1474 C1477 1.350 . S
N1475 S1473 1.610 . S
N1475 C1476 1.351 . S
C1476 C1470 1.428 . S
C1476 N1475 1.351 . S
C1476 C1477 1.434 . S
C1477 C1468 1.429 . S
C1477 N1474 1.350 . S
C1477 C1476 1.434 . S
C1478 C1479 1.369 . S
C1478 C1480 1.419 . S
C1478 H1482 0.930 . S
C1479 C1478 1.369 . S
C1479 C1488 1.412 1_655 S
C1480 C1478 1.419 . S
C1480 C1481 1.363 . S
C1480 H1483 0.929 . S
C1481 C1480 1.363 . S
C1481 C1487 1.435 1_655 S
H1482 C1478 0.930 . S
H1483 C1480 0.929 . S
S1484 N1485 1.613 . S
S1484 N1486 1.610 . S
N1485 S1484 1.613 . S
N1485 C1488 1.351 . S
N1486 S1484 1.610 . S
N1486 C1487 1.367 . S
C1487 C1481 1.435 1_455 S
C1487 N1486 1.367 . S
C1487 C1488 1.439 . S
C1488 C1479 1.412 1_455 S
C1488 N1485 1.351 . S
C1488 C1487 1.439 . S
C1489 C1490 1.369 . S
C1489 C1491 1.419 . S
C1489 H1493 0.930 . S
C1490 C1489 1.369 . S
C1490 C1499 1.429 . S
C1491 C1489 1.419 . S
C1491 C1492 1.363 . S
C1491 H1494 0.929 . S
C1492 C1491 1.363 . S
C1492 C1498 1.428 . S
H1493 C1489 0.930 . S
H1494 C1491 0.929 . S
S1495 N1496 1.613 . S
S1495 N1497 1.610 . S
N1496 S1495 1.613 . S
N1496 C1499 1.350 . S
N1497 S1495 1.610 . S
N1497 C1498 1.351 . S
C1498 C1492 1.428 . S
C1498 N1497 1.351 . S
C1498 C1499 1.434 . S
C1499 C1490 1.429 . S
C1499 N1496 1.350 . S
C1499 C1498 1.434 . S
C1500 C1501 1.369 . S
C1500 C1502 1.419 . S
C1500 H1504 0.930 . S
C1501 C1500 1.369 . S
C1501 C1510 1.429 . S
C1502 C1500 1.419 . S
C1502 C1503 1.363 . S
C1502 H1505 0.929 . S
C1503 C1502 1.363 . S
C1503 C1509 1.428 . S
H1504 C1500 0.930 . S
H1505 C1502 0.929 . S
S1506 N1507 1.613 . S
S1506 N1508 1.610 . S
N1507 S1506 1.613 . S
N1507 C1510 1.350 . S
N1508 S1506 1.610 . S
N1508 C1509 1.351 . S
C1509 C1503 1.428 . S
C1509 N1508 1.351 . S
C1509 C1510 1.434 . S
C1510 C1501 1.429 . S
C1510 N1507 1.350 . S
C1510 C1509 1.434 . S
C1511 C1512 1.369 . S
C1511 C1513 1.419 . S
C1511 H1515 0.930 . S
C1512 C1511 1.369 . S
C1512 C1521 1.429 . S
C1513 C1511 1.419 . S
C1513 C1514 1.363 . S
C1513 H1516 0.929 . S
C1514 C1513 1.363 . S
C1514 C1520 1.428 . S
H1515 C1511 0.930 . S
H1516 C1513 0.929 . S
S1517 N1518 1.613 . S
S1517 N1519 1.610 . S
N1518 S1517 1.613 . S
N1518 C1521 1.350 . S
N1519 S1517 1.610 . S
N1519 C1520 1.351 . S
C1520 C1514 1.428 . S
C1520 N1519 1.351 . S
C1520 C1521 1.434 . S
C1521 C1512 1.429 . S
C1521 N1518 1.350 . S
C1521 C1520 1.434 . S
C1522 C1523 1.369 . S
C1522 C1524 1.419 . S
C1522 H1526 0.930 . S
C1523 C1522 1.369 . S
C1523 C1532 1.429 . S
C1524 C1522 1.419 . S
C1524 C1525 1.363 . S
C1524 H1527 0.929 . S
C1525 C1524 1.363 . S
C1525 C1531 1.428 . S
H1526 C1522 0.930 . S
H1527 C1524 0.929 . S
S1528 N1529 1.613 . S
S1528 N1530 1.610 . S
N1529 S1528 1.613 . S
N1529 C1532 1.350 . S
N1530 S1528 1.610 . S
N1530 C1531 1.351 . S
C1531 C1525 1.428 . S
C1531 N1530 1.351 . S
C1531 C1532 1.434 . S
C1532 C1523 1.429 . S
C1532 N1529 1.350 . S
C1532 C1531 1.434 . S
C1533 C1534 1.369 . S
C1533 C1535 1.419 . S
C1533 H1537 0.930 . S
C1534 C1533 1.369 . S
C1534 C1543 1.429 . S
C1535 C1533 1.419 . S
C1535 C1536 1.363 . S
C1535 H1538 0.929 . S
C1536 C1535 1.363 . S
C1536 C1542 1.428 . S
H1537 C1533 0.930 . S
H1538 C1535 0.929 . S
S1539 N1540 1.613 . S
S1539 N1541 1.610 . S
N1540 S1539 1.613 . S
N1540 C1543 1.350 . S
N1541 S1539 1.610 . S
N1541 C1542 1.351 . S
C1542 C1536 1.428 . S
C1542 N1541 1.351 . S
C1542 C1543 1.434 . S
C1543 C1534 1.429 . S
C1543 N1540 1.350 . S
C1543 C1542 1.434 . S
C1544 C1545 1.369 . S
C1544 C1546 1.419 . S
C1544 H1548 0.930 . S
C1545 C1544 1.369 . S
C1545 C1554 1.429 . S
C1546 C1544 1.419 . S
C1546 C1547 1.363 . S
C1546 H1549 0.929 . S
C1547 C1546 1.363 . S
C1547 C1553 1.428 . S
H1548 C1544 0.930 . S
H1549 C1546 0.929 . S
S1550 N1551 1.613 . S
S1550 N1552 1.610 . S
N1551 S1550 1.613 . S
N1551 C1554 1.350 . S
N1552 S1550 1.610 . S
N1552 C1553 1.351 . S
C1553 C1547 1.428 . S
C1553 N1552 1.351 . S
C1553 C1554 1.434 . S
C1554 C1545 1.429 . S
C1554 N1551 1.350 . S
C1554 C1553 1.434 . S
C1555 C1556 1.369 . S
C1555 C1557 1.419 . S
C1555 H1559 0.930 . S
C1556 C1555 1.369 . S
C1556 C1565 1.429 . S
C1557 C1555 1.419 . S
C1557 C1558 1.363 . S
C1557 H1560 0.929 . S
C1558 C1557 1.363 . S
C1558 C1564 1.428 . S
H1559 C1555 0.930 . S
H1560 C1557 0.929 . S
S1561 N1562 1.613 . S
S1561 N1563 1.610 . S
N1562 S1561 1.613 . S
N1562 C1565 1.350 . S
N1563 S1561 1.610 . S
N1563 C1564 1.351 . S
C1564 C1558 1.428 . S
C1564 N1563 1.351 . S
C1564 C1565 1.434 . S
C1565 C1556 1.429 . S
C1565 N1562 1.350 . S
C1565 C1564 1.434 . S
C1566 C1567 1.369 . S
C1566 C1568 1.419 . S
C1566 H1570 0.930 . S
C1567 C1566 1.369 . S
C1567 C1576 1.429 . S
C1568 C1566 1.419 . S
C1568 C1569 1.363 . S
C1568 H1571 0.929 . S
C1569 C1568 1.363 . S
C1569 C1575 1.428 . S
H1570 C1566 0.930 . S
H1571 C1568 0.929 . S
S1572 N1573 1.613 . S
S1572 N1574 1.610 . S
N1573 S1572 1.613 . S
N1573 C1576 1.350 . S
N1574 S1572 1.610 . S
N1574 C1575 1.351 . S
C1575 C1569 1.428 . S
C1575 N1574 1.351 . S
C1575 C1576 1.434 . S
C1576 C1567 1.429 . S
C1576 N1573 1.350 . S
C1576 C1575 1.434 . S
C1577 C1578 1.369 . S
C1577 C1579 1.419 . S
C1577 H1581 0.930 . S
C1578 C1577 1.369 . S
C1578 C1587 1.429 . S
C1579 C1577 1.419 . S
C1579 C1580 1.363 . S
C1579 H1582 0.929 . S
C1580 C1579 1.363 . S
C1580 C1586 1.428 . S
H1581 C1577 0.930 . S
H1582 C1579 0.929 . S
S1583 N1584 1.613 . S
S1583 N1585 1.610 . S
N1584 S1583 1.613 . S
N1584 C1587 1.350 . S
N1585 S1583 1.610 . S
N1585 C1586 1.351 . S
C1586 C1580 1.428 . S
C1586 N1585 1.351 . S
C1586 C1587 1.434 . S
C1587 C1578 1.429 . S
C1587 N1584 1.350 . S
C1587 C1586 1.434 . S
C1588 C1589 1.369 . S
C1588 C1590 1.419 . S
C1588 H1592 0.930 . S
C1589 C1588 1.369 . S
C1589 C1598 1.429 . S
C1590 C1588 1.419 . S
C1590 C1591 1.363 . S
C1590 H1593 0.929 . S
C1591 C1590 1.363 . S
C1591 C1597 1.428 . S
H1592 C1588 0.930 . S
H1593 C1590 0.929 . S
S1594 N1595 1.613 . S
S1594 N1596 1.610 . S
N1595 S1594 1.613 . S
N1595 C1598 1.350 . S
N1596 S1594 1.610 . S
N1596 C1597 1.351 . S
C1597 C1591 1.428 . S
C1597 N1596 1.351 . S
C1597 C1598 1.434 . S
C1598 C1589 1.429 . S
C1598 N1595 1.350 . S
C1598 C1597 1.434 . S
C1599 C1600 1.369 . S
C1599 C1601 1.419 . S
C1599 H1603 0.930 . S
C1600 C1599 1.369 . S
C1600 C1609 1.429 . S
C1601 C1599 1.419 . S
C1601 C1602 1.363 . S
C1601 H1604 0.929 . S
C1602 C1601 1.363 . S
C1602 C1608 1.428 . S
H1603 C1599 0.930 . S
H1604 C1601 0.929 . S
S1605 N1606 1.613 . S
S1605 N1607 1.610 . S
N1606 S1605 1.613 . S
N1606 C1609 1.350 . S
N1607 S1605 1.610 . S
N1607 C1608 1.351 . S
C1608 C1602 1.428 . S
C1608 N1607 1.351 . S
C1608 C1609 1.434 . S
C1609 C1600 1.429 . S
C1609 N1606 1.350 . S
C1609 C1608 1.434 . S
C1610 C1611 1.369 . S
C1610 C1612 1.419 . S
C1610 H1614 0.930 . S
C1611 C1610 1.369 . S
C1611 C1620 1.429 . S
C1612 C1610 1.419 . S
C1612 C1613 1.363 . S
C1612 H1615 0.929 . S
C1613 C1612 1.363 . S
C1613 C1619 1.428 . S
H1614 C1610 0.930 . S
H1615 C1612 0.929 . S
S1616 N1617 1.613 . S
S1616 N1618 1.610 . S
N1617 S1616 1.613 . S
N1617 C1620 1.350 . S
N1618 S1616 1.610 . S
N1618 C1619 1.351 . S
C1619 C1613 1.428 . S
C1619 N1618 1.351 . S
C1619 C1620 1.434 . S
C1620 C1611 1.429 . S
C1620 N1617 1.350 . S
C1620 C1619 1.434 . S
C1621 C1622 1.369 . S
C1621 C1623 1.419 . S
C1621 H1625 0.930 . S
C1622 C1621 1.369 . S
C1622 C1631 1.429 . S
C1623 C1621 1.419 . S
C1623 C1624 1.363 . S
C1623 H1626 0.929 . S
C1624 C1623 1.363 . S
C1624 C1630 1.428 . S
H1625 C1621 0.930 . S
H1626 C1623 0.929 . S
S1627 N1628 1.613 . S
S1627 N1629 1.610 . S
N1628 S1627 1.613 . S
N1628 C1631 1.350 . S
N1629 S1627 1.610 . S
N1629 C1630 1.351 . S
C1630 C1624 1.428 . S
C1630 N1629 1.351 . S
C1630 C1631 1.434 . S
C1631 C1622 1.429 . S
C1631 N1628 1.350 . S
C1631 C1630 1.434 . S
C1632 C1633 1.369 . S
C1632 C1634 1.419 . S
C1632 H1636 0.930 . S
C1633 C1632 1.369 . S
C1633 C1642 1.429 . S
C1634 C1632 1.419 . S
C1634 C1635 1.363 . S
C1634 H1637 0.929 . S
C1635 C1634 1.363 . S
C1635 C1641 1.428 . S
H1636 C1632 0.930 . S
H1637 C1634 0.929 . S
S1638 N1639 1.613 . S
S1638 N1640 1.610 . S
N1639 S1638 1.613 . S
N1639 C1642 1.350 . S
N1640 S1638 1.610 . S
N1640 C1641 1.351 . S
C1641 C1635 1.428 . S
C1641 N1640 1.351 . S
C1641 C1642 1.434 . S
C1642 C1633 1.429 . S
C1642 N1639 1.350 . S
C1642 C1641 1.434 . S
C1643 C1644 1.369 . S
C1643 C1645 1.419 . S
C1643 H1647 0.930 . S
C1644 C1643 1.369 . S
C1644 C1653 1.429 . S
C1645 C1643 1.419 . S
C1645 C1646 1.363 . S
C1645 H1648 0.929 . S
C1646 C1645 1.363 . S
C1646 C1652 1.428 . S
H1647 C1643 0.930 . S
H1648 C1645 0.929 . S
S1649 N1650 1.613 . S
S1649 N1651 1.610 . S
N1650 S1649 1.613 . S
N1650 C1653 1.350 . S
N1651 S1649 1.610 . S
N1651 C1652 1.351 . S
C1652 C1646 1.428 . S
C1652 N1651 1.351 . S
C1652 C1653 1.434 . S
C1653 C1644 1.429 . S
C1653 N1650 1.350 . S
C1653 C1652 1.434 . S
C1654 C1655 1.369 . S
C1654 C1656 1.419 . S
C1654 H1658 0.930 . S
C1655 C1654 1.369 . S
C1655 C1664 1.429 . S
C1656 C1654 1.419 . S
C1656 C1657 1.363 . S
C1656 H1659 0.929 . S
C1657 C1656 1.363 . S
C1657 C1663 1.428 . S
H1658 C1654 0.930 . S
H1659 C1656 0.929 . S
S1660 N1661 1.613 . S
S1660 N1662 1.610 . S
N1661 S1660 1.613 . S
N1661 C1664 1.350 . S
N1662 S1660 1.610 . S
N1662 C1663 1.351 . S
C1663 C1657 1.428 . S
C1663 N1662 1.351 . S
C1663 C1664 1.434 . S
C1664 C1655 1.429 . S
C1664 N1661 1.350 . S
C1664 C1663 1.434 . S
C1665 C1666 1.369 . S
C1665 C1667 1.419 . S
C1665 H1669 0.930 . S
C1666 C1665 1.369 . S
C1666 C1675 1.429 . S
C1667 C1665 1.419 . S
C1667 C1668 1.363 . S
C1667 H1670 0.929 . S
C1668 C1667 1.363 . S
C1668 C1674 1.428 . S
H1669 C1665 0.930 . S
H1670 C1667 0.929 . S
S1671 N1672 1.613 . S
S1671 N1673 1.610 . S
N1672 S1671 1.613 . S
N1672 C1675 1.350 . S
N1673 S1671 1.610 . S
N1673 C1674 1.351 . S
C1674 C1668 1.428 . S
C1674 N1673 1.351 . S
C1674 C1675 1.434 . S
C1675 C1666 1.429 . S
C1675 N1672 1.350 . S
C1675 C1674 1.434 . S
C1676 C1677 1.369 . S
C1676 C1678 1.419 . S
C1676 H1680 0.930 . S
C1677 C1676 1.369 . S
C1677 C1686 1.429 . S
C1678 C1676 1.419 . S
C1678 C1679 1.363 . S
C1678 H1681 0.929 . S
C1679 C1678 1.363 . S
C1679 C1685 1.428 . S
H1680 C1676 0.930 . S
H1681 C1678 0.929 . S
S1682 N1683 1.613 . S
S1682 N1684 1.610 . S
N1683 S1682 1.613 . S
N1683 C1686 1.350 . S
N1684 S1682 1.610 . S
N1684 C1685 1.351 . S
C1685 C1679 1.428 . S
C1685 N1684 1.351 . S
C1685 C1686 1.434 . S
C1686 C1677 1.429 . S
C1686 N1683 1.350 . S
C1686 C1685 1.434 . S
C1687 C1688 1.369 . S
C1687 C1689 1.419 . S
C1687 H1691 0.930 . S
C1688 C1687 1.369 . S
C1688 C1697 1.429 . S
C1689 C1687 1.419 . S
C1689 C1690 1.363 . S
C1689 H1692 0.929 . S
C1690 C1689 1.363 . S
C1690 C1696 1.428 . S
H1691 C1687 0.930 . S
H1692 C1689 0.929 . S
S1693 N1694 1.613 . S
S1693 N1695 1.610 . S
N1694 S1693 1.613 . S
N1694 C1697 1.350 . S
N1695 S1693 1.610 . S
N1695 C1696 1.351 . S
C1696 C1690 1.428 . S
C1696 N1695 1.351 . S
C1696 C1697 1.434 . S
C1697 C1688 1.429 . S
C1697 N1694 1.350 . S
C1697 C1696 1.434 . S
C1698 C1699 1.369 . S
C1698 C1700 1.419 . S
C1698 H1702 0.930 . S
C1699 C1698 1.369 . S
C1699 C1708 1.429 . S
C1700 C1698 1.419 . S
C1700 C1701 1.363 . S
C1700 H1703 0.929 . S
C1701 C1700 1.363 . S
C1701 C1707 1.428 . S
H1702 C1698 0.930 . S
H1703 C1700 0.929 . S
S1704 N1705 1.613 . S
S1704 N1706 1.610 . S
N1705 S1704 1.613 . S
N1705 C1708 1.350 . S
N1706 S1704 1.610 . S
N1706 C1707 1.351 . S
C1707 C1701 1.428 . S
C1707 N1706 1.351 . S
C1707 C1708 1.434 . S
C1708 C1699 1.429 . S
C1708 N1705 1.350 . S
C1708 C1707 1.434 . S
C1709 C1710 1.369 . S
C1709 C1711 1.419 . S
C1709 H1713 0.930 . S
C1710 C1709 1.369 . S
C1710 C1719 1.429 . S
C1711 C1709 1.419 . S
C1711 C1712 1.363 . S
C1711 H1714 0.929 . S
C1712 C1711 1.363 . S
C1712 C1718 1.428 . S
H1713 C1709 0.930 . S
H1714 C1711 0.929 . S
S1715 N1716 1.613 . S
S1715 N1717 1.610 . S
N1716 S1715 1.613 . S
N1716 C1719 1.350 . S
N1717 S1715 1.610 . S
N1717 C1718 1.351 . S
C1718 C1712 1.428 . S
C1718 N1717 1.351 . S
C1718 C1719 1.434 . S
C1719 C1710 1.429 . S
C1719 N1716 1.350 . S
C1719 C1718 1.434 . S
C1720 C1721 1.369 . S
C1720 C1722 1.419 . S
C1720 H1724 0.930 . S
C1721 C1720 1.369 . S
C1721 C1730 1.429 . S
C1722 C1720 1.419 . S
C1722 C1723 1.363 . S
C1722 H1725 0.929 . S
C1723 C1722 1.363 . S
C1723 C1729 1.428 . S
H1724 C1720 0.930 . S
H1725 C1722 0.929 . S
S1726 N1727 1.613 . S
S1726 N1728 1.610 . S
N1727 S1726 1.613 . S
N1727 C1730 1.350 . S
N1728 S1726 1.610 . S
N1728 C1729 1.351 . S
C1729 C1723 1.428 . S
C1729 N1728 1.351 . S
C1729 C1730 1.434 . S
C1730 C1721 1.429 . S
C1730 N1727 1.350 . S
C1730 C1729 1.434 . S
C1731 C1732 1.369 . S
C1731 C1733 1.419 . S
C1731 H1735 0.930 . S
C1732 C1731 1.369 . S
C1732 C1741 1.429 . S
C1733 C1731 1.419 . S
C1733 C1734 1.363 . S
C1733 H1736 0.929 . S
C1734 C1733 1.363 . S
C1734 C1740 1.428 . S
H1735 C1731 0.930 . S
H1736 C1733 0.929 . S
S1737 N1738 1.613 . S
S1737 N1739 1.610 . S
N1738 S1737 1.613 . S
N1738 C1741 1.350 . S
N1739 S1737 1.610 . S
N1739 C1740 1.351 . S
C1740 C1734 1.428 . S
C1740 N1739 1.351 . S
C1740 C1741 1.434 . S
C1741 C1732 1.429 . S
C1741 N1738 1.350 . S
C1741 C1740 1.434 . S
C1742 C1743 1.369 . S
C1742 C1744 1.419 . S
C1742 H1746 0.930 . S
C1743 C1742 1.369 . S
C1743 C1752 1.429 . S
C1744 C1742 1.419 . S
C1744 C1745 1.363 . S
C1744 H1747 0.929 . S
C1745 C1744 1.363 . S
C1745 C1751 1.428 . S
H1746 C1742 0.930 . S
H1747 C1744 0.929 . S
S1748 N1749 1.613 . S
S1748 N1750 1.610 . S
N1749 S1748 1.613 . S
N1749 C1752 1.350 . S
N1750 S1748 1.610 . S
N1750 C1751 1.351 . S
C1751 C1745 1.428 . S
C1751 N1750 1.351 . S
C1751 C1752 1.434 . S
C1752 C1743 1.429 . S
C1752 N1749 1.350 . S
C1752 C1751 1.434 . S
C1753 C1754 1.369 . S
C1753 C1755 1.419 . S
C1753 H1757 0.930 . S
C1754 C1753 1.369 . S
C1754 C1763 1.429 . S
C1755 C1753 1.419 . S
C1755 C1756 1.363 . S
C1755 H1758 0.929 . S
C1756 C1755 1.363 . S
C1756 C1762 1.428 . S
H1757 C1753 0.930 . S
H1758 C1755 0.929 . S
S1759 N1760 1.613 . S
S1759 N1761 1.610 . S
N1760 S1759 1.613 . S
N1760 C1763 1.350 . S
N1761 S1759 1.610 . S
N1761 C1762 1.351 . S
C1762 C1756 1.428 . S
C1762 N1761 1.351 . S
C1762 C1763 1.434 . S
C1763 C1754 1.429 . S
C1763 N1760 1.350 . S
C1763 C1762 1.434 . S
C1764 C1765 1.369 . S
C1764 C1766 1.419 . S
C1764 H1768 0.930 . S
C1765 C1764 1.369 . S
C1765 C1774 1.429 . S
C1766 C1764 1.419 . S
C1766 C1767 1.363 . S
C1766 H1769 0.929 . S
C1767 C1766 1.363 . S
C1767 C1773 1.428 . S
H1768 C1764 0.930 . S
H1769 C1766 0.929 . S
S1770 N1771 1.613 . S
S1770 N1772 1.610 . S
N1771 S1770 1.613 . S
N1771 C1774 1.350 . S
N1772 S1770 1.610 . S
N1772 C1773 1.351 . S
C1773 C1767 1.428 . S
C1773 N1772 1.351 . S
C1773 C1774 1.434 . S
C1774 C1765 1.429 . S
C1774 N1771 1.350 . S
C1774 C1773 1.434 . S
C1775 C1776 1.369 . S
C1775 C1777 1.419 . S
C1775 H1779 0.930 . S
C1776 C1775 1.369 . S
C1776 C1785 1.429 . S
C1777 C1775 1.419 . S
C1777 C1778 1.363 . S
C1777 H1780 0.929 . S
C1778 C1777 1.363 . S
C1778 C1784 1.428 . S
H1779 C1775 0.930 . S
H1780 C1777 0.929 . S
S1781 N1782 1.613 . S
S1781 N1783 1.610 . S
N1782 S1781 1.613 . S
N1782 C1785 1.350 . S
N1783 S1781 1.610 . S
N1783 C1784 1.351 . S
C1784 C1778 1.428 . S
C1784 N1783 1.351 . S
C1784 C1785 1.434 . S
C1785 C1776 1.429 . S
C1785 N1782 1.350 . S
C1785 C1784 1.434 . S
C1786 C1787 1.369 . S
C1786 C1788 1.419 . S
C1786 H1790 0.930 . S
C1787 C1786 1.369 . S
C1787 C1796 1.429 . S
C1788 C1786 1.419 . S
C1788 C1789 1.363 . S
C1788 H1791 0.929 . S
C1789 C1788 1.363 . S
C1789 C1795 1.428 . S
H1790 C1786 0.930 . S
H1791 C1788 0.929 . S
S1792 N1793 1.613 . S
S1792 N1794 1.610 . S
N1793 S1792 1.613 . S
N1793 C1796 1.350 . S
N1794 S1792 1.610 . S
N1794 C1795 1.351 . S
C1795 C1789 1.428 . S
C1795 N1794 1.351 . S
C1795 C1796 1.434 . S
C1796 C1787 1.429 . S
C1796 N1793 1.350 . S
C1796 C1795 1.434 . S
C1797 C1798 1.369 1_554 S
C1797 C1799 1.419 . S
C1797 H1801 0.930 . S
C1798 C1797 1.369 1_556 S
C1798 C1807 1.429 . S
C1799 C1797 1.419 . S
C1799 C1800 1.363 1_554 S
C1799 H1802 0.929 . S
C1800 C1799 1.363 1_556 S
C1800 C1806 1.428 . S
H1801 C1797 0.930 . S
H1802 C1799 0.929 . S
S1803 N1804 1.613 . S
S1803 N1805 1.610 . S
N1804 S1803 1.613 . S
N1804 C1807 1.350 . S
N1805 S1803 1.610 . S
N1805 C1806 1.351 . S
C1806 C1800 1.428 . S
C1806 N1805 1.351 . S
C1806 C1807 1.434 . S
C1807 C1798 1.429 . S
C1807 N1804 1.350 . S
C1807 C1806 1.434 . S
C1808 C1809 1.369 1_554 S
C1808 C1810 1.419 . S
C1808 H1812 0.930 . S
C1809 C1808 1.369 1_556 S
C1809 C1818 1.429 . S
C1810 C1808 1.419 . S
C1810 C1811 1.363 1_554 S
C1810 H1813 0.929 . S
C1811 C1810 1.363 1_556 S
C1811 C1817 1.428 . S
H1812 C1808 0.930 . S
H1813 C1810 0.929 . S
S1814 N1815 1.613 . S
S1814 N1816 1.610 . S
N1815 S1814 1.613 . S
N1815 C1818 1.350 . S
N1816 S1814 1.610 . S
N1816 C1817 1.351 . S
C1817 C1811 1.428 . S
C1817 N1816 1.351 . S
C1817 C1818 1.434 . S
C1818 C1809 1.429 . S
C1818 N1815 1.350 . S
C1818 C1817 1.434 . S
C1819 C1820 1.369 . S
C1819 C1821 1.419 . S
C1819 H1823 0.930 . S
C1820 C1819 1.369 . S
C1820 C1829 1.429 1_556 S
C1821 C1819 1.419 . S
C1821 C1822 1.363 . S
C1821 H1824 0.929 . S
C1822 C1821 1.363 . S
C1822 C1828 1.415 1_556 S
H1823 C1819 0.930 . S
H1824 C1821 0.929 . S
S1825 N1826 1.613 . S
S1825 N1827 1.610 . S
N1826 S1825 1.613 . S
N1826 C1829 1.350 . S
N1827 S1825 1.610 . S
N1827 C1828 1.361 . S
C1828 C1822 1.415 1_554 S
C1828 N1827 1.361 . S
C1828 C1829 1.438 . S
C1829 C1820 1.429 1_554 S
C1829 N1826 1.350 . S
C1829 C1828 1.438 . S
C1830 C1831 1.369 . S
C1830 C1832 1.419 . S
C1830 H1834 0.930 . S
C1831 C1830 1.369 . S
C1831 C1840 1.429 1_556 S
C1832 C1830 1.419 . S
C1832 C1833 1.363 . S
C1832 H1835 0.929 . S
C1833 C1832 1.363 . S
C1833 C1839 1.428 1_556 S
H1834 C1830 0.930 . S
H1835 C1832 0.929 . S
S1836 N1837 1.613 . S
S1836 N1838 1.610 . S
N1837 S1836 1.613 . S
N1837 C1840 1.350 . S
N1838 S1836 1.610 . S
N1838 C1839 1.351 . S
C1839 C1833 1.428 1_554 S
C1839 N1838 1.351 . S
C1839 C1840 1.434 . S
C1840 C1831 1.429 1_554 S
C1840 N1837 1.350 . S
C1840 C1839 1.434 . S
C1841 C1842 1.369 . S
C1841 C1843 1.419 . S
C1841 H1845 0.930 . S
C1842 C1841 1.369 . S
C1842 C1851 1.429 1_556 S
C1843 C1841 1.419 . S
C1843 C1844 1.363 . S
C1843 H1846 0.929 . S
C1844 C1843 1.363 . S
C1844 C1850 1.428 1_556 S
H1845 C1841 0.930 . S
H1846 C1843 0.929 . S
S1847 N1848 1.613 . S
S1847 N1849 1.610 . S
N1848 S1847 1.613 . S
N1848 C1851 1.350 . S
N1849 S1847 1.610 . S
N1849 C1850 1.351 . S
C1850 C1844 1.428 1_554 S
C1850 N1849 1.351 . S
C1850 C1851 1.434 . S
C1851 C1842 1.429 1_554 S
C1851 N1848 1.350 . S
C1851 C1850 1.434 . S
C1852 C1853 1.369 . S
C1852 C1854 1.419 . S
C1852 H1856 0.930 . S
C1853 C1852 1.369 . S
C1853 C1862 1.429 . S
C1854 C1852 1.419 . S
C1854 C1855 1.363 . S
C1854 H1857 0.929 . S
C1855 C1854 1.363 . S
C1855 C1861 1.428 . S
H1856 C1852 0.930 . S
H1857 C1854 0.929 . S
S1858 N1859 1.613 . S
S1858 N1860 1.610 . S
N1859 S1858 1.613 . S
N1859 C1862 1.350 . S
N1860 S1858 1.610 . S
N1860 C1861 1.351 . S
C1861 C1855 1.428 . S
C1861 N1860 1.351 . S
C1861 C1862 1.434 . S
C1862 C1853 1.429 . S
C1862 N1859 1.350 . S
C1862 C1861 1.434 . S
C1863 C1864 1.369 . S
C1863 C1865 1.419 . S
C1863 H1867 0.930 . S
C1864 C1863 1.369 . S
C1864 C1873 1.429 . S
C1865 C1863 1.419 . S
C1865 C1866 1.363 . S
C1865 H1868 0.929 . S
C1866 C1865 1.363 . S
C1866 C1872 1.428 . S
H1867 C1863 0.930 . S
H1868 C1865 0.929 . S
S1869 N1870 1.613 . S
S1869 N1871 1.610 . S
N1870 S1869 1.613 . S
N1870 C1873 1.350 . S
N1871 S1869 1.610 . S
N1871 C1872 1.351 . S
C1872 C1866 1.428 . S
C1872 N1871 1.351 . S
C1872 C1873 1.434 . S
C1873 C1864 1.429 . S
C1873 N1870 1.350 . S
C1873 C1872 1.434 . S
C1874 C1875 1.369 . S
C1874 C1876 1.419 . S
C1874 H1878 0.930 . S
C1875 C1874 1.369 . S
C1875 C1884 1.429 . S
C1876 C1874 1.419 . S
C1876 C1877 1.363 . S
C1876 H1879 0.929 . S
C1877 C1876 1.363 . S
C1877 C1883 1.428 . S
H1878 C1874 0.930 . S
H1879 C1876 0.929 . S
S1880 N1881 1.613 . S
S1880 N1882 1.610 . S
N1881 S1880 1.613 . S
N1881 C1884 1.350 1_556 S
N1882 S1880 1.610 . S
N1882 C1883 1.351 1_556 S
C1883 C1877 1.428 . S
C1883 N1882 1.351 1_554 S
C1883 C1884 1.434 . S
C1884 C1875 1.429 . S
C1884 N1881 1.350 1_554 S
C1884 C1883 1.434 . S
C1885 C1886 1.369 . S
C1885 C1887 1.419 . S
C1885 H1889 0.930 . S
C1886 C1885 1.369 . S
C1886 C1895 1.429 . S
C1887 C1885 1.419 . S
C1887 C1888 1.363 . S
C1887 H1890 0.929 . S
C1888 C1887 1.363 . S
C1888 C1894 1.428 . S
H1889 C1885 0.930 . S
H1890 C1887 0.929 . S
S1891 N1892 1.613 . S
S1891 N1893 1.610 . S
N1892 S1891 1.613 . S
N1892 C1895 1.350 . S
N1893 S1891 1.610 . S
N1893 C1894 1.351 . S
C1894 C1888 1.428 . S
C1894 N1893 1.351 . S
C1894 C1895 1.434 . S
C1895 C1886 1.429 . S
C1895 N1892 1.350 . S
C1895 C1894 1.434 . S
C1896 C1897 1.369 . S
C1896 C1898 1.419 . S
C1896 H1900 0.930 . S
C1897 C1896 1.369 . S
C1897 C1906 1.429 . S
C1898 C1896 1.419 . S
C1898 C1899 1.363 . S
C1898 H1901 0.929 . S
C1899 C1898 1.363 . S
C1899 C1905 1.428 . S
H1900 C1896 0.930 . S
H1901 C1898 0.929 . S
S1902 N1903 1.613 . S
S1902 N1904 1.610 . S
N1903 S1902 1.613 . S
N1903 C1906 1.350 . S
N1904 S1902 1.610 . S
N1904 C1905 1.351 . S
C1905 C1899 1.428 . S
C1905 N1904 1.351 . S
C1905 C1906 1.434 . S
C1906 C1897 1.429 . S
C1906 N1903 1.350 . S
C1906 C1905 1.434 . S
C1907 C1908 1.369 . S
C1907 C1909 1.419 . S
C1907 H1911 0.930 . S
C1908 C1907 1.369 . S
C1908 C1917 1.429 . S
C1909 C1907 1.419 . S
C1909 C1910 1.363 . S
C1909 H1912 0.929 . S
C1910 C1909 1.363 . S
C1910 C1916 1.428 . S
H1911 C1907 0.930 . S
H1912 C1909 0.929 . S
S1913 N1914 1.613 . S
S1913 N1915 1.610 . S
N1914 S1913 1.613 . S
N1914 C1917 1.350 . S
N1915 S1913 1.610 . S
N1915 C1916 1.351 . S
C1916 C1910 1.428 . S
C1916 N1915 1.351 . S
C1916 C1917 1.434 . S
C1917 C1908 1.429 . S
C1917 N1914 1.350 . S
C1917 C1916 1.434 . S
C1918 C1919 1.369 . S
C1918 C1920 1.419 . S
C1918 H1922 0.930 . S
C1919 C1918 1.369 . S
C1919 C1928 1.429 . S
C1920 C1918 1.419 . S
C1920 C1921 1.363 . S
C1920 H1923 0.929 . S
C1921 C1920 1.363 . S
C1921 C1927 1.428 . S
H1922 C1918 0.930 . S
H1923 C1920 0.929 . S
S1924 N1925 1.613 . S
S1924 N1926 1.610 . S
N1925 S1924 1.613 . S
N1925 C1928 1.350 . S
N1926 S1924 1.610 . S
N1926 C1927 1.351 . S
C1927 C1921 1.428 . S
C1927 N1926 1.351 . S
C1927 C1928 1.434 . S
C1928 C1919 1.429 . S
C1928 N1925 1.350 . S
C1928 C1927 1.434 . S
C1929 C1930 1.369 . S
C1929 C1931 1.419 . S
C1929 H1933 0.930 . S
C1930 C1929 1.369 . S
C1930 C1939 1.429 . S
C1931 C1929 1.419 . S
C1931 C1932 1.363 . S
C1931 H1934 0.929 . S
C1932 C1931 1.363 . S
C1932 C1938 1.428 1_455 S
H1933 C1929 0.930 . S
H1934 C1931 0.929 . S
S1935 N1936 1.613 . S
S1935 N1937 1.610 . S
N1936 S1935 1.613 . S
N1936 C1939 1.350 1_655 S
N1937 S1935 1.610 . S
N1937 C1938 1.351 . S
C1938 C1932 1.428 1_655 S
C1938 N1937 1.351 . S
C1938 C1939 1.434 1_655 S
C1939 C1930 1.429 . S
C1939 N1936 1.350 1_455 S
C1939 C1938 1.434 1_455 S
C1940 C1941 1.369 . S
C1940 C1942 1.419 . S
C1940 H1944 0.930 . S
C1941 C1940 1.369 . S
C1941 C1950 1.429 . S
C1942 C1940 1.419 . S
C1942 C1943 1.363 . S
C1942 H1945 0.929 . S
C1943 C1942 1.363 . S
C1943 C1949 1.428 . S
H1944 C1940 0.930 . S
H1945 C1942 0.929 . S
S1946 N1947 1.613 . S
S1946 N1948 1.610 . S
N1947 S1946 1.613 . S
N1947 C1950 1.350 . S
N1948 S1946 1.610 . S
N1948 C1949 1.351 . S
C1949 C1943 1.428 . S
C1949 N1948 1.351 . S
C1949 C1950 1.434 . S
C1950 C1941 1.429 . S
C1950 N1947 1.350 . S
C1950 C1949 1.434 . S
C1951 C1952 1.369 . S
C1951 C1953 1.419 . S
C1951 H1955 0.930 . S
C1952 C1951 1.369 . S
C1952 C1961 1.429 . S
C1953 C1951 1.419 . S
C1953 C1954 1.363 . S
C1953 H1956 0.929 1_565 S
C1954 C1953 1.363 . S
C1954 C1960 1.428 . S
H1955 C1951 0.930 . S
H1956 C1953 0.929 1_545 S
S1957 N1958 1.613 . S
S1957 N1959 1.610 . S
N1958 S1957 1.613 . S
N1958 C1961 1.350 . S
N1959 S1957 1.610 . S
N1959 C1960 1.351 . S
C1960 C1954 1.428 . S
C1960 N1959 1.351 . S
C1960 C1961 1.434 . S
C1961 C1952 1.429 . S
C1961 N1958 1.350 . S
C1961 C1960 1.434 . S
C1962 C1963 1.369 . S
C1962 C1964 1.419 . S
C1962 H1966 0.930 . S
C1963 C1962 1.369 . S
C1963 C1972 1.429 . S
C1964 C1962 1.419 . S
C1964 C1965 1.363 . S
C1964 H1967 0.929 . S
C1965 C1964 1.363 . S
C1965 C1971 1.428 . S
H1966 C1962 0.930 . S
H1967 C1964 0.929 . S
S1968 N1969 1.613 1_545 S
S1968 N1970 1.610 . S
N1969 S1968 1.613 1_565 S
N1969 C1972 1.350 . S
N1970 S1968 1.610 . S
N1970 C1971 1.351 1_545 S
C1971 C1965 1.428 . S
C1971 N1970 1.351 1_565 S
C1971 C1972 1.434 . S
C1972 C1963 1.429 . S
C1972 N1969 1.350 . S
C1972 C1971 1.434 . S
C1973 C1974 1.369 . S
C1973 C1975 1.419 . S
C1973 H1977 0.930 . S
C1974 C1973 1.369 . S
C1974 C1983 1.429 . S
C1975 C1973 1.419 . S
C1975 C1976 1.363 . S
C1975 H1978 0.929 . S
C1976 C1975 1.363 . S
C1976 C1982 1.428 . S
H1977 C1973 0.930 . S
H1978 C1975 0.929 . S
S1979 N1980 1.613 1_655 S
S1979 N1981 1.610 . S
N1980 S1979 1.613 1_455 S
N1980 C1983 1.350 . S
N1981 S1979 1.610 . S
N1981 C1982 1.351 1_655 S
C1982 C1976 1.428 . S
C1982 N1981 1.351 1_455 S
C1982 C1983 1.434 . S
C1983 C1974 1.429 . S
C1983 N1980 1.350 . S
C1983 C1982 1.434 . S
C1984 C1985 1.369 . S
C1984 C1986 1.419 . S
C1984 H1988 0.930 . S
C1985 C1984 1.369 . S
C1985 C1994 1.429 . S
C1986 C1984 1.419 . S
C1986 C1987 1.363 . S
C1986 H1989 0.929 . S
C1987 C1986 1.363 . S
C1987 C1993 1.428 . S
H1988 C1984 0.930 . S
H1989 C1986 0.929 . S
S1990 N1991 1.613 . S
S1990 N1992 1.610 . S
N1991 S1990 1.613 . S
N1991 C1994 1.350 . S
N1992 S1990 1.610 . S
N1992 C1993 1.351 . S
C1993 C1987 1.428 . S
C1993 N1992 1.351 . S
C1993 C1994 1.434 . S
C1994 C1985 1.429 . S
C1994 N1991 1.350 . S
C1994 C1993 1.434 . S
C1995 C1996 1.369 . S
C1995 C1997 1.419 . S
C1995 H1999 0.930 . S
C1996 C1995 1.369 . S
C1996 C2005 1.429 . S
C1997 C1995 1.419 . S
C1997 C1998 1.363 . S
C1997 H2000 0.929 . S
C1998 C1997 1.363 . S
C1998 C2004 1.428 . S
H1999 C1995 0.930 . S
H2000 C1997 0.929 . S
S2001 N2002 1.613 . S
S2001 N2003 1.610 . S
N2002 S2001 1.613 . S
N2002 C2005 1.350 . S
N2003 S2001 1.610 . S
N2003 C2004 1.351 . S
C2004 C1998 1.428 . S
C2004 N2003 1.351 . S
C2004 C2005 1.434 . S
C2005 C1996 1.429 . S
C2005 N2002 1.350 . S
C2005 C2004 1.434 . S
C2006 C2007 1.369 . S
C2006 C2008 1.419 . S
C2006 H2010 0.930 . S
C2007 C2006 1.369 . S
C2007 C2016 1.429 . S
C2008 C2006 1.419 . S
C2008 C2009 1.363 . S
C2008 H2011 0.929 . S
C2009 C2008 1.363 . S
C2009 C2015 1.428 . S
H2010 C2006 0.930 . S
H2011 C2008 0.929 . S
S2012 N2013 1.613 . S
S2012 N2014 1.610 . S
N2013 S2012 1.613 . S
N2013 C2016 1.350 . S
N2014 S2012 1.610 . S
N2014 C2015 1.351 . S
C2015 C2009 1.428 . S
C2015 N2014 1.351 . S
C2015 C2016 1.434 . S
C2016 C2007 1.429 . S
C2016 N2013 1.350 . S
C2016 C2015 1.434 . S
C2017 C2018 1.369 . S
C2017 C2019 1.419 . S
C2017 H2021 0.930 . S
C2018 C2017 1.369 . S
C2018 C2027 1.429 . S
C2019 C2017 1.419 . S
C2019 C2020 1.363 . S
C2019 H2022 0.929 . S
C2020 C2019 1.363 . S
C2020 C2026 1.428 . S
H2021 C2017 0.930 . S
H2022 C2019 0.929 . S
S2023 N2024 1.613 . S
S2023 N2025 1.610 . S
N2024 S2023 1.613 . S
N2024 C2027 1.350 . S
N2025 S2023 1.610 . S
N2025 C2026 1.351 . S
C2026 C2020 1.428 . S
C2026 N2025 1.351 . S
C2026 C2027 1.434 . S
C2027 C2018 1.429 . S
C2027 N2024 1.350 . S
C2027 C2026 1.434 . S
C2028 C2029 1.369 . S
C2028 C2030 1.419 . S
C2028 H2032 0.930 . S
C2029 C2028 1.369 . S
C2029 C2038 1.429 . S
C2030 C2028 1.419 . S
C2030 C2031 1.363 . S
C2030 H2033 0.929 . S
C2031 C2030 1.363 . S
C2031 C2037 1.428 . S
H2032 C2028 0.930 . S
H2033 C2030 0.929 . S
S2034 N2035 1.604 1_565 S
S2034 N2036 1.617 . S
N2035 S2034 1.604 1_545 S
N2035 C2038 1.350 . S
N2036 S2034 1.617 . S
N2036 C2037 1.351 1_565 S
C2037 C2031 1.428 . S
C2037 N2036 1.351 1_545 S
C2037 C2038 1.434 . S
C2038 C2029 1.429 . S
C2038 N2035 1.350 . S
C2038 C2037 1.434 . S
C2039 C2040 1.369 . S
C2039 C2041 1.419 . S
C2039 H2043 0.930 . S
C2040 C2039 1.369 . S
C2040 C2049 1.429 . S
C2041 C2039 1.419 . S
C2041 C2042 1.363 . S
C2041 H2044 0.929 . S
C2042 C2041 1.363 . S
C2042 C2048 1.428 . S
H2043 C2039 0.930 . S
H2044 C2041 0.929 . S
S2045 N2046 1.613 . S
S2045 N2047 1.610 . S
N2046 S2045 1.613 . S
N2046 C2049 1.350 . S
N2047 S2045 1.610 . S
N2047 C2048 1.351 . S
C2048 C2042 1.428 . S
C2048 N2047 1.351 . S
C2048 C2049 1.434 . S
C2049 C2040 1.429 . S
C2049 N2046 1.350 . S
C2049 C2048 1.434 . S
C2050 C2051 1.369 . S
C2050 C2052 1.419 . S
C2050 H2054 0.930 . S
C2051 C2050 1.369 . S
C2051 C2060 1.429 . S
C2052 C2050 1.419 . S
C2052 C2053 1.363 . S
C2052 H2055 0.929 . S
C2053 C2052 1.363 . S
C2053 C2059 1.428 . S
H2054 C2050 0.930 . S
H2055 C2052 0.929 . S
S2056 N2057 1.613 . S
S2056 N2058 1.610 . S
N2057 S2056 1.613 . S
N2057 C2060 1.350 . S
N2058 S2056 1.610 . S
N2058 C2059 1.351 . S
C2059 C2053 1.428 . S
C2059 N2058 1.351 . S
C2059 C2060 1.434 . S
C2060 C2051 1.429 . S
C2060 N2057 1.350 . S
C2060 C2059 1.434 . S
C2061 C2062 1.369 . S
C2061 C2063 1.419 . S
C2061 H2065 0.930 . S
C2062 C2061 1.369 . S
C2062 C2071 1.429 . S
C2063 C2061 1.419 . S
C2063 C2064 1.363 . S
C2063 H2066 0.929 . S
C2064 C2063 1.363 . S
C2064 C2070 1.428 . S
H2065 C2061 0.930 . S
H2066 C2063 0.929 . S
S2067 N2068 1.613 . S
S2067 N2069 1.610 . S
N2068 S2067 1.613 . S
N2068 C2071 1.350 . S
N2069 S2067 1.610 . S
N2069 C2070 1.351 . S
C2070 C2064 1.428 . S
C2070 N2069 1.351 . S
C2070 C2071 1.434 . S
C2071 C2062 1.429 . S
C2071 N2068 1.350 . S
C2071 C2070 1.434 . S
C2072 C2073 1.369 . S
C2072 C2074 1.419 . S
C2072 H2076 0.930 . S
C2073 C2072 1.369 . S
C2073 C2082 1.429 . S
C2074 C2072 1.419 . S
C2074 C2075 1.363 . S
C2074 H2077 0.929 . S
C2075 C2074 1.363 . S
C2075 C2081 1.428 . S
H2076 C2072 0.930 . S
H2077 C2074 0.929 . S
S2078 N2079 1.613 . S
S2078 N2080 1.610 . S
N2079 S2078 1.613 . S
N2079 C2082 1.350 . S
N2080 S2078 1.610 . S
N2080 C2081 1.351 . S
C2081 C2075 1.428 . S
C2081 N2080 1.351 . S
C2081 C2082 1.434 . S
C2082 C2073 1.429 . S
C2082 N2079 1.350 . S
C2082 C2081 1.434 . S
C2083 C2084 1.369 . S
C2083 C2085 1.419 . S
C2083 H2087 0.930 . S
C2084 C2083 1.369 . S
C2084 C2093 1.429 . S
C2085 C2083 1.419 . S
C2085 C2086 1.363 . S
C2085 H2088 0.929 . S
C2086 C2085 1.363 . S
C2086 C2092 1.428 . S
H2087 C2083 0.930 . S
H2088 C2085 0.929 . S
S2089 N2090 1.613 . S
S2089 N2091 1.610 . S
N2090 S2089 1.613 . S
N2090 C2093 1.350 . S
N2091 S2089 1.610 . S
N2091 C2092 1.351 . S
C2092 C2086 1.428 . S
C2092 N2091 1.351 . S
C2092 C2093 1.434 . S
C2093 C2084 1.429 . S
C2093 N2090 1.350 . S
C2093 C2092 1.434 . S
C2094 C2095 1.369 . S
C2094 C2096 1.419 . S
C2094 H2098 0.930 . S
C2095 C2094 1.369 . S
C2095 C2104 1.429 . S
C2096 C2094 1.419 . S
C2096 C2097 1.363 . S
C2096 H2099 0.929 . S
C2097 C2096 1.363 . S
C2097 C2103 1.428 . S
H2098 C2094 0.930 . S
H2099 C2096 0.929 . S
S2100 N2101 1.613 . S
S2100 N2102 1.610 . S
N2101 S2100 1.613 . S
N2101 C2104 1.350 . S
N2102 S2100 1.610 . S
N2102 C2103 1.351 . S
C2103 C2097 1.428 . S
C2103 N2102 1.351 . S
C2103 C2104 1.434 . S
C2104 C2095 1.429 . S
C2104 N2101 1.350 . S
C2104 C2103 1.434 . S
C2105 C2106 1.369 . S
C2105 C2107 1.419 . S
C2105 H2109 0.930 . S
C2106 C2105 1.369 . S
C2106 C2115 1.429 . S
C2107 C2105 1.419 . S
C2107 C2108 1.363 . S
C2107 H2110 0.929 . S
C2108 C2107 1.363 . S
C2108 C2114 1.428 . S
H2109 C2105 0.930 . S
H2110 C2107 0.929 . S
S2111 N2112 1.613 . S
S2111 N2113 1.610 . S
N2112 S2111 1.613 . S
N2112 C2115 1.350 . S
N2113 S2111 1.610 . S
N2113 C2114 1.351 . S
C2114 C2108 1.428 . S
C2114 N2113 1.351 . S
C2114 C2115 1.434 . S
C2115 C2106 1.429 . S
C2115 N2112 1.350 . S
C2115 C2114 1.434 . S
C2116 C2117 1.369 . S
C2116 C2118 1.419 . S
C2116 H2120 0.930 . S
C2117 C2116 1.369 . S
C2117 C2126 1.429 . S
C2118 C2116 1.419 . S
C2118 C2119 1.363 . S
C2118 H2121 0.929 . S
C2119 C2118 1.363 . S
C2119 C2125 1.428 . S
H2120 C2116 0.930 . S
H2121 C2118 0.929 . S
S2122 N2123 1.613 . S
S2122 N2124 1.610 . S
N2123 S2122 1.613 . S
N2123 C2126 1.350 . S
N2124 S2122 1.610 . S
N2124 C2125 1.351 . S
C2125 C2119 1.428 . S
C2125 N2124 1.351 . S
C2125 C2126 1.434 . S
C2126 C2117 1.429 . S
C2126 N2123 1.350 . S
C2126 C2125 1.434 . S
C2127 C2128 1.369 . S
C2127 C2129 1.419 . S
C2127 H2131 0.930 . S
C2128 C2127 1.369 . S
C2128 C2137 1.429 . S
C2129 C2127 1.419 . S
C2129 C2130 1.363 . S
C2129 H2132 0.929 1_655 S
C2130 C2129 1.363 . S
C2130 C2136 1.428 . S
H2131 C2127 0.930 . S
H2132 C2129 0.929 1_455 S
S2133 N2134 1.613 . S
S2133 N2135 1.610 . S
N2134 S2133 1.613 . S
N2134 C2137 1.350 . S
N2135 S2133 1.610 . S
N2135 C2136 1.351 . S
C2136 C2130 1.428 . S
C2136 N2135 1.351 . S
C2136 C2137 1.434 . S
C2137 C2128 1.429 . S
C2137 N2134 1.350 . S
C2137 C2136 1.434 . S
C2138 C2139 1.369 . S
C2138 C2140 1.419 . S
C2138 H2142 0.930 . S
C2139 C2138 1.369 . S
C2139 C2148 1.429 . S
C2140 C2138 1.419 . S
C2140 C2141 1.363 . S
C2140 H2143 0.929 . S
C2141 C2140 1.363 . S
C2141 C2147 1.428 . S
H2142 C2138 0.930 . S
H2143 C2140 0.929 . S
S2144 N2145 1.613 . S
S2144 N2146 1.610 . S
N2145 S2144 1.613 . S
N2145 C2148 1.350 . S
N2146 S2144 1.610 . S
N2146 C2147 1.351 . S
C2147 C2141 1.428 . S
C2147 N2146 1.351 . S
C2147 C2148 1.434 . S
C2148 C2139 1.429 . S
C2148 N2145 1.350 . S
C2148 C2147 1.434 . S
C2149 C2150 1.369 . S
C2149 C2151 1.408 . S
C2149 H2153 0.905 1_545 S
C2150 C2149 1.369 . S
C2150 C2159 1.429 . S
C2151 C2149 1.408 . S
C2151 C2152 1.420 . S
C2151 H2154 0.883 1_545 S
C2152 C2151 1.420 . S
C2152 C2158 1.428 . S
H2153 C2149 0.905 1_565 S
H2154 C2151 0.883 1_565 S
S2155 N2156 1.613 . S
S2155 N2157 1.610 . S
N2156 S2155 1.613 . S
N2156 C2159 1.350 . S
N2157 S2155 1.610 . S
N2157 C2158 1.351 . S
C2158 C2152 1.428 . S
C2158 N2157 1.351 . S
C2158 C2159 1.434 . S
C2159 C2150 1.429 . S
C2159 N2156 1.350 . S
C2159 C2158 1.434 . S
C1369 C4 1.598 . S
C1371 C857 1.578 . S
C1380 C26 1.598 . S
C1382 C901 1.547 . S
C1393 C981 1.508 . S
C1391 C32 1.539 . S
C1402 C40 1.529 . S
C1404 C1025 1.479 . S
C1413 C12 1.563 . S
C1415 C1105 1.519 . S
C1424 C18 1.565 . S
C1426 C1167 1.547 . S
C1435 C46 1.582 . S
C1437 C1087 1.566 . S
C1448 C1149 1.513 . S
C1446 C68 1.596 . S
C1459 C1043 1.543 . S
C1457 C74 1.553 . S
C1468 C82 1.516 . S
C1470 C963 1.462 . S
C1481 C839 1.519 . S
C1479 C54 1.582 . S
C1490 C60 1.561 . S
C1492 C919 1.571 . S
C1501 C88 1.631 . S
C1503 C1229 1.612 . S
C1512 C110 1.619 . S
C1514 C1273 1.570 . S
C1525 C1353 1.565 . S
C1523 C116 1.604 . S
C1534 C124 1.546 . S
C1536 C299 1.479 . S
C1545 C96 1.587 . S
C1547 C343 1.539 . S
C1556 C102 1.577 . S
C1558 C423 1.544 . S
C1567 C130 1.620 . S
C1569 C361 1.625 . S
C1578 C152 1.630 . S
C1580 C405 1.545 . S
C1591 C281 1.562 . S
C1589 C158 1.600 . S
C1602 C1335 1.489 . S
C1600 C166 1.561 . S
C1613 C1211 1.518 . S
C1611 C138 1.581 . S
C1624 C1291 1.601 . S
C1622 C144 1.593 . S
C1633 C172 1.630 . S
C1635 C485 1.600 . S
C1644 C194 1.623 . S
C1646 C547 1.544 . S
C1655 C200 1.601 . S
C1657 C591 1.605 . S
C1666 C208 1.555 . S
C1668 C653 1.510 . S
C1679 C715 1.547 . S
C1677 C180 1.591 . S
C1690 C795 1.566 . S
C1688 C186 1.587 . S
C1701 C733 1.644 . S
C1699 C214 1.643 . S
C1712 C777 1.543 . S
C1710 C236 1.622 . S
C1721 C242 1.591 . S
C1723 C671 1.594 . S
C1734 C609 1.494 . S
C1732 C250 1.540 . S
C1743 C222 1.586 . S
C1745 C467 1.523 . S
C1756 C529 1.553 . S
C1754 C228 1.585 . S
C1767 C305 1.416 . S
C1765 C5 1.207 . S
C1776 C25 1.502 . S
C1778 C349 1.393 . S
C1789 C429 1.412 . S
C1787 C33 1.215 . S
C1800 C491 1.311 . S
C1798 C39 1.409 . S
C1811 C553 1.354 . S
C1809 C11 1.486 . S
C1822 C597 1.394 . S
C1820 C19 1.158 1_556 S
C1831 C47 1.217 1_556 S
C1833 C615 1.467 . S
C1842 C67 1.495 . S
C1844 C473 1.358 . S
C1853 C75 1.208 1_556 S
C1855 C535 1.408 . S
C1864 C81 1.431 . S
C1866 C367 1.345 . S
C1877 C411 1.353 . S
C1875 C53 1.473 . S
C1886 C61 1.168 . S
C1888 C287 1.358 . S
C1899 C659 1.439 . S
C1897 C89 1.187 . S
C1908 C109 1.525 . S
C1910 C721 1.419 . S
C1919 C117 1.199 . S
C1921 C801 1.405 . S
C1932 C863 1.295 . S
C1930 C123 1.390 . S
C1941 C95 1.464 . S
C1943 C907 1.363 . S
C1952 C103 1.130 . S
C1954 C987 1.288 . S
C1963 C131 1.137 . S
C1965 C969 1.306 . S
C1974 C151 1.452 . S
C1976 C845 1.336 . S
C1987 C925 1.410 . S
C1985 C159 1.174 . S
C1996 C165 1.443 . S
C1998 C739 1.358 . S
C2007 C137 1.501 . S
C2009 C783 1.368 . S
C2020 C677 1.406 . S
C2018 C145 1.170 . S
C2031 C1031 1.356 . S
C2029 C173 1.159 . S
C2040 C193 1.419 . S
C2042 C1111 1.301 . S
C2051 C201 1.181 . S
C2053 C1173 1.372 . S
C2064 C1235 1.312 . S
C2062 C207 1.427 . S
C2075 C1279 1.407 . S
C2073 C179 1.512 . S
C2084 C187 1.173 . S
C2086 C1359 1.385 . S
C2095 C215 1.219 . S
C2097 C1341 1.410 . S
C2106 C235 1.519 . S
C2108 C1217 1.383 . S
C2119 C1297 1.427 . S
C2117 C243 1.191 . S
C2130 C1093 1.266 . S
C2128 C249 1.355 . S
C2141 C1155 1.352 . S
C2139 C221 1.468 . S
C2150 C229 1.137 . S
C2152 C1049 1.328 . S
