# Generated by pormake.
# Topology rtl, (3,6)-cn, num edge types: 1
# Building blocks:
#     Node 0, Type 0, BuildingBlock: VETTIZ_charged_linker_0, # of connection points: 3
#     Node 1, Type 0, BuildingBlock: VETTIZ_charged_linker_0, # of connection points: 3
#     Node 2, Type 0, BuildingBlock: VETTIZ_charged_linker_0, # of connection points: 3
#     Node 3, Type 0, BuildingBlock: VETTIZ_charged_linker_0, # of connection points: 3
#     Node 4, Type 1, BuildingBlock: KUMBUR_clean_sbu_1, # of connection points: 6
#     Node 5, Type 1, BuildingBlock: KUMBUR_clean_sbu_1, # of connection points: 6
#     Edge 6, Type (0, 1), BuildingBlock: UVAHIK_clean_linker_0, # of connection points: 2
#     Edge 7, Type (0, 1), BuildingBlock: UVAHIK_clean_linker_0, # of connection points: 2
#     Edge 8, Type (0, 1), BuildingBlock: UVAHIK_clean_linker_0, # of connection points: 2
#     Edge 9, Type (0, 1), BuildingBlock: UVAHIK_clean_linker_0, # of connection points: 2
#     Edge 10, Type (0, 1), BuildingBlock: UVAHIK_clean_linker_0, # of connection points: 2
#     Edge 11, Type (0, 1), BuildingBlock: UVAHIK_clean_linker_0, # of connection points: 2
#     Edge 12, Type (0, 1), BuildingBlock: UVAHIK_clean_linker_0, # of connection points: 2
#     Edge 13, Type (0, 1), BuildingBlock: UVAHIK_clean_linker_0, # of connection points: 2
#     Edge 14, Type (0, 1), BuildingBlock: UVAHIK_clean_linker_0, # of connection points: 2
#     Edge 15, Type (0, 1), BuildingBlock: UVAHIK_clean_linker_0, # of connection points: 2
#     Edge 16, Type (0, 1), BuildingBlock: UVAHIK_clean_linker_0, # of connection points: 2
#     Edge 17, Type (0, 1), BuildingBlock: UVAHIK_clean_linker_0, # of connection points: 2
# Relax obj value: 0.017
# Max RMSD: 0.086
# Mean RMSD: 0.052
data_MOF--net-rtl--node1-KUMBUR_clean_sbu_1--node2-VETTIZ_charged_linker_0--edge1-UVAHIK_clean_linker_0
_symmetry_space_group_name_H-M    P1
_symmetry_Int_Tables_number       1
_symmetry_cell_setting            triclinic
loop_
_symmetry_equiv_pos_as_xyz
'x, y, z'
_cell_length_a     48.741495
_cell_length_b     49.259337
_cell_length_c     42.592549
_cell_angle_alpha  81.916878
_cell_angle_beta   99.60466
_cell_angle_gamma 90.383508
loop_
_atom_site_label
_atom_site_type_symbol
_atom_site_fract_x
_atom_site_fract_y
_atom_site_fract_z
_atom_type_partial_charge
C0 C 0.19079 0.891 0.91228 0.0
C1 C 0.16966 0.9113 0.90498 0.0
C2 C 0.1614 0.92319 0.93023 0.0
C3 C 0.1941 0.89368 0.9693 0.0
C4 C 0.20275 0.88265 0.94442 0.0
C5 C 0.22554 0.86143 0.95625 0.0
H6 H 0.30389 0.78089 0.08019 0.0
C7 C 0.20997 0.87972 0.99991 0.0
C8 C 0.22855 0.86093 0.9924 0.0
H9 H 0.3063 0.78584 0.97859 0.0
H10 H 0.27154 0.82205 0.9668 0.0
H11 H 0.3036 0.84589 0.07994 0.0
H12 H 0.2364 0.78856 0.0741 0.0
H13 H 0.23109 0.81081 0.10152 0.0
H14 H 0.26178 0.78913 0.10978 0.0
H15 H 0.2968 0.82325 0.11453 0.0
H16 H 0.27947 0.85626 0.10241 0.0
C17 C 0.25214 0.87194 0.9432 0.0
C18 C 0.21486 0.83385 0.94575 0.0
C19 C 0.18682 0.90037 0.10618 0.0
C20 C 0.19654 0.88954 0.13847 0.0
C21 C 0.21804 0.86946 0.14533 0.0
C22 C 0.22922 0.85998 0.12049 0.0
C23 C 0.21883 0.87061 0.08834 0.0
C24 C 0.19815 0.89065 0.08167 0.0
C25 C 0.18948 0.8995 0.04615 0.0
C26 C 0.20836 0.88149 0.03255 0.0
C27 C 0.22545 0.86451 0.05735 0.0
C28 C 0.19606 0.93032 0.03859 0.0
C29 C 0.15837 0.89252 0.03704 0.0
C30 C 0.29674 0.78978 0.05545 0.0
C31 C 0.30763 0.78048 0.03023 0.0
C32 C 0.29826 0.7928 0.99837 0.0
C33 C 0.278 0.81375 0.99157 0.0
C34 C 0.26703 0.82268 0.0169 0.0
C35 C 0.27675 0.81111 0.04826 0.0
C36 C 0.26367 0.82437 0.07208 0.0
C37 C 0.24425 0.84546 0.04976 0.0
C38 C 0.24605 0.84402 0.01748 0.0
C39 C 0.28695 0.83806 0.09364 0.0
C40 C 0.24746 0.80218 0.09063 0.0
H41 H 0.16604 0.9241 0.98045 0.0
H42 H 0.19794 0.88187 0.89333 0.0
H43 H 0.19301 0.83052 0.94969 0.0
H44 H 0.22678 0.81587 0.9596 0.0
H45 H 0.21527 0.83365 0.91978 0.0
H46 H 0.25216 0.89473 0.93821 0.0
H47 H 0.25387 0.86401 0.92044 0.0
H48 H 0.27136 0.86648 0.96082 0.0
H49 H 0.17061 0.91607 0.10003 0.0
H50 H 0.22574 0.86053 0.16992 0.0
H51 H 0.24526 0.84445 0.12728 0.0
H52 H 0.21518 0.93569 0.0546 0.0
H53 H 0.17874 0.94349 0.04215 0.0
H54 H 0.20055 0.93605 0.01396 0.0
H55 H 0.15355 0.87268 0.05087 0.0
H56 H 0.15238 0.88973 0.01158 0.0
H57 H 0.14466 0.90857 0.04245 0.0
H58 H 0.14512 0.93882 0.92519 0.0
C59 C 0.17347 0.91449 0.96231 0.0
C60 C 0.63694 0.68274 0.68962 0.0
C61 C 0.61481 0.66438 0.69143 0.0
C62 C 0.60041 0.65619 0.66284 0.0
C63 C 0.63028 0.684 0.63158 0.0
C64 C 0.64413 0.69243 0.65951 0.0
C65 C 0.66658 0.71262 0.65304 0.0
H66 H 0.73522 0.78737 0.54515 0.0
C67 C 0.64295 0.69757 0.60437 0.0
C68 C 0.6641 0.7146 0.61672 0.0
H69 H 0.74854 0.78586 0.64826 0.0
H70 H 0.71242 0.75226 0.65269 0.0
H71 H 0.73188 0.72396 0.54747 0.0
H72 H 0.66721 0.78552 0.53401 0.0
H73 H 0.65782 0.76296 0.50554 0.0
H74 H 0.68931 0.78223 0.50493 0.0
H75 H 0.72095 0.74462 0.5093 0.0
H76 H 0.70418 0.71281 0.52075 0.0
C77 C 0.6949 0.69991 0.67075 0.0
C78 C 0.65901 0.74013 0.66342 0.0
C79 C 0.61105 0.67317 0.492 0.0
C80 C 0.62023 0.68078 0.46238 0.0
C81 C 0.64086 0.70094 0.46056 0.0
C82 C 0.65256 0.71271 0.48776 0.0
C83 C 0.6438 0.70418 0.51734 0.0
C84 C 0.6232 0.6849 0.51903 0.0
C85 C 0.61696 0.67781 0.55264 0.0
C86 C 0.63764 0.69559 0.57093 0.0
C87 C 0.65319 0.71108 0.55011 0.0
C88 C 0.62336 0.64682 0.5636 0.0
C89 C 0.58644 0.68657 0.55246 0.0
C90 C 0.73011 0.78003 0.56864 0.0
C91 C 0.7445 0.78948 0.59636 0.0
C92 C 0.73775 0.77886 0.62657 0.0
C93 C 0.71669 0.75945 0.62906 0.0
C94 C 0.70235 0.75034 0.60105 0.0
C95 C 0.70936 0.76048 0.57154 0.0
C96 C 0.69287 0.74766 0.54448 0.0
C97 C 0.67419 0.72875 0.56244 0.0
C98 C 0.67974 0.73042 0.59557 0.0
C99 C 0.71335 0.73153 0.52941 0.0
C100 C 0.67596 0.77067 0.52073 0.0
H101 H 0.59633 0.65867 0.61224 0.0
H102 H 0.64816 0.6897 0.71112 0.0
H103 H 0.63615 0.74413 0.65762 0.0
H104 H 0.66825 0.75802 0.65064 0.0
H105 H 0.66542 0.73986 0.68975 0.0
H106 H 0.69557 0.67744 0.66996 0.0
H107 H 0.69854 0.70302 0.69644 0.0
H108 H 0.71265 0.7081 0.65954 0.0
H109 H 0.59498 0.65809 0.49431 0.0
H110 H 0.64871 0.70702 0.43833 0.0
H111 H 0.66838 0.72764 0.48479 0.0
H112 H 0.64245 0.64052 0.55516 0.0
H113 H 0.60597 0.63418 0.55361 0.0
H114 H 0.62769 0.64127 0.58997 0.0
H115 H 0.58009 0.70484 0.53418 0.0
H116 H 0.5833 0.69299 0.57548 0.0
H117 H 0.57184 0.66987 0.54673 0.0
H118 H 0.58346 0.6419 0.6636 0.0
C119 C 0.60802 0.66585 0.63302 0.0
C120 C 0.81997 0.11558 0.13535 0.0
C121 C 0.83869 0.09311 0.14314 0.0
C122 C 0.84465 0.07915 0.11827 0.0
C123 C 0.81465 0.11087 0.07867 0.0
C124 C 0.80821 0.12399 0.10318 0.0
C125 C 0.78824 0.14769 0.09094 0.0
H126 H 0.71213 0.22926 0.96608 0.0
C127 C 0.79969 0.12546 0.04787 0.0
C128 C 0.78402 0.1469 0.05496 0.0
H129 H 0.72084 0.23464 0.06764 0.0
H130 H 0.75083 0.19461 0.08 0.0
H131 H 0.77589 0.218 0.9675 0.0
H132 H 0.70868 0.16107 0.9721 0.0
H133 H 0.7292 0.1518 0.94478 0.0
H134 H 0.7117 0.18477 0.93678 0.0
H135 H 0.7513 0.2132 0.93245 0.0
H136 H 0.78214 0.19181 0.94552 0.0
C137 C 0.80288 0.17422 0.10012 0.0
C138 C 0.76109 0.14131 0.10483 0.0
C139 C 0.81833 0.09905 0.94231 0.0
C140 C 0.81008 0.11058 0.90995 0.0
C141 C 0.7899 0.13197 0.90266 0.0
C142 C 0.7791 0.1424 0.9272 0.0
C143 C 0.78871 0.13156 0.95948 0.0
C144 C 0.80767 0.10994 0.96652 0.0
C145 C 0.81622 0.10146 1.00212 0.0
C146 C 0.79972 0.12192 0.01535 0.0
C147 C 0.78356 0.1395 0.99029 0.0
C148 C 0.84804 0.10545 0.01071 0.0
C149 C 0.80664 0.07168 0.01065 0.0
C150 C 0.72035 0.22151 0.99093 0.0
C151 C 0.7142 0.23499 0.01598 0.0
C152 C 0.72552 0.22464 0.04801 0.0
C153 C 0.74288 0.20135 0.05511 0.0
C154 C 0.74935 0.18832 0.02992 0.0
C155 C 0.73818 0.19837 0.99844 0.0
C156 C 0.74859 0.18248 0.97489 0.0
C157 C 0.76733 0.16098 0.99751 0.0
C158 C 0.76761 0.16458 0.02967 0.0
C159 C 0.76521 0.20225 0.95371 0.0
C160 C 0.72333 0.16939 0.95585 0.0
H161 H 0.83839 0.07664 0.06828 0.0
H162 H 0.81457 0.12646 0.15394 0.0
H163 H 0.75661 0.11901 0.10673 0.0
H164 H 0.74247 0.1514 0.08933 0.0
H165 H 0.76273 0.14723 0.12929 0.0
H166 H 0.82563 0.17296 0.09991 0.0
H167 H 0.80013 0.17771 0.12462 0.0
H168 H 0.79564 0.19266 0.08287 0.0
H169 H 0.83338 0.08229 0.94884 0.0
H170 H 0.78325 0.14145 0.87806 0.0
H171 H 0.76422 0.159 0.92013 0.0
H172 H 0.85456 0.12431 0.99636 0.0
H173 H 0.85983 0.08783 0.00557 0.0
H174 H 0.8549 0.10839 0.036 0.0
H175 H 0.78674 0.06777 0.99505 0.0
H176 H 0.80218 0.06734 0.03545 0.0
H177 H 0.82236 0.05658 0.00732 0.0
H178 H 0.85908 0.06185 0.12361 0.0
C179 C 0.83274 0.08788 0.08613 0.0
C180 C 0.37424 0.32546 0.35872 0.0
C181 C 0.39603 0.34423 0.35702 0.0
C182 C 0.40967 0.35315 0.38552 0.0
C183 C 0.37954 0.32548 0.41651 0.0
C184 C 0.36654 0.31618 0.3887 0.0
C185 C 0.34453 0.29549 0.39523 0.0
H186 H 0.2698 0.22764 0.50146 0.0
C187 C 0.36634 0.31243 0.44352 0.0
C188 C 0.34592 0.29463 0.4313 0.0
H189 H 0.26611 0.21865 0.40119 0.0
H190 H 0.30174 0.25251 0.39661 0.0
H191 H 0.33584 0.22609 0.51776 0.0
H192 H 0.27604 0.29274 0.49365 0.0
H193 H 0.30164 0.30131 0.5247 0.0
H194 H 0.28107 0.27121 0.53188 0.0
H195 H 0.31469 0.23488 0.54564 0.0
H196 H 0.34768 0.25094 0.54239 0.0
C197 C 0.35337 0.26769 0.38652 0.0
C198 C 0.31621 0.307 0.37614 0.0
C199 C 0.39448 0.34075 0.55466 0.0
C200 C 0.38465 0.33376 0.58398 0.0
C201 C 0.36381 0.31383 0.58574 0.0
C202 C 0.3526 0.30157 0.55876 0.0
C203 C 0.36218 0.30927 0.52949 0.0
C204 C 0.38294 0.3284 0.52787 0.0
C205 C 0.39026 0.33437 0.49465 0.0
C206 C 0.37031 0.31582 0.47657 0.0
C207 C 0.35393 0.3012 0.49709 0.0
C208 C 0.42106 0.32562 0.49655 0.0
C209 C 0.3838 0.36513 0.48212 0.0
C210 C 0.27677 0.23259 0.47853 0.0
C211 C 0.26486 0.22023 0.45168 0.0
C212 C 0.27444 0.22801 0.42222 0.0
C213 C 0.29538 0.24754 0.41964 0.0
C214 C 0.30714 0.25943 0.44682 0.0
C215 C 0.29789 0.25172 0.47566 0.0
C216 C 0.31327 0.26572 0.50235 0.0
C217 C 0.3334 0.28305 0.48486 0.0
C218 C 0.32955 0.27957 0.45223 0.0
C219 C 0.32859 0.24342 0.52865 0.0
C220 C 0.29206 0.28359 0.5141 0.0
H221 H 0.41265 0.3517 0.43587 0.0
H222 H 0.36369 0.31792 0.33727 0.0
H223 H 0.31377 0.32906 0.37834 0.0
H224 H 0.29824 0.29676 0.38505 0.0
H225 H 0.31461 0.30525 0.35018 0.0
H226 H 0.37643 0.26538 0.39033 0.0
H227 H 0.34539 0.2659 0.36091 0.0
H228 H 0.34647 0.2499 0.40196 0.0
H229 H 0.41068 0.35571 0.55247 0.0
H230 H 0.3555 0.30828 0.60777 0.0
H231 H 0.33657 0.28686 0.56165 0.0
H232 H 0.42701 0.30781 0.51563 0.0
H233 H 0.43534 0.34257 0.5022 0.0
H234 H 0.4251 0.31851 0.47423 0.0
H235 H 0.36435 0.37177 0.48953 0.0
H236 H 0.38005 0.36979 0.45566 0.0
H237 H 0.40089 0.37818 0.49195 0.0
H238 H 0.4264 0.3677 0.38479 0.0
C239 C 0.40154 0.34394 0.41516 0.0
Tb240 Tb 0.02298 0.97083 0.50735 0.0
C241 C 0.96203 0.0843 0.49009 0.0
N242 N 0.98794 0.07643 0.5059 0.0
C243 C 0.0068 0.1177 0.48155 0.0
C244 C 0.95759 0.10907 0.46877 0.0
C245 C 0.01021 0.09286 0.50229 0.0
C246 C 0.98039 0.12582 0.46464 0.0
C247 C 0.91311 0.07379 0.47757 0.0
C248 C 0.94018 0.06667 0.49422 0.0
C249 C 0.90855 0.09847 0.4563 0.0
C250 C 0.93073 0.11605 0.4519 0.0
Tb251 Tb 0.99101 0.03563 0.53925 0.0
N252 N 0.9455 0.0426 0.51447 0.0
C253 C 0.89137 0.05607 0.4831 0.0
C254 C 0.92391 0.02638 0.52164 0.0
C255 C 0.89675 0.03249 0.50561 0.0
H256 H 0.03051 0.08715 0.51595 0.0
H257 H 0.87987 0.01924 0.51111 0.0
H258 H 0.99199 0.91723 0.54105 0.0
H259 H 0.13232 0.99602 0.51387 0.0
H260 H 0.92699 0.00927 0.54047 0.0
H261 H 0.87027 0.0608 0.47084 0.0
H262 H 0.08303 0.9991 0.48982 0.0
H263 H 0.02452 0.13063 0.47874 0.0
H264 H 0.88791 0.10419 0.44322 0.0
H265 H 0.9269 0.13496 0.43533 0.0
H266 H 0.00541 0.87648 0.58172 0.0
H267 H 0.97785 0.14502 0.44847 0.0
H268 H 0.14882 0.96059 0.56023 0.0
N269 N 0.03301 0.93273 0.54469 0.0
C270 C 0.06021 0.92866 0.55826 0.0
C271 C 0.021 0.89106 0.57543 0.0
C272 C 0.0688 0.90584 0.58168 0.0
C273 C 0.01342 0.91417 0.55253 0.0
C274 C 0.04878 0.88693 0.59019 0.0
N275 N 0.07015 0.96936 0.5258 0.0
C276 C 0.08919 0.9852 0.51172 0.0
C277 C 0.10772 0.9443 0.56246 0.0
C278 C 0.07927 0.94793 0.54903 0.0
C279 C 0.12679 0.96266 0.5506 0.0
C280 C 0.11754 0.9828 0.5246 0.0
H281 H 0.05455 0.86911 0.60808 0.0
H282 H 0.10392 0.88546 0.61418 0.0
H283 H 0.13807 0.91899 0.59712 0.0
O284 O 0.03899 0.96562 0.46489 0.0
O285 O 0.02484 0.96967 0.55962 0.0
O286 O 0.02904 0.01493 0.56605 0.0
O287 O 0.01264 0.93525 0.48651 0.0
O288 O 0.03692 0.01251 0.49147 0.0
O289 O 0.03507 0.03534 0.53486 0.0
O290 O 0.97228 0.03842 0.58073 0.0
O291 O 0.98707 0.03615 0.48691 0.0
O292 O 0.98456 0.99065 0.4801 0.0
O293 O 1.0005 0.06927 0.5636 0.0
O294 O 0.9743 0.99469 0.55362 0.0
O295 O 0.97919 0.9693 0.51282 0.0
C296 C 0.03184 0.98887 0.57777 0.0
C297 C 0.028 0.92465 0.43837 0.0
C298 C 0.0449 0.91478 0.3902 0.0
C299 C 0.02792 0.89161 0.38977 0.0
C300 C 0.01131 0.90128 0.43744 0.0
C301 C 0.01135 0.8849 0.41331 0.0
C302 C 0.04502 0.93121 0.41478 0.0
C303 C 0.04508 0.03223 0.50873 0.0
C304 C 0.02671 0.9422 0.46351 0.0
C305 C 0.09692 0.90275 0.59595 0.0
C306 C 0.11634 0.92194 0.58637 0.0
C307 C 0.97985 0.01674 0.4691 0.0
C308 C 0.98261 0.07767 0.61093 0.0
C309 C 0.96488 0.08512 0.65944 0.0
C310 C 0.98155 0.10839 0.66146 0.0
C311 C 0.99894 0.10119 0.61343 0.0
C312 C 0.96523 0.06984 0.6339 0.0
C313 C 0.99832 0.11642 0.63849 0.0
C314 C 0.96787 0.97364 0.53775 0.0
C315 C 0.98489 0.06137 0.58483 0.0
H316 H 0.0277 0.87846 0.37136 0.0
H317 H 0.99801 0.89572 0.45524 0.0
H318 H 0.99841 0.86697 0.41279 0.0
H319 H 0.0579 0.94922 0.41516 0.0
H320 H 0.98142 0.1205 0.68079 0.0
H321 H 0.01246 0.10779 0.59615 0.0
H322 H 0.95256 0.05176 0.63237 0.0
H323 H 0.01103 0.13443 0.64021 0.0
Tb324 Tb 0.47264 0.49237 0.99314 0.0
C325 C 0.59292 0.53609 0.03076 0.0
N326 N 0.58194 0.51151 0.04042 0.0
C327 C 0.62271 0.48819 0.03235 0.0
C328 C 0.61915 0.53764 0.02087 0.0
C329 C 0.59655 0.48769 0.04177 0.0
C330 C 0.63404 0.51326 0.02175 0.0
C331 C 0.58747 0.58552 0.01871 0.0
C332 C 0.57709 0.55967 0.02941 0.0
C333 C 0.61361 0.5872 0.00884 0.0
C334 C 0.6294 0.56332 0.00991 0.0
Tb335 Tb 0.53922 0.51316 0.05539 0.0
N336 N 0.55153 0.5572 0.03841 0.0
C337 C 0.5714 0.60895 0.01857 0.0
C338 C 0.53682 0.58021 0.04047 0.0
C339 C 0.54616 0.60628 0.02996 0.0
H340 H 0.58837 0.46833 0.05091 0.0
H341 H 0.53411 0.62435 0.03124 0.0
H342 H 0.4206 0.52856 0.00799 0.0
H343 H 0.48844 0.38243 0.99984 0.0
H344 H 0.51842 0.57898 0.05122 0.0
H345 H 0.57863 0.62919 0.01058 0.0
H346 H 0.49665 0.43072 0.98191 0.0
H347 H 0.63418 0.46925 0.03343 0.0
H348 H 0.62183 0.60688 1.00043 0.0
H349 H 0.64947 0.56493 1.00211 0.0
H350 H 0.37725 0.51959 0.03044 0.0
H351 H 0.65426 0.51357 0.01433 0.0
H352 H 0.44978 0.3696 0.02958 0.0
N353 N 0.43238 0.48648 0.0138 0.0
C354 C 0.42542 0.4601 0.02284 0.0
C355 C 0.39068 0.50269 0.02855 0.0
C356 C 0.40102 0.45402 0.03595 0.0
C357 C 0.41526 0.50774 0.016 0.0
C358 C 0.38357 0.47573 0.03871 0.0
N359 N 0.46652 0.44607 0.00641 0.0
C360 C 0.48135 0.42589 0.99728 0.0
C361 C 0.43686 0.41167 0.02889 0.0
C362 C 0.4434 0.4393 0.01974 0.0
C363 C 0.45408 0.39107 0.02294 0.0
C364 C 0.47604 0.39822 0.00639 0.0
H365 H 0.36462 0.4719 0.04865 0.0
H366 H 0.37646 0.4215 0.05652 0.0
H367 H 0.40769 0.38439 0.05005 0.0
O368 O 0.46668 0.47868 0.94713 0.0
O369 O 0.46965 0.48859 0.04475 0.0
O370 O 0.5144 0.47772 0.06917 0.0
O371 O 0.43867 0.50839 0.95887 0.0
O372 O 0.51369 0.47404 0.99254 0.0
O373 O 0.53507 0.47082 0.04552 0.0
O374 O 0.54151 0.52936 0.09984 0.0
O375 O 0.54213 0.51963 0.00382 0.0
O376 O 0.497 0.52781 0.97754 0.0
O377 O 0.57084 0.49845 0.09314 0.0
O378 O 0.49918 0.53434 0.05435 0.0
O379 O 0.47496 0.53486 1.00247 0.0
C380 C 0.48763 0.47794 0.06986 0.0
C381 C 0.42732 0.49633 0.90514 0.0
C382 C 0.41729 0.48392 0.85084 0.0
C383 C 0.39508 0.50306 0.8434 0.0
C384 C 0.40489 0.51522 0.89704 0.0
C385 C 0.3889 0.51848 0.8664 0.0
C386 C 0.43329 0.48042 0.88197 0.0
C387 C 0.53236 0.46294 0.01693 0.0
C388 C 0.44458 0.49422 0.93742 0.0
C389 C 0.395 0.4266 0.04614 0.0
C390 C 0.41288 0.40548 0.04263 0.0
C391 C 0.52403 0.52976 0.9785 0.0
C392 C 0.57844 0.51276 0.14575 0.0
C393 C 0.58548 0.52739 0.19899 0.0
C394 C 0.60713 0.5078 0.20921 0.0
C395 C 0.60029 0.49344 0.15667 0.0
C396 C 0.57125 0.53003 0.167 0.0
C397 C 0.6145 0.49106 0.18813 0.0
C398 C 0.47935 0.54419 0.03037 0.0
C399 C 0.56321 0.51385 0.11249 0.0
H400 H 0.38226 0.50589 0.81977 0.0
H401 H 0.39976 0.5277 0.91433 0.0
H402 H 0.37169 0.5331 0.86043 0.0
H403 H 0.45056 0.46583 0.88784 0.0
H404 H 0.61858 0.50563 0.23354 0.0
H405 H 0.60636 0.47991 0.14095 0.0
H406 H 0.55445 0.54499 0.15897 0.0
H407 H 0.63126 0.4761 0.19624 0.0
C408 C 0.24341 0.18109 0.48341 0.0
C409 C 0.24282 0.19923 0.45465 0.0
C410 C 0.22236 0.16206 0.48682 0.0
C411 C 0.14982 0.1465 0.45082 0.0
H412 H 0.16681 0.07728 0.50648 0.0
C413 C 0.07038 0.0585 0.46784 0.0
C414 C 0.06786 0.0502 0.50015 0.0
C415 C 0.09178 0.07599 0.46006 0.0
C416 C 0.16181 0.09654 0.49085 0.0
H417 H 0.21941 0.21102 0.40667 0.0
H418 H 0.18356 0.17689 0.41199 0.0
H419 H 0.20435 0.10841 0.49615 0.0
H420 H 0.08583 0.05314 0.54961 0.0
H421 H 0.12365 0.08301 0.53603 0.0
H422 H 0.1072 0.13395 0.44513 0.0
C423 C 0.19994 0.17791 0.43234 0.0
C424 C 0.18327 0.11454 0.48508 0.0
C425 C 0.22082 0.19729 0.4291 0.0
C426 C 0.08725 0.05935 0.52451 0.0
C427 C 0.10894 0.07628 0.51677 0.0
C428 C 0.12841 0.1282 0.45615 0.0
C429 C 0.20028 0.16014 0.46136 0.0
C430 C 0.17756 0.14006 0.46549 0.0
C431 C 0.11134 0.08489 0.4845 0.0
C432 C 0.13417 0.10329 0.47666 0.0
H433 H 0.26021 0.18148 0.50347 0.0
H434 H 0.22327 0.14916 0.50975 0.0
H435 H 0.14441 0.16602 0.43597 0.0
H436 H 0.05558 0.05179 0.44866 0.0
H437 H 0.09325 0.08233 0.435 0.0
C438 C 0.32299 0.73246 0.05403 0.0
C439 C 0.32839 0.75772 0.03659 0.0
C440 C 0.34115 0.71002 0.05677 0.0
C441 C 0.39541 0.68523 0.01544 0.0
H442 H 0.4059 0.62749 0.08845 0.0
C443 C 0.44447 0.58176 0.00689 0.0
C444 C 0.46244 0.56827 0.03374 0.0
C445 C 0.42893 0.60478 0.00941 0.0
C446 C 0.40348 0.64357 0.06801 0.0
H447 H 0.35769 0.77997 0.0101 0.0
H448 H 0.38998 0.74133 0.01594 0.0
H449 H 0.37902 0.66861 0.09044 0.0
H450 H 0.47769 0.56829 0.08458 0.0
H451 H 0.45124 0.6092 0.08873 0.0
H452 H 0.42053 0.66081 0.99338 0.0
C453 C 0.37127 0.73833 0.02649 0.0
C454 C 0.38773 0.66703 0.06897 0.0
C455 C 0.3529 0.76057 0.02331 0.0
C456 C 0.46417 0.57826 0.06336 0.0
C457 C 0.44882 0.60161 0.06579 0.0
C458 C 0.41135 0.662 0.01462 0.0
C459 C 0.36529 0.71252 0.04249 0.0
C460 C 0.38326 0.68809 0.04255 0.0
C461 C 0.43116 0.61531 0.03874 0.0
C462 C 0.41529 0.64064 0.04066 0.0
H463 H 0.3041 0.72974 0.06431 0.0
H464 H 0.33562 0.69048 0.06897 0.0
H465 H 0.39216 0.70068 0.99437 0.0
H466 H 0.44237 0.57462 0.9837 0.0
H467 H 0.41504 0.61428 0.98823 0.0
C468 C 0.76197 0.83341 0.57004 0.0
C469 C 0.76659 0.81017 0.59357 0.0
C470 C 0.78311 0.85228 0.56617 0.0
C471 C 0.85267 0.87394 0.60521 0.0
H472 H 0.85797 0.90486 0.51764 0.0
C473 C 0.93373 0.9565 0.57427 0.0
C474 C 0.9453 0.95506 0.5464 0.0
C475 C 0.91182 0.9394 0.58141 0.0
C476 C 0.85704 0.89625 0.54226 0.0
H477 H 0.79687 0.7886 0.63179 0.0
H478 H 0.83412 0.82111 0.62455 0.0
H479 H 0.82055 0.87396 0.52767 0.0
H480 H 0.94332 0.93375 0.50478 0.0
H481 H 0.90618 0.90359 0.51775 0.0
H482 H 0.89002 0.89543 0.61954 0.0
C483 C 0.81397 0.82518 0.6095 0.0
C484 C 0.8352 0.87881 0.54809 0.0
C485 C 0.79266 0.80646 0.61361 0.0
C486 C 0.93488 0.93567 0.52635 0.0
C487 C 0.91329 0.91846 0.53364 0.0
C488 C 0.87472 0.89127 0.59933 0.0
C489 C 0.80958 0.84821 0.58546 0.0
C490 C 0.83268 0.86733 0.57962 0.0
C491 C 0.90116 0.9203 0.56101 0.0
C492 C 0.8773 0.90251 0.56773 0.0
H493 H 0.74194 0.83703 0.55458 0.0
H494 H 0.77865 0.87007 0.54795 0.0
H495 H 0.85127 0.86579 0.62985 0.0
H496 H 0.94134 0.97108 0.59036 0.0
H497 H 0.9029 0.94156 0.60259 0.0
C498 C 0.70631 0.2837 0.02239 0.0
C499 C 0.69656 0.26014 0.00934 0.0
C500 C 0.68892 0.30664 0.01929 0.0
C501 C 0.62086 0.33841 0.97737 0.0
H502 H 0.62817 0.37441 0.05355 0.0
C503 C 0.55765 0.43687 0.98362 0.0
C504 C 0.5494 0.4393 0.01316 0.0
C505 C 0.57518 0.41516 0.981 0.0
C506 C 0.62557 0.36447 0.03215 0.0
H507 H 0.66141 0.24224 0.9819 0.0
H508 H 0.63047 0.28208 0.97729 0.0
H509 H 0.65929 0.33668 0.05231 0.0
H510 H 0.55173 0.42034 0.06264 0.0
H511 H 0.58145 0.38221 0.05796 0.0
H512 H 0.58619 0.36567 0.95788 0.0
C513 C 0.65176 0.28313 0.98935 0.0
C514 C 0.64383 0.34304 0.03121 0.0
C515 C 0.66939 0.26027 0.99205 0.0
C516 C 0.55816 0.41921 0.03969 0.0
C517 C 0.57534 0.39743 0.03702 0.0
C518 C 0.60236 0.3598 0.97843 0.0
C519 C 0.66114 0.30641 0.00358 0.0
C520 C 0.64179 0.32968 0.00383 0.0
C521 C 0.58454 0.39535 0.00783 0.0
C522 C 0.6044 0.37298 0.00596 0.0
H523 H 0.72734 0.2842 0.03545 0.0
H524 H 0.69718 0.32442 0.02974 0.0
H525 H 0.61879 0.32879 0.95576 0.0
H526 H 0.55119 0.45216 0.96282 0.0
H527 H 0.58199 0.41433 0.95822 0.0
C528 C 0.19977 0.90243 0.19416 0.0
C529 C 0.18353 0.8983 0.16472 0.0
C530 C 0.18722 0.90975 0.21911 0.0
C531 C 0.12099 0.93698 0.23614 0.0
H532 H 0.14532 0.8983 0.322 0.0
C533 C 0.05074 0.9209 0.33247 0.0
C534 C 0.06238 0.92129 0.36486 0.0
C535 C 0.06753 0.92368 0.30873 0.0
C536 C 0.13859 0.9097 0.29832 0.0
H537 H 0.14133 0.89847 0.13857 0.0
H538 H 0.11952 0.91106 0.18189 0.0
H539 H 0.17117 0.89224 0.27909 0.0
H540 H 0.10054 0.92596 0.39774 0.0
H541 H 0.13014 0.93076 0.35606 0.0
H542 H 0.08783 0.95365 0.25518 0.0
C543 C 0.142 0.90924 0.18558 0.0
C544 C 0.15341 0.90621 0.27368 0.0
C545 C 0.15452 0.90197 0.1607 0.0
C546 C 0.09105 0.92568 0.37291 0.0
C547 C 0.10797 0.9282 0.34913 0.0
C548 C 0.10614 0.94039 0.26074 0.0
C549 C 0.15814 0.91308 0.21517 0.0
C550 C 0.14439 0.91929 0.24211 0.0
C551 C 0.09643 0.92674 0.31685 0.0
C552 C 0.11439 0.92628 0.29193 0.0
H553 H 0.22221 0.90012 0.19789 0.0
H554 H 0.20029 0.91284 0.24145 0.0
H555 H 0.11383 0.94784 0.21227 0.0
H556 H 0.02865 0.91775 0.32558 0.0
H557 H 0.058 0.92221 0.28418 0.0
C558 C 0.57855 0.65221 0.72629 0.0
C559 C 0.60674 0.65345 0.72288 0.0
C560 C 0.57076 0.64065 0.75533 0.0
C561 C 0.59433 0.59075 0.82687 0.0
H562 H 0.53721 0.62448 0.86269 0.0
C563 C 0.56271 0.54372 0.94761 0.0
C564 C 0.53442 0.54498 0.95033 0.0
C565 C 0.5725 0.55821 0.92115 0.0
C566 C 0.55295 0.61458 0.85284 0.0
H567 H 0.6489 0.64377 0.74736 0.0
H568 H 0.63526 0.62338 0.79819 0.0
H569 H 0.5525 0.64773 0.81432 0.0
H570 H 0.49407 0.56206 0.92677 0.0
H571 H 0.51088 0.58645 0.88016 0.0
H572 H 0.59432 0.55724 0.86469 0.0
C573 C 0.61921 0.63137 0.77831 0.0
C574 C 0.56178 0.62799 0.82517 0.0
C575 C 0.62703 0.64324 0.74934 0.0
C576 C 0.51605 0.56074 0.92563 0.0
C577 C 0.52577 0.57499 0.89898 0.0
C578 C 0.58532 0.5772 0.85436 0.0
C579 C 0.59097 0.6298 0.78156 0.0
C580 C 0.58247 0.61617 0.81178 0.0
C581 C 0.55415 0.57399 0.89638 0.0
C582 C 0.56439 0.58885 0.86765 0.0
H583 H 0.56246 0.66012 0.7064 0.0
H584 H 0.54884 0.63957 0.75699 0.0
H585 H 0.61005 0.58094 0.81687 0.0
H586 H 0.57732 0.53124 0.96568 0.0
H587 H 0.59452 0.55708 0.92023 0.0
C588 C 0.85518 0.05695 0.19024 0.0
C589 C 0.85242 0.08475 0.17694 0.0
C590 C 0.86821 0.04924 0.22208 0.0
C591 C 0.88952 0.0768 0.29923 0.0
H592 H 0.9381 0.01251 0.32047 0.0
C593 C 0.96355 0.05174 0.42091 0.0
C594 C 0.96472 0.02437 0.43588 0.0
C595 C 0.9491 0.0589 0.38964 0.0
C596 C 0.92437 0.03036 0.31497 0.0
H597 H 0.86168 0.12624 0.18638 0.0
H598 H 0.88471 0.11285 0.24164 0.0
H599 H 0.91435 0.02533 0.2653 0.0
H600 H 0.95195 0.98293 0.42942 0.0
H601 H 0.92707 0.9954 0.3747 0.0
H602 H 0.89998 0.08201 0.34889 0.0
C603 C 0.87624 0.09697 0.22783 0.0
C604 C 0.9107 0.03769 0.28336 0.0
C605 C 0.86307 0.10467 0.1961 0.0
C606 C 0.95147 0.00423 0.41865 0.0
C607 C 0.93726 0.01134 0.38726 0.0
C608 C 0.90334 0.06956 0.33079 0.0
C609 C 0.87895 0.06916 0.24127 0.0
C610 C 0.89313 0.06105 0.27506 0.0
C611 C 0.93586 0.03876 0.37244 0.0
C612 C 0.92094 0.04629 0.33899 0.0
H613 H 0.8469 0.04115 0.17617 0.0
H614 H 0.86955 0.02766 0.23176 0.0
H615 H 0.87577 0.09463 0.29387 0.0
H616 H 0.9742 0.06761 0.43309 0.0
H617 H 0.94878 0.08014 0.37868 0.0
C618 C 0.39865 0.33413 0.64365 0.0
C619 C 0.39481 0.34821 0.61206 0.0
C620 C 0.4059 0.34828 0.67006 0.0
C621 C 0.40034 0.41752 0.69178 0.0
H622 H 0.45027 0.38856 0.76992 0.0
C623 C 0.42456 0.48128 0.79471 0.0
C624 C 0.42313 0.46783 0.82571 0.0
C625 C 0.42569 0.46632 0.76947 0.0
C626 C 0.43615 0.39682 0.74832 0.0
H627 H 0.39637 0.38819 0.58362 0.0
H628 H 0.40964 0.41263 0.62948 0.0
H629 H 0.44365 0.36301 0.72395 0.0
H630 H 0.42331 0.4282 0.85508 0.0
H631 H 0.42487 0.40183 0.8107 0.0
H632 H 0.39234 0.45097 0.71599 0.0
C633 C 0.40663 0.3907 0.63389 0.0
C634 C 0.43235 0.3822 0.72199 0.0
C635 C 0.39936 0.3766 0.60754 0.0
C636 C 0.4245 0.43905 0.8314 0.0
C637 C 0.4254 0.42399 0.80598 0.0
C638 C 0.4041 0.43205 0.71796 0.0
C639 C 0.40945 0.37683 0.66549 0.0
C640 C 0.41438 0.39241 0.69339 0.0
C641 C 0.42513 0.4375 0.77451 0.0
C642 C 0.42207 0.42197 0.74657 0.0
H643 H 0.39572 0.3122 0.64801 0.0
H644 H 0.40777 0.33697 0.69406 0.0
H645 H 0.38583 0.42569 0.67047 0.0
H646 H 0.42399 0.50348 0.7898 0.0
H647 H 0.42622 0.47739 0.74574 0.0
C648 C 0.60468 0.63826 0.43843 0.0
C649 C 0.60978 0.66657 0.4341 0.0
C650 C 0.59705 0.62434 0.412 0.0
C651 C 0.57206 0.63349 0.32349 0.0
H652 H 0.60828 0.56253 0.33081 0.0
C653 C 0.57938 0.57351 0.21599 0.0
C654 C 0.5785 0.54478 0.22236 0.0
C655 C 0.57846 0.58944 0.24065 0.0
C656 C 0.59762 0.58212 0.32846 0.0
H657 H 0.60949 0.70258 0.39824 0.0
H658 H 0.59713 0.67806 0.35208 0.0
H659 H 0.616 0.58815 0.37599 0.0
H660 H 0.57346 0.51032 0.25842 0.0
H661 H 0.57131 0.53796 0.30113 0.0
H662 H 0.55426 0.62744 0.27535 0.0
C663 C 0.59872 0.6667 0.37602 0.0
C664 C 0.60203 0.59685 0.35447 0.0
C665 C 0.60619 0.6807 0.40254 0.0
C666 C 0.57456 0.53242 0.25302 0.0
C667 C 0.5735 0.54825 0.27749 0.0
C668 C 0.56772 0.61872 0.29727 0.0
C669 C 0.59457 0.63822 0.38043 0.0
C670 C 0.58925 0.62268 0.35246 0.0
C671 C 0.57656 0.57683 0.27199 0.0
C672 C 0.58037 0.59277 0.29957 0.0
H673 H 0.60748 0.62655 0.46227 0.0
H674 H 0.59351 0.60251 0.41637 0.0
H675 H 0.56173 0.65324 0.32116 0.0
H676 H 0.58254 0.58349 0.19256 0.0
H677 H 0.58089 0.61141 0.23564 0.0
C678 C 0.85289 0.09611 0.89064 0.0
C679 C 0.82411 0.10188 0.88436 0.0
C680 C 0.86674 0.08986 0.86636 0.0
C681 C 0.85734 0.0691 0.78485 0.0
H682 H 0.92826 0.10478 0.78264 0.0
C683 C 0.91839 0.07789 0.67687 0.0
C684 C 0.94755 0.07738 0.68457 0.0
C685 C 0.90216 0.0765 0.70132 0.0
C686 C 0.90872 0.09426 0.78313 0.0
H687 H 0.78722 0.10456 0.8476 0.0
H688 H 0.81168 0.0943 0.80484 0.0
H689 H 0.90208 0.1112 0.82473 0.0
H690 H 0.98268 0.07276 0.72346 0.0
H691 H 0.95457 0.06949 0.76608 0.0
H692 H 0.86406 0.05255 0.74264 0.0
C693 C 0.8234 0.09436 0.82879 0.0
C694 C 0.89365 0.09798 0.80732 0.0
C695 C 0.80945 0.10055 0.85321 0.0
C696 C 0.9602 0.0734 0.71699 0.0
C697 C 0.94409 0.07177 0.74132 0.0
C698 C 0.87249 0.06539 0.76046 0.0
C699 C 0.85232 0.08943 0.83498 0.0
C700 C 0.86788 0.08532 0.8087 0.0
C701 C 0.91494 0.07447 0.73378 0.0
C702 C 0.89849 0.07778 0.75952 0.0
H703 H 0.86502 0.09728 0.91413 0.0
H704 H 0.88895 0.08573 0.87213 0.0
H705 H 0.83759 0.05897 0.78531 0.0
H706 H 0.90823 0.08115 0.65197 0.0
H707 H 0.87977 0.07867 0.6947 0.0
C708 C 0.43283 0.35565 0.32292 0.0
C709 C 0.40455 0.35494 0.32581 0.0
C710 C 0.4412 0.36759 0.29436 0.0
C711 C 0.41498 0.39316 0.20776 0.0
H712 H 0.4835 0.43401 0.21594 0.0
C713 C 0.44971 0.46662 0.10278 0.0
C714 C 0.47749 0.46361 0.09864 0.0
C715 C 0.44018 0.45263 0.12972 0.0
C716 C 0.46443 0.4225 0.21325 0.0
H717 H 0.36278 0.36576 0.30095 0.0
H718 H 0.37733 0.38735 0.25128 0.0
H719 H 0.46792 0.41082 0.26397 0.0
H720 H 0.51726 0.444 0.12016 0.0
H721 H 0.50079 0.42023 0.16749 0.0
H722 H 0.41133 0.40571 0.15686 0.0
C723 C 0.39311 0.37816 0.27078 0.0
C724 C 0.45551 0.40904 0.24079 0.0
C725 C 0.38472 0.36585 0.29927 0.0
C726 C 0.4957 0.44678 0.12248 0.0
C727 C 0.48629 0.43315 0.14964 0.0
C728 C 0.42376 0.40694 0.18019 0.0
C729 C 0.42152 0.37953 0.26808 0.0
C730 C 0.43077 0.39399 0.23848 0.0
C731 C 0.45842 0.43585 0.15351 0.0
C732 C 0.44868 0.4216 0.18266 0.0
H733 H 0.44854 0.34704 0.34286 0.0
H734 H 0.46318 0.36753 0.29301 0.0
H735 H 0.39603 0.38152 0.20489 0.0
H736 H 0.43541 0.48011 0.08548 0.0
H737 H 0.41868 0.45544 0.13231 0.0
C738 C 0.14687 0.89956 0.8515 0.0
C739 C 0.15585 0.91957 0.87124 0.0
C740 C 0.13334 0.9072 0.8199 0.0
C741 C 0.12517 0.96363 0.75309 0.0
H742 H 0.05684 0.9277 0.72262 0.0
C743 C 0.05865 1.00088 0.62934 0.0
C744 C 0.04552 0.98104 0.61159 0.0
C745 C 0.07192 0.9935 0.66111 0.0
C746 C 0.07611 0.93768 0.7305 0.0
H747 H 0.15811 0.96325 0.87328 0.0
H748 H 0.13466 0.97665 0.8178 0.0
H749 H 0.08078 0.91445 0.7776 0.0
H750 H 0.03495 0.93812 0.6139 0.0
H751 H 0.05935 0.92488 0.66848 0.0
H752 H 0.12102 0.98643 0.70593 0.0
C753 C 0.13804 0.95506 0.82688 0.0
C754 C 0.08975 0.93013 0.76208 0.0
C755 C 0.15126 0.9474 0.85864 0.0
C756 C 0.04557 0.95374 0.62652 0.0
C757 C 0.05916 0.94626 0.65812 0.0
C758 C 0.11173 0.97096 0.72137 0.0
C759 C 0.12881 0.93502 0.80725 0.0
C760 C 0.11438 0.94307 0.77371 0.0
C761 C 0.07254 0.96605 0.67588 0.0
C762 C 0.08697 0.95813 0.70965 0.0
H763 H 0.14993 0.87795 0.86066 0.0
H764 H 0.12663 0.89133 0.80523 0.0
H765 H 0.14432 0.97371 0.76132 0.0
H766 H 0.05879 0.02219 0.61872 0.0
H767 H 0.08144 0.00943 0.67416 0.0
loop_
_geom_bond_atom_site_label_1
_geom_bond_atom_site_label_2
_geom_bond_distance
_geom_bond_site_symmetry_2
_ccdc_geom_bond_type
C0 C1 1.391 . S
C0 C4 1.391 . S
C0 H42 0.948 . S
C1 C0 1.391 . S
C1 C2 1.391 . S
C2 C1 1.391 . S
C2 H58 0.947 . S
C2 C59 1.392 . S
C3 C4 1.391 . S
C3 C7 1.397 . S
C3 C59 1.419 . S
C4 C0 1.391 . S
C4 C3 1.391 . S
C4 C5 1.399 . S
C5 C4 1.399 . S
C5 C8 1.396 . S
C5 C17 1.453 . S
C5 C18 1.684 . S
H6 C30 0.948 . S
C7 C3 1.397 . S
C7 C8 1.394 . S
C7 C26 1.723 1_556 S
C8 C5 1.396 . S
C8 C7 1.394 . S
C8 C38 1.723 1_556 S
H9 C32 0.947 . S
H10 C33 0.948 . S
H11 C39 0.982 . S
H12 C40 0.979 . S
H13 C40 0.980 . S
H14 C40 0.983 . S
H15 C39 0.979 . S
H16 C39 0.977 . S
C17 C5 1.453 . S
C17 H46 0.982 . S
C17 H47 0.979 . S
C17 H48 0.977 . S
C18 C5 1.684 . S
C18 H43 0.979 . S
C18 H44 0.980 . S
C18 H45 0.983 . S
C19 C20 1.391 . S
C19 C24 1.391 . S
C19 H49 0.948 . S
C20 C19 1.391 . S
C20 C21 1.391 . S
C21 C20 1.391 . S
C21 C22 1.392 . S
C21 H50 0.947 . S
C22 C21 1.392 . S
C22 C23 1.419 . S
C22 H51 0.948 . S
C23 C22 1.419 . S
C23 C24 1.391 . S
C23 C27 1.397 . S
C24 C19 1.391 . S
C24 C23 1.391 . S
C24 C25 1.399 . S
C25 C24 1.399 . S
C25 C26 1.396 . S
C25 C28 1.453 . S
C25 C29 1.684 . S
C26 C7 1.723 1_554 S
C26 C25 1.396 . S
C26 C27 1.394 . S
C27 C23 1.397 . S
C27 C26 1.394 . S
C27 C37 1.723 . S
C28 C25 1.453 . S
C28 H52 0.982 . S
C28 H53 0.979 . S
C28 H54 0.977 . S
C29 C25 1.684 . S
C29 H55 0.979 . S
C29 H56 0.969 1_554 S
C29 H57 0.983 . S
C30 H6 0.948 . S
C30 C31 1.391 . S
C30 C35 1.391 . S
C31 C30 1.391 . S
C31 C32 1.391 1_554 S
C32 H9 0.947 . S
C32 C31 1.391 1_556 S
C32 C33 1.392 . S
C33 H10 0.948 . S
C33 C32 1.392 . S
C33 C34 1.419 1_556 S
C34 C33 1.419 1_554 S
C34 C35 1.391 . S
C34 C38 1.397 . S
C35 C30 1.391 . S
C35 C34 1.391 . S
C35 C36 1.399 . S
C36 C35 1.399 . S
C36 C37 1.396 . S
C36 C39 1.453 . S
C36 C40 1.684 . S
C37 C27 1.723 . S
C37 C36 1.396 . S
C37 C38 1.394 . S
C38 C8 1.723 1_554 S
C38 C34 1.397 . S
C38 C37 1.394 . S
C39 H11 0.982 . S
C39 H15 0.979 . S
C39 H16 0.977 . S
C39 C36 1.453 . S
C40 H12 0.979 . S
C40 H13 0.980 . S
C40 H14 0.983 . S
C40 C36 1.684 . S
H41 C59 0.948 . S
H42 C0 0.948 . S
H43 C18 0.979 . S
H44 C18 0.980 . S
H45 C18 0.983 . S
H46 C17 0.982 . S
H47 C17 0.979 . S
H48 C17 0.977 . S
H49 C19 0.948 . S
H50 C21 0.947 . S
H51 C22 0.948 . S
H52 C28 0.982 . S
H53 C28 0.979 . S
H54 C28 0.977 . S
H55 C29 0.979 . S
H56 C29 0.969 1_556 S
H57 C29 0.983 . S
H58 C2 0.947 . S
C59 C2 1.392 . S
C59 C3 1.419 . S
C59 H41 0.948 . S
C60 C61 1.391 . S
C60 C64 1.391 . S
C60 H102 0.948 . S
C61 C60 1.391 . S
C61 C62 1.391 . S
C62 C61 1.391 . S
C62 H118 0.947 . S
C62 C119 1.392 . S
C63 C64 1.391 . S
C63 C67 1.397 . S
C63 C119 1.419 . S
C64 C60 1.391 . S
C64 C63 1.391 . S
C64 C65 1.399 . S
C65 C64 1.399 . S
C65 C68 1.396 . S
C65 C77 1.453 . S
C65 C78 1.684 . S
H66 C90 0.948 . S
C67 C63 1.397 . S
C67 C68 1.394 . S
C67 C86 1.723 . S
C68 C65 1.396 . S
C68 C67 1.394 . S
C68 C98 1.723 . S
H69 C92 0.947 . S
H70 C93 0.948 . S
H71 C99 0.982 . S
H72 C100 0.979 . S
H73 C100 0.980 . S
H74 C100 0.983 . S
H75 C99 0.979 . S
H76 C99 0.977 . S
C77 C65 1.453 . S
C77 H106 0.982 . S
C77 H107 0.979 . S
C77 H108 0.977 . S
C78 C65 1.684 . S
C78 H103 0.979 . S
C78 H104 0.980 . S
C78 H105 0.983 . S
C79 C80 1.391 . S
C79 C84 1.391 . S
C79 H109 0.948 . S
C80 C79 1.391 . S
C80 C81 1.391 . S
C81 C80 1.391 . S
C81 C82 1.392 . S
C81 H110 0.947 . S
C82 C81 1.392 . S
C82 C83 1.419 . S
C82 H111 0.948 . S
C83 C82 1.419 . S
C83 C84 1.391 . S
C83 C87 1.397 . S
C84 C79 1.391 . S
C84 C83 1.391 . S
C84 C85 1.399 . S
C85 C84 1.399 . S
C85 C86 1.396 . S
C85 C88 1.453 . S
C85 C89 1.684 . S
C86 C67 1.723 . S
C86 C85 1.396 . S
C86 C87 1.394 . S
C87 C83 1.397 . S
C87 C86 1.394 . S
C87 C97 1.723 . S
C88 C85 1.453 . S
C88 H112 0.982 . S
C88 H113 0.979 . S
C88 H114 0.977 . S
C89 C85 1.684 . S
C89 H115 0.979 . S
C89 H116 0.980 . S
C89 H117 0.983 . S
C90 H66 0.948 . S
C90 C91 1.391 . S
C90 C95 1.391 . S
C91 C90 1.391 . S
C91 C92 1.391 . S
C92 H69 0.947 . S
C92 C91 1.391 . S
C92 C93 1.392 . S
C93 H70 0.948 . S
C93 C92 1.392 . S
C93 C94 1.419 . S
C94 C93 1.419 . S
C94 C95 1.391 . S
C94 C98 1.397 . S
C95 C90 1.391 . S
C95 C94 1.391 . S
C95 C96 1.399 . S
C96 C95 1.399 . S
C96 C97 1.396 . S
C96 C99 1.453 . S
C96 C100 1.684 . S
C97 C87 1.723 . S
C97 C96 1.396 . S
C97 C98 1.394 . S
C98 C68 1.723 . S
C98 C94 1.397 . S
C98 C97 1.394 . S
C99 H71 0.982 . S
C99 H75 0.979 . S
C99 H76 0.977 . S
C99 C96 1.453 . S
C100 H72 0.979 . S
C100 H73 0.980 . S
C100 H74 0.983 . S
C100 C96 1.684 . S
H101 C119 0.948 . S
H102 C60 0.948 . S
H103 C78 0.979 . S
H104 C78 0.980 . S
H105 C78 0.983 . S
H106 C77 0.982 . S
H107 C77 0.979 . S
H108 C77 0.977 . S
H109 C79 0.948 . S
H110 C81 0.947 . S
H111 C82 0.948 . S
H112 C88 0.982 . S
H113 C88 0.979 . S
H114 C88 0.977 . S
H115 C89 0.979 . S
H116 C89 0.980 . S
H117 C89 0.983 . S
H118 C62 0.947 . S
C119 C62 1.392 . S
C119 C63 1.419 . S
C119 H101 0.948 . S
C120 C121 1.391 . S
C120 C124 1.391 . S
C120 H162 0.948 . S
C121 C120 1.391 . S
C121 C122 1.391 . S
C122 C121 1.391 . S
C122 H178 0.947 . S
C122 C179 1.392 . S
C123 C124 1.391 . S
C123 C127 1.397 . S
C123 C179 1.419 . S
C124 C120 1.391 . S
C124 C123 1.391 . S
C124 C125 1.399 . S
C125 C124 1.399 . S
C125 C128 1.396 . S
C125 C137 1.453 . S
C125 C138 1.684 . S
H126 C150 0.948 . S
C127 C123 1.397 . S
C127 C128 1.394 . S
C127 C146 1.723 . S
C128 C125 1.396 . S
C128 C127 1.394 . S
C128 C158 1.723 . S
H129 C152 0.947 . S
H130 C153 0.948 . S
H131 C159 0.982 . S
H132 C160 0.979 . S
H133 C160 0.980 . S
H134 C160 0.983 . S
H135 C159 0.979 . S
H136 C159 0.977 . S
C137 C125 1.453 . S
C137 H166 0.982 . S
C137 H167 0.979 . S
C137 H168 0.977 . S
C138 C125 1.684 . S
C138 H163 0.979 . S
C138 H164 0.980 . S
C138 H165 0.983 . S
C139 C140 1.391 . S
C139 C144 1.391 . S
C139 H169 0.948 . S
C140 C139 1.391 . S
C140 C141 1.391 . S
C141 C140 1.391 . S
C141 C142 1.392 . S
C141 H170 0.947 . S
C142 C141 1.392 . S
C142 C143 1.419 . S
C142 H171 0.948 . S
C143 C142 1.419 . S
C143 C144 1.391 . S
C143 C147 1.397 . S
C144 C139 1.391 . S
C144 C143 1.391 . S
C144 C145 1.399 1_556 S
C145 C144 1.399 1_554 S
C145 C146 1.396 . S
C145 C148 1.453 . S
C145 C149 1.684 . S
C146 C127 1.723 . S
C146 C145 1.396 . S
C146 C147 1.394 1_554 S
C147 C143 1.397 . S
C147 C146 1.394 1_556 S
C147 C157 1.723 . S
C148 C145 1.453 . S
C148 H172 0.982 . S
C148 H173 0.979 . S
C148 H174 0.977 . S
C149 C145 1.684 . S
C149 H175 0.979 . S
C149 H176 0.980 . S
C149 H177 0.983 . S
C150 H126 0.948 . S
C150 C151 1.391 1_556 S
C150 C155 1.391 . S
C151 C150 1.391 1_554 S
C151 C152 1.391 . S
C152 H129 0.947 . S
C152 C151 1.391 . S
C152 C153 1.392 . S
C153 H130 0.948 . S
C153 C152 1.392 . S
C153 C154 1.419 . S
C154 C153 1.419 . S
C154 C155 1.391 1_554 S
C154 C158 1.397 . S
C155 C150 1.391 . S
C155 C154 1.391 1_556 S
C155 C156 1.399 . S
C156 C155 1.399 . S
C156 C157 1.396 . S
C156 C159 1.453 . S
C156 C160 1.684 . S
C157 C147 1.723 . S
C157 C156 1.396 . S
C157 C158 1.394 1_556 S
C158 C128 1.723 . S
C158 C154 1.397 . S
C158 C157 1.394 1_554 S
C159 H131 0.982 . S
C159 H135 0.979 . S
C159 H136 0.977 . S
C159 C156 1.453 . S
C160 H132 0.979 . S
C160 H133 0.980 . S
C160 H134 0.983 . S
C160 C156 1.684 . S
H161 C179 0.948 . S
H162 C120 0.948 . S
H163 C138 0.979 . S
H164 C138 0.980 . S
H165 C138 0.983 . S
H166 C137 0.982 . S
H167 C137 0.979 . S
H168 C137 0.977 . S
H169 C139 0.948 . S
H170 C141 0.947 . S
H171 C142 0.948 . S
H172 C148 0.982 . S
H173 C148 0.979 . S
H174 C148 0.977 . S
H175 C149 0.979 . S
H176 C149 0.980 . S
H177 C149 0.983 . S
H178 C122 0.947 . S
C179 C122 1.392 . S
C179 C123 1.419 . S
C179 H161 0.948 . S
C180 C181 1.391 . S
C180 C184 1.391 . S
C180 H222 0.948 . S
C181 C180 1.391 . S
C181 C182 1.391 . S
C182 C181 1.391 . S
C182 H238 0.947 . S
C182 C239 1.392 . S
C183 C184 1.391 . S
C183 C187 1.397 . S
C183 C239 1.419 . S
C184 C180 1.391 . S
C184 C183 1.391 . S
C184 C185 1.399 . S
C185 C184 1.399 . S
C185 C188 1.396 . S
C185 C197 1.453 . S
C185 C198 1.684 . S
H186 C210 0.948 . S
C187 C183 1.397 . S
C187 C188 1.394 . S
C187 C206 1.723 . S
C188 C185 1.396 . S
C188 C187 1.394 . S
C188 C218 1.723 . S
H189 C212 0.947 . S
H190 C213 0.948 . S
H191 C219 0.982 . S
H192 C220 0.979 . S
H193 C220 0.980 . S
H194 C220 0.983 . S
H195 C219 0.979 . S
H196 C219 0.977 . S
C197 C185 1.453 . S
C197 H226 0.982 . S
C197 H227 0.979 . S
C197 H228 0.977 . S
C198 C185 1.684 . S
C198 H223 0.979 . S
C198 H224 0.980 . S
C198 H225 0.983 . S
C199 C200 1.391 . S
C199 C204 1.391 . S
C199 H229 0.948 . S
C200 C199 1.391 . S
C200 C201 1.391 . S
C201 C200 1.391 . S
C201 C202 1.392 . S
C201 H230 0.947 . S
C202 C201 1.392 . S
C202 C203 1.419 . S
C202 H231 0.948 . S
C203 C202 1.419 . S
C203 C204 1.391 . S
C203 C207 1.397 . S
C204 C199 1.391 . S
C204 C203 1.391 . S
C204 C205 1.399 . S
C205 C204 1.399 . S
C205 C206 1.396 . S
C205 C208 1.453 . S
C205 C209 1.684 . S
C206 C187 1.723 . S
C206 C205 1.396 . S
C206 C207 1.394 . S
C207 C203 1.397 . S
C207 C206 1.394 . S
C207 C217 1.723 . S
C208 C205 1.453 . S
C208 H232 0.982 . S
C208 H233 0.979 . S
C208 H234 0.977 . S
C209 C205 1.684 . S
C209 H235 0.979 . S
C209 H236 0.980 . S
C209 H237 0.983 . S
C210 H186 0.948 . S
C210 C211 1.391 . S
C210 C215 1.391 . S
C211 C210 1.391 . S
C211 C212 1.391 . S
C212 H189 0.947 . S
C212 C211 1.391 . S
C212 C213 1.392 . S
C213 H190 0.948 . S
C213 C212 1.392 . S
C213 C214 1.419 . S
C214 C213 1.419 . S
C214 C215 1.391 . S
C214 C218 1.397 . S
C215 C210 1.391 . S
C215 C214 1.391 . S
C215 C216 1.399 . S
C216 C215 1.399 . S
C216 C217 1.396 . S
C216 C219 1.453 . S
C216 C220 1.684 . S
C217 C207 1.723 . S
C217 C216 1.396 . S
C217 C218 1.394 . S
C218 C188 1.723 . S
C218 C214 1.397 . S
C218 C217 1.394 . S
C219 H191 0.982 . S
C219 H195 0.979 . S
C219 H196 0.977 . S
C219 C216 1.453 . S
C220 H192 0.979 . S
C220 H193 0.980 . S
C220 H194 0.983 . S
C220 C216 1.684 . S
H221 C239 0.948 . S
H222 C180 0.948 . S
H223 C198 0.979 . S
H224 C198 0.980 . S
H225 C198 0.983 . S
H226 C197 0.982 . S
H227 C197 0.979 . S
H228 C197 0.977 . S
H229 C199 0.948 . S
H230 C201 0.947 . S
H231 C202 0.948 . S
H232 C208 0.982 . S
H233 C208 0.979 . S
H234 C208 0.977 . S
H235 C209 0.979 . S
H236 C209 0.980 . S
H237 C209 0.983 . S
H238 C182 0.947 . S
C239 C182 1.392 . S
C239 C183 1.419 . S
C239 H221 0.948 . S
Tb240 N269 2.617 . S
Tb240 N275 2.572 . S
Tb240 O284 2.465 . S
Tb240 O285 2.387 . S
Tb240 O287 2.428 . S
Tb240 O288 2.308 1_565 S
Tb240 O292 2.367 1_455 S
Tb240 O295 2.393 1_455 S
Tb240 C304 2.802 . S
C241 N242 1.379 . S
C241 C244 1.416 . S
C241 C248 1.424 . S
N242 C241 1.379 . S
N242 C245 1.334 1_655 S
N242 Tb251 2.617 . S
C243 C245 1.390 . S
C243 C246 1.330 1_455 S
C243 H263 0.939 . S
C244 C241 1.416 . S
C244 C246 1.416 . S
C244 C250 1.448 . S
C245 N242 1.334 1_455 S
C245 C243 1.390 . S
C245 H256 0.930 . S
C246 C243 1.330 1_655 S
C246 C244 1.416 . S
C246 H267 0.930 . S
C247 C248 1.413 . S
C247 C249 1.427 . S
C247 C253 1.416 . S
C248 C241 1.424 . S
C248 C247 1.413 . S
C248 N252 1.361 . S
C249 C247 1.427 . S
C249 C250 1.328 . S
C249 H264 0.929 . S
C250 C244 1.448 . S
C250 C249 1.328 . S
C250 H265 0.930 . S
Tb251 N242 2.617 . S
Tb251 N252 2.572 . S
Tb251 O286 2.349 1_655 S
Tb251 O289 2.393 1_655 S
Tb251 O290 2.465 . S
Tb251 O291 2.387 . S
Tb251 O293 2.428 . S
Tb251 O294 2.308 1_545 S
Tb251 C315 2.802 . S
N252 C248 1.361 . S
N252 Tb251 2.572 . S
N252 C254 1.340 . S
C253 C247 1.416 . S
C253 C255 1.332 . S
C253 H261 0.931 . S
C254 N252 1.340 . S
C254 C255 1.407 . S
C254 H260 0.930 . S
C255 C253 1.332 . S
C255 C254 1.407 . S
C255 H257 0.929 . S
H256 C245 0.930 . S
H257 C255 0.929 . S
H258 C273 0.930 1_655 S
H259 C280 0.929 . S
H260 C254 0.930 . S
H261 C253 0.931 . S
H262 C276 0.930 . S
H263 C243 0.939 . S
H264 C249 0.929 . S
H265 C250 0.930 . S
H266 C271 0.930 1_655 S
H267 C246 0.930 . S
H268 C279 0.931 . S
N269 Tb240 2.617 . S
N269 C270 1.379 . S
N269 C273 1.334 . S
C270 N269 1.379 . S
C270 C272 1.416 . S
C270 C278 1.424 . S
C271 H266 0.930 1_455 S
C271 C273 1.390 . S
C271 C274 1.339 . S
C272 C270 1.416 . S
C272 C274 1.416 . S
C272 C305 1.448 . S
C273 H258 0.930 1_455 S
C273 N269 1.334 . S
C273 C271 1.390 . S
C274 C271 1.339 . S
C274 C272 1.416 . S
C274 H281 0.930 . S
N275 Tb240 2.572 . S
N275 C276 1.340 . S
N275 C278 1.361 . S
C276 H262 0.930 . S
C276 N275 1.340 . S
C276 C280 1.407 . S
C277 C278 1.413 . S
C277 C279 1.416 . S
C277 C306 1.427 . S
C278 C270 1.424 . S
C278 N275 1.361 . S
C278 C277 1.413 . S
C279 H268 0.931 . S
C279 C277 1.416 . S
C279 C280 1.332 . S
C280 H259 0.929 . S
C280 C276 1.407 . S
C280 C279 1.332 . S
H281 C274 0.930 . S
H282 C305 0.930 . S
H283 C306 0.929 . S
O284 Tb240 2.465 . S
O284 C304 1.264 . S
O285 Tb240 2.387 . S
O285 C296 1.264 . S
O286 Tb251 2.349 1_455 S
O286 C296 1.243 1_545 S
O287 Tb240 2.428 . S
O287 C304 1.256 . S
O288 Tb240 2.308 1_545 S
O288 C303 1.266 . S
O289 Tb251 2.393 1_455 S
O289 C303 1.248 . S
O290 Tb251 2.465 . S
O290 C315 1.264 . S
O291 Tb251 2.387 . S
O291 C307 1.264 . S
O292 Tb240 2.367 1_655 S
O292 C307 1.216 1_565 S
O293 Tb251 2.428 . S
O293 C315 1.256 . S
O294 Tb251 2.308 1_565 S
O294 C314 1.266 . S
O295 Tb240 2.393 1_655 S
O295 C314 1.248 . S
C296 O285 1.264 . S
C296 O286 1.243 1_565 S
C297 C300 1.399 . S
C297 C302 1.383 . S
C297 C304 1.496 . S
C298 C299 1.399 . S
C298 C302 1.389 . S
C299 C298 1.399 . S
C299 C301 1.380 . S
C299 H316 0.929 . S
C300 C297 1.399 . S
C300 C301 1.392 . S
C300 H317 0.929 . S
C301 C299 1.380 . S
C301 C300 1.392 . S
C301 H318 0.929 . S
C302 C297 1.383 . S
C302 C298 1.389 . S
C302 H319 0.931 . S
C303 O288 1.266 . S
C303 O289 1.248 . S
C304 Tb240 2.802 . S
C304 O284 1.264 . S
C304 O287 1.256 . S
C304 C297 1.496 . S
C305 C272 1.448 . S
C305 H282 0.930 . S
C305 C306 1.328 . S
C306 C277 1.427 . S
C306 H283 0.929 . S
C306 C305 1.328 . S
C307 O291 1.264 . S
C307 O292 1.216 1_545 S
C308 C311 1.399 . S
C308 C312 1.383 . S
C308 C315 1.496 . S
C309 C310 1.399 . S
C309 C312 1.389 . S
C310 C309 1.399 . S
C310 C313 1.380 . S
C310 H320 0.929 . S
C311 C308 1.399 . S
C311 C313 1.392 . S
C311 H321 0.929 . S
C312 C308 1.383 . S
C312 C309 1.389 . S
C312 H322 0.931 . S
C313 C310 1.380 . S
C313 C311 1.392 . S
C313 H323 0.929 . S
C314 O294 1.266 . S
C314 O295 1.248 . S
C315 Tb251 2.802 . S
C315 O290 1.264 . S
C315 O293 1.256 . S
C315 C308 1.496 . S
H316 C299 0.929 . S
H317 C300 0.929 . S
H318 C301 0.929 . S
H319 C302 0.931 . S
H320 C310 0.929 . S
H321 C311 0.929 . S
H322 C312 0.931 . S
H323 C313 0.929 . S
Tb324 N353 2.617 . S
Tb324 N359 2.572 1_556 S
Tb324 O368 2.465 . S
Tb324 O369 2.387 1_556 S
Tb324 O371 2.428 . S
Tb324 O372 2.308 1_556 S
Tb324 O376 2.349 . S
Tb324 O379 2.393 . S
Tb324 C388 2.802 . S
C325 N326 1.379 . S
C325 C328 1.416 . S
C325 C332 1.424 . S
N326 C325 1.379 . S
N326 C329 1.334 . S
N326 Tb335 2.617 . S
C327 C329 1.390 . S
C327 C330 1.339 . S
C327 H347 0.930 . S
C328 C325 1.416 . S
C328 C330 1.416 . S
C328 C334 1.448 . S
C329 N326 1.334 . S
C329 C327 1.390 . S
C329 H340 0.930 . S
C330 C327 1.339 . S
C330 C328 1.416 . S
C330 H351 0.930 . S
C331 C332 1.413 . S
C331 C333 1.427 . S
C331 C337 1.416 . S
C332 C325 1.424 . S
C332 C331 1.413 . S
C332 N336 1.361 . S
C333 C331 1.427 . S
C333 C334 1.328 . S
C333 H348 0.929 . S
C334 C328 1.448 . S
C334 C333 1.328 . S
C334 H349 0.930 . S
Tb335 N326 2.617 . S
Tb335 N336 2.572 . S
Tb335 O370 2.349 . S
Tb335 O373 2.393 . S
Tb335 O374 2.465 . S
Tb335 O375 2.387 1_554 S
Tb335 O377 2.428 . S
Tb335 O378 2.308 . S
Tb335 C399 2.802 . S
N336 C332 1.361 . S
N336 Tb335 2.572 . S
N336 C338 1.340 . S
C337 C331 1.416 . S
C337 C339 1.332 . S
C337 H345 0.931 . S
C338 N336 1.340 . S
C338 C339 1.407 . S
C338 H344 0.930 . S
C339 C337 1.332 . S
C339 C338 1.407 . S
C339 H341 0.929 . S
H340 C329 0.930 . S
H341 C339 0.929 . S
H342 C357 0.930 . S
H343 C364 0.929 . S
H344 C338 0.930 . S
H345 C337 0.931 . S
H346 C360 0.930 . S
H347 C327 0.930 . S
H348 C333 0.929 . S
H349 C334 0.930 . S
H350 C355 0.930 . S
H351 C330 0.930 . S
H352 C363 0.931 . S
N353 Tb324 2.617 . S
N353 C354 1.379 1_556 S
N353 C357 1.334 . S
C354 N353 1.379 1_554 S
C354 C356 1.416 . S
C354 C362 1.424 . S
C355 H350 0.930 . S
C355 C357 1.390 . S
C355 C358 1.339 1_556 S
C356 C354 1.416 . S
C356 C358 1.416 . S
C356 C389 1.448 . S
C357 H342 0.930 . S
C357 N353 1.334 . S
C357 C355 1.390 . S
C358 C355 1.339 1_554 S
C358 C356 1.416 . S
C358 H365 0.930 . S
N359 Tb324 2.572 1_554 S
N359 C360 1.340 . S
N359 C362 1.361 . S
C360 H346 0.930 . S
C360 N359 1.340 . S
C360 C364 1.407 . S
C361 C362 1.413 . S
C361 C363 1.416 . S
C361 C390 1.427 . S
C362 C354 1.424 . S
C362 N359 1.361 . S
C362 C361 1.413 . S
C363 H352 0.931 . S
C363 C361 1.416 . S
C363 C364 1.332 . S
C364 H343 0.929 . S
C364 C360 1.407 . S
C364 C363 1.332 . S
H365 C358 0.930 . S
H366 C389 0.930 . S
H367 C390 0.929 . S
O368 Tb324 2.465 . S
O368 C388 1.264 . S
O369 Tb324 2.387 1_554 S
O369 C380 1.264 . S
O370 Tb335 2.349 . S
O370 C380 1.243 . S
O371 Tb324 2.428 . S
O371 C388 1.256 . S
O372 Tb324 2.308 1_554 S
O372 C387 1.266 . S
O373 Tb335 2.393 . S
O373 C387 1.248 . S
O374 Tb335 2.465 . S
O374 C399 1.264 . S
O375 Tb335 2.387 1_556 S
O375 C391 1.264 . S
O376 Tb324 2.349 . S
O376 C391 1.243 . S
O377 Tb335 2.428 . S
O377 C399 1.256 . S
O378 Tb335 2.308 . S
O378 C398 1.266 . S
O379 Tb324 2.393 . S
O379 C398 1.248 1_556 S
C380 O369 1.264 . S
C380 O370 1.243 . S
C381 C384 1.399 . S
C381 C386 1.383 . S
C381 C388 1.496 . S
C382 C383 1.399 . S
C382 C386 1.389 . S
C383 C382 1.399 . S
C383 C385 1.380 . S
C383 H400 0.929 . S
C384 C381 1.399 . S
C384 C385 1.392 . S
C384 H401 0.929 . S
C385 C383 1.380 . S
C385 C384 1.392 . S
C385 H402 0.929 . S
C386 C381 1.383 . S
C386 C382 1.389 . S
C386 H403 0.931 . S
C387 O372 1.266 . S
C387 O373 1.248 . S
C388 Tb324 2.802 . S
C388 O368 1.264 . S
C388 O371 1.256 . S
C388 C381 1.496 . S
C389 C356 1.448 . S
C389 H366 0.930 . S
C389 C390 1.328 . S
C390 C361 1.427 . S
C390 H367 0.929 . S
C390 C389 1.328 . S
C391 O375 1.264 . S
C391 O376 1.243 . S
C392 C395 1.399 . S
C392 C396 1.383 . S
C392 C399 1.496 . S
C393 C394 1.399 . S
C393 C396 1.389 . S
C394 C393 1.399 . S
C394 C397 1.380 . S
C394 H404 0.929 . S
C395 C392 1.399 . S
C395 C397 1.392 . S
C395 H405 0.929 . S
C396 C392 1.383 . S
C396 C393 1.389 . S
C396 H406 0.931 . S
C397 C394 1.380 . S
C397 C395 1.392 . S
C397 H407 0.929 . S
C398 O378 1.266 . S
C398 O379 1.248 1_554 S
C399 Tb335 2.802 . S
C399 O374 1.264 . S
C399 O377 1.256 . S
C399 C392 1.496 . S
H400 C383 0.929 . S
H401 C384 0.929 . S
H402 C385 0.929 . S
H403 C386 0.931 . S
H404 C394 0.929 . S
H405 C395 0.929 . S
H406 C396 0.931 . S
H407 C397 0.929 . S
C408 C409 1.349 . S
C408 C410 1.327 . S
C408 H433 0.950 . S
C409 C408 1.349 . S
C409 C425 1.349 . S
C410 C408 1.327 . S
C410 C429 1.429 . S
C410 H434 0.950 . S
C411 C428 1.574 . S
C411 C430 1.368 . S
C411 H435 0.949 . S
H412 C416 0.949 . S
C413 C414 1.349 . S
C413 C415 1.327 . S
C413 H436 0.950 . S
C414 C413 1.349 . S
C414 C426 1.349 . S
C415 C413 1.327 . S
C415 C431 1.429 . S
C415 H437 0.950 . S
C416 H412 0.949 . S
C416 C424 1.574 . S
C416 C432 1.368 . S
H417 C425 0.950 . S
H418 C423 0.950 . S
H419 C424 0.949 . S
H420 C426 0.950 . S
H421 C427 0.950 . S
H422 C428 0.949 . S
C423 H418 0.950 . S
C423 C425 1.327 . S
C423 C429 1.429 . S
C424 C416 1.574 . S
C424 H419 0.949 . S
C424 C430 1.368 . S
C425 C409 1.349 . S
C425 H417 0.950 . S
C425 C423 1.327 . S
C426 C414 1.349 . S
C426 H420 0.950 . S
C426 C427 1.327 . S
C427 H421 0.950 . S
C427 C426 1.327 . S
C427 C431 1.429 . S
C428 C411 1.574 . S
C428 H422 0.949 . S
C428 C432 1.368 . S
C429 C410 1.429 . S
C429 C423 1.429 . S
C429 C430 1.523 . S
C430 C411 1.368 . S
C430 C424 1.368 . S
C430 C429 1.523 . S
C431 C415 1.429 . S
C431 C427 1.429 . S
C431 C432 1.523 . S
C432 C416 1.368 . S
C432 C428 1.368 . S
C432 C431 1.523 . S
H433 C408 0.950 . S
H434 C410 0.950 . S
H435 C411 0.949 . S
H436 C413 0.950 . S
H437 C415 0.950 . S
C438 C439 1.349 . S
C438 C440 1.327 . S
C438 H463 0.950 . S
C439 C438 1.349 . S
C439 C455 1.349 . S
C440 C438 1.327 . S
C440 C459 1.429 . S
C440 H464 0.950 . S
C441 C458 1.574 . S
C441 C460 1.368 . S
C441 H465 0.949 1_554 S
H442 C446 0.949 . S
C443 C444 1.349 . S
C443 C445 1.327 . S
C443 H466 0.950 1_554 S
C444 C443 1.349 . S
C444 C456 1.349 . S
C445 C443 1.327 . S
C445 C461 1.429 . S
C445 H467 0.950 1_554 S
C446 H442 0.949 . S
C446 C454 1.574 . S
C446 C462 1.368 . S
H447 C455 0.950 1_556 S
H448 C453 0.950 1_556 S
H449 C454 0.949 . S
H450 C456 0.950 . S
H451 C457 0.950 . S
H452 C458 0.949 1_556 S
C453 H448 0.950 1_554 S
C453 C455 1.327 . S
C453 C459 1.429 . S
C454 C446 1.574 . S
C454 H449 0.949 . S
C454 C460 1.368 . S
C455 C439 1.349 . S
C455 H447 0.950 1_554 S
C455 C453 1.327 . S
C456 C444 1.349 . S
C456 H450 0.950 . S
C456 C457 1.327 . S
C457 H451 0.950 . S
C457 C456 1.327 . S
C457 C461 1.429 . S
C458 C441 1.574 . S
C458 H452 0.949 1_554 S
C458 C462 1.368 . S
C459 C440 1.429 . S
C459 C453 1.429 . S
C459 C460 1.523 . S
C460 C441 1.368 . S
C460 C454 1.368 . S
C460 C459 1.523 . S
C461 C445 1.429 . S
C461 C457 1.429 . S
C461 C462 1.523 . S
C462 C446 1.368 . S
C462 C458 1.368 . S
C462 C461 1.523 . S
H463 C438 0.950 . S
H464 C440 0.950 . S
H465 C441 0.949 1_556 S
H466 C443 0.950 1_556 S
H467 C445 0.950 1_556 S
C468 C469 1.349 . S
C468 C470 1.327 . S
C468 H493 0.950 . S
C469 C468 1.349 . S
C469 C485 1.349 . S
C470 C468 1.327 . S
C470 C489 1.429 . S
C470 H494 0.950 . S
C471 C488 1.574 . S
C471 C490 1.368 . S
C471 H495 0.949 . S
H472 C476 0.949 . S
C473 C474 1.349 . S
C473 C475 1.327 . S
C473 H496 0.950 . S
C474 C473 1.349 . S
C474 C486 1.349 . S
C475 C473 1.327 . S
C475 C491 1.429 . S
C475 H497 0.950 . S
C476 H472 0.949 . S
C476 C484 1.574 . S
C476 C492 1.368 . S
H477 C485 0.950 . S
H478 C483 0.950 . S
H479 C484 0.949 . S
H480 C486 0.950 . S
H481 C487 0.950 . S
H482 C488 0.949 . S
C483 H478 0.950 . S
C483 C485 1.327 . S
C483 C489 1.429 . S
C484 C476 1.574 . S
C484 H479 0.949 . S
C484 C490 1.368 . S
C485 C469 1.349 . S
C485 H477 0.950 . S
C485 C483 1.327 . S
C486 C474 1.349 . S
C486 H480 0.950 . S
C486 C487 1.327 . S
C487 H481 0.950 . S
C487 C486 1.327 . S
C487 C491 1.429 . S
C488 C471 1.574 . S
C488 H482 0.949 . S
C488 C492 1.368 . S
C489 C470 1.429 . S
C489 C483 1.429 . S
C489 C490 1.523 . S
C490 C471 1.368 . S
C490 C484 1.368 . S
C490 C489 1.523 . S
C491 C475 1.429 . S
C491 C487 1.429 . S
C491 C492 1.523 . S
C492 C476 1.368 . S
C492 C488 1.368 . S
C492 C491 1.523 . S
H493 C468 0.950 . S
H494 C470 0.950 . S
H495 C471 0.949 . S
H496 C473 0.950 . S
H497 C475 0.950 . S
C498 C499 1.349 . S
C498 C500 1.327 . S
C498 H523 0.950 . S
C499 C498 1.349 . S
C499 C515 1.349 1_554 S
C500 C498 1.327 . S
C500 C519 1.429 . S
C500 H524 0.950 . S
C501 C518 1.574 . S
C501 C520 1.368 1_556 S
C501 H525 0.949 . S
H502 C506 0.949 . S
C503 C504 1.349 1_556 S
C503 C505 1.327 . S
C503 H526 0.950 . S
C504 C503 1.349 1_554 S
C504 C516 1.349 . S
C505 C503 1.327 . S
C505 C521 1.429 1_556 S
C505 H527 0.950 . S
C506 H502 0.949 . S
C506 C514 1.574 . S
C506 C522 1.368 . S
H507 C515 0.950 . S
H508 C513 0.950 . S
H509 C514 0.949 . S
H510 C516 0.950 . S
H511 C517 0.950 . S
H512 C518 0.949 . S
C513 H508 0.950 . S
C513 C515 1.327 . S
C513 C519 1.429 1_556 S
C514 C506 1.574 . S
C514 H509 0.949 . S
C514 C520 1.368 . S
C515 C499 1.349 1_556 S
C515 H507 0.950 . S
C515 C513 1.327 . S
C516 C504 1.349 . S
C516 H510 0.950 . S
C516 C517 1.327 . S
C517 H511 0.950 . S
C517 C516 1.327 . S
C517 C521 1.429 . S
C518 C501 1.574 . S
C518 H512 0.949 . S
C518 C522 1.368 1_556 S
C519 C500 1.429 . S
C519 C513 1.429 1_554 S
C519 C520 1.523 . S
C520 C501 1.368 1_554 S
C520 C514 1.368 . S
C520 C519 1.523 . S
C521 C505 1.429 1_554 S
C521 C517 1.429 . S
C521 C522 1.523 . S
C522 C506 1.368 . S
C522 C518 1.368 1_554 S
C522 C521 1.523 . S
H523 C498 0.950 . S
H524 C500 0.950 . S
H525 C501 0.949 . S
H526 C503 0.950 . S
H527 C505 0.950 . S
C528 C529 1.349 . S
C528 C530 1.327 . S
C528 H553 0.950 . S
C529 C528 1.349 . S
C529 C545 1.349 . S
C530 C528 1.327 . S
C530 C549 1.429 . S
C530 H554 0.950 . S
C531 C548 1.574 . S
C531 C550 1.368 . S
C531 H555 0.949 . S
H532 C536 0.949 . S
C533 C534 1.349 . S
C533 C535 1.327 . S
C533 H556 0.950 . S
C534 C533 1.349 . S
C534 C546 1.349 . S
C535 C533 1.327 . S
C535 C551 1.429 . S
C535 H557 0.950 . S
C536 H532 0.949 . S
C536 C544 1.574 . S
C536 C552 1.368 . S
H537 C545 0.950 . S
H538 C543 0.950 . S
H539 C544 0.949 . S
H540 C546 0.950 . S
H541 C547 0.950 . S
H542 C548 0.949 . S
C543 H538 0.950 . S
C543 C545 1.327 . S
C543 C549 1.429 . S
C544 C536 1.574 . S
C544 H539 0.949 . S
C544 C550 1.368 . S
C545 C529 1.349 . S
C545 H537 0.950 . S
C545 C543 1.327 . S
C546 C534 1.349 . S
C546 H540 0.950 . S
C546 C547 1.327 . S
C547 H541 0.950 . S
C547 C546 1.327 . S
C547 C551 1.429 . S
C548 C531 1.574 . S
C548 H542 0.949 . S
C548 C552 1.368 . S
C549 C530 1.429 . S
C549 C543 1.429 . S
C549 C550 1.523 . S
C550 C531 1.368 . S
C550 C544 1.368 . S
C550 C549 1.523 . S
C551 C535 1.429 . S
C551 C547 1.429 . S
C551 C552 1.523 . S
C552 C536 1.368 . S
C552 C548 1.368 . S
C552 C551 1.523 . S
H553 C528 0.950 . S
H554 C530 0.950 . S
H555 C531 0.949 . S
H556 C533 0.950 . S
H557 C535 0.950 . S
C558 C559 1.349 . S
C558 C560 1.327 . S
C558 H583 0.950 . S
C559 C558 1.349 . S
C559 C575 1.349 . S
C560 C558 1.327 . S
C560 C579 1.429 . S
C560 H584 0.950 . S
C561 C578 1.574 . S
C561 C580 1.368 . S
C561 H585 0.949 . S
H562 C566 0.949 . S
C563 C564 1.349 . S
C563 C565 1.327 . S
C563 H586 0.950 . S
C564 C563 1.349 . S
C564 C576 1.349 . S
C565 C563 1.327 . S
C565 C581 1.429 . S
C565 H587 0.950 . S
C566 H562 0.949 . S
C566 C574 1.574 . S
C566 C582 1.368 . S
H567 C575 0.950 . S
H568 C573 0.950 . S
H569 C574 0.949 . S
H570 C576 0.950 . S
H571 C577 0.950 . S
H572 C578 0.949 . S
C573 H568 0.950 . S
C573 C575 1.327 . S
C573 C579 1.429 . S
C574 C566 1.574 . S
C574 H569 0.949 . S
C574 C580 1.368 . S
C575 C559 1.349 . S
C575 H567 0.950 . S
C575 C573 1.327 . S
C576 C564 1.349 . S
C576 H570 0.950 . S
C576 C577 1.327 . S
C577 H571 0.950 . S
C577 C576 1.327 . S
C577 C581 1.429 . S
C578 C561 1.574 . S
C578 H572 0.949 . S
C578 C582 1.368 . S
C579 C560 1.429 . S
C579 C573 1.429 . S
C579 C580 1.523 . S
C580 C561 1.368 . S
C580 C574 1.368 . S
C580 C579 1.523 . S
C581 C565 1.429 . S
C581 C577 1.429 . S
C581 C582 1.523 . S
C582 C566 1.368 . S
C582 C578 1.368 . S
C582 C581 1.523 . S
H583 C558 0.950 . S
H584 C560 0.950 . S
H585 C561 0.949 . S
H586 C563 0.950 . S
H587 C565 0.950 . S
C588 C589 1.349 . S
C588 C590 1.327 . S
C588 H613 0.950 . S
C589 C588 1.349 . S
C589 C605 1.349 . S
C590 C588 1.327 . S
C590 C609 1.429 . S
C590 H614 0.950 . S
C591 C608 1.574 . S
C591 C610 1.368 . S
C591 H615 0.949 . S
H592 C596 0.949 . S
C593 C594 1.349 . S
C593 C595 1.327 . S
C593 H616 0.950 . S
C594 C593 1.349 . S
C594 C606 1.349 . S
C595 C593 1.327 . S
C595 C611 1.429 . S
C595 H617 0.950 . S
C596 H592 0.949 . S
C596 C604 1.574 . S
C596 C612 1.368 . S
H597 C605 0.950 . S
H598 C603 0.950 . S
H599 C604 0.949 . S
H600 C606 0.950 1_565 S
H601 C607 0.950 . S
H602 C608 0.949 . S
C603 H598 0.950 . S
C603 C605 1.327 . S
C603 C609 1.429 . S
C604 C596 1.574 . S
C604 H599 0.949 . S
C604 C610 1.368 . S
C605 C589 1.349 . S
C605 H597 0.950 . S
C605 C603 1.327 . S
C606 C594 1.349 . S
C606 H600 0.950 1_545 S
C606 C607 1.327 . S
C607 H601 0.950 . S
C607 C606 1.327 . S
C607 C611 1.429 . S
C608 C591 1.574 . S
C608 H602 0.949 . S
C608 C612 1.368 . S
C609 C590 1.429 . S
C609 C603 1.429 . S
C609 C610 1.523 . S
C610 C591 1.368 . S
C610 C604 1.368 . S
C610 C609 1.523 . S
C611 C595 1.429 . S
C611 C607 1.429 . S
C611 C612 1.523 . S
C612 C596 1.368 . S
C612 C608 1.368 . S
C612 C611 1.523 . S
H613 C588 0.950 . S
H614 C590 0.950 . S
H615 C591 0.949 . S
H616 C593 0.950 . S
H617 C595 0.950 . S
C618 C619 1.349 . S
C618 C620 1.327 . S
C618 H643 0.950 . S
C619 C618 1.349 . S
C619 C635 1.349 . S
C620 C618 1.327 . S
C620 C639 1.429 . S
C620 H644 0.950 . S
C621 C638 1.574 . S
C621 C640 1.368 . S
C621 H645 0.949 . S
H622 C626 0.949 . S
C623 C624 1.349 . S
C623 C625 1.327 . S
C623 H646 0.950 . S
C624 C623 1.349 . S
C624 C636 1.349 . S
C625 C623 1.327 . S
C625 C641 1.429 . S
C625 H647 0.950 . S
C626 H622 0.949 . S
C626 C634 1.574 . S
C626 C642 1.368 . S
H627 C635 0.950 . S
H628 C633 0.950 . S
H629 C634 0.949 . S
H630 C636 0.950 . S
H631 C637 0.950 . S
H632 C638 0.949 . S
C633 H628 0.950 . S
C633 C635 1.327 . S
C633 C639 1.429 . S
C634 C626 1.574 . S
C634 H629 0.949 . S
C634 C640 1.368 . S
C635 C619 1.349 . S
C635 H627 0.950 . S
C635 C633 1.327 . S
C636 C624 1.349 . S
C636 H630 0.950 . S
C636 C637 1.327 . S
C637 H631 0.950 . S
C637 C636 1.327 . S
C637 C641 1.429 . S
C638 C621 1.574 . S
C638 H632 0.949 . S
C638 C642 1.368 . S
C639 C620 1.429 . S
C639 C633 1.429 . S
C639 C640 1.523 . S
C640 C621 1.368 . S
C640 C634 1.368 . S
C640 C639 1.523 . S
C641 C625 1.429 . S
C641 C637 1.429 . S
C641 C642 1.523 . S
C642 C626 1.368 . S
C642 C638 1.368 . S
C642 C641 1.523 . S
H643 C618 0.950 . S
H644 C620 0.950 . S
H645 C621 0.949 . S
H646 C623 0.950 . S
H647 C625 0.950 . S
C648 C649 1.349 . S
C648 C650 1.327 . S
C648 H673 0.950 . S
C649 C648 1.349 . S
C649 C665 1.349 . S
C650 C648 1.327 . S
C650 C669 1.429 . S
C650 H674 0.950 . S
C651 C668 1.574 . S
C651 C670 1.368 . S
C651 H675 0.949 . S
H652 C656 0.949 . S
C653 C654 1.349 . S
C653 C655 1.327 . S
C653 H676 0.950 . S
C654 C653 1.349 . S
C654 C666 1.349 . S
C655 C653 1.327 . S
C655 C671 1.429 . S
C655 H677 0.950 . S
C656 H652 0.949 . S
C656 C664 1.574 . S
C656 C672 1.368 . S
H657 C665 0.950 . S
H658 C663 0.950 . S
H659 C664 0.949 . S
H660 C666 0.950 . S
H661 C667 0.950 . S
H662 C668 0.949 . S
C663 H658 0.950 . S
C663 C665 1.327 . S
C663 C669 1.429 . S
C664 C656 1.574 . S
C664 H659 0.949 . S
C664 C670 1.368 . S
C665 C649 1.349 . S
C665 H657 0.950 . S
C665 C663 1.327 . S
C666 C654 1.349 . S
C666 H660 0.950 . S
C666 C667 1.327 . S
C667 H661 0.950 . S
C667 C666 1.327 . S
C667 C671 1.429 . S
C668 C651 1.574 . S
C668 H662 0.949 . S
C668 C672 1.368 . S
C669 C650 1.429 . S
C669 C663 1.429 . S
C669 C670 1.523 . S
C670 C651 1.368 . S
C670 C664 1.368 . S
C670 C669 1.523 . S
C671 C655 1.429 . S
C671 C667 1.429 . S
C671 C672 1.523 . S
C672 C656 1.368 . S
C672 C668 1.368 . S
C672 C671 1.523 . S
H673 C648 0.950 . S
H674 C650 0.950 . S
H675 C651 0.949 . S
H676 C653 0.950 . S
H677 C655 0.950 . S
C678 C679 1.349 . S
C678 C680 1.327 . S
C678 H703 0.950 . S
C679 C678 1.349 . S
C679 C695 1.349 . S
C680 C678 1.327 . S
C680 C699 1.429 . S
C680 H704 0.950 . S
C681 C698 1.574 . S
C681 C700 1.368 . S
C681 H705 0.949 . S
H682 C686 0.949 . S
C683 C684 1.349 . S
C683 C685 1.327 . S
C683 H706 0.950 . S
C684 C683 1.349 . S
C684 C696 1.349 . S
C685 C683 1.327 . S
C685 C701 1.429 . S
C685 H707 0.950 . S
C686 H682 0.949 . S
C686 C694 1.574 . S
C686 C702 1.368 . S
H687 C695 0.950 . S
H688 C693 0.950 . S
H689 C694 0.949 . S
H690 C696 0.950 . S
H691 C697 0.950 . S
H692 C698 0.949 . S
C693 H688 0.950 . S
C693 C695 1.327 . S
C693 C699 1.429 . S
C694 C686 1.574 . S
C694 H689 0.949 . S
C694 C700 1.368 . S
C695 C679 1.349 . S
C695 H687 0.950 . S
C695 C693 1.327 . S
C696 C684 1.349 . S
C696 H690 0.950 . S
C696 C697 1.327 . S
C697 H691 0.950 . S
C697 C696 1.327 . S
C697 C701 1.429 . S
C698 C681 1.574 . S
C698 H692 0.949 . S
C698 C702 1.368 . S
C699 C680 1.429 . S
C699 C693 1.429 . S
C699 C700 1.523 . S
C700 C681 1.368 . S
C700 C694 1.368 . S
C700 C699 1.523 . S
C701 C685 1.429 . S
C701 C697 1.429 . S
C701 C702 1.523 . S
C702 C686 1.368 . S
C702 C698 1.368 . S
C702 C701 1.523 . S
H703 C678 0.950 . S
H704 C680 0.950 . S
H705 C681 0.949 . S
H706 C683 0.950 . S
H707 C685 0.950 . S
C708 C709 1.349 . S
C708 C710 1.327 . S
C708 H733 0.950 . S
C709 C708 1.349 . S
C709 C725 1.349 . S
C710 C708 1.327 . S
C710 C729 1.429 . S
C710 H734 0.950 . S
C711 C728 1.574 . S
C711 C730 1.368 . S
C711 H735 0.949 . S
H712 C716 0.949 . S
C713 C714 1.349 . S
C713 C715 1.327 . S
C713 H736 0.950 . S
C714 C713 1.349 . S
C714 C726 1.349 . S
C715 C713 1.327 . S
C715 C731 1.429 . S
C715 H737 0.950 . S
C716 H712 0.949 . S
C716 C724 1.574 . S
C716 C732 1.368 . S
H717 C725 0.950 . S
H718 C723 0.950 . S
H719 C724 0.949 . S
H720 C726 0.950 . S
H721 C727 0.950 . S
H722 C728 0.949 . S
C723 H718 0.950 . S
C723 C725 1.327 . S
C723 C729 1.429 . S
C724 C716 1.574 . S
C724 H719 0.949 . S
C724 C730 1.368 . S
C725 C709 1.349 . S
C725 H717 0.950 . S
C725 C723 1.327 . S
C726 C714 1.349 . S
C726 H720 0.950 . S
C726 C727 1.327 . S
C727 H721 0.950 . S
C727 C726 1.327 . S
C727 C731 1.429 . S
C728 C711 1.574 . S
C728 H722 0.949 . S
C728 C732 1.368 . S
C729 C710 1.429 . S
C729 C723 1.429 . S
C729 C730 1.523 . S
C730 C711 1.368 . S
C730 C724 1.368 . S
C730 C729 1.523 . S
C731 C715 1.429 . S
C731 C727 1.429 . S
C731 C732 1.523 . S
C732 C716 1.368 . S
C732 C728 1.368 . S
C732 C731 1.523 . S
H733 C708 0.950 . S
H734 C710 0.950 . S
H735 C711 0.949 . S
H736 C713 0.950 . S
H737 C715 0.950 . S
C738 C739 1.349 . S
C738 C740 1.327 . S
C738 H763 0.950 . S
C739 C738 1.349 . S
C739 C755 1.349 . S
C740 C738 1.327 . S
C740 C759 1.429 . S
C740 H764 0.950 . S
C741 C758 1.574 . S
C741 C760 1.368 . S
C741 H765 0.949 . S
H742 C746 0.949 . S
C743 C744 1.349 . S
C743 C745 1.327 . S
C743 H766 0.950 1_565 S
C744 C743 1.349 . S
C744 C756 1.349 . S
C745 C743 1.327 . S
C745 C761 1.429 . S
C745 H767 0.937 1_565 S
C746 H742 0.949 . S
C746 C754 1.574 . S
C746 C762 1.368 . S
H747 C755 0.950 . S
H748 C753 0.950 . S
H749 C754 0.949 . S
H750 C756 0.950 . S
H751 C757 0.950 . S
H752 C758 0.949 . S
C753 H748 0.950 . S
C753 C755 1.327 . S
C753 C759 1.429 . S
C754 C746 1.574 . S
C754 H749 0.949 . S
C754 C760 1.368 . S
C755 C739 1.349 . S
C755 H747 0.950 . S
C755 C753 1.327 . S
C756 C744 1.349 . S
C756 H750 0.950 . S
C756 C757 1.327 . S
C757 H751 0.950 . S
C757 C756 1.327 . S
C757 C761 1.429 . S
C758 C741 1.574 . S
C758 H752 0.949 . S
C758 C762 1.368 . S
C759 C740 1.429 . S
C759 C753 1.429 . S
C759 C760 1.523 . S
C760 C741 1.368 . S
C760 C754 1.368 . S
C760 C759 1.523 . S
C761 C745 1.429 . S
C761 C757 1.429 . S
C761 C762 1.523 . S
C762 C746 1.368 . S
C762 C758 1.368 . S
C762 C761 1.523 . S
H763 C738 0.950 . S
H764 C740 0.950 . S
H765 C741 0.949 . S
H766 C743 0.950 1_545 S
H767 C745 0.937 1_545 S
C414 C303 1.611 . S
C409 C211 1.607 . S
C439 C31 1.546 . S
C444 C398 1.603 . S
C469 C91 1.633 . S
C474 C314 1.612 . S
C499 C151 1.584 . S
C504 C387 1.603 . S
C534 C298 1.414 . S
C529 C20 1.528 . S
C564 C391 1.604 . S
C559 C61 1.567 . S
C589 C121 1.587 . S
C594 C307 1.599 . S
C619 C200 1.498 . S
C624 C382 1.400 . S
C654 C393 1.400 . S
C649 C80 1.515 . S
C684 C309 1.414 . S
C679 C140 1.553 . S
C714 C380 1.604 . S
C709 C181 1.540 . S
C739 C1 1.549 . S
C744 C296 1.599 . S
