# Generated by pormake.
# Topology wbl, (4,4)-cn, num edge types: 1
# Building blocks:
#     Node 0, Type 0, BuildingBlock: NAWXER_clean_linker_0, # of connection points: 4
#     Node 1, Type 0, BuildingBlock: NAWXER_clean_linker_0, # of connection points: 4
#     Node 2, Type 0, BuildingBlock: NAWXER_clean_linker_0, # of connection points: 4
#     Node 3, Type 0, BuildingBlock: NAWXER_clean_linker_0, # of connection points: 4
#     Node 4, Type 0, BuildingBlock: NAWXER_clean_linker_0, # of connection points: 4
#     Node 5, Type 0, BuildingBlock: NAWXER_clean_linker_0, # of connection points: 4
#     Node 6, Type 0, BuildingBlock: NAWXER_clean_linker_0, # of connection points: 4
#     Node 7, Type 0, BuildingBlock: NAWXER_clean_linker_0, # of connection points: 4
#     Node 8, Type 1, BuildingBlock: GALJAG_clean_sbu_0, # of connection points: 4
#     Node 9, Type 1, BuildingBlock: GALJAG_clean_sbu_0, # of connection points: 4
#     Node 10, Type 1, BuildingBlock: GALJAG_clean_sbu_0, # of connection points: 4
#     Node 11, Type 1, BuildingBlock: GALJAG_clean_sbu_0, # of connection points: 4
#     Node 12, Type 1, BuildingBlock: GALJAG_clean_sbu_0, # of connection points: 4
#     Node 13, Type 1, BuildingBlock: GALJAG_clean_sbu_0, # of connection points: 4
#     Node 14, Type 1, BuildingBlock: GALJAG_clean_sbu_0, # of connection points: 4
#     Node 15, Type 1, BuildingBlock: GALJAG_clean_sbu_0, # of connection points: 4
#     Edge 16, Type (0, 1), BuildingBlock: ZUJKAS_clean_linker_0, # of connection points: 2
#     Edge 17, Type (0, 1), BuildingBlock: ZUJKAS_clean_linker_0, # of connection points: 2
#     Edge 18, Type (0, 1), BuildingBlock: ZUJKAS_clean_linker_0, # of connection points: 2
#     Edge 19, Type (0, 1), BuildingBlock: ZUJKAS_clean_linker_0, # of connection points: 2
#     Edge 20, Type (0, 1), BuildingBlock: ZUJKAS_clean_linker_0, # of connection points: 2
#     Edge 21, Type (0, 1), BuildingBlock: ZUJKAS_clean_linker_0, # of connection points: 2
#     Edge 22, Type (0, 1), BuildingBlock: ZUJKAS_clean_linker_0, # of connection points: 2
#     Edge 23, Type (0, 1), BuildingBlock: ZUJKAS_clean_linker_0, # of connection points: 2
#     Edge 24, Type (0, 1), BuildingBlock: ZUJKAS_clean_linker_0, # of connection points: 2
#     Edge 25, Type (0, 1), BuildingBlock: ZUJKAS_clean_linker_0, # of connection points: 2
#     Edge 26, Type (0, 1), BuildingBlock: ZUJKAS_clean_linker_0, # of connection points: 2
#     Edge 27, Type (0, 1), BuildingBlock: ZUJKAS_clean_linker_0, # of connection points: 2
#     Edge 28, Type (0, 1), BuildingBlock: ZUJKAS_clean_linker_0, # of connection points: 2
#     Edge 29, Type (0, 1), BuildingBlock: ZUJKAS_clean_linker_0, # of connection points: 2
#     Edge 30, Type (0, 1), BuildingBlock: ZUJKAS_clean_linker_0, # of connection points: 2
#     Edge 31, Type (0, 1), BuildingBlock: ZUJKAS_clean_linker_0, # of connection points: 2
#     Edge 32, Type (0, 1), BuildingBlock: ZUJKAS_clean_linker_0, # of connection points: 2
#     Edge 33, Type (0, 1), BuildingBlock: ZUJKAS_clean_linker_0, # of connection points: 2
#     Edge 34, Type (0, 1), BuildingBlock: ZUJKAS_clean_linker_0, # of connection points: 2
#     Edge 35, Type (0, 1), BuildingBlock: ZUJKAS_clean_linker_0, # of connection points: 2
#     Edge 36, Type (0, 1), BuildingBlock: ZUJKAS_clean_linker_0, # of connection points: 2
#     Edge 37, Type (0, 1), BuildingBlock: ZUJKAS_clean_linker_0, # of connection points: 2
#     Edge 38, Type (0, 1), BuildingBlock: ZUJKAS_clean_linker_0, # of connection points: 2
#     Edge 39, Type (0, 1), BuildingBlock: ZUJKAS_clean_linker_0, # of connection points: 2
#     Edge 40, Type (0, 1), BuildingBlock: ZUJKAS_clean_linker_0, # of connection points: 2
#     Edge 41, Type (0, 1), BuildingBlock: ZUJKAS_clean_linker_0, # of connection points: 2
#     Edge 42, Type (0, 1), BuildingBlock: ZUJKAS_clean_linker_0, # of connection points: 2
#     Edge 43, Type (0, 1), BuildingBlock: ZUJKAS_clean_linker_0, # of connection points: 2
#     Edge 44, Type (0, 1), BuildingBlock: ZUJKAS_clean_linker_0, # of connection points: 2
#     Edge 45, Type (0, 1), BuildingBlock: ZUJKAS_clean_linker_0, # of connection points: 2
#     Edge 46, Type (0, 1), BuildingBlock: ZUJKAS_clean_linker_0, # of connection points: 2
#     Edge 47, Type (0, 1), BuildingBlock: ZUJKAS_clean_linker_0, # of connection points: 2
# Relax obj value: 0.140
# Max RMSD: 0.149
# Mean RMSD: 0.132
data_MOF--net-wbl--node1-GALJAG_clean_sbu_0--node2-NAWXER_clean_linker_0--edge1-ZUJKAS_clean_linker_0
_symmetry_space_group_name_H-M    P1
_symmetry_Int_Tables_number       1
_symmetry_cell_setting            triclinic
loop_
_symmetry_equiv_pos_as_xyz
'x, y, z'
_cell_length_a     54.598903
_cell_length_b     54.772444
_cell_length_c     106.35481
_cell_angle_alpha  90.025366
_cell_angle_beta   90.040209
_cell_angle_gamma 90.000576
loop_
_atom_site_label
_atom_site_type_symbol
_atom_site_fract_x
_atom_site_fract_y
_atom_site_fract_z
_atom_type_partial_charge
C0 C 0.04948 0.93265 0.36776 0.0
C1 C 0.06447 0.94312 0.37707 0.0
C2 C 0.03581 0.94744 0.35966 0.0
C3 C 0.03711 0.97299 0.36061 0.0
C4 C 0.06588 0.96871 0.37792 0.0
C5 C 0.05227 0.98346 0.36981 0.0
C6 C 0.02125 0.98894 0.35286 0.0
C7 C 0.07234 0.9526 0.32604 0.0
C8 C 0.06107 0.93677 0.31738 0.0
C9 C 0.05834 0.96857 0.33329 0.0
C10 C 0.03273 0.96888 0.33215 0.0
C11 C 0.03545 0.93747 0.31605 0.0
C12 C 0.02141 0.95348 0.32334 0.0
C13 C 0.0179 0.98595 0.33977 0.0
C14 C 0.95743 0.0738 0.32585 0.0
C15 C 0.93956 0.06293 0.31815 0.0
C16 C 0.97349 0.05934 0.33286 0.0
C17 C 0.97189 0.03376 0.33233 0.0
C18 C 0.93841 0.03732 0.31741 0.0
C19 C 0.95456 0.02288 0.32437 0.0
C20 C 0.98854 0.01822 0.33981 0.0
C21 C 0.94026 0.05552 0.36869 0.0
C22 C 0.95312 0.0698 0.37749 0.0
C23 C 0.95289 0.04032 0.36035 0.0
C24 C 0.9786 0.03934 0.36057 0.0
C25 C 0.97886 0.06918 0.37747 0.0
C26 C 0.99144 0.054 0.36915 0.0
C27 C 0.99223 0.02148 0.35285 0.0
H28 H 0.04807 0.91301 0.36682 0.0
H29 H 0.02375 0.93886 0.35288 0.0
H30 H 0.07687 0.97739 0.38512 0.0
H31 H 0.05334 0.00311 0.37083 0.0
H32 H 0.09207 0.953 0.32706 0.0
H33 H 0.06759 0.98088 0.3397 0.0
H34 H 0.02624 0.92548 0.30947 0.0
H35 H 0.00169 0.95363 0.32222 0.0
H36 H 0.9587 0.09347 0.32663 0.0
H37 H 0.98713 0.06813 0.33871 0.0
H38 H 0.92507 0.02845 0.31141 0.0
H39 H 0.95323 0.00319 0.3237 0.0
H40 H 0.92043 0.05533 0.36859 0.0
H41 H 0.94253 0.02869 0.35405 0.0
H42 H 0.98931 0.0802 0.38401 0.0
H43 H 0.01127 0.05345 0.36952 0.0
N44 N 0.00843 0.00672 0.35883 0.0
N45 N 0.00148 0.00055 0.33377 0.0
C46 C 0.93328 0.45198 0.61616 0.0
C47 C 0.94356 0.43762 0.62577 0.0
C48 C 0.9483 0.46527 0.60801 0.0
C49 C 0.97392 0.46422 0.60922 0.0
C50 C 0.96921 0.43642 0.62685 0.0
C51 C 0.98419 0.44964 0.61869 0.0
C52 C 0.99009 0.47986 0.60147 0.0
C53 C 0.95598 0.42801 0.57394 0.0
C54 C 0.93971 0.43912 0.56545 0.0
C55 C 0.97124 0.44219 0.58152 0.0
C56 C 0.97053 0.46775 0.58074 0.0
C57 C 0.93893 0.46472 0.56471 0.0
C58 C 0.95444 0.47893 0.57221 0.0
C59 C 0.98746 0.48273 0.58835 0.0
C60 C 0.07716 0.54048 0.57445 0.0
C61 C 0.06699 0.55738 0.56598 0.0
C62 C 0.06203 0.52548 0.58168 0.0
C63 C 0.03644 0.52729 0.58069 0.0
C64 C 0.04135 0.55874 0.56481 0.0
C65 C 0.02625 0.54373 0.57205 0.0
C66 C 0.02019 0.51158 0.5883 0.0
C67 C 0.05762 0.56096 0.6165 0.0
C68 C 0.07192 0.54854 0.62546 0.0
C69 C 0.04207 0.54805 0.60843 0.0
C70 C 0.04073 0.52247 0.60909 0.0
C71 C 0.07082 0.5229 0.62591 0.0
C72 C 0.05526 0.51004 0.61787 0.0
C73 C 0.02292 0.5086 0.60141 0.0
H74 H 0.9136 0.45323 0.61504 0.0
H75 H 0.93984 0.47691 0.60102 0.0
H76 H 0.97775 0.42592 0.63428 0.0
H77 H 0.00388 0.44876 0.61991 0.0
H78 H 0.95684 0.40831 0.57474 0.0
H79 H 0.98386 0.43317 0.58786 0.0
H80 H 0.92669 0.47371 0.55816 0.0
H81 H 0.95382 0.49863 0.57139 0.0
H82 H 0.09683 0.53867 0.57539 0.0
H83 H 0.07034 0.51236 0.588 0.0
H84 H 0.03291 0.57175 0.55849 0.0
H85 H 0.00656 0.54527 0.57106 0.0
H86 H 0.05775 0.58071 0.61604 0.0
H87 H 0.03056 0.55811 0.60195 0.0
H88 H 0.08184 0.51275 0.63257 0.0
H89 H 0.05445 0.49032 0.61857 0.0
N90 N 0.00781 0.49281 0.60746 0.0
N91 N 0.00249 0.4986 0.58227 0.0
C92 C 0.54785 0.43348 0.86595 0.0
C93 C 0.56216 0.44442 0.87539 0.0
C94 C 0.53423 0.44787 0.85764 0.0
C95 C 0.535 0.47348 0.85848 0.0
C96 C 0.56326 0.47002 0.87606 0.0
C97 C 0.54976 0.48438 0.86772 0.0
C98 C 0.51871 0.48898 0.85072 0.0
C99 C 0.56969 0.45443 0.82297 0.0
C100 C 0.55842 0.43744 0.81493 0.0
C101 C 0.55556 0.46981 0.8305 0.0
C102 C 0.52991 0.46849 0.83012 0.0
C103 C 0.53274 0.43605 0.81459 0.0
C104 C 0.51858 0.45168 0.82203 0.0
C105 C 0.51498 0.48547 0.8377 0.0
C106 C 0.45401 0.57255 0.82334 0.0
C107 C 0.43606 0.56143 0.81578 0.0
C108 C 0.47017 0.55832 0.83041 0.0
C109 C 0.46857 0.53273 0.8301 0.0
C110 C 0.43491 0.5358 0.81526 0.0
C111 C 0.45115 0.52159 0.82229 0.0
C112 C 0.48535 0.51747 0.83764 0.0
C113 C 0.43743 0.55582 0.86623 0.0
C114 C 0.45035 0.57076 0.87471 0.0
C115 C 0.45 0.54011 0.85811 0.0
C116 C 0.47572 0.53926 0.85824 0.0
C117 C 0.4761 0.57018 0.87461 0.0
C118 C 0.48862 0.55448 0.86652 0.0
C119 C 0.48932 0.5212 0.85062 0.0
H120 H 0.54634 0.4138 0.86533 0.0
H121 H 0.52239 0.43893 0.85089 0.0
H122 H 0.57432 0.47896 0.88316 0.0
H123 H 0.55056 0.50407 0.86861 0.0
H124 H 0.58946 0.45577 0.82347 0.0
H125 H 0.56469 0.48297 0.83649 0.0
H126 H 0.52364 0.42323 0.8084 0.0
H127 H 0.49879 0.45057 0.82153 0.0
H128 H 0.45528 0.59224 0.82396 0.0
H129 H 0.48388 0.56731 0.83614 0.0
H130 H 0.42151 0.52673 0.80938 0.0
H131 H 0.44984 0.50188 0.82179 0.0
H132 H 0.4176 0.55554 0.8662 0.0
H133 H 0.4396 0.52807 0.85204 0.0
H134 H 0.48661 0.58169 0.8809 0.0
H135 H 0.50846 0.55406 0.86682 0.0
N136 N 0.50585 0.50682 0.85663 0.0
N137 N 0.4983 0.4997 0.83167 0.0
C138 C 0.45721 0.92401 0.07621 0.0
C139 C 0.43862 0.93416 0.06866 0.0
C140 C 0.47291 0.93899 0.08312 0.0
C141 C 0.47046 0.96445 0.08259 0.0
C142 C 0.43631 0.95975 0.06814 0.0
C143 C 0.45226 0.97474 0.07495 0.0
C144 C 0.48757 0.98029 0.08959 0.0
C145 C 0.43901 0.9472 0.11932 0.0
C146 C 0.45127 0.93257 0.12818 0.0
C147 C 0.45222 0.96127 0.11071 0.0
C148 C 0.47794 0.96084 0.11074 0.0
C149 C 0.47702 0.93182 0.128 0.0
C150 C 0.4902 0.94595 0.11942 0.0
C151 C 0.49217 0.97744 0.10256 0.0
C152 C 0.55276 0.06423 0.11592 0.0
C153 C 0.56877 0.05347 0.12467 0.0
C154 C 0.53839 0.04968 0.10802 0.0
C155 C 0.53985 0.02411 0.10871 0.0
C156 C 0.57063 0.02789 0.1251 0.0
C157 C 0.55617 0.01337 0.11726 0.0
C158 C 0.5227 0.00849 0.10154 0.0
C159 C 0.57125 0.04322 0.07268 0.0
C160 C 0.55905 0.05976 0.06472 0.0
C161 C 0.558 0.02754 0.08047 0.0
C162 C 0.5323 0.02809 0.08049 0.0
C163 C 0.53327 0.06 0.06466 0.0
C164 C 0.52005 0.04417 0.07239 0.0
C165 C 0.51811 0.01133 0.08855 0.0
H166 H 0.46003 0.90446 0.0766 0.0
H167 H 0.48725 0.93068 0.08871 0.0
H168 H 0.42208 0.96822 0.06254 0.0
H169 H 0.4502 0.99438 0.07437 0.0
H170 H 0.41922 0.94856 0.11934 0.0
H171 H 0.44232 0.97316 0.10436 0.0
H172 H 0.48702 0.9205 0.13458 0.0
H173 H 0.51004 0.94542 0.11965 0.0
H174 H 0.551 0.0839 0.11535 0.0
H175 H 0.5255 0.05843 0.10172 0.0
H176 H 0.58252 0.01905 0.13187 0.0
H177 H 0.55739 0.99368 0.11804 0.0
H178 H 0.59105 0.04218 0.07278 0.0
H179 H 0.56785 0.01478 0.08639 0.0
H180 H 0.52325 0.07271 0.0588 0.0
H181 H 0.50021 0.04476 0.07221 0.0
N182 N 0.50063 0.99719 0.08307 0.0
N183 N 0.50962 0.99159 0.10802 0.0
C184 C 0.04758 0.5671 0.88726 0.0
C185 C 0.06131 0.55665 0.87747 0.0
C186 C 0.03461 0.55227 0.89564 0.0
C187 C 0.0355 0.52671 0.8945 0.0
C188 C 0.06255 0.53108 0.87651 0.0
C189 C 0.04971 0.51629 0.88492 0.0
C190 C 0.01982 0.51078 0.90236 0.0
C191 C 0.07218 0.54519 0.92948 0.0
C192 C 0.06127 0.56107 0.93823 0.0
C193 C 0.05778 0.53 0.92199 0.0
C194 C 0.03216 0.53048 0.92303 0.0
C195 C 0.03561 0.56155 0.93926 0.0
C196 C 0.02119 0.54619 0.9318 0.0
C197 C 0.01692 0.5137 0.91547 0.0
C198 C 0.95584 0.4264 0.9296 0.0
C199 C 0.93857 0.43737 0.93761 0.0
C200 C 0.97178 0.44076 0.92248 0.0
C201 C 0.97064 0.46634 0.92319 0.0
C202 C 0.93791 0.46298 0.93853 0.0
C203 C 0.95392 0.47731 0.93144 0.0
C204 C 0.98719 0.48177 0.91561 0.0
C205 C 0.93708 0.44604 0.88707 0.0
C206 C 0.94927 0.43076 0.87846 0.0
C207 C 0.95037 0.46112 0.8952 0.0
C208 C 0.97608 0.4611 0.89492 0.0
C209 C 0.97503 0.43042 0.87845 0.0
C210 C 0.98827 0.44559 0.88652 0.0
C211 C 0.99038 0.47862 0.90254 0.0
H212 H 0.04598 0.58674 0.88811 0.0
H213 H 0.02316 0.56085 0.90268 0.0
H214 H 0.07319 0.52251 0.86914 0.0
H215 H 0.05059 0.49665 0.8838 0.0
H216 H 0.0919 0.54456 0.92842 0.0
H217 H 0.06669 0.51763 0.91549 0.0
H218 H 0.02675 0.57344 0.94601 0.0
H219 H 0.00146 0.54663 0.93285 0.0
H220 H 0.95672 0.40673 0.92866 0.0
H221 H 0.98498 0.43187 0.91641 0.0
H222 H 0.92505 0.47193 0.94476 0.0
H223 H 0.95298 0.49701 0.93226 0.0
H224 H 0.91728 0.44707 0.8872 0.0
H225 H 0.94055 0.47338 0.9014 0.0
H226 H 0.98502 0.4186 0.87209 0.0
H227 H 0.00811 0.44537 0.88612 0.0
N228 N 0.00657 0.49322 0.89644 0.0
N229 N 0.00055 0.49923 0.92158 0.0
C230 C 0.42813 0.54388 0.13677 0.0
C231 C 0.43806 0.55923 0.12749 0.0
C232 C 0.4435 0.53044 0.14469 0.0
C233 C 0.46906 0.53216 0.14347 0.0
C234 C 0.46365 0.56095 0.12634 0.0
C235 C 0.47898 0.5474 0.13419 0.0
C236 C 0.4856 0.51717 0.15132 0.0
C237 C 0.45043 0.57156 0.17668 0.0
C238 C 0.43517 0.56137 0.18594 0.0
C239 C 0.46642 0.55685 0.16983 0.0
C240 C 0.46724 0.53157 0.17194 0.0
C241 C 0.43653 0.53616 0.18832 0.0
C242 C 0.4525 0.52139 0.18139 0.0
C243 C 0.48394 0.51589 0.16455 0.0
C244 C 0.57346 0.45643 0.17794 0.0
C245 C 0.56342 0.44066 0.187 0.0
C246 C 0.55833 0.47179 0.17089 0.0
C247 C 0.53282 0.4714 0.17263 0.0
C248 C 0.53798 0.44114 0.1891 0.0
C249 C 0.52286 0.45642 0.18201 0.0
C250 C 0.5164 0.48671 0.16487 0.0
C251 C 0.55125 0.43346 0.13772 0.0
C252 C 0.56436 0.44442 0.12783 0.0
C253 C 0.5365 0.44757 0.14565 0.0
C254 C 0.53492 0.47296 0.14397 0.0
C255 C 0.56274 0.46986 0.12622 0.0
C256 C 0.54814 0.48393 0.13419 0.0
C257 C 0.51806 0.48805 0.15162 0.0
H258 H 0.40848 0.54222 0.13788 0.0
H259 H 0.43542 0.51839 0.15162 0.0
H260 H 0.47184 0.57229 0.11914 0.0
H261 H 0.49865 0.54879 0.13301 0.0
H262 H 0.4503 0.59102 0.17487 0.0
H263 H 0.47826 0.56529 0.16292 0.0
H264 H 0.425 0.52781 0.19539 0.0
H265 H 0.45307 0.50196 0.18327 0.0
H266 H 0.59295 0.45648 0.17606 0.0
H267 H 0.56654 0.48376 0.16397 0.0
H268 H 0.52971 0.42961 0.1962 0.0
H269 H 0.50329 0.45613 0.18367 0.0
H270 H 0.55216 0.41395 0.13926 0.0
H271 H 0.52594 0.43853 0.15289 0.0
H272 H 0.57214 0.47887 0.11856 0.0
H273 H 0.54693 0.50344 0.1326 0.0
N274 N 0.50267 0.50333 0.1454 0.0
N275 N 0.49928 0.50058 0.17082 0.0
C276 C 0.44769 0.93894 0.38435 0.0
C277 C 0.43229 0.95052 0.37557 0.0
C278 C 0.46173 0.95273 0.39276 0.0
C279 C 0.46053 0.97834 0.39257 0.0
C280 C 0.43074 0.97615 0.37565 0.0
C281 C 0.44486 0.9899 0.38399 0.0
C282 C 0.477 0.99329 0.40049 0.0
C283 C 0.42484 0.95732 0.42696 0.0
C284 C 0.43561 0.94144 0.43576 0.0
C285 C 0.43931 0.97287 0.41972 0.0
C286 C 0.46491 0.9726 0.42093 0.0
C287 C 0.46125 0.94133 0.43706 0.0
C288 C 0.47574 0.9569 0.42976 0.0
C289 C 0.48024 0.98957 0.41352 0.0
C290 C 0.54225 0.07517 0.42887 0.0
C291 C 0.55926 0.06363 0.43684 0.0
C292 C 0.52645 0.06136 0.42136 0.0
C293 C 0.52745 0.03575 0.42163 0.0
C294 C 0.55994 0.03795 0.43718 0.0
C295 C 0.54405 0.02418 0.42972 0.0
C296 C 0.51065 0.02089 0.41388 0.0
C297 C 0.5607 0.05742 0.38553 0.0
C298 C 0.54857 0.07135 0.37634 0.0
C299 C 0.54735 0.04283 0.39387 0.0
C300 C 0.52163 0.04227 0.39329 0.0
C301 C 0.52285 0.07122 0.376 0.0
C302 C 0.50954 0.05677 0.38436 0.0
C303 C 0.50722 0.02474 0.40086 0.0
H304 H 0.44962 0.91926 0.38442 0.0
H305 H 0.47413 0.94341 0.39909 0.0
H306 H 0.41879 0.98565 0.36915 0.0
H307 H 0.4437 0.00964 0.38367 0.0
H308 H 0.40518 0.95772 0.42563 0.0
H309 H 0.4304 0.98533 0.41326 0.0
H310 H 0.47007 0.92954 0.44386 0.0
H311 H 0.49545 0.95663 0.43098 0.0
H312 H 0.54091 0.09488 0.42855 0.0
H313 H 0.5133 0.07069 0.41544 0.0
H314 H 0.57303 0.02844 0.44306 0.0
H315 H 0.545 0.00443 0.43013 0.0
H316 H 0.58052 0.05692 0.3859 0.0
H317 H 0.55718 0.03127 0.40041 0.0
H318 H 0.51299 0.082 0.36912 0.0
H319 H 0.48974 0.05655 0.38368 0.0
N320 N 0.4905 0.0108 0.39472 0.0
N321 N 0.49708 0.0034 0.4197 0.0
C322 C 0.06176 0.94873 0.63645 0.0
C323 C 0.05079 0.93393 0.62722 0.0
C324 C 0.04735 0.96244 0.6447 0.0
C325 C 0.02168 0.96141 0.64398 0.0
C326 C 0.02509 0.93267 0.62665 0.0
C327 C 0.01071 0.94636 0.63491 0.0
C328 C 0.00617 0.97763 0.65177 0.0
C329 C 0.0418 0.92644 0.67885 0.0
C330 C 0.05935 0.93754 0.68668 0.0
C331 C 0.02572 0.94058 0.67173 0.0
C332 C 0.02678 0.96613 0.67229 0.0
C333 C 0.06011 0.9632 0.68736 0.0
C334 C 0.04382 0.97735 0.6803 0.0
C335 C 0.00963 0.98108 0.66481 0.0
C336 C 0.92347 0.0445 0.6788 0.0
C337 C 0.93506 0.06131 0.68684 0.0
C338 C 0.9373 0.02796 0.67176 0.0
C339 C 0.96299 0.02811 0.67251 0.0
C340 C 0.96075 0.06086 0.68787 0.0
C341 C 0.97455 0.04434 0.68081 0.0
C342 C 0.97794 0.01107 0.66494 0.0
C343 C 0.94174 0.06044 0.63626 0.0
C344 C 0.92656 0.04817 0.62763 0.0
C345 C 0.95683 0.0473 0.64445 0.0
C346 C 0.95681 0.02166 0.64425 0.0
C347 C 0.92626 0.0225 0.62765 0.0
C348 C 0.94135 0.0094 0.63582 0.0
C349 C 0.97434 0.00744 0.65191 0.0
H350 H 0.08151 0.95 0.63718 0.0
H351 H 0.05633 0.97443 0.65137 0.0
H352 H 0.01604 0.92179 0.61953 0.0
H353 H 0.99094 0.94551 0.63407 0.0
H354 H 0.04019 0.90676 0.67834 0.0
H355 H 0.01225 0.93153 0.66587 0.0
H356 H 0.07349 0.97237 0.69322 0.0
H357 H 0.04479 0.99707 0.68092 0.0
H358 H 0.90374 0.04442 0.67777 0.0
H359 H 0.9279 0.0151 0.66571 0.0
H360 H 0.9702 0.07325 0.69415 0.0
H361 H 0.99432 0.04452 0.68168 0.0
H362 H 0.94268 0.08019 0.63634 0.0
H363 H 0.96909 0.05718 0.65064 0.0
H364 H 0.91454 0.01249 0.62124 0.0
H365 H 0.94113 0.98963 0.63546 0.0
N366 N 0.98855 0.99083 0.64587 0.0
N367 N 0.99553 0.99779 0.67088 0.0
In368 In 0.30596 0.69174 0.00087 0.0
O369 O 0.29948 0.73211 0.00544 0.0
O370 O 0.33615 0.71982 0.00338 0.0
C371 C 0.25883 0.67887 0.99698 0.0
C372 C 0.31736 0.66909 0.02263 0.0
C373 C 0.32796 0.67982 0.97892 0.0
O374 O 0.26618 0.70059 0.99579 0.0
O375 O 0.27514 0.66389 0.00027 0.0
O376 O 0.33567 0.67276 0.98948 0.0
O377 O 0.30917 0.69317 0.97938 0.0
C378 C 0.32198 0.73737 0.00577 0.0
O379 O 0.3227 0.66045 0.01199 0.0
O380 O 0.30572 0.68899 0.02233 0.0
In381 In 0.30102 0.80312 0.25177 0.0
O382 O 0.29353 0.76546 0.24327 0.0
O383 O 0.32561 0.76993 0.2543 0.0
C384 C 0.25328 0.81395 0.2554 0.0
C385 C 0.32259 0.82213 0.23115 0.0
C386 C 0.31887 0.82395 0.27286 0.0
O387 O 0.26353 0.79597 0.26062 0.0
O388 O 0.26693 0.826 0.24814 0.0
O389 O 0.3164 0.8354 0.26265 0.0
O390 O 0.31223 0.80188 0.27248 0.0
C391 C 0.31278 0.75589 0.24761 0.0
O392 O 0.33314 0.82086 0.24168 0.0
O393 O 0.30103 0.81383 0.23098 0.0
In394 In 0.19828 0.80412 0.50272 0.0
O395 O 0.16481 0.81773 0.5134 0.0
O396 O 0.19926 0.81956 0.52266 0.0
C397 C 0.17816 0.82377 0.48185 0.0
C398 C 0.18898 0.75686 0.50804 0.0
C399 C 0.24578 0.81401 0.4977 0.0
O400 O 0.18233 0.83605 0.49165 0.0
O401 O 0.1841 0.80156 0.48257 0.0
O402 O 0.2354 0.79478 0.49395 0.0
O403 O 0.23243 0.8278 0.50424 0.0
C404 C 0.1765 0.82345 0.5232 0.0
O405 O 0.20518 0.76897 0.51377 0.0
O406 O 0.17805 0.76839 0.49946 0.0
In407 In 0.19046 0.69436 0.75141 0.0
O408 O 0.16289 0.67157 0.76236 0.0
O409 O 0.18465 0.69653 0.77274 0.0
C410 C 0.17937 0.67284 0.72931 0.0
C411 C 0.23728 0.68115 0.75612 0.0
C412 C 0.17496 0.74031 0.74688 0.0
O413 O 0.17146 0.6653 0.73975 0.0
O414 O 0.19321 0.69127 0.72997 0.0
O415 O 0.19734 0.73461 0.74694 0.0
O416 O 0.16053 0.72294 0.74923 0.0
C417 C 0.16826 0.68033 0.77296 0.0
O418 O 0.22938 0.70236 0.75828 0.0
O419 O 0.22175 0.66685 0.75137 0.0
In420 In 0.80578 0.19601 0.50224 0.0
O421 O 0.7973 0.23533 0.50823 0.0
O422 O 0.8337 0.22676 0.50282 0.0
C423 C 0.75897 0.1829 0.49747 0.0
C424 C 0.81776 0.1731 0.52383 0.0
C425 C 0.82957 0.18188 0.48117 0.0
O426 O 0.76823 0.20234 0.49326 0.0
O427 O 0.77308 0.17048 0.50431 0.0
O428 O 0.83753 0.17745 0.49206 0.0
O429 O 0.80973 0.19363 0.48089 0.0
C430 C 0.81898 0.24275 0.50674 0.0
O431 O 0.8219 0.16407 0.51311 0.0
O432 O 0.80727 0.19365 0.52368 0.0
In433 In 0.80436 0.30803 0.75249 0.0
O434 O 0.83547 0.32531 0.74136 0.0
O435 O 0.80099 0.32193 0.73229 0.0
C436 C 0.82348 0.32391 0.77444 0.0
C437 C 0.81597 0.26144 0.7468 0.0
C438 C 0.7572 0.31963 0.75715 0.0
O439 O 0.82264 0.33694 0.76467 0.0
O440 O 0.81471 0.30273 0.77315 0.0
O441 O 0.76556 0.29846 0.75902 0.0
O442 O 0.77248 0.33462 0.75277 0.0
C443 C 0.823 0.32876 0.73154 0.0
O444 O 0.79616 0.27117 0.7433 0.0
O445 O 0.82948 0.27499 0.75342 0.0
In446 In 0.69268 0.30583 0.00095 0.0
O447 O 0.69806 0.26749 0.00891 0.0
O448 O 0.66554 0.27456 0.99857 0.0
C449 C 0.74021 0.31748 0.99703 0.0
C450 C 0.67808 0.32755 0.02249 0.0
C451 C 0.67066 0.32063 0.97955 0.0
O452 O 0.73141 0.29698 0.99409 0.0
O453 O 0.72523 0.33178 0.00221 0.0
O454 O 0.66283 0.32625 0.99033 0.0
O455 O 0.68947 0.30723 0.97954 0.0
C456 C 0.67792 0.25941 0.00483 0.0
O457 O 0.67548 0.33736 0.01184 0.0
O458 O 0.6884 0.30695 0.0223 0.0
In459 In 0.69623 0.19587 0.25103 0.0
O460 O 0.67098 0.16972 0.26151 0.0
O461 O 0.68826 0.19769 0.27211 0.0
C462 C 0.67856 0.17577 0.22968 0.0
C463 C 0.74248 0.18238 0.25659 0.0
C464 C 0.68781 0.2433 0.24555 0.0
O465 O 0.66494 0.18391 0.23828 0.0
O466 O 0.70122 0.17764 0.23184 0.0
O467 O 0.70535 0.2315 0.2408 0.0
O468 O 0.67511 0.2314 0.2533 0.0
C469 C 0.67406 0.17954 0.27212 0.0
O470 O 0.73503 0.20404 0.25794 0.0
O471 O 0.72678 0.16779 0.25221 0.0
H472 H 0.10027 0.90955 0.32496 0.0
H473 H 0.12805 0.88564 0.31179 0.0
H474 H 0.08403 0.90187 0.2792 0.0
H475 H 0.05628 0.92633 0.29227 0.0
H476 H 0.1042 0.84828 0.28356 0.0
H477 H 0.1713 0.92477 0.28418 0.0
H478 H 0.15814 0.91636 0.29908 0.0
H479 H 0.139 0.92926 0.28707 0.0
C480 C 0.09644 0.90801 0.315 0.0
C481 C 0.07626 0.9201 0.30962 0.0
C482 C 0.11221 0.89421 0.30752 0.0
C483 C 0.10807 0.89218 0.29457 0.0
C484 C 0.08739 0.90323 0.28922 0.0
H485 H 0.22749 0.85135 0.24492 0.0
H486 H 0.18886 0.86865 0.25238 0.0
C487 C 0.07157 0.91712 0.29669 0.0
C488 C 0.12653 0.88014 0.28656 0.0
H489 H 0.18497 0.88709 0.27595 0.0
C490 C 0.1218 0.85677 0.28175 0.0
C491 C 0.14925 0.8915 0.28413 0.0
C492 C 0.15481 0.91694 0.28879 0.0
C493 C 0.13974 0.84402 0.27492 0.0
C494 C 0.16292 0.85495 0.273 0.0
C495 C 0.1672 0.87871 0.27744 0.0
C496 C 0.18364 0.84184 0.26708 0.0
C497 C 0.13377 0.819 0.26985 0.0
C498 C 0.19323 0.8207 0.27268 0.0
C499 C 0.21527 0.81073 0.26841 0.0
C500 C 0.2282 0.82192 0.25856 0.0
C501 C 0.21796 0.84237 0.25256 0.0
C502 C 0.19589 0.85226 0.2568 0.0
H503 H 0.1137 0.81647 0.26869 0.0
H504 H 0.14283 0.8158 0.26065 0.0
H505 H 0.14041 0.80499 0.27657 0.0
H506 H 0.18438 0.81266 0.2808 0.0
H507 H 0.22278 0.79501 0.27324 0.0
H508 H 0.06196 0.57079 0.54131 0.0
H509 H 0.08642 0.60061 0.52968 0.0
H510 H 0.13247 0.61119 0.56218 0.0
H511 H 0.10795 0.58168 0.57395 0.0
H512 H 0.09191 0.64957 0.53737 0.0
H513 H 0.18201 0.60329 0.53311 0.0
H514 H 0.15406 0.587 0.53662 0.0
H515 H 0.16953 0.60388 0.54874 0.0
C516 C 0.07735 0.5794 0.54597 0.0
C517 C 0.08295 0.57394 0.55857 0.0
C518 C 0.0914 0.59627 0.53928 0.0
C519 C 0.11142 0.60783 0.54502 0.0
C520 C 0.11743 0.60204 0.55749 0.0
H521 H 0.20307 0.73181 0.52903 0.0
H522 H 0.18535 0.6938 0.53706 0.0
C523 C 0.10336 0.5852 0.5642 0.0
C524 C 0.12453 0.62761 0.53838 0.0
H525 H 0.18081 0.64561 0.5279 0.0
C526 C 0.11129 0.64862 0.53516 0.0
C527 C 0.14983 0.62632 0.53565 0.0
C528 C 0.16471 0.60384 0.5386 0.0
C529 C 0.12278 0.66873 0.52957 0.0
C530 C 0.14812 0.66751 0.52684 0.0
C531 C 0.16137 0.6464 0.52996 0.0
C532 C 0.16118 0.68845 0.52116 0.0
C533 C 0.10784 0.69141 0.52704 0.0
C534 C 0.15414 0.69743 0.50934 0.0
C535 C 0.16406 0.71919 0.5048 0.0
C536 C 0.18141 0.73214 0.51193 0.0
C537 C 0.18967 0.72224 0.52336 0.0
C538 C 0.17959 0.70055 0.52795 0.0
H539 H 0.09046 0.69151 0.53248 0.0
H540 H 0.11836 0.70813 0.52944 0.0
H541 H 0.1031 0.69217 0.5169 0.0
H542 H 0.14034 0.68805 0.50384 0.0
H543 H 0.15753 0.72627 0.4959 0.0
H544 H 0.44507 0.60236 0.80174 0.0
H545 H 0.41511 0.62762 0.79046 0.0
H546 H 0.35711 0.57954 0.80244 0.0
H547 H 0.38677 0.55447 0.81384 0.0
H548 H 0.38062 0.61214 0.77093 0.0
H549 H 0.33533 0.64946 0.8135 0.0
H550 H 0.36546 0.63583 0.81387 0.0
H551 H 0.33864 0.61681 0.81348 0.0
C552 C 0.4259 0.5973 0.80202 0.0
C553 C 0.41822 0.57649 0.80869 0.0
C554 C 0.40888 0.61164 0.79554 0.0
C555 C 0.38395 0.60555 0.79576 0.0
C556 C 0.37628 0.58467 0.80229 0.0
H557 H 0.2577 0.63641 0.75232 0.0
H558 H 0.29636 0.62118 0.76079 0.0
C559 C 0.39325 0.57026 0.8087 0.0
C560 C 0.36575 0.6208 0.78914 0.0
H561 H 0.31402 0.65429 0.79407 0.0
C562 C 0.36621 0.62165 0.77596 0.0
C563 C 0.34728 0.63346 0.79576 0.0
C564 C 0.34668 0.6341 0.80994 0.0
C565 C 0.34784 0.63386 0.76919 0.0
C566 C 0.3285 0.64524 0.77582 0.0
C567 C 0.32879 0.64542 0.78901 0.0
C568 C 0.30682 0.65549 0.76935 0.0
C569 C 0.34912 0.63422 0.75503 0.0
C570 C 0.29985 0.67984 0.77137 0.0
C571 C 0.27765 0.68858 0.76659 0.0
C572 C 0.262 0.67299 0.75983 0.0
C573 C 0.26942 0.64886 0.75747 0.0
C574 C 0.29159 0.64017 0.76222 0.0
H575 H 0.36821 0.63168 0.75165 0.0
H576 H 0.3379 0.61903 0.75122 0.0
H577 H 0.34187 0.65164 0.75119 0.0
H578 H 0.31128 0.69189 0.77693 0.0
H579 H 0.27238 0.70725 0.76857 0.0
H580 H 0.41973 0.88978 0.07549 0.0
H581 H 0.39614 0.86155 0.0626 0.0
H582 H 0.39467 0.91421 0.03246 0.0
H583 H 0.41988 0.94195 0.04497 0.0
H584 H 0.35213 0.86329 0.0522 0.0
H585 H 0.42223 0.85613 0.01451 0.0
H586 H 0.42817 0.87142 0.0292 0.0
H587 H 0.41083 0.88644 0.01707 0.0
C588 C 0.41473 0.8953 0.06606 0.0
C589 C 0.42217 0.918 0.06121 0.0
C590 C 0.40096 0.87922 0.05875 0.0
C591 C 0.39405 0.88554 0.04646 0.0
C592 C 0.40032 0.90867 0.04179 0.0
H593 H 0.29608 0.77983 0.00874 0.0
H594 H 0.31143 0.81882 0.01693 0.0
C595 C 0.41445 0.92467 0.04905 0.0
C596 C 0.38094 0.86742 0.03856 0.0
H597 H 0.3863 0.83308 0.01191 0.0
C598 C 0.35947 0.85678 0.04334 0.0
C599 C 0.39067 0.85888 0.02703 0.0
C600 C 0.41434 0.86862 0.02168 0.0
C601 C 0.34804 0.83716 0.0372 0.0
C602 C 0.35788 0.8285 0.02572 0.0
C603 C 0.37872 0.83985 0.02067 0.0
C604 C 0.34862 0.80602 0.01955 0.0
C605 C 0.32641 0.82505 0.04348 0.0
C606 C 0.36465 0.78632 0.01769 0.0
C607 C 0.35608 0.76433 0.01277 0.0
C608 C 0.33122 0.76151 0.0097 0.0
C609 C 0.31529 0.78146 0.01114 0.0
C610 C 0.32399 0.80366 0.01591 0.0
H611 H 0.32482 0.83029 0.05354 0.0
H612 H 0.30932 0.83075 0.03866 0.0
H613 H 0.32784 0.80486 0.04289 0.0
H614 H 0.38374 0.78771 0.0204 0.0
H615 H 0.3688 0.74928 0.01176 0.0
H616 H 0.05524 0.60961 0.94364 0.0
H617 H 0.08246 0.63574 0.95621 0.0
H618 H 0.12934 0.574 0.96353 0.0
H619 H 0.10222 0.54781 0.95115 0.0
H620 H 0.11672 0.60656 0.98538 0.0
H621 H 0.15333 0.65431 0.94305 0.0
H622 H 0.12064 0.65216 0.945 0.0
H623 H 0.13812 0.62512 0.94191 0.0
C624 C 0.07121 0.6016 0.94806 0.0
C625 C 0.07677 0.57675 0.94633 0.0
C626 C 0.08674 0.61653 0.95517 0.0
C627 C 0.10792 0.60676 0.96069 0.0
C628 C 0.11307 0.58184 0.95931 0.0
H629 H 0.24014 0.63294 0.99819 0.0
H630 H 0.20013 0.61908 0.99097 0.0
C631 C 0.09769 0.56697 0.95216 0.0
C632 C 0.12556 0.62245 0.96744 0.0
H633 H 0.17261 0.66212 0.9623 0.0
C634 C 0.12872 0.61904 0.9804 0.0
C635 C 0.14096 0.63882 0.9609 0.0
C636 C 0.13832 0.64289 0.94693 0.0
C637 C 0.1476 0.6309 0.98694 0.0
C638 C 0.16407 0.64602 0.98025 0.0
C639 C 0.16001 0.65048 0.96742 0.0
C640 C 0.18709 0.65512 0.98594 0.0
C641 C 0.14998 0.62677 0.00091 0.0
C642 C 0.19325 0.67999 0.98538 0.0
C643 C 0.21633 0.68795 0.98938 0.0
C644 C 0.23363 0.67112 0.99392 0.0
C645 C 0.22716 0.64636 0.99479 0.0
C646 C 0.20418 0.63843 0.99077 0.0
H647 H 0.1319 0.62271 0.00522 0.0
H648 H 0.16204 0.61079 0.0026 0.0
H649 H 0.15804 0.64289 0.00571 0.0
H650 H 0.18041 0.69313 0.98157 0.0
H651 H 0.22085 0.70714 0.98859 0.0
H652 H 0.42638 0.56112 0.2113 0.0
H653 H 0.40138 0.5901 0.22329 0.0
H654 H 0.38119 0.62659 0.18889 0.0
H655 H 0.40595 0.5977 0.17686 0.0
H656 H 0.40141 0.65717 0.20729 0.0
H657 H 0.32643 0.59991 0.22677 0.0
H658 H 0.35695 0.58847 0.22917 0.0
H659 H 0.34481 0.59047 0.21351 0.0
C660 C 0.41617 0.575 0.20628 0.0
C661 C 0.41826 0.57727 0.19315 0.0
C662 C 0.40188 0.59149 0.21314 0.0
C663 C 0.38932 0.61035 0.20696 0.0
C664 C 0.39074 0.61213 0.19382 0.0
H665 H 0.29087 0.72409 0.2313 0.0
H666 H 0.30859 0.68656 0.22264 0.0
C667 C 0.405 0.59572 0.18698 0.0
C668 C 0.37666 0.62967 0.21417 0.0
H669 H 0.32892 0.64082 0.23412 0.0
C670 C 0.38556 0.6536 0.21315 0.0
C671 C 0.35594 0.62489 0.22176 0.0
C672 C 0.34527 0.59959 0.22284 0.0
C673 C 0.37434 0.67295 0.21953 0.0
C674 C 0.35387 0.66817 0.22728 0.0
C675 C 0.34479 0.64428 0.22826 0.0
C676 C 0.34138 0.68818 0.23403 0.0
C677 C 0.38422 0.69847 0.21776 0.0
C678 C 0.35359 0.70088 0.24361 0.0
C679 C 0.34359 0.72229 0.24854 0.0
C680 C 0.32118 0.73128 0.24397 0.0
C681 C 0.30821 0.71763 0.23496 0.0
C682 C 0.31826 0.69619 0.23003 0.0
H683 H 0.39688 0.69968 0.20961 0.0
H684 H 0.36904 0.71169 0.21636 0.0
H685 H 0.39445 0.704 0.22632 0.0
H686 H 0.37138 0.69479 0.24688 0.0
H687 H 0.35393 0.73234 0.25553 0.0
H688 H 0.39228 0.95293 0.4471 0.0
H689 H 0.36503 0.92583 0.45877 0.0
H690 H 0.4162 0.86658 0.45413 0.0
H691 H 0.44351 0.8935 0.44215 0.0
H692 H 0.34658 0.87892 0.44783 0.0
H693 H 0.39703 0.86958 0.49316 0.0
H694 H 0.40136 0.89554 0.48292 0.0
H695 H 0.41375 0.86641 0.47864 0.0
C696 C 0.39776 0.93412 0.44851 0.0
C697 C 0.41997 0.92531 0.44359 0.0
C698 C 0.38225 0.91873 0.45525 0.0
C699 C 0.38871 0.89431 0.45732 0.0
C700 C 0.41108 0.88549 0.45272 0.0
H701 H 0.27585 0.79027 0.48118 0.0
H702 H 0.31375 0.806 0.47185 0.0
C703 C 0.42664 0.9009 0.44592 0.0
C704 C 0.37113 0.87793 0.46365 0.0
H705 H 0.35865 0.85006 0.49162 0.0
C706 C 0.3493 0.87229 0.45734 0.0
C707 C 0.37484 0.86953 0.47605 0.0
C708 C 0.39793 0.87556 0.48319 0.0
C709 C 0.33068 0.85898 0.46325 0.0
C710 C 0.33415 0.85092 0.47576 0.0
C711 C 0.35623 0.85609 0.48199 0.0
C712 C 0.31398 0.83927 0.48282 0.0
C713 C 0.30698 0.85461 0.45628 0.0
C714 C 0.30227 0.85231 0.49243 0.0
C715 C 0.2807 0.84341 0.49777 0.0
C716 C 0.27055 0.82127 0.49359 0.0
C717 C 0.2832 0.80745 0.48454 0.0
C718 C 0.30479 0.81641 0.47919 0.0
H719 H 0.30583 0.86542 0.44747 0.0
H720 H 0.30554 0.83498 0.45379 0.0
H721 H 0.29105 0.85931 0.46231 0.0
H722 H 0.30914 0.87 0.49535 0.0
H723 H 0.27142 0.8544 0.50477 0.0
H724 H 0.07572 0.94527 0.71081 0.0
H725 H 0.10217 0.91875 0.72338 0.0
H726 H 0.10667 0.868 0.69243 0.0
H727 H 0.08172 0.89502 0.67959 0.0
H728 H 0.09309 0.87477 0.73134 0.0
H729 H 0.17668 0.86976 0.70258 0.0
H730 H 0.1532 0.89228 0.69972 0.0
H731 H 0.15076 0.86209 0.69304 0.0
C732 C 0.08289 0.92879 0.70656 0.0
C733 C 0.07651 0.92227 0.69418 0.0
C734 C 0.09788 0.91357 0.7138 0.0
C735 C 0.10678 0.89156 0.7088 0.0
C736 C 0.10064 0.88518 0.69641 0.0
H737 H 0.12819 0.75395 0.7417 0.0
H738 H 0.1139 0.79366 0.73445 0.0
C739 C 0.08594 0.90048 0.68914 0.0
C740 C 0.12055 0.87408 0.71677 0.0
H741 H 0.16874 0.8345 0.716 0.0
C742 C 0.10993 0.86633 0.72811 0.0
C743 C 0.14289 0.86347 0.71281 0.0
C744 C 0.15665 0.87259 0.70144 0.0
C745 C 0.12002 0.84705 0.73507 0.0
C746 C 0.1408 0.83464 0.73033 0.0
C747 C 0.15249 0.84362 0.71952 0.0
C748 C 0.1494 0.81118 0.73573 0.0
C749 C 0.10805 0.84 0.74732 0.0
C750 C 0.17427 0.80752 0.73855 0.0
C751 C 0.1826 0.78457 0.74244 0.0
C752 C 0.16616 0.76496 0.7436 0.0
C753 C 0.14124 0.76879 0.74102 0.0
C754 C 0.133 0.79158 0.73698 0.0
H755 H 0.09956 0.85614 0.75191 0.0
H756 H 0.09323 0.82662 0.74544 0.0
H757 H 0.12138 0.8317 0.75395 0.0
H758 H 0.1873 0.82231 0.73756 0.0
H759 H 0.20193 0.7821 0.74437 0.0
H760 H 0.5964 0.45106 0.79997 0.0
H761 H 0.62353 0.42465 0.78775 0.0
H762 H 0.58219 0.36154 0.79944 0.0
H763 H 0.55484 0.388 0.81176 0.0
H764 H 0.63499 0.35999 0.80363 0.0
H765 H 0.61102 0.38532 0.7547 0.0
H766 H 0.61536 0.41096 0.76501 0.0
H767 H 0.59051 0.39013 0.76781 0.0
C768 C 0.59298 0.43157 0.79986 0.0
C769 C 0.57362 0.42152 0.80683 0.0
C770 C 0.60832 0.41656 0.79278 0.0
C771 C 0.60463 0.39122 0.79259 0.0
C772 C 0.58512 0.3811 0.79939 0.0
H773 H 0.72027 0.29076 0.76625 0.0
H774 H 0.67994 0.30412 0.77374 0.0
C775 C 0.56954 0.39619 0.80638 0.0
C776 C 0.62264 0.37543 0.78616 0.0
H777 H 0.65022 0.36644 0.75777 0.0
C778 C 0.63808 0.36089 0.79357 0.0
C779 C 0.62651 0.37679 0.77305 0.0
C780 C 0.60984 0.39147 0.76464 0.0
C781 C 0.65843 0.349 0.78833 0.0
C782 C 0.66301 0.35129 0.77528 0.0
C783 C 0.6467 0.36474 0.76777 0.0
C784 C 0.68602 0.34232 0.76954 0.0
C785 C 0.67571 0.33549 0.79696 0.0
C786 C 0.7023 0.35917 0.76418 0.0
C787 C 0.7251 0.35157 0.75976 0.0
C788 C 0.7321 0.32696 0.76065 0.0
C789 C 0.71541 0.30989 0.76555 0.0
C790 C 0.69246 0.3175 0.76989 0.0
H791 H 0.67213 0.33959 0.80703 0.0
H792 H 0.67341 0.31555 0.79556 0.0
H793 H 0.69504 0.34024 0.79483 0.0
H794 H 0.69768 0.37839 0.76378 0.0
H795 H 0.73752 0.36514 0.756 0.0
H796 H 0.54858 0.0745 0.04064 0.0
H797 H 0.57035 0.10494 0.02805 0.0
H798 H 0.62327 0.11402 0.05778 0.0
H799 H 0.60126 0.08429 0.07063 0.0
H800 H 0.57992 0.15528 0.0375 0.0
H801 H 0.66402 0.10417 0.02422 0.0
H802 H 0.63576 0.08912 0.02851 0.0
H803 H 0.65485 0.10234 0.04044 0.0
C804 C 0.56481 0.083 0.04454 0.0
C805 C 0.5731 0.07699 0.05669 0.0
C806 C 0.57732 0.1002 0.03728 0.0
C807 C 0.59852 0.11142 0.04195 0.0
C808 C 0.60716 0.10517 0.05394 0.0
H809 H 0.69581 0.22812 0.02252 0.0
H810 H 0.67646 0.19073 0.03024 0.0
C811 C 0.59457 0.08814 0.06125 0.0
C812 C 0.61051 0.13113 0.03477 0.0
H813 H 0.66375 0.14674 0.02004 0.0
C814 C 0.59813 0.1534 0.03354 0.0
C815 C 0.63431 0.12853 0.02976 0.0
C816 C 0.64805 0.10472 0.03068 0.0
C817 C 0.60928 0.17355 0.02778 0.0
C818 C 0.63319 0.17105 0.02278 0.0
C819 C 0.64539 0.14857 0.02382 0.0
C820 C 0.64624 0.192 0.01706 0.0
C821 C 0.59572 0.19759 0.02763 0.0
C822 C 0.63617 0.20458 0.00679 0.0
C823 C 0.64701 0.2261 0.00248 0.0
C824 C 0.66837 0.23511 0.00822 0.0
C825 C 0.67932 0.22162 0.01794 0.0
C826 C 0.6683 0.20026 0.02235 0.0
H827 H 0.58065 0.19797 0.03465 0.0
H828 H 0.6083 0.21305 0.02961 0.0
H829 H 0.58751 0.20043 0.0182 0.0
H830 H 0.61953 0.19814 0.00235 0.0
H831 H 0.63833 0.236 0.99487 0.0
H832 H 0.94882 0.10414 0.30435 0.0
H833 H 0.91911 0.12951 0.29297 0.0
H834 H 0.86084 0.08138 0.30454 0.0
H835 H 0.89026 0.05617 0.31603 0.0
H836 H 0.88516 0.1137 0.27318 0.0
H837 H 0.83857 0.15143 0.31529 0.0
H838 H 0.86876 0.13796 0.31592 0.0
H839 H 0.84206 0.1188 0.3154 0.0
C840 C 0.92964 0.0991 0.30453 0.0
C841 C 0.92183 0.0782 0.31109 0.0
C842 C 0.91276 0.11351 0.29799 0.0
C843 C 0.88782 0.10741 0.29805 0.0
C844 C 0.88001 0.08651 0.30451 0.0
H845 H 0.76258 0.13724 0.2537 0.0
H846 H 0.80086 0.12216 0.26269 0.0
C847 C 0.89685 0.07203 0.31098 0.0
C848 C 0.86979 0.1226 0.29125 0.0
H849 H 0.81784 0.15605 0.29568 0.0
C850 C 0.8706 0.12325 0.27807 0.0
C851 C 0.85109 0.1353 0.29769 0.0
C852 C 0.8501 0.13609 0.31186 0.0
C853 C 0.85237 0.13531 0.27113 0.0
C854 C 0.83283 0.14675 0.27757 0.0
C855 C 0.83276 0.14713 0.29076 0.0
C856 C 0.81129 0.15681 0.27089 0.0
C857 C 0.85398 0.13542 0.25697 0.0
C858 C 0.80444 0.1813 0.27254 0.0
C859 C 0.7825 0.18997 0.26743 0.0
C860 C 0.76695 0.17417 0.26073 0.0
C861 C 0.77421 0.14985 0.2588 0.0
C862 C 0.79617 0.14124 0.26385 0.0
H863 H 0.87312 0.13265 0.25372 0.0
H864 H 0.84268 0.12029 0.25316 0.0
H865 H 0.84698 0.15285 0.25302 0.0
H866 H 0.8158 0.19353 0.27803 0.0
H867 H 0.77732 0.20878 0.2691 0.0
H868 H 0.95344 0.39998 0.55137 0.0
H869 H 0.92719 0.37306 0.53891 0.0
H870 H 0.86422 0.41666 0.54864 0.0
H871 H 0.89051 0.44378 0.5612 0.0
H872 H 0.86074 0.36414 0.55332 0.0
H873 H 0.89104 0.38554 0.50482 0.0
H874 H 0.91564 0.38086 0.5158 0.0
H875 H 0.89529 0.40633 0.51785 0.0
C876 C 0.93403 0.40392 0.55079 0.0
C877 C 0.92395 0.42388 0.55727 0.0
C878 C 0.91911 0.38869 0.54358 0.0
C879 C 0.89387 0.3931 0.54275 0.0
C880 C 0.88373 0.41316 0.54908 0.0
H881 H 0.79092 0.28096 0.51504 0.0
H882 H 0.80543 0.32075 0.52259 0.0
C883 C 0.89873 0.42861 0.55621 0.0
C884 C 0.87805 0.37538 0.53612 0.0
H885 H 0.87031 0.3474 0.50774 0.0
C886 C 0.86235 0.36073 0.54331 0.0
C887 C 0.88034 0.37108 0.52308 0.0
C888 C 0.89632 0.38691 0.51489 0.0
C889 C 0.85011 0.34073 0.53795 0.0
C890 C 0.85325 0.33572 0.52499 0.0
C891 C 0.86795 0.35124 0.51767 0.0
C892 C 0.84374 0.31303 0.51918 0.0
C893 C 0.83526 0.32425 0.54639 0.0
C894 C 0.86034 0.296 0.51423 0.0
C895 C 0.85211 0.2735 0.50978 0.0
C896 C 0.8271 0.26756 0.51022 0.0
C897 C 0.81033 0.285 0.51469 0.0
C898 C 0.81859 0.30765 0.51907 0.0
H899 H 0.83879 0.32789 0.55651 0.0
H900 H 0.81548 0.32731 0.5446 0.0
H901 H 0.83939 0.30476 0.54445 0.0
H902 H 0.87982 0.2998 0.5142 0.0
H903 H 0.86546 0.26048 0.50635 0.0
H904 H 0.57441 0.05463 0.46099 0.0
H905 H 0.60494 0.07718 0.47319 0.0
H906 H 0.61335 0.12838 0.44273 0.0
H907 H 0.58339 0.10562 0.43029 0.0
H908 H 0.65483 0.08594 0.46399 0.0
H909 H 0.60425 0.1713 0.47525 0.0
H910 H 0.58893 0.14313 0.47118 0.0
H911 H 0.60299 0.16129 0.45915 0.0
C912 C 0.58277 0.07066 0.45686 0.0
C913 C 0.57651 0.07824 0.44463 0.0
C914 C 0.60003 0.08362 0.46389 0.0
C915 C 0.61112 0.10456 0.4589 0.0
C916 C 0.60461 0.11251 0.44683 0.0
H917 H 0.72972 0.20062 0.47876 0.0
H918 H 0.69237 0.18192 0.47041 0.0
C919 C 0.58746 0.09947 0.43974 0.0
C920 C 0.63094 0.11694 0.46589 0.0
H921 H 0.64678 0.17076 0.47989 0.0
C922 C 0.65306 0.1044 0.46759 0.0
C923 C 0.6285 0.14106 0.47043 0.0
C924 C 0.60485 0.15502 0.46902 0.0
C925 C 0.67316 0.11558 0.47343 0.0
C926 C 0.67077 0.13974 0.47802 0.0
C927 C 0.64851 0.15221 0.47643 0.0
C928 C 0.69158 0.1526 0.48404 0.0
C929 C 0.69702 0.10171 0.47418 0.0
C930 C 0.70294 0.14286 0.49476 0.0
C931 C 0.7244 0.15333 0.49946 0.0
C932 C 0.73459 0.17398 0.49363 0.0
C933 C 0.72229 0.18468 0.48342 0.0
C934 C 0.70097 0.17402 0.47864 0.0
H935 H 0.69759 0.08633 0.46736 0.0
H936 H 0.71286 0.1139 0.47232 0.0
H937 H 0.69912 0.09396 0.48375 0.0
H938 H 0.69562 0.12671 0.49927 0.0
H939 H 0.73336 0.14486 0.50743 0.0
H940 H 0.94569 0.10953 0.69035 0.0
H941 H 0.92169 0.13996 0.70173 0.0
H942 H 0.86704 0.08555 0.71019 0.0
H943 H 0.89137 0.0547 0.69913 0.0
H944 H 0.87374 0.1546 0.69636 0.0
H945 H 0.88179 0.11663 0.74469 0.0
H946 H 0.90163 0.10726 0.732 0.0
H947 H 0.87084 0.09588 0.73285 0.0
C948 C 0.92877 0.1039 0.6948 0.0
C949 C 0.92052 0.07965 0.6939 0.0
C950 C 0.91499 0.12136 0.70122 0.0
C951 C 0.89274 0.11493 0.7069 0.0
C952 C 0.88435 0.09078 0.70602 0.0
H953 H 0.79133 0.22973 0.73146 0.0
H954 H 0.80706 0.19174 0.72233 0.0
C955 C 0.89815 0.07326 0.69959 0.0
C956 C 0.87812 0.13387 0.71339 0.0
H957 H 0.85742 0.15193 0.74222 0.0
C958 C 0.86999 0.15396 0.70637 0.0
C959 C 0.87345 0.13297 0.72646 0.0
C960 C 0.88251 0.11215 0.73451 0.0
C961 C 0.8577 0.17349 0.7121 0.0
C962 C 0.85304 0.17264 0.72517 0.0
C963 C 0.86081 0.15235 0.73218 0.0
C964 C 0.84204 0.19363 0.73186 0.0
C965 C 0.85073 0.19531 0.70419 0.0
C966 C 0.85607 0.20659 0.74067 0.0
C967 C 0.8471 0.22813 0.74595 0.0
C968 C 0.82391 0.23706 0.74252 0.0
C969 C 0.80933 0.22336 0.73421 0.0
C970 C 0.81832 0.20175 0.72895 0.0
H971 H 0.86005 0.19519 0.69491 0.0
H972 H 0.83068 0.1951 0.70251 0.0
H973 H 0.85538 0.21258 0.70911 0.0
H974 H 0.87439 0.20056 0.74307 0.0
H975 H 0.85871 0.23824 0.75237 0.0
H976 H 0.94764 0.39538 0.95081 0.0
H977 H 0.9179 0.3699 0.96209 0.0
H978 H 0.86016 0.41985 0.95192 0.0
H979 H 0.88958 0.44514 0.9405 0.0
H980 H 0.88475 0.3844 0.98242 0.0
H981 H 0.83654 0.35125 0.93975 0.0
H982 H 0.86686 0.36441 0.93924 0.0
H983 H 0.84041 0.38381 0.94038 0.0
C984 C 0.92857 0.40082 0.95093 0.0
C985 C 0.9209 0.42221 0.94475 0.0
C986 C 0.91168 0.38635 0.95742 0.0
C987 C 0.88687 0.39291 0.95769 0.0
C988 C 0.87922 0.41437 0.95167 0.0
H989 H 0.76226 0.36101 0.00204 0.0
H990 H 0.80106 0.37596 0.99364 0.0
C991 C 0.89607 0.42889 0.94526 0.0
C992 C 0.86876 0.37746 0.96425 0.0
H993 H 0.81616 0.3453 0.95933 0.0
C994 C 0.8699 0.37556 0.97739 0.0
C995 C 0.8497 0.36565 0.95762 0.0
C996 C 0.84834 0.36613 0.94345 0.0
C997 C 0.85168 0.36313 0.98415 0.0
C998 C 0.83178 0.35262 0.97756 0.0
C999 C 0.83136 0.35349 0.96438 0.0
C1000 C 0.81021 0.34227 0.98409 0.0
C1001 C 0.85372 0.3616 0.99827 0.0
C1002 C 0.80249 0.31833 0.98153 0.0
C1003 C 0.7802 0.30978 0.98626 0.0
C1004 C 0.76522 0.32512 0.99354 0.0
C1005 C 0.77346 0.34874 0.9965 0.0
C1006 C 0.79572 0.35726 0.99178 0.0
H1007 H 0.87305 0.3634 0.00141 0.0
H1008 H 0.84313 0.37677 0.00255 0.0
H1009 H 0.84624 0.34408 0.00185 0.0
H1010 H 0.81334 0.30654 0.97554 0.0
H1011 H 0.77429 0.2915 0.98381 0.0
H1012 H 0.55338 0.3931 0.19264 0.0
H1013 H 0.57944 0.36384 0.20359 0.0
H1014 H 0.63579 0.41852 0.20737 0.0
H1015 H 0.60939 0.44833 0.1968 0.0
H1016 H 0.62532 0.34795 0.19601 0.0
H1017 H 0.62917 0.39146 0.24325 0.0
H1018 H 0.60675 0.39994 0.23155 0.0
H1019 H 0.63777 0.41053 0.23022 0.0
C1020 C 0.57111 0.3991 0.196 0.0
C1021 C 0.57922 0.42312 0.19392 0.0
C1022 C 0.58607 0.38228 0.20217 0.0
C1023 C 0.60943 0.38909 0.20639 0.0
C1024 C 0.61767 0.41302 0.20435 0.0
H1025 H 0.71098 0.27206 0.22821 0.0
H1026 H 0.69576 0.31027 0.2191 0.0
C1027 C 0.60266 0.42993 0.19819 0.0
C1028 C 0.62526 0.37066 0.21252 0.0
H1029 H 0.65182 0.35516 0.24048 0.0
C1030 C 0.63132 0.34959 0.2057 0.0
C1031 C 0.6329 0.37287 0.22518 0.0
C1032 C 0.62621 0.3948 0.23305 0.0
C1033 C 0.64424 0.33031 0.21128 0.0
C1034 C 0.65177 0.33242 0.22397 0.0
C1035 C 0.64623 0.35375 0.23072 0.0
C1036 C 0.66321 0.31166 0.23068 0.0
C1037 C 0.64866 0.3074 0.20372 0.0
C1038 C 0.65062 0.30056 0.24065 0.0
C1039 C 0.65937 0.27894 0.24594 0.0
C1040 C 0.68086 0.26803 0.24134 0.0
C1041 C 0.69426 0.27996 0.23188 0.0
C1042 C 0.68554 0.3017 0.22663 0.0
H1043 H 0.63732 0.30685 0.19504 0.0
H1044 H 0.6682 0.30663 0.20088 0.0
H1045 H 0.64457 0.29088 0.20939 0.0
H1046 H 0.6334 0.30802 0.24395 0.0
H1047 H 0.6487 0.27023 0.25326 0.0
H1048 H 0.11083 0.94924 0.38648 0.0
H1049 H 0.13057 0.92597 0.40326 0.0
H1050 H 0.06777 0.87838 0.40532 0.0
H1051 H 0.04749 0.90211 0.38888 0.0
H1052 H 0.08139 0.89585 0.42826 0.0
H1053 H 0.16232 0.85883 0.40327 0.0
H1054 H 0.15931 0.89133 0.40178 0.0
H1055 H 0.13634 0.87167 0.3951 0.0
C1056 C 0.10125 0.93376 0.39047 0.0
C1057 C 0.07756 0.92757 0.38635 0.0
C1058 C 0.11269 0.9203 0.39995 0.0
C1059 C 0.10078 0.90024 0.40542 0.0
C1060 C 0.07736 0.89369 0.40116 0.0
H1061 H 0.1666 0.80067 0.45987 0.0
H1062 H 0.14728 0.81845 0.4412 0.0
C1063 C 0.06587 0.90717 0.39169 0.0
C1064 C 0.11193 0.88728 0.41623 0.0
H1065 H 0.16312 0.85659 0.42573 0.0
C1066 C 0.09917 0.88709 0.42768 0.0
C1067 C 0.135 0.87564 0.41542 0.0
C1068 C 0.14895 0.87412 0.4032 0.0
C1069 C 0.10914 0.87613 0.43844 0.0
C1070 C 0.1327 0.86548 0.43778 0.0
C1071 C 0.14518 0.86504 0.42624 0.0
C1072 C 0.14473 0.85485 0.44899 0.0
C1073 C 0.09428 0.8759 0.4504 0.0
C1074 C 0.15001 0.86953 0.45946 0.0
C1075 C 0.16096 0.85944 0.47014 0.0
C1076 C 0.16698 0.8345 0.47048 0.0
C1077 C 0.16208 0.81992 0.45989 0.0
C1078 C 0.1511 0.83004 0.44922 0.0
H1079 H 0.07446 0.87863 0.44849 0.0
H1080 H 0.09667 0.85843 0.45555 0.0
H1081 H 0.10052 0.89097 0.45659 0.0
H1082 H 0.14569 0.88883 0.45937 0.0
H1083 H 0.16467 0.87116 0.47812 0.0
H1084 H 0.10047 0.58917 0.62151 0.0
H1085 H 0.12426 0.61201 0.63718 0.0
H1086 H 0.10074 0.56186 0.66598 0.0
H1087 H 0.07687 0.5392 0.65052 0.0
H1088 H 0.10705 0.63483 0.65907 0.0
H1089 H 0.17505 0.5634 0.67074 0.0
H1090 H 0.15629 0.56215 0.65675 0.0
H1091 H 0.14413 0.55246 0.67167 0.0
C1092 C 0.1004 0.58303 0.63118 0.0
C1093 C 0.08696 0.56222 0.63474 0.0
C1094 C 0.11407 0.59601 0.6401 0.0
C1095 C 0.11465 0.58831 0.65267 0.0
C1096 C 0.10111 0.5677 0.65625 0.0
H1097 H 0.15231 0.63163 0.72618 0.0
H1098 H 0.13936 0.6128 0.70645 0.0
C1099 C 0.08747 0.55476 0.64739 0.0
C1100 C 0.12831 0.60233 0.6623 0.0
H1101 H 0.17012 0.5956 0.68592 0.0
C1102 C 0.1212 0.62647 0.6648 0.0
C1103 C 0.14682 0.59137 0.66971 0.0
C1104 C 0.15621 0.566 0.66701 0.0
C1105 C 0.13104 0.63944 0.67502 0.0
C1106 C 0.14861 0.62798 0.6828 0.0
C1107 C 0.15655 0.60426 0.67995 0.0
C1108 C 0.15732 0.6394 0.69459 0.0
C1109 C 0.12168 0.66478 0.67782 0.0
C1110 C 0.17197 0.66045 0.69443 0.0
C1111 C 0.17948 0.67126 0.70572 0.0
C1112 C 0.17239 0.66115 0.71731 0.0
C1113 C 0.15802 0.63988 0.7174 0.0
C1114 C 0.15063 0.62907 0.70614 0.0
H1115 H 0.10559 0.66966 0.67194 0.0
H1116 H 0.11648 0.66634 0.68789 0.0
H1117 H 0.13643 0.67825 0.67598 0.0
H1118 H 0.17754 0.66851 0.68558 0.0
H1119 H 0.1906 0.68762 0.70538 0.0
H1120 H 0.40881 0.59833 0.87131 0.0
H1121 H 0.38661 0.62206 0.88722 0.0
H1122 H 0.43955 0.60058 0.91521 0.0
H1123 H 0.46163 0.57682 0.8995 0.0
H1124 H 0.36562 0.60513 0.90941 0.0
H1125 H 0.43659 0.67443 0.91978 0.0
H1126 H 0.43754 0.65539 0.90592 0.0
H1127 H 0.44818 0.64385 0.9208 0.0
C1128 C 0.41572 0.59872 0.88085 0.0
C1129 C 0.43712 0.58587 0.88411 0.0
C1130 C 0.40309 0.61236 0.8899 0.0
C1131 C 0.41173 0.61347 0.90232 0.0
C1132 C 0.43296 0.60055 0.9056 0.0
H1133 H 0.36981 0.65345 0.97608 0.0
H1134 H 0.38867 0.63976 0.95647 0.0
C1135 C 0.44557 0.58696 0.89659 0.0
C1136 C 0.39799 0.62696 0.91211 0.0
H1137 H 0.40506 0.66941 0.93535 0.0
C1138 C 0.37403 0.61951 0.91495 0.0
C1139 C 0.40902 0.64576 0.91928 0.0
C1140 C 0.43416 0.65551 0.91621 0.0
C1141 C 0.36131 0.6294 0.92523 0.0
C1142 C 0.37282 0.64736 0.93274 0.0
C1143 C 0.39637 0.65553 0.92959 0.0
C1144 C 0.36149 0.65653 0.94445 0.0
C1145 C 0.33616 0.61974 0.92837 0.0
C1146 C 0.34014 0.67078 0.94414 0.0
C1147 C 0.32933 0.6787 0.95536 0.0
C1148 C 0.33974 0.67244 0.96702 0.0
C1149 C 0.36133 0.6585 0.96725 0.0
C1150 C 0.37215 0.6507 0.95606 0.0
H1151 H 0.33144 0.60325 0.92279 0.0
H1152 H 0.33496 0.61516 0.93852 0.0
H1153 H 0.3223 0.63404 0.92637 0.0
H1154 H 0.33183 0.6757 0.93525 0.0
H1155 H 0.31271 0.68947 0.9549 0.0
H1156 H 0.46282 0.92794 0.15307 0.0
H1157 H 0.43936 0.90745 0.16948 0.0
H1158 H 0.38402 0.88789 0.14234 0.0
H1159 H 0.40789 0.90759 0.1257 0.0
H1160 H 0.39233 0.91911 0.17709 0.0
H1161 H 0.39713 0.82311 0.16026 0.0
H1162 H 0.41707 0.84675 0.15434 0.0
H1163 H 0.38595 0.84477 0.14895 0.0
C1164 C 0.44593 0.91883 0.1505 0.0
C1165 C 0.43733 0.91926 0.13803 0.0
C1166 C 0.43244 0.90731 0.15993 0.0
C1167 C 0.4101 0.89593 0.1571 0.0
C1168 C 0.40143 0.8962 0.14468 0.0
H1169 H 0.30469 0.8249 0.20716 0.0
H1170 H 0.32474 0.8431 0.18876 0.0
C1171 C 0.41496 0.9077 0.13521 0.0
C1172 C 0.3955 0.88479 0.16733 0.0
H1173 H 0.37231 0.83076 0.17807 0.0
C1174 C 0.38794 0.89979 0.17731 0.0
C1175 C 0.38969 0.85962 0.16753 0.0
C1176 C 0.39802 0.84252 0.15726 0.0
C1177 C 0.37486 0.89028 0.18753 0.0
C1178 C 0.36948 0.86505 0.18785 0.0
C1179 C 0.37652 0.85011 0.17777 0.0
C1180 C 0.35745 0.85374 0.19886 0.0
C1181 C 0.36684 0.90731 0.1979 0.0
C1182 C 0.36941 0.85343 0.21053 0.0
C1183 C 0.35808 0.84304 0.221 0.0
C1184 C 0.33459 0.83275 0.21997 0.0
C1185 C 0.32275 0.8328 0.20823 0.0
C1186 C 0.33417 0.84313 0.19773 0.0
H1187 H 0.3669 0.92667 0.19479 0.0
H1188 H 0.34817 0.90257 0.20125 0.0
H1189 H 0.37964 0.90558 0.20596 0.0
H1190 H 0.38755 0.86121 0.21153 0.0
H1191 H 0.3677 0.84318 0.22991 0.0
H1192 H 0.08844 0.59828 0.88098 0.0
H1193 H 0.10675 0.62436 0.86469 0.0
H1194 H 0.07878 0.57626 0.83598 0.0
H1195 H 0.06032 0.55037 0.85208 0.0
H1196 H 0.14148 0.60852 0.8447 0.0
H1197 H 0.05424 0.64651 0.82636 0.0
H1198 H 0.05692 0.63318 0.84184 0.0
H1199 H 0.05453 0.6139 0.82822 0.0
C1200 C 0.08614 0.59337 0.87119 0.0
C1201 C 0.073 0.57227 0.8678 0.0
C1202 C 0.09664 0.6082 0.86193 0.0
C1203 C 0.09383 0.60232 0.84917 0.0
C1204 C 0.08089 0.58122 0.84578 0.0
H1205 H 0.13406 0.64454 0.77542 0.0
H1206 H 0.11664 0.62831 0.79484 0.0
C1207 C 0.07057 0.56633 0.855 0.0
C1208 C 0.10469 0.61782 0.83927 0.0
H1209 H 0.08957 0.65158 0.81346 0.0
C1210 C 0.13024 0.6183 0.83796 0.0
C1211 C 0.08987 0.63049 0.83055 0.0
C1212 C 0.06236 0.63124 0.83183 0.0
C1213 C 0.14135 0.63008 0.82771 0.0
C1214 C 0.12644 0.64204 0.81873 0.0
C1215 C 0.10093 0.64235 0.82035 0.0
C1216 C 0.13672 0.65272 0.80708 0.0
C1217 C 0.16879 0.62855 0.82624 0.0
C1218 C 0.15351 0.67212 0.80753 0.0
C1219 C 0.1636 0.68139 0.79642 0.0
C1220 C 0.15688 0.67151 0.78471 0.0
C1221 C 0.13963 0.6525 0.7843 0.0
C1222 C 0.12964 0.64322 0.79538 0.0
H1223 H 0.17697 0.61451 0.83251 0.0
H1224 H 0.17379 0.62421 0.81637 0.0
H1225 H 0.17704 0.64646 0.82868 0.0
H1226 H 0.15886 0.68001 0.81645 0.0
H1227 H 0.17677 0.69613 0.797 0.0
H1228 H 0.44216 0.60665 0.11979 0.0
H1229 H 0.41789 0.62751 0.1037 0.0
H1230 H 0.37384 0.56279 0.09886 0.0
H1231 H 0.3979 0.54192 0.11501 0.0
H1232 H 0.4149 0.6138 0.07942 0.0
H1233 H 0.32185 0.61558 0.10013 0.0
H1234 H 0.3489 0.60912 0.10933 0.0
H1235 H 0.33503 0.58557 0.09991 0.0
C1236 C 0.42713 0.59697 0.11538 0.0
C1237 C 0.42194 0.57265 0.11864 0.0
C1238 C 0.41323 0.60892 0.10623 0.0
C1239 C 0.39387 0.59681 0.10019 0.0
C1240 C 0.38829 0.57271 0.10362 0.0
H1241 H 0.34095 0.62561 0.02535 0.0
H1242 H 0.35821 0.60838 0.04461 0.0
C1243 C 0.4021 0.56078 0.11283 0.0
C1244 C 0.38107 0.60858 0.08949 0.0
H1245 H 0.32462 0.62375 0.07803 0.0
C1246 C 0.39518 0.61617 0.07918 0.0
C1247 C 0.35537 0.61188 0.08922 0.0
C1248 C 0.33941 0.60534 0.10029 0.0
C1249 C 0.38426 0.62637 0.06848 0.0
C1250 C 0.35847 0.62858 0.06796 0.0
C1251 C 0.34436 0.62169 0.0784 0.0
C1252 C 0.34597 0.63792 0.05658 0.0
C1253 C 0.40047 0.63484 0.05785 0.0
C1254 C 0.33248 0.6597 0.05704 0.0
C1255 C 0.32241 0.66951 0.04605 0.0
C1256 C 0.32567 0.65762 0.03445 0.0
C1257 C 0.33831 0.63528 0.03413 0.0
C1258 C 0.34827 0.62547 0.04511 0.0
H1259 H 0.41959 0.63797 0.06104 0.0
H1260 H 0.40087 0.62062 0.05042 0.0
H1261 H 0.3934 0.65199 0.05362 0.0
H1262 H 0.3304 0.66949 0.06583 0.0
H1263 H 0.31271 0.68673 0.04658 0.0
H1264 H 0.42615 0.96166 0.35074 0.0
H1265 H 0.4052 0.93781 0.33465 0.0
H1266 H 0.38868 0.88212 0.36202 0.0
H1267 H 0.4088 0.90644 0.37838 0.0
H1268 H 0.41731 0.89153 0.32666 0.0
H1269 H 0.32222 0.89368 0.34534 0.0
H1270 H 0.34587 0.91399 0.35095 0.0
H1271 H 0.3451 0.88277 0.35612 0.0
C1272 C 0.41763 0.9446 0.35344 0.0
C1273 C 0.41898 0.93608 0.36589 0.0
C1274 C 0.40584 0.93088 0.34419 0.0
C1275 C 0.39514 0.90834 0.34717 0.0
C1276 C 0.39644 0.89968 0.35957 0.0
H1277 H 0.32397 0.80397 0.2963 0.0
H1278 H 0.34257 0.82302 0.31491 0.0
C1279 C 0.40819 0.91347 0.36887 0.0
C1280 C 0.38357 0.89366 0.33708 0.0
H1281 H 0.329 0.87014 0.32702 0.0
C1282 C 0.39802 0.8868 0.32676 0.0
C1283 C 0.35842 0.88741 0.33728 0.0
C1284 C 0.34188 0.89497 0.34795 0.0
C1285 C 0.38794 0.87415 0.31654 0.0
C1286 C 0.36271 0.86842 0.31659 0.0
C1287 C 0.34835 0.87462 0.32705 0.0
C1288 C 0.35077 0.85711 0.30556 0.0
C1289 C 0.40431 0.86707 0.30571 0.0
C1290 C 0.34891 0.87019 0.29427 0.0
C1291 C 0.33827 0.85946 0.2837 0.0
C1292 C 0.32931 0.83543 0.28422 0.0
C1293 C 0.33081 0.82249 0.29561 0.0
C1294 C 0.34137 0.83332 0.30623 0.0
H1295 H 0.42398 0.86759 0.30837 0.0
H1296 H 0.39978 0.84846 0.30226 0.0
H1297 H 0.40147 0.88006 0.29784 0.0
H1298 H 0.35579 0.8887 0.29364 0.0
H1299 H 0.33729 0.86992 0.27507 0.0
H1300 H 0.09131 0.95106 0.61495 0.0
H1301 H 0.11436 0.93108 0.59816 0.0
H1302 H 0.06718 0.86816 0.60077 0.0
H1303 H 0.04445 0.8877 0.61788 0.0
H1304 H 0.11756 0.85664 0.59811 0.0
H1305 H 0.08609 0.92377 0.56245 0.0
H1306 H 0.10062 0.93701 0.576 0.0
H1307 H 0.07205 0.92108 0.57775 0.0
C1308 C 0.08609 0.93279 0.61213 0.0
C1309 C 0.06594 0.92102 0.61771 0.0
C1310 C 0.09912 0.92152 0.60243 0.0
C1311 C 0.09218 0.89835 0.59809 0.0
C1312 C 0.07269 0.88614 0.60394 0.0
H1313 H 0.12784 0.83256 0.52647 0.0
H1314 H 0.10778 0.84982 0.54501 0.0
C1315 C 0.05964 0.89739 0.61364 0.0
C1316 C 0.10475 0.88716 0.58719 0.0
H1317 H 0.11586 0.89507 0.55588 0.0
C1318 C 0.11722 0.865 0.58887 0.0
C1319 C 0.10393 0.89798 0.57512 0.0
C1320 C 0.08978 0.92116 0.57264 0.0
C1321 C 0.1292 0.85349 0.5788 0.0
C1322 C 0.12891 0.86465 0.56681 0.0
C1323 C 0.11621 0.88667 0.56512 0.0
C1324 C 0.14121 0.85358 0.55578 0.0
C1325 C 0.14163 0.82926 0.58102 0.0
C1326 C 0.16668 0.85017 0.55567 0.0
C1327 C 0.1782 0.84028 0.54509 0.0
C1328 C 0.16442 0.83381 0.53442 0.0
C1329 C 0.13893 0.83735 0.53455 0.0
C1330 C 0.12745 0.84721 0.54513 0.0
H1331 H 0.13505 0.82038 0.58978 0.0
H1332 H 0.13848 0.81665 0.573 0.0
H1333 H 0.16165 0.83222 0.58194 0.0
H1334 H 0.17769 0.85544 0.5637 0.0
H1335 H 0.19788 0.83785 0.54523 0.0
H1336 H 0.56287 0.45166 0.90072 0.0
H1337 H 0.58244 0.42634 0.91676 0.0
H1338 H 0.60863 0.37732 0.88805 0.0
H1339 H 0.58917 0.40274 0.87183 0.0
H1340 H 0.57342 0.36984 0.91892 0.0
H1341 H 0.66969 0.40087 0.91166 0.0
H1342 H 0.64398 0.42022 0.90775 0.0
H1343 H 0.65065 0.39408 0.89823 0.0
C1344 C 0.57304 0.43567 0.89778 0.0
C1345 C 0.57463 0.42926 0.88501 0.0
C1346 C 0.58405 0.42116 0.90696 0.0
C1347 C 0.59699 0.40011 0.90354 0.0
C1348 C 0.59875 0.39361 0.89082 0.0
H1349 H 0.6835 0.31023 0.95529 0.0
H1350 H 0.66504 0.32654 0.93602 0.0
C1351 C 0.58758 0.40805 0.8816 0.0
C1352 C 0.60822 0.38487 0.91342 0.0
H1353 H 0.66227 0.37411 0.92851 0.0
C1354 C 0.59288 0.37053 0.92097 0.0
C1355 C 0.63358 0.38574 0.91593 0.0
C1356 C 0.6506 0.40105 0.90803 0.0
C1357 C 0.60223 0.35736 0.93121 0.0
C1358 C 0.62746 0.35917 0.93414 0.0
C1359 C 0.64293 0.37283 0.92628 0.0
C1360 C 0.63788 0.34829 0.94572 0.0
C1361 C 0.58498 0.34168 0.93879 0.0
C1362 C 0.62884 0.35526 0.95754 0.0
C1363 C 0.63925 0.34591 0.96852 0.0
C1364 C 0.65909 0.32964 0.96789 0.0
C1365 C 0.66817 0.32268 0.95605 0.0
C1366 C 0.65767 0.33199 0.94505 0.0
H1367 H 0.5689 0.33593 0.93312 0.0
H1368 H 0.59434 0.32512 0.94243 0.0
H1369 H 0.57809 0.35238 0.94692 0.0
H1370 H 0.61401 0.36831 0.95829 0.0
H1371 H 0.63199 0.35176 0.97751 0.0
H1372 H 0.61654 0.04918 0.1323 0.0
H1373 H 0.63698 0.07176 0.14926 0.0
H1374 H 0.57159 0.11434 0.15509 0.0
H1375 H 0.55094 0.0918 0.13827 0.0
H1376 H 0.64026 0.12909 0.1528 0.0
H1377 H 0.59052 0.07592 0.1894 0.0
H1378 H 0.59535 0.06434 0.17369 0.0
H1379 H 0.57296 0.08769 0.17641 0.0
C1380 C 0.60659 0.06347 0.13715 0.0
C1381 C 0.58211 0.06868 0.13398 0.0
C1382 C 0.61832 0.0764 0.14676 0.0
C1383 C 0.60569 0.09455 0.15341 0.0
C1384 C 0.58156 0.10034 0.15003 0.0
H1385 H 0.63092 0.17428 0.22214 0.0
H1386 H 0.61426 0.15555 0.2031 0.0
C1387 C 0.56987 0.08755 0.14038 0.0
C1388 C 0.61717 0.10656 0.16436 0.0
H1389 H 0.61573 0.10805 0.19639 0.0
C1390 C 0.63504 0.12451 0.16235 0.0
C1391 C 0.61016 0.10048 0.17674 0.0
C1392 C 0.5913 0.08097 0.17929 0.0
C1393 C 0.64579 0.13701 0.1725 0.0
C1394 C 0.63881 0.13088 0.18493 0.0
C1395 C 0.62104 0.11274 0.18687 0.0
C1396 C 0.64936 0.1432 0.19611 0.0
C1397 C 0.66394 0.1571 0.1698 0.0
C1398 C 0.67463 0.14241 0.19853 0.0
C1399 C 0.68423 0.15327 0.20937 0.0
C1400 C 0.66866 0.1648 0.21805 0.0
C1401 C 0.64337 0.16551 0.21562 0.0
C1402 C 0.63383 0.15482 0.20475 0.0
H1403 H 0.66214 0.164 0.16002 0.0
H1404 H 0.66154 0.17263 0.1764 0.0
H1405 H 0.68279 0.14988 0.17095 0.0
H1406 H 0.68689 0.13303 0.19215 0.0
H1407 H 0.70378 0.15231 0.21105 0.0
H1408 H 0.96405 0.07378 0.40244 0.0
H1409 H 0.94183 0.09644 0.41856 0.0
H1410 H 0.88972 0.12071 0.39076 0.0
H1411 H 0.91201 0.09809 0.37447 0.0
H1412 H 0.93107 0.14662 0.41987 0.0
H1413 H 0.84657 0.08986 0.41819 0.0
H1414 H 0.875 0.08022 0.41109 0.0
H1415 H 0.85627 0.10276 0.40347 0.0
C1416 C 0.94803 0.08416 0.3997 0.0
C1417 C 0.93981 0.08417 0.38716 0.0
C1418 C 0.93529 0.09699 0.40894 0.0
C1419 C 0.914 0.11001 0.40587 0.0
C1420 C 0.90587 0.1104 0.39335 0.0
H1421 H 0.81452 0.18705 0.45682 0.0
H1422 H 0.83497 0.17189 0.43785 0.0
C1423 C 0.91862 0.09749 0.38407 0.0
C1424 C 0.90047 0.12304 0.4159 0.0
H1425 H 0.84688 0.12283 0.43242 0.0
C1426 C 0.91261 0.14153 0.42258 0.0
C1427 C 0.87637 0.11637 0.41936 0.0
C1428 C 0.86277 0.0961 0.41274 0.0
C1429 C 0.9014 0.15336 0.43277 0.0
C1430 C 0.87759 0.14621 0.43646 0.0
C1431 C 0.86516 0.12822 0.42955 0.0
C1432 C 0.86573 0.15627 0.44784 0.0
C1433 C 0.91514 0.17338 0.4395 0.0
C1434 C 0.87619 0.15233 0.45973 0.0
C1435 C 0.86456 0.16091 0.47055 0.0
C1436 C 0.84221 0.1735 0.46968 0.0
C1437 C 0.83178 0.17749 0.45777 0.0
C1438 C 0.84341 0.16883 0.44694 0.0
H1439 H 0.92978 0.18128 0.43349 0.0
H1440 H 0.90256 0.18825 0.44245 0.0
H1441 H 0.92391 0.16573 0.44804 0.0
H1442 H 0.89316 0.14225 0.46064 0.0
H1443 H 0.87297 0.15746 0.47961 0.0
H1444 H 0.90175 0.4549 0.63688 0.0
H1445 H 0.87791 0.43579 0.65364 0.0
H1446 H 0.92627 0.37355 0.65309 0.0
H1447 H 0.94966 0.39207 0.63596 0.0
H1448 H 0.877 0.36083 0.65566 0.0
H1449 H 0.90398 0.43302 0.68968 0.0
H1450 H 0.88917 0.44412 0.67573 0.0
H1451 H 0.91859 0.42955 0.67458 0.0
C1452 C 0.90705 0.43693 0.64013 0.0
C1453 C 0.92777 0.4251 0.63515 0.0
C1454 C 0.89356 0.42616 0.64982 0.0
C1455 C 0.90065 0.4035 0.65477 0.0
C1456 C 0.92063 0.39116 0.64946 0.0
H1457 H 0.87031 0.34253 0.72763 0.0
H1458 H 0.88798 0.36022 0.70859 0.0
C1459 C 0.93408 0.40185 0.63975 0.0
C1460 C 0.88791 0.39305 0.66582 0.0
H1461 H 0.87597 0.4033 0.69687 0.0
C1462 C 0.87668 0.37011 0.66467 0.0
C1463 C 0.88786 0.4051 0.67759 0.0
C1464 C 0.90072 0.4292 0.67956 0.0
C1465 C 0.86535 0.35886 0.67501 0.0
C1466 C 0.86495 0.37111 0.68673 0.0
C1467 C 0.87615 0.39406 0.68785 0.0
C1468 C 0.85399 0.36004 0.69812 0.0
C1469 C 0.85456 0.33369 0.6734 0.0
C1470 C 0.82895 0.35427 0.69857 0.0
C1471 C 0.81881 0.34406 0.70944 0.0
C1472 C 0.83352 0.33967 0.72005 0.0
C1473 C 0.85852 0.3457 0.7196 0.0
C1474 C 0.86864 0.35581 0.70874 0.0
H1475 H 0.86153 0.32453 0.6648 0.0
H1476 H 0.85874 0.322 0.68166 0.0
H1477 H 0.83436 0.33521 0.67256 0.0
H1478 H 0.81722 0.35786 0.69057 0.0
H1479 H 0.79946 0.33971 0.70955 0.0
H1480 H 0.53987 0.07205 0.35115 0.0
H1481 H 0.56304 0.09324 0.33486 0.0
H1482 H 0.61205 0.12206 0.36302 0.0
H1483 H 0.589 0.10054 0.37944 0.0
H1484 H 0.57141 0.14187 0.33173 0.0
H1485 H 0.65942 0.09219 0.33794 0.0
H1486 H 0.63122 0.082 0.34506 0.0
H1487 H 0.64805 0.10695 0.35184 0.0
C1488 C 0.55549 0.08302 0.3539 0.0
C1489 C 0.5626 0.08469 0.36657 0.0
C1490 C 0.56877 0.09505 0.34457 0.0
C1491 C 0.58944 0.10899 0.3477 0.0
C1492 C 0.59647 0.11096 0.36037 0.0
H1493 H 0.68224 0.19382 0.29639 0.0
H1494 H 0.66217 0.17831 0.31544 0.0
C1495 C 0.58326 0.09875 0.36973 0.0
C1496 C 0.60323 0.12158 0.3376 0.0
H1497 H 0.65867 0.12361 0.32274 0.0
C1498 C 0.59052 0.13795 0.32981 0.0
C1499 C 0.62818 0.11644 0.33511 0.0
C1500 C 0.64252 0.09829 0.34285 0.0
C1501 C 0.60196 0.14902 0.31948 0.0
C1502 C 0.62669 0.14352 0.31687 0.0
C1503 C 0.63968 0.12775 0.32484 0.0
C1504 C 0.63889 0.15289 0.30547 0.0
C1505 C 0.5875 0.16632 0.31131 0.0
C1506 C 0.63252 0.14349 0.29365 0.0
C1507 C 0.64401 0.15214 0.28281 0.0
C1508 C 0.662 0.17043 0.28362 0.0
C1509 C 0.66838 0.17979 0.29549 0.0
C1510 C 0.657 0.17095 0.30636 0.0
H1511 H 0.57015 0.17214 0.31587 0.0
H1512 H 0.59854 0.18278 0.30907 0.0
H1513 H 0.58291 0.15711 0.30231 0.0
H1514 H 0.61869 0.12939 0.29283 0.0
H1515 H 0.63874 0.14457 0.27379 0.0
H1516 H 0.92071 0.03738 0.60276 0.0
H1517 H 0.89801 0.06039 0.58695 0.0
H1518 H 0.87741 0.11339 0.61501 0.0
H1519 H 0.90003 0.09028 0.631 0.0
H1520 H 0.84779 0.07343 0.58651 0.0
H1521 H 0.90902 0.15473 0.58694 0.0
H1522 H 0.91783 0.12596 0.59387 0.0
H1523 H 0.89658 0.14558 0.60186 0.0
C1524 C 0.91112 0.05376 0.60563 0.0
C1525 C 0.91215 0.06198 0.61815 0.0
C1526 C 0.89825 0.06695 0.59656 0.0
C1527 C 0.88626 0.0887 0.59979 0.0
C1528 C 0.88691 0.09685 0.6123 0.0
H1529 H 0.81354 0.1901 0.54791 0.0
H1530 H 0.82745 0.17004 0.56726 0.0
C1531 C 0.89983 0.08365 0.6214 0.0
C1532 C 0.87327 0.1027 0.58993 0.0
H1533 H 0.87571 0.15545 0.57289 0.0
C1534 C 0.85375 0.09145 0.58359 0.0
C1535 C 0.88106 0.12623 0.58619 0.0
C1536 C 0.90237 0.13886 0.59247 0.0
C1537 C 0.84208 0.10291 0.57343 0.0
C1538 C 0.85045 0.12605 0.5694 0.0
C1539 C 0.86939 0.13769 0.57601 0.0
C1540 C 0.84095 0.13773 0.55783 0.0
C1541 C 0.82099 0.09011 0.56705 0.0
C1542 C 0.84412 0.12626 0.54615 0.0
C1543 C 0.83626 0.13764 0.53512 0.0
C1544 C 0.82519 0.16077 0.53557 0.0
C1545 C 0.82193 0.17222 0.54729 0.0
C1546 C 0.82987 0.16082 0.55833 0.0
H1547 H 0.81228 0.0765 0.57337 0.0
H1548 H 0.80685 0.10336 0.56393 0.0
H1549 H 0.82789 0.08026 0.55865 0.0
H1550 H 0.8531 0.10866 0.54554 0.0
H1551 H 0.83914 0.12843 0.52623 0.0
H1552 H 0.90607 0.40577 0.88183 0.0
H1553 H 0.88236 0.38359 0.86592 0.0
H1554 H 0.93696 0.40079 0.83804 0.0
H1555 H 0.96044 0.42336 0.8537 0.0
H1556 H 0.86361 0.40321 0.843 0.0
H1557 H 0.92738 0.32619 0.83448 0.0
H1558 H 0.92901 0.34515 0.84837 0.0
H1559 H 0.94177 0.35565 0.83376 0.0
C1560 C 0.91302 0.40485 0.87231 0.0
C1561 C 0.93526 0.41624 0.86907 0.0
C1562 C 0.89952 0.39206 0.86326 0.0
C1563 C 0.90814 0.39024 0.85088 0.0
C1564 C 0.9303 0.4015 0.84762 0.0
H1565 H 0.84082 0.36948 0.77951 0.0
H1566 H 0.85918 0.3841 0.79908 0.0
C1567 C 0.94372 0.41435 0.85662 0.0
C1568 C 0.89346 0.37778 0.84109 0.0
H1569 H 0.89645 0.33288 0.81888 0.0
C1570 C 0.8706 0.38762 0.83783 0.0
C1571 C 0.90252 0.35729 0.83448 0.0
C1572 C 0.92641 0.34527 0.83801 0.0
C1573 C 0.85709 0.37822 0.8277 0.0
C1574 C 0.86686 0.35866 0.82061 0.0
C1575 C 0.88913 0.34805 0.82427 0.0
C1576 C 0.85491 0.34985 0.80897 0.0
C1577 C 0.83262 0.38948 0.82456 0.0
C1578 C 0.84684 0.3256 0.80799 0.0
C1579 C 0.83636 0.31716 0.79679 0.0
C1580 C 0.83407 0.33279 0.78637 0.0
C1581 C 0.84226 0.35703 0.78739 0.0
C1582 C 0.85262 0.36546 0.79859 0.0
H1583 H 0.82474 0.3993 0.83275 0.0
H1584 H 0.83505 0.40286 0.81683 0.0
H1585 H 0.81938 0.37538 0.82138 0.0
H1586 H 0.84865 0.31324 0.81588 0.0
H1587 H 0.83026 0.29837 0.79626 0.0
H1588 H 0.55207 0.3999 0.11791 0.0
H1589 H 0.57379 0.37686 0.10173 0.0
H1590 H 0.62958 0.43255 0.10037 0.0
H1591 H 0.60866 0.4551 0.117 0.0
H1592 H 0.5818 0.39191 0.07821 0.0
H1593 H 0.67087 0.37156 0.10077 0.0
H1594 H 0.64465 0.38209 0.10957 0.0
H1595 H 0.66361 0.40349 0.10119 0.0
C1596 C 0.56932 0.40694 0.11444 0.0
C1597 C 0.57861 0.42938 0.11877 0.0
C1598 C 0.58162 0.39382 0.10511 0.0
C1599 C 0.60345 0.40283 0.09993 0.0
C1600 C 0.61304 0.42496 0.1044 0.0
H1601 H 0.65801 0.3728 0.02532 0.0
H1602 H 0.64046 0.39048 0.04441 0.0
C1603 C 0.60085 0.43802 0.11379 0.0
C1604 C 0.61502 0.39019 0.08912 0.0
H1605 H 0.66916 0.36703 0.07835 0.0
C1606 C 0.60084 0.38626 0.07829 0.0
C1607 C 0.63979 0.38258 0.08928 0.0
C1608 C 0.65554 0.3849 0.10087 0.0
C1609 C 0.61089 0.37551 0.0675 0.0
C1610 C 0.63599 0.36908 0.06743 0.0
C1611 C 0.65002 0.37233 0.07837 0.0
C1612 C 0.64792 0.35894 0.05606 0.0
C1613 C 0.59444 0.37094 0.05633 0.0
C1614 C 0.65884 0.33575 0.05641 0.0
C1615 C 0.66915 0.32573 0.04554 0.0
C1616 C 0.66871 0.33876 0.03416 0.0
C1617 C 0.65842 0.36226 0.03393 0.0
C1618 C 0.64826 0.37231 0.04481 0.0
H1619 H 0.57484 0.37023 0.05913 0.0
H1620 H 0.59663 0.38605 0.04948 0.0
H1621 H 0.59923 0.35354 0.05156 0.0
H1622 H 0.65891 0.3252 0.06502 0.0
H1623 H 0.677 0.30759 0.046 0.0
loop_
_geom_bond_atom_site_label_1
_geom_bond_atom_site_label_2
_geom_bond_distance
_geom_bond_site_symmetry_2
_ccdc_geom_bond_type
C0 C1 1.384 . S
C0 C2 1.384 . S
C0 H28 0.931 . S
C1 C0 1.384 . S
C1 C4 1.382 . S
C2 C0 1.384 . S
C2 C3 1.381 . S
C2 H29 0.930 . S
C3 C2 1.381 . S
C3 C5 1.381 . S
C3 C6 1.487 . S
C4 C1 1.382 . S
C4 C5 1.387 . S
C4 H30 0.930 . S
C5 C3 1.381 . S
C5 C4 1.387 . S
C5 H31 0.931 1_565 S
C6 C3 1.487 . S
C6 C13 1.399 . S
C6 N44 1.343 1_565 S
C7 C8 1.384 . S
C7 C9 1.384 . S
C7 H32 0.931 . S
C8 C7 1.384 . S
C8 C11 1.382 . S
C9 C7 1.384 . S
C9 C10 1.381 . S
C9 H33 0.930 . S
C10 C9 1.381 . S
C10 C12 1.381 . S
C10 C13 1.487 . S
C11 C8 1.382 . S
C11 C12 1.387 . S
C11 H34 0.930 . S
C12 C10 1.381 . S
C12 C11 1.387 . S
C12 H35 0.931 . S
C13 C6 1.399 . S
C13 C10 1.487 . S
C13 N45 1.358 1_455 S
C14 C15 1.384 . S
C14 C16 1.384 . S
C14 H36 0.931 . S
C15 C14 1.384 . S
C15 C18 1.382 . S
C16 C14 1.384 . S
C16 C17 1.381 . S
C16 H37 0.930 . S
C17 C16 1.381 . S
C17 C19 1.381 . S
C17 C20 1.487 . S
C18 C15 1.382 . S
C18 C19 1.387 . S
C18 H38 0.930 . S
C19 C17 1.381 . S
C19 C18 1.387 . S
C19 H39 0.931 1_545 S
C20 C17 1.487 . S
C20 C27 1.399 . S
C20 N45 1.326 1_545 S
C21 C22 1.384 . S
C21 C23 1.384 . S
C21 H40 0.931 . S
C22 C21 1.384 . S
C22 C25 1.382 . S
C23 C21 1.384 . S
C23 C24 1.381 . S
C23 H41 0.930 . S
C24 C23 1.381 . S
C24 C26 1.381 . S
C24 C27 1.487 . S
C25 C22 1.382 . S
C25 C26 1.387 . S
C25 H42 0.930 . S
C26 C24 1.381 . S
C26 C25 1.387 . S
C26 H43 0.931 . S
C27 C20 1.399 . S
C27 C24 1.487 . S
C27 N44 1.343 1_655 S
H28 C0 0.931 . S
H29 C2 0.930 . S
H30 C4 0.930 . S
H31 C5 0.931 1_545 S
H32 C7 0.931 . S
H33 C9 0.930 . S
H34 C11 0.930 . S
H35 C12 0.931 . S
H36 C14 0.931 . S
H37 C16 0.930 . S
H38 C18 0.930 . S
H39 C19 0.931 1_565 S
H40 C21 0.931 . S
H41 C23 0.930 . S
H42 C25 0.930 . S
H43 C26 0.931 . S
N44 C6 1.343 1_545 S
N44 C27 1.343 1_455 S
N45 C13 1.358 1_655 S
N45 C20 1.326 1_565 S
C46 C47 1.384 . S
C46 C48 1.384 . S
C46 H74 0.931 . S
C47 C46 1.384 . S
C47 C50 1.382 . S
C48 C46 1.384 . S
C48 C49 1.381 . S
C48 H75 0.930 . S
C49 C48 1.381 . S
C49 C51 1.381 . S
C49 C52 1.487 . S
C50 C47 1.382 . S
C50 C51 1.387 . S
C50 H76 0.930 . S
C51 C49 1.381 . S
C51 C50 1.387 . S
C51 H77 0.931 1_655 S
C52 C49 1.487 . S
C52 C59 1.399 . S
C52 N90 1.343 1_655 S
C53 C54 1.384 . S
C53 C55 1.384 . S
C53 H78 0.931 . S
C54 C53 1.384 . S
C54 C57 1.382 . S
C55 C53 1.384 . S
C55 C56 1.381 . S
C55 H79 0.930 . S
C56 C55 1.381 . S
C56 C58 1.381 . S
C56 C59 1.487 . S
C57 C54 1.382 . S
C57 C58 1.387 . S
C57 H80 0.930 . S
C58 C56 1.381 . S
C58 C57 1.387 . S
C58 H81 0.931 . S
C59 C52 1.399 . S
C59 C56 1.487 . S
C59 N91 1.366 . S
C60 C61 1.384 . S
C60 C62 1.384 . S
C60 H82 0.931 . S
C61 C60 1.384 . S
C61 C64 1.382 . S
C62 C60 1.384 . S
C62 C63 1.381 . S
C62 H83 0.930 . S
C63 C62 1.381 . S
C63 C65 1.381 . S
C63 C66 1.487 . S
C64 C61 1.382 . S
C64 C65 1.387 . S
C64 H84 0.930 . S
C65 C63 1.381 . S
C65 C64 1.387 . S
C65 H85 0.931 1_455 S
C66 C63 1.487 . S
C66 C73 1.399 . S
C66 N91 1.317 1_455 S
C67 C68 1.384 . S
C67 C69 1.384 . S
C67 H86 0.931 . S
C68 C67 1.384 . S
C68 C71 1.382 . S
C69 C67 1.384 . S
C69 C70 1.381 . S
C69 H87 0.930 . S
C70 C69 1.381 . S
C70 C72 1.381 . S
C70 C73 1.487 . S
C71 C68 1.382 . S
C71 C72 1.387 . S
C71 H88 0.930 . S
C72 C70 1.381 . S
C72 C71 1.387 . S
C72 H89 0.931 . S
C73 C66 1.399 . S
C73 C70 1.487 . S
C73 N90 1.343 . S
H74 C46 0.931 . S
H75 C48 0.930 . S
H76 C50 0.930 . S
H77 C51 0.931 1_455 S
H78 C53 0.931 . S
H79 C55 0.930 . S
H80 C57 0.930 . S
H81 C58 0.931 . S
H82 C60 0.931 . S
H83 C62 0.930 . S
H84 C64 0.930 . S
H85 C65 0.931 1_655 S
H86 C67 0.931 . S
H87 C69 0.930 . S
H88 C71 0.930 . S
H89 C72 0.931 . S
N90 C52 1.343 1_455 S
N90 C73 1.343 . S
N91 C59 1.366 . S
N91 C66 1.317 1_655 S
C92 C93 1.384 . S
C92 C94 1.384 . S
C92 H120 0.931 . S
C93 C92 1.384 . S
C93 C96 1.382 . S
C94 C92 1.384 . S
C94 C95 1.381 . S
C94 H121 0.930 . S
C95 C94 1.381 . S
C95 C97 1.381 . S
C95 C98 1.487 . S
C96 C93 1.382 . S
C96 C97 1.387 . S
C96 H122 0.930 . S
C97 C95 1.381 . S
C97 C96 1.387 . S
C97 H123 0.931 . S
C98 C95 1.487 . S
C98 C105 1.399 . S
C98 N136 1.343 . S
C99 C100 1.384 . S
C99 C101 1.384 . S
C99 H124 0.931 . S
C100 C99 1.384 . S
C100 C103 1.382 . S
C101 C99 1.384 . S
C101 C102 1.381 . S
C101 H125 0.930 . S
C102 C101 1.381 . S
C102 C104 1.381 . S
C102 C105 1.487 . S
C103 C100 1.382 . S
C103 C104 1.387 . S
C103 H126 0.930 . S
C104 C102 1.381 . S
C104 C103 1.387 . S
C104 H127 0.931 . S
C105 C98 1.399 . S
C105 C102 1.487 . S
C105 N137 1.343 . S
C106 C107 1.384 . S
C106 C108 1.384 . S
C106 H128 0.931 . S
C107 C106 1.384 . S
C107 C110 1.382 . S
C108 C106 1.384 . S
C108 C109 1.381 . S
C108 H129 0.930 . S
C109 C108 1.381 . S
C109 C111 1.381 . S
C109 C112 1.487 . S
C110 C107 1.382 . S
C110 C111 1.387 . S
C110 H130 0.930 . S
C111 C109 1.381 . S
C111 C110 1.387 . S
C111 H131 0.931 . S
C112 C109 1.487 . S
C112 C119 1.399 . S
C112 N137 1.343 . S
C113 C114 1.384 . S
C113 C115 1.384 . S
C113 H132 0.931 . S
C114 C113 1.384 . S
C114 C117 1.382 . S
C115 C113 1.384 . S
C115 C116 1.381 . S
C115 H133 0.930 . S
C116 C115 1.381 . S
C116 C118 1.381 . S
C116 C119 1.487 . S
C117 C114 1.382 . S
C117 C118 1.387 . S
C117 H134 0.930 . S
C118 C116 1.381 . S
C118 C117 1.387 . S
C118 H135 0.931 . S
C119 C112 1.399 . S
C119 C116 1.487 . S
C119 N136 1.343 . S
H120 C92 0.931 . S
H121 C94 0.930 . S
H122 C96 0.930 . S
H123 C97 0.931 . S
H124 C99 0.931 . S
H125 C101 0.930 . S
H126 C103 0.930 . S
H127 C104 0.931 . S
H128 C106 0.931 . S
H129 C108 0.930 . S
H130 C110 0.930 . S
H131 C111 0.931 . S
H132 C113 0.931 . S
H133 C115 0.930 . S
H134 C117 0.930 . S
H135 C118 0.931 . S
N136 C98 1.343 . S
N136 C119 1.343 . S
N137 C105 1.343 . S
N137 C112 1.343 . S
C138 C139 1.384 . S
C138 C140 1.384 . S
C138 H166 0.931 . S
C139 C138 1.384 . S
C139 C142 1.382 . S
C140 C138 1.384 . S
C140 C141 1.381 . S
C140 H167 0.930 . S
C141 C140 1.381 . S
C141 C143 1.381 . S
C141 C144 1.487 . S
C142 C139 1.382 . S
C142 C143 1.387 . S
C142 H168 0.930 . S
C143 C141 1.381 . S
C143 C142 1.387 . S
C143 H169 0.931 . S
C144 C141 1.487 . S
C144 C151 1.399 . S
C144 N182 1.343 1_565 S
C145 C146 1.384 . S
C145 C147 1.384 . S
C145 H170 0.931 . S
C146 C145 1.384 . S
C146 C149 1.382 . S
C147 C145 1.384 . S
C147 C148 1.381 . S
C147 H171 0.930 . S
C148 C147 1.381 . S
C148 C150 1.381 . S
C148 C151 1.487 . S
C149 C146 1.382 . S
C149 C150 1.387 . S
C149 H172 0.930 . S
C150 C148 1.381 . S
C150 C149 1.387 . S
C150 H173 0.931 . S
C151 C144 1.399 . S
C151 C148 1.487 . S
C151 N183 1.337 1_565 S
C152 C153 1.384 . S
C152 C154 1.384 . S
C152 H174 0.931 . S
C153 C152 1.384 . S
C153 C156 1.382 . S
C154 C152 1.384 . S
C154 C155 1.381 . S
C154 H175 0.930 . S
C155 C154 1.381 . S
C155 C157 1.381 . S
C155 C158 1.487 . S
C156 C153 1.382 . S
C156 C157 1.387 . S
C156 H176 0.930 . S
C157 C155 1.381 . S
C157 C156 1.387 . S
C157 H177 0.931 . S
C158 C155 1.487 . S
C158 C165 1.399 . S
C158 N183 1.349 . S
C159 C160 1.384 . S
C159 C161 1.384 . S
C159 H178 0.931 . S
C160 C159 1.384 . S
C160 C163 1.382 . S
C161 C159 1.384 . S
C161 C162 1.381 . S
C161 H179 0.930 . S
C162 C161 1.381 . S
C162 C164 1.381 . S
C162 C165 1.487 . S
C163 C160 1.382 . S
C163 C164 1.387 . S
C163 H180 0.930 . S
C164 C162 1.381 . S
C164 C163 1.387 . S
C164 H181 0.931 . S
C165 C158 1.399 . S
C165 C162 1.487 . S
C165 N182 1.343 . S
H166 C138 0.931 . S
H167 C140 0.930 . S
H168 C142 0.930 . S
H169 C143 0.931 . S
H170 C145 0.931 . S
H171 C147 0.930 . S
H172 C149 0.930 . S
H173 C150 0.931 . S
H174 C152 0.931 . S
H175 C154 0.930 . S
H176 C156 0.930 . S
H177 C157 0.931 . S
H178 C159 0.931 . S
H179 C161 0.930 . S
H180 C163 0.930 . S
H181 C164 0.931 . S
N182 C144 1.343 1_545 S
N182 C165 1.343 . S
N183 C151 1.337 1_545 S
N183 C158 1.349 . S
C184 C185 1.384 . S
C184 C186 1.384 . S
C184 H212 0.931 . S
C185 C184 1.384 . S
C185 C188 1.382 . S
C186 C184 1.384 . S
C186 C187 1.381 . S
C186 H213 0.930 . S
C187 C186 1.381 . S
C187 C189 1.381 . S
C187 C190 1.487 . S
C188 C185 1.382 . S
C188 C189 1.387 . S
C188 H214 0.930 . S
C189 C187 1.381 . S
C189 C188 1.387 . S
C189 H215 0.931 . S
C190 C187 1.487 . S
C190 C197 1.399 . S
C190 N228 1.343 . S
C191 C192 1.384 . S
C191 C193 1.384 . S
C191 H216 0.931 . S
C192 C191 1.384 . S
C192 C195 1.382 . S
C193 C191 1.384 . S
C193 C194 1.381 . S
C193 H217 0.930 . S
C194 C193 1.381 . S
C194 C196 1.381 . S
C194 C197 1.487 . S
C195 C192 1.382 . S
C195 C196 1.387 . S
C195 H218 0.930 . S
C196 C194 1.381 . S
C196 C195 1.387 . S
C196 H219 0.931 . S
C197 C190 1.399 . S
C197 C194 1.487 . S
C197 N229 1.320 1_455 S
C198 C199 1.384 . S
C198 C200 1.384 . S
C198 H220 0.931 . S
C199 C198 1.384 . S
C199 C202 1.382 . S
C200 C198 1.384 . S
C200 C201 1.381 . S
C200 H221 0.930 . S
C201 C200 1.381 . S
C201 C203 1.381 . S
C201 C204 1.487 . S
C202 C199 1.382 . S
C202 C203 1.387 . S
C202 H222 0.930 . S
C203 C201 1.381 . S
C203 C202 1.387 . S
C203 H223 0.931 . S
C204 C201 1.487 . S
C204 C211 1.399 . S
C204 N229 1.364 . S
C205 C206 1.384 . S
C205 C207 1.384 . S
C205 H224 0.931 . S
C206 C205 1.384 . S
C206 C209 1.382 . S
C207 C205 1.384 . S
C207 C208 1.381 . S
C207 H225 0.930 . S
C208 C207 1.381 . S
C208 C210 1.381 . S
C208 C211 1.487 . S
C209 C206 1.382 . S
C209 C210 1.387 . S
C209 H226 0.930 . S
C210 C208 1.381 . S
C210 C209 1.387 . S
C210 H227 0.931 . S
C211 C204 1.399 . S
C211 C208 1.487 . S
C211 N228 1.343 1_655 S
H212 C184 0.931 . S
H213 C186 0.930 . S
H214 C188 0.930 . S
H215 C189 0.931 . S
H216 C191 0.931 . S
H217 C193 0.930 . S
H218 C195 0.930 . S
H219 C196 0.931 . S
H220 C198 0.931 . S
H221 C200 0.930 . S
H222 C202 0.930 . S
H223 C203 0.931 . S
H224 C205 0.931 . S
H225 C207 0.930 . S
H226 C209 0.930 . S
H227 C210 0.931 . S
N228 C190 1.343 . S
N228 C211 1.343 1_455 S
N229 C197 1.320 1_655 S
N229 C204 1.364 . S
C230 C231 1.384 . S
C230 C232 1.384 . S
C230 H258 0.931 . S
C231 C230 1.384 . S
C231 C234 1.382 . S
C232 C230 1.384 . S
C232 C233 1.381 . S
C232 H259 0.930 . S
C233 C232 1.381 . S
C233 C235 1.381 . S
C233 C236 1.487 . S
C234 C231 1.382 . S
C234 C235 1.387 . S
C234 H260 0.930 . S
C235 C233 1.381 . S
C235 C234 1.387 . S
C235 H261 0.931 . S
C236 C233 1.487 . S
C236 C243 1.399 . S
C236 N274 1.343 . S
C237 C238 1.384 . S
C237 C239 1.384 . S
C237 H262 0.931 . S
C238 C237 1.384 . S
C238 C241 1.382 . S
C239 C237 1.384 . S
C239 C240 1.381 . S
C239 H263 0.930 . S
C240 C239 1.381 . S
C240 C242 1.381 . S
C240 C243 1.487 . S
C241 C238 1.382 . S
C241 C242 1.387 . S
C241 H264 0.930 . S
C242 C240 1.381 . S
C242 C241 1.387 . S
C242 H265 0.931 . S
C243 C236 1.399 . S
C243 C240 1.487 . S
C243 N275 1.343 . S
C244 C245 1.384 . S
C244 C246 1.384 . S
C244 H266 0.931 . S
C245 C244 1.384 . S
C245 C248 1.382 . S
C246 C244 1.384 . S
C246 C247 1.381 . S
C246 H267 0.930 . S
C247 C246 1.381 . S
C247 C249 1.381 . S
C247 C250 1.487 . S
C248 C245 1.382 . S
C248 C249 1.387 . S
C248 H268 0.930 . S
C249 C247 1.381 . S
C249 C248 1.387 . S
C249 H269 0.931 . S
C250 C247 1.487 . S
C250 C257 1.399 . S
C250 N275 1.343 . S
C251 C252 1.384 . S
C251 C253 1.384 . S
C251 H270 0.931 . S
C252 C251 1.384 . S
C252 C255 1.382 . S
C253 C251 1.384 . S
C253 C254 1.381 . S
C253 H271 0.930 . S
C254 C253 1.381 . S
C254 C256 1.381 . S
C254 C257 1.487 . S
C255 C252 1.382 . S
C255 C256 1.387 . S
C255 H272 0.930 . S
C256 C254 1.381 . S
C256 C255 1.387 . S
C256 H273 0.931 . S
C257 C250 1.399 . S
C257 C254 1.487 . S
C257 N274 1.343 . S
H258 C230 0.931 . S
H259 C232 0.930 . S
H260 C234 0.930 . S
H261 C235 0.931 . S
H262 C237 0.931 . S
H263 C239 0.930 . S
H264 C241 0.930 . S
H265 C242 0.931 . S
H266 C244 0.931 . S
H267 C246 0.930 . S
H268 C248 0.930 . S
H269 C249 0.931 . S
H270 C251 0.931 . S
H271 C253 0.930 . S
H272 C255 0.930 . S
H273 C256 0.931 . S
N274 C236 1.343 . S
N274 C257 1.343 . S
N275 C243 1.343 . S
N275 C250 1.343 . S
C276 C277 1.384 . S
C276 C278 1.384 . S
C276 H304 0.931 . S
C277 C276 1.384 . S
C277 C280 1.382 . S
C278 C276 1.384 . S
C278 C279 1.381 . S
C278 H305 0.930 . S
C279 C278 1.381 . S
C279 C281 1.381 . S
C279 C282 1.487 . S
C280 C277 1.382 . S
C280 C281 1.387 . S
C280 H306 0.930 . S
C281 C279 1.381 . S
C281 C280 1.387 . S
C281 H307 0.931 1_565 S
C282 C279 1.487 . S
C282 C289 1.399 . S
C282 N320 1.343 1_565 S
C283 C284 1.384 . S
C283 C285 1.384 . S
C283 H308 0.931 . S
C284 C283 1.384 . S
C284 C287 1.382 . S
C285 C283 1.384 . S
C285 C286 1.381 . S
C285 H309 0.930 . S
C286 C285 1.381 . S
C286 C288 1.381 . S
C286 C289 1.487 . S
C287 C284 1.382 . S
C287 C288 1.387 . S
C287 H310 0.930 . S
C288 C286 1.381 . S
C288 C287 1.387 . S
C288 H311 0.931 . S
C289 C282 1.399 . S
C289 C286 1.487 . S
C289 N321 1.353 . S
C290 C291 1.384 . S
C290 C292 1.384 . S
C290 H312 0.931 . S
C291 C290 1.384 . S
C291 C294 1.382 . S
C292 C290 1.384 . S
C292 C293 1.381 . S
C292 H313 0.930 . S
C293 C292 1.381 . S
C293 C295 1.381 . S
C293 C296 1.487 . S
C294 C291 1.382 . S
C294 C295 1.387 . S
C294 H314 0.930 . S
C295 C293 1.381 . S
C295 C294 1.387 . S
C295 H315 0.931 1_545 S
C296 C293 1.487 . S
C296 C303 1.399 . S
C296 N321 1.332 1_545 S
C297 C298 1.384 . S
C297 C299 1.384 . S
C297 H316 0.931 . S
C298 C297 1.384 . S
C298 C301 1.382 . S
C299 C297 1.384 . S
C299 C300 1.381 . S
C299 H317 0.930 . S
C300 C299 1.381 . S
C300 C302 1.381 . S
C300 C303 1.487 . S
C301 C298 1.382 . S
C301 C302 1.387 . S
C301 H318 0.930 . S
C302 C300 1.381 . S
C302 C301 1.387 . S
C302 H319 0.931 . S
C303 C296 1.399 . S
C303 C300 1.487 . S
C303 N320 1.343 . S
H304 C276 0.931 . S
H305 C278 0.930 . S
H306 C280 0.930 . S
H307 C281 0.931 1_545 S
H308 C283 0.931 . S
H309 C285 0.930 . S
H310 C287 0.930 . S
H311 C288 0.931 . S
H312 C290 0.931 . S
H313 C292 0.930 . S
H314 C294 0.930 . S
H315 C295 0.931 1_565 S
H316 C297 0.931 . S
H317 C299 0.930 . S
H318 C301 0.930 . S
H319 C302 0.931 . S
N320 C282 1.343 1_545 S
N320 C303 1.343 . S
N321 C289 1.353 . S
N321 C296 1.332 1_565 S
C322 C323 1.384 . S
C322 C324 1.384 . S
C322 H350 0.931 . S
C323 C322 1.384 . S
C323 C326 1.382 . S
C324 C322 1.384 . S
C324 C325 1.381 . S
C324 H351 0.930 . S
C325 C324 1.381 . S
C325 C327 1.381 . S
C325 C328 1.487 . S
C326 C323 1.382 . S
C326 C327 1.387 . S
C326 H352 0.930 . S
C327 C325 1.381 . S
C327 C326 1.387 . S
C327 H353 0.931 1_455 S
C328 C325 1.487 . S
C328 C335 1.399 . S
C328 N366 1.368 1_455 S
C329 C330 1.384 . S
C329 C331 1.384 . S
C329 H354 0.931 . S
C330 C329 1.384 . S
C330 C333 1.382 . S
C331 C329 1.384 . S
C331 C332 1.381 . S
C331 H355 0.930 . S
C332 C331 1.381 . S
C332 C334 1.381 . S
C332 C335 1.487 . S
C333 C330 1.382 . S
C333 C334 1.387 . S
C333 H356 0.930 . S
C334 C332 1.381 . S
C334 C333 1.387 . S
C334 H357 0.931 . S
C335 C328 1.399 . S
C335 C332 1.487 . S
C335 N367 1.343 1_565 S
C336 C337 1.384 . S
C336 C338 1.384 . S
C336 H358 0.931 . S
C337 C336 1.384 . S
C337 C340 1.382 . S
C338 C336 1.384 . S
C338 C339 1.381 . S
C338 H359 0.930 . S
C339 C338 1.381 . S
C339 C341 1.381 . S
C339 C342 1.487 . S
C340 C337 1.382 . S
C340 C341 1.387 . S
C340 H360 0.930 . S
C341 C339 1.381 . S
C341 C340 1.387 . S
C341 H361 0.931 1_655 S
C342 C339 1.487 . S
C342 C349 1.399 . S
C342 N367 1.343 1_655 S
C343 C344 1.384 . S
C343 C345 1.384 . S
C343 H362 0.931 . S
C344 C343 1.384 . S
C344 C347 1.382 . S
C345 C343 1.384 . S
C345 C346 1.381 . S
C345 H363 0.930 . S
C346 C345 1.381 . S
C346 C348 1.381 . S
C346 C349 1.487 . S
C347 C344 1.382 . S
C347 C348 1.387 . S
C347 H364 0.930 . S
C348 C346 1.381 . S
C348 C347 1.387 . S
C348 H365 0.931 . S
C349 C342 1.399 . S
C349 C346 1.487 . S
C349 N366 1.315 1_545 S
H350 C322 0.931 . S
H351 C324 0.930 . S
H352 C326 0.930 . S
H353 C327 0.931 1_655 S
H354 C329 0.931 . S
H355 C331 0.930 . S
H356 C333 0.930 . S
H357 C334 0.931 . S
H358 C336 0.931 . S
H359 C338 0.930 . S
H360 C340 0.930 . S
H361 C341 0.931 1_455 S
H362 C343 0.931 . S
H363 C345 0.930 . S
H364 C347 0.930 . S
H365 C348 0.931 . S
N366 C328 1.368 1_655 S
N366 C349 1.315 1_565 S
N367 C335 1.343 1_545 S
N367 C342 1.343 1_455 S
In368 O369 2.294 . S
In368 O370 2.326 . S
In368 O374 2.266 1_554 S
In368 O375 2.326 1_554 S
In368 O376 2.266 1_554 S
In368 O377 2.326 1_554 S
In368 O379 2.294 . S
In368 O380 2.326 . S
O369 In368 2.294 . S
O369 C378 1.240 . S
O370 In368 2.326 . S
O370 C378 1.252 . S
C371 O374 1.252 . S
C371 O375 1.260 . S
C372 O379 1.240 . S
C372 O380 1.252 . S
C373 O376 1.252 . S
C373 O377 1.260 . S
O374 In368 2.266 1_556 S
O374 C371 1.252 . S
O375 In368 2.326 1_556 S
O375 C371 1.260 . S
O376 In368 2.266 1_556 S
O376 C373 1.252 . S
O377 In368 2.326 1_556 S
O377 C373 1.260 . S
C378 O369 1.240 . S
C378 O370 1.252 . S
O379 In368 2.294 . S
O379 C372 1.240 . S
O380 In368 2.326 . S
O380 C372 1.252 . S
In381 O382 2.294 . S
In381 O383 2.326 . S
In381 O387 2.266 . S
In381 O388 2.326 . S
In381 O389 2.266 . S
In381 O390 2.326 . S
In381 O392 2.294 . S
In381 O393 2.326 . S
O382 In381 2.294 . S
O382 C391 1.240 . S
O383 In381 2.326 . S
O383 C391 1.252 . S
C384 O387 1.252 . S
C384 O388 1.260 . S
C385 O392 1.240 . S
C385 O393 1.252 . S
C386 O389 1.252 . S
C386 O390 1.260 . S
O387 In381 2.266 . S
O387 C384 1.252 . S
O388 In381 2.326 . S
O388 C384 1.260 . S
O389 In381 2.266 . S
O389 C386 1.252 . S
O390 In381 2.326 . S
O390 C386 1.260 . S
C391 O382 1.240 . S
C391 O383 1.252 . S
O392 In381 2.294 . S
O392 C385 1.240 . S
O393 In381 2.326 . S
O393 C385 1.252 . S
In394 O395 2.294 . S
In394 O396 2.326 . S
In394 O400 2.266 . S
In394 O401 2.326 . S
In394 O402 2.266 . S
In394 O403 2.326 . S
In394 O405 2.294 . S
In394 O406 2.326 . S
O395 In394 2.294 . S
O395 C404 1.240 . S
O396 In394 2.326 . S
O396 C404 1.252 . S
C397 O400 1.252 . S
C397 O401 1.260 . S
C398 O405 1.240 . S
C398 O406 1.252 . S
C399 O402 1.252 . S
C399 O403 1.260 . S
O400 In394 2.266 . S
O400 C397 1.252 . S
O401 In394 2.326 . S
O401 C397 1.260 . S
O402 In394 2.266 . S
O402 C399 1.252 . S
O403 In394 2.326 . S
O403 C399 1.260 . S
C404 O395 1.240 . S
C404 O396 1.252 . S
O405 In394 2.294 . S
O405 C398 1.240 . S
O406 In394 2.326 . S
O406 C398 1.252 . S
In407 O408 2.294 . S
In407 O409 2.326 . S
In407 O413 2.266 . S
In407 O414 2.326 . S
In407 O415 2.266 . S
In407 O416 2.326 . S
In407 O418 2.294 . S
In407 O419 2.326 . S
O408 In407 2.294 . S
O408 C417 1.240 . S
O409 In407 2.326 . S
O409 C417 1.252 . S
C410 O413 1.252 . S
C410 O414 1.260 . S
C411 O418 1.240 . S
C411 O419 1.252 . S
C412 O415 1.252 . S
C412 O416 1.260 . S
O413 In407 2.266 . S
O413 C410 1.252 . S
O414 In407 2.326 . S
O414 C410 1.260 . S
O415 In407 2.266 . S
O415 C412 1.252 . S
O416 In407 2.326 . S
O416 C412 1.260 . S
C417 O408 1.240 . S
C417 O409 1.252 . S
O418 In407 2.294 . S
O418 C411 1.240 . S
O419 In407 2.326 . S
O419 C411 1.252 . S
In420 O421 2.294 . S
In420 O422 2.326 . S
In420 O426 2.266 . S
In420 O427 2.326 . S
In420 O428 2.266 . S
In420 O429 2.326 . S
In420 O431 2.294 . S
In420 O432 2.326 . S
O421 In420 2.294 . S
O421 C430 1.240 . S
O422 In420 2.326 . S
O422 C430 1.252 . S
C423 O426 1.252 . S
C423 O427 1.260 . S
C424 O431 1.240 . S
C424 O432 1.252 . S
C425 O428 1.252 . S
C425 O429 1.260 . S
O426 In420 2.266 . S
O426 C423 1.252 . S
O427 In420 2.326 . S
O427 C423 1.260 . S
O428 In420 2.266 . S
O428 C425 1.252 . S
O429 In420 2.326 . S
O429 C425 1.260 . S
C430 O421 1.240 . S
C430 O422 1.252 . S
O431 In420 2.294 . S
O431 C424 1.240 . S
O432 In420 2.326 . S
O432 C424 1.252 . S
In433 O434 2.294 . S
In433 O435 2.326 . S
In433 O439 2.266 . S
In433 O440 2.326 . S
In433 O441 2.266 . S
In433 O442 2.326 . S
In433 O444 2.294 . S
In433 O445 2.326 . S
O434 In433 2.294 . S
O434 C443 1.240 . S
O435 In433 2.326 . S
O435 C443 1.252 . S
C436 O439 1.252 . S
C436 O440 1.260 . S
C437 O444 1.240 . S
C437 O445 1.252 . S
C438 O441 1.252 . S
C438 O442 1.260 . S
O439 In433 2.266 . S
O439 C436 1.252 . S
O440 In433 2.326 . S
O440 C436 1.260 . S
O441 In433 2.266 . S
O441 C438 1.252 . S
O442 In433 2.326 . S
O442 C438 1.260 . S
C443 O434 1.240 . S
C443 O435 1.252 . S
O444 In433 2.294 . S
O444 C437 1.240 . S
O445 In433 2.326 . S
O445 C437 1.252 . S
In446 O447 2.294 . S
In446 O448 2.326 . S
In446 O452 2.266 1_554 S
In446 O453 2.326 1_554 S
In446 O454 2.266 1_554 S
In446 O455 2.326 1_554 S
In446 O457 2.294 . S
In446 O458 2.326 . S
O447 In446 2.294 . S
O447 C456 1.240 . S
O448 In446 2.326 . S
O448 C456 1.252 . S
C449 O452 1.252 . S
C449 O453 1.260 . S
C450 O457 1.240 . S
C450 O458 1.252 . S
C451 O454 1.252 . S
C451 O455 1.260 . S
O452 In446 2.266 1_556 S
O452 C449 1.252 . S
O453 In446 2.326 1_556 S
O453 C449 1.260 . S
O454 In446 2.266 1_556 S
O454 C451 1.252 . S
O455 In446 2.326 1_556 S
O455 C451 1.260 . S
C456 O447 1.240 . S
C456 O448 1.252 . S
O457 In446 2.294 . S
O457 C450 1.240 . S
O458 In446 2.326 . S
O458 C450 1.252 . S
In459 O460 2.294 . S
In459 O461 2.326 . S
In459 O465 2.266 . S
In459 O466 2.326 . S
In459 O467 2.266 . S
In459 O468 2.326 . S
In459 O470 2.294 . S
In459 O471 2.326 . S
O460 In459 2.294 . S
O460 C469 1.240 . S
O461 In459 2.326 . S
O461 C469 1.252 . S
C462 O465 1.252 . S
C462 O466 1.260 . S
C463 O470 1.240 . S
C463 O471 1.252 . S
C464 O467 1.252 . S
C464 O468 1.260 . S
O465 In459 2.266 . S
O465 C462 1.252 . S
O466 In459 2.326 . S
O466 C462 1.260 . S
O467 In459 2.266 . S
O467 C464 1.252 . S
O468 In459 2.326 . S
O468 C464 1.260 . S
C469 O460 1.240 . S
C469 O461 1.252 . S
O470 In459 2.294 . S
O470 C463 1.240 . S
O471 In459 2.326 . S
O471 C463 1.252 . S
H472 C480 0.929 . S
H473 C482 0.930 . S
H474 C484 0.930 . S
H475 C487 0.929 . S
H476 C490 0.930 . S
H477 C492 0.960 . S
H478 C492 0.960 . S
H479 C492 0.960 . S
C480 H472 0.929 . S
C480 C481 1.377 . S
C480 C482 1.384 . S
C481 C480 1.377 . S
C481 C487 1.390 . S
C482 H473 0.930 . S
C482 C480 1.384 . S
C482 C483 1.372 . S
C483 C482 1.372 . S
C483 C484 1.400 . S
C483 C488 1.490 . S
C484 H474 0.930 . S
C484 C483 1.400 . S
C484 C487 1.386 . S
H485 C501 0.930 . S
H486 C502 0.931 . S
C487 H475 0.929 . S
C487 C481 1.390 . S
C487 C484 1.386 . S
C488 C483 1.490 . S
C488 C490 1.395 . S
C488 C491 1.403 . S
H489 C495 0.930 . S
C490 H476 0.930 . S
C490 C488 1.395 . S
C490 C493 1.403 . S
C491 C488 1.403 . S
C491 C492 1.524 . S
C491 C495 1.400 . S
C492 H477 0.960 . S
C492 H478 0.960 . S
C492 H479 0.960 . S
C492 C491 1.524 . S
C493 C490 1.403 . S
C493 C494 1.392 . S
C493 C497 1.495 . S
C494 C493 1.392 . S
C494 C495 1.385 . S
C494 C496 1.478 . S
C495 H489 0.930 . S
C495 C491 1.400 . S
C495 C494 1.385 . S
C496 C494 1.478 . S
C496 C498 1.381 . S
C496 C502 1.383 . S
C497 C493 1.495 . S
C497 H503 0.959 . S
C497 H504 0.961 . S
C497 H505 0.960 . S
C498 C496 1.381 . S
C498 C499 1.394 . S
C498 H506 0.930 . S
C499 C498 1.394 . S
C499 C500 1.383 . S
C499 H507 0.929 . S
C500 C499 1.383 . S
C500 C501 1.377 . S
C501 H485 0.930 . S
C501 C500 1.377 . S
C501 C502 1.379 . S
C502 H486 0.931 . S
C502 C496 1.383 . S
C502 C501 1.379 . S
H503 C497 0.959 . S
H504 C497 0.961 . S
H505 C497 0.960 . S
H506 C498 0.930 . S
H507 C499 0.929 . S
H508 C516 0.929 . S
H509 C518 0.930 . S
H510 C520 0.930 . S
H511 C523 0.929 . S
H512 C526 0.930 . S
H513 C528 0.960 . S
H514 C528 0.960 . S
H515 C528 0.960 . S
C516 H508 0.929 . S
C516 C517 1.377 . S
C516 C518 1.384 . S
C517 C516 1.377 . S
C517 C523 1.390 . S
C518 H509 0.930 . S
C518 C516 1.384 . S
C518 C519 1.372 . S
C519 C518 1.372 . S
C519 C520 1.400 . S
C519 C524 1.490 . S
C520 H510 0.930 . S
C520 C519 1.400 . S
C520 C523 1.386 . S
H521 C537 0.930 . S
H522 C538 0.931 . S
C523 H511 0.929 . S
C523 C517 1.390 . S
C523 C520 1.386 . S
C524 C519 1.490 . S
C524 C526 1.395 . S
C524 C527 1.403 . S
H525 C531 0.930 . S
C526 H512 0.930 . S
C526 C524 1.395 . S
C526 C529 1.403 . S
C527 C524 1.403 . S
C527 C528 1.524 . S
C527 C531 1.400 . S
C528 H513 0.960 . S
C528 H514 0.960 . S
C528 H515 0.960 . S
C528 C527 1.524 . S
C529 C526 1.403 . S
C529 C530 1.392 . S
C529 C533 1.495 . S
C530 C529 1.392 . S
C530 C531 1.385 . S
C530 C532 1.478 . S
C531 H525 0.930 . S
C531 C527 1.400 . S
C531 C530 1.385 . S
C532 C530 1.478 . S
C532 C534 1.381 . S
C532 C538 1.383 . S
C533 C529 1.495 . S
C533 H539 0.959 . S
C533 H540 0.961 . S
C533 H541 0.960 . S
C534 C532 1.381 . S
C534 C535 1.394 . S
C534 H542 0.930 . S
C535 C534 1.394 . S
C535 C536 1.383 . S
C535 H543 0.929 . S
C536 C535 1.383 . S
C536 C537 1.377 . S
C537 H521 0.930 . S
C537 C536 1.377 . S
C537 C538 1.379 . S
C538 H522 0.931 . S
C538 C532 1.383 . S
C538 C537 1.379 . S
H539 C533 0.959 . S
H540 C533 0.961 . S
H541 C533 0.960 . S
H542 C534 0.930 . S
H543 C535 0.929 . S
H544 C552 0.929 . S
H545 C554 0.930 . S
H546 C556 0.930 . S
H547 C559 0.929 . S
H548 C562 0.930 . S
H549 C564 0.960 . S
H550 C564 0.960 . S
H551 C564 0.960 . S
C552 H544 0.929 . S
C552 C553 1.377 . S
C552 C554 1.384 . S
C553 C552 1.377 . S
C553 C559 1.390 . S
C554 H545 0.930 . S
C554 C552 1.384 . S
C554 C555 1.372 . S
C555 C554 1.372 . S
C555 C556 1.400 . S
C555 C560 1.490 . S
C556 H546 0.930 . S
C556 C555 1.400 . S
C556 C559 1.386 . S
H557 C573 0.930 . S
H558 C574 0.931 . S
C559 H547 0.929 . S
C559 C553 1.390 . S
C559 C556 1.386 . S
C560 C555 1.490 . S
C560 C562 1.395 . S
C560 C563 1.403 . S
H561 C567 0.930 . S
C562 H548 0.930 . S
C562 C560 1.395 . S
C562 C565 1.403 . S
C563 C560 1.403 . S
C563 C564 1.524 . S
C563 C567 1.400 . S
C564 H549 0.960 . S
C564 H550 0.960 . S
C564 H551 0.960 . S
C564 C563 1.524 . S
C565 C562 1.403 . S
C565 C566 1.392 . S
C565 C569 1.495 . S
C566 C565 1.392 . S
C566 C567 1.385 . S
C566 C568 1.478 . S
C567 H561 0.930 . S
C567 C563 1.400 . S
C567 C566 1.385 . S
C568 C566 1.478 . S
C568 C570 1.381 . S
C568 C574 1.383 . S
C569 C565 1.495 . S
C569 H575 0.959 . S
C569 H576 0.961 . S
C569 H577 0.960 . S
C570 C568 1.381 . S
C570 C571 1.394 . S
C570 H578 0.930 . S
C571 C570 1.394 . S
C571 C572 1.383 . S
C571 H579 0.929 . S
C572 C571 1.383 . S
C572 C573 1.377 . S
C573 H557 0.930 . S
C573 C572 1.377 . S
C573 C574 1.379 . S
C574 H558 0.931 . S
C574 C568 1.383 . S
C574 C573 1.379 . S
H575 C569 0.959 . S
H576 C569 0.961 . S
H577 C569 0.960 . S
H578 C570 0.930 . S
H579 C571 0.929 . S
H580 C588 0.929 . S
H581 C590 0.930 . S
H582 C592 0.930 . S
H583 C595 0.929 . S
H584 C598 0.930 . S
H585 C600 0.960 . S
H586 C600 0.960 . S
H587 C600 0.960 . S
C588 H580 0.929 . S
C588 C589 1.377 . S
C588 C590 1.384 . S
C589 C588 1.377 . S
C589 C595 1.390 . S
C590 H581 0.930 . S
C590 C588 1.384 . S
C590 C591 1.372 . S
C591 C590 1.372 . S
C591 C592 1.400 . S
C591 C596 1.490 . S
C592 H582 0.930 . S
C592 C591 1.400 . S
C592 C595 1.386 . S
H593 C609 0.930 . S
H594 C610 0.931 . S
C595 H583 0.929 . S
C595 C589 1.390 . S
C595 C592 1.386 . S
C596 C591 1.490 . S
C596 C598 1.395 . S
C596 C599 1.403 . S
H597 C603 0.930 . S
C598 H584 0.930 . S
C598 C596 1.395 . S
C598 C601 1.403 . S
C599 C596 1.403 . S
C599 C600 1.524 . S
C599 C603 1.400 . S
C600 H585 0.960 . S
C600 H586 0.960 . S
C600 H587 0.960 . S
C600 C599 1.524 . S
C601 C598 1.403 . S
C601 C602 1.392 . S
C601 C605 1.495 . S
C602 C601 1.392 . S
C602 C603 1.385 . S
C602 C604 1.478 . S
C603 H597 0.930 . S
C603 C599 1.400 . S
C603 C602 1.385 . S
C604 C602 1.478 . S
C604 C606 1.381 . S
C604 C610 1.383 . S
C605 C601 1.495 . S
C605 H611 0.959 . S
C605 H612 0.961 . S
C605 H613 0.960 . S
C606 C604 1.381 . S
C606 C607 1.394 . S
C606 H614 0.930 . S
C607 C606 1.394 . S
C607 C608 1.383 . S
C607 H615 0.929 . S
C608 C607 1.383 . S
C608 C609 1.377 . S
C609 H593 0.930 . S
C609 C608 1.377 . S
C609 C610 1.379 . S
C610 H594 0.931 . S
C610 C604 1.383 . S
C610 C609 1.379 . S
H611 C605 0.959 . S
H612 C605 0.961 . S
H613 C605 0.960 . S
H614 C606 0.930 . S
H615 C607 0.929 . S
H616 C624 0.929 . S
H617 C626 0.930 . S
H618 C628 0.930 . S
H619 C631 0.929 . S
H620 C634 0.930 . S
H621 C636 0.960 . S
H622 C636 0.960 . S
H623 C636 0.960 . S
C624 H616 0.929 . S
C624 C625 1.377 . S
C624 C626 1.384 . S
C625 C624 1.377 . S
C625 C631 1.390 . S
C626 H617 0.930 . S
C626 C624 1.384 . S
C626 C627 1.372 . S
C627 C626 1.372 . S
C627 C628 1.400 . S
C627 C632 1.490 . S
C628 H618 0.930 . S
C628 C627 1.400 . S
C628 C631 1.386 . S
H629 C645 0.930 . S
H630 C646 0.931 . S
C631 H619 0.929 . S
C631 C625 1.390 . S
C631 C628 1.386 . S
C632 C627 1.490 . S
C632 C634 1.395 . S
C632 C635 1.403 . S
H633 C639 0.930 . S
C634 H620 0.930 . S
C634 C632 1.395 . S
C634 C637 1.403 . S
C635 C632 1.403 . S
C635 C636 1.524 . S
C635 C639 1.400 . S
C636 H621 0.960 . S
C636 H622 0.960 . S
C636 H623 0.960 . S
C636 C635 1.524 . S
C637 C634 1.403 . S
C637 C638 1.392 . S
C637 C641 1.495 . S
C638 C637 1.392 . S
C638 C639 1.385 . S
C638 C640 1.478 . S
C639 H633 0.930 . S
C639 C635 1.400 . S
C639 C638 1.385 . S
C640 C638 1.478 . S
C640 C642 1.381 . S
C640 C646 1.383 . S
C641 C637 1.495 . S
C641 H647 0.959 . S
C641 H648 0.961 1_556 S
C641 H649 0.960 . S
C642 C640 1.381 . S
C642 C643 1.394 . S
C642 H650 0.930 . S
C643 C642 1.394 . S
C643 C644 1.383 . S
C643 H651 0.929 . S
C644 C643 1.383 . S
C644 C645 1.377 . S
C645 H629 0.930 . S
C645 C644 1.377 . S
C645 C646 1.379 . S
C646 H630 0.931 . S
C646 C640 1.383 . S
C646 C645 1.379 . S
H647 C641 0.959 . S
H648 C641 0.961 1_554 S
H649 C641 0.960 . S
H650 C642 0.930 . S
H651 C643 0.929 . S
H652 C660 0.929 . S
H653 C662 0.930 . S
H654 C664 0.930 . S
H655 C667 0.929 . S
H656 C670 0.930 . S
H657 C672 0.960 . S
H658 C672 0.960 . S
H659 C672 0.960 . S
C660 H652 0.929 . S
C660 C661 1.377 . S
C660 C662 1.384 . S
C661 C660 1.377 . S
C661 C667 1.390 . S
C662 H653 0.930 . S
C662 C660 1.384 . S
C662 C663 1.372 . S
C663 C662 1.372 . S
C663 C664 1.400 . S
C663 C668 1.490 . S
C664 H654 0.930 . S
C664 C663 1.400 . S
C664 C667 1.386 . S
H665 C681 0.930 . S
H666 C682 0.931 . S
C667 H655 0.929 . S
C667 C661 1.390 . S
C667 C664 1.386 . S
C668 C663 1.490 . S
C668 C670 1.395 . S
C668 C671 1.403 . S
H669 C675 0.930 . S
C670 H656 0.930 . S
C670 C668 1.395 . S
C670 C673 1.403 . S
C671 C668 1.403 . S
C671 C672 1.524 . S
C671 C675 1.400 . S
C672 H657 0.960 . S
C672 H658 0.960 . S
C672 H659 0.960 . S
C672 C671 1.524 . S
C673 C670 1.403 . S
C673 C674 1.392 . S
C673 C677 1.495 . S
C674 C673 1.392 . S
C674 C675 1.385 . S
C674 C676 1.478 . S
C675 H669 0.930 . S
C675 C671 1.400 . S
C675 C674 1.385 . S
C676 C674 1.478 . S
C676 C678 1.381 . S
C676 C682 1.383 . S
C677 C673 1.495 . S
C677 H683 0.959 . S
C677 H684 0.961 . S
C677 H685 0.960 . S
C678 C676 1.381 . S
C678 C679 1.394 . S
C678 H686 0.930 . S
C679 C678 1.394 . S
C679 C680 1.383 . S
C679 H687 0.929 . S
C680 C679 1.383 . S
C680 C681 1.377 . S
C681 H665 0.930 . S
C681 C680 1.377 . S
C681 C682 1.379 . S
C682 H666 0.931 . S
C682 C676 1.383 . S
C682 C681 1.379 . S
H683 C677 0.959 . S
H684 C677 0.961 . S
H685 C677 0.960 . S
H686 C678 0.930 . S
H687 C679 0.929 . S
H688 C696 0.929 . S
H689 C698 0.930 . S
H690 C700 0.930 . S
H691 C703 0.929 . S
H692 C706 0.930 . S
H693 C708 0.960 . S
H694 C708 0.960 . S
H695 C708 0.960 . S
C696 H688 0.929 . S
C696 C697 1.377 . S
C696 C698 1.384 . S
C697 C696 1.377 . S
C697 C703 1.390 . S
C698 H689 0.930 . S
C698 C696 1.384 . S
C698 C699 1.372 . S
C699 C698 1.372 . S
C699 C700 1.400 . S
C699 C704 1.490 . S
C700 H690 0.930 . S
C700 C699 1.400 . S
C700 C703 1.386 . S
H701 C717 0.930 . S
H702 C718 0.931 . S
C703 H691 0.929 . S
C703 C697 1.390 . S
C703 C700 1.386 . S
C704 C699 1.490 . S
C704 C706 1.395 . S
C704 C707 1.403 . S
H705 C711 0.930 . S
C706 H692 0.930 . S
C706 C704 1.395 . S
C706 C709 1.403 . S
C707 C704 1.403 . S
C707 C708 1.524 . S
C707 C711 1.400 . S
C708 H693 0.960 . S
C708 H694 0.960 . S
C708 H695 0.960 . S
C708 C707 1.524 . S
C709 C706 1.403 . S
C709 C710 1.392 . S
C709 C713 1.495 . S
C710 C709 1.392 . S
C710 C711 1.385 . S
C710 C712 1.478 . S
C711 H705 0.930 . S
C711 C707 1.400 . S
C711 C710 1.385 . S
C712 C710 1.478 . S
C712 C714 1.381 . S
C712 C718 1.383 . S
C713 C709 1.495 . S
C713 H719 0.959 . S
C713 H720 0.961 . S
C713 H721 0.960 . S
C714 C712 1.381 . S
C714 C715 1.394 . S
C714 H722 0.930 . S
C715 C714 1.394 . S
C715 C716 1.383 . S
C715 H723 0.929 . S
C716 C715 1.383 . S
C716 C717 1.377 . S
C717 H701 0.930 . S
C717 C716 1.377 . S
C717 C718 1.379 . S
C718 H702 0.931 . S
C718 C712 1.383 . S
C718 C717 1.379 . S
H719 C713 0.959 . S
H720 C713 0.961 . S
H721 C713 0.960 . S
H722 C714 0.930 . S
H723 C715 0.929 . S
H724 C732 0.929 . S
H725 C734 0.930 . S
H726 C736 0.930 . S
H727 C739 0.929 . S
H728 C742 0.930 . S
H729 C744 0.960 . S
H730 C744 0.960 . S
H731 C744 0.960 . S
C732 H724 0.929 . S
C732 C733 1.377 . S
C732 C734 1.384 . S
C733 C732 1.377 . S
C733 C739 1.390 . S
C734 H725 0.930 . S
C734 C732 1.384 . S
C734 C735 1.372 . S
C735 C734 1.372 . S
C735 C736 1.400 . S
C735 C740 1.490 . S
C736 H726 0.930 . S
C736 C735 1.400 . S
C736 C739 1.386 . S
H737 C753 0.930 . S
H738 C754 0.931 . S
C739 H727 0.929 . S
C739 C733 1.390 . S
C739 C736 1.386 . S
C740 C735 1.490 . S
C740 C742 1.395 . S
C740 C743 1.403 . S
H741 C747 0.930 . S
C742 H728 0.930 . S
C742 C740 1.395 . S
C742 C745 1.403 . S
C743 C740 1.403 . S
C743 C744 1.524 . S
C743 C747 1.400 . S
C744 H729 0.960 . S
C744 H730 0.960 . S
C744 H731 0.960 . S
C744 C743 1.524 . S
C745 C742 1.403 . S
C745 C746 1.392 . S
C745 C749 1.495 . S
C746 C745 1.392 . S
C746 C747 1.385 . S
C746 C748 1.478 . S
C747 H741 0.930 . S
C747 C743 1.400 . S
C747 C746 1.385 . S
C748 C746 1.478 . S
C748 C750 1.381 . S
C748 C754 1.383 . S
C749 C745 1.495 . S
C749 H755 0.959 . S
C749 H756 0.961 . S
C749 H757 0.960 . S
C750 C748 1.381 . S
C750 C751 1.394 . S
C750 H758 0.930 . S
C751 C750 1.394 . S
C751 C752 1.383 . S
C751 H759 0.929 . S
C752 C751 1.383 . S
C752 C753 1.377 . S
C753 H737 0.930 . S
C753 C752 1.377 . S
C753 C754 1.379 . S
C754 H738 0.931 . S
C754 C748 1.383 . S
C754 C753 1.379 . S
H755 C749 0.959 . S
H756 C749 0.961 . S
H757 C749 0.960 . S
H758 C750 0.930 . S
H759 C751 0.929 . S
H760 C768 0.929 . S
H761 C770 0.930 . S
H762 C772 0.930 . S
H763 C775 0.929 . S
H764 C778 0.930 . S
H765 C780 0.960 . S
H766 C780 0.960 . S
H767 C780 0.960 . S
C768 H760 0.929 . S
C768 C769 1.377 . S
C768 C770 1.384 . S
C769 C768 1.377 . S
C769 C775 1.390 . S
C770 H761 0.930 . S
C770 C768 1.384 . S
C770 C771 1.372 . S
C771 C770 1.372 . S
C771 C772 1.400 . S
C771 C776 1.490 . S
C772 H762 0.930 . S
C772 C771 1.400 . S
C772 C775 1.386 . S
H773 C789 0.930 . S
H774 C790 0.931 . S
C775 H763 0.929 . S
C775 C769 1.390 . S
C775 C772 1.386 . S
C776 C771 1.490 . S
C776 C778 1.395 . S
C776 C779 1.403 . S
H777 C783 0.930 . S
C778 H764 0.930 . S
C778 C776 1.395 . S
C778 C781 1.403 . S
C779 C776 1.403 . S
C779 C780 1.524 . S
C779 C783 1.400 . S
C780 H765 0.960 . S
C780 H766 0.960 . S
C780 H767 0.960 . S
C780 C779 1.524 . S
C781 C778 1.403 . S
C781 C782 1.392 . S
C781 C785 1.495 . S
C782 C781 1.392 . S
C782 C783 1.385 . S
C782 C784 1.478 . S
C783 H777 0.930 . S
C783 C779 1.400 . S
C783 C782 1.385 . S
C784 C782 1.478 . S
C784 C786 1.381 . S
C784 C790 1.383 . S
C785 C781 1.495 . S
C785 H791 0.959 . S
C785 H792 0.961 . S
C785 H793 0.960 . S
C786 C784 1.381 . S
C786 C787 1.394 . S
C786 H794 0.930 . S
C787 C786 1.394 . S
C787 C788 1.383 . S
C787 H795 0.929 . S
C788 C787 1.383 . S
C788 C789 1.377 . S
C789 H773 0.930 . S
C789 C788 1.377 . S
C789 C790 1.379 . S
C790 H774 0.931 . S
C790 C784 1.383 . S
C790 C789 1.379 . S
H791 C785 0.959 . S
H792 C785 0.961 . S
H793 C785 0.960 . S
H794 C786 0.930 . S
H795 C787 0.929 . S
H796 C804 0.929 . S
H797 C806 0.930 . S
H798 C808 0.930 . S
H799 C811 0.929 . S
H800 C814 0.930 . S
H801 C816 0.960 . S
H802 C816 0.960 . S
H803 C816 0.960 . S
C804 H796 0.929 . S
C804 C805 1.377 . S
C804 C806 1.384 . S
C805 C804 1.377 . S
C805 C811 1.390 . S
C806 H797 0.930 . S
C806 C804 1.384 . S
C806 C807 1.372 . S
C807 C806 1.372 . S
C807 C808 1.400 . S
C807 C812 1.490 . S
C808 H798 0.930 . S
C808 C807 1.400 . S
C808 C811 1.386 . S
H809 C825 0.930 . S
H810 C826 0.931 . S
C811 H799 0.929 . S
C811 C805 1.390 . S
C811 C808 1.386 . S
C812 C807 1.490 . S
C812 C814 1.395 . S
C812 C815 1.403 . S
H813 C819 0.930 . S
C814 H800 0.930 . S
C814 C812 1.395 . S
C814 C817 1.403 . S
C815 C812 1.403 . S
C815 C816 1.524 . S
C815 C819 1.400 . S
C816 H801 0.960 . S
C816 H802 0.960 . S
C816 H803 0.960 . S
C816 C815 1.524 . S
C817 C814 1.403 . S
C817 C818 1.392 . S
C817 C821 1.495 . S
C818 C817 1.392 . S
C818 C819 1.385 . S
C818 C820 1.478 . S
C819 H813 0.930 . S
C819 C815 1.400 . S
C819 C818 1.385 . S
C820 C818 1.478 . S
C820 C822 1.381 . S
C820 C826 1.383 . S
C821 C817 1.495 . S
C821 H827 0.959 . S
C821 H828 0.961 . S
C821 H829 0.960 . S
C822 C820 1.381 . S
C822 C823 1.394 . S
C822 H830 0.930 . S
C823 C822 1.394 . S
C823 C824 1.383 . S
C823 H831 0.985 . S
C824 C823 1.383 . S
C824 C825 1.377 . S
C825 H809 0.930 . S
C825 C824 1.377 . S
C825 C826 1.379 . S
C826 H810 0.931 . S
C826 C820 1.383 . S
C826 C825 1.379 . S
H827 C821 0.959 . S
H828 C821 0.961 . S
H829 C821 0.960 . S
H830 C822 0.930 . S
H831 C823 0.985 . S
H832 C840 0.929 . S
H833 C842 0.930 . S
H834 C844 0.930 . S
H835 C847 0.929 . S
H836 C850 0.930 . S
H837 C852 0.960 . S
H838 C852 0.960 . S
H839 C852 0.960 . S
C840 H832 0.929 . S
C840 C841 1.377 . S
C840 C842 1.384 . S
C841 C840 1.377 . S
C841 C847 1.390 . S
C842 H833 0.930 . S
C842 C840 1.384 . S
C842 C843 1.372 . S
C843 C842 1.372 . S
C843 C844 1.400 . S
C843 C848 1.490 . S
C844 H834 0.930 . S
C844 C843 1.400 . S
C844 C847 1.386 . S
H845 C861 0.930 . S
H846 C862 0.931 . S
C847 H835 0.929 . S
C847 C841 1.390 . S
C847 C844 1.386 . S
C848 C843 1.490 . S
C848 C850 1.395 . S
C848 C851 1.403 . S
H849 C855 0.930 . S
C850 H836 0.930 . S
C850 C848 1.395 . S
C850 C853 1.403 . S
C851 C848 1.403 . S
C851 C852 1.524 . S
C851 C855 1.400 . S
C852 H837 0.960 . S
C852 H838 0.960 . S
C852 H839 0.960 . S
C852 C851 1.524 . S
C853 C850 1.403 . S
C853 C854 1.392 . S
C853 C857 1.495 . S
C854 C853 1.392 . S
C854 C855 1.385 . S
C854 C856 1.478 . S
C855 H849 0.930 . S
C855 C851 1.400 . S
C855 C854 1.385 . S
C856 C854 1.478 . S
C856 C858 1.381 . S
C856 C862 1.383 . S
C857 C853 1.495 . S
C857 H863 0.959 . S
C857 H864 0.961 . S
C857 H865 0.960 . S
C858 C856 1.381 . S
C858 C859 1.394 . S
C858 H866 0.930 . S
C859 C858 1.394 . S
C859 C860 1.383 . S
C859 H867 0.929 . S
C860 C859 1.383 . S
C860 C861 1.377 . S
C861 H845 0.930 . S
C861 C860 1.377 . S
C861 C862 1.379 . S
C862 H846 0.931 . S
C862 C856 1.383 . S
C862 C861 1.379 . S
H863 C857 0.959 . S
H864 C857 0.961 . S
H865 C857 0.960 . S
H866 C858 0.930 . S
H867 C859 0.929 . S
H868 C876 0.929 . S
H869 C878 0.930 . S
H870 C880 0.930 . S
H871 C883 0.929 . S
H872 C886 0.930 . S
H873 C888 0.960 . S
H874 C888 0.960 . S
H875 C888 0.960 . S
C876 H868 0.929 . S
C876 C877 1.377 . S
C876 C878 1.384 . S
C877 C876 1.377 . S
C877 C883 1.390 . S
C878 H869 0.930 . S
C878 C876 1.384 . S
C878 C879 1.372 . S
C879 C878 1.372 . S
C879 C880 1.400 . S
C879 C884 1.490 . S
C880 H870 0.930 . S
C880 C879 1.400 . S
C880 C883 1.386 . S
H881 C897 0.930 . S
H882 C898 0.931 . S
C883 H871 0.929 . S
C883 C877 1.390 . S
C883 C880 1.386 . S
C884 C879 1.490 . S
C884 C886 1.395 . S
C884 C887 1.403 . S
H885 C891 0.930 . S
C886 H872 0.930 . S
C886 C884 1.395 . S
C886 C889 1.403 . S
C887 C884 1.403 . S
C887 C888 1.524 . S
C887 C891 1.400 . S
C888 H873 0.960 . S
C888 H874 0.960 . S
C888 H875 0.960 . S
C888 C887 1.524 . S
C889 C886 1.403 . S
C889 C890 1.392 . S
C889 C893 1.495 . S
C890 C889 1.392 . S
C890 C891 1.385 . S
C890 C892 1.478 . S
C891 H885 0.930 . S
C891 C887 1.400 . S
C891 C890 1.385 . S
C892 C890 1.478 . S
C892 C894 1.381 . S
C892 C898 1.383 . S
C893 C889 1.495 . S
C893 H899 0.959 . S
C893 H900 0.961 . S
C893 H901 0.960 . S
C894 C892 1.381 . S
C894 C895 1.394 . S
C894 H902 0.930 . S
C895 C894 1.394 . S
C895 C896 1.383 . S
C895 H903 0.929 . S
C896 C895 1.383 . S
C896 C897 1.377 . S
C897 H881 0.930 . S
C897 C896 1.377 . S
C897 C898 1.379 . S
C898 H882 0.931 . S
C898 C892 1.383 . S
C898 C897 1.379 . S
H899 C893 0.959 . S
H900 C893 0.961 . S
H901 C893 0.960 . S
H902 C894 0.930 . S
H903 C895 0.929 . S
H904 C912 0.929 . S
H905 C914 0.930 . S
H906 C916 0.930 . S
H907 C919 0.929 . S
H908 C922 0.930 . S
H909 C924 0.960 . S
H910 C924 0.960 . S
H911 C924 0.960 . S
C912 H904 0.929 . S
C912 C913 1.377 . S
C912 C914 1.384 . S
C913 C912 1.377 . S
C913 C919 1.390 . S
C914 H905 0.930 . S
C914 C912 1.384 . S
C914 C915 1.372 . S
C915 C914 1.372 . S
C915 C916 1.400 . S
C915 C920 1.490 . S
C916 H906 0.930 . S
C916 C915 1.400 . S
C916 C919 1.386 . S
H917 C933 0.930 . S
H918 C934 0.931 . S
C919 H907 0.929 . S
C919 C913 1.390 . S
C919 C916 1.386 . S
C920 C915 1.490 . S
C920 C922 1.395 . S
C920 C923 1.403 . S
H921 C927 0.930 . S
C922 H908 0.930 . S
C922 C920 1.395 . S
C922 C925 1.403 . S
C923 C920 1.403 . S
C923 C924 1.524 . S
C923 C927 1.400 . S
C924 H909 0.960 . S
C924 H910 0.960 . S
C924 H911 0.960 . S
C924 C923 1.524 . S
C925 C922 1.403 . S
C925 C926 1.392 . S
C925 C929 1.495 . S
C926 C925 1.392 . S
C926 C927 1.385 . S
C926 C928 1.478 . S
C927 H921 0.930 . S
C927 C923 1.400 . S
C927 C926 1.385 . S
C928 C926 1.478 . S
C928 C930 1.381 . S
C928 C934 1.383 . S
C929 C925 1.495 . S
C929 H935 0.959 . S
C929 H936 0.961 . S
C929 H937 0.960 . S
C930 C928 1.381 . S
C930 C931 1.394 . S
C930 H938 0.930 . S
C931 C930 1.394 . S
C931 C932 1.383 . S
C931 H939 0.929 . S
C932 C931 1.383 . S
C932 C933 1.377 . S
C933 H917 0.930 . S
C933 C932 1.377 . S
C933 C934 1.379 . S
C934 H918 0.931 . S
C934 C928 1.383 . S
C934 C933 1.379 . S
H935 C929 0.959 . S
H936 C929 0.961 . S
H937 C929 0.960 . S
H938 C930 0.930 . S
H939 C931 0.929 . S
H940 C948 0.929 . S
H941 C950 0.930 . S
H942 C952 0.930 . S
H943 C955 0.929 . S
H944 C958 0.930 . S
H945 C960 0.960 . S
H946 C960 0.960 . S
H947 C960 0.960 . S
C948 H940 0.929 . S
C948 C949 1.377 . S
C948 C950 1.384 . S
C949 C948 1.377 . S
C949 C955 1.390 . S
C950 H941 0.930 . S
C950 C948 1.384 . S
C950 C951 1.372 . S
C951 C950 1.372 . S
C951 C952 1.400 . S
C951 C956 1.490 . S
C952 H942 0.930 . S
C952 C951 1.400 . S
C952 C955 1.386 . S
H953 C969 0.930 . S
H954 C970 0.931 . S
C955 H943 0.929 . S
C955 C949 1.390 . S
C955 C952 1.386 . S
C956 C951 1.490 . S
C956 C958 1.395 . S
C956 C959 1.403 . S
H957 C963 0.930 . S
C958 H944 0.930 . S
C958 C956 1.395 . S
C958 C961 1.403 . S
C959 C956 1.403 . S
C959 C960 1.524 . S
C959 C963 1.400 . S
C960 H945 0.960 . S
C960 H946 0.960 . S
C960 H947 0.960 . S
C960 C959 1.524 . S
C961 C958 1.403 . S
C961 C962 1.392 . S
C961 C965 1.495 . S
C962 C961 1.392 . S
C962 C963 1.385 . S
C962 C964 1.478 . S
C963 H957 0.930 . S
C963 C959 1.400 . S
C963 C962 1.385 . S
C964 C962 1.478 . S
C964 C966 1.381 . S
C964 C970 1.383 . S
C965 C961 1.495 . S
C965 H971 0.959 . S
C965 H972 0.961 . S
C965 H973 0.960 . S
C966 C964 1.381 . S
C966 C967 1.394 . S
C966 H974 0.930 . S
C967 C966 1.394 . S
C967 C968 1.383 . S
C967 H975 0.929 . S
C968 C967 1.383 . S
C968 C969 1.377 . S
C969 H953 0.930 . S
C969 C968 1.377 . S
C969 C970 1.379 . S
C970 H954 0.931 . S
C970 C964 1.383 . S
C970 C969 1.379 . S
H971 C965 0.959 . S
H972 C965 0.961 . S
H973 C965 0.960 . S
H974 C966 0.930 . S
H975 C967 0.929 . S
H976 C984 0.929 . S
H977 C986 0.930 . S
H978 C988 0.930 . S
H979 C991 0.929 . S
H980 C994 0.930 . S
H981 C996 0.960 . S
H982 C996 0.960 . S
H983 C996 0.960 . S
C984 H976 0.929 . S
C984 C985 1.377 . S
C984 C986 1.384 . S
C985 C984 1.377 . S
C985 C991 1.390 . S
C986 H977 0.930 . S
C986 C984 1.384 . S
C986 C987 1.372 . S
C987 C986 1.372 . S
C987 C988 1.400 . S
C987 C992 1.490 . S
C988 H978 0.930 . S
C988 C987 1.400 . S
C988 C991 1.386 . S
H989 C1005 0.930 . S
H990 C1006 0.931 . S
C991 H979 0.929 . S
C991 C985 1.390 . S
C991 C988 1.386 . S
C992 C987 1.490 . S
C992 C994 1.395 . S
C992 C995 1.403 . S
H993 C999 0.930 . S
C994 H980 0.930 . S
C994 C992 1.395 . S
C994 C997 1.403 . S
C995 C992 1.403 . S
C995 C996 1.524 . S
C995 C999 1.400 . S
C996 H981 0.960 . S
C996 H982 0.960 . S
C996 H983 0.960 . S
C996 C995 1.524 . S
C997 C994 1.403 . S
C997 C998 1.392 . S
C997 C1001 1.495 . S
C998 C997 1.392 . S
C998 C999 1.385 . S
C998 C1000 1.478 . S
C999 H993 0.930 . S
C999 C995 1.400 . S
C999 C998 1.385 . S
C1000 C998 1.478 . S
C1000 C1002 1.381 . S
C1000 C1006 1.383 . S
C1001 C997 1.495 . S
C1001 H1007 0.959 . S
C1001 H1008 0.961 . S
C1001 H1009 0.960 1_556 S
C1002 C1000 1.381 . S
C1002 C1003 1.394 . S
C1002 H1010 0.930 . S
C1003 C1002 1.394 . S
C1003 C1004 1.383 . S
C1003 H1011 0.929 1_556 S
C1004 C1003 1.383 . S
C1004 C1005 1.377 . S
C1005 H989 0.930 . S
C1005 C1004 1.377 . S
C1005 C1006 1.379 . S
C1006 H990 0.931 . S
C1006 C1000 1.383 . S
C1006 C1005 1.379 . S
H1007 C1001 0.959 . S
H1008 C1001 0.961 . S
H1009 C1001 0.960 1_554 S
H1010 C1002 0.930 . S
H1011 C1003 0.929 1_554 S
H1012 C1020 0.929 . S
H1013 C1022 0.930 . S
H1014 C1024 0.930 . S
H1015 C1027 0.929 . S
H1016 C1030 0.930 . S
H1017 C1032 0.960 . S
H1018 C1032 0.960 . S
H1019 C1032 0.960 . S
C1020 H1012 0.929 . S
C1020 C1021 1.377 . S
C1020 C1022 1.384 . S
C1021 C1020 1.377 . S
C1021 C1027 1.390 . S
C1022 H1013 0.930 . S
C1022 C1020 1.384 . S
C1022 C1023 1.372 . S
C1023 C1022 1.372 . S
C1023 C1024 1.400 . S
C1023 C1028 1.490 . S
C1024 H1014 0.930 . S
C1024 C1023 1.400 . S
C1024 C1027 1.386 . S
H1025 C1041 0.930 . S
H1026 C1042 0.931 . S
C1027 H1015 0.929 . S
C1027 C1021 1.390 . S
C1027 C1024 1.386 . S
C1028 C1023 1.490 . S
C1028 C1030 1.395 . S
C1028 C1031 1.403 . S
H1029 C1035 0.930 . S
C1030 H1016 0.930 . S
C1030 C1028 1.395 . S
C1030 C1033 1.403 . S
C1031 C1028 1.403 . S
C1031 C1032 1.524 . S
C1031 C1035 1.400 . S
C1032 H1017 0.960 . S
C1032 H1018 0.960 . S
C1032 H1019 0.960 . S
C1032 C1031 1.524 . S
C1033 C1030 1.403 . S
C1033 C1034 1.392 . S
C1033 C1037 1.495 . S
C1034 C1033 1.392 . S
C1034 C1035 1.385 . S
C1034 C1036 1.478 . S
C1035 H1029 0.930 . S
C1035 C1031 1.400 . S
C1035 C1034 1.385 . S
C1036 C1034 1.478 . S
C1036 C1038 1.381 . S
C1036 C1042 1.383 . S
C1037 C1033 1.495 . S
C1037 H1043 0.959 . S
C1037 H1044 0.961 . S
C1037 H1045 0.960 . S
C1038 C1036 1.381 . S
C1038 C1039 1.394 . S
C1038 H1046 0.930 . S
C1039 C1038 1.394 . S
C1039 C1040 1.383 . S
C1039 H1047 0.929 . S
C1040 C1039 1.383 . S
C1040 C1041 1.377 . S
C1041 H1025 0.930 . S
C1041 C1040 1.377 . S
C1041 C1042 1.379 . S
C1042 H1026 0.931 . S
C1042 C1036 1.383 . S
C1042 C1041 1.379 . S
H1043 C1037 0.959 . S
H1044 C1037 0.961 . S
H1045 C1037 0.960 . S
H1046 C1038 0.930 . S
H1047 C1039 0.929 . S
H1048 C1056 0.929 . S
H1049 C1058 0.930 . S
H1050 C1060 0.930 . S
H1051 C1063 0.929 . S
H1052 C1066 0.930 . S
H1053 C1068 0.960 . S
H1054 C1068 0.960 . S
H1055 C1068 0.960 . S
C1056 H1048 0.929 . S
C1056 C1057 1.377 . S
C1056 C1058 1.384 . S
C1057 C1056 1.377 . S
C1057 C1063 1.390 . S
C1058 H1049 0.930 . S
C1058 C1056 1.384 . S
C1058 C1059 1.372 . S
C1059 C1058 1.372 . S
C1059 C1060 1.400 . S
C1059 C1064 1.490 . S
C1060 H1050 0.930 . S
C1060 C1059 1.400 . S
C1060 C1063 1.386 . S
H1061 C1077 0.930 . S
H1062 C1078 0.931 . S
C1063 H1051 0.929 . S
C1063 C1057 1.390 . S
C1063 C1060 1.386 . S
C1064 C1059 1.490 . S
C1064 C1066 1.395 . S
C1064 C1067 1.403 . S
H1065 C1071 0.930 . S
C1066 H1052 0.930 . S
C1066 C1064 1.395 . S
C1066 C1069 1.403 . S
C1067 C1064 1.403 . S
C1067 C1068 1.524 . S
C1067 C1071 1.400 . S
C1068 H1053 0.960 . S
C1068 H1054 0.960 . S
C1068 H1055 0.960 . S
C1068 C1067 1.524 . S
C1069 C1066 1.403 . S
C1069 C1070 1.392 . S
C1069 C1073 1.495 . S
C1070 C1069 1.392 . S
C1070 C1071 1.385 . S
C1070 C1072 1.478 . S
C1071 H1065 0.930 . S
C1071 C1067 1.400 . S
C1071 C1070 1.385 . S
C1072 C1070 1.478 . S
C1072 C1074 1.381 . S
C1072 C1078 1.383 . S
C1073 C1069 1.495 . S
C1073 H1079 0.959 . S
C1073 H1080 0.961 . S
C1073 H1081 0.960 . S
C1074 C1072 1.381 . S
C1074 C1075 1.394 . S
C1074 H1082 0.930 . S
C1075 C1074 1.394 . S
C1075 C1076 1.383 . S
C1075 H1083 0.929 . S
C1076 C1075 1.383 . S
C1076 C1077 1.377 . S
C1077 H1061 0.930 . S
C1077 C1076 1.377 . S
C1077 C1078 1.379 . S
C1078 H1062 0.931 . S
C1078 C1072 1.383 . S
C1078 C1077 1.379 . S
H1079 C1073 0.959 . S
H1080 C1073 0.961 . S
H1081 C1073 0.960 . S
H1082 C1074 0.930 . S
H1083 C1075 0.929 . S
H1084 C1092 0.929 . S
H1085 C1094 0.930 . S
H1086 C1096 0.930 . S
H1087 C1099 0.929 . S
H1088 C1102 0.930 . S
H1089 C1104 0.960 . S
H1090 C1104 0.960 . S
H1091 C1104 0.960 . S
C1092 H1084 0.929 . S
C1092 C1093 1.377 . S
C1092 C1094 1.384 . S
C1093 C1092 1.377 . S
C1093 C1099 1.390 . S
C1094 H1085 0.930 . S
C1094 C1092 1.384 . S
C1094 C1095 1.372 . S
C1095 C1094 1.372 . S
C1095 C1096 1.400 . S
C1095 C1100 1.490 . S
C1096 H1086 0.930 . S
C1096 C1095 1.400 . S
C1096 C1099 1.386 . S
H1097 C1113 0.930 . S
H1098 C1114 0.931 . S
C1099 H1087 0.929 . S
C1099 C1093 1.390 . S
C1099 C1096 1.386 . S
C1100 C1095 1.490 . S
C1100 C1102 1.395 . S
C1100 C1103 1.403 . S
H1101 C1107 0.930 . S
C1102 H1088 0.930 . S
C1102 C1100 1.395 . S
C1102 C1105 1.403 . S
C1103 C1100 1.403 . S
C1103 C1104 1.524 . S
C1103 C1107 1.400 . S
C1104 H1089 0.960 . S
C1104 H1090 0.960 . S
C1104 H1091 0.960 . S
C1104 C1103 1.524 . S
C1105 C1102 1.403 . S
C1105 C1106 1.392 . S
C1105 C1109 1.495 . S
C1106 C1105 1.392 . S
C1106 C1107 1.385 . S
C1106 C1108 1.478 . S
C1107 H1101 0.930 . S
C1107 C1103 1.400 . S
C1107 C1106 1.385 . S
C1108 C1106 1.478 . S
C1108 C1110 1.381 . S
C1108 C1114 1.383 . S
C1109 C1105 1.495 . S
C1109 H1115 0.959 . S
C1109 H1116 0.961 . S
C1109 H1117 0.960 . S
C1110 C1108 1.381 . S
C1110 C1111 1.394 . S
C1110 H1118 0.930 . S
C1111 C1110 1.394 . S
C1111 C1112 1.383 . S
C1111 H1119 0.929 . S
C1112 C1111 1.383 . S
C1112 C1113 1.377 . S
C1113 H1097 0.930 . S
C1113 C1112 1.377 . S
C1113 C1114 1.379 . S
C1114 H1098 0.931 . S
C1114 C1108 1.383 . S
C1114 C1113 1.379 . S
H1115 C1109 0.959 . S
H1116 C1109 0.961 . S
H1117 C1109 0.960 . S
H1118 C1110 0.930 . S
H1119 C1111 0.929 . S
H1120 C1128 0.929 . S
H1121 C1130 0.930 . S
H1122 C1132 0.930 . S
H1123 C1135 0.929 . S
H1124 C1138 0.930 . S
H1125 C1140 0.960 . S
H1126 C1140 0.960 . S
H1127 C1140 0.960 . S
C1128 H1120 0.929 . S
C1128 C1129 1.377 . S
C1128 C1130 1.384 . S
C1129 C1128 1.377 . S
C1129 C1135 1.390 . S
C1130 H1121 0.930 . S
C1130 C1128 1.384 . S
C1130 C1131 1.372 . S
C1131 C1130 1.372 . S
C1131 C1132 1.400 . S
C1131 C1136 1.490 . S
C1132 H1122 0.930 . S
C1132 C1131 1.400 . S
C1132 C1135 1.386 . S
H1133 C1149 0.930 . S
H1134 C1150 0.931 . S
C1135 H1123 0.929 . S
C1135 C1129 1.390 . S
C1135 C1132 1.386 . S
C1136 C1131 1.490 . S
C1136 C1138 1.395 . S
C1136 C1139 1.403 . S
H1137 C1143 0.930 . S
C1138 H1124 0.930 . S
C1138 C1136 1.395 . S
C1138 C1141 1.403 . S
C1139 C1136 1.403 . S
C1139 C1140 1.524 . S
C1139 C1143 1.400 . S
C1140 H1125 0.960 . S
C1140 H1126 0.960 . S
C1140 H1127 0.960 . S
C1140 C1139 1.524 . S
C1141 C1138 1.403 . S
C1141 C1142 1.392 . S
C1141 C1145 1.495 . S
C1142 C1141 1.392 . S
C1142 C1143 1.385 . S
C1142 C1144 1.478 . S
C1143 H1137 0.930 . S
C1143 C1139 1.400 . S
C1143 C1142 1.385 . S
C1144 C1142 1.478 . S
C1144 C1146 1.381 . S
C1144 C1150 1.383 . S
C1145 C1141 1.495 . S
C1145 H1151 0.959 . S
C1145 H1152 0.961 . S
C1145 H1153 0.960 . S
C1146 C1144 1.381 . S
C1146 C1147 1.394 . S
C1146 H1154 0.930 . S
C1147 C1146 1.394 . S
C1147 C1148 1.383 . S
C1147 H1155 0.929 . S
C1148 C1147 1.383 . S
C1148 C1149 1.377 . S
C1149 H1133 0.930 . S
C1149 C1148 1.377 . S
C1149 C1150 1.379 . S
C1150 H1134 0.931 . S
C1150 C1144 1.383 . S
C1150 C1149 1.379 . S
H1151 C1145 0.959 . S
H1152 C1145 0.961 . S
H1153 C1145 0.960 . S
H1154 C1146 0.930 . S
H1155 C1147 0.929 . S
H1156 C1164 0.929 . S
H1157 C1166 0.930 . S
H1158 C1168 0.930 . S
H1159 C1171 0.929 . S
H1160 C1174 0.930 . S
H1161 C1176 0.960 . S
H1162 C1176 0.960 . S
H1163 C1176 0.960 . S
C1164 H1156 0.929 . S
C1164 C1165 1.377 . S
C1164 C1166 1.384 . S
C1165 C1164 1.377 . S
C1165 C1171 1.390 . S
C1166 H1157 0.930 . S
C1166 C1164 1.384 . S
C1166 C1167 1.372 . S
C1167 C1166 1.372 . S
C1167 C1168 1.400 . S
C1167 C1172 1.490 . S
C1168 H1158 0.930 . S
C1168 C1167 1.400 . S
C1168 C1171 1.386 . S
H1169 C1185 0.930 . S
H1170 C1186 0.931 . S
C1171 H1159 0.929 . S
C1171 C1165 1.390 . S
C1171 C1168 1.386 . S
C1172 C1167 1.490 . S
C1172 C1174 1.395 . S
C1172 C1175 1.403 . S
H1173 C1179 0.930 . S
C1174 H1160 0.930 . S
C1174 C1172 1.395 . S
C1174 C1177 1.403 . S
C1175 C1172 1.403 . S
C1175 C1176 1.524 . S
C1175 C1179 1.400 . S
C1176 H1161 0.960 . S
C1176 H1162 0.960 . S
C1176 H1163 0.960 . S
C1176 C1175 1.524 . S
C1177 C1174 1.403 . S
C1177 C1178 1.392 . S
C1177 C1181 1.495 . S
C1178 C1177 1.392 . S
C1178 C1179 1.385 . S
C1178 C1180 1.478 . S
C1179 H1173 0.930 . S
C1179 C1175 1.400 . S
C1179 C1178 1.385 . S
C1180 C1178 1.478 . S
C1180 C1182 1.381 . S
C1180 C1186 1.383 . S
C1181 C1177 1.495 . S
C1181 H1187 0.959 . S
C1181 H1188 0.961 . S
C1181 H1189 0.960 . S
C1182 C1180 1.381 . S
C1182 C1183 1.394 . S
C1182 H1190 0.930 . S
C1183 C1182 1.394 . S
C1183 C1184 1.383 . S
C1183 H1191 0.929 . S
C1184 C1183 1.383 . S
C1184 C1185 1.377 . S
C1185 H1169 0.930 . S
C1185 C1184 1.377 . S
C1185 C1186 1.379 . S
C1186 H1170 0.931 . S
C1186 C1180 1.383 . S
C1186 C1185 1.379 . S
H1187 C1181 0.959 . S
H1188 C1181 0.961 . S
H1189 C1181 0.960 . S
H1190 C1182 0.930 . S
H1191 C1183 0.929 . S
H1192 C1200 0.929 . S
H1193 C1202 0.930 . S
H1194 C1204 0.930 . S
H1195 C1207 0.929 . S
H1196 C1210 0.930 . S
H1197 C1212 0.960 . S
H1198 C1212 0.960 . S
H1199 C1212 0.960 . S
C1200 H1192 0.929 . S
C1200 C1201 1.377 . S
C1200 C1202 1.384 . S
C1201 C1200 1.377 . S
C1201 C1207 1.390 . S
C1202 H1193 0.930 . S
C1202 C1200 1.384 . S
C1202 C1203 1.372 . S
C1203 C1202 1.372 . S
C1203 C1204 1.400 . S
C1203 C1208 1.490 . S
C1204 H1194 0.930 . S
C1204 C1203 1.400 . S
C1204 C1207 1.386 . S
H1205 C1221 0.930 . S
H1206 C1222 0.931 . S
C1207 H1195 0.929 . S
C1207 C1201 1.390 . S
C1207 C1204 1.386 . S
C1208 C1203 1.490 . S
C1208 C1210 1.395 . S
C1208 C1211 1.403 . S
H1209 C1215 0.930 . S
C1210 H1196 0.930 . S
C1210 C1208 1.395 . S
C1210 C1213 1.403 . S
C1211 C1208 1.403 . S
C1211 C1212 1.524 . S
C1211 C1215 1.400 . S
C1212 H1197 0.960 . S
C1212 H1198 0.960 . S
C1212 H1199 0.960 . S
C1212 C1211 1.524 . S
C1213 C1210 1.403 . S
C1213 C1214 1.392 . S
C1213 C1217 1.495 . S
C1214 C1213 1.392 . S
C1214 C1215 1.385 . S
C1214 C1216 1.478 . S
C1215 H1209 0.930 . S
C1215 C1211 1.400 . S
C1215 C1214 1.385 . S
C1216 C1214 1.478 . S
C1216 C1218 1.381 . S
C1216 C1222 1.383 . S
C1217 C1213 1.495 . S
C1217 H1223 0.959 . S
C1217 H1224 0.961 . S
C1217 H1225 0.960 . S
C1218 C1216 1.381 . S
C1218 C1219 1.394 . S
C1218 H1226 0.930 . S
C1219 C1218 1.394 . S
C1219 C1220 1.383 . S
C1219 H1227 0.929 . S
C1220 C1219 1.383 . S
C1220 C1221 1.377 . S
C1221 H1205 0.930 . S
C1221 C1220 1.377 . S
C1221 C1222 1.379 . S
C1222 H1206 0.931 . S
C1222 C1216 1.383 . S
C1222 C1221 1.379 . S
H1223 C1217 0.959 . S
H1224 C1217 0.961 . S
H1225 C1217 0.960 . S
H1226 C1218 0.930 . S
H1227 C1219 0.929 . S
H1228 C1236 0.929 . S
H1229 C1238 0.930 . S
H1230 C1240 0.930 . S
H1231 C1243 0.929 . S
H1232 C1246 0.930 . S
H1233 C1248 0.960 . S
H1234 C1248 0.960 . S
H1235 C1248 0.960 . S
C1236 H1228 0.929 . S
C1236 C1237 1.377 . S
C1236 C1238 1.384 . S
C1237 C1236 1.377 . S
C1237 C1243 1.390 . S
C1238 H1229 0.930 . S
C1238 C1236 1.384 . S
C1238 C1239 1.372 . S
C1239 C1238 1.372 . S
C1239 C1240 1.400 . S
C1239 C1244 1.490 . S
C1240 H1230 0.930 . S
C1240 C1239 1.400 . S
C1240 C1243 1.386 . S
H1241 C1257 0.930 . S
H1242 C1258 0.931 . S
C1243 H1231 0.929 . S
C1243 C1237 1.390 . S
C1243 C1240 1.386 . S
C1244 C1239 1.490 . S
C1244 C1246 1.395 . S
C1244 C1247 1.403 . S
H1245 C1251 0.930 . S
C1246 H1232 0.930 . S
C1246 C1244 1.395 . S
C1246 C1249 1.403 . S
C1247 C1244 1.403 . S
C1247 C1248 1.524 . S
C1247 C1251 1.400 . S
C1248 H1233 0.960 . S
C1248 H1234 0.960 . S
C1248 H1235 0.960 . S
C1248 C1247 1.524 . S
C1249 C1246 1.403 . S
C1249 C1250 1.392 . S
C1249 C1253 1.495 . S
C1250 C1249 1.392 . S
C1250 C1251 1.385 . S
C1250 C1252 1.478 . S
C1251 H1245 0.930 . S
C1251 C1247 1.400 . S
C1251 C1250 1.385 . S
C1252 C1250 1.478 . S
C1252 C1254 1.381 . S
C1252 C1258 1.383 . S
C1253 C1249 1.495 . S
C1253 H1259 0.959 . S
C1253 H1260 0.961 . S
C1253 H1261 0.960 . S
C1254 C1252 1.381 . S
C1254 C1255 1.394 . S
C1254 H1262 0.930 . S
C1255 C1254 1.394 . S
C1255 C1256 1.383 . S
C1255 H1263 0.929 . S
C1256 C1255 1.383 . S
C1256 C1257 1.377 . S
C1257 H1241 0.930 . S
C1257 C1256 1.377 . S
C1257 C1258 1.379 . S
C1258 H1242 0.931 . S
C1258 C1252 1.383 . S
C1258 C1257 1.379 . S
H1259 C1253 0.959 . S
H1260 C1253 0.961 . S
H1261 C1253 0.960 . S
H1262 C1254 0.930 . S
H1263 C1255 0.929 . S
H1264 C1272 0.929 . S
H1265 C1274 0.930 . S
H1266 C1276 0.930 . S
H1267 C1279 0.929 . S
H1268 C1282 0.930 . S
H1269 C1284 0.960 . S
H1270 C1284 0.960 . S
H1271 C1284 0.960 . S
C1272 H1264 0.929 . S
C1272 C1273 1.377 . S
C1272 C1274 1.384 . S
C1273 C1272 1.377 . S
C1273 C1279 1.390 . S
C1274 H1265 0.930 . S
C1274 C1272 1.384 . S
C1274 C1275 1.372 . S
C1275 C1274 1.372 . S
C1275 C1276 1.400 . S
C1275 C1280 1.490 . S
C1276 H1266 0.930 . S
C1276 C1275 1.400 . S
C1276 C1279 1.386 . S
H1277 C1293 0.930 . S
H1278 C1294 0.931 . S
C1279 H1267 0.929 . S
C1279 C1273 1.390 . S
C1279 C1276 1.386 . S
C1280 C1275 1.490 . S
C1280 C1282 1.395 . S
C1280 C1283 1.403 . S
H1281 C1287 0.930 . S
C1282 H1268 0.930 . S
C1282 C1280 1.395 . S
C1282 C1285 1.403 . S
C1283 C1280 1.403 . S
C1283 C1284 1.524 . S
C1283 C1287 1.400 . S
C1284 H1269 0.960 . S
C1284 H1270 0.960 . S
C1284 H1271 0.960 . S
C1284 C1283 1.524 . S
C1285 C1282 1.403 . S
C1285 C1286 1.392 . S
C1285 C1289 1.495 . S
C1286 C1285 1.392 . S
C1286 C1287 1.385 . S
C1286 C1288 1.478 . S
C1287 H1281 0.930 . S
C1287 C1283 1.400 . S
C1287 C1286 1.385 . S
C1288 C1286 1.478 . S
C1288 C1290 1.381 . S
C1288 C1294 1.383 . S
C1289 C1285 1.495 . S
C1289 H1295 0.959 . S
C1289 H1296 0.961 . S
C1289 H1297 0.960 . S
C1290 C1288 1.381 . S
C1290 C1291 1.394 . S
C1290 H1298 0.930 . S
C1291 C1290 1.394 . S
C1291 C1292 1.383 . S
C1291 H1299 0.929 . S
C1292 C1291 1.383 . S
C1292 C1293 1.377 . S
C1293 H1277 0.930 . S
C1293 C1292 1.377 . S
C1293 C1294 1.379 . S
C1294 H1278 0.931 . S
C1294 C1288 1.383 . S
C1294 C1293 1.379 . S
H1295 C1289 0.959 . S
H1296 C1289 0.961 . S
H1297 C1289 0.960 . S
H1298 C1290 0.930 . S
H1299 C1291 0.929 . S
H1300 C1308 0.929 . S
H1301 C1310 0.930 . S
H1302 C1312 0.930 . S
H1303 C1315 0.929 . S
H1304 C1318 0.930 . S
H1305 C1320 0.960 . S
H1306 C1320 0.960 . S
H1307 C1320 0.960 . S
C1308 H1300 0.929 . S
C1308 C1309 1.377 . S
C1308 C1310 1.384 . S
C1309 C1308 1.377 . S
C1309 C1315 1.390 . S
C1310 H1301 0.930 . S
C1310 C1308 1.384 . S
C1310 C1311 1.372 . S
C1311 C1310 1.372 . S
C1311 C1312 1.400 . S
C1311 C1316 1.490 . S
C1312 H1302 0.930 . S
C1312 C1311 1.400 . S
C1312 C1315 1.386 . S
H1313 C1329 0.930 . S
H1314 C1330 0.931 . S
C1315 H1303 0.929 . S
C1315 C1309 1.390 . S
C1315 C1312 1.386 . S
C1316 C1311 1.490 . S
C1316 C1318 1.395 . S
C1316 C1319 1.403 . S
H1317 C1323 0.930 . S
C1318 H1304 0.930 . S
C1318 C1316 1.395 . S
C1318 C1321 1.403 . S
C1319 C1316 1.403 . S
C1319 C1320 1.524 . S
C1319 C1323 1.400 . S
C1320 H1305 0.960 . S
C1320 H1306 0.960 . S
C1320 H1307 0.960 . S
C1320 C1319 1.524 . S
C1321 C1318 1.403 . S
C1321 C1322 1.392 . S
C1321 C1325 1.495 . S
C1322 C1321 1.392 . S
C1322 C1323 1.385 . S
C1322 C1324 1.478 . S
C1323 H1317 0.930 . S
C1323 C1319 1.400 . S
C1323 C1322 1.385 . S
C1324 C1322 1.478 . S
C1324 C1326 1.381 . S
C1324 C1330 1.383 . S
C1325 C1321 1.495 . S
C1325 H1331 0.959 . S
C1325 H1332 0.961 . S
C1325 H1333 0.960 . S
C1326 C1324 1.381 . S
C1326 C1327 1.394 . S
C1326 H1334 0.930 . S
C1327 C1326 1.394 . S
C1327 C1328 1.383 . S
C1327 H1335 0.929 . S
C1328 C1327 1.383 . S
C1328 C1329 1.377 . S
C1329 H1313 0.930 . S
C1329 C1328 1.377 . S
C1329 C1330 1.379 . S
C1330 H1314 0.931 . S
C1330 C1324 1.383 . S
C1330 C1329 1.379 . S
H1331 C1325 0.959 . S
H1332 C1325 0.961 . S
H1333 C1325 0.960 . S
H1334 C1326 0.930 . S
H1335 C1327 0.929 . S
H1336 C1344 0.929 . S
H1337 C1346 0.930 . S
H1338 C1348 0.930 . S
H1339 C1351 0.929 . S
H1340 C1354 0.930 . S
H1341 C1356 0.960 . S
H1342 C1356 0.960 . S
H1343 C1356 0.960 . S
C1344 H1336 0.929 . S
C1344 C1345 1.377 . S
C1344 C1346 1.384 . S
C1345 C1344 1.377 . S
C1345 C1351 1.390 . S
C1346 H1337 0.930 . S
C1346 C1344 1.384 . S
C1346 C1347 1.372 . S
C1347 C1346 1.372 . S
C1347 C1348 1.400 . S
C1347 C1352 1.490 . S
C1348 H1338 0.930 . S
C1348 C1347 1.400 . S
C1348 C1351 1.386 . S
H1349 C1365 0.930 . S
H1350 C1366 0.931 . S
C1351 H1339 0.929 . S
C1351 C1345 1.390 . S
C1351 C1348 1.386 . S
C1352 C1347 1.490 . S
C1352 C1354 1.395 . S
C1352 C1355 1.403 . S
H1353 C1359 0.930 . S
C1354 H1340 0.930 . S
C1354 C1352 1.395 . S
C1354 C1357 1.403 . S
C1355 C1352 1.403 . S
C1355 C1356 1.524 . S
C1355 C1359 1.400 . S
C1356 H1341 0.960 . S
C1356 H1342 0.960 . S
C1356 H1343 0.960 . S
C1356 C1355 1.524 . S
C1357 C1354 1.403 . S
C1357 C1358 1.392 . S
C1357 C1361 1.495 . S
C1358 C1357 1.392 . S
C1358 C1359 1.385 . S
C1358 C1360 1.478 . S
C1359 H1353 0.930 . S
C1359 C1355 1.400 . S
C1359 C1358 1.385 . S
C1360 C1358 1.478 . S
C1360 C1362 1.381 . S
C1360 C1366 1.383 . S
C1361 C1357 1.495 . S
C1361 H1367 0.959 . S
C1361 H1368 0.961 . S
C1361 H1369 0.960 . S
C1362 C1360 1.381 . S
C1362 C1363 1.394 . S
C1362 H1370 0.930 . S
C1363 C1362 1.394 . S
C1363 C1364 1.383 . S
C1363 H1371 0.929 . S
C1364 C1363 1.383 . S
C1364 C1365 1.377 . S
C1365 H1349 0.930 . S
C1365 C1364 1.377 . S
C1365 C1366 1.379 . S
C1366 H1350 0.931 . S
C1366 C1360 1.383 . S
C1366 C1365 1.379 . S
H1367 C1361 0.959 . S
H1368 C1361 0.961 . S
H1369 C1361 0.960 . S
H1370 C1362 0.930 . S
H1371 C1363 0.929 . S
H1372 C1380 0.929 . S
H1373 C1382 0.930 . S
H1374 C1384 0.930 . S
H1375 C1387 0.929 . S
H1376 C1390 0.930 . S
H1377 C1392 0.960 . S
H1378 C1392 0.960 . S
H1379 C1392 0.960 . S
C1380 H1372 0.929 . S
C1380 C1381 1.377 . S
C1380 C1382 1.384 . S
C1381 C1380 1.377 . S
C1381 C1387 1.390 . S
C1382 H1373 0.930 . S
C1382 C1380 1.384 . S
C1382 C1383 1.372 . S
C1383 C1382 1.372 . S
C1383 C1384 1.400 . S
C1383 C1388 1.490 . S
C1384 H1374 0.930 . S
C1384 C1383 1.400 . S
C1384 C1387 1.386 . S
H1385 C1401 0.930 . S
H1386 C1402 0.931 . S
C1387 H1375 0.929 . S
C1387 C1381 1.390 . S
C1387 C1384 1.386 . S
C1388 C1383 1.490 . S
C1388 C1390 1.395 . S
C1388 C1391 1.403 . S
H1389 C1395 0.930 . S
C1390 H1376 0.930 . S
C1390 C1388 1.395 . S
C1390 C1393 1.403 . S
C1391 C1388 1.403 . S
C1391 C1392 1.524 . S
C1391 C1395 1.400 . S
C1392 H1377 0.960 . S
C1392 H1378 0.960 . S
C1392 H1379 0.960 . S
C1392 C1391 1.524 . S
C1393 C1390 1.403 . S
C1393 C1394 1.392 . S
C1393 C1397 1.495 . S
C1394 C1393 1.392 . S
C1394 C1395 1.385 . S
C1394 C1396 1.478 . S
C1395 H1389 0.930 . S
C1395 C1391 1.400 . S
C1395 C1394 1.385 . S
C1396 C1394 1.478 . S
C1396 C1398 1.381 . S
C1396 C1402 1.383 . S
C1397 C1393 1.495 . S
C1397 H1403 0.959 . S
C1397 H1404 0.961 . S
C1397 H1405 0.960 . S
C1398 C1396 1.381 . S
C1398 C1399 1.394 . S
C1398 H1406 0.930 . S
C1399 C1398 1.394 . S
C1399 C1400 1.383 . S
C1399 H1407 0.929 . S
C1400 C1399 1.383 . S
C1400 C1401 1.377 . S
C1401 H1385 0.930 . S
C1401 C1400 1.377 . S
C1401 C1402 1.379 . S
C1402 H1386 0.931 . S
C1402 C1396 1.383 . S
C1402 C1401 1.379 . S
H1403 C1397 0.959 . S
H1404 C1397 0.961 . S
H1405 C1397 0.960 . S
H1406 C1398 0.930 . S
H1407 C1399 0.929 . S
H1408 C1416 0.929 . S
H1409 C1418 0.930 . S
H1410 C1420 0.930 . S
H1411 C1423 0.929 . S
H1412 C1426 0.930 . S
H1413 C1428 0.960 . S
H1414 C1428 0.960 . S
H1415 C1428 0.960 . S
C1416 H1408 0.929 . S
C1416 C1417 1.377 . S
C1416 C1418 1.384 . S
C1417 C1416 1.377 . S
C1417 C1423 1.390 . S
C1418 H1409 0.930 . S
C1418 C1416 1.384 . S
C1418 C1419 1.372 . S
C1419 C1418 1.372 . S
C1419 C1420 1.400 . S
C1419 C1424 1.490 . S
C1420 H1410 0.930 . S
C1420 C1419 1.400 . S
C1420 C1423 1.386 . S
H1421 C1437 0.930 . S
H1422 C1438 0.931 . S
C1423 H1411 0.929 . S
C1423 C1417 1.390 . S
C1423 C1420 1.386 . S
C1424 C1419 1.490 . S
C1424 C1426 1.395 . S
C1424 C1427 1.403 . S
H1425 C1431 0.930 . S
C1426 H1412 0.930 . S
C1426 C1424 1.395 . S
C1426 C1429 1.403 . S
C1427 C1424 1.403 . S
C1427 C1428 1.524 . S
C1427 C1431 1.400 . S
C1428 H1413 0.960 . S
C1428 H1414 0.960 . S
C1428 H1415 0.960 . S
C1428 C1427 1.524 . S
C1429 C1426 1.403 . S
C1429 C1430 1.392 . S
C1429 C1433 1.495 . S
C1430 C1429 1.392 . S
C1430 C1431 1.385 . S
C1430 C1432 1.478 . S
C1431 H1425 0.930 . S
C1431 C1427 1.400 . S
C1431 C1430 1.385 . S
C1432 C1430 1.478 . S
C1432 C1434 1.381 . S
C1432 C1438 1.383 . S
C1433 C1429 1.495 . S
C1433 H1439 0.959 . S
C1433 H1440 0.961 . S
C1433 H1441 0.960 . S
C1434 C1432 1.381 . S
C1434 C1435 1.394 . S
C1434 H1442 0.930 . S
C1435 C1434 1.394 . S
C1435 C1436 1.383 . S
C1435 H1443 0.929 . S
C1436 C1435 1.383 . S
C1436 C1437 1.377 . S
C1437 H1421 0.930 . S
C1437 C1436 1.377 . S
C1437 C1438 1.379 . S
C1438 H1422 0.931 . S
C1438 C1432 1.383 . S
C1438 C1437 1.379 . S
H1439 C1433 0.959 . S
H1440 C1433 0.961 . S
H1441 C1433 0.960 . S
H1442 C1434 0.930 . S
H1443 C1435 0.929 . S
H1444 C1452 0.929 . S
H1445 C1454 0.930 . S
H1446 C1456 0.930 . S
H1447 C1459 0.929 . S
H1448 C1462 0.930 . S
H1449 C1464 0.960 . S
H1450 C1464 0.960 . S
H1451 C1464 0.960 . S
C1452 H1444 0.929 . S
C1452 C1453 1.377 . S
C1452 C1454 1.384 . S
C1453 C1452 1.377 . S
C1453 C1459 1.390 . S
C1454 H1445 0.930 . S
C1454 C1452 1.384 . S
C1454 C1455 1.372 . S
C1455 C1454 1.372 . S
C1455 C1456 1.400 . S
C1455 C1460 1.490 . S
C1456 H1446 0.930 . S
C1456 C1455 1.400 . S
C1456 C1459 1.386 . S
H1457 C1473 0.930 . S
H1458 C1474 0.931 . S
C1459 H1447 0.929 . S
C1459 C1453 1.390 . S
C1459 C1456 1.386 . S
C1460 C1455 1.490 . S
C1460 C1462 1.395 . S
C1460 C1463 1.403 . S
H1461 C1467 0.930 . S
C1462 H1448 0.930 . S
C1462 C1460 1.395 . S
C1462 C1465 1.403 . S
C1463 C1460 1.403 . S
C1463 C1464 1.524 . S
C1463 C1467 1.400 . S
C1464 H1449 0.960 . S
C1464 H1450 0.960 . S
C1464 H1451 0.960 . S
C1464 C1463 1.524 . S
C1465 C1462 1.403 . S
C1465 C1466 1.392 . S
C1465 C1469 1.495 . S
C1466 C1465 1.392 . S
C1466 C1467 1.385 . S
C1466 C1468 1.478 . S
C1467 H1461 0.930 . S
C1467 C1463 1.400 . S
C1467 C1466 1.385 . S
C1468 C1466 1.478 . S
C1468 C1470 1.381 . S
C1468 C1474 1.383 . S
C1469 C1465 1.495 . S
C1469 H1475 0.959 . S
C1469 H1476 0.961 . S
C1469 H1477 0.960 . S
C1470 C1468 1.381 . S
C1470 C1471 1.394 . S
C1470 H1478 0.930 . S
C1471 C1470 1.394 . S
C1471 C1472 1.383 . S
C1471 H1479 0.929 . S
C1472 C1471 1.383 . S
C1472 C1473 1.377 . S
C1473 H1457 0.930 . S
C1473 C1472 1.377 . S
C1473 C1474 1.379 . S
C1474 H1458 0.931 . S
C1474 C1468 1.383 . S
C1474 C1473 1.379 . S
H1475 C1469 0.959 . S
H1476 C1469 0.961 . S
H1477 C1469 0.960 . S
H1478 C1470 0.930 . S
H1479 C1471 0.929 . S
H1480 C1488 0.929 . S
H1481 C1490 0.930 . S
H1482 C1492 0.930 . S
H1483 C1495 0.929 . S
H1484 C1498 0.930 . S
H1485 C1500 0.960 . S
H1486 C1500 0.960 . S
H1487 C1500 0.960 . S
C1488 H1480 0.929 . S
C1488 C1489 1.377 . S
C1488 C1490 1.384 . S
C1489 C1488 1.377 . S
C1489 C1495 1.390 . S
C1490 H1481 0.930 . S
C1490 C1488 1.384 . S
C1490 C1491 1.372 . S
C1491 C1490 1.372 . S
C1491 C1492 1.400 . S
C1491 C1496 1.490 . S
C1492 H1482 0.930 . S
C1492 C1491 1.400 . S
C1492 C1495 1.386 . S
H1493 C1509 0.930 . S
H1494 C1510 0.931 . S
C1495 H1483 0.929 . S
C1495 C1489 1.390 . S
C1495 C1492 1.386 . S
C1496 C1491 1.490 . S
C1496 C1498 1.395 . S
C1496 C1499 1.403 . S
H1497 C1503 0.930 . S
C1498 H1484 0.930 . S
C1498 C1496 1.395 . S
C1498 C1501 1.403 . S
C1499 C1496 1.403 . S
C1499 C1500 1.524 . S
C1499 C1503 1.400 . S
C1500 H1485 0.960 . S
C1500 H1486 0.960 . S
C1500 H1487 0.960 . S
C1500 C1499 1.524 . S
C1501 C1498 1.403 . S
C1501 C1502 1.392 . S
C1501 C1505 1.495 . S
C1502 C1501 1.392 . S
C1502 C1503 1.385 . S
C1502 C1504 1.478 . S
C1503 H1497 0.930 . S
C1503 C1499 1.400 . S
C1503 C1502 1.385 . S
C1504 C1502 1.478 . S
C1504 C1506 1.381 . S
C1504 C1510 1.383 . S
C1505 C1501 1.495 . S
C1505 H1511 0.959 . S
C1505 H1512 0.961 . S
C1505 H1513 0.960 . S
C1506 C1504 1.381 . S
C1506 C1507 1.394 . S
C1506 H1514 0.930 . S
C1507 C1506 1.394 . S
C1507 C1508 1.383 . S
C1507 H1515 0.929 . S
C1508 C1507 1.383 . S
C1508 C1509 1.377 . S
C1509 H1493 0.930 . S
C1509 C1508 1.377 . S
C1509 C1510 1.379 . S
C1510 H1494 0.931 . S
C1510 C1504 1.383 . S
C1510 C1509 1.379 . S
H1511 C1505 0.959 . S
H1512 C1505 0.961 . S
H1513 C1505 0.960 . S
H1514 C1506 0.930 . S
H1515 C1507 0.929 . S
H1516 C1524 0.929 . S
H1517 C1526 0.930 . S
H1518 C1528 0.930 . S
H1519 C1531 0.929 . S
H1520 C1534 0.930 . S
H1521 C1536 0.960 . S
H1522 C1536 0.960 . S
H1523 C1536 0.960 . S
C1524 H1516 0.929 . S
C1524 C1525 1.377 . S
C1524 C1526 1.384 . S
C1525 C1524 1.377 . S
C1525 C1531 1.390 . S
C1526 H1517 0.930 . S
C1526 C1524 1.384 . S
C1526 C1527 1.372 . S
C1527 C1526 1.372 . S
C1527 C1528 1.400 . S
C1527 C1532 1.490 . S
C1528 H1518 0.930 . S
C1528 C1527 1.400 . S
C1528 C1531 1.386 . S
H1529 C1545 0.930 . S
H1530 C1546 0.931 . S
C1531 H1519 0.929 . S
C1531 C1525 1.390 . S
C1531 C1528 1.386 . S
C1532 C1527 1.490 . S
C1532 C1534 1.395 . S
C1532 C1535 1.403 . S
H1533 C1539 0.930 . S
C1534 H1520 0.930 . S
C1534 C1532 1.395 . S
C1534 C1537 1.403 . S
C1535 C1532 1.403 . S
C1535 C1536 1.524 . S
C1535 C1539 1.400 . S
C1536 H1521 0.960 . S
C1536 H1522 0.960 . S
C1536 H1523 0.960 . S
C1536 C1535 1.524 . S
C1537 C1534 1.403 . S
C1537 C1538 1.392 . S
C1537 C1541 1.495 . S
C1538 C1537 1.392 . S
C1538 C1539 1.385 . S
C1538 C1540 1.478 . S
C1539 H1533 0.930 . S
C1539 C1535 1.400 . S
C1539 C1538 1.385 . S
C1540 C1538 1.478 . S
C1540 C1542 1.381 . S
C1540 C1546 1.383 . S
C1541 C1537 1.495 . S
C1541 H1547 0.959 . S
C1541 H1548 0.961 . S
C1541 H1549 0.960 . S
C1542 C1540 1.381 . S
C1542 C1543 1.394 . S
C1542 H1550 0.930 . S
C1543 C1542 1.394 . S
C1543 C1544 1.383 . S
C1543 H1551 0.929 . S
C1544 C1543 1.383 . S
C1544 C1545 1.377 . S
C1545 H1529 0.930 . S
C1545 C1544 1.377 . S
C1545 C1546 1.379 . S
C1546 H1530 0.931 . S
C1546 C1540 1.383 . S
C1546 C1545 1.379 . S
H1547 C1541 0.959 . S
H1548 C1541 0.961 . S
H1549 C1541 0.960 . S
H1550 C1542 0.930 . S
H1551 C1543 0.929 . S
H1552 C1560 0.929 . S
H1553 C1562 0.930 . S
H1554 C1564 0.930 . S
H1555 C1567 0.929 . S
H1556 C1570 0.930 . S
H1557 C1572 0.960 . S
H1558 C1572 0.960 . S
H1559 C1572 0.960 . S
C1560 H1552 0.929 . S
C1560 C1561 1.377 . S
C1560 C1562 1.384 . S
C1561 C1560 1.377 . S
C1561 C1567 1.390 . S
C1562 H1553 0.930 . S
C1562 C1560 1.384 . S
C1562 C1563 1.372 . S
C1563 C1562 1.372 . S
C1563 C1564 1.400 . S
C1563 C1568 1.490 . S
C1564 H1554 0.930 . S
C1564 C1563 1.400 . S
C1564 C1567 1.386 . S
H1565 C1581 0.930 . S
H1566 C1582 0.931 . S
C1567 H1555 0.929 . S
C1567 C1561 1.390 . S
C1567 C1564 1.386 . S
C1568 C1563 1.490 . S
C1568 C1570 1.395 . S
C1568 C1571 1.403 . S
H1569 C1575 0.930 . S
C1570 H1556 0.930 . S
C1570 C1568 1.395 . S
C1570 C1573 1.403 . S
C1571 C1568 1.403 . S
C1571 C1572 1.524 . S
C1571 C1575 1.400 . S
C1572 H1557 0.960 . S
C1572 H1558 0.960 . S
C1572 H1559 0.960 . S
C1572 C1571 1.524 . S
C1573 C1570 1.403 . S
C1573 C1574 1.392 . S
C1573 C1577 1.495 . S
C1574 C1573 1.392 . S
C1574 C1575 1.385 . S
C1574 C1576 1.478 . S
C1575 H1569 0.930 . S
C1575 C1571 1.400 . S
C1575 C1574 1.385 . S
C1576 C1574 1.478 . S
C1576 C1578 1.381 . S
C1576 C1582 1.383 . S
C1577 C1573 1.495 . S
C1577 H1583 0.959 . S
C1577 H1584 0.961 . S
C1577 H1585 0.960 . S
C1578 C1576 1.381 . S
C1578 C1579 1.394 . S
C1578 H1586 0.930 . S
C1579 C1578 1.394 . S
C1579 C1580 1.383 . S
C1579 H1587 0.929 . S
C1580 C1579 1.383 . S
C1580 C1581 1.377 . S
C1581 H1565 0.930 . S
C1581 C1580 1.377 . S
C1581 C1582 1.379 . S
C1582 H1566 0.931 . S
C1582 C1576 1.383 . S
C1582 C1581 1.379 . S
H1583 C1577 0.959 . S
H1584 C1577 0.961 . S
H1585 C1577 0.960 . S
H1586 C1578 0.930 . S
H1587 C1579 0.929 . S
H1588 C1596 0.929 . S
H1589 C1598 0.930 . S
H1590 C1600 0.930 . S
H1591 C1603 0.929 . S
H1592 C1606 0.930 . S
H1593 C1608 0.960 . S
H1594 C1608 0.960 . S
H1595 C1608 0.960 . S
C1596 H1588 0.929 . S
C1596 C1597 1.377 . S
C1596 C1598 1.384 . S
C1597 C1596 1.377 . S
C1597 C1603 1.390 . S
C1598 H1589 0.930 . S
C1598 C1596 1.384 . S
C1598 C1599 1.372 . S
C1599 C1598 1.372 . S
C1599 C1600 1.400 . S
C1599 C1604 1.490 . S
C1600 H1590 0.930 . S
C1600 C1599 1.400 . S
C1600 C1603 1.386 . S
H1601 C1617 0.930 . S
H1602 C1618 0.931 . S
C1603 H1591 0.929 . S
C1603 C1597 1.390 . S
C1603 C1600 1.386 . S
C1604 C1599 1.490 . S
C1604 C1606 1.395 . S
C1604 C1607 1.403 . S
H1605 C1611 0.930 . S
C1606 H1592 0.930 . S
C1606 C1604 1.395 . S
C1606 C1609 1.403 . S
C1607 C1604 1.403 . S
C1607 C1608 1.524 . S
C1607 C1611 1.400 . S
C1608 H1593 0.960 . S
C1608 H1594 0.960 . S
C1608 H1595 0.960 . S
C1608 C1607 1.524 . S
C1609 C1606 1.403 . S
C1609 C1610 1.392 . S
C1609 C1613 1.495 . S
C1610 C1609 1.392 . S
C1610 C1611 1.385 . S
C1610 C1612 1.478 . S
C1611 H1605 0.930 . S
C1611 C1607 1.400 . S
C1611 C1610 1.385 . S
C1612 C1610 1.478 . S
C1612 C1614 1.381 . S
C1612 C1618 1.383 . S
C1613 C1609 1.495 . S
C1613 H1619 0.959 . S
C1613 H1620 0.961 . S
C1613 H1621 0.960 . S
C1614 C1612 1.381 . S
C1614 C1615 1.394 . S
C1614 H1622 0.930 . S
C1615 C1614 1.394 . S
C1615 C1616 1.383 . S
C1615 H1623 0.929 . S
C1616 C1615 1.383 . S
C1616 C1617 1.377 . S
C1617 H1601 0.930 . S
C1617 C1616 1.377 . S
C1617 C1618 1.379 . S
C1618 H1602 0.931 . S
C1618 C1612 1.383 . S
C1618 C1617 1.379 . S
H1619 C1613 0.959 . S
H1620 C1613 0.961 . S
H1621 C1613 0.960 . S
H1622 C1614 0.930 . S
H1623 C1615 0.929 . S
C500 C384 1.256 . S
C481 C8 1.244 . S
C536 C398 1.230 . S
C517 C61 1.241 . S
C572 C411 1.256 . S
C553 C107 1.243 . S
C589 C139 1.248 . S
C608 C378 1.250 . S
C625 C192 1.253 . S
C644 C371 1.270 . S
C661 C238 1.253 . S
C680 C391 1.244 . S
C716 C399 1.236 . S
C697 C284 1.251 . S
C752 C412 1.253 . S
C733 C330 1.250 . S
C769 C100 1.247 . S
C788 C438 1.245 . S
C824 C456 1.229 . S
C805 C160 1.241 . S
C841 C15 1.241 . S
C860 C463 1.262 . S
C896 C430 1.245 . S
C877 C54 1.249 . S
C913 C291 1.257 . S
C932 C423 1.246 . S
C949 C337 1.246 . S
C968 C437 1.250 . S
C1004 C449 1.247 . S
C985 C199 1.246 . S
C1021 C245 1.251 . S
C1040 C464 1.240 . S
C1076 C397 1.724 . S
C1057 C1 1.753 . S
C1112 C410 1.738 . S
C1093 C68 1.747 . S
C1129 C114 1.740 . S
C1148 C373 1.729 . S
C1165 C146 1.744 . S
C1184 C385 1.715 . S
C1201 C185 1.738 . S
C1220 C417 1.701 . S
C1256 C372 1.699 . S
C1237 C231 1.742 . S
C1292 C386 1.726 . S
C1273 C277 1.749 . S
C1328 C404 1.734 . S
C1309 C323 1.742 . S
C1364 C451 1.735 . S
C1345 C93 1.752 . S
C1400 C462 1.750 . S
C1381 C153 1.746 . S
C1417 C22 1.743 . S
C1436 C425 1.729 . S
C1472 C443 1.734 . S
C1453 C47 1.742 . S
C1508 C469 1.716 . S
C1489 C298 1.731 . S
C1525 C344 1.733 . S
C1544 C424 1.723 . S
C1580 C436 1.722 . S
C1561 C206 1.741 . S
C1616 C450 1.702 . S
C1597 C252 1.739 . S
