# Generated by pormake.
# Topology pth, (4,4)-cn, num edge types: 1
# Building blocks:
#     Node 0, Type 0, BuildingBlock: KUFVIS_clean_sbu_0, # of connection points: 4
#     Node 1, Type 0, BuildingBlock: KUFVIS_clean_sbu_0, # of connection points: 4
#     Node 2, Type 0, BuildingBlock: KUFVIS_clean_sbu_0, # of connection points: 4
#     Node 3, Type 1, BuildingBlock: MIFKUJ_clean_linker_1, # of connection points: 4
#     Node 4, Type 1, BuildingBlock: MIFKUJ_clean_linker_1, # of connection points: 4
#     Node 5, Type 1, BuildingBlock: MIFKUJ_clean_linker_1, # of connection points: 4
#     Edge 6, Type (0, 1), BuildingBlock: KIFKEQ_clean_linker_1, # of connection points: 2
#     Edge 7, Type (0, 1), BuildingBlock: KIFKEQ_clean_linker_1, # of connection points: 2
#     Edge 8, Type (0, 1), BuildingBlock: KIFKEQ_clean_linker_1, # of connection points: 2
#     Edge 9, Type (0, 1), BuildingBlock: KIFKEQ_clean_linker_1, # of connection points: 2
#     Edge 10, Type (0, 1), BuildingBlock: KIFKEQ_clean_linker_1, # of connection points: 2
#     Edge 11, Type (0, 1), BuildingBlock: KIFKEQ_clean_linker_1, # of connection points: 2
#     Edge 12, Type (0, 1), BuildingBlock: KIFKEQ_clean_linker_1, # of connection points: 2
#     Edge 13, Type (0, 1), BuildingBlock: KIFKEQ_clean_linker_1, # of connection points: 2
#     Edge 14, Type (0, 1), BuildingBlock: KIFKEQ_clean_linker_1, # of connection points: 2
#     Edge 15, Type (0, 1), BuildingBlock: KIFKEQ_clean_linker_1, # of connection points: 2
#     Edge 16, Type (0, 1), BuildingBlock: KIFKEQ_clean_linker_1, # of connection points: 2
#     Edge 17, Type (0, 1), BuildingBlock: KIFKEQ_clean_linker_1, # of connection points: 2
# Relax obj value: 0.017
# Max RMSD: 0.085
# Mean RMSD: 0.064
data_MOF--net-pth--node1-KUFVIS_clean_sbu_0--node2-MIFKUJ_clean_linker_1--edge1-KIFKEQ_clean_linker_1
_symmetry_space_group_name_H-M    P1
_symmetry_Int_Tables_number       1
_symmetry_cell_setting            triclinic
loop_
_symmetry_equiv_pos_as_xyz
'x, y, z'
_cell_length_a     29.439922
_cell_length_b     29.484127
_cell_length_c     64.979837
_cell_angle_alpha  90.412099
_cell_angle_beta   91.654191
_cell_angle_gamma 119.99732
loop_
_atom_site_label
_atom_site_type_symbol
_atom_site_fract_x
_atom_site_fract_y
_atom_site_fract_z
_atom_type_partial_charge
Mn0 Mn 0.04273 0.06019 0.04544 0.0
Mn1 Mn 0.96953 0.09872 0.01782 0.0
C2 C 0.98866 0.00807 0.01838 0.0
C3 C 0.0527 0.01689 0.07357 0.0
C4 C 0.08599 0.14268 0.01207 0.0
O5 O 0.04519 0.11767 0.06377 0.0
O6 O 0.99232 0.1372 0.04482 0.0
C7 C 0.87804 0.0573 0.04451 0.0
N8 N 0.89818 0.05985 0.02567 0.0
C9 C 0.81209 1.00416 0.01029 0.0
C10 C 0.79036 1.00121 0.0295 0.0
C11 C 0.82352 0.02772 0.0467 0.0
C12 C 0.86669 0.03416 0.00906 0.0
H13 H 0.90338 0.07769 0.05776 0.0
C14 C 0.02091 0.14297 0.06098 0.0
O15 O 0.09318 0.0527 0.06432 0.0
O16 O 1.00686 0.00752 0.06684 0.0
N17 N 0.94396 0.06465 0.99143 0.0
C18 C 0.97135 0.06892 0.9743 0.0
C19 C 0.94408 0.04315 0.9559 0.0
C20 C 0.88898 0.01396 0.95522 0.0
C21 C 0.86163 0.0107 0.97297 0.0
C22 C 0.89092 0.03706 0.99088 0.0
H23 H 0.01368 0.09149 0.97471 0.0
O24 O 0.02765 1.00291 0.02514 0.0
O25 O 0.98169 0.043 0.0279 0.0
O26 O 0.09284 0.11519 0.02558 0.0
O27 O 0.04183 0.1399 0.00829 0.0
C28 C 0.8065 0.9817 0.97369 0.0
C29 C 0.78176 0.97811 0.99237 0.0
H30 H 0.74833 0.97842 0.03126 0.0
H31 H 0.80708 0.02544 0.0616 0.0
H32 H 0.96547 0.04583 0.94227 0.0
H33 H 0.86809 0.99394 0.94103 0.0
H34 H 0.78276 0.96143 0.96003 0.0
H35 H 0.7394 0.95491 0.9928 0.0
Mn36 Mn 0.02005 0.05482 0.3772 0.0
Mn37 Mn 0.08889 0.16694 0.40536 0.0
C38 C 0.07405 0.05872 0.40447 0.0
C39 C 0.014 1.00308 0.3488 0.0
C40 C 0.9719 0.09261 0.40921 0.0
O41 O 0.01645 0.10937 0.35917 0.0
O42 O 0.07049 0.1829 0.37771 0.0
C43 C 0.18525 0.21864 0.38141 0.0
N44 N 0.16171 0.19983 0.39958 0.0
C45 C 0.24486 0.22673 0.41702 0.0
C46 C 0.27004 0.24675 0.39853 0.0
C47 C 0.24008 0.24258 0.38064 0.0
C48 C 0.19014 0.20365 0.41689 0.0
H49 H 0.16234 0.2153 0.36761 0.0
C50 C 0.04169 0.15918 0.36163 0.0
O51 O 0.97223 0.99642 0.35773 0.0
O52 O 0.05876 0.0407 0.35597 0.0
N53 N 0.10967 0.15696 0.43237 0.0
C54 C 0.07908 0.1325 0.44858 0.0
C55 C 0.10286 0.13129 0.46746 0.0
C56 C 0.15777 0.15547 0.46951 0.0
C57 C 0.18845 0.18083 0.45267 0.0
C58 C 0.16259 0.1811 0.43428 0.0
H59 H 0.03686 0.11374 0.44709 0.0
O60 O 0.03658 0.01386 0.39739 0.0
O61 O 0.0792 0.09987 0.39519 0.0
O62 O 0.96772 0.05687 0.39679 0.0
O63 O 0.01471 0.13567 0.41279 0.0
C64 C 0.24359 0.20476 0.45327 0.0
C65 C 0.27177 0.22768 0.43546 0.0
H66 H 0.31228 0.26489 0.39783 0.0
H67 H 0.25921 0.25766 0.36628 0.0
H68 H 0.07891 0.11155 0.48037 0.0
H69 H 0.17593 0.15393 0.48403 0.0
H70 H 0.26465 0.20496 0.46725 0.0
H71 H 0.31408 0.24521 0.43602 0.0
Mn72 Mn 0.04093 0.05705 0.71147 0.0
Mn73 Mn 1.00053 0.12831 0.73819 0.0
C74 C 0.09298 0.11194 0.73829 0.0
C75 C 0.08442 0.0478 0.6837 0.0
C76 C 0.95895 0.01257 0.74476 0.0
O77 O 0.98214 0.05295 0.69286 0.0
O78 O 0.96071 0.10402 0.71132 0.0
C79 C 0.03946 0.2189 0.71071 0.0
N80 N 0.03829 0.19938 0.72974 0.0
C81 C 0.09598 0.28565 0.74419 0.0
C82 C 0.09755 0.30673 0.72477 0.0
C83 C 0.06929 0.27318 0.70795 0.0
C84 C 0.06558 0.23126 0.746 0.0
H85 H 0.01784 0.19323 0.69774 0.0
C86 C 0.95513 0.07536 0.69544 0.0
O87 O 0.04927 0.00723 0.69315 0.0
O88 O 0.09293 0.09333 0.68998 0.0
N89 N 0.0355 0.15477 0.76448 0.0
C90 C 0.03128 0.12803 0.78201 0.0
C91 C 0.05811 0.15578 0.80017 0.0
C92 C 0.0884 0.2107 0.8002 0.0
C93 C 0.09138 0.2374 0.78207 0.0
C94 C 0.06368 0.20767 0.76445 0.0
H95 H 0.00792 0.08583 0.7821 0.0
O96 O 0.09922 0.07368 0.73195 0.0
O97 O 0.05703 0.11764 0.7285 0.0
O98 O 0.98691 0.0066 0.73152 0.0
O99 O 0.96076 0.05618 0.74822 0.0
C100 C 0.1213 0.2923 0.78071 0.0
C101 C 0.12383 0.31639 0.76177 0.0
H102 H 0.12058 0.34856 0.72257 0.0
H103 H 0.07049 0.28913 0.6929 0.0
H104 H 0.05552 0.13488 0.81411 0.0
H105 H 0.10935 0.23194 0.8142 0.0
H106 H 0.143 0.31633 0.7941 0.0
H107 H 0.14756 0.35858 0.76086 0.0
H108 H 0.10414 0.4929 0.20415 0.0
H109 H 0.10311 0.42192 0.18385 0.0
H110 H 0.96855 0.40369 0.14816 0.0
H111 H 0.96883 0.47314 0.16884 0.0
H112 H 0.04404 0.57566 0.17333 0.0
H113 H 0.09749 0.53773 0.2533 0.0
H114 H 0.09692 0.46858 0.27383 0.0
H115 H 0.96079 0.35272 0.23845 0.0
H116 H 0.96071 0.42269 0.21826 0.0
H117 H 0.95077 0.60181 0.24447 0.0
H118 H 0.94563 0.67048 0.26394 0.0
H119 H 0.10103 0.78388 0.24524 0.0
H120 H 0.1062 0.71489 0.22609 0.0
H121 H 0.02381 0.56708 0.24897 0.0
H122 H 0.96592 0.64657 0.19585 0.0
H123 H 0.97443 0.72117 0.17659 0.0
H124 H 0.13006 0.75837 0.15954 0.0
H125 H 0.12047 0.6828 0.17838 0.0
C126 C 0.0362 0.48793 0.18814 0.0
C127 C 0.07416 0.47319 0.19207 0.0
C128 C 0.07377 0.43292 0.18036 0.0
C129 C 0.0355 0.40685 0.16448 0.0
C130 C 0.99794 0.42218 0.16052 0.0
C131 C 0.99834 0.46227 0.1722 0.0
C132 C 0.03574 0.53042 0.20033 0.0
C133 C 0.03965 0.5737 0.18988 0.0
C134 C 0.03069 0.52832 0.22196 0.0
C135 C 0.02942 0.48539 0.23416 0.0
C136 C 0.06742 0.49746 0.24998 0.0
C137 C 0.06734 0.45778 0.26157 0.0
C138 C 0.02912 0.40503 0.25764 0.0
C139 C 0.99064 0.39297 0.2419 0.0
C140 C 0.99077 0.43284 0.23027 0.0
C141 C 0.02875 0.65334 0.23379 0.0
C142 C 0.98374 0.64147 0.24463 0.0
C143 C 0.98068 0.68079 0.25558 0.0
C144 C 0.02286 0.73261 0.25607 0.0
C145 C 0.06805 0.74427 0.24528 0.0
C146 C 0.07095 0.70499 0.23424 0.0
C147 C 0.03134 0.61164 0.2219 0.0
C148 C 0.02806 0.56877 0.23242 0.0
C149 C 0.03787 0.61445 0.2004 0.0
C150 C 0.04261 0.6593 0.18856 0.0
C151 C 1.00185 0.67091 0.18796 0.0
C152 C 1.00698 0.71381 0.17705 0.0
C153 C 0.05306 0.74605 0.16654 0.0
C154 C 0.09376 0.73408 0.16719 0.0
C155 C 0.08844 0.69098 0.17799 0.0
H156 H 0.62289 0.12424 0.5121 0.0
H157 H 0.69235 0.12978 0.49089 0.0
H158 H 0.64582 0.96933 0.50483 0.0
H159 H 0.57805 0.96534 0.52691 0.0
H160 H 0.51442 0.05198 0.50662 0.0
H161 H 0.65456 0.10496 0.55647 0.0
H162 H 0.72357 0.10427 0.57799 0.0
H163 H 0.6096 0.95577 0.60241 0.0
H164 H 0.54066 0.95638 0.58064 0.0
H165 H 0.39865 0.95814 0.57949 0.0
H166 H 0.32977 0.95845 0.59969 0.0
H167 H 0.37554 0.11372 0.57868 0.0
H168 H 0.44469 0.11345 0.55878 0.0
H169 H 0.50581 0.02378 0.58187 0.0
H170 H 0.36376 0.9775 0.53345 0.0
H171 H 0.2964 0.98455 0.51309 0.0
H172 H 0.41663 0.12401 0.48532 0.0
H173 H 0.48392 0.11859 0.50641 0.0
C174 C 0.5955 0.04447 0.52108 0.0
C175 C 0.62795 0.09041 0.51064 0.0
C176 C 0.66738 0.09327 0.49836 0.0
C177 C 0.67458 0.0498 0.49588 0.0
C178 C 0.64205 1.00384 0.50653 0.0
C179 C 0.60307 1.00133 0.5191 0.0
C180 C 0.55243 0.04128 0.53336 0.0
C181 C 0.51274 0.04646 0.52313 0.0
C182 C 0.54983 0.03259 0.55477 0.0
C183 C 0.59243 0.0304 0.56674 0.0
C184 C 0.64456 0.07162 0.56607 0.0
C185 C 0.68403 0.07123 0.57842 0.0
C186 C 0.67204 0.02996 0.5919 0.0
C187 C 0.61997 0.98835 0.59232 0.0
C188 C 0.58057 0.9886 0.57987 0.0
C189 C 0.42656 0.03562 0.56754 0.0
C190 C 0.39388 0.99226 0.5793 0.0
C191 C 0.35429 0.99232 0.59068 0.0
C192 C 0.34713 0.03605 0.59072 0.0
C193 C 0.3803 0.07961 0.57908 0.0
C194 C 0.41962 0.07939 0.5676 0.0
C195 C 0.46795 0.03517 0.55517 0.0
C196 C 0.50723 0.02906 0.56535 0.0
C197 C 0.47041 0.04345 0.53369 0.0
C198 C 0.42905 0.04794 0.52173 0.0
C199 C 0.37569 0.01036 0.52338 0.0
C200 C 0.33721 0.01421 0.51169 0.0
C201 C 0.35152 0.05485 0.49772 0.0
C202 C 0.40475 0.09224 0.49596 0.0
C203 C 0.44313 0.08903 0.50795 0.0
H204 H 0.51258 0.43421 0.84094 0.0
H205 H 0.43906 0.36594 0.82022 0.0
H206 H 0.33443 0.41038 0.84755 0.0
H207 H 0.40838 0.47935 0.86789 0.0
H208 H 0.55097 0.54041 0.84039 0.0
H209 H 0.46954 0.40138 0.88964 0.0
H210 H 0.39767 0.33805 0.91013 0.0
H211 H 0.3884 0.46491 0.93966 0.0
H212 H 0.458 0.52743 0.91841 0.0
H213 H 0.58515 0.65031 0.91873 0.0
H214 H 0.65402 0.72239 0.93926 0.0
H215 H 0.77128 0.70768 0.9059 0.0
H216 H 0.70175 0.63264 0.88651 0.0
H217 H 0.5556 0.5539 0.91659 0.0
H218 H 0.61952 0.68956 0.86745 0.0
H219 H 0.68412 0.75989 0.8468 0.0
H220 H 0.72052 0.65034 0.81757 0.0
H221 H 0.65559 0.57998 0.83833 0.0
C222 C 0.46584 0.4615 0.85607 0.0
C223 C 0.47376 0.4291 0.84249 0.0
C224 C 0.43166 0.3899 0.83078 0.0
C225 C 0.38091 0.38268 0.8323 0.0
C226 C 0.37312 0.41523 0.84593 0.0
C227 C 0.41522 0.45433 0.85769 0.0
C228 C 0.51093 0.50403 0.86798 0.0
C229 C 0.55245 0.54299 0.85708 0.0
C230 C 0.51182 0.50823 0.88971 0.0
C231 C 0.46878 0.46919 0.90226 0.0
C232 C 0.45152 0.41544 0.90034 0.0
C233 C 0.41085 0.37931 0.91227 0.0
C234 C 0.38701 0.39629 0.92652 0.0
C235 C 0.40507 0.45025 0.9286 0.0
C236 C 0.44532 0.48618 0.91658 0.0
C237 C 0.63809 0.63613 0.90093 0.0
C238 C 0.62569 0.66229 0.91593 0.0
C239 C 0.66531 0.70415 0.92749 0.0
C240 C 0.71849 0.72145 0.92416 0.0
C241 C 0.73086 0.69524 0.90907 0.0
C242 C 0.69107 0.65269 0.89773 0.0
C243 C 0.59524 0.59098 0.88903 0.0
C244 C 0.55434 0.55129 0.8999 0.0
C245 C 0.594 0.587 0.86726 0.0
C246 C 0.63326 0.62965 0.85466 0.0
C247 C 0.64176 0.68077 0.85675 0.0
C248 C 0.67878 0.72096 0.84494 0.0
C249 C 0.70775 0.71079 0.83063 0.0
C250 C 0.69859 0.65938 0.82834 0.0
C251 C 0.66163 0.61918 0.84022 0.0
H252 H 0.08857 0.18082 0.09499 0.0
H253 H 0.96121 0.1895 0.06402 0.0
H254 H 0.0931 0.24201 0.12176 0.0
H255 H 0.96614 0.25037 0.09052 0.0
H256 H 0.95021 0.3145 0.15125 0.0
H257 H 0.94784 0.24893 0.12754 0.0
H258 H 0.1168 0.3369 0.12518 0.0
H259 H 0.11926 0.40309 0.14882 0.0
C260 C 0.06158 0.19567 0.09387 0.0
C261 C 0.02457 0.18021 0.07731 0.0
C262 C 0.06436 0.23085 0.10916 0.0
C263 C 0.02976 0.25071 0.1083 0.0
C264 C 0.99282 0.23516 0.09179 0.0
C265 C 0.99033 0.20052 0.07648 0.0
C266 C 0.9869 0.31997 0.14568 0.0
C267 C 0.03486 0.36444 0.15171 0.0
C268 C 0.98552 0.28234 0.13212 0.0
C269 C 0.03208 0.28809 0.12431 0.0
C270 C 0.0803 0.33127 0.13104 0.0
C271 C 0.08168 0.36914 0.14459 0.0
H272 H 0.8872 0.99909 0.41948 0.0
H273 H 0.95191 0.16662 0.42472 0.0
H274 H 0.81288 0.98584 0.43989 0.0
H275 H 0.87745 0.15319 0.44472 0.0
H276 H 0.7058 0.10115 0.4594 0.0
H277 H 0.77579 0.10969 0.43781 0.0
H278 H 0.80454 0.01108 0.47849 0.0
H279 H 0.7362 1.00433 0.50082 0.0
C280 C 0.88528 0.03298 0.42479 0.0
C281 C 0.92537 0.08389 0.4205 0.0
C282 C 0.843 0.02538 0.43655 0.0
C283 C 0.83956 0.06852 0.44382 0.0
C284 C 0.87905 0.11928 0.43917 0.0
C285 C 0.92172 0.12691 0.4278 0.0
C286 C 0.72735 0.08178 0.464 0.0
C287 C 0.7155 0.05252 0.48208 0.0
C288 C 0.76717 0.0864 0.45149 0.0
C289 C 0.79548 0.0611 0.45652 0.0
C290 C 0.78288 0.03057 0.47419 0.0
C291 C 0.74358 0.02662 0.48692 0.0
H292 H 0.8961 0.0108 0.77527 0.0
H293 H 0.93991 0.91124 0.74236 0.0
H294 H 0.83725 0.93724 0.79569 0.0
H295 H 0.88132 0.83753 0.76324 0.0
H296 H 0.77907 0.81088 0.84334 0.0
H297 H 0.84099 0.88253 0.8226 0.0
H298 H 0.78741 0.7797 0.76877 0.0
H299 H 0.7254 0.70786 0.78957 0.0
C300 C 0.89337 0.97327 0.77238 0.0
C301 C 0.9229 0.96712 0.75709 0.0
C302 C 0.85981 0.9311 0.78425 0.0
C303 C 0.85479 0.88155 0.7812 0.0
C304 C 0.88399 0.87512 0.76586 0.0
C305 C 0.91776 0.91746 0.75396 0.0
C306 C 0.78031 0.8036 0.82706 0.0
C307 C 0.74702 0.75375 0.81809 0.0
C308 C 0.81581 0.84467 0.81517 0.0
C309 C 0.8189 0.83696 0.79399 0.0
C310 C 0.78642 0.78681 0.78508 0.0
C311 C 0.75087 0.74566 0.797 0.0
H312 H 0.13949 0.01049 0.08506 0.0
H313 H 0.97682 0.95039 0.09885 0.0
H314 H 0.14406 0.9497 0.10935 0.0
H315 H 0.9814 0.88984 0.12301 0.0
H316 H 0.01937 0.81463 0.17678 0.0
H317 H 0.02353 0.88563 0.15632 0.0
H318 H 0.10347 0.85178 0.10918 0.0
H319 H 0.09833 0.7801 0.12931 0.0
C320 C 0.10499 0.9849 0.09349 0.0
C321 C 0.05774 0.98502 0.08998 0.0
C322 C 0.10751 0.94989 0.10728 0.0
C323 C 0.06301 0.91484 0.11799 0.0
C324 C 0.01647 0.91664 0.11512 0.0
C325 C 0.01379 0.95117 0.1012 0.0
C326 C 0.03758 0.82209 0.162 0.0
C327 C 0.05819 0.7913 0.15466 0.0
C328 C 0.04019 0.86295 0.15034 0.0
C329 C 0.06385 0.87429 0.13116 0.0
C330 C 0.08569 0.8445 0.12405 0.0
C331 C 0.08273 0.80339 0.13562 0.0
H332 H 0.17845 0.10794 0.39903 0.0
H333 H 0.05966 0.00933 0.44083 0.0
H334 H 0.24625 0.10997 0.42205 0.0
H335 H 0.12683 0.00827 0.46352 0.0
H336 H 0.26326 0.05487 0.50938 0.0
H337 H 0.19669 0.0583 0.48714 0.0
H338 H 0.2816 0.05971 0.43366 0.0
H339 H 0.34912 0.0593 0.45605 0.0
C340 C 0.16713 0.08709 0.41333 0.0
C341 C 0.11447 0.06041 0.41872 0.0
C342 C 0.20576 0.08736 0.42637 0.0
C343 C 0.19228 0.05953 0.44481 0.0
C344 C 0.13898 0.0313 0.44977 0.0
C345 C 0.10042 0.03151 0.43676 0.0
C346 C 0.26748 0.05614 0.49285 0.0
C347 C 0.3112 0.05702 0.48437 0.0
C348 C 0.22927 0.05773 0.48008 0.0
C349 C 0.2335 0.05915 0.45853 0.0
C350 C 0.27738 0.05977 0.45015 0.0
C351 C 0.31599 0.05921 0.46294 0.0
H352 H 0.12426 0.09535 0.77572 0.0
H353 H 0.15204 0.21632 0.73268 0.0
H354 H 0.19237 0.16058 0.79932 0.0
H355 H 0.22079 0.28173 0.75595 0.0
H356 H 0.3045 0.39185 0.81105 0.0
H357 H 0.23314 0.32605 0.78901 0.0
H358 H 0.28685 0.21656 0.80165 0.0
H359 H 0.35743 0.28198 0.82413 0.0
C360 C 0.14491 0.13608 0.77145 0.0
C361 C 0.13196 0.15144 0.75286 0.0
C362 C 0.18407 0.17334 0.78482 0.0
C363 C 0.2118 0.22646 0.77958 0.0
C364 C 0.19946 0.24138 0.76066 0.0
C365 C 0.16013 0.2041 0.74736 0.0
C366 C 0.30062 0.35349 0.80934 0.0
C367 C 0.33658 0.3421 0.81934 0.0
C368 C 0.26 0.31593 0.79656 0.0
C369 C 0.2542 0.266 0.79358 0.0
C370 C 0.28982 0.25442 0.80379 0.0
C371 C 0.3306 0.29208 0.81649 0.0
H372 H 0.88125 0.10522 0.69776 0.0
H373 H 0.93643 0.02777 0.65709 0.0
H374 H 0.8133 0.09144 0.67227 0.0
H375 H 0.86769 0.01382 0.63152 0.0
H376 H 0.77352 0.05762 0.58382 0.0
H377 H 0.84245 0.06695 0.60841 0.0
H378 H 0.73186 0.01593 0.65712 0.0
H379 H 0.66347 0.00759 0.63274 0.0
C380 C 0.879 0.08524 0.68339 0.0
C381 C 0.91439 0.06749 0.67955 0.0
C382 C 0.83972 0.07705 0.66882 0.0
C383 C 0.83491 0.0512 0.64996 0.0
C384 C 0.87062 0.03404 0.64591 0.0
C385 C 0.90981 0.04186 0.6606 0.0
C386 C 0.76401 0.04833 0.59978 0.0
C387 C 0.7131 0.03199 0.60635 0.0
C388 C 0.80332 0.05325 0.6138 0.0
C389 C 0.7926 0.04246 0.6347 0.0
C390 C 0.74144 0.02508 0.64115 0.0
C391 C 0.70213 0.01979 0.62714 0.0
H392 H 0.88337 0.9507 0.02214 0.0
H393 H 0.00786 0.97458 0.98242 0.0
H394 H 0.81895 0.88304 0.99821 0.0
H395 H 0.94365 0.90592 0.9586 0.0
H396 H 0.8132 0.73445 0.93859 0.0
H397 H 0.88 0.80593 0.96031 0.0
H398 H 0.78491 0.87936 0.96081 0.0
H399 H 0.71933 0.80987 0.93826 0.0
C400 C 0.89664 0.94202 0.00805 0.0
C401 C 0.94997 0.9691 1.00356 0.0
C402 C 0.86 0.90317 0.99447 0.0
C403 C 0.87637 0.88971 0.97648 0.0
C404 C 0.93006 0.91569 0.97235 0.0
C405 C 0.96662 0.95496 0.98586 0.0
C406 C 0.80691 0.76636 0.94291 0.0
C407 C 0.7605 0.76601 0.93669 0.0
C408 C 0.84513 0.80716 0.95544 0.0
C409 C 0.83742 0.848 0.96228 0.0
C410 C 0.79156 0.84811 0.95591 0.0
C411 C 0.75382 0.80795 0.9431 0.0
H412 H 0.09236 0.01699 0.32383 0.0
H413 H 0.93101 0.90736 0.33688 0.0
H414 H 0.09291 0.95384 0.29969 0.0
H415 H 0.93197 0.8432 0.31318 0.0
H416 H 0.94085 0.75148 0.25788 0.0
H417 H 0.93665 0.8193 0.27817 0.0
H418 H 0.09454 0.87422 0.30221 0.0
H419 H 0.09887 0.80725 0.28171 0.0
C420 C 0.05685 0.97944 0.32144 0.0
C421 C 0.01174 0.967 0.33235 0.0
C422 C 0.05728 0.94303 0.30771 0.0
C423 C 0.01278 0.89303 0.30471 0.0
C424 C 0.96687 0.88141 0.31499 0.0
C425 C 0.96631 0.91813 0.32862 0.0
C426 C 0.97457 0.77808 0.26754 0.0
C427 C 0.02026 0.77414 0.26815 0.0
C428 C 0.97217 0.8169 0.27919 0.0
C429 C 0.01533 0.85249 0.29178 0.0
C430 C 0.06095 0.84835 0.29235 0.0
C431 C 0.06344 0.80982 0.28064 0.0
H432 H 0.09195 0.96186 0.67307 0.0
H433 H 0.15023 0.12381 0.6582 0.0
H434 H 0.15332 0.9581 0.64962 0.0
H435 H 0.21019 0.11969 0.63425 0.0
H436 H 0.35602 0.11546 0.61546 0.0
H437 H 0.2892 0.11653 0.6363 0.0
H438 H 0.17751 0.95922 0.61468 0.0
H439 H 0.24505 0.95797 0.59411 0.0
C440 C 0.11717 0.99635 0.66449 0.0
C441 C 0.11655 0.04324 0.6676 0.0
C442 C 0.15228 0.99419 0.65098 0.0
C443 C 0.18726 0.03879 0.64018 0.0
C444 C 0.18479 0.08494 0.64266 0.0
C445 C 0.15007 0.08721 0.65627 0.0
C446 C 0.31706 0.08128 0.61502 0.0
C447 C 0.30581 0.03666 0.60313 0.0
C448 C 0.27861 0.08191 0.62692 0.0
C449 C 0.22771 0.03805 0.62712 0.0
C450 C 0.2164 0.99345 0.61512 0.0
C451 C 0.25506 0.99272 0.60331 0.0
H452 H 0.19058 0.17414 0.01831 0.0
H453 H 0.08309 0.19333 0.9775 0.0
H454 H 0.26378 0.23501 0.99785 0.0
H455 H 0.15554 0.25232 0.95683 0.0
H456 H 0.29888 0.39876 0.93692 0.0
H457 H 0.2285 0.33846 0.95822 0.0
H458 H 0.30341 0.24504 0.96501 0.0
H459 H 0.37575 0.30739 0.94462 0.0
C460 C 0.18248 0.19103 0.00494 0.0
C461 C 0.13091 0.17905 0.99968 0.0
C462 C 0.22442 0.22569 0.99312 0.0
C463 C 0.21567 0.24887 0.97573 0.0
C464 C 0.16399 0.23618 0.97035 0.0
C465 C 0.12227 0.202 0.9822 0.0
C466 C 0.30085 0.3658 0.94317 0.0
C467 C 0.34322 0.35816 0.93909 0.0
C468 C 0.25999 0.3307 0.95517 0.0
C469 C 0.26002 0.28662 0.96328 0.0
C470 C 0.30233 0.27883 0.95919 0.0
C471 C 0.34348 0.31421 0.94725 0.0
H472 H 0.97333 0.12817 0.32782 0.0
H473 H 0.10344 0.26475 0.35775 0.0
H474 H 0.96925 0.18363 0.30078 0.0
H475 H 0.09896 0.31949 0.331 0.0
H476 H 0.11381 0.39653 0.27023 0.0
H477 H 0.11582 0.33378 0.29388 0.0
H478 H 0.94716 0.25582 0.29726 0.0
H479 H 0.94509 0.31908 0.27365 0.0
C480 C 1.00106 0.16986 0.32864 0.0
C481 C 0.03866 0.19194 0.34501 0.0
C482 C 0.99854 0.20158 0.31321 0.0
C483 C 0.03398 0.25584 0.31371 0.0
C484 C 0.0716 0.27772 0.33 0.0
C485 C 0.07385 0.24627 0.34546 0.0
C486 C 0.07711 0.36604 0.27601 0.0
C487 C 0.02937 0.36331 0.27029 0.0
C488 C 0.07828 0.33004 0.28952 0.0
C489 C 0.03172 0.29027 0.29762 0.0
C490 C 0.98365 0.28588 0.29118 0.0
C491 C 0.98249 0.32211 0.27766 0.0
loop_
_geom_bond_atom_site_label_1
_geom_bond_atom_site_label_2
_geom_bond_distance
_geom_bond_site_symmetry_2
_ccdc_geom_bond_type
Mn0 O5 2.095 . S
Mn0 O15 2.162 . S
Mn0 O16 2.297 1_545 S
Mn0 O24 2.385 1_545 S
Mn0 O25 2.209 1_455 S
Mn0 O26 2.094 . S
Mn1 O6 2.121 . S
Mn1 N8 2.257 . S
Mn1 N17 2.282 1_554 S
Mn1 O25 2.215 . S
Mn1 O27 2.117 1_655 S
C2 O24 1.234 1_655 S
C2 O25 1.283 1_565 S
C3 O15 1.281 1_565 S
C3 O16 1.236 . S
C4 O26 1.240 . S
C4 O27 1.264 . S
O5 Mn0 2.095 . S
O5 C14 1.250 . S
O6 Mn1 2.121 . S
O6 C14 1.258 1_655 S
C7 N8 1.326 . S
C7 C11 1.460 . S
C7 H13 0.929 . S
N8 Mn1 2.257 . S
N8 C7 1.326 . S
N8 C12 1.362 1_554 S
C9 C10 1.258 1_556 S
C9 C12 1.431 . S
C9 C29 1.449 . S
C10 C9 1.258 1_554 S
C10 C11 1.477 . S
C10 H30 0.931 1_554 S
C11 C7 1.460 . S
C11 C10 1.477 . S
C11 H31 0.930 . S
C12 N8 1.362 1_556 S
C12 C9 1.431 . S
C12 C22 1.476 . S
H13 C7 0.929 . S
C14 O5 1.250 . S
C14 O6 1.258 1_455 S
O15 Mn0 2.162 . S
O15 C3 1.281 1_545 S
O16 Mn0 2.297 1_565 S
O16 C3 1.236 . S
N17 Mn1 2.282 1_556 S
N17 C18 1.328 . S
N17 C22 1.318 . S
C18 N17 1.328 . S
C18 C19 1.457 . S
C18 H23 0.929 1_655 S
C19 C18 1.457 . S
C19 C20 1.291 . S
C19 H32 0.931 . S
C20 C19 1.291 . S
C20 C21 1.373 . S
C20 H33 0.929 . S
C21 C20 1.373 . S
C21 C22 1.396 . S
C21 C28 1.403 . S
C22 C12 1.476 . S
C22 N17 1.318 . S
C22 C21 1.396 . S
H23 C18 0.929 1_455 S
O24 Mn0 2.385 1_565 S
O24 C2 1.234 1_455 S
O25 Mn0 2.209 1_655 S
O25 Mn1 2.215 . S
O25 C2 1.283 1_545 S
O26 Mn0 2.094 . S
O26 C4 1.240 . S
O27 Mn1 2.117 1_455 S
O27 C4 1.264 . S
C28 C21 1.403 . S
C28 C29 1.399 . S
C28 H34 0.929 . S
C29 C9 1.449 . S
C29 C28 1.399 . S
C29 H35 0.930 . S
H30 C10 0.931 1_556 S
H31 C11 0.930 . S
H32 C19 0.931 . S
H33 C20 0.929 . S
H34 C28 0.929 . S
H35 C29 0.930 . S
Mn36 O41 2.095 . S
Mn36 O51 2.162 1_545 S
Mn36 O52 2.297 1_655 S
Mn36 O60 2.385 1_655 S
Mn36 O61 2.209 1_655 S
Mn36 O62 2.094 . S
Mn37 O42 2.121 . S
Mn37 N44 2.257 . S
Mn37 N53 2.282 . S
Mn37 O61 2.215 . S
Mn37 O63 2.117 1_455 S
C38 O60 1.234 . S
C38 O61 1.283 . S
C39 O51 1.281 1_455 S
C39 O52 1.236 1_565 S
C40 O62 1.240 . S
C40 O63 1.264 . S
O41 Mn36 2.095 . S
O41 C50 1.250 1_655 S
O42 Mn37 2.121 . S
O42 C50 1.258 . S
C43 N44 1.326 . S
C43 C47 1.460 . S
C43 H49 0.929 . S
N44 Mn37 2.257 . S
N44 C43 1.326 . S
N44 C48 1.362 . S
C45 C46 1.258 . S
C45 C48 1.431 . S
C45 C65 1.449 . S
C46 C45 1.258 . S
C46 C47 1.477 . S
C46 H66 0.931 . S
C47 C43 1.460 . S
C47 C46 1.477 . S
C47 H67 0.930 . S
C48 N44 1.362 . S
C48 C45 1.431 . S
C48 C58 1.476 . S
H49 C43 0.929 . S
C50 O41 1.250 1_455 S
C50 O42 1.258 . S
O51 Mn36 2.162 1_565 S
O51 C39 1.281 1_655 S
O52 Mn36 2.297 1_455 S
O52 C39 1.236 1_545 S
N53 Mn37 2.282 . S
N53 C54 1.328 . S
N53 C58 1.318 . S
C54 N53 1.328 . S
C54 C55 1.457 . S
C54 H59 0.929 . S
C55 C54 1.457 . S
C55 C56 1.291 . S
C55 H68 0.931 . S
C56 C55 1.291 . S
C56 C57 1.373 . S
C56 H69 0.929 . S
C57 C56 1.373 . S
C57 C58 1.396 . S
C57 C64 1.403 . S
C58 C48 1.476 . S
C58 N53 1.318 . S
C58 C57 1.396 . S
H59 C54 0.929 . S
O60 Mn36 2.385 1_455 S
O60 C38 1.234 . S
O61 Mn36 2.209 1_455 S
O61 Mn37 2.215 . S
O61 C38 1.283 . S
O62 Mn36 2.094 . S
O62 C40 1.240 . S
O63 Mn37 2.117 1_655 S
O63 C40 1.264 . S
C64 C57 1.403 . S
C64 C65 1.399 . S
C64 H70 0.929 . S
C65 C45 1.449 . S
C65 C64 1.399 . S
C65 H71 0.930 . S
H66 C46 0.931 . S
H67 C47 0.930 . S
H68 C55 0.931 . S
H69 C56 0.929 . S
H70 C64 0.929 . S
H71 C65 0.930 . S
Mn72 O77 2.095 1_455 S
Mn72 O87 2.162 . S
Mn72 O88 2.297 . S
Mn72 O96 2.385 . S
Mn72 O97 2.209 . S
Mn72 O98 2.094 1_445 S
Mn73 O78 2.121 . S
Mn73 N80 2.257 . S
Mn73 N89 2.282 1_655 S
Mn73 O97 2.215 1_655 S
Mn73 O99 2.117 . S
C74 O96 1.234 . S
C74 O97 1.283 . S
C75 O87 1.281 . S
C75 O88 1.236 . S
C76 O98 1.240 . S
C76 O99 1.264 1_565 S
O77 Mn72 2.095 1_655 S
O77 C86 1.250 . S
O78 Mn73 2.121 . S
O78 C86 1.258 . S
C79 N80 1.326 . S
C79 C83 1.467 1_655 S
C79 H85 0.929 . S
N80 Mn73 2.257 . S
N80 C79 1.326 . S
N80 C84 1.362 1_655 S
C81 C82 1.258 . S
C81 C84 1.431 . S
C81 C101 1.449 . S
C82 C81 1.258 . S
C82 C83 1.481 . S
C82 H102 0.931 . S
C83 C79 1.467 1_455 S
C83 C82 1.481 . S
C83 H103 0.920 1_455 S
C84 N80 1.362 1_455 S
C84 C81 1.431 . S
C84 C94 1.476 . S
H85 C79 0.929 . S
C86 O77 1.250 . S
C86 O78 1.258 . S
O87 Mn72 2.162 . S
O87 C75 1.281 . S
O88 Mn72 2.297 . S
O88 C75 1.236 . S
N89 Mn73 2.282 1_455 S
N89 C90 1.328 . S
N89 C94 1.318 . S
C90 N89 1.328 . S
C90 C91 1.457 . S
C90 H95 0.929 1_455 S
C91 C90 1.457 . S
C91 C92 1.291 . S
C91 H104 0.931 . S
C92 C91 1.291 . S
C92 C93 1.373 . S
C92 H105 0.929 . S
C93 C92 1.373 . S
C93 C94 1.396 . S
C93 C100 1.403 . S
C94 C84 1.476 . S
C94 N89 1.318 . S
C94 C93 1.396 . S
H95 C90 0.929 1_655 S
O96 Mn72 2.385 . S
O96 C74 1.234 . S
O97 Mn72 2.209 . S
O97 Mn73 2.215 1_455 S
O97 C74 1.283 . S
O98 Mn72 2.094 1_665 S
O98 C76 1.240 . S
O99 Mn73 2.117 . S
O99 C76 1.264 1_545 S
C100 C93 1.403 . S
C100 C101 1.399 . S
C100 H106 0.929 . S
C101 C81 1.449 . S
C101 C100 1.399 . S
C101 H107 0.930 . S
H102 C82 0.931 . S
H103 C83 0.920 1_655 S
H104 C91 0.931 . S
H105 C92 0.929 . S
H106 C100 0.929 . S
H107 C101 0.930 . S
H108 C127 0.949 . S
H109 C128 0.950 . S
H110 C130 0.950 . S
H111 C131 0.950 . S
H112 C133 0.950 . S
H113 C136 0.950 . S
H114 C137 0.950 . S
H115 C139 0.951 . S
H116 C140 0.949 . S
H117 C142 0.949 . S
H118 C143 0.950 . S
H119 C145 0.950 . S
H120 C146 0.950 . S
H121 C148 0.950 . S
H122 C151 0.950 . S
H123 C152 0.950 . S
H124 C154 0.951 . S
H125 C155 0.949 . S
C126 C127 1.376 . S
C126 C131 1.386 1_455 S
C126 C132 1.483 . S
C127 H108 0.949 . S
C127 C126 1.376 . S
C127 C128 1.397 . S
C128 H109 0.950 . S
C128 C127 1.397 . S
C128 C129 1.391 . S
C129 C128 1.391 . S
C129 C130 1.405 1_455 S
C130 H110 0.950 . S
C130 C129 1.405 1_655 S
C130 C131 1.367 . S
C131 H111 0.950 . S
C131 C126 1.386 1_655 S
C131 C130 1.367 . S
C132 C126 1.483 . S
C132 C133 1.382 . S
C132 C134 1.403 . S
C133 H112 0.950 . S
C133 C132 1.382 . S
C133 C149 1.411 . S
C134 C132 1.403 . S
C134 C135 1.489 . S
C134 C148 1.411 . S
C135 C134 1.489 . S
C135 C136 1.383 . S
C135 C140 1.382 1_455 S
C136 H113 0.950 . S
C136 C135 1.383 . S
C136 C137 1.395 . S
C137 H114 0.950 . S
C137 C136 1.395 . S
C137 C138 1.288 . S
C138 C137 1.288 . S
C138 C139 1.392 1_455 S
C139 H115 0.951 . S
C139 C138 1.392 1_655 S
C139 C140 1.392 . S
C140 H116 0.949 . S
C140 C135 1.382 1_655 S
C140 C139 1.392 . S
C141 C142 1.376 1_455 S
C141 C146 1.386 . S
C141 C147 1.483 . S
C142 H117 0.949 . S
C142 C141 1.376 1_655 S
C142 C143 1.397 . S
C143 H118 0.950 . S
C143 C142 1.397 . S
C143 C144 1.391 1_655 S
C144 C143 1.391 1_455 S
C144 C145 1.405 . S
C145 H119 0.950 . S
C145 C144 1.405 . S
C145 C146 1.367 . S
C146 H120 0.950 . S
C146 C141 1.386 . S
C146 C145 1.367 . S
C147 C141 1.483 . S
C147 C148 1.382 . S
C147 C149 1.403 . S
C148 H121 0.950 . S
C148 C134 1.411 . S
C148 C147 1.382 . S
C149 C133 1.411 . S
C149 C147 1.403 . S
C149 C150 1.489 . S
C150 C149 1.489 . S
C150 C151 1.383 1_455 S
C150 C155 1.382 . S
C151 H122 0.950 . S
C151 C150 1.383 1_655 S
C151 C152 1.395 . S
C152 H123 0.950 . S
C152 C151 1.395 . S
C152 C153 1.288 1_655 S
C153 C152 1.288 1_455 S
C153 C154 1.392 . S
C154 H124 0.951 . S
C154 C153 1.392 . S
C154 C155 1.392 . S
C155 H125 0.949 . S
C155 C150 1.382 . S
C155 C154 1.392 . S
H156 C175 0.949 . S
H157 C176 0.950 . S
H158 C178 0.950 . S
H159 C179 0.950 . S
H160 C181 0.950 . S
H161 C184 0.950 . S
H162 C185 0.950 . S
H163 C187 0.951 . S
H164 C188 0.949 . S
H165 C190 0.949 . S
H166 C191 0.950 . S
H167 C193 0.950 . S
H168 C194 0.950 . S
H169 C196 0.950 . S
H170 C199 0.950 . S
H171 C200 0.950 . S
H172 C202 0.951 . S
H173 C203 0.949 . S
C174 C175 1.376 . S
C174 C179 1.386 . S
C174 C180 1.483 . S
C175 H156 0.949 . S
C175 C174 1.376 . S
C175 C176 1.397 . S
C176 H157 0.950 . S
C176 C175 1.397 . S
C176 C177 1.391 . S
C177 C176 1.391 . S
C177 C178 1.405 . S
C178 H158 0.950 . S
C178 C177 1.405 . S
C178 C179 1.367 . S
C179 H159 0.950 . S
C179 C174 1.386 . S
C179 C178 1.367 . S
C180 C174 1.483 . S
C180 C181 1.382 . S
C180 C182 1.403 . S
C181 H160 0.950 . S
C181 C180 1.382 . S
C181 C197 1.411 . S
C182 C180 1.403 . S
C182 C183 1.489 . S
C182 C196 1.411 . S
C183 C182 1.489 . S
C183 C184 1.383 . S
C183 C188 1.382 . S
C184 H161 0.950 . S
C184 C183 1.383 . S
C184 C185 1.395 . S
C185 H162 0.950 . S
C185 C184 1.395 . S
C185 C186 1.288 . S
C186 C185 1.288 . S
C186 C187 1.392 . S
C187 H163 0.951 . S
C187 C186 1.392 . S
C187 C188 1.392 . S
C188 H164 0.949 . S
C188 C183 1.382 . S
C188 C187 1.392 . S
C189 C190 1.376 . S
C189 C194 1.386 . S
C189 C195 1.483 . S
C190 H165 0.949 . S
C190 C189 1.376 . S
C190 C191 1.397 . S
C191 H166 0.950 . S
C191 C190 1.397 . S
C191 C192 1.391 . S
C192 C191 1.391 . S
C192 C193 1.405 . S
C193 H167 0.950 . S
C193 C192 1.405 . S
C193 C194 1.367 . S
C194 H168 0.950 . S
C194 C189 1.386 . S
C194 C193 1.367 . S
C195 C189 1.483 . S
C195 C196 1.382 . S
C195 C197 1.403 . S
C196 H169 0.950 . S
C196 C182 1.411 . S
C196 C195 1.382 . S
C197 C181 1.411 . S
C197 C195 1.403 . S
C197 C198 1.489 . S
C198 C197 1.489 . S
C198 C199 1.383 . S
C198 C203 1.382 . S
C199 H170 0.950 . S
C199 C198 1.383 . S
C199 C200 1.395 . S
C200 H171 0.950 . S
C200 C199 1.395 . S
C200 C201 1.288 . S
C201 C200 1.288 . S
C201 C202 1.392 . S
C202 H172 0.951 . S
C202 C201 1.392 . S
C202 C203 1.392 . S
C203 H173 0.949 . S
C203 C198 1.382 . S
C203 C202 1.392 . S
H204 C223 0.949 . S
H205 C224 0.950 . S
H206 C226 0.950 . S
H207 C227 0.950 . S
H208 C229 0.950 . S
H209 C232 0.950 . S
H210 C233 0.950 . S
H211 C235 0.951 . S
H212 C236 0.949 . S
H213 C238 0.949 . S
H214 C239 0.950 . S
H215 C241 0.950 . S
H216 C242 0.950 . S
H217 C244 0.950 . S
H218 C247 0.950 . S
H219 C248 0.950 . S
H220 C250 0.951 . S
H221 C251 0.949 . S
C222 C223 1.376 . S
C222 C227 1.386 . S
C222 C228 1.483 . S
C223 H204 0.949 . S
C223 C222 1.376 . S
C223 C224 1.397 . S
C224 H205 0.950 . S
C224 C223 1.397 . S
C224 C225 1.391 . S
C225 C224 1.391 . S
C225 C226 1.405 . S
C226 H206 0.950 . S
C226 C225 1.405 . S
C226 C227 1.367 . S
C227 H207 0.950 . S
C227 C222 1.386 . S
C227 C226 1.367 . S
C228 C222 1.483 . S
C228 C229 1.382 . S
C228 C230 1.403 . S
C229 H208 0.950 . S
C229 C228 1.382 . S
C229 C245 1.411 . S
C230 C228 1.403 . S
C230 C231 1.489 . S
C230 C244 1.411 . S
C231 C230 1.489 . S
C231 C232 1.383 . S
C231 C236 1.382 . S
C232 H209 0.950 . S
C232 C231 1.383 . S
C232 C233 1.395 . S
C233 H210 0.950 . S
C233 C232 1.395 . S
C233 C234 1.288 . S
C234 C233 1.288 . S
C234 C235 1.392 . S
C235 H211 0.951 . S
C235 C234 1.392 . S
C235 C236 1.392 . S
C236 H212 0.949 . S
C236 C231 1.382 . S
C236 C235 1.392 . S
C237 C238 1.376 . S
C237 C242 1.386 . S
C237 C243 1.483 . S
C238 H213 0.949 . S
C238 C237 1.376 . S
C238 C239 1.397 . S
C239 H214 0.950 . S
C239 C238 1.397 . S
C239 C240 1.391 . S
C240 C239 1.391 . S
C240 C241 1.405 . S
C241 H215 0.950 . S
C241 C240 1.405 . S
C241 C242 1.367 . S
C242 H216 0.950 . S
C242 C237 1.386 . S
C242 C241 1.367 . S
C243 C237 1.483 . S
C243 C244 1.382 . S
C243 C245 1.403 . S
C244 H217 0.950 . S
C244 C230 1.411 . S
C244 C243 1.382 . S
C245 C229 1.411 . S
C245 C243 1.403 . S
C245 C246 1.489 . S
C246 C245 1.489 . S
C246 C247 1.383 . S
C246 C251 1.382 . S
C247 H218 0.950 . S
C247 C246 1.383 . S
C247 C248 1.395 . S
C248 H219 0.950 . S
C248 C247 1.395 . S
C248 C249 1.288 . S
C249 C248 1.288 . S
C249 C250 1.392 . S
C250 H220 0.951 . S
C250 C249 1.392 . S
C250 C251 1.392 . S
C251 H221 0.949 . S
C251 C246 1.382 . S
C251 C250 1.392 . S
H252 C260 0.950 . S
H253 C265 0.950 . S
H254 C262 0.950 . S
H255 C264 0.950 . S
H256 C266 0.947 1_655 S
H257 C268 0.951 . S
H258 C270 0.950 . S
H259 C271 0.950 . S
C260 H252 0.950 . S
C260 C261 1.386 . S
C260 C262 1.391 . S
C261 C260 1.386 . S
C261 C265 1.393 1_455 S
C262 H254 0.950 . S
C262 C260 1.391 . S
C262 C263 1.400 . S
C263 C262 1.400 . S
C263 C264 1.398 1_455 S
C263 C269 1.491 . S
C264 H255 0.950 . S
C264 C263 1.398 1_655 S
C264 C265 1.391 . S
C265 H253 0.950 . S
C265 C261 1.393 1_655 S
C265 C264 1.391 . S
C266 H256 0.947 1_455 S
C266 C267 1.386 . S
C266 C268 1.399 1_455 S
C267 C266 1.386 . S
C267 C271 1.393 . S
C268 H257 0.951 . S
C268 C266 1.399 1_655 S
C268 C269 1.393 1_655 S
C269 C263 1.491 . S
C269 C268 1.393 1_455 S
C269 C270 1.398 . S
C270 H258 0.950 . S
C270 C269 1.398 . S
C270 C271 1.391 . S
C271 H259 0.950 . S
C271 C267 1.393 . S
C271 C270 1.391 . S
H272 C280 0.950 . S
H273 C285 0.950 . S
H274 C282 0.950 . S
H275 C284 0.950 . S
H276 C286 0.950 . S
H277 C288 0.950 . S
H278 C290 0.950 . S
H279 C291 0.950 . S
C280 H272 0.950 . S
C280 C281 1.386 . S
C280 C282 1.391 . S
C281 C280 1.386 . S
C281 C285 1.393 . S
C282 H274 0.950 . S
C282 C280 1.391 . S
C282 C283 1.400 . S
C283 C282 1.400 . S
C283 C284 1.398 . S
C283 C289 1.491 . S
C284 H275 0.950 . S
C284 C283 1.398 . S
C284 C285 1.391 . S
C285 H273 0.950 . S
C285 C281 1.393 . S
C285 C284 1.391 . S
C286 H276 0.950 . S
C286 C287 1.386 . S
C286 C288 1.391 . S
C287 C286 1.386 . S
C287 C291 1.393 . S
C288 H277 0.950 . S
C288 C286 1.391 . S
C288 C289 1.400 . S
C289 C283 1.491 . S
C289 C288 1.400 . S
C289 C290 1.398 . S
C290 H278 0.950 . S
C290 C289 1.398 . S
C290 C291 1.391 . S
C291 H279 0.950 . S
C291 C287 1.393 . S
C291 C290 1.391 . S
H292 C300 0.950 . S
H293 C305 0.950 . S
H294 C302 0.950 . S
H295 C304 0.950 . S
H296 C306 0.950 . S
H297 C308 0.950 . S
H298 C310 0.950 . S
H299 C311 0.950 . S
C300 H292 0.950 . S
C300 C301 1.386 . S
C300 C302 1.391 . S
C301 C300 1.386 . S
C301 C305 1.393 . S
C302 H294 0.950 . S
C302 C300 1.391 . S
C302 C303 1.400 . S
C303 C302 1.400 . S
C303 C304 1.398 . S
C303 C309 1.491 . S
C304 H295 0.950 . S
C304 C303 1.398 . S
C304 C305 1.391 . S
C305 H293 0.950 . S
C305 C301 1.393 . S
C305 C304 1.391 . S
C306 H296 0.950 . S
C306 C307 1.386 . S
C306 C308 1.391 . S
C307 C306 1.386 . S
C307 C311 1.393 . S
C308 H297 0.950 . S
C308 C306 1.391 . S
C308 C309 1.400 . S
C309 C303 1.491 . S
C309 C308 1.400 . S
C309 C310 1.398 . S
C310 H298 0.950 . S
C310 C309 1.398 . S
C310 C311 1.391 . S
C311 H299 0.950 . S
C311 C307 1.393 . S
C311 C310 1.391 . S
H312 C320 0.950 . S
H313 C325 0.950 1_655 S
H314 C322 0.950 . S
H315 C324 0.950 1_655 S
H316 C326 0.950 . S
H317 C328 0.931 1_655 S
H318 C330 0.950 . S
H319 C331 0.950 . S
C320 H312 0.950 . S
C320 C321 1.386 . S
C320 C322 1.391 . S
C321 C320 1.386 . S
C321 C325 1.393 . S
C322 H314 0.950 . S
C322 C320 1.391 . S
C322 C323 1.400 . S
C323 C322 1.400 . S
C323 C324 1.398 . S
C323 C329 1.491 . S
C324 H315 0.950 1_455 S
C324 C323 1.398 . S
C324 C325 1.391 . S
C325 H313 0.950 1_455 S
C325 C321 1.393 . S
C325 C324 1.391 . S
C326 H316 0.950 . S
C326 C327 1.386 1_655 S
C326 C328 1.398 1_655 S
C327 C326 1.386 1_455 S
C327 C331 1.393 . S
C328 H317 0.931 1_455 S
C328 C326 1.398 1_455 S
C328 C329 1.412 . S
C329 C323 1.491 . S
C329 C328 1.412 . S
C329 C330 1.398 . S
C330 H318 0.950 . S
C330 C329 1.398 . S
C330 C331 1.391 . S
C331 H319 0.950 . S
C331 C327 1.393 . S
C331 C330 1.391 . S
H332 C340 0.950 . S
H333 C345 0.950 . S
H334 C342 0.950 . S
H335 C344 0.950 . S
H336 C346 0.950 . S
H337 C348 0.950 . S
H338 C350 0.950 . S
H339 C351 0.950 . S
C340 H332 0.950 . S
C340 C341 1.386 . S
C340 C342 1.391 . S
C341 C340 1.386 . S
C341 C345 1.393 . S
C342 H334 0.950 . S
C342 C340 1.391 . S
C342 C343 1.400 . S
C343 C342 1.400 . S
C343 C344 1.398 . S
C343 C349 1.491 . S
C344 H335 0.950 . S
C344 C343 1.398 . S
C344 C345 1.391 . S
C345 H333 0.950 . S
C345 C341 1.393 . S
C345 C344 1.391 . S
C346 H336 0.950 . S
C346 C347 1.386 . S
C346 C348 1.391 . S
C347 C346 1.386 . S
C347 C351 1.393 . S
C348 H337 0.950 . S
C348 C346 1.391 . S
C348 C349 1.400 . S
C349 C343 1.491 . S
C349 C348 1.400 . S
C349 C350 1.398 . S
C350 H338 0.950 . S
C350 C349 1.398 . S
C350 C351 1.391 . S
C351 H339 0.950 . S
C351 C347 1.393 . S
C351 C350 1.391 . S
H352 C360 0.950 . S
H353 C365 0.950 . S
H354 C362 0.950 . S
H355 C364 0.950 . S
H356 C366 0.950 . S
H357 C368 0.950 . S
H358 C370 0.950 . S
H359 C371 0.950 . S
C360 H352 0.950 . S
C360 C361 1.386 . S
C360 C362 1.391 . S
C361 C360 1.386 . S
C361 C365 1.393 . S
C362 H354 0.950 . S
C362 C360 1.391 . S
C362 C363 1.400 . S
C363 C362 1.400 . S
C363 C364 1.398 . S
C363 C369 1.491 . S
C364 H355 0.950 . S
C364 C363 1.398 . S
C364 C365 1.391 . S
C365 H353 0.950 . S
C365 C361 1.393 . S
C365 C364 1.391 . S
C366 H356 0.950 . S
C366 C367 1.386 . S
C366 C368 1.391 . S
C367 C366 1.386 . S
C367 C371 1.393 . S
C368 H357 0.950 . S
C368 C366 1.391 . S
C368 C369 1.400 . S
C369 C363 1.491 . S
C369 C368 1.400 . S
C369 C370 1.398 . S
C370 H358 0.950 . S
C370 C369 1.398 . S
C370 C371 1.391 . S
C371 H359 0.950 . S
C371 C367 1.393 . S
C371 C370 1.391 . S
H372 C380 0.950 . S
H373 C385 0.950 . S
H374 C382 0.950 . S
H375 C384 0.950 . S
H376 C386 0.950 . S
H377 C388 0.950 . S
H378 C390 0.950 . S
H379 C391 0.950 . S
C380 H372 0.950 . S
C380 C381 1.386 . S
C380 C382 1.391 . S
C381 C380 1.386 . S
C381 C385 1.393 . S
C382 H374 0.950 . S
C382 C380 1.391 . S
C382 C383 1.400 . S
C383 C382 1.400 . S
C383 C384 1.398 . S
C383 C389 1.491 . S
C384 H375 0.950 . S
C384 C383 1.398 . S
C384 C385 1.391 . S
C385 H373 0.950 . S
C385 C381 1.393 . S
C385 C384 1.391 . S
C386 H376 0.950 . S
C386 C387 1.386 . S
C386 C388 1.391 . S
C387 C386 1.386 . S
C387 C391 1.393 . S
C388 H377 0.950 . S
C388 C386 1.391 . S
C388 C389 1.400 . S
C389 C383 1.491 . S
C389 C388 1.400 . S
C389 C390 1.398 . S
C390 H378 0.950 . S
C390 C389 1.398 . S
C390 C391 1.391 . S
C391 H379 0.950 . S
C391 C387 1.393 . S
C391 C390 1.391 . S
H392 C400 0.950 . S
H393 C405 0.950 . S
H394 C402 0.950 . S
H395 C404 0.950 . S
H396 C406 0.950 . S
H397 C408 0.950 . S
H398 C410 0.950 . S
H399 C411 0.950 . S
C400 H392 0.950 . S
C400 C401 1.386 . S
C400 C402 1.391 1_554 S
C401 C400 1.386 . S
C401 C405 1.393 1_554 S
C402 H394 0.950 . S
C402 C400 1.391 1_556 S
C402 C403 1.400 . S
C403 C402 1.400 . S
C403 C404 1.398 . S
C403 C409 1.491 . S
C404 H395 0.950 . S
C404 C403 1.398 . S
C404 C405 1.391 . S
C405 H393 0.950 . S
C405 C401 1.393 1_556 S
C405 C404 1.391 . S
C406 H396 0.950 . S
C406 C407 1.386 . S
C406 C408 1.391 . S
C407 C406 1.386 . S
C407 C411 1.393 . S
C408 H397 0.950 . S
C408 C406 1.391 . S
C408 C409 1.400 . S
C409 C403 1.491 . S
C409 C408 1.400 . S
C409 C410 1.398 . S
C410 H398 0.950 . S
C410 C409 1.398 . S
C410 C411 1.391 . S
C411 H399 0.950 . S
C411 C407 1.393 . S
C411 C410 1.391 . S
H412 C420 0.950 . S
H413 C425 0.950 . S
H414 C422 0.950 . S
H415 C424 0.950 . S
H416 C426 0.950 . S
H417 C428 0.950 . S
H418 C430 0.950 . S
H419 C431 0.950 . S
C420 H412 0.950 . S
C420 C421 1.386 . S
C420 C422 1.391 . S
C421 C420 1.386 . S
C421 C425 1.393 1_455 S
C422 H414 0.950 . S
C422 C420 1.391 . S
C422 C423 1.400 . S
C423 C422 1.400 . S
C423 C424 1.398 1_455 S
C423 C429 1.491 . S
C424 H415 0.950 . S
C424 C423 1.398 1_655 S
C424 C425 1.391 . S
C425 H413 0.950 . S
C425 C421 1.393 1_655 S
C425 C424 1.391 . S
C426 H416 0.950 . S
C426 C427 1.386 1_655 S
C426 C428 1.391 . S
C427 C426 1.386 1_455 S
C427 C431 1.393 . S
C428 H417 0.950 . S
C428 C426 1.391 . S
C428 C429 1.400 1_655 S
C429 C423 1.491 . S
C429 C428 1.400 1_455 S
C429 C430 1.398 . S
C430 H418 0.950 . S
C430 C429 1.398 . S
C430 C431 1.391 . S
C431 H419 0.950 . S
C431 C427 1.393 . S
C431 C430 1.391 . S
H432 C440 0.950 1_565 S
H433 C445 0.950 . S
H434 C442 0.950 1_565 S
H435 C444 0.950 . S
H436 C446 0.950 . S
H437 C448 0.950 . S
H438 C450 0.950 1_565 S
H439 C451 0.950 1_565 S
C440 H432 0.950 1_545 S
C440 C441 1.386 . S
C440 C442 1.391 . S
C441 C440 1.386 . S
C441 C445 1.393 . S
C442 H434 0.950 1_545 S
C442 C440 1.391 . S
C442 C443 1.400 . S
C443 C442 1.400 . S
C443 C444 1.398 . S
C443 C449 1.491 . S
C444 H435 0.950 . S
C444 C443 1.398 . S
C444 C445 1.391 . S
C445 H433 0.950 . S
C445 C441 1.393 . S
C445 C444 1.391 . S
C446 H436 0.950 . S
C446 C447 1.386 . S
C446 C448 1.391 . S
C447 C446 1.386 . S
C447 C451 1.393 . S
C448 H437 0.950 . S
C448 C446 1.391 . S
C448 C449 1.400 . S
C449 C443 1.491 . S
C449 C448 1.400 . S
C449 C450 1.398 . S
C450 H438 0.950 1_545 S
C450 C449 1.398 . S
C450 C451 1.391 . S
C451 H439 0.950 1_545 S
C451 C447 1.393 . S
C451 C450 1.391 . S
H452 C460 0.950 . S
H453 C465 0.950 . S
H454 C462 0.950 . S
H455 C464 0.950 . S
H456 C466 0.950 . S
H457 C468 0.950 . S
H458 C470 0.950 . S
H459 C471 0.950 . S
C460 H452 0.950 . S
C460 C461 1.386 1_554 S
C460 C462 1.391 1_554 S
C461 C460 1.386 1_556 S
C461 C465 1.393 . S
C462 H454 0.950 . S
C462 C460 1.391 1_556 S
C462 C463 1.400 . S
C463 C462 1.400 . S
C463 C464 1.398 . S
C463 C469 1.491 . S
C464 H455 0.950 . S
C464 C463 1.398 . S
C464 C465 1.391 . S
C465 H453 0.950 . S
C465 C461 1.393 . S
C465 C464 1.391 . S
C466 H456 0.950 . S
C466 C467 1.386 . S
C466 C468 1.391 . S
C467 C466 1.386 . S
C467 C471 1.393 . S
C468 H457 0.950 . S
C468 C466 1.391 . S
C468 C469 1.400 . S
C469 C463 1.491 . S
C469 C468 1.400 . S
C469 C470 1.398 . S
C470 H458 0.950 . S
C470 C469 1.398 . S
C470 C471 1.391 . S
C471 H459 0.950 . S
C471 C467 1.393 . S
C471 C470 1.391 . S
H472 C480 0.943 1_655 S
H473 C485 0.950 . S
H474 C482 0.957 . S
H475 C484 0.950 . S
H476 C486 0.950 . S
H477 C488 0.950 . S
H478 C490 0.950 . S
H479 C491 0.950 . S
C480 H472 0.943 1_455 S
C480 C481 1.398 . S
C480 C482 1.382 1_455 S
C481 C480 1.398 . S
C481 C485 1.393 . S
C482 H474 0.957 . S
C482 C480 1.382 1_655 S
C482 C483 1.397 1_655 S
C483 C482 1.397 1_455 S
C483 C484 1.398 . S
C483 C489 1.491 . S
C484 H475 0.950 . S
C484 C483 1.398 . S
C484 C485 1.391 . S
C485 H473 0.950 . S
C485 C481 1.393 . S
C485 C484 1.391 . S
C486 H476 0.950 . S
C486 C487 1.386 . S
C486 C488 1.391 . S
C487 C486 1.386 . S
C487 C491 1.393 1_455 S
C488 H477 0.950 . S
C488 C486 1.391 . S
C488 C489 1.400 . S
C489 C483 1.491 . S
C489 C488 1.400 . S
C489 C490 1.398 1_455 S
C490 H478 0.950 . S
C490 C489 1.398 1_655 S
C490 C491 1.391 . S
C491 H479 0.950 . S
C491 C487 1.393 1_655 S
C491 C490 1.391 . S
C267 C129 1.492 . S
C261 C14 1.436 . S
C281 C40 1.499 . S
C287 C177 1.521 . S
C301 C76 1.495 . S
C307 C249 1.498 . S
C321 C3 1.483 . S
C327 C153 1.476 . S
C347 C201 1.513 . S
C341 C38 1.505 . S
C361 C74 1.481 . S
C367 C225 1.492 . S
C387 C186 1.457 . S
C381 C86 1.428 . S
C401 C2 1.479 . S
C407 C240 1.494 . S
C427 C144 1.482 . S
C421 C39 1.484 . S
C447 C192 1.480 . S
C441 C75 1.483 . S
C467 C234 1.497 . S
C461 C4 1.490 1_556 S
C481 C50 1.438 . S
C487 C138 1.486 . S
