# Generated by pormake.
# Topology pto, (3,4)-cn, num edge types: 1
# Building blocks:
#     Node 0, Type 0, BuildingBlock: OLANEW_clean_sbu_2, # of connection points: 3
#     Node 1, Type 0, BuildingBlock: OLANEW_clean_sbu_2, # of connection points: 3
#     Node 2, Type 0, BuildingBlock: OLANEW_clean_sbu_2, # of connection points: 3
#     Node 3, Type 0, BuildingBlock: OLANEW_clean_sbu_2, # of connection points: 3
#     Node 4, Type 0, BuildingBlock: OLANEW_clean_sbu_2, # of connection points: 3
#     Node 5, Type 0, BuildingBlock: OLANEW_clean_sbu_2, # of connection points: 3
#     Node 6, Type 0, BuildingBlock: OLANEW_clean_sbu_2, # of connection points: 3
#     Node 7, Type 0, BuildingBlock: OLANEW_clean_sbu_2, # of connection points: 3
#     Node 8, Type 1, BuildingBlock: MIFKUJ_clean_linker_1, # of connection points: 4
#     Node 9, Type 1, BuildingBlock: MIFKUJ_clean_linker_1, # of connection points: 4
#     Node 10, Type 1, BuildingBlock: MIFKUJ_clean_linker_1, # of connection points: 4
#     Node 11, Type 1, BuildingBlock: MIFKUJ_clean_linker_1, # of connection points: 4
#     Node 12, Type 1, BuildingBlock: MIFKUJ_clean_linker_1, # of connection points: 4
#     Node 13, Type 1, BuildingBlock: MIFKUJ_clean_linker_1, # of connection points: 4
#     Edge 14, Type (0, 1), BuildingBlock: UVAHIK_clean_linker_0, # of connection points: 2
#     Edge 15, Type (0, 1), BuildingBlock: UVAHIK_clean_linker_0, # of connection points: 2
#     Edge 16, Type (0, 1), BuildingBlock: UVAHIK_clean_linker_0, # of connection points: 2
#     Edge 17, Type (0, 1), BuildingBlock: UVAHIK_clean_linker_0, # of connection points: 2
#     Edge 18, Type (0, 1), BuildingBlock: UVAHIK_clean_linker_0, # of connection points: 2
#     Edge 19, Type (0, 1), BuildingBlock: UVAHIK_clean_linker_0, # of connection points: 2
#     Edge 20, Type (0, 1), BuildingBlock: UVAHIK_clean_linker_0, # of connection points: 2
#     Edge 21, Type (0, 1), BuildingBlock: UVAHIK_clean_linker_0, # of connection points: 2
#     Edge 22, Type (0, 1), BuildingBlock: UVAHIK_clean_linker_0, # of connection points: 2
#     Edge 23, Type (0, 1), BuildingBlock: UVAHIK_clean_linker_0, # of connection points: 2
#     Edge 24, Type (0, 1), BuildingBlock: UVAHIK_clean_linker_0, # of connection points: 2
#     Edge 25, Type (0, 1), BuildingBlock: UVAHIK_clean_linker_0, # of connection points: 2
#     Edge 26, Type (0, 1), BuildingBlock: UVAHIK_clean_linker_0, # of connection points: 2
#     Edge 27, Type (0, 1), BuildingBlock: UVAHIK_clean_linker_0, # of connection points: 2
#     Edge 28, Type (0, 1), BuildingBlock: UVAHIK_clean_linker_0, # of connection points: 2
#     Edge 29, Type (0, 1), BuildingBlock: UVAHIK_clean_linker_0, # of connection points: 2
#     Edge 30, Type (0, 1), BuildingBlock: UVAHIK_clean_linker_0, # of connection points: 2
#     Edge 31, Type (0, 1), BuildingBlock: UVAHIK_clean_linker_0, # of connection points: 2
#     Edge 32, Type (0, 1), BuildingBlock: UVAHIK_clean_linker_0, # of connection points: 2
#     Edge 33, Type (0, 1), BuildingBlock: UVAHIK_clean_linker_0, # of connection points: 2
#     Edge 34, Type (0, 1), BuildingBlock: UVAHIK_clean_linker_0, # of connection points: 2
#     Edge 35, Type (0, 1), BuildingBlock: UVAHIK_clean_linker_0, # of connection points: 2
#     Edge 36, Type (0, 1), BuildingBlock: UVAHIK_clean_linker_0, # of connection points: 2
#     Edge 37, Type (0, 1), BuildingBlock: UVAHIK_clean_linker_0, # of connection points: 2
# Relax obj value: 0.007
# Max RMSD: 0.126
# Mean RMSD: 0.055
data_MOF--net-pto--node1-OLANEW_clean_sbu_2--node2-MIFKUJ_clean_linker_1--edge1-UVAHIK_clean_linker_0
_symmetry_space_group_name_H-M    P1
_symmetry_Int_Tables_number       1
_symmetry_cell_setting            triclinic
loop_
_symmetry_equiv_pos_as_xyz
'x, y, z'
_cell_length_a     50.164702
_cell_length_b     77.795321
_cell_length_c     64.364499
_cell_angle_alpha  92.571834
_cell_angle_beta   89.497869
_cell_angle_gamma 105.17409
loop_
_atom_site_label
_atom_site_type_symbol
_atom_site_fract_x
_atom_site_fract_y
_atom_site_fract_z
_atom_type_partial_charge
O0 O 0.29978 0.32522 0.27164 0.0
Cd1 Cd 0.27003 0.32571 0.30176 0.0
O2 O 0.32638 0.35246 0.27644 0.0
Cd3 Cd 0.29927 0.35896 0.30055 0.0
O4 O 0.26761 0.3712 0.31302 0.0
C5 C 0.25424 0.37697 0.29947 0.0
O6 O 0.26007 0.37487 0.27972 0.0
C7 C 0.32054 0.33751 0.26636 0.0
C8 C 0.27413 0.29847 0.32727 0.0
O9 O 0.25758 0.29538 0.31169 0.0
O10 O 0.28834 0.31455 0.33113 0.0
O11 O 0.28724 0.87568 0.75437 0.0
Cd12 Cd 0.2547 0.88176 0.72947 0.0
O13 O 0.2721 0.8479 0.74329 0.0
Cd14 Cd 0.26482 0.81893 0.74247 0.0
O15 O 0.24429 0.79106 0.73453 0.0
C16 C 0.23074 0.78088 0.74805 0.0
O17 O 0.23031 0.78709 0.76734 0.0
C18 C 0.28769 0.85949 0.75547 0.0
C19 C 0.27787 0.90777 0.70139 0.0
O20 O 0.2685 0.91191 0.71898 0.0
O21 O 0.27677 0.89132 0.69724 0.0
O22 O 0.78685 0.77615 0.31266 0.0
Cd23 Cd 0.77658 0.7515 0.28652 0.0
O24 O 0.79982 0.79608 0.28887 0.0
Cd25 Cd 0.78519 0.77783 0.26216 0.0
O26 O 0.76185 0.77215 0.23302 0.0
C27 C 0.76784 0.78425 0.21985 0.0
O28 O 0.78825 0.79845 0.22409 0.0
C29 C 0.79681 0.79226 0.30789 0.0
C30 C 0.80391 0.72563 0.29511 0.0
O31 O 0.81573 0.73925 0.28479 0.0
O32 O 0.77912 0.72421 0.30134 0.0
O33 O 0.74482 0.28023 0.64923 0.0
Cd34 Cd 0.70884 0.25331 0.65696 0.0
O35 O 0.75835 0.28426 0.68192 0.0
Cd36 Cd 0.72464 0.26359 0.69439 0.0
O37 O 0.69342 0.25609 0.71853 0.0
C38 C 0.6751 0.26469 0.72003 0.0
O39 O 0.67473 0.27655 0.70621 0.0
C40 C 0.76133 0.28895 0.66319 0.0
C41 C 0.71771 0.22295 0.63635 0.0
O42 O 0.70245 0.23181 0.62832 0.0
O43 O 0.72878 0.22847 0.65412 0.0
O44 O 0.7442 0.77101 0.64099 0.0
Cd45 Cd 0.72972 0.74567 0.66353 0.0
O46 O 0.77121 0.78853 0.66434 0.0
Cd47 Cd 0.75589 0.77051 0.68933 0.0
O48 O 0.72937 0.76437 0.71656 0.0
C49 C 0.707 0.76911 0.71589 0.0
O50 O 0.70122 0.77628 0.69896 0.0
C51 C 0.76138 0.78578 0.64599 0.0
C52 C 0.76469 0.72295 0.66172 0.0
O53 O 0.74537 0.72133 0.6483 0.0
O54 O 0.76769 0.73543 0.67589 0.0
O55 O 0.79836 0.27053 0.30434 0.0
Cd56 Cd 0.77296 0.24123 0.28994 0.0
O57 O 0.76192 0.28106 0.30179 0.0
Cd58 Cd 0.73657 0.25874 0.28309 0.0
O59 O 0.71224 0.25352 0.2544 0.0
C60 C 0.72102 0.26497 0.24076 0.0
O61 O 0.74364 0.27769 0.24477 0.0
C62 C 0.78681 0.28315 0.3075 0.0
C63 C 0.777 0.21365 0.31505 0.0
O64 O 0.79391 0.21844 0.30005 0.0
O65 O 0.75824 0.22192 0.3182 0.0
O66 O 0.26758 0.34485 0.7479 0.0
Cd67 Cd 0.23515 0.33882 0.71858 0.0
O68 O 0.30112 0.33954 0.7285 0.0
Cd69 Cd 0.27814 0.33263 0.69937 0.0
O70 O 0.27344 0.31558 0.67105 0.0
C71 C 0.29592 0.31371 0.66324 0.0
O72 O 0.31934 0.32276 0.67186 0.0
C73 C 0.29233 0.34369 0.74611 0.0
C74 C 0.20813 0.36537 0.71264 0.0
O75 O 0.19928 0.35337 0.72589 0.0
O76 O 0.23004 0.365 0.70242 0.0
O77 O 0.3536 0.84202 0.27603 0.0
Cd78 Cd 0.33131 0.83933 0.31017 0.0
O79 O 0.32339 0.81772 0.26416 0.0
Cd80 Cd 0.29795 0.81124 0.29185 0.0
O81 O 0.26486 0.79042 0.30486 0.0
C82 C 0.25205 0.77896 0.29124 0.0
O83 O 0.25929 0.78108 0.27165 0.0
C84 C 0.34456 0.83056 0.26131 0.0
C85 C 0.33266 0.87183 0.33098 0.0
O86 O 0.35261 0.86451 0.33267 0.0
O87 O 0.31226 0.8639 0.31919 0.0
H88 H 0.94887 0.50176 0.31805 0.0
H89 H 0.92231 0.47061 0.31827 0.0
H90 H 0.96767 0.4631 0.37234 0.0
H91 H -0.00612 0.49448 0.37239 0.0
H92 H 0.95323 0.5289 0.34346 0.0
H93 H 0.01572 0.49676 0.31618 0.0
H94 H 0.04353 0.47522 0.31464 0.0
H95 H 0.08803 0.50083 0.36965 0.0
H96 H 0.05997 0.5223 0.3712 0.0
H97 H 0.05956 0.57598 0.36754 0.0
H98 H 0.08722 0.60644 0.36268 0.0
H99 H 0.04236 0.60776 0.30597 0.0
H100 H 0.0158 0.57706 0.31041 0.0
H101 H 0.05566 0.54624 0.34355 0.0
H102 H -0.00656 0.58148 0.36582 0.0
H103 H 0.96903 0.60429 0.36059 0.0
H104 H 0.92338 0.57198 0.30962 0.0
H105 H 0.94907 0.5498 0.31414 0.0
C106 C 0.97353 0.50048 0.34511 0.0
C107 C 0.95294 0.49349 0.3301 0.0
C108 C 0.93778 0.47568 0.33024 0.0
C109 C 0.94294 0.46444 0.34533 0.0
C110 C 0.96347 0.47143 0.36041 0.0
C111 C 0.97845 0.48934 0.36042 0.0
C112 C -0.01016 0.51939 0.34448 0.0
C113 C 0.97563 0.53267 0.34334 0.0
C114 C 0.0191 0.52437 0.34462 0.0
C115 C 0.03551 0.51101 0.34397 0.0
C116 C 0.03118 0.49758 0.32809 0.0
C117 C 0.04708 0.48527 0.32724 0.0
C118 C 0.0679 0.48629 0.34207 0.0
C119 C 0.07228 0.49979 0.35791 0.0
C120 C 0.05624 0.51203 0.35884 0.0
C121 C 0.03539 0.57431 0.33948 0.0
C122 C 0.05577 0.58284 0.35403 0.0
C123 C 0.07138 0.60032 0.35133 0.0
C124 C 0.06696 0.60961 0.33398 0.0
C125 C 0.04655 0.60097 0.3194 0.0
C126 C 0.0311 0.58346 0.32204 0.0
C127 C 0.01904 0.55569 0.34231 0.0
C128 C 0.03325 0.54247 0.34394 0.0
C129 C -0.01022 0.55074 0.34211 0.0
C130 C 0.97346 0.56403 0.34016 0.0
C131 C 0.97831 0.57937 0.35343 0.0
C132 C 0.96408 0.59233 0.35055 0.0
C133 C 0.94433 0.59008 0.33456 0.0
C134 C 0.93885 0.57438 0.3218 0.0
C135 C 0.95329 0.56154 0.32453 0.0
H136 H 0.04573 0.57741 0.64693 0.0
H137 H 0.07442 0.60706 0.65703 0.0
H138 H 0.01671 0.61149 0.70598 0.0
H139 H -0.01116 0.58149 0.69641 0.0
H140 H 0.03507 0.54882 0.66976 0.0
H141 H 0.97746 0.58115 0.63566 0.0
H142 H 0.95112 0.60344 0.63446 0.0
H143 H 0.9018 0.5795 0.6863 0.0
H144 H 0.92749 0.55687 0.6867 0.0
H145 H 0.92634 0.50393 0.68099 0.0
H146 H 0.90203 0.47232 0.67654 0.0
H147 H 0.95465 0.46685 0.62455 0.0
H148 H 0.9789 0.49856 0.62901 0.0
H149 H 0.93429 0.53211 0.65571 0.0
H150 H -0.01298 0.4988 0.68866 0.0
H151 H 0.01318 0.47698 0.69343 0.0
H152 H 0.07486 0.50436 0.65039 0.0
H153 H 0.04736 0.52531 0.64447 0.0
C154 C 0.01499 0.57727 0.67076 0.0
C155 C 0.03918 0.58482 0.65975 0.0
C156 C 0.05546 0.60185 0.66546 0.0
C157 C 0.04789 0.61168 0.68233 0.0
C158 C 0.02332 0.60421 0.69306 0.0
C159 C 0.00714 0.58714 0.68742 0.0
C160 C -0.00086 0.55859 0.6658 0.0
C161 C 0.01316 0.54518 0.66617 0.0
C162 C 0.97034 0.55382 0.66205 0.0
C163 C 0.95442 0.56738 0.66128 0.0
C164 C 0.96091 0.58073 0.64671 0.0
C165 C 0.94592 0.59354 0.64616 0.0
C166 C 0.92425 0.59336 0.6603 0.0
C167 C 0.91792 0.57992 0.67489 0.0
C168 C 0.93269 0.567 0.67524 0.0
C169 C 0.95453 0.50354 0.65543 0.0
C170 C 0.93245 0.49597 0.6685 0.0
C171 C 0.91873 0.4779 0.66604 0.0
C172 C 0.92661 0.46713 0.6503 0.0
C173 C 0.9481 0.47487 0.63676 0.0
C174 C 0.96202 0.49292 0.63935 0.0
C175 C 0.97038 0.52236 0.65921 0.0
C176 C 0.95632 0.53576 0.65883 0.0
C177 C -0.00085 0.52709 0.66324 0.0
C178 C 0.01487 0.51354 0.66586 0.0
C179 C 0.0058 0.49985 0.67982 0.0
C180 C 0.02112 0.48753 0.68283 0.0
C181 C 0.0463 0.48886 0.67237 0.0
C182 C 0.05538 0.50265 0.65846 0.0
C183 C 0.0398 0.5148 0.65521 0.0
H184 H 0.28361 0.06783 0.53612 0.0
H185 H 0.28447 0.04469 0.56028 0.0
H186 H 0.36104 0.03907 0.53325 0.0
H187 H 0.3602 0.06243 0.50911 0.0
H188 H 0.31889 0.09935 0.53331 0.0
H189 H 0.28634 0.04748 0.48642 0.0
H190 H 0.28833 0.01982 0.4675 0.0
H191 H 0.36559 0.04733 0.43977 0.0
H192 H 0.36366 0.07488 0.45895 0.0
H193 H 0.35225 0.12549 0.45043 0.0
H194 H 0.3472 0.14994 0.42927 0.0
H195 H 0.27408 0.15256 0.46369 0.0
H196 H 0.27823 0.12759 0.48406 0.0
H197 H 0.32312 0.09314 0.45641 0.0
H198 H 0.35294 0.14587 0.50081 0.0
H199 H 0.34841 0.17377 0.51763 0.0
H200 H 0.27659 0.14459 0.55073 0.0
H201 H 0.2806 0.11688 0.53323 0.0
C202 C 0.32178 0.06684 0.52075 0.0
C203 C 0.30059 0.06161 0.53536 0.0
C204 C 0.30115 0.04843 0.5492 0.0
C205 C 0.32294 0.04016 0.54876 0.0
C206 C 0.34388 0.04512 0.53384 0.0
C207 C 0.3434 0.05843 0.52003 0.0
C208 C 0.32165 0.0817 0.50709 0.0
C209 C 0.31954 0.09793 0.51647 0.0
C210 C 0.3235 0.08008 0.48518 0.0
C211 C 0.32496 0.06319 0.4742 0.0
C212 C 0.30382 0.04749 0.47642 0.0
C213 C 0.30488 0.03175 0.46549 0.0
C214 C 0.32713 0.03141 0.45216 0.0
C215 C 0.34836 0.04713 0.4501 0.0
C216 C 0.34719 0.06289 0.46093 0.0
C217 C 0.31598 0.12493 0.46917 0.0
C218 C 0.33494 0.13117 0.45326 0.0
C219 C 0.33211 0.14514 0.44124 0.0
C220 C 0.31047 0.1532 0.44511 0.0
C221 C 0.29118 0.14671 0.46067 0.0
C222 C 0.29364 0.13252 0.47235 0.0
C223 C 0.3196 0.11064 0.48261 0.0
C224 C 0.32263 0.09461 0.47323 0.0
C225 C 0.31869 0.11244 0.50459 0.0
C226 C 0.31694 0.1293 0.5156 0.0
C227 C 0.33615 0.14551 0.51162 0.0
C228 C 0.33365 0.16143 0.52137 0.0
C229 C 0.31203 0.16143 0.53545 0.0
C230 C 0.29318 0.14511 0.5397 0.0
C231 C 0.29563 0.12922 0.52989 0.0
H232 H 0.49707 0.8386 0.95614 0.0
H233 H 0.4702 0.84474 0.92729 0.0
H234 H 0.44711 0.78863 0.90888 0.0
H235 H 0.47487 0.78275 0.93745 0.0
H236 H 0.479 0.81666 -0.01102 0.0
H237 H 0.5422 0.82112 0.93177 0.0
H238 H 0.56071 0.81438 0.89803 0.0
H239 H 0.55255 0.76026 0.91544 0.0
H240 H 0.53376 0.76702 0.94912 0.0
H241 H 0.54625 0.76961 0.01196 0.0
H242 H 0.57644 0.76604 0.04023 0.0
H243 H 0.58863 0.82154 0.05925 0.0
H244 H 0.55912 0.82513 0.03067 0.0
H245 H 0.5581 0.78997 0.97922 0.0
H246 H 0.49441 0.78394 0.03491 0.0
H247 H 0.4761 0.78921 0.06919 0.0
H248 H 0.48327 0.844 0.05501 0.0
H249 H 0.50224 0.83873 0.0208 0.0
C250 C 0.48804 0.81025 0.94888 0.0
C251 C 0.48624 0.82765 0.94584 0.0
C252 C 0.47072 0.8311 0.92939 0.0
C253 C 0.4563 0.81717 0.91576 0.0
C254 C 0.45823 0.79973 0.91885 0.0
C255 C 0.47399 0.79631 0.93523 0.0
C256 C 0.50416 0.80671 0.96663 0.0
C257 C 0.49652 0.81103 0.98685 0.0
C258 C 0.52638 0.79878 0.96384 0.0
C259 C 0.53628 0.79452 0.94291 0.0
C260 C 0.54388 0.80771 0.92819 0.0
C261 C 0.55451 0.80384 0.90891 0.0
C262 C 0.55809 0.78678 0.90408 0.0
C263 C 0.5503 0.77357 0.91879 0.0
C264 C 0.53949 0.77741 0.93801 0.0
C265 C 0.55027 0.7976 0.01928 0.0
C266 C 0.55542 0.78099 0.02225 0.0
C267 C 0.5725 0.77894 0.0385 0.0
C268 C 0.58495 0.79351 0.05196 0.0
C269 C 0.57959 0.8101 0.04901 0.0
C270 C 0.56249 0.81213 0.03281 0.0
C271 C 0.53303 0.79998 0.00156 0.0
C272 C 0.54047 0.7955 0.98136 0.0
C273 C 0.51043 0.80755 0.00436 0.0
C274 C 0.4999 0.81097 0.02534 0.0
C275 C 0.49235 0.79714 0.03925 0.0
C276 C 0.48165 0.80014 0.05877 0.0
C277 C 0.47815 0.81701 0.06478 0.0
C278 C 0.48595 0.8309 0.0509 0.0
C279 C 0.49659 0.82788 0.03131 0.0
H280 H 0.74361 0.96942 0.51857 0.0
H281 H 0.74215 0.94215 0.53676 0.0
H282 H 0.82864 0.94849 0.52343 0.0
H283 H 0.82996 0.97571 0.50526 0.0
H284 H 0.77628 0.00496 0.52472 0.0
H285 H 0.75796 0.95776 0.47298 0.0
H286 H 0.76467 0.9312 0.45436 0.0
H287 H 0.84587 0.96106 0.43548 0.0
H288 H 0.839 0.98767 0.45426 0.0
H289 H 0.83224 0.04157 0.45444 0.0
H290 H 0.83216 0.06748 0.43426 0.0
H291 H 0.74596 0.06098 0.44917 0.0
H292 H 0.74648 0.03542 0.46967 0.0
H293 H 0.80038 0.00637 0.4497 0.0
H294 H 0.81756 0.05389 0.50269 0.0
H295 H 0.80872 0.08 0.52104 0.0
H296 H 0.72654 0.04893 0.53614 0.0
H297 H 0.73591 0.02277 0.51819 0.0
C298 C 0.78685 0.97451 0.51053 0.0
C299 C 0.76229 0.96501 0.51975 0.0
C300 C 0.76144 0.94939 0.52997 0.0
C301 C 0.78526 0.94318 0.53141 0.0
C302 C 0.81002 0.95301 0.52265 0.0
C303 C 0.81078 0.96851 0.51223 0.0
C304 C 0.78723 0.99026 0.49829 0.0
C305 C 0.78129 0.00522 0.50829 0.0
C306 C 0.79408 0.99065 0.47691 0.0
C307 C 0.79814 0.97464 0.46524 0.0
C308 C 0.77733 0.95856 0.46501 0.0
C309 C 0.78122 0.94336 0.4544 0.0
C310 C 0.8059 0.94398 0.44358 0.0
C311 C 0.82657 0.96019 0.44357 0.0
C312 C 0.82269 0.97539 0.45429 0.0
C313 C 0.78946 0.03669 0.4637 0.0
C314 C 0.81336 0.04577 0.45332 0.0
C315 C 0.81322 0.06052 0.44173 0.0
C316 C 0.78906 0.06639 0.44011 0.0
C317 C 0.76507 0.0571 0.45039 0.0
C318 C 0.76529 0.04242 0.46205 0.0
C319 C 0.78964 0.02115 0.47616 0.0
C320 C 0.79559 0.00618 0.46618 0.0
C321 C 0.78258 0.02071 0.4975 0.0
C322 C 0.77733 0.03644 0.50898 0.0
C323 C 0.79764 0.05274 0.50995 0.0
C324 C 0.79247 0.06768 0.52036 0.0
C325 C 0.76684 0.06663 0.53001 0.0
C326 C 0.74663 0.05019 0.52915 0.0
C327 C 0.75189 0.03523 0.51883 0.0
H328 H 0.47708 0.33602 0.96955 0.0
H329 H 0.45259 0.34377 0.94009 0.0
H330 H 0.43942 0.29016 0.91379 0.0
H331 H 0.46304 0.28226 0.94356 0.0
H332 H 0.46151 0.31347 -0.00114 0.0
H333 H 0.52947 0.31915 0.94348 0.0
H334 H 0.54726 0.31253 0.90938 0.0
H335 H 0.53017 0.2569 0.92355 0.0
H336 H 0.5128 0.26368 0.95768 0.0
H337 H 0.5238 0.26385 0.02134 0.0
H338 H 0.55056 0.25817 0.05074 0.0
H339 H 0.56653 0.31352 0.07153 0.0
H340 H 0.54028 0.31917 0.04196 0.0
H341 H 0.53946 0.28567 -0.01059 0.0
H342 H 0.4744 0.27894 0.0441 0.0
H343 H 0.45581 0.28368 0.0784 0.0
H344 H 0.46336 0.33878 0.06533 0.0
H345 H 0.48313 0.33411 0.03134 0.0
C346 C 0.47235 0.30863 0.95864 0.0
C347 C 0.46877 0.32589 0.95751 0.0
C348 C 0.45479 0.33031 0.9407 0.0
C349 C 0.44433 0.3176 0.92461 0.0
C350 C 0.44767 0.30029 0.92583 0.0
C351 C 0.46126 0.29579 0.9428 0.0
C352 C 0.48731 0.30406 0.97655 0.0
C353 C 0.47885 0.30766 -0.00323 0.0
C354 C 0.50925 0.29581 0.97389 0.0
C355 C 0.51969 0.29189 0.95306 0.0
C356 C 0.52941 0.30552 0.93916 0.0
C357 C 0.53947 0.30169 0.91964 0.0
C358 C 0.54013 0.28417 0.91372 0.0
C359 C 0.53032 0.27057 0.92771 0.0
C360 C 0.52031 0.27441 0.94721 0.0
C361 C 0.5299 0.2919 0.02954 0.0
C362 C 0.53313 0.27474 0.03223 0.0
C363 C 0.54823 0.27149 0.0491 0.0
C364 C 0.56063 0.2854 0.06345 0.0
C365 C 0.55744 0.30257 0.06064 0.0
C366 C 0.54226 0.30579 0.04385 0.0
C367 C 0.51396 0.29539 0.01163 0.0
C368 C 0.52219 0.29154 -0.00854 0.0
C369 C 0.49166 0.30326 0.01433 0.0
C370 C 0.48047 0.30622 0.03523 0.0
C371 C 0.47244 0.29211 0.04873 0.0
C372 C 0.46151 0.2948 0.06826 0.0
C373 C 0.45805 0.31161 0.07462 0.0
C374 C 0.4661 0.32573 0.06105 0.0
C375 C 0.47716 0.32304 0.04153 0.0
C376 C 0.2195 0.39333 0.29034 0.0
C377 C 0.23312 0.38642 0.30562 0.0
C378 C 0.20015 0.40273 0.29593 0.0
C379 C 0.17912 0.42844 0.33966 0.0
H380 H 0.11416 0.42346 0.30534 0.0
C381 C 0.11427 0.47979 0.34337 0.0
C382 C 0.08554 0.47364 0.3406 0.0
C383 C 0.13108 0.46808 0.34092 0.0
C384 C 0.13198 0.42487 0.31528 0.0
H385 H 0.23681 0.38377 0.3388 0.0
H386 H 0.2027 0.40006 0.34858 0.0
H387 H 0.14493 0.40446 0.29782 0.0
H388 H 0.05178 0.45023 0.33386 0.0
H389 H 0.08106 0.42972 0.32977 0.0
H390 H 0.16599 0.44875 0.35724 0.0
C391 C 0.20729 0.39838 0.33226 0.0
C392 C 0.14984 0.41412 0.31079 0.0
C393 C 0.22672 0.38897 0.32665 0.0
C394 C 0.0739 0.45542 0.33578 0.0
C395 C 0.09069 0.44368 0.33342 0.0
C396 C 0.16122 0.43918 0.34418 0.0
C397 C 0.19385 0.40543 0.31695 0.0
C398 C 0.17384 0.41595 0.32273 0.0
C399 C 0.11953 0.4499 0.33573 0.0
C400 C 0.13762 0.43769 0.33187 0.0
H401 H 0.22398 0.39167 0.27399 0.0
H402 H 0.19056 0.40821 0.28374 0.0
H403 H 0.19752 0.43029 0.34908 0.0
H404 H 0.1239 0.49379 0.34681 0.0
H405 H 0.15322 0.47339 0.34248 0.0
C406 C 0.21141 0.75707 0.72065 0.0
C407 C 0.2139 0.76278 0.74175 0.0
C408 C 0.19409 0.74046 0.71452 0.0
C409 C 0.1338 0.70587 0.73241 0.0
H410 H 0.15409 0.67719 0.68719 0.0
C411 C 0.0705 0.63398 0.71053 0.0
C412 C 0.06616 0.62932 0.68922 0.0
C413 C 0.08847 0.65025 0.71706 0.0
C414 C 0.14803 0.68514 0.69971 0.0
H415 H 0.20075 0.75529 0.77301 0.0
H416 H 0.17095 0.72616 0.76235 0.0
H417 H 0.18639 0.70519 0.69869 0.0
H418 H 0.0769 0.63835 0.65809 0.0
H419 H 0.10849 0.66667 0.66953 0.0
H420 H 0.09551 0.6857 0.7335 0.0
C421 C 0.18195 0.73468 0.7505 0.0
C422 C 0.16653 0.70119 0.70631 0.0
C423 C 0.19918 0.75133 0.75662 0.0
C424 C 0.08008 0.64139 0.67461 0.0
C425 C 0.09817 0.65762 0.68116 0.0
C426 C 0.11537 0.68977 0.72589 0.0
C427 C 0.17894 0.72913 0.72935 0.0
C428 C 0.15961 0.71179 0.72269 0.0
C429 C 0.10264 0.66219 0.70245 0.0
C430 C 0.12224 0.67927 0.70942 0.0
H431 H 0.22237 0.76558 0.70877 0.0
H432 H 0.19203 0.73673 0.69809 0.0
H433 H 0.12757 0.71384 0.74483 0.0
H434 H 0.06054 0.62488 0.72221 0.0
H435 H 0.09176 0.65329 0.73358 0.0
C436 C 0.80407 0.69564 0.30774 0.0
C437 C 0.81847 0.71193 0.29965 0.0
C438 C 0.81778 0.68264 0.31181 0.0
C439 C 0.88203 0.66913 0.29898 0.0
H440 H 0.86086 0.63956 0.34639 0.0
C441 C 0.924 0.60797 0.31056 0.0
C442 C 0.92986 0.60415 0.33092 0.0
C443 C 0.91046 0.62115 0.30704 0.0
C444 C 0.86728 0.64782 0.33321 0.0
H445 H 0.85866 0.72749 0.28979 0.0
H446 H 0.88273 0.70508 0.29741 0.0
H447 H 0.83789 0.66279 0.3402 0.0
H448 H 0.92581 0.61127 0.36356 0.0
H449 H 0.90321 0.63471 0.3574 0.0
H450 H 0.91209 0.65462 0.29241 0.0
C451 C 0.8607 0.7021 0.30014 0.0
C452 C 0.85378 0.661 0.32947 0.0
C453 C 0.84693 0.71502 0.29588 0.0
C454 C 0.92193 0.61395 0.34766 0.0
C455 C 0.90859 0.62725 0.34413 0.0
C456 C 0.89567 0.65607 0.30282 0.0
C457 C 0.8463 0.68569 0.30807 0.0
C458 C 0.8609 0.67179 0.31225 0.0
C459 C 0.90265 0.63102 0.32376 0.0
C460 C 0.8884 0.64516 0.31992 0.0
H461 H 0.7821 0.69281 0.31071 0.0
H462 H 0.80589 0.67007 0.31757 0.0
H463 H 0.88787 0.677 0.28542 0.0
H464 H 0.93013 0.60091 0.29724 0.0
H465 H 0.90592 0.62347 0.29115 0.0
C466 C 0.78521 0.31189 0.63808 0.0
C467 C 0.78297 0.30523 0.65816 0.0
C468 C 0.80407 0.32816 0.63407 0.0
C469 C 0.86539 0.36182 0.65637 0.0
H470 H 0.83782 0.3952 0.62535 0.0
C471 C 0.90893 0.43764 0.66634 0.0
C472 C 0.91297 0.44777 0.64851 0.0
C473 C 0.89584 0.41944 0.6649 0.0
C474 C 0.84599 0.38594 0.63376 0.0
H475 H 0.7995 0.31018 0.68956 0.0
H476 H 0.83183 0.33844 0.68269 0.0
H477 H 0.8102 0.36441 0.62725 0.0
H478 H 0.90659 0.44682 0.61518 0.0
H479 H 0.88328 0.41487 0.61268 0.0
H480 H 0.90065 0.38357 0.66358 0.0
C481 C 0.81939 0.33108 0.66992 0.0
C482 C 0.83021 0.36828 0.63482 0.0
C483 C 0.80063 0.31488 0.67391 0.0
C484 C 0.90381 0.43929 0.62915 0.0
C485 C 0.89038 0.42108 0.62774 0.0
C486 C 0.88104 0.37948 0.65544 0.0
C487 C 0.82111 0.33807 0.65004 0.0
C488 C 0.83943 0.35611 0.64656 0.0
C489 C 0.88627 0.41098 0.64562 0.0
C490 C 0.87121 0.39182 0.64453 0.0
H491 H 0.77197 0.30476 0.62558 0.0
H492 H 0.8051 0.33307 0.61852 0.0
H493 H 0.8734 0.35271 0.66517 0.0
H494 H 0.91603 0.44379 0.68142 0.0
H495 H 0.89269 0.41205 0.67898 0.0
C496 C 0.28876 0.2873 0.36009 0.0
C497 C 0.27738 0.28379 0.33998 0.0
C498 C 0.29243 0.27338 0.37183 0.0
C499 C 0.30525 0.22979 0.36712 0.0
H500 H 0.27283 0.22191 0.4219 0.0
C501 C 0.30671 0.16711 0.41134 0.0
C502 C 0.30804 0.16848 0.43312 0.0
C503 C 0.30337 0.18138 0.40011 0.0
C504 C 0.28253 0.22406 0.40681 0.0
H505 H 0.26114 0.26301 0.31632 0.0
H506 H 0.26831 0.23878 0.33667 0.0
H507 H 0.26669 0.24672 0.40234 0.0
H508 H 0.30787 0.18585 0.46031 0.0
H509 H 0.30344 0.2111 0.44079 0.0
H510 H 0.32201 0.20767 0.37166 0.0
C511 C 0.27405 0.25227 0.34337 0.0
C512 C 0.2788 0.23823 0.39558 0.0
C513 C 0.26982 0.26611 0.33182 0.0
C514 C 0.30658 0.18446 0.44349 0.0
C515 C 0.30382 0.19886 0.43227 0.0
C516 C 0.30948 0.21584 0.37849 0.0
C517 C 0.28536 0.25579 0.36347 0.0
C518 C 0.28993 0.24111 0.37559 0.0
C519 C 0.30187 0.19748 0.41041 0.0
C520 C 0.29799 0.21267 0.39845 0.0
H521 H 0.29474 0.30079 0.36678 0.0
H522 H 0.30126 0.27639 0.38729 0.0
H523 H 0.31427 0.23189 0.35178 0.0
H524 H 0.30756 0.15484 0.40305 0.0
H525 H 0.30142 0.17961 0.38336 0.0
C526 C 0.31613 0.83971 0.76779 0.0
C527 C 0.30511 0.85442 0.77127 0.0
C528 C 0.33297 0.83529 0.78279 0.0
C529 C 0.37569 0.85455 0.82935 0.0
H530 H 0.37021 0.8051 0.84008 0.0
C531 C 0.42388 0.83363 0.90171 0.0
C532 C 0.43903 0.82085 0.89864 0.0
C533 C 0.40807 0.83739 0.88563 0.0
C534 C 0.37212 0.81896 0.8371 0.0
H535 H 0.30295 0.87601 0.79315 0.0
H536 H 0.33159 0.86809 0.81948 0.0
H537 H 0.34142 0.81226 0.81309 0.0
H538 H 0.44922 0.80198 0.87609 0.0
H539 H 0.42101 0.80831 0.84814 0.0
H540 H 0.40591 0.86122 0.8537 0.0
C541 C 0.32784 0.86014 0.80504 0.0
C542 C 0.3557 0.82309 0.8216 0.0
C543 C 0.31126 0.86463 0.79 0.0
C544 C 0.43756 0.81172 0.87912 0.0
C545 C 0.42148 0.81537 0.86308 0.0
C546 C 0.39187 0.85043 0.84494 0.0
C547 C 0.33907 0.84547 0.80162 0.0
C548 C 0.35713 0.84095 0.81763 0.0
C549 C 0.40675 0.82835 0.86614 0.0
C550 C 0.39014 0.8326 0.84908 0.0
H551 H 0.3124 0.8319 0.75327 0.0
H552 H 0.34165 0.82411 0.77944 0.0
H553 H 0.37787 0.86845 0.82642 0.0
H554 H 0.42396 0.84064 0.91664 0.0
H555 H 0.39656 0.84725 0.88854 0.0
C556 C 0.79635 0.80337 0.34514 0.0
C557 C 0.80341 0.80677 0.32425 0.0
C558 C 0.80029 0.81742 0.36012 0.0
C559 C 0.83638 0.86519 0.37017 0.0
H560 H 0.77409 0.86519 0.40626 0.0
C561 C 0.82116 0.92905 0.41196 0.0
C562 C 0.80967 0.92783 0.432 0.0
C563 C 0.82326 0.91372 0.4006 0.0
C564 C 0.79189 0.86529 0.39657 0.0
H565 H 0.82117 0.82755 0.30292 0.0
H566 H 0.82785 0.85192 0.32895 0.0
H567 H 0.77317 0.83919 0.38348 0.0
H568 H 0.79246 0.90965 0.45618 0.0
H569 H 0.79618 0.8829 0.43637 0.0
H570 H 0.85486 0.89145 0.38299 0.0
C571 C 0.81945 0.83843 0.33382 0.0
C572 C 0.79136 0.85037 0.38351 0.0
C573 C 0.81544 0.82443 0.31885 0.0
C574 C 0.80097 0.91099 0.44063 0.0
C575 C 0.8031 0.89567 0.42929 0.0
C576 C 0.83693 0.88011 0.38326 0.0
C577 C 0.8115 0.83513 0.35456 0.0
C578 C 0.81339 0.85026 0.36991 0.0
C579 C 0.81398 0.89683 0.40904 0.0
C580 C 0.81449 0.88045 0.39637 0.0
H581 H 0.78712 0.78992 0.34983 0.0
H582 H 0.79425 0.81443 0.37603 0.0
H583 H 0.85387 0.86541 0.3601 0.0
H584 H 0.82774 0.94179 0.40477 0.0
H585 H 0.83135 0.91508 0.38493 0.0
C586 C 0.65972 0.25228 0.75475 0.0
C587 C 0.6568 0.26306 0.73842 0.0
C588 C 0.64464 0.25237 0.77311 0.0
C589 C 0.58464 0.26553 0.79644 0.0
H590 H 0.62684 0.27021 0.84752 0.0
C591 C 0.54599 0.28828 0.87525 0.0
C592 C 0.55151 0.28013 0.8932 0.0
C593 C 0.55721 0.28473 0.85607 0.0
C594 C 0.6146 0.26863 0.83345 0.0
H595 H 0.63478 0.28177 0.72821 0.0
H596 H 0.60863 0.28198 0.76023 0.0
H597 H 0.64854 0.26591 0.81443 0.0
H598 H 0.57322 0.26185 0.90502 0.0
H599 H 0.59222 0.25536 0.87154 0.0
H600 H 0.55076 0.26845 0.81551 0.0
C601 C 0.62246 0.27339 0.75883 0.0
C602 C 0.62705 0.26615 0.81446 0.0
C603 C 0.63758 0.27333 0.7405 0.0
C604 C 0.56829 0.26822 0.89147 0.0
C605 C 0.57947 0.26466 0.87231 0.0
C606 C 0.57214 0.26798 0.81546 0.0
C607 C 0.62624 0.2632 0.77551 0.0
C608 C 0.6123 0.26471 0.79572 0.0
C609 C 0.57422 0.27295 0.8544 0.0
C610 C 0.58705 0.26969 0.83419 0.0
H611 H 0.67424 0.24414 0.75362 0.0
H612 H 0.64769 0.24416 0.78556 0.0
H613 H 0.57262 0.26426 0.78229 0.0
H614 H 0.53289 0.29737 0.87598 0.0
H615 H 0.55297 0.29149 0.84263 0.0
C616 C 0.2884 0.9393 0.6904 0.0
C617 C 0.28856 0.92147 0.686 0.0
C618 C 0.2967 0.95204 0.67539 0.0
C619 C 0.30306 0.95595 0.61869 0.0
H620 H 0.34215 0.00482 0.63373 0.0
C621 C 0.3303 0.01069 0.55814 0.0
C622 C 0.32391 0.02673 0.56421 0.0
C623 C 0.32983 -0.00224 0.57268 0.0
C624 C 0.33115 0.99124 0.6293 0.0
H625 H 0.29837 0.90315 0.66258 0.0
H626 H 0.31312 0.92546 0.63645 0.0
H627 H 0.33467 0.98231 0.65988 0.0
H628 H 0.31312 0.0421 0.59038 0.0
H629 H 0.31201 0.01954 0.61563 0.0
H630 H 0.29914 0.96496 0.5882 0.0
C631 C 0.3062 0.92952 0.65141 0.0
C632 C 0.32683 0.97835 0.64429 0.0
C633 C 0.29789 0.91676 0.66644 0.0
C634 C 0.31778 0.02977 0.58518 0.0
C635 C 0.31747 0.01693 0.5997 0.0
C636 C 0.30744 0.96885 0.60369 0.0
C637 C 0.30539 0.94727 0.65563 0.0
C638 C 0.31228 0.96062 0.63926 0.0
C639 C 0.32322 0.00071 0.5936 0.0
C640 C 0.32107 0.9867 0.60893 0.0
H641 H 0.28129 0.94338 0.7053 0.0
H642 H 0.29545 0.96553 0.67908 0.0
H643 H 0.29148 0.94248 0.61434 0.0
H644 H 0.335 0.00796 0.54206 0.0
H645 H 0.33454 0.98544 0.56755 0.0
C646 C 0.75704 0.79722 0.18711 0.0
C647 C 0.75059 0.78336 0.20108 0.0
C648 C 0.73957 0.79737 0.17039 0.0
C649 C 0.68282 0.7694 0.13795 0.0
H650 H 0.66741 0.81472 0.12831 0.0
C651 C 0.59774 0.77653 0.08097 0.0
C652 C 0.60399 0.79159 0.06874 0.0
C653 C 0.61565 0.7749 0.09688 0.0
C654 C 0.67173 0.80201 0.13061 0.0
H655 H 0.72118 0.75842 0.20798 0.0
H656 H 0.69055 0.75872 0.17876 0.0
H657 H 0.69898 0.81278 0.15604 0.0
H658 H 0.63436 0.81646 0.06319 0.0
H659 H 0.66556 0.81362 0.0908 0.0
H660 H 0.65549 0.75866 0.11243 0.0
C661 C 0.70924 0.76944 0.18073 0.0
C662 C 0.68984 0.80089 0.14652 0.0
C663 C 0.72673 0.7693 0.19751 0.0
C664 C 0.62867 0.80487 0.0726 0.0
C665 C 0.64656 0.80323 0.08844 0.0
C666 C 0.66469 0.77053 0.12196 0.0
C667 C 0.71522 0.78365 0.16721 0.0
C668 C 0.69574 0.78461 0.15031 0.0
C669 C 0.64021 0.78829 0.10086 0.0
C670 C 0.65905 0.78688 0.11804 0.0
H671 H 0.77534 0.8082 0.18929 0.0
H672 H 0.74505 0.80833 0.16003 0.0
H673 H 0.6871 0.7567 0.14038 0.0
H674 H 0.57875 0.76615 0.07851 0.0
H675 H 0.60997 0.76333 0.10632 0.0
C676 C 0.70735 0.1995 0.60741 0.0
C677 C 0.72242 0.20684 0.62544 0.0
C678 C 0.71172 0.18425 0.59716 0.0
C679 C 0.74159 0.14603 0.60484 0.0
H680 H 0.73914 0.142 0.5446 0.0
C681 C 0.74605 0.08108 0.55949 0.0
C682 C 0.76123 0.08263 0.54088 0.0
C683 C 0.74089 0.09612 0.56971 0.0
C684 C 0.74016 0.14296 0.56142 0.0
H685 H 0.75409 0.20401 0.64675 0.0
H686 H 0.76222 0.1777 0.62861 0.0
H687 H 0.73185 0.16857 0.56254 0.0
H688 H 0.78254 0.1013 0.51831 0.0
H689 H 0.77444 0.12754 0.53649 0.0
H690 H 0.75089 0.1207 0.6037 0.0
C691 C 0.74655 0.18346 0.62261 0.0
C692 C 0.73558 0.15812 0.57174 0.0
C693 C 0.74202 0.19863 0.63296 0.0
C694 C 0.7711 0.09961 0.53275 0.0
C695 C 0.76609 0.11466 0.54304 0.0
C696 C 0.74636 0.13092 0.59451 0.0
C697 C 0.73142 0.17604 0.60459 0.0
C698 C 0.73623 0.15986 0.59359 0.0
C699 C 0.75092 0.11312 0.56166 0.0
C700 C 0.7457 0.12918 0.57266 0.0
H701 H 0.69197 0.20545 0.60128 0.0
H702 H 0.69936 0.17877 0.58353 0.0
H703 H 0.74191 0.14678 0.62168 0.0
H704 H 0.73839 0.06827 0.56634 0.0
H705 H 0.72883 0.09437 0.58386 0.0
C706 C 0.32959 0.31835 0.23624 0.0
C707 C 0.33703 0.33459 0.24797 0.0
C708 C 0.34392 0.31589 0.21813 0.0
C709 C 0.4091 0.33283 0.18986 0.0
H710 H 0.36503 0.31099 0.14176 0.0
C711 C 0.45543 0.33003 0.10736 0.0
C712 C 0.4454 0.31427 0.09509 0.0
C713 C 0.44306 0.3326 0.12639 0.0
C714 C 0.37769 0.3169 0.1551 0.0
H715 H 0.36592 0.3608 0.25013 0.0
H716 H 0.39092 0.35647 0.21842 0.0
H717 H 0.34229 0.31514 0.17444 0.0
H718 H 0.41439 0.28888 0.09323 0.0
H719 H 0.39334 0.29316 0.12657 0.0
H720 H 0.44453 0.33453 0.17047 0.0
C721 C 0.37404 0.34564 0.22334 0.0
C722 C 0.36464 0.31929 0.17383 0.0
C723 C 0.35964 0.34814 0.24145 0.0
C724 C 0.42286 0.30109 0.10238 0.0
C725 C 0.41055 0.30365 0.12139 0.0
C726 C 0.42219 0.33038 0.17109 0.0
C727 C 0.36607 0.32958 0.21133 0.0
C728 C 0.38018 0.32721 0.19145 0.0
C729 C 0.42036 0.31948 0.13357 0.0
C730 C 0.40662 0.32232 0.15351 0.0
H731 H 0.3124 0.30758 0.24084 0.0
H732 H 0.33757 0.30325 0.2094 0.0
H733 H 0.42163 0.33883 0.20322 0.0
H734 H 0.47295 0.34037 0.10231 0.0
H735 H 0.45099 0.34501 0.13531 0.0
C736 C 0.78305 0.69932 0.64343 0.0
C737 C 0.78261 0.71053 0.66111 0.0
C738 C 0.79943 0.68726 0.64306 0.0
C739 C 0.83023 0.66148 0.67715 0.0
H740 H 0.87736 0.65713 0.63016 0.0
C741 C 0.87989 0.60264 0.66444 0.0
C742 C 0.90833 0.60709 0.6599 0.0
C743 C 0.86508 0.61557 0.66453 0.0
C744 C 0.86435 0.65825 0.6434 0.0
H745 H 0.79906 0.71791 0.69225 0.0
H746 H 0.82728 0.69659 0.69171 0.0
H747 H 0.85075 0.67945 0.63043 0.0
H748 H 0.94334 0.62886 0.65193 0.0
H749 H 0.91717 0.65123 0.65145 0.0
H750 H 0.84351 0.64014 0.69 0.0
C751 C 0.81503 0.69722 0.67812 0.0
C752 C 0.84902 0.67092 0.6435 0.0
C753 C 0.79898 0.70947 0.67838 0.0
C754 C 0.92141 0.62481 0.65515 0.0
C755 C 0.90648 0.63768 0.65496 0.0
C756 C 0.84521 0.64864 0.67691 0.0
C757 C 0.81537 0.68597 0.66048 0.0
C758 C 0.83186 0.67267 0.6604 0.0
C759 C 0.87821 0.63321 0.6598 0.0
C760 C 0.86244 0.64691 0.66004 0.0
H761 H 0.77071 0.69983 0.62986 0.0
H762 H 0.79917 0.67866 0.62931 0.0
H763 H 0.81701 0.66246 0.69031 0.0
H764 H 0.86891 0.5891 0.66772 0.0
H765 H 0.84322 0.6117 0.66804 0.0
C766 C 0.83124 0.30444 0.32 0.0
C767 C 0.80269 0.30079 0.31619 0.0
C768 C 0.84657 0.32175 0.32579 0.0
C769 C 0.84451 0.368 0.31994 0.0
H770 H 0.90234 0.37995 0.36178 0.0
C771 C 0.89819 0.44089 0.34223 0.0
C772 C 0.92694 0.44548 0.3451 0.0
C773 C 0.88318 0.42304 0.34065 0.0
C774 C 0.88644 0.3768 0.3499 0.0
H775 H 0.76764 0.31231 0.31668 0.0
H776 H 0.79427 0.34231 0.32683 0.0
H777 H 0.87591 0.34888 0.35579 0.0
H778 H 0.96249 0.435 0.34899 0.0
H779 H 0.93631 0.40371 0.34587 0.0
H780 H 0.85514 0.39566 0.31364 0.0
C781 C 0.80491 0.33188 0.32499 0.0
C782 C 0.87129 0.35902 0.34652 0.0
C783 C 0.78963 0.31464 0.31927 0.0
C784 C 0.9403 0.43183 0.34692 0.0
C785 C 0.92529 0.41392 0.34518 0.0
C786 C 0.85968 0.38568 0.32322 0.0
C787 C 0.83363 0.33574 0.32782 0.0
C788 C 0.85002 0.35448 0.3316 0.0
C789 C 0.89658 0.40931 0.3417 0.0
C790 C 0.8807 0.39035 0.33833 0.0
H791 H 0.84194 0.29407 0.3178 0.0
H792 H 0.8687 0.32434 0.32782 0.0
H793 H 0.82868 0.36488 0.308 0.0
H794 H 0.88728 0.45113 0.34114 0.0
H795 H 0.86102 0.42 0.33849 0.0
C796 C 0.19793 0.38876 0.6908 0.0
C797 C 0.19303 0.37893 0.70888 0.0
C798 C 0.18272 0.40097 0.68677 0.0
C799 C 0.14296 0.42929 0.71171 0.0
H800 H 0.10659 0.42598 0.65821 0.0
C801 C 0.06448 0.46976 0.69629 0.0
C802 C 0.0633 0.4762 0.67633 0.0
C803 C 0.08055 0.45803 0.7001 0.0
C804 C 0.11695 0.42734 0.67311 0.0
H805 H 0.16878 0.37447 0.73714 0.0
H806 H 0.14264 0.39611 0.73028 0.0
H807 H 0.13504 0.40581 0.66518 0.0
H808 H 0.07818 0.47505 0.64465 0.0
H809 H 0.10723 0.45539 0.65152 0.0
H810 H 0.12565 0.45106 0.71958 0.0
C811 C 0.15812 0.39425 0.71919 0.0
C812 C 0.13316 0.4157 0.67711 0.0
C813 C 0.173 0.38182 0.72305 0.0
C814 C 0.07879 0.47061 0.6603 0.0
C815 C 0.09518 0.45906 0.66418 0.0
C816 C 0.12712 0.44111 0.70762 0.0
C817 C 0.16265 0.4038 0.70091 0.0
C818 C 0.14615 0.41649 0.69649 0.0
C819 C 0.09627 0.45258 0.68414 0.0
C820 C 0.1137 0.44022 0.68832 0.0
H821 H 0.21318 0.38679 0.67956 0.0
H822 H 0.18673 0.40826 0.67263 0.0
H823 H 0.15302 0.43029 0.7267 0.0
H824 H 0.05324 0.47394 0.70915 0.0
H825 H 0.08043 0.45314 0.71559 0.0
C826 C 0.22277 0.76011 0.31801 0.0
C827 C 0.23029 0.76306 0.29712 0.0
C828 C 0.20296 0.74462 0.32334 0.0
C829 C 0.14684 0.70753 0.30069 0.0
H830 H 0.16138 0.68181 0.34769 0.0
C831 C 0.09289 0.63351 0.31086 0.0
C832 C 0.08389 0.62811 0.33086 0.0
C833 C 0.10897 0.6508 0.30788 0.0
C834 C 0.15684 0.68896 0.33469 0.0
H835 H 0.22264 0.75215 0.26544 0.0
H836 H 0.18862 0.7252 0.27472 0.0
H837 H 0.19247 0.71077 0.34056 0.0
H838 H 0.0845 0.63684 0.3634 0.0
H839 H 0.11299 0.667 0.35817 0.0
H840 H 0.11162 0.68551 0.29451 0.0
C841 C 0.1976 0.73492 0.287 0.0
C842 C 0.17461 0.70557 0.33062 0.0
C843 C 0.21731 0.75035 0.28169 0.0
C844 C 0.09141 0.64046 0.34782 0.0
C845 C 0.10767 0.65775 0.34484 0.0
C846 C 0.12918 0.69091 0.30469 0.0
C847 C 0.19025 0.7318 0.30788 0.0
C848 C 0.17007 0.71492 0.31336 0.0
C849 C 0.11658 0.6631 0.32483 0.0
C850 C 0.13422 0.68132 0.32154 0.0
H851 H 0.23235 0.76968 0.33026 0.0
H852 H 0.19756 0.74271 0.33956 0.0
H853 H 0.1424 0.71454 0.28752 0.0
H854 H 0.08798 0.62427 0.29749 0.0
H855 H 0.11593 0.65443 0.29231 0.0
C856 C 0.752 0.79913 0.61299 0.0
C857 C 0.76783 0.80034 0.63118 0.0
C858 C 0.75558 0.81375 0.60042 0.0
C859 C 0.80288 0.85684 0.58779 0.0
H860 H 0.73564 0.86984 0.57459 0.0
C861 C 0.80458 0.92547 0.55614 0.0
C862 C 0.78418 0.92634 0.54172 0.0
C863 C 0.80341 0.90961 0.56594 0.0
C864 C 0.75462 0.86628 0.57778 0.0
H865 H 0.80086 0.81759 0.64981 0.0
H866 H 0.80728 0.84303 0.62768 0.0
H867 H 0.73292 0.84267 0.59275 0.0
H868 H 0.74703 0.9112 0.52576 0.0
H869 H 0.74527 0.8834 0.54242 0.0
H870 H 0.82463 0.88035 0.57268 0.0
C871 C 0.79203 0.83078 0.62323 0.0
C872 C 0.75304 0.8507 0.58824 0.0
C873 C 0.78827 0.81622 0.63594 0.0
C874 C 0.76279 0.91098 0.53707 0.0
C875 C 0.76178 0.89506 0.54668 0.0
C876 C 0.80447 0.87235 0.57711 0.0
C877 C 0.77527 0.82983 0.60562 0.0
C878 C 0.77714 0.84588 0.59349 0.0
C879 C 0.78197 0.89418 0.56135 0.0
C880 C 0.78036 0.87736 0.5721 0.0
H881 H 0.7361 0.78711 0.60884 0.0
H882 H 0.74259 0.81258 0.58679 0.0
H883 H 0.82178 0.85336 0.59149 0.0
H884 H 0.82117 0.93717 0.56014 0.0
H885 H 0.81905 0.90957 0.5774 0.0
C886 C 0.67984 0.25236 0.21748 0.0
C887 C 0.70511 0.26508 0.22151 0.0
C888 C 0.66408 0.25347 0.19997 0.0
C889 C 0.65298 0.28635 0.16399 0.0
H890 H 0.61708 0.24527 0.12865 0.0
C891 C 0.6024 0.29427 0.08654 0.0
C892 C 0.57711 0.28211 0.08119 0.0
C893 C 0.61773 0.29145 0.10345 0.0
C894 C 0.6267 0.25684 0.13852 0.0
H895 H 0.73404 0.28854 0.20989 0.0
H896 H 0.70669 0.29038 0.17949 0.0
H897 H 0.64438 0.24143 0.15856 0.0
H898 H 0.5481 0.25741 0.08936 0.0
H899 H 0.57477 0.25256 0.11909 0.0
H900 H 0.63525 0.30177 0.14423 0.0
C901 C 0.69885 0.27972 0.18998 0.0
C902 C 0.64235 0.25463 0.15562 0.0
C903 C 0.7146 0.27859 0.20737 0.0
C904 C 0.56765 0.26693 0.09299 0.0
C905 C 0.58295 0.26415 0.11 0.0
C906 C 0.63728 0.28854 0.147 0.0
C907 C 0.67322 0.26736 0.18624 0.0
C908 C 0.65588 0.2694 0.16841 0.0
C909 C 0.6081 0.27644 0.11552 0.0
C910 C 0.62415 0.27386 0.13392 0.0
H911 H 0.67197 0.24179 0.22807 0.0
H912 H 0.64435 0.24378 0.19754 0.0
H913 H 0.66267 0.29794 0.1738 0.0
H914 H 0.61049 0.30591 0.07752 0.0
H915 H 0.63729 0.301 0.10698 0.0
C916 C 0.32102 0.29756 0.63882 0.0
C917 C 0.29591 0.30026 0.64622 0.0
C918 C 0.32125 0.28377 0.62423 0.0
C919 C 0.2781 0.24007 0.60551 0.0
H920 H 0.3346 0.24439 0.56311 0.0
C921 C 0.28294 0.18139 0.54869 0.0
C922 C 0.30916 0.17834 0.54576 0.0
C923 C 0.28014 0.19703 0.55896 0.0
C924 C 0.31878 0.24297 0.57495 0.0
H925 H 0.25133 0.29104 0.64341 0.0
H926 H 0.25175 0.26706 0.61769 0.0
H927 H 0.33139 0.27072 0.58404 0.0
H928 H 0.35303 0.18942 0.55129 0.0
H929 H 0.34815 0.21674 0.56912 0.0
H930 H 0.26571 0.21229 0.59659 0.0
C931 C 0.27126 0.27545 0.62347 0.0
C932 C 0.31693 0.25804 0.58694 0.0
C933 C 0.27102 0.28926 0.63811 0.0
C934 C 0.33256 0.19145 0.55303 0.0
C935 C 0.32977 0.20711 0.56325 0.0
C936 C 0.27989 0.22502 0.59347 0.0
C937 C 0.29639 0.27236 0.61663 0.0
C938 C 0.29682 0.25672 0.60258 0.0
C939 C 0.30351 0.21001 0.56647 0.0
C940 C 0.3005 0.22625 0.57826 0.0
H941 H 0.34058 0.30579 0.64472 0.0
H942 H 0.34097 0.28166 0.61952 0.0
H943 H 0.26264 0.23851 0.61763 0.0
H944 H 0.26452 0.17173 0.54293 0.0
H945 H 0.25966 0.199 0.56095 0.0
C946 C 0.34945 0.81792 0.22555 0.0
C947 C 0.3591 0.83138 0.24107 0.0
C948 C 0.36379 0.81772 0.20695 0.0
C949 C 0.4137 0.84496 0.17185 0.0
H950 H 0.42413 0.79916 0.1528 0.0
C951 C 0.47666 0.83536 0.0978 0.0
C952 C 0.46571 0.81989 0.08524 0.0
C953 C 0.46509 0.83774 0.11725 0.0
C954 C 0.42117 0.81202 0.15776 0.0
H955 H 0.39104 0.85556 0.24882 0.0
H956 H 0.41616 0.85522 0.216 0.0
H957 H 0.40128 0.80182 0.18581 0.0
H958 H 0.4334 0.79515 0.08289 0.0
H959 H 0.41314 0.79932 0.11658 0.0
H960 H 0.43322 0.85507 0.14351 0.0
C961 C 0.39742 0.84483 0.21843 0.0
C962 C 0.40813 0.81355 0.17671 0.0
C963 C 0.38309 0.84498 0.23722 0.0
C964 C 0.44269 0.80703 0.09238 0.0
C965 C 0.4311 0.80943 0.11172 0.0
C966 C 0.42669 0.84342 0.15275 0.0
C967 C 0.38813 0.83099 0.20327 0.0
C968 C 0.40384 0.82994 0.18382 0.0
C969 C 0.44229 0.82472 0.1245 0.0
C970 C 0.43015 0.82684 0.14533 0.0
H971 H 0.33096 0.80729 0.22786 0.0
H972 H 0.35583 0.80707 0.19541 0.0
H973 H 0.41057 0.85775 0.17691 0.0
H974 H 0.49452 0.84545 0.09278 0.0
H975 H 0.47434 0.8496 0.12678 0.0
C976 C 0.76258 0.1952 0.34617 0.0
C977 C 0.77894 0.19891 0.32827 0.0
C978 C 0.76423 0.18121 0.35856 0.0
C979 C 0.80883 0.15132 0.36971 0.0
H980 H 0.74183 0.12259 0.39406 0.0
C981 C 0.80322 0.08485 0.40875 0.0
C982 C 0.78876 0.08202 0.42766 0.0
C983 C 0.80256 0.09938 0.39692 0.0
C984 C 0.76075 0.1306 0.38752 0.0
H985 H 0.8098 0.19077 0.30927 0.0
H986 H 0.8122 0.1661 0.33057 0.0
H987 H 0.73955 0.14727 0.37272 0.0
H988 H 0.76279 0.09262 0.44912 0.0
H989 H 0.76128 0.11775 0.42827 0.0
H990 H 0.82989 0.13436 0.38427 0.0
C991 C 0.7985 0.17423 0.33533 0.0
C992 C 0.75949 0.14479 0.37532 0.0
C993 C 0.79701 0.18832 0.32303 0.0
C994 C 0.77374 0.09416 0.43446 0.0
C995 C 0.77291 0.1086 0.42255 0.0
C996 C 0.81005 0.13704 0.38177 0.0
C997 C 0.78212 0.17047 0.35326 0.0
C998 C 0.78351 0.15536 0.36628 0.0
C999 C 0.78726 0.11135 0.40363 0.0
C1000 C 0.78603 0.12654 0.39084 0.0
H1001 H 0.74857 0.20318 0.35072 0.0
H1002 H 0.75164 0.17892 0.37243 0.0
H1003 H 0.82783 0.15933 0.3633 0.0
H1004 H 0.81464 0.07564 0.40285 0.0
H1005 H 0.81356 0.10103 0.38228 0.0
C1006 C 0.3363 0.34184 0.76271 0.0
C1007 C 0.31024 0.34534 0.76469 0.0
C1008 C 0.3518 0.34085 0.78028 0.0
C1009 C 0.3621 0.35255 0.83595 0.0
H1010 H 0.38667 0.30928 0.83664 0.0
C1011 C 0.4091 0.33119 0.90945 0.0
C1012 C 0.43 0.32233 0.90655 0.0
C1013 C 0.395 0.3351 0.89236 0.0
C1014 C 0.38044 0.32159 0.83663 0.0
H1015 H 0.28083 0.35159 0.78676 0.0
H1016 H 0.30826 0.35004 0.81758 0.0
H1017 H 0.36199 0.31501 0.80651 0.0
H1018 H 0.45333 0.31123 0.88357 0.0
H1019 H 0.42946 0.31847 0.85374 0.0
H1020 H 0.381 0.35931 0.86596 0.0
C1021 C 0.31647 0.34798 0.80233 0.0
C1022 C 0.36618 0.32482 0.81936 0.0
C1023 C 0.30077 0.34882 0.78468 0.0
C1024 C 0.43699 0.31781 0.88625 0.0
C1025 C 0.42319 0.32191 0.86917 0.0
C1026 C 0.37673 0.34943 0.8532 0.0
C1027 C 0.34177 0.34348 0.80027 0.0
C1028 C 0.35692 0.34034 0.8188 0.0
C1029 C 0.40175 0.3304 0.87199 0.0
C1030 C 0.38615 0.33391 0.85374 0.0
H1031 H 0.34438 0.33921 0.74758 0.0
H1032 H 0.37144 0.33764 0.77826 0.0
H1033 H 0.35527 0.36466 0.83586 0.0
H1034 H 0.40318 0.33471 0.92497 0.0
H1035 H 0.3784 0.34141 0.89519 0.0
C1036 C 0.30945 0.89542 0.3428 0.0
C1037 C 0.33287 0.8887 0.34267 0.0
C1038 C 0.30927 0.911 0.35444 0.0
C1039 C 0.34477 0.94006 0.39859 0.0
H1040 H 0.30788 0.97367 0.37731 0.0
C1041 C 0.35254 0.00947 0.43835 0.0
C1042 C 0.32791 0.01484 0.44005 0.0
C1043 C 0.35338 -0.00593 0.42657 0.0
C1044 C 0.31806 0.96433 0.38354 0.0
H1045 H 0.37466 0.89325 0.35439 0.0
H1046 H 0.37457 0.92062 0.37432 0.0
H1047 H 0.30935 0.94713 0.35619 0.0
H1048 H 0.28491 0.00832 0.43065 0.0
H1049 H 0.28634 0.9814 0.41015 0.0
H1050 H 0.3537 0.95743 0.42585 0.0
C1051 C 0.3561 0.91367 0.36578 0.0
C1052 C 0.31887 0.94909 0.37145 0.0
C1053 C 0.35623 0.89803 0.35423 0.0
C1054 C 0.30412 0.00445 0.42978 0.0
C1055 C 0.30502 0.98914 0.41787 0.0
C1056 C 0.3441 0.95536 0.41061 0.0
C1057 C 0.33256 0.9203 0.36615 0.0
C1058 C 0.33214 0.93671 0.37885 0.0
C1059 C 0.32966 0.9838 0.4161 0.0
C1060 C 0.33064 0.96763 0.40325 0.0
H1061 H 0.29106 0.88851 0.33415 0.0
H1062 H 0.29062 0.91555 0.35458 0.0
H1063 H 0.35477 0.93069 0.40495 0.0
H1064 H 0.37115 0.01714 0.44622 0.0
H1065 H 0.37272 0.99037 0.42538 0.0
C1066 C 0.69559 0.76146 0.75302 0.0
C1067 C 0.68892 0.76812 0.73435 0.0
C1068 C 0.67954 0.76189 0.77083 0.0
C1069 C 0.63283 0.78659 0.79429 0.0
H1070 H 0.61383 0.74781 0.83205 0.0
C1071 C 0.56319 0.78912 0.86539 0.0
C1072 C 0.57081 0.78298 0.88406 0.0
C1073 C 0.57599 0.78614 0.84669 0.0
C1074 C 0.6192 0.75883 0.82177 0.0
H1075 H 0.65954 0.77985 0.7196 0.0
H1076 H 0.6316 0.78052 0.75058 0.0
H1077 H 0.63921 0.74452 0.8002 0.0
H1078 H 0.59785 0.76891 0.89776 0.0
H1079 H 0.62042 0.76389 0.86522 0.0
H1080 H 0.61339 0.80107 0.8159 0.0
C1081 C 0.64944 0.7752 0.75153 0.0
C1082 C 0.6337 0.75692 0.80351 0.0
C1083 C 0.6654 0.77471 0.73374 0.0
C1084 C 0.59125 0.7736 0.88358 0.0
C1085 C 0.60416 0.7707 0.86491 0.0
C1086 C 0.61848 0.78854 0.81255 0.0
C1087 C 0.65656 0.76905 0.77036 0.0
C1088 C 0.64069 0.77079 0.78958 0.0
C1089 C 0.59685 0.77705 0.84625 0.0
C1090 C 0.6115 0.7747 0.82655 0.0
H1091 H 0.71357 0.75628 0.75401 0.0
H1092 H 0.68565 0.75715 0.78515 0.0
H1093 H 0.63834 0.79765 0.78406 0.0
H1094 H 0.54722 0.79617 0.86522 0.0
H1095 H 0.56949 0.79094 0.83256 0.0
loop_
_geom_bond_atom_site_label_1
_geom_bond_atom_site_label_2
_geom_bond_distance
_geom_bond_site_symmetry_2
_ccdc_geom_bond_type
O0 Cd1 2.300 . S
O0 C7 1.275 . S
Cd1 O0 2.300 . S
Cd1 O9 2.381 . S
Cd1 O10 2.378 . S
O2 Cd3 2.385 . S
O2 C7 1.255 . S
Cd3 O2 2.385 . S
Cd3 O4 2.317 . S
O4 Cd3 2.317 . S
O4 C5 1.232 . S
C5 O4 1.232 . S
C5 O6 1.218 . S
O6 C5 1.218 . S
C7 O0 1.275 . S
C7 O2 1.255 . S
C8 O9 1.258 . S
C8 O10 1.256 . S
O9 Cd1 2.381 . S
O9 C8 1.258 . S
O10 Cd1 2.378 . S
O10 C8 1.256 . S
O11 Cd12 2.300 . S
O11 C18 1.275 . S
Cd12 O11 2.300 . S
Cd12 O20 2.381 . S
Cd12 O21 2.378 . S
O13 Cd14 2.385 . S
O13 C18 1.255 . S
Cd14 O13 2.385 . S
Cd14 O15 2.317 . S
O15 Cd14 2.317 . S
O15 C16 1.232 . S
C16 O15 1.232 . S
C16 O17 1.218 . S
O17 C16 1.218 . S
C18 O11 1.275 . S
C18 O13 1.255 . S
C19 O20 1.258 . S
C19 O21 1.256 . S
O20 Cd12 2.381 . S
O20 C19 1.258 . S
O21 Cd12 2.378 . S
O21 C19 1.256 . S
O22 Cd23 2.300 . S
O22 C29 1.275 . S
Cd23 O22 2.300 . S
Cd23 O31 2.381 . S
Cd23 O32 2.378 . S
O24 Cd25 2.385 . S
O24 C29 1.255 . S
Cd25 O24 2.385 . S
Cd25 O26 2.317 . S
O26 Cd25 2.317 . S
O26 C27 1.232 . S
C27 O26 1.232 . S
C27 O28 1.218 . S
O28 C27 1.218 . S
C29 O22 1.275 . S
C29 O24 1.255 . S
C30 O31 1.258 . S
C30 O32 1.256 . S
O31 Cd23 2.381 . S
O31 C30 1.258 . S
O32 Cd23 2.378 . S
O32 C30 1.256 . S
O33 Cd34 2.300 . S
O33 C40 1.275 . S
Cd34 O33 2.300 . S
Cd34 O42 2.381 . S
Cd34 O43 2.378 . S
O35 Cd36 2.385 . S
O35 C40 1.255 . S
Cd36 O35 2.385 . S
Cd36 O37 2.317 . S
O37 Cd36 2.317 . S
O37 C38 1.232 . S
C38 O37 1.232 . S
C38 O39 1.218 . S
O39 C38 1.218 . S
C40 O33 1.275 . S
C40 O35 1.255 . S
C41 O42 1.258 . S
C41 O43 1.256 . S
O42 Cd34 2.381 . S
O42 C41 1.258 . S
O43 Cd34 2.378 . S
O43 C41 1.256 . S
O44 Cd45 2.300 . S
O44 C51 1.275 . S
Cd45 O44 2.300 . S
Cd45 O53 2.381 . S
Cd45 O54 2.378 . S
O46 Cd47 2.385 . S
O46 C51 1.255 . S
Cd47 O46 2.385 . S
Cd47 O48 2.317 . S
O48 Cd47 2.317 . S
O48 C49 1.232 . S
C49 O48 1.232 . S
C49 O50 1.218 . S
O50 C49 1.218 . S
C51 O44 1.275 . S
C51 O46 1.255 . S
C52 O53 1.258 . S
C52 O54 1.256 . S
O53 Cd45 2.381 . S
O53 C52 1.258 . S
O54 Cd45 2.378 . S
O54 C52 1.256 . S
O55 Cd56 2.300 . S
O55 C62 1.275 . S
Cd56 O55 2.300 . S
Cd56 O64 2.381 . S
Cd56 O65 2.378 . S
O57 Cd58 2.385 . S
O57 C62 1.255 . S
Cd58 O57 2.385 . S
Cd58 O59 2.317 . S
O59 Cd58 2.317 . S
O59 C60 1.232 . S
C60 O59 1.232 . S
C60 O61 1.218 . S
O61 C60 1.218 . S
C62 O55 1.275 . S
C62 O57 1.255 . S
C63 O64 1.258 . S
C63 O65 1.256 . S
O64 Cd56 2.381 . S
O64 C63 1.258 . S
O65 Cd56 2.378 . S
O65 C63 1.256 . S
O66 Cd67 2.300 . S
O66 C73 1.275 . S
Cd67 O66 2.300 . S
Cd67 O75 2.381 . S
Cd67 O76 2.378 . S
O68 Cd69 2.385 . S
O68 C73 1.255 . S
Cd69 O68 2.385 . S
Cd69 O70 2.317 . S
O70 Cd69 2.317 . S
O70 C71 1.232 . S
C71 O70 1.232 . S
C71 O72 1.218 . S
O72 C71 1.218 . S
C73 O66 1.275 . S
C73 O68 1.255 . S
C74 O75 1.258 . S
C74 O76 1.256 . S
O75 Cd67 2.381 . S
O75 C74 1.258 . S
O76 Cd67 2.378 . S
O76 C74 1.256 . S
O77 Cd78 2.300 . S
O77 C84 1.275 . S
Cd78 O77 2.300 . S
Cd78 O86 2.381 . S
Cd78 O87 2.378 . S
O79 Cd80 2.385 . S
O79 C84 1.255 . S
Cd80 O79 2.385 . S
Cd80 O81 2.317 . S
O81 Cd80 2.317 . S
O81 C82 1.232 . S
C82 O81 1.232 . S
C82 O83 1.218 . S
O83 C82 1.218 . S
C84 O77 1.275 . S
C84 O79 1.255 . S
C85 O86 1.258 . S
C85 O87 1.256 . S
O86 Cd78 2.381 . S
O86 C85 1.258 . S
O87 Cd78 2.378 . S
O87 C85 1.256 . S
H88 C107 0.949 . S
H89 C108 0.950 . S
H90 C110 0.950 . S
H91 C111 0.950 . S
H92 C113 0.950 1_655 S
H93 C116 0.950 . S
H94 C117 0.950 . S
H95 C119 0.951 . S
H96 C120 0.949 . S
H97 C122 0.949 . S
H98 C123 0.950 . S
H99 C125 0.950 . S
H100 C126 0.950 . S
H101 C128 0.950 . S
H102 C131 0.950 . S
H103 C132 0.947 . S
H104 C134 0.951 . S
H105 C135 0.949 . S
C106 C107 1.376 1_455 S
C106 C111 1.386 . S
C106 C112 1.483 . S
C107 H88 0.949 . S
C107 C106 1.376 1_655 S
C107 C108 1.397 . S
C108 H89 0.950 . S
C108 C107 1.397 . S
C108 C109 1.391 . S
C109 C108 1.391 . S
C109 C110 1.405 . S
C110 H90 0.950 . S
C110 C109 1.405 . S
C110 C111 1.367 1_655 S
C111 H91 0.950 . S
C111 C106 1.386 . S
C111 C110 1.367 1_455 S
C112 C106 1.483 . S
C112 C113 1.382 . S
C112 C114 1.403 . S
C113 H92 0.950 1_455 S
C113 C112 1.382 . S
C113 C129 1.411 . S
C114 C112 1.403 . S
C114 C115 1.489 . S
C114 C128 1.411 . S
C115 C114 1.489 . S
C115 C116 1.383 . S
C115 C120 1.382 . S
C116 H93 0.950 . S
C116 C115 1.383 . S
C116 C117 1.395 . S
C117 H94 0.950 . S
C117 C116 1.395 . S
C117 C118 1.288 . S
C118 C117 1.288 . S
C118 C119 1.392 . S
C119 H95 0.951 . S
C119 C118 1.392 . S
C119 C120 1.392 . S
C120 H96 0.949 . S
C120 C115 1.382 . S
C120 C119 1.392 . S
C121 C122 1.376 . S
C121 C126 1.386 . S
C121 C127 1.483 . S
C122 H97 0.949 . S
C122 C121 1.376 . S
C122 C123 1.397 . S
C123 H98 0.950 . S
C123 C122 1.397 . S
C123 C124 1.391 . S
C124 C123 1.391 . S
C124 C125 1.405 . S
C125 H99 0.950 . S
C125 C124 1.405 . S
C125 C126 1.367 . S
C126 H100 0.950 . S
C126 C121 1.386 . S
C126 C125 1.367 . S
C127 C121 1.483 . S
C127 C128 1.382 . S
C127 C129 1.403 . S
C128 H101 0.950 . S
C128 C114 1.411 . S
C128 C127 1.382 . S
C129 C113 1.411 . S
C129 C127 1.403 . S
C129 C130 1.489 . S
C130 C129 1.489 . S
C130 C131 1.383 . S
C130 C135 1.382 1_455 S
C131 H102 0.950 . S
C131 C130 1.383 . S
C131 C132 1.395 1_455 S
C132 H103 0.947 . S
C132 C131 1.395 1_655 S
C132 C133 1.288 . S
C133 C132 1.288 . S
C133 C134 1.392 . S
C134 H104 0.951 . S
C134 C133 1.392 . S
C134 C135 1.392 . S
C135 H105 0.949 . S
C135 C130 1.382 1_655 S
C135 C134 1.392 . S
H136 C155 0.949 . S
H137 C156 0.950 . S
H138 C158 0.950 . S
H139 C159 0.950 . S
H140 C161 0.950 . S
H141 C164 0.950 . S
H142 C165 0.950 . S
H143 C167 0.951 . S
H144 C168 0.949 . S
H145 C170 0.949 . S
H146 C171 0.950 . S
H147 C173 0.950 . S
H148 C174 0.950 . S
H149 C176 0.950 . S
H150 C179 0.950 . S
H151 C180 0.950 . S
H152 C182 0.951 . S
H153 C183 0.949 . S
C154 C155 1.376 . S
C154 C159 1.386 . S
C154 C160 1.483 . S
C155 H136 0.949 . S
C155 C154 1.376 . S
C155 C156 1.397 . S
C156 H137 0.950 . S
C156 C155 1.397 . S
C156 C157 1.391 . S
C157 C156 1.391 . S
C157 C158 1.405 . S
C158 H138 0.950 . S
C158 C157 1.405 . S
C158 C159 1.367 . S
C159 H139 0.950 . S
C159 C154 1.386 . S
C159 C158 1.367 . S
C160 C154 1.483 . S
C160 C161 1.382 . S
C160 C162 1.403 1_455 S
C161 H140 0.950 . S
C161 C160 1.382 . S
C161 C177 1.411 . S
C162 C160 1.403 1_655 S
C162 C163 1.489 . S
C162 C176 1.411 . S
C163 C162 1.489 . S
C163 C164 1.383 . S
C163 C168 1.382 . S
C164 H141 0.950 . S
C164 C163 1.383 . S
C164 C165 1.395 . S
C165 H142 0.950 . S
C165 C164 1.395 . S
C165 C166 1.288 . S
C166 C165 1.288 . S
C166 C167 1.392 . S
C167 H143 0.951 . S
C167 C166 1.392 . S
C167 C168 1.392 . S
C168 H144 0.949 . S
C168 C163 1.382 . S
C168 C167 1.392 . S
C169 C170 1.376 . S
C169 C174 1.386 . S
C169 C175 1.483 . S
C170 H145 0.949 . S
C170 C169 1.376 . S
C170 C171 1.397 . S
C171 H146 0.950 . S
C171 C170 1.397 . S
C171 C172 1.391 . S
C172 C171 1.391 . S
C172 C173 1.405 . S
C173 H147 0.950 . S
C173 C172 1.405 . S
C173 C174 1.367 . S
C174 H148 0.950 . S
C174 C169 1.386 . S
C174 C173 1.367 . S
C175 C169 1.483 . S
C175 C176 1.382 . S
C175 C177 1.403 1_655 S
C176 H149 0.950 . S
C176 C162 1.411 . S
C176 C175 1.382 . S
C177 C161 1.411 . S
C177 C175 1.403 1_455 S
C177 C178 1.489 . S
C178 C177 1.489 . S
C178 C179 1.383 . S
C178 C183 1.382 . S
C179 H150 0.950 . S
C179 C178 1.383 . S
C179 C180 1.395 . S
C180 H151 0.950 . S
C180 C179 1.395 . S
C180 C181 1.288 . S
C181 C180 1.288 . S
C181 C182 1.392 . S
C182 H152 0.951 . S
C182 C181 1.392 . S
C182 C183 1.392 . S
C183 H153 0.949 . S
C183 C178 1.382 . S
C183 C182 1.392 . S
H184 C203 0.949 . S
H185 C204 0.950 . S
H186 C206 0.950 . S
H187 C207 0.950 . S
H188 C209 0.950 . S
H189 C212 0.950 . S
H190 C213 0.950 . S
H191 C215 0.951 . S
H192 C216 0.949 . S
H193 C218 0.949 . S
H194 C219 0.950 . S
H195 C221 0.950 . S
H196 C222 0.950 . S
H197 C224 0.950 . S
H198 C227 0.950 . S
H199 C228 0.950 . S
H200 C230 0.951 . S
H201 C231 0.949 . S
C202 C203 1.376 . S
C202 C207 1.386 . S
C202 C208 1.483 . S
C203 H184 0.949 . S
C203 C202 1.376 . S
C203 C204 1.397 . S
C204 H185 0.950 . S
C204 C203 1.397 . S
C204 C205 1.391 . S
C205 C204 1.391 . S
C205 C206 1.405 . S
C206 H186 0.950 . S
C206 C205 1.405 . S
C206 C207 1.367 . S
C207 H187 0.950 . S
C207 C202 1.386 . S
C207 C206 1.367 . S
C208 C202 1.483 . S
C208 C209 1.382 . S
C208 C210 1.403 . S
C209 H188 0.950 . S
C209 C208 1.382 . S
C209 C225 1.411 . S
C210 C208 1.403 . S
C210 C211 1.489 . S
C210 C224 1.411 . S
C211 C210 1.489 . S
C211 C212 1.383 . S
C211 C216 1.382 . S
C212 H189 0.950 . S
C212 C211 1.383 . S
C212 C213 1.395 . S
C213 H190 0.950 . S
C213 C212 1.395 . S
C213 C214 1.288 . S
C214 C213 1.288 . S
C214 C215 1.392 . S
C215 H191 0.951 . S
C215 C214 1.392 . S
C215 C216 1.392 . S
C216 H192 0.949 . S
C216 C211 1.382 . S
C216 C215 1.392 . S
C217 C218 1.376 . S
C217 C222 1.386 . S
C217 C223 1.483 . S
C218 H193 0.949 . S
C218 C217 1.376 . S
C218 C219 1.397 . S
C219 H194 0.950 . S
C219 C218 1.397 . S
C219 C220 1.391 . S
C220 C219 1.391 . S
C220 C221 1.405 . S
C221 H195 0.950 . S
C221 C220 1.405 . S
C221 C222 1.367 . S
C222 H196 0.950 . S
C222 C217 1.386 . S
C222 C221 1.367 . S
C223 C217 1.483 . S
C223 C224 1.382 . S
C223 C225 1.403 . S
C224 H197 0.950 . S
C224 C210 1.411 . S
C224 C223 1.382 . S
C225 C209 1.411 . S
C225 C223 1.403 . S
C225 C226 1.489 . S
C226 C225 1.489 . S
C226 C227 1.383 . S
C226 C231 1.382 . S
C227 H198 0.950 . S
C227 C226 1.383 . S
C227 C228 1.395 . S
C228 H199 0.950 . S
C228 C227 1.395 . S
C228 C229 1.288 . S
C229 C228 1.288 . S
C229 C230 1.392 . S
C230 H200 0.951 . S
C230 C229 1.392 . S
C230 C231 1.392 . S
C231 H201 0.949 . S
C231 C226 1.382 . S
C231 C230 1.392 . S
H232 C251 0.949 . S
H233 C252 0.950 . S
H234 C254 0.950 . S
H235 C255 0.950 . S
H236 C257 0.950 . S
H237 C260 0.950 . S
H238 C261 0.950 . S
H239 C263 0.951 . S
H240 C264 0.949 . S
H241 C266 0.949 . S
H242 C267 0.950 . S
H243 C269 0.950 . S
H244 C270 0.950 . S
H245 C272 0.950 . S
H246 C275 0.950 . S
H247 C276 0.950 . S
H248 C278 0.951 . S
H249 C279 0.949 . S
C250 C251 1.376 . S
C250 C255 1.386 . S
C250 C256 1.483 . S
C251 H232 0.949 . S
C251 C250 1.376 . S
C251 C252 1.397 . S
C252 H233 0.950 . S
C252 C251 1.397 . S
C252 C253 1.391 . S
C253 C252 1.391 . S
C253 C254 1.405 . S
C254 H234 0.950 . S
C254 C253 1.405 . S
C254 C255 1.367 . S
C255 H235 0.950 . S
C255 C250 1.386 . S
C255 C254 1.367 . S
C256 C250 1.483 . S
C256 C257 1.382 1_556 S
C256 C258 1.403 . S
C257 H236 0.950 . S
C257 C256 1.382 1_554 S
C257 C273 1.411 . S
C258 C256 1.403 . S
C258 C259 1.489 . S
C258 C272 1.411 1_556 S
C259 C258 1.489 . S
C259 C260 1.383 . S
C259 C264 1.382 . S
C260 H237 0.950 . S
C260 C259 1.383 . S
C260 C261 1.395 . S
C261 H238 0.950 . S
C261 C260 1.395 . S
C261 C262 1.288 . S
C262 C261 1.288 . S
C262 C263 1.392 . S
C263 H239 0.951 . S
C263 C262 1.392 . S
C263 C264 1.392 . S
C264 H240 0.949 . S
C264 C259 1.382 . S
C264 C263 1.392 . S
C265 C266 1.376 . S
C265 C270 1.386 . S
C265 C271 1.483 . S
C266 H241 0.949 . S
C266 C265 1.376 . S
C266 C267 1.397 . S
C267 H242 0.950 . S
C267 C266 1.397 . S
C267 C268 1.391 . S
C268 C267 1.391 . S
C268 C269 1.405 . S
C269 H243 0.950 . S
C269 C268 1.405 . S
C269 C270 1.367 . S
C270 H244 0.950 . S
C270 C265 1.386 . S
C270 C269 1.367 . S
C271 C265 1.483 . S
C271 C272 1.382 . S
C271 C273 1.403 . S
C272 H245 0.950 . S
C272 C258 1.411 1_554 S
C272 C271 1.382 . S
C273 C257 1.411 . S
C273 C271 1.403 . S
C273 C274 1.489 . S
C274 C273 1.489 . S
C274 C275 1.383 . S
C274 C279 1.382 . S
C275 H246 0.950 . S
C275 C274 1.383 . S
C275 C276 1.395 . S
C276 H247 0.950 . S
C276 C275 1.395 . S
C276 C277 1.288 . S
C277 C276 1.288 . S
C277 C278 1.392 . S
C278 H248 0.951 . S
C278 C277 1.392 . S
C278 C279 1.392 . S
C279 H249 0.949 . S
C279 C274 1.382 . S
C279 C278 1.392 . S
H280 C299 0.949 . S
H281 C300 0.950 . S
H282 C302 0.950 . S
H283 C303 0.950 . S
H284 C305 0.950 . S
H285 C308 0.950 . S
H286 C309 0.950 . S
H287 C311 0.951 . S
H288 C312 0.949 . S
H289 C314 0.949 . S
H290 C315 0.950 . S
H291 C317 0.950 . S
H292 C318 0.950 . S
H293 C320 0.950 . S
H294 C323 0.950 . S
H295 C324 0.950 . S
H296 C326 0.951 . S
H297 C327 0.949 . S
C298 C299 1.376 . S
C298 C303 1.386 . S
C298 C304 1.483 . S
C299 H280 0.949 . S
C299 C298 1.376 . S
C299 C300 1.397 . S
C300 H281 0.950 . S
C300 C299 1.397 . S
C300 C301 1.391 . S
C301 C300 1.391 . S
C301 C302 1.405 . S
C302 H282 0.950 . S
C302 C301 1.405 . S
C302 C303 1.367 . S
C303 H283 0.950 . S
C303 C298 1.386 . S
C303 C302 1.367 . S
C304 C298 1.483 . S
C304 C305 1.382 1_565 S
C304 C306 1.403 . S
C305 H284 0.950 . S
C305 C304 1.382 1_545 S
C305 C321 1.411 . S
C306 C304 1.403 . S
C306 C307 1.489 . S
C306 C320 1.411 1_565 S
C307 C306 1.489 . S
C307 C308 1.383 . S
C307 C312 1.382 . S
C308 H285 0.950 . S
C308 C307 1.383 . S
C308 C309 1.395 . S
C309 H286 0.950 . S
C309 C308 1.395 . S
C309 C310 1.288 . S
C310 C309 1.288 . S
C310 C311 1.392 . S
C311 H287 0.951 . S
C311 C310 1.392 . S
C311 C312 1.392 . S
C312 H288 0.949 . S
C312 C307 1.382 . S
C312 C311 1.392 . S
C313 C314 1.376 . S
C313 C318 1.386 . S
C313 C319 1.483 . S
C314 H289 0.949 . S
C314 C313 1.376 . S
C314 C315 1.397 . S
C315 H290 0.950 . S
C315 C314 1.397 . S
C315 C316 1.391 . S
C316 C315 1.391 . S
C316 C317 1.405 . S
C317 H291 0.950 . S
C317 C316 1.405 . S
C317 C318 1.367 . S
C318 H292 0.950 . S
C318 C313 1.386 . S
C318 C317 1.367 . S
C319 C313 1.483 . S
C319 C320 1.382 . S
C319 C321 1.403 . S
C320 H293 0.950 . S
C320 C306 1.411 1_545 S
C320 C319 1.382 . S
C321 C305 1.411 . S
C321 C319 1.403 . S
C321 C322 1.489 . S
C322 C321 1.489 . S
C322 C323 1.383 . S
C322 C327 1.382 . S
C323 H294 0.950 . S
C323 C322 1.383 . S
C323 C324 1.395 . S
C324 H295 0.950 . S
C324 C323 1.395 . S
C324 C325 1.288 . S
C325 C324 1.288 . S
C325 C326 1.392 . S
C326 H296 0.951 . S
C326 C325 1.392 . S
C326 C327 1.392 . S
C327 H297 0.949 . S
C327 C322 1.382 . S
C327 C326 1.392 . S
H328 C347 0.949 . S
H329 C348 0.950 . S
H330 C350 0.950 . S
H331 C351 0.950 . S
H332 C353 0.950 . S
H333 C356 0.950 . S
H334 C357 0.950 . S
H335 C359 0.951 . S
H336 C360 0.949 . S
H337 C362 0.949 . S
H338 C363 0.950 . S
H339 C365 0.950 . S
H340 C366 0.950 . S
H341 C368 0.950 . S
H342 C371 0.950 . S
H343 C372 0.950 . S
H344 C374 0.951 . S
H345 C375 0.949 . S
C346 C347 1.376 . S
C346 C351 1.386 . S
C346 C352 1.483 . S
C347 H328 0.949 . S
C347 C346 1.376 . S
C347 C348 1.397 . S
C348 H329 0.950 . S
C348 C347 1.397 . S
C348 C349 1.391 . S
C349 C348 1.391 . S
C349 C350 1.405 . S
C350 H330 0.950 . S
C350 C349 1.405 . S
C350 C351 1.367 . S
C351 H331 0.950 . S
C351 C346 1.386 . S
C351 C350 1.367 . S
C352 C346 1.483 . S
C352 C353 1.382 1_556 S
C352 C354 1.403 . S
C353 H332 0.950 . S
C353 C352 1.382 1_554 S
C353 C369 1.411 . S
C354 C352 1.403 . S
C354 C355 1.489 . S
C354 C368 1.411 1_556 S
C355 C354 1.489 . S
C355 C356 1.383 . S
C355 C360 1.382 . S
C356 H333 0.950 . S
C356 C355 1.383 . S
C356 C357 1.395 . S
C357 H334 0.950 . S
C357 C356 1.395 . S
C357 C358 1.288 . S
C358 C357 1.288 . S
C358 C359 1.392 . S
C359 H335 0.951 . S
C359 C358 1.392 . S
C359 C360 1.392 . S
C360 H336 0.949 . S
C360 C355 1.382 . S
C360 C359 1.392 . S
C361 C362 1.376 . S
C361 C366 1.386 . S
C361 C367 1.483 . S
C362 H337 0.949 . S
C362 C361 1.376 . S
C362 C363 1.397 . S
C363 H338 0.950 . S
C363 C362 1.397 . S
C363 C364 1.391 . S
C364 C363 1.391 . S
C364 C365 1.405 . S
C365 H339 0.950 . S
C365 C364 1.405 . S
C365 C366 1.367 . S
C366 H340 0.950 . S
C366 C361 1.386 . S
C366 C365 1.367 . S
C367 C361 1.483 . S
C367 C368 1.382 . S
C367 C369 1.403 . S
C368 H341 0.950 . S
C368 C354 1.411 1_554 S
C368 C367 1.382 . S
C369 C353 1.411 . S
C369 C367 1.403 . S
C369 C370 1.489 . S
C370 C369 1.489 . S
C370 C371 1.383 . S
C370 C375 1.382 . S
C371 H342 0.950 . S
C371 C370 1.383 . S
C371 C372 1.395 . S
C372 H343 0.950 . S
C372 C371 1.395 . S
C372 C373 1.288 . S
C373 C372 1.288 . S
C373 C374 1.392 . S
C374 H344 0.951 . S
C374 C373 1.392 . S
C374 C375 1.392 . S
C375 H345 0.949 . S
C375 C370 1.382 . S
C375 C374 1.392 . S
C376 C377 1.349 . S
C376 C378 1.327 . S
C376 H401 0.950 . S
C377 C376 1.349 . S
C377 C393 1.349 . S
C378 C376 1.327 . S
C378 C397 1.429 . S
C378 H402 0.950 . S
C379 C396 1.574 . S
C379 C398 1.368 . S
C379 H403 0.949 . S
H380 C384 0.949 . S
C381 C382 1.349 . S
C381 C383 1.327 . S
C381 H404 0.950 . S
C382 C381 1.349 . S
C382 C394 1.349 . S
C383 C381 1.327 . S
C383 C399 1.429 . S
C383 H405 0.950 . S
C384 H380 0.949 . S
C384 C392 1.574 . S
C384 C400 1.368 . S
H385 C393 0.950 . S
H386 C391 0.950 . S
H387 C392 0.949 . S
H388 C394 0.950 . S
H389 C395 0.950 . S
H390 C396 0.949 . S
C391 H386 0.950 . S
C391 C393 1.327 . S
C391 C397 1.429 . S
C392 C384 1.574 . S
C392 H387 0.949 . S
C392 C398 1.368 . S
C393 C377 1.349 . S
C393 H385 0.950 . S
C393 C391 1.327 . S
C394 C382 1.349 . S
C394 H388 0.950 . S
C394 C395 1.327 . S
C395 H389 0.950 . S
C395 C394 1.327 . S
C395 C399 1.429 . S
C396 C379 1.574 . S
C396 H390 0.949 . S
C396 C400 1.368 . S
C397 C378 1.429 . S
C397 C391 1.429 . S
C397 C398 1.523 . S
C398 C379 1.368 . S
C398 C392 1.368 . S
C398 C397 1.523 . S
C399 C383 1.429 . S
C399 C395 1.429 . S
C399 C400 1.523 . S
C400 C384 1.368 . S
C400 C396 1.368 . S
C400 C399 1.523 . S
H401 C376 0.950 . S
H402 C378 0.950 . S
H403 C379 0.949 . S
H404 C381 0.950 . S
H405 C383 0.950 . S
C406 C407 1.349 . S
C406 C408 1.327 . S
C406 H431 0.950 . S
C407 C406 1.349 . S
C407 C423 1.349 . S
C408 C406 1.327 . S
C408 C427 1.429 . S
C408 H432 0.950 . S
C409 C426 1.574 . S
C409 C428 1.368 . S
C409 H433 0.949 . S
H410 C414 0.949 . S
C411 C412 1.349 . S
C411 C413 1.327 . S
C411 H434 0.950 . S
C412 C411 1.349 . S
C412 C424 1.349 . S
C413 C411 1.327 . S
C413 C429 1.429 . S
C413 H435 0.950 . S
C414 H410 0.949 . S
C414 C422 1.574 . S
C414 C430 1.368 . S
H415 C423 0.950 . S
H416 C421 0.950 . S
H417 C422 0.949 . S
H418 C424 0.950 . S
H419 C425 0.950 . S
H420 C426 0.949 . S
C421 H416 0.950 . S
C421 C423 1.327 . S
C421 C427 1.429 . S
C422 C414 1.574 . S
C422 H417 0.949 . S
C422 C428 1.368 . S
C423 C407 1.349 . S
C423 H415 0.950 . S
C423 C421 1.327 . S
C424 C412 1.349 . S
C424 H418 0.950 . S
C424 C425 1.327 . S
C425 H419 0.950 . S
C425 C424 1.327 . S
C425 C429 1.429 . S
C426 C409 1.574 . S
C426 H420 0.949 . S
C426 C430 1.368 . S
C427 C408 1.429 . S
C427 C421 1.429 . S
C427 C428 1.523 . S
C428 C409 1.368 . S
C428 C422 1.368 . S
C428 C427 1.523 . S
C429 C413 1.429 . S
C429 C425 1.429 . S
C429 C430 1.523 . S
C430 C414 1.368 . S
C430 C426 1.368 . S
C430 C429 1.523 . S
H431 C406 0.950 . S
H432 C408 0.950 . S
H433 C409 0.949 . S
H434 C411 0.950 . S
H435 C413 0.950 . S
C436 C437 1.349 . S
C436 C438 1.327 . S
C436 H461 0.950 . S
C437 C436 1.349 . S
C437 C453 1.349 . S
C438 C436 1.327 . S
C438 C457 1.429 . S
C438 H462 0.950 . S
C439 C456 1.574 . S
C439 C458 1.368 . S
C439 H463 0.949 . S
H440 C444 0.949 . S
C441 C442 1.349 . S
C441 C443 1.327 . S
C441 H464 0.950 . S
C442 C441 1.349 . S
C442 C454 1.349 . S
C443 C441 1.327 . S
C443 C459 1.429 . S
C443 H465 0.950 . S
C444 H440 0.949 . S
C444 C452 1.574 . S
C444 C460 1.368 . S
H445 C453 0.950 . S
H446 C451 0.950 . S
H447 C452 0.949 . S
H448 C454 0.950 . S
H449 C455 0.950 . S
H450 C456 0.949 . S
C451 H446 0.950 . S
C451 C453 1.327 . S
C451 C457 1.429 . S
C452 C444 1.574 . S
C452 H447 0.949 . S
C452 C458 1.368 . S
C453 C437 1.349 . S
C453 H445 0.950 . S
C453 C451 1.327 . S
C454 C442 1.349 . S
C454 H448 0.950 . S
C454 C455 1.327 . S
C455 H449 0.950 . S
C455 C454 1.327 . S
C455 C459 1.429 . S
C456 C439 1.574 . S
C456 H450 0.949 . S
C456 C460 1.368 . S
C457 C438 1.429 . S
C457 C451 1.429 . S
C457 C458 1.523 . S
C458 C439 1.368 . S
C458 C452 1.368 . S
C458 C457 1.523 . S
C459 C443 1.429 . S
C459 C455 1.429 . S
C459 C460 1.523 . S
C460 C444 1.368 . S
C460 C456 1.368 . S
C460 C459 1.523 . S
H461 C436 0.950 . S
H462 C438 0.950 . S
H463 C439 0.949 . S
H464 C441 0.950 . S
H465 C443 0.950 . S
C466 C467 1.349 . S
C466 C468 1.327 . S
C466 H491 0.950 . S
C467 C466 1.349 . S
C467 C483 1.349 . S
C468 C466 1.327 . S
C468 C487 1.429 . S
C468 H492 0.950 . S
C469 C486 1.574 . S
C469 C488 1.368 . S
C469 H493 0.949 . S
H470 C474 0.949 . S
C471 C472 1.349 . S
C471 C473 1.327 . S
C471 H494 0.950 . S
C472 C471 1.349 . S
C472 C484 1.349 . S
C473 C471 1.327 . S
C473 C489 1.429 . S
C473 H495 0.950 . S
C474 H470 0.949 . S
C474 C482 1.574 . S
C474 C490 1.368 . S
H475 C483 0.950 . S
H476 C481 0.950 . S
H477 C482 0.949 . S
H478 C484 0.950 . S
H479 C485 0.950 . S
H480 C486 0.949 . S
C481 H476 0.950 . S
C481 C483 1.327 . S
C481 C487 1.429 . S
C482 C474 1.574 . S
C482 H477 0.949 . S
C482 C488 1.368 . S
C483 C467 1.349 . S
C483 H475 0.950 . S
C483 C481 1.327 . S
C484 C472 1.349 . S
C484 H478 0.950 . S
C484 C485 1.327 . S
C485 H479 0.950 . S
C485 C484 1.327 . S
C485 C489 1.429 . S
C486 C469 1.574 . S
C486 H480 0.949 . S
C486 C490 1.368 . S
C487 C468 1.429 . S
C487 C481 1.429 . S
C487 C488 1.523 . S
C488 C469 1.368 . S
C488 C482 1.368 . S
C488 C487 1.523 . S
C489 C473 1.429 . S
C489 C485 1.429 . S
C489 C490 1.523 . S
C490 C474 1.368 . S
C490 C486 1.368 . S
C490 C489 1.523 . S
H491 C466 0.950 . S
H492 C468 0.950 . S
H493 C469 0.949 . S
H494 C471 0.950 . S
H495 C473 0.950 . S
C496 C497 1.349 . S
C496 C498 1.327 . S
C496 H521 0.950 . S
C497 C496 1.349 . S
C497 C513 1.349 . S
C498 C496 1.327 . S
C498 C517 1.429 . S
C498 H522 0.950 . S
C499 C516 1.574 . S
C499 C518 1.368 . S
C499 H523 0.949 . S
H500 C504 0.949 . S
C501 C502 1.349 . S
C501 C503 1.327 . S
C501 H524 0.950 . S
C502 C501 1.349 . S
C502 C514 1.349 . S
C503 C501 1.327 . S
C503 C519 1.429 . S
C503 H525 0.950 . S
C504 H500 0.949 . S
C504 C512 1.574 . S
C504 C520 1.368 . S
H505 C513 0.950 . S
H506 C511 0.950 . S
H507 C512 0.949 . S
H508 C514 0.950 . S
H509 C515 0.950 . S
H510 C516 0.949 . S
C511 H506 0.950 . S
C511 C513 1.327 . S
C511 C517 1.429 . S
C512 C504 1.574 . S
C512 H507 0.949 . S
C512 C518 1.368 . S
C513 C497 1.349 . S
C513 H505 0.950 . S
C513 C511 1.327 . S
C514 C502 1.349 . S
C514 H508 0.950 . S
C514 C515 1.327 . S
C515 H509 0.950 . S
C515 C514 1.327 . S
C515 C519 1.429 . S
C516 C499 1.574 . S
C516 H510 0.949 . S
C516 C520 1.368 . S
C517 C498 1.429 . S
C517 C511 1.429 . S
C517 C518 1.523 . S
C518 C499 1.368 . S
C518 C512 1.368 . S
C518 C517 1.523 . S
C519 C503 1.429 . S
C519 C515 1.429 . S
C519 C520 1.523 . S
C520 C504 1.368 . S
C520 C516 1.368 . S
C520 C519 1.523 . S
H521 C496 0.950 . S
H522 C498 0.950 . S
H523 C499 0.949 . S
H524 C501 0.950 . S
H525 C503 0.950 . S
C526 C527 1.349 . S
C526 C528 1.327 . S
C526 H551 0.950 . S
C527 C526 1.349 . S
C527 C543 1.349 . S
C528 C526 1.327 . S
C528 C547 1.429 . S
C528 H552 0.950 . S
C529 C546 1.574 . S
C529 C548 1.368 . S
C529 H553 0.949 . S
H530 C534 0.949 . S
C531 C532 1.349 . S
C531 C533 1.327 . S
C531 H554 0.950 . S
C532 C531 1.349 . S
C532 C544 1.349 . S
C533 C531 1.327 . S
C533 C549 1.429 . S
C533 H555 0.950 . S
C534 H530 0.949 . S
C534 C542 1.574 . S
C534 C550 1.368 . S
H535 C543 0.950 . S
H536 C541 0.950 . S
H537 C542 0.949 . S
H538 C544 0.950 . S
H539 C545 0.950 . S
H540 C546 0.949 . S
C541 H536 0.950 . S
C541 C543 1.327 . S
C541 C547 1.429 . S
C542 C534 1.574 . S
C542 H537 0.949 . S
C542 C548 1.368 . S
C543 C527 1.349 . S
C543 H535 0.950 . S
C543 C541 1.327 . S
C544 C532 1.349 . S
C544 H538 0.950 . S
C544 C545 1.327 . S
C545 H539 0.950 . S
C545 C544 1.327 . S
C545 C549 1.429 . S
C546 C529 1.574 . S
C546 H540 0.949 . S
C546 C550 1.368 . S
C547 C528 1.429 . S
C547 C541 1.429 . S
C547 C548 1.523 . S
C548 C529 1.368 . S
C548 C542 1.368 . S
C548 C547 1.523 . S
C549 C533 1.429 . S
C549 C545 1.429 . S
C549 C550 1.523 . S
C550 C534 1.368 . S
C550 C546 1.368 . S
C550 C549 1.523 . S
H551 C526 0.950 . S
H552 C528 0.950 . S
H553 C529 0.949 . S
H554 C531 0.950 . S
H555 C533 0.950 . S
C556 C557 1.349 . S
C556 C558 1.327 . S
C556 H581 0.950 . S
C557 C556 1.349 . S
C557 C573 1.349 . S
C558 C556 1.327 . S
C558 C577 1.429 . S
C558 H582 0.950 . S
C559 C576 1.574 . S
C559 C578 1.368 . S
C559 H583 0.949 . S
H560 C564 0.949 . S
C561 C562 1.349 . S
C561 C563 1.327 . S
C561 H584 0.950 . S
C562 C561 1.349 . S
C562 C574 1.349 . S
C563 C561 1.327 . S
C563 C579 1.429 . S
C563 H585 0.950 . S
C564 H560 0.949 . S
C564 C572 1.574 . S
C564 C580 1.368 . S
H565 C573 0.950 . S
H566 C571 0.950 . S
H567 C572 0.949 . S
H568 C574 0.950 . S
H569 C575 0.950 . S
H570 C576 0.949 . S
C571 H566 0.950 . S
C571 C573 1.327 . S
C571 C577 1.429 . S
C572 C564 1.574 . S
C572 H567 0.949 . S
C572 C578 1.368 . S
C573 C557 1.349 . S
C573 H565 0.950 . S
C573 C571 1.327 . S
C574 C562 1.349 . S
C574 H568 0.950 . S
C574 C575 1.327 . S
C575 H569 0.950 . S
C575 C574 1.327 . S
C575 C579 1.429 . S
C576 C559 1.574 . S
C576 H570 0.949 . S
C576 C580 1.368 . S
C577 C558 1.429 . S
C577 C571 1.429 . S
C577 C578 1.523 . S
C578 C559 1.368 . S
C578 C572 1.368 . S
C578 C577 1.523 . S
C579 C563 1.429 . S
C579 C575 1.429 . S
C579 C580 1.523 . S
C580 C564 1.368 . S
C580 C576 1.368 . S
C580 C579 1.523 . S
H581 C556 0.950 . S
H582 C558 0.950 . S
H583 C559 0.949 . S
H584 C561 0.950 . S
H585 C563 0.950 . S
C586 C587 1.349 . S
C586 C588 1.327 . S
C586 H611 0.950 . S
C587 C586 1.349 . S
C587 C603 1.349 . S
C588 C586 1.327 . S
C588 C607 1.429 . S
C588 H612 0.950 . S
C589 C606 1.574 . S
C589 C608 1.368 . S
C589 H613 0.949 . S
H590 C594 0.949 . S
C591 C592 1.349 . S
C591 C593 1.327 . S
C591 H614 0.950 . S
C592 C591 1.349 . S
C592 C604 1.349 . S
C593 C591 1.327 . S
C593 C609 1.429 . S
C593 H615 0.950 . S
C594 H590 0.949 . S
C594 C602 1.574 . S
C594 C610 1.368 . S
H595 C603 0.950 . S
H596 C601 0.950 . S
H597 C602 0.949 . S
H598 C604 0.950 . S
H599 C605 0.950 . S
H600 C606 0.949 . S
C601 H596 0.950 . S
C601 C603 1.327 . S
C601 C607 1.429 . S
C602 C594 1.574 . S
C602 H597 0.949 . S
C602 C608 1.368 . S
C603 C587 1.349 . S
C603 H595 0.950 . S
C603 C601 1.327 . S
C604 C592 1.349 . S
C604 H598 0.950 . S
C604 C605 1.327 . S
C605 H599 0.950 . S
C605 C604 1.327 . S
C605 C609 1.429 . S
C606 C589 1.574 . S
C606 H600 0.949 . S
C606 C610 1.368 . S
C607 C588 1.429 . S
C607 C601 1.429 . S
C607 C608 1.523 . S
C608 C589 1.368 . S
C608 C602 1.368 . S
C608 C607 1.523 . S
C609 C593 1.429 . S
C609 C605 1.429 . S
C609 C610 1.523 . S
C610 C594 1.368 . S
C610 C606 1.368 . S
C610 C609 1.523 . S
H611 C586 0.950 . S
H612 C588 0.950 . S
H613 C589 0.949 . S
H614 C591 0.950 . S
H615 C593 0.950 . S
C616 C617 1.349 . S
C616 C618 1.327 . S
C616 H641 0.950 . S
C617 C616 1.349 . S
C617 C633 1.349 . S
C618 C616 1.327 . S
C618 C637 1.429 . S
C618 H642 0.950 . S
C619 C636 1.574 . S
C619 C638 1.368 . S
C619 H643 0.949 . S
H620 C624 0.949 . S
C621 C622 1.349 . S
C621 C623 1.327 1_545 S
C621 H644 0.950 . S
C622 C621 1.349 . S
C622 C634 1.349 . S
C623 C621 1.327 1_565 S
C623 C639 1.429 . S
C623 H645 0.950 . S
C624 H620 0.949 . S
C624 C632 1.574 . S
C624 C640 1.368 . S
H625 C633 0.950 . S
H626 C631 0.950 . S
H627 C632 0.949 . S
H628 C634 0.950 . S
H629 C635 0.950 . S
H630 C636 0.949 . S
C631 H626 0.950 . S
C631 C633 1.327 . S
C631 C637 1.429 . S
C632 C624 1.574 . S
C632 H627 0.949 . S
C632 C638 1.368 . S
C633 C617 1.349 . S
C633 H625 0.950 . S
C633 C631 1.327 . S
C634 C622 1.349 . S
C634 H628 0.950 . S
C634 C635 1.327 . S
C635 H629 0.950 . S
C635 C634 1.327 . S
C635 C639 1.429 1_545 S
C636 C619 1.574 . S
C636 H630 0.949 . S
C636 C640 1.368 . S
C637 C618 1.429 . S
C637 C631 1.429 . S
C637 C638 1.523 . S
C638 C619 1.368 . S
C638 C632 1.368 . S
C638 C637 1.523 . S
C639 C623 1.429 . S
C639 C635 1.429 1_565 S
C639 C640 1.523 . S
C640 C624 1.368 . S
C640 C636 1.368 . S
C640 C639 1.523 . S
H641 C616 0.950 . S
H642 C618 0.950 . S
H643 C619 0.949 . S
H644 C621 0.950 . S
H645 C623 0.950 . S
C646 C647 1.349 . S
C646 C648 1.327 . S
C646 H671 0.950 . S
C647 C646 1.349 . S
C647 C663 1.349 . S
C648 C646 1.327 . S
C648 C667 1.429 . S
C648 H672 0.950 . S
C649 C666 1.574 . S
C649 C668 1.368 . S
C649 H673 0.949 . S
H650 C654 0.949 . S
C651 C652 1.349 . S
C651 C653 1.327 . S
C651 H674 0.950 . S
C652 C651 1.349 . S
C652 C664 1.349 . S
C653 C651 1.327 . S
C653 C669 1.429 . S
C653 H675 0.950 . S
C654 H650 0.949 . S
C654 C662 1.574 . S
C654 C670 1.368 . S
H655 C663 0.950 . S
H656 C661 0.950 . S
H657 C662 0.949 . S
H658 C664 0.950 . S
H659 C665 0.950 . S
H660 C666 0.949 . S
C661 H656 0.950 . S
C661 C663 1.327 . S
C661 C667 1.429 . S
C662 C654 1.574 . S
C662 H657 0.949 . S
C662 C668 1.368 . S
C663 C647 1.349 . S
C663 H655 0.950 . S
C663 C661 1.327 . S
C664 C652 1.349 . S
C664 H658 0.950 . S
C664 C665 1.327 . S
C665 H659 0.950 . S
C665 C664 1.327 . S
C665 C669 1.429 . S
C666 C649 1.574 . S
C666 H660 0.949 . S
C666 C670 1.368 . S
C667 C648 1.429 . S
C667 C661 1.429 . S
C667 C668 1.523 . S
C668 C649 1.368 . S
C668 C662 1.368 . S
C668 C667 1.523 . S
C669 C653 1.429 . S
C669 C665 1.429 . S
C669 C670 1.523 . S
C670 C654 1.368 . S
C670 C666 1.368 . S
C670 C669 1.523 . S
H671 C646 0.950 . S
H672 C648 0.950 . S
H673 C649 0.949 . S
H674 C651 0.950 . S
H675 C653 0.950 . S
C676 C677 1.349 . S
C676 C678 1.327 . S
C676 H701 0.950 . S
C677 C676 1.349 . S
C677 C693 1.349 . S
C678 C676 1.327 . S
C678 C697 1.429 . S
C678 H702 0.950 . S
C679 C696 1.574 . S
C679 C698 1.368 . S
C679 H703 0.949 . S
H680 C684 0.949 . S
C681 C682 1.349 . S
C681 C683 1.327 . S
C681 H704 0.950 . S
C682 C681 1.349 . S
C682 C694 1.349 . S
C683 C681 1.327 . S
C683 C699 1.429 . S
C683 H705 0.950 . S
C684 H680 0.949 . S
C684 C692 1.574 . S
C684 C700 1.368 . S
H685 C693 0.950 . S
H686 C691 0.950 . S
H687 C692 0.949 . S
H688 C694 0.950 . S
H689 C695 0.950 . S
H690 C696 0.949 . S
C691 H686 0.950 . S
C691 C693 1.327 . S
C691 C697 1.429 . S
C692 C684 1.574 . S
C692 H687 0.949 . S
C692 C698 1.368 . S
C693 C677 1.349 . S
C693 H685 0.950 . S
C693 C691 1.327 . S
C694 C682 1.349 . S
C694 H688 0.950 . S
C694 C695 1.327 . S
C695 H689 0.950 . S
C695 C694 1.327 . S
C695 C699 1.429 . S
C696 C679 1.574 . S
C696 H690 0.949 . S
C696 C700 1.368 . S
C697 C678 1.429 . S
C697 C691 1.429 . S
C697 C698 1.523 . S
C698 C679 1.368 . S
C698 C692 1.368 . S
C698 C697 1.523 . S
C699 C683 1.429 . S
C699 C695 1.429 . S
C699 C700 1.523 . S
C700 C684 1.368 . S
C700 C696 1.368 . S
C700 C699 1.523 . S
H701 C676 0.950 . S
H702 C678 0.950 . S
H703 C679 0.949 . S
H704 C681 0.950 . S
H705 C683 0.950 . S
C706 C707 1.349 . S
C706 C708 1.327 . S
C706 H731 0.950 . S
C707 C706 1.349 . S
C707 C723 1.349 . S
C708 C706 1.327 . S
C708 C727 1.429 . S
C708 H732 0.950 . S
C709 C726 1.574 . S
C709 C728 1.368 . S
C709 H733 0.949 . S
H710 C714 0.949 . S
C711 C712 1.349 . S
C711 C713 1.327 . S
C711 H734 0.950 . S
C712 C711 1.349 . S
C712 C724 1.349 . S
C713 C711 1.327 . S
C713 C729 1.429 . S
C713 H735 0.950 . S
C714 H710 0.949 . S
C714 C722 1.574 . S
C714 C730 1.368 . S
H715 C723 0.950 . S
H716 C721 0.950 . S
H717 C722 0.949 . S
H718 C724 0.950 . S
H719 C725 0.950 . S
H720 C726 0.949 . S
C721 H716 0.950 . S
C721 C723 1.327 . S
C721 C727 1.429 . S
C722 C714 1.574 . S
C722 H717 0.949 . S
C722 C728 1.368 . S
C723 C707 1.349 . S
C723 H715 0.950 . S
C723 C721 1.327 . S
C724 C712 1.349 . S
C724 H718 0.950 . S
C724 C725 1.327 . S
C725 H719 0.950 . S
C725 C724 1.327 . S
C725 C729 1.429 . S
C726 C709 1.574 . S
C726 H720 0.949 . S
C726 C730 1.368 . S
C727 C708 1.429 . S
C727 C721 1.429 . S
C727 C728 1.523 . S
C728 C709 1.368 . S
C728 C722 1.368 . S
C728 C727 1.523 . S
C729 C713 1.429 . S
C729 C725 1.429 . S
C729 C730 1.523 . S
C730 C714 1.368 . S
C730 C726 1.368 . S
C730 C729 1.523 . S
H731 C706 0.950 . S
H732 C708 0.950 . S
H733 C709 0.949 . S
H734 C711 0.950 . S
H735 C713 0.950 . S
C736 C737 1.349 . S
C736 C738 1.327 . S
C736 H761 0.950 . S
C737 C736 1.349 . S
C737 C753 1.349 . S
C738 C736 1.327 . S
C738 C757 1.429 . S
C738 H762 0.950 . S
C739 C756 1.574 . S
C739 C758 1.368 . S
C739 H763 0.949 . S
H740 C744 0.949 . S
C741 C742 1.349 . S
C741 C743 1.327 . S
C741 H764 0.950 . S
C742 C741 1.349 . S
C742 C754 1.349 . S
C743 C741 1.327 . S
C743 C759 1.429 . S
C743 H765 0.950 . S
C744 H740 0.949 . S
C744 C752 1.574 . S
C744 C760 1.368 . S
H745 C753 0.950 . S
H746 C751 0.950 . S
H747 C752 0.949 . S
H748 C754 0.950 . S
H749 C755 0.950 . S
H750 C756 0.949 . S
C751 H746 0.950 . S
C751 C753 1.327 . S
C751 C757 1.429 . S
C752 C744 1.574 . S
C752 H747 0.949 . S
C752 C758 1.368 . S
C753 C737 1.349 . S
C753 H745 0.950 . S
C753 C751 1.327 . S
C754 C742 1.349 . S
C754 H748 0.950 . S
C754 C755 1.327 . S
C755 H749 0.950 . S
C755 C754 1.327 . S
C755 C759 1.429 . S
C756 C739 1.574 . S
C756 H750 0.949 . S
C756 C760 1.368 . S
C757 C738 1.429 . S
C757 C751 1.429 . S
C757 C758 1.523 . S
C758 C739 1.368 . S
C758 C752 1.368 . S
C758 C757 1.523 . S
C759 C743 1.429 . S
C759 C755 1.429 . S
C759 C760 1.523 . S
C760 C744 1.368 . S
C760 C756 1.368 . S
C760 C759 1.523 . S
H761 C736 0.950 . S
H762 C738 0.950 . S
H763 C739 0.949 . S
H764 C741 0.950 . S
H765 C743 0.950 . S
C766 C767 1.349 . S
C766 C768 1.327 . S
C766 H791 0.950 . S
C767 C766 1.349 . S
C767 C783 1.349 . S
C768 C766 1.327 . S
C768 C787 1.429 . S
C768 H792 0.950 . S
C769 C786 1.574 . S
C769 C788 1.368 . S
C769 H793 0.949 . S
H770 C774 0.949 . S
C771 C772 1.349 . S
C771 C773 1.327 . S
C771 H794 0.950 . S
C772 C771 1.349 . S
C772 C784 1.349 . S
C773 C771 1.327 . S
C773 C789 1.429 . S
C773 H795 0.950 . S
C774 H770 0.949 . S
C774 C782 1.574 . S
C774 C790 1.368 . S
H775 C783 0.950 . S
H776 C781 0.950 . S
H777 C782 0.949 . S
H778 C784 0.950 . S
H779 C785 0.950 . S
H780 C786 0.949 . S
C781 H776 0.950 . S
C781 C783 1.327 . S
C781 C787 1.429 . S
C782 C774 1.574 . S
C782 H777 0.949 . S
C782 C788 1.368 . S
C783 C767 1.349 . S
C783 H775 0.950 . S
C783 C781 1.327 . S
C784 C772 1.349 . S
C784 H778 0.950 . S
C784 C785 1.327 . S
C785 H779 0.950 . S
C785 C784 1.327 . S
C785 C789 1.429 . S
C786 C769 1.574 . S
C786 H780 0.949 . S
C786 C790 1.368 . S
C787 C768 1.429 . S
C787 C781 1.429 . S
C787 C788 1.523 . S
C788 C769 1.368 . S
C788 C782 1.368 . S
C788 C787 1.523 . S
C789 C773 1.429 . S
C789 C785 1.429 . S
C789 C790 1.523 . S
C790 C774 1.368 . S
C790 C786 1.368 . S
C790 C789 1.523 . S
H791 C766 0.950 . S
H792 C768 0.950 . S
H793 C769 0.949 . S
H794 C771 0.950 . S
H795 C773 0.950 . S
C796 C797 1.349 . S
C796 C798 1.327 . S
C796 H821 0.950 . S
C797 C796 1.349 . S
C797 C813 1.349 . S
C798 C796 1.327 . S
C798 C817 1.429 . S
C798 H822 0.950 . S
C799 C816 1.574 . S
C799 C818 1.368 . S
C799 H823 0.949 . S
H800 C804 0.949 . S
C801 C802 1.349 . S
C801 C803 1.327 . S
C801 H824 0.950 . S
C802 C801 1.349 . S
C802 C814 1.349 . S
C803 C801 1.327 . S
C803 C819 1.429 . S
C803 H825 0.950 . S
C804 H800 0.949 . S
C804 C812 1.574 . S
C804 C820 1.368 . S
H805 C813 0.950 . S
H806 C811 0.950 . S
H807 C812 0.949 . S
H808 C814 0.950 . S
H809 C815 0.950 . S
H810 C816 0.949 . S
C811 H806 0.950 . S
C811 C813 1.327 . S
C811 C817 1.429 . S
C812 C804 1.574 . S
C812 H807 0.949 . S
C812 C818 1.368 . S
C813 C797 1.349 . S
C813 H805 0.950 . S
C813 C811 1.327 . S
C814 C802 1.349 . S
C814 H808 0.950 . S
C814 C815 1.327 . S
C815 H809 0.950 . S
C815 C814 1.327 . S
C815 C819 1.429 . S
C816 C799 1.574 . S
C816 H810 0.949 . S
C816 C820 1.368 . S
C817 C798 1.429 . S
C817 C811 1.429 . S
C817 C818 1.523 . S
C818 C799 1.368 . S
C818 C812 1.368 . S
C818 C817 1.523 . S
C819 C803 1.429 . S
C819 C815 1.429 . S
C819 C820 1.523 . S
C820 C804 1.368 . S
C820 C816 1.368 . S
C820 C819 1.523 . S
H821 C796 0.950 . S
H822 C798 0.950 . S
H823 C799 0.949 . S
H824 C801 0.950 . S
H825 C803 0.950 . S
C826 C827 1.349 . S
C826 C828 1.327 . S
C826 H851 0.950 . S
C827 C826 1.349 . S
C827 C843 1.349 . S
C828 C826 1.327 . S
C828 C847 1.429 . S
C828 H852 0.950 . S
C829 C846 1.574 . S
C829 C848 1.368 . S
C829 H853 0.949 . S
H830 C834 0.949 . S
C831 C832 1.349 . S
C831 C833 1.327 . S
C831 H854 0.950 . S
C832 C831 1.349 . S
C832 C844 1.349 . S
C833 C831 1.327 . S
C833 C849 1.429 . S
C833 H855 0.950 . S
C834 H830 0.949 . S
C834 C842 1.574 . S
C834 C850 1.368 . S
H835 C843 0.950 . S
H836 C841 0.950 . S
H837 C842 0.949 . S
H838 C844 0.950 . S
H839 C845 0.950 . S
H840 C846 0.949 . S
C841 H836 0.950 . S
C841 C843 1.327 . S
C841 C847 1.429 . S
C842 C834 1.574 . S
C842 H837 0.949 . S
C842 C848 1.368 . S
C843 C827 1.349 . S
C843 H835 0.950 . S
C843 C841 1.327 . S
C844 C832 1.349 . S
C844 H838 0.950 . S
C844 C845 1.327 . S
C845 H839 0.950 . S
C845 C844 1.327 . S
C845 C849 1.429 . S
C846 C829 1.574 . S
C846 H840 0.949 . S
C846 C850 1.368 . S
C847 C828 1.429 . S
C847 C841 1.429 . S
C847 C848 1.523 . S
C848 C829 1.368 . S
C848 C842 1.368 . S
C848 C847 1.523 . S
C849 C833 1.429 . S
C849 C845 1.429 . S
C849 C850 1.523 . S
C850 C834 1.368 . S
C850 C846 1.368 . S
C850 C849 1.523 . S
H851 C826 0.950 . S
H852 C828 0.950 . S
H853 C829 0.949 . S
H854 C831 0.950 . S
H855 C833 0.950 . S
C856 C857 1.349 . S
C856 C858 1.327 . S
C856 H881 0.950 . S
C857 C856 1.349 . S
C857 C873 1.349 . S
C858 C856 1.327 . S
C858 C877 1.429 . S
C858 H882 0.950 . S
C859 C876 1.574 . S
C859 C878 1.368 . S
C859 H883 0.949 . S
H860 C864 0.949 . S
C861 C862 1.349 . S
C861 C863 1.327 . S
C861 H884 0.950 . S
C862 C861 1.349 . S
C862 C874 1.349 . S
C863 C861 1.327 . S
C863 C879 1.429 . S
C863 H885 0.950 . S
C864 H860 0.949 . S
C864 C872 1.574 . S
C864 C880 1.368 . S
H865 C873 0.950 . S
H866 C871 0.950 . S
H867 C872 0.949 . S
H868 C874 0.950 . S
H869 C875 0.950 . S
H870 C876 0.949 . S
C871 H866 0.950 . S
C871 C873 1.327 . S
C871 C877 1.429 . S
C872 C864 1.574 . S
C872 H867 0.949 . S
C872 C878 1.368 . S
C873 C857 1.349 . S
C873 H865 0.950 . S
C873 C871 1.327 . S
C874 C862 1.349 . S
C874 H868 0.950 . S
C874 C875 1.327 . S
C875 H869 0.950 . S
C875 C874 1.327 . S
C875 C879 1.429 . S
C876 C859 1.574 . S
C876 H870 0.949 . S
C876 C880 1.368 . S
C877 C858 1.429 . S
C877 C871 1.429 . S
C877 C878 1.523 . S
C878 C859 1.368 . S
C878 C872 1.368 . S
C878 C877 1.523 . S
C879 C863 1.429 . S
C879 C875 1.429 . S
C879 C880 1.523 . S
C880 C864 1.368 . S
C880 C876 1.368 . S
C880 C879 1.523 . S
H881 C856 0.950 . S
H882 C858 0.950 . S
H883 C859 0.949 . S
H884 C861 0.950 . S
H885 C863 0.950 . S
C886 C887 1.349 . S
C886 C888 1.327 . S
C886 H911 0.950 . S
C887 C886 1.349 . S
C887 C903 1.349 . S
C888 C886 1.327 . S
C888 C907 1.429 . S
C888 H912 0.950 . S
C889 C906 1.574 . S
C889 C908 1.368 . S
C889 H913 0.949 . S
H890 C894 0.949 . S
C891 C892 1.349 . S
C891 C893 1.327 . S
C891 H914 0.950 . S
C892 C891 1.349 . S
C892 C904 1.349 . S
C893 C891 1.327 . S
C893 C909 1.429 . S
C893 H915 0.950 . S
C894 H890 0.949 . S
C894 C902 1.574 . S
C894 C910 1.368 . S
H895 C903 0.950 . S
H896 C901 0.950 . S
H897 C902 0.949 . S
H898 C904 0.950 . S
H899 C905 0.950 . S
H900 C906 0.949 . S
C901 H896 0.950 . S
C901 C903 1.327 . S
C901 C907 1.429 . S
C902 C894 1.574 . S
C902 H897 0.949 . S
C902 C908 1.368 . S
C903 C887 1.349 . S
C903 H895 0.950 . S
C903 C901 1.327 . S
C904 C892 1.349 . S
C904 H898 0.950 . S
C904 C905 1.327 . S
C905 H899 0.950 . S
C905 C904 1.327 . S
C905 C909 1.429 . S
C906 C889 1.574 . S
C906 H900 0.949 . S
C906 C910 1.368 . S
C907 C888 1.429 . S
C907 C901 1.429 . S
C907 C908 1.523 . S
C908 C889 1.368 . S
C908 C902 1.368 . S
C908 C907 1.523 . S
C909 C893 1.429 . S
C909 C905 1.429 . S
C909 C910 1.523 . S
C910 C894 1.368 . S
C910 C906 1.368 . S
C910 C909 1.523 . S
H911 C886 0.950 . S
H912 C888 0.950 . S
H913 C889 0.949 . S
H914 C891 0.950 . S
H915 C893 0.950 . S
C916 C917 1.349 . S
C916 C918 1.327 . S
C916 H941 0.950 . S
C917 C916 1.349 . S
C917 C933 1.349 . S
C918 C916 1.327 . S
C918 C937 1.429 . S
C918 H942 0.950 . S
C919 C936 1.574 . S
C919 C938 1.368 . S
C919 H943 0.949 . S
H920 C924 0.949 . S
C921 C922 1.349 . S
C921 C923 1.327 . S
C921 H944 0.950 . S
C922 C921 1.349 . S
C922 C934 1.349 . S
C923 C921 1.327 . S
C923 C939 1.429 . S
C923 H945 0.950 . S
C924 H920 0.949 . S
C924 C932 1.574 . S
C924 C940 1.368 . S
H925 C933 0.950 . S
H926 C931 0.950 . S
H927 C932 0.949 . S
H928 C934 0.950 . S
H929 C935 0.950 . S
H930 C936 0.949 . S
C931 H926 0.950 . S
C931 C933 1.327 . S
C931 C937 1.429 . S
C932 C924 1.574 . S
C932 H927 0.949 . S
C932 C938 1.368 . S
C933 C917 1.349 . S
C933 H925 0.950 . S
C933 C931 1.327 . S
C934 C922 1.349 . S
C934 H928 0.950 . S
C934 C935 1.327 . S
C935 H929 0.950 . S
C935 C934 1.327 . S
C935 C939 1.429 . S
C936 C919 1.574 . S
C936 H930 0.949 . S
C936 C940 1.368 . S
C937 C918 1.429 . S
C937 C931 1.429 . S
C937 C938 1.523 . S
C938 C919 1.368 . S
C938 C932 1.368 . S
C938 C937 1.523 . S
C939 C923 1.429 . S
C939 C935 1.429 . S
C939 C940 1.523 . S
C940 C924 1.368 . S
C940 C936 1.368 . S
C940 C939 1.523 . S
H941 C916 0.950 . S
H942 C918 0.950 . S
H943 C919 0.949 . S
H944 C921 0.950 . S
H945 C923 0.950 . S
C946 C947 1.349 . S
C946 C948 1.327 . S
C946 H971 0.950 . S
C947 C946 1.349 . S
C947 C963 1.349 . S
C948 C946 1.327 . S
C948 C967 1.429 . S
C948 H972 0.950 . S
C949 C966 1.574 . S
C949 C968 1.368 . S
C949 H973 0.949 . S
H950 C954 0.949 . S
C951 C952 1.349 . S
C951 C953 1.327 . S
C951 H974 0.950 . S
C952 C951 1.349 . S
C952 C964 1.349 . S
C953 C951 1.327 . S
C953 C969 1.429 . S
C953 H975 0.950 . S
C954 H950 0.949 . S
C954 C962 1.574 . S
C954 C970 1.368 . S
H955 C963 0.950 . S
H956 C961 0.950 . S
H957 C962 0.949 . S
H958 C964 0.950 . S
H959 C965 0.950 . S
H960 C966 0.949 . S
C961 H956 0.950 . S
C961 C963 1.327 . S
C961 C967 1.429 . S
C962 C954 1.574 . S
C962 H957 0.949 . S
C962 C968 1.368 . S
C963 C947 1.349 . S
C963 H955 0.950 . S
C963 C961 1.327 . S
C964 C952 1.349 . S
C964 H958 0.950 . S
C964 C965 1.327 . S
C965 H959 0.950 . S
C965 C964 1.327 . S
C965 C969 1.429 . S
C966 C949 1.574 . S
C966 H960 0.949 . S
C966 C970 1.368 . S
C967 C948 1.429 . S
C967 C961 1.429 . S
C967 C968 1.523 . S
C968 C949 1.368 . S
C968 C962 1.368 . S
C968 C967 1.523 . S
C969 C953 1.429 . S
C969 C965 1.429 . S
C969 C970 1.523 . S
C970 C954 1.368 . S
C970 C966 1.368 . S
C970 C969 1.523 . S
H971 C946 0.950 . S
H972 C948 0.950 . S
H973 C949 0.949 . S
H974 C951 0.950 . S
H975 C953 0.950 . S
C976 C977 1.349 . S
C976 C978 1.327 . S
C976 H1001 0.950 . S
C977 C976 1.349 . S
C977 C993 1.349 . S
C978 C976 1.327 . S
C978 C997 1.429 . S
C978 H1002 0.950 . S
C979 C996 1.574 . S
C979 C998 1.368 . S
C979 H1003 0.949 . S
H980 C984 0.949 . S
C981 C982 1.349 . S
C981 C983 1.327 . S
C981 H1004 0.950 . S
C982 C981 1.349 . S
C982 C994 1.349 . S
C983 C981 1.327 . S
C983 C999 1.429 . S
C983 H1005 0.950 . S
C984 H980 0.949 . S
C984 C992 1.574 . S
C984 C1000 1.368 . S
H985 C993 0.950 . S
H986 C991 0.950 . S
H987 C992 0.949 . S
H988 C994 0.950 . S
H989 C995 0.950 . S
H990 C996 0.949 . S
C991 H986 0.950 . S
C991 C993 1.327 . S
C991 C997 1.429 . S
C992 C984 1.574 . S
C992 H987 0.949 . S
C992 C998 1.368 . S
C993 C977 1.349 . S
C993 H985 0.950 . S
C993 C991 1.327 . S
C994 C982 1.349 . S
C994 H988 0.950 . S
C994 C995 1.327 . S
C995 H989 0.950 . S
C995 C994 1.327 . S
C995 C999 1.429 . S
C996 C979 1.574 . S
C996 H990 0.949 . S
C996 C1000 1.368 . S
C997 C978 1.429 . S
C997 C991 1.429 . S
C997 C998 1.523 . S
C998 C979 1.368 . S
C998 C992 1.368 . S
C998 C997 1.523 . S
C999 C983 1.429 . S
C999 C995 1.429 . S
C999 C1000 1.523 . S
C1000 C984 1.368 . S
C1000 C996 1.368 . S
C1000 C999 1.523 . S
H1001 C976 0.950 . S
H1002 C978 0.950 . S
H1003 C979 0.949 . S
H1004 C981 0.950 . S
H1005 C983 0.950 . S
C1006 C1007 1.349 . S
C1006 C1008 1.327 . S
C1006 H1031 0.950 . S
C1007 C1006 1.349 . S
C1007 C1023 1.349 . S
C1008 C1006 1.327 . S
C1008 C1027 1.429 . S
C1008 H1032 0.950 . S
C1009 C1026 1.574 . S
C1009 C1028 1.368 . S
C1009 H1033 0.949 . S
H1010 C1014 0.949 . S
C1011 C1012 1.349 . S
C1011 C1013 1.327 . S
C1011 H1034 0.950 . S
C1012 C1011 1.349 . S
C1012 C1024 1.349 . S
C1013 C1011 1.327 . S
C1013 C1029 1.429 . S
C1013 H1035 0.950 . S
C1014 H1010 0.949 . S
C1014 C1022 1.574 . S
C1014 C1030 1.368 . S
H1015 C1023 0.950 . S
H1016 C1021 0.950 . S
H1017 C1022 0.949 . S
H1018 C1024 0.950 . S
H1019 C1025 0.950 . S
H1020 C1026 0.949 . S
C1021 H1016 0.950 . S
C1021 C1023 1.327 . S
C1021 C1027 1.429 . S
C1022 C1014 1.574 . S
C1022 H1017 0.949 . S
C1022 C1028 1.368 . S
C1023 C1007 1.349 . S
C1023 H1015 0.950 . S
C1023 C1021 1.327 . S
C1024 C1012 1.349 . S
C1024 H1018 0.950 . S
C1024 C1025 1.327 . S
C1025 H1019 0.950 . S
C1025 C1024 1.327 . S
C1025 C1029 1.429 . S
C1026 C1009 1.574 . S
C1026 H1020 0.949 . S
C1026 C1030 1.368 . S
C1027 C1008 1.429 . S
C1027 C1021 1.429 . S
C1027 C1028 1.523 . S
C1028 C1009 1.368 . S
C1028 C1022 1.368 . S
C1028 C1027 1.523 . S
C1029 C1013 1.429 . S
C1029 C1025 1.429 . S
C1029 C1030 1.523 . S
C1030 C1014 1.368 . S
C1030 C1026 1.368 . S
C1030 C1029 1.523 . S
H1031 C1006 0.950 . S
H1032 C1008 0.950 . S
H1033 C1009 0.949 . S
H1034 C1011 0.950 . S
H1035 C1013 0.950 . S
C1036 C1037 1.349 . S
C1036 C1038 1.327 . S
C1036 H1061 0.950 . S
C1037 C1036 1.349 . S
C1037 C1053 1.349 . S
C1038 C1036 1.327 . S
C1038 C1057 1.429 . S
C1038 H1062 0.950 . S
C1039 C1056 1.574 . S
C1039 C1058 1.368 . S
C1039 H1063 0.949 . S
H1040 C1044 0.949 . S
C1041 C1042 1.349 . S
C1041 C1043 1.327 1_545 S
C1041 H1064 0.950 . S
C1042 C1041 1.349 . S
C1042 C1054 1.349 . S
C1043 C1041 1.327 1_565 S
C1043 C1059 1.429 . S
C1043 H1065 0.950 . S
C1044 H1040 0.949 . S
C1044 C1052 1.574 . S
C1044 C1060 1.368 . S
H1045 C1053 0.950 . S
H1046 C1051 0.950 . S
H1047 C1052 0.949 . S
H1048 C1054 0.950 . S
H1049 C1055 0.950 . S
H1050 C1056 0.949 . S
C1051 H1046 0.950 . S
C1051 C1053 1.327 . S
C1051 C1057 1.429 . S
C1052 C1044 1.574 . S
C1052 H1047 0.949 . S
C1052 C1058 1.368 . S
C1053 C1037 1.349 . S
C1053 H1045 0.950 . S
C1053 C1051 1.327 . S
C1054 C1042 1.349 . S
C1054 H1048 0.950 . S
C1054 C1055 1.327 . S
C1055 H1049 0.950 . S
C1055 C1054 1.327 . S
C1055 C1059 1.429 1_545 S
C1056 C1039 1.574 . S
C1056 H1050 0.949 . S
C1056 C1060 1.368 . S
C1057 C1038 1.429 . S
C1057 C1051 1.429 . S
C1057 C1058 1.523 . S
C1058 C1039 1.368 . S
C1058 C1052 1.368 . S
C1058 C1057 1.523 . S
C1059 C1043 1.429 . S
C1059 C1055 1.429 1_565 S
C1059 C1060 1.523 . S
C1060 C1044 1.368 . S
C1060 C1056 1.368 . S
C1060 C1059 1.523 . S
H1061 C1036 0.950 . S
H1062 C1038 0.950 . S
H1063 C1039 0.949 . S
H1064 C1041 0.950 . S
H1065 C1043 0.950 . S
C1066 C1067 1.349 . S
C1066 C1068 1.327 . S
C1066 H1091 0.950 . S
C1067 C1066 1.349 . S
C1067 C1083 1.349 . S
C1068 C1066 1.327 . S
C1068 C1087 1.429 . S
C1068 H1092 0.950 . S
C1069 C1086 1.574 . S
C1069 C1088 1.368 . S
C1069 H1093 0.949 . S
H1070 C1074 0.949 . S
C1071 C1072 1.349 . S
C1071 C1073 1.327 . S
C1071 H1094 0.950 . S
C1072 C1071 1.349 . S
C1072 C1084 1.349 . S
C1073 C1071 1.327 . S
C1073 C1089 1.429 . S
C1073 H1095 0.950 . S
C1074 H1070 0.949 . S
C1074 C1082 1.574 . S
C1074 C1090 1.368 . S
H1075 C1083 0.950 . S
H1076 C1081 0.950 . S
H1077 C1082 0.949 . S
H1078 C1084 0.950 . S
H1079 C1085 0.950 . S
H1080 C1086 0.949 . S
C1081 H1076 0.950 . S
C1081 C1083 1.327 . S
C1081 C1087 1.429 . S
C1082 C1074 1.574 . S
C1082 H1077 0.949 . S
C1082 C1088 1.368 . S
C1083 C1067 1.349 . S
C1083 H1075 0.950 . S
C1083 C1081 1.327 . S
C1084 C1072 1.349 . S
C1084 H1078 0.950 . S
C1084 C1085 1.327 . S
C1085 H1079 0.950 . S
C1085 C1084 1.327 . S
C1085 C1089 1.429 . S
C1086 C1069 1.574 . S
C1086 H1080 0.949 . S
C1086 C1090 1.368 . S
C1087 C1068 1.429 . S
C1087 C1081 1.429 . S
C1087 C1088 1.523 . S
C1088 C1069 1.368 . S
C1088 C1082 1.368 . S
C1088 C1087 1.523 . S
C1089 C1073 1.429 . S
C1089 C1085 1.429 . S
C1089 C1090 1.523 . S
C1090 C1074 1.368 . S
C1090 C1086 1.368 . S
C1090 C1089 1.523 . S
H1091 C1066 0.950 . S
H1092 C1068 0.950 . S
H1093 C1069 0.949 . S
H1094 C1071 0.950 . S
H1095 C1073 0.950 . S
C382 C118 1.534 . S
C377 C5 1.367 . S
C412 C157 1.548 . S
C407 C16 1.308 . S
C442 C133 1.737 . S
C437 C30 1.741 . S
C472 C172 1.678 . S
C467 C40 1.628 . S
C502 C220 1.434 . S
C497 C8 1.428 . S
C532 C253 1.478 . S
C527 C18 1.414 . S
C557 C29 1.775 . S
C562 C310 1.805 . S
C592 C358 1.570 . S
C587 C38 1.326 . S
C622 C205 1.382 . S
C617 C19 1.377 . S
C647 C27 1.489 . S
C652 C268 1.647 . S
C682 C325 1.612 . S
C677 C41 1.605 . S
C712 C373 1.538 . S
C707 C7 1.492 . S
C737 C52 1.616 . S
C742 C166 1.629 . S
C772 C109 1.604 . S
C767 C62 1.569 . S
C797 C74 1.397 . S
C802 C181 1.410 . S
C827 C82 1.211 . S
C832 C124 1.401 . S
C862 C301 1.869 . S
C857 C51 1.780 . S
C892 C364 1.623 . S
C887 C60 1.389 . S
C922 C229 1.457 . S
C917 C71 1.247 . S
C947 C84 1.457 . S
C952 C277 1.517 . S
C982 C316 1.758 . S
C977 C63 1.754 . S
C1012 C349 1.480 . S
C1007 C73 1.433 . S
C1042 C214 1.546 . S
C1037 C85 1.540 . S
C1067 C49 1.393 . S
C1072 C262 1.669 . S
