# Generated by pormake.
# Topology ctn, (3,4)-cn, num edge types: 1
# Building blocks:
#     Node 0, Type 0, BuildingBlock: BETDIP_clean_linker_0, # of connection points: 3
#     Node 1, Type 0, BuildingBlock: BETDIP_clean_linker_0, # of connection points: 3
#     Node 2, Type 0, BuildingBlock: BETDIP_clean_linker_0, # of connection points: 3
#     Node 3, Type 0, BuildingBlock: BETDIP_clean_linker_0, # of connection points: 3
#     Node 4, Type 0, BuildingBlock: BETDIP_clean_linker_0, # of connection points: 3
#     Node 5, Type 0, BuildingBlock: BETDIP_clean_linker_0, # of connection points: 3
#     Node 6, Type 0, BuildingBlock: BETDIP_clean_linker_0, # of connection points: 3
#     Node 7, Type 0, BuildingBlock: BETDIP_clean_linker_0, # of connection points: 3
#     Node 8, Type 0, BuildingBlock: BETDIP_clean_linker_0, # of connection points: 3
#     Node 9, Type 0, BuildingBlock: BETDIP_clean_linker_0, # of connection points: 3
#     Node 10, Type 0, BuildingBlock: BETDIP_clean_linker_0, # of connection points: 3
#     Node 11, Type 0, BuildingBlock: BETDIP_clean_linker_0, # of connection points: 3
#     Node 12, Type 0, BuildingBlock: BETDIP_clean_linker_0, # of connection points: 3
#     Node 13, Type 0, BuildingBlock: BETDIP_clean_linker_0, # of connection points: 3
#     Node 14, Type 0, BuildingBlock: BETDIP_clean_linker_0, # of connection points: 3
#     Node 15, Type 0, BuildingBlock: BETDIP_clean_linker_0, # of connection points: 3
#     Node 16, Type 1, BuildingBlock: TATPOV_clean_sbu_0, # of connection points: 4
#     Node 17, Type 1, BuildingBlock: TATPOV_clean_sbu_0, # of connection points: 4
#     Node 18, Type 1, BuildingBlock: TATPOV_clean_sbu_0, # of connection points: 4
#     Node 19, Type 1, BuildingBlock: TATPOV_clean_sbu_0, # of connection points: 4
#     Node 20, Type 1, BuildingBlock: TATPOV_clean_sbu_0, # of connection points: 4
#     Node 21, Type 1, BuildingBlock: TATPOV_clean_sbu_0, # of connection points: 4
#     Node 22, Type 1, BuildingBlock: TATPOV_clean_sbu_0, # of connection points: 4
#     Node 23, Type 1, BuildingBlock: TATPOV_clean_sbu_0, # of connection points: 4
#     Node 24, Type 1, BuildingBlock: TATPOV_clean_sbu_0, # of connection points: 4
#     Node 25, Type 1, BuildingBlock: TATPOV_clean_sbu_0, # of connection points: 4
#     Node 26, Type 1, BuildingBlock: TATPOV_clean_sbu_0, # of connection points: 4
#     Node 27, Type 1, BuildingBlock: TATPOV_clean_sbu_0, # of connection points: 4
#     Edge 28, Type (0, 1), BuildingBlock: XUDNAN_clean_linker_2, # of connection points: 2
#     Edge 29, Type (0, 1), BuildingBlock: XUDNAN_clean_linker_2, # of connection points: 2
#     Edge 30, Type (0, 1), BuildingBlock: XUDNAN_clean_linker_2, # of connection points: 2
#     Edge 31, Type (0, 1), BuildingBlock: XUDNAN_clean_linker_2, # of connection points: 2
#     Edge 32, Type (0, 1), BuildingBlock: XUDNAN_clean_linker_2, # of connection points: 2
#     Edge 33, Type (0, 1), BuildingBlock: XUDNAN_clean_linker_2, # of connection points: 2
#     Edge 34, Type (0, 1), BuildingBlock: XUDNAN_clean_linker_2, # of connection points: 2
#     Edge 35, Type (0, 1), BuildingBlock: XUDNAN_clean_linker_2, # of connection points: 2
#     Edge 36, Type (0, 1), BuildingBlock: XUDNAN_clean_linker_2, # of connection points: 2
#     Edge 37, Type (0, 1), BuildingBlock: XUDNAN_clean_linker_2, # of connection points: 2
#     Edge 38, Type (0, 1), BuildingBlock: XUDNAN_clean_linker_2, # of connection points: 2
#     Edge 39, Type (0, 1), BuildingBlock: XUDNAN_clean_linker_2, # of connection points: 2
#     Edge 40, Type (0, 1), BuildingBlock: XUDNAN_clean_linker_2, # of connection points: 2
#     Edge 41, Type (0, 1), BuildingBlock: XUDNAN_clean_linker_2, # of connection points: 2
#     Edge 42, Type (0, 1), BuildingBlock: XUDNAN_clean_linker_2, # of connection points: 2
#     Edge 43, Type (0, 1), BuildingBlock: XUDNAN_clean_linker_2, # of connection points: 2
#     Edge 44, Type (0, 1), BuildingBlock: XUDNAN_clean_linker_2, # of connection points: 2
#     Edge 45, Type (0, 1), BuildingBlock: XUDNAN_clean_linker_2, # of connection points: 2
#     Edge 46, Type (0, 1), BuildingBlock: XUDNAN_clean_linker_2, # of connection points: 2
#     Edge 47, Type (0, 1), BuildingBlock: XUDNAN_clean_linker_2, # of connection points: 2
#     Edge 48, Type (0, 1), BuildingBlock: XUDNAN_clean_linker_2, # of connection points: 2
#     Edge 49, Type (0, 1), BuildingBlock: XUDNAN_clean_linker_2, # of connection points: 2
#     Edge 50, Type (0, 1), BuildingBlock: XUDNAN_clean_linker_2, # of connection points: 2
#     Edge 51, Type (0, 1), BuildingBlock: XUDNAN_clean_linker_2, # of connection points: 2
#     Edge 52, Type (0, 1), BuildingBlock: XUDNAN_clean_linker_2, # of connection points: 2
#     Edge 53, Type (0, 1), BuildingBlock: XUDNAN_clean_linker_2, # of connection points: 2
#     Edge 54, Type (0, 1), BuildingBlock: XUDNAN_clean_linker_2, # of connection points: 2
#     Edge 55, Type (0, 1), BuildingBlock: XUDNAN_clean_linker_2, # of connection points: 2
#     Edge 56, Type (0, 1), BuildingBlock: XUDNAN_clean_linker_2, # of connection points: 2
#     Edge 57, Type (0, 1), BuildingBlock: XUDNAN_clean_linker_2, # of connection points: 2
#     Edge 58, Type (0, 1), BuildingBlock: XUDNAN_clean_linker_2, # of connection points: 2
#     Edge 59, Type (0, 1), BuildingBlock: XUDNAN_clean_linker_2, # of connection points: 2
#     Edge 60, Type (0, 1), BuildingBlock: XUDNAN_clean_linker_2, # of connection points: 2
#     Edge 61, Type (0, 1), BuildingBlock: XUDNAN_clean_linker_2, # of connection points: 2
#     Edge 62, Type (0, 1), BuildingBlock: XUDNAN_clean_linker_2, # of connection points: 2
#     Edge 63, Type (0, 1), BuildingBlock: XUDNAN_clean_linker_2, # of connection points: 2
#     Edge 64, Type (0, 1), BuildingBlock: XUDNAN_clean_linker_2, # of connection points: 2
#     Edge 65, Type (0, 1), BuildingBlock: XUDNAN_clean_linker_2, # of connection points: 2
#     Edge 66, Type (0, 1), BuildingBlock: XUDNAN_clean_linker_2, # of connection points: 2
#     Edge 67, Type (0, 1), BuildingBlock: XUDNAN_clean_linker_2, # of connection points: 2
#     Edge 68, Type (0, 1), BuildingBlock: XUDNAN_clean_linker_2, # of connection points: 2
#     Edge 69, Type (0, 1), BuildingBlock: XUDNAN_clean_linker_2, # of connection points: 2
#     Edge 70, Type (0, 1), BuildingBlock: XUDNAN_clean_linker_2, # of connection points: 2
#     Edge 71, Type (0, 1), BuildingBlock: XUDNAN_clean_linker_2, # of connection points: 2
#     Edge 72, Type (0, 1), BuildingBlock: XUDNAN_clean_linker_2, # of connection points: 2
#     Edge 73, Type (0, 1), BuildingBlock: XUDNAN_clean_linker_2, # of connection points: 2
#     Edge 74, Type (0, 1), BuildingBlock: XUDNAN_clean_linker_2, # of connection points: 2
#     Edge 75, Type (0, 1), BuildingBlock: XUDNAN_clean_linker_2, # of connection points: 2
# Relax obj value: 0.069
# Max RMSD: 0.195
# Mean RMSD: 0.113
data_MOF--net-ctn--node1-TATPOV_clean_sbu_0--node2-BETDIP_clean_linker_0--edge1-XUDNAN_clean_linker_2
_symmetry_space_group_name_H-M    P1
_symmetry_Int_Tables_number       1
_symmetry_cell_setting            triclinic
loop_
_symmetry_equiv_pos_as_xyz
'x, y, z'
_cell_length_a     52.099858
_cell_length_b     52.398577
_cell_length_c     57.427226
_cell_angle_alpha  94.932885
_cell_angle_beta   94.885133
_cell_angle_gamma 94.35749
loop_
_atom_site_label
_atom_site_type_symbol
_atom_site_fract_x
_atom_site_fract_y
_atom_site_fract_z
_atom_type_partial_charge
H0 H 0.02619 0.07357 0.06926 0.0
H1 H 0.08324 0.04257 0.02741 0.0
H2 H 0.05161 0.99848 0.07937 0.0
H3 H 0.09727 0.08554 0.03027 0.0
C4 C 0.07891 0.09289 0.02501 0.0
C5 C 0.03845 0.05836 0.06494 0.0
C6 C 0.03686 0.0357 0.07652 0.0
C7 C 0.05549 0.06127 0.04748 0.0
C8 C 0.07066 0.04103 0.04138 0.0
C9 C 0.06962 0.01851 0.05294 0.0
C10 C 0.05275 0.01599 0.07059 0.0
N11 N 0.05646 0.08406 0.0355 0.0
H12 H 0.24892 0.69144 0.20354 0.0
H13 H 0.32397 0.72959 0.22429 0.0
H14 H 0.29899 0.66162 0.25631 0.0
H15 H 0.29239 0.76588 0.21726 0.0
C16 C 0.28683 0.75708 0.19953 0.0
C17 C 0.26711 0.69238 0.21435 0.0
C18 C 0.27156 0.67396 0.23028 0.0
C19 C 0.28563 0.71265 0.21258 0.0
C20 C 0.30932 0.71441 0.2265 0.0
C21 C 0.31454 0.69579 0.24219 0.0
C22 C 0.29533 0.67588 0.24414 0.0
N23 N 0.28046 0.73016 0.19563 0.0
H24 H 0.91124 0.44604 0.0429 0.0
H25 H 0.96441 0.40313 0.08174 0.0
H26 H 0.9771 0.48556 0.08473 0.0
H27 H 0.92126 0.35808 0.05153 0.0
C28 C 0.93191 0.37518 0.04674 0.0
C29 C 0.92842 0.4457 0.05489 0.0
C30 C 0.94349 0.46865 0.06282 0.0
C31 C 0.93622 0.42205 0.06119 0.0
C32 C 0.95858 0.42139 0.07655 0.0
C33 C 0.97334 0.44428 0.08531 0.0
C34 C 0.96586 0.46778 0.07806 0.0
N35 N 0.92138 0.39911 0.05169 0.0
H36 H 0.71838 0.72818 0.18159 0.0
H37 H 0.74498 0.80027 0.21997 0.0
H38 H 0.78222 0.77431 0.15915 0.0
H39 H 0.73894 0.76591 0.25053 0.0
C40 C 0.71867 0.76277 0.2439 0.0
C41 C 0.73167 0.74533 0.18369 0.0
C42 C 0.75058 0.74884 0.16786 0.0
C43 C 0.73023 0.76341 0.20282 0.0
C44 C 0.74691 0.78597 0.20558 0.0
C45 C 0.76537 0.79045 0.18954 0.0
C46 C 0.7672 0.77161 0.17086 0.0
N47 N 0.71199 0.75858 0.21928 0.0
H48 H 0.04934 0.98869 0.43243 0.0
H49 H 0.12568 0.00636 0.46744 0.0
H50 H 0.10795 0.03185 0.39967 0.0
H51 H 0.11759 0.97122 0.48379 0.0
C52 C 0.09701 0.96869 0.48553 0.0
C53 C 0.06885 0.99744 0.43247 0.0
C54 C 0.07606 0.01109 0.41356 0.0
C55 C 0.08678 0.99472 0.45161 0.0
C56 C 0.11182 0.00715 0.45247 0.0
C57 C 0.11947 0.02045 0.43373 0.0
C58 C 0.10167 0.02202 0.41429 0.0
N59 N 0.0792 0.97913 0.46946 0.0
H60 H 0.21293 0.76062 0.7972 0.0
H61 H 0.24785 0.70659 0.75219 0.0
H62 H 0.27533 0.71939 0.82541 0.0
H63 H 0.20123 0.70207 0.736 0.0
C64 C 0.20046 0.7226 0.73488 0.0
C65 C 0.22692 0.7465 0.79513 0.0
C66 C 0.24333 0.74111 0.81451 0.0
C67 C 0.22804 0.73374 0.77291 0.0
C68 C 0.24644 0.71592 0.76957 0.0
C69 C 0.26403 0.7112 0.78833 0.0
C70 C 0.26231 0.72372 0.81081 0.0
N71 N 0.2112 0.74023 0.754 0.0
H72 H 0.97818 0.59957 0.47233 0.0
H73 H 0.94052 0.5231 0.45893 0.0
H74 H 0.9105 0.57859 0.50656 0.0
H75 H 0.9754 0.51348 0.44228 0.0
C76 C 0.98479 0.53093 0.43692 0.0
C77 C 0.96312 0.58529 0.47572 0.0
C78 C 0.94435 0.59207 0.49071 0.0
C79 C 0.9622 0.56046 0.46434 0.0
C80 C 0.94218 0.54208 0.46819 0.0
C81 C 0.92337 0.54847 0.4834 0.0
C82 C 0.92468 0.57352 0.49458 0.0
N83 N 0.98092 0.55536 0.44826 0.0
H84 H 0.8383 0.85134 0.79146 0.0
H85 H 0.86959 0.79194 0.82953 0.0
H86 H 0.80121 0.82567 0.85028 0.0
H87 H 0.90412 0.79903 0.80976 0.0
C88 C 0.89798 0.80743 0.7938 0.0
C89 C 0.83758 0.83916 0.80578 0.0
C90 C 0.8178 0.84079 0.82075 0.0
C91 C 0.85631 0.82171 0.8087 0.0
C92 C 0.85528 0.8056 0.82706 0.0
C93 C 0.83554 0.80702 0.84237 0.0
C94 C 0.81674 0.82459 0.8389 0.0
N95 N 0.87512 0.82057 0.79219 0.0
H96 H 0.33033 0.35585 0.29132 0.0
H97 H 0.35836 0.29995 0.33504 0.0
H98 H 0.29795 0.34634 0.3565 0.0
H99 H 0.39572 0.30818 0.31767 0.0
C100 C 0.38885 0.31144 0.29987 0.0
C101 C 0.32996 0.34669 0.30753 0.0
C102 C 0.31171 0.35271 0.32324 0.0
C103 C 0.34749 0.32848 0.3122 0.0
C104 C 0.34615 0.31542 0.33253 0.0
C105 C 0.32819 0.32144 0.34886 0.0
C106 C 0.31142 0.34061 0.34409 0.0
N107 N 0.3653 0.32296 0.29541 0.0
H108 H 0.46878 0.97512 0.51856 0.0
H109 H 0.52162 0.93971 0.56492 0.0
H110 H 0.5092 0.01954 0.5789 0.0
H111 H 0.49456 0.90359 0.55095 0.0
C112 C 0.49342 0.90662 0.53242 0.0
C113 C 0.48213 0.97636 0.53424 0.0
C114 C 0.48773 0.99987 0.54804 0.0
C115 C 0.49397 0.95447 0.54036 0.0
C116 C 0.51161 0.95624 0.5605 0.0
C117 C 0.51723 0.97962 0.57456 0.0
C118 C 0.50531 0.00143 0.56808 0.0
N119 N 0.48905 0.93135 0.52526 0.0
H120 H 0.23142 0.242 0.69308 0.0
H121 H 0.2344 0.31847 0.72767 0.0
H122 H 0.28306 0.30244 0.67244 0.0
H123 H 0.19123 0.30569 0.72899 0.0
C124 C 0.19353 0.28731 0.73604 0.0
C125 C 0.23929 0.2619 0.69507 0.0
C126 C 0.25854 0.27014 0.68097 0.0
C127 C 0.23015 0.27931 0.71175 0.0
C128 C 0.24059 0.30507 0.71428 0.0
C129 C 0.25952 0.31367 0.70009 0.0
C130 C 0.26864 0.29598 0.68367 0.0
N131 N 0.21091 0.27063 0.72616 0.0
H132 H 0.76201 0.18682 0.7091 0.0
H133 H 0.83102 0.23656 0.7304 0.0
H134 H 0.81292 0.17117 0.76815 0.0
H135 H 0.79459 0.26681 0.72015 0.0
C136 C 0.79118 0.25674 0.70268 0.0
C137 C 0.77923 0.19182 0.72107 0.0
C138 C 0.78568 0.17601 0.73886 0.0
C139 C 0.79503 0.21414 0.71852 0.0
C140 C 0.81814 0.22012 0.73324 0.0
C141 C 0.82525 0.20399 0.75064 0.0
C142 C 0.8083 0.18276 0.75386 0.0
N143 N 0.7881 0.22945 0.70012 0.0
H144 H 0.53115 0.56303 0.5608 0.0
H145 H 0.58799 0.53015 0.51999 0.0
H146 H 0.56006 0.49064 0.57632 0.0
H147 H 0.60112 0.57331 0.52036 0.0
C148 C 0.58244 0.57973 0.51466 0.0
C149 C 0.54384 0.54793 0.55746 0.0
C150 C 0.54343 0.52659 0.57087 0.0
C151 C 0.56032 0.54973 0.53943 0.0
C152 C 0.57593 0.52956 0.53442 0.0
C153 C 0.57606 0.50835 0.54771 0.0
C154 C 0.56 0.50708 0.56608 0.0
N155 N 0.56037 0.57132 0.52587 0.0
H156 H 0.53219 0.48342 0.93266 0.0
H157 H 0.60817 0.48661 0.96876 0.0
H158 H 0.59912 0.50963 0.89906 0.0
H159 H 0.59093 0.45408 0.98676 0.0
C160 C 0.57065 0.45706 0.98776 0.0
C161 C 0.55287 0.48744 0.93257 0.0
C162 C 0.56335 0.4975 0.91308 0.0
C163 C 0.56887 0.48236 0.95226 0.0
C164 C 0.59563 0.48905 0.95324 0.0
C165 C 0.60641 0.49909 0.93408 0.0
C166 C 0.59035 0.50254 0.91394 0.0
N167 N 0.55733 0.4707 0.97074 0.0
H168 H 0.73278 0.25945 0.29389 0.0
H169 H 0.75426 0.19288 0.25355 0.0
H170 H 0.77129 0.20151 0.32868 0.0
H171 H 0.7139 0.20008 0.23304 0.0
C172 C 0.71516 0.22085 0.2328 0.0
C173 C 0.74175 0.24143 0.29326 0.0
C174 C 0.75181 0.2322 0.3141 0.0
C175 C 0.74211 0.22722 0.27156 0.0
C176 C 0.75388 0.20392 0.27034 0.0
C177 C 0.76472 0.1946 0.29091 0.0
C178 C 0.76356 0.20888 0.31271 0.0
N179 N 0.72961 0.23664 0.25148 0.0
H180 H 0.48844 0.08228 0.96734 0.0
H181 H 0.43365 0.01593 0.95552 0.0
H182 H 0.42697 0.07348 0.01223 0.0
H183 H 0.5051 0.06694 0.93562 0.0
C184 C 0.49647 0.04773 0.92975 0.0
C185 C 0.47151 0.07131 0.97194 0.0
C186 C 0.45869 0.08079 0.99107 0.0
C187 C 0.46232 0.04791 0.959 0.0
C188 C 0.44052 0.03403 0.9655 0.0
C189 C 0.42759 0.04307 0.9846 0.0
C190 C 0.43656 0.06666 0.99714 0.0
N191 N 0.47455 0.03703 0.93976 0.0
Zn192 Zn 0.29211 0.84991 0.01341 0.0
Zn193 Zn 0.24816 0.87301 0.01395 0.0
O194 O 0.25073 0.85588 0.04532 0.0
O195 O 0.28499 0.83388 0.043 0.0
O196 O 0.21458 0.89065 0.01403 0.0
O197 O 0.31206 0.88449 0.01462 0.0
O198 O 0.27572 0.90338 0.0131 0.0
C199 C 0.26608 0.84051 0.05388 0.0
C200 C 0.25823 0.83346 0.97264 0.0
O201 O 0.24335 0.84814 0.983 0.0
O202 O 0.28067 0.83109 0.98205 0.0
C203 C 0.20784 0.90306 0.03228 0.0
O204 O 0.22277 0.90416 0.05203 0.0
C205 C 0.30031 0.90472 0.0137 0.0
Zn206 Zn 0.09968 0.43598 0.27604 0.0
Zn207 Zn 0.12305 0.48281 0.26817 0.0
O208 O 0.10127 0.49284 0.29496 0.0
O209 O 0.08231 0.45554 0.30186 0.0
O210 O 0.13979 0.51577 0.25912 0.0
O211 O 0.13611 0.42468 0.28343 0.0
O212 O 0.15362 0.46287 0.27746 0.0
C213 C 0.08612 0.47972 0.30654 0.0
C214 C 0.08799 0.44945 0.22917 0.0
O215 O 0.10294 0.46909 0.23727 0.0
O216 O 0.08261 0.43187 0.24225 0.0
C217 C 0.15657 0.53075 0.27197 0.0
O218 O 0.16319 0.52557 0.29354 0.0
C219 C 0.15601 0.44009 0.28288 0.0
Zn220 Zn 0.83047 0.6127 0.94739 0.0
Zn221 Zn 0.81054 0.63414 0.98517 0.0
O222 O 0.84127 0.61557 0.99873 0.0
O223 O 0.86051 0.6021 0.96777 0.0
O224 O 0.7974 0.65149 0.01421 0.0
O225 O 0.83302 0.64638 0.93328 0.0
O226 O 0.81829 0.66443 0.96496 0.0
C227 C 0.85955 0.60449 0.98978 0.0
C228 C 0.77872 0.59127 0.95361 0.0
O229 O 0.78047 0.6083 0.97104 0.0
O230 O 0.79748 0.5891 0.94109 0.0
C231 C 0.79031 0.63797 0.03026 0.0
O232 O 0.7913 0.61293 0.02733 0.0
C233 C 0.82662 0.6662 0.94482 0.0
Zn234 Zn 0.8794 0.99034 0.28228 0.0
Zn235 Zn 0.89664 0.00825 0.24494 0.0
O236 O 0.87175 0.03665 0.25345 0.0
O237 O 0.85837 0.0208 0.28503 0.0
O238 O 0.91182 0.01566 0.21425 0.0
O239 O 0.91449 0.99153 0.29919 0.0
O240 O 0.92923 0.0097 0.26923 0.0
C241 C 0.85789 0.03799 0.27081 0.0
C242 C 0.86554 0.95413 0.24442 0.0
O243 O 0.87739 0.97182 0.23443 0.0
O244 O 0.86348 0.95719 0.26622 0.0
C245 C 0.93175 0.03029 0.21132 0.0
O246 O 0.94391 0.04459 0.22942 0.0
C247 C 0.93311 0.00177 0.28957 0.0
Zn248 Zn 0.34265 0.13955 0.4552 0.0
Zn249 Zn 0.3242 0.15377 0.4962 0.0
O250 O 0.35744 0.13561 0.50414 0.0
O251 O 0.37392 0.12595 0.4707 0.0
O252 O 0.31613 0.16707 0.52871 0.0
O253 O 0.34503 0.17581 0.44661 0.0
O254 O 0.32673 0.18685 0.47878 0.0
C255 C 0.37503 0.1262 0.49277 0.0
C256 C 0.29112 0.11544 0.46194 0.0
O257 O 0.29381 0.12856 0.48189 0.0
O258 O 0.30885 0.11699 0.44815 0.0
C259 C 0.29447 0.17239 0.53573 0.0
O260 O 0.27357 0.16869 0.52096 0.0
C261 C 0.3358 0.19268 0.4598 0.0
Zn262 Zn 0.37329 0.51904 0.77793 0.0
Zn263 Zn 0.39874 0.52347 0.73945 0.0
O264 O 0.38277 0.55878 0.74294 0.0
O265 O 0.36318 0.55501 0.77531 0.0
O266 O 0.41798 0.52227 0.70988 0.0
O267 O 0.40628 0.51213 0.79646 0.0
O268 O 0.4275 0.52 0.76589 0.0
C269 C 0.36917 0.56794 0.75867 0.0
C270 C 0.35332 0.48147 0.74168 0.0
O271 O 0.37169 0.4917 0.73134 0.0
O272 O 0.34924 0.49014 0.76213 0.0
C273 C 0.4347 0.53873 0.70364 0.0
O274 O 0.44078 0.56044 0.71686 0.0
C275 C 0.42739 0.51482 0.78719 0.0
Zn276 Zn 0.8027 0.34347 0.51206 0.0
Zn277 Zn 0.75689 0.36504 0.5124 0.0
O278 O 0.76044 0.3487 0.54397 0.0
O279 O 0.79629 0.32898 0.54286 0.0
O280 O 0.72279 0.38158 0.51251 0.0
O281 O 0.82082 0.37914 0.51132 0.0
O282 O 0.78323 0.39578 0.51033 0.0
C283 C 0.77675 0.33473 0.55328 0.0
C284 C 0.76728 0.32498 0.47196 0.0
O285 O 0.75243 0.33986 0.48207 0.0
O286 O 0.78988 0.32305 0.4813 0.0
C287 C 0.71661 0.39521 0.5303 0.0
O288 O 0.73251 0.39829 0.54954 0.0
C289 C 0.80773 0.39849 0.51014 0.0
Zn290 Zn 0.61284 0.9365 0.76953 0.0
Zn291 Zn 0.63799 0.98481 0.77598 0.0
O292 O 0.61171 0.9888 0.80029 0.0
O293 O 0.59134 0.94997 0.79521 0.0
O294 O 0.66115 0.01748 0.77828 0.0
O295 O 0.64637 0.9204 0.77834 0.0
O296 O 0.66497 0.9598 0.78322 0.0
C297 C 0.5942 0.97253 0.80558 0.0
C298 C 0.60887 0.96459 0.72844 0.0
O299 O 0.62219 0.98193 0.74217 0.0
O300 O 0.60244 0.943 0.73561 0.0
C301 C 0.65733 0.03748 0.76785 0.0
O302 O 0.63484 0.03936 0.75619 0.0
C303 C 0.66642 0.93572 0.78363 0.0
Zn304 Zn 0.02351 0.30128 0.86707 0.0
Zn305 Zn 0.0315 0.25887 0.88869 0.0
O306 O 0.06371 0.26401 0.86965 0.0
O307 O 0.05655 0.29865 0.8518 0.0
O308 O 0.03809 0.22837 0.90776 0.0
O309 O 0.02267 0.32279 0.89749 0.0
O310 O 0.0257 0.28724 0.91496 0.0
C311 C 0.07046 0.2804 0.85562 0.0
C312 C 0.98435 0.25957 0.85303 0.0
O313 O 0.99851 0.24737 0.86672 0.0
O314 O 0.99041 0.28304 0.85073 0.0
C315 C 0.05431 0.21229 0.90262 0.0
O316 O 0.06661 0.21465 0.88379 0.0
C317 C 0.02294 0.3113 0.91599 0.0
Zn318 Zn 0.52279 0.77814 0.34817 0.0
Zn319 Zn 0.52992 0.73482 0.37026 0.0
O320 O 0.56269 0.74049 0.3526 0.0
O321 O 0.55582 0.77377 0.33258 0.0
O322 O 0.53617 0.70431 0.38928 0.0
O323 O 0.52258 0.79887 0.37958 0.0
O324 O 0.52572 0.76298 0.39649 0.0
C325 C 0.56981 0.75606 0.33803 0.0
C326 C 0.48229 0.73707 0.3353 0.0
O327 O 0.49626 0.72427 0.34861 0.0
O328 O 0.48921 0.76031 0.3328 0.0
C329 C 0.55333 0.68895 0.38505 0.0
O330 O 0.56656 0.69175 0.36683 0.0
C331 C 0.52331 0.78707 0.39793 0.0
Zn332 Zn 0.97216 0.81694 0.59611 0.0
Zn333 Zn 0.01722 0.79648 0.60924 0.0
O334 O 0.02773 0.82883 0.59359 0.0
O335 O 0.99216 0.84602 0.58197 0.0
O336 O 0.0519 0.78558 0.62075 0.0
O337 O 0.96427 0.81992 0.63049 0.0
O338 O 0.99993 0.80165 0.63973 0.0
C339 C 0.01659 0.84629 0.58355 0.0
C340 C 0.97723 0.76444 0.57517 0.0
O341 O 0.99946 0.7668 0.58665 0.0
O342 O 0.96256 0.78267 0.57648 0.0
C343 C 0.0558 0.76455 0.62944 0.0
O344 O 0.03624 0.74733 0.63007 0.0
C345 C 0.9794 0.81109 0.64572 0.0
Zn346 Zn 0.46795 0.29265 0.10399 0.0
Zn347 Zn 0.51802 0.29097 0.12041 0.0
O348 O 0.51948 0.32323 0.10199 0.0
O349 O 0.47859 0.32507 0.08931 0.0
O350 O 0.55488 0.2886 0.134 0.0
O351 O 0.45748 0.29496 0.13704 0.0
O352 O 0.49821 0.29336 0.15015 0.0
C353 C 0.50195 0.3342 0.09069 0.0
C354 C 0.48981 0.24675 0.0867 0.0
O355 O 0.5099 0.25734 0.09902 0.0
O356 O 0.469 0.25781 0.08595 0.0
C357 C 0.56144 0.2674 0.14095 0.0
O358 O 0.54418 0.24751 0.13877 0.0
C359 C 0.47459 0.29479 0.15404 0.0
H360 H 0.28134 0.75893 0.85004 0.0
H361 H 0.19807 0.75145 0.83331 0.0
H362 H 0.1926 0.77435 0.8716 0.0
H363 H 0.27932 0.7483 0.91174 0.0
H364 H 0.30681 0.77094 0.92111 0.0
H365 H 0.30411 0.75392 0.89227 0.0
H366 H 0.30838 0.7973 0.87381 0.0
H367 H 0.31093 0.81445 0.90257 0.0
H368 H 0.28632 0.82124 0.88048 0.0
H369 H 0.19627 0.80003 0.91138 0.0
H370 H 0.20899 0.82371 0.95041 0.0
H371 H 0.28935 0.81199 0.94178 0.0
C372 C 0.26192 0.76175 0.85449 0.0
C373 C 0.2402 0.75361 0.83836 0.0
C374 C 0.21513 0.75801 0.845 0.0
C375 C 0.21176 0.77087 0.86684 0.0
C376 C 0.23359 0.77899 0.88211 0.0
C377 C 0.25816 0.77435 0.87633 0.0
C378 C 0.27839 0.78494 0.89597 0.0
C379 C 0.29302 0.76323 0.90586 0.0
C380 C 0.2971 0.80572 0.88771 0.0
C381 C 0.26139 0.79641 0.91356 0.0
C382 C 0.2356 0.79293 0.90524 0.0
C383 C 0.2164 0.80266 0.91818 0.0
C384 C 0.22379 0.81614 0.94028 0.0
C385 C 0.2501 0.81954 0.94926 0.0
C386 C 0.26901 0.80948 0.93559 0.0
H387 H 0.99477 0.48725 0.41139 0.0
H388 H 0.01357 0.56983 0.41919 0.0
H389 H 0.04167 0.56571 0.38677 0.0
H390 H 0.05793 0.4697 0.39817 0.0
H391 H 0.04545 0.44329 0.37704 0.0
H392 H 0.02706 0.45279 0.40103 0.0
H393 H 0.98791 0.45856 0.37151 0.0
H394 H 0.0062 0.44911 0.34743 0.0
H395 H 0.992 0.47946 0.34851 0.0
H396 H 0.06757 0.55252 0.35322 0.0
H397 H 0.0893 0.53123 0.3212 0.0
H398 H 0.05327 0.45732 0.33527 0.0
C399 C 0.00488 0.50443 0.40629 0.0
C400 C 0.00204 0.52881 0.41779 0.0
C401 C 0.01547 0.55092 0.41064 0.0
C402 C 0.03148 0.54878 0.39223 0.0
C403 C 0.03381 0.52443 0.38118 0.0
C404 C 0.02088 0.50265 0.38794 0.0
C405 C 0.02651 0.47878 0.3731 0.0
C406 C 0.04005 0.46004 0.38824 0.0
C407 C 0.00167 0.46572 0.35932 0.0
C408 C 0.04461 0.49053 0.35691 0.0
C409 C 0.0486 0.51688 0.36185 0.0
C410 C 0.06459 0.53188 0.3492 0.0
C411 C 0.07685 0.51962 0.33102 0.0
C412 C 0.07302 0.4926 0.32566 0.0
C413 C 0.05663 0.478 0.33886 0.0
H414 H 0.84379 0.75578 0.84107 0.0
H415 H 0.82419 0.81972 0.88756 0.0
H416 H 0.82056 0.79107 0.91934 0.0
H417 H 0.80122 0.70793 0.86085 0.0
H418 H 0.82321 0.68309 0.85846 0.0
H419 H 0.82482 0.70883 0.83966 0.0
H420 H 0.87326 0.71977 0.85404 0.0
H421 H 0.87181 0.694 0.87285 0.0
H422 H 0.88277 0.72623 0.88504 0.0
H423 H 0.81789 0.75471 0.94583 0.0
H424 H 0.81679 0.71388 0.96462 0.0
H425 H 0.8393 0.67465 0.90075 0.0
C426 C 0.83912 0.7639 0.85802 0.0
C427 C 0.83426 0.79002 0.86178 0.0
C428 C 0.82769 0.79969 0.88415 0.0
C429 C 0.82573 0.78361 0.90236 0.0
C430 C 0.83051 0.75792 0.89799 0.0
C431 C 0.83715 0.74817 0.87638 0.0
C432 C 0.84087 0.7198 0.87601 0.0
C433 C 0.82136 0.70399 0.85766 0.0
C434 C 0.86884 0.71466 0.87174 0.0
C435 C 0.83515 0.71505 0.90073 0.0
C436 C 0.82922 0.73722 0.9132 0.0
C437 C 0.82266 0.73726 0.93626 0.0
C438 C 0.82207 0.71399 0.94679 0.0
C439 C 0.82805 0.69105 0.93424 0.0
C440 C 0.83479 0.69181 0.91095 0.0
H441 H 0.0357 0.97645 0.39361 0.0
H442 H 0.07316 0.05206 0.38654 0.0
H443 H 0.04384 0.05557 0.35131 0.0
H444 H 0.02099 0.95562 0.33218 0.0
H445 H 0.98957 0.94051 0.33601 0.0
H446 H 0.0151 0.94265 0.3595 0.0
H447 H 0.98612 0.96582 0.38765 0.0
H448 H 0.96042 0.9634 0.36436 0.0
H449 H 0.97182 0.99435 0.37934 0.0
H450 H 0.00998 0.05106 0.31655 0.0
H451 H 0.97049 0.04144 0.28893 0.0
H452 H 0.95298 0.97112 0.32123 0.0
C453 C 0.03775 0.99389 0.38488 0.0
C454 C 0.05731 0.0137 0.39283 0.0
C455 C 0.05907 0.0361 0.38054 0.0
C456 C 0.04236 0.0384 0.36049 0.0
C457 C 0.0236 0.01837 0.35303 0.0
C458 C 0.02091 0.99677 0.36512 0.0
C459 C 0.99787 0.9789 0.35458 0.0
C460 C 0.00641 0.95288 0.345 0.0
C461 C 0.97788 0.97543 0.37255 0.0
C462 C 0.98789 0.99399 0.33488 0.0
C463 C 0.00329 0.01645 0.33391 0.0
C464 C 0.99775 0.03354 0.31716 0.0
C465 C 0.97542 0.02787 0.30146 0.0
C466 C 0.95875 0.00561 0.30303 0.0
C467 C 0.96541 0.98831 0.31968 0.0
H468 H 0.23058 0.243 0.64302 0.0
H469 H 0.30802 0.25813 0.67786 0.0
H470 H 0.32505 0.2317 0.64579 0.0
H471 H 0.23723 0.17667 0.61758 0.0
H472 H 0.2186 0.18104 0.59051 0.0
H473 H 0.21208 0.19847 0.61752 0.0
H474 H 0.21872 0.24138 0.59867 0.0
H475 H 0.22539 0.22413 0.57168 0.0
H476 H 0.24856 0.24905 0.58606 0.0
H477 H 0.33403 0.20627 0.60906 0.0
H478 H 0.3349 0.18455 0.56941 0.0
H479 H 0.25173 0.18705 0.55718 0.0
C480 C 0.251 0.24013 0.64409 0.0
C481 C 0.26803 0.25217 0.66298 0.0
C482 C 0.29474 0.24878 0.66357 0.0
C483 C 0.30453 0.23381 0.64549 0.0
C484 C 0.28735 0.22253 0.62686 0.0
C485 C 0.26115 0.22552 0.62597 0.0
C486 C 0.24726 0.21308 0.60302 0.0
C487 C 0.22763 0.191 0.60743 0.0
C488 C 0.23422 0.23311 0.58904 0.0
C489 C 0.2698 0.20302 0.59101 0.0
C490 C 0.29267 0.20843 0.60523 0.0
C491 C 0.31623 0.20177 0.59782 0.0
C492 C 0.3165 0.18944 0.57521 0.0
C493 C 0.29339 0.18404 0.56009 0.0
C494 C 0.26972 0.19078 0.56829 0.0
H495 H 0.53275 0.56324 0.60551 0.0
H496 H 0.51236 0.48401 0.57762 0.0
H497 H 0.4819 0.47896 0.60787 0.0
H498 H 0.53101 0.55217 0.66633 0.0
H499 H 0.51755 0.58198 0.67449 0.0
H500 H 0.53728 0.5797 0.65024 0.0
H501 H 0.5003 0.59475 0.62301 0.0
H502 H 0.48044 0.59706 0.64718 0.0
H503 H 0.46875 0.57752 0.62047 0.0
H504 H 0.45355 0.48237 0.64091 0.0
H505 H 0.43042 0.49338 0.67561 0.0
H506 H 0.46951 0.57026 0.68307 0.0
C507 C 0.52172 0.5449 0.60569 0.0
C508 C 0.52499 0.52398 0.58919 0.0
C509 C 0.51042 0.50021 0.59021 0.0
C510 C 0.49295 0.4972 0.60725 0.0
C511 C 0.49026 0.51811 0.6233 0.0
C512 C 0.50431 0.54148 0.62278 0.0
C513 C 0.49819 0.56063 0.64252 0.0
C514 C 0.52245 0.56911 0.65939 0.0
C515 C 0.48621 0.58386 0.6327 0.0
C516 C 0.47854 0.54435 0.65419 0.0
C517 C 0.47417 0.51994 0.64269 0.0
C518 C 0.45684 0.50142 0.65008 0.0
C519 C 0.44374 0.5079 0.66983 0.0
C520 C 0.44809 0.53269 0.68218 0.0
C521 C 0.46572 0.55114 0.67409 0.0
H522 H 0.79957 0.24424 0.65677 0.0
H523 H 0.77056 0.30283 0.7031 0.0
H524 H 0.76069 0.32799 0.66929 0.0
H525 H 0.83183 0.28854 0.62285 0.0
H526 H 0.82536 0.26837 0.59561 0.0
H527 H 0.82786 0.25407 0.62303 0.0
H528 H 0.78238 0.23024 0.61247 0.0
H529 H 0.7797 0.24456 0.58504 0.0
H530 H 0.75525 0.2484 0.60517 0.0
H531 H 0.7534 0.34629 0.63003 0.0
H532 H 0.75465 0.35918 0.5896 0.0
H533 H 0.79233 0.29055 0.56994 0.0
C534 C 0.79084 0.26221 0.65968 0.0
C535 C 0.78536 0.2715 0.68237 0.0
C536 C 0.77466 0.29541 0.68574 0.0
C537 C 0.76891 0.30972 0.66666 0.0
C538 C 0.7745 0.30005 0.64443 0.0
C539 C 0.78564 0.27705 0.64094 0.0
C540 C 0.79169 0.27195 0.61571 0.0
C541 C 0.82092 0.27067 0.61423 0.0
C542 C 0.77633 0.24732 0.60391 0.0
C543 C 0.78224 0.29565 0.60555 0.0
C544 C 0.77191 0.31138 0.62226 0.0
C545 C 0.76157 0.33418 0.61684 0.0
C546 C 0.76225 0.34129 0.59384 0.0
C547 C 0.77371 0.32593 0.57675 0.0
C548 C 0.78361 0.30275 0.58272 0.0
H549 H 0.51993 0.94483 0.60745 0.0
H550 H 0.55506 0.01794 0.59055 0.0
H551 H 0.58384 0.02111 0.62736 0.0
H552 H 0.51986 0.96112 0.66826 0.0
H553 H 0.52732 0.92991 0.6765 0.0
H554 H 0.51043 0.93284 0.64831 0.0
H555 H 0.54558 0.90939 0.62774 0.0
H556 H 0.56258 0.90632 0.6559 0.0
H557 H 0.57902 0.92153 0.63371 0.0
H558 H 0.60727 0.01719 0.66677 0.0
H559 H 0.62372 0.00658 0.70603 0.0
H560 H 0.57386 0.93547 0.69658 0.0
C561 C 0.53398 0.9613 0.61127 0.0
C562 C 0.53528 0.98114 0.59614 0.0
C563 C 0.55355 0.00265 0.60203 0.0
C564 C 0.57009 0.00452 0.62279 0.0
C565 C 0.56817 0.98468 0.63738 0.0
C566 C 0.55063 0.96345 0.63185 0.0
C567 C 0.55183 0.9452 0.65089 0.0
C568 C 0.52582 0.9421 0.66162 0.0
C569 C 0.56026 0.91907 0.64149 0.0
C570 C 0.57255 0.95966 0.66816 0.0
C571 C 0.5818 0.98233 0.66 0.0
C572 C 0.60034 0.99939 0.67327 0.0
C573 C 0.60952 0.9932 0.69557 0.0
C574 C 0.60014 0.97014 0.70436 0.0
C575 C 0.5816 0.95311 0.69029 0.0
H576 H 0.85162 0.24969 0.77048 0.0
H577 H 0.85693 0.16711 0.76267 0.0
H578 H 0.89721 0.1723 0.78882 0.0
H579 H 0.92097 0.26642 0.77027 0.0
H580 H 0.92116 0.29395 0.79142 0.0
H581 H 0.89251 0.28378 0.77205 0.0
H582 H 0.86598 0.28056 0.80802 0.0
H583 H 0.89461 0.29045 0.82751 0.0
H584 H 0.87608 0.26067 0.83065 0.0
H585 H 0.9357 0.18585 0.8173 0.0
H586 H 0.97267 0.20771 0.84312 0.0
H587 H 0.94413 0.28159 0.83081 0.0
C588 C 0.86141 0.23275 0.77405 0.0
C589 C 0.85073 0.20795 0.76487 0.0
C590 C 0.86425 0.18627 0.77 0.0
C591 C 0.88727 0.18899 0.78475 0.0
C592 C 0.89687 0.21356 0.79401 0.0
C593 C 0.88467 0.23512 0.78861 0.0
C594 C 0.8995 0.25935 0.80066 0.0
C595 C 0.90911 0.27691 0.78252 0.0
C596 C 0.88306 0.27359 0.81772 0.0
C597 C 0.92176 0.24794 0.81373 0.0
C598 C 0.91974 0.22148 0.8098 0.0
C599 C 0.93765 0.2066 0.82039 0.0
C600 C 0.9585 0.21916 0.83512 0.0
C601 C 0.96135 0.24632 0.8389 0.0
C602 C 0.94259 0.26079 0.82813 0.0
H603 H 0.4949 0.90695 0.48456 0.0
H604 H 0.50127 0.85777 0.54147 0.0
H605 H 0.5099 0.82159 0.51336 0.0
H606 H 0.46326 0.85864 0.44052 0.0
H607 H 0.48034 0.87062 0.41715 0.0
H608 H 0.47409 0.89227 0.44172 0.0
H609 H 0.52307 0.90642 0.44933 0.0
H610 H 0.52949 0.88468 0.42488 0.0
H611 H 0.54569 0.88247 0.45356 0.0
H612 H 0.51845 0.7911 0.4791 0.0
H613 H 0.52542 0.76814 0.44108 0.0
H614 H 0.51387 0.83765 0.40679 0.0
C615 C 0.49792 0.88853 0.4911 0.0
C616 C 0.49734 0.88502 0.51516 0.0
C617 C 0.50156 0.86071 0.52305 0.0
C618 C 0.50651 0.84012 0.50725 0.0
C619 C 0.5072 0.84425 0.48365 0.0
C620 C 0.50294 0.86782 0.47559 0.0
C621 C 0.50499 0.86727 0.44942 0.0
C622 C 0.47913 0.8725 0.43644 0.0
C623 C 0.52713 0.88634 0.44399 0.0
C624 C 0.51111 0.83972 0.44402 0.0
C625 C 0.51229 0.82676 0.46399 0.0
C626 C 0.51757 0.80105 0.46334 0.0
C627 C 0.52154 0.78819 0.44166 0.0
C628 C 0.52025 0.80107 0.42092 0.0
C629 C 0.5151 0.82724 0.42228 0.0
H630 H 0.16088 0.31726 0.75712 0.0
H631 H 0.192 0.24303 0.75937 0.0
H632 H 0.16601 0.23386 0.79244 0.0
H633 H 0.15928 0.33118 0.81983 0.0
H634 H 0.12953 0.34653 0.81668 0.0
H635 H 0.15131 0.34723 0.79396 0.0
H636 H 0.11441 0.32695 0.76324 0.0
H637 H 0.09251 0.32636 0.78581 0.0
H638 H 0.09703 0.29713 0.76825 0.0
H639 H 0.13471 0.2328 0.82491 0.0
H640 H 0.10054 0.23921 0.85188 0.0
H641 H 0.09129 0.31447 0.82767 0.0
C642 C 0.1623 0.29909 0.76463 0.0
C643 C 0.17837 0.28085 0.75573 0.0
C644 C 0.17975 0.25728 0.76595 0.0
C645 C 0.16512 0.25196 0.78477 0.0
C646 C 0.1494 0.27049 0.79317 0.0
C647 C 0.14798 0.29358 0.78333 0.0
C648 C 0.12921 0.31009 0.79485 0.0
C649 C 0.14317 0.33524 0.80706 0.0
C650 C 0.10697 0.31543 0.77698 0.0
C651 C 0.11987 0.29261 0.81253 0.0
C652 C 0.13179 0.26991 0.81154 0.0
C653 C 0.12542 0.2506 0.82588 0.0
C654 C 0.10605 0.25443 0.84122 0.0
C655 C 0.0932 0.27735 0.84197 0.0
C656 C 0.10071 0.29674 0.82767 0.0
H657 H 0.544 0.60984 0.49858 0.0
H658 H 0.61746 0.58175 0.48307 0.0
H659 H 0.61661 0.60468 0.44732 0.0
H660 H 0.5154 0.60814 0.43814 0.0
H661 H 0.5004 0.6378 0.44295 0.0
H662 H 0.50571 0.61794 0.46673 0.0
H663 H 0.53127 0.65648 0.49196 0.0
H664 H 0.52597 0.67645 0.46828 0.0
H665 H 0.55841 0.67308 0.48058 0.0
H666 H 0.60826 0.63022 0.41354 0.0
H667 H 0.5947 0.66009 0.38498 0.0
H668 H 0.52763 0.67436 0.42272 0.0
C669 C 0.55973 0.6084 0.4875 0.0
C670 C 0.58073 0.59384 0.49339 0.0
C671 C 0.6012 0.59275 0.47876 0.0
C672 C 0.60084 0.60563 0.45839 0.0
C673 C 0.58 0.61984 0.453 0.0
C674 C 0.55992 0.62161 0.46718 0.0
C675 C 0.54066 0.6395 0.45783 0.0
C676 C 0.51396 0.62497 0.451 0.0
C677 C 0.53899 0.66276 0.47573 0.0
C678 C 0.55315 0.64745 0.43629 0.0
C679 C 0.57565 0.63557 0.43376 0.0
C680 C 0.59069 0.63969 0.41532 0.0
C681 C 0.58276 0.65669 0.39913 0.0
C682 C 0.56011 0.66966 0.40155 0.0
C683 C 0.54504 0.66477 0.42036 0.0
H684 H 0.88827 0.82458 0.75016 0.0
H685 H 0.94509 0.78837 0.79299 0.0
H686 H 0.97319 0.78685 0.76026 0.0
H687 H 0.89556 0.78802 0.69618 0.0
H688 H 0.89122 0.81448 0.67855 0.0
H689 H 0.87622 0.81341 0.7056 0.0
H690 H 0.89865 0.85843 0.72035 0.0
H691 H 0.91379 0.85962 0.69337 0.0
H692 H 0.93331 0.8638 0.7211 0.0
H693 H 0.99459 0.78879 0.72253 0.0
H694 H 0.00719 0.79264 0.68244 0.0
H695 H 0.93595 0.82742 0.66444 0.0
C696 C 0.90668 0.81645 0.75276 0.0
C697 C 0.91464 0.80667 0.77416 0.0
C698 C 0.93874 0.796 0.77672 0.0
C699 C 0.9548 0.79511 0.75827 0.0
C700 C 0.94639 0.80496 0.7374 0.0
C701 C 0.92286 0.81536 0.73455 0.0
C702 C 0.91798 0.82402 0.71019 0.0
C703 C 0.89382 0.80909 0.69685 0.0
C704 C 0.91581 0.8532 0.71133 0.0
C705 C 0.9424 0.81677 0.6997 0.0
C706 C 0.9586 0.80592 0.7157 0.0
C707 C 0.98209 0.79733 0.70988 0.0
C708 C 0.98909 0.79964 0.68705 0.0
C709 C 0.9726 0.81039 0.67024 0.0
C710 C 0.94906 0.81924 0.67685 0.0
H711 H 0.04719 0.95061 0.49334 0.0
H712 H 0.12806 0.94911 0.51812 0.0
H713 H 0.11595 0.91982 0.54751 0.0
H714 H 0.02166 0.94786 0.55094 0.0
H715 H 0.99343 0.92716 0.53936 0.0
H716 H 0.00815 0.94941 0.52118 0.0
H717 H 0.01271 0.91187 0.48977 0.0
H718 H 0.99802 0.88953 0.50784 0.0
H719 H 0.0294 0.88466 0.49806 0.0
H720 H 0.09583 0.88893 0.57235 0.0
H721 H 0.06868 0.85801 0.59154 0.0
H722 H 1.00039 0.87924 0.55135 0.0
C723 C 0.06227 0.94434 0.50516 0.0
C724 C 0.0886 0.95215 0.50357 0.0
C725 C 0.1078 0.94335 0.51914 0.0
C726 C 0.10111 0.92677 0.5359 0.0
C727 C 0.07509 0.91919 0.53693 0.0
C728 C 0.05591 0.92767 0.52207 0.0
C729 C 0.02951 0.91561 0.52635 0.0
C730 C 0.01216 0.93624 0.53497 0.0
C731 C 0.01666 0.89946 0.50419 0.0
C732 C 0.03696 0.89875 0.54563 0.0
C733 C 0.06335 0.90127 0.5515 0.0
C734 C 0.0751 0.88695 0.56808 0.0
C735 C 0.0595 0.86937 0.57885 0.0
C736 C 0.03239 0.86625 0.57305 0.0
C737 C 0.021 0.88141 0.55638 0.0
H738 H 0.15755 0.697 0.7105 0.0
H739 H 0.2051 0.76929 0.71743 0.0
H740 H 0.17526 0.78605 0.68775 0.0
H741 H 0.1361 0.69561 0.64719 0.0
H742 H 0.10376 0.68285 0.65098 0.0
H743 H 0.13063 0.67519 0.6703 0.0
H744 H 0.10814 0.69248 0.70628 0.0
H745 H 0.08126 0.70019 0.6871 0.0
H746 H 0.09833 0.7248 0.7078 0.0
H747 H 0.13931 0.79589 0.65944 0.0
H748 H 0.09791 0.79965 0.63644 0.0
H749 H 0.07192 0.72181 0.64937 0.0
C750 C 0.16188 0.71613 0.70532 0.0
C751 C 0.18364 0.73184 0.71597 0.0
C752 C 0.1885 0.75701 0.70936 0.0
C753 C 0.17176 0.76661 0.69245 0.0
C754 C 0.15016 0.75085 0.68253 0.0
C755 C 0.14504 0.72621 0.68879 0.0
C756 C 0.11915 0.71427 0.67722 0.0
C757 C 0.12263 0.69058 0.66042 0.0
C758 C 0.10063 0.70755 0.69571 0.0
C759 C 0.11032 0.73624 0.66386 0.0
C760 C 0.12875 0.75694 0.66683 0.0
C761 C 0.12478 0.77977 0.65685 0.0
C762 C 0.10116 0.78169 0.6438 0.0
C763 C 0.0816 0.76103 0.6411 0.0
C764 C 0.08649 0.7379 0.65102 0.0
H765 H 0.9854 0.62213 0.5146 0.0
H766 H 0.90389 0.62206 0.49155 0.0
H767 H 0.90384 0.66647 0.50988 0.0
H768 H 0.98255 0.65731 0.57062 0.0
H769 H 0.01356 0.67504 0.57049 0.0
H770 H 0.00747 0.64355 0.5549 0.0
H771 H 0.01992 0.66214 0.51663 0.0
H772 H 0.02605 0.69371 0.53211 0.0
H773 H 0.00353 0.68863 0.5062 0.0
H774 H 0.91251 0.71055 0.53041 0.0
H775 H 0.92875 0.75122 0.55345 0.0
H776 H 0.0046 0.72265 0.56427 0.0
C777 C 0.96762 0.63159 0.51329 0.0
C778 C 0.94463 0.61875 0.50168 0.0
C779 C 0.92164 0.63154 0.50055 0.0
C780 C 0.92146 0.65677 0.51079 0.0
C781 C 0.94441 0.66887 0.52218 0.0
C782 C 0.96704 0.65672 0.52363 0.0
C783 C 0.98881 0.67386 0.53754 0.0
C784 C 0.99867 0.66171 0.5597 0.0
C785 C 0.01088 0.67995 0.5222 0.0
C786 C 0.97484 0.69752 0.54369 0.0
C787 C 0.9493 0.69424 0.53449 0.0
C788 C 0.93247 0.71336 0.53772 0.0
C789 C 0.94192 0.73643 0.55083 0.0
C790 C 0.96796 0.74018 0.56072 0.0
C791 C 0.9846 0.7204 0.55699 0.0
H792 H 0.78836 0.81614 0.23067 0.0
H793 H 0.7816 0.81987 0.1552 0.0
H794 H 0.80892 0.86102 0.1605 0.0
H795 H 0.78255 0.88222 0.24559 0.0
H796 H 0.80508 0.88438 0.27144 0.0
H797 H 0.78688 0.85432 0.26136 0.0
H798 H 0.8295 0.83198 0.25954 0.0
H799 H 0.84785 0.86201 0.26959 0.0
H800 H 0.85426 0.84459 0.24254 0.0
H801 H 0.83562 0.90337 0.17463 0.0
H802 H 0.85818 0.94286 0.19633 0.0
H803 H 0.84554 0.91106 0.26216 0.0
C804 C 0.79252 0.82556 0.2152 0.0
C805 C 0.78277 0.81467 0.1925 0.0
C806 C 0.78911 0.82758 0.17276 0.0
C807 C 0.80453 0.85105 0.1756 0.0
C808 C 0.8135 0.86137 0.19828 0.0
C809 C 0.80769 0.84897 0.21771 0.0
C810 C 0.81866 0.86444 0.24026 0.0
C811 C 0.797 0.87177 0.25555 0.0
C812 C 0.83876 0.84989 0.25377 0.0
C813 C 0.83126 0.88772 0.23055 0.0
C814 C 0.82835 0.8856 0.20632 0.0
C815 C 0.83809 0.90515 0.19362 0.0
C816 C 0.85089 0.92749 0.20607 0.0
C817 C 0.8536 0.93013 0.23094 0.0
C818 C 0.8438 0.90976 0.24316 0.0
H819 H 0.79948 0.17553 0.2613 0.0
H820 H 0.75442 0.15609 0.31845 0.0
H821 H 0.77252 0.11401 0.31813 0.0
H822 H 0.79404 0.11116 0.23029 0.0
H823 H 0.82671 0.11352 0.22208 0.0
H824 H 0.80972 0.14206 0.22602 0.0
H825 H 0.84671 0.16272 0.25633 0.0
H826 H 0.86381 0.13426 0.25249 0.0
H827 H 0.85633 0.14596 0.28136 0.0
H828 H 0.79524 0.07497 0.31253 0.0
H829 H 0.82256 0.04039 0.30282 0.0
H830 H 0.85446 0.08364 0.2491 0.0
C831 C 0.79332 0.16227 0.27358 0.0
C832 C 0.77561 0.16913 0.29001 0.0
C833 C 0.76818 0.1514 0.30595 0.0
C834 C 0.77824 0.12738 0.30581 0.0
C835 C 0.79576 0.1213 0.28961 0.0
C836 C 0.80337 0.13812 0.2738 0.0
C837 C 0.82318 0.12674 0.25878 0.0
C838 C 0.81279 0.12316 0.23274 0.0
C839 C 0.84904 0.14341 0.26247 0.0
C840 C 0.82552 0.10097 0.26878 0.0
C841 C 0.80933 0.09839 0.28645 0.0
C842 C 0.80799 0.07672 0.29872 0.0
C843 C 0.82374 0.05714 0.29302 0.0
C844 C 0.84086 0.05915 0.27518 0.0
C845 C 0.84157 0.0814 0.26275 0.0
H846 H 0.42507 0.99192 0.99022 0.0
H847 H 0.38024 0.05826 0.99524 0.0
H848 H 0.34268 0.03057 0.00514 0.0
H849 H 0.37502 0.94749 0.96291 0.0
H850 H 0.38523 0.92103 0.97847 0.0
H851 H 0.40858 0.94646 0.97314 0.0
H852 H 0.42271 0.95424 0.01776 0.0
H853 H 0.39939 0.92878 0.02323 0.0
H854 H 0.39882 0.96049 0.038 0.0
H855 H 0.30908 0.99428 0.01178 0.0
H856 H 0.28339 0.95344 0.01612 0.0
H857 H 0.35151 0.91202 0.00735 0.0
C858 C 0.40735 0.00065 0.99344 0.0
C859 C 0.40542 0.02715 0.99183 0.0
C860 C 0.38208 0.03797 0.9965 0.0
C861 C 0.36068 0.02239 0.00206 0.0
C862 C 0.36314 0.99617 0.00313 0.0
C863 C 0.38602 0.98549 0.99914 0.0
C864 C 0.38378 0.95683 1.00089 0.0
C865 C 0.38841 0.9421 0.97746 0.0
C866 C 0.40227 0.94968 0.02118 0.0
C867 C 0.35591 0.95285 0.00611 0.0
C868 C 0.34422 0.97567 0.00737 0.0
C869 C 0.31814 0.97635 0.01108 0.0
C870 C 0.3037 0.95308 0.01348 0.0
C871 C 0.31544 0.92953 0.01223 0.0
C872 C 0.34194 0.92966 0.00867 0.0
H873 H 0.25957 0.34515 0.32524 0.0
H874 H 0.3194 0.40025 0.30728 0.0
H875 H 0.28604 0.4292 0.29579 0.0
H876 H 0.21369 0.35359 0.27762 0.0
H877 H 0.18604 0.34997 0.29426 0.0
H878 H 0.21468 0.33431 0.30216 0.0
H879 H 0.21714 0.35665 0.34445 0.0
H880 H 0.18842 0.37231 0.33671 0.0
H881 H 0.21763 0.39118 0.3488 0.0
H882 H 0.2461 0.45175 0.28597 0.0
H883 H 0.20247 0.46588 0.27735 0.0
H884 H 0.16874 0.39527 0.30083 0.0
C885 C 0.26565 0.36349 0.31922 0.0
C886 C 0.29202 0.37064 0.31731 0.0
C887 C 0.29926 0.39449 0.30883 0.0
C888 C 0.28049 0.41103 0.30236 0.0
C889 C 0.25462 0.40331 0.30432 0.0
C890 C 0.24719 0.38007 0.31248 0.0
C891 C 0.21808 0.37586 0.31207 0.0
C892 C 0.20751 0.35202 0.29554 0.0
C893 C 0.20984 0.37389 0.33699 0.0
C894 C 0.21024 0.40036 0.30238 0.0
C895 C 0.2316 0.41601 0.29816 0.0
C896 C 0.22923 0.43966 0.2892 0.0
C897 C 0.20435 0.44751 0.28438 0.0
C898 C 0.18215 0.43167 0.28836 0.0
C899 C 0.18528 0.40779 0.29751 0.0
H900 H 0.14786 0.05126 0.46947 0.0
H901 H 0.15166 0.01593 0.39882 0.0
H902 H 0.19626 0.03562 0.39892 0.0
H903 H 0.18303 0.11084 0.46181 0.0
H904 H 0.19965 0.11452 0.49089 0.0
H905 H 0.16827 0.09704 0.48563 0.0
H906 H 0.18688 0.05745 0.50282 0.0
H907 H 0.21832 0.07481 0.50815 0.0
H908 H 0.21439 0.0442 0.49079 0.0
H909 H 0.23984 0.05915 0.40637 0.0
H910 H 0.27982 0.08612 0.42017 0.0
H911 H 0.24813 0.10682 0.48615 0.0
C912 C 0.15821 0.04752 0.45413 0.0
C913 C 0.14636 0.03211 0.4341 0.0
C914 C 0.16033 0.02789 0.41422 0.0
C915 C 0.18568 0.03885 0.41418 0.0
C916 C 0.19677 0.05402 0.43414 0.0
C917 C 0.18353 0.05844 0.45374 0.0
C918 C 0.19979 0.07607 0.47263 0.0
C919 C 0.18692 0.1011 0.47805 0.0
C920 C 0.20516 0.0623 0.49492 0.0
C921 C 0.22419 0.08094 0.46051 0.0
C922 C 0.22201 0.06789 0.43838 0.0
C923 C 0.24183 0.06944 0.42367 0.0
C924 C 0.26449 0.08485 0.43172 0.0
C925 C 0.26719 0.09865 0.45427 0.0
C926 C 0.24672 0.09651 0.46886 0.0
H927 H 0.73227 0.16749 0.73564 0.0
H928 H 0.80295 0.12985 0.74842 0.0
H929 H 0.7776 0.09137 0.7581 0.0
H930 H 0.69841 0.14241 0.78065 0.0
H931 H 0.66737 0.13723 0.76377 0.0
H932 H 0.69071 0.16212 0.7572 0.0
H933 H 0.68833 0.14235 0.71407 0.0
H934 H 0.6647 0.1176 0.72042 0.0
H935 H 0.69384 0.10897 0.70803 0.0
H936 H 0.74583 0.05864 0.76947 0.0
H937 H 0.70823 0.0301 0.77652 0.0
H938 H 0.65695 0.08655 0.75361 0.0
C939 C 0.74235 0.151 0.74009 0.0
C940 C 0.76968 0.15196 0.74178 0.0
C941 C 0.78211 0.12991 0.74768 0.0
C942 C 0.76789 0.10788 0.7531 0.0
C943 C 0.74115 0.10789 0.7521 0.0
C944 C 0.72836 0.12855 0.74526 0.0
C945 C 0.69932 0.12307 0.74534 0.0
C946 C 0.68831 0.14236 0.76278 0.0
C947 C 0.68575 0.12299 0.72048 0.0
C948 C 0.69798 0.0963 0.75363 0.0
C949 C 0.72243 0.08814 0.75761 0.0
C950 C 0.72652 0.06461 0.76615 0.0
C951 C 0.70499 0.04862 0.77026 0.0
C952 C 0.67961 0.05604 0.76555 0.0
C953 C 0.67611 0.08031 0.75726 0.0
H954 H 0.43619 0.00663 0.54396 0.0
H955 H 0.51164 0.04488 0.53766 0.0
H956 H 0.49104 0.08347 0.52583 0.0
H957 H 0.40266 0.03026 0.4955 0.0
H958 H 0.37336 0.03436 0.50949 0.0
H959 H 0.39424 0.01041 0.5183 0.0
H960 H 0.39719 0.03064 0.56135 0.0
H961 H 0.37642 0.05479 0.55262 0.0
H962 H 0.40777 0.06424 0.56801 0.0
H963 H 0.46199 0.11566 0.51071 0.0
H964 H 0.42646 0.14032 0.49544 0.0
H965 H 0.37018 0.08285 0.51511 0.0
C966 C 0.44827 0.02324 0.54017 0.0
C967 C 0.47539 0.02296 0.5415 0.0
C968 C 0.49079 0.04494 0.53667 0.0
C969 C 0.47928 0.06685 0.53001 0.0
C970 C 0.45242 0.06656 0.52879 0.0
C971 C 0.43712 0.04545 0.534 0.0
C972 C 0.40872 0.04996 0.53107 0.0
C973 C 0.39388 0.03007 0.51248 0.0
C974 C 0.39683 0.04991 0.55467 0.0
C975 C 0.41037 0.07659 0.52268 0.0
C976 C 0.43576 0.08583 0.52146 0.0
C977 C 0.44207 0.10896 0.51214 0.0
C978 C 0.42188 0.12283 0.50357 0.0
C979 C 0.39586 0.1137 0.50483 0.0
C980 C 0.39003 0.09056 0.5148 0.0
H981 H 0.61396 0.4897 0.57623 0.0
H982 H 0.57631 0.48075 0.50541 0.0
H983 H 0.6065 0.44872 0.49388 0.0
H984 H 0.67753 0.48751 0.5597 0.0
H985 H 0.68915 0.47012 0.58367 0.0
H986 H 0.66296 0.49024 0.58709 0.0
H987 H 0.63424 0.4516 0.59858 0.0
H988 H 0.66041 0.43136 0.59531 0.0
H989 H 0.62937 0.42236 0.57919 0.0
H990 H 0.64216 0.41957 0.48944 0.0
H991 H 0.68137 0.39596 0.49212 0.0
H992 H 0.69699 0.42468 0.56558 0.0
C993 C 0.6118 0.48052 0.55846 0.0
C994 C 0.5927 0.48742 0.54172 0.0
C995 C 0.59078 0.47557 0.51846 0.0
C996 C 0.60779 0.45736 0.51179 0.0
C997 C 0.62674 0.45127 0.52855 0.0
C998 C 0.62888 0.46248 0.55142 0.0
C999 C 0.65206 0.45381 0.56554 0.0
C1000 C 0.67157 0.47679 0.57452 0.0
C1001 C 0.6435 0.43889 0.58585 0.0
C1002 C 0.66276 0.43626 0.54698 0.0
C1003 C 0.64771 0.43488 0.52584 0.0
C1004 C 0.65401 0.42038 0.50595 0.0
C1005 C 0.67637 0.40703 0.50764 0.0
C1006 C 0.69233 0.4084 0.52904 0.0
C1007 C 0.68521 0.42313 0.54896 0.0
H1008 H 0.78752 0.24153 0.3528 0.0
H1009 H 0.70905 0.25463 0.32785 0.0
H1010 H 0.70386 0.27864 0.3658 0.0
H1011 H 0.77457 0.23246 0.41287 0.0
H1012 H 0.80504 0.24871 0.42528 0.0
H1013 H 0.80241 0.23213 0.39625 0.0
H1014 H 0.81953 0.27392 0.37959 0.0
H1015 H 0.82223 0.29061 0.40854 0.0
H1016 H 0.80339 0.30283 0.38481 0.0
H1017 H 0.70752 0.3022 0.40637 0.0
H1018 H 0.72011 0.32379 0.44615 0.0
H1019 H 0.79582 0.29456 0.44473 0.0
C1020 C 0.76916 0.24922 0.35539 0.0
C1021 C 0.74876 0.2463 0.33724 0.0
C1022 C 0.72513 0.25696 0.34131 0.0
C1023 C 0.72191 0.27047 0.36289 0.0
C1024 C 0.74244 0.27313 0.38034 0.0
C1025 C 0.7656 0.26278 0.37685 0.0
C1026 C 0.78481 0.26883 0.3983 0.0
C1027 C 0.79213 0.24406 0.4088 0.0
C1028 C 0.80891 0.28501 0.39245 0.0
C1029 C 0.76889 0.28433 0.41432 0.0
C1030 C 0.74448 0.28653 0.40369 0.0
C1031 C 0.72656 0.30049 0.41492 0.0
C1032 C 0.73388 0.31269 0.43753 0.0
C1033 C 0.75891 0.31086 0.44868 0.0
C1034 C 0.77646 0.29626 0.43685 0.0
H1035 H 0.53777 0.0622 0.90604 0.0
H1036 H 0.48039 0.9987 0.91077 0.0
H1037 H 0.49925 0.97315 0.87962 0.0
H1038 H 0.53926 0.05355 0.84291 0.0
H1039 H 0.57361 0.06161 0.84382 0.0
H1040 H 0.5556 0.07525 0.86655 0.0
H1041 H 0.58623 0.05749 0.89808 0.0
H1042 H 0.60431 0.04378 0.87544 0.0
H1043 H 0.5908 0.02364 0.89602 0.0
H1044 H 0.52416 0.95417 0.84858 0.0
H1045 H 0.55359 0.94282 0.81878 0.0
H1046 H 0.59518 0.0184 0.83338 0.0
C1047 C 0.5292 0.04293 0.90043 0.0
C1048 C 0.50764 0.03247 0.91082 0.0
C1049 C 0.4969 0.00719 0.90311 0.0
C1050 C 0.50747 0.99247 0.88539 0.0
C1051 C 0.52875 0.00329 0.87555 0.0
C1052 C 0.53952 0.02793 0.88269 0.0
C1053 C 0.56242 0.0348 0.86912 0.0
C1054 C 0.55741 0.05766 0.85475 0.0
C1055 C 0.58742 0.04024 0.88566 0.0
C1056 C 0.56281 0.01013 0.85333 0.0
C1057 C 0.5432 0.99227 0.85739 0.0
C1058 C 0.53959 0.96799 0.84518 0.0
C1059 C 0.55647 0.96174 0.82828 0.0
C1060 C 0.57675 0.9797 0.82369 0.0
C1061 C 0.57988 0.00424 0.83644 0.0
H1062 H 0.36632 0.29731 0.3733 0.0
H1063 H 0.28503 0.31152 0.37287 0.0
H1064 H 0.28144 0.287 0.40698 0.0
H1065 H 0.35464 0.2325 0.38096 0.0
H1066 H 0.38464 0.2303 0.39851 0.0
H1067 H 0.3826 0.25389 0.37763 0.0
H1068 H 0.39833 0.28983 0.41079 0.0
H1069 H 0.4001 0.26628 0.43186 0.0
H1070 H 0.38099 0.2932 0.43659 0.0
H1071 H 0.28524 0.25784 0.43926 0.0
H1072 H 0.29413 0.22089 0.46194 0.0
H1073 H 0.37043 0.2206 0.43725 0.0
C1074 C 0.34767 0.29549 0.38021 0.0
C1075 C 0.32618 0.30714 0.37026 0.0
C1076 C 0.30229 0.30397 0.38039 0.0
C1077 C 0.29992 0.28983 0.39985 0.0
C1078 C 0.32139 0.27842 0.40888 0.0
C1079 C 0.34468 0.28069 0.39909 0.0
C1080 C 0.36358 0.2633 0.40957 0.0
C1081 C 0.37183 0.24385 0.39054 0.0
C1082 C 0.38714 0.2791 0.423 0.0
C1083 C 0.34695 0.25027 0.42621 0.0
C1084 C 0.32301 0.25996 0.42622 0.0
C1085 C 0.30399 0.25023 0.43955 0.0
C1086 C 0.30924 0.22938 0.45247 0.0
C1087 C 0.33297 0.21812 0.45134 0.0
C1088 C 0.35224 0.22912 0.43854 0.0
H1089 H 0.51582 0.47283 0.89495 0.0
H1090 H 0.57165 0.53548 0.88334 0.0
H1091 H 0.54506 0.54342 0.84781 0.0
H1092 H 0.49541 0.45069 0.8348 0.0
H1093 H 0.46178 0.4455 0.83971 0.0
H1094 H 0.48645 0.44264 0.86308 0.0
H1095 H 0.46613 0.47637 0.88995 0.0
H1096 H 0.44126 0.47911 0.86676 0.0
H1097 H 0.46087 0.50737 0.87987 0.0
H1098 H 0.51254 0.54453 0.813 0.0
H1099 H 0.47328 0.54301 0.78521 0.0
H1100 H 0.43629 0.48392 0.82245 0.0
C1101 C 0.52254 0.48839 0.88519 0.0
C1102 C 0.54645 0.50298 0.89196 0.0
C1103 C 0.55413 0.52312 0.87829 0.0
C1104 C 0.539 0.52802 0.85805 0.0
C1105 C 0.51582 0.51309 0.85186 0.0
C1106 C 0.50733 0.49406 0.8653 0.0
C1107 C 0.4806 0.48229 0.8559 0.0
C1108 C 0.48111 0.45357 0.8479 0.0
C1109 C 0.46106 0.48655 0.87421 0.0
C1110 C 0.47538 0.49779 0.83518 0.0
C1111 C 0.49618 0.51505 0.83282 0.0
C1112 C 0.49606 0.5312 0.81474 0.0
C1113 C 0.47379 0.53012 0.79898 0.0
C1114 C 0.45184 0.51345 0.80181 0.0
C1115 C 0.45281 0.49692 0.81999 0.0
H1116 H 0.76268 0.75399 0.12242 0.0
H1117 H 0.74653 0.69673 0.17079 0.0
H1118 H 0.75297 0.6624 0.14032 0.0
H1119 H 0.73265 0.71703 0.06947 0.0
H1120 H 0.7571 0.72813 0.05143 0.0
H1121 H 0.74977 0.74831 0.0766 0.0
H1122 H 0.79792 0.75178 0.09299 0.0
H1123 H 0.80541 0.73164 0.06787 0.0
H1124 H 0.81374 0.72285 0.09706 0.0
H1125 H 0.76257 0.63423 0.10523 0.0
H1126 H 0.77522 0.61415 0.06798 0.0
H1127 H 0.78653 0.68953 0.04255 0.0
C1128 C 0.76051 0.73425 0.12665 0.0
C1129 C 0.75382 0.72817 0.14904 0.0
C1130 C 0.75104 0.70199 0.15368 0.0
C1131 C 0.75485 0.68229 0.13652 0.0
C1132 C 0.76152 0.68899 0.11475 0.0
C1133 C 0.76437 0.71431 0.10974 0.0
C1134 C 0.77244 0.71627 0.08515 0.0
C1135 C 0.75175 0.72814 0.06975 0.0
C1136 C 0.79895 0.73154 0.08582 0.0
C1137 C 0.77393 0.6881 0.07723 0.0
C1138 C 0.7674 0.67271 0.09454 0.0
C1139 C 0.76765 0.64607 0.09151 0.0
C1140 C 0.77488 0.63484 0.07025 0.0
C1141 C 0.78189 0.65021 0.05228 0.0
C1142 C 0.78124 0.67721 0.05588 0.0
H1143 H 0.032 0.06553 0.11761 0.0
H1144 H 0.99872 0.99702 0.07465 0.0
H1145 H 0.96668 0.98974 0.10332 0.0
H1146 H 0.02658 0.03903 0.17272 0.0
H1147 H 0.01917 0.06861 0.18814 0.0
H1148 H 0.03831 0.06947 0.1635 0.0
H1149 H 0.006 0.0977 0.14328 0.0
H1150 H 0.98672 0.09686 0.16785 0.0
H1151 H 0.9722 0.08654 0.13861 0.0
H1152 H 0.93836 0.98981 0.13652 0.0
H1153 H 0.91794 0.99487 0.17362 0.0
H1154 H 0.97093 0.06203 0.19669 0.0
C1155 C 0.01777 0.04917 0.11422 0.0
C1156 C 0.01763 0.03189 0.09386 0.0
C1157 C 0.99908 0.01043 0.09014 0.0
C1158 C 0.98077 0.00622 0.10627 0.0
C1159 C 0.98143 0.02351 0.12622 0.0
C1160 C 0.9996 0.04441 0.13041 0.0
C1161 C 0.99697 0.05913 0.15395 0.0
C1162 C 0.02173 0.05904 0.17056 0.0
C1163 C 0.99006 0.08669 0.15072 0.0
C1164 C 0.97456 0.04319 0.16233 0.0
C1165 C 0.9657 0.02295 0.14588 0.0
C1166 C 0.94516 0.00557 0.14954 0.0
C1167 C 0.93362 0.00867 0.1707 0.0
C1168 C 0.94278 0.02883 0.18819 0.0
C1169 C 0.96344 0.04641 0.18374 0.0
H1170 H 0.28917 0.74519 0.15258 0.0
H1171 H 0.272 0.80592 0.20355 0.0
H1172 H 0.26089 0.83295 0.1713 0.0
H1173 H 0.32065 0.787 0.11606 0.0
H1174 H 0.30918 0.7677 0.08916 0.0
H1175 H 0.31359 0.75278 0.11613 0.0
H1176 H 0.26591 0.73351 0.11005 0.0
H1177 H 0.26129 0.74859 0.08315 0.0
H1178 H 0.24039 0.75456 0.10612 0.0
H1179 H 0.25092 0.85284 0.13289 0.0
H1180 H 0.24948 0.86649 0.09251 0.0
H1181 H 0.27688 0.79385 0.06771 0.0
C1182 C 0.28284 0.76409 0.1569 0.0
C1183 C 0.28101 0.77346 0.18041 0.0
C1184 C 0.27334 0.79849 0.18554 0.0
C1185 C 0.26686 0.81384 0.16737 0.0
C1186 C 0.26864 0.80396 0.14426 0.0
C1187 C 0.27692 0.77983 0.13906 0.0
C1188 C 0.27925 0.77444 0.11306 0.0
C1189 C 0.30734 0.77025 0.10833 0.0
C1190 C 0.2606 0.75141 0.10248 0.0
C1191 C 0.27106 0.7993 0.10439 0.0
C1192 C 0.26447 0.81592 0.12252 0.0
C1193 C 0.25613 0.84001 0.11859 0.0
C1194 C 0.25521 0.84754 0.09563 0.0
C1195 C 0.26313 0.83123 0.07712 0.0
C1196 C 0.27078 0.80671 0.08159 0.0
H1197 H 0.97673 0.41812 0.12459 0.0
H1198 H 0.02086 0.47037 0.08543 0.0
H1199 H 0.05697 0.47384 0.11662 0.0
H1200 H 0.99412 0.45004 0.17952 0.0
H1201 H 0.99622 0.42175 0.19513 0.0
H1202 H 0.97523 0.42057 0.16846 0.0
H1203 H 0.99818 0.38241 0.15047 0.0
H1204 H 0.01918 0.38334 0.17721 0.0
H1205 H 0.03277 0.38561 0.14955 0.0
H1206 H 0.08574 0.47569 0.15362 0.0
H1207 H 0.10611 0.47512 0.19387 0.0
H1208 H 0.04395 0.42084 0.20906 0.0
C1209 C 0.99431 0.42968 0.12228 0.0
C1210 C 0.99608 0.44394 0.1026 0.0
C1211 C 0.01909 0.45942 0.10046 0.0
C1212 C 0.03973 0.46137 0.11799 0.0
C1213 C 0.03711 0.44757 0.13746 0.0
C1214 C 0.01509 0.43185 0.13965 0.0
C1215 C 0.01644 0.42066 0.16316 0.0
C1216 C 0.99419 0.42875 0.1774 0.0
C1217 C 0.01666 0.39126 0.1599 0.0
C1218 C 0.0423 0.43322 0.17414 0.0
C1219 C 0.05397 0.44846 0.1589 0.0
C1220 C 0.07704 0.46349 0.16558 0.0
C1221 C 0.08838 0.46312 0.18852 0.0
C1222 C 0.07669 0.44782 0.20454 0.0
C1223 C 0.05356 0.43237 0.19708 0.0
H1224 H 0.34526 0.73839 0.26262 0.0
H1225 H 0.3422 0.65502 0.25318 0.0
H1226 H 0.38382 0.65623 0.27723 0.0
H1227 H 0.41357 0.74867 0.25736 0.0
H1228 H 0.418 0.77624 0.27879 0.0
H1229 H 0.38736 0.76864 0.26166 0.0
H1230 H 0.36437 0.76762 0.29991 0.0
H1231 H 0.39496 0.77507 0.31715 0.0
H1232 H 0.37472 0.74679 0.32166 0.0
H1233 H 0.42596 0.66658 0.30294 0.0
H1234 H 0.46639 0.68564 0.32581 0.0
H1235 H 0.44272 0.76196 0.31604 0.0
C1236 C 0.35337 0.72036 0.26538 0.0
C1237 C 0.34012 0.69661 0.25618 0.0
C1238 C 0.35151 0.67349 0.26049 0.0
C1239 C 0.3753 0.67394 0.27402 0.0
C1240 C 0.38768 0.69767 0.28294 0.0
C1241 C 0.37723 0.72045 0.2786 0.0
C1242 C 0.39478 0.74343 0.28959 0.0
C1243 C 0.40397 0.76023 0.27073 0.0
C1244 C 0.3814 0.75914 0.30818 0.0
C1245 C 0.41674 0.73001 0.30076 0.0
C1246 C 0.41224 0.70361 0.29695 0.0
C1247 C 0.42975 0.68724 0.30594 0.0
C1248 C 0.4526 0.69821 0.31895 0.0
C1249 C 0.45779 0.72524 0.32258 0.0
C1250 C 0.43947 0.74121 0.31341 0.0
H1251 H 0.94991 0.33018 0.03117 0.0
H1252 H 0.95732 0.41183 0.0224 0.0
H1253 H 0.98714 0.40424 0.99234 0.0
H1254 H 0.01692 0.31636 0.01864 0.0
H1255 H 0.00593 0.28598 0.00237 0.0
H1256 H 0.9886 0.29812 0.02627 0.0
H1257 H 0.94638 0.29447 0.99843 0.0
H1258 H 0.96354 0.28232 0.97454 0.0
H1259 H 0.94584 0.31033 0.97176 0.0
H1260 H 0.01188 0.38777 0.96005 0.0
H1261 H 0.02798 0.36324 0.92656 0.0
H1262 H 0.00409 0.29186 0.95475 0.0
C1263 C 0.95837 0.34654 0.02334 0.0
C1264 C 0.95167 0.37165 0.02976 0.0
C1265 C 0.96252 0.39248 0.01858 0.0
C1266 C 0.97956 0.38835 1.00128 0.0
C1267 C 0.9855 0.36332 0.99519 0.0
C1268 C 0.9752 0.34271 0.00582 0.0
C1269 C 0.98239 0.31746 0.9942 0.0
C1270 C 0.99948 0.30367 0.0114 0.0
C1271 C 0.9581 0.30014 0.98413 0.0
C1272 C 0.99758 0.32709 0.97486 0.0
C1273 C 0.9995 0.35364 0.97606 0.0
C1274 C 0.01087 0.367 0.95913 0.0
C1275 C 0.01991 0.35288 0.94014 0.0
C1276 C 0.01744 0.32564 0.93811 0.0
C1277 C 0.00674 0.31265 0.95607 0.0
H1278 H 0.66715 0.77123 0.23884 0.0
H1279 H 0.72654 0.74605 0.28709 0.0
H1280 H 0.69448 0.73952 0.31595 0.0
H1281 H 0.63719 0.80767 0.28305 0.0
H1282 H 0.60485 0.80025 0.2691 0.0
H1283 H 0.63193 0.80092 0.25161 0.0
H1284 H 0.61769 0.75436 0.2338 0.0
H1285 H 0.59055 0.75354 0.25125 0.0
H1286 H 0.6132 0.72928 0.25304 0.0
H1287 H 0.65548 0.73485 0.33915 0.0
H1288 H 0.6138 0.73709 0.35673 0.0
H1289 H 0.58113 0.76923 0.2948 0.0
C1290 C 0.67325 0.76404 0.25538 0.0
C1291 C 0.69913 0.75868 0.26071 0.0
C1292 C 0.70668 0.75002 0.28272 0.0
C1293 C 0.68863 0.7462 0.29914 0.0
C1294 C 0.66321 0.75166 0.29343 0.0
C1295 C 0.65561 0.76076 0.27222 0.0
C1296 C 0.6276 0.76689 0.27108 0.0
C1297 C 0.62527 0.79564 0.26857 0.0
C1298 C 0.6113 0.75001 0.25111 0.0
C1299 C 0.62063 0.75975 0.2949 0.0
C1300 C 0.64128 0.75059 0.30738 0.0
C1301 C 0.63923 0.74218 0.32961 0.0
C1302 C 0.6155 0.74345 0.33943 0.0
C1303 C 0.59439 0.75356 0.32722 0.0
C1304 C 0.59706 0.76171 0.30466 0.0
H1305 H 0.04166 0.12538 0.01093 0.0
H1306 H 0.11452 0.09681 0.99412 0.0
H1307 H 0.11502 0.1228 0.96035 0.0
H1308 H 0.01422 0.129 0.9509 0.0
H1309 H 0.99992 0.15875 0.95747 0.0
H1310 H 0.00431 0.13691 0.97979 0.0
H1311 H 0.0304 0.17327 0.00736 0.0
H1312 H 0.02606 0.19522 0.98514 0.0
H1313 H 0.05815 0.19027 0.99732 0.0
H1314 H 0.10791 0.1511 0.92844 0.0
H1315 H 0.09531 0.18306 0.90158 0.0
H1316 H 0.02817 0.19617 0.93956 0.0
C1317 C 0.05756 0.12452 0.99999 0.0
C1318 C 0.07799 0.10891 0.00495 0.0
C1319 C 0.09869 0.10859 0.99053 0.0
C1320 C 0.09911 0.12322 0.97128 0.0
C1321 C 0.07882 0.13843 0.9668 0.0
C1322 C 0.05854 0.13949 0.9808 0.0
C1323 C 0.03994 0.15856 0.97255 0.0
C1324 C 0.013 0.14499 0.96471 0.0
C1325 C 0.03857 0.18064 0.99174 0.0
C1326 C 0.05299 0.16793 0.95178 0.0
C1327 C 0.07522 0.15577 0.94871 0.0
C1328 C 0.09057 0.16084 0.93068 0.0
C1329 C 0.08319 0.17902 0.91546 0.0
C1330 C 0.06079 0.19223 0.91843 0.0
C1331 C 0.04546 0.18648 0.93686 0.0
H1332 H 0.37726 0.31391 0.25257 0.0
H1333 H 0.43867 0.29881 0.30416 0.0
H1334 H 0.46785 0.29272 0.27256 0.0
H1335 H 0.39213 0.26718 0.20682 0.0
H1336 H 0.38393 0.28707 0.18365 0.0
H1337 H 0.36817 0.28995 0.21036 0.0
H1338 H 0.38255 0.33871 0.21603 0.0
H1339 H 0.39842 0.33598 0.18939 0.0
H1340 H 0.41636 0.34926 0.2165 0.0
H1341 H 0.49059 0.28974 0.23502 0.0
H1342 H 0.5043 0.28816 0.19472 0.0
H1343 H 0.42722 0.3044 0.16831 0.0
C1344 C 0.39683 0.3093 0.25727 0.0
C1345 C 0.40584 0.30696 0.28082 0.0
C1346 C 0.43149 0.30071 0.28618 0.0
C1347 C 0.44816 0.29726 0.26838 0.0
C1348 C 0.43874 0.29995 0.24533 0.0
C1349 C 0.41359 0.30564 0.23976 0.0
C1350 C 0.40806 0.30737 0.21368 0.0
C1351 C 0.38682 0.28665 0.203 0.0
C1352 C 0.40094 0.33444 0.20862 0.0
C1353 C 0.43408 0.30199 0.20542 0.0
C1354 C 0.45158 0.29781 0.22387 0.0
C1355 C 0.47699 0.29287 0.22043 0.0
C1356 C 0.48462 0.29208 0.19749 0.0
C1357 C 0.46684 0.29608 0.17833 0.0
C1358 C 0.44128 0.30111 0.18251 0.0
H1359 H 0.58924 0.42309 0.01695 0.0
H1360 H 0.51984 0.45969 0.99668 0.0
H1361 H 0.49583 0.43461 0.02351 0.0
H1362 H 0.55866 0.3612 0.01914 0.0
H1363 H 0.5789 0.35341 0.04415 0.0
H1364 H 0.59126 0.37591 0.02503 0.0
H1365 H 0.6024 0.4101 0.06052 0.0
H1366 H 0.59005 0.38767 0.07979 0.0
H1367 H 0.57748 0.41873 0.07894 0.0
H1368 H 0.47861 0.40344 0.05002 0.0
H1369 H 0.46903 0.368 0.07431 0.0
H1370 H 0.5496 0.35144 0.07789 0.0
C1371 C 0.56907 0.42606 0.01846 0.0
C1372 C 0.55639 0.44333 0.0048 0.0
C1373 C 0.52995 0.44656 0.00698 0.0
C1374 C 0.51617 0.43246 0.02224 0.0
C1375 C 0.52915 0.41532 0.03524 0.0
C1376 C 0.55502 0.41209 0.03358 0.0
C1377 C 0.56398 0.39137 0.04851 0.0
C1378 C 0.57377 0.36916 0.0333 0.0
C1379 C 0.5847 0.40265 0.06811 0.0
C1380 C 0.53895 0.38306 0.05843 0.0
C1381 C 0.51918 0.39729 0.05067 0.0
C1382 C 0.49398 0.39236 0.05642 0.0
C1383 C 0.48873 0.37212 0.07019 0.0
C1384 C 0.50858 0.35699 0.07811 0.0
C1385 C 0.5341 0.36287 0.07241 0.0
H1386 H 0.67264 0.1966 0.20699 0.0
H1387 H 0.71553 0.27117 0.22277 0.0
H1388 H 0.68224 0.29079 0.1985 0.0
H1389 H 0.64772 0.20544 0.14644 0.0
H1390 H 0.61676 0.18877 0.14935 0.0
H1391 H 0.64535 0.18025 0.16584 0.0
H1392 H 0.62354 0.1881 0.20444 0.0
H1393 H 0.59497 0.19675 0.18811 0.0
H1394 H 0.61122 0.21878 0.21153 0.0
H1395 H 0.64283 0.30268 0.17449 0.0
H1396 H 0.59999 0.30609 0.15346 0.0
H1397 H 0.58228 0.2239 0.15446 0.0
C1398 C 0.67523 0.21696 0.20491 0.0
C1399 C 0.69666 0.23236 0.2166 0.0
C1400 C 0.69924 0.25902 0.21392 0.0
C1401 C 0.68047 0.27032 0.20012 0.0
C1402 C 0.65924 0.25469 0.1892 0.0
C1403 C 0.65653 0.22857 0.19143 0.0
C1404 C 0.63104 0.21638 0.17929 0.0
C1405 C 0.63549 0.19654 0.15902 0.0
C1406 C 0.61421 0.2043 0.1969 0.0
C1407 C 0.61965 0.23977 0.17021 0.0
C1408 C 0.63632 0.26163 0.17585 0.0
C1409 C 0.62969 0.28566 0.16984 0.0
C1410 C 0.6053 0.2874 0.1579 0.0
C1411 C 0.58774 0.26529 0.15231 0.0
C1412 C 0.59523 0.24118 0.15843 0.0
H1413 H 0.43121 0.12038 0.00664 0.0
H1414 H 0.50893 0.09581 0.00753 0.0
H1415 H 0.52561 0.13577 0.03195 0.0
H1416 H 0.44881 0.18773 0.00317 0.0
H1417 H 0.42483 0.19821 0.02189 0.0
H1418 H 0.41923 0.16783 0.00429 0.0
H1419 H 0.41192 0.14473 0.04162 0.0
H1420 H 0.41754 0.17503 0.05933 0.0
H1421 H 0.43654 0.14879 0.06599 0.0
H1422 H 0.53348 0.17791 0.0573 0.0
H1423 H 0.53223 0.21977 0.08037 0.0
H1424 H 0.4493 0.21664 0.06236 0.0
C1425 C 0.45173 0.12339 0.01203 0.0
C1426 C 0.4688 0.10504 0.0052 0.0
C1427 C 0.49556 0.10978 0.01237 0.0
C1428 C 0.50518 0.13232 0.02633 0.0
C1429 C 0.48779 0.14996 0.03286 0.0
C1430 C 0.46165 0.1458 0.02584 0.0
C1431 C 0.44704 0.16779 0.03514 0.0
C1432 C 0.43423 0.18118 0.01491 0.0
C1433 C 0.42709 0.15852 0.05149 0.0
C1434 C 0.46902 0.18492 0.04862 0.0
C1435 C 0.49236 0.17429 0.04716 0.0
C1436 C 0.51533 0.18647 0.05849 0.0
C1437 C 0.51441 0.21022 0.07158 0.0
C1438 C 0.49069 0.22155 0.07312 0.0
C1439 C 0.46777 0.2086 0.06146 0.0
H1440 H 0.30988 0.33461 0.70139 0.0
H1441 H 0.23092 0.35507 0.70389 0.0
H1442 H 0.24661 0.40092 0.71027 0.0
H1443 H 0.33758 0.37981 0.74637 0.0
H1444 H 0.36704 0.38735 0.73311 0.0
H1445 H 0.34959 0.35629 0.72616 0.0
H1446 H 0.34715 0.36312 0.68191 0.0
H1447 H 0.36462 0.39428 0.68874 0.0
H1448 H 0.33358 0.39129 0.67184 0.0
H1449 H 0.27048 0.44344 0.72089 0.0
H1450 H 0.30152 0.48069 0.73485 0.0
H1451 H 0.36535 0.434 0.72385 0.0
C1452 C 0.29589 0.34881 0.70275 0.0
C1453 C 0.26917 0.34127 0.70223 0.0
C1454 C 0.25149 0.36038 0.70453 0.0
C1455 C 0.26019 0.38648 0.70794 0.0
C1456 C 0.28664 0.39324 0.70879 0.0
C1457 C 0.30428 0.37505 0.70614 0.0
C1458 C 0.33178 0.38751 0.70941 0.0
C1459 C 0.3474 0.37712 0.72999 0.0
C1460 C 0.34506 0.38383 0.68661 0.0
C1461 C 0.32681 0.41543 0.71505 0.0
C1462 C 0.30057 0.41824 0.71437 0.0
C1463 C 0.29104 0.44164 0.72096 0.0
C1464 C 0.30875 0.46265 0.72886 0.0
C1465 C 0.33565 0.46019 0.72987 0.0
C1466 C 0.34484 0.43645 0.72247 0.0
H1467 H 0.25767 0.66159 0.76838 0.0
H1468 H 0.31622 0.72105 0.79877 0.0
H1469 H 0.35043 0.6922 0.78993 0.0
H1470 H 0.28829 0.60974 0.79191 0.0
H1471 H 0.27821 0.58725 0.76667 0.0
H1472 H 0.25899 0.61341 0.77387 0.0
H1473 H 0.26199 0.62791 0.73206 0.0
H1474 H 0.28161 0.60198 0.72489 0.0
H1475 H 0.29329 0.63466 0.72174 0.0
H1476 H 0.37819 0.65624 0.77804 0.0
H1477 H 0.39657 0.61447 0.76942 0.0
H1478 H 0.3196 0.57827 0.74878 0.0
C1479 C 0.27773 0.66853 0.77302 0.0
C1480 C 0.28442 0.69353 0.78411 0.0
C1481 C 0.31078 0.70189 0.79032 0.0
C1482 C 0.3303 0.68574 0.78516 0.0
C1483 C 0.32307 0.66122 0.77399 0.0
C1484 C 0.29737 0.65254 0.76835 0.0
C1485 C 0.29454 0.62475 0.75814 0.0
C1486 C 0.27911 0.60779 0.77357 0.0
C1487 C 0.28213 0.62219 0.7327 0.0
C1488 C 0.32264 0.619 0.75914 0.0
C1489 C 0.33888 0.64041 0.76786 0.0
C1490 C 0.36566 0.63944 0.77101 0.0
C1491 C 0.37597 0.61577 0.76588 0.0
C1492 C 0.35947 0.59351 0.75797 0.0
C1493 C 0.33259 0.59527 0.75423 0.0
H1494 H 0.92646 0.4974 0.49008 0.0
H1495 H 0.87209 0.55598 0.48565 0.0
H1496 H 0.83687 0.5244 0.49322 0.0
H1497 H 0.8833 0.44527 0.4608 0.0
H1498 H 0.89534 0.42175 0.47913 0.0
H1499 H 0.91629 0.44914 0.47374 0.0
H1500 H 0.92562 0.46108 0.51857 0.0
H1501 H 0.90458 0.4338 0.52409 0.0
H1502 H 0.89904 0.46558 0.53623 0.0
H1503 H 0.80745 0.48633 0.50096 0.0
H1504 H 0.78583 0.44428 0.50745 0.0
H1505 H 0.85938 0.4105 0.50639 0.0
C1506 C 0.90712 0.50355 0.49052 0.0
C1507 C 0.90209 0.52922 0.48739 0.0
C1508 C 0.87652 0.53653 0.48836 0.0
C1509 C 0.85635 0.51871 0.49253 0.0
C1510 C 0.86202 0.49362 0.49569 0.0
C1511 C 0.88675 0.48601 0.49467 0.0
C1512 C 0.88764 0.45783 0.49847 0.0
C1513 C 0.89614 0.44261 0.47674 0.0
C1514 C 0.90526 0.45438 0.52066 0.0
C1515 C 0.85952 0.45077 0.50171 0.0
C1516 C 0.84507 0.47169 0.5001 0.0
C1517 C 0.81857 0.46981 0.50228 0.0
C1518 C 0.80647 0.44583 0.50599 0.0
C1519 C 0.82087 0.42404 0.50747 0.0
C1520 C 0.84779 0.42674 0.50544 0.0
H1521 H 0.76504 0.83146 0.81608 0.0
H1522 H 0.82675 0.89199 0.81678 0.0
H1523 H 0.79451 0.92308 0.80858 0.0
H1524 H 0.7258 0.85137 0.76834 0.0
H1525 H 0.69551 0.84319 0.78 0.0
H1526 H 0.72323 0.82601 0.78755 0.0
H1527 H 0.71893 0.83754 0.83176 0.0
H1528 H 0.6911 0.85465 0.82435 0.0
H1529 H 0.71833 0.87075 0.84274 0.0
H1530 H 0.75606 0.94717 0.79948 0.0
H1531 H 0.71365 0.96294 0.78905 0.0
H1532 H 0.67652 0.8865 0.7929 0.0
C1533 C 0.77164 0.85136 0.81485 0.0
C1534 C 0.79828 0.85948 0.81717 0.0
C1535 C 0.80638 0.8855 0.81501 0.0
C1536 C 0.78824 0.90325 0.81043 0.0
C1537 C 0.76212 0.8946 0.80794 0.0
C1538 C 0.75378 0.86929 0.81002 0.0
C1539 C 0.72463 0.86483 0.80545 0.0
C1540 C 0.71685 0.84519 0.78406 0.0
C1541 C 0.71254 0.85645 0.82739 0.0
C1542 C 0.71793 0.89156 0.80036 0.0
C1543 C 0.73986 0.90844 0.80209 0.0
C1544 C 0.73872 0.93416 0.79812 0.0
C1545 C 0.71451 0.94292 0.7922 0.0
C1546 C 0.69172 0.92596 0.79012 0.0
C1547 C 0.69356 0.89993 0.79428 0.0
H1548 H 0.63528 0.5322 0.96735 0.0
H1549 H 0.64 0.48455 0.90255 0.0
H1550 H 0.68553 0.5014 0.90175 0.0
H1551 H 0.67072 0.58653 0.95151 0.0
H1552 H 0.68702 0.59599 0.98026 0.0
H1553 H 0.65583 0.57814 0.97734 0.0
H1554 H 0.67451 0.5432 0.00157 0.0
H1555 H 0.70574 0.56109 0.00478 0.0
H1556 H 0.70243 0.52802 0.99257 0.0
H1557 H 0.72908 0.52537 0.90647 0.0
H1558 H 0.76839 0.55473 0.91639 0.0
H1559 H 0.73533 0.58785 0.97788 0.0
C1560 C 0.64618 0.52488 0.95336 0.0
C1561 C 0.63437 0.50694 0.93511 0.0
C1562 C 0.64886 0.49825 0.91669 0.0
C1563 C 0.67468 0.50766 0.91614 0.0
C1564 C 0.68562 0.5258 0.9341 0.0
C1565 C 0.67191 0.53428 0.95243 0.0
C1566 C 0.68773 0.55512 0.96866 0.0
C1567 C 0.67454 0.58044 0.96947 0.0
C1568 C 0.69291 0.54632 0.99336 0.0
C1569 C 0.7123 0.55731 0.95636 0.0
C1570 C 0.71071 0.54005 0.93659 0.0
C1571 C 0.73066 0.53884 0.922 0.0
C1572 C 0.7529 0.55568 0.92778 0.0
C1573 C 0.755 0.57365 0.94792 0.0
C1574 C 0.73436 0.57435 0.96238 0.0
H1575 H 0.25855 0.65209 0.27014 0.0
H1576 H 0.23949 0.64695 0.19463 0.0
H1577 H 0.2063 0.61164 0.19766 0.0
H1578 H 0.25346 0.58416 0.27435 0.0
H1579 H 0.24016 0.58647 0.30235 0.0
H1580 H 0.26124 0.61256 0.29449 0.0
H1581 H 0.22602 0.64394 0.30179 0.0
H1582 H 0.20476 0.6179 0.30955 0.0
H1583 H 0.19422 0.63708 0.28652 0.0
H1584 H 0.17582 0.57651 0.20859 0.0
H1585 H 0.15161 0.54214 0.22635 0.0
H1586 H 0.19207 0.56838 0.29449 0.0
C1587 C 0.24755 0.64349 0.25418 0.0
C1588 C 0.25157 0.65256 0.23215 0.0
C1589 C 0.23646 0.64082 0.21179 0.0
C1590 C 0.21763 0.62062 0.21329 0.0
C1591 C 0.21424 0.61221 0.23525 0.0
C1592 C 0.22888 0.62311 0.25531 0.0
C1593 C 0.22211 0.6097 0.2766 0.0
C1594 C 0.24565 0.5975 0.28759 0.0
C1595 C 0.21112 0.62827 0.29468 0.0
C1596 C 0.2015 0.58942 0.26531 0.0
C1597 C 0.19709 0.5914 0.24149 0.0
C1598 C 0.17908 0.57475 0.22722 0.0
C1599 C 0.1654 0.5553 0.23752 0.0
C1600 C 0.16995 0.55252 0.26183 0.0
C1601 C 0.18813 0.56999 0.27588 0.0
H1602 H 0.89637 0.48889 0.06206 0.0
H1603 H 0.97498 0.50386 0.04421 0.0
H1604 H 0.96318 0.54387 0.02771 0.0
H1605 H 0.86517 0.50922 0.01168 0.0
H1606 H 0.83993 0.52393 0.02619 0.0
H1607 H 0.85523 0.49792 0.03857 0.0
H1608 H 0.86701 0.5265 0.07772 0.0
H1609 H 0.85183 0.5527 0.06536 0.0
H1610 H 0.88505 0.55723 0.07762 0.0
H1611 H 0.94151 0.57837 0.00819 0.0
H1612 H 0.91174 0.60632 0.98876 0.0
H1613 H 0.84804 0.57139 0.02198 0.0
C1614 C 0.91112 0.50082 0.05494 0.0
C1615 C 0.93658 0.49341 0.05441 0.0
C1616 C 0.95543 0.5094 0.04497 0.0
C1617 C 0.94891 0.53212 0.03558 0.0
C1618 C 0.92358 0.5388 0.03616 0.0
C1619 C 0.90504 0.52381 0.04586 0.0
C1620 C 0.87895 0.53474 0.04331 0.0
C1621 C 0.85864 0.5153 0.02908 0.0
C1622 C 0.8702 0.5433 0.06744 0.0
C1623 C 0.88549 0.55763 0.02984 0.0
C1624 C 0.91138 0.55967 0.02595 0.0
C1625 C 0.92139 0.57747 0.01168 0.0
C1626 C 0.90441 0.59325 1.00073 0.0
C1627 C 0.8779 0.5914 0.00449 0.0
C1628 C 0.86847 0.5738 0.01963 0.0
H1629 H 0.1053 0.99612 0.08089 0.0
H1630 H 0.07153 0.99475 0.00913 0.0
H1631 H 0.10146 0.96297 0.99639 0.0
H1632 H 0.16982 0.99407 0.06692 0.0
H1633 H 0.17948 0.97402 0.08955 0.0
H1634 H 0.15369 0.99453 0.09349 0.0
H1635 H 0.12307 0.95522 0.1006 0.0
H1636 H 0.14883 0.93458 0.0968 0.0
H1637 H 0.11846 0.92778 0.07903 0.0
H1638 H 0.13655 0.93319 0.9911 0.0
H1639 H 0.17489 0.90826 0.99341 0.0
H1640 H 0.18699 0.92986 0.06848 0.0
C1641 C 0.1039 0.98864 0.06261 0.0
C1642 C 0.08598 0.99763 0.04598 0.0
C1643 C 0.08508 0.98798 0.0221 0.0
C1644 C 0.10196 0.96992 0.01474 0.0
C1645 C 0.11975 0.96176 0.03146 0.0
C1646 C 0.12086 0.97079 0.0549 0.0
C1647 C 0.14295 0.96019 0.06899 0.0
C1648 C 0.16265 0.98201 0.0804 0.0
C1649 C 0.13271 0.94344 0.08745 0.0
C1650 C 0.15424 0.94407 0.04977 0.0
C1651 C 0.1404 0.94504 0.0283 0.0
C1652 C 0.14745 0.93217 0.00785 0.0
C1653 C 0.1693 0.91805 0.00934 0.0
C1654 C 0.18403 0.91703 0.0311 0.0
C1655 C 0.17617 0.93015 0.05157 0.0
loop_
_geom_bond_atom_site_label_1
_geom_bond_atom_site_label_2
_geom_bond_distance
_geom_bond_site_symmetry_2
_ccdc_geom_bond_type
H0 C5 0.930 . S
H1 C8 0.930 . S
H2 C10 0.930 . S
H3 C4 1.016 1_556 S
C4 H3 1.016 1_554 S
C4 N11 1.286 . S
C5 H0 0.930 . S
C5 C6 1.397 . S
C5 C7 1.361 . S
C6 C5 1.397 . S
C6 C10 1.390 . S
C7 C5 1.361 . S
C7 C8 1.393 . S
C7 N11 1.413 . S
C8 H1 0.930 . S
C8 C7 1.393 . S
C8 C9 1.399 . S
C9 C8 1.399 . S
C9 C10 1.381 . S
C10 H2 0.930 . S
C10 C6 1.390 . S
C10 C9 1.381 . S
N11 C4 1.286 . S
N11 C7 1.413 . S
H12 C17 0.930 . S
H13 C20 0.930 . S
H14 C22 0.930 . S
H15 C16 1.016 . S
C16 H15 1.016 . S
C16 N23 1.286 . S
C17 H12 0.930 . S
C17 C18 1.397 . S
C17 C19 1.361 . S
C18 C17 1.397 . S
C18 C22 1.390 . S
C19 C17 1.361 . S
C19 C20 1.393 . S
C19 N23 1.413 . S
C20 H13 0.930 . S
C20 C19 1.393 . S
C20 C21 1.399 . S
C21 C20 1.399 . S
C21 C22 1.381 . S
C22 H14 0.930 . S
C22 C18 1.390 . S
C22 C21 1.381 . S
N23 C16 1.286 . S
N23 C19 1.413 . S
H24 C29 0.930 . S
H25 C32 0.930 . S
H26 C34 0.930 . S
H27 C28 1.016 . S
C28 H27 1.016 . S
C28 N35 1.286 . S
C29 H24 0.930 . S
C29 C30 1.397 . S
C29 C31 1.361 . S
C30 C29 1.397 . S
C30 C34 1.390 . S
C31 C29 1.361 . S
C31 C32 1.393 . S
C31 N35 1.413 . S
C32 H25 0.930 . S
C32 C31 1.393 . S
C32 C33 1.399 . S
C33 C32 1.399 . S
C33 C34 1.381 . S
C34 H26 0.930 . S
C34 C30 1.390 . S
C34 C33 1.381 . S
N35 C28 1.286 . S
N35 C31 1.413 . S
H36 C41 0.930 . S
H37 C44 0.930 . S
H38 C46 0.930 . S
H39 C40 1.016 . S
C40 H39 1.016 . S
C40 N47 1.286 . S
C41 H36 0.930 . S
C41 C42 1.397 . S
C41 C43 1.361 . S
C42 C41 1.397 . S
C42 C46 1.390 . S
C43 C41 1.361 . S
C43 C44 1.393 . S
C43 N47 1.413 . S
C44 H37 0.930 . S
C44 C43 1.393 . S
C44 C45 1.399 . S
C45 C44 1.399 . S
C45 C46 1.381 . S
C46 H38 0.930 . S
C46 C42 1.390 . S
C46 C45 1.381 . S
N47 C40 1.286 . S
N47 C43 1.413 . S
H48 C53 0.930 . S
H49 C56 0.930 . S
H50 C58 0.930 . S
H51 C52 1.016 . S
C52 H51 1.016 . S
C52 N59 1.286 . S
C53 H48 0.930 . S
C53 C54 1.397 . S
C53 C55 1.361 . S
C54 C53 1.397 . S
C54 C58 1.390 . S
C55 C53 1.361 . S
C55 C56 1.393 . S
C55 N59 1.413 . S
C56 H49 0.930 . S
C56 C55 1.393 . S
C56 C57 1.399 . S
C57 C56 1.399 . S
C57 C58 1.381 . S
C58 H50 0.930 . S
C58 C54 1.390 . S
C58 C57 1.381 . S
N59 C52 1.286 . S
N59 C55 1.413 . S
H60 C65 0.930 . S
H61 C68 0.930 . S
H62 C70 0.930 . S
H63 C64 1.016 . S
C64 H63 1.016 . S
C64 N71 1.286 . S
C65 H60 0.930 . S
C65 C66 1.397 . S
C65 C67 1.361 . S
C66 C65 1.397 . S
C66 C70 1.390 . S
C67 C65 1.361 . S
C67 C68 1.393 . S
C67 N71 1.413 . S
C68 H61 0.930 . S
C68 C67 1.393 . S
C68 C69 1.399 . S
C69 C68 1.399 . S
C69 C70 1.381 . S
C70 H62 0.930 . S
C70 C66 1.390 . S
C70 C69 1.381 . S
N71 C64 1.286 . S
N71 C67 1.413 . S
H72 C77 0.930 . S
H73 C80 0.930 . S
H74 C82 0.930 . S
H75 C76 1.024 . S
C76 H75 1.024 . S
C76 N83 1.295 . S
C77 H72 0.930 . S
C77 C78 1.397 . S
C77 C79 1.361 . S
C78 C77 1.397 . S
C78 C82 1.390 . S
C79 C77 1.361 . S
C79 C80 1.393 . S
C79 N83 1.413 . S
C80 H73 0.930 . S
C80 C79 1.393 . S
C80 C81 1.399 . S
C81 C80 1.399 . S
C81 C82 1.381 . S
C82 H74 0.930 . S
C82 C78 1.390 . S
C82 C81 1.381 . S
N83 C76 1.295 . S
N83 C79 1.413 . S
H84 C89 0.930 . S
H85 C92 0.930 . S
H86 C94 0.930 . S
H87 C88 1.016 . S
C88 H87 1.016 . S
C88 N95 1.286 . S
C89 H84 0.930 . S
C89 C90 1.397 . S
C89 C91 1.361 . S
C90 C89 1.397 . S
C90 C94 1.390 . S
C91 C89 1.361 . S
C91 C92 1.393 . S
C91 N95 1.413 . S
C92 H85 0.930 . S
C92 C91 1.393 . S
C92 C93 1.399 . S
C93 C92 1.399 . S
C93 C94 1.381 . S
C94 H86 0.930 . S
C94 C90 1.390 . S
C94 C93 1.381 . S
N95 C88 1.286 . S
N95 C91 1.413 . S
H96 C101 0.930 . S
H97 C104 0.930 . S
H98 C106 0.930 . S
H99 C100 1.016 . S
C100 H99 1.016 . S
C100 N107 1.286 . S
C101 H96 0.930 . S
C101 C102 1.397 . S
C101 C103 1.361 . S
C102 C101 1.397 . S
C102 C106 1.390 . S
C103 C101 1.361 . S
C103 C104 1.393 . S
C103 N107 1.413 . S
C104 H97 0.930 . S
C104 C103 1.393 . S
C104 C105 1.399 . S
C105 C104 1.399 . S
C105 C106 1.381 . S
C106 H98 0.930 . S
C106 C102 1.390 . S
C106 C105 1.381 . S
N107 C100 1.286 . S
N107 C103 1.413 . S
H108 C113 0.930 . S
H109 C116 0.930 . S
H110 C118 0.930 1_545 S
H111 C112 1.016 . S
C112 H111 1.016 . S
C112 N119 1.286 . S
C113 H108 0.930 . S
C113 C114 1.397 . S
C113 C115 1.361 . S
C114 C113 1.397 . S
C114 C118 1.390 . S
C115 C113 1.361 . S
C115 C116 1.393 . S
C115 N119 1.413 . S
C116 H109 0.930 . S
C116 C115 1.393 . S
C116 C117 1.399 . S
C117 C116 1.399 . S
C117 C118 1.381 . S
C118 H110 0.930 1_565 S
C118 C114 1.390 . S
C118 C117 1.381 . S
N119 C112 1.286 . S
N119 C115 1.413 . S
H120 C125 0.930 . S
H121 C128 0.930 . S
H122 C130 0.930 . S
H123 C124 1.016 . S
C124 H123 1.016 . S
C124 N131 1.286 . S
C125 H120 0.930 . S
C125 C126 1.397 . S
C125 C127 1.361 . S
C126 C125 1.397 . S
C126 C130 1.390 . S
C127 C125 1.361 . S
C127 C128 1.393 . S
C127 N131 1.413 . S
C128 H121 0.930 . S
C128 C127 1.393 . S
C128 C129 1.399 . S
C129 C128 1.399 . S
C129 C130 1.381 . S
C130 H122 0.930 . S
C130 C126 1.390 . S
C130 C129 1.381 . S
N131 C124 1.286 . S
N131 C127 1.413 . S
H132 C137 0.930 . S
H133 C140 0.930 . S
H134 C142 0.930 . S
H135 C136 1.016 . S
C136 H135 1.016 . S
C136 N143 1.286 . S
C137 H132 0.930 . S
C137 C138 1.397 . S
C137 C139 1.361 . S
C138 C137 1.397 . S
C138 C142 1.390 . S
C139 C137 1.361 . S
C139 C140 1.393 . S
C139 N143 1.413 . S
C140 H133 0.930 . S
C140 C139 1.393 . S
C140 C141 1.399 . S
C141 C140 1.399 . S
C141 C142 1.381 . S
C142 H134 0.930 . S
C142 C138 1.390 . S
C142 C141 1.381 . S
N143 C136 1.286 . S
N143 C139 1.413 . S
H144 C149 0.930 . S
H145 C152 0.930 . S
H146 C154 0.930 . S
H147 C148 1.016 . S
C148 H147 1.016 . S
C148 N155 1.286 . S
C149 H144 0.930 . S
C149 C150 1.397 . S
C149 C151 1.361 . S
C150 C149 1.397 . S
C150 C154 1.390 . S
C151 C149 1.361 . S
C151 C152 1.393 . S
C151 N155 1.413 . S
C152 H145 0.930 . S
C152 C151 1.393 . S
C152 C153 1.399 . S
C153 C152 1.399 . S
C153 C154 1.381 . S
C154 H146 0.930 . S
C154 C150 1.390 . S
C154 C153 1.381 . S
N155 C148 1.286 . S
N155 C151 1.413 . S
H156 C161 0.930 . S
H157 C164 0.930 . S
H158 C166 0.930 . S
H159 C160 1.016 1_554 S
C160 H159 1.016 1_556 S
C160 N167 1.286 . S
C161 H156 0.930 . S
C161 C162 1.397 . S
C161 C163 1.361 . S
C162 C161 1.397 . S
C162 C166 1.390 . S
C163 C161 1.361 . S
C163 C164 1.393 . S
C163 N167 1.413 . S
C164 H157 0.930 . S
C164 C163 1.393 . S
C164 C165 1.399 . S
C165 C164 1.399 . S
C165 C166 1.381 . S
C166 H158 0.930 . S
C166 C162 1.390 . S
C166 C165 1.381 . S
N167 C160 1.286 . S
N167 C163 1.413 . S
H168 C173 0.930 . S
H169 C176 0.930 . S
H170 C178 0.930 . S
H171 C172 1.016 . S
C172 H171 1.016 . S
C172 N179 1.286 . S
C173 H168 0.930 . S
C173 C174 1.397 . S
C173 C175 1.361 . S
C174 C173 1.397 . S
C174 C178 1.390 . S
C175 C173 1.361 . S
C175 C176 1.393 . S
C175 N179 1.413 . S
C176 H169 0.930 . S
C176 C175 1.393 . S
C176 C177 1.399 . S
C177 C176 1.399 . S
C177 C178 1.381 . S
C178 H170 0.930 . S
C178 C174 1.390 . S
C178 C177 1.381 . S
N179 C172 1.286 . S
N179 C175 1.413 . S
H180 C185 0.930 . S
H181 C188 0.930 . S
H182 C190 0.930 . S
H183 C184 1.016 . S
C184 H183 1.016 . S
C184 N191 1.286 . S
C185 H180 0.930 . S
C185 C186 1.397 . S
C185 C187 1.361 . S
C186 C185 1.397 . S
C186 C190 1.390 . S
C187 C185 1.361 . S
C187 C188 1.393 . S
C187 N191 1.413 . S
C188 H181 0.930 . S
C188 C187 1.393 . S
C188 C189 1.399 . S
C189 C188 1.399 . S
C189 C190 1.381 . S
C190 H182 0.930 . S
C190 C186 1.390 . S
C190 C189 1.381 . S
N191 C184 1.286 . S
N191 C187 1.413 . S
Zn192 O195 2.031 . S
Zn192 O197 2.063 . S
Zn192 O202 2.067 1_554 S
Zn193 O194 1.962 . S
Zn193 O196 1.986 . S
Zn193 O198 1.996 . S
Zn193 O201 1.943 1_554 S
O194 Zn193 1.962 . S
O194 C199 1.254 . S
O195 Zn192 2.031 . S
O195 C199 1.269 . S
O196 Zn193 1.986 . S
O196 C203 1.262 . S
O197 Zn192 2.063 . S
O197 C205 1.269 . S
O198 Zn193 1.996 . S
O198 C205 1.257 . S
C199 O194 1.254 . S
C199 O195 1.269 . S
C200 O201 1.249 . S
C200 O202 1.270 . S
O201 Zn193 1.943 1_556 S
O201 C200 1.249 . S
O202 Zn192 2.067 1_556 S
O202 C200 1.270 . S
C203 O196 1.262 . S
C203 O204 1.232 . S
O204 C203 1.232 . S
C205 O197 1.269 . S
C205 O198 1.257 . S
Zn206 O209 2.031 . S
Zn206 O211 2.049 . S
Zn206 O216 2.067 . S
Zn207 O208 1.962 . S
Zn207 O210 1.986 . S
Zn207 O212 1.996 . S
Zn207 O215 1.943 . S
O208 Zn207 1.962 . S
O208 C213 1.254 . S
O209 Zn206 2.031 . S
O209 C213 1.269 . S
O210 Zn207 1.986 . S
O210 C217 1.262 . S
O211 Zn206 2.049 . S
O211 C219 1.260 . S
O212 Zn207 1.996 . S
O212 C219 1.257 . S
C213 O208 1.254 . S
C213 O209 1.269 . S
C214 O215 1.249 . S
C214 O216 1.270 . S
O215 Zn207 1.943 . S
O215 C214 1.249 . S
O216 Zn206 2.067 . S
O216 C214 1.270 . S
C217 O210 1.262 . S
C217 O218 1.232 . S
O218 C217 1.232 . S
C219 O211 1.260 . S
C219 O212 1.257 . S
Zn220 O223 2.031 . S
Zn220 O225 2.049 . S
Zn220 O230 2.067 . S
Zn221 O222 1.962 . S
Zn221 O224 1.986 . S
Zn221 O226 1.996 1_554 S
Zn221 O229 1.943 . S
O222 Zn221 1.962 . S
O222 C227 1.254 . S
O223 Zn220 2.031 . S
O223 C227 1.269 1_556 S
O224 Zn221 1.986 . S
O224 C231 1.262 . S
O225 Zn220 2.049 . S
O225 C233 1.260 . S
O226 Zn221 1.996 1_556 S
O226 C233 1.257 . S
C227 O222 1.254 . S
C227 O223 1.269 1_554 S
C228 O229 1.249 1_556 S
C228 O230 1.270 . S
O229 Zn221 1.943 . S
O229 C228 1.249 1_554 S
O230 Zn220 2.067 . S
O230 C228 1.270 . S
C231 O224 1.262 . S
C231 O232 1.232 . S
O232 C231 1.232 . S
C233 O225 1.260 . S
C233 O226 1.257 . S
Zn234 O237 2.031 . S
Zn234 O239 2.049 . S
Zn234 O244 2.067 1_545 S
Zn235 O236 1.962 . S
Zn235 O238 1.986 . S
Zn235 O240 1.996 . S
Zn235 O243 1.943 1_545 S
O236 Zn235 1.962 . S
O236 C241 1.254 . S
O237 Zn234 2.031 . S
O237 C241 1.269 . S
O238 Zn235 1.986 . S
O238 C245 1.262 . S
O239 Zn234 2.049 . S
O239 C247 1.260 . S
O240 Zn235 1.996 . S
O240 C247 1.257 . S
C241 O236 1.254 . S
C241 O237 1.269 . S
C242 O243 1.249 . S
C242 O244 1.270 . S
O243 Zn235 1.943 1_565 S
O243 C242 1.249 . S
O244 Zn234 2.067 1_565 S
O244 C242 1.270 . S
C245 O238 1.262 . S
C245 O246 1.232 . S
O246 C245 1.232 . S
C247 O239 1.260 . S
C247 O240 1.257 . S
Zn248 O251 2.031 . S
Zn248 O253 2.049 . S
Zn248 O258 2.067 . S
Zn249 O250 1.962 . S
Zn249 O252 1.986 . S
Zn249 O254 1.996 . S
Zn249 O257 1.943 . S
O250 Zn249 1.962 . S
O250 C255 1.254 . S
O251 Zn248 2.031 . S
O251 C255 1.269 . S
O252 Zn249 1.986 . S
O252 C259 1.262 . S
O253 Zn248 2.049 . S
O253 C261 1.260 . S
O254 Zn249 1.996 . S
O254 C261 1.257 . S
C255 O250 1.254 . S
C255 O251 1.269 . S
C256 O257 1.249 . S
C256 O258 1.270 . S
O257 Zn249 1.943 . S
O257 C256 1.249 . S
O258 Zn248 2.067 . S
O258 C256 1.270 . S
C259 O252 1.262 . S
C259 O260 1.232 . S
O260 C259 1.232 . S
C261 O253 1.260 . S
C261 O254 1.257 . S
Zn262 O265 2.031 . S
Zn262 O267 2.049 . S
Zn262 O272 2.067 . S
Zn263 O264 1.962 . S
Zn263 O266 1.986 . S
Zn263 O268 1.996 . S
Zn263 O271 1.943 . S
O264 Zn263 1.962 . S
O264 C269 1.254 . S
O265 Zn262 2.031 . S
O265 C269 1.269 . S
O266 Zn263 1.986 . S
O266 C273 1.262 . S
O267 Zn262 2.049 . S
O267 C275 1.260 . S
O268 Zn263 1.996 . S
O268 C275 1.257 . S
C269 O264 1.254 . S
C269 O265 1.269 . S
C270 O271 1.249 . S
C270 O272 1.270 . S
O271 Zn263 1.943 . S
O271 C270 1.249 . S
O272 Zn262 2.067 . S
O272 C270 1.270 . S
C273 O266 1.262 . S
C273 O274 1.232 . S
O274 C273 1.232 . S
C275 O267 1.260 . S
C275 O268 1.257 . S
Zn276 O279 2.031 . S
Zn276 O281 2.049 . S
Zn276 O286 2.067 . S
Zn277 O278 1.962 . S
Zn277 O280 1.986 . S
Zn277 O282 1.996 . S
Zn277 O285 1.943 . S
O278 Zn277 1.962 . S
O278 C283 1.254 . S
O279 Zn276 2.031 . S
O279 C283 1.269 . S
O280 Zn277 1.986 . S
O280 C287 1.262 . S
O281 Zn276 2.049 . S
O281 C289 1.260 . S
O282 Zn277 1.996 . S
O282 C289 1.257 . S
C283 O278 1.254 . S
C283 O279 1.269 . S
C284 O285 1.249 . S
C284 O286 1.270 . S
O285 Zn277 1.943 . S
O285 C284 1.249 . S
O286 Zn276 2.067 . S
O286 C284 1.270 . S
C287 O280 1.262 . S
C287 O288 1.232 . S
O288 C287 1.232 . S
C289 O281 1.260 . S
C289 O282 1.257 . S
Zn290 O293 2.031 . S
Zn290 O295 2.049 . S
Zn290 O300 2.067 . S
Zn291 O292 1.962 . S
Zn291 O294 1.986 . S
Zn291 O296 1.996 1_545 S
Zn291 O299 1.943 . S
O292 Zn291 1.962 . S
O292 C297 1.254 . S
O293 Zn290 2.031 . S
O293 C297 1.269 1_565 S
O294 Zn291 1.986 . S
O294 C301 1.262 . S
O295 Zn290 2.049 . S
O295 C303 1.260 . S
O296 Zn291 1.996 1_565 S
O296 C303 1.257 . S
C297 O292 1.254 . S
C297 O293 1.269 1_545 S
C298 O299 1.249 1_565 S
C298 O300 1.270 . S
O299 Zn291 1.943 . S
O299 C298 1.249 1_545 S
O300 Zn290 2.067 . S
O300 C298 1.270 . S
C301 O294 1.262 . S
C301 O302 1.232 . S
O302 C301 1.232 . S
C303 O295 1.260 . S
C303 O296 1.257 . S
Zn304 O307 2.031 . S
Zn304 O309 2.049 1_455 S
Zn304 O314 2.067 1_455 S
Zn305 O306 1.962 . S
Zn305 O308 1.986 . S
Zn305 O310 1.996 . S
Zn305 O313 1.943 1_455 S
O306 Zn305 1.962 . S
O306 C311 1.254 . S
O307 Zn304 2.031 . S
O307 C311 1.269 . S
O308 Zn305 1.986 . S
O308 C315 1.262 . S
O309 Zn304 2.049 1_655 S
O309 C317 1.269 . S
O310 Zn305 1.996 . S
O310 C317 1.238 1_455 S
C311 O306 1.254 . S
C311 O307 1.269 . S
C312 O313 1.249 . S
C312 O314 1.270 . S
O313 Zn305 1.943 1_655 S
O313 C312 1.249 . S
O314 Zn304 2.067 1_655 S
O314 C312 1.270 . S
C315 O308 1.262 . S
C315 O316 1.232 . S
O316 C315 1.232 . S
C317 O309 1.269 . S
C317 O310 1.238 1_655 S
Zn318 O321 2.031 . S
Zn318 O323 2.049 . S
Zn318 O328 2.067 . S
Zn319 O320 1.962 . S
Zn319 O322 1.986 . S
Zn319 O324 1.996 . S
Zn319 O327 1.943 . S
O320 Zn319 1.962 . S
O320 C325 1.254 . S
O321 Zn318 2.031 . S
O321 C325 1.269 . S
O322 Zn319 1.986 . S
O322 C329 1.262 . S
O323 Zn318 2.049 . S
O323 C331 1.260 . S
O324 Zn319 1.996 . S
O324 C331 1.257 . S
C325 O320 1.254 . S
C325 O321 1.269 . S
C326 O327 1.249 . S
C326 O328 1.270 . S
O327 Zn319 1.943 . S
O327 C326 1.249 . S
O328 Zn318 2.067 . S
O328 C326 1.270 . S
C329 O322 1.262 . S
C329 O330 1.232 . S
O330 C329 1.232 . S
C331 O323 1.260 . S
C331 O324 1.257 . S
Zn332 O335 2.031 1_655 S
Zn332 O337 2.049 . S
Zn332 O342 2.067 . S
Zn333 O334 1.962 . S
Zn333 O336 1.986 . S
Zn333 O338 1.996 1_455 S
Zn333 O341 1.943 . S
O334 Zn333 1.962 . S
O334 C339 1.254 . S
O335 Zn332 2.031 1_455 S
O335 C339 1.269 . S
O336 Zn333 1.986 . S
O336 C343 1.262 . S
O337 Zn332 2.049 . S
O337 C345 1.260 . S
O338 Zn333 1.996 1_655 S
O338 C345 1.257 . S
C339 O334 1.254 . S
C339 O335 1.269 . S
C340 O341 1.249 . S
C340 O342 1.270 1_455 S
O341 Zn333 1.943 . S
O341 C340 1.249 . S
O342 Zn332 2.067 . S
O342 C340 1.270 1_655 S
C343 O336 1.262 . S
C343 O344 1.232 . S
O344 C343 1.232 . S
C345 O337 1.260 . S
C345 O338 1.257 . S
Zn346 O349 2.031 . S
Zn346 O351 2.049 . S
Zn346 O356 2.067 . S
Zn347 O348 1.962 . S
Zn347 O350 1.986 . S
Zn347 O352 1.996 . S
Zn347 O355 1.943 . S
O348 Zn347 1.962 . S
O348 C353 1.254 . S
O349 Zn346 2.031 . S
O349 C353 1.269 . S
O350 Zn347 1.986 . S
O350 C357 1.262 . S
O351 Zn346 2.049 . S
O351 C359 1.260 . S
O352 Zn347 1.996 . S
O352 C359 1.257 . S
C353 O348 1.254 . S
C353 O349 1.269 . S
C354 O355 1.249 . S
C354 O356 1.270 . S
O355 Zn347 1.943 . S
O355 C354 1.249 . S
O356 Zn346 2.067 . S
O356 C354 1.270 . S
C357 O350 1.262 . S
C357 O358 1.232 . S
O358 C357 1.232 . S
C359 O351 1.260 . S
C359 O352 1.257 . S
H360 C372 0.930 . S
H361 C374 0.930 . S
H362 C375 0.930 . S
H363 C379 0.959 . S
H364 C379 0.959 . S
H365 C379 0.961 . S
H366 C380 0.960 . S
H367 C380 0.961 . S
H368 C380 0.959 . S
H369 C383 0.929 . S
H370 C384 0.931 . S
H371 C386 0.930 . S
C372 H360 0.930 . S
C372 C373 1.399 . S
C372 C377 1.399 . S
C373 C372 1.399 . S
C373 C374 1.376 . S
C374 H361 0.930 . S
C374 C373 1.376 . S
C374 C375 1.388 . S
C375 H362 0.930 . S
C375 C374 1.388 . S
C375 C376 1.390 . S
C376 C375 1.390 . S
C376 C377 1.394 . S
C376 C382 1.465 . S
C377 C372 1.399 . S
C377 C376 1.394 . S
C377 C378 1.516 . S
C378 C377 1.516 . S
C378 C379 1.502 . S
C378 C380 1.561 . S
C378 C381 1.526 . S
C379 H363 0.959 . S
C379 H364 0.959 . S
C379 H365 0.961 . S
C379 C378 1.502 . S
C380 H366 0.960 . S
C380 H367 0.961 . S
C380 H368 0.959 . S
C380 C378 1.561 . S
C381 C378 1.526 . S
C381 C382 1.396 . S
C381 C386 1.390 . S
C382 C376 1.465 . S
C382 C381 1.396 . S
C382 C383 1.399 . S
C383 H369 0.929 . S
C383 C382 1.399 . S
C383 C384 1.385 . S
C384 H370 0.931 . S
C384 C383 1.385 . S
C384 C385 1.389 . S
C385 C384 1.389 . S
C385 C386 1.387 . S
C386 H371 0.930 . S
C386 C381 1.390 . S
C386 C385 1.387 . S
H387 C399 0.930 . S
H388 C401 0.930 . S
H389 C402 0.930 . S
H390 C406 0.959 . S
H391 C406 0.959 . S
H392 C406 0.961 . S
H393 C407 0.960 . S
H394 C407 0.961 . S
H395 C407 0.959 . S
H396 C410 0.929 . S
H397 C411 0.931 . S
H398 C413 0.930 . S
C399 H387 0.930 . S
C399 C400 1.399 . S
C399 C404 1.399 . S
C400 C399 1.399 . S
C400 C401 1.376 . S
C401 H388 0.930 . S
C401 C400 1.376 . S
C401 C402 1.388 . S
C402 H389 0.930 . S
C402 C401 1.388 . S
C402 C403 1.390 . S
C403 C402 1.390 . S
C403 C404 1.394 . S
C403 C409 1.465 . S
C404 C399 1.399 . S
C404 C403 1.394 . S
C404 C405 1.516 . S
C405 C404 1.516 . S
C405 C406 1.502 . S
C405 C407 1.561 . S
C405 C408 1.526 . S
C406 H390 0.959 . S
C406 H391 0.959 . S
C406 H392 0.961 . S
C406 C405 1.502 . S
C407 H393 0.960 . S
C407 H394 0.961 . S
C407 H395 0.959 . S
C407 C405 1.561 . S
C408 C405 1.526 . S
C408 C409 1.396 . S
C408 C413 1.390 . S
C409 C403 1.465 . S
C409 C408 1.396 . S
C409 C410 1.399 . S
C410 H396 0.929 . S
C410 C409 1.399 . S
C410 C411 1.385 . S
C411 H397 0.931 . S
C411 C410 1.385 . S
C411 C412 1.389 . S
C412 C411 1.389 . S
C412 C413 1.387 . S
C413 H398 0.930 . S
C413 C408 1.390 . S
C413 C412 1.387 . S
H414 C426 0.930 . S
H415 C428 0.930 . S
H416 C429 0.930 . S
H417 C433 0.959 . S
H418 C433 0.959 . S
H419 C433 0.961 . S
H420 C434 0.960 . S
H421 C434 0.961 . S
H422 C434 0.959 . S
H423 C437 0.929 . S
H424 C438 0.931 . S
H425 C440 0.930 . S
C426 H414 0.930 . S
C426 C427 1.399 . S
C426 C431 1.399 . S
C427 C426 1.399 . S
C427 C428 1.376 . S
C428 H415 0.930 . S
C428 C427 1.376 . S
C428 C429 1.388 . S
C429 H416 0.930 . S
C429 C428 1.388 . S
C429 C430 1.390 . S
C430 C429 1.390 . S
C430 C431 1.394 . S
C430 C436 1.465 . S
C431 C426 1.399 . S
C431 C430 1.394 . S
C431 C432 1.516 . S
C432 C431 1.516 . S
C432 C433 1.502 . S
C432 C434 1.561 . S
C432 C435 1.526 . S
C433 H417 0.959 . S
C433 H418 0.959 . S
C433 H419 0.961 . S
C433 C432 1.502 . S
C434 H420 0.960 . S
C434 H421 0.961 . S
C434 H422 0.959 . S
C434 C432 1.561 . S
C435 C432 1.526 . S
C435 C436 1.396 . S
C435 C440 1.390 . S
C436 C430 1.465 . S
C436 C435 1.396 . S
C436 C437 1.399 . S
C437 H423 0.929 . S
C437 C436 1.399 . S
C437 C438 1.385 . S
C438 H424 0.931 . S
C438 C437 1.385 . S
C438 C439 1.389 . S
C439 C438 1.389 . S
C439 C440 1.387 . S
C440 H425 0.930 . S
C440 C435 1.390 . S
C440 C439 1.387 . S
H441 C453 0.930 . S
H442 C455 0.930 1_545 S
H443 C456 0.930 . S
H444 C460 0.959 . S
H445 C460 0.959 . S
H446 C460 0.961 . S
H447 C461 0.960 . S
H448 C461 0.961 1_655 S
H449 C461 0.959 1_655 S
H450 C464 0.929 . S
H451 C465 0.931 . S
H452 C467 0.930 . S
C453 H441 0.930 . S
C453 C454 1.399 . S
C453 C458 1.399 . S
C454 C453 1.399 . S
C454 C455 1.376 . S
C455 H442 0.930 1_565 S
C455 C454 1.376 . S
C455 C456 1.388 1_565 S
C456 H443 0.930 . S
C456 C455 1.388 1_545 S
C456 C457 1.390 1_545 S
C457 C456 1.390 1_565 S
C457 C458 1.394 . S
C457 C463 1.465 1_565 S
C458 C453 1.399 . S
C458 C457 1.394 . S
C458 C459 1.516 . S
C459 C458 1.516 . S
C459 C460 1.502 . S
C459 C461 1.561 . S
C459 C462 1.526 . S
C460 H444 0.959 . S
C460 H445 0.959 . S
C460 H446 0.961 . S
C460 C459 1.502 . S
C461 H447 0.960 . S
C461 H448 0.961 1_455 S
C461 H449 0.959 1_455 S
C461 C459 1.561 . S
C462 C459 1.526 . S
C462 C463 1.396 1_565 S
C462 C467 1.390 1_455 S
C463 C457 1.465 1_545 S
C463 C462 1.396 1_545 S
C463 C464 1.399 1_455 S
C464 H450 0.929 . S
C464 C463 1.399 1_655 S
C464 C465 1.385 . S
C465 H451 0.931 . S
C465 C464 1.385 . S
C465 C466 1.389 . S
C466 C465 1.389 . S
C466 C467 1.387 1_545 S
C467 H452 0.930 . S
C467 C462 1.390 1_655 S
C467 C466 1.387 1_565 S
H468 C480 0.930 . S
H469 C482 0.930 . S
H470 C483 0.930 . S
H471 C487 0.959 . S
H472 C487 0.959 . S
H473 C487 0.961 . S
H474 C488 0.960 . S
H475 C488 0.961 . S
H476 C488 0.959 . S
H477 C491 0.929 . S
H478 C492 0.931 . S
H479 C494 0.930 . S
C480 H468 0.930 . S
C480 C481 1.399 . S
C480 C485 1.399 . S
C481 C480 1.399 . S
C481 C482 1.376 . S
C482 H469 0.930 . S
C482 C481 1.376 . S
C482 C483 1.388 . S
C483 H470 0.930 . S
C483 C482 1.388 . S
C483 C484 1.390 . S
C484 C483 1.390 . S
C484 C485 1.394 . S
C484 C490 1.465 . S
C485 C480 1.399 . S
C485 C484 1.394 . S
C485 C486 1.516 . S
C486 C485 1.516 . S
C486 C487 1.502 . S
C486 C488 1.561 . S
C486 C489 1.526 . S
C487 H471 0.959 . S
C487 H472 0.959 . S
C487 H473 0.961 . S
C487 C486 1.502 . S
C488 H474 0.960 . S
C488 H475 0.961 . S
C488 H476 0.959 . S
C488 C486 1.561 . S
C489 C486 1.526 . S
C489 C490 1.396 . S
C489 C494 1.390 . S
C490 C484 1.465 . S
C490 C489 1.396 . S
C490 C491 1.399 . S
C491 H477 0.929 . S
C491 C490 1.399 . S
C491 C492 1.385 . S
C492 H478 0.931 . S
C492 C491 1.385 . S
C492 C493 1.389 . S
C493 C492 1.389 . S
C493 C494 1.387 . S
C494 H479 0.930 . S
C494 C489 1.390 . S
C494 C493 1.387 . S
H495 C507 0.930 . S
H496 C509 0.930 . S
H497 C510 0.930 . S
H498 C514 0.959 . S
H499 C514 0.959 . S
H500 C514 0.961 . S
H501 C515 0.960 . S
H502 C515 0.961 . S
H503 C515 0.959 . S
H504 C518 0.929 . S
H505 C519 0.931 . S
H506 C521 0.930 . S
C507 H495 0.930 . S
C507 C508 1.399 . S
C507 C512 1.399 . S
C508 C507 1.399 . S
C508 C509 1.376 . S
C509 H496 0.930 . S
C509 C508 1.376 . S
C509 C510 1.388 . S
C510 H497 0.930 . S
C510 C509 1.388 . S
C510 C511 1.390 . S
C511 C510 1.390 . S
C511 C512 1.394 . S
C511 C517 1.465 . S
C512 C507 1.399 . S
C512 C511 1.394 . S
C512 C513 1.516 . S
C513 C512 1.516 . S
C513 C514 1.502 . S
C513 C515 1.561 . S
C513 C516 1.526 . S
C514 H498 0.959 . S
C514 H499 0.959 . S
C514 H500 0.961 . S
C514 C513 1.502 . S
C515 H501 0.960 . S
C515 H502 0.961 . S
C515 H503 0.959 . S
C515 C513 1.561 . S
C516 C513 1.526 . S
C516 C517 1.396 . S
C516 C521 1.390 . S
C517 C511 1.465 . S
C517 C516 1.396 . S
C517 C518 1.399 . S
C518 H504 0.929 . S
C518 C517 1.399 . S
C518 C519 1.385 . S
C519 H505 0.931 . S
C519 C518 1.385 . S
C519 C520 1.389 . S
C520 C519 1.389 . S
C520 C521 1.387 . S
C521 H506 0.930 . S
C521 C516 1.390 . S
C521 C520 1.387 . S
H522 C534 0.930 . S
H523 C536 0.930 . S
H524 C537 0.930 . S
H525 C541 0.959 . S
H526 C541 0.959 . S
H527 C541 0.961 . S
H528 C542 0.960 . S
H529 C542 0.961 . S
H530 C542 0.959 . S
H531 C545 0.929 . S
H532 C546 0.931 . S
H533 C548 0.930 . S
C534 H522 0.930 . S
C534 C535 1.399 . S
C534 C539 1.399 . S
C535 C534 1.399 . S
C535 C536 1.376 . S
C536 H523 0.930 . S
C536 C535 1.376 . S
C536 C537 1.388 . S
C537 H524 0.930 . S
C537 C536 1.388 . S
C537 C538 1.390 . S
C538 C537 1.390 . S
C538 C539 1.394 . S
C538 C544 1.465 . S
C539 C534 1.399 . S
C539 C538 1.394 . S
C539 C540 1.516 . S
C540 C539 1.516 . S
C540 C541 1.502 . S
C540 C542 1.561 . S
C540 C543 1.526 . S
C541 H525 0.959 . S
C541 H526 0.959 . S
C541 H527 0.961 . S
C541 C540 1.502 . S
C542 H528 0.960 . S
C542 H529 0.961 . S
C542 H530 0.959 . S
C542 C540 1.561 . S
C543 C540 1.526 . S
C543 C544 1.396 . S
C543 C548 1.390 . S
C544 C538 1.465 . S
C544 C543 1.396 . S
C544 C545 1.399 . S
C545 H531 0.929 . S
C545 C544 1.399 . S
C545 C546 1.385 . S
C546 H532 0.931 . S
C546 C545 1.385 . S
C546 C547 1.389 . S
C547 C546 1.389 . S
C547 C548 1.387 . S
C548 H533 0.930 . S
C548 C543 1.390 . S
C548 C547 1.387 . S
H549 C561 0.930 . S
H550 C563 0.930 . S
H551 C564 0.930 . S
H552 C568 0.959 . S
H553 C568 0.959 . S
H554 C568 0.961 . S
H555 C569 0.960 . S
H556 C569 0.961 . S
H557 C569 0.959 . S
H558 C572 0.929 . S
H559 C573 0.931 . S
H560 C575 0.930 . S
C561 H549 0.930 . S
C561 C562 1.399 . S
C561 C566 1.399 . S
C562 C561 1.399 . S
C562 C563 1.376 1_565 S
C563 H550 0.930 . S
C563 C562 1.376 1_545 S
C563 C564 1.388 . S
C564 H551 0.930 . S
C564 C563 1.388 . S
C564 C565 1.390 1_545 S
C565 C564 1.390 1_565 S
C565 C566 1.394 . S
C565 C571 1.465 . S
C566 C561 1.399 . S
C566 C565 1.394 . S
C566 C567 1.516 . S
C567 C566 1.516 . S
C567 C568 1.502 . S
C567 C569 1.561 . S
C567 C570 1.526 . S
C568 H552 0.959 . S
C568 H553 0.959 . S
C568 H554 0.961 . S
C568 C567 1.502 . S
C569 H555 0.960 . S
C569 H556 0.961 . S
C569 H557 0.959 . S
C569 C567 1.561 . S
C570 C567 1.526 . S
C570 C571 1.396 . S
C570 C575 1.390 . S
C571 C565 1.465 . S
C571 C570 1.396 . S
C571 C572 1.399 1_565 S
C572 H558 0.929 . S
C572 C571 1.399 1_545 S
C572 C573 1.385 . S
C573 H559 0.931 . S
C573 C572 1.385 . S
C573 C574 1.389 1_545 S
C574 C573 1.389 1_565 S
C574 C575 1.387 . S
C575 H560 0.930 . S
C575 C570 1.390 . S
C575 C574 1.387 . S
H576 C588 0.930 . S
H577 C590 0.930 . S
H578 C591 0.930 . S
H579 C595 0.959 . S
H580 C595 0.959 . S
H581 C595 0.961 . S
H582 C596 0.960 . S
H583 C596 0.961 . S
H584 C596 0.959 . S
H585 C599 0.929 . S
H586 C600 0.931 . S
H587 C602 0.930 . S
C588 H576 0.930 . S
C588 C589 1.399 . S
C588 C593 1.399 . S
C589 C588 1.399 . S
C589 C590 1.376 . S
C590 H577 0.930 . S
C590 C589 1.376 . S
C590 C591 1.388 . S
C591 H578 0.930 . S
C591 C590 1.388 . S
C591 C592 1.390 . S
C592 C591 1.390 . S
C592 C593 1.394 . S
C592 C598 1.465 . S
C593 C588 1.399 . S
C593 C592 1.394 . S
C593 C594 1.516 . S
C594 C593 1.516 . S
C594 C595 1.502 . S
C594 C596 1.561 . S
C594 C597 1.526 . S
C595 H579 0.959 . S
C595 H580 0.959 . S
C595 H581 0.961 . S
C595 C594 1.502 . S
C596 H582 0.960 . S
C596 H583 0.961 . S
C596 H584 0.959 . S
C596 C594 1.561 . S
C597 C594 1.526 . S
C597 C598 1.396 . S
C597 C602 1.390 . S
C598 C592 1.465 . S
C598 C597 1.396 . S
C598 C599 1.399 . S
C599 H585 0.929 . S
C599 C598 1.399 . S
C599 C600 1.385 . S
C600 H586 0.931 . S
C600 C599 1.385 . S
C600 C601 1.389 . S
C601 C600 1.389 . S
C601 C602 1.387 . S
C602 H587 0.930 . S
C602 C597 1.390 . S
C602 C601 1.387 . S
H603 C615 0.930 . S
H604 C617 0.930 . S
H605 C618 0.930 . S
H606 C622 0.959 . S
H607 C622 0.959 . S
H608 C622 0.961 . S
H609 C623 0.960 . S
H610 C623 0.961 . S
H611 C623 0.959 . S
H612 C626 0.929 . S
H613 C627 0.931 . S
H614 C629 0.930 . S
C615 H603 0.930 . S
C615 C616 1.399 . S
C615 C620 1.399 . S
C616 C615 1.399 . S
C616 C617 1.376 . S
C617 H604 0.930 . S
C617 C616 1.376 . S
C617 C618 1.388 . S
C618 H605 0.930 . S
C618 C617 1.388 . S
C618 C619 1.390 . S
C619 C618 1.390 . S
C619 C620 1.394 . S
C619 C625 1.465 . S
C620 C615 1.399 . S
C620 C619 1.394 . S
C620 C621 1.516 . S
C621 C620 1.516 . S
C621 C622 1.502 . S
C621 C623 1.561 . S
C621 C624 1.526 . S
C622 H606 0.959 . S
C622 H607 0.959 . S
C622 H608 0.961 . S
C622 C621 1.502 . S
C623 H609 0.960 . S
C623 H610 0.961 . S
C623 H611 0.959 . S
C623 C621 1.561 . S
C624 C621 1.526 . S
C624 C625 1.396 . S
C624 C629 1.390 . S
C625 C619 1.465 . S
C625 C624 1.396 . S
C625 C626 1.399 . S
C626 H612 0.929 . S
C626 C625 1.399 . S
C626 C627 1.385 . S
C627 H613 0.931 . S
C627 C626 1.385 . S
C627 C628 1.389 . S
C628 C627 1.389 . S
C628 C629 1.387 . S
C629 H614 0.930 . S
C629 C624 1.390 . S
C629 C628 1.387 . S
H630 C642 0.930 . S
H631 C644 0.930 . S
H632 C645 0.930 . S
H633 C649 0.959 . S
H634 C649 0.959 . S
H635 C649 0.961 . S
H636 C650 0.960 . S
H637 C650 0.961 . S
H638 C650 0.959 . S
H639 C653 0.929 . S
H640 C654 0.931 . S
H641 C656 0.930 . S
C642 H630 0.930 . S
C642 C643 1.399 . S
C642 C647 1.399 . S
C643 C642 1.399 . S
C643 C644 1.376 . S
C644 H631 0.930 . S
C644 C643 1.376 . S
C644 C645 1.388 . S
C645 H632 0.930 . S
C645 C644 1.388 . S
C645 C646 1.390 . S
C646 C645 1.390 . S
C646 C647 1.394 . S
C646 C652 1.465 . S
C647 C642 1.399 . S
C647 C646 1.394 . S
C647 C648 1.516 . S
C648 C647 1.516 . S
C648 C649 1.502 . S
C648 C650 1.561 . S
C648 C651 1.526 . S
C649 H633 0.959 . S
C649 H634 0.959 . S
C649 H635 0.961 . S
C649 C648 1.502 . S
C650 H636 0.960 . S
C650 H637 0.961 . S
C650 H638 0.959 . S
C650 C648 1.561 . S
C651 C648 1.526 . S
C651 C652 1.396 . S
C651 C656 1.390 . S
C652 C646 1.465 . S
C652 C651 1.396 . S
C652 C653 1.399 . S
C653 H639 0.929 . S
C653 C652 1.399 . S
C653 C654 1.385 . S
C654 H640 0.931 . S
C654 C653 1.385 . S
C654 C655 1.389 . S
C655 C654 1.389 . S
C655 C656 1.387 . S
C656 H641 0.930 . S
C656 C651 1.390 . S
C656 C655 1.387 . S
H657 C669 0.930 . S
H658 C671 0.930 . S
H659 C672 0.930 . S
H660 C676 0.959 . S
H661 C676 0.959 . S
H662 C676 0.961 . S
H663 C677 0.960 . S
H664 C677 0.961 . S
H665 C677 0.959 . S
H666 C680 0.929 . S
H667 C681 0.931 . S
H668 C683 0.930 . S
C669 H657 0.930 . S
C669 C670 1.399 . S
C669 C674 1.399 . S
C670 C669 1.399 . S
C670 C671 1.376 . S
C671 H658 0.930 . S
C671 C670 1.376 . S
C671 C672 1.388 . S
C672 H659 0.930 . S
C672 C671 1.388 . S
C672 C673 1.390 . S
C673 C672 1.390 . S
C673 C674 1.394 . S
C673 C679 1.465 . S
C674 C669 1.399 . S
C674 C673 1.394 . S
C674 C675 1.516 . S
C675 C674 1.516 . S
C675 C676 1.502 . S
C675 C677 1.561 . S
C675 C678 1.526 . S
C676 H660 0.959 . S
C676 H661 0.959 . S
C676 H662 0.961 . S
C676 C675 1.502 . S
C677 H663 0.960 . S
C677 H664 0.961 . S
C677 H665 0.959 . S
C677 C675 1.561 . S
C678 C675 1.526 . S
C678 C679 1.396 . S
C678 C683 1.390 . S
C679 C673 1.465 . S
C679 C678 1.396 . S
C679 C680 1.399 . S
C680 H666 0.929 . S
C680 C679 1.399 . S
C680 C681 1.385 . S
C681 H667 0.931 . S
C681 C680 1.385 . S
C681 C682 1.389 . S
C682 C681 1.389 . S
C682 C683 1.387 . S
C683 H668 0.930 . S
C683 C678 1.390 . S
C683 C682 1.387 . S
H684 C696 0.930 . S
H685 C698 0.930 . S
H686 C699 0.930 . S
H687 C703 0.959 . S
H688 C703 0.959 . S
H689 C703 0.961 . S
H690 C704 0.960 . S
H691 C704 0.961 . S
H692 C704 0.959 . S
H693 C707 0.929 . S
H694 C708 0.931 . S
H695 C710 0.930 . S
C696 H684 0.930 . S
C696 C697 1.399 . S
C696 C701 1.399 . S
C697 C696 1.399 . S
C697 C698 1.376 . S
C698 H685 0.930 . S
C698 C697 1.376 . S
C698 C699 1.388 . S
C699 H686 0.930 . S
C699 C698 1.388 . S
C699 C700 1.390 . S
C700 C699 1.390 . S
C700 C701 1.394 . S
C700 C706 1.465 . S
C701 C696 1.399 . S
C701 C700 1.394 . S
C701 C702 1.516 . S
C702 C701 1.516 . S
C702 C703 1.502 . S
C702 C704 1.561 . S
C702 C705 1.526 . S
C703 H687 0.959 . S
C703 H688 0.959 . S
C703 H689 0.961 . S
C703 C702 1.502 . S
C704 H690 0.960 . S
C704 H691 0.961 . S
C704 H692 0.959 . S
C704 C702 1.561 . S
C705 C702 1.526 . S
C705 C706 1.396 . S
C705 C710 1.390 . S
C706 C700 1.465 . S
C706 C705 1.396 . S
C706 C707 1.399 . S
C707 H693 0.929 . S
C707 C706 1.399 . S
C707 C708 1.385 . S
C708 H694 0.931 . S
C708 C707 1.385 . S
C708 C709 1.389 . S
C709 C708 1.389 . S
C709 C710 1.387 . S
C710 H695 0.930 . S
C710 C705 1.390 . S
C710 C709 1.387 . S
H711 C723 0.930 . S
H712 C725 0.930 . S
H713 C726 0.930 . S
H714 C730 0.959 . S
H715 C730 0.959 . S
H716 C730 0.961 . S
H717 C731 0.960 . S
H718 C731 0.961 . S
H719 C731 0.959 . S
H720 C734 0.929 . S
H721 C735 0.931 . S
H722 C737 0.930 . S
C723 H711 0.930 . S
C723 C724 1.399 . S
C723 C728 1.399 . S
C724 C723 1.399 . S
C724 C725 1.376 . S
C725 H712 0.930 . S
C725 C724 1.376 . S
C725 C726 1.388 . S
C726 H713 0.930 . S
C726 C725 1.388 . S
C726 C727 1.390 . S
C727 C726 1.390 . S
C727 C728 1.394 . S
C727 C733 1.465 . S
C728 C723 1.399 . S
C728 C727 1.394 . S
C728 C729 1.516 . S
C729 C728 1.516 . S
C729 C730 1.502 . S
C729 C731 1.561 . S
C729 C732 1.526 . S
C730 H714 0.959 . S
C730 H715 0.959 . S
C730 H716 0.961 . S
C730 C729 1.502 . S
C731 H717 0.960 . S
C731 H718 0.961 . S
C731 H719 0.959 . S
C731 C729 1.561 . S
C732 C729 1.526 . S
C732 C733 1.396 . S
C732 C737 1.390 . S
C733 C727 1.465 . S
C733 C732 1.396 . S
C733 C734 1.399 . S
C734 H720 0.929 . S
C734 C733 1.399 . S
C734 C735 1.385 . S
C735 H721 0.931 . S
C735 C734 1.385 . S
C735 C736 1.389 . S
C736 C735 1.389 . S
C736 C737 1.387 . S
C737 H722 0.930 . S
C737 C732 1.390 . S
C737 C736 1.387 . S
H738 C750 0.930 . S
H739 C752 0.930 . S
H740 C753 0.930 . S
H741 C757 0.959 . S
H742 C757 0.959 . S
H743 C757 0.961 . S
H744 C758 0.960 . S
H745 C758 0.961 . S
H746 C758 0.959 . S
H747 C761 0.929 . S
H748 C762 0.931 . S
H749 C764 0.930 . S
C750 H738 0.930 . S
C750 C751 1.399 . S
C750 C755 1.399 . S
C751 C750 1.399 . S
C751 C752 1.376 . S
C752 H739 0.930 . S
C752 C751 1.376 . S
C752 C753 1.388 . S
C753 H740 0.930 . S
C753 C752 1.388 . S
C753 C754 1.390 . S
C754 C753 1.390 . S
C754 C755 1.394 . S
C754 C760 1.465 . S
C755 C750 1.399 . S
C755 C754 1.394 . S
C755 C756 1.516 . S
C756 C755 1.516 . S
C756 C757 1.502 . S
C756 C758 1.561 . S
C756 C759 1.526 . S
C757 H741 0.959 . S
C757 H742 0.959 . S
C757 H743 0.961 . S
C757 C756 1.502 . S
C758 H744 0.960 . S
C758 H745 0.961 . S
C758 H746 0.959 . S
C758 C756 1.561 . S
C759 C756 1.526 . S
C759 C760 1.396 . S
C759 C764 1.390 . S
C760 C754 1.465 . S
C760 C759 1.396 . S
C760 C761 1.399 . S
C761 H747 0.929 . S
C761 C760 1.399 . S
C761 C762 1.385 . S
C762 H748 0.931 . S
C762 C761 1.385 . S
C762 C763 1.389 . S
C763 C762 1.389 . S
C763 C764 1.387 . S
C764 H749 0.930 . S
C764 C759 1.390 . S
C764 C763 1.387 . S
H765 C777 0.930 1_455 S
H766 C779 0.930 . S
H767 C780 0.930 . S
H768 C784 0.959 . S
H769 C784 0.959 . S
H770 C784 0.961 . S
H771 C785 0.960 . S
H772 C785 0.961 . S
H773 C785 0.959 . S
H774 C788 0.929 . S
H775 C789 0.931 . S
H776 C791 0.930 . S
C777 H765 0.930 1_655 S
C777 C778 1.399 . S
C777 C782 1.399 . S
C778 C777 1.399 . S
C778 C779 1.376 . S
C779 H766 0.930 . S
C779 C778 1.376 . S
C779 C780 1.388 . S
C780 H767 0.930 . S
C780 C779 1.388 . S
C780 C781 1.390 . S
C781 C780 1.390 . S
C781 C782 1.394 . S
C781 C787 1.465 . S
C782 C777 1.399 . S
C782 C781 1.394 . S
C782 C783 1.516 1_655 S
C783 C782 1.516 1_455 S
C783 C784 1.502 . S
C783 C785 1.561 . S
C783 C786 1.526 . S
C784 H768 0.959 . S
C784 H769 0.959 . S
C784 H770 0.961 . S
C784 C783 1.502 . S
C785 H771 0.960 . S
C785 H772 0.961 . S
C785 H773 0.959 . S
C785 C783 1.561 . S
C786 C783 1.526 . S
C786 C787 1.396 1_455 S
C786 C791 1.390 . S
C787 C781 1.465 . S
C787 C786 1.396 1_655 S
C787 C788 1.399 . S
C788 H774 0.929 . S
C788 C787 1.399 . S
C788 C789 1.385 . S
C789 H775 0.931 . S
C789 C788 1.385 . S
C789 C790 1.367 1_655 S
C790 C789 1.367 1_455 S
C790 C791 1.404 . S
C791 H776 0.930 . S
C791 C786 1.390 . S
C791 C790 1.404 . S
H792 C804 0.930 . S
H793 C806 0.930 . S
H794 C807 0.930 . S
H795 C811 0.959 . S
H796 C811 0.959 . S
H797 C811 0.961 . S
H798 C812 0.960 . S
H799 C812 0.961 . S
H800 C812 0.959 . S
H801 C815 0.929 . S
H802 C816 0.931 . S
H803 C818 0.930 . S
C804 H792 0.930 . S
C804 C805 1.399 . S
C804 C809 1.399 . S
C805 C804 1.399 . S
C805 C806 1.376 . S
C806 H793 0.930 . S
C806 C805 1.376 . S
C806 C807 1.388 . S
C807 H794 0.930 . S
C807 C806 1.388 . S
C807 C808 1.390 . S
C808 C807 1.390 . S
C808 C809 1.394 . S
C808 C814 1.465 . S
C809 C804 1.399 . S
C809 C808 1.394 . S
C809 C810 1.516 . S
C810 C809 1.516 . S
C810 C811 1.502 . S
C810 C812 1.561 . S
C810 C813 1.526 . S
C811 H795 0.959 . S
C811 H796 0.959 . S
C811 H797 0.961 . S
C811 C810 1.502 . S
C812 H798 0.960 . S
C812 H799 0.961 . S
C812 H800 0.959 . S
C812 C810 1.561 . S
C813 C810 1.526 . S
C813 C814 1.396 . S
C813 C818 1.390 . S
C814 C808 1.465 . S
C814 C813 1.396 . S
C814 C815 1.399 . S
C815 H801 0.929 . S
C815 C814 1.399 . S
C815 C816 1.385 . S
C816 H802 0.931 . S
C816 C815 1.385 . S
C816 C817 1.389 . S
C817 C816 1.389 . S
C817 C818 1.387 . S
C818 H803 0.930 . S
C818 C813 1.390 . S
C818 C817 1.387 . S
H819 C831 0.930 . S
H820 C833 0.930 . S
H821 C834 0.930 . S
H822 C838 0.959 . S
H823 C838 0.959 . S
H824 C838 0.961 . S
H825 C839 0.960 . S
H826 C839 0.961 . S
H827 C839 0.959 . S
H828 C842 0.929 . S
H829 C843 0.931 . S
H830 C845 0.930 . S
C831 H819 0.930 . S
C831 C832 1.399 . S
C831 C836 1.399 . S
C832 C831 1.399 . S
C832 C833 1.376 . S
C833 H820 0.930 . S
C833 C832 1.376 . S
C833 C834 1.388 . S
C834 H821 0.930 . S
C834 C833 1.388 . S
C834 C835 1.390 . S
C835 C834 1.390 . S
C835 C836 1.394 . S
C835 C841 1.465 . S
C836 C831 1.399 . S
C836 C835 1.394 . S
C836 C837 1.516 . S
C837 C836 1.516 . S
C837 C838 1.502 . S
C837 C839 1.561 . S
C837 C840 1.526 . S
C838 H822 0.959 . S
C838 H823 0.959 . S
C838 H824 0.961 . S
C838 C837 1.502 . S
C839 H825 0.960 . S
C839 H826 0.961 . S
C839 H827 0.959 . S
C839 C837 1.561 . S
C840 C837 1.526 . S
C840 C841 1.396 . S
C840 C845 1.390 . S
C841 C835 1.465 . S
C841 C840 1.396 . S
C841 C842 1.399 . S
C842 H828 0.929 . S
C842 C841 1.399 . S
C842 C843 1.385 . S
C843 H829 0.931 . S
C843 C842 1.385 . S
C843 C844 1.389 . S
C844 C843 1.389 . S
C844 C845 1.387 . S
C845 H830 0.930 . S
C845 C840 1.390 . S
C845 C844 1.387 . S
H846 C858 0.930 . S
H847 C860 0.930 . S
H848 C861 0.931 . S
H849 C865 0.959 1_556 S
H850 C865 0.959 . S
H851 C865 0.961 . S
H852 C866 0.960 1_545 S
H853 C866 0.961 . S
H854 C866 0.959 1_545 S
H855 C869 0.929 . S
H856 C870 0.931 . S
H857 C872 0.930 . S
C858 H846 0.930 . S
C858 C859 1.399 . S
C858 C863 1.399 1_545 S
C859 C858 1.399 . S
C859 C860 1.376 . S
C860 H847 0.930 . S
C860 C859 1.376 . S
C860 C861 1.388 . S
C861 H848 0.931 . S
C861 C860 1.388 . S
C861 C862 1.390 1_545 S
C862 C861 1.390 1_565 S
C862 C863 1.394 . S
C862 C868 1.465 . S
C863 C858 1.399 1_565 S
C863 C862 1.394 . S
C863 C864 1.516 1_556 S
C864 C863 1.516 1_554 S
C864 C865 1.502 . S
C864 C866 1.561 . S
C864 C867 1.526 1_554 S
C865 H849 0.959 1_554 S
C865 H850 0.959 . S
C865 H851 0.961 . S
C865 C864 1.502 . S
C866 H852 0.960 1_565 S
C866 H853 0.961 . S
C866 H854 0.959 1_565 S
C866 C864 1.561 . S
C867 C864 1.526 1_556 S
C867 C868 1.396 . S
C867 C872 1.390 1_556 S
C868 C862 1.465 . S
C868 C867 1.396 . S
C868 C869 1.399 . S
C869 H855 0.929 . S
C869 C868 1.399 . S
C869 C870 1.385 . S
C870 H856 0.931 . S
C870 C869 1.385 . S
C870 C871 1.389 . S
C871 C870 1.389 . S
C871 C872 1.387 1_556 S
C872 H857 0.930 . S
C872 C867 1.390 1_554 S
C872 C871 1.387 1_554 S
H873 C885 0.930 . S
H874 C887 0.930 . S
H875 C888 0.930 . S
H876 C892 0.959 . S
H877 C892 0.959 . S
H878 C892 0.961 . S
H879 C893 0.960 . S
H880 C893 0.961 . S
H881 C893 0.959 . S
H882 C896 0.929 . S
H883 C897 0.931 . S
H884 C899 0.930 . S
C885 H873 0.930 . S
C885 C886 1.399 . S
C885 C890 1.399 . S
C886 C885 1.399 . S
C886 C887 1.376 . S
C887 H874 0.930 . S
C887 C886 1.376 . S
C887 C888 1.388 . S
C888 H875 0.930 . S
C888 C887 1.388 . S
C888 C889 1.390 . S
C889 C888 1.390 . S
C889 C890 1.394 . S
C889 C895 1.465 . S
C890 C885 1.399 . S
C890 C889 1.394 . S
C890 C891 1.516 . S
C891 C890 1.516 . S
C891 C892 1.502 . S
C891 C893 1.561 . S
C891 C894 1.526 . S
C892 H876 0.959 . S
C892 H877 0.959 . S
C892 H878 0.961 . S
C892 C891 1.502 . S
C893 H879 0.960 . S
C893 H880 0.961 . S
C893 H881 0.959 . S
C893 C891 1.561 . S
C894 C891 1.526 . S
C894 C895 1.396 . S
C894 C899 1.390 . S
C895 C889 1.465 . S
C895 C894 1.396 . S
C895 C896 1.399 . S
C896 H882 0.929 . S
C896 C895 1.399 . S
C896 C897 1.385 . S
C897 H883 0.931 . S
C897 C896 1.385 . S
C897 C898 1.389 . S
C898 C897 1.389 . S
C898 C899 1.387 . S
C899 H884 0.930 . S
C899 C894 1.390 . S
C899 C898 1.387 . S
H900 C912 0.930 . S
H901 C914 0.930 1_565 S
H902 C915 0.930 . S
H903 C919 0.959 . S
H904 C919 0.959 . S
H905 C919 0.961 . S
H906 C920 0.960 . S
H907 C920 0.961 . S
H908 C920 0.959 . S
H909 C923 0.929 . S
H910 C924 0.931 . S
H911 C926 0.930 . S
C912 H900 0.930 . S
C912 C913 1.399 . S
C912 C917 1.399 . S
C913 C912 1.399 . S
C913 C914 1.376 . S
C914 H901 0.930 1_545 S
C914 C913 1.376 . S
C914 C915 1.388 . S
C915 H902 0.930 . S
C915 C914 1.388 . S
C915 C916 1.390 . S
C916 C915 1.390 . S
C916 C917 1.394 . S
C916 C922 1.465 . S
C917 C912 1.399 . S
C917 C916 1.394 . S
C917 C918 1.516 . S
C918 C917 1.516 . S
C918 C919 1.502 . S
C918 C920 1.561 . S
C918 C921 1.526 . S
C919 H903 0.959 . S
C919 H904 0.959 . S
C919 H905 0.961 . S
C919 C918 1.502 . S
C920 H906 0.960 . S
C920 H907 0.961 . S
C920 H908 0.959 . S
C920 C918 1.561 . S
C921 C918 1.526 . S
C921 C922 1.396 . S
C921 C926 1.390 . S
C922 C916 1.465 . S
C922 C921 1.396 . S
C922 C923 1.399 . S
C923 H909 0.929 . S
C923 C922 1.399 . S
C923 C924 1.385 . S
C924 H910 0.931 . S
C924 C923 1.385 . S
C924 C925 1.389 . S
C925 C924 1.389 . S
C925 C926 1.387 . S
C926 H911 0.930 . S
C926 C921 1.390 . S
C926 C925 1.387 . S
H927 C939 0.930 . S
H928 C941 0.930 . S
H929 C942 0.930 . S
H930 C946 0.959 . S
H931 C946 0.959 . S
H932 C946 0.961 . S
H933 C947 0.960 . S
H934 C947 0.961 . S
H935 C947 0.959 . S
H936 C950 0.929 . S
H937 C951 0.931 . S
H938 C953 0.930 . S
C939 H927 0.930 . S
C939 C940 1.399 . S
C939 C944 1.399 . S
C940 C939 1.399 . S
C940 C941 1.376 . S
C941 H928 0.930 . S
C941 C940 1.376 . S
C941 C942 1.388 . S
C942 H929 0.930 . S
C942 C941 1.388 . S
C942 C943 1.390 . S
C943 C942 1.390 . S
C943 C944 1.394 . S
C943 C949 1.465 . S
C944 C939 1.399 . S
C944 C943 1.394 . S
C944 C945 1.516 . S
C945 C944 1.516 . S
C945 C946 1.502 . S
C945 C947 1.561 . S
C945 C948 1.526 . S
C946 H930 0.959 . S
C946 H931 0.959 . S
C946 H932 0.961 . S
C946 C945 1.502 . S
C947 H933 0.960 . S
C947 H934 0.961 . S
C947 H935 0.959 . S
C947 C945 1.561 . S
C948 C945 1.526 . S
C948 C949 1.396 . S
C948 C953 1.390 . S
C949 C943 1.465 . S
C949 C948 1.396 . S
C949 C950 1.399 . S
C950 H936 0.929 . S
C950 C949 1.399 . S
C950 C951 1.385 . S
C951 H937 0.931 . S
C951 C950 1.385 . S
C951 C952 1.389 . S
C952 C951 1.389 . S
C952 C953 1.387 . S
C953 H938 0.930 . S
C953 C948 1.390 . S
C953 C952 1.387 . S
H954 C966 0.930 . S
H955 C968 0.930 . S
H956 C969 0.930 . S
H957 C973 0.959 . S
H958 C973 0.959 . S
H959 C973 0.961 . S
H960 C974 0.960 . S
H961 C974 0.961 . S
H962 C974 0.959 . S
H963 C977 0.929 . S
H964 C978 0.931 . S
H965 C980 0.930 . S
C966 H954 0.930 . S
C966 C967 1.399 . S
C966 C971 1.399 . S
C967 C966 1.399 . S
C967 C968 1.376 . S
C968 H955 0.930 . S
C968 C967 1.376 . S
C968 C969 1.388 . S
C969 H956 0.930 . S
C969 C968 1.388 . S
C969 C970 1.390 . S
C970 C969 1.390 . S
C970 C971 1.394 . S
C970 C976 1.465 . S
C971 C966 1.399 . S
C971 C970 1.394 . S
C971 C972 1.516 . S
C972 C971 1.516 . S
C972 C973 1.502 . S
C972 C974 1.561 . S
C972 C975 1.526 . S
C973 H957 0.959 . S
C973 H958 0.959 . S
C973 H959 0.961 . S
C973 C972 1.502 . S
C974 H960 0.960 . S
C974 H961 0.961 . S
C974 H962 0.959 . S
C974 C972 1.561 . S
C975 C972 1.526 . S
C975 C976 1.396 . S
C975 C980 1.390 . S
C976 C970 1.465 . S
C976 C975 1.396 . S
C976 C977 1.399 . S
C977 H963 0.929 . S
C977 C976 1.399 . S
C977 C978 1.385 . S
C978 H964 0.931 . S
C978 C977 1.385 . S
C978 C979 1.389 . S
C979 C978 1.389 . S
C979 C980 1.387 . S
C980 H965 0.930 . S
C980 C975 1.390 . S
C980 C979 1.387 . S
H981 C993 0.930 . S
H982 C995 0.930 . S
H983 C996 0.930 . S
H984 C1000 0.959 . S
H985 C1000 0.959 . S
H986 C1000 0.961 . S
H987 C1001 0.960 . S
H988 C1001 0.961 . S
H989 C1001 0.959 . S
H990 C1004 0.929 . S
H991 C1005 0.931 . S
H992 C1007 0.930 . S
C993 H981 0.930 . S
C993 C994 1.399 . S
C993 C998 1.399 . S
C994 C993 1.399 . S
C994 C995 1.376 . S
C995 H982 0.930 . S
C995 C994 1.376 . S
C995 C996 1.388 . S
C996 H983 0.930 . S
C996 C995 1.388 . S
C996 C997 1.390 . S
C997 C996 1.390 . S
C997 C998 1.394 . S
C997 C1003 1.465 . S
C998 C993 1.399 . S
C998 C997 1.394 . S
C998 C999 1.516 . S
C999 C998 1.516 . S
C999 C1000 1.502 . S
C999 C1001 1.561 . S
C999 C1002 1.526 . S
C1000 H984 0.959 . S
C1000 H985 0.959 . S
C1000 H986 0.961 . S
C1000 C999 1.502 . S
C1001 H987 0.960 . S
C1001 H988 0.961 . S
C1001 H989 0.959 . S
C1001 C999 1.561 . S
C1002 C999 1.526 . S
C1002 C1003 1.396 . S
C1002 C1007 1.390 . S
C1003 C997 1.465 . S
C1003 C1002 1.396 . S
C1003 C1004 1.399 . S
C1004 H990 0.929 . S
C1004 C1003 1.399 . S
C1004 C1005 1.385 . S
C1005 H991 0.931 . S
C1005 C1004 1.385 . S
C1005 C1006 1.389 . S
C1006 C1005 1.389 . S
C1006 C1007 1.387 . S
C1007 H992 0.930 . S
C1007 C1002 1.390 . S
C1007 C1006 1.387 . S
H1008 C1020 0.930 . S
H1009 C1022 0.930 . S
H1010 C1023 0.930 . S
H1011 C1027 0.959 . S
H1012 C1027 0.959 . S
H1013 C1027 0.961 . S
H1014 C1028 0.960 . S
H1015 C1028 0.961 . S
H1016 C1028 0.959 . S
H1017 C1031 0.929 . S
H1018 C1032 0.931 . S
H1019 C1034 0.930 . S
C1020 H1008 0.930 . S
C1020 C1021 1.399 . S
C1020 C1025 1.399 . S
C1021 C1020 1.399 . S
C1021 C1022 1.376 . S
C1022 H1009 0.930 . S
C1022 C1021 1.376 . S
C1022 C1023 1.388 . S
C1023 H1010 0.930 . S
C1023 C1022 1.388 . S
C1023 C1024 1.390 . S
C1024 C1023 1.390 . S
C1024 C1025 1.394 . S
C1024 C1030 1.465 . S
C1025 C1020 1.399 . S
C1025 C1024 1.394 . S
C1025 C1026 1.516 . S
C1026 C1025 1.516 . S
C1026 C1027 1.502 . S
C1026 C1028 1.561 . S
C1026 C1029 1.526 . S
C1027 H1011 0.959 . S
C1027 H1012 0.959 . S
C1027 H1013 0.961 . S
C1027 C1026 1.502 . S
C1028 H1014 0.960 . S
C1028 H1015 0.961 . S
C1028 H1016 0.959 . S
C1028 C1026 1.561 . S
C1029 C1026 1.526 . S
C1029 C1030 1.396 . S
C1029 C1034 1.390 . S
C1030 C1024 1.465 . S
C1030 C1029 1.396 . S
C1030 C1031 1.399 . S
C1031 H1017 0.929 . S
C1031 C1030 1.399 . S
C1031 C1032 1.385 . S
C1032 H1018 0.931 . S
C1032 C1031 1.385 . S
C1032 C1033 1.389 . S
C1033 C1032 1.389 . S
C1033 C1034 1.387 . S
C1034 H1019 0.930 . S
C1034 C1029 1.390 . S
C1034 C1033 1.387 . S
H1035 C1047 0.930 . S
H1036 C1049 0.930 . S
H1037 C1050 0.930 . S
H1038 C1054 0.959 . S
H1039 C1054 0.959 . S
H1040 C1054 0.961 . S
H1041 C1055 0.960 . S
H1042 C1055 0.961 . S
H1043 C1055 0.959 1_565 S
H1044 C1058 0.929 . S
H1045 C1059 0.931 . S
H1046 C1061 0.930 . S
C1047 H1035 0.930 . S
C1047 C1048 1.399 . S
C1047 C1052 1.399 . S
C1048 C1047 1.399 . S
C1048 C1049 1.376 . S
C1049 H1036 0.930 . S
C1049 C1048 1.376 . S
C1049 C1050 1.388 . S
C1050 H1037 0.930 . S
C1050 C1049 1.388 . S
C1050 C1051 1.390 . S
C1051 C1050 1.390 . S
C1051 C1052 1.394 . S
C1051 C1057 1.465 . S
C1052 C1047 1.399 . S
C1052 C1051 1.394 . S
C1052 C1053 1.516 . S
C1053 C1052 1.516 . S
C1053 C1054 1.502 . S
C1053 C1055 1.561 . S
C1053 C1056 1.526 . S
C1054 H1038 0.959 . S
C1054 H1039 0.959 . S
C1054 H1040 0.961 . S
C1054 C1053 1.502 . S
C1055 H1041 0.960 . S
C1055 H1042 0.961 . S
C1055 H1043 0.959 1_545 S
C1055 C1053 1.561 . S
C1056 C1053 1.526 . S
C1056 C1057 1.396 . S
C1056 C1061 1.390 . S
C1057 C1051 1.465 . S
C1057 C1056 1.396 . S
C1057 C1058 1.399 . S
C1058 H1044 0.929 . S
C1058 C1057 1.399 . S
C1058 C1059 1.385 . S
C1059 H1045 0.931 . S
C1059 C1058 1.385 . S
C1059 C1060 1.389 . S
C1060 C1059 1.389 . S
C1060 C1061 1.387 . S
C1061 H1046 0.930 . S
C1061 C1056 1.390 . S
C1061 C1060 1.387 . S
H1062 C1074 0.930 . S
H1063 C1076 0.930 . S
H1064 C1077 0.930 . S
H1065 C1081 0.959 . S
H1066 C1081 0.959 . S
H1067 C1081 0.961 . S
H1068 C1082 0.960 . S
H1069 C1082 0.961 . S
H1070 C1082 0.959 . S
H1071 C1085 0.929 . S
H1072 C1086 0.931 . S
H1073 C1088 0.930 . S
C1074 H1062 0.930 . S
C1074 C1075 1.399 . S
C1074 C1079 1.399 . S
C1075 C1074 1.399 . S
C1075 C1076 1.376 . S
C1076 H1063 0.930 . S
C1076 C1075 1.376 . S
C1076 C1077 1.388 . S
C1077 H1064 0.930 . S
C1077 C1076 1.388 . S
C1077 C1078 1.390 . S
C1078 C1077 1.390 . S
C1078 C1079 1.394 . S
C1078 C1084 1.465 . S
C1079 C1074 1.399 . S
C1079 C1078 1.394 . S
C1079 C1080 1.516 . S
C1080 C1079 1.516 . S
C1080 C1081 1.502 . S
C1080 C1082 1.561 . S
C1080 C1083 1.526 . S
C1081 H1065 0.959 . S
C1081 H1066 0.959 . S
C1081 H1067 0.961 . S
C1081 C1080 1.502 . S
C1082 H1068 0.960 . S
C1082 H1069 0.961 . S
C1082 H1070 0.959 . S
C1082 C1080 1.561 . S
C1083 C1080 1.526 . S
C1083 C1084 1.396 . S
C1083 C1088 1.390 . S
C1084 C1078 1.465 . S
C1084 C1083 1.396 . S
C1084 C1085 1.399 . S
C1085 H1071 0.929 . S
C1085 C1084 1.399 . S
C1085 C1086 1.385 . S
C1086 H1072 0.931 . S
C1086 C1085 1.385 . S
C1086 C1087 1.389 . S
C1087 C1086 1.389 . S
C1087 C1088 1.387 . S
C1088 H1073 0.930 . S
C1088 C1083 1.390 . S
C1088 C1087 1.387 . S
H1089 C1101 0.930 . S
H1090 C1103 0.930 . S
H1091 C1104 0.930 . S
H1092 C1108 0.959 . S
H1093 C1108 0.959 . S
H1094 C1108 0.961 . S
H1095 C1109 0.960 . S
H1096 C1109 0.961 . S
H1097 C1109 0.959 . S
H1098 C1112 0.929 . S
H1099 C1113 0.931 . S
H1100 C1115 0.930 . S
C1101 H1089 0.930 . S
C1101 C1102 1.399 . S
C1101 C1106 1.399 . S
C1102 C1101 1.399 . S
C1102 C1103 1.376 . S
C1103 H1090 0.930 . S
C1103 C1102 1.376 . S
C1103 C1104 1.388 . S
C1104 H1091 0.930 . S
C1104 C1103 1.388 . S
C1104 C1105 1.390 . S
C1105 C1104 1.390 . S
C1105 C1106 1.394 . S
C1105 C1111 1.465 . S
C1106 C1101 1.399 . S
C1106 C1105 1.394 . S
C1106 C1107 1.516 . S
C1107 C1106 1.516 . S
C1107 C1108 1.502 . S
C1107 C1109 1.561 . S
C1107 C1110 1.526 . S
C1108 H1092 0.959 . S
C1108 H1093 0.959 . S
C1108 H1094 0.961 . S
C1108 C1107 1.502 . S
C1109 H1095 0.960 . S
C1109 H1096 0.961 . S
C1109 H1097 0.959 . S
C1109 C1107 1.561 . S
C1110 C1107 1.526 . S
C1110 C1111 1.396 . S
C1110 C1115 1.390 . S
C1111 C1105 1.465 . S
C1111 C1110 1.396 . S
C1111 C1112 1.399 . S
C1112 H1098 0.929 . S
C1112 C1111 1.399 . S
C1112 C1113 1.385 . S
C1113 H1099 0.931 . S
C1113 C1112 1.385 . S
C1113 C1114 1.389 . S
C1114 C1113 1.389 . S
C1114 C1115 1.387 . S
C1115 H1100 0.930 . S
C1115 C1110 1.390 . S
C1115 C1114 1.387 . S
H1116 C1128 0.930 . S
H1117 C1130 0.930 . S
H1118 C1131 0.930 . S
H1119 C1135 0.959 . S
H1120 C1135 0.959 . S
H1121 C1135 0.961 . S
H1122 C1136 0.960 . S
H1123 C1136 0.961 . S
H1124 C1136 0.959 . S
H1125 C1139 0.929 . S
H1126 C1140 0.931 . S
H1127 C1142 0.930 . S
C1128 H1116 0.930 . S
C1128 C1129 1.399 . S
C1128 C1133 1.399 . S
C1129 C1128 1.399 . S
C1129 C1130 1.376 . S
C1130 H1117 0.930 . S
C1130 C1129 1.376 . S
C1130 C1131 1.388 . S
C1131 H1118 0.930 . S
C1131 C1130 1.388 . S
C1131 C1132 1.390 . S
C1132 C1131 1.390 . S
C1132 C1133 1.394 . S
C1132 C1138 1.465 . S
C1133 C1128 1.399 . S
C1133 C1132 1.394 . S
C1133 C1134 1.516 . S
C1134 C1133 1.516 . S
C1134 C1135 1.502 . S
C1134 C1136 1.561 . S
C1134 C1137 1.526 . S
C1135 H1119 0.959 . S
C1135 H1120 0.959 . S
C1135 H1121 0.961 . S
C1135 C1134 1.502 . S
C1136 H1122 0.960 . S
C1136 H1123 0.961 . S
C1136 H1124 0.959 . S
C1136 C1134 1.561 . S
C1137 C1134 1.526 . S
C1137 C1138 1.396 . S
C1137 C1142 1.390 . S
C1138 C1132 1.465 . S
C1138 C1137 1.396 . S
C1138 C1139 1.399 . S
C1139 H1125 0.929 . S
C1139 C1138 1.399 . S
C1139 C1140 1.385 . S
C1140 H1126 0.931 . S
C1140 C1139 1.385 . S
C1140 C1141 1.389 . S
C1141 C1140 1.389 . S
C1141 C1142 1.387 . S
C1142 H1127 0.930 . S
C1142 C1137 1.390 . S
C1142 C1141 1.387 . S
H1143 C1155 0.930 . S
H1144 C1157 0.930 1_565 S
H1145 C1158 0.912 1_655 S
H1146 C1162 0.959 . S
H1147 C1162 0.959 . S
H1148 C1162 0.961 . S
H1149 C1163 0.960 1_455 S
H1150 C1163 0.961 . S
H1151 C1163 0.959 . S
H1152 C1166 0.929 . S
H1153 C1167 0.931 1_565 S
H1154 C1169 0.930 . S
C1155 H1143 0.930 . S
C1155 C1156 1.399 . S
C1155 C1160 1.399 . S
C1156 C1155 1.399 . S
C1156 C1157 1.376 . S
C1157 H1144 0.930 1_545 S
C1157 C1156 1.376 . S
C1157 C1158 1.388 1_545 S
C1158 H1145 0.912 1_455 S
C1158 C1157 1.388 1_565 S
C1158 C1159 1.390 1_565 S
C1159 C1158 1.390 1_545 S
C1159 C1160 1.394 . S
C1159 C1165 1.465 1_455 S
C1160 C1155 1.399 . S
C1160 C1159 1.394 . S
C1160 C1161 1.516 . S
C1161 C1160 1.516 . S
C1161 C1162 1.502 . S
C1161 C1163 1.561 1_455 S
C1161 C1164 1.550 . S
C1162 H1146 0.959 . S
C1162 H1147 0.959 . S
C1162 H1148 0.961 . S
C1162 C1161 1.502 . S
C1163 H1149 0.960 1_655 S
C1163 H1150 0.961 . S
C1163 H1151 0.959 . S
C1163 C1161 1.561 1_655 S
C1164 C1161 1.550 . S
C1164 C1165 1.393 1_455 S
C1164 C1169 1.371 1_455 S
C1165 C1159 1.465 1_655 S
C1165 C1164 1.393 1_655 S
C1165 C1166 1.399 1_545 S
C1166 H1152 0.929 . S
C1166 C1165 1.399 1_565 S
C1166 C1167 1.385 1_565 S
C1167 H1153 0.931 1_545 S
C1167 C1166 1.385 1_545 S
C1167 C1168 1.389 . S
C1168 C1167 1.389 . S
C1168 C1169 1.387 . S
C1169 H1154 0.930 . S
C1169 C1164 1.371 1_655 S
C1169 C1168 1.387 . S
H1170 C1182 0.930 . S
H1171 C1184 0.930 . S
H1172 C1185 0.930 . S
H1173 C1189 0.959 . S
H1174 C1189 0.959 . S
H1175 C1189 0.961 . S
H1176 C1190 0.960 . S
H1177 C1190 0.961 . S
H1178 C1190 0.959 . S
H1179 C1193 0.929 . S
H1180 C1194 0.931 . S
H1181 C1196 0.930 . S
C1182 H1170 0.930 . S
C1182 C1183 1.399 . S
C1182 C1187 1.399 . S
C1183 C1182 1.399 . S
C1183 C1184 1.376 . S
C1184 H1171 0.930 . S
C1184 C1183 1.376 . S
C1184 C1185 1.388 . S
C1185 H1172 0.930 . S
C1185 C1184 1.388 . S
C1185 C1186 1.390 . S
C1186 C1185 1.390 . S
C1186 C1187 1.394 . S
C1186 C1192 1.465 . S
C1187 C1182 1.399 . S
C1187 C1186 1.394 . S
C1187 C1188 1.516 . S
C1188 C1187 1.516 . S
C1188 C1189 1.502 . S
C1188 C1190 1.561 . S
C1188 C1191 1.526 . S
C1189 H1173 0.959 . S
C1189 H1174 0.959 . S
C1189 H1175 0.961 . S
C1189 C1188 1.502 . S
C1190 H1176 0.960 . S
C1190 H1177 0.961 . S
C1190 H1178 0.959 . S
C1190 C1188 1.561 . S
C1191 C1188 1.526 . S
C1191 C1192 1.396 . S
C1191 C1196 1.390 . S
C1192 C1186 1.465 . S
C1192 C1191 1.396 . S
C1192 C1193 1.399 . S
C1193 H1179 0.929 . S
C1193 C1192 1.399 . S
C1193 C1194 1.385 . S
C1194 H1180 0.931 . S
C1194 C1193 1.385 . S
C1194 C1195 1.389 . S
C1195 C1194 1.389 . S
C1195 C1196 1.387 . S
C1196 H1181 0.930 . S
C1196 C1191 1.390 . S
C1196 C1195 1.387 . S
H1197 C1209 0.934 . S
H1198 C1211 0.930 1_655 S
H1199 C1212 0.930 . S
H1200 C1216 0.959 . S
H1201 C1216 0.959 . S
H1202 C1216 0.961 . S
H1203 C1217 0.960 . S
H1204 C1217 0.961 . S
H1205 C1217 0.959 . S
H1206 C1220 0.929 . S
H1207 C1221 0.931 . S
H1208 C1223 0.930 . S
C1209 H1197 0.934 . S
C1209 C1210 1.399 1_455 S
C1209 C1214 1.399 . S
C1210 C1209 1.399 1_655 S
C1210 C1211 1.376 1_655 S
C1211 H1198 0.930 1_455 S
C1211 C1210 1.376 1_455 S
C1211 C1212 1.388 . S
C1212 H1199 0.930 . S
C1212 C1211 1.388 . S
C1212 C1213 1.390 . S
C1213 C1212 1.390 . S
C1213 C1214 1.394 . S
C1213 C1219 1.465 . S
C1214 C1209 1.399 . S
C1214 C1213 1.394 . S
C1214 C1215 1.516 . S
C1215 C1214 1.516 . S
C1215 C1216 1.502 . S
C1215 C1217 1.561 . S
C1215 C1218 1.526 . S
C1216 H1200 0.959 . S
C1216 H1201 0.959 . S
C1216 H1202 0.961 . S
C1216 C1215 1.502 . S
C1217 H1203 0.960 . S
C1217 H1204 0.961 . S
C1217 H1205 0.959 . S
C1217 C1215 1.561 . S
C1218 C1215 1.526 . S
C1218 C1219 1.396 . S
C1218 C1223 1.390 . S
C1219 C1213 1.465 . S
C1219 C1218 1.396 . S
C1219 C1220 1.399 . S
C1220 H1206 0.929 . S
C1220 C1219 1.399 . S
C1220 C1221 1.385 . S
C1221 H1207 0.931 . S
C1221 C1220 1.385 . S
C1221 C1222 1.389 . S
C1222 C1221 1.389 . S
C1222 C1223 1.387 . S
C1223 H1208 0.930 . S
C1223 C1218 1.390 . S
C1223 C1222 1.387 . S
H1224 C1236 0.930 . S
H1225 C1238 0.930 . S
H1226 C1239 0.930 . S
H1227 C1243 0.959 . S
H1228 C1243 0.959 . S
H1229 C1243 0.961 . S
H1230 C1244 0.960 . S
H1231 C1244 0.961 . S
H1232 C1244 0.959 . S
H1233 C1247 0.929 . S
H1234 C1248 0.931 . S
H1235 C1250 0.930 . S
C1236 H1224 0.930 . S
C1236 C1237 1.399 . S
C1236 C1241 1.399 . S
C1237 C1236 1.399 . S
C1237 C1238 1.376 . S
C1238 H1225 0.930 . S
C1238 C1237 1.376 . S
C1238 C1239 1.388 . S
C1239 H1226 0.930 . S
C1239 C1238 1.388 . S
C1239 C1240 1.390 . S
C1240 C1239 1.390 . S
C1240 C1241 1.394 . S
C1240 C1246 1.465 . S
C1241 C1236 1.399 . S
C1241 C1240 1.394 . S
C1241 C1242 1.516 . S
C1242 C1241 1.516 . S
C1242 C1243 1.502 . S
C1242 C1244 1.561 . S
C1242 C1245 1.526 . S
C1243 H1227 0.959 . S
C1243 H1228 0.959 . S
C1243 H1229 0.961 . S
C1243 C1242 1.502 . S
C1244 H1230 0.960 . S
C1244 H1231 0.961 . S
C1244 H1232 0.959 . S
C1244 C1242 1.561 . S
C1245 C1242 1.526 . S
C1245 C1246 1.396 . S
C1245 C1250 1.390 . S
C1246 C1240 1.465 . S
C1246 C1245 1.396 . S
C1246 C1247 1.399 . S
C1247 H1233 0.929 . S
C1247 C1246 1.399 . S
C1247 C1248 1.385 . S
C1248 H1234 0.931 . S
C1248 C1247 1.385 . S
C1248 C1249 1.389 . S
C1249 C1248 1.389 . S
C1249 C1250 1.387 . S
C1250 H1235 0.930 . S
C1250 C1245 1.390 . S
C1250 C1249 1.387 . S
H1251 C1263 0.930 . S
H1252 C1265 0.930 . S
H1253 C1266 0.930 . S
H1254 C1270 0.959 . S
H1255 C1270 0.959 . S
H1256 C1270 0.961 1_554 S
H1257 C1271 0.960 1_554 S
H1258 C1271 0.961 . S
H1259 C1271 0.959 . S
H1260 C1274 0.929 . S
H1261 C1275 0.931 . S
H1262 C1277 0.918 1_455 S
C1263 H1251 0.930 . S
C1263 C1264 1.395 1_554 S
C1263 C1268 1.399 1_554 S
C1264 C1263 1.395 1_556 S
C1264 C1265 1.410 . S
C1265 H1252 0.930 . S
C1265 C1264 1.410 . S
C1265 C1266 1.388 . S
C1266 H1253 0.930 . S
C1266 C1265 1.388 . S
C1266 C1267 1.390 . S
C1267 C1266 1.390 . S
C1267 C1268 1.394 . S
C1267 C1273 1.465 . S
C1268 C1263 1.399 1_556 S
C1268 C1267 1.394 . S
C1268 C1269 1.516 . S
C1269 C1268 1.516 . S
C1269 C1270 1.502 1_655 S
C1269 C1271 1.561 . S
C1269 C1272 1.526 . S
C1270 H1254 0.959 . S
C1270 H1255 0.959 . S
C1270 H1256 0.961 1_556 S
C1270 C1269 1.502 1_455 S
C1271 H1257 0.960 1_556 S
C1271 H1258 0.961 . S
C1271 H1259 0.959 . S
C1271 C1269 1.561 . S
C1272 C1269 1.526 . S
C1272 C1273 1.396 . S
C1272 C1277 1.390 . S
C1273 C1267 1.465 . S
C1273 C1272 1.396 . S
C1273 C1274 1.399 . S
C1274 H1260 0.929 . S
C1274 C1273 1.399 . S
C1274 C1275 1.385 . S
C1275 H1261 0.931 . S
C1275 C1274 1.385 . S
C1275 C1276 1.389 . S
C1276 C1275 1.389 . S
C1276 C1277 1.387 . S
C1277 H1262 0.918 1_655 S
C1277 C1272 1.390 . S
C1277 C1276 1.387 . S
H1278 C1290 0.930 . S
H1279 C1292 0.930 . S
H1280 C1293 0.930 . S
H1281 C1297 0.959 . S
H1282 C1297 0.959 . S
H1283 C1297 0.961 . S
H1284 C1298 0.960 . S
H1285 C1298 0.961 . S
H1286 C1298 0.959 . S
H1287 C1301 0.929 . S
H1288 C1302 0.931 . S
H1289 C1304 0.930 . S
C1290 H1278 0.930 . S
C1290 C1291 1.399 . S
C1290 C1295 1.399 . S
C1291 C1290 1.399 . S
C1291 C1292 1.376 . S
C1292 H1279 0.930 . S
C1292 C1291 1.376 . S
C1292 C1293 1.388 . S
C1293 H1280 0.930 . S
C1293 C1292 1.388 . S
C1293 C1294 1.390 . S
C1294 C1293 1.390 . S
C1294 C1295 1.394 . S
C1294 C1300 1.465 . S
C1295 C1290 1.399 . S
C1295 C1294 1.394 . S
C1295 C1296 1.516 . S
C1296 C1295 1.516 . S
C1296 C1297 1.502 . S
C1296 C1298 1.561 . S
C1296 C1299 1.526 . S
C1297 H1281 0.959 . S
C1297 H1282 0.959 . S
C1297 H1283 0.961 . S
C1297 C1296 1.502 . S
C1298 H1284 0.960 . S
C1298 H1285 0.961 . S
C1298 H1286 0.959 . S
C1298 C1296 1.561 . S
C1299 C1296 1.526 . S
C1299 C1300 1.396 . S
C1299 C1304 1.390 . S
C1300 C1294 1.465 . S
C1300 C1299 1.396 . S
C1300 C1301 1.399 . S
C1301 H1287 0.929 . S
C1301 C1300 1.399 . S
C1301 C1302 1.385 . S
C1302 H1288 0.931 . S
C1302 C1301 1.385 . S
C1302 C1303 1.389 . S
C1303 C1302 1.389 . S
C1303 C1304 1.387 . S
C1304 H1289 0.930 . S
C1304 C1299 1.390 . S
C1304 C1303 1.387 . S
H1305 C1317 0.930 1_554 S
H1306 C1319 0.930 . S
H1307 C1320 0.930 . S
H1308 C1324 0.959 . S
H1309 C1324 0.959 . S
H1310 C1324 0.961 . S
H1311 C1325 0.960 1_554 S
H1312 C1325 0.961 . S
H1313 C1325 0.959 . S
H1314 C1328 0.929 . S
H1315 C1329 0.931 . S
H1316 C1331 0.930 . S
C1317 H1305 0.930 1_556 S
C1317 C1318 1.399 . S
C1317 C1322 1.399 . S
C1318 C1317 1.399 . S
C1318 C1319 1.376 . S
C1319 H1306 0.930 . S
C1319 C1318 1.376 . S
C1319 C1320 1.388 . S
C1320 H1307 0.930 . S
C1320 C1319 1.388 . S
C1320 C1321 1.390 . S
C1321 C1320 1.390 . S
C1321 C1322 1.394 . S
C1321 C1327 1.465 . S
C1322 C1317 1.399 . S
C1322 C1321 1.394 . S
C1322 C1323 1.516 . S
C1323 C1322 1.516 . S
C1323 C1324 1.502 1_455 S
C1323 C1325 1.561 . S
C1323 C1326 1.526 . S
C1324 H1308 0.959 . S
C1324 H1309 0.959 . S
C1324 H1310 0.961 . S
C1324 C1323 1.502 1_655 S
C1325 H1311 0.960 1_556 S
C1325 H1312 0.961 . S
C1325 H1313 0.959 . S
C1325 C1323 1.561 . S
C1326 C1323 1.526 . S
C1326 C1327 1.396 . S
C1326 C1331 1.390 . S
C1327 C1321 1.465 . S
C1327 C1326 1.396 . S
C1327 C1328 1.399 . S
C1328 H1314 0.929 . S
C1328 C1327 1.399 . S
C1328 C1329 1.385 . S
C1329 H1315 0.931 . S
C1329 C1328 1.385 . S
C1329 C1330 1.389 . S
C1330 C1329 1.389 . S
C1330 C1331 1.387 . S
C1331 H1316 0.930 . S
C1331 C1326 1.390 . S
C1331 C1330 1.387 . S
H1332 C1344 0.930 . S
H1333 C1346 0.930 . S
H1334 C1347 0.930 . S
H1335 C1351 0.959 . S
H1336 C1351 0.959 . S
H1337 C1351 0.961 . S
H1338 C1352 0.960 . S
H1339 C1352 0.961 . S
H1340 C1352 0.959 . S
H1341 C1355 0.929 . S
H1342 C1356 0.931 . S
H1343 C1358 0.930 . S
C1344 H1332 0.930 . S
C1344 C1345 1.399 . S
C1344 C1349 1.399 . S
C1345 C1344 1.399 . S
C1345 C1346 1.376 . S
C1346 H1333 0.930 . S
C1346 C1345 1.376 . S
C1346 C1347 1.388 . S
C1347 H1334 0.930 . S
C1347 C1346 1.388 . S
C1347 C1348 1.390 . S
C1348 C1347 1.390 . S
C1348 C1349 1.394 . S
C1348 C1354 1.465 . S
C1349 C1344 1.399 . S
C1349 C1348 1.394 . S
C1349 C1350 1.516 . S
C1350 C1349 1.516 . S
C1350 C1351 1.502 . S
C1350 C1352 1.561 . S
C1350 C1353 1.526 . S
C1351 H1335 0.959 . S
C1351 H1336 0.959 . S
C1351 H1337 0.961 . S
C1351 C1350 1.502 . S
C1352 H1338 0.960 . S
C1352 H1339 0.961 . S
C1352 H1340 0.959 . S
C1352 C1350 1.561 . S
C1353 C1350 1.526 . S
C1353 C1354 1.396 . S
C1353 C1358 1.390 . S
C1354 C1348 1.465 . S
C1354 C1353 1.396 . S
C1354 C1355 1.399 . S
C1355 H1341 0.929 . S
C1355 C1354 1.399 . S
C1355 C1356 1.385 . S
C1356 H1342 0.931 . S
C1356 C1355 1.385 . S
C1356 C1357 1.389 . S
C1357 C1356 1.389 . S
C1357 C1358 1.387 . S
C1358 H1343 0.930 . S
C1358 C1353 1.390 . S
C1358 C1357 1.387 . S
H1359 C1371 0.930 . S
H1360 C1373 0.930 . S
H1361 C1374 0.930 1_556 S
H1362 C1378 0.959 . S
H1363 C1378 0.959 . S
H1364 C1378 0.961 . S
H1365 C1379 0.960 . S
H1366 C1379 0.961 . S
H1367 C1379 0.959 . S
H1368 C1382 0.929 . S
H1369 C1383 0.931 . S
H1370 C1385 0.930 . S
C1371 H1359 0.930 . S
C1371 C1372 1.399 . S
C1371 C1376 1.399 . S
C1372 C1371 1.399 . S
C1372 C1373 1.376 1_554 S
C1373 H1360 0.930 . S
C1373 C1372 1.376 1_556 S
C1373 C1374 1.388 1_556 S
C1374 H1361 0.930 1_554 S
C1374 C1373 1.388 1_554 S
C1374 C1375 1.390 . S
C1375 C1374 1.390 . S
C1375 C1376 1.394 . S
C1375 C1381 1.465 . S
C1376 C1371 1.399 . S
C1376 C1375 1.394 . S
C1376 C1377 1.516 . S
C1377 C1376 1.516 . S
C1377 C1378 1.502 . S
C1377 C1379 1.561 . S
C1377 C1380 1.526 . S
C1378 H1362 0.959 . S
C1378 H1363 0.959 . S
C1378 H1364 0.961 . S
C1378 C1377 1.502 . S
C1379 H1365 0.960 . S
C1379 H1366 0.961 . S
C1379 H1367 0.959 . S
C1379 C1377 1.561 . S
C1380 C1377 1.526 . S
C1380 C1381 1.396 . S
C1380 C1385 1.390 . S
C1381 C1375 1.465 . S
C1381 C1380 1.396 . S
C1381 C1382 1.399 . S
C1382 H1368 0.929 . S
C1382 C1381 1.399 . S
C1382 C1383 1.385 . S
C1383 H1369 0.931 . S
C1383 C1382 1.385 . S
C1383 C1384 1.389 . S
C1384 C1383 1.389 . S
C1384 C1385 1.387 . S
C1385 H1370 0.930 . S
C1385 C1380 1.390 . S
C1385 C1384 1.387 . S
H1386 C1398 0.930 . S
H1387 C1400 0.930 . S
H1388 C1401 0.930 . S
H1389 C1405 0.959 . S
H1390 C1405 0.959 . S
H1391 C1405 0.961 . S
H1392 C1406 0.960 . S
H1393 C1406 0.961 . S
H1394 C1406 0.959 . S
H1395 C1409 0.929 . S
H1396 C1410 0.931 . S
H1397 C1412 0.930 . S
C1398 H1386 0.930 . S
C1398 C1399 1.399 . S
C1398 C1403 1.399 . S
C1399 C1398 1.399 . S
C1399 C1400 1.376 . S
C1400 H1387 0.930 . S
C1400 C1399 1.376 . S
C1400 C1401 1.388 . S
C1401 H1388 0.930 . S
C1401 C1400 1.388 . S
C1401 C1402 1.390 . S
C1402 C1401 1.390 . S
C1402 C1403 1.394 . S
C1402 C1408 1.465 . S
C1403 C1398 1.399 . S
C1403 C1402 1.394 . S
C1403 C1404 1.516 . S
C1404 C1403 1.516 . S
C1404 C1405 1.502 . S
C1404 C1406 1.561 . S
C1404 C1407 1.526 . S
C1405 H1389 0.959 . S
C1405 H1390 0.959 . S
C1405 H1391 0.961 . S
C1405 C1404 1.502 . S
C1406 H1392 0.960 . S
C1406 H1393 0.961 . S
C1406 H1394 0.959 . S
C1406 C1404 1.561 . S
C1407 C1404 1.526 . S
C1407 C1408 1.396 . S
C1407 C1412 1.390 . S
C1408 C1402 1.465 . S
C1408 C1407 1.396 . S
C1408 C1409 1.399 . S
C1409 H1395 0.929 . S
C1409 C1408 1.399 . S
C1409 C1410 1.385 . S
C1410 H1396 0.931 . S
C1410 C1409 1.385 . S
C1410 C1411 1.389 . S
C1411 C1410 1.389 . S
C1411 C1412 1.387 . S
C1412 H1397 0.930 . S
C1412 C1407 1.390 . S
C1412 C1411 1.387 . S
H1413 C1425 0.930 . S
H1414 C1427 0.930 . S
H1415 C1428 0.930 . S
H1416 C1432 0.959 . S
H1417 C1432 0.959 . S
H1418 C1432 0.961 1_556 S
H1419 C1433 0.960 1_556 S
H1420 C1433 0.961 . S
H1421 C1433 0.959 . S
H1422 C1436 0.929 . S
H1423 C1437 0.931 . S
H1424 C1439 0.930 . S
C1425 H1413 0.930 . S
C1425 C1426 1.399 . S
C1425 C1430 1.399 1_556 S
C1426 C1425 1.399 . S
C1426 C1427 1.376 1_556 S
C1427 H1414 0.930 . S
C1427 C1426 1.376 1_554 S
C1427 C1428 1.388 . S
C1428 H1415 0.930 . S
C1428 C1427 1.388 . S
C1428 C1429 1.390 . S
C1429 C1428 1.390 . S
C1429 C1430 1.394 . S
C1429 C1435 1.465 . S
C1430 C1425 1.399 1_554 S
C1430 C1429 1.394 . S
C1430 C1431 1.516 . S
C1431 C1430 1.516 . S
C1431 C1432 1.502 . S
C1431 C1433 1.561 . S
C1431 C1434 1.526 . S
C1432 H1416 0.959 . S
C1432 H1417 0.959 . S
C1432 H1418 0.961 1_554 S
C1432 C1431 1.502 . S
C1433 H1419 0.960 1_554 S
C1433 H1420 0.961 . S
C1433 H1421 0.959 . S
C1433 C1431 1.561 . S
C1434 C1431 1.526 . S
C1434 C1435 1.396 . S
C1434 C1439 1.390 . S
C1435 C1429 1.465 . S
C1435 C1434 1.396 . S
C1435 C1436 1.399 . S
C1436 H1422 0.929 . S
C1436 C1435 1.399 . S
C1436 C1437 1.385 . S
C1437 H1423 0.931 . S
C1437 C1436 1.385 . S
C1437 C1438 1.389 . S
C1438 C1437 1.389 . S
C1438 C1439 1.387 . S
C1439 H1424 0.930 . S
C1439 C1434 1.390 . S
C1439 C1438 1.387 . S
H1440 C1452 0.930 . S
H1441 C1454 0.930 . S
H1442 C1455 0.930 . S
H1443 C1459 0.959 . S
H1444 C1459 0.959 . S
H1445 C1459 0.961 . S
H1446 C1460 0.960 . S
H1447 C1460 0.961 . S
H1448 C1460 0.959 . S
H1449 C1463 0.929 . S
H1450 C1464 0.931 . S
H1451 C1466 0.930 . S
C1452 H1440 0.930 . S
C1452 C1453 1.399 . S
C1452 C1457 1.399 . S
C1453 C1452 1.399 . S
C1453 C1454 1.376 . S
C1454 H1441 0.930 . S
C1454 C1453 1.376 . S
C1454 C1455 1.388 . S
C1455 H1442 0.930 . S
C1455 C1454 1.388 . S
C1455 C1456 1.390 . S
C1456 C1455 1.390 . S
C1456 C1457 1.394 . S
C1456 C1462 1.465 . S
C1457 C1452 1.399 . S
C1457 C1456 1.394 . S
C1457 C1458 1.516 . S
C1458 C1457 1.516 . S
C1458 C1459 1.502 . S
C1458 C1460 1.561 . S
C1458 C1461 1.526 . S
C1459 H1443 0.959 . S
C1459 H1444 0.959 . S
C1459 H1445 0.961 . S
C1459 C1458 1.502 . S
C1460 H1446 0.960 . S
C1460 H1447 0.961 . S
C1460 H1448 0.959 . S
C1460 C1458 1.561 . S
C1461 C1458 1.526 . S
C1461 C1462 1.396 . S
C1461 C1466 1.390 . S
C1462 C1456 1.465 . S
C1462 C1461 1.396 . S
C1462 C1463 1.399 . S
C1463 H1449 0.929 . S
C1463 C1462 1.399 . S
C1463 C1464 1.385 . S
C1464 H1450 0.931 . S
C1464 C1463 1.385 . S
C1464 C1465 1.389 . S
C1465 C1464 1.389 . S
C1465 C1466 1.387 . S
C1466 H1451 0.930 . S
C1466 C1461 1.390 . S
C1466 C1465 1.387 . S
H1467 C1479 0.930 . S
H1468 C1481 0.930 . S
H1469 C1482 0.930 . S
H1470 C1486 0.959 . S
H1471 C1486 0.959 . S
H1472 C1486 0.961 . S
H1473 C1487 0.960 . S
H1474 C1487 0.961 . S
H1475 C1487 0.959 . S
H1476 C1490 0.929 . S
H1477 C1491 0.931 . S
H1478 C1493 0.930 . S
C1479 H1467 0.930 . S
C1479 C1480 1.399 . S
C1479 C1484 1.399 . S
C1480 C1479 1.399 . S
C1480 C1481 1.376 . S
C1481 H1468 0.930 . S
C1481 C1480 1.376 . S
C1481 C1482 1.388 . S
C1482 H1469 0.930 . S
C1482 C1481 1.388 . S
C1482 C1483 1.390 . S
C1483 C1482 1.390 . S
C1483 C1484 1.394 . S
C1483 C1489 1.465 . S
C1484 C1479 1.399 . S
C1484 C1483 1.394 . S
C1484 C1485 1.516 . S
C1485 C1484 1.516 . S
C1485 C1486 1.502 . S
C1485 C1487 1.561 . S
C1485 C1488 1.526 . S
C1486 H1470 0.959 . S
C1486 H1471 0.959 . S
C1486 H1472 0.961 . S
C1486 C1485 1.502 . S
C1487 H1473 0.960 . S
C1487 H1474 0.961 . S
C1487 H1475 0.959 . S
C1487 C1485 1.561 . S
C1488 C1485 1.526 . S
C1488 C1489 1.396 . S
C1488 C1493 1.390 . S
C1489 C1483 1.465 . S
C1489 C1488 1.396 . S
C1489 C1490 1.399 . S
C1490 H1476 0.929 . S
C1490 C1489 1.399 . S
C1490 C1491 1.385 . S
C1491 H1477 0.931 . S
C1491 C1490 1.385 . S
C1491 C1492 1.389 . S
C1492 C1491 1.389 . S
C1492 C1493 1.387 . S
C1493 H1478 0.930 . S
C1493 C1488 1.390 . S
C1493 C1492 1.387 . S
H1494 C1506 0.930 . S
H1495 C1508 0.930 . S
H1496 C1509 0.930 . S
H1497 C1513 0.959 . S
H1498 C1513 0.959 . S
H1499 C1513 0.961 . S
H1500 C1514 0.960 . S
H1501 C1514 0.961 . S
H1502 C1514 0.959 . S
H1503 C1517 0.929 . S
H1504 C1518 0.931 . S
H1505 C1520 0.930 . S
C1506 H1494 0.930 . S
C1506 C1507 1.399 . S
C1506 C1511 1.399 . S
C1507 C1506 1.399 . S
C1507 C1508 1.376 . S
C1508 H1495 0.930 . S
C1508 C1507 1.376 . S
C1508 C1509 1.388 . S
C1509 H1496 0.930 . S
C1509 C1508 1.388 . S
C1509 C1510 1.390 . S
C1510 C1509 1.390 . S
C1510 C1511 1.394 . S
C1510 C1516 1.465 . S
C1511 C1506 1.399 . S
C1511 C1510 1.394 . S
C1511 C1512 1.516 . S
C1512 C1511 1.516 . S
C1512 C1513 1.502 . S
C1512 C1514 1.561 . S
C1512 C1515 1.526 . S
C1513 H1497 0.959 . S
C1513 H1498 0.959 . S
C1513 H1499 0.961 . S
C1513 C1512 1.502 . S
C1514 H1500 0.960 . S
C1514 H1501 0.961 . S
C1514 H1502 0.959 . S
C1514 C1512 1.561 . S
C1515 C1512 1.526 . S
C1515 C1516 1.396 . S
C1515 C1520 1.390 . S
C1516 C1510 1.465 . S
C1516 C1515 1.396 . S
C1516 C1517 1.399 . S
C1517 H1503 0.929 . S
C1517 C1516 1.399 . S
C1517 C1518 1.385 . S
C1518 H1504 0.931 . S
C1518 C1517 1.385 . S
C1518 C1519 1.389 . S
C1519 C1518 1.389 . S
C1519 C1520 1.387 . S
C1520 H1505 0.930 . S
C1520 C1515 1.390 . S
C1520 C1519 1.387 . S
H1521 C1533 0.930 . S
H1522 C1535 0.930 . S
H1523 C1536 0.930 . S
H1524 C1540 0.959 . S
H1525 C1540 0.959 . S
H1526 C1540 0.961 . S
H1527 C1541 0.960 . S
H1528 C1541 0.961 . S
H1529 C1541 0.959 . S
H1530 C1544 0.929 . S
H1531 C1545 0.931 . S
H1532 C1547 0.930 . S
C1533 H1521 0.930 . S
C1533 C1534 1.399 . S
C1533 C1538 1.399 . S
C1534 C1533 1.399 . S
C1534 C1535 1.376 . S
C1535 H1522 0.930 . S
C1535 C1534 1.376 . S
C1535 C1536 1.388 . S
C1536 H1523 0.930 . S
C1536 C1535 1.388 . S
C1536 C1537 1.390 . S
C1537 C1536 1.390 . S
C1537 C1538 1.394 . S
C1537 C1543 1.465 . S
C1538 C1533 1.399 . S
C1538 C1537 1.394 . S
C1538 C1539 1.516 . S
C1539 C1538 1.516 . S
C1539 C1540 1.502 . S
C1539 C1541 1.561 . S
C1539 C1542 1.526 . S
C1540 H1524 0.959 . S
C1540 H1525 0.959 . S
C1540 H1526 0.961 . S
C1540 C1539 1.502 . S
C1541 H1527 0.960 . S
C1541 H1528 0.961 . S
C1541 H1529 0.959 . S
C1541 C1539 1.561 . S
C1542 C1539 1.526 . S
C1542 C1543 1.396 . S
C1542 C1547 1.390 . S
C1543 C1537 1.465 . S
C1543 C1542 1.396 . S
C1543 C1544 1.399 . S
C1544 H1530 0.929 . S
C1544 C1543 1.399 . S
C1544 C1545 1.385 . S
C1545 H1531 0.931 . S
C1545 C1544 1.385 . S
C1545 C1546 1.389 . S
C1546 C1545 1.389 . S
C1546 C1547 1.387 . S
C1547 H1532 0.930 . S
C1547 C1542 1.390 . S
C1547 C1546 1.387 . S
H1548 C1560 0.930 1_554 S
H1549 C1562 0.930 . S
H1550 C1563 0.930 . S
H1551 C1567 0.959 . S
H1552 C1567 0.959 . S
H1553 C1567 0.961 . S
H1554 C1568 0.960 . S
H1555 C1568 0.961 . S
H1556 C1568 0.959 . S
H1557 C1571 0.929 . S
H1558 C1572 0.931 . S
H1559 C1574 0.930 . S
C1560 H1548 0.930 1_556 S
C1560 C1561 1.399 . S
C1560 C1565 1.399 . S
C1561 C1560 1.399 . S
C1561 C1562 1.376 . S
C1562 H1549 0.930 . S
C1562 C1561 1.376 . S
C1562 C1563 1.388 . S
C1563 H1550 0.930 . S
C1563 C1562 1.388 . S
C1563 C1564 1.390 . S
C1564 C1563 1.390 . S
C1564 C1565 1.394 . S
C1564 C1570 1.465 . S
C1565 C1560 1.399 . S
C1565 C1564 1.394 . S
C1565 C1566 1.516 1_556 S
C1566 C1565 1.516 1_554 S
C1566 C1567 1.502 . S
C1566 C1568 1.561 . S
C1566 C1569 1.526 1_554 S
C1567 H1551 0.959 . S
C1567 H1552 0.959 . S
C1567 H1553 0.961 . S
C1567 C1566 1.502 . S
C1568 H1554 0.960 . S
C1568 H1555 0.961 . S
C1568 H1556 0.959 . S
C1568 C1566 1.561 . S
C1569 C1566 1.526 1_556 S
C1569 C1570 1.396 . S
C1569 C1574 1.390 1_556 S
C1570 C1564 1.465 . S
C1570 C1569 1.396 . S
C1570 C1571 1.399 . S
C1571 H1557 0.929 . S
C1571 C1570 1.399 . S
C1571 C1572 1.385 . S
C1572 H1558 0.931 . S
C1572 C1571 1.385 . S
C1572 C1573 1.389 . S
C1573 C1572 1.389 . S
C1573 C1574 1.387 1_556 S
C1574 H1559 0.930 . S
C1574 C1569 1.390 1_554 S
C1574 C1573 1.387 1_554 S
H1575 C1587 0.930 . S
H1576 C1589 0.930 . S
H1577 C1590 0.930 . S
H1578 C1594 0.959 . S
H1579 C1594 0.959 . S
H1580 C1594 0.961 . S
H1581 C1595 0.960 . S
H1582 C1595 0.961 . S
H1583 C1595 0.959 . S
H1584 C1598 0.929 . S
H1585 C1599 0.931 . S
H1586 C1601 0.930 . S
C1587 H1575 0.930 . S
C1587 C1588 1.399 . S
C1587 C1592 1.399 . S
C1588 C1587 1.399 . S
C1588 C1589 1.376 . S
C1589 H1576 0.930 . S
C1589 C1588 1.376 . S
C1589 C1590 1.388 . S
C1590 H1577 0.930 . S
C1590 C1589 1.388 . S
C1590 C1591 1.390 . S
C1591 C1590 1.390 . S
C1591 C1592 1.394 . S
C1591 C1597 1.465 . S
C1592 C1587 1.399 . S
C1592 C1591 1.394 . S
C1592 C1593 1.516 . S
C1593 C1592 1.516 . S
C1593 C1594 1.502 . S
C1593 C1595 1.561 . S
C1593 C1596 1.526 . S
C1594 H1578 0.959 . S
C1594 H1579 0.959 . S
C1594 H1580 0.961 . S
C1594 C1593 1.502 . S
C1595 H1581 0.960 . S
C1595 H1582 0.961 . S
C1595 H1583 0.959 . S
C1595 C1593 1.561 . S
C1596 C1593 1.526 . S
C1596 C1597 1.396 . S
C1596 C1601 1.390 . S
C1597 C1591 1.465 . S
C1597 C1596 1.396 . S
C1597 C1598 1.399 . S
C1598 H1584 0.929 . S
C1598 C1597 1.399 . S
C1598 C1599 1.385 . S
C1599 H1585 0.931 . S
C1599 C1598 1.385 . S
C1599 C1600 1.389 . S
C1600 C1599 1.389 . S
C1600 C1601 1.387 . S
C1601 H1586 0.930 . S
C1601 C1596 1.390 . S
C1601 C1600 1.387 . S
H1602 C1614 0.930 . S
H1603 C1616 0.930 . S
H1604 C1617 0.954 . S
H1605 C1621 0.959 . S
H1606 C1621 0.959 . S
H1607 C1621 0.961 . S
H1608 C1622 0.960 . S
H1609 C1622 0.961 . S
H1610 C1622 0.959 . S
H1611 C1625 0.929 1_556 S
H1612 C1626 0.922 1_556 S
H1613 C1628 0.930 . S
C1614 H1602 0.930 . S
C1614 C1615 1.399 . S
C1614 C1619 1.399 . S
C1615 C1614 1.399 . S
C1615 C1616 1.376 . S
C1616 H1603 0.930 . S
C1616 C1615 1.376 . S
C1616 C1617 1.388 . S
C1617 H1604 0.954 . S
C1617 C1616 1.388 . S
C1617 C1618 1.390 . S
C1618 C1617 1.390 . S
C1618 C1619 1.394 . S
C1618 C1624 1.465 . S
C1619 C1614 1.399 . S
C1619 C1618 1.394 . S
C1619 C1620 1.516 . S
C1620 C1619 1.516 . S
C1620 C1621 1.502 . S
C1620 C1622 1.561 . S
C1620 C1623 1.526 . S
C1621 H1605 0.959 . S
C1621 H1606 0.959 . S
C1621 H1607 0.961 . S
C1621 C1620 1.502 . S
C1622 H1608 0.960 . S
C1622 H1609 0.961 . S
C1622 H1610 0.959 . S
C1622 C1620 1.561 . S
C1623 C1620 1.526 . S
C1623 C1624 1.396 . S
C1623 C1628 1.390 . S
C1624 C1618 1.465 . S
C1624 C1623 1.396 . S
C1624 C1625 1.399 . S
C1625 H1611 0.929 1_554 S
C1625 C1624 1.399 . S
C1625 C1626 1.386 . S
C1626 H1612 0.922 1_554 S
C1626 C1625 1.386 . S
C1626 C1627 1.397 . S
C1627 C1626 1.397 . S
C1627 C1628 1.387 . S
C1628 H1613 0.930 . S
C1628 C1623 1.390 . S
C1628 C1627 1.387 . S
H1629 C1641 0.930 . S
H1630 C1643 0.930 . S
H1631 C1644 0.930 1_556 S
H1632 C1648 0.959 . S
H1633 C1648 0.970 . S
H1634 C1648 0.961 . S
H1635 C1649 0.960 . S
H1636 C1649 0.961 . S
H1637 C1649 0.959 . S
H1638 C1652 0.929 1_556 S
H1639 C1653 0.931 1_556 S
H1640 C1655 0.930 . S
C1641 H1629 0.930 . S
C1641 C1642 1.399 . S
C1641 C1646 1.399 1_545 S
C1642 C1641 1.399 . S
C1642 C1643 1.376 1_545 S
C1643 H1630 0.930 . S
C1643 C1642 1.376 1_565 S
C1643 C1644 1.388 . S
C1644 H1631 0.930 1_554 S
C1644 C1643 1.388 . S
C1644 C1645 1.390 . S
C1645 C1644 1.390 . S
C1645 C1646 1.394 . S
C1645 C1651 1.465 . S
C1646 C1641 1.399 1_565 S
C1646 C1645 1.394 . S
C1646 C1647 1.516 . S
C1647 C1646 1.516 . S
C1647 C1648 1.502 1_565 S
C1647 C1649 1.561 . S
C1647 C1650 1.526 . S
C1648 H1632 0.959 . S
C1648 H1633 0.970 . S
C1648 H1634 0.961 . S
C1648 C1647 1.502 1_545 S
C1649 H1635 0.960 . S
C1649 H1636 0.961 . S
C1649 H1637 0.959 . S
C1649 C1647 1.561 . S
C1650 C1647 1.526 . S
C1650 C1651 1.396 . S
C1650 C1655 1.390 . S
C1651 C1645 1.465 . S
C1651 C1650 1.396 . S
C1651 C1652 1.399 . S
C1652 H1638 0.929 1_554 S
C1652 C1651 1.399 . S
C1652 C1653 1.385 . S
C1653 H1639 0.931 1_554 S
C1653 C1652 1.385 . S
C1653 C1654 1.389 . S
C1654 C1653 1.389 . S
C1654 C1655 1.387 . S
C1655 H1640 0.930 . S
C1655 C1650 1.390 . S
C1655 C1654 1.387 . S
C385 C200 1.736 . S
C373 C66 1.752 . S
C412 C213 1.150 . S
C400 C76 1.137 1_455 S
C427 C93 1.937 . S
C439 C233 1.810 . S
C466 C247 1.264 . S
C454 C54 1.399 . S
C493 C259 1.518 . S
C481 C126 1.532 . S
C520 C273 1.727 . S
C508 C150 1.743 . S
C535 C136 1.122 . S
C547 C283 1.140 . S
C574 C298 1.798 . S
C562 C117 1.804 . S
C589 C141 1.259 . S
C601 C312 1.270 . S
C628 C331 1.266 . S
C616 C112 1.260 . S
C643 C124 1.541 . S
C655 C311 1.531 . S
C682 C329 1.228 . S
C670 C148 1.212 . S
C697 C88 1.424 . S
C709 C345 1.417 . S
C724 C52 1.596 . S
C736 C339 1.590 . S
C751 C64 1.295 . S
C763 C343 1.280 . S
C778 C78 1.232 . S
C790 C340 1.174 . S
C805 C45 1.730 . S
C817 C242 1.689 . S
C832 C177 1.811 . S
C844 C241 1.776 . S
C871 C205 1.295 1_556 S
C859 C189 1.330 . S
C898 C219 1.654 . S
C886 C102 1.727 . S
C913 C57 1.725 1_545 S
C925 C256 1.684 . S
C952 C301 1.490 . S
C940 C138 1.482 . S
C979 C255 1.729 . S
C967 C114 1.743 1_545 S
C1006 C287 1.641 . S
C994 C153 1.646 . S
C1033 C284 1.740 . S
C1021 C174 1.749 . S
C1048 C184 1.126 . S
C1060 C297 1.122 . S
C1075 C105 1.950 . S
C1087 C261 1.756 . S
C1114 C275 1.279 . S
C1102 C162 1.399 . S
C1129 C42 1.538 . S
C1141 C231 1.500 . S
C1168 C245 1.728 . S
C1156 C6 1.743 . S
C1195 C199 1.143 . S
C1183 C16 1.132 . S
C1222 C214 1.801 . S
C1210 C33 1.804 . S
C1237 C21 1.258 . S
C1249 C326 1.274 . S
C1264 C28 1.267 1_556 S
C1276 C317 1.194 . S
C1291 C40 1.523 . S
C1303 C325 1.518 . S
C1318 C4 1.212 1_556 S
C1330 C315 1.230 . S
C1357 C359 1.411 . S
C1345 C100 1.427 . S
C1384 C353 1.584 . S
C1372 C160 1.598 1_554 S
C1411 C357 1.288 . S
C1399 C172 1.296 . S
C1426 C186 1.225 . S
C1438 C354 1.212 . S
C1453 C129 1.721 . S
C1465 C270 1.708 . S
C1492 C269 1.793 . S
C1480 C69 1.809 . S
C1519 C289 1.309 . S
C1507 C81 1.322 . S
C1546 C303 1.585 . S
C1534 C90 1.743 . S
C1561 C165 1.719 . S
C1573 C228 1.685 . S
C1600 C217 1.481 . S
C1588 C18 1.485 . S
C1615 C30 1.743 . S
C1627 C227 1.731 . S
C1654 C203 1.641 . S
C1642 C9 1.646 . S
