# Generated by pormake.
# Topology wbl, (4,4)-cn, num edge types: 1
# Building blocks:
#     Node 0, Type 0, BuildingBlock: MUDLON_clean_linker_0, # of connection points: 4
#     Node 1, Type 0, BuildingBlock: MUDLON_clean_linker_0, # of connection points: 4
#     Node 2, Type 0, BuildingBlock: MUDLON_clean_linker_0, # of connection points: 4
#     Node 3, Type 0, BuildingBlock: MUDLON_clean_linker_0, # of connection points: 4
#     Node 4, Type 0, BuildingBlock: MUDLON_clean_linker_0, # of connection points: 4
#     Node 5, Type 0, BuildingBlock: MUDLON_clean_linker_0, # of connection points: 4
#     Node 6, Type 0, BuildingBlock: MUDLON_clean_linker_0, # of connection points: 4
#     Node 7, Type 0, BuildingBlock: MUDLON_clean_linker_0, # of connection points: 4
#     Node 8, Type 1, BuildingBlock: QUQFOY_clean_sbu_3, # of connection points: 4
#     Node 9, Type 1, BuildingBlock: QUQFOY_clean_sbu_3, # of connection points: 4
#     Node 10, Type 1, BuildingBlock: QUQFOY_clean_sbu_3, # of connection points: 4
#     Node 11, Type 1, BuildingBlock: QUQFOY_clean_sbu_3, # of connection points: 4
#     Node 12, Type 1, BuildingBlock: QUQFOY_clean_sbu_3, # of connection points: 4
#     Node 13, Type 1, BuildingBlock: QUQFOY_clean_sbu_3, # of connection points: 4
#     Node 14, Type 1, BuildingBlock: QUQFOY_clean_sbu_3, # of connection points: 4
#     Node 15, Type 1, BuildingBlock: QUQFOY_clean_sbu_3, # of connection points: 4
#     Edge 16, Type (0, 1), BuildingBlock: AJUNOK_clean_linker_0, # of connection points: 2
#     Edge 17, Type (0, 1), BuildingBlock: AJUNOK_clean_linker_0, # of connection points: 2
#     Edge 18, Type (0, 1), BuildingBlock: AJUNOK_clean_linker_0, # of connection points: 2
#     Edge 19, Type (0, 1), BuildingBlock: AJUNOK_clean_linker_0, # of connection points: 2
#     Edge 20, Type (0, 1), BuildingBlock: AJUNOK_clean_linker_0, # of connection points: 2
#     Edge 21, Type (0, 1), BuildingBlock: AJUNOK_clean_linker_0, # of connection points: 2
#     Edge 22, Type (0, 1), BuildingBlock: AJUNOK_clean_linker_0, # of connection points: 2
#     Edge 23, Type (0, 1), BuildingBlock: AJUNOK_clean_linker_0, # of connection points: 2
#     Edge 24, Type (0, 1), BuildingBlock: AJUNOK_clean_linker_0, # of connection points: 2
#     Edge 25, Type (0, 1), BuildingBlock: AJUNOK_clean_linker_0, # of connection points: 2
#     Edge 26, Type (0, 1), BuildingBlock: AJUNOK_clean_linker_0, # of connection points: 2
#     Edge 27, Type (0, 1), BuildingBlock: AJUNOK_clean_linker_0, # of connection points: 2
#     Edge 28, Type (0, 1), BuildingBlock: AJUNOK_clean_linker_0, # of connection points: 2
#     Edge 29, Type (0, 1), BuildingBlock: AJUNOK_clean_linker_0, # of connection points: 2
#     Edge 30, Type (0, 1), BuildingBlock: AJUNOK_clean_linker_0, # of connection points: 2
#     Edge 31, Type (0, 1), BuildingBlock: AJUNOK_clean_linker_0, # of connection points: 2
#     Edge 32, Type (0, 1), BuildingBlock: AJUNOK_clean_linker_0, # of connection points: 2
#     Edge 33, Type (0, 1), BuildingBlock: AJUNOK_clean_linker_0, # of connection points: 2
#     Edge 34, Type (0, 1), BuildingBlock: AJUNOK_clean_linker_0, # of connection points: 2
#     Edge 35, Type (0, 1), BuildingBlock: AJUNOK_clean_linker_0, # of connection points: 2
#     Edge 36, Type (0, 1), BuildingBlock: AJUNOK_clean_linker_0, # of connection points: 2
#     Edge 37, Type (0, 1), BuildingBlock: AJUNOK_clean_linker_0, # of connection points: 2
#     Edge 38, Type (0, 1), BuildingBlock: AJUNOK_clean_linker_0, # of connection points: 2
#     Edge 39, Type (0, 1), BuildingBlock: AJUNOK_clean_linker_0, # of connection points: 2
#     Edge 40, Type (0, 1), BuildingBlock: AJUNOK_clean_linker_0, # of connection points: 2
#     Edge 41, Type (0, 1), BuildingBlock: AJUNOK_clean_linker_0, # of connection points: 2
#     Edge 42, Type (0, 1), BuildingBlock: AJUNOK_clean_linker_0, # of connection points: 2
#     Edge 43, Type (0, 1), BuildingBlock: AJUNOK_clean_linker_0, # of connection points: 2
#     Edge 44, Type (0, 1), BuildingBlock: AJUNOK_clean_linker_0, # of connection points: 2
#     Edge 45, Type (0, 1), BuildingBlock: AJUNOK_clean_linker_0, # of connection points: 2
#     Edge 46, Type (0, 1), BuildingBlock: AJUNOK_clean_linker_0, # of connection points: 2
#     Edge 47, Type (0, 1), BuildingBlock: AJUNOK_clean_linker_0, # of connection points: 2
# Relax obj value: 0.123
# Max RMSD: 0.152
# Mean RMSD: 0.137
data_MOF--net-wbl--node1-QUQFOY_clean_sbu_3--node2-MUDLON_clean_linker_0--edge1-AJUNOK_clean_linker_0
_symmetry_space_group_name_H-M    P1
_symmetry_Int_Tables_number       1
_symmetry_cell_setting            triclinic
loop_
_symmetry_equiv_pos_as_xyz
'x, y, z'
_cell_length_a     43.782404
_cell_length_b     44.17873
_cell_length_c     61.760752
_cell_angle_alpha  90.763156
_cell_angle_beta   90.305013
_cell_angle_gamma 90.13711
loop_
_atom_site_label
_atom_site_type_symbol
_atom_site_fract_x
_atom_site_fract_y
_atom_site_fract_z
_atom_type_partial_charge
H0 H 0.12759 0.94473 0.33248 0.0
N1 N 0.08395 0.91583 0.3079 0.0
H2 H 0.13444 0.94154 0.37163 0.0
H3 H 0.05068 0.88381 0.33557 0.0
H4 H 0.05775 0.88024 0.37502 0.0
H5 H 0.12203 0.86942 0.31569 0.0
H6 H 0.1705 0.85821 0.29861 0.0
H7 H 0.10684 0.94147 0.27012 0.0
H8 H 0.15529 0.92976 0.25298 0.0
H9 H 0.10605 0.97408 0.30561 0.0
H10 H 0.0248 0.91946 0.29901 0.0
H11 H 0.07575 0.01981 0.3018 0.0
H12 H 0.99389 0.96511 0.29636 0.0
H13 H 0.94349 0.15088 0.33251 0.0
H14 H 0.92623 0.15776 0.36983 0.0
H15 H 0.9302 0.06098 0.37881 0.0
H16 H 0.94492 0.05417 0.34113 0.0
H17 H 0.90248 0.06166 0.31287 0.0
H18 H 0.85292 0.07023 0.29579 0.0
H19 H 0.88912 0.14912 0.26421 0.0
H20 H 0.93875 0.14078 0.28191 0.0
H21 H 0.00885 0.09201 0.32666 0.0
H22 H 0.04247 0.04868 0.32251 0.0
H23 H 0.9784 0.00773 0.27732 0.0
N24 N 0.95238 0.09893 0.31108 0.0
H25 H 0.94429 0.05002 0.28228 0.0
C26 C 0.0883 0.9147 0.33112 0.0
C27 C 0.11185 0.93106 0.34162 0.0
C28 C 0.11579 0.92919 0.36399 0.0
C29 C 0.09637 0.91094 0.3763 0.0
C30 C 0.07294 0.89452 0.36584 0.0
C31 C 0.06886 0.89656 0.34343 0.0
C32 C 0.11149 0.90821 0.29578 0.0
C33 C 0.12912 0.8832 0.30224 0.0
C34 C 0.15676 0.87644 0.29224 0.0
C35 C 0.16722 0.89381 0.27494 0.0
C36 C 0.1484 0.91685 0.26692 0.0
C37 C 0.12063 0.92374 0.277 0.0
C38 C 0.06768 0.94314 0.30235 0.0
C39 C 0.08167 0.97188 0.30314 0.0
C40 C 0.06419 -0.00187 0.30114 0.0
C41 C 0.0322 0.99637 0.29897 0.0
C42 C 0.01845 0.96755 0.2976 0.0
C43 C 0.03605 0.94132 0.29918 0.0
C44 C 0.94603 0.1022 0.33401 0.0
C45 C 0.94104 0.13124 0.34267 0.0
C46 C 0.93143 0.13511 0.36408 0.0
C47 C 0.92728 0.10994 0.37748 0.0
C48 C 0.93302 0.08086 0.36893 0.0
C49 C 0.94184 0.07695 0.34739 0.0
C50 C 0.92436 0.10073 0.29868 0.0
C51 C 0.89989 0.08063 0.30213 0.0
C52 C 0.87161 0.08548 0.29229 0.0
C53 C 0.86709 0.11057 0.27891 0.0
C54 C 0.89185 0.12992 0.27477 0.0
C55 C 0.92021 0.12503 0.28463 0.0
C56 C 0.97315 0.07423 0.30575 0.0
C57 C 0.00199 0.07369 0.31585 0.0
C58 C 0.02142 0.04891 0.31324 0.0
C59 C 0.01301 0.02425 0.29984 0.0
C60 C 0.98522 0.02576 0.28838 0.0
C61 C 0.9655 0.05032 0.29128 0.0
H62 H 0.94553 0.39247 0.57615 0.0
N63 N 0.92063 0.44043 0.55478 0.0
H64 H 0.94032 0.38136 0.6146 0.0
H65 H 0.89159 0.47324 0.58475 0.0
H66 H 0.88626 0.46214 0.62345 0.0
H67 H 0.86521 0.41615 0.55266 0.0
H68 H 0.85043 0.36764 0.53658 0.0
H69 H 0.95534 0.40635 0.52525 0.0
H70 H 0.94028 0.35857 0.50881 0.0
H71 H 0.9806 0.42255 0.55732 0.0
H72 H 0.92199 0.49745 0.54176 0.0
H73 H 0.02522 0.45404 0.55218 0.0
H74 H 0.96662 0.53028 0.53848 0.0
H75 H 0.15693 0.57791 0.57174 0.0
H76 H 0.16846 0.59151 0.60963 0.0
H77 H 0.07271 0.60858 0.62076 0.0
H78 H 0.0613 0.59442 0.58323 0.0
H79 H 0.06417 0.62648 0.55283 0.0
H80 H 0.07479 0.67557 0.53694 0.0
H81 H 0.1543 0.63821 0.50537 0.0
H82 H 0.14435 0.58933 0.52237 0.0
H83 H 0.095 0.52458 0.57186 0.0
H84 H 0.05174 0.49063 0.57012 0.0
H85 H 0.0103 0.5462 0.52092 0.0
N86 N 0.10249 0.57743 0.55216 0.0
H87 H 0.05267 0.58138 0.52384 0.0
C88 C 0.91893 0.43383 0.5776 0.0
C89 C 0.93288 0.40803 0.58636 0.0
C90 C 0.92984 0.40165 0.60832 0.0
C91 C 0.91269 0.42077 0.62191 0.0
C92 C 0.8992 0.4468 0.61323 0.0
C93 C 0.90236 0.45324 0.59125 0.0
C94 C 0.91165 0.41494 0.54104 0.0
C95 C 0.8816 0.40403 0.54276 0.0
C96 C 0.87308 0.37633 0.53339 0.0
C97 C 0.89425 0.35914 0.52148 0.0
C98 C 0.92363 0.37108 0.51824 0.0
C99 C 0.93231 0.39864 0.52788 0.0
C100 C 0.94773 0.45746 0.54946 0.0
C101 C 0.97727 0.44578 0.55258 0.0
C102 C 0.00294 0.46413 0.54997 0.0
C103 C -0.00017 0.49507 0.54522 0.0
C104 C 0.97022 0.50655 0.54177 0.0
C105 C 0.94456 0.48786 0.54373 0.0
C106 C 0.10838 0.58496 0.57467 0.0
C107 C 0.13849 0.58438 0.58245 0.0
C108 C 0.145 0.59225 0.60399 0.0
C109 C 0.12141 0.60074 0.61814 0.0
C110 C 0.09125 0.60152 0.61032 0.0
C111 C 0.08475 0.59371 0.58881 0.0
C112 C 0.10384 0.60427 0.53905 0.0
C113 C 0.08369 0.62868 0.54232 0.0
C114 C 0.08968 0.65674 0.53307 0.0
C115 C 0.11581 0.66096 0.52031 0.0
C116 C 0.13448 0.63588 0.51563 0.0
C117 C 0.12863 0.60787 0.52507 0.0
C118 C 0.07697 0.55663 0.54892 0.0
C119 C 0.07648 0.52974 0.56082 0.0
C120 C 0.05173 0.50993 0.55953 0.0
C121 C 0.02706 0.51557 0.54547 0.0
C122 C 0.02832 0.54148 0.53245 0.0
C123 C 0.05289 0.5618 0.53413 0.0
H124 H 0.62874 0.43224 0.82406 0.0
N125 N 0.57803 0.41605 0.80024 0.0
H126 H 0.63571 0.42663 0.86313 0.0
H127 H 0.5386 0.39309 0.82848 0.0
H128 H 0.54533 0.3884 0.86792 0.0
H129 H 0.60362 0.36174 0.797 0.0
H130 H 0.65322 0.34897 0.78177 0.0
H131 H 0.61301 0.45291 0.77331 0.0
H132 H 0.66172 0.43978 0.75749 0.0
H133 H 0.59707 0.47417 0.80866 0.0
H134 H 0.52237 0.4207 0.78319 0.0
H135 H 0.56605 0.51963 0.80648 0.0
H136 H 0.49035 0.46597 0.78199 0.0
H137 H 0.44397 0.651 0.82661 0.0
H138 H 0.4267 0.66278 0.86351 0.0
H139 H 0.40631 0.56827 0.87316 0.0
H140 H 0.42407 0.55655 0.83655 0.0
H141 H 0.39777 0.55434 0.80322 0.0
H142 H 0.3467 0.56182 0.78821 0.0
H143 H 0.37374 0.64994 0.76559 0.0
H144 H 0.42468 0.64271 0.78141 0.0
H145 H 0.49171 0.58246 0.83082 0.0
H146 H 0.5257 0.53991 0.82637 0.0
H147 H 0.4792 0.51438 0.767 0.0
N148 N 0.44287 0.59743 0.80629 0.0
H149 H 0.44418 0.55636 0.77185 0.0
C150 C 0.58319 0.41255 0.82324 0.0
C151 C 0.6105 0.42229 0.83337 0.0
C152 C 0.61448 0.41918 0.85566 0.0
C153 C 0.59105 0.40705 0.86828 0.0
C154 C 0.56365 0.39777 0.85836 0.0
C155 C 0.55986 0.40035 0.83596 0.0
C156 C 0.60451 0.40847 0.78715 0.0
C157 C 0.6159 0.3788 0.78807 0.0
C158 C 0.64422 0.37144 0.77917 0.0
C159 C 0.66153 0.39341 0.76845 0.0
C160 C 0.64915 0.4225 0.766 0.0
C161 C 0.62103 0.43003 0.77523 0.0
C162 C 0.5621 0.44394 0.79583 0.0
C163 C 0.57408 0.47228 0.80228 0.0
C164 C 0.55611 0.49826 0.80126 0.0
C165 C 0.52545 0.4965 0.79438 0.0
C166 C 0.51392 0.46833 0.78715 0.0
C167 C 0.53214 0.44239 0.78784 0.0
C168 C 0.43528 0.60305 0.82877 0.0
C169 C 0.4361 0.63284 0.83681 0.0
C170 C 0.42602 0.63953 0.85775 0.0
C171 C 0.41479 0.61645 0.871 0.0
C172 C 0.41483 0.58645 0.86324 0.0
C173 C 0.42483 0.57978 0.84229 0.0
C174 C 0.41508 0.59816 0.79355 0.0
C175 C 0.3929 0.5751 0.7948 0.0
C176 C 0.36372 0.57936 0.78614 0.0
C177 C 0.35608 0.60672 0.77613 0.0
C178 C 0.3788 0.62892 0.77368 0.0
C179 C 0.40797 0.62467 0.78241 0.0
C180 C 0.46337 0.57183 0.80275 0.0
C181 C 0.48811 0.56743 0.81705 0.0
C182 C 0.50813 0.54324 0.81424 0.0
C183 C 0.50501 0.52329 0.79646 0.0
C184 C 0.48168 0.5287 0.78126 0.0
C185 C 0.46137 0.55284 0.78419 0.0
H186 H 0.46278 0.88767 0.08525 0.0
N187 N 0.43543 0.93107 0.06025 0.0
H188 H 0.45479 0.87943 0.12362 0.0
H189 H 0.40046 0.96317 0.08717 0.0
H190 H 0.39259 0.95506 0.12607 0.0
H191 H 0.38168 0.91313 0.04473 0.0
H192 H 0.36922 0.86445 0.02727 0.0
H193 H 0.47679 0.88817 0.04664 0.0
H194 H 0.46444 0.83936 0.03014 0.0
H195 H 0.49579 0.9263 0.07257 0.0
H196 H 0.43277 0.97878 0.03461 0.0
H197 H 0.53611 0.96241 0.06545 0.0
H198 H 0.4737 0.0148 0.02659 0.0
H199 H 0.65929 0.0807 0.06398 0.0
H200 H 0.67619 0.09282 0.10106 0.0
H201 H 0.58229 0.10556 0.12007 0.0
H202 H 0.56558 0.0928 0.08344 0.0
H203 H 0.56877 0.13293 0.0571 0.0
H204 H 0.57488 0.182 0.04052 0.0
H205 H 0.64286 0.14493 0.9974 0.0
H206 H 0.63639 0.09509 0.01408 0.0
H207 H 0.60966 0.023 0.04152 0.0
H208 H 0.56996 0.98395 0.03991 0.0
H209 H 0.50093 0.05327 0.0461 0.0
N210 N 0.60262 0.0819 0.04836 0.0
H211 H 0.54029 0.0918 0.0468 0.0
C212 C 0.43204 0.92612 0.08319 0.0
C213 C 0.44746 0.90263 0.09386 0.0
C214 C 0.44298 0.89796 0.1159 0.0
C215 C 0.42294 0.91648 0.12775 0.0
C216 C 0.40784 0.94018 0.11721 0.0
C217 C 0.41241 0.94493 0.0951 0.0
C218 C 0.43005 0.90445 0.04697 0.0
C219 C 0.39991 0.8974 0.04099 0.0
C220 C 0.39283 0.86955 0.03121 0.0
C221 C 0.41584 0.84809 0.02728 0.0
C222 C 0.44625 0.85563 0.0325 0.0
C223 C 0.45335 0.8836 0.04211 0.0
C224 C 0.46089 0.95004 0.05435 0.0
C225 C 0.49061 0.94533 0.06241 0.0
C226 C 0.51392 0.96599 0.05811 0.0
C227 C 0.5082 0.9917 0.04552 0.0
C228 C 0.47881 0.99556 0.03666 0.0
C229 C 0.45545 0.97493 0.04108 0.0
C230 C 0.6113 0.08584 0.07081 0.0
C231 C 0.6424 0.08566 0.07627 0.0
C232 C 0.65199 0.09286 0.09734 0.0
C233 C 0.63054 0.10062 0.11332 0.0
C234 C 0.59931 0.09963 0.10808 0.0
C235 C 0.58974 0.09236 0.08705 0.0
C236 C 0.60183 0.10991 0.03659 0.0
C237 C 0.58419 0.13477 0.04359 0.0
C238 C 0.58773 0.16301 0.03409 0.0
C239 C 0.60912 0.16718 0.01753 0.0
C240 C 0.62609 0.14224 0.01007 0.0
C241 C 0.6223 0.11382 0.01947 0.0
C242 C 0.57828 0.06036 0.04438 0.0
C243 C 0.5859 0.02971 0.04203 0.0
C244 C 0.56318 0.00744 0.04132 0.0
C245 C 0.53219 0.01538 0.04314 0.0
C246 C 0.52449 0.04625 0.04443 0.0
C247 C 0.54722 0.0685 0.04497 0.0
H248 H 0.12213 0.5648 0.92383 0.0
N249 N 0.07573 0.59093 0.94743 0.0
H250 H 0.13237 0.57165 0.88563 0.0
H251 H 0.04441 0.62434 0.91947 0.0
H252 H 0.05454 0.631 0.88069 0.0
H253 H 0.08843 0.64437 0.96539 0.0
H254 H 0.13543 0.65945 0.98436 0.0
H255 H 0.12075 0.5524 0.96146 0.0
H256 H 0.1683 0.56751 0.97891 0.0
H257 H 0.08444 0.5309 0.93667 0.0
H258 H 0.02394 0.59293 0.96953 0.0
H259 H 0.04809 0.49008 0.94152 0.0
H260 H 0.98748 0.55163 0.97511 0.0
H261 H 0.90424 0.36942 0.93525 0.0
H262 H 0.89358 0.35408 0.89797 0.0
H263 H 0.93488 0.43685 0.87561 0.0
H264 H 0.9428 0.45338 0.91265 0.0
H265 H 0.87569 0.45248 0.93462 0.0
H266 H 0.82415 0.45024 0.94939 0.0
H267 H 0.85672 0.39428 0.00138 0.0
H268 H 0.90865 0.39679 0.98652 0.0
H269 H 0.98394 0.41662 0.96164 0.0
H270 H 0.02233 0.45676 0.96587 0.0
H271 H 0.9533 0.52356 0.95181 0.0
N272 N 0.92584 0.42238 0.94973 0.0
H273 H 0.91538 0.48381 0.94812 0.0
C274 C 0.08242 0.59427 0.9247 0.0
C275 C 0.10716 0.57936 0.91476 0.0
C276 C 0.11298 0.58315 0.89279 0.0
C277 C 0.09436 0.60197 0.88025 0.0
C278 C 0.06952 0.61671 0.89008 0.0
C279 C 0.06364 0.61283 0.91212 0.0
C280 C 0.10106 0.59743 0.9618 0.0
C281 C 0.10542 0.62735 0.96897 0.0
C282 C 0.13237 0.63594 0.97963 0.0
C283 C 0.15574 0.61474 0.98312 0.0
C284 C 0.15061 0.58436 0.97697 0.0
C285 C 0.1234 0.5757 0.96668 0.0
C286 C 0.05679 0.56527 0.95258 0.0
C287 C 0.06363 0.53573 0.94533 0.0
C288 C 0.04278 0.51218 0.94827 0.0
C289 C 0.0147 0.51755 0.95859 0.0
C290 C 0.00865 0.54679 0.96679 0.0
C291 C 0.0295 0.57036 0.96376 0.0
C292 C 0.92411 0.41261 0.92719 0.0
C293 C 0.91123 0.38417 0.9223 0.0
C294 C 0.90548 0.37525 0.90088 0.0
C295 C 0.91367 0.39406 0.88366 0.0
C296 C 0.92789 0.42195 0.88846 0.0
C297 C 0.93269 0.43134 0.9099 0.0
C298 C 0.89616 0.42504 0.95969 0.0
C299 C 0.87201 0.44052 0.94958 0.0
C300 C 0.84254 0.43918 0.958 0.0
C301 C 0.83657 0.42227 0.9766 0.0
C302 C 0.86081 0.40752 0.98704 0.0
C303 C 0.89039 0.40906 0.97868 0.0
C304 C 0.94676 0.44694 0.95466 0.0
C305 C 0.97708 0.44001 0.95993 0.0
C306 C -0.00102 0.46295 0.96217 0.0
C307 C 0.99095 0.49342 0.95908 0.0
C308 C 0.96025 0.50044 0.95466 0.0
C309 C 0.93839 0.47753 0.95249 0.0
H310 H 0.54284 0.41718 0.16896 0.0
N311 N 0.58478 0.43387 0.20008 0.0
H312 H 0.55341 0.40632 0.13089 0.0
H313 H 0.63723 0.44159 0.17945 0.0
H314 H 0.64786 0.43136 0.14108 0.0
H315 H 0.62572 0.42731 0.2316 0.0
H316 H 0.6434 0.37959 0.24726 0.0
H317 H 0.55729 0.37832 0.19478 0.0
H318 H 0.57512 0.33098 0.20987 0.0
H319 H 0.52629 0.41588 0.21098 0.0
H320 H 0.58432 0.49357 0.20174 0.0
H321 H 0.48247 0.44896 0.21593 0.0
H322 H 0.54042 0.52684 0.20575 0.0
H323 H 0.35801 0.58607 0.17629 0.0
H324 H 0.35273 0.59783 0.13791 0.0
H325 H 0.44899 0.58043 0.12891 0.0
H326 H 0.45458 0.5715 0.16746 0.0
H327 H 0.44858 0.62129 0.19132 0.0
H328 H 0.44566 0.67196 0.20734 0.0
H329 H 0.36755 0.64468 0.24479 0.0
H330 H 0.3704 0.59366 0.22842 0.0
H331 H 0.40907 0.51502 0.18926 0.0
H332 H 0.45078 0.47923 0.19396 0.0
H333 H 0.50283 0.54803 0.22829 0.0
N334 N 0.40917 0.57423 0.19812 0.0
H335 H 0.46222 0.58381 0.22286 0.0
C336 C 0.58938 0.4303 0.17708 0.0
C337 C 0.56573 0.42076 0.16301 0.0
C338 C 0.57174 0.41473 0.14119 0.0
C339 C 0.60141 0.41821 0.13302 0.0
C340 C 0.6248 0.42842 0.14699 0.0
C341 C 0.61879 0.4344 0.1688 0.0
C342 C 0.59027 0.40655 0.21204 0.0
C343 C 0.61408 0.4064 0.22729 0.0
C344 C 0.62435 0.37916 0.236 0.0
C345 C 0.61098 0.35154 0.22946 0.0
C346 C 0.58582 0.35191 0.21526 0.0
C347 C 0.57558 0.37909 0.20659 0.0
C348 C 0.55889 0.45229 0.20604 0.0
C349 C 0.52984 0.44003 0.21029 0.0
C350 C 0.50458 0.45906 0.21293 0.0
C351 C 0.50773 0.49065 0.21114 0.0
C352 C 0.53703 0.50274 0.20766 0.0
C353 C 0.56222 0.48377 0.20524 0.0
C354 C 0.40643 0.57739 0.17485 0.0
C355 C 0.37784 0.58444 0.16593 0.0
C356 C 0.37485 0.59085 0.14392 0.0
C357 C 0.40035 0.58957 0.13016 0.0
C358 C 0.42888 0.58177 0.13902 0.0
C359 C 0.43203 0.57624 0.16111 0.0
C360 C 0.4097 0.60356 0.2088 0.0
C361 C 0.43097 0.62604 0.2031 0.0
C362 C 0.42945 0.65493 0.21239 0.0
C363 C 0.40659 0.66206 0.22746 0.0
C364 C 0.38545 0.63964 0.23326 0.0
C365 C 0.38713 0.61058 0.22405 0.0
C366 C 0.43237 0.55266 0.2048 0.0
C367 C 0.42936 0.52232 0.19799 0.0
C368 C 0.45323 0.50177 0.20084 0.0
C369 C 0.48056 0.51089 0.21111 0.0
C370 C 0.48256 0.54049 0.21963 0.0
C371 C 0.45895 0.56117 0.21647 0.0
H372 H 0.37437 0.94944 0.42892 0.0
N373 N 0.4252 0.93814 0.45392 0.0
H374 H 0.36515 0.93176 0.39195 0.0
H375 H 0.46211 0.90507 0.42896 0.0
H376 H 0.45301 0.88778 0.39142 0.0
H377 H 0.41013 0.88731 0.4736 0.0
H378 H 0.36191 0.87591 0.4918 0.0
H379 H 0.3815 0.98006 0.46637 0.0
H380 H 0.33352 0.96861 0.4837 0.0
H381 H 0.41019 0.9927 0.43597 0.0
H382 H 0.47843 0.94697 0.47392 0.0
H383 H 0.44209 0.03764 0.43505 0.0
H384 H 0.51156 0.99158 0.47206 0.0
H385 H 0.56337 0.16265 0.41141 0.0
H386 H 0.58056 0.16658 0.37379 0.0
H387 H 0.6088 0.07296 0.37475 0.0
H388 H 0.59012 0.06878 0.41166 0.0
H389 H 0.60713 0.06955 0.44682 0.0
H390 H 0.657 0.07686 0.46381 0.0
H391 H 0.63582 0.17107 0.47562 0.0
H392 H 0.58631 0.16389 0.45747 0.0
H393 H 0.52162 0.09227 0.41007 0.0
H394 H 0.48633 0.05154 0.4166 0.0
H395 H 0.52091 0.04376 0.48191 0.0
N396 N 0.56622 0.11439 0.43685 0.0
H397 H 0.55741 0.084 0.47518 0.0
C398 C 0.41893 0.92816 0.43195 0.0
C399 C 0.39165 0.93579 0.4211 0.0
C400 C 0.38635 0.92575 0.39991 0.0
C401 C 0.40837 0.90847 0.38897 0.0
C402 C 0.43579 0.90123 0.39957 0.0
C403 C 0.44093 0.91094 0.42093 0.0
C404 C 0.39973 0.93439 0.46848 0.0
C405 C 0.3939 0.90537 0.47644 0.0
C406 C 0.36629 0.89885 0.48665 0.0
C407 C 0.34393 0.92136 0.48915 0.0
C408 C 0.35049 0.9509 0.48239 0.0
C409 C 0.37813 0.95743 0.47226 0.0
C410 C 0.44183 0.96637 0.45523 0.0
C411 C 0.43188 0.99241 0.44441 0.0
C412 C 0.45042 0.01809 0.44364 0.0
C413 C 0.47967 0.01817 0.4532 0.0
C414 C 0.48909 0.9925 0.4647 0.0
C415 C 0.47027 0.96693 0.46572 0.0
C416 C 0.57574 0.11567 0.41447 0.0
C417 C 0.57315 0.14302 0.4034 0.0
C418 C 0.58323 0.14526 0.38204 0.0
C419 C 0.59652 0.1202 0.37146 0.0
C420 C 0.59868 0.09266 0.38246 0.0
C421 C 0.58835 0.09036 0.4037 0.0
C422 C 0.59303 0.11638 0.4506 0.0
C423 C 0.61307 0.09176 0.4531 0.0
C424 C 0.64153 0.09592 0.463 0.0
C425 C 0.65059 0.12469 0.47065 0.0
C426 C 0.62981 0.14882 0.46936 0.0
C427 C 0.60139 0.14469 0.45929 0.0
C428 C 0.54461 0.09003 0.44135 0.0
C429 C 0.52254 0.08146 0.42568 0.0
C430 C 0.50165 0.05838 0.4296 0.0
C431 C 0.50103 0.0439 0.4497 0.0
C432 C 0.52144 0.05372 0.46599 0.0
C433 C 0.54261 0.07678 0.46201 0.0
H434 H 0.06364 0.88215 0.68186 0.0
N435 N 0.08736 0.93001 0.70509 0.0
H436 H 0.07363 0.86974 0.64384 0.0
H437 H 0.12271 0.96012 0.67779 0.0
H438 H 0.1336 0.94705 0.63975 0.0
H439 H 0.14282 0.90949 0.71341 0.0
H440 H 0.15644 0.86133 0.72939 0.0
H441 H 0.04814 0.89353 0.7289 0.0
H442 H 0.0619 0.84631 0.74589 0.0
H443 H 0.02757 0.91386 0.69696 0.0
H444 H 0.08546 0.98646 0.72028 0.0
H445 H 0.98374 0.94725 0.69787 0.0
H446 H 0.04158 0.02072 0.72038 0.0
H447 H 0.85463 0.07056 0.6784 0.0
H448 H 0.84041 0.08689 0.64187 0.0
H449 H 0.93528 0.10465 0.62804 0.0
H450 H 0.9494 0.08781 0.66425 0.0
H451 H 0.95511 0.11473 0.69718 0.0
H452 H 0.95022 0.1663 0.71147 0.0
H453 H 0.86178 0.14387 0.73749 0.0
H454 H 0.86636 0.09244 0.72241 0.0
H455 H 0.92455 0.02254 0.6717 0.0
H456 H 0.96635 0.98761 0.67649 0.0
H457 H 0.99263 0.03422 0.73562 0.0
N458 N 0.91001 0.0715 0.69651 0.0
H459 H 0.95136 0.06999 0.73057 0.0
C460 C 0.09213 0.92245 0.68256 0.0
C461 C 0.07834 0.89689 0.67271 0.0
C462 C 0.08413 0.88972 0.65104 0.0
C463 C 0.10414 0.90763 0.63899 0.0
C464 C 0.11799 0.93304 0.6488 0.0
C465 C 0.1118 0.94051 0.67039 0.0
C466 C 0.09449 0.90527 0.71941 0.0
C467 C 0.12511 0.89618 0.72096 0.0
C468 C 0.13291 0.86865 0.7303 0.0
C469 C 0.11026 0.84984 0.73896 0.0
C470 C 0.07984 0.86007 0.73905 0.0
C471 C 0.07194 0.88736 0.72926 0.0
C472 C 0.06004 0.94756 0.70877 0.0
C473 C 0.0309 0.93687 0.70261 0.0
C474 C 0.00575 0.9562 0.70289 0.0
C475 C 0.00914 0.98686 0.70887 0.0
C476 C 0.03802 -0.0028 0.71587 0.0
C477 C 0.06315 0.97769 0.71582 0.0
C478 C 0.90294 0.07794 0.67411 0.0
C479 C 0.87233 0.07758 0.66734 0.0
C480 C 0.86426 0.08718 0.64662 0.0
C481 C 0.88674 0.09745 0.6323 0.0
C482 C 0.91752 0.09687 0.63878 0.0
C483 C 0.92557 0.08736 0.65951 0.0
C484 C 0.91085 0.09976 0.70857 0.0
C485 C 0.93483 0.12075 0.70616 0.0
C486 C 0.93208 0.15019 0.71443 0.0
C487 C 0.90535 0.15922 0.72518 0.0
C488 C 0.88233 0.13768 0.72881 0.0
C489 C 0.88504 0.10827 0.72047 0.0
C490 C 0.93563 0.05089 0.6997 0.0
C491 C 0.93965 0.02603 0.68545 0.0
C492 C 0.96337 0.00549 0.68844 0.0
C493 C 0.98321 0.00829 0.70631 0.0
C494 C 0.97834 0.03194 0.72132 0.0
C495 C 0.95464 0.05268 0.71826 0.0
C496 C 0.39169 0.62917 0.04078 0.0
O497 O 0.41596 0.63257 0.02989 0.0
Cd498 Cd 0.41724 0.6517 0.9936 0.0
O499 O 0.36587 0.63668 0.03297 0.0
Cd500 Cd 0.346 0.65934 -0.00071 0.0
C501 C 0.38985 0.72259 0.00417 0.0
O502 O 0.37605 0.62952 0.97319 0.0
O503 O 0.35076 0.66717 0.96055 0.0
O504 O 0.30105 0.62745 0.00472 0.0
C505 C 0.36735 0.64429 0.9568 0.0
O506 O 0.41176 0.70632 0.99724 0.0
C507 C 0.2817 0.64811 0.00102 0.0
O508 O 0.36395 0.7108 0.00833 0.0
O509 O 0.29224 0.67425 0.99704 0.0
C510 C 0.40623 0.88246 0.2176 0.0
O511 O 0.42994 0.87892 0.22923 0.0
Cd512 Cd 0.42942 0.85783 0.26486 0.0
O513 O 0.38004 0.87531 0.22486 0.0
Cd514 Cd 0.35784 0.85478 0.25847 0.0
C515 C 0.39709 0.78876 0.25339 0.0
O516 O 0.38967 0.8829 0.28459 0.0
O517 O 0.36088 0.84794 0.2976 0.0
O518 O 0.31461 0.88929 0.25496 0.0
C519 C 0.37931 0.86963 0.30109 0.0
O520 O 0.42055 0.80361 0.25963 0.0
C521 C 0.29418 0.86891 0.2558 0.0
O522 O 0.37172 0.80221 0.25049 0.0
O523 O 0.30349 0.84178 0.25714 0.0
C524 C 0.12516 0.89915 0.46789 0.0
O525 O 0.12597 0.92198 0.48057 0.0
Cd526 Cd 0.14409 0.92082 0.51724 0.0
O527 O 0.13361 0.8733 0.47459 0.0
Cd528 Cd 0.15332 0.85175 0.50892 0.0
C529 C 0.21674 0.89554 0.50828 0.0
O530 O 0.12091 0.87876 0.53494 0.0
O531 O 0.16096 0.85724 0.548 0.0
O532 O 0.12239 0.80599 0.50319 0.0
C533 C 0.136 0.87087 0.55149 0.0
O534 O 0.19972 0.91681 0.51528 0.0
C535 C 0.14429 0.78757 0.50575 0.0
O536 O 0.20531 0.86996 0.5029 0.0
O537 O 0.17053 0.79912 0.50897 0.0
C538 C 0.1316 0.61474 0.79048 0.0
O539 O 0.13559 0.59087 0.77917 0.0
Cd540 Cd 0.15796 0.59055 0.74367 0.0
O541 O 0.13899 0.64043 0.78297 0.0
Cd542 Cd 0.16063 0.66173 0.74948 0.0
C543 C 0.22734 0.62324 0.75515 0.0
O544 O 0.13398 0.62949 0.72305 0.0
O545 O 0.17042 0.65711 0.71064 0.0
O546 O 0.12406 0.70313 0.75027 0.0
C547 C 0.14859 0.63889 0.70677 0.0
O548 O 0.21255 0.5998 0.74893 0.0
C549 C 0.14373 0.72418 0.75191 0.0
O550 O 0.21367 0.64841 0.75792 0.0
O551 O 0.17158 0.71624 0.75278 0.0
C552 C 0.87545 0.12297 0.46376 0.0
O553 O 0.86699 0.09927 0.4735 0.0
Cd554 Cd 0.84442 0.0989 0.5089 0.0
O555 O 0.87108 0.1491 0.47215 0.0
Cd556 Cd 0.84678 0.17004 0.50531 0.0
C557 C 0.77805 0.13484 0.49709 0.0
O558 O 0.87122 0.13567 0.53076 0.0
O559 O 0.83649 0.16476 0.54408 0.0
O560 O 0.88293 0.21235 0.50603 0.0
C561 C 0.85723 0.14537 0.54736 0.0
O562 O 0.79058 0.11068 0.5037 0.0
C563 C 0.8628 0.23294 0.50522 0.0
O564 O 0.79377 0.15885 0.49474 0.0
O565 O 0.83516 0.22425 0.50417 0.0
C566 C 0.89964 0.38271 0.7113 0.0
O567 O 0.92367 0.37887 0.72251 0.0
Cd568 Cd 0.92333 0.35665 0.75773 0.0
O569 O 0.87373 0.37523 0.71887 0.0
Cd570 Cd 0.8536 0.35314 0.75274 0.0
C571 C 0.89212 0.28766 0.74555 0.0
O572 O 0.88466 0.38048 0.77959 0.0
O573 O 0.86234 0.33993 0.79071 0.0
O574 O 0.8097 0.38718 0.75381 0.0
C575 C 0.87722 0.36384 0.79527 0.0
O576 O 0.91558 0.30211 0.75231 0.0
C577 C 0.78957 0.3665 0.75272 0.0
O578 O 0.86692 0.30138 0.74276 0.0
O579 O 0.7992 0.33946 0.75131 0.0
C580 C 0.61653 0.40047 0.96025 0.0
O581 O 0.61458 0.42433 0.97184 0.0
Cd582 Cd 0.63577 0.42759 0.00777 0.0
O583 O 0.62768 0.37633 0.96807 0.0
Cd584 Cd 0.64689 0.35721 0.00311 0.0
C585 C 0.70892 0.40228 0.99806 0.0
O586 O 0.61564 0.38677 0.02849 0.0
O587 O 0.65483 0.36402 0.04187 0.0
O588 O 0.61418 0.31284 -0.00129 0.0
C589 C 0.63095 0.37956 0.04514 0.0
O590 O 0.69121 0.42407 0.00311 0.0
C591 C 0.63525 0.29344 0.00096 0.0
O592 O 0.69849 0.37544 0.99596 0.0
O593 O 0.66214 0.30378 0.00372 0.0
C594 C 0.64539 0.12451 0.28403 0.0
O595 O 0.64728 0.0999 0.27327 0.0
Cd596 Cd 0.67177 0.09746 0.23851 0.0
O597 O 0.65465 0.1492 0.27593 0.0
Cd598 Cd 0.67624 0.16839 0.24189 0.0
C599 C 0.74143 0.12966 0.25102 0.0
O600 O 0.64914 0.13525 0.21604 0.0
O601 O 0.68646 0.16149 0.20339 0.0
O602 O 0.63928 0.20914 0.24541 0.0
C603 C 0.66427 0.14365 0.19971 0.0
O604 O 0.7262 0.10622 0.24537 0.0
C605 C 0.65826 0.23059 0.24311 0.0
O606 O 0.72847 0.15539 0.25231 0.0
O607 O 0.68604 0.22311 0.24058 0.0
C608 C 0.20871 0.85888 0.26243 0.0
C609 C 0.19845 0.88859 0.26637 0.0
C610 C 0.23945 0.85289 0.25791 0.0
C611 C 0.26119 0.87638 0.25715 0.0
H612 H 0.19302 0.83997 0.26356 0.0
H613 H 0.24637 0.82952 0.25578 0.0
S614 S 0.24556 0.95845 0.26473 0.0
N615 N 0.2121 0.94194 0.26812 0.0
N616 N 0.26976 0.93084 0.25923 0.0
C617 C 0.25089 0.90638 0.25984 0.0
C618 C 0.21956 0.91245 0.26453 0.0
C619 C 0.10276 0.71198 0.50549 0.0
C620 C 0.12477 0.69203 0.51378 0.0
C621 C 0.10967 0.74255 0.50204 0.0
C622 C 0.13889 0.75441 0.50673 0.0
H623 H 0.07974 0.70408 0.50215 0.0
H624 H 0.09165 0.75716 0.49623 0.0
S625 S 0.20503 0.71135 0.52808 0.0
N626 N 0.17722 0.68616 0.52618 0.0
N627 N 0.19042 0.74333 0.51926 0.0
C628 C 0.1615 0.73439 0.51417 0.0
C629 C 0.1544 0.7033 0.5178 0.0
C630 C 0.30747 0.59048 0.7578 0.0
C631 C 0.32397 0.61257 0.76955 0.0
C632 C 0.27646 0.59445 0.7529 0.0
C633 C 0.26064 0.62067 0.75958 0.0
H634 H 0.31856 0.5698 0.75248 0.0
H635 H 0.26479 0.57659 0.74395 0.0
S636 S 0.29349 0.68515 0.79122 0.0
N637 N 0.32226 0.66145 0.78807 0.0
N638 N 0.26412 0.66919 0.77864 0.0
C639 C 0.27706 0.64321 0.77109 0.0
C640 C 0.30866 0.63909 0.77612 0.0
C641 C 0.38381 0.80117 0.02935 0.0
C642 C 0.40787 0.81706 0.01953 0.0
C643 C 0.37749 0.77093 0.02379 0.0
C644 C 0.39516 0.7553 0.00834 0.0
H645 H 0.37039 0.81186 0.04198 0.0
H646 H 0.3593 0.75943 0.03223 0.0
S647 S 0.45823 0.78778 0.97598 0.0
N648 N 0.44746 0.81582 0.99211 0.0
N649 N 0.43608 0.7588 0.98195 0.0
C650 C 0.41854 0.77127 0.99781 0.0
C651 C 0.42478 0.80215 0.00334 0.0
C652 C 0.19971 0.65097 0.98151 0.0
C653 C 0.18655 0.62493 0.99057 0.0
C654 C 0.23006 0.65912 0.98591 0.0
C655 C 0.24864 0.64135 -0.00071 0.0
H656 H 0.18695 0.66446 0.9701 0.0
H657 H 0.23943 0.6787 0.97787 0.0
S658 S 0.22415 0.57362 0.02959 0.0
N659 N 0.19351 0.58355 0.01571 0.0
N660 N 0.25098 0.5983 0.02335 0.0
C661 C 0.23546 0.61613 0.00933 0.0
C662 C 0.20435 0.60806 0.00511 0.0
C663 C 0.37629 0.70911 0.23421 0.0
C664 C 0.404 0.69338 0.23613 0.0
C665 C 0.37412 0.73972 0.24028 0.0
C666 C 0.39957 0.75576 0.2486 0.0
H667 H 0.35639 0.69797 0.22726 0.0
H668 H 0.35243 0.75099 0.23796 0.0
S669 S 0.47659 0.72351 0.25892 0.0
N670 N 0.45674 0.69507 0.24839 0.0
N671 N 0.45293 0.75254 0.25986 0.0
C672 C 0.42714 0.73979 0.2514 0.0
C673 C 0.4293 0.70865 0.24514 0.0
C674 C 0.29751 0.88841 0.48681 0.0
C675 C 0.31265 0.91339 0.49636 0.0
C676 C 0.26679 0.8823 0.49128 0.0
C677 C 0.2499 0.90106 0.50537 0.0
H678 H 0.30912 0.87409 0.47511 0.0
H679 H 0.25596 0.86331 0.48301 0.0
S680 S 0.28012 0.96712 0.53664 0.0
N681 N 0.30941 0.95527 0.52213 0.0
N682 N 0.25151 0.94417 0.53035 0.0
C683 C 0.26516 0.9254 0.51574 0.0
C684 C 0.29653 0.93148 0.51126 0.0
C685 C 0.09869 0.79435 0.73795 0.0
C686 C 0.1177 0.81822 0.74518 0.0
C687 C 0.10682 0.76408 0.741 0.0
C688 C 0.13453 0.75636 0.7511 0.0
H689 H 0.07791 0.79897 0.72901 0.0
H690 H 0.09181 0.7466 0.73453 0.0
S691 S 0.19054 0.81 0.77558 0.0
N692 N 0.16391 0.83191 0.76513 0.0
N693 N 0.17975 0.77488 0.77008 0.0
C694 C 0.15321 0.77986 0.75922 0.0
C695 C 0.14468 0.81079 0.75644 0.0
C696 C 0.71674 0.40807 0.76728 0.0
C697 C 0.69361 0.38701 0.76197 0.0
C698 C 0.74756 0.40158 0.76352 0.0
C699 C 0.7566 0.37362 0.75451 0.0
H700 H 0.71113 0.42937 0.77517 0.0
H701 H 0.76449 0.41825 0.76846 0.0
S702 S 0.7049 0.31211 0.73531 0.0
N703 N 0.68174 0.33821 0.74522 0.0
N704 N 0.73982 0.32563 0.73874 0.0
C705 C 0.73372 0.35276 0.74837 0.0
C706 C 0.70222 0.35953 0.75197 0.0
C707 C 0.64578 0.20947 0.01096 0.0
C708 C 0.61576 0.19818 0.00987 0.0
C709 C 0.65206 0.24008 0.00714 0.0
C710 C 0.62854 0.26052 0.00204 0.0
H711 H 0.66439 0.1949 0.01584 0.0
H712 H 0.67539 0.24793 0.00901 0.0
S713 S 0.54654 0.24104 0.99435 0.0
N714 N 0.56274 0.20885 0.00127 0.0
N715 N 0.57432 0.26637 0.99405 0.0
C716 C 0.59863 0.24903 -0.00033 0.0
C717 C 0.59229 0.21788 0.00363 0.0
C718 C 0.81905 0.09361 0.26027 0.0
C719 C 0.83613 0.11695 0.27021 0.0
C720 C 0.78879 0.09823 0.25368 0.0
C721 C 0.77427 0.12638 0.25682 0.0
H722 H 0.82907 0.07143 0.2578 0.0
H723 H 0.7766 0.07932 0.24635 0.0
S724 S 0.80937 0.19501 0.28206 0.0
N725 N 0.83662 0.16928 0.28283 0.0
N726 N 0.77983 0.17821 0.27027 0.0
C727 C 0.79141 0.15017 0.26632 0.0
C728 C 0.82229 0.1454 0.27304 0.0
C729 C 0.90767 0.3042 0.51895 0.0
C730 C 0.8868 0.32755 0.51458 0.0
C731 C 0.90007 0.27378 0.5151 0.0
C732 C 0.87116 0.26543 0.50692 0.0
H733 H 0.92967 0.30931 0.52624 0.0
H734 H 0.91662 0.25665 0.51937 0.0
S735 S 0.80971 0.31803 0.49013 0.0
N736 N 0.83716 0.34041 0.49948 0.0
N737 N 0.82252 0.28314 0.49275 0.0
C738 C 0.85052 0.28858 0.5016 0.0
C739 C 0.85841 0.31963 0.50532 0.0
C740 C 0.69549 0.10873 0.49304 0.0
C741 C 0.68228 0.12954 0.47874 0.0
C742 C 0.72623 0.11108 0.49924 0.0
C743 C 0.74503 0.13443 0.49149 0.0
H744 H 0.68204 0.0902 0.49927 0.0
H745 H 0.73539 0.09421 0.51005 0.0
S746 S 0.72154 0.19469 0.45354 0.0
N747 N 0.6904 0.17417 0.45684 0.0
N748 N 0.74799 0.17903 0.46887 0.0
C749 C 0.73191 0.15587 0.4776 0.0
C750 C 0.70061 0.15333 0.47115 0.0
C751 C 0.92392 0.20769 0.74224 0.0
C752 C 0.90079 0.1915 0.73123 0.0
C753 C 0.92076 0.23864 0.74697 0.0
C754 C 0.89438 0.25467 0.74081 0.0
H755 H 0.94466 0.19633 0.74721 0.0
H756 H 0.93927 0.25006 0.75547 0.0
S757 S 0.82769 0.22272 0.71075 0.0
N758 N 0.85106 0.19379 0.71367 0.0
N759 N 0.84483 0.25179 0.72273 0.0
C760 C 0.871 0.23862 0.72983 0.0
C761 C 0.87428 0.20711 0.72501 0.0
C762 C 0.79295 0.38862 0.98627 0.0
C763 C 0.8047 0.41801 0.98393 0.0
C764 C 0.76211 0.38381 0.99114 0.0
C765 C 0.74183 0.40824 0.99405 0.0
H766 H 0.80749 0.36912 0.98363 0.0
H767 H 0.75409 0.36069 0.99237 0.0
S768 S 0.76222 0.48985 0.99118 0.0
N769 N 0.79444 0.47193 0.98596 0.0
N770 N 0.73646 0.46317 0.99519 0.0
C771 C 0.75366 0.43786 0.99242 0.0
C772 C 0.78506 0.44267 0.98732 0.0
C773 C 0.60547 0.29857 0.24279 0.0
C774 C 0.62449 0.32212 0.23577 0.0
C775 C 0.61693 0.26937 0.24594 0.0
C776 C 0.64786 0.26251 0.24213 0.0
H777 H 0.58135 0.30257 0.24535 0.0
H778 H 0.60113 0.25187 0.25083 0.0
S779 S 0.70744 0.31657 0.22433 0.0
N780 N 0.67593 0.33695 0.22564 0.0
N781 N 0.69761 0.28219 0.23185 0.0
C782 C 0.66741 0.28617 0.23594 0.0
C783 C 0.65569 0.31594 0.2327 0.0
C784 C 0.10536 0.87983 0.40925 0.0
C785 C 0.10133 0.90839 0.39995 0.0
C786 C 0.1125 0.87705 0.43129 0.0
C787 C 0.11561 0.90274 0.44492 0.0
H788 H 0.10387 0.85951 0.39928 0.0
H789 H 0.11601 0.85455 0.43759 0.0
S790 S 0.10469 0.98268 0.42846 0.0
N791 N 0.09909 0.96273 0.406 0.0
N792 N 0.1124 0.95779 0.44741 0.0
C793 C 0.11057 0.93145 0.43584 0.0
C794 C 0.1035 0.9342 0.41337 0.0
C795 C 0.15128 0.63094 0.64551 0.0
C796 C 0.12833 0.60947 0.64091 0.0
C797 C 0.15765 0.64023 0.66684 0.0
C798 C 0.1414 0.62832 0.68442 0.0
H799 H 0.16408 0.64104 0.63247 0.0
H800 H 0.17536 0.65705 0.66951 0.0
S801 S 0.08027 0.56995 0.68099 0.0
N802 N 0.09023 0.57547 0.6556 0.0
N803 N 0.10197 0.59298 0.69571 0.0
C804 C 0.11866 0.60645 0.68003 0.0
C805 C 0.11217 0.59704 0.65828 0.0
C806 C 0.41224 0.60777 0.91094 0.0
C807 C 0.40223 0.6237 0.89268 0.0
C808 C 0.40064 0.61437 0.93158 0.0
C809 C 0.3785 0.63706 0.9347 0.0
H810 H 0.42946 0.59033 0.90928 0.0
H811 H 0.40933 0.60175 0.9452 0.0
S812 S 0.3431 0.68361 0.89168 0.0
N813 N 0.36779 0.66188 0.87873 0.0
N814 N 0.34601 0.6745 0.91744 0.0
C815 C 0.3679 0.65275 0.91644 0.0
C816 C 0.37977 0.64604 0.89546 0.0
C817 C 0.44286 0.90671 0.16496 0.0
C818 C 0.41776 0.91046 0.151 0.0
C819 C 0.4388 0.89854 0.18658 0.0
C820 C 0.40944 0.89356 0.1951 0.0
H821 H 0.4659 0.90978 0.15905 0.0
H822 H 0.45898 0.89549 0.19652 0.0
S823 S 0.33609 0.90124 0.16509 0.0
N824 N 0.36255 0.90921 0.14708 0.0
N825 N 0.35467 0.89402 0.18776 0.0
C826 C 0.38405 0.898 0.18136 0.0
C827 C 0.38826 0.90643 0.15932 0.0
C828 C 0.1064 0.58056 0.84364 0.0
C829 C 0.10129 0.60604 0.85699 0.0
C830 C 0.11532 0.58366 0.82204 0.0
C831 C 0.11972 0.6124 0.81292 0.0
H832 H 0.1038 0.55798 0.85002 0.0
H833 H 0.11942 0.56325 0.8126 0.0
S834 S 0.10843 0.68638 0.84112 0.0
N835 N 0.1006 0.66093 0.85963 0.0
N836 N 0.11718 0.66698 0.81899 0.0
C837 C 0.11392 0.63814 0.82602 0.0
C838 C 0.10472 0.6349 0.84804 0.0
C839 C 0.42072 0.61644 0.09776 0.0
C840 C 0.39784 0.59827 0.10698 0.0
C841 C 0.41883 0.62572 0.07621 0.0
C842 C 0.39367 0.61776 0.06312 0.0
H843 H 0.44006 0.62414 0.10737 0.0
H844 H 0.43683 0.63996 0.06995 0.0
S845 S 0.32869 0.56876 0.07858 0.0
N846 N 0.35024 0.57085 0.10059 0.0
N847 N 0.34602 0.58967 0.06037 0.0
C848 C 0.37072 0.59945 0.07193 0.0
C849 C 0.37295 0.5894 0.09377 0.0
C850 C 0.37612 0.88044 0.362 0.0
C851 C 0.40231 0.89786 0.36657 0.0
C852 C 0.36922 0.87096 0.34081 0.0
C853 C 0.38797 0.87905 0.32337 0.0
H854 H 0.36087 0.87409 0.37494 0.0
H855 H 0.3487 0.85768 0.33805 0.0
S856 S 0.45937 0.92439 0.32696 0.0
N857 N 0.44728 0.9226 0.3522 0.0
N858 N 0.43418 0.90521 0.3122 0.0
C859 C 0.41435 0.89639 0.32777 0.0
C860 C 0.42158 0.90566 0.34942 0.0
C861 C 0.14194 0.89208 0.61102 0.0
C862 C 0.11164 0.89896 0.61649 0.0
C863 C 0.14953 0.88271 0.58998 0.0
C864 C 0.12714 0.88045 0.57359 0.0
H865 H 0.15983 0.89351 0.62319 0.0
H866 H 0.17318 0.87749 0.58651 0.0
S867 S 0.04447 0.89653 0.57978 0.0
N868 N 0.05912 0.90307 0.6041 0.0
N869 N 0.07337 0.88606 0.56432 0.0
C870 C 0.09676 0.88763 0.57885 0.0
C871 C 0.089 0.89669 0.60038 0.0
C872 C 0.61689 0.38373 0.89991 0.0
C873 C 0.59542 0.40429 0.89185 0.0
C874 C 0.62275 0.38195 0.92218 0.0
C875 C 0.60781 0.40117 0.93708 0.0
H876 H 0.62942 0.36913 0.88889 0.0
H877 H 0.63984 0.36606 0.92767 0.0
S878 S 0.54885 0.45834 0.92384 0.0
N879 N 0.55842 0.44348 0.90015 0.0
N880 N 0.56985 0.44079 0.94207 0.0
C881 C 0.58595 0.42158 0.92914 0.0
C882 C 0.57963 0.42296 0.90648 0.0
C883 C 0.62681 0.09898 0.15374 0.0
C884 C 0.64053 0.11098 0.13519 0.0
C885 C 0.63481 0.10952 0.17452 0.0
C886 C 0.6568 0.13251 0.17754 0.0
H887 H 0.60974 0.08129 0.15219 0.0
H888 H 0.62356 0.09957 0.1883 0.0
S889 S 0.69854 0.17229 0.13406 0.0
N890 N 0.67646 0.14769 0.12105 0.0
N891 N 0.69184 0.16729 0.16005 0.0
C892 C 0.67077 0.14465 0.15908 0.0
C893 C 0.66257 0.13393 0.13793 0.0
C894 C 0.89248 0.09361 0.40724 0.0
C895 C 0.91513 0.11363 0.39985 0.0
C896 C 0.88014 0.09661 0.42802 0.0
C897 C 0.8895 0.12009 0.44213 0.0
H898 H 0.88377 0.07568 0.39677 0.0
H899 H 0.86263 0.08076 0.43289 0.0
S900 S 0.94942 0.17736 0.43146 0.0
N901 N 0.94778 0.15666 0.40902 0.0
N902 N 0.92349 0.16306 0.44776 0.0
C903 C 0.91215 0.14024 0.4351 0.0
C904 C 0.9252 0.13684 0.41405 0.0
C905 C 0.93435 0.40625 0.65781 0.0
C906 C 0.90871 0.41311 0.64503 0.0
C907 C 0.93116 0.39726 0.67934 0.0
C908 C 0.90216 0.39446 0.68893 0.0
H909 H 0.95709 0.40767 0.65105 0.0
H910 H 0.95168 0.39187 0.68837 0.0
S911 S 0.82774 0.41027 0.6622 0.0
N912 N 0.85342 0.41691 0.64336 0.0
N913 N 0.84724 0.40008 0.68386 0.0
C914 C 0.87631 0.40177 0.67635 0.0
C915 C 0.87963 0.41111 0.65442 0.0
C916 C 0.60164 0.09963 0.33366 0.0
C917 C 0.60834 0.12252 0.34904 0.0
C918 C 0.6136 0.10053 0.31268 0.0
C919 C 0.63255 0.12448 0.30619 0.0
H920 H 0.58698 0.08083 0.33786 0.0
H921 H 0.60781 0.08234 0.30145 0.0
S922 S 0.65816 0.18936 0.34065 0.0
N923 N 0.6361 0.16923 0.3566 0.0
N924 N 0.65801 0.17138 0.31705 0.0
C925 C 0.63931 0.14763 0.32138 0.0
C926 C 0.62733 0.14656 0.34281 0.0
C927 C 0.89319 0.09901 0.5921 0.0
C928 C 0.87821 0.10949 0.61081 0.0
C929 C 0.88611 0.11065 0.57169 0.0
C930 C 0.86389 0.13337 0.56921 0.0
H931 H 0.91043 0.08155 0.59324 0.0
H932 H 0.89827 0.10176 0.55778 0.0
S933 S 0.81907 0.16938 0.61344 0.0
N934 N 0.84086 0.14444 0.62578 0.0
N935 N 0.82734 0.16629 0.58745 0.0
C936 C 0.84881 0.14413 0.58786 0.0
C937 C 0.856 0.13219 0.60864 0.0
C938 C 0.8944 0.40797 0.84677 0.0
C939 C 0.90573 0.3857 0.86084 0.0
C940 C 0.88578 0.40077 0.82544 0.0
C941 C 0.88736 0.3709 0.81754 0.0
H942 H 0.89159 0.43113 0.85235 0.0
H943 H 0.87704 0.41857 0.81524 0.0
S944 S 0.91769 0.30458 0.84669 0.0
N945 N 0.92044 0.33282 0.86439 0.0
N946 N 0.90239 0.31914 0.82468 0.0
C947 C 0.89882 0.34842 0.83118 0.0
C948 C 0.90841 0.35584 0.85274 0.0
C949 C 0.63323 0.38994 0.10617 0.0
C950 C 0.60849 0.40933 0.11036 0.0
C951 C 0.64015 0.38047 0.08506 0.0
C952 C 0.62265 0.39004 0.06724 0.0
H953 H 0.64713 0.38163 0.11938 0.0
H954 H 0.65937 0.3654 0.08276 0.0
S955 S 0.55611 0.44195 0.06951 0.0
N956 N 0.56694 0.43859 0.09501 0.0
N957 N 0.57974 0.42064 0.05523 0.0
C958 C 0.5979 0.40962 0.07119 0.0
C959 C 0.59086 0.41927 0.09276 0.0
loop_
_geom_bond_atom_site_label_1
_geom_bond_atom_site_label_2
_geom_bond_distance
_geom_bond_site_symmetry_2
_ccdc_geom_bond_type
H0 C27 0.929 . S
N1 C26 1.433 . S
N1 C32 1.435 . S
N1 C38 1.423 . S
H2 C28 0.930 . S
H3 C31 0.931 . S
H4 C30 0.929 . S
H5 C33 0.930 . S
H6 C34 0.932 . S
H7 C37 0.929 . S
H8 C36 0.931 . S
H9 C39 0.928 1_545 S
H10 C43 0.932 . S
H11 C40 0.931 . S
H12 C42 0.929 . S
H13 C45 0.929 . S
H14 C46 0.930 . S
H15 C48 0.929 . S
H16 C49 0.931 . S
H17 C51 0.930 . S
H18 C52 0.932 . S
H19 C54 0.931 . S
H20 C55 0.929 . S
H21 C57 0.929 . S
H22 C58 0.931 . S
H23 C60 0.929 . S
N24 C44 1.433 . S
N24 C50 1.435 . S
N24 C56 1.423 . S
H25 C61 0.932 . S
C26 N1 1.433 . S
C26 C27 1.363 . S
C26 C31 1.370 . S
C27 H0 0.929 . S
C27 C26 1.363 . S
C27 C28 1.385 . S
C28 H2 0.930 . S
C28 C27 1.385 . S
C28 C29 1.357 . S
C29 C28 1.357 . S
C29 C30 1.406 . S
C30 H4 0.929 . S
C30 C29 1.406 . S
C30 C31 1.391 . S
C31 H3 0.931 . S
C31 C26 1.370 . S
C31 C30 1.391 . S
C32 N1 1.435 . S
C32 C33 1.358 . S
C32 C37 1.371 . S
C33 H5 0.930 . S
C33 C32 1.358 . S
C33 C34 1.405 . S
C34 H6 0.932 . S
C34 C33 1.405 . S
C34 C35 1.383 . S
C35 C34 1.383 . S
C35 C36 1.393 . S
C36 H8 0.931 . S
C36 C35 1.393 . S
C36 C37 1.382 . S
C37 H7 0.929 . S
C37 C32 1.371 . S
C37 C36 1.382 . S
C38 N1 1.423 . S
C38 C39 1.369 . S
C38 C43 1.388 . S
C39 H9 0.928 1_565 S
C39 C38 1.369 . S
C39 C40 1.371 1_565 S
C40 H11 0.931 . S
C40 C39 1.371 1_545 S
C40 C41 1.396 . S
C41 C40 1.396 . S
C41 C42 1.348 1_545 S
C41 C59 1.472 . S
C42 H12 0.929 . S
C42 C41 1.348 1_565 S
C42 C43 1.443 . S
C43 H10 0.932 . S
C43 C38 1.388 . S
C43 C42 1.443 . S
C44 N24 1.433 . S
C44 C45 1.363 . S
C44 C49 1.370 . S
C45 H13 0.929 . S
C45 C44 1.363 . S
C45 C46 1.385 . S
C46 H14 0.930 . S
C46 C45 1.385 . S
C46 C47 1.357 . S
C47 C46 1.357 . S
C47 C48 1.406 . S
C48 H15 0.929 . S
C48 C47 1.406 . S
C48 C49 1.391 . S
C49 H16 0.931 . S
C49 C44 1.370 . S
C49 C48 1.391 . S
C50 N24 1.435 . S
C50 C51 1.358 . S
C50 C55 1.371 . S
C51 H17 0.930 . S
C51 C50 1.358 . S
C51 C52 1.405 . S
C52 H18 0.932 . S
C52 C51 1.405 . S
C52 C53 1.383 . S
C53 C52 1.383 . S
C53 C54 1.393 . S
C54 H19 0.931 . S
C54 C53 1.393 . S
C54 C55 1.382 . S
C55 H20 0.929 . S
C55 C50 1.371 . S
C55 C54 1.382 . S
C56 N24 1.423 . S
C56 C57 1.362 . S
C56 C61 1.388 . S
C57 H21 0.929 . S
C57 C56 1.362 . S
C57 C58 1.376 1_655 S
C58 H22 0.931 . S
C58 C57 1.376 1_455 S
C58 C59 1.396 . S
C59 C41 1.472 . S
C59 C58 1.396 . S
C59 C60 1.348 1_455 S
C60 H23 0.929 . S
C60 C59 1.348 1_655 S
C60 C61 1.443 . S
C61 H25 0.932 . S
C61 C56 1.388 . S
C61 C60 1.443 . S
H62 C89 0.929 . S
N63 C88 1.433 . S
N63 C94 1.435 . S
N63 C100 1.423 . S
H64 C90 0.930 . S
H65 C93 0.931 . S
H66 C92 0.929 . S
H67 C95 0.930 . S
H68 C96 0.932 . S
H69 C99 0.929 . S
H70 C98 0.931 . S
H71 C101 0.929 . S
H72 C105 0.932 . S
H73 C102 0.931 . S
H74 C104 0.929 . S
H75 C107 0.929 . S
H76 C108 0.930 . S
H77 C110 0.929 . S
H78 C111 0.931 . S
H79 C113 0.930 . S
H80 C114 0.932 . S
H81 C116 0.931 . S
H82 C117 0.929 . S
H83 C119 0.929 . S
H84 C120 0.931 . S
H85 C122 0.929 . S
N86 C106 1.433 . S
N86 C112 1.435 . S
N86 C118 1.423 . S
H87 C123 0.932 . S
C88 N63 1.433 . S
C88 C89 1.363 . S
C88 C93 1.370 . S
C89 H62 0.929 . S
C89 C88 1.363 . S
C89 C90 1.385 . S
C90 H64 0.930 . S
C90 C89 1.385 . S
C90 C91 1.357 . S
C91 C90 1.357 . S
C91 C92 1.406 . S
C92 H66 0.929 . S
C92 C91 1.406 . S
C92 C93 1.391 . S
C93 H65 0.931 . S
C93 C88 1.370 . S
C93 C92 1.391 . S
C94 N63 1.435 . S
C94 C95 1.358 . S
C94 C99 1.371 . S
C95 H67 0.930 . S
C95 C94 1.358 . S
C95 C96 1.405 . S
C96 H68 0.932 . S
C96 C95 1.405 . S
C96 C97 1.383 . S
C97 C96 1.383 . S
C97 C98 1.393 . S
C98 H70 0.931 . S
C98 C97 1.393 . S
C98 C99 1.382 . S
C99 H69 0.929 . S
C99 C94 1.371 . S
C99 C98 1.382 . S
C100 N63 1.423 . S
C100 C101 1.362 1_655 S
C100 C105 1.388 . S
C101 H71 0.929 . S
C101 C100 1.362 1_455 S
C101 C102 1.376 . S
C102 H73 0.931 . S
C102 C101 1.376 . S
C102 C103 1.396 . S
C103 C102 1.396 . S
C103 C104 1.348 1_455 S
C103 C121 1.472 . S
C104 H74 0.929 . S
C104 C103 1.348 1_655 S
C104 C105 1.443 . S
C105 H72 0.932 . S
C105 C100 1.388 . S
C105 C104 1.443 . S
C106 N86 1.433 . S
C106 C107 1.363 . S
C106 C111 1.370 . S
C107 H75 0.929 . S
C107 C106 1.363 . S
C107 C108 1.385 . S
C108 H76 0.930 . S
C108 C107 1.385 . S
C108 C109 1.357 . S
C109 C108 1.357 . S
C109 C110 1.406 . S
C110 H77 0.929 . S
C110 C109 1.406 . S
C110 C111 1.391 . S
C111 H78 0.931 . S
C111 C106 1.370 . S
C111 C110 1.391 . S
C112 N86 1.435 . S
C112 C113 1.358 . S
C112 C117 1.371 . S
C113 H79 0.930 . S
C113 C112 1.358 . S
C113 C114 1.405 . S
C114 H80 0.932 . S
C114 C113 1.405 . S
C114 C115 1.383 . S
C115 C114 1.383 . S
C115 C116 1.393 . S
C116 H81 0.931 . S
C116 C115 1.393 . S
C116 C117 1.382 . S
C117 H82 0.929 . S
C117 C112 1.371 . S
C117 C116 1.382 . S
C118 N86 1.423 . S
C118 C119 1.362 . S
C118 C123 1.388 . S
C119 H83 0.929 . S
C119 C118 1.362 . S
C119 C120 1.376 . S
C120 H84 0.931 . S
C120 C119 1.376 . S
C120 C121 1.396 . S
C121 C103 1.472 . S
C121 C120 1.396 . S
C121 C122 1.348 . S
C122 H85 0.929 . S
C122 C121 1.348 . S
C122 C123 1.443 . S
C123 H87 0.932 . S
C123 C118 1.388 . S
C123 C122 1.443 . S
H124 C151 0.929 . S
N125 C150 1.433 . S
N125 C156 1.435 . S
N125 C162 1.423 . S
H126 C152 0.930 . S
H127 C155 0.931 . S
H128 C154 0.929 . S
H129 C157 0.930 . S
H130 C158 0.932 . S
H131 C161 0.929 . S
H132 C160 0.931 . S
H133 C163 0.929 . S
H134 C167 0.932 . S
H135 C164 0.931 . S
H136 C166 0.929 . S
H137 C169 0.929 . S
H138 C170 0.930 . S
H139 C172 0.929 . S
H140 C173 0.931 . S
H141 C175 0.930 . S
H142 C176 0.932 . S
H143 C178 0.931 . S
H144 C179 0.929 . S
H145 C181 0.929 . S
H146 C182 0.931 . S
H147 C184 0.929 . S
N148 C168 1.433 . S
N148 C174 1.435 . S
N148 C180 1.423 . S
H149 C185 0.932 . S
C150 N125 1.433 . S
C150 C151 1.363 . S
C150 C155 1.370 . S
C151 H124 0.929 . S
C151 C150 1.363 . S
C151 C152 1.385 . S
C152 H126 0.930 . S
C152 C151 1.385 . S
C152 C153 1.357 . S
C153 C152 1.357 . S
C153 C154 1.406 . S
C154 H128 0.929 . S
C154 C153 1.406 . S
C154 C155 1.391 . S
C155 H127 0.931 . S
C155 C150 1.370 . S
C155 C154 1.391 . S
C156 N125 1.435 . S
C156 C157 1.358 . S
C156 C161 1.371 . S
C157 H129 0.930 . S
C157 C156 1.358 . S
C157 C158 1.405 . S
C158 H130 0.932 . S
C158 C157 1.405 . S
C158 C159 1.383 . S
C159 C158 1.383 . S
C159 C160 1.393 . S
C160 H132 0.931 . S
C160 C159 1.393 . S
C160 C161 1.382 . S
C161 H131 0.929 . S
C161 C156 1.371 . S
C161 C160 1.382 . S
C162 N125 1.423 . S
C162 C163 1.362 . S
C162 C167 1.388 . S
C163 H133 0.929 . S
C163 C162 1.362 . S
C163 C164 1.376 . S
C164 H135 0.931 . S
C164 C163 1.376 . S
C164 C165 1.396 . S
C165 C164 1.396 . S
C165 C166 1.348 . S
C165 C183 1.472 . S
C166 H136 0.929 . S
C166 C165 1.348 . S
C166 C167 1.443 . S
C167 H134 0.932 . S
C167 C162 1.388 . S
C167 C166 1.443 . S
C168 N148 1.433 . S
C168 C169 1.363 . S
C168 C173 1.370 . S
C169 H137 0.929 . S
C169 C168 1.363 . S
C169 C170 1.385 . S
C170 H138 0.930 . S
C170 C169 1.385 . S
C170 C171 1.357 . S
C171 C170 1.357 . S
C171 C172 1.406 . S
C172 H139 0.929 . S
C172 C171 1.406 . S
C172 C173 1.391 . S
C173 H140 0.931 . S
C173 C168 1.370 . S
C173 C172 1.391 . S
C174 N148 1.435 . S
C174 C175 1.358 . S
C174 C179 1.371 . S
C175 H141 0.930 . S
C175 C174 1.358 . S
C175 C176 1.405 . S
C176 H142 0.932 . S
C176 C175 1.405 . S
C176 C177 1.383 . S
C177 C176 1.383 . S
C177 C178 1.393 . S
C178 H143 0.931 . S
C178 C177 1.393 . S
C178 C179 1.382 . S
C179 H144 0.929 . S
C179 C174 1.371 . S
C179 C178 1.382 . S
C180 N148 1.423 . S
C180 C181 1.362 . S
C180 C185 1.388 . S
C181 H145 0.929 . S
C181 C180 1.362 . S
C181 C182 1.376 . S
C182 H146 0.931 . S
C182 C181 1.376 . S
C182 C183 1.396 . S
C183 C165 1.472 . S
C183 C182 1.396 . S
C183 C184 1.348 . S
C184 H147 0.929 . S
C184 C183 1.348 . S
C184 C185 1.443 . S
C185 H149 0.932 . S
C185 C180 1.388 . S
C185 C184 1.443 . S
H186 C213 0.929 . S
N187 C212 1.433 . S
N187 C218 1.435 . S
N187 C224 1.423 . S
H188 C214 0.930 . S
H189 C217 0.931 . S
H190 C216 0.929 . S
H191 C219 0.930 . S
H192 C220 0.932 . S
H193 C223 0.929 . S
H194 C222 0.931 1_556 S
H195 C225 0.929 . S
H196 C229 0.932 . S
H197 C226 0.931 . S
H198 C228 0.929 . S
H199 C231 0.929 . S
H200 C232 0.930 . S
H201 C234 0.929 . S
H202 C235 0.931 . S
H203 C237 0.930 . S
H204 C238 0.932 . S
H205 C240 0.931 1_556 S
H206 C241 0.929 . S
H207 C243 0.929 . S
H208 C244 0.931 1_565 S
H209 C246 0.929 . S
N210 C230 1.433 . S
N210 C236 1.435 . S
N210 C242 1.423 . S
H211 C247 0.932 . S
C212 N187 1.433 . S
C212 C213 1.363 . S
C212 C217 1.370 . S
C213 H186 0.929 . S
C213 C212 1.363 . S
C213 C214 1.385 . S
C214 H188 0.930 . S
C214 C213 1.385 . S
C214 C215 1.357 . S
C215 C214 1.357 . S
C215 C216 1.406 . S
C216 H190 0.929 . S
C216 C215 1.406 . S
C216 C217 1.391 . S
C217 H189 0.931 . S
C217 C212 1.370 . S
C217 C216 1.391 . S
C218 N187 1.435 . S
C218 C219 1.358 . S
C218 C223 1.371 . S
C219 H191 0.930 . S
C219 C218 1.358 . S
C219 C220 1.405 . S
C220 H192 0.932 . S
C220 C219 1.405 . S
C220 C221 1.383 . S
C221 C220 1.383 . S
C221 C222 1.393 . S
C222 H194 0.931 1_554 S
C222 C221 1.393 . S
C222 C223 1.382 . S
C223 H193 0.929 . S
C223 C218 1.371 . S
C223 C222 1.382 . S
C224 N187 1.423 . S
C224 C225 1.362 . S
C224 C229 1.388 . S
C225 H195 0.929 . S
C225 C224 1.362 . S
C225 C226 1.376 . S
C226 H197 0.931 . S
C226 C225 1.376 . S
C226 C227 1.396 . S
C227 C226 1.396 . S
C227 C228 1.348 . S
C227 C245 1.472 1_565 S
C228 H198 0.929 . S
C228 C227 1.348 . S
C228 C229 1.443 . S
C229 H196 0.932 . S
C229 C224 1.388 . S
C229 C228 1.443 . S
C230 N210 1.433 . S
C230 C231 1.363 . S
C230 C235 1.370 . S
C231 H199 0.929 . S
C231 C230 1.363 . S
C231 C232 1.385 . S
C232 H200 0.930 . S
C232 C231 1.385 . S
C232 C233 1.357 . S
C233 C232 1.357 . S
C233 C234 1.406 . S
C234 H201 0.929 . S
C234 C233 1.406 . S
C234 C235 1.391 . S
C235 H202 0.931 . S
C235 C230 1.370 . S
C235 C234 1.391 . S
C236 N210 1.435 . S
C236 C237 1.358 . S
C236 C241 1.371 . S
C237 H203 0.930 . S
C237 C236 1.358 . S
C237 C238 1.405 . S
C238 H204 0.932 . S
C238 C237 1.405 . S
C238 C239 1.383 . S
C239 C238 1.383 . S
C239 C240 1.393 . S
C240 H205 0.931 1_554 S
C240 C239 1.393 . S
C240 C241 1.382 . S
C241 H206 0.929 . S
C241 C236 1.371 . S
C241 C240 1.382 . S
C242 N210 1.423 . S
C242 C243 1.362 . S
C242 C247 1.388 . S
C243 H207 0.929 . S
C243 C242 1.362 . S
C243 C244 1.376 . S
C244 H208 0.931 1_545 S
C244 C243 1.376 . S
C244 C245 1.396 . S
C245 C227 1.472 1_545 S
C245 C244 1.396 . S
C245 C246 1.348 . S
C246 H209 0.929 . S
C246 C245 1.348 . S
C246 C247 1.443 . S
C247 H211 0.932 . S
C247 C242 1.388 . S
C247 C246 1.443 . S
H248 C275 0.929 . S
N249 C274 1.433 . S
N249 C280 1.435 . S
N249 C286 1.423 . S
H250 C276 0.930 . S
H251 C279 0.931 . S
H252 C278 0.929 . S
H253 C281 0.930 . S
H254 C282 0.932 . S
H255 C285 0.929 . S
H256 C284 0.899 1_554 S
H257 C287 0.929 . S
H258 C291 0.932 . S
H259 C288 0.931 . S
H260 C290 0.929 . S
H261 C293 0.929 . S
H262 C294 0.930 . S
H263 C296 0.929 . S
H264 C297 0.931 . S
H265 C299 0.930 . S
H266 C300 0.932 . S
H267 C302 0.931 1_554 S
H268 C303 0.929 . S
H269 C305 0.929 . S
H270 C306 0.906 1_455 S
H271 C308 0.929 . S
N272 C292 1.433 . S
N272 C298 1.435 . S
N272 C304 1.423 . S
H273 C309 0.932 . S
C274 N249 1.433 . S
C274 C275 1.363 . S
C274 C279 1.370 . S
C275 H248 0.929 . S
C275 C274 1.363 . S
C275 C276 1.385 . S
C276 H250 0.930 . S
C276 C275 1.385 . S
C276 C277 1.357 . S
C277 C276 1.357 . S
C277 C278 1.406 . S
C278 H252 0.929 . S
C278 C277 1.406 . S
C278 C279 1.391 . S
C279 H251 0.931 . S
C279 C274 1.370 . S
C279 C278 1.391 . S
C280 N249 1.435 . S
C280 C281 1.358 . S
C280 C285 1.371 . S
C281 H253 0.930 . S
C281 C280 1.358 . S
C281 C282 1.405 . S
C282 H254 0.932 . S
C282 C281 1.405 . S
C282 C283 1.426 . S
C283 C282 1.426 . S
C283 C284 1.393 . S
C284 H256 0.899 1_556 S
C284 C283 1.393 . S
C284 C285 1.413 . S
C285 H255 0.929 . S
C285 C280 1.371 . S
C285 C284 1.413 . S
C286 N249 1.423 . S
C286 C287 1.362 . S
C286 C291 1.388 . S
C287 H257 0.929 . S
C287 C286 1.362 . S
C287 C288 1.376 . S
C288 H259 0.931 . S
C288 C287 1.376 . S
C288 C289 1.396 . S
C289 C288 1.396 . S
C289 C290 1.348 . S
C289 C307 1.472 . S
C290 H260 0.929 . S
C290 C289 1.348 . S
C290 C291 1.443 . S
C291 H258 0.932 . S
C291 C286 1.388 . S
C291 C290 1.443 . S
C292 N272 1.433 . S
C292 C293 1.363 . S
C292 C297 1.370 . S
C293 H261 0.929 . S
C293 C292 1.363 . S
C293 C294 1.385 . S
C294 H262 0.930 . S
C294 C293 1.385 . S
C294 C295 1.357 . S
C295 C294 1.357 . S
C295 C296 1.406 . S
C296 H263 0.929 . S
C296 C295 1.406 . S
C296 C297 1.391 . S
C297 H264 0.931 . S
C297 C292 1.370 . S
C297 C296 1.391 . S
C298 N272 1.435 . S
C298 C299 1.358 . S
C298 C303 1.371 . S
C299 H265 0.930 . S
C299 C298 1.358 . S
C299 C300 1.405 . S
C300 H266 0.932 . S
C300 C299 1.405 . S
C300 C301 1.383 . S
C301 C300 1.383 . S
C301 C302 1.393 . S
C302 H267 0.931 1_556 S
C302 C301 1.393 . S
C302 C303 1.382 . S
C303 H268 0.929 . S
C303 C298 1.371 . S
C303 C302 1.382 . S
C304 N272 1.423 . S
C304 C305 1.362 . S
C304 C309 1.388 . S
C305 H269 0.929 . S
C305 C304 1.362 . S
C305 C306 1.404 . S
C306 H270 0.906 1_655 S
C306 C305 1.404 . S
C306 C307 1.393 1_655 S
C307 C289 1.472 . S
C307 C306 1.393 1_455 S
C307 C308 1.348 1_455 S
C308 H271 0.929 . S
C308 C307 1.348 1_655 S
C308 C309 1.443 . S
C309 H273 0.932 . S
C309 C304 1.388 . S
C309 C308 1.443 . S
H310 C337 0.929 . S
N311 C336 1.433 . S
N311 C342 1.435 . S
N311 C348 1.423 . S
H312 C338 0.930 . S
H313 C341 0.931 . S
H314 C340 0.929 . S
H315 C343 0.930 . S
H316 C344 0.932 . S
H317 C347 0.929 . S
H318 C346 0.931 . S
H319 C349 0.929 . S
H320 C353 0.932 . S
H321 C350 0.931 . S
H322 C352 0.929 . S
H323 C355 0.929 . S
H324 C356 0.930 . S
H325 C358 0.929 . S
H326 C359 0.931 . S
H327 C361 0.930 . S
H328 C362 0.932 . S
H329 C364 0.931 . S
H330 C365 0.929 . S
H331 C367 0.929 . S
H332 C368 0.931 . S
H333 C370 0.929 . S
N334 C354 1.433 . S
N334 C360 1.435 . S
N334 C366 1.423 . S
H335 C371 0.932 . S
C336 N311 1.433 . S
C336 C337 1.363 . S
C336 C341 1.370 . S
C337 H310 0.929 . S
C337 C336 1.363 . S
C337 C338 1.385 . S
C338 H312 0.930 . S
C338 C337 1.385 . S
C338 C339 1.357 . S
C339 C338 1.357 . S
C339 C340 1.406 . S
C340 H314 0.929 . S
C340 C339 1.406 . S
C340 C341 1.391 . S
C341 H313 0.931 . S
C341 C336 1.370 . S
C341 C340 1.391 . S
C342 N311 1.435 . S
C342 C343 1.358 . S
C342 C347 1.371 . S
C343 H315 0.930 . S
C343 C342 1.358 . S
C343 C344 1.405 . S
C344 H316 0.932 . S
C344 C343 1.405 . S
C344 C345 1.383 . S
C345 C344 1.383 . S
C345 C346 1.393 . S
C346 H318 0.931 . S
C346 C345 1.393 . S
C346 C347 1.382 . S
C347 H317 0.929 . S
C347 C342 1.371 . S
C347 C346 1.382 . S
C348 N311 1.423 . S
C348 C349 1.362 . S
C348 C353 1.388 . S
C349 H319 0.929 . S
C349 C348 1.362 . S
C349 C350 1.376 . S
C350 H321 0.931 . S
C350 C349 1.376 . S
C350 C351 1.396 . S
C351 C350 1.396 . S
C351 C352 1.348 . S
C351 C369 1.472 . S
C352 H322 0.929 . S
C352 C351 1.348 . S
C352 C353 1.443 . S
C353 H320 0.932 . S
C353 C348 1.388 . S
C353 C352 1.443 . S
C354 N334 1.433 . S
C354 C355 1.363 . S
C354 C359 1.370 . S
C355 H323 0.929 . S
C355 C354 1.363 . S
C355 C356 1.385 . S
C356 H324 0.930 . S
C356 C355 1.385 . S
C356 C357 1.357 . S
C357 C356 1.357 . S
C357 C358 1.406 . S
C358 H325 0.929 . S
C358 C357 1.406 . S
C358 C359 1.391 . S
C359 H326 0.931 . S
C359 C354 1.370 . S
C359 C358 1.391 . S
C360 N334 1.435 . S
C360 C361 1.358 . S
C360 C365 1.371 . S
C361 H327 0.930 . S
C361 C360 1.358 . S
C361 C362 1.405 . S
C362 H328 0.932 . S
C362 C361 1.405 . S
C362 C363 1.383 . S
C363 C362 1.383 . S
C363 C364 1.393 . S
C364 H329 0.931 . S
C364 C363 1.393 . S
C364 C365 1.382 . S
C365 H330 0.929 . S
C365 C360 1.371 . S
C365 C364 1.382 . S
C366 N334 1.423 . S
C366 C367 1.362 . S
C366 C371 1.388 . S
C367 H331 0.929 . S
C367 C366 1.362 . S
C367 C368 1.376 . S
C368 H332 0.931 . S
C368 C367 1.376 . S
C368 C369 1.396 . S
C369 C351 1.472 . S
C369 C368 1.396 . S
C369 C370 1.348 . S
C370 H333 0.929 . S
C370 C369 1.348 . S
C370 C371 1.443 . S
C371 H335 0.932 . S
C371 C366 1.388 . S
C371 C370 1.443 . S
H372 C399 0.929 . S
N373 C398 1.433 . S
N373 C404 1.435 . S
N373 C410 1.423 . S
H374 C400 0.930 . S
H375 C403 0.931 . S
H376 C402 0.929 . S
H377 C405 0.930 . S
H378 C406 0.932 . S
H379 C409 0.929 . S
H380 C408 0.931 . S
H381 C411 0.930 . S
H382 C415 0.932 . S
H383 C412 0.931 . S
H384 C414 0.929 . S
H385 C417 0.929 . S
H386 C418 0.930 . S
H387 C420 0.929 . S
H388 C421 0.931 . S
H389 C423 0.930 . S
H390 C424 0.932 . S
H391 C426 0.931 . S
H392 C427 0.929 . S
H393 C429 0.929 . S
H394 C430 0.931 . S
H395 C432 0.929 . S
N396 C416 1.433 . S
N396 C422 1.435 . S
N396 C428 1.423 . S
H397 C433 0.932 . S
C398 N373 1.433 . S
C398 C399 1.363 . S
C398 C403 1.370 . S
C399 H372 0.929 . S
C399 C398 1.363 . S
C399 C400 1.385 . S
C400 H374 0.930 . S
C400 C399 1.385 . S
C400 C401 1.357 . S
C401 C400 1.357 . S
C401 C402 1.406 . S
C402 H376 0.929 . S
C402 C401 1.406 . S
C402 C403 1.391 . S
C403 H375 0.931 . S
C403 C398 1.370 . S
C403 C402 1.391 . S
C404 N373 1.435 . S
C404 C405 1.358 . S
C404 C409 1.371 . S
C405 H377 0.930 . S
C405 C404 1.358 . S
C405 C406 1.405 . S
C406 H378 0.932 . S
C406 C405 1.405 . S
C406 C407 1.383 . S
C407 C406 1.383 . S
C407 C408 1.393 . S
C408 H380 0.931 . S
C408 C407 1.393 . S
C408 C409 1.382 . S
C409 H379 0.929 . S
C409 C404 1.371 . S
C409 C408 1.382 . S
C410 N373 1.423 . S
C410 C411 1.356 1_565 S
C410 C415 1.388 . S
C411 H381 0.930 . S
C411 C410 1.356 1_545 S
C411 C412 1.382 . S
C412 H383 0.931 . S
C412 C411 1.382 . S
C412 C413 1.396 . S
C413 C412 1.396 . S
C413 C414 1.348 1_545 S
C413 C431 1.472 . S
C414 H384 0.929 . S
C414 C413 1.348 1_565 S
C414 C415 1.443 . S
C415 H382 0.932 . S
C415 C410 1.388 . S
C415 C414 1.443 . S
C416 N396 1.433 . S
C416 C417 1.363 . S
C416 C421 1.370 . S
C417 H385 0.929 . S
C417 C416 1.363 . S
C417 C418 1.385 . S
C418 H386 0.930 . S
C418 C417 1.385 . S
C418 C419 1.357 . S
C419 C418 1.357 . S
C419 C420 1.406 . S
C420 H387 0.929 . S
C420 C419 1.406 . S
C420 C421 1.391 . S
C421 H388 0.931 . S
C421 C416 1.370 . S
C421 C420 1.391 . S
C422 N396 1.435 . S
C422 C423 1.358 . S
C422 C427 1.371 . S
C423 H389 0.930 . S
C423 C422 1.358 . S
C423 C424 1.405 . S
C424 H390 0.932 . S
C424 C423 1.405 . S
C424 C425 1.383 . S
C425 C424 1.383 . S
C425 C426 1.393 . S
C426 H391 0.931 . S
C426 C425 1.393 . S
C426 C427 1.382 . S
C427 H392 0.929 . S
C427 C422 1.371 . S
C427 C426 1.382 . S
C428 N396 1.423 . S
C428 C429 1.362 . S
C428 C433 1.388 . S
C429 H393 0.929 . S
C429 C428 1.362 . S
C429 C430 1.376 . S
C430 H394 0.931 . S
C430 C429 1.376 . S
C430 C431 1.396 . S
C431 C413 1.472 . S
C431 C430 1.396 . S
C431 C432 1.348 . S
C432 H395 0.929 . S
C432 C431 1.348 . S
C432 C433 1.443 . S
C433 H397 0.932 . S
C433 C428 1.388 . S
C433 C432 1.443 . S
H434 C461 0.929 . S
N435 C460 1.433 . S
N435 C466 1.435 . S
N435 C472 1.423 . S
H436 C462 0.930 . S
H437 C465 0.931 . S
H438 C464 0.929 . S
H439 C467 0.930 . S
H440 C468 0.932 . S
H441 C471 0.929 . S
H442 C470 0.931 . S
H443 C473 0.929 . S
H444 C477 0.932 . S
H445 C474 0.931 1_655 S
H446 C476 0.929 1_545 S
H447 C479 0.929 . S
H448 C480 0.930 . S
H449 C482 0.929 . S
H450 C483 0.931 . S
H451 C485 0.930 . S
H452 C486 0.932 . S
H453 C488 0.931 . S
H454 C489 0.929 . S
H455 C491 0.929 . S
H456 C492 0.931 . S
H457 C494 0.929 1_455 S
N458 C478 1.433 . S
N458 C484 1.435 . S
N458 C490 1.423 . S
H459 C495 0.932 . S
C460 N435 1.433 . S
C460 C461 1.363 . S
C460 C465 1.370 . S
C461 H434 0.929 . S
C461 C460 1.363 . S
C461 C462 1.385 . S
C462 H436 0.930 . S
C462 C461 1.385 . S
C462 C463 1.357 . S
C463 C462 1.357 . S
C463 C464 1.406 . S
C464 H438 0.929 . S
C464 C463 1.406 . S
C464 C465 1.391 . S
C465 H437 0.931 . S
C465 C460 1.370 . S
C465 C464 1.391 . S
C466 N435 1.435 . S
C466 C467 1.358 . S
C466 C471 1.371 . S
C467 H439 0.930 . S
C467 C466 1.358 . S
C467 C468 1.405 . S
C468 H440 0.932 . S
C468 C467 1.405 . S
C468 C469 1.383 . S
C469 C468 1.383 . S
C469 C470 1.393 . S
C470 H442 0.931 . S
C470 C469 1.393 . S
C470 C471 1.382 . S
C471 H441 0.929 . S
C471 C466 1.371 . S
C471 C470 1.382 . S
C472 N435 1.423 . S
C472 C473 1.362 . S
C472 C477 1.388 . S
C473 H443 0.929 . S
C473 C472 1.362 . S
C473 C474 1.376 . S
C474 H445 0.931 1_455 S
C474 C473 1.376 . S
C474 C475 1.396 . S
C475 C474 1.396 . S
C475 C476 1.348 . S
C475 C493 1.472 1_465 S
C476 H446 0.929 1_565 S
C476 C475 1.348 . S
C476 C477 1.443 . S
C477 H444 0.932 . S
C477 C472 1.388 . S
C477 C476 1.443 . S
C478 N458 1.433 . S
C478 C479 1.363 . S
C478 C483 1.370 . S
C479 H447 0.929 . S
C479 C478 1.363 . S
C479 C480 1.385 . S
C480 H448 0.930 . S
C480 C479 1.385 . S
C480 C481 1.357 . S
C481 C480 1.357 . S
C481 C482 1.406 . S
C482 H449 0.929 . S
C482 C481 1.406 . S
C482 C483 1.391 . S
C483 H450 0.931 . S
C483 C478 1.370 . S
C483 C482 1.391 . S
C484 N458 1.435 . S
C484 C485 1.358 . S
C484 C489 1.371 . S
C485 H451 0.930 . S
C485 C484 1.358 . S
C485 C486 1.405 . S
C486 H452 0.932 . S
C486 C485 1.405 . S
C486 C487 1.383 . S
C487 C486 1.383 . S
C487 C488 1.393 . S
C488 H453 0.931 . S
C488 C487 1.393 . S
C488 C489 1.382 . S
C489 H454 0.929 . S
C489 C484 1.371 . S
C489 C488 1.382 . S
C490 N458 1.423 . S
C490 C491 1.362 . S
C490 C495 1.388 . S
C491 H455 0.929 . S
C491 C490 1.362 . S
C491 C492 1.376 . S
C492 H456 0.931 . S
C492 C491 1.376 . S
C492 C493 1.396 . S
C493 C475 1.472 1_645 S
C493 C492 1.396 . S
C493 C494 1.348 . S
C494 H457 0.929 1_655 S
C494 C493 1.348 . S
C494 C495 1.443 . S
C495 H459 0.932 . S
C495 C490 1.388 . S
C495 C494 1.443 . S
C496 O497 1.306 . S
C496 O499 1.160 . S
O497 C496 1.306 . S
O497 Cd498 2.228 . S
Cd498 O497 2.228 . S
Cd498 O502 2.273 1_554 S
Cd498 O506 2.277 . S
O499 C496 1.160 . S
O499 Cd500 2.203 . S
Cd500 O499 2.203 . S
Cd500 O502 2.411 1_554 S
Cd500 O503 2.333 1_554 S
Cd500 O504 2.352 . S
Cd500 O508 2.277 . S
Cd500 O509 2.356 1_554 S
C501 O506 1.209 . S
C501 O508 1.226 . S
O502 Cd498 2.273 1_556 S
O502 Cd500 2.411 1_556 S
O502 C505 1.320 . S
O503 Cd500 2.333 1_556 S
O503 C505 1.214 . S
O504 Cd500 2.352 . S
O504 C507 1.258 1_554 S
C505 O502 1.320 . S
C505 O503 1.214 . S
O506 Cd498 2.277 . S
O506 C501 1.209 . S
C507 O504 1.258 1_556 S
C507 O509 1.283 . S
O508 Cd500 2.277 . S
O508 C501 1.226 . S
O509 Cd500 2.356 1_556 S
O509 C507 1.283 . S
C510 O511 1.306 . S
C510 O513 1.160 . S
O511 C510 1.306 . S
O511 Cd512 2.228 . S
Cd512 O511 2.228 . S
Cd512 O516 2.273 . S
Cd512 O520 2.277 . S
O513 C510 1.160 . S
O513 Cd514 2.203 . S
Cd514 O513 2.203 . S
Cd514 O516 2.411 . S
Cd514 O517 2.333 . S
Cd514 O518 2.352 . S
Cd514 O522 2.277 . S
Cd514 O523 2.356 . S
C515 O520 1.209 . S
C515 O522 1.226 . S
O516 Cd512 2.273 . S
O516 Cd514 2.411 . S
O516 C519 1.320 . S
O517 Cd514 2.333 . S
O517 C519 1.214 . S
O518 Cd514 2.352 . S
O518 C521 1.258 . S
C519 O516 1.320 . S
C519 O517 1.214 . S
O520 Cd512 2.277 . S
O520 C515 1.209 . S
C521 O518 1.258 . S
C521 O523 1.282 . S
O522 Cd514 2.277 . S
O522 C515 1.226 . S
O523 Cd514 2.356 . S
O523 C521 1.282 . S
C524 O525 1.306 . S
C524 O527 1.160 . S
O525 C524 1.306 . S
O525 Cd526 2.228 . S
Cd526 O525 2.228 . S
Cd526 O530 2.273 . S
Cd526 O534 2.277 . S
O527 C524 1.160 . S
O527 Cd528 2.203 . S
Cd528 O527 2.203 . S
Cd528 O530 2.411 . S
Cd528 O531 2.333 . S
Cd528 O532 2.352 . S
Cd528 O536 2.277 . S
Cd528 O537 2.356 . S
C529 O534 1.209 . S
C529 O536 1.226 . S
O530 Cd526 2.273 . S
O530 Cd528 2.411 . S
O530 C533 1.320 . S
O531 Cd528 2.333 . S
O531 C533 1.214 . S
O532 Cd528 2.352 . S
O532 C535 1.258 . S
C533 O530 1.320 . S
C533 O531 1.214 . S
O534 Cd526 2.277 . S
O534 C529 1.209 . S
C535 O532 1.258 . S
C535 O537 1.282 . S
O536 Cd528 2.277 . S
O536 C529 1.226 . S
O537 Cd528 2.356 . S
O537 C535 1.282 . S
C538 O539 1.306 . S
C538 O541 1.160 . S
O539 C538 1.306 . S
O539 Cd540 2.228 . S
Cd540 O539 2.228 . S
Cd540 O544 2.273 . S
Cd540 O548 2.277 . S
O541 C538 1.160 . S
O541 Cd542 2.203 . S
Cd542 O541 2.203 . S
Cd542 O544 2.411 . S
Cd542 O545 2.333 . S
Cd542 O546 2.352 . S
Cd542 O550 2.277 . S
Cd542 O551 2.356 . S
C543 O548 1.209 . S
C543 O550 1.226 . S
O544 Cd540 2.273 . S
O544 Cd542 2.411 . S
O544 C547 1.320 . S
O545 Cd542 2.333 . S
O545 C547 1.214 . S
O546 Cd542 2.352 . S
O546 C549 1.258 . S
C547 O544 1.320 . S
C547 O545 1.214 . S
O548 Cd540 2.277 . S
O548 C543 1.209 . S
C549 O546 1.258 . S
C549 O551 1.282 . S
O550 Cd542 2.277 . S
O550 C543 1.226 . S
O551 Cd542 2.356 . S
O551 C549 1.282 . S
C552 O553 1.306 . S
C552 O555 1.160 . S
O553 C552 1.306 . S
O553 Cd554 2.228 . S
Cd554 O553 2.228 . S
Cd554 O558 2.273 . S
Cd554 O562 2.277 . S
O555 C552 1.160 . S
O555 Cd556 2.203 . S
Cd556 O555 2.203 . S
Cd556 O558 2.411 . S
Cd556 O559 2.333 . S
Cd556 O560 2.352 . S
Cd556 O564 2.277 . S
Cd556 O565 2.356 . S
C557 O562 1.209 . S
C557 O564 1.226 . S
O558 Cd554 2.273 . S
O558 Cd556 2.411 . S
O558 C561 1.320 . S
O559 Cd556 2.333 . S
O559 C561 1.214 . S
O560 Cd556 2.352 . S
O560 C563 1.258 . S
C561 O558 1.320 . S
C561 O559 1.214 . S
O562 Cd554 2.277 . S
O562 C557 1.209 . S
C563 O560 1.258 . S
C563 O565 1.282 . S
O564 Cd556 2.277 . S
O564 C557 1.226 . S
O565 Cd556 2.356 . S
O565 C563 1.282 . S
C566 O567 1.306 . S
C566 O569 1.160 . S
O567 C566 1.306 . S
O567 Cd568 2.228 . S
Cd568 O567 2.228 . S
Cd568 O572 2.273 . S
Cd568 O576 2.277 . S
O569 C566 1.160 . S
O569 Cd570 2.203 . S
Cd570 O569 2.203 . S
Cd570 O572 2.411 . S
Cd570 O573 2.333 . S
Cd570 O574 2.352 . S
Cd570 O578 2.277 . S
Cd570 O579 2.356 . S
C571 O576 1.209 . S
C571 O578 1.226 . S
O572 Cd568 2.273 . S
O572 Cd570 2.411 . S
O572 C575 1.320 . S
O573 Cd570 2.333 . S
O573 C575 1.214 . S
O574 Cd570 2.352 . S
O574 C577 1.258 . S
C575 O572 1.320 . S
C575 O573 1.214 . S
O576 Cd568 2.277 . S
O576 C571 1.209 . S
C577 O574 1.258 . S
C577 O579 1.282 . S
O578 Cd570 2.277 . S
O578 C571 1.226 . S
O579 Cd570 2.356 . S
O579 C577 1.282 . S
C580 O581 1.306 . S
C580 O583 1.160 . S
O581 C580 1.306 . S
O581 Cd582 2.202 1_556 S
Cd582 O581 2.202 1_554 S
Cd582 O586 2.294 . S
Cd582 O590 2.274 1_554 S
O583 C580 1.160 . S
O583 Cd584 2.203 1_556 S
Cd584 O583 2.203 1_554 S
Cd584 O586 2.411 . S
Cd584 O587 2.333 . S
Cd584 O588 2.352 . S
Cd584 O592 2.277 1_554 S
Cd584 O593 2.356 . S
C585 O590 1.209 . S
C585 O592 1.226 . S
O586 Cd582 2.294 . S
O586 Cd584 2.411 . S
O586 C589 1.320 . S
O587 Cd584 2.333 . S
O587 C589 1.214 . S
O588 Cd584 2.352 . S
O588 C591 1.258 . S
C589 O586 1.320 . S
C589 O587 1.214 . S
O590 Cd582 2.274 1_556 S
O590 C585 1.209 . S
C591 O588 1.258 . S
C591 O593 1.282 . S
O592 Cd584 2.277 1_556 S
O592 C585 1.226 . S
O593 Cd584 2.356 . S
O593 C591 1.282 . S
C594 O595 1.306 . S
C594 O597 1.160 . S
O595 C594 1.306 . S
O595 Cd596 2.228 . S
Cd596 O595 2.228 . S
Cd596 O600 2.273 . S
Cd596 O604 2.277 . S
O597 C594 1.160 . S
O597 Cd598 2.203 . S
Cd598 O597 2.203 . S
Cd598 O600 2.411 . S
Cd598 O601 2.333 . S
Cd598 O602 2.352 . S
Cd598 O606 2.277 . S
Cd598 O607 2.356 . S
C599 O604 1.209 . S
C599 O606 1.226 . S
O600 Cd596 2.273 . S
O600 Cd598 2.411 . S
O600 C603 1.320 . S
O601 Cd598 2.333 . S
O601 C603 1.214 . S
O602 Cd598 2.352 . S
O602 C605 1.258 . S
C603 O600 1.320 . S
C603 O601 1.214 . S
O604 Cd596 2.277 . S
O604 C599 1.209 . S
C605 O602 1.258 . S
C605 O607 1.282 . S
O606 Cd598 2.277 . S
O606 C599 1.226 . S
O607 Cd598 2.356 . S
O607 C605 1.282 . S
C608 C609 1.369 . S
C608 C610 1.419 . S
C608 H612 0.930 . S
C609 C608 1.369 . S
C609 C618 1.429 . S
C610 C608 1.419 . S
C610 C611 1.363 . S
C610 H613 0.929 . S
C611 C610 1.363 . S
C611 C617 1.428 . S
H612 C608 0.930 . S
H613 C610 0.929 . S
S614 N615 1.613 . S
S614 N616 1.610 . S
N615 S614 1.613 . S
N615 C618 1.350 . S
N616 S614 1.610 . S
N616 C617 1.351 . S
C617 C611 1.428 . S
C617 N616 1.351 . S
C617 C618 1.434 . S
C618 C609 1.429 . S
C618 N615 1.350 . S
C618 C617 1.434 . S
C619 C620 1.369 . S
C619 C621 1.419 . S
C619 H623 0.930 . S
C620 C619 1.369 . S
C620 C629 1.429 . S
C621 C619 1.419 . S
C621 C622 1.363 . S
C621 H624 0.929 . S
C622 C621 1.363 . S
C622 C628 1.428 . S
H623 C619 0.930 . S
H624 C621 0.929 . S
S625 N626 1.613 . S
S625 N627 1.610 . S
N626 S625 1.613 . S
N626 C629 1.350 . S
N627 S625 1.610 . S
N627 C628 1.351 . S
C628 C622 1.428 . S
C628 N627 1.351 . S
C628 C629 1.434 . S
C629 C620 1.429 . S
C629 N626 1.350 . S
C629 C628 1.434 . S
C630 C631 1.369 . S
C630 C632 1.419 . S
C630 H634 0.930 . S
C631 C630 1.369 . S
C631 C640 1.429 . S
C632 C630 1.419 . S
C632 C633 1.363 . S
C632 H635 0.929 . S
C633 C632 1.363 . S
C633 C639 1.428 . S
H634 C630 0.930 . S
H635 C632 0.929 . S
S636 N637 1.613 . S
S636 N638 1.610 . S
N637 S636 1.613 . S
N637 C640 1.350 . S
N638 S636 1.610 . S
N638 C639 1.351 . S
C639 C633 1.428 . S
C639 N638 1.351 . S
C639 C640 1.434 . S
C640 C631 1.429 . S
C640 N637 1.350 . S
C640 C639 1.434 . S
C641 C642 1.369 . S
C641 C643 1.419 . S
C641 H645 0.930 . S
C642 C641 1.369 . S
C642 C651 1.429 1_554 S
C643 C641 1.419 . S
C643 C644 1.363 . S
C643 H646 0.929 . S
C644 C643 1.363 . S
C644 C650 1.428 1_554 S
H645 C641 0.930 . S
H646 C643 0.929 . S
S647 N648 1.613 . S
S647 N649 1.610 . S
N648 S647 1.613 . S
N648 C651 1.350 . S
N649 S647 1.610 . S
N649 C650 1.351 . S
C650 C644 1.428 1_556 S
C650 N649 1.351 . S
C650 C651 1.434 . S
C651 C642 1.429 1_556 S
C651 N648 1.350 . S
C651 C650 1.434 . S
C652 C653 1.369 1_556 S
C652 C654 1.419 . S
C652 H656 0.930 . S
C653 C652 1.369 1_554 S
C653 C662 1.429 . S
C654 C652 1.419 . S
C654 C655 1.336 1_556 S
C654 H657 0.929 . S
C655 C654 1.336 1_554 S
C655 C661 1.466 . S
H656 C652 0.930 . S
H657 C654 0.929 . S
S658 N659 1.613 . S
S658 N660 1.610 . S
N659 S658 1.613 . S
N659 C662 1.350 . S
N660 S658 1.610 . S
N660 C661 1.351 . S
C661 C655 1.466 . S
C661 N660 1.351 . S
C661 C662 1.434 . S
C662 C653 1.429 . S
C662 N659 1.350 . S
C662 C661 1.434 . S
C663 C664 1.369 . S
C663 C665 1.419 . S
C663 H667 0.930 . S
C664 C663 1.369 . S
C664 C673 1.429 . S
C665 C663 1.419 . S
C665 C666 1.363 . S
C665 H668 0.929 . S
C666 C665 1.363 . S
C666 C672 1.428 . S
H667 C663 0.930 . S
H668 C665 0.929 . S
S669 N670 1.613 . S
S669 N671 1.610 . S
N670 S669 1.613 . S
N670 C673 1.350 . S
N671 S669 1.610 . S
N671 C672 1.351 . S
C672 C666 1.428 . S
C672 N671 1.351 . S
C672 C673 1.434 . S
C673 C664 1.429 . S
C673 N670 1.350 . S
C673 C672 1.434 . S
C674 C675 1.369 . S
C674 C676 1.419 . S
C674 H678 0.930 . S
C675 C674 1.369 . S
C675 C684 1.429 . S
C676 C674 1.419 . S
C676 C677 1.363 . S
C676 H679 0.929 . S
C677 C676 1.363 . S
C677 C683 1.428 . S
H678 C674 0.930 . S
H679 C676 0.929 . S
S680 N681 1.613 . S
S680 N682 1.610 . S
N681 S680 1.613 . S
N681 C684 1.350 . S
N682 S680 1.610 . S
N682 C683 1.351 . S
C683 C677 1.428 . S
C683 N682 1.351 . S
C683 C684 1.434 . S
C684 C675 1.429 . S
C684 N681 1.350 . S
C684 C683 1.434 . S
C685 C686 1.369 . S
C685 C687 1.419 . S
C685 H689 0.930 . S
C686 C685 1.369 . S
C686 C695 1.429 . S
C687 C685 1.419 . S
C687 C688 1.363 . S
C687 H690 0.929 . S
C688 C687 1.363 . S
C688 C694 1.428 . S
H689 C685 0.930 . S
H690 C687 0.929 . S
S691 N692 1.613 . S
S691 N693 1.610 . S
N692 S691 1.613 . S
N692 C695 1.350 . S
N693 S691 1.610 . S
N693 C694 1.351 . S
C694 C688 1.428 . S
C694 N693 1.351 . S
C694 C695 1.434 . S
C695 C686 1.429 . S
C695 N692 1.350 . S
C695 C694 1.434 . S
C696 C697 1.369 . S
C696 C698 1.419 . S
C696 H700 0.930 . S
C697 C696 1.369 . S
C697 C706 1.429 . S
C698 C696 1.419 . S
C698 C699 1.363 . S
C698 H701 0.929 . S
C699 C698 1.363 . S
C699 C705 1.428 . S
H700 C696 0.930 . S
H701 C698 0.929 . S
S702 N703 1.613 . S
S702 N704 1.610 . S
N703 S702 1.613 . S
N703 C706 1.350 . S
N704 S702 1.610 . S
N704 C705 1.351 . S
C705 C699 1.428 . S
C705 N704 1.351 . S
C705 C706 1.434 . S
C706 C697 1.429 . S
C706 N703 1.350 . S
C706 C705 1.434 . S
C707 C708 1.368 1_556 S
C707 C709 1.417 1_556 S
C707 H711 0.934 . S
C708 C707 1.368 1_554 S
C708 C717 1.429 . S
C709 C707 1.417 1_554 S
C709 C710 1.363 . S
C709 H712 0.934 . S
C710 C709 1.363 . S
C710 C716 1.428 . S
H711 C707 0.934 . S
H712 C709 0.934 . S
S713 N714 1.613 . S
S713 N715 1.610 . S
N714 S713 1.613 . S
N714 C717 1.350 . S
N715 S713 1.610 . S
N715 C716 1.351 . S
C716 C710 1.428 . S
C716 N715 1.351 . S
C716 C717 1.434 . S
C717 C708 1.429 . S
C717 N714 1.350 . S
C717 C716 1.434 . S
C718 C719 1.369 . S
C718 C720 1.419 . S
C718 H722 0.930 . S
C719 C718 1.369 . S
C719 C728 1.429 . S
C720 C718 1.419 . S
C720 C721 1.363 . S
C720 H723 0.929 . S
C721 C720 1.363 . S
C721 C727 1.428 . S
H722 C718 0.930 . S
H723 C720 0.929 . S
S724 N725 1.613 . S
S724 N726 1.610 . S
N725 S724 1.613 . S
N725 C728 1.350 . S
N726 S724 1.610 . S
N726 C727 1.351 . S
C727 C721 1.428 . S
C727 N726 1.351 . S
C727 C728 1.434 . S
C728 C719 1.429 . S
C728 N725 1.350 . S
C728 C727 1.434 . S
C729 C730 1.369 . S
C729 C731 1.419 . S
C729 H733 0.930 . S
C730 C729 1.369 . S
C730 C739 1.429 . S
C731 C729 1.419 . S
C731 C732 1.363 . S
C731 H734 0.929 . S
C732 C731 1.363 . S
C732 C738 1.428 . S
H733 C729 0.930 . S
H734 C731 0.929 . S
S735 N736 1.613 . S
S735 N737 1.610 . S
N736 S735 1.613 . S
N736 C739 1.350 . S
N737 S735 1.610 . S
N737 C738 1.351 . S
C738 C732 1.428 . S
C738 N737 1.351 . S
C738 C739 1.434 . S
C739 C730 1.429 . S
C739 N736 1.350 . S
C739 C738 1.434 . S
C740 C741 1.369 . S
C740 C742 1.419 . S
C740 H744 0.930 . S
C741 C740 1.369 . S
C741 C750 1.429 . S
C742 C740 1.419 . S
C742 C743 1.363 . S
C742 H745 0.929 . S
C743 C742 1.363 . S
C743 C749 1.428 . S
H744 C740 0.930 . S
H745 C742 0.929 . S
S746 N747 1.613 . S
S746 N748 1.610 . S
N747 S746 1.613 . S
N747 C750 1.350 . S
N748 S746 1.610 . S
N748 C749 1.351 . S
C749 C743 1.428 . S
C749 N748 1.351 . S
C749 C750 1.434 . S
C750 C741 1.429 . S
C750 N747 1.350 . S
C750 C749 1.434 . S
C751 C752 1.369 . S
C751 C753 1.419 . S
C751 H755 0.930 . S
C752 C751 1.369 . S
C752 C761 1.429 . S
C753 C751 1.419 . S
C753 C754 1.363 . S
C753 H756 0.929 . S
C754 C753 1.363 . S
C754 C760 1.428 . S
H755 C751 0.930 . S
H756 C753 0.929 . S
S757 N758 1.613 . S
S757 N759 1.610 . S
N758 S757 1.613 . S
N758 C761 1.350 . S
N759 S757 1.610 . S
N759 C760 1.351 . S
C760 C754 1.428 . S
C760 N759 1.351 . S
C760 C761 1.434 . S
C761 C752 1.429 . S
C761 N758 1.350 . S
C761 C760 1.434 . S
C762 C763 1.369 . S
C762 C764 1.419 . S
C762 H766 0.930 . S
C763 C762 1.369 . S
C763 C772 1.429 1_554 S
C764 C762 1.419 . S
C764 C765 1.363 1_554 S
C764 H767 0.929 . S
C765 C764 1.363 1_556 S
C765 C771 1.428 . S
H766 C762 0.930 . S
H767 C764 0.929 . S
S768 N769 1.613 . S
S768 N770 1.610 . S
N769 S768 1.613 . S
N769 C772 1.350 . S
N770 S768 1.610 . S
N770 C771 1.351 . S
C771 C765 1.428 . S
C771 N770 1.351 . S
C771 C772 1.434 . S
C772 C763 1.429 1_556 S
C772 N769 1.350 . S
C772 C771 1.434 . S
C773 C774 1.369 . S
C773 C775 1.419 . S
C773 H777 0.930 . S
C774 C773 1.369 . S
C774 C783 1.429 . S
C775 C773 1.419 . S
C775 C776 1.363 . S
C775 H778 0.929 . S
C776 C775 1.363 . S
C776 C782 1.428 . S
H777 C773 0.930 . S
H778 C775 0.929 . S
S779 N780 1.613 . S
S779 N781 1.610 . S
N780 S779 1.613 . S
N780 C783 1.350 . S
N781 S779 1.610 . S
N781 C782 1.351 . S
C782 C776 1.428 . S
C782 N781 1.351 . S
C782 C783 1.434 . S
C783 C774 1.429 . S
C783 N780 1.350 . S
C783 C782 1.434 . S
C784 C785 1.369 . S
C784 C786 1.419 . S
C784 H788 0.930 . S
C785 C784 1.369 . S
C785 C794 1.429 . S
C786 C784 1.419 . S
C786 C787 1.363 . S
C786 H789 0.929 . S
C787 C786 1.363 . S
C787 C793 1.428 . S
H788 C784 0.930 . S
H789 C786 0.929 . S
S790 N791 1.613 . S
S790 N792 1.610 . S
N791 S790 1.613 . S
N791 C794 1.350 . S
N792 S790 1.610 . S
N792 C793 1.351 . S
C793 C787 1.428 . S
C793 N792 1.351 . S
C793 C794 1.434 . S
C794 C785 1.429 . S
C794 N791 1.350 . S
C794 C793 1.434 . S
C795 C796 1.369 . S
C795 C797 1.419 . S
C795 H799 0.930 . S
C796 C795 1.369 . S
C796 C805 1.429 . S
C797 C795 1.419 . S
C797 C798 1.363 . S
C797 H800 0.929 . S
C798 C797 1.363 . S
C798 C804 1.428 . S
H799 C795 0.930 . S
H800 C797 0.929 . S
S801 N802 1.613 . S
S801 N803 1.610 . S
N802 S801 1.613 . S
N802 C805 1.350 . S
N803 S801 1.610 . S
N803 C804 1.351 . S
C804 C798 1.428 . S
C804 N803 1.351 . S
C804 C805 1.434 . S
C805 C796 1.429 . S
C805 N802 1.350 . S
C805 C804 1.434 . S
C806 C807 1.369 . S
C806 C808 1.419 . S
C806 H810 0.930 . S
C807 C806 1.369 . S
C807 C816 1.429 . S
C808 C806 1.419 . S
C808 C809 1.363 . S
C808 H811 0.929 . S
C809 C808 1.363 . S
C809 C815 1.428 . S
H810 C806 0.930 . S
H811 C808 0.929 . S
S812 N813 1.613 . S
S812 N814 1.610 . S
N813 S812 1.613 . S
N813 C816 1.350 . S
N814 S812 1.610 . S
N814 C815 1.351 . S
C815 C809 1.428 . S
C815 N814 1.351 . S
C815 C816 1.434 . S
C816 C807 1.429 . S
C816 N813 1.350 . S
C816 C815 1.434 . S
C817 C818 1.369 . S
C817 C819 1.419 . S
C817 H821 0.930 . S
C818 C817 1.369 . S
C818 C827 1.429 . S
C819 C817 1.419 . S
C819 C820 1.363 . S
C819 H822 0.929 . S
C820 C819 1.363 . S
C820 C826 1.428 . S
H821 C817 0.930 . S
H822 C819 0.929 . S
S823 N824 1.613 . S
S823 N825 1.610 . S
N824 S823 1.613 . S
N824 C827 1.350 . S
N825 S823 1.610 . S
N825 C826 1.351 . S
C826 C820 1.428 . S
C826 N825 1.351 . S
C826 C827 1.434 . S
C827 C818 1.429 . S
C827 N824 1.350 . S
C827 C826 1.434 . S
C828 C829 1.369 . S
C828 C830 1.419 . S
C828 H832 0.930 . S
C829 C828 1.369 . S
C829 C838 1.429 . S
C830 C828 1.419 . S
C830 C831 1.363 . S
C830 H833 0.929 . S
C831 C830 1.363 . S
C831 C837 1.428 . S
H832 C828 0.930 . S
H833 C830 0.929 . S
S834 N835 1.613 . S
S834 N836 1.610 . S
N835 S834 1.613 . S
N835 C838 1.350 . S
N836 S834 1.610 . S
N836 C837 1.351 . S
C837 C831 1.428 . S
C837 N836 1.351 . S
C837 C838 1.434 . S
C838 C829 1.429 . S
C838 N835 1.350 . S
C838 C837 1.434 . S
C839 C840 1.369 . S
C839 C841 1.419 . S
C839 H843 0.930 . S
C840 C839 1.369 . S
C840 C849 1.429 . S
C841 C839 1.419 . S
C841 C842 1.363 . S
C841 H844 0.929 . S
C842 C841 1.363 . S
C842 C848 1.428 . S
H843 C839 0.930 . S
H844 C841 0.929 . S
S845 N846 1.613 . S
S845 N847 1.610 . S
N846 S845 1.613 . S
N846 C849 1.350 . S
N847 S845 1.610 . S
N847 C848 1.351 . S
C848 C842 1.428 . S
C848 N847 1.351 . S
C848 C849 1.434 . S
C849 C840 1.429 . S
C849 N846 1.350 . S
C849 C848 1.434 . S
C850 C851 1.369 . S
C850 C852 1.419 . S
C850 H854 0.930 . S
C851 C850 1.369 . S
C851 C860 1.429 . S
C852 C850 1.419 . S
C852 C853 1.363 . S
C852 H855 0.929 . S
C853 C852 1.363 . S
C853 C859 1.428 . S
H854 C850 0.930 . S
H855 C852 0.929 . S
S856 N857 1.613 . S
S856 N858 1.610 . S
N857 S856 1.613 . S
N857 C860 1.350 . S
N858 S856 1.610 . S
N858 C859 1.351 . S
C859 C853 1.428 . S
C859 N858 1.351 . S
C859 C860 1.434 . S
C860 C851 1.429 . S
C860 N857 1.350 . S
C860 C859 1.434 . S
C861 C862 1.369 . S
C861 C863 1.419 . S
C861 H865 0.930 . S
C862 C861 1.369 . S
C862 C871 1.429 . S
C863 C861 1.419 . S
C863 C864 1.363 . S
C863 H866 0.929 . S
C864 C863 1.363 . S
C864 C870 1.428 . S
H865 C861 0.930 . S
H866 C863 0.929 . S
S867 N868 1.613 . S
S867 N869 1.610 . S
N868 S867 1.613 . S
N868 C871 1.350 . S
N869 S867 1.610 . S
N869 C870 1.351 . S
C870 C864 1.428 . S
C870 N869 1.351 . S
C870 C871 1.434 . S
C871 C862 1.429 . S
C871 N868 1.350 . S
C871 C870 1.434 . S
C872 C873 1.369 . S
C872 C874 1.419 . S
C872 H876 0.930 . S
C873 C872 1.369 . S
C873 C882 1.429 . S
C874 C872 1.419 . S
C874 C875 1.363 . S
C874 H877 0.929 . S
C875 C874 1.363 . S
C875 C881 1.428 . S
H876 C872 0.930 . S
H877 C874 0.929 . S
S878 N879 1.613 . S
S878 N880 1.610 . S
N879 S878 1.613 . S
N879 C882 1.350 . S
N880 S878 1.610 . S
N880 C881 1.351 . S
C881 C875 1.428 . S
C881 N880 1.351 . S
C881 C882 1.434 . S
C882 C873 1.429 . S
C882 N879 1.350 . S
C882 C881 1.434 . S
C883 C884 1.369 . S
C883 C885 1.419 . S
C883 H887 0.930 . S
C884 C883 1.369 . S
C884 C893 1.429 . S
C885 C883 1.419 . S
C885 C886 1.363 . S
C885 H888 0.929 . S
C886 C885 1.363 . S
C886 C892 1.428 . S
H887 C883 0.930 . S
H888 C885 0.929 . S
S889 N890 1.613 . S
S889 N891 1.610 . S
N890 S889 1.613 . S
N890 C893 1.350 . S
N891 S889 1.610 . S
N891 C892 1.351 . S
C892 C886 1.428 . S
C892 N891 1.351 . S
C892 C893 1.434 . S
C893 C884 1.429 . S
C893 N890 1.350 . S
C893 C892 1.434 . S
C894 C895 1.369 . S
C894 C896 1.419 . S
C894 H898 0.930 . S
C895 C894 1.369 . S
C895 C904 1.429 . S
C896 C894 1.419 . S
C896 C897 1.363 . S
C896 H899 0.929 . S
C897 C896 1.363 . S
C897 C903 1.428 . S
H898 C894 0.930 . S
H899 C896 0.929 . S
S900 N901 1.613 . S
S900 N902 1.610 . S
N901 S900 1.613 . S
N901 C904 1.350 . S
N902 S900 1.610 . S
N902 C903 1.351 . S
C903 C897 1.428 . S
C903 N902 1.351 . S
C903 C904 1.434 . S
C904 C895 1.429 . S
C904 N901 1.350 . S
C904 C903 1.434 . S
C905 C906 1.369 . S
C905 C907 1.419 . S
C905 H909 0.930 . S
C906 C905 1.369 . S
C906 C915 1.429 . S
C907 C905 1.419 . S
C907 C908 1.363 . S
C907 H910 0.929 . S
C908 C907 1.363 . S
C908 C914 1.428 . S
H909 C905 0.930 . S
H910 C907 0.929 . S
S911 N912 1.613 . S
S911 N913 1.610 . S
N912 S911 1.613 . S
N912 C915 1.350 . S
N913 S911 1.610 . S
N913 C914 1.351 . S
C914 C908 1.428 . S
C914 N913 1.351 . S
C914 C915 1.434 . S
C915 C906 1.429 . S
C915 N912 1.350 . S
C915 C914 1.434 . S
C916 C917 1.369 . S
C916 C918 1.419 . S
C916 H920 0.930 . S
C917 C916 1.369 . S
C917 C926 1.429 . S
C918 C916 1.419 . S
C918 C919 1.363 . S
C918 H921 0.929 . S
C919 C918 1.363 . S
C919 C925 1.428 . S
H920 C916 0.930 . S
H921 C918 0.929 . S
S922 N923 1.613 . S
S922 N924 1.610 . S
N923 S922 1.613 . S
N923 C926 1.350 . S
N924 S922 1.610 . S
N924 C925 1.351 . S
C925 C919 1.428 . S
C925 N924 1.351 . S
C925 C926 1.434 . S
C926 C917 1.429 . S
C926 N923 1.350 . S
C926 C925 1.434 . S
C927 C928 1.369 . S
C927 C929 1.419 . S
C927 H931 0.930 . S
C928 C927 1.369 . S
C928 C937 1.429 . S
C929 C927 1.419 . S
C929 C930 1.363 . S
C929 H932 0.929 . S
C930 C929 1.363 . S
C930 C936 1.428 . S
H931 C927 0.930 . S
H932 C929 0.929 . S
S933 N934 1.613 . S
S933 N935 1.610 . S
N934 S933 1.613 . S
N934 C937 1.350 . S
N935 S933 1.610 . S
N935 C936 1.351 . S
C936 C930 1.428 . S
C936 N935 1.351 . S
C936 C937 1.434 . S
C937 C928 1.429 . S
C937 N934 1.350 . S
C937 C936 1.434 . S
C938 C939 1.369 . S
C938 C940 1.419 . S
C938 H942 0.930 . S
C939 C938 1.369 . S
C939 C948 1.429 . S
C940 C938 1.419 . S
C940 C941 1.363 . S
C940 H943 0.929 . S
C941 C940 1.363 . S
C941 C947 1.428 . S
H942 C938 0.930 . S
H943 C940 0.929 . S
S944 N945 1.613 . S
S944 N946 1.610 . S
N945 S944 1.613 . S
N945 C948 1.350 . S
N946 S944 1.610 . S
N946 C947 1.351 . S
C947 C941 1.428 . S
C947 N946 1.351 . S
C947 C948 1.434 . S
C948 C939 1.429 . S
C948 N945 1.350 . S
C948 C947 1.434 . S
C949 C950 1.369 . S
C949 C951 1.419 . S
C949 H953 0.930 . S
C950 C949 1.369 . S
C950 C959 1.429 . S
C951 C949 1.419 . S
C951 C952 1.363 . S
C951 H954 0.929 . S
C952 C951 1.363 . S
C952 C958 1.428 . S
H953 C949 0.930 . S
H954 C951 0.929 . S
S955 N956 1.613 . S
S955 N957 1.610 . S
N956 S955 1.613 . S
N956 C959 1.350 . S
N957 S955 1.610 . S
N957 C958 1.351 . S
C958 C952 1.428 . S
C958 N957 1.351 . S
C958 C959 1.434 . S
C959 C950 1.429 . S
C959 N956 1.350 . S
C959 C958 1.434 . S
C611 C521 1.610 . S
C609 C35 1.360 . S
C622 C535 1.580 . S
C620 C115 1.376 . S
C633 C543 1.612 . S
C631 C177 1.392 . S
C642 C221 1.366 . S
C644 C501 1.591 . S
C653 C283 1.331 1_554 S
C655 C507 1.579 1_554 S
C664 C363 1.379 . S
C666 C515 1.592 . S
C677 C529 1.681 . S
C675 C407 1.438 . S
C688 C549 1.620 . S
C686 C469 1.384 . S
C697 C159 1.347 . S
C699 C577 1.585 . S
C710 C591 1.658 . S
C708 C239 1.438 . S
C719 C53 1.375 . S
C721 C599 1.608 . S
C732 C563 1.546 . S
C730 C97 1.311 . S
C741 C425 1.390 . S
C743 C557 1.626 . S
C752 C487 1.380 . S
C754 C571 1.603 . S
C765 C585 1.608 . S
C763 C301 1.395 1_554 S
C774 C345 1.394 . S
C776 C605 1.642 . S
C787 C524 1.839 . S
C785 C29 1.887 . S
C798 C547 1.884 . S
C796 C109 1.850 . S
C807 C171 1.868 . S
C809 C505 1.897 . S
C818 C215 1.925 . S
C820 C510 1.879 . S
C829 C277 1.882 . S
C831 C538 1.835 . S
C842 C496 1.860 . S
C840 C357 1.846 . S
C853 C519 1.887 . S
C851 C401 1.915 . S
C864 C533 1.882 . S
C862 C463 1.906 . S
C875 C580 1.834 . S
C873 C153 1.886 . S
C886 C603 1.870 . S
C884 C233 1.845 . S
C895 C47 1.835 . S
C897 C552 1.844 . S
C908 C566 1.831 . S
C906 C91 1.880 . S
C919 C594 1.876 . S
C917 C419 1.867 . S
C928 C481 1.882 . S
C930 C561 1.914 . S
C941 C575 1.907 . S
C939 C295 1.866 . S
C952 C589 1.886 . S
C950 C339 1.909 . S
