# Generated by pormake.
# Topology sit, (3,6)-cn, num edge types: 1
# Building blocks:
#     Node 0, Type 0, BuildingBlock: INOVEN_clean_linker_0, # of connection points: 3
#     Node 1, Type 0, BuildingBlock: INOVEN_clean_linker_0, # of connection points: 3
#     Node 2, Type 0, BuildingBlock: INOVEN_clean_linker_0, # of connection points: 3
#     Node 3, Type 0, BuildingBlock: INOVEN_clean_linker_0, # of connection points: 3
#     Node 4, Type 1, BuildingBlock: MIDCAF_clean_sbu_0, # of connection points: 6
#     Node 5, Type 1, BuildingBlock: MIDCAF_clean_sbu_0, # of connection points: 6
#     Edge 6, Type (0, 1), BuildingBlock: CIFDUS_clean_linker_0, # of connection points: 2
#     Edge 7, Type (0, 1), BuildingBlock: CIFDUS_clean_linker_0, # of connection points: 2
#     Edge 8, Type (0, 1), BuildingBlock: CIFDUS_clean_linker_0, # of connection points: 2
#     Edge 9, Type (0, 1), BuildingBlock: CIFDUS_clean_linker_0, # of connection points: 2
#     Edge 10, Type (0, 1), BuildingBlock: CIFDUS_clean_linker_0, # of connection points: 2
#     Edge 11, Type (0, 1), BuildingBlock: CIFDUS_clean_linker_0, # of connection points: 2
#     Edge 12, Type (0, 1), BuildingBlock: CIFDUS_clean_linker_0, # of connection points: 2
#     Edge 13, Type (0, 1), BuildingBlock: CIFDUS_clean_linker_0, # of connection points: 2
#     Edge 14, Type (0, 1), BuildingBlock: CIFDUS_clean_linker_0, # of connection points: 2
#     Edge 15, Type (0, 1), BuildingBlock: CIFDUS_clean_linker_0, # of connection points: 2
#     Edge 16, Type (0, 1), BuildingBlock: CIFDUS_clean_linker_0, # of connection points: 2
#     Edge 17, Type (0, 1), BuildingBlock: CIFDUS_clean_linker_0, # of connection points: 2
# Relax obj value: 0.072
# Max RMSD: 0.181
# Mean RMSD: 0.106
data_MOF--net-sit--node1-MIDCAF_clean_sbu_0--node2-INOVEN_clean_linker_0--edge1-CIFDUS_clean_linker_0
_symmetry_space_group_name_H-M    P1
_symmetry_Int_Tables_number       1
_symmetry_cell_setting            triclinic
loop_
_symmetry_equiv_pos_as_xyz
'x, y, z'
_cell_length_a     19.510394
_cell_length_b     26.612028
_cell_length_c     33.628345
_cell_angle_alpha  90.050949
_cell_angle_beta   85.649436
_cell_angle_gamma 83.977427
loop_
_atom_site_label
_atom_site_type_symbol
_atom_site_fract_x
_atom_site_fract_y
_atom_site_fract_z
_atom_type_partial_charge
H0 H -0.03066 0.37006 0.03182 0.0
H1 H 0.11865 0.45895 0.9736 0.0
H2 H 0.18505 0.31726 0.02795 0.0
N3 N 0.05487 0.29792 0.0555 0.0
N4 N 0.09615 0.2627 0.06661 0.0
C5 C 0.02248 0.37644 0.02347 0.0
C6 C 0.03737 0.41964 0.00201 0.0
C7 C 0.07489 0.33976 0.03312 0.0
C8 C 0.14405 0.34584 0.021 0.0
C9 C 0.16001 0.38921 -0.00026 0.0
C10 C 0.10653 0.42609 -0.00928 0.0
H11 H 0.91588 0.76224 0.0461 0.0
H12 H 0.04358 0.63603 -0.00828 0.0
H13 H 0.13583 0.75455 0.04941 0.0
N14 N 0.01517 0.80678 0.07563 0.0
N15 N 0.06436 0.83011 0.08422 0.0
C16 C -0.03331 0.74206 0.03942 0.0
C17 C -0.02615 0.69701 0.01732 0.0
C18 C 0.02485 0.7621 0.05196 0.0
C19 C 0.09095 0.73732 0.04137 0.0
C20 C 0.09902 0.69162 0.01939 0.0
C21 C 0.0394 0.67103 0.00863 0.0
H22 H 0.39066 0.82808 0.51655 0.0
H23 H 0.47508 0.96206 0.47551 0.0
H24 H 0.60006 0.84793 0.53765 0.0
N25 N 0.49425 0.7909 0.55546 0.0
N26 N 0.54657 0.76976 0.57001 0.0
C27 C 0.43376 0.8508 0.51384 0.0
C28 C 0.42778 0.89623 0.49322 0.0
C29 C 0.49468 0.83434 0.53115 0.0
C30 C 0.55194 0.86254 0.52589 0.0
C31 C 0.5466 0.90884 0.50496 0.0
C32 C 0.48248 0.92617 0.49052 0.0
H33 H 0.32987 0.29124 0.55307 0.0
H34 H 0.44267 0.19704 0.46005 0.0
H35 H 0.55192 0.27603 0.54122 0.0
N36 N 0.43947 0.3255 0.58078 0.0
N37 N 0.49199 0.34694 0.58609 0.0
C38 C 0.37779 0.27505 0.53759 0.0
C39 C 0.37731 0.24135 0.50519 0.0
C40 C 0.44036 0.2889 0.54992 0.0
C41 C 0.50319 0.26647 0.53144 0.0
C42 C 0.50354 0.23259 0.49966 0.0
C43 C 0.44098 0.2213 0.48604 0.0
Zn44 Zn -0.02533 0.17255 0.33252 0.0
Zn45 Zn -0.02048 0.98363 0.35365 0.0
Zn46 Zn -0.01769 0.07402 0.34373 0.0
C47 C -0.02816 0.99476 0.27414 0.0
C48 C 0.86768 1.02206 0.39834 0.0
O49 O 0.06521 0.10136 0.37585 0.0
O50 O 0.04249 0.18446 0.37201 0.0
C51 C 0.01777 0.12624 0.25917 0.0
O52 O -0.00705 1.03682 0.28433 0.0
O53 O 0.95269 0.96451 0.30052 0.0
O54 O 0.90968 0.98284 0.39897 0.0
O55 O 0.88241 0.05927 0.37585 0.0
O56 O 0.00799 0.16925 0.27566 0.0
O57 O 0.00792 0.08611 0.27925 0.0
O58 O 0.87978 0.11049 0.36609 0.0
O59 O 0.87486 0.19012 0.34638 0.0
C60 C 0.8463 0.15453 0.36313 0.0
O61 O 0.0664 1.04735 0.38136 0.0
O62 O 0.07496 0.96582 0.36711 0.0
C63 C 0.07849 0.14632 0.38454 0.0
C64 C 0.09718 1.0024 0.38418 0.0
Zn65 Zn 0.55013 0.66112 0.8434 0.0
Zn66 Zn 0.62735 0.45978 0.8473 0.0
Zn67 Zn 0.58809 0.56063 0.84674 0.0
C68 C 0.6026 0.48581 0.76933 0.0
C69 C 0.50526 0.47927 0.89727 0.0
O70 O 0.66536 0.60109 0.87464 0.0
O71 O 0.63062 0.68262 0.86877 0.0
C72 C 0.56903 0.62468 0.76535 0.0
O73 O 0.59203 0.53025 0.78525 0.0
O74 O 0.6183 0.44748 0.7901 0.0
O75 O 0.55053 0.4436 0.88605 0.0
O76 O 0.51024 0.52459 0.88462 0.0
O77 O 0.54992 0.66488 0.78484 0.0
O78 O 0.58469 0.58281 0.78334 0.0
O79 O 0.48669 0.57644 0.88 0.0
O80 O 0.46172 0.65951 0.87586 0.0
C81 C 0.44593 0.61704 0.88787 0.0
O82 O 0.68811 0.54902 0.87333 0.0
O83 O 0.71961 0.46675 0.86617 0.0
C84 C 0.67336 0.64793 0.88052 0.0
C85 C 0.73219 0.51009 0.87688 0.0
H86 H 0.17261 0.1954 0.10715 0.0
H87 H -0.03724 0.24321 0.08129 0.0
H88 H 0.91919 0.19162 0.13522 0.0
H89 H 0.94036 0.14893 0.19825 0.0
H90 H 0.14883 0.10395 0.22705 0.0
H91 H 0.19364 0.13657 0.16318 0.0
C92 C 0.11756 0.19312 0.11276 0.0
C93 C 0.0712 0.22406 0.09119 0.0
C94 C 0.09263 0.16401 0.14454 0.0
C95 C -0.00031 0.22071 0.09819 0.0
C96 C -0.0254 0.19114 0.12903 0.0
C97 C -0.00462 0.14414 0.1895 0.0
C98 C 0.04143 0.12415 0.2168 0.0
C99 C 0.02046 0.16487 0.15367 0.0
C100 C 0.11267 0.11871 0.20594 0.0
C101 C 0.13822 0.13811 0.16976 0.0
H102 H 0.94363 0.87073 0.12147 0.0
H103 H 0.16228 0.88364 0.10672 0.0
H104 H 0.15086 0.94666 0.16087 0.0
H105 H 0.08119 0.98678 0.21923 0.0
H106 H 0.8652 0.96547 0.23698 0.0
H107 H 0.87213 0.91813 0.17427 0.0
C108 C -0.01142 0.88801 0.12958 0.0
C109 C 0.05411 0.87232 0.11066 0.0
C110 C -0.01821 0.92267 0.16136 0.0
C111 C 0.11163 0.89523 0.12126 0.0
C112 C 0.10506 0.93099 0.1522 0.0
C113 C 0.03544 0.97307 0.20849 0.0
C114 C -0.02721 0.97933 0.23225 0.0
C115 C 0.0408 0.94354 0.17348 0.0
C116 C 0.91379 0.96093 0.21881 0.0
C117 C 0.91791 0.93359 0.18322 0.0
H118 H 0.65004 0.71613 0.60255 0.0
H119 H 0.42819 0.73352 0.59976 0.0
H120 H 0.41686 0.67865 0.65707 0.0
H121 H 0.46837 0.64008 0.71549 0.0
H122 H 0.6894 0.62196 0.71962 0.0
H123 H 0.70327 0.66117 0.65395 0.0
C124 C 0.59959 0.70662 0.61399 0.0
C125 C 0.54036 0.72968 0.59756 0.0
C126 C 0.59329 0.67505 0.64732 0.0
C127 C 0.47483 0.71692 0.6122 0.0
C128 C 0.46816 0.68552 0.64508 0.0
C129 C 0.51952 0.64277 0.70105 0.0
C130 C 0.57778 0.62841 0.72188 0.0
C131 C 0.52675 0.66635 0.66395 0.0
C132 C 0.64399 0.63239 0.70357 0.0
C133 C 0.6518 0.65546 0.66637 0.0
H134 H 0.59945 0.39435 0.59931 0.0
H135 H 0.3904 0.3772 0.64385 0.0
H136 H 0.4038 0.42862 0.70251 0.0
H137 H 0.48042 0.46806 0.74522 0.0
H138 H 0.69171 0.48063 0.70303 0.0
H139 H 0.67223 0.44271 0.63881 0.0
C140 C 0.55672 0.40286 0.62167 0.0
C141 C 0.49466 0.38184 0.61769 0.0
C142 C 0.56536 0.43164 0.65556 0.0
C143 C 0.43897 0.39274 0.6465 0.0
C144 C 0.44665 0.4221 0.68001 0.0
C145 C 0.52128 0.46395 0.72131 0.0
C146 C 0.58703 0.47734 0.72816 0.0
C147 C 0.51025 0.44038 0.6854 0.0
C148 C 0.6405 0.47108 0.69778 0.0
C149 C 0.62948 0.44896 0.6614 0.0
H150 H 0.23161 0.47015 0.00774 0.0
H151 H 0.2472 0.32109 0.95531 0.0
H152 H 0.35805 0.33489 0.9202 0.0
H153 H 0.4448 0.39229 0.89987 0.0
H154 H 0.43468 0.5385 0.9559 0.0
H155 H 0.32623 0.52377 -0.00635 0.0
C156 C 0.2599 0.44057 -0.01101 0.0
C157 C 0.23148 0.39482 -0.01617 0.0
C158 C 0.32335 0.44883 0.96891 0.0
C159 C 0.26854 0.35645 0.95985 0.0
C160 C 0.33152 0.36449 0.93956 0.0
C161 C 0.41912 0.4207 0.92064 0.0
C162 C 0.44499 0.46779 0.92354 0.0
C163 C 0.35857 0.41094 0.94319 0.0
C164 C 0.41248 0.50367 0.95123 0.0
C165 C 0.35151 0.49471 0.97335 0.0
H166 H 0.91822 0.7413 0.95467 0.0
H167 H 0.8996 0.61757 0.0358 0.0
H168 H 0.80288 0.59157 0.00067 0.0
H169 H 0.72544 0.6038 0.9457 0.0
H170 H 0.74843 0.72605 0.86357 0.0
H171 H 0.84228 0.75298 0.8999 0.0
C172 C 0.8927 0.70865 0.9645 0.0
C173 C 0.91471 0.68147 -0.00233 0.0
C174 C 0.8392 0.69326 0.94354 0.0
C175 C 0.8826 0.63894 0.0103 0.0
C176 C 0.82799 0.62394 -0.00993 0.0
C177 C 0.75259 0.63532 0.93528 0.0
C178 C 0.73184 0.66208 0.90155 0.0
C179 C 0.80644 0.65048 0.95634 0.0
C180 C 0.76437 0.70466 0.8893 0.0
C181 C 0.81784 0.72005 0.91003 0.0
H182 H 0.02895 0.46128 0.92845 0.0
H183 H 0.9157 0.45493 0.04339 0.0
H184 H 0.81025 0.49091 0.01499 0.0
H185 H 0.74722 0.509 0.9552 0.0
H186 H 0.85969 0.51495 0.84048 0.0
H187 H -0.03069 0.49568 0.8712 0.0
C188 C -0.01809 0.4695 0.94767 0.0
C189 C -0.02027 0.45412 -0.01226 0.0
C190 C 0.92133 0.48983 0.93107 0.0
C191 C 0.91818 0.46504 0.01216 0.0
C192 C 0.85789 0.48562 -0.00403 0.0
C193 C 0.79609 0.508 0.93735 0.0
C194 C 0.79628 0.51385 0.89597 0.0
C195 C 0.85828 0.49585 0.95511 0.0
C196 C 0.85912 0.51128 0.87259 0.0
C197 C 0.92149 0.49986 0.8901 0.0
H198 H 0.13607 0.64002 0.94912 0.0
H199 H 0.2216 0.69095 0.05523 0.0
H200 H 0.33786 0.66941 0.02432 0.0
H201 H 0.41442 0.64562 0.96407 0.0
H202 H 0.32962 0.58634 0.86147 0.0
H203 H 0.21296 0.59996 0.89497 0.0
C204 C 0.17955 0.64494 0.96641 0.0
C205 C 0.16926 0.66879 0.00419 0.0
C206 C 0.24639 0.63105 0.94903 0.0
C207 C 0.22739 0.67481 0.02546 0.0
C208 C 0.29411 0.66208 0.00797 0.0
C209 C 0.37028 0.63472 0.94962 0.0
C210 C 0.37947 0.61536 0.9106 0.0
C211 C 0.30405 0.64193 0.96924 0.0
C212 C 0.3229 0.60111 0.89171 0.0
C213 C 0.25651 0.60913 0.91075 0.0
H214 H 0.57099 0.97022 0.44071 0.0
H215 H 0.66298 0.91229 0.54694 0.0
H216 H 0.76916 0.94818 0.52534 0.0
H217 H 0.83965 0.98739 0.47238 0.0
H218 H 0.74323 1.05137 0.37016 0.0
H219 H 0.63226 1.02485 0.39616 0.0
C220 C 0.61243 0.96678 0.46048 0.0
C221 C 0.60816 0.93717 0.49532 0.0
C222 C 0.67243 0.98927 0.44883 0.0
C223 C 0.66472 0.93287 0.51923 0.0
C224 C 0.72547 0.95405 0.50719 0.0
C225 C 0.79368 0.99679 0.45651 0.0
C226 C 0.79918 1.02072 0.41934 0.0
C227 C 0.73049 0.98096 0.47144 0.0
C228 C 0.73979 1.03313 0.39893 0.0
C229 C 0.67671 1.01739 0.41355 0.0
H230 H 0.35279 0.15286 0.46991 0.0
H231 H 0.25207 0.30039 0.50539 0.0
H232 H 0.14863 0.28143 0.47469 0.0
H233 H 0.08997 0.22593 0.43293 0.0
H234 H 0.20099 0.08763 0.3856 0.0
H235 H 0.29832 0.10067 0.42467 0.0
C236 C 0.30908 0.18161 0.47042 0.0
C237 C 0.31146 0.2284 0.48974 0.0
C238 C 0.25151 0.17206 0.4503 0.0
C239 C 0.25227 0.26376 0.49137 0.0
C240 C 0.19312 0.25326 0.47328 0.0
C241 C 0.13543 0.19857 0.43137 0.0
C242 C 0.13718 0.15449 0.40804 0.0
C243 C 0.19273 0.20798 0.45197 0.0
C244 C 0.19704 0.12023 0.40521 0.0
C245 C 0.25302 0.12813 0.42704 0.0
H246 H 0.32799 0.97465 0.50638 0.0
H247 H 0.39564 0.84755 0.42846 0.0
H248 H 0.3008 0.87113 0.38637 0.0
H249 H 0.20003 0.92793 0.37166 0.0
H250 H 0.12345 1.05028 0.45252 0.0
H251 H 0.22106 1.02929 0.49354 0.0
C252 C 0.32122 0.95223 0.48028 0.0
C253 C 0.36775 0.90954 0.47023 0.0
C254 C 0.26592 0.96553 0.45672 0.0
C255 C 0.35947 0.88033 0.43658 0.0
C256 C 0.30572 0.89391 0.41254 0.0
C257 C 0.20484 0.95008 0.39823 0.0
C258 C 0.15641 0.99163 0.40843 0.0
C259 C 0.25891 0.93646 0.42228 0.0
C260 C 0.16193 1.01927 0.4434 0.0
C261 C 0.21714 1.00694 0.46702 0.0
H262 H 0.54307 0.23767 0.42146 0.0
H263 H 0.61048 0.17823 0.53277 0.0
H264 H 0.7209 0.14292 0.49897 0.0
H265 H 0.80073 0.13437 0.43838 0.0
H266 H 0.73599 0.20016 0.32853 0.0
H267 H 0.62131 0.22722 0.36081 0.0
C268 C 0.5819 0.21661 0.43812 0.0
C269 C 0.56938 0.21046 0.47934 0.0
C270 C 0.64533 0.19765 0.41872 0.0
C271 C 0.61981 0.18362 0.50097 0.0
C272 C 0.68256 0.16338 0.48168 0.0
C273 C 0.76083 0.15381 0.42154 0.0
C274 C 0.77569 0.165 0.38128 0.0
C275 C 0.69622 0.17081 0.44067 0.0
C276 C 0.72484 0.19113 0.35961 0.0
C277 C 0.65965 0.20668 0.37804 0.0
loop_
_geom_bond_atom_site_label_1
_geom_bond_atom_site_label_2
_geom_bond_distance
_geom_bond_site_symmetry_2
_ccdc_geom_bond_type
H0 C5 0.929 . S
H1 C10 0.931 . S
H2 C8 0.930 . S
N3 N4 1.234 . S
N3 C7 1.453 . S
N4 N3 1.234 . S
C5 H0 0.929 . S
C5 C6 1.373 1_554 S
C5 C7 1.368 . S
C6 C5 1.373 1_556 S
C6 C10 1.397 . S
C7 N3 1.453 . S
C7 C5 1.368 . S
C7 C8 1.373 . S
C8 H2 0.930 . S
C8 C7 1.373 . S
C8 C9 1.371 . S
C9 C8 1.371 . S
C9 C10 1.383 1_554 S
C10 H1 0.931 . S
C10 C6 1.397 . S
C10 C9 1.383 1_556 S
H11 C16 0.929 . S
H12 C21 0.931 . S
H13 C19 0.930 . S
N14 N15 1.234 1_655 S
N14 C18 1.453 . S
N15 N14 1.234 1_455 S
C16 H11 0.929 . S
C16 C17 1.373 . S
C16 C18 1.368 . S
C17 C16 1.373 . S
C17 C21 1.397 1_654 S
C18 N14 1.453 . S
C18 C16 1.368 . S
C18 C19 1.373 1_655 S
C19 H13 0.930 . S
C19 C18 1.373 1_455 S
C19 C20 1.371 . S
C20 C19 1.371 . S
C20 C21 1.383 1_554 S
C21 H12 0.931 . S
C21 C17 1.397 1_456 S
C21 C20 1.383 1_556 S
H22 C27 0.929 . S
H23 C32 0.931 . S
H24 C30 0.930 . S
N25 N26 1.234 . S
N25 C29 1.453 . S
N26 N25 1.234 . S
C27 H22 0.929 . S
C27 C28 1.373 . S
C27 C29 1.368 . S
C28 C27 1.373 . S
C28 C32 1.397 . S
C29 N25 1.453 . S
C29 C27 1.368 . S
C29 C30 1.373 . S
C30 H24 0.930 . S
C30 C29 1.373 . S
C30 C31 1.371 . S
C31 C30 1.371 . S
C31 C32 1.383 . S
C32 H23 0.931 . S
C32 C28 1.397 . S
C32 C31 1.383 . S
H33 C38 0.929 . S
H34 C43 0.931 . S
H35 C41 0.930 . S
N36 N37 1.234 . S
N36 C40 1.453 . S
N37 N36 1.234 . S
C38 H33 0.929 . S
C38 C39 1.373 . S
C38 C40 1.368 . S
C39 C38 1.373 . S
C39 C43 1.397 . S
C40 N36 1.453 . S
C40 C38 1.368 . S
C40 C41 1.373 . S
C41 H35 0.930 . S
C41 C40 1.373 . S
C41 C42 1.371 . S
C42 C41 1.371 . S
C42 C43 1.383 . S
C43 H34 0.931 . S
C43 C39 1.397 . S
C43 C42 1.383 . S
Zn44 O50 1.920 . S
Zn44 O56 1.898 . S
Zn44 O59 1.905 1_455 S
Zn45 O53 1.905 . S
Zn45 O54 1.898 . S
Zn45 O62 1.920 . S
Zn46 O49 2.080 . S
Zn46 O52 2.114 1_545 S
Zn46 O55 2.120 1_545 S
Zn46 O57 2.120 . S
Zn46 O58 2.114 1_455 S
Zn46 O61 2.080 1_545 S
C47 O52 1.166 . S
C47 O53 1.182 . S
C48 O54 1.167 1_655 S
C48 O55 1.299 1_655 S
O49 Zn46 2.080 . S
O49 C63 1.305 . S
O50 Zn44 1.920 . S
O50 C63 1.234 . S
C51 O56 1.167 . S
C51 O57 1.299 . S
O52 Zn46 2.114 1_565 S
O52 C47 1.166 . S
O53 Zn45 1.905 . S
O53 C47 1.182 . S
O54 Zn45 1.898 . S
O54 C48 1.167 1_455 S
O55 Zn46 2.120 1_565 S
O55 C48 1.299 1_455 S
O56 Zn44 1.898 . S
O56 C51 1.167 . S
O57 Zn46 2.120 . S
O57 C51 1.299 . S
O58 Zn46 2.114 1_655 S
O58 C60 1.166 . S
O59 Zn44 1.905 1_655 S
O59 C60 1.182 . S
C60 O58 1.166 . S
C60 O59 1.182 . S
O61 Zn46 2.080 1_565 S
O61 C64 1.305 . S
O62 Zn45 1.920 . S
O62 C64 1.234 . S
C63 O49 1.305 . S
C63 O50 1.234 . S
C64 O61 1.305 . S
C64 O62 1.234 . S
Zn65 O71 1.920 . S
Zn65 O77 1.898 . S
Zn65 O80 1.905 . S
Zn66 O74 1.905 . S
Zn66 O75 1.898 . S
Zn66 O83 1.920 . S
Zn67 O70 2.080 . S
Zn67 O73 2.114 . S
Zn67 O76 2.120 . S
Zn67 O78 2.120 . S
Zn67 O79 2.114 . S
Zn67 O82 2.080 . S
C68 O73 1.166 . S
C68 O74 1.182 . S
C69 O75 1.167 . S
C69 O76 1.299 . S
O70 Zn67 2.080 . S
O70 C84 1.305 . S
O71 Zn65 1.920 . S
O71 C84 1.234 . S
C72 O77 1.167 . S
C72 O78 1.299 . S
O73 Zn67 2.114 . S
O73 C68 1.166 . S
O74 Zn66 1.905 . S
O74 C68 1.182 . S
O75 Zn66 1.898 . S
O75 C69 1.167 . S
O76 Zn67 2.120 . S
O76 C69 1.299 . S
O77 Zn65 1.898 . S
O77 C72 1.167 . S
O78 Zn67 2.120 . S
O78 C72 1.299 . S
O79 Zn67 2.114 . S
O79 C81 1.166 . S
O80 Zn65 1.905 . S
O80 C81 1.182 . S
C81 O79 1.166 . S
C81 O80 1.182 . S
O82 Zn67 2.080 . S
O82 C85 1.305 . S
O83 Zn66 1.920 . S
O83 C85 1.234 . S
C84 O70 1.305 . S
C84 O71 1.234 . S
C85 O82 1.305 . S
C85 O83 1.234 . S
H86 C92 0.930 . S
H87 C95 0.930 . S
H88 C96 0.930 . S
H89 C97 0.930 . S
H90 C100 0.930 . S
H91 C101 0.930 . S
C92 H86 0.930 . S
C92 C93 1.355 . S
C92 C94 1.415 . S
C93 C92 1.355 . S
C93 C95 1.419 . S
C94 C92 1.415 . S
C94 C99 1.425 . S
C94 C101 1.409 . S
C95 H87 0.930 . S
C95 C93 1.419 . S
C95 C96 1.362 . S
C96 H88 0.930 . S
C96 C95 1.362 . S
C96 C99 1.409 . S
C97 H89 0.930 . S
C97 C98 1.355 . S
C97 C99 1.415 . S
C98 C97 1.355 . S
C98 C100 1.419 . S
C99 C94 1.425 . S
C99 C96 1.409 . S
C99 C97 1.415 . S
C100 H90 0.930 . S
C100 C98 1.419 . S
C100 C101 1.362 . S
C101 H91 0.930 . S
C101 C94 1.409 . S
C101 C100 1.362 . S
H102 C108 0.930 . S
H103 C111 0.930 . S
H104 C112 0.930 . S
H105 C113 0.930 . S
H106 C116 0.930 . S
H107 C117 0.930 . S
C108 H102 0.930 . S
C108 C109 1.355 1_655 S
C108 C110 1.415 . S
C109 C108 1.355 1_455 S
C109 C111 1.419 . S
C110 C108 1.415 . S
C110 C115 1.425 1_655 S
C110 C117 1.409 . S
C111 H103 0.930 . S
C111 C109 1.419 . S
C111 C112 1.362 . S
C112 H104 0.930 . S
C112 C111 1.362 . S
C112 C115 1.409 . S
C113 H105 0.930 . S
C113 C114 1.355 . S
C113 C115 1.415 . S
C114 C113 1.355 . S
C114 C116 1.419 1_455 S
C115 C110 1.425 1_455 S
C115 C112 1.409 . S
C115 C113 1.415 . S
C116 H106 0.930 . S
C116 C114 1.419 1_655 S
C116 C117 1.362 . S
C117 H107 0.930 . S
C117 C110 1.409 . S
C117 C116 1.362 . S
H118 C124 0.930 . S
H119 C127 0.930 . S
H120 C128 0.930 . S
H121 C129 0.930 . S
H122 C132 0.930 . S
H123 C133 0.930 . S
C124 H118 0.930 . S
C124 C125 1.355 . S
C124 C126 1.415 . S
C125 C124 1.355 . S
C125 C127 1.419 . S
C126 C124 1.415 . S
C126 C131 1.425 . S
C126 C133 1.409 . S
C127 H119 0.930 . S
C127 C125 1.419 . S
C127 C128 1.362 . S
C128 H120 0.930 . S
C128 C127 1.362 . S
C128 C131 1.409 . S
C129 H121 0.930 . S
C129 C130 1.355 . S
C129 C131 1.415 . S
C130 C129 1.355 . S
C130 C132 1.419 . S
C131 C126 1.425 . S
C131 C128 1.409 . S
C131 C129 1.415 . S
C132 H122 0.930 . S
C132 C130 1.419 . S
C132 C133 1.362 . S
C133 H123 0.930 . S
C133 C126 1.409 . S
C133 C132 1.362 . S
H134 C140 0.930 . S
H135 C143 0.930 . S
H136 C144 0.930 . S
H137 C145 0.930 . S
H138 C148 0.930 . S
H139 C149 0.930 . S
C140 H134 0.930 . S
C140 C141 1.355 . S
C140 C142 1.415 . S
C141 C140 1.355 . S
C141 C143 1.419 . S
C142 C140 1.415 . S
C142 C147 1.425 . S
C142 C149 1.409 . S
C143 H135 0.930 . S
C143 C141 1.419 . S
C143 C144 1.362 . S
C144 H136 0.930 . S
C144 C143 1.362 . S
C144 C147 1.409 . S
C145 H137 0.930 . S
C145 C146 1.355 . S
C145 C147 1.415 . S
C146 C145 1.355 . S
C146 C148 1.419 . S
C147 C142 1.425 . S
C147 C144 1.409 . S
C147 C145 1.415 . S
C148 H138 0.930 . S
C148 C146 1.419 . S
C148 C149 1.362 . S
C149 H139 0.930 . S
C149 C142 1.409 . S
C149 C148 1.362 . S
H150 C156 0.930 . S
H151 C159 0.930 . S
H152 C160 0.930 . S
H153 C161 0.930 . S
H154 C164 0.930 . S
H155 C165 0.930 . S
C156 H150 0.930 . S
C156 C157 1.355 . S
C156 C158 1.415 . S
C157 C156 1.355 . S
C157 C159 1.419 . S
C158 C156 1.415 . S
C158 C163 1.425 . S
C158 C165 1.409 . S
C159 H151 0.930 . S
C159 C157 1.419 . S
C159 C160 1.362 . S
C160 H152 0.930 . S
C160 C159 1.362 . S
C160 C163 1.409 . S
C161 H153 0.930 . S
C161 C162 1.355 . S
C161 C163 1.415 . S
C162 C161 1.355 . S
C162 C164 1.419 . S
C163 C158 1.425 . S
C163 C160 1.409 . S
C163 C161 1.415 . S
C164 H154 0.930 . S
C164 C162 1.419 . S
C164 C165 1.362 . S
C165 H155 0.930 . S
C165 C158 1.409 . S
C165 C164 1.362 . S
H166 C172 0.930 . S
H167 C175 0.930 . S
H168 C176 0.930 . S
H169 C177 0.930 . S
H170 C180 0.930 . S
H171 C181 0.930 . S
C172 H166 0.930 . S
C172 C173 1.355 . S
C172 C174 1.415 . S
C173 C172 1.355 . S
C173 C175 1.419 . S
C174 C172 1.415 . S
C174 C179 1.425 . S
C174 C181 1.409 . S
C175 H167 0.930 . S
C175 C173 1.419 . S
C175 C176 1.362 . S
C176 H168 0.930 . S
C176 C175 1.362 . S
C176 C179 1.409 . S
C177 H169 0.930 . S
C177 C178 1.355 . S
C177 C179 1.415 . S
C178 C177 1.355 . S
C178 C180 1.419 . S
C179 C174 1.425 . S
C179 C176 1.409 . S
C179 C177 1.415 . S
C180 H170 0.930 . S
C180 C178 1.419 . S
C180 C181 1.362 . S
C181 H171 0.930 . S
C181 C174 1.409 . S
C181 C180 1.362 . S
H182 C188 0.930 1_455 S
H183 C191 0.930 . S
H184 C192 0.930 1_554 S
H185 C193 0.930 . S
H186 C196 0.930 . S
H187 C197 0.930 . S
C188 H182 0.930 1_655 S
C188 C189 1.355 . S
C188 C190 1.415 . S
C189 C188 1.355 . S
C189 C191 1.419 1_556 S
C190 C188 1.415 . S
C190 C195 1.425 . S
C190 C197 1.409 . S
C191 H183 0.930 . S
C191 C189 1.419 1_554 S
C191 C192 1.362 1_554 S
C192 H184 0.930 1_556 S
C192 C191 1.362 1_556 S
C192 C195 1.409 . S
C193 H185 0.930 . S
C193 C194 1.355 . S
C193 C195 1.415 . S
C194 C193 1.355 . S
C194 C196 1.419 . S
C195 C190 1.425 . S
C195 C192 1.409 . S
C195 C193 1.415 . S
C196 H186 0.930 . S
C196 C194 1.419 . S
C196 C197 1.362 . S
C197 H187 0.930 . S
C197 C190 1.409 . S
C197 C196 1.362 . S
H198 C204 0.930 . S
H199 C207 0.930 . S
H200 C208 0.915 1_554 S
H201 C209 0.930 . S
H202 C212 0.930 . S
H203 C213 0.930 . S
C204 H198 0.930 . S
C204 C205 1.355 . S
C204 C206 1.415 . S
C205 C204 1.355 . S
C205 C207 1.419 1_556 S
C206 C204 1.415 . S
C206 C211 1.425 . S
C206 C213 1.409 . S
C207 H199 0.930 . S
C207 C205 1.419 1_554 S
C207 C208 1.355 1_554 S
C208 H200 0.915 1_556 S
C208 C207 1.355 1_556 S
C208 C211 1.431 . S
C209 H201 0.930 . S
C209 C210 1.355 . S
C209 C211 1.415 . S
C210 C209 1.355 . S
C210 C212 1.419 . S
C211 C206 1.425 . S
C211 C208 1.431 . S
C211 C209 1.415 . S
C212 H202 0.930 . S
C212 C210 1.419 . S
C212 C213 1.362 . S
C213 H203 0.930 . S
C213 C206 1.409 . S
C213 C212 1.362 . S
H214 C220 0.930 . S
H215 C223 0.930 . S
H216 C224 0.930 . S
H217 C225 0.930 . S
H218 C228 0.930 . S
H219 C229 0.930 . S
C220 H214 0.930 . S
C220 C221 1.355 . S
C220 C222 1.415 . S
C221 C220 1.355 . S
C221 C223 1.419 . S
C222 C220 1.415 . S
C222 C227 1.425 . S
C222 C229 1.409 . S
C223 H215 0.930 . S
C223 C221 1.419 . S
C223 C224 1.362 . S
C224 H216 0.930 . S
C224 C223 1.362 . S
C224 C227 1.409 . S
C225 H217 0.930 . S
C225 C226 1.355 . S
C225 C227 1.415 . S
C226 C225 1.355 . S
C226 C228 1.419 . S
C227 C222 1.425 . S
C227 C224 1.409 . S
C227 C225 1.415 . S
C228 H218 0.930 . S
C228 C226 1.419 . S
C228 C229 1.362 . S
C229 H219 0.930 . S
C229 C222 1.409 . S
C229 C228 1.362 . S
H230 C236 0.930 . S
H231 C239 0.930 . S
H232 C240 0.930 . S
H233 C241 0.930 . S
H234 C244 0.930 . S
H235 C245 0.930 . S
C236 H230 0.930 . S
C236 C237 1.355 . S
C236 C238 1.415 . S
C237 C236 1.355 . S
C237 C239 1.419 . S
C238 C236 1.415 . S
C238 C243 1.425 . S
C238 C245 1.409 . S
C239 H231 0.930 . S
C239 C237 1.419 . S
C239 C240 1.362 . S
C240 H232 0.930 . S
C240 C239 1.362 . S
C240 C243 1.409 . S
C241 H233 0.930 . S
C241 C242 1.355 . S
C241 C243 1.415 . S
C242 C241 1.355 . S
C242 C244 1.419 . S
C243 C238 1.425 . S
C243 C240 1.409 . S
C243 C241 1.415 . S
C244 H234 0.930 . S
C244 C242 1.419 . S
C244 C245 1.362 . S
C245 H235 0.930 . S
C245 C238 1.409 . S
C245 C244 1.362 . S
H246 C252 0.930 . S
H247 C255 0.930 . S
H248 C256 0.930 . S
H249 C257 0.930 . S
H250 C260 0.930 . S
H251 C261 0.930 . S
C252 H246 0.930 . S
C252 C253 1.355 . S
C252 C254 1.415 . S
C253 C252 1.355 . S
C253 C255 1.419 . S
C254 C252 1.415 . S
C254 C259 1.425 . S
C254 C261 1.409 . S
C255 H247 0.930 . S
C255 C253 1.419 . S
C255 C256 1.362 . S
C256 H248 0.930 . S
C256 C255 1.362 . S
C256 C259 1.409 . S
C257 H249 0.930 . S
C257 C258 1.355 . S
C257 C259 1.415 . S
C258 C257 1.355 . S
C258 C260 1.419 . S
C259 C254 1.425 . S
C259 C256 1.409 . S
C259 C257 1.415 . S
C260 H250 0.930 . S
C260 C258 1.419 . S
C260 C261 1.362 . S
C261 H251 0.930 . S
C261 C254 1.409 . S
C261 C260 1.362 . S
H262 C268 0.930 . S
H263 C271 0.930 . S
H264 C272 0.930 . S
H265 C273 0.930 . S
H266 C276 0.930 . S
H267 C277 0.930 . S
C268 H262 0.930 . S
C268 C269 1.355 . S
C268 C270 1.415 . S
C269 C268 1.355 . S
C269 C271 1.419 . S
C270 C268 1.415 . S
C270 C275 1.425 . S
C270 C277 1.409 . S
C271 H263 0.930 . S
C271 C269 1.419 . S
C271 C272 1.362 . S
C272 H264 0.930 . S
C272 C271 1.362 . S
C272 C275 1.409 . S
C273 H265 0.930 . S
C273 C274 1.355 . S
C273 C275 1.415 . S
C274 C273 1.355 . S
C274 C276 1.419 . S
C275 C270 1.425 . S
C275 C272 1.409 . S
C275 C273 1.415 . S
C276 H266 0.930 . S
C276 C274 1.419 . S
C276 C277 1.362 . S
C277 H267 0.930 . S
C277 C270 1.409 . S
C277 C276 1.362 . S
C98 C51 1.460 . S
C93 N4 1.523 . S
C114 C47 1.413 . S
C109 N15 1.470 . S
C130 C72 1.459 . S
C125 N26 1.523 . S
C141 N37 1.482 . S
C146 C68 1.447 . S
C157 C9 1.327 1_556 S
C162 C69 1.230 . S
C178 C84 1.088 . S
C173 C17 1.288 1_556 S
C189 C6 1.687 1_655 S
C194 C85 1.553 . S
C210 C81 1.599 . S
C205 C20 1.725 1_556 S
C226 C48 1.164 . S
C221 C31 1.316 . S
C237 C39 1.325 . S
C242 C63 1.216 . S
C258 C64 1.587 . S
C253 C28 1.703 . S
C274 C60 1.553 . S
C269 C42 1.707 . S
