# Generated by pormake.
# Topology rtl, (3,6)-cn, num edge types: 1
# Building blocks:
#     Node 0, Type 0, BuildingBlock: PAMTOO_clean_linker_0, # of connection points: 3
#     Node 1, Type 0, BuildingBlock: PAMTOO_clean_linker_0, # of connection points: 3
#     Node 2, Type 0, BuildingBlock: PAMTOO_clean_linker_0, # of connection points: 3
#     Node 3, Type 0, BuildingBlock: PAMTOO_clean_linker_0, # of connection points: 3
#     Node 4, Type 1, BuildingBlock: VOLQOD_clean_sbu_1, # of connection points: 6
#     Node 5, Type 1, BuildingBlock: VOLQOD_clean_sbu_1, # of connection points: 6
#     Edge 6, Type (0, 1), BuildingBlock: TEMPAE_clean_linker_10, # of connection points: 2
#     Edge 7, Type (0, 1), BuildingBlock: TEMPAE_clean_linker_10, # of connection points: 2
#     Edge 8, Type (0, 1), BuildingBlock: TEMPAE_clean_linker_10, # of connection points: 2
#     Edge 9, Type (0, 1), BuildingBlock: TEMPAE_clean_linker_10, # of connection points: 2
#     Edge 10, Type (0, 1), BuildingBlock: TEMPAE_clean_linker_10, # of connection points: 2
#     Edge 11, Type (0, 1), BuildingBlock: TEMPAE_clean_linker_10, # of connection points: 2
#     Edge 12, Type (0, 1), BuildingBlock: TEMPAE_clean_linker_10, # of connection points: 2
#     Edge 13, Type (0, 1), BuildingBlock: TEMPAE_clean_linker_10, # of connection points: 2
#     Edge 14, Type (0, 1), BuildingBlock: TEMPAE_clean_linker_10, # of connection points: 2
#     Edge 15, Type (0, 1), BuildingBlock: TEMPAE_clean_linker_10, # of connection points: 2
#     Edge 16, Type (0, 1), BuildingBlock: TEMPAE_clean_linker_10, # of connection points: 2
#     Edge 17, Type (0, 1), BuildingBlock: TEMPAE_clean_linker_10, # of connection points: 2
# Relax obj value: 0.042
# Max RMSD: 0.144
# Mean RMSD: 0.095
data_MOF--net-rtl--node1-VOLQOD_clean_sbu_1--node2-PAMTOO_clean_linker_0--edge1-TEMPAE_clean_linker_10
_symmetry_space_group_name_H-M    P1
_symmetry_Int_Tables_number       1
_symmetry_cell_setting            triclinic
loop_
_symmetry_equiv_pos_as_xyz
'x, y, z'
_cell_length_a     38.385291
_cell_length_b     38.389232
_cell_length_c     22.265208
_cell_angle_alpha  92.664258
_cell_angle_beta   90.488283
_cell_angle_gamma 90.06598
loop_
_atom_site_label
_atom_site_type_symbol
_atom_site_fract_x
_atom_site_fract_y
_atom_site_fract_z
_atom_type_partial_charge
H0 H 0.12094 0.84041 0.00924 0.0
H1 H 0.18886 0.76698 0.09076 0.0
H2 H 0.20378 0.79147 0.90673 0.0
H3 H 0.21065 0.71858 0.92334 0.0
C4 C 0.21849 0.71866 0.97154 0.0
O5 O 0.22448 0.75247 -0.00704 0.0
H6 H 0.19694 0.70716 -0.00263 0.0
C7 C 0.14287 0.82271 0.00576 0.0
C8 C 0.16112 0.81876 0.95142 0.0
C9 C 0.15295 0.80475 0.05649 0.0
C10 C 0.18086 0.78128 0.05214 0.0
C11 C 0.19845 0.77601 -0.00239 0.0
C12 C 0.18909 0.79514 0.94784 0.0
H13 H 0.64423 0.64206 0.4978 0.0
H14 H 0.70056 0.72316 0.41334 0.0
H15 H 0.70104 0.71898 0.60588 0.0
H16 H 0.69529 0.78954 0.56144 0.0
C17 C 0.71069 0.78602 0.51945 0.0
O18 O 0.7237 0.75261 0.51439 0.0
H19 H 0.69311 0.79086 0.4807 0.0
C20 C 0.6613 0.66462 0.50119 0.0
C21 C 0.67176 0.67813 0.55803 0.0
C22 C 0.67154 0.68047 0.44873 0.0
C23 C 0.69228 0.71059 0.45341 0.0
C24 C 0.70283 0.72434 0.51011 0.0
C25 C 0.69255 0.70822 0.56232 0.0
H26 H 0.88323 0.15784 0.02441 0.0
H27 H 0.82853 0.2364 0.92863 0.0
H28 H 0.80714 0.22254 0.11499 0.0
H29 H 0.74604 0.22632 0.03895 0.0
C30 C 0.75538 0.24437 0.0048 0.0
O31 O 0.78881 0.25528 0.01898 0.0
H32 H 0.75508 0.22977 0.96037 0.0
C33 C 0.86484 0.17922 0.02349 0.0
C34 C 0.84657 0.18863 0.07592 0.0
C35 C 0.85915 0.19646 0.97003 0.0
C36 C 0.83401 0.22305 0.96944 0.0
C37 C 0.81508 0.23206 0.02146 0.0
C38 C 0.82195 0.21548 0.07504 0.0
H39 H 0.3793 0.34207 0.48247 0.0
H40 H 0.30888 0.27159 0.5645 0.0
H41 H 0.30565 0.28238 0.37326 0.0
H42 H 0.23652 0.27769 0.43296 0.0
C43 C 0.24387 0.26028 0.46961 0.0
O44 O 0.27834 0.25085 0.46328 0.0
H45 H 0.24006 0.27454 0.51371 0.0
C46 C 0.3589 0.32251 0.47829 0.0
C47 C 0.34457 0.31368 0.42156 0.0
C48 C 0.34636 0.30753 0.53005 0.0
C49 C 0.31893 0.2834 0.5249 0.0
C50 C 0.30436 0.27444 0.46829 0.0
C51 C 0.31704 0.28962 0.41677 0.0
O52 O 0.91939 0.9743 0.51973 0.0
Zn53 Zn 0.95254 0.01445 0.51645 0.0
O54 O 0.00074 -0.00107 0.50902 0.0
Zn55 Zn 0.0287 0.02021 0.57465 0.0
Zn56 Zn 0.00167 0.94817 0.51293 0.0
Zn57 Zn 0.01975 0.01289 0.43249 0.0
O58 O 0.06505 0.05203 0.54412 0.0
O59 O 0.05994 0.04658 0.44487 0.0
O60 O 0.9458 0.04481 0.5909 0.0
O61 O -0.00092 0.05022 0.63048 0.0
O62 O 0.05263 0.98348 0.62201 0.0
O63 O 0.02886 0.93396 0.58523 0.0
O64 O 0.02527 0.92631 0.44019 0.0
O65 O 0.93817 0.042 0.44621 0.0
O66 O 0.03699 0.97098 0.38371 0.0
O67 O 0.98351 0.03817 0.38505 0.0
C68 C 0.92322 0.94139 0.51944 0.0
C69 C 0.07458 0.06003 0.49197 0.0
C70 C 0.04893 0.95052 0.62235 0.0
C71 C 0.9667 0.05721 0.631 0.0
C72 C 0.03779 0.93843 0.39264 0.0
C73 C 0.95277 0.04873 0.39699 0.0
O74 O 0.95337 0.92763 0.5169 0.0
O75 O 0.58236 0.46685 -0.00641 0.0
Zn76 Zn 0.55269 0.51007 -0.00894 0.0
O77 O 0.50297 0.49979 0.98915 0.0
Zn78 Zn 0.4819 0.51686 0.91564 0.0
Zn79 Zn 0.49735 0.44953 0.98942 0.0
Zn80 Zn 0.48066 0.52171 0.06036 0.0
O81 O 0.44295 0.55038 0.93594 0.0
O82 O 0.44296 0.55481 0.03576 0.0
O83 O 0.56636 0.53622 0.91979 0.0
O84 O 0.51747 0.54227 0.86737 0.0
O85 O 0.46117 0.47734 0.86362 0.0
O86 O 0.47192 0.43097 0.91655 0.0
O87 O 0.46911 0.43614 0.05892 0.0
O88 O 0.56504 0.54102 0.0624 0.0
O89 O 0.45779 0.48556 0.11065 0.0
O90 O 0.51555 0.54932 0.11187 0.0
C91 C 0.57465 0.43462 -0.00547 0.0
C92 C 0.43065 0.5632 0.98512 0.0
C93 C 0.45895 0.44464 0.87056 0.0
C94 C 0.55001 0.54772 0.87495 0.0
C95 C 0.45507 0.45254 0.10326 0.0
C96 C 0.54811 0.55474 0.10623 0.0
O97 O 0.54306 0.42454 -0.00664 0.0
C98 C 0.23297 0.1959 0.48346 0.0
C99 C 0.2206 0.22857 0.46711 0.0
C100 C 0.21063 0.16699 0.48416 0.0
C101 C 0.1749 0.17112 0.47006 0.0
C102 C 0.16223 0.20406 0.45393 0.0
C103 C 0.18528 0.23238 0.45266 0.0
C104 C 0.2251 0.13221 0.50124 0.0
C105 C 0.12416 0.20962 0.43971 0.0
C106 C 0.11779 0.0922 0.43126 0.0
C107 C 0.10169 0.08712 0.48651 0.0
C108 C 0.14226 0.11903 0.42543 0.0
C109 C 0.15034 0.14157 0.47578 0.0
C110 C 0.1344 0.13637 0.53172 0.0
C111 C 0.1105 0.10907 0.53651 0.0
C112 C 0.15923 0.1235 0.36535 0.0
C113 C 0.142 0.16014 0.58628 0.0
H114 H 0.26007 0.1929 0.49617 0.0
H115 H 0.1756 0.25779 0.44129 0.0
H116 H 0.21359 0.12468 0.5443 0.0
H117 H 0.21793 0.11167 0.46662 0.0
H118 H 0.25391 0.13273 0.50643 0.0
H119 H 0.11874 0.23654 0.42596 0.0
H120 H 0.11548 0.19096 0.40306 0.0
H121 H 0.10826 0.20454 0.47979 0.0
H122 H 0.11121 0.07525 0.39252 0.0
H123 H 0.09802 0.1055 0.57929 0.0
H124 H 0.188 0.12294 0.37045 0.0
H125 H 0.15222 0.14926 0.3482 0.0
H126 H 0.15125 0.10287 0.33132 0.0
H127 H 0.17028 0.16002 0.59688 0.0
H128 H 0.12755 0.15239 0.62658 0.0
H129 H 0.13479 0.18734 0.57678 0.0
C130 C 0.28359 0.71067 0.96208 0.0
C131 C 0.25101 0.69705 0.97682 0.0
C132 C 0.31378 0.69014 0.96427 0.0
C133 C 0.31112 0.65495 0.98016 0.0
C134 C 0.2782 0.64095 -0.00577 0.0
C135 C 0.24853 0.66218 -0.00771 0.0
C136 C 0.34845 0.706 0.94916 0.0
C137 C 0.27425 0.60341 0.01055 0.0
C138 C 0.38185 0.59127 0.92992 0.0
C139 C 0.40087 0.58769 0.98339 0.0
C140 C 0.35274 0.61327 0.92815 0.0
C141 C 0.34263 0.63249 0.98092 0.0
C142 C 0.36208 0.62956 0.03473 0.0
C143 C 0.39085 0.60704 0.03542 0.0
C144 C 0.33242 0.61546 0.87005 0.0
C145 C 0.3523 0.64996 0.0917 0.0
H146 H 0.28542 0.73739 0.94868 0.0
H147 H 0.22323 0.65141 0.00238 0.0
H148 H 0.36712 0.70323 0.98694 0.0
H149 H 0.35961 0.69193 0.90917 0.0
H150 H 0.34622 0.73408 0.93973 0.0
H151 H 0.24684 0.59663 0.02067 0.0
H152 H 0.28338 0.58583 0.97298 0.0
H153 H 0.29069 0.59828 0.05039 0.0
H154 H 0.3893 0.57634 0.88956 0.0
H155 H 0.40551 0.60461 0.07684 0.0
H156 H 0.33122 0.64289 0.85655 0.0
H157 H 0.30523 0.60664 0.87653 0.0
H158 H 0.34406 0.59927 0.83275 0.0
H159 H 0.35142 0.67824 0.08348 0.0
H160 H 0.37089 0.64576 0.12918 0.0
H161 H 0.32588 0.64222 0.10592 0.0
C162 C 0.75673 0.82153 0.57522 0.0
C163 C 0.74071 0.81111 0.52056 0.0
C164 C 0.78633 0.84301 0.5766 0.0
C165 C 0.80036 0.85388 0.52191 0.0
C166 C 0.78432 0.84324 0.46654 0.0
C167 C 0.75473 0.82178 0.46655 0.0
C168 C 0.8028 0.85377 0.63646 0.0
C169 C 0.79862 0.85421 0.40732 0.0
C170 C 0.85856 0.93384 0.52468 0.0
C171 C 0.89189 0.91887 0.52129 0.0
C172 C 0.82858 0.91298 0.52533 0.0
C173 C 0.83195 0.87626 0.5225 0.0
C174 C 0.86545 0.86093 0.51952 0.0
C175 C 0.89504 0.88242 0.51898 0.0
C176 C 0.79326 0.93024 0.52864 0.0
C177 C 0.87002 0.82182 0.51644 0.0
H178 H 0.7462 0.81257 0.61683 0.0
H179 H 0.74266 0.81301 0.4243 0.0
H180 H 0.83003 0.84419 0.63818 0.0
H181 H 0.80381 0.88263 0.64196 0.0
H182 H 0.78835 0.8435 0.67489 0.0
H183 H 0.7828 0.84402 0.36834 0.0
H184 H 0.79944 0.88308 0.40663 0.0
H185 H 0.82574 0.8447 0.40188 0.0
H186 H 0.85579 0.96196 0.52658 0.0
H187 H 0.92064 0.8706 0.51637 0.0
H188 H 0.77901 0.92167 0.56853 0.0
H189 H 0.77748 0.92221 0.48836 0.0
H190 H 0.79514 0.95915 0.53144 0.0
H191 H 0.85778 0.8104 0.55599 0.0
H192 H 0.89788 0.81403 0.5151 0.0
H193 H 0.85669 0.81034 0.47576 0.0
C194 C 0.72079 0.28837 0.94879 0.0
C195 C 0.73147 0.27526 0.00362 0.0
C196 C 0.6969 0.31593 0.94718 0.0
C197 C 0.68376 0.33083 0.00177 0.0
C198 C 0.69565 0.31858 0.05735 0.0
C199 C 0.71948 0.29091 0.05758 0.0
C200 C 0.6849 0.32835 0.88707 0.0
C201 C 0.6824 0.33398 0.11646 0.0
C202 C 0.63792 0.41843 -0.0011 0.0
C203 C 0.60277 0.40827 -0.00313 0.0
C204 C 0.66464 0.39354 0.0008 0.0
C205 C 0.65597 0.35769 0.00058 0.0
C206 C 0.6206 0.34727 -0.00128 0.0
C207 C 0.59445 0.37266 -0.00308 0.0
C208 C 0.70212 0.40556 0.00286 0.0
C209 C 0.61033 0.30926 -0.00162 0.0
H210 H 0.73054 0.27649 0.90713 0.0
H211 H 0.72824 0.28094 0.0999 0.0
H212 H 0.65666 0.32295 0.88086 0.0
H213 H 0.68853 0.35696 0.88542 0.0
H214 H 0.69915 0.31541 0.84899 0.0
H215 H 0.69596 0.32307 0.15565 0.0
H216 H 0.68585 0.36271 0.11866 0.0
H217 H 0.6541 0.32869 0.12013 0.0
H218 H 0.64463 0.44586 -0.00106 0.0
H219 H 0.56741 0.36448 -0.00461 0.0
H220 H 0.71621 0.39435 0.9632 0.0
H221 H 0.71532 0.39604 0.04346 0.0
H222 H 0.70448 0.43442 0.00345 0.0
H223 H 0.62167 0.29502 0.95869 0.0
H224 H 0.58163 0.30552 -0.00285 0.0
H225 H 0.62092 0.29722 0.03903 0.0
C226 C 0.15529 0.82412 0.16496 0.0
C227 C 0.13551 0.81314 0.1144 0.0
C228 C 0.13927 0.84011 0.21551 0.0
C229 C 0.10271 0.84508 0.21518 0.0
C230 C 0.08241 0.83125 0.16634 0.0
C231 C 0.09909 0.81543 0.11646 0.0
C232 C 0.16178 0.85426 0.26697 0.0
C233 C 0.04334 0.83568 0.16447 0.0
C234 C 0.05662 0.87844 0.3569 0.0
C235 C 0.0542 0.91428 0.34734 0.0
C236 C 0.07255 0.85549 0.31455 0.0
C237 C 0.08631 0.86871 0.26146 0.0
C238 C 0.08396 0.90481 0.25155 0.0
C239 C 0.06796 0.92712 0.29456 0.0
C240 C 0.07461 0.81715 0.3265 0.0
C241 C 0.09827 0.91991 0.19531 0.0
H242 H 0.18347 0.8225 0.16332 0.0
H243 H 0.08377 0.80653 0.07756 0.0
H244 H 0.16315 0.88309 0.2657 0.0
H245 H 0.15036 0.84794 0.31075 0.0
H246 H 0.18872 0.84376 0.26463 0.0
H247 H 0.03102 0.81932 0.12766 0.0
H248 H 0.03165 0.82889 0.2078 0.0
H249 H 0.03699 0.86339 0.15733 0.0
H250 H 0.04614 0.86824 0.39758 0.0
H251 H 0.06627 0.95472 0.2867 0.0
H252 H 0.10218 0.80852 0.32614 0.0
H253 H 0.0608 0.80169 0.2903 0.0
H254 H 0.06302 0.81108 0.37036 0.0
H255 H 0.1265 0.91412 0.19153 0.0
H256 H 0.09463 0.9486 0.19474 0.0
H257 H 0.08517 0.90766 0.15502 0.0
C258 C 0.64359 0.68008 0.65898 0.0
C259 C 0.65968 0.66081 0.61202 0.0
C260 C 0.62723 0.66316 0.70567 0.0
C261 C 0.62708 0.62625 0.70501 0.0
C262 C 0.64488 0.60682 0.65933 0.0
C263 C 0.66106 0.62437 0.61346 0.0
C264 C 0.60873 0.68467 0.75407 0.0
C265 C 0.64551 0.56743 0.65733 0.0
C266 C 0.60414 0.57808 0.84394 0.0
C267 C 0.56937 0.56846 0.83183 0.0
C268 C 0.62302 0.59766 0.80376 0.0
C269 C 0.60681 0.60768 0.75004 0.0
C270 C 0.57165 0.59845 0.73776 0.0
C271 C 0.5533 0.57899 0.77891 0.0
C272 C 0.66043 0.60717 0.81837 0.0
C273 C 0.55361 0.60858 0.68061 0.0
H274 H 0.64235 0.70824 0.65766 0.0
H275 H 0.67394 0.60951 0.5775 0.0
H276 H 0.58022 0.68027 0.74991 0.0
H277 H 0.61686 0.67651 0.79923 0.0
H278 H 0.61395 0.71301 0.75117 0.0
H279 H 0.66223 0.55637 0.62072 0.0
H280 H 0.65516 0.558 0.70076 0.0
H281 H 0.61867 0.55718 0.6503 0.0
H282 H 0.61675 0.5703 0.88493 0.0
H283 H 0.52646 0.57175 0.76927 0.0
H284 H 0.66416 0.63577 0.81676 0.0
H285 H 0.67787 0.5947 0.78423 0.0
H286 H 0.66865 0.59885 0.86347 0.0
H287 H 0.5549 0.63725 0.67659 0.0
H288 H 0.52584 0.60038 0.67878 0.0
H289 H 0.56713 0.59642 0.6411 0.0
C290 C 0.85154 0.13298 0.12784 0.0
C291 C 0.85348 0.16945 0.13063 0.0
C292 C 0.8641 0.11365 0.17516 0.0
C293 C 0.87923 0.13132 0.22613 0.0
C294 C 0.87927 0.16827 0.23076 0.0
C295 C 0.86619 0.18699 0.1828 0.0
C296 C 0.86317 0.07432 0.16885 0.0
C297 C 0.89521 0.18797 0.28444 0.0
C298 C 0.89871 0.0787 0.36257 0.0
C299 C 0.93386 0.06997 0.35349 0.0
C300 C 0.8806 0.09906 0.32193 0.0
C301 C 0.89813 0.11109 0.27128 0.0
C302 C 0.93366 0.10267 0.26213 0.0
C303 C 0.95105 0.08211 0.30322 0.0
C304 C 0.84266 0.10732 0.33275 0.0
C305 C 0.95326 0.11515 0.20861 0.0
H306 H 0.84144 0.11955 0.08742 0.0
H307 H 0.8678 0.21522 0.18457 0.0
H308 H 0.89004 0.0642 0.16281 0.0
H309 H 0.85268 0.06326 0.21016 0.0
H310 H 0.84706 0.06476 0.12978 0.0
H311 H 0.88951 0.21634 0.28442 0.0
H312 H 0.88548 0.17762 0.32687 0.0
H313 H 0.92389 0.1844 0.28407 0.0
H314 H 0.88518 0.06943 0.40128 0.0
H315 H 0.97823 0.07571 0.29601 0.0
H316 H 0.82658 0.0961 0.29496 0.0
H317 H 0.83857 0.13595 0.33437 0.0
H318 H 0.83311 0.09687 0.37531 0.0
H319 H 0.94105 0.10435 0.16639 0.0
H320 H 0.98111 0.10731 0.20915 0.0
H321 H 0.95185 0.14399 0.20771 0.0
C322 C 0.33989 0.33261 0.63483 0.0
C323 C 0.36139 0.31907 0.58896 0.0
C324 C 0.35427 0.35039 0.68571 0.0
C325 C 0.39089 0.35454 0.69036 0.0
C326 C 0.41271 0.33869 0.64614 0.0
C327 C 0.39766 0.32108 0.59596 0.0
C328 C 0.33024 0.36666 0.73238 0.0
C329 C 0.45188 0.34225 0.64974 0.0
C330 C 0.42847 0.43527 0.77124 0.0
C331 C 0.44055 0.42189 0.82508 0.0
C332 C 0.41152 0.41371 0.7276 0.0
C333 C 0.40641 0.37798 0.73822 0.0
C334 C 0.41786 0.36444 0.79291 0.0
C335 C 0.43488 0.38653 0.83563 0.0
C336 C 0.39973 0.42902 0.66955 0.0
C337 C 0.41269 0.32651 0.80583 0.0
H338 H 0.31183 0.33119 0.62919 0.0
H339 H 0.41424 0.31025 0.56061 0.0
H340 H 0.3393 0.36088 0.7783 0.0
H341 H 0.33047 0.39541 0.72919 0.0
H342 H 0.30299 0.35729 0.72629 0.0
H343 H 0.46515 0.3257 0.61467 0.0
H344 H 0.45931 0.36983 0.64396 0.0
H345 H 0.46162 0.33504 0.69452 0.0
H346 H 0.43263 0.46254 0.76278 0.0
H347 H 0.44387 0.37596 0.87732 0.0
H348 H 0.37149 0.42413 0.66211 0.0
H349 H 0.41372 0.41615 0.63118 0.0
H350 H 0.40452 0.45755 0.66922 0.0
H351 H 0.38485 0.31922 0.80007 0.0
H352 H 0.42119 0.32058 0.85206 0.0
H353 H 0.42771 0.30986 0.77329 0.0
C354 C 0.64261 0.68625 0.34858 0.0
C355 C 0.65936 0.6654 0.38995 0.0
C356 C 0.62581 0.67107 0.29753 0.0
C357 C 0.62586 0.63432 0.28817 0.0
C358 C 0.64449 0.61342 0.32807 0.0
C359 C 0.66112 0.62926 0.37836 0.0
C360 C 0.60654 0.69414 0.25542 0.0
C361 C 0.64537 0.57416 0.31943 0.0
C362 C 0.55145 0.5873 0.20616 0.0
C363 C 0.56698 0.5773 0.1513 0.0
C364 C 0.56999 0.60703 0.25037 0.0
C365 C 0.60472 0.61723 0.23914 0.0
C366 C 0.62005 0.60843 0.18299 0.0
C367 C 0.60106 0.58843 0.13983 0.0
C368 C 0.55286 0.61583 0.30998 0.0
C369 C 0.6569 0.61916 0.16925 0.0
H370 H 0.64112 0.71419 0.35771 0.0
H371 H 0.67454 0.61321 0.41001 0.0
H372 H 0.61336 0.6872 0.20805 0.0
H373 H 0.57808 0.6901 0.25991 0.0
H374 H 0.61238 0.72222 0.26502 0.0
H375 H 0.66272 0.56193 0.3526 0.0
H376 H 0.6187 0.56349 0.32411 0.0
H377 H 0.65439 0.56644 0.27353 0.0
H378 H 0.52513 0.57891 0.21527 0.0
H379 H 0.61314 0.5812 0.09722 0.0
H380 H 0.55453 0.64427 0.32091 0.0
H381 H 0.5668 0.60246 0.34621 0.0
H382 H 0.52503 0.60785 0.31022 0.0
H383 H 0.66054 0.64749 0.17946 0.0
H384 H 0.66375 0.61323 0.12149 0.0
H385 H 0.67541 0.60523 0.19817 0.0
C386 C 0.91259 0.17298 0.91889 0.0
C387 C 0.87799 0.18453 0.91475 0.0
C388 C 0.92866 0.15522 0.87031 0.0
C389 C 0.91016 0.15008 0.81543 0.0
C390 C 0.87648 0.16451 0.80909 0.0
C391 C 0.86056 0.18119 0.85912 0.0
C392 C 0.96443 0.13981 0.8792 0.0
C393 C 0.85644 0.16056 0.75054 0.0
C394 C 0.96204 0.11614 0.68066 0.0
C395 C 0.95295 0.08081 0.67847 0.0
C396 C 0.9476 0.13938 0.72412 0.0
C397 C 0.92456 0.12648 0.76719 0.0
C398 C 0.91578 0.09057 0.76536 0.0
C399 C 0.92967 0.06823 0.72016 0.0
C400 C 0.9566 0.17765 0.72352 0.0
C401 C 0.89205 0.07566 0.81149 0.0
H402 H 0.92668 0.17644 0.96115 0.0
H403 H 0.83384 0.18993 0.85529 0.0
H404 H 0.9625 0.11092 0.87717 0.0
H405 H 0.98214 0.14713 0.84278 0.0
H406 H 0.97632 0.14838 0.92311 0.0
H407 H 0.83334 0.17795 0.75001 0.0
H408 H 0.8734 0.1664 0.71215 0.0
H409 H 0.84736 0.13322 0.74356 0.0
H410 H 0.9798 0.12566 0.6475 0.0
H411 H 0.92277 0.04079 0.71786 0.0
H412 H 0.96954 0.18626 0.76639 0.0
H413 H 0.93242 0.19324 0.71966 0.0
H414 H 0.97406 0.18357 0.68578 0.0
H415 H 0.90269 0.08147 0.85737 0.0
H416 H 0.88878 0.04698 0.80477 0.0
H417 H 0.866 0.08802 0.80925 0.0
C418 C 0.3358 0.34617 0.32773 0.0
C419 C 0.35835 0.33064 0.3684 0.0
C420 C 0.349 0.36597 0.28158 0.0
C421 C 0.38548 0.37019 0.27636 0.0
C422 C 0.40832 0.35352 0.31609 0.0
C423 C 0.39445 0.33383 0.36147 0.0
C424 C 0.32396 0.3832 0.23959 0.0
C425 C 0.4474 0.35719 0.31167 0.0
C426 C 0.42724 0.39717 0.13258 0.0
C427 C 0.43516 0.43238 0.14642 0.0
C428 C 0.40976 0.37698 0.17356 0.0
C429 C 0.40015 0.39228 0.22992 0.0
C430 C 0.4071 0.42803 0.24363 0.0
C431 C 0.42445 0.44774 0.20154 0.0
C432 C 0.40259 0.33899 0.15727 0.0
C433 C 0.3973 0.44513 0.30355 0.0
H434 H 0.30788 0.34392 0.33339 0.0
H435 H 0.41189 0.32142 0.39249 0.0
H436 H 0.32635 0.41196 0.24562 0.0
H437 H 0.33051 0.37608 0.19216 0.0
H438 H 0.29647 0.37575 0.24755 0.0
H439 H 0.46149 0.34199 0.34549 0.0
H440 H 0.45619 0.34825 0.26619 0.0
H441 H 0.4549 0.38503 0.31837 0.0
H442 H 0.43502 0.38515 0.08978 0.0
H443 H 0.43036 0.47493 0.21245 0.0
H444 H 0.37473 0.33285 0.16445 0.0
H445 H 0.41813 0.32239 0.18692 0.0
H446 H 0.40918 0.33183 0.1098 0.0
H447 H 0.3693 0.4407 0.3126 0.0
H448 H 0.4024 0.47365 0.30564 0.0
H449 H 0.41242 0.43321 0.33998 0.0
C450 C 0.15132 0.82462 0.84026 0.0
C451 C 0.15041 0.8393 0.89918 0.0
C452 C 0.13826 0.84287 0.7917 0.0
C453 C 0.1229 0.87605 0.80263 0.0
C454 C 0.12291 0.89148 0.86153 0.0
C455 C 0.1374 0.87329 0.9087 0.0
C456 C 0.13985 0.82617 0.72906 0.0
C457 C 0.10617 0.92652 0.87532 0.0
C458 C 0.10331 0.93853 0.6796 0.0
C459 C 0.06825 0.93091 0.66696 0.0
C460 C 0.12201 0.91972 0.72174 0.0
C461 C 0.1047 0.89379 0.75353 0.0
C462 C 0.0692 0.88615 0.74089 0.0
C463 C 0.05158 0.90438 0.69681 0.0
C464 C 0.16016 0.92763 0.73237 0.0
C465 C 0.04951 0.85953 0.77525 0.0
H466 H 0.16119 0.79841 0.83214 0.0
H467 H 0.13773 0.88554 0.95353 0.0
H468 H 0.1133 0.81827 0.71381 0.0
H469 H 0.14975 0.84507 0.69702 0.0
H470 H 0.15681 0.80272 0.72698 0.0
H471 H 0.10861 0.93498 0.92358 0.0
H472 H 0.11818 0.9467 0.84805 0.0
H473 H 0.07808 0.92525 0.86314 0.0
H474 H 0.11622 0.95881 0.65574 0.0
H475 H 0.02439 0.89867 0.68699 0.0
H476 H 0.1756 0.90321 0.72834 0.0
H477 H 0.16422 0.93892 0.77864 0.0
H478 H 0.17043 0.94626 0.70012 0.0
H479 H 0.06227 0.83369 0.76986 0.0
H480 H 0.02195 0.85684 0.7601 0.0
H481 H 0.04993 0.86716 0.82396 0.0
loop_
_geom_bond_atom_site_label_1
_geom_bond_atom_site_label_2
_geom_bond_distance
_geom_bond_site_symmetry_2
_ccdc_geom_bond_type
H0 C7 0.929 . S
H1 C10 0.930 . S
H2 C12 0.929 . S
H3 C4 0.969 . S
C4 H3 0.969 . S
C4 O5 1.550 1_554 S
C4 H6 0.973 . S
O5 C4 1.550 1_556 S
O5 C11 1.412 . S
H6 C4 0.973 . S
C7 H0 0.929 . S
C7 C8 1.400 1_554 S
C7 C9 1.364 . S
C8 C7 1.400 1_556 S
C8 C12 1.377 . S
C9 C7 1.364 . S
C9 C10 1.374 . S
C10 H1 0.930 . S
C10 C9 1.374 . S
C10 C11 1.383 1_554 S
C11 O5 1.412 . S
C11 C10 1.383 1_556 S
C11 C12 1.394 . S
C12 H2 0.929 . S
C12 C8 1.377 . S
C12 C11 1.394 . S
H13 C20 0.929 . S
H14 C23 0.930 . S
H15 C25 0.929 . S
H16 C17 0.969 . S
C17 H16 0.969 . S
C17 O18 1.550 . S
C17 H19 0.973 . S
O18 C17 1.550 . S
O18 C24 1.412 . S
H19 C17 0.973 . S
C20 H13 0.929 . S
C20 C21 1.400 . S
C20 C22 1.364 . S
C21 C20 1.400 . S
C21 C25 1.377 . S
C22 C20 1.364 . S
C22 C23 1.374 . S
C23 H14 0.930 . S
C23 C22 1.374 . S
C23 C24 1.383 . S
C24 O18 1.412 . S
C24 C23 1.383 . S
C24 C25 1.394 . S
C25 H15 0.929 . S
C25 C21 1.377 . S
C25 C24 1.394 . S
H26 C33 0.929 . S
H27 C36 0.930 . S
H28 C38 0.929 . S
H29 C30 0.969 . S
C30 H29 0.969 . S
C30 O31 1.550 1_556 S
C30 H32 0.973 . S
O31 C30 1.550 1_554 S
O31 C37 1.412 . S
H32 C30 0.973 . S
C33 H26 0.929 . S
C33 C34 1.400 . S
C33 C35 1.364 1_554 S
C34 C33 1.400 . S
C34 C38 1.377 . S
C35 C33 1.364 1_556 S
C35 C36 1.374 . S
C36 H27 0.930 . S
C36 C35 1.374 . S
C36 C37 1.383 1_556 S
C37 O31 1.412 . S
C37 C36 1.383 1_554 S
C37 C38 1.394 . S
C38 H28 0.929 . S
C38 C34 1.377 . S
C38 C37 1.394 . S
H39 C46 0.929 . S
H40 C49 0.930 . S
H41 C51 0.929 . S
H42 C43 0.969 . S
C43 H42 0.969 . S
C43 O44 1.550 . S
C43 H45 0.973 . S
O44 C43 1.550 . S
O44 C50 1.412 . S
H45 C43 0.973 . S
C46 H39 0.929 . S
C46 C47 1.400 . S
C46 C48 1.364 . S
C47 C46 1.400 . S
C47 C51 1.377 . S
C48 C46 1.364 . S
C48 C49 1.374 . S
C49 H40 0.930 . S
C49 C48 1.374 . S
C49 C50 1.383 . S
C50 O44 1.412 . S
C50 C49 1.383 . S
C50 C51 1.394 . S
C51 H41 0.929 . S
C51 C47 1.377 . S
C51 C50 1.394 . S
O52 Zn53 1.953 1_565 S
O52 C68 1.225 . S
Zn53 O52 1.953 1_545 S
Zn53 O54 1.949 1_655 S
Zn53 O60 1.919 . S
Zn53 O65 1.924 . S
O54 Zn53 1.949 1_455 S
O54 Zn55 1.923 . S
O54 Zn56 1.950 1_545 S
O54 Zn57 1.945 . S
Zn55 O54 1.923 . S
Zn55 O58 1.933 . S
Zn55 O61 1.941 . S
Zn55 O62 1.965 1_545 S
Zn56 O54 1.950 1_565 S
Zn56 O63 1.938 . S
Zn56 O64 1.906 . S
Zn56 O74 1.953 1_455 S
Zn57 O54 1.945 . S
Zn57 O59 1.932 . S
Zn57 O66 1.977 1_545 S
Zn57 O67 1.910 1_455 S
O58 Zn55 1.933 . S
O58 C69 1.226 . S
O59 Zn57 1.932 . S
O59 C69 1.307 . S
O60 Zn53 1.919 . S
O60 C71 1.253 . S
O61 Zn55 1.941 . S
O61 C71 1.283 1_455 S
O62 Zn55 1.965 1_565 S
O62 C70 1.303 . S
O63 Zn56 1.938 . S
O63 C70 1.247 . S
O64 Zn56 1.906 . S
O64 C72 1.304 . S
O65 Zn53 1.924 . S
O65 C73 1.311 . S
O66 Zn57 1.977 1_565 S
O66 C72 1.272 . S
O67 Zn57 1.910 1_655 S
O67 C73 1.231 . S
C68 O52 1.225 . S
C68 O74 1.298 . S
C69 O58 1.226 . S
C69 O59 1.307 . S
C70 O62 1.303 . S
C70 O63 1.247 . S
C71 O60 1.253 . S
C71 O61 1.283 1_655 S
C72 O64 1.304 . S
C72 O66 1.272 . S
C73 O65 1.311 . S
C73 O67 1.231 . S
O74 Zn56 1.953 1_655 S
O74 C68 1.298 . S
O75 Zn76 1.953 . S
O75 C91 1.225 1_556 S
Zn76 O75 1.953 . S
Zn76 O77 1.949 1_556 S
Zn76 O83 1.919 . S
Zn76 O88 1.924 1_556 S
O77 Zn76 1.949 1_554 S
O77 Zn78 1.923 1_554 S
O77 Zn79 1.950 . S
O77 Zn80 1.945 . S
Zn78 O77 1.923 1_556 S
Zn78 O81 1.933 . S
Zn78 O84 1.941 . S
Zn78 O85 1.965 . S
Zn79 O77 1.950 . S
Zn79 O86 1.938 1_554 S
Zn79 O87 1.906 . S
Zn79 O97 1.953 . S
Zn80 O77 1.945 . S
Zn80 O82 1.932 . S
Zn80 O89 1.977 . S
Zn80 O90 1.910 . S
O81 Zn78 1.933 . S
O81 C92 1.226 1_556 S
O82 Zn80 1.932 . S
O82 C92 1.307 . S
O83 Zn76 1.919 . S
O83 C94 1.253 . S
O84 Zn78 1.941 . S
O84 C94 1.283 . S
O85 Zn78 1.965 . S
O85 C93 1.303 . S
O86 Zn79 1.938 1_556 S
O86 C93 1.247 . S
O87 Zn79 1.906 . S
O87 C95 1.304 . S
O88 Zn76 1.924 1_554 S
O88 C96 1.311 . S
O89 Zn80 1.977 . S
O89 C95 1.272 . S
O90 Zn80 1.910 . S
O90 C96 1.231 . S
C91 O75 1.225 1_554 S
C91 O97 1.298 . S
C92 O81 1.226 1_554 S
C92 O82 1.307 . S
C93 O85 1.303 . S
C93 O86 1.247 . S
C94 O83 1.253 . S
C94 O84 1.283 . S
C95 O87 1.304 . S
C95 O89 1.272 . S
C96 O88 1.311 . S
C96 O90 1.231 . S
O97 Zn79 1.953 . S
O97 C91 1.298 . S
C98 C99 1.391 . S
C98 C100 1.394 . S
C98 H114 0.931 . S
C99 C98 1.391 . S
C99 C103 1.376 . S
C100 C98 1.394 . S
C100 C101 1.369 . S
C100 C104 1.531 . S
C101 C100 1.369 . S
C101 C102 1.410 . S
C101 C109 1.503 . S
C102 C101 1.410 . S
C102 C103 1.392 . S
C102 C105 1.511 . S
C103 C99 1.376 . S
C103 C102 1.392 . S
C103 H115 0.929 . S
C104 C100 1.531 . S
C104 H116 0.960 . S
C104 H117 0.962 . S
C104 H118 0.960 . S
C105 C102 1.511 . S
C105 H119 0.961 . S
C105 H120 0.961 . S
C105 H121 0.961 . S
C106 C107 1.370 . S
C106 C108 1.363 . S
C106 H122 0.931 . S
C107 C106 1.370 . S
C107 C111 1.408 . S
C108 C106 1.363 . S
C108 C109 1.370 . S
C108 C112 1.524 . S
C109 C101 1.503 . S
C109 C108 1.370 . S
C109 C110 1.403 . S
C110 C109 1.403 . S
C110 C111 1.404 . S
C110 C113 1.539 . S
C111 C107 1.408 . S
C111 C110 1.404 . S
C111 H123 0.930 . S
C112 C108 1.524 . S
C112 H124 0.956 . S
C112 H125 0.961 . S
C112 H126 0.961 . S
C113 C110 1.539 . S
C113 H127 0.958 . S
C113 H128 0.961 . S
C113 H129 0.960 . S
H114 C98 0.931 . S
H115 C103 0.929 . S
H116 C104 0.960 . S
H117 C104 0.962 . S
H118 C104 0.960 . S
H119 C105 0.961 . S
H120 C105 0.961 . S
H121 C105 0.961 . S
H122 C106 0.931 . S
H123 C111 0.930 . S
H124 C112 0.956 . S
H125 C112 0.961 . S
H126 C112 0.961 . S
H127 C113 0.958 . S
H128 C113 0.961 . S
H129 C113 0.960 . S
C130 C131 1.391 . S
C130 C132 1.394 . S
C130 H146 0.931 . S
C131 C130 1.391 . S
C131 C135 1.376 . S
C132 C130 1.394 . S
C132 C133 1.369 . S
C132 C136 1.531 . S
C133 C132 1.369 . S
C133 C134 1.410 . S
C133 C141 1.503 . S
C134 C133 1.410 . S
C134 C135 1.392 . S
C134 C137 1.511 . S
C135 C131 1.376 . S
C135 C134 1.392 . S
C135 H147 0.929 . S
C136 C132 1.531 . S
C136 H148 0.960 . S
C136 H149 0.962 1_554 S
C136 H150 0.960 . S
C137 C134 1.511 . S
C137 H151 0.961 . S
C137 H152 0.961 . S
C137 H153 0.961 . S
C138 C139 1.370 1_556 S
C138 C140 1.363 . S
C138 H154 0.931 . S
C139 C138 1.370 1_554 S
C139 C143 1.408 . S
C140 C138 1.363 . S
C140 C141 1.370 1_556 S
C140 C144 1.524 . S
C141 C133 1.503 . S
C141 C140 1.370 1_554 S
C141 C142 1.403 . S
C142 C141 1.403 . S
C142 C143 1.404 . S
C142 C145 1.539 . S
C143 C139 1.408 . S
C143 C142 1.404 . S
C143 H155 0.930 . S
C144 C140 1.524 . S
C144 H156 0.956 . S
C144 H157 0.961 . S
C144 H158 0.961 . S
C145 C142 1.539 . S
C145 H159 0.958 . S
C145 H160 0.961 . S
C145 H161 0.960 . S
H146 C130 0.931 . S
H147 C135 0.929 . S
H148 C136 0.960 . S
H149 C136 0.962 1_556 S
H150 C136 0.960 . S
H151 C137 0.961 . S
H152 C137 0.961 . S
H153 C137 0.961 . S
H154 C138 0.931 . S
H155 C143 0.930 . S
H156 C144 0.956 . S
H157 C144 0.961 . S
H158 C144 0.961 . S
H159 C145 0.958 . S
H160 C145 0.961 . S
H161 C145 0.960 . S
C162 C163 1.391 . S
C162 C164 1.394 . S
C162 H178 0.931 . S
C163 C162 1.391 . S
C163 C167 1.376 . S
C164 C162 1.394 . S
C164 C165 1.369 . S
C164 C168 1.531 . S
C165 C164 1.369 . S
C165 C166 1.410 . S
C165 C173 1.503 . S
C166 C165 1.410 . S
C166 C167 1.392 . S
C166 C169 1.511 . S
C167 C163 1.376 . S
C167 C166 1.392 . S
C167 H179 0.929 . S
C168 C164 1.531 . S
C168 H180 0.960 . S
C168 H181 0.962 . S
C168 H182 0.960 . S
C169 C166 1.511 . S
C169 H183 0.961 . S
C169 H184 0.961 . S
C169 H185 0.961 . S
C170 C171 1.370 . S
C170 C172 1.363 . S
C170 H186 0.931 . S
C171 C170 1.370 . S
C171 C175 1.408 . S
C172 C170 1.363 . S
C172 C173 1.370 . S
C172 C176 1.524 . S
C173 C165 1.503 . S
C173 C172 1.370 . S
C173 C174 1.403 . S
C174 C173 1.403 . S
C174 C175 1.404 . S
C174 C177 1.539 . S
C175 C171 1.408 . S
C175 C174 1.404 . S
C175 H187 0.930 . S
C176 C172 1.524 . S
C176 H188 0.956 . S
C176 H189 0.961 . S
C176 H190 0.961 . S
C177 C174 1.539 . S
C177 H191 0.958 . S
C177 H192 0.961 . S
C177 H193 0.960 . S
H178 C162 0.931 . S
H179 C167 0.929 . S
H180 C168 0.960 . S
H181 C168 0.962 . S
H182 C168 0.960 . S
H183 C169 0.961 . S
H184 C169 0.961 . S
H185 C169 0.961 . S
H186 C170 0.931 . S
H187 C175 0.930 . S
H188 C176 0.956 . S
H189 C176 0.961 . S
H190 C176 0.961 . S
H191 C177 0.958 . S
H192 C177 0.961 . S
H193 C177 0.960 . S
C194 C195 1.391 . S
C194 C196 1.394 . S
C194 H210 0.931 . S
C195 C194 1.391 . S
C195 C199 1.376 . S
C196 C194 1.394 . S
C196 C197 1.369 . S
C196 C200 1.531 . S
C197 C196 1.369 . S
C197 C198 1.410 . S
C197 C205 1.503 . S
C198 C197 1.410 . S
C198 C199 1.392 . S
C198 C201 1.511 . S
C199 C195 1.376 . S
C199 C198 1.392 . S
C199 H211 0.929 . S
C200 C196 1.531 . S
C200 H212 0.960 . S
C200 H213 0.962 1_554 S
C200 H214 0.960 . S
C201 C198 1.511 . S
C201 H215 0.968 . S
C201 H216 0.961 . S
C201 H217 0.961 . S
C202 C203 1.370 1_556 S
C202 C204 1.363 . S
C202 H218 0.931 . S
C203 C202 1.370 1_554 S
C203 C207 1.408 . S
C204 C202 1.363 . S
C204 C205 1.370 1_556 S
C204 C208 1.524 . S
C205 C197 1.503 . S
C205 C204 1.370 1_554 S
C205 C206 1.403 . S
C206 C205 1.403 . S
C206 C207 1.404 . S
C206 C209 1.539 . S
C207 C203 1.408 . S
C207 C206 1.404 . S
C207 H219 0.930 . S
C208 C204 1.524 . S
C208 H220 0.956 . S
C208 H221 0.961 . S
C208 H222 0.961 . S
C209 C206 1.539 . S
C209 H223 0.958 . S
C209 H224 0.961 . S
C209 H225 0.960 . S
H210 C194 0.931 . S
H211 C199 0.929 . S
H212 C200 0.960 . S
H213 C200 0.962 1_556 S
H214 C200 0.960 . S
H215 C201 0.968 . S
H216 C201 0.961 . S
H217 C201 0.961 . S
H218 C202 0.931 . S
H219 C207 0.930 . S
H220 C208 0.956 . S
H221 C208 0.961 . S
H222 C208 0.961 . S
H223 C209 0.958 . S
H224 C209 0.961 . S
H225 C209 0.960 . S
C226 C227 1.391 . S
C226 C228 1.394 . S
C226 H242 0.931 . S
C227 C226 1.391 . S
C227 C231 1.376 . S
C228 C226 1.394 . S
C228 C229 1.369 . S
C228 C232 1.531 . S
C229 C228 1.369 . S
C229 C230 1.410 . S
C229 C237 1.503 . S
C230 C229 1.410 . S
C230 C231 1.392 . S
C230 C233 1.511 . S
C231 C227 1.376 . S
C231 C230 1.392 . S
C231 H243 0.929 . S
C232 C228 1.531 . S
C232 H244 0.960 . S
C232 H245 0.962 . S
C232 H246 0.960 . S
C233 C230 1.511 . S
C233 H247 0.961 . S
C233 H248 0.961 . S
C233 H249 0.961 . S
C234 C235 1.370 . S
C234 C236 1.363 . S
C234 H250 0.931 . S
C235 C234 1.370 . S
C235 C239 1.408 . S
C236 C234 1.363 . S
C236 C237 1.370 . S
C236 C240 1.524 . S
C237 C229 1.503 . S
C237 C236 1.370 . S
C237 C238 1.403 . S
C238 C237 1.403 . S
C238 C239 1.404 . S
C238 C241 1.539 . S
C239 C235 1.408 . S
C239 C238 1.404 . S
C239 H251 0.930 . S
C240 C236 1.524 . S
C240 H252 0.956 . S
C240 H253 0.961 . S
C240 H254 0.961 . S
C241 C238 1.539 . S
C241 H255 0.958 . S
C241 H256 0.961 . S
C241 H257 0.960 . S
H242 C226 0.931 . S
H243 C231 0.929 . S
H244 C232 0.960 . S
H245 C232 0.962 . S
H246 C232 0.960 . S
H247 C233 0.961 . S
H248 C233 0.961 . S
H249 C233 0.961 . S
H250 C234 0.931 . S
H251 C239 0.930 . S
H252 C240 0.956 . S
H253 C240 0.961 . S
H254 C240 0.961 . S
H255 C241 0.958 . S
H256 C241 0.961 . S
H257 C241 0.960 . S
C258 C259 1.391 . S
C258 C260 1.394 . S
C258 H274 0.931 . S
C259 C258 1.391 . S
C259 C263 1.376 . S
C260 C258 1.394 . S
C260 C261 1.369 . S
C260 C264 1.531 . S
C261 C260 1.369 . S
C261 C262 1.410 . S
C261 C269 1.503 . S
C262 C261 1.410 . S
C262 C263 1.392 . S
C262 C265 1.511 . S
C263 C259 1.376 . S
C263 C262 1.392 . S
C263 H275 0.929 . S
C264 C260 1.531 . S
C264 H276 0.960 . S
C264 H277 0.962 . S
C264 H278 0.960 . S
C265 C262 1.511 . S
C265 H279 0.961 . S
C265 H280 0.961 . S
C265 H281 0.961 . S
C266 C267 1.370 . S
C266 C268 1.363 . S
C266 H282 0.931 . S
C267 C266 1.370 . S
C267 C271 1.408 . S
C268 C266 1.363 . S
C268 C269 1.370 . S
C268 C272 1.524 . S
C269 C261 1.503 . S
C269 C268 1.370 . S
C269 C270 1.403 . S
C270 C269 1.403 . S
C270 C271 1.404 . S
C270 C273 1.539 . S
C271 C267 1.408 . S
C271 C270 1.404 . S
C271 H283 0.930 . S
C272 C268 1.524 . S
C272 H284 0.956 . S
C272 H285 0.961 . S
C272 H286 0.961 . S
C273 C270 1.539 . S
C273 H287 0.958 . S
C273 H288 0.961 . S
C273 H289 0.960 . S
H274 C258 0.931 . S
H275 C263 0.929 . S
H276 C264 0.960 . S
H277 C264 0.962 . S
H278 C264 0.960 . S
H279 C265 0.961 . S
H280 C265 0.961 . S
H281 C265 0.961 . S
H282 C266 0.931 . S
H283 C271 0.930 . S
H284 C272 0.956 . S
H285 C272 0.961 . S
H286 C272 0.961 . S
H287 C273 0.958 . S
H288 C273 0.961 . S
H289 C273 0.960 . S
C290 C291 1.391 . S
C290 C292 1.394 . S
C290 H306 0.931 . S
C291 C290 1.391 . S
C291 C295 1.376 . S
C292 C290 1.394 . S
C292 C293 1.369 . S
C292 C296 1.531 . S
C293 C292 1.369 . S
C293 C294 1.410 . S
C293 C301 1.503 . S
C294 C293 1.410 . S
C294 C295 1.392 . S
C294 C297 1.511 . S
C295 C291 1.376 . S
C295 C294 1.392 . S
C295 H307 0.929 . S
C296 C292 1.531 . S
C296 H308 0.960 . S
C296 H309 0.962 . S
C296 H310 0.960 . S
C297 C294 1.511 . S
C297 H311 0.961 . S
C297 H312 0.961 . S
C297 H313 0.961 . S
C298 C299 1.370 . S
C298 C300 1.363 . S
C298 H314 0.931 . S
C299 C298 1.370 . S
C299 C303 1.408 . S
C300 C298 1.363 . S
C300 C301 1.370 . S
C300 C304 1.524 . S
C301 C293 1.503 . S
C301 C300 1.370 . S
C301 C302 1.403 . S
C302 C301 1.403 . S
C302 C303 1.404 . S
C302 C305 1.539 . S
C303 C299 1.408 . S
C303 C302 1.404 . S
C303 H315 0.930 . S
C304 C300 1.524 . S
C304 H316 0.956 . S
C304 H317 0.961 . S
C304 H318 0.961 . S
C305 C302 1.539 . S
C305 H319 0.958 . S
C305 H320 0.961 . S
C305 H321 0.960 . S
H306 C290 0.931 . S
H307 C295 0.929 . S
H308 C296 0.960 . S
H309 C296 0.962 . S
H310 C296 0.960 . S
H311 C297 0.961 . S
H312 C297 0.961 . S
H313 C297 0.961 . S
H314 C298 0.931 . S
H315 C303 0.930 . S
H316 C304 0.956 . S
H317 C304 0.961 . S
H318 C304 0.961 . S
H319 C305 0.958 . S
H320 C305 0.961 . S
H321 C305 0.960 . S
C322 C323 1.391 . S
C322 C324 1.394 . S
C322 H338 0.931 . S
C323 C322 1.391 . S
C323 C327 1.376 . S
C324 C322 1.394 . S
C324 C325 1.369 . S
C324 C328 1.531 . S
C325 C324 1.369 . S
C325 C326 1.410 . S
C325 C333 1.503 . S
C326 C325 1.410 . S
C326 C327 1.392 . S
C326 C329 1.511 . S
C327 C323 1.376 . S
C327 C326 1.392 . S
C327 H339 0.929 . S
C328 C324 1.531 . S
C328 H340 0.960 . S
C328 H341 0.962 . S
C328 H342 0.960 . S
C329 C326 1.511 . S
C329 H343 0.961 . S
C329 H344 0.961 . S
C329 H345 0.961 . S
C330 C331 1.370 . S
C330 C332 1.363 . S
C330 H346 0.931 . S
C331 C330 1.370 . S
C331 C335 1.408 . S
C332 C330 1.363 . S
C332 C333 1.370 . S
C332 C336 1.524 . S
C333 C325 1.503 . S
C333 C332 1.370 . S
C333 C334 1.403 . S
C334 C333 1.403 . S
C334 C335 1.404 . S
C334 C337 1.539 . S
C335 C331 1.408 . S
C335 C334 1.404 . S
C335 H347 0.930 . S
C336 C332 1.524 . S
C336 H348 0.956 . S
C336 H349 0.961 . S
C336 H350 0.961 . S
C337 C334 1.539 . S
C337 H351 0.958 . S
C337 H352 0.961 . S
C337 H353 0.960 . S
H338 C322 0.931 . S
H339 C327 0.929 . S
H340 C328 0.960 . S
H341 C328 0.962 . S
H342 C328 0.960 . S
H343 C329 0.961 . S
H344 C329 0.961 . S
H345 C329 0.961 . S
H346 C330 0.931 . S
H347 C335 0.930 . S
H348 C336 0.956 . S
H349 C336 0.961 . S
H350 C336 0.961 . S
H351 C337 0.958 . S
H352 C337 0.961 . S
H353 C337 0.960 . S
C354 C355 1.391 . S
C354 C356 1.394 . S
C354 H370 0.931 . S
C355 C354 1.391 . S
C355 C359 1.376 . S
C356 C354 1.394 . S
C356 C357 1.369 . S
C356 C360 1.531 . S
C357 C356 1.369 . S
C357 C358 1.410 . S
C357 C365 1.503 . S
C358 C357 1.410 . S
C358 C359 1.392 . S
C358 C361 1.511 . S
C359 C355 1.376 . S
C359 C358 1.392 . S
C359 H371 0.929 . S
C360 C356 1.531 . S
C360 H372 0.960 . S
C360 H373 0.962 . S
C360 H374 0.960 . S
C361 C358 1.511 . S
C361 H375 0.961 . S
C361 H376 0.961 . S
C361 H377 0.961 . S
C362 C363 1.370 . S
C362 C364 1.363 . S
C362 H378 0.931 . S
C363 C362 1.370 . S
C363 C367 1.408 . S
C364 C362 1.363 . S
C364 C365 1.370 . S
C364 C368 1.524 . S
C365 C357 1.503 . S
C365 C364 1.370 . S
C365 C366 1.403 . S
C366 C365 1.403 . S
C366 C367 1.404 . S
C366 C369 1.539 . S
C367 C363 1.408 . S
C367 C366 1.404 . S
C367 H379 0.930 . S
C368 C364 1.524 . S
C368 H380 0.956 . S
C368 H381 0.961 . S
C368 H382 0.961 . S
C369 C366 1.539 . S
C369 H383 0.958 . S
C369 H384 0.961 . S
C369 H385 0.960 . S
H370 C354 0.931 . S
H371 C359 0.929 . S
H372 C360 0.960 . S
H373 C360 0.962 . S
H374 C360 0.960 . S
H375 C361 0.961 . S
H376 C361 0.961 . S
H377 C361 0.961 . S
H378 C362 0.931 . S
H379 C367 0.930 . S
H380 C368 0.956 . S
H381 C368 0.961 . S
H382 C368 0.961 . S
H383 C369 0.958 . S
H384 C369 0.961 . S
H385 C369 0.960 . S
C386 C387 1.391 . S
C386 C388 1.394 . S
C386 H402 0.931 . S
C387 C386 1.391 . S
C387 C391 1.376 . S
C388 C386 1.394 . S
C388 C389 1.369 . S
C388 C392 1.531 . S
C389 C388 1.369 . S
C389 C390 1.410 . S
C389 C397 1.503 . S
C390 C389 1.410 . S
C390 C391 1.392 . S
C390 C393 1.511 . S
C391 C387 1.376 . S
C391 C390 1.392 . S
C391 H403 0.929 . S
C392 C388 1.531 . S
C392 H404 0.960 . S
C392 H405 0.962 . S
C392 H406 0.960 . S
C393 C390 1.511 . S
C393 H407 0.961 . S
C393 H408 0.961 . S
C393 H409 0.961 . S
C394 C395 1.370 . S
C394 C396 1.363 . S
C394 H410 0.931 . S
C395 C394 1.370 . S
C395 C399 1.408 . S
C396 C394 1.363 . S
C396 C397 1.370 . S
C396 C400 1.524 . S
C397 C389 1.503 . S
C397 C396 1.370 . S
C397 C398 1.403 . S
C398 C397 1.403 . S
C398 C399 1.404 . S
C398 C401 1.539 . S
C399 C395 1.408 . S
C399 C398 1.404 . S
C399 H411 0.930 . S
C400 C396 1.524 . S
C400 H412 0.956 . S
C400 H413 0.961 . S
C400 H414 0.961 . S
C401 C398 1.539 . S
C401 H415 0.958 . S
C401 H416 0.961 . S
C401 H417 0.960 . S
H402 C386 0.931 . S
H403 C391 0.929 . S
H404 C392 0.960 . S
H405 C392 0.962 . S
H406 C392 0.960 . S
H407 C393 0.961 . S
H408 C393 0.961 . S
H409 C393 0.961 . S
H410 C394 0.931 . S
H411 C399 0.930 . S
H412 C400 0.956 . S
H413 C400 0.961 . S
H414 C400 0.961 . S
H415 C401 0.958 . S
H416 C401 0.961 . S
H417 C401 0.960 . S
C418 C419 1.391 . S
C418 C420 1.394 . S
C418 H434 0.931 . S
C419 C418 1.391 . S
C419 C423 1.376 . S
C420 C418 1.394 . S
C420 C421 1.369 . S
C420 C424 1.531 . S
C421 C420 1.369 . S
C421 C422 1.410 . S
C421 C429 1.503 . S
C422 C421 1.410 . S
C422 C423 1.392 . S
C422 C425 1.511 . S
C423 C419 1.376 . S
C423 C422 1.392 . S
C423 H435 0.929 . S
C424 C420 1.531 . S
C424 H436 0.960 . S
C424 H437 0.962 . S
C424 H438 0.960 . S
C425 C422 1.511 . S
C425 H439 0.961 . S
C425 H440 0.961 . S
C425 H441 0.961 . S
C426 C427 1.370 . S
C426 C428 1.363 . S
C426 H442 0.931 . S
C427 C426 1.370 . S
C427 C431 1.408 . S
C428 C426 1.363 . S
C428 C429 1.370 . S
C428 C432 1.524 . S
C429 C421 1.503 . S
C429 C428 1.370 . S
C429 C430 1.403 . S
C430 C429 1.403 . S
C430 C431 1.404 . S
C430 C433 1.539 . S
C431 C427 1.408 . S
C431 C430 1.404 . S
C431 H443 0.930 . S
C432 C428 1.524 . S
C432 H444 0.956 . S
C432 H445 0.961 . S
C432 H446 0.961 . S
C433 C430 1.539 . S
C433 H447 0.958 . S
C433 H448 0.961 . S
C433 H449 0.960 . S
H434 C418 0.931 . S
H435 C423 0.929 . S
H436 C424 0.960 . S
H437 C424 0.962 . S
H438 C424 0.960 . S
H439 C425 0.961 . S
H440 C425 0.961 . S
H441 C425 0.961 . S
H442 C426 0.931 . S
H443 C431 0.930 . S
H444 C432 0.956 . S
H445 C432 0.961 . S
H446 C432 0.961 . S
H447 C433 0.958 . S
H448 C433 0.961 . S
H449 C433 0.960 . S
C450 C451 1.391 . S
C450 C452 1.394 . S
C450 H466 0.931 . S
C451 C450 1.391 . S
C451 C455 1.376 . S
C452 C450 1.394 . S
C452 C453 1.369 . S
C452 C456 1.531 . S
C453 C452 1.369 . S
C453 C454 1.410 . S
C453 C461 1.503 . S
C454 C453 1.410 . S
C454 C455 1.392 . S
C454 C457 1.511 . S
C455 C451 1.376 . S
C455 C454 1.392 . S
C455 H467 0.929 . S
C456 C452 1.531 . S
C456 H468 0.960 . S
C456 H469 0.962 . S
C456 H470 0.960 . S
C457 C454 1.511 . S
C457 H471 0.961 . S
C457 H472 0.961 . S
C457 H473 0.961 . S
C458 C459 1.370 . S
C458 C460 1.363 . S
C458 H474 0.931 . S
C459 C458 1.370 . S
C459 C463 1.408 . S
C460 C458 1.363 . S
C460 C461 1.370 . S
C460 C464 1.524 . S
C461 C453 1.503 . S
C461 C460 1.370 . S
C461 C462 1.403 . S
C462 C461 1.403 . S
C462 C463 1.404 . S
C462 C465 1.539 . S
C463 C459 1.408 . S
C463 C462 1.404 . S
C463 H475 0.930 . S
C464 C460 1.524 . S
C464 H476 0.956 . S
C464 H477 0.961 . S
C464 H478 0.961 . S
C465 C462 1.539 . S
C465 H479 0.958 . S
C465 H480 0.961 . S
C465 H481 0.960 . S
H466 C450 0.931 . S
H467 C455 0.929 . S
H468 C456 0.960 . S
H469 C456 0.962 . S
H470 C456 0.960 . S
H471 C457 0.961 . S
H472 C457 0.961 . S
H473 C457 0.961 . S
H474 C458 0.931 . S
H475 C463 0.930 . S
H476 C464 0.956 . S
H477 C464 0.961 . S
H478 C464 0.961 . S
H479 C465 0.958 . S
H480 C465 0.961 . S
H481 C465 0.960 . S
C107 C69 1.484 . S
C99 C43 1.397 . S
C131 C4 1.417 . S
C139 C92 1.488 . S
C163 C17 1.498 . S
C171 C68 1.520 . S
C195 C30 1.488 1_554 S
C203 C91 1.518 . S
C235 C72 1.422 . S
C227 C9 1.431 . S
C267 C94 1.458 . S
C259 C21 1.500 . S
C291 C34 1.477 . S
C299 C73 1.437 . S
C323 C48 1.505 . S
C331 C93 1.468 . S
C363 C96 1.434 . S
C355 C22 1.479 . S
C395 C71 1.458 . S
C387 C35 1.498 . S
C427 C95 1.424 . S
C419 C47 1.465 . S
C451 C8 1.491 . S
C459 C70 1.468 . S
