# Generated by pormake.
# Topology pts, (4,4)-cn, num edge types: 1
# Building blocks:
#     Node 0, Type 0, BuildingBlock: MUDLON_clean_linker_0, # of connection points: 4
#     Node 1, Type 0, BuildingBlock: MUDLON_clean_linker_0, # of connection points: 4
#     Node 2, Type 1, BuildingBlock: UXUYUI_clean_sbu_0, # of connection points: 4
#     Node 3, Type 1, BuildingBlock: UXUYUI_clean_sbu_0, # of connection points: 4
#     Edge 4, Type (0, 1), BuildingBlock: KIFKEQ_clean_linker_1, # of connection points: 2
#     Edge 5, Type (0, 1), BuildingBlock: KIFKEQ_clean_linker_1, # of connection points: 2
#     Edge 6, Type (0, 1), BuildingBlock: KIFKEQ_clean_linker_1, # of connection points: 2
#     Edge 7, Type (0, 1), BuildingBlock: KIFKEQ_clean_linker_1, # of connection points: 2
#     Edge 8, Type (0, 1), BuildingBlock: KIFKEQ_clean_linker_1, # of connection points: 2
#     Edge 9, Type (0, 1), BuildingBlock: KIFKEQ_clean_linker_1, # of connection points: 2
#     Edge 10, Type (0, 1), BuildingBlock: KIFKEQ_clean_linker_1, # of connection points: 2
#     Edge 11, Type (0, 1), BuildingBlock: KIFKEQ_clean_linker_1, # of connection points: 2
# Relax obj value: 0.012
# Max RMSD: 0.056
# Mean RMSD: 0.052
data_MOF--net-pts--node1-UXUYUI_clean_sbu_0--node2-MUDLON_clean_linker_0--edge1-KIFKEQ_clean_linker_1
_symmetry_space_group_name_H-M    P1
_symmetry_Int_Tables_number       1
_symmetry_cell_setting            triclinic
loop_
_symmetry_equiv_pos_as_xyz
'x, y, z'
_cell_length_a     40.759304
_cell_length_b     40.734576
_cell_length_c     52.667486
_cell_angle_alpha  90.018737
_cell_angle_beta   89.985943
_cell_angle_gamma 90.03362
loop_
_atom_site_label
_atom_site_type_symbol
_atom_site_fract_x
_atom_site_fract_y
_atom_site_fract_z
_atom_type_partial_charge
H0 H 0.64884 0.08441 0.03702 0.0
N1 N 0.62841 0.04287 0.00159 0.0
H2 H 0.68619 0.07274 0.07226 0.0
H3 H 0.6475 0.9818 0.01726 0.0
H4 H 0.68447 0.96976 0.05255 0.0
H5 H 0.62914 0.9865 0.97348 0.0
H6 H 0.66501 0.97519 0.93708 0.0
H7 H 0.66729 0.08492 0.9779 0.0
H8 H 0.70326 0.07401 0.94175 0.0
H9 H 0.5883 0.09118 0.98927 0.0
H10 H 0.5893 0.98985 0.01251 0.0
H11 H 0.52845 0.09077 0.98909 0.0
H12 H 0.52921 0.98942 0.01352 0.0
H13 H 0.34154 0.08967 0.02464 0.0
H14 H 0.30551 0.07905 0.06072 0.0
H15 H 0.34824 0.98247 0.06896 0.0
H16 H 0.38358 0.99324 0.03219 0.0
H17 H 0.35724 0.9894 0.98848 0.0
H18 H 0.31958 0.98024 0.95314 0.0
H19 H 0.33356 0.08076 0.92905 0.0
H20 H 0.37005 0.08994 0.96524 0.0
H21 H 0.42525 0.09349 0.01833 0.0
H22 H 0.48501 0.09026 0.01874 0.0
H23 H 0.47974 0.99174 0.98837 0.0
N24 N 0.38305 0.04853 0.00279 0.0
H25 H 0.41966 0.99488 0.98917 0.0
C26 C 0.64547 0.03413 0.02453 0.0
C27 C 0.65595 0.05926 0.04075 0.0
C28 C 0.67722 0.0525 0.06087 0.0
C29 C 0.68852 0.02034 0.06507 0.0
C30 C 0.67656 0.99485 0.04958 0.0
C31 C 0.65519 1.00167 0.0295 0.0
C32 C 0.64575 0.0366 0.97833 0.0
C33 C 0.64495 0.00577 0.96639 0.0
C34 C 0.66555 0.99933 0.94569 0.0
C35 C 0.68706 0.02368 0.93654 0.0
C36 C 0.68671 0.05485 0.94803 0.0
C37 C 0.66629 0.06115 0.96871 0.0
C38 C 0.59319 0.04085 0.00121 0.0
C39 C 0.57546 0.06889 0.99448 0.0
C40 C 0.54126 0.06861 0.99461 0.0
C41 C 0.52387 0.04021 0.00174 0.0
C42 C 0.54174 0.0117 0.00787 0.0
C43 C 0.57615 0.01196 0.0075 0.0
C44 C 0.36519 0.04241 0.02587 0.0
C45 C 0.3434 0.06644 0.03453 0.0
C46 C 0.32297 0.06032 0.05524 0.0
C47 C 0.32398 0.02989 0.06786 0.0
C48 C 0.34657 0.00603 0.05953 0.0
C49 C 0.36698 0.01221 0.03867 0.0
C50 C 0.36602 0.04059 0.97964 0.0
C51 C 0.35256 0.00929 0.97538 0.0
C52 C 0.33113 1.00406 0.95502 0.0
C53 C 0.32304 0.02993 0.93844 0.0
C54 C 0.33855 0.06051 0.94179 0.0
C55 C 0.35968 0.06576 0.96226 0.0
C56 C 0.41813 0.04474 0.00343 0.0
C57 C 0.43708 0.07118 0.0119 0.0
C58 C 0.47123 0.06932 0.01189 0.0
C59 C 0.48734 0.04094 0.00313 0.0
C60 C 0.46821 0.01394 0.99529 0.0
C61 C 0.43384 0.01576 0.99555 0.0
H62 H 0.97877 0.62474 0.53386 0.0
N63 N 0.02946 0.61725 0.50003 0.0
H64 H 0.97644 0.66508 0.56838 0.0
H65 H 0.07819 0.65383 0.51741 0.0
H66 H 0.07609 0.69414 0.55185 0.0
H67 H 0.06751 0.62808 0.45996 0.0
H68 H 0.05771 0.66673 0.42522 0.0
H69 H 0.97164 0.64923 0.49034 0.0
H70 H 0.96113 0.68683 0.45537 0.0
H71 H 0.96769 0.59195 0.49167 0.0
H72 H 0.06667 0.5665 0.51258 0.0
H73 H 0.95216 0.53437 0.49283 0.0
H74 H 0.05098 0.50864 0.51508 0.0
H75 H 0.91701 0.34227 0.52482 0.0
H76 H 0.92403 0.30506 0.56073 0.0
H77 H 0.0232 0.34051 0.57077 0.0
H78 H 0.01617 0.37688 0.53429 0.0
H79 H 0.01773 0.34581 0.49226 0.0
H80 H 0.025 0.30795 0.457 0.0
H81 H 0.92956 0.33501 0.42796 0.0
H82 H 0.92202 0.37211 0.46411 0.0
H83 H 0.9264 0.43128 0.51881 0.0
H84 H 0.94222 0.48918 0.51977 0.0
H85 H 0.03722 0.46353 0.48905 0.0
N86 N 0.96189 0.38044 0.50354 0.0
H87 H 0.02172 0.40585 0.48938 0.0
C88 C 0.02881 0.6363 0.52309 0.0
C89 C 1.00035 0.63923 0.53805 0.0
C90 C 0.99903 0.66229 0.55776 0.0
C91 C 0.02597 0.68297 0.56258 0.0
C92 C 0.05483 0.67883 0.54835 0.0
C93 C 0.05619 0.65568 0.52886 0.0
C94 C 0.02043 0.63558 0.47767 0.0
C95 C 0.04399 0.64033 0.45868 0.0
C96 C 0.03828 0.66238 0.43883 0.0
C97 C 0.00871 0.68014 0.43761 0.0
C98 C 0.98439 0.674 0.45596 0.0
C99 C 0.99022 0.65211 0.47585 0.0
C100 C 0.01866 0.58359 0.50169 0.0
C101 C 0.98613 0.57407 0.49665 0.0
C102 C 0.97715 0.54094 0.49759 0.0
C103 C 1.00032 0.51664 0.50393 0.0
C104 C 0.03261 0.52646 0.50959 0.0
C105 C 0.04161 0.55954 0.50839 0.0
C106 C 0.96585 0.36241 0.52691 0.0
C107 C 0.94003 0.34237 0.5351 0.0
C108 C 0.94411 0.32121 0.5557 0.0
C109 C 0.97424 0.3197 0.56868 0.0
C110 C 0.99982 0.34073 0.56101 0.0
C111 C 0.99573 0.36182 0.54028 0.0
C112 C 0.96904 0.36162 0.48098 0.0
C113 C 0.99849 0.34396 0.47821 0.0
C114 C 1.00272 0.32238 0.45784 0.0
C115 C 0.97773 0.31812 0.4397 0.0
C116 C 0.94905 0.33716 0.44183 0.0
C117 C 0.94478 0.3586 0.46231 0.0
C118 C 0.97255 0.41423 0.50379 0.0
C119 C 0.95065 0.43828 0.51237 0.0
C120 C 0.9597 0.47137 0.51272 0.0
C121 C 0.99097 0.48122 0.5043 0.0
C122 C 0.01309 0.45694 0.49596 0.0
C123 C 1.0041 0.42379 0.49587 0.0
Li124 Li 0.00683 0.0306 0.26924 0.0
Li125 Li 1.00438 0.9703 0.26954 0.0
Li126 Li 0.03714 1.00155 0.23684 0.0
Li127 Li 0.9768 1.00014 0.23455 0.0
C128 C 0.06082 0.01197 0.29401 0.0
N129 N 0.0947 0.03919 0.33427 0.0
C130 C 0.05883 0.99777 0.31811 0.0
C131 C 0.08038 0.03975 0.2903 0.0
C132 C 0.07607 0.01196 0.33824 0.0
C133 C 0.09721 0.05324 0.31093 0.0
C134 C 0.94045 0.99087 0.28447 0.0
C135 C 0.89216 0.95672 0.2867 0.0
N136 N 0.88578 0.96857 0.31033 0.0
C137 C 0.93315 1.00304 0.30864 0.0
C138 C 0.91959 0.96779 0.27329 0.0
C139 C 0.90552 0.99133 0.32146 0.0
C140 C 0.00446 0.09888 0.2794 0.0
N141 N 0.00548 0.06869 0.29036 0.0
C142 C 1.00273 0.09262 0.33175 0.0
C143 C 0.0046 0.06512 0.316 0.0
C144 C 1.00134 0.12419 0.32101 0.0
C145 C 1.00242 0.1271 0.29443 0.0
H146 H 0.00471 0.10106 0.25895 0.0
H147 H 0.00512 0.04084 0.32426 0.0
C148 C 0.01705 0.90389 0.28094 0.0
N149 N 1.00305 0.93177 0.2901 0.0
C150 C 0.01632 0.87498 0.29518 0.0
C151 C 0.98761 0.90421 0.32835 0.0
C152 C 0.98885 0.93253 0.31344 0.0
C153 C 1.00135 0.87484 0.31922 0.0
H154 H 0.02872 0.90408 0.26251 0.0
H155 H 0.97892 0.95522 0.3207 0.0
C156 C 0.0199 0.05708 0.21298 0.0
N157 N 0.04832 0.0926 0.17407 0.0
C158 C 0.00637 0.05619 0.18861 0.0
C159 C 0.04762 0.07637 0.21765 0.0
C160 C 0.02116 0.07425 0.16917 0.0
C161 C 0.06172 0.09404 0.1977 0.0
C162 C 0.99782 0.9367 0.21802 0.0
C163 C 0.01225 0.93031 0.19445 0.0
C164 C 0.97322 0.91587 0.22711 0.0
C165 C 1.00133 0.90359 0.18013 0.0
C166 C 0.96299 0.88938 0.21224 0.0
N167 N 0.9771 0.88386 0.18923 0.0
C168 C 0.10583 0.99915 0.22873 0.0
C169 C 0.07406 1.0025 0.19118 0.0
C170 C 0.13483 0.99921 0.21457 0.0
N171 N 0.07626 1.00104 0.2169 0.0
C172 C 0.10238 1.00292 0.17629 0.0
C173 C 0.1334 1.00131 0.18793 0.0
H174 H 0.10692 0.99748 0.24919 0.0
H175 H 0.05026 1.00355 0.18219 0.0
C176 C 0.91206 0.01678 0.22114 0.0
N177 N 0.93929 1.00076 0.21285 0.0
C178 C 0.88383 0.01781 0.20612 0.0
C179 C 0.91236 0.98633 0.17412 0.0
C180 C 0.94004 0.98601 0.18971 0.0
C181 C 0.88368 1.00237 0.18225 0.0
H182 H 0.91231 0.02883 0.23944 0.0
H183 H 0.96218 0.97422 0.1832 0.0
O184 O 0.04383 0.99864 0.27413 0.0
O185 O 0.96743 1.00215 0.27166 0.0
O186 O 0.00597 0.03928 0.23218 0.0
O187 O 0.00823 0.96284 0.23225 0.0
H188 H 0.04398 0.97615 0.32127 0.0
H189 H 0.08241 0.05087 0.27174 0.0
H190 H 0.07461 1.00134 0.35703 0.0
H191 H 0.11226 0.07487 0.30837 0.0
H192 H 0.87586 0.93881 0.27826 0.0
H193 H 0.94875 0.02121 0.31749 0.0
H194 H 0.9242 0.95884 0.25433 0.0
H195 H 0.89973 1.00038 0.34025 0.0
H196 H 1.00241 0.08913 0.35213 0.0
H197 H 1.0009 0.15084 0.28527 0.0
H198 H 0.0271 0.85291 0.28731 0.0
H199 H 0.97654 0.90549 0.34701 0.0
H200 H 0.98482 0.04155 0.1847 0.0
H201 H 0.05823 0.07755 0.23643 0.0
H202 H 0.01106 0.07364 0.15018 0.0
H203 H 0.08332 0.10889 0.201 0.0
H204 H 0.03157 0.9459 0.18722 0.0
H205 H 0.96246 0.91978 0.24559 0.0
H206 H 0.01214 0.89851 0.16178 0.0
H207 H 0.94394 0.87311 0.21905 0.0
H208 H 0.15808 0.99734 0.22439 0.0
H209 H 0.09993 0.00503 0.15589 0.0
H210 H 0.86256 0.03102 0.21299 0.0
H211 H 0.91339 0.97392 0.15595 0.0
Li212 Li 0.97502 0.99905 0.76867 0.0
Li213 Li 0.03536 0.99855 0.76869 0.0
Li214 Li 1.00389 0.02988 0.73503 0.0
Li215 Li 0.00736 0.9694 0.73458 0.0
C216 C 0.99261 0.06036 0.7881 0.0
N217 N 0.96626 0.10759 0.81979 0.0
C218 C 0.0048 0.06439 0.81271 0.0
C219 C 0.96741 0.08074 0.77948 0.0
C220 C 0.99105 0.08829 0.82848 0.0
C221 C 0.95431 0.10437 0.79581 0.0
C222 C 0.01809 0.94007 0.78947 0.0
C223 C 0.05882 0.90029 0.80192 0.0
N224 N 0.04558 0.89937 0.82561 0.0
C225 C 0.00465 0.93845 0.81385 0.0
C226 C 0.04517 0.9206 0.78335 0.0
C227 C 0.01899 0.91782 0.83189 0.0
C228 C 0.90768 0.98826 0.77869 0.0
N229 N 0.93651 0.99795 0.78929 0.0
C230 C 0.91019 0.00658 0.82931 0.0
C231 C 0.93832 0.00657 0.81419 0.0
C232 C 0.87987 0.99735 0.81876 0.0
C233 C 0.87889 0.98793 0.7931 0.0
H234 H 0.907 0.98074 0.75902 0.0
H235 H 0.96165 0.01334 0.82237 0.0
C236 C 0.10324 1.00454 0.77931 0.0
N237 N 0.0733 0.99923 0.78994 0.0
C238 C 0.13129 0.00604 0.79452 0.0
C239 C 0.0972 0.99648 0.83132 0.0
C240 C 0.06984 0.99531 0.81542 0.0
C241 C 0.12849 1.00216 0.82096 0.0
H242 H 0.1053 0.00819 0.75906 0.0
H243 H 0.04573 0.99168 0.82348 0.0
C244 C 0.94375 0.00793 0.71506 0.0
N245 N 0.89573 0.02956 0.68202 0.0
C246 C 0.94097 0.99411 0.69086 0.0
C247 C 0.92172 0.03234 0.7226 0.0
C248 C 0.91664 0.00549 0.67439 0.0
C249 C 0.89772 0.04305 0.7056 0.0
C250 C 0.06464 0.99119 0.7131 0.0
C251 C 0.06548 0.00676 0.68946 0.0
C252 C 0.08537 0.96455 0.71775 0.0
C253 C 0.08664 0.99499 0.67068 0.0
C254 C 0.10616 0.95349 0.69847 0.0
N255 N 0.10633 0.96878 0.67552 0.0
C256 C 0.01263 0.09766 0.725 0.0
C257 C 0.992 0.06703 0.69025 0.0
C258 C 0.01089 0.12668 0.7109 0.0
N259 N 1.00272 0.0687 0.71466 0.0
C260 C 0.98957 0.09542 0.67556 0.0
C261 C 0.99881 0.12581 0.68593 0.0
H262 H 0.02164 0.09828 0.7443 0.0
H263 H 0.98548 0.04362 0.68209 0.0
C264 C 1.00261 0.90153 0.72364 0.0
N265 N 0.00842 0.93153 0.71323 0.0
C266 C 1.00384 0.87328 0.7086 0.0
C267 C 0.01673 0.90737 0.67238 0.0
C268 C 0.01481 0.93493 0.68804 0.0
C269 C 0.01136 0.87603 0.68267 0.0
H270 H 0.99708 0.89952 0.74366 0.0
H271 H 0.01831 0.95908 0.68003 0.0
O272 O 0.00571 0.03696 0.77244 0.0
O273 O 0.00456 0.96036 0.77162 0.0
O274 O 0.96761 0.99722 0.73135 0.0
O275 O 0.04388 1.00224 0.73164 0.0
H276 H 0.02454 0.04913 0.81962 0.0
H277 H 0.95827 0.07859 0.76031 0.0
H278 H 1.00009 0.09151 0.84763 0.0
H279 H 0.93472 0.12023 0.78938 0.0
H280 H 0.07989 0.88522 0.79747 0.0
H281 H 0.98352 0.95311 0.81885 0.0
H282 H 0.05549 0.92111 0.76446 0.0
H283 H 0.00898 0.9165 0.85089 0.0
H284 H 0.91211 0.0142 0.84895 0.0
H285 H 0.8562 0.98007 0.78431 0.0
H286 H 0.15477 0.01105 0.78572 0.0
H287 H 0.09383 0.99303 0.85154 0.0
H288 H 0.95755 0.97497 0.68478 0.0
H289 H 0.92291 0.04268 0.74145 0.0
H290 H 0.91438 0.99518 0.65554 0.0
H291 H 0.8806 0.06201 0.71117 0.0
H292 H 0.04985 0.02759 0.6856 0.0
H293 H 0.08544 0.95257 0.73604 0.0
H294 H 0.08739 0.00668 0.65225 0.0
H295 H 0.12219 0.93277 0.70177 0.0
H296 H 0.01827 0.14962 0.71959 0.0
H297 H 0.98083 0.09357 0.65619 0.0
H298 H 0.99956 0.84952 0.71721 0.0
H299 H 0.022 0.91055 0.65238 0.0
H300 H 0.29108 0.97237 0.07725 0.0
H301 H 0.30258 0.07138 0.10536 0.0
H302 H 0.24824 0.96252 0.10856 0.0
H303 H 0.25844 0.06223 0.13553 0.0
H304 H 0.19167 0.03198 0.19903 0.0
H305 H 0.24076 0.03525 0.17288 0.0
H306 H 0.19269 0.97792 0.11468 0.0
H307 H 0.14446 0.97285 0.14149 0.0
C308 C 0.28476 0.99194 0.09028 0.0
C309 C 0.30016 0.02277 0.0886 0.0
C310 C 0.25981 0.98644 0.10802 0.0
C311 C 0.2495 0.01168 0.12443 0.0
C312 C 0.26581 0.04209 0.12339 0.0
C313 C 0.29089 0.0475 0.1058 0.0
C314 C 0.19177 0.01949 0.18089 0.0
C315 C 0.16392 1.00229 0.17237 0.0
C316 C 0.21984 0.02173 0.16571 0.0
C317 C 0.22073 0.00705 0.14153 0.0
C318 C 0.19314 0.98925 0.13327 0.0
C319 C 0.16518 0.98679 0.14852 0.0
H320 H 0.02913 0.28261 0.57769 0.0
H321 H 0.93087 0.29994 0.60551 0.0
H322 H 0.0356 0.23805 0.60816 0.0
H323 H 0.93723 0.25486 0.63559 0.0
H324 H 0.94684 0.14481 0.65689 0.0
H325 H 0.94184 0.19402 0.6308 0.0
H326 H 0.03822 0.22531 0.65482 0.0
H327 H 0.04339 0.17571 0.68076 0.0
C328 C 0.00912 0.27738 0.5906 0.0
C329 C 0.97938 0.29479 0.58899 0.0
C330 C 0.01283 0.25174 0.60802 0.0
C331 C 0.98682 0.24279 0.6241 0.0
C332 C 0.95751 0.26087 0.62313 0.0
C333 C 0.95387 0.28665 0.60586 0.0
C334 C 0.96698 0.16216 0.65656 0.0
C335 C 0.99556 0.15634 0.67077 0.0
C336 C 0.96398 0.19051 0.64184 0.0
C337 C 0.98961 0.21357 0.64082 0.0
C338 C 0.01814 0.20788 0.65515 0.0
C339 C 0.02101 0.17964 0.67011 0.0
H340 H 0.69432 0.04527 0.11329 0.0
H341 H 0.74273 0.98177 0.05932 0.0
H342 H 0.74082 0.03951 0.14225 0.0
H343 H 0.78865 0.97533 0.08849 0.0
H344 H 0.8811 0.01015 0.13065 0.0
H345 H 0.83278 0.01179 0.10357 0.0
H346 H 0.77058 0.99928 0.16924 0.0
H347 H 0.81905 0.99714 0.19645 0.0
C348 C 0.71472 0.02983 0.10774 0.0
C349 C 0.71485 0.01405 0.08398 0.0
C350 C 0.74122 0.02632 0.12439 0.0
C351 C 0.76851 0.00715 0.11757 0.0
C352 C 0.76817 0.9906 0.09415 0.0
C353 C 0.74165 0.99397 0.07758 0.0
C354 C 0.85719 0.00728 0.13934 0.0
C355 C 0.85404 1.00339 0.16576 0.0
C356 C 0.82947 0.00825 0.12379 0.0
C357 C 0.79786 0.00551 0.13425 0.0
C358 C 0.7946 1.00176 0.16065 0.0
C359 C 0.82238 1.00062 0.17623 0.0
H360 H 1.00236 0.68145 0.61138 0.0
H361 H 0.04325 0.74656 0.55501 0.0
H362 H 0.9993 0.7271 0.64153 0.0
H363 H 0.0393 0.79221 0.58453 0.0
H364 H 0.05997 0.86091 0.64927 0.0
H365 H 0.0638 0.81328 0.62151 0.0
H366 H 0.97153 0.77719 0.65095 0.0
H367 H 0.96845 0.82451 0.67939 0.0
C368 C 0.01048 0.70558 0.60543 0.0
C369 C 0.02343 0.7104 0.581 0.0
C370 C 0.00862 0.73177 0.62263 0.0
C371 C 0.01934 0.76338 0.6156 0.0
C372 C 0.03165 0.76812 0.59092 0.0
C373 C 0.03383 0.74196 0.57392 0.0
C374 C 0.04053 0.84277 0.64977 0.0
C375 C 0.01383 0.84648 0.66635 0.0
C376 C 0.04261 0.8155 0.63379 0.0
C377 C 0.01779 0.79145 0.63373 0.0
C378 C 0.99129 0.79496 0.65066 0.0
C379 C 0.98943 0.82211 0.66689 0.0
H380 H 0.27586 0.07446 0.92543 0.0
H381 H 0.30946 0.97629 0.90831 0.0
H382 H 0.23056 0.06758 0.89606 0.0
H383 H 0.26285 0.96881 0.87973 0.0
H384 H 0.191 0.97933 0.81253 0.0
H385 H 0.23921 0.98636 0.83951 0.0
H386 H 0.17995 0.03779 0.89469 0.0
H387 H 0.13234 0.03219 0.86731 0.0
C388 C 0.27384 0.05148 0.91521 0.0
C389 C 0.29649 0.02597 0.91924 0.0
C390 C 0.24747 0.04735 0.89863 0.0
C391 C 0.2428 0.01751 0.88573 0.0
C392 C 0.2658 0.99218 0.88927 0.0
C393 C 0.29234 0.99635 0.90585 0.0
C394 C 0.18835 0.99239 0.83032 0.0
C395 C 0.15775 0.00523 0.83771 0.0
C396 C 0.21592 0.9961 0.84592 0.0
C397 C 0.21353 0.01278 0.86923 0.0
C398 C 0.18284 0.02526 0.87669 0.0
C399 C 0.15537 0.02162 0.86113 0.0
H400 H 0.03242 0.30016 0.41243 0.0
H401 H 0.92971 0.27696 0.42219 0.0
H402 H 0.03808 0.25404 0.38323 0.0
H403 H 0.93497 0.23214 0.39203 0.0
H404 H 0.96427 0.13083 0.36403 0.0
H405 H 0.95894 0.17866 0.39128 0.0
H406 H 0.02369 0.23317 0.34182 0.0
H407 H 0.03037 0.18462 0.31518 0.0
C408 C 0.01098 0.28543 0.4082 0.0
C409 C 0.98065 0.29224 0.41982 0.0
C410 C 0.01414 0.25919 0.39121 0.0
C411 C 0.98703 0.23917 0.3854 0.0
C412 C 0.9565 0.24667 0.39639 0.0
C413 C 0.95337 0.27276 0.41343 0.0
C414 C 0.97773 0.15285 0.3591 0.0
C415 C 0.99788 0.15375 0.33744 0.0
C416 C 0.97427 0.1805 0.37454 0.0
C417 C 0.99071 0.2099 0.36869 0.0
C418 C 0.01086 0.21087 0.34702 0.0
C419 C 0.01441 0.18313 0.33157 0.0
H420 H 0.72463 0.96847 0.9312 0.0
H421 H 0.70504 0.06245 0.89643 0.0
H422 H 0.76888 0.95898 0.90087 0.0
H423 H 0.75002 0.05353 0.86674 0.0
H424 H 0.81861 0.01834 0.80486 0.0
H425 H 0.76931 0.02107 0.83106 0.0
H426 H 0.8235 0.98148 0.89453 0.0
H427 H 0.87238 0.97757 0.8681 0.0
C428 C 0.72944 0.98689 0.91685 0.0
C429 C 0.71142 0.0163 0.91632 0.0
C430 C 0.75507 0.98163 0.89967 0.0
C431 C 0.76322 0.00563 0.88154 0.0
C432 C 0.74429 0.03443 0.88034 0.0
C433 C 0.7187 0.0397 0.89752 0.0
C434 C 0.81986 0.00972 0.82429 0.0
C435 C 0.8495 0.99786 0.83441 0.0
C436 C 0.79168 0.0116 0.83937 0.0
C437 C 0.79245 1.00158 0.86491 0.0
C438 C 0.82192 0.98907 0.87486 0.0
C439 C 0.85008 0.98723 0.8598 0.0
H440 H 0.98099 0.7405 0.44486 0.0
H441 H 0.02721 0.6805 0.3874 0.0
H442 H 0.97727 0.78571 0.4149 0.0
H443 H 0.02374 0.7261 0.35739 0.0
H444 H 0.05 0.82913 0.32538 0.0
H445 H 0.04936 0.78049 0.3523 0.0
H446 H 0.95034 0.80322 0.37562 0.0
H447 H 0.95087 0.8518 0.34857 0.0
C448 C 0.9898 0.73669 0.42568 0.0
C449 C 1.00436 0.70677 0.41855 0.0
C450 C 0.98773 0.7627 0.4085 0.0
C451 C 1.00026 0.75954 0.38377 0.0
C452 C 0.01426 0.72945 0.37643 0.0
C453 C 0.01624 0.70333 0.39362 0.0
C454 C 0.0279 0.82352 0.33594 0.0
C455 C 1.00053 0.84448 0.33489 0.0
C456 C 0.02754 0.7956 0.35137 0.0
C457 C 0.99983 0.78802 0.36615 0.0
C458 C 0.97225 0.80865 0.36476 0.0
C459 C 0.97258 0.83653 0.3493 0.0
loop_
_geom_bond_atom_site_label_1
_geom_bond_atom_site_label_2
_geom_bond_distance
_geom_bond_site_symmetry_2
_ccdc_geom_bond_type
H0 C27 0.929 . S
N1 C26 1.433 . S
N1 C32 1.435 1_554 S
N1 C38 1.423 1_554 S
H2 C28 0.930 . S
H3 C31 0.931 . S
H4 C30 0.929 . S
H5 C33 0.930 . S
H6 C34 0.932 . S
H7 C37 0.929 . S
H8 C36 0.931 . S
H9 C39 0.929 . S
H10 C43 0.932 1_565 S
H11 C40 0.931 . S
H12 C42 0.929 1_565 S
H13 C45 0.929 . S
H14 C46 0.930 . S
H15 C48 0.929 . S
H16 C49 0.931 . S
H17 C51 0.930 . S
H18 C52 0.932 . S
H19 C54 0.931 . S
H20 C55 0.929 . S
H21 C57 0.929 . S
H22 C58 0.931 . S
H23 C60 0.929 1_565 S
N24 C44 1.433 . S
N24 C50 1.435 1_554 S
N24 C56 1.423 1_554 S
H25 C61 0.932 1_565 S
C26 N1 1.433 . S
C26 C27 1.363 . S
C26 C31 1.370 1_545 S
C27 H0 0.929 . S
C27 C26 1.363 . S
C27 C28 1.385 . S
C28 H2 0.930 . S
C28 C27 1.385 . S
C28 C29 1.357 . S
C29 C28 1.357 . S
C29 C30 1.406 1_545 S
C30 H4 0.929 . S
C30 C29 1.406 1_565 S
C30 C31 1.391 . S
C31 H3 0.931 . S
C31 C26 1.370 1_565 S
C31 C30 1.391 . S
C32 N1 1.435 1_556 S
C32 C33 1.358 1_545 S
C32 C37 1.371 . S
C33 H5 0.930 . S
C33 C32 1.358 1_565 S
C33 C34 1.405 . S
C34 H6 0.932 . S
C34 C33 1.405 . S
C34 C35 1.383 1_565 S
C35 C34 1.383 1_545 S
C35 C36 1.393 . S
C36 H8 0.931 . S
C36 C35 1.393 . S
C36 C37 1.382 . S
C37 H7 0.929 . S
C37 C32 1.371 . S
C37 C36 1.382 . S
C38 N1 1.423 1_556 S
C38 C39 1.362 1_556 S
C38 C43 1.388 . S
C39 H9 0.929 . S
C39 C38 1.362 1_554 S
C39 C40 1.376 . S
C40 H11 0.931 . S
C40 C39 1.376 . S
C40 C41 1.396 1_554 S
C41 C40 1.396 1_556 S
C41 C42 1.348 . S
C41 C59 1.472 . S
C42 H12 0.929 1_545 S
C42 C41 1.348 . S
C42 C43 1.443 . S
C43 H10 0.932 1_545 S
C43 C38 1.388 . S
C43 C42 1.443 . S
C44 N24 1.433 . S
C44 C45 1.363 . S
C44 C49 1.370 1_545 S
C45 H13 0.929 . S
C45 C44 1.363 . S
C45 C46 1.385 . S
C46 H14 0.930 . S
C46 C45 1.385 . S
C46 C47 1.357 . S
C47 C46 1.357 . S
C47 C48 1.406 1_545 S
C48 H15 0.929 . S
C48 C47 1.406 1_565 S
C48 C49 1.391 . S
C49 H16 0.931 . S
C49 C44 1.370 1_565 S
C49 C48 1.391 . S
C50 N24 1.435 1_556 S
C50 C51 1.358 1_545 S
C50 C55 1.371 . S
C51 H17 0.930 . S
C51 C50 1.358 1_565 S
C51 C52 1.405 . S
C52 H18 0.932 . S
C52 C51 1.405 . S
C52 C53 1.383 1_565 S
C53 C52 1.383 1_545 S
C53 C54 1.393 . S
C54 H19 0.931 . S
C54 C53 1.393 . S
C54 C55 1.382 . S
C55 H20 0.929 . S
C55 C50 1.371 . S
C55 C54 1.382 . S
C56 N24 1.423 1_556 S
C56 C57 1.362 1_556 S
C56 C61 1.388 . S
C57 H21 0.929 . S
C57 C56 1.362 1_554 S
C57 C58 1.376 . S
C58 H22 0.931 . S
C58 C57 1.376 . S
C58 C59 1.396 1_554 S
C59 C41 1.472 . S
C59 C58 1.396 1_556 S
C59 C60 1.348 . S
C60 H23 0.929 1_545 S
C60 C59 1.348 . S
C60 C61 1.443 . S
C61 H25 0.932 1_545 S
C61 C56 1.388 . S
C61 C60 1.443 . S
H62 C89 0.929 . S
N63 C88 1.433 . S
N63 C94 1.435 . S
N63 C100 1.423 . S
H64 C90 0.930 . S
H65 C93 0.931 . S
H66 C92 0.929 . S
H67 C95 0.930 . S
H68 C96 0.932 . S
H69 C99 0.929 . S
H70 C98 0.931 . S
H71 C101 0.929 . S
H72 C105 0.932 1_455 S
H73 C102 0.931 . S
H74 C104 0.929 1_455 S
H75 C107 0.929 . S
H76 C108 0.930 . S
H77 C110 0.929 . S
H78 C111 0.931 . S
H79 C113 0.930 . S
H80 C114 0.932 . S
H81 C116 0.931 . S
H82 C117 0.929 . S
H83 C119 0.929 . S
H84 C120 0.931 . S
H85 C122 0.929 1_455 S
N86 C106 1.433 . S
N86 C112 1.435 . S
N86 C118 1.423 . S
H87 C123 0.932 1_455 S
C88 N63 1.433 . S
C88 C89 1.363 . S
C88 C93 1.370 1_655 S
C89 H62 0.929 . S
C89 C88 1.363 . S
C89 C90 1.385 . S
C90 H64 0.930 . S
C90 C89 1.385 . S
C90 C91 1.357 . S
C91 C90 1.357 . S
C91 C92 1.406 1_655 S
C92 H66 0.929 . S
C92 C91 1.406 1_455 S
C92 C93 1.391 . S
C93 H65 0.931 . S
C93 C88 1.370 1_455 S
C93 C92 1.391 . S
C94 N63 1.435 . S
C94 C95 1.358 1_655 S
C94 C99 1.371 . S
C95 H67 0.930 . S
C95 C94 1.358 1_455 S
C95 C96 1.405 . S
C96 H68 0.932 . S
C96 C95 1.405 . S
C96 C97 1.383 1_455 S
C97 C96 1.383 1_655 S
C97 C98 1.393 . S
C98 H70 0.931 . S
C98 C97 1.393 . S
C98 C99 1.382 . S
C99 H69 0.929 . S
C99 C94 1.371 . S
C99 C98 1.382 . S
C100 N63 1.423 . S
C100 C101 1.362 . S
C100 C105 1.388 . S
C101 H71 0.929 . S
C101 C100 1.362 . S
C101 C102 1.376 . S
C102 H73 0.931 . S
C102 C101 1.376 . S
C102 C103 1.396 . S
C103 C102 1.396 . S
C103 C104 1.348 . S
C103 C121 1.472 . S
C104 H74 0.929 1_655 S
C104 C103 1.348 . S
C104 C105 1.443 . S
C105 H72 0.932 1_655 S
C105 C100 1.388 . S
C105 C104 1.443 . S
C106 N86 1.433 . S
C106 C107 1.363 . S
C106 C111 1.370 1_655 S
C107 H75 0.929 . S
C107 C106 1.363 . S
C107 C108 1.385 . S
C108 H76 0.930 . S
C108 C107 1.385 . S
C108 C109 1.357 . S
C109 C108 1.357 . S
C109 C110 1.406 1_655 S
C110 H77 0.929 . S
C110 C109 1.406 1_455 S
C110 C111 1.391 . S
C111 H78 0.931 . S
C111 C106 1.370 1_455 S
C111 C110 1.391 . S
C112 N86 1.435 . S
C112 C113 1.358 1_655 S
C112 C117 1.371 . S
C113 H79 0.930 . S
C113 C112 1.358 1_455 S
C113 C114 1.405 . S
C114 H80 0.932 . S
C114 C113 1.405 . S
C114 C115 1.383 1_455 S
C115 C114 1.383 1_655 S
C115 C116 1.393 . S
C116 H81 0.931 . S
C116 C115 1.393 . S
C116 C117 1.382 . S
C117 H82 0.929 . S
C117 C112 1.371 . S
C117 C116 1.382 . S
C118 N86 1.423 . S
C118 C119 1.362 . S
C118 C123 1.388 . S
C119 H83 0.929 . S
C119 C118 1.362 . S
C119 C120 1.376 . S
C120 H84 0.931 . S
C120 C119 1.376 . S
C120 C121 1.396 . S
C121 C103 1.472 . S
C121 C120 1.396 . S
C121 C122 1.348 . S
C122 H85 0.929 1_655 S
C122 C121 1.348 . S
C122 C123 1.443 . S
C123 H87 0.932 1_655 S
C123 C118 1.388 . S
C123 C122 1.443 . S
Li124 N141 1.990 . S
Li124 O184 1.956 1_545 S
Li124 O185 1.970 1_455 S
Li124 O186 1.961 1_455 S
Li125 N149 1.990 . S
Li125 O184 1.970 1_655 S
Li125 O185 1.956 1_565 S
Li125 O187 1.961 1_655 S
Li126 N171 1.990 . S
Li126 O184 1.961 1_545 S
Li126 O186 1.956 1_455 S
Li126 O187 1.970 1_545 S
Li127 N177 1.990 . S
Li127 O185 1.961 1_565 S
Li127 O186 1.970 1_565 S
Li127 O187 1.956 1_655 S
C128 C130 1.348 1_545 S
C128 C131 1.356 . S
C128 O184 1.325 1_545 S
N129 C132 1.314 1_545 S
N129 C133 1.279 . S
C130 C128 1.348 1_565 S
C130 C132 1.353 . S
C130 H188 0.929 . S
C131 C128 1.356 . S
C131 C133 1.358 . S
C131 H189 0.930 . S
C132 N129 1.314 1_565 S
C132 C130 1.353 . S
C132 H190 0.930 . S
C133 N129 1.279 . S
C133 C131 1.358 . S
C133 H191 0.930 . S
C134 C137 1.348 . S
C134 C138 1.356 1_545 S
C134 O185 1.325 . S
C135 N136 1.279 . S
C135 C138 1.358 . S
C135 H192 0.930 . S
N136 C135 1.279 . S
N136 C139 1.314 1_565 S
C137 C134 1.348 . S
C137 C139 1.353 . S
C137 H193 0.929 . S
C138 C134 1.356 1_565 S
C138 C135 1.358 . S
C138 H194 0.930 . S
C139 N136 1.314 1_545 S
C139 C137 1.353 . S
C139 H195 0.930 . S
C140 N141 1.314 1_655 S
C140 C145 1.353 . S
C140 H146 0.930 . S
N141 Li124 1.990 . S
N141 C140 1.314 1_455 S
N141 C143 1.279 . S
C142 C143 1.358 . S
C142 C144 1.356 . S
C142 H196 0.930 . S
C143 N141 1.279 . S
C143 C142 1.358 . S
C143 H147 0.930 . S
C144 C142 1.356 . S
C144 C145 1.348 1_455 S
C145 C140 1.353 . S
C145 C144 1.348 1_655 S
C145 H197 0.929 . S
H146 C140 0.930 . S
H147 C143 0.930 . S
C148 N149 1.314 1_455 S
C148 C150 1.353 . S
C148 H154 0.930 . S
N149 Li125 1.990 . S
N149 C148 1.314 1_655 S
N149 C152 1.279 . S
C150 C148 1.353 . S
C150 C153 1.348 . S
C150 H198 0.929 . S
C151 C152 1.358 . S
C151 C153 1.356 1_655 S
C151 H199 0.930 . S
C152 N149 1.279 . S
C152 C151 1.358 . S
C152 H155 0.930 . S
C153 C150 1.348 . S
C153 C151 1.356 1_455 S
H154 C148 0.930 . S
H155 C152 0.930 . S
C156 C158 1.348 1_455 S
C156 C159 1.356 . S
C156 O186 1.325 1_455 S
N157 C160 1.314 1_455 S
N157 C161 1.279 . S
C158 C156 1.348 1_655 S
C158 C160 1.353 . S
C158 H200 0.929 . S
C159 C156 1.356 . S
C159 C161 1.358 . S
C159 H201 0.930 . S
C160 N157 1.314 1_655 S
C160 C158 1.353 . S
C160 H202 0.930 . S
C161 N157 1.279 . S
C161 C159 1.358 . S
C161 H203 0.930 . S
C162 C163 1.348 . S
C162 C164 1.356 1_455 S
C162 O187 1.325 . S
C163 C162 1.348 . S
C163 C165 1.353 . S
C163 H204 0.929 . S
C164 C162 1.356 1_655 S
C164 C166 1.358 . S
C164 H205 0.930 . S
C165 C163 1.353 . S
C165 N167 1.314 1_455 S
C165 H206 0.930 . S
C166 C164 1.358 . S
C166 N167 1.279 . S
C166 H207 0.930 . S
N167 C165 1.314 1_655 S
N167 C166 1.279 . S
C168 C170 1.353 . S
C168 N171 1.314 1_565 S
C168 H174 0.930 . S
C169 N171 1.279 . S
C169 C172 1.358 . S
C169 H175 0.930 . S
C170 C168 1.353 . S
C170 C173 1.348 1_565 S
C170 H208 0.929 . S
N171 Li126 1.990 . S
N171 C168 1.314 1_545 S
N171 C169 1.279 . S
C172 C169 1.358 . S
C172 C173 1.356 . S
C172 H209 0.930 . S
C173 C170 1.348 1_545 S
C173 C172 1.356 . S
H174 C168 0.930 . S
H175 C169 0.930 . S
C176 N177 1.314 1_545 S
C176 C178 1.353 . S
C176 H182 0.930 . S
N177 Li127 1.990 . S
N177 C176 1.314 1_565 S
N177 C180 1.279 . S
C178 C176 1.353 . S
C178 C181 1.348 . S
C178 H210 0.929 . S
C179 C180 1.358 . S
C179 C181 1.356 1_565 S
C179 H211 0.930 . S
C180 N177 1.279 . S
C180 C179 1.358 . S
C180 H183 0.930 . S
C181 C178 1.348 . S
C181 C179 1.356 1_545 S
H182 C176 0.930 . S
H183 C180 0.930 . S
O184 Li124 1.956 1_565 S
O184 Li125 1.970 1_455 S
O184 Li126 1.961 1_565 S
O184 C128 1.325 1_565 S
O185 Li124 1.970 1_655 S
O185 Li125 1.956 1_545 S
O185 Li127 1.961 1_545 S
O185 C134 1.325 . S
O186 Li124 1.961 1_655 S
O186 Li126 1.956 1_655 S
O186 Li127 1.970 1_545 S
O186 C156 1.325 1_655 S
O187 Li125 1.961 1_455 S
O187 Li126 1.970 1_565 S
O187 Li127 1.956 1_455 S
O187 C162 1.325 . S
H188 C130 0.929 . S
H189 C131 0.930 . S
H190 C132 0.930 . S
H191 C133 0.930 . S
H192 C135 0.930 . S
H193 C137 0.929 . S
H194 C138 0.930 . S
H195 C139 0.930 . S
H196 C142 0.930 . S
H197 C145 0.929 . S
H198 C150 0.929 . S
H199 C151 0.930 . S
H200 C158 0.929 . S
H201 C159 0.930 . S
H202 C160 0.930 . S
H203 C161 0.930 . S
H204 C163 0.929 . S
H205 C164 0.930 . S
H206 C165 0.930 . S
H207 C166 0.930 . S
H208 C170 0.929 . S
H209 C172 0.930 . S
H210 C178 0.929 . S
H211 C179 0.930 . S
Li212 N229 1.990 . S
Li212 O272 1.956 1_655 S
Li212 O273 1.970 1_545 S
Li212 O274 1.961 1_545 S
Li213 N237 1.990 . S
Li213 O272 1.970 1_565 S
Li213 O273 1.956 1_455 S
Li213 O275 1.961 1_565 S
Li214 N259 1.990 . S
Li214 O272 1.961 1_655 S
Li214 O274 1.956 1_545 S
Li214 O275 1.970 1_655 S
Li215 N265 1.990 . S
Li215 O273 1.961 1_455 S
Li215 O274 1.970 1_455 S
Li215 O275 1.956 1_565 S
C216 C218 1.348 . S
C216 C219 1.356 1_455 S
C216 O272 1.325 . S
N217 C220 1.314 1_655 S
N217 C221 1.279 . S
C218 C216 1.348 . S
C218 C220 1.353 . S
C218 H276 0.929 . S
C219 C216 1.356 1_655 S
C219 C221 1.358 . S
C219 H277 0.930 . S
C220 N217 1.314 1_455 S
C220 C218 1.353 . S
C220 H278 0.930 . S
C221 N217 1.279 . S
C221 C219 1.358 . S
C221 H279 0.930 . S
C222 C225 1.348 1_455 S
C222 C226 1.356 . S
C222 O273 1.325 1_455 S
C223 N224 1.279 . S
C223 C226 1.358 . S
C223 H280 0.930 . S
N224 C223 1.279 . S
N224 C227 1.314 1_455 S
C225 C222 1.348 1_655 S
C225 C227 1.353 . S
C225 H281 0.929 . S
C226 C222 1.356 . S
C226 C223 1.358 . S
C226 H282 0.930 . S
C227 N224 1.314 1_655 S
C227 C225 1.353 . S
C227 H283 0.930 . S
C228 N229 1.314 1_565 S
C228 C233 1.353 . S
C228 H234 0.930 . S
N229 Li212 1.990 . S
N229 C228 1.314 1_545 S
N229 C231 1.279 . S
C230 C231 1.358 . S
C230 C232 1.356 . S
C230 H284 0.930 . S
C231 N229 1.279 . S
C231 C230 1.358 . S
C231 H235 0.930 . S
C232 C230 1.356 . S
C232 C233 1.348 1_545 S
C233 C228 1.353 . S
C233 C232 1.348 1_565 S
C233 H285 0.929 . S
H234 C228 0.930 . S
H235 C231 0.930 . S
C236 N237 1.314 1_545 S
C236 C238 1.353 . S
C236 H242 0.930 . S
N237 Li213 1.990 . S
N237 C236 1.314 1_565 S
N237 C240 1.279 . S
C238 C236 1.353 . S
C238 C241 1.348 . S
C238 H286 0.929 . S
C239 C240 1.358 . S
C239 C241 1.356 1_565 S
C239 H287 0.930 . S
C240 N237 1.279 . S
C240 C239 1.358 . S
C240 H243 0.930 . S
C241 C238 1.348 . S
C241 C239 1.356 1_545 S
H242 C236 0.930 . S
H243 C240 0.930 . S
C244 C246 1.348 1_545 S
C244 C247 1.356 . S
C244 O274 1.325 1_545 S
N245 C248 1.314 1_545 S
N245 C249 1.279 . S
C246 C244 1.348 1_565 S
C246 C248 1.353 . S
C246 H288 0.929 . S
C247 C244 1.356 . S
C247 C249 1.358 . S
C247 H289 0.930 . S
C248 N245 1.314 1_565 S
C248 C246 1.353 . S
C248 H290 0.930 . S
C249 N245 1.279 . S
C249 C247 1.358 . S
C249 H291 0.930 . S
C250 C251 1.348 . S
C250 C252 1.356 1_545 S
C250 O275 1.325 . S
C251 C250 1.348 . S
C251 C253 1.353 . S
C251 H292 0.929 . S
C252 C250 1.356 1_565 S
C252 C254 1.358 . S
C252 H293 0.930 . S
C253 C251 1.353 . S
C253 N255 1.314 1_545 S
C253 H294 0.930 . S
C254 C252 1.358 . S
C254 N255 1.279 . S
C254 H295 0.930 . S
N255 C253 1.314 1_565 S
N255 C254 1.279 . S
C256 C258 1.353 . S
C256 N259 1.314 1_455 S
C256 H262 0.930 . S
C257 N259 1.279 . S
C257 C260 1.358 . S
C257 H263 0.930 . S
C258 C256 1.353 . S
C258 C261 1.348 . S
C258 H296 0.929 . S
N259 Li214 1.990 . S
N259 C256 1.314 1_655 S
N259 C257 1.279 . S
C260 C257 1.358 . S
C260 C261 1.356 1_655 S
C260 H297 0.930 . S
C261 C258 1.348 . S
C261 C260 1.356 1_455 S
H262 C256 0.930 . S
H263 C257 0.930 . S
C264 N265 1.314 1_655 S
C264 C266 1.353 . S
C264 H270 0.930 . S
N265 Li215 1.990 . S
N265 C264 1.314 1_455 S
N265 C268 1.279 . S
C266 C264 1.353 . S
C266 C269 1.348 1_655 S
C266 H298 0.929 . S
C267 C268 1.358 . S
C267 C269 1.356 . S
C267 H299 0.930 . S
C268 N265 1.279 . S
C268 C267 1.358 . S
C268 H271 0.930 . S
C269 C266 1.348 1_455 S
C269 C267 1.356 . S
H270 C264 0.930 . S
H271 C268 0.930 . S
O272 Li212 1.956 1_455 S
O272 Li213 1.970 1_545 S
O272 Li214 1.961 1_455 S
O272 C216 1.325 . S
O273 Li212 1.970 1_565 S
O273 Li213 1.956 1_655 S
O273 Li215 1.961 1_655 S
O273 C222 1.325 1_655 S
O274 Li212 1.961 1_565 S
O274 Li214 1.956 1_565 S
O274 Li215 1.970 1_655 S
O274 C244 1.325 1_565 S
O275 Li213 1.961 1_545 S
O275 Li214 1.970 1_455 S
O275 Li215 1.956 1_545 S
O275 C250 1.325 . S
H276 C218 0.929 . S
H277 C219 0.930 . S
H278 C220 0.930 . S
H279 C221 0.930 . S
H280 C223 0.930 . S
H281 C225 0.929 . S
H282 C226 0.930 . S
H283 C227 0.930 . S
H284 C230 0.930 . S
H285 C233 0.929 . S
H286 C238 0.929 . S
H287 C239 0.930 . S
H288 C246 0.929 . S
H289 C247 0.930 . S
H290 C248 0.930 . S
H291 C249 0.930 . S
H292 C251 0.929 . S
H293 C252 0.930 . S
H294 C253 0.930 . S
H295 C254 0.930 . S
H296 C258 0.929 . S
H297 C260 0.930 . S
H298 C266 0.929 . S
H299 C267 0.930 . S
H300 C308 0.950 . S
H301 C313 0.950 . S
H302 C310 0.950 . S
H303 C312 0.950 . S
H304 C314 0.950 . S
H305 C316 0.950 . S
H306 C318 0.950 . S
H307 C319 0.950 . S
C308 H300 0.950 . S
C308 C309 1.401 . S
C308 C310 1.391 . S
C309 C308 1.401 . S
C309 C313 1.378 1_565 S
C310 H302 0.950 . S
C310 C308 1.391 . S
C310 C311 1.413 . S
C311 C310 1.413 . S
C311 C312 1.386 1_565 S
C311 C317 1.490 1_565 S
C312 H303 0.950 . S
C312 C311 1.386 1_545 S
C312 C313 1.391 . S
C313 H301 0.950 . S
C313 C309 1.378 1_545 S
C313 C312 1.391 . S
C314 H304 0.950 . S
C314 C315 1.386 . S
C314 C316 1.391 . S
C315 C314 1.386 . S
C315 C319 1.393 1_545 S
C316 H305 0.950 . S
C316 C314 1.391 . S
C316 C317 1.398 . S
C317 C311 1.490 1_545 S
C317 C316 1.398 . S
C317 C318 1.400 1_545 S
C318 H306 0.950 . S
C318 C317 1.400 1_565 S
C318 C319 1.391 . S
C319 H307 0.950 . S
C319 C315 1.393 1_565 S
C319 C318 1.391 . S
H320 C328 0.950 . S
H321 C333 0.950 . S
H322 C330 0.950 . S
H323 C332 0.950 . S
H324 C334 0.950 . S
H325 C336 0.950 . S
H326 C338 0.950 . S
H327 C339 0.950 . S
C328 H320 0.950 . S
C328 C329 1.389 . S
C328 C330 1.391 . S
C329 C328 1.389 . S
C329 C333 1.389 1_455 S
C330 H322 0.950 . S
C330 C328 1.391 . S
C330 C331 1.412 . S
C331 C330 1.412 . S
C331 C332 1.387 1_455 S
C331 C337 1.491 . S
C332 H323 0.950 . S
C332 C331 1.387 1_655 S
C332 C333 1.391 . S
C333 H321 0.950 . S
C333 C329 1.389 1_655 S
C333 C332 1.391 . S
C334 H324 0.950 . S
C334 C335 1.363 1_655 S
C334 C336 1.391 . S
C335 C334 1.363 1_455 S
C335 C339 1.415 . S
C336 H325 0.950 . S
C336 C334 1.391 . S
C336 C337 1.386 1_655 S
C337 C331 1.491 . S
C337 C336 1.386 1_455 S
C337 C338 1.412 . S
C338 H326 0.950 . S
C338 C337 1.412 . S
C338 C339 1.391 . S
C339 H327 0.950 . S
C339 C335 1.415 . S
C339 C338 1.391 . S
H340 C348 0.950 . S
H341 C353 0.950 . S
H342 C350 0.950 . S
H343 C352 0.950 . S
H344 C354 0.950 . S
H345 C356 0.950 . S
H346 C358 0.950 . S
H347 C359 0.950 . S
C348 H340 0.950 . S
C348 C349 1.374 1_545 S
C348 C350 1.391 . S
C349 C348 1.374 1_565 S
C349 C353 1.405 . S
C350 H342 0.950 . S
C350 C348 1.391 . S
C350 C351 1.399 1_545 S
C351 C350 1.399 1_565 S
C351 C352 1.400 . S
C351 C357 1.490 1_565 S
C352 H343 0.950 . S
C352 C351 1.400 . S
C352 C353 1.391 . S
C353 H341 0.950 . S
C353 C349 1.405 . S
C353 C352 1.391 . S
C354 H344 0.950 . S
C354 C355 1.386 1_565 S
C354 C356 1.391 . S
C355 C354 1.386 1_545 S
C355 C359 1.393 . S
C356 H345 0.950 . S
C356 C354 1.391 . S
C356 C357 1.400 1_565 S
C357 C351 1.490 1_545 S
C357 C356 1.400 1_545 S
C357 C358 1.398 . S
C358 H346 0.950 . S
C358 C357 1.398 . S
C358 C359 1.391 . S
C359 H347 0.950 . S
C359 C355 1.393 . S
C359 C358 1.391 . S
H360 C368 0.950 . S
H361 C373 0.950 . S
H362 C370 0.950 . S
H363 C372 0.950 . S
H364 C374 0.950 . S
H365 C376 0.950 . S
H366 C378 0.950 . S
H367 C379 0.950 . S
C368 H360 0.950 . S
C368 C369 1.368 1_655 S
C368 C370 1.391 . S
C369 C368 1.368 1_455 S
C369 C373 1.410 . S
C370 H362 0.950 . S
C370 C368 1.391 . S
C370 C371 1.400 1_655 S
C371 C370 1.400 1_455 S
C371 C372 1.398 . S
C371 C377 1.490 1_455 S
C372 H363 0.950 . S
C372 C371 1.398 . S
C372 C373 1.391 . S
C373 H361 0.950 . S
C373 C369 1.410 . S
C373 C372 1.391 . S
C374 H364 0.950 . S
C374 C375 1.386 1_455 S
C374 C376 1.391 . S
C375 C374 1.386 1_655 S
C375 C379 1.393 . S
C376 H365 0.950 . S
C376 C374 1.391 . S
C376 C377 1.383 1_455 S
C377 C371 1.490 1_655 S
C377 C376 1.383 1_655 S
C377 C378 1.416 . S
C378 H366 0.950 . S
C378 C377 1.416 . S
C378 C379 1.391 . S
C379 H367 0.950 . S
C379 C375 1.393 . S
C379 C378 1.391 . S
H380 C388 0.950 . S
H381 C393 0.950 . S
H382 C390 0.950 . S
H383 C392 0.950 . S
H384 C394 0.950 . S
H385 C396 0.950 . S
H386 C398 0.950 . S
H387 C399 0.950 . S
C388 H380 0.950 . S
C388 C389 1.406 . S
C388 C390 1.391 . S
C389 C388 1.406 . S
C389 C393 1.374 1_545 S
C390 H382 0.950 . S
C390 C388 1.391 . S
C390 C391 1.418 . S
C391 C390 1.418 . S
C391 C392 1.382 1_545 S
C391 C397 1.490 . S
C392 H383 0.950 . S
C392 C391 1.382 1_565 S
C392 C393 1.391 . S
C393 H381 0.950 . S
C393 C389 1.374 1_565 S
C393 C392 1.391 . S
C394 H384 0.950 . S
C394 C395 1.388 1_565 S
C394 C396 1.391 . S
C395 C394 1.388 1_545 S
C395 C399 1.391 . S
C396 H385 0.950 . S
C396 C394 1.391 . S
C396 C397 1.400 1_565 S
C397 C391 1.490 . S
C397 C396 1.400 1_545 S
C397 C398 1.399 . S
C398 H386 0.950 . S
C398 C397 1.399 . S
C398 C399 1.391 . S
C399 H387 0.950 . S
C399 C395 1.391 . S
C399 C398 1.391 . S
H400 C408 0.950 . S
H401 C413 0.950 . S
H402 C410 0.950 . S
H403 C412 0.950 . S
H404 C414 0.950 . S
H405 C416 0.950 . S
H406 C418 0.950 . S
H407 C419 0.950 . S
C408 H400 0.950 . S
C408 C409 1.403 . S
C408 C410 1.391 . S
C409 C408 1.403 . S
C409 C413 1.377 1_455 S
C410 H402 0.950 . S
C410 C408 1.391 . S
C410 C411 1.404 . S
C411 C410 1.404 . S
C411 C412 1.395 1_455 S
C411 C417 1.490 1_455 S
C412 H403 0.950 . S
C412 C411 1.395 1_655 S
C412 C413 1.391 . S
C413 H401 0.950 . S
C413 C409 1.377 1_655 S
C413 C412 1.391 . S
C414 H404 0.950 . S
C414 C415 1.386 . S
C414 C416 1.391 . S
C415 C414 1.386 . S
C415 C419 1.393 1_655 S
C416 H405 0.950 . S
C416 C414 1.391 . S
C416 C417 1.415 . S
C417 C411 1.490 1_655 S
C417 C416 1.415 . S
C417 C418 1.385 1_655 S
C418 H406 0.950 . S
C418 C417 1.385 1_455 S
C418 C419 1.391 . S
C419 H407 0.950 . S
C419 C415 1.393 1_455 S
C419 C418 1.391 . S
H420 C428 0.950 . S
H421 C433 0.950 . S
H422 C430 0.950 . S
H423 C432 0.950 . S
H424 C434 0.950 . S
H425 C436 0.950 . S
H426 C438 0.950 . S
H427 C439 0.950 . S
C428 H420 0.950 . S
C428 C429 1.386 1_545 S
C428 C430 1.391 . S
C429 C428 1.386 1_565 S
C429 C433 1.393 . S
C430 H422 0.950 . S
C430 C428 1.391 . S
C430 C431 1.398 1_545 S
C431 C430 1.398 1_565 S
C431 C432 1.403 . S
C431 C437 1.490 1_565 S
C432 H423 0.950 . S
C432 C431 1.403 . S
C432 C433 1.391 . S
C433 H421 0.950 . S
C433 C429 1.393 . S
C433 C432 1.391 . S
C434 H424 0.950 . S
C434 C435 1.384 1_565 S
C434 C436 1.391 . S
C435 C434 1.384 1_545 S
C435 C439 1.395 . S
C436 H425 0.950 . S
C436 C434 1.391 . S
C436 C437 1.400 1_565 S
C437 C431 1.490 1_545 S
C437 C436 1.400 1_545 S
C437 C438 1.399 . S
C438 H426 0.950 . S
C438 C437 1.399 . S
C438 C439 1.391 . S
C439 H427 0.950 . S
C439 C435 1.395 . S
C439 C438 1.391 . S
H440 C448 0.950 . S
H441 C453 0.950 . S
H442 C450 0.950 . S
H443 C452 0.950 . S
H444 C454 0.950 . S
H445 C456 0.950 . S
H446 C458 0.950 . S
H447 C459 0.950 . S
C448 H440 0.950 . S
C448 C449 1.386 . S
C448 C450 1.391 . S
C449 C448 1.386 . S
C449 C453 1.392 1_655 S
C450 H442 0.950 . S
C450 C448 1.391 . S
C450 C451 1.395 1_655 S
C451 C450 1.395 1_455 S
C451 C452 1.403 . S
C451 C457 1.490 . S
C452 H443 0.950 . S
C452 C451 1.403 . S
C452 C453 1.391 . S
C453 H441 0.950 . S
C453 C449 1.392 1_455 S
C453 C452 1.391 . S
C454 H444 0.950 . S
C454 C455 1.386 . S
C454 C456 1.391 . S
C455 C454 1.386 . S
C455 C459 1.393 1_455 S
C456 H445 0.950 . S
C456 C454 1.391 . S
C456 C457 1.420 . S
C457 C451 1.490 . S
C457 C456 1.420 . S
C457 C458 1.379 1_455 S
C458 H446 0.950 . S
C458 C457 1.379 1_655 S
C458 C459 1.391 . S
C459 H447 0.950 . S
C459 C455 1.393 1_655 S
C459 C458 1.391 . S
C315 C173 1.763 . S
C309 C47 1.646 1_565 S
C335 C261 1.764 . S
C329 C109 1.648 1_455 S
C355 C181 1.763 . S
C349 C29 1.642 1_565 S
C375 C269 1.764 1_655 S
C369 C91 1.651 1_455 S
C395 C241 1.374 . S
C389 C53 1.362 . S
C415 C144 1.377 1_655 S
C409 C115 1.350 1_455 S
C435 C232 1.374 . S
C429 C35 1.364 1_565 S
C449 C97 1.351 . S
C455 C153 1.380 . S
