# Generated by pormake.
# Topology zzz, (3,6)-cn, num edge types: 1
# Building blocks:
#     Node 0, Type 0, BuildingBlock: BETDIP_clean_linker_0, # of connection points: 3
#     Node 1, Type 0, BuildingBlock: BETDIP_clean_linker_0, # of connection points: 3
#     Node 2, Type 0, BuildingBlock: BETDIP_clean_linker_0, # of connection points: 3
#     Node 3, Type 0, BuildingBlock: BETDIP_clean_linker_0, # of connection points: 3
#     Node 4, Type 0, BuildingBlock: BETDIP_clean_linker_0, # of connection points: 3
#     Node 5, Type 0, BuildingBlock: BETDIP_clean_linker_0, # of connection points: 3
#     Node 6, Type 0, BuildingBlock: BETDIP_clean_linker_0, # of connection points: 3
#     Node 7, Type 0, BuildingBlock: BETDIP_clean_linker_0, # of connection points: 3
#     Node 8, Type 1, BuildingBlock: CUKXOW_clean_sbu_0, # of connection points: 6
#     Node 9, Type 1, BuildingBlock: CUKXOW_clean_sbu_0, # of connection points: 6
#     Node 10, Type 1, BuildingBlock: CUKXOW_clean_sbu_0, # of connection points: 6
#     Node 11, Type 1, BuildingBlock: CUKXOW_clean_sbu_0, # of connection points: 6
#     Edge 12, Type (0, 1), BuildingBlock: EZIPEK_clean_linker_0, # of connection points: 2
#     Edge 13, Type (0, 1), BuildingBlock: EZIPEK_clean_linker_0, # of connection points: 2
#     Edge 14, Type (0, 1), BuildingBlock: EZIPEK_clean_linker_0, # of connection points: 2
#     Edge 15, Type (0, 1), BuildingBlock: EZIPEK_clean_linker_0, # of connection points: 2
#     Edge 16, Type (0, 1), BuildingBlock: EZIPEK_clean_linker_0, # of connection points: 2
#     Edge 17, Type (0, 1), BuildingBlock: EZIPEK_clean_linker_0, # of connection points: 2
#     Edge 18, Type (0, 1), BuildingBlock: EZIPEK_clean_linker_0, # of connection points: 2
#     Edge 19, Type (0, 1), BuildingBlock: EZIPEK_clean_linker_0, # of connection points: 2
#     Edge 20, Type (0, 1), BuildingBlock: EZIPEK_clean_linker_0, # of connection points: 2
#     Edge 21, Type (0, 1), BuildingBlock: EZIPEK_clean_linker_0, # of connection points: 2
#     Edge 22, Type (0, 1), BuildingBlock: EZIPEK_clean_linker_0, # of connection points: 2
#     Edge 23, Type (0, 1), BuildingBlock: EZIPEK_clean_linker_0, # of connection points: 2
#     Edge 24, Type (0, 1), BuildingBlock: EZIPEK_clean_linker_0, # of connection points: 2
#     Edge 25, Type (0, 1), BuildingBlock: EZIPEK_clean_linker_0, # of connection points: 2
#     Edge 26, Type (0, 1), BuildingBlock: EZIPEK_clean_linker_0, # of connection points: 2
#     Edge 27, Type (0, 1), BuildingBlock: EZIPEK_clean_linker_0, # of connection points: 2
#     Edge 28, Type (0, 1), BuildingBlock: EZIPEK_clean_linker_0, # of connection points: 2
#     Edge 29, Type (0, 1), BuildingBlock: EZIPEK_clean_linker_0, # of connection points: 2
#     Edge 30, Type (0, 1), BuildingBlock: EZIPEK_clean_linker_0, # of connection points: 2
#     Edge 31, Type (0, 1), BuildingBlock: EZIPEK_clean_linker_0, # of connection points: 2
#     Edge 32, Type (0, 1), BuildingBlock: EZIPEK_clean_linker_0, # of connection points: 2
#     Edge 33, Type (0, 1), BuildingBlock: EZIPEK_clean_linker_0, # of connection points: 2
#     Edge 34, Type (0, 1), BuildingBlock: EZIPEK_clean_linker_0, # of connection points: 2
#     Edge 35, Type (0, 1), BuildingBlock: EZIPEK_clean_linker_0, # of connection points: 2
# Relax obj value: 0.058
# Max RMSD: 0.117
# Mean RMSD: 0.078
data_MOF--net-zzz--node1-CUKXOW_clean_sbu_0--node2-BETDIP_clean_linker_0--edge1-EZIPEK_clean_linker_0
_symmetry_space_group_name_H-M    P1
_symmetry_Int_Tables_number       1
_symmetry_cell_setting            triclinic
loop_
_symmetry_equiv_pos_as_xyz
'x, y, z'
_cell_length_a     36.968829
_cell_length_b     38.957755
_cell_length_c     11.73743
_cell_angle_alpha  94.020328
_cell_angle_beta   85.963005
_cell_angle_gamma 94.042998
loop_
_atom_site_label
_atom_site_type_symbol
_atom_site_fract_x
_atom_site_fract_y
_atom_site_fract_z
_atom_type_partial_charge
H0 H 0.75011 0.48968 0.29856 0.0
H1 H 0.79547 0.50443 0.95365 0.0
H2 H 0.86574 0.49635 0.22328 0.0
H3 H 0.74281 0.53135 0.94672 0.0
C4 C 0.72328 0.51287 0.98608 0.0
C5 C 0.77329 0.49258 0.23742 0.0
C6 C 0.80872 0.49278 0.27413 0.0
C7 C 0.768 0.49718 0.12164 0.0
C8 C 0.7986 0.50135 0.04326 0.0
C9 C 0.83372 0.50066 0.08047 0.0
C10 C 0.83838 0.4963 0.19488 0.0
N11 N 0.73194 0.49728 0.08598 0.0
H12 H 0.0206 0.75551 0.20506 0.0
H13 H 0.02932 0.79333 0.866 0.0
H14 H 0.02201 0.86408 0.1632 0.0
H15 H 0.99202 0.73662 0.84786 0.0
C16 C 0.00901 0.72079 0.89134 0.0
C17 C 0.02259 0.77677 0.14968 0.0
C18 C 0.02049 0.81061 0.1971 0.0
C19 C 0.02586 0.7703 0.03013 0.0
C20 C 0.02714 0.79803 0.9582 0.0
C21 C 0.02628 0.83202 0.00703 0.0
C22 C 0.0234 0.83786 0.12569 0.0
N23 N 0.02819 0.73571 0.98531 0.0
H24 H 0.74755 0.00784 0.29024 0.0
H25 H 0.7159 0.01259 0.94347 0.0
H26 H 0.63791 0.02637 0.22688 0.0
H27 H 0.76707 0.98633 0.89611 0.0
C28 C 0.786 0.99742 0.95731 0.0
C29 C 0.72725 0.01125 0.23051 0.0
C30 C 0.69137 0.01677 0.27142 0.0
C31 C 0.73671 0.00959 0.11177 0.0
C32 C 0.7096 0.01333 0.03492 0.0
C33 C 0.67408 0.01978 0.07716 0.0
C34 C 0.66552 0.02165 0.19458 0.0
N35 N 0.77369 0.00551 0.0731 0.0
H36 H 0.55128 0.76358 0.32286 0.0
H37 H 0.51322 0.72001 0.00064 0.0
H38 H 0.51543 0.65644 0.28361 0.0
H39 H 0.55718 0.76546 0.94079 0.0
C40 C 0.54545 0.78546 -0.00195 0.0
C41 C 0.53946 0.74202 0.2715 0.0
C42 C 0.53424 0.70938 0.31576 0.0
C43 C 0.53137 0.74631 0.15818 0.0
C44 C 0.51832 0.71751 0.08932 0.0
C45 C 0.51231 0.68512 0.13521 0.0
C46 C 0.51894 0.68175 0.2494 0.0
N47 N 0.53687 0.77965 0.11536 0.0
H48 H 0.27771 0.51307 0.14467 0.0
H49 H 0.23452 0.53691 0.49132 0.0
H50 H 0.16306 0.52177 0.21831 0.0
H51 H 0.29238 0.56711 0.4957 0.0
C52 C 0.30768 0.54554 0.46072 0.0
C53 C 0.25503 0.51832 0.20545 0.0
C54 C 0.21963 0.51723 0.16809 0.0
C55 C 0.26096 0.52642 0.32195 0.0
C56 C 0.23093 0.53242 0.40061 0.0
C57 C 0.19568 0.53035 0.36272 0.0
C58 C 0.19048 0.52346 0.247 0.0
N59 N 0.29682 0.52662 0.35936 0.0
H60 H 0.00921 0.25021 0.24791 0.0
H61 H 0.98901 0.21473 0.58884 0.0
H62 H 1.00186 0.14193 0.29918 0.0
H63 H 0.02492 0.26823 0.6233 0.0
C64 C 0.01345 0.28533 0.56832 0.0
C65 C 1.0048 0.22937 0.30483 0.0
C66 C 0.00607 0.19515 0.26054 0.0
C67 C 0.99897 0.23673 0.42334 0.0
C68 C 0.99369 0.20947 0.49737 0.0
C69 C 0.99456 0.17518 0.4517 0.0
C70 C 1.00062 0.16844 0.33401 0.0
N71 N 0.99868 0.27179 0.46473 0.0
H72 H 0.27551 0.02231 0.15645 0.0
H73 H 0.30951 0.02939 0.50311 0.0
H74 H 0.38861 0.02443 0.21982 0.0
H75 H 0.2559 0.99771 0.52804 0.0
C76 C 0.23731 0.00934 0.47684 0.0
C77 C 0.29684 0.02527 0.21583 0.0
C78 C 0.33336 0.02456 0.1744 0.0
C79 C 0.2878 0.0272 0.33474 0.0
C80 C 0.31579 0.02862 0.41155 0.0
C81 C 0.35204 0.02607 0.36931 0.0
C82 C 0.3605 0.0264 0.25203 0.0
N83 N 0.25047 0.02487 0.37432 0.0
H84 H 0.46094 0.27426 0.14323 0.0
H85 H 0.48007 0.31854 0.48427 0.0
H86 H 0.48147 0.38357 0.20441 0.0
H87 H 0.45531 0.26703 0.53873 0.0
C88 C 0.46424 0.24857 0.47078 0.0
C89 C 0.46638 0.29643 0.20203 0.0
C90 C 0.47049 0.32954 0.16132 0.0
C91 C 0.46952 0.29192 0.31878 0.0
C92 C 0.47684 0.32116 0.3945 0.0
C93 C 0.48117 0.35424 0.35254 0.0
C94 C 0.47802 0.35799 0.23665 0.0
N95 N 0.46701 0.25764 0.35504 0.0
Tb96 Tb 1.00304 0.97379 0.62965 0.0
C97 C 0.08551 0.00552 0.64693 0.0
Tb98 Tb 0.0219 0.03266 0.81367 0.0
O99 O 0.97978 0.01016 0.52347 0.0
O100 O 0.01951 0.02616 0.63631 0.0
O101 O 0.06301 0.97928 0.61101 0.0
C102 C 0.02169 0.0963 0.91182 0.0
O103 O 0.07437 0.03166 0.71673 0.0
C104 C 0.02907 0.96975 0.86671 0.0
C105 C 0.93877 1.00127 0.79501 0.0
O106 O 0.035 0.07028 0.95455 0.0
O107 O 0.00915 0.08651 0.81366 0.0
O108 O 0.04749 0.99623 0.91352 0.0
O109 O 0.00555 0.98017 0.80767 0.0
O110 O 0.96247 0.02386 0.84575 0.0
O111 O 0.94858 0.97863 0.71015 0.0
C112 C 1.001 0.90955 0.53735 0.0
O113 O 0.99738 0.93678 0.482 0.0
O114 O 0.00528 0.91839 0.64415 0.0
C115 C 0.99736 0.03676 0.57284 0.0
Tb116 Tb 0.50721 0.05394 0.68955 0.0
C117 C 0.57914 0.01817 0.60778 0.0
Tb118 Tb 0.51736 0.97965 0.74969 0.0
O119 O 0.54658 0.07708 0.80383 0.0
O120 O 0.52057 0.02971 0.83649 0.0
O121 O 0.55459 0.03884 0.57811 0.0
C122 C 0.53255 0.92014 0.82969 0.0
O123 O 0.57196 0.99654 0.68944 0.0
C124 C 0.47825 0.98498 0.57164 0.0
C125 C 0.44445 0.01329 0.83876 0.0
O126 O 0.53774 0.92787 0.72363 0.0
O127 O 0.51956 0.94609 0.89033 0.0
O128 O 0.47601 0.95905 0.63553 0.0
O129 O 0.50478 0.00465 0.60301 0.0
O130 O 0.46436 0.98628 0.83486 0.0
O131 O 0.45612 0.04226 0.79023 0.0
C132 C 0.48881 0.11244 0.60781 0.0
O133 O 0.46675 0.08572 0.62691 0.0
O134 O 0.52101 0.1059 0.63322 0.0
C135 C 0.5462 0.05109 0.86663 0.0
Tb136 Tb 0.52829 0.55101 0.65863 0.0
C137 C 0.44339 0.53092 0.66794 0.0
Tb138 Tb 0.49578 0.49038 0.80275 0.0
O139 O 0.5179 0.51981 0.49814 0.0
O140 O 0.5263 0.49715 0.64857 0.0
O141 O 0.47009 0.55486 0.65001 0.0
C142 C 0.48009 0.42623 0.86096 0.0
O143 O 0.44977 0.5007 0.70581 0.0
C144 C 0.48705 0.5528 0.89404 0.0
C145 C 0.58059 0.51444 0.80932 0.0
O146 O 0.48203 0.4358 0.75697 0.0
O147 O 0.48673 0.45264 0.93226 0.0
O148 O 0.46545 0.52623 0.92092 0.0
O149 O 0.51328 0.54222 0.83062 0.0
O150 O 0.55277 0.49359 0.84788 0.0
O151 O 0.57754 0.53756 0.73257 0.0
C152 C 0.55103 0.61589 0.61659 0.0
O153 O 0.5643 0.58818 0.56557 0.0
O154 O 0.52445 0.60647 0.6882 0.0
C155 C 0.51718 0.49088 0.54823 0.0
Tb156 Tb 0.98225 0.50578 0.6382 0.0
C157 C 0.01345 0.43313 0.67779 0.0
Tb158 Tb 0.04727 0.50268 0.79917 0.0
O159 O 0.02031 0.53065 0.50805 0.0
O160 O 0.03796 0.49963 0.62559 0.0
O161 O 0.98642 0.44988 0.64216 0.0
C162 C 0.1147 0.50179 0.86463 0.0
O163 O 0.04104 0.44862 0.7337 0.0
C164 C 0.98096 0.50521 0.89668 0.0
C165 C 0.01611 0.57398 0.76155 0.0
O166 O 0.08584 0.48703 0.91593 0.0
O167 O 0.10549 0.51618 0.77553 0.0
O168 O 0.00982 0.51538 0.95094 0.0
O169 O 0.99113 0.4918 0.80146 0.0
O170 O 0.04566 0.55782 0.77707 0.0
O171 O 0.98607 0.55757 0.72367 0.0
C172 C 0.91505 0.50082 0.56838 0.0
O173 O 0.92441 0.51448 0.66699 0.0
O174 O 0.94358 0.49 0.5086 0.0
C175 C 0.04878 0.51953 0.54993 0.0
C176 C 0.18909 0.01914 0.63464 0.0
C177 C 0.19831 0.00907 0.51833 0.0
C178 C 0.13357 1.00049 0.48345 0.0
C179 C 0.12437 0.00664 0.60261 0.0
N180 N 0.14462 0.01506 0.79496 0.0
N181 N 0.17927 0.98191 0.33906 0.0
C182 C 0.15247 0.01417 0.67925 0.0
C183 C 0.17057 0.99749 0.44443 0.0
N184 N 0.21511 0.03453 0.70207 0.0
N185 N 0.10737 0.99894 0.40633 0.0
H186 H 0.20587 0.97757 0.30902 0.0
H187 H 0.15985 0.96982 0.28686 0.0
H188 H 0.08004 1.00213 0.42944 0.0
H189 H 0.11337 0.99815 0.31813 0.0
H190 H 0.20916 0.04585 0.78369 0.0
H191 H 0.2422 0.03905 0.67269 0.0
H192 H 0.16454 0.01654 0.85396 0.0
H193 H 0.11847 0.01082 0.83243 0.0
C194 C 0.50023 0.19554 0.45566 0.0
C195 C 0.46887 0.21249 0.49893 0.0
C196 C 0.44965 0.16337 0.61438 0.0
C197 C 0.47958 0.14543 0.56405 0.0
N198 N 0.52728 0.14097 0.41341 0.0
N199 N 0.40964 0.20932 0.59952 0.0
C200 C 0.50298 0.16046 0.47741 0.0
C201 C 0.44232 0.19541 0.57229 0.0
N202 N 0.5285 0.21336 0.39984 0.0
N203 N 0.4294 0.15101 0.70647 0.0
H204 H 0.40301 0.23246 0.56921 0.0
H205 H 0.38785 0.19626 0.64267 0.0
H206 H 0.43409 0.12814 0.74221 0.0
H207 H 0.40998 0.16506 0.75424 0.0
H208 H 0.55343 0.20301 0.37712 0.0
H209 H 0.52869 0.23959 0.3873 0.0
H210 H 0.54249 0.14976 0.34182 0.0
H211 H 0.5293 0.11482 0.42379 0.0
C212 C 0.36966 0.56852 0.51107 0.0
C213 C 0.34278 0.54084 0.51012 0.0
C214 C 0.37695 0.51094 0.64067 0.0
C215 C 0.40589 0.53703 0.63218 0.0
N216 N 0.41857 0.59829 0.61074 0.0
N217 N 0.32181 0.48395 0.56416 0.0
C218 C 0.39935 0.56807 0.58139 0.0
C219 C 0.34684 0.51143 0.57144 0.0
N220 N 0.36739 0.59496 0.44175 0.0
N221 N 0.37575 0.48846 0.7254 0.0
H222 H 0.29853 0.48397 0.51894 0.0
H223 H 0.3256 0.46014 0.59513 0.0
H224 H 0.39287 0.49183 0.79267 0.0
H225 H 0.35428 0.47028 0.741 0.0
H226 H 0.38841 0.61378 0.42802 0.0
H227 H 0.34605 0.59614 0.3888 0.0
H228 H 0.41298 0.62205 0.583 0.0
H229 H 0.43574 0.60098 0.67771 0.0
C230 C 0.00785 0.33605 0.71332 0.0
C231 C 0.01515 0.32321 0.59838 0.0
C232 C 0.01692 0.38192 0.53532 0.0
C233 C 0.01333 0.39525 0.65112 0.0
N234 N 0.0122 0.38484 0.85232 0.0
N235 N 0.03964 0.33579 0.40837 0.0
C236 C 0.01115 0.37229 0.74085 0.0
C237 C 0.02329 0.34661 0.51146 0.0
N238 N 0.99614 0.31389 0.79557 0.0
N239 N 0.01443 0.40263 0.44731 0.0
H240 H 0.04839 0.31098 0.3913 0.0
H241 H 0.04904 0.35264 0.34601 0.0
H242 H 0.01023 0.4288 0.45883 0.0
H243 H 0.01322 0.39294 0.36248 0.0
H244 H 0.98652 0.32216 0.87777 0.0
H245 H 0.99281 0.28725 0.77926 0.0
H246 H 0.01485 0.36925 0.91945 0.0
H247 H 0.0134 0.41103 0.87737 0.0
C248 C 0.84597 0.03043 0.91676 0.0
C249 C 0.82548 0.99837 0.92209 0.0
C250 C 0.87993 0.96804 0.857 0.0
C251 C 0.89969 1.00024 0.83932 0.0
N252 N 0.89834 0.06206 0.83125 0.0
N253 N 0.82123 0.93672 0.88246 0.0
C254 C 0.88195 0.03148 0.86443 0.0
C255 C 0.84192 0.96725 0.88708 0.0
N256 N 0.83093 0.06009 0.9599 0.0
N257 N 0.89756 0.93821 0.85165 0.0
H258 H 0.79384 0.93454 0.91089 0.0
H259 H 0.83061 0.91392 0.84319 0.0
H260 H 0.92536 0.93705 0.83312 0.0
H261 H 0.88526 0.91486 0.87721 0.0
H262 H 0.84597 0.08356 0.97162 0.0
H263 H 0.80395 0.06088 -0.00818 0.0
H264 H 0.88518 0.08493 0.8354 0.0
H265 H 0.92386 0.06416 0.78813 0.0
C266 C 0.5076 0.83343 0.9562 0.0
C267 C 0.54232 0.82009 0.95565 0.0
C268 C 0.57043 0.87123 0.86443 0.0
C269 C 0.53604 0.88564 0.87235 0.0
N270 N 0.47204 0.88204 0.93261 0.0
N271 N 0.60736 0.82703 0.92211 0.0
C272 C 0.50473 0.8673 0.92105 0.0
C273 C 0.5739 0.83908 0.91242 0.0
N274 N 0.47711 0.81285 0.98365 0.0
N275 N 0.59979 0.88836 0.81142 0.0
H276 H 0.61088 0.80363 0.95658 0.0
H277 H 0.63179 0.84113 0.90401 0.0
H278 H 0.59898 0.91298 0.78255 0.0
H279 H 0.62456 0.87761 0.7904 0.0
H280 H 0.45079 0.81937 0.97314 0.0
H281 H 0.47799 0.78772 0.00814 0.0
H282 H 0.44967 0.87237 0.98218 0.0
H283 H 0.46741 0.90495 0.8969 0.0
C284 C 0.66708 0.54268 0.9615 0.0
C285 C 0.6853 0.51179 0.95148 0.0
C286 C 0.63359 0.48146 0.85781 0.0
C287 C 0.61659 0.51324 0.85896 0.0
N288 N 0.61938 0.57521 0.90226 0.0
N289 N 0.68837 0.45237 0.8828 0.0
C290 C 0.63401 0.54414 0.90778 0.0
C291 C 0.66903 0.48118 0.89901 0.0
N292 N 0.68064 0.57034 0.02749 0.0
N293 N 0.61631 0.45161 0.81503 0.0
H294 H 0.71403 0.45113 0.91338 0.0
H295 H 0.68026 0.43035 0.8333 0.0
H296 H 0.59262 0.45092 0.77171 0.0
H297 H 0.62464 0.42715 0.82593 0.0
H298 H 0.66651 0.59226 0.05025 0.0
H299 H 0.70465 0.57015 0.06912 0.0
H300 H 0.63394 0.59877 0.91762 0.0
H301 H 0.59338 0.57803 0.87734 0.0
C302 C 0.00919 0.67114 0.74006 0.0
C303 C 0.01024 0.68317 0.85693 0.0
C304 C 0.02213 0.62513 0.90584 0.0
C305 C 0.01604 0.61189 0.79207 0.0
N306 N 0.99787 0.62269 0.60395 0.0
N307 N 1.00383 0.66763 0.05354 0.0
C308 C 0.0075 0.63496 0.71026 0.0
C309 C 0.01301 0.65916 0.94074 0.0
N310 N 0.01142 0.69411 0.65658 0.0
N311 N 0.03579 0.60551 0.98262 0.0
H312 H 0.99235 0.69063 0.08186 0.0
H313 H 1.00252 0.6498 0.1162 0.0
H314 H 0.04139 0.57982 0.96586 0.0
H315 H 0.04402 0.61588 0.06175 0.0
H316 H 0.01475 0.68673 0.56963 0.0
H317 H 0.01359 0.72076 0.67378 0.0
H318 H 0.98722 0.63801 0.54694 0.0
H319 H 0.99808 0.59684 0.57496 0.0
C320 C 0.9592 0.12294 0.52104 0.0
C321 C 0.99146 0.14486 0.52205 0.0
C322 C 0.0269 0.09605 0.54814 0.0
C323 C 0.99465 0.0738 0.55246 0.0
N324 N 0.92887 0.0677 0.56386 0.0
N325 N 0.05338 0.15451 0.57172 0.0
C326 C 0.96032 0.08771 0.54545 0.0
C327 C 0.02424 0.13212 0.54976 0.0
N328 N 0.92787 0.13568 0.49184 0.0
N329 N 0.0602 0.08274 0.53091 0.0
H330 H 0.05207 0.18117 0.57151 0.0
H331 H 0.0772 0.14679 0.60187 0.0
H332 H 0.06331 0.05657 0.51272 0.0
H333 H 0.08434 0.09786 0.51826 0.0
H334 H 0.90445 0.12034 0.47435 0.0
H335 H 0.92605 0.16183 0.48039 0.0
H336 H 0.90322 0.0774 0.57066 0.0
H337 H 0.92827 0.042 0.58327 0.0
C338 C 0.38263 0.9833 0.47342 0.0
C339 C 0.38177 0.01761 0.43989 0.0
C340 C 0.44747 0.02675 0.46029 0.0
C341 C 0.44745 0.99415 0.50602 0.0
N342 N 0.42001 0.9362 0.49786 0.0
N343 N 0.41206 0.07367 0.41702 0.0
C344 C 0.41631 0.97088 0.49757 0.0
C345 C 0.41388 0.03987 0.43882 0.0
N346 N 0.35151 0.96219 0.48061 0.0
N347 N 0.47964 0.04334 0.42515 0.0
H348 H 0.38755 0.08404 0.40346 0.0
H349 H 0.43398 0.09189 0.42281 0.0
H350 H 0.50439 0.03218 0.42654 0.0
H351 H 0.48131 0.06566 0.3806 0.0
H352 H 0.34974 0.93889 0.51964 0.0
H353 H 0.32654 0.96876 0.4563 0.0
H354 H 0.39915 0.91745 0.48221 0.0
H355 H 0.4453 0.92582 0.49547 0.0
C356 C 0.52501 0.39568 0.45544 0.0
C357 C 0.48899 0.38628 0.42559 0.0
C358 C 0.47303 0.44627 0.46111 0.0
C359 C 0.50839 0.45554 0.49759 0.0
N360 N 0.56718 0.43849 0.54217 0.0
N361 N 0.42664 0.4002 0.42726 0.0
C362 C 0.53397 0.42994 0.49985 0.0
C363 C 0.46232 0.4109 0.43792 0.0
N364 N 0.55118 0.3725 0.43481 0.0
N365 N 0.44994 0.47114 0.44527 0.0
H366 H 0.41816 0.37428 0.41114 0.0
H367 H 0.40535 0.41625 0.44587 0.0
H368 H 0.45706 0.49739 0.45737 0.0
H369 H 0.42505 0.46598 0.40906 0.0
H370 H 0.57882 0.37897 0.44055 0.0
H371 H 0.54551 0.34696 0.40527 0.0
H372 H 0.58482 0.42028 0.56098 0.0
H373 H 0.57667 0.46382 0.56311 0.0
C374 C 0.14704 0.4996 0.47804 0.0
C375 C 0.16258 0.53138 0.44127 0.0
C376 C 0.10451 0.55753 0.49011 0.0
C377 C 0.08759 0.52423 0.50745 0.0
N378 N 0.09244 0.4624 0.49233 0.0
N379 N 0.15675 0.59087 0.40811 0.0
C380 C 0.10885 0.49495 0.4959 0.0
C381 C 0.14153 0.56058 0.44716 0.0
N382 N 0.1687 0.4734 0.49188 0.0
N383 N 0.08576 0.58621 0.51774 0.0
H384 H 0.18432 0.59423 0.38251 0.0
H385 H 0.14183 0.61191 0.39643 0.0
H386 H 0.05877 0.58489 0.5493 0.0
H387 H 0.09774 0.61122 0.5182 0.0
H388 H 0.15908 0.45073 0.52919 0.0
H389 H 0.19688 0.47585 0.47742 0.0
H390 H 0.1065 0.44022 0.47374 0.0
H391 H 0.06444 0.45766 0.49281 0.0
C392 C 0.99411 0.88114 0.95241 0.0
C393 C 0.02603 0.86285 0.9398 0.0
C394 C 0.06015 0.91403 0.86748 0.0
C395 C 0.02933 0.93347 0.89697 0.0
N396 N 0.96979 0.93686 -0.00648 0.0
N397 N 0.09034 0.8619 0.8917 0.0
C398 C 0.99691 0.91734 0.94563 0.0
C399 C 0.05929 0.87916 0.89752 0.0
N400 N 0.96122 0.8638 0.97419 0.0
N401 N 0.08999 0.92867 0.80981 0.0
H402 H 0.09032 0.83599 0.90886 0.0
H403 H 0.1162 0.87363 0.87541 0.0
H404 H 0.09214 0.95449 0.79168 0.0
H405 H 0.1115 0.91477 0.77397 0.0
H406 H 0.93661 0.87537 0.97512 0.0
H407 H 0.95862 0.83708 0.97958 0.0
H408 H 0.94723 0.92659 0.04106 0.0
H409 H 0.97148 0.96374 -0.00465 0.0
C410 C 0.64238 0.05835 0.96166 0.0
C411 C 0.64429 0.02537 0.00367 0.0
C412 C 0.57886 0.01356 0.9867 0.0
C413 C 0.57759 0.04475 0.93378 0.0
N414 N 0.6034 0.10337 0.9291 0.0
N415 N 0.61595 0.9691 0.0379 0.0
C416 C 0.60813 0.0691 0.93615 0.0
C417 C 0.61296 1.00216 0.0098 0.0
N418 N 0.67314 0.07964 0.94763 0.0
N419 N 0.54743 0.99741 0.0294 0.0
H420 H 0.64084 0.95992 0.05397 0.0
H421 H 0.59453 0.95024 0.03391 0.0
H422 H 0.52219 0.00745 0.02467 0.0
H423 H 0.54695 0.97676 0.08152 0.0
H424 H 0.67414 0.10215 0.90431 0.0
H425 H 0.69852 0.0734 0.96995 0.0
H426 H 0.62401 0.12277 0.9385 0.0
H427 H 0.57775 0.11308 0.93295 0.0
C428 C 0.47042 0.64371 0.02131 0.0
C429 C 0.50525 0.6529 0.06256 0.0
C430 C 0.52254 0.59388 0.0204 0.0
C431 C 0.49018 0.58577 0.96417 0.0
N432 N 0.43275 0.60234 0.9089 0.0
N433 N 0.56723 0.63872 0.07715 0.0
C434 C 0.46381 0.61051 0.96404 0.0
C435 C 0.53221 0.62856 0.05388 0.0
N436 N 0.44349 0.66609 0.04063 0.0
N437 N 0.54303 0.56816 0.04772 0.0
H438 H 0.57577 0.66441 0.09689 0.0
H439 H 0.58838 0.62226 0.06572 0.0
H440 H 0.53546 0.5421 0.03052 0.0
H441 H 0.56505 0.57254 0.09881 0.0
H442 H 0.41653 0.65964 0.02339 0.0
H443 H 0.44772 0.69065 0.08069 0.0
H444 H 0.41426 0.62027 0.89452 0.0
H445 H 0.42632 0.57764 0.87265 0.0
C446 C 0.88959 0.53611 0.0217 0.0
C447 C 0.86715 0.50541 0.00458 0.0
C448 C 0.91928 0.47479 0.92363 0.0
C449 C 0.94215 0.50547 0.93975 0.0
N450 N 0.94809 0.56677 0.98751 0.0
N451 N 0.858 0.44872 0.91267 0.0
C452 C 0.92699 0.53662 0.98387 0.0
C453 C 0.88116 0.47593 0.94549 0.0
N454 N 0.87517 0.5643 0.07889 0.0
N455 N 0.93419 0.44392 0.89614 0.0
H456 H 0.82994 0.44868 0.92971 0.0
H457 H 0.86613 0.42787 0.85885 0.0
H458 H 0.96209 0.44141 0.88867 0.0
H459 H 0.91924 0.42024 0.89377 0.0
H460 H 0.89062 0.58602 0.10872 0.0
H461 H 0.84735 0.56532 0.1003 0.0
H462 H 0.93799 0.59099 0.00484 0.0
H463 H 0.97582 0.56766 0.96694 0.0
C464 C 0.04897 0.17303 0.10582 0.0
C465 C 0.01439 0.18531 0.13813 0.0
C466 C 0.98666 0.14711 -0.0095 0.0
C467 C 0.02028 0.13132 0.96919 0.0
N468 N 0.08543 0.13673 0.97325 0.0
N469 N 0.95443 0.19437 0.0875 0.0
C470 C 0.05224 0.14697 0.01565 0.0
C471 C 0.98474 0.1761 0.07064 0.0
N472 N 0.07786 0.18465 0.16754 0.0
N473 N 0.95606 0.13295 0.94207 0.0
H474 H 0.93254 0.19095 0.03579 0.0
H475 H 0.95295 0.21539 0.14748 0.0
H476 H 0.95616 0.1124 0.8808 0.0
H477 H 0.93004 0.1406 0.96591 0.0
H478 H 0.10299 0.17396 0.15865 0.0
H479 H 0.07595 0.20479 0.23082 0.0
H480 H 0.11001 0.14865 -0.0022 0.0
H481 H 0.08827 0.11817 0.90519 0.0
C482 C 0.36326 0.98396 0.03826 0.0
C483 C 0.34508 0.01463 0.05373 0.0
C484 C 0.38136 0.03506 0.88735 0.0
C485 C 0.40797 0.01125 0.90397 0.0
N486 N 0.42422 0.96686 0.02622 0.0
N487 N 0.33479 0.06943 0.98457 0.0
C488 C 0.39877 0.9858 0.98544 0.0
C489 C 0.35306 0.0401 0.97436 0.0
N490 N 0.34932 0.95548 0.0913 0.0
N491 N 0.38205 0.05169 0.78864 0.0
H492 H 0.31323 0.07284 0.04578 0.0
H493 H 0.3422 0.09041 0.93547 0.0
H494 H 0.39923 0.0453 0.71718 0.0
H495 H 0.36203 0.06794 0.77248 0.0
H496 H 0.36138 0.93194 0.07996 0.0
H497 H 0.32397 0.95514 0.13679 0.0
H498 H 0.41772 0.94936 0.089 0.0
H499 H 0.45206 0.97269 0.01554 0.0
C500 C 0.49981 0.34243 0.97191 0.0
C501 C 0.46722 0.33668 0.04047 0.0
C502 C 0.4384 0.38056 0.94691 0.0
C503 C 0.47287 0.39057 0.89488 0.0
N504 N 0.53269 0.3755 0.82427 0.0
N505 N 0.40282 0.34 0.06616 0.0
C506 C 0.50229 0.36919 0.89474 0.0
C507 C 0.43531 0.35191 0.01627 0.0
N508 N 0.52894 0.32419 0.98893 0.0
N509 N 0.40949 0.39966 0.93452 0.0
H510 H 0.40105 0.31911 0.11787 0.0
H511 H 0.37785 0.34883 0.05047 0.0
H512 H 0.41119 0.41994 0.88031 0.0
H513 H 0.38417 0.39586 0.97796 0.0
H514 H 0.55492 0.32902 0.95103 0.0
H515 H 0.52671 0.30399 0.04351 0.0
H516 H 0.55469 0.36007 0.81564 0.0
H517 H 0.5347 0.39515 0.76764 0.0
C518 C 0.20402 0.53721 0.98517 0.0
C519 C 0.21041 0.509 0.048 0.0
C520 C 0.16505 0.47315 0.94358 0.0
C521 C 0.15183 0.50356 0.90671 0.0
N522 N 0.16016 0.56535 0.88738 0.0
N523 N 0.20195 0.44866 0.07691 0.0
C524 C 0.17236 0.53574 0.92239 0.0
C525 C 0.19318 0.47618 0.02099 0.0
N526 N 0.22727 0.56596 -0.00805 0.0
N527 N 0.15061 0.44163 0.90459 0.0
H528 H 0.22344 0.45057 0.13072 0.0
H529 H 0.18753 0.42472 0.07293 0.0
H530 H 0.13058 0.43893 0.84556 0.0
H531 H 0.16071 0.41841 0.92189 0.0
H532 H 0.22609 0.58682 0.94182 0.0
H533 H 0.25004 0.56706 0.04029 0.0
H534 H 0.17183 0.58983 0.90908 0.0
H535 H 0.13697 0.56615 0.84277 0.0
C536 C 0.97704 0.82941 0.35419 0.0
C537 C 0.01252 0.81953 0.32038 0.0
C538 C 0.03835 0.86052 0.46435 0.0
C539 C 1.00378 0.87441 0.48367 0.0
N540 N 0.93885 0.86662 0.47849 0.0
N541 N 0.07412 0.81589 0.36519 0.0
C542 C 0.9725 0.85674 0.43954 0.0
C543 C 0.04216 0.83149 0.38501 0.0
N544 N 0.94846 0.81438 0.2971 0.0
N545 N 0.06769 0.87649 0.51559 0.0
H546 H 0.07663 0.79473 0.30606 0.0
H547 H 0.09683 0.82183 0.41213 0.0
H548 H 0.06558 0.8974 0.57561 0.0
H549 H 0.0943 0.86977 0.49723 0.0
H550 H 0.92216 0.82248 0.30736 0.0
H551 H 0.95166 0.79356 0.23701 0.0
H552 H 0.9146 0.85384 0.45485 0.0
H553 H 0.93528 0.88651 0.54185 0.0
C554 C 0.66868 0.04699 0.45261 0.0
C555 C 0.6777 0.01561 0.39282 0.0
C556 C 0.62544 0.98502 0.48701 0.0
C557 C 0.61475 0.01683 0.54182 0.0
N558 N 0.63173 0.07566 0.60483 0.0
N559 N 0.67375 0.95394 0.38453 0.0
C560 C 0.63829 0.04711 0.53408 0.0
C561 C 0.65944 0.98427 0.42326 0.0
N562 N 0.68785 0.07682 0.42503 0.0
N563 N 0.60195 0.95627 0.48691 0.0
H564 H 0.69846 0.95341 0.33577 0.0
H565 H 0.66325 0.92999 0.41034 0.0
H566 H 0.5757 0.956 0.52554 0.0
H567 H 0.60711 0.93345 0.43879 0.0
H568 H 0.68021 0.10128 0.45433 0.0
H569 H 0.71102 0.0767 0.36871 0.0
H570 H 0.64957 0.09753 0.60985 0.0
H571 H 0.60986 0.07629 0.66593 0.0
C572 C 0.52619 0.69995 0.52432 0.0
C573 C 0.54936 0.70097 0.42333 0.0
C574 C 0.58649 0.65826 0.49313 0.0
C575 C 0.55831 0.65152 0.57787 0.0
N576 N 0.51511 0.6781 0.7134 0.0
N577 N 0.60619 0.68838 0.32232 0.0
C578 C 0.53258 0.67651 0.60699 0.0
C579 C 0.58177 0.68317 0.41333 0.0
N580 N 0.4968 0.71951 0.53648 0.0
N581 N 0.61745 0.64102 0.49086 0.0
H582 H 0.60342 0.70744 0.2659 0.0
H583 H 0.62874 0.67409 0.30196 0.0
H584 H 0.62177 0.62466 0.55463 0.0
H585 H 0.63984 0.64498 0.43346 0.0
H586 H 0.47631 0.717 0.60148 0.0
H587 H 0.49262 0.73763 0.47805 0.0
H588 H 0.49736 0.69694 0.74187 0.0
H589 H 0.52217 0.66318 0.77786 0.0
C590 C 0.8262 0.52277 0.45517 0.0
C591 C 0.81758 0.49098 0.39474 0.0
C592 C 0.86258 0.46378 0.49539 0.0
C593 C 0.87754 0.4971 0.52994 0.0
N594 N 0.87183 0.55862 0.55495 0.0
N595 N 0.82159 0.42987 0.37107 0.0
C596 C 0.85819 0.52668 0.51686 0.0
C597 C 0.83316 0.46079 0.42269 0.0
N598 N 0.80467 0.54943 0.44733 0.0
N599 N 0.87675 0.43532 0.53183 0.0
H600 H 0.7993 0.4277 0.32041 0.0
H601 H 0.83422 0.40702 0.37584 0.0
H602 H 0.89791 0.43714 0.5868 0.0
H603 H 0.86576 0.41025 0.51592 0.0
H604 H 0.80766 0.57298 0.4945 0.0
H605 H 0.78153 0.54645 0.40054 0.0
H606 H 0.86118 0.5815 0.53683 0.0
H607 H 0.89506 0.56254 0.60076 0.0
loop_
_geom_bond_atom_site_label_1
_geom_bond_atom_site_label_2
_geom_bond_distance
_geom_bond_site_symmetry_2
_ccdc_geom_bond_type
H0 C5 0.930 . S
H1 C8 0.930 . S
H2 C10 0.930 . S
H3 C4 1.016 . S
C4 H3 1.016 . S
C4 N11 1.286 1_556 S
C5 H0 0.930 . S
C5 C6 1.397 . S
C5 C7 1.361 . S
C6 C5 1.397 . S
C6 C10 1.390 . S
C7 C5 1.361 . S
C7 C8 1.393 1_554 S
C7 N11 1.413 . S
C8 H1 0.930 . S
C8 C7 1.393 1_556 S
C8 C9 1.399 . S
C9 C8 1.399 . S
C9 C10 1.381 1_556 S
C10 H2 0.930 . S
C10 C6 1.390 . S
C10 C9 1.381 1_554 S
N11 C4 1.286 1_554 S
N11 C7 1.413 . S
H12 C17 0.930 . S
H13 C20 0.930 . S
H14 C22 0.930 . S
H15 C16 1.016 . S
C16 H15 1.016 . S
C16 N23 1.286 1_556 S
C17 H12 0.930 . S
C17 C18 1.397 . S
C17 C19 1.361 . S
C18 C17 1.397 . S
C18 C22 1.390 . S
C19 C17 1.361 . S
C19 C20 1.393 1_554 S
C19 N23 1.413 . S
C20 H13 0.930 . S
C20 C19 1.393 1_556 S
C20 C21 1.399 . S
C21 C20 1.399 . S
C21 C22 1.381 1_556 S
C22 H14 0.930 . S
C22 C18 1.390 . S
C22 C21 1.381 1_554 S
N23 C16 1.286 1_554 S
N23 C19 1.413 . S
H24 C29 0.930 . S
H25 C32 0.930 1_556 S
H26 C34 0.930 . S
H27 C28 1.016 1_556 S
C28 H27 1.016 1_554 S
C28 N35 1.286 . S
C29 H24 0.930 . S
C29 C30 1.397 . S
C29 C31 1.361 . S
C30 C29 1.397 . S
C30 C34 1.390 . S
C31 C29 1.361 . S
C31 C32 1.393 . S
C31 N35 1.413 . S
C32 H25 0.930 1_554 S
C32 C31 1.393 . S
C32 C33 1.399 . S
C33 C32 1.399 . S
C33 C34 1.381 . S
C34 H26 0.930 . S
C34 C30 1.390 . S
C34 C33 1.381 . S
N35 C28 1.286 . S
N35 C31 1.413 . S
H36 C41 0.930 . S
H37 C44 0.930 1_556 S
H38 C46 0.930 . S
H39 C40 1.016 1_556 S
C40 H39 1.016 1_554 S
C40 N47 1.286 . S
C41 H36 0.930 . S
C41 C42 1.397 . S
C41 C43 1.361 . S
C42 C41 1.397 . S
C42 C46 1.390 . S
C43 C41 1.361 . S
C43 C44 1.393 . S
C43 N47 1.413 . S
C44 H37 0.930 1_554 S
C44 C43 1.393 . S
C44 C45 1.399 . S
C45 C44 1.399 . S
C45 C46 1.381 . S
C46 H38 0.930 . S
C46 C42 1.390 . S
C46 C45 1.381 . S
N47 C40 1.286 . S
N47 C43 1.413 . S
H48 C53 0.930 . S
H49 C56 0.930 . S
H50 C58 0.930 . S
H51 C52 1.016 . S
C52 H51 1.016 . S
C52 N59 1.286 . S
C53 H48 0.930 . S
C53 C54 1.397 . S
C53 C55 1.361 . S
C54 C53 1.397 . S
C54 C58 1.390 . S
C55 C53 1.361 . S
C55 C56 1.393 . S
C55 N59 1.413 . S
C56 H49 0.930 . S
C56 C55 1.393 . S
C56 C57 1.399 . S
C57 C56 1.399 . S
C57 C58 1.381 . S
C58 H50 0.930 . S
C58 C54 1.390 . S
C58 C57 1.381 . S
N59 C52 1.286 . S
N59 C55 1.413 . S
H60 C65 0.930 . S
H61 C68 0.930 . S
H62 C70 0.930 . S
H63 C64 1.016 . S
C64 H63 1.016 . S
C64 N71 1.286 . S
C65 H60 0.930 . S
C65 C66 1.397 . S
C65 C67 1.361 . S
C66 C65 1.397 . S
C66 C70 1.390 . S
C67 C65 1.361 . S
C67 C68 1.393 . S
C67 N71 1.413 . S
C68 H61 0.930 . S
C68 C67 1.393 . S
C68 C69 1.399 . S
C69 C68 1.399 . S
C69 C70 1.381 . S
C70 H62 0.930 . S
C70 C66 1.390 . S
C70 C69 1.381 . S
N71 C64 1.286 . S
N71 C67 1.413 . S
H72 C77 0.930 . S
H73 C80 0.930 . S
H74 C82 0.930 . S
H75 C76 1.016 . S
C76 H75 1.016 . S
C76 N83 1.286 . S
C77 H72 0.930 . S
C77 C78 1.397 . S
C77 C79 1.361 . S
C78 C77 1.397 . S
C78 C82 1.390 . S
C79 C77 1.361 . S
C79 C80 1.393 . S
C79 N83 1.413 . S
C80 H73 0.930 . S
C80 C79 1.393 . S
C80 C81 1.399 . S
C81 C80 1.399 . S
C81 C82 1.381 . S
C82 H74 0.930 . S
C82 C78 1.390 . S
C82 C81 1.381 . S
N83 C76 1.286 . S
N83 C79 1.413 . S
H84 C89 0.930 . S
H85 C92 0.930 . S
H86 C94 0.930 . S
H87 C88 1.016 . S
C88 H87 1.016 . S
C88 N95 1.286 . S
C89 H84 0.930 . S
C89 C90 1.397 . S
C89 C91 1.361 . S
C90 C89 1.397 . S
C90 C94 1.390 . S
C91 C89 1.361 . S
C91 C92 1.393 . S
C91 N95 1.413 . S
C92 H85 0.930 . S
C92 C91 1.393 . S
C92 C93 1.399 . S
C93 C92 1.399 . S
C93 C94 1.381 . S
C94 H86 0.930 . S
C94 C90 1.390 . S
C94 C93 1.381 . S
N95 C88 1.286 . S
N95 C91 1.413 . S
Tb96 O99 2.453 1_565 S
Tb96 O100 2.596 1_665 S
Tb96 O101 2.374 1_665 S
Tb96 O109 2.340 1_655 S
Tb96 O111 2.353 1_565 S
Tb96 O113 2.427 . S
Tb96 O114 2.513 1_655 S
C97 O101 1.251 . S
C97 O103 1.263 . S
Tb98 O100 2.343 . S
Tb98 O103 2.353 . S
Tb98 O106 2.427 . S
Tb98 O107 2.513 1_455 S
Tb98 O108 2.453 1_545 S
Tb98 O109 2.600 1_545 S
Tb98 O110 2.374 1_455 S
O99 Tb96 2.453 1_545 S
O99 C115 1.245 1_655 S
O100 Tb96 2.596 1_445 S
O100 Tb98 2.343 . S
O100 C115 1.259 . S
O101 Tb96 2.374 1_445 S
O101 C97 1.251 . S
C102 O106 1.275 . S
C102 O107 1.246 1_455 S
O103 C97 1.263 . S
O103 Tb98 2.353 . S
C104 O108 1.245 . S
C104 O109 1.261 . S
C105 O110 1.250 . S
C105 O111 1.263 . S
O106 Tb98 2.427 . S
O106 C102 1.275 . S
O107 Tb98 2.513 1_655 S
O107 C102 1.246 1_655 S
O108 Tb98 2.453 1_565 S
O108 C104 1.245 . S
O109 Tb96 2.340 1_455 S
O109 Tb98 2.600 1_565 S
O109 C104 1.261 . S
O110 Tb98 2.374 1_655 S
O110 C105 1.250 . S
O111 Tb96 2.353 1_545 S
O111 C105 1.263 . S
C112 O113 1.275 . S
C112 O114 1.246 1_655 S
O113 Tb96 2.427 . S
O113 C112 1.275 . S
O114 Tb96 2.513 1_455 S
O114 C112 1.246 1_455 S
C115 O99 1.245 1_455 S
C115 O100 1.259 . S
Tb116 O119 2.453 . S
Tb116 O120 2.596 1_545 S
Tb116 O121 2.374 . S
Tb116 O129 2.343 . S
Tb116 O131 2.353 . S
Tb116 O133 2.427 . S
Tb116 O134 2.513 . S
C117 O121 1.231 1_565 S
C117 O123 1.278 . S
Tb118 O120 2.343 . S
Tb118 O123 2.353 . S
Tb118 O126 2.427 . S
Tb118 O127 2.513 . S
Tb118 O128 2.453 . S
Tb118 O129 2.596 1_565 S
Tb118 O130 2.374 . S
O119 Tb116 2.453 . S
O119 C135 1.245 . S
O120 Tb116 2.596 1_565 S
O120 Tb118 2.343 . S
O120 C135 1.259 1_565 S
O121 Tb116 2.374 . S
O121 C117 1.231 1_545 S
C122 O126 1.275 . S
C122 O127 1.246 . S
O123 C117 1.278 . S
O123 Tb118 2.353 . S
C124 O128 1.245 1_545 S
C124 O129 1.259 . S
C125 O130 1.250 1_545 S
C125 O131 1.263 . S
O126 Tb118 2.427 . S
O126 C122 1.275 . S
O127 Tb118 2.513 . S
O127 C122 1.246 . S
O128 Tb118 2.453 . S
O128 C124 1.245 1_565 S
O129 Tb116 2.343 . S
O129 Tb118 2.596 1_545 S
O129 C124 1.259 . S
O130 Tb118 2.374 . S
O130 C125 1.250 1_565 S
O131 Tb116 2.353 . S
O131 C125 1.263 . S
C132 O133 1.275 . S
C132 O134 1.246 . S
O133 Tb116 2.427 . S
O133 C132 1.275 . S
O134 Tb116 2.513 . S
O134 C132 1.246 . S
C135 O119 1.245 . S
C135 O120 1.259 1_545 S
Tb136 O139 2.453 . S
Tb136 O140 2.596 . S
Tb136 O141 2.374 . S
Tb136 O149 2.343 . S
Tb136 O151 2.353 . S
Tb136 O153 2.427 . S
Tb136 O154 2.513 . S
C137 O141 1.251 . S
C137 O143 1.263 . S
Tb138 O140 2.343 . S
Tb138 O143 2.353 . S
Tb138 O146 2.427 . S
Tb138 O147 2.513 . S
Tb138 O148 2.453 . S
Tb138 O149 2.596 . S
Tb138 O150 2.374 . S
O139 Tb136 2.453 . S
O139 C155 1.245 . S
O140 Tb136 2.596 . S
O140 Tb138 2.343 . S
O140 C155 1.259 . S
O141 Tb136 2.374 . S
O141 C137 1.251 . S
C142 O146 1.275 . S
C142 O147 1.246 . S
O143 C137 1.263 . S
O143 Tb138 2.353 . S
C144 O148 1.245 . S
C144 O149 1.259 . S
C145 O150 1.250 . S
C145 O151 1.263 . S
O146 Tb138 2.427 . S
O146 C142 1.275 . S
O147 Tb138 2.513 . S
O147 C142 1.246 . S
O148 Tb138 2.453 . S
O148 C144 1.245 . S
O149 Tb136 2.343 . S
O149 Tb138 2.596 . S
O149 C144 1.259 . S
O150 Tb138 2.374 . S
O150 C145 1.250 . S
O151 Tb136 2.353 . S
O151 C145 1.263 . S
C152 O153 1.275 . S
C152 O154 1.246 . S
O153 Tb136 2.427 . S
O153 C152 1.275 . S
O154 Tb136 2.513 . S
O154 C152 1.246 . S
C155 O139 1.245 . S
C155 O140 1.259 . S
Tb156 O159 2.453 1_655 S
Tb156 O160 2.596 1_655 S
Tb156 O161 2.374 1_655 S
Tb156 O169 2.343 . S
Tb156 O171 2.353 1_655 S
Tb156 O173 2.427 . S
Tb156 O174 2.513 . S
C157 O161 1.251 . S
C157 O163 1.263 . S
Tb158 O160 2.343 . S
Tb158 O163 2.353 . S
Tb158 O166 2.427 . S
Tb158 O167 2.513 . S
Tb158 O168 2.453 1_455 S
Tb158 O169 2.596 1_455 S
Tb158 O170 2.374 . S
O159 Tb156 2.453 1_455 S
O159 C175 1.245 . S
O160 Tb156 2.596 1_455 S
O160 Tb158 2.343 . S
O160 C175 1.259 . S
O161 Tb156 2.374 1_455 S
O161 C157 1.251 . S
C162 O166 1.275 . S
C162 O167 1.246 . S
O163 C157 1.263 . S
O163 Tb158 2.353 . S
C164 O168 1.245 . S
C164 O169 1.259 . S
C165 O170 1.259 . S
C165 O171 1.263 . S
O166 Tb158 2.427 . S
O166 C162 1.275 . S
O167 Tb158 2.513 . S
O167 C162 1.246 . S
O168 Tb158 2.453 1_655 S
O168 C164 1.245 . S
O169 Tb156 2.343 . S
O169 Tb158 2.596 1_655 S
O169 C164 1.259 . S
O170 Tb158 2.374 . S
O170 C165 1.259 . S
O171 Tb156 2.353 1_455 S
O171 C165 1.263 . S
C172 O173 1.275 . S
C172 O174 1.246 . S
O173 Tb156 2.427 . S
O173 C172 1.275 . S
O174 Tb156 2.513 . S
O174 C172 1.246 . S
C175 O159 1.245 . S
C175 O160 1.259 . S
C176 C177 1.363 . S
C176 C182 1.379 . S
C176 N184 1.356 . S
C177 C176 1.363 . S
C177 C183 1.363 . S
C178 C179 1.363 . S
C178 C183 1.379 . S
C178 N185 1.356 . S
C179 C178 1.363 . S
C179 C182 1.363 . S
N180 C182 1.356 . S
N180 H192 0.984 . S
N180 H193 0.985 . S
N181 C183 1.356 . S
N181 H186 0.984 . S
N181 H187 0.985 . S
C182 C176 1.379 . S
C182 C179 1.363 . S
C182 N180 1.356 . S
C183 C177 1.363 . S
C183 C178 1.379 . S
C183 N181 1.356 . S
N184 C176 1.356 . S
N184 H190 0.984 . S
N184 H191 0.984 . S
N185 C178 1.356 . S
N185 H188 0.984 . S
N185 H189 0.985 . S
H186 N181 0.984 . S
H187 N181 0.985 . S
H188 N185 0.984 . S
H189 N185 0.985 . S
H190 N184 0.984 . S
H191 N184 0.984 . S
H192 N180 0.984 . S
H193 N180 0.985 . S
C194 C195 1.363 . S
C194 C200 1.379 . S
C194 N202 1.356 . S
C195 C194 1.363 . S
C195 C201 1.363 . S
C196 C197 1.363 . S
C196 C201 1.379 . S
C196 N203 1.356 . S
C197 C196 1.363 . S
C197 C200 1.363 . S
N198 C200 1.356 . S
N198 H210 0.984 . S
N198 H211 0.985 . S
N199 C201 1.356 . S
N199 H204 0.984 . S
N199 H205 0.985 . S
C200 C194 1.379 . S
C200 C197 1.363 . S
C200 N198 1.356 . S
C201 C195 1.363 . S
C201 C196 1.379 . S
C201 N199 1.356 . S
N202 C194 1.356 . S
N202 H208 0.984 . S
N202 H209 0.984 . S
N203 C196 1.356 . S
N203 H206 0.984 . S
N203 H207 0.985 . S
H204 N199 0.984 . S
H205 N199 0.985 . S
H206 N203 0.984 . S
H207 N203 0.985 . S
H208 N202 0.984 . S
H209 N202 0.984 . S
H210 N198 0.984 . S
H211 N198 0.985 . S
C212 C213 1.363 . S
C212 C218 1.379 . S
C212 N220 1.356 . S
C213 C212 1.363 . S
C213 C219 1.363 . S
C214 C215 1.363 . S
C214 C219 1.379 . S
C214 N221 1.356 . S
C215 C214 1.363 . S
C215 C218 1.363 . S
N216 C218 1.356 . S
N216 H228 0.984 . S
N216 H229 0.985 . S
N217 C219 1.356 . S
N217 H222 0.984 . S
N217 H223 0.985 . S
C218 C212 1.379 . S
C218 C215 1.363 . S
C218 N216 1.356 . S
C219 C213 1.363 . S
C219 C214 1.379 . S
C219 N217 1.356 . S
N220 C212 1.356 . S
N220 H226 0.984 . S
N220 H227 0.984 . S
N221 C214 1.356 . S
N221 H224 0.984 . S
N221 H225 0.985 . S
H222 N217 0.984 . S
H223 N217 0.985 . S
H224 N221 0.984 . S
H225 N221 0.985 . S
H226 N220 0.984 . S
H227 N220 0.984 . S
H228 N216 0.984 . S
H229 N216 0.985 . S
C230 C231 1.363 . S
C230 C236 1.379 . S
C230 N238 1.356 . S
C231 C230 1.363 . S
C231 C237 1.363 . S
C232 C233 1.363 . S
C232 C237 1.379 . S
C232 N239 1.356 . S
C233 C232 1.363 . S
C233 C236 1.363 . S
N234 C236 1.356 1_655 S
N234 H246 0.984 . S
N234 H247 0.985 . S
N235 C237 1.356 . S
N235 H240 0.984 . S
N235 H241 0.985 . S
C236 C230 1.379 . S
C236 C233 1.363 . S
C236 N234 1.356 1_455 S
C237 C231 1.363 . S
C237 C232 1.379 . S
C237 N235 1.356 . S
N238 C230 1.356 . S
N238 H244 0.984 . S
N238 H245 0.984 . S
N239 C232 1.356 . S
N239 H242 0.984 . S
N239 H243 0.985 . S
H240 N235 0.984 . S
H241 N235 0.985 . S
H242 N239 0.984 . S
H243 N239 0.985 . S
H244 N238 0.984 . S
H245 N238 0.984 . S
H246 N234 0.984 . S
H247 N234 0.985 . S
C248 C249 1.363 1_554 S
C248 C254 1.379 1_564 S
C248 N256 1.356 1_565 S
C249 C248 1.363 1_556 S
C249 C255 1.363 . S
C250 C251 1.363 . S
C250 C255 1.379 . S
C250 N257 1.356 . S
C251 C250 1.363 . S
C251 C254 1.363 1_565 S
N252 C254 1.354 1_554 S
N252 H264 0.992 . S
N252 H265 0.980 1_554 S
N253 C255 1.356 . S
N253 H258 0.984 . S
N253 H259 0.985 . S
C254 C248 1.379 1_546 S
C254 C251 1.363 1_545 S
C254 N252 1.354 1_556 S
C255 C249 1.363 . S
C255 C250 1.379 . S
C255 N253 1.356 . S
N256 C248 1.356 1_545 S
N256 H262 0.984 . S
N256 H263 0.984 1_545 S
N257 C250 1.356 . S
N257 H260 0.984 . S
N257 H261 0.985 . S
H258 N253 0.984 . S
H259 N253 0.985 . S
H260 N257 0.984 . S
H261 N257 0.985 . S
H262 N256 0.984 . S
H263 N256 0.984 1_565 S
H264 N252 0.992 . S
H265 N252 0.980 1_556 S
C266 C267 1.363 1_554 S
C266 C272 1.379 1_554 S
C266 N274 1.356 . S
C267 C266 1.363 1_556 S
C267 C273 1.363 . S
C268 C269 1.363 . S
C268 C273 1.379 . S
C268 N275 1.356 . S
C269 C268 1.363 . S
C269 C272 1.363 . S
N270 C272 1.356 . S
N270 H282 0.984 1_556 S
N270 H283 0.985 . S
N271 C273 1.356 . S
N271 H276 0.984 . S
N271 H277 0.985 . S
C272 C266 1.379 1_556 S
C272 C269 1.363 . S
C272 N270 1.356 . S
C273 C267 1.363 . S
C273 C268 1.379 . S
C273 N271 1.356 . S
N274 C266 1.356 . S
N274 H280 0.984 . S
N274 H281 0.984 . S
N275 C268 1.356 . S
N275 H278 0.984 . S
N275 H279 0.985 . S
H276 N271 0.984 . S
H277 N271 0.985 . S
H278 N275 0.984 . S
H279 N275 0.985 . S
H280 N274 0.984 . S
H281 N274 0.984 . S
H282 N270 0.984 1_554 S
H283 N270 0.985 . S
C284 C285 1.363 . S
C284 C290 1.379 . S
C284 N292 1.356 1_556 S
C285 C284 1.363 . S
C285 C291 1.363 . S
C286 C287 1.363 . S
C286 C291 1.379 . S
C286 N293 1.356 . S
C287 C286 1.363 . S
C287 C290 1.363 . S
N288 C290 1.356 . S
N288 H300 0.984 . S
N288 H301 0.985 . S
N289 C291 1.356 . S
N289 H294 0.984 . S
N289 H295 0.985 . S
C290 C284 1.379 . S
C290 C287 1.363 . S
C290 N288 1.356 . S
C291 C285 1.363 . S
C291 C286 1.379 . S
C291 N289 1.356 . S
N292 C284 1.356 1_554 S
N292 H298 0.984 . S
N292 H299 0.984 . S
N293 C286 1.356 . S
N293 H296 0.984 . S
N293 H297 0.985 . S
H294 N289 0.984 . S
H295 N289 0.985 . S
H296 N293 0.984 . S
H297 N293 0.985 . S
H298 N292 0.984 . S
H299 N292 0.984 . S
H300 N288 0.984 . S
H301 N288 0.985 . S
C302 C303 1.363 . S
C302 C308 1.379 . S
C302 N310 1.356 . S
C303 C302 1.363 . S
C303 C309 1.363 . S
C304 C305 1.363 . S
C304 C309 1.379 . S
C304 N311 1.356 1_655 S
C305 C304 1.363 . S
C305 C308 1.363 . S
N306 C308 1.356 . S
N306 H318 0.984 . S
N306 H319 0.985 . S
N307 C309 1.356 1_554 S
N307 H312 0.984 . S
N307 H313 0.985 1_655 S
C308 C302 1.379 . S
C308 C305 1.363 . S
C308 N306 1.356 . S
C309 C303 1.363 . S
C309 C304 1.379 . S
C309 N307 1.356 1_556 S
N310 C302 1.356 . S
N310 H316 0.984 . S
N310 H317 0.984 . S
N311 C304 1.356 1_455 S
N311 H314 0.984 . S
N311 H315 0.985 1_556 S
H312 N307 0.984 . S
H313 N307 0.985 1_455 S
H314 N311 0.984 . S
H315 N311 0.985 1_554 S
H316 N310 0.984 . S
H317 N310 0.984 . S
H318 N306 0.984 . S
H319 N306 0.985 . S
C320 C321 1.363 . S
C320 C326 1.379 . S
C320 N328 1.356 . S
C321 C320 1.363 . S
C321 C327 1.363 . S
C322 C323 1.363 . S
C322 C327 1.379 . S
C322 N329 1.356 . S
C323 C322 1.363 . S
C323 C326 1.363 . S
N324 C326 1.356 1_655 S
N324 H336 0.984 . S
N324 H337 0.985 . S
N325 C327 1.356 . S
N325 H330 0.984 . S
N325 H331 0.985 . S
C326 C320 1.379 . S
C326 C323 1.363 . S
C326 N324 1.356 1_455 S
C327 C321 1.363 . S
C327 C322 1.379 . S
C327 N325 1.356 . S
N328 C320 1.356 . S
N328 H334 0.984 . S
N328 H335 0.984 . S
N329 C322 1.356 . S
N329 H332 0.984 . S
N329 H333 0.985 . S
H330 N325 0.984 . S
H331 N325 0.985 . S
H332 N329 0.984 . S
H333 N329 0.985 . S
H334 N328 0.984 . S
H335 N328 0.984 . S
H336 N324 0.984 . S
H337 N324 0.985 . S
C338 C339 1.363 . S
C338 C344 1.379 . S
C338 N346 1.356 1_545 S
C339 C338 1.363 . S
C339 C345 1.363 . S
C340 C341 1.363 . S
C340 C345 1.379 . S
C340 N347 1.356 . S
C341 C340 1.363 . S
C341 C344 1.363 . S
N342 C344 1.356 1_565 S
N342 H354 0.984 . S
N342 H355 0.985 . S
N343 C345 1.356 . S
N343 H348 0.984 . S
N343 H349 0.985 . S
C344 C338 1.379 . S
C344 C341 1.363 . S
C344 N342 1.356 1_545 S
C345 C339 1.363 . S
C345 C340 1.379 . S
C345 N343 1.356 . S
N346 C338 1.356 1_565 S
N346 H352 0.984 . S
N346 H353 0.984 1_565 S
N347 C340 1.356 . S
N347 H350 0.984 . S
N347 H351 0.985 . S
H348 N343 0.984 . S
H349 N343 0.985 . S
H350 N347 0.984 . S
H351 N347 0.985 . S
H352 N346 0.984 . S
H353 N346 0.984 1_545 S
H354 N342 0.984 . S
H355 N342 0.985 . S
C356 C357 1.363 . S
C356 C362 1.379 . S
C356 N364 1.356 . S
C357 C356 1.363 . S
C357 C363 1.363 . S
C358 C359 1.363 . S
C358 C363 1.379 . S
C358 N365 1.356 . S
C359 C358 1.363 . S
C359 C362 1.363 . S
N360 C362 1.356 . S
N360 H372 0.984 . S
N360 H373 0.985 . S
N361 C363 1.356 . S
N361 H366 0.984 . S
N361 H367 0.985 . S
C362 C356 1.379 . S
C362 C359 1.363 . S
C362 N360 1.356 . S
C363 C357 1.363 . S
C363 C358 1.379 . S
C363 N361 1.356 . S
N364 C356 1.356 . S
N364 H370 0.984 . S
N364 H371 0.984 . S
N365 C358 1.356 . S
N365 H368 0.984 . S
N365 H369 0.985 . S
H366 N361 0.984 . S
H367 N361 0.985 . S
H368 N365 0.984 . S
H369 N365 0.985 . S
H370 N364 0.984 . S
H371 N364 0.984 . S
H372 N360 0.984 . S
H373 N360 0.985 . S
C374 C375 1.363 . S
C374 C380 1.379 . S
C374 N382 1.356 . S
C375 C374 1.363 . S
C375 C381 1.363 . S
C376 C377 1.363 . S
C376 C381 1.379 . S
C376 N383 1.356 . S
C377 C376 1.363 . S
C377 C380 1.363 . S
N378 C380 1.356 . S
N378 H390 0.984 . S
N378 H391 0.985 . S
N379 C381 1.356 . S
N379 H384 0.984 . S
N379 H385 0.985 . S
C380 C374 1.379 . S
C380 C377 1.363 . S
C380 N378 1.356 . S
C381 C375 1.363 . S
C381 C376 1.379 . S
C381 N379 1.356 . S
N382 C374 1.356 . S
N382 H388 0.984 . S
N382 H389 0.984 . S
N383 C376 1.356 . S
N383 H386 0.984 . S
N383 H387 0.985 . S
H384 N379 0.984 . S
H385 N379 0.985 . S
H386 N383 0.984 . S
H387 N383 0.985 . S
H388 N382 0.984 . S
H389 N382 0.984 . S
H390 N378 0.984 . S
H391 N378 0.985 . S
C392 C393 1.363 . S
C392 C398 1.379 . S
C392 N400 1.356 1_556 S
C393 C392 1.363 . S
C393 C399 1.363 . S
C394 C395 1.363 . S
C394 C399 1.379 . S
C394 N401 1.356 1_655 S
C395 C394 1.363 . S
C395 C398 1.363 . S
N396 C398 1.356 . S
N396 H408 0.984 1_556 S
N396 H409 0.985 . S
N397 C399 1.356 . S
N397 H402 0.984 . S
N397 H403 0.985 1_655 S
C398 C392 1.379 . S
C398 C395 1.363 . S
C398 N396 1.356 . S
C399 C393 1.363 . S
C399 C394 1.379 . S
C399 N397 1.356 . S
N400 C392 1.356 1_554 S
N400 H406 0.984 . S
N400 H407 0.984 . S
N401 C394 1.356 1_455 S
N401 H404 0.984 . S
N401 H405 0.985 . S
H402 N397 0.984 . S
H403 N397 0.985 1_455 S
H404 N401 0.984 . S
H405 N401 0.985 . S
H406 N400 0.984 . S
H407 N400 0.984 . S
H408 N396 0.984 1_554 S
H409 N396 0.985 . S
C410 C411 1.363 1_554 S
C410 C416 1.379 1_564 S
C410 N418 1.356 . S
C411 C410 1.363 1_556 S
C411 C417 1.363 . S
C412 C413 1.363 . S
C412 C417 1.379 . S
C412 N419 1.356 . S
C413 C412 1.363 . S
C413 C416 1.363 1_565 S
N414 C416 1.356 1_554 S
N414 H426 0.984 . S
N414 H427 0.985 1_554 S
N415 C417 1.356 . S
N415 H420 0.984 . S
N415 H421 0.985 . S
C416 C410 1.379 1_546 S
C416 C413 1.363 1_545 S
C416 N414 1.356 1_556 S
C417 C411 1.363 . S
C417 C412 1.379 . S
C417 N415 1.356 . S
N418 C410 1.356 . S
N418 H424 0.984 1_565 S
N418 H425 0.984 . S
N419 C412 1.356 . S
N419 H422 0.984 . S
N419 H423 0.985 . S
H420 N415 0.984 . S
H421 N415 0.985 . S
H422 N419 0.984 . S
H423 N419 0.985 . S
H424 N418 0.984 1_545 S
H425 N418 0.984 . S
H426 N414 0.984 . S
H427 N414 0.985 1_556 S
C428 C429 1.363 . S
C428 C434 1.379 . S
C428 N436 1.356 . S
C429 C428 1.363 . S
C429 C435 1.363 . S
C430 C431 1.363 . S
C430 C435 1.379 . S
C430 N437 1.356 . S
C431 C430 1.363 . S
C431 C434 1.363 . S
N432 C434 1.356 . S
N432 H444 0.984 . S
N432 H445 0.985 . S
N433 C435 1.356 1_554 S
N433 H438 0.984 . S
N433 H439 0.985 . S
C434 C428 1.379 . S
C434 C431 1.363 . S
C434 N432 1.356 . S
C435 C429 1.363 . S
C435 C430 1.379 . S
C435 N433 1.356 1_556 S
N436 C428 1.356 . S
N436 H442 0.984 . S
N436 H443 0.984 . S
N437 C430 1.356 . S
N437 H440 0.984 . S
N437 H441 0.985 1_556 S
H438 N433 0.984 . S
H439 N433 0.985 . S
H440 N437 0.984 . S
H441 N437 0.985 1_554 S
H442 N436 0.984 . S
H443 N436 0.984 . S
H444 N432 0.984 . S
H445 N432 0.985 . S
C446 C447 1.363 . S
C446 C452 1.379 . S
C446 N454 1.356 . S
C447 C446 1.363 . S
C447 C453 1.363 . S
C448 C449 1.363 . S
C448 C453 1.379 . S
C448 N455 1.356 . S
C449 C448 1.363 . S
C449 C452 1.363 . S
N450 C452 1.356 . S
N450 H462 0.984 . S
N450 H463 0.985 . S
N451 C453 1.356 1_554 S
N451 H456 0.984 . S
N451 H457 0.985 . S
C452 C446 1.379 . S
C452 C449 1.363 . S
C452 N450 1.356 . S
C453 C447 1.363 . S
C453 C448 1.379 . S
C453 N451 1.356 1_556 S
N454 C446 1.356 . S
N454 H460 0.984 . S
N454 H461 0.984 . S
N455 C448 1.356 . S
N455 H458 0.984 . S
N455 H459 0.985 1_556 S
H456 N451 0.984 . S
H457 N451 0.985 . S
H458 N455 0.984 . S
H459 N455 0.985 1_554 S
H460 N454 0.984 . S
H461 N454 0.984 . S
H462 N450 0.984 . S
H463 N450 0.985 . S
C464 C465 1.363 . S
C464 C470 1.379 . S
C464 N472 1.356 . S
C465 C464 1.363 . S
C465 C471 1.363 . S
C466 C467 1.363 . S
C466 C471 1.379 . S
C466 N473 1.356 . S
C467 C466 1.363 . S
C467 C470 1.363 . S
N468 C470 1.356 1_556 S
N468 H480 0.984 . S
N468 H481 0.985 . S
N469 C471 1.356 . S
N469 H474 0.984 . S
N469 H475 0.985 . S
C470 C464 1.379 . S
C470 C467 1.363 . S
C470 N468 1.356 1_554 S
C471 C465 1.363 . S
C471 C466 1.379 . S
C471 N469 1.356 . S
N472 C464 1.356 . S
N472 H478 0.984 . S
N472 H479 0.984 . S
N473 C466 1.356 . S
N473 H476 0.984 . S
N473 H477 0.985 . S
H474 N469 0.984 . S
H475 N469 0.985 . S
H476 N473 0.984 . S
H477 N473 0.985 . S
H478 N472 0.984 . S
H479 N472 0.984 . S
H480 N468 0.984 . S
H481 N468 0.985 . S
C482 C483 1.363 . S
C482 C488 1.379 . S
C482 N490 1.356 . S
C483 C482 1.363 . S
C483 C489 1.363 . S
C484 C485 1.367 . S
C484 C489 1.379 1_556 S
C484 N491 1.356 . S
C485 C484 1.367 . S
C485 C488 1.354 1_556 S
N486 C488 1.356 . S
N486 H498 0.984 1_545 S
N486 H499 0.985 . S
N487 C489 1.356 . S
N487 H492 0.984 . S
N487 H493 0.985 1_554 S
C488 C482 1.379 . S
C488 C485 1.354 1_554 S
C488 N486 1.356 . S
C489 C483 1.363 . S
C489 C484 1.379 1_554 S
C489 N487 1.356 . S
N490 C482 1.356 . S
N490 H496 0.984 . S
N490 H497 0.984 . S
N491 C484 1.356 . S
N491 H494 0.984 . S
N491 H495 0.985 . S
H492 N487 0.984 . S
H493 N487 0.985 1_556 S
H494 N491 0.984 . S
H495 N491 0.985 . S
H496 N490 0.984 . S
H497 N490 0.984 . S
H498 N486 0.984 1_565 S
H499 N486 0.985 . S
C500 C501 1.363 . S
C500 C506 1.379 1_554 S
C500 N508 1.356 . S
C501 C500 1.363 . S
C501 C507 1.363 . S
C502 C503 1.363 . S
C502 C507 1.379 . S
C502 N509 1.356 . S
C503 C502 1.363 . S
C503 C506 1.363 1_554 S
N504 C506 1.356 . S
N504 H516 0.984 . S
N504 H517 0.985 . S
N505 C507 1.356 . S
N505 H510 0.984 . S
N505 H511 0.985 . S
C506 C500 1.379 1_556 S
C506 C503 1.363 1_556 S
C506 N504 1.356 . S
C507 C501 1.363 . S
C507 C502 1.379 . S
C507 N505 1.356 . S
N508 C500 1.356 . S
N508 H514 0.984 1_554 S
N508 H515 0.984 . S
N509 C502 1.356 . S
N509 H512 0.984 . S
N509 H513 0.985 . S
H510 N505 0.984 . S
H511 N505 0.985 . S
H512 N509 0.984 . S
H513 N509 0.985 . S
H514 N508 0.984 1_556 S
H515 N508 0.984 . S
H516 N504 0.984 . S
H517 N504 0.985 . S
C518 C519 1.363 . S
C518 C524 1.379 . S
C518 N526 1.356 . S
C519 C518 1.363 . S
C519 C525 1.363 . S
C520 C521 1.363 1_556 S
C520 C525 1.379 1_556 S
C520 N527 1.356 . S
C521 C520 1.363 1_554 S
C521 C524 1.363 . S
N522 C524 1.356 . S
N522 H534 0.984 . S
N522 H535 0.985 . S
N523 C525 1.356 . S
N523 H528 0.984 . S
N523 H529 0.985 1_554 S
C524 C518 1.379 . S
C524 C521 1.363 . S
C524 N522 1.356 . S
C525 C519 1.363 . S
C525 C520 1.379 1_554 S
C525 N523 1.356 . S
N526 C518 1.356 . S
N526 H532 0.984 . S
N526 H533 0.984 . S
N527 C520 1.356 . S
N527 H530 0.984 . S
N527 H531 0.985 . S
H528 N523 0.984 . S
H529 N523 0.985 1_556 S
H530 N527 0.984 . S
H531 N527 0.985 . S
H532 N526 0.984 . S
H533 N526 0.984 . S
H534 N522 0.984 . S
H535 N522 0.985 . S
C536 C537 1.363 . S
C536 C542 1.379 . S
C536 N544 1.356 . S
C537 C536 1.363 . S
C537 C543 1.363 . S
C538 C539 1.363 . S
C538 C543 1.379 . S
C538 N545 1.356 1_655 S
C539 C538 1.363 . S
C539 C542 1.363 . S
N540 C542 1.356 . S
N540 H552 0.984 . S
N540 H553 0.985 . S
N541 C543 1.356 . S
N541 H546 0.984 . S
N541 H547 0.994 . S
C542 C536 1.379 . S
C542 C539 1.363 . S
C542 N540 1.356 . S
C543 C537 1.363 . S
C543 C538 1.379 . S
C543 N541 1.356 . S
N544 C536 1.356 . S
N544 H550 0.984 . S
N544 H551 0.984 . S
N545 C538 1.356 1_455 S
N545 H548 0.984 . S
N545 H549 0.985 . S
H546 N541 0.984 . S
H547 N541 0.994 . S
H548 N545 0.984 . S
H549 N545 0.985 . S
H550 N544 0.984 . S
H551 N544 0.984 . S
H552 N540 0.984 . S
H553 N540 0.985 . S
C554 C555 1.363 . S
C554 C560 1.379 1_565 S
C554 N562 1.356 1_565 S
C555 C554 1.363 . S
C555 C561 1.363 . S
C556 C557 1.363 . S
C556 C561 1.379 . S
C556 N563 1.356 . S
C557 C556 1.363 . S
C557 C560 1.363 1_565 S
N558 C560 1.356 . S
N558 H570 0.984 . S
N558 H571 0.985 . S
N559 C561 1.356 . S
N559 H564 0.984 . S
N559 H565 0.985 . S
C560 C554 1.379 1_545 S
C560 C557 1.363 1_545 S
C560 N558 1.356 . S
C561 C555 1.363 . S
C561 C556 1.379 . S
C561 N559 1.356 . S
N562 C554 1.356 1_545 S
N562 H568 0.984 . S
N562 H569 0.984 1_545 S
N563 C556 1.356 . S
N563 H566 0.984 . S
N563 H567 0.985 . S
H564 N559 0.984 . S
H565 N559 0.985 . S
H566 N563 0.984 . S
H567 N563 0.985 . S
H568 N562 0.984 . S
H569 N562 0.984 1_565 S
H570 N558 0.984 . S
H571 N558 0.985 . S
C572 C573 1.363 . S
C572 C578 1.379 . S
C572 N580 1.356 . S
C573 C572 1.363 . S
C573 C579 1.363 . S
C574 C575 1.363 . S
C574 C579 1.379 . S
C574 N581 1.356 . S
C575 C574 1.363 . S
C575 C578 1.363 . S
N576 C578 1.356 . S
N576 H588 0.984 . S
N576 H589 0.985 . S
N577 C579 1.356 . S
N577 H582 0.984 . S
N577 H583 0.985 . S
C578 C572 1.379 . S
C578 C575 1.363 . S
C578 N576 1.356 . S
C579 C573 1.363 . S
C579 C574 1.379 . S
C579 N577 1.356 . S
N580 C572 1.356 . S
N580 H586 0.984 . S
N580 H587 0.984 . S
N581 C574 1.356 . S
N581 H584 0.984 . S
N581 H585 0.985 . S
H582 N577 0.984 . S
H583 N577 0.985 . S
H584 N581 0.984 . S
H585 N581 0.985 . S
H586 N580 0.984 . S
H587 N580 0.984 . S
H588 N576 0.984 . S
H589 N576 0.985 . S
C590 C591 1.363 . S
C590 C596 1.379 . S
C590 N598 1.356 . S
C591 C590 1.363 . S
C591 C597 1.363 . S
C592 C593 1.363 . S
C592 C597 1.379 . S
C592 N599 1.356 . S
C593 C592 1.363 . S
C593 C596 1.363 . S
N594 C596 1.356 . S
N594 H606 0.984 . S
N594 H607 0.985 . S
N595 C597 1.356 . S
N595 H600 0.984 . S
N595 H601 0.985 . S
C596 C590 1.379 . S
C596 C593 1.363 . S
C596 N594 1.356 . S
C597 C591 1.363 . S
C597 C592 1.379 . S
C597 N595 1.356 . S
N598 C590 1.356 . S
N598 H604 0.984 . S
N598 H605 0.984 . S
N599 C592 1.356 . S
N599 H602 0.984 . S
N599 H603 0.985 . S
H600 N595 0.984 . S
H601 N595 0.985 . S
H602 N599 0.984 . S
H603 N599 0.985 . S
H604 N598 0.984 . S
H605 N598 0.984 . S
H606 N594 0.984 . S
H607 N594 0.985 . S
C177 C76 1.552 . S
C179 C97 1.602 . S
C197 C132 1.612 . S
C195 C88 1.524 . S
C215 C137 1.385 . S
C213 C52 1.348 . S
C233 C157 1.545 . S
C231 C64 1.505 . S
C251 C105 1.603 1_565 S
C249 C28 1.564 1_556 S
C267 C40 1.544 1_556 S
C269 C122 1.612 . S
C285 C4 1.354 . S
C287 C145 1.385 . S
C303 C16 1.520 . S
C305 C165 1.537 1_655 S
C323 C115 1.422 . S
C321 C69 1.366 . S
C341 C124 1.195 . S
C339 C81 1.166 . S
C359 C155 1.455 . S
C357 C93 1.403 . S
C375 C57 1.110 . S
C377 C175 1.120 . S
C393 C21 1.354 . S
C395 C104 1.422 1_655 S
C413 C135 1.194 1_565 S
C411 C33 1.158 1_556 S
C431 C144 1.455 . S
C429 C45 1.384 1_556 S
C447 C9 1.107 . S
C449 C164 1.121 . S
C465 C66 1.472 . S
C467 C102 1.477 1_554 S
C483 C78 1.509 . S
C485 C125 1.576 . S
C503 C142 1.575 1_554 S
C501 C90 1.532 . S
C521 C162 1.565 1_554 S
C519 C54 1.542 . S
C537 C18 1.458 . S
C539 C112 1.477 . S
C557 C117 1.576 . S
C555 C30 1.493 . S
C575 C152 1.575 . S
C573 C42 1.509 . S
C591 C6 1.537 . S
C593 C172 1.566 . S
