# Generated by pormake.
# Topology pyr, (3,6)-cn, num edge types: 1
# Building blocks:
#     Node 0, Type 0, BuildingBlock: CUQRIR_clean_linker_1, # of connection points: 3
#     Node 1, Type 0, BuildingBlock: CUQRIR_clean_linker_1, # of connection points: 3
#     Node 2, Type 0, BuildingBlock: CUQRIR_clean_linker_1, # of connection points: 3
#     Node 3, Type 0, BuildingBlock: CUQRIR_clean_linker_1, # of connection points: 3
#     Node 4, Type 0, BuildingBlock: CUQRIR_clean_linker_1, # of connection points: 3
#     Node 5, Type 0, BuildingBlock: CUQRIR_clean_linker_1, # of connection points: 3
#     Node 6, Type 0, BuildingBlock: CUQRIR_clean_linker_1, # of connection points: 3
#     Node 7, Type 0, BuildingBlock: CUQRIR_clean_linker_1, # of connection points: 3
#     Node 8, Type 1, BuildingBlock: BETDIP_clean_sbu_0, # of connection points: 6
#     Node 9, Type 1, BuildingBlock: BETDIP_clean_sbu_0, # of connection points: 6
#     Node 10, Type 1, BuildingBlock: BETDIP_clean_sbu_0, # of connection points: 6
#     Node 11, Type 1, BuildingBlock: BETDIP_clean_sbu_0, # of connection points: 6
#     Edge 12, Type (0, 1), BuildingBlock: TEMPAE_clean_linker_10, # of connection points: 2
#     Edge 13, Type (0, 1), BuildingBlock: TEMPAE_clean_linker_10, # of connection points: 2
#     Edge 14, Type (0, 1), BuildingBlock: TEMPAE_clean_linker_10, # of connection points: 2
#     Edge 15, Type (0, 1), BuildingBlock: TEMPAE_clean_linker_10, # of connection points: 2
#     Edge 16, Type (0, 1), BuildingBlock: TEMPAE_clean_linker_10, # of connection points: 2
#     Edge 17, Type (0, 1), BuildingBlock: TEMPAE_clean_linker_10, # of connection points: 2
#     Edge 18, Type (0, 1), BuildingBlock: TEMPAE_clean_linker_10, # of connection points: 2
#     Edge 19, Type (0, 1), BuildingBlock: TEMPAE_clean_linker_10, # of connection points: 2
#     Edge 20, Type (0, 1), BuildingBlock: TEMPAE_clean_linker_10, # of connection points: 2
#     Edge 21, Type (0, 1), BuildingBlock: TEMPAE_clean_linker_10, # of connection points: 2
#     Edge 22, Type (0, 1), BuildingBlock: TEMPAE_clean_linker_10, # of connection points: 2
#     Edge 23, Type (0, 1), BuildingBlock: TEMPAE_clean_linker_10, # of connection points: 2
#     Edge 24, Type (0, 1), BuildingBlock: TEMPAE_clean_linker_10, # of connection points: 2
#     Edge 25, Type (0, 1), BuildingBlock: TEMPAE_clean_linker_10, # of connection points: 2
#     Edge 26, Type (0, 1), BuildingBlock: TEMPAE_clean_linker_10, # of connection points: 2
#     Edge 27, Type (0, 1), BuildingBlock: TEMPAE_clean_linker_10, # of connection points: 2
#     Edge 28, Type (0, 1), BuildingBlock: TEMPAE_clean_linker_10, # of connection points: 2
#     Edge 29, Type (0, 1), BuildingBlock: TEMPAE_clean_linker_10, # of connection points: 2
#     Edge 30, Type (0, 1), BuildingBlock: TEMPAE_clean_linker_10, # of connection points: 2
#     Edge 31, Type (0, 1), BuildingBlock: TEMPAE_clean_linker_10, # of connection points: 2
#     Edge 32, Type (0, 1), BuildingBlock: TEMPAE_clean_linker_10, # of connection points: 2
#     Edge 33, Type (0, 1), BuildingBlock: TEMPAE_clean_linker_10, # of connection points: 2
#     Edge 34, Type (0, 1), BuildingBlock: TEMPAE_clean_linker_10, # of connection points: 2
#     Edge 35, Type (0, 1), BuildingBlock: TEMPAE_clean_linker_10, # of connection points: 2
# Relax obj value: 0.205
# Max RMSD: 0.288
# Mean RMSD: 0.172
data_MOF--net-pyr--node1-BETDIP_clean_sbu_0--node2-CUQRIR_clean_linker_1--edge1-TEMPAE_clean_linker_10
_symmetry_space_group_name_H-M    P1
_symmetry_Int_Tables_number       1
_symmetry_cell_setting            triclinic
loop_
_symmetry_equiv_pos_as_xyz
'x, y, z'
_cell_length_a     33.418793
_cell_length_b     36.723742
_cell_length_c     35.280275
_cell_angle_alpha  87.520575
_cell_angle_beta   94.22037
_cell_angle_gamma 109.11634
loop_
_atom_site_label
_atom_site_type_symbol
_atom_site_fract_x
_atom_site_fract_y
_atom_site_fract_z
_atom_type_partial_charge
C0 C 0.38238 0.37418 0.24878 0.0
N1 N 0.4028 0.34811 0.25601 0.0
N2 N 0.39164 0.39173 0.21447 0.0
C3 C 0.34764 0.37729 0.27218 0.0
C4 C 0.4182 0.37507 0.20095 0.0
N5 N 0.42506 0.34849 0.22621 0.0
C6 C 0.43592 0.38414 0.16246 0.0
H7 H 0.32236 0.34883 0.2737 0.0
H8 H 0.33335 0.39902 0.2605 0.0
H9 H 0.36068 0.38522 0.30162 0.0
H10 H 0.44053 0.41474 0.15441 0.0
H11 H 0.41295 0.36588 0.14105 0.0
H12 H 0.46653 0.37848 0.16211 0.0
C13 C 0.17147 0.81089 0.75304 0.0
N14 N 0.1604 0.83542 0.77442 0.0
N15 N 0.1869 0.78699 0.77546 0.0
C16 C 0.17337 0.81421 0.7104 0.0
C17 C 0.18444 0.79788 0.81116 0.0
N18 N 0.16881 0.82754 0.81066 0.0
C19 C 0.19995 0.78133 0.84682 0.0
H20 H 0.14579 0.7914 0.69727 0.0
H21 H 0.20272 0.81002 0.70157 0.0
H22 H 0.17256 0.84269 0.69928 0.0
H23 H 0.23212 0.80047 0.85613 0.0
H24 H 0.20127 0.75209 0.842 0.0
H25 H 0.17874 0.77995 0.87 0.0
C26 C 0.59966 0.3772 0.87233 0.0
N27 N 0.62445 0.37433 0.90403 0.0
N28 N 0.61744 0.41062 0.85256 0.0
C29 C 0.55919 0.3465 0.85961 0.0
C30 C 0.65386 0.42806 0.87367 0.0
N31 N 0.6583 0.4061 0.90464 0.0
C32 C 0.68464 0.46721 0.86447 0.0
H33 H 0.55315 0.34785 0.82832 0.0
H34 H 0.53241 0.35106 0.87329 0.0
H35 H 0.56043 0.31745 0.86825 0.0
H36 H 0.66769 0.48609 0.85047 0.0
H37 H 0.70731 0.46375 0.8446 0.0
H38 H 0.70318 0.48154 0.89016 0.0
C39 C 0.85867 0.71154 0.36673 0.0
N40 N 0.89335 0.7404 0.35486 0.0
N41 N 0.84539 0.7204 0.39948 0.0
C42 C 0.83863 0.67361 0.34718 0.0
C43 C 0.87316 0.75571 0.40757 0.0
N44 N 0.9025 0.76827 0.38092 0.0
C45 C 0.87084 0.77864 0.44143 0.0
H46 H 0.82057 0.65102 0.36712 0.0
H47 H 0.8631 0.6639 0.33513 0.0
H48 H 0.81641 0.67726 0.32351 0.0
H49 H 0.89386 0.77504 0.46439 0.0
H50 H 0.8387 0.76886 0.45238 0.0
H51 H 0.87924 0.80979 0.43437 0.0
C52 C 0.62928 0.83615 0.9171 0.0
N53 N 0.65352 0.82605 0.89318 0.0
N54 N 0.60432 0.85421 0.89769 0.0
C55 C 0.63448 0.83345 0.95983 0.0
C56 C 0.61461 0.85471 0.86116 0.0
N57 N 0.6447 0.83787 0.85844 0.0
C58 C 0.59494 0.87124 0.82792 0.0
H59 H 0.60798 0.80883 0.97021 0.0
H60 H 0.63343 0.86008 0.97281 0.0
H61 H 0.66482 0.82888 0.96958 0.0
H62 H 0.6151 0.90133 0.82212 0.0
H63 H 0.56283 0.87127 0.83396 0.0
H64 H 0.59286 0.85436 0.80207 0.0
C65 C 0.89611 0.35586 0.47343 0.0
N66 N 0.90548 0.33769 0.44439 0.0
N67 N 0.87728 0.38183 0.46012 0.0
C68 C 0.8997 0.34429 0.51466 0.0
C69 C 0.87592 0.37887 0.42191 0.0
N70 N 0.89216 0.35152 0.41221 0.0
C71 C 0.85377 0.39955 0.39433 0.0
H72 H 0.88244 0.31302 0.51834 0.0
H73 H 0.88693 0.36096 0.53317 0.0
H74 H 0.93349 0.34929 0.52382 0.0
H75 H 0.86217 0.39799 0.36474 0.0
H76 H 0.86255 0.43025 0.40211 0.0
H77 H 0.81892 0.38645 0.39601 0.0
C78 C 0.35717 0.71062 0.27477 0.0
N79 N 0.39212 0.73775 0.29038 0.0
N80 N 0.34208 0.72426 0.24246 0.0
C81 C 0.33719 0.6709 0.29154 0.0
C82 C 0.36917 0.76063 0.23874 0.0
N83 N 0.3996 0.7691 0.2677 0.0
C84 C 0.36631 0.78799 0.20633 0.0
H85 H 0.3521 0.65105 0.28022 0.0
H86 H 0.30263 0.65992 0.28372 0.0
H87 H 0.34224 0.67064 0.32294 0.0
H88 H 0.34982 0.80759 0.21546 0.0
H89 H 0.34849 0.77224 0.18097 0.0
H90 H 0.39836 0.80595 0.19827 0.0
C91 C 0.10751 0.37813 0.78477 0.0
N92 N 0.13013 0.37471 0.75486 0.0
N93 N 0.12224 0.41446 0.79944 0.0
C94 C 0.07182 0.34553 0.80037 0.0
C95 C 0.15456 0.43291 0.77695 0.0
N96 N 0.15935 0.4093 0.75012 0.0
C97 C 0.18156 0.47452 0.7809 0.0
H98 H 0.05303 0.32679 0.77712 0.0
H99 H 0.05044 0.35588 0.81619 0.0
H100 H 0.08536 0.32792 0.82045 0.0
H101 H 0.20983 0.47619 0.80019 0.0
H102 H 0.16376 0.49151 0.79304 0.0
H103 H 0.19274 0.48749 0.75303 0.0
Tb104 Tb 0.99505 0.05528 0.57572 0.0
Tb105 Tb 0.07773 0.08451 0.54731 0.0
C106 C 0.92326 1.01523 0.59682 0.0
C107 C 0.90339 0.97988 0.61947 0.0
C108 C 0.87289 0.9481 0.60201 0.0
C109 C 0.84821 0.91746 0.62401 0.0
C110 C 0.85313 0.91828 0.66399 0.0
C111 C 0.88573 0.94897 0.68117 0.0
C112 C 0.91063 0.97928 0.65921 0.0
C113 C 0.0369 0.12721 0.59917 0.0
C114 C 0.0655 1.02831 0.61905 0.0
C115 C 0.15534 0.11504 0.53601 0.0
C116 C 0.18224 0.13237 0.50471 0.0
C117 C 0.16467 0.13518 0.46783 0.0
C118 C 0.19105 0.15292 0.43871 0.0
C119 C 0.23533 0.16809 0.44613 0.0
C120 C 0.25264 0.16452 0.4831 0.0
C121 C 0.22627 0.14679 0.51212 0.0
C122 C 0.02589 1.02617 0.50547 0.0
C123 C 1.00728 0.11411 0.50912 0.0
O124 O 0.93684 1.01135 0.56383 0.0
O125 O 0.94909 1.04464 0.61536 0.0
O126 O 0.05265 0.10019 0.59653 0.0
O127 O 0.99693 0.11344 0.5891 0.0
O128 O 0.02535 1.026 0.61729 0.0
O129 O 0.09198 0.05001 0.59491 0.0
O130 O 0.13137 0.13411 0.54669 0.0
O131 O 0.13513 0.07808 0.53404 0.0
O132 O 0.02851 1.02872 0.54148 0.0
O133 O 0.05297 0.05732 0.4924 0.0
O134 O 0.04825 0.12394 0.51861 0.0
O135 O 0.98069 0.0821 0.52279 0.0
H136 H 0.86676 0.94776 0.57142 0.0
H137 H 0.82403 0.89396 0.60973 0.0
H138 H 0.89031 0.9511 0.71179 0.0
H139 H 0.93396 1.00323 0.67369 0.0
H140 H 0.13064 0.12399 0.4617 0.0
H141 H 0.17681 0.15491 0.41044 0.0
H142 H 0.28649 0.17639 0.48989 0.0
H143 H 0.24024 0.14483 0.54052 0.0
Tb144 Tb 0.57536 0.09249 0.12685 0.0
Tb145 Tb 0.48419 0.07214 0.10745 0.0
C146 C 0.65519 0.11413 0.12769 0.0
C147 C 0.69072 0.13808 0.15218 0.0
C148 C 0.72753 0.16203 0.13589 0.0
C149 C 0.76152 0.18507 0.15889 0.0
C150 C 0.75924 0.18408 0.19854 0.0
C151 C 0.72228 0.15999 0.2147 0.0
C152 C 0.68826 0.13735 0.19174 0.0
C153 C 0.52838 1.03608 0.17044 0.0
C154 C 0.52764 0.13361 0.17167 0.0
C155 C 0.40439 0.05019 0.10681 0.0
C156 C 0.36931 1.02441 0.08337 0.0
C157 C 0.37523 0.99463 0.0633 0.0
C158 C 0.34242 0.9718 1.03927 0.0
C159 C 0.30319 0.97849 1.03471 0.0
C160 C 0.29724 1.00807 0.05525 0.0
C161 C 0.33008 1.0308 0.07948 0.0
C162 C 0.53167 0.12815 0.06357 0.0
C163 C 0.53161 1.03332 0.06031 0.0
O164 O 0.63212 0.13212 0.10851 0.0
O165 O 0.63201 0.08159 0.14266 0.0
O166 O 0.52245 1.04087 0.13499 0.0
O167 O 0.56208 0.06352 0.18238 0.0
O168 O 0.56521 0.1365 0.16011 0.0
O169 O 0.49305 0.10634 0.15884 0.0
O170 O 0.428 1.03391 0.12777 0.0
O171 O 0.42704 0.08154 0.08957 0.0
O172 O 0.53715 0.12355 0.09902 0.0
O173 O 0.49756 0.10113 0.05179 0.0
O174 O 0.49386 1.03 0.07159 0.0
O175 O 0.56643 0.05909 0.07499 0.0
H176 H 0.7299 0.16302 0.10537 0.0
H177 H 0.78957 0.20352 0.14577 0.0
H178 H 0.71929 0.15932 0.24512 0.0
H179 H 0.65996 0.11944 0.20492 0.0
H180 H 0.40546 0.9895 0.06563 0.0
H181 H 0.34826 0.94973 1.02326 0.0
H182 H 0.26734 1.01379 0.05235 0.0
H183 H 0.32511 0.05381 0.09469 0.0
Tb184 Tb 0.50172 0.60661 0.58466 0.0
Tb185 Tb 0.49177 0.52912 0.5469 0.0
C186 C 0.48625 0.6681 0.5908 0.0
C187 C 0.4583 0.68079 0.61348 0.0
C188 C 0.43122 0.69873 0.5946 0.0
C189 C 0.40065 0.70714 0.6141 0.0
C190 C 0.39688 0.69827 0.65315 0.0
C191 C 0.42472 0.6809 0.67222 0.0
C192 C 0.45498 0.67195 0.65247 0.0
C193 C 0.52583 0.56029 0.63485 0.0
C194 C 0.41882 0.53139 0.59766 0.0
C195 C 0.50593 0.47015 0.52646 0.0
C196 C 0.54571 0.46148 0.52492 0.0
C197 C 0.58177 0.4813 0.54791 0.0
C198 C 0.62036 0.47503 0.54447 0.0
C199 C 0.62354 0.44856 0.51817 0.0
C200 C 0.58701 0.42819 0.49575 0.0
C201 C 0.5485 0.43476 0.499 0.0
C202 C 0.46248 0.57891 0.50611 0.0
C203 C 0.57949 0.60031 0.54299 0.0
O204 O 0.46585 0.6416 0.56614 0.0
O205 O 0.51929 0.66142 0.60854 0.0
O206 O 0.51168 0.55401 0.60068 0.0
O207 O 0.5276 0.59535 0.64166 0.0
O208 O 0.43777 0.56938 0.60027 0.0
O209 O 0.43515 0.50939 0.57924 0.0
O210 O 0.49493 0.47403 0.56054 0.0
O211 O 0.50152 0.49712 0.50267 0.0
O212 O 0.49502 0.58582 0.5285 0.0
O213 O 0.44521 0.5416 0.50467 0.0
O214 O 0.5594 0.56253 0.54131 0.0
O215 O 0.56176 0.62409 0.55676 0.0
H216 H 0.43284 0.70517 0.56436 0.0
H217 H 0.37927 0.71972 0.59824 0.0
H218 H 0.42312 0.67413 0.70236 0.0
H219 H 0.47518 0.65757 0.66754 0.0
H220 H 0.5803 0.50208 0.56819 0.0
H221 H 0.64787 0.49152 0.56185 0.0
H222 H 0.58814 0.40709 0.4757 0.0
H223 H 0.521 0.41921 0.48104 0.0
Tb224 Tb 0.99632 0.60752 1.04613 0.0
Tb225 Tb 0.99886 0.54525 0.10186 0.0
C226 C 0.97243 0.65213 1.00057 0.0
C227 C 0.93841 0.66977 0.99457 0.0
C228 C 0.89889 0.64899 0.97677 0.0
C229 C 0.86855 0.6669 0.96693 0.0
C230 C 0.87698 0.70601 0.97452 0.0
C231 C 0.91597 0.72658 0.99326 0.0
C232 C 0.9465 0.70868 1.00298 0.0
C233 C 0.07222 0.61588 0.0795 0.0
C234 C 0.97113 0.61268 0.13268 0.0
C235 C 0.02537 0.49983 0.14378 0.0
C236 C 0.06465 0.48996 0.14448 0.0
C237 C 0.10117 0.51571 0.12917 0.0
C238 C 0.13927 0.50753 0.13198 0.0
C239 C 0.14139 0.47299 0.14949 0.0
C240 C 0.10418 0.44665 0.16353 0.0
C241 C 0.06625 0.4552 0.16126 0.0
C242 C 0.92209 0.53496 0.06913 0.0
C243 C 0.02989 0.54398 1.01647 0.0
O244 O 0.96099 0.61479 0.99693 0.0
O245 O 1.00094 0.66431 1.02873 0.0
O246 O 0.03702 0.60319 0.09406 0.0
O247 O 0.06603 0.62779 1.04509 0.0
O248 O 0.96986 0.62459 0.09643 0.0
O249 O 0.98315 0.58221 0.14209 0.0
O250 O 0.03054 0.53534 0.15255 0.0
O251 O 0.99885 0.48863 0.11414 0.0
O252 O 0.95708 0.54868 0.05375 0.0
O253 O 0.92993 0.52413 0.10359 0.0
O254 O 0.03026 0.53191 0.05266 0.0
O255 O 1.0155 0.5728 1.00653 0.0
H256 H 0.89163 0.61907 0.96952 0.0
H257 H 0.83856 0.65018 0.95298 0.0
H258 H 0.92343 0.75686 0.99922 0.0
H259 H 0.97685 0.72559 1.01615 0.0
H260 H 0.10039 0.54247 0.11557 0.0
H261 H 0.16721 0.52871 0.1212 0.0
H262 H 0.10432 0.41938 0.17639 0.0
H263 H 0.03825 0.43482 0.17286 0.0
C264 C 0.36727 0.27997 0.27174 0.0
C265 C 0.39044 0.31723 0.28366 0.0
C266 C 0.34654 0.25144 0.29789 0.0
C267 C 0.34869 0.26085 0.33665 0.0
C268 C 0.37497 0.29764 0.34913 0.0
C269 C 0.39565 0.32544 0.32235 0.0
C270 C 0.31945 0.21244 0.28344 0.0
C271 C 0.37838 0.30875 0.39023 0.0
C272 C 0.25123 0.21623 0.3924 0.0
C273 C 0.26328 0.18949 0.41611 0.0
C274 C 0.27845 0.23889 0.36582 0.0
C275 C 0.31879 0.23477 0.36287 0.0
C276 C 0.33076 0.20712 0.38593 0.0
C277 C 0.30285 0.1848 0.41236 0.0
C278 C 0.26447 0.26805 0.34161 0.0
C279 C 0.37336 0.20176 0.38327 0.0
H280 H 0.36306 0.27398 0.24163 0.0
H281 H 0.41382 0.35439 0.3312 0.0
H282 H 0.32287 0.18906 0.30306 0.0
H283 H 0.2856 0.21074 0.28184 0.0
H284 H 0.32772 0.20729 0.25467 0.0
H285 H 0.40434 0.33628 0.39607 0.0
H286 H 0.34805 0.31213 0.39749 0.0
H287 H 0.384 0.28582 0.40924 0.0
H288 H 0.22099 0.22038 0.39549 0.0
H289 H 0.3121 0.16382 0.4303 0.0
H290 H 0.26615 0.26312 0.31105 0.0
H291 H 0.28614 0.29757 0.3479 0.0
H292 H 0.23157 0.26676 0.34654 0.0
H293 H 0.37822 0.1969 0.35338 0.0
H294 H 0.37662 0.17716 0.40122 0.0
H295 H 0.39901 0.22833 0.39247 0.0
C296 C 0.1483 0.85318 0.86685 0.0
C297 C 0.17833 0.85457 0.84082 0.0
C298 C 0.16034 0.87488 0.90018 0.0
C299 C 0.20336 0.89785 0.90728 0.0
C300 C 0.23313 0.90053 0.87986 0.0
C301 C 0.2202 0.87863 0.84713 0.0
C302 C 0.12771 0.87153 0.92862 0.0
C303 C 0.2793 0.92464 0.88609 0.0
C304 C 0.24977 0.97517 0.98019 0.0
C305 C 0.26999 0.95619 1.00658 0.0
C306 C 0.22424 0.95552 0.94922 0.0
C307 C 0.21908 0.91613 0.9446 0.0
C308 C 0.23635 0.89611 0.97299 0.0
C309 C 0.26162 0.91641 1.00365 0.0
C310 C 0.20594 0.97772 0.91977 0.0
C311 C 0.23133 0.854 0.96929 0.0
H312 H 0.11608 0.83393 0.86187 0.0
H313 H 0.24316 0.87891 0.82684 0.0
H314 H 0.13262 0.85301 0.95299 0.0
H315 H 0.13114 0.90019 0.93994 0.0
H316 H 0.09486 0.85857 0.91601 0.0
H317 H 0.29749 0.92563 0.86072 0.0
H318 H 0.28218 0.95456 0.89316 0.0
H319 H 0.29413 0.91252 0.91046 0.0
H320 H 0.25611 1.00594 0.98231 0.0
H321 H 0.27645 0.90149 1.02449 0.0
H322 H 0.1731 0.96049 0.91005 0.0
H323 H 0.22536 0.984 0.89461 0.0
H324 H 0.20569 1.00551 0.93084 0.0
H325 H 0.19784 0.83711 0.96138 0.0
H326 H 0.24158 0.84152 0.99602 0.0
H327 H 0.25082 0.85073 0.94632 0.0
C328 C 0.62723 0.43861 0.78717 0.0
C329 C 0.60136 0.42542 0.81786 0.0
C330 C 0.61413 0.45712 0.75504 0.0
C331 C 0.57382 0.46243 0.75309 0.0
C332 C 0.54675 0.44747 0.78326 0.0
C333 C 0.56086 0.42933 0.81523 0.0
C334 C 0.64428 0.4725 0.72391 0.0
C335 C 0.50347 0.45207 0.78256 0.0
C336 C 0.56084 0.55018 0.69761 0.0
C337 C 0.53911 0.53442 0.66341 0.0
C338 C 0.57246 0.52721 0.7265 0.0
C339 C 0.56192 0.48697 0.72165 0.0
C340 C 0.54018 0.47078 0.68702 0.0
C341 C 0.52911 0.49467 0.65833 0.0
C342 C 0.59592 0.54614 0.76248 0.0
C343 C 0.52802 0.42811 0.68052 0.0
H344 H 0.65828 0.43516 0.78876 0.0
H345 H 0.54082 0.41944 0.83888 0.0
H346 H 0.6281 0.46264 0.6958 0.0
H347 H 0.65465 0.50447 0.72325 0.0
H348 H 0.67287 0.46331 0.728 0.0
H349 H 0.48453 0.43547 0.80596 0.0
H350 H 0.50698 0.48296 0.78532 0.0
H351 H 0.48562 0.44244 0.75502 0.0
H352 H 0.56876 0.58084 0.70197 0.0
H353 H 0.51187 0.48209 0.63238 0.0
H354 H 0.62649 0.54033 0.76717 0.0
H355 H 0.57699 0.53379 0.78728 0.0
H356 H 0.60256 0.57784 0.76162 0.0
H357 H 0.55653 0.41885 0.68411 0.0
H358 H 0.51256 0.42007 0.65173 0.0
H359 H 0.5059 0.41195 0.70203 0.0
C360 C 0.89025 0.73204 0.28518 0.0
C361 C 0.91428 0.73791 0.3203 0.0
C362 C 0.90084 0.71424 0.25412 0.0
C363 C 0.9375 0.70245 0.25695 0.0
C364 C 0.96379 0.71103 0.29135 0.0
C365 C 0.95161 0.72785 0.3225 0.0
C366 C 0.87064 0.70529 0.21924 0.0
C367 C 1.00394 0.70064 0.29611 0.0
C368 C 0.94066 0.61716 0.19635 0.0
C369 C 0.96143 0.63551 0.16394 0.0
C370 C 0.9323 0.63828 0.22607 0.0
C371 C 0.94662 0.67938 0.22502 0.0
C372 C 0.96853 0.69805 0.19272 0.0
C373 C 0.97478 0.67616 0.16259 0.0
C374 C 0.90749 0.61637 0.2586 0.0
C375 C 0.98623 0.74143 0.19027 0.0
H376 H 0.86067 0.73835 0.28323 0.0
H377 H 0.96994 0.73082 0.34951 0.0
H378 H 0.88788 0.71599 0.19321 0.0
H379 H 0.85597 0.67357 0.21688 0.0
H380 H 0.84495 0.71819 0.22014 0.0
H381 H 0.02452 0.71481 0.32105 0.0
H382 H 0.99581 0.66899 0.30019 0.0
H383 H 0.02215 0.70901 0.27025 0.0
H384 H 0.9301 0.58594 0.19817 0.0
H385 H 0.99148 0.69107 0.13831 0.0
H386 H 0.8796 0.62582 0.26181 0.0
H387 H 0.92752 0.6227 0.28554 0.0
H388 H 0.89623 0.58472 0.25446 0.0
H389 H 0.96008 0.75386 0.18947 0.0
H390 H 1.00458 0.75183 0.1647 0.0
H391 H 1.00724 0.75252 0.21598 0.0
C392 C 0.47429 0.31436 0.25045 0.0
C393 C 0.4472 0.3215 0.22097 0.0
C394 C 0.49235 0.28507 0.24778 0.0
C395 C 0.48347 0.26283 0.21455 0.0
C396 C 0.45705 0.27072 0.18424 0.0
C397 C 0.43875 0.29958 0.18808 0.0
C398 C 0.51968 0.27709 0.28093 0.0
C399 C 0.44703 0.24789 0.14815 0.0
C400 C 0.54968 0.20355 0.18557 0.0
C401 C 0.52214 0.166 0.1917 0.0
C402 C 0.53877 0.23569 0.19504 0.0
C403 C 0.49986 0.23001 0.21171 0.0
C404 C 0.47397 0.1922 0.22126 0.0
C405 C 0.48521 0.16059 0.21075 0.0
C406 C 0.56703 0.27547 0.184 0.0
C407 C 0.43271 0.18497 0.2399 0.0
H408 H 0.48044 0.33121 0.27598 0.0
H409 H 0.41661 0.30409 0.16589 0.0
H410 H 0.50391 0.24795 0.2931 0.0
H411 H 0.55062 0.27728 0.27133 0.0
H412 H 0.5256 0.29849 0.30375 0.0
H413 H 0.4285 0.2595 0.12628 0.0
H414 H 0.47679 0.24801 0.13604 0.0
H415 H 0.42847 0.21744 0.15456 0.0
H416 H 0.57809 0.20796 0.17052 0.0
H417 H 0.46394 0.13159 0.21568 0.0
H418 H 0.57145 0.29584 0.20747 0.0
H419 H 0.55178 0.28644 0.1591 0.0
H420 H 0.59868 0.27545 0.17634 0.0
H421 H 0.43715 0.2046 0.26403 0.0
H422 H 0.41958 0.15472 0.25046 0.0
H423 H 0.40898 0.19089 0.21903 0.0
C424 C 0.16478 0.90395 0.76731 0.0
C425 C 0.14319 0.86495 0.76024 0.0
C426 C 0.15082 0.93287 0.74929 0.0
C427 C 0.11562 0.92248 0.72234 0.0
C428 C 0.09297 0.88304 0.71603 0.0
C429 C 0.10671 0.8548 0.73555 0.0
C430 C 0.1751 0.97454 0.75765 0.0
C431 C 0.05594 0.87063 0.68688 0.0
C432 C 0.06048 0.99232 0.68133 0.0
C433 C 0.08062 1.00412 0.64728 0.0
C434 C 0.07289 0.96713 0.70705 0.0
C435 C 0.10514 0.95247 0.69779 0.0
C436 C 0.12591 0.96477 0.66365 0.0
C437 C 0.11382 0.9909 0.63911 0.0
C438 C 0.05102 0.95566 0.74375 0.0
C439 C 0.15972 0.94908 0.65224 0.0
H440 H 0.19369 0.91208 0.78538 0.0
H441 H 0.09027 0.82457 0.73011 0.0
H442 H 0.19469 0.98793 0.73352 0.0
H443 H 0.15297 0.9909 0.76101 0.0
H444 H 0.19646 0.97753 0.78383 0.0
H445 H 0.04038 0.83886 0.68691 0.0
H446 H 0.03192 0.88436 0.6922 0.0
H447 H 0.06713 0.88022 0.65812 0.0
H448 H 0.03496 1.00272 0.68782 0.0
H449 H 0.12919 0.99971 0.61264 0.0
H450 H 0.0749 0.95985 0.76816 0.0
H451 H 0.03192 0.92463 0.74342 0.0
H452 H 0.02968 0.97252 0.74844 0.0
H453 H 0.18615 0.9551 0.67447 0.0
H454 H 0.17282 0.96168 0.6248 0.0
H455 H 0.14629 0.91731 0.64959 0.0
C456 C 0.69078 0.44525 0.96055 0.0
C457 C 0.69151 0.41772 0.93457 0.0
C458 C 0.72693 0.46408 0.98412 0.0
C459 C 0.76456 0.45453 0.98229 0.0
C460 C 0.76458 0.42516 0.95741 0.0
C461 C 0.72832 0.40768 0.93336 0.0
C462 C 0.72555 0.49571 1.0094 0.0
C463 C 0.80345 0.41325 0.95511 0.0
C464 C 0.87284 0.52802 1.01026 0.0
C465 C 0.88082 0.5162 0.04755 0.0
C466 C 0.83477 0.50887 0.9891 0.0
C467 C 0.80434 0.47627 1.00513 0.0
C468 C 0.81227 0.46425 1.0428 0.0
C469 C 0.85 0.48463 0.06367 0.0
C470 C 0.82721 0.52344 0.94945 0.0
C471 C 0.78139 0.42919 0.06078 0.0
H472 H 0.66257 0.45365 0.9606 0.0
H473 H 0.72927 0.3873 0.91243 0.0
H474 H 0.73569 0.49029 1.03914 0.0
H475 H 0.74809 0.52363 0.99992 0.0
H476 H 0.69337 0.49843 1.00892 0.0
H477 H 0.79695 0.38736 0.93747 0.0
H478 H 0.82904 0.4372 0.94256 0.0
H479 H 0.81548 0.40703 0.98399 0.0
H480 H 0.89641 0.5522 0.99755 0.0
H481 H 0.8559 0.475 0.09237 0.0
H482 H 0.79685 0.5298 0.94715 0.0
H483 H 0.82439 0.5009 0.92854 0.0
H484 H 0.85315 0.54992 0.94158 0.0
H485 H 0.74984 0.43297 0.06129 0.0
H486 H 0.79219 0.42346 0.09029 0.0
H487 H 0.77715 0.40348 1.04352 0.0
C488 C 0.81269 0.68988 0.4588 0.0
C489 C 0.80845 0.69886 0.41996 0.0
C490 C 0.77684 0.67249 0.48003 0.0
C491 C 0.73545 0.66362 0.46206 0.0
C492 C 0.73113 0.67163 0.4225 0.0
C493 C 0.76759 0.68911 0.40201 0.0
C494 C 0.78327 0.66448 0.52194 0.0
C495 C 0.68789 0.66264 0.40196 0.0
C496 C 0.64006 0.59205 0.50917 0.0
C497 C 0.62135 0.61654 0.52516 0.0
C498 C 0.67732 0.60683 0.4892 0.0
C499 C 0.69674 0.64725 0.48479 0.0
C500 C 0.67859 0.67212 0.50159 0.0
C501 C 0.64133 0.65656 0.52147 0.0
C502 C 0.69536 0.57904 0.47208 0.0
C503 C 0.69811 0.71534 0.49792 0.0
H504 H 0.84425 0.69727 0.47269 0.0
H505 H 0.7642 0.69628 0.37209 0.0
H506 H 0.7693 0.68178 0.53855 0.0
H507 H 0.76664 0.63368 0.52876 0.0
H508 H 0.81736 0.67149 0.53136 0.0
H509 H 0.68983 0.66896 0.37094 0.0
H510 H 0.66927 0.6318 0.40631 0.0
H511 H 0.6702 0.67989 0.41384 0.0
H512 H 0.62516 0.56111 0.51159 0.0
H513 H 0.62737 0.67592 0.53343 0.0
H514 H 0.72926 0.58553 0.48178 0.0
H515 H 0.69386 0.58244 0.44066 0.0
H516 H 0.67796 0.54853 0.47967 0.0
H517 H 0.73183 0.72443 0.50886 0.0
H518 H 0.68117 0.73082 0.51361 0.0
H519 H 0.69753 0.72433 0.46751 0.0
C520 C 0.36814 0.44782 0.20098 0.0
C521 C 0.36561 0.41025 0.19262 0.0
C522 C 0.33538 0.46235 0.18832 0.0
C523 C 0.29922 0.4383 0.16744 0.0
C524 C 0.29848 0.40149 0.15626 0.0
C525 C 0.33188 0.38796 0.16895 0.0
C526 C 0.33778 0.50201 0.20025 0.0
C527 C 0.26053 0.37479 0.13426 0.0
C528 C 0.19265 0.44663 0.18723 0.0
C529 C 0.18236 0.46486 0.15395 0.0
C530 C 0.23067 0.43812 0.19189 0.0
C531 C 0.25969 0.44872 0.16286 0.0
C532 C 0.25012 0.46791 0.12955 0.0
C533 C 0.21142 0.47549 0.12534 0.0
C534 C 0.23957 0.41743 0.22787 0.0
C535 C 0.28056 0.48006 0.09825 0.0
H536 H 0.39422 0.46465 0.21967 0.0
H537 H 0.33002 0.35868 0.16315 0.0
H538 H 0.32642 0.51767 0.17649 0.0
H539 H 0.31693 0.49932 0.22401 0.0
H540 H 0.3706 0.51946 0.20996 0.0
H541 H 0.26747 0.3498 0.12314 0.0
H542 H 0.23386 0.36371 0.15318 0.0
H543 H 0.24981 0.39037 0.11009 0.0
H544 H 0.17105 0.43915 0.20993 0.0
H545 H 0.20369 0.48925 0.09934 0.0
H546 H 0.2693 0.43534 0.24305 0.0
H547 H 0.24421 0.39001 0.22074 0.0
H548 H 0.21347 0.4108 0.24748 0.0
H549 H 0.31236 0.49784 0.10997 0.0
H550 H 0.26961 0.49682 0.0752 0.0
H551 H 0.28429 0.45423 0.08577 0.0
C552 C 0.64283 0.32013 0.93673 0.0
C553 C 0.61594 0.34255 0.9316 0.0
C554 C 0.63233 0.28648 0.96009 0.0
C555 C 0.5938 0.27465 0.97883 0.0
C556 C 0.56719 0.298 0.97455 0.0
C557 C 0.57848 0.33142 0.95097 0.0
C558 C 0.66174 0.26273 0.96347 0.0
C559 C 0.526 0.28701 0.99395 0.0
C560 C 0.53999 0.1675 1.00274 0.0
C561 C 0.55013 0.1652 1.04191 0.0
C562 C 0.5546 0.20258 0.98198 0.0
C563 C 0.57986 0.2367 1.00068 0.0
C564 C 0.59068 0.23444 1.04022 0.0
C565 C 0.57593 0.1988 0.06026 0.0
C566 C 0.54235 0.20319 0.93996 0.0
C567 C 0.61717 0.26986 0.06157 0.0
H568 H 0.67124 0.32802 0.92113 0.0
H569 H 0.55758 0.34863 0.94697 0.0
H570 H 0.6691 0.25675 0.99381 0.0
H571 H 0.6459 0.23453 0.94982 0.0
H572 H 0.69197 0.27728 0.94981 0.0
H573 H 0.51034 0.30945 0.99003 0.0
H574 H 0.50392 0.25959 0.98233 0.0
H575 H 0.53167 0.28212 1.02485 0.0
H576 H 0.52016 0.14177 0.98825 0.0
H577 H 0.58383 0.19745 0.09053 0.0
H578 H 0.57122 0.21478 0.92373 0.0
H579 H 0.52313 0.22259 0.93402 0.0
H580 H 0.52378 0.1741 0.92931 0.0
H581 H 0.64792 0.283 0.0484 0.0
H582 H 0.62351 0.26335 0.09204 0.0
H583 H 0.60066 0.29169 0.05976 0.0
C584 C 0.91917 0.83831 0.3704 0.0
C585 C 0.93332 0.80711 0.38186 0.0
C586 C 0.9358 0.8748 0.38804 0.0
C587 C 0.96863 0.88137 0.41755 0.0
C588 C 0.98609 0.85126 0.42634 0.0
C589 C 0.96812 0.81482 0.40885 0.0
C590 C 0.91527 0.90509 0.37747 0.0
C591 C 0.02192 0.8565 0.45636 0.0
C592 C 0.0281 0.98638 0.44884 0.0
C593 C 1.01047 0.98891 0.48338 0.0
C594 C 1.01542 0.95193 0.42773 0.0
C595 C 0.98311 0.91862 0.44035 0.0
C596 C 0.96474 0.92113 0.47499 0.0
C597 C 0.9789 0.95575 0.49615 0.0
C598 C 0.03718 0.95109 0.39195 0.0
C599 C 0.92956 0.88719 0.48957 0.0
H600 H 0.89134 0.83265 0.35087 0.0
H601 H 0.97862 0.79099 0.41906 0.0
H602 H 0.89688 0.90824 0.40134 0.0
H603 H 0.93964 0.93348 0.37259 0.0
H604 H 0.89345 0.89753 0.35158 0.0
H605 H 0.03616 0.8331 0.45608 0.0
H606 H 0.0471 0.88461 0.45221 0.0
H607 H 1.00986 0.85653 0.48482 0.0
H608 H 0.05267 1.0114 0.43845 0.0
H609 H 0.96478 0.95698 0.52255 0.0
H610 H 1.01367 0.94477 0.36721 0.0
H611 H 0.05145 0.92766 0.39425 0.0
H612 H 0.06249 0.97878 0.38627 0.0
H613 H 0.90245 0.87906 0.46796 0.0
H614 H 0.91815 0.89343 0.51656 0.0
H615 H 0.94063 0.8619 0.49433 0.0
C616 C 0.25554 0.7757 0.77789 0.0
C617 C 0.21313 0.76579 0.76381 0.0
C618 C 0.28347 0.75957 0.76305 0.0
C619 C 0.26898 0.73401 0.73237 0.0
C620 C 0.22572 0.72264 0.71902 0.0
C621 C 0.19814 0.73844 0.73526 0.0
C622 C 0.32915 0.77193 0.77858 0.0
C623 C 0.20928 0.69603 0.68587 0.0
C624 C 0.35351 0.7405 0.66433 0.0
C625 C 0.36375 0.70693 0.67356 0.0
C626 C 0.32172 0.74883 0.68242 0.0
C627 C 0.30032 0.72352 0.71129 0.0
C628 C 0.31052 0.68969 0.72103 0.0
C629 C 0.34187 0.68159 0.70179 0.0
C630 C 0.31147 0.78508 0.67095 0.0
C631 C 0.28884 0.66243 0.75215 0.0
H632 H 0.26748 0.79764 0.79921 0.0
H633 H 0.16532 0.73098 0.72444 0.0
H634 H 0.34022 0.74661 0.78313 0.0
H635 H 0.34953 0.79158 0.75774 0.0
H636 H 0.33371 0.78722 0.80587 0.0
H637 H 0.1741 0.68638 0.68197 0.0
H638 H 0.22258 0.71127 0.65946 0.0
H639 H 0.2197 0.67031 0.68974 0.0
H640 H 0.37071 0.76068 0.64315 0.0
H641 H 0.349 0.65525 0.70872 0.0
H642 H 0.31998 0.80521 0.69503 0.0
H643 H 0.27691 0.77808 0.66385 0.0
H644 H 0.32878 0.80014 0.64607 0.0
H645 H 0.29551 0.67769 0.77955 0.0
H646 H 0.2995 0.63676 0.75552 0.0
H647 H 0.25395 0.65259 0.74606 0.0
C648 C 0.67616 0.80901 0.81168 0.0
C649 C 0.67057 0.84149 0.82679 0.0
C650 C 0.70439 0.81297 0.78292 0.0
C651 C 0.72789 0.85037 0.76979 0.0
C652 C 0.72212 0.88317 0.78521 0.0
C653 C 0.69347 0.87824 0.81344 0.0
C654 C 0.70968 0.77733 0.76733 0.0
C655 C 0.74689 0.92362 0.7725 0.0
C656 C 0.83293 0.88007 0.72465 0.0
C657 C 0.82111 0.89085 0.68792 0.0
C658 C 0.80234 0.86319 0.75104 0.0
C659 C 0.75892 0.85623 0.74015 0.0
C660 C 0.74655 0.86252 0.70189 0.0
C661 C 0.77776 0.88012 0.67631 0.0
C662 C 0.81685 0.85657 0.79153 0.0
C663 C 0.70044 0.85431 0.68889 0.0
H664 H 0.65877 0.78067 0.82272 0.0
H665 H 0.68993 0.90323 0.82621 0.0
H666 H 0.71062 0.77949 0.73592 0.0
H667 H 0.74019 0.77434 0.77907 0.0
H668 H 0.68369 0.75083 0.77508 0.0
H669 H 0.73881 0.94593 0.78767 0.0
H670 H 0.78142 0.92861 0.77756 0.0
H671 H 0.74044 0.92745 0.74155 0.0
H672 H 0.86626 0.88703 0.73358 0.0
H673 H 0.76794 0.88813 0.64812 0.0
H674 H 0.79658 0.82854 0.80299 0.0
H675 H 0.81401 0.87949 0.80961 0.0
H676 H 0.8504 0.8572 0.794 0.0
H677 H 0.69558 0.85378 0.6574 0.0
H678 H 0.68911 0.87707 0.6993 0.0
H679 H 0.68065 0.82627 0.7008 0.0
C680 C 0.83911 0.31504 0.36453 0.0
C681 C 0.8818 0.33138 0.37687 0.0
C682 C 0.82722 0.29284 0.33195 0.0
C683 C 0.85889 0.28621 0.31136 0.0
C684 C 0.90228 0.30283 0.32352 0.0
C685 C 0.91328 0.32527 0.35642 0.0
C686 C 0.78052 0.27553 0.3203 0.0
C687 C 0.93683 0.29593 0.30262 0.0
C688 C 0.80722 0.19495 0.25753 0.0
C689 C 0.79388 0.20955 0.22334 0.0
C690 C 0.83295 0.21976 0.28517 0.0
C691 C 0.84528 0.26009 0.27848 0.0
C692 C 0.83567 0.27471 0.24241 0.0
C693 C 0.80997 0.24918 0.21515 0.0
C694 C 0.84286 0.2029 0.32303 0.0
C695 C 0.84874 0.31749 0.234 0.0
H696 H 0.81487 0.31876 0.38128 0.0
H697 H 0.94622 0.33747 0.36661 0.0
H698 H 0.77417 0.28381 0.29042 0.0
H699 H 0.77099 0.24362 0.32199 0.0
H700 H 0.7602 0.28494 0.33859 0.0
H701 H 0.96879 0.31558 0.31198 0.0
H702 H 0.93631 0.26579 0.30796 0.0
H703 H 0.9315 0.29977 0.2715 0.0
H704 H 0.79552 0.16419 0.26354 0.0
H705 H 0.79987 0.26055 0.18863 0.0
H706 H 0.82064 0.20571 0.34372 0.0
H707 H 0.87558 0.21861 0.33429 0.0
H708 H 0.83926 0.17186 0.32108 0.0
H709 H 0.82773 0.32987 0.24823 0.0
H710 H 0.84627 0.32388 0.20302 0.0
H711 H 0.88177 0.33212 0.24527 0.0
C712 C 0.40165 0.73301 0.36005 0.0
C713 C 0.41633 0.73106 0.32418 0.0
C714 C 0.41191 0.71218 0.39186 0.0
C715 C 0.43757 0.68861 0.38789 0.0
C716 C 0.45516 0.68906 0.35236 0.0
C717 C 0.44418 0.71004 0.32108 0.0
C718 C 0.39238 0.71296 0.42888 0.0
C719 C 0.483 0.66497 0.34646 0.0
C720 C 0.48267 0.6455 0.47569 0.0
C721 C 0.45452 0.60746 0.47725 0.0
C722 C 0.47736 0.67225 0.44732 0.0
C723 C 0.44295 0.66102 0.41951 0.0
C724 C 0.41402 0.62279 0.42136 0.0
C725 C 0.42018 0.59659 0.45001 0.0
C726 C 0.50911 0.7124 0.44672 0.0
C727 C 0.37671 0.60934 0.39266 0.0
H728 H 0.37897 0.74808 0.36234 0.0
H729 H 0.45448 0.7074 0.29321 0.0
H730 H 0.3672 0.68497 0.43356 0.0
H731 H 0.41646 0.71691 0.45308 0.0
H732 H 0.37805 0.73631 0.42905 0.0
H733 H 0.49829 0.67195 0.31895 0.0
H734 H 0.50809 0.66927 0.36984 0.0
H735 H 0.46357 0.634 0.34684 0.0
H736 H 0.50949 0.6543 0.49638 0.0
H737 H 0.39826 0.56737 0.45082 0.0
H738 H 0.49258 0.73406 0.44757 0.0
H739 H 0.52559 0.71752 0.41985 0.0
H740 H 0.53327 0.71719 0.47099 0.0
H741 H 0.35691 0.62839 0.39285 0.0
H742 H 0.35648 0.57919 0.39836 0.0
H743 H 0.38816 0.61123 0.36367 0.0
C744 C 0.06642 0.43002 0.83378 0.0
C745 C 0.10853 0.43039 0.83198 0.0
C746 C 0.0535 0.4469 0.86431 0.0
C747 C 0.08344 0.46627 0.89376 0.0
C748 C 0.12614 0.46712 0.89176 0.0
C749 C 0.13788 0.44902 0.86152 0.0
C750 C 1.00754 0.44422 0.86483 0.0
C751 C 0.15989 0.48795 0.9213 0.0
C752 C 0.05703 0.54306 0.95065 0.0
C753 C 0.04521 0.52441 0.98587 0.0
C754 C 0.07006 0.52497 0.92119 0.0
C755 C 0.07047 0.4864 0.92583 0.0
C756 C 0.05838 0.46733 0.96129 0.0
C757 C 0.04659 0.48651 0.99072 0.0
C758 C 0.08363 0.54745 0.88489 0.0
C759 C 0.05707 0.42613 0.96795 0.0
H760 H 0.0435 0.41702 0.81083 0.0
H761 H 0.1705 0.44983 0.86071 0.0
H762 H 0.99512 0.43239 0.89268 0.0
H763 H 1.00461 0.47341 0.86124 0.0
H764 H 0.98743 0.42571 0.84194 0.0
H765 H 0.1917 0.48669 0.91574 0.0
H766 H 0.16167 0.51863 0.92192 0.0
H767 H 0.15158 0.47522 0.9499 0.0
H768 H 0.05645 0.57226 0.94609 0.0
H769 H 0.03734 0.4713 1.01735 0.0
H770 H 0.06189 0.53328 0.86064 0.0
H771 H 0.11592 0.54778 0.87903 0.0
H772 H 0.08378 0.57767 0.8861 0.0
H773 H 0.03533 0.40757 0.94598 0.0
H774 H 0.04627 0.41481 0.99647 0.0
H775 H 0.08901 0.42384 0.96526 0.0
C776 C 0.55414 0.86134 0.94234 0.0
C777 C 0.58215 0.87697 0.91375 0.0
C778 C 0.53931 0.8851 0.96373 0.0
C779 C 0.55185 0.92519 0.95535 0.0
C780 C 0.57686 0.94041 0.92411 0.0
C781 C 0.59242 0.91625 0.9042 0.0
C782 C 0.51342 0.86782 0.99727 0.0
C783 C 0.59008 0.9828 0.9136 0.0
C784 C 0.50356 0.98916 1.00537 0.0
C785 C 0.53595 1.00571 1.03312 0.0
C786 C 0.50805 0.96278 0.97962 0.0
C787 C 0.54519 0.952 0.98268 0.0
C788 C 0.5774 0.96798 1.01138 0.0
C789 C 0.57264 0.99506 1.03584 0.0
C790 C 0.47365 0.94713 0.94872 0.0
C791 C 0.61706 0.95657 1.01625 0.0
H792 H 0.54593 0.83087 0.94939 0.0
H793 H 0.61474 0.92863 0.88267 0.0
H794 H 0.53354 0.87656 1.02394 0.0
H795 H 0.48621 0.87866 0.99817 0.0
H796 H 0.50125 0.83582 0.99663 0.0
H797 H 0.60264 0.98867 0.88487 0.0
H798 H 0.56293 0.9938 0.91432 0.0
H799 H 0.61526 0.9992 0.93452 0.0
H800 H 0.47516 0.99745 1.00331 0.0
H801 H 0.59742 1.00736 0.0577 0.0
H802 H 0.46248 0.91517 0.94971 0.0
H803 H 0.48663 0.95634 0.92051 0.0
H804 H 0.44604 0.95723 0.95113 0.0
H805 H 0.60848 0.92475 1.01898 0.0
H806 H 0.63757 0.96963 1.04165 0.0
H807 H 0.63579 0.96583 0.9908 0.0
C808 C 0.96014 0.30941 0.46767 0.0
C809 C 0.92107 0.30534 0.44801 0.0
C810 C 0.97455 0.27772 0.47434 0.0
C811 C 0.94992 0.24135 0.45963 0.0
C812 C 0.91108 0.23741 0.43851 0.0
C813 C 0.89667 0.26929 0.43366 0.0
C814 C 1.01501 0.28276 0.49873 0.0
C815 C 0.88447 0.19942 0.42149 0.0
C816 C 1.00657 0.16647 0.46125 0.0
C817 C 0.98981 0.14375 0.49285 0.0
C818 C 0.99225 0.19727 0.44872 0.0
C819 C 0.96261 0.20674 0.4698 0.0
C820 C 0.94591 0.18382 0.50186 0.0
C821 C 0.95883 0.15199 0.51228 0.0
C822 C 1.00915 0.21993 0.41333 0.0
C823 C 0.91563 0.19374 0.52613 0.0
H824 H 0.97889 0.33738 0.47862 0.0
H825 H 0.86591 0.26578 0.41935 0.0
H826 H 1.00794 0.26408 0.52462 0.0
H827 H 0.03767 0.27369 0.48316 0.0
H828 H 0.03065 0.31306 0.50761 0.0
H829 H 0.85358 0.20044 0.40846 0.0
H830 H 0.90214 0.19178 0.39937 0.0
H831 H 0.87814 0.17597 0.44335 0.0
H832 H 0.03067 0.16008 0.44637 0.0
H833 H 0.94624 0.1347 0.53705 0.0
H834 H 0.02924 0.2496 0.42092 0.0
H835 H 0.98249 0.22238 0.39382 0.0
H836 H 0.02837 0.20643 0.398 0.0
H837 H 0.93023 0.22354 0.53663 0.0
H838 H 0.90695 0.17377 0.55101 0.0
H839 H 0.88613 0.19274 0.50898 0.0
C840 C 0.29705 0.66993 0.20315 0.0
C841 C 0.30393 0.70593 0.21912 0.0
C842 C 0.2603 0.65245 0.17969 0.0
C843 C 0.23011 0.67178 0.17167 0.0
C844 C 0.23705 0.70815 0.18788 0.0
C845 C 0.2736 0.72453 0.21166 0.0
C846 C 0.25372 0.61336 0.16355 0.0
C847 C 0.20583 0.72983 0.18011 0.0
C848 C 0.15123 0.64798 0.08524 0.0
C849 C 0.11347 0.62733 0.10206 0.0
C850 C 0.18981 0.66161 0.10734 0.0
C851 C 0.19069 0.65394 0.14709 0.0
C852 C 0.1529 0.63172 0.16384 0.0
C853 C 0.11476 0.61919 0.14125 0.0
C854 C 0.2293 0.68549 0.08841 0.0
C855 C 0.15238 0.62229 0.20593 0.0
H856 H 0.32066 0.65569 0.20881 0.0
H857 H 0.2787 0.75208 0.2245 0.0
H858 H 0.22317 0.59259 0.17215 0.0
H859 H 0.25183 0.61524 0.13204 0.0
H860 H 0.27968 0.60177 0.17314 0.0
H861 H 0.21659 0.75834 0.19392 0.0
H862 H 0.20103 0.73437 0.14903 0.0
H863 H 0.17458 0.71266 0.19059 0.0
H864 H 0.15041 0.65441 0.05497 0.0
H865 H 0.08568 0.60363 0.15454 0.0
H866 H 0.25541 0.67344 0.09544 0.0
H867 H 0.23995 0.71527 0.09929 0.0
H868 H 0.22399 0.68688 0.057 0.0
H869 H 0.17796 0.61011 0.215 0.0
H870 H 0.12153 0.60138 0.21379 0.0
H871 H 0.15844 0.64905 0.22205 0.0
C872 C 0.1894 0.43831 0.68942 0.0
C873 C 0.19352 0.41969 0.72434 0.0
C874 C 0.22458 0.4551 0.66709 0.0
C875 C 0.26552 0.45439 0.68037 0.0
C876 C 0.26962 0.43516 0.71555 0.0
C877 C 0.23371 0.41811 0.73696 0.0
C878 C 0.21812 0.4747 0.62979 0.0
C879 C 0.31233 0.43386 0.73136 0.0
C880 C 0.35473 0.47331 0.61153 0.0
C881 C 0.37845 0.51232 0.61753 0.0
C882 C 0.31787 0.45443 0.63117 0.0
C883 C 0.30411 0.47461 0.65814 0.0
C884 C 0.3277 0.51407 0.66415 0.0
C885 C 0.36419 0.53238 0.64377 0.0
C886 C 0.29372 0.41265 0.62319 0.0
C887 C 0.31478 0.53693 0.69268 0.0
H888 H 0.15872 0.44076 0.6802 0.0
H889 H 0.23725 0.40484 0.76448 0.0
H890 H 0.23518 0.50612 0.6316 0.0
H891 H 0.23158 0.46369 0.6067 0.0
H892 H 0.18406 0.47023 0.62198 0.0
H893 H 0.31015 0.41672 0.75831 0.0
H894 H 0.3269 0.42124 0.71038 0.0
H895 H 0.33395 0.46359 0.73674 0.0
H896 H 0.365 0.45727 0.59139 0.0
H897 H 0.38205 0.56237 0.64903 0.0
H898 H 0.2601 0.40916 0.61446 0.0
H899 H 0.29381 0.39489 0.64942 0.0
H900 H 0.30744 0.40126 0.6005 0.0
H901 H 0.28179 0.53658 0.68547 0.0
H902 H 0.33595 0.56738 0.69387 0.0
H903 H 0.31537 0.52344 0.72139 0.0
C904 C 0.67613 0.77313 0.92118 0.0
C905 C 0.68645 0.80964 0.90376 0.0
C906 C 0.70776 0.75684 0.93247 0.0
C907 C 0.75063 0.77765 0.92591 0.0
C908 C 0.76112 0.81458 0.90804 0.0
C909 C 0.72882 0.8303 0.89748 0.0
C910 C 0.69532 0.71744 0.9515 0.0
C911 C 0.80637 0.83748 0.90022 0.0
C912 C 0.83522 0.74957 0.98629 0.0
C913 C 0.84558 0.72541 0.96182 0.0
C914 C 0.80473 0.7672 0.97479 0.0
C915 C 0.7844 0.76068 0.93787 0.0
C916 C 0.79536 0.73695 0.91276 0.0
C917 C 0.82573 0.7195 0.9251 0.0
C918 C 0.79372 0.79226 1.00235 0.0
C919 C 0.77468 0.72968 0.87303 0.0
H920 H 0.6432 0.75751 0.92598 0.0
H921 H 0.73661 0.85889 0.88461 0.0
H922 H 0.70517 0.69733 0.9347 0.0
H923 H 0.71198 0.71911 0.98008 0.0
H924 H 0.66059 0.7052 0.95465 0.0
H925 H 0.80908 0.8657 0.886 0.0
H926 H 0.8264 0.84268 0.92722 0.0
H927 H 0.81938 0.82087 0.88185 0.0
H928 H 0.85032 0.75401 1.01475 0.0
H929 H 0.83419 0.70134 0.90587 0.0
H930 H 0.75976 0.77977 1.00844 0.0
H931 H 0.7984 0.82139 0.98958 0.0
H932 H 0.81325 0.79528 1.02964 0.0
H933 H 0.74003 0.715 0.87441 0.0
H934 H 0.78785 0.71159 0.85659 0.0
H935 H 0.77899 0.75743 0.85737 0.0
C936 C 0.41549 0.83655 0.28405 0.0
C937 C 0.43019 0.8072 0.27288 0.0
C938 C 0.43415 0.87525 0.27206 0.0
C939 C 0.4689 0.88525 0.24846 0.0
C940 C 0.48667 0.85638 0.2405 0.0
C941 C 0.46707 0.81781 0.25271 0.0
C942 C 0.41387 0.90459 0.28156 0.0
C943 C 0.52403 0.8654 0.21607 0.0
C944 C 0.4793 0.96721 0.17434 0.0
C945 C 0.51156 0.99817 0.19122 0.0
C946 C 0.46502 0.93069 0.19276 0.0
C947 C 0.48358 0.92449 0.229 0.0
C948 C 0.51592 0.9558 0.24629 0.0
C949 C 0.52932 0.99211 0.22738 0.0
C950 C 0.43023 0.89853 0.17315 0.0
C951 C 0.53686 0.95078 0.28463 0.0
H952 H 0.38627 0.82839 0.29859 0.0
H953 H 0.47786 0.79522 0.24298 0.0
H954 H 0.43834 0.93186 0.29078 0.0
H955 H 0.39626 0.91131 0.25578 0.0
H956 H 0.39131 0.89391 0.30431 0.0
H957 H 0.53805 0.84178 0.21724 0.0
H958 H 0.51357 0.86968 0.18611 0.0
H959 H 0.54897 0.89248 0.22509 0.0
H960 H 0.4654 0.97143 0.14644 0.0
H961 H 0.55436 1.0157 0.24072 0.0
H962 H 0.40355 0.88661 0.19191 0.0
H963 H 0.44241 0.87474 0.16736 0.0
H964 H 0.41785 0.90823 0.14584 0.0
H965 H 0.51267 0.94073 0.30604 0.0
H966 H 0.56117 0.97791 0.29457 0.0
H967 H 0.55224 0.92833 0.28319 0.0
C968 C 0.11921 0.34188 0.69202 0.0
C969 C 0.12344 0.3403 0.73201 0.0
C970 C 0.10949 0.3083 0.66978 0.0
C971 C 0.10247 0.27135 0.68754 0.0
C972 C 0.10754 0.26975 0.72791 0.0
C973 C 0.11852 0.30392 0.74933 0.0
C974 C 0.10563 0.31236 0.62706 0.0
C975 C 0.09983 0.23157 0.74876 0.0
C976 C 0.02772 0.18248 0.63399 0.0
C977 C 0.05525 0.16396 0.62176 0.0
C978 C 0.04257 0.21667 0.65532 0.0
C979 C 0.08665 0.23439 0.66439 0.0
C980 C 0.11488 0.21628 0.65156 0.0
C981 C 0.09894 0.18127 0.63096 0.0
C982 C 1.01066 0.23366 0.66856 0.0
C983 C 0.16213 0.23418 0.65924 0.0
H984 H 0.12212 0.3693 0.67797 0.0
H985 H 0.12264 0.30202 0.77997 0.0
H986 H 0.1236 0.29618 0.61381 0.0
H987 H 0.07189 0.2999 0.61671 0.0
H988 H 0.1175 0.34297 0.61729 0.0
H989 H 0.10599 0.23493 0.78 0.0
H990 H 0.06642 0.21312 0.74282 0.0
H991 H 0.12036 0.21618 0.73851 0.0
H992 H 0.99391 0.16985 0.62725 0.0
H993 H 0.12079 0.16778 0.6216 0.0
H994 H 1.01641 0.26306 0.65616 0.0
H995 H 1.01436 0.23634 0.69994 0.0
H996 H 0.97743 0.21593 0.66049 0.0
H997 H 0.17264 0.26429 0.64796 0.0
H998 H 0.18015 0.21789 0.64618 0.0
H999 H 0.17017 0.23539 0.69033 0.0
C1000 C 0.85215 0.43305 0.48127 0.0
C1001 C 0.8474 0.39391 0.47921 0.0
C1002 C 0.81877 0.44481 0.49226 0.0
C1003 C 0.77979 0.41658 0.50082 0.0
C1004 C 0.77591 0.37701 0.50083 0.0
C1005 C 0.80983 0.3662 0.49 0.0
C1006 C 0.82429 0.48726 0.49234 0.0
C1007 C 0.73489 0.34595 0.5095 0.0
C1008 C 0.69194 0.44083 0.54577 0.0
C1009 C 0.66479 0.44239 0.51384 0.0
C1010 C 0.73032 0.43383 0.54195 0.0
C1011 C 0.74157 0.42784 0.50542 0.0
C1012 C 0.71478 0.4302 0.47304 0.0
C1013 C 0.67691 0.43766 0.47763 0.0
C1014 C 0.75827 0.43184 0.57707 0.0
C1015 C 0.7256 0.42388 0.43354 0.0
H1016 H 0.88123 0.45425 0.47248 0.0
H1017 H 0.8062 0.33594 0.48762 0.0
H1018 H 0.80549 0.49457 0.46773 0.0
H1019 H 0.8123 0.49462 0.51849 0.0
H1020 H 0.85802 0.50541 0.49043 0.0
H1021 H 0.73847 0.3169 0.51198 0.0
H1022 H 0.72317 0.35199 0.53635 0.0
H1023 H 0.71029 0.34554 0.48645 0.0
H1024 H 0.68273 0.44416 0.57389 0.0
H1025 H 0.65665 0.4397 0.45275 0.0
H1026 H 0.79132 0.45081 0.57339 0.0
H1027 H 0.75908 0.402 0.58152 0.0
H1028 H 0.74691 0.44048 0.60296 0.0
H1029 H 0.75735 0.44417 0.42738 0.0
H1030 H 0.70202 0.42784 0.41125 0.0
H1031 H 0.72701 0.39423 0.43167 0.0
loop_
_geom_bond_atom_site_label_1
_geom_bond_atom_site_label_2
_geom_bond_distance
_geom_bond_site_symmetry_2
_ccdc_geom_bond_type
C0 N1 1.317 . S
C0 N2 1.348 . S
C0 C3 1.485 . S
N1 C0 1.317 . S
N1 N5 1.370 . S
N2 C0 1.348 . S
N2 C4 1.346 . S
C3 C0 1.485 . S
C3 H7 0.960 . S
C3 H8 0.961 . S
C3 H9 0.960 . S
C4 N2 1.346 . S
C4 N5 1.307 . S
C4 C6 1.486 . S
N5 N1 1.370 . S
N5 C4 1.307 . S
C6 C4 1.486 . S
C6 H10 0.960 . S
C6 H11 0.960 . S
C6 H12 0.959 . S
H7 C3 0.960 . S
H8 C3 0.961 . S
H9 C3 0.960 . S
H10 C6 0.960 . S
H11 C6 0.960 . S
H12 C6 0.959 . S
C13 N14 1.317 . S
C13 N15 1.348 . S
C13 C16 1.485 . S
N14 C13 1.317 . S
N14 N18 1.370 . S
N15 C13 1.348 . S
N15 C17 1.346 . S
C16 C13 1.485 . S
C16 H20 0.960 . S
C16 H21 0.961 . S
C16 H22 0.960 . S
C17 N15 1.346 . S
C17 N18 1.307 . S
C17 C19 1.486 . S
N18 N14 1.370 . S
N18 C17 1.307 . S
C19 C17 1.486 . S
C19 H23 0.960 . S
C19 H24 0.960 . S
C19 H25 0.959 . S
H20 C16 0.960 . S
H21 C16 0.961 . S
H22 C16 0.960 . S
H23 C19 0.960 . S
H24 C19 0.960 . S
H25 C19 0.959 . S
C26 N27 1.317 . S
C26 N28 1.348 . S
C26 C29 1.485 . S
N27 C26 1.317 . S
N27 N31 1.370 . S
N28 C26 1.348 . S
N28 C30 1.346 . S
C29 C26 1.485 . S
C29 H33 0.960 . S
C29 H34 0.961 . S
C29 H35 0.960 . S
C30 N28 1.346 . S
C30 N31 1.307 . S
C30 C32 1.486 . S
N31 N27 1.370 . S
N31 C30 1.307 . S
C32 C30 1.486 . S
C32 H36 0.960 . S
C32 H37 0.960 . S
C32 H38 0.959 . S
H33 C29 0.960 . S
H34 C29 0.961 . S
H35 C29 0.960 . S
H36 C32 0.960 . S
H37 C32 0.960 . S
H38 C32 0.959 . S
C39 N40 1.317 . S
C39 N41 1.348 . S
C39 C42 1.485 . S
N40 C39 1.317 . S
N40 N44 1.370 . S
N41 C39 1.348 . S
N41 C43 1.346 . S
C42 C39 1.485 . S
C42 H46 0.960 . S
C42 H47 0.961 . S
C42 H48 0.960 . S
C43 N41 1.346 . S
C43 N44 1.307 . S
C43 C45 1.486 . S
N44 N40 1.370 . S
N44 C43 1.307 . S
C45 C43 1.486 . S
C45 H49 0.960 . S
C45 H50 0.960 . S
C45 H51 0.959 . S
H46 C42 0.960 . S
H47 C42 0.961 . S
H48 C42 0.960 . S
H49 C45 0.960 . S
H50 C45 0.960 . S
H51 C45 0.959 . S
C52 N53 1.317 . S
C52 N54 1.348 . S
C52 C55 1.485 . S
N53 C52 1.317 . S
N53 N57 1.370 . S
N54 C52 1.348 . S
N54 C56 1.346 . S
C55 C52 1.485 . S
C55 H59 0.960 . S
C55 H60 0.961 . S
C55 H61 0.960 . S
C56 N54 1.346 . S
C56 N57 1.307 . S
C56 C58 1.486 . S
N57 N53 1.370 . S
N57 C56 1.307 . S
C58 C56 1.486 . S
C58 H62 0.960 . S
C58 H63 0.960 . S
C58 H64 0.959 . S
H59 C55 0.960 . S
H60 C55 0.961 . S
H61 C55 0.960 . S
H62 C58 0.960 . S
H63 C58 0.960 . S
H64 C58 0.959 . S
C65 N66 1.317 . S
C65 N67 1.348 . S
C65 C68 1.485 . S
N66 C65 1.317 . S
N66 N70 1.370 . S
N67 C65 1.348 . S
N67 C69 1.346 . S
C68 C65 1.485 . S
C68 H72 0.960 . S
C68 H73 0.961 . S
C68 H74 0.960 . S
C69 N67 1.346 . S
C69 N70 1.307 . S
C69 C71 1.486 . S
N70 N66 1.370 . S
N70 C69 1.307 . S
C71 C69 1.486 . S
C71 H75 0.960 . S
C71 H76 0.960 . S
C71 H77 0.959 . S
H72 C68 0.960 . S
H73 C68 0.961 . S
H74 C68 0.960 . S
H75 C71 0.960 . S
H76 C71 0.960 . S
H77 C71 0.959 . S
C78 N79 1.317 . S
C78 N80 1.348 . S
C78 C81 1.485 . S
N79 C78 1.317 . S
N79 N83 1.370 . S
N80 C78 1.348 . S
N80 C82 1.346 . S
C81 C78 1.485 . S
C81 H85 0.960 . S
C81 H86 0.961 . S
C81 H87 0.960 . S
C82 N80 1.346 . S
C82 N83 1.307 . S
C82 C84 1.486 . S
N83 N79 1.370 . S
N83 C82 1.307 . S
C84 C82 1.486 . S
C84 H88 0.960 . S
C84 H89 0.960 . S
C84 H90 0.959 . S
H85 C81 0.960 . S
H86 C81 0.961 . S
H87 C81 0.960 . S
H88 C84 0.960 . S
H89 C84 0.960 . S
H90 C84 0.959 . S
C91 N92 1.317 . S
C91 N93 1.348 . S
C91 C94 1.485 . S
N92 C91 1.317 . S
N92 N96 1.370 . S
N93 C91 1.348 . S
N93 C95 1.346 . S
C94 C91 1.485 . S
C94 H98 0.960 . S
C94 H99 0.961 . S
C94 H100 0.960 . S
C95 N93 1.346 . S
C95 N96 1.307 . S
C95 C97 1.486 . S
N96 N92 1.370 . S
N96 C95 1.307 . S
C97 C95 1.486 . S
C97 H101 0.960 . S
C97 H102 0.960 . S
C97 H103 0.959 . S
H98 C94 0.960 . S
H99 C94 0.961 . S
H100 C94 0.960 . S
H101 C97 0.960 . S
H102 C97 0.960 . S
H103 C97 0.959 . S
Tb104 C106 2.809 1_545 S
Tb104 O124 2.484 1_545 S
Tb104 O125 2.440 1_545 S
Tb104 O126 2.658 1_655 S
Tb104 O127 2.409 1_655 S
Tb104 O128 2.378 1_645 S
Tb104 O132 2.325 1_645 S
Tb104 O135 2.341 . S
Tb105 C115 2.809 . S
Tb105 O126 2.325 . S
Tb105 O129 2.341 1_545 S
Tb105 O130 2.484 . S
Tb105 O131 2.440 . S
Tb105 O132 2.658 1_545 S
Tb105 O133 2.409 1_545 S
Tb105 O134 2.378 . S
C106 Tb104 2.809 1_565 S
C106 C107 1.514 . S
C106 O124 1.248 . S
C106 O125 1.266 . S
C107 C106 1.514 . S
C107 C108 1.359 . S
C107 C112 1.348 . S
C108 C107 1.359 . S
C108 C109 1.380 . S
C108 H136 0.929 . S
C109 C108 1.380 . S
C109 C110 1.347 . S
C109 H137 0.931 . S
C110 C109 1.347 . S
C110 C111 1.369 . S
C111 C110 1.369 . S
C111 C112 1.408 . S
C111 H138 0.930 . S
C112 C107 1.348 . S
C112 C111 1.408 . S
C112 H139 0.930 . S
C113 O126 1.281 . S
C113 O127 1.254 . S
C114 O128 1.236 . S
C114 O129 1.266 . S
C115 Tb105 2.809 . S
C115 C116 1.514 . S
C115 O130 1.248 . S
C115 O131 1.266 . S
C116 C115 1.514 . S
C116 C117 1.359 . S
C116 C121 1.348 . S
C117 C116 1.359 . S
C117 C118 1.380 . S
C117 H140 0.929 . S
C118 C117 1.380 . S
C118 C119 1.347 . S
C118 H141 0.931 . S
C119 C118 1.347 . S
C119 C120 1.369 . S
C120 C119 1.369 . S
C120 C121 1.408 . S
C120 H142 0.930 . S
C121 C116 1.348 . S
C121 C120 1.408 . S
C121 H143 0.930 . S
C122 O132 1.281 . S
C122 O133 1.254 . S
C123 O134 1.236 . S
C123 O135 1.266 1_455 S
O124 Tb104 2.484 1_565 S
O124 C106 1.248 . S
O125 Tb104 2.440 1_565 S
O125 C106 1.266 . S
O126 Tb104 2.658 1_455 S
O126 Tb105 2.325 . S
O126 C113 1.281 . S
O127 Tb104 2.409 1_455 S
O127 C113 1.254 . S
O128 Tb104 2.378 1_465 S
O128 C114 1.236 . S
O129 Tb105 2.341 1_565 S
O129 C114 1.266 . S
O130 Tb105 2.484 . S
O130 C115 1.248 . S
O131 Tb105 2.440 . S
O131 C115 1.266 . S
O132 Tb104 2.325 1_465 S
O132 Tb105 2.658 1_565 S
O132 C122 1.281 . S
O133 Tb105 2.409 1_565 S
O133 C122 1.254 . S
O134 Tb105 2.378 . S
O134 C123 1.236 . S
O135 Tb104 2.341 . S
O135 C123 1.266 1_655 S
H136 C108 0.929 . S
H137 C109 0.931 . S
H138 C111 0.930 . S
H139 C112 0.930 . S
H140 C117 0.929 . S
H141 C118 0.931 . S
H142 C120 0.930 . S
H143 C121 0.930 . S
Tb144 C146 2.809 . S
Tb144 O164 2.484 . S
Tb144 O165 2.440 . S
Tb144 O166 2.658 1_545 S
Tb144 O167 2.409 1_545 S
Tb144 O168 2.378 . S
Tb144 O172 2.325 . S
Tb144 O175 2.340 . S
Tb145 C155 2.809 1_544 S
Tb145 O166 2.325 1_545 S
Tb145 O169 2.341 . S
Tb145 O170 2.484 1_545 S
Tb145 O171 2.440 1_554 S
Tb145 O172 2.658 . S
Tb145 O173 2.409 1_554 S
Tb145 O174 2.378 . S
C146 Tb144 2.809 . S
C146 C147 1.514 . S
C146 O164 1.248 . S
C146 O165 1.266 . S
C147 C146 1.514 . S
C147 C148 1.359 . S
C147 C152 1.348 . S
C148 C147 1.359 . S
C148 C149 1.380 . S
C148 H176 0.929 . S
C149 C148 1.380 . S
C149 C150 1.347 . S
C149 H177 0.931 . S
C150 C149 1.347 . S
C150 C151 1.369 . S
C151 C150 1.369 . S
C151 C152 1.408 . S
C151 H178 0.930 . S
C152 C147 1.348 . S
C152 C151 1.408 . S
C152 H179 0.930 . S
C153 O166 1.281 . S
C153 O167 1.254 . S
C154 O168 1.236 . S
C154 O169 1.266 . S
C155 Tb145 2.809 1_566 S
C155 C156 1.514 . S
C155 O170 1.248 1_556 S
C155 O171 1.266 1_565 S
C156 C155 1.514 . S
C156 C157 1.359 . S
C156 C161 1.348 . S
C157 C156 1.359 . S
C157 C158 1.380 . S
C157 H180 0.929 . S
C158 C157 1.380 . S
C158 C159 1.347 . S
C158 H181 0.931 . S
C159 C158 1.347 . S
C159 C160 1.369 . S
C160 C159 1.369 . S
C160 C161 1.408 . S
C160 H182 0.930 . S
C161 C156 1.348 . S
C161 C160 1.408 . S
C161 H183 0.930 . S
C162 O172 1.281 . S
C162 O173 1.254 1_554 S
C163 O174 1.236 1_565 S
C163 O175 1.266 1_565 S
O164 Tb144 2.484 . S
O164 C146 1.248 . S
O165 Tb144 2.440 . S
O165 C146 1.266 . S
O166 Tb144 2.658 1_565 S
O166 Tb145 2.325 1_565 S
O166 C153 1.281 . S
O167 Tb144 2.409 1_565 S
O167 C153 1.254 . S
O168 Tb144 2.378 . S
O168 C154 1.236 . S
O169 Tb145 2.341 . S
O169 C154 1.266 . S
O170 Tb145 2.484 1_565 S
O170 C155 1.248 1_554 S
O171 Tb145 2.440 1_556 S
O171 C155 1.266 1_545 S
O172 Tb144 2.325 . S
O172 Tb145 2.658 . S
O172 C162 1.281 . S
O173 Tb145 2.409 1_556 S
O173 C162 1.254 1_556 S
O174 Tb145 2.378 . S
O174 C163 1.236 1_545 S
O175 Tb144 2.340 . S
O175 C163 1.266 1_545 S
H176 C148 0.929 . S
H177 C149 0.931 . S
H178 C151 0.930 . S
H179 C152 0.930 . S
H180 C157 0.929 . S
H181 C158 0.931 . S
H182 C160 0.930 . S
H183 C161 0.930 . S
Tb184 C186 2.809 . S
Tb184 O204 2.484 . S
Tb184 O205 2.440 . S
Tb184 O206 2.658 . S
Tb184 O207 2.409 . S
Tb184 O208 2.378 . S
Tb184 O212 2.325 . S
Tb184 O215 2.341 . S
Tb185 C195 2.809 . S
Tb185 O206 2.325 . S
Tb185 O209 2.341 . S
Tb185 O210 2.484 . S
Tb185 O211 2.440 . S
Tb185 O212 2.658 . S
Tb185 O213 2.409 . S
Tb185 O214 2.378 . S
C186 Tb184 2.809 . S
C186 C187 1.514 . S
C186 O204 1.248 . S
C186 O205 1.266 . S
C187 C186 1.514 . S
C187 C188 1.359 . S
C187 C192 1.348 . S
C188 C187 1.359 . S
C188 C189 1.380 . S
C188 H216 0.929 . S
C189 C188 1.380 . S
C189 C190 1.347 . S
C189 H217 0.931 . S
C190 C189 1.347 . S
C190 C191 1.369 . S
C191 C190 1.369 . S
C191 C192 1.408 . S
C191 H218 0.930 . S
C192 C187 1.348 . S
C192 C191 1.408 . S
C192 H219 0.930 . S
C193 O206 1.281 . S
C193 O207 1.254 . S
C194 O208 1.236 . S
C194 O209 1.266 . S
C195 Tb185 2.809 . S
C195 C196 1.514 . S
C195 O210 1.248 . S
C195 O211 1.266 . S
C196 C195 1.514 . S
C196 C197 1.359 . S
C196 C201 1.348 . S
C197 C196 1.359 . S
C197 C198 1.380 . S
C197 H220 0.929 . S
C198 C197 1.380 . S
C198 C199 1.347 . S
C198 H221 0.931 . S
C199 C198 1.347 . S
C199 C200 1.369 . S
C200 C199 1.369 . S
C200 C201 1.408 . S
C200 H222 0.930 . S
C201 C196 1.348 . S
C201 C200 1.408 . S
C201 H223 0.930 . S
C202 O212 1.281 . S
C202 O213 1.254 . S
C203 O214 1.236 . S
C203 O215 1.266 . S
O204 Tb184 2.484 . S
O204 C186 1.248 . S
O205 Tb184 2.440 . S
O205 C186 1.266 . S
O206 Tb184 2.658 . S
O206 Tb185 2.325 . S
O206 C193 1.281 . S
O207 Tb184 2.409 . S
O207 C193 1.254 . S
O208 Tb184 2.378 . S
O208 C194 1.236 . S
O209 Tb185 2.341 . S
O209 C194 1.266 . S
O210 Tb185 2.484 . S
O210 C195 1.248 . S
O211 Tb185 2.440 . S
O211 C195 1.266 . S
O212 Tb184 2.325 . S
O212 Tb185 2.658 . S
O212 C202 1.281 . S
O213 Tb185 2.409 . S
O213 C202 1.254 . S
O214 Tb185 2.378 . S
O214 C203 1.236 . S
O215 Tb184 2.341 . S
O215 C203 1.266 . S
H216 C188 0.929 . S
H217 C189 0.931 . S
H218 C191 0.930 . S
H219 C192 0.930 . S
H220 C197 0.929 . S
H221 C198 0.931 . S
H222 C200 0.930 . S
H223 C201 0.930 . S
Tb224 C226 2.814 . S
Tb224 O244 2.491 . S
Tb224 O245 2.443 . S
Tb224 O246 2.654 1_656 S
Tb224 O247 2.405 1_656 S
Tb224 O248 2.381 1_556 S
Tb224 O252 2.327 . S
Tb224 O255 2.337 1_655 S
Tb225 C235 2.809 . S
Tb225 O246 2.325 . S
Tb225 O249 2.341 1_455 S
Tb225 O250 2.484 . S
Tb225 O251 2.440 . S
Tb225 O252 2.658 1_454 S
Tb225 O253 2.409 1_455 S
Tb225 O254 2.378 1_554 S
C226 Tb224 2.814 . S
C226 C227 1.514 . S
C226 O244 1.248 . S
C226 O245 1.266 . S
C227 C226 1.514 . S
C227 C228 1.359 . S
C227 C232 1.348 . S
C228 C227 1.359 . S
C228 C229 1.380 . S
C228 H256 0.929 . S
C229 C228 1.380 . S
C229 C230 1.347 . S
C229 H257 0.931 . S
C230 C229 1.347 . S
C230 C231 1.369 . S
C231 C230 1.369 . S
C231 C232 1.408 . S
C231 H258 0.930 . S
C232 C227 1.348 . S
C232 C231 1.408 . S
C232 H259 0.930 . S
C233 O246 1.281 . S
C233 O247 1.254 . S
C234 O248 1.236 . S
C234 O249 1.266 . S
C235 Tb225 2.809 . S
C235 C236 1.514 . S
C235 O250 1.248 . S
C235 O251 1.266 . S
C236 C235 1.514 . S
C236 C237 1.359 . S
C236 C241 1.348 . S
C237 C236 1.359 . S
C237 C238 1.380 . S
C237 H260 0.929 . S
C238 C237 1.380 . S
C238 C239 1.347 . S
C238 H261 0.931 . S
C239 C238 1.347 . S
C239 C240 1.369 . S
C240 C239 1.369 . S
C240 C241 1.408 . S
C240 H262 0.930 . S
C241 C236 1.348 . S
C241 C240 1.408 . S
C241 H263 0.930 . S
C242 O252 1.281 . S
C242 O253 1.254 1_556 S
C243 O254 1.236 . S
C243 O255 1.266 . S
O244 Tb224 2.491 . S
O244 C226 1.248 . S
O245 Tb224 2.443 . S
O245 C226 1.266 . S
O246 Tb224 2.654 1_454 S
O246 Tb225 2.325 . S
O246 C233 1.281 . S
O247 Tb224 2.405 1_454 S
O247 C233 1.254 . S
O248 Tb224 2.381 1_554 S
O248 C234 1.236 . S
O249 Tb225 2.341 1_655 S
O249 C234 1.266 . S
O250 Tb225 2.484 . S
O250 C235 1.248 . S
O251 Tb225 2.440 . S
O251 C235 1.266 . S
O252 Tb224 2.327 . S
O252 Tb225 2.658 1_656 S
O252 C242 1.281 . S
O253 Tb225 2.409 1_655 S
O253 C242 1.254 1_554 S
O254 Tb225 2.378 1_556 S
O254 C243 1.236 . S
O255 Tb224 2.337 1_455 S
O255 C243 1.266 . S
H256 C228 0.929 . S
H257 C229 0.931 . S
H258 C231 0.930 . S
H259 C232 0.930 . S
H260 C237 0.929 . S
H261 C238 0.931 . S
H262 C240 0.930 . S
H263 C241 0.930 . S
C264 C265 1.391 . S
C264 C266 1.394 . S
C264 H280 0.931 . S
C265 C264 1.391 . S
C265 C269 1.376 . S
C266 C264 1.394 . S
C266 C267 1.369 . S
C266 C270 1.531 . S
C267 C266 1.369 . S
C267 C268 1.410 . S
C267 C275 1.503 . S
C268 C267 1.410 . S
C268 C269 1.392 . S
C268 C271 1.511 . S
C269 C265 1.376 . S
C269 C268 1.392 . S
C269 H281 0.929 . S
C270 C266 1.531 . S
C270 H282 0.960 . S
C270 H283 0.962 . S
C270 H284 0.960 . S
C271 C268 1.511 . S
C271 H285 0.961 . S
C271 H286 0.961 . S
C271 H287 0.961 . S
C272 C273 1.370 . S
C272 C274 1.363 . S
C272 H288 0.931 . S
C273 C272 1.370 . S
C273 C277 1.408 . S
C274 C272 1.363 . S
C274 C275 1.370 . S
C274 C278 1.524 . S
C275 C267 1.503 . S
C275 C274 1.370 . S
C275 C276 1.403 . S
C276 C275 1.403 . S
C276 C277 1.404 . S
C276 C279 1.539 . S
C277 C273 1.408 . S
C277 C276 1.404 . S
C277 H289 0.930 . S
C278 C274 1.524 . S
C278 H290 0.956 . S
C278 H291 0.961 . S
C278 H292 0.961 . S
C279 C276 1.539 . S
C279 H293 0.958 . S
C279 H294 0.961 . S
C279 H295 0.960 . S
H280 C264 0.931 . S
H281 C269 0.929 . S
H282 C270 0.960 . S
H283 C270 0.962 . S
H284 C270 0.960 . S
H285 C271 0.961 . S
H286 C271 0.961 . S
H287 C271 0.961 . S
H288 C272 0.931 . S
H289 C277 0.930 . S
H290 C278 0.956 . S
H291 C278 0.961 . S
H292 C278 0.961 . S
H293 C279 0.958 . S
H294 C279 0.961 . S
H295 C279 0.960 . S
C296 C297 1.391 . S
C296 C298 1.394 . S
C296 H312 0.931 . S
C297 C296 1.391 . S
C297 C301 1.376 . S
C298 C296 1.394 . S
C298 C299 1.369 . S
C298 C302 1.531 . S
C299 C298 1.369 . S
C299 C300 1.410 . S
C299 C307 1.503 . S
C300 C299 1.410 . S
C300 C301 1.392 . S
C300 C303 1.511 . S
C301 C297 1.376 . S
C301 C300 1.392 . S
C301 H313 0.929 . S
C302 C298 1.531 . S
C302 H314 0.960 . S
C302 H315 0.962 . S
C302 H316 0.960 . S
C303 C300 1.511 . S
C303 H317 0.961 . S
C303 H318 0.961 . S
C303 H319 0.961 . S
C304 C305 1.370 . S
C304 C306 1.363 . S
C304 H320 0.931 . S
C305 C304 1.370 . S
C305 C309 1.408 . S
C306 C304 1.363 . S
C306 C307 1.370 . S
C306 C310 1.524 . S
C307 C299 1.503 . S
C307 C306 1.370 . S
C307 C308 1.403 . S
C308 C307 1.403 . S
C308 C309 1.404 . S
C308 C311 1.539 . S
C309 C305 1.408 . S
C309 C308 1.404 . S
C309 H321 0.930 . S
C310 C306 1.524 . S
C310 H322 0.956 . S
C310 H323 0.961 . S
C310 H324 0.961 . S
C311 C308 1.539 . S
C311 H325 0.958 . S
C311 H326 0.961 . S
C311 H327 0.960 . S
H312 C296 0.931 . S
H313 C301 0.929 . S
H314 C302 0.960 . S
H315 C302 0.962 . S
H316 C302 0.960 . S
H317 C303 0.961 . S
H318 C303 0.961 . S
H319 C303 0.961 . S
H320 C304 0.931 . S
H321 C309 0.930 . S
H322 C310 0.956 . S
H323 C310 0.961 . S
H324 C310 0.961 . S
H325 C311 0.958 . S
H326 C311 0.961 . S
H327 C311 0.960 . S
C328 C329 1.391 . S
C328 C330 1.394 . S
C328 H344 0.931 . S
C329 C328 1.391 . S
C329 C333 1.376 . S
C330 C328 1.394 . S
C330 C331 1.369 . S
C330 C334 1.531 . S
C331 C330 1.369 . S
C331 C332 1.410 . S
C331 C339 1.503 . S
C332 C331 1.410 . S
C332 C333 1.392 . S
C332 C335 1.511 . S
C333 C329 1.376 . S
C333 C332 1.392 . S
C333 H345 0.929 . S
C334 C330 1.531 . S
C334 H346 0.960 . S
C334 H347 0.962 . S
C334 H348 0.960 . S
C335 C332 1.511 . S
C335 H349 0.961 . S
C335 H350 0.961 . S
C335 H351 0.961 . S
C336 C337 1.370 . S
C336 C338 1.363 . S
C336 H352 0.931 . S
C337 C336 1.370 . S
C337 C341 1.408 . S
C338 C336 1.363 . S
C338 C339 1.370 . S
C338 C342 1.524 . S
C339 C331 1.503 . S
C339 C338 1.370 . S
C339 C340 1.403 . S
C340 C339 1.403 . S
C340 C341 1.404 . S
C340 C343 1.539 . S
C341 C337 1.408 . S
C341 C340 1.404 . S
C341 H353 0.930 . S
C342 C338 1.524 . S
C342 H354 0.956 . S
C342 H355 0.961 . S
C342 H356 0.961 . S
C343 C340 1.539 . S
C343 H357 0.958 . S
C343 H358 0.961 . S
C343 H359 0.960 . S
H344 C328 0.931 . S
H345 C333 0.929 . S
H346 C334 0.960 . S
H347 C334 0.962 . S
H348 C334 0.960 . S
H349 C335 0.961 . S
H350 C335 0.961 . S
H351 C335 0.961 . S
H352 C336 0.931 . S
H353 C341 0.930 . S
H354 C342 0.956 . S
H355 C342 0.961 . S
H356 C342 0.961 . S
H357 C343 0.958 . S
H358 C343 0.961 . S
H359 C343 0.960 . S
C360 C361 1.391 . S
C360 C362 1.394 . S
C360 H376 0.931 . S
C361 C360 1.391 . S
C361 C365 1.376 . S
C362 C360 1.394 . S
C362 C363 1.369 . S
C362 C366 1.531 . S
C363 C362 1.369 . S
C363 C364 1.410 . S
C363 C371 1.503 . S
C364 C363 1.410 . S
C364 C365 1.392 . S
C364 C367 1.511 . S
C365 C361 1.376 . S
C365 C364 1.392 . S
C365 H377 0.929 . S
C366 C362 1.531 . S
C366 H378 0.960 . S
C366 H379 0.962 . S
C366 H380 0.960 . S
C367 C364 1.511 . S
C367 H381 0.961 . S
C367 H382 0.961 . S
C367 H383 0.961 . S
C368 C369 1.370 . S
C368 C370 1.363 . S
C368 H384 0.931 . S
C369 C368 1.370 . S
C369 C373 1.408 . S
C370 C368 1.363 . S
C370 C371 1.370 . S
C370 C374 1.524 . S
C371 C363 1.503 . S
C371 C370 1.370 . S
C371 C372 1.403 . S
C372 C371 1.403 . S
C372 C373 1.404 . S
C372 C375 1.539 . S
C373 C369 1.408 . S
C373 C372 1.404 . S
C373 H385 0.930 . S
C374 C370 1.524 . S
C374 H386 0.956 . S
C374 H387 0.961 . S
C374 H388 0.961 . S
C375 C372 1.539 . S
C375 H389 0.958 . S
C375 H390 0.961 . S
C375 H391 0.960 . S
H376 C360 0.931 . S
H377 C365 0.929 . S
H378 C366 0.960 . S
H379 C366 0.962 . S
H380 C366 0.960 . S
H381 C367 0.961 . S
H382 C367 0.961 . S
H383 C367 0.961 . S
H384 C368 0.931 . S
H385 C373 0.930 . S
H386 C374 0.956 . S
H387 C374 0.961 . S
H388 C374 0.961 . S
H389 C375 0.958 . S
H390 C375 0.961 . S
H391 C375 0.960 . S
C392 C393 1.391 . S
C392 C394 1.394 . S
C392 H408 0.931 . S
C393 C392 1.391 . S
C393 C397 1.376 . S
C394 C392 1.394 . S
C394 C395 1.369 . S
C394 C398 1.531 . S
C395 C394 1.369 . S
C395 C396 1.410 . S
C395 C403 1.503 . S
C396 C395 1.410 . S
C396 C397 1.392 . S
C396 C399 1.511 . S
C397 C393 1.376 . S
C397 C396 1.392 . S
C397 H409 0.929 . S
C398 C394 1.531 . S
C398 H410 0.960 . S
C398 H411 0.962 . S
C398 H412 0.960 . S
C399 C396 1.511 . S
C399 H413 0.961 . S
C399 H414 0.961 . S
C399 H415 0.961 . S
C400 C401 1.370 . S
C400 C402 1.363 . S
C400 H416 0.931 . S
C401 C400 1.370 . S
C401 C405 1.408 . S
C402 C400 1.363 . S
C402 C403 1.370 . S
C402 C406 1.524 . S
C403 C395 1.503 . S
C403 C402 1.370 . S
C403 C404 1.403 . S
C404 C403 1.403 . S
C404 C405 1.404 . S
C404 C407 1.539 . S
C405 C401 1.408 . S
C405 C404 1.404 . S
C405 H417 0.930 . S
C406 C402 1.524 . S
C406 H418 0.956 . S
C406 H419 0.961 . S
C406 H420 0.961 . S
C407 C404 1.539 . S
C407 H421 0.958 . S
C407 H422 0.961 . S
C407 H423 0.960 . S
H408 C392 0.931 . S
H409 C397 0.929 . S
H410 C398 0.960 . S
H411 C398 0.962 . S
H412 C398 0.960 . S
H413 C399 0.961 . S
H414 C399 0.961 . S
H415 C399 0.961 . S
H416 C400 0.931 . S
H417 C405 0.930 . S
H418 C406 0.956 . S
H419 C406 0.961 . S
H420 C406 0.961 . S
H421 C407 0.958 . S
H422 C407 0.961 . S
H423 C407 0.960 . S
C424 C425 1.391 . S
C424 C426 1.394 . S
C424 H440 0.931 . S
C425 C424 1.391 . S
C425 C429 1.376 . S
C426 C424 1.394 . S
C426 C427 1.369 . S
C426 C430 1.531 . S
C427 C426 1.369 . S
C427 C428 1.410 . S
C427 C435 1.503 . S
C428 C427 1.410 . S
C428 C429 1.392 . S
C428 C431 1.511 . S
C429 C425 1.376 . S
C429 C428 1.392 . S
C429 H441 0.929 . S
C430 C426 1.531 . S
C430 H442 0.960 . S
C430 H443 0.962 . S
C430 H444 0.960 . S
C431 C428 1.511 . S
C431 H445 0.961 1_455 S
C431 H446 0.961 . S
C431 H447 0.961 1_455 S
C432 C433 1.370 . S
C432 C434 1.363 . S
C432 H448 0.931 . S
C433 C432 1.370 . S
C433 C437 1.408 . S
C434 C432 1.363 . S
C434 C435 1.370 . S
C434 C438 1.524 . S
C435 C427 1.503 . S
C435 C434 1.370 . S
C435 C436 1.403 . S
C436 C435 1.403 . S
C436 C437 1.404 . S
C436 C439 1.539 . S
C437 C433 1.408 . S
C437 C436 1.404 . S
C437 H449 0.930 . S
C438 C434 1.524 . S
C438 H450 0.956 . S
C438 H451 0.961 . S
C438 H452 0.961 . S
C439 C436 1.539 . S
C439 H453 0.958 . S
C439 H454 0.961 . S
C439 H455 0.960 . S
H440 C424 0.931 . S
H441 C429 0.929 . S
H442 C430 0.960 . S
H443 C430 0.962 . S
H444 C430 0.960 . S
H445 C431 0.961 1_655 S
H446 C431 0.961 . S
H447 C431 0.961 1_655 S
H448 C432 0.931 . S
H449 C437 0.930 . S
H450 C438 0.956 . S
H451 C438 0.961 . S
H452 C438 0.961 . S
H453 C439 0.958 . S
H454 C439 0.961 . S
H455 C439 0.960 . S
C456 C457 1.391 . S
C456 C458 1.394 . S
C456 H472 0.931 . S
C457 C456 1.391 . S
C457 C461 1.376 . S
C458 C456 1.394 . S
C458 C459 1.369 . S
C458 C462 1.531 . S
C459 C458 1.369 . S
C459 C460 1.410 . S
C459 C467 1.503 . S
C460 C459 1.410 . S
C460 C461 1.392 . S
C460 C463 1.511 . S
C461 C457 1.376 . S
C461 C460 1.392 . S
C461 H473 0.929 . S
C462 C458 1.531 . S
C462 H474 0.960 . S
C462 H475 0.962 . S
C462 H476 0.960 . S
C463 C460 1.511 . S
C463 H477 0.961 . S
C463 H478 0.961 . S
C463 H479 0.961 . S
C464 C465 1.370 . S
C464 C466 1.363 . S
C464 H480 0.931 . S
C465 C464 1.370 . S
C465 C469 1.408 . S
C466 C464 1.363 . S
C466 C467 1.370 . S
C466 C470 1.524 . S
C467 C459 1.503 . S
C467 C466 1.370 . S
C467 C468 1.403 . S
C468 C467 1.403 . S
C468 C469 1.404 . S
C468 C471 1.539 . S
C469 C465 1.408 . S
C469 C468 1.404 . S
C469 H481 0.930 . S
C470 C466 1.524 . S
C470 H482 0.956 . S
C470 H483 0.961 . S
C470 H484 0.961 . S
C471 C468 1.539 . S
C471 H485 0.958 . S
C471 H486 0.961 . S
C471 H487 0.960 . S
H472 C456 0.931 . S
H473 C461 0.929 . S
H474 C462 0.960 . S
H475 C462 0.962 . S
H476 C462 0.960 . S
H477 C463 0.961 . S
H478 C463 0.961 . S
H479 C463 0.961 . S
H480 C464 0.931 . S
H481 C469 0.930 . S
H482 C470 0.956 . S
H483 C470 0.961 . S
H484 C470 0.961 . S
H485 C471 0.958 . S
H486 C471 0.961 . S
H487 C471 0.960 . S
C488 C489 1.391 . S
C488 C490 1.394 . S
C488 H504 0.931 . S
C489 C488 1.391 . S
C489 C493 1.376 . S
C490 C488 1.394 . S
C490 C491 1.369 . S
C490 C494 1.531 . S
C491 C490 1.369 . S
C491 C492 1.410 . S
C491 C499 1.503 . S
C492 C491 1.410 . S
C492 C493 1.392 . S
C492 C495 1.511 . S
C493 C489 1.376 . S
C493 C492 1.392 . S
C493 H505 0.929 . S
C494 C490 1.531 . S
C494 H506 0.960 . S
C494 H507 0.962 . S
C494 H508 0.960 . S
C495 C492 1.511 . S
C495 H509 0.961 . S
C495 H510 0.961 . S
C495 H511 0.961 . S
C496 C497 1.370 . S
C496 C498 1.363 . S
C496 H512 0.931 . S
C497 C496 1.370 . S
C497 C501 1.408 . S
C498 C496 1.363 . S
C498 C499 1.370 . S
C498 C502 1.524 . S
C499 C491 1.503 . S
C499 C498 1.370 . S
C499 C500 1.403 . S
C500 C499 1.403 . S
C500 C501 1.404 . S
C500 C503 1.539 . S
C501 C497 1.408 . S
C501 C500 1.404 . S
C501 H513 0.930 . S
C502 C498 1.524 . S
C502 H514 0.956 . S
C502 H515 0.961 . S
C502 H516 0.961 . S
C503 C500 1.539 . S
C503 H517 0.958 . S
C503 H518 0.961 . S
C503 H519 0.960 . S
H504 C488 0.931 . S
H505 C493 0.929 . S
H506 C494 0.960 . S
H507 C494 0.962 . S
H508 C494 0.960 . S
H509 C495 0.961 . S
H510 C495 0.961 . S
H511 C495 0.961 . S
H512 C496 0.931 . S
H513 C501 0.930 . S
H514 C502 0.956 . S
H515 C502 0.961 . S
H516 C502 0.961 . S
H517 C503 0.958 . S
H518 C503 0.961 . S
H519 C503 0.960 . S
C520 C521 1.391 . S
C520 C522 1.394 . S
C520 H536 0.931 . S
C521 C520 1.391 . S
C521 C525 1.376 . S
C522 C520 1.394 . S
C522 C523 1.369 . S
C522 C526 1.531 . S
C523 C522 1.369 . S
C523 C524 1.410 . S
C523 C531 1.503 . S
C524 C523 1.410 . S
C524 C525 1.392 . S
C524 C527 1.511 . S
C525 C521 1.376 . S
C525 C524 1.392 . S
C525 H537 0.929 . S
C526 C522 1.531 . S
C526 H538 0.960 . S
C526 H539 0.962 . S
C526 H540 0.960 . S
C527 C524 1.511 . S
C527 H541 0.961 . S
C527 H542 0.961 . S
C527 H543 0.961 . S
C528 C529 1.370 . S
C528 C530 1.363 . S
C528 H544 0.931 . S
C529 C528 1.370 . S
C529 C533 1.408 . S
C530 C528 1.363 . S
C530 C531 1.370 . S
C530 C534 1.524 . S
C531 C523 1.503 . S
C531 C530 1.370 . S
C531 C532 1.403 . S
C532 C531 1.403 . S
C532 C533 1.404 . S
C532 C535 1.539 . S
C533 C529 1.408 . S
C533 C532 1.404 . S
C533 H545 0.930 . S
C534 C530 1.524 . S
C534 H546 0.956 . S
C534 H547 0.961 . S
C534 H548 0.961 . S
C535 C532 1.539 . S
C535 H549 0.958 . S
C535 H550 0.961 . S
C535 H551 0.960 . S
H536 C520 0.931 . S
H537 C525 0.929 . S
H538 C526 0.960 . S
H539 C526 0.962 . S
H540 C526 0.960 . S
H541 C527 0.961 . S
H542 C527 0.961 . S
H543 C527 0.961 . S
H544 C528 0.931 . S
H545 C533 0.930 . S
H546 C534 0.956 . S
H547 C534 0.961 . S
H548 C534 0.961 . S
H549 C535 0.958 . S
H550 C535 0.961 . S
H551 C535 0.960 . S
C552 C553 1.391 . S
C552 C554 1.394 . S
C552 H568 0.931 . S
C553 C552 1.391 . S
C553 C557 1.376 . S
C554 C552 1.394 . S
C554 C555 1.369 . S
C554 C558 1.531 . S
C555 C554 1.369 . S
C555 C556 1.410 . S
C555 C563 1.503 . S
C556 C555 1.410 . S
C556 C557 1.392 . S
C556 C559 1.511 . S
C557 C553 1.376 . S
C557 C556 1.392 . S
C557 H569 0.929 . S
C558 C554 1.531 . S
C558 H570 0.960 . S
C558 H571 0.962 . S
C558 H572 0.960 . S
C559 C556 1.511 . S
C559 H573 0.961 . S
C559 H574 0.961 . S
C559 H575 0.961 . S
C560 C561 1.370 . S
C560 C562 1.363 . S
C560 H576 0.931 . S
C561 C560 1.370 . S
C561 C565 1.408 1_556 S
C562 C560 1.363 . S
C562 C563 1.370 . S
C562 C566 1.524 . S
C563 C555 1.503 . S
C563 C562 1.370 . S
C563 C564 1.403 . S
C564 C563 1.403 . S
C564 C565 1.404 1_556 S
C564 C567 1.539 . S
C565 C561 1.408 1_554 S
C565 C564 1.404 1_554 S
C565 H577 0.930 . S
C566 C562 1.524 . S
C566 H578 0.956 . S
C566 H579 0.961 . S
C566 H580 0.961 . S
C567 C564 1.539 . S
C567 H581 0.958 1_556 S
C567 H582 0.961 1_556 S
C567 H583 0.960 . S
H568 C552 0.931 . S
H569 C557 0.929 . S
H570 C558 0.960 . S
H571 C558 0.962 . S
H572 C558 0.960 . S
H573 C559 0.961 . S
H574 C559 0.961 . S
H575 C559 0.961 . S
H576 C560 0.931 . S
H577 C565 0.930 . S
H578 C566 0.956 . S
H579 C566 0.961 . S
H580 C566 0.961 . S
H581 C567 0.958 1_554 S
H582 C567 0.961 1_554 S
H583 C567 0.960 . S
C584 C585 1.391 . S
C584 C586 1.394 . S
C584 H600 0.931 . S
C585 C584 1.391 . S
C585 C589 1.376 . S
C586 C584 1.394 . S
C586 C587 1.369 . S
C586 C590 1.531 . S
C587 C586 1.369 . S
C587 C588 1.410 . S
C587 C595 1.503 . S
C588 C587 1.410 . S
C588 C589 1.392 . S
C588 C591 1.511 . S
C589 C585 1.376 . S
C589 C588 1.392 . S
C589 H601 0.929 . S
C590 C586 1.531 . S
C590 H602 0.960 . S
C590 H603 0.962 . S
C590 H604 0.960 . S
C591 C588 1.511 . S
C591 H605 0.961 . S
C591 H606 0.961 . S
C591 H607 0.961 . S
C592 C593 1.370 . S
C592 C594 1.363 . S
C592 H608 0.931 1_655 S
C593 C592 1.370 . S
C593 C597 1.408 . S
C594 C592 1.363 . S
C594 C595 1.370 . S
C594 C598 1.524 . S
C595 C587 1.503 . S
C595 C594 1.370 . S
C595 C596 1.403 . S
C596 C595 1.403 . S
C596 C597 1.404 . S
C596 C599 1.539 . S
C597 C593 1.408 . S
C597 C596 1.404 . S
C597 H609 0.930 . S
C598 C594 1.524 . S
C598 H610 0.956 . S
C598 H611 0.961 . S
C598 H612 0.961 1_655 S
C599 C596 1.539 . S
C599 H613 0.958 . S
C599 H614 0.961 . S
C599 H615 0.960 . S
H600 C584 0.931 . S
H601 C589 0.929 . S
H602 C590 0.960 . S
H603 C590 0.962 . S
H604 C590 0.960 . S
H605 C591 0.961 . S
H606 C591 0.961 . S
H607 C591 0.961 . S
H608 C592 0.931 1_455 S
H609 C597 0.930 . S
H610 C598 0.956 . S
H611 C598 0.961 . S
H612 C598 0.961 1_455 S
H613 C599 0.958 . S
H614 C599 0.961 . S
H615 C599 0.960 . S
C616 C617 1.391 . S
C616 C618 1.394 . S
C616 H632 0.931 . S
C617 C616 1.391 . S
C617 C621 1.376 . S
C618 C616 1.394 . S
C618 C619 1.369 . S
C618 C622 1.531 . S
C619 C618 1.369 . S
C619 C620 1.410 . S
C619 C627 1.503 . S
C620 C619 1.410 . S
C620 C621 1.392 . S
C620 C623 1.511 . S
C621 C617 1.376 . S
C621 C620 1.392 . S
C621 H633 0.929 . S
C622 C618 1.531 . S
C622 H634 0.960 . S
C622 H635 0.962 . S
C622 H636 0.960 . S
C623 C620 1.511 . S
C623 H637 0.961 . S
C623 H638 0.961 . S
C623 H639 0.961 . S
C624 C625 1.370 . S
C624 C626 1.363 . S
C624 H640 0.931 . S
C625 C624 1.370 . S
C625 C629 1.408 . S
C626 C624 1.363 . S
C626 C627 1.370 . S
C626 C630 1.524 . S
C627 C619 1.503 . S
C627 C626 1.370 . S
C627 C628 1.403 . S
C628 C627 1.403 . S
C628 C629 1.404 . S
C628 C631 1.539 . S
C629 C625 1.408 . S
C629 C628 1.404 . S
C629 H641 0.930 . S
C630 C626 1.524 . S
C630 H642 0.956 . S
C630 H643 0.961 . S
C630 H644 0.961 . S
C631 C628 1.539 . S
C631 H645 0.958 . S
C631 H646 0.961 . S
C631 H647 0.960 . S
H632 C616 0.931 . S
H633 C621 0.929 . S
H634 C622 0.960 . S
H635 C622 0.962 . S
H636 C622 0.960 . S
H637 C623 0.961 . S
H638 C623 0.961 . S
H639 C623 0.961 . S
H640 C624 0.931 . S
H641 C629 0.930 . S
H642 C630 0.956 . S
H643 C630 0.961 . S
H644 C630 0.961 . S
H645 C631 0.958 . S
H646 C631 0.961 . S
H647 C631 0.960 . S
C648 C649 1.391 . S
C648 C650 1.394 . S
C648 H664 0.931 . S
C649 C648 1.391 . S
C649 C653 1.376 . S
C650 C648 1.394 . S
C650 C651 1.369 . S
C650 C654 1.531 . S
C651 C650 1.369 . S
C651 C652 1.410 . S
C651 C659 1.503 . S
C652 C651 1.410 . S
C652 C653 1.392 . S
C652 C655 1.511 . S
C653 C649 1.376 . S
C653 C652 1.392 . S
C653 H665 0.929 . S
C654 C650 1.531 . S
C654 H666 0.960 . S
C654 H667 0.962 . S
C654 H668 0.960 . S
C655 C652 1.511 . S
C655 H669 0.961 . S
C655 H670 0.961 . S
C655 H671 0.961 . S
C656 C657 1.370 . S
C656 C658 1.363 . S
C656 H672 0.931 . S
C657 C656 1.370 . S
C657 C661 1.408 . S
C658 C656 1.363 . S
C658 C659 1.370 . S
C658 C662 1.524 . S
C659 C651 1.503 . S
C659 C658 1.370 . S
C659 C660 1.403 . S
C660 C659 1.403 . S
C660 C661 1.404 . S
C660 C663 1.539 . S
C661 C657 1.408 . S
C661 C660 1.404 . S
C661 H673 0.930 . S
C662 C658 1.524 . S
C662 H674 0.956 . S
C662 H675 0.961 . S
C662 H676 0.961 . S
C663 C660 1.539 . S
C663 H677 0.958 . S
C663 H678 0.961 . S
C663 H679 0.960 . S
H664 C648 0.931 . S
H665 C653 0.929 . S
H666 C654 0.960 . S
H667 C654 0.962 . S
H668 C654 0.960 . S
H669 C655 0.961 . S
H670 C655 0.961 . S
H671 C655 0.961 . S
H672 C656 0.931 . S
H673 C661 0.930 . S
H674 C662 0.956 . S
H675 C662 0.961 . S
H676 C662 0.961 . S
H677 C663 0.958 . S
H678 C663 0.961 . S
H679 C663 0.960 . S
C680 C681 1.391 . S
C680 C682 1.394 . S
C680 H696 0.931 . S
C681 C680 1.391 . S
C681 C685 1.376 . S
C682 C680 1.394 . S
C682 C683 1.369 . S
C682 C686 1.531 . S
C683 C682 1.369 . S
C683 C684 1.410 . S
C683 C691 1.503 . S
C684 C683 1.410 . S
C684 C685 1.392 . S
C684 C687 1.511 . S
C685 C681 1.376 . S
C685 C684 1.392 . S
C685 H697 0.929 . S
C686 C682 1.531 . S
C686 H698 0.960 . S
C686 H699 0.962 . S
C686 H700 0.960 . S
C687 C684 1.511 . S
C687 H701 0.961 . S
C687 H702 0.961 . S
C687 H703 0.961 . S
C688 C689 1.370 . S
C688 C690 1.363 . S
C688 H704 0.931 . S
C689 C688 1.370 . S
C689 C693 1.408 . S
C690 C688 1.363 . S
C690 C691 1.370 . S
C690 C694 1.524 . S
C691 C683 1.503 . S
C691 C690 1.370 . S
C691 C692 1.403 . S
C692 C691 1.403 . S
C692 C693 1.404 . S
C692 C695 1.539 . S
C693 C689 1.408 . S
C693 C692 1.404 . S
C693 H705 0.930 . S
C694 C690 1.524 . S
C694 H706 0.956 . S
C694 H707 0.961 . S
C694 H708 0.961 . S
C695 C692 1.539 . S
C695 H709 0.958 . S
C695 H710 0.961 . S
C695 H711 0.960 . S
H696 C680 0.931 . S
H697 C685 0.929 . S
H698 C686 0.960 . S
H699 C686 0.962 . S
H700 C686 0.960 . S
H701 C687 0.961 . S
H702 C687 0.961 . S
H703 C687 0.961 . S
H704 C688 0.931 . S
H705 C693 0.930 . S
H706 C694 0.956 . S
H707 C694 0.961 . S
H708 C694 0.961 . S
H709 C695 0.958 . S
H710 C695 0.961 . S
H711 C695 0.960 . S
C712 C713 1.391 . S
C712 C714 1.394 . S
C712 H728 0.931 . S
C713 C712 1.391 . S
C713 C717 1.376 . S
C714 C712 1.394 . S
C714 C715 1.369 . S
C714 C718 1.531 . S
C715 C714 1.369 . S
C715 C716 1.410 . S
C715 C723 1.503 . S
C716 C715 1.410 . S
C716 C717 1.392 . S
C716 C719 1.511 . S
C717 C713 1.376 . S
C717 C716 1.392 . S
C717 H729 0.929 . S
C718 C714 1.531 . S
C718 H730 0.960 . S
C718 H731 0.962 . S
C718 H732 0.960 . S
C719 C716 1.511 . S
C719 H733 0.961 . S
C719 H734 0.961 . S
C719 H735 0.961 . S
C720 C721 1.370 . S
C720 C722 1.363 . S
C720 H736 0.931 . S
C721 C720 1.370 . S
C721 C725 1.408 . S
C722 C720 1.363 . S
C722 C723 1.370 . S
C722 C726 1.524 . S
C723 C715 1.503 . S
C723 C722 1.370 . S
C723 C724 1.403 . S
C724 C723 1.403 . S
C724 C725 1.404 . S
C724 C727 1.539 . S
C725 C721 1.408 . S
C725 C724 1.404 . S
C725 H737 0.930 . S
C726 C722 1.524 . S
C726 H738 0.956 . S
C726 H739 0.961 . S
C726 H740 0.961 . S
C727 C724 1.539 . S
C727 H741 0.958 . S
C727 H742 0.961 . S
C727 H743 0.960 . S
H728 C712 0.931 . S
H729 C717 0.929 . S
H730 C718 0.960 . S
H731 C718 0.962 . S
H732 C718 0.960 . S
H733 C719 0.961 . S
H734 C719 0.961 . S
H735 C719 0.961 . S
H736 C720 0.931 . S
H737 C725 0.930 . S
H738 C726 0.956 . S
H739 C726 0.961 . S
H740 C726 0.961 . S
H741 C727 0.958 . S
H742 C727 0.961 . S
H743 C727 0.960 . S
C744 C745 1.391 . S
C744 C746 1.394 . S
C744 H760 0.931 . S
C745 C744 1.391 . S
C745 C749 1.376 . S
C746 C744 1.394 . S
C746 C747 1.369 . S
C746 C750 1.531 . S
C747 C746 1.369 . S
C747 C748 1.410 . S
C747 C755 1.503 . S
C748 C747 1.410 . S
C748 C749 1.392 . S
C748 C751 1.511 . S
C749 C745 1.376 . S
C749 C748 1.392 . S
C749 H761 0.929 . S
C750 C746 1.531 . S
C750 H762 0.960 . S
C750 H763 0.962 . S
C750 H764 0.960 . S
C751 C748 1.511 . S
C751 H765 0.961 . S
C751 H766 0.961 . S
C751 H767 0.961 . S
C752 C753 1.370 . S
C752 C754 1.363 . S
C752 H768 0.931 . S
C753 C752 1.370 . S
C753 C757 1.408 . S
C754 C752 1.363 . S
C754 C755 1.370 . S
C754 C758 1.524 . S
C755 C747 1.503 . S
C755 C754 1.370 . S
C755 C756 1.403 . S
C756 C755 1.403 . S
C756 C757 1.404 . S
C756 C759 1.539 . S
C757 C753 1.408 . S
C757 C756 1.404 . S
C757 H769 0.930 . S
C758 C754 1.524 . S
C758 H770 0.956 . S
C758 H771 0.961 . S
C758 H772 0.961 . S
C759 C756 1.539 . S
C759 H773 0.958 . S
C759 H774 0.961 . S
C759 H775 0.960 . S
H760 C744 0.931 . S
H761 C749 0.929 . S
H762 C750 0.960 . S
H763 C750 0.962 . S
H764 C750 0.960 . S
H765 C751 0.961 . S
H766 C751 0.961 . S
H767 C751 0.961 . S
H768 C752 0.931 . S
H769 C757 0.930 . S
H770 C758 0.956 . S
H771 C758 0.961 . S
H772 C758 0.961 . S
H773 C759 0.958 . S
H774 C759 0.961 . S
H775 C759 0.960 . S
C776 C777 1.391 . S
C776 C778 1.394 . S
C776 H792 0.931 . S
C777 C776 1.391 . S
C777 C781 1.376 . S
C778 C776 1.394 . S
C778 C779 1.369 . S
C778 C782 1.531 . S
C779 C778 1.369 . S
C779 C780 1.410 . S
C779 C787 1.503 . S
C780 C779 1.410 . S
C780 C781 1.392 . S
C780 C783 1.511 . S
C781 C777 1.376 . S
C781 C780 1.392 . S
C781 H793 0.929 . S
C782 C778 1.531 . S
C782 H794 0.960 . S
C782 H795 0.962 . S
C782 H796 0.960 . S
C783 C780 1.511 . S
C783 H797 0.961 . S
C783 H798 0.961 . S
C783 H799 0.961 . S
C784 C785 1.370 1_556 S
C784 C786 1.363 . S
C784 H800 0.931 . S
C785 C784 1.370 1_554 S
C785 C789 1.408 . S
C786 C784 1.363 . S
C786 C787 1.370 . S
C786 C790 1.524 . S
C787 C779 1.503 . S
C787 C786 1.370 . S
C787 C788 1.403 1_556 S
C788 C787 1.403 1_554 S
C788 C789 1.404 . S
C788 C791 1.539 . S
C789 C785 1.408 . S
C789 C788 1.404 . S
C789 H801 0.930 . S
C790 C786 1.524 . S
C790 H802 0.956 . S
C790 H803 0.961 . S
C790 H804 0.961 . S
C791 C788 1.539 . S
C791 H805 0.958 . S
C791 H806 0.961 . S
C791 H807 0.960 . S
H792 C776 0.931 . S
H793 C781 0.929 . S
H794 C782 0.960 . S
H795 C782 0.962 . S
H796 C782 0.960 . S
H797 C783 0.961 . S
H798 C783 0.961 . S
H799 C783 0.961 . S
H800 C784 0.931 . S
H801 C789 0.930 . S
H802 C790 0.956 . S
H803 C790 0.961 . S
H804 C790 0.961 . S
H805 C791 0.958 . S
H806 C791 0.961 . S
H807 C791 0.960 . S
C808 C809 1.391 . S
C808 C810 1.394 . S
C808 H824 0.931 . S
C809 C808 1.391 . S
C809 C813 1.376 . S
C810 C808 1.394 . S
C810 C811 1.369 . S
C810 C814 1.529 1_655 S
C811 C810 1.369 . S
C811 C812 1.410 . S
C811 C819 1.503 . S
C812 C811 1.410 . S
C812 C813 1.392 . S
C812 C815 1.511 . S
C813 C809 1.376 . S
C813 C812 1.392 . S
C813 H825 0.929 . S
C814 C810 1.529 1_455 S
C814 H826 0.960 1_455 S
C814 H827 0.964 . S
C814 H828 0.962 . S
C815 C812 1.511 . S
C815 H829 0.961 . S
C815 H830 0.961 . S
C815 H831 0.961 . S
C816 C817 1.370 1_455 S
C816 C818 1.363 1_455 S
C816 H832 0.931 . S
C817 C816 1.370 1_655 S
C817 C821 1.408 . S
C818 C816 1.363 1_655 S
C818 C819 1.370 . S
C818 C822 1.524 1_655 S
C819 C811 1.503 . S
C819 C818 1.370 . S
C819 C820 1.403 . S
C820 C819 1.403 . S
C820 C821 1.404 . S
C820 C823 1.539 . S
C821 C817 1.408 . S
C821 C820 1.404 . S
C821 H833 0.930 . S
C822 C818 1.524 1_455 S
C822 H834 0.956 . S
C822 H835 0.961 1_455 S
C822 H836 0.961 . S
C823 C820 1.539 . S
C823 H837 0.958 . S
C823 H838 0.961 . S
C823 H839 0.960 . S
H824 C808 0.931 . S
H825 C813 0.929 . S
H826 C814 0.960 1_655 S
H827 C814 0.964 . S
H828 C814 0.962 . S
H829 C815 0.961 . S
H830 C815 0.961 . S
H831 C815 0.961 . S
H832 C816 0.931 . S
H833 C821 0.930 . S
H834 C822 0.956 . S
H835 C822 0.961 1_655 S
H836 C822 0.961 . S
H837 C823 0.958 . S
H838 C823 0.961 . S
H839 C823 0.960 . S
C840 C841 1.391 . S
C840 C842 1.394 . S
C840 H856 0.931 . S
C841 C840 1.391 . S
C841 C845 1.376 . S
C842 C840 1.394 . S
C842 C843 1.369 . S
C842 C846 1.531 . S
C843 C842 1.369 . S
C843 C844 1.410 . S
C843 C851 1.503 . S
C844 C843 1.410 . S
C844 C845 1.392 . S
C844 C847 1.511 . S
C845 C841 1.376 . S
C845 C844 1.392 . S
C845 H857 0.929 . S
C846 C842 1.531 . S
C846 H858 0.960 . S
C846 H859 0.962 . S
C846 H860 0.960 . S
C847 C844 1.511 . S
C847 H861 0.961 . S
C847 H862 0.961 . S
C847 H863 0.961 . S
C848 C849 1.370 . S
C848 C850 1.363 . S
C848 H864 0.931 . S
C849 C848 1.370 . S
C849 C853 1.408 . S
C850 C848 1.363 . S
C850 C851 1.370 . S
C850 C854 1.524 . S
C851 C843 1.503 . S
C851 C850 1.370 . S
C851 C852 1.403 . S
C852 C851 1.403 . S
C852 C853 1.404 . S
C852 C855 1.539 . S
C853 C849 1.408 . S
C853 C852 1.404 . S
C853 H865 0.930 . S
C854 C850 1.524 . S
C854 H866 0.956 . S
C854 H867 0.961 . S
C854 H868 0.961 . S
C855 C852 1.539 . S
C855 H869 0.958 . S
C855 H870 0.961 . S
C855 H871 0.960 . S
H856 C840 0.931 . S
H857 C845 0.929 . S
H858 C846 0.960 . S
H859 C846 0.962 . S
H860 C846 0.960 . S
H861 C847 0.961 . S
H862 C847 0.961 . S
H863 C847 0.961 . S
H864 C848 0.931 . S
H865 C853 0.930 . S
H866 C854 0.956 . S
H867 C854 0.961 . S
H868 C854 0.961 . S
H869 C855 0.958 . S
H870 C855 0.961 . S
H871 C855 0.960 . S
C872 C873 1.391 . S
C872 C874 1.394 . S
C872 H888 0.931 . S
C873 C872 1.391 . S
C873 C877 1.376 . S
C874 C872 1.394 . S
C874 C875 1.369 . S
C874 C878 1.531 . S
C875 C874 1.369 . S
C875 C876 1.410 . S
C875 C883 1.503 . S
C876 C875 1.410 . S
C876 C877 1.392 . S
C876 C879 1.511 . S
C877 C873 1.376 . S
C877 C876 1.392 . S
C877 H889 0.929 . S
C878 C874 1.531 . S
C878 H890 0.960 . S
C878 H891 0.962 . S
C878 H892 0.960 . S
C879 C876 1.511 . S
C879 H893 0.961 . S
C879 H894 0.961 . S
C879 H895 0.961 . S
C880 C881 1.370 . S
C880 C882 1.363 . S
C880 H896 0.931 . S
C881 C880 1.370 . S
C881 C885 1.408 . S
C882 C880 1.363 . S
C882 C883 1.370 . S
C882 C886 1.524 . S
C883 C875 1.503 . S
C883 C882 1.370 . S
C883 C884 1.403 . S
C884 C883 1.403 . S
C884 C885 1.404 . S
C884 C887 1.539 . S
C885 C881 1.408 . S
C885 C884 1.404 . S
C885 H897 0.930 . S
C886 C882 1.524 . S
C886 H898 0.956 . S
C886 H899 0.961 . S
C886 H900 0.961 . S
C887 C884 1.539 . S
C887 H901 0.958 . S
C887 H902 0.961 . S
C887 H903 0.960 . S
H888 C872 0.931 . S
H889 C877 0.929 . S
H890 C878 0.960 . S
H891 C878 0.962 . S
H892 C878 0.960 . S
H893 C879 0.961 . S
H894 C879 0.961 . S
H895 C879 0.961 . S
H896 C880 0.931 . S
H897 C885 0.930 . S
H898 C886 0.956 . S
H899 C886 0.961 . S
H900 C886 0.961 . S
H901 C887 0.958 . S
H902 C887 0.961 . S
H903 C887 0.960 . S
C904 C905 1.391 . S
C904 C906 1.394 . S
C904 H920 0.931 . S
C905 C904 1.391 . S
C905 C909 1.376 . S
C906 C904 1.394 . S
C906 C907 1.369 . S
C906 C910 1.531 . S
C907 C906 1.369 . S
C907 C908 1.410 . S
C907 C915 1.503 . S
C908 C907 1.410 . S
C908 C909 1.392 . S
C908 C911 1.511 . S
C909 C905 1.376 . S
C909 C908 1.392 . S
C909 H921 0.929 . S
C910 C906 1.531 . S
C910 H922 0.960 . S
C910 H923 0.962 . S
C910 H924 0.960 . S
C911 C908 1.511 . S
C911 H925 0.961 . S
C911 H926 0.961 . S
C911 H927 0.961 . S
C912 C913 1.370 . S
C912 C914 1.363 . S
C912 H928 0.931 . S
C913 C912 1.370 . S
C913 C917 1.408 . S
C914 C912 1.363 . S
C914 C915 1.370 . S
C914 C918 1.524 . S
C915 C907 1.503 . S
C915 C914 1.370 . S
C915 C916 1.403 . S
C916 C915 1.403 . S
C916 C917 1.404 . S
C916 C919 1.539 . S
C917 C913 1.408 . S
C917 C916 1.404 . S
C917 H929 0.930 . S
C918 C914 1.524 . S
C918 H930 0.956 . S
C918 H931 0.961 . S
C918 H932 0.961 . S
C919 C916 1.539 . S
C919 H933 0.958 . S
C919 H934 0.961 . S
C919 H935 0.960 . S
H920 C904 0.931 . S
H921 C909 0.929 . S
H922 C910 0.960 . S
H923 C910 0.962 . S
H924 C910 0.960 . S
H925 C911 0.961 . S
H926 C911 0.961 . S
H927 C911 0.961 . S
H928 C912 0.931 . S
H929 C917 0.930 . S
H930 C918 0.956 . S
H931 C918 0.961 . S
H932 C918 0.961 . S
H933 C919 0.958 . S
H934 C919 0.961 . S
H935 C919 0.960 . S
C936 C937 1.391 . S
C936 C938 1.394 . S
C936 H952 0.931 . S
C937 C936 1.391 . S
C937 C941 1.376 . S
C938 C936 1.394 . S
C938 C939 1.369 . S
C938 C942 1.531 . S
C939 C938 1.369 . S
C939 C940 1.410 . S
C939 C947 1.503 . S
C940 C939 1.410 . S
C940 C941 1.392 . S
C940 C943 1.511 . S
C941 C937 1.376 . S
C941 C940 1.392 . S
C941 H953 0.929 . S
C942 C938 1.531 . S
C942 H954 0.960 . S
C942 H955 0.962 . S
C942 H956 0.960 . S
C943 C940 1.511 . S
C943 H957 0.961 . S
C943 H958 0.961 . S
C943 H959 0.961 . S
C944 C945 1.370 . S
C944 C946 1.363 . S
C944 H960 0.931 . S
C945 C944 1.370 . S
C945 C949 1.408 . S
C946 C944 1.363 . S
C946 C947 1.370 . S
C946 C950 1.524 . S
C947 C939 1.503 . S
C947 C946 1.370 . S
C947 C948 1.403 . S
C948 C947 1.403 . S
C948 C949 1.404 . S
C948 C951 1.539 . S
C949 C945 1.408 . S
C949 C948 1.404 . S
C949 H961 0.930 . S
C950 C946 1.524 . S
C950 H962 0.956 . S
C950 H963 0.961 . S
C950 H964 0.961 . S
C951 C948 1.539 . S
C951 H965 0.958 . S
C951 H966 0.961 . S
C951 H967 0.960 . S
H952 C936 0.931 . S
H953 C941 0.929 . S
H954 C942 0.960 . S
H955 C942 0.962 . S
H956 C942 0.960 . S
H957 C943 0.961 . S
H958 C943 0.961 . S
H959 C943 0.961 . S
H960 C944 0.931 . S
H961 C949 0.930 . S
H962 C950 0.956 . S
H963 C950 0.961 . S
H964 C950 0.961 . S
H965 C951 0.958 . S
H966 C951 0.961 . S
H967 C951 0.960 . S
C968 C969 1.391 . S
C968 C970 1.394 . S
C968 H984 0.931 . S
C969 C968 1.391 . S
C969 C973 1.376 . S
C970 C968 1.394 . S
C970 C971 1.369 . S
C970 C974 1.531 . S
C971 C970 1.369 . S
C971 C972 1.410 . S
C971 C979 1.503 . S
C972 C971 1.410 . S
C972 C973 1.392 . S
C972 C975 1.511 . S
C973 C969 1.376 . S
C973 C972 1.392 . S
C973 H985 0.929 . S
C974 C970 1.531 . S
C974 H986 0.960 . S
C974 H987 0.962 . S
C974 H988 0.960 . S
C975 C972 1.511 . S
C975 H989 0.961 . S
C975 H990 0.961 . S
C975 H991 0.961 . S
C976 C977 1.370 . S
C976 C978 1.363 . S
C976 H992 0.931 . S
C977 C976 1.370 . S
C977 C981 1.408 . S
C978 C976 1.363 . S
C978 C979 1.370 . S
C978 C982 1.524 . S
C979 C971 1.503 . S
C979 C978 1.370 . S
C979 C980 1.403 . S
C980 C979 1.403 . S
C980 C981 1.404 . S
C980 C983 1.539 . S
C981 C977 1.408 . S
C981 C980 1.404 . S
C981 H993 0.930 . S
C982 C978 1.524 . S
C982 H994 0.956 . S
C982 H995 0.961 . S
C982 H996 0.961 . S
C983 C980 1.539 . S
C983 H997 0.958 . S
C983 H998 0.961 . S
C983 H999 0.960 . S
H984 C968 0.931 . S
H985 C973 0.929 . S
H986 C974 0.960 . S
H987 C974 0.962 . S
H988 C974 0.960 . S
H989 C975 0.961 . S
H990 C975 0.961 . S
H991 C975 0.961 . S
H992 C976 0.931 . S
H993 C981 0.930 . S
H994 C982 0.956 . S
H995 C982 0.961 . S
H996 C982 0.961 . S
H997 C983 0.958 . S
H998 C983 0.961 . S
H999 C983 0.960 . S
C1000 C1001 1.391 . S
C1000 C1002 1.394 . S
C1000 H1016 0.931 . S
C1001 C1000 1.391 . S
C1001 C1005 1.376 . S
C1002 C1000 1.394 . S
C1002 C1003 1.369 . S
C1002 C1006 1.531 . S
C1003 C1002 1.369 . S
C1003 C1004 1.410 . S
C1003 C1011 1.503 . S
C1004 C1003 1.410 . S
C1004 C1005 1.392 . S
C1004 C1007 1.511 . S
C1005 C1001 1.376 . S
C1005 C1004 1.392 . S
C1005 H1017 0.929 . S
C1006 C1002 1.531 . S
C1006 H1018 0.960 . S
C1006 H1019 0.962 . S
C1006 H1020 0.960 . S
C1007 C1004 1.511 . S
C1007 H1021 0.961 . S
C1007 H1022 0.961 . S
C1007 H1023 0.961 . S
C1008 C1009 1.370 . S
C1008 C1010 1.363 . S
C1008 H1024 0.931 . S
C1009 C1008 1.370 . S
C1009 C1013 1.408 . S
C1010 C1008 1.363 . S
C1010 C1011 1.370 . S
C1010 C1014 1.524 . S
C1011 C1003 1.503 . S
C1011 C1010 1.370 . S
C1011 C1012 1.403 . S
C1012 C1011 1.403 . S
C1012 C1013 1.404 . S
C1012 C1015 1.539 . S
C1013 C1009 1.408 . S
C1013 C1012 1.404 . S
C1013 H1025 0.930 . S
C1014 C1010 1.524 . S
C1014 H1026 0.956 . S
C1014 H1027 0.961 . S
C1014 H1028 0.961 . S
C1015 C1012 1.539 . S
C1015 H1029 0.958 . S
C1015 H1030 0.961 . S
C1015 H1031 0.960 . S
H1016 C1000 0.931 . S
H1017 C1005 0.929 . S
H1018 C1006 0.960 . S
H1019 C1006 0.962 . S
H1020 C1006 0.960 . S
H1021 C1007 0.961 . S
H1022 C1007 0.961 . S
H1023 C1007 0.961 . S
H1024 C1008 0.931 . S
H1025 C1013 0.930 . S
H1026 C1014 0.956 . S
H1027 C1014 0.961 . S
H1028 C1014 0.961 . S
H1029 C1015 0.958 . S
H1030 C1015 0.961 . S
H1031 C1015 0.960 . S
C265 N1 1.051 . S
C273 C119 1.082 . S
C297 N18 1.089 . S
C305 C159 1.124 . S
C337 C193 1.870 . S
C329 N28 1.894 . S
C361 N40 2.812 . S
C369 C234 2.806 . S
C401 C154 1.692 . S
C393 N5 1.661 . S
C433 C114 1.781 . S
C425 N14 1.666 . S
C465 C242 1.676 . S
C457 N31 1.711 . S
C497 C203 1.558 . S
C489 N41 1.593 . S
C521 N2 1.148 . S
C529 C239 1.109 . S
C561 C162 2.201 1_556 S
C553 N27 2.249 . S
C585 N44 2.483 . S
C593 C122 2.540 1_655 S
C617 N15 1.178 . S
C625 C190 1.196 . S
C657 C110 1.628 . S
C649 N57 1.672 . S
C681 N70 0.807 . S
C689 C150 0.931 . S
C713 N79 2.119 . S
C721 C202 2.196 . S
C745 N93 2.562 . S
C753 C243 2.495 . S
C777 N54 1.265 . S
C785 C163 1.326 . S
C817 C123 2.354 1_655 S
C809 N66 2.318 . S
C849 C233 1.199 . S
C841 N80 1.202 . S
C881 C194 1.741 . S
C873 N96 1.803 . S
C905 N53 1.256 . S
C913 C230 1.235 . S
C945 C153 1.719 . S
C937 N83 1.723 . S
C977 C113 2.500 . S
C969 N92 2.629 . S
C1001 N67 1.446 . S
C1009 C199 1.500 . S
