# Generated by pormake.
# Topology zzz, (3,6)-cn, num edge types: 1
# Building blocks:
#     Node 0, Type 0, BuildingBlock: BELTOD_clean_linker_0, # of connection points: 3
#     Node 1, Type 0, BuildingBlock: BELTOD_clean_linker_0, # of connection points: 3
#     Node 2, Type 0, BuildingBlock: BELTOD_clean_linker_0, # of connection points: 3
#     Node 3, Type 0, BuildingBlock: BELTOD_clean_linker_0, # of connection points: 3
#     Node 4, Type 0, BuildingBlock: BELTOD_clean_linker_0, # of connection points: 3
#     Node 5, Type 0, BuildingBlock: BELTOD_clean_linker_0, # of connection points: 3
#     Node 6, Type 0, BuildingBlock: BELTOD_clean_linker_0, # of connection points: 3
#     Node 7, Type 0, BuildingBlock: BELTOD_clean_linker_0, # of connection points: 3
#     Node 8, Type 1, BuildingBlock: CUWYAW_clean_sbu_0, # of connection points: 6
#     Node 9, Type 1, BuildingBlock: CUWYAW_clean_sbu_0, # of connection points: 6
#     Node 10, Type 1, BuildingBlock: CUWYAW_clean_sbu_0, # of connection points: 6
#     Node 11, Type 1, BuildingBlock: CUWYAW_clean_sbu_0, # of connection points: 6
#     Edge 12, Type (0, 1), BuildingBlock: XIVTED_clean_linker_0, # of connection points: 2
#     Edge 13, Type (0, 1), BuildingBlock: XIVTED_clean_linker_0, # of connection points: 2
#     Edge 14, Type (0, 1), BuildingBlock: XIVTED_clean_linker_0, # of connection points: 2
#     Edge 15, Type (0, 1), BuildingBlock: XIVTED_clean_linker_0, # of connection points: 2
#     Edge 16, Type (0, 1), BuildingBlock: XIVTED_clean_linker_0, # of connection points: 2
#     Edge 17, Type (0, 1), BuildingBlock: XIVTED_clean_linker_0, # of connection points: 2
#     Edge 18, Type (0, 1), BuildingBlock: XIVTED_clean_linker_0, # of connection points: 2
#     Edge 19, Type (0, 1), BuildingBlock: XIVTED_clean_linker_0, # of connection points: 2
#     Edge 20, Type (0, 1), BuildingBlock: XIVTED_clean_linker_0, # of connection points: 2
#     Edge 21, Type (0, 1), BuildingBlock: XIVTED_clean_linker_0, # of connection points: 2
#     Edge 22, Type (0, 1), BuildingBlock: XIVTED_clean_linker_0, # of connection points: 2
#     Edge 23, Type (0, 1), BuildingBlock: XIVTED_clean_linker_0, # of connection points: 2
#     Edge 24, Type (0, 1), BuildingBlock: XIVTED_clean_linker_0, # of connection points: 2
#     Edge 25, Type (0, 1), BuildingBlock: XIVTED_clean_linker_0, # of connection points: 2
#     Edge 26, Type (0, 1), BuildingBlock: XIVTED_clean_linker_0, # of connection points: 2
#     Edge 27, Type (0, 1), BuildingBlock: XIVTED_clean_linker_0, # of connection points: 2
#     Edge 28, Type (0, 1), BuildingBlock: XIVTED_clean_linker_0, # of connection points: 2
#     Edge 29, Type (0, 1), BuildingBlock: XIVTED_clean_linker_0, # of connection points: 2
#     Edge 30, Type (0, 1), BuildingBlock: XIVTED_clean_linker_0, # of connection points: 2
#     Edge 31, Type (0, 1), BuildingBlock: XIVTED_clean_linker_0, # of connection points: 2
#     Edge 32, Type (0, 1), BuildingBlock: XIVTED_clean_linker_0, # of connection points: 2
#     Edge 33, Type (0, 1), BuildingBlock: XIVTED_clean_linker_0, # of connection points: 2
#     Edge 34, Type (0, 1), BuildingBlock: XIVTED_clean_linker_0, # of connection points: 2
#     Edge 35, Type (0, 1), BuildingBlock: XIVTED_clean_linker_0, # of connection points: 2
# Relax obj value: 0.416
# Max RMSD: 0.236
# Mean RMSD: 0.221
data_MOF--net-zzz--node1-CUWYAW_clean_sbu_0--node2-BELTOD_clean_linker_0--edge1-XIVTED_clean_linker_0
_symmetry_space_group_name_H-M    P1
_symmetry_Int_Tables_number       1
_symmetry_cell_setting            triclinic
loop_
_symmetry_equiv_pos_as_xyz
'x, y, z'
_cell_length_a     55.487629
_cell_length_b     55.447348
_cell_length_c     17.931931
_cell_angle_alpha  89.692477
_cell_angle_beta   89.889394
_cell_angle_gamma 90.007261
loop_
_atom_site_label
_atom_site_type_symbol
_atom_site_fract_x
_atom_site_fract_y
_atom_site_fract_z
_atom_type_partial_charge
P0 P 0.71481 0.47072 0.38439 0.0
H1 H 0.73227 0.47272 0.53825 0.0
H2 H 0.77108 0.48438 0.58838 0.0
H3 H 0.78923 0.51837 0.37799 0.0
H4 H 0.75093 0.50496 0.32673 0.0
H5 H 0.66476 0.45803 0.36201 0.0
H6 H 0.63418 0.47271 0.2769 0.0
H7 H 0.68044 0.53233 0.21511 0.0
H8 H 0.71142 0.51694 0.29975 0.0
H9 H 0.7574 0.44064 0.39617 0.0
H10 H 0.70697 0.46072 0.22366 0.0
O11 O 0.70285 0.45204 0.44771 0.0
H12 H 0.78393 0.42326 0.30296 0.0
H13 H 0.73287 0.44233 0.13044 0.0
C14 C 0.73832 0.48821 0.42876 0.0
C15 C 0.74421 0.48336 0.50342 0.0
C16 C 0.76666 0.49009 0.53226 0.0
C17 C 0.78378 0.50204 0.48721 0.0
C18 C 0.77692 0.50866 0.41418 0.0
C19 C 0.75459 0.50157 0.38509 0.0
C20 C 0.69037 0.48651 0.33851 0.0
C21 C 0.66812 0.47471 0.3321 0.0
C22 C 0.65051 0.48319 0.28295 0.0
C23 C 0.6547 0.50375 0.2384 0.0
C24 C 0.67664 0.51625 0.24755 0.0
C25 C 0.69435 0.50763 0.29682 0.0
C26 C 0.73053 0.45259 0.31696 0.0
C27 C 0.75171 0.44073 0.33842 0.0
C28 C 0.7668 0.43055 0.28485 0.0
C29 C 0.76077 0.43172 0.20871 0.0
C30 C 0.73839 0.44167 0.1883 0.0
C31 C 0.72345 0.45215 0.24192 0.0
P32 P 0.04168 0.7116 0.37758 0.0
H33 H 0.02162 0.7236 0.52462 0.0
H34 H 0.00781 0.76182 0.57578 0.0
H35 H 0.00866 0.79308 0.35443 0.0
H36 H 0.02132 0.75448 0.30359 0.0
H37 H 0.05456 0.66188 0.34838 0.0
H38 H 0.04361 0.63358 0.25097 0.0
H39 H 0.99126 0.6845 0.16645 0.0
H40 H 1.00266 0.71301 0.26452 0.0
H41 H 0.08363 0.7368 0.43525 0.0
H42 H 0.05233 0.72215 0.22032 0.0
O43 O 0.05271 0.69694 0.45155 0.0
H44 H 0.10858 0.76839 0.37935 0.0
H45 H 0.0763 0.75399 0.16486 0.0
C46 C 0.02267 0.73603 0.41011 0.0
C47 C 0.01799 0.73839 0.48664 0.0
C48 C 0.01047 0.76053 0.51612 0.0
C49 C 0.00771 0.78098 0.46983 0.0
C50 C 0.01048 0.77792 0.39226 0.0
C51 C 0.01773 0.75568 0.36281 0.0
C52 C 0.02917 0.68946 0.3147 0.0
C53 C 0.04025 0.66677 0.31019 0.0
C54 C 0.03393 0.6505 0.2542 0.0
C55 C 0.01652 0.65664 0.20045 0.0
C56 C 0.0049 0.6792 0.20641 0.0
C57 C 0.0112 0.69547 0.26297 0.0
C58 C 0.06617 0.72704 0.33206 0.0
C59 C 0.08283 0.7397 0.37552 0.0
C60 C 0.09688 0.75796 0.34359 0.0
C61 C 0.09414 0.76411 0.26784 0.0
C62 C 0.07913 0.74972 0.22317 0.0
C63 C 0.06524 0.73139 0.25508 0.0
P64 P 0.78743 0.02818 0.35573 0.0
H65 H 0.77431 0.01289 0.50737 0.0
H66 H 0.73582 1.00011 0.56008 0.0
H67 H 0.70696 0.99256 0.33777 0.0
H68 H 0.7458 1.00452 0.28559 0.0
H69 H 0.83729 0.0409 0.33129 0.0
H70 H 0.86746 0.02786 0.24217 0.0
H71 H 0.8192 0.97218 0.16489 0.0
H72 H 0.78867 0.98574 0.25496 0.0
H73 H 0.76252 0.07283 0.39265 0.0
H74 H 0.7783 0.03175 0.19499 0.0
O75 O 0.80064 0.04225 0.42689 0.0
H76 H 0.73385 0.09732 0.32199 0.0
H77 H 0.74927 0.05522 0.12523 0.0
C78 C 0.76302 0.00989 0.39236 0.0
C79 C 0.76 0.00769 0.46978 0.0
C80 C 0.73776 1.0007 0.5 0.0
C81 C 0.71792 0.99592 0.45342 0.0
C82 C 0.72169 0.99607 0.37567 0.0
C83 C 0.74404 1.0029 0.34553 0.0
C84 C 0.81085 0.01403 0.30102 0.0
C85 C 0.83337 0.02541 0.29684 0.0
C86 C 0.85071 0.01789 0.24551 0.0
C87 C 0.84593 0.99886 0.19615 0.0
C88 C 0.82349 0.98698 0.2017 0.0
C89 C 0.80609 0.99451 0.25376 0.0
C90 C 0.77271 0.05058 0.29909 0.0
C91 C 0.76042 0.06959 0.33351 0.0
C92 C 0.74383 0.08341 0.29317 0.0
C93 C 0.73896 0.07809 0.21803 0.0
C94 C 0.75271 0.06016 0.18256 0.0
C95 C 0.76938 0.04653 0.22276 0.0
P96 P 0.46548 0.79417 0.3657 0.0
H97 H 0.46859 0.7777 0.52046 0.0
H98 H 0.48055 0.73941 0.57423 0.0
H99 H 0.51187 0.71867 0.36299 0.0
H100 H 0.49809 0.7565 0.30823 0.0
H101 H 0.45242 0.8435 0.33232 0.0
H102 H 0.46578 0.87218 0.2382 0.0
H103 H 0.52361 0.82406 0.17662 0.0
H104 H 0.51016 0.7953 0.27239 0.0
H105 H 0.42018 0.76923 0.39546 0.0
H106 H 0.46666 0.78233 0.20647 0.0
O107 O 0.44933 0.80821 0.43105 0.0
H108 H 0.39677 0.74063 0.32157 0.0
H109 H 0.44395 0.75368 0.13348 0.0
C110 C 0.48276 0.77041 0.4103 0.0
C111 C 0.47867 0.76528 0.486 0.0
C112 C 0.48561 0.74313 0.51701 0.0
C113 C 0.49701 0.72545 0.47319 0.0
C114 C 0.50264 0.73141 0.39852 0.0
C115 C 0.49531 0.75347 0.36726 0.0
C116 C 0.48037 0.81724 0.3104 0.0
C117 C 0.4685 0.83936 0.30055 0.0
C118 C 0.47616 0.85584 0.2463 0.0
C119 C 0.49574 0.85046 0.19942 0.0
C120 C 0.50833 0.8287 0.21138 0.0
C121 C 0.50077 0.81227 0.26665 0.0
C122 C 0.44495 0.77822 0.30629 0.0
C123 C 0.42491 0.76653 0.33747 0.0
C124 C 0.41166 0.75005 0.29536 0.0
C125 C 0.41849 0.74481 0.22159 0.0
C126 C 0.43784 0.75757 0.18953 0.0
C127 C 0.451 0.77401 0.2316 0.0
P128 P 0.26811 0.47334 0.15111 0.0
H129 H 0.25075 0.44042 0.03525 0.0
H130 H 0.22057 0.44851 0.93967 0.0
H131 H 0.23335 0.52487 0.96175 0.0
H132 H 0.26404 0.51667 0.05616 0.0
H133 H 0.292 0.44379 0.26135 0.0
H134 H 0.33057 0.446 0.3223 0.0
H135 H 0.35211 0.50353 0.1728 0.0
H136 H 0.31239 0.50137 0.11166 0.0
H137 H 0.21761 0.48131 0.17645 0.0
H138 H 0.28403 0.51851 0.22545 0.0
O139 O 0.25525 0.44755 0.17876 0.0
H140 H 0.1948 0.51676 0.21416 0.0
H141 H 0.26102 0.55405 0.26459 0.0
C142 C 0.25937 0.47793 0.05461 0.0
C143 C 0.24811 0.45886 0.01691 0.0
C144 C 0.2306 0.46353 0.96236 0.0
C145 C 0.22401 0.48737 0.9448 0.0
C146 C 0.23767 0.5063 0.9752 0.0
C147 C 0.25552 0.50158 0.02863 0.0
C148 C 0.29931 0.47207 0.18066 0.0
C149 C 0.30514 0.45645 0.23964 0.0
C150 C 0.32746 0.45773 0.27483 0.0
C151 C 0.34479 0.47483 0.25255 0.0
C152 C 0.33924 0.49017 0.19178 0.0
C153 C 0.31666 0.48877 0.15605 0.0
C154 C 0.25249 0.49707 0.19901 0.0
C155 C 0.22728 0.49684 0.19736 0.0
C156 C 0.21429 0.51722 0.21776 0.0
C157 C 0.22628 0.53818 0.24076 0.0
C158 C 0.25149 0.53809 0.24643 0.0
C159 C 0.26458 0.5177 0.22467 0.0
P160 P 0.05285 0.28787 0.04033 0.0
H161 H 0.04237 0.27231 0.88812 0.0
H162 H 0.02949 0.23316 0.84335 0.0
H163 H 0.0058 0.21408 0.06556 0.0
H164 H 0.01924 0.2534 0.11032 0.0
H165 H 0.07817 0.32947 0.09395 0.0
H166 H 0.06976 0.35947 0.1892 0.0
H167 H 0.99888 0.3291 0.22189 0.0
H168 H 0.00757 0.29863 0.12552 0.0
H169 H 0.08864 0.25309 0.9916 0.0
H170 H 0.05857 0.2776 0.19984 0.0
O171 O 0.06835 0.30037 0.97025 0.0
H172 H 0.10163 0.21574 0.05219 0.0
H173 H 0.07127 0.24064 0.2601 0.0
C174 C 0.03171 0.26611 1.00278 0.0
C175 C 0.03338 0.26025 0.92684 0.0
C176 C 0.02612 0.23756 0.90117 0.0
C177 C 0.01704 0.22004 0.95094 0.0
C178 C 0.0132 0.22683 0.02572 0.0
C179 C 0.02039 0.24963 0.05123 0.0
C180 C 0.04343 0.31195 0.1018 0.0
C181 C 0.0606 0.32945 0.12041 0.0
C182 C 0.05586 0.34652 0.17546 0.0
C183 C 0.03372 0.3466 0.21356 0.0
C184 C 0.01606 0.32957 0.19319 0.0
C185 C 0.02098 0.31217 0.13814 0.0
C186 C 0.07265 0.26816 0.09108 0.0
C187 C 0.086 0.25105 0.05118 0.0
C188 C 0.09317 0.22958 0.08565 0.0
C189 C 0.08708 0.22504 0.16054 0.0
C190 C 0.07641 0.24357 0.20247 0.0
C191 C 0.06912 0.2649 0.16785 0.0
P192 P 0.21116 0.03447 0.03989 0.0
H193 H 0.2255 0.0224 0.88734 0.0
H194 H 0.26454 0.01051 0.83847 0.0
H195 H 0.2879 0.99209 0.06132 0.0
H196 H 0.249 1.00498 0.1101 0.0
H197 H 0.16448 0.05288 0.08311 0.0
H198 H 0.13639 0.04297 0.18302 0.0
H199 H 0.18136 0.98283 0.2477 0.0
H200 H 0.20957 0.99297 0.14674 0.0
H201 H 0.24195 0.07188 0.97795 0.0
H202 H 0.22339 0.04432 0.19595 0.0
O203 O 0.19639 0.04746 0.96931 0.0
H204 H 0.27914 0.08877 0.02826 0.0
H205 H 0.26029 0.0608 0.24611 0.0
C206 C 0.23392 0.01435 1.00261 0.0
C207 C 0.23856 0.01481 0.92559 0.0
C208 C 0.26116 0.00809 0.89751 0.0
C209 C 0.27976 1.00075 0.94589 0.0
C210 C 0.27428 0.99815 0.02232 0.0
C211 C 0.25168 1.00495 0.05031 0.0
C212 C 0.18902 0.0235 0.10638 0.0
C213 C 0.16808 0.03719 0.11755 0.0
C214 C 0.15196 0.03149 0.17498 0.0
C215 C 0.15649 0.01205 0.22365 0.0
C216 C 0.17736 0.99805 0.21169 0.0
C217 C 0.19347 1.00371 0.15352 0.0
C218 C 0.22988 0.0568 0.08305 0.0
C219 C 0.2452 0.07058 0.03738 0.0
C220 C 0.26661 0.07997 0.066 0.0
C221 C 0.27291 0.0757 0.14078 0.0
C222 C 0.256 0.06456 0.18831 0.0
C223 C 0.23471 0.05507 0.15953 0.0
P224 P 0.45332 0.22621 0.10711 0.0
H225 H 0.43547 0.24628 0.96599 0.0
H226 H 0.44862 0.28178 0.89595 0.0
H227 H 0.51574 0.2816 0.01708 0.0
H228 H 0.50265 0.24592 0.08633 0.0
H229 H 0.4172 0.19031 0.14521 0.0
H230 H 0.42137 0.15229 0.21053 0.0
H231 H 0.49773 0.15236 0.16346 0.0
H232 H 0.49297 0.18996 0.09212 0.0
H233 H 0.43666 0.26422 0.20763 0.0
H234 H 0.49676 0.21492 0.19548 0.0
O235 O 0.42411 0.23341 0.10378 0.0
H236 H 0.45528 0.28354 0.3152 0.0
H237 H 0.51471 0.23341 0.30341 0.0
C238 C 0.46775 0.24354 0.03306 0.0
C239 C 0.45343 0.2532 0.97562 0.0
C240 C 0.46095 0.27371 0.9356 0.0
C241 C 0.48297 0.28505 0.95234 0.0
C242 C 0.49839 0.27373 0.0041 0.0
C243 C 0.49096 0.25308 0.04347 0.0
C244 C 0.45492 0.19359 0.11545 0.0
C245 C 0.43473 0.18176 0.14546 0.0
C246 C 0.43722 0.16005 0.18443 0.0
C247 C 0.4601 0.14982 0.19596 0.0
C248 C 0.47984 0.15989 0.15705 0.0
C249 C 0.47715 0.18146 0.11603 0.0
C250 C 0.46494 0.23772 0.19375 0.0
C251 C 0.45338 0.25699 0.22922 0.0
C252 C 0.46397 0.26792 0.29106 0.0
C253 C 0.48641 0.25986 0.31777 0.0
C254 C 0.49742 0.23997 0.28403 0.0
C255 C 0.48688 0.22915 0.22237 0.0
C256 C 0.97986 0.02836 0.52591 0.0
Eu257 Eu 0.99021 0.00742 0.65141 0.0
C258 C 0.99411 0.04636 0.48509 0.0
C259 C 0.98556 0.05694 0.41924 0.0
C260 C 0.99975 0.07386 0.38099 0.0
C261 C 0.02269 0.08029 0.40813 0.0
C262 C 0.03114 0.06934 0.47386 0.0
C263 C 0.01693 0.05269 0.51214 0.0
C264 C 0.96246 0.99343 0.76878 0.0
C265 C 0.01054 0.04739 0.76995 0.0
C266 C 0.02998 0.97447 0.92808 0.0
Eu267 Eu 0.01874 0.99036 0.79654 0.0
C268 C 0.04554 0.95548 0.95914 0.0
C269 C 0.05871 0.95998 0.02418 0.0
C270 C 0.07288 0.94185 0.05611 0.0
C271 C 0.07399 0.9188 0.02372 0.0
C272 C 0.06132 0.91466 0.95704 0.0
C273 C 0.04733 0.93286 0.92487 0.0
C274 C 0.04939 0.99559 0.67668 0.0
C275 C 1.00139 0.95058 0.67325 0.0
O276 O 0.9899 0.00705 0.5302 0.0
O277 O 0.97109 0.03554 0.58996 0.0
O278 O 0.95585 0.99136 0.69951 0.0
O279 O 0.98218 1.00469 0.77224 0.0
O280 O 1.0048 0.04254 0.69981 0.0
O281 O 0.01408 0.03009 0.81985 0.0
O282 O 0.01078 0.96727 0.89155 0.0
O283 O 0.04111 0.99263 0.89587 0.0
O284 O 0.05649 0.98885 0.74245 0.0
O285 O 0.02714 0.99915 0.68064 0.0
O286 O 0.00753 0.95486 0.74352 0.0
O287 O 0.99635 0.9681 0.62519 0.0
H288 H 0.96797 0.05221 0.3977 0.0
H289 H 0.99257 0.08221 0.33103 0.0
H290 H 0.04883 0.07352 0.4957 0.0
H291 H 0.02385 0.04462 0.56286 0.0
H292 H 0.05778 0.97745 0.05085 0.0
H293 H 0.08269 0.94579 0.10674 0.0
H294 H 0.06144 0.89708 0.93103 0.0
H295 H 0.03752 0.92906 0.87407 0.0
C296 C 0.47235 0.97555 0.48717 0.0
Eu297 Eu 0.48981 0.9832 0.61914 0.0
C298 C 0.45578 0.99103 0.44496 0.0
C299 C 0.4483 0.98516 0.37282 0.0
C300 C 0.43195 1.00013 0.33513 0.0
C301 C 0.42314 0.02132 0.36892 0.0
C302 C 0.43144 0.02732 0.44045 0.0
C303 C 0.44718 0.01211 0.47838 0.0
C304 C 0.49793 0.95425 0.74011 0.0
C305 C 0.45006 0.99906 0.74371 0.0
C306 C 0.52299 0.03368 0.87777 0.0
Eu307 Eu 0.50446 0.01489 0.75824 0.0
C308 C 0.5448 0.04664 0.90097 0.0
C309 C 0.54263 0.06573 0.9514 0.0
C310 C 0.56314 0.0775 0.97774 0.0
C311 C 0.58622 0.07028 0.95427 0.0
C312 C 0.58825 0.05166 0.90153 0.0
C313 C 0.5677 0.03997 0.875 0.0
C314 C 0.48837 0.03923 0.63565 0.0
C315 C 0.54645 0.99436 0.64328 0.0
O316 O 0.49375 0.98479 0.49826 0.0
O317 O 0.46318 0.96601 0.54786 0.0
O318 O 0.49316 0.94581 0.67409 0.0
O319 O 0.49893 0.97683 0.73536 0.0
O320 O 0.45458 0.99663 0.67138 0.0
O321 O 0.46766 1.00214 0.79217 0.0
O322 O 0.52544 0.01093 0.85987 0.0
O323 O 0.50842 0.0454 0.83332 0.0
O324 O 0.48392 0.04588 0.70358 0.0
O325 O 0.50171 0.0209 0.6364 0.0
O326 O 0.5407 0.00797 0.70167 0.0
O327 O 0.53015 0.98253 0.60358 0.0
H328 H 0.45472 0.96885 0.34633 0.0
H329 H 0.4257 0.99469 0.28061 0.0
H330 H 0.42556 0.04365 0.46787 0.0
H331 H 0.45251 0.01669 0.53446 0.0
H332 H 0.52506 0.07126 0.97149 0.0
H333 H 0.56093 0.09198 0.01746 0.0
H334 H 0.60575 0.04543 0.88298 0.0
H335 H 0.56977 0.02536 0.83568 0.0
C336 C 0.5488 0.48079 0.57278 0.0
Eu337 Eu 0.52261 0.50105 0.67465 0.0
C338 C 0.54822 0.45554 0.54873 0.0
C339 C 0.56957 0.442 0.54574 0.0
C340 C 0.56857 0.41696 0.53687 0.0
C341 C 0.54618 0.40525 0.53158 0.0
C342 C 0.52496 0.41905 0.53146 0.0
C343 C 0.52595 0.44389 0.5403 0.0
C344 C 0.54126 0.51669 0.80582 0.0
C345 C 0.50108 0.45754 0.77607 0.0
C346 C 0.45925 0.52822 0.89348 0.0
Eu347 Eu 0.48593 0.51188 0.78512 0.0
C348 C 0.4458 0.55013 0.91261 0.0
C349 C 0.42513 0.54822 0.9572 0.0
C350 C 0.41318 0.56896 0.98124 0.0
C351 C 0.42182 0.59196 0.96129 0.0
C352 C 0.44199 0.5937 0.91375 0.0
C353 C 0.45383 0.57295 0.88947 0.0
C354 C 0.46737 0.49607 0.65381 0.0
C355 C 0.50657 0.55568 0.67809 0.0
O356 O 0.52966 0.49366 0.55742 0.0
O357 O 0.55621 0.48385 0.6411 0.0
O358 O 0.54883 0.52363 0.7407 0.0
O359 O 0.52418 0.50183 0.79899 0.0
O360 O 0.50812 0.46379 0.70822 0.0
O361 O 0.49513 0.47436 0.82423 0.0
O362 O 0.48275 0.53007 0.89176 0.0
O363 O 0.45074 0.51543 0.83863 0.0
O364 O 0.45978 0.48914 0.71882 0.0
O365 O 0.48424 0.51114 0.66063 0.0
O366 O 0.49531 0.5497 0.74083 0.0
O367 O 0.51722 0.5392 0.63694 0.0
H368 H 0.58689 0.45066 0.55327 0.0
H369 H 0.58518 0.40671 0.53672 0.0
H370 H 0.50747 0.4106 0.52546 0.0
H371 H 0.50915 0.45379 0.54336 0.0
H372 H 0.41857 0.5307 0.97497 0.0
H373 H 0.39751 0.56697 0.01682 0.0
H374 H 0.44935 0.61109 0.89802 0.0
H375 H 0.46969 0.57479 0.85462 0.0
C376 C 0.02803 0.53634 0.49985 0.0
Eu377 Eu 0.01374 0.51981 0.62776 0.0
C378 C 0.0468 0.55361 0.47744 0.0
C379 C 0.04285 0.56957 0.41783 0.0
C380 C 0.06128 0.58499 0.39364 0.0
C381 C 0.08406 0.58443 0.42824 0.0
C382 C 0.08726 0.56937 0.49101 0.0
C383 C 0.0688 0.55429 0.5156 0.0
C384 C 0.01015 0.5478 0.75318 0.0
C385 C 0.05541 0.50312 0.74455 0.0
C386 C 0.98288 0.46671 0.88334 0.0
Eu387 Eu 1.00055 0.48724 0.76432 0.0
C388 C 0.95977 0.45556 0.90272 0.0
C389 C 0.95492 0.44919 0.97683 0.0
C390 C 0.9324 0.43984 0.99649 0.0
C391 C 0.91438 0.43681 0.94221 0.0
C392 C 0.9196 0.44266 0.86751 0.0
C393 C 0.94215 0.45194 0.84792 0.0
C394 C 0.01426 0.46378 0.63804 0.0
C395 C 0.95744 0.50637 0.65373 0.0
O396 O 0.03564 0.5158 0.52818 0.0
O397 O 0.00974 0.5455 0.53631 0.0
O398 O 0.0151 0.55624 0.68751 0.0
O399 O 0.00727 0.52545 0.74738 0.0
O400 O 0.05028 0.50781 0.67363 0.0
O401 O 0.0383 0.49856 0.79418 0.0
O402 O 0.98233 0.49001 0.87164 0.0
O403 O 0.99576 0.45528 0.8337 0.0
O404 O 0.02047 0.45726 0.7049 0.0
O405 O 1.00076 0.48208 0.64094 0.0
O406 O 0.96328 0.49592 0.71788 0.0
O407 O 0.97387 0.51523 0.60763 0.0
H408 H 0.02574 0.56967 0.38882 0.0
H409 H 0.05794 0.59666 0.34616 0.0
H410 H 0.10451 0.56799 0.5188 0.0
H411 H 0.07208 0.54249 0.56288 0.0
H412 H 0.96836 0.45193 0.01972 0.0
H413 H 0.92882 0.43587 0.05467 0.0
H414 H 0.90616 0.44034 0.82441 0.0
H415 H 0.9457 0.45662 0.79023 0.0
H416 H 0.10689 0.01431 0.22817 0.0
H417 H 0.09827 0.99212 0.67011 0.0
H418 H 0.16848 0.99957 0.36769 0.0
H419 H 0.0361 1.00249 0.53029 0.0
H420 H 0.12415 0.9947 0.55974 0.0
H421 H 0.08064 0.00993 0.33718 0.0
C422 C 0.11494 0.01011 0.28166 0.0
C423 C 0.14005 0.0074 0.28846 0.0
C424 C 0.10485 0.99649 0.55298 0.0
C425 C 0.10991 1.00227 0.41405 0.0
C426 C 0.09005 0.99505 0.61607 0.0
C427 C 0.06496 0.99742 0.60949 0.0
C428 C 0.09454 1.00031 0.48235 0.0
C429 C 0.05532 1.00103 0.53804 0.0
C430 C 0.09988 0.00753 0.34394 0.0
C431 C 0.14928 1.00158 0.35927 0.0
N432 N 0.07009 1.00243 0.47731 0.0
N433 N 0.13427 0.99936 0.41914 0.0
H434 H 0.49096 0.11025 0.19965 0.0
H435 H 0.45717 0.07699 0.62396 0.0
H436 H 0.43745 0.14729 0.33137 0.0
H437 H 0.50751 0.03521 0.49464 0.0
H438 H 0.4493 0.10218 0.51447 0.0
H439 H 0.49711 0.08193 0.30403 0.0
C440 C 0.48041 0.11239 0.25003 0.0
C441 C 0.46346 0.13116 0.25588 0.0
C442 C 0.46205 0.08749 0.50968 0.0
C443 C 0.4705 0.09885 0.37579 0.0
C444 C 0.46657 0.07313 0.57239 0.0
C445 C 0.48308 0.05407 0.56853 0.0
C446 C 0.47428 0.08296 0.44234 0.0
C447 C 0.49465 0.04978 0.50002 0.0
C448 C 0.48388 0.09616 0.30956 0.0
C449 C 0.45031 0.13289 0.3229 0.0
N450 N 0.49013 0.06418 0.43971 0.0
N451 N 0.45417 0.11711 0.3798 0.0
H452 H 0.37204 0.43897 0.31738 0.0
H453 H 0.46442 0.52532 0.52975 0.0
H454 H 0.36965 0.51635 0.2901 0.0
H455 H 0.4382 0.45819 0.62116 0.0
H456 H 0.43756 0.52001 0.4217 0.0
H457 H 0.40449 0.44361 0.40778 0.0
C458 C 0.37837 0.45697 0.32989 0.0
C459 C 0.36753 0.47733 0.29692 0.0
C460 C 0.43791 0.50638 0.46517 0.0
C461 C 0.40533 0.48264 0.39979 0.0
C462 C 0.45328 0.50931 0.52651 0.0
C463 C 0.45338 0.49221 0.58458 0.0
C464 C 0.42304 0.48591 0.46119 0.0
C465 C 0.43854 0.47187 0.57783 0.0
C466 C 0.397 0.45955 0.38146 0.0
C467 C 0.37731 0.50009 0.31385 0.0
N468 N 0.42404 0.46925 0.51731 0.0
N469 N 0.39552 0.50215 0.36451 0.0
H470 H 0.06423 0.3552 0.32932 0.0
H471 H 0.98986 0.46511 0.50421 0.0
H472 H 0.99518 0.37687 0.24197 0.0
H473 H 0.04537 0.42624 0.62219 0.0
H474 H 0.99371 0.43647 0.40024 0.0
H475 H 0.05966 0.38433 0.42996 0.0
C476 C 0.04807 0.36615 0.3313 0.0
C477 C 0.03009 0.36362 0.27688 0.0
C478 C 0.00505 0.43428 0.44888 0.0
C479 C 0.02476 0.39731 0.39241 0.0
C480 C 1.00298 0.45069 0.50794 0.0
C481 C 0.01732 0.44803 0.57197 0.0
C482 C 0.02183 0.41531 0.45348 0.0
C483 C 0.03393 0.42896 0.57402 0.0
C484 C 0.04543 0.38275 0.38901 0.0
C485 C 0.00942 0.37814 0.28293 0.0
N486 N 0.03577 0.41344 0.51577 0.0
N487 N 0.00738 0.39451 0.3393 0.0
H488 H 0.89544 0.9976 0.20547 0.0
H489 H 0.91579 0.97751 0.76715 0.0
H490 H 0.83729 0.98684 0.04961 0.0
H491 H 0.97153 1.00142 0.9168 0.0
H492 H 0.88775 0.97507 0.87269 0.0
H493 H 0.9243 0.99322 0.10341 0.0
C494 C 0.88869 0.99421 0.14988 0.0
C495 C 0.86376 0.9929 0.13633 0.0
C496 C 0.90615 0.98069 0.88258 0.0
C497 C 0.89694 0.98764 0.01875 0.0
C498 C 0.92219 0.98203 0.82237 0.0
C499 C 0.946 0.98981 0.83315 0.0
C500 C 0.91398 0.98705 0.95432 0.0
C501 C 0.95332 0.9954 0.90593 0.0
C502 C 0.90524 0.99165 0.09158 0.0
C503 C 0.85626 0.98788 0.06315 0.0
N504 N 0.93736 0.994 0.96361 0.0
N505 N 0.87274 0.98562 0.00717 0.0
H506 H 0.49678 0.90011 0.19437 0.0
H507 H 0.50314 0.90554 0.74876 0.0
H508 H 0.50664 0.83754 0.05567 0.0
H509 H 0.50065 0.96908 0.88592 0.0
H510 H 0.50643 0.88061 0.86114 0.0
H511 H 0.50035 0.92588 0.08358 0.0
C512 C 0.4999 0.89178 0.14072 0.0
C513 C 0.50127 0.86654 0.1345 0.0
C514 C 0.50539 0.90001 0.86689 0.0
C515 C 0.50527 0.89603 0.00701 0.0
C516 C 0.50349 0.91426 0.80266 0.0
C517 C 0.50167 0.93942 0.80806 0.0
C518 C 0.50521 0.91093 0.93744 0.0
C519 C 0.50219 0.94976 0.87929 0.0
C520 C 0.50199 0.90653 0.07745 0.0
C521 C 0.50565 0.85685 0.06351 0.0
N522 N 0.50372 0.93547 0.94124 0.0
N523 N 0.50724 0.87156 1.00264 0.0
H524 H 0.66406 0.52187 0.09785 0.0
H525 H 0.53082 0.50024 0.94665 0.0
H526 H 0.60496 0.50095 0.24133 0.0
H527 H 0.58548 0.5379 0.82052 0.0
H528 H 0.5574 0.50063 0.05581 0.0
H529 H 0.63547 0.52861 0.99671 0.0
C530 C 0.64507 0.51906 0.10879 0.0
C531 C 0.63709 0.51062 0.17871 0.0
C532 C 0.5635 0.50902 0.00447 0.0
C533 C 0.60414 0.51776 0.06157 0.0
C534 C 0.54832 0.50879 0.94217 0.0
C535 C 0.55601 0.51892 0.8743 0.0
C536 C 0.58665 0.51921 0.99866 0.0
C537 C 0.57886 0.5298 0.87165 0.0
C538 C 0.62872 0.52275 0.05054 0.0
C539 C 0.61216 0.50693 0.18826 0.0
N540 N 0.59344 0.52943 0.93258 0.0
N541 N 0.59666 0.51027 0.13032 0.0
H542 H 0.00922 0.66904 0.05373 0.0
H543 H 0.00673 0.53304 0.90042 0.0
H544 H 0.01402 0.60683 0.19869 0.0
H545 H 0.01016 0.59655 0.76115 0.0
H546 H 0.0058 0.55913 0.01124 0.0
H547 H 0.00535 0.64224 0.94708 0.0
C548 C 0.00911 0.64975 0.06347 0.0
C549 C 0.012 0.6403 0.13574 0.0
C550 C 0.00663 0.56732 0.95634 0.0
C551 C 0.008 0.60925 0.01269 0.0
C552 C 0.00708 0.55243 0.89319 0.0
C553 C 0.0085 0.56265 0.82155 0.0
C554 C 0.00748 0.59257 0.94754 0.0
C555 C 0.00911 0.58789 0.81531 0.0
C556 C 0.00712 0.63439 1.00222 0.0
C557 C 0.01216 0.61502 0.14407 0.0
N558 N 0.00861 0.60191 0.87721 0.0
N559 N 0.01028 0.6004 0.08341 0.0
H560 H 0.07313 0.18407 0.08881 0.0
H561 H 0.05029 0.1156 0.47146 0.0
H562 H 0.0992 0.20931 0.30123 0.0
H563 H 0.0289 0.08747 0.25745 0.0
H564 H 0.0731 0.14713 0.40822 0.0
H565 H 0.06272 0.14564 0.14645 0.0
C566 C 0.07742 0.18129 0.14713 0.0
C567 C 0.08687 0.20007 0.19049 0.0
C568 C 0.06364 0.13394 0.37496 0.0
C569 C 0.07418 0.15627 0.25741 0.0
C570 C 0.05064 0.11583 0.41107 0.0
C571 C 0.03749 0.0989 0.36974 0.0
C572 C 0.06335 0.13535 0.29681 0.0
C573 C 0.03836 0.10041 0.29161 0.0
C574 C 0.07117 0.15937 0.18025 0.0
C575 C 0.09159 0.19546 0.26606 0.0
N576 N 0.05089 0.11845 0.25769 0.0
N577 N 0.08483 0.17416 0.29741 0.0
H578 H 0.31363 0.06377 0.06336 0.0
H579 H 0.38551 0.04499 0.43573 0.0
H580 H 0.29001 0.09155 0.27575 0.0
H581 H 0.41695 0.03157 0.2192 0.0
H582 H 0.35279 0.06656 0.37612 0.0
H583 H 0.3536 0.05715 0.11523 0.0
C584 C 0.31703 0.06928 0.12025 0.0
C585 C 0.29829 0.07798 0.16562 0.0
C586 C 0.36699 0.05921 0.34151 0.0
C587 C 0.34393 0.06965 0.22601 0.0
C588 C 0.38588 0.04692 0.37564 0.0
C589 C 0.40412 0.0362 0.33258 0.0
C590 C 0.36591 0.06048 0.26347 0.0
C591 C 0.40306 0.039 0.25472 0.0
C592 C 0.33987 0.06524 0.15008 0.0
C593 C 0.30378 0.08437 0.23924 0.0
N594 N 0.38409 0.05058 0.2226 0.0
N595 N 0.32598 0.07966 0.26754 0.0
H596 H 0.4695 0.27942 0.44783 0.0
H597 H 0.57323 0.37522 0.444 0.0
H598 H 0.5336 0.27325 0.31258 0.0
H599 H 0.51508 0.37513 0.6039 0.0
H600 H 0.56389 0.33331 0.41428 0.0
H601 H 0.48988 0.30963 0.52382 0.0
C602 C 0.48801 0.28414 0.43507 0.0
C603 C 0.49974 0.2742 0.37322 0.0
C604 C 0.55347 0.34228 0.45705 0.0
C605 C 0.52307 0.30883 0.45886 0.0
C606 C 0.55888 0.36618 0.47416 0.0
C607 C 0.54441 0.37878 0.52482 0.0
C608 C 0.53332 0.33116 0.49031 0.0
C609 C 0.52614 0.36621 0.5627 0.0
C610 C 0.4997 0.30129 0.47854 0.0
C611 C 0.52386 0.28055 0.3597 0.0
N612 N 0.52076 0.34323 0.54357 0.0
N613 N 0.53457 0.29784 0.40124 0.0
H614 H 0.22533 0.564 0.37028 0.0
H615 H 0.09311 0.591 0.27865 0.0
H616 H 0.1944 0.56105 0.15035 0.0
H617 H 0.12446 0.60401 0.49505 0.0
H618 H 0.13258 0.59494 0.22279 0.0
H619 H 0.19312 0.59157 0.40833 0.0
C620 C 0.21218 0.56984 0.32944 0.0
C621 C 0.21192 0.5598 0.25798 0.0
C622 C 0.13087 0.59749 0.28241 0.0
C623 C 0.17497 0.59078 0.30084 0.0
C624 C 0.10809 0.59545 0.3146 0.0
C625 C 0.10551 0.59582 0.39253 0.0
C626 C 0.15123 0.59917 0.32856 0.0
C627 C 0.12579 0.60211 0.43515 0.0
C628 C 0.19376 0.58553 0.35104 0.0
C629 C 0.1947 0.56797 0.20671 0.0
N630 N 0.14797 0.60262 0.40302 0.0
N631 N 0.17659 0.58256 0.22959 0.0
H632 H 0.09548 0.80723 0.34113 0.0
H633 H 0.10024 0.88166 0.96213 0.0
H634 H 0.1117 0.77532 0.12763 0.0
H635 H 0.07596 0.90952 0.17381 0.0
H636 H 0.11432 0.84519 0.02584 0.0
H637 H 0.09956 0.84699 0.28542 0.0
C638 C 0.10063 0.80848 0.28297 0.0
C639 C 0.10281 0.78775 0.23877 0.0
C640 C 0.10628 0.8595 0.05839 0.0
C641 C 0.10662 0.83355 0.17386 0.0
C642 C 0.09809 0.88027 0.02204 0.0
C643 C 0.08644 0.89856 0.06236 0.0
C644 C 0.10279 0.857 0.1356 0.0
C645 C 0.08481 0.89601 0.14016 0.0
C646 C 0.10267 0.83132 0.25091 0.0
C647 C 0.10922 0.79078 0.16343 0.0
N648 N 0.09257 0.87549 0.17398 0.0
N649 N 0.11043 0.81326 0.13297 0.0
H650 H 0.69483 0.08754 0.27996 0.0
H651 H 0.62956 0.08198 0.88837 0.0
H652 H 0.73298 0.09047 0.06988 0.0
H653 H 0.59294 0.08158 0.10103 0.0
H654 H 0.66701 0.09273 0.95184 0.0
H655 H 0.65726 0.09431 0.21423 0.0
C656 C 0.69549 0.09027 0.22017 0.0
C657 C 0.71719 0.08796 0.1804 0.0
C658 C 0.65068 0.0907 0.9844 0.0
C659 C 0.6738 0.09484 0.10419 0.0
C660 C 0.62933 0.08442 0.94826 0.0
C661 C 0.60813 0.0805 0.98951 0.0
C662 C 0.65086 0.09291 0.0624 0.0
C663 C 0.60877 0.08444 0.06676 0.0
C664 C 0.67387 0.09389 0.18243 0.0
C665 C 0.71662 0.09142 0.10271 0.0
N666 N 0.62984 0.09008 0.10072 0.0
N667 N 0.69521 0.09421 0.06696 0.0
H668 H 0.40762 0.74067 0.07244 0.0
H669 H 0.40633 0.59781 0.10508 0.0
H670 H 0.40646 0.70072 0.27976 0.0
H671 H 0.41424 0.63651 0.89684 0.0
H672 H 0.39599 0.63543 0.1664 0.0
H673 H 0.40003 0.70316 0.00528 0.0
C674 C 0.40534 0.7241 0.10396 0.0
C675 C 0.40816 0.7238 0.18179 0.0
C676 C 0.39963 0.63568 0.10705 0.0
C677 C 0.39948 0.68088 0.10536 0.0
C678 C 0.40537 0.61411 0.07172 0.0
C679 C 0.41156 0.614 0.99576 0.0
C680 C 0.40029 0.65739 0.06644 0.0
C681 C 0.4102 0.63583 0.95589 0.0
C682 C 0.40096 0.70271 0.06559 0.0
C683 C 0.40446 0.70191 0.21984 0.0
N684 N 0.40507 0.65671 0.99193 0.0
N685 N 0.40071 0.68129 0.18116 0.0
H686 H 0.76933 0.45502 0.07617 0.0
H687 H 0.90093 0.4017 0.04259 0.0
H688 H 0.79463 0.39524 0.21026 0.0
H689 H 0.87162 0.45564 0.89396 0.0
H690 H 0.86049 0.39461 0.09257 0.0
H691 H 0.80412 0.45046 0.99539 0.0
C692 C 0.78184 0.4405 0.08778 0.0
C693 C 0.77914 0.42574 0.1512 0.0
C694 C 0.86284 0.4077 0.04814 0.0
C695 C 0.81971 0.42101 0.05968 0.0
C696 C 0.88594 0.41185 0.0199 0.0
C697 C 0.8897 0.42954 0.96482 0.0
C698 C 0.84343 0.42154 0.02163 0.0
C699 C 0.86958 0.44182 0.93635 0.0
C700 C 0.80192 0.43806 0.04175 0.0
C701 C 0.79628 0.40749 0.16333 0.0
N702 N 0.84739 0.43784 0.96586 0.0
N703 N 0.81606 0.40592 0.11882 0.0
H704 H 0.02711 0.17846 0.02968 0.0
H705 H 1.00153 0.08876 0.68834 0.0
H706 H 1.00089 0.2026 0.81543 0.0
H707 H 0.02211 0.06483 0.90865 0.0
H708 H 1.00195 0.13051 0.73254 0.0
H709 H 0.02531 0.13689 0.98606 0.0
C710 C 0.0206 0.1751 0.97381 0.0
C711 C 0.01404 0.19433 0.9265 0.0
C712 C 0.00639 0.11612 0.77119 0.0
C713 C 0.0125 0.14632 0.87521 0.0
C714 C 0.00624 0.09222 0.7459 0.0
C715 C 0.0118 0.07307 0.79467 0.0
C716 C 0.0122 0.12107 0.8459 0.0
C717 C 0.0177 0.07886 0.86875 0.0
C718 C 0.01981 0.15124 0.94861 0.0
C719 C 0.00638 0.18855 0.85391 0.0
N720 N 0.01773 0.10222 0.89192 0.0
N721 N 0.00588 0.16518 0.83057 0.0
H722 H 0.32177 0.01361 0.01666 0.0
H723 H 0.40824 0.98941 0.66605 0.0
H724 H 0.29606 0.98325 0.81029 0.0
H725 H 0.43392 0.00764 0.88572 0.0
H726 H 0.36693 0.98844 0.71524 0.0
H727 H 0.36274 0.01232 0.96793 0.0
C728 C 0.32467 0.00627 0.96152 0.0
C729 C 0.30516 0.99835 0.918 0.0
C730 C 0.38164 0.99261 0.75261 0.0
C731 C 0.35249 0.9975 0.86061 0.0
C732 C 0.40525 0.99324 0.72451 0.0
C733 C 0.42472 0.99863 0.77165 0.0
C734 C 0.37736 0.99757 0.82837 0.0
C735 C 0.41961 1.00338 0.84702 0.0
C736 C 0.34818 0.00578 0.93336 0.0
C737 C 0.31033 0.98978 0.8459 0.0
N738 N 0.39654 1.0028 0.87279 0.0
N739 N 0.3334 0.98966 0.81948 0.0
H740 H 0.50092 0.32364 0.02897 0.0
H741 H 0.49961 0.41724 0.68646 0.0
H742 H 0.47677 0.30339 0.80956 0.0
H743 H 0.49952 0.43866 0.91735 0.0
H744 H 0.49648 0.37482 0.72669 0.0
H745 H 0.50652 0.365 0.98462 0.0
C746 C 0.49714 0.32776 0.97105 0.0
C747 C 0.48843 0.30983 0.92297 0.0
C748 C 0.49726 0.38885 0.76832 0.0
C749 C 0.49459 0.35758 0.87177 0.0
C750 C 0.49908 0.41306 0.7455 0.0
C751 C 0.49974 0.43163 0.79857 0.0
C752 C 0.49662 0.38308 0.84476 0.0
C753 C 0.49891 0.42505 0.87435 0.0
C754 C 0.50012 0.35151 0.94595 0.0
C755 C 0.4834 0.31657 0.8488 0.0
N756 N 0.49753 0.40141 0.89504 0.0
N757 N 0.4866 0.33984 0.82546 0.0
H758 H 0.20644 0.46729 0.81491 0.0
H759 H 0.07254 0.5119 0.88438 0.0
H760 H 0.18817 0.51803 0.9874 0.0
H761 H 0.09646 0.49359 0.66282 0.0
H762 H 0.11431 0.51009 0.92739 0.0
H763 H 0.16594 0.47281 0.7612 0.0
C764 C 0.19404 0.47979 0.8409 0.0
C765 C 0.20082 0.49238 0.90541 0.0
C766 C 0.11046 0.50658 0.86927 0.0
C767 C 0.15435 0.49827 0.8455 0.0
C768 C 0.08659 0.50749 0.8447 0.0
C769 C 0.08094 0.50286 0.76984 0.0
C770 C 0.12894 0.50044 0.81919 0.0
C771 C 0.1 0.49738 0.72094 0.0
C772 C 0.17098 0.48294 0.81023 0.0
C773 C 0.18393 0.50823 0.93703 0.0
N774 N 0.12312 0.49602 0.74662 0.0
N775 N 0.16146 0.51047 0.90744 0.0
H776 H 0.98179 0.81968 0.41311 0.0
H777 H 0.01631 0.90944 0.74644 0.0
H778 H 0.02582 0.79905 0.60127 0.0
H779 H 0.98476 0.93343 0.53906 0.0
H780 H 0.01615 0.86807 0.69969 0.0
H781 H 0.97911 0.8605 0.46363 0.0
C782 C 0.99087 0.8236 0.46502 0.0
C783 C 1.00408 0.8056 0.5026 0.0
C784 C 0.0092 0.88238 0.66446 0.0
C785 C 1.00081 0.85257 0.56143 0.0
C786 C 0.00923 0.90606 0.69123 0.0
C787 C 1.0006 0.92512 0.64669 0.0
C788 C 1.00034 0.87752 0.59266 0.0
C789 C 0.9917 0.91944 0.57546 0.0
C790 C 0.98925 0.84698 0.494 0.0
C791 C 0.01506 0.81196 0.57052 0.0
N792 N 0.9918 0.89624 0.55077 0.0
N793 N 0.01321 0.83481 0.59745 0.0
H794 H 0.68077 0.96637 0.4063 0.0
H795 H 0.5855 0.01782 0.70339 0.0
H796 H 0.69796 0.01955 0.57295 0.0
H797 H 0.56641 0.96809 0.52872 0.0
H798 H 0.62731 0.01658 0.66097 0.0
H799 H 0.63945 0.9648 0.45447 0.0
C800 C 0.67596 0.97767 0.45309 0.0
C801 C 0.6931 0.99309 0.48543 0.0
C802 C 0.61401 0.00587 0.632 0.0
C803 C 0.64563 0.99128 0.54127 0.0
C804 C 0.59004 0.00653 0.65634 0.0
C805 C 0.57221 0.99308 0.61966 0.0
C806 C 0.62038 0.99164 0.57035 0.0
C807 C 0.5794 0.97884 0.5588 0.0
C808 C 0.65233 0.9767 0.48075 0.0
C809 C 0.68568 0.00705 0.5467 0.0
N810 N 0.60285 0.97854 0.53605 0.0
N811 N 0.6626 0.00587 0.57226 0.0
H812 H 0.49571 0.6822 0.39749 0.0
H813 H 0.49654 0.5972 0.75658 0.0
H814 H 0.50679 0.71083 0.61855 0.0
H815 H 0.51614 0.57217 0.53724 0.0
H816 H 0.49593 0.63877 0.708 0.0
H817 H 0.49952 0.64161 0.44822 0.0
C818 C 0.49931 0.68017 0.45647 0.0
C819 C 0.50099 0.70039 0.50332 0.0
C820 C 0.50047 0.62414 0.67077 0.0
C821 C 0.50447 0.65333 0.56247 0.0
C822 C 0.50071 0.60041 0.69835 0.0
C823 C 0.50642 0.5811 0.65103 0.0
C824 C 0.50551 0.62855 0.59502 0.0
C825 C 0.51175 0.58641 0.57602 0.0
C826 C 0.50125 0.6568 0.48554 0.0
C827 C 0.50491 0.69604 0.57993 0.0
N828 N 0.51097 0.60953 0.55034 0.0
N829 N 0.50631 0.67306 0.60708 0.0
H830 H 0.80041 0.51042 0.63079 0.0
H831 H 0.93945 0.51647 0.51502 0.0
H832 H 0.82583 0.50086 0.4049 0.0
H833 H 0.91664 0.49806 0.73851 0.0
H834 H 0.89735 0.51712 0.47593 0.0
H835 H 0.84231 0.51197 0.67294 0.0
C836 C 0.81464 0.50867 0.58982 0.0
C837 C 0.80922 0.50543 0.51377 0.0
C838 C 0.90153 0.51297 0.53356 0.0
C839 C 0.85745 0.50773 0.56215 0.0
C840 C 0.92561 0.51267 0.55613 0.0
C841 C 0.93171 0.50717 0.63032 0.0
C842 C 0.88321 0.50806 0.58554 0.0
C843 C 0.91284 0.50232 0.68072 0.0
C844 C 0.83861 0.50965 0.61414 0.0
C845 C 0.82875 0.50385 0.46373 0.0
N846 N 0.88945 0.50297 0.65749 0.0
N847 N 0.85185 0.50503 0.48875 0.0
loop_
_geom_bond_atom_site_label_1
_geom_bond_atom_site_label_2
_geom_bond_distance
_geom_bond_site_symmetry_2
_ccdc_geom_bond_type
P0 O11 1.490 . S
P0 C14 1.812 . S
P0 C20 1.803 . S
P0 C26 1.819 . S
H1 C15 0.941 . S
H2 C16 0.939 . S
H3 C18 0.940 . S
H4 C19 0.940 . S
H5 C21 0.939 . S
H6 C22 0.942 . S
H7 C24 0.940 . S
H8 C25 0.939 . S
H9 C27 0.941 . S
H10 C31 0.939 . S
O11 P0 1.490 . S
H12 C28 0.939 . S
H13 C30 0.940 . S
C14 P0 1.812 . S
C14 C15 1.389 . S
C14 C19 1.391 . S
C15 H1 0.941 . S
C15 C14 1.389 . S
C15 C16 1.397 . S
C16 H2 0.939 . S
C16 C15 1.397 . S
C16 C17 1.378 . S
C17 C16 1.378 . S
C17 C18 1.378 . S
C18 H3 0.940 . S
C18 C17 1.378 . S
C18 C19 1.396 . S
C19 H4 0.940 . S
C19 C14 1.391 . S
C19 C18 1.396 . S
C20 P0 1.803 . S
C20 C21 1.378 . S
C20 C25 1.400 . S
C21 H5 0.939 . S
C21 C20 1.378 . S
C21 C22 1.361 . S
C22 H6 0.942 . S
C22 C21 1.361 . S
C22 C23 1.369 . S
C23 C22 1.369 . S
C23 C24 1.404 . S
C24 H7 0.940 . S
C24 C23 1.404 . S
C24 C25 1.389 . S
C25 H8 0.939 . S
C25 C20 1.400 . S
C25 C24 1.389 . S
C26 P0 1.819 . S
C26 C27 1.391 . S
C26 C31 1.391 . S
C27 H9 0.941 . S
C27 C26 1.391 . S
C27 C28 1.396 . S
C28 H12 0.939 . S
C28 C27 1.396 . S
C28 C29 1.397 . S
C29 C28 1.397 . S
C29 C30 1.385 . S
C30 H13 0.940 . S
C30 C29 1.385 . S
C30 C31 1.388 . S
C31 H10 0.939 . S
C31 C26 1.391 . S
C31 C30 1.388 . S
P32 O43 1.490 . S
P32 C46 1.812 . S
P32 C52 1.803 . S
P32 C58 1.819 . S
H33 C47 0.941 . S
H34 C48 0.939 . S
H35 C50 0.940 . S
H36 C51 0.950 . S
H37 C53 0.939 . S
H38 C54 0.942 . S
H39 C56 0.940 . S
H40 C57 0.959 . S
H41 C59 0.941 . S
H42 C63 0.929 1_655 S
O43 P32 1.490 . S
H44 C60 0.939 . S
H45 C62 0.940 . S
C46 P32 1.812 . S
C46 C47 1.389 . S
C46 C51 1.375 1_455 S
C47 H33 0.941 . S
C47 C46 1.389 . S
C47 C48 1.397 . S
C48 H34 0.939 . S
C48 C47 1.397 . S
C48 C49 1.378 . S
C49 C48 1.378 . S
C49 C50 1.378 1_455 S
C50 H35 0.940 . S
C50 C49 1.378 1_655 S
C50 C51 1.403 . S
C51 H36 0.950 . S
C51 C46 1.375 1_655 S
C51 C50 1.403 . S
C52 P32 1.803 . S
C52 C53 1.378 . S
C52 C57 1.368 1_455 S
C53 H37 0.939 . S
C53 C52 1.378 . S
C53 C54 1.361 . S
C54 H38 0.942 . S
C54 C53 1.361 . S
C54 C55 1.369 . S
C55 C54 1.369 . S
C55 C56 1.404 1_455 S
C56 H39 0.940 . S
C56 C55 1.404 1_655 S
C56 C57 1.402 . S
C57 H40 0.959 . S
C57 C52 1.368 1_655 S
C57 C56 1.402 . S
C58 P32 1.819 . S
C58 C59 1.391 . S
C58 C63 1.391 . S
C59 H41 0.941 . S
C59 C58 1.391 . S
C59 C60 1.396 . S
C60 H44 0.939 . S
C60 C59 1.396 . S
C60 C61 1.397 . S
C61 C60 1.397 . S
C61 C62 1.385 1_455 S
C62 H45 0.940 . S
C62 C61 1.385 1_655 S
C62 C63 1.388 1_655 S
C63 H42 0.929 1_455 S
C63 C58 1.391 . S
C63 C62 1.388 1_455 S
P64 O75 1.490 . S
P64 C78 1.812 . S
P64 C84 1.803 . S
P64 C90 1.819 . S
H65 C79 0.941 . S
H66 C80 0.939 . S
H67 C82 0.940 . S
H68 C83 0.950 . S
H69 C85 0.939 . S
H70 C86 0.942 . S
H71 C88 0.940 . S
H72 C89 0.959 . S
H73 C91 0.941 . S
H74 C95 0.929 1_565 S
O75 P64 1.490 . S
H76 C92 0.939 . S
H77 C94 0.940 . S
C78 P64 1.812 . S
C78 C79 1.389 . S
C78 C83 1.375 1_545 S
C79 H65 0.941 . S
C79 C78 1.389 . S
C79 C80 1.397 . S
C80 H66 0.939 . S
C80 C79 1.397 . S
C80 C81 1.378 . S
C81 C80 1.378 . S
C81 C82 1.378 1_545 S
C82 H67 0.940 . S
C82 C81 1.378 1_565 S
C82 C83 1.402 . S
C83 H68 0.950 . S
C83 C78 1.375 1_565 S
C83 C82 1.402 . S
C84 P64 1.803 . S
C84 C85 1.378 . S
C84 C89 1.368 1_545 S
C85 H69 0.939 . S
C85 C84 1.378 . S
C85 C86 1.361 . S
C86 H70 0.942 . S
C86 C85 1.361 . S
C86 C87 1.369 . S
C87 C86 1.369 . S
C87 C88 1.404 1_545 S
C88 H71 0.940 . S
C88 C87 1.404 1_565 S
C88 C89 1.402 . S
C89 H72 0.959 . S
C89 C84 1.368 1_565 S
C89 C88 1.402 . S
C90 P64 1.819 . S
C90 C91 1.391 . S
C90 C95 1.391 . S
C91 H73 0.941 . S
C91 C90 1.391 . S
C91 C92 1.396 . S
C92 H76 0.939 . S
C92 C91 1.396 . S
C92 C93 1.397 . S
C93 C92 1.397 . S
C93 C94 1.385 1_545 S
C94 H77 0.940 . S
C94 C93 1.385 1_565 S
C94 C95 1.388 1_565 S
C95 H74 0.929 1_545 S
C95 C90 1.391 . S
C95 C94 1.388 1_545 S
P96 O107 1.490 . S
P96 C110 1.812 . S
P96 C116 1.803 . S
P96 C122 1.819 . S
H97 C111 0.941 . S
H98 C112 0.939 . S
H99 C114 0.940 . S
H100 C115 0.940 . S
H101 C117 0.939 . S
H102 C118 0.942 . S
H103 C120 0.940 . S
H104 C121 0.939 . S
H105 C123 0.941 . S
H106 C127 0.939 . S
O107 P96 1.490 . S
H108 C124 0.939 . S
H109 C126 0.940 . S
C110 P96 1.812 . S
C110 C111 1.389 . S
C110 C115 1.391 . S
C111 H97 0.941 . S
C111 C110 1.389 . S
C111 C112 1.397 . S
C112 H98 0.939 . S
C112 C111 1.397 . S
C112 C113 1.378 . S
C113 C112 1.378 . S
C113 C114 1.378 . S
C114 H99 0.940 . S
C114 C113 1.378 . S
C114 C115 1.396 . S
C115 H100 0.940 . S
C115 C110 1.391 . S
C115 C114 1.396 . S
C116 P96 1.803 . S
C116 C117 1.378 . S
C116 C121 1.400 . S
C117 H101 0.939 . S
C117 C116 1.378 . S
C117 C118 1.361 . S
C118 H102 0.942 . S
C118 C117 1.361 . S
C118 C119 1.369 . S
C119 C118 1.369 . S
C119 C120 1.404 . S
C120 H103 0.940 . S
C120 C119 1.404 . S
C120 C121 1.389 . S
C121 H104 0.939 . S
C121 C116 1.400 . S
C121 C120 1.389 . S
C122 P96 1.819 . S
C122 C123 1.391 . S
C122 C127 1.391 . S
C123 H105 0.941 . S
C123 C122 1.391 . S
C123 C124 1.396 . S
C124 H108 0.939 . S
C124 C123 1.396 . S
C124 C125 1.397 . S
C125 C124 1.397 . S
C125 C126 1.385 . S
C126 H109 0.940 . S
C126 C125 1.385 . S
C126 C127 1.388 . S
C127 H106 0.939 . S
C127 C122 1.391 . S
C127 C126 1.388 . S
P128 O139 1.490 . S
P128 C142 1.812 1_554 S
P128 C148 1.803 . S
P128 C154 1.819 . S
H129 C143 0.941 . S
H130 C144 0.939 . S
H131 C146 0.940 . S
H132 C147 0.940 1_554 S
H133 C149 0.939 . S
H134 C150 0.942 . S
H135 C152 0.940 . S
H136 C153 0.939 . S
H137 C155 0.941 . S
H138 C159 0.939 . S
O139 P128 1.490 . S
H140 C156 0.939 . S
H141 C158 0.940 . S
C142 P128 1.812 1_556 S
C142 C143 1.389 . S
C142 C147 1.391 . S
C143 H129 0.941 . S
C143 C142 1.389 . S
C143 C144 1.397 . S
C144 H130 0.939 . S
C144 C143 1.397 . S
C144 C145 1.378 . S
C145 C144 1.378 . S
C145 C146 1.378 . S
C146 H131 0.940 . S
C146 C145 1.378 . S
C146 C147 1.396 . S
C147 H132 0.940 1_556 S
C147 C142 1.391 . S
C147 C146 1.396 . S
C148 P128 1.803 . S
C148 C149 1.378 . S
C148 C153 1.400 . S
C149 H133 0.939 . S
C149 C148 1.378 . S
C149 C150 1.361 . S
C150 H134 0.942 . S
C150 C149 1.361 . S
C150 C151 1.369 . S
C151 C150 1.369 . S
C151 C152 1.404 . S
C152 H135 0.940 . S
C152 C151 1.404 . S
C152 C153 1.389 . S
C153 H136 0.939 . S
C153 C148 1.400 . S
C153 C152 1.389 . S
C154 P128 1.819 . S
C154 C155 1.391 . S
C154 C159 1.391 . S
C155 H137 0.941 . S
C155 C154 1.391 . S
C155 C156 1.396 . S
C156 H140 0.939 . S
C156 C155 1.396 . S
C156 C157 1.397 . S
C157 C156 1.397 . S
C157 C158 1.385 . S
C158 H141 0.940 . S
C158 C157 1.385 . S
C158 C159 1.388 . S
C159 H138 0.939 . S
C159 C154 1.391 . S
C159 C158 1.388 . S
P160 O171 1.490 . S
P160 C174 1.812 1_554 S
P160 C180 1.803 . S
P160 C186 1.819 . S
H161 C175 0.941 . S
H162 C176 0.939 . S
H163 C178 0.940 . S
H164 C179 0.944 1_554 S
H165 C181 0.939 . S
H166 C182 0.942 . S
H167 C184 0.940 . S
H168 C185 0.953 . S
H169 C187 0.941 . S
H170 C191 0.933 1_655 S
O171 P160 1.490 . S
H172 C188 0.939 . S
H173 C190 0.940 . S
C174 P160 1.812 1_556 S
C174 C175 1.389 . S
C174 C179 1.385 1_455 S
C175 H161 0.941 . S
C175 C174 1.389 . S
C175 C176 1.397 . S
C176 H162 0.939 . S
C176 C175 1.397 . S
C176 C177 1.378 . S
C177 C176 1.378 . S
C177 C178 1.378 1_455 S
C178 H163 0.940 . S
C178 C177 1.378 1_655 S
C178 C179 1.399 . S
C179 H164 0.944 1_556 S
C179 C174 1.385 1_655 S
C179 C178 1.399 . S
C180 P160 1.803 . S
C180 C181 1.378 . S
C180 C185 1.379 1_455 S
C181 H165 0.939 . S
C181 C180 1.378 . S
C181 C182 1.361 . S
C182 H166 0.942 . S
C182 C181 1.361 . S
C182 C183 1.369 . S
C183 C182 1.369 . S
C183 C184 1.404 1_455 S
C184 H167 0.940 . S
C184 C183 1.404 1_655 S
C184 C185 1.398 . S
C185 H168 0.953 . S
C185 C180 1.379 1_655 S
C185 C184 1.398 . S
C186 P160 1.819 . S
C186 C187 1.391 . S
C186 C191 1.391 . S
C187 H169 0.941 . S
C187 C186 1.391 . S
C187 C188 1.396 . S
C188 H172 0.939 . S
C188 C187 1.396 . S
C188 C189 1.397 . S
C189 C188 1.397 . S
C189 C190 1.385 1_455 S
C190 H173 0.940 . S
C190 C189 1.385 1_655 S
C190 C191 1.388 1_655 S
C191 H170 0.933 1_455 S
C191 C186 1.391 . S
C191 C190 1.388 1_455 S
P192 O203 1.490 . S
P192 C206 1.812 1_554 S
P192 C212 1.803 . S
P192 C218 1.819 . S
H193 C207 0.941 . S
H194 C208 0.939 . S
H195 C210 0.940 . S
H196 C211 0.944 1_554 S
H197 C213 0.939 . S
H198 C214 0.942 . S
H199 C216 0.940 . S
H200 C217 0.953 . S
H201 C219 0.941 . S
H202 C223 0.933 1_565 S
O203 P192 1.490 . S
H204 C220 0.939 . S
H205 C222 0.940 . S
C206 P192 1.812 1_556 S
C206 C207 1.389 . S
C206 C211 1.385 1_545 S
C207 H193 0.941 . S
C207 C206 1.389 . S
C207 C208 1.397 . S
C208 H194 0.939 . S
C208 C207 1.397 . S
C208 C209 1.378 . S
C209 C208 1.378 . S
C209 C210 1.378 1_545 S
C210 H195 0.940 . S
C210 C209 1.378 1_565 S
C210 C211 1.399 . S
C211 H196 0.944 1_556 S
C211 C206 1.385 1_565 S
C211 C210 1.399 . S
C212 P192 1.803 . S
C212 C213 1.378 . S
C212 C217 1.379 1_545 S
C213 H197 0.939 . S
C213 C212 1.378 . S
C213 C214 1.361 . S
C214 H198 0.942 . S
C214 C213 1.361 . S
C214 C215 1.369 . S
C215 C214 1.369 . S
C215 C216 1.404 1_545 S
C216 H199 0.940 . S
C216 C215 1.404 1_565 S
C216 C217 1.398 . S
C217 H200 0.953 . S
C217 C212 1.379 1_565 S
C217 C216 1.398 . S
C218 P192 1.819 . S
C218 C219 1.391 . S
C218 C223 1.391 . S
C219 H201 0.941 . S
C219 C218 1.391 . S
C219 C220 1.396 . S
C220 H204 0.939 . S
C220 C219 1.396 . S
C220 C221 1.397 . S
C221 C220 1.397 . S
C221 C222 1.385 1_545 S
C222 H205 0.940 . S
C222 C221 1.385 1_565 S
C222 C223 1.388 1_565 S
C223 H202 0.933 1_545 S
C223 C218 1.391 . S
C223 C222 1.388 1_545 S
P224 O235 1.490 . S
P224 C238 1.812 1_554 S
P224 C244 1.803 . S
P224 C250 1.819 . S
H225 C239 0.941 . S
H226 C240 0.939 . S
H227 C242 0.940 . S
H228 C243 0.940 1_554 S
H229 C245 0.939 . S
H230 C246 0.942 . S
H231 C248 0.940 . S
H232 C249 0.939 . S
H233 C251 0.941 . S
H234 C255 0.939 . S
O235 P224 1.490 . S
H236 C252 0.939 . S
H237 C254 0.940 . S
C238 P224 1.812 1_556 S
C238 C239 1.389 . S
C238 C243 1.391 . S
C239 H225 0.941 . S
C239 C238 1.389 . S
C239 C240 1.397 . S
C240 H226 0.939 . S
C240 C239 1.397 . S
C240 C241 1.378 . S
C241 C240 1.378 . S
C241 C242 1.378 . S
C242 H227 0.940 . S
C242 C241 1.378 . S
C242 C243 1.396 . S
C243 H228 0.940 1_556 S
C243 C238 1.391 . S
C243 C242 1.396 . S
C244 P224 1.803 . S
C244 C245 1.378 . S
C244 C249 1.400 . S
C245 H229 0.939 . S
C245 C244 1.378 . S
C245 C246 1.361 . S
C246 H230 0.942 . S
C246 C245 1.361 . S
C246 C247 1.369 . S
C247 C246 1.369 . S
C247 C248 1.404 . S
C248 H231 0.940 . S
C248 C247 1.404 . S
C248 C249 1.389 . S
C249 H232 0.939 . S
C249 C244 1.400 . S
C249 C248 1.389 . S
C250 P224 1.819 . S
C250 C251 1.391 . S
C250 C255 1.391 . S
C251 H233 0.941 . S
C251 C250 1.391 . S
C251 C252 1.396 . S
C252 H236 0.939 . S
C252 C251 1.396 . S
C252 C253 1.397 . S
C253 C252 1.397 . S
C253 C254 1.385 . S
C254 H237 0.940 . S
C254 C253 1.385 . S
C254 C255 1.388 . S
C255 H234 0.939 . S
C255 C250 1.391 . S
C255 C254 1.388 . S
C256 Eu257 2.835 . S
C256 C258 1.500 . S
C256 O276 1.257 . S
C256 O277 1.260 . S
Eu257 C256 2.835 . S
Eu257 O276 2.473 . S
Eu257 O277 2.480 . S
Eu257 O278 2.430 . S
Eu257 O279 2.670 1_545 S
Eu257 O280 2.394 . S
Eu257 O285 2.355 1_655 S
Eu257 O287 2.374 1_545 S
C258 C256 1.500 . S
C258 C259 1.377 . S
C258 C263 1.377 . S
C259 C258 1.377 . S
C259 C260 1.395 . S
C259 H288 0.931 . S
C260 C259 1.395 . S
C260 C261 1.383 . S
C260 H289 0.931 . S
C261 C260 1.383 . S
C261 C262 1.394 . S
C262 C261 1.394 . S
C262 C263 1.378 . S
C262 H290 0.931 1_655 S
C263 C258 1.377 . S
C263 C262 1.378 . S
C263 H291 0.931 1_655 S
C264 O278 1.259 . S
C264 O279 1.270 1_545 S
C265 O280 1.251 1_455 S
C265 O281 1.251 . S
C266 Eu267 2.835 . S
C266 C268 1.500 . S
C266 O282 1.257 . S
C266 O283 1.260 . S
Eu267 C266 2.835 . S
Eu267 O279 2.355 1_455 S
Eu267 O281 2.374 1_565 S
Eu267 O282 2.473 . S
Eu267 O283 2.480 . S
Eu267 O284 2.430 . S
Eu267 O285 2.670 1_565 S
Eu267 O286 2.394 . S
C268 C266 1.500 . S
C268 C269 1.377 . S
C268 C273 1.377 . S
C269 C268 1.377 . S
C269 C270 1.395 . S
C269 H292 0.931 . S
C270 C269 1.395 . S
C270 C271 1.383 . S
C270 H293 0.931 . S
C271 C270 1.383 . S
C271 C272 1.394 . S
C272 C271 1.394 . S
C272 C273 1.378 . S
C272 H294 0.931 1_455 S
C273 C268 1.377 . S
C273 C272 1.378 . S
C273 H295 0.931 1_455 S
C274 O284 1.282 . S
C274 O285 1.254 1_565 S
C275 O286 1.251 1_655 S
C275 O287 1.251 . S
O276 C256 1.257 . S
O276 Eu257 2.473 . S
O277 C256 1.260 . S
O277 Eu257 2.480 . S
O278 Eu257 2.430 . S
O278 C264 1.259 . S
O279 Eu257 2.670 1_565 S
O279 C264 1.270 1_565 S
O279 Eu267 2.355 1_655 S
O280 Eu257 2.394 . S
O280 C265 1.251 1_655 S
O281 C265 1.251 . S
O281 Eu267 2.374 1_545 S
O282 C266 1.257 . S
O282 Eu267 2.473 . S
O283 C266 1.260 . S
O283 Eu267 2.480 . S
O284 Eu267 2.430 . S
O284 C274 1.282 . S
O285 Eu257 2.355 1_455 S
O285 Eu267 2.670 1_545 S
O285 C274 1.254 1_545 S
O286 Eu267 2.394 . S
O286 C275 1.251 1_455 S
O287 Eu257 2.374 1_565 S
O287 C275 1.251 . S
H288 C259 0.931 . S
H289 C260 0.931 . S
H290 C262 0.931 1_455 S
H291 C263 0.931 1_455 S
H292 C269 0.931 . S
H293 C270 0.931 . S
H294 C272 0.931 1_655 S
H295 C273 0.931 1_655 S
C296 Eu297 2.835 . S
C296 C298 1.500 . S
C296 O316 1.257 . S
C296 O317 1.260 . S
Eu297 C296 2.835 . S
Eu297 O316 2.473 . S
Eu297 O317 2.480 . S
Eu297 O318 2.430 . S
Eu297 O319 2.670 . S
Eu297 O320 2.394 . S
Eu297 O325 2.355 1_565 S
Eu297 O327 2.374 . S
C298 C296 1.500 . S
C298 C299 1.377 . S
C298 C303 1.377 . S
C299 C298 1.377 . S
C299 C300 1.395 . S
C299 H328 0.931 . S
C300 C299 1.395 . S
C300 C301 1.383 . S
C300 H329 0.931 . S
C301 C300 1.383 . S
C301 C302 1.394 . S
C302 C301 1.394 . S
C302 C303 1.378 . S
C302 H330 0.931 1_565 S
C303 C298 1.377 . S
C303 C302 1.378 . S
C303 H331 0.931 1_565 S
C304 O318 1.259 . S
C304 O319 1.270 . S
C305 O320 1.251 1_545 S
C305 O321 1.251 . S
C306 Eu307 2.835 . S
C306 C308 1.500 . S
C306 O322 1.257 . S
C306 O323 1.260 . S
Eu307 C306 2.835 . S
Eu307 O319 2.355 1_545 S
Eu307 O321 2.374 . S
Eu307 O322 2.473 . S
Eu307 O323 2.480 . S
Eu307 O324 2.430 . S
Eu307 O325 2.670 . S
Eu307 O326 2.394 . S
C308 C306 1.500 . S
C308 C309 1.377 . S
C308 C313 1.377 . S
C309 C308 1.377 . S
C309 C310 1.395 . S
C309 H332 0.931 . S
C310 C309 1.395 . S
C310 C311 1.383 . S
C310 H333 0.931 . S
C311 C310 1.383 . S
C311 C312 1.394 . S
C312 C311 1.394 . S
C312 C313 1.378 . S
C312 H334 0.931 1_545 S
C313 C308 1.377 . S
C313 C312 1.378 . S
C313 H335 0.931 1_545 S
C314 O324 1.259 . S
C314 O325 1.270 . S
C315 O326 1.251 1_565 S
C315 O327 1.251 . S
O316 C296 1.257 . S
O316 Eu297 2.473 . S
O317 C296 1.260 . S
O317 Eu297 2.480 . S
O318 Eu297 2.430 . S
O318 C304 1.259 . S
O319 Eu297 2.670 . S
O319 C304 1.270 . S
O319 Eu307 2.355 1_565 S
O320 Eu297 2.394 . S
O320 C305 1.251 1_565 S
O321 C305 1.251 . S
O321 Eu307 2.374 . S
O322 C306 1.257 . S
O322 Eu307 2.473 . S
O323 C306 1.260 . S
O323 Eu307 2.480 . S
O324 Eu307 2.430 . S
O324 C314 1.259 . S
O325 Eu297 2.355 1_545 S
O325 Eu307 2.670 . S
O325 C314 1.270 . S
O326 Eu307 2.394 . S
O326 C315 1.251 1_545 S
O327 Eu297 2.374 . S
O327 C315 1.251 . S
H328 C299 0.931 . S
H329 C300 0.931 . S
H330 C302 0.931 1_545 S
H331 C303 0.931 1_545 S
H332 C309 0.931 . S
H333 C310 0.931 . S
H334 C312 0.931 1_565 S
H335 C313 0.931 1_565 S
C336 Eu337 2.835 . S
C336 C338 1.500 . S
C336 O356 1.257 . S
C336 O357 1.260 . S
Eu337 C336 2.835 . S
Eu337 O356 2.473 . S
Eu337 O357 2.480 . S
Eu337 O358 2.430 . S
Eu337 O359 2.670 . S
Eu337 O360 2.394 . S
Eu337 O365 2.355 . S
Eu337 O367 2.374 . S
C338 C336 1.500 . S
C338 C339 1.377 . S
C338 C343 1.377 . S
C339 C338 1.377 . S
C339 C340 1.395 . S
C339 H368 0.931 . S
C340 C339 1.395 . S
C340 C341 1.383 . S
C340 H369 0.931 . S
C341 C340 1.383 . S
C341 C342 1.394 . S
C342 C341 1.394 . S
C342 C343 1.378 . S
C342 H370 0.931 . S
C343 C338 1.377 . S
C343 C342 1.378 . S
C343 H371 0.931 . S
C344 O358 1.259 . S
C344 O359 1.270 . S
C345 O360 1.251 . S
C345 O361 1.251 . S
C346 Eu347 2.835 . S
C346 C348 1.500 . S
C346 O362 1.257 . S
C346 O363 1.260 . S
Eu347 C346 2.835 . S
Eu347 O359 2.355 . S
Eu347 O361 2.374 . S
Eu347 O362 2.473 . S
Eu347 O363 2.480 . S
Eu347 O364 2.430 . S
Eu347 O365 2.670 . S
Eu347 O366 2.394 . S
C348 C346 1.500 . S
C348 C349 1.377 . S
C348 C353 1.377 . S
C349 C348 1.377 . S
C349 C350 1.395 . S
C349 H372 0.931 . S
C350 C349 1.395 . S
C350 C351 1.383 . S
C350 H373 0.931 . S
C351 C350 1.383 . S
C351 C352 1.394 . S
C352 C351 1.394 . S
C352 C353 1.378 . S
C352 H374 0.931 . S
C353 C348 1.377 . S
C353 C352 1.378 . S
C353 H375 0.931 . S
C354 O364 1.259 . S
C354 O365 1.270 . S
C355 O366 1.251 . S
C355 O367 1.251 . S
O356 C336 1.257 . S
O356 Eu337 2.473 . S
O357 C336 1.260 . S
O357 Eu337 2.480 . S
O358 Eu337 2.430 . S
O358 C344 1.259 . S
O359 Eu337 2.670 . S
O359 C344 1.270 . S
O359 Eu347 2.355 . S
O360 Eu337 2.394 . S
O360 C345 1.251 . S
O361 C345 1.251 . S
O361 Eu347 2.374 . S
O362 C346 1.257 . S
O362 Eu347 2.473 . S
O363 C346 1.260 . S
O363 Eu347 2.480 . S
O364 Eu347 2.430 . S
O364 C354 1.259 . S
O365 Eu337 2.355 . S
O365 Eu347 2.670 . S
O365 C354 1.270 . S
O366 Eu347 2.394 . S
O366 C355 1.251 . S
O367 Eu337 2.374 . S
O367 C355 1.251 . S
H368 C339 0.931 . S
H369 C340 0.931 . S
H370 C342 0.931 . S
H371 C343 0.931 . S
H372 C349 0.931 . S
H373 C350 0.931 . S
H374 C352 0.931 . S
H375 C353 0.931 . S
C376 Eu377 2.835 . S
C376 C378 1.500 . S
C376 O396 1.257 . S
C376 O397 1.260 . S
Eu377 C376 2.835 . S
Eu377 O396 2.473 . S
Eu377 O397 2.480 . S
Eu377 O398 2.430 . S
Eu377 O399 2.670 1_455 S
Eu377 O400 2.394 . S
Eu377 O405 2.355 . S
Eu377 O407 2.374 1_455 S
C378 C376 1.500 . S
C378 C379 1.377 . S
C378 C383 1.377 . S
C379 C378 1.377 . S
C379 C380 1.395 . S
C379 H408 0.931 . S
C380 C379 1.395 . S
C380 C381 1.383 . S
C380 H409 0.931 . S
C381 C380 1.383 . S
C381 C382 1.394 . S
C382 C381 1.394 . S
C382 C383 1.378 . S
C382 H410 0.931 . S
C383 C378 1.377 . S
C383 C382 1.378 . S
C383 H411 0.931 . S
C384 O398 1.266 . S
C384 O399 1.265 1_455 S
C385 O400 1.251 . S
C385 O401 1.251 . S
C386 Eu387 2.835 . S
C386 C388 1.500 . S
C386 O402 1.257 . S
C386 O403 1.260 . S
Eu387 C386 2.835 . S
Eu387 O399 2.355 . S
Eu387 O401 2.374 1_655 S
Eu387 O402 2.473 . S
Eu387 O403 2.480 . S
Eu387 O404 2.430 . S
Eu387 O405 2.670 1_655 S
Eu387 O406 2.394 . S
C388 C386 1.500 . S
C388 C389 1.377 . S
C388 C393 1.377 . S
C389 C388 1.377 . S
C389 C390 1.395 . S
C389 H412 0.931 . S
C390 C389 1.395 . S
C390 C391 1.383 . S
C390 H413 0.931 . S
C391 C390 1.383 . S
C391 C392 1.394 . S
C392 C391 1.394 . S
C392 C393 1.378 . S
C392 H414 0.931 . S
C393 C388 1.377 . S
C393 C392 1.378 . S
C393 H415 0.931 . S
C394 O404 1.261 . S
C394 O405 1.269 1_655 S
C395 O406 1.251 . S
C395 O407 1.251 . S
O396 C376 1.257 . S
O396 Eu377 2.473 . S
O397 C376 1.260 . S
O397 Eu377 2.480 . S
O398 Eu377 2.430 . S
O398 C384 1.266 . S
O399 Eu377 2.670 1_655 S
O399 C384 1.265 1_655 S
O399 Eu387 2.355 . S
O400 Eu377 2.394 . S
O400 C385 1.251 . S
O401 C385 1.251 . S
O401 Eu387 2.374 1_455 S
O402 C386 1.257 . S
O402 Eu387 2.473 . S
O403 C386 1.260 . S
O403 Eu387 2.480 . S
O404 Eu387 2.430 . S
O404 C394 1.261 . S
O405 Eu377 2.355 . S
O405 Eu387 2.670 1_455 S
O405 C394 1.269 1_455 S
O406 Eu387 2.394 . S
O406 C395 1.251 . S
O407 Eu377 2.374 1_655 S
O407 C395 1.251 . S
H408 C379 0.931 . S
H409 C380 0.931 . S
H410 C382 0.931 . S
H411 C383 0.931 . S
H412 C389 0.931 . S
H413 C390 0.931 . S
H414 C392 0.931 . S
H415 C393 0.931 . S
H416 C422 0.930 . S
H417 C426 0.930 . S
H418 C431 0.929 . S
H419 C429 0.929 . S
H420 C424 0.929 . S
H421 C430 0.929 . S
C422 H416 0.930 . S
C422 C423 1.387 . S
C422 C430 1.378 . S
C423 C422 1.387 . S
C423 C431 1.413 1_545 S
C424 H420 0.929 . S
C424 C426 1.378 . S
C424 C428 1.359 . S
C425 C428 1.461 1_545 S
C425 C430 1.383 . S
C425 N433 1.394 1_545 S
C426 H417 0.930 . S
C426 C424 1.378 . S
C426 C427 1.364 . S
C427 C426 1.364 . S
C427 C429 1.436 1_565 S
C428 C424 1.359 . S
C428 C425 1.461 1_565 S
C428 N432 1.418 1_565 S
C429 H419 0.929 . S
C429 C427 1.436 1_545 S
C429 N432 1.384 . S
C430 H421 0.929 . S
C430 C422 1.378 . S
C430 C425 1.383 . S
C431 H418 0.929 . S
C431 C423 1.413 1_565 S
C431 N433 1.384 . S
N432 C428 1.418 1_545 S
N432 C429 1.384 . S
N433 C425 1.394 1_565 S
N433 C431 1.384 . S
H434 C440 0.930 . S
H435 C444 0.930 . S
H436 C449 0.929 . S
H437 C447 0.929 . S
H438 C442 0.929 . S
H439 C448 0.929 . S
C440 H434 0.930 . S
C440 C441 1.367 . S
C440 C448 1.378 . S
C441 C440 1.367 . S
C441 C449 1.433 . S
C442 H438 0.929 . S
C442 C444 1.378 . S
C442 C446 1.350 . S
C443 C446 1.463 . S
C443 C448 1.350 . S
C443 N451 1.427 . S
C444 H435 0.930 . S
C444 C442 1.378 . S
C444 C445 1.367 . S
C445 C444 1.367 . S
C445 C447 1.433 . S
C446 C442 1.350 . S
C446 C443 1.463 . S
C446 N450 1.427 . S
C447 H437 0.929 . S
C447 C445 1.433 . S
C447 N450 1.384 . S
C448 H439 0.929 . S
C448 C440 1.378 . S
C448 C443 1.350 . S
C449 H436 0.929 . S
C449 C441 1.433 . S
C449 N451 1.384 . S
N450 C446 1.427 . S
N450 C447 1.384 . S
N451 C443 1.427 . S
N451 C449 1.384 . S
H452 C458 0.930 . S
H453 C462 0.930 . S
H454 C467 0.929 . S
H455 C465 0.929 . S
H456 C460 0.929 . S
H457 C466 0.929 . S
C458 H452 0.930 . S
C458 C459 1.367 . S
C458 C466 1.378 . S
C459 C458 1.367 . S
C459 C467 1.433 . S
C460 H456 0.929 . S
C460 C462 1.378 . S
C460 C464 1.350 . S
C461 C464 1.463 . S
C461 C466 1.350 . S
C461 N469 1.427 . S
C462 H453 0.930 . S
C462 C460 1.378 . S
C462 C463 1.367 . S
C463 C462 1.367 . S
C463 C465 1.433 . S
C464 C460 1.350 . S
C464 C461 1.463 . S
C464 N468 1.427 . S
C465 H455 0.929 . S
C465 C463 1.433 . S
C465 N468 1.384 . S
C466 H457 0.929 . S
C466 C458 1.378 . S
C466 C461 1.350 . S
C467 H454 0.929 . S
C467 C459 1.433 . S
C467 N469 1.384 . S
N468 C464 1.427 . S
N468 C465 1.384 . S
N469 C461 1.427 . S
N469 C467 1.384 . S
H470 C476 0.930 . S
H471 C480 0.930 . S
H472 C485 0.929 . S
H473 C483 0.929 . S
H474 C478 0.929 . S
H475 C484 0.929 . S
C476 H470 0.930 . S
C476 C477 1.383 . S
C476 C484 1.378 . S
C477 C476 1.383 . S
C477 C485 1.418 1_455 S
C478 H474 0.929 . S
C478 C480 1.378 . S
C478 C482 1.344 1_655 S
C479 C482 1.463 . S
C479 C484 1.350 . S
C479 N487 1.427 1_455 S
C480 H471 0.930 . S
C480 C478 1.378 . S
C480 C481 1.346 1_655 S
C481 C480 1.346 1_455 S
C481 C483 1.455 . S
C482 C478 1.344 1_455 S
C482 C479 1.463 . S
C482 N486 1.434 . S
C483 H473 0.929 . S
C483 C481 1.455 . S
C483 N486 1.384 . S
C484 H475 0.929 . S
C484 C476 1.378 . S
C484 C479 1.350 . S
C485 H472 0.929 . S
C485 C477 1.418 1_655 S
C485 N487 1.384 . S
N486 C482 1.434 . S
N486 C483 1.384 . S
N487 C479 1.427 1_655 S
N487 C485 1.384 . S
H488 C494 0.930 . S
H489 C498 0.930 . S
H490 C503 0.929 . S
H491 C501 0.929 . S
H492 C496 0.929 . S
H493 C502 0.929 . S
C494 H488 0.930 . S
C494 C495 1.378 . S
C494 C502 1.378 . S
C495 C494 1.378 . S
C495 C503 1.422 1_545 S
C496 H492 0.929 . S
C496 C498 1.378 . S
C496 C500 1.369 1_556 S
C497 C500 1.461 1_545 S
C497 C502 1.364 . S
C497 N505 1.414 1_545 S
C498 H489 0.930 . S
C498 C496 1.378 . S
C498 C499 1.384 . S
C499 C498 1.384 . S
C499 C501 1.416 1_565 S
C500 C496 1.369 1_554 S
C500 C497 1.461 1_565 S
C500 N504 1.408 1_565 S
C501 H491 0.929 . S
C501 C499 1.416 1_545 S
C501 N504 1.384 1_556 S
C502 H493 0.929 . S
C502 C494 1.378 . S
C502 C497 1.364 . S
C503 H490 0.929 . S
C503 C495 1.422 1_565 S
C503 N505 1.384 . S
N504 C500 1.408 1_545 S
N504 C501 1.384 1_554 S
N505 C497 1.414 1_565 S
N505 C503 1.384 . S
H506 C512 0.930 . S
H507 C516 0.930 . S
H508 C521 0.929 . S
H509 C519 0.929 . S
H510 C514 0.929 . S
H511 C520 0.929 . S
C512 H506 0.930 . S
C512 C513 1.367 . S
C512 C520 1.378 . S
C513 C512 1.367 . S
C513 C521 1.433 . S
C514 H510 0.929 . S
C514 C516 1.378 . S
C514 C518 1.350 1_556 S
C515 C518 1.463 . S
C515 C520 1.350 . S
C515 N523 1.427 . S
C516 H507 0.930 . S
C516 C514 1.378 . S
C516 C517 1.367 . S
C517 C516 1.367 . S
C517 C519 1.433 . S
C518 C514 1.350 1_554 S
C518 C515 1.463 . S
C518 N522 1.427 . S
C519 H509 0.929 . S
C519 C517 1.433 . S
C519 N522 1.384 1_556 S
C520 H511 0.929 . S
C520 C512 1.378 . S
C520 C515 1.350 . S
C521 H508 0.929 . S
C521 C513 1.433 . S
C521 N523 1.384 . S
N522 C518 1.427 . S
N522 C519 1.384 1_554 S
N523 C515 1.427 . S
N523 C521 1.384 . S
H524 C530 0.930 . S
H525 C534 0.930 . S
H526 C539 0.929 . S
H527 C537 0.929 . S
H528 C532 0.929 1_554 S
H529 C538 0.929 . S
C530 H524 0.930 . S
C530 C531 1.367 . S
C530 C538 1.378 . S
C531 C530 1.367 . S
C531 C539 1.433 . S
C532 H528 0.929 1_556 S
C532 C534 1.378 . S
C532 C536 1.350 1_556 S
C533 C536 1.463 . S
C533 C538 1.350 . S
C533 N541 1.427 . S
C534 H525 0.930 . S
C534 C532 1.378 . S
C534 C535 1.367 . S
C535 C534 1.367 . S
C535 C537 1.433 . S
C536 C532 1.350 1_554 S
C536 C533 1.463 . S
C536 N540 1.427 1_554 S
C537 H527 0.929 . S
C537 C535 1.433 . S
C537 N540 1.384 . S
C538 H529 0.929 . S
C538 C530 1.378 . S
C538 C533 1.350 . S
C539 H526 0.929 . S
C539 C531 1.433 . S
C539 N541 1.384 . S
N540 C536 1.427 1_556 S
N540 C537 1.384 . S
N541 C533 1.427 . S
N541 C539 1.384 . S
H542 C548 0.930 . S
H543 C552 0.930 . S
H544 C557 0.929 . S
H545 C555 0.929 . S
H546 C550 0.921 1_554 S
H547 C556 0.929 . S
C548 H542 0.930 . S
C548 C549 1.368 . S
C548 C556 1.378 . S
C549 C548 1.368 . S
C549 C557 1.432 1_455 S
C550 H546 0.921 1_556 S
C550 C552 1.388 . S
C550 C554 1.348 1_556 S
C551 C554 1.462 . S
C551 C556 1.353 1_655 S
C551 N559 1.424 . S
C552 H543 0.930 . S
C552 C550 1.388 . S
C552 C553 1.367 . S
C553 C552 1.367 . S
C553 C555 1.433 1_655 S
C554 C550 1.348 1_554 S
C554 C551 1.462 . S
C554 N558 1.427 1_654 S
C555 H545 0.929 . S
C555 C553 1.433 1_455 S
C555 N558 1.384 . S
C556 H547 0.929 . S
C556 C548 1.378 . S
C556 C551 1.353 1_455 S
C557 H544 0.929 . S
C557 C549 1.432 1_655 S
C557 N559 1.384 . S
N558 C554 1.427 1_456 S
N558 C555 1.384 . S
N559 C551 1.424 . S
N559 C557 1.384 . S
H560 C566 0.930 . S
H561 C570 0.930 . S
H562 C575 0.929 . S
H563 C573 0.929 . S
H564 C568 0.929 . S
H565 C574 0.929 . S
C566 H560 0.930 . S
C566 C567 1.367 . S
C566 C574 1.378 1_455 S
C567 C566 1.367 . S
C567 C575 1.433 1_455 S
C568 H564 0.929 . S
C568 C570 1.378 . S
C568 C572 1.350 . S
C569 C572 1.463 . S
C569 C574 1.350 . S
C569 N577 1.427 . S
C570 H561 0.930 . S
C570 C568 1.378 . S
C570 C571 1.367 . S
C571 C570 1.367 . S
C571 C573 1.433 . S
C572 C568 1.350 . S
C572 C569 1.463 . S
C572 N576 1.427 . S
C573 H563 0.929 . S
C573 C571 1.433 . S
C573 N576 1.384 . S
C574 H565 0.929 . S
C574 C566 1.378 1_655 S
C574 C569 1.350 . S
C575 H562 0.929 . S
C575 C567 1.433 1_655 S
C575 N577 1.384 . S
N576 C572 1.427 . S
N576 C573 1.384 . S
N577 C569 1.427 . S
N577 C575 1.384 . S
H578 C584 0.930 . S
H579 C588 0.930 . S
H580 C593 0.929 . S
H581 C591 0.929 . S
H582 C586 0.929 . S
H583 C592 0.929 . S
C584 H578 0.930 . S
C584 C585 1.367 1_565 S
C584 C592 1.378 . S
C585 C584 1.367 1_545 S
C585 C593 1.433 . S
C586 H582 0.929 . S
C586 C588 1.378 . S
C586 C590 1.350 . S
C587 C590 1.463 . S
C587 C592 1.350 . S
C587 N595 1.428 1_565 S
C588 H579 0.930 . S
C588 C586 1.378 . S
C588 C589 1.367 . S
C589 C588 1.367 . S
C589 C591 1.433 . S
C590 C586 1.350 . S
C590 C587 1.463 . S
C590 N594 1.427 . S
C591 H581 0.929 . S
C591 C589 1.433 . S
C591 N594 1.384 . S
C592 H583 0.929 . S
C592 C584 1.378 . S
C592 C587 1.350 . S
C593 H580 0.929 . S
C593 C585 1.433 . S
C593 N595 1.383 . S
N594 C590 1.427 . S
N594 C591 1.384 . S
N595 C587 1.428 1_545 S
N595 C593 1.383 . S
H596 C602 0.930 . S
H597 C606 0.930 . S
H598 C611 0.929 . S
H599 C609 0.929 . S
H600 C604 0.929 . S
H601 C610 0.929 . S
C602 H596 0.930 . S
C602 C603 1.367 . S
C602 C610 1.378 . S
C603 C602 1.367 . S
C603 C611 1.433 . S
C604 H600 0.929 . S
C604 C606 1.378 . S
C604 C608 1.350 . S
C605 C608 1.463 . S
C605 C610 1.350 . S
C605 N613 1.427 . S
C606 H597 0.930 . S
C606 C604 1.378 . S
C606 C607 1.367 . S
C607 C606 1.367 . S
C607 C609 1.433 . S
C608 C604 1.350 . S
C608 C605 1.463 . S
C608 N612 1.427 . S
C609 H599 0.929 . S
C609 C607 1.433 . S
C609 N612 1.384 . S
C610 H601 0.929 . S
C610 C602 1.378 . S
C610 C605 1.350 . S
C611 H598 0.929 . S
C611 C603 1.433 . S
C611 N613 1.384 . S
N612 C608 1.427 . S
N612 C609 1.384 . S
N613 C605 1.427 . S
N613 C611 1.384 . S
H614 C620 0.930 . S
H615 C624 0.930 . S
H616 C629 0.929 . S
H617 C627 0.929 . S
H618 C622 0.929 . S
H619 C628 0.929 . S
C620 H614 0.930 . S
C620 C621 1.367 . S
C620 C628 1.378 . S
C621 C620 1.367 . S
C621 C629 1.433 . S
C622 H618 0.929 . S
C622 C624 1.378 . S
C622 C626 1.350 . S
C623 C626 1.463 . S
C623 C628 1.350 . S
C623 N631 1.427 . S
C624 H615 0.930 . S
C624 C622 1.378 . S
C624 C625 1.367 . S
C625 C624 1.367 . S
C625 C627 1.433 . S
C626 C622 1.350 . S
C626 C623 1.463 . S
C626 N630 1.427 . S
C627 H617 0.929 . S
C627 C625 1.433 . S
C627 N630 1.384 . S
C628 H619 0.929 . S
C628 C620 1.378 . S
C628 C623 1.350 . S
C629 H616 0.929 . S
C629 C621 1.433 . S
C629 N631 1.384 . S
N630 C626 1.427 . S
N630 C627 1.384 . S
N631 C623 1.427 . S
N631 C629 1.384 . S
H632 C638 0.930 . S
H633 C642 0.930 . S
H634 C647 0.929 . S
H635 C645 0.929 . S
H636 C640 0.929 . S
H637 C646 0.929 . S
C638 H632 0.930 . S
C638 C639 1.367 . S
C638 C646 1.378 1_655 S
C639 C638 1.367 . S
C639 C647 1.433 1_655 S
C640 H636 0.929 . S
C640 C642 1.378 . S
C640 C644 1.350 1_556 S
C641 C644 1.463 . S
C641 C646 1.350 . S
C641 N649 1.427 . S
C642 H633 0.930 . S
C642 C640 1.378 . S
C642 C643 1.367 . S
C643 C642 1.367 . S
C643 C645 1.433 1_556 S
C644 C640 1.350 1_554 S
C644 C641 1.463 . S
C644 N648 1.427 . S
C645 H635 0.929 . S
C645 C643 1.433 1_554 S
C645 N648 1.384 . S
C646 H637 0.929 . S
C646 C638 1.378 1_455 S
C646 C641 1.350 . S
C647 H634 0.929 . S
C647 C639 1.433 1_455 S
C647 N649 1.384 . S
N648 C644 1.427 . S
N648 C645 1.384 . S
N649 C641 1.427 . S
N649 C647 1.384 . S
H650 C656 0.925 1_565 S
H651 C660 0.930 . S
H652 C665 0.929 1_565 S
H653 C663 0.929 . S
H654 C658 0.929 . S
H655 C664 0.929 . S
C656 H650 0.925 1_545 S
C656 C657 1.367 1_545 S
C656 C664 1.378 . S
C657 C656 1.367 1_565 S
C657 C665 1.433 1_565 S
C658 H654 0.929 . S
C658 C660 1.378 . S
C658 C662 1.350 1_556 S
C659 C662 1.463 . S
C659 C664 1.350 . S
C659 N667 1.427 . S
C660 H651 0.930 . S
C660 C658 1.378 . S
C660 C661 1.367 . S
C661 C660 1.367 . S
C661 C663 1.433 1_556 S
C662 C658 1.350 1_554 S
C662 C659 1.463 . S
C662 N666 1.427 . S
C663 H653 0.929 . S
C663 C661 1.433 1_554 S
C663 N666 1.384 . S
C664 H655 0.929 . S
C664 C656 1.378 . S
C664 C659 1.350 . S
C665 H652 0.929 1_545 S
C665 C657 1.433 1_545 S
C665 N667 1.384 . S
N666 C662 1.427 . S
N666 C663 1.384 . S
N667 C659 1.427 . S
N667 C665 1.384 . S
H668 C674 0.930 . S
H669 C678 0.930 . S
H670 C683 0.929 . S
H671 C681 0.929 . S
H672 C676 0.929 . S
H673 C682 0.929 . S
C674 H668 0.930 . S
C674 C675 1.367 . S
C674 C682 1.378 . S
C675 C674 1.367 . S
C675 C683 1.433 . S
C676 H672 0.929 . S
C676 C678 1.378 . S
C676 C680 1.350 . S
C677 C680 1.463 . S
C677 C682 1.350 . S
C677 N685 1.427 . S
C678 H669 0.930 . S
C678 C676 1.378 . S
C678 C679 1.367 1_554 S
C679 C678 1.367 1_556 S
C679 C681 1.433 . S
C680 C676 1.350 . S
C680 C677 1.463 . S
C680 N684 1.427 1_554 S
C681 H671 0.929 . S
C681 C679 1.433 . S
C681 N684 1.384 . S
C682 H673 0.929 . S
C682 C674 1.378 . S
C682 C677 1.350 . S
C683 H670 0.929 . S
C683 C675 1.433 . S
C683 N685 1.384 . S
N684 C680 1.427 1_556 S
N684 C681 1.384 . S
N685 C677 1.427 . S
N685 C683 1.384 . S
H686 C692 0.930 . S
H687 C696 0.930 . S
H688 C701 0.929 . S
H689 C699 0.929 . S
H690 C694 0.929 . S
H691 C700 0.929 . S
C692 H686 0.930 . S
C692 C693 1.367 . S
C692 C700 1.378 . S
C693 C692 1.367 . S
C693 C701 1.433 . S
C694 H690 0.929 . S
C694 C696 1.378 . S
C694 C698 1.350 1_556 S
C695 C698 1.463 . S
C695 C700 1.350 . S
C695 N703 1.427 . S
C696 H687 0.930 . S
C696 C694 1.378 . S
C696 C697 1.367 . S
C697 C696 1.367 . S
C697 C699 1.433 1_556 S
C698 C694 1.350 1_554 S
C698 C695 1.463 . S
C698 N702 1.427 . S
C699 H689 0.929 . S
C699 C697 1.433 1_554 S
C699 N702 1.384 . S
C700 H691 0.929 . S
C700 C692 1.378 . S
C700 C695 1.350 . S
C701 H688 0.929 . S
C701 C693 1.433 . S
C701 N703 1.384 . S
N702 C698 1.427 . S
N702 C699 1.384 . S
N703 C695 1.427 . S
N703 C701 1.384 . S
H704 C710 0.930 1_655 S
H705 C714 0.930 . S
H706 C719 0.929 . S
H707 C717 0.929 . S
H708 C712 0.929 . S
H709 C718 0.929 . S
C710 H704 0.930 1_455 S
C710 C711 1.367 . S
C710 C718 1.378 . S
C711 C710 1.367 . S
C711 C719 1.433 . S
C712 H708 0.929 . S
C712 C714 1.378 . S
C712 C716 1.350 . S
C713 C716 1.463 . S
C713 C718 1.350 . S
C713 N721 1.427 . S
C714 H705 0.930 . S
C714 C712 1.378 . S
C714 C715 1.367 . S
C715 C714 1.367 . S
C715 C717 1.433 . S
C716 C712 1.350 . S
C716 C713 1.463 . S
C716 N720 1.427 . S
C717 H707 0.929 . S
C717 C715 1.433 . S
C717 N720 1.384 . S
C718 H709 0.929 . S
C718 C710 1.378 . S
C718 C713 1.350 . S
C719 H706 0.929 . S
C719 C711 1.433 . S
C719 N721 1.384 . S
N720 C716 1.427 . S
N720 C717 1.384 . S
N721 C713 1.427 . S
N721 C719 1.384 . S
H722 C728 0.930 . S
H723 C732 0.923 1_565 S
H724 C737 0.929 . S
H725 C735 0.929 . S
H726 C730 0.945 . S
H727 C736 0.929 . S
C728 H722 0.930 . S
C728 C729 1.367 . S
C728 C736 1.378 . S
C729 C728 1.367 . S
C729 C737 1.433 1_545 S
C730 H726 0.945 . S
C730 C732 1.376 1_565 S
C730 C734 1.337 1_565 S
C731 C734 1.463 . S
C731 C736 1.350 . S
C731 N739 1.427 1_545 S
C732 H723 0.923 1_545 S
C732 C730 1.376 1_545 S
C732 C733 1.376 . S
C733 C732 1.376 . S
C733 C735 1.433 . S
C734 C730 1.337 1_545 S
C734 C731 1.463 . S
C734 N738 1.427 . S
C735 H725 0.929 . S
C735 C733 1.433 . S
C735 N738 1.384 . S
C736 H727 0.929 . S
C736 C728 1.378 . S
C736 C731 1.350 . S
C737 H724 0.929 . S
C737 C729 1.433 1_565 S
C737 N739 1.384 . S
N738 C734 1.427 . S
N738 C735 1.384 . S
N739 C731 1.427 1_565 S
N739 C737 1.384 . S
H740 C746 0.930 . S
H741 C750 0.930 . S
H742 C755 0.929 . S
H743 C753 0.929 . S
H744 C748 0.929 . S
H745 C754 0.929 . S
C746 H740 0.930 . S
C746 C747 1.367 . S
C746 C754 1.378 . S
C747 C746 1.367 . S
C747 C755 1.433 . S
C748 H744 0.929 . S
C748 C750 1.378 . S
C748 C752 1.350 . S
C749 C752 1.463 . S
C749 C754 1.350 . S
C749 N757 1.427 . S
C750 H741 0.930 . S
C750 C748 1.378 . S
C750 C751 1.367 . S
C751 C750 1.367 . S
C751 C753 1.433 . S
C752 C748 1.350 . S
C752 C749 1.463 . S
C752 N756 1.427 . S
C753 H743 0.929 . S
C753 C751 1.433 . S
C753 N756 1.384 . S
C754 H745 0.929 . S
C754 C746 1.378 . S
C754 C749 1.350 . S
C755 H742 0.929 . S
C755 C747 1.433 . S
C755 N757 1.384 . S
N756 C752 1.427 . S
N756 C753 1.384 . S
N757 C749 1.427 . S
N757 C755 1.384 . S
H758 C764 0.930 . S
H759 C768 0.930 . S
H760 C773 0.929 . S
H761 C771 0.929 . S
H762 C766 0.929 . S
H763 C772 0.929 . S
C764 H758 0.930 . S
C764 C765 1.367 . S
C764 C772 1.378 . S
C765 C764 1.367 . S
C765 C773 1.433 . S
C766 H762 0.929 . S
C766 C768 1.378 . S
C766 C770 1.350 . S
C767 C770 1.463 . S
C767 C772 1.350 . S
C767 N775 1.427 . S
C768 H759 0.930 . S
C768 C766 1.378 . S
C768 C769 1.367 . S
C769 C768 1.367 . S
C769 C771 1.433 . S
C770 C766 1.350 . S
C770 C767 1.463 . S
C770 N774 1.427 . S
C771 H761 0.929 . S
C771 C769 1.433 . S
C771 N774 1.384 . S
C772 H763 0.929 . S
C772 C764 1.378 . S
C772 C767 1.350 . S
C773 H760 0.929 . S
C773 C765 1.433 . S
C773 N775 1.384 . S
N774 C770 1.427 . S
N774 C771 1.384 . S
N775 C767 1.427 . S
N775 C773 1.384 . S
H776 C782 0.930 . S
H777 C786 0.930 . S
H778 C791 0.929 . S
H779 C789 0.929 . S
H780 C784 0.929 . S
H781 C790 0.929 . S
C782 H776 0.930 . S
C782 C783 1.367 . S
C782 C790 1.378 . S
C783 C782 1.367 . S
C783 C791 1.433 1_655 S
C784 H780 0.929 . S
C784 C786 1.378 . S
C784 C788 1.350 1_455 S
C785 C788 1.463 . S
C785 C790 1.350 . S
C785 N793 1.427 1_655 S
C786 H777 0.930 . S
C786 C784 1.378 . S
C786 C787 1.367 1_455 S
C787 C786 1.367 1_655 S
C787 C789 1.433 . S
C788 C784 1.350 1_655 S
C788 C785 1.463 . S
C788 N792 1.427 . S
C789 H779 0.929 . S
C789 C787 1.433 . S
C789 N792 1.384 . S
C790 H781 0.929 . S
C790 C782 1.378 . S
C790 C785 1.350 . S
C791 H778 0.929 . S
C791 C783 1.433 1_455 S
C791 N793 1.384 . S
N792 C788 1.427 . S
N792 C789 1.384 . S
N793 C785 1.427 1_455 S
N793 C791 1.384 . S
H794 C800 0.930 . S
H795 C804 0.930 . S
H796 C809 0.929 . S
H797 C807 0.929 . S
H798 C802 0.929 . S
H799 C808 0.929 . S
C800 H794 0.930 . S
C800 C801 1.367 . S
C800 C808 1.378 . S
C801 C800 1.367 . S
C801 C809 1.433 1_565 S
C802 H798 0.929 . S
C802 C804 1.378 . S
C802 C806 1.350 1_545 S
C803 C806 1.463 . S
C803 C808 1.350 . S
C803 N811 1.427 1_565 S
C804 H795 0.930 . S
C804 C802 1.378 . S
C804 C805 1.367 1_545 S
C805 C804 1.367 1_565 S
C805 C807 1.433 . S
C806 C802 1.350 1_565 S
C806 C803 1.463 . S
C806 N810 1.427 . S
C807 H797 0.929 . S
C807 C805 1.433 . S
C807 N810 1.384 . S
C808 H799 0.929 . S
C808 C800 1.378 . S
C808 C803 1.350 . S
C809 H796 0.929 . S
C809 C801 1.433 1_545 S
C809 N811 1.384 . S
N810 C806 1.427 . S
N810 C807 1.384 . S
N811 C803 1.427 1_545 S
N811 C809 1.384 . S
H812 C818 0.930 . S
H813 C822 0.930 . S
H814 C827 0.929 . S
H815 C825 0.929 . S
H816 C820 0.929 . S
H817 C826 0.929 . S
C818 H812 0.930 . S
C818 C819 1.367 . S
C818 C826 1.378 . S
C819 C818 1.367 . S
C819 C827 1.433 . S
C820 H816 0.929 . S
C820 C822 1.378 . S
C820 C824 1.350 . S
C821 C824 1.463 . S
C821 C826 1.350 . S
C821 N829 1.427 . S
C822 H813 0.930 . S
C822 C820 1.378 . S
C822 C823 1.367 . S
C823 C822 1.367 . S
C823 C825 1.433 . S
C824 C820 1.350 . S
C824 C821 1.463 . S
C824 N828 1.427 . S
C825 H815 0.929 . S
C825 C823 1.433 . S
C825 N828 1.384 . S
C826 H817 0.929 . S
C826 C818 1.378 . S
C826 C821 1.350 . S
C827 H814 0.929 . S
C827 C819 1.433 . S
C827 N829 1.384 . S
N828 C824 1.427 . S
N828 C825 1.384 . S
N829 C821 1.427 . S
N829 C827 1.384 . S
H830 C836 0.930 . S
H831 C840 0.930 . S
H832 C845 0.929 . S
H833 C843 0.929 . S
H834 C838 0.929 . S
H835 C844 0.929 . S
C836 H830 0.930 . S
C836 C837 1.367 . S
C836 C844 1.378 . S
C837 C836 1.367 . S
C837 C845 1.433 . S
C838 H834 0.929 . S
C838 C840 1.378 . S
C838 C842 1.350 . S
C839 C842 1.463 . S
C839 C844 1.350 . S
C839 N847 1.427 . S
C840 H831 0.930 . S
C840 C838 1.378 . S
C840 C841 1.367 . S
C841 C840 1.367 . S
C841 C843 1.433 . S
C842 C838 1.350 . S
C842 C839 1.463 . S
C842 N846 1.427 . S
C843 H833 0.929 . S
C843 C841 1.433 . S
C843 N846 1.384 . S
C844 H835 0.929 . S
C844 C836 1.378 . S
C844 C839 1.350 . S
C845 H832 0.929 . S
C845 C837 1.433 . S
C845 N847 1.384 . S
N846 C842 1.427 . S
N846 C843 1.384 . S
N847 C839 1.427 . S
N847 C845 1.384 . S
C423 C215 2.046 . S
C427 C274 2.220 . S
C445 C314 2.240 . S
C441 C247 2.053 . S
C463 C354 2.242 . S
C459 C151 2.048 . S
C481 C394 2.228 1_455 S
C477 C183 2.044 . S
C499 C264 2.224 1_565 S
C495 C87 2.050 . S
C513 C119 2.074 . S
C517 C304 2.242 . S
C531 C23 2.076 . S
C535 C344 2.242 . S
C549 C55 2.044 . S
C553 C384 2.230 1_655 S
C571 C261 0.427 . S
C567 C189 0.341 . S
C589 C301 0.417 . S
C585 C221 0.363 . S
C607 C341 0.439 . S
C603 C253 0.374 . S
C621 C157 0.370 . S
C625 C381 0.415 . S
C639 C61 0.524 1_655 S
C643 C271 0.424 . S
C661 C311 0.426 . S
C657 C93 0.511 1_565 S
C679 C351 0.432 . S
C675 C125 0.525 . S
C693 C29 0.517 . S
C697 C391 0.430 . S
C711 C177 2.504 . S
C715 C265 2.807 . S
C729 C209 2.471 . S
C733 C305 2.778 . S
C751 C345 2.766 . S
C747 C241 2.453 . S
C769 C385 2.800 . S
C765 C145 2.491 . S
C783 C49 2.537 1_655 S
C787 C275 2.815 . S
C805 C315 2.777 . S
C801 C81 2.501 1_565 S
C823 C355 2.762 . S
C819 C113 2.493 . S
C837 C17 2.532 . S
C841 C395 2.805 . S
