# Generated by pormake.
# Topology pyr, (3,6)-cn, num edge types: 1
# Building blocks:
#     Node 0, Type 0, BuildingBlock: BETDAH_clean_linker_0, # of connection points: 3
#     Node 1, Type 0, BuildingBlock: BETDAH_clean_linker_0, # of connection points: 3
#     Node 2, Type 0, BuildingBlock: BETDAH_clean_linker_0, # of connection points: 3
#     Node 3, Type 0, BuildingBlock: BETDAH_clean_linker_0, # of connection points: 3
#     Node 4, Type 0, BuildingBlock: BETDAH_clean_linker_0, # of connection points: 3
#     Node 5, Type 0, BuildingBlock: BETDAH_clean_linker_0, # of connection points: 3
#     Node 6, Type 0, BuildingBlock: BETDAH_clean_linker_0, # of connection points: 3
#     Node 7, Type 0, BuildingBlock: BETDAH_clean_linker_0, # of connection points: 3
#     Node 8, Type 1, BuildingBlock: PAMTUU_clean_sbu_0, # of connection points: 6
#     Node 9, Type 1, BuildingBlock: PAMTUU_clean_sbu_0, # of connection points: 6
#     Node 10, Type 1, BuildingBlock: PAMTUU_clean_sbu_0, # of connection points: 6
#     Node 11, Type 1, BuildingBlock: PAMTUU_clean_sbu_0, # of connection points: 6
#     Edge 12, Type (0, 1), BuildingBlock: ZUJKAS_clean_linker_0, # of connection points: 2
#     Edge 13, Type (0, 1), BuildingBlock: ZUJKAS_clean_linker_0, # of connection points: 2
#     Edge 14, Type (0, 1), BuildingBlock: ZUJKAS_clean_linker_0, # of connection points: 2
#     Edge 15, Type (0, 1), BuildingBlock: ZUJKAS_clean_linker_0, # of connection points: 2
#     Edge 16, Type (0, 1), BuildingBlock: ZUJKAS_clean_linker_0, # of connection points: 2
#     Edge 17, Type (0, 1), BuildingBlock: ZUJKAS_clean_linker_0, # of connection points: 2
#     Edge 18, Type (0, 1), BuildingBlock: ZUJKAS_clean_linker_0, # of connection points: 2
#     Edge 19, Type (0, 1), BuildingBlock: ZUJKAS_clean_linker_0, # of connection points: 2
#     Edge 20, Type (0, 1), BuildingBlock: ZUJKAS_clean_linker_0, # of connection points: 2
#     Edge 21, Type (0, 1), BuildingBlock: ZUJKAS_clean_linker_0, # of connection points: 2
#     Edge 22, Type (0, 1), BuildingBlock: ZUJKAS_clean_linker_0, # of connection points: 2
#     Edge 23, Type (0, 1), BuildingBlock: ZUJKAS_clean_linker_0, # of connection points: 2
#     Edge 24, Type (0, 1), BuildingBlock: ZUJKAS_clean_linker_0, # of connection points: 2
#     Edge 25, Type (0, 1), BuildingBlock: ZUJKAS_clean_linker_0, # of connection points: 2
#     Edge 26, Type (0, 1), BuildingBlock: ZUJKAS_clean_linker_0, # of connection points: 2
#     Edge 27, Type (0, 1), BuildingBlock: ZUJKAS_clean_linker_0, # of connection points: 2
#     Edge 28, Type (0, 1), BuildingBlock: ZUJKAS_clean_linker_0, # of connection points: 2
#     Edge 29, Type (0, 1), BuildingBlock: ZUJKAS_clean_linker_0, # of connection points: 2
#     Edge 30, Type (0, 1), BuildingBlock: ZUJKAS_clean_linker_0, # of connection points: 2
#     Edge 31, Type (0, 1), BuildingBlock: ZUJKAS_clean_linker_0, # of connection points: 2
#     Edge 32, Type (0, 1), BuildingBlock: ZUJKAS_clean_linker_0, # of connection points: 2
#     Edge 33, Type (0, 1), BuildingBlock: ZUJKAS_clean_linker_0, # of connection points: 2
#     Edge 34, Type (0, 1), BuildingBlock: ZUJKAS_clean_linker_0, # of connection points: 2
#     Edge 35, Type (0, 1), BuildingBlock: ZUJKAS_clean_linker_0, # of connection points: 2
# Relax obj value: 0.100
# Max RMSD: 0.172
# Mean RMSD: 0.133
data_MOF--net-pyr--node1-PAMTUU_clean_sbu_0--node2-BETDAH_clean_linker_0--edge1-ZUJKAS_clean_linker_0
_symmetry_space_group_name_H-M    P1
_symmetry_Int_Tables_number       1
_symmetry_cell_setting            triclinic
loop_
_symmetry_equiv_pos_as_xyz
'x, y, z'
_cell_length_a     48.520039
_cell_length_b     50.529867
_cell_length_c     50.103565
_cell_angle_alpha  90.43358
_cell_angle_beta   89.852597
_cell_angle_gamma 105.37598
loop_
_atom_site_label
_atom_site_type_symbol
_atom_site_fract_x
_atom_site_fract_y
_atom_site_fract_z
_atom_type_partial_charge
H0 H 0.33488 0.23125 0.23801 0.0
H1 H 0.37389 0.29238 0.18029 0.0
H2 H 0.30042 0.30018 0.22452 0.0
C3 C 0.33572 0.25034 0.22791 0.0
C4 C 0.31536 0.26477 0.23396 0.0
C5 C 0.35691 0.26008 0.2086 0.0
C6 C 0.3579 0.28478 0.19552 0.0
C7 C 0.33731 0.29898 0.2007 0.0
C8 C 0.31604 0.28895 0.22 0.0
N9 N 0.33826 0.323 0.18585 0.0
C10 C 0.31451 0.33296 0.18206 0.0
H11 H 0.27059 0.79755 0.74614 0.0
H12 H 0.19578 0.82758 0.74139 0.0
H13 H 0.2081 0.7675 0.68465 0.0
C14 C 0.25027 0.79694 0.73685 0.0
C15 C 0.24147 0.78036 0.71421 0.0
C16 C 0.23383 0.8138 0.74697 0.0
C17 C 0.20853 0.81452 0.7338 0.0
C18 C 0.19924 0.79769 0.71133 0.0
C19 C 0.21549 0.78042 0.70195 0.0
N20 N 0.17368 0.79768 0.69771 0.0
C21 C 0.1633 0.82072 0.69614 0.0
H22 H 0.71051 0.37541 0.91577 0.0
H23 H 0.70232 0.4404 0.86346 0.0
H24 H 0.63494 0.36563 0.86826 0.0
C25 C 0.69829 0.38343 0.90132 0.0
C26 C 0.67143 0.367 0.8933 0.0
C27 C 0.70964 0.41012 0.89124 0.0
C28 C 0.69429 0.41981 0.87113 0.0
C29 C 0.66734 0.40343 0.86258 0.0
C30 C 0.65617 0.37744 0.87403 0.0
N31 N 0.64877 0.41336 0.84558 0.0
C32 C 0.65565 0.43024 0.82321 0.0
H33 H 0.83706 0.73984 0.41549 0.0
H34 H 0.91476 0.74917 0.3709 0.0
H35 H 0.8463 0.67597 0.36125 0.0
C36 C 0.84922 0.73242 0.40037 0.0
C37 C 0.83769 0.70631 0.38871 0.0
C38 C 0.8769 0.74833 0.3941 0.0
C39 C 0.89321 0.73756 0.37582 0.0
C40 C 0.88226 0.71182 0.36361 0.0
C41 C 0.85441 0.69619 0.37001 0.0
N42 N 0.90147 0.70089 0.34827 0.0
C43 C 0.89629 0.6879 0.32339 0.0
H44 H 0.78108 0.80856 0.85526 0.0
H45 H 0.72136 0.77633 0.91807 0.0
H46 H 0.70064 0.82926 0.8591 0.0
C47 C 0.7606 0.80674 0.8648 0.0
C48 C 0.74159 0.82051 0.85402 0.0
C49 C 0.75364 0.79083 0.8879 0.0
C50 C 0.72702 0.78837 0.9001 0.0
C51 C 0.7082 0.80266 0.89019 0.0
C52 C 0.71551 0.81875 0.86713 0.0
N53 N 0.68215 0.80058 0.90393 0.0
C54 C 0.66883 0.82174 0.90475 0.0
H55 H 0.83115 0.23146 0.35768 0.0
H56 H 0.86981 0.28901 0.41944 0.0
H57 H 0.80064 0.30259 0.37314 0.0
C58 C 0.83229 0.25003 0.36907 0.0
C59 C 0.81335 0.26593 0.36309 0.0
C60 C 0.8527 0.25791 0.38948 0.0
C61 C 0.85468 0.28268 0.40325 0.0
C62 C 0.83604 0.29877 0.39756 0.0
C63 C 0.81534 0.29035 0.37744 0.0
N64 N 0.8382 0.32292 0.41293 0.0
C65 C 0.81542 0.33433 0.4168 0.0
H66 H 0.33985 0.74147 0.18396 0.0
H67 H 0.34652 0.68359 0.24504 0.0
H68 H 0.4142 0.75735 0.23397 0.0
C69 C 0.35155 0.73547 0.20019 0.0
C70 C 0.37832 0.75274 0.20737 0.0
C71 C 0.33965 0.7105 0.21353 0.0
C72 C 0.35522 0.70272 0.23467 0.0
C73 C 0.38213 0.71996 0.24222 0.0
C74 C 0.39328 0.7446 0.22839 0.0
N75 N 0.39963 0.71357 0.26278 0.0
C76 C 0.39297 0.69319 0.28228 0.0
H77 H 0.21164 0.37446 0.68451 0.0
H78 H 0.20194 0.43767 0.73935 0.0
H79 H 0.13311 0.36487 0.72776 0.0
C80 C 0.19896 0.38204 0.69905 0.0
C81 C 0.17121 0.36614 0.7049 0.0
C82 C 0.21038 0.40788 0.71118 0.0
C83 C 0.19368 0.41768 0.73013 0.0
C84 C 0.16583 0.40181 0.7364 0.0
C85 C 0.15487 0.37642 0.72351 0.0
N86 N 0.14692 0.41141 0.75344 0.0
C87 C 0.15383 0.42822 0.77602 0.0
Tb88 Tb 0.0515 0.05949 0.53076 0.0
Tb89 Tb 0.99833 0.05244 0.5729 0.0
C90 C 0.99929 1.00738 0.52934 0.0
C91 C 0.10421 0.08463 0.47615 0.0
C92 C 0.12784 0.12076 0.43451 0.0
C93 C 0.12616 0.09262 0.43238 0.0
C94 C 0.1145 0.07476 0.45303 0.0
C95 C 0.10557 0.11269 0.47836 0.0
C96 C 0.11749 0.13066 0.45774 0.0
C97 C 0.09155 0.06512 0.49724 0.0
O98 O 0.01809 0.07277 0.51018 0.0
O99 O 0.99734 0.08628 0.54699 0.0
O100 O 0.03386 0.08494 0.58846 0.0
O101 O 0.05745 0.09975 0.54947 0.0
O102 O 0.95483 0.04936 0.57924 0.0
O103 O 0.98372 0.05148 0.61246 0.0
O104 O 0.02007 0.02198 0.58462 0.0
O105 O 0.06428 0.04317 0.56743 0.0
O106 O 0.02725 0.01664 0.52837 0.0
O107 O 0.98357 0.02121 0.54183 0.0
C108 C 1.00202 0.08698 0.52122 0.0
O109 O 0.09519 0.07404 0.52182 0.0
O110 O 0.06548 0.05054 0.4929 0.0
C111 C 0.05193 0.1039 0.57463 0.0
C112 C 0.9353 0.02862 0.61967 0.0
C113 C 0.89233 0.99148 0.64872 0.0
C114 C 0.90304 0.01878 0.65748 0.0
C115 C 0.92425 0.03714 0.64305 0.0
C116 C 0.92497 1.00139 0.61078 0.0
C117 C 0.90359 0.98292 0.62522 0.0
C118 C 0.95738 0.04882 0.60512 0.0
C119 C 0.04784 0.02529 0.58355 0.0
H120 H 0.13433 0.08446 0.4149 0.0
H121 H 0.11353 0.05316 0.45097 0.0
H122 H 0.09742 0.12066 0.49596 0.0
H123 H 0.11836 0.15222 0.45983 0.0
H124 H 0.89539 0.02593 0.67577 0.0
H125 H 0.93212 0.05807 0.65025 0.0
H126 H 0.93336 0.99447 0.59273 0.0
H127 H 0.89571 0.96207 0.61789 0.0
Tb128 Tb 0.55347 0.06089 0.0643 0.0
Tb129 Tb 0.49751 0.05292 0.02536 0.0
C130 C 0.54575 0.02471 1.01204 0.0
C131 C 0.61063 0.08776 0.11447 0.0
C132 C 0.63675 0.1251 0.15472 0.0
C133 C 0.64517 0.10085 0.15025 0.0
C134 C 0.6322 0.08236 0.13028 0.0
C135 C 0.60229 0.11204 0.11855 0.0
C136 C 0.61535 0.13066 0.1385 0.0
C137 C 0.59631 0.06735 0.09459 0.0
O138 O 0.55795 0.10078 0.04588 0.0
O139 O 0.53187 0.08547 1.00818 0.0
O140 O 0.49706 0.08659 0.05217 0.0
O141 O 0.52251 0.076 0.08711 0.0
O142 O 0.48088 0.05205 0.98676 0.0
O143 O 0.45335 0.04843 0.02127 0.0
O144 O 0.48451 0.02215 0.05675 0.0
O145 O 0.52878 0.01839 0.06919 0.0
O146 O 0.5634 0.0432 0.02689 0.0
O147 O 0.51805 0.02176 1.01257 0.0
C148 C 0.55082 0.10464 0.02121 0.0
O149 O 0.57061 0.05318 0.10089 0.0
O150 O 0.59783 0.07551 0.06988 0.0
C151 C 0.50454 0.0888 0.07738 0.0
C152 C 0.43294 0.02654 0.98149 0.0
C153 C 0.39242 0.98842 0.95061 0.0
C154 C 0.38692 0.01306 0.9593 0.0
C155 C 0.40704 0.03195 0.97456 0.0
C156 C 0.43817 1.00156 0.97379 0.0
C157 C 0.41805 0.98264 0.95844 0.0
C158 C 0.4547 0.04796 0.9953 0.0
C159 C 0.50079 1.00896 0.06904 0.0
H160 H 0.66188 0.09621 0.16214 0.0
H161 H 0.63883 0.06368 0.12736 0.0
H162 H 0.58547 0.11638 0.10656 0.0
H163 H 0.60829 0.14906 0.14162 0.0
H164 H 0.36719 0.01791 0.95402 0.0
H165 H 0.40264 0.0511 0.98046 0.0
H166 H 0.45809 0.99703 0.97903 0.0
H167 H 0.42305 0.96396 0.9519 0.0
Tb168 Tb 0.52063 0.52815 0.53407 0.0
Tb169 Tb 0.52773 0.58655 0.56534 0.0
C170 C 0.49543 0.57482 0.51064 0.0
C171 C 0.53823 0.4681 0.50336 0.0
C172 C 0.58022 0.44142 0.48893 0.0
C173 C 0.55383 0.43536 0.47549 0.0
C174 C 0.533 0.44862 0.48268 0.0
C175 C 0.56431 0.47394 0.51712 0.0
C176 C 0.5851 0.46063 0.51003 0.0
C177 C 0.51744 0.48382 0.50906 0.0
O178 O 0.56565 0.55007 0.52986 0.0
O179 O 0.56153 0.59392 0.53535 0.0
O180 O 0.55697 0.56723 0.586 0.0
O181 O 0.5365 0.52244 0.57384 0.0
O182 O 0.5337 0.62921 0.56365 0.0
O183 O 0.52961 0.60844 0.60142 0.0
O184 O 0.49153 0.55765 0.58388 0.0
O185 O 0.4782 0.52571 0.55033 0.0
O186 O 0.50885 0.5559 0.50571 0.0
O187 O 0.4951 0.58495 0.53485 0.0
C188 C 0.57566 0.57669 0.52662 0.0
O189 O 0.51001 0.48501 0.53395 0.0
O190 O 0.52303 0.50779 0.49786 0.0
C191 C 0.55319 0.54072 0.58966 0.0
C192 C 0.5073 0.64392 0.59733 0.0
C193 C 0.46277 0.66601 0.61471 0.0
C194 C 0.49002 0.6746 0.62647 0.0
C195 C 0.51215 0.66365 0.61779 0.0
C196 C 0.48015 0.63531 0.58553 0.0
C197 C 0.45812 0.64635 0.59405 0.0
C198 C 0.52996 0.6312 0.58928 0.0
C199 C 0.47278 0.53679 0.57293 0.0
H200 H 0.54937 0.42048 0.45933 0.0
H201 H 0.51303 0.44406 0.47176 0.0
H202 H 0.56883 0.48923 0.53293 0.0
H203 H 0.60535 0.46602 0.52051 0.0
H204 H 0.49425 0.68985 0.64231 0.0
H205 H 0.53293 0.67035 0.62723 0.0
H206 H 0.47588 0.61977 0.56996 0.0
H207 H 0.43726 0.63904 0.58489 0.0
Tb208 Tb 0.03084 0.58685 0.03558 0.0
Tb209 Tb 0.02305 0.52855 0.06613 0.0
C210 C 0.05666 0.54124 1.01132 0.0
C211 C 0.01182 0.64442 1.00333 0.0
C212 C 0.96901 0.66865 0.9862 0.0
C213 C 0.99807 0.68169 0.98161 0.0
C214 C 0.01932 0.66964 0.99014 0.0
C215 C 0.98292 0.6313 1.00796 0.0
C216 C 0.96169 0.64331 0.99948 0.0
C217 C 0.03398 0.63158 1.0121 0.0
O218 O 0.9952 0.55771 1.01599 0.0
O219 O 0.98082 0.52671 0.04971 0.0
O220 O 0.01129 0.55655 0.09463 0.0
O221 O 0.99761 0.58522 0.06553 0.0
O222 O 0.01243 0.48541 0.06531 0.0
O223 O 0.02426 0.50784 0.10204 0.0
O224 O 0.06802 0.55036 0.07152 0.0
O225 O 0.06416 0.59423 0.06608 0.0
O226 O 0.06086 0.5677 1.01579 0.0
O227 O 0.03919 0.52294 0.02631 0.0
C228 C 0.97596 0.53727 0.02682 0.0
O229 O 0.0363 0.62944 0.03783 0.0
O230 O 0.03415 0.60883 0.99981 0.0
C231 C 0.99782 0.57535 0.08969 0.0
C232 C 0.03957 0.46814 0.09622 0.0
C233 C 0.08051 0.44048 0.11084 0.0
C234 C 0.05283 0.43286 0.12183 0.0
C235 C 0.03252 0.44662 0.11456 0.0
C236 C 0.06697 0.47557 0.08487 0.0
C237 C 0.08726 0.46182 0.09207 0.0
C238 C 0.01901 0.48396 0.09035 0.0
C239 C 0.07809 0.57701 0.07497 0.0
H240 H 1.00438 0.70135 0.97168 0.0
H241 H 0.04157 0.68 0.98646 0.0
H242 H 0.9768 0.6117 1.01803 0.0
H243 H 0.93953 0.63256 1.00298 0.0
H244 H 0.0469 0.41633 0.13611 0.0
H245 H 0.01147 0.44075 0.12358 0.0
H246 H 0.07283 0.49237 0.07086 0.0
H247 H 0.10849 0.46844 0.08353 0.0
H248 H 0.32279 0.24408 0.28273 0.0
H249 H 0.28601 0.22275 0.31511 0.0
H250 H 0.22125 0.24019 0.26463 0.0
H251 H 0.258 0.26139 0.23183 0.0
H252 H 0.21627 0.25079 0.32218 0.0
H253 H 0.22836 0.14692 0.29867 0.0
H254 H 0.26132 0.17198 0.30629 0.0
H255 H 0.24154 0.17592 0.27698 0.0
C256 C 0.30072 0.24336 0.27847 0.0
C257 C 0.29324 0.25408 0.25456 0.0
C258 C 0.27978 0.23126 0.29702 0.0
C259 C 0.25095 0.22958 0.29202 0.0
C260 C 0.24343 0.24126 0.26875 0.0
H261 H 0.11893 0.11327 0.38089 0.0
H262 H 0.145 0.14172 0.34488 0.0
C263 C 0.26443 0.25341 0.25011 0.0
C264 C 0.22875 0.21449 0.31066 0.0
H265 H 0.2017 0.15113 0.33757 0.0
C266 C 0.21281 0.22896 0.32543 0.0
C267 C 0.22401 0.18595 0.31446 0.0
C268 C 0.2395 0.16917 0.29811 0.0
C269 C 0.19298 0.21571 0.34478 0.0
C270 C 0.1894 0.18743 0.34957 0.0
C271 C 0.20459 0.17285 0.33401 0.0
C272 C 0.17093 0.17252 0.37122 0.0
C273 C 0.17608 0.23208 0.35986 0.0
C274 C 0.17657 0.18059 0.39796 0.0
C275 C 0.16167 0.16437 0.41857 0.0
C276 C 0.14116 0.13962 0.41276 0.0
C277 C 0.13488 0.13208 0.38595 0.0
C278 C 0.14964 0.14837 0.36538 0.0
H279 H 0.17464 0.25047 0.3485 0.0
H280 H 0.15412 0.21942 0.36427 0.0
H281 H 0.18694 0.23924 0.37907 0.0
H282 H 0.19338 0.19878 0.40297 0.0
H283 H 0.16719 0.17052 0.43905 0.0
H284 H 0.25333 0.79787 0.7934 0.0
H285 H 0.27529 0.82693 0.83097 0.0
H286 H 0.25974 0.89748 0.7921 0.0
H287 H 0.23749 0.86837 0.75445 0.0
H288 H 0.32351 0.86975 0.82614 0.0
H289 H 0.23443 0.90645 0.86873 0.0
H290 H 0.22858 0.87738 0.84625 0.0
H291 H 0.23949 0.91172 0.83345 0.0
C292 C 0.25428 0.81953 0.79303 0.0
C293 C 0.24386 0.83092 0.77098 0.0
C294 C 0.26674 0.83607 0.81452 0.0
C295 C 0.26896 0.8643 0.81442 0.0
C296 C 0.25772 0.87564 0.79283 0.0
H297 H 0.36392 1.00217 0.90815 0.0
H298 H 0.33265 0.97133 0.87649 0.0
C299 C 0.24508 0.85902 0.77132 0.0
C300 C 0.28541 0.8821 0.83571 0.0
H301 H 0.28124 0.9284 0.88453 0.0
C302 C 0.31421 0.8824 0.83906 0.0
C303 C 0.27323 0.89869 0.85239 0.0
C304 C 0.24217 0.89844 0.85025 0.0
C305 C 0.33133 0.89918 0.85837 0.0
C306 C 0.31919 0.91578 0.87505 0.0
C307 C 0.2904 0.91552 0.87174 0.0
C308 C 0.33643 0.93416 0.89547 0.0
C309 C 0.36249 0.89957 0.86028 0.0
C310 C 0.34841 0.9234 0.91693 0.0
C311 C 0.36623 0.94097 0.93515 0.0
C312 C 0.37221 0.9696 0.93229 0.0
C313 C 0.35948 0.98023 0.91115 0.0
C314 C 0.34169 0.96267 0.89296 0.0
H315 H 0.36989 0.89049 0.84226 0.0
H316 H 0.37609 0.92087 0.86297 0.0
H317 H 0.36564 0.88744 0.87783 0.0
H318 H 0.3442 0.90141 0.91941 0.0
H319 H 0.37535 0.93215 0.95145 0.0
H320 H 0.64512 0.40708 0.77443 0.0
H321 H 0.63173 0.42788 0.73401 0.0
H322 H 0.64479 0.50517 0.77571 0.0
H323 H 0.65823 0.48426 0.81619 0.0
H324 H 0.58498 0.45066 0.73065 0.0
H325 H 0.68518 0.52848 0.70387 0.0
H326 H 0.68466 0.50031 0.72601 0.0
H327 H 0.67385 0.52963 0.73794 0.0
C328 C 0.64596 0.42873 0.7747 0.0
C329 C 0.65332 0.44421 0.79825 0.0
C330 C 0.63807 0.44057 0.75164 0.0
C331 C 0.63745 0.46825 0.75153 0.0
C332 C 0.6456 0.48397 0.77495 0.0
H333 H 0.58047 0.5702 0.63307 0.0
H334 H 0.60074 0.55298 0.67201 0.0
C335 C 0.65337 0.47203 0.7981 0.0
C336 C 0.62614 0.47985 0.72767 0.0
H337 H 0.6436 0.52942 0.67959 0.0
C338 C 0.59788 0.46781 0.71944 0.0
C339 C 0.64272 0.50245 0.71309 0.0
C340 C 0.67337 0.51592 0.72045 0.0
C341 C 0.58571 0.4778 0.69742 0.0
C342 C 0.60244 0.5001 0.68243 0.0
C343 C 0.63067 0.51231 0.69082 0.0
C344 C 0.59102 0.51088 0.65806 0.0
C345 C 0.55468 0.46476 0.69099 0.0
C346 C 0.57934 0.49329 0.63667 0.0
C347 C 0.56749 0.50305 0.61447 0.0
C348 C 0.56739 0.53085 0.6127 0.0
C349 C 0.58007 0.54869 0.63365 0.0
C350 C 0.59171 0.53882 0.65601 0.0
H351 H 0.5428 0.45453 0.70872 0.0
H352 H 0.54397 0.48016 0.6836 0.0
H353 H 0.55326 0.44886 0.67528 0.0
H354 H 0.57927 0.47186 0.63714 0.0
H355 H 0.55831 0.48869 0.59867 0.0
H356 H 0.87661 0.63495 0.30602 0.0
H357 H 0.89011 0.6156 0.26417 0.0
H358 H 0.9389 0.69632 0.24054 0.0
H359 H 0.92538 0.71559 0.28215 0.0
H360 H 0.88559 0.62994 0.20664 0.0
H361 H 0.99723 0.64808 0.24292 0.0
H362 H 0.96776 0.64811 0.26498 0.0
H363 H 0.98265 0.67728 0.24429 0.0
C364 C 0.88962 0.64857 0.29154 0.0
C365 C 0.89972 0.67677 0.29709 0.0
C366 C 0.89743 0.63752 0.2677 0.0
C367 C 0.91579 0.65445 0.24927 0.0
C368 C 0.92493 0.6828 0.25447 0.0
H369 H 0.96858 0.61538 0.08867 0.0
H370 H 0.94745 0.63419 0.12647 0.0
C371 C 0.91701 0.69382 0.27816 0.0
C372 C 0.92684 0.64243 0.22547 0.0
H373 H 0.98808 0.63207 0.19858 0.0
C374 C 0.90798 0.63038 0.20485 0.0
C375 C 0.95603 0.64277 0.22319 0.0
C376 C 0.97715 0.65454 0.24506 0.0
C377 C 0.91761 0.619 0.18195 0.0
C378 C 0.94694 0.61979 0.17947 0.0
C379 C 0.96567 0.63158 0.20028 0.0
C380 C 0.95864 0.60775 0.15599 0.0
C381 C 0.8962 0.60573 0.16083 0.0
C382 C 0.97236 0.58684 0.15983 0.0
C383 C 0.98453 0.57611 0.13829 0.0
C384 C 0.98354 0.58612 0.11224 0.0
C385 C 0.96965 0.60701 0.10836 0.0
C386 C 0.95739 0.61771 0.12999 0.0
H387 H 0.87392 0.60096 0.16847 0.0
H388 H 0.89795 0.61999 0.14379 0.0
H389 H 0.90048 0.58649 0.15326 0.0
H390 H 0.97374 0.57882 0.17963 0.0
H391 H 0.99503 0.56012 0.14221 0.0
H392 H 0.34368 0.20524 0.19798 0.0
H393 H 0.37552 0.17838 0.18216 0.0
H394 H 0.44688 0.25056 0.1857 0.0
H395 H 0.41484 0.27775 0.20115 0.0
H396 H 0.44541 0.22524 0.13934 0.0
H397 H 0.43357 0.14758 0.2184 0.0
H398 H 0.39929 0.14844 0.2058 0.0
H399 H 0.42141 0.17817 0.22262 0.0
C400 C 0.36626 0.21528 0.19593 0.0
C401 C 0.37682 0.24356 0.20092 0.0
C402 C 0.38449 0.19986 0.18701 0.0
C403 C 0.41373 0.21229 0.1833 0.0
C404 C 0.42443 0.24048 0.18865 0.0
H405 H 0.52163 0.1069 0.12812 0.0
H406 H 0.50346 0.1389 0.15575 0.0
C407 C 0.40613 0.256 0.19735 0.0
C408 C 0.43236 0.19634 0.17137 0.0
H409 H 0.44923 0.13502 0.17519 0.0
C410 C 0.44667 0.20576 0.14748 0.0
C411 C 0.43451 0.17115 0.18217 0.0
C412 C 0.42162 0.16093 0.20882 0.0
C413 C 0.46155 0.1899 0.13328 0.0
C414 C 0.4615 0.16364 0.14288 0.0
C415 C 0.4488 0.15496 0.16761 0.0
C416 C 0.47261 0.14418 0.12654 0.0
C417 C 0.47677 0.20128 0.10787 0.0
C418 C 0.46082 0.13611 0.1013 0.0
C419 C 0.47113 0.11801 0.08552 0.0
C420 C 0.49325 0.10728 0.09478 0.0
C421 C 0.50458 0.11482 0.1204 0.0
C422 C 0.49429 0.13311 0.13619 0.0
H423 H 0.48294 0.22409 0.10809 0.0
H424 H 0.49628 0.1941 0.10474 0.0
H425 H 0.46222 0.19434 0.09067 0.0
H426 H 0.44352 0.14379 0.09378 0.0
H427 H 0.46165 0.11241 0.06604 0.0
H428 H 0.19469 0.86994 0.67973 0.0
H429 H 0.17668 0.90886 0.66606 0.0
H430 H 0.09104 0.86334 0.68723 0.0
H431 H 0.10915 0.82451 0.70104 0.0
H432 H 0.13629 0.90403 0.62511 0.0
H433 H 0.09735 0.94016 0.71928 0.0
H434 H 0.12233 0.91925 0.71873 0.0
H435 H 0.08489 0.90382 0.71339 0.0
C436 C 0.17214 0.86862 0.68196 0.0
C437 C 0.15319 0.84459 0.69147 0.0
C438 C 0.16189 0.89074 0.67416 0.0
C439 C 0.13259 0.88909 0.67593 0.0
C440 C 0.11379 0.86526 0.68624 0.0
H441 H 0.02057 0.9812 0.61394 0.0
H442 H 0.04219 0.94956 0.6376 0.0
C443 C 0.12407 0.8431 0.69399 0.0
C444 C 0.12133 0.911 0.66435 0.0
H445 H 0.08331 0.95732 0.67877 0.0
C446 C 0.12496 0.9159 0.63687 0.0
C447 C 0.10636 0.92622 0.67974 0.0
C448 C 0.10265 0.92233 0.70947 0.0
C449 C 0.11344 0.93517 0.6242 0.0
C450 C 0.09839 0.95039 0.63955 0.0
C451 C 0.09491 0.94565 0.66709 0.0
C452 C 0.08564 0.97087 0.62711 0.0
C453 C 0.11669 0.93842 0.59433 0.0
C454 C 0.10299 0.99372 0.61399 0.0
C455 C 0.09073 0.01174 0.60031 0.0
C456 C 0.06088 1.00738 0.59973 0.0
C457 C 0.04363 0.98511 0.61389 0.0
C458 C 0.05593 0.96702 0.62746 0.0
H459 H 0.12235 0.92063 0.58481 0.0
H460 H 0.09669 0.94075 0.5851 0.0
H461 H 0.13406 0.9571 0.5899 0.0
H462 H 0.12602 0.99737 0.61395 0.0
H463 H 0.10468 0.02885 0.58989 0.0
H464 H 0.72406 0.41522 0.94405 0.0
H465 H 0.76961 0.43893 0.96427 0.0
H466 H 0.80234 0.46931 0.88718 0.0
H467 H 0.75654 0.44488 0.86644 0.0
H468 H 0.82472 0.42913 0.9486 0.0
H469 H 0.82236 0.53821 0.93937 0.0
H470 H 0.79017 0.51026 0.93841 0.0
H471 H 0.8138 0.5165 0.91023 0.0
C472 C 0.74088 0.42688 0.93123 0.0
C473 C 0.73664 0.42768 0.90343 0.0
C474 C 0.76694 0.44056 0.94293 0.0
C475 C 0.78951 0.45588 0.92734 0.0
C476 C 0.78518 0.45775 0.8997 0.0
H477 H 0.96123 0.54978 0.97652 0.0
H478 H 0.91697 0.52995 0.95209 0.0
C479 C 0.75895 0.44383 0.88785 0.0
C480 C 0.81777 0.46853 0.94018 0.0
H481 H 0.86283 0.5298 0.95982 0.0
C482 C 0.83312 0.45116 0.95096 0.0
C483 C 0.82883 0.49725 0.94318 0.0
C484 C 0.813 0.5168 0.93237 0.0
C485 C 0.85915 0.46164 0.96459 0.0
C486 C 0.86986 0.49038 0.9684 0.0
C487 C 0.85469 0.50779 0.95717 0.0
C488 C 0.89677 0.50275 0.98378 0.0
C489 C 0.87516 0.44168 0.97422 0.0
C490 C 0.9003 0.49459 1.0101 0.0
C491 C 0.92586 0.50574 0.02411 0.0
C492 C 0.9484 0.5257 1.01236 0.0
C493 C 0.94448 0.5344 0.9863 0.0
C494 C 0.91905 0.52307 0.97223 0.0
H495 H 0.86919 0.42215 0.96265 0.0
H496 H 0.89864 0.45049 0.97267 0.0
H497 H 0.86967 0.43671 0.99544 0.0
H498 H 0.88324 0.4796 0.0199 0.0
H499 H 0.92788 0.49873 0.0442 0.0
H500 H 0.82094 0.65113 0.40052 0.0
H501 H 0.77567 0.62527 0.42053 0.0
H502 H 0.74509 0.69796 0.4194 0.0
H503 H 0.78949 0.72344 0.39845 0.0
H504 H 0.75359 0.63362 0.46821 0.0
H505 H 0.67656 0.64298 0.39018 0.0
H506 H 0.71456 0.65144 0.38411 0.0
H507 H 0.6987 0.67592 0.40005 0.0
C508 C 0.80426 0.6614 0.40384 0.0
C509 C 0.80898 0.68943 0.39781 0.0
C510 C 0.77845 0.64664 0.41554 0.0
C511 C 0.75665 0.65948 0.42128 0.0
C512 C 0.76114 0.68728 0.41472 0.0
H513 H 0.60046 0.6299 0.51212 0.0
H514 H 0.64439 0.64783 0.48667 0.0
C515 C 0.78679 0.70197 0.40297 0.0
C516 C 0.73002 0.64453 0.43561 0.0
H517 H 0.65705 0.63073 0.43389 0.0
C518 C 0.73248 0.63265 0.46049 0.0
C519 C 0.70233 0.64316 0.42566 0.0
C520 C 0.69785 0.65381 0.39841 0.0
C521 C 0.70824 0.62051 0.47606 0.0
C522 C 0.68069 0.62 0.46647 0.0
C523 C 0.67816 0.63128 0.44136 0.0
C524 C 0.65427 0.60872 0.48253 0.0
C525 C 0.71231 0.60919 0.50311 0.0
C526 C 0.64503 0.58065 0.48871 0.0
C527 C 0.61973 0.57023 0.50326 0.0
C528 C 0.60315 0.58768 0.51202 0.0
C529 C 0.61263 0.6158 0.50588 0.0
C530 C 0.63777 0.62613 0.49122 0.0
H531 H 0.73496 0.61575 0.50974 0.0
H532 H 0.6988 0.61587 0.51829 0.0
H533 H 0.70567 0.58643 0.50216 0.0
H534 H 0.65716 0.56672 0.48192 0.0
H535 H 0.61309 0.54846 0.50746 0.0
H536 H 0.27739 0.34417 0.21784 0.0
H537 H 0.23471 0.35995 0.20781 0.0
H538 H 0.25377 0.35889 0.12368 0.0
H539 H 0.29615 0.34292 0.13373 0.0
H540 H 0.23223 0.40784 0.18059 0.0
H541 H 0.16983 0.31435 0.12778 0.0
H542 H 0.20031 0.31458 0.14849 0.0
H543 H 0.20539 0.32754 0.11499 0.0
C544 C 0.27227 0.34729 0.19726 0.0
C545 C 0.2897 0.34244 0.17647 0.0
C546 C 0.248 0.35623 0.19155 0.0
C547 C 0.24087 0.36015 0.16498 0.0
C548 C 0.25856 0.35544 0.14426 0.0
H549 H 0.11941 0.42397 0.07974 0.0
H550 H 0.15749 0.40393 0.09443 0.0
C551 C 0.28279 0.34654 0.14998 0.0
C552 C 0.21554 0.37011 0.15883 0.0
H553 H 0.15325 0.35454 0.12337 0.0
C554 C 0.21478 0.3961 0.16834 0.0
C555 C 0.19286 0.35469 0.14283 0.0
C556 C 0.19191 0.32613 0.13312 0.0
C557 C 0.1924 0.40753 0.16146 0.0
C558 C 0.17003 0.39234 0.145 0.0
C559 C 0.17051 0.36614 0.13592 0.0
C560 C 0.14638 0.40368 0.13629 0.0
C561 C 0.19336 0.43614 0.17108 0.0
C562 C 0.12727 0.40971 0.15494 0.0
C563 C 0.10559 0.42126 0.14663 0.0
C564 C 0.1026 0.42691 0.1195 0.0
C565 C 0.12142 0.42023 0.10081 0.0
C566 C 0.14305 0.40864 0.10914 0.0
H567 H 0.21488 0.44722 0.17859 0.0
H568 H 0.18731 0.44832 0.15482 0.0
H569 H 0.17785 0.43486 0.18764 0.0
H570 H 0.12926 0.40564 0.17595 0.0
H571 H 0.09159 0.42636 0.16154 0.0
H572 H 0.67485 0.3524 0.94577 0.0
H573 H 0.65529 0.3077 0.96633 0.0
H574 H 0.61835 0.27485 0.89099 0.0
H575 H 0.639 0.31923 0.8699 0.0
H576 H 0.60091 0.27783 0.97272 0.0
H577 H 0.65841 0.21766 0.9116 0.0
H578 H 0.66783 0.25468 0.91136 0.0
H579 H 0.63794 0.23524 0.89207 0.0
C580 C 0.66304 0.3356 0.93335 0.0
C581 C 0.65892 0.33956 0.90596 0.0
C582 C 0.6516 0.31001 0.94527 0.0
C583 C 0.63571 0.28759 0.93021 0.0
C584 C 0.63109 0.29154 0.90299 0.0
H585 H 0.54355 0.11924 0.96952 0.0
H586 H 0.56397 0.16343 0.94801 0.0
C587 C 0.64263 0.31713 0.891 0.0
C588 C 0.62348 0.26042 0.94325 0.0
H589 H 0.62181 0.19227 0.94011 0.0
C590 C 0.60563 0.25917 0.96563 0.0
C591 C 0.62954 0.23593 0.93412 0.0
C592 C 0.64969 0.23589 0.91114 0.0
C593 C 0.59339 0.23424 0.97877 0.0
C594 C 0.59939 0.20978 0.96957 0.0
C595 C 0.61715 0.21097 0.94717 0.0
C596 C 0.5873 0.18277 0.98282 0.0
C597 C 0.57363 0.23421 1.00207 0.0
C598 C 0.5939 0.17863 1.00951 0.0
C599 C 0.5823 0.15328 0.02191 0.0
C600 C 0.56382 0.13141 1.00789 0.0
C601 C 0.55758 0.13555 0.98104 0.0
C602 C 0.56928 0.16085 0.96865 0.0
H603 H 0.56568 0.25291 1.00249 0.0
H604 H 0.555 0.21586 1.00141 0.0
H605 H 0.58538 0.23365 0.02094 0.0
H606 H 0.60816 0.195 0.02077 0.0
H607 H 0.58772 0.15092 0.04256 0.0
H608 H 0.8494 0.78782 0.40745 0.0
H609 H 0.86909 0.83174 0.43032 0.0
H610 H 0.95163 0.81514 0.43363 0.0
H611 H 0.93207 0.77086 0.41153 0.0
H612 H 0.89789 0.84091 0.48226 0.0
H613 H 0.96707 0.89283 0.39927 0.0
H614 H 0.93763 0.86273 0.39414 0.0
H615 H 0.97067 0.85944 0.40793 0.0
C616 C 0.87171 0.79332 0.4132 0.0
C617 C 0.88908 0.77561 0.40746 0.0
C618 C 0.88296 0.81857 0.42617 0.0
C619 C 0.91191 0.8269 0.43344 0.0
C620 C 0.92934 0.80937 0.4278 0.0
H621 H 0.0253 0.97025 0.50779 0.0
H622 H 1.00308 0.92672 0.48554 0.0
C623 C 0.91808 0.78405 0.41501 0.0
C624 C 0.9238 0.85366 0.44739 0.0
H625 H 0.97229 0.91615 0.44082 0.0
C626 C 0.91404 0.85745 0.47318 0.0
C627 C 0.94495 0.87518 0.43556 0.0
C628 C 0.95562 0.87258 0.40762 0.0
C629 C 0.9254 0.88187 0.48775 0.0
C630 C 0.94658 0.90348 0.47592 0.0
C631 C 0.9561 0.8997 0.44998 0.0
C632 C 0.95972 0.92989 0.49022 0.0
C633 C 0.91526 0.88384 0.516 0.0
C634 C 0.94288 0.94649 0.50028 0.0
C635 C 0.95557 0.97144 0.51332 0.0
C636 C 0.98545 0.98057 0.51623 0.0
C637 C 1.00224 0.96398 0.50595 0.0
C638 C 0.98954 0.93901 0.49315 0.0
H639 H 0.90558 0.86323 0.52455 0.0
H640 H 0.93309 0.89486 0.52912 0.0
H641 H 0.89867 0.89531 0.51613 0.0
H642 H 0.9199 0.94038 0.49773 0.0
H643 H 0.94197 0.98374 0.52074 0.0
H644 H 0.27263 0.7509 0.74078 0.0
H645 H 0.3084 0.72986 0.72208 0.0
H646 H 0.28829 0.75181 0.64286 0.0
H647 H 0.25339 0.77399 0.66146 0.0
H648 H 0.30542 0.68832 0.68534 0.0
H649 H 0.37381 0.78725 0.64778 0.0
H650 H 0.34441 0.78545 0.67041 0.0
H651 H 0.33782 0.77865 0.6354 0.0
C652 C 0.27586 0.75132 0.71937 0.0
C653 C 0.26041 0.76445 0.70265 0.0
C654 C 0.29617 0.73913 0.70872 0.0
C655 C 0.30141 0.73981 0.68116 0.0
C656 C 0.28501 0.75161 0.66425 0.0
H657 H 0.4242 0.68349 0.58462 0.0
H658 H 0.38413 0.70043 0.60044 0.0
C659 C 0.26479 0.76395 0.6749 0.0
C660 C 0.32461 0.72885 0.6703 0.0
H661 H 0.38804 0.74723 0.63661 0.0
C662 C 0.32349 0.70118 0.67469 0.0
C663 C 0.34823 0.74576 0.65653 0.0
C664 C 0.35139 0.77598 0.65243 0.0
C665 C 0.34527 0.68989 0.66546 0.0
C666 C 0.36881 0.7068 0.65172 0.0
C667 C 0.36985 0.73437 0.64711 0.0
C668 C 0.39286 0.69637 0.64229 0.0
C669 C 0.34288 0.65992 0.67023 0.0
C670 C 0.41118 0.6889 0.66066 0.0
C671 C 0.4341 0.67932 0.65172 0.0
C672 C 0.43902 0.67701 0.62423 0.0
C673 C 0.42074 0.68476 0.6059 0.0
C674 C 0.39794 0.69451 0.61488 0.0
H675 H 0.32086 0.64848 0.67606 0.0
H676 H 0.34914 0.65017 0.65208 0.0
H677 H 0.35762 0.65804 0.68658 0.0
H678 H 0.40777 0.69055 0.68192 0.0
H679 H 0.4477 0.67329 0.66629 0.0
H680 H 0.76769 0.80723 0.8094 0.0
H681 H 0.78655 0.83657 0.77155 0.0
H682 H 0.75115 0.89978 0.80396 0.0
H683 H 0.7335 0.87106 0.84277 0.0
H684 H 0.76342 0.86106 0.73278 0.0
H685 H 0.83486 0.93966 0.79763 0.0
H686 H 0.81556 0.90645 0.80989 0.0
H687 H 0.79759 0.93303 0.80562 0.0
C688 C 0.76403 0.82744 0.80859 0.0
C689 C 0.74963 0.83703 0.82942 0.0
C690 C 0.77459 0.84408 0.78679 0.0
C691 C 0.77082 0.87058 0.78523 0.0
C692 C 0.7549 0.87962 0.80511 0.0
H693 H 0.84589 1.0015 0.67379 0.0
H694 H 0.81313 0.97161 0.70483 0.0
C695 C 0.74453 0.86306 0.82712 0.0
C696 C 0.78492 0.88903 0.76349 0.0
H697 H 0.83573 0.94894 0.75162 0.0
C698 C 0.77912 0.88035 0.73688 0.0
C699 C 0.80558 0.91409 0.76891 0.0
C700 C 0.81403 0.9238 0.79703 0.0
C701 C 0.79357 0.89601 0.71558 0.0
C702 C 0.81429 0.92088 0.72109 0.0
C703 C 0.81966 0.92987 0.74757 0.0
C704 C 0.83172 0.93746 0.69986 0.0
C705 C 0.78676 0.88591 0.68734 0.0
C706 C 0.8528 0.92795 0.68663 0.0
C707 C 0.87186 0.94511 0.66916 0.0
C708 C 0.87014 0.97208 0.6647 0.0
C709 C 0.84814 0.98103 0.67717 0.0
C710 C 0.82926 0.96395 0.69474 0.0
H711 H 0.7665 0.86933 0.68614 0.0
H712 H 0.7851 0.90304 0.67422 0.0
H713 H 0.80432 0.87771 0.67958 0.0
H714 H 0.85526 0.90768 0.69069 0.0
H715 H 0.88871 0.93767 0.66014 0.0
H716 H 0.77908 0.21419 0.35559 0.0
H717 H 0.74485 0.1976 0.31961 0.0
H718 H 0.76234 0.27955 0.28803 0.0
H719 H 0.7973 0.29627 0.32375 0.0
H720 H 0.69521 0.21433 0.30425 0.0
H721 H 0.77881 0.23237 0.22499 0.0
H722 H 0.78748 0.2323 0.25999 0.0
H723 H 0.77774 0.26112 0.24597 0.0
C724 C 0.77576 0.22868 0.34092 0.0
C725 C 0.79117 0.25646 0.34226 0.0
C726 C 0.75603 0.21922 0.32052 0.0
C727 C 0.75136 0.23729 0.30102 0.0
C728 C 0.76595 0.26523 0.30273 0.0
H729 H 0.65576 0.18122 0.15309 0.0
H730 H 0.68033 0.21226 0.18862 0.0
C731 C 0.78573 0.27477 0.32322 0.0
C732 C 0.73194 0.22632 0.27849 0.0
H733 H 0.73182 0.21045 0.21215 0.0
C734 C 0.70309 0.21379 0.28403 0.0
C735 C 0.74231 0.22578 0.25214 0.0
C736 C 0.7733 0.23842 0.24526 0.0
C737 C 0.68449 0.19991 0.26403 0.0
C738 C 0.69521 0.19814 0.238 0.0
C739 C 0.7237 0.21184 0.23216 0.0
C740 C 0.67818 0.17997 0.21728 0.0
C741 C 0.65365 0.18685 0.27107 0.0
C742 C 0.66895 0.1516 0.22166 0.0
C743 C 0.655 0.13392 0.20151 0.0
C744 C 0.65015 0.14423 0.17648 0.0
C745 C 0.65898 0.17273 0.17225 0.0
C746 C 0.67307 0.19044 0.19245 0.0
H747 H 0.64676 0.19726 0.28848 0.0
H748 H 0.63931 0.18741 0.25396 0.0
H749 H 0.65113 0.16508 0.27647 0.0
H750 H 0.67319 0.14303 0.24048 0.0
H751 H 0.6482 0.1121 0.20546 0.0
H752 H 0.38564 0.70527 0.33403 0.0
H753 H 0.3995 0.68303 0.37336 0.0
H754 H 0.42103 0.62239 0.3223 0.0
H755 H 0.40759 0.64496 0.28296 0.0
H756 H 0.3834 0.63111 0.39576 0.0
H757 H 0.49587 0.65431 0.36125 0.0
H758 H 0.46985 0.669 0.34583 0.0
H759 H 0.47069 0.63447 0.33779 0.0
C760 C 0.39265 0.68678 0.3313 0.0
C761 C 0.3952 0.67662 0.30549 0.0
C762 C 0.40076 0.67416 0.3538 0.0
C763 C 0.41194 0.65128 0.35094 0.0
C764 C 0.41309 0.64032 0.32514 0.0
H765 H 0.49107 0.55774 0.45833 0.0
H766 H 0.46962 0.57575 0.42093 0.0
C767 C 0.40502 0.65299 0.30265 0.0
C768 C 0.42348 0.63973 0.37471 0.0
H769 H 0.4842 0.62669 0.3997 0.0
C770 C 0.40546 0.63021 0.39662 0.0
C771 C 0.45235 0.63863 0.37612 0.0
C772 C 0.47343 0.64987 0.35414 0.0
C773 C 0.41526 0.61907 0.4194 0.0
C774 C 0.44409 0.61781 0.4207 0.0
C775 C 0.4621 0.62748 0.39884 0.0
C776 C 0.45606 0.60626 0.44423 0.0
C777 C 0.39437 0.6081 0.44158 0.0
C778 C 0.45586 0.61732 0.4701 0.0
C779 C 0.46815 0.60695 0.49174 0.0
C780 C 0.48117 0.58534 0.48805 0.0
C781 C 0.48126 0.57432 0.46213 0.0
C782 C 0.46898 0.58466 0.44058 0.0
H783 H 0.37188 0.60363 0.43459 0.0
H784 H 0.39801 0.58907 0.45005 0.0
H785 H 0.39727 0.62369 0.45777 0.0
H786 H 0.44669 0.63439 0.47352 0.0
H787 H 0.46781 0.61616 0.51129 0.0
H788 H 0.16062 0.48288 0.78407 0.0
H789 H 0.14984 0.50501 0.8253 0.0
H790 H 0.12984 0.42676 0.86502 0.0
H791 H 0.14131 0.40498 0.82415 0.0
H792 H 0.09975 0.49596 0.85037 0.0
H793 H 0.17709 0.47349 0.92173 0.0
H794 H 0.18013 0.469 0.88618 0.0
H795 H 0.15618 0.44292 0.90573 0.0
C796 C 0.15481 0.47067 0.80191 0.0
C797 C 0.15243 0.44238 0.80119 0.0
C798 C 0.1484 0.48325 0.82542 0.0
C799 C 0.13941 0.46775 0.84863 0.0
C800 C 0.13751 0.43947 0.84784 0.0
H801 H 0.05805 0.48854 0.99897 0.0
H802 H 0.07929 0.47238 0.95981 0.0
C803 C 0.14404 0.42698 0.82442 0.0
C804 C 0.12984 0.48054 0.87289 0.0
H805 H 0.13739 0.48691 0.94081 0.0
C806 C 0.10831 0.49427 0.87007 0.0
C807 C 0.14079 0.47836 0.89878 0.0
C808 C 0.16502 0.46539 0.90329 0.0
C809 C 0.0969 0.50503 0.8923 0.0
C810 C 0.10743 0.50232 0.91819 0.0
C811 C 0.1292 0.48893 0.92103 0.0
C812 C 0.09557 0.51263 0.94259 0.0
C813 C 0.07294 0.51842 0.88798 0.0
C814 C 0.09805 0.54077 0.94638 0.0
C815 C 0.086 0.55015 0.9689 0.0
C816 C 0.0711 0.5316 0.98819 0.0
C817 C 0.06921 0.50348 0.98457 0.0
C818 C 0.08141 0.49416 0.96215 0.0
H819 H 0.06315 0.51369 0.86789 0.0
H820 H 0.056 0.51165 0.9033 0.0
H821 H 0.08146 0.54101 0.88979 0.0
H822 H 0.10924 0.55551 0.93183 0.0
H823 H 0.08799 0.57193 0.97094 0.0
H824 H 0.61333 0.82001 0.89753 0.0
H825 H 0.59031 0.85656 0.90871 0.0
H826 H 0.67201 0.90918 0.93285 0.0
H827 H 0.69496 0.87284 0.92122 0.0
H828 H 0.58921 0.87802 0.95862 0.0
H829 H 0.64003 0.96122 0.88883 0.0
H830 H 0.64166 0.9262 0.88401 0.0
H831 H 0.66557 0.94849 0.90703 0.0
C832 C 0.62632 0.83965 0.90467 0.0
C833 C 0.65577 0.84396 0.90842 0.0
C834 C 0.61323 0.86043 0.91108 0.0
C835 C 0.6295 0.88575 0.92124 0.0
C836 C 0.65914 0.89012 0.92441 0.0
H837 H 0.60163 0.0238 1.00652 0.0
H838 H 0.62021 0.99022 0.98206 0.0
C839 C 0.6722 0.86936 0.91795 0.0
C840 C 0.61522 0.90653 0.93103 0.0
H841 H 0.61621 0.97421 0.92682 0.0
C842 C 0.59478 0.89895 0.95138 0.0
C843 C 0.62264 0.93385 0.92164 0.0
C844 C 0.64348 0.94289 0.89899 0.0
C845 C 0.58234 0.91818 0.96333 0.0
C846 C 0.59024 0.94564 0.95437 0.0
C847 C 0.61023 0.95313 0.93363 0.0
C848 C 0.57896 0.96708 0.96725 0.0
C849 C 0.56171 0.90922 0.98618 0.0
C850 C 0.54967 0.96553 0.96649 0.0
C851 C 0.53892 0.98465 0.98051 0.0
C852 C 0.55732 1.00574 0.99547 0.0
C853 C 0.58681 1.00777 0.99534 0.0
C854 C 0.59752 0.98865 0.98131 0.0
H855 H 0.5625 0.88901 0.99424 0.0
H856 H 0.56635 0.9246 1.00264 0.0
H857 H 0.53962 0.90737 0.97909 0.0
H858 H 0.53508 0.94926 0.95538 0.0
H859 H 0.51613 0.98258 0.98 0.0
H860 H 0.83709 0.20165 0.39123 0.0
H861 H 0.86471 0.17159 0.40814 0.0
H862 H 0.93538 0.24185 0.42507 0.0
H863 H 0.90864 0.2721 0.40642 0.0
H864 H 0.95364 0.19877 0.40639 0.0
H865 H 0.87419 0.16457 0.48733 0.0
H866 H 0.85909 0.15771 0.45456 0.0
H867 H 0.8735 0.19263 0.46557 0.0
C868 C 0.85876 0.21079 0.39788 0.0
C869 C 0.87049 0.23944 0.39767 0.0
C870 C 0.87438 0.19353 0.40792 0.0
C871 C 0.90178 0.20454 0.41853 0.0
C872 C 0.91412 0.23295 0.41724 0.0
H873 H 0.98162 0.12943 0.53807 0.0
H874 H 0.95925 0.15809 0.51138 0.0
C875 C 0.89867 0.25024 0.40683 0.0
C876 C 0.91698 0.18666 0.43222 0.0
H877 H 0.91107 0.14218 0.4841 0.0
C878 C 0.94439 0.18637 0.42339 0.0
C879 C 0.90499 0.17083 0.45464 0.0
C880 C 0.87646 0.1716 0.46628 0.0
C881 C 0.96019 0.17068 0.43643 0.0
C882 C 0.94788 0.15437 0.45846 0.0
C883 C 0.9204 0.15456 0.46711 0.0
C884 C 0.96343 0.13796 0.47386 0.0
C885 C 0.99017 0.17241 0.42702 0.0
C886 C 0.97345 0.11718 0.46163 0.0
C887 C 0.98665 0.10091 0.47687 0.0
C888 C 0.98947 0.10483 0.50464 0.0
C889 C 0.97956 0.12574 0.51675 0.0
C890 C 0.96679 0.14217 0.50151 0.0
H891 H 0.99903 0.19109 0.41493 0.0
H892 H 1.00468 0.17254 0.44415 0.0
H893 H 0.98991 0.15427 0.41431 0.0
H894 H 0.9705 0.11312 0.44043 0.0
H895 H 0.99392 0.08483 0.46703 0.0
H896 H 0.32325 0.65462 0.20365 0.0
H897 H 0.27902 0.6281 0.18172 0.0
H898 H 0.24797 0.70044 0.18011 0.0
H899 H 0.29159 0.72679 0.20212 0.0
H900 H 0.2171 0.6201 0.19469 0.0
H901 H 0.24995 0.67629 0.1002 0.0
H902 H 0.27485 0.67581 0.1268 0.0
H903 H 0.25131 0.69783 0.12913 0.0
C904 C 0.30672 0.6647 0.19913 0.0
C905 C 0.31121 0.69296 0.20435 0.0
C906 C 0.28151 0.64956 0.18645 0.0
C907 C 0.26038 0.6624 0.17872 0.0
C908 C 0.26415 0.69017 0.18534 0.0
H909 H 0.1039 0.6306 0.08823 0.0
H910 H 0.14787 0.64891 0.11346 0.0
C911 C 0.28916 0.70522 0.19798 0.0
C912 C 0.23493 0.64749 0.16272 0.0
H913 H 0.20214 0.64873 0.10254 0.0
C914 C 0.21392 0.62612 0.17444 0.0
C915 C 0.23073 0.65533 0.13628 0.0
C916 C 0.25298 0.6774 0.12219 0.0
C917 C 0.18835 0.61319 0.16085 0.0
C918 C 0.1839 0.62144 0.13454 0.0
C919 C 0.20532 0.64238 0.12267 0.0
C920 C 0.1568 0.60961 0.1193 0.0
C921 C 0.16587 0.59163 0.17524 0.0
C922 C 0.14704 0.58133 0.11371 0.0
C923 C 0.12165 0.57069 0.09925 0.0
C924 C 0.10552 0.58812 0.08979 0.0
C925 C 0.11561 0.61646 0.09511 0.0
C926 C 0.14087 0.62702 0.1096 0.0
H927 H 0.16926 0.59273 0.19719 0.0
H928 H 0.14413 0.5938 0.171 0.0
H929 H 0.16685 0.57099 0.16831 0.0
H930 H 0.15918 0.56745 0.12031 0.0
H931 H 0.11471 0.54879 0.09547 0.0
H932 H 0.22625 0.46211 0.69629 0.0
H933 H 0.2711 0.48684 0.67465 0.0
H934 H 0.30364 0.4158 0.68304 0.0
H935 H 0.25931 0.39133 0.70512 0.0
H936 H 0.34476 0.46381 0.69351 0.0
H937 H 0.29027 0.471 0.59755 0.0
H938 H 0.27679 0.48587 0.62574 0.0
H939 H 0.27283 0.4495 0.62456 0.0
C940 C 0.24322 0.45201 0.69404 0.0
C941 C 0.23909 0.42466 0.70227 0.0
C942 C 0.26871 0.46602 0.68132 0.0
C943 C 0.29056 0.45298 0.67658 0.0
C944 C 0.28707 0.42626 0.68617 0.0
H945 H 0.42957 0.49073 0.56027 0.0
H946 H 0.38552 0.47107 0.58542 0.0
C947 C 0.26166 0.41227 0.69879 0.0
C948 C 0.31676 0.4666 0.66104 0.0
H949 H 0.3399 0.49234 0.5995 0.0
C950 C 0.34367 0.47016 0.673 0.0
C951 C 0.31545 0.47442 0.63405 0.0
C952 C 0.28734 0.46982 0.61956 0.0
C953 C 0.36917 0.48146 0.65889 0.0
C954 C 0.36785 0.48988 0.6321 0.0
C955 C 0.34096 0.48612 0.62006 0.0
C956 C 0.39417 0.50238 0.61627 0.0
C957 C 0.39733 0.48361 0.67262 0.0
C958 C 0.41347 0.52687 0.62482 0.0
C959 C 0.43865 0.53812 0.61053 0.0
C960 C 0.44516 0.52529 0.58715 0.0
C961 C 0.42538 0.50116 0.57818 0.0
C962 C 0.40015 0.48988 0.59255 0.0
H963 H 0.39479 0.46979 0.69012 0.0
H964 H 0.413 0.4785 0.65865 0.0
H965 H 0.40625 0.50497 0.67985 0.0
H966 H 0.4091 0.5373 0.64265 0.0
H967 H 0.45311 0.55687 0.61798 0.0
H968 H 0.81083 0.81326 0.89486 0.0
H969 H 0.846 0.7912 0.91252 0.0
H970 H 0.7793 0.71693 0.926 0.0
H971 H 0.74396 0.73867 0.90762 0.0
H972 H 0.84809 0.76806 0.96307 0.0
H973 H 0.83912 0.69127 0.88125 0.0
H974 H 0.82516 0.72088 0.87841 0.0
H975 H 0.80606 0.69167 0.89731 0.0
C976 C 0.80366 0.79213 0.90132 0.0
C977 C 0.77467 0.77758 0.89956 0.0
C978 C 0.82375 0.77965 0.91158 0.0
C979 C 0.81528 0.75236 0.92021 0.0
C980 C 0.7863 0.73789 0.91903 0.0
H981 H 0.92083 0.67182 1.0131 0.0
H982 H 0.883 0.69172 0.99756 0.0
C983 C 0.76613 0.7504 0.90877 0.0
C984 C 0.83698 0.73924 0.93044 0.0
H985 H 0.86935 0.68825 0.91739 0.0
C986 C 0.85271 0.75055 0.95317 0.0
C987 C 0.84314 0.71666 0.91721 0.0
C988 C 0.8277 0.70447 0.89206 0.0
C989 C 0.87447 0.7398 0.9631 0.0
C990 C 0.88031 0.71694 0.95013 0.0
C991 C 0.86464 0.70567 0.92736 0.0
C992 C 0.90307 0.70476 0.95954 0.0
C993 C 0.89147 0.75338 0.987 0.0
C994 C 0.92657 0.70504 0.94307 0.0
C995 C 0.94809 0.69349 0.95178 0.0
C996 C 0.94637 0.68128 0.97707 0.0
C997 C 0.92267 0.68089 0.99344 0.0
C998 C 0.90118 0.69248 0.98472 0.0
H999 H 0.88886 0.77429 0.99071 0.0
H1000 H 0.88398 0.74084 1.00499 0.0
H1001 H 0.91456 0.7549 0.98428 0.0
H1002 H 0.92828 0.7143 0.92349 0.0
H1003 H 0.96585 0.69376 0.93856 0.0
H1004 H 0.37671 0.76277 0.15346 0.0
H1005 H 0.39643 0.80587 0.12992 0.0
H1006 H 0.42847 0.84564 0.20422 0.0
H1007 H 0.40793 0.80283 0.2281 0.0
H1008 H 0.40283 0.87745 0.17382 0.0
H1009 H 0.47987 0.8402 0.11188 0.0
H1010 H 0.44361 0.8198 0.10858 0.0
H1011 H 0.46166 0.82131 0.14009 0.0
C1012 C 0.38774 0.78069 0.16491 0.0
C1013 C 0.39071 0.77912 0.1928 0.0
C1014 C 0.39936 0.80533 0.15131 0.0
C1015 C 0.41442 0.82904 0.16515 0.0
C1016 C 0.41715 0.82765 0.193 0.0
H1017 H 0.5276 0.97639 0.09692 0.0
H1018 H 0.50605 0.93347 0.12002 0.0
C1019 C 0.40555 0.80302 0.20663 0.0
C1020 C 0.42699 0.85534 0.15072 0.0
H1021 H 0.47406 0.88412 0.10131 0.0
C1022 C 0.41842 0.87889 0.15798 0.0
C1023 C 0.44765 0.85746 0.13023 0.0
C1024 C 0.45899 0.83344 0.12236 0.0
C1025 C 0.4296 0.90425 0.1452 0.0
C1026 C 0.44966 0.90618 0.1242 0.0
C1027 C 0.45848 0.8827 0.11716 0.0
C1028 C 0.46249 0.93251 0.10989 0.0
C1029 C 0.42032 0.92893 0.15479 0.0
C1030 C 0.44532 0.94634 0.09608 0.0
C1031 C 0.45762 0.97107 0.0828 0.0
C1032 C 0.48745 0.9825 0.08285 0.0
C1033 C 0.50457 0.96837 0.09641 0.0
C1034 C 0.49226 0.94371 0.10967 0.0
H1035 H 0.41102 0.92587 0.17519 0.0
H1036 H 0.43855 0.94765 0.15491 0.0
H1037 H 0.4037 0.93246 0.14113 0.0
H1038 H 0.42236 0.9379 0.09538 0.0
H1039 H 0.44372 0.98118 0.07247 0.0
H1040 H 0.13779 0.31815 0.72603 0.0
H1041 H 0.11835 0.2741 0.70325 0.0
H1042 H 0.15759 0.30885 0.6297 0.0
H1043 H 0.17681 0.35298 0.65217 0.0
H1044 H 0.08163 0.26157 0.65914 0.0
H1045 H 0.18538 0.23947 0.63644 0.0
H1046 H 0.18213 0.26551 0.6602 0.0
H1047 H 0.18258 0.27225 0.62501 0.0
C1048 C 0.14218 0.31651 0.70497 0.0
C1049 C 0.15912 0.33919 0.69105 0.0
C1050 C 0.13115 0.29123 0.69199 0.0
C1051 C 0.13691 0.28796 0.66485 0.0
C1052 C 0.15343 0.31062 0.6508 0.0
H1053 H 0.08748 0.15013 0.55224 0.0
H1054 H 0.10772 0.19485 0.57366 0.0
C1055 C 0.16445 0.33589 0.66373 0.0
C1056 C 0.12507 0.26104 0.65111 0.0
H1057 H 0.14406 0.20956 0.61713 0.0
C1058 C 0.09529 0.25015 0.65005 0.0
C1059 C 0.14287 0.24617 0.63909 0.0
C1060 C 0.17502 0.25626 0.64038 0.0
C1061 C 0.08283 0.22505 0.63705 0.0
C1062 C 0.10061 0.21004 0.62523 0.0
C1063 C 0.1304 0.22102 0.62615 0.0
C1064 C 0.0887 0.1827 0.61229 0.0
C1065 C 0.05066 0.21515 0.63561 0.0
C1066 C 0.07174 0.16075 0.62694 0.0
C1067 C 0.0601 0.13521 0.61477 0.0
C1068 C 0.06534 0.13086 0.58764 0.0
C1069 C 0.08291 0.1527 0.57313 0.0
C1070 C 0.09452 0.17831 0.58535 0.0
H1071 H 0.04051 0.23225 0.63855 0.0
H1072 H 0.04357 0.20507 0.61612 0.0
H1073 H 0.04284 0.19995 0.65164 0.0
H1074 H 0.0675 0.16335 0.64789 0.0
H1075 H 0.04689 0.11889 0.62669 0.0
H1076 H 0.78247 0.35224 0.3816 0.0
H1077 H 0.7417 0.3709 0.39238 0.0
H1078 H 0.75408 0.35873 0.47621 0.0
H1079 H 0.7949 0.34049 0.46543 0.0
H1080 H 0.691 0.34544 0.4203 0.0
H1081 H 0.75294 0.43948 0.47271 0.0
H1082 H 0.7696 0.41906 0.45159 0.0
H1083 H 0.75926 0.40838 0.48514 0.0
C1084 C 0.77643 0.35378 0.40228 0.0
C1085 C 0.79164 0.34532 0.42279 0.0
C1086 C 0.75324 0.36432 0.40841 0.0
C1087 C 0.74522 0.36659 0.43512 0.0
C1088 C 0.76032 0.3577 0.45554 0.0
H1089 H 0.61525 0.42069 0.52056 0.0
H1090 H 0.65443 0.40167 0.50641 0.0
C1091 C 0.78346 0.34721 0.4494 0.0
C1092 C 0.72074 0.37775 0.44175 0.0
H1093 H 0.70237 0.42847 0.47714 0.0
C1094 C 0.69345 0.36371 0.43255 0.0
C1095 C 0.72409 0.40158 0.45773 0.0
C1096 C 0.75308 0.41818 0.46718 0.0
C1097 C 0.66921 0.37243 0.4396 0.0
C1098 C 0.67253 0.39604 0.45591 0.0
C1099 C 0.69989 0.41028 0.46478 0.0
C1100 C 0.64795 0.40637 0.46418 0.0
C1101 C 0.6402 0.35586 0.43018 0.0
C1102 C 0.63141 0.41537 0.44511 0.0
C1103 C 0.60904 0.42625 0.45314 0.0
C1104 C 0.60299 0.42855 0.4804 0.0
C1105 C 0.61955 0.4194 0.49943 0.0
C1106 C 0.64184 0.40845 0.49139 0.0
H1107 H 0.64051 0.33485 0.42374 0.0
H1108 H 0.62393 0.35421 0.44615 0.0
H1109 H 0.63353 0.36624 0.41286 0.0
H1110 H 0.63619 0.41455 0.42404 0.0
H1111 H 0.597 0.43358 0.43802 0.0
loop_
_geom_bond_atom_site_label_1
_geom_bond_atom_site_label_2
_geom_bond_distance
_geom_bond_site_symmetry_2
_ccdc_geom_bond_type
H0 C3 0.929 . S
H1 C6 0.929 . S
H2 C8 0.930 . S
C3 H0 0.929 . S
C3 C4 1.398 . S
C3 C5 1.396 . S
C4 C3 1.398 . S
C4 C8 1.407 . S
C5 C3 1.396 . S
C5 C6 1.394 . S
C6 H1 0.929 . S
C6 C5 1.394 . S
C6 C7 1.382 . S
C7 C6 1.382 . S
C7 C8 1.392 . S
C7 N9 1.420 . S
C8 H2 0.930 . S
C8 C4 1.407 . S
C8 C7 1.392 . S
N9 C7 1.420 . S
N9 C10 1.244 . S
C10 N9 1.244 . S
H11 C14 0.929 . S
H12 C17 0.929 . S
H13 C19 0.930 . S
C14 H11 0.929 . S
C14 C15 1.398 . S
C14 C16 1.396 . S
C15 C14 1.398 . S
C15 C19 1.407 . S
C16 C14 1.396 . S
C16 C17 1.394 . S
C17 H12 0.929 . S
C17 C16 1.394 . S
C17 C18 1.382 . S
C18 C17 1.382 . S
C18 C19 1.392 . S
C18 N20 1.420 . S
C19 H13 0.930 . S
C19 C15 1.407 . S
C19 C18 1.392 . S
N20 C18 1.420 . S
N20 C21 1.244 . S
C21 N20 1.244 . S
H22 C25 0.929 . S
H23 C28 0.929 . S
H24 C30 0.930 . S
C25 H22 0.929 . S
C25 C26 1.398 . S
C25 C27 1.396 . S
C26 C25 1.398 . S
C26 C30 1.407 . S
C27 C25 1.396 . S
C27 C28 1.394 . S
C28 H23 0.929 . S
C28 C27 1.394 . S
C28 C29 1.382 . S
C29 C28 1.382 . S
C29 C30 1.392 . S
C29 N31 1.420 . S
C30 H24 0.930 . S
C30 C26 1.407 . S
C30 C29 1.392 . S
N31 C29 1.420 . S
N31 C32 1.244 . S
C32 N31 1.244 . S
H33 C36 0.929 . S
H34 C39 0.929 . S
H35 C41 0.930 . S
C36 H33 0.929 . S
C36 C37 1.398 . S
C36 C38 1.396 . S
C37 C36 1.398 . S
C37 C41 1.407 . S
C38 C36 1.396 . S
C38 C39 1.394 . S
C39 H34 0.929 . S
C39 C38 1.394 . S
C39 C40 1.382 . S
C40 C39 1.382 . S
C40 C41 1.392 . S
C40 N42 1.420 . S
C41 H35 0.930 . S
C41 C37 1.407 . S
C41 C40 1.392 . S
N42 C40 1.420 . S
N42 C43 1.244 . S
C43 N42 1.244 . S
H44 C47 0.929 . S
H45 C50 0.929 . S
H46 C52 0.930 . S
C47 H44 0.929 . S
C47 C48 1.398 . S
C47 C49 1.396 . S
C48 C47 1.398 . S
C48 C52 1.407 . S
C49 C47 1.396 . S
C49 C50 1.394 . S
C50 H45 0.929 . S
C50 C49 1.394 . S
C50 C51 1.382 . S
C51 C50 1.382 . S
C51 C52 1.392 . S
C51 N53 1.420 . S
C52 H46 0.930 . S
C52 C48 1.407 . S
C52 C51 1.392 . S
N53 C51 1.420 . S
N53 C54 1.244 . S
C54 N53 1.244 . S
H55 C58 0.929 . S
H56 C61 0.929 . S
H57 C63 0.930 . S
C58 H55 0.929 . S
C58 C59 1.398 . S
C58 C60 1.396 . S
C59 C58 1.398 . S
C59 C63 1.407 . S
C60 C58 1.396 . S
C60 C61 1.394 . S
C61 H56 0.929 . S
C61 C60 1.394 . S
C61 C62 1.382 . S
C62 C61 1.382 . S
C62 C63 1.392 . S
C62 N64 1.420 . S
C63 H57 0.930 . S
C63 C59 1.407 . S
C63 C62 1.392 . S
N64 C62 1.420 . S
N64 C65 1.244 . S
C65 N64 1.244 . S
H66 C69 0.929 . S
H67 C72 0.929 . S
H68 C74 0.930 . S
C69 H66 0.929 . S
C69 C70 1.398 . S
C69 C71 1.396 . S
C70 C69 1.398 . S
C70 C74 1.407 . S
C71 C69 1.396 . S
C71 C72 1.394 . S
C72 H67 0.929 . S
C72 C71 1.394 . S
C72 C73 1.382 . S
C73 C72 1.382 . S
C73 C74 1.392 . S
C73 N75 1.420 . S
C74 H68 0.930 . S
C74 C70 1.407 . S
C74 C73 1.392 . S
N75 C73 1.420 . S
N75 C76 1.244 . S
C76 N75 1.244 . S
H77 C80 0.929 . S
H78 C83 0.929 . S
H79 C85 0.930 . S
C80 H77 0.929 . S
C80 C81 1.398 . S
C80 C82 1.396 . S
C81 C80 1.398 . S
C81 C85 1.407 . S
C82 C80 1.396 . S
C82 C83 1.394 . S
C83 H78 0.929 . S
C83 C82 1.394 . S
C83 C84 1.382 . S
C84 C83 1.382 . S
C84 C85 1.392 . S
C84 N86 1.420 . S
C85 H79 0.930 . S
C85 C81 1.407 . S
C85 C84 1.392 . S
N86 C84 1.420 . S
N86 C87 1.244 . S
C87 N86 1.244 . S
Tb88 C97 2.764 . S
Tb88 O98 2.325 . S
Tb88 O101 2.303 . S
Tb88 O105 2.322 . S
Tb88 O106 2.349 1_545 S
Tb88 O109 2.415 . S
Tb88 O110 2.399 . S
Tb89 O99 2.322 . S
Tb89 O100 2.349 1_655 S
Tb89 O102 2.415 1_545 S
Tb89 O103 2.399 . S
Tb89 O104 2.325 1_655 S
Tb89 O107 2.327 . S
Tb89 C118 2.764 1_545 S
C90 O106 1.261 1_655 S
C90 O107 1.231 1_565 S
C91 C94 1.358 . S
C91 C95 1.332 . S
C91 C97 1.504 . S
C92 C93 1.373 . S
C92 C96 1.308 . S
C93 C92 1.373 . S
C93 C94 1.429 . S
C93 H120 0.932 . S
C94 C91 1.358 . S
C94 C93 1.429 . S
C94 H121 0.930 . S
C95 C91 1.332 . S
C95 C96 1.394 . S
C95 H122 0.932 . S
C96 C92 1.308 . S
C96 C95 1.394 . S
C96 H123 0.929 . S
C97 Tb88 2.764 . S
C97 C91 1.504 . S
C97 O109 1.239 . S
C97 O110 1.263 . S
O98 Tb88 2.325 . S
O98 C108 1.236 1_455 S
O99 Tb89 2.322 . S
O99 C108 1.257 . S
O100 Tb89 2.349 1_455 S
O100 C111 1.261 . S
O101 Tb88 2.303 . S
O101 C111 1.257 . S
O102 Tb89 2.415 1_565 S
O102 C118 1.239 . S
O103 Tb89 2.399 . S
O103 C118 1.263 1_545 S
O104 Tb89 2.325 1_455 S
O104 C119 1.236 1_545 S
O105 Tb88 2.322 . S
O105 C119 1.257 1_545 S
O106 Tb88 2.349 1_565 S
O106 C90 1.261 1_455 S
O107 Tb89 2.327 . S
O107 C90 1.231 1_545 S
C108 O98 1.236 1_655 S
C108 O99 1.257 . S
O109 Tb88 2.415 . S
O109 C97 1.239 . S
O110 Tb88 2.399 . S
O110 C97 1.263 . S
C111 O100 1.261 . S
C111 O101 1.257 . S
C112 C115 1.358 . S
C112 C116 1.332 . S
C112 C118 1.504 . S
C113 C114 1.373 . S
C113 C117 1.308 . S
C114 C113 1.373 . S
C114 C115 1.429 . S
C114 H124 0.932 . S
C115 C112 1.358 . S
C115 C114 1.429 . S
C115 H125 0.930 1_565 S
C116 C112 1.332 . S
C116 C117 1.394 . S
C116 H126 0.932 . S
C117 C113 1.308 . S
C117 C116 1.394 . S
C117 H127 0.929 . S
C118 Tb89 2.764 1_565 S
C118 O102 1.239 . S
C118 O103 1.263 1_565 S
C118 C112 1.504 . S
C119 O104 1.236 1_565 S
C119 O105 1.257 1_565 S
H120 C93 0.932 . S
H121 C94 0.930 . S
H122 C95 0.932 . S
H123 C96 0.929 . S
H124 C114 0.932 . S
H125 C115 0.930 1_545 S
H126 C116 0.932 . S
H127 C117 0.929 . S
Tb128 C137 2.764 . S
Tb128 O138 2.325 . S
Tb128 O141 2.303 . S
Tb128 O145 2.322 1_545 S
Tb128 O146 2.349 . S
Tb128 O149 2.415 . S
Tb128 O150 2.399 . S
Tb129 O139 2.322 . S
Tb129 O140 2.349 . S
Tb129 O142 2.415 1_544 S
Tb129 O143 2.409 . S
Tb129 O144 2.325 1_545 S
Tb129 O147 2.303 . S
Tb129 C158 2.764 1_544 S
C130 O146 1.261 . S
C130 O147 1.257 . S
C131 C134 1.358 . S
C131 C135 1.332 . S
C131 C137 1.504 . S
C132 C133 1.373 . S
C132 C136 1.308 . S
C133 C132 1.373 . S
C133 C134 1.429 . S
C133 H160 0.932 . S
C134 C131 1.358 . S
C134 C133 1.429 . S
C134 H161 0.930 . S
C135 C131 1.332 . S
C135 C136 1.394 . S
C135 H162 0.932 . S
C136 C132 1.308 . S
C136 C135 1.394 . S
C136 H163 0.929 . S
C137 Tb128 2.764 . S
C137 C131 1.504 . S
C137 O149 1.239 . S
C137 O150 1.263 . S
O138 Tb128 2.325 . S
O138 C148 1.236 . S
O139 Tb129 2.322 . S
O139 C148 1.257 . S
O140 Tb129 2.349 . S
O140 C151 1.261 . S
O141 Tb128 2.303 . S
O141 C151 1.257 . S
O142 Tb129 2.415 1_566 S
O142 C158 1.239 . S
O143 Tb129 2.409 . S
O143 C158 1.249 1_544 S
O144 Tb129 2.325 1_565 S
O144 C159 1.236 . S
O145 Tb128 2.322 1_565 S
O145 C159 1.257 . S
O146 Tb128 2.349 . S
O146 C130 1.261 . S
O147 Tb129 2.303 . S
O147 C130 1.257 . S
C148 O138 1.236 . S
C148 O139 1.257 . S
O149 Tb128 2.415 . S
O149 C137 1.239 . S
O150 Tb128 2.399 . S
O150 C137 1.263 . S
C151 O140 1.261 . S
C151 O141 1.257 . S
C152 C155 1.358 . S
C152 C156 1.332 . S
C152 C158 1.504 . S
C153 C154 1.373 . S
C153 C157 1.308 . S
C154 C153 1.373 . S
C154 C155 1.429 . S
C154 H164 0.932 . S
C155 C152 1.358 . S
C155 C154 1.429 . S
C155 H165 0.930 . S
C156 C152 1.332 . S
C156 C157 1.394 . S
C156 H166 0.932 . S
C157 C153 1.308 . S
C157 C156 1.394 . S
C157 H167 0.929 . S
C158 Tb129 2.764 1_566 S
C158 O142 1.239 . S
C158 O143 1.249 1_566 S
C158 C152 1.504 . S
C159 O144 1.236 . S
C159 O145 1.257 . S
H160 C133 0.932 . S
H161 C134 0.930 . S
H162 C135 0.932 . S
H163 C136 0.929 . S
H164 C154 0.932 . S
H165 C155 0.930 . S
H166 C156 0.932 . S
H167 C157 0.929 . S
Tb168 C177 2.764 . S
Tb168 O178 2.325 . S
Tb168 O181 2.303 . S
Tb168 O185 2.322 . S
Tb168 O186 2.349 . S
Tb168 O189 2.415 . S
Tb168 O190 2.399 . S
Tb169 O179 2.322 . S
Tb169 O180 2.349 . S
Tb169 O182 2.415 . S
Tb169 O183 2.399 . S
Tb169 O184 2.325 . S
Tb169 O187 2.303 . S
Tb169 C198 2.764 . S
C170 O186 1.261 . S
C170 O187 1.257 . S
C171 C174 1.358 . S
C171 C175 1.332 . S
C171 C177 1.504 . S
C172 C173 1.373 . S
C172 C176 1.308 . S
C173 C172 1.373 . S
C173 C174 1.429 . S
C173 H200 0.932 . S
C174 C171 1.358 . S
C174 C173 1.429 . S
C174 H201 0.930 . S
C175 C171 1.332 . S
C175 C176 1.394 . S
C175 H202 0.932 . S
C176 C172 1.308 . S
C176 C175 1.394 . S
C176 H203 0.929 . S
C177 Tb168 2.764 . S
C177 C171 1.504 . S
C177 O189 1.239 . S
C177 O190 1.263 . S
O178 Tb168 2.325 . S
O178 C188 1.236 . S
O179 Tb169 2.322 . S
O179 C188 1.257 . S
O180 Tb169 2.349 . S
O180 C191 1.261 . S
O181 Tb168 2.303 . S
O181 C191 1.257 . S
O182 Tb169 2.415 . S
O182 C198 1.239 . S
O183 Tb169 2.399 . S
O183 C198 1.263 . S
O184 Tb169 2.325 . S
O184 C199 1.236 . S
O185 Tb168 2.322 . S
O185 C199 1.257 . S
O186 Tb168 2.349 . S
O186 C170 1.261 . S
O187 Tb169 2.303 . S
O187 C170 1.257 . S
C188 O178 1.236 . S
C188 O179 1.257 . S
O189 Tb168 2.415 . S
O189 C177 1.239 . S
O190 Tb168 2.399 . S
O190 C177 1.263 . S
C191 O180 1.261 . S
C191 O181 1.257 . S
C192 C195 1.358 . S
C192 C196 1.332 . S
C192 C198 1.504 . S
C193 C194 1.373 . S
C193 C197 1.308 . S
C194 C193 1.373 . S
C194 C195 1.429 . S
C194 H204 0.932 . S
C195 C192 1.358 . S
C195 C194 1.429 . S
C195 H205 0.930 . S
C196 C192 1.332 . S
C196 C197 1.394 . S
C196 H206 0.932 . S
C197 C193 1.308 . S
C197 C196 1.394 . S
C197 H207 0.929 . S
C198 Tb169 2.764 . S
C198 O182 1.239 . S
C198 O183 1.263 . S
C198 C192 1.504 . S
C199 O184 1.236 . S
C199 O185 1.257 . S
H200 C173 0.932 . S
H201 C174 0.930 . S
H202 C175 0.932 . S
H203 C176 0.929 . S
H204 C194 0.932 . S
H205 C195 0.930 . S
H206 C196 0.932 . S
H207 C197 0.929 . S
Tb208 C217 2.764 1_455 S
Tb208 O218 2.325 1_455 S
Tb208 O221 2.303 1_556 S
Tb208 O225 2.322 1_556 S
Tb208 O226 2.349 . S
Tb208 O229 2.415 1_455 S
Tb208 O230 2.399 . S
Tb209 O219 2.322 1_455 S
Tb209 O220 2.349 . S
Tb209 O222 2.415 . S
Tb209 O223 2.399 . S
Tb209 O224 2.325 . S
Tb209 O227 2.303 1_554 S
Tb209 C238 2.764 . S
C210 O226 1.261 . S
C210 O227 1.257 . S
C211 C214 1.358 . S
C211 C215 1.332 . S
C211 C217 1.504 . S
C212 C213 1.373 . S
C212 C216 1.308 . S
C213 C212 1.373 . S
C213 C214 1.429 . S
C213 H240 0.932 . S
C214 C211 1.358 . S
C214 C213 1.429 . S
C214 H241 0.930 . S
C215 C211 1.332 . S
C215 C216 1.394 . S
C215 H242 0.932 . S
C216 C212 1.308 . S
C216 C215 1.394 . S
C216 H243 0.929 . S
C217 Tb208 2.764 1_655 S
C217 C211 1.504 . S
C217 O229 1.239 . S
C217 O230 1.263 1_655 S
O218 Tb208 2.325 1_655 S
O218 C228 1.236 . S
O219 Tb209 2.322 1_655 S
O219 C228 1.257 1_554 S
O220 Tb209 2.349 . S
O220 C231 1.261 . S
O221 Tb208 2.303 1_554 S
O221 C231 1.257 . S
O222 Tb209 2.415 . S
O222 C238 1.239 . S
O223 Tb209 2.399 . S
O223 C238 1.263 . S
O224 Tb209 2.325 . S
O224 C239 1.236 . S
O225 Tb208 2.322 1_554 S
O225 C239 1.257 . S
O226 Tb208 2.349 . S
O226 C210 1.261 . S
O227 Tb209 2.303 1_556 S
O227 C210 1.257 . S
C228 O218 1.236 . S
C228 O219 1.257 1_556 S
O229 Tb208 2.415 1_655 S
O229 C217 1.239 . S
O230 Tb208 2.399 . S
O230 C217 1.263 1_455 S
C231 O220 1.261 . S
C231 O221 1.257 . S
C232 C235 1.358 . S
C232 C236 1.332 . S
C232 C238 1.504 . S
C233 C234 1.373 . S
C233 C237 1.308 . S
C234 C233 1.373 . S
C234 C235 1.429 . S
C234 H244 0.932 . S
C235 C232 1.358 . S
C235 C234 1.429 . S
C235 H245 0.930 . S
C236 C232 1.332 . S
C236 C237 1.394 . S
C236 H246 0.932 . S
C237 C233 1.308 . S
C237 C236 1.394 . S
C237 H247 0.929 . S
C238 Tb209 2.764 . S
C238 O222 1.239 . S
C238 O223 1.263 . S
C238 C232 1.504 . S
C239 O224 1.236 . S
C239 O225 1.257 . S
H240 C213 0.932 . S
H241 C214 0.930 . S
H242 C215 0.932 . S
H243 C216 0.929 . S
H244 C234 0.932 . S
H245 C235 0.930 . S
H246 C236 0.932 . S
H247 C237 0.929 . S
H248 C256 0.929 . S
H249 C258 0.930 . S
H250 C260 0.930 . S
H251 C263 0.929 . S
H252 C266 0.930 . S
H253 C268 0.960 . S
H254 C268 0.960 . S
H255 C268 0.960 . S
C256 H248 0.929 . S
C256 C257 1.377 . S
C256 C258 1.384 . S
C257 C256 1.377 . S
C257 C263 1.390 . S
C258 H249 0.930 . S
C258 C256 1.384 . S
C258 C259 1.372 . S
C259 C258 1.372 . S
C259 C260 1.400 . S
C259 C264 1.490 . S
C260 H250 0.930 . S
C260 C259 1.400 . S
C260 C263 1.386 . S
H261 C277 0.930 . S
H262 C278 0.931 . S
C263 H251 0.929 . S
C263 C257 1.390 . S
C263 C260 1.386 . S
C264 C259 1.490 . S
C264 C266 1.395 . S
C264 C267 1.403 . S
H265 C271 0.930 . S
C266 H252 0.930 . S
C266 C264 1.395 . S
C266 C269 1.403 . S
C267 C264 1.403 . S
C267 C268 1.524 . S
C267 C271 1.400 . S
C268 H253 0.960 . S
C268 H254 0.960 . S
C268 H255 0.960 . S
C268 C267 1.524 . S
C269 C266 1.403 . S
C269 C270 1.392 . S
C269 C273 1.495 . S
C270 C269 1.392 . S
C270 C271 1.385 . S
C270 C272 1.478 . S
C271 H265 0.930 . S
C271 C267 1.400 . S
C271 C270 1.385 . S
C272 C270 1.478 . S
C272 C274 1.381 . S
C272 C278 1.383 . S
C273 C269 1.495 . S
C273 H279 0.959 . S
C273 H280 0.961 . S
C273 H281 0.960 . S
C274 C272 1.381 . S
C274 C275 1.394 . S
C274 H282 0.930 . S
C275 C274 1.394 . S
C275 C276 1.383 . S
C275 H283 0.929 . S
C276 C275 1.383 . S
C276 C277 1.377 . S
C277 H261 0.930 . S
C277 C276 1.377 . S
C277 C278 1.379 . S
C278 H262 0.931 . S
C278 C272 1.383 . S
C278 C277 1.379 . S
H279 C273 0.959 . S
H280 C273 0.961 . S
H281 C273 0.960 . S
H282 C274 0.930 . S
H283 C275 0.929 . S
H284 C292 0.929 . S
H285 C294 0.930 . S
H286 C296 0.930 . S
H287 C299 0.929 . S
H288 C302 0.930 . S
H289 C304 0.960 . S
H290 C304 0.960 . S
H291 C304 0.960 . S
C292 H284 0.929 . S
C292 C293 1.377 . S
C292 C294 1.384 . S
C293 C292 1.377 . S
C293 C299 1.390 . S
C294 H285 0.930 . S
C294 C292 1.384 . S
C294 C295 1.372 . S
C295 C294 1.372 . S
C295 C296 1.400 . S
C295 C300 1.490 . S
C296 H286 0.930 . S
C296 C295 1.400 . S
C296 C299 1.386 . S
H297 C313 0.930 . S
H298 C314 0.931 . S
C299 H287 0.929 . S
C299 C293 1.390 . S
C299 C296 1.386 . S
C300 C295 1.490 . S
C300 C302 1.395 . S
C300 C303 1.403 . S
H301 C307 0.930 . S
C302 H288 0.930 . S
C302 C300 1.395 . S
C302 C305 1.403 . S
C303 C300 1.403 . S
C303 C304 1.524 . S
C303 C307 1.400 . S
C304 H289 0.960 . S
C304 H290 0.960 . S
C304 H291 0.960 . S
C304 C303 1.524 . S
C305 C302 1.403 . S
C305 C306 1.392 . S
C305 C309 1.495 . S
C306 C305 1.392 . S
C306 C307 1.385 . S
C306 C308 1.478 . S
C307 H301 0.930 . S
C307 C303 1.400 . S
C307 C306 1.385 . S
C308 C306 1.478 . S
C308 C310 1.381 . S
C308 C314 1.383 . S
C309 C305 1.495 . S
C309 H315 0.959 . S
C309 H316 0.961 . S
C309 H317 0.960 . S
C310 C308 1.381 . S
C310 C311 1.394 . S
C310 H318 0.930 . S
C311 C310 1.394 . S
C311 C312 1.383 . S
C311 H319 0.929 . S
C312 C311 1.383 . S
C312 C313 1.377 . S
C313 H297 0.930 . S
C313 C312 1.377 . S
C313 C314 1.379 . S
C314 H298 0.931 . S
C314 C308 1.383 . S
C314 C313 1.379 . S
H315 C309 0.959 . S
H316 C309 0.961 . S
H317 C309 0.960 . S
H318 C310 0.930 . S
H319 C311 0.929 . S
H320 C328 0.929 . S
H321 C330 0.930 . S
H322 C332 0.930 . S
H323 C335 0.929 . S
H324 C338 0.930 . S
H325 C340 0.960 . S
H326 C340 0.960 . S
H327 C340 0.960 . S
C328 H320 0.929 . S
C328 C329 1.377 . S
C328 C330 1.384 . S
C329 C328 1.377 . S
C329 C335 1.390 . S
C330 H321 0.930 . S
C330 C328 1.384 . S
C330 C331 1.372 . S
C331 C330 1.372 . S
C331 C332 1.400 . S
C331 C336 1.490 . S
C332 H322 0.930 . S
C332 C331 1.400 . S
C332 C335 1.386 . S
H333 C349 0.930 . S
H334 C350 0.931 . S
C335 H323 0.929 . S
C335 C329 1.390 . S
C335 C332 1.386 . S
C336 C331 1.490 . S
C336 C338 1.395 . S
C336 C339 1.403 . S
H337 C343 0.930 . S
C338 H324 0.930 . S
C338 C336 1.395 . S
C338 C341 1.403 . S
C339 C336 1.403 . S
C339 C340 1.524 . S
C339 C343 1.400 . S
C340 H325 0.960 . S
C340 H326 0.960 . S
C340 H327 0.960 . S
C340 C339 1.524 . S
C341 C338 1.403 . S
C341 C342 1.392 . S
C341 C345 1.495 . S
C342 C341 1.392 . S
C342 C343 1.385 . S
C342 C344 1.478 . S
C343 H337 0.930 . S
C343 C339 1.400 . S
C343 C342 1.385 . S
C344 C342 1.478 . S
C344 C346 1.381 . S
C344 C350 1.383 . S
C345 C341 1.495 . S
C345 H351 0.959 . S
C345 H352 0.961 . S
C345 H353 0.960 . S
C346 C344 1.381 . S
C346 C347 1.394 . S
C346 H354 0.930 . S
C347 C346 1.394 . S
C347 C348 1.383 . S
C347 H355 0.929 . S
C348 C347 1.383 . S
C348 C349 1.377 . S
C349 H333 0.930 . S
C349 C348 1.377 . S
C349 C350 1.379 . S
C350 H334 0.931 . S
C350 C344 1.383 . S
C350 C349 1.379 . S
H351 C345 0.959 . S
H352 C345 0.961 . S
H353 C345 0.960 . S
H354 C346 0.930 . S
H355 C347 0.929 . S
H356 C364 0.929 . S
H357 C366 0.930 . S
H358 C368 0.930 . S
H359 C371 0.929 . S
H360 C374 0.930 . S
H361 C376 0.960 . S
H362 C376 0.960 . S
H363 C376 0.960 . S
C364 H356 0.929 . S
C364 C365 1.377 . S
C364 C366 1.384 . S
C365 C364 1.377 . S
C365 C371 1.390 . S
C366 H357 0.930 . S
C366 C364 1.384 . S
C366 C367 1.372 . S
C367 C366 1.372 . S
C367 C368 1.400 . S
C367 C372 1.490 . S
C368 H358 0.930 . S
C368 C367 1.400 . S
C368 C371 1.386 . S
H369 C385 0.930 . S
H370 C386 0.931 1_455 S
C371 H359 0.929 . S
C371 C365 1.390 . S
C371 C368 1.386 . S
C372 C367 1.490 . S
C372 C374 1.395 . S
C372 C375 1.403 . S
H373 C379 0.930 . S
C374 H360 0.930 . S
C374 C372 1.395 . S
C374 C377 1.403 . S
C375 C372 1.403 . S
C375 C376 1.524 . S
C375 C379 1.400 . S
C376 H361 0.960 . S
C376 H362 0.960 . S
C376 H363 0.960 . S
C376 C375 1.524 . S
C377 C374 1.403 . S
C377 C378 1.392 . S
C377 C381 1.495 . S
C378 C377 1.392 . S
C378 C379 1.385 . S
C378 C380 1.478 . S
C379 H373 0.930 . S
C379 C375 1.400 . S
C379 C378 1.385 . S
C380 C378 1.478 . S
C380 C382 1.381 . S
C380 C386 1.383 . S
C381 C377 1.495 . S
C381 H387 0.959 . S
C381 H388 0.961 . S
C381 H389 0.960 . S
C382 C380 1.381 . S
C382 C383 1.394 . S
C382 H390 0.930 . S
C383 C382 1.394 . S
C383 C384 1.383 . S
C383 H391 0.929 . S
C384 C383 1.383 . S
C384 C385 1.377 1_655 S
C385 H369 0.930 . S
C385 C384 1.377 1_455 S
C385 C386 1.379 1_455 S
C386 H370 0.931 1_655 S
C386 C380 1.383 . S
C386 C385 1.379 1_655 S
H387 C381 0.959 . S
H388 C381 0.961 . S
H389 C381 0.960 . S
H390 C382 0.930 . S
H391 C383 0.929 . S
H392 C400 0.929 . S
H393 C402 0.930 . S
H394 C404 0.930 . S
H395 C407 0.929 . S
H396 C410 0.930 . S
H397 C412 0.960 . S
H398 C412 0.960 . S
H399 C412 0.960 . S
C400 H392 0.929 . S
C400 C401 1.377 . S
C400 C402 1.384 . S
C401 C400 1.377 . S
C401 C407 1.390 . S
C402 H393 0.930 . S
C402 C400 1.384 . S
C402 C403 1.372 . S
C403 C402 1.372 . S
C403 C404 1.400 . S
C403 C408 1.490 . S
C404 H394 0.930 . S
C404 C403 1.400 . S
C404 C407 1.386 . S
H405 C421 0.930 . S
H406 C422 0.931 . S
C407 H395 0.929 . S
C407 C401 1.390 . S
C407 C404 1.386 . S
C408 C403 1.490 . S
C408 C410 1.395 . S
C408 C411 1.403 . S
H409 C415 0.930 . S
C410 H396 0.930 . S
C410 C408 1.395 . S
C410 C413 1.403 . S
C411 C408 1.403 . S
C411 C412 1.524 . S
C411 C415 1.400 . S
C412 H397 0.960 . S
C412 H398 0.960 . S
C412 H399 0.960 . S
C412 C411 1.524 . S
C413 C410 1.403 . S
C413 C414 1.392 . S
C413 C417 1.495 . S
C414 C413 1.392 . S
C414 C415 1.385 . S
C414 C416 1.478 . S
C415 H409 0.930 . S
C415 C411 1.400 . S
C415 C414 1.385 . S
C416 C414 1.478 . S
C416 C418 1.381 . S
C416 C422 1.383 . S
C417 C413 1.495 . S
C417 H423 0.959 . S
C417 H424 0.961 . S
C417 H425 0.960 . S
C418 C416 1.381 . S
C418 C419 1.394 . S
C418 H426 0.930 . S
C419 C418 1.394 . S
C419 C420 1.383 . S
C419 H427 0.929 . S
C420 C419 1.383 . S
C420 C421 1.377 . S
C421 H405 0.930 . S
C421 C420 1.377 . S
C421 C422 1.379 . S
C422 H406 0.931 . S
C422 C416 1.383 . S
C422 C421 1.379 . S
H423 C417 0.959 . S
H424 C417 0.961 . S
H425 C417 0.960 . S
H426 C418 0.930 . S
H427 C419 0.929 . S
H428 C436 0.929 . S
H429 C438 0.930 . S
H430 C440 0.930 . S
H431 C443 0.929 . S
H432 C446 0.930 . S
H433 C448 0.960 . S
H434 C448 0.960 . S
H435 C448 0.960 . S
C436 H428 0.929 . S
C436 C437 1.377 . S
C436 C438 1.384 . S
C437 C436 1.377 . S
C437 C443 1.390 . S
C438 H429 0.930 . S
C438 C436 1.384 . S
C438 C439 1.372 . S
C439 C438 1.372 . S
C439 C440 1.400 . S
C439 C444 1.490 . S
C440 H430 0.930 . S
C440 C439 1.400 . S
C440 C443 1.386 . S
H441 C457 0.930 . S
H442 C458 0.931 . S
C443 H431 0.929 . S
C443 C437 1.390 . S
C443 C440 1.386 . S
C444 C439 1.490 . S
C444 C446 1.395 . S
C444 C447 1.403 . S
H445 C451 0.930 . S
C446 H432 0.930 . S
C446 C444 1.395 . S
C446 C449 1.403 . S
C447 C444 1.403 . S
C447 C448 1.524 . S
C447 C451 1.400 . S
C448 H433 0.960 . S
C448 H434 0.960 . S
C448 H435 0.960 . S
C448 C447 1.524 . S
C449 C446 1.403 . S
C449 C450 1.392 . S
C449 C453 1.495 . S
C450 C449 1.392 . S
C450 C451 1.385 . S
C450 C452 1.478 . S
C451 H445 0.930 . S
C451 C447 1.400 . S
C451 C450 1.385 . S
C452 C450 1.478 . S
C452 C454 1.381 . S
C452 C458 1.383 . S
C453 C449 1.495 . S
C453 H459 0.959 . S
C453 H460 0.961 . S
C453 H461 0.960 . S
C454 C452 1.381 . S
C454 C455 1.394 . S
C454 H462 0.930 . S
C455 C454 1.394 . S
C455 C456 1.383 . S
C455 H463 0.896 1_565 S
C456 C455 1.383 . S
C456 C457 1.377 . S
C457 H441 0.930 . S
C457 C456 1.377 . S
C457 C458 1.379 . S
C458 H442 0.931 . S
C458 C452 1.383 . S
C458 C457 1.379 . S
H459 C453 0.959 . S
H460 C453 0.961 . S
H461 C453 0.960 . S
H462 C454 0.930 . S
H463 C455 0.896 1_545 S
H464 C472 0.929 . S
H465 C474 0.930 . S
H466 C476 0.930 . S
H467 C479 0.929 . S
H468 C482 0.930 . S
H469 C484 0.960 . S
H470 C484 0.960 . S
H471 C484 0.960 . S
C472 H464 0.929 . S
C472 C473 1.377 . S
C472 C474 1.384 . S
C473 C472 1.377 . S
C473 C479 1.390 . S
C474 H465 0.930 . S
C474 C472 1.384 . S
C474 C475 1.372 . S
C475 C474 1.372 . S
C475 C476 1.400 . S
C475 C480 1.490 . S
C476 H466 0.930 . S
C476 C475 1.400 . S
C476 C479 1.386 . S
H477 C493 0.930 . S
H478 C494 0.931 . S
C479 H467 0.929 . S
C479 C473 1.390 . S
C479 C476 1.386 . S
C480 C475 1.490 . S
C480 C482 1.395 . S
C480 C483 1.403 . S
H481 C487 0.930 . S
C482 H468 0.930 . S
C482 C480 1.395 . S
C482 C485 1.403 . S
C483 C480 1.403 . S
C483 C484 1.524 . S
C483 C487 1.400 . S
C484 H469 0.960 . S
C484 H470 0.960 . S
C484 H471 0.960 . S
C484 C483 1.524 . S
C485 C482 1.403 . S
C485 C486 1.392 . S
C485 C489 1.495 . S
C486 C485 1.392 . S
C486 C487 1.385 . S
C486 C488 1.478 . S
C487 H481 0.930 . S
C487 C483 1.400 . S
C487 C486 1.385 . S
C488 C486 1.478 . S
C488 C490 1.381 . S
C488 C494 1.383 . S
C489 C485 1.495 . S
C489 H495 0.959 . S
C489 H496 0.961 . S
C489 H497 0.960 1_556 S
C490 C488 1.381 . S
C490 C491 1.386 1_556 S
C490 H498 0.930 1_556 S
C491 C490 1.386 1_554 S
C491 C492 1.366 1_554 S
C491 H499 0.956 . S
C492 C491 1.366 1_556 S
C492 C493 1.377 . S
C493 H477 0.930 . S
C493 C492 1.377 . S
C493 C494 1.379 . S
C494 H478 0.931 . S
C494 C488 1.383 . S
C494 C493 1.379 . S
H495 C489 0.959 . S
H496 C489 0.961 . S
H497 C489 0.960 1_554 S
H498 C490 0.930 1_554 S
H499 C491 0.956 . S
H500 C508 0.929 . S
H501 C510 0.930 . S
H502 C512 0.930 . S
H503 C515 0.929 . S
H504 C518 0.930 . S
H505 C520 0.960 . S
H506 C520 0.960 . S
H507 C520 0.960 . S
C508 H500 0.929 . S
C508 C509 1.377 . S
C508 C510 1.384 . S
C509 C508 1.377 . S
C509 C515 1.390 . S
C510 H501 0.930 . S
C510 C508 1.384 . S
C510 C511 1.372 . S
C511 C510 1.372 . S
C511 C512 1.400 . S
C511 C516 1.490 . S
C512 H502 0.930 . S
C512 C511 1.400 . S
C512 C515 1.386 . S
H513 C529 0.930 . S
H514 C530 0.931 . S
C515 H503 0.929 . S
C515 C509 1.390 . S
C515 C512 1.386 . S
C516 C511 1.490 . S
C516 C518 1.395 . S
C516 C519 1.403 . S
H517 C523 0.930 . S
C518 H504 0.930 . S
C518 C516 1.395 . S
C518 C521 1.403 . S
C519 C516 1.403 . S
C519 C520 1.524 . S
C519 C523 1.400 . S
C520 H505 0.960 . S
C520 H506 0.960 . S
C520 H507 0.960 . S
C520 C519 1.524 . S
C521 C518 1.403 . S
C521 C522 1.392 . S
C521 C525 1.495 . S
C522 C521 1.392 . S
C522 C523 1.385 . S
C522 C524 1.478 . S
C523 H517 0.930 . S
C523 C519 1.400 . S
C523 C522 1.385 . S
C524 C522 1.478 . S
C524 C526 1.381 . S
C524 C530 1.383 . S
C525 C521 1.495 . S
C525 H531 0.959 . S
C525 H532 0.961 . S
C525 H533 0.960 . S
C526 C524 1.381 . S
C526 C527 1.394 . S
C526 H534 0.930 . S
C527 C526 1.394 . S
C527 C528 1.383 . S
C527 H535 0.929 . S
C528 C527 1.383 . S
C528 C529 1.377 . S
C529 H513 0.930 . S
C529 C528 1.377 . S
C529 C530 1.379 . S
C530 H514 0.931 . S
C530 C524 1.383 . S
C530 C529 1.379 . S
H531 C525 0.959 . S
H532 C525 0.961 . S
H533 C525 0.960 . S
H534 C526 0.930 . S
H535 C527 0.929 . S
H536 C544 0.929 . S
H537 C546 0.930 . S
H538 C548 0.930 . S
H539 C551 0.929 . S
H540 C554 0.930 . S
H541 C556 0.960 . S
H542 C556 0.960 . S
H543 C556 0.960 . S
C544 H536 0.929 . S
C544 C545 1.377 . S
C544 C546 1.384 . S
C545 C544 1.377 . S
C545 C551 1.390 . S
C546 H537 0.930 . S
C546 C544 1.384 . S
C546 C547 1.372 . S
C547 C546 1.372 . S
C547 C548 1.400 . S
C547 C552 1.490 . S
C548 H538 0.930 . S
C548 C547 1.400 . S
C548 C551 1.386 . S
H549 C565 0.930 . S
H550 C566 0.931 . S
C551 H539 0.929 . S
C551 C545 1.390 . S
C551 C548 1.386 . S
C552 C547 1.490 . S
C552 C554 1.395 . S
C552 C555 1.403 . S
H553 C559 0.930 . S
C554 H540 0.930 . S
C554 C552 1.395 . S
C554 C557 1.403 . S
C555 C552 1.403 . S
C555 C556 1.524 . S
C555 C559 1.400 . S
C556 H541 0.960 . S
C556 H542 0.960 . S
C556 H543 0.960 . S
C556 C555 1.524 . S
C557 C554 1.403 . S
C557 C558 1.392 . S
C557 C561 1.495 . S
C558 C557 1.392 . S
C558 C559 1.385 . S
C558 C560 1.478 . S
C559 H553 0.930 . S
C559 C555 1.400 . S
C559 C558 1.385 . S
C560 C558 1.478 . S
C560 C562 1.381 . S
C560 C566 1.383 . S
C561 C557 1.495 . S
C561 H567 0.959 . S
C561 H568 0.961 . S
C561 H569 0.960 . S
C562 C560 1.381 . S
C562 C563 1.394 . S
C562 H570 0.930 . S
C563 C562 1.394 . S
C563 C564 1.383 . S
C563 H571 0.929 . S
C564 C563 1.383 . S
C564 C565 1.377 . S
C565 H549 0.930 . S
C565 C564 1.377 . S
C565 C566 1.379 . S
C566 H550 0.931 . S
C566 C560 1.383 . S
C566 C565 1.379 . S
H567 C561 0.959 . S
H568 C561 0.961 . S
H569 C561 0.960 . S
H570 C562 0.930 . S
H571 C563 0.929 . S
H572 C580 0.929 . S
H573 C582 0.930 . S
H574 C584 0.930 . S
H575 C587 0.929 . S
H576 C590 0.930 . S
H577 C592 0.960 . S
H578 C592 0.960 . S
H579 C592 0.960 . S
C580 H572 0.929 . S
C580 C581 1.377 . S
C580 C582 1.384 . S
C581 C580 1.377 . S
C581 C587 1.390 . S
C582 H573 0.930 . S
C582 C580 1.384 . S
C582 C583 1.372 . S
C583 C582 1.372 . S
C583 C584 1.400 . S
C583 C588 1.490 . S
C584 H574 0.930 . S
C584 C583 1.400 . S
C584 C587 1.386 . S
H585 C601 0.930 . S
H586 C602 0.931 . S
C587 H575 0.929 . S
C587 C581 1.390 . S
C587 C584 1.386 . S
C588 C583 1.490 . S
C588 C590 1.395 . S
C588 C591 1.403 . S
H589 C595 0.930 . S
C590 H576 0.930 . S
C590 C588 1.395 . S
C590 C593 1.403 . S
C591 C588 1.403 . S
C591 C592 1.524 . S
C591 C595 1.400 . S
C592 H577 0.960 . S
C592 H578 0.960 . S
C592 H579 0.960 . S
C592 C591 1.524 . S
C593 C590 1.403 . S
C593 C594 1.392 . S
C593 C597 1.495 . S
C594 C593 1.392 . S
C594 C595 1.385 . S
C594 C596 1.478 . S
C595 H589 0.930 . S
C595 C591 1.400 . S
C595 C594 1.385 . S
C596 C594 1.478 . S
C596 C598 1.381 1_556 S
C596 C602 1.383 . S
C597 C593 1.495 . S
C597 H603 0.959 . S
C597 H604 0.961 . S
C597 H605 0.960 1_556 S
C598 C596 1.381 1_554 S
C598 C599 1.394 . S
C598 H606 0.930 . S
C599 C598 1.394 . S
C599 C600 1.383 . S
C599 H607 0.929 . S
C600 C599 1.383 . S
C600 C601 1.377 1_554 S
C601 H585 0.930 . S
C601 C600 1.377 1_556 S
C601 C602 1.379 . S
C602 H586 0.931 . S
C602 C596 1.383 . S
C602 C601 1.379 . S
H603 C597 0.959 . S
H604 C597 0.961 . S
H605 C597 0.960 1_554 S
H606 C598 0.930 . S
H607 C599 0.929 . S
H608 C616 0.929 . S
H609 C618 0.930 . S
H610 C620 0.930 . S
H611 C623 0.929 . S
H612 C626 0.930 . S
H613 C628 0.960 . S
H614 C628 0.960 . S
H615 C628 0.960 . S
C616 H608 0.929 . S
C616 C617 1.377 . S
C616 C618 1.384 . S
C617 C616 1.377 . S
C617 C623 1.390 . S
C618 H609 0.930 . S
C618 C616 1.384 . S
C618 C619 1.372 . S
C619 C618 1.372 . S
C619 C620 1.400 . S
C619 C624 1.490 . S
C620 H610 0.930 . S
C620 C619 1.400 . S
C620 C623 1.386 . S
H621 C637 0.930 1_455 S
H622 C638 0.931 . S
C623 H611 0.929 . S
C623 C617 1.390 . S
C623 C620 1.386 . S
C624 C619 1.490 . S
C624 C626 1.395 . S
C624 C627 1.403 . S
H625 C631 0.930 . S
C626 H612 0.930 . S
C626 C624 1.395 . S
C626 C629 1.403 . S
C627 C624 1.403 . S
C627 C628 1.524 . S
C627 C631 1.400 . S
C628 H613 0.960 . S
C628 H614 0.960 . S
C628 H615 0.960 . S
C628 C627 1.524 . S
C629 C626 1.403 . S
C629 C630 1.392 . S
C629 C633 1.495 . S
C630 C629 1.392 . S
C630 C631 1.385 . S
C630 C632 1.478 . S
C631 H625 0.930 . S
C631 C627 1.400 . S
C631 C630 1.385 . S
C632 C630 1.478 . S
C632 C634 1.381 . S
C632 C638 1.383 . S
C633 C629 1.495 . S
C633 H639 0.959 . S
C633 H640 0.961 . S
C633 H641 0.960 . S
C634 C632 1.381 . S
C634 C635 1.394 . S
C634 H642 0.930 . S
C635 C634 1.394 . S
C635 C636 1.383 . S
C635 H643 0.929 . S
C636 C635 1.383 . S
C636 C637 1.377 . S
C637 H621 0.930 1_655 S
C637 C636 1.377 . S
C637 C638 1.379 . S
C638 H622 0.931 . S
C638 C632 1.383 . S
C638 C637 1.379 . S
H639 C633 0.959 . S
H640 C633 0.961 . S
H641 C633 0.960 . S
H642 C634 0.930 . S
H643 C635 0.929 . S
H644 C652 0.929 . S
H645 C654 0.930 . S
H646 C656 0.930 . S
H647 C659 0.929 . S
H648 C662 0.930 . S
H649 C664 0.960 . S
H650 C664 0.960 . S
H651 C664 0.960 . S
C652 H644 0.929 . S
C652 C653 1.377 . S
C652 C654 1.384 . S
C653 C652 1.377 . S
C653 C659 1.390 . S
C654 H645 0.930 . S
C654 C652 1.384 . S
C654 C655 1.372 . S
C655 C654 1.372 . S
C655 C656 1.400 . S
C655 C660 1.490 . S
C656 H646 0.930 . S
C656 C655 1.400 . S
C656 C659 1.386 . S
H657 C673 0.930 . S
H658 C674 0.931 . S
C659 H647 0.929 . S
C659 C653 1.390 . S
C659 C656 1.386 . S
C660 C655 1.490 . S
C660 C662 1.395 . S
C660 C663 1.403 . S
H661 C667 0.930 . S
C662 H648 0.930 . S
C662 C660 1.395 . S
C662 C665 1.403 . S
C663 C660 1.403 . S
C663 C664 1.524 . S
C663 C667 1.400 . S
C664 H649 0.960 . S
C664 H650 0.960 . S
C664 H651 0.960 . S
C664 C663 1.524 . S
C665 C662 1.403 . S
C665 C666 1.392 . S
C665 C669 1.495 . S
C666 C665 1.392 . S
C666 C667 1.385 . S
C666 C668 1.478 . S
C667 H661 0.930 . S
C667 C663 1.400 . S
C667 C666 1.385 . S
C668 C666 1.478 . S
C668 C670 1.381 . S
C668 C674 1.383 . S
C669 C665 1.495 . S
C669 H675 0.959 . S
C669 H676 0.961 . S
C669 H677 0.960 . S
C670 C668 1.381 . S
C670 C671 1.394 . S
C670 H678 0.930 . S
C671 C670 1.394 . S
C671 C672 1.383 . S
C671 H679 0.929 . S
C672 C671 1.383 . S
C672 C673 1.377 . S
C673 H657 0.930 . S
C673 C672 1.377 . S
C673 C674 1.379 . S
C674 H658 0.931 . S
C674 C668 1.383 . S
C674 C673 1.379 . S
H675 C669 0.959 . S
H676 C669 0.961 . S
H677 C669 0.960 . S
H678 C670 0.930 . S
H679 C671 0.929 . S
H680 C688 0.929 . S
H681 C690 0.930 . S
H682 C692 0.930 . S
H683 C695 0.929 . S
H684 C698 0.930 . S
H685 C700 0.960 . S
H686 C700 0.960 . S
H687 C700 0.960 . S
C688 H680 0.929 . S
C688 C689 1.377 . S
C688 C690 1.384 . S
C689 C688 1.377 . S
C689 C695 1.390 . S
C690 H681 0.930 . S
C690 C688 1.384 . S
C690 C691 1.372 . S
C691 C690 1.372 . S
C691 C692 1.400 . S
C691 C696 1.490 . S
C692 H682 0.930 . S
C692 C691 1.400 . S
C692 C695 1.386 . S
H693 C709 0.930 . S
H694 C710 0.931 . S
C695 H683 0.929 . S
C695 C689 1.390 . S
C695 C692 1.386 . S
C696 C691 1.490 . S
C696 C698 1.395 . S
C696 C699 1.403 . S
H697 C703 0.930 . S
C698 H684 0.930 . S
C698 C696 1.395 . S
C698 C701 1.403 . S
C699 C696 1.403 . S
C699 C700 1.524 . S
C699 C703 1.400 . S
C700 H685 0.960 . S
C700 H686 0.960 . S
C700 H687 0.960 . S
C700 C699 1.524 . S
C701 C698 1.403 . S
C701 C702 1.392 . S
C701 C705 1.495 . S
C702 C701 1.392 . S
C702 C703 1.385 . S
C702 C704 1.478 . S
C703 H697 0.930 . S
C703 C699 1.400 . S
C703 C702 1.385 . S
C704 C702 1.478 . S
C704 C706 1.381 . S
C704 C710 1.383 . S
C705 C701 1.495 . S
C705 H711 0.959 . S
C705 H712 0.961 . S
C705 H713 0.960 . S
C706 C704 1.381 . S
C706 C707 1.394 . S
C706 H714 0.930 . S
C707 C706 1.394 . S
C707 C708 1.383 . S
C707 H715 0.929 . S
C708 C707 1.383 . S
C708 C709 1.377 . S
C709 H693 0.930 . S
C709 C708 1.377 . S
C709 C710 1.379 . S
C710 H694 0.931 . S
C710 C704 1.383 . S
C710 C709 1.379 . S
H711 C705 0.959 . S
H712 C705 0.961 . S
H713 C705 0.960 . S
H714 C706 0.930 . S
H715 C707 0.929 . S
H716 C724 0.929 . S
H717 C726 0.930 . S
H718 C728 0.930 . S
H719 C731 0.929 . S
H720 C734 0.930 . S
H721 C736 0.960 . S
H722 C736 0.960 . S
H723 C736 0.960 . S
C724 H716 0.929 . S
C724 C725 1.377 . S
C724 C726 1.384 . S
C725 C724 1.377 . S
C725 C731 1.390 . S
C726 H717 0.930 . S
C726 C724 1.384 . S
C726 C727 1.372 . S
C727 C726 1.372 . S
C727 C728 1.400 . S
C727 C732 1.490 . S
C728 H718 0.930 . S
C728 C727 1.400 . S
C728 C731 1.386 . S
H729 C745 0.930 . S
H730 C746 0.931 . S
C731 H719 0.929 . S
C731 C725 1.390 . S
C731 C728 1.386 . S
C732 C727 1.490 . S
C732 C734 1.395 . S
C732 C735 1.403 . S
H733 C739 0.930 . S
C734 H720 0.930 . S
C734 C732 1.395 . S
C734 C737 1.403 . S
C735 C732 1.403 . S
C735 C736 1.524 . S
C735 C739 1.400 . S
C736 H721 0.960 . S
C736 H722 0.960 . S
C736 H723 0.960 . S
C736 C735 1.524 . S
C737 C734 1.403 . S
C737 C738 1.392 . S
C737 C741 1.495 . S
C738 C737 1.392 . S
C738 C739 1.385 . S
C738 C740 1.478 . S
C739 H733 0.930 . S
C739 C735 1.400 . S
C739 C738 1.385 . S
C740 C738 1.478 . S
C740 C742 1.381 . S
C740 C746 1.383 . S
C741 C737 1.495 . S
C741 H747 0.959 . S
C741 H748 0.961 . S
C741 H749 0.960 . S
C742 C740 1.381 . S
C742 C743 1.394 . S
C742 H750 0.930 . S
C743 C742 1.394 . S
C743 C744 1.383 . S
C743 H751 0.929 . S
C744 C743 1.383 . S
C744 C745 1.377 . S
C745 H729 0.930 . S
C745 C744 1.377 . S
C745 C746 1.379 . S
C746 H730 0.931 . S
C746 C740 1.383 . S
C746 C745 1.379 . S
H747 C741 0.959 . S
H748 C741 0.961 . S
H749 C741 0.960 . S
H750 C742 0.930 . S
H751 C743 0.929 . S
H752 C760 0.929 . S
H753 C762 0.930 . S
H754 C764 0.930 . S
H755 C767 0.929 . S
H756 C770 0.930 . S
H757 C772 0.960 . S
H758 C772 0.960 . S
H759 C772 0.960 . S
C760 H752 0.929 . S
C760 C761 1.377 . S
C760 C762 1.384 . S
C761 C760 1.377 . S
C761 C767 1.390 . S
C762 H753 0.930 . S
C762 C760 1.384 . S
C762 C763 1.372 . S
C763 C762 1.372 . S
C763 C764 1.400 . S
C763 C768 1.490 . S
C764 H754 0.930 . S
C764 C763 1.400 . S
C764 C767 1.386 . S
H765 C781 0.930 . S
H766 C782 0.931 . S
C767 H755 0.929 . S
C767 C761 1.390 . S
C767 C764 1.386 . S
C768 C763 1.490 . S
C768 C770 1.395 . S
C768 C771 1.403 . S
H769 C775 0.930 . S
C770 H756 0.930 . S
C770 C768 1.395 . S
C770 C773 1.403 . S
C771 C768 1.403 . S
C771 C772 1.524 . S
C771 C775 1.400 . S
C772 H757 0.960 . S
C772 H758 0.960 . S
C772 H759 0.960 . S
C772 C771 1.524 . S
C773 C770 1.403 . S
C773 C774 1.392 . S
C773 C777 1.495 . S
C774 C773 1.392 . S
C774 C775 1.385 . S
C774 C776 1.478 . S
C775 H769 0.930 . S
C775 C771 1.400 . S
C775 C774 1.385 . S
C776 C774 1.478 . S
C776 C778 1.381 . S
C776 C782 1.383 . S
C777 C773 1.495 . S
C777 H783 0.959 . S
C777 H784 0.961 . S
C777 H785 0.960 . S
C778 C776 1.381 . S
C778 C779 1.394 . S
C778 H786 0.930 . S
C779 C778 1.394 . S
C779 C780 1.383 . S
C779 H787 0.929 . S
C780 C779 1.383 . S
C780 C781 1.377 . S
C781 H765 0.930 . S
C781 C780 1.377 . S
C781 C782 1.379 . S
C782 H766 0.931 . S
C782 C776 1.383 . S
C782 C781 1.379 . S
H783 C777 0.959 . S
H784 C777 0.961 . S
H785 C777 0.960 . S
H786 C778 0.930 . S
H787 C779 0.929 . S
H788 C796 0.929 . S
H789 C798 0.930 . S
H790 C800 0.930 . S
H791 C803 0.929 . S
H792 C806 0.930 . S
H793 C808 0.960 . S
H794 C808 0.960 . S
H795 C808 0.960 . S
C796 H788 0.929 . S
C796 C797 1.377 . S
C796 C798 1.384 . S
C797 C796 1.377 . S
C797 C803 1.390 . S
C798 H789 0.930 . S
C798 C796 1.384 . S
C798 C799 1.372 . S
C799 C798 1.372 . S
C799 C800 1.400 . S
C799 C804 1.490 . S
C800 H790 0.930 . S
C800 C799 1.400 . S
C800 C803 1.386 . S
H801 C817 0.930 . S
H802 C818 0.931 . S
C803 H791 0.929 . S
C803 C797 1.390 . S
C803 C800 1.386 . S
C804 C799 1.490 . S
C804 C806 1.395 . S
C804 C807 1.403 . S
H805 C811 0.930 . S
C806 H792 0.930 . S
C806 C804 1.395 . S
C806 C809 1.403 . S
C807 C804 1.403 . S
C807 C808 1.524 . S
C807 C811 1.400 . S
C808 H793 0.960 . S
C808 H794 0.960 . S
C808 H795 0.960 . S
C808 C807 1.524 . S
C809 C806 1.403 . S
C809 C810 1.392 . S
C809 C813 1.495 . S
C810 C809 1.392 . S
C810 C811 1.385 . S
C810 C812 1.478 . S
C811 H805 0.930 . S
C811 C807 1.400 . S
C811 C810 1.385 . S
C812 C810 1.478 . S
C812 C814 1.381 . S
C812 C818 1.383 . S
C813 C809 1.495 . S
C813 H819 0.959 . S
C813 H820 0.961 . S
C813 H821 0.960 . S
C814 C812 1.381 . S
C814 C815 1.394 . S
C814 H822 0.930 . S
C815 C814 1.394 . S
C815 C816 1.383 . S
C815 H823 0.929 . S
C816 C815 1.383 . S
C816 C817 1.377 . S
C817 H801 0.930 . S
C817 C816 1.377 . S
C817 C818 1.379 . S
C818 H802 0.931 . S
C818 C812 1.383 . S
C818 C817 1.379 . S
H819 C813 0.959 . S
H820 C813 0.961 . S
H821 C813 0.960 . S
H822 C814 0.930 . S
H823 C815 0.929 . S
H824 C832 0.929 . S
H825 C834 0.930 . S
H826 C836 0.930 . S
H827 C839 0.929 . S
H828 C842 0.930 . S
H829 C844 0.960 . S
H830 C844 0.960 . S
H831 C844 0.960 . S
C832 H824 0.929 . S
C832 C833 1.377 . S
C832 C834 1.384 . S
C833 C832 1.377 . S
C833 C839 1.390 . S
C834 H825 0.930 . S
C834 C832 1.384 . S
C834 C835 1.372 . S
C835 C834 1.372 . S
C835 C836 1.400 . S
C835 C840 1.490 . S
C836 H826 0.930 . S
C836 C835 1.400 . S
C836 C839 1.386 . S
H837 C853 0.930 1_545 S
H838 C854 0.931 . S
C839 H827 0.929 . S
C839 C833 1.390 . S
C839 C836 1.386 . S
C840 C835 1.490 . S
C840 C842 1.395 . S
C840 C843 1.403 . S
H841 C847 0.930 . S
C842 H828 0.930 . S
C842 C840 1.395 . S
C842 C845 1.403 . S
C843 C840 1.403 . S
C843 C844 1.524 . S
C843 C847 1.400 . S
C844 H829 0.960 . S
C844 H830 0.960 . S
C844 H831 0.960 . S
C844 C843 1.524 . S
C845 C842 1.403 . S
C845 C846 1.392 . S
C845 C849 1.495 1_556 S
C846 C845 1.392 . S
C846 C847 1.385 . S
C846 C848 1.478 . S
C847 H841 0.930 . S
C847 C843 1.400 . S
C847 C846 1.385 . S
C848 C846 1.478 . S
C848 C850 1.372 1_556 S
C848 C854 1.383 . S
C849 C845 1.495 1_554 S
C849 H855 0.959 . S
C849 H856 0.961 . S
C849 H857 0.960 . S
C850 C848 1.372 1_554 S
C850 C851 1.406 . S
C850 H858 0.927 1_554 S
C851 C850 1.406 . S
C851 C852 1.383 . S
C851 H859 0.929 . S
C852 C851 1.383 . S
C852 C853 1.377 . S
C853 H837 0.930 1_565 S
C853 C852 1.377 . S
C853 C854 1.379 1_554 S
C854 H838 0.931 . S
C854 C848 1.383 . S
C854 C853 1.379 1_556 S
H855 C849 0.959 . S
H856 C849 0.961 . S
H857 C849 0.960 . S
H858 C850 0.927 1_556 S
H859 C851 0.929 . S
H860 C868 0.929 . S
H861 C870 0.930 . S
H862 C872 0.930 . S
H863 C875 0.929 . S
H864 C878 0.930 . S
H865 C880 0.960 . S
H866 C880 0.960 . S
H867 C880 0.960 . S
C868 H860 0.929 . S
C868 C869 1.377 . S
C868 C870 1.384 . S
C869 C868 1.377 . S
C869 C875 1.390 . S
C870 H861 0.930 . S
C870 C868 1.384 . S
C870 C871 1.372 . S
C871 C870 1.372 . S
C871 C872 1.400 . S
C871 C876 1.490 . S
C872 H862 0.930 . S
C872 C871 1.400 . S
C872 C875 1.386 . S
H873 C889 0.930 . S
H874 C890 0.931 . S
C875 H863 0.929 . S
C875 C869 1.390 . S
C875 C872 1.386 . S
C876 C871 1.490 . S
C876 C878 1.395 . S
C876 C879 1.403 . S
H877 C883 0.930 . S
C878 H864 0.930 . S
C878 C876 1.395 . S
C878 C881 1.403 . S
C879 C876 1.403 . S
C879 C880 1.524 . S
C879 C883 1.400 . S
C880 H865 0.960 . S
C880 H866 0.960 . S
C880 H867 0.960 . S
C880 C879 1.524 . S
C881 C878 1.403 . S
C881 C882 1.392 . S
C881 C885 1.495 . S
C882 C881 1.392 . S
C882 C883 1.385 . S
C882 C884 1.478 . S
C883 H877 0.930 . S
C883 C879 1.400 . S
C883 C882 1.385 . S
C884 C882 1.478 . S
C884 C886 1.381 . S
C884 C890 1.383 . S
C885 C881 1.495 . S
C885 H891 0.959 . S
C885 H892 0.961 . S
C885 H893 0.960 . S
C886 C884 1.381 . S
C886 C887 1.394 . S
C886 H894 0.930 . S
C887 C886 1.394 . S
C887 C888 1.383 . S
C887 H895 0.929 . S
C888 C887 1.383 . S
C888 C889 1.377 . S
C889 H873 0.930 . S
C889 C888 1.377 . S
C889 C890 1.379 . S
C890 H874 0.931 . S
C890 C884 1.383 . S
C890 C889 1.379 . S
H891 C885 0.959 . S
H892 C885 0.961 . S
H893 C885 0.960 . S
H894 C886 0.930 . S
H895 C887 0.929 . S
H896 C904 0.929 . S
H897 C906 0.930 . S
H898 C908 0.930 . S
H899 C911 0.929 . S
H900 C914 0.930 . S
H901 C916 0.960 . S
H902 C916 0.960 . S
H903 C916 0.960 . S
C904 H896 0.929 . S
C904 C905 1.377 . S
C904 C906 1.384 . S
C905 C904 1.377 . S
C905 C911 1.390 . S
C906 H897 0.930 . S
C906 C904 1.384 . S
C906 C907 1.372 . S
C907 C906 1.372 . S
C907 C908 1.400 . S
C907 C912 1.490 . S
C908 H898 0.930 . S
C908 C907 1.400 . S
C908 C911 1.386 . S
H909 C925 0.930 . S
H910 C926 0.931 . S
C911 H899 0.929 . S
C911 C905 1.390 . S
C911 C908 1.386 . S
C912 C907 1.490 . S
C912 C914 1.395 . S
C912 C915 1.403 . S
H913 C919 0.930 . S
C914 H900 0.930 . S
C914 C912 1.395 . S
C914 C917 1.403 . S
C915 C912 1.403 . S
C915 C916 1.524 . S
C915 C919 1.400 . S
C916 H901 0.960 . S
C916 H902 0.960 . S
C916 H903 0.960 . S
C916 C915 1.524 . S
C917 C914 1.403 . S
C917 C918 1.392 . S
C917 C921 1.495 . S
C918 C917 1.392 . S
C918 C919 1.385 . S
C918 C920 1.478 . S
C919 H913 0.930 . S
C919 C915 1.400 . S
C919 C918 1.385 . S
C920 C918 1.478 . S
C920 C922 1.381 . S
C920 C926 1.383 . S
C921 C917 1.495 . S
C921 H927 0.959 . S
C921 H928 0.961 . S
C921 H929 0.960 . S
C922 C920 1.381 . S
C922 C923 1.394 . S
C922 H930 0.930 . S
C923 C922 1.394 . S
C923 C924 1.383 . S
C923 H931 0.929 . S
C924 C923 1.383 . S
C924 C925 1.377 . S
C925 H909 0.930 . S
C925 C924 1.377 . S
C925 C926 1.379 . S
C926 H910 0.931 . S
C926 C920 1.383 . S
C926 C925 1.379 . S
H927 C921 0.959 . S
H928 C921 0.961 . S
H929 C921 0.960 . S
H930 C922 0.930 . S
H931 C923 0.929 . S
H932 C940 0.929 . S
H933 C942 0.930 . S
H934 C944 0.930 . S
H935 C947 0.929 . S
H936 C950 0.930 . S
H937 C952 0.960 . S
H938 C952 0.960 . S
H939 C952 0.960 . S
C940 H932 0.929 . S
C940 C941 1.377 . S
C940 C942 1.384 . S
C941 C940 1.377 . S
C941 C947 1.390 . S
C942 H933 0.930 . S
C942 C940 1.384 . S
C942 C943 1.372 . S
C943 C942 1.372 . S
C943 C944 1.400 . S
C943 C948 1.490 . S
C944 H934 0.930 . S
C944 C943 1.400 . S
C944 C947 1.386 . S
H945 C961 0.930 . S
H946 C962 0.931 . S
C947 H935 0.929 . S
C947 C941 1.390 . S
C947 C944 1.386 . S
C948 C943 1.490 . S
C948 C950 1.395 . S
C948 C951 1.403 . S
H949 C955 0.930 . S
C950 H936 0.930 . S
C950 C948 1.395 . S
C950 C953 1.403 . S
C951 C948 1.403 . S
C951 C952 1.524 . S
C951 C955 1.400 . S
C952 H937 0.960 . S
C952 H938 0.960 . S
C952 H939 0.960 . S
C952 C951 1.524 . S
C953 C950 1.403 . S
C953 C954 1.392 . S
C953 C957 1.495 . S
C954 C953 1.392 . S
C954 C955 1.385 . S
C954 C956 1.478 . S
C955 H949 0.930 . S
C955 C951 1.400 . S
C955 C954 1.385 . S
C956 C954 1.478 . S
C956 C958 1.381 . S
C956 C962 1.383 . S
C957 C953 1.495 . S
C957 H963 0.959 . S
C957 H964 0.961 . S
C957 H965 0.960 . S
C958 C956 1.381 . S
C958 C959 1.394 . S
C958 H966 0.930 . S
C959 C958 1.394 . S
C959 C960 1.383 . S
C959 H967 0.929 . S
C960 C959 1.383 . S
C960 C961 1.377 . S
C961 H945 0.930 . S
C961 C960 1.377 . S
C961 C962 1.379 . S
C962 H946 0.931 . S
C962 C956 1.383 . S
C962 C961 1.379 . S
H963 C957 0.959 . S
H964 C957 0.961 . S
H965 C957 0.960 . S
H966 C958 0.930 . S
H967 C959 0.929 . S
H968 C976 0.929 . S
H969 C978 0.930 . S
H970 C980 0.930 . S
H971 C983 0.929 . S
H972 C986 0.930 . S
H973 C988 0.960 . S
H974 C988 0.960 . S
H975 C988 0.960 . S
C976 H968 0.929 . S
C976 C977 1.377 . S
C976 C978 1.384 . S
C977 C976 1.377 . S
C977 C983 1.390 . S
C978 H969 0.930 . S
C978 C976 1.384 . S
C978 C979 1.372 . S
C979 C978 1.372 . S
C979 C980 1.400 . S
C979 C984 1.490 . S
C980 H970 0.930 . S
C980 C979 1.400 . S
C980 C983 1.386 . S
H981 C997 0.930 . S
H982 C998 0.931 . S
C983 H971 0.929 . S
C983 C977 1.390 . S
C983 C980 1.386 . S
C984 C979 1.490 . S
C984 C986 1.395 . S
C984 C987 1.403 . S
H985 C991 0.930 . S
C986 H972 0.930 . S
C986 C984 1.395 . S
C986 C989 1.403 . S
C987 C984 1.403 . S
C987 C988 1.524 . S
C987 C991 1.400 . S
C988 H973 0.960 . S
C988 H974 0.960 . S
C988 H975 0.960 . S
C988 C987 1.524 . S
C989 C986 1.403 . S
C989 C990 1.392 . S
C989 C993 1.495 . S
C990 C989 1.392 . S
C990 C991 1.385 . S
C990 C992 1.478 . S
C991 H985 0.930 . S
C991 C987 1.400 . S
C991 C990 1.385 . S
C992 C990 1.478 . S
C992 C994 1.381 . S
C992 C998 1.383 . S
C993 C989 1.495 . S
C993 H999 0.959 . S
C993 H1000 0.961 . S
C993 H1001 0.960 . S
C994 C992 1.381 . S
C994 C995 1.394 . S
C994 H1002 0.930 . S
C995 C994 1.394 . S
C995 C996 1.383 . S
C995 H1003 0.929 . S
C996 C995 1.383 . S
C996 C997 1.377 . S
C997 H981 0.930 . S
C997 C996 1.377 . S
C997 C998 1.379 . S
C998 H982 0.931 . S
C998 C992 1.383 . S
C998 C997 1.379 . S
H999 C993 0.959 . S
H1000 C993 0.961 . S
H1001 C993 0.960 . S
H1002 C994 0.930 . S
H1003 C995 0.929 . S
H1004 C1012 0.929 . S
H1005 C1014 0.930 . S
H1006 C1016 0.930 . S
H1007 C1019 0.929 . S
H1008 C1022 0.930 . S
H1009 C1024 0.960 . S
H1010 C1024 0.960 . S
H1011 C1024 0.960 . S
C1012 H1004 0.929 . S
C1012 C1013 1.377 . S
C1012 C1014 1.384 . S
C1013 C1012 1.377 . S
C1013 C1019 1.390 . S
C1014 H1005 0.930 . S
C1014 C1012 1.384 . S
C1014 C1015 1.372 . S
C1015 C1014 1.372 . S
C1015 C1016 1.400 . S
C1015 C1020 1.490 . S
C1016 H1006 0.930 . S
C1016 C1015 1.400 . S
C1016 C1019 1.386 . S
H1017 C1033 0.930 . S
H1018 C1034 0.931 . S
C1019 H1007 0.929 . S
C1019 C1013 1.390 . S
C1019 C1016 1.386 . S
C1020 C1015 1.490 . S
C1020 C1022 1.395 . S
C1020 C1023 1.403 . S
H1021 C1027 0.930 . S
C1022 H1008 0.930 . S
C1022 C1020 1.395 . S
C1022 C1025 1.403 . S
C1023 C1020 1.403 . S
C1023 C1024 1.524 . S
C1023 C1027 1.400 . S
C1024 H1009 0.960 . S
C1024 H1010 0.960 . S
C1024 H1011 0.960 . S
C1024 C1023 1.524 . S
C1025 C1022 1.403 . S
C1025 C1026 1.392 . S
C1025 C1029 1.495 . S
C1026 C1025 1.392 . S
C1026 C1027 1.385 . S
C1026 C1028 1.478 . S
C1027 H1021 0.930 . S
C1027 C1023 1.400 . S
C1027 C1026 1.385 . S
C1028 C1026 1.478 . S
C1028 C1030 1.381 . S
C1028 C1034 1.383 . S
C1029 C1025 1.495 . S
C1029 H1035 0.959 . S
C1029 H1036 0.961 . S
C1029 H1037 0.960 . S
C1030 C1028 1.381 . S
C1030 C1031 1.394 . S
C1030 H1038 0.930 . S
C1031 C1030 1.394 . S
C1031 C1032 1.383 . S
C1031 H1039 0.929 . S
C1032 C1031 1.383 . S
C1032 C1033 1.377 . S
C1033 H1017 0.930 . S
C1033 C1032 1.377 . S
C1033 C1034 1.379 . S
C1034 H1018 0.931 . S
C1034 C1028 1.383 . S
C1034 C1033 1.379 . S
H1035 C1029 0.959 . S
H1036 C1029 0.961 . S
H1037 C1029 0.960 . S
H1038 C1030 0.930 . S
H1039 C1031 0.929 . S
H1040 C1048 0.929 . S
H1041 C1050 0.930 . S
H1042 C1052 0.930 . S
H1043 C1055 0.929 . S
H1044 C1058 0.930 . S
H1045 C1060 0.960 . S
H1046 C1060 0.960 . S
H1047 C1060 0.960 . S
C1048 H1040 0.929 . S
C1048 C1049 1.377 . S
C1048 C1050 1.384 . S
C1049 C1048 1.377 . S
C1049 C1055 1.390 . S
C1050 H1041 0.930 . S
C1050 C1048 1.384 . S
C1050 C1051 1.372 . S
C1051 C1050 1.372 . S
C1051 C1052 1.400 . S
C1051 C1056 1.490 . S
C1052 H1042 0.930 . S
C1052 C1051 1.400 . S
C1052 C1055 1.386 . S
H1053 C1069 0.930 . S
H1054 C1070 0.931 . S
C1055 H1043 0.929 . S
C1055 C1049 1.390 . S
C1055 C1052 1.386 . S
C1056 C1051 1.490 . S
C1056 C1058 1.395 . S
C1056 C1059 1.403 . S
H1057 C1063 0.930 . S
C1058 H1044 0.930 . S
C1058 C1056 1.395 . S
C1058 C1061 1.403 . S
C1059 C1056 1.403 . S
C1059 C1060 1.524 . S
C1059 C1063 1.400 . S
C1060 H1045 0.960 . S
C1060 H1046 0.960 . S
C1060 H1047 0.960 . S
C1060 C1059 1.524 . S
C1061 C1058 1.403 . S
C1061 C1062 1.392 . S
C1061 C1065 1.495 . S
C1062 C1061 1.392 . S
C1062 C1063 1.385 . S
C1062 C1064 1.478 . S
C1063 H1057 0.930 . S
C1063 C1059 1.400 . S
C1063 C1062 1.385 . S
C1064 C1062 1.478 . S
C1064 C1066 1.381 . S
C1064 C1070 1.383 . S
C1065 C1061 1.495 . S
C1065 H1071 0.959 . S
C1065 H1072 0.961 . S
C1065 H1073 0.960 . S
C1066 C1064 1.381 . S
C1066 C1067 1.394 . S
C1066 H1074 0.930 . S
C1067 C1066 1.394 . S
C1067 C1068 1.383 . S
C1067 H1075 0.929 . S
C1068 C1067 1.383 . S
C1068 C1069 1.377 . S
C1069 H1053 0.930 . S
C1069 C1068 1.377 . S
C1069 C1070 1.379 . S
C1070 H1054 0.931 . S
C1070 C1064 1.383 . S
C1070 C1069 1.379 . S
H1071 C1065 0.959 . S
H1072 C1065 0.961 . S
H1073 C1065 0.960 . S
H1074 C1066 0.930 . S
H1075 C1067 0.929 . S
H1076 C1084 0.929 . S
H1077 C1086 0.930 . S
H1078 C1088 0.930 . S
H1079 C1091 0.929 . S
H1080 C1094 0.930 . S
H1081 C1096 0.960 . S
H1082 C1096 0.960 . S
H1083 C1096 0.960 . S
C1084 H1076 0.929 . S
C1084 C1085 1.377 . S
C1084 C1086 1.384 . S
C1085 C1084 1.377 . S
C1085 C1091 1.390 . S
C1086 H1077 0.930 . S
C1086 C1084 1.384 . S
C1086 C1087 1.372 . S
C1087 C1086 1.372 . S
C1087 C1088 1.400 . S
C1087 C1092 1.490 . S
C1088 H1078 0.930 . S
C1088 C1087 1.400 . S
C1088 C1091 1.386 . S
H1089 C1105 0.930 . S
H1090 C1106 0.931 . S
C1091 H1079 0.929 . S
C1091 C1085 1.390 . S
C1091 C1088 1.386 . S
C1092 C1087 1.490 . S
C1092 C1094 1.395 . S
C1092 C1095 1.403 . S
H1093 C1099 0.930 . S
C1094 H1080 0.930 . S
C1094 C1092 1.395 . S
C1094 C1097 1.403 . S
C1095 C1092 1.403 . S
C1095 C1096 1.524 . S
C1095 C1099 1.400 . S
C1096 H1081 0.960 . S
C1096 H1082 0.960 . S
C1096 H1083 0.960 . S
C1096 C1095 1.524 . S
C1097 C1094 1.403 . S
C1097 C1098 1.392 . S
C1097 C1101 1.495 . S
C1098 C1097 1.392 . S
C1098 C1099 1.385 . S
C1098 C1100 1.478 . S
C1099 H1093 0.930 . S
C1099 C1095 1.400 . S
C1099 C1098 1.385 . S
C1100 C1098 1.478 . S
C1100 C1102 1.381 . S
C1100 C1106 1.383 . S
C1101 C1097 1.495 . S
C1101 H1107 0.959 . S
C1101 H1108 0.961 . S
C1101 H1109 0.960 . S
C1102 C1100 1.381 . S
C1102 C1103 1.394 . S
C1102 H1110 0.930 . S
C1103 C1102 1.394 . S
C1103 C1104 1.383 . S
C1103 H1111 0.929 . S
C1104 C1103 1.383 . S
C1104 C1105 1.377 . S
C1105 H1089 0.930 . S
C1105 C1104 1.377 . S
C1105 C1106 1.379 . S
C1106 H1090 0.931 . S
C1106 C1100 1.383 . S
C1106 C1105 1.379 . S
H1107 C1101 0.959 . S
H1108 C1101 0.961 . S
H1109 C1101 0.960 . S
H1110 C1102 0.930 . S
H1111 C1103 0.929 . S
C257 C4 0.887 . S
C276 C92 0.886 . S
C293 C16 1.376 . S
C312 C153 1.404 . S
C348 C191 2.034 . S
C329 C32 2.068 . S
C365 C43 2.194 . S
C384 C231 2.161 1_655 S
C420 C151 1.821 . S
C401 C5 1.839 . S
C456 C119 1.663 . S
C437 C21 1.609 . S
C492 C228 1.577 . S
C473 C27 1.587 . S
C528 C188 1.622 . S
C509 C37 1.637 . S
C545 C10 0.919 . S
C564 C233 0.913 . S
C600 C148 2.627 . S
C581 C26 2.630 . S
C617 C38 1.820 . S
C636 C90 1.804 . S
C653 C15 1.519 . S
C672 C193 1.542 . S
C708 C113 1.075 . S
C689 C48 1.069 . S
C725 C59 1.098 . S
C744 C132 1.100 . S
C761 C76 2.426 . S
C780 C170 2.358 . S
C797 C87 1.905 . S
C816 C210 1.872 . S
C833 C54 0.959 . S
C852 C130 0.937 1_565 S
C888 C108 2.480 . S
C869 C60 2.423 . S
C924 C239 1.435 . S
C905 C71 1.460 . S
C960 C199 1.713 . S
C941 C82 1.724 . S
C977 C49 1.246 . S
C996 C212 1.292 . S
C1032 C159 2.014 . S
C1013 C70 2.019 . S
C1068 C111 2.307 . S
C1049 C81 2.368 . S
C1085 C65 1.277 . S
C1104 C172 1.302 . S
