# Generated by pormake.
# Topology llj, (12,3)-cn, num edge types: 1
# Building blocks:
#     Node 0, Type 0, BuildingBlock: QEWDON_clean_sbu_0, # of connection points: 12
#     Node 1, Type 0, BuildingBlock: QEWDON_clean_sbu_0, # of connection points: 12
#     Node 2, Type 1, BuildingBlock: CUQRIR_clean_linker_1, # of connection points: 3
#     Node 3, Type 1, BuildingBlock: CUQRIR_clean_linker_1, # of connection points: 3
#     Node 4, Type 1, BuildingBlock: CUQRIR_clean_linker_1, # of connection points: 3
#     Node 5, Type 1, BuildingBlock: CUQRIR_clean_linker_1, # of connection points: 3
#     Node 6, Type 1, BuildingBlock: CUQRIR_clean_linker_1, # of connection points: 3
#     Node 7, Type 1, BuildingBlock: CUQRIR_clean_linker_1, # of connection points: 3
#     Node 8, Type 1, BuildingBlock: CUQRIR_clean_linker_1, # of connection points: 3
#     Node 9, Type 1, BuildingBlock: CUQRIR_clean_linker_1, # of connection points: 3
#     Edge 10, Type (0, 1), BuildingBlock: OJICUG_clean_linker_0, # of connection points: 2
#     Edge 11, Type (0, 1), BuildingBlock: OJICUG_clean_linker_0, # of connection points: 2
#     Edge 12, Type (0, 1), BuildingBlock: OJICUG_clean_linker_0, # of connection points: 2
#     Edge 13, Type (0, 1), BuildingBlock: OJICUG_clean_linker_0, # of connection points: 2
#     Edge 14, Type (0, 1), BuildingBlock: OJICUG_clean_linker_0, # of connection points: 2
#     Edge 15, Type (0, 1), BuildingBlock: OJICUG_clean_linker_0, # of connection points: 2
#     Edge 16, Type (0, 1), BuildingBlock: OJICUG_clean_linker_0, # of connection points: 2
#     Edge 17, Type (0, 1), BuildingBlock: OJICUG_clean_linker_0, # of connection points: 2
#     Edge 18, Type (0, 1), BuildingBlock: OJICUG_clean_linker_0, # of connection points: 2
#     Edge 19, Type (0, 1), BuildingBlock: OJICUG_clean_linker_0, # of connection points: 2
#     Edge 20, Type (0, 1), BuildingBlock: OJICUG_clean_linker_0, # of connection points: 2
#     Edge 21, Type (0, 1), BuildingBlock: OJICUG_clean_linker_0, # of connection points: 2
#     Edge 22, Type (0, 1), BuildingBlock: OJICUG_clean_linker_0, # of connection points: 2
#     Edge 23, Type (0, 1), BuildingBlock: OJICUG_clean_linker_0, # of connection points: 2
#     Edge 24, Type (0, 1), BuildingBlock: OJICUG_clean_linker_0, # of connection points: 2
#     Edge 25, Type (0, 1), BuildingBlock: OJICUG_clean_linker_0, # of connection points: 2
#     Edge 26, Type (0, 1), BuildingBlock: OJICUG_clean_linker_0, # of connection points: 2
#     Edge 27, Type (0, 1), BuildingBlock: OJICUG_clean_linker_0, # of connection points: 2
#     Edge 28, Type (0, 1), BuildingBlock: OJICUG_clean_linker_0, # of connection points: 2
#     Edge 29, Type (0, 1), BuildingBlock: OJICUG_clean_linker_0, # of connection points: 2
#     Edge 30, Type (0, 1), BuildingBlock: OJICUG_clean_linker_0, # of connection points: 2
#     Edge 31, Type (0, 1), BuildingBlock: OJICUG_clean_linker_0, # of connection points: 2
#     Edge 32, Type (0, 1), BuildingBlock: OJICUG_clean_linker_0, # of connection points: 2
#     Edge 33, Type (0, 1), BuildingBlock: OJICUG_clean_linker_0, # of connection points: 2
# Relax obj value: 0.011
# Max RMSD: 0.106
# Mean RMSD: 0.093
data_MOF--net-llj--node1-QEWDON_clean_sbu_0--node2-CUQRIR_clean_linker_1--edge1-OJICUG_clean_linker_0
_symmetry_space_group_name_H-M    P1
_symmetry_Int_Tables_number       1
_symmetry_cell_setting            triclinic
loop_
_symmetry_equiv_pos_as_xyz
'x, y, z'
_cell_length_a     28.682168
_cell_length_b     28.658606
_cell_length_c     15.948837
_cell_angle_alpha  90.506029
_cell_angle_beta   89.827376
_cell_angle_gamma 89.739988
loop_
_atom_site_label
_atom_site_type_symbol
_atom_site_fract_x
_atom_site_fract_y
_atom_site_fract_z
_atom_type_partial_charge
Zn0 Zn 0.92097 0.08277 0.92459 0.0
Zn1 Zn 0.92268 0.07976 0.12649 0.0
O2 O 0.96181 0.06627 0.0254 0.0
H3 H -0.01314 0.04362 0.02338 0.0
C4 C 0.87691 -0.00903 0.78469 0.0
O5 O 0.92067 -0.00298 0.80596 0.0
Zn6 Zn 0.04548 0.89108 0.1445 0.0
Zn7 Zn 0.02804 0.87796 0.9437 0.0
O8 O 0.00654 0.91291 0.0477 0.0
H9 H -0.0067 0.94393 0.04612 0.0
Zn10 Zn 0.87907 0.92132 0.92167 0.0
O11 O 0.90018 0.95828 0.0238 0.0
Zn12 Zn 0.88559 0.92083 0.12605 0.0
H13 H 0.92054 -0.01511 1.02042 0.0
Zn14 Zn 0.09694 0.04507 0.94974 0.0
O15 O 0.08507 0.00251 0.04715 0.0
H16 H 0.09068 0.96934 0.04216 0.0
Zn17 Zn 0.08752 0.04302 0.14976 0.0
C18 C 0.0968 -0.01136 0.79444 0.0
O19 O 0.05151 -0.00569 0.80145 0.0
O20 O 0.86227 0.12063 0.95794 0.0
O21 O 0.8716 0.12591 0.09654 0.0
O22 O 0.08306 0.83433 0.9668 0.0
O23 O 0.09535 0.84483 0.1038 0.0
O24 O 0.84282 0.86172 0.95405 0.0
O25 O 0.84217 0.86855 0.09364 0.0
C26 C 0.00438 0.09067 0.22778 0.0
O27 O 0.12919 0.10618 0.98716 0.0
O28 O 0.12851 0.09906 0.1266 0.0
O29 O 0.98034 0.85533 0.85469 0.0
C30 C 0.84993 0.13652 0.02958 0.0
O31 O 0.95505 0.10148 0.8137 0.0
C32 C 0.96092 0.87095 0.23155 0.0
O33 O 0.85267 0.96085 0.82324 0.0
C34 C 0.10565 0.82559 0.0335 0.0
O35 O 0.12342 0.00839 0.8474 0.0
C36 C 0.86799 0.00376 0.21992 0.0
O37 O 0.96243 0.10424 0.22118 0.0
O38 O 0.02124 0.0637 0.17172 0.0
C39 C 0.82988 0.84787 0.02623 0.0
O40 O 0.00441 0.86277 0.23488 0.0
O41 O 0.94616 0.89474 0.16992 0.0
C42 C 0.1016 0.96376 0.24786 0.0
O43 O 0.85688 0.96105 0.21718 0.0
O44 O 0.89394 0.01897 0.16144 0.0
C45 C 0.14032 0.12073 0.06022 0.0
O46 O 0.1135 0.00631 0.24668 0.0
O47 O 0.07547 0.94941 0.18897 0.0
C48 C 0.96787 0.87919 0.79171 0.0
O49 O -0.0156 0.92142 0.78243 0.0
C50 C -0.00084 0.09783 0.81564 0.0
O51 O 0.0188 0.08293 0.88467 0.0
Zn52 Zn 0.43027 0.59677 0.44313 0.0
Zn53 Zn 0.42504 0.57942 0.64317 0.0
O54 O 0.46409 0.56857 0.54083 0.0
H55 H 0.485 0.54243 0.53313 0.0
C56 C 0.36749 0.50766 0.30764 0.0
O57 O 0.38721 0.5267 0.37364 0.0
Zn58 Zn 0.53747 0.38197 0.62492 0.0
Zn59 Zn 0.54218 0.38872 0.42519 0.0
O60 O 0.49896 0.39778 0.52478 0.0
H61 H 0.46555 0.39651 0.5183 0.0
Zn62 Zn 0.37128 0.42843 0.42022 0.0
O63 O 0.39509 0.46198 0.52473 0.0
Zn64 Zn 0.3793 0.42192 0.62423 0.0
H65 H 0.42094 0.4834 0.52289 0.0
Zn66 Zn 0.58432 0.53943 0.42685 0.0
O67 O 0.56557 0.50179 0.52842 0.0
H68 H 0.54237 0.47756 0.52535 0.0
Zn69 Zn 0.58192 0.53944 0.63044 0.0
C70 C 0.58274 0.47503 0.2804 0.0
O71 O 0.5377 0.47498 0.29514 0.0
O72 O 0.37071 0.63221 0.47871 0.0
O73 O 0.3728 0.62502 0.61816 0.0
O74 O 0.59684 0.34325 0.45158 0.0
O75 O 0.58597 0.33458 0.58921 0.0
O76 O 0.32786 0.37481 0.44974 0.0
O77 O 0.33398 0.37088 0.58911 0.0
C78 C 0.50766 0.59287 0.73558 0.0
O79 O 0.62229 0.59792 0.45885 0.0
O80 O 0.6274 0.59051 0.59779 0.0
O81 O 0.50449 0.38031 0.31503 0.0
C82 C 0.35431 0.64107 0.55157 0.0
O83 O 0.47213 0.62195 0.34727 0.0
C84 C 0.45495 0.3671 0.72142 0.0
O85 O 0.35693 0.46474 0.31011 0.0
C86 C 0.60715 0.32413 0.52116 0.0
O87 O 0.6091 0.50004 0.32614 0.0
C88 C 0.36864 0.50328 0.725 0.0
O89 O 0.46481 0.60398 0.73728 0.0
O90 O 0.52201 0.56819 0.67385 0.0
C91 C 0.3171 0.35647 0.51956 0.0
O92 O 0.49783 0.35629 0.71875 0.0
O93 O 0.43933 0.39287 0.6633 0.0
C94 C 0.59546 0.45538 0.7217 0.0
O95 O 0.35275 0.46221 0.71803 0.0
O96 O 0.39815 0.51684 0.67107 0.0
C97 C 0.63805 0.61118 0.52978 0.0
O98 O 0.60837 0.49765 0.72047 0.0
O99 O 0.56888 0.44134 0.66298 0.0
C100 C 0.5009 0.34006 0.28193 0.0
O101 O 0.52443 0.30526 0.31459 0.0
C102 C 0.48804 0.59512 0.28993 0.0
O103 O 0.47598 0.551 0.28927 0.0
C104 C 0.30071 0.27173 0.97414 0.0
N105 N 0.34063 0.29578 0.98717 0.0
N106 N 0.28035 0.26057 0.04822 0.0
C107 C 0.28542 0.25338 0.8897 0.0
C108 C 0.30973 0.27849 0.10652 0.0
N109 N 0.34641 0.29959 0.06958 0.0
C110 C 0.30276 0.27599 0.19994 0.0
H111 H 0.25846 0.27704 0.86378 0.0
H112 H 0.27025 0.21801 0.89521 0.0
H113 H 0.31502 0.25151 0.84484 0.0
H114 H 0.32297 0.24605 0.22473 0.0
H115 H 0.2654 0.27148 0.21607 0.0
H116 H 0.31601 0.30816 0.23073 0.0
C117 C 0.69333 0.29801 0.95836 0.0
N118 N 0.66565 0.33497 0.97768 0.0
N119 N 0.70742 0.27612 0.02899 0.0
C120 C 0.71146 0.28715 0.87143 0.0
C121 C 0.68771 0.30157 0.09187 0.0
N122 N 0.6627 0.33755 0.06071 0.0
C123 C 0.69079 0.2901 0.18364 0.0
H124 H 0.68876 0.26055 0.84162 0.0
H125 H 0.74754 0.27316 0.87367 0.0
H126 H 0.71136 0.31869 0.83162 0.0
H127 H 0.71991 0.30995 0.21223 0.0
H128 H 0.69722 0.25227 0.19276 0.0
H129 H 0.65816 0.30041 0.21666 0.0
C130 C 0.66725 0.68719 0.09835 0.0
N131 N 0.6299 0.66322 0.06978 0.0
N132 N 0.69152 0.70577 0.03378 0.0
C133 C 0.68141 0.69005 0.18911 0.0
C134 C 0.66759 0.69205 0.96478 0.0
N135 N 0.63059 0.66561 0.98662 0.0
C136 C 0.67645 0.70968 0.87731 0.0
H137 H 0.66351 0.7201 0.21969 0.0
H138 H 0.71963 0.69488 0.19508 0.0
H139 H 0.67096 0.65794 0.22262 0.0
H140 H 0.70246 0.68669 0.84576 0.0
H141 H 0.69035 0.74573 0.87889 0.0
H142 H 0.64407 0.70962 0.83945 0.0
C143 C 0.26759 0.66316 0.08306 0.0
N144 N 0.2959 0.62821 0.05566 0.0
N145 N 0.24997 0.68722 1.0175 0.0
C146 C 0.25267 0.67004 0.17309 0.0
C147 C 0.26827 0.66527 0.94927 0.0
N148 N 0.29571 0.62914 0.97238 0.0
C149 C 0.26137 0.68038 0.85991 0.0
H150 H 0.2162 0.6829 0.17712 0.0
H151 H 0.27571 0.69622 0.20324 0.0
H152 H 0.25532 0.63703 0.20862 0.0
H153 H 0.2531 0.71819 0.85675 0.0
H154 H 0.23213 0.66045 0.83194 0.0
H155 H 0.29312 0.67296 0.82203 0.0
C156 C 0.80232 0.76586 0.4575 0.0
N157 N 0.83787 0.79441 0.4795 0.0
N158 N 0.77753 0.75313 0.52605 0.0
C159 C 0.79529 0.74612 0.37053 0.0
C160 C 0.79952 0.77478 0.59046 0.0
N161 N 0.83652 0.79937 0.56244 0.0
C162 C 0.78303 0.77466 0.68026 0.0
H163 H 0.76927 0.76778 0.33707 0.0
H164 H 0.78214 0.70982 0.37311 0.0
H165 H 0.82828 0.74622 0.33405 0.0
H166 H 0.80062 0.74602 0.71438 0.0
H167 H 0.7448 0.76923 0.68378 0.0
H168 H 0.79189 0.80807 0.71202 0.0
C169 C 0.19419 0.80772 0.6139 0.0
N170 N 0.17106 0.84472 0.58196 0.0
N171 N 0.21349 0.7815 0.55166 0.0
C172 C 0.19536 0.7958 0.70565 0.0
C173 C 0.201 0.80393 0.48056 0.0
N174 N 0.17468 0.84197 0.49903 0.0
C175 C 0.21952 0.79242 0.39418 0.0
H176 H 0.22496 0.81408 0.73593 0.0
H177 H 0.19982 0.75768 0.71452 0.0
H178 H 0.16277 0.80753 0.73724 0.0
H179 H 0.19657 0.76611 0.36416 0.0
H180 H 0.25533 0.7778 0.39747 0.0
H181 H 0.22026 0.8238 0.35397 0.0
C182 C 0.15341 0.20005 0.58707 0.0
N183 N 0.11923 0.17051 0.56251 0.0
N184 N 0.17957 0.21311 0.52054 0.0
C185 C 0.15761 0.22051 0.67413 0.0
C186 C 0.15984 0.19071 0.45464 0.0
N187 N 0.12304 0.16514 0.47998 0.0
C188 C 0.17727 0.19233 0.36551 0.0
H189 H 0.16954 0.25724 0.6718 0.0
H190 H 0.18357 0.20002 0.70999 0.0
H191 H 0.12378 0.21944 0.70796 0.0
H192 H 0.21509 0.20025 0.36328 0.0
H193 H 0.15803 0.21983 0.33118 0.0
H194 H 0.17086 0.15854 0.33305 0.0
C195 C 0.76324 0.15483 0.58867 0.0
N196 N 0.79041 0.11944 0.55973 0.0
N197 N 0.74453 0.17895 0.52403 0.0
C198 C 0.75725 0.16724 0.67998 0.0
C199 C 0.76129 0.15677 0.45482 0.0
N200 N 0.7897 0.12109 0.47657 0.0
C201 C 0.74542 0.16618 0.36644 0.0
H202 H 0.72771 0.1471 0.70605 0.0
H203 H 0.74981 0.20502 0.68837 0.0
H204 H 0.78903 0.15798 0.71584 0.0
H205 H 0.76875 0.19243 0.33778 0.0
H206 H 0.70922 0.17995 0.36568 0.0
H207 H 0.74682 0.13398 0.32736 0.0
C208 C 0.21085 0.15802 0.12016 0.0
C209 C 0.17207 0.16066 0.06706 0.0
H210 H 0.2771 0.18663 0.15237 0.0
C211 C 0.16696 0.1992 1.01417 0.0
H212 H 0.21571 0.1283 0.16081 0.0
C213 C 0.20105 0.23386 1.0125 0.0
C214 C 0.24166 0.22945 0.06087 0.0
H215 H 0.13715 0.20195 0.97292 0.0
H216 H 0.19671 0.26311 0.97075 0.0
C217 C 0.2458 0.19163 0.11587 0.0
C218 C 0.77273 0.16575 0.98068 0.0
C219 C 0.81105 0.16996 0.03465 0.0
H220 H 0.708 0.19547 0.94022 0.0
C221 C 0.81312 0.20777 0.09099 0.0
H222 H 0.77024 0.13659 0.93723 0.0
C223 C 0.77862 0.24221 0.09022 0.0
C224 C 0.74066 0.23856 0.03523 0.0
H225 H 0.84255 0.21187 0.13282 0.0
H226 H 0.78255 0.27253 0.13039 0.0
C227 C 0.73736 0.19937 0.98213 0.0
C228 C 0.8 0.77065 0.97738 0.0
C229 C 0.79697 0.80903 0.03231 0.0
H230 H 0.76971 0.70574 0.93865 0.0
C231 C 0.76081 0.81128 0.09164 0.0
H232 H 0.82791 0.76812 0.9316 0.0
C233 C 0.72671 0.77687 0.09315 0.0
C234 C 0.72914 0.73873 0.03755 0.0
H235 H 0.75764 0.8408 0.13423 0.0
H236 H 0.69749 0.78109 0.1356 0.0
C237 C 0.76679 0.73524 0.98121 0.0
C238 C 0.14045 0.75348 0.97191 0.0
C239 C 0.14353 0.79087 0.02904 0.0
H240 H 0.17108 0.69002 0.92645 0.0
C241 C 0.18268 0.79439 0.08129 0.0
H242 H 0.11037 0.74971 0.93152 0.0
C243 C 0.21842 0.76114 0.07569 0.0
C244 C 0.21478 0.72318 1.01975 0.0
H245 H 0.18592 0.82311 0.12551 0.0
H246 H 0.24874 0.76481 0.11538 0.0
C247 C 0.17536 0.71958 0.96832 0.0
C248 C 0.70779 0.64946 0.59171 0.0
C249 C 0.67168 0.64978 0.53257 0.0
H250 H 0.77119 0.68095 0.63292 0.0
C251 C 0.66955 0.68586 0.47365 0.0
H252 H 0.71048 0.62173 0.63723 0.0
C253 C 0.70329 0.72088 0.4736 0.0
C254 C 0.74049 0.71948 0.53056 0.0
H255 H 0.64184 0.68697 0.42766 0.0
H256 H 0.70079 0.74864 0.42826 0.0
C257 C 0.74231 0.68353 0.58974 0.0
C258 C 0.3167 0.71045 0.61712 0.0
C259 C 0.31491 0.67354 0.55901 0.0
H260 H 0.28675 0.77531 0.65719 0.0
C261 C 0.27715 0.67023 0.50368 0.0
H262 H 0.34581 0.71374 0.65987 0.0
C263 C 0.24215 0.70421 0.50506 0.0
C264 C 0.24551 0.74297 0.55917 0.0
H265 H 0.27507 0.64173 0.45876 0.0
H266 H 0.21328 0.70115 0.46186 0.0
C267 C 0.28272 0.74539 0.6161 0.0
C268 C 0.24698 0.3187 0.45956 0.0
C269 C 0.28268 0.31876 0.51949 0.0
H270 H 0.18481 0.28597 0.4158 0.0
C271 C 0.28476 0.28299 0.57891 0.0
H272 H 0.24438 0.34623 0.41364 0.0
C273 C 0.25168 0.24738 0.57769 0.0
C274 C 0.21538 0.24795 0.5188 0.0
H275 H 0.31221 0.28227 0.62542 0.0
H276 H 0.25417 0.21957 0.62295 0.0
C277 C 0.21319 0.28404 0.46016 0.0
C278 C 0.68278 0.29031 0.47122 0.0
C279 C 0.6435 0.28786 0.52352 0.0
H280 H 0.7474 0.25836 0.43423 0.0
C281 C 0.63889 0.25017 0.57858 0.0
H282 H 0.68729 0.31933 0.42889 0.0
C283 C 0.67225 0.21463 0.57928 0.0
C284 C 0.71156 0.21693 0.52701 0.0
H285 H 0.6087 0.24742 0.61922 0.0
H286 H 0.66672 0.18481 0.61915 0.0
C287 C 0.71698 0.25552 0.47411 0.0
C288 C 0.03541 0.1574 0.30938 0.0
C289 C 0.03318 0.10911 0.2961 0.0
H290 H 0.06621 0.21295 0.38057 0.0
C291 C 0.0568 0.079 0.35066 0.0
H292 H 0.01664 0.18115 0.26901 0.0
C293 C 0.08482 0.09718 0.41473 0.0
C294 C 0.08879 0.14557 0.42495 0.0
H295 H 0.0532 0.04159 0.34415 0.0
H296 H 0.10437 0.0738 0.45453 0.0
C297 C 0.06325 0.17548 0.37311 0.0
C298 C 0.82485 0.01404 0.35602 0.0
C299 C 0.85072 0.03367 0.28984 0.0
H300 H 0.78486 0.02695 0.46813 0.0
C301 C 0.85917 0.08177 0.29142 0.0
H302 H 0.81781 0.97695 0.35736 0.0
C303 C 0.84153 0.10983 0.35586 0.0
C304 C 0.81411 0.09057 0.41944 0.0
H305 H 0.87819 0.09827 0.2421 0.0
H306 H 0.84769 0.14707 0.35447 0.0
C307 C 0.80651 0.04235 0.42013 0.0
C308 C 0.94769 0.8289 0.3676 0.0
C309 C 0.92948 0.8532 0.29834 0.0
H310 H 0.93252 0.79064 0.47991 0.0
C311 C 0.88109 0.85968 0.29359 0.0
H312 H -0.01512 0.82318 0.37367 0.0
C313 C 0.85158 0.84221 0.35522 0.0
C314 C 0.86956 0.81686 0.42258 0.0
H315 H 0.86559 0.87733 0.24167 0.0
H316 H 0.81432 0.8474 0.34924 0.0
C317 C 0.91794 0.81067 0.42899 0.0
C318 C 0.14539 0.95082 0.38144 0.0
C319 C 0.11884 0.93264 0.31464 0.0
H320 H 0.18478 0.93576 0.49232 0.0
C321 C 0.10978 0.88461 0.31201 0.0
H322 H 0.15309 -0.01226 0.38546 0.0
C323 C 0.12683 0.85536 0.37425 0.0
C324 C 0.15409 0.87334 0.43963 0.0
H325 H 0.09034 0.86925 0.26131 0.0
H326 H 0.11954 0.81835 0.37066 0.0
C327 C 0.16313 0.92132 0.44314 0.0
C328 C 0.16403 0.94357 0.73517 0.0
C329 C 0.11641 0.95518 0.73252 0.0
H330 H 0.2185 0.89913 0.68808 0.0
C331 C 0.08753 0.93201 0.67444 0.0
H332 H 0.18737 0.96092 0.77853 0.0
C333 C 0.10555 0.89631 0.62315 0.0
C334 C 0.15261 0.88352 0.62924 0.0
H335 H 0.05086 0.94067 0.66989 0.0
H336 H 0.08268 0.87784 0.58052 0.0
C337 C 0.18187 0.90809 0.68402 0.0
C338 C 0.07721 0.10646 0.74942 0.0
C339 C 0.02868 0.11212 0.74409 0.0
H340 H 0.14364 0.11865 0.69302 0.0
C341 C 0.00975 0.13334 0.67239 0.0
H342 H 0.09312 0.09096 0.80391 0.0
C343 C 0.03926 0.15071 0.60963 0.0
C344 C 0.08783 0.14631 0.6174 0.0
H345 H 0.97243 0.13816 0.66641 0.0
H346 H 0.02435 0.16938 0.55739 0.0
C347 C 0.10627 0.12258 0.68622 0.0
C348 C 0.88244 0.04969 0.66886 0.0
C349 C 0.85506 0.02127 0.72097 0.0
H350 H 0.88274 0.10326 0.57498 0.0
C351 C 0.80625 0.02364 0.71437 0.0
H352 H 0.92014 0.04841 0.67198 0.0
C353 C 0.78528 0.05508 0.65964 0.0
C354 C 0.81258 0.08426 0.60963 0.0
H355 H 0.78413 0.00225 0.75339 0.0
H356 H 0.74761 0.05736 0.65718 0.0
C357 C 0.86128 0.08081 0.61319 0.0
C358 C 0.92469 0.8113 0.73247 0.0
C359 C 0.93569 0.85893 0.72906 0.0
H360 H 0.8855 0.75505 0.67959 0.0
C361 C 0.9156 0.88645 0.66577 0.0
H362 H 0.93998 0.78894 0.7795 0.0
C363 C 0.88378 0.86685 0.60903 0.0
C364 C 0.87213 0.81952 0.61452 0.0
H365 H 0.9237 0.92321 0.66112 0.0
H366 H 0.86744 0.8887 0.5624 0.0
C367 C 0.89356 0.79183 0.67545 0.0
C368 C 0.58695 0.60001 0.80035 0.0
C369 C 0.53894 0.60907 0.80357 0.0
H370 H 0.6534 0.60937 0.85851 0.0
C371 C 0.52091 0.6349 0.87212 0.0
H372 H 0.60231 0.58139 0.74854 0.0
C373 C 0.55064 0.65238 0.93422 0.0
C374 C 0.59867 0.6436 0.92949 0.0
H375 H 0.48398 0.6426 0.87685 0.0
H376 H 0.53638 0.67396 0.98418 0.0
C377 C 0.61636 0.61644 0.86314 0.0
C378 C 0.30224 0.53825 0.80398 0.0
C379 C 0.35046 0.53475 0.79081 0.0
H380 H 0.24717 0.57153 0.87367 0.0
C381 C 0.38083 0.55969 0.84347 0.0
H382 H 0.27822 0.51867 0.76508 0.0
C383 C 0.36305 0.58945 0.90614 0.0
C384 C 0.31476 0.59435 0.91657 0.0
H385 H 0.41815 0.5555 0.83712 0.0
H386 H 0.38673 0.60943 0.94497 0.0
C387 C 0.28455 0.5681 0.86597 0.0
C388 C 0.44542 0.32277 0.85503 0.0
C389 C 0.42539 0.34958 0.79069 0.0
H390 H 0.43396 0.28332 0.96655 0.0
C391 C 0.3774 0.35892 0.79378 0.0
H392 H 0.48231 0.31448 0.85453 0.0
C393 C 0.35022 0.34269 0.86001 0.0
C394 C 0.3701 0.31545 0.92339 0.0
H395 H 0.36051 0.3781 0.74475 0.0
H396 H 0.31327 0.35062 0.86107 0.0
C397 C 0.41796 0.30548 0.92022 0.0
C398 C 0.63697 0.44316 0.85806 0.0
C399 C 0.6114 0.42457 0.79026 0.0
H400 H 0.6747 0.42881 0.97118 0.0
C401 C 0.60183 0.37665 0.78905 0.0
H402 H 0.64495 0.48003 0.8614 0.0
C403 C 0.61772 0.34785 0.85294 0.0
C404 C 0.64436 0.36616 0.91882 0.0
H405 H 0.58312 0.36092 0.73811 0.0
H406 H 0.61044 0.31083 0.8498 0.0
C407 C 0.6535 0.41413 0.92159 0.0
C408 C 0.65173 0.43586 0.2143 0.0
C409 C 0.60324 0.44292 0.21701 0.0
H410 H 0.70841 0.39643 0.16131 0.0
C411 C 0.57473 0.41707 0.16203 0.0
H412 H 0.67474 0.45528 0.25534 0.0
C413 C 0.5943 0.38339 0.10811 0.0
C414 C 0.64248 0.37515 0.1088 0.0
H415 H 0.53729 0.42209 0.16197 0.0
H416 H 0.57187 0.36274 0.068 0.0
C417 C 0.67107 0.4022 0.16091 0.0
C418 C 0.54386 0.5826 0.16978 0.0
C419 C 0.52216 0.61282 0.22831 0.0
H420 H 0.59599 0.57528 0.07303 0.0
C421 C 0.53487 0.66008 0.23 0.0
H422 H 0.5346 0.54605 0.16644 0.0
C423 C 0.56943 0.67647 0.1764 0.0
C424 C 0.59223 0.64604 0.12036 0.0
H425 H 0.51864 0.6844 0.27363 0.0
H426 H 0.57886 0.71299 0.17914 0.0
C427 C 0.57878 0.59914 0.11623 0.0
C428 C 0.32837 0.51855 0.16769 0.0
C429 C 0.35447 0.53686 0.23499 0.0
H430 H 0.28891 0.53393 0.05663 0.0
C431 C 0.36569 0.58452 0.2351 0.0
H432 H 0.31926 0.48192 0.16558 0.0
C433 C 0.34942 0.61361 0.17192 0.0
C434 C 0.3208 0.59602 0.10807 0.0
H435 H 0.38544 0.59992 0.28587 0.0
H436 H 0.35693 0.65058 0.17532 0.0
C437 C 0.31143 0.54804 0.10485 0.0
C438 C 0.43703 0.36748 0.18591 0.0
C439 C 0.4653 0.33109 0.21669 0.0
H440 H 0.37646 0.38561 0.11321 0.0
C441 C 0.45624 0.28508 0.1906 0.0
H442 H 0.44309 0.40334 0.20483 0.0
C443 C 0.41823 0.27533 0.13917 0.0
C444 C 0.38903 0.31133 0.11156 0.0
H445 H 0.47722 0.25624 0.21286 0.0
H446 H 0.41049 0.23943 0.12286 0.0
C447 C 0.39909 0.35759 0.13354 0.0
loop_
_geom_bond_atom_site_label_1
_geom_bond_atom_site_label_2
_geom_bond_distance
_geom_bond_site_symmetry_2
_ccdc_geom_bond_type
Zn0 O2 1.933 1_556 S
Zn0 O20 1.985 . S
Zn0 O31 1.955 . S
Zn1 O2 1.911 . S
Zn1 O21 1.970 . S
Zn1 O37 1.945 . S
Zn1 O44 1.981 . S
O2 Zn0 1.933 1_554 S
O2 Zn1 1.911 . S
O2 H3 0.840 1_654 S
H3 O2 0.840 1_456 S
C4 O5 1.246 . S
C4 O33 1.276 1_545 S
O5 C4 1.246 . S
Zn6 O8 1.911 . S
Zn6 O23 1.970 . S
Zn6 O40 1.945 . S
Zn6 O47 1.981 . S
Zn7 O8 1.933 1_556 S
Zn7 O22 1.985 . S
Zn7 O29 1.955 . S
O8 Zn6 1.911 . S
O8 Zn7 1.933 1_554 S
O8 H9 0.840 1_454 S
H9 O8 0.840 1_656 S
Zn10 O11 1.933 1_556 S
Zn10 O24 1.985 . S
Zn10 O33 1.955 . S
O11 Zn10 1.933 1_554 S
O11 Zn12 1.911 . S
O11 H13 0.840 1_564 S
Zn12 O11 1.911 . S
Zn12 O25 1.970 . S
Zn12 O41 1.981 . S
Zn12 O43 1.945 . S
H13 O11 0.840 1_546 S
Zn14 O15 1.933 1_556 S
Zn14 O27 1.985 . S
Zn14 O35 1.955 . S
O15 Zn14 1.933 1_554 S
O15 H16 0.840 1_544 S
O15 Zn17 1.911 . S
H16 O15 0.840 1_566 S
Zn17 O15 1.911 . S
Zn17 O28 1.970 . S
Zn17 O38 1.981 . S
Zn17 O46 1.945 . S
C18 O19 1.246 . S
C18 O35 1.276 1_565 S
O19 C18 1.246 . S
O20 Zn0 1.985 . S
O20 C30 1.245 1_556 S
O21 Zn1 1.970 . S
O21 C30 1.263 . S
O22 Zn7 1.985 . S
O22 C34 1.245 1_556 S
O23 Zn6 1.970 . S
O23 C34 1.263 . S
O24 Zn10 1.985 . S
O24 C39 1.245 1_556 S
O25 Zn12 1.970 . S
O25 C39 1.263 . S
C26 O37 1.262 1_455 S
C26 O38 1.245 . S
O27 Zn14 1.985 . S
O27 C45 1.245 1_556 S
O28 Zn17 1.970 . S
O28 C45 1.263 . S
O29 Zn7 1.955 . S
O29 C48 1.276 1_455 S
C30 O20 1.245 1_554 S
C30 O21 1.263 . S
O31 Zn0 1.955 . S
O31 C50 1.276 1_655 S
C32 O40 1.262 1_655 S
C32 O41 1.245 . S
O33 C4 1.276 1_565 S
O33 Zn10 1.955 . S
C34 O22 1.245 1_554 S
C34 O23 1.263 . S
O35 Zn14 1.955 . S
O35 C18 1.276 1_545 S
C36 O43 1.262 1_545 S
C36 O44 1.245 . S
O37 Zn1 1.945 . S
O37 C26 1.262 1_655 S
O38 Zn17 1.981 . S
O38 C26 1.245 . S
C39 O24 1.245 1_554 S
C39 O25 1.263 . S
O40 Zn6 1.945 . S
O40 C32 1.262 1_455 S
O41 Zn12 1.981 . S
O41 C32 1.245 . S
C42 O46 1.262 1_565 S
C42 O47 1.245 . S
O43 Zn12 1.945 . S
O43 C36 1.262 1_565 S
O44 Zn1 1.981 . S
O44 C36 1.245 . S
C45 O27 1.245 1_554 S
C45 O28 1.263 . S
O46 Zn17 1.945 . S
O46 C42 1.262 1_545 S
O47 Zn6 1.981 . S
O47 C42 1.245 . S
C48 O29 1.276 1_655 S
C48 O49 1.246 . S
O49 C48 1.246 . S
C50 O31 1.276 1_455 S
C50 O51 1.246 . S
O51 C50 1.246 . S
Zn52 O54 1.933 . S
Zn52 O72 1.985 . S
Zn52 O83 1.955 . S
Zn53 O54 1.911 . S
Zn53 O73 1.970 . S
Zn53 O89 1.945 . S
Zn53 O96 1.981 . S
O54 Zn52 1.933 . S
O54 Zn53 1.911 . S
O54 H55 0.841 . S
H55 O54 0.841 . S
C56 O57 1.246 . S
C56 O85 1.276 . S
O57 C56 1.246 . S
Zn58 O60 1.911 . S
Zn58 O75 1.970 . S
Zn58 O92 1.945 . S
Zn58 O99 1.981 . S
Zn59 O60 1.933 . S
Zn59 O74 1.985 . S
Zn59 O81 1.955 . S
O60 Zn58 1.911 . S
O60 Zn59 1.933 . S
O60 H61 0.841 . S
H61 O60 0.841 . S
Zn62 O63 1.933 . S
Zn62 O76 1.985 . S
Zn62 O85 1.955 . S
O63 Zn62 1.933 . S
O63 Zn64 1.911 . S
O63 H65 0.841 . S
Zn64 O63 1.911 . S
Zn64 O77 1.970 . S
Zn64 O93 1.981 . S
Zn64 O95 1.945 . S
H65 O63 0.841 . S
Zn66 O67 1.933 . S
Zn66 O79 1.985 . S
Zn66 O87 1.955 . S
O67 Zn66 1.933 . S
O67 H68 0.841 . S
O67 Zn69 1.911 . S
H68 O67 0.841 . S
Zn69 O67 1.911 . S
Zn69 O80 1.970 . S
Zn69 O90 1.981 . S
Zn69 O98 1.945 . S
C70 O71 1.246 . S
C70 O87 1.276 . S
O71 C70 1.246 . S
O72 Zn52 1.985 . S
O72 C82 1.245 . S
O73 Zn53 1.970 . S
O73 C82 1.263 . S
O74 Zn59 1.985 . S
O74 C86 1.245 . S
O75 Zn58 1.970 . S
O75 C86 1.263 . S
O76 Zn62 1.985 . S
O76 C91 1.245 . S
O77 Zn64 1.970 . S
O77 C91 1.263 . S
C78 O89 1.262 . S
C78 O90 1.245 . S
O79 Zn66 1.985 . S
O79 C97 1.245 . S
O80 Zn69 1.970 . S
O80 C97 1.263 . S
O81 Zn59 1.955 . S
O81 C100 1.276 . S
C82 O72 1.245 . S
C82 O73 1.263 . S
O83 Zn52 1.955 . S
O83 C102 1.276 . S
C84 O92 1.262 . S
C84 O93 1.245 . S
O85 C56 1.276 . S
O85 Zn62 1.955 . S
C86 O74 1.245 . S
C86 O75 1.263 . S
O87 Zn66 1.955 . S
O87 C70 1.276 . S
C88 O95 1.262 . S
C88 O96 1.245 . S
O89 Zn53 1.945 . S
O89 C78 1.262 . S
O90 Zn69 1.981 . S
O90 C78 1.245 . S
C91 O76 1.245 . S
C91 O77 1.263 . S
O92 Zn58 1.945 . S
O92 C84 1.262 . S
O93 Zn64 1.981 . S
O93 C84 1.245 . S
C94 O98 1.262 . S
C94 O99 1.245 . S
O95 Zn64 1.945 . S
O95 C88 1.262 . S
O96 Zn53 1.981 . S
O96 C88 1.245 . S
C97 O79 1.245 . S
C97 O80 1.263 . S
O98 Zn69 1.945 . S
O98 C94 1.262 . S
O99 Zn58 1.981 . S
O99 C94 1.245 . S
C100 O81 1.276 . S
C100 O101 1.246 . S
O101 C100 1.246 . S
C102 O83 1.276 . S
C102 O103 1.246 . S
O103 C102 1.246 . S
C104 N105 1.317 . S
C104 N106 1.348 1_556 S
C104 C107 1.485 . S
N105 C104 1.317 . S
N105 N109 1.370 1_556 S
N106 C104 1.348 1_554 S
N106 C108 1.346 . S
C107 C104 1.485 . S
C107 H111 0.960 . S
C107 H112 0.961 . S
C107 H113 0.960 . S
C108 N106 1.346 . S
C108 N109 1.307 . S
C108 C110 1.486 . S
N109 N105 1.370 1_554 S
N109 C108 1.307 . S
C110 C108 1.486 . S
C110 H114 0.960 . S
C110 H115 0.960 . S
C110 H116 0.959 . S
H111 C107 0.960 . S
H112 C107 0.961 . S
H113 C107 0.960 . S
H114 C110 0.960 . S
H115 C110 0.960 . S
H116 C110 0.959 . S
C117 N118 1.317 . S
C117 N119 1.348 1_556 S
C117 C120 1.485 . S
N118 C117 1.317 . S
N118 N122 1.370 1_556 S
N119 C117 1.348 1_554 S
N119 C121 1.346 . S
C120 C117 1.485 . S
C120 H124 0.960 . S
C120 H125 0.961 . S
C120 H126 0.960 . S
C121 N119 1.346 . S
C121 N122 1.307 . S
C121 C123 1.486 . S
N122 N118 1.370 1_554 S
N122 C121 1.307 . S
C123 C121 1.486 . S
C123 H127 0.960 . S
C123 H128 0.960 . S
C123 H129 0.959 . S
H124 C120 0.960 . S
H125 C120 0.961 . S
H126 C120 0.960 . S
H127 C123 0.960 . S
H128 C123 0.960 . S
H129 C123 0.959 . S
C130 N131 1.317 . S
C130 N132 1.348 . S
C130 C133 1.485 . S
N131 C130 1.317 . S
N131 N135 1.370 1_554 S
N132 C130 1.348 . S
N132 C134 1.346 1_554 S
C133 C130 1.485 . S
C133 H137 0.960 . S
C133 H138 0.961 . S
C133 H139 0.960 . S
C134 N132 1.346 1_556 S
C134 N135 1.307 . S
C134 C136 1.486 . S
N135 N131 1.370 1_556 S
N135 C134 1.307 . S
C136 C134 1.486 . S
C136 H140 0.960 . S
C136 H141 0.960 . S
C136 H142 0.959 . S
H137 C133 0.960 . S
H138 C133 0.961 . S
H139 C133 0.960 . S
H140 C136 0.960 . S
H141 C136 0.960 . S
H142 C136 0.959 . S
C143 N144 1.317 . S
C143 N145 1.348 . S
C143 C146 1.485 . S
N144 C143 1.317 . S
N144 N148 1.370 1_554 S
N145 C143 1.348 . S
N145 C147 1.346 1_554 S
C146 C143 1.485 . S
C146 H150 0.960 . S
C146 H151 0.961 . S
C146 H152 0.960 . S
C147 N145 1.346 1_556 S
C147 N148 1.307 . S
C147 C149 1.486 . S
N148 N144 1.370 1_556 S
N148 C147 1.307 . S
C149 C147 1.486 . S
C149 H153 0.960 . S
C149 H154 0.960 . S
C149 H155 0.959 . S
H150 C146 0.960 . S
H151 C146 0.961 . S
H152 C146 0.960 . S
H153 C149 0.960 . S
H154 C149 0.960 . S
H155 C149 0.959 . S
C156 N157 1.317 . S
C156 N158 1.348 . S
C156 C159 1.485 . S
N157 C156 1.317 . S
N157 N161 1.370 . S
N158 C156 1.348 . S
N158 C160 1.346 . S
C159 C156 1.485 . S
C159 H163 0.960 . S
C159 H164 0.961 . S
C159 H165 0.960 . S
C160 N158 1.346 . S
C160 N161 1.307 . S
C160 C162 1.486 . S
N161 N157 1.370 . S
N161 C160 1.307 . S
C162 C160 1.486 . S
C162 H166 0.960 . S
C162 H167 0.960 . S
C162 H168 0.959 . S
H163 C159 0.960 . S
H164 C159 0.961 . S
H165 C159 0.960 . S
H166 C162 0.960 . S
H167 C162 0.960 . S
H168 C162 0.959 . S
C169 N170 1.317 . S
C169 N171 1.348 . S
C169 C172 1.485 . S
N170 C169 1.317 . S
N170 N174 1.370 . S
N171 C169 1.348 . S
N171 C173 1.346 . S
C172 C169 1.485 . S
C172 H176 0.960 . S
C172 H177 0.961 . S
C172 H178 0.960 . S
C173 N171 1.346 . S
C173 N174 1.307 . S
C173 C175 1.486 . S
N174 N170 1.370 . S
N174 C173 1.307 . S
C175 C173 1.486 . S
C175 H179 0.960 . S
C175 H180 0.960 . S
C175 H181 0.959 . S
H176 C172 0.960 . S
H177 C172 0.961 . S
H178 C172 0.960 . S
H179 C175 0.960 . S
H180 C175 0.960 . S
H181 C175 0.959 . S
C182 N183 1.317 . S
C182 N184 1.348 . S
C182 C185 1.485 . S
N183 C182 1.317 . S
N183 N187 1.370 . S
N184 C182 1.348 . S
N184 C186 1.346 . S
C185 C182 1.485 . S
C185 H189 0.960 . S
C185 H190 0.961 . S
C185 H191 0.960 . S
C186 N184 1.346 . S
C186 N187 1.307 . S
C186 C188 1.486 . S
N187 N183 1.370 . S
N187 C186 1.307 . S
C188 C186 1.486 . S
C188 H192 0.960 . S
C188 H193 0.960 . S
C188 H194 0.959 . S
H189 C185 0.960 . S
H190 C185 0.961 . S
H191 C185 0.960 . S
H192 C188 0.960 . S
H193 C188 0.960 . S
H194 C188 0.959 . S
C195 N196 1.317 . S
C195 N197 1.348 . S
C195 C198 1.485 . S
N196 C195 1.317 . S
N196 N200 1.370 . S
N197 C195 1.348 . S
N197 C199 1.346 . S
C198 C195 1.485 . S
C198 H202 0.960 . S
C198 H203 0.961 . S
C198 H204 0.960 . S
C199 N197 1.346 . S
C199 N200 1.307 . S
C199 C201 1.486 . S
N200 N196 1.370 . S
N200 C199 1.307 . S
C201 C199 1.486 . S
C201 H205 0.960 . S
C201 H206 0.960 . S
C201 H207 0.959 . S
H202 C198 0.960 . S
H203 C198 0.961 . S
H204 C198 0.960 . S
H205 C201 0.960 . S
H206 C201 0.960 . S
H207 C201 0.959 . S
C208 C209 1.387 . S
C208 H212 0.950 . S
C208 C217 1.390 . S
C209 C208 1.387 . S
C209 C211 1.387 1_554 S
H210 C217 0.950 . S
C211 C209 1.387 1_556 S
C211 C213 1.390 . S
C211 H215 0.950 . S
H212 C208 0.950 . S
C213 C211 1.390 . S
C213 C214 1.387 1_556 S
C213 H216 0.950 . S
C214 C213 1.387 1_554 S
C214 C217 1.387 . S
H215 C211 0.950 . S
H216 C213 0.950 . S
C217 C208 1.390 . S
C217 H210 0.950 . S
C217 C214 1.387 . S
C218 C219 1.387 1_556 S
C218 H222 0.950 . S
C218 C227 1.390 . S
C219 C218 1.387 1_554 S
C219 C221 1.387 . S
H220 C227 0.950 . S
C221 C219 1.387 . S
C221 C223 1.390 . S
C221 H225 0.950 . S
H222 C218 0.950 . S
C223 C221 1.390 . S
C223 C224 1.387 . S
C223 H226 0.950 . S
C224 C223 1.387 . S
C224 C227 1.387 1_554 S
H225 C221 0.950 . S
H226 C223 0.950 . S
C227 C218 1.390 . S
C227 H220 0.950 . S
C227 C224 1.387 1_556 S
C228 C229 1.387 1_556 S
C228 H232 0.950 . S
C228 C237 1.390 . S
C229 C228 1.387 1_554 S
C229 C231 1.387 . S
H230 C237 0.950 . S
C231 C229 1.387 . S
C231 C233 1.390 . S
C231 H235 0.950 . S
H232 C228 0.950 . S
C233 C231 1.390 . S
C233 C234 1.387 . S
C233 H236 0.950 . S
C234 C233 1.387 . S
C234 C237 1.387 1_554 S
H235 C231 0.950 . S
H236 C233 0.950 . S
C237 C228 1.390 . S
C237 H230 0.950 . S
C237 C234 1.387 1_556 S
C238 C239 1.387 1_556 S
C238 H242 0.950 . S
C238 C247 1.390 . S
C239 C238 1.387 1_554 S
C239 C241 1.387 . S
H240 C247 0.950 . S
C241 C239 1.387 . S
C241 C243 1.390 . S
C241 H245 0.950 . S
H242 C238 0.950 . S
C243 C241 1.390 . S
C243 C244 1.387 . S
C243 H246 0.950 . S
C244 C243 1.387 . S
C244 C247 1.387 1_554 S
H245 C241 0.950 . S
H246 C243 0.950 . S
C247 C238 1.390 . S
C247 H240 0.950 . S
C247 C244 1.387 1_556 S
C248 C249 1.387 . S
C248 H252 0.950 . S
C248 C257 1.390 . S
C249 C248 1.387 . S
C249 C251 1.387 . S
H250 C257 0.950 . S
C251 C249 1.387 . S
C251 C253 1.390 . S
C251 H255 0.950 . S
H252 C248 0.950 . S
C253 C251 1.390 . S
C253 C254 1.387 . S
C253 H256 0.950 . S
C254 C253 1.387 . S
C254 C257 1.387 . S
H255 C251 0.950 . S
H256 C253 0.950 . S
C257 C248 1.390 . S
C257 H250 0.950 . S
C257 C254 1.387 . S
C258 C259 1.387 . S
C258 H262 0.950 . S
C258 C267 1.390 . S
C259 C258 1.387 . S
C259 C261 1.387 . S
H260 C267 0.950 . S
C261 C259 1.387 . S
C261 C263 1.390 . S
C261 H265 0.950 . S
H262 C258 0.950 . S
C263 C261 1.390 . S
C263 C264 1.387 . S
C263 H266 0.950 . S
C264 C263 1.387 . S
C264 C267 1.387 . S
H265 C261 0.950 . S
H266 C263 0.950 . S
C267 C258 1.390 . S
C267 H260 0.950 . S
C267 C264 1.387 . S
C268 C269 1.387 . S
C268 H272 0.950 . S
C268 C277 1.390 . S
C269 C268 1.387 . S
C269 C271 1.387 . S
H270 C277 0.950 . S
C271 C269 1.387 . S
C271 C273 1.390 . S
C271 H275 0.950 . S
H272 C268 0.950 . S
C273 C271 1.390 . S
C273 C274 1.387 . S
C273 H276 0.950 . S
C274 C273 1.387 . S
C274 C277 1.387 . S
H275 C271 0.950 . S
H276 C273 0.950 . S
C277 C268 1.390 . S
C277 H270 0.950 . S
C277 C274 1.387 . S
C278 C279 1.387 . S
C278 H282 0.950 . S
C278 C287 1.390 . S
C279 C278 1.387 . S
C279 C281 1.387 . S
H280 C287 0.950 . S
C281 C279 1.387 . S
C281 C283 1.390 . S
C281 H285 0.950 . S
H282 C278 0.950 . S
C283 C281 1.390 . S
C283 C284 1.387 . S
C283 H286 0.950 . S
C284 C283 1.387 . S
C284 C287 1.387 . S
H285 C281 0.950 . S
H286 C283 0.950 . S
C287 C278 1.390 . S
C287 H280 0.950 . S
C287 C284 1.387 . S
C288 C289 1.387 . S
C288 H292 0.950 . S
C288 C297 1.390 . S
C289 C288 1.387 . S
C289 C291 1.387 . S
H290 C297 0.950 . S
C291 C289 1.387 . S
C291 C293 1.390 . S
C291 H295 0.950 . S
H292 C288 0.950 . S
C293 C291 1.390 . S
C293 C294 1.387 . S
C293 H296 0.950 . S
C294 C293 1.387 . S
C294 C297 1.387 . S
H295 C291 0.950 . S
H296 C293 0.950 . S
C297 C288 1.390 . S
C297 H290 0.950 . S
C297 C294 1.387 . S
C298 C299 1.387 . S
C298 H302 0.950 1_545 S
C298 C307 1.390 . S
C299 C298 1.387 . S
C299 C301 1.387 . S
H300 C307 0.950 . S
C301 C299 1.387 . S
C301 C303 1.390 . S
C301 H305 0.950 . S
H302 C298 0.950 1_565 S
C303 C301 1.390 . S
C303 C304 1.387 . S
C303 H306 0.950 . S
C304 C303 1.387 . S
C304 C307 1.387 . S
H305 C301 0.950 . S
H306 C303 0.950 . S
C307 C298 1.390 . S
C307 H300 0.950 . S
C307 C304 1.387 . S
C308 C309 1.387 . S
C308 H312 0.950 1_655 S
C308 C317 1.390 . S
C309 C308 1.387 . S
C309 C311 1.387 . S
H310 C317 0.950 . S
C311 C309 1.387 . S
C311 C313 1.390 . S
C311 H315 0.950 . S
H312 C308 0.950 1_455 S
C313 C311 1.390 . S
C313 C314 1.387 . S
C313 H316 0.950 . S
C314 C313 1.387 . S
C314 C317 1.387 . S
H315 C311 0.950 . S
H316 C313 0.950 . S
C317 C308 1.390 . S
C317 H310 0.950 . S
C317 C314 1.387 . S
C318 C319 1.387 . S
C318 H322 0.950 1_565 S
C318 C327 1.390 . S
C319 C318 1.387 . S
C319 C321 1.387 . S
H320 C327 0.950 . S
C321 C319 1.387 . S
C321 C323 1.390 . S
C321 H325 0.950 . S
H322 C318 0.950 1_545 S
C323 C321 1.390 . S
C323 C324 1.387 . S
C323 H326 0.950 . S
C324 C323 1.387 . S
C324 C327 1.387 . S
H325 C321 0.950 . S
H326 C323 0.950 . S
C327 C318 1.390 . S
C327 H320 0.950 . S
C327 C324 1.387 . S
C328 C329 1.387 . S
C328 H332 0.950 1_565 S
C328 C337 1.390 . S
C329 C328 1.387 . S
C329 C331 1.387 . S
H330 C337 0.950 . S
C331 C329 1.387 . S
C331 C333 1.390 . S
C331 H335 0.950 . S
H332 C328 0.950 1_545 S
C333 C331 1.390 . S
C333 C334 1.387 . S
C333 H336 0.950 . S
C334 C333 1.387 . S
C334 C337 1.387 . S
H335 C331 0.950 . S
H336 C333 0.950 . S
C337 C328 1.390 . S
C337 H330 0.950 . S
C337 C334 1.387 . S
C338 C339 1.387 . S
C338 H342 0.950 . S
C338 C347 1.390 . S
C339 C338 1.387 . S
C339 C341 1.387 . S
H340 C347 0.950 . S
C341 C339 1.387 . S
C341 C343 1.390 . S
C341 H345 0.950 . S
H342 C338 0.950 . S
C343 C341 1.390 . S
C343 C344 1.387 . S
C343 H346 0.950 . S
C344 C343 1.387 . S
C344 C347 1.387 . S
H345 C341 0.950 . S
H346 C343 0.950 . S
C347 C338 1.390 . S
C347 H340 0.950 . S
C347 C344 1.387 . S
C348 C349 1.387 . S
C348 H352 0.950 . S
C348 C357 1.390 . S
C349 C348 1.387 . S
C349 C351 1.387 . S
H350 C357 0.950 . S
C351 C349 1.387 . S
C351 C353 1.390 . S
C351 H355 0.950 1_545 S
H352 C348 0.950 . S
C353 C351 1.390 . S
C353 C354 1.387 . S
C353 H356 0.950 . S
C354 C353 1.387 . S
C354 C357 1.387 . S
H355 C351 0.950 1_565 S
H356 C353 0.950 . S
C357 C348 1.390 . S
C357 H350 0.950 . S
C357 C354 1.387 . S
C358 C359 1.387 . S
C358 H362 0.950 . S
C358 C367 1.390 . S
C359 C358 1.387 . S
C359 C361 1.387 . S
H360 C367 0.950 . S
C361 C359 1.387 . S
C361 C363 1.390 . S
C361 H365 0.950 . S
H362 C358 0.950 . S
C363 C361 1.390 . S
C363 C364 1.387 . S
C363 H366 0.950 . S
C364 C363 1.387 . S
C364 C367 1.387 . S
H365 C361 0.950 . S
H366 C363 0.950 . S
C367 C358 1.390 . S
C367 H360 0.950 . S
C367 C364 1.387 . S
C368 C369 1.387 . S
C368 H372 0.950 . S
C368 C377 1.390 . S
C369 C368 1.387 . S
C369 C371 1.387 . S
H370 C377 0.950 . S
C371 C369 1.387 . S
C371 C373 1.390 . S
C371 H375 0.950 . S
H372 C368 0.950 . S
C373 C371 1.390 . S
C373 C374 1.387 . S
C373 H376 0.950 . S
C374 C373 1.387 . S
C374 C377 1.387 . S
H375 C371 0.950 . S
H376 C373 0.950 . S
C377 C368 1.390 . S
C377 H370 0.950 . S
C377 C374 1.387 . S
C378 C379 1.387 . S
C378 H382 0.950 . S
C378 C387 1.390 . S
C379 C378 1.387 . S
C379 C381 1.387 . S
H380 C387 0.950 . S
C381 C379 1.387 . S
C381 C383 1.390 . S
C381 H385 0.950 . S
H382 C378 0.950 . S
C383 C381 1.390 . S
C383 C384 1.387 . S
C383 H386 0.950 . S
C384 C383 1.387 . S
C384 C387 1.387 . S
H385 C381 0.950 . S
H386 C383 0.950 . S
C387 C378 1.390 . S
C387 H380 0.950 . S
C387 C384 1.387 . S
C388 C389 1.387 . S
C388 H392 0.950 . S
C388 C397 1.390 . S
C389 C388 1.387 . S
C389 C391 1.387 . S
H390 C397 0.950 . S
C391 C389 1.387 . S
C391 C393 1.390 . S
C391 H395 0.950 . S
H392 C388 0.950 . S
C393 C391 1.390 . S
C393 C394 1.387 . S
C393 H396 0.950 . S
C394 C393 1.387 . S
C394 C397 1.387 . S
H395 C391 0.950 . S
H396 C393 0.950 . S
C397 C388 1.390 . S
C397 H390 0.950 . S
C397 C394 1.387 . S
C398 C399 1.387 . S
C398 H402 0.950 . S
C398 C407 1.390 . S
C399 C398 1.387 . S
C399 C401 1.387 . S
H400 C407 0.950 . S
C401 C399 1.387 . S
C401 C403 1.390 . S
C401 H405 0.950 . S
H402 C398 0.950 . S
C403 C401 1.390 . S
C403 C404 1.387 . S
C403 H406 0.950 . S
C404 C403 1.387 . S
C404 C407 1.387 . S
H405 C401 0.950 . S
H406 C403 0.950 . S
C407 C398 1.390 . S
C407 H400 0.950 . S
C407 C404 1.387 . S
C408 C409 1.387 . S
C408 H412 0.950 . S
C408 C417 1.390 . S
C409 C408 1.387 . S
C409 C411 1.387 . S
H410 C417 0.950 . S
C411 C409 1.387 . S
C411 C413 1.390 . S
C411 H415 0.950 . S
H412 C408 0.950 . S
C413 C411 1.390 . S
C413 C414 1.387 . S
C413 H416 0.950 . S
C414 C413 1.387 . S
C414 C417 1.387 . S
H415 C411 0.950 . S
H416 C413 0.950 . S
C417 C408 1.390 . S
C417 H410 0.950 . S
C417 C414 1.387 . S
C418 C419 1.387 . S
C418 H422 0.950 . S
C418 C427 1.390 . S
C419 C418 1.387 . S
C419 C421 1.387 . S
H420 C427 0.950 . S
C421 C419 1.387 . S
C421 C423 1.390 . S
C421 H425 0.950 . S
H422 C418 0.950 . S
C423 C421 1.390 . S
C423 C424 1.387 . S
C423 H426 0.950 . S
C424 C423 1.387 . S
C424 C427 1.387 . S
H425 C421 0.950 . S
H426 C423 0.950 . S
C427 C418 1.390 . S
C427 H420 0.950 . S
C427 C424 1.387 . S
C428 C429 1.387 . S
C428 H432 0.950 . S
C428 C437 1.390 . S
C429 C428 1.387 . S
C429 C431 1.387 . S
H430 C437 0.950 . S
C431 C429 1.387 . S
C431 C433 1.390 . S
C431 H435 0.950 . S
H432 C428 0.950 . S
C433 C431 1.390 . S
C433 C434 1.387 . S
C433 H436 0.950 . S
C434 C433 1.387 . S
C434 C437 1.387 . S
H435 C431 0.950 . S
H436 C433 0.950 . S
C437 C428 1.390 . S
C437 H430 0.950 . S
C437 C434 1.387 . S
C438 C439 1.387 . S
C438 H442 0.950 . S
C438 C447 1.390 . S
C439 C438 1.387 . S
C439 C441 1.387 . S
H440 C447 0.950 . S
C441 C439 1.387 . S
C441 C443 1.390 . S
C441 H445 0.950 . S
H442 C438 0.950 . S
C443 C441 1.390 . S
C443 C444 1.387 . S
C443 H446 0.950 . S
C444 C443 1.387 . S
C444 C447 1.387 . S
H445 C441 0.950 . S
H446 C443 0.950 . S
C447 C438 1.390 . S
C447 H440 0.950 . S
C447 C444 1.387 . S
C209 C45 1.533 . S
C214 N106 1.545 . S
C219 C30 1.531 . S
C224 N119 1.544 . S
C229 C39 1.531 . S
C234 N132 1.533 . S
C244 N145 1.533 . S
C239 C34 1.531 . S
C249 C97 1.533 . S
C254 N158 1.545 . S
C264 N171 1.535 . S
C259 C82 1.533 . S
C274 N184 1.533 . S
C269 C91 1.531 . S
C284 N197 1.533 . S
C279 C86 1.531 . S
C294 N187 1.518 . S
C289 C26 1.483 . S
C304 N200 1.518 . S
C299 C36 1.482 . S
C314 N157 1.527 . S
C309 C32 1.481 . S
C324 N174 1.519 . S
C319 C42 1.483 . S
C329 C18 1.526 . S
C334 N170 1.570 . S
C344 N183 1.571 . S
C339 C50 1.525 . S
C349 C4 1.524 . S
C354 N196 1.571 . S
C359 C48 1.527 . S
C364 N161 1.587 . S
C374 N135 1.518 . S
C369 C78 1.485 . S
C379 C88 1.484 . S
C384 N148 1.519 . S
C394 N105 1.528 . S
C389 C84 1.483 . S
C404 N118 1.527 . S
C399 C94 1.481 . S
C414 N122 1.588 . S
C409 C70 1.528 . S
C424 N131 1.572 . S
C419 C102 1.526 . S
C429 C56 1.527 . S
C434 N144 1.571 . S
C439 C100 1.528 . S
C444 N109 1.588 . S
