# Generated by pormake.
# Topology anh, (6,3)-cn, num edge types: 1
# Building blocks:
#     Node 0, Type 0, BuildingBlock: BETDAH_clean_sbu_0, # of connection points: 6
#     Node 1, Type 0, BuildingBlock: BETDAH_clean_sbu_0, # of connection points: 6
#     Node 2, Type 0, BuildingBlock: BETDAH_clean_sbu_0, # of connection points: 6
#     Node 3, Type 1, BuildingBlock: BETDAH_clean_linker_0, # of connection points: 3
#     Node 4, Type 1, BuildingBlock: BETDAH_clean_linker_0, # of connection points: 3
#     Node 5, Type 1, BuildingBlock: BETDAH_clean_linker_0, # of connection points: 3
#     Node 6, Type 1, BuildingBlock: BETDAH_clean_linker_0, # of connection points: 3
#     Node 7, Type 1, BuildingBlock: BETDAH_clean_linker_0, # of connection points: 3
#     Node 8, Type 1, BuildingBlock: BETDAH_clean_linker_0, # of connection points: 3
#     Edge 9, Type (0, 1), BuildingBlock: AJUNOK_clean_linker_0, # of connection points: 2
#     Edge 10, Type (0, 1), BuildingBlock: AJUNOK_clean_linker_0, # of connection points: 2
#     Edge 11, Type (0, 1), BuildingBlock: AJUNOK_clean_linker_0, # of connection points: 2
#     Edge 12, Type (0, 1), BuildingBlock: AJUNOK_clean_linker_0, # of connection points: 2
#     Edge 13, Type (0, 1), BuildingBlock: AJUNOK_clean_linker_0, # of connection points: 2
#     Edge 14, Type (0, 1), BuildingBlock: AJUNOK_clean_linker_0, # of connection points: 2
#     Edge 15, Type (0, 1), BuildingBlock: AJUNOK_clean_linker_0, # of connection points: 2
#     Edge 16, Type (0, 1), BuildingBlock: AJUNOK_clean_linker_0, # of connection points: 2
#     Edge 17, Type (0, 1), BuildingBlock: AJUNOK_clean_linker_0, # of connection points: 2
#     Edge 18, Type (0, 1), BuildingBlock: AJUNOK_clean_linker_0, # of connection points: 2
#     Edge 19, Type (0, 1), BuildingBlock: AJUNOK_clean_linker_0, # of connection points: 2
#     Edge 20, Type (0, 1), BuildingBlock: AJUNOK_clean_linker_0, # of connection points: 2
#     Edge 21, Type (0, 1), BuildingBlock: AJUNOK_clean_linker_0, # of connection points: 2
#     Edge 22, Type (0, 1), BuildingBlock: AJUNOK_clean_linker_0, # of connection points: 2
#     Edge 23, Type (0, 1), BuildingBlock: AJUNOK_clean_linker_0, # of connection points: 2
#     Edge 24, Type (0, 1), BuildingBlock: AJUNOK_clean_linker_0, # of connection points: 2
#     Edge 25, Type (0, 1), BuildingBlock: AJUNOK_clean_linker_0, # of connection points: 2
#     Edge 26, Type (0, 1), BuildingBlock: AJUNOK_clean_linker_0, # of connection points: 2
# Relax obj value: 0.210
# Max RMSD: 0.215
# Mean RMSD: 0.120
data_MOF--net-anh--node1-BETDAH_clean_sbu_0--node2-BETDAH_clean_linker_0--edge1-AJUNOK_clean_linker_0
_symmetry_space_group_name_H-M    P1
_symmetry_Int_Tables_number       1
_symmetry_cell_setting            triclinic
loop_
_symmetry_equiv_pos_as_xyz
'x, y, z'
_cell_length_a     22.462342
_cell_length_b     29.692389
_cell_length_c     35.954902
_cell_angle_alpha  93.393092
_cell_angle_beta   89.809149
_cell_angle_gamma 132.77676
loop_
_atom_site_label
_atom_site_type_symbol
_atom_site_fract_x
_atom_site_fract_y
_atom_site_fract_z
_atom_type_partial_charge
Ho0 Ho 0.27065 0.60726 0.15388 0.0
Ho1 Ho 0.14853 0.61609 0.17935 0.0
C2 C 0.33548 0.74342 0.17156 0.0
C3 C 0.36101 0.60111 0.11487 0.0
C4 C 0.34754 0.5471 0.10184 0.0
C5 C 0.37712 0.54634 0.06775 0.0
C6 C 0.36163 0.494 0.05445 0.0
C7 C 0.31676 0.44199 0.07524 0.0
C8 C 0.28369 0.44173 0.10844 0.0
C9 C 0.29874 0.49397 0.12161 0.0
C10 C 0.24646 0.60062 0.22784 0.0
C11 C 1.09193 0.48402 0.16887 0.0
C12 C 1.0486 0.61886 0.21147 0.0
C13 C 0.9601 0.56797 0.20825 0.0
C14 C 0.90666 0.57472 0.21962 0.0
C15 C 0.8229 0.52644 0.21134 0.0
C16 C 0.7924 0.47133 0.19158 0.0
C17 C 0.84646 0.46415 0.18265 0.0
C18 C 0.92889 0.51183 0.19073 0.0
C19 C 1.13652 0.58213 0.10569 0.0
O20 O 0.3534 0.71042 0.16079 0.0
O21 O 0.261 0.71744 0.18031 0.0
O22 O 0.3092 0.60242 0.10009 0.0
O23 O 0.37403 0.61576 0.15094 0.0
O24 O 0.26006 0.56973 0.20917 0.0
O25 O 0.25068 0.6349 0.20673 0.0
O26 O 1.08645 0.51894 0.18979 0.0
O27 O 0.15332 0.50788 0.14723 0.0
O28 O 1.08204 0.64489 0.18033 0.0
O29 O 1.08599 0.60569 0.22856 0.0
O30 O 1.07522 0.56274 0.12494 0.0
O31 O 0.20031 0.62237 0.12562 0.0
H32 H 0.41264 0.58632 0.05162 0.0
H33 H 0.38705 0.49478 0.02856 0.0
H34 H 0.24929 0.40221 0.12495 0.0
H35 H 0.27318 0.49316 0.14746 0.0
H36 H 0.92975 0.61783 0.23324 0.0
H37 H 0.78267 0.53349 0.21833 0.0
H38 H 0.82654 0.42386 0.16628 0.0
H39 H 0.96869 0.5058 0.18111 0.0
Ho40 Ho 0.79534 0.10763 0.48406 0.0
Ho41 Ho 0.67338 0.11878 0.47149 0.0
C42 C 0.60435 0.98467 0.46871 0.0
C43 C 0.87589 0.08112 0.50843 0.0
C44 C 0.85774 0.02605 0.51906 0.0
C45 C 0.91148 0.03254 0.54388 0.0
C46 C 0.89827 0.98107 0.55226 0.0
C47 C 0.83106 0.92236 0.53585 0.0
C48 C 0.77544 0.91576 0.51221 0.0
C49 C 0.78887 0.96726 0.50374 0.0
C50 C 0.77486 0.12057 0.41257 0.0
C51 C 0.86778 0.24315 0.48249 0.0
C52 C 0.5963 0.15028 0.45191 0.0
C53 C 0.60268 0.2011 0.46641 0.0
C54 C 0.61841 0.24319 0.44221 0.0
C55 C 0.6325 0.29487 0.45628 0.0
C56 C 0.63059 0.30498 0.49477 0.0
C57 C 0.61249 0.26192 0.51879 0.0
C58 C 0.59916 0.2107 0.50483 0.0
C59 C 0.69076 0.10371 0.54265 0.0
O60 O 0.6734 1.01001 0.48671 0.0
O61 O 0.59584 1.01926 0.45297 0.0
O62 O 0.86408 0.08227 0.47306 0.0
O63 O 0.84997 0.10092 0.53029 0.0
O64 O 0.84397 0.14428 0.42784 0.0
O65 O 0.71974 0.08822 0.43512 0.0
O66 O 0.79313 0.21793 0.47323 0.0
O67 O 0.88435 0.21008 0.49129 0.0
O68 O 0.56746 0.10695 0.47431 0.0
O69 O 0.65933 0.16672 0.43479 0.0
O70 O 0.62313 0.08174 0.52689 0.0
O71 O 0.74764 0.13739 0.52094 0.0
H72 H 0.96481 0.07763 0.55603 0.0
H73 H 0.94226 0.98751 0.57044 0.0
H74 H 0.72241 0.87092 0.4997 0.0
H75 H 0.74656 0.96136 0.48458 0.0
H76 H 0.62174 0.23687 0.41254 0.0
H77 H 0.64585 0.32733 0.4372 0.0
H78 H 0.61148 0.26905 0.54861 0.0
H79 H 0.58814 0.17955 0.52434 0.0
Ho80 Ho 0.71274 0.61173 0.85452 0.0
Ho81 Ho 0.58493 0.47266 0.84316 0.0
C82 C 0.51778 0.53901 0.85443 0.0
C83 C 0.80354 0.72848 0.8485 0.0
C84 C 0.79553 0.77204 0.83954 0.0
C85 C 0.73375 0.75474 0.81463 0.0
C86 C 0.7307 0.79825 0.805 0.0
C87 C 0.78915 0.85958 0.82023 0.0
C88 C 0.84991 0.87624 0.8456 0.0
C89 C 0.85315 0.83294 0.85505 0.0
C90 C 0.66904 0.5498 0.91619 0.0
C91 C 0.78076 0.54546 0.85133 0.0
C92 C 0.50383 0.35676 0.84518 0.0
C93 C 0.52343 0.31911 0.83467 0.0
C94 C 0.56265 0.31179 0.86062 0.0
C95 C 0.58622 0.27995 0.84987 0.0
C96 C 0.57053 0.25429 0.81306 0.0
C97 C 0.53013 0.2607 0.78734 0.0
C98 C 0.50637 0.29233 0.79807 0.0
C99 C 0.62982 0.53127 0.77973 0.0
O100 O 0.59314 0.58999 0.84737 0.0
O101 O 0.5011 0.48737 0.85891 0.0
O102 O 0.77589 0.70313 0.8802 0.0
O103 O 0.78654 0.68967 0.82115 0.0
O104 O 0.74343 0.59962 0.91092 0.0
O105 O 0.62342 0.5383 0.88964 0.0
O106 O 0.70313 0.49314 0.85138 0.0
O107 O 0.80065 0.5987 0.84922 0.0
O108 O 0.495 0.37943 0.81793 0.0
O109 O 0.54507 0.39662 0.87406 0.0
O110 O 0.5563 0.48166 0.78595 0.0
O111 O 0.67641 0.5459 0.80709 0.0
H112 H 0.68834 0.70783 0.80244 0.0
H113 H 0.68236 0.78387 0.7859 0.0
H114 H 0.89584 0.92316 0.85771 0.0
H115 H 0.90141 0.84724 0.8742 0.0
H116 H 0.57636 0.33151 0.88913 0.0
H117 H 0.61702 0.27557 0.87033 0.0
H118 H 0.51872 0.24264 0.75856 0.0
H119 H 0.47619 0.29693 0.77737 0.0
H120 H 0.59678 0.99031 0.26108 0.0
H121 H 0.78955 0.1794 0.23658 0.0
H122 H 0.63148 0.0388 0.14786 0.0
C123 C 0.62957 0.02527 0.2412 0.0
C124 C 0.60581 1.00767 0.20329 0.0
C125 C 0.69614 0.087 0.25358 0.0
C126 C 0.73893 0.13164 0.22725 0.0
C127 C 0.71586 0.11438 0.18894 0.0
C128 C 0.64928 0.0523 0.17729 0.0
N129 N 0.75805 0.15756 0.16125 0.0
C130 C 0.82369 0.22082 0.16786 0.0
H131 H 0.66997 0.48156 0.62069 0.0
H132 H 0.7875 0.67158 0.62457 0.0
H133 H 0.77961 0.58365 0.52326 0.0
C134 C 0.702 0.52346 0.60669 0.0
C135 C 0.72244 0.52557 0.56939 0.0
C136 C 0.72471 0.57569 0.62664 0.0
C137 C 0.76862 0.63085 0.60919 0.0
C138 C 0.7893 0.63338 0.57198 0.0
C139 C 0.76547 0.58095 0.55232 0.0
N140 N 0.83763 0.68872 0.55393 0.0
C141 C 0.82737 0.72983 0.55668 0.0
H142 H 1.0097 0.54923 0.94397 0.0
H143 H 0.20834 0.55764 0.93198 0.0
H144 H 1.08216 0.54249 0.83465 0.0
C145 C 1.049 0.54929 0.92631 0.0
C146 C 1.03799 0.54544 0.88749 0.0
C147 C 1.11037 0.55426 0.94281 0.0
C148 C 0.16052 0.55318 0.91961 0.0
C149 C 0.15054 0.54828 0.88042 0.0
C150 C 1.08964 0.54534 0.8647 0.0
N151 N 0.20052 0.54712 0.85591 0.0
C152 C 0.26188 0.54712 0.86481 0.0
H153 H 0.36763 0.73129 0.38098 0.0
H154 H 0.17388 0.54372 0.40688 0.0
H155 H 0.31384 0.68894 0.49521 0.0
C156 C 0.33113 0.69788 0.40146 0.0
C157 C 0.34795 0.71807 0.43935 0.0
C158 C 0.26723 0.63568 0.38937 0.0
C159 C 0.22277 0.59188 0.41603 0.0
C160 C 0.24068 0.61118 0.45448 0.0
C161 C 0.30255 0.67421 0.46574 0.0
N162 N 0.19733 0.56941 0.4828 0.0
C163 C 1.1326 0.50596 0.47712 0.0
H164 H 0.65834 0.14035 0.70085 0.0
H165 H 0.78725 0.08178 0.71302 0.0
H166 H 0.74557 0.14854 0.80957 0.0
C167 C 0.68837 0.1319 0.71861 0.0
C168 C 0.69595 0.14564 0.75722 0.0
C169 C 0.72151 0.10934 0.70242 0.0
C170 C 0.76133 0.09904 0.72532 0.0
C171 C 0.76931 0.1128 0.76415 0.0
C172 C 0.73828 0.13732 0.77971 0.0
N173 N 0.81237 0.10603 0.78809 0.0
C174 C 0.80117 0.0538 0.78723 0.0
H175 H 0.65667 0.41218 0.04521 0.0
H176 H 0.43402 0.28168 0.97841 0.0
H177 H 0.44383 0.25296 0.09269 0.0
C178 C 0.59539 0.36753 0.04113 0.0
C179 C 0.55729 0.33224 0.07194 0.0
C180 C 0.55171 0.35049 0.00724 0.0
C181 C 0.47031 0.29409 0.00355 0.0
C182 C 0.43098 0.25903 0.03439 0.0
C183 C 0.4755 0.27723 0.0682 0.0
N184 N 0.34598 0.22106 0.03535 0.0
C185 C 0.31944 0.25136 0.04249 0.0
C186 C 0.24235 0.33025 0.0608 0.0
C187 C 0.31558 0.39249 0.06543 0.0
C188 C 0.24292 0.28351 0.05302 0.0
C189 C 0.31673 0.29812 0.05051 0.0
H190 H 0.18472 0.31786 0.06302 0.0
H191 H 0.18579 0.23605 0.0492 0.0
S192 S 0.52392 0.45352 0.06312 0.0
N193 N 0.46277 0.46564 0.06824 0.0
N194 N 0.46391 0.37837 0.0551 0.0
C195 C 0.38971 0.3599 0.05592 0.0
C196 C 0.38916 0.40708 0.06304 0.0
C197 C 1.01048 0.33553 0.46806 0.0
C198 C 0.93517 0.31063 0.48165 0.0
C199 C 1.07416 0.39931 0.46564 0.0
C200 C 1.06471 0.4401 0.47706 0.0
H201 H 1.01989 0.30547 0.45876 0.0
H202 H 1.1313 0.41679 0.45514 0.0
S203 S 0.88301 0.39901 0.51789 0.0
N204 N 0.85661 0.33225 0.50825 0.0
N205 N 0.97682 0.45204 0.50443 0.0
C206 C 0.99056 0.41608 0.49126 0.0
C207 C 0.92551 0.35126 0.49332 0.0
C208 C 0.79276 0.94392 0.83911 0.0
C209 C 0.78702 0.90651 0.81047 0.0
C210 C 0.7957 0.99098 0.83099 0.0
C211 C 0.79334 1.0025 0.79401 0.0
H212 H 0.79539 0.93695 0.86808 0.0
H213 H 0.80098 1.01912 0.8539 0.0
S214 S 0.77888 0.91869 0.70877 0.0
N215 N 0.77906 0.88457 0.74342 0.0
N216 N 0.78451 0.97333 0.7284 0.0
C217 C 0.78662 0.96537 0.76503 0.0
C218 C 0.7833 0.91714 0.77322 0.0
C219 C 0.6898 0.45433 0.15049 0.0
C220 C 0.7113 0.42863 0.17174 0.0
C221 C 0.63492 0.42077 0.1198 0.0
C222 C 0.59929 0.36031 0.1092 0.0
H223 H 0.72182 0.50265 0.15489 0.0
H224 H 0.62523 0.4441 0.10258 0.0
S225 S 0.6189 0.26679 0.16128 0.0
N226 N 0.67947 0.33488 0.18496 0.0
N227 N 0.57751 0.27225 0.12606 0.0
C228 C 0.6119 0.33135 0.13286 0.0
C229 C 0.66747 0.36543 0.16453 0.0
C230 C 0.47344 0.88965 0.43736 0.0
C231 C 0.53719 0.91649 0.46411 0.0
C232 C 0.41163 0.82569 0.43058 0.0
C233 C 0.41062 0.78549 0.45019 0.0
H234 H 0.47186 0.91817 0.42081 0.0
H235 H 0.36454 0.80752 0.40935 0.0
S236 S 0.55904 0.83167 0.52559 0.0
N237 N 0.59184 0.89743 0.51254 0.0
N238 N 0.47662 0.77707 0.49891 0.0
C239 C 0.47216 0.81142 0.47801 0.0
C240 C 0.53526 0.87685 0.48508 0.0
C241 C 0.67981 0.25163 0.80987 0.0
C242 C 0.59929 0.22324 0.80098 0.0
C243 C 0.71012 0.22545 0.79649 0.0
C244 C 0.66111 0.17009 0.77362 0.0
H245 H 0.7205 0.29538 0.82634 0.0
H246 H 0.77307 0.2497 0.80311 0.0
S247 S 0.44361 0.0737 0.74596 0.0
N248 N 0.46923 0.13382 0.77067 0.0
N249 N 0.52654 0.08516 0.74521 0.0
C250 C 0.57981 0.14015 0.76565 0.0
C251 C 0.54884 0.16658 0.77938 0.0
C252 C 0.83223 0.85781 0.57741 0.0
C253 C 0.82263 0.86916 0.54139 0.0
C254 C 0.83121 0.81079 0.58268 0.0
C255 C 0.8206 0.77402 0.55209 0.0
H256 H 0.84163 0.88597 0.60157 0.0
H257 H 0.84046 0.80408 0.61063 0.0
S258 S 0.79387 0.78472 0.4525 0.0
N259 N 0.80298 0.83951 0.47482 0.0
N260 N 0.79986 0.75083 0.48507 0.0
C261 C 0.80948 0.78389 0.51623 0.0
C262 C 0.81068 0.83158 0.51076 0.0
C263 C 0.82863 0.49182 0.86841 0.0
C264 C 0.84699 0.54427 0.85601 0.0
C265 C 0.89002 0.49156 0.87682 0.0
C266 C 0.97295 0.54299 0.87222 0.0
H267 H 0.76637 0.45118 0.87326 0.0
H268 H 0.8725 0.45111 0.88802 0.0
S269 S 1.05493 0.69056 0.8381 0.0
N270 N 0.95598 0.64851 0.83804 0.0
N271 N 1.06962 0.64701 0.85297 0.0
C272 C 0.99205 0.59469 0.85838 0.0
C273 C 0.92981 0.59553 0.85045 0.0
C274 C 0.48453 0.83893 0.17587 0.0
C275 C 0.40314 0.81187 0.17654 0.0
C276 C 0.54983 0.90261 0.18328 0.0
C277 C 0.5365 0.9419 0.19134 0.0
H278 H 0.49832 0.81062 0.17061 0.0
H279 H 0.61122 0.92111 0.18362 0.0
S280 S 0.33726 0.89676 0.19447 0.0
N281 N 0.3142 0.83128 0.18439 0.0
N282 N 0.43743 0.95077 0.1983 0.0
C283 C 0.45626 0.91634 0.19113 0.0
C284 C 0.3895 0.85144 0.1837 0.0
C285 C 0.6 0.35811 0.53507 0.0
C286 C 0.65189 0.36185 0.5106 0.0
C287 C 0.62259 0.41121 0.55328 0.0
C288 C 0.69888 0.4701 0.54846 0.0
H289 H 0.54158 0.31369 0.5403 0.0
H290 H 0.57986 0.40588 0.5714 0.0
S291 S 0.85772 0.50387 0.4878 0.0
N292 N 0.78167 0.42855 0.48164 0.0
N293 N 0.82731 0.52804 0.51792 0.0
C294 C 0.75131 0.4742 0.5239 0.0
C295 C 0.72703 0.4202 0.50449 0.0
C296 C 0.46611 0.59352 0.85081 0.0
C297 C 0.45166 0.54068 0.8586 0.0
C298 C 0.40524 0.59593 0.85397 0.0
C299 C 0.32687 0.54591 0.86543 0.0
H300 H 0.52484 0.63342 0.84164 0.0
H301 H 0.41948 0.63716 0.84676 0.0
S302 S 0.25612 0.39729 0.89053 0.0
N303 N 0.35104 0.43718 0.87938 0.0
N304 N 0.23852 0.4423 0.88515 0.0
C305 C 0.31162 0.49328 0.87384 0.0
C306 C 0.37327 0.49054 0.87053 0.0
C307 C 1.02909 0.38102 0.18944 0.0
C308 C 1.02422 0.41662 0.16798 0.0
C309 C 0.96297 0.31701 0.1899 0.0
C310 C 0.89038 0.28709 0.16893 0.0
H311 H 1.084 0.40284 0.20611 0.0
H312 H 0.96878 0.29083 0.20658 0.0
S313 S 0.84835 0.35954 0.10754 0.0
N314 N 0.94182 0.41725 0.12495 0.0
N315 N 0.81806 0.2974 0.12577 0.0
C316 C 0.88513 0.32222 0.14736 0.0
C317 C 0.95205 0.38703 0.14691 0.0
C318 C 1.12636 0.61064 0.04377 0.0
C319 C 1.13356 0.57584 0.06448 0.0
C320 C 1.12112 0.60438 0.0046 0.0
C321 C 1.12235 0.56271 0.98448 0.0
H322 H 1.12438 0.6428 0.05799 0.0
H323 H 1.11566 0.63234 0.98991 0.0
S324 S 0.14012 0.46064 0.02635 0.0
N325 N 0.14216 0.49862 0.06261 0.0
N326 N 1.13149 0.48607 0.989 0.0
C327 C 1.13065 0.52817 0.00511 0.0
C328 C 1.13617 0.53478 0.04509 0.0
C329 C 0.67955 0.08708 0.35876 0.0
C330 C 0.75906 0.119 0.37231 0.0
C331 C 0.66066 0.07937 0.32046 0.0
C332 C 0.72048 0.10324 0.29411 0.0
H333 H 0.6309 0.0665 0.3778 0.0
H334 H 0.59817 0.05328 0.31133 0.0
S335 S 0.9391 0.19386 0.3153 0.0
N336 N 0.89918 0.17788 0.35657 0.0
N337 N 0.86335 0.1624 0.28447 0.0
C338 C 0.80094 0.13749 0.30738 0.0
C339 C 0.82027 0.14553 0.34649 0.0
C340 C 0.59801 0.51966 0.71158 0.0
C341 C 0.65663 0.55007 0.74146 0.0
C342 C 0.62073 0.52989 0.67451 0.0
C343 C 0.70286 0.57174 0.66594 0.0
H344 H 0.53386 0.48592 0.71673 0.0
H345 H 0.5737 0.50383 0.6523 0.0
S346 S 0.88022 0.66567 0.73353 0.0
N347 N 0.80078 0.62547 0.75978 0.0
N348 N 0.84316 0.64566 0.68993 0.0
C349 C 0.76221 0.60456 0.6954 0.0
C350 C 0.73916 0.59355 0.73323 0.0
C351 C 0.7768 0.13821 0.60142 0.0
C352 C 0.6999 0.0984 0.58252 0.0
C353 C 0.78433 0.13851 0.64031 0.0
C354 C 0.71523 0.0989 0.66131 0.0
H355 H 0.83107 0.17123 0.58641 0.0
H356 H 0.84401 0.17222 0.65428 0.0
S357 S 0.50162 0.9803 0.62463 0.0
N358 N 0.55427 1.0138 0.58742 0.0
N359 N 0.56892 1.01524 0.66023 0.0
C360 C 0.63882 0.05642 0.64244 0.0
C361 C 0.63104 0.05592 0.60307 0.0
C362 C 0.56193 0.45796 0.94931 0.0
C363 C 0.64393 0.50201 0.94079 0.0
C364 C 0.53221 0.4076 0.969 0.0
C365 C 0.58319 0.39884 0.98101 0.0
H366 H 0.52002 0.46233 0.94052 0.0
H367 H 0.46903 0.3765 0.97587 0.0
S368 S 0.8028 0.50006 0.96408 0.0
N369 N 0.77599 0.53365 0.94497 0.0
N370 N 0.71973 0.43772 0.9813 0.0
C371 C 0.66545 0.44227 0.97208 0.0
C372 C 0.696 0.49425 0.95231 0.0
C373 C 0.24368 0.5678 0.29129 0.0
C374 C 0.24222 0.60451 0.26895 0.0
C375 C 0.24669 0.57506 0.33052 0.0
C376 C 0.24781 0.61901 0.34857 0.0
H377 H 0.24516 0.53465 0.27844 0.0
H378 H 0.252 0.54826 0.34676 0.0
S379 S 0.23682 0.72226 0.30296 0.0
N380 N 0.23847 0.68446 0.26812 0.0
N381 N 0.23895 0.69518 0.34118 0.0
C382 C 0.24131 0.65316 0.32645 0.0
C383 C 0.24 0.64676 0.28682 0.0
loop_
_geom_bond_atom_site_label_1
_geom_bond_atom_site_label_2
_geom_bond_distance
_geom_bond_site_symmetry_2
_ccdc_geom_bond_type
Ho0 C3 2.811 . S
Ho0 O20 2.322 . S
Ho0 O22 2.378 . S
Ho0 O23 2.524 . S
Ho0 O24 2.381 . S
Ho0 O25 2.669 . S
Ho0 O27 2.346 1_455 S
Ho0 O31 2.305 . S
Ho1 C12 2.811 1_455 S
Ho1 O21 2.346 . S
Ho1 O25 2.305 . S
Ho1 O26 2.322 1_455 S
Ho1 O28 2.378 1_455 S
Ho1 O29 2.524 1_455 S
Ho1 O30 2.381 . S
Ho1 O31 2.669 . S
C2 O20 1.259 . S
C2 O21 1.268 . S
C3 Ho0 2.811 . S
C3 C4 1.488 . S
C3 O22 1.215 . S
C3 O23 1.289 . S
C4 C3 1.488 . S
C4 C5 1.348 . S
C4 C9 1.413 . S
C5 C4 1.348 . S
C5 C6 1.442 . S
C5 H32 0.930 . S
C6 C5 1.442 . S
C6 C7 1.381 . S
C6 H33 0.931 . S
C7 C6 1.381 . S
C7 C8 1.321 . S
C8 C7 1.321 . S
C8 C9 1.403 . S
C8 H34 0.934 . S
C9 C4 1.413 . S
C9 C8 1.403 . S
C9 H35 0.930 . S
C10 O24 1.275 . S
C10 O25 1.256 . S
C11 O26 1.259 . S
C11 O27 1.268 . S
C12 Ho1 2.811 1_655 S
C12 C13 1.488 . S
C12 O28 1.215 . S
C12 O29 1.289 . S
C13 C12 1.488 . S
C13 C14 1.348 . S
C13 C18 1.413 . S
C14 C13 1.348 . S
C14 C15 1.442 . S
C14 H36 0.930 . S
C15 C14 1.442 . S
C15 C16 1.381 . S
C15 H37 0.931 . S
C16 C15 1.381 . S
C16 C17 1.321 . S
C17 C16 1.321 . S
C17 C18 1.403 . S
C17 H38 0.934 . S
C18 C13 1.413 . S
C18 C17 1.403 . S
C18 H39 0.930 . S
C19 O30 1.275 . S
C19 O31 1.256 . S
O20 Ho0 2.322 . S
O20 C2 1.259 . S
O21 Ho1 2.346 . S
O21 C2 1.268 . S
O22 Ho0 2.378 . S
O22 C3 1.215 . S
O23 Ho0 2.524 . S
O23 C3 1.289 . S
O24 Ho0 2.381 . S
O24 C10 1.275 . S
O25 Ho0 2.669 . S
O25 Ho1 2.305 . S
O25 C10 1.256 . S
O26 Ho1 2.322 1_655 S
O26 C11 1.259 . S
O27 Ho0 2.346 1_655 S
O27 C11 1.268 . S
O28 Ho1 2.378 1_655 S
O28 C12 1.215 . S
O29 Ho1 2.524 1_655 S
O29 C12 1.289 . S
O30 Ho1 2.381 . S
O30 C19 1.275 . S
O31 Ho0 2.305 . S
O31 Ho1 2.669 . S
O31 C19 1.256 . S
H32 C5 0.930 . S
H33 C6 0.931 . S
H34 C8 0.934 . S
H35 C9 0.930 . S
H36 C14 0.930 . S
H37 C15 0.931 . S
H38 C17 0.934 . S
H39 C18 0.930 . S
Ho40 C43 2.811 1_545 S
Ho40 O60 2.322 1_545 S
Ho40 O62 2.378 1_545 S
Ho40 O63 2.524 1_545 S
Ho40 O64 2.381 . S
Ho40 O65 2.669 . S
Ho40 O67 2.346 . S
Ho40 O71 2.305 . S
Ho41 C52 2.811 . S
Ho41 O61 2.346 1_545 S
Ho41 O65 2.305 . S
Ho41 O66 2.322 . S
Ho41 O68 2.378 . S
Ho41 O69 2.524 . S
Ho41 O70 2.381 . S
Ho41 O71 2.669 . S
C42 O60 1.259 . S
C42 O61 1.268 . S
C43 Ho40 2.811 1_565 S
C43 C44 1.488 . S
C43 O62 1.215 . S
C43 O63 1.289 . S
C44 C43 1.488 . S
C44 C45 1.348 . S
C44 C49 1.413 . S
C45 C44 1.348 . S
C45 C46 1.442 . S
C45 H72 0.930 . S
C46 C45 1.442 . S
C46 C47 1.381 . S
C46 H73 0.931 . S
C47 C46 1.381 . S
C47 C48 1.321 . S
C48 C47 1.321 . S
C48 C49 1.403 . S
C48 H74 0.934 . S
C49 C44 1.413 . S
C49 C48 1.403 . S
C49 H75 0.930 . S
C50 O64 1.275 . S
C50 O65 1.256 . S
C51 O66 1.259 . S
C51 O67 1.268 . S
C52 Ho41 2.811 . S
C52 C53 1.488 . S
C52 O68 1.215 . S
C52 O69 1.289 . S
C53 C52 1.488 . S
C53 C54 1.348 . S
C53 C58 1.413 . S
C54 C53 1.348 . S
C54 C55 1.442 . S
C54 H76 0.930 . S
C55 C54 1.442 . S
C55 C56 1.381 . S
C55 H77 0.931 . S
C56 C55 1.381 . S
C56 C57 1.321 . S
C57 C56 1.321 . S
C57 C58 1.403 . S
C57 H78 0.934 . S
C58 C53 1.413 . S
C58 C57 1.403 . S
C58 H79 0.930 . S
C59 O70 1.275 . S
C59 O71 1.256 . S
O60 Ho40 2.322 1_565 S
O60 C42 1.259 . S
O61 Ho41 2.346 1_565 S
O61 C42 1.268 . S
O62 Ho40 2.378 1_565 S
O62 C43 1.215 . S
O63 Ho40 2.524 1_565 S
O63 C43 1.289 . S
O64 Ho40 2.381 . S
O64 C50 1.275 . S
O65 Ho40 2.669 . S
O65 Ho41 2.305 . S
O65 C50 1.256 . S
O66 Ho41 2.322 . S
O66 C51 1.259 . S
O67 Ho40 2.346 . S
O67 C51 1.268 . S
O68 Ho41 2.378 . S
O68 C52 1.215 . S
O69 Ho41 2.524 . S
O69 C52 1.289 . S
O70 Ho41 2.381 . S
O70 C59 1.275 . S
O71 Ho40 2.305 . S
O71 Ho41 2.669 . S
O71 C59 1.256 . S
H72 C45 0.930 . S
H73 C46 0.931 . S
H74 C48 0.934 . S
H75 C49 0.930 . S
H76 C54 0.930 . S
H77 C55 0.931 . S
H78 C57 0.934 . S
H79 C58 0.930 . S
Ho80 C83 2.811 . S
Ho80 O100 2.322 . S
Ho80 O102 2.378 . S
Ho80 O103 2.524 . S
Ho80 O104 2.381 . S
Ho80 O105 2.669 . S
Ho80 O107 2.346 . S
Ho80 O111 2.305 . S
Ho81 C92 2.811 . S
Ho81 O101 2.346 . S
Ho81 O105 2.305 . S
Ho81 O106 2.322 . S
Ho81 O108 2.378 . S
Ho81 O109 2.524 . S
Ho81 O110 2.381 . S
Ho81 O111 2.669 . S
C82 O100 1.259 . S
C82 O101 1.268 . S
C83 Ho80 2.811 . S
C83 C84 1.488 . S
C83 O102 1.215 . S
C83 O103 1.289 . S
C84 C83 1.488 . S
C84 C85 1.348 . S
C84 C89 1.413 . S
C85 C84 1.348 . S
C85 C86 1.442 . S
C85 H112 0.930 . S
C86 C85 1.442 . S
C86 C87 1.381 . S
C86 H113 0.931 . S
C87 C86 1.381 . S
C87 C88 1.321 . S
C88 C87 1.321 . S
C88 C89 1.403 . S
C88 H114 0.934 . S
C89 C84 1.413 . S
C89 C88 1.403 . S
C89 H115 0.930 . S
C90 O104 1.275 . S
C90 O105 1.256 . S
C91 O106 1.259 . S
C91 O107 1.268 . S
C92 Ho81 2.811 . S
C92 C93 1.488 . S
C92 O108 1.215 . S
C92 O109 1.289 . S
C93 C92 1.488 . S
C93 C94 1.348 . S
C93 C98 1.413 . S
C94 C93 1.348 . S
C94 C95 1.442 . S
C94 H116 0.930 . S
C95 C94 1.442 . S
C95 C96 1.381 . S
C95 H117 0.931 . S
C96 C95 1.381 . S
C96 C97 1.321 . S
C97 C96 1.321 . S
C97 C98 1.403 . S
C97 H118 0.934 . S
C98 C93 1.413 . S
C98 C97 1.403 . S
C98 H119 0.930 . S
C99 O110 1.275 . S
C99 O111 1.256 . S
O100 Ho80 2.322 . S
O100 C82 1.259 . S
O101 Ho81 2.346 . S
O101 C82 1.268 . S
O102 Ho80 2.378 . S
O102 C83 1.215 . S
O103 Ho80 2.524 . S
O103 C83 1.289 . S
O104 Ho80 2.381 . S
O104 C90 1.275 . S
O105 Ho80 2.669 . S
O105 Ho81 2.305 . S
O105 C90 1.256 . S
O106 Ho81 2.322 . S
O106 C91 1.259 . S
O107 Ho80 2.346 . S
O107 C91 1.268 . S
O108 Ho81 2.378 . S
O108 C92 1.215 . S
O109 Ho81 2.524 . S
O109 C92 1.289 . S
O110 Ho81 2.381 . S
O110 C99 1.275 . S
O111 Ho80 2.305 . S
O111 Ho81 2.669 . S
O111 C99 1.256 . S
H112 C85 0.930 . S
H113 C86 0.931 . S
H114 C88 0.934 . S
H115 C89 0.930 . S
H116 C94 0.930 . S
H117 C95 0.931 . S
H118 C97 0.934 . S
H119 C98 0.930 . S
H120 C123 0.929 . S
H121 C126 0.929 . S
H122 C128 0.930 1_565 S
C123 H120 0.929 . S
C123 C124 1.398 . S
C123 C125 1.396 1_565 S
C124 C123 1.398 . S
C124 C128 1.407 1_565 S
C125 C123 1.396 1_545 S
C125 C126 1.394 . S
C126 H121 0.929 . S
C126 C125 1.394 . S
C126 C127 1.382 . S
C127 C126 1.382 . S
C127 C128 1.392 . S
C127 N129 1.420 . S
C128 H122 0.930 1_545 S
C128 C124 1.407 1_545 S
C128 C127 1.392 . S
N129 C127 1.420 . S
N129 C130 1.244 . S
C130 N129 1.244 . S
H131 C134 0.929 . S
H132 C137 0.929 . S
H133 C139 0.930 . S
C134 H131 0.929 . S
C134 C135 1.398 . S
C134 C136 1.396 . S
C135 C134 1.398 . S
C135 C139 1.407 . S
C136 C134 1.396 . S
C136 C137 1.394 . S
C137 H132 0.929 . S
C137 C136 1.394 . S
C137 C138 1.382 . S
C138 C137 1.382 . S
C138 C139 1.392 . S
C138 N140 1.420 . S
C139 H133 0.930 . S
C139 C135 1.407 . S
C139 C138 1.392 . S
N140 C138 1.420 . S
N140 C141 1.244 . S
C141 N140 1.244 . S
H142 C145 0.929 1_655 S
H143 C148 0.929 . S
H144 C150 0.930 . S
C145 H142 0.929 1_455 S
C145 C146 1.398 . S
C145 C147 1.396 . S
C146 C145 1.398 . S
C146 C150 1.407 . S
C147 C145 1.396 . S
C147 C148 1.394 . S
C148 H143 0.929 . S
C148 C147 1.394 . S
C148 C149 1.382 . S
C149 C148 1.382 . S
C149 C150 1.392 . S
C149 N151 1.420 . S
C150 H144 0.930 . S
C150 C146 1.407 . S
C150 C149 1.392 . S
N151 C149 1.420 . S
N151 C152 1.244 . S
C152 N151 1.244 . S
H153 C156 0.929 . S
H154 C159 0.929 . S
H155 C161 0.930 . S
C156 H153 0.929 . S
C156 C157 1.398 . S
C156 C158 1.396 . S
C157 C156 1.398 . S
C157 C161 1.407 . S
C158 C156 1.396 . S
C158 C159 1.394 1_455 S
C159 H154 0.929 . S
C159 C158 1.394 1_655 S
C159 C160 1.382 . S
C160 C159 1.382 . S
C160 C161 1.392 1_655 S
C160 N162 1.420 . S
C161 H155 0.930 . S
C161 C157 1.407 . S
C161 C160 1.392 1_455 S
N162 C160 1.420 . S
N162 C163 1.244 . S
C163 N162 1.244 . S
H164 C167 0.929 . S
H165 C170 0.929 1_565 S
H166 C172 0.930 . S
C167 H164 0.929 . S
C167 C168 1.398 . S
C167 C169 1.396 . S
C168 C167 1.398 . S
C168 C172 1.407 . S
C169 C167 1.396 . S
C169 C170 1.394 . S
C170 H165 0.929 1_545 S
C170 C169 1.394 . S
C170 C171 1.382 . S
C171 C170 1.382 . S
C171 C172 1.392 . S
C171 N173 1.420 . S
C172 H166 0.930 . S
C172 C168 1.407 . S
C172 C171 1.392 . S
N173 C171 1.420 . S
N173 C174 1.244 1_545 S
C174 N173 1.244 1_565 S
H175 C178 0.929 . S
H176 C181 0.929 . S
H177 C183 0.930 . S
C178 H175 0.929 . S
C178 C179 1.398 . S
C178 C180 1.396 . S
C179 C178 1.398 . S
C179 C183 1.407 . S
C180 C178 1.396 . S
C180 C181 1.394 . S
C181 H176 0.929 . S
C181 C180 1.394 . S
C181 C182 1.382 . S
C182 C181 1.382 . S
C182 C183 1.392 . S
C182 N184 1.420 . S
C183 H177 0.930 . S
C183 C179 1.407 . S
C183 C182 1.392 . S
N184 C182 1.420 . S
N184 C185 1.244 . S
C185 N184 1.244 . S
C186 C187 1.369 . S
C186 C188 1.419 . S
C186 H190 0.930 . S
C187 C186 1.369 . S
C187 C196 1.429 . S
C188 C186 1.419 . S
C188 C189 1.363 . S
C188 H191 0.929 . S
C189 C188 1.363 . S
C189 C195 1.428 . S
H190 C186 0.930 . S
H191 C188 0.929 . S
S192 N193 1.613 . S
S192 N194 1.610 . S
N193 S192 1.613 . S
N193 C196 1.350 . S
N194 S192 1.610 . S
N194 C195 1.351 . S
C195 C189 1.428 . S
C195 N194 1.351 . S
C195 C196 1.434 . S
C196 C187 1.429 . S
C196 N193 1.350 . S
C196 C195 1.434 . S
C197 C198 1.369 . S
C197 C199 1.419 . S
C197 H201 0.930 . S
C198 C197 1.369 . S
C198 C207 1.429 . S
C199 C197 1.419 . S
C199 C200 1.363 . S
C199 H202 0.929 . S
C200 C199 1.363 . S
C200 C206 1.428 . S
H201 C197 0.930 . S
H202 C199 0.929 . S
S203 N204 1.613 . S
S203 N205 1.610 . S
N204 S203 1.613 . S
N204 C207 1.350 . S
N205 S203 1.610 . S
N205 C206 1.351 . S
C206 C200 1.428 . S
C206 N205 1.351 . S
C206 C207 1.434 . S
C207 C198 1.429 . S
C207 N204 1.350 . S
C207 C206 1.434 . S
C208 C209 1.369 . S
C208 C210 1.419 . S
C208 H212 0.930 . S
C209 C208 1.369 . S
C209 C218 1.429 . S
C210 C208 1.419 . S
C210 C211 1.363 . S
C210 H213 0.929 . S
C211 C210 1.363 . S
C211 C217 1.428 . S
H212 C208 0.930 . S
H213 C210 0.929 . S
S214 N215 1.613 . S
S214 N216 1.610 . S
N215 S214 1.613 . S
N215 C218 1.350 . S
N216 S214 1.610 . S
N216 C217 1.351 . S
C217 C211 1.428 . S
C217 N216 1.351 . S
C217 C218 1.434 . S
C218 C209 1.429 . S
C218 N215 1.350 . S
C218 C217 1.434 . S
C219 C220 1.369 . S
C219 C221 1.419 . S
C219 H223 0.930 . S
C220 C219 1.369 . S
C220 C229 1.429 . S
C221 C219 1.419 . S
C221 C222 1.363 . S
C221 H224 0.929 . S
C222 C221 1.363 . S
C222 C228 1.428 . S
H223 C219 0.930 . S
H224 C221 0.929 . S
S225 N226 1.613 . S
S225 N227 1.610 . S
N226 S225 1.613 . S
N226 C229 1.350 . S
N227 S225 1.610 . S
N227 C228 1.351 . S
C228 C222 1.428 . S
C228 N227 1.351 . S
C228 C229 1.434 . S
C229 C220 1.429 . S
C229 N226 1.350 . S
C229 C228 1.434 . S
C230 C231 1.369 . S
C230 C232 1.419 . S
C230 H234 0.930 . S
C231 C230 1.369 . S
C231 C240 1.429 . S
C232 C230 1.419 . S
C232 C233 1.363 . S
C232 H235 0.929 . S
C233 C232 1.363 . S
C233 C239 1.428 . S
H234 C230 0.930 . S
H235 C232 0.929 . S
S236 N237 1.613 . S
S236 N238 1.610 . S
N237 S236 1.613 . S
N237 C240 1.350 . S
N238 S236 1.610 . S
N238 C239 1.351 . S
C239 C233 1.428 . S
C239 N238 1.351 . S
C239 C240 1.434 . S
C240 C231 1.429 . S
C240 N237 1.350 . S
C240 C239 1.434 . S
C241 C242 1.369 . S
C241 C243 1.419 . S
C241 H245 0.930 . S
C242 C241 1.369 . S
C242 C251 1.429 . S
C243 C241 1.419 . S
C243 C244 1.363 . S
C243 H246 0.929 . S
C244 C243 1.363 . S
C244 C250 1.428 . S
H245 C241 0.930 . S
H246 C243 0.929 . S
S247 N248 1.613 . S
S247 N249 1.610 . S
N248 S247 1.613 . S
N248 C251 1.350 . S
N249 S247 1.610 . S
N249 C250 1.351 . S
C250 C244 1.428 . S
C250 N249 1.351 . S
C250 C251 1.434 . S
C251 C242 1.429 . S
C251 N248 1.350 . S
C251 C250 1.434 . S
C252 C253 1.369 . S
C252 C254 1.419 . S
C252 H256 0.930 . S
C253 C252 1.369 . S
C253 C262 1.429 . S
C254 C252 1.419 . S
C254 C255 1.363 . S
C254 H257 0.929 . S
C255 C254 1.363 . S
C255 C261 1.428 . S
H256 C252 0.930 . S
H257 C254 0.929 . S
S258 N259 1.613 . S
S258 N260 1.610 . S
N259 S258 1.613 . S
N259 C262 1.350 . S
N260 S258 1.610 . S
N260 C261 1.351 . S
C261 C255 1.428 . S
C261 N260 1.351 . S
C261 C262 1.434 . S
C262 C253 1.429 . S
C262 N259 1.350 . S
C262 C261 1.434 . S
C263 C264 1.369 . S
C263 C265 1.419 . S
C263 H267 0.930 . S
C264 C263 1.369 . S
C264 C273 1.429 . S
C265 C263 1.419 . S
C265 C266 1.363 . S
C265 H268 0.929 . S
C266 C265 1.363 . S
C266 C272 1.428 . S
H267 C263 0.930 . S
H268 C265 0.929 . S
S269 N270 1.613 . S
S269 N271 1.610 . S
N270 S269 1.613 . S
N270 C273 1.350 . S
N271 S269 1.610 . S
N271 C272 1.351 . S
C272 C266 1.428 . S
C272 N271 1.351 . S
C272 C273 1.434 . S
C273 C264 1.429 . S
C273 N270 1.350 . S
C273 C272 1.434 . S
C274 C275 1.369 . S
C274 C276 1.419 . S
C274 H278 0.930 . S
C275 C274 1.369 . S
C275 C284 1.429 . S
C276 C274 1.419 . S
C276 C277 1.363 . S
C276 H279 0.929 . S
C277 C276 1.363 . S
C277 C283 1.428 . S
H278 C274 0.930 . S
H279 C276 0.929 . S
S280 N281 1.613 . S
S280 N282 1.610 . S
N281 S280 1.613 . S
N281 C284 1.350 . S
N282 S280 1.610 . S
N282 C283 1.351 . S
C283 C277 1.428 . S
C283 N282 1.351 . S
C283 C284 1.434 . S
C284 C275 1.429 . S
C284 N281 1.350 . S
C284 C283 1.434 . S
C285 C286 1.369 . S
C285 C287 1.419 . S
C285 H289 0.930 . S
C286 C285 1.369 . S
C286 C295 1.429 . S
C287 C285 1.419 . S
C287 C288 1.363 . S
C287 H290 0.929 . S
C288 C287 1.363 . S
C288 C294 1.428 . S
H289 C285 0.930 . S
H290 C287 0.929 . S
S291 N292 1.613 . S
S291 N293 1.610 . S
N292 S291 1.613 . S
N292 C295 1.350 . S
N293 S291 1.610 . S
N293 C294 1.351 . S
C294 C288 1.428 . S
C294 N293 1.351 . S
C294 C295 1.434 . S
C295 C286 1.429 . S
C295 N292 1.350 . S
C295 C294 1.434 . S
C296 C297 1.369 . S
C296 C298 1.419 . S
C296 H300 0.930 . S
C297 C296 1.369 . S
C297 C306 1.429 . S
C298 C296 1.419 . S
C298 C299 1.363 . S
C298 H301 0.929 . S
C299 C298 1.363 . S
C299 C305 1.428 . S
H300 C296 0.930 . S
H301 C298 0.929 . S
S302 N303 1.613 . S
S302 N304 1.610 . S
N303 S302 1.613 . S
N303 C306 1.350 . S
N304 S302 1.610 . S
N304 C305 1.351 . S
C305 C299 1.428 . S
C305 N304 1.351 . S
C305 C306 1.434 . S
C306 C297 1.429 . S
C306 N303 1.350 . S
C306 C305 1.434 . S
C307 C308 1.369 . S
C307 C309 1.419 . S
C307 H311 0.930 . S
C308 C307 1.369 . S
C308 C317 1.429 . S
C309 C307 1.419 . S
C309 C310 1.363 . S
C309 H312 0.929 . S
C310 C309 1.363 . S
C310 C316 1.428 . S
H311 C307 0.930 . S
H312 C309 0.929 . S
S313 N314 1.613 . S
S313 N315 1.610 . S
N314 S313 1.613 . S
N314 C317 1.350 . S
N315 S313 1.610 . S
N315 C316 1.351 . S
C316 C310 1.428 . S
C316 N315 1.351 . S
C316 C317 1.434 . S
C317 C308 1.429 . S
C317 N314 1.350 . S
C317 C316 1.434 . S
C318 C319 1.369 . S
C318 C320 1.419 1_554 S
C318 H322 0.930 1_455 S
C319 C318 1.369 . S
C319 C328 1.429 . S
C320 C318 1.419 1_556 S
C320 C321 1.363 . S
C320 H323 0.929 1_455 S
C321 C320 1.363 . S
C321 C327 1.428 1_556 S
H322 C318 0.930 1_655 S
H323 C320 0.929 1_655 S
S324 N325 1.613 . S
S324 N326 1.610 1_554 S
N325 S324 1.613 . S
N325 C328 1.350 . S
N326 S324 1.610 1_556 S
N326 C327 1.351 1_556 S
C327 C321 1.428 1_554 S
C327 N326 1.351 1_554 S
C327 C328 1.434 . S
C328 C319 1.429 . S
C328 N325 1.350 . S
C328 C327 1.434 . S
C329 C330 1.369 1_565 S
C329 C331 1.419 . S
C329 H333 0.930 . S
C330 C329 1.369 1_545 S
C330 C339 1.429 . S
C331 C329 1.419 . S
C331 C332 1.363 1_565 S
C331 H334 0.929 . S
C332 C331 1.363 1_545 S
C332 C338 1.428 . S
H333 C329 0.930 . S
H334 C331 0.929 . S
S335 N336 1.613 . S
S335 N337 1.610 . S
N336 S335 1.613 . S
N336 C339 1.350 . S
N337 S335 1.610 . S
N337 C338 1.351 . S
C338 C332 1.428 . S
C338 N337 1.351 . S
C338 C339 1.434 . S
C339 C330 1.429 . S
C339 N336 1.350 . S
C339 C338 1.434 . S
C340 C341 1.369 . S
C340 C342 1.419 . S
C340 H344 0.930 . S
C341 C340 1.369 . S
C341 C350 1.429 . S
C342 C340 1.419 . S
C342 C343 1.363 . S
C342 H345 0.929 . S
C343 C342 1.363 . S
C343 C349 1.428 . S
H344 C340 0.930 . S
H345 C342 0.929 . S
S346 N347 1.613 . S
S346 N348 1.610 . S
N347 S346 1.613 . S
N347 C350 1.350 . S
N348 S346 1.610 . S
N348 C349 1.351 . S
C349 C343 1.428 . S
C349 N348 1.351 . S
C349 C350 1.434 . S
C350 C341 1.429 . S
C350 N347 1.350 . S
C350 C349 1.434 . S
C351 C352 1.369 . S
C351 C353 1.419 . S
C351 H355 0.930 . S
C352 C351 1.369 . S
C352 C361 1.429 1_545 S
C353 C351 1.419 . S
C353 C354 1.363 . S
C353 H356 0.929 . S
C354 C353 1.363 . S
C354 C360 1.428 1_545 S
H355 C351 0.930 . S
H356 C353 0.929 . S
S357 N358 1.613 . S
S357 N359 1.610 . S
N358 S357 1.613 . S
N358 C361 1.350 . S
N359 S357 1.610 . S
N359 C360 1.351 . S
C360 C354 1.428 1_565 S
C360 N359 1.351 . S
C360 C361 1.434 . S
C361 C352 1.429 1_565 S
C361 N358 1.350 . S
C361 C360 1.434 . S
C362 C363 1.369 . S
C362 C364 1.419 . S
C362 H366 0.930 . S
C363 C362 1.369 . S
C363 C372 1.429 . S
C364 C362 1.419 . S
C364 C365 1.363 1_556 S
C364 H367 0.929 1_556 S
C365 C364 1.363 1_554 S
C365 C371 1.428 1_554 S
H366 C362 0.930 . S
H367 C364 0.929 1_554 S
S368 N369 1.613 . S
S368 N370 1.610 1_556 S
N369 S368 1.613 . S
N369 C372 1.350 . S
N370 S368 1.610 1_554 S
N370 C371 1.351 1_554 S
C371 C365 1.428 1_556 S
C371 N370 1.351 1_556 S
C371 C372 1.434 . S
C372 C363 1.429 . S
C372 N369 1.350 . S
C372 C371 1.434 . S
C373 C374 1.369 . S
C373 C375 1.418 1_455 S
C373 H377 0.931 1_455 S
C374 C373 1.369 . S
C374 C383 1.429 . S
C375 C373 1.418 1_655 S
C375 C376 1.363 1_655 S
C375 H378 0.929 . S
C376 C375 1.363 1_455 S
C376 C382 1.428 . S
H377 C373 0.931 1_655 S
H378 C375 0.929 . S
S379 N380 1.613 . S
S379 N381 1.610 . S
N380 S379 1.613 . S
N380 C383 1.350 . S
N381 S379 1.610 . S
N381 C382 1.351 . S
C382 C376 1.428 . S
C382 N381 1.351 . S
C382 C383 1.434 . S
C383 C374 1.429 . S
C383 N380 1.350 . S
C383 C382 1.434 . S
C187 C7 1.137 . S
C189 C185 1.239 . S
C198 C51 1.968 . S
C200 C163 1.909 . S
C209 C87 1.413 . S
C211 C174 1.466 . S
C220 C16 0.684 . S
C222 C179 0.621 . S
C233 C157 1.873 . S
C231 C42 1.924 . S
C244 C168 1.264 . S
C242 C96 1.241 . S
C253 C47 1.379 . S
C255 C141 1.412 . S
C264 C91 3.089 . S
C266 C146 3.042 1_655 S
C275 C2 1.953 . S
C277 C124 1.929 . S
C288 C135 1.280 . S
C286 C56 1.241 . S
C299 C152 3.041 . S
C297 C82 3.090 . S
C308 C11 1.984 . S
C310 C130 1.944 . S
C321 C147 1.757 . S
C319 C19 1.725 . S
C330 C50 1.392 . S
C332 C125 1.451 . S
C341 C99 1.508 . S
C343 C136 1.535 . S
C354 C169 1.500 . S
C352 C59 1.495 . S
C365 C180 1.201 . S
C363 C90 1.209 . S
C374 C10 1.371 . S
C376 C158 1.405 . S
