# Generated by pormake.
# Topology ftw, (4,12)-cn, num edge types: 1
# Building blocks:
#     Node 0, Type 0, BuildingBlock: NAHDIM_clean_linker_0, # of connection points: 4
#     Node 1, Type 0, BuildingBlock: NAHDIM_clean_linker_0, # of connection points: 4
#     Node 2, Type 0, BuildingBlock: NAHDIM_clean_linker_0, # of connection points: 4
#     Node 3, Type 1, BuildingBlock: EZIPEK_clean_sbu_0, # of connection points: 12
#     Edge 4, Type (0, 1), BuildingBlock: EZIPEK_clean_linker_0, # of connection points: 2
#     Edge 5, Type (0, 1), BuildingBlock: EZIPEK_clean_linker_0, # of connection points: 2
#     Edge 6, Type (0, 1), BuildingBlock: EZIPEK_clean_linker_0, # of connection points: 2
#     Edge 7, Type (0, 1), BuildingBlock: EZIPEK_clean_linker_0, # of connection points: 2
#     Edge 8, Type (0, 1), BuildingBlock: EZIPEK_clean_linker_0, # of connection points: 2
#     Edge 9, Type (0, 1), BuildingBlock: EZIPEK_clean_linker_0, # of connection points: 2
#     Edge 10, Type (0, 1), BuildingBlock: EZIPEK_clean_linker_0, # of connection points: 2
#     Edge 11, Type (0, 1), BuildingBlock: EZIPEK_clean_linker_0, # of connection points: 2
#     Edge 12, Type (0, 1), BuildingBlock: EZIPEK_clean_linker_0, # of connection points: 2
#     Edge 13, Type (0, 1), BuildingBlock: EZIPEK_clean_linker_0, # of connection points: 2
#     Edge 14, Type (0, 1), BuildingBlock: EZIPEK_clean_linker_0, # of connection points: 2
#     Edge 15, Type (0, 1), BuildingBlock: EZIPEK_clean_linker_0, # of connection points: 2
# Relax obj value: 0.006
# Max RMSD: 0.061
# Mean RMSD: 0.048
data_MOF--net-ftw--node1-EZIPEK_clean_sbu_0--node2-NAHDIM_clean_linker_0--edge1-EZIPEK_clean_linker_0
_symmetry_space_group_name_H-M    P1
_symmetry_Int_Tables_number       1
_symmetry_cell_setting            triclinic
loop_
_symmetry_equiv_pos_as_xyz
'x, y, z'
_cell_length_a     27.291068
_cell_length_b     26.846816
_cell_length_c     26.372936
_cell_angle_alpha  90.673685
_cell_angle_beta   89.446278
_cell_angle_gamma 89.3809
loop_
_atom_site_label
_atom_site_type_symbol
_atom_site_fract_x
_atom_site_fract_y
_atom_site_fract_z
_atom_type_partial_charge
C0 C 0.14538 0.7897 0.26262 0.0
C1 C 0.09368 0.76788 0.26641 0.0
C2 C 0.06844 0.71382 0.33457 0.0
C3 C 0.02409 0.70947 0.36071 0.0
C4 C 0.01014 0.66393 0.38159 0.0
C5 C 0.04267 0.6225 0.37815 0.0
C6 C 0.08773 0.62683 0.35151 0.0
C7 C 0.09992 0.6725 0.32951 0.0
C8 C 0.96101 0.66049 0.40803 0.0
C9 C 0.12352 0.5837 0.34747 0.0
C10 C 0.91422 0.24775 0.29527 0.0
C11 C 0.96151 0.27643 0.28517 0.0
C12 C 0.96203 0.36546 0.30508 0.0
C13 C 0.00966 0.36956 0.32419 0.0
C14 C 0.0227 0.41037 0.35481 0.0
C15 C 0.9873 0.44779 0.36667 0.0
C16 C 0.93967 0.44444 0.34619 0.0
C17 C 0.92785 0.40349 0.31511 0.0
C18 C 0.07437 0.41356 0.37441 0.0
C19 C 0.90118 0.48383 0.3576 0.0
C20 C 0.9834 0.34521 0.70044 0.0
C21 C 0.02515 0.34791 0.66922 0.0
C22 C 0.03424 0.39038 0.64036 0.0
C23 C -6e-05 0.43037 0.6416 0.0
C24 C 0.95757 0.42751 0.67284 0.0
C25 C 0.95034 0.3852 0.70265 0.0
C26 C 0.08116 0.3929 0.60969 0.0
C27 C 0.92022 0.46934 0.67523 0.0
C28 C 0.17144 0.7824 0.74862 0.0
C29 C 0.12095 0.75865 0.74252 0.0
C30 C 0.10489 0.67314 0.71559 0.0
C31 C 0.1325 0.63107 0.70167 0.0
C32 C 0.11349 0.59474 0.66893 0.0
C33 C 0.06497 0.60007 0.65109 0.0
C34 C 0.03627 0.64198 0.66639 0.0
C35 C 0.05674 0.67835 0.69826 0.0
C36 C 0.14527 0.55062 0.65358 0.0
C37 C 0.98381 0.64794 0.64974 0.0
C38 C 0.03064 0.57576 0.40492 0.0
C39 C 0.01422 0.5351 0.3764 0.0
C40 C 0.00061 0.49074 0.39974 0.0
C41 C 0.0017 0.48732 0.45328 0.0
C42 C 0.98576 0.44437 0.47834 0.0
C43 C 0.98785 0.44111 0.53097 0.0
C44 C 0.00659 0.48038 0.56048 0.0
C45 C 0.01068 0.47677 0.61377 0.0
C46 C 0.02857 0.51691 0.64192 0.0
C47 C 0.04376 0.56049 0.61845 0.0
C48 C 0.0409 0.56453 0.56514 0.0
C49 C 0.05719 0.60726 0.54009 0.0
C50 C 0.05403 0.61096 0.48767 0.0
C51 C 0.03467 0.57195 0.45818 0.0
C52 C 0.0193 0.52794 0.48249 0.0
C53 C 0.02201 0.52438 0.53609 0.0
C54 C 0.92408 0.23867 0.70821 0.0
C55 C 0.97741 0.25604 0.71259 0.0
O56 O 0.08108 0.75881 0.31633 0.0
O57 O 0.12546 0.70743 0.74668 0.0
O58 O 0.97512 0.30496 0.7299 0.0
O59 O 0.94832 0.3256 0.27637 0.0
H60 H 0.09799 0.73236 0.24484 0.0
H61 H 0.17231 0.76291 0.27849 0.0
H62 H 0.1494 0.82537 0.28341 0.0
H63 H 0.15539 0.79555 0.22225 0.0
H64 H 0.00017 0.74185 0.36427 0.0
H65 H 0.1346 0.67649 0.30972 0.0
H66 H 0.94251 0.62529 0.39737 0.0
H67 H 0.93653 0.69237 0.39877 0.0
H68 H 0.96642 0.66044 0.44968 0.0
H69 H 0.15866 0.59439 0.32922 0.0
H70 H 0.10713 0.55316 0.32478 0.0
H71 H 0.13127 0.56891 0.38576 0.0
H72 H 0.98311 0.27516 0.32043 0.0
H73 H 0.92219 0.20859 0.30578 0.0
H74 H 0.89073 0.24777 0.26107 0.0
H75 H 0.89343 0.26565 0.32714 0.0
H76 H 0.03681 0.34113 0.31475 0.0
H77 H 0.89141 0.40037 0.29949 0.0
H78 H 0.09024 0.45025 0.36493 0.0
H79 H 0.09857 0.38363 0.35844 0.0
H80 H 0.07389 0.41051 0.41634 0.0
H81 H 0.86494 0.47408 0.34167 0.0
H82 H 0.91287 0.51985 0.34144 0.0
H83 H 0.89719 0.48925 0.39926 0.0
H84 H 0.99435 0.25435 0.67416 0.0
H85 H 0.05146 0.3174 0.66863 0.0
H86 H 0.91845 0.38282 0.72727 0.0
H87 H 0.07262 0.3907 0.5687 0.0
H88 H 0.10694 0.36198 0.61859 0.0
H89 H 0.09981 0.42884 0.61681 0.0
H90 H 0.88581 0.45808 0.6946 0.0
H91 H 0.91137 0.48211 0.63643 0.0
H92 H 0.93571 0.50143 0.69636 0.0
H93 H 0.11227 0.76689 0.70278 0.0
H94 H 0.16991 0.82139 0.7356 0.0
H95 H 0.19894 0.76215 0.72456 0.0
H96 H 0.18444 0.78237 0.78829 0.0
H97 H 0.16948 0.62725 0.71586 0.0
H98 H 0.0348 0.71006 0.71068 0.0
H99 H 0.14421 0.54472 0.61185 0.0
H100 H 0.13092 0.51653 0.67164 0.0
H101 H 0.18399 0.55535 0.66517 0.0
H102 H 0.96526 0.68051 0.66824 0.0
H103 H 0.96293 0.61381 0.65869 0.0
H104 H 0.98277 0.65285 0.60804 0.0
H105 H 0.01228 0.53791 0.33546 0.0
H106 H 0.97137 0.41286 0.45752 0.0
H107 H 0.97493 0.40725 0.54828 0.0
H108 H 0.03198 0.51366 0.68273 0.0
H109 H 0.07251 0.63841 0.56075 0.0
H110 H 0.06722 0.64479 0.47056 0.0
H111 H 0.90647 0.23744 0.74636 0.0
H112 H 0.92135 0.20139 0.69007 0.0
H113 H 0.90297 0.26513 0.68455 0.0
C114 C 0.72493 0.10163 0.77568 0.0
C115 C 0.74052 0.0519 0.75036 0.0
C116 C 0.69694 0.04775 0.67185 0.0
C117 C 0.68568 0.00028 0.65357 0.0
C118 C 0.64184 0.99192 0.62766 0.0
C119 C 0.60904 0.03225 0.61977 0.0
C120 C 0.62095 0.08056 0.63742 0.0
C121 C 0.66513 0.0878 0.66311 0.0
C122 C 0.63042 0.94006 0.60892 0.0
C123 C 0.58696 0.12434 0.62921 0.0
C124 C 0.30986 0.87976 0.7698 0.0
C125 C 0.30896 0.93711 0.76714 0.0
C126 C 0.35183 0.96458 0.69175 0.0
C127 C 0.35857 0.01343 0.6758 0.0
C128 C 0.39978 0.02614 0.6467 0.0
C129 C 0.4342 0.98861 0.63239 0.0
C130 C 0.42728 0.93901 0.6483 0.0
C131 C 0.38598 0.92752 0.67783 0.0
C132 C 0.4062 0.07943 0.63059 0.0
C133 C 0.46291 0.89802 0.63307 0.0
C134 C 0.32401 0.9625 0.32319 0.0
C135 C 0.33487 0.01314 0.33011 0.0
C136 C 0.3808 0.02778 0.34824 0.0
C137 C 0.41673 0.99107 0.35876 0.0
C138 C 0.40703 0.94033 0.34837 0.0
C139 C 0.36073 0.92676 0.33055 0.0
C140 C 0.39047 0.08232 0.35766 0.0
C141 C 0.44494 0.90032 0.358 0.0
C142 C 0.79728 0.12807 0.28356 0.0
C143 C 0.76092 0.08521 0.27896 0.0
C144 C 0.67297 0.08568 0.29877 0.0
C145 C 0.63402 0.11798 0.31067 0.0
C146 C 0.59173 0.10077 0.33513 0.0
C147 C 0.5882 0.0497 0.34709 0.0
C148 C 0.62624 0.01621 0.33227 0.0
C149 C 0.66837 0.03458 0.30826 0.0
C150 C 0.55163 0.13742 0.34987 0.0
C151 C 0.62301 0.96133 0.3433 0.0
C152 C 0.56227 0.02371 0.59308 0.0
C153 C 0.52116 0.01151 0.62215 0.0
C154 C 0.47647 0.0009 0.59926 0.0
C155 C 0.47258 0.00183 0.54585 0.0
C156 C 0.42855 0.98988 0.52153 0.0
C157 C 0.42514 0.99085 0.46898 0.0
C158 C 0.46558 0.00401 0.43864 0.0
C159 C 0.46245 0.00509 0.38513 0.0
C160 C 0.503 0.01941 0.35614 0.0
C161 C 0.54702 0.03243 0.37931 0.0
C162 C 0.55116 0.03049 0.43269 0.0
C163 C 0.59519 0.04251 0.45713 0.0
C164 C 0.59903 0.04007 0.50958 0.0
C165 C 0.55877 0.02636 0.53975 0.0
C166 C 0.51383 0.01492 0.51604 0.0
C167 C 0.5102 0.01642 0.4624 0.0
C168 C 0.20136 0.93574 0.35074 0.0
C169 C 0.23398 0.96953 0.31846 0.0
O170 O 0.73863 0.05484 0.69808 0.0
O171 O 0.71409 0.10534 0.27808 0.0
O172 O 0.27899 0.94643 0.30928 0.0
O173 O 0.31043 0.95324 0.71752 0.0
H174 H 0.71274 0.02507 0.76414 0.0
H175 H 0.68494 0.10781 0.77097 0.0
H176 H 0.74404 0.13383 0.75897 0.0
H177 H 0.73235 0.10077 0.81703 0.0
H178 H 0.71112 0.96981 0.65998 0.0
H179 H 0.67481 0.12457 0.67681 0.0
H180 H 0.59541 0.92757 0.6261 0.0
H181 H 0.65974 0.91273 0.61822 0.0
H182 H 0.62561 0.94029 0.56716 0.0
H183 H 0.60173 0.1596 0.64501 0.0
H184 H 0.55088 0.11715 0.64736 0.0
H185 H 0.58066 0.12902 0.588 0.0
H186 H 0.3428 0.94825 0.78717 0.0
H187 H 0.29653 0.86722 0.80746 0.0
H188 H 0.34795 0.86542 0.76518 0.0
H189 H 0.28743 0.86226 0.73979 0.0
H190 H 0.33142 0.04156 0.6863 0.0
H191 H 0.37965 0.8894 0.68861 0.0
H192 H 0.40374 0.08164 0.58868 0.0
H193 H 0.44308 0.09266 0.64152 0.0
H194 H 0.37803 0.10477 0.6478 0.0
H195 H 0.45175 0.86114 0.64764 0.0
H196 H 0.49984 0.90676 0.64779 0.0
H197 H 0.46589 0.89567 0.59108 0.0
H198 H 0.239 0.00144 0.34417 0.0
H199 H 0.30776 0.04132 0.32163 0.0
H200 H 0.35241 0.88786 0.32388 0.0
H201 H 0.39763 0.0888 0.39858 0.0
H202 H 0.35923 0.10644 0.34626 0.0
H203 H 0.42372 0.09355 0.33628 0.0
H204 H 0.43354 0.86331 0.3433 0.0
H205 H 0.45111 0.89749 0.39942 0.0
H206 H 0.48038 0.91028 0.33996 0.0
H207 H 0.7651 0.06448 0.31469 0.0
H208 H 0.83543 0.11333 0.28544 0.0
H209 H 0.78953 0.15004 0.31875 0.0
H210 H 0.79433 0.15343 0.2507 0.0
H211 H 0.63761 0.15719 0.30224 0.0
H212 H 0.69753 0.00904 0.29718 0.0
H213 H 0.54681 0.13808 0.39173 0.0
H214 H 0.51642 0.12546 0.33315 0.0
H215 H 0.55963 0.17579 0.33705 0.0
H216 H 0.65304 0.93946 0.32462 0.0
H217 H 0.58727 0.94668 0.33041 0.0
H218 H 0.62503 0.95568 0.38487 0.0
H219 H 0.52405 0.00996 0.66312 0.0
H220 H 0.39621 0.97947 0.54284 0.0
H221 H 0.39026 0.98127 0.45251 0.0
H222 H 0.50018 0.02072 0.31517 0.0
H223 H 0.62738 0.05365 0.43601 0.0
H224 H 0.63393 0.04939 0.5262 0.0
H225 H 0.16545 0.95438 0.35843 0.0
H226 H 0.21921 0.92863 0.3877 0.0
H227 H 0.1945 0.89917 0.33246 0.0
C228 C 0.71027 0.79264 0.89833 0.0
C229 C 0.72194 0.77707 0.95293 0.0
C230 C 0.68106 0.69965 0.96827 0.0
C231 C 0.67095 0.6859 0.01815 0.0
C232 C 0.62935 0.6578 0.02971 0.0
C233 C 0.59788 0.64284 0.99015 0.0
C234 C 0.60837 0.65651 0.93955 0.0
C235 C 0.65018 0.68466 0.92917 0.0
C236 C 0.61934 0.64347 0.08393 0.0
C237 C 0.5758 0.64076 0.89646 0.0
C238 C 0.29164 0.77075 0.13626 0.0
C239 C 0.28836 0.76073 0.07877 0.0
C240 C 0.3341 0.68621 0.05678 0.0
C241 C 0.34646 0.67536 0.00632 0.0
C242 C 0.39027 0.64994 0.99403 0.0
C243 C 0.42178 0.63467 0.03338 0.0
C244 C 0.40894 0.64521 0.08455 0.0
C245 C 0.36497 0.67078 0.09567 0.0
C246 C 0.40282 0.63916 0.93913 0.0
C247 C 0.44153 0.62911 0.12738 0.0
C248 C 0.3414 0.31844 0.01638 0.0
C249 C 0.36501 0.32422 0.9692 0.0
C250 C 0.41013 0.34851 0.96573 0.0
C251 C 0.43314 0.36547 0.01048 0.0
C252 C 0.41156 0.35574 0.05829 0.0
C253 C 0.3657 0.3327 0.06052 0.0
C254 C 0.43281 0.35662 0.91407 0.0
C255 C 0.43615 0.37104 0.10696 0.0
C256 C 0.83207 0.32552 0.91516 0.0
C257 C 0.78956 0.31265 0.95082 0.0
C258 C 0.70223 0.334 0.94139 0.0
C259 C 0.66766 0.3482 0.90554 0.0
C260 C 0.62212 0.36842 0.92039 0.0
C261 C 0.61084 0.37415 0.97262 0.0
C262 C 0.64474 0.35766 0.00921 0.0
C263 C 0.69012 0.33749 0.99321 0.0
C264 C 0.58664 0.38504 0.88027 0.0
C265 C 0.63342 0.36254 0.06515 0.0
C266 C 0.55497 0.61129 0.00125 0.0
C267 C 0.51025 0.63485 0.01261 0.0
C268 C 0.46794 0.60721 0.02113 0.0
C269 C 0.47001 0.5546 0.01793 0.0
C270 C 0.42784 0.52575 0.02467 0.0
C271 C 0.43017 0.47407 0.02077 0.0
C272 C 0.47495 0.44909 0.01093 0.0
C273 C 0.47771 0.3965 0.00687 0.0
C274 C 0.52268 0.37298 0.99609 0.0
C275 C 0.56516 0.40071 0.98858 0.0
C276 C 0.56318 0.45327 0.99292 0.0
C277 C 0.60525 0.48223 0.98559 0.0
C278 C 0.60273 0.53394 0.98851 0.0
C279 C 0.55808 0.55872 0.99907 0.0
C280 C 0.51536 0.53029 0.00725 0.0
C281 C 0.5179 0.47748 0.00408 0.0
C282 C 0.2171 0.3292 0.00416 0.0
C283 C 0.25938 0.29545 0.9855 0.0
O284 O 0.7218 0.72583 0.95772 0.0
O285 O 0.74644 0.31698 0.92408 0.0
O286 O 0.29606 0.29833 0.02144 0.0
O287 O 0.29149 0.71026 0.0678 0.0
H288 H 0.6914 0.79399 0.9757 0.0
H289 H 0.67088 0.78639 0.89053 0.0
H290 H 0.7318 0.77115 0.8696 0.0
H291 H 0.71737 0.83299 0.89337 0.0
H292 H 0.6958 0.69708 0.04788 0.0
H293 H 0.65915 0.69465 0.89053 0.0
H294 H 0.58239 0.65717 0.09581 0.0
H295 H 0.6469 0.65884 0.11044 0.0
H296 H 0.61946 0.60226 0.08699 0.0
H297 H 0.58825 0.65572 0.85947 0.0
H298 H 0.53764 0.65379 0.90403 0.0
H299 H 0.57524 0.59947 0.89369 0.0
H300 H 0.32098 0.78005 0.06331 0.0
H301 H 0.28114 0.80999 0.14531 0.0
H302 H 0.32996 0.76505 0.14894 0.0
H303 H 0.26818 0.74557 0.15864 0.0
H304 H 0.32178 0.68704 0.97668 0.0
H305 H 0.35437 0.67841 0.1347 0.0
H306 H 0.40698 0.59833 0.933 0.0
H307 H 0.43844 0.65638 0.92936 0.0
H308 H 0.37441 0.65353 0.91302 0.0
H309 H 0.42668 0.64083 0.16508 0.0
H310 H 0.47856 0.6452 0.12238 0.0
H311 H 0.44581 0.58793 0.12657 0.0
H312 H 0.27227 0.31069 0.9492 0.0
H313 H 0.34885 0.30994 0.93481 0.0
H314 H 0.34806 0.32661 0.09689 0.0
H315 H 0.44304 0.39627 0.90964 0.0
H316 H 0.4078 0.34613 0.88281 0.0
H317 H 0.46678 0.33375 0.91029 0.0
H318 H 0.41936 0.35297 0.1405 0.0
H319 H 0.43276 0.41201 0.11214 0.0
H320 H 0.47581 0.36139 0.10535 0.0
H321 H 0.79002 0.34236 0.98017 0.0
H322 H 0.86748 0.32339 0.93554 0.0
H323 H 0.82727 0.36405 0.90096 0.0
H324 H 0.83359 0.29958 0.882 0.0
H325 H 0.67705 0.3445 0.86563 0.0
H326 H 0.71584 0.3247 0.02122 0.0
H327 H 0.58107 0.42601 0.88309 0.0
H328 H 0.55051 0.36745 0.88657 0.0
H329 H 0.59979 0.37545 0.84134 0.0
H330 H 0.66274 0.3461 0.08886 0.0
H331 H 0.5983 0.34386 0.07395 0.0
H332 H 0.62887 0.40253 0.07557 0.0
H333 H 0.50826 0.67522 0.01446 0.0
H334 H 0.39242 0.54282 0.03256 0.0
H335 H 0.39629 0.45404 0.02563 0.0
H336 H 0.52438 0.33273 0.9921 0.0
H337 H 0.64065 0.46531 0.97728 0.0
H338 H 0.63629 0.55422 0.9823 0.0
H339 H 0.18724 0.33099 0.97595 0.0
H340 H 0.23057 0.36767 0.01046 0.0
H341 H 0.20188 0.31533 0.04054 0.0
C342 C 0.0245 0.11997 0.87341 0.0
C343 C 0.00697 0.14359 0.11834 0.0
C344 C 0.02205 0.88071 0.89194 0.0
C345 C 0.9988 0.90283 0.13677 0.0
C346 C 0.12529 0.88686 0.02688 0.0
C347 C 0.13514 0.126 0.99622 0.0
C348 C 0.89111 0.89571 0.99697 0.0
C349 C 0.89719 0.13622 0.99149 0.0
C350 C 0.88178 0.02504 0.11531 0.0
C351 C 0.11754 0.01407 0.13931 0.0
C352 C 0.90744 0.01263 0.87174 0.0
C353 C 0.14299 0.99155 0.8962 0.0
Eu354 Eu 0.01519 0.10618 0.99807 0.0
O355 O 0.05299 0.05906 0.05136 0.0
O356 O 0.97543 0.05304 0.95337 0.0
Eu357 Eu 0.10461 0.00845 0.01467 0.0
Eu358 Eu 0.9203 0.01492 0.99625 0.0
O359 O 0.06153 0.05047 0.96214 0.0
O360 O 0.96596 0.06161 0.0421 0.0
Eu361 Eu 0.02267 0.00356 0.91023 0.0
Eu362 Eu 0.00249 0.02078 0.10023 0.0
O363 O 0.05877 0.96224 0.96846 0.0
O364 O 0.04881 0.97085 0.05677 0.0
O365 O 0.96261 0.97283 0.04951 0.0
O366 O 0.97219 0.96535 0.9591 0.0
Eu367 Eu 0.00893 0.91803 0.01205 0.0
O368 O 0.00931 0.13811 0.91839 0.0
O369 O 0.01765 0.15404 0.07005 0.0
O370 O 0.01719 0.87035 0.94101 0.0
O371 O 0.00296 0.8837 0.08991 0.0
O372 O 0.14188 0.93349 0.02629 0.0
O373 O 0.14831 0.07916 0.00634 0.0
O374 O 0.87769 0.94327 0.992 0.0
O375 O 0.88126 0.08942 0.99051 0.0
O376 O 0.92651 0.02663 0.13522 0.0
O377 O 0.0698 0.01861 0.15008 0.0
O378 O 0.95512 0.00788 0.86053 0.0
O379 O 0.09853 0.99484 0.8758 0.0
O380 O 0.93627 0.87871 0.00586 0.0
O381 O 0.07889 0.8732 0.02075 0.0
O382 O 0.94379 0.1504 0.99559 0.0
O383 O 0.08932 0.14309 0.99076 0.0
O384 O 0.99793 0.09802 0.1358 0.0
O385 O 0.99847 0.95142 0.14785 0.0
O386 O 0.03943 0.07318 0.86596 0.0
O387 O 0.0246 0.92673 0.87333 0.0
O388 O 0.15307 0.99483 0.94552 0.0
O389 O 0.13775 0.01102 0.09311 0.0
O390 O 0.88754 0.01515 0.91804 0.0
O391 O 0.87156 0.01897 0.06626 0.0
C392 C 0.013 0.20347 0.24864 0.0
C393 C 0.99033 0.25097 0.24101 0.0
C394 C 0.98673 0.23264 0.1496 0.0
C395 C 0.00748 0.18451 0.15759 0.0
N396 N 0.06045 0.13595 0.21104 0.0
N397 N 0.98579 0.31762 0.18002 0.0
C398 C 0.02711 0.17379 0.20597 0.0
C399 C 0.98604 0.26794 0.19026 0.0
N400 N 0.0196 0.18514 0.29629 0.0
N401 N 0.96647 0.24511 0.10432 0.0
H402 H 0.99546 0.3443 0.20696 0.0
H403 H 0.98544 0.33136 0.14321 0.0
H404 H 0.96564 0.22153 0.07288 0.0
H405 H 0.94646 0.27802 0.09956 0.0
H406 H 0.029 0.14803 0.30277 0.0
H407 H 0.01362 0.20541 0.32963 0.0
H408 H 0.0795 0.12942 0.24442 0.0
H409 H 0.07339 0.11517 0.18007 0.0
C410 C 0.76706 0.07497 0.18272 0.0
C411 C 0.77368 0.05369 0.23129 0.0
C412 C 0.83733 0.99857 0.19378 0.0
C413 C 0.84008 0.03049 0.15145 0.0
N414 N 0.80753 0.10131 0.10624 0.0
N415 N 0.80844 0.98616 0.27971 0.0
C416 C 0.80448 0.06882 0.14556 0.0
C417 C 0.80629 0.0121 0.23555 0.0
N418 N 0.72474 0.09975 0.17129 0.0
N419 N 0.86357 0.95488 0.19336 0.0
H420 H 0.78144 0.9888 0.30779 0.0
H421 H 0.83678 0.96148 0.28826 0.0
H422 H 0.88559 0.9436 0.16265 0.0
H423 H 0.8601 0.92768 0.22093 0.0
H424 H 0.71744 0.11319 0.13519 0.0
H425 H 0.69382 0.09948 0.19459 0.0
H426 H 0.78576 0.13335 0.10406 0.0
H427 H 0.83444 0.09892 0.07817 0.0
C428 C 0.04695 0.8518 0.25832 0.0
C429 C 0.05415 0.80109 0.24263 0.0
C430 C 0.99921 0.81507 0.17097 0.0
C431 C 0.00236 0.86701 0.17988 0.0
N432 N 0.99855 0.92725 0.2482 0.0
N433 N 0.01478 0.73226 0.19806 0.0
C434 C 0.01702 0.88358 0.22857 0.0
C435 C 0.02348 0.78185 0.20373 0.0
N436 N 0.06798 0.86974 0.3015 0.0
N437 N 0.97073 0.797 0.13285 0.0
H438 H 0.02639 0.70507 0.22334 0.0
H439 H 0.02639 0.70507 0.22334 0.0
H440 H 0.94686 0.81983 0.11264 0.0
H441 H 0.96875 0.75904 0.12411 0.0
H442 H 0.07059 0.90765 0.30979 0.0
H443 H 0.08374 0.84699 0.32868 0.0
H444 H 0.00531 0.93991 0.28491 0.0
H445 H 0.97025 0.94675 0.23069 0.0
C446 C 0.19661 0.03356 0.25575 0.0
C447 C 0.20897 0.98298 0.26819 0.0
C448 C 0.15986 0.95434 0.19594 0.0
C449 C 0.15031 0.00415 0.18238 0.0
N450 N 0.17088 0.09052 0.1902 0.0
N451 N 0.21523 0.89738 0.23583 0.0
C452 C 0.17219 0.04354 0.20943 0.0
C453 C 0.19476 0.94404 0.2339 0.0
N454 N 0.2064 0.07259 0.28777 0.0
N455 N 0.13479 0.91641 0.1734 0.0
H456 H 0.24102 0.88612 0.26213 0.0
H457 H 0.21004 0.87066 0.20743 0.0
H458 H 0.1097 0.92197 0.14438 0.0
H459 H 0.13575 0.88011 0.1869 0.0
H460 H 0.19072 0.10782 0.2833 0.0
H461 H 0.22765 0.07098 0.32006 0.0
H462 H 0.19123 0.11989 0.20487 0.0
H463 H 0.15296 0.09886 0.15663 0.0
C464 C 0.08807 0.77044 0.83435 0.0
C465 C 0.08359 0.78063 0.78128 0.0
C466 C 0.02123 0.84507 0.80295 0.0
C467 C 0.03063 0.83836 0.85503 0.0
N468 N 0.04716 0.77404 0.91593 0.0
N469 N 0.03166 0.82034 0.71705 0.0
C470 C 0.05603 0.79472 0.86972 0.0
C471 C 0.04596 0.81503 0.76607 0.0
N472 N 0.12367 0.73914 0.85215 0.0
N473 N 0.98638 0.87874 0.78836 0.0
H474 H 0.04346 0.7984 0.6864 0.0
H475 H 0.04346 0.7984 0.6864 0.0
H476 H 0.96312 0.89696 0.8144 0.0
H477 H 0.97902 0.88613 0.75039 0.0
H478 H 0.13176 0.73676 0.89062 0.0
H479 H 0.14794 0.71845 0.8296 0.0
H480 H 0.06249 0.74014 0.92685 0.0
H481 H 0.01812 0.78554 0.9393 0.0
C482 C 0.21682 0.93915 0.78534 0.0
C483 C 0.26362 0.95983 0.79382 0.0
C484 C 0.22651 0.01286 0.86105 0.0
C485 C 0.18457 0.9819 0.8607 0.0
N486 N 0.14432 0.90915 0.82661 0.0
N487 N 0.31009 0.02617 0.8325 0.0
C488 C 0.18074 0.94351 0.82374 0.0
C489 C 0.26767 -0.0002 0.82957 0.0
N490 N 0.20584 0.9172 0.74005 0.0
N491 N 0.22589 0.05604 0.8891 0.0
H492 H 0.33711 0.02472 0.80428 0.0
H493 H 0.31829 0.04996 0.86263 0.0
H494 H 0.19572 0.06763 0.91084 0.0
H495 H 0.25322 0.08271 0.88744 0.0
H496 H 0.17013 0.90721 0.73096 0.0
H497 H 0.23026 0.9158 0.70946 0.0
H498 H 0.14248 0.87864 0.80195 0.0
H499 H 0.11977 0.90771 0.85701 0.0
C500 C 0.0077 0.16953 0.73805 0.0
C501 C 0.00656 0.22147 0.74797 0.0
C502 C 0.03413 0.20597 0.83478 0.0
C503 C 0.02404 0.15402 0.82832 0.0
N504 N 0.00486 0.08635 0.76795 0.0
N505 N 0.05058 0.28432 0.79377 0.0
C506 C 0.01311 0.13566 0.77827 0.0
C507 C 0.0287 0.23883 0.79311 0.0
N508 N 0.00311 0.15079 0.69011 0.0
N509 N 0.04964 0.2244 0.88032 0.0
H510 H 0.05557 0.30476 0.76088 0.0
H511 H 0.07093 0.29794 0.824 0.0
H512 H 0.06311 0.20231 0.90923 0.0
H513 H 0.04871 0.26223 0.88963 0.0
H514 H 0.00141 0.17246 0.65759 0.0
H515 H 0.00141 0.17246 0.65759 0.0
H516 H 0.99754 0.07299 0.73149 0.0
H517 H 0.00096 0.05858 0.79445 0.0
C518 C 0.83154 0.06854 0.76651 0.0
C519 C 0.79169 0.03502 0.76695 0.0
C520 C 0.83851 0.97834 0.82092 0.0
C521 C 0.87274 0.01688 0.82934 0.0
N522 N 0.90168 0.09956 0.81159 0.0
N523 N 0.76896 0.94879 0.77278 0.0
C524 C 0.87008 0.0617 0.80147 0.0
C525 C 0.79874 0.98681 0.7875 0.0
N526 N 0.83316 0.106 0.73197 0.0
N527 N 0.8432 0.93453 0.84647 0.0
H528 H 0.74272 0.95302 0.74465 0.0
H529 H 0.77372 0.91194 0.78363 0.0
H530 H 0.87361 0.92629 0.86867 0.0
H531 H 0.81651 0.90717 0.84739 0.0
H532 H 0.86352 0.12865 0.72688 0.0
H533 H 0.80664 0.11066 0.70426 0.0
H534 H 0.89795 0.1352 0.79682 0.0
H535 H 0.92908 0.09684 0.83864 0.0
C536 C 0.20615 0.23166 0.93845 0.0
C537 C 0.24071 0.24196 0.97748 0.0
C538 C 0.21095 0.17064 0.02507 0.0
C539 C 0.17495 0.16208 0.9878 0.0
N540 N 0.1535 0.17003 0.89989 0.0
N541 N 0.29301 0.19967 0.03739 0.0
C542 C 0.17733 0.18802 0.94145 0.0
C543 C 0.24849 0.20512 0.01496 0.0
N544 N 0.1992 0.26403 0.89951 0.0
N545 N 0.20915 0.14698 0.07052 0.0
H546 H 0.32424 0.217 0.02339 0.0
H547 H 0.30058 0.17144 0.06307 0.0
H548 H 0.18207 0.12154 0.07964 0.0
H549 H 0.23235 0.15599 0.10038 0.0
H550 H 0.16974 0.26145 0.87478 0.0
H551 H 0.22126 0.29466 0.89283 0.0
H552 H 0.1579 0.18468 0.86374 0.0
H553 H 0.1331 0.13738 0.9007 0.0
C554 C 0.1954 0.77597 0.08009 0.0
C555 C 0.24148 0.78266 0.0558 0.0
C556 C 0.20288 0.84349 0.9993 0.0
C557 C 0.16237 0.84676 0.03337 0.0
N558 N 0.11904 0.81477 0.1064 0.0
N559 N 0.28483 0.81148 0.98158 0.0
C560 C 0.15782 0.81205 0.07331 0.0
C561 C 0.24385 0.81279 0.01175 0.0
N562 N 0.18698 0.73444 0.10814 0.0
N563 N 0.20095 0.86802 0.95415 0.0
H564 H 0.31147 0.7835 0.98397 0.0
H565 H 0.29227 0.83753 0.95371 0.0
H566 H 0.17033 0.88868 0.94317 0.0
H567 H 0.2273 0.86459 0.92553 0.0
H568 H 0.15273 0.72577 0.12319 0.0
H569 H 0.2125 0.70549 0.11079 0.0
H570 H 0.11679 0.79349 0.13907 0.0
H571 H 0.09099 0.84111 0.1039 0.0
C572 C 0.79572 0.21808 0.93849 0.0
C573 C 0.79809 0.25995 0.97199 0.0
C574 C 0.85144 0.21033 0.02737 0.0
C575 C 0.85964 0.17611 0.98687 0.0
N576 N 0.83951 0.14728 0.90266 0.0
N577 N 0.82125 0.29127 0.05483 0.0
C578 C 0.83135 0.17957 0.9423 0.0
C579 C 0.82325 0.25433 0.01883 0.0
N580 N 0.75859 0.21377 0.90444 0.0
N581 N 0.86918 0.19988 0.07438 0.0
H582 H 0.79512 0.31978 0.0549 0.0
H583 H 0.84533 0.29325 0.08518 0.0
H584 H 0.8903 0.16817 0.08163 0.0
H585 H 0.85973 0.22024 0.10695 0.0
H586 H 0.75396 0.18233 0.88152 0.0
H587 H 0.72787 0.23695 0.90494 0.0
H588 H 0.8239 0.15196 0.8671 0.0
H589 H 0.8649 0.11813 0.904 0.0
C590 C 0.81413 0.79231 0.94079 0.0
C591 C 0.77101 0.79761 0.97113 0.0
C592 C 0.81329 0.85683 0.02678 0.0
C593 C 0.85226 0.85841 0.99089 0.0
N594 N 0.88951 0.82975 0.9122 0.0
N595 N 0.73988 0.81507 0.05548 0.0
C596 C 0.85313 0.82606 0.94796 0.0
C597 C 0.77352 0.82408 0.01805 0.0
N598 N 0.81898 0.75349 0.90709 0.0
N599 N 0.81388 0.88749 0.06858 0.0
H600 H 0.71356 0.7874 0.05234 0.0
H601 H 0.7415 0.83021 0.09191 0.0
H602 H 0.844 0.90919 0.07806 0.0
H603 H 0.78391 0.89329 0.09271 0.0
H604 H 0.85143 0.74513 0.88756 0.0
H605 H 0.79281 0.72581 0.90333 0.0
H606 H 0.88855 0.81174 0.87703 0.0
H607 H 0.91873 0.85418 0.9156 0.0
loop_
_geom_bond_atom_site_label_1
_geom_bond_atom_site_label_2
_geom_bond_distance
_geom_bond_site_symmetry_2
_ccdc_geom_bond_type
C0 C1 1.560 . S
C0 H61 0.959 . S
C0 H62 0.959 . S
C0 H63 0.960 . S
C1 C0 1.560 . S
C1 O56 1.426 . S
C1 H60 0.980 . S
C2 C3 1.407 . S
C2 C7 1.418 . S
C2 O56 1.334 . S
C3 C2 1.407 . S
C3 C4 1.360 1_455 S
C3 H64 0.929 1_455 S
C4 C3 1.360 1_655 S
C4 C5 1.401 1_655 S
C4 C8 1.527 . S
C5 C4 1.401 1_455 S
C5 C6 1.405 . S
C5 C38 1.585 1_455 S
C6 C5 1.405 . S
C6 C7 1.332 . S
C6 C9 1.496 . S
C7 C2 1.418 . S
C7 C6 1.332 . S
C7 H65 0.929 . S
C8 C4 1.527 . S
C8 H66 0.959 . S
C8 H67 0.961 . S
C8 H68 0.961 . S
C9 C6 1.496 . S
C9 H69 0.960 . S
C9 H70 0.960 . S
C9 H71 0.961 . S
C10 C11 1.517 . S
C10 H73 0.961 1_655 S
C10 H74 0.960 . S
C10 H75 0.959 . S
C11 C10 1.517 . S
C11 O59 1.468 . S
C11 H72 0.980 1_655 S
C12 C13 1.349 1_655 S
C12 C17 1.367 . S
C12 O59 1.408 . S
C13 C12 1.349 1_455 S
C13 C14 1.407 . S
C13 H76 0.930 . S
C14 C13 1.407 . S
C14 C15 1.449 1_455 S
C14 C18 1.535 . S
C15 C14 1.449 1_655 S
C15 C16 1.384 . S
C15 C40 1.553 . S
C16 C15 1.384 . S
C16 C17 1.364 . S
C16 C19 1.450 . S
C17 C12 1.367 . S
C17 C16 1.364 . S
C17 H77 0.931 . S
C18 C14 1.535 . S
C18 H78 0.959 . S
C18 H79 0.961 . S
C18 H80 0.959 . S
C19 C16 1.450 . S
C19 H81 0.960 . S
C19 H82 0.960 . S
C19 H83 0.960 . S
C20 C21 1.309 1_655 S
C20 C25 1.304 . S
C20 O58 1.435 . S
C21 C20 1.309 1_455 S
C21 C22 1.476 . S
C21 H85 0.930 . S
C22 C21 1.476 . S
C22 C23 1.400 1_455 S
C22 C26 1.567 . S
C23 C22 1.400 1_655 S
C23 C24 1.373 . S
C23 C45 1.432 . S
C24 C23 1.373 . S
C24 C25 1.339 . S
C24 C27 1.530 . S
C25 C20 1.304 . S
C25 C24 1.339 . S
C25 H86 0.930 . S
C26 C22 1.567 . S
C26 H87 0.961 . S
C26 H88 0.960 . S
C26 H89 0.958 . S
C27 C24 1.530 . S
C27 H90 0.961 . S
C27 H91 0.960 . S
C27 H92 0.960 . S
C28 C29 1.530 . S
C28 H94 0.961 . S
C28 H95 0.961 . S
C28 H96 0.959 . S
C29 C28 1.530 . S
C29 O57 1.412 . S
C29 H93 0.980 . S
C30 C31 1.288 . S
C30 C35 1.377 . S
C30 O57 1.393 . S
C31 C30 1.288 . S
C31 C32 1.369 . S
C31 H97 0.932 . S
C32 C31 1.369 . S
C32 C33 1.398 . S
C32 C36 1.527 . S
C33 C32 1.398 . S
C33 C34 1.380 1_455 S
C33 C47 1.497 . S
C34 C33 1.380 1_655 S
C34 C35 1.383 1_655 S
C34 C37 1.603 . S
C35 C30 1.377 . S
C35 C34 1.383 1_455 S
C35 H98 0.929 1_455 S
C36 C32 1.527 . S
C36 H99 0.961 . S
C36 H100 0.959 . S
C36 H101 0.959 . S
C37 C34 1.603 . S
C37 H102 0.960 . S
C37 H103 0.962 . S
C37 H104 0.961 . S
C38 C5 1.585 1_655 S
C38 C39 1.361 . S
C38 C51 1.412 1_655 S
C39 C38 1.361 . S
C39 C40 1.365 . S
C39 H105 0.929 . S
C40 C15 1.553 . S
C40 C39 1.365 . S
C40 C41 1.404 . S
C41 C40 1.404 . S
C41 C42 1.395 . S
C41 C52 1.451 . S
C42 C41 1.395 . S
C42 C43 1.322 . S
C42 H106 0.930 . S
C43 C42 1.322 . S
C43 C44 1.459 . S
C43 H107 0.929 . S
C44 C43 1.459 . S
C44 C45 1.445 . S
C44 C53 1.395 . S
C45 C23 1.432 . S
C45 C44 1.445 . S
C45 C46 1.370 1_655 S
C46 C45 1.370 1_455 S
C46 C47 1.438 . S
C46 H108 0.930 . S
C47 C33 1.497 . S
C47 C46 1.438 . S
C47 C48 1.360 . S
C48 C47 1.360 . S
C48 C49 1.401 . S
C48 C53 1.446 1_455 S
C49 C48 1.401 . S
C49 C50 1.347 . S
C49 H109 0.929 . S
C50 C49 1.347 . S
C50 C51 1.455 . S
C50 H110 0.930 . S
C51 C38 1.412 1_455 S
C51 C50 1.455 . S
C51 C52 1.331 1_455 S
C52 C41 1.451 . S
C52 C51 1.331 1_655 S
C52 C53 1.497 . S
C53 C44 1.395 . S
C53 C48 1.446 1_655 S
C53 C52 1.497 . S
C54 C55 1.582 1_655 S
C54 H111 0.962 1_655 S
C54 H112 0.959 . S
C54 H113 0.958 . S
C55 C54 1.582 1_455 S
C55 O58 1.458 1_455 S
C55 H84 0.980 . S
O56 C1 1.426 . S
O56 C2 1.334 . S
O57 C29 1.412 . S
O57 C30 1.393 . S
O58 C20 1.435 . S
O58 C55 1.458 1_655 S
O59 C11 1.468 . S
O59 C12 1.408 . S
H60 C1 0.980 . S
H61 C0 0.959 . S
H62 C0 0.959 . S
H63 C0 0.960 . S
H64 C3 0.929 1_655 S
H65 C7 0.929 . S
H66 C8 0.959 . S
H67 C8 0.961 . S
H68 C8 0.961 . S
H69 C9 0.960 . S
H70 C9 0.960 . S
H71 C9 0.961 . S
H72 C11 0.980 1_455 S
H73 C10 0.961 1_455 S
H74 C10 0.960 . S
H75 C10 0.959 . S
H76 C13 0.930 . S
H77 C17 0.931 . S
H78 C18 0.959 . S
H79 C18 0.961 . S
H80 C18 0.959 . S
H81 C19 0.960 . S
H82 C19 0.960 . S
H83 C19 0.960 . S
H84 C55 0.980 . S
H85 C21 0.930 . S
H86 C25 0.930 . S
H87 C26 0.961 . S
H88 C26 0.960 . S
H89 C26 0.958 . S
H90 C27 0.961 . S
H91 C27 0.960 . S
H92 C27 0.960 . S
H93 C29 0.980 . S
H94 C28 0.961 . S
H95 C28 0.961 . S
H96 C28 0.959 . S
H97 C31 0.932 . S
H98 C35 0.929 1_655 S
H99 C36 0.961 . S
H100 C36 0.959 . S
H101 C36 0.959 . S
H102 C37 0.960 . S
H103 C37 0.962 . S
H104 C37 0.961 . S
H105 C39 0.929 . S
H106 C42 0.930 . S
H107 C43 0.929 . S
H108 C46 0.930 . S
H109 C49 0.929 . S
H110 C50 0.930 . S
H111 C54 0.962 1_455 S
H112 C54 0.959 . S
H113 C54 0.958 . S
C114 C115 1.560 . S
C114 H175 0.959 . S
C114 H176 0.959 . S
C114 H177 0.960 . S
C115 C114 1.560 . S
C115 O170 1.426 . S
C115 H174 0.980 . S
C116 C117 1.407 1_545 S
C116 C121 1.418 . S
C116 O170 1.334 . S
C117 C116 1.407 1_565 S
C117 C118 1.360 . S
C117 H178 0.929 . S
C118 C117 1.360 . S
C118 C119 1.401 1_565 S
C118 C122 1.527 . S
C119 C118 1.401 1_545 S
C119 C120 1.405 . S
C119 C152 1.587 1_545 S
C120 C119 1.405 . S
C120 C121 1.332 . S
C120 C123 1.496 . S
C121 C116 1.418 . S
C121 C120 1.332 . S
C121 H179 0.929 . S
C122 C118 1.527 . S
C122 H180 0.959 . S
C122 H181 0.961 . S
C122 H182 0.961 . S
C123 C120 1.496 . S
C123 H183 0.960 . S
C123 H184 0.960 . S
C123 H185 0.961 . S
C124 C125 1.517 . S
C124 H187 0.961 1_565 S
C124 H188 0.960 . S
C124 H189 0.959 . S
C125 C124 1.517 . S
C125 O173 1.468 . S
C125 H186 0.980 1_565 S
C126 C127 1.349 1_565 S
C126 C131 1.367 . S
C126 O173 1.408 . S
C127 C126 1.349 1_545 S
C127 C128 1.407 . S
C127 H190 0.930 . S
C128 C127 1.407 . S
C128 C129 1.449 1_545 S
C128 C132 1.535 . S
C129 C128 1.449 1_565 S
C129 C130 1.384 . S
C129 C154 1.553 . S
C130 C129 1.384 . S
C130 C131 1.364 . S
C130 C133 1.450 . S
C131 C126 1.367 . S
C131 C130 1.364 . S
C131 H191 0.931 . S
C132 C128 1.535 . S
C132 H192 0.959 . S
C132 H193 0.961 . S
C132 H194 0.959 . S
C133 C130 1.450 . S
C133 H195 0.960 . S
C133 H196 0.960 . S
C133 H197 0.960 . S
C134 C135 1.309 1_565 S
C134 C139 1.304 . S
C134 O172 1.435 . S
C135 C134 1.309 1_545 S
C135 C136 1.476 . S
C135 H199 0.930 . S
C136 C135 1.476 . S
C136 C137 1.400 1_545 S
C136 C140 1.567 . S
C137 C136 1.400 1_565 S
C137 C138 1.373 . S
C137 C159 1.432 . S
C138 C137 1.373 . S
C138 C139 1.339 . S
C138 C141 1.530 . S
C139 C134 1.304 . S
C139 C138 1.339 . S
C139 H200 0.930 . S
C140 C136 1.567 . S
C140 H201 0.961 . S
C140 H202 0.960 . S
C140 H203 0.958 . S
C141 C138 1.530 . S
C141 H204 0.961 . S
C141 H205 0.960 . S
C141 H206 0.960 . S
C142 C143 1.530 . S
C142 H208 0.961 . S
C142 H209 0.961 . S
C142 H210 0.959 . S
C143 C142 1.530 . S
C143 O171 1.412 . S
C143 H207 0.980 . S
C144 C145 1.288 . S
C144 C149 1.377 1_545 S
C144 O171 1.393 . S
C145 C144 1.288 . S
C145 C146 1.369 . S
C145 H211 0.932 . S
C146 C145 1.369 . S
C146 C147 1.398 . S
C146 C150 1.527 . S
C147 C146 1.398 . S
C147 C148 1.380 1_545 S
C147 C161 1.497 . S
C148 C147 1.380 1_565 S
C148 C149 1.383 . S
C148 C151 1.603 . S
C149 C144 1.377 1_565 S
C149 C148 1.383 . S
C149 H212 0.929 . S
C150 C146 1.527 . S
C150 H213 0.961 . S
C150 H214 0.959 . S
C150 H215 0.959 . S
C151 C148 1.603 . S
C151 H216 0.960 . S
C151 H217 0.962 . S
C151 H218 0.961 . S
C152 C119 1.587 1_565 S
C152 C153 1.360 . S
C152 C165 1.412 . S
C153 C152 1.360 . S
C153 C154 1.365 . S
C153 H219 0.929 . S
C154 C129 1.553 . S
C154 C153 1.365 . S
C154 C155 1.404 . S
C155 C154 1.404 . S
C155 C156 1.395 . S
C155 C166 1.451 . S
C156 C155 1.395 . S
C156 C157 1.322 . S
C156 H220 0.930 . S
C157 C156 1.322 . S
C157 C158 1.459 . S
C157 H221 0.929 . S
C158 C157 1.459 . S
C158 C159 1.445 . S
C158 C167 1.395 . S
C159 C137 1.432 . S
C159 C158 1.445 . S
C159 C160 1.370 . S
C160 C159 1.370 . S
C160 C161 1.438 1_565 S
C160 H222 0.931 1_565 S
C161 C147 1.497 . S
C161 C160 1.438 1_545 S
C161 C162 1.359 1_545 S
C162 C161 1.359 1_565 S
C162 C163 1.400 1_565 S
C162 C167 1.447 . S
C163 C162 1.400 1_545 S
C163 C164 1.347 . S
C163 H223 0.929 . S
C164 C163 1.347 . S
C164 C165 1.455 1_545 S
C164 H224 0.930 . S
C165 C152 1.412 . S
C165 C164 1.455 1_565 S
C165 C166 1.331 . S
C166 C155 1.451 . S
C166 C165 1.331 . S
C166 C167 1.497 . S
C167 C158 1.395 . S
C167 C162 1.447 . S
C167 C166 1.497 . S
C168 C169 1.582 1_565 S
C168 H225 0.962 . S
C168 H226 0.959 . S
C168 H227 0.958 . S
C169 C168 1.582 1_545 S
C169 O172 1.458 1_545 S
C169 H198 0.980 . S
O170 C115 1.426 . S
O170 C116 1.334 . S
O171 C143 1.412 . S
O171 C144 1.393 . S
O172 C134 1.435 . S
O172 C169 1.458 1_565 S
O173 C125 1.468 . S
O173 C126 1.408 . S
H174 C115 0.980 . S
H175 C114 0.959 . S
H176 C114 0.959 . S
H177 C114 0.960 . S
H178 C117 0.929 . S
H179 C121 0.929 . S
H180 C122 0.959 . S
H181 C122 0.961 . S
H182 C122 0.961 . S
H183 C123 0.960 . S
H184 C123 0.960 . S
H185 C123 0.961 . S
H186 C125 0.980 1_545 S
H187 C124 0.961 1_545 S
H188 C124 0.960 . S
H189 C124 0.959 . S
H190 C127 0.930 . S
H191 C131 0.931 . S
H192 C132 0.959 . S
H193 C132 0.961 . S
H194 C132 0.959 . S
H195 C133 0.960 . S
H196 C133 0.960 . S
H197 C133 0.960 . S
H198 C169 0.980 . S
H199 C135 0.930 . S
H200 C139 0.930 . S
H201 C140 0.961 . S
H202 C140 0.960 . S
H203 C140 0.958 . S
H204 C141 0.961 . S
H205 C141 0.960 . S
H206 C141 0.960 . S
H207 C143 0.980 . S
H208 C142 0.961 . S
H209 C142 0.961 . S
H210 C142 0.959 . S
H211 C145 0.932 . S
H212 C149 0.929 . S
H213 C150 0.961 . S
H214 C150 0.959 . S
H215 C150 0.959 . S
H216 C151 0.960 . S
H217 C151 0.962 . S
H218 C151 0.961 . S
H219 C153 0.929 . S
H220 C156 0.930 . S
H221 C157 0.929 . S
H222 C160 0.931 1_545 S
H223 C163 0.929 . S
H224 C164 0.930 . S
H225 C168 0.962 . S
H226 C168 0.959 . S
H227 C168 0.958 . S
C228 C229 1.560 . S
C228 H289 0.959 . S
C228 H290 0.959 . S
C228 H291 0.960 . S
C229 C228 1.560 . S
C229 O284 1.426 . S
C229 H288 0.980 . S
C230 C231 1.407 1_556 S
C230 C235 1.418 . S
C230 O284 1.334 . S
C231 C230 1.407 1_554 S
C231 C232 1.360 . S
C231 H292 0.929 . S
C232 C231 1.360 . S
C232 C233 1.401 . S
C232 C236 1.527 . S
C233 C232 1.401 . S
C233 C234 1.405 1_554 S
C233 C266 1.587 . S
C234 C233 1.405 1_556 S
C234 C235 1.332 . S
C234 C237 1.496 . S
C235 C230 1.418 . S
C235 C234 1.332 . S
C235 H293 0.929 . S
C236 C232 1.527 . S
C236 H294 0.959 . S
C236 H295 0.961 . S
C236 H296 0.961 . S
C237 C234 1.496 . S
C237 H297 0.960 . S
C237 H298 0.960 . S
C237 H299 0.961 . S
C238 C239 1.517 . S
C238 H301 0.961 . S
C238 H302 0.960 . S
C238 H303 0.959 . S
C239 C238 1.517 . S
C239 O287 1.468 . S
C239 H300 0.980 . S
C240 C241 1.349 . S
C240 C245 1.367 . S
C240 O287 1.408 . S
C241 C240 1.349 . S
C241 C242 1.407 . S
C241 H304 0.930 1_554 S
C242 C241 1.407 . S
C242 C243 1.449 . S
C242 C246 1.535 1_554 S
C243 C242 1.449 . S
C243 C244 1.384 . S
C243 C268 1.553 . S
C244 C243 1.384 . S
C244 C245 1.364 . S
C244 C247 1.450 . S
C245 C240 1.367 . S
C245 C244 1.364 . S
C245 H305 0.931 . S
C246 C242 1.535 1_556 S
C246 H306 0.959 . S
C246 H307 0.961 . S
C246 H308 0.959 . S
C247 C244 1.450 . S
C247 H309 0.960 . S
C247 H310 0.960 . S
C247 H311 0.960 . S
C248 C249 1.288 1_554 S
C248 C253 1.304 . S
C248 O286 1.435 . S
C249 C248 1.288 1_556 S
C249 C250 1.479 . S
C249 H313 0.947 . S
C250 C249 1.479 . S
C250 C251 1.400 1_556 S
C250 C254 1.567 . S
C251 C250 1.400 1_554 S
C251 C252 1.373 . S
C251 C273 1.432 . S
C252 C251 1.373 . S
C252 C253 1.339 . S
C252 C255 1.530 . S
C253 C248 1.304 . S
C253 C252 1.339 . S
C253 H314 0.930 . S
C254 C250 1.567 . S
C254 H315 0.961 . S
C254 H316 0.960 . S
C254 H317 0.958 . S
C255 C252 1.530 . S
C255 H318 0.961 . S
C255 H319 0.960 . S
C255 H320 0.960 . S
C256 C257 1.530 . S
C256 H322 0.961 . S
C256 H323 0.961 . S
C256 H324 0.959 . S
C257 C256 1.530 . S
C257 O285 1.412 . S
C257 H321 0.980 1_556 S
C258 C259 1.288 . S
C258 C263 1.377 1_556 S
C258 O285 1.393 . S
C259 C258 1.288 . S
C259 C260 1.369 . S
C259 H325 0.932 . S
C260 C259 1.369 . S
C260 C261 1.398 . S
C260 C264 1.527 . S
C261 C260 1.398 . S
C261 C262 1.380 1_556 S
C261 C275 1.497 1_556 S
C262 C261 1.380 1_554 S
C262 C263 1.383 . S
C262 C265 1.603 . S
C263 C258 1.377 1_554 S
C263 C262 1.383 . S
C263 H326 0.929 . S
C264 C260 1.527 . S
C264 H327 0.961 . S
C264 H328 0.959 . S
C264 H329 0.959 . S
C265 C262 1.603 . S
C265 H330 0.960 . S
C265 H331 0.962 . S
C265 H332 0.961 . S
C266 C233 1.587 . S
C266 C267 1.360 . S
C266 C279 1.412 . S
C267 C266 1.360 . S
C267 C268 1.365 . S
C267 H333 0.929 . S
C268 C243 1.553 . S
C268 C267 1.365 . S
C268 C269 1.404 . S
C269 C268 1.404 . S
C269 C270 1.395 . S
C269 C280 1.451 . S
C270 C269 1.395 . S
C270 C271 1.322 . S
C270 H334 0.930 . S
C271 C270 1.322 . S
C271 C272 1.459 . S
C271 H335 0.929 . S
C272 C271 1.459 . S
C272 C273 1.445 . S
C272 C281 1.395 . S
C273 C251 1.432 . S
C273 C272 1.445 . S
C273 C274 1.370 . S
C274 C273 1.370 . S
C274 C275 1.438 . S
C274 H336 0.930 . S
C275 C261 1.497 1_554 S
C275 C274 1.438 . S
C275 C276 1.360 . S
C276 C275 1.360 . S
C276 C277 1.401 . S
C276 C281 1.446 . S
C277 C276 1.401 . S
C277 C278 1.347 . S
C277 H337 0.929 . S
C278 C277 1.347 . S
C278 C279 1.455 . S
C278 H338 0.930 . S
C279 C266 1.412 . S
C279 C278 1.455 . S
C279 C280 1.331 . S
C280 C269 1.451 . S
C280 C279 1.331 . S
C280 C281 1.497 . S
C281 C272 1.395 . S
C281 C276 1.446 . S
C281 C280 1.497 . S
C282 C283 1.582 . S
C282 H339 0.962 . S
C282 H340 0.959 . S
C282 H341 0.958 . S
C283 C282 1.582 . S
C283 O286 1.458 . S
C283 H312 0.980 . S
O284 C229 1.426 . S
O284 C230 1.334 . S
O285 C257 1.412 . S
O285 C258 1.393 . S
O286 C248 1.435 . S
O286 C283 1.458 . S
O287 C239 1.468 . S
O287 C240 1.408 . S
H288 C229 0.980 . S
H289 C228 0.959 . S
H290 C228 0.959 . S
H291 C228 0.960 . S
H292 C231 0.929 . S
H293 C235 0.929 . S
H294 C236 0.959 . S
H295 C236 0.961 . S
H296 C236 0.961 . S
H297 C237 0.960 . S
H298 C237 0.960 . S
H299 C237 0.961 . S
H300 C239 0.980 . S
H301 C238 0.961 . S
H302 C238 0.960 . S
H303 C238 0.959 . S
H304 C241 0.930 1_556 S
H305 C245 0.931 . S
H306 C246 0.959 . S
H307 C246 0.961 . S
H308 C246 0.959 . S
H309 C247 0.960 . S
H310 C247 0.960 . S
H311 C247 0.960 . S
H312 C283 0.980 . S
H313 C249 0.947 . S
H314 C253 0.930 . S
H315 C254 0.961 . S
H316 C254 0.960 . S
H317 C254 0.958 . S
H318 C255 0.961 . S
H319 C255 0.960 . S
H320 C255 0.960 . S
H321 C257 0.980 1_554 S
H322 C256 0.961 . S
H323 C256 0.961 . S
H324 C256 0.959 . S
H325 C259 0.932 . S
H326 C263 0.929 . S
H327 C264 0.961 . S
H328 C264 0.959 . S
H329 C264 0.959 . S
H330 C265 0.960 . S
H331 C265 0.962 . S
H332 C265 0.961 . S
H333 C267 0.929 . S
H334 C270 0.930 . S
H335 C271 0.929 . S
H336 C274 0.930 . S
H337 C277 0.929 . S
H338 C278 0.930 . S
H339 C282 0.962 . S
H340 C282 0.959 . S
H341 C282 0.958 . S
C342 O368 1.283 . S
C342 O386 1.283 . S
C343 O369 1.283 . S
C343 O384 1.283 . S
C344 O370 1.283 . S
C344 O387 1.283 . S
C345 O371 1.283 . S
C345 O385 1.283 . S
C346 O372 1.283 . S
C346 O381 1.283 . S
C347 O373 1.283 1_554 S
C347 O383 1.283 . S
C348 O374 1.283 . S
C348 O380 1.283 1_554 S
C349 O375 1.283 . S
C349 O382 1.283 . S
C350 O376 1.283 . S
C350 O391 1.283 . S
C351 O377 1.283 . S
C351 O389 1.283 . S
C352 O378 1.283 . S
C352 O390 1.283 . S
C353 O379 1.283 . S
C353 O388 1.283 . S
Eu354 O355 2.378 . S
Eu354 O356 2.363 1_454 S
Eu354 O359 2.363 1_554 S
Eu354 O360 2.378 1_455 S
Eu354 O368 2.350 1_554 S
Eu354 O369 2.376 . S
Eu354 O382 2.363 1_455 S
Eu354 O383 2.363 . S
O355 Eu354 2.378 . S
O355 Eu357 2.366 1_554 S
O355 Eu362 2.370 . S
O356 Eu354 2.363 1_656 S
O356 Eu358 2.363 1_556 S
O356 Eu361 2.370 1_655 S
Eu357 O355 2.366 1_556 S
Eu357 O359 2.374 . S
Eu357 O363 2.374 1_545 S
Eu357 O364 2.366 1_546 S
Eu357 O372 2.363 1_545 S
Eu357 O373 2.363 . S
Eu357 O388 2.370 . S
Eu357 O389 2.356 1_556 S
Eu358 O356 2.363 1_554 S
Eu358 O360 2.378 . S
Eu358 O365 2.378 1_545 S
Eu358 O366 2.363 1_544 S
Eu358 O374 2.363 1_545 S
Eu358 O375 2.363 . S
Eu358 O390 2.350 1_554 S
Eu358 O391 2.375 . S
O359 Eu354 2.363 1_556 S
O359 Eu357 2.374 . S
O359 Eu361 2.370 . S
O360 Eu354 2.378 1_655 S
O360 Eu358 2.378 . S
O360 Eu362 2.370 1_655 S
Eu361 O356 2.370 1_455 S
Eu361 O359 2.370 . S
Eu361 O363 2.370 1_545 S
Eu361 O366 2.370 1_445 S
Eu361 O378 2.363 1_455 S
Eu361 O379 2.363 . S
Eu361 O386 2.363 . S
Eu361 O387 2.363 1_545 S
Eu362 O355 2.370 . S
Eu362 O360 2.370 1_455 S
Eu362 O364 2.370 1_545 S
Eu362 O365 2.370 1_445 S
Eu362 O376 2.363 1_455 S
Eu362 O377 2.363 . S
Eu362 O384 2.363 . S
Eu362 O385 2.363 1_545 S
O363 Eu357 2.374 1_565 S
O363 Eu361 2.370 1_565 S
O363 Eu367 2.374 . S
O364 Eu357 2.366 1_564 S
O364 Eu362 2.370 1_565 S
O364 Eu367 2.366 1_554 S
O365 Eu358 2.378 1_565 S
O365 Eu362 2.370 1_665 S
O365 Eu367 2.366 1_654 S
O366 Eu358 2.363 1_566 S
O366 Eu361 2.370 1_665 S
O366 Eu367 2.374 1_655 S
Eu367 O363 2.374 . S
Eu367 O364 2.366 1_556 S
Eu367 O365 2.366 1_456 S
Eu367 O366 2.374 1_455 S
Eu367 O370 2.370 . S
Eu367 O371 2.356 1_556 S
Eu367 O380 2.363 1_455 S
Eu367 O381 2.363 . S
O368 C342 1.283 . S
O368 Eu354 2.350 1_556 S
O369 C343 1.283 . S
O369 Eu354 2.376 . S
O370 C344 1.283 . S
O370 Eu367 2.370 . S
O371 C345 1.283 . S
O371 Eu367 2.356 1_554 S
O372 C346 1.283 . S
O372 Eu357 2.363 1_565 S
O373 C347 1.283 1_556 S
O373 Eu357 2.363 . S
O374 C348 1.283 . S
O374 Eu358 2.363 1_565 S
O375 C349 1.283 . S
O375 Eu358 2.363 . S
O376 C350 1.283 . S
O376 Eu362 2.363 1_655 S
O377 C351 1.283 . S
O377 Eu362 2.363 . S
O378 C352 1.283 . S
O378 Eu361 2.363 1_655 S
O379 C353 1.283 . S
O379 Eu361 2.363 . S
O380 C348 1.283 1_556 S
O380 Eu367 2.363 1_655 S
O381 C346 1.283 . S
O381 Eu367 2.363 . S
O382 C349 1.283 . S
O382 Eu354 2.363 1_655 S
O383 C347 1.283 . S
O383 Eu354 2.363 . S
O384 C343 1.283 . S
O384 Eu362 2.363 . S
O385 C345 1.283 . S
O385 Eu362 2.363 1_565 S
O386 C342 1.283 . S
O386 Eu361 2.363 . S
O387 C344 1.283 . S
O387 Eu361 2.363 1_565 S
O388 C353 1.283 . S
O388 Eu357 2.370 . S
O389 C351 1.283 . S
O389 Eu357 2.356 1_554 S
O390 C352 1.283 . S
O390 Eu358 2.350 1_556 S
O391 C350 1.283 . S
O391 Eu358 2.375 . S
C392 C393 1.363 . S
C392 C398 1.379 . S
C392 N400 1.356 . S
C393 C392 1.363 . S
C393 C399 1.363 1_455 S
C394 C395 1.363 1_655 S
C394 C399 1.379 . S
C394 N401 1.356 . S
C395 C394 1.363 1_455 S
C395 C398 1.363 . S
N396 C398 1.356 . S
N396 H408 0.984 . S
N396 H409 0.985 . S
N397 C399 1.356 . S
N397 H402 0.984 . S
N397 H403 0.985 . S
C398 C392 1.379 . S
C398 C395 1.363 . S
C398 N396 1.356 . S
C399 C393 1.363 1_655 S
C399 C394 1.379 . S
C399 N397 1.356 . S
N400 C392 1.356 . S
N400 H406 0.984 . S
N400 H407 0.984 . S
N401 C394 1.356 . S
N401 H404 0.984 . S
N401 H405 0.985 . S
H402 N397 0.984 . S
H403 N397 0.985 . S
H404 N401 0.984 . S
H405 N401 0.985 . S
H406 N400 0.984 . S
H407 N400 0.984 . S
H408 N396 0.984 . S
H409 N396 0.985 . S
C410 C411 1.363 . S
C410 C416 1.379 . S
C410 N418 1.356 . S
C411 C410 1.363 . S
C411 C417 1.363 1_545 S
C412 C413 1.363 1_565 S
C412 C417 1.379 . S
C412 N419 1.356 . S
C413 C412 1.363 1_545 S
C413 C416 1.363 . S
N414 C416 1.356 . S
N414 H426 0.984 . S
N414 H427 0.985 . S
N415 C417 1.356 . S
N415 H420 0.984 . S
N415 H421 0.985 . S
C416 C410 1.379 . S
C416 C413 1.363 . S
C416 N414 1.356 . S
C417 C411 1.363 1_565 S
C417 C412 1.379 . S
C417 N415 1.356 . S
N418 C410 1.356 . S
N418 H424 0.984 . S
N418 H425 0.984 . S
N419 C412 1.356 . S
N419 H422 0.984 . S
N419 H423 0.985 . S
H420 N415 0.984 . S
H421 N415 0.985 . S
H422 N419 0.984 . S
H423 N419 0.985 . S
H424 N418 0.984 . S
H425 N418 0.984 . S
H426 N414 0.984 . S
H427 N414 0.985 . S
C428 C429 1.363 1_655 S
C428 C434 1.379 . S
C428 N436 1.356 . S
C429 C428 1.363 1_455 S
C429 C435 1.363 . S
C430 C431 1.363 . S
C430 C435 1.379 . S
C430 N437 1.356 . S
C431 C430 1.363 . S
C431 C434 1.363 1_455 S
N432 C434 1.356 . S
N432 H444 0.984 . S
N432 H445 0.985 . S
N433 C435 1.356 . S
N433 H438 0.984 . S
N433 H439 0.985 . S
C434 C428 1.379 . S
C434 C431 1.363 1_655 S
C434 N432 1.356 . S
C435 C429 1.363 . S
C435 C430 1.379 . S
C435 N433 1.356 . S
N436 C428 1.356 . S
N436 H442 0.984 . S
N436 H443 0.984 . S
N437 C430 1.356 . S
N437 H440 0.984 . S
N437 H441 0.985 . S
H438 N433 0.984 . S
H439 N433 0.985 . S
H440 N437 0.984 . S
H441 N437 0.985 . S
H442 N436 0.984 . S
H443 N436 0.984 . S
H444 N432 0.984 . S
H445 N432 0.985 . S
C446 C447 1.363 . S
C446 C452 1.379 . S
C446 N454 1.356 . S
C447 C446 1.363 . S
C447 C453 1.363 1_545 S
C448 C449 1.363 1_565 S
C448 C453 1.379 . S
C448 N455 1.356 . S
C449 C448 1.363 1_545 S
C449 C452 1.363 . S
N450 C452 1.356 . S
N450 H462 0.984 . S
N450 H463 0.985 . S
N451 C453 1.356 . S
N451 H456 0.984 . S
N451 H457 0.985 . S
C452 C446 1.379 . S
C452 C449 1.363 . S
C452 N450 1.356 . S
C453 C447 1.363 1_565 S
C453 C448 1.379 . S
C453 N451 1.356 . S
N454 C446 1.356 . S
N454 H460 0.984 . S
N454 H461 0.984 . S
N455 C448 1.356 . S
N455 H458 0.984 . S
N455 H459 0.985 . S
H456 N451 0.984 . S
H457 N451 0.985 . S
H458 N455 0.984 . S
H459 N455 0.985 . S
H460 N454 0.984 . S
H461 N454 0.984 . S
H462 N450 0.984 . S
H463 N450 0.985 . S
C464 C465 1.363 1_655 S
C464 C470 1.379 . S
C464 N472 1.356 . S
C465 C464 1.363 1_455 S
C465 C471 1.363 . S
C466 C467 1.363 . S
C466 C471 1.379 . S
C466 N473 1.356 . S
C467 C466 1.363 . S
C467 C470 1.363 1_455 S
N468 C470 1.356 . S
N468 H480 0.984 . S
N468 H481 0.985 . S
N469 C471 1.356 . S
N469 H474 0.984 . S
N469 H475 0.985 . S
C470 C464 1.379 . S
C470 C467 1.363 1_655 S
C470 N468 1.356 . S
C471 C465 1.363 . S
C471 C466 1.379 . S
C471 N469 1.356 . S
N472 C464 1.356 . S
N472 H478 0.984 . S
N472 H479 0.984 . S
N473 C466 1.356 . S
N473 H476 0.984 . S
N473 H477 0.985 . S
H474 N469 0.984 . S
H475 N469 0.985 . S
H476 N473 0.984 . S
H477 N473 0.985 . S
H478 N472 0.984 . S
H479 N472 0.984 . S
H480 N468 0.984 . S
H481 N468 0.985 . S
C482 C483 1.363 1_565 S
C482 C488 1.379 . S
C482 N490 1.356 . S
C483 C482 1.363 1_545 S
C483 C489 1.363 . S
C484 C485 1.363 . S
C484 C489 1.379 . S
C484 N491 1.356 . S
C485 C484 1.363 . S
C485 C488 1.363 1_545 S
N486 C488 1.356 . S
N486 H498 0.984 . S
N486 H499 0.985 . S
N487 C489 1.356 . S
N487 H492 0.984 . S
N487 H493 0.985 . S
C488 C482 1.379 . S
C488 C485 1.363 1_565 S
C488 N486 1.356 . S
C489 C483 1.363 . S
C489 C484 1.379 . S
C489 N487 1.356 . S
N490 C482 1.356 . S
N490 H496 0.984 . S
N490 H497 0.984 . S
N491 C484 1.356 . S
N491 H494 0.984 . S
N491 H495 0.985 . S
H492 N487 0.984 . S
H493 N487 0.985 . S
H494 N491 0.984 . S
H495 N491 0.985 . S
H496 N490 0.984 . S
H497 N490 0.984 . S
H498 N486 0.984 . S
H499 N486 0.985 . S
C500 C501 1.355 1_655 S
C500 C506 1.380 . S
C500 N508 1.362 . S
C501 C500 1.355 1_455 S
C501 C507 1.363 . S
C502 C503 1.363 . S
C502 C507 1.379 . S
C502 N509 1.356 . S
C503 C502 1.363 . S
C503 C506 1.363 1_455 S
N504 C506 1.356 . S
N504 H516 0.984 . S
N504 H517 0.985 . S
N505 C507 1.356 . S
N505 H510 0.984 . S
N505 H511 0.985 . S
C506 C500 1.380 . S
C506 C503 1.363 1_655 S
C506 N504 1.356 . S
C507 C501 1.363 . S
C507 C502 1.379 . S
C507 N505 1.356 . S
N508 C500 1.362 . S
N508 H514 0.984 . S
N508 H515 0.984 . S
N509 C502 1.356 . S
N509 H512 0.984 . S
N509 H513 0.985 . S
H510 N505 0.984 . S
H511 N505 0.985 . S
H512 N509 0.984 . S
H513 N509 0.985 . S
H514 N508 0.984 . S
H515 N508 0.984 . S
H516 N504 0.984 . S
H517 N504 0.985 . S
C518 C519 1.363 . S
C518 C524 1.379 . S
C518 N526 1.356 . S
C519 C518 1.363 . S
C519 C525 1.363 1_545 S
C520 C521 1.363 1_565 S
C520 C525 1.379 . S
C520 N527 1.356 . S
C521 C520 1.363 1_545 S
C521 C524 1.363 . S
N522 C524 1.356 . S
N522 H534 0.984 . S
N522 H535 0.985 . S
N523 C525 1.356 . S
N523 H528 0.984 . S
N523 H529 0.985 . S
C524 C518 1.379 . S
C524 C521 1.363 . S
C524 N522 1.356 . S
C525 C519 1.363 1_565 S
C525 C520 1.379 . S
C525 N523 1.356 . S
N526 C518 1.356 . S
N526 H532 0.984 . S
N526 H533 0.984 . S
N527 C520 1.356 . S
N527 H530 0.984 . S
N527 H531 0.985 . S
H528 N523 0.984 . S
H529 N523 0.985 . S
H530 N527 0.984 . S
H531 N527 0.985 . S
H532 N526 0.984 . S
H533 N526 0.984 . S
H534 N522 0.984 . S
H535 N522 0.985 . S
C536 C537 1.363 . S
C536 C542 1.379 . S
C536 N544 1.356 . S
C537 C536 1.363 . S
C537 C543 1.363 1_556 S
C538 C539 1.363 1_554 S
C538 C543 1.379 . S
C538 N545 1.356 . S
C539 C538 1.363 1_556 S
C539 C542 1.363 . S
N540 C542 1.356 . S
N540 H552 0.984 . S
N540 H553 0.985 . S
N541 C543 1.356 . S
N541 H546 0.984 . S
N541 H547 0.985 . S
C542 C536 1.379 . S
C542 C539 1.363 . S
C542 N540 1.356 . S
C543 C537 1.363 1_554 S
C543 C538 1.379 . S
C543 N541 1.356 . S
N544 C536 1.356 . S
N544 H550 0.984 . S
N544 H551 0.984 . S
N545 C538 1.356 . S
N545 H548 0.984 . S
N545 H549 0.985 . S
H546 N541 0.984 . S
H547 N541 0.985 . S
H548 N545 0.984 . S
H549 N545 0.985 . S
H550 N544 0.984 . S
H551 N544 0.984 . S
H552 N540 0.984 . S
H553 N540 0.985 . S
C554 C555 1.363 . S
C554 C560 1.379 . S
C554 N562 1.356 . S
C555 C554 1.363 . S
C555 C561 1.363 1_554 S
C556 C557 1.350 1_556 S
C556 C561 1.379 . S
C556 N563 1.356 . S
C557 C556 1.350 1_554 S
C557 C560 1.378 . S
N558 C560 1.356 . S
N558 H570 0.984 . S
N558 H571 0.985 . S
N559 C561 1.356 . S
N559 H564 0.984 . S
N559 H565 0.985 . S
C560 C554 1.379 . S
C560 C557 1.378 . S
C560 N558 1.356 . S
C561 C555 1.363 1_556 S
C561 C556 1.379 . S
C561 N559 1.356 . S
N562 C554 1.356 . S
N562 H568 0.984 . S
N562 H569 0.984 . S
N563 C556 1.356 . S
N563 H566 0.984 . S
N563 H567 0.985 . S
H564 N559 0.984 . S
H565 N559 0.985 . S
H566 N563 0.984 . S
H567 N563 0.985 . S
H568 N562 0.984 . S
H569 N562 0.984 . S
H570 N558 0.984 . S
H571 N558 0.985 . S
C572 C573 1.363 1_556 S
C572 C578 1.379 . S
C572 N580 1.356 . S
C573 C572 1.363 1_554 S
C573 C579 1.363 . S
C574 C575 1.363 . S
C574 C579 1.379 . S
C574 N581 1.356 . S
C575 C574 1.363 . S
C575 C578 1.363 1_554 S
N576 C578 1.356 . S
N576 H588 0.984 . S
N576 H589 0.985 . S
N577 C579 1.356 . S
N577 H582 0.984 . S
N577 H583 0.985 . S
C578 C572 1.379 . S
C578 C575 1.363 1_556 S
C578 N576 1.356 . S
C579 C573 1.363 . S
C579 C574 1.379 . S
C579 N577 1.356 . S
N580 C572 1.356 . S
N580 H586 0.984 . S
N580 H587 0.984 . S
N581 C574 1.356 . S
N581 H584 0.984 . S
N581 H585 0.985 . S
H582 N577 0.984 . S
H583 N577 0.985 . S
H584 N581 0.984 . S
H585 N581 0.985 . S
H586 N580 0.984 . S
H587 N580 0.984 . S
H588 N576 0.984 . S
H589 N576 0.985 . S
C590 C591 1.363 . S
C590 C596 1.379 . S
C590 N598 1.356 . S
C591 C590 1.363 . S
C591 C597 1.363 1_556 S
C592 C593 1.363 1_554 S
C592 C597 1.379 . S
C592 N599 1.356 . S
C593 C592 1.363 1_556 S
C593 C596 1.363 . S
N594 C596 1.356 . S
N594 H606 0.984 . S
N594 H607 0.985 . S
N595 C597 1.356 . S
N595 H600 0.984 . S
N595 H601 0.985 . S
C596 C590 1.379 . S
C596 C593 1.363 . S
C596 N594 1.356 . S
C597 C591 1.363 1_554 S
C597 C592 1.379 . S
C597 N595 1.356 . S
N598 C590 1.356 . S
N598 H604 0.984 . S
N598 H605 0.984 . S
N599 C592 1.356 . S
N599 H602 0.984 . S
N599 H603 0.985 . S
H600 N595 0.984 . S
H601 N595 0.985 . S
H602 N599 0.984 . S
H603 N599 0.985 . S
H604 N598 0.984 . S
H605 N598 0.984 . S
H606 N594 0.984 . S
H607 N594 0.985 . S
C395 C343 1.534 . S
C393 C11 0.845 1_455 S
C413 C350 1.489 . S
C411 C143 1.192 . S
C431 C345 1.300 . S
C429 C1 0.996 . S
C449 C351 1.605 . S
C447 C169 1.212 . S
C465 C29 1.138 . S
C467 C344 1.409 . S
C485 C353 1.601 . S
C483 C125 0.903 1_545 S
C501 C55 1.168 . S
C503 C342 1.534 . S
C519 C115 1.061 . S
C521 C352 1.375 . S
C537 C283 1.291 1_556 S
C539 C347 1.690 1_556 S
C555 C239 0.956 . S
C557 C346 1.690 1_554 S
C575 C349 1.563 . S
C573 C257 1.270 1_554 S
C593 C348 1.453 1_556 S
C591 C229 1.104 . S
