# Generated by pormake.
# Topology tsx, (6,3)-cn, num edge types: 1
# Building blocks:
#     Node 0, Type 0, BuildingBlock: VOLQOD_clean_sbu_1, # of connection points: 6
#     Node 1, Type 0, BuildingBlock: VOLQOD_clean_sbu_1, # of connection points: 6
#     Node 2, Type 1, BuildingBlock: BETDAH_clean_linker_0, # of connection points: 3
#     Node 3, Type 1, BuildingBlock: BETDAH_clean_linker_0, # of connection points: 3
#     Node 4, Type 1, BuildingBlock: BETDAH_clean_linker_0, # of connection points: 3
#     Node 5, Type 1, BuildingBlock: BETDAH_clean_linker_0, # of connection points: 3
#     Edge 6, Type (0, 1), BuildingBlock: FUNLAD_clean_linker_1, # of connection points: 2
#     Edge 7, Type (0, 1), BuildingBlock: FUNLAD_clean_linker_1, # of connection points: 2
#     Edge 8, Type (0, 1), BuildingBlock: FUNLAD_clean_linker_1, # of connection points: 2
#     Edge 9, Type (0, 1), BuildingBlock: FUNLAD_clean_linker_1, # of connection points: 2
#     Edge 10, Type (0, 1), BuildingBlock: FUNLAD_clean_linker_1, # of connection points: 2
#     Edge 11, Type (0, 1), BuildingBlock: FUNLAD_clean_linker_1, # of connection points: 2
#     Edge 12, Type (0, 1), BuildingBlock: FUNLAD_clean_linker_1, # of connection points: 2
#     Edge 13, Type (0, 1), BuildingBlock: FUNLAD_clean_linker_1, # of connection points: 2
#     Edge 14, Type (0, 1), BuildingBlock: FUNLAD_clean_linker_1, # of connection points: 2
#     Edge 15, Type (0, 1), BuildingBlock: FUNLAD_clean_linker_1, # of connection points: 2
#     Edge 16, Type (0, 1), BuildingBlock: FUNLAD_clean_linker_1, # of connection points: 2
#     Edge 17, Type (0, 1), BuildingBlock: FUNLAD_clean_linker_1, # of connection points: 2
# Relax obj value: 0.053
# Max RMSD: 0.112
# Mean RMSD: 0.100
data_MOF--net-tsx--node1-VOLQOD_clean_sbu_1--node2-BETDAH_clean_linker_0--edge1-FUNLAD_clean_linker_1
_symmetry_space_group_name_H-M    P1
_symmetry_Int_Tables_number       1
_symmetry_cell_setting            triclinic
loop_
_symmetry_equiv_pos_as_xyz
'x, y, z'
_cell_length_a     22.029127
_cell_length_b     22.735056
_cell_length_c     38.915904
_cell_angle_alpha  90.220164
_cell_angle_beta   97.796618
_cell_angle_gamma 90.109802
loop_
_atom_site_label
_atom_site_type_symbol
_atom_site_fract_x
_atom_site_fract_y
_atom_site_fract_z
_atom_type_partial_charge
O0 O 0.07841 0.02157 0.08071 0.0
Zn1 Zn 0.08791 0.01824 0.02938 0.0
O2 O 0.00723 0.02508 1.00091 0.0
Zn3 Zn 0.9914 0.95616 0.97097 0.0
Zn4 Zn 0.94261 0.03114 0.03077 0.0
Zn5 Zn 0.00544 0.09509 0.9719 0.0
O6 O 0.98349 0.97735 0.92009 0.0
O7 O 0.99637 0.07435 0.92114 0.0
O8 O 0.13229 0.94331 0.01786 0.0
O9 O 0.06243 0.90149 0.97865 0.0
O10 O 0.91816 0.90981 0.9821 0.0
O11 O 0.89126 0.95724 0.02775 0.0
O12 O 0.8856 0.09941 0.01679 0.0
O13 O 0.14175 0.08733 0.0207 0.0
O14 O 0.93377 0.14601 0.97821 0.0
O15 O 0.08264 0.14255 0.98282 0.0
C16 C 0.03324 0.03366 0.09684 0.0
C17 C 0.98798 0.0261 0.90456 0.0
C18 C 0.88525 0.91421 0.00648 0.0
C19 C 0.11479 0.90141 0.9969 0.0
C20 C 0.8895 0.14183 0.99589 0.0
C21 C 0.13311 0.13331 1.00205 0.0
O22 O 0.97939 0.04104 0.08081 0.0
O23 O 0.52901 0.4956 0.58712 0.0
Zn24 Zn 0.55254 0.50482 0.53832 0.0
O25 O 0.47958 0.51667 0.50377 0.0
Zn26 Zn 0.47339 0.45501 0.46832 0.0
Zn27 Zn 0.40617 0.51459 0.52663 0.0
Zn28 Zn 0.48438 0.59265 0.4812 0.0
O29 O 0.47282 0.48816 0.41995 0.0
O30 O 0.49306 0.58279 0.43064 0.0
O31 O 0.6033 0.43581 0.52477 0.0
O32 O 0.54786 0.4042 0.4761 0.0
O33 O 0.40148 0.40082 0.47145 0.0
O34 O 0.35849 0.44003 0.51463 0.0
O35 O 0.35146 0.58464 0.51386 0.0
O36 O 0.60727 0.57622 0.54019 0.0
O37 O 0.40856 0.64031 0.48397 0.0
O38 O 0.55687 0.63924 0.50321 0.0
C39 C 0.47801 0.5038 0.59858 0.0
C40 C 0.4851 0.53951 0.40969 0.0
C41 C 0.3614 0.39966 0.49214 0.0
C42 C 0.59506 0.401 0.49873 0.0
C43 C 0.35963 0.63151 0.49728 0.0
C44 C 0.60252 0.62626 0.52547 0.0
O45 O 0.4289 0.51395 0.57828 0.0
H46 H 0.09816 0.98068 0.3573 0.0
H47 H 0.97745 0.11812 0.3835 0.0
H48 H 0.07809 0.01391 0.46367 0.0
C49 C 0.07862 0.00678 0.37638 0.0
C50 C 0.09271 0.99174 0.41138 0.0
C51 C 0.03736 0.05263 0.36588 0.0
C52 C 0.00993 0.08336 0.39128 0.0
C53 C 0.02491 0.06909 0.42667 0.0
C54 C 0.06627 0.02369 0.43635 0.0
N55 N -0.00021 0.09874 0.45361 0.0
C56 C 0.95936 0.14571 0.44954 0.0
H57 H 0.95474 0.89732 0.64814 0.0
H58 H 0.10289 0.01207 0.63045 0.0
H59 H 0.02118 0.89568 0.54955 0.0
C60 C 0.98442 0.91564 0.6309 0.0
C61 C 0.98129 0.89321 0.59711 0.0
C62 C 0.02819 0.95845 0.64326 0.0
C63 C 0.06861 0.97948 0.62104 0.0
C64 C 0.06541 0.95732 0.58693 0.0
C65 C 0.02287 0.91325 0.57561 0.0
N66 N 0.10479 0.97739 0.56347 0.0
C67 C 0.13131 0.03294 0.56495 0.0
H68 H 0.57451 0.40782 0.87474 0.0
H69 H 0.42679 0.53294 0.86682 0.0
H70 H 0.4609 0.42106 0.95601 0.0
C71 C 0.53765 0.42898 0.8859 0.0
C72 C 0.52348 0.41079 0.91839 0.0
C73 C 0.50229 0.4718 0.86654 0.0
C74 C 0.45392 0.49892 0.88092 0.0
C75 C 0.43945 0.48061 0.91336 0.0
C76 C 0.47309 0.43558 0.93131 0.0
N77 N 0.38938 0.50456 0.9279 0.0
C78 C 0.37861 0.56451 0.92997 0.0
H79 H 0.43667 0.41876 0.14812 0.0
H80 H 0.57685 0.5484 0.14033 0.0
H81 H 0.52007 0.43168 0.05479 0.0
C82 C 0.46917 0.43961 0.13339 0.0
C83 C 0.47282 0.42032 0.09956 0.0
C84 C 0.50668 0.48512 0.14862 0.0
C85 C 0.54825 0.51254 0.12917 0.0
C86 C 0.55246 0.49322 0.09505 0.0
C87 C 0.51532 0.44683 0.0807 0.0
N88 N 0.5937 0.51857 0.07425 0.0
C89 C 0.62435 0.57165 0.08104 0.0
H90 H 0.17054 0.21906 0.98892 0.0
C91 C 0.18094 0.17907 0.0038 0.0
H92 H 0.24658 0.13492 0.03922 0.0
H93 H 0.47115 0.29581 0.01498 0.0
H94 H 0.49607 0.20651 0.98546 0.0
H95 H 0.42142 0.12506 0.9754 0.0
H96 H 0.32146 0.1323 0.99489 0.0
C97 C 0.23445 0.17495 0.02476 0.0
C98 C 0.27824 0.22518 0.02927 0.0
C99 C 0.33616 0.22039 0.01741 0.0
C100 C 0.37909 0.26743 0.02301 0.0
C101 C 0.43691 0.26132 0.01135 0.0
C102 C 0.45173 0.21037 0.99434 0.0
C103 C 0.40969 0.16452 0.98867 0.0
C104 C 0.35252 0.16919 1.00002 0.0
H105 H 0.41162 0.34475 0.10388 0.0
C106 C 0.43135 0.37215 0.08534 0.0
H107 H 0.429 0.39049 0.03166 0.0
H108 H 0.17306 0.24779 0.05797 0.0
H109 H 0.14613 0.33949 0.08373 0.0
H110 H 0.21698 0.42419 0.08827 0.0
H111 H 0.31594 0.41686 0.06779 0.0
C112 C 0.41186 0.36398 0.0514 0.0
C113 C 0.36398 0.31896 0.04049 0.0
C114 C 0.30472 0.32523 0.05044 0.0
C115 C 0.26253 0.27762 0.04592 0.0
C116 C 0.20579 0.28341 0.05899 0.0
C117 C 0.18987 0.33577 0.07415 0.0
C118 C 0.22985 0.38334 0.07685 0.0
C119 C 0.28667 0.37838 0.06523 0.0
H120 H 0.13449 0.81436 0.97698 0.0
C121 C 0.15545 0.85187 0.99152 0.0
H122 H 0.23935 0.88963 0.01439 0.0
H123 H 0.35835 0.63117 0.02077 0.0
H124 H 0.3655 0.65567 0.08196 0.0
H125 H 0.3215 0.74799 0.10107 0.0
H126 H 0.27052 0.8167 0.05903 0.0
C127 C 0.2166 0.85295 0.99996 0.0
C128 C 0.25371 0.80348 0.9886 0.0
C129 C 0.28376 0.76425 0.01339 0.0
C130 C 0.30827 0.71062 1.00233 0.0
C131 C 0.33796 0.67204 0.02772 0.0
C132 C 0.3426 0.68567 0.06293 0.0
C133 C 0.31787 0.73768 0.07369 0.0
C134 C 0.28865 0.77666 0.04932 0.0
H135 H 0.38984 0.66017 0.92747 0.0
C136 C 0.36362 0.62469 0.93696 0.0
H137 H 0.29476 0.59919 0.96633 0.0
H138 H 0.21401 0.87639 0.93456 0.0
H139 H 0.20646 0.85275 0.87321 0.0
H140 H 0.23995 0.75608 0.85385 0.0
H141 H 0.28239 0.68328 0.89545 0.0
C142 C 0.31844 0.63576 0.95595 0.0
C143 C 0.30219 0.69616 0.96649 0.0
C144 C 0.27564 0.73734 0.94156 0.0
C145 C 0.25316 0.79182 0.9527 0.0
C146 C 0.2293 0.83339 0.92742 0.0
C147 C 0.22509 0.82054 0.89217 0.0
C148 C 0.24418 0.76622 0.88128 0.0
C149 C 0.26895 0.72488 0.90553 0.0
H150 H 0.83841 0.82983 0.99261 0.0
C151 C 0.84229 0.86591 0.01122 0.0
H152 H 0.81415 0.89873 0.05751 0.0
H153 H 0.57818 0.73441 0.04535 0.0
H154 H 0.5312 0.82987 0.03297 0.0
H155 H 0.5946 0.9174 0.0258 0.0
H156 H 0.70541 0.91009 0.03102 0.0
C157 C 0.81171 0.86287 0.03883 0.0
C158 C 0.77376 0.81048 0.0447 0.0
C159 C 0.70916 0.81558 0.04171 0.0
C160 C 0.67257 0.765 0.04555 0.0
C161 C 0.6081 0.77131 0.04235 0.0
C162 C 0.58055 0.82586 0.03533 0.0
C163 C 0.61626 0.87515 0.03132 0.0
C164 C 0.67981 0.87035 0.0344 0.0
H165 H 0.68356 0.64038 0.10719 0.0
C166 C 0.65823 0.62612 0.08267 0.0
H167 H 0.63536 0.64158 0.02913 0.0
H168 H 0.8968 0.78709 0.05766 0.0
H169 H 0.94371 0.69155 0.06896 0.0
H170 H 0.88013 0.60268 0.07159 0.0
H171 H 0.76942 0.60902 0.06364 0.0
C172 C 0.66176 0.65603 0.05336 0.0
C173 C 0.70063 0.70945 0.05243 0.0
C174 C 0.7654 0.70451 0.05608 0.0
C175 C 0.80203 0.75533 0.05297 0.0
C176 C 0.86666 0.74964 0.05835 0.0
C177 C 0.89426 0.69508 0.06509 0.0
C178 C 0.85847 0.64509 0.06669 0.0
C179 C 0.79483 0.64945 0.06224 0.0
H180 H 0.84688 0.22123 0.97172 0.0
C181 C 0.83989 0.18523 0.98912 0.0
H182 H 0.77577 0.14334 0.017 0.0
H183 H 0.62062 0.38482 0.00304 0.0
H184 H 0.65194 0.38212 0.06525 0.0
H185 H 0.72093 0.30427 0.09158 0.0
H186 H 0.75891 0.22844 0.05574 0.0
C187 C 0.78469 0.17873 0.99968 0.0
C188 C 0.7336 0.21806 0.98534 0.0
C189 C 0.71084 0.26103 0.00668 0.0
C190 C 0.67074 0.30566 0.99149 0.0
C191 C 0.65043 0.34945 0.01323 0.0
C192 C 0.66825 0.34851 0.04898 0.0
C193 C 0.70713 0.30469 0.06381 0.0
C194 C 0.72863 0.26152 0.043 0.0
H195 H 0.53549 0.33564 0.95489 0.0
C196 C 0.55902 0.36417 0.93858 0.0
H197 H 0.64407 0.38581 0.92244 0.0
H198 H 0.75667 0.13343 0.93853 0.0
H199 H 0.72129 0.13298 0.87668 0.0
H200 H 0.6544 0.21202 0.84997 0.0
H201 H 0.62207 0.29158 0.885 0.0
C202 C 0.61932 0.35709 0.93796 0.0
C203 C 0.65339 0.30656 0.95504 0.0
C204 C 0.67214 0.26074 0.93413 0.0
C205 C 0.71155 0.21591 0.94937 0.0
C206 C 0.72832 0.16968 0.92805 0.0
C207 C 0.70793 0.16861 0.89257 0.0
C208 C 0.67022 0.21306 0.87754 0.0
C209 C 0.65223 0.2586 0.89795 0.0
H210 H 0.64119 0.71563 0.52513 0.0
C211 C 0.65053 0.67098 0.53426 0.0
H212 H 0.71483 0.61399 0.56213 0.0
H213 H 0.86394 0.85938 0.52513 0.0
H214 H 0.83796 0.83138 0.46482 0.0
H215 H 0.7754 0.74297 0.44842 0.0
H216 H 0.73691 0.68329 0.49227 0.0
C217 C 0.70512 0.65824 0.55244 0.0
C218 C 0.75155 0.70503 0.5623 0.0
C219 C 0.77716 0.73697 0.53647 0.0
C220 C 0.8169 0.78535 0.54608 0.0
C221 C 0.8369 0.81995 0.51953 0.0
C222 C 0.82176 0.80472 0.48472 0.0
C223 C 0.78628 0.75516 0.47548 0.0
C224 C 0.76407 0.72154 0.50092 0.0
H225 H 0.95022 0.81293 0.56744 0.0
C226 C 0.93635 0.84698 0.58445 0.0
H227 H 0.86427 0.88183 0.60879 0.0
H228 H 0.71059 0.65274 0.61825 0.0
H229 H 0.74116 0.67704 0.67876 0.0
H230 H 0.8161 0.75598 0.69576 0.0
H231 H 0.86062 0.81166 0.6524 0.0
C232 C 0.87884 0.84722 0.59242 0.0
C233 C 0.8349 0.79864 0.5817 0.0
C234 C 0.81071 0.76551 0.60757 0.0
C235 C 0.76854 0.71904 0.59782 0.0
C236 C 0.74359 0.68785 0.62414 0.0
C237 C 0.76068 0.70138 0.65903 0.0
C238 C 0.80284 0.7459 0.6686 0.0
C239 C 0.82785 0.77766 0.64335 0.0
H240 H 0.62885 0.32416 0.4728 0.0
C241 C 0.6418 0.35733 0.49268 0.0
H242 H 0.71482 0.39293 0.52752 0.0
H243 H 0.87052 0.15685 0.52676 0.0
H244 H 0.84787 0.1586 0.58594 0.0
H245 H 0.77825 0.23312 0.60504 0.0
H246 H 0.73133 0.3068 0.56505 0.0
C247 C 0.70035 0.36027 0.50762 0.0
C248 C 0.74654 0.31863 0.49685 0.0
C249 C 0.77329 0.27573 0.52043 0.0
C250 C 0.81248 0.23209 0.50916 0.0
C251 C 0.83936 0.19032 0.53355 0.0
C252 C 0.82696 0.19094 0.56772 0.0
C253 C 0.78783 0.23293 0.57848 0.0
C254 C 0.76118 0.27494 0.55524 0.0
H255 H 0.93357 0.23837 0.44964 0.0
C256 C 0.91754 0.19361 0.45225 0.0
H257 H 0.84942 0.1378 0.46681 0.0
H258 H 0.71347 0.40191 0.44719 0.0
H259 H 0.73443 0.39987 0.38765 0.0
H260 H 0.7931 0.31835 0.36622 0.0
H261 H 0.83326 0.23981 0.40463 0.0
C262 C 0.8629 0.18299 0.46255 0.0
C263 C 0.82425 0.23097 0.47415 0.0
C264 C 0.79848 0.27479 0.45073 0.0
C265 C 0.76126 0.31973 0.46244 0.0
C266 C 0.73946 0.36518 0.43921 0.0
C267 C 0.75143 0.36471 0.40499 0.0
C268 C 0.7848 0.31904 0.39301 0.0
C269 C 0.80804 0.27442 0.41546 0.0
H270 H 0.32786 0.31185 0.47395 0.0
C271 C 0.32237 0.34682 0.49241 0.0
H272 H 0.2826 0.37141 0.53674 0.0
H273 H 0.12512 0.13047 0.47937 0.0
H274 H 0.08549 0.1885 0.42908 0.0
H275 H 0.12368 0.28888 0.42151 0.0
H276 H 0.20233 0.3318 0.46391 0.0
C277 C 0.28627 0.33786 0.51716 0.0
C278 C 0.25982 0.27877 0.52245 0.0
C279 C 0.21331 0.25459 0.49765 0.0
C280 C 0.1906 0.19695 0.50236 0.0
C281 C 0.14418 0.17391 0.4771 0.0
C282 C 0.12083 0.20679 0.44817 0.0
C283 C 0.14243 0.26332 0.44386 0.0
C284 C 0.18791 0.28727 0.46829 0.0
H285 H 0.15054 0.12341 0.58227 0.0
C286 C 0.15778 0.09058 0.5629 0.0
H287 H 0.19414 0.07083 0.51691 0.0
H288 H 0.34818 0.31263 0.57543 0.0
H289 H 0.38864 0.25456 0.62531 0.0
H290 H 0.35146 0.1536 0.63263 0.0
H291 H 0.27322 0.11042 0.59031 0.0
C292 C 0.18934 0.10368 0.53677 0.0
C293 C 0.21369 0.16394 0.53217 0.0
C294 C 0.26032 0.18817 0.55699 0.0
C295 C 0.28275 0.24594 0.55235 0.0
C296 C 0.32925 0.26907 0.57757 0.0
C297 C 0.35313 0.23613 0.60633 0.0
C298 C 0.33213 0.17934 0.61049 0.0
C299 C 0.28664 0.15528 0.5861 0.0
H300 H 0.26806 0.66673 0.50319 0.0
C301 C 0.31067 0.67613 0.49307 0.0
H302 H 0.35922 0.73743 0.46627 0.0
H303 H 0.09794 0.83598 0.39643 0.0
H304 H 0.10741 0.75731 0.35527 0.0
H305 H 0.19024 0.6841 0.3662 0.0
H306 H 0.26353 0.68869 0.41867 0.0
C307 C 0.31715 0.72719 0.47671 0.0
C308 C 0.26639 0.77028 0.47077 0.0
C309 C 0.22489 0.76769 0.43964 0.0
C310 C 0.17842 0.81098 0.43282 0.0
C311 C 0.13573 0.80573 0.40227 0.0
C312 C 0.14028 0.76044 0.37855 0.0
C313 C 0.18683 0.71915 0.38474 0.0
C314 C 0.22864 0.72237 0.41494 0.0
H315 H 0.17013 0.93331 0.40426 0.0
C316 C 0.13558 0.94258 0.42103 0.0
H317 H 0.09629 0.91416 0.46489 0.0
H318 H 0.33651 0.78548 0.53376 0.0
H319 H 0.32703 0.86407 0.57517 0.0
H320 H 0.24833 0.94101 0.56265 0.0
H321 H 0.17857 0.93977 0.50879 0.0
C322 C 0.13111 0.90695 0.44808 0.0
C323 C 0.17518 0.85801 0.4566 0.0
C324 C 0.21534 0.85936 0.48831 0.0
C325 C 0.26101 0.81532 0.49542 0.0
C326 C 0.30104 0.81794 0.52709 0.0
C327 C 0.29611 0.86279 0.55105 0.0
C328 C 0.25178 0.90609 0.54402 0.0
C329 C 0.2119 0.90476 0.51301 0.0
H330 H 0.09008 0.03107 0.14823 0.0
C331 C 0.04414 0.03933 0.13509 0.0
H332 H 0.95296 0.06112 0.14127 0.0
H333 H 0.98022 0.96643 0.29573 0.0
H334 H 0.91343 0.89273 0.2656 0.0
H335 H 0.88966 0.89342 0.20182 0.0
H336 H 0.93308 0.96769 0.16778 0.0
C337 C -0.00053 0.05422 0.15391 0.0
C338 C 0.01065 0.05695 0.19256 0.0
C339 C 0.98341 0.01433 0.2122 0.0
C340 C 0.99646 0.01445 0.24907 0.0
C341 C 0.97094 0.96948 0.26781 0.0
C342 C 0.93266 0.9266 0.25081 0.0
C343 C 0.91931 0.92696 0.2149 0.0
C344 C 0.94445 0.96999 0.19569 0.0
H345 H 0.97403 0.08336 0.32008 0.0
C346 C 0.01943 0.06562 0.32835 0.0
H347 H 0.1035 0.04035 0.31205 0.0
H348 H 0.06358 0.14982 0.16312 0.0
H349 H 0.12914 0.22476 0.19331 0.0
H350 H 0.15276 0.22427 0.25712 0.0
H351 H 0.11051 0.14898 0.29117 0.0
C352 C 0.05638 0.0537 0.30428 0.0
C353 C 0.03588 0.05799 0.26628 0.0
C354 C 0.06128 0.10186 0.24668 0.0
C355 C 0.04832 0.10166 0.20983 0.0
C356 C 0.07312 0.14698 0.19106 0.0
C357 C 0.11053 0.1905 0.20809 0.0
C358 C 0.12379 0.19025 0.24402 0.0
C359 C 0.09947 0.14666 0.26324 0.0
H360 H 0.967 0.06665 0.85288 0.0
C361 C 0.98468 0.02731 0.8665 0.0
H362 H 0.02542 0.9443 0.86268 0.0
H363 H 0.93376 0.8847 0.7076 0.0
H364 H 0.88801 0.80742 0.73799 0.0
H365 H 0.89188 0.81051 0.80154 0.0
H366 H 0.943 0.89034 0.83517 0.0
C367 C 0.00681 0.98313 0.84885 0.0
C368 C 0.00313 0.98345 0.81025 0.0
C369 C 0.97128 0.93736 0.79079 0.0
C370 C 0.96718 0.93667 0.75399 0.0
C371 C 0.93709 0.88865 0.73546 0.0
C372 C 0.91061 0.8437 0.75259 0.0
C373 C 0.913 0.84534 0.78838 0.0
C374 C 0.94278 0.89147 0.80738 0.0
H375 H 0.08147 0.98192 0.69394 0.0
C376 C 0.03534 0.97661 0.6803 0.0
H377 H 0.9408 0.97749 0.68393 0.0
H378 H 0.078 0.07227 0.83941 0.0
H379 H 0.11995 0.15225 0.80901 0.0
H380 H 0.10128 0.15788 0.74516 0.0
H381 H 0.0422 0.08244 0.71134 0.0
C382 C 0.98685 0.98184 0.6978 0.0
C383 C 0.99334 0.98306 0.73647 0.0
C384 C 0.0246 0.02957 0.75588 0.0
C385 C 0.03158 0.02856 0.79282 0.0
C386 C 0.06785 0.07271 0.81146 0.0
C387 C 0.0928 0.11862 0.79429 0.0
C388 C 0.08256 0.12163 0.75834 0.0
C389 C 0.04892 0.07776 0.73923 0.0
H390 H 0.42837 0.50691 0.64389 0.0
C391 C 0.47364 0.5015 0.63611 0.0
H392 H 0.56784 0.49009 0.65395 0.0
H393 H 0.53857 0.59388 0.80319 0.0
H394 H 0.60167 0.66857 0.78099 0.0
H395 H 0.62496 0.6637 0.7208 0.0
H396 H 0.58518 0.58423 0.68238 0.0
C397 C 0.52176 0.49343 0.66078 0.0
C398 C 0.51299 0.49285 0.6982 0.0
C399 C 0.53747 0.53903 0.72054 0.0
C400 C 0.52446 0.54159 0.75541 0.0
C401 C 0.54794 0.58921 0.77675 0.0
C402 C 0.58397 0.63254 0.76427 0.0
C403 C 0.59703 0.62984 0.73036 0.0
C404 C 0.57396 0.58391 0.70859 0.0
H405 H 0.56238 0.4751 0.82537 0.0
C406 C 0.51638 0.48475 0.83101 0.0
H407 H 0.42598 0.50428 0.80855 0.0
H408 H 0.46702 0.39324 0.66418 0.0
H409 H 0.40537 0.31781 0.68661 0.0
H410 H 0.38036 0.32371 0.74642 0.0
H411 H 0.41717 0.40488 0.7842 0.0
C412 C 0.47351 0.49941 0.80448 0.0
C413 C 0.4875 0.49759 0.76801 0.0
C414 C 0.46442 0.45053 0.74594 0.0
C415 C 0.47785 0.4477 0.71121 0.0
C416 C 0.45644 0.39875 0.69033 0.0
C417 C 0.42145 0.35479 0.70299 0.0
C418 C 0.40745 0.35807 0.73668 0.0
C419 C 0.42875 0.40508 0.75806 0.0
H420 H 0.50849 0.59304 0.36614 0.0
C421 C 0.49411 0.54945 0.37322 0.0
H422 H 0.47607 0.46218 0.35628 0.0
H423 H 0.46906 0.61283 0.20829 0.0
H424 H 0.3847 0.66838 0.2264 0.0
H425 H 0.35279 0.6527 0.28404 0.0
H426 H 0.40556 0.5825 0.32411 0.0
C427 C 0.48819 0.50645 0.3492 0.0
C428 C 0.50535 0.51564 0.31378 0.0
C429 C 0.4724 0.55558 0.29025 0.0
C430 C 0.48871 0.56253 0.25633 0.0
C431 C 0.4569 0.60437 0.23385 0.0
C432 C 0.40869 0.63674 0.24398 0.0
C433 C 0.39089 0.62808 0.27649 0.0
C434 C 0.42202 0.58792 0.29939 0.0
H435 H 0.45737 0.48841 0.19419 0.0
C436 C 0.4997 0.50172 0.18482 0.0
H437 H 0.58881 0.53529 0.20051 0.0
H438 H 0.58061 0.43812 0.3529 0.0
H439 H 0.66204 0.38025 0.33369 0.0
H440 H 0.68717 0.38941 0.27413 0.0
H441 H 0.63081 0.45626 0.23327 0.0
C442 C 0.54415 0.52525 0.20786 0.0
C443 C 0.53565 0.52741 0.24528 0.0
C444 C 0.56958 0.48867 0.26902 0.0
C445 C 0.55454 0.48288 0.30329 0.0
C446 C 0.58926 0.44368 0.3264 0.0
C447 C 0.63642 0.41037 0.31579 0.0
C448 C 0.65053 0.41548 0.28224 0.0
C449 C 0.61771 0.45405 0.25902 0.0
loop_
_geom_bond_atom_site_label_1
_geom_bond_atom_site_label_2
_geom_bond_distance
_geom_bond_site_symmetry_2
_ccdc_geom_bond_type
O0 Zn1 1.953 . S
O0 C16 1.225 1_565 S
Zn1 O0 1.953 . S
Zn1 O2 1.949 1_565 S
Zn1 O8 1.919 . S
Zn1 O13 1.924 1_565 S
O2 Zn1 1.949 1_545 S
O2 Zn3 1.923 1_444 S
O2 Zn4 1.950 1_455 S
O2 Zn5 1.945 1_554 S
Zn3 O2 1.923 1_666 S
Zn3 O6 1.933 . S
Zn3 O9 1.941 1_655 S
Zn3 O10 1.965 . S
Zn4 O2 1.950 1_655 S
Zn4 O11 1.938 1_545 S
Zn4 O12 1.906 . S
Zn4 O22 1.953 . S
Zn5 O2 1.945 1_556 S
Zn5 O7 1.932 . S
Zn5 O14 1.977 1_455 S
Zn5 O15 1.910 . S
O6 Zn3 1.933 . S
O6 C17 1.230 1_565 S
O7 Zn5 1.932 . S
O7 C17 1.305 1_455 S
O8 Zn1 1.919 . S
O8 C19 1.239 1_554 S
O9 Zn3 1.941 1_455 S
O9 C19 1.289 . S
O10 Zn3 1.965 . S
O10 C18 1.303 1_556 S
O11 Zn4 1.938 1_565 S
O11 C18 1.247 . S
O12 Zn4 1.906 . S
O12 C20 1.304 1_554 S
O13 Zn1 1.924 1_545 S
O13 C21 1.311 . S
O14 Zn5 1.977 1_655 S
O14 C20 1.272 . S
O15 Zn5 1.910 . S
O15 C21 1.231 1_556 S
C16 O0 1.225 1_545 S
C16 O22 1.298 1_455 S
C17 O6 1.230 1_545 S
C17 O7 1.305 1_655 S
C18 O10 1.303 1_554 S
C18 O11 1.247 . S
C19 O8 1.239 1_556 S
C19 O9 1.289 . S
C20 O12 1.304 1_556 S
C20 O14 1.272 . S
C21 O13 1.311 . S
C21 O15 1.231 1_554 S
O22 Zn4 1.953 . S
O22 C16 1.298 1_655 S
O23 Zn24 1.953 . S
O23 C39 1.225 . S
Zn24 O23 1.953 . S
Zn24 O25 1.949 . S
Zn24 O31 1.919 . S
Zn24 O36 1.924 . S
O25 Zn24 1.949 . S
O25 Zn26 1.923 . S
O25 Zn27 1.950 . S
O25 Zn28 1.945 . S
Zn26 O25 1.923 . S
Zn26 O29 1.933 . S
Zn26 O32 1.941 . S
Zn26 O33 1.965 . S
Zn27 O25 1.950 . S
Zn27 O34 1.938 . S
Zn27 O35 1.906 . S
Zn27 O45 1.953 . S
Zn28 O25 1.945 . S
Zn28 O30 1.932 . S
Zn28 O37 1.977 . S
Zn28 O38 1.910 . S
O29 Zn26 1.933 . S
O29 C40 1.226 . S
O30 Zn28 1.932 . S
O30 C40 1.307 . S
O31 Zn24 1.919 . S
O31 C42 1.253 . S
O32 Zn26 1.941 . S
O32 C42 1.283 . S
O33 Zn26 1.965 . S
O33 C41 1.303 . S
O34 Zn27 1.938 . S
O34 C41 1.247 . S
O35 Zn27 1.906 . S
O35 C43 1.304 . S
O36 Zn24 1.924 . S
O36 C44 1.311 . S
O37 Zn28 1.977 . S
O37 C43 1.272 . S
O38 Zn28 1.910 . S
O38 C44 1.231 . S
C39 O23 1.225 . S
C39 O45 1.298 . S
C40 O29 1.226 . S
C40 O30 1.307 . S
C41 O33 1.303 . S
C41 O34 1.247 . S
C42 O31 1.253 . S
C42 O32 1.283 . S
C43 O35 1.304 . S
C43 O37 1.272 . S
C44 O36 1.311 . S
C44 O38 1.231 . S
O45 Zn27 1.953 . S
O45 C39 1.298 . S
H46 C49 0.929 . S
H47 C52 0.929 . S
H48 C54 0.930 . S
C49 H46 0.929 . S
C49 C50 1.398 . S
C49 C51 1.400 . S
C50 C49 1.398 . S
C50 C54 1.407 . S
C51 C49 1.400 . S
C51 C52 1.391 1_465 S
C52 H47 0.929 . S
C52 C51 1.391 1_645 S
C52 C53 1.382 . S
C53 C52 1.382 . S
C53 C54 1.392 1_645 S
C53 N55 1.420 . S
C54 H48 0.930 . S
C54 C50 1.407 . S
C54 C53 1.392 1_465 S
N55 C53 1.420 . S
N55 C56 1.244 . S
C56 N55 1.244 . S
H57 C60 0.929 . S
H58 C63 0.929 . S
H59 C65 0.930 . S
C60 H57 0.929 . S
C60 C61 1.398 . S
C60 C62 1.396 1_565 S
C61 C60 1.398 . S
C61 C65 1.407 . S
C62 C60 1.396 1_545 S
C62 C63 1.394 1_655 S
C63 H58 0.929 . S
C63 C62 1.394 1_455 S
C63 C64 1.382 . S
C64 C63 1.382 . S
C64 C65 1.392 1_445 S
C64 N66 1.420 . S
C65 H59 0.930 . S
C65 C61 1.407 . S
C65 C64 1.392 1_665 S
N66 C64 1.420 . S
N66 C67 1.244 . S
C67 N66 1.244 . S
H68 C71 0.929 . S
H69 C74 0.929 . S
H70 C76 0.930 . S
C71 H68 0.929 . S
C71 C72 1.398 . S
C71 C73 1.396 . S
C72 C71 1.398 . S
C72 C76 1.407 . S
C73 C71 1.396 . S
C73 C74 1.394 . S
C74 H69 0.929 . S
C74 C73 1.394 . S
C74 C75 1.382 . S
C75 C74 1.382 . S
C75 C76 1.392 . S
C75 N77 1.420 . S
C76 H70 0.930 . S
C76 C72 1.407 . S
C76 C75 1.392 . S
N77 C75 1.420 . S
N77 C78 1.244 . S
C78 N77 1.244 . S
H79 C82 0.929 . S
H80 C85 0.929 . S
H81 C87 0.930 . S
C82 H79 0.929 . S
C82 C83 1.398 . S
C82 C84 1.396 . S
C83 C82 1.398 . S
C83 C87 1.407 . S
C84 C82 1.396 . S
C84 C85 1.394 . S
C85 H80 0.929 . S
C85 C84 1.394 . S
C85 C86 1.382 . S
C86 C85 1.382 . S
C86 C87 1.392 . S
C86 N88 1.420 . S
C87 H81 0.930 . S
C87 C83 1.407 . S
C87 C86 1.392 . S
N88 C86 1.420 . S
N88 C89 1.244 . S
C89 N88 1.244 . S
H90 C91 0.951 . S
C91 H90 0.951 . S
C91 C97 1.265 . S
H92 C97 0.950 . S
H93 C101 0.949 . S
H94 C102 0.950 . S
H95 C103 0.951 . S
H96 C104 0.951 . S
C97 C91 1.265 . S
C97 H92 0.950 . S
C97 C98 1.478 . S
C98 C97 1.478 . S
C98 C99 1.397 . S
C98 C115 1.394 . S
C99 C98 1.397 . S
C99 C100 1.438 . S
C99 C104 1.429 . S
C100 C99 1.438 . S
C100 C101 1.428 . S
C100 C113 1.394 . S
C101 H93 0.949 . S
C101 C100 1.428 . S
C101 C102 1.345 . S
C102 H94 0.950 . S
C102 C101 1.345 . S
C102 C103 1.424 . S
C103 H95 0.951 . S
C103 C102 1.424 . S
C103 C104 1.347 . S
C104 H96 0.951 . S
C104 C99 1.429 . S
C104 C103 1.347 . S
H105 C106 0.951 . S
C106 H105 0.951 . S
C106 C112 1.265 . S
H107 C112 0.950 . S
H108 C116 0.949 . S
H109 C117 0.950 . S
H110 C118 0.951 . S
H111 C119 0.951 . S
C112 C106 1.265 . S
C112 H107 0.950 . S
C112 C113 1.478 . S
C113 C100 1.394 . S
C113 C112 1.478 . S
C113 C114 1.397 . S
C114 C113 1.397 . S
C114 C115 1.438 . S
C114 C119 1.429 . S
C115 C98 1.394 . S
C115 C114 1.438 . S
C115 C116 1.428 . S
C116 H108 0.949 . S
C116 C115 1.428 . S
C116 C117 1.345 . S
C117 H109 0.950 . S
C117 C116 1.345 . S
C117 C118 1.424 . S
C118 H110 0.951 . S
C118 C117 1.424 . S
C118 C119 1.347 . S
C119 H111 0.951 . S
C119 C114 1.429 . S
C119 C118 1.347 . S
H120 C121 0.951 . S
C121 H120 0.951 . S
C121 C127 1.265 . S
H122 C127 0.950 1_554 S
H123 C131 0.949 . S
H124 C132 0.950 . S
H125 C133 0.951 . S
H126 C134 0.951 . S
C127 C121 1.265 . S
C127 H122 0.950 1_556 S
C127 C128 1.478 . S
C128 C127 1.478 . S
C128 C129 1.397 1_556 S
C128 C145 1.394 . S
C129 C128 1.397 1_554 S
C129 C130 1.438 1_554 S
C129 C134 1.429 . S
C130 C129 1.438 1_556 S
C130 C131 1.428 1_556 S
C130 C143 1.394 . S
C131 H123 0.949 . S
C131 C130 1.428 1_554 S
C131 C132 1.345 . S
C132 H124 0.950 . S
C132 C131 1.345 . S
C132 C133 1.424 . S
C133 H125 0.951 . S
C133 C132 1.424 . S
C133 C134 1.347 . S
C134 H126 0.951 . S
C134 C129 1.429 . S
C134 C133 1.347 . S
H135 C136 0.951 . S
C136 H135 0.951 . S
C136 C142 1.265 . S
H137 C142 0.950 . S
H138 C146 0.949 . S
H139 C147 0.950 . S
H140 C148 0.951 . S
H141 C149 0.951 . S
C142 C136 1.265 . S
C142 H137 0.950 . S
C142 C143 1.478 . S
C143 C130 1.394 . S
C143 C142 1.478 . S
C143 C144 1.397 . S
C144 C143 1.397 . S
C144 C145 1.438 . S
C144 C149 1.429 . S
C145 C128 1.394 . S
C145 C144 1.438 . S
C145 C146 1.428 . S
C146 H138 0.949 . S
C146 C145 1.428 . S
C146 C147 1.345 . S
C147 H139 0.950 . S
C147 C146 1.345 . S
C147 C148 1.424 . S
C148 H140 0.951 . S
C148 C147 1.424 . S
C148 C149 1.347 . S
C149 H141 0.951 . S
C149 C144 1.429 . S
C149 C148 1.347 . S
H150 C151 0.951 1_556 S
C151 H150 0.951 1_554 S
C151 C157 1.265 . S
H152 C157 0.950 . S
H153 C161 0.949 . S
H154 C162 0.950 . S
H155 C163 0.951 . S
H156 C164 0.951 . S
C157 C151 1.265 . S
C157 H152 0.950 . S
C157 C158 1.478 . S
C158 C157 1.478 . S
C158 C159 1.397 . S
C158 C175 1.394 . S
C159 C158 1.397 . S
C159 C160 1.438 . S
C159 C164 1.429 . S
C160 C159 1.438 . S
C160 C161 1.428 . S
C160 C173 1.394 . S
C161 H153 0.949 . S
C161 C160 1.428 . S
C161 C162 1.345 . S
C162 H154 0.950 . S
C162 C161 1.345 . S
C162 C163 1.424 . S
C163 H155 0.951 . S
C163 C162 1.424 . S
C163 C164 1.347 . S
C164 H156 0.951 . S
C164 C159 1.429 . S
C164 C163 1.347 . S
H165 C166 0.951 . S
C166 H165 0.951 . S
C166 C172 1.265 . S
H167 C172 0.950 . S
H168 C176 0.949 . S
H169 C177 0.950 . S
H170 C178 0.951 . S
H171 C179 0.951 . S
C172 C166 1.265 . S
C172 H167 0.950 . S
C172 C173 1.478 . S
C173 C160 1.394 . S
C173 C172 1.478 . S
C173 C174 1.397 . S
C174 C173 1.397 . S
C174 C175 1.438 . S
C174 C179 1.429 . S
C175 C158 1.394 . S
C175 C174 1.438 . S
C175 C176 1.428 . S
C176 H168 0.949 . S
C176 C175 1.428 . S
C176 C177 1.345 . S
C177 H169 0.950 . S
C177 C176 1.345 . S
C177 C178 1.424 . S
C178 H170 0.951 . S
C178 C177 1.424 . S
C178 C179 1.347 . S
C179 H171 0.951 . S
C179 C174 1.429 . S
C179 C178 1.347 . S
H180 C181 0.951 . S
C181 H180 0.951 . S
C181 C187 1.265 . S
H182 C187 0.950 . S
H183 C191 0.949 . S
H184 C192 0.950 . S
H185 C193 0.951 . S
H186 C194 0.951 . S
C187 C181 1.265 . S
C187 H182 0.950 . S
C187 C188 1.478 . S
C188 C187 1.478 . S
C188 C189 1.397 . S
C188 C205 1.394 . S
C189 C188 1.397 . S
C189 C190 1.438 . S
C189 C194 1.429 1_556 S
C190 C189 1.438 . S
C190 C191 1.428 . S
C190 C203 1.394 . S
C191 H183 0.949 . S
C191 C190 1.428 . S
C191 C192 1.345 1_556 S
C192 H184 0.950 . S
C192 C191 1.345 1_554 S
C192 C193 1.424 . S
C193 H185 0.951 . S
C193 C192 1.424 . S
C193 C194 1.347 . S
C194 H186 0.951 . S
C194 C189 1.429 1_554 S
C194 C193 1.347 . S
H195 C196 0.951 . S
C196 H195 0.951 . S
C196 C202 1.265 . S
H197 C202 0.950 . S
H198 C206 0.949 . S
H199 C207 0.950 . S
H200 C208 0.951 . S
H201 C209 0.951 . S
C202 C196 1.265 . S
C202 H197 0.950 . S
C202 C203 1.478 . S
C203 C190 1.394 . S
C203 C202 1.478 . S
C203 C204 1.397 . S
C204 C203 1.397 . S
C204 C205 1.438 . S
C204 C209 1.429 . S
C205 C188 1.394 . S
C205 C204 1.438 . S
C205 C206 1.428 . S
C206 H198 0.949 . S
C206 C205 1.428 . S
C206 C207 1.345 . S
C207 H199 0.950 . S
C207 C206 1.345 . S
C207 C208 1.424 . S
C208 H200 0.951 . S
C208 C207 1.424 . S
C208 C209 1.347 . S
C209 H201 0.951 . S
C209 C204 1.429 . S
C209 C208 1.347 . S
H210 C211 0.951 . S
C211 H210 0.951 . S
C211 C217 1.265 . S
H212 C217 0.950 . S
H213 C221 0.949 . S
H214 C222 0.950 . S
H215 C223 0.951 . S
H216 C224 0.951 . S
C217 C211 1.265 . S
C217 H212 0.950 . S
C217 C218 1.478 . S
C218 C217 1.478 . S
C218 C219 1.397 . S
C218 C235 1.394 . S
C219 C218 1.397 . S
C219 C220 1.438 . S
C219 C224 1.429 . S
C220 C219 1.438 . S
C220 C221 1.428 . S
C220 C233 1.394 . S
C221 H213 0.949 . S
C221 C220 1.428 . S
C221 C222 1.345 . S
C222 H214 0.950 . S
C222 C221 1.345 . S
C222 C223 1.424 . S
C223 H215 0.951 . S
C223 C222 1.424 . S
C223 C224 1.347 . S
C224 H216 0.951 . S
C224 C219 1.429 . S
C224 C223 1.347 . S
H225 C226 0.951 . S
C226 H225 0.951 . S
C226 C232 1.265 . S
H227 C232 0.950 . S
H228 C236 0.949 . S
H229 C237 0.950 . S
H230 C238 0.951 . S
H231 C239 0.951 . S
C232 C226 1.265 . S
C232 H227 0.950 . S
C232 C233 1.478 . S
C233 C220 1.394 . S
C233 C232 1.478 . S
C233 C234 1.397 . S
C234 C233 1.397 . S
C234 C235 1.438 . S
C234 C239 1.429 . S
C235 C218 1.394 . S
C235 C234 1.438 . S
C235 C236 1.428 . S
C236 H228 0.949 . S
C236 C235 1.428 . S
C236 C237 1.345 . S
C237 H229 0.950 . S
C237 C236 1.345 . S
C237 C238 1.424 . S
C238 H230 0.951 . S
C238 C237 1.424 . S
C238 C239 1.347 . S
C239 H231 0.951 . S
C239 C234 1.429 . S
C239 C238 1.347 . S
H240 C241 0.951 . S
C241 H240 0.951 . S
C241 C247 1.265 . S
H242 C247 0.950 . S
H243 C251 0.949 . S
H244 C252 0.950 . S
H245 C253 0.951 . S
H246 C254 0.951 . S
C247 C241 1.265 . S
C247 H242 0.950 . S
C247 C248 1.478 . S
C248 C247 1.478 . S
C248 C249 1.397 . S
C248 C265 1.394 . S
C249 C248 1.397 . S
C249 C250 1.438 . S
C249 C254 1.429 . S
C250 C249 1.438 . S
C250 C251 1.428 . S
C250 C263 1.394 . S
C251 H243 0.949 . S
C251 C250 1.428 . S
C251 C252 1.345 . S
C252 H244 0.950 . S
C252 C251 1.345 . S
C252 C253 1.424 . S
C253 H245 0.951 . S
C253 C252 1.424 . S
C253 C254 1.347 . S
C254 H246 0.951 . S
C254 C249 1.429 . S
C254 C253 1.347 . S
H255 C256 0.951 . S
C256 H255 0.951 . S
C256 C262 1.265 . S
H257 C262 0.950 . S
H258 C266 0.949 . S
H259 C267 0.950 . S
H260 C268 0.951 . S
H261 C269 0.951 . S
C262 C256 1.265 . S
C262 H257 0.950 . S
C262 C263 1.478 . S
C263 C250 1.394 . S
C263 C262 1.478 . S
C263 C264 1.397 . S
C264 C263 1.397 . S
C264 C265 1.438 . S
C264 C269 1.429 . S
C265 C248 1.394 . S
C265 C264 1.438 . S
C265 C266 1.428 . S
C266 H258 0.949 . S
C266 C265 1.428 . S
C266 C267 1.345 . S
C267 H259 0.950 . S
C267 C266 1.345 . S
C267 C268 1.424 . S
C268 H260 0.951 . S
C268 C267 1.424 . S
C268 C269 1.347 . S
C269 H261 0.951 . S
C269 C264 1.429 . S
C269 C268 1.347 . S
H270 C271 0.951 . S
C271 H270 0.951 . S
C271 C277 1.265 . S
H272 C277 0.950 . S
H273 C281 0.949 . S
H274 C282 0.950 . S
H275 C283 0.951 . S
H276 C284 0.951 . S
C277 C271 1.265 . S
C277 H272 0.950 . S
C277 C278 1.478 . S
C278 C277 1.478 . S
C278 C279 1.397 . S
C278 C295 1.394 . S
C279 C278 1.397 . S
C279 C280 1.438 . S
C279 C284 1.429 . S
C280 C279 1.438 . S
C280 C281 1.428 . S
C280 C293 1.394 . S
C281 H273 0.949 . S
C281 C280 1.428 . S
C281 C282 1.345 . S
C282 H274 0.950 . S
C282 C281 1.345 . S
C282 C283 1.424 . S
C283 H275 0.951 . S
C283 C282 1.424 . S
C283 C284 1.347 . S
C284 H276 0.951 . S
C284 C279 1.429 . S
C284 C283 1.347 . S
H285 C286 0.951 . S
C286 H285 0.951 . S
C286 C292 1.265 . S
H287 C292 0.950 . S
H288 C296 0.949 . S
H289 C297 0.950 . S
H290 C298 0.951 . S
H291 C299 0.951 . S
C292 C286 1.265 . S
C292 H287 0.950 . S
C292 C293 1.478 . S
C293 C280 1.394 . S
C293 C292 1.478 . S
C293 C294 1.397 . S
C294 C293 1.397 . S
C294 C295 1.438 . S
C294 C299 1.429 . S
C295 C278 1.394 . S
C295 C294 1.438 . S
C295 C296 1.428 . S
C296 H288 0.949 . S
C296 C295 1.428 . S
C296 C297 1.345 . S
C297 H289 0.950 . S
C297 C296 1.345 . S
C297 C298 1.424 . S
C298 H290 0.951 . S
C298 C297 1.424 . S
C298 C299 1.347 . S
C299 H291 0.951 . S
C299 C294 1.429 . S
C299 C298 1.347 . S
H300 C301 0.951 . S
C301 H300 0.951 . S
C301 C307 1.265 . S
H302 C307 0.950 . S
H303 C311 0.949 . S
H304 C312 0.950 . S
H305 C313 0.951 . S
H306 C314 0.951 . S
C307 C301 1.265 . S
C307 H302 0.950 . S
C307 C308 1.478 . S
C308 C307 1.478 . S
C308 C309 1.397 . S
C308 C325 1.394 . S
C309 C308 1.397 . S
C309 C310 1.438 . S
C309 C314 1.429 . S
C310 C309 1.438 . S
C310 C311 1.428 . S
C310 C323 1.394 . S
C311 H303 0.949 . S
C311 C310 1.428 . S
C311 C312 1.345 . S
C312 H304 0.950 . S
C312 C311 1.345 . S
C312 C313 1.424 . S
C313 H305 0.951 . S
C313 C312 1.424 . S
C313 C314 1.347 . S
C314 H306 0.951 . S
C314 C309 1.429 . S
C314 C313 1.347 . S
H315 C316 0.951 . S
C316 H315 0.951 . S
C316 C322 1.265 . S
H317 C322 0.950 . S
H318 C326 0.949 . S
H319 C327 0.950 . S
H320 C328 0.951 . S
H321 C329 0.951 . S
C322 C316 1.265 . S
C322 H317 0.950 . S
C322 C323 1.478 . S
C323 C310 1.394 . S
C323 C322 1.478 . S
C323 C324 1.397 . S
C324 C323 1.397 . S
C324 C325 1.438 . S
C324 C329 1.429 . S
C325 C308 1.394 . S
C325 C324 1.438 . S
C325 C326 1.428 . S
C326 H318 0.949 . S
C326 C325 1.428 . S
C326 C327 1.345 . S
C327 H319 0.950 . S
C327 C326 1.345 . S
C327 C328 1.424 . S
C328 H320 0.951 . S
C328 C327 1.424 . S
C328 C329 1.347 . S
C329 H321 0.951 . S
C329 C324 1.429 . S
C329 C328 1.347 . S
H330 C331 0.951 . S
C331 H330 0.951 . S
C331 C337 1.265 1_455 S
H332 C337 0.950 1_565 S
H333 C341 0.949 1_455 S
H334 C342 0.950 . S
H335 C343 0.951 . S
H336 C344 0.951 . S
C337 C331 1.265 1_655 S
C337 H332 0.950 1_545 S
C337 C338 1.478 1_655 S
C338 C337 1.478 1_455 S
C338 C339 1.397 1_445 S
C338 C355 1.394 . S
C339 C338 1.397 1_665 S
C339 C340 1.438 1_655 S
C339 C344 1.429 . S
C340 C339 1.438 1_455 S
C340 C341 1.428 1_455 S
C340 C353 1.394 1_565 S
C341 H333 0.949 1_655 S
C341 C340 1.428 1_655 S
C341 C342 1.345 . S
C342 H334 0.950 . S
C342 C341 1.345 . S
C342 C343 1.424 . S
C343 H335 0.951 . S
C343 C342 1.424 . S
C343 C344 1.347 . S
C344 H336 0.951 . S
C344 C339 1.429 . S
C344 C343 1.347 . S
H345 C346 0.951 1_665 S
C346 H345 0.951 1_445 S
C346 C352 1.265 . S
H347 C352 0.950 . S
H348 C356 0.949 . S
H349 C357 0.950 . S
H350 C358 0.951 . S
H351 C359 0.951 . S
C352 C346 1.265 . S
C352 H347 0.950 . S
C352 C353 1.478 . S
C353 C340 1.394 1_545 S
C353 C352 1.478 . S
C353 C354 1.397 . S
C354 C353 1.397 . S
C354 C355 1.438 . S
C354 C359 1.429 . S
C355 C338 1.394 . S
C355 C354 1.438 . S
C355 C356 1.428 . S
C356 H348 0.949 . S
C356 C355 1.428 . S
C356 C357 1.345 . S
C357 H349 0.950 . S
C357 C356 1.345 . S
C357 C358 1.424 . S
C358 H350 0.951 . S
C358 C357 1.424 . S
C358 C359 1.347 . S
C359 H351 0.951 . S
C359 C354 1.429 . S
C359 C358 1.347 . S
H360 C361 0.951 . S
C361 H360 0.951 . S
C361 C367 1.265 1_645 S
H362 C367 0.950 . S
H363 C371 0.949 . S
H364 C372 0.950 . S
H365 C373 0.951 . S
H366 C374 0.951 . S
C367 C361 1.265 1_465 S
C367 H362 0.950 . S
C367 C368 1.478 1_565 S
C368 C367 1.478 1_545 S
C368 C369 1.397 1_545 S
C368 C385 1.394 . S
C369 C368 1.397 1_565 S
C369 C370 1.438 1_455 S
C369 C374 1.429 . S
C370 C369 1.438 1_655 S
C370 C371 1.428 . S
C370 C383 1.394 1_565 S
C371 H363 0.949 . S
C371 C370 1.428 . S
C371 C372 1.345 . S
C372 H364 0.950 . S
C372 C371 1.345 . S
C372 C373 1.424 1_655 S
C373 H365 0.951 . S
C373 C372 1.424 1_455 S
C373 C374 1.347 . S
C374 H366 0.951 . S
C374 C369 1.429 . S
C374 C373 1.347 . S
H375 C376 0.951 1_565 S
C376 H375 0.951 1_545 S
C376 C382 1.265 1_455 S
H377 C382 0.950 . S
H378 C386 0.949 . S
H379 C387 0.950 . S
H380 C388 0.951 . S
H381 C389 0.951 . S
C382 C376 1.265 1_655 S
C382 H377 0.950 . S
C382 C383 1.478 . S
C383 C370 1.394 1_545 S
C383 C382 1.478 . S
C383 C384 1.397 . S
C384 C383 1.397 . S
C384 C385 1.438 1_655 S
C384 C389 1.429 . S
C385 C368 1.394 . S
C385 C384 1.438 1_455 S
C385 C386 1.428 . S
C386 H378 0.949 . S
C386 C385 1.428 . S
C386 C387 1.345 . S
C387 H379 0.950 . S
C387 C386 1.345 . S
C387 C388 1.424 1_455 S
C388 H380 0.951 . S
C388 C387 1.424 1_655 S
C388 C389 1.347 . S
C389 H381 0.951 . S
C389 C384 1.429 . S
C389 C388 1.347 . S
H390 C391 0.951 . S
C391 H390 0.951 . S
C391 C397 1.265 . S
H392 C397 0.950 . S
H393 C401 0.949 . S
H394 C402 0.950 . S
H395 C403 0.951 . S
H396 C404 0.951 . S
C397 C391 1.265 . S
C397 H392 0.950 . S
C397 C398 1.478 . S
C398 C397 1.478 . S
C398 C399 1.397 . S
C398 C415 1.394 . S
C399 C398 1.397 . S
C399 C400 1.438 . S
C399 C404 1.429 . S
C400 C399 1.438 . S
C400 C401 1.428 . S
C400 C413 1.394 . S
C401 H393 0.949 . S
C401 C400 1.428 . S
C401 C402 1.345 . S
C402 H394 0.950 . S
C402 C401 1.345 . S
C402 C403 1.424 . S
C403 H395 0.951 . S
C403 C402 1.424 . S
C403 C404 1.347 . S
C404 H396 0.951 . S
C404 C399 1.429 . S
C404 C403 1.347 . S
H405 C406 0.951 . S
C406 H405 0.951 . S
C406 C412 1.265 . S
H407 C412 0.950 . S
H408 C416 0.949 . S
H409 C417 0.950 . S
H410 C418 0.951 . S
H411 C419 0.951 . S
C412 C406 1.265 . S
C412 H407 0.950 . S
C412 C413 1.478 . S
C413 C400 1.394 . S
C413 C412 1.478 . S
C413 C414 1.397 . S
C414 C413 1.397 . S
C414 C415 1.438 . S
C414 C419 1.429 . S
C415 C398 1.394 . S
C415 C414 1.438 . S
C415 C416 1.428 . S
C416 H408 0.949 . S
C416 C415 1.428 . S
C416 C417 1.345 . S
C417 H409 0.950 . S
C417 C416 1.345 . S
C417 C418 1.424 . S
C418 H410 0.951 . S
C418 C417 1.424 . S
C418 C419 1.347 . S
C419 H411 0.951 . S
C419 C414 1.429 . S
C419 C418 1.347 . S
H420 C421 0.951 . S
C421 H420 0.951 . S
C421 C427 1.265 . S
H422 C427 0.950 . S
H423 C431 0.949 . S
H424 C432 0.950 . S
H425 C433 0.951 . S
H426 C434 0.951 . S
C427 C421 1.265 . S
C427 H422 0.950 . S
C427 C428 1.478 . S
C428 C427 1.478 . S
C428 C429 1.397 . S
C428 C445 1.394 . S
C429 C428 1.397 . S
C429 C430 1.438 . S
C429 C434 1.429 . S
C430 C429 1.438 . S
C430 C431 1.428 . S
C430 C443 1.394 . S
C431 H423 0.949 . S
C431 C430 1.428 . S
C431 C432 1.345 . S
C432 H424 0.950 . S
C432 C431 1.345 . S
C432 C433 1.424 . S
C433 H425 0.951 . S
C433 C432 1.424 . S
C433 C434 1.347 . S
C434 H426 0.951 . S
C434 C429 1.429 . S
C434 C433 1.347 . S
H435 C436 0.951 . S
C436 H435 0.951 . S
C436 C442 1.265 . S
H437 C442 0.950 . S
H438 C446 0.949 . S
H439 C447 0.950 . S
H440 C448 0.951 . S
H441 C449 0.951 . S
C442 C436 1.265 . S
C442 H437 0.950 . S
C442 C443 1.478 . S
C443 C430 1.394 . S
C443 C442 1.478 . S
C443 C444 1.397 . S
C444 C443 1.397 . S
C444 C445 1.438 . S
C444 C449 1.429 . S
C445 C428 1.394 . S
C445 C444 1.438 . S
C445 C446 1.428 . S
C446 H438 0.949 . S
C446 C445 1.428 . S
C446 C447 1.345 . S
C447 H439 0.950 . S
C447 C446 1.345 . S
C447 C448 1.424 . S
C448 H440 0.951 . S
C448 C447 1.424 . S
C448 C449 1.347 . S
C449 H441 0.951 . S
C449 C444 1.429 . S
C449 C448 1.347 . S
C106 C83 1.488 . S
C91 C21 1.500 . S
C121 C19 1.408 . S
C136 C78 1.402 . S
C151 C18 1.366 . S
C166 C89 1.328 . S
C181 C20 1.471 . S
C196 C72 1.490 . S
C211 C44 1.516 . S
C226 C61 1.502 . S
C241 C42 1.399 . S
C256 C56 1.402 . S
C286 C67 1.356 . S
C271 C41 1.395 . S
C316 C50 1.498 . S
C301 C43 1.510 . S
C331 C16 1.522 . S
C346 C51 1.520 1_545 S
C361 C17 1.480 . S
C376 C62 1.478 1_455 S
C406 C73 1.503 . S
C391 C39 1.514 . S
C421 C40 1.482 . S
C436 C84 1.467 . S
