# Generated by pormake.
# Topology pyr, (3,6)-cn, num edge types: 1
# Building blocks:
#     Node 0, Type 0, BuildingBlock: CUQRIR_clean_linker_1, # of connection points: 3
#     Node 1, Type 0, BuildingBlock: CUQRIR_clean_linker_1, # of connection points: 3
#     Node 2, Type 0, BuildingBlock: CUQRIR_clean_linker_1, # of connection points: 3
#     Node 3, Type 0, BuildingBlock: CUQRIR_clean_linker_1, # of connection points: 3
#     Node 4, Type 0, BuildingBlock: CUQRIR_clean_linker_1, # of connection points: 3
#     Node 5, Type 0, BuildingBlock: CUQRIR_clean_linker_1, # of connection points: 3
#     Node 6, Type 0, BuildingBlock: CUQRIR_clean_linker_1, # of connection points: 3
#     Node 7, Type 0, BuildingBlock: CUQRIR_clean_linker_1, # of connection points: 3
#     Node 8, Type 1, BuildingBlock: PAMTOO_clean_sbu_0, # of connection points: 6
#     Node 9, Type 1, BuildingBlock: PAMTOO_clean_sbu_0, # of connection points: 6
#     Node 10, Type 1, BuildingBlock: PAMTOO_clean_sbu_0, # of connection points: 6
#     Node 11, Type 1, BuildingBlock: PAMTOO_clean_sbu_0, # of connection points: 6
#     Edge 12, Type (0, 1), BuildingBlock: XIVTED_clean_linker_0, # of connection points: 2
#     Edge 13, Type (0, 1), BuildingBlock: XIVTED_clean_linker_0, # of connection points: 2
#     Edge 14, Type (0, 1), BuildingBlock: XIVTED_clean_linker_0, # of connection points: 2
#     Edge 15, Type (0, 1), BuildingBlock: XIVTED_clean_linker_0, # of connection points: 2
#     Edge 16, Type (0, 1), BuildingBlock: XIVTED_clean_linker_0, # of connection points: 2
#     Edge 17, Type (0, 1), BuildingBlock: XIVTED_clean_linker_0, # of connection points: 2
#     Edge 18, Type (0, 1), BuildingBlock: XIVTED_clean_linker_0, # of connection points: 2
#     Edge 19, Type (0, 1), BuildingBlock: XIVTED_clean_linker_0, # of connection points: 2
#     Edge 20, Type (0, 1), BuildingBlock: XIVTED_clean_linker_0, # of connection points: 2
#     Edge 21, Type (0, 1), BuildingBlock: XIVTED_clean_linker_0, # of connection points: 2
#     Edge 22, Type (0, 1), BuildingBlock: XIVTED_clean_linker_0, # of connection points: 2
#     Edge 23, Type (0, 1), BuildingBlock: XIVTED_clean_linker_0, # of connection points: 2
#     Edge 24, Type (0, 1), BuildingBlock: XIVTED_clean_linker_0, # of connection points: 2
#     Edge 25, Type (0, 1), BuildingBlock: XIVTED_clean_linker_0, # of connection points: 2
#     Edge 26, Type (0, 1), BuildingBlock: XIVTED_clean_linker_0, # of connection points: 2
#     Edge 27, Type (0, 1), BuildingBlock: XIVTED_clean_linker_0, # of connection points: 2
#     Edge 28, Type (0, 1), BuildingBlock: XIVTED_clean_linker_0, # of connection points: 2
#     Edge 29, Type (0, 1), BuildingBlock: XIVTED_clean_linker_0, # of connection points: 2
#     Edge 30, Type (0, 1), BuildingBlock: XIVTED_clean_linker_0, # of connection points: 2
#     Edge 31, Type (0, 1), BuildingBlock: XIVTED_clean_linker_0, # of connection points: 2
#     Edge 32, Type (0, 1), BuildingBlock: XIVTED_clean_linker_0, # of connection points: 2
#     Edge 33, Type (0, 1), BuildingBlock: XIVTED_clean_linker_0, # of connection points: 2
#     Edge 34, Type (0, 1), BuildingBlock: XIVTED_clean_linker_0, # of connection points: 2
#     Edge 35, Type (0, 1), BuildingBlock: XIVTED_clean_linker_0, # of connection points: 2
# Relax obj value: 0.192
# Max RMSD: 0.276
# Mean RMSD: 0.167
data_MOF--net-pyr--node1-PAMTOO_clean_sbu_0--node2-CUQRIR_clean_linker_1--edge1-XIVTED_clean_linker_0
_symmetry_space_group_name_H-M    P1
_symmetry_Int_Tables_number       1
_symmetry_cell_setting            triclinic
loop_
_symmetry_equiv_pos_as_xyz
'x, y, z'
_cell_length_a     34.431653
_cell_length_b     36.64225
_cell_length_c     35.884974
_cell_angle_alpha  88.972891
_cell_angle_beta   90.716301
_cell_angle_gamma 107.67527
loop_
_atom_site_label
_atom_site_type_symbol
_atom_site_fract_x
_atom_site_fract_y
_atom_site_fract_z
_atom_type_partial_charge
C0 C 0.35814 0.35357 0.22974 0.0
N1 N 0.38291 0.33114 0.23287 0.0
N2 N 0.35733 0.3665 0.19418 0.0
C3 C 0.32917 0.35682 0.2599 0.0
C4 C 0.38239 0.35086 0.17582 0.0
N5 N 0.39784 0.32925 0.1992 0.0
C6 C 0.39013 0.35535 0.13462 0.0
H7 H 0.30534 0.36917 0.2497 0.0
H8 H 0.34683 0.37522 0.28233 0.0
H9 H 0.31386 0.3282 0.27237 0.0
H10 H 0.38797 0.38347 0.12448 0.0
H11 H 0.36674 0.33254 0.11971 0.0
H12 H 0.42062 0.35283 0.12808 0.0
C13 C 0.15315 0.79582 0.71683 0.0
N14 N 0.14657 0.82382 0.73749 0.0
N15 N 0.17318 0.77544 0.73681 0.0
C16 C 0.14494 0.79147 0.67561 0.0
C17 C 0.17725 0.79142 0.77095 0.0
N18 N 0.1614 0.82102 0.77136 0.0
C19 C 0.20475 0.78379 0.80111 0.0
H20 H 0.14097 0.76151 0.66728 0.0
H21 H 0.17122 0.81058 0.66015 0.0
H22 H 0.11733 0.7996 0.6679 0.0
H23 H 0.23582 0.80412 0.79754 0.0
H24 H 0.20657 0.75416 0.79956 0.0
H25 H 0.19362 0.78811 0.82905 0.0
C26 C 0.60583 0.37074 0.86291 0.0
N27 N 0.62969 0.36651 0.89231 0.0
N28 N 0.6234 0.40389 0.84364 0.0
C29 C 0.56497 0.34288 0.85351 0.0
C30 C 0.65895 0.4195 0.86228 0.0
N31 N 0.66301 0.39682 0.89156 0.0
C32 C 0.68866 0.458 0.85264 0.0
H33 H 0.55664 0.34515 0.82387 0.0
H34 H 0.54134 0.34926 0.8707 0.0
H35 H 0.56476 0.31307 0.85985 0.0
H36 H 0.679 0.48053 0.86665 0.0
H37 H 0.68875 0.46354 0.82214 0.0
H38 H 0.72008 0.46054 0.86198 0.0
C39 C 0.84436 0.6885 0.35151 0.0
N40 N 0.88026 0.71532 0.34229 0.0
N41 N 0.82557 0.70035 0.37983 0.0
C42 C 0.82683 0.65105 0.33186 0.0
C43 C 0.85123 0.73549 0.38771 0.0
N44 N 0.88446 0.74501 0.36515 0.0
C45 C 0.844 0.76031 0.41839 0.0
H46 H 0.8338 0.65432 0.30166 0.0
H47 H 0.79332 0.63986 0.33543 0.0
H48 H 0.84083 0.62982 0.34378 0.0
H49 H 0.82601 0.74259 0.44129 0.0
H50 H 0.82667 0.77898 0.40672 0.0
H51 H 0.87276 0.77904 0.43038 0.0
C52 C 0.63712 0.79351 0.921 0.0
N53 N 0.6648 0.7866 0.89794 0.0
N54 N 0.6187 0.81763 0.90479 0.0
C55 C 0.63001 0.77924 0.96065 0.0
C56 C 0.6355 0.82425 0.87043 0.0
N57 N 0.6634 0.80541 0.86621 0.0
C58 C 0.63115 0.85539 0.84428 0.0
H59 H 0.5978 0.77502 0.96833 0.0
H60 H 0.64961 0.80088 0.97961 0.0
H61 H 0.63737 0.75195 0.96452 0.0
H62 H 0.65679 0.88183 0.84919 0.0
H63 H 0.60204 0.86166 0.84884 0.0
H64 H 0.63243 0.84701 0.81489 0.0
C65 C 0.87268 0.3367 0.45286 0.0
N66 N 0.8889 0.3173 0.42889 0.0
N67 N 0.84973 0.3554 0.43447 0.0
C68 C 0.87605 0.3349 0.4946 0.0
C69 C 0.85279 0.34682 0.39829 0.0
N70 N 0.87649 0.32357 0.39479 0.0
C71 C 0.82607 0.35465 0.36746 0.0
H72 H 0.84979 0.31161 0.50563 0.0
H73 H 0.875 0.36222 0.50677 0.0
H74 H 0.90469 0.32909 0.50325 0.0
H75 H 0.80883 0.37407 0.37626 0.0
H76 H 0.80422 0.32721 0.35826 0.0
H77 H 0.84508 0.36795 0.3432 0.0
C78 C 0.34082 0.68775 0.27111 0.0
N79 N 0.3761 0.71422 0.28181 0.0
N80 N 0.32219 0.70166 0.24324 0.0
C81 C 0.32388 0.64863 0.28875 0.0
C82 C 0.3473 0.73762 0.23728 0.0
N83 N 0.38002 0.74555 0.26068 0.0
C84 C 0.34028 0.76467 0.20758 0.0
H85 H 0.33818 0.62876 0.27559 0.0
H86 H 0.29038 0.6374 0.28474 0.0
H87 H 0.33103 0.64936 0.31901 0.0
H88 H 0.32335 0.74866 0.18347 0.0
H89 H 0.36917 0.78492 0.19737 0.0
H90 H 0.32191 0.78172 0.21954 0.0
C91 C 0.10662 0.36919 0.76697 0.0
N92 N 0.12934 0.36501 0.7371 0.0
N93 N 0.12204 0.40435 0.78296 0.0
C94 C 0.07189 0.33745 0.78296 0.0
C95 C 0.15511 0.42129 0.76139 0.0
N96 N 0.1601 0.39754 0.73425 0.0
C97 C 0.18051 0.46264 0.76433 0.0
H98 H 0.04282 0.33926 0.77062 0.0
H99 H 0.07048 0.34003 0.81363 0.0
H100 H 0.07511 0.30901 0.77654 0.0
H101 H 0.20685 0.46473 0.78317 0.0
H102 H 0.1624 0.48027 0.77563 0.0
H103 H 0.19246 0.47454 0.73666 0.0
Dy104 Dy 0.07328 0.06892 0.5162 0.0
Dy105 Dy 0.98638 0.04426 0.55833 0.0
C106 C 0.05576 0.12449 0.5793 0.0
O107 O 0.0739 1.02107 0.55534 0.0
O108 O 0.02743 1.02656 0.59811 0.0
O109 O 0.13902 0.0825 0.51708 0.0
O110 O 0.10565 0.07463 0.46455 0.0
O111 O 0.98986 0.99065 0.5295 0.0
O112 O 0.02974 1.02232 0.48201 0.0
O113 O 0.97854 0.07411 0.50538 0.0
O114 O 0.04387 0.11276 0.49774 0.0
O115 O 0.92205 1.01299 0.55743 0.0
O116 O 0.9484 0.04914 0.60408 0.0
C117 C 0.05781 1.01431 0.58866 0.0
O118 O 0.08344 0.11244 0.56244 0.0
O119 O 0.01658 0.10547 0.57622 0.0
C120 C 0.17512 0.11246 0.46244 0.0
C121 C 0.2441 0.15957 0.42495 0.0
C122 C 0.24296 0.15882 0.46408 0.0
C123 C 0.2088 0.13515 0.48274 0.0
C124 C 0.17596 0.11436 0.42337 0.0
C125 C 0.20994 0.13771 0.40487 0.0
C126 C 0.14133 0.08316 0.48078 0.0
C127 C 1.00411 0.99067 0.4956 0.0
C128 C 1.00455 0.10569 0.49237 0.0
C129 C 0.89405 0.99394 0.61765 0.0
C130 C 0.85276 0.9391 0.6711 0.0
C131 C 0.86551 0.92739 0.63752 0.0
C132 C 0.88627 0.95463 0.61104 0.0
C133 C 0.88087 1.00549 0.65097 0.0
C134 C 0.8606 0.9784 0.67749 0.0
C135 C 0.91629 1.02364 0.59088 0.0
H136 H 0.26891 0.17553 0.48014 0.0
H137 H 0.20924 0.13388 0.51291 0.0
H138 H 0.15073 0.09691 0.40695 0.0
H139 H 0.20962 0.13838 0.37467 0.0
H140 H 0.85986 0.89725 0.63199 0.0
H141 H 0.89629 0.94494 0.58559 0.0
H142 H 0.88638 0.03562 0.65656 0.0
H143 H 0.85047 0.98823 0.70283 0.0
Dy144 Dy 0.47801 0.05262 0.08037 0.0
Dy145 Dy 0.56876 0.07211 0.11866 0.0
C146 C 0.49727 0.99669 0.14204 0.0
O147 O 0.47811 0.08135 0.13464 0.0
O148 O 0.54419 0.11894 0.13615 0.0
O149 O 0.41282 1.02448 0.08391 0.0
O150 O 0.43781 0.06476 0.03902 0.0
O151 O 0.57864 0.11333 0.06985 0.0
O152 O 0.51224 0.11229 0.06049 0.0
O153 O 0.56142 1.02242 0.0815 0.0
O154 O 0.51201 1.0282 0.04023 0.0
O155 O 0.63259 0.07672 0.11379 0.0
O156 O 0.60682 0.08162 0.1678 0.0
C157 C 0.50573 0.11328 0.14408 0.0
O158 O 0.47991 0.99808 0.10939 0.0
O159 O 0.52562 1.02687 0.1546 0.0
C160 C 0.37667 1.01642 1.02643 0.0
C161 C 0.32205 0.97836 0.97051 0.0
C162 C 0.30792 0.99385 1.0012 0.0
C163 C 0.33509 1.01284 1.02887 0.0
C164 C 0.39073 0.99977 0.99662 0.0
C165 C 0.36363 0.98095 0.96882 0.0
C166 C 0.40519 0.04063 0.05318 0.0
C167 C 0.55154 0.12797 0.05467 0.0
C168 C 0.54198 1.01457 0.04952 0.0
C169 C 0.67735 0.11224 0.15972 0.0
C170 C 0.74804 0.16366 0.19023 0.0
C171 C 0.71292 0.17502 0.18387 0.0
C172 C 0.67773 0.14942 0.16872 0.0
C173 C 0.71306 0.10175 0.16365 0.0
C174 C 0.74818 0.12725 0.17876 0.0
C175 C 0.6396 0.08279 0.14927 0.0
H176 H 0.27615 0.99248 1.00315 0.0
H177 H 0.32383 1.02578 0.05161 0.0
H178 H 0.42278 1.00222 0.99433 0.0
H179 H 0.37525 0.96872 0.9458 0.0
H180 H 0.71176 0.20276 0.19276 0.0
H181 H 0.65038 0.15802 0.16566 0.0
H182 H 0.71327 0.07318 0.15656 0.0
H183 H 0.77491 0.11789 0.18297 0.0
Dy184 Dy 0.48712 0.51075 0.53311 0.0
Dy185 Dy 0.49871 0.58681 0.58165 0.0
C186 C 0.52993 0.51956 0.61467 0.0
O187 O 0.42339 0.50377 0.55329 0.0
O188 O 0.44296 0.54242 0.6038 0.0
O189 O 0.47024 0.44907 0.52909 0.0
O190 O 0.49457 0.48472 0.48117 0.0
O191 O 0.4572 0.59222 0.53436 0.0
O192 O 0.47622 0.55457 0.49277 0.0
O193 O 0.5506 0.60301 0.54129 0.0
O194 O 0.55414 0.54293 0.53031 0.0
O195 O 0.50642 0.6474 0.58535 0.0
O196 O 0.50274 0.61306 0.63548 0.0
C197 C 0.41545 0.51508 0.5862 0.0
O198 O 0.50535 0.49671 0.59082 0.0
O199 O 0.53886 0.55694 0.61084 0.0
C200 C 0.52128 0.43483 0.49507 0.0
C201 C 0.59284 0.41379 0.48786 0.0
C202 C 0.58905 0.43752 0.51695 0.0
C203 C 0.55362 0.44787 0.52054 0.0
C204 C 0.52427 0.41017 0.4666 0.0
C205 C 0.55982 0.39945 0.46317 0.0
C206 C 0.48714 0.45086 0.49653 0.0
C207 C 0.4609 0.58252 0.49978 0.0
C208 C 0.56978 0.58035 0.5275 0.0
C209 C 0.46773 0.65837 0.6344 0.0
C210 C 0.40186 0.68175 0.65857 0.0
C211 C 0.39491 0.64754 0.63893 0.0
C212 C 0.42757 0.63601 0.62689 0.0
C213 C 0.47502 0.69244 0.65408 0.0
C214 C 0.44223 0.70415 0.66607 0.0
C215 C 0.50145 0.64564 0.62132 0.0
H216 H 0.61379 0.44856 0.53663 0.0
H217 H 0.55198 0.46709 0.54264 0.0
H218 H 0.49976 0.40021 0.44649 0.0
H219 H 0.56212 0.38123 0.4404 0.0
H220 H 0.36422 0.63003 0.63223 0.0
H221 H 0.4215 0.60968 0.61147 0.0
H222 H 0.50591 0.70992 0.66009 0.0
H223 H 0.44842 0.73052 0.68139 0.0
Dy224 Dy 0.99845 0.59308 0.03784 0.0
Dy225 Dy 0.98881 0.51725 0.08853 0.0
C226 C 0.96555 0.59057 0.12194 0.0
O227 O 0.0521 0.60829 0.0765 0.0
O228 O 0.05578 0.5479 0.0867 0.0
O229 O 0.01349 0.65444 1.03033 0.0
O230 O 0.99314 0.61733 0.98331 0.0
O231 O 1.00074 0.50181 1.02965 0.0
O232 O 0.03644 0.56144 1.00841 0.0
O233 O 0.92427 0.51056 0.07123 0.0
O234 O 0.9411 0.5489 1.01926 0.0
O235 O 0.97361 0.45571 0.09531 0.0
O236 O 0.99846 0.49258 0.14166 0.0
C237 C 0.07174 0.58511 0.08932 0.0
O238 O 0.962 0.60204 0.0873 0.0
O239 O 0.97945 0.5612 0.12849 0.0
C240 C 0.96933 0.6706 0.98672 0.0
C241 C 0.90519 0.70009 0.96681 0.0
C242 C 0.90811 0.68623 1.00318 0.0
C243 C 0.93974 0.67143 1.01299 0.0
C244 C 0.96697 0.68498 0.95058 0.0
C245 C 0.93508 0.69955 0.94064 0.0
C246 C 1.00048 0.65185 0.99594 0.0
C247 C 0.02538 0.52387 1.00492 0.0
C248 C 0.91479 0.52159 0.03824 0.0
C249 C 0.02491 0.44176 0.13242 0.0
C250 C 0.09862 0.42392 0.14157 0.0
C251 C 0.08299 0.42713 0.10574 0.0
C252 C 0.04665 0.43623 0.10118 0.0
C253 C 0.03952 0.43681 0.16823 0.0
C254 C 0.07613 0.4281 0.17279 0.0
C255 C 0.99113 0.45844 0.12802 0.0
H256 H 0.88522 0.68575 1.02378 0.0
H257 H 0.94052 0.65987 0.04089 0.0
H258 H 0.98934 0.68424 0.92987 0.0
H259 H 0.93374 0.71031 0.9125 0.0
H260 H 0.09984 0.42439 0.0812 0.0
H261 H 0.03658 0.44055 0.07318 0.0
H262 H 0.02351 0.44135 0.19268 0.0
H263 H 0.08727 0.42535 0.20074 0.0
H264 H 0.35414 0.25424 0.22921 0.0
H265 H 0.28872 0.2347 0.43564 0.0
H266 H 0.40332 0.34681 0.30514 0.0
H267 H 0.2817 0.13727 0.36726 0.0
H268 H 0.33868 0.2754 0.3924 0.0
H269 H 0.33621 0.20972 0.28155 0.0
C270 C 0.3628 0.26491 0.25695 0.0
C271 C 0.38086 0.30408 0.26294 0.0
C272 C 0.32694 0.24495 0.38737 0.0
C273 C 0.3577 0.25368 0.32346 0.0
C274 C 0.29848 0.22176 0.41205 0.0
C275 C 0.28031 0.18288 0.40431 0.0
C276 C 0.33677 0.229 0.3548 0.0
C277 C 0.29411 0.16741 0.37353 0.0
C278 C 0.35201 0.23955 0.28702 0.0
C279 C 0.38947 0.31668 0.29965 0.0
N280 N 0.32091 0.19063 0.34951 0.0
N281 N 0.37691 0.29167 0.32871 0.0
H282 H 0.13267 0.8234 0.84042 0.0
H283 H 0.33517 0.98821 0.89558 0.0
H284 H 0.22189 0.88654 0.76151 0.0
H285 H 0.2445 0.92854 0.97556 0.0
H286 H 0.28967 0.95675 0.84527 0.0
H287 H 0.16747 0.86791 0.88937 0.0
C288 C 0.1588 0.84757 0.83334 0.0
C289 C 0.1744 0.8519 0.79718 0.0
C290 C 0.27952 0.95068 0.87378 0.0
C291 C 0.21507 0.90188 0.85257 0.0
C292 C 0.30566 0.96839 0.90253 0.0
C293 C 0.29383 0.96053 0.93981 0.0
C294 C 0.24131 0.92461 0.8823 0.0
C295 C 0.25484 0.93536 0.94719 0.0
C296 C 0.1789 0.87269 0.86116 0.0
C297 C 0.20876 0.88293 0.78907 0.0
N298 N 0.23012 0.91797 0.91869 0.0
N299 N 0.22831 0.90649 0.81667 0.0
H300 H 0.60782 0.47204 0.83825 0.0
H301 H 0.53111 0.44528 0.62514 0.0
H302 H 0.60588 0.37307 0.7747 0.0
H303 H 0.56432 0.55435 0.67994 0.0
H304 H 0.55337 0.41679 0.6806 0.0
H305 H 0.58667 0.50091 0.78219 0.0
C306 C 0.60264 0.45631 0.81248 0.0
C307 C 0.60817 0.41991 0.81127 0.0
C308 C 0.55595 0.44699 0.68049 0.0
C309 C 0.58382 0.45273 0.7467 0.0
C310 C 0.5432 0.46336 0.64875 0.0
C311 C 0.5458 0.50245 0.64759 0.0
C312 C 0.57101 0.46958 0.71185 0.0
C313 C 0.56186 0.52421 0.67926 0.0
C314 C 0.59066 0.4728 0.78044 0.0
C315 C 0.60116 0.40082 0.77706 0.0
N316 N 0.57352 0.5075 0.71002 0.0
N317 N 0.58924 0.41731 0.74628 0.0
H318 H 0.88336 0.74262 0.271 0.0
H319 H 0.97364 0.57764 0.19742 0.0
H320 H 0.93034 0.67095 0.34301 0.0
H321 H 0.93531 0.6534 0.12236 0.0
H322 H 0.96003 0.61321 0.25023 0.0
H323 H 0.90594 0.71443 0.21644 0.0
C324 C 0.90023 0.72232 0.27544 0.0
C325 C 0.90626 0.7104 0.31205 0.0
C326 C 0.95453 0.62222 0.22229 0.0
C327 C 0.93031 0.67582 0.24909 0.0
C328 C 0.96219 0.60164 0.19181 0.0
C329 C 0.95554 0.61197 0.15474 0.0
C330 C 0.93983 0.65384 0.21642 0.0
C331 C 0.94084 0.64387 0.15008 0.0
C332 C 0.91238 0.70551 0.24415 0.0
C333 C 0.92631 0.68218 0.31562 0.0
N334 N 0.93345 0.66337 0.18027 0.0
N335 N 0.93713 0.66582 0.28493 0.0
H336 H 0.37047 0.27301 0.1494 0.0
H337 H 0.55218 0.18312 0.17102 0.0
H338 H 0.46806 0.32097 0.22718 0.0
H339 H 0.42788 0.11667 0.14676 0.0
H340 H 0.52826 0.2383 0.18458 0.0
H341 H 0.3987 0.22058 0.138 0.0
C342 C 0.3986 0.27299 0.16319 0.0
C343 C 0.41755 0.30153 0.18867 0.0
C344 C 0.50639 0.21142 0.17664 0.0
C345 C 0.4494 0.24126 0.17667 0.0
C346 C 0.51991 0.17995 0.16902 0.0
C347 C 0.49202 0.14519 0.1577 0.0
C348 C 0.46494 0.20818 0.17205 0.0
C349 C 0.45057 0.14276 0.15542 0.0
C350 C 0.41428 0.24279 0.15726 0.0
C351 C 0.45303 0.29951 0.20707 0.0
N352 N 0.43841 0.17393 0.16204 0.0
N353 N 0.46803 0.26983 0.20066 0.0
H354 H 0.19333 0.87637 0.69073 0.0
H355 H 0.023 0.98085 0.6542 0.0
H356 H 0.08012 0.84611 0.75029 0.0
H357 H 0.12749 0.99396 0.58402 0.0
H358 H 0.04758 0.93891 0.69601 0.0
H359 H 0.1744 0.9279 0.65841 0.0
C360 C 0.16455 0.88106 0.69707 0.0
C361 C 0.13781 0.85705 0.72251 0.0
C362 C 0.06518 0.9512 0.67157 0.0
C363 C 0.11565 0.91537 0.68579 0.0
C364 C 0.05124 0.97516 0.64772 0.0
C365 C 0.07306 0.99064 0.61537 0.0
C366 C 0.10131 0.94297 0.6631 0.0
C367 C 0.10944 0.98235 0.60839 0.0
C368 C 0.15368 0.91028 0.6787 0.0
C369 C 0.10117 0.86417 0.73053 0.0
N370 N 0.12232 0.95901 0.63198 0.0
N371 N 0.09083 0.89257 0.71186 0.0
H372 H 0.66281 0.41442 0.96477 0.0
H373 H 0.90006 0.51583 0.9637 0.0
H374 H 0.74025 0.39947 0.87704 0.0
H375 H 0.8412 0.47789 0.06902 0.0
H376 H 0.83821 0.47958 0.93137 0.0
H377 H 0.7239 0.44138 1.00436 0.0
C378 C 0.69265 0.41605 0.95428 0.0
C379 C 0.69683 0.40511 0.91763 0.0
C380 C 0.83872 0.47906 0.96156 0.0
C381 C 0.76636 0.43666 0.96187 0.0
C382 C 0.874 0.50009 0.98015 0.0
C383 C 0.87597 0.50014 1.01928 0.0
C384 C 0.80438 0.45829 0.98196 0.0
C385 C 0.84108 0.47868 0.03885 0.0
C386 C 0.72739 0.43155 0.97668 0.0
C387 C 0.736 0.40788 0.90508 0.0
N388 N 0.80649 0.45891 1.02 0.0
N389 N 0.76922 0.42403 0.9268 0.0
H390 H 0.80345 0.62883 0.41123 0.0
H391 H 0.60403 0.65532 0.50582 0.0
H392 H 0.76105 0.72653 0.39121 0.0
H393 H 0.62406 0.54486 0.50047 0.0
H394 H 0.66507 0.68291 0.46858 0.0
H395 H 0.74107 0.59807 0.44708 0.0
C396 C 0.78079 0.64359 0.41408 0.0
C397 C 0.78754 0.68038 0.39835 0.0
C398 C 0.65624 0.65263 0.47554 0.0
C399 C 0.71654 0.64584 0.44005 0.0
C400 C 0.62137 0.63681 0.49711 0.0
C401 C 0.60862 0.59758 0.50657 0.0
C402 C 0.67923 0.62936 0.46337 0.0
C403 C 0.63257 0.57523 0.494 0.0
C404 C 0.74533 0.62616 0.43471 0.0
C405 C 0.75736 0.69841 0.40326 0.0
N406 N 0.66669 0.59142 0.47322 0.0
N407 N 0.72353 0.68119 0.42382 0.0
H408 H 0.29862 0.32854 0.14656 0.0
H409 H 0.16077 0.46189 0.18795 0.0
H410 H 0.34273 0.43346 0.2073 0.0
H411 H 0.12903 0.3734 0.10533 0.0
H412 H 0.22772 0.45224 0.19521 0.0
H413 H 0.23737 0.3456 0.12905 0.0
C414 C 0.29581 0.35577 0.15519 0.0
C415 C 0.32563 0.37989 0.17804 0.0
C416 C 0.20622 0.43508 0.17534 0.0
C417 C 0.25517 0.39897 0.15955 0.0
C418 C 0.16786 0.44028 0.17148 0.0
C419 C 0.1392 0.41813 0.14627 0.0
C420 C 0.21587 0.40722 0.15411 0.0
C421 C 0.15027 0.3911 0.12506 0.0
C422 C 0.26072 0.36534 0.1456 0.0
C423 C 0.32029 0.41438 0.18946 0.0
N424 N 0.18761 0.38618 0.12968 0.0
N425 N 0.28537 0.42269 0.18055 0.0
H426 H 0.56205 0.33951 0.93466 0.0
H427 H 0.62863 0.16586 1.02781 0.0
H428 H 0.67702 0.32135 0.91139 0.0
H429 H 0.50607 0.17349 1.02936 0.0
H430 H 0.64965 0.22541 0.99037 0.0
H431 H 0.54405 0.28221 0.97495 0.0
C432 C 0.58352 0.32339 0.93809 0.0
C433 C 0.62084 0.33495 0.91921 0.0
C434 C 0.61817 0.21401 0.99893 0.0
C435 C 0.6007 0.26919 0.9659 0.0
C436 C 0.6061 0.17996 1.02038 0.0
C437 C 0.56536 0.16424 1.0318 0.0
C438 C 0.58948 0.23294 0.98905 0.0
C439 C 0.53772 0.18411 1.02119 0.0
C440 C 0.5733 0.29067 0.96117 0.0
C441 C 0.64798 0.31349 0.92547 0.0
N442 N 0.55026 0.21722 1.00064 0.0
N443 N 0.63735 0.28161 0.94811 0.0
H444 H 0.94821 0.75603 0.41266 0.0
H445 H 0.99752 0.98477 0.41895 0.0
H446 H 0.89256 0.81495 0.33415 0.0
H447 H 0.98198 0.91447 0.51845 0.0
H448 H 0.97662 0.92629 0.38127 0.0
H449 H 0.98104 0.8172 0.44376 0.0
C450 C 0.94495 0.7822 0.40046 0.0
C451 C 0.91814 0.78007 0.36999 0.0
C452 C 0.978 0.92367 0.41133 0.0
C453 C 0.95481 0.85073 0.40651 0.0
C454 C 0.98997 0.95711 0.43297 0.0
C455 C 0.99137 0.95491 0.47222 0.0
C456 C 0.96857 0.88732 0.4287 0.0
C457 C 0.98109 0.9179 0.48845 0.0
C458 C 0.96277 0.81704 0.41895 0.0
C459 C 0.91367 0.81508 0.35678 0.0
N460 N 0.9706 0.88585 0.46677 0.0
N461 N 0.93137 0.84867 0.37512 0.0
H462 H 0.23824 0.81404 0.6971 0.0
H463 H 0.33011 0.6384 0.68985 0.0
H464 H 0.17639 0.70265 0.74329 0.0
H465 H 0.39403 0.75363 0.65322 0.0
H466 H 0.27167 0.65953 0.70631 0.0
H467 H 0.29332 0.79038 0.6764 0.0
C468 C 0.23614 0.78427 0.70214 0.0
C469 C 0.20285 0.75993 0.72127 0.0
C470 C 0.29851 0.68016 0.69472 0.0
C471 C 0.26599 0.73279 0.69884 0.0
C472 C 0.33179 0.66814 0.68524 0.0
C473 C 0.36696 0.69436 0.6702 0.0
C474 C 0.30039 0.71864 0.68895 0.0
C475 C 0.36775 0.73258 0.66518 0.0
C476 C 0.26764 0.77084 0.69073 0.0
C477 C 0.20159 0.72192 0.72819 0.0
N478 N 0.33492 0.74353 0.67446 0.0
N479 N 0.23293 0.70941 0.71704 0.0
H480 H 0.74096 0.84789 0.87784 0.0
H481 H 0.78837 0.87437 0.66017 0.0
H482 H 0.6576 0.78757 0.79332 0.0
H483 H 0.86607 0.93987 0.74619 0.0
H484 H 0.74598 0.83353 0.7084 0.0
H485 H 0.79293 0.87285 0.83021 0.0
C486 C 0.73414 0.83934 0.84917 0.0
C487 C 0.69541 0.81573 0.83914 0.0
C488 C 0.7726 0.85654 0.71668 0.0
C489 C 0.7538 0.8448 0.78438 0.0
C490 C 0.79689 0.87969 0.68919 0.0
C491 C 0.83034 0.91085 0.69932 0.0
C492 C 0.782 0.86465 0.75445 0.0
C493 C 0.84002 0.9166 0.73726 0.0
C494 C 0.76354 0.85371 0.82197 0.0
C495 C 0.68735 0.80579 0.80175 0.0
N496 N 0.81576 0.89397 0.76344 0.0
N497 N 0.71622 0.82074 0.77551 0.0
H498 H 0.84245 0.2471 0.39458 0.0
H499 H 0.78505 0.24163 0.18693 0.0
H500 H 0.90107 0.34385 0.32394 0.0
H501 H 0.78676 0.13938 0.24767 0.0
H502 H 0.83056 0.28031 0.23429 0.0
H503 H 0.82544 0.20672 0.34012 0.0
C504 C 0.85322 0.25947 0.36764 0.0
C505 C 0.87382 0.29863 0.36369 0.0
C506 C 0.8218 0.24937 0.2366 0.0
C507 C 0.85203 0.25319 0.30081 0.0
C508 C 0.79567 0.22735 0.20978 0.0
C509 C 0.78176 0.18729 0.21363 0.0
C510 C 0.83322 0.23112 0.26773 0.0
C511 C 0.79675 0.17015 0.24352 0.0
C512 C 0.84305 0.23653 0.33642 0.0
C513 C 0.88514 0.31369 0.32787 0.0
N514 N 0.82099 0.19219 0.26982 0.0
N515 N 0.87325 0.29111 0.29754 0.0
H516 H 0.42887 0.67326 0.27895 0.0
H517 H 0.42811 0.6428 0.50188 0.0
H518 H 0.37742 0.7362 0.35351 0.0
H519 H 0.47081 0.57504 0.42449 0.0
H520 H 0.41484 0.68127 0.44926 0.0
H521 H 0.45252 0.6432 0.33271 0.0
C522 C 0.42425 0.68205 0.30678 0.0
C523 C 0.40223 0.70814 0.31171 0.0
C524 C 0.42712 0.65798 0.44378 0.0
C525 C 0.42723 0.67219 0.37392 0.0
C526 C 0.43454 0.63578 0.4739 0.0
C527 C 0.45038 0.60517 0.46791 0.0
C528 C 0.43575 0.6499 0.40713 0.0
C529 C 0.45833 0.59798 0.43078 0.0
C530 C 0.43698 0.66429 0.33756 0.0
C531 C 0.39538 0.71715 0.34848 0.0
N532 N 0.45098 0.62003 0.40207 0.0
N533 N 0.40738 0.69899 0.37809 0.0
H534 H 0.16812 0.44537 0.83986 0.0
H535 H 0.98601 0.45575 0.97041 0.0
H536 H 0.04352 0.39982 0.80277 0.0
H537 H 0.09689 0.55003 0.9639 0.0
H538 H 1.00843 0.42649 0.91677 0.0
H539 H 0.14506 0.47548 0.89227 0.0
C540 C 0.13591 0.44177 0.84241 0.0
C541 C 0.10803 0.4202 0.8159 0.0
C542 C 0.02789 0.45356 0.92706 0.0
C543 C 0.08095 0.45366 0.87786 0.0
C544 C 0.0152 0.47032 0.95792 0.0
C545 C 0.03942 0.5057 0.97207 0.0
C546 C 0.06588 0.47144 0.91045 0.0
C547 C 0.07693 0.52296 0.95416 0.0
C548 C 0.12273 0.45888 0.87269 0.0
C549 C 0.06639 0.41568 0.82223 0.0
N550 N 0.08911 0.50556 0.92483 0.0
N551 N 0.05423 0.4319 0.85244 0.0
H552 H 0.54403 0.82831 0.90226 0.0
H553 H 0.61304 0.9973 0.05014 0.0
H554 H 0.66371 0.87005 0.95131 0.0
H555 H 0.49663 0.97009 0.99347 0.0
H556 H 0.63059 0.94953 1.01389 0.0
H557 H 0.52394 0.87832 0.9354 0.0
C558 C 0.56576 0.84788 0.92031 0.0
C559 C 0.60519 0.84502 0.92488 0.0
C560 C 0.60121 0.95393 1.0091 0.0
C561 C 0.58315 0.90189 0.96208 0.0
C562 C 0.59113 0.98127 1.02991 0.0
C563 C 0.55321 0.98754 1.02498 0.0
C564 C 0.57312 0.93223 0.98318 0.0
C565 C 0.52625 0.96615 0.99804 0.0
C566 C 0.55453 0.87638 0.93896 0.0
C567 C 0.63279 0.8711 0.94787 0.0
N568 N 0.5366 0.93912 0.97825 0.0
N569 N 0.62124 0.89833 0.96565 0.0
H570 H 0.85775 0.25552 0.47334 0.0
H571 H 0.04727 0.17555 0.4616 0.0
H572 H 0.96051 0.31146 0.40413 0.0
H573 H 0.92517 0.105 0.48789 0.0
H574 H 0.01994 0.22819 0.4444 0.0
H575 H 0.88655 0.20313 0.4854 0.0
C576 C 0.88694 0.25705 0.46144 0.0
C577 C 0.90743 0.28804 0.43849 0.0
C578 C 0.99923 0.20097 0.45354 0.0
C579 C 0.94009 0.22792 0.4512 0.0
C580 C 0.01473 0.17091 0.46326 0.0
C581 C 0.98852 0.13582 0.4764 0.0
C582 C 0.95743 0.19599 0.45761 0.0
C583 C 0.94663 0.13148 0.47804 0.0
C584 C 0.90304 0.22694 0.46775 0.0
C585 C 0.9443 0.2881 0.42236 0.0
N586 N 0.93251 0.16133 0.46923 0.0
N587 N 0.95974 0.25852 0.4292 0.0
H588 H 0.25718 0.72739 0.23307 0.0
H589 H 0.12542 0.54783 0.11571 0.0
H590 H 0.30242 0.63325 0.20828 0.0
H591 H 0.10649 0.65904 0.11126 0.0
H592 H 0.18641 0.57477 0.15447 0.0
H593 H 0.19682 0.6985 0.1945 0.0
C594 C 0.2542 0.70052 0.21951 0.0
C595 C 0.28484 0.68281 0.22352 0.0
C596 C 0.16898 0.59323 0.14475 0.0
C597 C 0.21573 0.64923 0.1796 0.0
C598 C 0.1342 0.57793 0.12256 0.0
C599 C 0.11075 0.60121 0.11001 0.0
C600 C 0.18 0.63192 0.15495 0.0
C601 C 0.12359 0.63996 0.12003 0.0
C602 C 0.21985 0.68403 0.19749 0.0
C603 C 0.2793 0.64764 0.20594 0.0
N604 N 0.15704 0.65395 0.14205 0.0
N605 N 0.24541 0.63195 0.18468 0.0
H606 H 0.16198 0.40034 0.65776 0.0
H607 H 0.39817 0.51966 0.65972 0.0
H608 H 0.23875 0.41553 0.75532 0.0
H609 H 0.34277 0.46514 0.55844 0.0
H610 H 0.33614 0.48682 0.69329 0.0
H611 H 0.22366 0.42651 0.61896 0.0
C612 C 0.19181 0.40841 0.67087 0.0
C613 C 0.19529 0.40581 0.70986 0.0
C614 C 0.33736 0.48186 0.66372 0.0
C615 C 0.26565 0.43683 0.66602 0.0
C616 C 0.37292 0.50089 0.64431 0.0
C617 C 0.37617 0.49533 0.60593 0.0
C618 C 0.30383 0.45718 0.64492 0.0
C619 C 0.34192 0.47033 0.58796 0.0
C620 C 0.22695 0.42359 0.64882 0.0
C621 C 0.23468 0.41722 0.72545 0.0
N622 N 0.30713 0.45241 0.6075 0.0
N623 N 0.26797 0.43258 0.70373 0.0
H624 H 0.68904 0.73309 0.86228 0.0
H625 H 0.87267 0.74681 1.00621 0.0
H626 H 0.71681 0.80855 0.95602 0.0
H627 H 0.85813 0.6846 0.90341 0.0
H628 H 0.81308 0.76678 0.98981 0.0
H629 H 0.74855 0.71177 0.87819 0.0
C630 C 0.70739 0.74459 0.88654 0.0
C631 C 0.69752 0.7716 0.90859 0.0
C632 C 0.82294 0.74886 0.97074 0.0
C633 C 0.76551 0.74815 0.92669 0.0
C634 C 0.85688 0.73735 0.98017 0.0
C635 C 0.87032 0.71398 0.95616 0.0
C636 C 0.80203 0.73674 0.93713 0.0
C637 C 0.84901 0.70294 0.92254 0.0
C638 C 0.74133 0.73269 0.89552 0.0
C639 C 0.72251 0.78651 0.93928 0.0
N640 N 0.81578 0.71427 0.91408 0.0
N641 N 0.75529 0.77453 0.94747 0.0
H642 H 0.44478 0.75941 0.2157 0.0
H643 H 0.49463 0.98739 0.21841 0.0
H644 H 0.38763 0.81216 0.29541 0.0
H645 H 0.47464 0.92279 0.11702 0.0
H646 H 0.47549 0.92673 0.25459 0.0
H647 H 0.47928 0.82295 0.1885 0.0
C648 C 0.44154 0.78463 0.22896 0.0
C649 C 0.41377 0.78047 0.25827 0.0
C650 C 0.4756 0.92596 0.22443 0.0
C651 C 0.45218 0.85332 0.22664 0.0
C652 C 0.48646 0.9605 0.20375 0.0
C653 C 0.48586 0.96025 0.16454 0.0
C654 C 0.46547 0.89083 0.20588 0.0
C655 C 0.47506 0.92444 0.14713 0.0
C656 C 0.46036 0.82078 0.21283 0.0
C657 C 0.40938 0.81414 0.27337 0.0
N658 N 0.46566 0.89132 0.16783 0.0
N659 N 0.42791 0.84907 0.25719 0.0
H660 H 0.05721 0.32911 0.70322 0.0
H661 H 0.1336 0.16905 0.60046 0.0
H662 H 0.18052 0.32514 0.7135 0.0
H663 H 1.00742 0.16417 0.60973 0.0
H664 H 0.15286 0.22797 0.6374 0.0
H665 H 0.04021 0.27156 0.66496 0.0
C666 C 0.0808 0.31612 0.69746 0.0
C667 C 0.12033 0.33217 0.71209 0.0
C668 C 0.12096 0.21402 0.63135 0.0
C669 C 0.10106 0.26562 0.66723 0.0
C670 C 0.10984 0.18023 0.6101 0.0
C671 C 0.06861 0.16102 0.6017 0.0
C672 C 0.0908 0.22941 0.64427 0.0
C673 C 0.03954 0.17744 0.61531 0.0
C674 C 0.07107 0.28315 0.67542 0.0
C675 C 0.14973 0.3142 0.70278 0.0
N676 N 0.05113 0.21036 0.63559 0.0
N677 N 0.13954 0.28206 0.68114 0.0
H678 H 0.78114 0.3053 0.46011 0.0
H679 H 0.66935 0.4647 0.48849 0.0
H680 H 0.8403 0.42549 0.44104 0.0
H681 H 0.60519 0.3446 0.47541 0.0
H682 H 0.73401 0.45107 0.48049 0.0
H683 H 0.71827 0.31944 0.47644 0.0
C684 C 0.78085 0.33478 0.46028 0.0
C685 C 0.81554 0.36443 0.44974 0.0
C686 C 0.7058 0.4277 0.47944 0.0
C687 C 0.74415 0.38085 0.46741 0.0
C688 C 0.66895 0.4354 0.48413 0.0
C689 C 0.63195 0.40566 0.48264 0.0
C690 C 0.70569 0.38993 0.47356 0.0
C691 C 0.63306 0.36833 0.47647 0.0
C692 C 0.74508 0.34283 0.46914 0.0
C693 C 0.81402 0.40212 0.44949 0.0
N694 N 0.6694 0.36149 0.47228 0.0
N695 N 0.77872 0.40935 0.45809 0.0
loop_
_geom_bond_atom_site_label_1
_geom_bond_atom_site_label_2
_geom_bond_distance
_geom_bond_site_symmetry_2
_ccdc_geom_bond_type
C0 N1 1.317 . S
C0 N2 1.348 . S
C0 C3 1.485 . S
N1 C0 1.317 . S
N1 N5 1.370 . S
N2 C0 1.348 . S
N2 C4 1.346 . S
C3 C0 1.485 . S
C3 H7 0.960 . S
C3 H8 0.961 . S
C3 H9 0.960 . S
C4 N2 1.346 . S
C4 N5 1.307 . S
C4 C6 1.486 . S
N5 N1 1.370 . S
N5 C4 1.307 . S
C6 C4 1.486 . S
C6 H10 0.960 . S
C6 H11 0.960 . S
C6 H12 0.959 . S
H7 C3 0.960 . S
H8 C3 0.961 . S
H9 C3 0.960 . S
H10 C6 0.960 . S
H11 C6 0.960 . S
H12 C6 0.959 . S
C13 N14 1.317 . S
C13 N15 1.348 . S
C13 C16 1.485 . S
N14 C13 1.317 . S
N14 N18 1.370 . S
N15 C13 1.348 . S
N15 C17 1.346 . S
C16 C13 1.485 . S
C16 H20 0.960 . S
C16 H21 0.961 . S
C16 H22 0.960 . S
C17 N15 1.346 . S
C17 N18 1.307 . S
C17 C19 1.486 . S
N18 N14 1.370 . S
N18 C17 1.307 . S
C19 C17 1.486 . S
C19 H23 0.960 . S
C19 H24 0.960 . S
C19 H25 0.959 . S
H20 C16 0.960 . S
H21 C16 0.961 . S
H22 C16 0.960 . S
H23 C19 0.960 . S
H24 C19 0.960 . S
H25 C19 0.959 . S
C26 N27 1.317 . S
C26 N28 1.348 . S
C26 C29 1.485 . S
N27 C26 1.317 . S
N27 N31 1.370 . S
N28 C26 1.348 . S
N28 C30 1.346 . S
C29 C26 1.485 . S
C29 H33 0.960 . S
C29 H34 0.961 . S
C29 H35 0.960 . S
C30 N28 1.346 . S
C30 N31 1.307 . S
C30 C32 1.486 . S
N31 N27 1.370 . S
N31 C30 1.307 . S
C32 C30 1.486 . S
C32 H36 0.960 . S
C32 H37 0.960 . S
C32 H38 0.959 . S
H33 C29 0.960 . S
H34 C29 0.961 . S
H35 C29 0.960 . S
H36 C32 0.960 . S
H37 C32 0.960 . S
H38 C32 0.959 . S
C39 N40 1.317 . S
C39 N41 1.348 . S
C39 C42 1.485 . S
N40 C39 1.317 . S
N40 N44 1.370 . S
N41 C39 1.348 . S
N41 C43 1.346 . S
C42 C39 1.485 . S
C42 H46 0.960 . S
C42 H47 0.961 . S
C42 H48 0.960 . S
C43 N41 1.346 . S
C43 N44 1.307 . S
C43 C45 1.486 . S
N44 N40 1.370 . S
N44 C43 1.307 . S
C45 C43 1.486 . S
C45 H49 0.960 . S
C45 H50 0.960 . S
C45 H51 0.959 . S
H46 C42 0.960 . S
H47 C42 0.961 . S
H48 C42 0.960 . S
H49 C45 0.960 . S
H50 C45 0.960 . S
H51 C45 0.959 . S
C52 N53 1.317 . S
C52 N54 1.348 . S
C52 C55 1.485 . S
N53 C52 1.317 . S
N53 N57 1.370 . S
N54 C52 1.348 . S
N54 C56 1.346 . S
C55 C52 1.485 . S
C55 H59 0.960 . S
C55 H60 0.961 . S
C55 H61 0.960 . S
C56 N54 1.346 . S
C56 N57 1.307 . S
C56 C58 1.486 . S
N57 N53 1.370 . S
N57 C56 1.307 . S
C58 C56 1.486 . S
C58 H62 0.960 . S
C58 H63 0.960 . S
C58 H64 0.959 . S
H59 C55 0.960 . S
H60 C55 0.961 . S
H61 C55 0.960 . S
H62 C58 0.960 . S
H63 C58 0.960 . S
H64 C58 0.959 . S
C65 N66 1.317 . S
C65 N67 1.348 . S
C65 C68 1.485 . S
N66 C65 1.317 . S
N66 N70 1.370 . S
N67 C65 1.348 . S
N67 C69 1.346 . S
C68 C65 1.485 . S
C68 H72 0.960 . S
C68 H73 0.961 . S
C68 H74 0.960 . S
C69 N67 1.346 . S
C69 N70 1.307 . S
C69 C71 1.486 . S
N70 N66 1.370 . S
N70 C69 1.307 . S
C71 C69 1.486 . S
C71 H75 0.960 . S
C71 H76 0.960 . S
C71 H77 0.959 . S
H72 C68 0.960 . S
H73 C68 0.961 . S
H74 C68 0.960 . S
H75 C71 0.960 . S
H76 C71 0.960 . S
H77 C71 0.959 . S
C78 N79 1.317 . S
C78 N80 1.348 . S
C78 C81 1.485 . S
N79 C78 1.317 . S
N79 N83 1.370 . S
N80 C78 1.348 . S
N80 C82 1.346 . S
C81 C78 1.485 . S
C81 H85 0.960 . S
C81 H86 0.961 . S
C81 H87 0.960 . S
C82 N80 1.346 . S
C82 N83 1.307 . S
C82 C84 1.486 . S
N83 N79 1.370 . S
N83 C82 1.307 . S
C84 C82 1.486 . S
C84 H88 0.960 . S
C84 H89 0.960 . S
C84 H90 0.959 . S
H85 C81 0.960 . S
H86 C81 0.961 . S
H87 C81 0.960 . S
H88 C84 0.960 . S
H89 C84 0.960 . S
H90 C84 0.959 . S
C91 N92 1.317 . S
C91 N93 1.348 . S
C91 C94 1.485 . S
N92 C91 1.317 . S
N92 N96 1.370 . S
N93 C91 1.348 . S
N93 C95 1.346 . S
C94 C91 1.485 . S
C94 H98 0.960 . S
C94 H99 0.961 . S
C94 H100 0.960 . S
C95 N93 1.346 . S
C95 N96 1.307 . S
C95 C97 1.486 . S
N96 N92 1.370 . S
N96 C95 1.307 . S
C97 C95 1.486 . S
C97 H101 0.960 . S
C97 H102 0.960 . S
C97 H103 0.959 . S
H98 C94 0.960 . S
H99 C94 0.961 . S
H100 C94 0.960 . S
H101 C97 0.960 . S
H102 C97 0.960 . S
H103 C97 0.959 . S
Dy104 O107 2.307 1_545 S
Dy104 O109 2.395 . S
Dy104 O110 2.379 . S
Dy104 O112 2.339 1_545 S
Dy104 O114 2.298 . S
Dy104 O118 2.275 . S
Dy104 C126 2.738 . S
Dy105 O108 2.298 1_645 S
Dy105 O111 2.275 1_645 S
Dy105 O113 2.307 . S
Dy105 O115 2.395 1_545 S
Dy105 O116 2.379 1_545 S
Dy105 O119 2.339 1_655 S
Dy105 C135 2.738 1_545 S
C106 O118 1.254 . S
C106 O119 1.257 . S
O107 Dy104 2.307 1_565 S
O107 C117 1.266 . S
O108 Dy105 2.298 1_465 S
O108 C117 1.236 . S
O109 Dy104 2.395 . S
O109 C126 1.255 . S
O110 Dy104 2.379 . S
O110 C126 1.249 . S
O111 Dy105 2.275 1_465 S
O111 C127 1.254 . S
O112 Dy104 2.339 1_565 S
O112 C127 1.257 . S
O113 Dy105 2.307 . S
O113 C128 1.266 1_655 S
O114 Dy104 2.298 . S
O114 C128 1.236 . S
O115 Dy105 2.395 1_565 S
O115 C135 1.255 . S
O116 Dy105 2.379 1_565 S
O116 C135 1.249 . S
C117 O107 1.266 . S
C117 O108 1.236 . S
O118 Dy104 2.275 . S
O118 C106 1.254 . S
O119 Dy105 2.339 1_455 S
O119 C106 1.257 . S
C120 C123 1.344 . S
C120 C124 1.328 . S
C120 C126 1.516 . S
C121 C122 1.304 . S
C121 C125 1.323 . S
C122 C121 1.304 . S
C122 C123 1.371 . S
C122 H136 0.930 . S
C123 C120 1.344 . S
C123 C122 1.371 . S
C123 H137 0.931 . S
C124 C120 1.328 . S
C124 C125 1.433 . S
C124 H138 0.931 . S
C125 C121 1.323 . S
C125 C124 1.433 . S
C125 H139 0.933 . S
C126 Dy104 2.738 . S
C126 O109 1.255 . S
C126 O110 1.249 . S
C126 C120 1.516 . S
C127 O111 1.254 . S
C127 O112 1.257 . S
C128 O113 1.266 1_455 S
C128 O114 1.236 . S
C129 C132 1.344 . S
C129 C133 1.328 . S
C129 C135 1.516 . S
C130 C131 1.304 . S
C130 C134 1.323 . S
C131 C130 1.304 . S
C131 C132 1.371 . S
C131 H140 0.930 . S
C132 C129 1.344 . S
C132 C131 1.371 . S
C132 H141 0.931 . S
C133 C129 1.328 . S
C133 C134 1.433 . S
C133 H142 0.931 . S
C134 C130 1.323 . S
C134 C133 1.433 . S
C134 H143 0.933 . S
C135 Dy105 2.738 1_565 S
C135 O115 1.255 . S
C135 O116 1.249 . S
C135 C129 1.516 . S
H136 C122 0.930 . S
H137 C123 0.931 . S
H138 C124 0.931 . S
H139 C125 0.933 . S
H140 C131 0.930 . S
H141 C132 0.931 . S
H142 C133 0.931 . S
H143 C134 0.933 . S
Dy144 O147 2.307 . S
Dy144 O149 2.395 1_545 S
Dy144 O150 2.379 1_554 S
Dy144 O152 2.339 1_554 S
Dy144 O154 2.298 1_545 S
Dy144 O158 2.275 1_545 S
Dy144 C166 2.738 1_544 S
Dy145 O148 2.298 . S
Dy145 O151 2.275 . S
Dy145 O153 2.307 1_545 S
Dy145 O155 2.395 . S
Dy145 O156 2.379 . S
Dy145 O159 2.339 1_545 S
Dy145 C175 2.738 . S
C146 O158 1.254 . S
C146 O159 1.257 . S
O147 Dy144 2.307 . S
O147 C157 1.266 . S
O148 Dy145 2.298 . S
O148 C157 1.236 . S
O149 Dy144 2.395 1_565 S
O149 C166 1.255 1_554 S
O150 Dy144 2.379 1_556 S
O150 C166 1.249 1_545 S
O151 Dy145 2.275 . S
O151 C167 1.254 . S
O152 Dy144 2.339 1_556 S
O152 C167 1.257 1_556 S
O153 Dy145 2.307 1_565 S
O153 C168 1.266 . S
O154 Dy144 2.298 1_565 S
O154 C168 1.236 . S
O155 Dy145 2.395 . S
O155 C175 1.255 . S
O156 Dy145 2.379 . S
O156 C175 1.249 . S
C157 O147 1.266 . S
C157 O148 1.236 . S
O158 Dy144 2.275 1_565 S
O158 C146 1.254 . S
O159 Dy145 2.339 1_565 S
O159 C146 1.257 . S
C160 C163 1.344 . S
C160 C164 1.328 . S
C160 C166 1.516 . S
C161 C162 1.304 . S
C161 C165 1.323 . S
C162 C161 1.304 . S
C162 C163 1.371 . S
C162 H176 0.930 . S
C163 C160 1.344 . S
C163 C162 1.371 . S
C163 H177 0.931 . S
C164 C160 1.328 . S
C164 C165 1.433 . S
C164 H178 0.931 . S
C165 C161 1.323 . S
C165 C164 1.433 . S
C165 H179 0.933 . S
C166 Dy144 2.738 1_566 S
C166 O149 1.255 1_556 S
C166 O150 1.249 1_565 S
C166 C160 1.516 . S
C167 O151 1.254 . S
C167 O152 1.257 1_554 S
C168 O153 1.266 . S
C168 O154 1.236 . S
C169 C172 1.344 . S
C169 C173 1.328 . S
C169 C175 1.516 . S
C170 C171 1.304 . S
C170 C174 1.323 . S
C171 C170 1.304 . S
C171 C172 1.371 . S
C171 H180 0.930 . S
C172 C169 1.344 . S
C172 C171 1.371 . S
C172 H181 0.931 . S
C173 C169 1.328 . S
C173 C174 1.433 . S
C173 H182 0.931 . S
C174 C170 1.323 . S
C174 C173 1.433 . S
C174 H183 0.933 . S
C175 Dy145 2.738 . S
C175 O155 1.255 . S
C175 O156 1.249 . S
C175 C169 1.516 . S
H176 C162 0.930 . S
H177 C163 0.931 . S
H178 C164 0.931 . S
H179 C165 0.933 . S
H180 C171 0.930 . S
H181 C172 0.931 . S
H182 C173 0.931 . S
H183 C174 0.933 . S
Dy184 O187 2.307 . S
Dy184 O189 2.395 . S
Dy184 O190 2.379 . S
Dy184 O192 2.339 . S
Dy184 O194 2.298 . S
Dy184 O198 2.275 . S
Dy184 C206 2.738 . S
Dy185 O188 2.298 . S
Dy185 O191 2.275 . S
Dy185 O193 2.307 . S
Dy185 O195 2.395 . S
Dy185 O196 2.379 . S
Dy185 O199 2.339 . S
Dy185 C215 2.738 . S
C186 O198 1.254 . S
C186 O199 1.257 . S
O187 Dy184 2.307 . S
O187 C197 1.266 . S
O188 Dy185 2.298 . S
O188 C197 1.236 . S
O189 Dy184 2.395 . S
O189 C206 1.255 . S
O190 Dy184 2.379 . S
O190 C206 1.249 . S
O191 Dy185 2.275 . S
O191 C207 1.254 . S
O192 Dy184 2.339 . S
O192 C207 1.257 . S
O193 Dy185 2.307 . S
O193 C208 1.266 . S
O194 Dy184 2.298 . S
O194 C208 1.236 . S
O195 Dy185 2.395 . S
O195 C215 1.255 . S
O196 Dy185 2.379 . S
O196 C215 1.249 . S
C197 O187 1.266 . S
C197 O188 1.236 . S
O198 Dy184 2.275 . S
O198 C186 1.254 . S
O199 Dy185 2.339 . S
O199 C186 1.257 . S
C200 C203 1.344 . S
C200 C204 1.328 . S
C200 C206 1.516 . S
C201 C202 1.304 . S
C201 C205 1.323 . S
C202 C201 1.304 . S
C202 C203 1.371 . S
C202 H216 0.930 . S
C203 C200 1.344 . S
C203 C202 1.371 . S
C203 H217 0.931 . S
C204 C200 1.328 . S
C204 C205 1.433 . S
C204 H218 0.931 . S
C205 C201 1.323 . S
C205 C204 1.433 . S
C205 H219 0.933 . S
C206 Dy184 2.738 . S
C206 O189 1.255 . S
C206 O190 1.249 . S
C206 C200 1.516 . S
C207 O191 1.254 . S
C207 O192 1.257 . S
C208 O193 1.266 . S
C208 O194 1.236 . S
C209 C212 1.344 . S
C209 C213 1.328 . S
C209 C215 1.516 . S
C210 C211 1.304 . S
C210 C214 1.323 . S
C211 C210 1.304 . S
C211 C212 1.371 . S
C211 H220 0.930 . S
C212 C209 1.344 . S
C212 C211 1.371 . S
C212 H221 0.931 . S
C213 C209 1.328 . S
C213 C214 1.433 . S
C213 H222 0.931 . S
C214 C210 1.323 . S
C214 C213 1.433 . S
C214 H223 0.933 . S
C215 Dy185 2.738 . S
C215 O195 1.255 . S
C215 O196 1.249 . S
C215 C209 1.516 . S
H216 C202 0.930 . S
H217 C203 0.931 . S
H218 C204 0.931 . S
H219 C205 0.933 . S
H220 C211 0.930 . S
H221 C212 0.931 . S
H222 C213 0.931 . S
H223 C214 0.933 . S
Dy224 O227 2.317 1_556 S
Dy224 O229 2.385 1_455 S
Dy224 O230 2.373 1_455 S
Dy224 O232 2.345 . S
Dy224 O234 2.292 1_455 S
Dy224 O238 2.273 1_456 S
Dy224 C246 2.729 1_455 S
Dy225 O228 2.298 . S
Dy225 O231 2.275 1_554 S
Dy225 O233 2.307 1_455 S
Dy225 O235 2.395 . S
Dy225 O236 2.379 . S
Dy225 O239 2.339 1_455 S
Dy225 C255 2.738 . S
C226 O238 1.254 . S
C226 O239 1.257 . S
O227 Dy224 2.317 1_554 S
O227 C237 1.266 . S
O228 Dy225 2.298 . S
O228 C237 1.236 . S
O229 Dy224 2.385 1_655 S
O229 C246 1.255 . S
O230 Dy224 2.373 1_655 S
O230 C246 1.249 . S
O231 Dy225 2.275 1_556 S
O231 C247 1.254 . S
O232 Dy224 2.345 . S
O232 C247 1.257 . S
O233 Dy225 2.307 1_655 S
O233 C248 1.266 1_554 S
O234 Dy224 2.292 1_655 S
O234 C248 1.236 . S
O235 Dy225 2.395 . S
O235 C255 1.255 . S
O236 Dy225 2.379 . S
O236 C255 1.249 . S
C237 O227 1.266 . S
C237 O228 1.236 . S
O238 Dy224 2.273 1_654 S
O238 C226 1.254 . S
O239 Dy225 2.339 1_655 S
O239 C226 1.257 . S
C240 C243 1.344 . S
C240 C244 1.328 . S
C240 C246 1.516 . S
C241 C242 1.304 . S
C241 C245 1.323 . S
C242 C241 1.304 . S
C242 C243 1.371 . S
C242 H256 0.930 . S
C243 C240 1.344 . S
C243 C242 1.371 . S
C243 H257 0.931 . S
C244 C240 1.328 . S
C244 C245 1.433 . S
C244 H258 0.931 . S
C245 C241 1.323 . S
C245 C244 1.433 . S
C245 H259 0.933 . S
C246 Dy224 2.729 1_655 S
C246 O229 1.255 . S
C246 O230 1.249 . S
C246 C240 1.516 . S
C247 O231 1.254 . S
C247 O232 1.257 . S
C248 O233 1.266 1_556 S
C248 O234 1.236 . S
C249 C252 1.344 . S
C249 C253 1.328 . S
C249 C255 1.516 . S
C250 C251 1.304 . S
C250 C254 1.323 . S
C251 C250 1.304 . S
C251 C252 1.371 . S
C251 H260 0.930 . S
C252 C249 1.344 . S
C252 C251 1.371 . S
C252 H261 0.931 . S
C253 C249 1.328 . S
C253 C254 1.433 . S
C253 H262 0.931 . S
C254 C250 1.323 . S
C254 C253 1.433 . S
C254 H263 0.933 . S
C255 Dy225 2.738 . S
C255 O235 1.255 . S
C255 O236 1.249 . S
C255 C249 1.516 . S
H256 C242 0.930 . S
H257 C243 0.931 . S
H258 C244 0.931 . S
H259 C245 0.933 . S
H260 C251 0.930 . S
H261 C252 0.931 . S
H262 C253 0.931 . S
H263 C254 0.933 . S
H264 C270 0.930 . S
H265 C274 0.930 . S
H266 C279 0.929 . S
H267 C277 0.929 . S
H268 C272 0.929 . S
H269 C278 0.929 . S
C270 H264 0.930 . S
C270 C271 1.367 . S
C270 C278 1.378 . S
C271 C270 1.367 . S
C271 C279 1.433 . S
C272 H268 0.929 . S
C272 C274 1.378 . S
C272 C276 1.350 . S
C273 C276 1.463 . S
C273 C278 1.350 . S
C273 N281 1.427 . S
C274 H265 0.930 . S
C274 C272 1.378 . S
C274 C275 1.367 . S
C275 C274 1.367 . S
C275 C277 1.433 . S
C276 C272 1.350 . S
C276 C273 1.463 . S
C276 N280 1.427 . S
C277 H267 0.929 . S
C277 C275 1.433 . S
C277 N280 1.384 . S
C278 H269 0.929 . S
C278 C270 1.378 . S
C278 C273 1.350 . S
C279 H266 0.929 . S
C279 C271 1.433 . S
C279 N281 1.384 . S
N280 C276 1.427 . S
N280 C277 1.384 . S
N281 C273 1.427 . S
N281 C279 1.384 . S
H282 C288 0.930 . S
H283 C292 0.930 . S
H284 C297 0.929 . S
H285 C295 0.929 . S
H286 C290 0.929 . S
H287 C296 0.929 . S
C288 H282 0.930 . S
C288 C289 1.367 . S
C288 C296 1.378 . S
C289 C288 1.367 . S
C289 C297 1.433 . S
C290 H286 0.929 . S
C290 C292 1.378 . S
C290 C294 1.350 . S
C291 C294 1.463 . S
C291 C296 1.350 . S
C291 N299 1.427 . S
C292 H283 0.930 . S
C292 C290 1.378 . S
C292 C293 1.367 . S
C293 C292 1.367 . S
C293 C295 1.433 . S
C294 C290 1.350 . S
C294 C291 1.463 . S
C294 N298 1.427 . S
C295 H285 0.929 . S
C295 C293 1.433 . S
C295 N298 1.384 . S
C296 H287 0.929 . S
C296 C288 1.378 . S
C296 C291 1.350 . S
C297 H284 0.929 . S
C297 C289 1.433 . S
C297 N299 1.384 . S
N298 C294 1.427 . S
N298 C295 1.384 . S
N299 C291 1.427 . S
N299 C297 1.384 . S
H300 C306 0.930 . S
H301 C310 0.930 . S
H302 C315 0.929 . S
H303 C313 0.929 . S
H304 C308 0.929 . S
H305 C314 0.929 . S
C306 H300 0.930 . S
C306 C307 1.367 . S
C306 C314 1.378 . S
C307 C306 1.367 . S
C307 C315 1.433 . S
C308 H304 0.929 . S
C308 C310 1.378 . S
C308 C312 1.350 . S
C309 C312 1.463 . S
C309 C314 1.350 . S
C309 N317 1.427 . S
C310 H301 0.930 . S
C310 C308 1.378 . S
C310 C311 1.367 . S
C311 C310 1.367 . S
C311 C313 1.433 . S
C312 C308 1.350 . S
C312 C309 1.463 . S
C312 N316 1.427 . S
C313 H303 0.929 . S
C313 C311 1.433 . S
C313 N316 1.384 . S
C314 H305 0.929 . S
C314 C306 1.378 . S
C314 C309 1.350 . S
C315 H302 0.929 . S
C315 C307 1.433 . S
C315 N317 1.384 . S
N316 C312 1.427 . S
N316 C313 1.384 . S
N317 C309 1.427 . S
N317 C315 1.384 . S
H318 C324 0.930 . S
H319 C328 0.930 . S
H320 C333 0.929 . S
H321 C331 0.929 . S
H322 C326 0.929 . S
H323 C332 0.929 . S
C324 H318 0.930 . S
C324 C325 1.367 . S
C324 C332 1.378 . S
C325 C324 1.367 . S
C325 C333 1.433 . S
C326 H322 0.929 . S
C326 C328 1.378 . S
C326 C330 1.350 . S
C327 C330 1.463 . S
C327 C332 1.350 . S
C327 N335 1.427 . S
C328 H319 0.930 . S
C328 C326 1.378 . S
C328 C329 1.367 . S
C329 C328 1.367 . S
C329 C331 1.433 . S
C330 C326 1.350 . S
C330 C327 1.463 . S
C330 N334 1.427 . S
C331 H321 0.929 . S
C331 C329 1.433 . S
C331 N334 1.384 . S
C332 H323 0.929 . S
C332 C324 1.378 . S
C332 C327 1.350 . S
C333 H320 0.929 . S
C333 C325 1.433 . S
C333 N335 1.384 . S
N334 C330 1.427 . S
N334 C331 1.384 . S
N335 C327 1.427 . S
N335 C333 1.384 . S
H336 C342 0.930 . S
H337 C346 0.930 . S
H338 C351 0.929 . S
H339 C349 0.929 . S
H340 C344 0.929 . S
H341 C350 0.929 . S
C342 H336 0.930 . S
C342 C343 1.367 . S
C342 C350 1.378 . S
C343 C342 1.367 . S
C343 C351 1.433 . S
C344 H340 0.929 . S
C344 C346 1.378 . S
C344 C348 1.350 . S
C345 C348 1.463 . S
C345 C350 1.350 . S
C345 N353 1.427 . S
C346 H337 0.930 . S
C346 C344 1.378 . S
C346 C347 1.367 . S
C347 C346 1.367 . S
C347 C349 1.433 . S
C348 C344 1.350 . S
C348 C345 1.463 . S
C348 N352 1.427 . S
C349 H339 0.929 . S
C349 C347 1.433 . S
C349 N352 1.384 . S
C350 H341 0.929 . S
C350 C342 1.378 . S
C350 C345 1.350 . S
C351 H338 0.929 . S
C351 C343 1.433 . S
C351 N353 1.384 . S
N352 C348 1.427 . S
N352 C349 1.384 . S
N353 C345 1.427 . S
N353 C351 1.384 . S
H354 C360 0.930 . S
H355 C364 0.930 . S
H356 C369 0.929 . S
H357 C367 0.929 . S
H358 C362 0.929 . S
H359 C368 0.929 . S
C360 H354 0.930 . S
C360 C361 1.367 . S
C360 C368 1.378 . S
C361 C360 1.367 . S
C361 C369 1.433 . S
C362 H358 0.929 . S
C362 C364 1.378 . S
C362 C366 1.350 . S
C363 C366 1.463 . S
C363 C368 1.350 . S
C363 N371 1.427 . S
C364 H355 0.930 . S
C364 C362 1.378 . S
C364 C365 1.367 . S
C365 C364 1.367 . S
C365 C367 1.433 . S
C366 C362 1.350 . S
C366 C363 1.463 . S
C366 N370 1.427 . S
C367 H357 0.929 . S
C367 C365 1.433 . S
C367 N370 1.384 . S
C368 H359 0.929 . S
C368 C360 1.378 . S
C368 C363 1.350 . S
C369 H356 0.929 . S
C369 C361 1.433 . S
C369 N371 1.384 . S
N370 C366 1.427 . S
N370 C367 1.384 . S
N371 C363 1.427 . S
N371 C369 1.384 . S
H372 C378 0.930 . S
H373 C382 0.930 . S
H374 C387 0.929 . S
H375 C385 0.929 1_554 S
H376 C380 0.929 . S
H377 C386 0.929 . S
C378 H372 0.930 . S
C378 C379 1.367 . S
C378 C386 1.378 . S
C379 C378 1.367 . S
C379 C387 1.433 . S
C380 H376 0.929 . S
C380 C382 1.378 . S
C380 C384 1.350 . S
C381 C384 1.463 . S
C381 C386 1.350 . S
C381 N389 1.427 . S
C382 H373 0.930 . S
C382 C380 1.378 . S
C382 C383 1.367 . S
C383 C382 1.367 . S
C383 C385 1.433 . S
C384 C380 1.350 . S
C384 C381 1.463 . S
C384 N388 1.427 . S
C385 H375 0.929 1_556 S
C385 C383 1.433 . S
C385 N388 1.384 . S
C386 H377 0.929 . S
C386 C378 1.378 . S
C386 C381 1.350 . S
C387 H374 0.929 . S
C387 C379 1.433 . S
C387 N389 1.384 . S
N388 C384 1.427 . S
N388 C385 1.384 . S
N389 C381 1.427 . S
N389 C387 1.384 . S
H390 C396 0.930 . S
H391 C400 0.930 . S
H392 C405 0.929 . S
H393 C403 0.929 . S
H394 C398 0.929 . S
H395 C404 0.929 . S
C396 H390 0.930 . S
C396 C397 1.367 . S
C396 C404 1.378 . S
C397 C396 1.367 . S
C397 C405 1.433 . S
C398 H394 0.929 . S
C398 C400 1.378 . S
C398 C402 1.350 . S
C399 C402 1.463 . S
C399 C404 1.350 . S
C399 N407 1.427 . S
C400 H391 0.930 . S
C400 C398 1.378 . S
C400 C401 1.367 . S
C401 C400 1.367 . S
C401 C403 1.433 . S
C402 C398 1.350 . S
C402 C399 1.463 . S
C402 N406 1.427 . S
C403 H393 0.929 . S
C403 C401 1.433 . S
C403 N406 1.384 . S
C404 H395 0.929 . S
C404 C396 1.378 . S
C404 C399 1.350 . S
C405 H392 0.929 . S
C405 C397 1.433 . S
C405 N407 1.384 . S
N406 C402 1.427 . S
N406 C403 1.384 . S
N407 C399 1.427 . S
N407 C405 1.384 . S
H408 C414 0.930 . S
H409 C418 0.930 . S
H410 C423 0.929 . S
H411 C421 0.929 . S
H412 C416 0.929 . S
H413 C422 0.929 . S
C414 H408 0.930 . S
C414 C415 1.367 . S
C414 C422 1.378 . S
C415 C414 1.367 . S
C415 C423 1.433 . S
C416 H412 0.929 . S
C416 C418 1.378 . S
C416 C420 1.350 . S
C417 C420 1.463 . S
C417 C422 1.350 . S
C417 N425 1.427 . S
C418 H409 0.930 . S
C418 C416 1.378 . S
C418 C419 1.367 . S
C419 C418 1.367 . S
C419 C421 1.433 . S
C420 C416 1.350 . S
C420 C417 1.463 . S
C420 N424 1.427 . S
C421 H411 0.929 . S
C421 C419 1.433 . S
C421 N424 1.384 . S
C422 H413 0.929 . S
C422 C414 1.378 . S
C422 C417 1.350 . S
C423 H410 0.929 . S
C423 C415 1.433 . S
C423 N425 1.384 . S
N424 C420 1.427 . S
N424 C421 1.384 . S
N425 C417 1.427 . S
N425 C423 1.384 . S
H426 C432 0.930 . S
H427 C436 0.930 . S
H428 C441 0.929 . S
H429 C439 0.929 . S
H430 C434 0.929 . S
H431 C440 0.929 . S
C432 H426 0.930 . S
C432 C433 1.367 . S
C432 C440 1.378 . S
C433 C432 1.367 . S
C433 C441 1.433 . S
C434 H430 0.929 . S
C434 C436 1.378 . S
C434 C438 1.350 . S
C435 C438 1.463 . S
C435 C440 1.350 . S
C435 N443 1.427 . S
C436 H427 0.930 . S
C436 C434 1.378 . S
C436 C437 1.367 . S
C437 C436 1.367 . S
C437 C439 1.433 . S
C438 C434 1.350 . S
C438 C435 1.463 . S
C438 N442 1.427 . S
C439 H429 0.929 . S
C439 C437 1.433 . S
C439 N442 1.384 . S
C440 H431 0.929 . S
C440 C432 1.378 . S
C440 C435 1.350 . S
C441 H428 0.929 . S
C441 C433 1.433 . S
C441 N443 1.384 . S
N442 C438 1.427 . S
N442 C439 1.384 . S
N443 C435 1.427 . S
N443 C441 1.384 . S
H444 C450 0.930 . S
H445 C454 0.930 . S
H446 C459 0.929 . S
H447 C457 0.929 . S
H448 C452 0.929 . S
H449 C458 0.929 . S
C450 H444 0.930 . S
C450 C451 1.367 . S
C450 C458 1.378 . S
C451 C450 1.367 . S
C451 C459 1.433 . S
C452 H448 0.929 . S
C452 C454 1.378 . S
C452 C456 1.350 . S
C453 C456 1.463 . S
C453 C458 1.350 . S
C453 N461 1.427 . S
C454 H445 0.930 . S
C454 C452 1.378 . S
C454 C455 1.367 . S
C455 C454 1.367 . S
C455 C457 1.433 . S
C456 C452 1.350 . S
C456 C453 1.463 . S
C456 N460 1.427 . S
C457 H447 0.929 . S
C457 C455 1.433 . S
C457 N460 1.384 . S
C458 H449 0.929 . S
C458 C450 1.378 . S
C458 C453 1.350 . S
C459 H446 0.929 . S
C459 C451 1.433 . S
C459 N461 1.384 . S
N460 C456 1.427 . S
N460 C457 1.384 . S
N461 C453 1.427 . S
N461 C459 1.384 . S
H462 C468 0.930 . S
H463 C472 0.930 . S
H464 C477 0.929 . S
H465 C475 0.929 . S
H466 C470 0.929 . S
H467 C476 0.929 . S
C468 H462 0.930 . S
C468 C469 1.367 . S
C468 C476 1.378 . S
C469 C468 1.367 . S
C469 C477 1.433 . S
C470 H466 0.929 . S
C470 C472 1.378 . S
C470 C474 1.350 . S
C471 C474 1.463 . S
C471 C476 1.350 . S
C471 N479 1.427 . S
C472 H463 0.930 . S
C472 C470 1.378 . S
C472 C473 1.367 . S
C473 C472 1.367 . S
C473 C475 1.433 . S
C474 C470 1.350 . S
C474 C471 1.463 . S
C474 N478 1.427 . S
C475 H465 0.929 . S
C475 C473 1.433 . S
C475 N478 1.384 . S
C476 H467 0.929 . S
C476 C468 1.378 . S
C476 C471 1.350 . S
C477 H464 0.929 . S
C477 C469 1.433 . S
C477 N479 1.384 . S
N478 C474 1.427 . S
N478 C475 1.384 . S
N479 C471 1.427 . S
N479 C477 1.384 . S
H480 C486 0.930 . S
H481 C490 0.930 . S
H482 C495 0.929 . S
H483 C493 0.929 . S
H484 C488 0.929 . S
H485 C494 0.929 . S
C486 H480 0.930 . S
C486 C487 1.367 . S
C486 C494 1.378 . S
C487 C486 1.367 . S
C487 C495 1.433 . S
C488 H484 0.929 . S
C488 C490 1.378 . S
C488 C492 1.350 . S
C489 C492 1.463 . S
C489 C494 1.350 . S
C489 N497 1.427 . S
C490 H481 0.930 . S
C490 C488 1.378 . S
C490 C491 1.367 . S
C491 C490 1.367 . S
C491 C493 1.433 . S
C492 C488 1.350 . S
C492 C489 1.463 . S
C492 N496 1.427 . S
C493 H483 0.929 . S
C493 C491 1.433 . S
C493 N496 1.384 . S
C494 H485 0.929 . S
C494 C486 1.378 . S
C494 C489 1.350 . S
C495 H482 0.929 . S
C495 C487 1.433 . S
C495 N497 1.384 . S
N496 C492 1.427 . S
N496 C493 1.384 . S
N497 C489 1.427 . S
N497 C495 1.384 . S
H498 C504 0.930 . S
H499 C508 0.930 . S
H500 C513 0.929 . S
H501 C511 0.929 . S
H502 C506 0.929 . S
H503 C512 0.929 . S
C504 H498 0.930 . S
C504 C505 1.367 . S
C504 C512 1.378 . S
C505 C504 1.367 . S
C505 C513 1.433 . S
C506 H502 0.929 . S
C506 C508 1.378 . S
C506 C510 1.350 . S
C507 C510 1.463 . S
C507 C512 1.350 . S
C507 N515 1.427 . S
C508 H499 0.930 . S
C508 C506 1.378 . S
C508 C509 1.367 . S
C509 C508 1.367 . S
C509 C511 1.433 . S
C510 C506 1.350 . S
C510 C507 1.463 . S
C510 N514 1.427 . S
C511 H501 0.929 . S
C511 C509 1.433 . S
C511 N514 1.384 . S
C512 H503 0.929 . S
C512 C504 1.378 . S
C512 C507 1.350 . S
C513 H500 0.929 . S
C513 C505 1.433 . S
C513 N515 1.384 . S
N514 C510 1.427 . S
N514 C511 1.384 . S
N515 C507 1.427 . S
N515 C513 1.384 . S
H516 C522 0.930 . S
H517 C526 0.930 . S
H518 C531 0.929 . S
H519 C529 0.929 . S
H520 C524 0.929 . S
H521 C530 0.929 . S
C522 H516 0.930 . S
C522 C523 1.367 . S
C522 C530 1.378 . S
C523 C522 1.367 . S
C523 C531 1.433 . S
C524 H520 0.929 . S
C524 C526 1.378 . S
C524 C528 1.350 . S
C525 C528 1.463 . S
C525 C530 1.350 . S
C525 N533 1.427 . S
C526 H517 0.930 . S
C526 C524 1.378 . S
C526 C527 1.367 . S
C527 C526 1.367 . S
C527 C529 1.433 . S
C528 C524 1.350 . S
C528 C525 1.463 . S
C528 N532 1.427 . S
C529 H519 0.929 . S
C529 C527 1.433 . S
C529 N532 1.384 . S
C530 H521 0.929 . S
C530 C522 1.378 . S
C530 C525 1.350 . S
C531 H518 0.929 . S
C531 C523 1.433 . S
C531 N533 1.384 . S
N532 C528 1.427 . S
N532 C529 1.384 . S
N533 C525 1.427 . S
N533 C531 1.384 . S
H534 C540 0.930 . S
H535 C544 0.930 . S
H536 C549 0.929 . S
H537 C547 0.929 . S
H538 C542 0.929 . S
H539 C548 0.929 . S
C540 H534 0.930 . S
C540 C541 1.367 . S
C540 C548 1.378 . S
C541 C540 1.367 . S
C541 C549 1.433 . S
C542 H538 0.929 . S
C542 C544 1.378 . S
C542 C546 1.350 . S
C543 C546 1.463 . S
C543 C548 1.350 . S
C543 N551 1.427 . S
C544 H535 0.930 . S
C544 C542 1.378 . S
C544 C545 1.367 . S
C545 C544 1.367 . S
C545 C547 1.433 . S
C546 C542 1.350 . S
C546 C543 1.463 . S
C546 N550 1.427 . S
C547 H537 0.929 . S
C547 C545 1.433 . S
C547 N550 1.384 . S
C548 H539 0.929 . S
C548 C540 1.378 . S
C548 C543 1.350 . S
C549 H536 0.929 . S
C549 C541 1.433 . S
C549 N551 1.384 . S
N550 C546 1.427 . S
N550 C547 1.384 . S
N551 C543 1.427 . S
N551 C549 1.384 . S
H552 C558 0.930 . S
H553 C562 0.930 . S
H554 C567 0.929 . S
H555 C565 0.929 . S
H556 C560 0.929 . S
H557 C566 0.929 . S
C558 H552 0.930 . S
C558 C559 1.367 . S
C558 C566 1.378 . S
C559 C558 1.367 . S
C559 C567 1.433 . S
C560 H556 0.929 . S
C560 C562 1.378 1_556 S
C560 C564 1.350 . S
C561 C564 1.463 . S
C561 C566 1.350 . S
C561 N569 1.427 . S
C562 H553 0.930 . S
C562 C560 1.378 1_554 S
C562 C563 1.367 1_554 S
C563 C562 1.367 1_556 S
C563 C565 1.433 . S
C564 C560 1.350 . S
C564 C561 1.463 . S
C564 N568 1.427 . S
C565 H555 0.929 . S
C565 C563 1.433 . S
C565 N568 1.384 . S
C566 H557 0.929 . S
C566 C558 1.378 . S
C566 C561 1.350 . S
C567 H554 0.929 . S
C567 C559 1.433 . S
C567 N569 1.384 . S
N568 C564 1.427 . S
N568 C565 1.384 . S
N569 C561 1.427 . S
N569 C567 1.384 . S
H570 C576 0.930 . S
H571 C580 0.930 1_455 S
H572 C585 0.929 . S
H573 C583 0.929 . S
H574 C578 0.929 . S
H575 C584 0.929 . S
C576 H570 0.930 . S
C576 C577 1.367 . S
C576 C584 1.378 . S
C577 C576 1.367 . S
C577 C585 1.433 . S
C578 H574 0.929 . S
C578 C580 1.378 . S
C578 C582 1.350 . S
C579 C582 1.463 . S
C579 C584 1.350 . S
C579 N587 1.427 . S
C580 H571 0.930 1_655 S
C580 C578 1.378 . S
C580 C581 1.367 . S
C581 C580 1.367 . S
C581 C583 1.433 . S
C582 C578 1.350 . S
C582 C579 1.463 . S
C582 N586 1.427 . S
C583 H573 0.929 . S
C583 C581 1.433 . S
C583 N586 1.384 . S
C584 H575 0.929 . S
C584 C576 1.378 . S
C584 C579 1.350 . S
C585 H572 0.929 . S
C585 C577 1.433 . S
C585 N587 1.384 . S
N586 C582 1.427 . S
N586 C583 1.384 . S
N587 C579 1.427 . S
N587 C585 1.384 . S
H588 C594 0.930 . S
H589 C598 0.930 . S
H590 C603 0.929 . S
H591 C601 0.929 . S
H592 C596 0.929 . S
H593 C602 0.929 . S
C594 H588 0.930 . S
C594 C595 1.367 . S
C594 C602 1.378 . S
C595 C594 1.367 . S
C595 C603 1.433 . S
C596 H592 0.929 . S
C596 C598 1.378 . S
C596 C600 1.350 . S
C597 C600 1.463 . S
C597 C602 1.350 . S
C597 N605 1.427 . S
C598 H589 0.930 . S
C598 C596 1.378 . S
C598 C599 1.367 . S
C599 C598 1.367 . S
C599 C601 1.433 . S
C600 C596 1.350 . S
C600 C597 1.463 . S
C600 N604 1.427 . S
C601 H591 0.929 . S
C601 C599 1.433 . S
C601 N604 1.384 . S
C602 H593 0.929 . S
C602 C594 1.378 . S
C602 C597 1.350 . S
C603 H590 0.929 . S
C603 C595 1.433 . S
C603 N605 1.384 . S
N604 C600 1.427 . S
N604 C601 1.384 . S
N605 C597 1.427 . S
N605 C603 1.384 . S
H606 C612 0.930 . S
H607 C616 0.930 . S
H608 C621 0.929 . S
H609 C619 0.929 . S
H610 C614 0.929 . S
H611 C620 0.929 . S
C612 H606 0.930 . S
C612 C613 1.367 . S
C612 C620 1.378 . S
C613 C612 1.367 . S
C613 C621 1.433 . S
C614 H610 0.929 . S
C614 C616 1.378 . S
C614 C618 1.350 . S
C615 C618 1.463 . S
C615 C620 1.350 . S
C615 N623 1.427 . S
C616 H607 0.930 . S
C616 C614 1.378 . S
C616 C617 1.367 . S
C617 C616 1.367 . S
C617 C619 1.433 . S
C618 C614 1.350 . S
C618 C615 1.463 . S
C618 N622 1.427 . S
C619 H609 0.929 . S
C619 C617 1.433 . S
C619 N622 1.384 . S
C620 H611 0.929 . S
C620 C612 1.378 . S
C620 C615 1.350 . S
C621 H608 0.929 . S
C621 C613 1.433 . S
C621 N623 1.384 . S
N622 C618 1.427 . S
N622 C619 1.384 . S
N623 C615 1.427 . S
N623 C621 1.384 . S
H624 C630 0.930 . S
H625 C634 0.930 . S
H626 C639 0.929 . S
H627 C637 0.929 . S
H628 C632 0.929 . S
H629 C638 0.929 . S
C630 H624 0.930 . S
C630 C631 1.367 . S
C630 C638 1.378 . S
C631 C630 1.367 . S
C631 C639 1.433 . S
C632 H628 0.929 . S
C632 C634 1.378 . S
C632 C636 1.350 . S
C633 C636 1.463 . S
C633 C638 1.350 . S
C633 N641 1.427 . S
C634 H625 0.930 . S
C634 C632 1.378 . S
C634 C635 1.367 . S
C635 C634 1.367 . S
C635 C637 1.433 . S
C636 C632 1.350 . S
C636 C633 1.463 . S
C636 N640 1.427 . S
C637 H627 0.929 . S
C637 C635 1.433 . S
C637 N640 1.384 . S
C638 H629 0.929 . S
C638 C630 1.378 . S
C638 C633 1.350 . S
C639 H626 0.929 . S
C639 C631 1.433 . S
C639 N641 1.384 . S
N640 C636 1.427 . S
N640 C637 1.384 . S
N641 C633 1.427 . S
N641 C639 1.384 . S
H642 C648 0.930 . S
H643 C652 0.930 . S
H644 C657 0.929 . S
H645 C655 0.929 . S
H646 C650 0.929 . S
H647 C656 0.929 . S
C648 H642 0.930 . S
C648 C649 1.367 . S
C648 C656 1.378 . S
C649 C648 1.367 . S
C649 C657 1.433 . S
C650 H646 0.929 . S
C650 C652 1.378 . S
C650 C654 1.350 . S
C651 C654 1.463 . S
C651 C656 1.350 . S
C651 N659 1.427 . S
C652 H643 0.930 . S
C652 C650 1.378 . S
C652 C653 1.367 . S
C653 C652 1.367 . S
C653 C655 1.433 . S
C654 C650 1.350 . S
C654 C651 1.463 . S
C654 N658 1.427 . S
C655 H645 0.929 . S
C655 C653 1.433 . S
C655 N658 1.384 . S
C656 H647 0.929 . S
C656 C648 1.378 . S
C656 C651 1.350 . S
C657 H644 0.929 . S
C657 C649 1.433 . S
C657 N659 1.384 . S
N658 C654 1.427 . S
N658 C655 1.384 . S
N659 C651 1.427 . S
N659 C657 1.384 . S
H660 C666 0.930 . S
H661 C670 0.930 . S
H662 C675 0.929 . S
H663 C673 0.929 . S
H664 C668 0.929 . S
H665 C674 0.929 . S
C666 H660 0.930 . S
C666 C667 1.367 . S
C666 C674 1.378 . S
C667 C666 1.367 . S
C667 C675 1.433 . S
C668 H664 0.929 . S
C668 C670 1.378 . S
C668 C672 1.350 . S
C669 C672 1.463 . S
C669 C674 1.350 . S
C669 N677 1.427 . S
C670 H661 0.930 . S
C670 C668 1.378 . S
C670 C671 1.367 . S
C671 C670 1.367 . S
C671 C673 1.433 . S
C672 C668 1.350 . S
C672 C669 1.463 . S
C672 N676 1.427 . S
C673 H663 0.929 . S
C673 C671 1.433 . S
C673 N676 1.384 . S
C674 H665 0.929 . S
C674 C666 1.378 . S
C674 C669 1.350 . S
C675 H662 0.929 . S
C675 C667 1.433 . S
C675 N677 1.384 . S
N676 C672 1.427 . S
N676 C673 1.384 . S
N677 C669 1.427 . S
N677 C675 1.384 . S
H678 C684 0.930 . S
H679 C688 0.930 . S
H680 C693 0.929 . S
H681 C691 0.929 . S
H682 C686 0.929 . S
H683 C692 0.929 . S
C684 H678 0.930 . S
C684 C685 1.367 . S
C684 C692 1.378 . S
C685 C684 1.367 . S
C685 C693 1.433 . S
C686 H682 0.929 . S
C686 C688 1.378 . S
C686 C690 1.350 . S
C687 C690 1.463 . S
C687 C692 1.350 . S
C687 N695 1.427 . S
C688 H679 0.930 . S
C688 C686 1.378 . S
C688 C689 1.367 . S
C689 C688 1.367 . S
C689 C691 1.433 . S
C690 C686 1.350 . S
C690 C687 1.463 . S
C690 N694 1.427 . S
C691 H681 0.929 . S
C691 C689 1.433 . S
C691 N694 1.384 . S
C692 H683 0.929 . S
C692 C684 1.378 . S
C692 C687 1.350 . S
C693 H680 0.929 . S
C693 C685 1.433 . S
C693 N695 1.384 . S
N694 C690 1.427 . S
N694 C691 1.384 . S
N695 C687 1.427 . S
N695 C693 1.384 . S
C271 N1 0.915 . S
C275 C121 0.923 . S
C289 N18 1.086 . S
C293 C161 1.143 . S
C311 C186 1.997 . S
C307 N28 2.051 . S
C325 N40 2.665 . S
C329 C226 2.667 . S
C347 C157 1.901 . S
C343 N5 1.861 . S
C365 C117 1.490 . S
C361 N14 1.402 . S
C383 C248 1.788 . S
C379 N31 1.799 . S
C401 C208 1.490 . S
C397 N41 1.511 . S
C415 N2 1.102 . S
C419 C250 1.121 . S
C437 C167 2.353 1_556 S
C433 N27 2.385 . S
C451 N44 2.329 . S
C455 C127 2.373 1_655 S
C469 N15 0.989 . S
C473 C210 1.010 . S
C491 C130 1.454 . S
C487 N57 1.448 . S
C505 N70 0.880 . S
C509 C170 0.924 . S
C523 N79 2.256 . S
C527 C207 2.281 . S
C541 N93 2.415 . S
C545 C247 2.380 . S
C559 N54 1.492 . S
C563 C168 1.559 1_556 S
C581 C128 2.120 1_655 S
C577 N66 2.093 . S
C599 C237 1.276 . S
C595 N80 1.307 . S
C617 C197 1.710 . S
C613 N96 1.746 . S
C631 N53 1.284 . S
C635 C241 1.278 . S
C653 C146 1.906 . S
C649 N83 1.852 . S
C671 C106 2.403 . S
C667 N92 2.457 . S
C685 N67 1.247 . S
C689 C201 1.259 . S
