# Generated by pormake.
# Topology zzz, (3,6)-cn, num edge types: 1
# Building blocks:
#     Node 0, Type 0, BuildingBlock: BELTOD_clean_linker_0, # of connection points: 3
#     Node 1, Type 0, BuildingBlock: BELTOD_clean_linker_0, # of connection points: 3
#     Node 2, Type 0, BuildingBlock: BELTOD_clean_linker_0, # of connection points: 3
#     Node 3, Type 0, BuildingBlock: BELTOD_clean_linker_0, # of connection points: 3
#     Node 4, Type 0, BuildingBlock: BELTOD_clean_linker_0, # of connection points: 3
#     Node 5, Type 0, BuildingBlock: BELTOD_clean_linker_0, # of connection points: 3
#     Node 6, Type 0, BuildingBlock: BELTOD_clean_linker_0, # of connection points: 3
#     Node 7, Type 0, BuildingBlock: BELTOD_clean_linker_0, # of connection points: 3
#     Node 8, Type 1, BuildingBlock: BETGAK_clean_sbu_0, # of connection points: 6
#     Node 9, Type 1, BuildingBlock: BETGAK_clean_sbu_0, # of connection points: 6
#     Node 10, Type 1, BuildingBlock: BETGAK_clean_sbu_0, # of connection points: 6
#     Node 11, Type 1, BuildingBlock: BETGAK_clean_sbu_0, # of connection points: 6
#     Edge 12, Type (0, 1), BuildingBlock: OJICUG_clean_linker_0, # of connection points: 2
#     Edge 13, Type (0, 1), BuildingBlock: OJICUG_clean_linker_0, # of connection points: 2
#     Edge 14, Type (0, 1), BuildingBlock: OJICUG_clean_linker_0, # of connection points: 2
#     Edge 15, Type (0, 1), BuildingBlock: OJICUG_clean_linker_0, # of connection points: 2
#     Edge 16, Type (0, 1), BuildingBlock: OJICUG_clean_linker_0, # of connection points: 2
#     Edge 17, Type (0, 1), BuildingBlock: OJICUG_clean_linker_0, # of connection points: 2
#     Edge 18, Type (0, 1), BuildingBlock: OJICUG_clean_linker_0, # of connection points: 2
#     Edge 19, Type (0, 1), BuildingBlock: OJICUG_clean_linker_0, # of connection points: 2
#     Edge 20, Type (0, 1), BuildingBlock: OJICUG_clean_linker_0, # of connection points: 2
#     Edge 21, Type (0, 1), BuildingBlock: OJICUG_clean_linker_0, # of connection points: 2
#     Edge 22, Type (0, 1), BuildingBlock: OJICUG_clean_linker_0, # of connection points: 2
#     Edge 23, Type (0, 1), BuildingBlock: OJICUG_clean_linker_0, # of connection points: 2
#     Edge 24, Type (0, 1), BuildingBlock: OJICUG_clean_linker_0, # of connection points: 2
#     Edge 25, Type (0, 1), BuildingBlock: OJICUG_clean_linker_0, # of connection points: 2
#     Edge 26, Type (0, 1), BuildingBlock: OJICUG_clean_linker_0, # of connection points: 2
#     Edge 27, Type (0, 1), BuildingBlock: OJICUG_clean_linker_0, # of connection points: 2
#     Edge 28, Type (0, 1), BuildingBlock: OJICUG_clean_linker_0, # of connection points: 2
#     Edge 29, Type (0, 1), BuildingBlock: OJICUG_clean_linker_0, # of connection points: 2
#     Edge 30, Type (0, 1), BuildingBlock: OJICUG_clean_linker_0, # of connection points: 2
#     Edge 31, Type (0, 1), BuildingBlock: OJICUG_clean_linker_0, # of connection points: 2
#     Edge 32, Type (0, 1), BuildingBlock: OJICUG_clean_linker_0, # of connection points: 2
#     Edge 33, Type (0, 1), BuildingBlock: OJICUG_clean_linker_0, # of connection points: 2
#     Edge 34, Type (0, 1), BuildingBlock: OJICUG_clean_linker_0, # of connection points: 2
#     Edge 35, Type (0, 1), BuildingBlock: OJICUG_clean_linker_0, # of connection points: 2
# Relax obj value: 0.511
# Max RMSD: 0.247
# Mean RMSD: 0.245
data_MOF--net-zzz--node1-BETGAK_clean_sbu_0--node2-BELTOD_clean_linker_0--edge1-OJICUG_clean_linker_0
_symmetry_space_group_name_H-M    P1
_symmetry_Int_Tables_number       1
_symmetry_cell_setting            triclinic
loop_
_symmetry_equiv_pos_as_xyz
'x, y, z'
_cell_length_a     42.522732
_cell_length_b     42.39231
_cell_length_c     13.308862
_cell_angle_alpha  89.601024
_cell_angle_beta   89.690879
_cell_angle_gamma 89.753147
loop_
_atom_site_label
_atom_site_type_symbol
_atom_site_fract_x
_atom_site_fract_y
_atom_site_fract_z
_atom_type_partial_charge
P0 P 0.72607 0.46128 0.41185 0.0
H1 H 0.75372 0.45142 0.60955 0.0
H2 H 0.80468 0.46339 0.67785 0.0
H3 H 0.82379 0.52428 0.4229 0.0
H4 H 0.77303 0.51023 0.35151 0.0
H5 H 0.66187 0.44382 0.37207 0.0
H6 H 0.62371 0.46063 0.24905 0.0
H7 H 0.68341 0.53888 0.16529 0.0
H8 H 0.72228 0.52119 0.28931 0.0
H9 H 0.74468 0.39435 0.41571 0.0
H10 H 0.75149 0.47383 0.21293 0.0
O11 O 0.70798 0.43832 0.4965 0.0
H12 H 0.7794 0.36382 0.30571 0.0
H13 H 0.78664 0.44452 0.10591 0.0
C14 C 0.75865 0.48042 0.4758 0.0
C15 C 0.76829 0.46815 0.56917 0.0
C16 C 0.79793 0.4751 0.60874 0.0
C17 C 0.81917 0.49479 0.55659 0.0
C18 C 0.80875 0.50848 0.46526 0.0
C19 C 0.77911 0.50106 0.4249 0.0
C20 C 0.69504 0.48137 0.34206 0.0
C21 C 0.66652 0.46527 0.33003 0.0
C22 C 0.64445 0.47499 0.25864 0.0
C23 C 0.65015 0.5012 0.19581 0.0
C24 C 0.67819 0.51832 0.21096 0.0
C25 C 0.70042 0.50846 0.28313 0.0
C26 C 0.74533 0.4363 0.32209 0.0
C27 C 0.75296 0.40497 0.34628 0.0
C28 C 0.77295 0.38759 0.28351 0.0
C29 C 0.78606 0.40159 0.19672 0.0
C30 C 0.77664 0.43243 0.17038 0.0
C31 C 0.75657 0.44954 0.23246 0.0
P32 P 0.0447 0.72076 0.41847 0.0
H33 H 0.05314 0.74873 0.61586 0.0
H34 H 0.04239 0.80034 0.68241 0.0
H35 H 0.98631 0.82245 0.42087 0.0
H36 H 0.99926 0.77066 0.3513 0.0
H37 H 0.04672 0.65187 0.4252 0.0
H38 H 0.03127 0.61157 0.30812 0.0
H39 H 0.98382 0.68208 0.12787 0.0
H40 H 0.9963 0.72189 0.25311 0.0
H41 H 0.10984 0.74024 0.45155 0.0
H42 H 0.04293 0.74323 0.20927 0.0
O43 O 0.06421 0.70133 0.50843 0.0
H44 H 0.14369 0.77667 0.35823 0.0
H45 H 0.07548 0.77932 0.11827 0.0
C46 C 0.02637 0.75489 0.47903 0.0
C47 C 0.03768 0.76412 0.57346 0.0
C48 C 0.03143 0.79421 0.61212 0.0
C49 C 0.01336 0.81648 0.55817 0.0
C50 C 1.0008 0.80664 0.46504 0.0
C51 C 1.00757 0.77648 0.42555 0.0
C52 C 0.02367 0.69057 0.34758 0.0
C53 C 0.03223 0.65881 0.36223 0.0
C54 C 0.0239 0.63556 0.29307 0.0
C55 C 1.00761 0.64329 0.20431 0.0
C56 C 0.99675 0.67475 0.19383 0.0
C57 C 1.00421 0.69791 0.26553 0.0
C58 C 0.07378 0.73857 0.33749 0.0
C59 C 0.10289 0.74766 0.37686 0.0
C60 C 0.12219 0.76867 0.3236 0.0
C61 C 0.11235 0.7813 0.23081 0.0
C62 C 0.08442 0.76987 0.18834 0.0
C63 C 0.06533 0.74901 0.24139 0.0
P64 P 0.79083 0.03616 0.41552 0.0
H65 H 0.77281 1.0083 0.6105 0.0
H66 H 0.72127 0.99579 0.68021 0.0
H67 H 0.68105 1.00353 0.38368 0.0
H68 H 0.73305 0.01477 0.31408 0.0
H69 H 0.85246 0.05979 0.36635 0.0
H70 H 0.89048 0.04951 0.23437 0.0
H71 H 0.83108 0.97556 0.12022 0.0
H72 H 0.79213 0.9871 0.25301 0.0
H73 H 0.75945 0.08746 0.51981 0.0
H74 H 0.77694 0.05994 0.21319 0.0
O75 O 0.81114 0.04593 0.51763 0.0
H76 H 0.71517 0.11997 0.46488 0.0
H77 H 0.73288 0.09198 0.15817 0.0
C78 C 0.75728 0.01245 0.45636 0.0
C79 C 0.75324 1.00604 0.55942 0.0
C80 C 0.72335 0.9995 0.5999 0.0
C81 C 0.6964 0.99941 0.53866 0.0
C82 C 0.70095 1.00324 0.43405 0.0
C83 C 0.73098 1.00948 0.39354 0.0
C84 C 0.81965 0.02376 0.32165 0.0
C85 C 0.84772 0.04092 0.31418 0.0
C86 C 0.86972 0.03486 0.23811 0.0
C87 C 0.86449 1.01131 0.16605 0.0
C88 C 0.83614 0.99398 0.17358 0.0
C89 C 0.81388 1.00027 0.25029 0.0
C90 C 0.77143 0.0712 0.3707 0.0
C91 C 0.75493 0.08981 0.44008 0.0
C92 C 0.72944 0.1082 0.40872 0.0
C93 C 0.72013 0.10803 0.30756 0.0
C94 C 0.73946 0.0928 0.23661 0.0
C95 C 0.76483 0.07433 0.26812 0.0
P96 P 0.46948 0.79151 0.41194 0.0
H97 H 0.46231 0.76396 0.61168 0.0
H98 H 0.47544 0.7131 0.68118 0.0
H99 H 0.53417 0.69392 0.42211 0.0
H100 H 0.51868 0.74472 0.3493 0.0
H101 H 0.45 0.85596 0.37635 0.0
H102 H 0.4615 0.89402 0.24419 0.0
H103 H 0.53677 0.83478 0.13615 0.0
H104 H 0.52521 0.79601 0.27059 0.0
H105 H 0.404 0.77047 0.43424 0.0
H106 H 0.47787 0.76607 0.21152 0.0
O107 O 0.44784 0.80968 0.49942 0.0
H108 H 0.37263 0.73382 0.33547 0.0
H109 H 0.44768 0.72936 0.11497 0.0
C110 C 0.49001 0.75912 0.47554 0.0
C111 C 0.47883 0.74943 0.57046 0.0
C112 C 0.48648 0.71976 0.61085 0.0
C113 C 0.50594 0.69843 0.55831 0.0
C114 C 0.51857 0.70892 0.46514 0.0
C115 C 0.51035 0.7386 0.42382 0.0
C116 C 0.48691 0.82294 0.33547 0.0
C117 C 0.46988 0.85137 0.32737 0.0
C118 C 0.47629 0.87324 0.25094 0.0
C119 C 0.50001 0.86748 0.1798 0.0
C120 C 0.51854 0.84001 0.19074 0.0
C121 C 0.51197 0.81784 0.26786 0.0
C122 C 0.44315 0.7713 0.32967 0.0
C123 C 0.41308 0.76243 0.36268 0.0
C124 C 0.39522 0.74134 0.30633 0.0
C125 C 0.4075 0.72846 0.21706 0.0
C126 C 0.43688 0.73916 0.18173 0.0
C127 C 0.4545 0.7602 0.23765 0.0
P128 P 0.27384 0.48619 0.23666 0.0
H129 H 0.25787 0.454 0.04839 0.0
H130 H 0.21344 0.46292 0.93432 0.0
H131 H 0.19856 0.55473 0.06306 0.0
H132 H 0.24312 0.54651 0.17347 0.0
H133 H 0.30856 0.43705 0.33946 0.0
H134 H 0.3578 0.43755 0.42521 0.0
H135 H 0.38287 0.52421 0.27141 0.0
H136 H 0.33162 0.52402 0.18731 0.0
H137 H 0.2284 0.48023 0.40133 0.0
H138 H 0.29386 0.55013 0.29161 0.0
O139 O 0.25724 0.45131 0.26135 0.0
H140 H 0.20723 0.51801 0.51965 0.0
H141 H 0.27278 0.58825 0.41126 0.0
C142 C 0.25416 0.49928 0.12157 0.0
C143 C 0.24624 0.47678 0.04861 0.0
C144 C 0.22054 0.48177 0.98368 0.0
C145 C 0.20212 0.50934 0.9908 0.0
C146 C 0.21209 0.53312 0.05626 0.0
C147 C 0.23794 0.52833 0.1198 0.0
C148 C 0.31587 0.48049 0.25606 0.0
C149 C 0.32488 0.45569 0.32033 0.0
C150 C 0.35363 0.45604 0.37045 0.0
C151 C 0.37485 0.4812 0.3578 0.0
C152 C 0.36706 0.50476 0.28604 0.0
C153 C 0.33783 0.50445 0.23609 0.0
C154 C 0.26258 0.51232 0.33687 0.0
C155 C 0.23891 0.5034 0.40452 0.0
C156 C 0.22706 0.52505 0.4734 0.0
C157 C 0.23844 0.55619 0.47514 0.0
C158 C 0.26366 0.56443 0.41189 0.0
C159 C 0.27573 0.54257 0.34354 0.0
P160 P 0.06054 0.29646 0.08386 0.0
H161 H 0.05059 0.27466 0.87823 0.0
H162 H 0.03657 0.22308 0.81651 0.0
H163 H 1.00154 0.19766 0.11144 0.0
H164 H 0.01711 0.24938 0.17367 0.0
H165 H 0.0946 0.3497 0.15806 0.0
H166 H 0.08475 0.38922 0.28633 0.0
H167 H 0.99124 0.35254 0.33176 0.0
H168 H 1.00156 0.31206 0.20208 0.0
H169 H 0.10987 0.25393 0.01446 0.0
H170 H 0.06831 0.28131 0.29711 0.0
O171 O 0.08009 0.31374 0.98945 0.0
H172 H 0.12606 0.20366 0.08865 0.0
H173 H 0.08409 0.2317 0.37096 0.0
C174 C 0.03469 0.26659 0.03096 0.0
C175 C 0.03867 0.25864 0.92921 0.0
C176 C 0.03074 0.22859 0.89366 0.0
C177 C 0.01835 0.2053 0.95864 0.0
C178 C 0.01177 0.21431 0.05881 0.0
C179 C 0.01991 0.24444 0.0944 0.0
C180 C 0.04878 0.32796 0.16917 0.0
C181 C 0.07169 0.3503 0.19405 0.0
C182 C 0.06612 0.37289 0.26818 0.0
C183 C 0.03729 0.37407 0.32002 0.0
C184 C 0.01368 0.3524 0.29286 0.0
C185 C 0.01951 0.32925 0.21875 0.0
C186 C 0.08758 0.27125 0.14985 0.0
C187 C 0.10591 0.25 0.09402 0.0
C188 C 0.11492 0.2211 0.13629 0.0
C189 C 0.10559 0.21325 0.23479 0.0
C190 C 0.09173 0.23679 0.29483 0.0
C191 C 0.08258 0.26549 0.25237 0.0
P192 P 0.22292 0.06307 0.1027 0.0
H193 H 0.24306 0.05355 0.89509 0.0
H194 H 0.29338 0.03742 0.82791 0.0
H195 H 0.31807 0.99759 0.11711 0.0
H196 H 0.26777 0.01586 0.18521 0.0
H197 H 0.18428 0.10178 0.23129 0.0
H198 H 0.14547 0.09134 0.36257 0.0
H199 H 0.15709 0.99125 0.31732 0.0
H200 H 0.19671 1.00205 0.18468 0.0
H201 H 0.26452 0.10993 0.01233 0.0
H202 H 0.24459 0.07276 0.30821 0.0
O203 O 0.20331 0.08183 0.01175 0.0
H204 H 0.31744 0.12395 0.06611 0.0
H205 H 0.29645 0.08705 0.3624 0.0
C206 C 0.2509 0.03564 0.04548 0.0
C207 C 0.25858 0.04013 0.9435 0.0
C208 C 0.28799 0.03093 0.9048 0.0
C209 C 0.31086 0.0165 0.96649 0.0
C210 C 0.30191 1.00941 0.06677 0.0
C211 C 0.27249 0.01905 0.10574 0.0
C212 C 0.19408 0.05274 0.19937 0.0
C213 C 0.17874 0.07749 0.24968 0.0
C214 C 0.15646 0.07151 0.32509 0.0
C215 C 0.14833 0.04045 0.35181 0.0
C216 C 0.16283 0.01547 0.2988 0.0
C217 C 0.18563 0.02156 0.2234 0.0
C218 C 0.25062 0.09005 0.1559 0.0
C219 C 0.27072 0.10665 0.09056 0.0
C220 C 0.30111 0.11441 0.12108 0.0
C221 C 0.31147 0.10592 0.21769 0.0
C222 C 0.28941 0.09405 0.28739 0.0
C223 C 0.25934 0.08587 0.25638 0.0
P224 P 0.46172 0.22126 0.10631 0.0
H225 H 0.46786 0.24218 0.89708 0.0
H226 H 0.48385 0.29271 0.82808 0.0
H227 H 0.52776 0.31555 0.1103 0.0
H228 H 0.51028 0.26507 0.18012 0.0
H229 H 0.42569 0.17712 0.22345 0.0
H230 H 0.43763 0.13911 0.35387 0.0
H231 H 0.53688 0.15857 0.31669 0.0
H232 H 0.52398 0.19866 0.18838 0.0
H233 H 0.41483 0.26689 0.03873 0.0
H234 H 0.45675 0.23782 0.31912 0.0
O235 O 0.44001 0.20352 0.01939 0.0
H236 H 0.40288 0.31849 0.11034 0.0
H237 H 0.44475 0.28838 0.39048 0.0
C238 C 0.48813 0.24915 0.04403 0.0
C239 C 0.48215 0.25732 0.94325 0.0
C240 C 0.49121 0.28674 0.90358 0.0
C241 C 0.50668 0.30909 0.96342 0.0
C242 C 0.51518 0.29963 0.06182 0.0
C243 C 0.50591 0.27018 0.10158 0.0
C244 C 0.47386 0.19081 0.19558 0.0
C245 C 0.45012 0.17311 0.24265 0.0
C246 C 0.45715 0.15091 0.31744 0.0
C247 C 0.48842 0.14497 0.34688 0.0
C248 C 0.51244 0.16245 0.29785 0.0
C249 C 0.5052 0.18529 0.22339 0.0
C250 C 0.43702 0.24858 0.17298 0.0
C251 C 0.4197 0.27083 0.11745 0.0
C252 C 0.41308 0.30043 0.15821 0.0
C253 C 0.42364 0.30787 0.25509 0.0
C254 C 0.43623 0.28363 0.31557 0.0
C255 C 0.44319 0.25432 0.27444 0.0
La256 La 0.02817 1.00305 0.84986 0.0
La257 La 0.99022 0.01934 0.67575 0.0
C258 C 0.05176 0.98246 0.01075 0.0
C259 C 0.07349 0.95722 0.03986 0.0
C260 C 0.09348 0.94296 0.96913 0.0
C261 C 0.11221 0.9172 0.99705 0.0
C262 C 0.11085 0.90508 0.09576 0.0
C263 C 0.09177 0.92065 0.16705 0.0
C264 C 0.07339 0.94651 0.13929 0.0
C265 C 0.06176 0.02053 0.68912 0.0
C266 C 1.00587 0.94744 0.70263 0.0
C267 C 0.97705 0.04352 0.50893 0.0
C268 C 0.99676 0.06639 0.45312 0.0
C269 C 1.00088 0.09701 0.49017 0.0
C270 C 0.02495 0.11603 0.45297 0.0
C271 C 0.04526 0.10503 0.37718 0.0
C272 C 0.04015 0.07513 0.33595 0.0
C273 C 0.0161 0.05595 0.37369 0.0
C274 C 0.95537 1.00314 0.83461 0.0
C275 C 0.01197 0.07331 0.82449 0.0
O276 O 0.0639 1.00528 0.95702 0.0
O277 O 0.02442 0.97346 0.97661 0.0
O278 O 0.06911 0.02664 0.78092 0.0
O279 O 0.03756 1.00361 0.69085 0.0
O280 O 0.01916 0.95522 0.78917 0.0
O281 O 0.99376 0.96922 0.64279 0.0
O282 O 0.96434 0.05309 0.59338 0.0
O283 O 0.98984 0.01566 0.5189 0.0
O284 O 0.94738 0.9988 0.74168 0.0
O285 O 0.98057 0.01878 0.83462 0.0
O286 O 1.00822 0.06563 0.72878 0.0
O287 O 0.01421 0.05062 0.89229 0.0
H288 H 0.09394 0.9512 0.89187 0.0
H289 H 0.12685 0.90612 0.9405 0.0
H290 H 0.0894 0.9118 0.24319 0.0
H291 H 0.05814 0.9574 0.19475 0.0
H292 H 0.98631 0.10592 0.55066 0.0
H293 H 0.02766 0.13946 0.48369 0.0
H294 H 0.05523 0.06629 0.27654 0.0
H295 H 0.01357 0.03237 0.34395 0.0
La296 La 0.51418 0.02187 0.84764 0.0
La297 La 0.49366 0.98796 0.66955 0.0
C298 C 0.52399 0.04498 0.01862 0.0
C299 C 0.54858 0.06499 0.06041 0.0
C300 C 0.54462 0.07859 0.15531 0.0
C301 C 0.56917 0.09558 0.19841 0.0
C302 C 0.59804 0.09904 0.14713 0.0
C303 C 0.60106 0.08671 0.04955 0.0
C304 C 0.57651 0.06994 1.00654 0.0
C305 C 0.50915 0.05737 0.68348 0.0
C306 C 0.56793 0.99885 0.70399 0.0
C307 C 0.48157 0.97808 0.48824 0.0
C308 C 0.45796 0.99455 0.42649 0.0
C309 C 0.42793 1.00041 0.46663 0.0
C310 C 0.40851 0.02316 0.42346 0.0
C311 C 0.4186 0.04054 0.33914 0.0
C312 C 0.4476 0.03302 0.29396 0.0
C313 C 0.46729 1.01031 0.338 0.0
C314 C 0.49865 0.95069 0.82907 0.0
C315 C 0.44147 1.0077 0.81839 0.0
O316 O 0.50634 0.05842 0.95048 0.0
O317 O 0.53294 0.0166 0.99222 0.0
O318 O 0.5308 0.06052 0.75053 0.0
O319 O 0.49046 0.03601 0.71218 0.0
O320 O 0.56169 1.01148 0.79274 0.0
O321 O 0.54506 0.98825 0.64606 0.0
O322 O 0.471 0.96017 0.56161 0.0
O323 O 0.50435 0.99635 0.51782 0.0
O324 O 0.47929 0.94637 0.75558 0.0
O325 O 0.51688 0.97318 0.80618 0.0
O326 O 0.44779 1.00506 0.72151 0.0
O327 O 0.46488 1.00956 0.88313 0.0
H328 H 0.52293 0.07531 0.19719 0.0
H329 H 0.56595 0.10503 0.27318 0.0
H330 H 0.62302 0.08835 1.00834 0.0
H331 H 0.57978 0.05981 0.93265 0.0
H332 H 0.42006 0.98885 0.53503 0.0
H333 H 0.38581 0.02776 0.45788 0.0
H334 H 0.45575 0.04587 0.22825 0.0
H335 H 0.49055 1.00647 0.30659 0.0
La336 La 0.49438 0.51014 0.84635 0.0
La337 La 0.53807 0.49685 0.68302 0.0
C338 C 0.46504 0.52811 1.0007 0.0
C339 C 0.44245 0.55291 0.02634 0.0
C340 C 0.42521 0.56874 0.95178 0.0
C341 C 0.40647 0.59472 0.97695 0.0
C342 C 0.40523 0.60555 0.07673 0.0
C343 C 0.42111 0.58811 0.15166 0.0
C344 C 0.43945 0.56201 0.12656 0.0
C345 C 0.46711 0.49193 0.67641 0.0
C346 C 0.51789 0.56766 0.70588 0.0
C347 C 0.55759 0.47397 0.52126 0.0
C348 C 0.54033 0.45047 0.46176 0.0
C349 C 0.53542 0.42002 0.5009 0.0
C350 C 0.51164 0.40112 0.46292 0.0
C351 C 0.49244 0.41207 0.38438 0.0
C352 C 0.49893 0.44142 0.33963 0.0
C353 C 0.52274 0.46045 0.37793 0.0
C354 C 0.5671 0.51375 0.85051 0.0
C355 C 0.51451 0.44102 0.82505 0.0
O356 O 0.45489 0.50632 0.94018 0.0
O357 O 0.49338 0.53766 0.97686 0.0
O358 O 0.45734 0.48456 0.7655 0.0
O359 O 0.48987 0.51038 0.68563 0.0
O360 O 0.50289 0.55877 0.78925 0.0
O361 O 0.53249 0.54683 0.64876 0.0
O362 O 0.56811 0.46475 0.6091 0.0
O363 O 0.54345 0.50128 0.52699 0.0
O364 O 0.5775 0.51927 0.7602 0.0
O365 O 0.54291 0.4968 0.84357 0.0
O366 O 0.52045 0.44942 0.73054 0.0
O367 O 0.50951 0.46321 0.89208 0.0
H368 H 0.42713 0.56173 0.87384 0.0
H369 H 0.39417 0.60714 0.91755 0.0
H370 H 0.42135 0.59577 0.22906 0.0
H371 H 0.45251 0.54984 0.18496 0.0
H372 H 0.54869 0.4114 0.56469 0.0
H373 H 0.50793 0.37805 0.49635 0.0
H374 H 0.48478 0.4502 0.27796 0.0
H375 H 0.526 0.48383 0.34622 0.0
La376 La 1.00705 0.48367 0.83501 0.0
La377 La 0.01693 0.53133 0.69216 0.0
C378 C 0.98943 0.44792 0.97675 0.0
C379 C 0.96332 0.42649 0.99777 0.0
C380 C 0.9455 0.41351 0.92005 0.0
C381 C 0.91813 0.39664 0.94245 0.0
C382 C 0.90788 0.39314 0.04276 0.0
C383 C 0.92721 0.40457 0.12015 0.0
C384 C 0.95469 0.42095 0.09769 0.0
C385 C 0.02622 0.46063 0.65889 0.0
C386 C 0.94927 0.50565 0.69827 0.0
C387 C 0.03726 0.5688 0.55965 0.0
C388 C 0.06515 0.58894 0.56028 0.0
C389 C 0.07795 0.5988 0.65194 0.0
C390 C 0.10876 0.60996 0.65551 0.0
C391 C 0.12721 0.61101 0.56767 0.0
C392 C 0.11288 0.60461 0.47473 0.0
C393 C 0.08219 0.59334 0.47135 0.0
C394 C 0.99882 0.554 0.87069 0.0
C395 C 0.07484 0.50914 0.82771 0.0
O396 O 1.00903 0.43941 0.90618 0.0
O397 O 0.98195 0.47779 0.97002 0.0
O398 O 0.03624 0.45167 0.74589 0.0
O399 O 1.00613 0.48229 0.67183 0.0
O400 O 0.95797 0.49361 0.78615 0.0
O401 O 0.97071 0.51796 0.638 0.0
O402 O 0.01515 0.57609 0.62378 0.0
O403 O 0.04339 0.53856 0.56045 0.0
O404 O 0.98828 0.56335 0.78473 0.0
O405 O 0.01853 0.53234 0.85438 0.0
O406 O 0.06628 0.52068 0.73911 0.0
O407 O 0.05314 0.4976 0.88832 0.0
H408 H 0.95204 0.41748 0.8422 0.0
H409 H 0.90427 0.38771 0.88097 0.0
H410 H 0.92014 0.40301 0.19826 0.0
H411 H 0.96832 0.43078 0.15846 0.0
H412 H 0.06515 0.59541 0.72179 0.0
H413 H 0.11905 0.61492 0.72797 0.0
H414 H 0.12637 0.60475 0.40549 0.0
H415 H 0.07284 0.58546 0.40032 0.0
C416 C 0.12914 0.05148 0.52771 0.0
C417 C 0.12576 0.03479 0.43728 0.0
H418 H 0.1119 0.05992 0.67696 0.0
C419 C 0.10046 0.01358 0.4295 0.0
H420 H 0.14834 0.06791 0.53678 0.0
C421 C 0.07914 1.00935 0.51002 0.0
C422 C 0.083 0.02575 0.60085 0.0
H423 H 0.0969 1.00062 0.36067 0.0
H424 H 0.05989 0.99295 0.50168 0.0
C425 C 0.10824 0.04687 0.60834 0.0
C426 C 0.52101 0.12482 0.49507 0.0
C427 C 0.49524 0.1213 0.4298 0.0
H428 H 0.54556 0.10758 0.62532 0.0
C429 C 0.47496 0.09554 0.44773 0.0
H430 H 0.53711 0.14432 0.4858 0.0
C431 C 0.47951 0.07479 0.52911 0.0
C432 C 0.50481 0.07876 0.59489 0.0
H433 H 0.45525 0.09138 0.39908 0.0
H434 H 0.46298 0.05579 0.54114 0.0
C435 C 0.52574 0.10381 0.57612 0.0
C436 C 0.41398 0.51373 0.4576 0.0
C437 C 0.40275 0.48399 0.42719 0.0
H438 H 0.44351 0.53949 0.55893 0.0
C439 C 0.41619 0.45694 0.47299 0.0
H440 H 0.40444 0.53527 0.42582 0.0
C441 C 0.43764 0.45958 0.55217 0.0
C442 C 0.44738 0.48926 0.58526 0.0
H443 H 0.40948 0.43351 0.45003 0.0
H444 H 0.44634 0.43835 0.58855 0.0
C445 C 0.43628 0.51628 0.53484 0.0
C446 C 1.00756 0.41722 0.41433 0.0
C447 C 0.03346 0.39649 0.40627 0.0
H448 H 0.98523 0.45451 0.49867 0.0
C449 C 0.05688 0.39789 0.48045 0.0
H450 H 0.98921 0.41692 0.35822 0.0
C451 C 0.05449 0.41904 0.56064 0.0
C452 C 0.02887 0.43993 0.56871 0.0
H453 H 0.07706 0.38223 0.47713 0.0
H454 H 0.07282 0.41899 0.61687 0.0
C455 C 1.00545 0.43896 0.49416 0.0
C456 C 0.92059 1.01116 0.09807 0.0
C457 C 0.88814 1.00614 0.08238 0.0
H458 H 0.96691 0.01427 0.03332 0.0
C459 C 0.87859 0.99793 0.98468 0.0
H460 H 0.92932 0.01669 0.17209 0.0
C461 C 0.90049 0.99593 0.90518 0.0
C462 C 0.93257 1.00233 0.9206 0.0
H463 H 0.85399 0.99413 0.96838 0.0
H464 H 0.89208 0.99031 0.83078 0.0
C465 C 0.94237 1.00951 0.01842 0.0
C466 C 0.47612 0.88816 0.02146 0.0
C467 C 0.50166 0.8879 0.08791 0.0
H468 H 0.45545 0.90783 0.88878 0.0
C469 C 0.52691 0.90852 0.06865 0.0
H470 H 0.45626 0.87271 0.03464 0.0
C471 C 0.52625 0.92929 0.98511 0.0
C472 C 0.50054 0.92938 0.91872 0.0
H473 H 0.54675 0.90904 0.11927 0.0
H474 H 0.54578 0.94516 0.97241 0.0
C475 C 0.47567 0.90838 0.93791 0.0
C476 C 0.59552 0.50251 0.1192 0.0
C477 C 0.62806 0.5086 0.11054 0.0
H478 H 0.55096 0.49927 0.04464 0.0
C479 C 0.63956 0.51917 0.01667 0.0
H480 H 0.5854 0.49506 0.19027 0.0
C481 C 0.61952 0.52216 0.93348 0.0
C482 C 0.58747 0.51437 0.94134 0.0
H483 H 0.66436 0.52381 1.00582 0.0
H484 H 0.62946 0.52938 0.86187 0.0
C485 C 0.5756 0.50514 0.03572 0.0
C486 C 0.02627 0.59466 0.10903 0.0
C487 C 1.00385 0.6191 0.12185 0.0
H488 H 0.04194 0.55495 0.02258 0.0
C489 C 0.97882 0.62061 0.05266 0.0
H490 H 0.04648 0.59272 0.15771 0.0
C491 C 0.97679 0.59909 0.97277 0.0
C492 C 0.9994 0.57506 0.9603 0.0
H493 H 0.9607 0.63846 0.05959 0.0
H494 H 0.95759 0.60143 0.92006 0.0
C495 C 0.02387 0.57287 0.03044 0.0
C496 C 0.10384 0.17104 0.36736 0.0
C497 C 0.10173 0.17976 0.26554 0.0
H498 H 0.08743 0.13982 0.48324 0.0
C499 C 0.08773 0.15866 0.19796 0.0
H500 H 0.11512 0.18641 0.42082 0.0
C501 C 0.07208 0.13195 0.23367 0.0
C502 C 0.07 0.12614 0.33727 0.0
H503 H 0.0856 0.16451 0.11894 0.0
H504 H 0.05888 0.11784 0.18124 0.0
C505 C 0.08789 0.1445 0.40311 0.0
C506 C 0.35684 0.10407 0.33627 0.0
C507 C 0.34539 0.1008 0.23812 0.0
H508 H 0.3896 0.08716 0.44575 0.0
C509 C 0.36385 0.08437 0.16728 0.0
H510 H 0.34366 0.11732 0.39175 0.0
C511 C 0.39037 0.06741 0.19815 0.0
C512 C 0.3983 0.06621 0.30005 0.0
H513 H 0.35593 0.08149 0.09069 0.0
H514 H 0.40262 0.05271 0.14447 0.0
C515 C 0.38297 0.08665 0.36727 0.0
C516 C 0.44559 0.36068 0.21249 0.0
C517 C 0.43024 0.341 0.28279 0.0
H518 H 0.47746 0.39906 0.1903 0.0
C519 C 0.42945 0.35005 0.38413 0.0
H520 H 0.44673 0.3545 0.13372 0.0
C521 C 0.44778 0.37517 0.41656 0.0
C522 C 0.46667 0.39194 0.34785 0.0
H523 H 0.41722 0.33581 0.43966 0.0
H524 H 0.44891 0.38004 0.49627 0.0
C525 C 0.46359 0.38607 0.24489 0.0
C526 C 0.20888 0.60688 0.46975 0.0
C527 C 0.21935 0.5807 0.52596 0.0
H528 H 0.17076 0.63882 0.44247 0.0
C529 C 0.20438 0.57365 0.61762 0.0
H530 H 0.2202 0.61329 0.39946 0.0
C531 C 0.17575 0.58798 0.64138 0.0
C532 C 0.162 0.60961 0.57373 0.0
H533 H 0.21252 0.55416 0.66389 0.0
H534 H 0.16257 0.57862 0.70466 0.0
C535 C 0.18037 0.62144 0.49404 0.0
C536 C 0.1338 0.83549 0.25483 0.0
C537 C 0.12623 0.81081 0.18922 0.0
H538 H 0.13657 0.88534 0.2749 0.0
C539 C 0.124 0.81758 0.08589 0.0
H540 H 0.13634 0.83133 0.33472 0.0
C541 C 0.12267 0.84882 0.05231 0.0
C542 C 0.12461 0.87372 0.12132 0.0
H543 H 0.11951 0.79897 0.03257 0.0
H544 H 0.11657 0.85311 0.97455 0.0
C545 C 0.13338 0.86668 0.22074 0.0
C546 C 0.66258 0.10354 0.33831 0.0
C547 C 0.6873 0.11598 0.27987 0.0
H548 H 0.61492 0.08831 0.3419 0.0
C549 C 0.68039 0.12935 0.18564 0.0
H550 H 0.66709 0.09272 0.41083 0.0
C551 C 0.65014 0.12693 0.14591 0.0
C552 C 0.62642 0.11082 0.19939 0.0
H553 H 0.6989 0.13948 0.13959 0.0
H554 H 0.64597 0.13559 0.07038 0.0
C555 C 0.63247 0.10094 0.29844 0.0
C556 C 0.38278 0.67524 0.23382 0.0
C557 C 0.39363 0.69984 0.17139 0.0
H558 H 0.37602 0.62558 0.25044 0.0
C559 C 0.39823 0.69373 0.06866 0.0
H560 H 0.37835 0.67899 0.31302 0.0
C561 C 0.39831 0.66278 0.03383 0.0
C562 C 0.3928 0.63752 0.10073 0.0
H563 H 0.40529 0.71241 0.01748 0.0
H564 H 0.40618 0.65874 0.95751 0.0
C565 C 0.38195 0.64437 0.19822 0.0
C566 C 0.8196 0.39457 0.04286 0.0
C567 C 0.81357 0.38728 0.14435 0.0
H568 H 0.85448 0.40286 0.93078 0.0
C569 C 0.83744 0.37252 0.20063 0.0
H570 H 0.80138 0.40465 0.99584 0.0
C571 C 0.86786 0.37008 0.16154 0.0
C572 C 0.87513 0.38322 0.06692 0.0
H573 H 0.83373 0.36596 0.27851 0.0
H574 H 0.88624 0.36083 0.20961 0.0
C575 C 0.8502 0.39306 1.00486 0.0
C576 C 1.00876 0.16392 0.82274 0.0
C577 C 0.01489 0.17145 0.92414 0.0
H578 H 1.00327 0.12775 0.71169 0.0
C579 C 0.01953 0.14605 0.99154 0.0
H580 H 1.00452 0.18241 0.76797 0.0
C581 C 0.01848 0.11458 0.95904 0.0
C582 C 0.01284 0.10715 0.85766 0.0
H583 H 0.0248 0.15034 0.06961 0.0
H584 H 0.02247 0.09601 0.01387 0.0
C585 C 1.00787 0.13235 0.79008 0.0
C586 C 0.3512 1.00785 0.82519 0.0
C587 C 0.34431 1.01157 0.92857 0.0
H588 H 0.3865 1.00395 0.70961 0.0
C589 C 0.3701 0.01254 0.99481 0.0
H590 H 0.33247 1.00604 0.77084 0.0
C591 C 0.40129 1.01102 0.95919 0.0
C592 C 0.40803 1.00841 0.85587 0.0
H593 H 0.3664 0.01537 0.07456 0.0
H594 H 0.42023 0.0123 0.0132 0.0
C595 C 0.38245 1.00642 0.7895 0.0
C596 C 0.50891 0.36808 0.99459 0.0
C597 C 0.51104 0.34275 0.92684 0.0
H598 H 0.50811 0.41802 0.01655 0.0
C599 C 0.51527 0.3503 0.82392 0.0
H600 H 0.50528 0.36375 0.07391 0.0
C601 C 0.5167 0.38194 0.79033 0.0
C602 C 0.51393 0.40707 0.85847 0.0
H603 H 0.51747 0.33178 0.76876 0.0
H604 H 0.51961 0.38666 0.71082 0.0
C605 C 0.51027 0.39952 0.96116 0.0
C606 C 0.16508 0.50898 0.84035 0.0
C607 C 0.17005 0.51116 0.94474 0.0
H608 H 0.1311 0.50769 0.72033 0.0
C609 C 0.14366 0.51401 1.00804 0.0
H610 H 0.18495 0.50682 0.7896 0.0
C611 C 0.11314 0.51375 0.96908 0.0
C612 C 0.10789 0.51135 0.86511 0.0
H613 H 0.14661 0.51558 0.08868 0.0
H614 H 0.0935 0.51533 0.02103 0.0
C615 C 0.13428 0.50959 0.80074 0.0
C616 C 1.0054 0.87567 0.52959 0.0
C617 C 1.00946 0.85 0.5965 0.0
H618 H 1.00087 0.92575 0.5099 0.0
C619 C 0.01135 0.85708 0.70017 0.0
H620 H 1.00448 0.87197 0.44934 0.0
C621 C 1.01024 0.88842 0.7348 0.0
C622 C 1.00638 0.91383 0.66748 0.0
H623 H 0.01367 0.83845 0.75557 0.0
H624 H 0.0122 0.89272 0.81465 0.0
C625 C 1.00359 0.90688 0.56451 0.0
C626 C 0.65678 1.01166 0.67748 0.0
C627 C 0.66378 0.99747 0.58417 0.0
H628 H 0.62171 0.02319 0.78835 0.0
C629 C 0.63894 0.98266 0.53334 0.0
H630 H 0.67486 0.02386 0.71869 0.0
C631 C 0.60824 0.98255 0.57326 0.0
C632 C 0.60121 0.99717 0.66563 0.0
H633 H 0.64314 0.97108 0.46225 0.0
H634 H 0.58989 0.97121 0.5307 0.0
C635 C 0.62606 1.01145 0.71757 0.0
C636 C 0.51706 0.63979 0.53174 0.0
C637 C 0.51111 0.66507 0.59777 0.0
H638 H 0.5241 0.59003 0.51347 0.0
C639 C 0.50845 0.65764 0.70144 0.0
H640 H 0.51863 0.6437 0.4515 0.0
C641 C 0.51056 0.62629 0.73676 0.0
C642 C 0.51632 0.60129 0.67024 0.0
H643 H 0.50471 0.67599 0.7563 0.0
H644 H 0.50791 0.62166 0.8165 0.0
C645 C 0.51994 0.60862 0.56743 0.0
C646 C 0.85974 0.4968 0.69761 0.0
C647 C 0.85242 0.49917 0.59423 0.0
H648 H 0.89557 0.49645 0.81123 0.0
C649 C 0.87762 0.50419 0.52665 0.0
H650 H 0.84136 0.49361 0.75321 0.0
C651 C 0.90871 0.50665 0.56078 0.0
C652 C 0.91592 0.50359 0.66351 0.0
H653 H 0.87364 0.50545 0.44651 0.0
H654 H 0.92727 0.51026 0.50588 0.0
C655 C 0.89099 0.49863 0.73149 0.0
loop_
_geom_bond_atom_site_label_1
_geom_bond_atom_site_label_2
_geom_bond_distance
_geom_bond_site_symmetry_2
_ccdc_geom_bond_type
P0 O11 1.490 . S
P0 C14 1.812 . S
P0 C20 1.803 . S
P0 C26 1.819 . S
H1 C15 0.941 . S
H2 C16 0.939 . S
H3 C18 0.940 . S
H4 C19 0.940 . S
H5 C21 0.939 . S
H6 C22 0.942 . S
H7 C24 0.940 . S
H8 C25 0.939 . S
H9 C27 0.941 . S
H10 C31 0.939 . S
O11 P0 1.490 . S
H12 C28 0.939 . S
H13 C30 0.940 . S
C14 P0 1.812 . S
C14 C15 1.389 . S
C14 C19 1.391 . S
C15 H1 0.941 . S
C15 C14 1.389 . S
C15 C16 1.397 . S
C16 H2 0.939 . S
C16 C15 1.397 . S
C16 C17 1.378 . S
C17 C16 1.378 . S
C17 C18 1.378 . S
C18 H3 0.940 . S
C18 C17 1.378 . S
C18 C19 1.396 . S
C19 H4 0.940 . S
C19 C14 1.391 . S
C19 C18 1.396 . S
C20 P0 1.803 . S
C20 C21 1.378 . S
C20 C25 1.400 . S
C21 H5 0.939 . S
C21 C20 1.378 . S
C21 C22 1.361 . S
C22 H6 0.942 . S
C22 C21 1.361 . S
C22 C23 1.369 . S
C23 C22 1.369 . S
C23 C24 1.404 . S
C24 H7 0.940 . S
C24 C23 1.404 . S
C24 C25 1.389 . S
C25 H8 0.939 . S
C25 C20 1.400 . S
C25 C24 1.389 . S
C26 P0 1.819 . S
C26 C27 1.391 . S
C26 C31 1.391 . S
C27 H9 0.941 . S
C27 C26 1.391 . S
C27 C28 1.396 . S
C28 H12 0.939 . S
C28 C27 1.396 . S
C28 C29 1.397 . S
C29 C28 1.397 . S
C29 C30 1.385 . S
C30 H13 0.940 . S
C30 C29 1.385 . S
C30 C31 1.388 . S
C31 H10 0.939 . S
C31 C26 1.391 . S
C31 C30 1.388 . S
P32 O43 1.490 . S
P32 C46 1.812 . S
P32 C52 1.803 . S
P32 C58 1.819 . S
H33 C47 0.941 . S
H34 C48 0.939 . S
H35 C50 0.940 . S
H36 C51 0.950 . S
H37 C53 0.939 . S
H38 C54 0.942 . S
H39 C56 0.940 . S
H40 C57 0.959 . S
H41 C59 0.941 . S
H42 C63 0.929 1_655 S
O43 P32 1.490 . S
H44 C60 0.939 . S
H45 C62 0.940 . S
C46 P32 1.812 . S
C46 C47 1.389 . S
C46 C51 1.375 1_455 S
C47 H33 0.941 . S
C47 C46 1.389 . S
C47 C48 1.397 . S
C48 H34 0.939 . S
C48 C47 1.397 . S
C48 C49 1.378 . S
C49 C48 1.378 . S
C49 C50 1.378 1_455 S
C50 H35 0.940 . S
C50 C49 1.378 1_655 S
C50 C51 1.403 . S
C51 H36 0.950 . S
C51 C46 1.375 1_655 S
C51 C50 1.403 . S
C52 P32 1.803 . S
C52 C53 1.378 . S
C52 C57 1.368 1_455 S
C53 H37 0.939 . S
C53 C52 1.378 . S
C53 C54 1.361 . S
C54 H38 0.942 . S
C54 C53 1.361 . S
C54 C55 1.369 . S
C55 C54 1.369 . S
C55 C56 1.404 1_455 S
C56 H39 0.940 . S
C56 C55 1.404 1_655 S
C56 C57 1.402 . S
C57 H40 0.959 . S
C57 C52 1.368 1_655 S
C57 C56 1.402 . S
C58 P32 1.819 . S
C58 C59 1.391 . S
C58 C63 1.391 . S
C59 H41 0.941 . S
C59 C58 1.391 . S
C59 C60 1.396 . S
C60 H44 0.939 . S
C60 C59 1.396 . S
C60 C61 1.397 . S
C61 C60 1.397 . S
C61 C62 1.385 1_455 S
C62 H45 0.940 . S
C62 C61 1.385 1_655 S
C62 C63 1.388 1_655 S
C63 H42 0.929 1_455 S
C63 C58 1.391 . S
C63 C62 1.388 1_455 S
P64 O75 1.490 . S
P64 C78 1.812 . S
P64 C84 1.803 . S
P64 C90 1.819 . S
H65 C79 0.941 . S
H66 C80 0.939 . S
H67 C82 0.940 . S
H68 C83 0.950 . S
H69 C85 0.939 . S
H70 C86 0.942 . S
H71 C88 0.940 . S
H72 C89 0.959 . S
H73 C91 0.941 . S
H74 C95 0.929 1_565 S
O75 P64 1.490 . S
H76 C92 0.939 . S
H77 C94 0.940 . S
C78 P64 1.812 . S
C78 C79 1.389 . S
C78 C83 1.375 1_545 S
C79 H65 0.941 . S
C79 C78 1.389 . S
C79 C80 1.397 . S
C80 H66 0.939 . S
C80 C79 1.397 . S
C80 C81 1.378 . S
C81 C80 1.378 . S
C81 C82 1.378 1_545 S
C82 H67 0.940 . S
C82 C81 1.378 1_565 S
C82 C83 1.402 . S
C83 H68 0.950 . S
C83 C78 1.375 1_565 S
C83 C82 1.402 . S
C84 P64 1.803 . S
C84 C85 1.378 . S
C84 C89 1.368 1_545 S
C85 H69 0.939 . S
C85 C84 1.378 . S
C85 C86 1.361 . S
C86 H70 0.942 . S
C86 C85 1.361 . S
C86 C87 1.369 . S
C87 C86 1.369 . S
C87 C88 1.404 1_545 S
C88 H71 0.940 . S
C88 C87 1.404 1_565 S
C88 C89 1.402 . S
C89 H72 0.959 . S
C89 C84 1.368 1_565 S
C89 C88 1.402 . S
C90 P64 1.819 . S
C90 C91 1.391 . S
C90 C95 1.391 . S
C91 H73 0.941 . S
C91 C90 1.391 . S
C91 C92 1.396 . S
C92 H76 0.939 . S
C92 C91 1.396 . S
C92 C93 1.397 . S
C93 C92 1.397 . S
C93 C94 1.385 1_545 S
C94 H77 0.940 . S
C94 C93 1.385 1_565 S
C94 C95 1.388 1_565 S
C95 H74 0.929 1_545 S
C95 C90 1.391 . S
C95 C94 1.388 1_545 S
P96 O107 1.490 . S
P96 C110 1.812 . S
P96 C116 1.803 . S
P96 C122 1.819 . S
H97 C111 0.941 . S
H98 C112 0.939 . S
H99 C114 0.940 . S
H100 C115 0.940 . S
H101 C117 0.939 . S
H102 C118 0.942 . S
H103 C120 0.940 . S
H104 C121 0.939 . S
H105 C123 0.941 . S
H106 C127 0.939 . S
O107 P96 1.490 . S
H108 C124 0.939 . S
H109 C126 0.940 . S
C110 P96 1.812 . S
C110 C111 1.389 . S
C110 C115 1.391 . S
C111 H97 0.941 . S
C111 C110 1.389 . S
C111 C112 1.397 . S
C112 H98 0.939 . S
C112 C111 1.397 . S
C112 C113 1.378 . S
C113 C112 1.378 . S
C113 C114 1.378 . S
C114 H99 0.940 . S
C114 C113 1.378 . S
C114 C115 1.396 . S
C115 H100 0.940 . S
C115 C110 1.391 . S
C115 C114 1.396 . S
C116 P96 1.803 . S
C116 C117 1.378 . S
C116 C121 1.400 . S
C117 H101 0.939 . S
C117 C116 1.378 . S
C117 C118 1.361 . S
C118 H102 0.942 . S
C118 C117 1.361 . S
C118 C119 1.369 . S
C119 C118 1.369 . S
C119 C120 1.404 . S
C120 H103 0.940 . S
C120 C119 1.404 . S
C120 C121 1.389 . S
C121 H104 0.939 . S
C121 C116 1.400 . S
C121 C120 1.389 . S
C122 P96 1.819 . S
C122 C123 1.391 . S
C122 C127 1.391 . S
C123 H105 0.941 . S
C123 C122 1.391 . S
C123 C124 1.396 . S
C124 H108 0.939 . S
C124 C123 1.396 . S
C124 C125 1.397 . S
C125 C124 1.397 . S
C125 C126 1.385 . S
C126 H109 0.940 . S
C126 C125 1.385 . S
C126 C127 1.388 . S
C127 H106 0.939 . S
C127 C122 1.391 . S
C127 C126 1.388 . S
P128 O139 1.490 . S
P128 C142 1.812 1_554 S
P128 C148 1.803 . S
P128 C154 1.819 . S
H129 C143 0.941 . S
H130 C144 0.939 . S
H131 C146 0.940 . S
H132 C147 0.940 . S
H133 C149 0.939 . S
H134 C150 0.942 . S
H135 C152 0.940 . S
H136 C153 0.939 . S
H137 C155 0.941 . S
H138 C159 0.939 . S
O139 P128 1.490 . S
H140 C156 0.939 . S
H141 C158 0.940 . S
C142 P128 1.812 1_556 S
C142 C143 1.389 . S
C142 C147 1.391 . S
C143 H129 0.941 . S
C143 C142 1.389 . S
C143 C144 1.397 . S
C144 H130 0.939 . S
C144 C143 1.397 . S
C144 C145 1.378 . S
C145 C144 1.378 . S
C145 C146 1.378 . S
C146 H131 0.940 . S
C146 C145 1.378 . S
C146 C147 1.396 . S
C147 H132 0.940 . S
C147 C142 1.391 . S
C147 C146 1.396 . S
C148 P128 1.803 . S
C148 C149 1.378 . S
C148 C153 1.400 . S
C149 H133 0.939 . S
C149 C148 1.378 . S
C149 C150 1.361 . S
C150 H134 0.942 . S
C150 C149 1.361 . S
C150 C151 1.369 . S
C151 C150 1.369 . S
C151 C152 1.404 . S
C152 H135 0.940 . S
C152 C151 1.404 . S
C152 C153 1.389 . S
C153 H136 0.939 . S
C153 C148 1.400 . S
C153 C152 1.389 . S
C154 P128 1.819 . S
C154 C155 1.391 . S
C154 C159 1.391 . S
C155 H137 0.941 . S
C155 C154 1.391 . S
C155 C156 1.396 . S
C156 H140 0.939 . S
C156 C155 1.396 . S
C156 C157 1.397 . S
C157 C156 1.397 . S
C157 C158 1.385 . S
C158 H141 0.940 . S
C158 C157 1.385 . S
C158 C159 1.388 . S
C159 H138 0.939 . S
C159 C154 1.391 . S
C159 C158 1.388 . S
P160 O171 1.490 . S
P160 C174 1.812 1_554 S
P160 C180 1.803 . S
P160 C186 1.819 . S
H161 C175 0.941 . S
H162 C176 0.939 . S
H163 C178 0.940 . S
H164 C179 0.945 . S
H165 C181 0.939 . S
H166 C182 0.942 . S
H167 C184 0.940 . S
H168 C185 0.954 . S
H169 C187 0.941 . S
H170 C191 0.932 1_655 S
O171 P160 1.490 . S
H172 C188 0.939 . S
H173 C190 0.940 . S
C174 P160 1.812 1_556 S
C174 C175 1.389 . S
C174 C179 1.383 1_455 S
C175 H161 0.941 . S
C175 C174 1.389 . S
C175 C176 1.397 . S
C176 H162 0.939 . S
C176 C175 1.397 . S
C176 C177 1.378 . S
C177 C176 1.378 . S
C177 C178 1.378 1_455 S
C178 H163 0.940 . S
C178 C177 1.378 1_655 S
C178 C179 1.400 . S
C179 H164 0.945 . S
C179 C174 1.383 1_655 S
C179 C178 1.400 . S
C180 P160 1.803 . S
C180 C181 1.378 . S
C180 C185 1.376 1_455 S
C181 H165 0.939 . S
C181 C180 1.378 . S
C181 C182 1.361 . S
C182 H166 0.942 . S
C182 C181 1.361 . S
C182 C183 1.369 . S
C183 C182 1.369 . S
C183 C184 1.404 1_455 S
C184 H167 0.940 . S
C184 C183 1.404 1_655 S
C184 C185 1.399 . S
C185 H168 0.954 . S
C185 C180 1.376 1_655 S
C185 C184 1.399 . S
C186 P160 1.819 . S
C186 C187 1.391 . S
C186 C191 1.391 . S
C187 H169 0.941 . S
C187 C186 1.391 . S
C187 C188 1.396 . S
C188 H172 0.939 . S
C188 C187 1.396 . S
C188 C189 1.397 . S
C189 C188 1.397 . S
C189 C190 1.385 1_455 S
C190 H173 0.940 . S
C190 C189 1.385 1_655 S
C190 C191 1.388 1_655 S
C191 H170 0.932 1_455 S
C191 C186 1.391 . S
C191 C190 1.388 1_455 S
P192 O203 1.490 . S
P192 C206 1.812 1_554 S
P192 C212 1.803 . S
P192 C218 1.819 . S
H193 C207 0.941 . S
H194 C208 0.939 . S
H195 C210 0.940 . S
H196 C211 0.945 . S
H197 C213 0.939 . S
H198 C214 0.942 . S
H199 C216 0.940 . S
H200 C217 0.954 . S
H201 C219 0.941 . S
H202 C223 0.932 1_565 S
O203 P192 1.490 . S
H204 C220 0.939 . S
H205 C222 0.940 . S
C206 P192 1.812 1_556 S
C206 C207 1.389 . S
C206 C211 1.383 1_545 S
C207 H193 0.941 . S
C207 C206 1.389 . S
C207 C208 1.397 . S
C208 H194 0.939 . S
C208 C207 1.397 . S
C208 C209 1.378 . S
C209 C208 1.378 . S
C209 C210 1.378 1_545 S
C210 H195 0.940 . S
C210 C209 1.378 1_565 S
C210 C211 1.400 . S
C211 H196 0.945 . S
C211 C206 1.383 1_565 S
C211 C210 1.400 . S
C212 P192 1.803 . S
C212 C213 1.378 . S
C212 C217 1.376 1_545 S
C213 H197 0.939 . S
C213 C212 1.378 . S
C213 C214 1.361 . S
C214 H198 0.942 . S
C214 C213 1.361 . S
C214 C215 1.369 . S
C215 C214 1.369 . S
C215 C216 1.404 1_545 S
C216 H199 0.940 . S
C216 C215 1.404 1_565 S
C216 C217 1.398 . S
C217 H200 0.954 . S
C217 C212 1.376 1_565 S
C217 C216 1.398 . S
C218 P192 1.819 . S
C218 C219 1.391 . S
C218 C223 1.391 . S
C219 H201 0.941 . S
C219 C218 1.391 . S
C219 C220 1.396 . S
C220 H204 0.939 . S
C220 C219 1.396 . S
C220 C221 1.397 . S
C221 C220 1.397 . S
C221 C222 1.385 1_545 S
C222 H205 0.940 . S
C222 C221 1.385 1_565 S
C222 C223 1.388 1_565 S
C223 H202 0.932 1_545 S
C223 C218 1.391 . S
C223 C222 1.388 1_545 S
P224 O235 1.490 . S
P224 C238 1.812 1_554 S
P224 C244 1.803 . S
P224 C250 1.819 . S
H225 C239 0.941 . S
H226 C240 0.939 . S
H227 C242 0.940 . S
H228 C243 0.940 . S
H229 C245 0.939 . S
H230 C246 0.942 . S
H231 C248 0.940 . S
H232 C249 0.939 . S
H233 C251 0.941 . S
H234 C255 0.939 . S
O235 P224 1.490 . S
H236 C252 0.939 . S
H237 C254 0.940 . S
C238 P224 1.812 1_556 S
C238 C239 1.389 . S
C238 C243 1.391 . S
C239 H225 0.941 . S
C239 C238 1.389 . S
C239 C240 1.397 . S
C240 H226 0.939 . S
C240 C239 1.397 . S
C240 C241 1.378 . S
C241 C240 1.378 . S
C241 C242 1.378 . S
C242 H227 0.940 . S
C242 C241 1.378 . S
C242 C243 1.396 . S
C243 H228 0.940 . S
C243 C238 1.391 . S
C243 C242 1.396 . S
C244 P224 1.803 . S
C244 C245 1.378 . S
C244 C249 1.400 . S
C245 H229 0.939 . S
C245 C244 1.378 . S
C245 C246 1.361 . S
C246 H230 0.942 . S
C246 C245 1.361 . S
C246 C247 1.369 . S
C247 C246 1.369 . S
C247 C248 1.404 . S
C248 H231 0.940 . S
C248 C247 1.404 . S
C248 C249 1.389 . S
C249 H232 0.939 . S
C249 C244 1.400 . S
C249 C248 1.389 . S
C250 P224 1.819 . S
C250 C251 1.391 . S
C250 C255 1.391 . S
C251 H233 0.941 . S
C251 C250 1.391 . S
C251 C252 1.396 . S
C252 H236 0.939 . S
C252 C251 1.396 . S
C252 C253 1.397 . S
C253 C252 1.397 . S
C253 C254 1.385 . S
C254 H237 0.940 . S
C254 C253 1.385 . S
C254 C255 1.388 . S
C255 H234 0.939 . S
C255 C250 1.391 . S
C255 C254 1.388 . S
La256 C258 2.928 . S
La256 O276 2.521 . S
La256 O277 2.628 . S
La256 O278 2.554 . S
La256 O279 2.757 1_565 S
La256 O280 2.470 . S
La256 O285 2.482 1_455 S
La256 O287 2.503 1_565 S
La257 C267 2.928 . S
La257 O279 2.482 1_655 S
La257 O281 2.503 1_545 S
La257 O282 2.521 . S
La257 O283 2.628 . S
La257 O284 2.554 . S
La257 O285 2.757 1_545 S
La257 O286 2.470 . S
C258 La256 2.928 . S
C258 C259 1.503 1_556 S
C258 O276 1.261 . S
C258 O277 1.243 . S
C259 C258 1.503 1_554 S
C259 C260 1.394 . S
C259 C264 1.373 . S
C260 C259 1.394 . S
C260 C261 1.380 . S
C260 H288 0.930 1_554 S
C261 C260 1.380 . S
C261 C262 1.376 . S
C261 H289 0.930 . S
C262 C261 1.376 . S
C262 C263 1.370 . S
C263 C262 1.370 . S
C263 C264 1.396 . S
C263 H290 0.929 . S
C264 C259 1.373 . S
C264 C263 1.396 . S
C264 H291 0.929 1_455 S
C265 O278 1.240 . S
C265 O279 1.289 1_565 S
C266 O280 1.258 1_655 S
C266 O281 1.256 . S
C267 La257 2.928 . S
C267 C268 1.503 . S
C267 O282 1.261 . S
C267 O283 1.243 . S
C268 C267 1.503 . S
C268 C269 1.394 . S
C268 C273 1.373 . S
C269 C268 1.394 . S
C269 C270 1.380 . S
C269 H292 0.930 . S
C270 C269 1.380 . S
C270 C271 1.376 . S
C270 H293 0.930 . S
C271 C270 1.376 . S
C271 C272 1.370 . S
C272 C271 1.370 . S
C272 C273 1.396 . S
C272 H294 0.929 . S
C273 C268 1.373 . S
C273 C272 1.396 . S
C273 H295 0.929 1_655 S
C274 O284 1.240 . S
C274 O285 1.289 1_545 S
C275 O286 1.258 1_455 S
C275 O287 1.256 . S
O276 La256 2.521 . S
O276 C258 1.261 . S
O277 La256 2.628 . S
O277 C258 1.243 . S
O278 La256 2.554 . S
O278 C265 1.240 . S
O279 La256 2.757 1_545 S
O279 La257 2.482 1_455 S
O279 C265 1.289 1_545 S
O280 La256 2.470 . S
O280 C266 1.258 1_455 S
O281 La257 2.503 1_565 S
O281 C266 1.256 . S
O282 La257 2.521 . S
O282 C267 1.261 . S
O283 La257 2.628 . S
O283 C267 1.243 . S
O284 La257 2.554 . S
O284 C274 1.240 . S
O285 La256 2.482 1_655 S
O285 La257 2.757 1_565 S
O285 C274 1.289 1_565 S
O286 La257 2.470 . S
O286 C275 1.258 1_655 S
O287 La256 2.503 1_545 S
O287 C275 1.256 . S
H288 C260 0.930 1_556 S
H289 C261 0.930 . S
H290 C263 0.929 . S
H291 C264 0.929 1_655 S
H292 C269 0.930 . S
H293 C270 0.930 . S
H294 C272 0.929 . S
H295 C273 0.929 1_455 S
La296 C298 2.928 . S
La296 O316 2.521 . S
La296 O317 2.628 . S
La296 O318 2.554 . S
La296 O319 2.757 . S
La296 O320 2.470 . S
La296 O325 2.482 1_545 S
La296 O327 2.503 . S
La297 C307 2.928 . S
La297 O319 2.482 1_565 S
La297 O321 2.503 . S
La297 O322 2.521 . S
La297 O323 2.628 . S
La297 O324 2.554 . S
La297 O325 2.757 . S
La297 O326 2.470 . S
C298 La296 2.928 . S
C298 C299 1.503 1_556 S
C298 O316 1.261 . S
C298 O317 1.243 . S
C299 C298 1.503 1_554 S
C299 C300 1.394 . S
C299 C304 1.373 . S
C300 C299 1.394 . S
C300 C301 1.380 . S
C300 H328 0.930 1_554 S
C301 C300 1.380 . S
C301 C302 1.376 . S
C301 H329 0.930 . S
C302 C301 1.376 . S
C302 C303 1.370 . S
C303 C302 1.370 . S
C303 C304 1.396 . S
C303 H330 0.929 . S
C304 C299 1.373 . S
C304 C303 1.396 . S
C304 H331 0.929 1_545 S
C305 O318 1.240 . S
C305 O319 1.289 . S
C306 O320 1.258 1_565 S
C306 O321 1.256 . S
C307 La297 2.928 . S
C307 C308 1.503 . S
C307 O322 1.261 . S
C307 O323 1.243 . S
C308 C307 1.503 . S
C308 C309 1.394 . S
C308 C313 1.373 . S
C309 C308 1.394 . S
C309 C310 1.380 . S
C309 H332 0.930 . S
C310 C309 1.380 . S
C310 C311 1.376 . S
C310 H333 0.930 . S
C311 C310 1.376 . S
C311 C312 1.370 . S
C312 C311 1.370 . S
C312 C313 1.396 . S
C312 H334 0.929 . S
C313 C308 1.373 . S
C313 C312 1.396 . S
C313 H335 0.929 1_565 S
C314 O324 1.240 . S
C314 O325 1.289 . S
C315 O326 1.258 1_545 S
C315 O327 1.256 . S
O316 La296 2.521 . S
O316 C298 1.261 . S
O317 La296 2.628 . S
O317 C298 1.243 . S
O318 La296 2.554 . S
O318 C305 1.240 . S
O319 La296 2.757 . S
O319 La297 2.482 1_545 S
O319 C305 1.289 . S
O320 La296 2.470 . S
O320 C306 1.258 1_545 S
O321 La297 2.503 . S
O321 C306 1.256 . S
O322 La297 2.521 . S
O322 C307 1.261 . S
O323 La297 2.628 . S
O323 C307 1.243 . S
O324 La297 2.554 . S
O324 C314 1.240 . S
O325 La296 2.482 1_565 S
O325 La297 2.757 . S
O325 C314 1.289 . S
O326 La297 2.470 . S
O326 C315 1.258 1_565 S
O327 La296 2.503 . S
O327 C315 1.256 . S
H328 C300 0.930 1_556 S
H329 C301 0.930 . S
H330 C303 0.929 . S
H331 C304 0.929 1_565 S
H332 C309 0.930 . S
H333 C310 0.930 . S
H334 C312 0.929 . S
H335 C313 0.929 1_545 S
La336 C338 2.928 . S
La336 O356 2.521 . S
La336 O357 2.628 . S
La336 O358 2.554 . S
La336 O359 2.757 . S
La336 O360 2.470 . S
La336 O365 2.482 . S
La336 O367 2.503 . S
La337 C347 2.928 . S
La337 O359 2.482 . S
La337 O361 2.503 . S
La337 O362 2.521 . S
La337 O363 2.628 . S
La337 O364 2.554 . S
La337 O365 2.757 . S
La337 O366 2.470 . S
C338 La336 2.928 . S
C338 C339 1.503 1_556 S
C338 O356 1.261 . S
C338 O357 1.243 . S
C339 C338 1.503 1_554 S
C339 C340 1.394 . S
C339 C344 1.373 . S
C340 C339 1.394 . S
C340 C341 1.380 . S
C340 H368 0.930 . S
C341 C340 1.380 . S
C341 C342 1.376 . S
C341 H369 0.930 . S
C342 C341 1.376 . S
C342 C343 1.370 . S
C343 C342 1.370 . S
C343 C344 1.396 . S
C343 H370 0.929 . S
C344 C339 1.373 . S
C344 C343 1.396 . S
C344 H371 0.929 . S
C345 O358 1.240 . S
C345 O359 1.289 . S
C346 O360 1.258 . S
C346 O361 1.256 . S
C347 La337 2.928 . S
C347 C348 1.503 . S
C347 O362 1.261 . S
C347 O363 1.243 . S
C348 C347 1.503 . S
C348 C349 1.394 . S
C348 C353 1.373 . S
C349 C348 1.394 . S
C349 C350 1.380 . S
C349 H372 0.930 . S
C350 C349 1.380 . S
C350 C351 1.376 . S
C350 H373 0.930 . S
C351 C350 1.376 . S
C351 C352 1.370 . S
C352 C351 1.370 . S
C352 C353 1.396 . S
C352 H374 0.929 . S
C353 C348 1.373 . S
C353 C352 1.396 . S
C353 H375 0.929 . S
C354 O364 1.240 . S
C354 O365 1.289 . S
C355 O366 1.258 . S
C355 O367 1.256 . S
O356 La336 2.521 . S
O356 C338 1.261 . S
O357 La336 2.628 . S
O357 C338 1.243 . S
O358 La336 2.554 . S
O358 C345 1.240 . S
O359 La336 2.757 . S
O359 La337 2.482 . S
O359 C345 1.289 . S
O360 La336 2.470 . S
O360 C346 1.258 . S
O361 La337 2.503 . S
O361 C346 1.256 . S
O362 La337 2.521 . S
O362 C347 1.261 . S
O363 La337 2.628 . S
O363 C347 1.243 . S
O364 La337 2.554 . S
O364 C354 1.240 . S
O365 La336 2.482 . S
O365 La337 2.757 . S
O365 C354 1.289 . S
O366 La337 2.470 . S
O366 C355 1.258 . S
O367 La336 2.503 . S
O367 C355 1.256 . S
H368 C340 0.930 . S
H369 C341 0.930 . S
H370 C343 0.929 . S
H371 C344 0.929 . S
H372 C349 0.930 . S
H373 C350 0.930 . S
H374 C352 0.929 . S
H375 C353 0.929 . S
La376 C378 2.928 . S
La376 O396 2.521 . S
La376 O397 2.628 . S
La376 O398 2.554 . S
La376 O399 2.757 1_655 S
La376 O400 2.470 . S
La376 O405 2.482 . S
La376 O407 2.503 1_655 S
La377 C387 2.928 . S
La377 O399 2.482 . S
La377 O401 2.503 1_455 S
La377 O402 2.521 . S
La377 O403 2.628 . S
La377 O404 2.554 . S
La377 O405 2.757 1_455 S
La377 O406 2.470 . S
C378 La376 2.928 . S
C378 C379 1.503 1_556 S
C378 O396 1.261 . S
C378 O397 1.243 . S
C379 C378 1.503 1_554 S
C379 C380 1.394 . S
C379 C384 1.373 . S
C380 C379 1.394 . S
C380 C381 1.380 . S
C380 H408 0.930 . S
C381 C380 1.380 . S
C381 C382 1.376 . S
C381 H409 0.930 . S
C382 C381 1.376 . S
C382 C383 1.370 . S
C383 C382 1.370 . S
C383 C384 1.396 . S
C383 H410 0.929 . S
C384 C379 1.373 . S
C384 C383 1.396 . S
C384 H411 0.929 . S
C385 O398 1.243 . S
C385 O399 1.288 1_655 S
C386 O400 1.258 . S
C386 O401 1.256 . S
C387 La377 2.928 . S
C387 C388 1.503 . S
C387 O402 1.261 . S
C387 O403 1.243 . S
C388 C387 1.503 . S
C388 C389 1.394 . S
C388 C393 1.373 . S
C389 C388 1.394 . S
C389 C390 1.380 . S
C389 H412 0.930 . S
C390 C389 1.380 . S
C390 C391 1.376 . S
C390 H413 0.930 . S
C391 C390 1.376 . S
C391 C392 1.370 . S
C392 C391 1.370 . S
C392 C393 1.396 . S
C392 H414 0.929 . S
C393 C388 1.373 . S
C393 C392 1.396 . S
C393 H415 0.929 . S
C394 O404 1.247 . S
C394 O405 1.285 1_455 S
C395 O406 1.258 . S
C395 O407 1.256 . S
O396 La376 2.521 . S
O396 C378 1.261 . S
O397 La376 2.628 . S
O397 C378 1.243 . S
O398 La376 2.554 . S
O398 C385 1.243 . S
O399 La376 2.757 1_455 S
O399 La377 2.482 . S
O399 C385 1.288 1_455 S
O400 La376 2.470 . S
O400 C386 1.258 . S
O401 La377 2.503 1_655 S
O401 C386 1.256 . S
O402 La377 2.521 . S
O402 C387 1.261 . S
O403 La377 2.628 . S
O403 C387 1.243 . S
O404 La377 2.554 . S
O404 C394 1.247 . S
O405 La376 2.482 . S
O405 La377 2.757 1_655 S
O405 C394 1.285 1_655 S
O406 La377 2.470 . S
O406 C395 1.258 . S
O407 La376 2.503 1_455 S
O407 C395 1.256 . S
H408 C380 0.930 . S
H409 C381 0.930 . S
H410 C383 0.929 . S
H411 C384 0.929 . S
H412 C389 0.930 . S
H413 C390 0.930 . S
H414 C392 0.929 . S
H415 C393 0.929 . S
C416 C417 1.399 . S
C416 H420 0.950 . S
C416 C425 1.390 . S
C417 C416 1.399 . S
C417 C419 1.377 1_545 S
H418 C425 0.950 . S
C419 C417 1.377 1_565 S
C419 C421 1.390 . S
C419 H423 0.950 . S
H420 C416 0.950 . S
C421 C419 1.390 . S
C421 C422 1.361 1_565 S
C421 H424 0.950 . S
C422 C421 1.361 1_545 S
C422 C425 1.414 . S
H423 C419 0.950 . S
H424 C421 0.950 . S
C425 C416 1.390 . S
C425 H418 0.950 . S
C425 C422 1.414 . S
C426 C427 1.387 . S
C426 H430 0.950 . S
C426 C435 1.390 . S
C427 C426 1.387 . S
C427 C429 1.387 . S
H428 C435 0.950 . S
C429 C427 1.387 . S
C429 C431 1.390 . S
C429 H433 0.950 . S
H430 C426 0.950 . S
C431 C429 1.390 . S
C431 C432 1.387 . S
C431 H434 0.950 . S
C432 C431 1.387 . S
C432 C435 1.387 . S
H433 C429 0.950 . S
H434 C431 0.950 . S
C435 C426 1.390 . S
C435 H428 0.950 . S
C435 C432 1.387 . S
C436 C437 1.387 . S
C436 H440 0.950 . S
C436 C445 1.390 . S
C437 C436 1.387 . S
C437 C439 1.387 . S
H438 C445 0.950 . S
C439 C437 1.387 . S
C439 C441 1.390 . S
C439 H443 0.950 . S
H440 C436 0.950 . S
C441 C439 1.390 . S
C441 C442 1.387 . S
C441 H444 0.950 . S
C442 C441 1.387 . S
C442 C445 1.387 . S
H443 C439 0.950 . S
H444 C441 0.950 . S
C445 C436 1.390 . S
C445 H438 0.950 . S
C445 C442 1.387 . S
C446 C447 1.387 1_655 S
C446 H450 0.950 . S
C446 C455 1.390 . S
C447 C446 1.387 1_455 S
C447 C449 1.387 . S
H448 C455 0.950 . S
C449 C447 1.387 . S
C449 C451 1.390 . S
C449 H453 0.950 . S
H450 C446 0.950 . S
C451 C449 1.390 . S
C451 C452 1.387 . S
C451 H454 0.950 . S
C452 C451 1.387 . S
C452 C455 1.387 1_455 S
H453 C449 0.950 . S
H454 C451 0.950 . S
C455 C446 1.390 . S
C455 H448 0.950 . S
C455 C452 1.387 1_655 S
C456 C457 1.384 1_545 S
C456 H460 0.950 . S
C456 C465 1.390 . S
C457 C456 1.384 1_565 S
C457 C459 1.391 . S
H458 C465 0.950 . S
C459 C457 1.391 . S
C459 C461 1.390 . S
C459 H463 0.950 . S
H460 C456 0.950 . S
C461 C459 1.390 . S
C461 C462 1.406 . S
C461 H464 0.950 . S
C462 C461 1.406 . S
C462 C465 1.369 1_565 S
H463 C459 0.950 . S
H464 C461 0.950 . S
C465 C456 1.390 . S
C465 H458 0.950 . S
C465 C462 1.369 1_545 S
C466 C467 1.387 . S
C466 H470 0.950 . S
C466 C475 1.390 . S
C467 C466 1.387 . S
C467 C469 1.387 . S
H468 C475 0.950 . S
C469 C467 1.387 . S
C469 C471 1.390 . S
C469 H473 0.950 . S
H470 C466 0.950 . S
C471 C469 1.390 . S
C471 C472 1.387 . S
C471 H474 0.950 . S
C472 C471 1.387 . S
C472 C475 1.387 . S
H473 C469 0.950 . S
H474 C471 0.950 . S
C475 C466 1.390 . S
C475 H468 0.950 . S
C475 C472 1.387 . S
C476 C477 1.387 . S
C476 H480 0.950 . S
C476 C485 1.390 . S
C477 C476 1.387 . S
C477 C479 1.387 . S
H478 C485 0.950 . S
C479 C477 1.387 . S
C479 C481 1.390 . S
C479 H483 0.950 . S
H480 C476 0.950 . S
C481 C479 1.390 . S
C481 C482 1.387 . S
C481 H484 0.950 . S
C482 C481 1.387 . S
C482 C485 1.387 . S
H483 C479 0.950 . S
H484 C481 0.950 . S
C485 C476 1.390 . S
C485 H478 0.950 . S
C485 C482 1.387 . S
C486 C487 1.359 1_455 S
C486 H490 0.950 . S
C486 C495 1.390 . S
C487 C486 1.359 1_655 S
C487 C489 1.417 . S
H488 C495 0.950 . S
C489 C487 1.417 . S
C489 C491 1.390 . S
C489 H493 0.950 . S
H490 C486 0.950 . S
C491 C489 1.390 . S
C491 C492 1.387 . S
C491 H494 0.950 . S
C492 C491 1.387 . S
C492 C495 1.387 1_655 S
H493 C489 0.950 . S
H494 C491 0.950 . S
C495 C486 1.390 . S
C495 H488 0.950 . S
C495 C492 1.387 1_455 S
C496 C497 1.387 . S
C496 H500 0.950 . S
C496 C505 1.390 . S
C497 C496 1.387 . S
C497 C499 1.387 . S
H498 C505 0.950 . S
C499 C497 1.387 . S
C499 C501 1.390 . S
C499 H503 0.950 1_655 S
H500 C496 0.950 . S
C501 C499 1.390 . S
C501 C502 1.387 . S
C501 H504 0.950 . S
C502 C501 1.387 . S
C502 C505 1.387 . S
H503 C499 0.950 1_455 S
H504 C501 0.950 . S
C505 C496 1.390 . S
C505 H498 0.950 . S
C505 C502 1.387 . S
C506 C507 1.387 . S
C506 H510 0.950 . S
C506 C515 1.390 . S
C507 C506 1.387 . S
C507 C509 1.387 . S
H508 C515 0.950 . S
C509 C507 1.387 . S
C509 C511 1.390 . S
C509 H513 0.950 . S
H510 C506 0.950 . S
C511 C509 1.390 . S
C511 C512 1.387 . S
C511 H514 0.950 . S
C512 C511 1.387 . S
C512 C515 1.387 . S
H513 C509 0.950 . S
H514 C511 0.950 . S
C515 C506 1.390 . S
C515 H508 0.950 . S
C515 C512 1.387 . S
C516 C517 1.387 . S
C516 H520 0.950 . S
C516 C525 1.390 . S
C517 C516 1.387 . S
C517 C519 1.387 . S
H518 C525 0.950 . S
C519 C517 1.387 . S
C519 C521 1.390 . S
C519 H523 0.950 . S
H520 C516 0.950 . S
C521 C519 1.390 . S
C521 C522 1.387 . S
C521 H524 0.950 . S
C522 C521 1.387 . S
C522 C525 1.387 . S
H523 C519 0.950 . S
H524 C521 0.950 . S
C525 C516 1.390 . S
C525 H518 0.950 . S
C525 C522 1.387 . S
C526 C527 1.387 . S
C526 H530 0.950 . S
C526 C535 1.390 . S
C527 C526 1.387 . S
C527 C529 1.387 . S
H528 C535 0.950 . S
C529 C527 1.387 . S
C529 C531 1.390 . S
C529 H533 0.950 . S
H530 C526 0.950 . S
C531 C529 1.390 . S
C531 C532 1.387 . S
C531 H534 0.950 . S
C532 C531 1.387 . S
C532 C535 1.387 . S
H533 C529 0.950 . S
H534 C531 0.950 . S
C535 C526 1.390 . S
C535 H528 0.950 . S
C535 C532 1.387 . S
C536 C537 1.387 . S
C536 H540 0.950 . S
C536 C545 1.390 . S
C537 C536 1.387 . S
C537 C539 1.387 . S
H538 C545 0.950 . S
C539 C537 1.387 . S
C539 C541 1.390 . S
C539 H543 0.950 1_455 S
H540 C536 0.950 . S
C541 C539 1.390 . S
C541 C542 1.387 . S
C541 H544 0.950 . S
C542 C541 1.387 . S
C542 C545 1.387 . S
H543 C539 0.950 1_655 S
H544 C541 0.950 . S
C545 C536 1.390 . S
C545 H538 0.950 . S
C545 C542 1.387 . S
C546 C547 1.387 . S
C546 H550 0.950 . S
C546 C555 1.390 . S
C547 C546 1.387 . S
C547 C549 1.387 . S
H548 C555 0.950 . S
C549 C547 1.387 . S
C549 C551 1.390 . S
C549 H553 0.950 1_545 S
H550 C546 0.950 . S
C551 C549 1.390 . S
C551 C552 1.387 . S
C551 H554 0.950 . S
C552 C551 1.387 . S
C552 C555 1.387 . S
H553 C549 0.950 1_565 S
H554 C551 0.950 . S
C555 C546 1.390 . S
C555 H548 0.950 . S
C555 C552 1.387 . S
C556 C557 1.387 . S
C556 H560 0.950 . S
C556 C565 1.390 . S
C557 C556 1.387 . S
C557 C559 1.387 . S
H558 C565 0.950 . S
C559 C557 1.387 . S
C559 C561 1.390 . S
C559 H563 0.950 . S
H560 C556 0.950 . S
C561 C559 1.390 . S
C561 C562 1.387 . S
C561 H564 0.950 . S
C562 C561 1.387 . S
C562 C565 1.387 . S
H563 C559 0.950 . S
H564 C561 0.950 . S
C565 C556 1.390 . S
C565 H558 0.950 . S
C565 C562 1.387 . S
C566 C567 1.387 . S
C566 H570 0.950 . S
C566 C575 1.390 . S
C567 C566 1.387 . S
C567 C569 1.387 . S
H568 C575 0.952 . S
C569 C567 1.387 . S
C569 C571 1.390 . S
C569 H573 0.950 . S
H570 C566 0.950 . S
C571 C569 1.390 . S
C571 C572 1.387 . S
C571 H574 0.950 . S
C572 C571 1.387 . S
C572 C575 1.387 . S
H573 C569 0.950 . S
H574 C571 0.950 . S
C575 C566 1.390 . S
C575 H568 0.952 . S
C575 C572 1.387 . S
C576 C577 1.387 . S
C576 H580 0.950 . S
C576 C585 1.390 . S
C577 C576 1.387 . S
C577 C579 1.387 1_455 S
H578 C585 0.950 . S
C579 C577 1.387 1_655 S
C579 C581 1.390 . S
C579 H583 0.950 . S
H580 C576 0.950 . S
C581 C579 1.390 . S
C581 C582 1.387 1_655 S
C581 H584 0.950 . S
C582 C581 1.387 1_455 S
C582 C585 1.387 . S
H583 C579 0.950 . S
H584 C581 0.950 . S
C585 C576 1.390 . S
C585 H578 0.950 . S
C585 C582 1.387 . S
C586 C587 1.387 . S
C586 H590 0.950 . S
C586 C595 1.390 . S
C587 C586 1.387 . S
C587 C589 1.387 1_545 S
H588 C595 0.950 . S
C589 C587 1.387 1_565 S
C589 C591 1.387 1_565 S
C589 H593 0.950 . S
H590 C586 0.950 . S
C591 C589 1.387 1_545 S
C591 C592 1.400 . S
C591 H594 0.942 1_545 S
C592 C591 1.400 . S
C592 C595 1.387 . S
H593 C589 0.950 . S
H594 C591 0.942 1_565 S
C595 C586 1.390 . S
C595 H588 0.950 . S
C595 C592 1.387 . S
C596 C597 1.387 . S
C596 H600 0.950 . S
C596 C605 1.390 . S
C597 C596 1.387 . S
C597 C599 1.387 . S
H598 C605 0.950 . S
C599 C597 1.387 . S
C599 C601 1.390 . S
C599 H603 0.950 . S
H600 C596 0.950 . S
C601 C599 1.390 . S
C601 C602 1.387 . S
C601 H604 0.950 . S
C602 C601 1.387 . S
C602 C605 1.387 . S
H603 C599 0.950 . S
H604 C601 0.950 . S
C605 C596 1.390 . S
C605 H598 0.950 . S
C605 C602 1.387 . S
C606 C607 1.387 . S
C606 H610 0.950 . S
C606 C615 1.390 . S
C607 C606 1.387 . S
C607 C609 1.387 . S
H608 C615 0.950 . S
C609 C607 1.387 . S
C609 C611 1.390 . S
C609 H613 0.950 . S
H610 C606 0.950 . S
C611 C609 1.390 . S
C611 C612 1.387 . S
C611 H614 0.950 . S
C612 C611 1.387 . S
C612 C615 1.387 . S
H613 C609 0.950 . S
H614 C611 0.950 . S
C615 C606 1.390 . S
C615 H608 0.950 . S
C615 C612 1.387 . S
C616 C617 1.387 . S
C616 H620 0.950 1_655 S
C616 C625 1.390 . S
C617 C616 1.387 . S
C617 C619 1.387 . S
H618 C625 0.947 1_455 S
C619 C617 1.387 . S
C619 C621 1.390 . S
C619 H623 0.950 . S
H620 C616 0.950 1_455 S
C621 C619 1.390 . S
C621 C622 1.387 . S
C621 H624 0.950 . S
C622 C621 1.387 . S
C622 C625 1.387 . S
H623 C619 0.950 . S
H624 C621 0.950 . S
C625 C616 1.390 . S
C625 H618 0.947 1_655 S
C625 C622 1.387 . S
C626 C627 1.387 1_545 S
C626 H630 0.950 . S
C626 C635 1.390 . S
C627 C626 1.387 1_565 S
C627 C629 1.387 . S
H628 C635 0.950 . S
C629 C627 1.387 . S
C629 C631 1.390 . S
C629 H633 0.950 . S
H630 C626 0.950 . S
C631 C629 1.390 . S
C631 C632 1.387 . S
C631 H634 0.950 . S
C632 C631 1.387 . S
C632 C635 1.387 1_565 S
H633 C629 0.950 . S
H634 C631 0.950 . S
C635 C626 1.390 . S
C635 H628 0.950 . S
C635 C632 1.387 1_545 S
C636 C637 1.387 . S
C636 H640 0.950 . S
C636 C645 1.390 . S
C637 C636 1.387 . S
C637 C639 1.387 . S
H638 C645 0.950 . S
C639 C637 1.387 . S
C639 C641 1.390 . S
C639 H643 0.950 . S
H640 C636 0.950 . S
C641 C639 1.390 . S
C641 C642 1.387 . S
C641 H644 0.950 . S
C642 C641 1.387 . S
C642 C645 1.387 . S
H643 C639 0.950 . S
H644 C641 0.950 . S
C645 C636 1.390 . S
C645 H638 0.950 . S
C645 C642 1.387 . S
C646 C647 1.387 . S
C646 H650 0.950 . S
C646 C655 1.390 . S
C647 C646 1.387 . S
C647 C649 1.387 . S
H648 C655 0.950 . S
C649 C647 1.387 . S
C649 C651 1.390 . S
C649 H653 0.950 . S
H650 C646 0.950 . S
C651 C649 1.390 . S
C651 C652 1.387 . S
C651 H654 0.950 . S
C652 C651 1.387 . S
C652 C655 1.387 . S
H653 C649 0.950 . S
H654 C651 0.950 . S
C655 C646 1.390 . S
C655 H648 0.950 . S
C655 C652 1.387 . S
C417 C215 2.327 . S
C422 C265 2.625 1_545 S
C432 C305 2.646 . S
C427 C247 2.332 . S
C442 C345 2.654 . S
C437 C151 2.342 . S
C452 C385 2.634 1_455 S
C447 C183 2.334 . S
C462 C274 2.626 1_564 S
C457 C87 2.329 1_565 S
C467 C119 2.370 . S
C472 C314 2.647 1_554 S
C477 C23 2.382 . S
C482 C354 2.653 1_554 S
C487 C55 2.337 1_655 S
C492 C394 2.633 1_654 S
C502 C271 0.837 . S
C497 C189 0.893 1_655 S
C512 C311 0.832 . S
C507 C221 0.880 1_565 S
C522 C351 0.795 . S
C517 C253 0.828 . S
C527 C157 0.841 . S
C532 C391 0.797 . S
C537 C61 0.806 . S
C542 C262 0.839 . S
C552 C302 0.831 . S
C547 C93 0.801 . S
C562 C342 0.804 . S
C557 C125 0.790 . S
C567 C29 0.784 . S
C572 C382 0.804 . S
C577 C177 2.862 . S
C582 C275 3.288 . S
C587 C209 2.822 . S
C592 C315 3.254 . S
C602 C355 3.241 . S
C597 C241 2.796 . S
C612 C395 3.282 . S
C607 C145 2.834 . S
C617 C49 2.906 1_655 S
C622 C266 3.296 . S
C632 C306 3.254 . S
C627 C81 2.869 1_565 S
C642 C346 3.243 . S
C637 C113 2.875 . S
C647 C17 2.912 . S
C652 C386 3.285 . S
