# Generated by pormake.
# Topology anh, (6,3)-cn, num edge types: 1
# Building blocks:
#     Node 0, Type 0, BuildingBlock: MIFKUJ_clean_sbu_0, # of connection points: 6
#     Node 1, Type 0, BuildingBlock: MIFKUJ_clean_sbu_0, # of connection points: 6
#     Node 2, Type 0, BuildingBlock: MIFKUJ_clean_sbu_0, # of connection points: 6
#     Node 3, Type 1, BuildingBlock: BELTOD_clean_linker_0, # of connection points: 3
#     Node 4, Type 1, BuildingBlock: BELTOD_clean_linker_0, # of connection points: 3
#     Node 5, Type 1, BuildingBlock: BELTOD_clean_linker_0, # of connection points: 3
#     Node 6, Type 1, BuildingBlock: BELTOD_clean_linker_0, # of connection points: 3
#     Node 7, Type 1, BuildingBlock: BELTOD_clean_linker_0, # of connection points: 3
#     Node 8, Type 1, BuildingBlock: BELTOD_clean_linker_0, # of connection points: 3
#     Edge 9, Type (0, 1), BuildingBlock: FUNLAD_clean_linker_0, # of connection points: 2
#     Edge 10, Type (0, 1), BuildingBlock: FUNLAD_clean_linker_0, # of connection points: 2
#     Edge 11, Type (0, 1), BuildingBlock: FUNLAD_clean_linker_0, # of connection points: 2
#     Edge 12, Type (0, 1), BuildingBlock: FUNLAD_clean_linker_0, # of connection points: 2
#     Edge 13, Type (0, 1), BuildingBlock: FUNLAD_clean_linker_0, # of connection points: 2
#     Edge 14, Type (0, 1), BuildingBlock: FUNLAD_clean_linker_0, # of connection points: 2
#     Edge 15, Type (0, 1), BuildingBlock: FUNLAD_clean_linker_0, # of connection points: 2
#     Edge 16, Type (0, 1), BuildingBlock: FUNLAD_clean_linker_0, # of connection points: 2
#     Edge 17, Type (0, 1), BuildingBlock: FUNLAD_clean_linker_0, # of connection points: 2
#     Edge 18, Type (0, 1), BuildingBlock: FUNLAD_clean_linker_0, # of connection points: 2
#     Edge 19, Type (0, 1), BuildingBlock: FUNLAD_clean_linker_0, # of connection points: 2
#     Edge 20, Type (0, 1), BuildingBlock: FUNLAD_clean_linker_0, # of connection points: 2
#     Edge 21, Type (0, 1), BuildingBlock: FUNLAD_clean_linker_0, # of connection points: 2
#     Edge 22, Type (0, 1), BuildingBlock: FUNLAD_clean_linker_0, # of connection points: 2
#     Edge 23, Type (0, 1), BuildingBlock: FUNLAD_clean_linker_0, # of connection points: 2
#     Edge 24, Type (0, 1), BuildingBlock: FUNLAD_clean_linker_0, # of connection points: 2
#     Edge 25, Type (0, 1), BuildingBlock: FUNLAD_clean_linker_0, # of connection points: 2
#     Edge 26, Type (0, 1), BuildingBlock: FUNLAD_clean_linker_0, # of connection points: 2
# Relax obj value: 0.123
# Max RMSD: 0.177
# Mean RMSD: 0.134
data_MOF--net-anh--node1-MIFKUJ_clean_sbu_0--node2-BELTOD_clean_linker_0--edge1-FUNLAD_clean_linker_0
_symmetry_space_group_name_H-M    P1
_symmetry_Int_Tables_number       1
_symmetry_cell_setting            triclinic
loop_
_symmetry_equiv_pos_as_xyz
'x, y, z'
_cell_length_a     39.278143
_cell_length_b     39.291164
_cell_length_c     66.755664
_cell_angle_alpha  93.957511
_cell_angle_beta   90.717509
_cell_angle_gamma 120.03617
loop_
_atom_site_label
_atom_site_type_symbol
_atom_site_fract_x
_atom_site_fract_y
_atom_site_fract_z
_atom_type_partial_charge
Zn0 Zn 0.03062 0.58571 0.16972 0.0
Zn1 Zn 0.95751 0.49746 0.1671 0.0
C2 C 0.10096 0.58313 0.17673 0.0
O3 O 0.10621 0.61181 0.19004 0.0
C4 C 0.89083 0.50276 0.15587 0.0
O5 O 0.88884 0.47567 0.14243 0.0
O6 O 0.06501 0.64461 0.17003 0.0
O7 O 0.9936 0.5694 0.14515 0.0
O8 O 0.98426 0.50943 0.14087 0.0
C9 C 0.08048 0.65907 0.15384 0.0
O10 O 0.07171 0.63533 0.13735 0.0
O11 O 0.06881 0.56501 0.16596 0.0
C12 C 0.90275 0.42677 0.18219 0.0
O13 O 0.90806 0.45288 0.19711 0.0
O14 O 0.92189 0.43867 0.1665 0.0
O15 O 0.99103 0.51153 0.19276 0.0
O16 O 0.00871 0.57432 0.19722 0.0
O17 O 0.92001 0.5193 0.1687 0.0
C18 C 0.98896 0.54031 0.13347 0.0
C19 C 1.00142 0.5424 0.20443 0.0
Zn20 Zn 0.52424 0.0559 0.49508 0.0
Zn21 Zn 0.53159 0.97809 0.49426 0.0
C22 C 0.60322 0.11749 0.50824 0.0
O23 O 0.58541 0.11821 0.52465 0.0
C24 C 0.45667 0.91924 0.47747 0.0
O25 O 0.48013 0.91878 0.46372 0.0
O26 O 0.50373 0.0934 0.49431 0.0
O27 O 0.50351 0.02061 0.46904 0.0
O28 O 0.5509 0.00647 0.46943 0.0
C29 C 0.50956 0.11213 0.47875 0.0
O30 O 0.5265 0.10444 0.46364 0.0
O31 O 0.58346 0.09181 0.49373 0.0
C32 C 0.54011 0.91804 0.50944 0.0
O33 O 0.52041 0.92457 0.52348 0.0
O34 O 0.54948 0.93842 0.49438 0.0
O35 O 0.55211 0.00987 0.52084 0.0
O36 O 0.51167 0.03331 0.52229 0.0
O37 O 0.47168 0.94454 0.49265 0.0
C38 C 0.52774 0.01381 0.45967 0.0
C39 C 0.53323 0.02263 0.5311 0.0
Zn40 Zn 0.56601 0.53042 0.83785 0.0
Zn41 Zn 0.47981 0.51983 0.83278 0.0
C42 C 0.5487 0.45478 0.84858 0.0
O43 O 0.56996 0.47739 0.86455 0.0
C44 C 0.48944 0.59181 0.8207 0.0
O45 O 0.46427 0.56606 0.80664 0.0
O46 O 0.62402 0.55026 0.83932 0.0
O47 O 0.55639 0.55092 0.81314 0.0
O48 O 0.49556 0.50272 0.80681 0.0
C49 C 0.63766 0.53741 0.82547 0.0
O50 O 0.61352 0.51256 0.81082 0.0
O51 O 0.5407 0.47055 0.83459 0.0
C52 C 0.40686 0.50353 0.84691 0.0
O53 O 0.43056 0.52162 0.86295 0.0
O54 O 0.4211 0.49787 0.83087 0.0
O55 O 0.49026 0.50336 0.85938 0.0
O56 O 0.55316 0.54757 0.86418 0.0
O57 O 0.50263 0.57945 0.83425 0.0
C58 C 0.52907 0.52656 0.8006 0.0
C59 C 0.52021 0.52497 0.87124 0.0
P60 P 0.52926 0.96801 0.20611 0.0
H61 H 0.50352 0.95048 0.16371 0.0
H62 H 0.43895 0.92423 0.14624 0.0
H63 H 0.38887 0.92787 0.20311 0.0
H64 H 0.45318 0.95502 0.22022 0.0
H65 H 0.6127 0.99507 0.20359 0.0
H66 H 0.66835 0.05646 0.19409 0.0
H67 H 0.58931 0.0996 0.1809 0.0
H68 H 0.53368 0.03762 0.18999 0.0
H69 H 0.50085 0.91376 0.23751 0.0
H70 H 0.54992 0.03861 0.23322 0.0
O71 O 0.538 0.93085 0.20155 0.0
H72 H 0.49418 0.92286 0.27358 0.0
H73 H 0.54324 0.0479 0.26923 0.0
C74 C 0.48314 0.95444 0.19324 0.0
C75 C 0.47869 0.94627 0.17231 0.0
C76 C 0.44175 0.9311 0.16237 0.0
C77 C 0.40863 0.92366 0.17328 0.0
C78 C 0.41375 0.93367 0.19418 0.0
C79 C 0.45065 0.94892 0.20405 0.0
C80 C 0.56911 0.01162 0.19713 0.0
C81 C 0.60731 0.01749 0.19831 0.0
C82 C 0.63912 0.05274 0.19305 0.0
C83 C 0.63329 0.08296 0.18675 0.0
C84 C 0.59474 0.07669 0.18537 0.0
C85 C 0.56292 0.04132 0.1906 0.0
C86 C 0.52677 0.97561 0.23281 0.0
C87 C 0.51055 0.94318 0.24438 0.0
C88 C 0.50638 0.94836 0.26493 0.0
C89 C 0.51831 0.98613 0.27424 0.0
C90 C 0.53432 0.01855 0.26253 0.0
C91 C 0.53821 0.01327 0.24194 0.0
P92 P 0.64149 0.55753 0.55578 0.0
H93 H 0.65411 0.53995 0.51439 0.0
H94 H 0.62434 0.47893 0.49201 0.0
H95 H 0.54591 0.41702 0.53822 0.0
H96 H 0.57489 0.47781 0.5601 0.0
H97 H 0.67794 0.64022 0.56951 0.0
H98 H 0.66293 0.6917 0.56241 0.0
H99 H 0.57195 0.61055 0.51826 0.0
H100 H 0.58686 0.559 0.52554 0.0
H101 H 0.67163 0.54096 0.59196 0.0
H102 H 0.57184 0.5518 0.57406 0.0
O103 O 0.68973 0.57368 0.55661 0.0
H104 H 0.64796 0.52887 0.62592 0.0
H105 H 0.54825 0.54029 0.60802 0.0
C106 C 0.61704 0.51336 0.53894 0.0
C107 C 0.6302 0.51324 0.51955 0.0
C108 C 0.61325 0.47837 0.50682 0.0
C109 C 0.58283 0.44303 0.51335 0.0
C110 C 0.56886 0.44375 0.53258 0.0
C111 C 0.58576 0.4786 0.54524 0.0
C112 C 0.63391 0.59608 0.54787 0.0
C113 C 0.65526 0.63375 0.55803 0.0
C114 C 0.6465 0.663 0.55408 0.0
C115 C 0.61625 0.65501 0.53983 0.0
C116 C 0.59569 0.61755 0.52917 0.0
C117 C 0.60422 0.58812 0.53331 0.0
C118 C 0.62391 0.54809 0.58068 0.0
C119 C 0.64475 0.54096 0.59538 0.0
C120 C 0.63121 0.5341 0.61477 0.0
C121 C 0.59638 0.53391 0.61968 0.0
C122 C 0.57503 0.54001 0.60468 0.0
C123 C 0.58868 0.54698 0.58533 0.0
P124 P 0.09357 0.63714 0.89287 0.0
H125 H 0.1634 0.65988 0.86979 0.0
H126 H 0.19057 0.62209 0.85346 0.0
H127 H 0.08876 0.51379 0.86823 0.0
H128 H 0.06251 0.55221 0.88525 0.0
H129 H 0.05193 0.67922 0.90178 0.0
H130 H 0.99172 0.67353 0.88729 0.0
H131 H 0.98319 0.58522 0.84192 0.0
H132 H 0.04309 0.59068 0.85668 0.0
H133 H 0.13929 0.65212 0.93047 0.0
H134 H 0.01833 0.57931 0.90819 0.0
O135 O 0.12946 0.68423 0.89632 0.0
H136 H 0.12122 0.62754 0.96364 0.0
H137 H 1.00007 0.55434 0.94122 0.0
C138 C 0.1113 0.60885 0.87899 0.0
C139 C 0.14682 0.62801 0.86943 0.0
C140 C 0.16212 0.60624 0.85988 0.0
C141 C 0.14193 0.56479 0.85955 0.0
C142 C 0.10542 0.54565 0.86848 0.0
C143 C 0.0903 0.56754 0.87816 0.0
C144 C 0.052 0.63551 0.8803 0.0
C145 C 0.03737 0.65906 0.88853 0.0
C146 C 1.00305 0.65588 0.88018 0.0
C147 C 0.98268 0.62892 0.86343 0.0
C148 C 0.998 0.60596 0.85494 0.0
C149 C 0.03239 0.6092 0.86333 0.0
C150 C 0.08 0.61833 0.91707 0.0
C151 C 0.10884 0.63089 0.93275 0.0
C152 C 0.09851 0.61655 0.95163 0.0
C153 C 0.05914 0.5892 0.95509 0.0
C154 C 0.0305 0.57592 0.93913 0.0
C155 C 0.04092 0.59018 0.92024 0.0
P156 P 0.05485 0.48348 0.45118 0.0
H157 H 0.11844 0.5206 0.48247 0.0
H158 H 0.16547 0.58949 0.49279 0.0
H159 H 0.09756 0.6249 0.45725 0.0
H160 H 0.0511 0.55555 0.44651 0.0
H161 H 0.01779 0.40032 0.45769 0.0
H162 H 0.95293 0.35237 0.46783 0.0
H163 H 0.92294 0.44403 0.47616 0.0
H164 H 0.98882 0.49249 0.46607 0.0
H165 H 0.10742 0.50095 0.41836 0.0
H166 H 0.98855 0.47619 0.42614 0.0
O167 O 0.08381 0.46388 0.45301 0.0
H168 H 0.10054 0.50829 0.38275 0.0
H169 H 0.98124 0.48293 0.39048 0.0
C170 C 0.08161 0.5329 0.46344 0.0
C171 C 0.11312 0.54309 0.47723 0.0
C172 C 0.14005 0.58271 0.4832 0.0
C173 C 0.13586 0.61305 0.47559 0.0
C174 C 0.10232 0.60245 0.46303 0.0
C175 C 0.07543 0.56272 0.45703 0.0
C176 C 0.00849 0.4502 0.46144 0.0
C177 C 0.99773 0.41048 0.46212 0.0
C178 C 0.9605 0.38295 0.46795 0.0
C179 C 0.93276 0.39434 0.47292 0.0
C180 C 0.94364 0.43432 0.47238 0.0
C181 C 0.98132 0.46208 0.46677 0.0
C182 C 0.04822 0.48706 0.42481 0.0
C183 C 0.07964 0.49658 0.41235 0.0
C184 C 0.07566 0.50075 0.39198 0.0
C185 C 0.04022 0.49589 0.38373 0.0
C186 C 0.00898 0.48705 0.39638 0.0
C187 C 0.013 0.48279 0.41677 0.0
P188 P 0.58303 0.05458 0.78622 0.0
H189 H 0.61373 0.11846 0.81851 0.0
H190 H 0.59382 0.16626 0.82907 0.0
H191 H 0.48695 0.09981 0.7912 0.0
H192 H 0.50755 0.05229 0.78044 0.0
H193 H 0.62755 0.01665 0.79668 0.0
H194 H 0.60831 0.9505 0.80528 0.0
H195 H 0.48657 0.92129 0.8047 0.0
H196 H 0.50629 0.98805 0.79572 0.0
H197 H 0.59053 0.11084 0.75816 0.0
H198 H 0.54987 0.98618 0.75554 0.0
O199 O 0.63198 0.08235 0.78916 0.0
H200 H 0.57591 0.10513 0.722 0.0
H201 H 0.53461 0.98015 0.71946 0.0
C202 C 0.56244 0.08214 0.79845 0.0
C203 C 0.58555 0.11358 0.81284 0.0
C204 C 0.57402 0.14095 0.81892 0.0
C205 C 0.53903 0.13734 0.81074 0.0
C206 C 0.51446 0.10396 0.79749 0.0
C207 C 0.52601 0.07653 0.79147 0.0
C208 C 0.56844 0.0076 0.79588 0.0
C209 C 0.59678 0.99641 0.79881 0.0
C210 C 0.5857 0.9584 0.80379 0.0
C211 C 0.54587 0.93041 0.80577 0.0
C212 C 0.51749 0.94196 0.80317 0.0
C213 C 0.52871 0.98023 0.79824 0.0
C214 C 0.5709 0.04893 0.75962 0.0
C215 C 0.57811 0.08216 0.74982 0.0
C216 C 0.56954 0.07881 0.72917 0.0
C217 C 0.55389 0.04214 0.71785 0.0
C218 C 0.5469 0.00888 0.72772 0.0
C219 C 0.5554 0.01226 0.74842 0.0
P220 P 0.45216 0.46168 0.12033 0.0
H221 H 0.47922 0.45233 0.15936 0.0
H222 H 0.54455 0.46838 0.17236 0.0
H223 H 0.5964 0.53692 0.12193 0.0
H224 H 0.53141 0.52174 0.10941 0.0
H225 H 0.36741 0.41889 0.11642 0.0
H226 H 0.31701 0.43407 0.12659 0.0
H227 H 0.4069 0.54645 0.15528 0.0
H228 H 0.45778 0.531 0.1445 0.0
H229 H 0.46981 0.4236 0.08637 0.0
H230 H 0.44698 0.51971 0.0968 0.0
O231 O 0.43333 0.41329 0.12164 0.0
H232 H 0.47681 0.43457 0.05073 0.0
H233 H 0.45455 0.53135 0.06115 0.0
C234 C 0.50022 0.48532 0.13328 0.0
C235 C 0.5048 0.47198 0.1515 0.0
C236 C 0.5422 0.48082 0.15879 0.0
C237 C 0.57576 0.5032 0.14795 0.0
C238 C 0.57136 0.51964 0.13071 0.0
C239 C 0.53395 0.5108 0.12346 0.0
C240 C 0.41626 0.47336 0.13014 0.0
C241 C 0.37635 0.44656 0.1252 0.0
C242 C 0.34744 0.45529 0.13109 0.0
C243 C 0.35767 0.49129 0.14204 0.0
C244 C 0.39792 0.51845 0.14686 0.0
C245 C 0.42703 0.50956 0.14089 0.0
C246 C 0.45696 0.47022 0.0941 0.0
C247 C 0.46615 0.44699 0.08095 0.0
C248 C 0.47052 0.45355 0.06061 0.0
C249 C 0.46609 0.48376 0.05307 0.0
C250 C 0.45749 0.50743 0.06642 0.0
C251 C 0.4532 0.50085 0.0868 0.0
C252 C 0.12809 0.54223 0.16059 0.0
C253 C 0.1333 0.57432 0.17366 0.0
C254 C 0.15944 0.53523 0.15744 0.0
C255 C 0.19674 0.56033 0.16727 0.0
C256 C 0.20181 0.5924 0.18021 0.0
C257 C 0.17051 0.59915 0.1835 0.0
C258 C 0.23145 0.55518 0.16387 0.0
C259 C 0.2286 0.52009 0.1585 0.0
C260 C 0.26331 0.51471 0.15551 0.0
C261 C 0.25873 0.47729 0.15733 0.0
C262 C 0.28971 0.4702 0.15367 0.0
C263 C 0.32612 0.50025 0.14778 0.0
H264 H 0.30456 0.57419 0.148 0.0
C265 C 0.33104 0.53799 0.14628 0.0
C266 C 0.30001 0.54516 0.15005 0.0
H267 H 0.35841 0.56167 0.14147 0.0
H268 H 0.09991 0.5227 0.15266 0.0
H269 H 0.15455 0.51076 0.14695 0.0
H270 H 0.23017 0.61239 0.18788 0.0
H271 H 0.17578 0.62431 0.19358 0.0
H272 H 0.26041 0.58107 0.16702 0.0
H273 H 0.1997 0.49367 0.15714 0.0
H274 H 0.23092 0.45327 0.16152 0.0
H275 H 0.28494 0.44092 0.15532 0.0
C276 C 0.66026 0.15697 0.48704 0.0
C277 C 0.64472 0.14855 0.50611 0.0
C278 C 0.69846 0.1884 0.48505 0.0
C279 C 0.72209 0.21183 0.50214 0.0
C280 C 0.70698 0.2025 0.5212 0.0
C281 C 0.66862 0.17155 0.52317 0.0
C282 C 0.76292 0.24535 0.50069 0.0
C283 C 0.77436 0.26788 0.48502 0.0
C284 C 0.81512 0.30162 0.48347 0.0
C285 C 0.82104 0.33183 0.47137 0.0
C286 C 0.85906 0.36278 0.46859 0.0
C287 C 0.89219 0.36391 0.4776 0.0
H288 H 0.84517 0.28015 0.50193 0.0
C289 C 0.88627 0.33397 0.48993 0.0
C290 C 0.84826 0.30322 0.49286 0.0
H291 H 0.91117 0.33401 0.49712 0.0
H292 H 0.64262 0.13981 0.47359 0.0
H293 H 0.70951 0.19401 0.47015 0.0
H294 H 0.72466 0.21972 0.53463 0.0
H295 H 0.65764 0.16575 0.53809 0.0
H296 H 0.7834 0.25299 0.51354 0.0
H297 H 0.75266 0.26248 0.47312 0.0
H298 H 0.79614 0.33127 0.46384 0.0
H299 H 0.86258 0.38504 0.45878 0.0
C300 C 0.48388 0.6461 0.80622 0.0
C301 C 0.5003 0.63396 0.82103 0.0
C302 C 0.49272 0.68533 0.80659 0.0
C303 C 0.51814 0.71359 0.82189 0.0
C304 C 0.53522 0.70164 0.83648 0.0
C305 C 0.52626 0.66225 0.83614 0.0
C306 C 0.5287 0.75589 0.82255 0.0
C307 C 0.50527 0.76791 0.81431 0.0
C308 C 0.51565 0.81001 0.81351 0.0
C309 C 0.49186 0.81813 0.80108 0.0
C310 C 0.50099 0.85697 0.79899 0.0
C311 C 0.53419 0.88893 0.80937 0.0
H312 H 0.56693 0.83748 0.8346 0.0
C313 C 0.55735 0.88086 0.82233 0.0
C314 C 0.54823 0.84197 0.82442 0.0
H315 H 0.58273 0.90471 0.83086 0.0
H316 H 0.46405 0.62526 0.79423 0.0
H317 H 0.48006 0.69336 0.7946 0.0
H318 H 0.55531 0.72279 0.8483 0.0
H319 H 0.53955 0.65397 0.84774 0.0
H320 H 0.55663 0.77732 0.83018 0.0
H321 H 0.4769 0.74576 0.8073 0.0
H322 H 0.46646 0.7943 0.79253 0.0
H323 H 0.48268 0.86193 0.78871 0.0
C324 C 0.82369 0.48797 0.14414 0.0
C325 C 0.85794 0.51122 0.15666 0.0
C326 C 0.79159 0.494 0.14524 0.0
C327 C 0.79278 0.52354 0.15888 0.0
C328 C 0.82745 0.54772 0.17096 0.0
C329 C 0.8596 0.5414 0.17001 0.0
C330 C 0.75845 0.52992 0.1603 0.0
C331 C 0.72098 0.4997 0.15757 0.0
C332 C 0.68517 0.50373 0.15754 0.0
C333 C 0.64877 0.4702 0.16036 0.0
C334 C 0.61366 0.4708 0.1582 0.0
C335 C 0.61383 0.50495 0.15298 0.0
H336 H 0.71306 0.56477 0.15039 0.0
C337 C 0.65038 0.53903 0.15073 0.0
C338 C 0.68571 0.53849 0.15302 0.0
H339 H 0.65164 0.56587 0.14675 0.0
H340 H 0.82137 0.46464 0.13356 0.0
H341 H 0.76596 0.47564 0.1352 0.0
H342 H 0.82937 0.57104 0.18141 0.0
H343 H 0.88561 0.55999 0.17978 0.0
H344 H 0.76423 0.55965 0.16433 0.0
H345 H 0.71595 0.46981 0.15547 0.0
H346 H 0.64732 0.44291 0.1637 0.0
H347 H 0.58619 0.44374 0.15968 0.0
C348 C 0.39028 0.88146 0.49232 0.0
C349 C 0.41434 0.88834 0.47589 0.0
C350 C 0.35138 0.84965 0.49108 0.0
C351 C 0.33576 0.82412 0.47331 0.0
C352 C 0.35946 0.83219 0.45672 0.0
C353 C 0.39819 0.86365 0.45801 0.0
C354 C 0.29541 0.78859 0.47122 0.0
C355 C 0.27394 0.77019 0.48677 0.0
C356 C 0.23605 0.73165 0.48414 0.0
C357 C 0.22382 0.70727 0.50009 0.0
C358 C 0.19044 0.66947 0.49766 0.0
C359 C 0.16823 0.65508 0.47921 0.0
H360 H 0.2198 0.73639 0.45359 0.0
C361 C 0.17926 0.68035 0.4636 0.0
C362 C 0.21253 0.71817 0.46605 0.0
H363 H 0.1631 0.67043 0.44914 0.0
H364 H 0.40177 0.90006 0.5063 0.0
H365 H 0.33388 0.84528 0.50405 0.0
H366 H 0.34829 0.81343 0.44277 0.0
H367 H 0.4157 0.8682 0.44499 0.0
H368 H 0.28457 0.77523 0.45603 0.0
H369 H 0.28599 0.78164 0.50204 0.0
H370 H 0.24085 0.71698 0.51431 0.0
H371 H 0.18246 0.65125 0.51017 0.0
C372 C 0.52303 0.38979 0.8278 0.0
C373 C 0.53793 0.41263 0.84631 0.0
C374 C 0.51659 0.3512 0.82539 0.0
C375 C 0.52496 0.33462 0.8415 0.0
C376 C 0.5382 0.35698 0.86017 0.0
C377 C 0.5448 0.39548 0.86254 0.0
C378 C 0.52108 0.29468 0.83963 0.0
C379 C 0.52132 0.27563 0.82204 0.0
C380 C 0.52217 0.23791 0.82035 0.0
C381 C 0.51274 0.21607 0.80152 0.0
C382 C 0.51663 0.18258 0.79865 0.0
C383 C 0.53037 0.17008 0.81454 0.0
H384 H 0.54341 0.24096 0.8511 0.0
C385 C 0.53886 0.19128 0.83354 0.0
C386 C 0.53492 0.22479 0.83643 0.0
H387 H 0.54934 0.18243 0.84614 0.0
H388 H 0.51718 0.40202 0.81502 0.0
H389 H 0.50516 0.33471 0.8109 0.0
H390 H 0.54453 0.34502 0.87293 0.0
H391 H 0.556 0.41205 0.87707 0.0
H392 H 0.52003 0.2816 0.85356 0.0
H393 H 0.52213 0.28855 0.80809 0.0
H394 H 0.50316 0.22547 0.7888 0.0
H395 H 0.51044 0.16748 0.78372 0.0
C396 C 0.54552 0.86926 0.52925 0.0
C397 C 0.55069 0.88717 0.5112 0.0
C398 C 0.55503 0.83981 0.53109 0.0
C399 C 0.56946 0.82706 0.51474 0.0
C400 C 0.57502 0.84537 0.49676 0.0
C401 C 0.56577 0.87513 0.49498 0.0
C402 C 0.58005 0.79573 0.51594 0.0
C403 C 0.56944 0.77127 0.53075 0.0
C404 C 0.58195 0.74167 0.5324 0.0
C405 C 0.58694 0.73196 0.55162 0.0
C406 C 0.59851 0.70416 0.55396 0.0
C407 C 0.60465 0.68493 0.53708 0.0
H408 H 0.5832 0.72829 0.50038 0.0
C409 C 0.59894 0.69398 0.51778 0.0
C410 C 0.58784 0.72227 0.51544 0.0
H411 H 0.60333 0.67937 0.50454 0.0
H412 H 0.53442 0.87824 0.54212 0.0
H413 H 0.55145 0.82788 0.54551 0.0
H414 H 0.5864 0.83651 0.48397 0.0
H415 H 0.57014 0.88843 0.48087 0.0
H416 H 0.5977 0.7931 0.50419 0.0
H417 H 0.55217 0.77353 0.54275 0.0
H418 H 0.58218 0.74619 0.56491 0.0
H419 H 0.60208 0.69724 0.56901 0.0
C420 C 0.70561 0.57544 0.84189 0.0
C421 C 0.67967 0.54869 0.82633 0.0
C422 C 0.74486 0.58465 0.84325 0.0
C423 C 0.75909 0.5674 0.82898 0.0
C424 C 0.7332 0.54087 0.81337 0.0
C425 C 0.69396 0.53176 0.81197 0.0
C426 C 0.79976 0.57413 0.8308 0.0
C427 C 0.82995 0.60672 0.84053 0.0
C428 C 0.8696 0.61174 0.84438 0.0
C429 C 0.90175 0.64994 0.84894 0.0
C430 C 0.93881 0.65568 0.85446 0.0
C431 C 0.94443 0.62325 0.8557 0.0
H432 H 0.85125 0.5493 0.84245 0.0
C433 C 0.91246 0.58504 0.85073 0.0
C434 C 0.87542 0.57929 0.8452 0.0
H435 H 0.91561 0.55939 0.85193 0.0
H436 H 0.69545 0.5888 0.85327 0.0
H437 H 0.76347 0.60426 0.85588 0.0
H438 H 0.74327 0.52686 0.8023 0.0
H439 H 0.67471 0.51093 0.79981 0.0
H440 H 0.80483 0.5515 0.82366 0.0
H441 H 0.82572 0.631 0.84591 0.0
H442 H 0.89807 0.67544 0.84853 0.0
H443 H 0.96295 0.68552 0.85802 0.0
C444 C 0.13011 0.7164 0.13633 0.0
C445 C 0.1119 0.70087 0.1541 0.0
C446 C 0.16342 0.75403 0.13697 0.0
C447 C 0.1794 0.77672 0.15546 0.0
C448 C 0.15945 0.76232 0.17297 0.0
C449 C 0.12611 0.72474 0.17234 0.0
C450 C 0.21816 0.81388 0.15742 0.0
C451 C 0.24713 0.82104 0.14482 0.0
C452 C 0.28889 0.8517 0.14982 0.0
C453 C 0.31842 0.84472 0.14258 0.0
C454 C 0.35766 0.86934 0.1494 0.0
C455 C 0.36832 0.90184 0.16345 0.0
H456 H 0.27806 0.89304 0.168 0.0
C457 C 0.33917 0.91062 0.16948 0.0
C458 C 0.29983 0.88584 0.16272 0.0
H459 H 0.34659 0.93604 0.17989 0.0
H460 H 0.11942 0.69903 0.12198 0.0
H461 H 0.17699 0.76473 0.12302 0.0
H462 H 0.1708 0.77936 0.18738 0.0
H463 H 0.11253 0.71382 0.18628 0.0
H464 H 0.22476 0.83281 0.17125 0.0
H465 H 0.24152 0.8002 0.13191 0.0
H466 H 0.31088 0.81883 0.1325 0.0
H467 H 0.37921 0.86148 0.14451 0.0
C468 C 0.51268 0.1689 0.46232 0.0
C469 C 0.50238 0.14565 0.47872 0.0
C470 C 0.51117 0.20376 0.46339 0.0
C471 C 0.49951 0.21612 0.48096 0.0
C472 C 0.4865 0.1914 0.49673 0.0
C473 C 0.48807 0.15659 0.49568 0.0
C474 C 0.50313 0.25562 0.48404 0.0
C475 C 0.53102 0.28736 0.4756 0.0
C476 C 0.54191 0.32836 0.48271 0.0
C477 C 0.58123 0.35836 0.48181 0.0
C478 C 0.59416 0.39616 0.49095 0.0
C479 C 0.56785 0.40488 0.501 0.0
H480 H 0.48408 0.31571 0.49182 0.0
C481 C 0.52784 0.37561 0.50061 0.0
C482 C 0.51494 0.33772 0.49153 0.0
H483 H 0.50663 0.38172 0.50776 0.0
H484 H 0.5232 0.16094 0.44888 0.0
H485 H 0.51998 0.22129 0.45062 0.0
H486 H 0.47691 0.19998 0.51034 0.0
H487 H 0.47949 0.13911 0.50849 0.0
H488 H 0.48624 0.25964 0.49578 0.0
H489 H 0.55042 0.28388 0.46528 0.0
H490 H 0.60255 0.35203 0.47496 0.0
H491 H 0.62521 0.41788 0.49105 0.0
C492 C 0.34213 0.48508 0.82948 0.0
C493 C 0.36525 0.49338 0.84734 0.0
C494 C 0.3044 0.48041 0.83012 0.0
C495 C 0.28923 0.48389 0.84867 0.0
C496 C 0.31145 0.48957 0.86648 0.0
C497 C 0.34911 0.49454 0.86584 0.0
C498 C 0.25181 0.4844 0.85031 0.0
C499 C 0.2369 0.49653 0.83595 0.0
C500 C 0.2068 0.50819 0.84003 0.0
C501 C 0.20651 0.53711 0.82893 0.0
C502 C 0.18371 0.55402 0.83453 0.0
C503 C 0.16063 0.54228 0.85138 0.0
H504 H 0.17897 0.47044 0.86414 0.0
C505 C 0.15842 0.51101 0.86145 0.0
C506 C 0.18098 0.49391 0.85575 0.0
H507 H 0.14086 0.50102 0.87444 0.0
H508 H 0.35368 0.48363 0.815 0.0
H509 H 0.28763 0.47476 0.81608 0.0
H510 H 0.30038 0.49195 0.88099 0.0
H511 H 0.36597 0.50034 0.87989 0.0
H512 H 0.23964 0.48021 0.86504 0.0
H513 H 0.25109 0.50387 0.82178 0.0
H514 H 0.22553 0.54819 0.81651 0.0
H515 H 0.18524 0.57724 0.82607 0.0
C516 C 0.86343 0.3569 0.16681 0.0
C517 C 0.8741 0.38453 0.1836 0.0
C518 C 0.83526 0.31722 0.16819 0.0
C519 C 0.81728 0.3045 0.18642 0.0
C520 C 0.82873 0.33201 0.20327 0.0
C521 C 0.8566 0.3716 0.20186 0.0
C522 C 0.78703 0.26289 0.18869 0.0
C523 C 0.76318 0.23752 0.17339 0.0
C524 C 0.73107 0.19701 0.17645 0.0
C525 C 0.69722 0.17915 0.16341 0.0
C526 C 0.66561 0.14191 0.16654 0.0
C527 C 0.66745 0.12159 0.18267 0.0
H528 H 0.75953 0.18827 0.20215 0.0
C529 C 0.70191 0.13894 0.1953 0.0
C530 C 0.73343 0.1761 0.19218 0.0
H531 H 0.70426 0.12419 0.20792 0.0
H532 H 0.8766 0.36594 0.15257 0.0
H533 H 0.82805 0.29667 0.15503 0.0
H534 H 0.81563 0.32296 0.21754 0.0
H535 H 0.86435 0.39207 0.21512 0.0
H536 H 0.78239 0.25387 0.20391 0.0
H537 H 0.76503 0.24755 0.15848 0.0
H538 H 0.69484 0.1944 0.15102 0.0
H539 H 0.63972 0.12906 0.15635 0.0
C540 C 0.99174 0.51422 0.09849 0.0
C541 C 0.99049 0.54326 0.11148 0.0
C542 C 0.9952 0.51826 0.07784 0.0
C543 C 0.99743 0.55145 0.06979 0.0
C544 C 0.99491 0.57974 0.08269 0.0
C545 C 0.99175 0.57587 0.10332 0.0
C546 C 1.00219 0.55764 0.04807 0.0
C547 C 0.02055 0.54363 0.03607 0.0
C548 C 0.02864 0.55344 0.01491 0.0
C549 C 0.06179 0.5547 0.00651 0.0
C550 C 0.07149 0.56583 0.98702 0.0
C551 C 0.04788 0.57544 0.97541 0.0
H552 H 0.97781 0.55997 0.00878 0.0
C553 C 0.01388 0.57278 0.98355 0.0
C554 C 0.0043 0.56183 0.00307 0.0
H555 H 0.99511 0.58003 0.975 0.0
H556 H 0.99054 0.48859 0.1043 0.0
H557 H 0.99585 0.49524 0.06827 0.0
H558 H 0.99617 0.6054 0.07687 0.0
H559 H 0.99057 0.59866 0.11287 0.0
H560 H 0.99317 0.57726 0.04228 0.0
H561 H 0.0331 0.52729 0.04235 0.0
H562 H 0.08077 0.5479 0.01521 0.0
H563 H 0.09751 0.56696 0.98103 0.0
C564 C 0.50089 0.01776 0.42612 0.0
C565 C 0.52922 0.01445 0.43756 0.0
C566 C 0.50256 0.01823 0.4052 0.0
C567 C 0.53271 0.01551 0.39537 0.0
C568 C 0.56133 0.01293 0.40687 0.0
C569 C 0.55948 0.0121 0.4277 0.0
C570 C 0.53588 0.01602 0.37325 0.0
C571 C 0.5046 0.00248 0.36014 0.0
C572 C 0.50812 1.00003 0.33804 0.0
C573 C 0.47664 0.96976 0.32591 0.0
C574 C 0.47979 0.96538 0.30518 0.0
C575 C 0.51432 0.99163 0.29611 0.0
H576 H 0.56666 0.05143 0.33769 0.0
C577 C 0.5453 0.02282 0.30815 0.0
C578 C 0.54226 0.02701 0.32889 0.0
H579 H 0.57225 0.04352 0.30158 0.0
H580 H 0.4774 0.01995 0.43329 0.0
H581 H 0.4806 0.02134 0.39687 0.0
H582 H 0.58503 0.01111 0.39969 0.0
H583 H 0.58196 0.00982 0.43607 0.0
H584 H 0.56473 0.02504 0.36758 0.0
H585 H 0.47517 0.98968 0.36566 0.0
H586 H 0.44986 0.94888 0.33255 0.0
H587 H 0.45518 0.94147 0.29623 0.0
C588 C 0.50763 0.50253 0.76419 0.0
C589 C 0.53767 0.52512 0.77914 0.0
C590 C 0.51667 0.50139 0.74399 0.0
C591 C 0.55601 0.52267 0.73848 0.0
C592 C 0.58586 0.5447 0.7535 0.0
C593 C 0.57684 0.54621 0.77353 0.0
C594 C 0.56774 0.52249 0.71745 0.0
C595 C 0.54424 0.51645 0.70114 0.0
C596 C 0.55833 0.52046 0.68037 0.0
C597 C 0.53089 0.50089 0.66401 0.0
C598 C 0.54313 0.50486 0.64429 0.0
C599 C 0.58313 0.52871 0.64054 0.0
H600 H 0.62029 0.56186 0.68858 0.0
C601 C 0.61052 0.54862 0.65688 0.0
C602 C 0.59831 0.54478 0.67654 0.0
H603 H 0.64138 0.56803 0.65447 0.0
H604 H 0.47719 0.48578 0.76808 0.0
H605 H 0.49295 0.4833 0.73288 0.0
H606 H 0.6164 0.5612 0.74971 0.0
H607 H 0.60081 0.56371 0.78464 0.0
H608 H 0.5979 0.52948 0.71553 0.0
H609 H 0.51386 0.50883 0.7029 0.0
H610 H 0.4999 0.48234 0.66649 0.0
H611 H 0.52133 0.48906 0.63198 0.0
C612 C 0.51745 0.03992 0.56545 0.0
C613 C 0.5366 0.02467 0.55335 0.0
C614 C 0.5209 0.04152 0.58647 0.0
C615 C 0.54353 0.02771 0.59582 0.0
C616 C 0.56277 0.01276 0.58365 0.0
C617 C 0.55931 0.01116 0.56274 0.0
C618 C 0.54891 0.0289 0.61805 0.0
C619 C 0.52664 0.03462 0.63157 0.0
C620 C 0.53315 0.03532 0.65365 0.0
C621 C 0.52219 0.05724 0.66677 0.0
C622 C 0.52861 0.05924 0.68758 0.0
C623 C 0.54574 0.03892 0.69577 0.0
H624 H 0.55694 0.99575 0.65237 0.0
C625 C 0.55568 0.01605 0.68268 0.0
C626 C 0.54937 0.01415 0.66188 0.0
H627 H 0.56898 1.00008 0.68849 0.0
H628 H 0.49993 0.05081 0.5587 0.0
H629 H 0.50626 0.05414 0.59516 0.0
H630 H 0.58052 1.00206 0.59034 0.0
H631 H 0.57452 0.99921 0.55394 0.0
H632 H 0.57257 0.02461 0.62344 0.0
H633 H 0.50347 0.03995 0.6266 0.0
H634 H 0.50912 0.07337 0.66088 0.0
H635 H 0.51999 0.07658 0.69727 0.0
C636 C 0.48067 0.49844 0.9014 0.0
C637 C 0.51713 0.52259 0.89326 0.0
C638 C 0.47793 0.49581 0.92217 0.0
C639 C 0.51163 0.51746 0.93528 0.0
C640 C 0.54805 0.54133 0.9271 0.0
C641 C 0.55078 0.54405 0.90636 0.0
C642 C 0.51041 0.51456 0.95739 0.0
C643 C 0.47769 0.50377 0.96765 0.0
C644 C 0.47642 0.50006 0.9897 0.0
C645 C 0.44682 0.50246 0.00019 0.0
C646 C 0.44381 0.49781 0.02078 0.0
C647 C 0.47016 0.49022 0.03134 0.0
H648 H 0.52537 0.48925 0.99271 0.0
C649 C 0.49978 0.48777 0.02085 0.0
C650 C 0.50283 0.49249 0.00028 0.0
H651 H 0.52068 0.48216 0.02856 0.0
H652 H 0.45422 0.48126 0.89173 0.0
H653 H 0.4495 0.47609 0.92776 0.0
H654 H 0.57454 0.55802 0.9368 0.0
H655 H 0.57939 0.5628 0.90061 0.0
H656 H 0.53803 0.52318 0.96551 0.0
H657 H 0.45097 0.4988 0.95983 0.0
H658 H 0.42581 0.50783 0.9924 0.0
H659 H 0.42029 0.49928 0.02834 0.0
C660 C 0.99491 0.50478 0.23428 0.0
C661 C 0.0053 0.54083 0.22641 0.0
C662 C 0.99867 0.50288 0.25494 0.0
C663 C 0.0133 0.53711 0.26827 0.0
C664 C 0.02296 0.573 0.26047 0.0
C665 C 0.01917 0.57492 0.23975 0.0
C666 C 0.01776 0.5361 0.29037 0.0
C667 C 0.02354 0.50881 0.29853 0.0
C668 C 0.02803 0.50697 0.32053 0.0
C669 C 0.04639 0.48662 0.32712 0.0
C670 C 0.05047 0.48321 0.34758 0.0
C671 C 0.03592 0.49978 0.36198 0.0
H672 H 0.99787 0.53836 0.33047 0.0
C673 C 0.01715 0.51984 0.35542 0.0
C674 C 0.01319 0.52339 0.33492 0.0
H675 H 0.00574 0.53305 0.36614 0.0
H676 H 0.98359 0.47782 0.22449 0.0
H677 H 0.98945 0.47436 0.26035 0.0
H678 H 0.03387 0.59974 0.27041 0.0
H679 H 0.02725 0.60313 0.23421 0.0
H680 H 0.01815 0.55969 0.30003 0.0
H681 H 0.02689 0.48761 0.28868 0.0
H682 H 0.05769 0.47327 0.31639 0.0
H683 H 0.06451 0.46701 0.35209 0.0
loop_
_geom_bond_atom_site_label_1
_geom_bond_atom_site_label_2
_geom_bond_distance
_geom_bond_site_symmetry_2
_ccdc_geom_bond_type
Zn0 O6 1.969 . S
Zn0 O7 1.965 . S
Zn0 O11 2.024 . S
Zn0 O16 1.969 . S
Zn1 O8 1.969 . S
Zn1 O14 1.969 . S
Zn1 O15 1.965 . S
Zn1 O17 2.024 . S
C2 O3 1.229 . S
C2 O11 1.058 . S
O3 C2 1.229 . S
C4 O5 1.229 . S
C4 O17 1.058 . S
O5 C4 1.229 . S
O6 Zn0 1.969 . S
O6 C9 1.267 . S
O7 Zn0 1.965 . S
O7 C18 1.260 1_455 S
O8 Zn1 1.969 . S
O8 C18 1.258 . S
C9 O6 1.267 . S
C9 O10 1.228 . S
O10 C9 1.228 . S
O11 Zn0 2.024 . S
O11 C2 1.058 . S
C12 O13 1.228 . S
C12 O14 1.267 . S
O13 C12 1.228 . S
O14 Zn1 1.969 . S
O14 C12 1.267 . S
O15 Zn1 1.965 . S
O15 C19 1.260 1_655 S
O16 Zn0 1.969 . S
O16 C19 1.258 . S
O17 Zn1 2.024 . S
O17 C4 1.058 . S
C18 O7 1.260 1_655 S
C18 O8 1.258 . S
C19 O15 1.260 1_455 S
C19 O16 1.258 . S
Zn20 O26 1.969 . S
Zn20 O27 1.965 . S
Zn20 O31 2.024 . S
Zn20 O36 1.969 . S
Zn21 O28 1.969 . S
Zn21 O34 1.969 . S
Zn21 O35 1.965 . S
Zn21 O37 2.024 . S
C22 O23 1.229 . S
C22 O31 1.058 . S
O23 C22 1.229 . S
C24 O25 1.229 . S
C24 O37 1.058 . S
O25 C24 1.229 . S
O26 Zn20 1.969 . S
O26 C29 1.267 . S
O27 Zn20 1.965 . S
O27 C38 1.260 . S
O28 Zn21 1.969 . S
O28 C38 1.258 1_565 S
C29 O26 1.267 . S
C29 O30 1.228 . S
O30 C29 1.228 . S
O31 Zn20 2.024 . S
O31 C22 1.058 . S
C32 O33 1.228 . S
C32 O34 1.267 . S
O33 C32 1.228 . S
O34 Zn21 1.969 . S
O34 C32 1.267 . S
O35 Zn21 1.965 . S
O35 C39 1.260 1_565 S
O36 Zn20 1.969 . S
O36 C39 1.258 . S
O37 Zn21 2.024 . S
O37 C24 1.058 . S
C38 O27 1.260 . S
C38 O28 1.258 1_545 S
C39 O35 1.260 1_545 S
C39 O36 1.258 . S
Zn40 O46 1.969 . S
Zn40 O47 1.965 . S
Zn40 O51 2.024 . S
Zn40 O56 1.969 . S
Zn41 O48 1.969 . S
Zn41 O54 1.969 . S
Zn41 O55 1.965 . S
Zn41 O57 2.024 . S
C42 O43 1.229 . S
C42 O51 1.058 . S
O43 C42 1.229 . S
C44 O45 1.229 . S
C44 O57 1.058 . S
O45 C44 1.229 . S
O46 Zn40 1.969 . S
O46 C49 1.267 . S
O47 Zn40 1.965 . S
O47 C58 1.260 . S
O48 Zn41 1.969 . S
O48 C58 1.258 . S
C49 O46 1.267 . S
C49 O50 1.228 . S
O50 C49 1.228 . S
O51 Zn40 2.024 . S
O51 C42 1.058 . S
C52 O53 1.228 . S
C52 O54 1.267 . S
O53 C52 1.228 . S
O54 Zn41 1.969 . S
O54 C52 1.267 . S
O55 Zn41 1.965 . S
O55 C59 1.260 . S
O56 Zn40 1.969 . S
O56 C59 1.258 . S
O57 Zn41 2.024 . S
O57 C44 1.058 . S
C58 O47 1.260 . S
C58 O48 1.258 . S
C59 O55 1.260 . S
C59 O56 1.258 . S
P60 O71 1.490 1_545 S
P60 C74 1.812 1_545 S
P60 C80 1.803 . S
P60 C86 1.819 . S
H61 C75 0.941 . S
H62 C76 0.939 . S
H63 C78 0.940 . S
H64 C79 0.940 1_545 S
H65 C81 0.939 . S
H66 C82 0.942 . S
H67 C84 0.940 . S
H68 C85 0.939 . S
H69 C87 0.941 . S
H70 C91 0.939 . S
O71 P60 1.490 1_565 S
H72 C88 0.939 . S
H73 C90 0.940 . S
C74 P60 1.812 1_565 S
C74 C75 1.389 . S
C74 C79 1.391 . S
C75 H61 0.941 . S
C75 C74 1.389 . S
C75 C76 1.397 . S
C76 H62 0.939 . S
C76 C75 1.397 . S
C76 C77 1.378 . S
C77 C76 1.378 . S
C77 C78 1.378 . S
C78 H63 0.940 . S
C78 C77 1.378 . S
C78 C79 1.396 . S
C79 H64 0.940 1_565 S
C79 C74 1.391 . S
C79 C78 1.396 . S
C80 P60 1.803 . S
C80 C81 1.378 . S
C80 C85 1.400 . S
C81 H65 0.939 . S
C81 C80 1.378 . S
C81 C82 1.361 . S
C82 H66 0.942 . S
C82 C81 1.361 . S
C82 C83 1.369 . S
C83 C82 1.369 . S
C83 C84 1.404 . S
C84 H67 0.940 . S
C84 C83 1.404 . S
C84 C85 1.389 . S
C85 H68 0.939 . S
C85 C80 1.400 . S
C85 C84 1.389 . S
C86 P60 1.819 . S
C86 C87 1.391 1_545 S
C86 C91 1.391 . S
C87 H69 0.941 . S
C87 C86 1.391 1_565 S
C87 C88 1.396 . S
C88 H72 0.939 . S
C88 C87 1.396 . S
C88 C89 1.397 1_565 S
C89 C88 1.397 1_545 S
C89 C90 1.385 . S
C90 H73 0.940 . S
C90 C89 1.385 . S
C90 C91 1.388 . S
C91 H70 0.939 . S
C91 C86 1.391 . S
C91 C90 1.388 . S
P92 O103 1.490 . S
P92 C106 1.812 . S
P92 C112 1.803 . S
P92 C118 1.819 . S
H93 C107 0.941 . S
H94 C108 0.939 . S
H95 C110 0.940 . S
H96 C111 0.940 . S
H97 C113 0.939 . S
H98 C114 0.942 . S
H99 C116 0.940 . S
H100 C117 0.939 . S
H101 C119 0.941 . S
H102 C123 0.939 . S
O103 P92 1.490 . S
H104 C120 0.939 . S
H105 C122 0.940 . S
C106 P92 1.812 . S
C106 C107 1.389 . S
C106 C111 1.391 . S
C107 H93 0.941 . S
C107 C106 1.389 . S
C107 C108 1.397 . S
C108 H94 0.939 . S
C108 C107 1.397 . S
C108 C109 1.378 . S
C109 C108 1.378 . S
C109 C110 1.378 . S
C110 H95 0.940 . S
C110 C109 1.378 . S
C110 C111 1.396 . S
C111 H96 0.940 . S
C111 C106 1.391 . S
C111 C110 1.396 . S
C112 P92 1.803 . S
C112 C113 1.378 . S
C112 C117 1.400 . S
C113 H97 0.939 . S
C113 C112 1.378 . S
C113 C114 1.361 . S
C114 H98 0.942 . S
C114 C113 1.361 . S
C114 C115 1.369 . S
C115 C114 1.369 . S
C115 C116 1.404 . S
C116 H99 0.940 . S
C116 C115 1.404 . S
C116 C117 1.389 . S
C117 H100 0.939 . S
C117 C112 1.400 . S
C117 C116 1.389 . S
C118 P92 1.819 . S
C118 C119 1.391 . S
C118 C123 1.391 . S
C119 H101 0.941 . S
C119 C118 1.391 . S
C119 C120 1.396 . S
C120 H104 0.939 . S
C120 C119 1.396 . S
C120 C121 1.397 . S
C121 C120 1.397 . S
C121 C122 1.385 . S
C122 H105 0.940 . S
C122 C121 1.385 . S
C122 C123 1.388 . S
C123 H102 0.939 . S
C123 C118 1.391 . S
C123 C122 1.388 . S
P124 O135 1.490 . S
P124 C138 1.812 . S
P124 C144 1.803 . S
P124 C150 1.819 . S
H125 C139 0.941 . S
H126 C140 0.939 . S
H127 C142 0.940 . S
H128 C143 0.940 . S
H129 C145 0.939 1_455 S
H130 C146 0.942 . S
H131 C148 0.940 . S
H132 C149 0.939 1_455 S
H133 C151 0.941 . S
H134 C155 0.939 1_655 S
O135 P124 1.490 . S
H136 C152 0.939 . S
H137 C154 0.940 1_655 S
C138 P124 1.812 . S
C138 C139 1.389 . S
C138 C143 1.391 . S
C139 H125 0.941 . S
C139 C138 1.389 . S
C139 C140 1.397 . S
C140 H126 0.939 . S
C140 C139 1.397 . S
C140 C141 1.378 . S
C141 C140 1.378 . S
C141 C142 1.378 . S
C142 H127 0.940 . S
C142 C141 1.378 . S
C142 C143 1.396 . S
C143 H128 0.940 . S
C143 C138 1.391 . S
C143 C142 1.396 . S
C144 P124 1.803 . S
C144 C145 1.378 1_455 S
C144 C149 1.400 1_455 S
C145 H129 0.939 1_655 S
C145 C144 1.378 1_655 S
C145 C146 1.361 . S
C146 H130 0.942 . S
C146 C145 1.361 . S
C146 C147 1.369 . S
C147 C146 1.369 . S
C147 C148 1.404 . S
C148 H131 0.940 . S
C148 C147 1.404 . S
C148 C149 1.389 . S
C149 H132 0.939 1_655 S
C149 C144 1.400 1_655 S
C149 C148 1.389 . S
C150 P124 1.819 . S
C150 C151 1.391 . S
C150 C155 1.391 . S
C151 H133 0.941 . S
C151 C150 1.391 . S
C151 C152 1.396 . S
C152 H136 0.939 . S
C152 C151 1.396 . S
C152 C153 1.397 . S
C153 C152 1.397 . S
C153 C154 1.385 . S
C154 H137 0.940 1_455 S
C154 C153 1.385 . S
C154 C155 1.388 . S
C155 H134 0.939 1_455 S
C155 C150 1.391 . S
C155 C154 1.388 . S
P156 O167 1.490 . S
P156 C170 1.812 . S
P156 C176 1.803 . S
P156 C182 1.819 . S
H157 C171 0.941 . S
H158 C172 0.939 . S
H159 C174 0.940 . S
H160 C175 0.940 . S
H161 C177 0.939 . S
H162 C178 0.942 . S
H163 C180 0.940 . S
H164 C181 0.939 . S
H165 C183 0.941 . S
H166 C187 0.939 . S
O167 P156 1.490 . S
H168 C184 0.939 . S
H169 C186 0.940 . S
C170 P156 1.812 . S
C170 C171 1.389 . S
C170 C175 1.391 . S
C171 H157 0.941 . S
C171 C170 1.389 . S
C171 C172 1.397 . S
C172 H158 0.939 . S
C172 C171 1.397 . S
C172 C173 1.378 . S
C173 C172 1.378 . S
C173 C174 1.378 . S
C174 H159 0.940 . S
C174 C173 1.378 . S
C174 C175 1.396 . S
C175 H160 0.940 . S
C175 C170 1.391 . S
C175 C174 1.396 . S
C176 P156 1.803 . S
C176 C177 1.378 1_455 S
C176 C181 1.400 1_455 S
C177 H161 0.939 . S
C177 C176 1.378 1_655 S
C177 C178 1.361 . S
C178 H162 0.942 . S
C178 C177 1.361 . S
C178 C179 1.369 . S
C179 C178 1.369 . S
C179 C180 1.404 . S
C180 H163 0.940 . S
C180 C179 1.404 . S
C180 C181 1.389 . S
C181 H164 0.939 . S
C181 C176 1.400 1_655 S
C181 C180 1.389 . S
C182 P156 1.819 . S
C182 C183 1.391 . S
C182 C187 1.391 1_455 S
C183 H165 0.941 . S
C183 C182 1.391 . S
C183 C184 1.396 . S
C184 H168 0.939 . S
C184 C183 1.396 . S
C184 C185 1.397 . S
C185 C184 1.397 . S
C185 C186 1.385 1_455 S
C186 H169 0.940 . S
C186 C185 1.385 1_655 S
C186 C187 1.388 . S
C187 H166 0.939 . S
C187 C182 1.391 1_655 S
C187 C186 1.388 . S
P188 O199 1.490 . S
P188 C202 1.812 . S
P188 C208 1.803 . S
P188 C214 1.819 . S
H189 C203 0.941 . S
H190 C204 0.939 . S
H191 C206 0.940 . S
H192 C207 0.940 . S
H193 C209 0.939 . S
H194 C210 0.942 . S
H195 C212 0.940 . S
H196 C213 0.939 . S
H197 C215 0.941 . S
H198 C219 0.957 . S
O199 P188 1.490 . S
H200 C216 0.939 . S
H201 C218 0.940 . S
C202 P188 1.812 . S
C202 C203 1.389 . S
C202 C207 1.391 . S
C203 H189 0.941 . S
C203 C202 1.389 . S
C203 C204 1.397 . S
C204 H190 0.939 . S
C204 C203 1.397 . S
C204 C205 1.378 . S
C205 C204 1.378 . S
C205 C206 1.378 . S
C206 H191 0.940 . S
C206 C205 1.378 . S
C206 C207 1.396 . S
C207 H192 0.940 . S
C207 C202 1.391 . S
C207 C206 1.396 . S
C208 P188 1.803 . S
C208 C209 1.378 1_545 S
C208 C213 1.400 1_545 S
C209 H193 0.939 . S
C209 C208 1.378 1_565 S
C209 C210 1.361 . S
C210 H194 0.942 . S
C210 C209 1.361 . S
C210 C211 1.369 . S
C211 C210 1.369 . S
C211 C212 1.404 . S
C212 H195 0.940 . S
C212 C211 1.404 . S
C212 C213 1.389 . S
C213 H196 0.939 . S
C213 C208 1.400 1_565 S
C213 C212 1.389 . S
C214 P188 1.819 . S
C214 C215 1.391 . S
C214 C219 1.376 1_545 S
C215 H197 0.941 . S
C215 C214 1.391 . S
C215 C216 1.396 . S
C216 H200 0.939 . S
C216 C215 1.396 . S
C216 C217 1.397 . S
C217 C216 1.397 . S
C217 C218 1.385 1_545 S
C218 H201 0.940 . S
C218 C217 1.385 1_565 S
C218 C219 1.387 . S
C219 H198 0.957 . S
C219 C214 1.376 1_565 S
C219 C218 1.387 . S
P220 O231 1.490 . S
P220 C234 1.812 . S
P220 C240 1.803 . S
P220 C246 1.819 . S
H221 C235 0.941 . S
H222 C236 0.939 . S
H223 C238 0.940 . S
H224 C239 0.940 . S
H225 C241 0.939 . S
H226 C242 0.942 . S
H227 C244 0.940 . S
H228 C245 0.939 . S
H229 C247 0.941 . S
H230 C251 0.939 . S
O231 P220 1.490 . S
H232 C248 0.939 . S
H233 C250 0.940 . S
C234 P220 1.812 . S
C234 C235 1.389 . S
C234 C239 1.391 . S
C235 H221 0.941 . S
C235 C234 1.389 . S
C235 C236 1.397 . S
C236 H222 0.939 . S
C236 C235 1.397 . S
C236 C237 1.378 . S
C237 C236 1.378 . S
C237 C238 1.378 . S
C238 H223 0.940 . S
C238 C237 1.378 . S
C238 C239 1.396 . S
C239 H224 0.940 . S
C239 C234 1.391 . S
C239 C238 1.396 . S
C240 P220 1.803 . S
C240 C241 1.378 . S
C240 C245 1.400 . S
C241 H225 0.939 . S
C241 C240 1.378 . S
C241 C242 1.361 . S
C242 H226 0.942 . S
C242 C241 1.361 . S
C242 C243 1.369 . S
C243 C242 1.369 . S
C243 C244 1.404 . S
C244 H227 0.940 . S
C244 C243 1.404 . S
C244 C245 1.389 . S
C245 H228 0.939 . S
C245 C240 1.400 . S
C245 C244 1.389 . S
C246 P220 1.819 . S
C246 C247 1.391 . S
C246 C251 1.391 . S
C247 H229 0.941 . S
C247 C246 1.391 . S
C247 C248 1.396 . S
C248 H232 0.939 . S
C248 C247 1.396 . S
C248 C249 1.397 . S
C249 C248 1.397 . S
C249 C250 1.385 . S
C250 H233 0.940 . S
C250 C249 1.385 . S
C250 C251 1.388 . S
C251 H230 0.939 . S
C251 C246 1.391 . S
C251 C250 1.388 . S
C252 C253 1.386 . S
C252 C254 1.383 . S
C252 H268 0.951 . S
C253 C252 1.386 . S
C253 C257 1.383 . S
C254 C252 1.383 . S
C254 C255 1.402 . S
C254 H269 0.951 . S
C255 C254 1.402 . S
C255 C256 1.375 . S
C255 C258 1.481 . S
C256 C255 1.375 . S
C256 C257 1.367 . S
C256 H270 0.951 . S
C257 C253 1.383 . S
C257 C256 1.367 . S
C257 H271 0.950 . S
C258 C255 1.481 . S
C258 C259 1.297 . S
C258 H272 0.950 . S
C259 C258 1.297 . S
C259 C260 1.479 . S
C259 H273 0.950 . S
C260 C259 1.479 . S
C260 C261 1.375 . S
C260 C266 1.404 . S
C261 C260 1.375 . S
C261 C262 1.369 . S
C261 H274 0.950 . S
C262 C261 1.369 . S
C262 C263 1.392 . S
C262 H275 0.951 . S
C263 C262 1.392 . S
C263 C265 1.384 . S
H264 C266 0.949 . S
C265 C263 1.384 . S
C265 C266 1.385 . S
C265 H267 0.950 . S
C266 C260 1.404 . S
C266 H264 0.949 . S
C266 C265 1.385 . S
H267 C265 0.950 . S
H268 C252 0.951 . S
H269 C254 0.951 . S
H270 C256 0.951 . S
H271 C257 0.950 . S
H272 C258 0.950 . S
H273 C259 0.950 . S
H274 C261 0.950 . S
H275 C262 0.951 . S
C276 C277 1.386 . S
C276 C278 1.383 . S
C276 H292 0.951 . S
C277 C276 1.386 . S
C277 C281 1.383 . S
C278 C276 1.383 . S
C278 C279 1.402 . S
C278 H293 0.951 . S
C279 C278 1.402 . S
C279 C280 1.375 . S
C279 C282 1.481 . S
C280 C279 1.375 . S
C280 C281 1.367 . S
C280 H294 0.951 . S
C281 C277 1.383 . S
C281 C280 1.367 . S
C281 H295 0.950 . S
C282 C279 1.481 . S
C282 C283 1.297 . S
C282 H296 0.950 . S
C283 C282 1.297 . S
C283 C284 1.479 . S
C283 H297 0.950 . S
C284 C283 1.479 . S
C284 C285 1.375 . S
C284 C290 1.404 . S
C285 C284 1.375 . S
C285 C286 1.369 . S
C285 H298 0.950 . S
C286 C285 1.369 . S
C286 C287 1.392 . S
C286 H299 0.951 . S
C287 C286 1.392 . S
C287 C289 1.384 . S
H288 C290 0.949 . S
C289 C287 1.384 . S
C289 C290 1.385 . S
C289 H291 0.950 . S
C290 C284 1.404 . S
C290 H288 0.949 . S
C290 C289 1.385 . S
H291 C289 0.950 . S
H292 C276 0.951 . S
H293 C278 0.951 . S
H294 C280 0.951 . S
H295 C281 0.950 . S
H296 C282 0.950 . S
H297 C283 0.950 . S
H298 C285 0.950 . S
H299 C286 0.951 . S
C300 C301 1.386 . S
C300 C302 1.383 . S
C300 H316 0.951 . S
C301 C300 1.386 . S
C301 C305 1.383 . S
C302 C300 1.383 . S
C302 C303 1.402 . S
C302 H317 0.951 . S
C303 C302 1.402 . S
C303 C304 1.375 . S
C303 C306 1.481 . S
C304 C303 1.375 . S
C304 C305 1.367 . S
C304 H318 0.951 . S
C305 C301 1.383 . S
C305 C304 1.367 . S
C305 H319 0.950 . S
C306 C303 1.481 . S
C306 C307 1.297 . S
C306 H320 0.950 . S
C307 C306 1.297 . S
C307 C308 1.479 . S
C307 H321 0.950 . S
C308 C307 1.479 . S
C308 C309 1.375 . S
C308 C314 1.404 . S
C309 C308 1.375 . S
C309 C310 1.369 . S
C309 H322 0.950 . S
C310 C309 1.369 . S
C310 C311 1.392 . S
C310 H323 0.951 . S
C311 C310 1.392 . S
C311 C313 1.384 . S
H312 C314 0.949 . S
C313 C311 1.384 . S
C313 C314 1.385 . S
C313 H315 0.950 . S
C314 C308 1.404 . S
C314 H312 0.949 . S
C314 C313 1.385 . S
H315 C313 0.950 . S
H316 C300 0.951 . S
H317 C302 0.951 . S
H318 C304 0.951 . S
H319 C305 0.950 . S
H320 C306 0.950 . S
H321 C307 0.950 . S
H322 C309 0.950 . S
H323 C310 0.951 . S
C324 C325 1.386 . S
C324 C326 1.383 . S
C324 H340 0.951 . S
C325 C324 1.386 . S
C325 C329 1.383 . S
C326 C324 1.383 . S
C326 C327 1.402 . S
C326 H341 0.951 . S
C327 C326 1.402 . S
C327 C328 1.375 . S
C327 C330 1.481 . S
C328 C327 1.375 . S
C328 C329 1.367 . S
C328 H342 0.951 . S
C329 C325 1.383 . S
C329 C328 1.367 . S
C329 H343 0.950 . S
C330 C327 1.481 . S
C330 C331 1.297 . S
C330 H344 0.950 . S
C331 C330 1.297 . S
C331 C332 1.479 . S
C331 H345 0.950 . S
C332 C331 1.479 . S
C332 C333 1.375 . S
C332 C338 1.404 . S
C333 C332 1.375 . S
C333 C334 1.369 . S
C333 H346 0.950 . S
C334 C333 1.369 . S
C334 C335 1.392 . S
C334 H347 0.951 . S
C335 C334 1.392 . S
C335 C337 1.384 . S
H336 C338 0.949 . S
C337 C335 1.384 . S
C337 C338 1.385 . S
C337 H339 0.950 . S
C338 C332 1.404 . S
C338 H336 0.949 . S
C338 C337 1.385 . S
H339 C337 0.950 . S
H340 C324 0.951 . S
H341 C326 0.951 . S
H342 C328 0.951 . S
H343 C329 0.950 . S
H344 C330 0.950 . S
H345 C331 0.950 . S
H346 C333 0.950 . S
H347 C334 0.951 . S
C348 C349 1.386 . S
C348 C350 1.383 . S
C348 H364 0.951 . S
C349 C348 1.386 . S
C349 C353 1.383 . S
C350 C348 1.383 . S
C350 C351 1.402 . S
C350 H365 0.951 . S
C351 C350 1.402 . S
C351 C352 1.375 . S
C351 C354 1.481 . S
C352 C351 1.375 . S
C352 C353 1.367 . S
C352 H366 0.951 . S
C353 C349 1.383 . S
C353 C352 1.367 . S
C353 H367 0.950 . S
C354 C351 1.481 . S
C354 C355 1.297 . S
C354 H368 0.950 . S
C355 C354 1.297 . S
C355 C356 1.479 . S
C355 H369 0.950 . S
C356 C355 1.479 . S
C356 C357 1.375 . S
C356 C362 1.404 . S
C357 C356 1.375 . S
C357 C358 1.369 . S
C357 H370 0.950 . S
C358 C357 1.369 . S
C358 C359 1.392 . S
C358 H371 0.951 . S
C359 C358 1.392 . S
C359 C361 1.384 . S
H360 C362 0.949 . S
C361 C359 1.384 . S
C361 C362 1.385 . S
C361 H363 0.950 . S
C362 C356 1.404 . S
C362 H360 0.949 . S
C362 C361 1.385 . S
H363 C361 0.950 . S
H364 C348 0.951 . S
H365 C350 0.951 . S
H366 C352 0.951 . S
H367 C353 0.950 . S
H368 C354 0.950 . S
H369 C355 0.950 . S
H370 C357 0.950 . S
H371 C358 0.951 . S
C372 C373 1.386 . S
C372 C374 1.383 . S
C372 H388 0.951 . S
C373 C372 1.386 . S
C373 C377 1.383 . S
C374 C372 1.383 . S
C374 C375 1.402 . S
C374 H389 0.951 . S
C375 C374 1.402 . S
C375 C376 1.375 . S
C375 C378 1.481 . S
C376 C375 1.375 . S
C376 C377 1.367 . S
C376 H390 0.951 . S
C377 C373 1.383 . S
C377 C376 1.367 . S
C377 H391 0.950 . S
C378 C375 1.481 . S
C378 C379 1.297 . S
C378 H392 0.950 . S
C379 C378 1.297 . S
C379 C380 1.479 . S
C379 H393 0.950 . S
C380 C379 1.479 . S
C380 C381 1.375 . S
C380 C386 1.404 . S
C381 C380 1.375 . S
C381 C382 1.369 . S
C381 H394 0.950 . S
C382 C381 1.369 . S
C382 C383 1.392 . S
C382 H395 0.951 . S
C383 C382 1.392 . S
C383 C385 1.384 . S
H384 C386 0.949 . S
C385 C383 1.384 . S
C385 C386 1.385 . S
C385 H387 0.950 . S
C386 C380 1.404 . S
C386 H384 0.949 . S
C386 C385 1.385 . S
H387 C385 0.950 . S
H388 C372 0.951 . S
H389 C374 0.951 . S
H390 C376 0.951 . S
H391 C377 0.950 . S
H392 C378 0.950 . S
H393 C379 0.950 . S
H394 C381 0.950 . S
H395 C382 0.951 . S
C396 C397 1.386 . S
C396 C398 1.383 . S
C396 H412 0.951 . S
C397 C396 1.386 . S
C397 C401 1.383 . S
C398 C396 1.383 . S
C398 C399 1.402 . S
C398 H413 0.951 . S
C399 C398 1.402 . S
C399 C400 1.375 . S
C399 C402 1.481 . S
C400 C399 1.375 . S
C400 C401 1.367 . S
C400 H414 0.951 . S
C401 C397 1.383 . S
C401 C400 1.367 . S
C401 H415 0.950 . S
C402 C399 1.481 . S
C402 C403 1.297 . S
C402 H416 0.950 . S
C403 C402 1.297 . S
C403 C404 1.479 . S
C403 H417 0.950 . S
C404 C403 1.479 . S
C404 C405 1.375 . S
C404 C410 1.404 . S
C405 C404 1.375 . S
C405 C406 1.369 . S
C405 H418 0.950 . S
C406 C405 1.369 . S
C406 C407 1.392 . S
C406 H419 0.951 . S
C407 C406 1.392 . S
C407 C409 1.384 . S
H408 C410 0.949 . S
C409 C407 1.384 . S
C409 C410 1.385 . S
C409 H411 0.950 . S
C410 C404 1.404 . S
C410 H408 0.949 . S
C410 C409 1.385 . S
H411 C409 0.950 . S
H412 C396 0.951 . S
H413 C398 0.951 . S
H414 C400 0.951 . S
H415 C401 0.950 . S
H416 C402 0.950 . S
H417 C403 0.950 . S
H418 C405 0.950 . S
H419 C406 0.951 . S
C420 C421 1.386 . S
C420 C422 1.383 . S
C420 H436 0.951 . S
C421 C420 1.386 . S
C421 C425 1.383 . S
C422 C420 1.383 . S
C422 C423 1.402 . S
C422 H437 0.951 . S
C423 C422 1.402 . S
C423 C424 1.375 . S
C423 C426 1.481 . S
C424 C423 1.375 . S
C424 C425 1.367 . S
C424 H438 0.951 . S
C425 C421 1.383 . S
C425 C424 1.367 . S
C425 H439 0.950 . S
C426 C423 1.481 . S
C426 C427 1.297 . S
C426 H440 0.950 . S
C427 C426 1.297 . S
C427 C428 1.479 . S
C427 H441 0.950 . S
C428 C427 1.479 . S
C428 C429 1.375 . S
C428 C434 1.404 . S
C429 C428 1.375 . S
C429 C430 1.369 . S
C429 H442 0.950 . S
C430 C429 1.369 . S
C430 C431 1.392 . S
C430 H443 0.951 . S
C431 C430 1.392 . S
C431 C433 1.384 . S
H432 C434 0.949 . S
C433 C431 1.384 . S
C433 C434 1.385 . S
C433 H435 0.950 . S
C434 C428 1.404 . S
C434 H432 0.949 . S
C434 C433 1.385 . S
H435 C433 0.950 . S
H436 C420 0.951 . S
H437 C422 0.951 . S
H438 C424 0.951 . S
H439 C425 0.950 . S
H440 C426 0.950 . S
H441 C427 0.950 . S
H442 C429 0.950 . S
H443 C430 0.951 . S
C444 C445 1.386 . S
C444 C446 1.383 . S
C444 H460 0.951 . S
C445 C444 1.386 . S
C445 C449 1.383 . S
C446 C444 1.383 . S
C446 C447 1.402 . S
C446 H461 0.951 . S
C447 C446 1.402 . S
C447 C448 1.375 . S
C447 C450 1.481 . S
C448 C447 1.375 . S
C448 C449 1.367 . S
C448 H462 0.951 . S
C449 C445 1.383 . S
C449 C448 1.367 . S
C449 H463 0.950 . S
C450 C447 1.481 . S
C450 C451 1.297 . S
C450 H464 0.950 . S
C451 C450 1.297 . S
C451 C452 1.479 . S
C451 H465 0.950 . S
C452 C451 1.479 . S
C452 C453 1.375 . S
C452 C458 1.404 . S
C453 C452 1.375 . S
C453 C454 1.369 . S
C453 H466 0.950 . S
C454 C453 1.369 . S
C454 C455 1.392 . S
C454 H467 0.951 . S
C455 C454 1.392 . S
C455 C457 1.384 . S
H456 C458 0.949 . S
C457 C455 1.384 . S
C457 C458 1.385 . S
C457 H459 0.950 . S
C458 C452 1.404 . S
C458 H456 0.949 . S
C458 C457 1.385 . S
H459 C457 0.950 . S
H460 C444 0.951 . S
H461 C446 0.951 . S
H462 C448 0.951 . S
H463 C449 0.950 . S
H464 C450 0.950 . S
H465 C451 0.950 . S
H466 C453 0.950 . S
H467 C454 0.951 . S
C468 C469 1.386 . S
C468 C470 1.383 . S
C468 H484 0.951 . S
C469 C468 1.386 . S
C469 C473 1.383 . S
C470 C468 1.383 . S
C470 C471 1.402 . S
C470 H485 0.951 . S
C471 C470 1.402 . S
C471 C472 1.375 . S
C471 C474 1.481 . S
C472 C471 1.375 . S
C472 C473 1.367 . S
C472 H486 0.951 . S
C473 C469 1.383 . S
C473 C472 1.367 . S
C473 H487 0.950 . S
C474 C471 1.481 . S
C474 C475 1.297 . S
C474 H488 0.950 . S
C475 C474 1.297 . S
C475 C476 1.479 . S
C475 H489 0.950 . S
C476 C475 1.479 . S
C476 C477 1.375 . S
C476 C482 1.404 . S
C477 C476 1.375 . S
C477 C478 1.369 . S
C477 H490 0.950 . S
C478 C477 1.369 . S
C478 C479 1.392 . S
C478 H491 0.951 . S
C479 C478 1.392 . S
C479 C481 1.384 . S
H480 C482 0.949 . S
C481 C479 1.384 . S
C481 C482 1.385 . S
C481 H483 0.950 . S
C482 C476 1.404 . S
C482 H480 0.949 . S
C482 C481 1.385 . S
H483 C481 0.950 . S
H484 C468 0.951 . S
H485 C470 0.951 . S
H486 C472 0.951 . S
H487 C473 0.950 . S
H488 C474 0.950 . S
H489 C475 0.950 . S
H490 C477 0.950 . S
H491 C478 0.951 . S
C492 C493 1.386 . S
C492 C494 1.383 . S
C492 H508 0.951 . S
C493 C492 1.386 . S
C493 C497 1.383 . S
C494 C492 1.383 . S
C494 C495 1.402 . S
C494 H509 0.951 . S
C495 C494 1.402 . S
C495 C496 1.375 . S
C495 C498 1.481 . S
C496 C495 1.375 . S
C496 C497 1.367 . S
C496 H510 0.951 . S
C497 C493 1.383 . S
C497 C496 1.367 . S
C497 H511 0.950 . S
C498 C495 1.481 . S
C498 C499 1.297 . S
C498 H512 0.950 . S
C499 C498 1.297 . S
C499 C500 1.479 . S
C499 H513 0.950 . S
C500 C499 1.479 . S
C500 C501 1.375 . S
C500 C506 1.404 . S
C501 C500 1.375 . S
C501 C502 1.369 . S
C501 H514 0.950 . S
C502 C501 1.369 . S
C502 C503 1.392 . S
C502 H515 0.951 . S
C503 C502 1.392 . S
C503 C505 1.384 . S
H504 C506 0.949 . S
C505 C503 1.384 . S
C505 C506 1.385 . S
C505 H507 0.950 . S
C506 C500 1.404 . S
C506 H504 0.949 . S
C506 C505 1.385 . S
H507 C505 0.950 . S
H508 C492 0.951 . S
H509 C494 0.951 . S
H510 C496 0.951 . S
H511 C497 0.950 . S
H512 C498 0.950 . S
H513 C499 0.950 . S
H514 C501 0.950 . S
H515 C502 0.951 . S
C516 C517 1.386 . S
C516 C518 1.383 . S
C516 H532 0.951 . S
C517 C516 1.386 . S
C517 C521 1.383 . S
C518 C516 1.383 . S
C518 C519 1.402 . S
C518 H533 0.951 . S
C519 C518 1.402 . S
C519 C520 1.375 . S
C519 C522 1.481 . S
C520 C519 1.375 . S
C520 C521 1.367 . S
C520 H534 0.951 . S
C521 C517 1.383 . S
C521 C520 1.367 . S
C521 H535 0.950 . S
C522 C519 1.481 . S
C522 C523 1.297 . S
C522 H536 0.950 . S
C523 C522 1.297 . S
C523 C524 1.479 . S
C523 H537 0.950 . S
C524 C523 1.479 . S
C524 C525 1.375 . S
C524 C530 1.404 . S
C525 C524 1.375 . S
C525 C526 1.369 . S
C525 H538 0.950 . S
C526 C525 1.369 . S
C526 C527 1.392 . S
C526 H539 0.951 . S
C527 C526 1.392 . S
C527 C529 1.384 . S
H528 C530 0.949 . S
C529 C527 1.384 . S
C529 C530 1.385 . S
C529 H531 0.950 . S
C530 C524 1.404 . S
C530 H528 0.949 . S
C530 C529 1.385 . S
H531 C529 0.950 . S
H532 C516 0.951 . S
H533 C518 0.951 . S
H534 C520 0.951 . S
H535 C521 0.950 . S
H536 C522 0.950 . S
H537 C523 0.950 . S
H538 C525 0.950 . S
H539 C526 0.951 . S
C540 C541 1.386 . S
C540 C542 1.383 . S
C540 H556 0.951 . S
C541 C540 1.386 . S
C541 C545 1.383 1_455 S
C542 C540 1.383 . S
C542 C543 1.402 . S
C542 H557 0.951 . S
C543 C542 1.402 . S
C543 C544 1.375 1_455 S
C543 C546 1.481 . S
C544 C543 1.375 1_655 S
C544 C545 1.367 . S
C544 H558 0.951 . S
C545 C541 1.383 1_655 S
C545 C544 1.367 . S
C545 H559 0.950 . S
C546 C543 1.481 . S
C546 C547 1.297 . S
C546 H560 0.964 . S
C547 C546 1.297 . S
C547 C548 1.479 . S
C547 H561 0.950 . S
C548 C547 1.479 . S
C548 C549 1.375 . S
C548 C554 1.404 . S
C549 C548 1.375 . S
C549 C550 1.369 1_554 S
C549 H562 0.950 . S
C550 C549 1.369 1_556 S
C550 C551 1.392 . S
C550 H563 0.951 . S
C551 C550 1.392 . S
C551 C553 1.384 . S
H552 C554 0.949 1_655 S
C553 C551 1.384 . S
C553 C554 1.385 1_556 S
C553 H555 0.950 . S
C554 C548 1.404 . S
C554 H552 0.949 1_455 S
C554 C553 1.385 1_554 S
H555 C553 0.950 . S
H556 C540 0.951 . S
H557 C542 0.951 . S
H558 C544 0.951 . S
H559 C545 0.950 . S
H560 C546 0.964 . S
H561 C547 0.950 . S
H562 C549 0.950 . S
H563 C550 0.951 . S
C564 C565 1.386 1_565 S
C564 C566 1.383 1_565 S
C564 H580 0.951 . S
C565 C564 1.386 1_545 S
C565 C569 1.383 . S
C566 C564 1.383 1_545 S
C566 C567 1.402 . S
C566 H581 0.951 1_545 S
C567 C566 1.402 . S
C567 C568 1.375 . S
C567 C570 1.481 . S
C568 C567 1.375 . S
C568 C569 1.367 . S
C568 H582 0.951 . S
C569 C565 1.383 . S
C569 C568 1.367 . S
C569 H583 0.950 . S
C570 C567 1.481 . S
C570 C571 1.297 . S
C570 H584 0.950 . S
C571 C570 1.297 . S
C571 C572 1.479 . S
C571 H585 0.950 . S
C572 C571 1.479 . S
C572 C573 1.375 . S
C572 C578 1.404 . S
C573 C572 1.375 . S
C573 C574 1.369 . S
C573 H586 0.950 1_545 S
C574 C573 1.369 . S
C574 C575 1.392 . S
C574 H587 0.951 1_545 S
C575 C574 1.392 . S
C575 C577 1.384 . S
H576 C578 0.949 . S
C577 C575 1.384 . S
C577 C578 1.385 . S
C577 H579 0.950 . S
C578 C572 1.404 . S
C578 H576 0.949 . S
C578 C577 1.385 . S
H579 C577 0.950 . S
H580 C564 0.951 . S
H581 C566 0.951 1_565 S
H582 C568 0.951 . S
H583 C569 0.950 . S
H584 C570 0.950 . S
H585 C571 0.950 . S
H586 C573 0.950 1_565 S
H587 C574 0.951 1_565 S
C588 C589 1.386 . S
C588 C590 1.383 . S
C588 H604 0.951 . S
C589 C588 1.386 . S
C589 C593 1.383 . S
C590 C588 1.383 . S
C590 C591 1.402 . S
C590 H605 0.951 . S
C591 C590 1.402 . S
C591 C592 1.375 . S
C591 C594 1.481 . S
C592 C591 1.375 . S
C592 C593 1.367 . S
C592 H606 0.951 . S
C593 C589 1.383 . S
C593 C592 1.367 . S
C593 H607 0.950 . S
C594 C591 1.481 . S
C594 C595 1.297 . S
C594 H608 0.950 . S
C595 C594 1.297 . S
C595 C596 1.479 . S
C595 H609 0.950 . S
C596 C595 1.479 . S
C596 C597 1.375 . S
C596 C602 1.404 . S
C597 C596 1.375 . S
C597 C598 1.369 . S
C597 H610 0.950 . S
C598 C597 1.369 . S
C598 C599 1.392 . S
C598 H611 0.951 . S
C599 C598 1.392 . S
C599 C601 1.384 . S
H600 C602 0.949 . S
C601 C599 1.384 . S
C601 C602 1.385 . S
C601 H603 0.950 . S
C602 C596 1.404 . S
C602 H600 0.949 . S
C602 C601 1.385 . S
H603 C601 0.950 . S
H604 C588 0.951 . S
H605 C590 0.951 . S
H606 C592 0.951 . S
H607 C593 0.950 . S
H608 C594 0.950 . S
H609 C595 0.950 . S
H610 C597 0.950 . S
H611 C598 0.951 . S
C612 C613 1.386 . S
C612 C614 1.383 . S
C612 H628 0.951 . S
C613 C612 1.386 . S
C613 C617 1.383 1_545 S
C614 C612 1.383 . S
C614 C615 1.402 . S
C614 H629 0.951 . S
C615 C614 1.402 . S
C615 C616 1.375 1_545 S
C615 C618 1.481 1_545 S
C616 C615 1.375 1_565 S
C616 C617 1.367 . S
C616 H630 0.951 . S
C617 C613 1.383 1_565 S
C617 C616 1.367 . S
C617 H631 0.950 . S
C618 C615 1.481 1_565 S
C618 C619 1.297 1_565 S
C618 H632 0.950 . S
C619 C618 1.297 1_545 S
C619 C620 1.479 . S
C619 H633 0.950 . S
C620 C619 1.479 . S
C620 C621 1.375 . S
C620 C626 1.404 1_545 S
C621 C620 1.375 . S
C621 C622 1.369 . S
C621 H634 0.950 . S
C622 C621 1.369 . S
C622 C623 1.392 . S
C622 H635 0.951 . S
C623 C622 1.392 . S
C623 C625 1.384 1_545 S
H624 C626 0.949 . S
C625 C623 1.384 1_565 S
C625 C626 1.385 . S
C625 H627 0.950 . S
C626 C620 1.404 1_565 S
C626 H624 0.949 . S
C626 C625 1.385 . S
H627 C625 0.950 . S
H628 C612 0.951 . S
H629 C614 0.951 . S
H630 C616 0.951 . S
H631 C617 0.950 . S
H632 C618 0.950 . S
H633 C619 0.950 . S
H634 C621 0.950 . S
H635 C622 0.951 . S
C636 C637 1.386 . S
C636 C638 1.383 . S
C636 H652 0.951 . S
C637 C636 1.386 . S
C637 C641 1.383 . S
C638 C636 1.383 . S
C638 C639 1.402 . S
C638 H653 0.951 . S
C639 C638 1.402 . S
C639 C640 1.375 . S
C639 C642 1.481 . S
C640 C639 1.375 . S
C640 C641 1.367 . S
C640 H654 0.951 . S
C641 C637 1.383 . S
C641 C640 1.367 . S
C641 H655 0.950 . S
C642 C639 1.481 . S
C642 C643 1.297 . S
C642 H656 0.950 . S
C643 C642 1.297 . S
C643 C644 1.479 . S
C643 H657 0.950 . S
C644 C643 1.479 . S
C644 C645 1.375 . S
C644 C650 1.404 . S
C645 C644 1.375 . S
C645 C646 1.369 1_556 S
C645 H658 0.950 . S
C646 C645 1.369 1_554 S
C646 C647 1.392 . S
C646 H659 0.951 . S
C647 C646 1.392 . S
C647 C649 1.384 . S
H648 C650 0.949 . S
C649 C647 1.384 . S
C649 C650 1.385 1_554 S
C649 H651 0.950 . S
C650 C644 1.404 . S
C650 H648 0.949 . S
C650 C649 1.385 1_556 S
H651 C649 0.950 . S
H652 C636 0.951 . S
H653 C638 0.951 . S
H654 C640 0.951 . S
H655 C641 0.950 . S
H656 C642 0.950 . S
H657 C643 0.950 . S
H658 C645 0.950 . S
H659 C646 0.951 . S
C660 C661 1.386 1_455 S
C660 C662 1.383 . S
C660 H676 0.951 . S
C661 C660 1.386 1_655 S
C661 C665 1.383 . S
C662 C660 1.383 . S
C662 C663 1.402 1_455 S
C662 H677 0.951 . S
C663 C662 1.402 1_655 S
C663 C664 1.375 . S
C663 C666 1.481 . S
C664 C663 1.375 . S
C664 C665 1.367 . S
C664 H678 0.951 . S
C665 C661 1.383 . S
C665 C664 1.367 . S
C665 H679 0.950 . S
C666 C663 1.481 . S
C666 C667 1.297 1_655 S
C666 H680 0.950 . S
C667 C666 1.297 1_455 S
C667 C668 1.479 . S
C667 H681 0.950 . S
C668 C667 1.479 . S
C668 C669 1.375 . S
C668 C674 1.404 1_455 S
C669 C668 1.375 . S
C669 C670 1.369 . S
C669 H682 0.950 . S
C670 C669 1.369 . S
C670 C671 1.392 . S
C670 H683 0.951 . S
C671 C670 1.392 . S
C671 C673 1.384 1_455 S
H672 C674 0.949 . S
C673 C671 1.384 1_655 S
C673 C674 1.385 . S
C673 H675 0.950 . S
C674 C668 1.404 1_655 S
C674 H672 0.949 . S
C674 C673 1.385 . S
H675 C673 0.950 . S
H676 C660 0.951 . S
H677 C662 0.951 . S
H678 C664 0.951 . S
H679 C665 0.950 . S
H680 C666 0.950 . S
H681 C667 0.950 . S
H682 C669 0.950 . S
H683 C670 0.951 . S
C253 C2 1.256 . S
C263 C243 1.297 . S
C277 C22 1.295 . S
C287 C179 1.397 . S
C301 C44 1.319 . S
C311 C211 1.422 . S
C325 C4 1.534 . S
C335 C237 1.592 . S
C359 C173 1.556 . S
C349 C24 1.488 . S
C383 C205 1.462 . S
C373 C42 1.398 . S
C397 C32 1.254 . S
C407 C115 1.270 . S
C421 C49 1.172 . S
C431 C147 1.165 . S
C445 C9 1.222 . S
C455 C77 1.227 . S
C479 C109 1.219 . S
C469 C29 1.198 . S
C503 C141 1.265 . S
C493 C52 1.201 . S
C517 C12 1.253 . S
C527 C83 1.230 . S
C551 C153 1.424 . S
C541 C18 1.417 1_455 S
C565 C38 1.434 . S
C575 C89 1.437 . S
C589 C58 1.401 . S
C599 C121 1.424 . S
C623 C217 1.490 . S
C613 C39 1.496 . S
C647 C249 1.414 . S
C637 C59 1.443 . S
C661 C19 1.480 1_655 S
C671 C185 1.469 . S
