# Generated by pormake.
# Topology nom, (4,4)-cn, num edge types: 1
# Building blocks:
#     Node 0, Type 0, BuildingBlock: MIFKUJ_clean_linker_1, # of connection points: 4
#     Node 1, Type 0, BuildingBlock: MIFKUJ_clean_linker_1, # of connection points: 4
#     Node 2, Type 0, BuildingBlock: MIFKUJ_clean_linker_1, # of connection points: 4
#     Node 3, Type 0, BuildingBlock: MIFKUJ_clean_linker_1, # of connection points: 4
#     Node 4, Type 0, BuildingBlock: MIFKUJ_clean_linker_1, # of connection points: 4
#     Node 5, Type 0, BuildingBlock: MIFKUJ_clean_linker_1, # of connection points: 4
#     Node 6, Type 1, BuildingBlock: GALJAG_clean_sbu_0, # of connection points: 4
#     Node 7, Type 1, BuildingBlock: GALJAG_clean_sbu_0, # of connection points: 4
#     Node 8, Type 1, BuildingBlock: GALJAG_clean_sbu_0, # of connection points: 4
#     Node 9, Type 1, BuildingBlock: GALJAG_clean_sbu_0, # of connection points: 4
#     Node 10, Type 1, BuildingBlock: GALJAG_clean_sbu_0, # of connection points: 4
#     Node 11, Type 1, BuildingBlock: GALJAG_clean_sbu_0, # of connection points: 4
#     Edge 12, Type (0, 1), BuildingBlock: XUDNAN_clean_linker_2, # of connection points: 2
#     Edge 13, Type (0, 1), BuildingBlock: XUDNAN_clean_linker_2, # of connection points: 2
#     Edge 14, Type (0, 1), BuildingBlock: XUDNAN_clean_linker_2, # of connection points: 2
#     Edge 15, Type (0, 1), BuildingBlock: XUDNAN_clean_linker_2, # of connection points: 2
#     Edge 16, Type (0, 1), BuildingBlock: XUDNAN_clean_linker_2, # of connection points: 2
#     Edge 17, Type (0, 1), BuildingBlock: XUDNAN_clean_linker_2, # of connection points: 2
#     Edge 18, Type (0, 1), BuildingBlock: XUDNAN_clean_linker_2, # of connection points: 2
#     Edge 19, Type (0, 1), BuildingBlock: XUDNAN_clean_linker_2, # of connection points: 2
#     Edge 20, Type (0, 1), BuildingBlock: XUDNAN_clean_linker_2, # of connection points: 2
#     Edge 21, Type (0, 1), BuildingBlock: XUDNAN_clean_linker_2, # of connection points: 2
#     Edge 22, Type (0, 1), BuildingBlock: XUDNAN_clean_linker_2, # of connection points: 2
#     Edge 23, Type (0, 1), BuildingBlock: XUDNAN_clean_linker_2, # of connection points: 2
#     Edge 24, Type (0, 1), BuildingBlock: XUDNAN_clean_linker_2, # of connection points: 2
#     Edge 25, Type (0, 1), BuildingBlock: XUDNAN_clean_linker_2, # of connection points: 2
#     Edge 26, Type (0, 1), BuildingBlock: XUDNAN_clean_linker_2, # of connection points: 2
#     Edge 27, Type (0, 1), BuildingBlock: XUDNAN_clean_linker_2, # of connection points: 2
#     Edge 28, Type (0, 1), BuildingBlock: XUDNAN_clean_linker_2, # of connection points: 2
#     Edge 29, Type (0, 1), BuildingBlock: XUDNAN_clean_linker_2, # of connection points: 2
#     Edge 30, Type (0, 1), BuildingBlock: XUDNAN_clean_linker_2, # of connection points: 2
#     Edge 31, Type (0, 1), BuildingBlock: XUDNAN_clean_linker_2, # of connection points: 2
#     Edge 32, Type (0, 1), BuildingBlock: XUDNAN_clean_linker_2, # of connection points: 2
#     Edge 33, Type (0, 1), BuildingBlock: XUDNAN_clean_linker_2, # of connection points: 2
#     Edge 34, Type (0, 1), BuildingBlock: XUDNAN_clean_linker_2, # of connection points: 2
#     Edge 35, Type (0, 1), BuildingBlock: XUDNAN_clean_linker_2, # of connection points: 2
# Relax obj value: 0.004
# Max RMSD: 0.109
# Mean RMSD: 0.081
data_MOF--net-nom--node1-GALJAG_clean_sbu_0--node2-MIFKUJ_clean_linker_1--edge1-XUDNAN_clean_linker_2
_symmetry_space_group_name_H-M    P1
_symmetry_Int_Tables_number       1
_symmetry_cell_setting            triclinic
loop_
_symmetry_equiv_pos_as_xyz
'x, y, z'
_cell_length_a     52.726144
_cell_length_b     52.644978
_cell_length_c     57.713361
_cell_angle_alpha  89.952548
_cell_angle_beta   89.995451
_cell_angle_gamma 120.02148
loop_
_atom_site_label
_atom_site_type_symbol
_atom_site_fract_x
_atom_site_fract_y
_atom_site_fract_z
_atom_type_partial_charge
H0 H 0.99975 0.50057 0.28448 0.0
H1 H 0.9694 0.48643 0.24942 0.0
H2 H 0.93605 0.54326 0.26951 0.0
H3 H 0.96648 0.55735 0.30443 0.0
H4 H 0.04364 0.55943 0.29695 0.0
H5 H 0.95322 0.47745 0.33164 0.0
H6 H 0.90076 0.45179 0.33993 0.0
H7 H 0.90907 0.53235 0.36679 0.0
H8 H 0.96174 0.55726 0.35952 0.0
H9 H 0.03792 0.5883 0.39391 0.0
H10 H 0.06757 0.6035 0.42875 0.0
H11 H 0.12149 0.57042 0.40063 0.0
H12 H 0.08995 0.55291 0.36646 0.0
H13 H 1.00323 0.54006 0.37672 0.0
H14 H 0.09213 0.62052 0.3509 0.0
H15 H 0.14495 0.65052 0.34408 0.0
H16 H 0.14095 0.58561 0.29642 0.0
H17 H 0.08837 0.55462 0.30421 0.0
C18 C 0.98525 0.52989 0.29707 0.0
C19 C 0.98575 0.50981 0.28136 0.0
C20 C 0.9683 0.50163 0.26144 0.0
C21 C 0.9504 0.51378 0.25673 0.0
C22 C 0.9498 0.53372 0.27261 0.0
C23 C 0.96701 0.54164 0.29262 0.0
C24 C 1.00455 0.53937 0.31772 0.0
C25 C 0.03501 0.55485 0.31447 0.0
C26 C 0.99312 0.53463 0.34042 0.0
C27 C 0.96123 0.5192 0.34494 0.0
C28 C 0.94364 0.48947 0.33935 0.0
C29 C 0.91359 0.47492 0.34398 0.0
C30 C 0.90046 0.48995 0.354 0.0
C31 C 0.91834 0.51985 0.35948 0.0
C32 C 0.94845 0.53424 0.35518 0.0
C33 C 0.06178 0.56971 0.37731 0.0
C34 C 0.05591 0.58398 0.39528 0.0
C35 C 0.07326 0.59309 0.41516 0.0
C36 C 0.09738 0.5887 0.4175 0.0
C37 C 0.10306 0.57406 0.39959 0.0
C38 C 0.08526 0.5644 0.37983 0.0
C39 C 0.04286 0.56008 0.35625 0.0
C40 C 0.01231 0.54465 0.35934 0.0
C41 C 0.05441 0.56595 0.33338 0.0
C42 C 0.08627 0.58486 0.32855 0.0
C43 C 0.10259 0.61242 0.33926 0.0
C44 C 0.13266 0.62971 0.3352 0.0
C45 C 0.14672 0.62022 0.31976 0.0
C46 C 0.13038 0.5933 0.30833 0.0
C47 C 0.10042 0.57567 0.3128 0.0
H48 H 0.42398 0.9636 0.52899 0.0
H49 H 0.39853 0.91088 0.53648 0.0
H50 H 0.4657 0.90411 0.4986 0.0
H51 H 0.49059 0.95686 0.49071 0.0
H52 H 0.48393 0.00839 0.53889 0.0
H53 H 0.42146 0.95596 0.47256 0.0
H54 H 0.40929 0.91894 0.44229 0.0
H55 H 0.494 0.97301 0.41095 0.0
H56 H 0.50701 0.00916 0.44198 0.0
H57 H 0.53948 0.08975 0.46081 0.0
H58 H 0.55996 0.14238 0.45346 0.0
H59 H 0.50622 0.14619 0.50826 0.0
H60 H 0.48519 0.09369 0.51507 0.0
H61 H 0.48869 0.04339 0.45823 0.0
H62 H 0.55744 0.0803 0.51989 0.0
H63 H 0.58598 0.1133 0.55109 0.0
H64 H 0.50576 0.09231 0.58712 0.0
H65 H 0.47755 0.05766 0.55632 0.0
C66 C 0.45895 0.964 0.50912 0.0
C67 C 0.43332 0.95074 0.5225 0.0
C68 C 0.41887 0.92061 0.52683 0.0
C69 C 0.42998 0.90317 0.51807 0.0
C70 C 0.45624 0.91676 0.50526 0.0
C71 C 0.47061 0.94692 0.50085 0.0
C72 C 0.47277 0.99553 0.50323 0.0
C73 C 0.48454 0.016 0.5213 0.0
C74 C 0.47504 0.00549 0.48006 0.0
C75 C 0.4655 0.98502 0.45998 0.0
C76 C 0.43752 0.95985 0.45928 0.0
C77 C 0.43045 0.93884 0.44192 0.0
C78 C 0.45081 0.94325 0.42448 0.0
C79 C 0.47796 0.96929 0.42422 0.0
C80 C 0.48533 0.98992 0.44191 0.0
C81 C 0.51125 0.08784 0.48885 0.0
C82 C 0.5319 0.10186 0.47109 0.0
C83 C 0.54355 0.13187 0.46687 0.0
C84 C 0.53485 0.14832 0.48046 0.0
C85 C 0.51365 0.1341 0.49779 0.0
C86 C 0.50177 0.10414 0.50178 0.0
C87 C 0.49935 0.0562 0.49396 0.0
C88 C 0.48787 0.03574 0.47582 0.0
C89 C 0.49867 0.04618 0.51683 0.0
C90 C 0.51544 0.06674 0.53577 0.0
C91 C 0.54607 0.08284 0.53456 0.0
C92 C 0.56235 0.10196 0.5524 0.0
C93 C 0.54834 0.10592 0.57172 0.0
C94 C 0.51748 0.08964 0.5728 0.0
C95 C 0.50123 0.06996 0.55512 0.0
H96 H 0.51526 0.52927 0.7128 0.0
H97 H 0.50915 0.55794 0.74339 0.0
H98 H 0.41532 0.50762 0.73466 0.0
H99 H 0.42155 0.47907 0.70371 0.0
H100 H 0.49227 0.46748 0.70719 0.0
H101 H 0.48199 0.54737 0.67469 0.0
H102 H 0.45792 0.57489 0.66416 0.0
H103 H 0.3926 0.49992 0.62595 0.0
H104 H 0.41551 0.47178 0.63821 0.0
H105 H 0.45823 0.43067 0.61094 0.0
H106 H 0.47799 0.42397 0.57467 0.0
H107 H 0.56578 0.47493 0.60202 0.0
H108 H 0.54568 0.4807 0.63854 0.0
H109 H 0.46892 0.48273 0.62697 0.0
H110 H 0.47688 0.40404 0.65321 0.0
H111 H 0.49759 0.37242 0.66034 0.0
H112 H 0.55947 0.43596 0.7084 0.0
H113 H 0.53944 0.46831 0.70058 0.0
C114 C 0.46887 0.50218 0.70594 0.0
C115 C 0.49334 0.52414 0.71766 0.0
C116 C 0.48986 0.54061 0.73499 0.0
C117 C 0.4618 0.53507 0.74121 0.0
C118 C 0.43718 0.51222 0.73018 0.0
C119 C 0.4407 0.49599 0.71253 0.0
C120 C 0.47341 0.48734 0.6859 0.0
C121 C 0.48735 0.47086 0.6896 0.0
C122 C 0.46549 0.49057 0.66309 0.0
C123 C 0.45029 0.50724 0.65766 0.0
C124 C 0.462 0.53654 0.66464 0.0
C125 C 0.44845 0.55248 0.65818 0.0
C126 C 0.42333 0.5398 0.64399 0.0
C127 C 0.41157 0.51037 0.63716 0.0
C128 C 0.42485 0.49429 0.64398 0.0
C129 C 0.50045 0.4562 0.62743 0.0
C130 C 0.4817 0.43999 0.60923 0.0
C131 C 0.49309 0.4364 0.58843 0.0
C132 C 0.52356 0.44936 0.58523 0.0
C133 C 0.54223 0.46448 0.60389 0.0
C134 C 0.53077 0.46784 0.6248 0.0
C135 C 0.48871 0.46365 0.64811 0.0
C136 C 0.47343 0.47879 0.64455 0.0
C137 C 0.4946 0.4584 0.67101 0.0
C138 C 0.50699 0.43898 0.67591 0.0
C139 C 0.49522 0.41152 0.665 0.0
C140 C 0.5069 0.39331 0.66922 0.0
C141 C 0.53019 0.40183 0.68484 0.0
C142 C 0.54139 0.42883 0.69637 0.0
C143 C 0.52999 0.44731 0.69186 0.0
H144 H 0.05196 0.55527 0.79209 0.0
H145 H 0.08786 0.58277 0.76184 0.0
H146 H 0.12331 0.52479 0.76844 0.0
H147 H 0.08704 0.49711 0.79863 0.0
H148 H 0.0087 0.49651 0.79383 0.0
H149 H 0.09965 0.56265 0.83417 0.0
H150 H 0.14982 0.58335 0.84887 0.0
H151 H 0.12854 0.49829 0.87544 0.0
H152 H 0.0789 0.47742 0.8601 0.0
H153 H 1.00035 0.43945 0.88348 0.0
H154 H 0.96838 0.42036 0.91707 0.0
H155 H 0.92434 0.46727 0.89589 0.0
H156 H 0.9581 0.48825 0.86342 0.0
H157 H 0.0397 0.49062 0.87379 0.0
H158 H 0.95478 0.4216 0.83265 0.0
H159 H 0.9027 0.3959 0.82262 0.0
H160 H 0.91114 0.47736 0.79814 0.0
H161 H 0.96323 0.50303 0.80842 0.0
C162 C 0.06698 0.52431 0.79772 0.0
C163 C 0.06738 0.54841 0.78695 0.0
C164 C 0.08804 0.56423 0.76981 0.0
C165 C 0.10853 0.55606 0.76289 0.0
C166 C 0.10772 0.53152 0.77335 0.0
C167 C 0.08715 0.51581 0.79067 0.0
C168 C 0.0455 0.50838 0.81643 0.0
C169 C 0.01548 0.49535 0.81137 0.0
C170 C 0.0543 0.50586 0.83908 0.0
C171 C 0.08548 0.51839 0.84589 0.0
C172 C 0.10597 0.54828 0.8426 0.0
C173 C 0.13457 0.56013 0.85107 0.0
C174 C 0.14285 0.5424 0.8634 0.0
C175 C 0.12257 0.51245 0.86619 0.0
C176 C 0.09424 0.50054 0.85743 0.0
C177 C 0.98158 0.46512 0.87067 0.0
C178 C 0.98386 0.44571 0.88609 0.0
C179 C 0.96523 0.43449 0.90522 0.0
C180 C 0.94352 0.44208 0.90929 0.0
C181 C 0.94098 0.46118 0.8936 0.0
C182 C 0.96 0.47282 0.87469 0.0
C183 C 1.00288 0.47858 0.85127 0.0
C184 C 0.03286 0.49134 0.85619 0.0
C185 C 0.99407 0.47991 0.82834 0.0
C186 C 0.96279 0.46426 0.82146 0.0
C187 C 0.9454 0.43391 0.82512 0.0
C188 C 0.91572 0.41923 0.81925 0.0
C189 C 0.90286 0.43465 0.80966 0.0
C190 C 0.92041 0.46498 0.80573 0.0
C191 C 0.95017 0.47962 0.81144 0.0
H192 H 0.60574 0.0685 0.03867 0.0
H193 H 0.63741 0.11702 0.05495 0.0
H194 H 0.58597 0.14922 0.02097 0.0
H195 H 0.5542 0.10027 1.00451 0.0
H196 H 0.54798 0.03342 0.04703 0.0
H197 H 0.60936 0.08217 0.97838 0.0
H198 H 0.62861 0.11481 0.94477 0.0
H199 H 0.54026 0.08577 0.92186 0.0
H200 H 0.52119 0.05359 0.95571 0.0
H201 H 0.48158 0.95696 0.96786 0.0
H202 H 0.46927 0.90838 0.95282 0.0
H203 H 0.53633 0.90906 0.99616 0.0
H204 H 0.54848 0.95721 0.01107 0.0
H205 H 0.53359 0.00784 0.96356 0.0
H206 H 0.47096 0.95686 0.02495 0.0
H207 H 0.4463 0.91983 0.05489 0.0
H208 H 0.52901 0.95079 0.09014 0.0
H209 H 0.55335 0.98853 0.06038 0.0
C210 C 0.57753 0.08069 0.02043 0.0
C211 C 0.60127 0.086 0.03466 0.0
C212 C 0.6193 0.11374 0.04405 0.0
C213 C 0.61399 0.13689 0.03951 0.0
C214 C 0.59069 0.13184 0.02471 0.0
C215 C 0.57253 0.10391 0.01529 0.0
C216 C 0.55761 0.05039 0.01213 0.0
C217 C 0.54496 0.02785 0.02875 0.0
C218 C 0.55195 0.04319 0.98833 0.0
C219 C 0.56383 0.06558 0.96964 0.0
C220 C 0.59416 0.08333 0.96641 0.0
C221 C 0.60511 0.10177 0.94707 0.0
C222 C 0.58595 0.10276 0.93056 0.0
C223 C 0.5556 0.08576 0.93434 0.0
C224 C 0.54467 0.06724 0.95361 0.0
C225 C 0.51578 0.9606 0.99071 0.0
C226 C 0.49333 0.94643 0.97429 0.0
C227 C 0.48627 0.91871 0.9658 0.0
C228 C 0.502 0.90513 0.97326 0.0
C229 C 0.52403 0.91915 0.99 0.0
C230 C 0.5308 0.94654 0.99866 0.0
C231 C 0.52554 0.991 0.99843 0.0
C232 C 0.53608 0.0135 0.98181 0.0
C233 C 0.52856 0.9983 0.0222 0.0
C234 C 0.51402 0.9754 0.04034 0.0
C235 C 0.48381 0.95558 0.03907 0.0
C236 C 0.46975 0.93429 0.0562 0.0
C237 C 0.48562 0.93211 0.07498 0.0
C238 C 0.51596 0.95203 0.07617 0.0
C239 C 0.52997 0.97355 0.0591 0.0
H240 H 0.53592 0.50325 0.21201 0.0
H241 H 0.55413 0.48862 0.24542 0.0
H242 H 0.64262 0.54119 0.21983 0.0
H243 H 0.62429 0.55646 0.18681 0.0
H244 H 0.5504 0.56045 0.20184 0.0
H245 H 0.5663 0.48412 0.16366 0.0
H246 H 0.59595 0.46404 0.14799 0.0
H247 H 0.64943 0.54517 0.11107 0.0
H248 H 0.61994 0.56497 0.12665 0.0
H249 H 0.56707 0.59031 0.10209 0.0
H250 H 0.5408 0.59666 0.06974 0.0
H251 H 0.46083 0.55501 0.1098 0.0
H252 H 0.48693 0.54783 0.14174 0.0
H253 H 0.56205 0.54355 0.11903 0.0
H254 H 0.56185 0.62297 0.1511 0.0
H255 H 0.54843 0.65862 0.16453 0.0
H256 H 0.48612 0.59445 0.2122 0.0
H257 H 0.49946 0.55854 0.19847 0.0
C258 C 0.57871 0.5308 0.19685 0.0
C259 C 0.55923 0.51143 0.21352 0.0
C260 C 0.56965 0.5029 0.23251 0.0
C261 C 0.59983 0.51374 0.23531 0.0
C262 C 0.61926 0.53267 0.2183 0.0
C263 C 0.60881 0.5412 0.19929 0.0
C264 C 0.56745 0.54138 0.17781 0.0
C265 C 0.55243 0.55625 0.18373 0.0
C266 C 0.57227 0.53815 0.15415 0.0
C267 C 0.59088 0.52604 0.14629 0.0
C268 C 0.58464 0.49765 0.15242 0.0
C269 C 0.60158 0.48622 0.14346 0.0
C270 C 0.6248 0.50292 0.12808 0.0
C271 C 0.63133 0.53154 0.12249 0.0
C272 C 0.61456 0.54293 0.13146 0.0
C273 C 0.52902 0.56859 0.12439 0.0
C274 C 0.54391 0.5827 0.10396 0.0
C275 C 0.52891 0.58652 0.08553 0.0
C276 C 0.49867 0.57616 0.08714 0.0
C277 C 0.48402 0.56287 0.10789 0.0
C278 C 0.49902 0.55907 0.12628 0.0
C279 C 0.54409 0.5617 0.14305 0.0
C280 C 0.55977 0.54758 0.13713 0.0
C281 C 0.54173 0.56747 0.16663 0.0
C282 C 0.53151 0.58798 0.17365 0.0
C283 C 0.54493 0.61635 0.16416 0.0
C284 C 0.53747 0.63682 0.17201 0.0
C285 C 0.51637 0.62936 0.18951 0.0
C286 C 0.50234 0.60072 0.1986 0.0
C287 C 0.51002 0.58026 0.19086 0.0
In288 In 0.6439 0.40894 0.41541 0.0
O289 O 0.69402 0.43247 0.41891 0.0
O290 O 0.67287 0.39813 0.39404 0.0
C291 C 0.62053 0.4286 0.44708 0.0
C292 C 0.63826 0.43629 0.37821 0.0
C293 C 0.62029 0.35449 0.43285 0.0
O294 O 0.64651 0.43337 0.44906 0.0
O295 O 0.60709 0.4147 0.42911 0.0
O296 O 0.61294 0.35902 0.413 0.0
O297 O 0.63932 0.37714 0.44323 0.0
C298 C 0.69666 0.41746 0.40289 0.0
O299 O 0.62188 0.40884 0.38109 0.0
O300 O 0.65667 0.44937 0.39417 0.0
In301 In 0.26683 0.64629 0.58649 0.0
O302 O 0.28008 0.61058 0.58585 0.0
O303 O 0.30974 0.65253 0.59994 0.0
C304 C 0.22455 0.63264 0.5545 0.0
C305 C 0.23808 0.63524 0.62731 0.0
C306 C 0.30458 0.69836 0.56734 0.0
O307 O 0.23872 0.61908 0.55541 0.0
O308 O 0.23104 0.65168 0.57006 0.0
O309 O 0.29361 0.69633 0.58725 0.0
O310 O 0.29659 0.67417 0.55734 0.0
C311 C 0.30474 0.62711 0.59511 0.0
O312 O 0.25572 0.66093 0.62038 0.0
O313 O 0.23502 0.61515 0.6137 0.0
In314 In 0.64591 0.25656 0.7508 0.0
O315 O 0.69596 0.28078 0.75129 0.0
O316 O 0.67462 0.29882 0.77082 0.0
C317 C 0.63501 0.22304 0.71271 0.0
C318 C 0.63354 0.21877 0.78653 0.0
C319 C 0.61928 0.28512 0.73405 0.0
O320 O 0.65976 0.24512 0.71695 0.0
O321 O 0.61589 0.21703 0.72824 0.0
O322 O 0.61222 0.2724 0.75357 0.0
O323 O 0.63957 0.28366 0.72376 0.0
C324 C 0.69853 0.30095 0.76459 0.0
O325 O 0.61903 0.23167 0.78317 0.0
O326 O 0.65331 0.22458 0.77176 0.0
In327 In 0.40655 0.6453 0.91209 0.0
O328 O 0.36101 0.62758 0.92735 0.0
O329 O 0.36606 0.63672 0.89124 0.0
C330 C 0.4208 0.62193 0.94828 0.0
C331 C 0.42222 0.62899 0.87249 0.0
C332 C 0.43339 0.70359 0.92061 0.0
O333 O 0.39724 0.60791 0.93711 0.0
O334 O 0.43742 0.64764 0.94106 0.0
O335 O 0.44659 0.69118 0.91239 0.0
O336 O 0.40648 0.68663 0.92446 0.0
C337 C 0.34894 0.62732 0.90841 0.0
O338 O 0.42713 0.65468 0.87598 0.0
O339 O 0.4094 0.61142 0.88895 0.0
In340 In 0.78741 0.39984 0.08475 0.0
O341 O 0.81101 0.4029 0.11905 0.0
O342 O 0.8226 0.44234 0.10092 0.0
C343 C 0.74758 0.34203 0.08338 0.0
C344 C 0.75042 0.42128 0.08668 0.0
C345 C 0.82293 0.40412 0.04933 0.0
O346 O 0.76397 0.35388 0.10072 0.0
O347 O 0.75112 0.35939 0.067 0.0
O348 O 0.81198 0.42059 0.05094 0.0
O349 O 0.81644 0.38607 0.06573 0.0
C350 C 0.82655 0.43053 0.11851 0.0
O351 O 0.76489 0.42307 0.0687 0.0
O352 O 0.75451 0.40856 0.10359 0.0
In353 In 0.40598 0.77917 0.25472 0.0
O354 O 0.44896 0.77877 0.25135 0.0
O355 O 0.40983 0.74021 0.24172 0.0
C356 C 0.42231 0.81392 0.29258 0.0
C357 C 0.41236 0.80776 0.21429 0.0
C358 C 0.35175 0.74125 0.27087 0.0
O359 O 0.42719 0.79295 0.29018 0.0
O360 O 0.41011 0.8183 0.27542 0.0
O361 O 0.35576 0.75865 0.25437 0.0
O362 O 0.37474 0.74255 0.27851 0.0
C363 C 0.4373 0.75291 0.24369 0.0
O364 O 0.39205 0.78173 0.21773 0.0
O365 O 0.42892 0.81968 0.23149 0.0
H366 H 0.1766 0.64911 0.28059 0.0
H367 H 0.18839 0.6306 0.35169 0.0
H368 H 0.24223 0.6589 0.34654 0.0
H369 H 0.23754 0.64586 0.2557 0.0
H370 H 0.24767 0.67616 0.23613 0.0
H371 H 0.2101 0.65387 0.24516 0.0
H372 H 0.20989 0.70023 0.25992 0.0
H373 H 0.24743 0.72267 0.25088 0.0
H374 H 0.23725 0.72398 0.28048 0.0
H375 H 0.29412 0.6872 0.33331 0.0
H376 H 0.34169 0.71789 0.31406 0.0
H377 H 0.29692 0.72152 0.25212 0.0
C378 C 0.19067 0.6511 0.29497 0.0
C379 C 0.1787 0.6377 0.3165 0.0
C380 C 0.19743 0.64081 0.33512 0.0
C381 C 0.22791 0.65672 0.33231 0.0
C382 C 0.23916 0.66968 0.31086 0.0
C383 C 0.2212 0.66741 0.29259 0.0
C384 C 0.23906 0.6844 0.27165 0.0
C385 C 0.23324 0.66384 0.25094 0.0
C386 C 0.23305 0.7093 0.26537 0.0
C387 C 0.26985 0.69636 0.28097 0.0
C388 C 0.26931 0.68727 0.30354 0.0
C389 C 0.29486 0.69465 0.31571 0.0
C390 C 0.32175 0.71199 0.30459 0.0
C391 C 0.32293 0.72213 0.28166 0.0
C392 C 0.29661 0.71422 0.26972 0.0
H393 H 0.54299 0.17914 0.43992 0.0
H394 H 0.55773 0.18985 0.51413 0.0
H395 H 0.58037 0.24349 0.50975 0.0
H396 H 0.61 0.24387 0.4227 0.0
H397 H 0.59343 0.25288 0.39916 0.0
H398 H 0.5785 0.21523 0.40798 0.0
H399 H 0.52771 0.21073 0.41399 0.0
H400 H 0.54251 0.2484 0.40525 0.0
H401 H 0.52446 0.2362 0.4329 0.0
H402 H 0.60228 0.29532 0.4976 0.0
H403 H 0.62138 0.34327 0.47848 0.0
H404 H 0.59121 0.29996 0.41196 0.0
C405 C 0.55113 0.19288 0.45518 0.0
C406 C 0.54861 0.18046 0.47739 0.0
C407 C 0.55923 0.19898 0.49702 0.0
C408 C 0.57219 0.22943 0.49469 0.0
C409 C 0.57417 0.24099 0.47262 0.0
C410 C 0.56387 0.2234 0.45319 0.0
C411 C 0.56848 0.24164 0.43156 0.0
C412 C 0.58882 0.2382 0.41434 0.0
C413 C 0.53903 0.23377 0.42026 0.0
C414 C 0.58316 0.27222 0.4419 0.0
C415 C 0.58628 0.27119 0.46561 0.0
C416 C 0.59984 0.29645 0.47907 0.0
C417 C 0.61066 0.32357 0.46802 0.0
C418 C 0.60767 0.32529 0.44377 0.0
C419 C 0.59352 0.29923 0.43056 0.0
H420 H 0.36484 0.5218 0.63621 0.0
H421 H 0.45222 0.59814 0.63207 0.0
H422 H 0.43113 0.62786 0.61848 0.0
H423 H 0.33771 0.53842 0.58363 0.0
H424 H 0.3014 0.52505 0.5951 0.0
H425 H 0.32315 0.5095 0.60496 0.0
H426 H 0.31703 0.5215 0.64741 0.0
H427 H 0.29525 0.53705 0.63769 0.0
H428 H 0.3274 0.55864 0.6551 0.0
H429 H 0.40103 0.64994 0.60697 0.0
H430 H 0.36345 0.66281 0.59672 0.0
H431 H 0.29557 0.57182 0.60498 0.0
C432 C 0.37965 0.54467 0.63222 0.0
C433 C 0.41029 0.55758 0.63556 0.0
C434 C 0.42867 0.58775 0.63032 0.0
C435 C 0.41693 0.60483 0.62233 0.0
C436 C 0.38676 0.59142 0.61929 0.0
C437 C 0.36833 0.56201 0.62388 0.0
C438 C 0.33666 0.55311 0.61898 0.0
C439 C 0.32399 0.53016 0.5995 0.0
C440 C 0.31799 0.54192 0.64112 0.0
C441 C 0.3402 0.58224 0.61117 0.0
C442 C 0.36934 0.60401 0.61161 0.0
C443 C 0.37818 0.63305 0.6063 0.0
C444 C 0.35669 0.64014 0.60055 0.0
C445 C 0.32672 0.61826 0.59987 0.0
C446 C 0.31839 0.58885 0.60499 0.0
H447 H 0.87082 0.38198 0.78731 0.0
H448 H 0.86332 0.45234 0.81957 0.0
H449 H 0.81023 0.42612 0.81109 0.0
H450 H 0.81914 0.36753 0.74121 0.0
H451 H 0.80457 0.32841 0.74183 0.0
H452 H 0.84195 0.35285 0.75031 0.0
H453 H 0.8321 0.32625 0.7899 0.0
H454 H 0.79469 0.30173 0.78154 0.0
H455 H 0.80254 0.32275 0.80786 0.0
H456 H 0.7577 0.39132 0.80038 0.0
H457 H 0.70978 0.35138 0.78671 0.0
H458 H 0.75191 0.30439 0.76059 0.0
C459 C 0.85797 0.39181 0.79265 0.0
C460 C 0.87114 0.41919 0.8041 0.0
C461 C 0.85369 0.43153 0.81057 0.0
C462 C 0.82353 0.41674 0.80593 0.0
C463 C 0.81123 0.38974 0.79468 0.0
C464 C 0.82792 0.37746 0.788 0.0
C465 C 0.80937 0.34825 0.77605 0.0
C466 C 0.81935 0.34935 0.75085 0.0
C467 C 0.80969 0.32327 0.78966 0.0
C468 C 0.7796 0.34594 0.77716 0.0
C469 C 0.78111 0.37002 0.78807 0.0
C470 C 0.75627 0.37245 0.79167 0.0
C471 C 0.72918 0.34966 0.78389 0.0
C472 C 0.72721 0.32493 0.7725 0.0
C473 C 0.75281 0.32317 0.76906 0.0
H474 H 0.44947 0.85386 0.96797 0.0
H475 H 0.54279 0.89341 0.95544 0.0
H476 H 0.53503 0.84661 0.93934 0.0
H477 H 0.43847 0.78424 0.98628 0.0
H478 H 0.40299 0.76325 0.97291 0.0
H479 H 0.41555 0.80029 0.98227 0.0
H480 H 0.40754 0.81407 0.94088 0.0
H481 H 0.39491 0.77703 0.9314 0.0
H482 H 0.42489 0.80735 0.9166 0.0
H483 H 0.51758 0.79566 0.92546 0.0
H484 H 0.49158 0.74302 0.91555 0.0
H485 H 0.40952 0.73573 0.93775 0.0
C486 C 0.46815 0.85266 0.96156 0.0
C487 C 0.49673 0.87717 0.9629 0.0
C488 C 0.52076 0.87477 0.95469 0.0
C489 C 0.51656 0.84836 0.94543 0.0
C490 C 0.48819 0.8245 0.94458 0.0
C491 C 0.46438 0.8263 0.95247 0.0
C492 C 0.43637 0.79695 0.95043 0.0
C493 C 0.42254 0.78551 0.9744 0.0
C494 C 0.41464 0.79898 0.93384 0.0
C495 C 0.44822 0.77841 0.94025 0.0
C496 C 0.47814 0.79483 0.93689 0.0
C497 C 0.49413 0.78257 0.92795 0.0
C498 C 0.47918 0.75266 0.92237 0.0
C499 C 0.44856 0.73531 0.92587 0.0
C500 C 0.43293 0.74846 0.93484 0.0
H501 H 0.64678 0.47085 0.14889 0.0
H502 H 0.64139 0.5072 0.08276 0.0
H503 H 0.67179 0.4891 0.0648 0.0
H504 H 0.7209 0.48834 0.14357 0.0
H505 H 0.71545 0.45512 0.15712 0.0
H506 H 0.69216 0.46976 0.16467 0.0
H507 H 0.64633 0.42027 0.15392 0.0
H508 H 0.6695 0.40543 0.1464 0.0
H509 H 0.64382 0.40492 0.12553 0.0
H510 H 0.70423 0.46884 0.05426 0.0
H511 H 0.73628 0.44717 0.05185 0.0
H512 H 0.72021 0.42338 0.12459 0.0
C513 C 0.65166 0.47461 0.13057 0.0
C514 C 0.64183 0.49055 0.11725 0.0
C515 C 0.64903 0.49539 0.09338 0.0
C516 C 0.66613 0.48505 0.08297 0.0
C517 C 0.67581 0.46979 0.09664 0.0
C518 C 0.66879 0.46447 0.11988 0.0
C519 C 0.6827 0.44818 0.13076 0.0
C520 C 0.70407 0.46645 0.15017 0.0
C521 C 0.65918 0.4179 0.13967 0.0
C522 C 0.69881 0.44543 0.11004 0.0
C523 C 0.69447 0.45798 0.09051 0.0
C524 C 0.70767 0.45878 0.06939 0.0
C525 C 0.72585 0.44646 0.06819 0.0
C526 C 0.73065 0.43354 0.08799 0.0
C527 C 0.71681 0.43296 0.10913 0.0
H528 H 0.4004 0.87271 0.55718 0.0
H529 H 0.42221 0.86035 0.48707 0.0
H530 H 0.39399 0.80672 0.49263 0.0
H531 H 0.40253 0.81152 0.58349 0.0
H532 H 0.37165 0.80209 0.60217 0.0
H533 H 0.39486 0.83957 0.59312 0.0
H534 H 0.34967 0.84071 0.57675 0.0
H535 H 0.32633 0.80325 0.58573 0.0
H536 H 0.32646 0.81345 0.55589 0.0
H537 H 0.36221 0.75448 0.50533 0.0
H538 H 0.3288 0.70721 0.52422 0.0
H539 H 0.32633 0.75357 0.58558 0.0
C540 C 0.39922 0.85878 0.54294 0.0
C541 C 0.41374 0.87085 0.52172 0.0
C542 C 0.41181 0.85172 0.50365 0.0
C543 C 0.39565 0.8212 0.50658 0.0
C544 C 0.38147 0.8101 0.52765 0.0
C545 C 0.38307 0.82828 0.54551 0.0
C546 C 0.36511 0.81076 0.56619 0.0
C547 C 0.38471 0.81632 0.5875 0.0
C548 C 0.34043 0.81744 0.57144 0.0
C549 C 0.35302 0.77986 0.5571 0.0
C550 C 0.36283 0.77998 0.53487 0.0
C551 C 0.35444 0.7541 0.52275 0.0
C552 C 0.33546 0.72738 0.53363 0.0
C553 C 0.325 0.72674 0.55636 0.0
C554 C 0.334 0.75338 0.56821 0.0
H555 H 0.54208 0.38313 0.72594 0.0
H556 H 0.54811 0.37822 0.65127 0.0
H557 H 0.57012 0.34676 0.65611 0.0
H558 H 0.60979 0.38564 0.73991 0.0
H559 H 0.59565 0.36285 0.76533 0.0
H560 H 0.58025 0.38499 0.75614 0.0
H561 H 0.52869 0.33868 0.75474 0.0
H562 H 0.54395 0.31637 0.76386 0.0
H563 H 0.52292 0.3077 0.73748 0.0
H564 H 0.59315 0.31809 0.66863 0.0
H565 H 0.61466 0.2917 0.68817 0.0
H566 H 0.59191 0.31229 0.75509 0.0
C567 C 0.54814 0.37543 0.71067 0.0
C568 C 0.54342 0.38302 0.6882 0.0
C569 C 0.55134 0.37241 0.66859 0.0
C570 C 0.5639 0.35462 0.67117 0.0
C571 C 0.56813 0.34739 0.6935 0.0
C572 C 0.56037 0.35724 0.71294 0.0
C573 C 0.56716 0.34586 0.73491 0.0
C574 C 0.58955 0.37136 0.74996 0.0
C575 C 0.539 0.32597 0.74855 0.0
C576 C 0.58027 0.3284 0.72473 0.0
C577 C 0.58067 0.32978 0.7008 0.0
C578 C 0.59274 0.3166 0.68735 0.0
C579 C 0.60495 0.30173 0.69861 0.0
C580 C 0.60475 0.29983 0.7231 0.0
C581 C 0.59195 0.31307 0.73634 0.0
H582 H 0.19695 0.57631 0.84343 0.0
H583 H 0.15403 0.53694 0.90849 0.0
H584 H 0.20224 0.5568 0.9275 0.0
H585 H 0.25495 0.56063 0.84986 0.0
H586 H 0.28245 0.59429 0.83667 0.0
H587 H 0.24461 0.57879 0.8285 0.0
H588 H 0.2466 0.62758 0.83908 0.0
H589 H 0.28448 0.64325 0.84731 0.0
H590 H 0.25833 0.6428 0.86766 0.0
H591 H 0.25457 0.57964 0.93922 0.0
H592 H 0.30818 0.60214 0.94265 0.0
H593 H 0.31768 0.62561 0.86974 0.0
C594 C 0.19783 0.57224 0.86173 0.0
C595 C 0.17191 0.55522 0.87459 0.0
C596 C 0.17373 0.54985 0.89839 0.0
C597 C 0.20096 0.56115 0.90934 0.0
C598 C 0.22614 0.57763 0.89618 0.0
C599 C 0.2249 0.58308 0.87289 0.0
C600 C 0.25535 0.60012 0.86253 0.0
C601 C 0.25958 0.58239 0.84326 0.0
C602 C 0.26155 0.63023 0.85362 0.0
C603 C 0.27383 0.60319 0.8836 0.0
C604 C 0.2565 0.59031 0.90286 0.0
C605 C 0.26841 0.5899 0.9243 0.0
C606 C 0.29888 0.60275 0.92607 0.0
C607 C 0.31706 0.61562 0.90648 0.0
C608 C 0.30432 0.61601 0.88503 0.0
H609 H 0.63697 0.1919 0.02006 0.0
H610 H 0.63269 0.14733 0.0845 0.0
H611 H 0.6652 0.19499 0.10305 0.0
H612 H 0.71198 0.24673 0.02416 0.0
H613 H 0.70713 0.27563 0.01214 0.0
H614 H 0.68254 0.23808 1.0041 0.0
H615 H 0.63825 0.24305 0.01732 0.0
H616 H 0.66272 0.28067 0.02535 0.0
H617 H 0.63747 0.25523 0.04636 0.0
H618 H 0.69974 0.24724 0.11424 0.0
H619 H 0.73354 0.30073 0.11729 0.0
H620 H 0.71463 0.31143 0.04592 0.0
C621 C 0.64253 0.19221 0.03816 0.0
C622 C 0.63239 0.16585 0.05079 0.0
C623 C 0.64053 0.16719 0.07437 0.0
C624 C 0.65884 0.19417 0.08511 0.0
C625 C 0.66876 0.21969 0.07211 0.0
C626 C 0.66083 0.21899 0.04918 0.0
C627 C 0.67517 0.2496 0.03897 0.0
C628 C 0.69541 0.25268 0.01864 0.0
C629 C 0.65202 0.2576 0.03157 0.0
C630 C 0.69255 0.26754 0.05968 0.0
C631 C 0.68851 0.24987 0.07864 0.0
C632 C 0.70294 0.26134 0.09957 0.0
C633 C 0.72209 0.29172 0.10114 0.0
C634 C 0.72659 0.31021 0.0819 0.0
C635 C 0.71146 0.29787 0.06099 0.0
H636 H 0.46256 0.62393 0.19803 0.0
H637 H 0.55591 0.68556 0.20193 0.0
H638 H 0.54583 0.72355 0.21693 0.0
H639 H 0.4419 0.6758 0.17894 0.0
H640 H 0.40843 0.65985 0.19551 0.0
H641 H 0.42296 0.63719 0.18574 0.0
H642 H 0.4231 0.62057 0.22801 0.0
H643 H 0.40855 0.64318 0.2379 0.0
H644 H 0.44208 0.64782 0.25009 0.0
H645 H 0.52575 0.75485 0.23135 0.0
H646 H 0.49686 0.77787 0.24318 0.0
H647 H 0.41651 0.69623 0.22936 0.0
C648 C 0.48084 0.64536 0.20224 0.0
C649 C 0.51002 0.65186 0.1988 0.0
C650 C 0.53339 0.68025 0.20422 0.0
C651 C 0.52789 0.7019 0.21285 0.0
C652 C 0.4989 0.69486 0.21592 0.0
C653 C 0.47574 0.66733 0.21072 0.0
C654 C 0.44663 0.66575 0.21504 0.0
C655 C 0.42895 0.65927 0.19246 0.0
C656 C 0.42906 0.64298 0.23388 0.0
C657 C 0.45708 0.69669 0.22345 0.0
C658 C 0.4873 0.71306 0.22394 0.0
C659 C 0.50206 0.74227 0.23105 0.0
C660 C 0.48548 0.75514 0.23775 0.0
C661 C 0.45448 0.73885 0.23717 0.0
C662 C 0.44019 0.70923 0.22997 0.0
H663 H 0.87106 0.49832 0.39027 0.0
H664 H 0.8566 0.44707 0.32759 0.0
H665 H 0.80353 0.42135 0.3349 0.0
H666 H 0.81306 0.44215 0.42468 0.0
H667 H 0.80293 0.46683 0.43786 0.0
H668 H 0.84016 0.48025 0.42865 0.0
H669 H 0.83799 0.51973 0.40326 0.0
H670 H 0.80083 0.50655 0.41249 0.0
H671 H 0.80927 0.50863 0.38204 0.0
H672 H 0.7523 0.40151 0.34844 0.0
H673 H 0.70545 0.39077 0.36601 0.0
H674 H 0.75224 0.45683 0.41871 0.0
C675 C 0.85682 0.48184 0.37794 0.0
C676 C 0.86829 0.47458 0.35845 0.0
C677 C 0.84864 0.45261 0.34297 0.0
C678 C 0.81837 0.43797 0.34687 0.0
C679 C 0.80793 0.44566 0.36622 0.0
C680 C 0.82647 0.46724 0.3814 0.0
C681 C 0.80936 0.47213 0.40032 0.0
C682 C 0.81683 0.4649 0.4243 0.0
C683 C 0.81468 0.50363 0.39947 0.0
C684 C 0.77829 0.44998 0.39329 0.0
C685 C 0.77808 0.43479 0.3737 0.0
C686 C 0.75215 0.41325 0.36377 0.0
C687 C 0.72564 0.40729 0.37394 0.0
C688 C 0.72518 0.42297 0.39374 0.0
C689 C 0.75191 0.44446 0.40362 0.0
H690 H 0.1261 0.56401 0.4406 0.0
H691 H 0.11289 0.63919 0.44174 0.0
H692 H 0.14193 0.65659 0.4774 0.0
H693 H 0.12424 0.55237 0.50177 0.0
H694 H 0.15336 0.54384 0.50183 0.0
H695 H 0.13072 0.53629 0.47651 0.0
H696 H 0.1768 0.56758 0.4514 0.0
H697 H 0.19962 0.57502 0.4766 0.0
H698 H 0.20205 0.60494 0.45966 0.0
H699 H 0.17062 0.66536 0.51329 0.0
H700 H 0.20204 0.66798 0.5457 0.0
H701 H 0.20088 0.58966 0.52054 0.0
C702 C 0.12953 0.5843 0.44815 0.0
C703 C 0.11652 0.59982 0.43843 0.0
C704 C 0.12165 0.62625 0.4491 0.0
C705 C 0.13836 0.63652 0.46933 0.0
C706 C 0.15034 0.62046 0.4786 0.0
C707 C 0.14662 0.59519 0.46825 0.0
C708 C 0.16287 0.58279 0.48155 0.0
C709 C 0.14151 0.55199 0.49097 0.0
C710 C 0.18676 0.58258 0.4664 0.0
C711 C 0.17613 0.60502 0.50104 0.0
C712 C 0.16827 0.62633 0.49901 0.0
C713 C 0.17712 0.64894 0.51501 0.0
C714 C 0.19489 0.65013 0.53343 0.0
C715 C 0.20398 0.62905 0.53566 0.0
C716 C 0.19433 0.60609 0.51926 0.0
H717 H 0.53618 0.10225 0.61879 0.0
H718 H 0.60042 0.15802 0.56741 0.0
H719 H 0.63073 0.19158 0.59828 0.0
H720 H 0.54141 0.1625 0.65244 0.0
H721 H 0.53609 0.14387 0.67977 0.0
H722 H 0.52019 0.12302 0.65376 0.0
H723 H 0.54647 0.09338 0.66146 0.0
H724 H 0.5627 0.11436 0.68737 0.0
H725 H 0.58569 0.11256 0.66507 0.0
H726 H 0.65466 0.21892 0.63456 0.0
H727 H 0.66791 0.2413 0.67341 0.0
H728 H 0.58636 0.17061 0.70095 0.0
C729 C 0.55644 0.12161 0.61387 0.0
C730 C 0.56598 0.12694 0.59049 0.0
C731 C 0.59287 0.15266 0.58513 0.0
C732 C 0.61024 0.17208 0.60257 0.0
C733 C 0.60032 0.16591 0.62534 0.0
C734 C 0.57384 0.1416 0.63101 0.0
C735 C 0.56758 0.14098 0.65673 0.0
C736 C 0.53967 0.1427 0.66091 0.0
C737 C 0.56549 0.11369 0.66833 0.0
C738 C 0.59472 0.16876 0.66457 0.0
C739 C 0.61349 0.18254 0.64621 0.0
C740 C 0.6401 0.20841 0.64907 0.0
C741 C 0.64749 0.22087 0.67123 0.0
C742 C 0.62817 0.2077 0.69018 0.0
C743 C 0.60156 0.18115 0.68679 0.0
H744 H 0.42712 0.51824 0.78013 0.0
H745 H 0.48941 0.59468 0.74114 0.0
H746 H 0.48519 0.627 0.77005 0.0
H747 H 0.3806 0.54685 0.79908 0.0
H748 H 0.37449 0.53048 0.82747 0.0
H749 H 0.38145 0.51333 0.8032 0.0
H750 H 0.42488 0.5147 0.82532 0.0
H751 H 0.4181 0.53191 0.84963 0.0
H752 H 0.45378 0.54919 0.83627 0.0
H753 H 0.47414 0.65092 0.80294 0.0
H754 H 0.45878 0.6651 0.8388 0.0
H755 H 0.40529 0.57327 0.85749 0.0
C756 C 0.43962 0.54178 0.77764 0.0
C757 C 0.45854 0.55407 0.75844 0.0
C758 C 0.47492 0.58494 0.75584 0.0
C759 C 0.47258 0.60341 0.77209 0.0
C760 C 0.45392 0.59066 0.79094 0.0
C761 C 0.43785 0.56058 0.7939 0.0
C762 C 0.42029 0.55263 0.81619 0.0
C763 C 0.38725 0.53477 0.81118 0.0
C764 C 0.42985 0.53614 0.83283 0.0
C765 C 0.42904 0.58292 0.82528 0.0
C766 C 0.44825 0.60453 0.81033 0.0
C767 C 0.45917 0.63421 0.81482 0.0
C768 C 0.4503 0.64205 0.8352 0.0
C769 C 0.43096 0.6203 0.85093 0.0
C770 C 0.42023 0.59038 0.84584 0.0
H771 H 0.92143 0.47019 0.93597 0.0
H772 H 0.92141 0.38787 0.92995 0.0
H773 H 0.8918 0.37003 0.9655 0.0
H774 H 0.92514 0.47599 0.9973 0.0
H775 H 0.90031 0.49006 0.99954 0.0
H776 H 0.92203 0.49681 0.97376 0.0
H777 H 0.87501 0.47359 0.94864 0.0
H778 H 0.85314 0.46697 0.97432 0.0
H779 H 0.84581 0.43703 0.95517 0.0
H780 H 0.86376 0.36171 1.00251 0.0
H781 H 0.83559 0.36188 0.03664 0.0
H782 H 0.85042 0.44783 0.01694 0.0
C783 C 0.9149 0.44822 0.94182 0.0
C784 C 0.92419 0.43065 0.93011 0.0
C785 C 0.91532 0.40217 0.93878 0.0
C786 C 0.89827 0.39169 0.95892 0.0
C787 C 0.88984 0.40973 0.97009 0.0
C788 C 0.8975 0.43722 0.96169 0.0
C789 C 0.88501 0.45195 0.97672 0.0
C790 C 0.90959 0.48038 0.98746 0.0
C791 C 0.86346 0.45771 0.96288 0.0
C792 C 0.86929 0.42848 0.99496 0.0
C793 C 0.8726 0.40443 0.99092 0.0
C794 C 0.86081 0.38032 1.00576 0.0
C795 C 0.84496 0.38067 0.02514 0.0
C796 C 0.84075 0.4048 0.02934 0.0
C797 C 0.85313 0.42901 0.01404 0.0
H798 H 0.49642 0.9366 0.12208 0.0
H799 H 0.44057 0.87546 0.0692 0.0
H800 H 0.4144 0.83806 0.09927 0.0
H801 H 0.50358 0.88291 0.15596 0.0
H802 H 0.50363 0.89947 0.1833 0.0
H803 H 0.51727 0.92184 0.15766 0.0
H804 H 0.48087 0.94067 0.16426 0.0
H805 H 0.46696 0.91818 0.18983 0.0
H806 H 0.44227 0.91464 0.16683 0.0
H807 H 0.39414 0.80714 0.13506 0.0
H808 H 0.38325 0.78402 0.17379 0.0
H809 H 0.45363 0.86438 0.20314 0.0
C810 C 0.47888 0.91529 0.11672 0.0
C811 C 0.47046 0.90922 0.09317 0.0
C812 C 0.44711 0.88102 0.0871 0.0
C813 C 0.43217 0.85951 0.10406 0.0
C814 C 0.44092 0.86634 0.12706 0.0
C815 C 0.46388 0.89345 0.1334 0.0
C816 C 0.46942 0.89489 0.15927 0.0
C817 C 0.50031 0.90008 0.16434 0.0
C818 C 0.46458 0.91849 0.17072 0.0
C819 C 0.44599 0.86433 0.16646 0.0
C820 C 0.42966 0.8483 0.14764 0.0
C821 C 0.4068 0.81947 0.14993 0.0
C822 C 0.40073 0.80656 0.17201 0.0
C823 C 0.41756 0.82239 0.19147 0.0
C824 C 0.44033 0.85174 0.1886 0.0
H825 H 0.57719 0.46058 0.25799 0.0
H826 H 0.6475 0.55127 0.2611 0.0
H827 H 0.66512 0.54074 0.2974 0.0
H828 H 0.56189 0.45195 0.31878 0.0
H829 H 0.55449 0.41463 0.31995 0.0
H830 H 0.54794 0.42877 0.29358 0.0
H831 H 0.58171 0.41473 0.27113 0.0
H832 H 0.58829 0.40046 0.29741 0.0
H833 H 0.61869 0.42818 0.28104 0.0
H834 H 0.67399 0.52136 0.3339 0.0
H835 H 0.67486 0.49377 0.36804 0.0
H836 H 0.59883 0.41527 0.34189 0.0
C837 C 0.59631 0.47821 0.2663 0.0
C838 C 0.61108 0.50674 0.25658 0.0
C839 C 0.63614 0.52914 0.26794 0.0
C840 C 0.64619 0.52343 0.28867 0.0
C841 C 0.63101 0.4952 0.29784 0.0
C842 C 0.60671 0.47288 0.28702 0.0
C843 C 0.59429 0.44456 0.30079 0.0
C844 C 0.56279 0.43439 0.30875 0.0
C845 C 0.59585 0.42057 0.28675 0.0
C846 C 0.61529 0.45456 0.32113 0.0
C847 C 0.63626 0.48387 0.31902 0.0
C848 C 0.65779 0.49836 0.33571 0.0
C849 C 0.65804 0.48248 0.35508 0.0
C850 C 0.63693 0.45235 0.35762 0.0
C851 C 0.61528 0.43824 0.34038 0.0
H852 H 0.44716 0.945 0.37717 0.0
H853 H 0.44154 0.88895 0.43433 0.0
H854 H 0.43501 0.85028 0.40658 0.0
H855 H 0.39107 0.88625 0.34207 0.0
H856 H 0.40932 0.90212 0.31504 0.0
H857 H 0.41404 0.92547 0.33939 0.0
H858 H 0.47032 0.94813 0.33645 0.0
H859 H 0.46576 0.92468 0.31222 0.0
H860 H 0.48585 0.92445 0.33741 0.0
H861 H 0.43217 0.81926 0.37282 0.0
H862 H 0.42665 0.79471 0.33523 0.0
H863 H 0.42993 0.869 0.29974 0.0
C864 C 0.44438 0.92447 0.38372 0.0
C865 C 0.44486 0.91974 0.40775 0.0
C866 C 0.44105 0.89272 0.41591 0.0
C867 C 0.4375 0.87079 0.40031 0.0
C868 C 0.43737 0.87615 0.37667 0.0
C869 C 0.44017 0.90207 0.36838 0.0
C870 C 0.43819 0.90173 0.34215 0.0
C871 C 0.41157 0.90402 0.3342 0.0
C872 C 0.46673 0.9262 0.33143 0.0
C873 C 0.43413 0.87169 0.33701 0.0
C874 C 0.43416 0.85752 0.35718 0.0
C875 C 0.43181 0.82998 0.35692 0.0
C876 C 0.42886 0.81631 0.33549 0.0
C877 C 0.42777 0.82995 0.31466 0.0
C878 C 0.43052 0.85803 0.31545 0.0
H879 H 0.57156 0.44319 0.57504 0.0
H880 H 0.50341 0.45456 0.54281 0.0
H881 H 0.52271 0.45319 0.50433 0.0
H882 H 0.62925 0.489 0.53381 0.0
H883 H 0.64541 0.46585 0.53409 0.0
H884 H 0.62664 0.46815 0.5594 0.0
H885 H 0.59282 0.41169 0.55915 0.0
H886 H 0.61153 0.40921 0.53391 0.0
H887 H 0.57237 0.39391 0.53334 0.0
H888 H 0.54729 0.44808 0.46944 0.0
H889 H 0.57624 0.43973 0.43998 0.0
H890 H 0.6306 0.43458 0.49408 0.0
C891 C 0.56088 0.44572 0.55991 0.0
C892 C 0.5357 0.44866 0.56206 0.0
C893 C 0.52226 0.45158 0.54173 0.0
C894 C 0.53325 0.45116 0.51974 0.0
C895 C 0.55794 0.44812 0.51826 0.0
C896 C 0.57171 0.44555 0.53774 0.0
C897 C 0.59761 0.44194 0.53115 0.0
C898 C 0.62643 0.46778 0.54015 0.0
C899 C 0.59331 0.41243 0.5399 0.0
C900 C 0.59592 0.44248 0.50492 0.0
C901 C 0.57285 0.4461 0.49793 0.0
C902 C 0.56566 0.44561 0.47466 0.0
C903 C 0.5822 0.44085 0.45807 0.0
C904 C 0.60583 0.43692 0.46477 0.0
C905 C 0.61306 0.43821 0.48849 0.0
H906 H 0.12515 0.53535 0.72556 0.0
H907 H 0.14189 0.61575 0.75957 0.0
H908 H 0.17774 0.64476 0.72911 0.0
H909 H 0.19996 0.56112 0.7066 0.0
H910 H 0.18889 0.54195 0.67933 0.0
H911 H 0.1653 0.52754 0.70426 0.0
H912 H 0.12304 0.52723 0.68111 0.0
H913 H 0.1465 0.5417 0.65614 0.0
H914 H 0.12876 0.56064 0.66771 0.0
H915 H 0.21111 0.66503 0.69464 0.0
H916 H 0.23909 0.67513 0.65814 0.0
H917 H 0.20035 0.58156 0.64637 0.0
C918 C 0.13664 0.55906 0.72673 0.0
C919 C 0.13075 0.57332 0.74493 0.0
C920 C 0.14587 0.60439 0.74566 0.0
C921 C 0.16637 0.62104 0.72852 0.0
C922 C 0.17149 0.60631 0.71072 0.0
C923 C 0.15706 0.57602 0.70968 0.0
C924 C 0.16595 0.56564 0.68831 0.0
C925 C 0.18092 0.54802 0.69504 0.0
C926 C 0.13949 0.54775 0.67238 0.0
C927 C 0.18752 0.59482 0.67746 0.0
C928 C 0.19052 0.618 0.69072 0.0
C929 C 0.20901 0.64706 0.68413 0.0
C930 C 0.2248 0.65258 0.66339 0.0
C931 C 0.22189 0.62915 0.64944 0.0
C932 C 0.20305 0.59993 0.65668 0.0
H933 H 0.56814 0.13757 0.90803 0.0
H934 H 0.62937 0.10538 0.90317 0.0
H935 H 0.64738 0.13108 0.86588 0.0
H936 H 0.54977 0.13116 0.84751 0.0
H937 H 0.54784 0.16437 0.84642 0.0
H938 H 0.53987 0.14391 0.87306 0.0
H939 H 0.57943 0.19022 0.89428 0.0
H940 H 0.58741 0.21086 0.86773 0.0
H941 H 0.61632 0.20927 0.88313 0.0
H942 H 0.65801 0.15884 0.82898 0.0
H943 H 0.66262 0.18936 0.79518 0.0
H944 H 0.59482 0.2044 0.82325 0.0
C945 C 0.58534 0.13596 0.8991 0.0
C946 C 0.59748 0.11958 0.90863 0.0
C947 C 0.62008 0.11817 0.89646 0.0
C948 C 0.6303 0.13251 0.87516 0.0
C949 C 0.61779 0.14828 0.86622 0.0
C950 C 0.59596 0.15032 0.87781 0.0
C951 C 0.58654 0.16901 0.86432 0.0
C952 C 0.55408 0.15103 0.85742 0.0
C953 C 0.59281 0.19647 0.8782 0.0
C954 C 0.60639 0.17696 0.84328 0.0
C955 C 0.62413 0.16464 0.8448 0.0
C956 C 0.6443 0.16868 0.82761 0.0
C957 C 0.64671 0.18605 0.80844 0.0
C958 C 0.62909 0.1993 0.80654 0.0
C959 C 0.60852 0.1945 0.82418 0.0
H960 H 0.51505 0.62224 0.05681 0.0
H961 H 0.4451 0.53365 0.07146 0.0
H962 H 0.4178 0.53569 0.03748 0.0
H963 H 0.46902 0.65051 0.03762 0.0
H964 H 0.49385 0.6731 0.01516 0.0
H965 H 0.50786 0.66477 0.04076 0.0
H966 H 0.53351 0.64381 0.01521 0.0
H967 H 0.51954 0.65202 0.98953 0.0
H968 H 0.51221 0.61517 0.99466 0.0
H969 H 0.39829 0.547 1.00175 0.0
H970 H 0.38736 0.56742 0.96711 0.0
H971 H 0.47008 0.64848 0.97542 0.0
C972 C 0.49405 0.60323 0.05281 0.0
C973 C 0.48215 0.57783 0.06689 0.0
C974 C 0.45446 0.55352 0.06118 0.0
C975 C 0.43887 0.55438 0.04181 0.0
C976 C 0.45124 0.5797 0.0283 0.0
C977 C 0.47815 0.60372 0.03355 0.0
C978 C 0.48643 0.62829 0.01622 0.0
C979 C 0.48946 0.65578 0.02816 0.0
C980 C 0.51459 0.63522 1.00313 0.0
C981 C 0.45997 0.61429 1.00041 0.0
C982 C 0.43997 0.58624 0.00767 0.0
C983 C 0.41378 0.56895 0.99589 0.0
C984 C 0.40778 0.58071 0.97623 0.0
C985 C 0.42787 0.60949 0.96858 0.0
C986 C 0.45433 0.62639 0.98083 0.0
H987 H 0.91557 0.4594 0.23724 0.0
H988 H 0.94682 0.55208 0.22687 0.0
H989 H 0.91909 0.54076 0.19022 0.0
H990 H 0.91783 0.44123 0.17729 0.0
H991 H 0.88471 0.40608 0.17897 0.0
H992 H 0.90722 0.4214 0.20433 0.0
H993 H 0.86265 0.41692 0.22687 0.0
H994 H 0.83999 0.40154 0.20159 0.0
H995 H 0.84275 0.43363 0.21521 0.0
H996 H 0.88891 0.51971 0.15452 0.0
H997 H 0.85603 0.49001 0.12286 0.0
H998 H 0.84307 0.41063 0.15657 0.0
C999 C 0.91665 0.47729 0.22717 0.0
C1000 C 0.93332 0.50664 0.23488 0.0
C1001 C 0.93394 0.52943 0.22139 0.0
C1002 C 0.91841 0.52323 0.2005 0.0
C1003 C 0.90221 0.49411 0.19339 0.0
C1004 C 0.90103 0.47146 0.20635 0.0
C1005 C 0.8814 0.44202 0.19496 0.0
C1006 C 0.89884 0.42679 0.1885 0.0
C1007 C 0.85514 0.42238 0.21059 0.0
C1008 C 0.87182 0.4517 0.17354 0.0
C1009 C 0.88426 0.48186 0.17294 0.0
C1010 C 0.87897 0.49607 0.15482 0.0
C1011 C 0.86031 0.479 0.13689 0.0
C1012 C 0.84697 0.44802 0.13726 0.0
C1013 C 0.85291 0.43426 0.15584 0.0
loop_
_geom_bond_atom_site_label_1
_geom_bond_atom_site_label_2
_geom_bond_distance
_geom_bond_site_symmetry_2
_ccdc_geom_bond_type
H0 C19 0.949 . S
H1 C20 0.950 . S
H2 C22 0.950 . S
H3 C23 0.950 . S
H4 C25 0.950 . S
H5 C28 0.950 . S
H6 C29 0.950 . S
H7 C31 0.951 . S
H8 C32 0.949 . S
H9 C34 0.949 . S
H10 C35 0.950 . S
H11 C37 0.950 . S
H12 C38 0.950 . S
H13 C40 0.950 . S
H14 C43 0.950 . S
H15 C44 0.950 . S
H16 C46 0.951 . S
H17 C47 0.949 . S
C18 C19 1.376 . S
C18 C23 1.386 . S
C18 C24 1.483 . S
C19 H0 0.949 . S
C19 C18 1.376 . S
C19 C20 1.397 . S
C20 H1 0.950 . S
C20 C19 1.397 . S
C20 C21 1.391 . S
C21 C20 1.391 . S
C21 C22 1.405 . S
C22 H2 0.950 . S
C22 C21 1.405 . S
C22 C23 1.367 . S
C23 H3 0.950 . S
C23 C18 1.386 . S
C23 C22 1.367 . S
C24 C18 1.483 . S
C24 C25 1.382 1_655 S
C24 C26 1.403 . S
C25 H4 0.950 . S
C25 C24 1.382 1_455 S
C25 C41 1.411 . S
C26 C24 1.403 . S
C26 C27 1.489 . S
C26 C40 1.411 1_655 S
C27 C26 1.489 . S
C27 C28 1.383 . S
C27 C32 1.382 . S
C28 H5 0.950 . S
C28 C27 1.383 . S
C28 C29 1.395 . S
C29 H6 0.950 . S
C29 C28 1.395 . S
C29 C30 1.288 . S
C30 C29 1.288 . S
C30 C31 1.392 . S
C31 H7 0.951 . S
C31 C30 1.392 . S
C31 C32 1.392 . S
C32 H8 0.949 . S
C32 C27 1.382 . S
C32 C31 1.392 . S
C33 C34 1.376 . S
C33 C38 1.386 . S
C33 C39 1.483 . S
C34 H9 0.949 . S
C34 C33 1.376 . S
C34 C35 1.397 . S
C35 H10 0.950 . S
C35 C34 1.397 . S
C35 C36 1.391 . S
C36 C35 1.391 . S
C36 C37 1.405 . S
C37 H11 0.950 . S
C37 C36 1.405 . S
C37 C38 1.367 . S
C38 H12 0.950 . S
C38 C33 1.386 . S
C38 C37 1.367 . S
C39 C33 1.483 . S
C39 C40 1.382 . S
C39 C41 1.403 . S
C40 H13 0.950 . S
C40 C26 1.411 1_455 S
C40 C39 1.382 . S
C41 C25 1.411 . S
C41 C39 1.403 . S
C41 C42 1.489 . S
C42 C41 1.489 . S
C42 C43 1.383 . S
C42 C47 1.382 . S
C43 H14 0.950 . S
C43 C42 1.383 . S
C43 C44 1.395 . S
C44 H15 0.950 . S
C44 C43 1.395 . S
C44 C45 1.288 . S
C45 C44 1.288 . S
C45 C46 1.392 . S
C46 H16 0.951 . S
C46 C45 1.392 . S
C46 C47 1.392 . S
C47 H17 0.949 . S
C47 C42 1.382 . S
C47 C46 1.392 . S
H48 C67 0.949 . S
H49 C68 0.950 . S
H50 C70 0.950 . S
H51 C71 0.950 . S
H52 C73 0.952 . S
H53 C76 0.950 . S
H54 C77 0.950 . S
H55 C79 0.951 . S
H56 C80 0.949 . S
H57 C82 0.949 . S
H58 C83 0.950 . S
H59 C85 0.950 . S
H60 C86 0.950 . S
H61 C88 0.950 . S
H62 C91 0.950 . S
H63 C92 0.950 . S
H64 C94 0.951 . S
H65 C95 0.949 . S
C66 C67 1.376 . S
C66 C71 1.386 . S
C66 C72 1.483 . S
C67 H48 0.949 . S
C67 C66 1.376 . S
C67 C68 1.397 . S
C68 H49 0.950 . S
C68 C67 1.397 . S
C68 C69 1.391 . S
C69 C68 1.391 . S
C69 C70 1.405 . S
C70 H50 0.950 . S
C70 C69 1.405 . S
C70 C71 1.367 . S
C71 H51 0.950 . S
C71 C66 1.386 . S
C71 C70 1.367 . S
C72 C66 1.483 . S
C72 C73 1.382 1_565 S
C72 C74 1.403 . S
C73 H52 0.952 . S
C73 C72 1.382 1_545 S
C73 C89 1.411 . S
C74 C72 1.403 . S
C74 C75 1.489 . S
C74 C88 1.411 1_565 S
C75 C74 1.489 . S
C75 C76 1.383 . S
C75 C80 1.382 . S
C76 H53 0.950 . S
C76 C75 1.383 . S
C76 C77 1.395 . S
C77 H54 0.950 . S
C77 C76 1.395 . S
C77 C78 1.288 . S
C78 C77 1.288 . S
C78 C79 1.392 . S
C79 H55 0.951 . S
C79 C78 1.392 . S
C79 C80 1.392 . S
C80 H56 0.949 . S
C80 C75 1.382 . S
C80 C79 1.392 . S
C81 C82 1.376 . S
C81 C86 1.386 . S
C81 C87 1.483 . S
C82 H57 0.949 . S
C82 C81 1.376 . S
C82 C83 1.397 . S
C83 H58 0.950 . S
C83 C82 1.397 . S
C83 C84 1.391 . S
C84 C83 1.391 . S
C84 C85 1.405 . S
C85 H59 0.950 . S
C85 C84 1.405 . S
C85 C86 1.367 . S
C86 H60 0.950 . S
C86 C81 1.386 . S
C86 C85 1.367 . S
C87 C81 1.483 . S
C87 C88 1.382 . S
C87 C89 1.403 . S
C88 H61 0.950 . S
C88 C74 1.411 1_545 S
C88 C87 1.382 . S
C89 C73 1.411 . S
C89 C87 1.403 . S
C89 C90 1.489 . S
C90 C89 1.489 . S
C90 C91 1.383 . S
C90 C95 1.382 . S
C91 H62 0.950 . S
C91 C90 1.383 . S
C91 C92 1.395 . S
C92 H63 0.950 . S
C92 C91 1.395 . S
C92 C93 1.288 . S
C93 C92 1.288 . S
C93 C94 1.392 . S
C94 H64 0.951 . S
C94 C93 1.392 . S
C94 C95 1.392 . S
C95 H65 0.949 . S
C95 C90 1.382 . S
C95 C94 1.392 . S
H96 C115 0.949 . S
H97 C116 0.950 . S
H98 C118 0.950 . S
H99 C119 0.950 . S
H100 C121 0.950 . S
H101 C124 0.950 . S
H102 C125 0.950 . S
H103 C127 0.951 . S
H104 C128 0.949 . S
H105 C130 0.949 . S
H106 C131 0.950 . S
H107 C133 0.950 . S
H108 C134 0.950 . S
H109 C136 0.950 . S
H110 C139 0.950 . S
H111 C140 0.950 . S
H112 C142 0.951 . S
H113 C143 0.949 . S
C114 C115 1.376 . S
C114 C119 1.386 . S
C114 C120 1.483 . S
C115 H96 0.949 . S
C115 C114 1.376 . S
C115 C116 1.397 . S
C116 H97 0.950 . S
C116 C115 1.397 . S
C116 C117 1.391 . S
C117 C116 1.391 . S
C117 C118 1.405 . S
C118 H98 0.950 . S
C118 C117 1.405 . S
C118 C119 1.367 . S
C119 H99 0.950 . S
C119 C114 1.386 . S
C119 C118 1.367 . S
C120 C114 1.483 . S
C120 C121 1.382 . S
C120 C122 1.403 . S
C121 H100 0.950 . S
C121 C120 1.382 . S
C121 C137 1.411 . S
C122 C120 1.403 . S
C122 C123 1.489 . S
C122 C136 1.411 . S
C123 C122 1.489 . S
C123 C124 1.383 . S
C123 C128 1.382 . S
C124 H101 0.950 . S
C124 C123 1.383 . S
C124 C125 1.395 . S
C125 H102 0.950 . S
C125 C124 1.395 . S
C125 C126 1.288 . S
C126 C125 1.288 . S
C126 C127 1.392 . S
C127 H103 0.951 . S
C127 C126 1.392 . S
C127 C128 1.392 . S
C128 H104 0.949 . S
C128 C123 1.382 . S
C128 C127 1.392 . S
C129 C130 1.376 . S
C129 C134 1.386 . S
C129 C135 1.483 . S
C130 H105 0.949 . S
C130 C129 1.376 . S
C130 C131 1.397 . S
C131 H106 0.950 . S
C131 C130 1.397 . S
C131 C132 1.391 . S
C132 C131 1.391 . S
C132 C133 1.405 . S
C133 H107 0.950 . S
C133 C132 1.405 . S
C133 C134 1.367 . S
C134 H108 0.950 . S
C134 C129 1.386 . S
C134 C133 1.367 . S
C135 C129 1.483 . S
C135 C136 1.382 . S
C135 C137 1.403 . S
C136 H109 0.950 . S
C136 C122 1.411 . S
C136 C135 1.382 . S
C137 C121 1.411 . S
C137 C135 1.403 . S
C137 C138 1.489 . S
C138 C137 1.489 . S
C138 C139 1.383 . S
C138 C143 1.382 . S
C139 H110 0.950 . S
C139 C138 1.383 . S
C139 C140 1.395 . S
C140 H111 0.950 . S
C140 C139 1.395 . S
C140 C141 1.288 . S
C141 C140 1.288 . S
C141 C142 1.392 . S
C142 H112 0.951 . S
C142 C141 1.392 . S
C142 C143 1.392 . S
C143 H113 0.949 . S
C143 C138 1.382 . S
C143 C142 1.392 . S
H144 C163 0.949 . S
H145 C164 0.950 . S
H146 C166 0.950 . S
H147 C167 0.950 . S
H148 C169 0.950 . S
H149 C172 0.950 . S
H150 C173 0.950 . S
H151 C175 0.951 . S
H152 C176 0.949 . S
H153 C178 0.949 . S
H154 C179 0.950 . S
H155 C181 0.950 . S
H156 C182 0.950 . S
H157 C184 0.950 . S
H158 C187 0.950 . S
H159 C188 0.950 . S
H160 C190 0.951 . S
H161 C191 0.949 . S
C162 C163 1.376 . S
C162 C167 1.386 . S
C162 C168 1.483 . S
C163 H144 0.949 . S
C163 C162 1.376 . S
C163 C164 1.397 . S
C164 H145 0.950 . S
C164 C163 1.397 . S
C164 C165 1.391 . S
C165 C164 1.391 . S
C165 C166 1.405 . S
C166 H146 0.950 . S
C166 C165 1.405 . S
C166 C167 1.367 . S
C167 H147 0.950 . S
C167 C162 1.386 . S
C167 C166 1.367 . S
C168 C162 1.483 . S
C168 C169 1.382 . S
C168 C170 1.403 . S
C169 H148 0.950 . S
C169 C168 1.382 . S
C169 C185 1.411 1_455 S
C170 C168 1.403 . S
C170 C171 1.489 . S
C170 C184 1.411 . S
C171 C170 1.489 . S
C171 C172 1.383 . S
C171 C176 1.382 . S
C172 H149 0.950 . S
C172 C171 1.383 . S
C172 C173 1.395 . S
C173 H150 0.950 . S
C173 C172 1.395 . S
C173 C174 1.288 . S
C174 C173 1.288 . S
C174 C175 1.392 . S
C175 H151 0.951 . S
C175 C174 1.392 . S
C175 C176 1.392 . S
C176 H152 0.949 . S
C176 C171 1.382 . S
C176 C175 1.392 . S
C177 C178 1.376 . S
C177 C182 1.386 . S
C177 C183 1.483 . S
C178 H153 0.949 . S
C178 C177 1.376 . S
C178 C179 1.397 . S
C179 H154 0.950 . S
C179 C178 1.397 . S
C179 C180 1.391 . S
C180 C179 1.391 . S
C180 C181 1.405 . S
C181 H155 0.950 . S
C181 C180 1.405 . S
C181 C182 1.367 . S
C182 H156 0.950 . S
C182 C177 1.386 . S
C182 C181 1.367 . S
C183 C177 1.483 . S
C183 C184 1.382 1_655 S
C183 C185 1.403 . S
C184 H157 0.950 . S
C184 C170 1.411 . S
C184 C183 1.382 1_455 S
C185 C169 1.411 1_655 S
C185 C183 1.403 . S
C185 C186 1.489 . S
C186 C185 1.489 . S
C186 C187 1.383 . S
C186 C191 1.382 . S
C187 H158 0.950 . S
C187 C186 1.383 . S
C187 C188 1.395 . S
C188 H159 0.950 . S
C188 C187 1.395 . S
C188 C189 1.288 . S
C189 C188 1.288 . S
C189 C190 1.392 . S
C190 H160 0.951 . S
C190 C189 1.392 . S
C190 C191 1.392 . S
C191 H161 0.949 . S
C191 C186 1.382 . S
C191 C190 1.392 . S
H192 C211 0.949 . S
H193 C212 0.950 . S
H194 C214 0.950 . S
H195 C215 0.950 . S
H196 C217 0.950 . S
H197 C220 0.950 . S
H198 C221 0.950 . S
H199 C223 0.951 . S
H200 C224 0.949 . S
H201 C226 0.949 . S
H202 C227 0.950 . S
H203 C229 0.950 . S
H204 C230 0.950 . S
H205 C232 0.952 . S
H206 C235 0.950 . S
H207 C236 0.950 . S
H208 C238 0.951 . S
H209 C239 0.949 . S
C210 C211 1.376 . S
C210 C215 1.386 1_554 S
C210 C216 1.483 1_554 S
C211 H192 0.949 . S
C211 C210 1.376 . S
C211 C212 1.397 . S
C212 H193 0.950 . S
C212 C211 1.397 . S
C212 C213 1.391 . S
C213 C212 1.391 . S
C213 C214 1.405 . S
C214 H194 0.950 . S
C214 C213 1.405 . S
C214 C215 1.367 1_554 S
C215 H195 0.950 . S
C215 C210 1.386 1_556 S
C215 C214 1.367 1_556 S
C216 C210 1.483 1_556 S
C216 C217 1.382 1_556 S
C216 C218 1.403 . S
C217 H196 0.950 . S
C217 C216 1.382 1_554 S
C217 C233 1.411 1_545 S
C218 C216 1.403 . S
C218 C219 1.489 . S
C218 C232 1.411 . S
C219 C218 1.489 . S
C219 C220 1.383 . S
C219 C224 1.382 . S
C220 H197 0.950 . S
C220 C219 1.383 . S
C220 C221 1.395 . S
C221 H198 0.950 . S
C221 C220 1.395 . S
C221 C222 1.288 . S
C222 C221 1.288 . S
C222 C223 1.392 . S
C223 H199 0.951 . S
C223 C222 1.392 . S
C223 C224 1.392 . S
C224 H200 0.949 . S
C224 C219 1.382 . S
C224 C223 1.392 . S
C225 C226 1.376 . S
C225 C230 1.386 . S
C225 C231 1.483 . S
C226 H201 0.949 . S
C226 C225 1.376 . S
C226 C227 1.397 . S
C227 H202 0.950 . S
C227 C226 1.397 . S
C227 C228 1.391 . S
C228 C227 1.391 . S
C228 C229 1.405 . S
C229 H203 0.950 . S
C229 C228 1.405 . S
C229 C230 1.367 . S
C230 H204 0.950 . S
C230 C225 1.386 . S
C230 C229 1.367 . S
C231 C225 1.483 . S
C231 C232 1.382 1_565 S
C231 C233 1.403 1_556 S
C232 H205 0.952 . S
C232 C218 1.411 . S
C232 C231 1.382 1_545 S
C233 C217 1.411 1_565 S
C233 C231 1.403 1_554 S
C233 C234 1.489 . S
C234 C233 1.489 . S
C234 C235 1.383 . S
C234 C239 1.382 . S
C235 H206 0.950 . S
C235 C234 1.383 . S
C235 C236 1.395 . S
C236 H207 0.950 . S
C236 C235 1.395 . S
C236 C237 1.288 . S
C237 C236 1.288 . S
C237 C238 1.392 . S
C238 H208 0.951 . S
C238 C237 1.392 . S
C238 C239 1.392 . S
C239 H209 0.949 . S
C239 C234 1.382 . S
C239 C238 1.392 . S
H240 C259 0.949 . S
H241 C260 0.950 . S
H242 C262 0.950 . S
H243 C263 0.950 . S
H244 C265 0.950 . S
H245 C268 0.950 . S
H246 C269 0.950 . S
H247 C271 0.951 . S
H248 C272 0.949 . S
H249 C274 0.949 . S
H250 C275 0.950 . S
H251 C277 0.950 . S
H252 C278 0.950 . S
H253 C280 0.950 . S
H254 C283 0.950 . S
H255 C284 0.950 . S
H256 C286 0.951 . S
H257 C287 0.949 . S
C258 C259 1.376 . S
C258 C263 1.386 . S
C258 C264 1.483 . S
C259 H240 0.949 . S
C259 C258 1.376 . S
C259 C260 1.397 . S
C260 H241 0.950 . S
C260 C259 1.397 . S
C260 C261 1.391 . S
C261 C260 1.391 . S
C261 C262 1.405 . S
C262 H242 0.950 . S
C262 C261 1.405 . S
C262 C263 1.367 . S
C263 H243 0.950 . S
C263 C258 1.386 . S
C263 C262 1.367 . S
C264 C258 1.483 . S
C264 C265 1.382 . S
C264 C266 1.403 . S
C265 H244 0.950 . S
C265 C264 1.382 . S
C265 C281 1.411 . S
C266 C264 1.403 . S
C266 C267 1.489 . S
C266 C280 1.411 . S
C267 C266 1.489 . S
C267 C268 1.383 . S
C267 C272 1.382 . S
C268 H245 0.950 . S
C268 C267 1.383 . S
C268 C269 1.395 . S
C269 H246 0.950 . S
C269 C268 1.395 . S
C269 C270 1.288 . S
C270 C269 1.288 . S
C270 C271 1.392 . S
C271 H247 0.951 . S
C271 C270 1.392 . S
C271 C272 1.392 . S
C272 H248 0.949 . S
C272 C267 1.382 . S
C272 C271 1.392 . S
C273 C274 1.376 . S
C273 C278 1.386 . S
C273 C279 1.483 . S
C274 H249 0.949 . S
C274 C273 1.376 . S
C274 C275 1.397 . S
C275 H250 0.950 . S
C275 C274 1.397 . S
C275 C276 1.391 . S
C276 C275 1.391 . S
C276 C277 1.405 . S
C277 H251 0.950 . S
C277 C276 1.405 . S
C277 C278 1.367 . S
C278 H252 0.950 . S
C278 C273 1.386 . S
C278 C277 1.367 . S
C279 C273 1.483 . S
C279 C280 1.382 . S
C279 C281 1.403 . S
C280 H253 0.950 . S
C280 C266 1.411 . S
C280 C279 1.382 . S
C281 C265 1.411 . S
C281 C279 1.403 . S
C281 C282 1.489 . S
C282 C281 1.489 . S
C282 C283 1.383 . S
C282 C287 1.382 . S
C283 H254 0.950 . S
C283 C282 1.383 . S
C283 C284 1.395 . S
C284 H255 0.950 . S
C284 C283 1.395 . S
C284 C285 1.288 . S
C285 C284 1.288 . S
C285 C286 1.392 . S
C286 H256 0.951 . S
C286 C285 1.392 . S
C286 C287 1.392 . S
C287 H257 0.949 . S
C287 C282 1.382 . S
C287 C286 1.392 . S
In288 O289 2.294 . S
In288 O290 2.326 . S
In288 O294 2.266 . S
In288 O295 2.326 . S
In288 O296 2.266 . S
In288 O297 2.326 . S
In288 O299 2.294 . S
In288 O300 2.326 . S
O289 In288 2.294 . S
O289 C298 1.240 . S
O290 In288 2.326 . S
O290 C298 1.252 . S
C291 O294 1.252 . S
C291 O295 1.260 . S
C292 O299 1.240 . S
C292 O300 1.252 . S
C293 O296 1.252 . S
C293 O297 1.260 . S
O294 In288 2.266 . S
O294 C291 1.252 . S
O295 In288 2.326 . S
O295 C291 1.260 . S
O296 In288 2.266 . S
O296 C293 1.252 . S
O297 In288 2.326 . S
O297 C293 1.260 . S
C298 O289 1.240 . S
C298 O290 1.252 . S
O299 In288 2.294 . S
O299 C292 1.240 . S
O300 In288 2.326 . S
O300 C292 1.252 . S
In301 O302 2.294 . S
In301 O303 2.326 . S
In301 O307 2.266 . S
In301 O308 2.326 . S
In301 O309 2.266 . S
In301 O310 2.326 . S
In301 O312 2.294 . S
In301 O313 2.326 . S
O302 In301 2.294 . S
O302 C311 1.240 . S
O303 In301 2.326 . S
O303 C311 1.252 . S
C304 O307 1.252 . S
C304 O308 1.260 . S
C305 O312 1.240 . S
C305 O313 1.252 . S
C306 O309 1.252 . S
C306 O310 1.260 . S
O307 In301 2.266 . S
O307 C304 1.252 . S
O308 In301 2.326 . S
O308 C304 1.260 . S
O309 In301 2.266 . S
O309 C306 1.252 . S
O310 In301 2.326 . S
O310 C306 1.260 . S
C311 O302 1.240 . S
C311 O303 1.252 . S
O312 In301 2.294 . S
O312 C305 1.240 . S
O313 In301 2.326 . S
O313 C305 1.252 . S
In314 O315 2.294 . S
In314 O316 2.326 . S
In314 O320 2.266 . S
In314 O321 2.326 . S
In314 O322 2.266 . S
In314 O323 2.326 . S
In314 O325 2.294 . S
In314 O326 2.326 . S
O315 In314 2.294 . S
O315 C324 1.240 . S
O316 In314 2.326 . S
O316 C324 1.252 . S
C317 O320 1.252 . S
C317 O321 1.260 . S
C318 O325 1.240 . S
C318 O326 1.252 . S
C319 O322 1.252 . S
C319 O323 1.260 . S
O320 In314 2.266 . S
O320 C317 1.252 . S
O321 In314 2.326 . S
O321 C317 1.260 . S
O322 In314 2.266 . S
O322 C319 1.252 . S
O323 In314 2.326 . S
O323 C319 1.260 . S
C324 O315 1.240 . S
C324 O316 1.252 . S
O325 In314 2.294 . S
O325 C318 1.240 . S
O326 In314 2.326 . S
O326 C318 1.252 . S
In327 O328 2.294 . S
In327 O329 2.326 . S
In327 O333 2.266 . S
In327 O334 2.326 . S
In327 O335 2.266 . S
In327 O336 2.326 . S
In327 O338 2.294 . S
In327 O339 2.326 . S
O328 In327 2.294 . S
O328 C337 1.240 . S
O329 In327 2.326 . S
O329 C337 1.252 . S
C330 O333 1.252 . S
C330 O334 1.260 . S
C331 O338 1.240 . S
C331 O339 1.252 . S
C332 O335 1.252 . S
C332 O336 1.260 . S
O333 In327 2.266 . S
O333 C330 1.252 . S
O334 In327 2.326 . S
O334 C330 1.260 . S
O335 In327 2.266 . S
O335 C332 1.252 . S
O336 In327 2.326 . S
O336 C332 1.260 . S
C337 O328 1.240 . S
C337 O329 1.252 . S
O338 In327 2.294 . S
O338 C331 1.240 . S
O339 In327 2.326 . S
O339 C331 1.252 . S
In340 O341 2.294 . S
In340 O342 2.326 . S
In340 O346 2.266 . S
In340 O347 2.326 . S
In340 O348 2.266 . S
In340 O349 2.326 . S
In340 O351 2.294 . S
In340 O352 2.326 . S
O341 In340 2.294 . S
O341 C350 1.240 . S
O342 In340 2.326 . S
O342 C350 1.252 . S
C343 O346 1.252 . S
C343 O347 1.260 . S
C344 O351 1.240 . S
C344 O352 1.252 . S
C345 O348 1.252 . S
C345 O349 1.260 . S
O346 In340 2.266 . S
O346 C343 1.252 . S
O347 In340 2.326 . S
O347 C343 1.260 . S
O348 In340 2.266 . S
O348 C345 1.252 . S
O349 In340 2.326 . S
O349 C345 1.260 . S
C350 O341 1.240 . S
C350 O342 1.252 . S
O351 In340 2.294 . S
O351 C344 1.240 . S
O352 In340 2.326 . S
O352 C344 1.252 . S
In353 O354 2.294 . S
In353 O355 2.326 . S
In353 O359 2.266 . S
In353 O360 2.326 . S
In353 O361 2.266 . S
In353 O362 2.326 . S
In353 O364 2.294 . S
In353 O365 2.326 . S
O354 In353 2.294 . S
O354 C363 1.240 . S
O355 In353 2.326 . S
O355 C363 1.252 . S
C356 O359 1.252 . S
C356 O360 1.260 . S
C357 O364 1.240 . S
C357 O365 1.252 . S
C358 O361 1.252 . S
C358 O362 1.260 . S
O359 In353 2.266 . S
O359 C356 1.252 . S
O360 In353 2.326 . S
O360 C356 1.260 . S
O361 In353 2.266 . S
O361 C358 1.252 . S
O362 In353 2.326 . S
O362 C358 1.260 . S
C363 O354 1.240 . S
C363 O355 1.252 . S
O364 In353 2.294 . S
O364 C357 1.240 . S
O365 In353 2.326 . S
O365 C357 1.252 . S
H366 C378 0.930 . S
H367 C380 0.930 . S
H368 C381 0.930 . S
H369 C385 0.959 . S
H370 C385 0.959 . S
H371 C385 0.961 . S
H372 C386 0.960 . S
H373 C386 0.961 . S
H374 C386 0.959 . S
H375 C389 0.929 . S
H376 C390 0.931 . S
H377 C392 0.930 . S
C378 H366 0.930 . S
C378 C379 1.399 . S
C378 C383 1.399 . S
C379 C378 1.399 . S
C379 C380 1.376 . S
C380 H367 0.930 . S
C380 C379 1.376 . S
C380 C381 1.388 . S
C381 H368 0.930 . S
C381 C380 1.388 . S
C381 C382 1.390 . S
C382 C381 1.390 . S
C382 C383 1.394 . S
C382 C388 1.465 . S
C383 C378 1.399 . S
C383 C382 1.394 . S
C383 C384 1.516 . S
C384 C383 1.516 . S
C384 C385 1.502 . S
C384 C386 1.561 . S
C384 C387 1.526 . S
C385 H369 0.959 . S
C385 H370 0.959 . S
C385 H371 0.961 . S
C385 C384 1.502 . S
C386 H372 0.960 . S
C386 H373 0.961 . S
C386 H374 0.959 . S
C386 C384 1.561 . S
C387 C384 1.526 . S
C387 C388 1.396 . S
C387 C392 1.390 . S
C388 C382 1.465 . S
C388 C387 1.396 . S
C388 C389 1.399 . S
C389 H375 0.929 . S
C389 C388 1.399 . S
C389 C390 1.385 . S
C390 H376 0.931 . S
C390 C389 1.385 . S
C390 C391 1.389 . S
C391 C390 1.389 . S
C391 C392 1.387 . S
C392 H377 0.930 . S
C392 C387 1.390 . S
C392 C391 1.387 . S
H393 C405 0.930 . S
H394 C407 0.930 . S
H395 C408 0.930 . S
H396 C412 0.959 . S
H397 C412 0.959 . S
H398 C412 0.961 . S
H399 C413 0.960 . S
H400 C413 0.961 . S
H401 C413 0.959 . S
H402 C416 0.929 . S
H403 C417 0.931 . S
H404 C419 0.930 . S
C405 H393 0.930 . S
C405 C406 1.399 . S
C405 C410 1.399 . S
C406 C405 1.399 . S
C406 C407 1.376 . S
C407 H394 0.930 . S
C407 C406 1.376 . S
C407 C408 1.388 . S
C408 H395 0.930 . S
C408 C407 1.388 . S
C408 C409 1.390 . S
C409 C408 1.390 . S
C409 C410 1.394 . S
C409 C415 1.465 . S
C410 C405 1.399 . S
C410 C409 1.394 . S
C410 C411 1.516 . S
C411 C410 1.516 . S
C411 C412 1.502 . S
C411 C413 1.561 . S
C411 C414 1.526 . S
C412 H396 0.959 . S
C412 H397 0.959 . S
C412 H398 0.961 . S
C412 C411 1.502 . S
C413 H399 0.960 . S
C413 H400 0.961 . S
C413 H401 0.959 . S
C413 C411 1.561 . S
C414 C411 1.526 . S
C414 C415 1.396 . S
C414 C419 1.390 . S
C415 C409 1.465 . S
C415 C414 1.396 . S
C415 C416 1.399 . S
C416 H402 0.929 . S
C416 C415 1.399 . S
C416 C417 1.385 . S
C417 H403 0.931 . S
C417 C416 1.385 . S
C417 C418 1.389 . S
C418 C417 1.389 . S
C418 C419 1.387 . S
C419 H404 0.930 . S
C419 C414 1.390 . S
C419 C418 1.387 . S
H420 C432 0.930 . S
H421 C434 0.930 . S
H422 C435 0.930 . S
H423 C439 0.959 . S
H424 C439 0.959 . S
H425 C439 0.961 . S
H426 C440 0.960 . S
H427 C440 0.961 . S
H428 C440 0.959 . S
H429 C443 0.929 . S
H430 C444 0.931 . S
H431 C446 0.930 . S
C432 H420 0.930 . S
C432 C433 1.399 . S
C432 C437 1.399 . S
C433 C432 1.399 . S
C433 C434 1.376 . S
C434 H421 0.930 . S
C434 C433 1.376 . S
C434 C435 1.388 . S
C435 H422 0.930 . S
C435 C434 1.388 . S
C435 C436 1.390 . S
C436 C435 1.390 . S
C436 C437 1.394 . S
C436 C442 1.465 . S
C437 C432 1.399 . S
C437 C436 1.394 . S
C437 C438 1.516 . S
C438 C437 1.516 . S
C438 C439 1.502 . S
C438 C440 1.561 . S
C438 C441 1.526 . S
C439 H423 0.959 . S
C439 H424 0.959 . S
C439 H425 0.961 . S
C439 C438 1.502 . S
C440 H426 0.960 . S
C440 H427 0.961 . S
C440 H428 0.959 . S
C440 C438 1.561 . S
C441 C438 1.526 . S
C441 C442 1.396 . S
C441 C446 1.390 . S
C442 C436 1.465 . S
C442 C441 1.396 . S
C442 C443 1.399 . S
C443 H429 0.929 . S
C443 C442 1.399 . S
C443 C444 1.385 . S
C444 H430 0.931 . S
C444 C443 1.385 . S
C444 C445 1.389 . S
C445 C444 1.389 . S
C445 C446 1.387 . S
C446 H431 0.930 . S
C446 C441 1.390 . S
C446 C445 1.387 . S
H447 C459 0.930 . S
H448 C461 0.930 . S
H449 C462 0.930 . S
H450 C466 0.959 . S
H451 C466 0.959 . S
H452 C466 0.961 . S
H453 C467 0.960 . S
H454 C467 0.961 . S
H455 C467 0.959 . S
H456 C470 0.929 . S
H457 C471 0.931 . S
H458 C473 0.930 . S
C459 H447 0.930 . S
C459 C460 1.399 . S
C459 C464 1.399 . S
C460 C459 1.399 . S
C460 C461 1.376 . S
C461 H448 0.930 . S
C461 C460 1.376 . S
C461 C462 1.388 . S
C462 H449 0.930 . S
C462 C461 1.388 . S
C462 C463 1.390 . S
C463 C462 1.390 . S
C463 C464 1.394 . S
C463 C469 1.465 . S
C464 C459 1.399 . S
C464 C463 1.394 . S
C464 C465 1.516 . S
C465 C464 1.516 . S
C465 C466 1.502 . S
C465 C467 1.561 . S
C465 C468 1.526 . S
C466 H450 0.959 . S
C466 H451 0.959 . S
C466 H452 0.961 . S
C466 C465 1.502 . S
C467 H453 0.960 . S
C467 H454 0.961 . S
C467 H455 0.959 . S
C467 C465 1.561 . S
C468 C465 1.526 . S
C468 C469 1.396 . S
C468 C473 1.390 . S
C469 C463 1.465 . S
C469 C468 1.396 . S
C469 C470 1.399 . S
C470 H456 0.929 . S
C470 C469 1.399 . S
C470 C471 1.385 . S
C471 H457 0.931 . S
C471 C470 1.385 . S
C471 C472 1.389 . S
C472 C471 1.389 . S
C472 C473 1.387 . S
C473 H458 0.930 . S
C473 C468 1.390 . S
C473 C472 1.387 . S
H474 C486 0.930 . S
H475 C488 0.930 . S
H476 C489 0.930 . S
H477 C493 0.959 . S
H478 C493 0.959 . S
H479 C493 0.972 . S
H480 C494 0.960 . S
H481 C494 0.961 . S
H482 C494 0.959 . S
H483 C497 0.929 . S
H484 C498 0.931 . S
H485 C500 0.930 . S
C486 H474 0.930 . S
C486 C487 1.399 . S
C486 C491 1.399 . S
C487 C486 1.399 . S
C487 C488 1.376 . S
C488 H475 0.930 . S
C488 C487 1.376 . S
C488 C489 1.388 . S
C489 H476 0.930 . S
C489 C488 1.388 . S
C489 C490 1.390 . S
C490 C489 1.390 . S
C490 C491 1.394 . S
C490 C496 1.465 . S
C491 C486 1.399 . S
C491 C490 1.394 . S
C491 C492 1.516 . S
C492 C491 1.516 . S
C492 C493 1.502 . S
C492 C494 1.561 . S
C492 C495 1.526 . S
C493 H477 0.959 . S
C493 H478 0.959 . S
C493 H479 0.972 . S
C493 C492 1.502 . S
C494 H480 0.960 . S
C494 H481 0.961 . S
C494 H482 0.959 . S
C494 C492 1.561 . S
C495 C492 1.526 . S
C495 C496 1.396 . S
C495 C500 1.390 . S
C496 C490 1.465 . S
C496 C495 1.396 . S
C496 C497 1.399 . S
C497 H483 0.929 . S
C497 C496 1.399 . S
C497 C498 1.385 . S
C498 H484 0.931 . S
C498 C497 1.385 . S
C498 C499 1.389 . S
C499 C498 1.389 . S
C499 C500 1.387 . S
C500 H485 0.930 . S
C500 C495 1.390 . S
C500 C499 1.387 . S
H501 C513 0.930 . S
H502 C515 0.930 . S
H503 C516 0.930 . S
H504 C520 0.959 . S
H505 C520 0.959 . S
H506 C520 0.961 . S
H507 C521 0.960 . S
H508 C521 0.961 . S
H509 C521 0.959 . S
H510 C524 0.929 . S
H511 C525 0.931 . S
H512 C527 0.930 . S
C513 H501 0.930 . S
C513 C514 1.399 . S
C513 C518 1.399 . S
C514 C513 1.399 . S
C514 C515 1.376 . S
C515 H502 0.930 . S
C515 C514 1.376 . S
C515 C516 1.388 . S
C516 H503 0.930 . S
C516 C515 1.388 . S
C516 C517 1.390 . S
C517 C516 1.390 . S
C517 C518 1.394 . S
C517 C523 1.465 . S
C518 C513 1.399 . S
C518 C517 1.394 . S
C518 C519 1.516 . S
C519 C518 1.516 . S
C519 C520 1.502 . S
C519 C521 1.561 . S
C519 C522 1.526 . S
C520 H504 0.959 . S
C520 H505 0.959 . S
C520 H506 0.961 . S
C520 C519 1.502 . S
C521 H507 0.960 . S
C521 H508 0.961 . S
C521 H509 0.959 . S
C521 C519 1.561 . S
C522 C519 1.526 . S
C522 C523 1.396 . S
C522 C527 1.390 . S
C523 C517 1.465 . S
C523 C522 1.396 . S
C523 C524 1.399 . S
C524 H510 0.929 . S
C524 C523 1.399 . S
C524 C525 1.385 . S
C525 H511 0.931 . S
C525 C524 1.385 . S
C525 C526 1.389 . S
C526 C525 1.389 . S
C526 C527 1.387 . S
C527 H512 0.930 . S
C527 C522 1.390 . S
C527 C526 1.387 . S
H528 C540 0.930 . S
H529 C542 0.930 . S
H530 C543 0.930 . S
H531 C547 0.959 . S
H532 C547 0.959 . S
H533 C547 0.961 . S
H534 C548 0.960 . S
H535 C548 0.961 . S
H536 C548 0.959 . S
H537 C551 0.929 . S
H538 C552 0.931 . S
H539 C554 0.930 . S
C540 H528 0.930 . S
C540 C541 1.399 . S
C540 C545 1.399 . S
C541 C540 1.399 . S
C541 C542 1.376 . S
C542 H529 0.930 . S
C542 C541 1.376 . S
C542 C543 1.388 . S
C543 H530 0.930 . S
C543 C542 1.388 . S
C543 C544 1.390 . S
C544 C543 1.390 . S
C544 C545 1.394 . S
C544 C550 1.465 . S
C545 C540 1.399 . S
C545 C544 1.394 . S
C545 C546 1.516 . S
C546 C545 1.516 . S
C546 C547 1.502 . S
C546 C548 1.561 . S
C546 C549 1.526 . S
C547 H531 0.959 . S
C547 H532 0.959 . S
C547 H533 0.961 . S
C547 C546 1.502 . S
C548 H534 0.960 . S
C548 H535 0.961 . S
C548 H536 0.959 . S
C548 C546 1.561 . S
C549 C546 1.526 . S
C549 C550 1.396 . S
C549 C554 1.390 . S
C550 C544 1.465 . S
C550 C549 1.396 . S
C550 C551 1.399 . S
C551 H537 0.929 . S
C551 C550 1.399 . S
C551 C552 1.385 . S
C552 H538 0.931 . S
C552 C551 1.385 . S
C552 C553 1.389 . S
C553 C552 1.389 . S
C553 C554 1.387 . S
C554 H539 0.930 . S
C554 C549 1.390 . S
C554 C553 1.387 . S
H555 C567 0.930 . S
H556 C569 0.930 . S
H557 C570 0.930 . S
H558 C574 0.959 . S
H559 C574 0.959 . S
H560 C574 0.961 . S
H561 C575 0.960 . S
H562 C575 0.961 . S
H563 C575 0.959 . S
H564 C578 0.929 . S
H565 C579 0.931 . S
H566 C581 0.930 . S
C567 H555 0.930 . S
C567 C568 1.399 . S
C567 C572 1.399 . S
C568 C567 1.399 . S
C568 C569 1.376 . S
C569 H556 0.930 . S
C569 C568 1.376 . S
C569 C570 1.388 . S
C570 H557 0.930 . S
C570 C569 1.388 . S
C570 C571 1.390 . S
C571 C570 1.390 . S
C571 C572 1.394 . S
C571 C577 1.465 . S
C572 C567 1.399 . S
C572 C571 1.394 . S
C572 C573 1.516 . S
C573 C572 1.516 . S
C573 C574 1.502 . S
C573 C575 1.561 . S
C573 C576 1.526 . S
C574 H558 0.959 . S
C574 H559 0.959 . S
C574 H560 0.961 . S
C574 C573 1.502 . S
C575 H561 0.960 . S
C575 H562 0.961 . S
C575 H563 0.959 . S
C575 C573 1.561 . S
C576 C573 1.526 . S
C576 C577 1.396 . S
C576 C581 1.390 . S
C577 C571 1.465 . S
C577 C576 1.396 . S
C577 C578 1.399 . S
C578 H564 0.929 . S
C578 C577 1.399 . S
C578 C579 1.385 . S
C579 H565 0.931 . S
C579 C578 1.385 . S
C579 C580 1.389 . S
C580 C579 1.389 . S
C580 C581 1.387 . S
C581 H566 0.930 . S
C581 C576 1.390 . S
C581 C580 1.387 . S
H582 C594 0.930 . S
H583 C596 0.930 . S
H584 C597 0.930 . S
H585 C601 0.959 . S
H586 C601 0.959 . S
H587 C601 0.961 . S
H588 C602 0.960 . S
H589 C602 0.961 . S
H590 C602 0.959 . S
H591 C605 0.929 . S
H592 C606 0.931 . S
H593 C608 0.930 . S
C594 H582 0.930 . S
C594 C595 1.399 . S
C594 C599 1.399 . S
C595 C594 1.399 . S
C595 C596 1.376 . S
C596 H583 0.930 . S
C596 C595 1.376 . S
C596 C597 1.388 . S
C597 H584 0.930 . S
C597 C596 1.388 . S
C597 C598 1.390 . S
C598 C597 1.390 . S
C598 C599 1.394 . S
C598 C604 1.465 . S
C599 C594 1.399 . S
C599 C598 1.394 . S
C599 C600 1.516 . S
C600 C599 1.516 . S
C600 C601 1.502 . S
C600 C602 1.561 . S
C600 C603 1.526 . S
C601 H585 0.959 . S
C601 H586 0.959 . S
C601 H587 0.961 . S
C601 C600 1.502 . S
C602 H588 0.960 . S
C602 H589 0.961 . S
C602 H590 0.959 . S
C602 C600 1.561 . S
C603 C600 1.526 . S
C603 C604 1.396 . S
C603 C608 1.390 . S
C604 C598 1.465 . S
C604 C603 1.396 . S
C604 C605 1.399 . S
C605 H591 0.929 . S
C605 C604 1.399 . S
C605 C606 1.385 . S
C606 H592 0.931 . S
C606 C605 1.385 . S
C606 C607 1.389 . S
C607 C606 1.389 . S
C607 C608 1.387 . S
C608 H593 0.930 . S
C608 C603 1.390 . S
C608 C607 1.387 . S
H609 C621 0.930 1_556 S
H610 C623 0.930 . S
H611 C624 0.930 . S
H612 C628 0.959 . S
H613 C628 0.959 1_556 S
H614 C628 0.961 1_556 S
H615 C629 0.960 . S
H616 C629 0.961 . S
H617 C629 0.959 1_554 S
H618 C632 0.929 . S
H619 C633 0.931 . S
H620 C635 0.930 . S
C621 H609 0.930 1_554 S
C621 C622 1.399 . S
C621 C626 1.399 . S
C622 C621 1.399 . S
C622 C623 1.376 . S
C623 H610 0.930 . S
C623 C622 1.376 . S
C623 C624 1.388 . S
C624 H611 0.930 . S
C624 C623 1.388 . S
C624 C625 1.390 . S
C625 C624 1.390 . S
C625 C626 1.394 . S
C625 C631 1.465 . S
C626 C621 1.399 . S
C626 C625 1.394 . S
C626 C627 1.516 . S
C627 C626 1.516 . S
C627 C628 1.502 . S
C627 C629 1.561 1_554 S
C627 C630 1.526 . S
C628 H612 0.959 . S
C628 H613 0.959 1_554 S
C628 H614 0.961 1_554 S
C628 C627 1.502 . S
C629 H615 0.960 . S
C629 H616 0.961 . S
C629 H617 0.959 1_556 S
C629 C627 1.561 1_556 S
C630 C627 1.526 . S
C630 C631 1.396 . S
C630 C635 1.390 . S
C631 C625 1.465 . S
C631 C630 1.396 . S
C631 C632 1.399 . S
C632 H618 0.929 . S
C632 C631 1.399 . S
C632 C633 1.385 . S
C633 H619 0.931 . S
C633 C632 1.385 . S
C633 C634 1.389 . S
C634 C633 1.389 . S
C634 C635 1.387 . S
C635 H620 0.930 . S
C635 C630 1.390 . S
C635 C634 1.387 . S
H636 C648 0.930 . S
H637 C650 0.930 . S
H638 C651 0.930 . S
H639 C655 0.959 . S
H640 C655 0.959 . S
H641 C655 0.961 . S
H642 C656 0.960 . S
H643 C656 0.961 . S
H644 C656 0.959 . S
H645 C659 0.929 . S
H646 C660 0.931 . S
H647 C662 0.930 . S
C648 H636 0.930 . S
C648 C649 1.399 . S
C648 C653 1.399 . S
C649 C648 1.399 . S
C649 C650 1.376 . S
C650 H637 0.930 . S
C650 C649 1.376 . S
C650 C651 1.388 . S
C651 H638 0.930 . S
C651 C650 1.388 . S
C651 C652 1.390 . S
C652 C651 1.390 . S
C652 C653 1.394 . S
C652 C658 1.465 . S
C653 C648 1.399 . S
C653 C652 1.394 . S
C653 C654 1.516 . S
C654 C653 1.516 . S
C654 C655 1.502 . S
C654 C656 1.561 . S
C654 C657 1.526 . S
C655 H639 0.959 . S
C655 H640 0.959 . S
C655 H641 0.961 . S
C655 C654 1.502 . S
C656 H642 0.960 . S
C656 H643 0.961 . S
C656 H644 0.959 . S
C656 C654 1.561 . S
C657 C654 1.526 . S
C657 C658 1.396 . S
C657 C662 1.390 . S
C658 C652 1.465 . S
C658 C657 1.396 . S
C658 C659 1.399 . S
C659 H645 0.929 . S
C659 C658 1.399 . S
C659 C660 1.385 . S
C660 H646 0.931 . S
C660 C659 1.385 . S
C660 C661 1.389 . S
C661 C660 1.389 . S
C661 C662 1.387 . S
C662 H647 0.930 . S
C662 C657 1.390 . S
C662 C661 1.387 . S
H663 C675 0.930 . S
H664 C677 0.930 . S
H665 C678 0.930 . S
H666 C682 0.959 . S
H667 C682 0.959 . S
H668 C682 0.961 . S
H669 C683 0.960 . S
H670 C683 0.961 . S
H671 C683 0.959 . S
H672 C686 0.929 . S
H673 C687 0.931 . S
H674 C689 0.930 . S
C675 H663 0.930 . S
C675 C676 1.399 . S
C675 C680 1.399 . S
C676 C675 1.399 . S
C676 C677 1.376 . S
C677 H664 0.930 . S
C677 C676 1.376 . S
C677 C678 1.388 . S
C678 H665 0.930 . S
C678 C677 1.388 . S
C678 C679 1.390 . S
C679 C678 1.390 . S
C679 C680 1.394 . S
C679 C685 1.465 . S
C680 C675 1.399 . S
C680 C679 1.394 . S
C680 C681 1.516 . S
C681 C680 1.516 . S
C681 C682 1.502 . S
C681 C683 1.561 . S
C681 C684 1.526 . S
C682 H666 0.959 . S
C682 H667 0.959 . S
C682 H668 0.961 . S
C682 C681 1.502 . S
C683 H669 0.960 . S
C683 H670 0.961 . S
C683 H671 0.959 . S
C683 C681 1.561 . S
C684 C681 1.526 . S
C684 C685 1.396 . S
C684 C689 1.390 . S
C685 C679 1.465 . S
C685 C684 1.396 . S
C685 C686 1.399 . S
C686 H672 0.929 . S
C686 C685 1.399 . S
C686 C687 1.385 . S
C687 H673 0.931 . S
C687 C686 1.385 . S
C687 C688 1.389 . S
C688 C687 1.389 . S
C688 C689 1.387 . S
C689 H674 0.930 . S
C689 C684 1.390 . S
C689 C688 1.387 . S
H690 C702 0.930 . S
H691 C704 0.930 . S
H692 C705 0.930 . S
H693 C709 0.959 . S
H694 C709 0.959 . S
H695 C709 0.961 . S
H696 C710 0.960 . S
H697 C710 0.961 . S
H698 C710 0.959 . S
H699 C713 0.929 . S
H700 C714 0.931 . S
H701 C716 0.930 . S
C702 H690 0.930 . S
C702 C703 1.399 . S
C702 C707 1.399 . S
C703 C702 1.399 . S
C703 C704 1.376 . S
C704 H691 0.930 . S
C704 C703 1.376 . S
C704 C705 1.388 . S
C705 H692 0.930 . S
C705 C704 1.388 . S
C705 C706 1.390 . S
C706 C705 1.390 . S
C706 C707 1.394 . S
C706 C712 1.465 . S
C707 C702 1.399 . S
C707 C706 1.394 . S
C707 C708 1.516 . S
C708 C707 1.516 . S
C708 C709 1.502 . S
C708 C710 1.561 . S
C708 C711 1.526 . S
C709 H693 0.959 . S
C709 H694 0.959 . S
C709 H695 0.961 . S
C709 C708 1.502 . S
C710 H696 0.960 . S
C710 H697 0.961 . S
C710 H698 0.959 . S
C710 C708 1.561 . S
C711 C708 1.526 . S
C711 C712 1.396 . S
C711 C716 1.390 . S
C712 C706 1.465 . S
C712 C711 1.396 . S
C712 C713 1.399 . S
C713 H699 0.929 . S
C713 C712 1.399 . S
C713 C714 1.385 . S
C714 H700 0.931 . S
C714 C713 1.385 . S
C714 C715 1.389 . S
C715 C714 1.389 . S
C715 C716 1.387 . S
C716 H701 0.930 . S
C716 C711 1.390 . S
C716 C715 1.387 . S
H717 C729 0.930 . S
H718 C731 0.930 . S
H719 C732 0.930 . S
H720 C736 0.959 . S
H721 C736 0.959 . S
H722 C736 0.961 . S
H723 C737 0.960 . S
H724 C737 0.961 . S
H725 C737 0.959 . S
H726 C740 0.929 . S
H727 C741 0.931 . S
H728 C743 0.930 . S
C729 H717 0.930 . S
C729 C730 1.399 . S
C729 C734 1.399 . S
C730 C729 1.399 . S
C730 C731 1.376 . S
C731 H718 0.930 . S
C731 C730 1.376 . S
C731 C732 1.388 . S
C732 H719 0.930 . S
C732 C731 1.388 . S
C732 C733 1.390 . S
C733 C732 1.390 . S
C733 C734 1.394 . S
C733 C739 1.465 . S
C734 C729 1.399 . S
C734 C733 1.394 . S
C734 C735 1.516 . S
C735 C734 1.516 . S
C735 C736 1.502 . S
C735 C737 1.561 . S
C735 C738 1.526 . S
C736 H720 0.959 . S
C736 H721 0.959 . S
C736 H722 0.961 . S
C736 C735 1.502 . S
C737 H723 0.960 . S
C737 H724 0.961 . S
C737 H725 0.959 . S
C737 C735 1.561 . S
C738 C735 1.526 . S
C738 C739 1.396 . S
C738 C743 1.390 . S
C739 C733 1.465 . S
C739 C738 1.396 . S
C739 C740 1.399 . S
C740 H726 0.929 . S
C740 C739 1.399 . S
C740 C741 1.385 . S
C741 H727 0.931 . S
C741 C740 1.385 . S
C741 C742 1.389 . S
C742 C741 1.389 . S
C742 C743 1.387 . S
C743 H728 0.930 . S
C743 C738 1.390 . S
C743 C742 1.387 . S
H744 C756 0.930 . S
H745 C758 0.930 . S
H746 C759 0.930 . S
H747 C763 0.959 . S
H748 C763 0.959 . S
H749 C763 0.961 . S
H750 C764 0.960 . S
H751 C764 0.961 . S
H752 C764 0.959 . S
H753 C767 0.929 . S
H754 C768 0.931 . S
H755 C770 0.930 . S
C756 H744 0.930 . S
C756 C757 1.399 . S
C756 C761 1.399 . S
C757 C756 1.399 . S
C757 C758 1.376 . S
C758 H745 0.930 . S
C758 C757 1.376 . S
C758 C759 1.388 . S
C759 H746 0.930 . S
C759 C758 1.388 . S
C759 C760 1.390 . S
C760 C759 1.390 . S
C760 C761 1.394 . S
C760 C766 1.465 . S
C761 C756 1.399 . S
C761 C760 1.394 . S
C761 C762 1.516 . S
C762 C761 1.516 . S
C762 C763 1.502 . S
C762 C764 1.561 . S
C762 C765 1.526 . S
C763 H747 0.959 . S
C763 H748 0.959 . S
C763 H749 0.961 . S
C763 C762 1.502 . S
C764 H750 0.960 . S
C764 H751 0.961 . S
C764 H752 0.959 . S
C764 C762 1.561 . S
C765 C762 1.526 . S
C765 C766 1.396 . S
C765 C770 1.390 . S
C766 C760 1.465 . S
C766 C765 1.396 . S
C766 C767 1.399 . S
C767 H753 0.929 . S
C767 C766 1.399 . S
C767 C768 1.385 . S
C768 H754 0.931 . S
C768 C767 1.385 . S
C768 C769 1.389 . S
C769 C768 1.389 . S
C769 C770 1.387 . S
C770 H755 0.930 . S
C770 C765 1.390 . S
C770 C769 1.387 . S
H771 C783 0.930 . S
H772 C785 0.930 . S
H773 C786 0.930 . S
H774 C790 0.962 . S
H775 C790 0.959 1_554 S
H776 C790 0.961 . S
H777 C791 0.960 . S
H778 C791 0.961 . S
H779 C791 0.959 . S
H780 C794 0.929 . S
H781 C795 0.931 . S
H782 C797 0.930 . S
C783 H771 0.930 . S
C783 C784 1.399 . S
C783 C788 1.399 . S
C784 C783 1.399 . S
C784 C785 1.376 . S
C785 H772 0.930 . S
C785 C784 1.376 . S
C785 C786 1.388 . S
C786 H773 0.930 . S
C786 C785 1.388 . S
C786 C787 1.390 . S
C787 C786 1.390 . S
C787 C788 1.394 . S
C787 C793 1.465 . S
C788 C783 1.399 . S
C788 C787 1.394 . S
C788 C789 1.516 . S
C789 C788 1.516 . S
C789 C790 1.502 . S
C789 C791 1.561 . S
C789 C792 1.526 . S
C790 H774 0.962 . S
C790 H775 0.959 1_556 S
C790 H776 0.961 . S
C790 C789 1.502 . S
C791 H777 0.960 . S
C791 H778 0.961 . S
C791 H779 0.959 . S
C791 C789 1.561 . S
C792 C789 1.526 . S
C792 C793 1.396 . S
C792 C797 1.390 1_556 S
C793 C787 1.465 . S
C793 C792 1.396 . S
C793 C794 1.399 . S
C794 H780 0.929 . S
C794 C793 1.399 . S
C794 C795 1.385 1_556 S
C795 H781 0.931 . S
C795 C794 1.385 1_554 S
C795 C796 1.389 . S
C796 C795 1.389 . S
C796 C797 1.387 . S
C797 H782 0.930 . S
C797 C792 1.390 1_554 S
C797 C796 1.387 . S
H798 C810 0.930 . S
H799 C812 0.930 . S
H800 C813 0.930 . S
H801 C817 0.959 . S
H802 C817 0.959 . S
H803 C817 0.961 . S
H804 C818 0.960 . S
H805 C818 0.961 . S
H806 C818 0.959 . S
H807 C821 0.929 . S
H808 C822 0.931 . S
H809 C824 0.930 . S
C810 H798 0.930 . S
C810 C811 1.399 . S
C810 C815 1.399 . S
C811 C810 1.399 . S
C811 C812 1.376 . S
C812 H799 0.930 . S
C812 C811 1.376 . S
C812 C813 1.388 . S
C813 H800 0.930 . S
C813 C812 1.388 . S
C813 C814 1.390 . S
C814 C813 1.390 . S
C814 C815 1.394 . S
C814 C820 1.465 . S
C815 C810 1.399 . S
C815 C814 1.394 . S
C815 C816 1.516 . S
C816 C815 1.516 . S
C816 C817 1.502 . S
C816 C818 1.561 . S
C816 C819 1.526 . S
C817 H801 0.959 . S
C817 H802 0.959 . S
C817 H803 0.961 . S
C817 C816 1.502 . S
C818 H804 0.960 . S
C818 H805 0.961 . S
C818 H806 0.959 . S
C818 C816 1.561 . S
C819 C816 1.526 . S
C819 C820 1.396 . S
C819 C824 1.390 . S
C820 C814 1.465 . S
C820 C819 1.396 . S
C820 C821 1.399 . S
C821 H807 0.929 . S
C821 C820 1.399 . S
C821 C822 1.385 . S
C822 H808 0.931 . S
C822 C821 1.385 . S
C822 C823 1.389 . S
C823 C822 1.389 . S
C823 C824 1.387 . S
C824 H809 0.930 . S
C824 C819 1.390 . S
C824 C823 1.387 . S
H825 C837 0.930 . S
H826 C839 0.930 . S
H827 C840 0.930 . S
H828 C844 0.959 . S
H829 C844 0.959 . S
H830 C844 0.961 . S
H831 C845 0.960 . S
H832 C845 0.961 . S
H833 C845 0.959 . S
H834 C848 0.929 . S
H835 C849 0.931 . S
H836 C851 0.930 . S
C837 H825 0.930 . S
C837 C838 1.399 . S
C837 C842 1.399 . S
C838 C837 1.399 . S
C838 C839 1.376 . S
C839 H826 0.930 . S
C839 C838 1.376 . S
C839 C840 1.388 . S
C840 H827 0.930 . S
C840 C839 1.388 . S
C840 C841 1.390 . S
C841 C840 1.390 . S
C841 C842 1.394 . S
C841 C847 1.465 . S
C842 C837 1.399 . S
C842 C841 1.394 . S
C842 C843 1.516 . S
C843 C842 1.516 . S
C843 C844 1.502 . S
C843 C845 1.561 . S
C843 C846 1.526 . S
C844 H828 0.959 . S
C844 H829 0.959 . S
C844 H830 0.961 . S
C844 C843 1.502 . S
C845 H831 0.960 . S
C845 H832 0.961 . S
C845 H833 0.959 . S
C845 C843 1.561 . S
C846 C843 1.526 . S
C846 C847 1.396 . S
C846 C851 1.390 . S
C847 C841 1.465 . S
C847 C846 1.396 . S
C847 C848 1.399 . S
C848 H834 0.929 . S
C848 C847 1.399 . S
C848 C849 1.385 . S
C849 H835 0.931 . S
C849 C848 1.385 . S
C849 C850 1.389 . S
C850 C849 1.389 . S
C850 C851 1.387 . S
C851 H836 0.930 . S
C851 C846 1.390 . S
C851 C850 1.387 . S
H852 C864 0.930 . S
H853 C866 0.930 . S
H854 C867 0.930 . S
H855 C871 0.959 . S
H856 C871 0.959 . S
H857 C871 0.961 . S
H858 C872 0.960 . S
H859 C872 0.961 . S
H860 C872 0.959 . S
H861 C875 0.929 . S
H862 C876 0.931 . S
H863 C878 0.930 . S
C864 H852 0.930 . S
C864 C865 1.399 . S
C864 C869 1.399 . S
C865 C864 1.399 . S
C865 C866 1.376 . S
C866 H853 0.930 . S
C866 C865 1.376 . S
C866 C867 1.388 . S
C867 H854 0.930 . S
C867 C866 1.388 . S
C867 C868 1.390 . S
C868 C867 1.390 . S
C868 C869 1.394 . S
C868 C874 1.465 . S
C869 C864 1.399 . S
C869 C868 1.394 . S
C869 C870 1.516 . S
C870 C869 1.516 . S
C870 C871 1.502 . S
C870 C872 1.561 . S
C870 C873 1.526 . S
C871 H855 0.959 . S
C871 H856 0.959 . S
C871 H857 0.961 . S
C871 C870 1.502 . S
C872 H858 0.960 . S
C872 H859 0.961 . S
C872 H860 0.959 . S
C872 C870 1.561 . S
C873 C870 1.526 . S
C873 C874 1.396 . S
C873 C878 1.390 . S
C874 C868 1.465 . S
C874 C873 1.396 . S
C874 C875 1.399 . S
C875 H861 0.929 . S
C875 C874 1.399 . S
C875 C876 1.385 . S
C876 H862 0.931 . S
C876 C875 1.385 . S
C876 C877 1.389 . S
C877 C876 1.389 . S
C877 C878 1.387 . S
C878 H863 0.930 . S
C878 C873 1.390 . S
C878 C877 1.387 . S
H879 C891 0.930 . S
H880 C893 0.930 . S
H881 C894 0.930 . S
H882 C898 0.959 . S
H883 C898 0.959 . S
H884 C898 0.961 . S
H885 C899 0.960 . S
H886 C899 0.961 . S
H887 C899 0.959 . S
H888 C902 0.929 . S
H889 C903 0.931 . S
H890 C905 0.930 . S
C891 H879 0.930 . S
C891 C892 1.399 . S
C891 C896 1.399 . S
C892 C891 1.399 . S
C892 C893 1.376 . S
C893 H880 0.930 . S
C893 C892 1.376 . S
C893 C894 1.388 . S
C894 H881 0.930 . S
C894 C893 1.388 . S
C894 C895 1.390 . S
C895 C894 1.390 . S
C895 C896 1.394 . S
C895 C901 1.465 . S
C896 C891 1.399 . S
C896 C895 1.394 . S
C896 C897 1.516 . S
C897 C896 1.516 . S
C897 C898 1.502 . S
C897 C899 1.561 . S
C897 C900 1.526 . S
C898 H882 0.959 . S
C898 H883 0.959 . S
C898 H884 0.961 . S
C898 C897 1.502 . S
C899 H885 0.960 . S
C899 H886 0.961 . S
C899 H887 0.959 . S
C899 C897 1.561 . S
C900 C897 1.526 . S
C900 C901 1.396 . S
C900 C905 1.390 . S
C901 C895 1.465 . S
C901 C900 1.396 . S
C901 C902 1.399 . S
C902 H888 0.929 . S
C902 C901 1.399 . S
C902 C903 1.385 . S
C903 H889 0.931 . S
C903 C902 1.385 . S
C903 C904 1.389 . S
C904 C903 1.389 . S
C904 C905 1.387 . S
C905 H890 0.930 . S
C905 C900 1.390 . S
C905 C904 1.387 . S
H906 C918 0.930 . S
H907 C920 0.930 . S
H908 C921 0.930 . S
H909 C925 0.959 . S
H910 C925 0.959 . S
H911 C925 0.961 . S
H912 C926 0.960 . S
H913 C926 0.961 . S
H914 C926 0.959 . S
H915 C929 0.929 . S
H916 C930 0.931 . S
H917 C932 0.930 . S
C918 H906 0.930 . S
C918 C919 1.399 . S
C918 C923 1.399 . S
C919 C918 1.399 . S
C919 C920 1.376 . S
C920 H907 0.930 . S
C920 C919 1.376 . S
C920 C921 1.388 . S
C921 H908 0.930 . S
C921 C920 1.388 . S
C921 C922 1.390 . S
C922 C921 1.390 . S
C922 C923 1.394 . S
C922 C928 1.465 . S
C923 C918 1.399 . S
C923 C922 1.394 . S
C923 C924 1.516 . S
C924 C923 1.516 . S
C924 C925 1.502 . S
C924 C926 1.561 . S
C924 C927 1.526 . S
C925 H909 0.959 . S
C925 H910 0.959 . S
C925 H911 0.961 . S
C925 C924 1.502 . S
C926 H912 0.960 . S
C926 H913 0.961 . S
C926 H914 0.959 . S
C926 C924 1.561 . S
C927 C924 1.526 . S
C927 C928 1.396 . S
C927 C932 1.390 . S
C928 C922 1.465 . S
C928 C927 1.396 . S
C928 C929 1.399 . S
C929 H915 0.929 . S
C929 C928 1.399 . S
C929 C930 1.385 . S
C930 H916 0.931 . S
C930 C929 1.385 . S
C930 C931 1.389 . S
C931 C930 1.389 . S
C931 C932 1.387 . S
C932 H917 0.930 . S
C932 C927 1.390 . S
C932 C931 1.387 . S
H933 C945 0.930 . S
H934 C947 0.930 . S
H935 C948 0.930 . S
H936 C952 0.959 . S
H937 C952 0.959 . S
H938 C952 0.961 . S
H939 C953 0.960 . S
H940 C953 0.961 . S
H941 C953 0.959 . S
H942 C956 0.929 . S
H943 C957 0.931 . S
H944 C959 0.930 . S
C945 H933 0.930 . S
C945 C946 1.399 . S
C945 C950 1.399 . S
C946 C945 1.399 . S
C946 C947 1.376 . S
C947 H934 0.930 . S
C947 C946 1.376 . S
C947 C948 1.388 . S
C948 H935 0.930 . S
C948 C947 1.388 . S
C948 C949 1.390 . S
C949 C948 1.390 . S
C949 C950 1.394 . S
C949 C955 1.465 . S
C950 C945 1.399 . S
C950 C949 1.394 . S
C950 C951 1.516 . S
C951 C950 1.516 . S
C951 C952 1.502 . S
C951 C953 1.561 . S
C951 C954 1.526 . S
C952 H936 0.959 . S
C952 H937 0.959 . S
C952 H938 0.961 . S
C952 C951 1.502 . S
C953 H939 0.960 . S
C953 H940 0.961 . S
C953 H941 0.959 . S
C953 C951 1.561 . S
C954 C951 1.526 . S
C954 C955 1.396 . S
C954 C959 1.390 . S
C955 C949 1.465 . S
C955 C954 1.396 . S
C955 C956 1.399 . S
C956 H942 0.929 . S
C956 C955 1.399 . S
C956 C957 1.385 . S
C957 H943 0.931 . S
C957 C956 1.385 . S
C957 C958 1.389 . S
C958 C957 1.389 . S
C958 C959 1.387 . S
C959 H944 0.930 . S
C959 C954 1.390 . S
C959 C958 1.387 . S
H960 C972 0.930 . S
H961 C974 0.930 . S
H962 C975 0.930 . S
H963 C979 0.959 . S
H964 C979 0.959 . S
H965 C979 0.961 . S
H966 C980 0.960 . S
H967 C980 0.961 . S
H968 C980 0.973 . S
H969 C983 0.929 . S
H970 C984 0.931 . S
H971 C986 0.930 . S
C972 H960 0.930 . S
C972 C973 1.399 . S
C972 C977 1.399 . S
C973 C972 1.399 . S
C973 C974 1.376 . S
C974 H961 0.930 . S
C974 C973 1.376 . S
C974 C975 1.388 . S
C975 H962 0.930 . S
C975 C974 1.388 . S
C975 C976 1.390 . S
C976 C975 1.390 . S
C976 C977 1.394 . S
C976 C982 1.440 1_554 S
C977 C972 1.399 . S
C977 C976 1.394 . S
C977 C978 1.516 . S
C978 C977 1.516 . S
C978 C979 1.502 . S
C978 C980 1.561 . S
C978 C981 1.524 . S
C979 H963 0.959 . S
C979 H964 0.959 . S
C979 H965 0.961 . S
C979 C978 1.502 . S
C980 H966 0.960 . S
C980 H967 0.961 . S
C980 H968 0.973 . S
C980 C978 1.561 . S
C981 C978 1.524 . S
C981 C982 1.396 1_554 S
C981 C986 1.391 1_554 S
C982 C976 1.440 1_556 S
C982 C981 1.396 1_556 S
C982 C983 1.422 . S
C983 H969 0.929 . S
C983 C982 1.422 . S
C983 C984 1.385 . S
C984 H970 0.931 . S
C984 C983 1.385 . S
C984 C985 1.389 . S
C985 C984 1.389 . S
C985 C986 1.387 . S
C986 H971 0.930 . S
C986 C981 1.391 1_556 S
C986 C985 1.387 . S
H987 C999 0.930 . S
H988 C1001 0.930 . S
H989 C1002 0.930 . S
H990 C1006 0.959 . S
H991 C1006 0.959 . S
H992 C1006 0.961 . S
H993 C1007 0.960 . S
H994 C1007 0.961 . S
H995 C1007 0.959 . S
H996 C1010 0.929 . S
H997 C1011 0.931 . S
H998 C1013 0.930 . S
C999 H987 0.930 . S
C999 C1000 1.399 . S
C999 C1004 1.399 . S
C1000 C999 1.399 . S
C1000 C1001 1.376 . S
C1001 H988 0.930 . S
C1001 C1000 1.376 . S
C1001 C1002 1.388 . S
C1002 H989 0.930 . S
C1002 C1001 1.388 . S
C1002 C1003 1.390 . S
C1003 C1002 1.390 . S
C1003 C1004 1.394 . S
C1003 C1009 1.465 . S
C1004 C999 1.399 . S
C1004 C1003 1.394 . S
C1004 C1005 1.516 . S
C1005 C1004 1.516 . S
C1005 C1006 1.502 . S
C1005 C1007 1.561 . S
C1005 C1008 1.526 . S
C1006 H990 0.959 . S
C1006 H991 0.959 . S
C1006 H992 0.961 . S
C1006 C1005 1.502 . S
C1007 H993 0.960 . S
C1007 H994 0.961 . S
C1007 H995 0.959 . S
C1007 C1005 1.561 . S
C1008 C1005 1.526 . S
C1008 C1009 1.396 . S
C1008 C1013 1.390 . S
C1009 C1003 1.465 . S
C1009 C1008 1.396 . S
C1009 C1010 1.399 . S
C1010 H996 0.929 . S
C1010 C1009 1.399 . S
C1010 C1011 1.385 . S
C1011 H997 0.931 . S
C1011 C1010 1.385 . S
C1011 C1012 1.389 . S
C1012 C1011 1.389 . S
C1012 C1013 1.387 . S
C1013 H998 0.930 . S
C1013 C1008 1.390 . S
C1013 C1012 1.387 . S
C391 C358 1.576 . S
C379 C45 1.579 . S
C406 C84 1.572 . S
C418 C293 1.580 . S
C433 C126 1.580 . S
C445 C311 1.580 . S
C460 C189 1.563 . S
C472 C324 1.570 . S
C499 C332 1.580 . S
C487 C228 1.583 . S
C514 C270 1.568 . S
C526 C344 1.576 . S
C541 C69 1.560 . S
C553 C306 1.580 . S
C568 C141 1.579 . S
C580 C319 1.576 . S
C595 C174 1.569 . S
C607 C337 1.576 . S
C634 C343 1.581 . S
C622 C213 1.585 . S
C661 C363 1.563 . S
C649 C285 1.569 . S
C688 C298 1.577 . S
C676 C30 1.556 . S
C703 C36 1.594 . S
C715 C304 1.595 . S
C730 C93 1.601 . S
C742 C317 1.602 . S
C769 C331 1.600 . S
C757 C117 1.563 . S
C784 C180 1.600 . S
C796 C345 1.600 . S
C823 C357 1.590 . S
C811 C237 1.590 . S
C850 C292 1.589 . S
C838 C261 1.590 . S
C877 C356 1.600 . S
C865 C78 1.566 . S
C892 C132 1.598 . S
C904 C291 1.600 . S
C931 C305 1.596 . S
C919 C165 1.562 . S
C946 C222 1.573 . S
C958 C318 1.593 . S
C973 C276 1.599 . S
C985 C330 1.607 . S
C1000 C21 1.600 . S
C1012 C350 1.592 . S
