# Generated by pormake.
# Topology pyr, (3,6)-cn, num edge types: 1
# Building blocks:
#     Node 0, Type 0, BuildingBlock: BETDAH_clean_linker_0, # of connection points: 3
#     Node 1, Type 0, BuildingBlock: BETDAH_clean_linker_0, # of connection points: 3
#     Node 2, Type 0, BuildingBlock: BETDAH_clean_linker_0, # of connection points: 3
#     Node 3, Type 0, BuildingBlock: BETDAH_clean_linker_0, # of connection points: 3
#     Node 4, Type 0, BuildingBlock: BETDAH_clean_linker_0, # of connection points: 3
#     Node 5, Type 0, BuildingBlock: BETDAH_clean_linker_0, # of connection points: 3
#     Node 6, Type 0, BuildingBlock: BETDAH_clean_linker_0, # of connection points: 3
#     Node 7, Type 0, BuildingBlock: BETDAH_clean_linker_0, # of connection points: 3
#     Node 8, Type 1, BuildingBlock: MIDCAF_clean_sbu_0, # of connection points: 6
#     Node 9, Type 1, BuildingBlock: MIDCAF_clean_sbu_0, # of connection points: 6
#     Node 10, Type 1, BuildingBlock: MIDCAF_clean_sbu_0, # of connection points: 6
#     Node 11, Type 1, BuildingBlock: MIDCAF_clean_sbu_0, # of connection points: 6
#     Edge 12, Type (0, 1), BuildingBlock: EZIPEK_clean_linker_0, # of connection points: 2
#     Edge 13, Type (0, 1), BuildingBlock: EZIPEK_clean_linker_0, # of connection points: 2
#     Edge 14, Type (0, 1), BuildingBlock: EZIPEK_clean_linker_0, # of connection points: 2
#     Edge 15, Type (0, 1), BuildingBlock: EZIPEK_clean_linker_0, # of connection points: 2
#     Edge 16, Type (0, 1), BuildingBlock: EZIPEK_clean_linker_0, # of connection points: 2
#     Edge 17, Type (0, 1), BuildingBlock: EZIPEK_clean_linker_0, # of connection points: 2
#     Edge 18, Type (0, 1), BuildingBlock: EZIPEK_clean_linker_0, # of connection points: 2
#     Edge 19, Type (0, 1), BuildingBlock: EZIPEK_clean_linker_0, # of connection points: 2
#     Edge 20, Type (0, 1), BuildingBlock: EZIPEK_clean_linker_0, # of connection points: 2
#     Edge 21, Type (0, 1), BuildingBlock: EZIPEK_clean_linker_0, # of connection points: 2
#     Edge 22, Type (0, 1), BuildingBlock: EZIPEK_clean_linker_0, # of connection points: 2
#     Edge 23, Type (0, 1), BuildingBlock: EZIPEK_clean_linker_0, # of connection points: 2
#     Edge 24, Type (0, 1), BuildingBlock: EZIPEK_clean_linker_0, # of connection points: 2
#     Edge 25, Type (0, 1), BuildingBlock: EZIPEK_clean_linker_0, # of connection points: 2
#     Edge 26, Type (0, 1), BuildingBlock: EZIPEK_clean_linker_0, # of connection points: 2
#     Edge 27, Type (0, 1), BuildingBlock: EZIPEK_clean_linker_0, # of connection points: 2
#     Edge 28, Type (0, 1), BuildingBlock: EZIPEK_clean_linker_0, # of connection points: 2
#     Edge 29, Type (0, 1), BuildingBlock: EZIPEK_clean_linker_0, # of connection points: 2
#     Edge 30, Type (0, 1), BuildingBlock: EZIPEK_clean_linker_0, # of connection points: 2
#     Edge 31, Type (0, 1), BuildingBlock: EZIPEK_clean_linker_0, # of connection points: 2
#     Edge 32, Type (0, 1), BuildingBlock: EZIPEK_clean_linker_0, # of connection points: 2
#     Edge 33, Type (0, 1), BuildingBlock: EZIPEK_clean_linker_0, # of connection points: 2
#     Edge 34, Type (0, 1), BuildingBlock: EZIPEK_clean_linker_0, # of connection points: 2
#     Edge 35, Type (0, 1), BuildingBlock: EZIPEK_clean_linker_0, # of connection points: 2
# Relax obj value: 0.089
# Max RMSD: 0.179
# Mean RMSD: 0.133
data_MOF--net-pyr--node1-MIDCAF_clean_sbu_0--node2-BETDAH_clean_linker_0--edge1-EZIPEK_clean_linker_0
_symmetry_space_group_name_H-M    P1
_symmetry_Int_Tables_number       1
_symmetry_cell_setting            triclinic
loop_
_symmetry_equiv_pos_as_xyz
'x, y, z'
_cell_length_a     24.896371
_cell_length_b     25.266742
_cell_length_c     26.4197
_cell_angle_alpha  90.557647
_cell_angle_beta   91.016442
_cell_angle_gamma 96.913679
loop_
_atom_site_label
_atom_site_type_symbol
_atom_site_fract_x
_atom_site_fract_y
_atom_site_fract_z
_atom_type_partial_charge
H0 H 0.27434 0.16181 0.29754 0.0
H1 H 0.32521 0.28467 0.19139 0.0
H2 H 0.19384 0.30354 0.29141 0.0
C3 C 0.27047 0.20059 0.28159 0.0
C4 C 0.2305 0.23046 0.29946 0.0
C5 C 0.30393 0.21921 0.24184 0.0
C6 C 0.29888 0.2696 0.22157 0.0
C7 C 0.25913 0.30017 0.23873 0.0
C8 C 0.22441 0.28025 0.27758 0.0
N9 N 0.25821 0.35208 0.2185 0.0
C10 C 0.21207 0.37507 0.20422 0.0
H11 H 0.40999 0.76495 0.83267 0.0
H12 H 0.29797 0.87575 0.86581 0.0
H13 H 0.27235 0.77932 0.73314 0.0
C14 C 0.3724 0.78047 0.82339 0.0
C15 C 0.34008 0.75999 0.7809 0.0
C16 C 0.3578 0.8224 0.85371 0.0
C17 C 0.31022 0.84421 0.84209 0.0
C18 C 0.27987 0.82839 0.79856 0.0
C19 C 0.29574 0.78792 0.76719 0.0
N20 N 0.23199 0.85243 0.78901 0.0
C21 C 0.21318 0.86603 0.74151 0.0
H22 H 0.76647 0.30866 0.95237 0.0
H23 H 0.7592 0.37871 0.80492 0.0
H24 H 0.66907 0.22619 0.83327 0.0
C25 C 0.75278 0.30597 0.91313 0.0
C26 C 0.71585 0.26245 0.89682 0.0
C27 C 0.76866 0.34804 0.88009 0.0
C28 C 0.74824 0.34569 0.83007 0.0
C29 C 0.7132 0.30105 0.81283 0.0
C30 C 0.69784 0.25946 0.84613 0.0
N31 N 0.69063 0.29813 0.76305 0.0
C32 C 0.67641 0.34263 0.73796 0.0
H33 H 0.75659 0.809 0.4282 0.0
H34 H 0.82451 0.83657 0.28093 0.0
H35 H 0.67905 0.72789 0.29761 0.0
C36 C 0.75407 0.80264 0.38752 0.0
C37 C 0.71261 0.76625 0.36644 0.0
C38 C 0.79428 0.82831 0.35681 0.0
C39 C 0.79269 0.81777 0.30453 0.0
C40 C 0.75102 0.78165 0.283 0.0
C41 C 0.71036 0.75689 0.31392 0.0
N42 N 0.75062 0.76782 0.23085 0.0
C43 C 0.79684 0.75622 0.20616 0.0
H44 H 0.0047 0.86667 0.86063 0.0
H45 H 0.90258 0.93156 0.96957 0.0
H46 H 0.94331 0.0157 0.8321 0.0
C47 C 0.98109 0.89782 0.87239 0.0
C48 C 0.97676 0.94144 0.84064 0.0
C49 C 0.95436 0.89413 0.91905 0.0
C50 C 0.92304 0.93437 0.93367 0.0
C51 C 0.9191 0.97839 0.90207 0.0
C52 C 0.94657 0.98177 0.85633 0.0
N53 N 0.88866 0.02051 0.91487 0.0
C54 C 0.84502 0.01592 0.94726 0.0
H55 H 0.68894 0.08748 0.36772 0.0
H56 H 0.72134 0.14475 0.52007 0.0
H57 H 0.58244 0.18797 0.43803 0.0
C58 C 0.67794 0.11022 0.40016 0.0
C59 C 0.6313 0.1366 0.39788 0.0
C60 C 0.71078 0.11352 0.44395 0.0
C61 C 0.69619 0.1424 0.48599 0.0
C62 C 0.65073 0.17 0.48417 0.0
C63 C 0.61819 0.16744 0.43972 0.0
N64 N 0.63857 0.1983 0.52845 0.0
C65 C 0.61285 0.24419 0.52904 0.0
H66 H 0.33503 0.68107 0.10115 0.0
H67 H 0.3812 0.53576 0.1633 0.0
H68 H 0.49503 0.67807 0.1638 0.0
C69 C 0.36533 0.65914 0.11839 0.0
C70 C 0.41683 0.68531 0.13 0.0
C71 C 0.35236 0.60519 0.13024 0.0
C72 C 0.39139 0.57721 0.15331 0.0
C73 C 0.44274 0.60369 0.16575 0.0
C74 C 0.45551 0.65751 0.15359 0.0
N75 N 0.48022 0.57694 0.19331 0.0
C76 C 0.49802 0.59501 0.24124 0.0
H77 H 0.21477 0.40965 0.5792 0.0
H78 H 0.12361 0.50004 0.67817 0.0
H79 H 0.05191 0.34892 0.61698 0.0
C80 C 0.17739 0.41455 0.59819 0.0
C81 C 0.13388 0.37399 0.5948 0.0
C82 C 0.17365 0.46018 0.62816 0.0
C83 C 0.12599 0.46518 0.65448 0.0
C84 C 0.08164 0.42509 0.64978 0.0
C85 C 0.08567 0.38034 0.61936 0.0
N86 N 0.03317 0.4275 0.67651 0.0
C87 C 0.03219 0.45392 0.7226 0.0
Zn88 Zn 0.98402 0.09796 0.58972 0.0
Zn89 Zn 0.09495 0.98055 0.46567 0.0
Zn90 Zn 0.03664 0.04142 0.52688 0.0
C91 C 0.12124 0.09053 0.44251 0.0
C92 C 0.98106 0.95506 0.44708 0.0
O93 O 0.04357 0.01056 0.60548 0.0
O94 O 0.98649 0.05222 0.64997 0.0
C95 C 0.07061 0.16519 0.55048 0.0
O96 O 0.0922 0.09666 0.48157 0.0
O97 O 0.12744 0.04434 0.42659 0.0
O98 O 0.02637 0.93928 0.43832 0.0
O99 O 0.97759 0.99512 0.47682 0.0
O100 O 0.03689 0.16306 0.58573 0.0
O101 O 0.07422 0.12433 0.52189 0.0
O102 O 0.95127 0.0349 0.49929 0.0
O103 O 0.91694 0.0942 0.54749 0.0
C104 C 0.91216 0.06169 0.51067 0.0
O105 O 0.07955 0.9881 0.57435 0.0
O106 O 0.13467 0.95026 0.52397 0.0
C107 C 0.01883 0.01757 0.64708 0.0
C108 C 0.11718 0.95794 0.56778 0.0
Zn109 Zn 0.47421 0.07225 0.03065 0.0
Zn110 Zn 0.59506 0.97354 0.15408 0.0
Zn111 Zn 0.53467 0.02518 0.09336 0.0
C112 C 0.6593 0.01012 0.07391 0.0
C113 C 0.50915 0.90137 0.12056 0.0
O114 O 0.48749 0.07682 0.14001 0.0
O115 O 0.42723 0.09807 0.08342 0.0
C116 C 0.58193 0.11182 0.01331 0.0
O117 O 0.61855 0.03614 0.06583 0.0
O118 O 0.65829 0.97627 0.10881 0.0
O119 O 0.54438 0.90672 0.15576 0.0
O120 O 0.5026 0.94034 0.09094 0.0
O121 O 0.53451 0.12286 1.00471 0.0
O122 O 0.59018 0.07345 0.04306 0.0
O123 O 0.48308 0.96235 0.04785 0.0
O124 O 0.44841 0.00885 0.98762 0.0
C125 C 0.45612 0.96435 1.00585 0.0
O126 O 0.52936 0.06065 0.17044 0.0
O127 O 0.5955 0.02575 0.21051 0.0
C128 C 0.4448 0.09894 0.12862 0.0
C129 C 0.56044 0.05791 0.20971 0.0
Zn130 Zn 0.57764 0.63045 0.62899 0.0
Zn131 Zn 0.43585 0.49812 0.50906 0.0
Zn132 Zn 0.5046 0.56198 0.5686 0.0
C133 C 0.51205 0.4358 0.54689 0.0
C134 C 0.48858 0.57483 0.44736 0.0
O135 O 0.45811 0.60337 0.62465 0.0
O136 O 0.5181 0.6608 0.6662 0.0
C137 C 0.59415 0.52087 0.64273 0.0
O138 O 0.52849 0.47986 0.57054 0.0
O139 O 0.47143 0.43258 0.51729 0.0
O140 O 0.45001 0.53757 0.44547 0.0
O141 O 0.51318 0.58853 0.48958 0.0
O142 O 0.60958 0.56763 0.65897 0.0
O143 O 0.55706 0.51227 0.60808 0.0
O144 O 0.55109 0.61957 0.51985 0.0
O145 O 0.61198 0.66825 0.56861 0.0
C146 C 0.59127 0.65641 0.5253 0.0
O147 O 0.42229 0.56609 0.59705 0.0
O148 O 0.37102 0.50805 0.54801 0.0
C149 C 0.46958 0.64086 0.65808 0.0
C150 C 0.37583 0.54082 0.58463 0.0
Zn151 Zn 0.0904 0.63846 0.98376 0.0
Zn152 Zn 0.95172 0.52361 0.0914 0.0
Zn153 Zn 0.01401 0.57926 0.02882 0.0
C154 C 0.04868 0.4926 0.11507 0.0
C155 C 0.9122 0.50243 0.98848 0.0
O156 O 0.99541 0.66417 0.02879 0.0
O157 O 0.05833 0.70563 0.98016 0.0
C158 C 0.14381 0.59255 0.05639 0.0
O159 O 0.05924 0.53064 0.08294 0.0
O160 O 1.00021 0.4772 0.12596 0.0
O161 O 0.90248 0.49438 0.03479 0.0
O162 O 0.95766 0.52882 0.9762 0.0
O163 O 0.15329 0.63214 0.02789 0.0
O164 O 0.09563 0.56757 0.05917 0.0
O165 O 0.00802 0.5494 0.9513 0.0
O166 O 0.08389 0.59289 0.92233 0.0
C167 C 0.04322 0.55835 0.91628 0.0
O168 O 0.96701 0.63595 0.06756 0.0
O169 O 0.92871 0.58598 0.12855 0.0
C170 C 0.01528 0.70596 1.00446 0.0
C171 C 0.93748 0.63065 0.10722 0.0
C172 C 0.21434 0.20792 0.39082 0.0
C173 C 0.19443 0.20695 0.34005 0.0
C174 C 0.11661 0.14372 0.36383 0.0
C175 C 0.14198 0.13704 0.41143 0.0
N176 N 0.2128 0.1642 0.47264 0.0
N177 N 0.12651 0.17455 0.27745 0.0
C178 C 0.18976 0.17035 0.42606 0.0
C179 C 0.1449 0.17578 0.32656 0.0
N180 N 0.25695 0.24465 0.40486 0.0
N181 N 0.06516 0.11959 0.35461 0.0
H182 H 0.14517 0.19878 0.24952 0.0
H183 H 0.09452 0.14761 0.2637 0.0
H184 H 0.04336 0.09627 0.38148 0.0
H185 H 0.04225 0.12666 0.32258 0.0
H186 H 0.27115 0.25073 0.44198 0.0
H187 H 0.27536 0.27236 0.37956 0.0
H188 H 0.25052 0.18313 0.48414 0.0
H189 H 0.19478 0.13805 0.49944 0.0
C190 C 0.37378 0.84129 0.947 0.0
C191 C 0.39282 0.84658 0.89664 0.0
C192 C 0.46692 0.91276 0.92685 0.0
C193 C 0.44078 0.91598 0.97378 0.0
N194 N 0.3713 0.88165 0.03086 0.0
N195 N 0.45766 0.88855 0.83801 0.0
C196 C 0.39533 0.87896 0.985 0.0
C197 C 0.44022 0.88178 0.88655 0.0
N198 N 0.335 0.80031 0.95806 0.0
N199 N 0.51739 0.93968 0.921 0.0
H200 H 0.43962 0.86667 0.80728 0.0
H201 H 0.48785 0.91842 0.82763 0.0
H202 H 0.53797 0.96215 0.95029 0.0
H203 H 0.54089 0.93527 0.88936 0.0
H204 H 0.32233 0.79127 0.99464 0.0
H205 H 0.31909 0.77229 0.93078 0.0
H206 H 0.33466 0.85968 0.03974 0.0
H207 H 0.38723 0.90788 0.05958 0.0
C208 C 0.66389 0.39598 0.66103 0.0
C209 C 0.65716 0.38829 0.71375 0.0
C210 C 0.60529 0.46449 0.71856 0.0
C211 C 0.61608 0.47518 0.66683 0.0
N212 N 0.66154 0.45617 0.59013 0.0
N213 N 0.62853 0.41878 0.7946 0.0
C214 C 0.64697 0.44225 0.63831 0.0
C215 C 0.63007 0.42369 0.74311 0.0
N216 N 0.6854 0.35852 0.63259 0.0
N217 N 0.56919 0.49155 0.74357 0.0
H218 H 0.64457 0.38831 0.81391 0.0
H219 H 0.61507 0.44717 0.81857 0.0
H220 H 0.54933 0.52113 0.72677 0.0
H221 H 0.55504 0.48146 0.77949 0.0
H222 H 0.68606 0.35878 0.59321 0.0
H223 H 0.69923 0.32478 0.64825 0.0
H224 H 0.68837 0.43682 0.56901 0.0
H225 H 0.64978 0.48974 0.57235 0.0
C226 C 0.83773 0.73188 0.1258 0.0
C227 C 0.8412 0.7368 0.17923 0.0
C228 C 0.92188 0.69009 0.1799 0.0
C229 C 0.91148 0.67566 0.12836 0.0
N230 N 0.85779 0.68081 0.0519 0.0
N231 N 0.88657 0.72158 0.25816 0.0
C232 C 0.86974 0.69701 0.10073 0.0
C233 C 0.88383 0.71692 0.20658 0.0
N234 N 0.80333 0.76003 0.09923 0.0
N235 N 0.96837 0.67813 0.20306 0.0
H236 H 0.86043 0.74244 0.2787 0.0
H237 H 0.91274 0.70243 0.2808 0.0
H238 H 0.99716 0.65918 0.1839 0.0
H239 H 0.98086 0.69142 0.23929 0.0
H240 H 0.80258 0.76211 0.05988 0.0
H241 H 0.7792 0.78551 0.11689 0.0
H242 H 0.82403 0.69035 0.03173 0.0
H243 H 0.87942 0.65452 0.03246 0.0
C244 C 0.32106 0.13722 0.19229 0.0
C245 C 0.34199 0.18443 0.21918 0.0
C246 C 0.43407 0.17131 0.19344 0.0
C247 C 0.41292 0.12357 0.16764 0.0
N248 N 0.33959 0.05313 0.15569 0.0
N249 N 0.41922 0.23899 0.25592 0.0
C250 C 0.35742 0.10395 0.17159 0.0
C251 C 0.39888 0.19907 0.2232 0.0
N252 N 0.26655 0.12562 0.18376 0.0
N253 N 0.48684 0.19177 0.18729 0.0
H254 H 0.39454 0.25979 0.27833 0.0
H255 H 0.46036 0.24809 0.26425 0.0
H256 H 0.51365 0.17255 0.16593 0.0
H257 H 0.5031 0.22936 0.20052 0.0
H258 H 0.24968 0.09489 0.15973 0.0
H259 H 0.23826 0.14955 0.19674 0.0
H260 H 0.30058 0.03469 0.1619 0.0
H261 H 0.36561 0.02751 0.14118 0.0
C262 C 0.16526 0.85497 0.65765 0.0
C263 C 0.1899 0.88868 0.69685 0.0
C264 C 0.17034 0.96756 0.64966 0.0
C265 C 0.1419 0.93388 0.61229 0.0
N266 N 0.10454 0.8458 0.58427 0.0
N267 N 0.20798 0.97638 0.73494 0.0
C268 C 0.1374 0.87757 0.61711 0.0
C269 C 0.19008 0.94479 0.69426 0.0
N270 N 0.16888 0.80145 0.65894 0.0
N271 N 0.18073 0.02117 0.6415 0.0
H272 H 0.2242 0.96157 0.76783 0.0
H273 H 0.2029 0.01662 0.73771 0.0
H274 H 0.16752 0.03948 0.60913 0.0
H275 H 0.20632 0.04697 0.66469 0.0
H276 H 0.15715 0.77544 0.62886 0.0
H277 H 0.18719 0.78348 0.68898 0.0
H278 H 0.09493 0.8049 0.58879 0.0
H279 H 0.08302 0.86096 0.5546 0.0
C280 C 0.77968 0.42873 0.93733 0.0
C281 C 0.80168 0.39709 0.90009 0.0
C282 C 0.88391 0.46007 0.90289 0.0
C283 C 0.86985 0.47859 0.9507 0.0
N284 N 0.79641 0.49469 1.00495 0.0
N285 N 0.87639 0.38488 0.84541 0.0
C286 C 0.81499 0.46726 0.96543 0.0
C287 C 0.85422 0.4135 0.88192 0.0
N288 N 0.72497 0.42382 0.94356 0.0
N289 N 0.91928 0.49113 0.87423 0.0
H290 H 0.8564 0.34989 0.8294 0.0
H291 H 0.91631 0.39439 0.83412 0.0
H292 H 0.93189 0.53048 0.88514 0.0
H293 H 0.92669 0.48147 0.83672 0.0
H294 H 0.70563 0.44782 0.96778 0.0
H295 H 0.69834 0.39954 0.9199 0.0
H296 H 0.75952 0.48366 0.02216 0.0
H297 H 0.81835 0.52913 0.02025 0.0
C298 C 0.62609 0.74917 0.41489 0.0
C299 C 0.67642 0.73297 0.40085 0.0
C300 C 0.66786 0.66312 0.46498 0.0
C301 C 0.61814 0.68015 0.47991 0.0
N302 N 0.54365 0.73035 0.46285 0.0
N303 N 0.73952 0.6678 0.40347 0.0
C304 C 0.59509 0.72021 0.45265 0.0
C305 C 0.69545 0.68767 0.42308 0.0
N306 N 0.60914 0.79348 0.39351 0.0
N307 N 0.68908 0.62401 0.49151 0.0
H308 H 0.76099 0.68511 0.37306 0.0
H309 H 0.75242 0.63185 0.4143 0.0
H310 H 0.66836 0.60242 0.52011 0.0
H311 H 0.72817 0.6143 0.48696 0.0
H312 H 0.57604 0.81121 0.40592 0.0
H313 H 0.63007 0.81437 0.3646 0.0
H314 H 0.52223 0.75499 0.44095 0.0
H315 H 0.52061 0.71086 0.49123 0.0
C316 C 0.13473 0.4289 0.21342 0.0
C317 C 0.17082 0.40499 0.18199 0.0
C318 C 0.12684 0.4381 0.10651 0.0
C319 C 0.09294 0.46505 0.138 0.0
N320 N 0.07207 0.49501 0.22146 0.0
N321 N 0.20883 0.39583 0.09944 0.0
C322 C 0.09892 0.46286 0.19155 0.0
C323 C 0.16923 0.41244 0.12879 0.0
N324 N 0.13416 0.41862 0.26412 0.0
N325 N 0.11679 0.43436 0.05547 0.0
H326 H 0.23964 0.37546 0.11393 0.0
H327 H 0.21366 0.40607 0.06155 0.0
H328 H 0.08567 0.45157 0.03753 0.0
H329 H 0.13628 0.41032 0.03136 0.0
H330 H 0.10492 0.43001 0.28829 0.0
H331 H 0.16076 0.39513 0.28142 0.0
H332 H 0.07874 0.49941 0.26036 0.0
H333 H 0.04675 0.52133 0.20672 0.0
C334 C 0.69597 0.16811 0.9279 0.0
C335 C 0.69045 0.22316 0.93371 0.0
C336 C 0.63117 0.20208 1.00545 0.0
C337 C 0.62741 0.14742 0.99241 0.0
N338 N 0.65449 0.07722 0.93974 0.0
N339 N 0.64462 0.29144 0.97369 0.0
C340 C 0.66001 0.1298 0.95373 0.0
C341 C 0.65657 0.24011 0.97192 0.0
N342 N 0.7355 0.15267 0.89788 0.0
N343 N 0.60955 0.2176 0.04959 0.0
H344 H 0.65848 0.3199 0.94734 0.0
H345 H 0.61593 0.30414 0.99778 0.0
H346 H 0.59104 0.19023 0.07518 0.0
H347 H 0.61526 0.2568 0.06313 0.0
H348 H 0.74457 0.11353 0.89568 0.0
H349 H 0.76264 0.18004 0.87901 0.0
H350 H 0.67311 0.06291 0.90828 0.0
H351 H 0.62863 0.04824 0.95798 0.0
C352 C 0.88004 0.83672 0.4087 0.0
C353 C 0.84135 0.86167 0.38048 0.0
C354 C 0.89548 0.94848 0.3938 0.0
C355 C 0.93145 0.92402 0.42577 0.0
N356 N 0.95021 0.84717 0.47368 0.0
N357 N 0.80627 0.94221 0.35427 0.0
C358 C 0.92149 0.86876 0.43616 0.0
C359 C 0.84722 0.91792 0.37548 0.0
N360 N 0.87832 0.78241 0.408 0.0
N361 N 0.90864 0.99994 0.37882 0.0
H362 H 0.77055 0.92095 0.34012 0.0
H363 H 0.80581 0.98339 0.35478 0.0
H364 H 0.94434 0.02311 0.39037 0.0
H365 H 0.88648 0.01813 0.35164 0.0
H366 H 0.90894 0.76257 0.42353 0.0
H367 H 0.849 0.75733 0.3878 0.0
H368 H 0.94081 0.80825 0.48621 0.0
H369 H 0.97973 0.86965 0.49602 0.0
C370 C 0.39028 0.6776 0.77315 0.0
C371 C 0.35681 0.71284 0.75045 0.0
C372 C 0.38463 0.68559 0.66667 0.0
C373 C 0.42638 0.65985 0.68939 0.0
N374 N 0.46448 0.62405 0.76446 0.0
N375 N 0.29391 0.70506 0.67953 0.0
C376 C 0.4274 0.65302 0.74279 0.0
C377 C 0.34534 0.70503 0.69787 0.0
N378 N 0.38256 0.66412 0.82264 0.0
N379 N 0.38263 0.69269 0.61557 0.0
H380 H 0.26121 0.70219 0.70391 0.0
H381 H 0.28303 0.69626 0.6418 0.0
H382 H 0.41055 0.67926 0.59103 0.0
H383 H 0.35523 0.71544 0.59845 0.0
H384 H 0.4021 0.63544 0.8411 0.0
H385 H 0.35165 0.67782 0.84351 0.0
H386 H 0.47196 0.62305 0.8033 0.0
H387 H 0.48927 0.60221 0.74323 0.0
C388 C 0.04667 0.98639 0.78345 0.0
C389 C 1.00252 0.94626 0.79007 0.0
C390 C 0.99143 0.9367 0.69784 0.0
C391 C 0.02602 0.9849 0.69242 0.0
N392 N 0.09109 0.05369 0.72805 0.0
N393 N 0.93448 0.87996 0.75399 0.0
C394 C 0.05604 0.00847 0.73459 0.0
C395 C 0.9763 0.91935 0.74729 0.0
N396 N 0.07863 1.00375 0.82427 0.0
N397 N 0.97209 0.90864 0.65557 0.0
H398 H 0.92315 0.86556 0.78956 0.0
H399 H 0.90943 0.86315 0.72464 0.0
H400 H 0.98277 0.92114 0.61918 0.0
H401 H 0.94997 0.871 0.65656 0.0
H402 H 0.11397 0.03009 0.82177 0.0
H403 H 0.07211 0.98773 0.86024 0.0
H404 H 0.11001 0.07655 0.75773 0.0
H405 H 0.09982 0.0693 0.69228 0.0
C406 C 0.55353 0.08885 0.3467 0.0
C407 C 0.59704 0.13062 0.35081 0.0
C408 C 0.59804 0.13918 0.25848 0.0
C409 C 0.55907 0.09353 0.2544 0.0
N410 N 0.48755 0.03595 0.29169 0.0
N411 N 0.64913 0.2059 0.31332 0.0
C412 C 0.53228 0.07254 0.29781 0.0
C413 C 0.61499 0.15964 0.30739 0.0
N414 N 0.53517 0.06272 0.38921 0.0
N415 N 0.62124 0.16039 0.21557 0.0
H416 H 0.66189 0.22116 0.34898 0.0
H417 H 0.66119 0.23122 0.28373 0.0
H418 H 0.60792 0.14697 0.17946 0.0
H419 H 0.65425 0.18986 0.2155 0.0
H420 H 0.50781 0.02817 0.38863 0.0
H421 H 0.54896 0.0748 0.4255 0.0
H422 H 0.46343 0.02109 0.32132 0.0
H423 H 0.47203 0.02412 0.25579 0.0
C424 C 0.55028 0.58304 0.31991 0.0
C425 C 0.51003 0.60801 0.29413 0.0
C426 C 0.47125 0.63179 0.37424 0.0
C427 C 0.50621 0.60003 0.39939 0.0
N428 N 0.58885 0.5596 0.40079 0.0
N429 N 0.4451 0.67104 0.2952 0.0
C430 C 0.54966 0.58101 0.3737 0.0
C431 C 0.47499 0.63782 0.32097 0.0
N432 N 0.58688 0.55898 0.29262 0.0
N433 N 0.43299 0.65366 0.4013 0.0
H434 H 0.44857 0.67647 0.2563 0.0
H435 H 0.42069 0.69635 0.31236 0.0
H436 H 0.43177 0.65171 0.44074 0.0
H437 H 0.40222 0.67271 0.38516 0.0
H438 H 0.61418 0.53534 0.30825 0.0
H439 H 0.58918 0.56217 0.25332 0.0
H440 H 0.62361 0.5478 0.38515 0.0
H441 H 0.58852 0.55736 0.44017 0.0
C442 C 0.03613 0.44887 0.81595 0.0
C443 C 0.03278 0.47968 0.77168 0.0
C444 C 0.02827 0.55993 0.82291 0.0
C445 C 0.03676 0.53023 0.86707 0.0
N446 N 0.05524 0.44841 0.90633 0.0
N447 N 0.03235 0.56484 0.73145 0.0
C448 C 0.04231 0.47511 0.86389 0.0
C449 C 0.03074 0.53534 0.77466 0.0
N450 N 0.03244 0.39452 0.81215 0.0
N451 N 0.01553 0.61095 0.8273 0.0
H452 H 0.03267 0.54789 0.69529 0.0
H453 H 0.03735 0.60635 0.73144 0.0
H454 H 0.01228 0.62998 0.86215 0.0
H455 H 1.0033 0.63274 0.79684 0.0
H456 H 0.02858 0.36941 0.84321 0.0
H457 H 0.02905 0.37409 0.7775 0.0
H458 H 0.06562 0.40972 0.90569 0.0
H459 H 0.05941 0.46626 0.94217 0.0
C460 C 0.7861 0.06296 1.00264 0.0
C461 C 0.79704 0.0154 0.97783 0.0
C462 C 0.71208 0.96871 0.00819 0.0
C463 C 0.70478 0.01403 0.03834 0.0
N464 N 0.73533 0.10353 0.06711 0.0
N465 N 0.77285 0.92206 0.95843 0.0
C466 C 0.7417 0.06119 0.03608 0.0
C467 C 0.76067 0.96799 0.98096 0.0
N468 N 0.81745 0.10998 0.99333 0.0
N469 N 0.67137 0.92731 1.00385 0.0
H470 H 0.80654 0.92062 0.9358 0.0
H471 H 0.75149 0.88475 0.96462 0.0
H472 H 0.63456 0.927 0.0222 0.0
H473 H 0.67175 0.89562 0.97844 0.0
H474 H 0.80796 0.14698 1.00551 0.0
H475 H 0.85092 0.11253 0.96986 0.0
H476 H 0.76392 0.13696 0.07131 0.0
H477 H 0.70271 0.10389 0.09129 0.0
C478 C 0.76481 0.04057 0.47126 0.0
C479 C 0.76259 0.08959 0.44598 0.0
C480 C 0.86164 0.10347 0.44341 0.0
C481 C 0.86342 0.061 0.47769 0.0
N482 N 0.81957 0.98422 0.51942 0.0
N483 N 0.8078 0.16626 0.404 0.0
C484 C 0.81579 0.02728 0.48928 0.0
C485 C 0.81077 0.11996 0.42972 0.0
N486 N 0.71802 0.00753 0.47835 0.0
N487 N 0.90895 0.12835 0.42494 0.0
H488 H 0.7712 0.1786 0.39201 0.0
H489 H 0.84118 0.19364 0.39622 0.0
H490 H 0.94654 0.1167 0.43485 0.0
H491 H 0.91094 0.15692 0.39672 0.0
H492 H 0.71651 0.9696 0.49362 0.0
H493 H 0.6805 0.0168 0.46528 0.0
H494 H 0.78647 0.96047 0.53388 0.0
H495 H 0.85688 0.97283 0.5307 0.0
C496 C 0.28335 0.55675 0.0714 0.0
C497 C 0.29649 0.57994 0.1197 0.0
C498 C 0.20139 0.58947 0.13436 0.0
C499 C 0.18993 0.57362 0.08345 0.0
N500 N 0.21264 0.52521 0.00984 0.0
N501 N 0.26848 0.60254 0.20292 0.0
C502 C 0.2286 0.55097 0.05428 0.0
C503 C 0.25526 0.59034 0.15342 0.0
N504 N 0.32373 0.54386 0.04093 0.0
N505 N 0.16159 0.60675 0.16293 0.0
H506 H 0.30799 0.60346 0.2171 0.0
H507 H 0.24034 0.60774 0.23061 0.0
H508 H 0.12157 0.60466 0.14989 0.0
H509 H 0.16795 0.62387 0.19881 0.0
H510 H 0.31796 0.53247 1.00308 0.0
H511 H 0.36392 0.5461 0.05349 0.0
H512 H 0.23767 0.50431 0.98812 0.0
H513 H 0.17241 0.52101 0.99701 0.0
C514 C 0.229 0.54195 0.59704 0.0
C515 C 0.22167 0.50082 0.63317 0.0
C516 C 0.31749 0.51708 0.65766 0.0
C517 C 0.32649 0.547 0.6131 0.0
N518 N 0.29317 0.59941 0.54727 0.0
N519 N 0.25504 0.45501 0.70432 0.0
C520 C 0.28257 0.56441 0.58591 0.0
C521 C 0.2646 0.4913 0.66656 0.0
N522 N 0.18492 0.55738 0.57231 0.0
N523 N 0.36004 0.51178 0.68973 0.0
H524 H 0.21614 0.43723 0.71238 0.0
H525 H 0.28519 0.44169 0.72692 0.0
H526 H 0.39882 0.53065 0.68312 0.0
H527 H 0.35637 0.49281 0.72449 0.0
H528 H 0.18665 0.58838 0.54658 0.0
H529 H 0.14555 0.54087 0.5802 0.0
H530 H 0.26404 0.61125 0.52257 0.0
H531 H 0.33254 0.61664 0.54007 0.0
C532 C 0.92791 0.7978 0.93922 0.0
C533 C 0.95893 0.84708 0.95182 0.0
C534 C 0.00813 0.80251 0.01703 0.0
C535 C 0.98508 0.75254 0.99719 0.0
N536 N 0.9229 0.70137 0.93913 0.0
N537 N 0.02755 0.89786 1.00382 0.0
C538 C 0.94383 0.74977 0.95909 0.0
C539 C 0.99807 0.85008 0.99184 0.0
N540 N 0.88355 0.79709 0.90789 0.0
N541 N 0.04019 0.80392 0.05961 0.0
H542 H 0.02041 0.93353 0.98686 0.0
H543 H 0.06078 0.90193 0.02862 0.0
H544 H 0.04738 0.76918 0.07837 0.0
H545 H 0.05532 0.8389 0.07876 0.0
H546 H 0.85622 0.76316 0.90089 0.0
H547 H 0.87134 0.83172 0.89252 0.0
H548 H 0.89804 0.69691 0.90689 0.0
H549 H 0.93266 0.66531 0.95335 0.0
C550 C 0.4563 0.76114 0.07681 0.0
C551 C 0.42946 0.74318 0.12144 0.0
C552 C 0.43881 0.83434 0.15509 0.0
C553 C 0.47445 0.85006 0.11536 0.0
N554 N 0.51722 0.83028 0.03738 0.0
N555 N 0.39304 0.76151 0.2029 0.0
C556 C 0.48238 0.81431 0.07524 0.0
C557 C 0.4193 0.77962 0.16025 0.0
N558 N 0.45682 0.72722 0.03627 0.0
N559 N 0.42343 0.87208 0.18743 0.0
H560 H 0.37602 0.72203 0.20702 0.0
H561 H 0.39043 0.7848 0.23526 0.0
H562 H 0.43676 0.91264 0.18388 0.0
H563 H 0.39383 0.8641 0.21457 0.0
H564 H 0.47112 0.73915 1.00088 0.0
H565 H 0.43849 0.68785 0.03684 0.0
H566 H 0.52946 0.80453 0.01007 0.0
H567 H 0.53626 0.86919 0.03465 0.0
C568 C 0.10961 0.30923 0.52387 0.0
C569 C 0.13875 0.32204 0.56979 0.0
C570 C 0.14726 0.22774 0.5827 0.0
C571 C 0.107 0.21509 0.54483 0.0
N572 N 0.05651 0.24039 0.47271 0.0
N573 N 0.19122 0.29505 0.64062 0.0
C574 C 0.09135 0.25484 0.51232 0.0
C575 C 0.16094 0.28183 0.59769 0.0
N576 N 0.09833 0.34942 0.49271 0.0
N577 N 0.1706 0.18749 0.60514 0.0
H578 H 0.20303 0.33438 0.65205 0.0
H579 H 0.20311 0.26724 0.66598 0.0
H580 H 0.16023 0.14766 0.59423 0.0
H581 H 0.20306 0.1936 0.63075 0.0
H582 H 0.0795 0.34337 0.45732 0.0
H583 H 0.11185 0.38932 0.50114 0.0
H584 H 0.03897 0.26726 0.45001 0.0
H585 H 0.04462 0.20047 0.46305 0.0
C586 C 0.60128 0.33493 0.49908 0.0
C587 C 0.59032 0.29433 0.53536 0.0
C588 C 0.53998 0.35308 0.58623 0.0
C589 C 0.54507 0.39079 0.54683 0.0
N590 N 0.58065 0.41969 0.46605 0.0
N591 N 0.54918 0.26284 0.61312 0.0
C592 C 0.57616 0.38244 0.50348 0.0
C593 C 0.56 0.30302 0.57912 0.0
N594 N 0.63661 0.3284 0.46105 0.0
N595 N 0.51659 0.36558 0.6305 0.0
H596 H 0.56424 0.2262 0.60969 0.0
H597 H 0.52284 0.26432 0.6431 0.0
H598 H 0.50133 0.40181 0.63629 0.0
H599 H 0.51629 0.34243 0.66287 0.0
H600 H 0.65102 0.35846 0.4364 0.0
H601 H 0.65467 0.29358 0.45606 0.0
H602 H 0.59671 0.41355 0.43068 0.0
H603 H 0.56622 0.45662 0.46959 0.0
loop_
_geom_bond_atom_site_label_1
_geom_bond_atom_site_label_2
_geom_bond_distance
_geom_bond_site_symmetry_2
_ccdc_geom_bond_type
H0 C3 0.929 . S
H1 C6 0.929 . S
H2 C8 0.930 . S
C3 H0 0.929 . S
C3 C4 1.398 . S
C3 C5 1.396 . S
C4 C3 1.398 . S
C4 C8 1.407 . S
C5 C3 1.396 . S
C5 C6 1.394 . S
C6 H1 0.929 . S
C6 C5 1.394 . S
C6 C7 1.382 . S
C7 C6 1.382 . S
C7 C8 1.392 . S
C7 N9 1.420 . S
C8 H2 0.930 . S
C8 C4 1.407 . S
C8 C7 1.392 . S
N9 C7 1.420 . S
N9 C10 1.244 . S
C10 N9 1.244 . S
H11 C14 0.929 . S
H12 C17 0.929 . S
H13 C19 0.930 . S
C14 H11 0.929 . S
C14 C15 1.398 . S
C14 C16 1.396 . S
C15 C14 1.398 . S
C15 C19 1.407 . S
C16 C14 1.396 . S
C16 C17 1.394 . S
C17 H12 0.929 . S
C17 C16 1.394 . S
C17 C18 1.382 . S
C18 C17 1.382 . S
C18 C19 1.392 . S
C18 N20 1.420 . S
C19 H13 0.930 . S
C19 C15 1.407 . S
C19 C18 1.392 . S
N20 C18 1.420 . S
N20 C21 1.244 . S
C21 N20 1.244 . S
H22 C25 0.929 . S
H23 C28 0.929 . S
H24 C30 0.930 . S
C25 H22 0.929 . S
C25 C26 1.398 . S
C25 C27 1.396 . S
C26 C25 1.398 . S
C26 C30 1.407 . S
C27 C25 1.396 . S
C27 C28 1.394 . S
C28 H23 0.929 . S
C28 C27 1.394 . S
C28 C29 1.382 . S
C29 C28 1.382 . S
C29 C30 1.392 . S
C29 N31 1.420 . S
C30 H24 0.930 . S
C30 C26 1.407 . S
C30 C29 1.392 . S
N31 C29 1.420 . S
N31 C32 1.244 . S
C32 N31 1.244 . S
H33 C36 0.929 . S
H34 C39 0.929 . S
H35 C41 0.930 . S
C36 H33 0.929 . S
C36 C37 1.398 . S
C36 C38 1.396 . S
C37 C36 1.398 . S
C37 C41 1.407 . S
C38 C36 1.396 . S
C38 C39 1.394 . S
C39 H34 0.929 . S
C39 C38 1.394 . S
C39 C40 1.382 . S
C40 C39 1.382 . S
C40 C41 1.392 . S
C40 N42 1.420 . S
C41 H35 0.930 . S
C41 C37 1.407 . S
C41 C40 1.392 . S
N42 C40 1.420 . S
N42 C43 1.244 . S
C43 N42 1.244 . S
H44 C47 0.944 . S
H45 C50 0.929 1_554 S
H46 C52 0.930 . S
C47 H44 0.944 . S
C47 C48 1.390 1_455 S
C47 C49 1.390 1_455 S
C48 C47 1.390 1_655 S
C48 C52 1.407 1_565 S
C49 C47 1.390 1_655 S
C49 C50 1.394 . S
C50 H45 0.929 1_556 S
C50 C49 1.394 . S
C50 C51 1.382 . S
C51 C50 1.382 . S
C51 C52 1.392 1_565 S
C51 N53 1.420 1_565 S
C52 H46 0.930 . S
C52 C48 1.407 1_545 S
C52 C51 1.392 1_545 S
N53 C51 1.420 1_545 S
N53 C54 1.244 1_546 S
C54 N53 1.244 1_564 S
H55 C58 0.929 . S
H56 C61 0.929 . S
H57 C63 0.930 . S
C58 H55 0.929 . S
C58 C59 1.398 . S
C58 C60 1.396 . S
C59 C58 1.398 . S
C59 C63 1.407 . S
C60 C58 1.396 . S
C60 C61 1.394 . S
C61 H56 0.929 . S
C61 C60 1.394 . S
C61 C62 1.382 . S
C62 C61 1.382 . S
C62 C63 1.392 . S
C62 N64 1.420 . S
C63 H57 0.930 . S
C63 C59 1.407 . S
C63 C62 1.392 . S
N64 C62 1.420 . S
N64 C65 1.244 . S
C65 N64 1.244 . S
H66 C69 0.929 . S
H67 C72 0.929 . S
H68 C74 0.930 . S
C69 H66 0.929 . S
C69 C70 1.398 . S
C69 C71 1.396 . S
C70 C69 1.398 . S
C70 C74 1.407 . S
C71 C69 1.396 . S
C71 C72 1.394 . S
C72 H67 0.929 . S
C72 C71 1.394 . S
C72 C73 1.382 . S
C73 C72 1.382 . S
C73 C74 1.392 . S
C73 N75 1.420 . S
C74 H68 0.930 . S
C74 C70 1.407 . S
C74 C73 1.392 . S
N75 C73 1.420 . S
N75 C76 1.244 . S
C76 N75 1.244 . S
H77 C80 0.929 . S
H78 C83 0.929 . S
H79 C85 0.930 . S
C80 H77 0.929 . S
C80 C81 1.398 . S
C80 C82 1.396 . S
C81 C80 1.398 . S
C81 C85 1.407 . S
C82 C80 1.396 . S
C82 C83 1.394 . S
C83 H78 0.929 . S
C83 C82 1.394 . S
C83 C84 1.382 . S
C84 C83 1.382 . S
C84 C85 1.392 . S
C84 N86 1.420 . S
C85 H79 0.930 . S
C85 C81 1.407 . S
C85 C84 1.392 . S
N86 C84 1.420 . S
N86 C87 1.244 . S
C87 N86 1.244 . S
Zn88 O94 1.920 . S
Zn88 O100 1.898 . S
Zn88 O103 1.905 . S
Zn89 O97 1.905 1_565 S
Zn89 O98 1.898 . S
Zn89 O106 1.920 . S
Zn90 O93 2.080 1_455 S
Zn90 O96 2.114 . S
Zn90 O99 2.120 1_445 S
Zn90 O101 2.120 . S
Zn90 O102 2.114 1_455 S
Zn90 O105 2.080 . S
C91 O96 1.166 . S
C91 O97 1.182 . S
C92 O98 1.167 1_655 S
C92 O99 1.299 . S
O93 Zn90 2.080 1_655 S
O93 C107 1.305 . S
O94 Zn88 1.920 . S
O94 C107 1.234 . S
C95 O100 1.167 1_455 S
C95 O101 1.299 . S
O96 Zn90 2.114 . S
O96 C91 1.166 . S
O97 Zn89 1.905 1_545 S
O97 C91 1.182 . S
O98 Zn89 1.898 . S
O98 C92 1.167 1_455 S
O99 Zn90 2.120 1_665 S
O99 C92 1.299 . S
O100 Zn88 1.898 . S
O100 C95 1.167 1_655 S
O101 Zn90 2.120 . S
O101 C95 1.299 . S
O102 Zn90 2.114 1_655 S
O102 C104 1.166 . S
O103 Zn88 1.905 . S
O103 C104 1.182 . S
C104 O102 1.166 . S
C104 O103 1.182 . S
O105 Zn90 2.080 . S
O105 C108 1.305 1_545 S
O106 Zn89 1.920 . S
O106 C108 1.234 . S
C107 O93 1.305 . S
C107 O94 1.234 . S
C108 O105 1.305 1_565 S
C108 O106 1.234 . S
Zn109 O115 1.920 1_556 S
Zn109 O121 1.898 . S
Zn109 O124 1.905 . S
Zn110 O118 1.905 . S
Zn110 O119 1.898 . S
Zn110 O127 1.920 . S
Zn111 O114 2.080 . S
Zn111 O117 2.114 1_545 S
Zn111 O120 2.120 1_545 S
Zn111 O122 2.120 . S
Zn111 O123 2.114 1_544 S
Zn111 O126 2.080 . S
C112 O117 1.166 . S
C112 O118 1.182 . S
C113 O119 1.167 . S
C113 O120 1.299 . S
O114 Zn111 2.080 . S
O114 C128 1.305 . S
O115 Zn109 1.920 1_554 S
O115 C128 1.234 . S
C116 O121 1.167 1_554 S
C116 O122 1.299 . S
O117 Zn111 2.114 1_565 S
O117 C112 1.166 . S
O118 Zn110 1.905 . S
O118 C112 1.182 . S
O119 Zn110 1.898 . S
O119 C113 1.167 . S
O120 Zn111 2.120 1_565 S
O120 C113 1.299 . S
O121 Zn109 1.898 . S
O121 C116 1.167 1_556 S
O122 Zn111 2.120 . S
O122 C116 1.299 . S
O123 Zn111 2.114 1_566 S
O123 C125 1.166 . S
O124 Zn109 1.905 . S
O124 C125 1.182 1_545 S
C125 O123 1.166 . S
C125 O124 1.182 1_565 S
O126 Zn111 2.080 . S
O126 C129 1.305 . S
O127 Zn110 1.920 . S
O127 C129 1.234 1_565 S
C128 O114 1.305 . S
C128 O115 1.234 . S
C129 O126 1.305 . S
C129 O127 1.234 1_545 S
Zn130 O136 1.920 . S
Zn130 O142 1.898 . S
Zn130 O145 1.905 . S
Zn131 O139 1.905 . S
Zn131 O140 1.898 . S
Zn131 O148 1.920 . S
Zn132 O135 2.080 . S
Zn132 O138 2.114 . S
Zn132 O141 2.120 . S
Zn132 O143 2.120 . S
Zn132 O144 2.114 . S
Zn132 O147 2.080 . S
C133 O138 1.166 . S
C133 O139 1.182 . S
C134 O140 1.167 . S
C134 O141 1.299 . S
O135 Zn132 2.080 . S
O135 C149 1.305 . S
O136 Zn130 1.920 . S
O136 C149 1.234 . S
C137 O142 1.167 . S
C137 O143 1.299 . S
O138 Zn132 2.114 . S
O138 C133 1.166 . S
O139 Zn131 1.905 . S
O139 C133 1.182 . S
O140 Zn131 1.898 . S
O140 C134 1.167 . S
O141 Zn132 2.120 . S
O141 C134 1.299 . S
O142 Zn130 1.898 . S
O142 C137 1.167 . S
O143 Zn132 2.120 . S
O143 C137 1.299 . S
O144 Zn132 2.114 . S
O144 C146 1.166 . S
O145 Zn130 1.905 . S
O145 C146 1.182 . S
C146 O144 1.166 . S
C146 O145 1.182 . S
O147 Zn132 2.080 . S
O147 C150 1.305 . S
O148 Zn131 1.920 . S
O148 C150 1.234 . S
C149 O135 1.305 . S
C149 O136 1.234 . S
C150 O147 1.305 . S
C150 O148 1.234 . S
Zn151 O157 1.920 . S
Zn151 O163 1.898 . S
Zn151 O166 1.905 . S
Zn152 O160 1.905 1_655 S
Zn152 O161 1.898 . S
Zn152 O169 1.920 . S
Zn153 O156 2.080 1_554 S
Zn153 O159 2.114 . S
Zn153 O162 2.120 1_454 S
Zn153 O164 2.120 . S
Zn153 O165 2.114 1_554 S
Zn153 O168 2.080 . S
C154 O159 1.166 . S
C154 O160 1.182 . S
C155 O161 1.167 1_556 S
C155 O162 1.299 . S
O156 Zn153 2.080 1_556 S
O156 C170 1.305 . S
O157 Zn151 1.920 . S
O157 C170 1.234 . S
C158 O163 1.167 1_554 S
C158 O164 1.299 . S
O159 Zn153 2.114 . S
O159 C154 1.166 . S
O160 Zn152 1.905 1_455 S
O160 C154 1.182 . S
O161 Zn152 1.898 . S
O161 C155 1.167 1_554 S
O162 Zn153 2.120 1_656 S
O162 C155 1.299 . S
O163 Zn151 1.898 . S
O163 C158 1.167 1_556 S
O164 Zn153 2.120 . S
O164 C158 1.299 . S
O165 Zn153 2.114 1_556 S
O165 C167 1.166 . S
O166 Zn151 1.905 . S
O166 C167 1.182 . S
C167 O165 1.166 . S
C167 O166 1.182 . S
O168 Zn153 2.080 . S
O168 C171 1.305 1_455 S
O169 Zn152 1.920 . S
O169 C171 1.234 . S
C170 O156 1.305 . S
C170 O157 1.234 . S
C171 O168 1.305 1_655 S
C171 O169 1.234 . S
C172 C173 1.363 . S
C172 C178 1.379 . S
C172 N180 1.356 . S
C173 C172 1.363 . S
C173 C179 1.363 . S
C174 C175 1.363 . S
C174 C179 1.379 . S
C174 N181 1.356 . S
C175 C174 1.363 . S
C175 C178 1.363 . S
N176 C178 1.356 . S
N176 H188 0.984 . S
N176 H189 0.985 . S
N177 C179 1.356 . S
N177 H182 0.984 . S
N177 H183 0.985 . S
C178 C172 1.379 . S
C178 C175 1.363 . S
C178 N176 1.356 . S
C179 C173 1.363 . S
C179 C174 1.379 . S
C179 N177 1.356 . S
N180 C172 1.356 . S
N180 H186 0.984 . S
N180 H187 0.984 . S
N181 C174 1.356 . S
N181 H184 0.984 . S
N181 H185 0.985 1_455 S
H182 N177 0.984 . S
H183 N177 0.985 . S
H184 N181 0.984 . S
H185 N181 0.985 1_655 S
H186 N180 0.984 . S
H187 N180 0.984 . S
H188 N176 0.984 . S
H189 N176 0.985 . S
C190 C191 1.363 . S
C190 C196 1.379 . S
C190 N198 1.356 . S
C191 C190 1.363 . S
C191 C197 1.363 . S
C192 C193 1.363 . S
C192 C197 1.379 . S
C192 N199 1.356 1_565 S
C193 C192 1.363 . S
C193 C196 1.363 . S
N194 C196 1.356 . S
N194 H206 0.984 . S
N194 H207 0.985 . S
N195 C197 1.356 . S
N195 H200 0.984 . S
N195 H201 0.985 1_565 S
C196 C190 1.379 . S
C196 C193 1.363 . S
C196 N194 1.356 . S
C197 C191 1.363 . S
C197 C192 1.379 . S
C197 N195 1.356 . S
N198 C190 1.356 . S
N198 H204 0.984 . S
N198 H205 0.984 . S
N199 C192 1.356 1_545 S
N199 H202 0.984 . S
N199 H203 0.985 . S
H200 N195 0.984 . S
H201 N195 0.985 1_545 S
H202 N199 0.984 . S
H203 N199 0.985 . S
H204 N198 0.984 . S
H205 N198 0.984 . S
H206 N194 0.984 . S
H207 N194 0.985 . S
C208 C209 1.363 . S
C208 C214 1.379 . S
C208 N216 1.356 . S
C209 C208 1.363 . S
C209 C215 1.363 . S
C210 C211 1.363 . S
C210 C215 1.379 . S
C210 N217 1.356 . S
C211 C210 1.363 . S
C211 C214 1.363 . S
N212 C214 1.356 . S
N212 H224 0.984 . S
N212 H225 0.985 . S
N213 C215 1.356 . S
N213 H218 0.984 . S
N213 H219 0.985 . S
C214 C208 1.379 . S
C214 C211 1.363 . S
C214 N212 1.356 . S
C215 C209 1.363 . S
C215 C210 1.379 . S
C215 N213 1.356 . S
N216 C208 1.356 . S
N216 H222 0.984 . S
N216 H223 0.984 . S
N217 C210 1.356 . S
N217 H220 0.984 . S
N217 H221 0.985 . S
H218 N213 0.984 . S
H219 N213 0.985 . S
H220 N217 0.984 . S
H221 N217 0.985 . S
H222 N216 0.984 . S
H223 N216 0.984 . S
H224 N212 0.984 . S
H225 N212 0.985 . S
C226 C227 1.363 . S
C226 C232 1.379 . S
C226 N234 1.356 . S
C227 C226 1.363 . S
C227 C233 1.363 . S
C228 C229 1.363 . S
C228 C233 1.379 . S
C228 N235 1.356 1_655 S
C229 C228 1.363 . S
C229 C232 1.363 . S
N230 C232 1.356 . S
N230 H242 0.984 . S
N230 H243 0.985 . S
N231 C233 1.356 . S
N231 H236 0.984 . S
N231 H237 0.985 . S
C232 C226 1.379 . S
C232 C229 1.363 . S
C232 N230 1.356 . S
C233 C227 1.363 . S
C233 C228 1.379 . S
C233 N231 1.356 . S
N234 C226 1.356 . S
N234 H240 0.984 . S
N234 H241 0.984 . S
N235 C228 1.356 1_455 S
N235 H238 0.984 . S
N235 H239 0.985 . S
H236 N231 0.984 . S
H237 N231 0.985 . S
H238 N235 0.984 . S
H239 N235 0.985 . S
H240 N234 0.984 . S
H241 N234 0.984 . S
H242 N230 0.984 . S
H243 N230 0.985 . S
C244 C245 1.363 . S
C244 C250 1.379 . S
C244 N252 1.356 . S
C245 C244 1.363 . S
C245 C251 1.363 . S
C246 C247 1.363 . S
C246 C251 1.379 . S
C246 N253 1.356 . S
C247 C246 1.363 . S
C247 C250 1.363 . S
N248 C250 1.356 . S
N248 H260 0.984 . S
N248 H261 0.985 . S
N249 C251 1.356 . S
N249 H254 0.984 . S
N249 H255 0.985 . S
C250 C244 1.379 . S
C250 C247 1.363 . S
C250 N248 1.356 . S
C251 C245 1.363 . S
C251 C246 1.379 . S
C251 N249 1.356 . S
N252 C244 1.356 . S
N252 H258 0.984 . S
N252 H259 0.984 . S
N253 C246 1.356 . S
N253 H256 0.984 . S
N253 H257 0.985 . S
H254 N249 0.984 . S
H255 N249 0.985 . S
H256 N253 0.984 . S
H257 N253 0.985 . S
H258 N252 0.984 . S
H259 N252 0.984 . S
H260 N248 0.984 . S
H261 N248 0.985 . S
C262 C263 1.363 . S
C262 C268 1.379 . S
C262 N270 1.356 . S
C263 C262 1.363 . S
C263 C269 1.363 . S
C264 C265 1.363 . S
C264 C269 1.379 . S
C264 N271 1.356 1_565 S
C265 C264 1.363 . S
C265 C268 1.363 . S
N266 C268 1.356 . S
N266 H278 0.984 . S
N266 H279 0.985 . S
N267 C269 1.356 . S
N267 H272 0.984 . S
N267 H273 0.985 1_565 S
C268 C262 1.379 . S
C268 C265 1.363 . S
C268 N266 1.356 . S
C269 C263 1.363 . S
C269 C264 1.379 . S
C269 N267 1.356 . S
N270 C262 1.356 . S
N270 H276 0.984 . S
N270 H277 0.984 . S
N271 C264 1.356 1_545 S
N271 H274 0.984 . S
N271 H275 0.985 . S
H272 N267 0.984 . S
H273 N267 0.985 1_545 S
H274 N271 0.984 . S
H275 N271 0.985 . S
H276 N270 0.984 . S
H277 N270 0.984 . S
H278 N266 0.984 . S
H279 N266 0.985 . S
C280 C281 1.363 . S
C280 C286 1.379 . S
C280 N288 1.356 . S
C281 C280 1.363 . S
C281 C287 1.363 . S
C282 C283 1.363 . S
C282 C287 1.379 . S
C282 N289 1.356 . S
C283 C282 1.363 . S
C283 C286 1.363 . S
N284 C286 1.356 1_554 S
N284 H296 0.984 . S
N284 H297 0.985 . S
N285 C287 1.356 . S
N285 H290 0.984 . S
N285 H291 0.985 . S
C286 C280 1.379 . S
C286 C283 1.363 . S
C286 N284 1.356 1_556 S
C287 C281 1.363 . S
C287 C282 1.379 . S
C287 N285 1.356 . S
N288 C280 1.356 . S
N288 H294 0.984 1_556 S
N288 H295 0.984 . S
N289 C282 1.356 . S
N289 H292 0.984 . S
N289 H293 0.985 . S
H290 N285 0.984 . S
H291 N285 0.985 . S
H292 N289 0.984 . S
H293 N289 0.985 . S
H294 N288 0.984 1_554 S
H295 N288 0.984 . S
H296 N284 0.984 . S
H297 N284 0.985 . S
C298 C299 1.363 . S
C298 C304 1.379 . S
C298 N306 1.356 . S
C299 C298 1.363 . S
C299 C305 1.363 . S
C300 C301 1.363 . S
C300 C305 1.379 . S
C300 N307 1.356 . S
C301 C300 1.363 . S
C301 C304 1.363 . S
N302 C304 1.356 . S
N302 H314 0.984 . S
N302 H315 0.985 . S
N303 C305 1.356 . S
N303 H308 0.984 . S
N303 H309 0.985 . S
C304 C298 1.379 . S
C304 C301 1.363 . S
C304 N302 1.356 . S
C305 C299 1.363 . S
C305 C300 1.379 . S
C305 N303 1.356 . S
N306 C298 1.356 . S
N306 H312 0.984 . S
N306 H313 0.984 . S
N307 C300 1.356 . S
N307 H310 0.984 . S
N307 H311 0.985 . S
H308 N303 0.984 . S
H309 N303 0.985 . S
H310 N307 0.984 . S
H311 N307 0.985 . S
H312 N306 0.984 . S
H313 N306 0.984 . S
H314 N302 0.984 . S
H315 N302 0.985 . S
C316 C317 1.363 . S
C316 C322 1.379 . S
C316 N324 1.356 . S
C317 C316 1.363 . S
C317 C323 1.363 . S
C318 C319 1.363 . S
C318 C323 1.379 . S
C318 N325 1.356 . S
C319 C318 1.363 . S
C319 C322 1.363 . S
N320 C322 1.356 . S
N320 H332 0.984 . S
N320 H333 0.985 . S
N321 C323 1.356 . S
N321 H326 0.984 . S
N321 H327 0.985 . S
C322 C316 1.379 . S
C322 C319 1.363 . S
C322 N320 1.356 . S
C323 C317 1.363 . S
C323 C318 1.379 . S
C323 N321 1.356 . S
N324 C316 1.356 . S
N324 H330 0.984 . S
N324 H331 0.984 . S
N325 C318 1.356 . S
N325 H328 0.984 . S
N325 H329 0.985 1_554 S
H326 N321 0.984 . S
H327 N321 0.985 . S
H328 N325 0.984 . S
H329 N325 0.985 1_556 S
H330 N324 0.984 . S
H331 N324 0.984 . S
H332 N320 0.984 . S
H333 N320 0.985 . S
C334 C335 1.363 . S
C334 C340 1.379 . S
C334 N342 1.356 . S
C335 C334 1.363 . S
C335 C341 1.363 . S
C336 C337 1.363 1_554 S
C336 C341 1.379 1_554 S
C336 N343 1.356 . S
C337 C336 1.363 1_556 S
C337 C340 1.363 . S
N338 C340 1.356 . S
N338 H350 0.984 . S
N338 H351 0.985 . S
N339 C341 1.356 1_554 S
N339 H344 0.984 1_554 S
N339 H345 0.985 . S
C340 C334 1.379 . S
C340 C337 1.363 . S
C340 N338 1.356 . S
C341 C335 1.363 . S
C341 C336 1.379 1_556 S
C341 N339 1.356 1_556 S
N342 C334 1.356 . S
N342 H348 0.984 . S
N342 H349 0.984 . S
N343 C336 1.356 . S
N343 H346 0.984 . S
N343 H347 0.985 . S
H344 N339 0.984 1_556 S
H345 N339 0.985 . S
H346 N343 0.984 . S
H347 N343 0.985 . S
H348 N342 0.984 . S
H349 N342 0.984 . S
H350 N338 0.984 . S
H351 N338 0.985 . S
C352 C353 1.363 . S
C352 C358 1.379 . S
C352 N360 1.356 . S
C353 C352 1.363 . S
C353 C359 1.363 . S
C354 C355 1.363 . S
C354 C359 1.379 . S
C354 N361 1.356 . S
C355 C354 1.363 . S
C355 C358 1.363 . S
N356 C358 1.356 . S
N356 H368 0.984 . S
N356 H369 0.985 . S
N357 C359 1.356 . S
N357 H362 0.984 . S
N357 H363 0.985 . S
C358 C352 1.379 . S
C358 C355 1.363 . S
C358 N356 1.356 . S
C359 C353 1.363 . S
C359 C354 1.379 . S
C359 N357 1.356 . S
N360 C352 1.356 . S
N360 H366 0.984 . S
N360 H367 0.984 . S
N361 C354 1.356 . S
N361 H364 0.984 . S
N361 H365 0.985 1_655 S
H362 N357 0.984 . S
H363 N357 0.985 . S
H364 N361 0.984 . S
H365 N361 0.985 1_455 S
H366 N360 0.984 . S
H367 N360 0.984 . S
H368 N356 0.984 . S
H369 N356 0.985 . S
C370 C371 1.363 . S
C370 C376 1.379 . S
C370 N378 1.356 . S
C371 C370 1.363 . S
C371 C377 1.363 . S
C372 C373 1.363 . S
C372 C377 1.379 . S
C372 N379 1.356 . S
C373 C372 1.363 . S
C373 C376 1.363 . S
N374 C376 1.356 . S
N374 H386 0.984 . S
N374 H387 0.985 . S
N375 C377 1.356 . S
N375 H380 0.984 . S
N375 H381 0.985 . S
C376 C370 1.379 . S
C376 C373 1.363 . S
C376 N374 1.356 . S
C377 C371 1.363 . S
C377 C372 1.379 . S
C377 N375 1.356 . S
N378 C370 1.356 . S
N378 H384 0.984 . S
N378 H385 0.984 . S
N379 C372 1.356 . S
N379 H382 0.984 . S
N379 H383 0.985 . S
H380 N375 0.984 . S
H381 N375 0.985 . S
H382 N379 0.984 . S
H383 N379 0.985 . S
H384 N378 0.984 . S
H385 N378 0.984 . S
H386 N374 0.984 . S
H387 N374 0.985 . S
C388 C389 1.363 1_545 S
C388 C394 1.379 . S
C388 N396 1.356 . S
C389 C388 1.363 1_565 S
C389 C395 1.363 1_655 S
C390 C391 1.363 1_465 S
C390 C395 1.379 . S
C390 N397 1.356 . S
C391 C390 1.363 1_645 S
C391 C394 1.363 . S
N392 C394 1.356 . S
N392 H404 0.984 . S
N392 H405 0.985 . S
N393 C395 1.356 . S
N393 H398 0.984 . S
N393 H399 0.985 . S
C394 C388 1.379 . S
C394 C391 1.363 . S
C394 N392 1.356 . S
C395 C389 1.363 1_455 S
C395 C390 1.379 . S
C395 N393 1.356 . S
N396 C388 1.356 . S
N396 H402 0.984 . S
N396 H403 0.984 . S
N397 C390 1.356 . S
N397 H400 0.984 . S
N397 H401 0.985 . S
H398 N393 0.984 . S
H399 N393 0.985 . S
H400 N397 0.984 . S
H401 N397 0.985 . S
H402 N396 0.984 . S
H403 N396 0.984 . S
H404 N392 0.984 . S
H405 N392 0.985 . S
C406 C407 1.363 . S
C406 C412 1.379 . S
C406 N414 1.356 1_545 S
C407 C406 1.363 . S
C407 C413 1.363 . S
C408 C409 1.363 . S
C408 C413 1.379 . S
C408 N415 1.356 . S
C409 C408 1.363 . S
C409 C412 1.363 . S
N410 C412 1.356 1_565 S
N410 H422 0.984 . S
N410 H423 0.985 . S
N411 C413 1.356 . S
N411 H416 0.984 . S
N411 H417 0.985 . S
C412 C406 1.379 . S
C412 C409 1.363 . S
C412 N410 1.356 1_545 S
C413 C407 1.363 . S
C413 C408 1.379 . S
C413 N411 1.356 . S
N414 C406 1.356 1_565 S
N414 H420 0.984 . S
N414 H421 0.984 1_565 S
N415 C408 1.356 . S
N415 H418 0.984 . S
N415 H419 0.985 . S
H416 N411 0.984 . S
H417 N411 0.985 . S
H418 N415 0.984 . S
H419 N415 0.985 . S
H420 N414 0.984 . S
H421 N414 0.984 1_545 S
H422 N410 0.984 . S
H423 N410 0.985 . S
C424 C425 1.363 . S
C424 C430 1.379 . S
C424 N432 1.356 . S
C425 C424 1.363 . S
C425 C431 1.363 . S
C426 C427 1.363 . S
C426 C431 1.379 . S
C426 N433 1.356 . S
C427 C426 1.363 . S
C427 C430 1.363 . S
N428 C430 1.356 . S
N428 H440 0.984 . S
N428 H441 0.985 . S
N429 C431 1.356 . S
N429 H434 0.984 . S
N429 H435 0.985 . S
C430 C424 1.379 . S
C430 C427 1.363 . S
C430 N428 1.356 . S
C431 C425 1.363 . S
C431 C426 1.379 . S
C431 N429 1.356 . S
N432 C424 1.356 . S
N432 H438 0.984 . S
N432 H439 0.984 . S
N433 C426 1.356 . S
N433 H436 0.984 . S
N433 H437 0.985 . S
H434 N429 0.984 . S
H435 N429 0.985 . S
H436 N433 0.984 . S
H437 N433 0.985 . S
H438 N432 0.984 . S
H439 N432 0.984 . S
H440 N428 0.984 . S
H441 N428 0.985 . S
C442 C443 1.363 . S
C442 C448 1.379 . S
C442 N450 1.356 . S
C443 C442 1.363 . S
C443 C449 1.363 . S
C444 C445 1.363 . S
C444 C449 1.379 . S
C444 N451 1.356 . S
C445 C444 1.363 . S
C445 C448 1.363 . S
N446 C448 1.356 . S
N446 H458 0.983 1_455 S
N446 H459 0.985 . S
N447 C449 1.356 . S
N447 H452 0.984 . S
N447 H453 0.985 . S
C448 C442 1.379 . S
C448 C445 1.363 . S
C448 N446 1.356 . S
C449 C443 1.363 . S
C449 C444 1.379 . S
C449 N447 1.356 . S
N450 C442 1.356 . S
N450 H456 0.984 1_455 S
N450 H457 0.984 . S
N451 C444 1.356 . S
N451 H454 0.984 . S
N451 H455 0.985 . S
H452 N447 0.984 . S
H453 N447 0.985 . S
H454 N451 0.984 . S
H455 N451 0.985 . S
H456 N450 0.984 1_655 S
H457 N450 0.984 . S
H458 N446 0.983 1_655 S
H459 N446 0.985 . S
C460 C461 1.363 . S
C460 C466 1.379 . S
C460 N468 1.356 . S
C461 C460 1.363 . S
C461 C467 1.363 1_544 S
C462 C463 1.363 1_565 S
C462 C467 1.379 1_554 S
C462 N469 1.356 1_554 S
C463 C462 1.363 1_545 S
C463 C466 1.363 . S
N464 C466 1.356 . S
N464 H476 0.984 . S
N464 H477 0.985 . S
N465 C467 1.356 . S
N465 H470 0.984 . S
N465 H471 0.985 . S
C466 C460 1.379 . S
C466 C463 1.363 . S
C466 N464 1.356 . S
C467 C461 1.363 1_566 S
C467 C462 1.379 1_556 S
C467 N465 1.356 . S
N468 C460 1.356 . S
N468 H474 0.984 . S
N468 H475 0.984 . S
N469 C462 1.356 1_556 S
N469 H472 0.984 1_556 S
N469 H473 0.985 . S
H470 N465 0.984 . S
H471 N465 0.985 . S
H472 N469 0.984 1_554 S
H473 N469 0.985 . S
H474 N468 0.984 . S
H475 N468 0.984 . S
H476 N464 0.984 . S
H477 N464 0.985 . S
C478 C479 1.363 . S
C478 C484 1.379 . S
C478 N486 1.356 1_545 S
C479 C478 1.363 . S
C479 C485 1.363 . S
C480 C481 1.363 . S
C480 C485 1.379 . S
C480 N487 1.356 . S
C481 C480 1.363 . S
C481 C484 1.363 . S
N482 C484 1.356 1_565 S
N482 H494 0.984 . S
N482 H495 0.985 . S
N483 C485 1.356 . S
N483 H488 0.984 . S
N483 H489 0.985 . S
C484 C478 1.379 . S
C484 C481 1.363 . S
C484 N482 1.356 1_545 S
C485 C479 1.363 . S
C485 C480 1.379 . S
C485 N483 1.356 . S
N486 C478 1.356 1_565 S
N486 H492 0.984 . S
N486 H493 0.984 1_565 S
N487 C480 1.356 . S
N487 H490 0.984 . S
N487 H491 0.985 . S
H488 N483 0.984 . S
H489 N483 0.985 . S
H490 N487 0.984 . S
H491 N487 0.985 . S
H492 N486 0.984 . S
H493 N486 0.984 1_545 S
H494 N482 0.984 . S
H495 N482 0.985 . S
C496 C497 1.363 . S
C496 C502 1.379 . S
C496 N504 1.356 . S
C497 C496 1.363 . S
C497 C503 1.363 . S
C498 C499 1.363 . S
C498 C503 1.379 . S
C498 N505 1.356 . S
C499 C498 1.363 . S
C499 C502 1.363 . S
N500 C502 1.356 1_556 S
N500 H512 0.984 . S
N500 H513 0.985 . S
N501 C503 1.356 . S
N501 H506 0.984 . S
N501 H507 0.985 . S
C502 C496 1.379 . S
C502 C499 1.363 . S
C502 N500 1.356 1_554 S
C503 C497 1.363 . S
C503 C498 1.379 . S
C503 N501 1.356 . S
N504 C496 1.356 . S
N504 H510 0.984 1_554 S
N504 H511 0.984 . S
N505 C498 1.356 . S
N505 H508 0.984 . S
N505 H509 0.985 . S
H506 N501 0.984 . S
H507 N501 0.985 . S
H508 N505 0.984 . S
H509 N505 0.985 . S
H510 N504 0.984 1_556 S
H511 N504 0.984 . S
H512 N500 0.984 . S
H513 N500 0.985 . S
C514 C515 1.363 . S
C514 C520 1.379 . S
C514 N522 1.356 . S
C515 C514 1.363 . S
C515 C521 1.363 . S
C516 C517 1.363 . S
C516 C521 1.379 . S
C516 N523 1.356 . S
C517 C516 1.363 . S
C517 C520 1.363 . S
N518 C520 1.356 . S
N518 H530 0.984 . S
N518 H531 0.985 . S
N519 C521 1.356 . S
N519 H524 0.984 . S
N519 H525 0.985 . S
C520 C514 1.379 . S
C520 C517 1.363 . S
C520 N518 1.356 . S
C521 C515 1.363 . S
C521 C516 1.379 . S
C521 N519 1.356 . S
N522 C514 1.356 . S
N522 H528 0.984 . S
N522 H529 0.984 . S
N523 C516 1.356 . S
N523 H526 0.984 . S
N523 H527 0.985 . S
H524 N519 0.984 . S
H525 N519 0.985 . S
H526 N523 0.984 . S
H527 N523 0.985 . S
H528 N522 0.984 . S
H529 N522 0.984 . S
H530 N518 0.984 . S
H531 N518 0.985 . S
C532 C533 1.369 . S
C532 C538 1.379 . S
C532 N540 1.356 . S
C533 C532 1.369 . S
C533 C539 1.351 1_656 S
C534 C535 1.363 1_554 S
C534 C539 1.379 . S
C534 N541 1.356 . S
C535 C534 1.363 1_556 S
C535 C538 1.363 1_455 S
N536 C538 1.356 . S
N536 H548 0.984 . S
N536 H549 0.985 . S
N537 C539 1.356 . S
N537 H542 0.984 . S
N537 H543 0.985 . S
C538 C532 1.379 . S
C538 C535 1.363 1_655 S
C538 N536 1.356 . S
C539 C533 1.351 1_454 S
C539 C534 1.379 . S
C539 N537 1.356 . S
N540 C532 1.356 . S
N540 H546 0.984 . S
N540 H547 0.984 . S
N541 C534 1.356 . S
N541 H544 0.984 . S
N541 H545 0.985 . S
H542 N537 0.984 . S
H543 N537 0.985 . S
H544 N541 0.984 . S
H545 N541 0.985 . S
H546 N540 0.984 . S
H547 N540 0.984 . S
H548 N536 0.984 . S
H549 N536 0.985 . S
C550 C551 1.363 . S
C550 C556 1.379 . S
C550 N558 1.356 . S
C551 C550 1.363 . S
C551 C557 1.363 . S
C552 C553 1.363 . S
C552 C557 1.379 . S
C552 N559 1.356 . S
C553 C552 1.363 . S
C553 C556 1.363 . S
N554 C556 1.356 . S
N554 H566 0.984 . S
N554 H567 0.985 . S
N555 C557 1.356 . S
N555 H560 0.984 . S
N555 H561 0.985 . S
C556 C550 1.379 . S
C556 C553 1.363 . S
C556 N554 1.356 . S
C557 C551 1.363 . S
C557 C552 1.379 . S
C557 N555 1.356 . S
N558 C550 1.356 . S
N558 H564 0.984 . S
N558 H565 0.984 . S
N559 C552 1.356 . S
N559 H562 0.984 . S
N559 H563 0.985 . S
H560 N555 0.984 . S
H561 N555 0.985 . S
H562 N559 0.984 . S
H563 N559 0.985 . S
H564 N558 0.984 . S
H565 N558 0.984 . S
H566 N554 0.984 . S
H567 N554 0.985 . S
C568 C569 1.363 . S
C568 C574 1.379 . S
C568 N576 1.356 . S
C569 C568 1.363 . S
C569 C575 1.363 . S
C570 C571 1.363 . S
C570 C575 1.379 . S
C570 N577 1.356 . S
C571 C570 1.363 . S
C571 C574 1.363 . S
N572 C574 1.356 1_655 S
N572 H584 0.984 . S
N572 H585 0.985 . S
N573 C575 1.356 . S
N573 H578 0.984 . S
N573 H579 0.985 . S
C574 C568 1.379 . S
C574 C571 1.363 . S
C574 N572 1.356 1_455 S
C575 C569 1.363 . S
C575 C570 1.379 . S
C575 N573 1.356 . S
N576 C568 1.356 . S
N576 H582 0.984 1_455 S
N576 H583 0.984 . S
N577 C570 1.356 . S
N577 H580 0.984 . S
N577 H581 0.985 . S
H578 N573 0.984 . S
H579 N573 0.985 . S
H580 N577 0.984 . S
H581 N577 0.985 . S
H582 N576 0.984 1_655 S
H583 N576 0.984 . S
H584 N572 0.984 . S
H585 N572 0.985 . S
C586 C587 1.363 . S
C586 C592 1.379 . S
C586 N594 1.356 . S
C587 C586 1.363 . S
C587 C593 1.363 . S
C588 C589 1.363 . S
C588 C593 1.379 . S
C588 N595 1.356 . S
C589 C588 1.363 . S
C589 C592 1.363 . S
N590 C592 1.356 . S
N590 H602 0.984 . S
N590 H603 0.985 . S
N591 C593 1.356 . S
N591 H596 0.984 . S
N591 H597 0.985 . S
C592 C586 1.379 . S
C592 C589 1.363 . S
C592 N590 1.356 . S
C593 C587 1.363 . S
C593 C588 1.379 . S
C593 N591 1.356 . S
N594 C586 1.356 . S
N594 H600 0.984 . S
N594 H601 0.984 . S
N595 C588 1.356 . S
N595 H598 0.984 . S
N595 H599 0.985 . S
H596 N591 0.984 . S
H597 N591 0.985 . S
H598 N595 0.984 . S
H599 N595 0.985 . S
H600 N594 0.984 . S
H601 N594 0.984 . S
H602 N590 0.984 . S
H603 N590 0.985 . S
C173 C4 1.690 . S
C175 C91 1.556 . S
C191 C16 1.785 . S
C193 C125 1.658 . S
C211 C137 1.168 . S
C209 C32 1.218 . S
C227 C43 1.396 . S
C229 C171 1.285 . S
C247 C128 1.748 . S
C245 C5 1.883 . S
C265 C108 1.319 . S
C263 C21 1.375 . S
C283 C155 1.292 . S
C281 C27 1.447 . S
C301 C146 1.407 . S
C299 C37 1.464 . S
C317 C10 1.570 . S
C319 C154 1.486 . S
C337 C116 1.504 1_556 S
C335 C26 1.603 . S
C353 C38 1.337 . S
C355 C92 1.244 . S
C371 C15 1.654 . S
C373 C149 1.548 . S
C391 C107 1.768 . S
C389 C48 1.847 . S
C407 C59 1.652 . S
C409 C129 1.540 . S
C425 C76 1.509 . S
C427 C134 1.417 . S
C443 C87 1.385 . S
C445 C167 1.362 . S
C461 C54 1.482 1_545 S
C463 C112 1.432 1_545 S
C481 C104 1.752 . S
C479 C60 1.867 . S
C499 C158 1.479 . S
C497 C71 1.496 . S
C517 C150 1.383 . S
C515 C82 1.503 . S
C533 C49 1.796 . S
C535 C170 1.682 . S
C553 C113 1.329 . S
C551 C70 1.406 . S
C571 C95 1.540 . S
C569 C81 1.643 . S
C587 C65 1.579 . S
C589 C133 1.510 . S
