# Generated by pormake.
# Topology tsx, (6,3)-cn, num edge types: 1
# Building blocks:
#     Node 0, Type 0, BuildingBlock: CIFDUS_clean_sbu_1, # of connection points: 6
#     Node 1, Type 0, BuildingBlock: CIFDUS_clean_sbu_1, # of connection points: 6
#     Node 2, Type 1, BuildingBlock: BETDIP_clean_linker_0, # of connection points: 3
#     Node 3, Type 1, BuildingBlock: BETDIP_clean_linker_0, # of connection points: 3
#     Node 4, Type 1, BuildingBlock: BETDIP_clean_linker_0, # of connection points: 3
#     Node 5, Type 1, BuildingBlock: BETDIP_clean_linker_0, # of connection points: 3
#     Edge 6, Type (0, 1), BuildingBlock: FUNLAD_clean_linker_0, # of connection points: 2
#     Edge 7, Type (0, 1), BuildingBlock: FUNLAD_clean_linker_0, # of connection points: 2
#     Edge 8, Type (0, 1), BuildingBlock: FUNLAD_clean_linker_0, # of connection points: 2
#     Edge 9, Type (0, 1), BuildingBlock: FUNLAD_clean_linker_0, # of connection points: 2
#     Edge 10, Type (0, 1), BuildingBlock: FUNLAD_clean_linker_0, # of connection points: 2
#     Edge 11, Type (0, 1), BuildingBlock: FUNLAD_clean_linker_0, # of connection points: 2
#     Edge 12, Type (0, 1), BuildingBlock: FUNLAD_clean_linker_0, # of connection points: 2
#     Edge 13, Type (0, 1), BuildingBlock: FUNLAD_clean_linker_0, # of connection points: 2
#     Edge 14, Type (0, 1), BuildingBlock: FUNLAD_clean_linker_0, # of connection points: 2
#     Edge 15, Type (0, 1), BuildingBlock: FUNLAD_clean_linker_0, # of connection points: 2
#     Edge 16, Type (0, 1), BuildingBlock: FUNLAD_clean_linker_0, # of connection points: 2
#     Edge 17, Type (0, 1), BuildingBlock: FUNLAD_clean_linker_0, # of connection points: 2
# Relax obj value: 0.095
# Max RMSD: 0.149
# Mean RMSD: 0.112
data_MOF--net-tsx--node1-CIFDUS_clean_sbu_1--node2-BETDIP_clean_linker_0--edge1-FUNLAD_clean_linker_0
_symmetry_space_group_name_H-M    P1
_symmetry_Int_Tables_number       1
_symmetry_cell_setting            triclinic
loop_
_symmetry_equiv_pos_as_xyz
'x, y, z'
_cell_length_a     21.201576
_cell_length_b     26.412829
_cell_length_c     39.436409
_cell_angle_alpha  98.233207
_cell_angle_beta   103.83515
_cell_angle_gamma 91.400163
loop_
_atom_site_label
_atom_site_type_symbol
_atom_site_fract_x
_atom_site_fract_y
_atom_site_fract_z
_atom_type_partial_charge
O0 O 1.00121 0.08551 0.0087 0.0
Mn1 Mn 0.06397 0.02624 0.01739 0.0
O2 O 0.92092 0.05415 0.9608 0.0
Mn3 Mn 0.9541 0.99133 0.94938 0.0
O4 O 0.12583 0.96675 0.02513 0.0
O5 O 0.1361 0.07737 0.04459 0.0
Mn6 Mn 0.17691 0.05721 0.08445 0.0
O7 O 0.03369 0.01884 0.06363 0.0
O8 O 0.21058 0.99518 0.0711 0.0
O9 O 0.09537 0.03349 0.97141 0.0
O10 O 1.01873 0.99185 0.92537 0.0
O11 O 0.21795 0.11915 0.08286 0.0
O12 O 0.11469 0.05412 0.1099 0.0
C13 C 0.95252 0.93467 0.98317 0.0
C14 C 0.94726 0.08981 0.98616 0.0
C15 C 0.18116 0.96075 0.04571 0.0
C16 C 0.17609 0.11719 0.0528 0.0
C17 C 0.05732 0.03384 0.09691 0.0
C18 C 0.07467 0.01461 0.93851 0.0
O19 O 0.99228 0.97456 0.9905 0.0
O20 O 0.91245 0.93025 0.95237 0.0
O21 O 0.51161 0.57181 0.50924 0.0
Mn22 Mn 0.57566 0.51257 0.51662 0.0
O23 O 0.42711 0.53926 0.46387 0.0
Mn24 Mn 0.46208 0.47814 0.45036 0.0
O25 O 0.63892 0.45322 0.52364 0.0
O26 O 0.64808 0.56418 0.54266 0.0
Mn27 Mn 0.69065 0.54499 0.58247 0.0
O28 O 0.54841 0.50495 0.5636 0.0
O29 O 0.72347 0.48248 0.56963 0.0
O30 O 0.60392 0.52007 0.46991 0.0
O31 O 0.52374 0.48115 0.42457 0.0
O32 O 0.73136 0.60644 0.5795 0.0
O33 O 0.62957 0.54302 0.60878 0.0
C34 C 0.46482 0.41977 0.48319 0.0
C35 C 0.45493 0.57499 0.48878 0.0
C36 C 0.69422 0.44759 0.54453 0.0
C37 C 0.68773 0.60415 0.55005 0.0
C38 C 0.57265 0.52148 0.59662 0.0
C39 C 0.58051 0.50278 0.43696 0.0
O40 O 0.50384 0.46019 0.49055 0.0
O41 O 0.42303 0.41591 0.45297 0.0
H42 H 0.1339 0.9949 0.49612 0.0
H43 H 1.02485 0.05177 0.40432 0.0
H44 H 0.13108 0.91655 0.39209 0.0
H45 H 0.08418 0.12954 0.44593 0.0
C46 C 0.05732 0.1203 0.46478 0.0
C47 C 0.11769 0.99154 0.46761 0.0
C48 C 0.13633 0.95062 0.44582 0.0
C49 C 0.07878 0.02868 0.45262 0.0
C50 C 0.05692 0.02402 0.41568 0.0
C51 C 0.07501 0.98356 0.39342 0.0
C52 C 0.11485 0.94704 0.40885 0.0
N53 N 0.0612 0.07059 0.47469 0.0
H54 H 1.02108 0.9992 0.5341 0.0
H55 H 0.12697 0.08263 0.6341 0.0
H56 H 0.99227 0.95728 0.63131 0.0
H57 H 0.10901 0.14878 0.59932 0.0
C58 C 0.1282 0.12928 0.57808 0.0
C59 C 0.03207 0.00506 0.56272 0.0
C60 C 1.00067 0.97348 0.58033 0.0
C61 C 0.07601 0.04553 0.58192 0.0
C62 C 0.09078 0.053 0.61907 0.0
C63 C 0.06111 0.02125 0.63711 0.0
C64 C 1.01575 0.98177 0.61754 0.0
N65 N 0.10638 0.0776 0.56366 0.0
H66 H 0.60029 0.489 0.99816 0.0
H67 H 0.51945 0.57102 0.91289 0.0
H68 H 0.60255 0.42676 0.89139 0.0
H69 H 0.56755 0.63905 0.95945 0.0
C70 C 0.54236 0.62623 0.97798 0.0
C71 C 0.58899 0.49176 0.97022 0.0
C72 C 0.60417 0.45235 0.94608 0.0
C73 C 0.5596 0.53501 0.95846 0.0
C74 C 0.54428 0.53843 0.92219 0.0
C75 C 0.55941 0.49957 0.89767 0.0
C76 C 0.58906 0.45644 0.90988 0.0
N77 N 0.54411 0.57418 0.98325 0.0
H78 H 0.51304 0.51155 0.03437 0.0
H79 H 0.63 0.58483 0.13494 0.0
H80 H 0.50065 0.45474 0.12977 0.0
H81 H 0.6072 0.65567 0.1046 0.0
C82 C 0.62368 0.63877 0.08168 0.0
C83 C 0.52833 0.51379 0.06282 0.0
C84 C 0.50206 0.47804 0.07967 0.0
C85 C 0.57386 0.55278 0.08266 0.0
C86 C 0.59342 0.55573 0.11957 0.0
C87 C 0.56733 0.52067 0.13686 0.0
C88 C 0.52216 0.48146 0.11665 0.0
N89 N 0.60088 0.58804 0.06519 0.0
C90 C 0.1712 0.20698 0.04306 0.0
C91 C 0.1803 0.15609 0.03028 0.0
C92 C 0.20204 0.24742 0.03274 0.0
C93 C 0.24343 0.23745 0.00974 0.0
C94 C 0.24653 0.18657 0.99405 0.0
C95 C 0.21487 0.14613 1.00411 0.0
C96 C 0.29373 0.27675 0.00801 0.0
C97 C 0.28968 0.32753 0.01699 0.0
C98 C 0.34782 0.36421 0.02781 0.0
C99 C 0.3408 0.41588 0.02369 0.0
C100 C 0.39238 0.45259 0.03883 0.0
C101 C 0.45125 0.43842 0.05922 0.0
H102 H 0.41475 0.31062 0.05139 0.0
C103 C 0.45901 0.38663 0.06255 0.0
C104 C 0.40804 0.3498 0.04681 0.0
H105 H 0.50393 0.37488 0.07825 0.0
H106 H 0.14583 0.21538 0.06385 0.0
H107 H 0.19877 0.28577 0.04588 0.0
H108 H 0.27808 0.1777 0.97634 0.0
H109 H 0.22363 0.10706 0.99446 0.0
H110 H 0.33885 0.26286 1.00279 0.0
H111 H 0.24333 0.34258 0.01909 0.0
H112 H 0.29471 0.42809 0.00963 0.0
H113 H 0.38514 0.49243 0.03617 0.0
C114 C 0.26837 0.90052 0.06344 0.0
C115 C 0.21445 0.91332 0.03828 0.0
C116 C 0.30439 0.85904 0.055 0.0
C117 C 0.28738 0.8297 0.02109 0.0
C118 C 0.23236 0.84149 0.99636 0.0
C119 C 0.19584 0.88254 1.00494 0.0
C120 C 0.32975 0.79048 0.00948 0.0
C121 C 0.36956 0.76393 0.03152 0.0
C122 C 0.41573 0.72919 0.01892 0.0
C123 C 0.42694 0.68234 0.03155 0.0
C124 C 0.46869 0.64856 0.01869 0.0
C125 C 0.50112 0.66196 0.99376 0.0
H126 H 0.44328 0.77949 0.98523 0.0
C127 C 0.49199 0.70971 0.98235 0.0
C128 C 0.4495 0.74294 0.99465 0.0
H129 H 0.51679 0.72098 0.9633 0.0
H130 H 0.28391 0.92341 0.08939 0.0
H131 H 0.34728 0.85176 0.07449 0.0
H132 H 0.21851 0.81965 0.96999 0.0
H133 H 0.15473 0.89143 0.98488 0.0
H134 H 0.32817 0.7833 0.98142 0.0
H135 H 0.36726 0.76653 0.05892 0.0
H136 H 0.40201 0.67129 0.05059 0.0
H137 H 0.47487 0.61193 0.02796 0.0
C138 C 0.94192 0.84582 0.99443 0.0
C139 C 0.94701 0.89841 1.00734 0.0
C140 C 0.91688 0.81087 0.01197 0.0
C141 C 0.89506 0.82823 0.04236 0.0
C142 C 0.90573 0.88038 0.05698 0.0
C143 C 0.93104 0.91537 0.0394 0.0
C144 C 0.8558 0.79413 0.0574 0.0
C145 C 0.81559 0.7551 0.03712 0.0
C146 C 0.76791 0.72521 0.04976 0.0
C147 C 0.74358 0.67666 0.03083 0.0
C148 C 0.69645 0.64826 0.04087 0.0
C149 C 0.67211 0.66831 0.06979 0.0
H150 H 0.75842 0.78323 0.09309 0.0
C151 C 0.6956 0.71702 0.08844 0.0
C152 C 0.74294 0.7453 0.07856 0.0
H153 H 0.67724 0.73335 0.11074 0.0
H154 H 0.9537 0.83205 0.96958 0.0
H155 H 0.912 0.7707 1.00072 0.0
H156 H 0.88986 0.89468 0.08054 0.0
H157 H 0.93236 0.95589 0.04918 0.0
H158 H 0.85584 0.80446 0.08505 0.0
H159 H 0.81546 0.7453 0.00941 0.0
H160 H 0.76125 0.66056 0.00824 0.0
H161 H 0.67928 0.61073 0.026 0.0
C162 C 0.85289 0.1415 0.96499 0.0
C163 C 0.91254 0.13774 0.98923 0.0
C164 C 0.81885 0.1857 0.96718 0.0
C165 C 0.84298 0.22752 0.99392 0.0
C166 C 0.90318 0.22447 0.01784 0.0
C167 C 0.93755 0.17983 0.0157 0.0
C168 C 0.80776 0.27548 0.9955 0.0
C169 C 0.74248 0.27508 0.98389 0.0
C170 C 0.70604 0.32138 0.97729 0.0
C171 C 0.64732 0.31529 0.95108 0.0
C172 C 0.61362 0.35778 0.9415 0.0
C173 C 0.63731 0.4073 0.95843 0.0
H174 H 0.77291 0.37693 0.01613 0.0
C175 C 0.69435 0.41348 0.9859 0.0
C176 C 0.72872 0.37088 0.99518 0.0
H177 H 0.71347 0.45137 0.9994 0.0
H178 H 0.83221 0.11031 0.94393 0.0
H179 H 0.77427 0.18723 0.94718 0.0
H180 H 0.92346 0.25654 0.0383 0.0
H181 H 0.98359 0.17841 0.03464 0.0
H182 H 0.83669 0.31148 1.00464 0.0
H183 H 0.71446 0.23853 0.97567 0.0
H184 H 0.62846 0.27758 0.93707 0.0
H185 H 0.56934 0.35198 0.92054 0.0
C186 C 0.7334 0.64555 0.50826 0.0
C187 C 0.68693 0.64469 0.52821 0.0
C188 C 0.75454 0.69194 0.50014 0.0
C189 C 0.73017 0.73834 0.51252 0.0
C190 C 0.67794 0.73619 0.52865 0.0
C191 C 0.65688 0.68978 0.53672 0.0
C192 C 0.76311 0.78946 0.51394 0.0
C193 C 0.82673 0.79603 0.51439 0.0
C194 C 0.86545 0.84583 0.5274 0.0
C195 C 0.92383 0.85355 0.51734 0.0
C196 C 0.96655 0.89624 0.53333 0.0
C197 C 0.9523 0.93157 0.56027 0.0
H198 H 0.80657 0.87747 0.56262 0.0
C199 C 0.89299 0.92481 0.56954 0.0
C200 C 0.85 0.88253 0.55331 0.0
H201 H 0.88054 0.95164 0.59006 0.0
H202 H 0.75765 0.61115 0.50176 0.0
H203 H 0.79277 0.69143 0.48623 0.0
H204 H 0.6575 0.77109 0.53807 0.0
H205 H 0.62182 0.69009 0.55273 0.0
H206 H 0.73652 0.82294 0.51971 0.0
H207 H 0.85388 0.76319 0.50813 0.0
H208 H 0.9374 0.82562 0.4978 0.0
H209 H 1.01209 0.90033 0.52579 0.0
C210 C 0.71409 0.36849 0.50568 0.0
C211 C 0.72725 0.39938 0.53899 0.0
C212 C 0.75058 0.32599 0.49992 0.0
C213 C 0.80044 0.31331 0.52752 0.0
C214 C 0.81088 0.34245 0.56121 0.0
C215 C 0.77524 0.3853 0.56682 0.0
C216 C 0.84394 0.27127 0.52185 0.0
C217 C 0.86345 0.2607 0.49167 0.0
C218 C 0.91414 0.22432 0.48675 0.0
C219 C 0.95065 0.2323 0.46244 0.0
C220 C 0.99819 0.19903 0.45635 0.0
C221 C 1.00964 0.15639 0.47396 0.0
H222 H 0.8981 0.17394 0.52333 0.0
C223 C 0.97346 0.14807 0.49843 0.0
C224 C 0.92611 0.18187 0.50487 0.0
H225 H 0.98119 0.11531 0.51228 0.0
H226 H 0.67718 0.37814 0.48376 0.0
H227 H 0.74009 0.30343 0.47383 0.0
H228 H 0.84846 0.33321 0.58299 0.0
H229 H 0.78601 0.40788 0.59294 0.0
H230 H 0.86597 0.25286 0.54437 0.0
H231 H 0.84588 0.28304 0.47058 0.0
H232 H 0.94248 0.26456 0.4481 0.0
H233 H 1.02526 0.20616 0.43726 0.0
C234 C 0.45519 0.33021 0.49326 0.0
C235 C 0.46123 0.38256 0.50702 0.0
C236 C 0.43032 0.29463 0.51042 0.0
C237 C 0.40964 0.31112 0.54132 0.0
C238 C 0.4216 0.3629 0.5568 0.0
C239 C 0.44674 0.3985 0.5396 0.0
C240 C 0.36984 0.27688 0.55601 0.0
C241 C 0.32941 0.23805 0.53558 0.0
C242 C 0.27988 0.20965 0.54788 0.0
C243 C 0.25552 0.16065 0.52977 0.0
C244 C 0.20614 0.13405 0.53932 0.0
C245 C 0.17954 0.15645 0.56683 0.0
H246 H 0.26824 0.27034 0.58908 0.0
C247 C 0.20321 0.20557 0.58465 0.0
C248 C 0.25278 0.23198 0.57532 0.0
H249 H 0.18318 0.22372 0.60585 0.0
H250 H 0.46576 0.31722 0.46798 0.0
H251 H 0.42451 0.25476 0.49846 0.0
H252 H 0.40666 0.37657 0.58075 0.0
H253 H 0.4488 0.43884 0.55006 0.0
H254 H 0.36918 0.28726 0.58356 0.0
H255 H 0.32996 0.22771 0.50801 0.0
H256 H 0.27477 0.14288 0.50817 0.0
H257 H 0.18884 0.09618 0.5251 0.0
C258 C 0.44778 0.67024 0.50639 0.0
C259 C 0.41755 0.62082 0.49431 0.0
C260 C 0.41 0.7132 0.50794 0.0
C261 C 0.34138 0.70708 0.49788 0.0
C262 C 0.31192 0.65734 0.48765 0.0
C263 C 0.3493 0.61495 0.48561 0.0
C264 C 0.29751 0.75039 0.49574 0.0
C265 C 0.31562 0.79932 0.49472 0.0
C266 C 0.26682 0.83766 0.48467 0.0
C267 C 0.28195 0.88997 0.4978 0.0
C268 C 0.23837 0.92675 0.48642 0.0
C269 C 0.17951 0.91187 0.46108 0.0
H270 H 0.19441 0.78324 0.44822 0.0
C271 C 0.1641 0.85956 0.4483 0.0
C272 C 0.20711 0.82292 0.45988 0.0
H273 H 0.11912 0.84701 0.42873 0.0
H274 H 0.50034 0.67582 0.51343 0.0
H275 H 0.43477 0.75076 0.51665 0.0
H276 H 0.25938 0.65116 0.48002 0.0
H277 H 0.32445 0.57732 0.47675 0.0
H278 H 0.24602 0.74036 0.49203 0.0
H279 H 0.36666 0.81145 0.49967 0.0
H280 H 0.32786 0.90245 0.51656 0.0
H281 H 0.25179 0.96692 0.49641 0.0
C282 C 1.01018 0.97616 0.13029 0.0
C283 C 1.01943 0.02559 0.12253 0.0
C284 C 0.99359 0.96956 0.16179 0.0
C285 C 0.98636 0.01251 0.18596 0.0
C286 C 0.98966 0.06149 0.17631 0.0
C287 C 1.00691 0.06803 0.14514 0.0
C288 C 0.9821 0.00906 0.22271 0.0
C289 C 1.00775 0.97155 0.24064 0.0
C290 C 1.01922 0.97545 0.2797 0.0
C291 C 1.02223 0.93055 0.29509 0.0
C292 C 0.0389 0.93304 0.3319 0.0
C293 C 0.05415 0.98059 0.3542 0.0
H294 H 0.03456 0.05844 0.29121 0.0
C295 C 0.05101 0.02552 0.33867 0.0
C296 C 0.03372 0.02303 0.30196 0.0
H297 H 0.06401 0.06276 0.35482 0.0
H298 H 1.02075 0.94297 0.11346 0.0
H299 H 0.9894 0.93106 0.16772 0.0
H300 H 0.98374 0.09522 0.19419 0.0
H301 H 1.01466 0.10654 0.13983 0.0
H302 H 0.96423 0.04184 0.23679 0.0
H303 H 1.02507 0.93816 0.22699 0.0
H304 H 1.01208 0.89337 0.27858 0.0
H305 H 0.04002 0.89764 0.34283 0.0
C306 C 0.12082 0.06767 0.90207 0.0
C307 C 0.1145 0.02028 0.91341 0.0
C308 C 0.13748 0.06986 0.86996 0.0
C309 C 0.14812 0.02453 0.84896 0.0
C310 C 0.14859 0.97815 0.86246 0.0
C311 C 0.13104 0.97591 0.89416 0.0
C312 C 0.15192 0.02266 0.81163 0.0
C313 C 0.11972 0.05415 0.7903 0.0
C314 C 0.1095 0.04506 0.75118 0.0
C315 C 0.09669 0.08662 0.73253 0.0
C316 C 0.08163 0.07897 0.69557 0.0
C317 C 0.07795 0.02938 0.6764 0.0
H318 H 0.11358 0.9621 0.74523 0.0
C319 C 0.09057 0.9877 0.695 0.0
C320 C 0.10622 0.99539 0.73197 0.0
H321 H 0.08838 0.94908 0.68096 0.0
H322 H 0.10764 0.10227 0.91644 0.0
H323 H 0.1389 0.10658 0.86094 0.0
H324 H 0.15732 0.94278 0.84708 0.0
H325 H 0.12575 0.93889 0.90233 0.0
H326 H 0.17527 0.99053 0.80039 0.0
H327 H 0.09646 0.08645 0.80137 0.0
H328 H 0.09781 0.12514 0.74659 0.0
H329 H 0.0715 0.11181 0.68197 0.0
C330 C 0.52597 0.55588 0.64632 0.0
C331 C 0.53595 0.51353 0.62281 0.0
C332 C 0.50782 0.54891 0.67716 0.0
C333 C 0.50118 0.49931 0.68556 0.0
C334 C 0.50559 0.45688 0.66045 0.0
C335 C 0.52325 0.46393 0.62933 0.0
C336 C 0.49538 0.49097 0.72128 0.0
C337 C 0.52364 0.52445 0.75054 0.0
C338 C 0.52759 0.5166 0.78764 0.0
C339 C 0.55037 0.5584 0.81456 0.0
C340 C 0.5598 0.55291 0.85004 0.0
C341 C 0.54675 0.50529 0.85967 0.0
H342 H 0.49705 0.43536 0.7775 0.0
C343 C 0.52322 0.46339 0.83283 0.0
C344 C 0.51371 0.46889 0.79717 0.0
H345 H 0.51228 0.42625 0.83939 0.0
H346 H 0.53556 0.59448 0.6417 0.0
H347 H 0.50182 0.58255 0.69502 0.0
H348 H 0.49993 0.41827 0.66604 0.0
H349 H 0.53203 0.43076 0.61187 0.0
H350 H 0.47239 0.45487 0.72346 0.0
H351 H 0.5482 0.55949 0.74753 0.0
H352 H 0.56201 0.59553 0.80817 0.0
H353 H 0.57897 0.58582 0.86998 0.0
C354 C 0.629 0.55558 0.40115 0.0
C355 C 0.61908 0.50778 0.4112 0.0
C356 C 0.64649 0.55823 0.36933 0.0
C357 C 0.65437 0.51299 0.34737 0.0
C358 C 0.65095 0.46586 0.35951 0.0
C359 C 0.63253 0.46319 0.3909 0.0
C360 C 0.65911 0.5124 0.31034 0.0
C361 C 0.62803 0.54522 0.2898 0.0
C362 C 0.61806 0.53811 0.25074 0.0
C363 C 0.60428 0.58076 0.23331 0.0
C364 C 0.58874 0.5751 0.19645 0.0
C365 C 0.5858 0.52644 0.17607 0.0
H366 H 0.62381 0.45524 0.24264 0.0
C367 C 0.59965 0.48366 0.19342 0.0
C368 C 0.61566 0.48937 0.23036 0.0
H369 H 0.5979 0.44573 0.17841 0.0
H370 H 0.61834 0.59037 0.41641 0.0
H371 H 0.65084 0.59539 0.36128 0.0
H372 H 0.65743 0.43053 0.34332 0.0
H373 H 0.6246 0.42591 0.39816 0.0
H374 H 0.68179 0.48027 0.29862 0.0
H375 H 0.60529 0.5773 0.30155 0.0
H376 H 0.6047 0.61858 0.24828 0.0
H377 H 0.57739 0.60874 0.18386 0.0
loop_
_geom_bond_atom_site_label_1
_geom_bond_atom_site_label_2
_geom_bond_distance
_geom_bond_site_symmetry_2
_ccdc_geom_bond_type
O0 Mn1 2.163 . S
O0 C14 1.244 1_454 S
Mn1 O0 2.163 . S
Mn1 O4 2.160 1_545 S
Mn1 O5 2.221 . S
Mn1 O7 2.163 . S
Mn1 O9 2.160 1_554 S
Mn1 O19 2.221 1_444 S
O2 Mn3 2.087 1_545 S
O2 C14 1.256 . S
Mn3 O2 2.087 1_565 S
Mn3 O10 2.089 1_565 S
Mn3 O19 2.290 . S
Mn3 O20 2.251 . S
O4 Mn1 2.160 1_565 S
O4 C15 1.239 . S
O5 Mn1 2.221 . S
O5 Mn6 2.290 . S
O5 C16 1.278 . S
Mn6 O5 2.290 . S
Mn6 O8 2.089 1_545 S
Mn6 O11 2.251 . S
Mn6 O12 2.087 . S
O7 Mn1 2.163 . S
O7 C17 1.244 . S
O8 Mn6 2.089 1_565 S
O8 C15 1.256 . S
O9 Mn1 2.160 1_556 S
O9 C18 1.239 . S
O10 Mn3 2.089 1_545 S
O10 C18 1.256 1_655 S
O11 Mn6 2.251 . S
O11 C16 1.241 . S
O12 Mn6 2.087 . S
O12 C17 1.256 . S
C13 O19 1.290 . S
C13 O20 1.244 . S
C14 O0 1.244 1_656 S
C14 O2 1.256 . S
C15 O4 1.239 . S
C15 O8 1.256 . S
C16 O5 1.278 . S
C16 O11 1.241 . S
C17 O7 1.244 . S
C17 O12 1.256 . S
C18 O9 1.239 . S
C18 O10 1.256 1_455 S
O19 Mn1 2.221 1_666 S
O19 Mn3 2.290 . S
O19 C13 1.290 . S
O20 Mn3 2.251 . S
O20 C13 1.244 . S
O21 Mn22 2.163 . S
O21 C35 1.244 . S
Mn22 O21 2.163 . S
Mn22 O25 2.160 . S
Mn22 O26 2.221 . S
Mn22 O28 2.163 . S
Mn22 O30 2.160 . S
Mn22 O40 2.221 . S
O23 Mn24 2.087 . S
O23 C35 1.256 . S
Mn24 O23 2.087 . S
Mn24 O31 2.089 . S
Mn24 O40 2.290 . S
Mn24 O41 2.251 . S
O25 Mn22 2.160 . S
O25 C36 1.239 . S
O26 Mn22 2.221 . S
O26 Mn27 2.290 . S
O26 C37 1.278 . S
Mn27 O26 2.290 . S
Mn27 O29 2.089 . S
Mn27 O32 2.251 . S
Mn27 O33 2.087 . S
O28 Mn22 2.163 . S
O28 C38 1.244 . S
O29 Mn27 2.089 . S
O29 C36 1.256 . S
O30 Mn22 2.160 . S
O30 C39 1.239 . S
O31 Mn24 2.089 . S
O31 C39 1.256 . S
O32 Mn27 2.251 . S
O32 C37 1.241 . S
O33 Mn27 2.087 . S
O33 C38 1.256 . S
C34 O40 1.278 . S
C34 O41 1.241 . S
C35 O21 1.244 . S
C35 O23 1.256 . S
C36 O25 1.239 . S
C36 O29 1.256 . S
C37 O26 1.278 . S
C37 O32 1.241 . S
C38 O28 1.244 . S
C38 O33 1.256 . S
C39 O30 1.239 . S
C39 O31 1.256 . S
O40 Mn22 2.221 . S
O40 Mn24 2.290 . S
O40 C34 1.278 . S
O41 Mn24 2.251 . S
O41 C34 1.241 . S
H42 C47 0.930 . S
H43 C50 0.930 . S
H44 C52 0.930 . S
H45 C46 1.016 . S
C46 H45 1.016 . S
C46 N53 1.284 1_655 S
C47 H42 0.930 . S
C47 C48 1.397 . S
C47 C49 1.361 1_565 S
C48 C47 1.397 . S
C48 C52 1.390 . S
C49 C47 1.361 1_545 S
C49 C50 1.393 . S
C49 N53 1.421 . S
C50 H43 0.930 . S
C50 C49 1.393 . S
C50 C51 1.399 1_545 S
C51 C50 1.399 1_565 S
C51 C52 1.381 . S
C52 H44 0.930 . S
C52 C48 1.390 . S
C52 C51 1.381 . S
N53 C46 1.284 1_455 S
N53 C49 1.421 . S
H54 C59 0.930 . S
H55 C62 0.930 . S
H56 C64 0.930 . S
H57 C58 1.016 . S
C58 H57 1.016 . S
C58 N65 1.286 . S
C59 H54 0.930 . S
C59 C60 1.397 . S
C59 C61 1.361 1_655 S
C60 C59 1.397 . S
C60 C64 1.390 . S
C61 C59 1.361 1_455 S
C61 C62 1.393 . S
C61 N65 1.413 . S
C62 H55 0.930 . S
C62 C61 1.393 . S
C62 C63 1.399 1_455 S
C63 C62 1.399 1_655 S
C63 C64 1.381 . S
C64 H56 0.930 . S
C64 C60 1.390 . S
C64 C63 1.381 . S
N65 C58 1.286 . S
N65 C61 1.413 . S
H66 C71 0.930 . S
H67 C74 0.930 . S
H68 C76 0.930 . S
H69 C70 1.016 . S
C70 H69 1.016 . S
C70 N77 1.286 . S
C71 H66 0.930 . S
C71 C72 1.397 . S
C71 C73 1.361 . S
C72 C71 1.397 . S
C72 C76 1.390 . S
C73 C71 1.361 . S
C73 C74 1.393 . S
C73 N77 1.413 . S
C74 H67 0.930 . S
C74 C73 1.393 . S
C74 C75 1.399 . S
C75 C74 1.399 . S
C75 C76 1.381 . S
C76 H68 0.930 . S
C76 C72 1.390 . S
C76 C75 1.381 . S
N77 C70 1.286 . S
N77 C73 1.413 . S
H78 C83 0.930 . S
H79 C86 0.930 . S
H80 C88 0.930 . S
H81 C82 1.016 . S
C82 H81 1.016 . S
C82 N89 1.286 . S
C83 H78 0.930 . S
C83 C84 1.397 . S
C83 C85 1.361 . S
C84 C83 1.397 . S
C84 C88 1.390 . S
C85 C83 1.361 . S
C85 C86 1.393 . S
C85 N89 1.413 . S
C86 H79 0.930 . S
C86 C85 1.393 . S
C86 C87 1.399 . S
C87 C86 1.399 . S
C87 C88 1.381 . S
C88 H80 0.930 . S
C88 C84 1.390 . S
C88 C87 1.381 . S
N89 C82 1.286 . S
N89 C85 1.413 . S
C90 C91 1.386 . S
C90 C92 1.383 . S
C90 H106 0.946 1_554 S
C91 C90 1.386 . S
C91 C95 1.383 . S
C92 C90 1.383 . S
C92 C93 1.402 . S
C92 H107 0.951 . S
C93 C92 1.402 . S
C93 C94 1.375 . S
C93 C96 1.481 . S
C94 C93 1.375 . S
C94 C95 1.367 . S
C94 H108 0.951 . S
C95 C91 1.383 . S
C95 C94 1.367 . S
C95 H109 0.950 . S
C96 C93 1.481 . S
C96 C97 1.297 . S
C96 H110 0.950 . S
C97 C96 1.297 . S
C97 C98 1.479 . S
C97 H111 0.950 . S
C98 C97 1.479 . S
C98 C99 1.375 . S
C98 C104 1.404 . S
C99 C98 1.375 . S
C99 C100 1.369 . S
C99 H112 0.950 . S
C100 C99 1.369 . S
C100 C101 1.392 . S
C100 H113 0.951 . S
C101 C100 1.392 . S
C101 C103 1.384 . S
H102 C104 0.949 . S
C103 C101 1.384 . S
C103 C104 1.385 . S
C103 H105 0.950 . S
C104 C98 1.404 . S
C104 H102 0.949 . S
C104 C103 1.385 . S
H105 C103 0.950 . S
H106 C90 0.946 1_556 S
H107 C92 0.951 . S
H108 C94 0.951 . S
H109 C95 0.950 . S
H110 C96 0.950 . S
H111 C97 0.950 . S
H112 C99 0.950 . S
H113 C100 0.951 . S
C114 C115 1.386 . S
C114 C116 1.383 . S
C114 H130 0.951 . S
C115 C114 1.386 . S
C115 C119 1.383 1_554 S
C116 C114 1.383 . S
C116 C117 1.402 1_554 S
C116 H131 0.951 . S
C117 C116 1.402 1_556 S
C117 C118 1.375 . S
C117 C120 1.481 . S
C118 C117 1.375 . S
C118 C119 1.367 . S
C118 H132 0.951 . S
C119 C115 1.383 1_556 S
C119 C118 1.367 . S
C119 H133 0.950 . S
C120 C117 1.481 . S
C120 C121 1.297 . S
C120 H134 0.950 . S
C121 C120 1.297 . S
C121 C122 1.479 . S
C121 H135 0.950 1_556 S
C122 C121 1.479 . S
C122 C123 1.375 1_556 S
C122 C128 1.404 . S
C123 C122 1.375 1_554 S
C123 C124 1.369 . S
C123 H136 0.950 . S
C124 C123 1.369 . S
C124 C125 1.392 1_554 S
C124 H137 0.951 . S
C125 C124 1.392 1_556 S
C125 C127 1.384 . S
H126 C128 0.949 . S
C127 C125 1.384 . S
C127 C128 1.385 . S
C127 H129 0.950 . S
C128 C122 1.404 . S
C128 H126 0.949 . S
C128 C127 1.385 . S
H129 C127 0.950 . S
H130 C114 0.951 . S
H131 C116 0.951 . S
H132 C118 0.951 . S
H133 C119 0.950 . S
H134 C120 0.950 . S
H135 C121 0.950 1_554 S
H136 C123 0.950 . S
H137 C124 0.951 . S
C138 C139 1.386 . S
C138 C140 1.383 . S
C138 H154 0.951 1_554 S
C139 C138 1.386 . S
C139 C143 1.383 . S
C140 C138 1.383 . S
C140 C141 1.402 . S
C140 H155 0.951 . S
C141 C140 1.402 . S
C141 C142 1.375 . S
C141 C144 1.481 . S
C142 C141 1.375 . S
C142 C143 1.367 . S
C142 H156 0.951 . S
C143 C139 1.383 . S
C143 C142 1.367 . S
C143 H157 0.950 . S
C144 C141 1.481 . S
C144 C145 1.297 . S
C144 H158 0.950 . S
C145 C144 1.297 . S
C145 C146 1.479 . S
C145 H159 0.950 . S
C146 C145 1.479 . S
C146 C147 1.375 . S
C146 C152 1.404 . S
C147 C146 1.375 . S
C147 C148 1.369 . S
C147 H160 0.950 . S
C148 C147 1.369 . S
C148 C149 1.392 . S
C148 H161 0.951 . S
C149 C148 1.392 . S
C149 C151 1.384 . S
H150 C152 0.949 . S
C151 C149 1.384 . S
C151 C152 1.385 . S
C151 H153 0.950 . S
C152 C146 1.404 . S
C152 H150 0.949 . S
C152 C151 1.385 . S
H153 C151 0.950 . S
H154 C138 0.951 1_556 S
H155 C140 0.951 . S
H156 C142 0.951 . S
H157 C143 0.950 . S
H158 C144 0.950 . S
H159 C145 0.950 . S
H160 C147 0.950 . S
H161 C148 0.951 . S
C162 C163 1.386 . S
C162 C164 1.383 . S
C162 H178 0.951 . S
C163 C162 1.386 . S
C163 C167 1.383 1_556 S
C164 C162 1.383 . S
C164 C165 1.402 . S
C164 H179 0.951 . S
C165 C164 1.402 . S
C165 C166 1.375 1_556 S
C165 C168 1.481 . S
C166 C165 1.375 1_554 S
C166 C167 1.367 . S
C166 H180 0.951 . S
C167 C163 1.383 1_554 S
C167 C166 1.367 . S
C167 H181 0.950 . S
C168 C165 1.481 . S
C168 C169 1.297 . S
C168 H182 0.950 1_556 S
C169 C168 1.297 . S
C169 C170 1.479 . S
C169 H183 0.950 . S
C170 C169 1.479 . S
C170 C171 1.375 . S
C170 C176 1.404 . S
C171 C170 1.375 . S
C171 C172 1.369 . S
C171 H184 0.950 . S
C172 C171 1.369 . S
C172 C173 1.392 . S
C172 H185 0.951 . S
C173 C172 1.392 . S
C173 C175 1.384 . S
H174 C176 0.949 1_554 S
C175 C173 1.384 . S
C175 C176 1.385 . S
C175 H177 0.950 1_556 S
C176 C170 1.404 . S
C176 H174 0.949 1_556 S
C176 C175 1.385 . S
H177 C175 0.950 1_554 S
H178 C162 0.951 . S
H179 C164 0.951 . S
H180 C166 0.951 . S
H181 C167 0.950 . S
H182 C168 0.950 1_554 S
H183 C169 0.950 . S
H184 C171 0.950 . S
H185 C172 0.951 . S
C186 C187 1.386 . S
C186 C188 1.383 . S
C186 H202 0.951 . S
C187 C186 1.386 . S
C187 C191 1.383 . S
C188 C186 1.383 . S
C188 C189 1.402 . S
C188 H203 0.951 . S
C189 C188 1.402 . S
C189 C190 1.375 . S
C189 C192 1.481 . S
C190 C189 1.375 . S
C190 C191 1.367 . S
C190 H204 0.951 . S
C191 C187 1.383 . S
C191 C190 1.367 . S
C191 H205 0.950 . S
C192 C189 1.481 . S
C192 C193 1.297 . S
C192 H206 0.950 . S
C193 C192 1.297 . S
C193 C194 1.479 . S
C193 H207 0.950 . S
C194 C193 1.479 . S
C194 C195 1.375 . S
C194 C200 1.404 . S
C195 C194 1.375 . S
C195 C196 1.369 . S
C195 H208 0.950 . S
C196 C195 1.369 . S
C196 C197 1.392 . S
C196 H209 0.951 . S
C197 C196 1.392 . S
C197 C199 1.384 . S
H198 C200 0.949 . S
C199 C197 1.384 . S
C199 C200 1.385 . S
C199 H201 0.950 . S
C200 C194 1.404 . S
C200 H198 0.949 . S
C200 C199 1.385 . S
H201 C199 0.950 . S
H202 C186 0.951 . S
H203 C188 0.951 . S
H204 C190 0.951 . S
H205 C191 0.950 . S
H206 C192 0.950 . S
H207 C193 0.950 . S
H208 C195 0.950 . S
H209 C196 0.951 . S
C210 C211 1.386 . S
C210 C212 1.383 . S
C210 H226 0.951 . S
C211 C210 1.386 . S
C211 C215 1.383 . S
C212 C210 1.383 . S
C212 C213 1.402 . S
C212 H227 0.951 . S
C213 C212 1.402 . S
C213 C214 1.375 . S
C213 C216 1.481 . S
C214 C213 1.375 . S
C214 C215 1.367 . S
C214 H228 0.951 . S
C215 C211 1.383 . S
C215 C214 1.367 . S
C215 H229 0.950 . S
C216 C213 1.481 . S
C216 C217 1.297 . S
C216 H230 0.950 . S
C217 C216 1.297 . S
C217 C218 1.479 . S
C217 H231 0.950 . S
C218 C217 1.479 . S
C218 C219 1.375 . S
C218 C224 1.404 . S
C219 C218 1.375 . S
C219 C220 1.369 . S
C219 H232 0.950 . S
C220 C219 1.369 . S
C220 C221 1.392 . S
C220 H233 0.951 . S
C221 C220 1.392 . S
C221 C223 1.384 . S
H222 C224 0.949 . S
C223 C221 1.384 . S
C223 C224 1.385 . S
C223 H225 0.950 . S
C224 C218 1.404 . S
C224 H222 0.949 . S
C224 C223 1.385 . S
H225 C223 0.950 . S
H226 C210 0.951 . S
H227 C212 0.951 . S
H228 C214 0.951 . S
H229 C215 0.950 . S
H230 C216 0.950 . S
H231 C217 0.950 . S
H232 C219 0.950 . S
H233 C220 0.951 . S
C234 C235 1.386 . S
C234 C236 1.383 . S
C234 H250 0.951 . S
C235 C234 1.386 . S
C235 C239 1.383 . S
C236 C234 1.383 . S
C236 C237 1.402 . S
C236 H251 0.951 . S
C237 C236 1.402 . S
C237 C238 1.375 . S
C237 C240 1.481 . S
C238 C237 1.375 . S
C238 C239 1.367 . S
C238 H252 0.951 . S
C239 C235 1.383 . S
C239 C238 1.367 . S
C239 H253 0.950 . S
C240 C237 1.481 . S
C240 C241 1.297 . S
C240 H254 0.950 . S
C241 C240 1.297 . S
C241 C242 1.479 . S
C241 H255 0.950 . S
C242 C241 1.479 . S
C242 C243 1.375 . S
C242 C248 1.404 . S
C243 C242 1.375 . S
C243 C244 1.369 . S
C243 H256 0.950 . S
C244 C243 1.369 . S
C244 C245 1.392 . S
C244 H257 0.951 . S
C245 C244 1.392 . S
C245 C247 1.384 . S
H246 C248 0.949 . S
C247 C245 1.384 . S
C247 C248 1.385 . S
C247 H249 0.950 . S
C248 C242 1.404 . S
C248 H246 0.949 . S
C248 C247 1.385 . S
H249 C247 0.950 . S
H250 C234 0.951 . S
H251 C236 0.951 . S
H252 C238 0.951 . S
H253 C239 0.950 . S
H254 C240 0.950 . S
H255 C241 0.950 . S
H256 C243 0.950 . S
H257 C244 0.951 . S
C258 C259 1.386 . S
C258 C260 1.383 . S
C258 H274 0.951 . S
C259 C258 1.386 . S
C259 C263 1.383 . S
C260 C258 1.383 . S
C260 C261 1.402 . S
C260 H275 0.951 . S
C261 C260 1.402 . S
C261 C262 1.375 . S
C261 C264 1.481 . S
C262 C261 1.375 . S
C262 C263 1.367 . S
C262 H276 0.951 . S
C263 C259 1.383 . S
C263 C262 1.367 . S
C263 H277 0.950 . S
C264 C261 1.481 . S
C264 C265 1.297 . S
C264 H278 0.950 . S
C265 C264 1.297 . S
C265 C266 1.479 . S
C265 H279 0.950 . S
C266 C265 1.479 . S
C266 C267 1.375 . S
C266 C272 1.404 . S
C267 C266 1.375 . S
C267 C268 1.369 . S
C267 H280 0.950 . S
C268 C267 1.369 . S
C268 C269 1.392 . S
C268 H281 0.951 . S
C269 C268 1.392 . S
C269 C271 1.384 . S
H270 C272 0.949 . S
C271 C269 1.384 . S
C271 C272 1.385 . S
C271 H273 0.950 . S
C272 C266 1.404 . S
C272 H270 0.949 . S
C272 C271 1.385 . S
H273 C271 0.950 . S
H274 C258 0.951 . S
H275 C260 0.951 . S
H276 C262 0.951 . S
H277 C263 0.950 . S
H278 C264 0.950 . S
H279 C265 0.950 . S
H280 C267 0.950 . S
H281 C268 0.951 . S
C282 C283 1.386 1_565 S
C282 C284 1.383 . S
C282 H298 0.951 . S
C283 C282 1.386 1_545 S
C283 C287 1.383 . S
C284 C282 1.383 . S
C284 C285 1.402 1_565 S
C284 H299 0.951 . S
C285 C284 1.402 1_545 S
C285 C286 1.375 . S
C285 C288 1.481 . S
C286 C285 1.375 . S
C286 C287 1.367 . S
C286 H300 0.951 . S
C287 C283 1.383 . S
C287 C286 1.367 . S
C287 H301 0.950 . S
C288 C285 1.481 . S
C288 C289 1.297 1_545 S
C288 H302 0.950 . S
C289 C288 1.297 1_565 S
C289 C290 1.479 . S
C289 H303 0.950 . S
C290 C289 1.479 . S
C290 C291 1.375 . S
C290 C296 1.404 1_565 S
C291 C290 1.375 . S
C291 C292 1.369 . S
C291 H304 0.950 . S
C292 C291 1.369 . S
C292 C293 1.392 . S
C292 H305 0.951 . S
C293 C292 1.392 . S
C293 C295 1.384 1_565 S
H294 C296 0.949 . S
C295 C293 1.384 1_545 S
C295 C296 1.385 . S
C295 H297 0.950 . S
C296 C290 1.404 1_545 S
C296 H294 0.949 . S
C296 C295 1.385 . S
H297 C295 0.950 . S
H298 C282 0.951 . S
H299 C284 0.951 . S
H300 C286 0.951 . S
H301 C287 0.950 . S
H302 C288 0.950 . S
H303 C289 0.950 . S
H304 C291 0.950 . S
H305 C292 0.951 . S
C306 C307 1.386 . S
C306 C308 1.383 . S
C306 H322 0.951 . S
C307 C306 1.386 . S
C307 C311 1.383 1_445 S
C308 C306 1.383 . S
C308 C309 1.402 . S
C308 H323 0.951 . S
C309 C308 1.402 . S
C309 C310 1.375 1_445 S
C309 C312 1.481 . S
C310 C309 1.375 1_665 S
C310 C311 1.367 . S
C310 H324 0.951 . S
C311 C307 1.383 1_665 S
C311 C310 1.367 . S
C311 H325 0.950 . S
C312 C309 1.481 . S
C312 C313 1.297 . S
C312 H326 0.950 1_445 S
C313 C312 1.297 . S
C313 C314 1.479 . S
C313 H327 0.950 . S
C314 C313 1.479 . S
C314 C315 1.375 . S
C314 C320 1.404 1_455 S
C315 C314 1.375 . S
C315 C316 1.369 . S
C315 H328 0.950 . S
C316 C315 1.369 . S
C316 C317 1.392 . S
C316 H329 0.951 . S
C317 C316 1.392 . S
C317 C319 1.384 1_455 S
H318 C320 0.949 1_565 S
C319 C317 1.384 1_655 S
C319 C320 1.385 . S
C319 H321 0.950 1_545 S
C320 C314 1.404 1_655 S
C320 H318 0.949 1_545 S
C320 C319 1.385 . S
H321 C319 0.950 1_565 S
H322 C306 0.951 . S
H323 C308 0.951 . S
H324 C310 0.951 . S
H325 C311 0.950 . S
H326 C312 0.950 1_665 S
H327 C313 0.950 . S
H328 C315 0.950 . S
H329 C316 0.951 . S
C330 C331 1.386 . S
C330 C332 1.383 . S
C330 H346 0.951 . S
C331 C330 1.386 . S
C331 C335 1.383 . S
C332 C330 1.383 . S
C332 C333 1.402 . S
C332 H347 0.951 . S
C333 C332 1.402 . S
C333 C334 1.375 . S
C333 C336 1.481 . S
C334 C333 1.375 . S
C334 C335 1.367 . S
C334 H348 0.951 . S
C335 C331 1.383 . S
C335 C334 1.367 . S
C335 H349 0.950 . S
C336 C333 1.481 . S
C336 C337 1.297 . S
C336 H350 0.950 . S
C337 C336 1.297 . S
C337 C338 1.479 . S
C337 H351 0.950 . S
C338 C337 1.479 . S
C338 C339 1.375 . S
C338 C344 1.404 . S
C339 C338 1.375 . S
C339 C340 1.369 . S
C339 H352 0.950 . S
C340 C339 1.369 . S
C340 C341 1.392 . S
C340 H353 0.951 . S
C341 C340 1.392 . S
C341 C343 1.384 . S
H342 C344 0.949 . S
C343 C341 1.384 . S
C343 C344 1.385 . S
C343 H345 0.950 . S
C344 C338 1.404 . S
C344 H342 0.949 . S
C344 C343 1.385 . S
H345 C343 0.950 . S
H346 C330 0.951 . S
H347 C332 0.951 . S
H348 C334 0.951 . S
H349 C335 0.950 . S
H350 C336 0.950 . S
H351 C337 0.950 . S
H352 C339 0.950 . S
H353 C340 0.951 . S
C354 C355 1.386 . S
C354 C356 1.383 . S
C354 H370 0.951 . S
C355 C354 1.386 . S
C355 C359 1.383 . S
C356 C354 1.383 . S
C356 C357 1.402 . S
C356 H371 0.951 . S
C357 C356 1.402 . S
C357 C358 1.375 . S
C357 C360 1.481 . S
C358 C357 1.375 . S
C358 C359 1.367 . S
C358 H372 0.951 . S
C359 C355 1.383 . S
C359 C358 1.367 . S
C359 H373 0.950 . S
C360 C357 1.481 . S
C360 C361 1.297 . S
C360 H374 0.950 . S
C361 C360 1.297 . S
C361 C362 1.479 . S
C361 H375 0.950 . S
C362 C361 1.479 . S
C362 C363 1.375 . S
C362 C368 1.404 . S
C363 C362 1.375 . S
C363 C364 1.369 . S
C363 H376 0.950 . S
C364 C363 1.369 . S
C364 C365 1.392 . S
C364 H377 0.951 . S
C365 C364 1.392 . S
C365 C367 1.384 . S
H366 C368 0.949 . S
C367 C365 1.384 . S
C367 C368 1.385 . S
C367 H369 0.950 . S
C368 C362 1.404 . S
C368 H366 0.949 . S
C368 C367 1.385 . S
H369 C367 0.950 . S
H370 C354 0.951 . S
H371 C356 0.951 . S
H372 C358 0.951 . S
H373 C359 0.950 . S
H374 C360 0.950 . S
H375 C361 0.950 . S
H376 C363 0.950 . S
H377 C364 0.951 . S
C101 C84 1.414 . S
C91 C16 1.250 . S
C115 C15 1.407 . S
C125 C70 1.352 . S
C139 C13 1.253 1_554 S
C149 C82 1.349 . S
C163 C14 1.400 . S
C173 C72 1.424 . S
C187 C37 1.308 . S
C197 C60 1.466 1_565 S
C211 C36 1.377 . S
C221 C46 1.334 . S
C245 C58 1.360 . S
C235 C34 1.288 . S
C269 C48 1.412 . S
C259 C35 1.389 . S
C283 C17 1.558 . S
C293 C51 1.608 . S
C307 C18 1.382 . S
C317 C63 1.391 1_455 S
C341 C75 1.608 . S
C331 C38 1.590 . S
C355 C39 1.382 . S
C365 C87 1.392 . S
