# Generated by pormake.
# Topology ant, (3,6)-cn, num edge types: 1
# Building blocks:
#     Node 0, Type 0, BuildingBlock: QEWDON_clean_linker_0, # of connection points: 3
#     Node 1, Type 0, BuildingBlock: QEWDON_clean_linker_0, # of connection points: 3
#     Node 2, Type 0, BuildingBlock: QEWDON_clean_linker_0, # of connection points: 3
#     Node 3, Type 0, BuildingBlock: QEWDON_clean_linker_0, # of connection points: 3
#     Node 4, Type 0, BuildingBlock: QEWDON_clean_linker_0, # of connection points: 3
#     Node 5, Type 0, BuildingBlock: QEWDON_clean_linker_0, # of connection points: 3
#     Node 6, Type 0, BuildingBlock: QEWDON_clean_linker_0, # of connection points: 3
#     Node 7, Type 0, BuildingBlock: QEWDON_clean_linker_0, # of connection points: 3
#     Node 8, Type 1, BuildingBlock: MIDCAF_clean_sbu_0, # of connection points: 6
#     Node 9, Type 1, BuildingBlock: MIDCAF_clean_sbu_0, # of connection points: 6
#     Node 10, Type 1, BuildingBlock: MIDCAF_clean_sbu_0, # of connection points: 6
#     Node 11, Type 1, BuildingBlock: MIDCAF_clean_sbu_0, # of connection points: 6
#     Edge 12, Type (0, 1), BuildingBlock: ZUJKAS_clean_linker_0, # of connection points: 2
#     Edge 13, Type (0, 1), BuildingBlock: ZUJKAS_clean_linker_0, # of connection points: 2
#     Edge 14, Type (0, 1), BuildingBlock: ZUJKAS_clean_linker_0, # of connection points: 2
#     Edge 15, Type (0, 1), BuildingBlock: ZUJKAS_clean_linker_0, # of connection points: 2
#     Edge 16, Type (0, 1), BuildingBlock: ZUJKAS_clean_linker_0, # of connection points: 2
#     Edge 17, Type (0, 1), BuildingBlock: ZUJKAS_clean_linker_0, # of connection points: 2
#     Edge 18, Type (0, 1), BuildingBlock: ZUJKAS_clean_linker_0, # of connection points: 2
#     Edge 19, Type (0, 1), BuildingBlock: ZUJKAS_clean_linker_0, # of connection points: 2
#     Edge 20, Type (0, 1), BuildingBlock: ZUJKAS_clean_linker_0, # of connection points: 2
#     Edge 21, Type (0, 1), BuildingBlock: ZUJKAS_clean_linker_0, # of connection points: 2
#     Edge 22, Type (0, 1), BuildingBlock: ZUJKAS_clean_linker_0, # of connection points: 2
#     Edge 23, Type (0, 1), BuildingBlock: ZUJKAS_clean_linker_0, # of connection points: 2
#     Edge 24, Type (0, 1), BuildingBlock: ZUJKAS_clean_linker_0, # of connection points: 2
#     Edge 25, Type (0, 1), BuildingBlock: ZUJKAS_clean_linker_0, # of connection points: 2
#     Edge 26, Type (0, 1), BuildingBlock: ZUJKAS_clean_linker_0, # of connection points: 2
#     Edge 27, Type (0, 1), BuildingBlock: ZUJKAS_clean_linker_0, # of connection points: 2
#     Edge 28, Type (0, 1), BuildingBlock: ZUJKAS_clean_linker_0, # of connection points: 2
#     Edge 29, Type (0, 1), BuildingBlock: ZUJKAS_clean_linker_0, # of connection points: 2
#     Edge 30, Type (0, 1), BuildingBlock: ZUJKAS_clean_linker_0, # of connection points: 2
#     Edge 31, Type (0, 1), BuildingBlock: ZUJKAS_clean_linker_0, # of connection points: 2
#     Edge 32, Type (0, 1), BuildingBlock: ZUJKAS_clean_linker_0, # of connection points: 2
#     Edge 33, Type (0, 1), BuildingBlock: ZUJKAS_clean_linker_0, # of connection points: 2
#     Edge 34, Type (0, 1), BuildingBlock: ZUJKAS_clean_linker_0, # of connection points: 2
#     Edge 35, Type (0, 1), BuildingBlock: ZUJKAS_clean_linker_0, # of connection points: 2
# Relax obj value: 0.063
# Max RMSD: 0.161
# Mean RMSD: 0.133
data_MOF--net-ant--node1-MIDCAF_clean_sbu_0--node2-QEWDON_clean_linker_0--edge1-ZUJKAS_clean_linker_0
_symmetry_space_group_name_H-M    P1
_symmetry_Int_Tables_number       1
_symmetry_cell_setting            triclinic
loop_
_symmetry_equiv_pos_as_xyz
'x, y, z'
_cell_length_a     39.776986
_cell_length_b     39.25883
_cell_length_c     90.612473
_cell_angle_alpha  96.118384
_cell_angle_beta   100.35411
_cell_angle_gamma 89.434986
loop_
_atom_site_label
_atom_site_type_symbol
_atom_site_fract_x
_atom_site_fract_y
_atom_site_fract_z
_atom_type_partial_charge
H0 H 0.14682 0.19545 0.06509 0.0
C1 C 0.14874 0.22298 0.06773 0.0
C2 C 0.1476 0.24375 0.05593 0.0
C3 C 0.15134 0.23751 0.0828 0.0
H4 H 0.1468 0.29579 0.05022 0.0
C5 C 0.14859 0.27959 0.05929 0.0
C6 C 0.15128 0.29487 0.07419 0.0
C7 C 0.15342 0.27363 0.0859 0.0
C8 C 0.14875 0.21525 0.09504 0.0
H9 H 0.15568 0.2854 0.0974 0.0
C10 C 0.16178 0.18143 0.09481 0.0
C11 C 0.15593 0.15996 0.10566 0.0
C12 C 0.13082 0.22714 0.10663 0.0
H13 H 0.11955 0.25235 0.10705 0.0
C14 C 0.12592 0.20624 0.11758 0.0
H15 H 0.1757 0.17147 0.08608 0.0
C16 C 0.1381 0.17285 0.11705 0.0
H17 H 0.13343 0.15691 0.12554 0.0
H18 H 0.11195 0.21576 0.12635 0.0
H19 H 0.05202 0.7899 0.31431 0.0
C20 C 0.07856 0.78881 0.31969 0.0
C21 C 0.10317 0.7778 0.31089 0.0
C22 C 0.08811 0.79958 0.33521 0.0
H23 H 0.15701 0.77019 0.31102 0.0
C24 C 0.13773 0.7773 0.31782 0.0
C25 C 0.14811 0.78784 0.33325 0.0
C26 C 0.12315 0.79886 0.34188 0.0
C27 C 0.06191 0.81412 0.34409 0.0
H28 H 0.13113 0.80675 0.35381 0.0
C29 C 0.0278 0.80138 0.34132 0.0
C30 C 0.00297 0.81733 0.34906 0.0
C31 C 0.07063 0.8425 0.35496 0.0
H32 H 0.09607 0.85363 0.35717 0.0
C33 C 0.0464 0.85774 0.36283 0.0
H34 H 0.02038 0.77956 0.33304 0.0
C35 C 0.01289 0.84543 0.35989 0.0
H36 H 0.99465 0.85789 0.36619 0.0
H37 H 0.05355 0.87956 0.37114 0.0
H38 H 0.65238 0.69272 0.5676 0.0
C39 C 0.65482 0.72032 0.56978 0.0
C40 C 0.64917 0.74004 0.55751 0.0
C41 C 0.66191 0.73608 0.58474 0.0
H42 H 0.64632 0.79118 0.55077 0.0
C43 C 0.6503 0.77596 0.56023 0.0
C44 C 0.65746 0.79249 0.57498 0.0
C45 C 0.66396 0.77233 0.58713 0.0
C46 C 0.66507 0.71505 0.59785 0.0
H47 H 0.66994 0.78511 0.59848 0.0
C48 C 0.67821 0.68125 0.59721 0.0
C49 C 0.68009 0.66178 0.60961 0.0
C50 C 0.6536 0.72854 0.6111 0.0
H51 H 0.64209 0.75359 0.61197 0.0
C52 C 0.65583 0.7096 0.62338 0.0
H53 H 0.6874 0.67017 0.58723 0.0
C54 C 0.66892 0.67659 0.62268 0.0
H55 H 0.66941 0.66224 0.63228 0.0
H56 H 0.64678 0.72039 0.63344 0.0
H57 H 0.54389 0.29576 0.80895 0.0
C58 C 0.5705 0.29338 0.81403 0.0
C59 C 0.59435 0.28352 0.80471 0.0
C60 C 0.58095 0.30097 0.82974 0.0
H61 H 0.64762 0.27517 0.80388 0.0
C62 C 0.62906 0.28149 0.81115 0.0
C63 C 0.6404 0.28941 0.82671 0.0
C64 C 0.61616 0.2988 0.83594 0.0
C65 C 0.55556 0.31316 0.83949 0.0
H66 H 0.62486 0.3042 0.84799 0.0
C67 C 0.5213 0.30079 0.83651 0.0
C68 C 0.49744 0.31396 0.84546 0.0
C69 C 0.56535 0.33856 0.85166 0.0
H70 H 0.59088 0.34949 0.85409 0.0
C71 C 0.54216 0.35097 0.86071 0.0
H72 H 0.51308 0.28132 0.8272 0.0
C73 C 0.50859 0.33885 0.85768 0.0
H74 H 0.49131 0.34897 0.865 0.0
H75 H 0.5502 0.37039 0.87007 0.0
H76 H 0.05101 0.7616 0.93463 0.0
C77 C 0.04864 0.73707 0.92779 0.0
C78 C 0.06143 0.70738 0.9343 0.0
C79 C 0.03145 0.73494 0.91267 0.0
H80 H 0.06552 0.65244 0.93046 0.0
C81 C 0.05729 0.67563 0.92541 0.0
C82 C 0.04065 0.67281 0.91033 0.0
C83 C 0.02783 0.70252 0.90402 0.0
C84 C 0.01428 0.76564 0.90629 0.0
H85 H 0.01484 0.70029 0.89237 0.0
C86 C 0.02962 0.79877 0.90904 0.0
C87 C 0.0119 0.82727 0.90314 0.0
C88 C 0.98121 0.76173 0.89759 0.0
H89 H 0.96827 0.73708 0.89554 0.0
C90 C 0.96396 0.78957 0.89163 0.0
H91 H 0.05499 0.80239 0.91576 0.0
C92 C 0.97908 0.82197 0.89433 0.0
H93 H 0.96505 0.84298 0.88937 0.0
H94 H 0.93859 0.78604 0.88491 0.0
H95 H 0.69118 0.79724 0.19009 0.0
C96 C 0.66439 0.79563 0.18493 0.0
C97 C 0.64013 0.78753 0.19357 0.0
C98 C 0.65415 0.80252 0.16985 0.0
H99 H 0.58657 0.78161 0.19395 0.0
C100 C 0.60526 0.78649 0.18706 0.0
C101 C 0.59412 0.79346 0.17208 0.0
C102 C 0.61883 0.80115 0.16353 0.0
C103 C 0.67992 0.81344 0.16102 0.0
H104 H 0.61049 0.80592 0.15189 0.0
C105 C 0.71311 0.79906 0.16223 0.0
C106 C 0.73684 0.81016 0.15376 0.0
C107 C 0.67138 0.83943 0.15148 0.0
H108 H 0.64675 0.8518 0.15057 0.0
C109 C 0.69471 0.85055 0.14323 0.0
H110 H 0.72021 0.77885 0.16942 0.0
C111 C 0.72706 0.83613 0.14433 0.0
H112 H 0.74472 0.84581 0.13793 0.0
H113 H 0.68777 0.87073 0.13602 0.0
H114 H 0.55475 0.25605 0.43379 0.0
C115 C 0.55267 0.23157 0.4269 0.0
C116 C 0.56686 0.20213 0.43317 0.0
C117 C 0.53408 0.22913 0.41205 0.0
H118 H 0.57251 0.14745 0.42921 0.0
C119 C 0.56305 0.1704 0.42425 0.0
C120 C 0.5448 0.16727 0.40941 0.0
C121 C 0.53033 0.19677 0.40339 0.0
C122 C 0.5149 0.25919 0.40616 0.0
H123 H 0.51576 0.19447 0.392 0.0
C124 C 0.53023 0.29201 0.40706 0.0
C125 C 0.51101 0.31963 0.40109 0.0
C126 C 0.48015 0.2548 0.3997 0.0
H127 H 0.46753 0.23024 0.39911 0.0
C128 C 0.46102 0.28206 0.39419 0.0
H129 H 0.55705 0.29571 0.41192 0.0
C130 C 0.4762 0.3141 0.39485 0.0
H131 H 0.46045 0.33478 0.39054 0.0
H132 H 0.4342 0.27833 0.38937 0.0
H133 H 0.18357 0.28513 0.68511 0.0
C134 C 0.15689 0.28351 0.6798 0.0
C135 C 0.13267 0.27418 0.6882 0.0
C136 C 0.14678 0.29152 0.66486 0.0
H137 H 0.07932 0.2667 0.68837 0.0
C138 C 0.09783 0.27355 0.68173 0.0
C139 C 0.08656 0.28267 0.66708 0.0
C140 C 0.11136 0.29059 0.65858 0.0
C141 C 0.17282 0.3034 0.6563 0.0
H142 H 0.10289 0.29692 0.64718 0.0
C143 C 0.20713 0.29159 0.65856 0.0
C144 C 0.23162 0.305 0.65108 0.0
C145 C 0.16372 0.32831 0.64623 0.0
H146 H 0.13837 0.33909 0.6445 0.0
C147 C 0.18746 0.34064 0.63848 0.0
H148 H 0.21502 0.27253 0.66625 0.0
C149 C 0.22102 0.32919 0.64087 0.0
H150 H 0.23881 0.33942 0.63467 0.0
H151 H 0.1799 0.35964 0.63073 0.0
Zn152 Zn 0.19437 0.70298 0.14351 0.0
Zn153 Zn 0.11444 0.77019 0.11386 0.0
Zn154 Zn 0.15447 0.7364 0.12726 0.0
C155 C 0.13793 0.72552 0.09262 0.0
C156 C 0.16394 0.81573 0.12631 0.0
O157 O 0.13306 0.73299 0.14813 0.0
O158 O 0.17924 0.71658 0.16299 0.0
C159 C 0.16741 0.65597 0.11953 0.0
O160 O 0.14436 0.70859 0.10422 0.0
O161 O 0.12816 0.75612 0.09423 0.0
O162 O 0.13169 0.81576 0.12397 0.0
O163 O 0.17969 0.7868 0.12623 0.0
O164 O 0.18242 0.65685 0.13308 0.0
O165 O 0.15649 0.68414 0.1142 0.0
O166 O 0.20575 0.76405 0.13155 0.0
O167 O 0.23781 0.72191 0.14029 0.0
C168 C 0.23556 0.75107 0.13559 0.0
O169 O 0.10616 0.74398 0.13768 0.0
O170 O 0.06976 0.75393 0.11726 0.0
C171 C 0.14884 0.72707 0.16132 0.0
C172 C 0.07502 0.7475 0.13081 0.0
Zn173 Zn 0.55176 0.69969 0.34859 0.0
Zn174 Zn 0.6243 0.77888 0.39256 0.0
Zn175 Zn 0.58614 0.74016 0.37085 0.0
C176 C 0.56485 0.81616 0.38366 0.0
C177 C 0.66408 0.76789 0.3704 0.0
O178 O 0.5803 0.6884 0.37903 0.0
O179 O 0.55852 0.65615 0.35805 0.0
C180 C 0.50696 0.75232 0.35659 0.0
O181 O 0.55688 0.78849 0.37468 0.0
O182 O 0.59298 0.81828 0.39276 0.0
O183 O 0.66562 0.78295 0.38353 0.0
O184 O 0.63643 0.75157 0.36377 0.0
O185 O 0.50759 0.72444 0.34826 0.0
O186 O 0.53449 0.76381 0.3655 0.0
O187 O 0.61302 0.73782 0.35111 0.0
O188 O 0.5786 0.70678 0.33283 0.0
C189 C 0.60534 0.72478 0.33721 0.0
O190 O 0.59546 0.71168 0.39119 0.0
O191 O 0.62628 0.74828 0.40858 0.0
C192 C 0.57053 0.65876 0.372 0.0
C193 C 0.61128 0.71971 0.40483 0.0
Zn194 Zn 0.60331 0.26636 0.6047 0.0
Zn195 Zn 0.6872 0.20253 0.6424 0.0
Zn196 Zn 0.64733 0.23472 0.62251 0.0
C197 C 0.72616 0.25723 0.63696 0.0
C198 C 0.67084 0.1553 0.61662 0.0
O199 O 0.59811 0.24547 0.63191 0.0
O200 O 0.56493 0.27462 0.61553 0.0
C201 C 0.66266 0.30743 0.61123 0.0
O202 O 0.69803 0.26284 0.62794 0.0
O203 O 0.72783 0.23274 0.64501 0.0
O204 O 0.68772 0.15806 0.6299 0.0
O205 O 0.65426 0.18136 0.61155 0.0
O206 O 0.63283 0.30575 0.60352 0.0
O207 O 0.67357 0.28317 0.61939 0.0
O208 O 0.63698 0.20188 0.60055 0.0
O209 O 0.59674 0.23108 0.58728 0.0
C210 C 0.61615 0.2055 0.58816 0.0
O211 O 0.62345 0.23352 0.64297 0.0
O212 O 0.65995 0.20559 0.65867 0.0
C213 C 0.56953 0.26076 0.62765 0.0
C214 C 0.63227 0.22156 0.65583 0.0
Zn215 Zn 0.04495 0.19745 0.84706 0.0
Zn216 Zn 0.11708 0.2866 0.88468 0.0
Zn217 Zn 0.08057 0.24284 0.86709 0.0
C218 C 0.09967 0.2381 0.90231 0.0
C219 C 0.06126 0.32244 0.87237 0.0
O220 O 0.10637 0.23506 0.84709 0.0
O221 O 0.07272 0.1984 0.83094 0.0
C222 C 0.06465 0.16443 0.87316 0.0
O223 O 0.09083 0.22139 0.88915 0.0
O224 O 0.10952 0.26889 0.90347 0.0
O225 O 0.09192 0.32775 0.87869 0.0
O226 O 0.05005 0.29146 0.86835 0.0
O227 O 0.04937 0.15855 0.85966 0.0
O228 O 0.07735 0.1945 0.87821 0.0
O229 O 0.02801 0.26462 0.86095 0.0
O230 O 0.00128 0.22303 0.84483 0.0
C231 C 0.00057 0.25204 0.85229 0.0
O232 O 0.13035 0.25095 0.85895 0.0
O233 O 0.16198 0.28077 0.8785 0.0
C234 C 0.09873 0.21781 0.83396 0.0
C235 C 0.15933 0.26482 0.8655 0.0
H236 H 0.19267 0.33663 0.09625 0.0
H237 H 0.1918 0.39945 0.10079 0.0
H238 H 0.10734 0.40222 0.06379 0.0
H239 H 0.10796 0.33958 0.05919 0.0
H240 H 0.19545 0.44817 0.07625 0.0
H241 H 0.07899 0.46035 0.10253 0.0
H242 H 0.1047 0.42213 0.10294 0.0
H243 H 0.0779 0.43111 0.08571 0.0
C244 C 0.17375 0.3506 0.08916 0.0
C245 C 0.15047 0.33303 0.07733 0.0
C246 C 0.17337 0.38649 0.09172 0.0
C247 C 0.14941 0.40551 0.08267 0.0
C248 C 0.12594 0.38808 0.07096 0.0
H249 H 0.11407 0.62897 0.09747 0.0
H250 H 0.10809 0.56917 0.08562 0.0
C251 C 0.1265 0.35227 0.06829 0.0
C252 C 0.14945 0.44362 0.08528 0.0
H253 H 0.10706 0.51139 0.10012 0.0
C254 C 0.17604 0.46203 0.0814 0.0
C255 C 0.12376 0.46171 0.09172 0.0
C256 C 0.09468 0.44302 0.09606 0.0
C257 C 0.17804 0.49799 0.08407 0.0
C258 C 0.15332 0.5161 0.09125 0.0
C259 C 0.12601 0.49769 0.09462 0.0
C260 C 0.15758 0.55328 0.09689 0.0
C261 C 0.20672 0.5162 0.07917 0.0
C262 C 0.18729 0.56439 0.10703 0.0
C263 C 0.19077 0.59825 0.11359 0.0
C264 C 0.16457 0.62211 0.11032 0.0
C265 C 0.13503 0.61144 0.09989 0.0
C266 C 0.13148 0.57719 0.09328 0.0
H267 H 0.21495 0.50147 0.06929 0.0
H268 H 0.19914 0.54225 0.07619 0.0
H269 H 0.22909 0.51858 0.08852 0.0
H270 H 0.20742 0.54651 0.11036 0.0
H271 H 0.21378 0.60553 0.12166 0.0
H272 H 0.97753 0.75173 0.34738 0.0
H273 H 0.91756 0.73442 0.34576 0.0
H274 H 0.88654 0.8394 0.34287 0.0
H275 H 0.94591 0.85659 0.34427 0.0
H276 H 0.87707 0.75687 0.36647 0.0
H277 H 0.81528 0.7896 0.31017 0.0
H278 H 0.86105 0.78556 0.31543 0.0
H279 H 0.84026 0.82463 0.3209 0.0
C280 C 0.95778 0.77092 0.34602 0.0
C281 C 0.96653 0.80555 0.34601 0.0
C282 C 0.92353 0.76105 0.34517 0.0
C283 C 0.89732 0.78551 0.344 0.0
C284 C 0.90601 0.81986 0.34344 0.0
H285 H 0.71283 0.81765 0.37575 0.0
H286 H 0.76774 0.81702 0.36731 0.0
C287 C 0.9401 0.82973 0.3444 0.0
C288 C 0.86148 0.77618 0.34493 0.0
H289 H 0.77799 0.78615 0.32838 0.0
C290 C 0.85548 0.76256 0.35796 0.0
C291 C 0.83311 0.78346 0.33384 0.0
C292 C 0.83772 0.79629 0.31923 0.0
C293 C 0.8221 0.75801 0.36059 0.0
C294 C 0.79387 0.7673 0.34996 0.0
C295 C 0.79966 0.77916 0.33655 0.0
C296 C 0.75879 0.76845 0.35354 0.0
C297 C 0.81709 0.74469 0.37506 0.0
C298 C 0.73506 0.74161 0.3483 0.0
C299 C 0.7034 0.7418 0.3532 0.0
C300 C 0.69499 0.76896 0.36331 0.0
C301 C 0.71843 0.79629 0.36799 0.0
C302 C 0.74987 0.79604 0.36316 0.0
H303 H 0.84089 0.73362 0.38101 0.0
H304 H 0.80898 0.76602 0.38267 0.0
H305 H 0.79658 0.72482 0.37274 0.0
H306 H 0.74152 0.72002 0.34089 0.0
H307 H 0.6862 0.72011 0.34958 0.0
H308 H 0.66329 0.60974 0.58669 0.0
H309 H 0.67494 0.54841 0.58777 0.0
H310 H 0.7347 0.57036 0.63237 0.0
H311 H 0.72329 0.63149 0.63137 0.0
H312 H 0.73711 0.50811 0.59389 0.0
H313 H 0.65709 0.50656 0.63827 0.0
H314 H 0.65652 0.54167 0.62689 0.0
H315 H 0.69151 0.53735 0.64213 0.0
C316 C 0.67956 0.60158 0.59658 0.0
C317 C 0.69196 0.62551 0.60902 0.0
C318 C 0.68608 0.5665 0.59721 0.0
C319 C 0.7051 0.5547 0.61028 0.0
C320 C 0.71936 0.57875 0.6223 0.0
H321 H 0.70678 0.3431 0.63464 0.0
H322 H 0.72642 0.40268 0.63532 0.0
C323 C 0.71283 0.61371 0.62169 0.0
C324 C 0.70802 0.51727 0.61176 0.0
H325 H 0.68161 0.45455 0.63065 0.0
C326 C 0.72519 0.49641 0.60199 0.0
C327 C 0.69278 0.50198 0.62244 0.0
C328 C 0.6732 0.52288 0.63298 0.0
C329 C 0.727 0.46067 0.60246 0.0
C330 C 0.71054 0.44521 0.61272 0.0
C331 C 0.69446 0.46628 0.62285 0.0
C332 C 0.70551 0.40735 0.61184 0.0
C333 C 0.74644 0.43983 0.59187 0.0
C334 C 0.68821 0.38975 0.59838 0.0
C335 C 0.67713 0.35602 0.598 0.0
C336 C 0.68286 0.33891 0.61109 0.0
C337 C 0.70231 0.35549 0.62435 0.0
C338 C 0.71329 0.38961 0.62476 0.0
H339 H 0.76756 0.45512 0.58925 0.0
H340 H 0.75728 0.41638 0.59667 0.0
H341 H 0.72888 0.43207 0.58108 0.0
H342 H 0.68113 0.40282 0.58835 0.0
H343 H 0.66213 0.34396 0.58762 0.0
H344 H 0.67862 0.33867 0.84628 0.0
H345 H 0.74111 0.34115 0.85411 0.0
H346 H 0.74925 0.24301 0.8288 0.0
H347 H 0.68703 0.24033 0.82097 0.0
H348 H 0.79134 0.25371 0.85976 0.0
H349 H 0.80671 0.35563 0.82309 0.0
H350 H 0.77597 0.36224 0.83547 0.0
H351 H 0.7687 0.32913 0.81999 0.0
C352 C 0.6937 0.31738 0.84259 0.0
C353 C 0.67783 0.28936 0.83294 0.0
C354 C 0.72942 0.31897 0.84697 0.0
C355 C 0.7499 0.29243 0.84191 0.0
C356 C 0.734 0.26385 0.83279 0.0
H357 H 0.95059 0.25241 0.82769 0.0
H358 H 0.89096 0.26868 0.82703 0.0
C359 C 0.69843 0.26239 0.82829 0.0
C360 C 0.78792 0.29462 0.84558 0.0
H361 H 0.8569 0.33259 0.83602 0.0
C362 C 0.80573 0.27134 0.8548 0.0
C363 C 0.80664 0.31747 0.83898 0.0
C364 C 0.78874 0.34251 0.82876 0.0
C365 C 0.84167 0.26972 0.85728 0.0
C366 C 0.86037 0.29199 0.85037 0.0
C367 C 0.84259 0.31584 0.84145 0.0
C368 C 0.89776 0.28763 0.85067 0.0
C369 C 0.85936 0.24302 0.86665 0.0
C370 C 0.92189 0.29422 0.86408 0.0
C371 C 0.95635 0.28527 0.86444 0.0
C372 C 0.96704 0.26935 0.85144 0.0
C373 C 0.94316 0.26469 0.83789 0.0
C374 C 0.90901 0.27394 0.83749 0.0
H375 H 0.84096 0.22515 0.86978 0.0
H376 H 0.8771 0.22791 0.86041 0.0
H377 H 0.87472 0.25587 0.87718 0.0
H378 H 0.91382 0.30499 0.87437 0.0
H379 H 0.97403 0.28863 0.87508 0.0
H380 H 0.08818 0.62321 0.90776 0.0
H381 H 0.07842 0.56329 0.89752 0.0
H382 H 0.97105 0.58317 0.88408 0.0
H383 H 0.98089 0.64359 0.8942 0.0
H384 H 0.03765 0.51955 0.90821 0.0
H385 H 0.9931 0.52514 0.84676 0.0
H386 H 0.01451 0.56076 0.85898 0.0
H387 H 0.97047 0.55151 0.85911 0.0
C388 C 0.06259 0.61497 0.90237 0.0
C389 C 0.0353 0.63811 0.9018 0.0
C390 C 0.057 0.58068 0.89654 0.0
C391 C 0.024 0.56859 0.89 0.0
C392 C -0.00317 0.59192 0.88885 0.0
H393 H 0.00562 0.34363 0.88479 0.0
H394 H 0.9859 0.40318 0.88747 0.0
C395 C 0.00247 0.62645 0.89462 0.0
C396 C 0.01825 0.53111 0.88559 0.0
H397 H -0.0046 0.47048 0.85548 0.0
C398 C 0.02806 0.50882 0.8967 0.0
C399 C 0.00571 0.51712 0.87058 0.0
C400 C -0.00446 0.53975 0.8581 0.0
C401 C 0.02712 0.47308 0.89317 0.0
C402 C 0.01511 0.45895 0.8781 0.0
C403 C 0.00413 0.48123 0.86705 0.0
C404 C 0.01876 0.42171 0.87335 0.0
C405 C 0.04099 0.45092 0.90548 0.0
C406 C 0.04145 0.41174 0.86352 0.0
C407 C 0.05208 0.37777 0.86176 0.0
C408 C 0.04004 0.35296 0.86967 0.0
C409 C 0.01471 0.36207 0.8783 0.0
C410 C 0.00393 0.39624 0.88004 0.0
H411 H 0.05514 0.46616 0.91571 0.0
H412 H 0.01949 0.43759 0.9088 0.0
H413 H 0.05846 0.43123 0.90146 0.0
H414 H 0.05321 0.43075 0.85818 0.0
H415 H 0.072 0.37147 0.85522 0.0
H416 H 0.7834 0.79644 0.17891 0.0
H417 H 0.8439 0.78077 0.17998 0.0
H418 H 0.83042 0.77661 0.13158 0.0
H419 H 0.7703 0.7915 0.13037 0.0
H420 H 0.87584 0.71874 0.15902 0.0
H421 H 0.90876 0.85409 0.15429 0.0
H422 H 0.87275 0.84262 0.16247 0.0
H423 H 0.87032 0.83647 0.14241 0.0
C424 C 0.79316 0.79141 0.16848 0.0
C425 C 0.77201 0.79565 0.15457 0.0
C426 C 0.82776 0.78264 0.16912 0.0
C427 C 0.84173 0.77789 0.15586 0.0
C428 C 0.82028 0.78042 0.14195 0.0
H429 H 0.01678 0.71117 0.12023 0.0
H430 H 0.96265 0.71647 0.12942 0.0
C431 C 0.78589 0.78907 0.1413 0.0
C432 C 0.87901 0.77232 0.15632 0.0
H433 H 0.95078 0.81247 0.15064 0.0
C434 C 0.89241 0.7393 0.15743 0.0
C435 C 0.9007 0.79918 0.15436 0.0
C436 C 0.88766 0.83522 0.15339 0.0
C437 C 0.92657 0.73219 0.15596 0.0
C438 C 0.94774 0.7587 0.15312 0.0
C439 C 0.93471 0.79207 0.15279 0.0
C440 C 0.98211 0.75195 0.14898 0.0
C441 C 0.93953 0.69622 0.15725 0.0
C442 C 0.01143 0.77004 0.15688 0.0
C443 C 0.04262 0.76691 0.15162 0.0
C444 C 0.04498 0.74575 0.13832 0.0
C445 C 0.01589 0.72709 0.13068 0.0
C446 C 0.98491 0.73003 0.13596 0.0
H447 H 0.92502 0.68228 0.16416 0.0
H448 H 0.93616 0.68197 0.14582 0.0
H449 H 0.9671 0.69622 0.16234 0.0
H450 H 0.00989 0.78744 0.16685 0.0
H451 H 0.06438 0.7823 0.15749 0.0
H452 H 0.55463 0.35828 0.42388 0.0
H453 H 0.57256 0.41837 0.42417 0.0
H454 H 0.51883 0.41948 0.37849 0.0
H455 H 0.50159 0.35987 0.37797 0.0
H456 H 0.60774 0.45212 0.40152 0.0
H457 H 0.47737 0.49923 0.40556 0.0
H458 H 0.4924 0.45807 0.41111 0.0
H459 H 0.47899 0.46356 0.3915 0.0
C460 C 0.54721 0.37117 0.41382 0.0
C461 C 0.52621 0.35433 0.40099 0.0
C462 C 0.55729 0.40556 0.41403 0.0
C463 C 0.54644 0.42362 0.40144 0.0
C464 C 0.52697 0.4063 0.38843 0.0
H465 H 0.58767 0.59616 0.36035 0.0
H466 H 0.5864 0.54164 0.37084 0.0
C467 C 0.5171 0.37216 0.38817 0.0
C468 C 0.55432 0.46076 0.40171 0.0
H469 H 0.51497 0.53795 0.39775 0.0
C470 C 0.58762 0.47104 0.40099 0.0
C471 C 0.5282 0.4856 0.4012 0.0
C472 C 0.49224 0.47625 0.40251 0.0
C473 C 0.59496 0.50503 0.39881 0.0
C474 C 0.56827 0.52929 0.39719 0.0
C475 C 0.53546 0.51946 0.39892 0.0
C476 C 0.57276 0.56342 0.39189 0.0
C477 C 0.63112 0.51447 0.3979 0.0
C478 C 0.56535 0.59417 0.40016 0.0
C479 C 0.56616 0.62571 0.39413 0.0
C480 C 0.57386 0.62689 0.37965 0.0
C481 C 0.58181 0.59616 0.37157 0.0
C482 C 0.58135 0.56491 0.37762 0.0
H483 H 0.64985 0.49755 0.40413 0.0
H484 H 0.63428 0.51133 0.38591 0.0
H485 H 0.63713 0.54151 0.40251 0.0
H486 H 0.55817 0.59367 0.41112 0.0
H487 H 0.55905 0.64879 0.40043 0.0
H488 H 0.03665 0.3068 0.68272 0.0
H489 H 0.97529 0.30893 0.67391 0.0
H490 H 0.98896 0.27041 0.62903 0.0
H491 H 0.0506 0.2661 0.63802 0.0
H492 H 0.93641 0.34353 0.65408 0.0
H493 H 0.91735 0.20486 0.63474 0.0
H494 H 0.95724 0.22196 0.64553 0.0
H495 H 0.94653 0.2259 0.62564 0.0
C496 C 0.02675 0.29806 0.67101 0.0
C497 C 0.0489 0.28551 0.6612 0.0
C498 C 0.99147 0.29974 0.66593 0.0
C499 C 0.97706 0.28922 0.65084 0.0
C500 C -0.00088 0.27784 0.64083 0.0
H501 H 0.75573 0.26995 0.61301 0.0
H502 H 0.81668 0.28312 0.61423 0.0
C503 C 0.03457 0.27582 0.64596 0.0
C504 C 0.93903 0.29015 0.64587 0.0
H505 H 0.86863 0.23964 0.63134 0.0
C506 C 0.92171 0.3208 0.649 0.0
C507 C 0.9195 0.2606 0.6392 0.0
C508 C 0.93599 0.22638 0.63619 0.0
C509 C 0.88575 0.32245 0.64604 0.0
C510 C 0.86635 0.29276 0.63974 0.0
C511 C 0.88354 0.2625 0.63604 0.0
C512 C 0.82847 0.29129 0.63861 0.0
C513 C 0.86864 0.35582 0.64992 0.0
C514 C 0.8146 0.29257 0.65184 0.0
C515 C 0.78006 0.28482 0.65115 0.0
C516 C 0.75842 0.27607 0.63721 0.0
C517 C 0.77162 0.27734 0.62389 0.0
C518 C 0.80651 0.28448 0.62459 0.0
H519 H 0.88643 0.37798 0.65109 0.0
H520 H 0.84596 0.35985 0.64118 0.0
H521 H 0.85981 0.35503 0.66083 0.0
H522 H 0.831 0.29732 0.66278 0.0
H523 H 0.77072 0.28348 0.6616 0.0
H524 H 0.25954 0.2404 0.65283 0.0
H525 H 0.32016 0.22489 0.65461 0.0
H526 H 0.3471 0.33163 0.65667 0.0
H527 H 0.28739 0.34716 0.65544 0.0
H528 H 0.3614 0.23439 0.63492 0.0
H529 H 0.41929 0.30331 0.68959 0.0
H530 H 0.37372 0.29648 0.6842 0.0
H531 H 0.3941 0.33202 0.67812 0.0
C532 C 0.27855 0.26055 0.65405 0.0
C533 C 0.26849 0.29502 0.65391 0.0
C534 C 0.3132 0.25166 0.65497 0.0
C535 C 0.33853 0.27708 0.656 0.0
C536 C 0.32845 0.31149 0.65627 0.0
H537 H 0.52649 0.31332 0.6317 0.0
H538 H 0.47287 0.31228 0.64124 0.0
C539 C 0.29407 0.32033 0.65535 0.0
C540 C 0.375 0.26806 0.65547 0.0
H541 H 0.45718 0.29236 0.67128 0.0
C542 C 0.38234 0.24635 0.6431 0.0
C543 C 0.40261 0.28344 0.66615 0.0
C544 C 0.397 0.30479 0.68034 0.0
C545 C 0.41611 0.24168 0.64056 0.0
C546 C 0.44336 0.25904 0.65067 0.0
C547 C 0.43629 0.27918 0.66348 0.0
C548 C 0.47835 0.26022 0.64697 0.0
C549 C 0.42234 0.21986 0.62659 0.0
C550 C 0.50001 0.23163 0.64751 0.0
C551 C 0.53112 0.23231 0.64218 0.0
C552 C 0.54082 0.26151 0.63615 0.0
C553 C 0.51976 0.29048 0.63631 0.0
C554 C 0.48907 0.28993 0.64175 0.0
H555 H 0.39822 0.20958 0.6194 0.0
H556 H 0.43598 0.2351 0.61982 0.0
H557 H 0.43887 0.198 0.62989 0.0
H558 H 0.49232 0.20847 0.65157 0.0
H559 H 0.54663 0.20949 0.64206 0.0
H560 H 0.55845 0.83944 0.15431 0.0
H561 H 0.49634 0.84278 0.14611 0.0
H562 H 0.48262 0.75232 0.16754 0.0
H563 H 0.54438 0.7487 0.17569 0.0
H564 H 0.44822 0.7981 0.12844 0.0
H565 H 0.42025 0.82027 0.18629 0.0
H566 H 0.4629 0.82372 0.18232 0.0
H567 H 0.44505 0.78242 0.18365 0.0
C568 C 0.54225 0.82001 0.15713 0.0
C569 C 0.55657 0.79399 0.16583 0.0
C570 C 0.50667 0.82209 0.15251 0.0
C571 C 0.48459 0.79834 0.15653 0.0
C572 C 0.49892 0.7716 0.16468 0.0
H573 H 0.28576 0.72261 0.12245 0.0
H574 H 0.34493 0.74176 0.12606 0.0
C575 C 0.53436 0.76951 0.1693 0.0
C576 C 0.44662 0.80105 0.15217 0.0
H577 H 0.37285 0.80235 0.16667 0.0
C578 C 0.43177 0.79952 0.13682 0.0
C579 C 0.42493 0.80377 0.16306 0.0
C580 C 0.43908 0.80802 0.17976 0.0
C581 C 0.39601 0.79845 0.13207 0.0
C582 C 0.37437 0.79842 0.14291 0.0
C583 C 0.38922 0.80211 0.15829 0.0
C584 C 0.33698 0.79031 0.13861 0.0
C585 C 0.38178 0.79683 0.11542 0.0
C586 C 0.31217 0.81134 0.14425 0.0
C587 C 0.27781 0.80037 0.14207 0.0
C588 C 0.26801 0.76796 0.13444 0.0
C589 C 0.2925 0.74791 0.1282 0.0
C590 C 0.32645 0.75891 0.13024 0.0
H591 H 0.39928 0.80963 0.10941 0.0
H592 H 0.37913 0.76961 0.11056 0.0
H593 H 0.35631 0.80901 0.11328 0.0
H594 H 0.31966 0.83558 0.15086 0.0
H595 H 0.25961 0.81605 0.14723 0.0
H596 H 0.44092 0.35383 0.846 0.0
H597 H 0.38181 0.33561 0.84415 0.0
H598 H 0.41077 0.23032 0.83524 0.0
H599 H 0.47068 0.24842 0.83769 0.0
H600 H 0.33501 0.30154 0.82224 0.0
H601 H 0.36482 0.22559 0.87139 0.0
H602 H 0.39567 0.25409 0.86672 0.0
H603 H 0.38663 0.21299 0.85599 0.0
C604 C 0.43486 0.32673 0.8437 0.0
C605 C 0.46081 0.30255 0.8423 0.0
C606 C 0.40088 0.31635 0.84252 0.0
C607 C 0.39174 0.2815 0.83987 0.0
C608 C 0.41721 0.25731 0.83765 0.0
H609 H 0.18351 0.21148 0.84795 0.0
H610 H 0.23828 0.21008 0.83863 0.0
C611 C 0.45144 0.26772 0.83887 0.0
C612 C 0.35578 0.27114 0.84012 0.0
H613 H 0.30704 0.23109 0.86078 0.0
C614 C 0.32896 0.28564 0.83051 0.0
C615 C 0.34765 0.25039 0.85091 0.0
C616 C 0.3751 0.23502 0.86194 0.0
C617 C 0.29459 0.28119 0.83183 0.0
C618 C 0.28669 0.26181 0.84305 0.0
C619 C 0.31319 0.24572 0.8521 0.0
C620 C 0.25211 0.2626 0.84718 0.0
C621 C 0.2669 0.29831 0.82161 0.0
C622 C 0.24172 0.29253 0.85493 0.0
C623 C 0.21101 0.29321 0.86036 0.0
C624 C 0.18965 0.26409 0.85803 0.0
C625 C 0.19936 0.23435 0.84979 0.0
C626 C 0.23061 0.23351 0.84452 0.0
H627 H 0.27589 0.30556 0.81144 0.0
H628 H 0.24416 0.28122 0.818 0.0
H629 H 0.25884 0.32194 0.82787 0.0
H630 H 0.25798 0.31516 0.85721 0.0
H631 H 0.20421 0.3165 0.86666 0.0
H632 H 0.19497 0.73743 0.3302 0.0
H633 H 0.25703 0.74089 0.33837 0.0
H634 H 0.24812 0.84394 0.35897 0.0
H635 H 0.18569 0.84058 0.3508 0.0
H636 H 0.29739 0.8349 0.33872 0.0
H637 H 0.31638 0.74166 0.38124 0.0
H638 H 0.28946 0.72607 0.36375 0.0
H639 H 0.27569 0.76158 0.37537 0.0
C640 C 0.20615 0.76068 0.33665 0.0
C641 C 0.18535 0.7887 0.33988 0.0
C642 C 0.24165 0.76257 0.34138 0.0
C643 C 0.25731 0.79257 0.3494 0.0
C644 C 0.23662 0.82044 0.35289 0.0
H645 H 0.4821 0.78871 0.38004 0.0
H646 H 0.42228 0.80577 0.38011 0.0
C647 C 0.20094 0.81842 0.3483 0.0
C648 C 0.29536 0.79519 0.3532 0.0
H649 H 0.36573 0.75592 0.37129 0.0
C650 C 0.31234 0.81806 0.34605 0.0
C651 C 0.31499 0.77351 0.36289 0.0
C652 C 0.29827 0.74951 0.37138 0.0
C653 C 0.34823 0.81833 0.34763 0.0
C654 C 0.36771 0.79511 0.35655 0.0
C655 C 0.35087 0.77369 0.36441 0.0
C656 C 0.40483 0.78964 0.35639 0.0
C657 C 0.36502 0.84284 0.3394 0.0
C658 C 0.41504 0.77555 0.34303 0.0
C659 C 0.44885 0.76556 0.34301 0.0
C660 C 0.47348 0.76964 0.35633 0.0
C661 C 0.46381 0.78557 0.36957 0.0
C662 C 0.42961 0.7951 0.36964 0.0
H663 H 0.34838 0.86505 0.33669 0.0
H664 H 0.38983 0.85243 0.34618 0.0
H665 H 0.37003 0.82929 0.32863 0.0
H666 H 0.39642 0.77066 0.33272 0.0
H667 H 0.45543 0.75332 0.33263 0.0
H668 H 0.70321 0.83527 0.59471 0.0
H669 H 0.70288 0.8981 0.59859 0.0
H670 H 0.61162 0.89929 0.56484 0.0
H671 H 0.61147 0.83661 0.56104 0.0
H672 H 0.70392 0.9456 0.57589 0.0
H673 H 0.58772 0.95941 0.60216 0.0
H674 H 0.61115 0.91984 0.60111 0.0
H675 H 0.58368 0.93229 0.58463 0.0
C676 C 0.68288 0.84887 0.58822 0.0
C677 C 0.65736 0.83079 0.57757 0.0
C678 C 0.68284 0.88481 0.59038 0.0
C679 C 0.65706 0.90346 0.5821 0.0
C680 C 0.63156 0.88551 0.57148 0.0
H681 H 0.62031 0.12671 0.59364 0.0
H682 H 0.616 0.0665 0.58249 0.0
C683 C 0.6317 0.84964 0.56924 0.0
C684 C 0.65718 0.94165 0.58444 0.0
H685 H 0.61406 0.01026 0.59816 0.0
C686 C 0.6842 0.95974 0.58071 0.0
C687 C 0.6312 0.96018 0.59051 0.0
C688 C 0.60185 0.94208 0.59495 0.0
C689 C 0.68622 0.99574 0.58309 0.0
C690 C 0.66098 0.01427 0.58974 0.0
C691 C 0.63336 0.99621 0.59302 0.0
C692 C 0.66474 0.05171 0.59489 0.0
C693 C 0.71544 0.01357 0.57841 0.0
C694 C 0.69361 0.06364 0.60538 0.0
C695 C 0.69615 0.09778 0.61164 0.0
C696 C 0.66976 0.12109 0.60769 0.0
C697 C 0.64129 0.10961 0.59676 0.0
C698 C 0.6387 0.07511 0.59049 0.0
H699 H 0.72467 0.99816 0.56895 0.0
H700 H 0.70794 0.03924 0.57493 0.0
H701 H 0.7371 0.01679 0.58807 0.0
H702 H 0.71371 0.04616 0.60927 0.0
H703 H 0.71843 0.10563 0.62005 0.0
H704 H 0.22079 0.13398 0.10743 0.0
H705 H 0.23806 0.07403 0.11 0.0
H706 H 0.13229 0.04453 0.10551 0.0
H707 H 0.11516 0.10403 0.10317 0.0
H708 H 0.22014 0.03437 0.1337 0.0
H709 H 0.17284 0.97289 0.07583 0.0
H710 H 0.1822 0.01825 0.07991 0.0
H711 H 0.14272 0.0013 0.08321 0.0
C712 C 0.20131 0.11447 0.1067 0.0
C713 C 0.16665 0.12352 0.10505 0.0
C714 C 0.21117 0.08035 0.10824 0.0
C715 C 0.18644 0.05474 0.10782 0.0
C716 C 0.15179 0.06371 0.10567 0.0
H717 H 0.14925 0.87472 0.14193 0.0
H718 H 0.16562 0.93253 0.13832 0.0
C719 C 0.14203 0.0977 0.10436 0.0
C720 C 0.19627 0.01903 0.11071 0.0
H721 H 0.18097 0.93592 0.09563 0.0
C722 C 0.21231 0.01282 0.12528 0.0
C723 C 0.18638 0.99089 0.09972 0.0
C724 C 0.17035 0.99605 0.08373 0.0
C725 C 0.21644 0.97925 0.12942 0.0
C726 C 0.2041 0.9512 0.11873 0.0
C727 C 0.19038 0.95735 0.10386 0.0
C728 C 0.20041 0.91617 0.1232 0.0
C729 C 0.23283 0.97412 0.14536 0.0
C730 C 0.21525 0.88748 0.11625 0.0
C731 C 0.20627 0.85412 0.11854 0.0
C732 C 0.1817 0.84911 0.12749 0.0
C733 C 0.16851 0.87785 0.13509 0.0
C734 C 0.17787 0.91096 0.13303 0.0
H735 H 0.25034 0.99573 0.15053 0.0
H736 H 0.21261 0.97291 0.15228 0.0
H737 H 0.24735 0.94982 0.14574 0.0
H738 H 0.2325 0.89088 0.10852 0.0
H739 H 0.21639 0.83242 0.11236 0.0
H740 H 0.59167 0.11675 0.40681 0.0
H741 H 0.581 0.05695 0.39671 0.0
H742 H 0.4741 0.07847 0.38296 0.0
H743 H 0.48459 0.13854 0.39343 0.0
H744 H 0.4832 0.02329 0.39887 0.0
H745 H 0.56272 0.00739 0.35469 0.0
H746 H 0.58715 0.02638 0.37215 0.0
H747 H 0.55134 0.04905 0.36274 0.0
C748 C 0.56596 0.10891 0.40142 0.0
C749 C 0.53899 0.13245 0.40094 0.0
C750 C 0.55992 0.07471 0.39551 0.0
C751 C 0.5268 0.06312 0.38886 0.0
C752 C 0.49993 0.08679 0.38791 0.0
H753 H 0.52798 0.84177 0.35861 0.0
H754 H 0.5081 0.90119 0.35731 0.0
C755 C 0.50599 0.12119 0.39381 0.0
C756 C 0.52021 0.02578 0.38431 0.0
H757 H 0.55188 0.95573 0.36578 0.0
C758 C 0.49765 0.00862 0.39136 0.0
C759 C 0.53838 0.00645 0.37426 0.0
C760 C 0.56095 0.02336 0.36541 0.0
C761 C 0.49496 0.97264 0.38959 0.0
C762 C 0.51576 0.95319 0.38074 0.0
C763 C 0.53616 0.97046 0.37271 0.0
C764 C 0.52066 0.91562 0.38142 0.0
C765 C 0.47057 0.9558 0.3976 0.0
C766 C 0.53328 0.90359 0.39538 0.0
C767 C 0.54458 0.86995 0.39611 0.0
C768 C 0.54363 0.84739 0.3829 0.0
C769 C 0.52863 0.85846 0.36898 0.0
C770 C 0.51755 0.89248 0.36823 0.0
H771 H 0.4482 0.97239 0.39875 0.0
H772 H 0.46128 0.93062 0.39154 0.0
H773 H 0.48382 0.95174 0.40913 0.0
H774 H 0.53667 0.92089 0.40568 0.0
H775 H 0.55618 0.86221 0.40699 0.0
H776 H 0.07649 0.84841 0.90073 0.0
H777 H 0.09653 0.90762 0.90106 0.0
H778 H -0.00032 0.94521 0.91068 0.0
H779 H 0.98027 0.88672 0.91093 0.0
H780 H 0.07091 0.95229 0.88207 0.0
H781 H 0.06168 0.01088 0.93922 0.0
H782 H 0.05992 0.96507 0.9343 0.0
H783 H 0.02201 0.99052 0.93034 0.0
C784 C 0.05994 0.86938 0.90338 0.0
C785 C 0.02671 0.86275 0.90574 0.0
C786 C 0.0713 0.90325 0.90346 0.0
C787 C 0.04984 0.93118 0.90608 0.0
C788 C 0.01719 0.92446 0.909 0.0
H789 H 0.01279 0.13236 0.88183 0.0
H790 H 0.01466 0.07686 0.89206 0.0
C791 C 0.00592 0.89082 0.90896 0.0
C792 C 0.05975 0.967 0.90425 0.0
H793 H 0.05813 0.0502 0.91999 0.0
C794 C 0.0689 0.97357 0.89053 0.0
C795 C 0.0572 0.99504 0.91524 0.0
C796 C 0.05002 0.98995 0.93065 0.0
C797 C 0.07355 0.00725 0.88718 0.0
C798 C 0.06911 0.03525 0.89784 0.0
C799 C 0.06137 0.02875 0.91179 0.0
C800 C 0.06937 0.07126 0.89403 0.0
C801 C 0.08147 0.01281 0.87194 0.0
C802 C 0.09969 0.08723 0.89225 0.0
C803 C 0.09867 0.11928 0.8866 0.0
C804 C 0.06734 0.1358 0.88266 0.0
C805 C 0.03732 0.12046 0.88507 0.0
C806 C 0.03836 0.0887 0.89085 0.0
H807 H 0.08055 0.98857 0.86433 0.0
H808 H 0.06306 0.03106 0.86644 0.0
H809 H 0.10744 0.02419 0.8734 0.0
H810 H 0.12391 0.07427 0.89465 0.0
H811 H 0.12205 0.13022 0.88451 0.0
H812 H 0.10684 0.18947 0.04166 0.0
H813 H 0.09775 0.16757 0.01491 0.0
H814 H 0.1692 0.24277 0.00717 0.0
H815 H 0.17968 0.26353 0.0339 0.0
H816 H 0.07043 0.20049 0.9922 0.0
H817 H 0.19848 0.16134 0.98255 0.0
H818 H 0.18858 0.16926 0.0013 0.0
H819 H 0.20089 0.20408 0.99184 0.0
C820 C 0.12137 0.20069 0.03434 0.0
C821 C 0.14396 0.22835 0.03995 0.0
C822 C 0.11599 0.18824 0.01902 0.0
C823 C 0.1332 0.20307 0.00901 0.0
C824 C 0.1563 0.23017 0.01467 0.0
H825 H 0.07897 0.27032 0.9267 0.0
H826 H 0.08254 0.25059 0.95144 0.0
C827 C 0.16183 0.24247 0.02996 0.0
C828 C 0.12436 0.1933 0.99244 0.0
H829 H 0.16051 0.18204 0.96085 0.0
C830 C 0.09008 0.19549 0.98537 0.0
C831 C 0.14964 0.18575 0.98342 0.0
C832 C 0.18637 0.17957 0.99022 0.0
C833 C 0.08099 0.19389 0.96961 0.0
C834 C 0.1069 0.19083 0.96072 0.0
C835 C 0.14065 0.18502 0.96766 0.0
C836 C 0.10066 0.19996 0.94498 0.0
C837 C 0.04384 0.19719 0.96268 0.0
C838 C 0.10986 0.17813 0.93302 0.0
C839 C 0.10786 0.18956 0.91871 0.0
C840 C 0.09721 0.22306 0.91633 0.0
C841 C 0.08719 0.24431 0.92821 0.0
C842 C 0.08891 0.23293 0.94234 0.0
H843 H 0.02708 0.18578 0.96947 0.0
H844 H 0.03739 0.22473 0.96255 0.0
H845 H 0.03819 0.18455 0.95094 0.0
H846 H 0.11948 0.15274 0.93487 0.0
H847 H 0.11642 0.17304 0.90982 0.0
H848 H 0.0573 0.81038 0.29075 0.0
H849 H 0.04711 0.80019 0.26321 0.0
H850 H 0.11905 0.71714 0.26584 0.0
H851 H 0.12786 0.72589 0.29327 0.0
H852 H 0.09218 0.80881 0.24644 0.0
H853 H 0.04722 0.67512 0.23275 0.0
H854 H 0.04788 0.69805 0.25117 0.0
H855 H 0.08567 0.6768 0.24657 0.0
C856 C 0.07006 0.78918 0.28548 0.0
C857 C 0.09353 0.76903 0.29426 0.0
C858 C 0.06437 0.78353 0.26971 0.0
C859 C 0.08195 0.7576 0.26238 0.0
C860 C 0.10444 0.73672 0.27114 0.0
H861 H 0.17983 0.75405 0.18894 0.0
H862 H 0.15576 0.76352 0.21193 0.0
C863 C 0.10992 0.74214 0.28688 0.0
C864 C 0.08042 0.75508 0.24577 0.0
H865 H 0.07861 0.69703 0.21474 0.0
C866 C 0.08834 0.78448 0.23944 0.0
C867 C 0.0747 0.7236 0.23644 0.0
C868 C 0.063 0.69176 0.24208 0.0
C869 C 0.09352 0.78265 0.22447 0.0
C870 C 0.09156 0.75047 0.2157 0.0
C871 C 0.08076 0.72161 0.22156 0.0
C872 C 0.10493 0.74563 0.20136 0.0
C873 C 0.10222 0.81509 0.21836 0.0
C874 C 0.08461 0.73145 0.18782 0.0
C875 C 0.09855 0.72571 0.1746 0.0
C876 C 0.13291 0.73402 0.17482 0.0
C877 C 0.15315 0.74777 0.18843 0.0
C878 C 0.13933 0.75349 0.20154 0.0
H879 H 0.09091 0.83782 0.22397 0.0
H880 H 0.13038 0.81876 0.22064 0.0
H881 H 0.09302 0.8139 0.20599 0.0
H882 H 0.05815 0.72463 0.1875 0.0
H883 H 0.08286 0.71391 0.16436 0.0
H884 H 0.68321 0.68669 0.54494 0.0
H885 H 0.6755 0.66392 0.51821 0.0
H886 H 0.59203 0.7333 0.50778 0.0
H887 H 0.59941 0.75601 0.5344 0.0
H888 H 0.58482 0.65857 0.49232 0.0
H889 H 0.70165 0.73128 0.48774 0.0
H890 H 0.70371 0.7044 0.50279 0.0
H891 H 0.67823 0.74232 0.50287 0.0
C892 C 0.66279 0.69658 0.53699 0.0
C893 C 0.64215 0.72339 0.54172 0.0
C894 C 0.65848 0.68361 0.52175 0.0
C895 C 0.63329 0.69706 0.51106 0.0
C896 C 0.61156 0.72256 0.51587 0.0
H897 H 0.55965 0.71671 0.42014 0.0
H898 H 0.5648 0.69981 0.44557 0.0
C899 C 0.616 0.73569 0.53105 0.0
C900 C 0.6316 0.68737 0.49469 0.0
H901 H 0.66903 0.70563 0.46543 0.0
C902 C 0.60348 0.66831 0.48641 0.0
C903 C 0.65613 0.69987 0.48706 0.0
C904 C 0.68665 0.72074 0.49547 0.0
C905 C 0.59868 0.66236 0.47057 0.0
C906 C 0.62209 0.67679 0.46284 0.0
C907 C 0.65108 0.6944 0.47127 0.0
C908 C 0.61527 0.67803 0.4462 0.0
C909 C 0.56841 0.64101 0.46233 0.0
C910 C 0.64144 0.67072 0.43778 0.0
C911 C 0.63864 0.68098 0.42328 0.0
C912 C 0.6094 0.69809 0.4169 0.0
C913 C 0.58203 0.70267 0.42471 0.0
C914 C 0.58499 0.69289 0.43927 0.0
H915 H 0.56208 0.62111 0.46927 0.0
H916 H 0.54578 0.65773 0.46019 0.0
H917 H 0.57316 0.62825 0.45136 0.0
H918 H 0.66512 0.65946 0.44286 0.0
H919 H 0.66034 0.67794 0.41756 0.0
H920 H 0.61216 0.22987 0.78608 0.0
H921 H 0.6011 0.22289 0.75847 0.0
H922 H 0.54196 0.31551 0.75806 0.0
H923 H 0.55316 0.32282 0.78578 0.0
H924 H 0.53514 0.22231 0.7358 0.0
H925 H 0.62442 0.33094 0.73566 0.0
H926 H 0.62487 0.3091 0.75224 0.0
H927 H 0.59059 0.33748 0.74643 0.0
C928 C 0.59649 0.24854 0.78011 0.0
C929 C 0.58375 0.27702 0.78807 0.0
C930 C 0.59003 0.24443 0.76435 0.0
C931 C 0.57094 0.26882 0.75626 0.0
C932 C 0.55687 0.2965 0.76413 0.0
H933 H 0.5945 0.27815 0.66235 0.0
H934 H 0.5684 0.29142 0.68484 0.0
C935 C 0.56314 0.30053 0.77994 0.0
C936 C 0.56853 0.26642 0.73968 0.0
H937 H 0.60563 0.29778 0.71271 0.0
C938 C 0.55001 0.23916 0.73066 0.0
C939 C 0.58767 0.28866 0.733 0.0
C940 C 0.6082 0.31818 0.74226 0.0
C941 C 0.55141 0.23263 0.71523 0.0
C942 C 0.57264 0.25332 0.7088 0.0
C943 C 0.58938 0.28188 0.71763 0.0
C944 C 0.58196 0.24316 0.6938 0.0
C945 C 0.53073 0.20315 0.70606 0.0
C946 C 0.59765 0.21145 0.6912 0.0
C947 C 0.6122 0.20378 0.67835 0.0
C948 C 0.61152 0.22769 0.66783 0.0
C949 C 0.59466 0.25892 0.67008 0.0
C950 C 0.57998 0.26661 0.68298 0.0
H951 H 0.507 0.19893 0.7105 0.0
H952 H 0.52371 0.20759 0.69399 0.0
H953 H 0.54597 0.17938 0.70684 0.0
H954 H 0.60044 0.19332 0.69954 0.0
H955 H 0.62528 0.17963 0.67697 0.0
H956 H 0.11578 0.67072 0.94735 0.0
H957 H 0.13376 0.66402 0.97404 0.0
H958 H 0.0613 0.74059 0.98524 0.0
H959 H 0.04135 0.7456 0.95844 0.0
H960 H 0.16172 0.70206 0.99781 0.0
H961 H 0.03395 0.66508 0.00677 0.0
H962 H 0.04302 0.66912 0.98824 0.0
H963 H 0.03283 0.70639 0.0 0.0
C964 C 0.10342 0.686 0.95547 0.0
C965 C 0.07654 0.70818 0.95066 0.0
C966 C 0.11392 0.68226 0.97077 0.0
C967 C 0.09812 0.7009 0.98168 0.0
C968 C 0.07301 0.72491 0.97702 0.0
H969 H 0.16707 0.75795 0.0736 0.0
H970 H 0.16178 0.74392 0.04657 0.0
C971 C 0.06209 0.72829 0.96167 0.0
C972 C 0.10803 0.69527 0.99789 0.0
H973 H 0.0751 0.68225 0.02917 0.0
C974 C 0.14276 0.69729 0.0046 0.0
C975 C 0.08361 0.68771 0.00673 0.0
C976 C 0.04635 0.68153 1e-05 0.0
C977 C 0.15344 0.69411 0.02003 0.0
C978 C 0.12865 0.68999 0.02916 0.0
C979 C 0.09417 0.68581 0.02228 0.0
C980 C 0.13715 0.6947 0.04594 0.0
C981 C 0.19121 0.69553 0.02639 0.0
C982 C 0.12527 0.67166 0.05481 0.0
C983 C 0.12806 0.67993 0.07047 0.0
C984 C 0.14245 0.71145 0.07735 0.0
C985 C 0.15605 0.73335 0.06858 0.0
C986 C 0.15328 0.7252 0.05309 0.0
H987 H 0.20614 0.6842 0.01785 0.0
H988 H 0.19948 0.72269 0.0294 0.0
H989 H 0.1975 0.68174 0.0366 0.0
H990 H 0.11243 0.64809 0.04953 0.0
H991 H 0.11678 0.66298 0.07693 0.0
H992 H 0.62008 0.73541 0.20772 0.0
H993 H 0.63135 0.72939 0.23478 0.0
H994 H 0.69422 0.82064 0.24301 0.0
H995 H 0.68302 0.82686 0.21584 0.0
H996 H 0.70112 0.73025 0.25722 0.0
H997 H 0.61035 0.83583 0.26731 0.0
H998 H 0.60789 0.81225 0.24891 0.0
H999 H 0.64249 0.84179 0.25608 0.0
C1000 C 0.63663 0.75397 0.21527 0.0
C1001 C 0.65052 0.7817 0.20969 0.0
C1002 C 0.64316 0.75042 0.2307 0.0
C1003 C 0.66346 0.77465 0.24086 0.0
C1004 C 0.67847 0.80169 0.23531 0.0
H1005 H 0.64176 0.78319 0.33599 0.0
H1006 H 0.66679 0.79805 0.31459 0.0
C1007 C 0.67217 0.80511 0.21982 0.0
C1008 C 0.66643 0.77267 0.25727 0.0
H1009 H 0.62911 0.80263 0.28713 0.0
C1010 C 0.68593 0.74647 0.26388 0.0
C1011 C 0.64693 0.79413 0.26596 0.0
C1012 C 0.62558 0.82262 0.2593 0.0
C1013 C 0.6851 0.74012 0.27879 0.0
C1014 C 0.6634 0.75983 0.2871 0.0
C1015 C 0.6457 0.78747 0.28078 0.0
C1016 C 0.65459 0.74923 0.30122 0.0
C1017 C 0.70686 0.71183 0.28537 0.0
C1018 C 0.64002 0.71671 0.30096 0.0
C1019 C 0.62597 0.7082 0.31314 0.0
C1020 C 0.626 0.73204 0.32585 0.0
C1021 C 0.64191 0.7641 0.32645 0.0
C1022 C 0.65603 0.77267 0.3142 0.0
H1023 H 0.73062 0.70886 0.28054 0.0
H1024 H 0.71389 0.71673 0.29784 0.0
H1025 H 0.69245 0.68725 0.28248 0.0
H1026 H 0.63768 0.69849 0.29097 0.0
H1027 H 0.61371 0.68338 0.31231 0.0
H1028 H 0.62404 0.16893 0.44591 0.0
H1029 H 0.64239 0.1612 0.47262 0.0
H1030 H 0.56288 0.22892 0.48407 0.0
H1031 H 0.54383 0.23622 0.45737 0.0
H1032 H 0.6315 0.23732 0.50387 0.0
H1033 H 0.57979 0.10386 0.49432 0.0
H1034 H 0.60809 0.11569 0.48224 0.0
H1035 H 0.56676 0.13493 0.48112 0.0
C1036 C 0.61065 0.18246 0.45413 0.0
C1037 C 0.58222 0.20295 0.44947 0.0
C1038 C 0.62117 0.17797 0.46937 0.0
C1039 C 0.60361 0.19401 0.48025 0.0
C1040 C 0.57666 0.21619 0.4758 0.0
H1041 H 0.56349 0.18179 0.56638 0.0
H1042 H 0.56643 0.17046 0.53963 0.0
C1043 C 0.56599 0.22057 0.46054 0.0
C1044 C 0.612 0.18644 0.49618 0.0
H1045 H 0.60232 0.12532 0.51934 0.0
C1046 C 0.6257 0.21269 0.50727 0.0
C1047 C 0.60413 0.15429 0.50051 0.0
C1048 C 0.58869 0.12549 0.48899 0.0
C1049 C 0.63087 0.20798 0.52266 0.0
C1050 C 0.62228 0.17607 0.52705 0.0
C1051 C 0.60939 0.14951 0.51592 0.0
C1052 C 0.62164 0.17205 0.54309 0.0
C1053 C 0.64378 0.23779 0.53417 0.0
C1054 C 0.65179 0.17391 0.55396 0.0
C1055 C 0.65013 0.17983 0.56935 0.0
C1056 C 0.6183 0.18437 0.57392 0.0
C1057 C 0.58831 0.17831 0.56312 0.0
C1058 C 0.58998 0.17203 0.54783 0.0
H1059 H 0.64532 0.26192 0.52893 0.0
H1060 H 0.62682 0.24197 0.54268 0.0
H1061 H 0.66969 0.23199 0.54019 0.0
H1062 H 0.67649 0.17362 0.5505 0.0
H1063 H 0.6736 0.18471 0.57744 0.0
H1064 H 0.17334 0.31352 0.71113 0.0
H1065 H 0.1841 0.30537 0.73809 0.0
H1066 H 0.12544 0.21133 0.72814 0.0
H1067 H 0.11455 0.2194 0.70128 0.0
H1068 H 0.12796 0.29994 0.75422 0.0
H1069 H 0.21292 0.18729 0.75815 0.0
H1070 H 0.20923 0.21399 0.74287 0.0
H1071 H 0.17699 0.18226 0.74289 0.0
C1072 C 0.16347 0.29071 0.71469 0.0
C1073 C 0.14311 0.26707 0.70414 0.0
C1074 C 0.16954 0.28615 0.73006 0.0
C1075 C 0.15589 0.25756 0.73508 0.0
C1076 C 0.13669 0.23327 0.72449 0.0
H1077 H 0.09989 0.17493 0.80844 0.0
H1078 H 0.1216 0.18723 0.78608 0.0
C1079 C 0.13028 0.23801 0.70917 0.0
C1080 C 0.15816 0.25479 0.75142 0.0
H1081 H 0.18229 0.2008 0.77849 0.0
C1082 C 0.14043 0.27871 0.75968 0.0
C1083 C 0.17439 0.22702 0.75843 0.0
C1084 C 0.19474 0.20129 0.75019 0.0
C1085 C 0.1364 0.27429 0.77445 0.0
C1086 C 0.15144 0.24564 0.7813 0.0
C1087 C 0.17081 0.22277 0.77328 0.0
C1088 C 0.14352 0.23657 0.79584 0.0
C1089 C 0.11403 0.29906 0.78212 0.0
C1090 C 0.14981 0.25955 0.80905 0.0
C1091 C 0.13676 0.25283 0.82183 0.0
C1092 C 0.118 0.22259 0.82174 0.0
C1093 C 0.11407 0.19854 0.80888 0.0
C1094 C 0.12664 0.20548 0.79608 0.0
H1095 H 0.09882 0.31535 0.77411 0.0
H1096 H 0.09612 0.28515 0.7875 0.0
H1097 H 0.13033 0.31622 0.79103 0.0
H1098 H 0.16349 0.28336 0.80927 0.0
H1099 H 0.13981 0.27215 0.83144 0.0
loop_
_geom_bond_atom_site_label_1
_geom_bond_atom_site_label_2
_geom_bond_distance
_geom_bond_site_symmetry_2
_ccdc_geom_bond_type
H0 C1 0.949 . S
C1 H0 0.949 . S
C1 C2 1.395 . S
C1 C3 1.391 . S
C2 C1 1.395 . S
C2 C5 1.390 . S
C3 C1 1.391 . S
C3 C7 1.387 . S
C3 C8 1.491 . S
H4 C5 0.950 . S
C5 C2 1.390 . S
C5 H4 0.950 . S
C5 C6 1.378 . S
C6 C5 1.378 . S
C6 C7 1.409 . S
C7 C3 1.387 . S
C7 C6 1.409 . S
C7 H9 0.951 . S
C8 C3 1.491 . S
C8 C10 1.382 . S
C8 C12 1.404 . S
H9 C7 0.951 . S
C10 C8 1.382 . S
C10 C11 1.390 . S
C10 H15 0.949 . S
C11 C10 1.390 . S
C11 C16 1.399 . S
C12 C8 1.404 . S
C12 H13 0.950 . S
C12 C14 1.375 . S
H13 C12 0.950 . S
C14 C12 1.375 . S
C14 C16 1.382 . S
C14 H18 0.950 . S
H15 C10 0.949 . S
C16 C11 1.399 . S
C16 C14 1.382 . S
C16 H17 0.952 . S
H17 C16 0.952 . S
H18 C14 0.950 . S
H19 C20 0.949 . S
C20 H19 0.949 . S
C20 C21 1.395 . S
C20 C22 1.391 . S
C21 C20 1.395 . S
C21 C24 1.390 . S
C22 C20 1.391 . S
C22 C26 1.387 . S
C22 C27 1.491 . S
H23 C24 0.950 . S
C24 C21 1.390 . S
C24 H23 0.950 . S
C24 C25 1.378 . S
C25 C24 1.378 . S
C25 C26 1.409 . S
C26 C22 1.387 . S
C26 C25 1.409 . S
C26 H28 0.951 . S
C27 C22 1.491 . S
C27 C29 1.382 . S
C27 C31 1.404 . S
H28 C26 0.951 . S
C29 C27 1.382 . S
C29 C30 1.390 1_455 S
C29 H34 0.949 . S
C30 C29 1.390 1_655 S
C30 C35 1.399 1_655 S
C31 C27 1.404 . S
C31 H32 0.950 . S
C31 C33 1.375 . S
H32 C31 0.950 . S
C33 C31 1.375 . S
C33 C35 1.382 . S
C33 H37 0.950 . S
H34 C29 0.949 . S
C35 C30 1.399 1_455 S
C35 C33 1.382 . S
C35 H36 0.952 1_455 S
H36 C35 0.952 1_655 S
H37 C33 0.950 . S
H38 C39 0.949 . S
C39 H38 0.949 . S
C39 C40 1.395 . S
C39 C41 1.391 . S
C40 C39 1.395 . S
C40 C43 1.390 . S
C41 C39 1.391 . S
C41 C45 1.387 . S
C41 C46 1.491 . S
H42 C43 0.950 . S
C43 C40 1.390 . S
C43 H42 0.950 . S
C43 C44 1.378 . S
C44 C43 1.378 . S
C44 C45 1.409 . S
C45 C41 1.387 . S
C45 C44 1.409 . S
C45 H47 0.951 . S
C46 C41 1.491 . S
C46 C48 1.382 . S
C46 C50 1.404 . S
H47 C45 0.951 . S
C48 C46 1.382 . S
C48 C49 1.390 . S
C48 H53 0.949 . S
C49 C48 1.390 . S
C49 C54 1.399 . S
C50 C46 1.404 . S
C50 H51 0.950 . S
C50 C52 1.375 . S
H51 C50 0.950 . S
C52 C50 1.375 . S
C52 C54 1.382 . S
C52 H56 0.950 . S
H53 C48 0.949 . S
C54 C49 1.399 . S
C54 C52 1.382 . S
C54 H55 0.952 . S
H55 C54 0.952 . S
H56 C52 0.950 . S
H57 C58 0.949 . S
C58 H57 0.949 . S
C58 C59 1.395 . S
C58 C60 1.391 . S
C59 C58 1.395 . S
C59 C62 1.390 . S
C60 C58 1.391 . S
C60 C64 1.387 . S
C60 C65 1.491 . S
H61 C62 0.950 . S
C62 C59 1.390 . S
C62 H61 0.950 . S
C62 C63 1.378 . S
C63 C62 1.378 . S
C63 C64 1.409 . S
C64 C60 1.387 . S
C64 C63 1.409 . S
C64 H66 0.951 . S
C65 C60 1.491 . S
C65 C67 1.382 . S
C65 C69 1.404 . S
H66 C64 0.951 . S
C67 C65 1.382 . S
C67 C68 1.390 . S
C67 H72 0.949 . S
C68 C67 1.390 . S
C68 C73 1.399 . S
C69 C65 1.404 . S
C69 H70 0.950 . S
C69 C71 1.375 . S
H70 C69 0.950 . S
C71 C69 1.375 . S
C71 C73 1.382 . S
C71 H75 0.950 . S
H72 C67 0.949 . S
C73 C68 1.399 . S
C73 C71 1.382 . S
C73 H74 0.952 . S
H74 C73 0.952 . S
H75 C71 0.950 . S
H76 C77 0.949 . S
C77 H76 0.949 . S
C77 C78 1.395 . S
C77 C79 1.391 . S
C78 C77 1.395 . S
C78 C81 1.390 . S
C79 C77 1.391 . S
C79 C83 1.387 . S
C79 C84 1.491 . S
H80 C81 0.950 . S
C81 C78 1.390 . S
C81 H80 0.950 . S
C81 C82 1.378 . S
C82 C81 1.378 . S
C82 C83 1.409 . S
C83 C79 1.387 . S
C83 C82 1.409 . S
C83 H85 0.951 . S
C84 C79 1.491 . S
C84 C86 1.382 . S
C84 C88 1.404 1_455 S
H85 C83 0.951 . S
C86 C84 1.382 . S
C86 C87 1.390 . S
C86 H91 0.949 . S
C87 C86 1.390 . S
C87 C92 1.399 1_455 S
C88 C84 1.404 1_655 S
C88 H89 0.950 . S
C88 C90 1.375 . S
H89 C88 0.950 . S
C90 C88 1.375 . S
C90 C92 1.382 . S
C90 H94 0.950 . S
H91 C86 0.949 . S
C92 C87 1.399 1_655 S
C92 C90 1.382 . S
C92 H93 0.952 . S
H93 C92 0.952 . S
H94 C90 0.950 . S
H95 C96 0.949 . S
C96 H95 0.949 . S
C96 C97 1.395 . S
C96 C98 1.391 . S
C97 C96 1.395 . S
C97 C100 1.390 . S
C98 C96 1.391 . S
C98 C102 1.387 . S
C98 C103 1.491 . S
H99 C100 0.950 . S
C100 C97 1.390 . S
C100 H99 0.950 . S
C100 C101 1.378 . S
C101 C100 1.378 . S
C101 C102 1.409 . S
C102 C98 1.387 . S
C102 C101 1.409 . S
C102 H104 0.951 . S
C103 C98 1.491 . S
C103 C105 1.382 . S
C103 C107 1.404 . S
H104 C102 0.951 . S
C105 C103 1.382 . S
C105 C106 1.390 . S
C105 H110 0.949 . S
C106 C105 1.390 . S
C106 C111 1.399 . S
C107 C103 1.404 . S
C107 H108 0.950 . S
C107 C109 1.375 . S
H108 C107 0.950 . S
C109 C107 1.375 . S
C109 C111 1.382 . S
C109 H113 0.950 . S
H110 C105 0.949 . S
C111 C106 1.399 . S
C111 C109 1.382 . S
C111 H112 0.952 . S
H112 C111 0.952 . S
H113 C109 0.950 . S
H114 C115 0.949 . S
C115 H114 0.949 . S
C115 C116 1.395 . S
C115 C117 1.391 . S
C116 C115 1.395 . S
C116 C119 1.390 . S
C117 C115 1.391 . S
C117 C121 1.387 . S
C117 C122 1.491 . S
H118 C119 0.950 . S
C119 C116 1.390 . S
C119 H118 0.950 . S
C119 C120 1.378 . S
C120 C119 1.378 . S
C120 C121 1.409 . S
C121 C117 1.387 . S
C121 C120 1.409 . S
C121 H123 0.951 . S
C122 C117 1.491 . S
C122 C124 1.382 . S
C122 C126 1.404 . S
H123 C121 0.951 . S
C124 C122 1.382 . S
C124 C125 1.390 . S
C124 H129 0.949 . S
C125 C124 1.390 . S
C125 C130 1.399 . S
C126 C122 1.404 . S
C126 H127 0.950 . S
C126 C128 1.375 . S
H127 C126 0.950 . S
C128 C126 1.375 . S
C128 C130 1.382 . S
C128 H132 0.950 . S
H129 C124 0.949 . S
C130 C125 1.399 . S
C130 C128 1.382 . S
C130 H131 0.952 . S
H131 C130 0.952 . S
H132 C128 0.950 . S
H133 C134 0.949 . S
C134 H133 0.949 . S
C134 C135 1.395 . S
C134 C136 1.391 . S
C135 C134 1.395 . S
C135 C138 1.390 . S
C136 C134 1.391 . S
C136 C140 1.387 . S
C136 C141 1.491 . S
H137 C138 0.950 . S
C138 C135 1.390 . S
C138 H137 0.950 . S
C138 C139 1.378 . S
C139 C138 1.378 . S
C139 C140 1.409 . S
C140 C136 1.387 . S
C140 C139 1.409 . S
C140 H142 0.951 . S
C141 C136 1.491 . S
C141 C143 1.382 . S
C141 C145 1.404 . S
H142 C140 0.951 . S
C143 C141 1.382 . S
C143 C144 1.390 . S
C143 H148 0.949 . S
C144 C143 1.390 . S
C144 C149 1.399 . S
C145 C141 1.404 . S
C145 H146 0.950 . S
C145 C147 1.375 . S
H146 C145 0.950 . S
C147 C145 1.375 . S
C147 C149 1.382 . S
C147 H151 0.950 . S
H148 C143 0.949 . S
C149 C144 1.399 . S
C149 C147 1.382 . S
C149 H150 0.952 . S
H150 C149 0.952 . S
H151 C147 0.950 . S
Zn152 O158 1.920 . S
Zn152 O164 1.898 . S
Zn152 O167 1.905 . S
Zn153 O161 1.905 . S
Zn153 O162 1.898 . S
Zn153 O170 1.920 . S
Zn154 O157 2.080 . S
Zn154 O160 2.114 . S
Zn154 O163 2.120 . S
Zn154 O165 2.120 . S
Zn154 O166 2.114 . S
Zn154 O169 2.080 . S
C155 O160 1.166 . S
C155 O161 1.182 . S
C156 O162 1.167 . S
C156 O163 1.299 . S
O157 Zn154 2.080 . S
O157 C171 1.305 . S
O158 Zn152 1.920 . S
O158 C171 1.234 . S
C159 O164 1.167 . S
C159 O165 1.299 . S
O160 Zn154 2.114 . S
O160 C155 1.166 . S
O161 Zn153 1.905 . S
O161 C155 1.182 . S
O162 Zn153 1.898 . S
O162 C156 1.167 . S
O163 Zn154 2.120 . S
O163 C156 1.299 . S
O164 Zn152 1.898 . S
O164 C159 1.167 . S
O165 Zn154 2.120 . S
O165 C159 1.299 . S
O166 Zn154 2.114 . S
O166 C168 1.166 . S
O167 Zn152 1.905 . S
O167 C168 1.182 . S
C168 O166 1.166 . S
C168 O167 1.182 . S
O169 Zn154 2.080 . S
O169 C172 1.305 . S
O170 Zn153 1.920 . S
O170 C172 1.234 . S
C171 O157 1.305 . S
C171 O158 1.234 . S
C172 O169 1.305 . S
C172 O170 1.234 . S
Zn173 O179 1.920 . S
Zn173 O185 1.898 . S
Zn173 O188 1.905 . S
Zn174 O182 1.905 . S
Zn174 O183 1.898 . S
Zn174 O191 1.920 . S
Zn175 O178 2.080 . S
Zn175 O181 2.114 . S
Zn175 O184 2.120 . S
Zn175 O186 2.120 . S
Zn175 O187 2.114 . S
Zn175 O190 2.080 . S
C176 O181 1.166 . S
C176 O182 1.182 . S
C177 O183 1.167 . S
C177 O184 1.299 . S
O178 Zn175 2.080 . S
O178 C192 1.305 . S
O179 Zn173 1.920 . S
O179 C192 1.234 . S
C180 O185 1.167 . S
C180 O186 1.299 . S
O181 Zn175 2.114 . S
O181 C176 1.166 . S
O182 Zn174 1.905 . S
O182 C176 1.182 . S
O183 Zn174 1.898 . S
O183 C177 1.167 . S
O184 Zn175 2.120 . S
O184 C177 1.299 . S
O185 Zn173 1.898 . S
O185 C180 1.167 . S
O186 Zn175 2.120 . S
O186 C180 1.299 . S
O187 Zn175 2.114 . S
O187 C189 1.166 . S
O188 Zn173 1.905 . S
O188 C189 1.182 . S
C189 O187 1.166 . S
C189 O188 1.182 . S
O190 Zn175 2.080 . S
O190 C193 1.305 . S
O191 Zn174 1.920 . S
O191 C193 1.234 . S
C192 O178 1.305 . S
C192 O179 1.234 . S
C193 O190 1.305 . S
C193 O191 1.234 . S
Zn194 O200 1.920 . S
Zn194 O206 1.898 . S
Zn194 O209 1.905 . S
Zn195 O203 1.905 . S
Zn195 O204 1.898 . S
Zn195 O212 1.920 . S
Zn196 O199 2.080 . S
Zn196 O202 2.114 . S
Zn196 O205 2.120 . S
Zn196 O207 2.120 . S
Zn196 O208 2.114 . S
Zn196 O211 2.080 . S
C197 O202 1.166 . S
C197 O203 1.182 . S
C198 O204 1.167 . S
C198 O205 1.299 . S
O199 Zn196 2.080 . S
O199 C213 1.305 . S
O200 Zn194 1.920 . S
O200 C213 1.234 . S
C201 O206 1.167 . S
C201 O207 1.299 . S
O202 Zn196 2.114 . S
O202 C197 1.166 . S
O203 Zn195 1.905 . S
O203 C197 1.182 . S
O204 Zn195 1.898 . S
O204 C198 1.167 . S
O205 Zn196 2.120 . S
O205 C198 1.299 . S
O206 Zn194 1.898 . S
O206 C201 1.167 . S
O207 Zn196 2.120 . S
O207 C201 1.299 . S
O208 Zn196 2.114 . S
O208 C210 1.166 . S
O209 Zn194 1.905 . S
O209 C210 1.182 . S
C210 O208 1.166 . S
C210 O209 1.182 . S
O211 Zn196 2.080 . S
O211 C214 1.305 . S
O212 Zn195 1.920 . S
O212 C214 1.234 . S
C213 O199 1.305 . S
C213 O200 1.234 . S
C214 O211 1.305 . S
C214 O212 1.234 . S
Zn215 O221 1.920 . S
Zn215 O227 1.898 . S
Zn215 O230 1.905 1_455 S
Zn216 O224 1.905 . S
Zn216 O225 1.898 . S
Zn216 O233 1.920 . S
Zn217 O220 2.080 . S
Zn217 O223 2.114 . S
Zn217 O226 2.120 . S
Zn217 O228 2.120 . S
Zn217 O229 2.114 . S
Zn217 O232 2.080 . S
C218 O223 1.166 . S
C218 O224 1.182 . S
C219 O225 1.167 . S
C219 O226 1.299 . S
O220 Zn217 2.080 . S
O220 C234 1.305 . S
O221 Zn215 1.920 . S
O221 C234 1.234 . S
C222 O227 1.167 . S
C222 O228 1.299 . S
O223 Zn217 2.114 . S
O223 C218 1.166 . S
O224 Zn216 1.905 . S
O224 C218 1.182 . S
O225 Zn216 1.898 . S
O225 C219 1.167 . S
O226 Zn217 2.120 . S
O226 C219 1.299 . S
O227 Zn215 1.898 . S
O227 C222 1.167 . S
O228 Zn217 2.120 . S
O228 C222 1.299 . S
O229 Zn217 2.114 . S
O229 C231 1.166 . S
O230 Zn215 1.905 1_655 S
O230 C231 1.182 1_655 S
C231 O229 1.166 . S
C231 O230 1.182 1_455 S
O232 Zn217 2.080 . S
O232 C235 1.305 . S
O233 Zn216 1.920 . S
O233 C235 1.234 . S
C234 O220 1.305 . S
C234 O221 1.234 . S
C235 O232 1.305 . S
C235 O233 1.234 . S
H236 C244 0.929 . S
H237 C246 0.930 . S
H238 C248 0.930 . S
H239 C251 0.929 . S
H240 C254 0.930 . S
H241 C256 0.960 . S
H242 C256 0.960 . S
H243 C256 0.960 . S
C244 H236 0.929 . S
C244 C245 1.377 . S
C244 C246 1.384 . S
C245 C244 1.377 . S
C245 C251 1.390 . S
C246 H237 0.930 . S
C246 C244 1.384 . S
C246 C247 1.372 . S
C247 C246 1.372 . S
C247 C248 1.400 . S
C247 C252 1.490 . S
C248 H238 0.930 . S
C248 C247 1.400 . S
C248 C251 1.386 . S
H249 C265 0.930 . S
H250 C266 0.931 . S
C251 H239 0.929 . S
C251 C245 1.390 . S
C251 C248 1.386 . S
C252 C247 1.490 . S
C252 C254 1.395 . S
C252 C255 1.403 . S
H253 C259 0.930 . S
C254 H240 0.930 . S
C254 C252 1.395 . S
C254 C257 1.403 . S
C255 C252 1.403 . S
C255 C256 1.524 . S
C255 C259 1.400 . S
C256 H241 0.960 . S
C256 H242 0.960 . S
C256 H243 0.960 . S
C256 C255 1.524 . S
C257 C254 1.403 . S
C257 C258 1.392 . S
C257 C261 1.495 . S
C258 C257 1.392 . S
C258 C259 1.385 . S
C258 C260 1.478 . S
C259 H253 0.930 . S
C259 C255 1.400 . S
C259 C258 1.385 . S
C260 C258 1.478 . S
C260 C262 1.381 . S
C260 C266 1.383 . S
C261 C257 1.495 . S
C261 H267 0.959 . S
C261 H268 0.961 . S
C261 H269 0.960 . S
C262 C260 1.381 . S
C262 C263 1.394 . S
C262 H270 0.930 . S
C263 C262 1.394 . S
C263 C264 1.383 . S
C263 H271 0.929 . S
C264 C263 1.383 . S
C264 C265 1.377 . S
C265 H249 0.930 . S
C265 C264 1.377 . S
C265 C266 1.379 . S
C266 H250 0.931 . S
C266 C260 1.383 . S
C266 C265 1.379 . S
H267 C261 0.959 . S
H268 C261 0.961 . S
H269 C261 0.960 . S
H270 C262 0.930 . S
H271 C263 0.929 . S
H272 C280 0.929 . S
H273 C282 0.930 . S
H274 C284 0.930 . S
H275 C287 0.929 . S
H276 C290 0.930 . S
H277 C292 0.960 . S
H278 C292 0.960 . S
H279 C292 0.960 . S
C280 H272 0.929 . S
C280 C281 1.377 . S
C280 C282 1.384 . S
C281 C280 1.377 . S
C281 C287 1.390 . S
C282 H273 0.930 . S
C282 C280 1.384 . S
C282 C283 1.372 . S
C283 C282 1.372 . S
C283 C284 1.400 . S
C283 C288 1.490 . S
C284 H274 0.930 . S
C284 C283 1.400 . S
C284 C287 1.386 . S
H285 C301 0.930 . S
H286 C302 0.931 . S
C287 H275 0.929 . S
C287 C281 1.390 . S
C287 C284 1.386 . S
C288 C283 1.490 . S
C288 C290 1.395 . S
C288 C291 1.403 . S
H289 C295 0.930 . S
C290 H276 0.930 . S
C290 C288 1.395 . S
C290 C293 1.403 . S
C291 C288 1.403 . S
C291 C292 1.524 . S
C291 C295 1.400 . S
C292 H277 0.960 . S
C292 H278 0.960 . S
C292 H279 0.960 . S
C292 C291 1.524 . S
C293 C290 1.403 . S
C293 C294 1.392 . S
C293 C297 1.495 . S
C294 C293 1.392 . S
C294 C295 1.385 . S
C294 C296 1.478 . S
C295 H289 0.930 . S
C295 C291 1.400 . S
C295 C294 1.385 . S
C296 C294 1.478 . S
C296 C298 1.381 . S
C296 C302 1.383 . S
C297 C293 1.495 . S
C297 H303 0.959 . S
C297 H304 0.961 . S
C297 H305 0.960 . S
C298 C296 1.381 . S
C298 C299 1.394 . S
C298 H306 0.930 . S
C299 C298 1.394 . S
C299 C300 1.383 . S
C299 H307 0.929 . S
C300 C299 1.383 . S
C300 C301 1.377 . S
C301 H285 0.930 . S
C301 C300 1.377 . S
C301 C302 1.379 . S
C302 H286 0.931 . S
C302 C296 1.383 . S
C302 C301 1.379 . S
H303 C297 0.959 . S
H304 C297 0.961 . S
H305 C297 0.960 . S
H306 C298 0.930 . S
H307 C299 0.929 . S
H308 C316 0.929 . S
H309 C318 0.930 . S
H310 C320 0.930 . S
H311 C323 0.929 . S
H312 C326 0.930 . S
H313 C328 0.960 . S
H314 C328 0.960 . S
H315 C328 0.960 . S
C316 H308 0.929 . S
C316 C317 1.377 . S
C316 C318 1.384 . S
C317 C316 1.377 . S
C317 C323 1.390 . S
C318 H309 0.930 . S
C318 C316 1.384 . S
C318 C319 1.372 . S
C319 C318 1.372 . S
C319 C320 1.400 . S
C319 C324 1.490 . S
C320 H310 0.930 . S
C320 C319 1.400 . S
C320 C323 1.386 . S
H321 C337 0.930 . S
H322 C338 0.931 . S
C323 H311 0.929 . S
C323 C317 1.390 . S
C323 C320 1.386 . S
C324 C319 1.490 . S
C324 C326 1.395 . S
C324 C327 1.403 . S
H325 C331 0.930 . S
C326 H312 0.930 . S
C326 C324 1.395 . S
C326 C329 1.403 . S
C327 C324 1.403 . S
C327 C328 1.524 . S
C327 C331 1.400 . S
C328 H313 0.960 . S
C328 H314 0.960 . S
C328 H315 0.960 . S
C328 C327 1.524 . S
C329 C326 1.403 . S
C329 C330 1.392 . S
C329 C333 1.495 . S
C330 C329 1.392 . S
C330 C331 1.385 . S
C330 C332 1.478 . S
C331 H325 0.930 . S
C331 C327 1.400 . S
C331 C330 1.385 . S
C332 C330 1.478 . S
C332 C334 1.381 . S
C332 C338 1.383 . S
C333 C329 1.495 . S
C333 H339 0.959 . S
C333 H340 0.961 . S
C333 H341 0.960 . S
C334 C332 1.381 . S
C334 C335 1.394 . S
C334 H342 0.930 . S
C335 C334 1.394 . S
C335 C336 1.383 . S
C335 H343 0.929 . S
C336 C335 1.383 . S
C336 C337 1.377 . S
C337 H321 0.930 . S
C337 C336 1.377 . S
C337 C338 1.379 . S
C338 H322 0.931 . S
C338 C332 1.383 . S
C338 C337 1.379 . S
H339 C333 0.959 . S
H340 C333 0.961 . S
H341 C333 0.960 . S
H342 C334 0.930 . S
H343 C335 0.929 . S
H344 C352 0.929 . S
H345 C354 0.930 . S
H346 C356 0.930 . S
H347 C359 0.929 . S
H348 C362 0.930 . S
H349 C364 0.960 . S
H350 C364 0.960 . S
H351 C364 0.960 . S
C352 H344 0.929 . S
C352 C353 1.377 . S
C352 C354 1.384 . S
C353 C352 1.377 . S
C353 C359 1.390 . S
C354 H345 0.930 . S
C354 C352 1.384 . S
C354 C355 1.372 . S
C355 C354 1.372 . S
C355 C356 1.400 . S
C355 C360 1.490 . S
C356 H346 0.930 . S
C356 C355 1.400 . S
C356 C359 1.386 . S
H357 C373 0.930 . S
H358 C374 0.931 . S
C359 H347 0.929 . S
C359 C353 1.390 . S
C359 C356 1.386 . S
C360 C355 1.490 . S
C360 C362 1.395 . S
C360 C363 1.403 . S
H361 C367 0.930 . S
C362 H348 0.930 . S
C362 C360 1.395 . S
C362 C365 1.403 . S
C363 C360 1.403 . S
C363 C364 1.524 . S
C363 C367 1.400 . S
C364 H349 0.960 . S
C364 H350 0.960 . S
C364 H351 0.960 . S
C364 C363 1.524 . S
C365 C362 1.403 . S
C365 C366 1.392 . S
C365 C369 1.495 . S
C366 C365 1.392 . S
C366 C367 1.385 . S
C366 C368 1.478 . S
C367 H361 0.930 . S
C367 C363 1.400 . S
C367 C366 1.385 . S
C368 C366 1.478 . S
C368 C370 1.381 . S
C368 C374 1.383 . S
C369 C365 1.495 . S
C369 H375 0.959 . S
C369 H376 0.961 . S
C369 H377 0.960 . S
C370 C368 1.381 . S
C370 C371 1.394 . S
C370 H378 0.930 . S
C371 C370 1.394 . S
C371 C372 1.383 . S
C371 H379 0.929 . S
C372 C371 1.383 . S
C372 C373 1.377 . S
C373 H357 0.930 . S
C373 C372 1.377 . S
C373 C374 1.379 . S
C374 H358 0.931 . S
C374 C368 1.383 . S
C374 C373 1.379 . S
H375 C369 0.959 . S
H376 C369 0.961 . S
H377 C369 0.960 . S
H378 C370 0.930 . S
H379 C371 0.929 . S
H380 C388 0.929 . S
H381 C390 0.930 . S
H382 C392 0.930 1_655 S
H383 C395 0.929 . S
H384 C398 0.930 . S
H385 C400 0.960 1_655 S
H386 C400 0.960 . S
H387 C400 0.960 1_655 S
C388 H380 0.929 . S
C388 C389 1.377 . S
C388 C390 1.384 . S
C389 C388 1.377 . S
C389 C395 1.390 1_455 S
C390 H381 0.930 . S
C390 C388 1.384 . S
C390 C391 1.372 . S
C391 C390 1.372 . S
C391 C392 1.400 . S
C391 C396 1.490 . S
C392 H382 0.930 1_455 S
C392 C391 1.400 . S
C392 C395 1.386 1_455 S
H393 C409 0.930 . S
H394 C410 0.931 . S
C395 H383 0.929 . S
C395 C389 1.390 1_655 S
C395 C392 1.386 1_655 S
C396 C391 1.490 . S
C396 C398 1.395 . S
C396 C399 1.403 . S
H397 C403 0.930 . S
C398 H384 0.930 . S
C398 C396 1.395 . S
C398 C401 1.403 . S
C399 C396 1.403 . S
C399 C400 1.524 . S
C399 C403 1.400 . S
C400 H385 0.960 1_455 S
C400 H386 0.960 . S
C400 H387 0.960 1_455 S
C400 C399 1.524 . S
C401 C398 1.403 . S
C401 C402 1.392 . S
C401 C405 1.495 . S
C402 C401 1.392 . S
C402 C403 1.385 . S
C402 C404 1.478 . S
C403 H397 0.930 . S
C403 C399 1.400 . S
C403 C402 1.385 . S
C404 C402 1.478 . S
C404 C406 1.381 . S
C404 C410 1.383 . S
C405 C401 1.495 . S
C405 H411 0.959 . S
C405 H412 0.961 . S
C405 H413 0.960 . S
C406 C404 1.381 . S
C406 C407 1.394 . S
C406 H414 0.930 . S
C407 C406 1.394 . S
C407 C408 1.383 . S
C407 H415 0.929 . S
C408 C407 1.383 . S
C408 C409 1.377 . S
C409 H393 0.930 . S
C409 C408 1.377 . S
C409 C410 1.379 . S
C410 H394 0.931 . S
C410 C404 1.383 . S
C410 C409 1.379 . S
H411 C405 0.959 . S
H412 C405 0.961 . S
H413 C405 0.960 . S
H414 C406 0.930 . S
H415 C407 0.929 . S
H416 C424 0.929 . S
H417 C426 0.930 . S
H418 C428 0.930 . S
H419 C431 0.929 . S
H420 C434 0.930 . S
H421 C436 0.960 . S
H422 C436 0.960 . S
H423 C436 0.960 . S
C424 H416 0.929 . S
C424 C425 1.377 . S
C424 C426 1.384 . S
C425 C424 1.377 . S
C425 C431 1.390 . S
C426 H417 0.930 . S
C426 C424 1.384 . S
C426 C427 1.372 . S
C427 C426 1.372 . S
C427 C428 1.400 . S
C427 C432 1.490 . S
C428 H418 0.930 . S
C428 C427 1.400 . S
C428 C431 1.386 . S
H429 C445 0.930 . S
H430 C446 0.931 . S
C431 H419 0.929 . S
C431 C425 1.390 . S
C431 C428 1.386 . S
C432 C427 1.490 . S
C432 C434 1.395 . S
C432 C435 1.403 . S
H433 C439 0.930 . S
C434 H420 0.930 . S
C434 C432 1.395 . S
C434 C437 1.403 . S
C435 C432 1.403 . S
C435 C436 1.524 . S
C435 C439 1.400 . S
C436 H421 0.960 . S
C436 H422 0.960 . S
C436 H423 0.960 . S
C436 C435 1.524 . S
C437 C434 1.403 . S
C437 C438 1.392 . S
C437 C441 1.495 . S
C438 C437 1.392 . S
C438 C439 1.385 . S
C438 C440 1.478 . S
C439 H433 0.930 . S
C439 C435 1.400 . S
C439 C438 1.385 . S
C440 C438 1.478 . S
C440 C442 1.381 1_655 S
C440 C446 1.383 . S
C441 C437 1.495 . S
C441 H447 0.959 . S
C441 H448 0.961 . S
C441 H449 0.960 . S
C442 C440 1.381 1_455 S
C442 C443 1.394 . S
C442 H450 0.930 . S
C443 C442 1.394 . S
C443 C444 1.383 . S
C443 H451 0.929 . S
C444 C443 1.383 . S
C444 C445 1.377 . S
C445 H429 0.930 . S
C445 C444 1.377 . S
C445 C446 1.379 1_455 S
C446 H430 0.931 . S
C446 C440 1.383 . S
C446 C445 1.379 1_655 S
H447 C441 0.959 . S
H448 C441 0.961 . S
H449 C441 0.960 . S
H450 C442 0.930 . S
H451 C443 0.929 . S
H452 C460 0.929 . S
H453 C462 0.930 . S
H454 C464 0.930 . S
H455 C467 0.929 . S
H456 C470 0.930 . S
H457 C472 0.960 . S
H458 C472 0.960 . S
H459 C472 0.960 . S
C460 H452 0.929 . S
C460 C461 1.377 . S
C460 C462 1.384 . S
C461 C460 1.377 . S
C461 C467 1.390 . S
C462 H453 0.930 . S
C462 C460 1.384 . S
C462 C463 1.372 . S
C463 C462 1.372 . S
C463 C464 1.400 . S
C463 C468 1.490 . S
C464 H454 0.930 . S
C464 C463 1.400 . S
C464 C467 1.386 . S
H465 C481 0.930 . S
H466 C482 0.931 . S
C467 H455 0.929 . S
C467 C461 1.390 . S
C467 C464 1.386 . S
C468 C463 1.490 . S
C468 C470 1.395 . S
C468 C471 1.403 . S
H469 C475 0.930 . S
C470 H456 0.930 . S
C470 C468 1.395 . S
C470 C473 1.403 . S
C471 C468 1.403 . S
C471 C472 1.524 . S
C471 C475 1.400 . S
C472 H457 0.960 . S
C472 H458 0.960 . S
C472 H459 0.960 . S
C472 C471 1.524 . S
C473 C470 1.403 . S
C473 C474 1.392 . S
C473 C477 1.495 . S
C474 C473 1.392 . S
C474 C475 1.385 . S
C474 C476 1.478 . S
C475 H469 0.930 . S
C475 C471 1.400 . S
C475 C474 1.385 . S
C476 C474 1.478 . S
C476 C478 1.381 . S
C476 C482 1.383 . S
C477 C473 1.495 . S
C477 H483 0.959 . S
C477 H484 0.961 . S
C477 H485 0.960 . S
C478 C476 1.381 . S
C478 C479 1.394 . S
C478 H486 0.930 . S
C479 C478 1.394 . S
C479 C480 1.383 . S
C479 H487 0.929 . S
C480 C479 1.383 . S
C480 C481 1.377 . S
C481 H465 0.930 . S
C481 C480 1.377 . S
C481 C482 1.379 . S
C482 H466 0.931 . S
C482 C476 1.383 . S
C482 C481 1.379 . S
H483 C477 0.959 . S
H484 C477 0.961 . S
H485 C477 0.960 . S
H486 C478 0.930 . S
H487 C479 0.929 . S
H488 C496 0.929 . S
H489 C498 0.930 1_655 S
H490 C500 0.930 1_655 S
H491 C503 0.929 . S
H492 C506 0.930 . S
H493 C508 0.960 . S
H494 C508 0.960 . S
H495 C508 0.960 . S
C496 H488 0.929 . S
C496 C497 1.377 . S
C496 C498 1.384 . S
C497 C496 1.377 . S
C497 C503 1.390 . S
C498 H489 0.930 1_455 S
C498 C496 1.384 . S
C498 C499 1.372 1_455 S
C499 C498 1.372 1_655 S
C499 C500 1.400 1_655 S
C499 C504 1.490 . S
C500 H490 0.930 1_455 S
C500 C499 1.400 1_455 S
C500 C503 1.386 . S
H501 C517 0.930 . S
H502 C518 0.931 . S
C503 H491 0.929 . S
C503 C497 1.390 . S
C503 C500 1.386 . S
C504 C499 1.490 . S
C504 C506 1.395 . S
C504 C507 1.403 . S
H505 C511 0.930 . S
C506 H492 0.930 . S
C506 C504 1.395 . S
C506 C509 1.403 . S
C507 C504 1.403 . S
C507 C508 1.524 . S
C507 C511 1.400 . S
C508 H493 0.960 . S
C508 H494 0.960 . S
C508 H495 0.960 . S
C508 C507 1.524 . S
C509 C506 1.403 . S
C509 C510 1.392 . S
C509 C513 1.495 . S
C510 C509 1.392 . S
C510 C511 1.385 . S
C510 C512 1.478 . S
C511 H505 0.930 . S
C511 C507 1.400 . S
C511 C510 1.385 . S
C512 C510 1.478 . S
C512 C514 1.381 . S
C512 C518 1.383 . S
C513 C509 1.495 . S
C513 H519 0.959 . S
C513 H520 0.961 . S
C513 H521 0.960 . S
C514 C512 1.381 . S
C514 C515 1.394 . S
C514 H522 0.930 . S
C515 C514 1.394 . S
C515 C516 1.383 . S
C515 H523 0.929 . S
C516 C515 1.383 . S
C516 C517 1.377 . S
C517 H501 0.930 . S
C517 C516 1.377 . S
C517 C518 1.379 . S
C518 H502 0.931 . S
C518 C512 1.383 . S
C518 C517 1.379 . S
H519 C513 0.959 . S
H520 C513 0.961 . S
H521 C513 0.960 . S
H522 C514 0.930 . S
H523 C515 0.929 . S
H524 C532 0.929 . S
H525 C534 0.930 . S
H526 C536 0.930 . S
H527 C539 0.929 . S
H528 C542 0.930 . S
H529 C544 0.960 . S
H530 C544 0.960 . S
H531 C544 0.960 . S
C532 H524 0.929 . S
C532 C533 1.377 . S
C532 C534 1.384 . S
C533 C532 1.377 . S
C533 C539 1.390 . S
C534 H525 0.930 . S
C534 C532 1.384 . S
C534 C535 1.372 . S
C535 C534 1.372 . S
C535 C536 1.400 . S
C535 C540 1.490 . S
C536 H526 0.930 . S
C536 C535 1.400 . S
C536 C539 1.386 . S
H537 C553 0.930 . S
H538 C554 0.931 . S
C539 H527 0.929 . S
C539 C533 1.390 . S
C539 C536 1.386 . S
C540 C535 1.490 . S
C540 C542 1.395 . S
C540 C543 1.403 . S
H541 C547 0.930 . S
C542 H528 0.930 . S
C542 C540 1.395 . S
C542 C545 1.403 . S
C543 C540 1.403 . S
C543 C544 1.524 . S
C543 C547 1.400 . S
C544 H529 0.960 . S
C544 H530 0.960 . S
C544 H531 0.960 . S
C544 C543 1.524 . S
C545 C542 1.403 . S
C545 C546 1.392 . S
C545 C549 1.495 . S
C546 C545 1.392 . S
C546 C547 1.385 . S
C546 C548 1.478 . S
C547 H541 0.930 . S
C547 C543 1.400 . S
C547 C546 1.385 . S
C548 C546 1.478 . S
C548 C550 1.381 . S
C548 C554 1.383 . S
C549 C545 1.495 . S
C549 H555 0.959 . S
C549 H556 0.961 . S
C549 H557 0.960 . S
C550 C548 1.381 . S
C550 C551 1.394 . S
C550 H558 0.930 . S
C551 C550 1.394 . S
C551 C552 1.383 . S
C551 H559 0.929 . S
C552 C551 1.383 . S
C552 C553 1.377 . S
C553 H537 0.930 . S
C553 C552 1.377 . S
C553 C554 1.379 . S
C554 H538 0.931 . S
C554 C548 1.383 . S
C554 C553 1.379 . S
H555 C549 0.959 . S
H556 C549 0.961 . S
H557 C549 0.960 . S
H558 C550 0.930 . S
H559 C551 0.929 . S
H560 C568 0.929 . S
H561 C570 0.930 . S
H562 C572 0.930 . S
H563 C575 0.929 . S
H564 C578 0.930 . S
H565 C580 0.960 . S
H566 C580 0.960 . S
H567 C580 0.960 . S
C568 H560 0.929 . S
C568 C569 1.377 . S
C568 C570 1.384 . S
C569 C568 1.377 . S
C569 C575 1.390 . S
C570 H561 0.930 . S
C570 C568 1.384 . S
C570 C571 1.372 . S
C571 C570 1.372 . S
C571 C572 1.400 . S
C571 C576 1.490 . S
C572 H562 0.930 . S
C572 C571 1.400 . S
C572 C575 1.386 . S
H573 C589 0.930 . S
H574 C590 0.931 . S
C575 H563 0.929 . S
C575 C569 1.390 . S
C575 C572 1.386 . S
C576 C571 1.490 . S
C576 C578 1.395 . S
C576 C579 1.403 . S
H577 C583 0.930 . S
C578 H564 0.930 . S
C578 C576 1.395 . S
C578 C581 1.403 . S
C579 C576 1.403 . S
C579 C580 1.524 . S
C579 C583 1.400 . S
C580 H565 0.960 . S
C580 H566 0.960 . S
C580 H567 0.960 . S
C580 C579 1.524 . S
C581 C578 1.403 . S
C581 C582 1.392 . S
C581 C585 1.495 . S
C582 C581 1.392 . S
C582 C583 1.385 . S
C582 C584 1.478 . S
C583 H577 0.930 . S
C583 C579 1.400 . S
C583 C582 1.385 . S
C584 C582 1.478 . S
C584 C586 1.381 . S
C584 C590 1.383 . S
C585 C581 1.495 . S
C585 H591 0.959 . S
C585 H592 0.961 . S
C585 H593 0.960 . S
C586 C584 1.381 . S
C586 C587 1.394 . S
C586 H594 0.930 . S
C587 C586 1.394 . S
C587 C588 1.383 . S
C587 H595 0.929 . S
C588 C587 1.383 . S
C588 C589 1.377 . S
C589 H573 0.930 . S
C589 C588 1.377 . S
C589 C590 1.379 . S
C590 H574 0.931 . S
C590 C584 1.383 . S
C590 C589 1.379 . S
H591 C585 0.959 . S
H592 C585 0.961 . S
H593 C585 0.960 . S
H594 C586 0.930 . S
H595 C587 0.929 . S
H596 C604 0.929 . S
H597 C606 0.930 . S
H598 C608 0.930 . S
H599 C611 0.929 . S
H600 C614 0.930 . S
H601 C616 0.960 . S
H602 C616 0.960 . S
H603 C616 0.960 . S
C604 H596 0.929 . S
C604 C605 1.377 . S
C604 C606 1.384 . S
C605 C604 1.377 . S
C605 C611 1.390 . S
C606 H597 0.930 . S
C606 C604 1.384 . S
C606 C607 1.372 . S
C607 C606 1.372 . S
C607 C608 1.400 . S
C607 C612 1.490 . S
C608 H598 0.930 . S
C608 C607 1.400 . S
C608 C611 1.386 . S
H609 C625 0.930 . S
H610 C626 0.931 . S
C611 H599 0.929 . S
C611 C605 1.390 . S
C611 C608 1.386 . S
C612 C607 1.490 . S
C612 C614 1.395 . S
C612 C615 1.403 . S
H613 C619 0.930 . S
C614 H600 0.930 . S
C614 C612 1.395 . S
C614 C617 1.403 . S
C615 C612 1.403 . S
C615 C616 1.524 . S
C615 C619 1.400 . S
C616 H601 0.960 . S
C616 H602 0.960 . S
C616 H603 0.960 . S
C616 C615 1.524 . S
C617 C614 1.403 . S
C617 C618 1.392 . S
C617 C621 1.495 . S
C618 C617 1.392 . S
C618 C619 1.385 . S
C618 C620 1.478 . S
C619 H613 0.930 . S
C619 C615 1.400 . S
C619 C618 1.385 . S
C620 C618 1.478 . S
C620 C622 1.381 . S
C620 C626 1.383 . S
C621 C617 1.495 . S
C621 H627 0.959 . S
C621 H628 0.961 . S
C621 H629 0.960 . S
C622 C620 1.381 . S
C622 C623 1.394 . S
C622 H630 0.930 . S
C623 C622 1.394 . S
C623 C624 1.383 . S
C623 H631 0.929 . S
C624 C623 1.383 . S
C624 C625 1.377 . S
C625 H609 0.930 . S
C625 C624 1.377 . S
C625 C626 1.379 . S
C626 H610 0.931 . S
C626 C620 1.383 . S
C626 C625 1.379 . S
H627 C621 0.959 . S
H628 C621 0.961 . S
H629 C621 0.960 . S
H630 C622 0.930 . S
H631 C623 0.929 . S
H632 C640 0.929 . S
H633 C642 0.930 . S
H634 C644 0.930 . S
H635 C647 0.929 . S
H636 C650 0.930 . S
H637 C652 0.960 . S
H638 C652 0.960 . S
H639 C652 0.960 . S
C640 H632 0.929 . S
C640 C641 1.377 . S
C640 C642 1.384 . S
C641 C640 1.377 . S
C641 C647 1.390 . S
C642 H633 0.930 . S
C642 C640 1.384 . S
C642 C643 1.372 . S
C643 C642 1.372 . S
C643 C644 1.400 . S
C643 C648 1.490 . S
C644 H634 0.930 . S
C644 C643 1.400 . S
C644 C647 1.386 . S
H645 C661 0.930 . S
H646 C662 0.931 . S
C647 H635 0.929 . S
C647 C641 1.390 . S
C647 C644 1.386 . S
C648 C643 1.490 . S
C648 C650 1.395 . S
C648 C651 1.403 . S
H649 C655 0.930 . S
C650 H636 0.930 . S
C650 C648 1.395 . S
C650 C653 1.403 . S
C651 C648 1.403 . S
C651 C652 1.524 . S
C651 C655 1.400 . S
C652 H637 0.960 . S
C652 H638 0.960 . S
C652 H639 0.960 . S
C652 C651 1.524 . S
C653 C650 1.403 . S
C653 C654 1.392 . S
C653 C657 1.495 . S
C654 C653 1.392 . S
C654 C655 1.385 . S
C654 C656 1.478 . S
C655 H649 0.930 . S
C655 C651 1.400 . S
C655 C654 1.385 . S
C656 C654 1.478 . S
C656 C658 1.381 . S
C656 C662 1.383 . S
C657 C653 1.495 . S
C657 H663 0.959 . S
C657 H664 0.961 . S
C657 H665 0.960 . S
C658 C656 1.381 . S
C658 C659 1.394 . S
C658 H666 0.930 . S
C659 C658 1.394 . S
C659 C660 1.383 . S
C659 H667 0.929 . S
C660 C659 1.383 . S
C660 C661 1.377 . S
C661 H645 0.930 . S
C661 C660 1.377 . S
C661 C662 1.379 . S
C662 H646 0.931 . S
C662 C656 1.383 . S
C662 C661 1.379 . S
H663 C657 0.959 . S
H664 C657 0.961 . S
H665 C657 0.960 . S
H666 C658 0.930 . S
H667 C659 0.929 . S
H668 C676 0.929 . S
H669 C678 0.930 . S
H670 C680 0.930 . S
H671 C683 0.929 . S
H672 C686 0.930 . S
H673 C688 0.960 . S
H674 C688 0.960 . S
H675 C688 0.960 . S
C676 H668 0.929 . S
C676 C677 1.377 . S
C676 C678 1.384 . S
C677 C676 1.377 . S
C677 C683 1.390 . S
C678 H669 0.930 . S
C678 C676 1.384 . S
C678 C679 1.372 . S
C679 C678 1.372 . S
C679 C680 1.400 . S
C679 C684 1.490 . S
C680 H670 0.930 . S
C680 C679 1.400 . S
C680 C683 1.386 . S
H681 C697 0.930 . S
H682 C698 0.931 . S
C683 H671 0.929 . S
C683 C677 1.390 . S
C683 C680 1.386 . S
C684 C679 1.490 . S
C684 C686 1.395 . S
C684 C687 1.403 . S
H685 C691 0.930 . S
C686 H672 0.930 . S
C686 C684 1.395 . S
C686 C689 1.403 . S
C687 C684 1.403 . S
C687 C688 1.524 . S
C687 C691 1.400 . S
C688 H673 0.960 . S
C688 H674 0.960 . S
C688 H675 0.960 . S
C688 C687 1.524 . S
C689 C686 1.403 . S
C689 C690 1.392 . S
C689 C693 1.495 . S
C690 C689 1.392 . S
C690 C691 1.385 . S
C690 C692 1.478 1_565 S
C691 H685 0.930 . S
C691 C687 1.400 . S
C691 C690 1.385 . S
C692 C690 1.478 1_545 S
C692 C694 1.381 . S
C692 C698 1.383 . S
C693 C689 1.495 . S
C693 H699 0.959 . S
C693 H700 0.961 1_565 S
C693 H701 0.960 1_565 S
C694 C692 1.381 . S
C694 C695 1.394 . S
C694 H702 0.930 . S
C695 C694 1.394 . S
C695 C696 1.383 . S
C695 H703 0.929 . S
C696 C695 1.383 . S
C696 C697 1.377 . S
C697 H681 0.930 . S
C697 C696 1.377 . S
C697 C698 1.379 . S
C698 H682 0.931 . S
C698 C692 1.383 . S
C698 C697 1.379 . S
H699 C693 0.959 . S
H700 C693 0.961 1_545 S
H701 C693 0.960 1_545 S
H702 C694 0.930 . S
H703 C695 0.929 . S
H704 C712 0.929 . S
H705 C714 0.930 . S
H706 C716 0.930 . S
H707 C719 0.929 . S
H708 C722 0.930 . S
H709 C724 0.960 . S
H710 C724 0.960 . S
H711 C724 0.960 1_545 S
C712 H704 0.929 . S
C712 C713 1.377 . S
C712 C714 1.384 . S
C713 C712 1.377 . S
C713 C719 1.390 . S
C714 H705 0.930 . S
C714 C712 1.384 . S
C714 C715 1.372 . S
C715 C714 1.372 . S
C715 C716 1.400 . S
C715 C720 1.490 1_545 S
C716 H706 0.930 . S
C716 C715 1.400 . S
C716 C719 1.386 . S
H717 C733 0.930 . S
H718 C734 0.931 . S
C719 H707 0.929 . S
C719 C713 1.390 . S
C719 C716 1.386 . S
C720 C715 1.490 1_565 S
C720 C722 1.395 . S
C720 C723 1.403 . S
H721 C727 0.930 . S
C722 H708 0.930 . S
C722 C720 1.395 . S
C722 C725 1.403 . S
C723 C720 1.403 . S
C723 C724 1.524 . S
C723 C727 1.400 . S
C724 H709 0.960 . S
C724 H710 0.960 . S
C724 H711 0.960 1_565 S
C724 C723 1.524 . S
C725 C722 1.403 . S
C725 C726 1.392 . S
C725 C729 1.495 . S
C726 C725 1.392 . S
C726 C727 1.385 . S
C726 C728 1.478 . S
C727 H721 0.930 . S
C727 C723 1.400 . S
C727 C726 1.385 . S
C728 C726 1.478 . S
C728 C730 1.381 . S
C728 C734 1.383 . S
C729 C725 1.495 . S
C729 H735 0.959 . S
C729 H736 0.961 . S
C729 H737 0.960 . S
C730 C728 1.381 . S
C730 C731 1.394 . S
C730 H738 0.930 . S
C731 C730 1.394 . S
C731 C732 1.383 . S
C731 H739 0.929 . S
C732 C731 1.383 . S
C732 C733 1.377 . S
C733 H717 0.930 . S
C733 C732 1.377 . S
C733 C734 1.379 . S
C734 H718 0.931 . S
C734 C728 1.383 . S
C734 C733 1.379 . S
H735 C729 0.959 . S
H736 C729 0.961 . S
H737 C729 0.960 . S
H738 C730 0.930 . S
H739 C731 0.929 . S
H740 C748 0.929 . S
H741 C750 0.930 . S
H742 C752 0.930 . S
H743 C755 0.929 . S
H744 C758 0.930 . S
H745 C760 0.960 . S
H746 C760 0.960 . S
H747 C760 0.960 . S
C748 H740 0.929 . S
C748 C749 1.377 . S
C748 C750 1.384 . S
C749 C748 1.377 . S
C749 C755 1.390 . S
C750 H741 0.930 . S
C750 C748 1.384 . S
C750 C751 1.372 . S
C751 C750 1.372 . S
C751 C752 1.400 . S
C751 C756 1.490 . S
C752 H742 0.930 . S
C752 C751 1.400 . S
C752 C755 1.386 . S
H753 C769 0.930 . S
H754 C770 0.931 . S
C755 H743 0.929 . S
C755 C749 1.390 . S
C755 C752 1.386 . S
C756 C751 1.490 . S
C756 C758 1.395 . S
C756 C759 1.403 . S
H757 C763 0.930 1_565 S
C758 H744 0.930 . S
C758 C756 1.395 . S
C758 C761 1.403 . S
C759 C756 1.403 . S
C759 C760 1.524 . S
C759 C763 1.400 . S
C760 H745 0.960 . S
C760 H746 0.960 . S
C760 H747 0.960 . S
C760 C759 1.524 . S
C761 C758 1.403 . S
C761 C762 1.392 1_545 S
C761 C765 1.495 1_545 S
C762 C761 1.392 1_565 S
C762 C763 1.385 1_565 S
C762 C764 1.478 . S
C763 H757 0.930 1_545 S
C763 C759 1.400 . S
C763 C762 1.385 1_545 S
C764 C762 1.478 . S
C764 C766 1.381 . S
C764 C770 1.383 . S
C765 C761 1.495 1_565 S
C765 H771 0.959 . S
C765 H772 0.961 . S
C765 H773 0.960 . S
C766 C764 1.381 . S
C766 C767 1.394 . S
C766 H774 0.930 . S
C767 C766 1.394 . S
C767 C768 1.383 . S
C767 H775 0.929 . S
C768 C767 1.383 . S
C768 C769 1.377 . S
C769 H753 0.930 . S
C769 C768 1.377 . S
C769 C770 1.379 . S
C770 H754 0.931 . S
C770 C764 1.383 . S
C770 C769 1.379 . S
H771 C765 0.959 . S
H772 C765 0.961 . S
H773 C765 0.960 . S
H774 C766 0.930 . S
H775 C767 0.929 . S
H776 C784 0.929 . S
H777 C786 0.930 . S
H778 C788 0.930 1_655 S
H779 C791 0.929 . S
H780 C794 0.930 . S
H781 C796 0.960 . S
H782 C796 0.960 . S
H783 C796 0.960 . S
C784 H776 0.929 . S
C784 C785 1.377 . S
C784 C786 1.384 . S
C785 C784 1.377 . S
C785 C791 1.390 1_455 S
C786 H777 0.930 . S
C786 C784 1.384 . S
C786 C787 1.372 . S
C787 C786 1.372 . S
C787 C788 1.400 . S
C787 C792 1.490 . S
C788 H778 0.930 1_455 S
C788 C787 1.400 . S
C788 C791 1.386 1_455 S
H789 C805 0.930 . S
H790 C806 0.931 . S
C791 H779 0.929 . S
C791 C785 1.390 1_655 S
C791 C788 1.386 1_655 S
C792 C787 1.490 . S
C792 C794 1.395 . S
C792 C795 1.403 1_565 S
H793 C799 0.930 . S
C794 H780 0.930 . S
C794 C792 1.395 . S
C794 C797 1.403 1_565 S
C795 C792 1.403 1_545 S
C795 C796 1.524 . S
C795 C799 1.400 . S
C796 H781 0.960 . S
C796 H782 0.960 . S
C796 H783 0.960 . S
C796 C795 1.524 . S
C797 C794 1.403 1_545 S
C797 C798 1.392 . S
C797 C801 1.495 . S
C798 C797 1.392 . S
C798 C799 1.385 . S
C798 C800 1.478 . S
C799 H793 0.930 . S
C799 C795 1.400 . S
C799 C798 1.385 . S
C800 C798 1.478 . S
C800 C802 1.381 . S
C800 C806 1.383 . S
C801 C797 1.495 . S
C801 H807 0.959 . S
C801 H808 0.961 . S
C801 H809 0.960 . S
C802 C800 1.381 . S
C802 C803 1.394 . S
C802 H810 0.930 . S
C803 C802 1.394 . S
C803 C804 1.383 . S
C803 H811 0.929 . S
C804 C803 1.383 . S
C804 C805 1.377 . S
C805 H789 0.930 . S
C805 C804 1.377 . S
C805 C806 1.379 . S
C806 H790 0.931 . S
C806 C800 1.383 . S
C806 C805 1.379 . S
H807 C801 0.959 . S
H808 C801 0.961 . S
H809 C801 0.960 . S
H810 C802 0.930 . S
H811 C803 0.929 . S
H812 C820 0.929 . S
H813 C822 0.930 . S
H814 C824 0.930 . S
H815 C827 0.929 . S
H816 C830 0.909 1_554 S
H817 C832 0.960 . S
H818 C832 0.960 . S
H819 C832 0.960 1_554 S
C820 H812 0.929 . S
C820 C821 1.377 . S
C820 C822 1.384 . S
C821 C820 1.377 . S
C821 C827 1.390 . S
C822 H813 0.930 . S
C822 C820 1.384 . S
C822 C823 1.372 . S
C823 C822 1.372 . S
C823 C824 1.400 . S
C823 C828 1.415 1_554 S
C824 H814 0.930 . S
C824 C823 1.400 . S
C824 C827 1.386 . S
H825 C841 0.930 . S
H826 C842 0.931 . S
C827 H815 0.929 . S
C827 C821 1.390 . S
C827 C824 1.386 . S
C828 C823 1.415 1_556 S
C828 C830 1.410 . S
C828 C831 1.465 . S
H829 C835 0.930 . S
C830 H816 0.909 1_556 S
C830 C828 1.410 . S
C830 C833 1.403 . S
C831 C828 1.465 . S
C831 C832 1.524 . S
C831 C835 1.400 . S
C832 H817 0.960 . S
C832 H818 0.960 . S
C832 H819 0.960 1_556 S
C832 C831 1.524 . S
C833 C830 1.403 . S
C833 C834 1.392 . S
C833 C837 1.495 . S
C834 C833 1.392 . S
C834 C835 1.385 . S
C834 C836 1.478 . S
C835 H829 0.930 . S
C835 C831 1.400 . S
C835 C834 1.385 . S
C836 C834 1.478 . S
C836 C838 1.381 . S
C836 C842 1.383 . S
C837 C833 1.495 . S
C837 H843 0.959 . S
C837 H844 0.961 . S
C837 H845 0.960 . S
C838 C836 1.381 . S
C838 C839 1.394 . S
C838 H846 0.930 . S
C839 C838 1.394 . S
C839 C840 1.383 . S
C839 H847 0.929 . S
C840 C839 1.383 . S
C840 C841 1.377 . S
C841 H825 0.930 . S
C841 C840 1.377 . S
C841 C842 1.379 . S
C842 H826 0.931 . S
C842 C836 1.383 . S
C842 C841 1.379 . S
H843 C837 0.959 . S
H844 C837 0.961 . S
H845 C837 0.960 . S
H846 C838 0.930 . S
H847 C839 0.929 . S
H848 C856 0.929 . S
H849 C858 0.930 . S
H850 C860 0.930 . S
H851 C863 0.929 . S
H852 C866 0.930 . S
H853 C868 0.960 . S
H854 C868 0.960 . S
H855 C868 0.960 . S
C856 H848 0.929 . S
C856 C857 1.377 . S
C856 C858 1.384 . S
C857 C856 1.377 . S
C857 C863 1.390 . S
C858 H849 0.930 . S
C858 C856 1.384 . S
C858 C859 1.372 . S
C859 C858 1.372 . S
C859 C860 1.400 . S
C859 C864 1.490 . S
C860 H850 0.930 . S
C860 C859 1.400 . S
C860 C863 1.386 . S
H861 C877 0.930 . S
H862 C878 0.931 . S
C863 H851 0.929 . S
C863 C857 1.390 . S
C863 C860 1.386 . S
C864 C859 1.490 . S
C864 C866 1.395 . S
C864 C867 1.403 . S
H865 C871 0.930 . S
C866 H852 0.930 . S
C866 C864 1.395 . S
C866 C869 1.403 . S
C867 C864 1.403 . S
C867 C868 1.524 . S
C867 C871 1.400 . S
C868 H853 0.960 . S
C868 H854 0.960 . S
C868 H855 0.960 . S
C868 C867 1.524 . S
C869 C866 1.403 . S
C869 C870 1.392 . S
C869 C873 1.495 . S
C870 C869 1.392 . S
C870 C871 1.385 . S
C870 C872 1.478 . S
C871 H865 0.930 . S
C871 C867 1.400 . S
C871 C870 1.385 . S
C872 C870 1.478 . S
C872 C874 1.381 . S
C872 C878 1.383 . S
C873 C869 1.495 . S
C873 H879 0.959 . S
C873 H880 0.961 . S
C873 H881 0.960 . S
C874 C872 1.381 . S
C874 C875 1.394 . S
C874 H882 0.930 . S
C875 C874 1.394 . S
C875 C876 1.383 . S
C875 H883 0.929 . S
C876 C875 1.383 . S
C876 C877 1.377 . S
C877 H861 0.930 . S
C877 C876 1.377 . S
C877 C878 1.379 . S
C878 H862 0.931 . S
C878 C872 1.383 . S
C878 C877 1.379 . S
H879 C873 0.959 . S
H880 C873 0.961 . S
H881 C873 0.960 . S
H882 C874 0.930 . S
H883 C875 0.929 . S
H884 C892 0.929 . S
H885 C894 0.930 . S
H886 C896 0.930 . S
H887 C899 0.929 . S
H888 C902 0.930 . S
H889 C904 0.960 . S
H890 C904 0.960 . S
H891 C904 0.960 . S
C892 H884 0.929 . S
C892 C893 1.377 . S
C892 C894 1.384 . S
C893 C892 1.377 . S
C893 C899 1.390 . S
C894 H885 0.930 . S
C894 C892 1.384 . S
C894 C895 1.372 . S
C895 C894 1.372 . S
C895 C896 1.400 . S
C895 C900 1.490 . S
C896 H886 0.930 . S
C896 C895 1.400 . S
C896 C899 1.386 . S
H897 C913 0.930 . S
H898 C914 0.931 . S
C899 H887 0.929 . S
C899 C893 1.390 . S
C899 C896 1.386 . S
C900 C895 1.490 . S
C900 C902 1.395 . S
C900 C903 1.403 . S
H901 C907 0.930 . S
C902 H888 0.930 . S
C902 C900 1.395 . S
C902 C905 1.403 . S
C903 C900 1.403 . S
C903 C904 1.524 . S
C903 C907 1.400 . S
C904 H889 0.960 . S
C904 H890 0.960 . S
C904 H891 0.960 . S
C904 C903 1.524 . S
C905 C902 1.403 . S
C905 C906 1.392 . S
C905 C909 1.495 . S
C906 C905 1.392 . S
C906 C907 1.385 . S
C906 C908 1.478 . S
C907 H901 0.930 . S
C907 C903 1.400 . S
C907 C906 1.385 . S
C908 C906 1.478 . S
C908 C910 1.381 . S
C908 C914 1.383 . S
C909 C905 1.495 . S
C909 H915 0.959 . S
C909 H916 0.961 . S
C909 H917 0.960 . S
C910 C908 1.381 . S
C910 C911 1.394 . S
C910 H918 0.930 . S
C911 C910 1.394 . S
C911 C912 1.383 . S
C911 H919 0.929 . S
C912 C911 1.383 . S
C912 C913 1.377 . S
C913 H897 0.930 . S
C913 C912 1.377 . S
C913 C914 1.379 . S
C914 H898 0.931 . S
C914 C908 1.383 . S
C914 C913 1.379 . S
H915 C909 0.959 . S
H916 C909 0.961 . S
H917 C909 0.960 . S
H918 C910 0.930 . S
H919 C911 0.929 . S
H920 C928 0.929 . S
H921 C930 0.930 . S
H922 C932 0.930 . S
H923 C935 0.929 . S
H924 C938 0.930 . S
H925 C940 0.960 . S
H926 C940 0.960 . S
H927 C940 0.960 . S
C928 H920 0.929 . S
C928 C929 1.377 . S
C928 C930 1.384 . S
C929 C928 1.377 . S
C929 C935 1.390 . S
C930 H921 0.930 . S
C930 C928 1.384 . S
C930 C931 1.372 . S
C931 C930 1.372 . S
C931 C932 1.400 . S
C931 C936 1.490 . S
C932 H922 0.930 . S
C932 C931 1.400 . S
C932 C935 1.386 . S
H933 C949 0.930 . S
H934 C950 0.931 . S
C935 H923 0.929 . S
C935 C929 1.390 . S
C935 C932 1.386 . S
C936 C931 1.490 . S
C936 C938 1.395 . S
C936 C939 1.403 . S
H937 C943 0.930 . S
C938 H924 0.930 . S
C938 C936 1.395 . S
C938 C941 1.403 . S
C939 C936 1.403 . S
C939 C940 1.524 . S
C939 C943 1.400 . S
C940 H925 0.960 . S
C940 H926 0.960 . S
C940 H927 0.960 . S
C940 C939 1.524 . S
C941 C938 1.403 . S
C941 C942 1.392 . S
C941 C945 1.495 . S
C942 C941 1.392 . S
C942 C943 1.385 . S
C942 C944 1.478 . S
C943 H937 0.930 . S
C943 C939 1.400 . S
C943 C942 1.385 . S
C944 C942 1.478 . S
C944 C946 1.381 . S
C944 C950 1.383 . S
C945 C941 1.495 . S
C945 H951 0.959 . S
C945 H952 0.961 . S
C945 H953 0.960 . S
C946 C944 1.381 . S
C946 C947 1.394 . S
C946 H954 0.930 . S
C947 C946 1.394 . S
C947 C948 1.383 . S
C947 H955 0.929 . S
C948 C947 1.383 . S
C948 C949 1.377 . S
C949 H933 0.930 . S
C949 C948 1.377 . S
C949 C950 1.379 . S
C950 H934 0.931 . S
C950 C944 1.383 . S
C950 C949 1.379 . S
H951 C945 0.959 . S
H952 C945 0.961 . S
H953 C945 0.960 . S
H954 C946 0.930 . S
H955 C947 0.929 . S
H956 C964 0.929 . S
H957 C966 0.930 . S
H958 C968 0.930 . S
H959 C971 0.929 . S
H960 C974 0.930 1_556 S
H961 C976 0.968 . S
H962 C976 0.960 1_556 S
H963 C976 0.960 1_556 S
C964 H956 0.929 . S
C964 C965 1.377 . S
C964 C966 1.384 . S
C965 C964 1.377 . S
C965 C971 1.390 . S
C966 H957 0.930 . S
C966 C964 1.384 . S
C966 C967 1.372 . S
C967 C966 1.372 . S
C967 C968 1.400 . S
C967 C972 1.490 . S
C968 H958 0.930 . S
C968 C967 1.400 . S
C968 C971 1.386 . S
H969 C985 0.930 . S
H970 C986 0.931 . S
C971 H959 0.929 . S
C971 C965 1.390 . S
C971 C968 1.386 . S
C972 C967 1.490 . S
C972 C974 1.395 1_556 S
C972 C975 1.403 1_556 S
H973 C979 0.930 . S
C974 H960 0.930 1_554 S
C974 C972 1.395 1_554 S
C974 C977 1.403 . S
C975 C972 1.403 1_554 S
C975 C976 1.524 . S
C975 C979 1.400 . S
C976 H961 0.968 . S
C976 H962 0.960 1_554 S
C976 H963 0.960 1_554 S
C976 C975 1.524 . S
C977 C974 1.403 . S
C977 C978 1.392 . S
C977 C981 1.495 . S
C978 C977 1.392 . S
C978 C979 1.385 . S
C978 C980 1.478 . S
C979 H973 0.930 . S
C979 C975 1.400 . S
C979 C978 1.385 . S
C980 C978 1.478 . S
C980 C982 1.381 . S
C980 C986 1.383 . S
C981 C977 1.495 . S
C981 H987 0.959 . S
C981 H988 0.961 . S
C981 H989 0.960 . S
C982 C980 1.381 . S
C982 C983 1.394 . S
C982 H990 0.930 . S
C983 C982 1.394 . S
C983 C984 1.383 . S
C983 H991 0.929 . S
C984 C983 1.383 . S
C984 C985 1.377 . S
C985 H969 0.930 . S
C985 C984 1.377 . S
C985 C986 1.379 . S
C986 H970 0.931 . S
C986 C980 1.383 . S
C986 C985 1.379 . S
H987 C981 0.959 . S
H988 C981 0.961 . S
H989 C981 0.960 . S
H990 C982 0.930 . S
H991 C983 0.929 . S
H992 C1000 0.929 . S
H993 C1002 0.930 . S
H994 C1004 0.930 . S
H995 C1007 0.929 . S
H996 C1010 0.930 . S
H997 C1012 0.960 . S
H998 C1012 0.960 . S
H999 C1012 0.960 . S
C1000 H992 0.929 . S
C1000 C1001 1.377 . S
C1000 C1002 1.384 . S
C1001 C1000 1.377 . S
C1001 C1007 1.390 . S
C1002 H993 0.930 . S
C1002 C1000 1.384 . S
C1002 C1003 1.372 . S
C1003 C1002 1.372 . S
C1003 C1004 1.400 . S
C1003 C1008 1.490 . S
C1004 H994 0.930 . S
C1004 C1003 1.400 . S
C1004 C1007 1.386 . S
H1005 C1021 0.930 . S
H1006 C1022 0.931 . S
C1007 H995 0.929 . S
C1007 C1001 1.390 . S
C1007 C1004 1.386 . S
C1008 C1003 1.490 . S
C1008 C1010 1.395 . S
C1008 C1011 1.403 . S
H1009 C1015 0.930 . S
C1010 H996 0.930 . S
C1010 C1008 1.395 . S
C1010 C1013 1.403 . S
C1011 C1008 1.403 . S
C1011 C1012 1.524 . S
C1011 C1015 1.400 . S
C1012 H997 0.960 . S
C1012 H998 0.960 . S
C1012 H999 0.960 . S
C1012 C1011 1.524 . S
C1013 C1010 1.403 . S
C1013 C1014 1.392 . S
C1013 C1017 1.495 . S
C1014 C1013 1.392 . S
C1014 C1015 1.385 . S
C1014 C1016 1.478 . S
C1015 H1009 0.930 . S
C1015 C1011 1.400 . S
C1015 C1014 1.385 . S
C1016 C1014 1.478 . S
C1016 C1018 1.381 . S
C1016 C1022 1.383 . S
C1017 C1013 1.495 . S
C1017 H1023 0.959 . S
C1017 H1024 0.961 . S
C1017 H1025 0.960 . S
C1018 C1016 1.381 . S
C1018 C1019 1.394 . S
C1018 H1026 0.930 . S
C1019 C1018 1.394 . S
C1019 C1020 1.383 . S
C1019 H1027 0.929 . S
C1020 C1019 1.383 . S
C1020 C1021 1.377 . S
C1021 H1005 0.930 . S
C1021 C1020 1.377 . S
C1021 C1022 1.379 . S
C1022 H1006 0.931 . S
C1022 C1016 1.383 . S
C1022 C1021 1.379 . S
H1023 C1017 0.959 . S
H1024 C1017 0.961 . S
H1025 C1017 0.960 . S
H1026 C1018 0.930 . S
H1027 C1019 0.929 . S
H1028 C1036 0.929 . S
H1029 C1038 0.930 . S
H1030 C1040 0.930 . S
H1031 C1043 0.929 . S
H1032 C1046 0.930 . S
H1033 C1048 0.960 . S
H1034 C1048 0.960 . S
H1035 C1048 0.960 . S
C1036 H1028 0.929 . S
C1036 C1037 1.377 . S
C1036 C1038 1.384 . S
C1037 C1036 1.377 . S
C1037 C1043 1.390 . S
C1038 H1029 0.930 . S
C1038 C1036 1.384 . S
C1038 C1039 1.372 . S
C1039 C1038 1.372 . S
C1039 C1040 1.400 . S
C1039 C1044 1.490 . S
C1040 H1030 0.930 . S
C1040 C1039 1.400 . S
C1040 C1043 1.386 . S
H1041 C1057 0.930 . S
H1042 C1058 0.931 . S
C1043 H1031 0.929 . S
C1043 C1037 1.390 . S
C1043 C1040 1.386 . S
C1044 C1039 1.490 . S
C1044 C1046 1.395 . S
C1044 C1047 1.403 . S
H1045 C1051 0.930 . S
C1046 H1032 0.930 . S
C1046 C1044 1.395 . S
C1046 C1049 1.403 . S
C1047 C1044 1.403 . S
C1047 C1048 1.524 . S
C1047 C1051 1.400 . S
C1048 H1033 0.960 . S
C1048 H1034 0.960 . S
C1048 H1035 0.960 . S
C1048 C1047 1.524 . S
C1049 C1046 1.403 . S
C1049 C1050 1.392 . S
C1049 C1053 1.495 . S
C1050 C1049 1.392 . S
C1050 C1051 1.385 . S
C1050 C1052 1.478 . S
C1051 H1045 0.930 . S
C1051 C1047 1.400 . S
C1051 C1050 1.385 . S
C1052 C1050 1.478 . S
C1052 C1054 1.381 . S
C1052 C1058 1.383 . S
C1053 C1049 1.495 . S
C1053 H1059 0.959 . S
C1053 H1060 0.961 . S
C1053 H1061 0.960 . S
C1054 C1052 1.381 . S
C1054 C1055 1.394 . S
C1054 H1062 0.930 . S
C1055 C1054 1.394 . S
C1055 C1056 1.383 . S
C1055 H1063 0.929 . S
C1056 C1055 1.383 . S
C1056 C1057 1.377 . S
C1057 H1041 0.930 . S
C1057 C1056 1.377 . S
C1057 C1058 1.379 . S
C1058 H1042 0.931 . S
C1058 C1052 1.383 . S
C1058 C1057 1.379 . S
H1059 C1053 0.959 . S
H1060 C1053 0.961 . S
H1061 C1053 0.960 . S
H1062 C1054 0.930 . S
H1063 C1055 0.929 . S
H1064 C1072 0.929 . S
H1065 C1074 0.930 . S
H1066 C1076 0.930 . S
H1067 C1079 0.929 . S
H1068 C1082 0.930 . S
H1069 C1084 0.960 . S
H1070 C1084 0.960 . S
H1071 C1084 0.960 . S
C1072 H1064 0.929 . S
C1072 C1073 1.377 . S
C1072 C1074 1.384 . S
C1073 C1072 1.377 . S
C1073 C1079 1.390 . S
C1074 H1065 0.930 . S
C1074 C1072 1.384 . S
C1074 C1075 1.372 . S
C1075 C1074 1.372 . S
C1075 C1076 1.400 . S
C1075 C1080 1.490 . S
C1076 H1066 0.930 . S
C1076 C1075 1.400 . S
C1076 C1079 1.386 . S
H1077 C1093 0.930 . S
H1078 C1094 0.931 . S
C1079 H1067 0.929 . S
C1079 C1073 1.390 . S
C1079 C1076 1.386 . S
C1080 C1075 1.490 . S
C1080 C1082 1.395 . S
C1080 C1083 1.403 . S
H1081 C1087 0.930 . S
C1082 H1068 0.930 . S
C1082 C1080 1.395 . S
C1082 C1085 1.403 . S
C1083 C1080 1.403 . S
C1083 C1084 1.524 . S
C1083 C1087 1.400 . S
C1084 H1069 0.960 . S
C1084 H1070 0.960 . S
C1084 H1071 0.960 . S
C1084 C1083 1.524 . S
C1085 C1082 1.403 . S
C1085 C1086 1.392 . S
C1085 C1089 1.495 . S
C1086 C1085 1.392 . S
C1086 C1087 1.385 . S
C1086 C1088 1.478 . S
C1087 H1081 0.930 . S
C1087 C1083 1.400 . S
C1087 C1086 1.385 . S
C1088 C1086 1.478 . S
C1088 C1090 1.381 . S
C1088 C1094 1.383 . S
C1089 C1085 1.495 . S
C1089 H1095 0.959 . S
C1089 H1096 0.961 . S
C1089 H1097 0.960 . S
C1090 C1088 1.381 . S
C1090 C1091 1.394 . S
C1090 H1098 0.930 . S
C1091 C1090 1.394 . S
C1091 C1092 1.383 . S
C1091 H1099 0.929 . S
C1092 C1091 1.383 . S
C1092 C1093 1.377 . S
C1093 H1077 0.930 . S
C1093 C1092 1.377 . S
C1093 C1094 1.379 . S
C1094 H1078 0.931 . S
C1094 C1088 1.383 . S
C1094 C1093 1.379 . S
H1095 C1089 0.959 . S
H1096 C1089 0.961 . S
H1097 C1089 0.960 . S
H1098 C1090 0.930 . S
H1099 C1091 0.929 . S
C264 C159 1.443 . S
C245 C6 1.602 . S
C300 C177 1.334 . S
C281 C30 1.414 . S
C317 C49 1.307 . S
C336 C201 1.274 . S
C372 C231 1.251 1_655 S
C353 C63 1.411 . S
C408 C219 1.170 . S
C389 C82 1.313 . S
C425 C106 1.421 . S
C444 C172 1.427 . S
C461 C125 1.639 . S
C480 C192 1.581 . S
C497 C139 1.420 . S
C516 C197 1.334 . S
C533 C144 1.422 . S
C552 C213 1.361 . S
C569 C101 1.420 . S
C588 C168 1.325 . S
C624 C235 1.382 . S
C605 C68 1.411 . S
C660 C180 1.248 . S
C641 C25 1.417 . S
C677 C44 1.600 . S
C696 C198 1.448 . S
C713 C11 1.328 . S
C732 C156 1.325 . S
C768 C176 1.194 . S
C749 C120 1.293 . S
C804 C222 1.526 . S
C785 C87 1.650 . S
C840 C218 1.468 . S
C821 C2 1.569 . S
C876 C171 1.536 . S
C857 C21 1.570 . S
C893 C40 1.546 . S
C912 C193 1.462 . S
C929 C59 1.583 . S
C948 C214 1.563 . S
C984 C155 1.412 . S
C965 C78 1.649 . S
C1001 C97 1.538 . S
C1020 C189 1.507 . S
C1056 C210 1.371 . S
C1037 C116 1.666 . S
C1092 C234 1.476 . S
C1073 C135 1.517 . S
