# Generated by pormake.
# Topology anh, (6,3)-cn, num edge types: 1
# Building blocks:
#     Node 0, Type 0, BuildingBlock: CUWYAW_clean_sbu_0, # of connection points: 6
#     Node 1, Type 0, BuildingBlock: CUWYAW_clean_sbu_0, # of connection points: 6
#     Node 2, Type 0, BuildingBlock: CUWYAW_clean_sbu_0, # of connection points: 6
#     Node 3, Type 1, BuildingBlock: BETDIP_clean_linker_0, # of connection points: 3
#     Node 4, Type 1, BuildingBlock: BETDIP_clean_linker_0, # of connection points: 3
#     Node 5, Type 1, BuildingBlock: BETDIP_clean_linker_0, # of connection points: 3
#     Node 6, Type 1, BuildingBlock: BETDIP_clean_linker_0, # of connection points: 3
#     Node 7, Type 1, BuildingBlock: BETDIP_clean_linker_0, # of connection points: 3
#     Node 8, Type 1, BuildingBlock: BETDIP_clean_linker_0, # of connection points: 3
#     Edge 9, Type (0, 1), BuildingBlock: EZIPEK_clean_linker_0, # of connection points: 2
#     Edge 10, Type (0, 1), BuildingBlock: EZIPEK_clean_linker_0, # of connection points: 2
#     Edge 11, Type (0, 1), BuildingBlock: EZIPEK_clean_linker_0, # of connection points: 2
#     Edge 12, Type (0, 1), BuildingBlock: EZIPEK_clean_linker_0, # of connection points: 2
#     Edge 13, Type (0, 1), BuildingBlock: EZIPEK_clean_linker_0, # of connection points: 2
#     Edge 14, Type (0, 1), BuildingBlock: EZIPEK_clean_linker_0, # of connection points: 2
#     Edge 15, Type (0, 1), BuildingBlock: EZIPEK_clean_linker_0, # of connection points: 2
#     Edge 16, Type (0, 1), BuildingBlock: EZIPEK_clean_linker_0, # of connection points: 2
#     Edge 17, Type (0, 1), BuildingBlock: EZIPEK_clean_linker_0, # of connection points: 2
#     Edge 18, Type (0, 1), BuildingBlock: EZIPEK_clean_linker_0, # of connection points: 2
#     Edge 19, Type (0, 1), BuildingBlock: EZIPEK_clean_linker_0, # of connection points: 2
#     Edge 20, Type (0, 1), BuildingBlock: EZIPEK_clean_linker_0, # of connection points: 2
#     Edge 21, Type (0, 1), BuildingBlock: EZIPEK_clean_linker_0, # of connection points: 2
#     Edge 22, Type (0, 1), BuildingBlock: EZIPEK_clean_linker_0, # of connection points: 2
#     Edge 23, Type (0, 1), BuildingBlock: EZIPEK_clean_linker_0, # of connection points: 2
#     Edge 24, Type (0, 1), BuildingBlock: EZIPEK_clean_linker_0, # of connection points: 2
#     Edge 25, Type (0, 1), BuildingBlock: EZIPEK_clean_linker_0, # of connection points: 2
#     Edge 26, Type (0, 1), BuildingBlock: EZIPEK_clean_linker_0, # of connection points: 2
# Relax obj value: 0.394
# Max RMSD: 0.197
# Mean RMSD: 0.140
data_MOF--net-anh--node1-CUWYAW_clean_sbu_0--node2-BETDIP_clean_linker_0--edge1-EZIPEK_clean_linker_0
_symmetry_space_group_name_H-M    P1
_symmetry_Int_Tables_number       1
_symmetry_cell_setting            triclinic
loop_
_symmetry_equiv_pos_as_xyz
'x, y, z'
_cell_length_a     23.708716
_cell_length_b     23.624497
_cell_length_c     36.597038
_cell_angle_alpha  93.21174
_cell_angle_beta   89.46073
_cell_angle_gamma 120.12009
loop_
_atom_site_label
_atom_site_type_symbol
_atom_site_fract_x
_atom_site_fract_y
_atom_site_fract_z
_atom_type_partial_charge
C0 C 1.06414 0.41847 0.13167 0.0
Eu1 Eu 0.14472 0.54282 0.14479 0.0
C2 C 0.99256 0.38419 0.13578 0.0
C3 C 0.96574 0.36419 0.17035 0.0
C4 C 0.90555 0.35825 0.17881 0.0
C5 C 0.87195 0.37259 0.15286 0.0
C6 C 0.89325 0.38112 0.11671 0.0
C7 C 0.95309 0.38649 0.10809 0.0
C8 C 0.16951 0.59699 0.21558 0.0
C9 C 1.04596 0.61055 0.14015 0.0
C10 C 0.28136 0.80128 0.168 0.0
Eu11 Eu 0.20688 0.67934 0.14674 0.0
C12 C 0.34468 0.85721 0.16012 0.0
C13 C 0.36438 0.87411 0.12404 0.0
C14 C 0.41924 0.93462 0.11776 0.0
C15 C 0.45411 0.97791 0.14756 0.0
C16 C 0.43772 0.95803 0.1834 0.0
C17 C 0.38317 0.89807 0.18964 0.0
C18 C 0.17838 0.62859 0.07751 0.0
C19 C 0.30526 0.61134 0.13558 0.0
O20 O 1.08672 0.46036 0.10601 0.0
O21 O 1.09894 0.44251 0.16199 0.0
O22 O 0.18515 0.55456 0.20256 0.0
O23 O 0.14573 0.61248 0.18963 0.0
O24 O 1.052 0.55675 0.13716 0.0
O25 O 1.10168 0.66697 0.14707 0.0
O26 O 0.28182 0.75347 0.18411 0.0
O27 O 0.23581 0.78131 0.14266 0.0
O28 O 0.18161 0.68332 0.08813 0.0
O29 O 0.1997 0.60903 0.10236 0.0
O30 O 0.30078 0.66569 0.14221 0.0
O31 O 0.24838 0.55476 0.13351 0.0
H32 H 0.99416 0.36027 0.19204 0.0
H33 H 0.88888 0.34982 0.20671 0.0
H34 H 0.86648 0.38938 0.09593 0.0
H35 H 0.97139 0.39973 0.0808 0.0
H36 H 0.33551 0.84239 0.10088 0.0
H37 H 0.43169 0.94944 0.08999 0.0
H38 H 0.46445 0.9911 0.20666 0.0
H39 H 0.36884 0.88538 0.21756 0.0
C40 C 0.52232 0.2162 0.45201 0.0
Eu41 Eu 0.57029 0.14546 0.47324 0.0
C42 C 0.54626 0.28664 0.45685 0.0
C43 C 0.5676 0.31887 0.49159 0.0
C44 C 0.60324 0.38678 0.49511 0.0
C45 C 0.6185 0.42344 0.46405 0.0
C46 C 0.59397 0.39194 0.42953 0.0
C47 C 0.55777 0.32349 0.42596 0.0
C48 C 0.59056 0.13488 0.54607 0.0
C49 C 0.73573 0.24312 0.47192 0.0
C50 C 0.69583 1.01986 0.50472 0.0
Eu51 Eu 0.64209 1.0831 0.48034 0.0
C52 C 0.70941 0.96573 0.49993 0.0
C53 C 0.75287 0.96784 0.47287 0.0
C54 C 0.78695 0.93476 0.47693 0.0
C55 C 0.77682 0.89807 0.50755 0.0
C56 C 0.72636 0.88781 0.53151 0.0
C57 C 0.6933 0.92231 0.52797 0.0
C58 C 0.6266 0.09795 0.40879 0.0
C59 C 0.47713 0.9824 0.46756 0.0
O60 O 0.55859 0.20095 0.43145 0.0
O61 O 0.50377 0.18312 0.48149 0.0
O62 O 0.53617 0.12462 0.53188 0.0
O63 O 0.63259 0.15106 0.52118 0.0
O64 O 0.67729 0.23798 0.46661 0.0
O65 O 0.73454 0.18859 0.48086 0.0
O66 O 0.6388 1.00918 0.51577 0.0
O67 O 0.72262 1.06593 0.48168 0.0
O68 O 0.67897 0.10339 0.42289 0.0
O69 O 0.58359 1.08082 0.43297 0.0
O70 O 0.53534 0.98713 0.47395 0.0
O71 O 0.47895 1.03954 0.46551 0.0
H72 H 0.56027 0.29182 0.51582 0.0
H73 H 0.6224 0.41076 0.52189 0.0
H74 H 0.60604 0.41995 0.40536 0.0
H75 H 0.54228 0.29928 0.39891 0.0
H76 H 0.7658 1.00031 0.45064 0.0
H77 H 0.82527 0.94258 0.45799 0.0
H78 H 0.7177 0.85902 0.55512 0.0
H79 H 0.66003 0.91996 0.54913 0.0
C80 C 0.83489 0.73228 0.80817 0.0
Eu81 Eu 0.7092 0.66182 0.8147 0.0
C82 C 0.88936 0.72126 0.81552 0.0
C83 C 0.90109 0.70898 0.85092 0.0
C84 C 0.93877 0.67992 0.85586 0.0
C85 C 0.96463 0.66242 0.82554 0.0
C86 C 0.95931 0.68139 0.79078 0.0
C87 C 0.92214 0.71125 0.78584 0.0
C88 C 0.65193 0.61801 0.88074 0.0
C89 C 0.6368 0.49616 0.80297 0.0
C90 C 0.44958 0.54243 0.81512 0.0
Eu91 Eu 0.57282 0.59412 0.80671 0.0
C92 C 0.3799 0.51329 0.81996 0.0
C93 C 0.3565 0.53048 0.85143 0.0
C94 C 0.29036 0.4951 0.85908 0.0
C95 C 0.24793 0.44134 0.83573 0.0
C96 C 0.27103 0.4263 0.80336 0.0
C97 C 0.33687 0.46265 0.79532 0.0
C98 C 0.63446 0.60621 0.74244 0.0
C99 C 0.64026 0.75668 0.80504 0.0
O100 O 0.79518 0.69377 0.78168 0.0
O101 O 0.80387 0.73897 0.83641 0.0
O102 O 0.70113 0.61402 0.86818 0.0
O103 O 0.63432 0.64439 0.85744 0.0
O104 O 0.6923 0.55394 0.8 0.0
O105 O 0.58345 0.50019 0.81026 0.0
O106 O 0.48843 0.54545 0.84129 0.0
O107 O 0.47718 0.56731 0.78444 0.0
O108 O 0.5827 0.5526 0.75072 0.0
O109 O 0.649 0.64993 0.76748 0.0
O110 O 0.58475 0.69892 0.80224 0.0
O111 O 0.69489 0.7544 0.81128 0.0
H112 H 0.87686 0.7165 0.87436 0.0
H113 H 0.94225 0.66507 0.88285 0.0
H114 H 0.97847 0.66751 0.76712 0.0
H115 H 0.914 0.7208 0.75833 0.0
H116 H 0.38965 0.56963 0.87062 0.0
H117 H 0.27285 0.50722 0.88408 0.0
H118 H 0.23856 0.3849 0.78516 0.0
H119 H 0.35474 0.44883 0.77104 0.0
H120 H 0.60273 0.29385 0.19059 0.0
H121 H 0.6582 0.32935 0.30479 0.0
H122 H 0.59019 0.13868 0.25101 0.0
H123 H 0.67283 0.46735 0.21147 0.0
C124 C 0.67642 0.42363 0.21353 0.0
C125 C 0.61271 0.27805 0.21552 0.0
C126 C 0.5965 0.21279 0.21686 0.0
C127 C 0.63637 0.32101 0.24681 0.0
C128 C 0.64171 0.2971 0.28021 0.0
C129 C 0.6254 0.23115 0.28163 0.0
C130 C 0.6036 0.18973 0.24983 0.0
N131 N 0.65094 0.38698 0.24521 0.0
H132 H 0.87641 0.70672 0.51901 0.0
H133 H 0.87672 0.75143 0.6346 0.0
H134 H 0.7039 0.59512 0.58034 0.0
H135 H 1.02307 0.86471 0.54427 0.0
C136 C 0.97115 0.83339 0.54806 0.0
C137 C 0.85091 0.69841 0.54455 0.0
C138 C 0.78649 0.64712 0.54588 0.0
C139 C 0.88392 0.73568 0.5765 0.0
C140 C 0.85149 0.7225 0.60988 0.0
C141 C 0.78596 0.67259 0.61103 0.0
C142 C 0.75399 0.63482 0.57913 0.0
N143 N 0.94995 0.78622 0.575 0.0
H144 H 0.96014 0.3849 0.85408 0.0
H145 H 1.02695 0.37502 0.96114 0.0
H146 H 1.07532 0.56145 0.92137 0.0
H147 H 0.95837 0.21845 0.87538 0.0
C148 C 0.98394 0.27157 0.87824 0.0
C149 C 0.98866 0.40945 0.87883 0.0
C150 C 1.01791 0.47776 0.88433 0.0
C151 C 0.99131 0.37235 0.90669 0.0
C152 C 1.02575 0.40374 0.9394 0.0
C153 C 1.05767 0.47223 0.94413 0.0
C154 C 1.05383 0.50881 0.91657 0.0
N155 N 0.95907 0.30314 0.90185 0.0
H156 H 0.16547 0.67159 0.48253 0.0
H157 H 1.07598 0.55683 0.38107 0.0
H158 H 0.2584 0.73629 0.37845 0.0
H159 H 0.98429 0.49986 0.40835 0.0
C160 C 0.99148 0.49734 0.43725 0.0
C161 C 0.16589 0.66431 0.4531 0.0
C162 C 0.22146 0.71456 0.43303 0.0
C163 C 1.11032 0.6051 0.43483 0.0
C164 C 1.1139 0.59919 0.39631 0.0
C165 C 0.16663 0.64573 0.3762 0.0
C166 C 0.21884 0.7016 0.39465 0.0
N167 N 1.05366 0.5521 0.45418 0.0
H168 H 0.63268 0.1823 0.81443 0.0
H169 H 0.62551 1.07571 0.71219 0.0
H170 H 0.62662 0.25703 0.70972 0.0
H171 H 0.65295 1.01459 0.7404 0.0
C172 C 0.64053 1.01129 0.76904 0.0
C173 C 0.63183 0.17838 0.78482 0.0
C174 C 0.63 0.23053 0.76485 0.0
C175 C 0.63176 0.12063 0.76638 0.0
C176 C 0.62815 0.11727 0.72765 0.0
C177 C 0.62572 0.16551 0.70755 0.0
C178 C 0.628 0.22094 0.72614 0.0
N179 N 0.63313 1.06661 0.78574 0.0
H180 H 0.61784 0.6143 0.14832 0.0
H181 H 0.71466 0.61531 0.04658 0.0
H182 H 0.53235 0.61157 0.04345 0.0
H183 H 0.78283 0.5959 0.07481 0.0
C184 C 0.78688 0.60759 0.10403 0.0
C185 C 0.61923 0.61345 0.11875 0.0
C186 C 0.56512 0.61341 0.09854 0.0
C187 C 0.67555 0.61313 0.10061 0.0
C188 C 0.67481 0.61372 0.06188 0.0
C189 C 0.62374 0.61297 0.04158 0.0
C190 C 0.5704 0.61212 0.05992 0.0
N191 N 0.73155 0.61358 0.12033 0.0
C192 C 0.38931 0.56626 0.14228 0.0
C193 C 0.37434 0.61391 0.12885 0.0
C194 C 0.49059 0.66834 0.10482 0.0
C195 C 0.50248 0.61662 0.11414 0.0
N196 N 0.45331 0.51027 0.13842 0.0
N197 N 0.41376 0.70458 0.08981 0.0
C198 C 0.44887 0.56423 0.13206 0.0
C199 C 0.42635 0.66347 0.10838 0.0
N200 N 0.34782 0.52375 0.1666 0.0
N201 N 0.54214 0.72444 0.0931 0.0
H202 H 0.36856 0.70186 0.08982 0.0
H203 H 0.44563 0.73638 0.07105 0.0
H204 H 0.58884 0.73074 0.0909 0.0
H205 H 0.54034 0.76696 0.08958 0.0
H206 H 0.35791 0.49251 0.18055 0.0
H207 H 0.30661 0.52471 0.17589 0.0
H208 H 0.41423 0.46681 0.14691 0.0
H209 H 0.49503 0.50755 0.13248 0.0
C210 C 0.84664 0.31135 0.43651 0.0
C211 C 0.80403 0.309 0.46543 0.0
C212 C 0.89239 0.42786 0.48228 0.0
C213 C 0.93285 0.43088 0.45219 0.0
N214 N 0.95229 0.36656 0.40628 0.0
N215 N 0.78668 0.37304 0.51276 0.0
C216 C 0.91028 0.36987 0.43098 0.0
C217 C 0.82766 0.36963 0.48749 0.0
N218 N 0.82432 0.25821 0.41223 0.0
N219 N 0.91705 0.48013 0.50715 0.0
H220 H 0.74036 0.33346 0.51683 0.0
H221 H 0.79604 0.41607 0.52733 0.0
H222 H 0.96205 0.52219 0.50376 0.0
H223 H 0.89613 0.47955 0.53237 0.0
H224 H 0.8466 0.25783 0.38767 0.0
H225 H 0.77981 0.21562 0.41507 0.0
H226 H 0.94474 0.32337 0.39269 0.0
H227 H 0.99865 0.40627 0.40214 0.0
C228 C 0.6906 0.87483 0.7777 0.0
C229 C 0.64178 0.82474 0.79921 0.0
C230 C 0.59231 0.89973 0.80501 0.0
C231 C 0.64413 0.95157 0.7859 0.0
N232 N 0.75096 0.98938 0.76173 0.0
N233 N 0.55142 0.79986 0.8388 0.0
C234 C 0.69536 0.93881 0.77476 0.0
C235 C 0.59419 0.84047 0.81423 0.0
N236 N 0.73082 0.86029 0.75742 0.0
N237 N 0.5392 0.90551 0.81333 0.0
H238 H 0.55194 0.75856 0.84697 0.0
H239 H 0.51992 0.81047 0.85372 0.0
H240 H 0.53724 0.94749 0.80818 0.0
H241 H 0.49601 0.86748 0.82292 0.0
H242 H 0.76197 0.89056 0.7379 0.0
H243 H 0.72782 0.81473 0.75681 0.0
H244 H 0.79316 0.9871 0.75688 0.0
H245 H 0.75737 1.03616 0.7598 0.0
C246 C 0.92476 0.55909 0.11047 0.0
C247 C 0.97628 0.6076 0.13462 0.0
C248 C 0.90018 0.65569 0.14323 0.0
C249 C 0.84758 0.60414 0.12128 0.0
N250 N 0.80898 0.49685 0.09271 0.0
N251 N 0.99957 0.69425 0.18073 0.0
C252 C 0.86021 0.55327 0.10785 0.0
C253 C 0.95981 0.65361 0.15274 0.0
N254 N 0.93779 0.52012 0.0873 0.0
N255 N 0.89462 0.70865 0.15437 0.0
H256 H 1.03988 0.69232 0.19009 0.0
H257 H 0.98841 0.72437 0.19736 0.0
H258 H 0.85244 0.7106 0.14914 0.0
H259 H 0.93298 0.75174 0.16638 0.0
H260 H 0.90605 0.49041 0.06604 0.0
H261 H 0.98257 0.52223 0.0864 0.0
H262 H 0.81151 0.45477 0.08596 0.0
H263 H 0.76188 0.48968 0.09102 0.0
C264 C 0.39601 0.85332 0.47795 0.0
C265 C 0.4092 0.91298 0.46134 0.0
C266 C 0.2919 0.84398 0.43626 0.0
C267 C 0.28258 0.78315 0.44831 0.0
N268 N 0.33474 0.73284 0.47775 0.0
N269 N 0.36442 0.95434 0.41754 0.0
C270 C 0.3374 0.78914 0.46836 0.0
C271 C 0.35525 0.90499 0.43888 0.0
N272 N 0.4377 0.85766 0.50483 0.0
N273 N 0.2387 0.84429 0.42253 0.0
H274 H 0.40756 0.99862 0.41695 0.0
H275 H 0.33128 0.94867 0.39717 0.0
H276 H 0.1926 0.80231 0.42045 0.0
H277 H 0.23859 0.8871 0.4172 0.0
H278 H 0.42853 0.81866 0.52058 0.0
H279 H 0.47745 0.90199 0.51444 0.0
H280 H 0.37478 0.73153 0.48817 0.0
H281 H 0.29341 0.68685 0.47253 0.0
C282 C 0.58511 0.3739 0.77152 0.0
C283 C 0.63287 0.42568 0.79597 0.0
C284 C 0.67558 0.34636 0.80479 0.0
C285 C 0.62736 0.29481 0.78057 0.0
N286 N 0.52348 0.25756 0.75115 0.0
N287 N 0.71161 0.44794 0.84346 0.0
C288 C 0.57889 0.30869 0.76702 0.0
C289 C 0.67468 0.40775 0.81456 0.0
N290 N 0.54568 0.38689 0.75097 0.0
N291 N 0.72404 0.33774 0.81813 0.0
H292 H 0.71273 0.4917 0.85113 0.0
H293 H 0.73559 0.43478 0.86187 0.0
H294 H 0.7268 0.29571 0.81161 0.0
H295 H 0.76318 0.37311 0.83405 0.0
H296 H 0.51692 0.35614 0.72904 0.0
H297 H 0.54567 0.43089 0.75369 0.0
H298 H 0.48269 0.26073 0.74424 0.0
H299 H 0.51517 0.20973 0.74905 0.0
C300 C 0.83813 0.83835 0.49457 0.0
C301 C 0.82678 0.88147 0.51782 0.0
C302 C 0.91215 0.89506 0.56043 0.0
C303 C 0.92661 0.85587 0.53585 0.0
N304 N 0.9149 0.80368 0.47574 0.0
N305 N 0.86574 0.96539 0.56744 0.0
C306 C 0.89337 0.83196 0.50158 0.0
C307 C 0.86727 0.91394 0.54932 0.0
N308 N 0.79497 0.8019 0.46668 0.0
N309 N 0.94091 0.914 0.59451 0.0
H310 H 0.83615 0.98356 0.55928 0.0
H311 H 0.89894 0.9947 0.58828 0.0
H312 H 0.97742 0.90497 0.60296 0.0
H313 H 0.92553 0.9351 0.61514 0.0
H314 H 0.79735 0.76482 0.45119 0.0
H315 H 0.7532 0.8045 0.46132 0.0
H316 H 0.89592 0.79043 0.44907 0.0
H317 H 0.95551 0.79861 0.48026 0.0
C318 C 1.04563 0.62457 0.83414 0.0
C319 C 0.98065 0.61029 0.82947 0.0
C320 C 0.93929 0.50444 0.85517 0.0
C321 C 1.00412 0.51717 0.8596 0.0
N322 N 1.11734 0.58086 0.84379 0.0
N323 N 0.86747 0.52792 0.82137 0.0
C324 C 1.05689 0.57446 0.84563 0.0
C325 C 0.92826 0.54688 0.83478 0.0
N326 N 1.09599 0.68626 0.82914 0.0
N327 N 0.88892 0.45694 0.87365 0.0
H328 H 0.85712 0.55846 0.80678 0.0
H329 H 0.83 0.4794 0.82099 0.0
H330 H 0.89399 0.4269 0.89147 0.0
H331 H 0.84321 0.45309 0.87467 0.0
H332 H 0.14428 0.7016 0.83604 0.0
H333 H 1.0886 0.72304 0.8198 0.0
H334 H 0.15663 0.61939 0.83151 0.0
H335 H 1.12618 0.54407 0.8515 0.0
C336 C 0.5665 1.07206 0.15216 0.0
C337 C 0.50025 1.04789 0.14331 0.0
C338 C 0.50444 0.14533 0.17164 0.0
C339 C 0.56878 0.1664 0.18445 0.0
N340 N 0.66851 0.16404 0.17618 0.0
N341 N 0.4162 1.07212 0.12945 0.0
C342 C 0.60268 0.13481 0.17056 0.0
C343 C 0.47354 0.08939 0.14708 0.0
N344 N 0.59242 1.03242 0.14567 0.0
N345 N 0.47046 0.174 0.18555 0.0
H346 H 0.39262 1.03017 0.11188 0.0
H347 H 0.39621 0.10258 0.12923 0.0
H348 H 0.48987 0.21368 0.20472 0.0
H349 H 0.42097 0.15522 0.18013 0.0
H350 H 0.63823 1.04356 0.15536 0.0
H351 H 0.56609 0.9869 0.1313 0.0
H352 H 0.69663 0.14529 0.16481 0.0
H353 H 0.69552 0.21037 0.18958 0.0
C354 C 0.64776 0.53851 0.48095 0.0
C355 C 0.66753 0.4936 0.46857 0.0
C356 C 0.77418 0.5607 0.49802 0.0
C357 C 0.7528 0.60326 0.51317 0.0
N358 N 0.68032 0.64644 0.5089 0.0
N359 N 0.75447 0.47314 0.45281 0.0
C360 C 0.69327 0.59701 0.50086 0.0
C361 C 0.73317 0.50965 0.47224 0.0
N362 N 0.58453 0.52291 0.4757 0.0
N363 N 0.83006 0.56454 0.5107 0.0
H364 H 0.72397 0.43427 0.43449 0.0
H365 H 0.8032 0.48533 0.45196 0.0
H366 H 0.86014 0.59797 0.53135 0.0
H367 H 0.84415 0.53077 0.50263 0.0
H368 H 0.56475 0.54975 0.4879 0.0
H369 H 0.55132 0.48115 0.45996 0.0
H370 H 0.63969 0.64674 0.49857 0.0
H371 H 0.71378 0.69006 0.52316 0.0
C372 C 0.16857 0.35827 0.87696 0.0
C373 C 0.18034 0.39717 0.84652 0.0
C374 C 1.06356 0.34239 0.83272 0.0
C375 C 1.0516 0.30915 0.86541 0.0
N376 N 1.09146 0.29316 0.9221 0.0
N377 N 0.13958 0.43585 0.79955 0.0
C378 C 1.10375 0.31923 0.88857 0.0
C379 C 1.12797 0.39188 0.82543 0.0
N380 N 0.21886 0.35655 0.89388 0.0
N381 N 1.01334 0.32641 0.80868 0.0
H382 H 0.18628 0.47372 0.79404 0.0
H383 H 1.10264 0.43864 0.78607 0.0
H384 H 0.9654 0.29039 0.81349 0.0
H385 H 1.02004 0.34488 0.78283 0.0
H386 H 0.21193 0.32406 0.91386 0.0
H387 H 0.26713 0.3831 0.88568 0.0
H388 H 1.12773 0.30616 0.942 0.0
H389 H 1.04441 0.26216 0.93106 0.0
C390 C 0.75938 0.35939 0.14944 0.0
C391 C 0.8232 0.39116 0.16513 0.0
C392 C 0.79331 0.45258 0.20944 0.0
C393 C 0.72989 0.42099 0.19354 0.0
N394 N 0.66235 0.36665 0.1398 0.0
N395 N 0.9066 0.4868 0.19979 0.0
C396 C 0.7162 0.38191 0.16052 0.0
C397 C 0.8421 0.44366 0.19206 0.0
N398 N 0.73872 0.30588 0.12556 0.0
N399 N 0.80689 0.49044 0.24132 0.0
H400 H 0.94411 0.48448 0.18597 0.0
H401 H 0.9227 0.52929 0.21669 0.0
H402 H 0.77327 0.50101 0.25386 0.0
H403 H 0.85033 0.50816 0.25624 0.0
H404 H 0.69047 0.27758 0.11622 0.0
H405 H 0.7681 0.28615 0.11796 0.0
H406 H 0.65301 0.34253 0.11393 0.0
H407 H 0.63044 0.38338 0.14745 0.0
C408 C 0.18143 0.56189 0.0221 0.0
C409 C 0.14982 0.59142 0.042 0.0
C410 C 1.05433 0.53253 0.00079 0.0
C411 C 1.08737 0.50671 0.97974 0.0
N412 N 0.18459 0.5021 0.96651 0.0
N413 N 1.06184 0.61655 0.04398 0.0
C414 C 0.15144 0.52239 -0.01055 0.0
C415 C 1.08822 0.58063 0.02943 0.0
N416 N 0.2409 0.57297 0.03383 0.0
N417 N 0.98956 0.5097 -0.00621 0.0
H418 H 1.08036 0.64934 0.06662 0.0
H419 H 1.02258 0.61706 0.0318 0.0
H420 H 0.96248 0.47307 0.97356 0.0
H421 H 0.96096 0.5225 0.01001 0.0
H422 H 0.26199 0.54587 0.02391 0.0
H423 H 0.26912 0.60876 0.05412 0.0
H424 H 0.23404 0.51806 0.96952 0.0
H425 H 0.1634 0.47189 0.94287 0.0
C426 C 0.56587 0.1222 0.36139 0.0
C427 C 0.62328 0.12277 0.37241 0.0
C428 C 0.68365 0.19735 0.32417 0.0
C429 C 0.62794 0.20215 0.31608 0.0
N430 N 0.518 0.17559 0.32947 0.0
N431 N 0.72526 0.13442 0.35164 0.0
C432 C 0.56963 0.16652 0.33552 0.0
C433 C 0.67946 0.15323 0.35042 0.0
N434 N 0.50681 1.07421 0.37248 0.0
N435 N 0.74081 0.23563 0.30697 0.0
H436 H 0.71849 0.09465 0.36595 0.0
H437 H 0.76496 0.15119 0.3344 0.0
H438 H 0.74511 0.2678 0.28729 0.0
H439 H 0.78512 0.23996 0.31452 0.0
H440 H 0.46242 1.06778 0.3633 0.0
H441 H 0.50233 1.03462 0.3861 0.0
H442 H 0.47677 0.15646 0.34562 0.0
H443 H 0.519 0.20734 0.31043 0.0
C444 C 0.69781 0.58268 0.69435 0.0
C445 C 0.6676 0.61902 0.70665 0.0
C446 C 0.71456 0.69063 0.65534 0.0
C447 C 0.74948 0.65806 0.64552 0.0
N448 N 0.78233 0.57965 0.6579 0.0
N449 N 0.64665 0.70788 0.69926 0.0
C450 C 0.74335 0.60593 0.66569 0.0
C451 C 0.67605 0.67329 0.68728 0.0
N452 N 0.68214 0.5252 0.70947 0.0
N453 N 0.71649 0.7365 0.63331 0.0
H454 H 0.6115 0.69207 0.71945 0.0
H455 H 0.65813 0.75318 0.68993 0.0
H456 H 0.74593 0.75202 0.61043 0.0
H457 H 0.68643 0.75672 0.63626 0.0
H458 H 0.69718 0.49303 0.69921 0.0
H459 H 0.64867 0.50617 0.73014 0.0
H460 H 0.78585 0.5468 0.67422 0.0
H461 H 0.81573 0.59499 0.63676 0.0
C462 C 0.55706 0.09282 0.60975 0.0
C463 C 0.60347 0.14151 0.58724 0.0
C464 C 0.66927 0.20071 0.64343 0.0
C465 C 0.61863 0.15672 0.66595 0.0
N466 N 0.50846 1.06666 0.66959 0.0
N467 N 0.69895 0.24917 0.58463 0.0
C468 C 0.56097 0.10428 0.64878 0.0
C469 C 0.65858 0.19728 0.60461 0.0
N470 N 0.51023 1.03407 0.59397 0.0
N471 N 0.72853 0.24507 0.65898 0.0
H472 H 0.69182 0.25038 0.55679 0.0
H473 H 0.73547 0.29377 0.59637 0.0
H474 H 0.7384 0.24879 0.68701 0.0
H475 H 0.76953 0.27363 0.64373 0.0
H476 H 0.47936 0.99421 0.60903 0.0
H477 H 0.50682 1.02267 0.56583 0.0
H478 H 0.46282 1.03244 0.6584 0.0
H479 H 0.50853 1.07402 0.69796 0.0
C480 C 0.6585 0.67547 0.94352 0.0
C481 C 0.63858 0.61649 0.92149 0.0
C482 C 0.6095 0.5552 0.97813 0.0
C483 C 0.6267 0.6137 -4e-05 0.0
N484 N 0.65843 0.72799 0.00272 0.0
N485 N 0.58608 0.49883 0.91756 0.0
C486 C 0.64805 0.6732 0.98232 0.0
C487 C 0.61161 0.55603 0.93885 0.0
N488 N 0.6912 0.73442 0.9278 0.0
N489 N 0.59201 0.49873 -0.00492 0.0
H490 H 0.58691 0.4976 0.88902 0.0
H491 H 0.55946 0.45251 0.92773 0.0
H492 H 0.5865 0.49529 0.02332 0.0
H493 H 0.58656 0.45625 0.9816 0.0
H494 H 0.71397 0.77943 0.94267 0.0
H495 H 0.70048 0.73874 0.89991 0.0
H496 H 0.66588 0.77059 -0.00863 0.0
H497 H 0.65507 0.72952 0.03114 0.0
C498 C 0.15367 0.56068 0.28118 0.0
C499 C 0.16321 0.6093 0.25651 0.0
C500 C 0.16487 0.67873 0.31067 0.0
C501 C 0.16709 0.63463 0.33485 0.0
N502 N 0.17731 0.53914 0.34134 0.0
N503 N 0.18148 0.7187 0.24967 0.0
C504 C 0.16576 0.57742 0.31951 0.0
C505 C 0.16964 0.66946 0.2718 0.0
N506 N 1.12789 0.49675 0.26868 0.0
N507 N 0.15515 0.72801 0.32458 0.0
H508 H 0.1807 0.71351 0.22131 0.0
H509 H 0.19577 0.76627 0.25965 0.0
H510 H 0.15004 0.73562 0.35246 0.0
H511 H 0.14581 0.75728 0.3083 0.0
H512 H 1.11539 0.45889 0.28606 0.0
H513 H 1.1095 0.48005 0.24208 0.0
H514 H 0.18292 0.50033 0.33086 0.0
H515 H 0.18822 0.55038 0.36927 0.0
loop_
_geom_bond_atom_site_label_1
_geom_bond_atom_site_label_2
_geom_bond_distance
_geom_bond_site_symmetry_2
_ccdc_geom_bond_type
C0 Eu1 2.835 . S
C0 C2 1.500 . S
C0 O20 1.257 . S
C0 O21 1.260 . S
Eu1 C0 2.835 . S
Eu1 O20 2.473 . S
Eu1 O21 2.480 . S
Eu1 O22 2.430 1_655 S
Eu1 O23 2.670 1_655 S
Eu1 O24 2.394 . S
Eu1 O29 2.355 1_655 S
Eu1 O31 2.374 1_655 S
C2 C0 1.500 . S
C2 C3 1.377 . S
C2 C7 1.377 . S
C3 C2 1.377 . S
C3 C4 1.395 . S
C3 H32 0.931 . S
C4 C3 1.395 . S
C4 C5 1.383 . S
C4 H33 0.931 . S
C5 C4 1.383 . S
C5 C6 1.394 . S
C6 C5 1.394 . S
C6 C7 1.378 . S
C6 H34 0.931 . S
C7 C2 1.377 . S
C7 C6 1.378 . S
C7 H35 0.931 . S
C8 O22 1.259 . S
C8 O23 1.270 . S
C9 O24 1.251 . S
C9 O25 1.251 . S
C10 Eu11 2.835 . S
C10 C12 1.500 . S
C10 O26 1.257 . S
C10 O27 1.260 . S
Eu11 C10 2.835 . S
Eu11 O23 2.355 . S
Eu11 O25 2.374 1_455 S
Eu11 O26 2.473 . S
Eu11 O27 2.480 . S
Eu11 O28 2.430 . S
Eu11 O29 2.670 . S
Eu11 O30 2.394 . S
C12 C10 1.500 . S
C12 C13 1.377 . S
C12 C17 1.377 . S
C13 C12 1.377 . S
C13 C14 1.395 . S
C13 H36 0.931 . S
C14 C13 1.395 . S
C14 C15 1.383 . S
C14 H37 0.931 . S
C15 C14 1.383 . S
C15 C16 1.394 . S
C16 C15 1.394 . S
C16 C17 1.378 . S
C16 H38 0.931 . S
C17 C12 1.377 . S
C17 C16 1.378 . S
C17 H39 0.931 . S
C18 O28 1.259 . S
C18 O29 1.270 . S
C19 O30 1.251 . S
C19 O31 1.251 . S
O20 C0 1.257 . S
O20 Eu1 2.473 . S
O21 C0 1.260 . S
O21 Eu1 2.480 . S
O22 Eu1 2.430 1_455 S
O22 C8 1.259 . S
O23 Eu1 2.670 1_455 S
O23 C8 1.270 . S
O23 Eu11 2.355 . S
O24 Eu1 2.394 . S
O24 C9 1.251 . S
O25 C9 1.251 . S
O25 Eu11 2.374 1_655 S
O26 C10 1.257 . S
O26 Eu11 2.473 . S
O27 C10 1.260 . S
O27 Eu11 2.480 . S
O28 Eu11 2.430 . S
O28 C18 1.259 . S
O29 Eu1 2.355 1_455 S
O29 Eu11 2.670 . S
O29 C18 1.270 . S
O30 Eu11 2.394 . S
O30 C19 1.251 . S
O31 Eu1 2.374 1_455 S
O31 C19 1.251 . S
H32 C3 0.931 . S
H33 C4 0.931 . S
H34 C6 0.931 . S
H35 C7 0.931 . S
H36 C13 0.931 . S
H37 C14 0.931 . S
H38 C16 0.931 . S
H39 C17 0.931 . S
C40 Eu41 2.835 . S
C40 C42 1.500 . S
C40 O60 1.257 . S
C40 O61 1.260 . S
Eu41 C40 2.835 . S
Eu41 O60 2.473 . S
Eu41 O61 2.480 . S
Eu41 O62 2.430 . S
Eu41 O63 2.670 . S
Eu41 O64 2.394 . S
Eu41 O69 2.355 . S
Eu41 O71 2.374 1_545 S
C42 C40 1.500 . S
C42 C43 1.377 . S
C42 C47 1.377 . S
C43 C42 1.377 . S
C43 C44 1.395 . S
C43 H72 0.931 . S
C44 C43 1.395 . S
C44 C45 1.383 . S
C44 H73 0.931 . S
C45 C44 1.383 . S
C45 C46 1.394 . S
C46 C45 1.394 . S
C46 C47 1.378 . S
C46 H74 0.931 . S
C47 C42 1.377 . S
C47 C46 1.378 . S
C47 H75 0.931 . S
C48 O62 1.259 . S
C48 O63 1.270 . S
C49 O64 1.251 . S
C49 O65 1.251 . S
C50 Eu51 2.835 1_565 S
C50 C52 1.500 . S
C50 O66 1.257 . S
C50 O67 1.260 . S
Eu51 C50 2.835 1_545 S
Eu51 O63 2.355 . S
Eu51 O65 2.374 . S
Eu51 O66 2.473 1_545 S
Eu51 O67 2.480 1_545 S
Eu51 O68 2.430 . S
Eu51 O69 2.670 . S
Eu51 O70 2.394 1_545 S
C52 C50 1.500 . S
C52 C53 1.377 . S
C52 C57 1.377 . S
C53 C52 1.377 . S
C53 C54 1.395 . S
C53 H76 0.931 . S
C54 C53 1.395 . S
C54 C55 1.383 . S
C54 H77 0.931 . S
C55 C54 1.383 . S
C55 C56 1.394 . S
C56 C55 1.394 . S
C56 C57 1.378 . S
C56 H78 0.931 . S
C57 C52 1.377 . S
C57 C56 1.378 . S
C57 H79 0.931 . S
C58 O68 1.259 . S
C58 O69 1.270 . S
C59 O70 1.251 . S
C59 O71 1.251 . S
O60 C40 1.257 . S
O60 Eu41 2.473 . S
O61 C40 1.260 . S
O61 Eu41 2.480 . S
O62 Eu41 2.430 . S
O62 C48 1.259 . S
O63 Eu41 2.670 . S
O63 C48 1.270 . S
O63 Eu51 2.355 . S
O64 Eu41 2.394 . S
O64 C49 1.251 . S
O65 C49 1.251 . S
O65 Eu51 2.374 . S
O66 C50 1.257 . S
O66 Eu51 2.473 1_565 S
O67 C50 1.260 . S
O67 Eu51 2.480 1_565 S
O68 Eu51 2.430 . S
O68 C58 1.259 . S
O69 Eu41 2.355 . S
O69 Eu51 2.670 . S
O69 C58 1.270 . S
O70 Eu51 2.394 1_565 S
O70 C59 1.251 . S
O71 Eu41 2.374 1_565 S
O71 C59 1.251 . S
H72 C43 0.931 . S
H73 C44 0.931 . S
H74 C46 0.931 . S
H75 C47 0.931 . S
H76 C53 0.931 . S
H77 C54 0.931 . S
H78 C56 0.931 . S
H79 C57 0.931 . S
C80 Eu81 2.835 . S
C80 C82 1.500 . S
C80 O100 1.257 . S
C80 O101 1.260 . S
Eu81 C80 2.835 . S
Eu81 O100 2.473 . S
Eu81 O101 2.480 . S
Eu81 O102 2.430 . S
Eu81 O103 2.670 . S
Eu81 O104 2.394 . S
Eu81 O109 2.355 . S
Eu81 O111 2.374 . S
C82 C80 1.500 . S
C82 C83 1.377 . S
C82 C87 1.377 . S
C83 C82 1.377 . S
C83 C84 1.395 . S
C83 H112 0.931 . S
C84 C83 1.395 . S
C84 C85 1.383 . S
C84 H113 0.931 . S
C85 C84 1.383 . S
C85 C86 1.394 . S
C86 C85 1.394 . S
C86 C87 1.378 . S
C86 H114 0.931 . S
C87 C82 1.377 . S
C87 C86 1.378 . S
C87 H115 0.931 . S
C88 O102 1.259 . S
C88 O103 1.270 . S
C89 O104 1.251 . S
C89 O105 1.251 . S
C90 Eu91 2.835 . S
C90 C92 1.500 . S
C90 O106 1.257 . S
C90 O107 1.260 . S
Eu91 C90 2.835 . S
Eu91 O103 2.355 . S
Eu91 O105 2.374 . S
Eu91 O106 2.473 . S
Eu91 O107 2.480 . S
Eu91 O108 2.430 . S
Eu91 O109 2.670 . S
Eu91 O110 2.394 . S
C92 C90 1.500 . S
C92 C93 1.377 . S
C92 C97 1.377 . S
C93 C92 1.377 . S
C93 C94 1.395 . S
C93 H116 0.931 . S
C94 C93 1.395 . S
C94 C95 1.383 . S
C94 H117 0.931 . S
C95 C94 1.383 . S
C95 C96 1.394 . S
C96 C95 1.394 . S
C96 C97 1.378 . S
C96 H118 0.931 . S
C97 C92 1.377 . S
C97 C96 1.378 . S
C97 H119 0.931 . S
C98 O108 1.259 . S
C98 O109 1.270 . S
C99 O110 1.251 . S
C99 O111 1.251 . S
O100 C80 1.257 . S
O100 Eu81 2.473 . S
O101 C80 1.260 . S
O101 Eu81 2.480 . S
O102 Eu81 2.430 . S
O102 C88 1.259 . S
O103 Eu81 2.670 . S
O103 C88 1.270 . S
O103 Eu91 2.355 . S
O104 Eu81 2.394 . S
O104 C89 1.251 . S
O105 C89 1.251 . S
O105 Eu91 2.374 . S
O106 C90 1.257 . S
O106 Eu91 2.473 . S
O107 C90 1.260 . S
O107 Eu91 2.480 . S
O108 Eu91 2.430 . S
O108 C98 1.259 . S
O109 Eu81 2.355 . S
O109 Eu91 2.670 . S
O109 C98 1.270 . S
O110 Eu91 2.394 . S
O110 C99 1.251 . S
O111 Eu81 2.374 . S
O111 C99 1.251 . S
H112 C83 0.931 . S
H113 C84 0.931 . S
H114 C86 0.931 . S
H115 C87 0.931 . S
H116 C93 0.931 . S
H117 C94 0.931 . S
H118 C96 0.931 . S
H119 C97 0.931 . S
H120 C125 0.930 . S
H121 C128 0.930 . S
H122 C130 0.930 1_565 S
H123 C124 1.016 . S
C124 H123 1.016 . S
C124 N131 1.286 . S
C125 H120 0.930 . S
C125 C126 1.397 . S
C125 C127 1.361 . S
C126 C125 1.397 . S
C126 C130 1.390 . S
C127 C125 1.361 . S
C127 C128 1.393 . S
C127 N131 1.413 . S
C128 H121 0.930 . S
C128 C127 1.393 . S
C128 C129 1.399 . S
C129 C128 1.399 . S
C129 C130 1.381 . S
C130 H122 0.930 1_545 S
C130 C126 1.390 . S
C130 C129 1.381 . S
N131 C124 1.286 . S
N131 C127 1.413 . S
H132 C137 0.930 . S
H133 C140 0.930 . S
H134 C142 0.930 . S
H135 C136 1.016 . S
C136 H135 1.016 . S
C136 N143 1.286 . S
C137 H132 0.930 . S
C137 C138 1.397 . S
C137 C139 1.361 . S
C138 C137 1.397 . S
C138 C142 1.390 . S
C139 C137 1.361 . S
C139 C140 1.393 . S
C139 N143 1.413 . S
C140 H133 0.930 . S
C140 C139 1.393 . S
C140 C141 1.399 . S
C141 C140 1.399 . S
C141 C142 1.381 . S
C142 H134 0.930 . S
C142 C138 1.390 . S
C142 C141 1.381 . S
N143 C136 1.286 . S
N143 C139 1.413 . S
H144 C149 0.930 . S
H145 C152 0.930 . S
H146 C154 0.930 . S
H147 C148 1.016 . S
C148 H147 1.016 . S
C148 N155 1.286 . S
C149 H144 0.930 . S
C149 C150 1.397 . S
C149 C151 1.361 1_655 S
C150 C149 1.397 . S
C150 C154 1.390 . S
C151 C149 1.361 1_455 S
C151 C152 1.393 . S
C151 N155 1.413 . S
C152 H145 0.930 . S
C152 C151 1.393 . S
C152 C153 1.399 1_455 S
C153 C152 1.399 1_655 S
C153 C154 1.381 . S
C154 H146 0.930 . S
C154 C150 1.390 . S
C154 C153 1.381 . S
N155 C148 1.286 . S
N155 C151 1.413 . S
H156 C161 0.930 . S
H157 C164 0.930 1_655 S
H158 C166 0.930 . S
H159 C160 1.016 . S
C160 H159 1.016 . S
C160 N167 1.286 . S
C161 H156 0.930 . S
C161 C162 1.397 . S
C161 C163 1.361 . S
C162 C161 1.397 . S
C162 C166 1.390 . S
C163 C161 1.361 . S
C163 C164 1.393 . S
C163 N167 1.413 1_455 S
C164 H157 0.930 1_455 S
C164 C163 1.393 . S
C164 C165 1.399 . S
C165 C164 1.399 . S
C165 C166 1.381 . S
C166 H158 0.930 . S
C166 C162 1.390 . S
C166 C165 1.381 . S
N167 C160 1.286 . S
N167 C163 1.413 1_655 S
H168 C173 0.930 . S
H169 C176 0.930 . S
H170 C178 0.930 . S
H171 C172 1.016 . S
C172 H171 1.016 . S
C172 N179 1.286 . S
C173 H168 0.930 . S
C173 C174 1.397 . S
C173 C175 1.362 . S
C174 C173 1.397 . S
C174 C178 1.390 . S
C175 C173 1.362 . S
C175 C176 1.393 1_545 S
C175 N179 1.412 1_545 S
C176 H169 0.930 . S
C176 C175 1.393 1_565 S
C176 C177 1.399 1_565 S
C177 C176 1.399 1_545 S
C177 C178 1.381 . S
C178 H170 0.930 . S
C178 C174 1.390 . S
C178 C177 1.381 . S
N179 C172 1.286 . S
N179 C175 1.412 1_565 S
H180 C185 0.930 . S
H181 C188 0.930 . S
H182 C190 0.930 . S
H183 C184 1.016 . S
C184 H183 1.016 . S
C184 N191 1.286 . S
C185 H180 0.930 . S
C185 C186 1.397 . S
C185 C187 1.361 . S
C186 C185 1.397 . S
C186 C190 1.390 . S
C187 C185 1.361 . S
C187 C188 1.393 . S
C187 N191 1.413 . S
C188 H181 0.930 . S
C188 C187 1.393 . S
C188 C189 1.399 . S
C189 C188 1.399 . S
C189 C190 1.381 . S
C190 H182 0.930 . S
C190 C186 1.390 . S
C190 C189 1.381 . S
N191 C184 1.286 . S
N191 C187 1.413 . S
C192 C193 1.363 . S
C192 C198 1.379 . S
C192 N200 1.356 . S
C193 C192 1.363 . S
C193 C199 1.363 . S
C194 C195 1.363 . S
C194 C199 1.379 . S
C194 N201 1.356 . S
C195 C194 1.363 . S
C195 C198 1.363 . S
N196 C198 1.356 . S
N196 H208 0.984 . S
N196 H209 0.985 . S
N197 C199 1.356 . S
N197 H202 0.984 . S
N197 H203 0.985 . S
C198 C192 1.379 . S
C198 C195 1.363 . S
C198 N196 1.356 . S
C199 C193 1.363 . S
C199 C194 1.379 . S
C199 N197 1.356 . S
N200 C192 1.356 . S
N200 H206 0.984 . S
N200 H207 0.984 . S
N201 C194 1.356 . S
N201 H204 0.984 . S
N201 H205 0.985 . S
H202 N197 0.984 . S
H203 N197 0.985 . S
H204 N201 0.984 . S
H205 N201 0.985 . S
H206 N200 0.984 . S
H207 N200 0.984 . S
H208 N196 0.984 . S
H209 N196 0.985 . S
C210 C211 1.363 . S
C210 C216 1.379 . S
C210 N218 1.356 . S
C211 C210 1.363 . S
C211 C217 1.363 . S
C212 C213 1.363 . S
C212 C217 1.379 . S
C212 N219 1.356 . S
C213 C212 1.363 . S
C213 C216 1.363 . S
N214 C216 1.356 . S
N214 H226 0.984 . S
N214 H227 0.985 . S
N215 C217 1.356 . S
N215 H220 0.984 . S
N215 H221 0.985 . S
C216 C210 1.379 . S
C216 C213 1.363 . S
C216 N214 1.356 . S
C217 C211 1.363 . S
C217 C212 1.379 . S
C217 N215 1.356 . S
N218 C210 1.356 . S
N218 H224 0.984 . S
N218 H225 0.984 . S
N219 C212 1.356 . S
N219 H222 0.984 . S
N219 H223 0.985 . S
H220 N215 0.984 . S
H221 N215 0.985 . S
H222 N219 0.984 . S
H223 N219 0.985 . S
H224 N218 0.984 . S
H225 N218 0.984 . S
H226 N214 0.984 . S
H227 N214 0.985 . S
C228 C229 1.363 . S
C228 C234 1.379 . S
C228 N236 1.356 . S
C229 C228 1.363 . S
C229 C235 1.363 . S
C230 C231 1.363 . S
C230 C235 1.379 . S
C230 N237 1.356 . S
C231 C230 1.363 . S
C231 C234 1.363 . S
N232 C234 1.356 . S
N232 H244 0.984 . S
N232 H245 0.985 . S
N233 C235 1.356 . S
N233 H238 0.984 . S
N233 H239 0.985 . S
C234 C228 1.379 . S
C234 C231 1.363 . S
C234 N232 1.356 . S
C235 C229 1.363 . S
C235 C230 1.379 . S
C235 N233 1.356 . S
N236 C228 1.356 . S
N236 H242 0.984 . S
N236 H243 0.984 . S
N237 C230 1.356 . S
N237 H240 0.984 . S
N237 H241 0.985 . S
H238 N233 0.984 . S
H239 N233 0.985 . S
H240 N237 0.984 . S
H241 N237 0.985 . S
H242 N236 0.984 . S
H243 N236 0.984 . S
H244 N232 0.984 . S
H245 N232 0.985 . S
C246 C247 1.363 . S
C246 C252 1.379 . S
C246 N254 1.356 . S
C247 C246 1.363 . S
C247 C253 1.363 . S
C248 C249 1.363 . S
C248 C253 1.379 . S
C248 N255 1.356 . S
C249 C248 1.363 . S
C249 C252 1.363 . S
N250 C252 1.356 . S
N250 H262 0.984 . S
N250 H263 0.985 . S
N251 C253 1.356 . S
N251 H256 0.984 . S
N251 H257 0.985 . S
C252 C246 1.379 . S
C252 C249 1.363 . S
C252 N250 1.356 . S
C253 C247 1.363 . S
C253 C248 1.379 . S
C253 N251 1.356 . S
N254 C246 1.356 . S
N254 H260 0.984 . S
N254 H261 0.984 . S
N255 C248 1.356 . S
N255 H258 0.984 . S
N255 H259 0.985 . S
H256 N251 0.984 . S
H257 N251 0.985 . S
H258 N255 0.984 . S
H259 N255 0.985 . S
H260 N254 0.984 . S
H261 N254 0.984 . S
H262 N250 0.984 . S
H263 N250 0.985 . S
C264 C265 1.363 . S
C264 C270 1.379 . S
C264 N272 1.356 . S
C265 C264 1.363 . S
C265 C271 1.363 . S
C266 C267 1.363 . S
C266 C271 1.379 . S
C266 N273 1.356 . S
C267 C266 1.363 . S
C267 C270 1.363 . S
N268 C270 1.356 . S
N268 H280 0.984 . S
N268 H281 0.985 . S
N269 C271 1.356 . S
N269 H274 0.984 . S
N269 H275 0.985 . S
C270 C264 1.379 . S
C270 C267 1.363 . S
C270 N268 1.356 . S
C271 C265 1.363 . S
C271 C266 1.379 . S
C271 N269 1.356 . S
N272 C264 1.356 . S
N272 H278 0.984 . S
N272 H279 0.984 . S
N273 C266 1.356 . S
N273 H276 0.984 . S
N273 H277 0.985 . S
H274 N269 0.984 . S
H275 N269 0.985 . S
H276 N273 0.984 . S
H277 N273 0.985 . S
H278 N272 0.984 . S
H279 N272 0.984 . S
H280 N268 0.984 . S
H281 N268 0.985 . S
C282 C283 1.363 . S
C282 C288 1.379 . S
C282 N290 1.356 . S
C283 C282 1.363 . S
C283 C289 1.363 . S
C284 C285 1.363 . S
C284 C289 1.379 . S
C284 N291 1.356 . S
C285 C284 1.363 . S
C285 C288 1.363 . S
N286 C288 1.356 . S
N286 H298 0.984 . S
N286 H299 0.985 . S
N287 C289 1.356 . S
N287 H292 0.984 . S
N287 H293 0.985 . S
C288 C282 1.379 . S
C288 C285 1.363 . S
C288 N286 1.356 . S
C289 C283 1.363 . S
C289 C284 1.379 . S
C289 N287 1.356 . S
N290 C282 1.356 . S
N290 H296 0.984 . S
N290 H297 0.984 . S
N291 C284 1.356 . S
N291 H294 0.984 . S
N291 H295 0.985 . S
H292 N287 0.984 . S
H293 N287 0.985 . S
H294 N291 0.984 . S
H295 N291 0.985 . S
H296 N290 0.984 . S
H297 N290 0.984 . S
H298 N286 0.984 . S
H299 N286 0.985 . S
C300 C301 1.363 . S
C300 C306 1.379 . S
C300 N308 1.356 . S
C301 C300 1.363 . S
C301 C307 1.363 . S
C302 C303 1.363 . S
C302 C307 1.379 . S
C302 N309 1.356 . S
C303 C302 1.363 . S
C303 C306 1.363 . S
N304 C306 1.356 . S
N304 H316 0.984 . S
N304 H317 0.985 . S
N305 C307 1.356 . S
N305 H310 0.984 . S
N305 H311 0.985 . S
C306 C300 1.379 . S
C306 C303 1.363 . S
C306 N304 1.356 . S
C307 C301 1.363 . S
C307 C302 1.379 . S
C307 N305 1.356 . S
N308 C300 1.356 . S
N308 H314 0.984 . S
N308 H315 0.984 . S
N309 C302 1.356 . S
N309 H312 0.984 . S
N309 H313 0.985 . S
H310 N305 0.984 . S
H311 N305 0.985 . S
H312 N309 0.984 . S
H313 N309 0.985 . S
H314 N308 0.984 . S
H315 N308 0.984 . S
H316 N304 0.984 . S
H317 N304 0.985 . S
C318 C319 1.363 . S
C318 C324 1.379 . S
C318 N326 1.356 . S
C319 C318 1.363 . S
C319 C325 1.363 . S
C320 C321 1.363 . S
C320 C325 1.379 . S
C320 N327 1.356 . S
C321 C320 1.363 . S
C321 C324 1.363 . S
N322 C324 1.356 . S
N322 H334 0.984 1_655 S
N322 H335 0.985 . S
N323 C325 1.356 . S
N323 H328 0.984 . S
N323 H329 0.985 . S
C324 C318 1.379 . S
C324 C321 1.363 . S
C324 N322 1.356 . S
C325 C319 1.363 . S
C325 C320 1.379 . S
C325 N323 1.356 . S
N326 C318 1.356 . S
N326 H332 0.984 . S
N326 H333 0.984 . S
N327 C320 1.356 . S
N327 H330 0.984 . S
N327 H331 0.985 . S
H328 N323 0.984 . S
H329 N323 0.985 . S
H330 N327 0.984 . S
H331 N327 0.985 . S
H332 N326 0.984 . S
H333 N326 0.984 . S
H334 N322 0.984 1_455 S
H335 N322 0.985 . S
C336 C337 1.363 . S
C336 C342 1.379 . S
C336 N344 1.356 . S
C337 C336 1.363 . S
C337 C343 1.363 . S
C338 C339 1.363 . S
C338 C343 1.379 . S
C338 N345 1.356 1_565 S
C339 C338 1.363 . S
C339 C342 1.363 . S
N340 C342 1.356 . S
N340 H352 0.984 . S
N340 H353 0.985 . S
N341 C343 1.356 . S
N341 H346 0.984 . S
N341 H347 0.985 . S
C342 C336 1.379 . S
C342 C339 1.363 . S
C342 N340 1.356 . S
C343 C337 1.363 . S
C343 C338 1.379 . S
C343 N341 1.356 . S
N344 C336 1.356 . S
N344 H350 0.984 . S
N344 H351 0.984 . S
N345 C338 1.356 1_545 S
N345 H348 0.984 . S
N345 H349 0.985 . S
H346 N341 0.984 . S
H347 N341 0.985 . S
H348 N345 0.984 . S
H349 N345 0.985 . S
H350 N344 0.984 . S
H351 N344 0.984 . S
H352 N340 0.984 . S
H353 N340 0.985 . S
C354 C355 1.363 . S
C354 C360 1.379 . S
C354 N362 1.356 . S
C355 C354 1.363 . S
C355 C361 1.363 . S
C356 C357 1.363 . S
C356 C361 1.379 . S
C356 N363 1.356 . S
C357 C356 1.363 . S
C357 C360 1.363 . S
N358 C360 1.356 . S
N358 H370 0.984 . S
N358 H371 0.985 . S
N359 C361 1.356 . S
N359 H364 0.984 . S
N359 H365 0.985 . S
C360 C354 1.379 . S
C360 C357 1.363 . S
C360 N358 1.356 . S
C361 C355 1.363 . S
C361 C356 1.379 . S
C361 N359 1.356 . S
N362 C354 1.356 . S
N362 H368 0.984 . S
N362 H369 0.984 . S
N363 C356 1.356 . S
N363 H366 0.984 . S
N363 H367 0.985 . S
H364 N359 0.984 . S
H365 N359 0.985 . S
H366 N363 0.984 . S
H367 N363 0.985 . S
H368 N362 0.984 . S
H369 N362 0.984 . S
H370 N358 0.984 . S
H371 N358 0.985 . S
C372 C373 1.363 . S
C372 C378 1.379 . S
C372 N380 1.356 . S
C373 C372 1.363 . S
C373 C379 1.363 . S
C374 C375 1.363 . S
C374 C379 1.379 . S
C374 N381 1.356 . S
C375 C374 1.363 . S
C375 C378 1.363 . S
N376 C378 1.356 . S
N376 H388 0.984 . S
N376 H389 0.985 . S
N377 C379 1.356 . S
N377 H382 0.984 . S
N377 H383 0.985 . S
C378 C372 1.379 . S
C378 C375 1.363 . S
C378 N376 1.356 . S
C379 C373 1.363 . S
C379 C374 1.379 . S
C379 N377 1.356 . S
N380 C372 1.356 . S
N380 H386 0.984 . S
N380 H387 0.984 . S
N381 C374 1.356 . S
N381 H384 0.984 . S
N381 H385 0.985 . S
H382 N377 0.984 . S
H383 N377 0.985 . S
H384 N381 0.984 . S
H385 N381 0.985 . S
H386 N380 0.984 . S
H387 N380 0.984 . S
H388 N376 0.984 . S
H389 N376 0.985 . S
C390 C391 1.363 . S
C390 C396 1.379 . S
C390 N398 1.356 . S
C391 C390 1.363 . S
C391 C397 1.363 . S
C392 C393 1.363 . S
C392 C397 1.379 . S
C392 N399 1.356 . S
C393 C392 1.363 . S
C393 C396 1.363 . S
N394 C396 1.356 . S
N394 H406 0.984 . S
N394 H407 0.985 . S
N395 C397 1.356 . S
N395 H400 0.984 . S
N395 H401 0.985 . S
C396 C390 1.379 . S
C396 C393 1.363 . S
C396 N394 1.356 . S
C397 C391 1.363 . S
C397 C392 1.379 . S
C397 N395 1.356 . S
N398 C390 1.356 . S
N398 H404 0.984 . S
N398 H405 0.984 . S
N399 C392 1.356 . S
N399 H402 0.984 . S
N399 H403 0.985 . S
H400 N395 0.984 . S
H401 N395 0.985 . S
H402 N399 0.984 . S
H403 N399 0.985 . S
H404 N398 0.984 . S
H405 N398 0.984 . S
H406 N394 0.984 . S
H407 N394 0.985 . S
C408 C409 1.363 . S
C408 C414 1.379 1_554 S
C408 N416 1.356 . S
C409 C408 1.363 . S
C409 C415 1.363 1_455 S
C410 C411 1.363 1_554 S
C410 C415 1.379 . S
C410 N417 1.356 1_554 S
C411 C410 1.363 1_556 S
C411 C414 1.363 1_655 S
N412 C414 1.356 . S
N412 H424 0.984 . S
N412 H425 0.985 . S
N413 C415 1.356 . S
N413 H418 0.984 . S
N413 H419 0.985 . S
C414 C408 1.379 1_556 S
C414 C411 1.363 1_455 S
C414 N412 1.356 . S
C415 C409 1.363 1_655 S
C415 C410 1.379 . S
C415 N413 1.356 . S
N416 C408 1.356 . S
N416 H422 0.984 . S
N416 H423 0.984 . S
N417 C410 1.356 1_556 S
N417 H420 0.984 . S
N417 H421 0.985 . S
H418 N413 0.984 . S
H419 N413 0.985 . S
H420 N417 0.984 . S
H421 N417 0.985 . S
H422 N416 0.984 . S
H423 N416 0.984 . S
H424 N412 0.984 . S
H425 N412 0.985 . S
C426 C427 1.363 . S
C426 C432 1.379 . S
C426 N434 1.356 . S
C427 C426 1.363 . S
C427 C433 1.363 . S
C428 C429 1.363 . S
C428 C433 1.379 . S
C428 N435 1.356 1_545 S
C429 C428 1.363 . S
C429 C432 1.363 . S
N430 C432 1.356 . S
N430 H442 0.984 . S
N430 H443 0.985 . S
N431 C433 1.356 1_565 S
N431 H436 0.984 . S
N431 H437 0.985 . S
C432 C426 1.379 . S
C432 C429 1.363 . S
C432 N430 1.356 . S
C433 C427 1.363 . S
C433 C428 1.379 . S
C433 N431 1.356 1_545 S
N434 C426 1.356 . S
N434 H440 0.984 . S
N434 H441 0.984 . S
N435 C428 1.356 1_565 S
N435 H438 0.984 1_565 S
N435 H439 0.985 . S
H436 N431 0.984 . S
H437 N431 0.985 . S
H438 N435 0.984 1_545 S
H439 N435 0.985 . S
H440 N434 0.984 . S
H441 N434 0.984 . S
H442 N430 0.984 . S
H443 N430 0.985 . S
C444 C445 1.363 . S
C444 C450 1.379 . S
C444 N452 1.356 . S
C445 C444 1.363 . S
C445 C451 1.363 . S
C446 C447 1.363 . S
C446 C451 1.379 . S
C446 N453 1.356 . S
C447 C446 1.363 . S
C447 C450 1.363 . S
N448 C450 1.356 . S
N448 H460 0.984 . S
N448 H461 0.985 . S
N449 C451 1.356 . S
N449 H454 0.984 . S
N449 H455 0.985 . S
C450 C444 1.379 . S
C450 C447 1.363 . S
C450 N448 1.356 . S
C451 C445 1.363 . S
C451 C446 1.379 . S
C451 N449 1.356 . S
N452 C444 1.356 . S
N452 H458 0.984 . S
N452 H459 0.984 . S
N453 C446 1.356 . S
N453 H456 0.984 . S
N453 H457 0.985 . S
H454 N449 0.984 . S
H455 N449 0.985 . S
H456 N453 0.984 . S
H457 N453 0.985 . S
H458 N452 0.984 . S
H459 N452 0.984 . S
H460 N448 0.984 . S
H461 N448 0.985 . S
C462 C463 1.363 1_565 S
C462 C468 1.379 . S
C462 N470 1.356 . S
C463 C462 1.363 1_545 S
C463 C469 1.363 . S
C464 C465 1.363 . S
C464 C469 1.379 . S
C464 N471 1.356 . S
C465 C464 1.363 . S
C465 C468 1.363 1_545 S
N466 C468 1.356 . S
N466 H478 0.984 . S
N466 H479 0.985 . S
N467 C469 1.356 . S
N467 H472 0.984 . S
N467 H473 0.985 . S
C468 C462 1.379 . S
C468 C465 1.363 1_565 S
C468 N466 1.356 . S
C469 C463 1.363 . S
C469 C464 1.379 . S
C469 N467 1.356 . S
N470 C462 1.356 . S
N470 H476 0.984 . S
N470 H477 0.984 . S
N471 C464 1.356 . S
N471 H474 0.984 . S
N471 H475 0.985 . S
H472 N467 0.984 . S
H473 N467 0.985 . S
H474 N471 0.984 . S
H475 N471 0.985 . S
H476 N470 0.984 . S
H477 N470 0.984 . S
H478 N466 0.984 . S
H479 N466 0.985 . S
C480 C481 1.363 . S
C480 C486 1.379 . S
C480 N488 1.356 . S
C481 C480 1.363 . S
C481 C487 1.363 . S
C482 C483 1.363 1_556 S
C482 C487 1.379 . S
C482 N489 1.356 1_556 S
C483 C482 1.363 1_554 S
C483 C486 1.363 1_554 S
N484 C486 1.356 1_554 S
N484 H496 0.984 . S
N484 H497 0.985 . S
N485 C487 1.356 . S
N485 H490 0.984 . S
N485 H491 0.985 . S
C486 C480 1.379 . S
C486 C483 1.363 1_556 S
C486 N484 1.356 1_556 S
C487 C481 1.363 . S
C487 C482 1.379 . S
C487 N485 1.356 . S
N488 C480 1.356 . S
N488 H494 0.984 . S
N488 H495 0.984 . S
N489 C482 1.356 1_554 S
N489 H492 0.984 . S
N489 H493 0.985 . S
H490 N485 0.984 . S
H491 N485 0.985 . S
H492 N489 0.984 . S
H493 N489 0.985 . S
H494 N488 0.984 . S
H495 N488 0.984 . S
H496 N484 0.984 . S
H497 N484 0.985 . S
C498 C499 1.367 . S
C498 C504 1.380 1_455 S
C498 N506 1.352 1_455 S
C499 C498 1.367 . S
C499 C505 1.363 . S
C500 C501 1.363 . S
C500 C505 1.379 . S
C500 N507 1.356 . S
C501 C500 1.363 . S
C501 C504 1.359 1_455 S
N502 C504 1.359 . S
N502 H514 0.984 . S
N502 H515 0.985 . S
N503 C505 1.356 . S
N503 H508 0.984 . S
N503 H509 0.985 . S
C504 C498 1.380 1_655 S
C504 C501 1.359 1_655 S
C504 N502 1.359 . S
C505 C499 1.363 . S
C505 C500 1.379 . S
C505 N503 1.356 . S
N506 C498 1.352 1_655 S
N506 H512 0.984 . S
N506 H513 0.984 . S
N507 C500 1.356 . S
N507 H510 0.984 . S
N507 H511 0.985 . S
H508 N503 0.984 . S
H509 N503 0.985 . S
H510 N507 0.984 . S
H511 N507 0.985 . S
H512 N506 0.984 . S
H513 N506 0.984 . S
H514 N502 0.984 . S
H515 N502 0.985 . S
C193 C19 3.235 . S
C195 C186 3.248 . S
C211 C49 3.161 . S
C213 C160 3.069 . S
C229 C99 3.084 . S
C231 C172 3.007 . S
C247 C9 2.945 . S
C249 C184 2.820 . S
C267 C162 2.963 . S
C265 C59 2.996 . S
C285 C174 3.008 . S
C283 C89 3.048 . S
C301 C55 0.842 . S
C303 C136 0.860 . S
C319 C85 0.823 . S
C321 C150 0.872 . S
C337 C15 0.515 . S
C339 C126 0.446 1_565 S
C357 C138 0.711 . S
C355 C45 0.730 . S
C375 C148 0.437 . S
C373 C95 0.515 . S
C391 C5 0.742 . S
C393 C124 0.733 . S
C411 C153 1.136 . S
C409 C18 1.124 . S
C427 C58 1.061 . S
C429 C129 1.099 . S
C445 C98 1.177 . S
C447 C141 1.167 . S
C465 C177 1.772 . S
C463 C48 1.721 . S
C483 C189 1.871 . S
C481 C88 1.785 . S
C499 C8 1.710 . S
C501 C165 1.834 . S
