# Generated by pormake.
# Topology pto, (3,4)-cn, num edge types: 1
# Building blocks:
#     Node 0, Type 0, BuildingBlock: WUSLED_clean_sbu_0, # of connection points: 3
#     Node 1, Type 0, BuildingBlock: WUSLED_clean_sbu_0, # of connection points: 3
#     Node 2, Type 0, BuildingBlock: WUSLED_clean_sbu_0, # of connection points: 3
#     Node 3, Type 0, BuildingBlock: WUSLED_clean_sbu_0, # of connection points: 3
#     Node 4, Type 0, BuildingBlock: WUSLED_clean_sbu_0, # of connection points: 3
#     Node 5, Type 0, BuildingBlock: WUSLED_clean_sbu_0, # of connection points: 3
#     Node 6, Type 0, BuildingBlock: WUSLED_clean_sbu_0, # of connection points: 3
#     Node 7, Type 0, BuildingBlock: WUSLED_clean_sbu_0, # of connection points: 3
#     Node 8, Type 1, BuildingBlock: GIZVER_clean_linker_0, # of connection points: 4
#     Node 9, Type 1, BuildingBlock: GIZVER_clean_linker_0, # of connection points: 4
#     Node 10, Type 1, BuildingBlock: GIZVER_clean_linker_0, # of connection points: 4
#     Node 11, Type 1, BuildingBlock: GIZVER_clean_linker_0, # of connection points: 4
#     Node 12, Type 1, BuildingBlock: GIZVER_clean_linker_0, # of connection points: 4
#     Node 13, Type 1, BuildingBlock: GIZVER_clean_linker_0, # of connection points: 4
#     Edge 14, Type (0, 1), BuildingBlock: ZUJKAS_clean_linker_0, # of connection points: 2
#     Edge 15, Type (0, 1), BuildingBlock: ZUJKAS_clean_linker_0, # of connection points: 2
#     Edge 16, Type (0, 1), BuildingBlock: ZUJKAS_clean_linker_0, # of connection points: 2
#     Edge 17, Type (0, 1), BuildingBlock: ZUJKAS_clean_linker_0, # of connection points: 2
#     Edge 18, Type (0, 1), BuildingBlock: ZUJKAS_clean_linker_0, # of connection points: 2
#     Edge 19, Type (0, 1), BuildingBlock: ZUJKAS_clean_linker_0, # of connection points: 2
#     Edge 20, Type (0, 1), BuildingBlock: ZUJKAS_clean_linker_0, # of connection points: 2
#     Edge 21, Type (0, 1), BuildingBlock: ZUJKAS_clean_linker_0, # of connection points: 2
#     Edge 22, Type (0, 1), BuildingBlock: ZUJKAS_clean_linker_0, # of connection points: 2
#     Edge 23, Type (0, 1), BuildingBlock: ZUJKAS_clean_linker_0, # of connection points: 2
#     Edge 24, Type (0, 1), BuildingBlock: ZUJKAS_clean_linker_0, # of connection points: 2
#     Edge 25, Type (0, 1), BuildingBlock: ZUJKAS_clean_linker_0, # of connection points: 2
#     Edge 26, Type (0, 1), BuildingBlock: ZUJKAS_clean_linker_0, # of connection points: 2
#     Edge 27, Type (0, 1), BuildingBlock: ZUJKAS_clean_linker_0, # of connection points: 2
#     Edge 28, Type (0, 1), BuildingBlock: ZUJKAS_clean_linker_0, # of connection points: 2
#     Edge 29, Type (0, 1), BuildingBlock: ZUJKAS_clean_linker_0, # of connection points: 2
#     Edge 30, Type (0, 1), BuildingBlock: ZUJKAS_clean_linker_0, # of connection points: 2
#     Edge 31, Type (0, 1), BuildingBlock: ZUJKAS_clean_linker_0, # of connection points: 2
#     Edge 32, Type (0, 1), BuildingBlock: ZUJKAS_clean_linker_0, # of connection points: 2
#     Edge 33, Type (0, 1), BuildingBlock: ZUJKAS_clean_linker_0, # of connection points: 2
#     Edge 34, Type (0, 1), BuildingBlock: ZUJKAS_clean_linker_0, # of connection points: 2
#     Edge 35, Type (0, 1), BuildingBlock: ZUJKAS_clean_linker_0, # of connection points: 2
#     Edge 36, Type (0, 1), BuildingBlock: ZUJKAS_clean_linker_0, # of connection points: 2
#     Edge 37, Type (0, 1), BuildingBlock: ZUJKAS_clean_linker_0, # of connection points: 2
# Relax obj value: 0.003
# Max RMSD: 0.031
# Mean RMSD: 0.021
data_MOF--net-pto--node1-WUSLED_clean_sbu_0--node2-GIZVER_clean_linker_0--edge1-ZUJKAS_clean_linker_0
_symmetry_space_group_name_H-M    P1
_symmetry_Int_Tables_number       1
_symmetry_cell_setting            triclinic
loop_
_symmetry_equiv_pos_as_xyz
'x, y, z'
_cell_length_a     81.632423
_cell_length_b     65.895289
_cell_length_c     47.970193
_cell_angle_alpha  89.337798
_cell_angle_beta   90.288668
_cell_angle_gamma 90.165882
loop_
_atom_site_label
_atom_site_type_symbol
_atom_site_fract_x
_atom_site_fract_y
_atom_site_fract_z
_atom_type_partial_charge
C0 C 0.24876 0.26801 0.26201 0.0
C1 C 0.26429 0.26122 0.27058 0.0
C2 C 0.25242 0.22933 0.28715 0.0
C3 C 0.26609 0.24209 0.28313 0.0
C4 C 0.23692 0.23616 0.27813 0.0
C5 C 0.23513 0.25534 0.26572 0.0
U6 U 0.26621 0.31402 0.22368 0.0
O7 O 0.25574 0.33223 0.18926 0.0
O8 O 0.26148 0.34658 0.22918 0.0
C9 C 0.25435 0.34851 0.20465 0.0
C10 C 0.24665 0.28816 0.24903 0.0
C11 C 0.23795 0.3577 0.20497 0.0
C12 C 0.20915 0.3563 0.21761 0.0
C13 C 0.22468 0.34737 0.21714 0.0
C14 C 0.21998 0.38597 0.19369 0.0
C15 C 0.20661 0.37576 0.20597 0.0
C16 C 0.2355 0.37701 0.19321 0.0
C17 C 0.31263 0.31187 0.2061 0.0
C18 C 0.33125 0.33929 0.19327 0.0
C19 C 0.33959 0.30431 0.18782 0.0
C20 C 0.32446 0.29779 0.19801 0.0
C21 C 0.34328 0.32513 0.18555 0.0
C22 C 0.31604 0.3327 0.2035 0.0
C23 C 0.29716 0.30416 0.21791 0.0
O24 O 0.25401 0.30322 0.26182 0.0
O25 O 0.24845 0.28885 0.22184 0.0
O26 O 0.28571 0.29913 0.1999 0.0
O27 O 0.29146 0.31359 0.23982 0.0
H28 H 0.27498 0.27079 0.26775 0.0
H29 H 0.27816 0.23748 0.29013 0.0
H30 H 0.22617 0.22664 0.28047 0.0
H31 H 0.22307 0.26028 0.25901 0.0
H32 H 0.19919 0.34811 0.22751 0.0
H33 H 0.22638 0.33244 0.2264 0.0
H34 H 0.21843 0.40083 0.18417 0.0
H35 H 0.24559 0.38517 0.18366 0.0
H36 H 0.33371 0.35542 0.19191 0.0
H37 H 0.34838 0.29299 0.18153 0.0
H38 H 0.32202 0.28165 0.19977 0.0
H39 H 0.30704 0.34383 0.20963 0.0
C40 C 0.24929 0.75966 0.73111 0.0
C41 C 0.26016 0.77403 0.74227 0.0
C42 C 0.25359 0.7978 0.70453 0.0
C43 C 0.26223 0.79294 0.72919 0.0
C44 C 0.24283 0.78324 0.69335 0.0
C45 C 0.24067 0.76441 0.70657 0.0
U46 U 0.26573 0.7129 0.76965 0.0
O47 O 0.25523 0.69543 0.80467 0.0
O48 O 0.25953 0.68063 0.76466 0.0
C49 C 0.25286 0.67919 0.78949 0.0
C50 C 0.24684 0.73965 0.74454 0.0
C51 C 0.2361 0.67092 0.78995 0.0
C52 C 0.20726 0.67354 0.77757 0.0
C53 C 0.22313 0.68162 0.77738 0.0
C54 C 0.21713 0.64404 0.80306 0.0
C55 C 0.20405 0.65462 0.79037 0.0
C56 C 0.233 0.65213 0.80283 0.0
C57 C 0.31256 0.71198 0.78485 0.0
C58 C 0.32827 0.69489 0.82138 0.0
C59 C 0.34218 0.70957 0.78147 0.0
C60 C 0.32714 0.71581 0.77039 0.0
C61 C 0.34299 0.6994 0.80738 0.0
C62 C 0.31317 0.70114 0.81022 0.0
C63 C 0.29722 0.72074 0.77379 0.0
O64 O 0.25339 0.72421 0.7316 0.0
O65 O 0.24896 0.73885 0.77173 0.0
O66 O 0.28638 0.72668 0.79216 0.0
O67 O 0.29064 0.71165 0.75219 0.0
H68 H 0.26704 0.77068 0.76113 0.0
H69 H 0.27048 0.80382 0.7386 0.0
H70 H 0.23621 0.78623 0.67413 0.0
H71 H 0.23231 0.75347 0.69752 0.0
H72 H 0.19747 0.6822 0.76789 0.0
H73 H 0.22531 0.69621 0.76739 0.0
H74 H 0.21517 0.62931 0.81275 0.0
H75 H 0.24288 0.64364 0.81256 0.0
H76 H 0.32845 0.6872 0.84146 0.0
H77 H 0.35323 0.71298 0.7699 0.0
H78 H 0.32693 0.7241 0.75074 0.0
H79 H 0.30206 0.69798 0.82175 0.0
C80 C 0.73547 0.7136 0.21356 0.0
C81 C 0.73529 0.706 0.18631 0.0
C82 C 0.70598 0.69915 0.18974 0.0
C83 C 0.72067 0.6989 0.1745 0.0
C84 C 0.70635 0.70613 0.21732 0.0
C85 C 0.72093 0.71334 0.22904 0.0
U86 U 0.78168 0.71621 0.23233 0.0
O87 O 0.79819 0.74261 0.23034 0.0
O88 O 0.79314 0.72781 0.27059 0.0
C89 C 0.79991 0.74333 0.25756 0.0
C90 C 0.75023 0.7232 0.22565 0.0
C91 C 0.79686 0.76321 0.27003 0.0
C92 C 0.7786 0.79117 0.28031 0.0
C93 C 0.78141 0.77239 0.26791 0.0
C94 C 0.80667 0.79176 0.29698 0.0
C95 C 0.79119 0.80106 0.29508 0.0
C96 C 0.80946 0.773 0.28456 0.0
C97 C 0.81177 0.67377 0.2155 0.0
C98 C 0.84129 0.67644 0.20903 0.0
C99 C 0.82935 0.64476 0.22512 0.0
C100 C 0.81376 0.65348 0.22396 0.0
C101 C 0.8433 0.65612 0.21764 0.0
C102 C 0.82568 0.68523 0.20812 0.0
C103 C 0.79513 0.68259 0.21482 0.0
O104 O 0.75638 0.71449 0.24815 0.0
O105 O 0.76146 0.72961 0.20805 0.0
O106 O 0.79298 0.6987 0.19877 0.0
O107 O 0.78791 0.68402 0.23915 0.0
H108 H 0.74634 0.70592 0.17391 0.0
H109 H 0.72083 0.69336 0.15333 0.0
H110 H 0.69524 0.70672 0.22952 0.0
H111 H 0.72076 0.71923 0.25004 0.0
H112 H 0.7666 0.79798 0.2782 0.0
H113 H 0.77154 0.76499 0.25673 0.0
H114 H 0.81656 0.79876 0.30857 0.0
H115 H 0.82144 0.76606 0.28649 0.0
H116 H 0.85181 0.68563 0.20337 0.0
H117 H 0.83046 0.629 0.23153 0.0
H118 H 0.80322 0.64435 0.22972 0.0
H119 H 0.82454 0.70098 0.20173 0.0
C120 C 0.76475 0.2584 0.75026 0.0
C121 C 0.78058 0.25446 0.74047 0.0
C122 C 0.7715 0.2216 0.72319 0.0
C123 C 0.78393 0.2362 0.72703 0.0
C124 C 0.75571 0.22564 0.73332 0.0
C125 C 0.75239 0.24388 0.74672 0.0
U126 U 0.77666 0.31094 0.77725 0.0
O127 O 0.76278 0.33948 0.77461 0.0
O128 O 0.76883 0.32621 0.81549 0.0
C129 C 0.76032 0.33995 0.80166 0.0
C130 C 0.76085 0.27765 0.76379 0.0
C131 C 0.74307 0.34166 0.81004 0.0
C132 C 0.71564 0.32734 0.81283 0.0
C133 C 0.73197 0.32593 0.80438 0.0
C134 C 0.72128 0.36035 0.83249 0.0
C135 C 0.7101 0.34452 0.82714 0.0
C136 C 0.73763 0.35891 0.82402 0.0
C137 C 0.82162 0.32923 0.76902 0.0
C138 C 0.83962 0.35021 0.79741 0.0
C139 C 0.84498 0.34655 0.74814 0.0
C140 C 0.83127 0.33392 0.74569 0.0
C141 C 0.84943 0.35469 0.77408 0.0
C142 C 0.82582 0.33765 0.79491 0.0
C143 C 0.80801 0.31453 0.76599 0.0
O144 O 0.76764 0.28042 0.78836 0.0
O145 O 0.76149 0.29385 0.7476 0.0
O146 O 0.79638 0.31949 0.74812 0.0
O147 O 0.80241 0.30595 0.78895 0.0
H148 H 0.79028 0.26554 0.74311 0.0
H149 H 0.79625 0.23348 0.71975 0.0
H150 H 0.7458 0.21491 0.73035 0.0
H151 H 0.74009 0.24674 0.75409 0.0
H152 H 0.70735 0.315 0.80804 0.0
H153 H 0.73596 0.31251 0.79351 0.0
H154 H 0.71749 0.37367 0.84376 0.0
H155 H 0.74605 0.37118 0.8286 0.0
H156 H 0.84259 0.35644 0.81761 0.0
H157 H 0.85236 0.34949 0.72982 0.0
H158 H 0.82837 0.32748 0.72557 0.0
H159 H 0.8186 0.33433 0.8133 0.0
C160 C 0.81029 0.66696 0.79612 0.0
C161 C 0.82315 0.6765 0.78166 0.0
C162 C 0.84205 0.65 0.79706 0.0
C163 C 0.83888 0.66808 0.78208 0.0
C164 C 0.8291 0.6406 0.81163 0.0
C165 C 0.81337 0.64901 0.81113 0.0
U166 U 0.78099 0.70926 0.77543 0.0
O167 O 0.75598 0.70813 0.75787 0.0
O168 O 0.76055 0.72319 0.79779 0.0
C169 C 0.74958 0.71734 0.77938 0.0
C170 C 0.79365 0.67552 0.79548 0.0
C171 C 0.73427 0.70865 0.79055 0.0
C172 C 0.71918 0.68928 0.82551 0.0
C173 C 0.73411 0.69577 0.81408 0.0
C174 C 0.70451 0.70795 0.78952 0.0
C175 C 0.70419 0.6956 0.81362 0.0
C176 C 0.71939 0.71441 0.77816 0.0
C177 C 0.79771 0.75575 0.73704 0.0
C178 C 0.77982 0.7821 0.7185 0.0
C179 C 0.80929 0.78612 0.71578 0.0
C180 C 0.81136 0.76731 0.72909 0.0
C181 C 0.79349 0.7937 0.71012 0.0
C182 C 0.78192 0.76329 0.73187 0.0
C183 C 0.80013 0.73586 0.75056 0.0
O184 O 0.79154 0.69183 0.81056 0.0
O185 O 0.78687 0.67695 0.77062 0.0
O186 O 0.79342 0.7204 0.73767 0.0
O187 O 0.79781 0.73536 0.77764 0.0
H188 H 0.82099 0.69044 0.77002 0.0
H189 H 0.84859 0.67582 0.77089 0.0
H190 H 0.83103 0.62653 0.82304 0.0
H191 H 0.80359 0.64142 0.82235 0.0
H192 H 0.71938 0.67989 0.84418 0.0
H193 H 0.74548 0.69114 0.82396 0.0
H194 H 0.69324 0.7128 0.77953 0.0
H195 H 0.71927 0.72429 0.75993 0.0
H196 H 0.76749 0.78735 0.71421 0.0
H197 H 0.82008 0.79477 0.71002 0.0
H198 H 0.82364 0.76176 0.73309 0.0
H199 H 0.77123 0.75454 0.73794 0.0
C200 C 0.73391 0.31075 0.20719 0.0
C201 C 0.73111 0.33159 0.20315 0.0
C202 C 0.70347 0.32446 0.18601 0.0
C203 C 0.716 0.33839 0.19261 0.0
C204 C 0.70652 0.3036 0.18985 0.0
C205 C 0.72155 0.29687 0.20035 0.0
U206 U 0.78044 0.31244 0.22479 0.0
O207 O 0.79263 0.30145 0.26305 0.0
O208 O 0.79796 0.2872 0.22303 0.0
C209 C 0.79991 0.28647 0.25023 0.0
C210 C 0.74933 0.30287 0.21906 0.0
C211 C 0.79775 0.26633 0.26314 0.0
C212 C 0.78054 0.23748 0.27545 0.0
C213 C 0.78242 0.25664 0.26297 0.0
C214 C 0.80929 0.23755 0.28829 0.0
C215 C 0.79396 0.22769 0.28827 0.0
C216 C 0.81115 0.25669 0.27583 0.0
C217 C 0.80909 0.35581 0.20569 0.0
C218 C 0.8384 0.35319 0.21441 0.0
C219 C 0.82692 0.38475 0.19697 0.0
C220 C 0.81128 0.37599 0.197 0.0
C221 C 0.84071 0.37346 0.20562 0.0
C222 C 0.82274 0.34446 0.21447 0.0
C223 C 0.79257 0.34677 0.20567 0.0
O224 O 0.76062 0.29768 0.20109 0.0
O225 O 0.75526 0.31233 0.24091 0.0
O226 O 0.78568 0.34495 0.23028 0.0
O227 O 0.79081 0.33052 0.19029 0.0
H228 H 0.74052 0.34256 0.20831 0.0
H229 H 0.71404 0.35456 0.19004 0.0
H230 H 0.69733 0.29241 0.18445 0.0
H231 H 0.72351 0.28071 0.20322 0.0
H232 H 0.76861 0.23025 0.27483 0.0
H233 H 0.77194 0.2639 0.25318 0.0
H234 H 0.81981 0.23062 0.29837 0.0
H235 H 0.82305 0.26401 0.27621 0.0
H236 H 0.84872 0.34396 0.22093 0.0
H237 H 0.82817 0.40048 0.19053 0.0
H238 H 0.80088 0.38502 0.1903 0.0
H239 H 0.82127 0.32883 0.22129 0.0
C240 C 0.2502 0.2686 0.72775 0.0
C241 C 0.26343 0.25588 0.73455 0.0
C242 C 0.25385 0.23095 0.70097 0.0
C243 C 0.26522 0.2372 0.72135 0.0
C244 C 0.24072 0.24392 0.69409 0.0
C245 C 0.23891 0.26254 0.7074 0.0
U246 U 0.26735 0.3129 0.76913 0.0
O247 O 0.26239 0.34562 0.76539 0.0
O248 O 0.25671 0.32936 0.80432 0.0
C249 C 0.25524 0.34633 0.78986 0.0
C250 C 0.24805 0.2882 0.7416 0.0
C251 C 0.23879 0.35542 0.78989 0.0
C252 C 0.2102 0.35522 0.7753 0.0
C253 C 0.22583 0.34653 0.77499 0.0
C254 C 0.2203 0.38174 0.80549 0.0
C255 C 0.20722 0.37293 0.79061 0.0
C256 C 0.23592 0.37306 0.80512 0.0
C257 C 0.3137 0.31003 0.78784 0.0
C258 C 0.33029 0.33569 0.81079 0.0
C259 C 0.34195 0.30287 0.80049 0.0
C260 C 0.32709 0.29681 0.78865 0.0
C261 C 0.34375 0.32234 0.81184 0.0
C262 C 0.31534 0.32955 0.79892 0.0
C263 C 0.29833 0.30287 0.77516 0.0
O264 O 0.24957 0.2878 0.76889 0.0
O265 O 0.25558 0.3037 0.72981 0.0
O266 O 0.29271 0.31347 0.7538 0.0
O267 O 0.28681 0.29699 0.79253 0.0
H268 H 0.27233 0.26037 0.75016 0.0
H269 H 0.27538 0.22755 0.72737 0.0
H270 H 0.23192 0.23983 0.67814 0.0
H271 H 0.2287 0.27224 0.70175 0.0
H272 H 0.2004 0.34792 0.76386 0.0
H273 H 0.22782 0.33284 0.7632 0.0
H274 H 0.21852 0.39552 0.81716 0.0
H275 H 0.24578 0.38014 0.8167 0.0
H276 H 0.33122 0.35072 0.81954 0.0
H277 H 0.3521 0.29232 0.80049 0.0
H278 H 0.32607 0.28171 0.78005 0.0
H279 H 0.3051 0.33996 0.79848 0.0
C280 C 0.22394 0.6972 0.23445 0.0
C281 C 0.22148 0.68621 0.20985 0.0
C282 C 0.19628 0.67162 0.22869 0.0
C283 C 0.20774 0.67358 0.20697 0.0
C284 C 0.19901 0.68238 0.25345 0.0
C285 C 0.21267 0.69504 0.25624 0.0
U286 U 0.26886 0.71533 0.22569 0.0
O287 O 0.27781 0.74604 0.21506 0.0
O288 O 0.28437 0.73195 0.25527 0.0
C289 C 0.28473 0.74845 0.23959 0.0
C290 C 0.23758 0.71179 0.23756 0.0
C291 C 0.28111 0.76767 0.25366 0.0
C292 C 0.26761 0.78678 0.28998 0.0
C293 C 0.27016 0.7685 0.27609 0.0
C294 C 0.2865 0.80373 0.2586 0.0
C295 C 0.27587 0.8046 0.28157 0.0
C296 C 0.28912 0.78544 0.24487 0.0
C297 C 0.30201 0.68428 0.19143 0.0
C298 C 0.33064 0.69446 0.19416 0.0
C299 C 0.32232 0.66791 0.16253 0.0
C300 C 0.30608 0.66997 0.17127 0.0
C301 C 0.33484 0.68012 0.17386 0.0
C302 C 0.31438 0.69656 0.20277 0.0
C303 C 0.28485 0.68651 0.20023 0.0
O304 O 0.24932 0.70653 0.25505 0.0
O305 O 0.24305 0.72049 0.2146 0.0
O306 O 0.27647 0.70061 0.18686 0.0
O307 O 0.28251 0.68662 0.22732 0.0
H308 H 0.23005 0.68755 0.19275 0.0
H309 H 0.20611 0.66531 0.18777 0.0
H310 H 0.19035 0.68142 0.27045 0.0
H311 H 0.21428 0.70347 0.27534 0.0
H312 H 0.25948 0.78679 0.30775 0.0
H313 H 0.26378 0.75497 0.28318 0.0
H314 H 0.29284 0.8172 0.25121 0.0
H315 H 0.29753 0.78513 0.22748 0.0
H316 H 0.33993 0.70395 0.2036 0.0
H317 H 0.32501 0.65697 0.14652 0.0
H318 H 0.29668 0.66046 0.16214 0.0
H319 H 0.31147 0.70777 0.21833 0.0
H320 H 1.00526 0.48161 0.18784 0.0
H321 H 1.00611 0.54696 0.19121 0.0
H322 H 0.96557 0.51363 0.22569 0.0
H323 H 0.02303 0.50136 0.15685 0.0
H324 H 0.02278 0.52835 0.15703 0.0
H325 H 0.04152 0.4822 0.18757 0.0
H326 H 0.08203 0.5155 0.22201 0.0
H327 H 0.04028 0.54757 0.18942 0.0
C328 C 0.99993 0.4957 0.19483 0.0
C329 C 0.98473 0.49537 0.20848 0.0
C330 C 1.00791 0.51427 0.18897 0.0
C331 C 1.00042 0.5326 0.19674 0.0
C332 C 0.98522 0.53243 0.21041 0.0
C333 C 0.97771 0.51376 0.21658 0.0
C334 C 0.02305 0.51469 0.17089 0.0
C335 C 0.03879 0.51483 0.1877 0.0
C336 C 0.04698 0.49648 0.19375 0.0
C337 C 0.06256 0.4966 0.20642 0.0
C338 C 0.06966 0.51525 0.21362 0.0
C339 C 0.06181 0.53369 0.20757 0.0
C340 C 0.04627 0.53338 0.1948 0.0
H341 H 0.04082 0.54404 0.76465 0.0
H342 H 0.04197 0.47863 0.7647 0.0
H343 H 0.08215 0.51223 0.79941 0.0
H344 H 0.02331 0.5246 0.73277 0.0
H345 H 0.02372 0.49761 0.73284 0.0
H346 H 1.00601 0.5432 0.76589 0.0
H347 H 0.96594 0.50938 0.80097 0.0
H348 H 1.00624 0.47779 0.76419 0.0
C349 C 0.04671 0.52993 0.77069 0.0
C350 C 0.06219 0.53039 0.78371 0.0
C351 C 0.03916 0.51129 0.76419 0.0
C352 C 0.04734 0.493 0.77073 0.0
C353 C 0.06275 0.4933 0.78392 0.0
C354 C 0.06987 0.512 0.79069 0.0
C355 C 0.02366 0.51101 0.74675 0.0
C356 C 1.00827 0.51052 0.76423 0.0
C357 C 1.00052 0.52877 0.77166 0.0
C358 C 0.98533 0.5284 0.78533 0.0
C359 C 0.97807 0.50964 0.79185 0.0
C360 C 0.98538 0.49132 0.78419 0.0
C361 C 1.00063 0.49184 0.77068 0.0
H362 H 0.28428 0.03595 0.45285 0.0
H363 H 0.28532 0.03686 0.54264 0.0
H364 H 0.26193 0.0851 0.49684 0.0
H365 H 0.30426 0.01534 0.47967 0.0
H366 H 0.30413 0.0151 0.51685 0.0
H367 H 0.28552 0.99366 0.45309 0.0
H368 H 0.26271 0.9444 0.49787 0.0
H369 H 0.28476 0.9935 0.54289 0.0
C370 C 0.28079 0.04299 0.47223 0.0
C371 C 0.27215 0.06142 0.47167 0.0
C372 C 0.28544 0.03391 0.49778 0.0
C373 C 0.28136 0.04344 0.52292 0.0
C374 C 0.2726 0.06173 0.5226 0.0
C375 C 0.26792 0.07043 0.49699 0.0
C376 C 0.29604 0.01518 0.49811 0.0
C377 C 0.28583 0.99604 0.49799 0.0
C378 C 0.28168 0.98675 0.47262 0.0
C379 C 0.27318 0.96819 0.47245 0.0
C380 C 0.26855 0.95921 0.49787 0.0
C381 C 0.27275 0.9681 0.52337 0.0
C382 C 0.28125 0.98666 0.52329 0.0
H383 H 0.50629 0.68674 0.95737 0.0
H384 H 0.50544 0.68659 0.0472 0.0
H385 H 0.46484 0.6622 0.00139 0.0
H386 H 0.52399 0.7096 0.98389 0.0
H387 H 0.52356 0.70973 0.02095 0.0
H388 H 0.54134 0.68549 0.95868 0.0
H389 H 0.5817 0.66073 0.00566 0.0
H390 H 0.54116 0.68725 0.04848 0.0
C391 C 0.50046 0.6823 0.97676 0.0
C392 C 0.48481 0.67328 0.97618 0.0
C393 C 0.50816 0.68683 0.00232 0.0
C394 C 0.50004 0.68218 0.02748 0.0
C395 C 0.48454 0.67287 0.02712 0.0
C396 C 0.47725 0.66814 0.00151 0.0
C397 C 0.52364 0.6995 0.00264 0.0
C398 C 0.53903 0.68677 0.00352 0.0
C399 C 0.54685 0.68136 0.97854 0.0
C400 C 0.56223 0.67177 0.97917 0.0
C401 C 0.56945 0.66708 0.00503 0.0
C402 C 0.56204 0.67268 0.03006 0.0
C403 C 0.54672 0.68234 0.02923 0.0
H404 H 0.79756 0.0333 0.45912 0.0
H405 H 0.79963 0.03673 0.54866 0.0
H406 H 0.78104 0.08699 0.50046 0.0
H407 H 0.81669 0.01193 0.4871 0.0
H408 H 0.81621 0.01218 0.52418 0.0
H409 H 0.79614 0.99267 0.4602 0.0
H410 H 0.77362 0.94306 0.50462 0.0
H411 H 0.79683 0.99116 0.54996 0.0
C412 C 0.79492 0.04137 0.47813 0.0
C413 C 0.78834 0.06104 0.47662 0.0
C414 C 0.79887 0.0324 0.50408 0.0
C415 C 0.79599 0.04323 0.52871 0.0
C416 C 0.78969 0.06302 0.52745 0.0
C417 C 0.78558 0.07155 0.50143 0.0
C418 C 0.80828 0.01272 0.50524 0.0
C419 C 0.79712 0.99441 0.5051 0.0
C420 C 0.79241 0.98562 0.47968 0.0
C421 C 0.78373 0.96717 0.47936 0.0
C422 C 0.77943 0.95788 0.50477 0.0
C423 C 0.78415 0.96629 0.53033 0.0
C424 C 0.7928 0.98477 0.53035 0.0
H425 H 0.50586 0.3761 0.95448 0.0
H426 H 0.50551 0.38187 0.04406 0.0
H427 H 0.46411 0.35611 0.00178 0.0
H428 H 0.52419 0.40057 0.97867 0.0
H429 H 0.52475 0.40172 0.01573 0.0
H430 H 0.54121 0.37668 0.95365 0.0
H431 H 0.57923 0.34647 8e-05 0.0
H432 H 0.54059 0.37654 0.04361 0.0
C433 C 0.49999 0.37344 0.9744 0.0
C434 C 0.48426 0.36469 0.97525 0.0
C435 C 0.50792 0.37939 -0.00076 0.0
C436 C 0.49985 0.37663 0.02495 0.0
C437 C 0.48403 0.36825 0.02575 0.0
C438 C 0.47651 0.36206 0.00103 0.0
C439 C 0.5239 0.39104 0.99797 0.0
C440 C 0.53868 0.37724 -0.00143 0.0
C441 C 0.54627 0.37162 0.97346 0.0
C442 C 0.56083 0.36029 0.97396 0.0
C443 C 0.56755 0.35431 -0.00033 0.0
C444 C 0.56048 0.36019 0.02484 0.0
C445 C 0.54593 0.37153 0.02424 0.0
H446 H 0.19935 0.41546 0.21667 0.0
H447 H 0.17244 0.43157 0.21709 0.0
H448 H 0.14959 0.37434 0.19768 0.0
H449 H 0.17653 0.35808 0.19703 0.0
H450 H 0.14994 0.43422 0.17362 0.0
H451 H 0.12321 0.39374 0.26502 0.0
H452 H 0.14488 0.39361 0.25767 0.0
H453 H 0.13116 0.37774 0.23821 0.0
C454 C 0.18863 0.40628 0.21236 0.0
C455 C 0.19014 0.38545 0.20678 0.0
C456 C 0.17324 0.4155 0.21276 0.0
C457 C 0.15898 0.40413 0.20775 0.0
C458 C 0.16039 0.38334 0.20219 0.0
H459 H 0.06743 0.46753 0.16702 0.0
H460 H 0.08904 0.44179 0.16703 0.0
C461 C 0.17581 0.37407 0.20181 0.0
C462 C 0.14277 0.41435 0.20733 0.0
H463 H 0.10584 0.4165 0.24049 0.0
C464 C 0.14025 0.43026 0.18812 0.0
C465 C 0.13021 0.40924 0.22641 0.0
C466 C 0.13246 0.39277 0.24818 0.0
C467 C 0.12562 0.44141 0.18767 0.0
C468 C 0.113 0.43626 0.20664 0.0
C469 C 0.11544 0.42021 0.22572 0.0
C470 C 0.09787 0.44864 0.20848 0.0
C471 C 0.12408 0.45913 0.1676 0.0
C472 C 0.09498 0.46006 0.23245 0.0
C473 C 0.08252 0.47457 0.23264 0.0
C474 C 0.07271 0.47793 0.20884 0.0
C475 C 0.07472 0.46526 0.18572 0.0
C476 C 0.08719 0.45071 0.18557 0.0
H477 H 0.13609 0.4636 0.15857 0.0
H478 H 0.11579 0.4549 0.1502 0.0
H479 H 0.11877 0.4725 0.17811 0.0
H480 H 0.10298 0.45861 0.25045 0.0
H481 H 0.08115 0.48395 0.25087 0.0
H482 H 0.18178 0.65467 0.74737 0.0
H483 H 0.15453 0.63909 0.74651 0.0
H484 H 0.16123 0.61825 0.83132 0.0
H485 H 0.18825 0.6343 0.83267 0.0
H486 H 0.14774 0.59848 0.75363 0.0
H487 H 0.11551 0.64289 0.83382 0.0
H488 H 0.13456 0.6512 0.81839 0.0
H489 H 0.13457 0.63241 0.84589 0.0
C490 C 0.17733 0.64712 0.76604 0.0
C491 C 0.18722 0.64578 0.79012 0.0
C492 C 0.16178 0.63814 0.76546 0.0
C493 C 0.15572 0.62777 0.78898 0.0
C494 C 0.16548 0.62653 0.81311 0.0
H495 H 0.08005 0.54292 0.82873 0.0
H496 H 0.10112 0.56939 0.82911 0.0
C497 C 0.18104 0.63549 0.81371 0.0
C498 C 0.13973 0.61695 0.78762 0.0
H499 H 0.10268 0.61185 0.8199 0.0
C500 C 0.13779 0.6016 0.76784 0.0
C501 C 0.12678 0.62101 0.80624 0.0
C502 C 0.12786 0.6379 0.82712 0.0
C503 C 0.12355 0.58963 0.76689 0.0
C504 C 0.11071 0.5934 0.78588 0.0
C505 C 0.11249 0.60905 0.80528 0.0
C506 C 0.09598 0.58012 0.7872 0.0
C507 C 0.1227 0.57244 0.74639 0.0
C508 C 0.08551 0.57809 0.76406 0.0
C509 C 0.07347 0.5629 0.76375 0.0
C510 C 0.0717 0.54955 0.78664 0.0
C511 C 0.08126 0.55283 0.81068 0.0
C512 C 0.09328 0.56797 0.81094 0.0
H513 H 0.13489 0.56894 0.73745 0.0
H514 H 0.11778 0.55846 0.75648 0.0
H515 H 0.11437 0.5767 0.72895 0.0
H516 H 0.08719 0.58758 0.74571 0.0
H517 H 0.06637 0.56072 0.74488 0.0
H518 H 0.86772 0.6587 0.17872 0.0
H519 H 0.89423 0.64127 0.1794 0.0
H520 H 0.88283 0.61518 0.25987 0.0
H521 H 0.85628 0.63229 0.25914 0.0
H522 H 0.9209 0.64168 0.2154 0.0
H523 H 0.89219 0.56533 0.21399 0.0
H524 H 0.88069 0.58823 0.20736 0.0
H525 H 0.88546 0.58047 0.24256 0.0
C526 C 0.87093 0.64938 0.19665 0.0
C527 C 0.85982 0.64666 0.21872 0.0
C528 C 0.88607 0.63941 0.197 0.0
C529 C 0.89038 0.62659 0.21943 0.0
C530 C 0.87959 0.62456 0.24201 0.0
H531 H 0.96903 0.54354 0.25744 0.0
H532 H 0.94759 0.56926 0.26073 0.0
C533 C 0.86443 0.63436 0.24157 0.0
C534 C 0.90589 0.61483 0.21891 0.0
H535 H 0.92084 0.56651 0.22217 0.0
C536 C 0.9209 0.62524 0.21678 0.0
C537 C 0.90588 0.59336 0.22045 0.0
C538 C 0.8902 0.58116 0.22093 0.0
C539 C 0.93591 0.61474 0.21688 0.0
C540 C 0.93585 0.59333 0.21904 0.0
C541 C 0.92085 0.58296 0.22088 0.0
C542 C 0.95107 0.58107 0.21892 0.0
C543 C 0.95172 0.62656 0.21519 0.0
C544 C 0.96056 0.5797 0.19467 0.0
C545 C 0.97284 0.56497 0.19274 0.0
C546 C 0.97572 0.55132 0.21498 0.0
C547 C 0.96703 0.55379 0.23994 0.0
C548 C 0.95478 0.56846 0.24184 0.0
H549 H 0.94987 0.64294 0.21938 0.0
H550 H 0.96085 0.62039 0.23026 0.0
H551 H 0.95688 0.62512 0.19395 0.0
H552 H 0.95774 0.58907 0.17659 0.0
H553 H 0.97917 0.56326 0.17312 0.0
H554 H 0.8601 0.38483 0.73876 0.0
H555 H 0.88518 0.40509 0.74242 0.0
H556 H 0.89767 0.37406 0.8192 0.0
H557 H 0.87274 0.35344 0.81543 0.0
H558 H 0.89446 0.431 0.78651 0.0
H559 H 0.93964 0.36922 0.77131 0.0
H560 H 0.91826 0.36663 0.76205 0.0
H561 H 0.92458 0.36457 0.79787 0.0
C562 C 0.86825 0.38217 0.7563 0.0
C563 C 0.86444 0.36745 0.77675 0.0
C564 C 0.88254 0.39382 0.75842 0.0
C565 C 0.89341 0.39088 0.78086 0.0
C566 C 0.88959 0.37635 0.80146 0.0
H567 H 0.96843 0.47761 0.8297 0.0
H568 H 0.94717 0.45131 0.83046 0.0
C569 C 0.87525 0.36475 0.79944 0.0
C570 C 0.90843 0.40353 0.78306 0.0
H571 H 0.9503 0.4016 0.78275 0.0
C572 C 0.90666 0.42458 0.78575 0.0
C573 C 0.92434 0.3951 0.78178 0.0
C574 C 0.92692 0.37266 0.77786 0.0
C575 C 0.92036 0.43744 0.78738 0.0
C576 C 0.93628 0.42901 0.78661 0.0
C577 C 0.93809 0.40797 0.78366 0.0
C578 C 0.95108 0.4421 0.78789 0.0
C579 C 0.91769 0.46004 0.78935 0.0
C580 C 0.96094 0.4448 0.76423 0.0
C581 C 0.97315 0.45978 0.76377 0.0
C582 C 0.97567 0.47227 0.787 0.0
C583 C 0.96665 0.46836 0.81141 0.0
C584 C 0.95448 0.4534 0.81185 0.0
H585 H 0.90492 0.46437 0.78388 0.0
H586 H 0.92016 0.46492 0.81104 0.0
H587 H 0.9262 0.46844 0.77535 0.0
H588 H 0.95853 0.43617 0.74556 0.0
H589 H 0.97978 0.46253 0.74459 0.0
H590 H 0.27739 0.2018 0.28159 0.0
H591 H 0.28088 0.16941 0.30638 0.0
H592 H 0.23516 0.17864 0.34892 0.0
H593 H 0.23173 0.2112 0.32482 0.0
H594 H 0.28219 0.16444 0.36551 0.0
H595 H 0.23131 0.12006 0.31899 0.0
H596 H 0.23946 0.14282 0.30281 0.0
H597 H 0.22547 0.14459 0.33149 0.0
C598 C 0.26808 0.19699 0.29627 0.0
C599 C 0.25426 0.20916 0.30117 0.0
C600 C 0.27004 0.17839 0.31024 0.0
C601 C 0.25815 0.17149 0.32912 0.0
C602 C 0.24429 0.18346 0.33392 0.0
H603 H 0.24446 0.08196 0.45598 0.0
H604 H 0.24175 0.10665 0.41786 0.0
C605 C 0.24235 0.20209 0.32009 0.0
C606 C 0.26071 0.15247 0.34533 0.0
H607 H 0.24351 0.10636 0.36043 0.0
C608 C 0.2739 0.15159 0.36415 0.0
C609 C 0.24982 0.13582 0.34352 0.0
C610 C 0.23579 0.13571 0.32294 0.0
C611 C 0.27606 0.13487 0.38218 0.0
C612 C 0.26497 0.11833 0.38079 0.0
C613 C 0.25204 0.11899 0.36138 0.0
C614 C 0.26583 0.1011 0.40095 0.0
C615 C 0.28972 0.13558 0.40351 0.0
C616 C 0.27995 0.08906 0.40331 0.0
C617 C 0.28161 0.07507 0.42531 0.0
C618 C 0.26909 0.07277 0.44517 0.0
C619 C 0.25443 0.08364 0.44131 0.0
C620 C 0.25283 0.09769 0.41945 0.0
H621 H 0.29473 0.15116 0.40593 0.0
H622 H 0.2854 0.13006 0.42417 0.0
H623 H 0.29986 0.12563 0.39677 0.0
H624 H 0.28998 0.09112 0.38884 0.0
H625 H 0.29307 0.06699 0.42768 0.0
H626 H 0.37032 0.72339 0.80861 0.0
H627 H 0.3966 0.71636 0.83117 0.0
H628 H 0.37856 0.65808 0.85913 0.0
H629 H 0.35223 0.6648 0.83597 0.0
H630 H 0.4005 0.70866 0.88871 0.0
H631 H 0.42401 0.64479 0.82589 0.0
H632 H 0.40791 0.66143 0.81358 0.0
H633 H 0.40349 0.64183 0.83877 0.0
C634 C 0.37201 0.70888 0.81905 0.0
C635 C 0.35917 0.6946 0.82032 0.0
C636 C 0.38703 0.70494 0.83206 0.0
C637 C 0.38962 0.6866 0.84649 0.0
C638 C 0.37692 0.67219 0.84766 0.0
H639 H 0.46463 0.64252 0.95876 0.0
H640 H 0.44268 0.64529 0.92403 0.0
C641 C 0.36183 0.67615 0.83469 0.0
C642 C 0.40518 0.68334 0.86203 0.0
H643 H 0.43908 0.65312 0.8667 0.0
C644 C 0.409 0.69662 0.88377 0.0
C645 C 0.41616 0.66751 0.85566 0.0
C646 C 0.41282 0.65313 0.83207 0.0
C647 C 0.42335 0.69432 0.89968 0.0
C648 C 0.43447 0.67862 0.89317 0.0
C649 C 0.43065 0.66528 0.87143 0.0
C650 C 0.44964 0.67536 0.90984 0.0
C651 C 0.42619 0.70834 0.92392 0.0
C652 C 0.46143 0.69082 0.91219 0.0
C653 C 0.4739 0.68937 0.93223 0.0
C654 C 0.47487 0.67233 0.95009 0.0
C655 C 0.46405 0.65598 0.94563 0.0
C656 C 0.45152 0.65751 0.92573 0.0
H657 H 0.41474 0.7161 0.93023 0.0
H658 H 0.43115 0.69991 0.94226 0.0
H659 H 0.43521 0.72019 0.91782 0.0
H660 H 0.46041 0.70454 0.89966 0.0
H661 H 0.48197 0.70226 0.93511 0.0
H662 H 0.76398 0.81249 0.32415 0.0
H663 H 0.75964 0.84407 0.3493 0.0
H664 H 0.80741 0.8653 0.32413 0.0
H665 H 0.8116 0.83411 0.29808 0.0
H666 H 0.77823 0.85704 0.393 0.0
H667 H 0.77933 0.91498 0.3084 0.0
H668 H 0.77677 0.88824 0.30174 0.0
H669 H 0.79683 0.89855 0.30833 0.0
C670 C 0.77341 0.82406 0.3234 0.0
C671 C 0.78814 0.82074 0.30907 0.0
C672 C 0.77095 0.84207 0.33792 0.0
C673 C 0.7831 0.85718 0.33827 0.0
C674 C 0.79771 0.85406 0.32366 0.0
H675 H 0.80606 0.9605 0.43827 0.0
H676 H 0.80412 0.93535 0.40124 0.0
C677 C 0.80018 0.83607 0.30911 0.0
C678 C 0.7811 0.87537 0.3559 0.0
H679 H 0.78216 0.92724 0.35502 0.0
C680 C 0.77886 0.87239 0.38464 0.0
C681 C 0.78203 0.89538 0.34497 0.0
C682 C 0.78372 0.89953 0.31413 0.0
C683 C 0.77804 0.88883 0.40288 0.0
C684 C 0.7792 0.90885 0.39202 0.0
C685 C 0.78122 0.91189 0.36324 0.0
C686 C 0.77917 0.92663 0.41067 0.0
C687 C 0.77656 0.8846 0.43378 0.0
C688 C 0.7655 0.93077 0.42725 0.0
C689 C 0.76656 0.94515 0.44838 0.0
C690 C 0.78128 0.95573 0.45315 0.0
C691 C 0.79451 0.95274 0.43498 0.0
C692 C 0.79345 0.93829 0.4139 0.0
H693 H 0.77935 0.86853 0.43916 0.0
H694 H 0.78495 0.89454 0.44582 0.0
H695 H 0.76384 0.88778 0.44047 0.0
H696 H 0.75427 0.92218 0.42473 0.0
H697 H 0.75612 0.9473 0.46187 0.0
H698 H 0.69169 0.31415 0.85073 0.0
H699 H 0.66376 0.31615 0.86854 0.0
H700 H 0.66172 0.37948 0.84524 0.0
H701 H 0.68953 0.37748 0.82657 0.0
H702 H 0.65384 0.3412 0.91131 0.0
H703 H 0.61809 0.3575 0.81486 0.0
H704 H 0.63875 0.34776 0.81421 0.0
H705 H 0.63519 0.37418 0.82071 0.0
C706 C 0.68521 0.32842 0.84885 0.0
C707 C 0.69287 0.34564 0.83712 0.0
C708 C 0.66926 0.32956 0.85918 0.0
C709 C 0.66056 0.34788 0.85787 0.0
C710 C 0.66807 0.36508 0.84598 0.0
H711 H 0.57168 0.38896 0.937 0.0
H712 H 0.5948 0.3853 0.90495 0.0
C713 C 0.68406 0.36397 0.83565 0.0
C714 C 0.64414 0.34927 0.8709 0.0
H715 H 0.60381 0.35994 0.85783 0.0
C716 C 0.64289 0.34515 0.89957 0.0
C717 C 0.62988 0.3546 0.85558 0.0
C718 C 0.63044 0.35861 0.82458 0.0
C719 C 0.62785 0.34645 0.91343 0.0
C720 C 0.61355 0.35159 0.89811 0.0
C721 C 0.61476 0.35585 0.86945 0.0
C722 C 0.59741 0.35298 0.91203 0.0
C723 C 0.62748 0.34278 0.94456 0.0
C724 C 0.5906 0.33583 0.92522 0.0
C725 C 0.57745 0.33789 0.94348 0.0
C726 C 0.57076 0.35712 0.9486 0.0
C727 C 0.5765 0.37395 0.9332 0.0
C728 C 0.58977 0.37189 0.91505 0.0
H729 H 0.6399 0.3438 0.95406 0.0
H730 H 0.61939 0.35389 0.95491 0.0
H731 H 0.6226 0.32733 0.94888 0.0
H732 H 0.59616 0.32105 0.9228 0.0
H733 H 0.57324 0.32469 0.9551 0.0
H734 H 0.23041 0.82131 0.67807 0.0
H735 H 0.23454 0.85314 0.65248 0.0
H736 H 0.28579 0.85237 0.67461 0.0
H737 H 0.28201 0.81994 0.6989 0.0
H738 H 0.24526 0.89043 0.66839 0.0
H739 H 0.28793 0.85805 0.59095 0.0
H740 H 0.27624 0.84237 0.61467 0.0
H741 H 0.29461 0.85485 0.62641 0.0
C742 C 0.24263 0.82773 0.67721 0.0
C743 C 0.25591 0.81784 0.69029 0.0
C744 C 0.24492 0.84607 0.66281 0.0
C745 C 0.26053 0.85498 0.66121 0.0
C746 C 0.27371 0.84556 0.67505 0.0
H747 H 0.29494 0.95963 0.56454 0.0
H748 H 0.29205 0.9345 0.6023 0.0
C749 C 0.27146 0.82712 0.68926 0.0
C750 C 0.26299 0.87388 0.64457 0.0
H751 H 0.28358 0.89342 0.58852 0.0
C752 C 0.25367 0.89111 0.65097 0.0
C753 C 0.27394 0.87474 0.62179 0.0
C754 C 0.28364 0.85648 0.61282 0.0
C755 C 0.25499 0.90912 0.63514 0.0
C756 C 0.26584 0.90987 0.61231 0.0
C757 C 0.27538 0.89282 0.60624 0.0
C758 C 0.2667 0.92757 0.59304 0.0
C759 C 0.24476 0.9272 0.64288 0.0
C760 C 0.25329 0.93231 0.5758 0.0
C761 C 0.25491 0.94659 0.55422 0.0
C762 C 0.26999 0.9564 0.54955 0.0
C763 C 0.28312 0.95251 0.56789 0.0
C764 C 0.28153 0.93808 0.58933 0.0
H765 H 0.24025 0.92598 0.66465 0.0
H766 H 0.25188 0.94149 0.64049 0.0
H767 H 0.23397 0.92811 0.62876 0.0
H768 H 0.24182 0.92415 0.57803 0.0
H769 H 0.24461 0.9493 0.54037 0.0
H770 H 0.68123 0.67595 0.21218 0.0
H771 H 0.65489 0.66716 0.1906 0.0
H772 H 0.66853 0.70056 0.11639 0.0
H773 H 0.69484 0.70919 0.13764 0.0
H774 H 0.63008 0.69117 0.17205 0.0
H775 H 0.65434 0.64705 0.08415 0.0
H776 H 0.66689 0.65414 0.11356 0.0
H777 H 0.66327 0.67192 0.0854 0.0
C778 C 0.67862 0.68135 0.19122 0.0
C779 C 0.6902 0.69311 0.17651 0.0
C780 C 0.66358 0.67629 0.17891 0.0
C781 C 0.65983 0.68288 0.15168 0.0
C782 C 0.67131 0.6948 0.13711 0.0
H783 H 0.56988 0.70344 0.065 0.0
H784 H 0.59211 0.70364 0.09928 0.0
C785 C 0.68636 0.69974 0.1493 0.0
C786 C 0.64378 0.67787 0.13863 0.0
H787 H 0.62671 0.65892 0.07931 0.0
C788 C 0.62931 0.68386 0.15194 0.0
C789 C 0.64271 0.66794 0.1127 0.0
C790 C 0.65763 0.65969 0.09828 0.0
C791 C 0.61387 0.68109 0.13934 0.0
C792 C 0.61293 0.67251 0.11246 0.0
C793 C 0.62736 0.66567 0.09981 0.0
C794 C 0.5974 0.67155 0.09609 0.0
C795 C 0.59878 0.68739 0.15501 0.0
C796 C 0.5927 0.65341 0.08309 0.0
C797 C 0.58013 0.65336 0.06319 0.0
C798 C 0.57192 0.67142 0.05605 0.0
C799 C 0.57578 0.68923 0.07052 0.0
C800 C 0.58851 0.68934 0.09017 0.0
H801 H 0.60084 0.68647 0.17791 0.0
H802 H 0.59587 0.70341 0.14965 0.0
H803 H 0.58805 0.6778 0.14961 0.0
H804 H 0.59936 0.63949 0.08726 0.0
H805 H 0.57744 0.63947 0.0522 0.0
H806 H 0.76048 0.18315 0.73553 0.0
H807 H 0.76474 0.15219 0.70878 0.0
H808 H 0.79402 0.1859 0.64962 0.0
H809 H 0.78974 0.21687 0.67602 0.0
H810 H 0.7557 0.14547 0.65403 0.0
H811 H 0.82274 0.13676 0.6666 0.0
H812 H 0.81078 0.15313 0.6885 0.0
H813 H 0.81712 0.16164 0.65441 0.0
C814 C 0.76786 0.18397 0.71685 0.0
C815 C 0.77481 0.20251 0.70796 0.0
C816 C 0.77034 0.16624 0.70169 0.0
C817 C 0.77992 0.16666 0.67748 0.0
C818 C 0.78694 0.18509 0.66865 0.0
H819 H 0.80128 0.10143 0.53287 0.0
H820 H 0.79878 0.12383 0.57271 0.0
C821 C 0.78448 0.20281 0.68377 0.0
C822 C 0.78174 0.14821 0.66034 0.0
H823 H 0.8103 0.11874 0.62862 0.0
C824 C 0.76761 0.13934 0.64887 0.0
C825 C 0.79729 0.14019 0.65378 0.0
C826 C 0.81283 0.14829 0.6667 0.0
C827 C 0.76868 0.12349 0.62962 0.0
C828 C 0.78428 0.11618 0.622 0.0
C829 C 0.79836 0.1244 0.63448 0.0
C830 C 0.78634 0.10175 0.59881 0.0
C831 C 0.75318 0.11548 0.61638 0.0
C832 C 0.78042 0.08172 0.60045 0.0
C833 C 0.78178 0.06882 0.57752 0.0
C834 C 0.78899 0.07586 0.55265 0.0
C835 C 0.79535 0.09571 0.55154 0.0
C836 C 0.79405 0.10849 0.57435 0.0
H837 H 0.74232 0.1248 0.62155 0.0
H838 H 0.75445 0.11506 0.59336 0.0
H839 H 0.75093 0.09974 0.62391 0.0
H840 H 0.77464 0.07616 0.61932 0.0
H841 H 0.77686 0.05356 0.57896 0.0
H842 H 0.35033 0.35675 0.14965 0.0
H843 H 0.37703 0.36586 0.12986 0.0
H844 H 0.39979 0.3177 0.17751 0.0
H845 H 0.37328 0.30868 0.19772 0.0
H846 H 0.40869 0.3758 0.15713 0.0
H847 H 0.41019 0.30542 0.09418 0.0
H848 H 0.39158 0.31485 0.10943 0.0
H849 H 0.40649 0.30205 0.13086 0.0
C850 C 0.36104 0.3483 0.15627 0.0
C851 C 0.3596 0.33181 0.17502 0.0
C852 C 0.37628 0.35349 0.14488 0.0
C853 C 0.39032 0.34227 0.15195 0.0
C854 C 0.38905 0.32634 0.17144 0.0
H855 H 0.48537 0.34064 0.06855 0.0
H856 H 0.46439 0.33533 0.10459 0.0
C857 C 0.37386 0.32116 0.18286 0.0
C858 C 0.40614 0.34659 0.13796 0.0
H859 H 0.43304 0.32707 0.09116 0.0
C860 C 0.41408 0.36514 0.14279 0.0
C861 C 0.41318 0.33258 0.11943 0.0
C862 C 0.40492 0.31265 0.1129 0.0
C863 C 0.42888 0.3701 0.12942 0.0
C864 C 0.4357 0.35631 0.11028 0.0
C865 C 0.4279 0.33758 0.10598 0.0
C866 C 0.45 0.36159 0.09249 0.0
C867 C 0.43709 0.39003 0.13601 0.0
C868 C 0.44912 0.37835 0.0742 0.0
C869 C 0.46111 0.38142 0.05391 0.0
C870 C 0.47417 0.36777 0.05145 0.0
C871 C 0.47557 0.35156 0.07051 0.0
C872 C 0.46354 0.34848 0.0909 0.0
H873 H 0.43383 0.39523 0.15722 0.0
H874 H 0.45063 0.38887 0.13461 0.0
H875 H 0.43286 0.40176 0.12087 0.0
H876 H 0.43862 0.38835 0.07441 0.0
H877 H 0.45964 0.39376 0.03898 0.0
H878 H 0.86343 0.64652 0.75335 0.0
H879 H 0.89015 0.62971 0.7533 0.0
H880 H 0.88513 0.61578 0.84086 0.0
H881 H 0.85848 0.63262 0.84118 0.0
H882 H 0.91939 0.63604 0.78516 0.0
H883 H 0.89201 0.56005 0.80517 0.0
H884 H 0.87992 0.58167 0.79444 0.0
H885 H 0.8865 0.57894 0.8301 0.0
C886 C 0.86809 0.6401 0.77269 0.0
C887 C 0.85871 0.64076 0.79722 0.0
C888 C 0.88336 0.63046 0.77259 0.0
C889 C 0.88952 0.62123 0.79697 0.0
C890 C 0.88046 0.62245 0.82168 0.0
H891 H 0.97037 0.54037 0.83302 0.0
H892 H 0.94875 0.5658 0.83699 0.0
C893 C 0.8652 0.63204 0.8218 0.0
C894 C 0.90513 0.60968 0.79637 0.0
H895 H 0.92087 0.56218 0.80607 0.0
C896 C 0.91976 0.61989 0.7897 0.0
C897 C 0.90555 0.58859 0.80218 0.0
C898 C 0.89016 0.57658 0.80813 0.0
C899 C 0.93486 0.60961 0.78926 0.0
C900 C 0.93526 0.58854 0.79525 0.0
C901 C 0.9206 0.57838 0.80177 0.0
C902 C 0.95056 0.57635 0.79422 0.0
C903 C 0.95025 0.62145 0.7829 0.0
C904 C 0.95923 0.57434 0.76917 0.0
C905 C 0.97173 0.55991 0.76696 0.0
C906 C 0.9756 0.5471 0.78967 0.0
C907 C 0.96764 0.55007 0.81521 0.0
C908 C 0.95525 0.56454 0.81746 0.0
H909 H 0.94861 0.63793 0.78659 0.0
H910 H 0.9607 0.61591 0.79577 0.0
H911 H 0.95342 0.61949 0.76063 0.0
H912 H 0.95564 0.58296 0.7508 0.0
H913 H 0.97746 0.55771 0.7469 0.0
H914 H 0.8539 0.39947 0.16668 0.0
H915 H 0.88069 0.41612 0.16772 0.0
H916 H 0.89219 0.3854 0.24516 0.0
H917 H 0.86529 0.36889 0.24456 0.0
H918 H 0.8921 0.44182 0.20984 0.0
H919 H 0.93329 0.37564 0.1971 0.0
H920 H 0.91171 0.37473 0.18862 0.0
H921 H 0.91834 0.37305 0.22433 0.0
C922 C 0.86209 0.39626 0.184 0.0
C923 C 0.85737 0.38286 0.20559 0.0
C924 C 0.87746 0.40569 0.18444 0.0
C925 C 0.88853 0.40181 0.20633 0.0
C926 C 0.88398 0.38828 0.22775 0.0
H927 H 0.96819 0.48136 0.25419 0.0
H928 H 0.94604 0.45623 0.25469 0.0
C929 C 0.86858 0.37886 0.22737 0.0
C930 C 0.90433 0.41301 0.20757 0.0
H931 H 0.94598 0.40718 0.20767 0.0
C932 C 0.90387 0.43424 0.20933 0.0
C933 C 0.91969 0.40309 0.20673 0.0
C934 C 0.92089 0.38038 0.20385 0.0
C935 C 0.9183 0.44581 0.21057 0.0
C936 C 0.93365 0.4359 0.2103 0.0
C937 C 0.93418 0.41469 0.20816 0.0
C938 C 0.94914 0.44767 0.21166 0.0
C939 C 0.91704 0.46864 0.21184 0.0
C940 C 0.95878 0.45034 0.18775 0.0
C941 C 0.9715 0.46468 0.18742 0.0
C942 C 0.97471 0.47656 0.21103 0.0
C943 C 0.96591 0.47254 0.23564 0.0
C944 C 0.95324 0.45823 0.23595 0.0
H945 H 0.90452 0.47408 0.20657 0.0
H946 H 0.92007 0.47366 0.23326 0.0
H947 H 0.92588 0.47594 0.19733 0.0
H948 H 0.95579 0.44231 0.1688 0.0
H949 H 0.97794 0.46756 0.16809 0.0
H950 H 0.18554 0.37771 0.74705 0.0
H951 H 0.15877 0.39442 0.7475 0.0
H952 H 0.16449 0.40599 0.83528 0.0
H953 H 0.19117 0.38922 0.83509 0.0
H954 H 0.12987 0.38686 0.77959 0.0
H955 H 0.15685 0.46262 0.80078 0.0
H956 H 0.169 0.44145 0.78944 0.0
H957 H 0.16279 0.44313 0.82524 0.0
C958 C 0.18103 0.3836 0.76653 0.0
C959 C 0.19061 0.38229 0.79099 0.0
C960 C 0.16574 0.39319 0.76673 0.0
C961 C 0.15974 0.40172 0.79132 0.0
C962 C 0.16902 0.39988 0.81593 0.0
H963 H 0.07861 0.48021 0.83086 0.0
H964 H 0.1006 0.4551 0.83362 0.0
C965 C 0.1843 0.39034 0.81576 0.0
C966 C 0.14405 0.41309 0.79113 0.0
H967 H 0.12801 0.46007 0.80217 0.0
C968 C 0.12943 0.40288 0.78448 0.0
C969 C 0.14351 0.434 0.7974 0.0
C970 C 0.15887 0.44604 0.80337 0.0
C971 C 0.11424 0.41295 0.78454 0.0
C972 C 0.11372 0.43384 0.79102 0.0
C973 C 0.12837 0.44401 0.79749 0.0
C974 C 0.09829 0.44582 0.79065 0.0
C975 C 0.09887 0.40109 0.77822 0.0
C976 C 0.08923 0.44842 0.76588 0.0
C977 C 0.07652 0.46266 0.76436 0.0
C978 C 0.07281 0.47469 0.7875 0.0
C979 C 0.0812 0.47111 0.81274 0.0
C980 C 0.0938 0.45683 0.81429 0.0
H981 H 0.10071 0.38452 0.78144 0.0
H982 H 0.08854 0.40608 0.79145 0.0
H983 H 0.09538 0.40367 0.75608 0.0
H984 H 0.09264 0.44042 0.74721 0.0
H985 H 0.07045 0.46535 0.74453 0.0
H986 H 0.18251 0.64575 0.26714 0.0
H987 H 0.15751 0.6255 0.26231 0.0
H988 H 0.15104 0.64843 0.17843 0.0
H989 H 0.17606 0.6687 0.18308 0.0
H990 H 0.12569 0.63789 0.2515 0.0
H991 H 0.14777 0.58743 0.16776 0.0
H992 H 0.16141 0.6034 0.18756 0.0
H993 H 0.14925 0.61405 0.1597 0.0
C994 C 0.17576 0.64651 0.24767 0.0
C995 C 0.18134 0.65879 0.22545 0.0
C996 C 0.16148 0.6349 0.24492 0.0
C997 C 0.15249 0.63525 0.2199 0.0
C998 C 0.15795 0.64757 0.19773 0.0
H999 H 0.06667 0.56436 0.16963 0.0
H1000 H 0.08685 0.59191 0.17266 0.0
C1001 C 0.17228 0.65913 0.20041 0.0
C1002 C 0.13731 0.62285 0.21726 0.0
H1003 H 0.12006 0.58394 0.18084 0.0
C1004 C 0.12444 0.62612 0.23601 0.0
C1005 C 0.13566 0.60754 0.19697 0.0
C1006 C 0.14929 0.60272 0.17699 0.0
C1007 C 0.11001 0.61445 0.2351 0.0
C1008 C 0.10848 0.59892 0.21513 0.0
C1009 C 0.1212 0.59594 0.19602 0.0
C1010 C 0.0944 0.58457 0.21488 0.0
C1011 C 0.0965 0.61887 0.25548 0.0
C1012 C 0.09164 0.57164 0.23784 0.0
C1013 C 0.0801 0.55598 0.23619 0.0
C1014 C 0.07112 0.55288 0.21149 0.0
C1015 C 0.07323 0.56654 0.18906 0.0
C1016 C 0.08485 0.58217 0.19068 0.0
H1017 H 0.09734 0.63462 0.26337 0.0
H1018 H 0.08425 0.61664 0.24579 0.0
H1019 H 0.09758 0.60834 0.27362 0.0
H1020 H 0.09904 0.57294 0.25655 0.0
H1021 H 0.07876 0.54565 0.25377 0.0
H1022 H 0.81101 0.80814 0.66565 0.0
H1023 H 0.80744 0.8402 0.64039 0.0
H1024 H 0.7671 0.85549 0.69381 0.0
H1025 H 0.77095 0.82368 0.71992 0.0
H1026 H 0.77995 0.85273 0.61141 0.0
H1027 H 0.79547 0.90698 0.69543 0.0
H1028 H 0.80038 0.88032 0.69779 0.0
H1029 H 0.77982 0.88873 0.70392 0.0
C1030 C 0.80156 0.81845 0.6724 0.0
C1031 C 0.79134 0.81336 0.69496 0.0
C1032 C 0.79946 0.83672 0.65779 0.0
C1033 C 0.78714 0.85035 0.66542 0.0
C1034 C 0.77687 0.84536 0.68787 0.0
H1035 H 0.75685 0.94594 0.54839 0.0
H1036 H 0.75578 0.91934 0.58445 0.0
C1037 C 0.77897 0.82705 0.70255 0.0
C1038 C 0.78473 0.86932 0.64896 0.0
H1039 H 0.78639 0.92108 0.65245 0.0
C1040 C 0.78127 0.86767 0.6204 0.0
C1041 C 0.78659 0.88879 0.66074 0.0
C1042 C 0.79091 0.89143 0.6911 0.0
C1043 C 0.77981 0.88493 0.60319 0.0
C1044 C 0.78152 0.90443 0.61497 0.0
C1045 C 0.78487 0.90612 0.64358 0.0
C1046 C 0.78105 0.92304 0.5973 0.0
C1047 C 0.77704 0.88208 0.57232 0.0
C1048 C 0.79528 0.93479 0.59386 0.0
C1049 C 0.79587 0.95011 0.57347 0.0
C1050 C 0.78224 0.95389 0.55617 0.0
C1051 C 0.76759 0.9432 0.56123 0.0
C1052 C 0.76699 0.92796 0.58172 0.0
H1053 H 0.77959 0.86627 0.56583 0.0
H1054 H 0.76407 0.88549 0.56715 0.0
H1055 H 0.78491 0.89255 0.55996 0.0
H1056 H 0.80625 0.93127 0.60575 0.0
H1057 H 0.80737 0.95795 0.56992 0.0
H1058 H 0.69737 0.35481 0.14765 0.0
H1059 H 0.67101 0.36419 0.12671 0.0
H1060 H 0.64684 0.31852 0.17693 0.0
H1061 H 0.67297 0.30962 0.19871 0.0
H1062 H 0.65209 0.33958 0.09571 0.0
H1063 H 0.61607 0.366 0.18569 0.0
H1064 H 0.63805 0.36306 0.18712 0.0
H1065 H 0.62483 0.34137 0.19157 0.0
C1066 C 0.68639 0.3471 0.15475 0.0
C1067 C 0.68733 0.33139 0.17479 0.0
C1068 C 0.67134 0.35241 0.14264 0.0
C1069 C 0.65689 0.34224 0.15046 0.0
C1070 C 0.65773 0.3269 0.17094 0.0
H1071 H 0.5728 0.32447 0.04474 0.0
H1072 H 0.5951 0.32054 0.0787 0.0
C1073 C 0.67275 0.32161 0.18308 0.0
C1074 C 0.64125 0.34629 0.13537 0.0
H1075 H 0.60077 0.35779 0.14438 0.0
C1076 C 0.64093 0.34375 0.10637 0.0
C1077 C 0.62667 0.35189 0.1492 0.0
C1078 C 0.62642 0.35594 0.18007 0.0
C1079 C 0.6264 0.34607 0.09095 0.0
C1080 C 0.61167 0.35069 0.10494 0.0
C1081 C 0.61202 0.35389 0.1338 0.0
C1082 C 0.59593 0.3523 0.08949 0.0
C1083 C 0.62695 0.34361 0.0597 0.0
C1084 C 0.58828 0.37121 0.08577 0.0
C1085 C 0.57539 0.37344 0.06657 0.0
C1086 C 0.57003 0.35679 0.05086 0.0
C1087 C 0.57673 0.33754 0.05656 0.0
C1088 C 0.58952 0.33531 0.07579 0.0
H1089 H 0.63963 0.34497 0.05157 0.0
H1090 H 0.62221 0.32836 0.05426 0.0
H1091 H 0.61917 0.35514 0.04902 0.0
H1092 H 0.59302 0.38449 0.09623 0.0
H1093 H 0.57058 0.38848 0.06236 0.0
H1094 H 0.28221 0.21273 0.68357 0.0
H1095 H 0.28496 0.18075 0.65852 0.0
H1096 H 0.2326 0.1725 0.6604 0.0
H1097 H 0.22969 0.2041 0.68613 0.0
H1098 H 0.27049 0.13818 0.67427 0.0
H1099 H 0.24848 0.17356 0.57499 0.0
H1100 H 0.25716 0.18833 0.60295 0.0
H1101 H 0.23679 0.1783 0.60596 0.0
C1102 C 0.27128 0.20397 0.67912 0.0
C1103 C 0.2557 0.2111 0.68674 0.0
C1104 C 0.2729 0.18573 0.66473 0.0
C1105 C 0.25898 0.17439 0.65755 0.0
C1106 C 0.24347 0.18116 0.66563 0.0
H1107 H 0.24372 0.07698 0.54102 0.0
H1108 H 0.23997 0.10214 0.57757 0.0
C1109 C 0.24184 0.19931 0.68013 0.0
C1110 C 0.26055 0.15601 0.64037 0.0
H1111 H 0.25387 0.13858 0.57465 0.0
C1112 C 0.26687 0.13817 0.65248 0.0
C1113 C 0.25577 0.15614 0.61205 0.0
C1114 C 0.24925 0.17509 0.59801 0.0
C1115 C 0.26831 0.12028 0.63697 0.0
C1116 C 0.26363 0.12044 0.6085 0.0
C1117 C 0.25735 0.13837 0.59651 0.0
C1118 C 0.26546 0.10251 0.59026 0.0
C1119 C 0.27449 0.10131 0.65137 0.0
C1120 C 0.28092 0.09382 0.58585 0.0
C1121 C 0.28301 0.0792 0.56523 0.0
C1122 C 0.26973 0.07331 0.5484 0.0
C1123 C 0.25413 0.08125 0.55378 0.0
C1124 C 0.25201 0.09566 0.57457 0.0
H1125 H 0.27263 0.10191 0.67428 0.0
H1126 H 0.26828 0.08756 0.64325 0.0
H1127 H 0.28783 0.09984 0.64761 0.0
H1128 H 0.29156 0.09917 0.59717 0.0
H1129 H 0.29521 0.07356 0.56115 0.0
H1130 H 0.35143 0.64529 0.16084 0.0
H1131 H 0.37925 0.6423 0.14268 0.0
H1132 H 0.38537 0.70716 0.14722 0.0
H1133 H 0.35745 0.71042 0.16475 0.0
H1134 H 0.39048 0.66174 0.09275 0.0
H1135 H 0.42757 0.68431 0.18475 0.0
H1136 H 0.4065 0.67604 0.18749 0.0
H1137 H 0.41118 0.70128 0.17541 0.0
C1138 C 0.35865 0.65896 0.15794 0.0
C1139 C 0.35211 0.67812 0.16423 0.0
C1140 C 0.37461 0.65718 0.14778 0.0
C1141 C 0.38446 0.67447 0.14399 0.0
C1142 C 0.37811 0.69357 0.15058 0.0
H1143 H 0.47534 0.70307 0.06186 0.0
H1144 H 0.45203 0.70209 0.09389 0.0
C1145 C 0.36212 0.69539 0.16062 0.0
C1146 C 0.40086 0.67268 0.13104 0.0
H1147 H 0.44172 0.68136 0.14174 0.0
C1148 C 0.40171 0.66582 0.10353 0.0
C1149 C 0.41545 0.67822 0.1451 0.0
C1150 C 0.41524 0.68523 0.17491 0.0
C1151 C 0.41669 0.66483 0.0894 0.0
C1152 C 0.43135 0.67027 0.10346 0.0
C1153 C 0.43052 0.67703 0.13108 0.0
C1154 C 0.44744 0.66995 0.0891 0.0
C1155 C 0.41655 0.65871 0.05914 0.0
C1156 C 0.45324 0.65199 0.07718 0.0
C1157 C 0.46646 0.65256 0.05879 0.0
C1158 C 0.47434 0.67103 0.05249 0.0
C1159 C 0.4696 0.68861 0.06663 0.0
C1160 C 0.45622 0.68807 0.08477 0.0
H1161 H 0.40415 0.66014 0.04967 0.0
H1162 H 0.42522 0.66814 0.04674 0.0
H1163 H 0.42034 0.64261 0.05759 0.0
H1164 H 0.44691 0.63774 0.08078 0.0
H1165 H 0.46989 0.63882 0.0481 0.0
H1166 H 0.815 0.19539 0.2871 0.0
H1167 H 0.81266 0.16309 0.31243 0.0
H1168 H 0.76627 0.18188 0.34594 0.0
H1169 H 0.76857 0.21429 0.32092 0.0
H1170 H 0.81064 0.15941 0.37004 0.0
H1171 H 0.7565 0.12401 0.31974 0.0
H1172 H 0.76763 0.14488 0.30398 0.0
H1173 H 0.75316 0.1495 0.33128 0.0
C1174 C 0.80426 0.19264 0.29979 0.0
C1175 C 0.79199 0.20748 0.30204 0.0
C1176 C 0.8029 0.17411 0.31409 0.0
C1177 C 0.78919 0.16996 0.33075 0.0
C1178 C 0.77677 0.18455 0.33266 0.0
H1179 H 0.76302 0.08559 0.45993 0.0
H1180 H 0.76313 0.10994 0.42107 0.0
C1181 C 0.77812 0.20311 0.31838 0.0
C1182 C 0.78861 0.15118 0.34808 0.0
H1183 H 0.76565 0.10895 0.36261 0.0
C1184 C 0.80093 0.14823 0.36818 0.0
C1185 C 0.77585 0.13672 0.34571 0.0
C1186 C 0.7626 0.13878 0.32385 0.0
C1187 C 0.80058 0.13157 0.38663 0.0
C1188 C 0.78775 0.11716 0.38446 0.0
C1189 C 0.77553 0.11993 0.36408 0.0
C1190 C 0.78633 0.09997 0.40456 0.0
C1191 C 0.81358 0.13006 0.40907 0.0
C1192 C 0.79891 0.08557 0.40729 0.0
C1193 C 0.79896 0.07177 0.42967 0.0
C1194 C 0.78636 0.07204 0.44955 0.0
C1195 C 0.77305 0.08525 0.44523 0.0
C1196 C 0.77305 0.09911 0.42296 0.0
H1197 H 0.82025 0.14463 0.41179 0.0
H1198 H 0.80813 0.12553 0.42937 0.0
H1199 H 0.82265 0.11835 0.40325 0.0
H1200 H 0.80911 0.08572 0.39296 0.0
H1201 H 0.80943 0.06186 0.4324 0.0
H1202 H 0.3599 0.35893 0.80743 0.0
H1203 H 0.38651 0.36812 0.82781 0.0
H1204 H 0.38994 0.30874 0.86605 0.0
H1205 H 0.36347 0.29951 0.846 0.0
H1206 H 0.39616 0.36917 0.88321 0.0
H1207 H 0.4338 0.31371 0.8264 0.0
H1208 H 0.41312 0.32 0.816 0.0
H1209 H 0.41676 0.30202 0.84386 0.0
C1210 C 0.3663 0.34788 0.82029 0.0
C1211 C 0.35962 0.3284 0.82483 0.0
C1212 C 0.38155 0.3531 0.83176 0.0
C1213 C 0.39042 0.33894 0.84787 0.0
C1214 C 0.38358 0.3197 0.85297 0.0
H1215 H 0.46841 0.32955 0.96289 0.0
H1216 H 0.4473 0.32478 0.92717 0.0
C1217 C 0.3684 0.31447 0.84153 0.0
C1218 C 0.40649 0.34438 0.86047 0.0
H1219 H 0.446 0.32798 0.86752 0.0
C1220 C 0.40715 0.36044 0.87941 0.0
C1221 C 0.42084 0.33301 0.85539 0.0
C1222 C 0.42117 0.31635 0.83408 0.0
C1223 C 0.42149 0.36464 0.89465 0.0
C1224 C 0.43563 0.35266 0.89047 0.0
C1225 C 0.43516 0.33715 0.87068 0.0
C1226 C 0.45033 0.35462 0.90861 0.0
C1227 C 0.42114 0.38114 0.91621 0.0
C1228 C 0.45961 0.37261 0.90913 0.0
C1229 C 0.47177 0.37532 0.9295 0.0
C1230 C 0.47477 0.36008 0.94961 0.0
C1231 C 0.4663 0.34154 0.94766 0.0
C1232 C 0.45424 0.33882 0.9273 0.0
H1233 H 0.40852 0.38666 0.92008 0.0
H1234 H 0.42644 0.37559 0.93625 0.0
H1235 H 0.42864 0.39419 0.90887 0.0
H1236 H 0.45694 0.38488 0.8946 0.0
H1237 H 0.47803 0.38981 0.93067 0.0
H1238 H 0.24779 0.81998 0.30456 0.0
H1239 H 0.24498 0.85073 0.33228 0.0
H1240 H 0.29637 0.86361 0.3216 0.0
H1241 H 0.29943 0.83275 0.29448 0.0
H1242 H 0.26277 0.85881 0.38238 0.0
H1243 H 0.27375 0.91814 0.3015 0.0
H1244 H 0.26811 0.89239 0.29304 0.0
H1245 H 0.28883 0.89832 0.30288 0.0
C1246 C 0.25851 0.82932 0.30811 0.0
C1247 C 0.27384 0.82385 0.2972 0.0
C1248 C 0.25684 0.84697 0.32378 0.0
C1249 C 0.27041 0.8596 0.3286 0.0
C1250 C 0.28567 0.85433 0.31756 0.0
H1251 H 0.29599 0.96005 0.43277 0.0
H1252 H 0.2938 0.93501 0.39559 0.0
C1253 C 0.28737 0.83666 0.30202 0.0
C1254 C 0.26893 0.87749 0.34687 0.0
H1255 H 0.27415 0.92892 0.34876 0.0
C1256 C 0.26505 0.87418 0.375 0.0
C1257 C 0.27204 0.89747 0.33716 0.0
C1258 C 0.27579 0.9019 0.30694 0.0
C1259 C 0.26474 0.89023 0.39395 0.0
C1260 C 0.26796 0.91025 0.38433 0.0
C1261 C 0.2716 0.9136 0.35607 0.0
C1262 C 0.26841 0.92764 0.40371 0.0
C1263 C 0.26164 0.88544 0.42434 0.0
C1264 C 0.25463 0.93253 0.41967 0.0
C1265 C 0.25588 0.94676 0.44097 0.0
C1266 C 0.27086 0.95657 0.44639 0.0
C1267 C 0.28427 0.95285 0.42893 0.0
C1268 C 0.28305 0.93847 0.40778 0.0
H1269 H 0.26346 0.86908 0.42926 0.0
H1270 H 0.26986 0.89445 0.43798 0.0
H1271 H 0.24879 0.88931 0.42945 0.0
H1272 H 0.2431 0.92474 0.41641 0.0
H1273 H 0.24531 0.94951 0.45395 0.0
H1274 H 0.67749 0.71994 0.8208 0.0
H1275 H 0.65164 0.71149 0.84361 0.0
H1276 H 0.66884 0.65062 0.85948 0.0
H1277 H 0.69482 0.65895 0.83655 0.0
H1278 H 0.62795 0.68178 0.83238 0.0
H1279 H 0.65626 0.6702 0.93701 0.0
H1280 H 0.66712 0.68204 0.90846 0.0
H1281 H 0.66466 0.65494 0.90982 0.0
C1282 C 0.67574 0.70466 0.82883 0.0
C1283 C 0.68828 0.69013 0.82688 0.0
C1284 C 0.66095 0.69988 0.84195 0.0
C1285 C 0.65837 0.68051 0.85353 0.0
C1286 C 0.67069 0.66579 0.85114 0.0
H1287 H 0.5801 0.63885 0.96326 0.0
H1288 H 0.60203 0.63852 0.92865 0.0
C1289 C 0.68553 0.67058 0.83807 0.0
C1290 C 0.64292 0.67603 0.86871 0.0
H1291 H 0.62788 0.66463 0.9333 0.0
C1292 C 0.62792 0.67791 0.85442 0.0
C1293 C 0.64289 0.671 0.89746 0.0
C1294 C 0.65856 0.66957 0.91423 0.0
C1295 C 0.61289 0.67499 0.86816 0.0
C1296 C 0.61288 0.67037 0.89702 0.0
C1297 C 0.62789 0.66805 0.91113 0.0
C1298 C 0.59757 0.6691 0.91364 0.0
C1299 C 0.59719 0.67684 0.85164 0.0
C1300 C 0.58738 0.68613 0.91602 0.0
C1301 C 0.57478 0.68632 0.93573 0.0
C1302 C 0.57228 0.66954 0.9536 0.0
C1303 C 0.58177 0.65201 0.94983 0.0
C1304 C 0.59432 0.65182 0.93011 0.0
H1305 H 0.59924 0.67411 0.82911 0.0
H1306 H 0.58779 0.66597 0.85939 0.0
H1307 H 0.59231 0.69244 0.85376 0.0
H1308 H 0.58983 0.69979 0.90398 0.0
H1309 H 0.56788 0.70016 0.93842 0.0
loop_
_geom_bond_atom_site_label_1
_geom_bond_atom_site_label_2
_geom_bond_distance
_geom_bond_site_symmetry_2
_ccdc_geom_bond_type
C0 C1 1.264 . S
C0 C5 1.479 . S
C0 C10 1.465 . S
C1 C0 1.264 . S
C1 C3 1.339 . S
C1 H28 0.931 . S
C2 C3 1.395 . S
C2 C4 1.320 . S
C3 C1 1.339 . S
C3 C2 1.395 . S
C3 H29 0.929 . S
C4 C2 1.320 . S
C4 C5 1.405 . S
C4 H30 0.930 . S
C5 C0 1.479 . S
C5 C4 1.405 . S
C5 H31 0.931 . S
U6 O7 2.454 . S
U6 O8 2.458 . S
U6 C9 2.984 . S
U6 C10 2.847 . S
U6 C23 2.882 . S
U6 O24 2.441 . S
U6 O25 2.420 . S
U6 O26 2.455 . S
U6 O27 2.449 . S
O7 U6 2.454 . S
O7 C9 1.353 . S
O8 U6 2.458 . S
O8 C9 1.286 . S
C9 U6 2.984 . S
C9 O7 1.353 . S
C9 O8 1.286 . S
C9 C11 1.363 . S
C10 C0 1.465 . S
C10 U6 2.847 . S
C10 O24 1.249 . S
C10 O25 1.202 . S
C11 C9 1.363 . S
C11 C13 1.408 . S
C11 C16 1.342 . S
C12 C13 1.310 . S
C12 C15 1.461 . S
C12 H32 0.932 . S
C13 C11 1.408 . S
C13 C12 1.310 . S
C13 H33 0.930 . S
C14 C15 1.474 . S
C14 C16 1.285 . S
C14 H34 0.929 . S
C15 C12 1.461 . S
C15 C14 1.474 . S
C16 C11 1.342 . S
C16 C14 1.285 . S
C16 H35 0.930 . S
C17 C20 1.424 . S
C17 C22 1.245 . S
C17 C23 1.428 . S
C18 C21 1.260 . S
C18 C22 1.477 . S
C18 H36 0.932 . S
C19 C20 1.384 . S
C19 C21 1.479 . S
C19 H37 0.929 . S
C20 C17 1.424 . S
C20 C19 1.384 . S
C20 H38 0.928 . S
C21 C18 1.260 . S
C21 C19 1.479 . S
C22 C17 1.245 . S
C22 C18 1.477 . S
C22 H39 0.932 . S
C23 U6 2.882 . S
C23 C17 1.428 . S
C23 O26 1.301 . S
C23 O27 1.282 . S
O24 U6 2.441 . S
O24 C10 1.249 . S
O25 U6 2.420 . S
O25 C10 1.202 . S
O26 U6 2.455 . S
O26 C23 1.301 . S
O27 U6 2.449 . S
O27 C23 1.282 . S
H28 C1 0.931 . S
H29 C3 0.929 . S
H30 C4 0.930 . S
H31 C5 0.931 . S
H32 C12 0.932 . S
H33 C13 0.930 . S
H34 C14 0.929 . S
H35 C16 0.930 . S
H36 C18 0.932 . S
H37 C19 0.929 . S
H38 C20 0.928 . S
H39 C22 0.932 . S
C40 C41 1.264 . S
C40 C45 1.479 . S
C40 C50 1.465 . S
C41 C40 1.264 . S
C41 C43 1.339 . S
C41 H68 0.931 . S
C42 C43 1.395 . S
C42 C44 1.320 . S
C43 C41 1.339 . S
C43 C42 1.395 . S
C43 H69 0.929 . S
C44 C42 1.320 . S
C44 C45 1.405 . S
C44 H70 0.930 . S
C45 C40 1.479 . S
C45 C44 1.405 . S
C45 H71 0.931 . S
U46 O47 2.454 . S
U46 O48 2.458 . S
U46 C49 2.984 . S
U46 C50 2.847 . S
U46 C63 2.882 . S
U46 O64 2.441 . S
U46 O65 2.420 . S
U46 O66 2.455 . S
U46 O67 2.449 . S
O47 U46 2.454 . S
O47 C49 1.353 . S
O48 U46 2.458 . S
O48 C49 1.286 . S
C49 U46 2.984 . S
C49 O47 1.353 . S
C49 O48 1.286 . S
C49 C51 1.363 . S
C50 C40 1.465 . S
C50 U46 2.847 . S
C50 O64 1.249 . S
C50 O65 1.202 . S
C51 C49 1.363 . S
C51 C53 1.408 . S
C51 C56 1.342 . S
C52 C53 1.310 . S
C52 C55 1.461 . S
C52 H72 0.932 . S
C53 C51 1.408 . S
C53 C52 1.310 . S
C53 H73 0.930 . S
C54 C55 1.474 . S
C54 C56 1.285 . S
C54 H74 0.929 . S
C55 C52 1.461 . S
C55 C54 1.474 . S
C56 C51 1.342 . S
C56 C54 1.285 . S
C56 H75 0.930 . S
C57 C60 1.424 . S
C57 C62 1.245 . S
C57 C63 1.428 . S
C58 C61 1.260 . S
C58 C62 1.477 . S
C58 H76 0.932 . S
C59 C60 1.384 . S
C59 C61 1.479 . S
C59 H77 0.929 . S
C60 C57 1.424 . S
C60 C59 1.384 . S
C60 H78 0.928 . S
C61 C58 1.260 . S
C61 C59 1.479 . S
C62 C57 1.245 . S
C62 C58 1.477 . S
C62 H79 0.932 . S
C63 U46 2.882 . S
C63 C57 1.428 . S
C63 O66 1.301 . S
C63 O67 1.282 . S
O64 U46 2.441 . S
O64 C50 1.249 . S
O65 U46 2.420 . S
O65 C50 1.202 . S
O66 U46 2.455 . S
O66 C63 1.301 . S
O67 U46 2.449 . S
O67 C63 1.282 . S
H68 C41 0.931 . S
H69 C43 0.929 . S
H70 C44 0.930 . S
H71 C45 0.931 . S
H72 C52 0.932 . S
H73 C53 0.930 . S
H74 C54 0.929 . S
H75 C56 0.930 . S
H76 C58 0.932 . S
H77 C59 0.929 . S
H78 C60 0.928 . S
H79 C62 0.932 . S
C80 C81 1.264 . S
C80 C85 1.479 . S
C80 C90 1.465 . S
C81 C80 1.264 . S
C81 C83 1.339 . S
C81 H108 0.931 . S
C82 C83 1.395 . S
C82 C84 1.320 . S
C83 C81 1.339 . S
C83 C82 1.395 . S
C83 H109 0.929 . S
C84 C82 1.320 . S
C84 C85 1.405 . S
C84 H110 0.930 . S
C85 C80 1.479 . S
C85 C84 1.405 . S
C85 H111 0.931 . S
U86 O87 2.454 . S
U86 O88 2.458 . S
U86 C89 2.984 . S
U86 C90 2.847 . S
U86 C103 2.882 . S
U86 O104 2.441 . S
U86 O105 2.420 . S
U86 O106 2.455 . S
U86 O107 2.449 . S
O87 U86 2.454 . S
O87 C89 1.353 . S
O88 U86 2.458 . S
O88 C89 1.286 . S
C89 U86 2.984 . S
C89 O87 1.353 . S
C89 O88 1.286 . S
C89 C91 1.363 . S
C90 C80 1.465 . S
C90 U86 2.847 . S
C90 O104 1.249 . S
C90 O105 1.202 . S
C91 C89 1.363 . S
C91 C93 1.408 . S
C91 C96 1.342 . S
C92 C93 1.310 . S
C92 C95 1.461 . S
C92 H112 0.932 . S
C93 C91 1.408 . S
C93 C92 1.310 . S
C93 H113 0.930 . S
C94 C95 1.474 . S
C94 C96 1.285 . S
C94 H114 0.929 . S
C95 C92 1.461 . S
C95 C94 1.474 . S
C96 C91 1.342 . S
C96 C94 1.285 . S
C96 H115 0.930 . S
C97 C100 1.424 . S
C97 C102 1.245 . S
C97 C103 1.428 . S
C98 C101 1.260 . S
C98 C102 1.477 . S
C98 H116 0.932 . S
C99 C100 1.384 . S
C99 C101 1.479 . S
C99 H117 0.929 . S
C100 C97 1.424 . S
C100 C99 1.384 . S
C100 H118 0.928 . S
C101 C98 1.260 . S
C101 C99 1.479 . S
C102 C97 1.245 . S
C102 C98 1.477 . S
C102 H119 0.932 . S
C103 U86 2.882 . S
C103 C97 1.428 . S
C103 O106 1.301 . S
C103 O107 1.282 . S
O104 U86 2.441 . S
O104 C90 1.249 . S
O105 U86 2.420 . S
O105 C90 1.202 . S
O106 U86 2.455 . S
O106 C103 1.301 . S
O107 U86 2.449 . S
O107 C103 1.282 . S
H108 C81 0.931 . S
H109 C83 0.929 . S
H110 C84 0.930 . S
H111 C85 0.931 . S
H112 C92 0.932 . S
H113 C93 0.930 . S
H114 C94 0.929 . S
H115 C96 0.930 . S
H116 C98 0.932 . S
H117 C99 0.929 . S
H118 C100 0.928 . S
H119 C102 0.932 . S
C120 C121 1.264 . S
C120 C125 1.479 . S
C120 C130 1.465 . S
C121 C120 1.264 . S
C121 C123 1.339 . S
C121 H148 0.931 . S
C122 C123 1.395 . S
C122 C124 1.320 . S
C123 C121 1.339 . S
C123 C122 1.395 . S
C123 H149 0.929 . S
C124 C122 1.320 . S
C124 C125 1.405 . S
C124 H150 0.930 . S
C125 C120 1.479 . S
C125 C124 1.405 . S
C125 H151 0.931 . S
U126 O127 2.454 . S
U126 O128 2.458 . S
U126 C129 2.984 . S
U126 C130 2.847 . S
U126 C143 2.882 . S
U126 O144 2.441 . S
U126 O145 2.420 . S
U126 O146 2.455 . S
U126 O147 2.449 . S
O127 U126 2.454 . S
O127 C129 1.353 . S
O128 U126 2.458 . S
O128 C129 1.286 . S
C129 U126 2.984 . S
C129 O127 1.353 . S
C129 O128 1.286 . S
C129 C131 1.363 . S
C130 C120 1.465 . S
C130 U126 2.847 . S
C130 O144 1.249 . S
C130 O145 1.202 . S
C131 C129 1.363 . S
C131 C133 1.408 . S
C131 C136 1.342 . S
C132 C133 1.310 . S
C132 C135 1.461 . S
C132 H152 0.932 . S
C133 C131 1.408 . S
C133 C132 1.310 . S
C133 H153 0.930 . S
C134 C135 1.474 . S
C134 C136 1.285 . S
C134 H154 0.929 . S
C135 C132 1.461 . S
C135 C134 1.474 . S
C136 C131 1.342 . S
C136 C134 1.285 . S
C136 H155 0.930 . S
C137 C140 1.424 . S
C137 C142 1.245 . S
C137 C143 1.428 . S
C138 C141 1.260 . S
C138 C142 1.477 . S
C138 H156 0.932 . S
C139 C140 1.384 . S
C139 C141 1.479 . S
C139 H157 0.929 . S
C140 C137 1.424 . S
C140 C139 1.384 . S
C140 H158 0.928 . S
C141 C138 1.260 . S
C141 C139 1.479 . S
C142 C137 1.245 . S
C142 C138 1.477 . S
C142 H159 0.932 . S
C143 U126 2.882 . S
C143 C137 1.428 . S
C143 O146 1.301 . S
C143 O147 1.282 . S
O144 U126 2.441 . S
O144 C130 1.249 . S
O145 U126 2.420 . S
O145 C130 1.202 . S
O146 U126 2.455 . S
O146 C143 1.301 . S
O147 U126 2.449 . S
O147 C143 1.282 . S
H148 C121 0.931 . S
H149 C123 0.929 . S
H150 C124 0.930 . S
H151 C125 0.931 . S
H152 C132 0.932 . S
H153 C133 0.930 . S
H154 C134 0.929 . S
H155 C136 0.930 . S
H156 C138 0.932 . S
H157 C139 0.929 . S
H158 C140 0.928 . S
H159 C142 0.932 . S
C160 C161 1.264 . S
C160 C165 1.479 . S
C160 C170 1.465 . S
C161 C160 1.264 . S
C161 C163 1.339 . S
C161 H188 0.931 . S
C162 C163 1.395 . S
C162 C164 1.320 . S
C163 C161 1.339 . S
C163 C162 1.395 . S
C163 H189 0.929 . S
C164 C162 1.320 . S
C164 C165 1.405 . S
C164 H190 0.930 . S
C165 C160 1.479 . S
C165 C164 1.405 . S
C165 H191 0.931 . S
U166 O167 2.454 . S
U166 O168 2.458 . S
U166 C169 2.984 . S
U166 C170 2.847 . S
U166 C183 2.882 . S
U166 O184 2.441 . S
U166 O185 2.420 . S
U166 O186 2.455 . S
U166 O187 2.449 . S
O167 U166 2.454 . S
O167 C169 1.353 . S
O168 U166 2.458 . S
O168 C169 1.286 . S
C169 U166 2.984 . S
C169 O167 1.353 . S
C169 O168 1.286 . S
C169 C171 1.363 . S
C170 C160 1.465 . S
C170 U166 2.847 . S
C170 O184 1.249 . S
C170 O185 1.202 . S
C171 C169 1.363 . S
C171 C173 1.408 . S
C171 C176 1.342 . S
C172 C173 1.310 . S
C172 C175 1.461 . S
C172 H192 0.932 . S
C173 C171 1.408 . S
C173 C172 1.310 . S
C173 H193 0.930 . S
C174 C175 1.474 . S
C174 C176 1.285 . S
C174 H194 0.929 . S
C175 C172 1.461 . S
C175 C174 1.474 . S
C176 C171 1.342 . S
C176 C174 1.285 . S
C176 H195 0.930 . S
C177 C180 1.424 . S
C177 C182 1.245 . S
C177 C183 1.428 . S
C178 C181 1.260 . S
C178 C182 1.477 . S
C178 H196 0.932 . S
C179 C180 1.384 . S
C179 C181 1.479 . S
C179 H197 0.929 . S
C180 C177 1.424 . S
C180 C179 1.384 . S
C180 H198 0.928 . S
C181 C178 1.260 . S
C181 C179 1.479 . S
C182 C177 1.245 . S
C182 C178 1.477 . S
C182 H199 0.932 . S
C183 U166 2.882 . S
C183 C177 1.428 . S
C183 O186 1.301 . S
C183 O187 1.282 . S
O184 U166 2.441 . S
O184 C170 1.249 . S
O185 U166 2.420 . S
O185 C170 1.202 . S
O186 U166 2.455 . S
O186 C183 1.301 . S
O187 U166 2.449 . S
O187 C183 1.282 . S
H188 C161 0.931 . S
H189 C163 0.929 . S
H190 C164 0.930 . S
H191 C165 0.931 . S
H192 C172 0.932 . S
H193 C173 0.930 . S
H194 C174 0.929 . S
H195 C176 0.930 . S
H196 C178 0.932 . S
H197 C179 0.929 . S
H198 C180 0.928 . S
H199 C182 0.932 . S
C200 C201 1.264 . S
C200 C205 1.479 . S
C200 C210 1.465 . S
C201 C200 1.264 . S
C201 C203 1.339 . S
C201 H228 0.931 . S
C202 C203 1.395 . S
C202 C204 1.320 . S
C203 C201 1.339 . S
C203 C202 1.395 . S
C203 H229 0.929 . S
C204 C202 1.320 . S
C204 C205 1.405 . S
C204 H230 0.930 . S
C205 C200 1.479 . S
C205 C204 1.405 . S
C205 H231 0.931 . S
U206 O207 2.454 . S
U206 O208 2.458 . S
U206 C209 2.984 . S
U206 C210 2.847 . S
U206 C223 2.882 . S
U206 O224 2.441 . S
U206 O225 2.420 . S
U206 O226 2.455 . S
U206 O227 2.449 . S
O207 U206 2.454 . S
O207 C209 1.353 . S
O208 U206 2.458 . S
O208 C209 1.286 . S
C209 U206 2.984 . S
C209 O207 1.353 . S
C209 O208 1.286 . S
C209 C211 1.363 . S
C210 C200 1.465 . S
C210 U206 2.847 . S
C210 O224 1.249 . S
C210 O225 1.202 . S
C211 C209 1.363 . S
C211 C213 1.408 . S
C211 C216 1.342 . S
C212 C213 1.310 . S
C212 C215 1.461 . S
C212 H232 0.932 . S
C213 C211 1.408 . S
C213 C212 1.310 . S
C213 H233 0.930 . S
C214 C215 1.474 . S
C214 C216 1.285 . S
C214 H234 0.929 . S
C215 C212 1.461 . S
C215 C214 1.474 . S
C216 C211 1.342 . S
C216 C214 1.285 . S
C216 H235 0.930 . S
C217 C220 1.424 . S
C217 C222 1.245 . S
C217 C223 1.428 . S
C218 C221 1.260 . S
C218 C222 1.477 . S
C218 H236 0.932 . S
C219 C220 1.384 . S
C219 C221 1.479 . S
C219 H237 0.929 . S
C220 C217 1.424 . S
C220 C219 1.384 . S
C220 H238 0.928 . S
C221 C218 1.260 . S
C221 C219 1.479 . S
C222 C217 1.245 . S
C222 C218 1.477 . S
C222 H239 0.932 . S
C223 U206 2.882 . S
C223 C217 1.428 . S
C223 O226 1.301 . S
C223 O227 1.282 . S
O224 U206 2.441 . S
O224 C210 1.249 . S
O225 U206 2.420 . S
O225 C210 1.202 . S
O226 U206 2.455 . S
O226 C223 1.301 . S
O227 U206 2.449 . S
O227 C223 1.282 . S
H228 C201 0.931 . S
H229 C203 0.929 . S
H230 C204 0.930 . S
H231 C205 0.931 . S
H232 C212 0.932 . S
H233 C213 0.930 . S
H234 C214 0.929 . S
H235 C216 0.930 . S
H236 C218 0.932 . S
H237 C219 0.929 . S
H238 C220 0.928 . S
H239 C222 0.932 . S
C240 C241 1.264 . S
C240 C245 1.479 . S
C240 C250 1.465 . S
C241 C240 1.264 . S
C241 C243 1.339 . S
C241 H268 0.931 . S
C242 C243 1.395 . S
C242 C244 1.320 . S
C243 C241 1.339 . S
C243 C242 1.395 . S
C243 H269 0.929 . S
C244 C242 1.320 . S
C244 C245 1.405 . S
C244 H270 0.930 . S
C245 C240 1.479 . S
C245 C244 1.405 . S
C245 H271 0.931 . S
U246 O247 2.454 . S
U246 O248 2.458 . S
U246 C249 2.984 . S
U246 C250 2.847 . S
U246 C263 2.882 . S
U246 O264 2.441 . S
U246 O265 2.420 . S
U246 O266 2.455 . S
U246 O267 2.449 . S
O247 U246 2.454 . S
O247 C249 1.353 . S
O248 U246 2.458 . S
O248 C249 1.286 . S
C249 U246 2.984 . S
C249 O247 1.353 . S
C249 O248 1.286 . S
C249 C251 1.363 . S
C250 C240 1.465 . S
C250 U246 2.847 . S
C250 O264 1.249 . S
C250 O265 1.202 . S
C251 C249 1.363 . S
C251 C253 1.408 . S
C251 C256 1.342 . S
C252 C253 1.310 . S
C252 C255 1.461 . S
C252 H272 0.932 . S
C253 C251 1.408 . S
C253 C252 1.310 . S
C253 H273 0.930 . S
C254 C255 1.474 . S
C254 C256 1.285 . S
C254 H274 0.929 . S
C255 C252 1.461 . S
C255 C254 1.474 . S
C256 C251 1.342 . S
C256 C254 1.285 . S
C256 H275 0.930 . S
C257 C260 1.424 . S
C257 C262 1.245 . S
C257 C263 1.428 . S
C258 C261 1.260 . S
C258 C262 1.477 . S
C258 H276 0.932 . S
C259 C260 1.384 . S
C259 C261 1.479 . S
C259 H277 0.929 . S
C260 C257 1.424 . S
C260 C259 1.384 . S
C260 H278 0.928 . S
C261 C258 1.260 . S
C261 C259 1.479 . S
C262 C257 1.245 . S
C262 C258 1.477 . S
C262 H279 0.932 . S
C263 U246 2.882 . S
C263 C257 1.428 . S
C263 O266 1.301 . S
C263 O267 1.282 . S
O264 U246 2.441 . S
O264 C250 1.249 . S
O265 U246 2.420 . S
O265 C250 1.202 . S
O266 U246 2.455 . S
O266 C263 1.301 . S
O267 U246 2.449 . S
O267 C263 1.282 . S
H268 C241 0.931 . S
H269 C243 0.929 . S
H270 C244 0.930 . S
H271 C245 0.931 . S
H272 C252 0.932 . S
H273 C253 0.930 . S
H274 C254 0.929 . S
H275 C256 0.930 . S
H276 C258 0.932 . S
H277 C259 0.929 . S
H278 C260 0.928 . S
H279 C262 0.932 . S
C280 C281 1.264 . S
C280 C285 1.479 . S
C280 C290 1.465 . S
C281 C280 1.264 . S
C281 C283 1.339 . S
C281 H308 0.931 . S
C282 C283 1.395 . S
C282 C284 1.320 . S
C283 C281 1.339 . S
C283 C282 1.395 . S
C283 H309 0.929 . S
C284 C282 1.320 . S
C284 C285 1.405 . S
C284 H310 0.930 . S
C285 C280 1.479 . S
C285 C284 1.405 . S
C285 H311 0.931 . S
U286 O287 2.454 . S
U286 O288 2.458 . S
U286 C289 2.984 . S
U286 C290 2.847 . S
U286 C303 2.882 . S
U286 O304 2.441 . S
U286 O305 2.420 . S
U286 O306 2.455 . S
U286 O307 2.449 . S
O287 U286 2.454 . S
O287 C289 1.353 . S
O288 U286 2.458 . S
O288 C289 1.286 . S
C289 U286 2.984 . S
C289 O287 1.353 . S
C289 O288 1.286 . S
C289 C291 1.363 . S
C290 C280 1.465 . S
C290 U286 2.847 . S
C290 O304 1.249 . S
C290 O305 1.202 . S
C291 C289 1.363 . S
C291 C293 1.408 . S
C291 C296 1.342 . S
C292 C293 1.310 . S
C292 C295 1.461 . S
C292 H312 0.932 . S
C293 C291 1.408 . S
C293 C292 1.310 . S
C293 H313 0.930 . S
C294 C295 1.474 . S
C294 C296 1.285 . S
C294 H314 0.929 . S
C295 C292 1.461 . S
C295 C294 1.474 . S
C296 C291 1.342 . S
C296 C294 1.285 . S
C296 H315 0.930 . S
C297 C300 1.424 . S
C297 C302 1.245 . S
C297 C303 1.428 . S
C298 C301 1.260 . S
C298 C302 1.477 . S
C298 H316 0.932 . S
C299 C300 1.384 . S
C299 C301 1.479 . S
C299 H317 0.929 . S
C300 C297 1.424 . S
C300 C299 1.384 . S
C300 H318 0.928 . S
C301 C298 1.260 . S
C301 C299 1.479 . S
C302 C297 1.245 . S
C302 C298 1.477 . S
C302 H319 0.932 . S
C303 U286 2.882 . S
C303 C297 1.428 . S
C303 O306 1.301 . S
C303 O307 1.282 . S
O304 U286 2.441 . S
O304 C290 1.249 . S
O305 U286 2.420 . S
O305 C290 1.202 . S
O306 U286 2.455 . S
O306 C303 1.301 . S
O307 U286 2.449 . S
O307 C303 1.282 . S
H308 C281 0.931 . S
H309 C283 0.929 . S
H310 C284 0.930 . S
H311 C285 0.931 . S
H312 C292 0.932 . S
H313 C293 0.930 . S
H314 C294 0.929 . S
H315 C296 0.930 . S
H316 C298 0.932 . S
H317 C299 0.929 . S
H318 C300 0.928 . S
H319 C302 0.932 . S
H320 C328 0.930 . S
H321 C331 0.930 . S
H322 C333 0.930 . S
H323 C334 0.970 . S
H324 C334 0.970 . S
H325 C336 0.930 . S
H326 C338 0.930 . S
H327 C340 0.930 . S
C328 H320 0.930 . S
C328 C329 1.382 . S
C328 C330 1.426 . S
C329 C328 1.382 . S
C329 C333 1.389 . S
C330 C328 1.426 . S
C330 C331 1.375 . S
C330 C334 1.532 1_655 S
C331 H321 0.930 . S
C331 C330 1.375 . S
C331 C332 1.416 . S
C332 C331 1.416 . S
C332 C333 1.371 . S
C333 H322 0.930 . S
C333 C329 1.389 . S
C333 C332 1.371 . S
C334 H323 0.970 . S
C334 H324 0.970 . S
C334 C330 1.532 1_455 S
C334 C335 1.499 . S
C335 C334 1.499 . S
C335 C336 1.370 . S
C335 C340 1.415 . S
C336 H325 0.930 . S
C336 C335 1.370 . S
C336 C337 1.407 . S
C337 C336 1.407 . S
C337 C338 1.365 . S
C338 H326 0.930 . S
C338 C337 1.365 . S
C338 C339 1.393 . S
C339 C338 1.393 . S
C339 C340 1.387 . S
C340 H327 0.930 . S
C340 C335 1.415 . S
C340 C339 1.387 . S
H341 C349 0.930 . S
H342 C352 0.930 . S
H343 C354 0.930 . S
H344 C355 0.970 . S
H345 C355 0.970 . S
H346 C357 0.930 . S
H347 C359 0.930 . S
H348 C361 0.930 . S
C349 H341 0.930 . S
C349 C350 1.382 . S
C349 C351 1.426 . S
C350 C349 1.382 . S
C350 C354 1.389 . S
C351 C349 1.426 . S
C351 C352 1.375 . S
C351 C355 1.532 . S
C352 H342 0.930 . S
C352 C351 1.375 . S
C352 C353 1.416 . S
C353 C352 1.416 . S
C353 C354 1.371 . S
C354 H343 0.930 . S
C354 C350 1.389 . S
C354 C353 1.371 . S
C355 H344 0.970 . S
C355 H345 0.970 . S
C355 C351 1.532 . S
C355 C356 1.499 1_455 S
C356 C355 1.499 1_655 S
C356 C357 1.370 . S
C356 C361 1.415 . S
C357 H346 0.930 . S
C357 C356 1.370 . S
C357 C358 1.407 . S
C358 C357 1.407 . S
C358 C359 1.365 . S
C359 H347 0.930 . S
C359 C358 1.365 . S
C359 C360 1.393 . S
C360 C359 1.393 . S
C360 C361 1.387 . S
C361 H348 0.930 . S
C361 C356 1.415 . S
C361 C360 1.387 . S
H362 C370 0.930 . S
H363 C373 0.930 . S
H364 C375 0.930 . S
H365 C376 0.970 . S
H366 C376 0.970 . S
H367 C378 0.930 . S
H368 C380 0.930 . S
H369 C382 0.930 . S
C370 H362 0.930 . S
C370 C371 1.382 . S
C370 C372 1.426 . S
C371 C370 1.382 . S
C371 C375 1.389 . S
C372 C370 1.426 . S
C372 C373 1.375 . S
C372 C376 1.532 . S
C373 H363 0.930 . S
C373 C372 1.375 . S
C373 C374 1.416 . S
C374 C373 1.416 . S
C374 C375 1.371 . S
C375 H364 0.930 . S
C375 C371 1.389 . S
C375 C374 1.371 . S
C376 H365 0.970 . S
C376 H366 0.970 . S
C376 C372 1.532 . S
C376 C377 1.499 1_545 S
C377 C376 1.499 1_565 S
C377 C378 1.370 . S
C377 C382 1.415 . S
C378 H367 0.930 . S
C378 C377 1.370 . S
C378 C379 1.407 . S
C379 C378 1.407 . S
C379 C380 1.365 . S
C380 H368 0.930 . S
C380 C379 1.365 . S
C380 C381 1.393 . S
C381 C380 1.393 . S
C381 C382 1.387 . S
C382 H369 0.930 . S
C382 C377 1.415 . S
C382 C381 1.387 . S
H383 C391 0.930 . S
H384 C394 0.930 . S
H385 C396 0.930 . S
H386 C397 0.970 1_556 S
H387 C397 0.970 . S
H388 C399 0.930 . S
H389 C401 0.930 . S
H390 C403 0.930 . S
C391 H383 0.930 . S
C391 C392 1.382 . S
C391 C393 1.426 1_556 S
C392 C391 1.382 . S
C392 C396 1.389 1_556 S
C393 C391 1.426 1_554 S
C393 C394 1.375 . S
C393 C397 1.532 . S
C394 H384 0.930 . S
C394 C393 1.375 . S
C394 C395 1.416 . S
C395 C394 1.416 . S
C395 C396 1.371 . S
C396 H385 0.930 . S
C396 C392 1.389 1_554 S
C396 C395 1.371 . S
C397 H386 0.970 1_554 S
C397 H387 0.970 . S
C397 C393 1.532 . S
C397 C398 1.499 . S
C398 C397 1.499 . S
C398 C399 1.370 1_554 S
C398 C403 1.415 . S
C399 H388 0.930 . S
C399 C398 1.370 1_556 S
C399 C400 1.407 . S
C400 C399 1.407 . S
C400 C401 1.365 1_556 S
C401 H389 0.930 . S
C401 C400 1.365 1_554 S
C401 C402 1.393 . S
C402 C401 1.393 . S
C402 C403 1.387 . S
C403 H390 0.930 . S
C403 C398 1.415 . S
C403 C402 1.387 . S
H404 C412 0.930 . S
H405 C415 0.930 . S
H406 C417 0.930 . S
H407 C418 0.970 . S
H408 C418 0.970 . S
H409 C420 0.930 . S
H410 C422 0.930 . S
H411 C424 0.930 . S
C412 H404 0.930 . S
C412 C413 1.382 . S
C412 C414 1.426 . S
C413 C412 1.382 . S
C413 C417 1.389 . S
C414 C412 1.426 . S
C414 C415 1.375 . S
C414 C418 1.532 . S
C415 H405 0.930 . S
C415 C414 1.375 . S
C415 C416 1.416 . S
C416 C415 1.416 . S
C416 C417 1.371 . S
C417 H406 0.930 . S
C417 C413 1.389 . S
C417 C416 1.371 . S
C418 H407 0.970 . S
C418 H408 0.970 . S
C418 C414 1.532 . S
C418 C419 1.499 1_545 S
C419 C418 1.499 1_565 S
C419 C420 1.370 . S
C419 C424 1.415 . S
C420 H409 0.930 . S
C420 C419 1.370 . S
C420 C421 1.407 . S
C421 C420 1.407 . S
C421 C422 1.365 . S
C422 H410 0.930 . S
C422 C421 1.365 . S
C422 C423 1.393 . S
C423 C422 1.393 . S
C423 C424 1.387 . S
C424 H411 0.930 . S
C424 C419 1.415 . S
C424 C423 1.387 . S
H425 C433 0.930 . S
H426 C436 0.930 . S
H427 C438 0.930 . S
H428 C439 1.004 . S
H429 C439 0.938 1_554 S
H430 C441 0.930 . S
H431 C443 0.930 . S
H432 C445 0.930 . S
C433 H425 0.930 . S
C433 C434 1.382 . S
C433 C435 1.456 . S
C434 C433 1.382 . S
C434 C438 1.389 . S
C435 C433 1.456 . S
C435 C436 1.346 1_556 S
C435 C439 1.532 . S
C436 H426 0.930 . S
C436 C435 1.346 1_554 S
C436 C437 1.416 . S
C437 C436 1.416 . S
C437 C438 1.371 1_554 S
C438 H427 0.930 . S
C438 C434 1.389 . S
C438 C437 1.371 1_556 S
C439 H428 1.004 . S
C439 H429 0.938 1_556 S
C439 C435 1.532 . S
C439 C440 1.499 1_556 S
C440 C439 1.499 1_554 S
C440 C441 1.368 1_554 S
C440 C445 1.418 . S
C441 H430 0.930 . S
C441 C440 1.368 1_556 S
C441 C442 1.407 . S
C442 C441 1.407 . S
C442 C443 1.365 1_556 S
C443 H431 0.930 . S
C443 C442 1.365 1_554 S
C443 C444 1.393 . S
C444 C443 1.393 . S
C444 C445 1.387 . S
C445 H432 0.930 . S
C445 C440 1.418 . S
C445 C444 1.387 . S
H446 C454 0.929 . S
H447 C456 0.930 . S
H448 C458 0.930 . S
H449 C461 0.929 . S
H450 C464 0.930 . S
H451 C466 0.960 . S
H452 C466 0.960 . S
H453 C466 0.960 . S
C454 H446 0.929 . S
C454 C455 1.377 . S
C454 C456 1.384 . S
C455 C454 1.377 . S
C455 C461 1.390 . S
C456 H447 0.930 . S
C456 C454 1.384 . S
C456 C457 1.372 . S
C457 C456 1.372 . S
C457 C458 1.400 . S
C457 C462 1.490 . S
C458 H448 0.930 . S
C458 C457 1.400 . S
C458 C461 1.386 . S
H459 C475 0.930 . S
H460 C476 0.931 . S
C461 H449 0.929 . S
C461 C455 1.390 . S
C461 C458 1.386 . S
C462 C457 1.490 . S
C462 C464 1.395 . S
C462 C465 1.403 . S
H463 C469 0.930 . S
C464 H450 0.930 . S
C464 C462 1.395 . S
C464 C467 1.403 . S
C465 C462 1.403 . S
C465 C466 1.524 . S
C465 C469 1.400 . S
C466 H451 0.960 . S
C466 H452 0.960 . S
C466 H453 0.960 . S
C466 C465 1.524 . S
C467 C464 1.403 . S
C467 C468 1.392 . S
C467 C471 1.495 . S
C468 C467 1.392 . S
C468 C469 1.385 . S
C468 C470 1.478 . S
C469 H463 0.930 . S
C469 C465 1.400 . S
C469 C468 1.385 . S
C470 C468 1.478 . S
C470 C472 1.381 . S
C470 C476 1.383 . S
C471 C467 1.495 . S
C471 H477 0.959 . S
C471 H478 0.961 . S
C471 H479 0.960 . S
C472 C470 1.381 . S
C472 C473 1.394 . S
C472 H480 0.930 . S
C473 C472 1.394 . S
C473 C474 1.383 . S
C473 H481 0.929 . S
C474 C473 1.383 . S
C474 C475 1.377 . S
C475 H459 0.930 . S
C475 C474 1.377 . S
C475 C476 1.379 . S
C476 H460 0.931 . S
C476 C470 1.383 . S
C476 C475 1.379 . S
H477 C471 0.959 . S
H478 C471 0.961 . S
H479 C471 0.960 . S
H480 C472 0.930 . S
H481 C473 0.929 . S
H482 C490 0.929 . S
H483 C492 0.930 . S
H484 C494 0.930 . S
H485 C497 0.929 . S
H486 C500 0.930 . S
H487 C502 0.960 . S
H488 C502 0.960 . S
H489 C502 0.960 . S
C490 H482 0.929 . S
C490 C491 1.377 . S
C490 C492 1.384 . S
C491 C490 1.377 . S
C491 C497 1.390 . S
C492 H483 0.930 . S
C492 C490 1.384 . S
C492 C493 1.372 . S
C493 C492 1.372 . S
C493 C494 1.400 . S
C493 C498 1.490 . S
C494 H484 0.930 . S
C494 C493 1.400 . S
C494 C497 1.386 . S
H495 C511 0.930 . S
H496 C512 0.931 . S
C497 H485 0.929 . S
C497 C491 1.390 . S
C497 C494 1.386 . S
C498 C493 1.490 . S
C498 C500 1.395 . S
C498 C501 1.403 . S
H499 C505 0.930 . S
C500 H486 0.930 . S
C500 C498 1.395 . S
C500 C503 1.403 . S
C501 C498 1.403 . S
C501 C502 1.524 . S
C501 C505 1.400 . S
C502 H487 0.960 . S
C502 H488 0.960 . S
C502 H489 0.960 . S
C502 C501 1.524 . S
C503 C500 1.403 . S
C503 C504 1.392 . S
C503 C507 1.495 . S
C504 C503 1.392 . S
C504 C505 1.385 . S
C504 C506 1.478 . S
C505 H499 0.930 . S
C505 C501 1.400 . S
C505 C504 1.385 . S
C506 C504 1.478 . S
C506 C508 1.381 . S
C506 C512 1.383 . S
C507 C503 1.495 . S
C507 H513 0.959 . S
C507 H514 0.961 . S
C507 H515 0.960 . S
C508 C506 1.381 . S
C508 C509 1.394 . S
C508 H516 0.930 . S
C509 C508 1.394 . S
C509 C510 1.383 . S
C509 H517 0.929 . S
C510 C509 1.383 . S
C510 C511 1.377 . S
C511 H495 0.930 . S
C511 C510 1.377 . S
C511 C512 1.379 . S
C512 H496 0.931 . S
C512 C506 1.383 . S
C512 C511 1.379 . S
H513 C507 0.959 . S
H514 C507 0.961 . S
H515 C507 0.960 . S
H516 C508 0.930 . S
H517 C509 0.929 . S
H518 C526 0.929 . S
H519 C528 0.930 . S
H520 C530 0.930 . S
H521 C533 0.929 . S
H522 C536 0.930 . S
H523 C538 0.960 . S
H524 C538 0.960 . S
H525 C538 0.960 . S
C526 H518 0.929 . S
C526 C527 1.377 . S
C526 C528 1.384 . S
C527 C526 1.377 . S
C527 C533 1.390 . S
C528 H519 0.930 . S
C528 C526 1.384 . S
C528 C529 1.372 . S
C529 C528 1.372 . S
C529 C530 1.400 . S
C529 C534 1.490 . S
C530 H520 0.930 . S
C530 C529 1.400 . S
C530 C533 1.386 . S
H531 C547 0.930 . S
H532 C548 0.931 . S
C533 H521 0.929 . S
C533 C527 1.390 . S
C533 C530 1.386 . S
C534 C529 1.490 . S
C534 C536 1.395 . S
C534 C537 1.403 . S
H535 C541 0.930 . S
C536 H522 0.930 . S
C536 C534 1.395 . S
C536 C539 1.403 . S
C537 C534 1.403 . S
C537 C538 1.524 . S
C537 C541 1.400 . S
C538 H523 0.960 . S
C538 H524 0.960 . S
C538 H525 0.960 . S
C538 C537 1.524 . S
C539 C536 1.403 . S
C539 C540 1.392 . S
C539 C543 1.495 . S
C540 C539 1.392 . S
C540 C541 1.385 . S
C540 C542 1.478 . S
C541 H535 0.930 . S
C541 C537 1.400 . S
C541 C540 1.385 . S
C542 C540 1.478 . S
C542 C544 1.381 . S
C542 C548 1.383 . S
C543 C539 1.495 . S
C543 H549 0.959 . S
C543 H550 0.961 . S
C543 H551 0.960 . S
C544 C542 1.381 . S
C544 C545 1.394 . S
C544 H552 0.930 . S
C545 C544 1.394 . S
C545 C546 1.383 . S
C545 H553 0.929 . S
C546 C545 1.383 . S
C546 C547 1.377 . S
C547 H531 0.930 . S
C547 C546 1.377 . S
C547 C548 1.379 . S
C548 H532 0.931 . S
C548 C542 1.383 . S
C548 C547 1.379 . S
H549 C543 0.959 . S
H550 C543 0.961 . S
H551 C543 0.960 . S
H552 C544 0.930 . S
H553 C545 0.929 . S
H554 C562 0.929 . S
H555 C564 0.930 . S
H556 C566 0.930 . S
H557 C569 0.929 . S
H558 C572 0.930 . S
H559 C574 0.960 . S
H560 C574 0.960 . S
H561 C574 0.960 . S
C562 H554 0.929 . S
C562 C563 1.377 . S
C562 C564 1.384 . S
C563 C562 1.377 . S
C563 C569 1.390 . S
C564 H555 0.930 . S
C564 C562 1.384 . S
C564 C565 1.372 . S
C565 C564 1.372 . S
C565 C566 1.400 . S
C565 C570 1.490 . S
C566 H556 0.930 . S
C566 C565 1.400 . S
C566 C569 1.386 . S
H567 C583 0.930 . S
H568 C584 0.931 . S
C569 H557 0.929 . S
C569 C563 1.390 . S
C569 C566 1.386 . S
C570 C565 1.490 . S
C570 C572 1.395 . S
C570 C573 1.403 . S
H571 C577 0.930 . S
C572 H558 0.930 . S
C572 C570 1.395 . S
C572 C575 1.403 . S
C573 C570 1.403 . S
C573 C574 1.524 . S
C573 C577 1.400 . S
C574 H559 0.960 . S
C574 H560 0.960 . S
C574 H561 0.960 . S
C574 C573 1.524 . S
C575 C572 1.403 . S
C575 C576 1.392 . S
C575 C579 1.495 . S
C576 C575 1.392 . S
C576 C577 1.385 . S
C576 C578 1.478 . S
C577 H571 0.930 . S
C577 C573 1.400 . S
C577 C576 1.385 . S
C578 C576 1.478 . S
C578 C580 1.381 . S
C578 C584 1.383 . S
C579 C575 1.495 . S
C579 H585 0.959 . S
C579 H586 0.961 . S
C579 H587 0.960 . S
C580 C578 1.381 . S
C580 C581 1.394 . S
C580 H588 0.930 . S
C581 C580 1.394 . S
C581 C582 1.383 . S
C581 H589 0.929 . S
C582 C581 1.383 . S
C582 C583 1.377 . S
C583 H567 0.930 . S
C583 C582 1.377 . S
C583 C584 1.379 . S
C584 H568 0.931 . S
C584 C578 1.383 . S
C584 C583 1.379 . S
H585 C579 0.959 . S
H586 C579 0.961 . S
H587 C579 0.960 . S
H588 C580 0.930 . S
H589 C581 0.929 . S
H590 C598 0.929 . S
H591 C600 0.930 . S
H592 C602 0.930 . S
H593 C605 0.929 . S
H594 C608 0.930 . S
H595 C610 0.960 . S
H596 C610 0.960 . S
H597 C610 0.960 . S
C598 H590 0.929 . S
C598 C599 1.377 . S
C598 C600 1.384 . S
C599 C598 1.377 . S
C599 C605 1.390 . S
C600 H591 0.930 . S
C600 C598 1.384 . S
C600 C601 1.372 . S
C601 C600 1.372 . S
C601 C602 1.400 . S
C601 C606 1.490 . S
C602 H592 0.930 . S
C602 C601 1.400 . S
C602 C605 1.386 . S
H603 C619 0.930 . S
H604 C620 0.931 . S
C605 H593 0.929 . S
C605 C599 1.390 . S
C605 C602 1.386 . S
C606 C601 1.490 . S
C606 C608 1.395 . S
C606 C609 1.403 . S
H607 C613 0.930 . S
C608 H594 0.930 . S
C608 C606 1.395 . S
C608 C611 1.403 . S
C609 C606 1.403 . S
C609 C610 1.524 . S
C609 C613 1.400 . S
C610 H595 0.960 . S
C610 H596 0.960 . S
C610 H597 0.960 . S
C610 C609 1.524 . S
C611 C608 1.403 . S
C611 C612 1.392 . S
C611 C615 1.495 . S
C612 C611 1.392 . S
C612 C613 1.385 . S
C612 C614 1.478 . S
C613 H607 0.930 . S
C613 C609 1.400 . S
C613 C612 1.385 . S
C614 C612 1.478 . S
C614 C616 1.381 . S
C614 C620 1.383 . S
C615 C611 1.495 . S
C615 H621 0.959 . S
C615 H622 0.961 . S
C615 H623 0.960 . S
C616 C614 1.381 . S
C616 C617 1.394 . S
C616 H624 0.930 . S
C617 C616 1.394 . S
C617 C618 1.383 . S
C617 H625 0.929 . S
C618 C617 1.383 . S
C618 C619 1.377 . S
C619 H603 0.930 . S
C619 C618 1.377 . S
C619 C620 1.379 . S
C620 H604 0.931 . S
C620 C614 1.383 . S
C620 C619 1.379 . S
H621 C615 0.959 . S
H622 C615 0.961 . S
H623 C615 0.960 . S
H624 C616 0.930 . S
H625 C617 0.929 . S
H626 C634 0.929 . S
H627 C636 0.930 . S
H628 C638 0.930 . S
H629 C641 0.929 . S
H630 C644 0.930 . S
H631 C646 0.960 . S
H632 C646 0.960 . S
H633 C646 0.960 . S
C634 H626 0.929 . S
C634 C635 1.377 . S
C634 C636 1.384 . S
C635 C634 1.377 . S
C635 C641 1.390 . S
C636 H627 0.930 . S
C636 C634 1.384 . S
C636 C637 1.372 . S
C637 C636 1.372 . S
C637 C638 1.400 . S
C637 C642 1.490 . S
C638 H628 0.930 . S
C638 C637 1.400 . S
C638 C641 1.386 . S
H639 C655 0.930 . S
H640 C656 0.931 . S
C641 H629 0.929 . S
C641 C635 1.390 . S
C641 C638 1.386 . S
C642 C637 1.490 . S
C642 C644 1.395 . S
C642 C645 1.403 . S
H643 C649 0.930 . S
C644 H630 0.930 . S
C644 C642 1.395 . S
C644 C647 1.403 . S
C645 C642 1.403 . S
C645 C646 1.524 . S
C645 C649 1.400 . S
C646 H631 0.960 . S
C646 H632 0.960 . S
C646 H633 0.960 . S
C646 C645 1.524 . S
C647 C644 1.403 . S
C647 C648 1.392 . S
C647 C651 1.495 . S
C648 C647 1.392 . S
C648 C649 1.385 . S
C648 C650 1.478 . S
C649 H643 0.930 . S
C649 C645 1.400 . S
C649 C648 1.385 . S
C650 C648 1.478 . S
C650 C652 1.381 . S
C650 C656 1.383 . S
C651 C647 1.495 . S
C651 H657 0.959 . S
C651 H658 0.961 . S
C651 H659 0.960 . S
C652 C650 1.381 . S
C652 C653 1.394 . S
C652 H660 0.930 . S
C653 C652 1.394 . S
C653 C654 1.383 . S
C653 H661 0.929 . S
C654 C653 1.383 . S
C654 C655 1.377 . S
C655 H639 0.930 . S
C655 C654 1.377 . S
C655 C656 1.379 . S
C656 H640 0.931 . S
C656 C650 1.383 . S
C656 C655 1.379 . S
H657 C651 0.959 . S
H658 C651 0.961 . S
H659 C651 0.960 . S
H660 C652 0.930 . S
H661 C653 0.929 . S
H662 C670 0.929 . S
H663 C672 0.930 . S
H664 C674 0.930 . S
H665 C677 0.929 . S
H666 C680 0.930 . S
H667 C682 0.960 . S
H668 C682 0.960 . S
H669 C682 0.960 . S
C670 H662 0.929 . S
C670 C671 1.377 . S
C670 C672 1.384 . S
C671 C670 1.377 . S
C671 C677 1.390 . S
C672 H663 0.930 . S
C672 C670 1.384 . S
C672 C673 1.372 . S
C673 C672 1.372 . S
C673 C674 1.400 . S
C673 C678 1.490 . S
C674 H664 0.930 . S
C674 C673 1.400 . S
C674 C677 1.386 . S
H675 C691 0.930 . S
H676 C692 0.931 . S
C677 H665 0.929 . S
C677 C671 1.390 . S
C677 C674 1.386 . S
C678 C673 1.490 . S
C678 C680 1.395 . S
C678 C681 1.403 . S
H679 C685 0.930 . S
C680 H666 0.930 . S
C680 C678 1.395 . S
C680 C683 1.403 . S
C681 C678 1.403 . S
C681 C682 1.524 . S
C681 C685 1.400 . S
C682 H667 0.960 . S
C682 H668 0.960 . S
C682 H669 0.960 . S
C682 C681 1.524 . S
C683 C680 1.403 . S
C683 C684 1.392 . S
C683 C687 1.495 . S
C684 C683 1.392 . S
C684 C685 1.385 . S
C684 C686 1.478 . S
C685 H679 0.930 . S
C685 C681 1.400 . S
C685 C684 1.385 . S
C686 C684 1.478 . S
C686 C688 1.381 . S
C686 C692 1.383 . S
C687 C683 1.495 . S
C687 H693 0.959 . S
C687 H694 0.961 . S
C687 H695 0.960 . S
C688 C686 1.381 . S
C688 C689 1.394 . S
C688 H696 0.930 . S
C689 C688 1.394 . S
C689 C690 1.383 . S
C689 H697 0.929 . S
C690 C689 1.383 . S
C690 C691 1.377 . S
C691 H675 0.930 . S
C691 C690 1.377 . S
C691 C692 1.379 . S
C692 H676 0.931 . S
C692 C686 1.383 . S
C692 C691 1.379 . S
H693 C687 0.959 . S
H694 C687 0.961 . S
H695 C687 0.960 . S
H696 C688 0.930 . S
H697 C689 0.929 . S
H698 C706 0.929 . S
H699 C708 0.930 . S
H700 C710 0.930 . S
H701 C713 0.929 . S
H702 C716 0.930 . S
H703 C718 0.960 . S
H704 C718 0.960 . S
H705 C718 0.960 . S
C706 H698 0.929 . S
C706 C707 1.377 . S
C706 C708 1.384 . S
C707 C706 1.377 . S
C707 C713 1.390 . S
C708 H699 0.930 . S
C708 C706 1.384 . S
C708 C709 1.372 . S
C709 C708 1.372 . S
C709 C710 1.400 . S
C709 C714 1.490 . S
C710 H700 0.930 . S
C710 C709 1.400 . S
C710 C713 1.386 . S
H711 C727 0.930 . S
H712 C728 0.931 . S
C713 H701 0.929 . S
C713 C707 1.390 . S
C713 C710 1.386 . S
C714 C709 1.490 . S
C714 C716 1.395 . S
C714 C717 1.403 . S
H715 C721 0.930 . S
C716 H702 0.930 . S
C716 C714 1.395 . S
C716 C719 1.403 . S
C717 C714 1.403 . S
C717 C718 1.524 . S
C717 C721 1.400 . S
C718 H703 0.960 . S
C718 H704 0.960 . S
C718 H705 0.960 . S
C718 C717 1.524 . S
C719 C716 1.403 . S
C719 C720 1.392 . S
C719 C723 1.495 . S
C720 C719 1.392 . S
C720 C721 1.385 . S
C720 C722 1.478 . S
C721 H715 0.930 . S
C721 C717 1.400 . S
C721 C720 1.385 . S
C722 C720 1.478 . S
C722 C724 1.381 . S
C722 C728 1.383 . S
C723 C719 1.495 . S
C723 H729 0.959 . S
C723 H730 0.961 . S
C723 H731 0.960 . S
C724 C722 1.381 . S
C724 C725 1.394 . S
C724 H732 0.930 . S
C725 C724 1.394 . S
C725 C726 1.383 . S
C725 H733 0.929 . S
C726 C725 1.383 . S
C726 C727 1.377 . S
C727 H711 0.930 . S
C727 C726 1.377 . S
C727 C728 1.379 . S
C728 H712 0.931 . S
C728 C722 1.383 . S
C728 C727 1.379 . S
H729 C723 0.959 . S
H730 C723 0.961 . S
H731 C723 0.960 . S
H732 C724 0.930 . S
H733 C725 0.929 . S
H734 C742 0.929 . S
H735 C744 0.930 . S
H736 C746 0.930 . S
H737 C749 0.929 . S
H738 C752 0.930 . S
H739 C754 0.960 . S
H740 C754 0.960 . S
H741 C754 0.960 . S
C742 H734 0.929 . S
C742 C743 1.377 . S
C742 C744 1.384 . S
C743 C742 1.377 . S
C743 C749 1.390 . S
C744 H735 0.930 . S
C744 C742 1.384 . S
C744 C745 1.372 . S
C745 C744 1.372 . S
C745 C746 1.400 . S
C745 C750 1.490 . S
C746 H736 0.930 . S
C746 C745 1.400 . S
C746 C749 1.386 . S
H747 C763 0.930 . S
H748 C764 0.931 . S
C749 H737 0.929 . S
C749 C743 1.390 . S
C749 C746 1.386 . S
C750 C745 1.490 . S
C750 C752 1.395 . S
C750 C753 1.403 . S
H751 C757 0.930 . S
C752 H738 0.930 . S
C752 C750 1.395 . S
C752 C755 1.403 . S
C753 C750 1.403 . S
C753 C754 1.524 . S
C753 C757 1.400 . S
C754 H739 0.960 . S
C754 H740 0.960 . S
C754 H741 0.960 . S
C754 C753 1.524 . S
C755 C752 1.403 . S
C755 C756 1.392 . S
C755 C759 1.495 . S
C756 C755 1.392 . S
C756 C757 1.385 . S
C756 C758 1.478 . S
C757 H751 0.930 . S
C757 C753 1.400 . S
C757 C756 1.385 . S
C758 C756 1.478 . S
C758 C760 1.381 . S
C758 C764 1.383 . S
C759 C755 1.495 . S
C759 H765 0.959 . S
C759 H766 0.961 . S
C759 H767 0.960 . S
C760 C758 1.381 . S
C760 C761 1.394 . S
C760 H768 0.930 . S
C761 C760 1.394 . S
C761 C762 1.383 . S
C761 H769 0.929 . S
C762 C761 1.383 . S
C762 C763 1.377 . S
C763 H747 0.930 . S
C763 C762 1.377 . S
C763 C764 1.379 . S
C764 H748 0.931 . S
C764 C758 1.383 . S
C764 C763 1.379 . S
H765 C759 0.959 . S
H766 C759 0.961 . S
H767 C759 0.960 . S
H768 C760 0.930 . S
H769 C761 0.929 . S
H770 C778 0.929 . S
H771 C780 0.930 . S
H772 C782 0.930 . S
H773 C785 0.929 . S
H774 C788 0.930 . S
H775 C790 0.960 . S
H776 C790 0.960 . S
H777 C790 0.960 . S
C778 H770 0.929 . S
C778 C779 1.377 . S
C778 C780 1.384 . S
C779 C778 1.377 . S
C779 C785 1.390 . S
C780 H771 0.930 . S
C780 C778 1.384 . S
C780 C781 1.372 . S
C781 C780 1.372 . S
C781 C782 1.400 . S
C781 C786 1.490 . S
C782 H772 0.930 . S
C782 C781 1.400 . S
C782 C785 1.386 . S
H783 C799 0.930 . S
H784 C800 0.931 . S
C785 H773 0.929 . S
C785 C779 1.390 . S
C785 C782 1.386 . S
C786 C781 1.490 . S
C786 C788 1.395 . S
C786 C789 1.403 . S
H787 C793 0.930 . S
C788 H774 0.930 . S
C788 C786 1.395 . S
C788 C791 1.403 . S
C789 C786 1.403 . S
C789 C790 1.524 . S
C789 C793 1.400 . S
C790 H775 0.960 . S
C790 H776 0.960 . S
C790 H777 0.960 . S
C790 C789 1.524 . S
C791 C788 1.403 . S
C791 C792 1.392 . S
C791 C795 1.495 . S
C792 C791 1.392 . S
C792 C793 1.385 . S
C792 C794 1.478 . S
C793 H787 0.930 . S
C793 C789 1.400 . S
C793 C792 1.385 . S
C794 C792 1.478 . S
C794 C796 1.381 . S
C794 C800 1.383 . S
C795 C791 1.495 . S
C795 H801 0.959 . S
C795 H802 0.961 . S
C795 H803 0.960 . S
C796 C794 1.381 . S
C796 C797 1.394 . S
C796 H804 0.930 . S
C797 C796 1.394 . S
C797 C798 1.383 . S
C797 H805 0.929 . S
C798 C797 1.383 . S
C798 C799 1.377 . S
C799 H783 0.930 . S
C799 C798 1.377 . S
C799 C800 1.379 . S
C800 H784 0.931 . S
C800 C794 1.383 . S
C800 C799 1.379 . S
H801 C795 0.959 . S
H802 C795 0.961 . S
H803 C795 0.960 . S
H804 C796 0.930 . S
H805 C797 0.929 . S
H806 C814 0.929 . S
H807 C816 0.930 . S
H808 C818 0.930 . S
H809 C821 0.929 . S
H810 C824 0.930 . S
H811 C826 0.960 . S
H812 C826 0.960 . S
H813 C826 0.960 . S
C814 H806 0.929 . S
C814 C815 1.377 . S
C814 C816 1.384 . S
C815 C814 1.377 . S
C815 C821 1.390 . S
C816 H807 0.930 . S
C816 C814 1.384 . S
C816 C817 1.372 . S
C817 C816 1.372 . S
C817 C818 1.400 . S
C817 C822 1.490 . S
C818 H808 0.930 . S
C818 C817 1.400 . S
C818 C821 1.386 . S
H819 C835 0.930 . S
H820 C836 0.931 . S
C821 H809 0.929 . S
C821 C815 1.390 . S
C821 C818 1.386 . S
C822 C817 1.490 . S
C822 C824 1.395 . S
C822 C825 1.403 . S
H823 C829 0.930 . S
C824 H810 0.930 . S
C824 C822 1.395 . S
C824 C827 1.403 . S
C825 C822 1.403 . S
C825 C826 1.524 . S
C825 C829 1.400 . S
C826 H811 0.960 . S
C826 H812 0.960 . S
C826 H813 0.960 . S
C826 C825 1.524 . S
C827 C824 1.403 . S
C827 C828 1.392 . S
C827 C831 1.495 . S
C828 C827 1.392 . S
C828 C829 1.385 . S
C828 C830 1.478 . S
C829 H823 0.930 . S
C829 C825 1.400 . S
C829 C828 1.385 . S
C830 C828 1.478 . S
C830 C832 1.381 . S
C830 C836 1.383 . S
C831 C827 1.495 . S
C831 H837 0.959 . S
C831 H838 0.961 . S
C831 H839 0.960 . S
C832 C830 1.381 . S
C832 C833 1.394 . S
C832 H840 0.930 . S
C833 C832 1.394 . S
C833 C834 1.383 . S
C833 H841 0.929 . S
C834 C833 1.383 . S
C834 C835 1.377 . S
C835 H819 0.930 . S
C835 C834 1.377 . S
C835 C836 1.379 . S
C836 H820 0.931 . S
C836 C830 1.383 . S
C836 C835 1.379 . S
H837 C831 0.959 . S
H838 C831 0.961 . S
H839 C831 0.960 . S
H840 C832 0.930 . S
H841 C833 0.929 . S
H842 C850 0.929 . S
H843 C852 0.930 . S
H844 C854 0.930 . S
H845 C857 0.929 . S
H846 C860 0.930 . S
H847 C862 0.960 . S
H848 C862 0.960 . S
H849 C862 0.960 . S
C850 H842 0.929 . S
C850 C851 1.377 . S
C850 C852 1.384 . S
C851 C850 1.377 . S
C851 C857 1.390 . S
C852 H843 0.930 . S
C852 C850 1.384 . S
C852 C853 1.372 . S
C853 C852 1.372 . S
C853 C854 1.400 . S
C853 C858 1.490 . S
C854 H844 0.930 . S
C854 C853 1.400 . S
C854 C857 1.386 . S
H855 C871 0.930 . S
H856 C872 0.931 . S
C857 H845 0.929 . S
C857 C851 1.390 . S
C857 C854 1.386 . S
C858 C853 1.490 . S
C858 C860 1.395 . S
C858 C861 1.403 . S
H859 C865 0.930 . S
C860 H846 0.930 . S
C860 C858 1.395 . S
C860 C863 1.403 . S
C861 C858 1.403 . S
C861 C862 1.524 . S
C861 C865 1.400 . S
C862 H847 0.960 . S
C862 H848 0.960 . S
C862 H849 0.960 . S
C862 C861 1.524 . S
C863 C860 1.403 . S
C863 C864 1.392 . S
C863 C867 1.495 . S
C864 C863 1.392 . S
C864 C865 1.385 . S
C864 C866 1.478 . S
C865 H859 0.930 . S
C865 C861 1.400 . S
C865 C864 1.385 . S
C866 C864 1.478 . S
C866 C868 1.381 . S
C866 C872 1.383 . S
C867 C863 1.495 . S
C867 H873 0.959 . S
C867 H874 0.961 . S
C867 H875 0.960 . S
C868 C866 1.381 . S
C868 C869 1.394 . S
C868 H876 0.930 . S
C869 C868 1.394 . S
C869 C870 1.383 . S
C869 H877 0.929 . S
C870 C869 1.383 . S
C870 C871 1.377 . S
C871 H855 0.930 . S
C871 C870 1.377 . S
C871 C872 1.379 . S
C872 H856 0.931 . S
C872 C866 1.383 . S
C872 C871 1.379 . S
H873 C867 0.959 . S
H874 C867 0.961 . S
H875 C867 0.960 . S
H876 C868 0.930 . S
H877 C869 0.929 . S
H878 C886 0.929 . S
H879 C888 0.930 . S
H880 C890 0.930 . S
H881 C893 0.929 . S
H882 C896 0.930 . S
H883 C898 0.960 . S
H884 C898 0.960 . S
H885 C898 0.960 . S
C886 H878 0.929 . S
C886 C887 1.377 . S
C886 C888 1.384 . S
C887 C886 1.377 . S
C887 C893 1.390 . S
C888 H879 0.930 . S
C888 C886 1.384 . S
C888 C889 1.372 . S
C889 C888 1.372 . S
C889 C890 1.400 . S
C889 C894 1.490 . S
C890 H880 0.930 . S
C890 C889 1.400 . S
C890 C893 1.386 . S
H891 C907 0.930 . S
H892 C908 0.931 . S
C893 H881 0.929 . S
C893 C887 1.390 . S
C893 C890 1.386 . S
C894 C889 1.490 . S
C894 C896 1.395 . S
C894 C897 1.403 . S
H895 C901 0.930 . S
C896 H882 0.930 . S
C896 C894 1.395 . S
C896 C899 1.403 . S
C897 C894 1.403 . S
C897 C898 1.524 . S
C897 C901 1.400 . S
C898 H883 0.960 . S
C898 H884 0.960 . S
C898 H885 0.960 . S
C898 C897 1.524 . S
C899 C896 1.403 . S
C899 C900 1.392 . S
C899 C903 1.495 . S
C900 C899 1.392 . S
C900 C901 1.385 . S
C900 C902 1.478 . S
C901 H895 0.930 . S
C901 C897 1.400 . S
C901 C900 1.385 . S
C902 C900 1.478 . S
C902 C904 1.381 . S
C902 C908 1.383 . S
C903 C899 1.495 . S
C903 H909 0.959 . S
C903 H910 0.961 . S
C903 H911 0.960 . S
C904 C902 1.381 . S
C904 C905 1.394 . S
C904 H912 0.930 . S
C905 C904 1.394 . S
C905 C906 1.383 . S
C905 H913 0.929 . S
C906 C905 1.383 . S
C906 C907 1.377 . S
C907 H891 0.930 . S
C907 C906 1.377 . S
C907 C908 1.379 . S
C908 H892 0.931 . S
C908 C902 1.383 . S
C908 C907 1.379 . S
H909 C903 0.959 . S
H910 C903 0.961 . S
H911 C903 0.960 . S
H912 C904 0.930 . S
H913 C905 0.929 . S
H914 C922 0.929 . S
H915 C924 0.930 . S
H916 C926 0.930 . S
H917 C929 0.929 . S
H918 C932 0.930 . S
H919 C934 0.960 . S
H920 C934 0.960 . S
H921 C934 0.960 . S
C922 H914 0.929 . S
C922 C923 1.377 . S
C922 C924 1.384 . S
C923 C922 1.377 . S
C923 C929 1.390 . S
C924 H915 0.930 . S
C924 C922 1.384 . S
C924 C925 1.372 . S
C925 C924 1.372 . S
C925 C926 1.400 . S
C925 C930 1.490 . S
C926 H916 0.930 . S
C926 C925 1.400 . S
C926 C929 1.386 . S
H927 C943 0.930 . S
H928 C944 0.931 . S
C929 H917 0.929 . S
C929 C923 1.390 . S
C929 C926 1.386 . S
C930 C925 1.490 . S
C930 C932 1.395 . S
C930 C933 1.403 . S
H931 C937 0.930 . S
C932 H918 0.930 . S
C932 C930 1.395 . S
C932 C935 1.403 . S
C933 C930 1.403 . S
C933 C934 1.524 . S
C933 C937 1.400 . S
C934 H919 0.960 . S
C934 H920 0.960 . S
C934 H921 0.960 . S
C934 C933 1.524 . S
C935 C932 1.403 . S
C935 C936 1.392 . S
C935 C939 1.495 . S
C936 C935 1.392 . S
C936 C937 1.385 . S
C936 C938 1.478 . S
C937 H931 0.930 . S
C937 C933 1.400 . S
C937 C936 1.385 . S
C938 C936 1.478 . S
C938 C940 1.381 . S
C938 C944 1.383 . S
C939 C935 1.495 . S
C939 H945 0.959 . S
C939 H946 0.961 . S
C939 H947 0.960 . S
C940 C938 1.381 . S
C940 C941 1.394 . S
C940 H948 0.930 . S
C941 C940 1.394 . S
C941 C942 1.383 . S
C941 H949 0.929 . S
C942 C941 1.383 . S
C942 C943 1.377 . S
C943 H927 0.930 . S
C943 C942 1.377 . S
C943 C944 1.379 . S
C944 H928 0.931 . S
C944 C938 1.383 . S
C944 C943 1.379 . S
H945 C939 0.959 . S
H946 C939 0.961 . S
H947 C939 0.960 . S
H948 C940 0.930 . S
H949 C941 0.929 . S
H950 C958 0.929 . S
H951 C960 0.930 . S
H952 C962 0.930 . S
H953 C965 0.929 . S
H954 C968 0.930 . S
H955 C970 0.960 . S
H956 C970 0.960 . S
H957 C970 0.960 . S
C958 H950 0.929 . S
C958 C959 1.377 . S
C958 C960 1.384 . S
C959 C958 1.377 . S
C959 C965 1.390 . S
C960 H951 0.930 . S
C960 C958 1.384 . S
C960 C961 1.372 . S
C961 C960 1.372 . S
C961 C962 1.400 . S
C961 C966 1.490 . S
C962 H952 0.930 . S
C962 C961 1.400 . S
C962 C965 1.386 . S
H963 C979 0.930 . S
H964 C980 0.931 . S
C965 H953 0.929 . S
C965 C959 1.390 . S
C965 C962 1.386 . S
C966 C961 1.490 . S
C966 C968 1.395 . S
C966 C969 1.403 . S
H967 C973 0.930 . S
C968 H954 0.930 . S
C968 C966 1.395 . S
C968 C971 1.403 . S
C969 C966 1.403 . S
C969 C970 1.524 . S
C969 C973 1.400 . S
C970 H955 0.960 . S
C970 H956 0.960 . S
C970 H957 0.960 . S
C970 C969 1.524 . S
C971 C968 1.403 . S
C971 C972 1.392 . S
C971 C975 1.495 . S
C972 C971 1.392 . S
C972 C973 1.385 . S
C972 C974 1.478 . S
C973 H967 0.930 . S
C973 C969 1.400 . S
C973 C972 1.385 . S
C974 C972 1.478 . S
C974 C976 1.381 . S
C974 C980 1.383 . S
C975 C971 1.495 . S
C975 H981 0.959 . S
C975 H982 0.961 . S
C975 H983 0.960 . S
C976 C974 1.381 . S
C976 C977 1.394 . S
C976 H984 0.930 . S
C977 C976 1.394 . S
C977 C978 1.383 . S
C977 H985 0.929 . S
C978 C977 1.383 . S
C978 C979 1.377 . S
C979 H963 0.930 . S
C979 C978 1.377 . S
C979 C980 1.379 . S
C980 H964 0.931 . S
C980 C974 1.383 . S
C980 C979 1.379 . S
H981 C975 0.959 . S
H982 C975 0.961 . S
H983 C975 0.960 . S
H984 C976 0.930 . S
H985 C977 0.929 . S
H986 C994 0.929 . S
H987 C996 0.930 . S
H988 C998 0.930 . S
H989 C1001 0.929 . S
H990 C1004 0.930 . S
H991 C1006 0.960 . S
H992 C1006 0.960 . S
H993 C1006 0.960 . S
C994 H986 0.929 . S
C994 C995 1.377 . S
C994 C996 1.384 . S
C995 C994 1.377 . S
C995 C1001 1.390 . S
C996 H987 0.930 . S
C996 C994 1.384 . S
C996 C997 1.372 . S
C997 C996 1.372 . S
C997 C998 1.400 . S
C997 C1002 1.490 . S
C998 H988 0.930 . S
C998 C997 1.400 . S
C998 C1001 1.386 . S
H999 C1015 0.930 . S
H1000 C1016 0.931 . S
C1001 H989 0.929 . S
C1001 C995 1.390 . S
C1001 C998 1.386 . S
C1002 C997 1.490 . S
C1002 C1004 1.395 . S
C1002 C1005 1.403 . S
H1003 C1009 0.930 . S
C1004 H990 0.930 . S
C1004 C1002 1.395 . S
C1004 C1007 1.403 . S
C1005 C1002 1.403 . S
C1005 C1006 1.524 . S
C1005 C1009 1.400 . S
C1006 H991 0.960 . S
C1006 H992 0.960 . S
C1006 H993 0.960 . S
C1006 C1005 1.524 . S
C1007 C1004 1.403 . S
C1007 C1008 1.392 . S
C1007 C1011 1.495 . S
C1008 C1007 1.392 . S
C1008 C1009 1.385 . S
C1008 C1010 1.478 . S
C1009 H1003 0.930 . S
C1009 C1005 1.400 . S
C1009 C1008 1.385 . S
C1010 C1008 1.478 . S
C1010 C1012 1.381 . S
C1010 C1016 1.383 . S
C1011 C1007 1.495 . S
C1011 H1017 0.959 . S
C1011 H1018 0.961 . S
C1011 H1019 0.960 . S
C1012 C1010 1.381 . S
C1012 C1013 1.394 . S
C1012 H1020 0.930 . S
C1013 C1012 1.394 . S
C1013 C1014 1.383 . S
C1013 H1021 0.929 . S
C1014 C1013 1.383 . S
C1014 C1015 1.377 . S
C1015 H999 0.930 . S
C1015 C1014 1.377 . S
C1015 C1016 1.379 . S
C1016 H1000 0.931 . S
C1016 C1010 1.383 . S
C1016 C1015 1.379 . S
H1017 C1011 0.959 . S
H1018 C1011 0.961 . S
H1019 C1011 0.960 . S
H1020 C1012 0.930 . S
H1021 C1013 0.929 . S
H1022 C1030 0.929 . S
H1023 C1032 0.930 . S
H1024 C1034 0.930 . S
H1025 C1037 0.929 . S
H1026 C1040 0.930 . S
H1027 C1042 0.960 . S
H1028 C1042 0.960 . S
H1029 C1042 0.960 . S
C1030 H1022 0.929 . S
C1030 C1031 1.377 . S
C1030 C1032 1.384 . S
C1031 C1030 1.377 . S
C1031 C1037 1.390 . S
C1032 H1023 0.930 . S
C1032 C1030 1.384 . S
C1032 C1033 1.372 . S
C1033 C1032 1.372 . S
C1033 C1034 1.400 . S
C1033 C1038 1.490 . S
C1034 H1024 0.930 . S
C1034 C1033 1.400 . S
C1034 C1037 1.386 . S
H1035 C1051 0.930 . S
H1036 C1052 0.931 . S
C1037 H1025 0.929 . S
C1037 C1031 1.390 . S
C1037 C1034 1.386 . S
C1038 C1033 1.490 . S
C1038 C1040 1.395 . S
C1038 C1041 1.403 . S
H1039 C1045 0.930 . S
C1040 H1026 0.930 . S
C1040 C1038 1.395 . S
C1040 C1043 1.403 . S
C1041 C1038 1.403 . S
C1041 C1042 1.524 . S
C1041 C1045 1.400 . S
C1042 H1027 0.960 . S
C1042 H1028 0.960 . S
C1042 H1029 0.960 . S
C1042 C1041 1.524 . S
C1043 C1040 1.403 . S
C1043 C1044 1.392 . S
C1043 C1047 1.495 . S
C1044 C1043 1.392 . S
C1044 C1045 1.385 . S
C1044 C1046 1.478 . S
C1045 H1039 0.930 . S
C1045 C1041 1.400 . S
C1045 C1044 1.385 . S
C1046 C1044 1.478 . S
C1046 C1048 1.381 . S
C1046 C1052 1.383 . S
C1047 C1043 1.495 . S
C1047 H1053 0.959 . S
C1047 H1054 0.961 . S
C1047 H1055 0.960 . S
C1048 C1046 1.381 . S
C1048 C1049 1.394 . S
C1048 H1056 0.930 . S
C1049 C1048 1.394 . S
C1049 C1050 1.383 . S
C1049 H1057 0.929 . S
C1050 C1049 1.383 . S
C1050 C1051 1.377 . S
C1051 H1035 0.930 . S
C1051 C1050 1.377 . S
C1051 C1052 1.379 . S
C1052 H1036 0.931 . S
C1052 C1046 1.383 . S
C1052 C1051 1.379 . S
H1053 C1047 0.959 . S
H1054 C1047 0.961 . S
H1055 C1047 0.960 . S
H1056 C1048 0.930 . S
H1057 C1049 0.929 . S
H1058 C1066 0.929 . S
H1059 C1068 0.930 . S
H1060 C1070 0.930 . S
H1061 C1073 0.929 . S
H1062 C1076 0.930 . S
H1063 C1078 0.960 . S
H1064 C1078 0.960 . S
H1065 C1078 0.960 . S
C1066 H1058 0.929 . S
C1066 C1067 1.377 . S
C1066 C1068 1.384 . S
C1067 C1066 1.377 . S
C1067 C1073 1.390 . S
C1068 H1059 0.930 . S
C1068 C1066 1.384 . S
C1068 C1069 1.372 . S
C1069 C1068 1.372 . S
C1069 C1070 1.400 . S
C1069 C1074 1.490 . S
C1070 H1060 0.930 . S
C1070 C1069 1.400 . S
C1070 C1073 1.386 . S
H1071 C1087 0.930 . S
H1072 C1088 0.931 . S
C1073 H1061 0.929 . S
C1073 C1067 1.390 . S
C1073 C1070 1.386 . S
C1074 C1069 1.490 . S
C1074 C1076 1.395 . S
C1074 C1077 1.403 . S
H1075 C1081 0.930 . S
C1076 H1062 0.930 . S
C1076 C1074 1.395 . S
C1076 C1079 1.403 . S
C1077 C1074 1.403 . S
C1077 C1078 1.524 . S
C1077 C1081 1.400 . S
C1078 H1063 0.960 . S
C1078 H1064 0.960 . S
C1078 H1065 0.960 . S
C1078 C1077 1.524 . S
C1079 C1076 1.403 . S
C1079 C1080 1.392 . S
C1079 C1083 1.495 . S
C1080 C1079 1.392 . S
C1080 C1081 1.385 . S
C1080 C1082 1.478 . S
C1081 H1075 0.930 . S
C1081 C1077 1.400 . S
C1081 C1080 1.385 . S
C1082 C1080 1.478 . S
C1082 C1084 1.381 . S
C1082 C1088 1.383 . S
C1083 C1079 1.495 . S
C1083 H1089 0.959 . S
C1083 H1090 0.961 . S
C1083 H1091 0.960 . S
C1084 C1082 1.381 . S
C1084 C1085 1.394 . S
C1084 H1092 0.930 . S
C1085 C1084 1.394 . S
C1085 C1086 1.383 . S
C1085 H1093 0.929 . S
C1086 C1085 1.383 . S
C1086 C1087 1.377 . S
C1087 H1071 0.930 . S
C1087 C1086 1.377 . S
C1087 C1088 1.379 . S
C1088 H1072 0.931 . S
C1088 C1082 1.383 . S
C1088 C1087 1.379 . S
H1089 C1083 0.959 . S
H1090 C1083 0.961 . S
H1091 C1083 0.960 . S
H1092 C1084 0.930 . S
H1093 C1085 0.929 . S
H1094 C1102 0.929 . S
H1095 C1104 0.930 . S
H1096 C1106 0.930 . S
H1097 C1109 0.929 . S
H1098 C1112 0.930 . S
H1099 C1114 0.960 . S
H1100 C1114 0.960 . S
H1101 C1114 0.960 . S
C1102 H1094 0.929 . S
C1102 C1103 1.377 . S
C1102 C1104 1.384 . S
C1103 C1102 1.377 . S
C1103 C1109 1.390 . S
C1104 H1095 0.930 . S
C1104 C1102 1.384 . S
C1104 C1105 1.372 . S
C1105 C1104 1.372 . S
C1105 C1106 1.400 . S
C1105 C1110 1.490 . S
C1106 H1096 0.930 . S
C1106 C1105 1.400 . S
C1106 C1109 1.386 . S
H1107 C1123 0.930 . S
H1108 C1124 0.931 . S
C1109 H1097 0.929 . S
C1109 C1103 1.390 . S
C1109 C1106 1.386 . S
C1110 C1105 1.490 . S
C1110 C1112 1.395 . S
C1110 C1113 1.403 . S
H1111 C1117 0.930 . S
C1112 H1098 0.930 . S
C1112 C1110 1.395 . S
C1112 C1115 1.403 . S
C1113 C1110 1.403 . S
C1113 C1114 1.524 . S
C1113 C1117 1.400 . S
C1114 H1099 0.960 . S
C1114 H1100 0.960 . S
C1114 H1101 0.960 . S
C1114 C1113 1.524 . S
C1115 C1112 1.403 . S
C1115 C1116 1.392 . S
C1115 C1119 1.495 . S
C1116 C1115 1.392 . S
C1116 C1117 1.385 . S
C1116 C1118 1.478 . S
C1117 H1111 0.930 . S
C1117 C1113 1.400 . S
C1117 C1116 1.385 . S
C1118 C1116 1.478 . S
C1118 C1120 1.381 . S
C1118 C1124 1.383 . S
C1119 C1115 1.495 . S
C1119 H1125 0.959 . S
C1119 H1126 0.961 . S
C1119 H1127 0.960 . S
C1120 C1118 1.381 . S
C1120 C1121 1.394 . S
C1120 H1128 0.930 . S
C1121 C1120 1.394 . S
C1121 C1122 1.383 . S
C1121 H1129 0.929 . S
C1122 C1121 1.383 . S
C1122 C1123 1.377 . S
C1123 H1107 0.930 . S
C1123 C1122 1.377 . S
C1123 C1124 1.379 . S
C1124 H1108 0.931 . S
C1124 C1118 1.383 . S
C1124 C1123 1.379 . S
H1125 C1119 0.959 . S
H1126 C1119 0.961 . S
H1127 C1119 0.960 . S
H1128 C1120 0.930 . S
H1129 C1121 0.929 . S
H1130 C1138 0.929 . S
H1131 C1140 0.930 . S
H1132 C1142 0.930 . S
H1133 C1145 0.929 . S
H1134 C1148 0.930 . S
H1135 C1150 0.960 . S
H1136 C1150 0.960 . S
H1137 C1150 0.960 . S
C1138 H1130 0.929 . S
C1138 C1139 1.377 . S
C1138 C1140 1.384 . S
C1139 C1138 1.377 . S
C1139 C1145 1.390 . S
C1140 H1131 0.930 . S
C1140 C1138 1.384 . S
C1140 C1141 1.372 . S
C1141 C1140 1.372 . S
C1141 C1142 1.400 . S
C1141 C1146 1.490 . S
C1142 H1132 0.930 . S
C1142 C1141 1.400 . S
C1142 C1145 1.386 . S
H1143 C1159 0.930 . S
H1144 C1160 0.931 . S
C1145 H1133 0.929 . S
C1145 C1139 1.390 . S
C1145 C1142 1.386 . S
C1146 C1141 1.490 . S
C1146 C1148 1.395 . S
C1146 C1149 1.403 . S
H1147 C1153 0.930 . S
C1148 H1134 0.930 . S
C1148 C1146 1.395 . S
C1148 C1151 1.403 . S
C1149 C1146 1.403 . S
C1149 C1150 1.524 . S
C1149 C1153 1.400 . S
C1150 H1135 0.960 . S
C1150 H1136 0.960 . S
C1150 H1137 0.960 . S
C1150 C1149 1.524 . S
C1151 C1148 1.403 . S
C1151 C1152 1.392 . S
C1151 C1155 1.495 . S
C1152 C1151 1.392 . S
C1152 C1153 1.385 . S
C1152 C1154 1.478 . S
C1153 H1147 0.930 . S
C1153 C1149 1.400 . S
C1153 C1152 1.385 . S
C1154 C1152 1.478 . S
C1154 C1156 1.381 . S
C1154 C1160 1.383 . S
C1155 C1151 1.495 . S
C1155 H1161 0.959 . S
C1155 H1162 0.961 . S
C1155 H1163 0.960 . S
C1156 C1154 1.381 . S
C1156 C1157 1.394 . S
C1156 H1164 0.930 . S
C1157 C1156 1.394 . S
C1157 C1158 1.383 . S
C1157 H1165 0.929 . S
C1158 C1157 1.383 . S
C1158 C1159 1.377 . S
C1159 H1143 0.930 . S
C1159 C1158 1.377 . S
C1159 C1160 1.379 . S
C1160 H1144 0.931 . S
C1160 C1154 1.383 . S
C1160 C1159 1.379 . S
H1161 C1155 0.959 . S
H1162 C1155 0.961 . S
H1163 C1155 0.960 . S
H1164 C1156 0.930 . S
H1165 C1157 0.929 . S
H1166 C1174 0.929 . S
H1167 C1176 0.930 . S
H1168 C1178 0.930 . S
H1169 C1181 0.929 . S
H1170 C1184 0.930 . S
H1171 C1186 0.960 . S
H1172 C1186 0.960 . S
H1173 C1186 0.960 . S
C1174 H1166 0.929 . S
C1174 C1175 1.377 . S
C1174 C1176 1.384 . S
C1175 C1174 1.377 . S
C1175 C1181 1.390 . S
C1176 H1167 0.930 . S
C1176 C1174 1.384 . S
C1176 C1177 1.372 . S
C1177 C1176 1.372 . S
C1177 C1178 1.400 . S
C1177 C1182 1.490 . S
C1178 H1168 0.930 . S
C1178 C1177 1.400 . S
C1178 C1181 1.386 . S
H1179 C1195 0.930 . S
H1180 C1196 0.931 . S
C1181 H1169 0.929 . S
C1181 C1175 1.390 . S
C1181 C1178 1.386 . S
C1182 C1177 1.490 . S
C1182 C1184 1.395 . S
C1182 C1185 1.403 . S
H1183 C1189 0.930 . S
C1184 H1170 0.930 . S
C1184 C1182 1.395 . S
C1184 C1187 1.403 . S
C1185 C1182 1.403 . S
C1185 C1186 1.524 . S
C1185 C1189 1.400 . S
C1186 H1171 0.960 . S
C1186 H1172 0.960 . S
C1186 H1173 0.960 . S
C1186 C1185 1.524 . S
C1187 C1184 1.403 . S
C1187 C1188 1.392 . S
C1187 C1191 1.495 . S
C1188 C1187 1.392 . S
C1188 C1189 1.385 . S
C1188 C1190 1.478 . S
C1189 H1183 0.930 . S
C1189 C1185 1.400 . S
C1189 C1188 1.385 . S
C1190 C1188 1.478 . S
C1190 C1192 1.381 . S
C1190 C1196 1.383 . S
C1191 C1187 1.495 . S
C1191 H1197 0.959 . S
C1191 H1198 0.961 . S
C1191 H1199 0.960 . S
C1192 C1190 1.381 . S
C1192 C1193 1.394 . S
C1192 H1200 0.930 . S
C1193 C1192 1.394 . S
C1193 C1194 1.383 . S
C1193 H1201 0.929 . S
C1194 C1193 1.383 . S
C1194 C1195 1.377 . S
C1195 H1179 0.930 . S
C1195 C1194 1.377 . S
C1195 C1196 1.379 . S
C1196 H1180 0.931 . S
C1196 C1190 1.383 . S
C1196 C1195 1.379 . S
H1197 C1191 0.959 . S
H1198 C1191 0.961 . S
H1199 C1191 0.960 . S
H1200 C1192 0.930 . S
H1201 C1193 0.929 . S
H1202 C1210 0.929 . S
H1203 C1212 0.930 . S
H1204 C1214 0.930 . S
H1205 C1217 0.929 . S
H1206 C1220 0.930 . S
H1207 C1222 0.960 . S
H1208 C1222 0.960 . S
H1209 C1222 0.960 . S
C1210 H1202 0.929 . S
C1210 C1211 1.377 . S
C1210 C1212 1.384 . S
C1211 C1210 1.377 . S
C1211 C1217 1.390 . S
C1212 H1203 0.930 . S
C1212 C1210 1.384 . S
C1212 C1213 1.372 . S
C1213 C1212 1.372 . S
C1213 C1214 1.400 . S
C1213 C1218 1.490 . S
C1214 H1204 0.930 . S
C1214 C1213 1.400 . S
C1214 C1217 1.386 . S
H1215 C1231 0.930 . S
H1216 C1232 0.931 . S
C1217 H1205 0.929 . S
C1217 C1211 1.390 . S
C1217 C1214 1.386 . S
C1218 C1213 1.490 . S
C1218 C1220 1.395 . S
C1218 C1221 1.403 . S
H1219 C1225 0.930 . S
C1220 H1206 0.930 . S
C1220 C1218 1.395 . S
C1220 C1223 1.403 . S
C1221 C1218 1.403 . S
C1221 C1222 1.524 . S
C1221 C1225 1.400 . S
C1222 H1207 0.960 . S
C1222 H1208 0.960 . S
C1222 H1209 0.960 . S
C1222 C1221 1.524 . S
C1223 C1220 1.403 . S
C1223 C1224 1.392 . S
C1223 C1227 1.495 . S
C1224 C1223 1.392 . S
C1224 C1225 1.385 . S
C1224 C1226 1.478 . S
C1225 H1219 0.930 . S
C1225 C1221 1.400 . S
C1225 C1224 1.385 . S
C1226 C1224 1.478 . S
C1226 C1228 1.381 . S
C1226 C1232 1.383 . S
C1227 C1223 1.495 . S
C1227 H1233 0.959 . S
C1227 H1234 0.961 . S
C1227 H1235 0.960 . S
C1228 C1226 1.381 . S
C1228 C1229 1.394 . S
C1228 H1236 0.930 . S
C1229 C1228 1.394 . S
C1229 C1230 1.383 . S
C1229 H1237 0.929 . S
C1230 C1229 1.383 . S
C1230 C1231 1.377 . S
C1231 H1215 0.930 . S
C1231 C1230 1.377 . S
C1231 C1232 1.379 . S
C1232 H1216 0.931 . S
C1232 C1226 1.383 . S
C1232 C1231 1.379 . S
H1233 C1227 0.959 . S
H1234 C1227 0.961 . S
H1235 C1227 0.960 . S
H1236 C1228 0.930 . S
H1237 C1229 0.929 . S
H1238 C1246 0.929 . S
H1239 C1248 0.930 . S
H1240 C1250 0.930 . S
H1241 C1253 0.929 . S
H1242 C1256 0.930 . S
H1243 C1258 0.960 . S
H1244 C1258 0.960 . S
H1245 C1258 0.960 . S
C1246 H1238 0.929 . S
C1246 C1247 1.377 . S
C1246 C1248 1.384 . S
C1247 C1246 1.377 . S
C1247 C1253 1.390 . S
C1248 H1239 0.930 . S
C1248 C1246 1.384 . S
C1248 C1249 1.372 . S
C1249 C1248 1.372 . S
C1249 C1250 1.400 . S
C1249 C1254 1.490 . S
C1250 H1240 0.930 . S
C1250 C1249 1.400 . S
C1250 C1253 1.386 . S
H1251 C1267 0.930 . S
H1252 C1268 0.931 . S
C1253 H1241 0.929 . S
C1253 C1247 1.390 . S
C1253 C1250 1.386 . S
C1254 C1249 1.490 . S
C1254 C1256 1.395 . S
C1254 C1257 1.403 . S
H1255 C1261 0.930 . S
C1256 H1242 0.930 . S
C1256 C1254 1.395 . S
C1256 C1259 1.403 . S
C1257 C1254 1.403 . S
C1257 C1258 1.524 . S
C1257 C1261 1.400 . S
C1258 H1243 0.960 . S
C1258 H1244 0.960 . S
C1258 H1245 0.960 . S
C1258 C1257 1.524 . S
C1259 C1256 1.403 . S
C1259 C1260 1.392 . S
C1259 C1263 1.495 . S
C1260 C1259 1.392 . S
C1260 C1261 1.385 . S
C1260 C1262 1.478 . S
C1261 H1255 0.930 . S
C1261 C1257 1.400 . S
C1261 C1260 1.385 . S
C1262 C1260 1.478 . S
C1262 C1264 1.381 . S
C1262 C1268 1.383 . S
C1263 C1259 1.495 . S
C1263 H1269 0.959 . S
C1263 H1270 0.961 . S
C1263 H1271 0.960 . S
C1264 C1262 1.381 . S
C1264 C1265 1.394 . S
C1264 H1272 0.930 . S
C1265 C1264 1.394 . S
C1265 C1266 1.383 . S
C1265 H1273 0.929 . S
C1266 C1265 1.383 . S
C1266 C1267 1.377 . S
C1267 H1251 0.930 . S
C1267 C1266 1.377 . S
C1267 C1268 1.379 . S
C1268 H1252 0.931 . S
C1268 C1262 1.383 . S
C1268 C1267 1.379 . S
H1269 C1263 0.959 . S
H1270 C1263 0.961 . S
H1271 C1263 0.960 . S
H1272 C1264 0.930 . S
H1273 C1265 0.929 . S
H1274 C1282 0.929 . S
H1275 C1284 0.930 . S
H1276 C1286 0.930 . S
H1277 C1289 0.929 . S
H1278 C1292 0.930 . S
H1279 C1294 0.960 . S
H1280 C1294 0.960 . S
H1281 C1294 0.960 . S
C1282 H1274 0.929 . S
C1282 C1283 1.377 . S
C1282 C1284 1.384 . S
C1283 C1282 1.377 . S
C1283 C1289 1.390 . S
C1284 H1275 0.930 . S
C1284 C1282 1.384 . S
C1284 C1285 1.372 . S
C1285 C1284 1.372 . S
C1285 C1286 1.400 . S
C1285 C1290 1.490 . S
C1286 H1276 0.930 . S
C1286 C1285 1.400 . S
C1286 C1289 1.386 . S
H1287 C1303 0.930 . S
H1288 C1304 0.931 . S
C1289 H1277 0.929 . S
C1289 C1283 1.390 . S
C1289 C1286 1.386 . S
C1290 C1285 1.490 . S
C1290 C1292 1.395 . S
C1290 C1293 1.403 . S
H1291 C1297 0.930 . S
C1292 H1278 0.930 . S
C1292 C1290 1.395 . S
C1292 C1295 1.403 . S
C1293 C1290 1.403 . S
C1293 C1294 1.524 . S
C1293 C1297 1.400 . S
C1294 H1279 0.960 . S
C1294 H1280 0.960 . S
C1294 H1281 0.960 . S
C1294 C1293 1.524 . S
C1295 C1292 1.403 . S
C1295 C1296 1.392 . S
C1295 C1299 1.495 . S
C1296 C1295 1.392 . S
C1296 C1297 1.385 . S
C1296 C1298 1.478 . S
C1297 H1291 0.930 . S
C1297 C1293 1.400 . S
C1297 C1296 1.385 . S
C1298 C1296 1.478 . S
C1298 C1300 1.381 . S
C1298 C1304 1.383 . S
C1299 C1295 1.495 . S
C1299 H1305 0.959 . S
C1299 H1306 0.961 . S
C1299 H1307 0.960 . S
C1300 C1298 1.381 . S
C1300 C1301 1.394 . S
C1300 H1308 0.930 . S
C1301 C1300 1.394 . S
C1301 C1302 1.383 . S
C1301 H1309 0.929 . S
C1302 C1301 1.383 . S
C1302 C1303 1.377 . S
C1303 H1287 0.930 . S
C1303 C1302 1.377 . S
C1303 C1304 1.379 . S
C1304 H1288 0.931 . S
C1304 C1298 1.383 . S
C1304 C1303 1.379 . S
H1305 C1299 0.959 . S
H1306 C1299 0.961 . S
H1307 C1299 0.960 . S
H1308 C1300 0.930 . S
H1309 C1301 0.929 . S
C474 C337 1.555 . S
C455 C15 1.670 . S
C510 C350 1.441 . S
C491 C55 1.612 . S
C546 C332 1.642 . S
C527 C101 1.669 . S
C582 C360 1.487 . S
C563 C141 1.638 . S
C618 C371 1.425 . S
C599 C2 1.523 . S
C654 C392 1.482 . S
C635 C61 1.615 . S
C671 C95 1.584 . S
C690 C421 1.454 . S
C726 C442 1.535 . S
C707 C135 1.643 . S
C762 C381 1.483 . S
C743 C42 1.520 . S
C779 C82 1.657 . S
C798 C402 1.575 . S
C834 C416 1.492 . S
C815 C122 1.571 . S
C870 C437 1.590 . S
C851 C21 1.648 . S
C887 C162 1.654 . S
C906 C358 1.508 . S
C942 C329 1.619 . S
C923 C221 1.729 . S
C959 C255 1.655 . S
C978 C353 1.492 . S
C995 C282 1.672 . S
C1014 C339 1.652 . S
C1050 C423 1.480 . S
C1031 C181 1.588 . S
C1086 C444 1.617 . S
C1067 C202 1.692 . S
C1122 C374 1.432 . S
C1103 C242 1.556 . S
C1139 C301 1.682 . S
C1158 C395 1.531 . S
C1194 C413 1.484 . S
C1175 C215 1.598 . S
C1230 C434 1.593 . S
C1211 C261 1.675 . S
C1266 C379 1.421 . S
C1247 C295 1.549 . S
C1283 C175 1.656 . S
C1302 C400 1.537 . S
