# Generated by pormake.
# Topology pyr, (3,6)-cn, num edge types: 1
# Building blocks:
#     Node 0, Type 0, BuildingBlock: QEWDON_clean_linker_0, # of connection points: 3
#     Node 1, Type 0, BuildingBlock: QEWDON_clean_linker_0, # of connection points: 3
#     Node 2, Type 0, BuildingBlock: QEWDON_clean_linker_0, # of connection points: 3
#     Node 3, Type 0, BuildingBlock: QEWDON_clean_linker_0, # of connection points: 3
#     Node 4, Type 0, BuildingBlock: QEWDON_clean_linker_0, # of connection points: 3
#     Node 5, Type 0, BuildingBlock: QEWDON_clean_linker_0, # of connection points: 3
#     Node 6, Type 0, BuildingBlock: QEWDON_clean_linker_0, # of connection points: 3
#     Node 7, Type 0, BuildingBlock: QEWDON_clean_linker_0, # of connection points: 3
#     Node 8, Type 1, BuildingBlock: BETDEL_clean_sbu_0, # of connection points: 6
#     Node 9, Type 1, BuildingBlock: BETDEL_clean_sbu_0, # of connection points: 6
#     Node 10, Type 1, BuildingBlock: BETDEL_clean_sbu_0, # of connection points: 6
#     Node 11, Type 1, BuildingBlock: BETDEL_clean_sbu_0, # of connection points: 6
#     Edge 12, Type (0, 1), BuildingBlock: UVAHIK_clean_linker_0, # of connection points: 2
#     Edge 13, Type (0, 1), BuildingBlock: UVAHIK_clean_linker_0, # of connection points: 2
#     Edge 14, Type (0, 1), BuildingBlock: UVAHIK_clean_linker_0, # of connection points: 2
#     Edge 15, Type (0, 1), BuildingBlock: UVAHIK_clean_linker_0, # of connection points: 2
#     Edge 16, Type (0, 1), BuildingBlock: UVAHIK_clean_linker_0, # of connection points: 2
#     Edge 17, Type (0, 1), BuildingBlock: UVAHIK_clean_linker_0, # of connection points: 2
#     Edge 18, Type (0, 1), BuildingBlock: UVAHIK_clean_linker_0, # of connection points: 2
#     Edge 19, Type (0, 1), BuildingBlock: UVAHIK_clean_linker_0, # of connection points: 2
#     Edge 20, Type (0, 1), BuildingBlock: UVAHIK_clean_linker_0, # of connection points: 2
#     Edge 21, Type (0, 1), BuildingBlock: UVAHIK_clean_linker_0, # of connection points: 2
#     Edge 22, Type (0, 1), BuildingBlock: UVAHIK_clean_linker_0, # of connection points: 2
#     Edge 23, Type (0, 1), BuildingBlock: UVAHIK_clean_linker_0, # of connection points: 2
#     Edge 24, Type (0, 1), BuildingBlock: UVAHIK_clean_linker_0, # of connection points: 2
#     Edge 25, Type (0, 1), BuildingBlock: UVAHIK_clean_linker_0, # of connection points: 2
#     Edge 26, Type (0, 1), BuildingBlock: UVAHIK_clean_linker_0, # of connection points: 2
#     Edge 27, Type (0, 1), BuildingBlock: UVAHIK_clean_linker_0, # of connection points: 2
#     Edge 28, Type (0, 1), BuildingBlock: UVAHIK_clean_linker_0, # of connection points: 2
#     Edge 29, Type (0, 1), BuildingBlock: UVAHIK_clean_linker_0, # of connection points: 2
#     Edge 30, Type (0, 1), BuildingBlock: UVAHIK_clean_linker_0, # of connection points: 2
#     Edge 31, Type (0, 1), BuildingBlock: UVAHIK_clean_linker_0, # of connection points: 2
#     Edge 32, Type (0, 1), BuildingBlock: UVAHIK_clean_linker_0, # of connection points: 2
#     Edge 33, Type (0, 1), BuildingBlock: UVAHIK_clean_linker_0, # of connection points: 2
#     Edge 34, Type (0, 1), BuildingBlock: UVAHIK_clean_linker_0, # of connection points: 2
#     Edge 35, Type (0, 1), BuildingBlock: UVAHIK_clean_linker_0, # of connection points: 2
# Relax obj value: 0.117
# Max RMSD: 0.264
# Mean RMSD: 0.191
data_MOF--net-pyr--node1-BETDEL_clean_sbu_0--node2-QEWDON_clean_linker_0--edge1-UVAHIK_clean_linker_0
_symmetry_space_group_name_H-M    P1
_symmetry_Int_Tables_number       1
_symmetry_cell_setting            triclinic
loop_
_symmetry_equiv_pos_as_xyz
'x, y, z'
_cell_length_a     47.133721
_cell_length_b     49.432368
_cell_length_c     48.349727
_cell_angle_alpha  91.998066
_cell_angle_beta   90.011007
_cell_angle_gamma 103.53694
loop_
_atom_site_label
_atom_site_type_symbol
_atom_site_fract_x
_atom_site_fract_y
_atom_site_fract_z
_atom_type_partial_charge
H0 H 0.25755 0.2412 0.16991 0.0
C1 C 0.24013 0.23123 0.1834 0.0
C2 C 0.23796 0.20362 0.19092 0.0
C3 C 0.22095 0.24671 0.19424 0.0
H4 H 0.21476 0.17056 0.21603 0.0
C5 C 0.21613 0.1916 0.2096 0.0
C6 C 0.19681 0.20684 0.22089 0.0
C7 C 0.19912 0.23433 0.21266 0.0
C8 C 0.22653 0.27689 0.18924 0.0
H9 H 0.18477 0.24653 0.22143 0.0
C10 C 0.20548 0.28873 0.17668 0.0
C11 C 0.21183 0.31755 0.17175 0.0
C12 C 0.25361 0.29404 0.19729 0.0
H13 H 0.26999 0.28537 0.20713 0.0
C14 C 0.25969 0.32253 0.19315 0.0
H15 H 0.18474 0.27543 0.17009 0.0
C16 C 0.23904 0.33423 0.18057 0.0
H17 H 0.24438 0.35651 0.17795 0.0
H18 H 0.28051 0.33562 0.19974 0.0
H19 H 0.28502 0.87465 0.74902 0.0
C20 C 0.29801 0.86206 0.73853 0.0
C21 C 0.32536 0.86087 0.74958 0.0
C22 C 0.2863 0.84519 0.71533 0.0
H23 H 0.3622 0.84213 0.74503 0.0
C24 C 0.34132 0.84336 0.73645 0.0
C25 C 0.33007 0.82657 0.71309 0.0
C26 C 0.30262 0.82783 0.70262 0.0
C27 C 0.25553 0.84243 0.70648 0.0
H28 H 0.29354 0.81481 0.68476 0.0
C29 C 0.24474 0.86556 0.69902 0.0
C30 C 0.21543 0.86181 0.69007 0.0
C31 C 0.23673 0.81576 0.70528 0.0
H32 H 0.24441 0.79773 0.71112 0.0
C33 C 0.20787 0.81201 0.69666 0.0
H34 H 0.25911 0.88618 0.69993 0.0
C35 C 0.19731 0.83473 0.689 0.0
H36 H 0.17496 0.83093 0.68166 0.0
H37 H 0.19366 0.79133 0.69568 0.0
H38 H 0.6538 0.44826 0.93209 0.0
C39 C 0.64677 0.42815 0.94132 0.0
C40 C 0.66761 0.41485 0.95166 0.0
C41 C 0.61684 0.41566 0.94295 0.0
H42 H 0.67413 0.37931 0.97307 0.0
C43 C 0.65816 0.38897 0.9639 0.0
C44 C 0.62839 0.37578 0.96503 0.0
C45 C 0.60788 0.38937 0.95448 0.0
C46 C 0.59478 0.42988 0.9325 0.0
H47 H 0.58486 0.37925 0.95454 0.0
C48 C 0.59808 0.44208 0.90651 0.0
C49 C 0.5768 0.45498 0.89622 0.0
C50 C 0.57009 0.43098 0.94838 0.0
H51 H 0.56715 0.42195 0.96858 0.0
C52 C 0.54906 0.44398 0.93845 0.0
H53 H 0.6171 0.44128 0.8942 0.0
C54 C 0.55229 0.45585 0.91253 0.0
H55 H 0.5353 0.46524 0.90506 0.0
H56 H 0.53008 0.44469 0.9508 0.0
H57 H 0.85004 0.74842 0.34473 0.0
C58 C 0.83718 0.73355 0.35846 0.0
C59 C 0.84206 0.73643 0.38729 0.0
C60 C 0.8142 0.71262 0.3473 0.0
H61 H 0.82801 0.71865 0.42669 0.0
C62 C 0.82447 0.71702 0.4045 0.0
C63 C 0.80094 0.69663 0.39359 0.0
C64 C 0.79596 0.69451 0.36496 0.0
C65 C 0.80789 0.71048 0.31731 0.0
H66 H 0.77767 0.67889 0.3564 0.0
C67 C 0.82797 0.70351 0.29854 0.0
C68 C 0.82082 0.69883 0.27018 0.0
C69 C 0.7809 0.71376 0.3076 0.0
H70 H 0.76512 0.71906 0.32183 0.0
C71 C 0.774 0.71004 0.27947 0.0
H72 H 0.84878 0.70104 0.30622 0.0
C73 C 0.79365 0.70242 0.26088 0.0
H74 H 0.78713 0.69854 0.23936 0.0
H75 H 0.75308 0.71249 0.27212 0.0
H76 H 0.82777 0.83685 0.92447 0.0
C77 C 0.83746 0.85074 0.90839 0.0
C78 C 0.8663 0.8519 0.90018 0.0
C79 C 0.82037 0.86625 0.89512 0.0
H80 H 0.89988 0.86936 0.87132 0.0
C81 C 0.87795 0.86895 0.87826 0.0
C82 C 0.86116 0.88468 0.8646 0.0
C83 C 0.83247 0.88353 0.87362 0.0
C84 C 0.78882 0.86139 0.90143 0.0
H85 H 0.81908 0.89519 0.86322 0.0
C86 C 0.77568 0.88345 0.9089 0.0
C87 C 0.74549 0.878 0.91437 0.0
C88 C 0.77158 0.83404 0.89954 0.0
H89 H 0.78116 0.8168 0.89364 0.0
C90 C 0.74178 0.82865 0.90481 0.0
H91 H 0.78882 0.9046 0.91046 0.0
C92 C 0.72879 0.8504 0.91215 0.0
H93 H 0.70564 0.84557 0.91655 0.0
H94 H 0.7287 0.80749 0.90325 0.0
H95 H 0.7374 0.19678 0.46343 0.0
C96 C 0.7302 0.19591 0.44204 0.0
C97 C 0.74507 0.18409 0.42143 0.0
C98 C 0.70562 0.20598 0.43554 0.0
H99 H 0.74558 0.17226 0.37811 0.0
C100 C 0.73503 0.1825 0.39387 0.0
C101 C 0.70997 0.19194 0.38705 0.0
C102 C 0.69588 0.20431 0.408 0.0
C103 C 0.68772 0.21421 0.45811 0.0
H104 H 0.67639 0.21135 0.40317 0.0
C105 C 0.68128 0.24071 0.45972 0.0
C106 C 0.66423 0.24782 0.48167 0.0
C107 C 0.6766 0.19478 0.4782 0.0
H108 H 0.68108 0.17424 0.47722 0.0
C109 C 0.65915 0.20138 0.4994 0.0
H110 H 0.69023 0.25586 0.44446 0.0
C111 C 0.65292 0.22757 0.50112 0.0
H112 H 0.639 0.23187 0.51771 0.0
H113 H 0.65037 0.18611 0.51456 0.0
H114 H 0.42824 0.73209 0.21522 0.0
C115 C 0.40499 0.72481 0.21137 0.0
C116 C 0.38873 0.74326 0.20215 0.0
C117 C 0.39157 0.69667 0.21488 0.0
H118 H 0.34622 0.74684 0.18859 0.0
C119 C 0.35883 0.73311 0.1967 0.0
C120 C 0.34525 0.70494 0.19971 0.0
C121 C 0.36163 0.68683 0.20942 0.0
C122 C 0.40969 0.67703 0.22093 0.0
H123 H 0.35161 0.66484 0.21098 0.0
C124 C 0.40922 0.66556 0.24711 0.0
C125 C 0.42749 0.64759 0.25296 0.0
C126 C 0.42808 0.67022 0.20038 0.0
H127 H 0.42865 0.67897 0.18009 0.0
C128 C 0.44582 0.65207 0.20586 0.0
H129 H 0.3949 0.67087 0.26287 0.0
C130 C 0.44567 0.64088 0.23197 0.0
H131 H 0.46032 0.62751 0.23589 0.0
H132 H 0.46001 0.64692 0.18993 0.0
H133 H 0.22613 0.41785 0.75581 0.0
C134 C 0.21398 0.40034 0.7433 0.0
C135 C 0.21593 0.40055 0.71426 0.0
C136 C 0.19724 0.37716 0.75646 0.0
H137 H 0.20097 0.37744 0.67619 0.0
C138 C 0.19965 0.37763 0.69854 0.0
C139 C 0.18228 0.3545 0.7114 0.0
C140 C 0.1815 0.3544 0.74042 0.0
C141 C 0.1968 0.37616 0.78703 0.0
H142 H 0.16888 0.33641 0.75069 0.0
C143 C 0.19057 0.39816 0.80324 0.0
C144 C 0.18875 0.39665 0.83225 0.0
C145 C 0.20199 0.35281 0.80006 0.0
H146 H 0.20707 0.33569 0.788 0.0
C147 C 0.20081 0.3514 0.8288 0.0
H148 H 0.18666 0.41621 0.79316 0.0
C149 C 0.19409 0.37304 0.84483 0.0
H150 H 0.19239 0.37093 0.86702 0.0
H151 H 0.20475 0.33328 0.83868 0.0
Dy152 Dy 0.03115 0.05866 0.51129 0.0
C153 C 0.97834 0.01372 0.61234 0.0
C154 C 0.05288 0.08421 0.46384 0.0
Dy155 Dy 0.99982 0.03936 0.56487 0.0
O156 O 0.06775 0.0741 0.48172 0.0
O157 O 0.02599 0.08051 0.47191 0.0
O158 O 0.05811 0.02709 0.51558 0.0
O159 O 0.04477 0.04604 0.55123 0.0
C160 C 0.05756 0.02773 0.54245 0.0
C161 C 0.97375 0.07109 0.53446 0.0
O162 O 0.02735 0.07975 0.58085 0.0
O163 O 0.04177 0.09798 0.53799 0.0
O164 O 0.96264 0.01822 0.59169 0.0
O165 O 0.00583 0.02311 0.607 0.0
O166 O 0.97351 0.07126 0.56132 0.0
O167 O 0.98594 0.05247 0.52508 0.0
O168 O 0.00332 0.01849 0.49528 0.0
O169 O 0.99182 0.99986 0.53843 0.0
C170 C 0.03999 0.10064 0.5653 0.0
C171 C 0.99243 0.99724 0.51103 0.0
Dy172 Dy 0.52891 0.06398 0.08766 0.0
C173 C 0.45287 0.00943 0.99891 0.0
C174 C 0.56056 0.0931 0.13117 0.0
Dy175 Dy 0.48668 0.04043 0.04025 0.0
O176 O 0.53702 0.07352 0.13311 0.0
O177 O 0.56699 0.09704 0.10522 0.0
O178 O 0.53161 0.02097 0.09737 0.0
O179 O 0.49198 0.02766 0.08235 0.0
C180 C 0.50522 0.00944 0.08918 0.0
C181 C 0.51132 0.09487 0.0386 0.0
O182 O 0.45505 0.04935 0.07144 0.0
O183 O 0.48992 0.08251 0.0956 0.0
O184 O 0.45937 0.03638 1.00145 0.0
O185 O 0.46458 0.99923 0.01925 0.0
O186 O 0.48504 0.08389 0.02973 0.0
O187 O 0.52371 0.07625 0.0457 0.0
O188 O 0.56133 0.05183 0.05881 0.0
O189 O 0.52705 0.0265 0.02734 0.0
C190 C 0.46219 0.0707 0.08944 0.0
C191 C 0.55427 0.03469 0.03684 0.0
Dy192 Dy 0.52635 0.5307 0.5617 0.0
C193 C 0.48229 0.62281 0.60761 0.0
C194 C 0.55191 0.48882 0.54399 0.0
Dy195 Dy 0.51087 0.58403 0.5876 0.0
O196 O 0.53508 0.48804 0.56534 0.0
O197 O 0.55474 0.51249 0.53215 0.0
O198 O 0.47853 0.51051 0.55776 0.0
O199 O 0.49381 0.53945 0.5904 0.0
C200 C 0.47136 0.52499 0.57844 0.0
C201 C 0.56601 0.59037 0.57052 0.0
O202 O 0.52296 0.56493 0.62549 0.0
O203 O 0.55015 0.5375 0.60275 0.0
O204 O 0.51021 0.62733 0.60348 0.0
O205 O 0.46996 0.59707 0.60082 0.0
O206 O 0.55851 0.60529 0.59069 0.0
O207 O 0.54357 0.57529 0.55903 0.0
O208 O 0.51188 0.54752 0.52333 0.0
O209 O 0.49255 0.5824 0.54439 0.0
C210 C 0.54205 0.54905 0.62574 0.0
C211 C 0.49705 0.56722 0.52229 0.0
Dy212 Dy 0.01971 0.54031 0.05109 0.0
C213 C 0.99816 0.64371 0.01201 0.0
C214 C 0.03813 0.49515 0.06876 0.0
Dy215 Dy 0.01519 0.59724 0.02791 0.0
O216 O 0.03175 0.51455 0.08464 0.0
O217 O 0.034 0.50012 0.04302 0.0
O218 O 0.98024 0.53999 0.07715 0.0
O219 O 0.00881 0.57804 0.06791 0.0
C220 C 0.98489 0.56698 0.07893 0.0
C221 C 0.05009 0.57054 1.00014 0.0
O222 O 0.05176 0.61222 0.05801 0.0
O223 O 0.06331 0.56914 0.06077 0.0
O224 O 0.01071 0.62829 0.99623 0.0
O225 O 0.99513 0.63392 0.03673 0.0
O226 O 0.05481 0.59755 1.0019 0.0
O227 O 0.02617 0.5596 0.01122 0.0
O228 O 0.98201 0.52481 0.02244 0.0
O229 O 0.97213 0.56829 0.01618 0.0
C230 C 0.06944 0.59649 0.06565 0.0
C231 C 0.96503 0.54066 0.01347 0.0
C232 C 0.16147 0.16645 0.24166 0.0
C233 C 0.17615 0.19474 0.24305 0.0
C234 C 0.14468 0.1544 0.26386 0.0
C235 C 0.1087 0.17029 0.32879 0.0
H236 H 0.12174 0.09951 0.35096 0.0
C237 C 0.04754 0.10855 0.42009 0.0
C238 C 0.06484 0.09715 0.43791 0.0
C239 C 0.05907 0.12035 0.39535 0.0
C240 C 0.11789 0.1193 0.34509 0.0
H241 H 0.18397 0.23264 0.26879 0.0
H242 H 0.15451 0.21168 0.30732 0.0
H243 H 0.14469 0.12048 0.30924 0.0
H244 H 0.10768 0.08925 0.44401 0.0
H245 H 0.12776 0.10976 0.401 0.0
H246 H 0.0824 0.16932 0.36511 0.0
C247 C 0.15577 0.19887 0.28895 0.0
C248 C 0.13078 0.13118 0.32098 0.0
C249 C 0.17265 0.21091 0.26678 0.0
C250 C 0.09382 0.09782 0.43063 0.0
C251 C 0.10525 0.10942 0.4059 0.0
C252 C 0.09563 0.1583 0.35287 0.0
C253 C 0.14207 0.17034 0.28799 0.0
C254 C 0.12663 0.15697 0.31267 0.0
C255 C 0.08802 0.12074 0.38789 0.0
C256 C 0.10041 0.13283 0.36149 0.0
H257 H 0.16328 0.15349 0.22352 0.0
H258 H 0.13399 0.13247 0.26226 0.0
H259 H 0.10487 0.19007 0.32286 0.0
H260 H 0.02511 0.10828 0.42521 0.0
H261 H 0.04517 0.12874 0.38185 0.0
C262 C 0.33533 0.90401 0.78095 0.0
C263 C 0.33643 0.87608 0.77602 0.0
C264 C 0.3465 0.91821 0.80568 0.0
C265 C 0.39701 0.91479 0.86397 0.0
H266 H 0.3592 0.96791 0.90029 0.0
C267 C 0.43406 0.96448 0.972 0.0
C268 C 0.43661 0.99329 0.9752 0.0
C269 C 0.42039 0.94972 0.94847 0.0
C270 C 0.37013 0.95327 0.89029 0.0
H271 H 0.34886 0.84082 0.7938 0.0
H272 H 0.36792 0.8653 0.83679 0.0
H273 H 0.33827 0.9434 0.85762 0.0
H274 H 0.42634 0.02916 0.95667 0.0
H275 H 0.40247 0.00349 0.91569 0.0
H276 H 0.4288 0.92459 0.89665 0.0
C277 C 0.35929 0.87661 0.82133 0.0
C278 C 0.35818 0.93926 0.86576 0.0
C279 C 0.3483 0.86253 0.79663 0.0
C280 C 0.42464 0.00694 0.95478 0.0
C281 C 0.41084 0.99219 0.93135 0.0
C282 C 0.40886 0.92868 0.88852 0.0
C283 C 0.35882 0.90473 0.82613 0.0
C284 C 0.37147 0.91983 0.85225 0.0
C285 C 0.40884 0.96346 0.92772 0.0
C286 C 0.39562 0.94813 0.90199 0.0
H287 H 0.32642 0.91505 0.76543 0.0
H288 H 0.34601 0.93992 0.80851 0.0
H289 H 0.40822 0.90041 0.85392 0.0
H290 H 0.44309 0.95343 0.98744 0.0
H291 H 0.41891 0.92754 0.94649 0.0
C292 C 0.57165 0.4919 0.86348 0.0
C293 C 0.57969 0.46681 0.86825 0.0
C294 C 0.57288 0.50226 0.83689 0.0
C295 C 0.57179 0.4789 0.76365 0.0
H296 H 0.59206 0.55816 0.75113 0.0
C297 C 0.56867 0.52162 0.65459 0.0
C298 C 0.55323 0.54264 0.65273 0.0
C299 C 0.57675 0.5138 0.6804 0.0
C300 C 0.58633 0.53597 0.75434 0.0
H301 H 0.59583 0.43317 0.84881 0.0
H302 H 0.59876 0.45165 0.8026 0.0
H303 H 0.59746 0.54164 0.79741 0.0
H304 H 0.53536 0.57277 0.67645 0.0
H305 H 0.54943 0.5591 0.72135 0.0
H306 H 0.56029 0.47326 0.72068 0.0
C307 C 0.59106 0.46311 0.81936 0.0
C308 C 0.58933 0.5265 0.78084 0.0
C309 C 0.58971 0.45269 0.84593 0.0
C310 C 0.54711 0.55641 0.67713 0.0
C311 C 0.55536 0.54872 0.70289 0.0
C312 C 0.56894 0.48836 0.73715 0.0
C313 C 0.58231 0.48784 0.81445 0.0
C314 C 0.58162 0.49787 0.7859 0.0
C315 C 0.56978 0.52699 0.70483 0.0
C316 C 0.5757 0.517 0.73232 0.0
H317 H 0.5642 0.50348 0.88028 0.0
H318 H 0.56566 0.5212 0.83383 0.0
H319 H 0.56523 0.45674 0.76686 0.0
H320 H 0.5738 0.51062 0.63619 0.0
H321 H 0.58812 0.49717 0.68127 0.0
C322 C 0.843 0.69677 0.22298 0.0
C323 C 0.84065 0.68852 0.2506 0.0
C324 C 0.85955 0.68513 0.20401 0.0
C325 C 0.8901 0.62294 0.1935 0.0
H326 H 0.93177 0.66499 0.13377 0.0
C327 C 0.94013 0.56852 0.10572 0.0
C328 C 0.96755 0.58228 0.09599 0.0
C329 C 0.92441 0.58246 0.12337 0.0
C330 C 0.92048 0.65298 0.15046 0.0
H331 H 0.8547 0.66196 0.27998 0.0
H332 H 0.88462 0.64283 0.24739 0.0
H333 H 0.90702 0.68822 0.16809 0.0
H334 H 0.99991 0.62148 0.09646 0.0
H335 H 0.97294 0.64567 0.12793 0.0
H336 H 0.90446 0.58801 0.17664 0.0
C337 C 0.87299 0.65772 0.24013 0.0
C338 C 0.90595 0.66624 0.16998 0.0
C339 C 0.85618 0.6691 0.259 0.0
C340 C 0.97873 0.61041 0.10365 0.0
C341 C 0.96318 0.6243 0.12157 0.0
C342 C 0.90484 0.60978 0.17419 0.0
C343 C 0.87444 0.66516 0.21226 0.0
C344 C 0.89052 0.65137 0.19173 0.0
C345 C 0.93596 0.61038 0.13195 0.0
C346 C 0.92013 0.62457 0.15234 0.0
H347 H 0.83174 0.712 0.21585 0.0
H348 H 0.85994 0.69125 0.18271 0.0
H349 H 0.87807 0.61065 0.20964 0.0
H350 H 0.93092 0.54688 0.09986 0.0
H351 H 0.90323 0.57125 0.13038 0.0
C352 C 0.26924 0.19009 0.15303 0.0
C353 C 0.25968 0.18808 0.18061 0.0
C354 C 0.29047 0.1764 0.14367 0.0
C355 C 0.34984 0.14564 0.16893 0.0
H356 H 0.34453 0.11169 0.09504 0.0
C357 C 0.4455 0.10715 0.11849 0.0
C358 C 0.4387 0.08261 0.10177 0.0
C359 C 0.42337 0.11917 0.12882 0.0
C360 C 0.34625 0.12082 0.11584 0.0
H361 H 0.26521 0.17006 0.21996 0.0
H362 H 0.30162 0.14569 0.20347 0.0
H363 H 0.30608 0.13348 0.11152 0.0
H364 H 0.40308 0.05114 0.08336 0.0
H365 H 0.36459 0.07184 0.10167 0.0
H366 H 0.38976 0.13254 0.17342 0.0
C367 C 0.29295 0.15812 0.18913 0.0
C368 C 0.32435 0.13365 0.12517 0.0
C369 C 0.27173 0.1718 0.1985 0.0
C370 C 0.40919 0.07012 0.09605 0.0
C371 C 0.38706 0.08211 0.10641 0.0
C372 C 0.37175 0.1328 0.1596 0.0
C373 C 0.30273 0.16035 0.16163 0.0
C374 C 0.32587 0.1463 0.15182 0.0
C375 C 0.39385 0.10694 0.12273 0.0
C376 C 0.37029 0.12026 0.1329 0.0
H377 H 0.26028 0.20226 0.13863 0.0
H378 H 0.29766 0.17886 0.12244 0.0
H379 H 0.35194 0.15542 0.18946 0.0
H380 H 0.46798 0.11742 0.12324 0.0
H381 H 0.42946 0.13845 0.14104 0.0
C382 C 0.17449 0.88626 0.68698 0.0
C383 C 0.2034 0.88536 0.68065 0.0
C384 C 0.16122 0.90534 0.67466 0.0
C385 C 0.13846 0.95279 0.65275 0.0
H386 H 0.15692 0.96674 0.57571 0.0
C387 C 0.07998 0.02075 0.58798 0.0
C388 C 0.07451 0.01305 0.5599 0.0
C389 C 0.0973 0.00764 0.60396 0.0
C390 C 0.15121 0.96287 0.59714 0.0
H391 H 0.24163 0.90527 0.6577 0.0
H392 H 0.21886 0.93942 0.63697 0.0
H393 H 0.18444 0.94043 0.60196 0.0
H394 H 0.08212 0.98514 0.52671 0.0
H395 H 0.11129 0.96157 0.55462 0.0
H396 H 0.10412 0.97384 0.64747 0.0
C397 C 0.20609 0.92469 0.65084 0.0
C398 C 0.16746 0.94815 0.61242 0.0
C399 C 0.21935 0.90536 0.66306 0.0
C400 C 0.08618 0.99166 0.54826 0.0
C401 C 0.10317 0.97833 0.56427 0.0
C402 C 0.12199 0.96724 0.63737 0.0
C403 C 0.17655 0.92444 0.65587 0.0
C404 C 0.16109 0.94253 0.64037 0.0
C405 C 0.10928 0.98629 0.59231 0.0
C406 C 0.12784 0.97217 0.60921 0.0
H407 H 0.16169 0.8715 0.70083 0.0
H408 H 0.13845 0.90417 0.67901 0.0
H409 H 0.13315 0.94939 0.67432 0.0
H410 H 0.07137 0.03729 0.59747 0.0
H411 H 0.10171 0.01465 0.62533 0.0
C412 C 0.70987 0.45654 0.95644 0.0
C413 C 0.69929 0.42794 0.95033 0.0
C414 C 0.73988 0.46823 0.95755 0.0
C415 C 0.80783 0.44901 0.97307 0.0
H416 H 0.84442 0.52115 0.94474 0.0
C417 C 0.92959 0.49868 0.99324 0.0
C418 C 0.93651 0.5272 1.0007 0.0
C419 C 0.90203 0.48588 0.9824 0.0
C420 C 0.83449 0.50106 0.95294 0.0
H421 H 0.71188 0.38957 0.93885 0.0
H422 H 0.76425 0.40993 0.94134 0.0
H423 H 0.79314 0.50033 0.93408 0.0
H424 H 0.92007 0.56475 1.00223 0.0
H425 H 0.87199 0.54237 0.98418 0.0
H426 H 0.84854 0.45008 0.99295 0.0
C427 C 0.7493 0.42318 0.94556 0.0
C428 C 0.80518 0.48915 0.94675 0.0
C429 C 0.71934 0.41154 0.94424 0.0
C430 C 0.91553 0.54275 0.99658 0.0
C431 C 0.88795 0.52993 0.98601 0.0
C432 C 0.83702 0.46102 0.9795 0.0
C433 C 0.75985 0.45152 0.9527 0.0
C434 C 0.79149 0.46319 0.95708 0.0
C435 C 0.88074 0.50128 0.97903 0.0
C436 C 0.85059 0.48739 0.96988 0.0
H437 H 0.69503 0.46969 0.96147 0.0
H438 H 0.74745 0.4901 0.96337 0.0
H439 H 0.7977 0.42912 0.98161 0.0
H440 H 0.94537 0.48617 0.99591 0.0
H441 H 0.89736 0.46386 0.97683 0.0
C442 C 0.74984 0.68017 0.40968 0.0
C443 C 0.77948 0.68016 0.41249 0.0
C444 C 0.72979 0.66785 0.42937 0.0
C445 C 0.71221 0.61618 0.48101 0.0
H446 H 0.66806 0.66562 0.51472 0.0
C447 C 0.61743 0.61822 0.56846 0.0
C448 C 0.59512 0.5963 0.55785 0.0
C449 C 0.64374 0.62622 0.55431 0.0
C450 C 0.68048 0.65166 0.5058 0.0
H451 H 0.81129 0.66631 0.43733 0.0
H452 H 0.77572 0.64393 0.47165 0.0
H453 H 0.70628 0.68366 0.48158 0.0
H454 H 0.58329 0.56459 0.52509 0.0
H455 H 0.62944 0.57825 0.50062 0.0
H456 H 0.68539 0.58386 0.50442 0.0
C457 C 0.76828 0.65377 0.45428 0.0
C458 C 0.70213 0.66192 0.48671 0.0
C459 C 0.78852 0.66657 0.43477 0.0
C460 C 0.60018 0.58146 0.53379 0.0
C461 C 0.62662 0.58922 0.51983 0.0
C462 C 0.69012 0.60575 0.49982 0.0
C463 C 0.73891 0.65495 0.45202 0.0
C464 C 0.71784 0.6442 0.47386 0.0
C465 C 0.64828 0.61219 0.52953 0.0
C466 C 0.67385 0.62338 0.51212 0.0
H467 H 0.74236 0.69078 0.3929 0.0
H468 H 0.70717 0.66883 0.42719 0.0
H469 H 0.72412 0.60219 0.47127 0.0
H470 H 0.61412 0.62991 0.58706 0.0
H471 H 0.66021 0.6439 0.56227 0.0
C472 C 0.20097 0.35231 0.1391 0.0
C473 C 0.19069 0.33072 0.15744 0.0
C474 C 0.18215 0.36721 0.1281 0.0
C475 C 0.10672 0.36753 0.11159 0.0
H476 H 0.13268 0.44744 0.12463 0.0
C477 C 0.05656 0.4518 0.06041 0.0
C478 C 0.05119 0.47276 0.07865 0.0
C479 C 0.07098 0.43198 0.06977 0.0
C480 C 0.1251 0.42517 0.12089 0.0
H481 H 0.15191 0.30685 0.17709 0.0
H482 H 0.11872 0.33265 0.1571 0.0
H483 H 0.16278 0.41691 0.14045 0.0
H484 H 0.05605 0.4891 0.12102 0.0
H485 H 0.08167 0.45496 0.13713 0.0
H486 H 0.06918 0.37607 0.09152 0.0
C487 C 0.1416 0.33807 0.15166 0.0
C488 C 0.1424 0.40772 0.12979 0.0
C489 C 0.1606 0.32328 0.16303 0.0
C490 C 0.0599 0.47319 0.10648 0.0
C491 C 0.07465 0.45372 0.11569 0.0
C492 C 0.08959 0.38512 0.10218 0.0
C493 C 0.1524 0.36068 0.1347 0.0
C494 C 0.13343 0.37874 0.12528 0.0
C495 C 0.08068 0.43312 0.09739 0.0
C496 C 0.09858 0.41411 0.1069 0.0
H497 H 0.22381 0.35811 0.1336 0.0
H498 H 0.19096 0.38421 0.11468 0.0
H499 H 0.09938 0.34526 0.10779 0.0
H500 H 0.0501 0.45103 0.03884 0.0
H501 H 0.07551 0.41641 0.0552 0.0
C502 C 0.63592 0.32796 0.9731 0.0
C503 C 0.61889 0.34767 0.97678 0.0
C504 C 0.62688 0.30144 0.98365 0.0
C505 C 0.57276 0.25935 0.03127 0.0
H506 H 0.58866 0.1977 0.98699 0.0
C507 C 0.50888 0.14422 0.03445 0.0
C508 C 0.52572 0.12449 0.03704 0.0
C509 C 0.52241 0.1722 0.03118 0.0
C510 C 0.5844 0.21479 0.9997 0.0
H511 H 0.57912 0.35483 0.99513 0.0
H512 H 0.56238 0.3081 0.01174 0.0
H513 H 0.60773 0.24511 0.97259 0.0
H514 H 0.56968 0.11827 0.03906 0.0
H515 H 0.5934 0.1673 0.03227 0.0
H516 H 0.54779 0.2284 0.05733 0.0
C517 C 0.58325 0.31337 1.00146 0.0
C518 C 0.59543 0.24201 0.99158 0.0
C519 C 0.5926 0.34012 0.99142 0.0
C520 C 0.55628 0.13317 0.03702 0.0
C521 C 0.56981 0.16108 0.03314 0.0
C522 C 0.56122 0.23204 0.03903 0.0
C523 C 0.6002 0.29362 0.99761 0.0
C524 C 0.58961 0.2647 0.00714 0.0
C525 C 0.55293 0.18071 0.02994 0.0
C526 C 0.56686 0.2096 0.0232 0.0
H527 H 0.65609 0.33275 0.96161 0.0
H528 H 0.64085 0.28706 0.98068 0.0
H529 H 0.56832 0.27622 0.04413 0.0
H530 H 0.48526 0.13797 0.0346 0.0
H531 H 0.50901 0.18702 0.02857 0.0
C532 C 0.85644 0.7735 0.42487 0.0
C533 C 0.86316 0.76116 0.39976 0.0
C534 C 0.87519 0.79733 0.43626 0.0
C535 C 0.92564 0.86007 0.41821 0.0
H536 H 0.94853 0.8651 0.49562 0.0
C537 C 0.98875 0.96378 0.47035 0.0
C538 C 0.98102 0.96947 0.49764 0.0
C539 C 0.97822 0.93742 0.4578 0.0
C540 C 0.94209 0.86418 0.47404 0.0
H541 H 0.89535 0.76456 0.36714 0.0
H542 H 0.92755 0.80725 0.38665 0.0
H543 H 0.92349 0.82028 0.47467 0.0
H544 H 0.95599 0.95207 0.5331 0.0
H545 H 0.93672 0.90656 0.51098 0.0
H546 H 0.94256 0.90411 0.41778 0.0
C547 C 0.90779 0.79786 0.39752 0.0
C548 C 0.92802 0.83845 0.46203 0.0
C549 C 0.88926 0.77355 0.38633 0.0
C550 C 0.96251 0.94829 0.5121 0.0
C551 C 0.95166 0.92208 0.49945 0.0
C552 C 0.93932 0.88593 0.43032 0.0
C553 C 0.90085 0.80988 0.4226 0.0
C554 C 0.91924 0.83627 0.43416 0.0
C555 C 0.95941 0.91624 0.47214 0.0
C556 C 0.94721 0.88841 0.45856 0.0
H557 H 0.83618 0.76534 0.43548 0.0
H558 H 0.86909 0.80653 0.45536 0.0
H559 H 0.91876 0.85891 0.39673 0.0
H560 H 0.00325 0.9796 0.45874 0.0
H561 H 0.98505 0.93363 0.43693 0.0
C562 C 0.33083 0.77903 0.69317 0.0
C563 C 0.34599 0.80629 0.7009 0.0
C564 C 0.34574 0.75956 0.68275 0.0
C565 C 0.41534 0.75306 0.65063 0.0
H566 H 0.39218 0.67724 0.67514 0.0
C567 C 0.48245 0.67115 0.625 0.0
C568 C 0.46688 0.64385 0.61823 0.0
C569 C 0.46789 0.69111 0.63497 0.0
C570 C 0.39873 0.69822 0.6678 0.0
H571 H 0.38881 0.83447 0.70325 0.0
H572 H 0.41491 0.80038 0.68539 0.0
H573 H 0.36661 0.71179 0.69243 0.0
H574 H 0.42393 0.61598 0.61648 0.0
H575 H 0.39841 0.65083 0.63359 0.0
H576 H 0.44746 0.73945 0.62597 0.0
C577 C 0.3914 0.79414 0.68719 0.0
C578 C 0.38404 0.71807 0.67774 0.0
C579 C 0.37647 0.81362 0.69768 0.0
C580 C 0.43649 0.63686 0.62162 0.0
C581 C 0.42191 0.65681 0.63158 0.0
C582 C 0.43003 0.73318 0.64066 0.0
C583 C 0.37623 0.76679 0.67976 0.0
C584 C 0.3921 0.74574 0.66925 0.0
C585 C 0.43742 0.68422 0.63839 0.0
C586 C 0.42188 0.70548 0.64908 0.0
H587 H 0.30741 0.7725 0.69569 0.0
H588 H 0.33329 0.73882 0.67694 0.0
H589 H 0.42189 0.77406 0.64335 0.0
H590 H 0.50592 0.67709 0.62266 0.0
H591 H 0.48061 0.71187 0.64034 0.0
C592 C 0.90243 0.9146 0.83827 0.0
C593 C 0.87288 0.90045 0.83966 0.0
C594 C 0.91381 0.92762 0.81408 0.0
C595 C 0.89855 0.92693 0.73857 0.0
H596 H 0.95799 0.99607 0.74133 0.0
C597 C 0.93648 0.9897 0.64108 0.0
C598 C 0.9666 0.00062 0.63827 0.0
C599 C 0.92521 0.97766 0.66573 0.0
C600 C 0.94159 0.97662 0.74022 0.0
H601 H 0.83212 0.88933 0.81647 0.0
H602 H 0.85161 0.91287 0.77488 0.0
H603 H 0.93767 0.97558 0.78431 0.0
H604 H 0.00859 0.00754 0.65894 0.0
H605 H 0.98892 0.98656 0.70211 0.0
H606 H 0.90228 0.92818 0.69446 0.0
C607 C 0.86621 0.91344 0.79229 0.0
C608 C 0.92994 0.96483 0.76488 0.0
C609 C 0.85488 0.90029 0.8164 0.0
C610 C 0.98527 0.99929 0.66056 0.0
C611 C 0.97398 0.98743 0.68531 0.0
C612 C 0.91005 0.93882 0.71394 0.0
C613 C 0.89592 0.92698 0.79064 0.0
C614 C 0.90825 0.9398 0.7644 0.0
C615 C 0.94381 0.97645 0.68818 0.0
C616 C 0.93172 0.96379 0.71446 0.0
H617 H 0.9169 0.91545 0.85585 0.0
H618 H 0.93683 0.93762 0.81359 0.0
H619 H 0.88235 0.90736 0.7373 0.0
H620 H 0.92157 0.99052 0.62424 0.0
H621 H 0.90185 0.96966 0.66735 0.0
C622 C 0.66628 0.17547 0.35602 0.0
C623 C 0.69655 0.18615 0.3589 0.0
C624 C 0.65337 0.16896 0.3299 0.0
C625 C 0.66975 0.15265 0.25702 0.0
H626 H 0.59167 0.16291 0.24487 0.0
C627 C 0.60592 0.12419 0.15236 0.0
C628 C 0.57746 0.10779 0.15525 0.0
C629 C 0.62204 0.13679 0.17573 0.0
C630 C 0.61347 0.1599 0.24794 0.0
H631 H 0.737 0.19844 0.3364 0.0
H632 H 0.71436 0.18743 0.29051 0.0
H633 H 0.61717 0.17984 0.28815 0.0
H634 H 0.54338 0.09208 0.18462 0.0
H635 H 0.57115 0.11434 0.22515 0.0
H636 H 0.66579 0.13266 0.21659 0.0
C637 C 0.70064 0.18377 0.3086 0.0
C638 C 0.62808 0.16948 0.27282 0.0
C639 C 0.71363 0.19017 0.33488 0.0
C640 C 0.56525 0.10463 0.18176 0.0
C641 C 0.58111 0.1175 0.20497 0.0
C642 C 0.65518 0.14328 0.23195 0.0
C643 C 0.6703 0.17305 0.30577 0.0
C644 C 0.65615 0.16539 0.27803 0.0
C645 C 0.60974 0.13357 0.20229 0.0
C646 C 0.62662 0.14624 0.22742 0.0
H647 H 0.65253 0.17142 0.37408 0.0
H648 H 0.6301 0.16006 0.32871 0.0
H649 H 0.69121 0.1489 0.26031 0.0
H650 H 0.61586 0.12689 0.13214 0.0
H651 H 0.64402 0.14915 0.17305 0.0
C652 C 0.43175 0.60948 0.28458 0.0
C653 C 0.42876 0.6368 0.28113 0.0
C654 C 0.43576 0.60017 0.31091 0.0
C655 C 0.42793 0.6143 0.38552 0.0
H656 H 0.4921 0.57817 0.39296 0.0
C657 C 0.47605 0.59769 0.49175 0.0
C658 C 0.48601 0.57332 0.49511 0.0
C659 C 0.46676 0.60401 0.46583 0.0
C660 C 0.47378 0.58778 0.39124 0.0
H661 H 0.42684 0.67551 0.30281 0.0
H662 H 0.43346 0.65908 0.34882 0.0
H663 H 0.47907 0.59128 0.34748 0.0
H664 H 0.49311 0.53603 0.47402 0.0
H665 H 0.47628 0.54672 0.42901 0.0
H666 H 0.42258 0.61077 0.4293 0.0
C667 C 0.43256 0.64485 0.33111 0.0
C668 C 0.46636 0.59534 0.36515 0.0
C669 C 0.42871 0.65424 0.30474 0.0
C670 C 0.48586 0.55512 0.47211 0.0
C671 C 0.47633 0.56132 0.44624 0.0
C672 C 0.43521 0.60654 0.41164 0.0
C673 C 0.43669 0.6179 0.33439 0.0
C674 C 0.44349 0.60882 0.36202 0.0
C675 C 0.46697 0.586 0.4427 0.0
C676 C 0.45836 0.59334 0.41484 0.0
H677 H 0.43131 0.59534 0.26688 0.0
H678 H 0.4384 0.57913 0.31288 0.0
H679 H 0.41003 0.62445 0.38366 0.0
H680 H 0.47599 0.61224 0.50902 0.0
H681 H 0.4601 0.62339 0.46381 0.0
C682 C 0.15801 0.43143 0.83982 0.0
C683 C 0.17991 0.41888 0.84929 0.0
C684 C 0.14815 0.45083 0.85661 0.0
C685 C 0.14142 0.5011 0.89241 0.0
H686 H 0.1193 0.47807 0.96681 0.0
C687 C 0.09401 0.56899 0.97177 0.0
C688 C 0.06828 0.55493 0.98456 0.0
C689 C 0.1107 0.55414 0.95622 0.0
C690 C 0.12548 0.48479 0.94613 0.0
H691 H 0.2095 0.41794 0.88347 0.0
H692 H 0.1917 0.45136 0.91303 0.0
H693 H 0.14364 0.44967 0.93706 0.0
H694 H 0.03967 0.5145 0.99104 0.0
H695 H 0.06914 0.48849 0.96449 0.0
H696 H 0.1227 0.53595 0.90135 0.0
C697 C 0.18213 0.44598 0.89262 0.0
C698 C 0.13961 0.46869 0.9292 0.0
C699 C 0.19222 0.42678 0.87572 0.0
C700 C 0.05968 0.5258 0.98182 0.0
C701 C 0.07653 0.51094 0.96661 0.0
C702 C 0.12758 0.51738 0.90947 0.0
C703 C 0.15976 0.45793 0.88335 0.0
C704 C 0.14727 0.47644 0.90202 0.0
C705 C 0.10208 0.52497 0.9535 0.0
C706 C 0.11903 0.5091 0.93631 0.0
H707 H 0.14767 0.42555 0.8198 0.0
H708 H 0.13061 0.45945 0.84908 0.0
H709 H 0.14726 0.50761 0.8716 0.0
H710 H 0.10109 0.59147 0.97356 0.0
H711 H 0.13038 0.56542 0.94641 0.0
C712 C 0.70415 0.90151 0.9109 0.0
C713 C 0.73089 0.90045 0.92311 0.0
C714 C 0.68769 0.91936 0.92181 0.0
C715 C 0.68847 0.97982 0.96991 0.0
H716 H 0.60618 0.94445 0.97564 0.0
C717 C 0.60532 0.02707 0.03398 0.0
C718 C 0.57717 0.02342 0.02253 0.0
C719 C 0.6259 0.01436 0.02128 0.0
C720 C 0.62901 0.95484 0.97391 0.0
H721 H 0.76214 0.91836 0.95543 0.0
H722 H 0.73317 0.94963 0.97478 0.0
H723 H 0.63898 0.91898 0.95405 0.0
H724 H 0.54914 0.00455 0.988 0.0
H725 H 0.58488 0.98293 0.9659 0.0
H726 H 0.67823 0.01571 0.9901 0.0
C727 C 0.72504 0.93672 0.95661 0.0
C728 C 0.64787 0.94021 0.96147 0.0
C729 C 0.74166 0.91886 0.94553 0.0
C730 C 0.57045 0.0076 0.99765 0.0
C731 C 0.59095 0.99503 0.98499 0.0
C732 C 0.66949 0.99455 0.98242 0.0
C733 C 0.69742 0.93652 0.94537 0.0
C734 C 0.6778 0.95254 0.95902 0.0
C735 C 0.61874 0.99776 0.99689 0.0
C736 C 0.63945 0.98229 0.98431 0.0
H737 H 0.69552 0.88785 0.89333 0.0
H738 H 0.6669 0.9192 0.91216 0.0
H739 H 0.71138 0.98995 0.96831 0.0
H740 H 0.61124 0.03909 0.05313 0.0
H741 H 0.64706 0.0168 0.03107 0.0
C742 C 0.79616 0.17722 0.41524 0.0
C743 C 0.7695 0.17144 0.42941 0.0
C744 C 0.81955 0.16647 0.42418 0.0
C745 C 0.84557 0.13772 0.487 0.0
H746 H 0.90094 0.11545 0.43701 0.0
C747 C 0.94677 0.10836 0.53047 0.0
C748 C 0.95521 0.0853 0.51835 0.0
C749 C 0.92644 0.1202 0.51738 0.0
C750 C 0.88557 0.12139 0.45126 0.0
H751 H 0.74584 0.14846 0.4629 0.0
H752 H 0.78599 0.12924 0.478 0.0
H753 H 0.86003 0.13191 0.4183 0.0
H754 H 0.95001 0.0572 0.48237 0.0
H755 H 0.9136 0.07734 0.45968 0.0
H756 H 0.87009 0.12634 0.51987 0.0
C757 C 0.78947 0.14289 0.46066 0.0
C758 C 0.86226 0.13116 0.44053 0.0
C759 C 0.76633 0.15383 0.45194 0.0
C760 C 0.94386 0.07501 0.49217 0.0
C761 C 0.92306 0.08664 0.47917 0.0
C762 C 0.86862 0.12784 0.49765 0.0
C763 C 0.81664 0.14948 0.44732 0.0
C764 C 0.84185 0.13935 0.45829 0.0
C765 C 0.91351 0.10897 0.49198 0.0
C766 C 0.88907 0.11962 0.48002 0.0
H767 H 0.79922 0.19075 0.39779 0.0
H768 H 0.84013 0.17217 0.41345 0.0
H769 H 0.83073 0.14425 0.50145 0.0
H770 H 0.95549 0.11697 0.55047 0.0
H771 H 0.92046 0.1379 0.52754 0.0
C772 C 0.307 0.70205 0.16349 0.0
C773 C 0.31495 0.69424 0.1895 0.0
C774 C 0.2786 0.69262 0.1535 0.0
C775 C 0.21255 0.63687 0.16041 0.0
H776 H 0.17888 0.68576 0.11633 0.0
C777 C 0.11807 0.59431 0.08449 0.0
C778 C 0.09648 0.60931 0.08118 0.0
C779 C 0.14295 0.60551 0.10042 0.0
C780 C 0.18769 0.67191 0.12891 0.0
H781 H 0.29958 0.67017 0.22536 0.0
H782 H 0.2494 0.65364 0.20789 0.0
H783 H 0.22489 0.70417 0.14065 0.0
H784 H 0.08403 0.64787 0.09197 0.0
H785 H 0.12743 0.66735 0.1202 0.0
H786 H 0.17516 0.60469 0.14893 0.0
C787 C 0.26532 0.66702 0.19522 0.0
C788 C 0.21427 0.68239 0.14258 0.0
C789 C 0.29396 0.67644 0.20523 0.0
C790 C 0.10042 0.63591 0.09394 0.0
C791 C 0.12528 0.64705 0.11011 0.0
C792 C 0.18585 0.62643 0.14688 0.0
C793 C 0.25735 0.67515 0.16927 0.0
C794 C 0.22739 0.66481 0.15786 0.0
C795 C 0.14676 0.63189 0.11365 0.0
C796 C 0.17349 0.64366 0.13038 0.0
H797 H 0.32292 0.71522 0.15062 0.0
H798 H 0.27348 0.69863 0.1331 0.0
H799 H 0.22208 0.62275 0.17193 0.0
H800 H 0.1158 0.57384 0.07475 0.0
H801 H 0.15938 0.59355 0.1021 0.0
C802 C 0.26429 0.43523 0.71237 0.0
C803 C 0.2368 0.42333 0.70033 0.0
C804 C 0.28553 0.4536 0.69772 0.0
C805 C 0.31142 0.46203 0.62909 0.0
H806 H 0.36095 0.53194 0.65629 0.0
C807 C 0.41742 0.50926 0.57264 0.0
C808 C 0.44167 0.52105 0.58948 0.0
C809 C 0.38936 0.50343 0.58373 0.0
C810 C 0.34753 0.51231 0.64845 0.0
H811 H 0.20952 0.42341 0.66409 0.0
H812 H 0.24736 0.45435 0.63801 0.0
H813 H 0.31687 0.51085 0.68154 0.0
H814 H 0.45585 0.53698 0.63072 0.0
H815 H 0.40736 0.52537 0.65056 0.0
H816 H 0.34279 0.46184 0.59746 0.0
C817 C 0.25215 0.44944 0.65891 0.0
C818 C 0.32215 0.50046 0.6628 0.0
C819 C 0.23065 0.43152 0.67379 0.0
C820 C 0.43742 0.52784 0.61732 0.0
C821 C 0.40948 0.5214 0.6286 0.0
C822 C 0.33707 0.47349 0.61511 0.0
C823 C 0.27994 0.46011 0.67056 0.0
C824 C 0.30421 0.47499 0.65347 0.0
C825 C 0.38506 0.50859 0.61209 0.0
C826 C 0.35587 0.4985 0.62492 0.0
H827 H 0.27013 0.42922 0.73252 0.0
H828 H 0.30696 0.46134 0.70698 0.0
H829 H 0.29809 0.44215 0.62173 0.0
H830 H 0.42019 0.50426 0.55096 0.0
H831 H 0.37113 0.49435 0.57011 0.0
C832 C 0.90007 0.81924 0.89717 0.0
C833 C 0.88332 0.83379 0.91335 0.0
C834 C 0.91447 0.80083 0.90929 0.0
C835 C 0.9118 0.75764 0.97044 0.0
H836 H 0.9887 0.7519 0.94641 0.0
C837 C 0.97287 0.68254 0.02069 0.0
C838 C 0.98749 0.66772 0.00256 0.0
C839 C 0.96171 0.70446 0.01118 0.0
C840 C 0.96711 0.75305 0.9532 0.0
H841 H 0.86947 0.84101 0.95518 0.0
H842 H 0.89453 0.80885 0.97629 0.0
H843 H 0.96661 0.78717 0.92723 0.0
H844 H 1.00216 0.66429 0.9604 0.0
H845 H 0.98249 0.70219 0.94372 0.0
H846 H 0.91207 0.72325 0.99608 0.0
C847 C 0.89617 0.81139 0.95415 0.0
C848 C 0.95445 0.77331 0.9422 0.0
C849 C 0.88183 0.82985 0.94204 0.0
C850 C 0.99108 0.67543 0.97488 0.0
C851 C 0.97995 0.69729 0.96536 0.0
C852 C 0.92443 0.73733 0.9814 0.0
C853 C 0.91245 0.79644 0.93789 0.0
C854 C 0.92653 0.77572 0.95051 0.0
C855 C 0.96495 0.71201 0.98332 0.0
C856 C 0.95215 0.7346 0.97275 0.0
H857 H 0.90132 0.82136 0.87496 0.0
H858 H 0.92647 0.78938 0.89608 0.0
H859 H 0.8901 0.75863 0.97703 0.0
H860 H 0.96983 0.67703 0.04216 0.0
H861 H 0.9506 0.71554 0.02567 0.0
C862 C 0.38859 0.79383 0.19904 0.0
C863 C 0.40311 0.7722 0.19495 0.0
C864 C 0.39959 0.81982 0.18787 0.0
C865 C 0.44881 0.8517 0.13209 0.0
H866 H 0.43828 0.92087 0.16605 0.0
C867 C 0.50791 0.96122 0.09871 0.0
C868 C 0.49091 0.98078 0.09594 0.0
C869 C 0.49564 0.93504 0.1088 0.0
C870 C 0.44101 0.90161 0.15624 0.0
H871 H 0.44169 0.76164 0.17743 0.0
H872 H 0.46174 0.80737 0.15946 0.0
H873 H 0.42235 0.87759 0.19046 0.0
H874 H 0.44765 0.98832 0.10056 0.0
H875 H 0.42619 0.94241 0.11897 0.0
H876 H 0.46851 0.87611 0.09836 0.0
C877 C 0.4412 0.80392 0.17033 0.0
C878 C 0.43192 0.87682 0.17018 0.0
C879 C 0.42997 0.7778 0.18114 0.0
C880 C 0.46113 0.97347 0.10244 0.0
C881 C 0.44895 0.94739 0.11311 0.0
C882 C 0.45829 0.87653 0.11839 0.0
C883 C 0.42565 0.82496 0.17273 0.0
C884 C 0.43579 0.85154 0.15831 0.0
C885 C 0.46628 0.92818 0.11675 0.0
C886 C 0.45449 0.90167 0.13036 0.0
H887 H 0.36811 0.79037 0.21004 0.0
H888 H 0.38694 0.83542 0.19014 0.0
H889 H 0.45147 0.83258 0.12195 0.0
H890 H 0.53094 0.96647 0.09377 0.0
H891 H 0.50944 0.9206 0.11155 0.0
C892 C 0.17791 0.32068 0.67057 0.0
C893 C 0.16578 0.33001 0.69466 0.0
C894 C 0.16279 0.29709 0.65547 0.0
C895 C 0.1103 0.2317 0.664 0.0
H896 H 0.09918 0.23089 0.58449 0.0
C897 C 0.0434 0.13444 0.60544 0.0
C898 C 0.05284 0.12788 0.57905 0.0
C899 C 0.05584 0.15996 0.61878 0.0
C900 C 0.10245 0.23061 0.60663 0.0
H901 H 0.12774 0.32217 0.72116 0.0
H902 H 0.10194 0.28039 0.69529 0.0
H903 H 0.12379 0.27403 0.60902 0.0
H904 H 0.08267 0.14286 0.54585 0.0
H905 H 0.10528 0.18694 0.56953 0.0
H906 H 0.09019 0.18827 0.66181 0.0
C907 C 0.12315 0.29147 0.6882 0.0
C908 C 0.11639 0.25537 0.62064 0.0
C909 C 0.13803 0.3153 0.70306 0.0
C910 C 0.07484 0.14742 0.56615 0.0
C911 C 0.08767 0.17279 0.57969 0.0
C912 C 0.09681 0.20687 0.64999 0.0
C913 C 0.13547 0.28209 0.66438 0.0
C914 C 0.12036 0.25611 0.64945 0.0
C915 C 0.07842 0.17935 0.60625 0.0
C916 C 0.09262 0.20597 0.62111 0.0
H917 H 0.19942 0.33113 0.66371 0.0
H918 H 0.17286 0.29007 0.6373 0.0
H919 H 0.11349 0.23169 0.6862 0.0
H920 H 0.02619 0.11994 0.61576 0.0
H921 H 0.04762 0.16449 0.6389 0.0
C922 C 0.65734 0.28828 0.51165 0.0
C923 C 0.65821 0.27613 0.48501 0.0
C924 C 0.64913 0.31348 0.51552 0.0
C925 C 0.60972 0.36006 0.48062 0.0
H926 H 0.63812 0.4082 0.5447 0.0
C927 C 0.57777 0.46547 0.50837 0.0
C928 C 0.56612 0.46632 0.53506 0.0
C929 C 0.59096 0.44387 0.50008 0.0
C930 C 0.63005 0.39496 0.5267 0.0
H931 H 0.65233 0.28198 0.44133 0.0
H932 H 0.63918 0.32676 0.44797 0.0
H933 H 0.6595 0.3689 0.53338 0.0
H934 H 0.55943 0.44562 0.5741 0.0
H935 H 0.58332 0.40847 0.55993 0.0
H936 H 0.58067 0.38689 0.47388 0.0
C937 C 0.644 0.31622 0.46602 0.0
C938 C 0.64212 0.37226 0.52026 0.0
C939 C 0.65194 0.29068 0.46216 0.0
C940 C 0.56818 0.44543 0.55339 0.0
C941 C 0.58193 0.42427 0.54534 0.0
C942 C 0.59804 0.38317 0.48681 0.0
C943 C 0.64205 0.3278 0.49284 0.0
C944 C 0.6316 0.35396 0.49757 0.0
C945 C 0.59336 0.4232 0.51859 0.0
C946 C 0.60763 0.40042 0.51029 0.0
H947 H 0.66263 0.27808 0.52977 0.0
H948 H 0.64756 0.32125 0.53654 0.0
H949 H 0.60074 0.34643 0.46318 0.0
H950 H 0.57641 0.48132 0.49384 0.0
H951 H 0.59967 0.44352 0.47937 0.0
loop_
_geom_bond_atom_site_label_1
_geom_bond_atom_site_label_2
_geom_bond_distance
_geom_bond_site_symmetry_2
_ccdc_geom_bond_type
H0 C1 0.949 . S
C1 H0 0.949 . S
C1 C2 1.395 . S
C1 C3 1.391 . S
C2 C1 1.395 . S
C2 C5 1.390 . S
C3 C1 1.391 . S
C3 C7 1.387 . S
C3 C8 1.491 . S
H4 C5 0.950 . S
C5 C2 1.390 . S
C5 H4 0.950 . S
C5 C6 1.378 . S
C6 C5 1.378 . S
C6 C7 1.409 . S
C7 C3 1.387 . S
C7 C6 1.409 . S
C7 H9 0.951 . S
C8 C3 1.491 . S
C8 C10 1.382 . S
C8 C12 1.404 . S
H9 C7 0.951 . S
C10 C8 1.382 . S
C10 C11 1.390 . S
C10 H15 0.949 . S
C11 C10 1.390 . S
C11 C16 1.399 . S
C12 C8 1.404 . S
C12 H13 0.950 . S
C12 C14 1.375 . S
H13 C12 0.950 . S
C14 C12 1.375 . S
C14 C16 1.382 . S
C14 H18 0.950 . S
H15 C10 0.949 . S
C16 C11 1.399 . S
C16 C14 1.382 . S
C16 H17 0.952 . S
H17 C16 0.952 . S
H18 C14 0.950 . S
H19 C20 0.949 . S
C20 H19 0.949 . S
C20 C21 1.395 . S
C20 C22 1.391 . S
C21 C20 1.395 . S
C21 C24 1.390 . S
C22 C20 1.391 . S
C22 C26 1.387 . S
C22 C27 1.491 . S
H23 C24 0.950 . S
C24 C21 1.390 . S
C24 H23 0.950 . S
C24 C25 1.378 . S
C25 C24 1.378 . S
C25 C26 1.409 . S
C26 C22 1.387 . S
C26 C25 1.409 . S
C26 H28 0.951 . S
C27 C22 1.491 . S
C27 C29 1.382 . S
C27 C31 1.404 . S
H28 C26 0.951 . S
C29 C27 1.382 . S
C29 C30 1.390 . S
C29 H34 0.949 . S
C30 C29 1.390 . S
C30 C35 1.399 . S
C31 C27 1.404 . S
C31 H32 0.950 . S
C31 C33 1.375 . S
H32 C31 0.950 . S
C33 C31 1.375 . S
C33 C35 1.382 . S
C33 H37 0.950 . S
H34 C29 0.949 . S
C35 C30 1.399 . S
C35 C33 1.382 . S
C35 H36 0.952 . S
H36 C35 0.952 . S
H37 C33 0.950 . S
H38 C39 0.949 . S
C39 H38 0.949 . S
C39 C40 1.395 . S
C39 C41 1.391 . S
C40 C39 1.395 . S
C40 C43 1.390 . S
C41 C39 1.391 . S
C41 C45 1.387 . S
C41 C46 1.491 . S
H42 C43 0.950 . S
C43 C40 1.390 . S
C43 H42 0.950 . S
C43 C44 1.378 . S
C44 C43 1.378 . S
C44 C45 1.409 . S
C45 C41 1.387 . S
C45 C44 1.409 . S
C45 H47 0.951 . S
C46 C41 1.491 . S
C46 C48 1.382 . S
C46 C50 1.404 . S
H47 C45 0.951 . S
C48 C46 1.382 . S
C48 C49 1.390 . S
C48 H53 0.949 . S
C49 C48 1.390 . S
C49 C54 1.399 . S
C50 C46 1.404 . S
C50 H51 0.950 . S
C50 C52 1.375 . S
H51 C50 0.950 . S
C52 C50 1.375 . S
C52 C54 1.382 . S
C52 H56 0.950 . S
H53 C48 0.949 . S
C54 C49 1.399 . S
C54 C52 1.382 . S
C54 H55 0.952 . S
H55 C54 0.952 . S
H56 C52 0.950 . S
H57 C58 0.949 . S
C58 H57 0.949 . S
C58 C59 1.395 . S
C58 C60 1.391 . S
C59 C58 1.395 . S
C59 C62 1.390 . S
C60 C58 1.391 . S
C60 C64 1.387 . S
C60 C65 1.491 . S
H61 C62 0.950 . S
C62 C59 1.390 . S
C62 H61 0.950 . S
C62 C63 1.378 . S
C63 C62 1.378 . S
C63 C64 1.409 . S
C64 C60 1.387 . S
C64 C63 1.409 . S
C64 H66 0.951 . S
C65 C60 1.491 . S
C65 C67 1.382 . S
C65 C69 1.404 . S
H66 C64 0.951 . S
C67 C65 1.382 . S
C67 C68 1.390 . S
C67 H72 0.949 . S
C68 C67 1.390 . S
C68 C73 1.399 . S
C69 C65 1.404 . S
C69 H70 0.950 . S
C69 C71 1.375 . S
H70 C69 0.950 . S
C71 C69 1.375 . S
C71 C73 1.382 . S
C71 H75 0.950 . S
H72 C67 0.949 . S
C73 C68 1.399 . S
C73 C71 1.382 . S
C73 H74 0.952 . S
H74 C73 0.952 . S
H75 C71 0.950 . S
H76 C77 0.949 . S
C77 H76 0.949 . S
C77 C78 1.395 . S
C77 C79 1.391 . S
C78 C77 1.395 . S
C78 C81 1.390 . S
C79 C77 1.391 . S
C79 C83 1.387 . S
C79 C84 1.491 . S
H80 C81 0.950 . S
C81 C78 1.390 . S
C81 H80 0.950 . S
C81 C82 1.378 . S
C82 C81 1.378 . S
C82 C83 1.409 . S
C83 C79 1.387 . S
C83 C82 1.409 . S
C83 H85 0.951 . S
C84 C79 1.491 . S
C84 C86 1.382 . S
C84 C88 1.404 . S
H85 C83 0.951 . S
C86 C84 1.382 . S
C86 C87 1.390 . S
C86 H91 0.949 . S
C87 C86 1.390 . S
C87 C92 1.399 . S
C88 C84 1.404 . S
C88 H89 0.950 . S
C88 C90 1.375 . S
H89 C88 0.950 . S
C90 C88 1.375 . S
C90 C92 1.382 . S
C90 H94 0.950 . S
H91 C86 0.949 . S
C92 C87 1.399 . S
C92 C90 1.382 . S
C92 H93 0.952 . S
H93 C92 0.952 . S
H94 C90 0.950 . S
H95 C96 0.949 . S
C96 H95 0.949 . S
C96 C97 1.395 . S
C96 C98 1.391 . S
C97 C96 1.395 . S
C97 C100 1.390 . S
C98 C96 1.391 . S
C98 C102 1.387 . S
C98 C103 1.491 . S
H99 C100 0.950 . S
C100 C97 1.390 . S
C100 H99 0.950 . S
C100 C101 1.378 . S
C101 C100 1.378 . S
C101 C102 1.409 . S
C102 C98 1.387 . S
C102 C101 1.409 . S
C102 H104 0.951 . S
C103 C98 1.491 . S
C103 C105 1.382 . S
C103 C107 1.404 . S
H104 C102 0.951 . S
C105 C103 1.382 . S
C105 C106 1.390 . S
C105 H110 0.949 . S
C106 C105 1.390 . S
C106 C111 1.399 . S
C107 C103 1.404 . S
C107 H108 0.950 . S
C107 C109 1.375 . S
H108 C107 0.950 . S
C109 C107 1.375 . S
C109 C111 1.382 . S
C109 H113 0.950 . S
H110 C105 0.949 . S
C111 C106 1.399 . S
C111 C109 1.382 . S
C111 H112 0.952 . S
H112 C111 0.952 . S
H113 C109 0.950 . S
H114 C115 0.949 . S
C115 H114 0.949 . S
C115 C116 1.395 . S
C115 C117 1.391 . S
C116 C115 1.395 . S
C116 C119 1.390 . S
C117 C115 1.391 . S
C117 C121 1.387 . S
C117 C122 1.491 . S
H118 C119 0.950 . S
C119 C116 1.390 . S
C119 H118 0.950 . S
C119 C120 1.378 . S
C120 C119 1.378 . S
C120 C121 1.409 . S
C121 C117 1.387 . S
C121 C120 1.409 . S
C121 H123 0.951 . S
C122 C117 1.491 . S
C122 C124 1.382 . S
C122 C126 1.404 . S
H123 C121 0.951 . S
C124 C122 1.382 . S
C124 C125 1.390 . S
C124 H129 0.949 . S
C125 C124 1.390 . S
C125 C130 1.399 . S
C126 C122 1.404 . S
C126 H127 0.950 . S
C126 C128 1.375 . S
H127 C126 0.950 . S
C128 C126 1.375 . S
C128 C130 1.382 . S
C128 H132 0.950 . S
H129 C124 0.949 . S
C130 C125 1.399 . S
C130 C128 1.382 . S
C130 H131 0.952 . S
H131 C130 0.952 . S
H132 C128 0.950 . S
H133 C134 0.949 . S
C134 H133 0.949 . S
C134 C135 1.395 . S
C134 C136 1.391 . S
C135 C134 1.395 . S
C135 C138 1.390 . S
C136 C134 1.391 . S
C136 C140 1.387 . S
C136 C141 1.491 . S
H137 C138 0.950 . S
C138 C135 1.390 . S
C138 H137 0.950 . S
C138 C139 1.378 . S
C139 C138 1.378 . S
C139 C140 1.409 . S
C140 C136 1.387 . S
C140 C139 1.409 . S
C140 H142 0.951 . S
C141 C136 1.491 . S
C141 C143 1.382 . S
C141 C145 1.404 . S
H142 C140 0.951 . S
C143 C141 1.382 . S
C143 C144 1.390 . S
C143 H148 0.949 . S
C144 C143 1.390 . S
C144 C149 1.399 . S
C145 C141 1.404 . S
C145 H146 0.950 . S
C145 C147 1.375 . S
H146 C145 0.950 . S
C147 C145 1.375 . S
C147 C149 1.382 . S
C147 H151 0.950 . S
H148 C143 0.949 . S
C149 C144 1.399 . S
C149 C147 1.382 . S
C149 H150 0.952 . S
H150 C149 0.952 . S
H151 C147 0.950 . S
Dy152 O156 2.398 . S
Dy152 O157 2.491 . S
Dy152 O158 2.403 . S
Dy152 O159 2.664 . S
Dy152 O163 2.326 . S
Dy152 O167 2.310 1_455 S
Dy152 O168 2.352 1_545 S
C153 O164 1.185 . S
C153 O165 1.355 . S
C154 O156 1.185 . S
C154 O157 1.355 . S
Dy155 O159 2.310 1_655 S
Dy155 O162 2.351 1_655 S
Dy155 O164 2.398 1_545 S
Dy155 O165 2.491 1_545 S
Dy155 O166 2.403 . S
Dy155 O167 2.664 . S
Dy155 O169 2.326 1_545 S
O156 Dy152 2.398 . S
O156 C154 1.185 . S
O157 Dy152 2.491 . S
O157 C154 1.355 . S
O158 Dy152 2.403 . S
O158 C160 1.254 . S
O159 Dy152 2.664 . S
O159 Dy155 2.310 1_455 S
O159 C160 1.268 . S
C160 O158 1.254 . S
C160 O159 1.268 . S
C161 O166 1.254 . S
C161 O167 1.268 . S
O162 Dy155 2.351 1_455 S
O162 C170 1.249 . S
O163 Dy152 2.326 . S
O163 C170 1.267 . S
O164 C153 1.185 . S
O164 Dy155 2.398 1_565 S
O165 C153 1.355 . S
O165 Dy155 2.491 1_565 S
O166 Dy155 2.403 . S
O166 C161 1.254 . S
O167 Dy152 2.310 1_655 S
O167 Dy155 2.664 . S
O167 C161 1.268 . S
O168 Dy152 2.352 1_565 S
O168 C171 1.248 1_455 S
O169 Dy155 2.326 1_565 S
O169 C171 1.267 . S
C170 O162 1.249 . S
C170 O163 1.267 . S
C171 O168 1.248 1_655 S
C171 O169 1.267 . S
Dy172 O176 2.398 . S
Dy172 O177 2.491 . S
Dy172 O178 2.403 1_545 S
Dy172 O179 2.664 . S
Dy172 O183 2.326 . S
Dy172 O187 2.310 . S
Dy172 O188 2.351 . S
C173 O184 1.185 1_565 S
C173 O185 1.355 1_556 S
C174 O176 1.185 . S
C174 O177 1.355 . S
Dy175 O179 2.310 . S
Dy175 O182 2.351 . S
Dy175 O184 2.398 1_554 S
Dy175 O185 2.491 1_545 S
Dy175 O186 2.403 . S
Dy175 O187 2.664 . S
Dy175 O189 2.326 . S
O176 Dy172 2.398 . S
O176 C174 1.185 . S
O177 Dy172 2.491 . S
O177 C174 1.355 . S
O178 Dy172 2.403 1_565 S
O178 C180 1.254 . S
O179 Dy172 2.664 . S
O179 Dy175 2.310 . S
O179 C180 1.268 1_545 S
C180 O178 1.254 . S
C180 O179 1.268 1_565 S
C181 O186 1.254 . S
C181 O187 1.268 . S
O182 Dy175 2.351 . S
O182 C190 1.249 . S
O183 Dy172 2.326 . S
O183 C190 1.267 . S
O184 C173 1.185 1_545 S
O184 Dy175 2.398 1_556 S
O185 C173 1.355 1_554 S
O185 Dy175 2.491 1_565 S
O186 Dy175 2.403 . S
O186 C181 1.254 . S
O187 Dy172 2.310 . S
O187 Dy175 2.664 . S
O187 C181 1.268 . S
O188 Dy172 2.351 . S
O188 C191 1.249 . S
O189 Dy175 2.326 . S
O189 C191 1.267 . S
C190 O182 1.249 . S
C190 O183 1.267 . S
C191 O188 1.249 . S
C191 O189 1.267 . S
Dy192 O196 2.398 . S
Dy192 O197 2.491 . S
Dy192 O198 2.403 . S
Dy192 O199 2.664 . S
Dy192 O203 2.326 . S
Dy192 O207 2.310 . S
Dy192 O208 2.351 . S
C193 O204 1.185 . S
C193 O205 1.355 . S
C194 O196 1.185 . S
C194 O197 1.355 . S
Dy195 O199 2.310 . S
Dy195 O202 2.351 . S
Dy195 O204 2.398 . S
Dy195 O205 2.491 . S
Dy195 O206 2.403 . S
Dy195 O207 2.664 . S
Dy195 O209 2.326 . S
O196 Dy192 2.398 . S
O196 C194 1.185 . S
O197 Dy192 2.491 . S
O197 C194 1.355 . S
O198 Dy192 2.403 . S
O198 C200 1.254 . S
O199 Dy192 2.664 . S
O199 Dy195 2.310 . S
O199 C200 1.268 . S
C200 O198 1.254 . S
C200 O199 1.268 . S
C201 O206 1.254 . S
C201 O207 1.268 . S
O202 Dy195 2.351 . S
O202 C210 1.249 . S
O203 Dy192 2.326 . S
O203 C210 1.267 . S
O204 C193 1.185 . S
O204 Dy195 2.398 . S
O205 C193 1.355 . S
O205 Dy195 2.491 . S
O206 Dy195 2.403 . S
O206 C201 1.254 . S
O207 Dy192 2.310 . S
O207 Dy195 2.664 . S
O207 C201 1.268 . S
O208 Dy192 2.351 . S
O208 C211 1.249 . S
O209 Dy195 2.326 . S
O209 C211 1.267 . S
C210 O202 1.249 . S
C210 O203 1.267 . S
C211 O208 1.249 . S
C211 O209 1.267 . S
Dy212 O216 2.398 . S
Dy212 O217 2.491 . S
Dy212 O218 2.403 . S
Dy212 O219 2.664 . S
Dy212 O223 2.326 . S
Dy212 O227 2.310 . S
Dy212 O228 2.351 1_455 S
C213 O224 1.185 1_655 S
C213 O225 1.355 1_556 S
C214 O216 1.185 . S
C214 O217 1.355 . S
Dy215 O219 2.310 . S
Dy215 O222 2.351 . S
Dy215 O224 2.398 1_554 S
Dy215 O225 2.491 1_455 S
Dy215 O226 2.403 1_554 S
Dy215 O227 2.664 . S
Dy215 O229 2.326 1_454 S
O216 Dy212 2.398 . S
O216 C214 1.185 . S
O217 Dy212 2.491 . S
O217 C214 1.355 . S
O218 Dy212 2.403 . S
O218 C220 1.254 1_455 S
O219 Dy212 2.664 . S
O219 Dy215 2.310 . S
O219 C220 1.268 1_455 S
C220 O218 1.254 1_655 S
C220 O219 1.268 1_655 S
C221 O226 1.254 . S
C221 O227 1.268 1_556 S
O222 Dy215 2.351 . S
O222 C230 1.249 . S
O223 Dy212 2.326 . S
O223 C230 1.267 . S
O224 C213 1.185 1_455 S
O224 Dy215 2.398 1_556 S
O225 C213 1.355 1_554 S
O225 Dy215 2.491 1_655 S
O226 Dy215 2.403 1_556 S
O226 C221 1.254 . S
O227 Dy212 2.310 . S
O227 Dy215 2.664 . S
O227 C221 1.268 1_554 S
O228 Dy212 2.351 1_655 S
O228 C231 1.249 . S
O229 Dy215 2.326 1_656 S
O229 C231 1.267 1_556 S
C230 O222 1.249 . S
C230 O223 1.267 . S
C231 O228 1.249 . S
C231 O229 1.267 1_554 S
C232 C233 1.349 . S
C232 C234 1.327 . S
C232 H257 0.950 . S
C233 C232 1.349 . S
C233 C249 1.349 . S
C234 C232 1.327 . S
C234 C253 1.429 . S
C234 H258 0.950 . S
C235 C252 1.574 . S
C235 C254 1.368 . S
C235 H259 0.949 . S
H236 C240 0.949 . S
C237 C238 1.349 . S
C237 C239 1.327 . S
C237 H260 0.950 . S
C238 C237 1.349 . S
C238 C250 1.349 . S
C239 C237 1.327 . S
C239 C255 1.429 . S
C239 H261 0.950 . S
C240 H236 0.949 . S
C240 C248 1.574 . S
C240 C256 1.368 . S
H241 C249 0.950 . S
H242 C247 0.950 . S
H243 C248 0.949 . S
H244 C250 0.950 . S
H245 C251 0.950 . S
H246 C252 0.949 . S
C247 H242 0.950 . S
C247 C249 1.327 . S
C247 C253 1.429 . S
C248 C240 1.574 . S
C248 H243 0.949 . S
C248 C254 1.368 . S
C249 C233 1.349 . S
C249 H241 0.950 . S
C249 C247 1.327 . S
C250 C238 1.349 . S
C250 H244 0.950 . S
C250 C251 1.327 . S
C251 H245 0.950 . S
C251 C250 1.327 . S
C251 C255 1.429 . S
C252 C235 1.574 . S
C252 H246 0.949 . S
C252 C256 1.368 . S
C253 C234 1.429 . S
C253 C247 1.429 . S
C253 C254 1.523 . S
C254 C235 1.368 . S
C254 C248 1.368 . S
C254 C253 1.523 . S
C255 C239 1.429 . S
C255 C251 1.429 . S
C255 C256 1.523 . S
C256 C240 1.368 . S
C256 C252 1.368 . S
C256 C255 1.523 . S
H257 C232 0.950 . S
H258 C234 0.950 . S
H259 C235 0.949 . S
H260 C237 0.950 . S
H261 C239 0.950 . S
C262 C263 1.349 . S
C262 C264 1.327 . S
C262 H287 0.950 . S
C263 C262 1.349 . S
C263 C279 1.349 . S
C264 C262 1.327 . S
C264 C283 1.429 . S
C264 H288 0.950 . S
C265 C282 1.574 . S
C265 C284 1.368 . S
C265 H289 0.949 . S
H266 C270 0.949 . S
C267 C268 1.349 . S
C267 C269 1.327 . S
C267 H290 0.950 . S
C268 C267 1.349 . S
C268 C280 1.349 . S
C269 C267 1.327 . S
C269 C285 1.429 . S
C269 H291 0.950 . S
C270 H266 0.949 . S
C270 C278 1.574 . S
C270 C286 1.368 . S
H271 C279 0.950 . S
H272 C277 0.950 . S
H273 C278 0.949 . S
H274 C280 0.950 1_545 S
H275 C281 0.950 1_545 S
H276 C282 0.949 . S
C277 H272 0.950 . S
C277 C279 1.327 . S
C277 C283 1.429 . S
C278 C270 1.574 . S
C278 H273 0.949 . S
C278 C284 1.368 . S
C279 C263 1.349 . S
C279 H271 0.950 . S
C279 C277 1.327 . S
C280 C268 1.349 . S
C280 H274 0.950 1_565 S
C280 C281 1.327 . S
C281 H275 0.950 1_565 S
C281 C280 1.327 . S
C281 C285 1.429 . S
C282 C265 1.574 . S
C282 H276 0.949 . S
C282 C286 1.368 . S
C283 C264 1.429 . S
C283 C277 1.429 . S
C283 C284 1.523 . S
C284 C265 1.368 . S
C284 C278 1.368 . S
C284 C283 1.523 . S
C285 C269 1.429 . S
C285 C281 1.429 . S
C285 C286 1.523 . S
C286 C270 1.368 . S
C286 C282 1.368 . S
C286 C285 1.523 . S
H287 C262 0.950 . S
H288 C264 0.950 . S
H289 C265 0.949 . S
H290 C267 0.950 . S
H291 C269 0.950 . S
C292 C293 1.349 . S
C292 C294 1.327 . S
C292 H317 0.950 . S
C293 C292 1.349 . S
C293 C309 1.349 . S
C294 C292 1.327 . S
C294 C313 1.429 . S
C294 H318 0.950 . S
C295 C312 1.574 . S
C295 C314 1.368 . S
C295 H319 0.949 . S
H296 C300 0.949 . S
C297 C298 1.349 . S
C297 C299 1.327 . S
C297 H320 0.950 . S
C298 C297 1.349 . S
C298 C310 1.349 . S
C299 C297 1.327 . S
C299 C315 1.429 . S
C299 H321 0.950 . S
C300 H296 0.949 . S
C300 C308 1.574 . S
C300 C316 1.368 . S
H301 C309 0.950 . S
H302 C307 0.950 . S
H303 C308 0.949 . S
H304 C310 0.950 . S
H305 C311 0.950 . S
H306 C312 0.949 . S
C307 H302 0.950 . S
C307 C309 1.327 . S
C307 C313 1.429 . S
C308 C300 1.574 . S
C308 H303 0.949 . S
C308 C314 1.368 . S
C309 C293 1.349 . S
C309 H301 0.950 . S
C309 C307 1.327 . S
C310 C298 1.349 . S
C310 H304 0.950 . S
C310 C311 1.327 . S
C311 H305 0.950 . S
C311 C310 1.327 . S
C311 C315 1.429 . S
C312 C295 1.574 . S
C312 H306 0.949 . S
C312 C316 1.368 . S
C313 C294 1.429 . S
C313 C307 1.429 . S
C313 C314 1.523 . S
C314 C295 1.368 . S
C314 C308 1.368 . S
C314 C313 1.523 . S
C315 C299 1.429 . S
C315 C311 1.429 . S
C315 C316 1.523 . S
C316 C300 1.368 . S
C316 C312 1.368 . S
C316 C315 1.523 . S
H317 C292 0.950 . S
H318 C294 0.950 . S
H319 C295 0.949 . S
H320 C297 0.950 . S
H321 C299 0.950 . S
C322 C323 1.349 . S
C322 C324 1.327 . S
C322 H347 0.950 . S
C323 C322 1.349 . S
C323 C339 1.349 . S
C324 C322 1.327 . S
C324 C343 1.429 . S
C324 H348 0.950 . S
C325 C342 1.574 . S
C325 C344 1.368 . S
C325 H349 0.949 . S
H326 C330 0.949 . S
C327 C328 1.349 . S
C327 C329 1.327 . S
C327 H350 0.950 . S
C328 C327 1.349 . S
C328 C340 1.349 . S
C329 C327 1.327 . S
C329 C345 1.429 . S
C329 H351 0.950 . S
C330 H326 0.949 . S
C330 C338 1.574 . S
C330 C346 1.368 . S
H331 C339 0.950 . S
H332 C337 0.950 . S
H333 C338 0.949 . S
H334 C340 0.950 1_455 S
H335 C341 0.950 . S
H336 C342 0.949 . S
C337 H332 0.950 . S
C337 C339 1.327 . S
C337 C343 1.429 . S
C338 C330 1.574 . S
C338 H333 0.949 . S
C338 C344 1.368 . S
C339 C323 1.349 . S
C339 H331 0.950 . S
C339 C337 1.327 . S
C340 C328 1.349 . S
C340 H334 0.950 1_655 S
C340 C341 1.327 . S
C341 H335 0.950 . S
C341 C340 1.327 . S
C341 C345 1.429 . S
C342 C325 1.574 . S
C342 H336 0.949 . S
C342 C346 1.368 . S
C343 C324 1.429 . S
C343 C337 1.429 . S
C343 C344 1.523 . S
C344 C325 1.368 . S
C344 C338 1.368 . S
C344 C343 1.523 . S
C345 C329 1.429 . S
C345 C341 1.429 . S
C345 C346 1.523 . S
C346 C330 1.368 . S
C346 C342 1.368 . S
C346 C345 1.523 . S
H347 C322 0.950 . S
H348 C324 0.950 . S
H349 C325 0.949 . S
H350 C327 0.950 . S
H351 C329 0.950 . S
C352 C353 1.349 . S
C352 C354 1.327 . S
C352 H377 0.950 . S
C353 C352 1.349 . S
C353 C369 1.349 . S
C354 C352 1.327 . S
C354 C373 1.429 . S
C354 H378 0.950 . S
C355 C372 1.574 . S
C355 C374 1.368 . S
C355 H379 0.949 . S
H356 C360 0.949 . S
C357 C358 1.349 . S
C357 C359 1.327 . S
C357 H380 0.950 . S
C358 C357 1.349 . S
C358 C370 1.349 . S
C359 C357 1.327 . S
C359 C375 1.429 . S
C359 H381 0.950 . S
C360 H356 0.949 . S
C360 C368 1.574 . S
C360 C376 1.368 . S
H361 C369 0.950 . S
H362 C367 0.950 . S
H363 C368 0.949 . S
H364 C370 0.950 . S
H365 C371 0.950 . S
H366 C372 0.949 . S
C367 H362 0.950 . S
C367 C369 1.327 . S
C367 C373 1.429 . S
C368 C360 1.574 . S
C368 H363 0.949 . S
C368 C374 1.368 . S
C369 C353 1.349 . S
C369 H361 0.950 . S
C369 C367 1.327 . S
C370 C358 1.349 . S
C370 H364 0.950 . S
C370 C371 1.327 . S
C371 H365 0.950 . S
C371 C370 1.327 . S
C371 C375 1.429 . S
C372 C355 1.574 . S
C372 H366 0.949 . S
C372 C376 1.368 . S
C373 C354 1.429 . S
C373 C367 1.429 . S
C373 C374 1.523 . S
C374 C355 1.368 . S
C374 C368 1.368 . S
C374 C373 1.523 . S
C375 C359 1.429 . S
C375 C371 1.429 . S
C375 C376 1.523 . S
C376 C360 1.368 . S
C376 C372 1.368 . S
C376 C375 1.523 . S
H377 C352 0.950 . S
H378 C354 0.950 . S
H379 C355 0.949 . S
H380 C357 0.950 . S
H381 C359 0.950 . S
C382 C383 1.349 . S
C382 C384 1.327 . S
C382 H407 0.950 . S
C383 C382 1.349 . S
C383 C399 1.349 . S
C384 C382 1.327 . S
C384 C403 1.429 . S
C384 H408 0.950 . S
C385 C402 1.574 1_565 S
C385 C404 1.368 . S
C385 H409 0.949 1_565 S
H386 C390 0.949 . S
C387 C388 1.349 . S
C387 C389 1.327 . S
C387 H410 0.950 . S
C388 C387 1.349 . S
C388 C400 1.349 1_545 S
C389 C387 1.327 . S
C389 C405 1.429 1_545 S
C389 H411 0.950 . S
C390 H386 0.949 . S
C390 C398 1.574 . S
C390 C406 1.368 . S
H391 C399 0.950 . S
H392 C397 0.950 . S
H393 C398 0.949 . S
H394 C400 0.950 . S
H395 C401 0.950 . S
H396 C402 0.949 . S
C397 H392 0.950 . S
C397 C399 1.327 . S
C397 C403 1.429 . S
C398 C390 1.574 . S
C398 H393 0.949 . S
C398 C404 1.368 . S
C399 C383 1.349 . S
C399 H391 0.950 . S
C399 C397 1.327 . S
C400 C388 1.349 1_565 S
C400 H394 0.950 . S
C400 C401 1.327 . S
C401 H395 0.950 . S
C401 C400 1.327 . S
C401 C405 1.429 . S
C402 C385 1.574 1_545 S
C402 H396 0.949 . S
C402 C406 1.368 1_545 S
C403 C384 1.429 . S
C403 C397 1.429 . S
C403 C404 1.523 . S
C404 C385 1.368 . S
C404 C398 1.368 . S
C404 C403 1.523 . S
C405 C389 1.429 1_565 S
C405 C401 1.429 . S
C405 C406 1.523 . S
C406 C390 1.368 . S
C406 C402 1.368 1_565 S
C406 C405 1.523 . S
H407 C382 0.950 . S
H408 C384 0.950 . S
H409 C385 0.949 1_545 S
H410 C387 0.950 . S
H411 C389 0.950 . S
C412 C413 1.349 . S
C412 C414 1.327 . S
C412 H437 0.950 . S
C413 C412 1.349 . S
C413 C429 1.349 . S
C414 C412 1.327 . S
C414 C433 1.429 . S
C414 H438 0.950 . S
C415 C432 1.574 . S
C415 C434 1.368 . S
C415 H439 0.949 . S
H416 C420 0.949 . S
C417 C418 1.349 . S
C417 C419 1.327 . S
C417 H440 0.950 . S
C418 C417 1.349 . S
C418 C430 1.349 . S
C419 C417 1.327 . S
C419 C435 1.429 . S
C419 H441 0.950 . S
C420 H416 0.949 . S
C420 C428 1.574 . S
C420 C436 1.368 . S
H421 C429 0.950 . S
H422 C427 0.950 . S
H423 C428 0.949 . S
H424 C430 0.950 1_554 S
H425 C431 0.950 . S
H426 C432 0.949 . S
C427 H422 0.950 . S
C427 C429 1.327 . S
C427 C433 1.429 . S
C428 C420 1.574 . S
C428 H423 0.949 . S
C428 C434 1.368 . S
C429 C413 1.349 . S
C429 H421 0.950 . S
C429 C427 1.327 . S
C430 C418 1.349 . S
C430 H424 0.950 1_556 S
C430 C431 1.327 . S
C431 H425 0.950 . S
C431 C430 1.327 . S
C431 C435 1.429 . S
C432 C415 1.574 . S
C432 H426 0.949 . S
C432 C436 1.368 . S
C433 C414 1.429 . S
C433 C427 1.429 . S
C433 C434 1.523 . S
C434 C415 1.368 . S
C434 C428 1.368 . S
C434 C433 1.523 . S
C435 C419 1.429 . S
C435 C431 1.429 . S
C435 C436 1.523 . S
C436 C420 1.368 . S
C436 C432 1.368 . S
C436 C435 1.523 . S
H437 C412 0.950 . S
H438 C414 0.950 . S
H439 C415 0.949 . S
H440 C417 0.950 . S
H441 C419 0.950 . S
C442 C443 1.349 . S
C442 C444 1.327 . S
C442 H467 0.950 . S
C443 C442 1.349 . S
C443 C459 1.349 . S
C444 C442 1.327 . S
C444 C463 1.429 . S
C444 H468 0.950 . S
C445 C462 1.574 . S
C445 C464 1.368 . S
C445 H469 0.949 . S
H446 C450 0.949 . S
C447 C448 1.349 . S
C447 C449 1.327 . S
C447 H470 0.950 . S
C448 C447 1.349 . S
C448 C460 1.349 . S
C449 C447 1.327 . S
C449 C465 1.429 . S
C449 H471 0.950 . S
C450 H446 0.949 . S
C450 C458 1.574 . S
C450 C466 1.368 . S
H451 C459 0.950 . S
H452 C457 0.950 . S
H453 C458 0.949 . S
H454 C460 0.950 . S
H455 C461 0.950 . S
H456 C462 0.949 . S
C457 H452 0.950 . S
C457 C459 1.327 . S
C457 C463 1.429 . S
C458 C450 1.574 . S
C458 H453 0.949 . S
C458 C464 1.368 . S
C459 C443 1.349 . S
C459 H451 0.950 . S
C459 C457 1.327 . S
C460 C448 1.349 . S
C460 H454 0.950 . S
C460 C461 1.327 . S
C461 H455 0.950 . S
C461 C460 1.327 . S
C461 C465 1.429 . S
C462 C445 1.574 . S
C462 H456 0.949 . S
C462 C466 1.368 . S
C463 C444 1.429 . S
C463 C457 1.429 . S
C463 C464 1.523 . S
C464 C445 1.368 . S
C464 C458 1.368 . S
C464 C463 1.523 . S
C465 C449 1.429 . S
C465 C461 1.429 . S
C465 C466 1.523 . S
C466 C450 1.368 . S
C466 C462 1.368 . S
C466 C465 1.523 . S
H467 C442 0.950 . S
H468 C444 0.950 . S
H469 C445 0.949 . S
H470 C447 0.950 . S
H471 C449 0.950 . S
C472 C473 1.349 . S
C472 C474 1.327 . S
C472 H497 0.950 . S
C473 C472 1.349 . S
C473 C489 1.349 . S
C474 C472 1.327 . S
C474 C493 1.429 . S
C474 H498 0.950 . S
C475 C492 1.574 . S
C475 C494 1.368 . S
C475 H499 0.949 . S
H476 C480 0.949 . S
C477 C478 1.349 . S
C477 C479 1.327 . S
C477 H500 0.950 . S
C478 C477 1.349 . S
C478 C490 1.349 . S
C479 C477 1.327 . S
C479 C495 1.429 . S
C479 H501 0.950 . S
C480 H476 0.949 . S
C480 C488 1.574 . S
C480 C496 1.368 . S
H481 C489 0.950 . S
H482 C487 0.950 . S
H483 C488 0.949 . S
H484 C490 0.950 . S
H485 C491 0.950 . S
H486 C492 0.949 . S
C487 H482 0.950 . S
C487 C489 1.327 . S
C487 C493 1.429 . S
C488 C480 1.574 . S
C488 H483 0.949 . S
C488 C494 1.368 . S
C489 C473 1.349 . S
C489 H481 0.950 . S
C489 C487 1.327 . S
C490 C478 1.349 . S
C490 H484 0.950 . S
C490 C491 1.327 . S
C491 H485 0.950 . S
C491 C490 1.327 . S
C491 C495 1.429 . S
C492 C475 1.574 . S
C492 H486 0.949 . S
C492 C496 1.368 . S
C493 C474 1.429 . S
C493 C487 1.429 . S
C493 C494 1.523 . S
C494 C475 1.368 . S
C494 C488 1.368 . S
C494 C493 1.523 . S
C495 C479 1.429 . S
C495 C491 1.429 . S
C495 C496 1.523 . S
C496 C480 1.368 . S
C496 C492 1.368 . S
C496 C495 1.523 . S
H497 C472 0.950 . S
H498 C474 0.950 . S
H499 C475 0.949 . S
H500 C477 0.950 . S
H501 C479 0.950 . S
C502 C503 1.349 . S
C502 C504 1.327 . S
C502 H527 0.950 . S
C503 C502 1.349 . S
C503 C519 1.349 . S
C504 C502 1.327 . S
C504 C523 1.429 . S
C504 H528 0.950 . S
C505 C522 1.574 1_556 S
C505 C524 1.368 . S
C505 H529 0.949 1_556 S
H506 C510 0.949 . S
C507 C508 1.349 . S
C507 C509 1.327 . S
C507 H530 0.950 . S
C508 C507 1.349 . S
C508 C520 1.349 . S
C509 C507 1.327 . S
C509 C525 1.429 . S
C509 H531 0.950 . S
C510 H506 0.949 . S
C510 C518 1.574 . S
C510 C526 1.349 1_556 S
H511 C519 0.950 . S
H512 C517 0.950 . S
H513 C518 0.949 . S
H514 C520 0.950 . S
H515 C521 0.950 1_556 S
H516 C522 0.949 . S
C517 H512 0.950 . S
C517 C519 1.327 . S
C517 C523 1.429 . S
C518 C510 1.574 . S
C518 H513 0.949 . S
C518 C524 1.368 . S
C519 C503 1.349 . S
C519 H511 0.950 . S
C519 C517 1.327 . S
C520 C508 1.349 . S
C520 H514 0.950 . S
C520 C521 1.327 . S
C521 H515 0.950 1_554 S
C521 C520 1.327 . S
C521 C525 1.429 . S
C522 C505 1.574 1_554 S
C522 H516 0.949 . S
C522 C526 1.378 . S
C523 C504 1.429 . S
C523 C517 1.429 . S
C523 C524 1.523 . S
C524 C505 1.368 . S
C524 C518 1.368 . S
C524 C523 1.523 . S
C525 C509 1.429 . S
C525 C521 1.429 . S
C525 C526 1.535 . S
C526 C510 1.349 1_554 S
C526 C522 1.378 . S
C526 C525 1.535 . S
H527 C502 0.950 . S
H528 C504 0.950 . S
H529 C505 0.949 1_554 S
H530 C507 0.950 . S
H531 C509 0.950 . S
C532 C533 1.349 . S
C532 C534 1.327 . S
C532 H557 0.950 . S
C533 C532 1.349 . S
C533 C549 1.349 . S
C534 C532 1.327 . S
C534 C553 1.429 . S
C534 H558 0.950 . S
C535 C552 1.574 . S
C535 C554 1.368 . S
C535 H559 0.949 . S
H536 C540 0.949 . S
C537 C538 1.349 . S
C537 C539 1.327 . S
C537 H560 0.950 . S
C538 C537 1.349 . S
C538 C550 1.349 . S
C539 C537 1.327 . S
C539 C555 1.429 . S
C539 H561 0.950 . S
C540 H536 0.949 . S
C540 C548 1.574 . S
C540 C556 1.368 . S
H541 C549 0.950 . S
H542 C547 0.950 . S
H543 C548 0.949 . S
H544 C550 0.950 . S
H545 C551 0.950 . S
H546 C552 0.949 . S
C547 H542 0.950 . S
C547 C549 1.327 . S
C547 C553 1.429 . S
C548 C540 1.574 . S
C548 H543 0.949 . S
C548 C554 1.368 . S
C549 C533 1.349 . S
C549 H541 0.950 . S
C549 C547 1.327 . S
C550 C538 1.349 . S
C550 H544 0.950 . S
C550 C551 1.327 . S
C551 H545 0.950 . S
C551 C550 1.327 . S
C551 C555 1.429 . S
C552 C535 1.574 . S
C552 H546 0.949 . S
C552 C556 1.368 . S
C553 C534 1.429 . S
C553 C547 1.429 . S
C553 C554 1.523 . S
C554 C535 1.368 . S
C554 C548 1.368 . S
C554 C553 1.523 . S
C555 C539 1.429 . S
C555 C551 1.429 . S
C555 C556 1.523 . S
C556 C540 1.368 . S
C556 C552 1.368 . S
C556 C555 1.523 . S
H557 C532 0.950 . S
H558 C534 0.950 . S
H559 C535 0.949 . S
H560 C537 0.950 . S
H561 C539 0.950 . S
C562 C563 1.349 . S
C562 C564 1.327 . S
C562 H587 0.950 . S
C563 C562 1.349 . S
C563 C579 1.349 . S
C564 C562 1.327 . S
C564 C583 1.429 . S
C564 H588 0.950 . S
C565 C582 1.574 . S
C565 C584 1.368 . S
C565 H589 0.949 . S
H566 C570 0.949 . S
C567 C568 1.349 . S
C567 C569 1.327 . S
C567 H590 0.950 . S
C568 C567 1.349 . S
C568 C580 1.349 . S
C569 C567 1.327 . S
C569 C585 1.429 . S
C569 H591 0.950 . S
C570 H566 0.949 . S
C570 C578 1.574 . S
C570 C586 1.368 . S
H571 C579 0.950 . S
H572 C577 0.950 . S
H573 C578 0.949 . S
H574 C580 0.950 . S
H575 C581 0.950 . S
H576 C582 0.949 . S
C577 H572 0.950 . S
C577 C579 1.327 . S
C577 C583 1.429 . S
C578 C570 1.574 . S
C578 H573 0.949 . S
C578 C584 1.368 . S
C579 C563 1.349 . S
C579 H571 0.950 . S
C579 C577 1.327 . S
C580 C568 1.349 . S
C580 H574 0.950 . S
C580 C581 1.327 . S
C581 H575 0.950 . S
C581 C580 1.327 . S
C581 C585 1.429 . S
C582 C565 1.574 . S
C582 H576 0.949 . S
C582 C586 1.368 . S
C583 C564 1.429 . S
C583 C577 1.429 . S
C583 C584 1.523 . S
C584 C565 1.368 . S
C584 C578 1.368 . S
C584 C583 1.523 . S
C585 C569 1.429 . S
C585 C581 1.429 . S
C585 C586 1.523 . S
C586 C570 1.368 . S
C586 C582 1.368 . S
C586 C585 1.523 . S
H587 C562 0.950 . S
H588 C564 0.950 . S
H589 C565 0.949 . S
H590 C567 0.950 . S
H591 C569 0.950 . S
C592 C593 1.349 . S
C592 C594 1.327 . S
C592 H617 0.950 . S
C593 C592 1.349 . S
C593 C609 1.349 . S
C594 C592 1.327 . S
C594 C613 1.429 . S
C594 H618 0.950 . S
C595 C612 1.574 . S
C595 C614 1.368 . S
C595 H619 0.949 . S
H596 C600 0.949 . S
C597 C598 1.349 . S
C597 C599 1.327 . S
C597 H620 0.950 . S
C598 C597 1.349 . S
C598 C610 1.349 . S
C599 C597 1.327 . S
C599 C615 1.429 . S
C599 H621 0.950 . S
C600 H596 0.949 . S
C600 C608 1.574 . S
C600 C616 1.368 . S
H601 C609 0.950 . S
H602 C607 0.950 . S
H603 C608 0.949 . S
H604 C610 0.950 . S
H605 C611 0.950 . S
H606 C612 0.949 . S
C607 H602 0.950 . S
C607 C609 1.327 . S
C607 C613 1.429 . S
C608 C600 1.574 . S
C608 H603 0.949 . S
C608 C614 1.368 . S
C609 C593 1.349 . S
C609 H601 0.950 . S
C609 C607 1.327 . S
C610 C598 1.349 . S
C610 H604 0.950 . S
C610 C611 1.327 . S
C611 H605 0.950 . S
C611 C610 1.327 . S
C611 C615 1.429 . S
C612 C595 1.574 . S
C612 H606 0.949 . S
C612 C616 1.368 . S
C613 C594 1.429 . S
C613 C607 1.429 . S
C613 C614 1.523 . S
C614 C595 1.368 . S
C614 C608 1.368 . S
C614 C613 1.523 . S
C615 C599 1.429 . S
C615 C611 1.429 . S
C615 C616 1.523 . S
C616 C600 1.368 . S
C616 C612 1.368 . S
C616 C615 1.523 . S
H617 C592 0.950 . S
H618 C594 0.950 . S
H619 C595 0.949 . S
H620 C597 0.950 . S
H621 C599 0.950 . S
C622 C623 1.349 . S
C622 C624 1.327 . S
C622 H647 0.950 . S
C623 C622 1.349 . S
C623 C639 1.349 . S
C624 C622 1.327 . S
C624 C643 1.429 . S
C624 H648 0.950 . S
C625 C642 1.574 . S
C625 C644 1.368 . S
C625 H649 0.949 . S
H626 C630 0.949 . S
C627 C628 1.349 . S
C627 C629 1.327 . S
C627 H650 0.950 . S
C628 C627 1.349 . S
C628 C640 1.349 . S
C629 C627 1.327 . S
C629 C645 1.429 . S
C629 H651 0.950 . S
C630 H626 0.949 . S
C630 C638 1.574 . S
C630 C646 1.368 . S
H631 C639 0.950 . S
H632 C637 0.950 . S
H633 C638 0.949 . S
H634 C640 0.950 . S
H635 C641 0.950 . S
H636 C642 0.949 . S
C637 H632 0.950 . S
C637 C639 1.327 . S
C637 C643 1.429 . S
C638 C630 1.574 . S
C638 H633 0.949 . S
C638 C644 1.368 . S
C639 C623 1.349 . S
C639 H631 0.950 . S
C639 C637 1.327 . S
C640 C628 1.349 . S
C640 H634 0.950 . S
C640 C641 1.327 . S
C641 H635 0.950 . S
C641 C640 1.327 . S
C641 C645 1.429 . S
C642 C625 1.574 . S
C642 H636 0.949 . S
C642 C646 1.368 . S
C643 C624 1.429 . S
C643 C637 1.429 . S
C643 C644 1.523 . S
C644 C625 1.368 . S
C644 C638 1.368 . S
C644 C643 1.523 . S
C645 C629 1.429 . S
C645 C641 1.429 . S
C645 C646 1.523 . S
C646 C630 1.368 . S
C646 C642 1.368 . S
C646 C645 1.523 . S
H647 C622 0.950 . S
H648 C624 0.950 . S
H649 C625 0.949 . S
H650 C627 0.950 . S
H651 C629 0.950 . S
C652 C653 1.349 . S
C652 C654 1.327 . S
C652 H677 0.950 . S
C653 C652 1.349 . S
C653 C669 1.349 . S
C654 C652 1.327 . S
C654 C673 1.429 . S
C654 H678 0.950 . S
C655 C672 1.574 . S
C655 C674 1.368 . S
C655 H679 0.949 . S
H656 C660 0.949 . S
C657 C658 1.349 . S
C657 C659 1.327 . S
C657 H680 0.950 . S
C658 C657 1.349 . S
C658 C670 1.349 . S
C659 C657 1.327 . S
C659 C675 1.429 . S
C659 H681 0.950 . S
C660 H656 0.949 . S
C660 C668 1.574 . S
C660 C676 1.368 . S
H661 C669 0.950 . S
H662 C667 0.950 . S
H663 C668 0.949 . S
H664 C670 0.950 . S
H665 C671 0.950 . S
H666 C672 0.949 . S
C667 H662 0.950 . S
C667 C669 1.327 . S
C667 C673 1.429 . S
C668 C660 1.574 . S
C668 H663 0.949 . S
C668 C674 1.368 . S
C669 C653 1.349 . S
C669 H661 0.950 . S
C669 C667 1.327 . S
C670 C658 1.349 . S
C670 H664 0.950 . S
C670 C671 1.327 . S
C671 H665 0.950 . S
C671 C670 1.327 . S
C671 C675 1.429 . S
C672 C655 1.574 . S
C672 H666 0.949 . S
C672 C676 1.368 . S
C673 C654 1.429 . S
C673 C667 1.429 . S
C673 C674 1.523 . S
C674 C655 1.368 . S
C674 C668 1.368 . S
C674 C673 1.523 . S
C675 C659 1.429 . S
C675 C671 1.429 . S
C675 C676 1.523 . S
C676 C660 1.368 . S
C676 C672 1.368 . S
C676 C675 1.523 . S
H677 C652 0.950 . S
H678 C654 0.950 . S
H679 C655 0.949 . S
H680 C657 0.950 . S
H681 C659 0.950 . S
C682 C683 1.349 . S
C682 C684 1.327 . S
C682 H707 0.950 . S
C683 C682 1.349 . S
C683 C699 1.349 . S
C684 C682 1.327 . S
C684 C703 1.429 . S
C684 H708 0.950 . S
C685 C702 1.574 . S
C685 C704 1.368 . S
C685 H709 0.949 . S
H686 C690 0.949 . S
C687 C688 1.349 . S
C687 C689 1.327 . S
C687 H710 0.950 . S
C688 C687 1.349 . S
C688 C700 1.349 . S
C689 C687 1.327 . S
C689 C705 1.429 . S
C689 H711 0.950 . S
C690 H686 0.949 . S
C690 C698 1.574 . S
C690 C706 1.368 . S
H691 C699 0.950 . S
H692 C697 0.950 . S
H693 C698 0.949 . S
H694 C700 0.950 . S
H695 C701 0.950 . S
H696 C702 0.949 . S
C697 H692 0.950 . S
C697 C699 1.327 . S
C697 C703 1.429 . S
C698 C690 1.574 . S
C698 H693 0.949 . S
C698 C704 1.368 . S
C699 C683 1.349 . S
C699 H691 0.950 . S
C699 C697 1.327 . S
C700 C688 1.349 . S
C700 H694 0.950 . S
C700 C701 1.327 . S
C701 H695 0.950 . S
C701 C700 1.327 . S
C701 C705 1.429 . S
C702 C685 1.574 . S
C702 H696 0.949 . S
C702 C706 1.368 . S
C703 C684 1.429 . S
C703 C697 1.429 . S
C703 C704 1.523 . S
C704 C685 1.368 . S
C704 C698 1.368 . S
C704 C703 1.523 . S
C705 C689 1.429 . S
C705 C701 1.429 . S
C705 C706 1.523 . S
C706 C690 1.368 . S
C706 C702 1.368 . S
C706 C705 1.523 . S
H707 C682 0.950 . S
H708 C684 0.950 . S
H709 C685 0.949 . S
H710 C687 0.950 . S
H711 C689 0.950 . S
C712 C713 1.349 . S
C712 C714 1.327 . S
C712 H737 0.950 . S
C713 C712 1.349 . S
C713 C729 1.349 . S
C714 C712 1.327 . S
C714 C733 1.429 . S
C714 H738 0.950 . S
C715 C732 1.574 . S
C715 C734 1.368 . S
C715 H739 0.949 . S
H716 C720 0.949 . S
C717 C718 1.349 . S
C717 C719 1.327 . S
C717 H740 0.950 . S
C718 C717 1.349 . S
C718 C730 1.349 . S
C719 C717 1.327 . S
C719 C735 1.429 1_554 S
C719 H741 0.950 . S
C720 H716 0.949 . S
C720 C728 1.574 . S
C720 C736 1.368 . S
H721 C729 0.950 . S
H722 C727 0.950 . S
H723 C728 0.949 . S
H724 C730 0.950 1_556 S
H725 C731 0.950 . S
H726 C732 0.949 1_554 S
C727 H722 0.950 . S
C727 C729 1.327 . S
C727 C733 1.429 . S
C728 C720 1.574 . S
C728 H723 0.949 . S
C728 C734 1.368 . S
C729 C713 1.349 . S
C729 H721 0.950 . S
C729 C727 1.327 . S
C730 C718 1.349 . S
C730 H724 0.950 1_554 S
C730 C731 1.327 1_554 S
C731 H725 0.950 . S
C731 C730 1.327 1_556 S
C731 C735 1.429 . S
C732 C715 1.574 . S
C732 H726 0.949 1_556 S
C732 C736 1.368 . S
C733 C714 1.429 . S
C733 C727 1.429 . S
C733 C734 1.523 . S
C734 C715 1.368 . S
C734 C728 1.368 . S
C734 C733 1.523 . S
C735 C719 1.429 1_556 S
C735 C731 1.429 . S
C735 C736 1.523 . S
C736 C720 1.368 . S
C736 C732 1.368 . S
C736 C735 1.523 . S
H737 C712 0.950 . S
H738 C714 0.950 . S
H739 C715 0.949 . S
H740 C717 0.950 . S
H741 C719 0.950 . S
C742 C743 1.349 . S
C742 C744 1.327 . S
C742 H767 0.950 . S
C743 C742 1.349 . S
C743 C759 1.349 . S
C744 C742 1.327 . S
C744 C763 1.429 . S
C744 H768 0.950 . S
C745 C762 1.574 . S
C745 C764 1.368 . S
C745 H769 0.949 . S
H746 C750 0.949 . S
C747 C748 1.349 . S
C747 C749 1.327 . S
C747 H770 0.950 . S
C748 C747 1.349 . S
C748 C760 1.349 . S
C749 C747 1.327 . S
C749 C765 1.429 . S
C749 H771 0.950 . S
C750 H746 0.949 . S
C750 C758 1.574 . S
C750 C766 1.368 . S
H751 C759 0.950 . S
H752 C757 0.950 . S
H753 C758 0.949 . S
H754 C760 0.950 . S
H755 C761 0.950 . S
H756 C762 0.949 . S
C757 H752 0.950 . S
C757 C759 1.327 . S
C757 C763 1.429 . S
C758 C750 1.574 . S
C758 H753 0.949 . S
C758 C764 1.368 . S
C759 C743 1.349 . S
C759 H751 0.950 . S
C759 C757 1.327 . S
C760 C748 1.349 . S
C760 H754 0.950 . S
C760 C761 1.327 . S
C761 H755 0.950 . S
C761 C760 1.327 . S
C761 C765 1.429 . S
C762 C745 1.574 . S
C762 H756 0.949 . S
C762 C766 1.368 . S
C763 C744 1.429 . S
C763 C757 1.429 . S
C763 C764 1.523 . S
C764 C745 1.368 . S
C764 C758 1.368 . S
C764 C763 1.523 . S
C765 C749 1.429 . S
C765 C761 1.429 . S
C765 C766 1.523 . S
C766 C750 1.368 . S
C766 C762 1.368 . S
C766 C765 1.523 . S
H767 C742 0.950 . S
H768 C744 0.950 . S
H769 C745 0.949 . S
H770 C747 0.950 . S
H771 C749 0.950 . S
C772 C773 1.349 . S
C772 C774 1.327 . S
C772 H797 0.950 . S
C773 C772 1.349 . S
C773 C789 1.349 . S
C774 C772 1.327 . S
C774 C793 1.429 . S
C774 H798 0.950 . S
C775 C792 1.574 . S
C775 C794 1.368 . S
C775 H799 0.949 . S
H776 C780 0.949 . S
C777 C778 1.349 . S
C777 C779 1.327 . S
C777 H800 0.950 . S
C778 C777 1.349 . S
C778 C790 1.349 . S
C779 C777 1.327 . S
C779 C795 1.429 . S
C779 H801 0.950 . S
C780 H776 0.949 . S
C780 C788 1.574 . S
C780 C796 1.368 . S
H781 C789 0.950 . S
H782 C787 0.950 . S
H783 C788 0.949 . S
H784 C790 0.950 . S
H785 C791 0.950 . S
H786 C792 0.949 . S
C787 H782 0.950 . S
C787 C789 1.327 . S
C787 C793 1.429 . S
C788 C780 1.574 . S
C788 H783 0.949 . S
C788 C794 1.368 . S
C789 C773 1.349 . S
C789 H781 0.950 . S
C789 C787 1.327 . S
C790 C778 1.349 . S
C790 H784 0.950 . S
C790 C791 1.327 . S
C791 H785 0.950 . S
C791 C790 1.327 . S
C791 C795 1.429 . S
C792 C775 1.574 . S
C792 H786 0.949 . S
C792 C796 1.368 . S
C793 C774 1.429 . S
C793 C787 1.429 . S
C793 C794 1.523 . S
C794 C775 1.368 . S
C794 C788 1.368 . S
C794 C793 1.523 . S
C795 C779 1.429 . S
C795 C791 1.429 . S
C795 C796 1.523 . S
C796 C780 1.368 . S
C796 C792 1.368 . S
C796 C795 1.523 . S
H797 C772 0.950 . S
H798 C774 0.950 . S
H799 C775 0.949 . S
H800 C777 0.950 . S
H801 C779 0.950 . S
C802 C803 1.349 . S
C802 C804 1.327 . S
C802 H827 0.950 . S
C803 C802 1.349 . S
C803 C819 1.349 . S
C804 C802 1.327 . S
C804 C823 1.429 . S
C804 H828 0.950 . S
C805 C822 1.574 . S
C805 C824 1.368 . S
C805 H829 0.949 . S
H806 C810 0.949 . S
C807 C808 1.349 . S
C807 C809 1.327 . S
C807 H830 0.950 . S
C808 C807 1.349 . S
C808 C820 1.349 . S
C809 C807 1.327 . S
C809 C825 1.429 . S
C809 H831 0.950 . S
C810 H806 0.949 . S
C810 C818 1.574 . S
C810 C826 1.368 . S
H811 C819 0.950 . S
H812 C817 0.950 . S
H813 C818 0.949 . S
H814 C820 0.950 . S
H815 C821 0.950 . S
H816 C822 0.949 . S
C817 H812 0.950 . S
C817 C819 1.327 . S
C817 C823 1.429 . S
C818 C810 1.574 . S
C818 H813 0.949 . S
C818 C824 1.368 . S
C819 C803 1.349 . S
C819 H811 0.950 . S
C819 C817 1.327 . S
C820 C808 1.349 . S
C820 H814 0.950 . S
C820 C821 1.327 . S
C821 H815 0.950 . S
C821 C820 1.327 . S
C821 C825 1.429 . S
C822 C805 1.574 . S
C822 H816 0.949 . S
C822 C826 1.368 . S
C823 C804 1.429 . S
C823 C817 1.429 . S
C823 C824 1.523 . S
C824 C805 1.368 . S
C824 C818 1.368 . S
C824 C823 1.523 . S
C825 C809 1.429 . S
C825 C821 1.429 . S
C825 C826 1.523 . S
C826 C810 1.368 . S
C826 C822 1.368 . S
C826 C825 1.523 . S
H827 C802 0.950 . S
H828 C804 0.950 . S
H829 C805 0.949 . S
H830 C807 0.950 . S
H831 C809 0.950 . S
C832 C833 1.349 . S
C832 C834 1.327 . S
C832 H857 0.950 . S
C833 C832 1.349 . S
C833 C849 1.349 . S
C834 C832 1.327 . S
C834 C853 1.429 . S
C834 H858 0.950 . S
C835 C852 1.574 . S
C835 C854 1.368 . S
C835 H859 0.949 . S
H836 C840 0.949 . S
C837 C838 1.349 . S
C837 C839 1.327 . S
C837 H860 0.950 . S
C838 C837 1.349 . S
C838 C850 1.349 . S
C839 C837 1.327 . S
C839 C855 1.429 . S
C839 H861 0.950 . S
C840 H836 0.949 . S
C840 C848 1.574 . S
C840 C856 1.368 . S
H841 C849 0.950 . S
H842 C847 0.950 . S
H843 C848 0.949 . S
H844 C850 0.950 . S
H845 C851 0.950 . S
H846 C852 0.949 . S
C847 H842 0.950 . S
C847 C849 1.327 . S
C847 C853 1.429 . S
C848 C840 1.574 . S
C848 H843 0.949 . S
C848 C854 1.368 . S
C849 C833 1.349 . S
C849 H841 0.950 . S
C849 C847 1.327 . S
C850 C838 1.349 . S
C850 H844 0.950 . S
C850 C851 1.327 . S
C851 H845 0.950 . S
C851 C850 1.327 . S
C851 C855 1.429 . S
C852 C835 1.574 . S
C852 H846 0.949 . S
C852 C856 1.368 . S
C853 C834 1.429 . S
C853 C847 1.429 . S
C853 C854 1.523 . S
C854 C835 1.368 . S
C854 C848 1.368 . S
C854 C853 1.523 . S
C855 C839 1.429 . S
C855 C851 1.429 . S
C855 C856 1.523 . S
C856 C840 1.368 . S
C856 C852 1.368 . S
C856 C855 1.523 . S
H857 C832 0.950 . S
H858 C834 0.950 . S
H859 C835 0.949 . S
H860 C837 0.950 . S
H861 C839 0.950 . S
C862 C863 1.349 . S
C862 C864 1.327 . S
C862 H887 0.950 . S
C863 C862 1.349 . S
C863 C879 1.349 . S
C864 C862 1.327 . S
C864 C883 1.429 . S
C864 H888 0.950 . S
C865 C882 1.574 . S
C865 C884 1.368 . S
C865 H889 0.949 . S
H866 C870 0.949 . S
C867 C868 1.349 . S
C867 C869 1.327 . S
C867 H890 0.950 . S
C868 C867 1.349 . S
C868 C880 1.349 . S
C869 C867 1.327 . S
C869 C885 1.429 . S
C869 H891 0.950 . S
C870 H866 0.949 . S
C870 C878 1.574 . S
C870 C886 1.368 . S
H871 C879 0.950 . S
H872 C877 0.950 . S
H873 C878 0.949 . S
H874 C880 0.950 . S
H875 C881 0.950 . S
H876 C882 0.949 . S
C877 H872 0.950 . S
C877 C879 1.327 . S
C877 C883 1.429 . S
C878 C870 1.574 . S
C878 H873 0.949 . S
C878 C884 1.368 . S
C879 C863 1.349 . S
C879 H871 0.950 . S
C879 C877 1.327 . S
C880 C868 1.349 . S
C880 H874 0.950 . S
C880 C881 1.327 . S
C881 H875 0.950 . S
C881 C880 1.327 . S
C881 C885 1.429 . S
C882 C865 1.574 . S
C882 H876 0.949 . S
C882 C886 1.368 . S
C883 C864 1.429 . S
C883 C877 1.429 . S
C883 C884 1.523 . S
C884 C865 1.368 . S
C884 C878 1.368 . S
C884 C883 1.523 . S
C885 C869 1.429 . S
C885 C881 1.429 . S
C885 C886 1.523 . S
C886 C870 1.368 . S
C886 C882 1.368 . S
C886 C885 1.523 . S
H887 C862 0.950 . S
H888 C864 0.950 . S
H889 C865 0.949 . S
H890 C867 0.950 . S
H891 C869 0.950 . S
C892 C893 1.349 . S
C892 C894 1.327 . S
C892 H917 0.950 . S
C893 C892 1.349 . S
C893 C909 1.349 . S
C894 C892 1.327 . S
C894 C913 1.429 . S
C894 H918 0.950 . S
C895 C912 1.574 . S
C895 C914 1.368 . S
C895 H919 0.949 . S
H896 C900 0.949 . S
C897 C898 1.349 . S
C897 C899 1.327 . S
C897 H920 0.950 . S
C898 C897 1.349 . S
C898 C910 1.349 . S
C899 C897 1.327 . S
C899 C915 1.429 . S
C899 H921 0.950 . S
C900 H896 0.949 . S
C900 C908 1.574 . S
C900 C916 1.368 . S
H901 C909 0.950 . S
H902 C907 0.950 . S
H903 C908 0.949 . S
H904 C910 0.950 . S
H905 C911 0.950 . S
H906 C912 0.949 . S
C907 H902 0.950 . S
C907 C909 1.327 . S
C907 C913 1.429 . S
C908 C900 1.574 . S
C908 H903 0.949 . S
C908 C914 1.368 . S
C909 C893 1.349 . S
C909 H901 0.950 . S
C909 C907 1.327 . S
C910 C898 1.349 . S
C910 H904 0.950 . S
C910 C911 1.327 . S
C911 H905 0.950 . S
C911 C910 1.327 . S
C911 C915 1.429 . S
C912 C895 1.574 . S
C912 H906 0.949 . S
C912 C916 1.368 . S
C913 C894 1.429 . S
C913 C907 1.429 . S
C913 C914 1.523 . S
C914 C895 1.368 . S
C914 C908 1.368 . S
C914 C913 1.523 . S
C915 C899 1.429 . S
C915 C911 1.429 . S
C915 C916 1.523 . S
C916 C900 1.368 . S
C916 C912 1.368 . S
C916 C915 1.523 . S
H917 C892 0.950 . S
H918 C894 0.950 . S
H919 C895 0.949 . S
H920 C897 0.950 . S
H921 C899 0.950 . S
C922 C923 1.349 . S
C922 C924 1.327 . S
C922 H947 0.950 . S
C923 C922 1.349 . S
C923 C939 1.349 . S
C924 C922 1.327 . S
C924 C943 1.429 . S
C924 H948 0.950 . S
C925 C942 1.574 . S
C925 C944 1.368 . S
C925 H949 0.949 . S
H926 C930 0.949 . S
C927 C928 1.349 . S
C927 C929 1.327 . S
C927 H950 0.950 . S
C928 C927 1.349 . S
C928 C940 1.349 . S
C929 C927 1.327 . S
C929 C945 1.429 . S
C929 H951 0.950 . S
C930 H926 0.949 . S
C930 C938 1.574 . S
C930 C946 1.368 . S
H931 C939 0.950 . S
H932 C937 0.950 . S
H933 C938 0.949 . S
H934 C940 0.950 . S
H935 C941 0.950 . S
H936 C942 0.949 . S
C937 H932 0.950 . S
C937 C939 1.327 . S
C937 C943 1.429 . S
C938 C930 1.574 . S
C938 H933 0.949 . S
C938 C944 1.368 . S
C939 C923 1.349 . S
C939 H931 0.950 . S
C939 C937 1.327 . S
C940 C928 1.349 . S
C940 H934 0.950 . S
C940 C941 1.327 . S
C941 H935 0.950 . S
C941 C940 1.327 . S
C941 C945 1.429 . S
C942 C925 1.574 . S
C942 H936 0.949 . S
C942 C946 1.368 . S
C943 C924 1.429 . S
C943 C937 1.429 . S
C943 C944 1.523 . S
C944 C925 1.368 . S
C944 C938 1.368 . S
C944 C943 1.523 . S
C945 C929 1.429 . S
C945 C941 1.429 . S
C945 C946 1.523 . S
C946 C930 1.368 . S
C946 C942 1.368 . S
C946 C945 1.523 . S
H947 C922 0.950 . S
H948 C924 0.950 . S
H949 C925 0.949 . S
H950 C927 0.950 . S
H951 C929 0.950 . S
C233 C6 1.667 . S
C238 C154 1.652 . S
C263 C21 1.912 . S
C268 C173 1.884 . S
C298 C210 1.039 . S
C293 C49 1.006 . S
C323 C68 1.283 . S
C328 C220 1.335 . S
C358 C190 2.793 . S
C353 C2 2.746 . S
C388 C160 1.144 . S
C383 C30 1.078 . S
C418 C231 1.318 1_556 S
C413 C40 1.337 . S
C448 C201 1.116 . S
C443 C63 1.120 . S
C473 C11 1.634 . S
C478 C214 1.753 . S
C508 C181 1.895 . S
C503 C44 1.961 . S
C533 C59 1.412 . S
C538 C171 1.412 . S
C563 C25 1.458 . S
C568 C193 1.440 . S
C598 C153 1.907 . S
C593 C82 1.934 . S
C623 C101 1.639 . S
C628 C174 1.608 . S
C653 C125 1.458 . S
C658 C211 1.543 . S
C683 C144 1.021 . S
C688 C221 1.083 . S
C713 C87 1.597 . S
C718 C191 1.703 1_565 S
C748 C161 2.294 . S
C743 C97 2.355 . S
C778 C230 1.173 . S
C773 C120 1.203 . S
C808 C200 1.089 . S
C803 C135 1.125 . S
C833 C78 2.078 . S
C838 C213 2.118 . S
C868 C180 1.281 . S
C863 C116 1.316 . S
C898 C170 1.994 . S
C893 C139 1.998 . S
C923 C106 1.186 . S
C928 C194 1.304 . S
