# Generated by pormake.
# Topology the, (3,8)-cn, num edge types: 1
# Building blocks:
#     Node 0, Type 0, BuildingBlock: VETTIZ_charged_linker_0, # of connection points: 3
#     Node 1, Type 0, BuildingBlock: VETTIZ_charged_linker_0, # of connection points: 3
#     Node 2, Type 0, BuildingBlock: VETTIZ_charged_linker_0, # of connection points: 3
#     Node 3, Type 0, BuildingBlock: VETTIZ_charged_linker_0, # of connection points: 3
#     Node 4, Type 0, BuildingBlock: VETTIZ_charged_linker_0, # of connection points: 3
#     Node 5, Type 0, BuildingBlock: VETTIZ_charged_linker_0, # of connection points: 3
#     Node 6, Type 0, BuildingBlock: VETTIZ_charged_linker_0, # of connection points: 3
#     Node 7, Type 0, BuildingBlock: VETTIZ_charged_linker_0, # of connection points: 3
#     Node 8, Type 1, BuildingBlock: GIZVER_clean_sbu_0, # of connection points: 8
#     Node 9, Type 1, BuildingBlock: GIZVER_clean_sbu_0, # of connection points: 8
#     Node 10, Type 1, BuildingBlock: GIZVER_clean_sbu_0, # of connection points: 8
#     Edge 11, Type (0, 1), BuildingBlock: MIFKUJ_clean_linker_0, # of connection points: 2
#     Edge 12, Type (0, 1), BuildingBlock: MIFKUJ_clean_linker_0, # of connection points: 2
#     Edge 13, Type (0, 1), BuildingBlock: MIFKUJ_clean_linker_0, # of connection points: 2
#     Edge 14, Type (0, 1), BuildingBlock: MIFKUJ_clean_linker_0, # of connection points: 2
#     Edge 15, Type (0, 1), BuildingBlock: MIFKUJ_clean_linker_0, # of connection points: 2
#     Edge 16, Type (0, 1), BuildingBlock: MIFKUJ_clean_linker_0, # of connection points: 2
#     Edge 17, Type (0, 1), BuildingBlock: MIFKUJ_clean_linker_0, # of connection points: 2
#     Edge 18, Type (0, 1), BuildingBlock: MIFKUJ_clean_linker_0, # of connection points: 2
#     Edge 19, Type (0, 1), BuildingBlock: MIFKUJ_clean_linker_0, # of connection points: 2
#     Edge 20, Type (0, 1), BuildingBlock: MIFKUJ_clean_linker_0, # of connection points: 2
#     Edge 21, Type (0, 1), BuildingBlock: MIFKUJ_clean_linker_0, # of connection points: 2
#     Edge 22, Type (0, 1), BuildingBlock: MIFKUJ_clean_linker_0, # of connection points: 2
#     Edge 23, Type (0, 1), BuildingBlock: MIFKUJ_clean_linker_0, # of connection points: 2
#     Edge 24, Type (0, 1), BuildingBlock: MIFKUJ_clean_linker_0, # of connection points: 2
#     Edge 25, Type (0, 1), BuildingBlock: MIFKUJ_clean_linker_0, # of connection points: 2
#     Edge 26, Type (0, 1), BuildingBlock: MIFKUJ_clean_linker_0, # of connection points: 2
#     Edge 27, Type (0, 1), BuildingBlock: MIFKUJ_clean_linker_0, # of connection points: 2
#     Edge 28, Type (0, 1), BuildingBlock: MIFKUJ_clean_linker_0, # of connection points: 2
#     Edge 29, Type (0, 1), BuildingBlock: MIFKUJ_clean_linker_0, # of connection points: 2
#     Edge 30, Type (0, 1), BuildingBlock: MIFKUJ_clean_linker_0, # of connection points: 2
#     Edge 31, Type (0, 1), BuildingBlock: MIFKUJ_clean_linker_0, # of connection points: 2
#     Edge 32, Type (0, 1), BuildingBlock: MIFKUJ_clean_linker_0, # of connection points: 2
#     Edge 33, Type (0, 1), BuildingBlock: MIFKUJ_clean_linker_0, # of connection points: 2
#     Edge 34, Type (0, 1), BuildingBlock: MIFKUJ_clean_linker_0, # of connection points: 2
# Relax obj value: 0.044
# Max RMSD: 0.139
# Mean RMSD: 0.064
data_MOF--net-the--node1-GIZVER_clean_sbu_0--node2-VETTIZ_charged_linker_0--edge1-MIFKUJ_clean_linker_0
_symmetry_space_group_name_H-M    P1
_symmetry_Int_Tables_number       1
_symmetry_cell_setting            triclinic
loop_
_symmetry_equiv_pos_as_xyz
'x, y, z'
_cell_length_a     61.411335
_cell_length_b     58.049293
_cell_length_c     53.977479
_cell_angle_alpha  86.98588
_cell_angle_beta   93.276741
_cell_angle_gamma 99.524267
loop_
_atom_site_label
_atom_site_type_symbol
_atom_site_fract_x
_atom_site_fract_y
_atom_site_fract_z
_atom_type_partial_charge
C0 C 0.33541 0.26489 0.41294 0.0
C1 C 0.35689 0.26159 0.40828 0.0
C2 C 0.36916 0.27677 0.39103 0.0
C3 C 0.33825 0.29761 0.38278 0.0
C4 C 0.32651 0.28298 0.40014 0.0
C5 C 0.3041 0.28914 0.40342 0.0
H6 H 0.22895 0.36004 0.37424 0.0
C7 C 0.32404 0.31435 0.37259 0.0
C8 C 0.30408 0.30953 0.38471 0.0
H9 H 0.2263 0.304 0.43052 0.0
H10 H 0.26081 0.29488 0.41784 0.0
H11 H 0.24813 0.33182 0.33067 0.0
H12 H 0.27833 0.38073 0.38475 0.0
H13 H 0.29179 0.3884 0.35694 0.0
H14 H 0.26264 0.38932 0.35775 0.0
H15 H 0.24641 0.3624 0.3275 0.0
H16 H 0.26931 0.35086 0.3161 0.0
C17 C 0.28648 0.26791 0.39617 0.0
C18 C 0.30333 0.29662 0.43052 0.0
C19 C 0.35043 0.37288 0.30318 0.0
C20 C 0.34048 0.38984 0.28923 0.0
C21 C 0.31927 0.39349 0.29505 0.0
C22 C 0.30796 0.38012 0.31412 0.0
C23 C 0.31797 0.36292 0.32755 0.0
C24 C 0.33891 0.35963 0.32207 0.0
C25 C 0.34688 0.3404 0.33805 0.0
C26 C 0.32715 0.33251 0.35385 0.0
C27 C 0.31031 0.34578 0.34764 0.0
C28 C 0.35082 0.32105 0.3209 0.0
C29 C 0.36761 0.35119 0.35377 0.0
C30 C 0.23564 0.34548 0.3834 0.0
C31 C 0.22504 0.33264 0.40333 0.0
C32 C 0.23434 0.31413 0.41519 0.0
C33 C 0.25439 0.30896 0.40785 0.0
C34 C 0.26535 0.32261 0.38864 0.0
C35 C 0.25583 0.3403 0.37652 0.0
C36 C 0.27027 0.35348 0.35715 0.0
C37 C 0.29024 0.34111 0.36012 0.0
C38 C 0.28717 0.32302 0.37848 0.0
C39 C 0.25798 0.3497 0.33145 0.0
C40 C 0.27604 0.3794 0.36424 0.0
H41 H 0.36997 0.3056 0.36511 0.0
H42 H 0.32578 0.25371 0.42643 0.0
H43 H 0.3201 0.30385 0.43829 0.0
H44 H 0.29361 0.31087 0.43194 0.0
H45 H 0.29657 0.28156 0.44291 0.0
H46 H 0.29138 0.25963 0.37967 0.0
H47 H 0.28451 0.25439 0.41158 0.0
H48 H 0.27017 0.27273 0.39073 0.0
H49 H 0.36684 0.36986 0.29939 0.0
H50 H 0.31117 0.40629 0.28442 0.0
H51 H 0.29178 0.38355 0.31749 0.0
H52 H 0.33772 0.31852 0.30572 0.0
H53 H 0.36699 0.32575 0.31217 0.0
H54 H 0.35009 0.30375 0.33059 0.0
H55 H 0.36655 0.36939 0.3585 0.0
H56 H 0.36943 0.34178 0.3719 0.0
H57 H 0.3829 0.35182 0.34352 0.0
H58 H 0.38575 0.27442 0.38712 0.0
C59 C 0.35993 0.29474 0.3782 0.0
C60 C 0.66017 0.25162 0.35287 0.0
C61 C 0.64044 0.23898 0.34246 0.0
C62 C 0.63211 0.24696 0.3192 0.0
C63 C 0.66196 0.27992 0.3179 0.0
C64 C 0.6707 0.27181 0.34019 0.0
C65 C 0.69205 0.28699 0.34819 0.0
H66 H 0.77023 0.3822 0.32654 0.0
C67 C 0.67658 0.3015 0.30969 0.0
C68 C 0.69446 0.30561 0.32714 0.0
H69 H 0.76783 0.3315 0.38832 0.0
H70 H 0.73368 0.31041 0.37111 0.0
H71 H 0.718 0.38603 0.32584 0.0
H72 H 0.75354 0.34497 0.28311 0.0
H73 H 0.73438 0.35707 0.26303 0.0
H74 H 0.75635 0.3762 0.27882 0.0
H75 H 0.73663 0.39903 0.30264 0.0
H76 H 0.70816 0.38754 0.29467 0.0
C77 C 0.68871 0.29739 0.37328 0.0
C78 C 0.71071 0.27193 0.34905 0.0
C79 C 0.65309 0.34804 0.23347 0.0
C80 C 0.66266 0.36877 0.22087 0.0
C81 C 0.68373 0.37996 0.22953 0.0
C82 C 0.69474 0.37093 0.25049 0.0
C83 C 0.6847 0.3504 0.26304 0.0
C84 C 0.66436 0.33918 0.25418 0.0
C85 C 0.65633 0.31719 0.26918 0.0
C86 C 0.67487 0.3174 0.28904 0.0
C87 C 0.69145 0.33692 0.28551 0.0
C88 C 0.63422 0.31995 0.28026 0.0
C89 C 0.65474 0.29614 0.25219 0.0
C90 C 0.76243 0.36641 0.33617 0.0
C91 C 0.77178 0.3585 0.35884 0.0
C92 C 0.7609 0.33807 0.37098 0.0
C93 C 0.74108 0.32578 0.36089 0.0
C94 C 0.73181 0.33398 0.3384 0.0
C95 C 0.74242 0.35402 0.32642 0.0
C96 C 0.72965 0.3605 0.30311 0.0
C97 C 0.70989 0.34087 0.30289 0.0
C98 C 0.71129 0.32535 0.32364 0.0
C99 C 0.72279 0.38459 0.30647 0.0
C100 C 0.74417 0.35986 0.28073 0.0
H101 H 0.63521 0.27242 0.28959 0.0
H102 H 0.66718 0.24619 0.37065 0.0
H103 H 0.70788 0.25916 0.33407 0.0
H104 H 0.72712 0.28233 0.34575 0.0
H105 H 0.71153 0.26187 0.36707 0.0
H106 H 0.67178 0.30178 0.37372 0.0
H107 H 0.69086 0.28475 0.38906 0.0
H108 H 0.69992 0.31398 0.37659 0.0
H109 H 0.63689 0.33898 0.22774 0.0
H110 H 0.69183 0.39567 0.22004 0.0
H111 H 0.71066 0.3803 0.25614 0.0
H112 H 0.63521 0.33777 0.28734 0.0
H113 H 0.62038 0.31738 0.26598 0.0
H114 H 0.62989 0.30782 0.29629 0.0
H115 H 0.66593 0.30022 0.23648 0.0
H116 H 0.6601 0.28067 0.26205 0.0
H117 H 0.63768 0.29114 0.24407 0.0
H118 H 0.61744 0.23737 0.31015 0.0
C119 C 0.64263 0.2673 0.30703 0.0
C120 C 0.7663 0.69081 0.36267 0.0
C121 C 0.77491 0.67167 0.35431 0.0
C122 C 0.76385 0.6596 0.33397 0.0
C123 C 0.73666 0.68564 0.33054 0.0
C124 C 0.74719 0.69738 0.35063 0.0
C125 C 0.73553 0.71692 0.3574 0.0
H126 H 0.64717 0.77366 0.34033 0.0
C127 C 0.71718 0.69659 0.32233 0.0
C128 C 0.71631 0.71488 0.33809 0.0
H129 H 0.70257 0.7878 0.39332 0.0
H130 H 0.71952 0.75749 0.3767 0.0
H131 H 0.64223 0.7163 0.34201 0.0
H132 H 0.67722 0.77065 0.29494 0.0
H133 H 0.66761 0.7469 0.27622 0.0
H134 H 0.64797 0.76127 0.29063 0.0
H135 H 0.6287 0.73494 0.32082 0.0
H136 H 0.63698 0.70878 0.31073 0.0
C137 C 0.72758 0.71146 0.38409 0.0
C138 C 0.75156 0.74034 0.35409 0.0
C139 C 0.66883 0.66584 0.24757 0.0
C140 C 0.64974 0.67227 0.23524 0.0
C141 C 0.64068 0.69074 0.24454 0.0
C142 C 0.65035 0.70246 0.26557 0.0
C143 C 0.66943 0.69582 0.27757 0.0
C144 C 0.67837 0.67782 0.26845 0.0
C145 C 0.69875 0.67318 0.28342 0.0
C146 C 0.70081 0.69161 0.30277 0.0
C147 C 0.68351 0.70474 0.2994 0.0
C148 C 0.694 0.64802 0.29523 0.0
C149 C 0.7184 0.67757 0.26606 0.0
C150 C 0.66288 0.77003 0.34839 0.0
C151 C 0.67346 0.78282 0.36835 0.0
C152 C 0.69413 0.77808 0.378 0.0
C153 C 0.70388 0.76043 0.36838 0.0
C154 C 0.69296 0.74748 0.34868 0.0
C155 C 0.67303 0.75273 0.33866 0.0
C156 C 0.6646 0.73829 0.31666 0.0
C157 C 0.68227 0.72288 0.31576 0.0
C158 C 0.69874 0.72816 0.33476 0.0
C159 C 0.64185 0.72384 0.32263 0.0
C160 C 0.66412 0.755 0.29333 0.0
H161 H 0.73745 0.65651 0.30675 0.0
H162 H 0.77431 0.70062 0.37812 0.0
H163 H 0.76254 0.73979 0.33851 0.0
H164 H 0.74287 0.75526 0.34908 0.0
H165 H 0.76227 0.74419 0.37115 0.0
H166 H 0.72074 0.69257 0.3868 0.0
H167 H 0.74146 0.7157 0.39809 0.0
H168 H 0.71409 0.72079 0.38832 0.0
H169 H 0.67613 0.65154 0.24134 0.0
H170 H 0.6262 0.69638 0.23535 0.0
H171 H 0.6426 0.71629 0.27166 0.0
H172 H 0.67618 0.64285 0.29897 0.0
H173 H 0.69842 0.63507 0.28277 0.0
H174 H 0.7027 0.64628 0.31357 0.0
H175 H 0.71733 0.69307 0.25329 0.0
H176 H 0.73461 0.6816 0.27616 0.0
H177 H 0.71845 0.66232 0.25448 0.0
H178 H 0.76957 0.64445 0.3274 0.0
C179 C 0.74496 0.6665 0.32206 0.0
C180 C 0.35505 0.75835 0.35419 0.0
C181 C 0.34635 0.77051 0.37218 0.0
C182 C 0.32494 0.76193 0.38018 0.0
C183 C 0.32147 0.72946 0.35285 0.0
C184 C 0.3423 0.73809 0.34465 0.0
C185 C 0.34875 0.7235 0.32485 0.0
H186 H 0.32376 0.62884 0.25354 0.0
C187 C 0.31261 0.70807 0.33931 0.0
C188 C 0.32845 0.70464 0.32264 0.0
H189 H 0.38304 0.68077 0.25422 0.0
H190 H 0.36861 0.70124 0.28569 0.0
H191 H 0.31961 0.62465 0.3131 0.0
H192 H 0.2901 0.66445 0.25479 0.0
H193 H 0.26976 0.65584 0.27648 0.0
H194 H 0.28052 0.63384 0.26058 0.0
H195 H 0.29923 0.61161 0.2906 0.0
H196 H 0.29146 0.62259 0.31884 0.0
C197 C 0.36951 0.71333 0.33476 0.0
C198 C 0.35201 0.73899 0.30067 0.0
C199 C 0.23841 0.65966 0.36096 0.0
C200 C 0.22589 0.63918 0.35133 0.0
C201 C 0.23393 0.62929 0.33102 0.0
C202 C 0.25417 0.63901 0.3211 0.0
C203 C 0.26667 0.65905 0.33131 0.0
C204 C 0.25858 0.66931 0.35061 0.0
C205 C 0.27376 0.6912 0.35827 0.0
C206 C 0.29254 0.69192 0.34087 0.0
C207 C 0.28833 0.67291 0.32526 0.0
C208 C 0.28152 0.6876 0.38578 0.0
C209 C 0.26127 0.71222 0.3531 0.0
C210 C 0.33357 0.64474 0.26025 0.0
C211 C 0.35465 0.65306 0.25131 0.0
C212 C 0.3669 0.67371 0.26095 0.0
C213 C 0.35843 0.68569 0.27918 0.0
C214 C 0.33742 0.67703 0.28803 0.0
C215 C 0.32536 0.6569 0.27851 0.0
C216 C 0.30342 0.65014 0.29019 0.0
C217 C 0.30425 0.66953 0.30824 0.0
C218 C 0.32422 0.68525 0.30695 0.0
C219 C 0.30317 0.62593 0.30382 0.0
C220 C 0.28487 0.65089 0.26956 0.0
H221 H 0.29646 0.73577 0.37778 0.0
H222 H 0.37133 0.76466 0.34742 0.0
H223 H 0.34 0.75146 0.29877 0.0
H224 H 0.34894 0.72885 0.28373 0.0
H225 H 0.3689 0.74941 0.30056 0.0
H226 H 0.36841 0.70814 0.35485 0.0
H227 H 0.38474 0.72642 0.33262 0.0
H228 H 0.37145 0.69725 0.32567 0.0
H229 H 0.23288 0.66787 0.37648 0.0
H230 H 0.2245 0.61403 0.32255 0.0
H231 H 0.2593 0.63047 0.30582 0.0
H232 H 0.28596 0.66984 0.38925 0.0
H233 H 0.26824 0.6893 0.39837 0.0
H234 H 0.29649 0.69989 0.39127 0.0
H235 H 0.24881 0.70902 0.33735 0.0
H236 H 0.27231 0.72842 0.34734 0.0
H237 H 0.2524 0.71555 0.36958 0.0
H238 H 0.31793 0.77087 0.39414 0.0
C239 C 0.31253 0.74148 0.37072 0.0
C240 C 0.36536 0.65825 0.76978 0.0
C241 C 0.35564 0.63773 0.78265 0.0
C242 C 0.33487 0.62614 0.77353 0.0
C243 C 0.33427 0.65524 0.73948 0.0
C244 C 0.35441 0.66671 0.74862 0.0
C245 C 0.36246 0.68866 0.73358 0.0
H246 H 0.34956 0.76237 0.63469 0.0
C247 C 0.32761 0.66865 0.7169 0.0
C248 C 0.34407 0.68833 0.71355 0.0
H249 H 0.40109 0.76894 0.69329 0.0
H250 H 0.38419 0.73287 0.71277 0.0
H251 H 0.30946 0.74606 0.67175 0.0
H252 H 0.34652 0.70731 0.62851 0.0
H253 H 0.3188 0.69359 0.62635 0.0
H254 H 0.32607 0.7234 0.61459 0.0
H255 H 0.30626 0.74561 0.63851 0.0
H256 H 0.2907 0.72349 0.65815 0.0
C257 C 0.36383 0.70973 0.7505 0.0
C258 C 0.38468 0.68595 0.72273 0.0
C259 C 0.25694 0.63895 0.66579 0.0
C260 C 0.24733 0.64717 0.6434 0.0
C261 C 0.25793 0.668 0.63169 0.0
C262 C 0.27767 0.68034 0.64191 0.0
C263 C 0.28714 0.67185 0.66415 0.0
C264 C 0.27683 0.65144 0.67571 0.0
C265 C 0.28961 0.64489 0.69899 0.0
C266 C 0.30919 0.66474 0.69949 0.0
C267 C 0.30758 0.68054 0.67903 0.0
C268 C 0.27494 0.64508 0.72134 0.0
C269 C 0.29681 0.62101 0.69541 0.0
C270 C 0.35712 0.75615 0.65182 0.0
C271 C 0.37696 0.76859 0.66218 0.0
C272 C 0.38618 0.7596 0.68445 0.0
C273 C 0.37619 0.73866 0.69596 0.0
C274 C 0.35654 0.7264 0.68534 0.0
C275 C 0.34722 0.73522 0.66374 0.0
C276 C 0.32602 0.7199 0.65552 0.0
C277 C 0.32419 0.70055 0.67584 0.0
C278 C 0.34222 0.70444 0.69312 0.0
C279 C 0.30701 0.7344 0.65576 0.0
C280 C 0.32928 0.7106 0.62983 0.0
H281 H 0.30848 0.62513 0.74613 0.0
H282 H 0.38139 0.66756 0.77578 0.0
H283 H 0.3841 0.66787 0.7165 0.0
H284 H 0.38865 0.69743 0.7061 0.0
H285 H 0.39857 0.6894 0.73686 0.0
H286 H 0.35191 0.70589 0.76553 0.0
H287 H 0.38061 0.71425 0.7595 0.0
H288 H 0.35924 0.72544 0.74038 0.0
H289 H 0.24936 0.62291 0.67516 0.0
H290 H 0.25079 0.67494 0.61466 0.0
H291 H 0.28481 0.69604 0.63205 0.0
H292 H 0.26508 0.65956 0.71892 0.0
H293 H 0.26319 0.62843 0.7233 0.0
H294 H 0.28465 0.64824 0.73904 0.0
H295 H 0.30216 0.62007 0.67618 0.0
H296 H 0.31114 0.61795 0.70765 0.0
H297 H 0.28295 0.60641 0.69852 0.0
H298 H 0.32669 0.61053 0.78312 0.0
C299 C 0.3242 0.63474 0.75206 0.0
C300 C 0.24325 0.31876 0.65681 0.0
C301 C 0.23346 0.33567 0.66797 0.0
C302 C 0.24377 0.34578 0.68972 0.0
C303 C 0.27331 0.32287 0.68843 0.0
C304 C 0.26302 0.31255 0.66741 0.0
C305 C 0.27556 0.29475 0.65814 0.0
H306 H 0.36443 0.23854 0.67003 0.0
C307 C 0.29382 0.313 0.69443 0.0
C308 C 0.29517 0.29633 0.67688 0.0
H309 H 0.31034 0.22942 0.61458 0.0
H310 H 0.29347 0.25835 0.63345 0.0
H311 H 0.37003 0.29529 0.66866 0.0
H312 H 0.33505 0.24168 0.71665 0.0
H313 H 0.34807 0.2644 0.73528 0.0
H314 H 0.36467 0.24868 0.71794 0.0
H315 H 0.38403 0.27799 0.69084 0.0
H316 H 0.37478 0.30426 0.69936 0.0
C317 C 0.2828 0.30288 0.63164 0.0
C318 C 0.2606 0.2705 0.65974 0.0
C319 C 0.34575 0.34478 0.76596 0.0
C320 C 0.36613 0.33957 0.776 0.0
C321 C 0.3751 0.32152 0.76579 0.0
C322 C 0.3642 0.30922 0.7457 0.0
C323 C 0.34403 0.31492 0.73562 0.0
C324 C 0.33505 0.33229 0.74596 0.0
C325 C 0.31333 0.33578 0.73322 0.0
C326 C 0.3109 0.31793 0.71324 0.0
C327 C 0.32895 0.30579 0.71463 0.0
C328 C 0.31595 0.36115 0.72199 0.0
C329 C 0.2951 0.32974 0.75234 0.0
C330 C 0.34904 0.24287 0.66179 0.0
C331 C 0.33875 0.23148 0.64073 0.0
C332 C 0.31853 0.23755 0.63097 0.0
C333 C 0.30879 0.25452 0.64188 0.0
C334 C 0.31931 0.26573 0.66285 0.0
C335 C 0.3391 0.25984 0.67246 0.0
C336 C 0.34799 0.27365 0.69475 0.0
C337 C 0.33022 0.28869 0.69703 0.0
C338 C 0.31344 0.284 0.67825 0.0
C339 C 0.37046 0.28853 0.68833 0.0
C340 C 0.34922 0.25634 0.71742 0.0
H341 H 0.27063 0.34808 0.71636 0.0
H342 H 0.23565 0.31047 0.64023 0.0
H343 H 0.25033 0.26883 0.67626 0.0
H344 H 0.27009 0.25589 0.66216 0.0
H345 H 0.2492 0.26781 0.64303 0.0
H346 H 0.28789 0.32219 0.63026 0.0
H347 H 0.26906 0.29819 0.61759 0.0
H348 H 0.29735 0.29569 0.62641 0.0
H349 H 0.33818 0.35824 0.7736 0.0
H350 H 0.39082 0.31722 0.77303 0.0
H351 H 0.372 0.29584 0.73866 0.0
H352 H 0.3324 0.36628 0.71385 0.0
H353 H 0.31465 0.37373 0.73643 0.0
H354 H 0.30383 0.36348 0.70657 0.0
H355 H 0.29919 0.31623 0.76645 0.0
H356 H 0.27894 0.322 0.74377 0.0
H357 H 0.29308 0.3454 0.76242 0.0
H358 H 0.2368 0.35905 0.69853 0.0
C359 C 0.26356 0.33951 0.69996 0.0
C360 C 0.66011 0.25342 0.65943 0.0
C361 C 0.66867 0.2415 0.64108 0.0
C362 C 0.68987 0.25052 0.63268 0.0
C363 C 0.69342 0.28267 0.66047 0.0
C364 C 0.67271 0.27381 0.66883 0.0
C365 C 0.66604 0.28848 0.68841 0.0
H366 H 0.69106 0.38209 0.76109 0.0
C367 C 0.70216 0.30408 0.67405 0.0
C368 C 0.6862 0.3075 0.69056 0.0
H369 H 0.63036 0.33219 0.75695 0.0
H370 H 0.64526 0.31155 0.72609 0.0
H371 H 0.69545 0.38805 0.70199 0.0
H372 H 0.72429 0.34566 0.75843 0.0
H373 H 0.74499 0.35622 0.73765 0.0
H374 H 0.73318 0.37663 0.75476 0.0
H375 H 0.7168 0.40009 0.72396 0.0
H376 H 0.72318 0.38902 0.69511 0.0
C377 C 0.64517 0.29839 0.67829 0.0
C378 C 0.66282 0.27315 0.7127 0.0
C379 C 0.77714 0.35169 0.65413 0.0
C380 C 0.7895 0.37225 0.66373 0.0
C381 C 0.78115 0.38242 0.68362 0.0
C382 C 0.76077 0.3728 0.69327 0.0
C383 C 0.74839 0.35266 0.68307 0.0
C384 C 0.75675 0.34224 0.66407 0.0
C385 C 0.74145 0.32058 0.656 0.0
C386 C 0.72236 0.32009 0.67288 0.0
C387 C 0.7265 0.33901 0.68862 0.0
C388 C 0.7343 0.32442 0.62832 0.0
C389 C 0.75356 0.29934 0.66149 0.0
C390 C 0.68083 0.36685 0.75345 0.0
C391 C 0.65946 0.35883 0.76181 0.0
C392 C 0.64701 0.33864 0.75138 0.0
C393 C 0.65563 0.32672 0.73322 0.0
C394 C 0.67696 0.33502 0.72509 0.0
C395 C 0.68913 0.35484 0.73513 0.0
C396 C 0.71125 0.36152 0.72381 0.0
C397 C 0.71041 0.34242 0.70542 0.0
C398 C 0.69032 0.32685 0.7063 0.0
C399 C 0.71196 0.38599 0.71062 0.0
C400 C 0.72951 0.36016 0.74463 0.0
H401 H 0.71816 0.27695 0.6349 0.0
H402 H 0.64402 0.24689 0.66657 0.0
H403 H 0.67573 0.26175 0.71539 0.0
H404 H 0.6645 0.28349 0.72948 0.0
H405 H 0.64645 0.26166 0.7122 0.0
H406 H 0.6456 0.30213 0.65788 0.0
H407 H 0.62989 0.28577 0.68187 0.0
H408 H 0.64386 0.31529 0.68609 0.0
H409 H 0.78292 0.34339 0.63883 0.0
H410 H 0.79045 0.39787 0.69188 0.0
H411 H 0.75539 0.38152 0.70828 0.0
H412 H 0.73108 0.34261 0.62449 0.0
H413 H 0.74741 0.32156 0.61601 0.0
H414 H 0.71873 0.3131 0.62273 0.0
H415 H 0.76482 0.30185 0.67837 0.0
H416 H 0.74215 0.28295 0.66562 0.0
H417 H 0.76372 0.29675 0.64579 0.0
H418 H 0.69681 0.24195 0.61837 0.0
C419 C 0.70223 0.27097 0.64222 0.0
C420 C 0.6654 0.6255 0.69804 0.0
C421 C 0.64841 0.63213 0.71104 0.0
C422 C 0.64047 0.653 0.70352 0.0
C423 C 0.66705 0.66066 0.67138 0.0
C424 C 0.6745 0.63999 0.67849 0.0
C425 C 0.69326 0.63586 0.66351 0.0
H426 H 0.76613 0.67458 0.57543 0.0
C427 C 0.68074 0.67214 0.65119 0.0
C428 C 0.69614 0.6577 0.64657 0.0
H429 H 0.7594 0.6092 0.61875 0.0
H430 H 0.72861 0.61944 0.6391 0.0
H431 H 0.76012 0.70625 0.61905 0.0
H432 H 0.71409 0.67321 0.56363 0.0
H433 H 0.70779 0.70132 0.56652 0.0
H434 H 0.73467 0.69813 0.55675 0.0
H435 H 0.75875 0.71779 0.58763 0.0
H436 H 0.74182 0.72593 0.61093 0.0
C437 C 0.71373 0.63484 0.68147 0.0
C438 C 0.68554 0.61344 0.64888 0.0
C439 C 0.66676 0.75004 0.61158 0.0
C440 C 0.67761 0.7653 0.59334 0.0
C441 C 0.69654 0.7595 0.58317 0.0
C442 C 0.70423 0.73872 0.5906 0.0
C443 C 0.69301 0.72356 0.60854 0.0
C444 C 0.67483 0.72948 0.61902 0.0
C445 C 0.66565 0.7117 0.63864 0.0
C446 C 0.68091 0.69375 0.63755 0.0
C447 C 0.69678 0.70081 0.61979 0.0
C448 C 0.66825 0.72365 0.6639 0.0
C449 C 0.64151 0.70163 0.63053 0.0
C450 C 0.75806 0.66254 0.58939 0.0
C451 C 0.76514 0.6411 0.59553 0.0
C452 C 0.75405 0.62573 0.61353 0.0
C453 C 0.73627 0.63177 0.62544 0.0
C454 C 0.72952 0.65341 0.61928 0.0
C455 C 0.74026 0.66827 0.60139 0.0
C456 C 0.73058 0.6903 0.59687 0.0
C457 C 0.71229 0.68624 0.61508 0.0
C458 C 0.71184 0.66472 0.62825 0.0
C459 C 0.74867 0.71128 0.60375 0.0
C460 C 0.72138 0.69105 0.56952 0.0
H461 H 0.6431 0.68303 0.67906 0.0
H462 H 0.67166 0.60942 0.7031 0.0
H463 H 0.66748 0.61116 0.64398 0.0
H464 H 0.69333 0.61401 0.63085 0.0
H465 H 0.68879 0.59759 0.65997 0.0
H466 H 0.71472 0.64792 0.69601 0.0
H467 H 0.71289 0.61731 0.69103 0.0
H468 H 0.72954 0.63919 0.67221 0.0
H469 H 0.6521 0.75379 0.61973 0.0
H470 H 0.70556 0.77111 0.56956 0.0
H471 H 0.71864 0.7353 0.58206 0.0
H472 H 0.68321 0.73739 0.66474 0.0
H473 H 0.65375 0.73215 0.66693 0.0
H474 H 0.67074 0.71145 0.67982 0.0
H475 H 0.64 0.69879 0.61023 0.0
H476 H 0.63562 0.68437 0.6395 0.0
H477 H 0.63009 0.71381 0.63445 0.0
H478 H 0.62755 0.65865 0.71337 0.0
C479 C 0.64967 0.66727 0.68374 0.0
Co480 Co 0.0501 0.47611 0.52469 0.0
Co481 Co 0.02887 0.46424 0.48272 0.0
Co482 Co 0.0071 0.50353 0.50578 0.0
O483 O 0.0201 0.47437 0.51205 0.0
H484 H 0.01015 0.46202 0.5202 0.0
O485 O 0.99381 0.53264 0.49991 0.0
Co486 Co 0.96289 0.53077 0.49003 0.0
Co487 Co 0.98742 0.54253 0.53107 0.0
H488 H 1.00321 0.5449 0.49098 0.0
O489 O 0.03325 0.4335 0.47991 0.0
O490 O 0.05797 0.46377 0.49353 0.0
O491 O 0.03108 0.48618 0.45454 0.0
O492 O 0.02611 0.51584 0.4769 0.0
O493 O 0.98392 0.4861 0.48268 0.0
O494 O 0.935 0.53188 0.48012 0.0
O495 O 0.96424 0.56083 0.47784 0.0
O496 O 0.95721 0.49895 0.50047 0.0
O497 O 0.98804 0.49132 0.53459 0.0
O498 O 0.98879 0.5208 0.55931 0.0
O499 O 0.95739 0.53964 0.52335 0.0
O500 O 0.97951 0.57205 0.53567 0.0
C501 C 0.06794 0.4547 0.5457 0.0
C502 C 0.05094 0.52235 0.52414 0.0
C503 C 0.03299 0.50796 0.4576 0.0
C504 C 0.05335 0.44222 0.48695 0.0
C505 C 0.94312 0.55337 0.47374 0.0
C506 C 0.96342 0.48457 0.48657 0.0
C507 C 0.98399 0.49918 0.55523 0.0
C508 C 0.95984 0.56096 0.53027 0.0
O509 O 0.07722 0.47525 0.53756 0.0
O510 O 0.04708 0.44727 0.54001 0.0
O511 O 0.03053 0.521 0.52855 0.0
O512 O 0.05702 0.50694 0.51146 0.0
Co513 Co 0.5343 0.96225 0.49365 0.0
Co514 Co 0.54377 0.98386 0.53592 0.0
Co515 Co 0.50667 0.00647 0.50711 0.0
O516 O 0.53449 0.99351 0.50388 0.0
H517 H 0.54599 0.00472 0.49653 0.0
O518 O 0.47883 0.01972 0.51024 0.0
Co519 Co 0.48006 0.05039 0.52285 0.0
Co520 Co 0.46926 0.03173 0.47912 0.0
H521 H 0.46719 0.00841 0.51719 0.0
O522 O 0.57268 0.97896 0.543 0.0
O523 O 0.54401 0.95348 0.52776 0.0
O524 O 0.52313 0.98052 0.56206 0.0
O525 O 0.49524 0.9836 0.53481 0.0
O526 O 0.52361 0.02866 0.53158 0.0
O527 O 0.47877 0.07769 0.53524 0.0
O528 O 0.45161 0.04663 0.53258 0.0
O529 O 0.50973 0.05868 0.5149 0.0
O530 O 0.51798 0.02947 0.47939 0.0
O531 O 0.48992 0.03501 0.45309 0.0
O532 O 0.47119 0.06189 0.48968 0.0
O533 O 0.441 0.04044 0.47263 0.0
C534 C 0.55654 0.94391 0.47925 0.0
C535 C 0.48982 0.9616 0.48664 0.0
C536 C 0.50264 0.97673 0.55604 0.0
C537 C 0.56438 0.95806 0.5363 0.0
C538 C 0.45853 0.0681 0.53914 0.0
C539 C 0.52429 0.05071 0.52881 0.0
C540 C 0.5105 0.03755 0.4587 0.0
C541 C 0.45095 0.06018 0.48096 0.0
O542 O 0.5365 0.93405 0.48381 0.0
O543 O 0.56279 0.96601 0.48383 0.0
O544 O 0.49009 0.98363 0.48303 0.0
O545 O 0.50438 0.95418 0.50127 0.0
Co546 Co 0.48264 0.51871 0.05736 0.0
Co547 Co 0.47367 0.4758 0.04257 0.0
Co548 Co 0.50731 0.50638 0.00619 0.0
O549 O 0.48038 0.50475 0.02575 0.0
H550 H 0.46772 0.50813 0.01558 0.0
O551 O 0.53412 0.50786 0.98645 0.0
Co552 Co 0.53134 0.49253 0.95554 0.0
Co553 Co 0.54077 0.53557 0.96799 0.0
H554 H 0.54688 0.50484 0.99663 0.0
O555 O 0.44536 0.46517 0.05328 0.0
O556 O 0.47325 0.48772 0.07369 0.0
O557 O 0.49612 0.45596 0.04514 0.0
O558 O 0.52158 0.48364 0.02901 0.0
O559 O 0.49076 0.48012 0.98618 0.0
O560 O 0.53083 0.47725 0.92793 0.0
O561 O 0.55908 0.48541 0.95632 0.0
O562 O 0.5018 0.49735 0.95082 0.0
O563 O 0.49308 0.52924 0.98328 0.0
O564 O 0.51858 0.55555 0.96506 0.0
O565 O 0.54129 0.52256 0.93731 0.0
O566 O 0.56904 0.54567 0.95743 0.0
C567 C 0.46245 0.53392 0.07843 0.0
C568 C 0.5259 0.52985 0.05022 0.0
C569 C 0.51614 0.4643 0.04133 0.0
C570 C 0.45323 0.47609 0.07305 0.0
C571 C 0.55089 0.47549 0.93588 0.0
C572 C 0.48804 0.48281 0.96268 0.0
C573 C 0.49863 0.548 0.96997 0.0
C574 C 0.56123 0.53447 0.93779 0.0
O575 O 0.48264 0.53224 0.08595 0.0
O576 O 0.45461 0.52526 0.05723 0.0
O577 O 0.52389 0.53248 0.02657 0.0
O578 O 0.51226 0.51459 0.06144 0.0
H579 H 0.18729 0.34146 0.37797 0.0
H580 H 0.15672 0.35723 0.39461 0.0
H581 H 0.18959 0.35769 0.46754 0.0
H582 H 0.21958 0.3412 0.45117 0.0
H583 H 0.1482 0.34485 0.47233 0.0
H584 H 0.19263 0.40741 0.42743 0.0
H585 H 0.21125 0.4272 0.39098 0.0
H586 H 0.14864 0.42402 0.3505 0.0
H587 H 0.12967 0.4039 0.38662 0.0
H588 H 0.09738 0.45899 0.48584 0.0
H589 H 0.12679 0.43771 0.47652 0.0
H590 H 0.07966 0.3739 0.4724 0.0
H591 H 0.05009 0.39508 0.48205 0.0
H592 H 0.12796 0.4182 0.43346 0.0
H593 H 0.10251 0.32995 0.48529 0.0
H594 H 0.09407 0.31202 0.52691 0.0
H595 H 0.1305 0.37295 0.56069 0.0
H596 H 0.13833 0.39155 0.51934 0.0
C597 C 0.18774 0.34471 0.39759 0.0
C598 C 0.20565 0.34013 0.41336 0.0
C599 C 0.17039 0.35378 0.40705 0.0
C600 C 0.17105 0.35896 0.43224 0.0
C601 C 0.18868 0.35375 0.44807 0.0
C602 C 0.20579 0.34433 0.43873 0.0
C603 C 0.15391 0.37059 0.44216 0.0
C604 C 0.14366 0.36081 0.46369 0.0
C605 C 0.14842 0.39174 0.43132 0.0
C606 C 0.15977 0.40393 0.40962 0.0
C607 C 0.18285 0.41079 0.41069 0.0
C608 C 0.19347 0.42208 0.3901 0.0
C609 C 0.18114 0.42681 0.36842 0.0
C610 C 0.15816 0.42031 0.3673 0.0
C611 C 0.14748 0.40897 0.38782 0.0
C612 C 0.09331 0.44034 0.48343 0.0
C613 C 0.0714 0.42872 0.48446 0.0
C614 C 0.11015 0.42821 0.47811 0.0
C615 C 0.10539 0.40425 0.47374 0.0
C616 C 0.08372 0.39234 0.47598 0.0
C617 C 0.06682 0.4045 0.48126 0.0
C618 C 0.12241 0.39252 0.46376 0.0
C619 C 0.13241 0.40216 0.44198 0.0
C620 C 0.12832 0.37175 0.47487 0.0
C621 C 0.1207 0.3622 0.49933 0.0
C622 C 0.10825 0.33968 0.50165 0.0
C623 C 0.10358 0.32942 0.52517 0.0
C624 C 0.11167 0.34137 0.54644 0.0
C625 C 0.12401 0.36383 0.54423 0.0
C626 C 0.12833 0.37435 0.52077 0.0
H627 H 0.10847 0.3332 0.56464 0.0
H628 H 0.18938 0.43556 0.3525 0.0
H629 H 0.5956 0.22408 0.34265 0.0
H630 H 0.57589 0.18859 0.36181 0.0
H631 H 0.63745 0.17075 0.39321 0.0
H632 H 0.65764 0.20539 0.37212 0.0
H633 H 0.6137 0.13325 0.37816 0.0
H634 H 0.59828 0.19261 0.42926 0.0
H635 H 0.58679 0.22971 0.4391 0.0
H636 H 0.52234 0.20709 0.40521 0.0
H637 H 0.53354 0.16996 0.39494 0.0
H638 H 0.55562 0.04882 0.46494 0.0
H639 H 0.57953 0.08154 0.44485 0.0
H640 H 0.52397 0.09778 0.39866 0.0
H641 H 0.49994 0.06517 0.41853 0.0
H642 H 0.54646 0.13575 0.42402 0.0
H643 H 0.56387 0.07553 0.37335 0.0
H644 H 0.57639 0.03823 0.36652 0.0
H645 H 0.63889 0.06275 0.40392 0.0
H646 H 0.62662 0.1001 0.41126 0.0
C647 C 0.60513 0.21252 0.35326 0.0
C648 C 0.62836 0.21774 0.35558 0.0
C649 C 0.5937 0.19232 0.36468 0.0
C650 C 0.60505 0.1771 0.37948 0.0
C651 C 0.62824 0.18224 0.38202 0.0
C652 C 0.63977 0.20228 0.37015 0.0
C653 C 0.59265 0.15562 0.3917 0.0
C654 C 0.59923 0.13391 0.38855 0.0
C655 C 0.57358 0.15624 0.40512 0.0
C656 C 0.56678 0.17855 0.41125 0.0
C657 C 0.5817 0.19561 0.4238 0.0
C658 C 0.57523 0.21663 0.42948 0.0
C659 C 0.55385 0.22076 0.42279 0.0
C660 C 0.53888 0.20386 0.41043 0.0
C661 C 0.54526 0.1828 0.40473 0.0
C662 C 0.54855 0.059 0.45011 0.0
C663 C 0.52578 0.05431 0.44341 0.0
C664 C 0.56227 0.07773 0.43867 0.0
C665 C 0.55351 0.09212 0.4203 0.0
C666 C 0.53105 0.08691 0.41284 0.0
C667 C 0.51735 0.06812 0.42413 0.0
C668 C 0.56732 0.11355 0.41005 0.0
C669 C 0.56102 0.13522 0.41372 0.0
C670 C 0.58683 0.11289 0.39758 0.0
C671 C 0.59426 0.09051 0.39304 0.0
C672 C 0.58022 0.07289 0.38028 0.0
C673 C 0.58729 0.05176 0.37629 0.0
C674 C 0.60841 0.0481 0.38483 0.0
C675 C 0.62253 0.0656 0.39733 0.0
C676 C 0.61554 0.08676 0.40139 0.0
H677 H 0.61384 0.03172 0.38173 0.0
H678 H 0.54887 0.23705 0.42719 0.0
H679 H 0.78774 0.67104 0.40421 0.0
H680 H 0.81925 0.6553 0.42438 0.0
H681 H 0.83865 0.63796 0.35308 0.0
H682 H 0.80792 0.65444 0.33268 0.0
H683 H 0.83529 0.6007 0.38695 0.0
H684 H 0.86836 0.68018 0.38091 0.0
H685 H 0.87276 0.72263 0.38601 0.0
H686 H 0.87664 0.71156 0.46522 0.0
H687 H 0.87149 0.66885 0.4607 0.0
H688 H 0.95304 0.5946 0.44589 0.0
H689 H 0.92668 0.6182 0.42571 0.0
H690 H 0.87275 0.57143 0.45817 0.0
H691 H 0.8988 0.54799 0.47809 0.0
H692 H 0.89557 0.64219 0.44116 0.0
H693 H 0.82995 0.56174 0.41643 0.0
H694 H 0.8278 0.5207 0.40531 0.0
H695 H 0.89372 0.53613 0.3796 0.0
H696 H 0.89621 0.57728 0.39039 0.0
C697 C 0.79895 0.66435 0.39272 0.0
C698 C 0.795 0.66381 0.36675 0.0
C699 C 0.81692 0.65525 0.40433 0.0
C700 C 0.83124 0.64532 0.39024 0.0
C701 C 0.82771 0.64533 0.36434 0.0
C702 C 0.80997 0.65464 0.35272 0.0
C703 C 0.84912 0.63366 0.40245 0.0
C704 C 0.8484 0.60978 0.39888 0.0
C705 C 0.86655 0.64563 0.41754 0.0
C706 C 0.86916 0.67124 0.42046 0.0
C707 C 0.86974 0.68672 0.39945 0.0
C708 C 0.8724 0.71084 0.40224 0.0
C709 C 0.87479 0.71975 0.42595 0.0
C710 C 0.87456 0.70456 0.44691 0.0
C711 C 0.87174 0.68039 0.44425 0.0
C712 C 0.93557 0.5895 0.44881 0.0
C713 C 0.92793 0.5691 0.46306 0.0
C714 C 0.92053 0.603 0.43732 0.0
C715 C 0.89767 0.59631 0.43998 0.0
C716 C 0.89022 0.57665 0.45531 0.0
C717 C 0.90515 0.56321 0.46664 0.0
C718 C 0.88138 0.60912 0.42608 0.0
C719 C 0.88235 0.63314 0.42936 0.0
C720 C 0.86438 0.59743 0.41022 0.0
C721 C 0.86329 0.57256 0.40435 0.0
C722 C 0.84397 0.55637 0.40837 0.0
C723 C 0.84268 0.53311 0.40208 0.0
C724 C 0.86055 0.52586 0.39159 0.0
C725 C 0.87985 0.5418 0.38762 0.0
C726 C 0.88125 0.56507 0.39392 0.0
H727 H 0.85951 0.50784 0.38672 0.0
H728 H 0.87694 0.73844 0.42808 0.0
H729 H 0.38928 0.77656 0.39031 0.0
H730 H 0.41058 0.81112 0.40959 0.0
H731 H 0.35473 0.8473 0.39741 0.0
H732 H 0.33322 0.81262 0.37836 0.0
H733 H 0.39723 0.87451 0.38448 0.0
H734 H 0.36286 0.82752 0.45169 0.0
H735 H 0.35283 0.79134 0.47736 0.0
H736 H 0.42142 0.78973 0.49635 0.0
H737 H 0.43192 0.82557 0.47025 0.0
H738 H 0.45066 0.96796 0.46113 0.0
H739 H 0.42306 0.9378 0.44164 0.0
H740 H 0.46384 0.88574 0.46386 0.0
H741 H 0.49069 0.9152 0.48387 0.0
H742 H 0.42403 0.86841 0.47264 0.0
H743 H 0.45925 0.91085 0.4022 0.0
H744 H 0.47099 0.94576 0.37514 0.0
H745 H 0.40333 0.95506 0.36165 0.0
H746 H 0.39121 0.92034 0.38889 0.0
C747 C 0.3816 0.79194 0.39158 0.0
C748 C 0.35956 0.79186 0.38289 0.0
C749 C 0.39374 0.81163 0.40268 0.0
C750 C 0.3842 0.83175 0.40504 0.0
C751 C 0.3624 0.83196 0.39579 0.0
C752 C 0.35011 0.81212 0.38506 0.0
C753 C 0.39692 0.85228 0.41769 0.0
C754 C 0.40284 0.87334 0.40387 0.0
C755 C 0.40448 0.85062 0.44288 0.0
C756 C 0.39819 0.8291 0.45872 0.0
C757 C 0.37583 0.8193 0.46107 0.0
C758 C 0.37006 0.79884 0.4757 0.0
C759 C 0.38649 0.78816 0.48834 0.0
C760 C 0.40872 0.79796 0.48645 0.0
C761 C 0.41459 0.81834 0.47172 0.0
C762 C 0.45367 0.95007 0.4618 0.0
C763 C 0.4729 0.94407 0.47412 0.0
C764 C 0.43793 0.93283 0.45058 0.0
C765 C 0.44135 0.90938 0.45109 0.0
C766 C 0.46062 0.90356 0.46328 0.0
C767 C 0.47608 0.92057 0.4747 0.0
C768 C 0.42511 0.89056 0.43925 0.0
C769 C 0.41836 0.86976 0.45329 0.0
C770 C 0.4171 0.89236 0.41418 0.0
C771 C 0.42436 0.91319 0.3978 0.0
C772 C 0.4469 0.92045 0.39361 0.0
C773 C 0.45361 0.94018 0.37822 0.0
C774 C 0.43792 0.95266 0.36675 0.0
C775 C 0.41547 0.9454 0.37059 0.0
C776 C 0.40867 0.9257 0.38599 0.0
H777 H 0.44316 0.96793 0.35484 0.0
H778 H 0.38198 0.77238 0.49976 0.0
H779 H 0.23767 0.63787 0.59448 0.0
H780 H 0.20293 0.6184 0.57541 0.0
H781 H 0.17477 0.60777 0.64733 0.0
H782 H 0.20971 0.62708 0.66661 0.0
H783 H 0.16296 0.5696 0.62109 0.0
H784 H 0.16255 0.65174 0.605 0.0
H785 H 0.17731 0.69188 0.59016 0.0
H786 H 0.17891 0.66844 0.51626 0.0
H787 H 0.16444 0.62807 0.5307 0.0
H788 H 0.05213 0.53994 0.57045 0.0
H789 H 0.08415 0.56322 0.59191 0.0
H790 H 0.12091 0.5666 0.52573 0.0
H791 H 0.0893 0.54299 0.50451 0.0
H792 H 0.12655 0.60956 0.55069 0.0
H793 H 0.13008 0.52806 0.56618 0.0
H794 H 0.11542 0.48743 0.57947 0.0
H795 H 0.10835 0.50926 0.65297 0.0
H796 H 0.12264 0.55013 0.63997 0.0
C797 C 0.22406 0.63149 0.60626 0.0
C798 C 0.22642 0.63427 0.63206 0.0
C799 C 0.20416 0.62036 0.59531 0.0
C800 C 0.186 0.612 0.60982 0.0
C801 C 0.18848 0.61414 0.63569 0.0
C802 C 0.20848 0.62515 0.64671 0.0
C803 C 0.16446 0.60118 0.59791 0.0
C804 C 0.15482 0.57855 0.60602 0.0
C805 C 0.15398 0.61255 0.5778 0.0
C806 C 0.16259 0.63683 0.569 0.0
C807 C 0.16619 0.65511 0.58562 0.0
C808 C 0.17448 0.6779 0.57727 0.0
C809 C 0.17908 0.68269 0.55229 0.0
C810 C 0.17535 0.66469 0.5356 0.0
C811 C 0.16709 0.64185 0.54385 0.0
C812 C 0.06689 0.5461 0.56039 0.0
C813 C 0.0683 0.53966 0.53588 0.0
C814 C 0.08518 0.55924 0.57267 0.0
C815 C 0.10495 0.56646 0.56044 0.0
C816 C 0.10585 0.5612 0.5355 0.0
C817 C 0.0878 0.5477 0.52344 0.0
C818 C 0.1252 0.57816 0.57392 0.0
C819 C 0.1346 0.60083 0.56601 0.0
C820 C 0.13552 0.56679 0.59405 0.0
C821 C 0.12716 0.54221 0.60203 0.0
C822 C 0.1252 0.52424 0.58512 0.0
C823 C 0.117 0.50116 0.5926 0.0
C824 C 0.11088 0.49578 0.61703 0.0
C825 C 0.11305 0.51346 0.63404 0.0
C826 C 0.12121 0.53659 0.62663 0.0
H827 H 0.10453 0.4779 0.62278 0.0
H828 H 0.1855 0.70035 0.54586 0.0
H829 H 0.38274 0.23185 0.63361 0.0
H830 H 0.39957 0.20258 0.61407 0.0
H831 H 0.33516 0.16153 0.60047 0.0
H832 H 0.31823 0.19032 0.62087 0.0
H833 H 0.36413 0.13401 0.61696 0.0
H834 H 0.36265 0.19566 0.55569 0.0
H835 H 0.36955 0.23594 0.53769 0.0
H836 H 0.43954 0.23644 0.54613 0.0
H837 H 0.43314 0.19648 0.565 0.0
H838 H 0.41297 0.05925 0.54041 0.0
H839 H 0.38888 0.08536 0.55447 0.0
H840 H 0.44629 0.13594 0.57371 0.0
H841 H 0.47017 0.11036 0.55961 0.0
H842 H 0.41579 0.15695 0.5493 0.0
H843 H 0.41721 0.09941 0.61791 0.0
H844 H 0.41113 0.05945 0.63696 0.0
H845 H 0.34223 0.05176 0.61431 0.0
H846 H 0.34798 0.09161 0.59485 0.0
C847 C 0.37212 0.21649 0.62672 0.0
C848 C 0.34907 0.21355 0.62882 0.0
C849 C 0.38178 0.19986 0.61528 0.0
C850 C 0.36863 0.17996 0.60543 0.0
C851 C 0.34566 0.17678 0.60778 0.0
C852 C 0.33598 0.1934 0.61927 0.0
C853 C 0.37893 0.16242 0.59293 0.0
C854 C 0.37516 0.139 0.6019 0.0
C855 C 0.39348 0.16888 0.57334 0.0
C856 C 0.39738 0.19303 0.56199 0.0
C857 C 0.37953 0.20442 0.55401 0.0
C858 C 0.38335 0.22723 0.54365 0.0
C859 C 0.40496 0.23873 0.54075 0.0
C860 C 0.4228 0.2275 0.54835 0.0
C861 C 0.41908 0.20478 0.55894 0.0
C862 C 0.4204 0.07582 0.54791 0.0
C863 C 0.44351 0.0826 0.54908 0.0
C864 C 0.40663 0.09077 0.55586 0.0
C865 C 0.41576 0.11264 0.56526 0.0
C866 C 0.4388 0.11927 0.56644 0.0
C867 C 0.45247 0.10448 0.55849 0.0
C868 C 0.40171 0.12888 0.57409 0.0
C869 C 0.40462 0.15202 0.56425 0.0
C870 C 0.38652 0.12224 0.59295 0.0
C871 C 0.38307 0.09835 0.60468 0.0
C872 C 0.4008 0.08912 0.61683 0.0
C873 C 0.39741 0.06651 0.62773 0.0
C874 C 0.37632 0.05305 0.62678 0.0
C875 C 0.35856 0.06219 0.61499 0.0
C876 C 0.36188 0.08479 0.60403 0.0
H877 H 0.37373 0.03555 0.63523 0.0
H878 H 0.40787 0.25634 0.53261 0.0
H879 H 0.80482 0.41903 0.65617 0.0
H880 H 0.83962 0.43763 0.63925 0.0
H881 H 0.85693 0.36993 0.6285 0.0
H882 H 0.82242 0.35106 0.64663 0.0
H883 H 0.89213 0.39811 0.64583 0.0
H884 H 0.83845 0.40346 0.58008 0.0
H885 H 0.80411 0.41232 0.55858 0.0
H886 H 0.82438 0.48533 0.57131 0.0
H887 H 0.85871 0.47677 0.5932 0.0
H888 H 0.97422 0.4513 0.5574 0.0
H889 H 0.94335 0.42708 0.57813 0.0
H890 H 0.92692 0.48842 0.60945 0.0
H891 H 0.95787 0.51266 0.58934 0.0
H892 H 0.89202 0.46042 0.57933 0.0
H893 H 0.9456 0.45251 0.64742 0.0
H894 H 0.98048 0.44211 0.66603 0.0
H895 H 0.96068 0.37136 0.64413 0.0
H896 H 0.92579 0.38143 0.62505 0.0
C897 C 0.81609 0.408 0.65053 0.0
C898 C 0.81073 0.38347 0.65288 0.0
C899 C 0.83593 0.41871 0.64054 0.0
C900 C 0.85084 0.40523 0.63222 0.0
C901 C 0.84569 0.38073 0.63468 0.0
C902 C 0.82582 0.36996 0.64483 0.0
C903 C 0.87173 0.41688 0.62107 0.0
C904 C 0.89204 0.41148 0.63103 0.0
C905 C 0.87176 0.43439 0.60173 0.0
C906 C 0.85103 0.43947 0.58862 0.0
C907 C 0.83548 0.42137 0.57855 0.0
C908 C 0.81604 0.42633 0.56622 0.0
C909 C 0.81201 0.44936 0.56366 0.0
C910 C 0.82746 0.46748 0.57336 0.0
C911 C 0.84691 0.46259 0.58573 0.0
C912 C 0.96442 0.45954 0.56927 0.0
C913 C 0.96859 0.48394 0.57171 0.0
C914 C 0.94677 0.44568 0.58105 0.0
C915 C 0.93282 0.45599 0.59521 0.0
C916 C 0.93751 0.48014 0.5986 0.0
C917 C 0.95535 0.49394 0.58721 0.0
C918 C 0.91221 0.44211 0.60462 0.0
C919 C 0.89198 0.44699 0.59411 0.0
C920 C 0.91229 0.42386 0.623 0.0
C921 C 0.9332 0.41779 0.63456 0.0
C922 C 0.94877 0.43479 0.64635 0.0
C923 C 0.96852 0.42894 0.65704 0.0
C924 C 0.97282 0.40611 0.65619 0.0
C925 C 0.95734 0.38905 0.64473 0.0
C926 C 0.93757 0.39481 0.634 0.0
H927 H 0.98812 0.40161 0.66448 0.0
H928 H 0.79696 0.45316 0.55409 0.0
H929 H 0.65927 0.79446 0.6212 0.0
H930 H 0.64294 0.82844 0.60678 0.0
H931 H 0.66211 0.82082 0.53232 0.0
H932 H 0.67691 0.78558 0.54621 0.0
H933 H 0.65825 0.86889 0.58804 0.0
H934 H 0.62519 0.84215 0.49042 0.0
H935 H 0.61357 0.80686 0.46641 0.0
H936 H 0.59535 0.76684 0.53342 0.0
H937 H 0.60656 0.80201 0.55779 0.0
H938 H 0.60924 0.96315 0.5359 0.0
H939 H 0.63187 0.93225 0.53998 0.0
H940 H 0.57286 0.88041 0.54485 0.0
H941 H 0.55021 0.91124 0.53963 0.0
H942 H 0.60003 0.86387 0.52005 0.0
H943 H 0.60688 0.90341 0.59815 0.0
H944 H 0.61591 0.93788 0.62398 0.0
H945 H 0.68243 0.94982 0.59984 0.0
H946 H 0.6737 0.91555 0.57367 0.0
C947 C 0.65972 0.79972 0.60167 0.0
C948 C 0.66913 0.78702 0.58484 0.0
C949 C 0.65065 0.81939 0.5935 0.0
C950 C 0.65105 0.82702 0.5684 0.0
C951 C 0.66124 0.815 0.55169 0.0
C952 C 0.66996 0.79502 0.55976 0.0
C953 C 0.64024 0.84723 0.55998 0.0
C954 C 0.64561 0.86783 0.57305 0.0
C955 C 0.62383 0.84592 0.54035 0.0
C956 C 0.61698 0.82465 0.52595 0.0
C957 C 0.61866 0.82584 0.50003 0.0
C958 C 0.61214 0.80585 0.48635 0.0
C959 C 0.60381 0.78459 0.4984 0.0
C960 C 0.60189 0.78329 0.52413 0.0
C961 C 0.60834 0.80325 0.53789 0.0
C962 C 0.60116 0.94513 0.53776 0.0
C963 C 0.57806 0.93952 0.53793 0.0
C964 C 0.61408 0.92746 0.54005 0.0
C965 C 0.60411 0.90397 0.54325 0.0
C966 C 0.58096 0.89838 0.54248 0.0
C967 C 0.56803 0.916 0.53968 0.0
C968 C 0.61755 0.88521 0.54864 0.0
C969 C 0.61281 0.86499 0.53488 0.0
C970 C 0.63429 0.88668 0.56791 0.0
C971 C 0.6396 0.90707 0.58386 0.0
C972 C 0.6234 0.91345 0.59831 0.0
C973 C 0.62847 0.93294 0.61299 0.0
C974 C 0.64972 0.94606 0.61351 0.0
C975 C 0.66598 0.93966 0.5994 0.0
C976 C 0.66099 0.9202 0.58467 0.0
H977 H 0.65361 0.96115 0.62488 0.0
H978 H 0.59879 0.76912 0.48779 0.0
H979 H 0.33731 0.21615 0.4127 0.0
H980 H 0.35298 0.18331 0.43236 0.0
H981 H 0.41289 0.23009 0.45257 0.0
H982 H 0.3974 0.26295 0.43223 0.0
H983 H 0.42248 0.19365 0.43268 0.0
H984 H 0.37406 0.20558 0.49444 0.0
H985 H 0.33906 0.21052 0.51209 0.0
H986 H 0.31024 0.14083 0.49311 0.0
H987 H 0.34476 0.13568 0.47458 0.0
H988 H 0.46865 0.10396 0.49505 0.0
H989 H 0.45153 0.13891 0.4915 0.0
H990 H 0.39154 0.09903 0.46054 0.0
H991 H 0.40825 0.06341 0.46521 0.0
H992 H 0.3838 0.13396 0.49129 0.0
H993 H 0.42945 0.12626 0.42214 0.0
H994 H 0.46451 0.12045 0.40514 0.0
H995 H 0.49826 0.18218 0.43981 0.0
H996 H 0.46341 0.18823 0.45716 0.0
C997 C 0.35373 0.21942 0.42158 0.0
C998 C 0.3662 0.242 0.42098 0.0
C999 C 0.36262 0.2007 0.43292 0.0
C1000 C 0.38398 0.2043 0.44428 0.0
C1001 C 0.39635 0.22694 0.44396 0.0
C1002 C 0.38756 0.24564 0.43231 0.0
C1003 C 0.39394 0.18417 0.45483 0.0
C1004 C 0.41416 0.18089 0.44587 0.0
C1005 C 0.38291 0.16725 0.47175 0.0
C1006 C 0.36205 0.17031 0.48294 0.0
C1007 C 0.36021 0.19137 0.49379 0.0
C1008 C 0.34043 0.19422 0.50395 0.0
C1009 C 0.32247 0.176 0.50376 0.0
C1010 C 0.32419 0.15492 0.49328 0.0
C1011 C 0.34385 0.15205 0.48289 0.0
C1012 C 0.45164 0.1024 0.48797 0.0
C1013 C 0.43984 0.08091 0.4802 0.0
C1014 C 0.44191 0.12246 0.48595 0.0
C1015 C 0.42045 0.12157 0.47538 0.0
C1016 C 0.40818 0.1 0.46871 0.0
C1017 C 0.4178 0.07975 0.47115 0.0
C1018 C 0.41185 0.14346 0.46864 0.0
C1019 C 0.39204 0.14701 0.47833 0.0
C1020 C 0.42314 0.16068 0.45237 0.0
C1021 C 0.44389 0.15759 0.44109 0.0
C1022 C 0.44437 0.13857 0.42614 0.0
C1023 C 0.46419 0.13524 0.41645 0.0
C1024 C 0.48361 0.15092 0.42141 0.0
C1025 C 0.48321 0.17006 0.43594 0.0
C1026 C 0.46342 0.17348 0.44568 0.0
H1027 H 0.49896 0.14821 0.41402 0.0
H1028 H 0.30721 0.17822 0.51173 0.0
H1029 H 0.81047 0.37616 0.33648 0.0
H1030 H 0.84478 0.39691 0.35602 0.0
H1031 H 0.81402 0.39123 0.4264 0.0
H1032 H 0.77984 0.37055 0.40707 0.0
H1033 H 0.83662 0.43601 0.41491 0.0
H1034 H 0.84912 0.35579 0.41614 0.0
H1035 H 0.85206 0.31884 0.39702 0.0
H1036 H 0.90379 0.35462 0.35215 0.0
H1037 H 0.90094 0.39188 0.37077 0.0
H1038 H 0.9229 0.46593 0.50233 0.0
H1039 H 0.89227 0.44351 0.47875 0.0
H1040 H 0.93368 0.44457 0.41662 0.0
H1041 H 0.96485 0.46639 0.44073 0.0
H1042 H 0.90691 0.40404 0.41963 0.0
H1043 H 0.8973 0.48356 0.42087 0.0
H1044 H 0.89426 0.52095 0.43873 0.0
H1045 H 0.83661 0.48831 0.47631 0.0
H1046 H 0.83976 0.45044 0.45939 0.0
C1047 C 0.81103 0.37946 0.35609 0.0
C1048 C 0.79249 0.37163 0.37027 0.0
C1049 C 0.83066 0.39117 0.36725 0.0
C1050 C 0.83201 0.39548 0.39272 0.0
C1051 C 0.81339 0.38805 0.40676 0.0
C1052 C 0.7939 0.37612 0.39571 0.0
C1053 C 0.85269 0.40787 0.40493 0.0
C1054 C 0.85195 0.42893 0.41618 0.0
C1055 C 0.87288 0.39905 0.40577 0.0
C1056 C 0.87464 0.37666 0.39463 0.0
C1057 C 0.86098 0.35582 0.40203 0.0
C1058 C 0.86266 0.33481 0.39132 0.0
C1059 C 0.87805 0.3344 0.37332 0.0
C1060 C 0.89185 0.35498 0.36606 0.0
C1061 C 0.89022 0.37604 0.37669 0.0
C1062 C 0.9256 0.4611 0.48376 0.0
C1063 C 0.94622 0.46811 0.47328 0.0
C1064 C 0.90801 0.4484 0.47022 0.0
C1065 C 0.91039 0.44293 0.44558 0.0
C1066 C 0.93134 0.44876 0.4355 0.0
C1067 C 0.94916 0.46118 0.44929 0.0
C1068 C 0.89074 0.43198 0.43028 0.0
C1069 C 0.89167 0.41127 0.4183 0.0
C1070 C 0.8707 0.44127 0.42856 0.0
C1071 C 0.86889 0.46405 0.43899 0.0
C1072 C 0.88415 0.48423 0.43322 0.0
C1073 C 0.88243 0.50553 0.44325 0.0
C1074 C 0.86524 0.50702 0.45866 0.0
C1075 C 0.8499 0.48713 0.46434 0.0
C1076 C 0.85169 0.46572 0.4546 0.0
H1077 H 0.86369 0.52358 0.4661 0.0
H1078 H 0.87933 0.31811 0.36506 0.0
H1079 H 0.63339 0.77692 0.38891 0.0
H1080 H 0.61622 0.80621 0.40815 0.0
H1081 H 0.67219 0.85895 0.39077 0.0
H1082 H 0.68995 0.82915 0.37299 0.0
H1083 H 0.66102 0.86739 0.43283 0.0
H1084 H 0.61903 0.85335 0.35711 0.0
H1085 H 0.59703 0.83051 0.3244 0.0
H1086 H 0.54741 0.80409 0.37621 0.0
H1087 H 0.56926 0.82652 0.40934 0.0
H1088 H 0.59682 0.95819 0.45806 0.0
H1089 H 0.61987 0.93329 0.43975 0.0
H1090 H 0.57431 0.87197 0.46219 0.0
H1091 H 0.55125 0.89651 0.47989 0.0
H1092 H 0.5818 0.87165 0.41413 0.0
H1093 H 0.62908 0.88547 0.49043 0.0
H1094 H 0.65401 0.90878 0.52076 0.0
H1095 H 0.69405 0.94098 0.46188 0.0
H1096 H 0.66996 0.91709 0.43144 0.0
C1097 C 0.64194 0.7948 0.38918 0.0
C1098 C 0.66288 0.80086 0.37933 0.0
C1099 C 0.63208 0.81162 0.40003 0.0
C1100 C 0.64256 0.8351 0.40044 0.0
C1101 C 0.66363 0.84107 0.39069 0.0
C1102 C 0.67376 0.82408 0.38043 0.0
C1103 C 0.63165 0.85323 0.4113 0.0
C1104 C 0.64377 0.86851 0.42837 0.0
C1105 C 0.60913 0.85497 0.40563 0.0
C1106 C 0.59588 0.84148 0.38576 0.0
C1107 C 0.60349 0.84255 0.36157 0.0
C1108 C 0.59104 0.82969 0.34295 0.0
C1109 C 0.57086 0.81582 0.34824 0.0
C1110 C 0.56306 0.81483 0.37215 0.0
C1111 C 0.57546 0.82763 0.39085 0.0
C1112 C 0.59187 0.93939 0.45924 0.0
C1113 C 0.57195 0.9294 0.47 0.0
C1114 C 0.60512 0.92514 0.4489 0.0
C1115 C 0.5988 0.90067 0.44944 0.0
C1116 C 0.57946 0.89076 0.46124 0.0
C1117 C 0.56622 0.90489 0.47132 0.0
C1118 C 0.61099 0.88522 0.43616 0.0
C1119 C 0.59908 0.87055 0.41844 0.0
C1120 C 0.63382 0.88457 0.44066 0.0
C1121 C 0.64763 0.89965 0.45875 0.0
C1122 C 0.64314 0.89759 0.48404 0.0
C1123 C 0.65713 0.91084 0.50122 0.0
C1124 C 0.67538 0.92657 0.49323 0.0
C1125 C 0.67985 0.92887 0.46805 0.0
C1126 C 0.66615 0.91534 0.45086 0.0
H1127 H 0.68613 0.93685 0.50657 0.0
H1128 H 0.56124 0.80588 0.33379 0.0
H1129 H 0.19408 0.66027 0.3713 0.0
H1130 H 0.15905 0.64134 0.3882 0.0
H1131 H 0.17398 0.57387 0.37217 0.0
H1132 H 0.20935 0.59233 0.35645 0.0
H1133 H 0.13099 0.58184 0.3546 0.0
H1134 H 0.17928 0.58902 0.42875 0.0
H1135 H 0.20459 0.6097 0.46043 0.0
H1136 H 0.15465 0.64941 0.47734 0.0
H1137 H 0.12916 0.62929 0.44539 0.0
H1138 H 0.05856 0.49718 0.42129 0.0
H1139 H 0.08815 0.52309 0.40104 0.0
H1140 H 0.0709 0.58196 0.43666 0.0
H1141 H 0.0416 0.5559 0.45776 0.0
H1142 H 0.11288 0.58296 0.44284 0.0
H1143 H 0.06342 0.57486 0.37177 0.0
H1144 H 0.03715 0.55451 0.3407 0.0
H1145 H 0.0876 0.51828 0.31768 0.0
H1146 H 0.11411 0.53817 0.34885 0.0
C1147 C 0.19014 0.64138 0.37172 0.0
C1148 C 0.20464 0.62793 0.36223 0.0
C1149 C 0.17001 0.63061 0.38126 0.0
C1150 C 0.16388 0.60621 0.38132 0.0
C1151 C 0.1783 0.59275 0.37207 0.0
C1152 C 0.1985 0.60342 0.3629 0.0
C1153 C 0.14232 0.59451 0.39061 0.0
C1154 C 0.12703 0.58195 0.37392 0.0
C1155 C 0.13687 0.59538 0.41562 0.0
C1156 C 0.15243 0.60791 0.43437 0.0
C1157 C 0.1738 0.60242 0.43894 0.0
C1158 C 0.18816 0.61398 0.45702 0.0
C1159 C 0.18127 0.63093 0.47082 0.0
C1160 C 0.16 0.63634 0.46658 0.0
C1161 C 0.1456 0.62488 0.44847 0.0
C1162 C 0.06063 0.5157 0.42441 0.0
C1163 C 0.04762 0.52437 0.44124 0.0
C1164 C 0.07762 0.5306 0.41271 0.0
C1165 C 0.08178 0.55461 0.41713 0.0
C1166 C 0.0681 0.56352 0.43296 0.0
C1167 C 0.05122 0.54858 0.44488 0.0
C1168 C 0.1015 0.56989 0.4069 0.0
C1169 C 0.11654 0.58312 0.4234 0.0
C1170 C 0.1066 0.56989 0.38163 0.0
C1171 C 0.09072 0.55791 0.36278 0.0
C1172 C 0.06888 0.56243 0.3602 0.0
C1173 C 0.05395 0.551 0.34255 0.0
C1174 C 0.06069 0.53508 0.32726 0.0
C1175 C 0.0824 0.53061 0.32955 0.0
C1176 C 0.0974 0.54199 0.34718 0.0
H1177 H 0.0491 0.52625 0.31361 0.0
H1178 H 0.19239 0.63979 0.48487 0.0
H1179 H 0.35789 0.80397 0.6382 0.0
H1180 H 0.37664 0.84135 0.6207 0.0
H1181 H 0.43986 0.82148 0.64222 0.0
H1182 H 0.42144 0.7839 0.65889 0.0
H1183 H 0.43543 0.86612 0.65721 0.0
H1184 H 0.42275 0.82064 0.58315 0.0
H1185 H 0.39953 0.79678 0.55204 0.0
H1186 H 0.36285 0.85283 0.53426 0.0
H1187 H 0.38569 0.87694 0.56545 0.0
H1188 H 0.51397 0.94626 0.59306 0.0
H1189 H 0.48987 0.91359 0.61244 0.0
H1190 H 0.43313 0.93586 0.57336 0.0
H1191 H 0.45737 0.96816 0.55306 0.0
H1192 H 0.43056 0.89203 0.56833 0.0
H1193 H 0.44331 0.93891 0.63884 0.0
H1194 H 0.46477 0.96381 0.67028 0.0
H1195 H 0.49854 0.90726 0.69588 0.0
H1196 H 0.4775 0.88209 0.66436 0.0
C1197 C 0.37579 0.80735 0.63884 0.0
C1198 C 0.3881 0.7909 0.6502 0.0
C1199 C 0.38647 0.8288 0.62894 0.0
C1200 C 0.40965 0.83423 0.63027 0.0
C1201 C 0.42196 0.81774 0.64121 0.0
C1202 C 0.41135 0.79628 0.65086 0.0
C1203 C 0.42125 0.85726 0.62088 0.0
C1204 C 0.43454 0.87176 0.63774 0.0
C1205 C 0.41938 0.86497 0.59567 0.0
C1206 C 0.40572 0.85047 0.57688 0.0
C1207 C 0.4096 0.8278 0.57277 0.0
C1208 C 0.39654 0.81425 0.55508 0.0
C1209 C 0.37964 0.82324 0.54132 0.0
C1210 C 0.37589 0.84586 0.54502 0.0
C1211 C 0.3889 0.85948 0.56268 0.0
C1212 C 0.49631 0.94459 0.58901 0.0
C1213 C 0.48763 0.95991 0.5715 0.0
C1214 C 0.48248 0.92584 0.60018 0.0
C1215 C 0.45955 0.92223 0.59459 0.0
C1216 C 0.45073 0.93815 0.57797 0.0
C1217 C 0.46461 0.95674 0.56649 0.0
C1218 C 0.44516 0.90092 0.60461 0.0
C1219 C 0.43133 0.88667 0.58788 0.0
C1220 C 0.44625 0.89361 0.63005 0.0
C1221 C 0.45893 0.90866 0.64909 0.0
C1222 C 0.45543 0.93183 0.65105 0.0
C1223 C 0.4675 0.94598 0.66891 0.0
C1224 C 0.48304 0.93714 0.68503 0.0
C1225 C 0.4865 0.91409 0.68337 0.0
C1226 C 0.47448 0.89986 0.66553 0.0
H1227 H 0.49237 0.94813 0.69885 0.0
H1228 H 0.36942 0.81268 0.5278 0.0
H1229 H 0.22413 0.34618 0.61892 0.0
H1230 H 0.19273 0.36341 0.60084 0.0
H1231 H 0.1657 0.36101 0.67308 0.0
H1232 H 0.197 0.34353 0.6913 0.0
H1233 H 0.13297 0.34952 0.63379 0.0
H1234 H 0.19355 0.40989 0.65494 0.0
H1235 H 0.23231 0.4297 0.6553 0.0
H1236 H 0.22828 0.4378 0.57572 0.0
H1237 H 0.18957 0.41769 0.57486 0.0
H1238 H 0.06058 0.43184 0.59091 0.0
H1239 H 0.08611 0.4103 0.61576 0.0
H1240 H 0.13118 0.42149 0.55602 0.0
H1241 H 0.10699 0.44497 0.53288 0.0
H1242 H 0.15368 0.42879 0.59482 0.0
H1243 H 0.09008 0.36998 0.5746 0.0
H1244 H 0.05199 0.34904 0.57594 0.0
H1245 H 0.06015 0.33795 0.65494 0.0
H1246 H 0.09844 0.35891 0.65413 0.0
C1247 C 0.21129 0.34886 0.63089 0.0
C1248 C 0.21317 0.34366 0.65658 0.0
C1249 C 0.1934 0.3588 0.62055 0.0
C1250 C 0.17698 0.36369 0.63566 0.0
C1251 C 0.17818 0.35741 0.66109 0.0
C1252 C 0.19618 0.34762 0.67149 0.0
C1253 C 0.15971 0.37713 0.6252 0.0
C1254 C 0.13733 0.36695 0.6254 0.0
C1255 C 0.16552 0.39983 0.61436 0.0
C1256 C 0.18873 0.4121 0.61483 0.0
C1257 C 0.20098 0.41574 0.6375 0.0
C1258 C 0.22293 0.42704 0.6378 0.0
C1259 C 0.23277 0.43496 0.61554 0.0
C1260 C 0.22065 0.43163 0.59294 0.0
C1261 C 0.1987 0.4203 0.59254 0.0
C1262 C 0.07592 0.42945 0.5832 0.0
C1263 C 0.08174 0.43964 0.55985 0.0
C1264 C 0.09047 0.41709 0.59732 0.0
C1265 C 0.11055 0.4138 0.58772 0.0
C1266 C 0.11592 0.4237 0.56406 0.0
C1267 C 0.10194 0.43687 0.55059 0.0
C1268 C 0.1266 0.40089 0.6021 0.0
C1269 C 0.14899 0.41132 0.603 0.0
C1270 C 0.12059 0.37844 0.61394 0.0
C1271 C 0.09733 0.36609 0.61428 0.0
C1272 C 0.08391 0.36306 0.59228 0.0
C1273 C 0.06219 0.3512 0.59295 0.0
C1274 C 0.05364 0.34216 0.61551 0.0
C1275 C 0.0668 0.34495 0.63746 0.0
C1276 C 0.08854 0.35681 0.63688 0.0
H1277 H 0.03681 0.33298 0.61599 0.0
H1278 H 0.24976 0.44371 0.61581 0.0
H1279 H 0.62429 0.23296 0.62851 0.0
H1280 H 0.60264 0.19765 0.6116 0.0
H1281 H 0.66135 0.1658 0.61255 0.0
H1282 H 0.6832 0.20118 0.62953 0.0
H1283 H 0.637 0.15699 0.57008 0.0
H1284 H 0.62305 0.14959 0.65637 0.0
H1285 H 0.61306 0.16205 0.69659 0.0
H1286 H 0.54867 0.17004 0.66548 0.0
H1287 H 0.55839 0.15796 0.62494 0.0
H1288 H 0.56524 0.04435 0.54955 0.0
H1289 H 0.59285 0.07374 0.57054 0.0
H1290 H 0.54844 0.12403 0.55976 0.0
H1291 H 0.52146 0.09552 0.5383 0.0
H1292 H 0.56882 0.11893 0.61043 0.0
H1293 H 0.58506 0.13117 0.52322 0.0
H1294 H 0.59469 0.11809 0.4831 0.0
H1295 H 0.65486 0.09979 0.51697 0.0
H1296 H 0.64536 0.11242 0.55742 0.0
C1297 C 0.63261 0.21838 0.62538 0.0
C1298 C 0.6555 0.21991 0.63059 0.0
C1299 C 0.62019 0.19817 0.61564 0.0
C1300 C 0.63026 0.17885 0.61111 0.0
C1301 C 0.65317 0.18043 0.61589 0.0
C1302 C 0.66565 0.20071 0.62557 0.0
C1303 C 0.61675 0.15711 0.60143 0.0
C1304 C 0.62235 0.14842 0.57921 0.0
C1305 C 0.5975 0.14588 0.61316 0.0
C1306 C 0.59152 0.15302 0.63755 0.0
C1307 C 0.60681 0.15416 0.65805 0.0
C1308 C 0.60119 0.16113 0.68092 0.0
C1309 C 0.58026 0.16687 0.68358 0.0
C1310 C 0.56488 0.1656 0.66338 0.0
C1311 C 0.57043 0.15866 0.64046 0.0
C1312 C 0.56142 0.06167 0.55174 0.0
C1313 C 0.54112 0.06754 0.54227 0.0
C1314 C 0.57717 0.07841 0.56368 0.0
C1315 C 0.5726 0.10102 0.56674 0.0
C1316 C 0.55225 0.10668 0.55769 0.0
C1317 C 0.53684 0.09028 0.54536 0.0
C1318 C 0.58888 0.11924 0.579 0.0
C1319 C 0.58374 0.12728 0.60166 0.0
C1320 C 0.60852 0.12977 0.56774 0.0
C1321 C 0.61436 0.12242 0.54341 0.0
C1322 C 0.60023 0.12413 0.52217 0.0
C1323 C 0.60568 0.11685 0.49936 0.0
C1324 C 0.62534 0.10803 0.49751 0.0
C1325 C 0.63961 0.10657 0.51845 0.0
C1326 C 0.63421 0.11379 0.54132 0.0
H1327 H 0.62953 0.1024 0.47984 0.0
H1328 H 0.57593 0.17227 0.7013 0.0
H1329 H 0.80461 0.66913 0.58788 0.0
H1330 H 0.83755 0.65811 0.57154 0.0
H1331 H 0.80217 0.58846 0.56042 0.0
H1332 H 0.76917 0.59936 0.57686 0.0
H1333 H 0.84033 0.58824 0.58701 0.0
H1334 H 0.81856 0.62463 0.50784 0.0
H1335 H 0.80649 0.65712 0.48215 0.0
H1336 H 0.86394 0.70374 0.50836 0.0
H1337 H 0.87657 0.67139 0.53369 0.0
H1338 H 0.91697 0.54001 0.52571 0.0
H1339 H 0.88414 0.5569 0.53191 0.0
H1340 H 0.92475 0.62324 0.54673 0.0
H1341 H 0.95801 0.60653 0.53991 0.0
H1342 H 0.88518 0.62726 0.51843 0.0
H1343 H 0.90953 0.5881 0.59252 0.0
H1344 H 0.92086 0.55555 0.61854 0.0
H1345 H 0.8567 0.5146 0.60561 0.0
H1346 H 0.84538 0.5463 0.57837 0.0
C1347 C 0.80374 0.65161 0.58148 0.0
C1348 C 0.78443 0.63502 0.58376 0.0
C1349 C 0.82253 0.64537 0.57208 0.0
C1350 C 0.8222 0.62254 0.56461 0.0
C1351 C 0.8027 0.60618 0.56611 0.0
C1352 C 0.78395 0.61237 0.57561 0.0
C1353 C 0.84274 0.61498 0.55767 0.0
C1354 C 0.84995 0.59647 0.57174 0.0
C1355 C 0.85565 0.62643 0.53843 0.0
C1356 C 0.84844 0.64568 0.52268 0.0
C1357 C 0.82862 0.64182 0.50803 0.0
C1358 C 0.82173 0.66017 0.49347 0.0
C1359 C 0.83444 0.68249 0.49361 0.0
C1360 C 0.85415 0.68644 0.50817 0.0
C1361 C 0.86128 0.66807 0.52247 0.0
C1362 C 0.91901 0.55829 0.52997 0.0
C1363 C 0.9401 0.57191 0.53257 0.0
C1364 C 0.9002 0.56788 0.5335 0.0
C1365 C 0.90213 0.59116 0.54011 0.0
C1366 C 0.92304 0.60519 0.54167 0.0
C1367 C 0.94197 0.59559 0.53799 0.0
C1368 C 0.88239 0.60003 0.54736 0.0
C1369 C 0.87548 0.61891 0.53358 0.0
C1370 C 0.86969 0.58888 0.56698 0.0
C1371 C 0.8767 0.56953 0.58304 0.0
C1372 C 0.89797 0.57198 0.59479 0.0
C1373 C 0.90442 0.55362 0.60973 0.0
C1374 C 0.88961 0.53288 0.61349 0.0
C1375 C 0.86831 0.53048 0.60235 0.0
C1376 C 0.86188 0.54862 0.58709 0.0
H1377 H 0.89458 0.51873 0.62517 0.0
H1378 H 0.82904 0.6967 0.48241 0.0
H1379 H 0.34346 0.43653 0.27601 0.0
H1380 H 0.36224 0.45761 0.2406 0.0
H1381 H 0.38172 0.3936 0.21942 0.0
H1382 H 0.36297 0.37252 0.25442 0.0
H1383 H 0.41564 0.42888 0.21806 0.0
H1384 H 0.33888 0.41457 0.18952 0.0
H1385 H 0.29925 0.4168 0.19115 0.0
H1386 H 0.31391 0.49174 0.18634 0.0
H1387 H 0.35375 0.49002 0.18511 0.0
H1388 H 0.41161 0.45188 0.07872 0.0
H1389 H 0.39175 0.44467 0.11697 0.0
H1390 H 0.4447 0.48898 0.15585 0.0
H1391 H 0.46508 0.49557 0.11795 0.0
H1392 H 0.37561 0.46907 0.15085 0.0
H1393 H 0.45408 0.46242 0.212 0.0
H1394 H 0.49239 0.45577 0.20803 0.0
H1395 H 0.47179 0.41533 0.14396 0.0
H1396 H 0.43335 0.4215 0.14777 0.0
C1397 C 0.35166 0.42698 0.26369 0.0
C1398 C 0.35185 0.4029 0.26805 0.0
C1399 C 0.36241 0.43903 0.24355 0.0
C1400 C 0.37336 0.42714 0.22743 0.0
C1401 C 0.37355 0.40314 0.23179 0.0
C1402 C 0.36288 0.39113 0.25184 0.0
C1403 C 0.38459 0.43936 0.20578 0.0
C1404 C 0.40695 0.43791 0.20351 0.0
C1405 C 0.37319 0.45101 0.18676 0.0
C1406 C 0.34931 0.45216 0.18756 0.0
C1407 C 0.33368 0.43154 0.18907 0.0
C1408 C 0.31119 0.43272 0.18988 0.0
C1409 C 0.3041 0.45442 0.18896 0.0
C1410 C 0.31948 0.47498 0.18716 0.0
C1411 C 0.34202 0.47392 0.1864 0.0
C1412 C 0.41896 0.46029 0.09534 0.0
C1413 C 0.44008 0.474 0.09537 0.0
C1414 C 0.40748 0.45632 0.11713 0.0
C1415 C 0.41689 0.46605 0.13929 0.0
C1416 C 0.43729 0.48106 0.139 0.0
C1417 C 0.4489 0.48481 0.11729 0.0
C1418 C 0.40653 0.45823 0.16302 0.0
C1419 C 0.38442 0.46056 0.16572 0.0
C1420 C 0.41796 0.44684 0.18223 0.0
C1421 C 0.44093 0.44267 0.18001 0.0
C1422 C 0.45774 0.45206 0.19712 0.0
C1423 C 0.47947 0.44838 0.19489 0.0
C1424 C 0.48454 0.43521 0.17569 0.0
C1425 C 0.46786 0.4256 0.15876 0.0
C1426 C 0.44611 0.42919 0.16094 0.0
H1427 H 0.50137 0.43242 0.17398 0.0
H1428 H 0.28667 0.4553 0.18957 0.0
H1429 H 0.38178 0.66267 0.81846 0.0
H1430 H 0.40379 0.6477 0.85279 0.0
H1431 H 0.37744 0.57707 0.8337 0.0
H1432 H 0.35619 0.59177 0.79832 0.0
H1433 H 0.38015 0.58866 0.88855 0.0
H1434 H 0.42342 0.59321 0.81538 0.0
H1435 H 0.44069 0.61354 0.77841 0.0
H1436 H 0.47848 0.66555 0.82428 0.0
H1437 H 0.46113 0.64571 0.86149 0.0
H1438 H 0.45715 0.52701 0.95552 0.0
H1439 H 0.43073 0.54291 0.92684 0.0
H1440 H 0.47372 0.60977 0.92481 0.0
H1441 H 0.50085 0.59339 0.95238 0.0
H1442 H 0.46142 0.60088 0.88095 0.0
H1443 H 0.42086 0.59766 0.95417 0.0
H1444 H 0.4034 0.58002 0.99221 0.0
H1445 H 0.36051 0.52945 0.94906 0.0
H1446 H 0.37791 0.54659 0.91079 0.0
C1447 C 0.38074 0.64393 0.82127 0.0
C1448 C 0.36735 0.6285 0.80518 0.0
C1449 C 0.39319 0.63543 0.84114 0.0
C1450 C 0.39229 0.61131 0.84571 0.0
C1451 C 0.37826 0.59577 0.83052 0.0
C1452 C 0.36605 0.60425 0.81033 0.0
C1453 C 0.40705 0.60246 0.86543 0.0
C1454 C 0.39791 0.59104 0.88689 0.0
C1455 C 0.43023 0.6063 0.8635 0.0
C1456 C 0.44079 0.61812 0.84117 0.0
C1457 C 0.43525 0.6091 0.81755 0.0
C1458 C 0.44508 0.62051 0.79656 0.0
C1459 C 0.46062 0.64086 0.79898 0.0
C1460 C 0.46641 0.6498 0.82242 0.0
C1461 C 0.45659 0.63848 0.84347 0.0
C1462 C 0.46078 0.54525 0.94938 0.0
C1463 C 0.48108 0.55898 0.9563 0.0
C1464 C 0.44557 0.55439 0.93297 0.0
C1465 C 0.44997 0.57771 0.92371 0.0
C1466 C 0.46987 0.59172 0.93152 0.0
C1467 C 0.48534 0.5824 0.94743 0.0
C1468 C 0.43469 0.58698 0.90455 0.0
C1469 C 0.44371 0.5985 0.88298 0.0
C1470 C 0.41142 0.58359 0.90666 0.0
C1471 C 0.40083 0.5733 0.92963 0.0
C1472 C 0.40781 0.58268 0.95281 0.0
C1473 C 0.3979 0.57278 0.97441 0.0
C1474 C 0.38089 0.5536 0.97306 0.0
C1475 C 0.3737 0.5443 0.95009 0.0
C1476 C 0.38356 0.55412 0.92842 0.0
H1477 H 0.37325 0.54596 0.98981 0.0
H1478 H 0.46823 0.64967 0.78271 0.0
H1479 H 0.38755 0.32323 0.81772 0.0
H1480 H 0.40729 0.34597 0.85152 0.0
H1481 H 0.39142 0.40939 0.81499 0.0
H1482 H 0.37199 0.38686 0.78103 0.0
H1483 H 0.43484 0.41417 0.83159 0.0
H1484 H 0.36343 0.38479 0.86431 0.0
H1485 H 0.33264 0.35401 0.87623 0.0
H1486 H 0.37649 0.32239 0.92716 0.0
H1487 H 0.40762 0.35282 0.91528 0.0
H1488 H 0.46314 0.49499 0.9228 0.0
H1489 H 0.4404 0.469 0.8939 0.0
H1490 H 0.45392 0.40915 0.93946 0.0
H1491 H 0.47578 0.4354 0.96927 0.0
H1492 H 0.41333 0.4003 0.91905 0.0
H1493 H 0.4847 0.42963 0.88755 0.0
H1494 H 0.5155 0.461 0.87691 0.0
H1495 H 0.47274 0.49188 0.82406 0.0
H1496 H 0.44162 0.46088 0.8345 0.0
C1497 C 0.38837 0.34203 0.81683 0.0
C1498 C 0.37811 0.35322 0.7967 0.0
C1499 C 0.39953 0.35499 0.83625 0.0
C1500 C 0.4007 0.37938 0.83591 0.0
C1501 C 0.39069 0.39059 0.81571 0.0
C1502 C 0.37944 0.37766 0.79639 0.0
C1503 C 0.41246 0.39337 0.85644 0.0
C1504 C 0.43 0.41126 0.85067 0.0
C1505 C 0.40662 0.38915 0.88148 0.0
C1506 C 0.38789 0.37093 0.88871 0.0
C1507 C 0.36654 0.37116 0.8779 0.0
C1508 C 0.34902 0.3538 0.88468 0.0
C1509 C 0.35262 0.33621 0.90239 0.0
C1510 C 0.37373 0.336 0.91341 0.0
C1511 C 0.39132 0.3533 0.90668 0.0
C1512 C 0.4608 0.47629 0.92694 0.0
C1513 C 0.47124 0.46715 0.94816 0.0
C1514 C 0.44799 0.46143 0.9103 0.0
C1515 C 0.44604 0.43704 0.914 0.0
C1516 C 0.45533 0.42788 0.93604 0.0
C1517 C 0.46776 0.44285 0.9531 0.0
C1518 C 0.43547 0.42138 0.89414 0.0
C1519 C 0.41827 0.40312 0.90001 0.0
C1520 C 0.44178 0.42506 0.86918 0.0
C1521 C 0.46077 0.44303 0.86196 0.0
C1522 C 0.48186 0.44313 0.87368 0.0
C1523 C 0.49935 0.46086 0.86774 0.0
C1524 C 0.49601 0.47851 0.85002 0.0
C1525 C 0.47526 0.47826 0.83789 0.0
C1526 C 0.45771 0.46058 0.84375 0.0
H1527 H 0.50953 0.49231 0.84558 0.0
H1528 H 0.33903 0.32279 0.90761 0.0
H1529 H 0.66494 0.40631 0.76809 0.0
H1530 H 0.64908 0.42681 0.79938 0.0
H1531 H 0.61594 0.36103 0.82962 0.0
H1532 H 0.63246 0.3402 0.79931 0.0
H1533 H 0.59498 0.41428 0.80869 0.0
H1534 H 0.63842 0.36722 0.87017 0.0
H1535 H 0.67433 0.3554 0.8831 0.0
H1536 H 0.70545 0.42736 0.88049 0.0
H1537 H 0.66973 0.43951 0.86723 0.0
H1538 H 0.53591 0.43765 0.9089 0.0
H1539 H 0.55636 0.41844 0.88099 0.0
H1540 H 0.61599 0.46588 0.90047 0.0
H1541 H 0.59551 0.48481 0.92913 0.0
H1542 H 0.62632 0.4251 0.89489 0.0
H1543 H 0.58177 0.47266 0.84782 0.0
H1544 H 0.54889 0.48833 0.83097 0.0
H1545 H 0.52152 0.42152 0.80241 0.0
H1546 H 0.5543 0.40534 0.81904 0.0
C1547 C 0.65464 0.39609 0.78166 0.0
C1548 C 0.65006 0.37149 0.78106 0.0
C1549 C 0.64548 0.4079 0.79943 0.0
C1550 C 0.63153 0.3954 0.81691 0.0
C1551 C 0.62685 0.37096 0.81641 0.0
C1552 C 0.63614 0.35911 0.79884 0.0
C1553 C 0.62105 0.40787 0.83505 0.0
C1554 C 0.60157 0.41646 0.82766 0.0
C1555 C 0.63026 0.4115 0.85935 0.0
C1556 C 0.65155 0.4042 0.86746 0.0
C1557 C 0.65298 0.38046 0.87214 0.0
C1558 C 0.67327 0.37372 0.87958 0.0
C1559 C 0.69218 0.39062 0.88254 0.0
C1560 C 0.69081 0.41429 0.87814 0.0
C1561 C 0.67056 0.42111 0.87067 0.0
C1562 C 0.55342 0.44392 0.90731 0.0
C1563 C 0.56411 0.46284 0.92096 0.0
C1564 C 0.56509 0.43298 0.89127 0.0
C1565 C 0.58762 0.44112 0.88798 0.0
C1566 C 0.59858 0.45944 0.90242 0.0
C1567 C 0.58692 0.4702 0.91886 0.0
C1568 C 0.59941 0.43082 0.869 0.0
C1569 C 0.61936 0.42285 0.87607 0.0
C1570 C 0.59069 0.42811 0.84417 0.0
C1571 C 0.57066 0.43776 0.83464 0.0
C1572 C 0.56881 0.46125 0.83795 0.0
C1573 C 0.55015 0.47024 0.82842 0.0
C1574 C 0.53316 0.45595 0.81555 0.0
C1575 C 0.53474 0.43259 0.8123 0.0
C1576 C 0.5534 0.42352 0.82171 0.0
H1577 H 0.51876 0.46297 0.8081 0.0
H1578 H 0.70788 0.38537 0.88831 0.0
H1579 H 0.60538 0.62098 0.72433 0.0
H1580 H 0.59167 0.59934 0.76199 0.0
H1581 H 0.65805 0.58944 0.78494 0.0
H1582 H 0.6719 0.61121 0.74761 0.0
H1583 H 0.62845 0.55002 0.79393 0.0
H1584 H 0.63683 0.63211 0.80843 0.0
H1585 H 0.63086 0.67278 0.79964 0.0
H1586 H 0.56093 0.65139 0.80566 0.0
H1587 H 0.56648 0.61051 0.81414 0.0
H1588 H 0.60028 0.56336 0.93048 0.0
H1589 H 0.61789 0.57382 0.89121 0.0
H1590 H 0.569 0.52349 0.85418 0.0
H1591 H 0.55086 0.51308 0.89343 0.0
H1592 H 0.59033 0.59159 0.85187 0.0
H1593 H 0.60521 0.50923 0.80117 0.0
H1594 H 0.61825 0.47153 0.80993 0.0
H1595 H 0.648 0.49551 0.87979 0.0
H1596 H 0.63578 0.53357 0.87118 0.0
C1597 C 0.61704 0.6142 0.73741 0.0
C1598 C 0.63973 0.6179 0.73304 0.0
C1599 C 0.60918 0.60175 0.75882 0.0
C1600 C 0.62389 0.59292 0.77627 0.0
C1601 C 0.64643 0.59598 0.77161 0.0
C1602 C 0.6543 0.60841 0.75024 0.0
C1603 C 0.61607 0.5817 0.8001 0.0
C1604 C 0.61989 0.55892 0.80657 0.0
C1605 C 0.60542 0.59367 0.81671 0.0
C1606 C 0.60205 0.61823 0.81163 0.0
C1607 C 0.62017 0.63606 0.80767 0.0
C1608 C 0.61686 0.65915 0.80278 0.0
C1609 C 0.59553 0.66466 0.80202 0.0
C1610 C 0.57745 0.64709 0.8062 0.0
C1611 C 0.58066 0.62396 0.81106 0.0
C1612 C 0.59345 0.55413 0.91415 0.0
C1613 C 0.5739 0.53771 0.91501 0.0
C1614 C 0.60362 0.56008 0.89174 0.0
C1615 C 0.59469 0.54944 0.86989 0.0
C1616 C 0.57618 0.53175 0.87094 0.0
C1617 C 0.56578 0.52596 0.89336 0.0
C1618 C 0.60248 0.5597 0.84573 0.0
C1619 C 0.59854 0.5824 0.83914 0.0
C1620 C 0.61333 0.54771 0.82931 0.0
C1621 C 0.61919 0.52421 0.83568 0.0
C1622 C 0.61445 0.50645 0.81846 0.0
C1623 C 0.62186 0.48507 0.82331 0.0
C1624 C 0.63391 0.48115 0.84541 0.0
C1625 C 0.63852 0.49854 0.86274 0.0
C1626 C 0.6313 0.52002 0.85792 0.0
H1627 H 0.63981 0.46469 0.84901 0.0
H1628 H 0.593 0.68255 0.79824 0.0
H1629 H 0.67024 0.65544 0.19759 0.0
H1630 H 0.65304 0.63379 0.16195 0.0
H1631 H 0.5885 0.63921 0.18628 0.0
H1632 H 0.60548 0.6604 0.22224 0.0
H1633 H 0.62596 0.59231 0.1606 0.0
H1634 H 0.553 0.64262 0.13536 0.0
H1635 H 0.54474 0.6827 0.13636 0.0
H1636 H 0.61381 0.71052 0.13258 0.0
H1637 H 0.62247 0.67064 0.13118 0.0
H1638 H 0.53585 0.5245 0.09964 0.0
H1639 H 0.56063 0.55073 0.1261 0.0
H1640 H 0.57884 0.59669 0.06263 0.0
H1641 H 0.55344 0.5704 0.03568 0.0
H1642 H 0.57003 0.62079 0.10201 0.0
H1643 H 0.61416 0.56236 0.08929 0.0
H1644 H 0.62186 0.5221 0.08785 0.0
H1645 H 0.61223 0.51129 0.16605 0.0
H1646 H 0.60384 0.55115 0.16781 0.0
C1647 C 0.65237 0.65192 0.19551 0.0
C1648 C 0.6393 0.65972 0.21294 0.0
C1649 C 0.64257 0.63963 0.17499 0.0
C1650 C 0.61947 0.63504 0.17124 0.0
C1651 C 0.60636 0.64289 0.18848 0.0
C1652 C 0.61614 0.65509 0.20906 0.0
C1653 C 0.60902 0.6212 0.14992 0.0
C1654 C 0.61384 0.5986 0.14769 0.0
C1655 C 0.59344 0.62951 0.13279 0.0
C1656 C 0.58839 0.6536 0.13338 0.0
C1657 C 0.56642 0.65729 0.13463 0.0
C1658 C 0.56167 0.67998 0.13529 0.0
C1659 C 0.57874 0.69914 0.13461 0.0
C1660 C 0.60061 0.69566 0.1332 0.0
C1661 C 0.60545 0.67301 0.13251 0.0
C1662 C 0.54518 0.54009 0.09111 0.0
C1663 C 0.5426 0.54532 0.06544 0.0
C1664 C 0.55948 0.55505 0.10635 0.0
C1665 C 0.57183 0.57559 0.09639 0.0
C1666 C 0.56952 0.58088 0.07072 0.0
C1667 C 0.55511 0.5658 0.05532 0.0
C1668 C 0.58645 0.59165 0.11322 0.0
C1669 C 0.58239 0.61463 0.11468 0.0
C1670 C 0.60278 0.58371 0.12963 0.0
C1671 C 0.60825 0.55977 0.12865 0.0
C1672 C 0.61352 0.55134 0.10614 0.0
C1673 C 0.61798 0.52854 0.10526 0.0
C1674 C 0.61745 0.51407 0.12681 0.0
C1675 C 0.61255 0.52242 0.14931 0.0
C1676 C 0.60794 0.54513 0.15027 0.0
H1677 H 0.62089 0.49643 0.12609 0.0
H1678 H 0.57503 0.71669 0.13513 0.0
H1679 H 0.33323 0.63191 0.21025 0.0
H1680 H 0.34876 0.61107 0.17904 0.0
H1681 H 0.41262 0.62426 0.21791 0.0
H1682 H 0.39723 0.645 0.24916 0.0
H1683 H 0.41684 0.63322 0.16979 0.0
H1684 H 0.37943 0.56951 0.22021 0.0
H1685 H 0.3477 0.54629 0.2409 0.0
H1686 H 0.31235 0.53604 0.17034 0.0
H1687 H 0.34383 0.55934 0.14924 0.0
H1688 H 0.47518 0.55308 0.12291 0.0
H1689 H 0.45394 0.57262 0.14937 0.0
H1690 H 0.39746 0.55987 0.09782 0.0
H1691 H 0.41879 0.53991 0.07091 0.0
H1692 H 0.38669 0.55167 0.14819 0.0
H1693 H 0.42656 0.61295 0.09778 0.0
H1694 H 0.45949 0.63479 0.0781 0.0
H1695 H 0.49118 0.64892 0.14993 0.0
H1696 H 0.45854 0.62689 0.17005 0.0
C1697 C 0.35053 0.63018 0.21231 0.0
C1698 C 0.36397 0.6402 0.23226 0.0
C1699 C 0.3594 0.61824 0.19441 0.0
C1700 C 0.38186 0.6159 0.19616 0.0
C1701 C 0.39527 0.62589 0.21605 0.0
C1702 C 0.38645 0.63785 0.23389 0.0
C1703 C 0.39163 0.60352 0.17709 0.0
C1704 C 0.41032 0.61532 0.16526 0.0
C1705 C 0.38281 0.58037 0.17054 0.0
C1706 C 0.36386 0.56641 0.18319 0.0
C1707 C 0.36482 0.56246 0.20913 0.0
C1708 C 0.3469 0.54924 0.22092 0.0
C1709 C 0.32799 0.53977 0.20695 0.0
C1710 C 0.32699 0.54343 0.18115 0.0
C1711 C 0.34487 0.5566 0.16926 0.0
C1712 C 0.45824 0.55435 0.11704 0.0
C1713 C 0.44879 0.54514 0.09455 0.0
C1714 C 0.44611 0.5656 0.13226 0.0
C1715 C 0.42422 0.56807 0.12542 0.0
C1716 C 0.41439 0.55829 0.10337 0.0
C1717 C 0.42662 0.54698 0.08798 0.0
C1718 C 0.41207 0.58127 0.14134 0.0
C1719 C 0.39299 0.56966 0.15254 0.0
C1720 C 0.42058 0.60458 0.14745 0.0
C1721 C 0.44014 0.61813 0.13542 0.0
C1722 C 0.4406 0.6206 0.10938 0.0
C1723 C 0.45921 0.63303 0.09815 0.0
C1724 C 0.47743 0.6432 0.11276 0.0
C1725 C 0.47705 0.64103 0.13864 0.0
C1726 C 0.45848 0.6286 0.14997 0.0
H1727 H 0.49183 0.6528 0.10403 0.0
H1728 H 0.31414 0.52952 0.21611 0.0
H1729 H 0.66233 0.41516 0.20726 0.0
H1730 H 0.64053 0.43131 0.17357 0.0
H1731 H 0.61196 0.3616 0.15283 0.0
H1732 H 0.63502 0.34531 0.18514 0.0
H1733 H 0.6174 0.38687 0.11295 0.0
H1734 H 0.58489 0.39682 0.18938 0.0
H1735 H 0.58355 0.40961 0.23205 0.0
H1736 H 0.60271 0.48113 0.20683 0.0
H1737 H 0.60444 0.46864 0.16406 0.0
H1738 H 0.51464 0.41865 0.0582 0.0
H1739 H 0.54241 0.40241 0.08526 0.0
H1740 H 0.58453 0.46964 0.0839 0.0
H1741 H 0.55728 0.48583 0.05635 0.0
H1742 H 0.57262 0.44631 0.13367 0.0
H1743 H 0.60257 0.43385 0.05557 0.0
H1744 H 0.60052 0.41891 0.01344 0.0
H1745 H 0.58172 0.34879 0.04314 0.0
H1746 H 0.58332 0.36337 0.08544 0.0
C1747 C 0.65181 0.40319 0.19525 0.0
C1748 C 0.65035 0.37883 0.1993 0.0
C1749 C 0.63903 0.4125 0.17614 0.0
C1750 C 0.62407 0.39772 0.16097 0.0
C1751 C 0.62317 0.37345 0.16436 0.0
C1752 C 0.63622 0.36412 0.18316 0.0
C1753 C 0.60896 0.40747 0.14203 0.0
C1754 C 0.60747 0.39969 0.11764 0.0
C1755 C 0.596 0.42435 0.14787 0.0
C1756 C 0.59502 0.43182 0.17359 0.0
C1757 C 0.58898 0.41525 0.19298 0.0
C1758 C 0.58812 0.42244 0.21717 0.0
C1759 C 0.5931 0.44616 0.22217 0.0
C1760 C 0.59889 0.46275 0.20296 0.0
C1761 C 0.5998 0.45564 0.17875 0.0
C1762 C 0.53 0.42983 0.06328 0.0
C1763 C 0.5338 0.45347 0.055 0.0
C1764 C 0.54583 0.42055 0.07873 0.0
C1765 C 0.56548 0.43485 0.08654 0.0
C1766 C 0.56949 0.45832 0.07798 0.0
C1767 C 0.55394 0.46747 0.06211 0.0
C1768 C 0.58122 0.42572 0.10487 0.0
C1769 C 0.58269 0.43357 0.12911 0.0
C1770 C 0.59371 0.40853 0.09903 0.0
C1771 C 0.59283 0.39973 0.07364 0.0
C1772 C 0.59778 0.41527 0.0531 0.0
C1773 C 0.59675 0.40686 0.02919 0.0
C1774 C 0.59093 0.38292 0.0256 0.0
C1775 C 0.58619 0.36734 0.04593 0.0
C1776 C 0.58717 0.37566 0.06988 0.0
H1777 H 0.59015 0.37645 0.00708 0.0
H1778 H 0.59242 0.45169 0.24091 0.0
loop_
_geom_bond_atom_site_label_1
_geom_bond_atom_site_label_2
_geom_bond_distance
_geom_bond_site_symmetry_2
_ccdc_geom_bond_type
C0 C1 1.391 . S
C0 C4 1.391 . S
C0 H42 0.948 . S
C1 C0 1.391 . S
C1 C2 1.391 . S
C2 C1 1.391 . S
C2 H58 0.947 . S
C2 C59 1.392 . S
C3 C4 1.391 . S
C3 C7 1.397 . S
C3 C59 1.419 . S
C4 C0 1.391 . S
C4 C3 1.391 . S
C4 C5 1.399 . S
C5 C4 1.399 . S
C5 C8 1.396 . S
C5 C17 1.453 . S
C5 C18 1.684 . S
H6 C30 0.948 . S
C7 C3 1.397 . S
C7 C8 1.394 . S
C7 C26 1.723 . S
C8 C5 1.396 . S
C8 C7 1.394 . S
C8 C38 1.723 . S
H9 C32 0.947 . S
H10 C33 0.948 . S
H11 C39 0.982 . S
H12 C40 0.979 . S
H13 C40 0.980 . S
H14 C40 0.983 . S
H15 C39 0.979 . S
H16 C39 0.977 . S
C17 C5 1.453 . S
C17 H46 0.982 . S
C17 H47 0.979 . S
C17 H48 0.977 . S
C18 C5 1.684 . S
C18 H43 0.979 . S
C18 H44 0.980 . S
C18 H45 0.983 . S
C19 C20 1.391 . S
C19 C24 1.391 . S
C19 H49 0.948 . S
C20 C19 1.391 . S
C20 C21 1.391 . S
C21 C20 1.391 . S
C21 C22 1.392 . S
C21 H50 0.947 . S
C22 C21 1.392 . S
C22 C23 1.419 . S
C22 H51 0.948 . S
C23 C22 1.419 . S
C23 C24 1.391 . S
C23 C27 1.397 . S
C24 C19 1.391 . S
C24 C23 1.391 . S
C24 C25 1.399 . S
C25 C24 1.399 . S
C25 C26 1.396 . S
C25 C28 1.453 . S
C25 C29 1.684 . S
C26 C7 1.723 . S
C26 C25 1.396 . S
C26 C27 1.394 . S
C27 C23 1.397 . S
C27 C26 1.394 . S
C27 C37 1.723 . S
C28 C25 1.453 . S
C28 H52 0.982 . S
C28 H53 0.979 . S
C28 H54 0.977 . S
C29 C25 1.684 . S
C29 H55 0.979 . S
C29 H56 0.980 . S
C29 H57 0.983 . S
C30 H6 0.948 . S
C30 C31 1.391 . S
C30 C35 1.391 . S
C31 C30 1.391 . S
C31 C32 1.391 . S
C32 H9 0.947 . S
C32 C31 1.391 . S
C32 C33 1.392 . S
C33 H10 0.948 . S
C33 C32 1.392 . S
C33 C34 1.419 . S
C34 C33 1.419 . S
C34 C35 1.391 . S
C34 C38 1.397 . S
C35 C30 1.391 . S
C35 C34 1.391 . S
C35 C36 1.399 . S
C36 C35 1.399 . S
C36 C37 1.396 . S
C36 C39 1.453 . S
C36 C40 1.684 . S
C37 C27 1.723 . S
C37 C36 1.396 . S
C37 C38 1.394 . S
C38 C8 1.723 . S
C38 C34 1.397 . S
C38 C37 1.394 . S
C39 H11 0.982 . S
C39 H15 0.979 . S
C39 H16 0.977 . S
C39 C36 1.453 . S
C40 H12 0.979 . S
C40 H13 0.980 . S
C40 H14 0.983 . S
C40 C36 1.684 . S
H41 C59 0.948 . S
H42 C0 0.948 . S
H43 C18 0.979 . S
H44 C18 0.980 . S
H45 C18 0.983 . S
H46 C17 0.982 . S
H47 C17 0.979 . S
H48 C17 0.977 . S
H49 C19 0.948 . S
H50 C21 0.947 . S
H51 C22 0.948 . S
H52 C28 0.982 . S
H53 C28 0.979 . S
H54 C28 0.977 . S
H55 C29 0.979 . S
H56 C29 0.980 . S
H57 C29 0.983 . S
H58 C2 0.947 . S
C59 C2 1.392 . S
C59 C3 1.419 . S
C59 H41 0.948 . S
C60 C61 1.391 . S
C60 C64 1.391 . S
C60 H102 0.948 . S
C61 C60 1.391 . S
C61 C62 1.391 . S
C62 C61 1.391 . S
C62 H118 0.947 . S
C62 C119 1.392 . S
C63 C64 1.391 . S
C63 C67 1.397 . S
C63 C119 1.419 . S
C64 C60 1.391 . S
C64 C63 1.391 . S
C64 C65 1.399 . S
C65 C64 1.399 . S
C65 C68 1.396 . S
C65 C77 1.453 . S
C65 C78 1.684 . S
H66 C90 0.948 . S
C67 C63 1.397 . S
C67 C68 1.394 . S
C67 C86 1.723 . S
C68 C65 1.396 . S
C68 C67 1.394 . S
C68 C98 1.723 . S
H69 C92 0.947 . S
H70 C93 0.948 . S
H71 C99 0.982 . S
H72 C100 0.979 . S
H73 C100 0.980 . S
H74 C100 0.983 . S
H75 C99 0.979 . S
H76 C99 0.977 . S
C77 C65 1.453 . S
C77 H106 0.982 . S
C77 H107 0.979 . S
C77 H108 0.977 . S
C78 C65 1.684 . S
C78 H103 0.979 . S
C78 H104 0.980 . S
C78 H105 0.983 . S
C79 C80 1.391 . S
C79 C84 1.391 . S
C79 H109 0.948 . S
C80 C79 1.391 . S
C80 C81 1.391 . S
C81 C80 1.391 . S
C81 C82 1.392 . S
C81 H110 0.947 . S
C82 C81 1.392 . S
C82 C83 1.419 . S
C82 H111 0.948 . S
C83 C82 1.419 . S
C83 C84 1.391 . S
C83 C87 1.397 . S
C84 C79 1.391 . S
C84 C83 1.391 . S
C84 C85 1.399 . S
C85 C84 1.399 . S
C85 C86 1.396 . S
C85 C88 1.453 . S
C85 C89 1.684 . S
C86 C67 1.723 . S
C86 C85 1.396 . S
C86 C87 1.394 . S
C87 C83 1.397 . S
C87 C86 1.394 . S
C87 C97 1.723 . S
C88 C85 1.453 . S
C88 H112 0.982 . S
C88 H113 0.979 . S
C88 H114 0.977 . S
C89 C85 1.684 . S
C89 H115 0.979 . S
C89 H116 0.980 . S
C89 H117 0.983 . S
C90 H66 0.948 . S
C90 C91 1.391 . S
C90 C95 1.391 . S
C91 C90 1.391 . S
C91 C92 1.391 . S
C92 H69 0.947 . S
C92 C91 1.391 . S
C92 C93 1.392 . S
C93 H70 0.948 . S
C93 C92 1.392 . S
C93 C94 1.419 . S
C94 C93 1.419 . S
C94 C95 1.391 . S
C94 C98 1.397 . S
C95 C90 1.391 . S
C95 C94 1.391 . S
C95 C96 1.399 . S
C96 C95 1.399 . S
C96 C97 1.396 . S
C96 C99 1.453 . S
C96 C100 1.684 . S
C97 C87 1.723 . S
C97 C96 1.396 . S
C97 C98 1.394 . S
C98 C68 1.723 . S
C98 C94 1.397 . S
C98 C97 1.394 . S
C99 H71 0.982 . S
C99 H75 0.979 . S
C99 H76 0.977 . S
C99 C96 1.453 . S
C100 H72 0.979 . S
C100 H73 0.980 . S
C100 H74 0.983 . S
C100 C96 1.684 . S
H101 C119 0.948 . S
H102 C60 0.948 . S
H103 C78 0.979 . S
H104 C78 0.980 . S
H105 C78 0.983 . S
H106 C77 0.982 . S
H107 C77 0.979 . S
H108 C77 0.977 . S
H109 C79 0.948 . S
H110 C81 0.947 . S
H111 C82 0.948 . S
H112 C88 0.982 . S
H113 C88 0.979 . S
H114 C88 0.977 . S
H115 C89 0.979 . S
H116 C89 0.980 . S
H117 C89 0.983 . S
H118 C62 0.947 . S
C119 C62 1.392 . S
C119 C63 1.419 . S
C119 H101 0.948 . S
C120 C121 1.391 . S
C120 C124 1.391 . S
C120 H162 0.948 . S
C121 C120 1.391 . S
C121 C122 1.391 . S
C122 C121 1.391 . S
C122 H178 0.947 . S
C122 C179 1.392 . S
C123 C124 1.391 . S
C123 C127 1.397 . S
C123 C179 1.419 . S
C124 C120 1.391 . S
C124 C123 1.391 . S
C124 C125 1.399 . S
C125 C124 1.399 . S
C125 C128 1.396 . S
C125 C137 1.453 . S
C125 C138 1.684 . S
H126 C150 0.948 . S
C127 C123 1.397 . S
C127 C128 1.394 . S
C127 C146 1.723 . S
C128 C125 1.396 . S
C128 C127 1.394 . S
C128 C158 1.723 . S
H129 C152 0.947 . S
H130 C153 0.948 . S
H131 C159 0.982 . S
H132 C160 0.979 . S
H133 C160 0.980 . S
H134 C160 0.983 . S
H135 C159 0.979 . S
H136 C159 0.977 . S
C137 C125 1.453 . S
C137 H166 0.982 . S
C137 H167 0.979 . S
C137 H168 0.977 . S
C138 C125 1.684 . S
C138 H163 0.979 . S
C138 H164 0.980 . S
C138 H165 0.983 . S
C139 C140 1.391 . S
C139 C144 1.391 . S
C139 H169 0.948 . S
C140 C139 1.391 . S
C140 C141 1.391 . S
C141 C140 1.391 . S
C141 C142 1.392 . S
C141 H170 0.947 . S
C142 C141 1.392 . S
C142 C143 1.419 . S
C142 H171 0.948 . S
C143 C142 1.419 . S
C143 C144 1.391 . S
C143 C147 1.397 . S
C144 C139 1.391 . S
C144 C143 1.391 . S
C144 C145 1.399 . S
C145 C144 1.399 . S
C145 C146 1.396 . S
C145 C148 1.453 . S
C145 C149 1.684 . S
C146 C127 1.723 . S
C146 C145 1.396 . S
C146 C147 1.394 . S
C147 C143 1.397 . S
C147 C146 1.394 . S
C147 C157 1.723 . S
C148 C145 1.453 . S
C148 H172 0.982 . S
C148 H173 0.979 . S
C148 H174 0.977 . S
C149 C145 1.684 . S
C149 H175 0.979 . S
C149 H176 0.980 . S
C149 H177 0.983 . S
C150 H126 0.948 . S
C150 C151 1.391 . S
C150 C155 1.391 . S
C151 C150 1.391 . S
C151 C152 1.391 . S
C152 H129 0.947 . S
C152 C151 1.391 . S
C152 C153 1.392 . S
C153 H130 0.948 . S
C153 C152 1.392 . S
C153 C154 1.419 . S
C154 C153 1.419 . S
C154 C155 1.391 . S
C154 C158 1.397 . S
C155 C150 1.391 . S
C155 C154 1.391 . S
C155 C156 1.399 . S
C156 C155 1.399 . S
C156 C157 1.396 . S
C156 C159 1.453 . S
C156 C160 1.684 . S
C157 C147 1.723 . S
C157 C156 1.396 . S
C157 C158 1.394 . S
C158 C128 1.723 . S
C158 C154 1.397 . S
C158 C157 1.394 . S
C159 H131 0.982 . S
C159 H135 0.979 . S
C159 H136 0.977 . S
C159 C156 1.453 . S
C160 H132 0.979 . S
C160 H133 0.980 . S
C160 H134 0.983 . S
C160 C156 1.684 . S
H161 C179 0.948 . S
H162 C120 0.948 . S
H163 C138 0.979 . S
H164 C138 0.980 . S
H165 C138 0.983 . S
H166 C137 0.982 . S
H167 C137 0.979 . S
H168 C137 0.977 . S
H169 C139 0.948 . S
H170 C141 0.947 . S
H171 C142 0.948 . S
H172 C148 0.982 . S
H173 C148 0.979 . S
H174 C148 0.977 . S
H175 C149 0.979 . S
H176 C149 0.980 . S
H177 C149 0.983 . S
H178 C122 0.947 . S
C179 C122 1.392 . S
C179 C123 1.419 . S
C179 H161 0.948 . S
C180 C181 1.391 . S
C180 C184 1.391 . S
C180 H222 0.948 . S
C181 C180 1.391 . S
C181 C182 1.391 . S
C182 C181 1.391 . S
C182 H238 0.947 . S
C182 C239 1.392 . S
C183 C184 1.391 . S
C183 C187 1.397 . S
C183 C239 1.419 . S
C184 C180 1.391 . S
C184 C183 1.391 . S
C184 C185 1.399 . S
C185 C184 1.399 . S
C185 C188 1.396 . S
C185 C197 1.453 . S
C185 C198 1.684 . S
H186 C210 0.948 . S
C187 C183 1.397 . S
C187 C188 1.394 . S
C187 C206 1.723 . S
C188 C185 1.396 . S
C188 C187 1.394 . S
C188 C218 1.723 . S
H189 C212 0.947 . S
H190 C213 0.948 . S
H191 C219 0.982 . S
H192 C220 0.979 . S
H193 C220 0.980 . S
H194 C220 0.983 . S
H195 C219 0.979 . S
H196 C219 0.977 . S
C197 C185 1.453 . S
C197 H226 0.982 . S
C197 H227 0.979 . S
C197 H228 0.977 . S
C198 C185 1.684 . S
C198 H223 0.979 . S
C198 H224 0.980 . S
C198 H225 0.983 . S
C199 C200 1.391 . S
C199 C204 1.391 . S
C199 H229 0.948 . S
C200 C199 1.391 . S
C200 C201 1.391 . S
C201 C200 1.391 . S
C201 C202 1.392 . S
C201 H230 0.947 . S
C202 C201 1.392 . S
C202 C203 1.419 . S
C202 H231 0.948 . S
C203 C202 1.419 . S
C203 C204 1.391 . S
C203 C207 1.397 . S
C204 C199 1.391 . S
C204 C203 1.391 . S
C204 C205 1.399 . S
C205 C204 1.399 . S
C205 C206 1.396 . S
C205 C208 1.453 . S
C205 C209 1.684 . S
C206 C187 1.723 . S
C206 C205 1.396 . S
C206 C207 1.394 . S
C207 C203 1.397 . S
C207 C206 1.394 . S
C207 C217 1.723 . S
C208 C205 1.453 . S
C208 H232 0.982 . S
C208 H233 0.979 . S
C208 H234 0.977 . S
C209 C205 1.684 . S
C209 H235 0.979 . S
C209 H236 0.980 . S
C209 H237 0.983 . S
C210 H186 0.948 . S
C210 C211 1.391 . S
C210 C215 1.391 . S
C211 C210 1.391 . S
C211 C212 1.391 . S
C212 H189 0.947 . S
C212 C211 1.391 . S
C212 C213 1.392 . S
C213 H190 0.948 . S
C213 C212 1.392 . S
C213 C214 1.419 . S
C214 C213 1.419 . S
C214 C215 1.391 . S
C214 C218 1.397 . S
C215 C210 1.391 . S
C215 C214 1.391 . S
C215 C216 1.399 . S
C216 C215 1.399 . S
C216 C217 1.396 . S
C216 C219 1.453 . S
C216 C220 1.684 . S
C217 C207 1.723 . S
C217 C216 1.396 . S
C217 C218 1.394 . S
C218 C188 1.723 . S
C218 C214 1.397 . S
C218 C217 1.394 . S
C219 H191 0.982 . S
C219 H195 0.979 . S
C219 H196 0.977 . S
C219 C216 1.453 . S
C220 H192 0.979 . S
C220 H193 0.980 . S
C220 H194 0.983 . S
C220 C216 1.684 . S
H221 C239 0.948 . S
H222 C180 0.948 . S
H223 C198 0.979 . S
H224 C198 0.980 . S
H225 C198 0.983 . S
H226 C197 0.982 . S
H227 C197 0.979 . S
H228 C197 0.977 . S
H229 C199 0.948 . S
H230 C201 0.947 . S
H231 C202 0.948 . S
H232 C208 0.982 . S
H233 C208 0.979 . S
H234 C208 0.977 . S
H235 C209 0.979 . S
H236 C209 0.980 . S
H237 C209 0.983 . S
H238 C182 0.947 . S
C239 C182 1.392 . S
C239 C183 1.419 . S
C239 H221 0.948 . S
C240 C241 1.391 . S
C240 C244 1.391 . S
C240 H282 0.948 . S
C241 C240 1.391 . S
C241 C242 1.391 . S
C242 C241 1.391 . S
C242 H298 0.947 . S
C242 C299 1.392 . S
C243 C244 1.391 . S
C243 C247 1.397 . S
C243 C299 1.419 . S
C244 C240 1.391 . S
C244 C243 1.391 . S
C244 C245 1.399 . S
C245 C244 1.399 . S
C245 C248 1.396 . S
C245 C257 1.453 . S
C245 C258 1.684 . S
H246 C270 0.948 . S
C247 C243 1.397 . S
C247 C248 1.394 . S
C247 C266 1.723 . S
C248 C245 1.396 . S
C248 C247 1.394 . S
C248 C278 1.723 . S
H249 C272 0.947 . S
H250 C273 0.948 . S
H251 C279 0.982 . S
H252 C280 0.979 . S
H253 C280 0.980 . S
H254 C280 0.983 . S
H255 C279 0.979 . S
H256 C279 0.977 . S
C257 C245 1.453 . S
C257 H286 0.982 . S
C257 H287 0.979 . S
C257 H288 0.977 . S
C258 C245 1.684 . S
C258 H283 0.979 . S
C258 H284 0.980 . S
C258 H285 0.983 . S
C259 C260 1.391 . S
C259 C264 1.391 . S
C259 H289 0.948 . S
C260 C259 1.391 . S
C260 C261 1.391 . S
C261 C260 1.391 . S
C261 C262 1.392 . S
C261 H290 0.947 . S
C262 C261 1.392 . S
C262 C263 1.419 . S
C262 H291 0.948 . S
C263 C262 1.419 . S
C263 C264 1.391 . S
C263 C267 1.397 . S
C264 C259 1.391 . S
C264 C263 1.391 . S
C264 C265 1.399 . S
C265 C264 1.399 . S
C265 C266 1.396 . S
C265 C268 1.453 . S
C265 C269 1.684 . S
C266 C247 1.723 . S
C266 C265 1.396 . S
C266 C267 1.394 . S
C267 C263 1.397 . S
C267 C266 1.394 . S
C267 C277 1.723 . S
C268 C265 1.453 . S
C268 H292 0.982 . S
C268 H293 0.979 . S
C268 H294 0.977 . S
C269 C265 1.684 . S
C269 H295 0.979 . S
C269 H296 0.980 . S
C269 H297 0.983 . S
C270 H246 0.948 . S
C270 C271 1.391 . S
C270 C275 1.391 . S
C271 C270 1.391 . S
C271 C272 1.391 . S
C272 H249 0.947 . S
C272 C271 1.391 . S
C272 C273 1.392 . S
C273 H250 0.948 . S
C273 C272 1.392 . S
C273 C274 1.419 . S
C274 C273 1.419 . S
C274 C275 1.391 . S
C274 C278 1.397 . S
C275 C270 1.391 . S
C275 C274 1.391 . S
C275 C276 1.399 . S
C276 C275 1.399 . S
C276 C277 1.396 . S
C276 C279 1.453 . S
C276 C280 1.684 . S
C277 C267 1.723 . S
C277 C276 1.396 . S
C277 C278 1.394 . S
C278 C248 1.723 . S
C278 C274 1.397 . S
C278 C277 1.394 . S
C279 H251 0.982 . S
C279 H255 0.979 . S
C279 H256 0.977 . S
C279 C276 1.453 . S
C280 H252 0.979 . S
C280 H253 0.980 . S
C280 H254 0.983 . S
C280 C276 1.684 . S
H281 C299 0.948 . S
H282 C240 0.948 . S
H283 C258 0.979 . S
H284 C258 0.980 . S
H285 C258 0.983 . S
H286 C257 0.982 . S
H287 C257 0.979 . S
H288 C257 0.977 . S
H289 C259 0.948 . S
H290 C261 0.947 . S
H291 C262 0.948 . S
H292 C268 0.982 . S
H293 C268 0.979 . S
H294 C268 0.977 . S
H295 C269 0.979 . S
H296 C269 0.980 . S
H297 C269 0.983 . S
H298 C242 0.947 . S
C299 C242 1.392 . S
C299 C243 1.419 . S
C299 H281 0.948 . S
C300 C301 1.391 . S
C300 C304 1.391 . S
C300 H342 0.948 . S
C301 C300 1.391 . S
C301 C302 1.391 . S
C302 C301 1.391 . S
C302 H358 0.947 . S
C302 C359 1.392 . S
C303 C304 1.391 . S
C303 C307 1.397 . S
C303 C359 1.419 . S
C304 C300 1.391 . S
C304 C303 1.391 . S
C304 C305 1.399 . S
C305 C304 1.399 . S
C305 C308 1.396 . S
C305 C317 1.453 . S
C305 C318 1.684 . S
H306 C330 0.948 . S
C307 C303 1.397 . S
C307 C308 1.394 . S
C307 C326 1.723 . S
C308 C305 1.396 . S
C308 C307 1.394 . S
C308 C338 1.723 . S
H309 C332 0.947 . S
H310 C333 0.948 . S
H311 C339 0.982 . S
H312 C340 0.979 . S
H313 C340 0.980 . S
H314 C340 0.983 . S
H315 C339 0.979 . S
H316 C339 0.977 . S
C317 C305 1.453 . S
C317 H346 0.982 . S
C317 H347 0.979 . S
C317 H348 0.977 . S
C318 C305 1.684 . S
C318 H343 0.979 . S
C318 H344 0.980 . S
C318 H345 0.983 . S
C319 C320 1.391 . S
C319 C324 1.391 . S
C319 H349 0.948 . S
C320 C319 1.391 . S
C320 C321 1.391 . S
C321 C320 1.391 . S
C321 C322 1.392 . S
C321 H350 0.947 . S
C322 C321 1.392 . S
C322 C323 1.419 . S
C322 H351 0.948 . S
C323 C322 1.419 . S
C323 C324 1.391 . S
C323 C327 1.397 . S
C324 C319 1.391 . S
C324 C323 1.391 . S
C324 C325 1.399 . S
C325 C324 1.399 . S
C325 C326 1.396 . S
C325 C328 1.453 . S
C325 C329 1.684 . S
C326 C307 1.723 . S
C326 C325 1.396 . S
C326 C327 1.394 . S
C327 C323 1.397 . S
C327 C326 1.394 . S
C327 C337 1.723 . S
C328 C325 1.453 . S
C328 H352 0.982 . S
C328 H353 0.979 . S
C328 H354 0.977 . S
C329 C325 1.684 . S
C329 H355 0.979 . S
C329 H356 0.980 . S
C329 H357 0.983 . S
C330 H306 0.948 . S
C330 C331 1.391 . S
C330 C335 1.391 . S
C331 C330 1.391 . S
C331 C332 1.391 . S
C332 H309 0.947 . S
C332 C331 1.391 . S
C332 C333 1.392 . S
C333 H310 0.948 . S
C333 C332 1.392 . S
C333 C334 1.419 . S
C334 C333 1.419 . S
C334 C335 1.391 . S
C334 C338 1.397 . S
C335 C330 1.391 . S
C335 C334 1.391 . S
C335 C336 1.399 . S
C336 C335 1.399 . S
C336 C337 1.396 . S
C336 C339 1.453 . S
C336 C340 1.684 . S
C337 C327 1.723 . S
C337 C336 1.396 . S
C337 C338 1.394 . S
C338 C308 1.723 . S
C338 C334 1.397 . S
C338 C337 1.394 . S
C339 H311 0.982 . S
C339 H315 0.979 . S
C339 H316 0.977 . S
C339 C336 1.453 . S
C340 H312 0.979 . S
C340 H313 0.980 . S
C340 H314 0.983 . S
C340 C336 1.684 . S
H341 C359 0.948 . S
H342 C300 0.948 . S
H343 C318 0.979 . S
H344 C318 0.980 . S
H345 C318 0.983 . S
H346 C317 0.982 . S
H347 C317 0.979 . S
H348 C317 0.977 . S
H349 C319 0.948 . S
H350 C321 0.947 . S
H351 C322 0.948 . S
H352 C328 0.982 . S
H353 C328 0.979 . S
H354 C328 0.977 . S
H355 C329 0.979 . S
H356 C329 0.980 . S
H357 C329 0.983 . S
H358 C302 0.947 . S
C359 C302 1.392 . S
C359 C303 1.419 . S
C359 H341 0.948 . S
C360 C361 1.391 . S
C360 C364 1.391 . S
C360 H402 0.948 . S
C361 C360 1.391 . S
C361 C362 1.391 . S
C362 C361 1.391 . S
C362 H418 0.947 . S
C362 C419 1.392 . S
C363 C364 1.391 . S
C363 C367 1.397 . S
C363 C419 1.419 . S
C364 C360 1.391 . S
C364 C363 1.391 . S
C364 C365 1.399 . S
C365 C364 1.399 . S
C365 C368 1.396 . S
C365 C377 1.453 . S
C365 C378 1.684 . S
H366 C390 0.948 . S
C367 C363 1.397 . S
C367 C368 1.394 . S
C367 C386 1.723 . S
C368 C365 1.396 . S
C368 C367 1.394 . S
C368 C398 1.723 . S
H369 C392 0.947 . S
H370 C393 0.948 . S
H371 C399 0.982 . S
H372 C400 0.979 . S
H373 C400 0.980 . S
H374 C400 0.983 . S
H375 C399 0.979 . S
H376 C399 0.977 . S
C377 C365 1.453 . S
C377 H406 0.982 . S
C377 H407 0.979 . S
C377 H408 0.977 . S
C378 C365 1.684 . S
C378 H403 0.979 . S
C378 H404 0.980 . S
C378 H405 0.983 . S
C379 C380 1.391 . S
C379 C384 1.391 . S
C379 H409 0.948 . S
C380 C379 1.391 . S
C380 C381 1.391 . S
C381 C380 1.391 . S
C381 C382 1.392 . S
C381 H410 0.947 . S
C382 C381 1.392 . S
C382 C383 1.419 . S
C382 H411 0.948 . S
C383 C382 1.419 . S
C383 C384 1.391 . S
C383 C387 1.397 . S
C384 C379 1.391 . S
C384 C383 1.391 . S
C384 C385 1.399 . S
C385 C384 1.399 . S
C385 C386 1.396 . S
C385 C388 1.453 . S
C385 C389 1.684 . S
C386 C367 1.723 . S
C386 C385 1.396 . S
C386 C387 1.394 . S
C387 C383 1.397 . S
C387 C386 1.394 . S
C387 C397 1.723 . S
C388 C385 1.453 . S
C388 H412 0.982 . S
C388 H413 0.979 . S
C388 H414 0.977 . S
C389 C385 1.684 . S
C389 H415 0.979 . S
C389 H416 0.980 . S
C389 H417 0.983 . S
C390 H366 0.948 . S
C390 C391 1.391 . S
C390 C395 1.391 . S
C391 C390 1.391 . S
C391 C392 1.391 . S
C392 H369 0.947 . S
C392 C391 1.391 . S
C392 C393 1.392 . S
C393 H370 0.948 . S
C393 C392 1.392 . S
C393 C394 1.419 . S
C394 C393 1.419 . S
C394 C395 1.391 . S
C394 C398 1.397 . S
C395 C390 1.391 . S
C395 C394 1.391 . S
C395 C396 1.399 . S
C396 C395 1.399 . S
C396 C397 1.396 . S
C396 C399 1.453 . S
C396 C400 1.684 . S
C397 C387 1.723 . S
C397 C396 1.396 . S
C397 C398 1.394 . S
C398 C368 1.723 . S
C398 C394 1.397 . S
C398 C397 1.394 . S
C399 H371 0.982 . S
C399 H375 0.979 . S
C399 H376 0.977 . S
C399 C396 1.453 . S
C400 H372 0.979 . S
C400 H373 0.980 . S
C400 H374 0.983 . S
C400 C396 1.684 . S
H401 C419 0.948 . S
H402 C360 0.948 . S
H403 C378 0.979 . S
H404 C378 0.980 . S
H405 C378 0.983 . S
H406 C377 0.982 . S
H407 C377 0.979 . S
H408 C377 0.977 . S
H409 C379 0.948 . S
H410 C381 0.947 . S
H411 C382 0.948 . S
H412 C388 0.982 . S
H413 C388 0.979 . S
H414 C388 0.977 . S
H415 C389 0.979 . S
H416 C389 0.980 . S
H417 C389 0.983 . S
H418 C362 0.947 . S
C419 C362 1.392 . S
C419 C363 1.419 . S
C419 H401 0.948 . S
C420 C421 1.391 . S
C420 C424 1.391 . S
C420 H462 0.948 . S
C421 C420 1.391 . S
C421 C422 1.391 . S
C422 C421 1.391 . S
C422 H478 0.947 . S
C422 C479 1.392 . S
C423 C424 1.391 . S
C423 C427 1.397 . S
C423 C479 1.419 . S
C424 C420 1.391 . S
C424 C423 1.391 . S
C424 C425 1.399 . S
C425 C424 1.399 . S
C425 C428 1.396 . S
C425 C437 1.453 . S
C425 C438 1.684 . S
H426 C450 0.948 . S
C427 C423 1.397 . S
C427 C428 1.394 . S
C427 C446 1.723 . S
C428 C425 1.396 . S
C428 C427 1.394 . S
C428 C458 1.723 . S
H429 C452 0.947 . S
H430 C453 0.948 . S
H431 C459 0.982 . S
H432 C460 0.979 . S
H433 C460 0.980 . S
H434 C460 0.983 . S
H435 C459 0.979 . S
H436 C459 0.977 . S
C437 C425 1.453 . S
C437 H466 0.982 . S
C437 H467 0.979 . S
C437 H468 0.977 . S
C438 C425 1.684 . S
C438 H463 0.979 . S
C438 H464 0.980 . S
C438 H465 0.983 . S
C439 C440 1.391 . S
C439 C444 1.391 . S
C439 H469 0.948 . S
C440 C439 1.391 . S
C440 C441 1.391 . S
C441 C440 1.391 . S
C441 C442 1.392 . S
C441 H470 0.947 . S
C442 C441 1.392 . S
C442 C443 1.419 . S
C442 H471 0.948 . S
C443 C442 1.419 . S
C443 C444 1.391 . S
C443 C447 1.397 . S
C444 C439 1.391 . S
C444 C443 1.391 . S
C444 C445 1.399 . S
C445 C444 1.399 . S
C445 C446 1.396 . S
C445 C448 1.453 . S
C445 C449 1.684 . S
C446 C427 1.723 . S
C446 C445 1.396 . S
C446 C447 1.394 . S
C447 C443 1.397 . S
C447 C446 1.394 . S
C447 C457 1.723 . S
C448 C445 1.453 . S
C448 H472 0.982 . S
C448 H473 0.979 . S
C448 H474 0.977 . S
C449 C445 1.684 . S
C449 H475 0.979 . S
C449 H476 0.980 . S
C449 H477 0.983 . S
C450 H426 0.948 . S
C450 C451 1.391 . S
C450 C455 1.391 . S
C451 C450 1.391 . S
C451 C452 1.391 . S
C452 H429 0.947 . S
C452 C451 1.391 . S
C452 C453 1.392 . S
C453 H430 0.948 . S
C453 C452 1.392 . S
C453 C454 1.419 . S
C454 C453 1.419 . S
C454 C455 1.391 . S
C454 C458 1.397 . S
C455 C450 1.391 . S
C455 C454 1.391 . S
C455 C456 1.399 . S
C456 C455 1.399 . S
C456 C457 1.396 . S
C456 C459 1.453 . S
C456 C460 1.684 . S
C457 C447 1.723 . S
C457 C456 1.396 . S
C457 C458 1.394 . S
C458 C428 1.723 . S
C458 C454 1.397 . S
C458 C457 1.394 . S
C459 H431 0.982 . S
C459 H435 0.979 . S
C459 H436 0.977 . S
C459 C456 1.453 . S
C460 H432 0.979 . S
C460 H433 0.980 . S
C460 H434 0.983 . S
C460 C456 1.684 . S
H461 C479 0.948 . S
H462 C420 0.948 . S
H463 C438 0.979 . S
H464 C438 0.980 . S
H465 C438 0.983 . S
H466 C437 0.982 . S
H467 C437 0.979 . S
H468 C437 0.977 . S
H469 C439 0.948 . S
H470 C441 0.947 . S
H471 C442 0.948 . S
H472 C448 0.982 . S
H473 C448 0.979 . S
H474 C448 0.977 . S
H475 C449 0.979 . S
H476 C449 0.980 . S
H477 C449 0.983 . S
H478 C422 0.947 . S
C479 C422 1.392 . S
C479 C423 1.419 . S
C479 H461 0.948 . S
Co480 O483 2.042 . S
Co480 O490 2.264 . S
Co480 O509 2.286 . S
Co480 O510 2.069 . S
Co480 O512 2.015 . S
Co481 O483 2.122 . S
Co481 O489 2.073 . S
Co481 O490 2.327 . S
Co481 O491 1.976 . S
Co482 O483 2.124 . S
Co482 O485 2.051 1_455 S
Co482 O492 2.130 . S
Co482 O493 2.118 1_455 S
Co482 O497 2.093 1_455 S
Co482 O511 2.170 . S
O483 Co480 2.042 . S
O483 Co481 2.122 . S
O483 Co482 2.124 . S
O483 H484 0.980 . S
H484 O483 0.980 . S
O485 Co482 2.051 1_655 S
O485 Co486 2.042 . S
O485 Co487 2.122 . S
O485 H488 0.980 . S
Co486 O485 2.042 . S
Co486 O494 2.286 . S
Co486 O495 2.069 . S
Co486 O496 2.015 . S
Co486 O499 2.264 . S
Co487 O485 2.122 . S
Co487 O498 1.976 . S
Co487 O499 2.327 . S
Co487 O500 2.073 . S
H488 O485 0.980 . S
O489 Co481 2.073 . S
O489 C504 1.245 . S
O490 Co480 2.264 . S
O490 Co481 2.327 . S
O490 C504 1.257 . S
O491 Co481 1.976 . S
O491 C503 1.251 . S
O492 Co482 2.130 . S
O492 C503 1.274 . S
O493 Co482 2.118 1_655 S
O493 C506 1.246 . S
O494 Co486 2.286 . S
O494 C505 1.259 . S
O495 Co486 2.069 . S
O495 C505 1.289 . S
O496 Co486 2.015 . S
O496 C506 1.257 . S
O497 Co482 2.093 1_655 S
O497 C507 1.274 . S
O498 Co487 1.976 . S
O498 C507 1.251 . S
O499 Co486 2.264 . S
O499 Co487 2.327 . S
O499 C508 1.257 . S
O500 Co487 2.073 . S
O500 C508 1.245 . S
C501 O509 1.259 . S
C501 O510 1.289 . S
C502 O511 1.246 . S
C502 O512 1.257 . S
C503 O491 1.251 . S
C503 O492 1.274 . S
C504 O489 1.245 . S
C504 O490 1.257 . S
C505 O494 1.259 . S
C505 O495 1.289 . S
C506 O493 1.246 . S
C506 O496 1.257 . S
C507 O497 1.274 . S
C507 O498 1.251 . S
C508 O499 1.257 . S
C508 O500 1.245 . S
O509 Co480 2.286 . S
O509 C501 1.259 . S
O510 Co480 2.069 . S
O510 C501 1.289 . S
O511 Co482 2.170 . S
O511 C502 1.246 . S
O512 Co480 2.015 . S
O512 C502 1.257 . S
Co513 O516 2.042 . S
Co513 O523 2.264 . S
Co513 O542 2.286 . S
Co513 O543 2.069 . S
Co513 O545 2.015 . S
Co514 O516 2.122 . S
Co514 O522 2.073 . S
Co514 O523 2.327 . S
Co514 O524 1.976 . S
Co515 O516 2.087 1_545 S
Co515 O518 2.087 . S
Co515 O525 2.111 1_545 S
Co515 O526 2.143 . S
Co515 O530 2.111 . S
Co515 O544 2.143 1_545 S
O516 Co513 2.042 . S
O516 Co514 2.122 . S
O516 Co515 2.087 1_565 S
O516 H517 0.980 . S
H517 O516 0.980 . S
O518 Co515 2.087 . S
O518 Co519 2.042 . S
O518 Co520 2.122 . S
O518 H521 0.980 . S
Co519 O518 2.042 . S
Co519 O527 2.286 . S
Co519 O528 2.069 . S
Co519 O529 2.015 . S
Co519 O532 2.264 . S
Co520 O518 2.122 . S
Co520 O531 1.976 . S
Co520 O532 2.327 . S
Co520 O533 2.073 . S
H521 O518 0.980 . S
O522 Co514 2.073 . S
O522 C537 1.245 . S
O523 Co513 2.264 . S
O523 Co514 2.327 . S
O523 C537 1.257 . S
O524 Co514 1.976 . S
O524 C536 1.251 . S
O525 Co515 2.111 1_565 S
O525 C536 1.274 . S
O526 Co515 2.143 . S
O526 C539 1.246 . S
O527 Co519 2.286 . S
O527 C538 1.259 . S
O528 Co519 2.069 . S
O528 C538 1.289 . S
O529 Co519 2.015 . S
O529 C539 1.257 . S
O530 Co515 2.111 . S
O530 C540 1.274 . S
O531 Co520 1.976 . S
O531 C540 1.251 . S
O532 Co519 2.264 . S
O532 Co520 2.327 . S
O532 C541 1.257 . S
O533 Co520 2.073 . S
O533 C541 1.245 . S
C534 O542 1.259 . S
C534 O543 1.289 . S
C535 O544 1.246 . S
C535 O545 1.257 . S
C536 O524 1.251 . S
C536 O525 1.274 . S
C537 O522 1.245 . S
C537 O523 1.257 . S
C538 O527 1.259 . S
C538 O528 1.289 . S
C539 O526 1.246 . S
C539 O529 1.257 . S
C540 O530 1.274 . S
C540 O531 1.251 . S
C541 O532 1.257 . S
C541 O533 1.245 . S
O542 Co513 2.286 . S
O542 C534 1.259 . S
O543 Co513 2.069 . S
O543 C534 1.289 . S
O544 Co515 2.143 1_565 S
O544 C535 1.246 . S
O545 Co513 2.015 . S
O545 C535 1.257 . S
Co546 O549 2.042 . S
Co546 O556 2.264 . S
Co546 O575 2.286 . S
Co546 O576 2.069 . S
Co546 O578 2.015 . S
Co547 O549 2.122 . S
Co547 O555 2.073 . S
Co547 O556 2.327 . S
Co547 O557 1.976 . S
Co548 O549 2.104 . S
Co548 O551 2.070 1_554 S
Co548 O558 2.119 . S
Co548 O559 2.131 1_554 S
Co548 O563 2.104 1_554 S
Co548 O577 2.156 . S
O549 Co546 2.042 . S
O549 Co547 2.122 . S
O549 Co548 2.104 . S
O549 H550 0.980 . S
H550 O549 0.980 . S
O551 Co548 2.070 1_556 S
O551 Co552 2.042 . S
O551 Co553 2.122 . S
O551 H554 0.980 . S
Co552 O551 2.042 . S
Co552 O560 2.286 . S
Co552 O561 2.069 . S
Co552 O562 2.015 . S
Co552 O565 2.264 . S
Co553 O551 2.122 . S
Co553 O564 1.976 . S
Co553 O565 2.327 . S
Co553 O566 2.073 . S
H554 O551 0.980 . S
O555 Co547 2.073 . S
O555 C570 1.245 . S
O556 Co546 2.264 . S
O556 Co547 2.327 . S
O556 C570 1.257 . S
O557 Co547 1.976 . S
O557 C569 1.251 . S
O558 Co548 2.119 . S
O558 C569 1.274 . S
O559 Co548 2.131 1_556 S
O559 C572 1.246 . S
O560 Co552 2.286 . S
O560 C571 1.259 . S
O561 Co552 2.069 . S
O561 C571 1.289 . S
O562 Co552 2.015 . S
O562 C572 1.257 . S
O563 Co548 2.104 1_556 S
O563 C573 1.274 . S
O564 Co553 1.976 . S
O564 C573 1.251 . S
O565 Co552 2.264 . S
O565 Co553 2.327 . S
O565 C574 1.257 . S
O566 Co553 2.073 . S
O566 C574 1.245 . S
C567 O575 1.259 . S
C567 O576 1.289 . S
C568 O577 1.246 . S
C568 O578 1.257 . S
C569 O557 1.251 . S
C569 O558 1.274 . S
C570 O555 1.245 . S
C570 O556 1.257 . S
C571 O560 1.259 . S
C571 O561 1.289 . S
C572 O559 1.246 . S
C572 O562 1.257 . S
C573 O563 1.274 . S
C573 O564 1.251 . S
C574 O565 1.257 . S
C574 O566 1.245 . S
O575 Co546 2.286 . S
O575 C567 1.259 . S
O576 Co546 2.069 . S
O576 C567 1.289 . S
O577 Co548 2.156 . S
O577 C568 1.246 . S
O578 Co546 2.015 . S
O578 C568 1.257 . S
H579 C597 0.951 . S
H580 C599 0.951 . S
H581 C601 0.950 . S
H582 C602 0.950 . S
H583 C604 0.950 . S
H584 C607 0.950 . S
H585 C608 0.950 . S
H586 C610 0.950 . S
H587 C611 0.950 . S
H588 C612 0.951 . S
H589 C614 0.951 . S
H590 C616 0.950 . S
H591 C617 0.950 . S
H592 C619 0.950 . S
H593 C622 0.950 . S
H594 C623 0.950 . S
H595 C625 0.950 . S
H596 C626 0.950 . S
C597 H579 0.951 . S
C597 C598 1.366 . S
C597 C599 1.388 . S
C598 C597 1.366 . S
C598 C602 1.385 . S
C599 H580 0.951 . S
C599 C597 1.388 . S
C599 C600 1.366 . S
C600 C599 1.366 . S
C600 C601 1.414 . S
C600 C603 1.499 . S
C601 H581 0.950 . S
C601 C600 1.414 . S
C601 C602 1.374 . S
C602 H582 0.950 . S
C602 C598 1.385 . S
C602 C601 1.374 . S
C603 C600 1.499 . S
C603 C604 1.373 . S
C603 C605 1.389 . S
C604 H583 0.950 . S
C604 C603 1.373 . S
C604 C620 1.377 . S
C605 C603 1.389 . S
C605 C606 1.524 . S
C605 C619 1.377 . S
C606 C605 1.524 . S
C606 C607 1.397 . S
C606 C611 1.363 . S
C607 H584 0.950 . S
C607 C606 1.397 . S
C607 C608 1.334 . S
C608 H585 0.950 . S
C608 C607 1.334 . S
C608 C609 1.287 . S
C609 C608 1.287 . S
C609 C610 1.524 . S
C609 H628 0.913 . S
C610 H586 0.950 . S
C610 C609 1.524 . S
C610 C611 1.415 . S
C611 H587 0.950 . S
C611 C606 1.363 . S
C611 C610 1.415 . S
C612 H588 0.951 . S
C612 C613 1.366 . S
C612 C614 1.388 . S
C613 C612 1.366 . S
C613 C617 1.385 . S
C614 H589 0.951 . S
C614 C612 1.388 . S
C614 C615 1.366 . S
C615 C614 1.366 . S
C615 C616 1.414 . S
C615 C618 1.499 . S
C616 H590 0.950 . S
C616 C615 1.414 . S
C616 C617 1.374 . S
C617 H591 0.950 . S
C617 C613 1.385 . S
C617 C616 1.374 . S
C618 C615 1.499 . S
C618 C619 1.373 . S
C618 C620 1.389 . S
C619 H592 0.950 . S
C619 C605 1.377 . S
C619 C618 1.373 . S
C620 C604 1.377 . S
C620 C618 1.389 . S
C620 C621 1.524 . S
C621 C620 1.524 . S
C621 C622 1.397 . S
C621 C626 1.363 . S
C622 H593 0.950 . S
C622 C621 1.397 . S
C622 C623 1.334 . S
C623 H594 0.950 . S
C623 C622 1.334 . S
C623 C624 1.287 . S
C624 C623 1.287 . S
C624 C625 1.524 . S
C624 H627 0.999 . S
C625 H595 0.950 . S
C625 C624 1.524 . S
C625 C626 1.415 . S
C626 H596 0.950 . S
C626 C621 1.363 . S
C626 C625 1.415 . S
H627 C624 0.999 . S
H628 C609 0.913 . S
H629 C647 0.951 . S
H630 C649 0.951 . S
H631 C651 0.950 . S
H632 C652 0.950 . S
H633 C654 0.950 . S
H634 C657 0.950 . S
H635 C658 0.950 . S
H636 C660 0.950 . S
H637 C661 0.950 . S
H638 C662 0.951 . S
H639 C664 0.951 . S
H640 C666 0.950 . S
H641 C667 0.950 . S
H642 C669 0.950 . S
H643 C672 0.950 . S
H644 C673 0.950 . S
H645 C675 0.950 . S
H646 C676 0.950 . S
C647 H629 0.951 . S
C647 C648 1.366 . S
C647 C649 1.388 . S
C648 C647 1.366 . S
C648 C652 1.385 . S
C649 H630 0.951 . S
C649 C647 1.388 . S
C649 C650 1.366 . S
C650 C649 1.366 . S
C650 C651 1.414 . S
C650 C653 1.499 . S
C651 H631 0.950 . S
C651 C650 1.414 . S
C651 C652 1.374 . S
C652 H632 0.950 . S
C652 C648 1.385 . S
C652 C651 1.374 . S
C653 C650 1.499 . S
C653 C654 1.373 . S
C653 C655 1.389 . S
C654 H633 0.950 . S
C654 C653 1.373 . S
C654 C670 1.377 . S
C655 C653 1.389 . S
C655 C656 1.524 . S
C655 C669 1.377 . S
C656 C655 1.524 . S
C656 C657 1.397 . S
C656 C661 1.363 . S
C657 H634 0.950 . S
C657 C656 1.397 . S
C657 C658 1.334 . S
C658 H635 0.950 . S
C658 C657 1.334 . S
C658 C659 1.287 . S
C659 C658 1.287 . S
C659 C660 1.524 . S
C659 H678 0.913 . S
C660 H636 0.950 . S
C660 C659 1.524 . S
C660 C661 1.415 . S
C661 H637 0.950 . S
C661 C656 1.363 . S
C661 C660 1.415 . S
C662 H638 0.951 . S
C662 C663 1.366 . S
C662 C664 1.388 . S
C663 C662 1.366 . S
C663 C667 1.385 . S
C664 H639 0.951 . S
C664 C662 1.388 . S
C664 C665 1.366 . S
C665 C664 1.366 . S
C665 C666 1.414 . S
C665 C668 1.499 . S
C666 H640 0.950 . S
C666 C665 1.414 . S
C666 C667 1.374 . S
C667 H641 0.950 . S
C667 C663 1.385 . S
C667 C666 1.374 . S
C668 C665 1.499 . S
C668 C669 1.373 . S
C668 C670 1.389 . S
C669 H642 0.950 . S
C669 C655 1.377 . S
C669 C668 1.373 . S
C670 C654 1.377 . S
C670 C668 1.389 . S
C670 C671 1.524 . S
C671 C670 1.524 . S
C671 C672 1.397 . S
C671 C676 1.363 . S
C672 H643 0.950 . S
C672 C671 1.397 . S
C672 C673 1.334 . S
C673 H644 0.950 . S
C673 C672 1.334 . S
C673 C674 1.287 . S
C674 C673 1.287 . S
C674 C675 1.524 . S
C674 H677 0.999 . S
C675 H645 0.950 . S
C675 C674 1.524 . S
C675 C676 1.415 . S
C676 H646 0.950 . S
C676 C671 1.363 . S
C676 C675 1.415 . S
H677 C674 0.999 . S
H678 C659 0.913 . S
H679 C697 0.951 . S
H680 C699 0.951 . S
H681 C701 0.950 . S
H682 C702 0.950 . S
H683 C704 0.950 . S
H684 C707 0.950 . S
H685 C708 0.950 . S
H686 C710 0.950 . S
H687 C711 0.950 . S
H688 C712 0.951 . S
H689 C714 0.951 . S
H690 C716 0.950 . S
H691 C717 0.950 . S
H692 C719 0.950 . S
H693 C722 0.950 . S
H694 C723 0.950 . S
H695 C725 0.950 . S
H696 C726 0.950 . S
C697 H679 0.951 . S
C697 C698 1.366 . S
C697 C699 1.388 . S
C698 C697 1.366 . S
C698 C702 1.385 . S
C699 H680 0.951 . S
C699 C697 1.388 . S
C699 C700 1.366 . S
C700 C699 1.366 . S
C700 C701 1.414 . S
C700 C703 1.499 . S
C701 H681 0.950 . S
C701 C700 1.414 . S
C701 C702 1.374 . S
C702 H682 0.950 . S
C702 C698 1.385 . S
C702 C701 1.374 . S
C703 C700 1.499 . S
C703 C704 1.373 . S
C703 C705 1.389 . S
C704 H683 0.950 . S
C704 C703 1.373 . S
C704 C720 1.377 . S
C705 C703 1.389 . S
C705 C706 1.524 . S
C705 C719 1.377 . S
C706 C705 1.524 . S
C706 C707 1.397 . S
C706 C711 1.363 . S
C707 H684 0.950 . S
C707 C706 1.397 . S
C707 C708 1.334 . S
C708 H685 0.950 . S
C708 C707 1.334 . S
C708 C709 1.287 . S
C709 C708 1.287 . S
C709 C710 1.524 . S
C709 H728 0.913 . S
C710 H686 0.950 . S
C710 C709 1.524 . S
C710 C711 1.415 . S
C711 H687 0.950 . S
C711 C706 1.363 . S
C711 C710 1.415 . S
C712 H688 0.951 . S
C712 C713 1.366 . S
C712 C714 1.388 . S
C713 C712 1.366 . S
C713 C717 1.385 . S
C714 H689 0.951 . S
C714 C712 1.388 . S
C714 C715 1.366 . S
C715 C714 1.366 . S
C715 C716 1.414 . S
C715 C718 1.499 . S
C716 H690 0.950 . S
C716 C715 1.414 . S
C716 C717 1.374 . S
C717 H691 0.950 . S
C717 C713 1.385 . S
C717 C716 1.374 . S
C718 C715 1.499 . S
C718 C719 1.373 . S
C718 C720 1.389 . S
C719 H692 0.950 . S
C719 C705 1.377 . S
C719 C718 1.373 . S
C720 C704 1.377 . S
C720 C718 1.389 . S
C720 C721 1.524 . S
C721 C720 1.524 . S
C721 C722 1.397 . S
C721 C726 1.363 . S
C722 H693 0.950 . S
C722 C721 1.397 . S
C722 C723 1.334 . S
C723 H694 0.950 . S
C723 C722 1.334 . S
C723 C724 1.287 . S
C724 C723 1.287 . S
C724 C725 1.524 . S
C724 H727 0.999 . S
C725 H695 0.950 . S
C725 C724 1.524 . S
C725 C726 1.415 . S
C726 H696 0.950 . S
C726 C721 1.363 . S
C726 C725 1.415 . S
H727 C724 0.999 . S
H728 C709 0.913 . S
H729 C747 0.951 . S
H730 C749 0.951 . S
H731 C751 0.950 . S
H732 C752 0.950 . S
H733 C754 0.950 . S
H734 C757 0.950 . S
H735 C758 0.950 . S
H736 C760 0.950 . S
H737 C761 0.950 . S
H738 C762 0.951 . S
H739 C764 0.951 . S
H740 C766 0.950 . S
H741 C767 0.950 . S
H742 C769 0.950 . S
H743 C772 0.950 . S
H744 C773 0.950 . S
H745 C775 0.950 . S
H746 C776 0.950 . S
C747 H729 0.951 . S
C747 C748 1.366 . S
C747 C749 1.388 . S
C748 C747 1.366 . S
C748 C752 1.385 . S
C749 H730 0.951 . S
C749 C747 1.388 . S
C749 C750 1.366 . S
C750 C749 1.366 . S
C750 C751 1.414 . S
C750 C753 1.499 . S
C751 H731 0.950 . S
C751 C750 1.414 . S
C751 C752 1.374 . S
C752 H732 0.950 . S
C752 C748 1.385 . S
C752 C751 1.374 . S
C753 C750 1.499 . S
C753 C754 1.373 . S
C753 C755 1.389 . S
C754 H733 0.950 . S
C754 C753 1.373 . S
C754 C770 1.377 . S
C755 C753 1.389 . S
C755 C756 1.524 . S
C755 C769 1.377 . S
C756 C755 1.524 . S
C756 C757 1.397 . S
C756 C761 1.363 . S
C757 H734 0.950 . S
C757 C756 1.397 . S
C757 C758 1.334 . S
C758 H735 0.950 . S
C758 C757 1.334 . S
C758 C759 1.287 . S
C759 C758 1.287 . S
C759 C760 1.524 . S
C759 H778 0.913 . S
C760 H736 0.950 . S
C760 C759 1.524 . S
C760 C761 1.415 . S
C761 H737 0.950 . S
C761 C756 1.363 . S
C761 C760 1.415 . S
C762 H738 0.951 . S
C762 C763 1.366 . S
C762 C764 1.388 . S
C763 C762 1.366 . S
C763 C767 1.385 . S
C764 H739 0.951 . S
C764 C762 1.388 . S
C764 C765 1.366 . S
C765 C764 1.366 . S
C765 C766 1.414 . S
C765 C768 1.499 . S
C766 H740 0.950 . S
C766 C765 1.414 . S
C766 C767 1.374 . S
C767 H741 0.950 . S
C767 C763 1.385 . S
C767 C766 1.374 . S
C768 C765 1.499 . S
C768 C769 1.373 . S
C768 C770 1.389 . S
C769 H742 0.950 . S
C769 C755 1.377 . S
C769 C768 1.373 . S
C770 C754 1.377 . S
C770 C768 1.389 . S
C770 C771 1.524 . S
C771 C770 1.524 . S
C771 C772 1.397 . S
C771 C776 1.363 . S
C772 H743 0.950 . S
C772 C771 1.397 . S
C772 C773 1.334 . S
C773 H744 0.950 . S
C773 C772 1.334 . S
C773 C774 1.287 . S
C774 C773 1.287 . S
C774 C775 1.524 . S
C774 H777 0.999 . S
C775 H745 0.950 . S
C775 C774 1.524 . S
C775 C776 1.415 . S
C776 H746 0.950 . S
C776 C771 1.363 . S
C776 C775 1.415 . S
H777 C774 0.999 . S
H778 C759 0.913 . S
H779 C797 0.951 . S
H780 C799 0.951 . S
H781 C801 0.950 . S
H782 C802 0.950 . S
H783 C804 0.950 . S
H784 C807 0.950 . S
H785 C808 0.950 . S
H786 C810 0.950 . S
H787 C811 0.950 . S
H788 C812 0.951 . S
H789 C814 0.951 . S
H790 C816 0.950 . S
H791 C817 0.950 . S
H792 C819 0.950 . S
H793 C822 0.950 . S
H794 C823 0.950 . S
H795 C825 0.950 . S
H796 C826 0.950 . S
C797 H779 0.951 . S
C797 C798 1.366 . S
C797 C799 1.388 . S
C798 C797 1.366 . S
C798 C802 1.385 . S
C799 H780 0.951 . S
C799 C797 1.388 . S
C799 C800 1.366 . S
C800 C799 1.366 . S
C800 C801 1.414 . S
C800 C803 1.499 . S
C801 H781 0.950 . S
C801 C800 1.414 . S
C801 C802 1.374 . S
C802 H782 0.950 . S
C802 C798 1.385 . S
C802 C801 1.374 . S
C803 C800 1.499 . S
C803 C804 1.373 . S
C803 C805 1.389 . S
C804 H783 0.950 . S
C804 C803 1.373 . S
C804 C820 1.377 . S
C805 C803 1.389 . S
C805 C806 1.524 . S
C805 C819 1.377 . S
C806 C805 1.524 . S
C806 C807 1.397 . S
C806 C811 1.363 . S
C807 H784 0.950 . S
C807 C806 1.397 . S
C807 C808 1.334 . S
C808 H785 0.950 . S
C808 C807 1.334 . S
C808 C809 1.287 . S
C809 C808 1.287 . S
C809 C810 1.524 . S
C809 H828 0.913 . S
C810 H786 0.950 . S
C810 C809 1.524 . S
C810 C811 1.415 . S
C811 H787 0.950 . S
C811 C806 1.363 . S
C811 C810 1.415 . S
C812 H788 0.951 . S
C812 C813 1.366 . S
C812 C814 1.388 . S
C813 C812 1.366 . S
C813 C817 1.385 . S
C814 H789 0.951 . S
C814 C812 1.388 . S
C814 C815 1.366 . S
C815 C814 1.366 . S
C815 C816 1.414 . S
C815 C818 1.499 . S
C816 H790 0.950 . S
C816 C815 1.414 . S
C816 C817 1.374 . S
C817 H791 0.950 . S
C817 C813 1.385 . S
C817 C816 1.374 . S
C818 C815 1.499 . S
C818 C819 1.373 . S
C818 C820 1.389 . S
C819 H792 0.950 . S
C819 C805 1.377 . S
C819 C818 1.373 . S
C820 C804 1.377 . S
C820 C818 1.389 . S
C820 C821 1.524 . S
C821 C820 1.524 . S
C821 C822 1.397 . S
C821 C826 1.363 . S
C822 H793 0.950 . S
C822 C821 1.397 . S
C822 C823 1.334 . S
C823 H794 0.950 . S
C823 C822 1.334 . S
C823 C824 1.287 . S
C824 C823 1.287 . S
C824 C825 1.524 . S
C824 H827 0.999 . S
C825 H795 0.950 . S
C825 C824 1.524 . S
C825 C826 1.415 . S
C826 H796 0.950 . S
C826 C821 1.363 . S
C826 C825 1.415 . S
H827 C824 0.999 . S
H828 C809 0.913 . S
H829 C847 0.951 . S
H830 C849 0.951 . S
H831 C851 0.950 . S
H832 C852 0.950 . S
H833 C854 0.950 . S
H834 C857 0.950 . S
H835 C858 0.950 . S
H836 C860 0.950 . S
H837 C861 0.950 . S
H838 C862 0.951 . S
H839 C864 0.951 . S
H840 C866 0.950 . S
H841 C867 0.950 . S
H842 C869 0.950 . S
H843 C872 0.950 . S
H844 C873 0.950 . S
H845 C875 0.950 . S
H846 C876 0.950 . S
C847 H829 0.951 . S
C847 C848 1.366 . S
C847 C849 1.388 . S
C848 C847 1.366 . S
C848 C852 1.385 . S
C849 H830 0.951 . S
C849 C847 1.388 . S
C849 C850 1.366 . S
C850 C849 1.366 . S
C850 C851 1.414 . S
C850 C853 1.499 . S
C851 H831 0.950 . S
C851 C850 1.414 . S
C851 C852 1.374 . S
C852 H832 0.950 . S
C852 C848 1.385 . S
C852 C851 1.374 . S
C853 C850 1.499 . S
C853 C854 1.373 . S
C853 C855 1.389 . S
C854 H833 0.950 . S
C854 C853 1.373 . S
C854 C870 1.377 . S
C855 C853 1.389 . S
C855 C856 1.524 . S
C855 C869 1.377 . S
C856 C855 1.524 . S
C856 C857 1.397 . S
C856 C861 1.363 . S
C857 H834 0.950 . S
C857 C856 1.397 . S
C857 C858 1.334 . S
C858 H835 0.950 . S
C858 C857 1.334 . S
C858 C859 1.287 . S
C859 C858 1.287 . S
C859 C860 1.524 . S
C859 H878 0.913 . S
C860 H836 0.950 . S
C860 C859 1.524 . S
C860 C861 1.415 . S
C861 H837 0.950 . S
C861 C856 1.363 . S
C861 C860 1.415 . S
C862 H838 0.951 . S
C862 C863 1.366 . S
C862 C864 1.388 . S
C863 C862 1.366 . S
C863 C867 1.385 . S
C864 H839 0.951 . S
C864 C862 1.388 . S
C864 C865 1.366 . S
C865 C864 1.366 . S
C865 C866 1.414 . S
C865 C868 1.499 . S
C866 H840 0.950 . S
C866 C865 1.414 . S
C866 C867 1.374 . S
C867 H841 0.950 . S
C867 C863 1.385 . S
C867 C866 1.374 . S
C868 C865 1.499 . S
C868 C869 1.373 . S
C868 C870 1.389 . S
C869 H842 0.950 . S
C869 C855 1.377 . S
C869 C868 1.373 . S
C870 C854 1.377 . S
C870 C868 1.389 . S
C870 C871 1.524 . S
C871 C870 1.524 . S
C871 C872 1.397 . S
C871 C876 1.363 . S
C872 H843 0.950 . S
C872 C871 1.397 . S
C872 C873 1.334 . S
C873 H844 0.950 . S
C873 C872 1.334 . S
C873 C874 1.287 . S
C874 C873 1.287 . S
C874 C875 1.524 . S
C874 H877 0.999 . S
C875 H845 0.950 . S
C875 C874 1.524 . S
C875 C876 1.415 . S
C876 H846 0.950 . S
C876 C871 1.363 . S
C876 C875 1.415 . S
H877 C874 0.999 . S
H878 C859 0.913 . S
H879 C897 0.951 . S
H880 C899 0.951 . S
H881 C901 0.950 . S
H882 C902 0.950 . S
H883 C904 0.950 . S
H884 C907 0.950 . S
H885 C908 0.950 . S
H886 C910 0.950 . S
H887 C911 0.950 . S
H888 C912 0.951 . S
H889 C914 0.951 . S
H890 C916 0.950 . S
H891 C917 0.950 . S
H892 C919 0.950 . S
H893 C922 0.950 . S
H894 C923 0.950 . S
H895 C925 0.950 . S
H896 C926 0.950 . S
C897 H879 0.951 . S
C897 C898 1.366 . S
C897 C899 1.388 . S
C898 C897 1.366 . S
C898 C902 1.385 . S
C899 H880 0.951 . S
C899 C897 1.388 . S
C899 C900 1.366 . S
C900 C899 1.366 . S
C900 C901 1.414 . S
C900 C903 1.499 . S
C901 H881 0.950 . S
C901 C900 1.414 . S
C901 C902 1.374 . S
C902 H882 0.950 . S
C902 C898 1.385 . S
C902 C901 1.374 . S
C903 C900 1.499 . S
C903 C904 1.373 . S
C903 C905 1.389 . S
C904 H883 0.950 . S
C904 C903 1.373 . S
C904 C920 1.377 . S
C905 C903 1.389 . S
C905 C906 1.524 . S
C905 C919 1.377 . S
C906 C905 1.524 . S
C906 C907 1.397 . S
C906 C911 1.363 . S
C907 H884 0.950 . S
C907 C906 1.397 . S
C907 C908 1.334 . S
C908 H885 0.950 . S
C908 C907 1.334 . S
C908 C909 1.287 . S
C909 C908 1.287 . S
C909 C910 1.524 . S
C909 H928 0.913 . S
C910 H886 0.950 . S
C910 C909 1.524 . S
C910 C911 1.415 . S
C911 H887 0.950 . S
C911 C906 1.363 . S
C911 C910 1.415 . S
C912 H888 0.951 . S
C912 C913 1.366 . S
C912 C914 1.388 . S
C913 C912 1.366 . S
C913 C917 1.385 . S
C914 H889 0.951 . S
C914 C912 1.388 . S
C914 C915 1.366 . S
C915 C914 1.366 . S
C915 C916 1.414 . S
C915 C918 1.499 . S
C916 H890 0.950 . S
C916 C915 1.414 . S
C916 C917 1.374 . S
C917 H891 0.950 . S
C917 C913 1.385 . S
C917 C916 1.374 . S
C918 C915 1.499 . S
C918 C919 1.373 . S
C918 C920 1.389 . S
C919 H892 0.950 . S
C919 C905 1.377 . S
C919 C918 1.373 . S
C920 C904 1.377 . S
C920 C918 1.389 . S
C920 C921 1.524 . S
C921 C920 1.524 . S
C921 C922 1.397 . S
C921 C926 1.363 . S
C922 H893 0.950 . S
C922 C921 1.397 . S
C922 C923 1.334 . S
C923 H894 0.950 . S
C923 C922 1.334 . S
C923 C924 1.287 . S
C924 C923 1.287 . S
C924 C925 1.524 . S
C924 H927 0.999 . S
C925 H895 0.950 . S
C925 C924 1.524 . S
C925 C926 1.415 . S
C926 H896 0.950 . S
C926 C921 1.363 . S
C926 C925 1.415 . S
H927 C924 0.999 . S
H928 C909 0.913 . S
H929 C947 0.951 . S
H930 C949 0.951 . S
H931 C951 0.950 . S
H932 C952 0.950 . S
H933 C954 0.950 . S
H934 C957 0.950 . S
H935 C958 0.950 . S
H936 C960 0.950 . S
H937 C961 0.950 . S
H938 C962 0.951 . S
H939 C964 0.951 . S
H940 C966 0.950 . S
H941 C967 0.950 . S
H942 C969 0.950 . S
H943 C972 0.950 . S
H944 C973 0.950 . S
H945 C975 0.950 . S
H946 C976 0.950 . S
C947 H929 0.951 . S
C947 C948 1.366 . S
C947 C949 1.388 . S
C948 C947 1.366 . S
C948 C952 1.385 . S
C949 H930 0.951 . S
C949 C947 1.388 . S
C949 C950 1.366 . S
C950 C949 1.366 . S
C950 C951 1.414 . S
C950 C953 1.499 . S
C951 H931 0.950 . S
C951 C950 1.414 . S
C951 C952 1.374 . S
C952 H932 0.950 . S
C952 C948 1.385 . S
C952 C951 1.374 . S
C953 C950 1.499 . S
C953 C954 1.373 . S
C953 C955 1.389 . S
C954 H933 0.950 . S
C954 C953 1.373 . S
C954 C970 1.377 . S
C955 C953 1.389 . S
C955 C956 1.524 . S
C955 C969 1.377 . S
C956 C955 1.524 . S
C956 C957 1.397 . S
C956 C961 1.363 . S
C957 H934 0.950 . S
C957 C956 1.397 . S
C957 C958 1.334 . S
C958 H935 0.950 . S
C958 C957 1.334 . S
C958 C959 1.287 . S
C959 C958 1.287 . S
C959 C960 1.524 . S
C959 H978 0.913 . S
C960 H936 0.950 . S
C960 C959 1.524 . S
C960 C961 1.415 . S
C961 H937 0.950 . S
C961 C956 1.363 . S
C961 C960 1.415 . S
C962 H938 0.951 . S
C962 C963 1.366 . S
C962 C964 1.388 . S
C963 C962 1.366 . S
C963 C967 1.385 . S
C964 H939 0.951 . S
C964 C962 1.388 . S
C964 C965 1.366 . S
C965 C964 1.366 . S
C965 C966 1.414 . S
C965 C968 1.499 . S
C966 H940 0.950 . S
C966 C965 1.414 . S
C966 C967 1.374 . S
C967 H941 0.950 . S
C967 C963 1.385 . S
C967 C966 1.374 . S
C968 C965 1.499 . S
C968 C969 1.373 . S
C968 C970 1.389 . S
C969 H942 0.950 . S
C969 C955 1.377 . S
C969 C968 1.373 . S
C970 C954 1.377 . S
C970 C968 1.389 . S
C970 C971 1.524 . S
C971 C970 1.524 . S
C971 C972 1.397 . S
C971 C976 1.363 . S
C972 H943 0.950 . S
C972 C971 1.397 . S
C972 C973 1.334 . S
C973 H944 0.950 . S
C973 C972 1.334 . S
C973 C974 1.287 . S
C974 C973 1.287 . S
C974 C975 1.524 . S
C974 H977 0.999 . S
C975 H945 0.950 . S
C975 C974 1.524 . S
C975 C976 1.415 . S
C976 H946 0.950 . S
C976 C971 1.363 . S
C976 C975 1.415 . S
H977 C974 0.999 . S
H978 C959 0.913 . S
H979 C997 0.951 . S
H980 C999 0.951 . S
H981 C1001 0.950 . S
H982 C1002 0.950 . S
H983 C1004 0.950 . S
H984 C1007 0.950 . S
H985 C1008 0.950 . S
H986 C1010 0.950 . S
H987 C1011 0.950 . S
H988 C1012 0.951 . S
H989 C1014 0.951 . S
H990 C1016 0.950 . S
H991 C1017 0.950 . S
H992 C1019 0.950 . S
H993 C1022 0.950 . S
H994 C1023 0.950 . S
H995 C1025 0.950 . S
H996 C1026 0.950 . S
C997 H979 0.951 . S
C997 C998 1.366 . S
C997 C999 1.388 . S
C998 C997 1.366 . S
C998 C1002 1.385 . S
C999 H980 0.951 . S
C999 C997 1.388 . S
C999 C1000 1.366 . S
C1000 C999 1.366 . S
C1000 C1001 1.414 . S
C1000 C1003 1.499 . S
C1001 H981 0.950 . S
C1001 C1000 1.414 . S
C1001 C1002 1.374 . S
C1002 H982 0.950 . S
C1002 C998 1.385 . S
C1002 C1001 1.374 . S
C1003 C1000 1.499 . S
C1003 C1004 1.373 . S
C1003 C1005 1.389 . S
C1004 H983 0.950 . S
C1004 C1003 1.373 . S
C1004 C1020 1.377 . S
C1005 C1003 1.389 . S
C1005 C1006 1.524 . S
C1005 C1019 1.377 . S
C1006 C1005 1.524 . S
C1006 C1007 1.397 . S
C1006 C1011 1.363 . S
C1007 H984 0.950 . S
C1007 C1006 1.397 . S
C1007 C1008 1.334 . S
C1008 H985 0.950 . S
C1008 C1007 1.334 . S
C1008 C1009 1.287 . S
C1009 C1008 1.287 . S
C1009 C1010 1.524 . S
C1009 H1028 0.913 . S
C1010 H986 0.950 . S
C1010 C1009 1.524 . S
C1010 C1011 1.415 . S
C1011 H987 0.950 . S
C1011 C1006 1.363 . S
C1011 C1010 1.415 . S
C1012 H988 0.951 . S
C1012 C1013 1.366 . S
C1012 C1014 1.388 . S
C1013 C1012 1.366 . S
C1013 C1017 1.385 . S
C1014 H989 0.951 . S
C1014 C1012 1.388 . S
C1014 C1015 1.366 . S
C1015 C1014 1.366 . S
C1015 C1016 1.414 . S
C1015 C1018 1.499 . S
C1016 H990 0.950 . S
C1016 C1015 1.414 . S
C1016 C1017 1.374 . S
C1017 H991 0.950 . S
C1017 C1013 1.385 . S
C1017 C1016 1.374 . S
C1018 C1015 1.499 . S
C1018 C1019 1.373 . S
C1018 C1020 1.389 . S
C1019 H992 0.950 . S
C1019 C1005 1.377 . S
C1019 C1018 1.373 . S
C1020 C1004 1.377 . S
C1020 C1018 1.389 . S
C1020 C1021 1.524 . S
C1021 C1020 1.524 . S
C1021 C1022 1.397 . S
C1021 C1026 1.363 . S
C1022 H993 0.950 . S
C1022 C1021 1.397 . S
C1022 C1023 1.334 . S
C1023 H994 0.950 . S
C1023 C1022 1.334 . S
C1023 C1024 1.287 . S
C1024 C1023 1.287 . S
C1024 C1025 1.524 . S
C1024 H1027 0.999 . S
C1025 H995 0.950 . S
C1025 C1024 1.524 . S
C1025 C1026 1.415 . S
C1026 H996 0.950 . S
C1026 C1021 1.363 . S
C1026 C1025 1.415 . S
H1027 C1024 0.999 . S
H1028 C1009 0.913 . S
H1029 C1047 0.951 . S
H1030 C1049 0.951 . S
H1031 C1051 0.950 . S
H1032 C1052 0.950 . S
H1033 C1054 0.950 . S
H1034 C1057 0.950 . S
H1035 C1058 0.950 . S
H1036 C1060 0.950 . S
H1037 C1061 0.950 . S
H1038 C1062 0.951 . S
H1039 C1064 0.951 . S
H1040 C1066 0.950 . S
H1041 C1067 0.950 . S
H1042 C1069 0.950 . S
H1043 C1072 0.950 . S
H1044 C1073 0.950 . S
H1045 C1075 0.950 . S
H1046 C1076 0.950 . S
C1047 H1029 0.951 . S
C1047 C1048 1.366 . S
C1047 C1049 1.388 . S
C1048 C1047 1.366 . S
C1048 C1052 1.385 . S
C1049 H1030 0.951 . S
C1049 C1047 1.388 . S
C1049 C1050 1.366 . S
C1050 C1049 1.366 . S
C1050 C1051 1.414 . S
C1050 C1053 1.499 . S
C1051 H1031 0.950 . S
C1051 C1050 1.414 . S
C1051 C1052 1.374 . S
C1052 H1032 0.950 . S
C1052 C1048 1.385 . S
C1052 C1051 1.374 . S
C1053 C1050 1.499 . S
C1053 C1054 1.373 . S
C1053 C1055 1.389 . S
C1054 H1033 0.950 . S
C1054 C1053 1.373 . S
C1054 C1070 1.377 . S
C1055 C1053 1.389 . S
C1055 C1056 1.524 . S
C1055 C1069 1.377 . S
C1056 C1055 1.524 . S
C1056 C1057 1.397 . S
C1056 C1061 1.363 . S
C1057 H1034 0.950 . S
C1057 C1056 1.397 . S
C1057 C1058 1.334 . S
C1058 H1035 0.950 . S
C1058 C1057 1.334 . S
C1058 C1059 1.287 . S
C1059 C1058 1.287 . S
C1059 C1060 1.524 . S
C1059 H1078 0.913 . S
C1060 H1036 0.950 . S
C1060 C1059 1.524 . S
C1060 C1061 1.415 . S
C1061 H1037 0.950 . S
C1061 C1056 1.363 . S
C1061 C1060 1.415 . S
C1062 H1038 0.951 . S
C1062 C1063 1.366 . S
C1062 C1064 1.388 . S
C1063 C1062 1.366 . S
C1063 C1067 1.385 . S
C1064 H1039 0.951 . S
C1064 C1062 1.388 . S
C1064 C1065 1.366 . S
C1065 C1064 1.366 . S
C1065 C1066 1.414 . S
C1065 C1068 1.499 . S
C1066 H1040 0.950 . S
C1066 C1065 1.414 . S
C1066 C1067 1.374 . S
C1067 H1041 0.950 . S
C1067 C1063 1.385 . S
C1067 C1066 1.374 . S
C1068 C1065 1.499 . S
C1068 C1069 1.373 . S
C1068 C1070 1.389 . S
C1069 H1042 0.950 . S
C1069 C1055 1.377 . S
C1069 C1068 1.373 . S
C1070 C1054 1.377 . S
C1070 C1068 1.389 . S
C1070 C1071 1.524 . S
C1071 C1070 1.524 . S
C1071 C1072 1.397 . S
C1071 C1076 1.363 . S
C1072 H1043 0.950 . S
C1072 C1071 1.397 . S
C1072 C1073 1.334 . S
C1073 H1044 0.950 . S
C1073 C1072 1.334 . S
C1073 C1074 1.287 . S
C1074 C1073 1.287 . S
C1074 C1075 1.524 . S
C1074 H1077 0.999 . S
C1075 H1045 0.950 . S
C1075 C1074 1.524 . S
C1075 C1076 1.415 . S
C1076 H1046 0.950 . S
C1076 C1071 1.363 . S
C1076 C1075 1.415 . S
H1077 C1074 0.999 . S
H1078 C1059 0.913 . S
H1079 C1097 0.951 . S
H1080 C1099 0.951 . S
H1081 C1101 0.950 . S
H1082 C1102 0.950 . S
H1083 C1104 0.950 . S
H1084 C1107 0.950 . S
H1085 C1108 0.950 . S
H1086 C1110 0.950 . S
H1087 C1111 0.950 . S
H1088 C1112 0.951 . S
H1089 C1114 0.951 . S
H1090 C1116 0.950 . S
H1091 C1117 0.950 . S
H1092 C1119 0.950 . S
H1093 C1122 0.950 . S
H1094 C1123 0.950 . S
H1095 C1125 0.950 . S
H1096 C1126 0.950 . S
C1097 H1079 0.951 . S
C1097 C1098 1.366 . S
C1097 C1099 1.388 . S
C1098 C1097 1.366 . S
C1098 C1102 1.385 . S
C1099 H1080 0.951 . S
C1099 C1097 1.388 . S
C1099 C1100 1.366 . S
C1100 C1099 1.366 . S
C1100 C1101 1.414 . S
C1100 C1103 1.499 . S
C1101 H1081 0.950 . S
C1101 C1100 1.414 . S
C1101 C1102 1.374 . S
C1102 H1082 0.950 . S
C1102 C1098 1.385 . S
C1102 C1101 1.374 . S
C1103 C1100 1.499 . S
C1103 C1104 1.373 . S
C1103 C1105 1.389 . S
C1104 H1083 0.950 . S
C1104 C1103 1.373 . S
C1104 C1120 1.377 . S
C1105 C1103 1.389 . S
C1105 C1106 1.524 . S
C1105 C1119 1.377 . S
C1106 C1105 1.524 . S
C1106 C1107 1.397 . S
C1106 C1111 1.363 . S
C1107 H1084 0.950 . S
C1107 C1106 1.397 . S
C1107 C1108 1.334 . S
C1108 H1085 0.950 . S
C1108 C1107 1.334 . S
C1108 C1109 1.287 . S
C1109 C1108 1.287 . S
C1109 C1110 1.524 . S
C1109 H1128 0.913 . S
C1110 H1086 0.950 . S
C1110 C1109 1.524 . S
C1110 C1111 1.415 . S
C1111 H1087 0.950 . S
C1111 C1106 1.363 . S
C1111 C1110 1.415 . S
C1112 H1088 0.951 . S
C1112 C1113 1.366 . S
C1112 C1114 1.388 . S
C1113 C1112 1.366 . S
C1113 C1117 1.385 . S
C1114 H1089 0.951 . S
C1114 C1112 1.388 . S
C1114 C1115 1.366 . S
C1115 C1114 1.366 . S
C1115 C1116 1.414 . S
C1115 C1118 1.499 . S
C1116 H1090 0.950 . S
C1116 C1115 1.414 . S
C1116 C1117 1.374 . S
C1117 H1091 0.950 . S
C1117 C1113 1.385 . S
C1117 C1116 1.374 . S
C1118 C1115 1.499 . S
C1118 C1119 1.373 . S
C1118 C1120 1.389 . S
C1119 H1092 0.950 . S
C1119 C1105 1.377 . S
C1119 C1118 1.373 . S
C1120 C1104 1.377 . S
C1120 C1118 1.389 . S
C1120 C1121 1.524 . S
C1121 C1120 1.524 . S
C1121 C1122 1.397 . S
C1121 C1126 1.363 . S
C1122 H1093 0.950 . S
C1122 C1121 1.397 . S
C1122 C1123 1.334 . S
C1123 H1094 0.950 . S
C1123 C1122 1.334 . S
C1123 C1124 1.287 . S
C1124 C1123 1.287 . S
C1124 C1125 1.524 . S
C1124 H1127 0.999 . S
C1125 H1095 0.950 . S
C1125 C1124 1.524 . S
C1125 C1126 1.415 . S
C1126 H1096 0.950 . S
C1126 C1121 1.363 . S
C1126 C1125 1.415 . S
H1127 C1124 0.999 . S
H1128 C1109 0.913 . S
H1129 C1147 0.951 . S
H1130 C1149 0.951 . S
H1131 C1151 0.950 . S
H1132 C1152 0.950 . S
H1133 C1154 0.950 . S
H1134 C1157 0.950 . S
H1135 C1158 0.950 . S
H1136 C1160 0.950 . S
H1137 C1161 0.950 . S
H1138 C1162 0.951 . S
H1139 C1164 0.951 . S
H1140 C1166 0.950 . S
H1141 C1167 0.950 . S
H1142 C1169 0.950 . S
H1143 C1172 0.950 . S
H1144 C1173 0.950 . S
H1145 C1175 0.950 . S
H1146 C1176 0.950 . S
C1147 H1129 0.951 . S
C1147 C1148 1.366 . S
C1147 C1149 1.388 . S
C1148 C1147 1.366 . S
C1148 C1152 1.385 . S
C1149 H1130 0.951 . S
C1149 C1147 1.388 . S
C1149 C1150 1.366 . S
C1150 C1149 1.366 . S
C1150 C1151 1.414 . S
C1150 C1153 1.499 . S
C1151 H1131 0.950 . S
C1151 C1150 1.414 . S
C1151 C1152 1.374 . S
C1152 H1132 0.950 . S
C1152 C1148 1.385 . S
C1152 C1151 1.374 . S
C1153 C1150 1.499 . S
C1153 C1154 1.373 . S
C1153 C1155 1.389 . S
C1154 H1133 0.950 . S
C1154 C1153 1.373 . S
C1154 C1170 1.377 . S
C1155 C1153 1.389 . S
C1155 C1156 1.524 . S
C1155 C1169 1.377 . S
C1156 C1155 1.524 . S
C1156 C1157 1.397 . S
C1156 C1161 1.363 . S
C1157 H1134 0.950 . S
C1157 C1156 1.397 . S
C1157 C1158 1.334 . S
C1158 H1135 0.950 . S
C1158 C1157 1.334 . S
C1158 C1159 1.287 . S
C1159 C1158 1.287 . S
C1159 C1160 1.524 . S
C1159 H1178 0.913 . S
C1160 H1136 0.950 . S
C1160 C1159 1.524 . S
C1160 C1161 1.415 . S
C1161 H1137 0.950 . S
C1161 C1156 1.363 . S
C1161 C1160 1.415 . S
C1162 H1138 0.951 . S
C1162 C1163 1.366 . S
C1162 C1164 1.388 . S
C1163 C1162 1.366 . S
C1163 C1167 1.385 . S
C1164 H1139 0.951 . S
C1164 C1162 1.388 . S
C1164 C1165 1.366 . S
C1165 C1164 1.366 . S
C1165 C1166 1.414 . S
C1165 C1168 1.499 . S
C1166 H1140 0.950 . S
C1166 C1165 1.414 . S
C1166 C1167 1.374 . S
C1167 H1141 0.950 . S
C1167 C1163 1.385 . S
C1167 C1166 1.374 . S
C1168 C1165 1.499 . S
C1168 C1169 1.373 . S
C1168 C1170 1.389 . S
C1169 H1142 0.950 . S
C1169 C1155 1.377 . S
C1169 C1168 1.373 . S
C1170 C1154 1.377 . S
C1170 C1168 1.389 . S
C1170 C1171 1.524 . S
C1171 C1170 1.524 . S
C1171 C1172 1.397 . S
C1171 C1176 1.363 . S
C1172 H1143 0.950 . S
C1172 C1171 1.397 . S
C1172 C1173 1.334 . S
C1173 H1144 0.950 . S
C1173 C1172 1.334 . S
C1173 C1174 1.287 . S
C1174 C1173 1.287 . S
C1174 C1175 1.524 . S
C1174 H1177 0.999 . S
C1175 H1145 0.950 . S
C1175 C1174 1.524 . S
C1175 C1176 1.415 . S
C1176 H1146 0.950 . S
C1176 C1171 1.363 . S
C1176 C1175 1.415 . S
H1177 C1174 0.999 . S
H1178 C1159 0.913 . S
H1179 C1197 0.951 . S
H1180 C1199 0.951 . S
H1181 C1201 0.950 . S
H1182 C1202 0.950 . S
H1183 C1204 0.950 . S
H1184 C1207 0.950 . S
H1185 C1208 0.950 . S
H1186 C1210 0.950 . S
H1187 C1211 0.950 . S
H1188 C1212 0.951 . S
H1189 C1214 0.951 . S
H1190 C1216 0.950 . S
H1191 C1217 0.950 . S
H1192 C1219 0.950 . S
H1193 C1222 0.950 . S
H1194 C1223 0.950 . S
H1195 C1225 0.950 . S
H1196 C1226 0.950 . S
C1197 H1179 0.951 . S
C1197 C1198 1.366 . S
C1197 C1199 1.388 . S
C1198 C1197 1.366 . S
C1198 C1202 1.385 . S
C1199 H1180 0.951 . S
C1199 C1197 1.388 . S
C1199 C1200 1.366 . S
C1200 C1199 1.366 . S
C1200 C1201 1.414 . S
C1200 C1203 1.499 . S
C1201 H1181 0.950 . S
C1201 C1200 1.414 . S
C1201 C1202 1.374 . S
C1202 H1182 0.950 . S
C1202 C1198 1.385 . S
C1202 C1201 1.374 . S
C1203 C1200 1.499 . S
C1203 C1204 1.373 . S
C1203 C1205 1.389 . S
C1204 H1183 0.950 . S
C1204 C1203 1.373 . S
C1204 C1220 1.377 . S
C1205 C1203 1.389 . S
C1205 C1206 1.524 . S
C1205 C1219 1.377 . S
C1206 C1205 1.524 . S
C1206 C1207 1.397 . S
C1206 C1211 1.363 . S
C1207 H1184 0.950 . S
C1207 C1206 1.397 . S
C1207 C1208 1.334 . S
C1208 H1185 0.950 . S
C1208 C1207 1.334 . S
C1208 C1209 1.287 . S
C1209 C1208 1.287 . S
C1209 C1210 1.524 . S
C1209 H1228 0.913 . S
C1210 H1186 0.950 . S
C1210 C1209 1.524 . S
C1210 C1211 1.415 . S
C1211 H1187 0.950 . S
C1211 C1206 1.363 . S
C1211 C1210 1.415 . S
C1212 H1188 0.951 . S
C1212 C1213 1.366 . S
C1212 C1214 1.388 . S
C1213 C1212 1.366 . S
C1213 C1217 1.385 . S
C1214 H1189 0.951 . S
C1214 C1212 1.388 . S
C1214 C1215 1.366 . S
C1215 C1214 1.366 . S
C1215 C1216 1.414 . S
C1215 C1218 1.499 . S
C1216 H1190 0.950 . S
C1216 C1215 1.414 . S
C1216 C1217 1.374 . S
C1217 H1191 0.950 . S
C1217 C1213 1.385 . S
C1217 C1216 1.374 . S
C1218 C1215 1.499 . S
C1218 C1219 1.373 . S
C1218 C1220 1.389 . S
C1219 H1192 0.950 . S
C1219 C1205 1.377 . S
C1219 C1218 1.373 . S
C1220 C1204 1.377 . S
C1220 C1218 1.389 . S
C1220 C1221 1.524 . S
C1221 C1220 1.524 . S
C1221 C1222 1.397 . S
C1221 C1226 1.363 . S
C1222 H1193 0.950 . S
C1222 C1221 1.397 . S
C1222 C1223 1.334 . S
C1223 H1194 0.950 . S
C1223 C1222 1.334 . S
C1223 C1224 1.287 . S
C1224 C1223 1.287 . S
C1224 C1225 1.524 . S
C1224 H1227 0.999 . S
C1225 H1195 0.950 . S
C1225 C1224 1.524 . S
C1225 C1226 1.415 . S
C1226 H1196 0.950 . S
C1226 C1221 1.363 . S
C1226 C1225 1.415 . S
H1227 C1224 0.999 . S
H1228 C1209 0.913 . S
H1229 C1247 0.951 . S
H1230 C1249 0.951 . S
H1231 C1251 0.950 . S
H1232 C1252 0.950 . S
H1233 C1254 0.950 . S
H1234 C1257 0.950 . S
H1235 C1258 0.950 . S
H1236 C1260 0.950 . S
H1237 C1261 0.950 . S
H1238 C1262 0.951 . S
H1239 C1264 0.951 . S
H1240 C1266 0.950 . S
H1241 C1267 0.950 . S
H1242 C1269 0.950 . S
H1243 C1272 0.950 . S
H1244 C1273 0.950 . S
H1245 C1275 0.950 . S
H1246 C1276 0.950 . S
C1247 H1229 0.951 . S
C1247 C1248 1.366 . S
C1247 C1249 1.388 . S
C1248 C1247 1.366 . S
C1248 C1252 1.385 . S
C1249 H1230 0.951 . S
C1249 C1247 1.388 . S
C1249 C1250 1.366 . S
C1250 C1249 1.366 . S
C1250 C1251 1.414 . S
C1250 C1253 1.499 . S
C1251 H1231 0.950 . S
C1251 C1250 1.414 . S
C1251 C1252 1.374 . S
C1252 H1232 0.950 . S
C1252 C1248 1.385 . S
C1252 C1251 1.374 . S
C1253 C1250 1.499 . S
C1253 C1254 1.373 . S
C1253 C1255 1.389 . S
C1254 H1233 0.950 . S
C1254 C1253 1.373 . S
C1254 C1270 1.377 . S
C1255 C1253 1.389 . S
C1255 C1256 1.524 . S
C1255 C1269 1.377 . S
C1256 C1255 1.524 . S
C1256 C1257 1.397 . S
C1256 C1261 1.363 . S
C1257 H1234 0.950 . S
C1257 C1256 1.397 . S
C1257 C1258 1.334 . S
C1258 H1235 0.950 . S
C1258 C1257 1.334 . S
C1258 C1259 1.287 . S
C1259 C1258 1.287 . S
C1259 C1260 1.524 . S
C1259 H1278 0.913 . S
C1260 H1236 0.950 . S
C1260 C1259 1.524 . S
C1260 C1261 1.415 . S
C1261 H1237 0.950 . S
C1261 C1256 1.363 . S
C1261 C1260 1.415 . S
C1262 H1238 0.951 . S
C1262 C1263 1.366 . S
C1262 C1264 1.388 . S
C1263 C1262 1.366 . S
C1263 C1267 1.385 . S
C1264 H1239 0.951 . S
C1264 C1262 1.388 . S
C1264 C1265 1.366 . S
C1265 C1264 1.366 . S
C1265 C1266 1.414 . S
C1265 C1268 1.499 . S
C1266 H1240 0.950 . S
C1266 C1265 1.414 . S
C1266 C1267 1.374 . S
C1267 H1241 0.950 . S
C1267 C1263 1.385 . S
C1267 C1266 1.374 . S
C1268 C1265 1.499 . S
C1268 C1269 1.373 . S
C1268 C1270 1.389 . S
C1269 H1242 0.950 . S
C1269 C1255 1.377 . S
C1269 C1268 1.373 . S
C1270 C1254 1.377 . S
C1270 C1268 1.389 . S
C1270 C1271 1.524 . S
C1271 C1270 1.524 . S
C1271 C1272 1.397 . S
C1271 C1276 1.363 . S
C1272 H1243 0.950 . S
C1272 C1271 1.397 . S
C1272 C1273 1.334 . S
C1273 H1244 0.950 . S
C1273 C1272 1.334 . S
C1273 C1274 1.287 . S
C1274 C1273 1.287 . S
C1274 C1275 1.524 . S
C1274 H1277 0.999 . S
C1275 H1245 0.950 . S
C1275 C1274 1.524 . S
C1275 C1276 1.415 . S
C1276 H1246 0.950 . S
C1276 C1271 1.363 . S
C1276 C1275 1.415 . S
H1277 C1274 0.999 . S
H1278 C1259 0.913 . S
H1279 C1297 0.951 . S
H1280 C1299 0.951 . S
H1281 C1301 0.950 . S
H1282 C1302 0.950 . S
H1283 C1304 0.950 . S
H1284 C1307 0.950 . S
H1285 C1308 0.950 . S
H1286 C1310 0.950 . S
H1287 C1311 0.950 . S
H1288 C1312 0.951 . S
H1289 C1314 0.951 . S
H1290 C1316 0.950 . S
H1291 C1317 0.950 . S
H1292 C1319 0.950 . S
H1293 C1322 0.950 . S
H1294 C1323 0.950 . S
H1295 C1325 0.950 . S
H1296 C1326 0.950 . S
C1297 H1279 0.951 . S
C1297 C1298 1.366 . S
C1297 C1299 1.388 . S
C1298 C1297 1.366 . S
C1298 C1302 1.385 . S
C1299 H1280 0.951 . S
C1299 C1297 1.388 . S
C1299 C1300 1.366 . S
C1300 C1299 1.366 . S
C1300 C1301 1.414 . S
C1300 C1303 1.499 . S
C1301 H1281 0.950 . S
C1301 C1300 1.414 . S
C1301 C1302 1.374 . S
C1302 H1282 0.950 . S
C1302 C1298 1.385 . S
C1302 C1301 1.374 . S
C1303 C1300 1.499 . S
C1303 C1304 1.373 . S
C1303 C1305 1.389 . S
C1304 H1283 0.950 . S
C1304 C1303 1.373 . S
C1304 C1320 1.377 . S
C1305 C1303 1.389 . S
C1305 C1306 1.524 . S
C1305 C1319 1.377 . S
C1306 C1305 1.524 . S
C1306 C1307 1.397 . S
C1306 C1311 1.363 . S
C1307 H1284 0.950 . S
C1307 C1306 1.397 . S
C1307 C1308 1.334 . S
C1308 H1285 0.950 . S
C1308 C1307 1.334 . S
C1308 C1309 1.287 . S
C1309 C1308 1.287 . S
C1309 C1310 1.524 . S
C1309 H1328 0.913 . S
C1310 H1286 0.950 . S
C1310 C1309 1.524 . S
C1310 C1311 1.415 . S
C1311 H1287 0.950 . S
C1311 C1306 1.363 . S
C1311 C1310 1.415 . S
C1312 H1288 0.951 . S
C1312 C1313 1.366 . S
C1312 C1314 1.388 . S
C1313 C1312 1.366 . S
C1313 C1317 1.385 . S
C1314 H1289 0.951 . S
C1314 C1312 1.388 . S
C1314 C1315 1.366 . S
C1315 C1314 1.366 . S
C1315 C1316 1.414 . S
C1315 C1318 1.499 . S
C1316 H1290 0.950 . S
C1316 C1315 1.414 . S
C1316 C1317 1.374 . S
C1317 H1291 0.950 . S
C1317 C1313 1.385 . S
C1317 C1316 1.374 . S
C1318 C1315 1.499 . S
C1318 C1319 1.373 . S
C1318 C1320 1.389 . S
C1319 H1292 0.950 . S
C1319 C1305 1.377 . S
C1319 C1318 1.373 . S
C1320 C1304 1.377 . S
C1320 C1318 1.389 . S
C1320 C1321 1.524 . S
C1321 C1320 1.524 . S
C1321 C1322 1.397 . S
C1321 C1326 1.363 . S
C1322 H1293 0.950 . S
C1322 C1321 1.397 . S
C1322 C1323 1.334 . S
C1323 H1294 0.950 . S
C1323 C1322 1.334 . S
C1323 C1324 1.287 . S
C1324 C1323 1.287 . S
C1324 C1325 1.524 . S
C1324 H1327 0.999 . S
C1325 H1295 0.950 . S
C1325 C1324 1.524 . S
C1325 C1326 1.415 . S
C1326 H1296 0.950 . S
C1326 C1321 1.363 . S
C1326 C1325 1.415 . S
H1327 C1324 0.999 . S
H1328 C1309 0.913 . S
H1329 C1347 0.951 . S
H1330 C1349 0.951 . S
H1331 C1351 0.950 . S
H1332 C1352 0.950 . S
H1333 C1354 0.950 . S
H1334 C1357 0.950 . S
H1335 C1358 0.950 . S
H1336 C1360 0.950 . S
H1337 C1361 0.950 . S
H1338 C1362 0.951 . S
H1339 C1364 0.951 . S
H1340 C1366 0.950 . S
H1341 C1367 0.950 . S
H1342 C1369 0.950 . S
H1343 C1372 0.950 . S
H1344 C1373 0.950 . S
H1345 C1375 0.950 . S
H1346 C1376 0.950 . S
C1347 H1329 0.951 . S
C1347 C1348 1.366 . S
C1347 C1349 1.388 . S
C1348 C1347 1.366 . S
C1348 C1352 1.385 . S
C1349 H1330 0.951 . S
C1349 C1347 1.388 . S
C1349 C1350 1.366 . S
C1350 C1349 1.366 . S
C1350 C1351 1.414 . S
C1350 C1353 1.499 . S
C1351 H1331 0.950 . S
C1351 C1350 1.414 . S
C1351 C1352 1.374 . S
C1352 H1332 0.950 . S
C1352 C1348 1.385 . S
C1352 C1351 1.374 . S
C1353 C1350 1.499 . S
C1353 C1354 1.373 . S
C1353 C1355 1.389 . S
C1354 H1333 0.950 . S
C1354 C1353 1.373 . S
C1354 C1370 1.377 . S
C1355 C1353 1.389 . S
C1355 C1356 1.524 . S
C1355 C1369 1.377 . S
C1356 C1355 1.524 . S
C1356 C1357 1.397 . S
C1356 C1361 1.363 . S
C1357 H1334 0.950 . S
C1357 C1356 1.397 . S
C1357 C1358 1.334 . S
C1358 H1335 0.950 . S
C1358 C1357 1.334 . S
C1358 C1359 1.287 . S
C1359 C1358 1.287 . S
C1359 C1360 1.524 . S
C1359 H1378 0.913 . S
C1360 H1336 0.950 . S
C1360 C1359 1.524 . S
C1360 C1361 1.415 . S
C1361 H1337 0.950 . S
C1361 C1356 1.363 . S
C1361 C1360 1.415 . S
C1362 H1338 0.951 . S
C1362 C1363 1.366 . S
C1362 C1364 1.388 . S
C1363 C1362 1.366 . S
C1363 C1367 1.385 . S
C1364 H1339 0.951 . S
C1364 C1362 1.388 . S
C1364 C1365 1.366 . S
C1365 C1364 1.366 . S
C1365 C1366 1.414 . S
C1365 C1368 1.499 . S
C1366 H1340 0.950 . S
C1366 C1365 1.414 . S
C1366 C1367 1.374 . S
C1367 H1341 0.950 . S
C1367 C1363 1.385 . S
C1367 C1366 1.374 . S
C1368 C1365 1.499 . S
C1368 C1369 1.373 . S
C1368 C1370 1.389 . S
C1369 H1342 0.950 . S
C1369 C1355 1.377 . S
C1369 C1368 1.373 . S
C1370 C1354 1.377 . S
C1370 C1368 1.389 . S
C1370 C1371 1.524 . S
C1371 C1370 1.524 . S
C1371 C1372 1.397 . S
C1371 C1376 1.363 . S
C1372 H1343 0.950 . S
C1372 C1371 1.397 . S
C1372 C1373 1.334 . S
C1373 H1344 0.950 . S
C1373 C1372 1.334 . S
C1373 C1374 1.287 . S
C1374 C1373 1.287 . S
C1374 C1375 1.524 . S
C1374 H1377 0.999 . S
C1375 H1345 0.950 . S
C1375 C1374 1.524 . S
C1375 C1376 1.415 . S
C1376 H1346 0.950 . S
C1376 C1371 1.363 . S
C1376 C1375 1.415 . S
H1377 C1374 0.999 . S
H1378 C1359 0.913 . S
H1379 C1397 0.951 . S
H1380 C1399 0.951 . S
H1381 C1401 0.950 . S
H1382 C1402 0.950 . S
H1383 C1404 0.950 . S
H1384 C1407 0.950 . S
H1385 C1408 0.950 . S
H1386 C1410 0.950 . S
H1387 C1411 0.950 . S
H1388 C1412 0.951 . S
H1389 C1414 0.951 . S
H1390 C1416 0.950 . S
H1391 C1417 0.950 . S
H1392 C1419 0.950 . S
H1393 C1422 0.950 . S
H1394 C1423 0.950 . S
H1395 C1425 0.950 . S
H1396 C1426 0.950 . S
C1397 H1379 0.951 . S
C1397 C1398 1.366 . S
C1397 C1399 1.388 . S
C1398 C1397 1.366 . S
C1398 C1402 1.385 . S
C1399 H1380 0.951 . S
C1399 C1397 1.388 . S
C1399 C1400 1.366 . S
C1400 C1399 1.366 . S
C1400 C1401 1.414 . S
C1400 C1403 1.499 . S
C1401 H1381 0.950 . S
C1401 C1400 1.414 . S
C1401 C1402 1.374 . S
C1402 H1382 0.950 . S
C1402 C1398 1.385 . S
C1402 C1401 1.374 . S
C1403 C1400 1.499 . S
C1403 C1404 1.373 . S
C1403 C1405 1.389 . S
C1404 H1383 0.950 . S
C1404 C1403 1.373 . S
C1404 C1420 1.377 . S
C1405 C1403 1.389 . S
C1405 C1406 1.524 . S
C1405 C1419 1.377 . S
C1406 C1405 1.524 . S
C1406 C1407 1.397 . S
C1406 C1411 1.363 . S
C1407 H1384 0.950 . S
C1407 C1406 1.397 . S
C1407 C1408 1.334 . S
C1408 H1385 0.950 . S
C1408 C1407 1.334 . S
C1408 C1409 1.287 . S
C1409 C1408 1.287 . S
C1409 C1410 1.524 . S
C1409 H1428 0.913 . S
C1410 H1386 0.950 . S
C1410 C1409 1.524 . S
C1410 C1411 1.415 . S
C1411 H1387 0.950 . S
C1411 C1406 1.363 . S
C1411 C1410 1.415 . S
C1412 H1388 0.951 . S
C1412 C1413 1.366 . S
C1412 C1414 1.388 . S
C1413 C1412 1.366 . S
C1413 C1417 1.385 . S
C1414 H1389 0.951 . S
C1414 C1412 1.388 . S
C1414 C1415 1.366 . S
C1415 C1414 1.366 . S
C1415 C1416 1.414 . S
C1415 C1418 1.499 . S
C1416 H1390 0.950 . S
C1416 C1415 1.414 . S
C1416 C1417 1.374 . S
C1417 H1391 0.950 . S
C1417 C1413 1.385 . S
C1417 C1416 1.374 . S
C1418 C1415 1.499 . S
C1418 C1419 1.373 . S
C1418 C1420 1.389 . S
C1419 H1392 0.950 . S
C1419 C1405 1.377 . S
C1419 C1418 1.373 . S
C1420 C1404 1.377 . S
C1420 C1418 1.389 . S
C1420 C1421 1.524 . S
C1421 C1420 1.524 . S
C1421 C1422 1.397 . S
C1421 C1426 1.363 . S
C1422 H1393 0.950 . S
C1422 C1421 1.397 . S
C1422 C1423 1.334 . S
C1423 H1394 0.950 . S
C1423 C1422 1.334 . S
C1423 C1424 1.287 . S
C1424 C1423 1.287 . S
C1424 C1425 1.524 . S
C1424 H1427 0.999 . S
C1425 H1395 0.950 . S
C1425 C1424 1.524 . S
C1425 C1426 1.415 . S
C1426 H1396 0.950 . S
C1426 C1421 1.363 . S
C1426 C1425 1.415 . S
H1427 C1424 0.999 . S
H1428 C1409 0.913 . S
H1429 C1447 0.951 . S
H1430 C1449 0.951 . S
H1431 C1451 0.950 . S
H1432 C1452 0.950 . S
H1433 C1454 0.950 . S
H1434 C1457 0.950 . S
H1435 C1458 0.950 . S
H1436 C1460 0.950 . S
H1437 C1461 0.950 . S
H1438 C1462 0.951 . S
H1439 C1464 0.951 . S
H1440 C1466 0.950 . S
H1441 C1467 0.950 . S
H1442 C1469 0.950 . S
H1443 C1472 0.950 . S
H1444 C1473 0.950 . S
H1445 C1475 0.950 . S
H1446 C1476 0.950 . S
C1447 H1429 0.951 . S
C1447 C1448 1.366 . S
C1447 C1449 1.388 . S
C1448 C1447 1.366 . S
C1448 C1452 1.385 . S
C1449 H1430 0.951 . S
C1449 C1447 1.388 . S
C1449 C1450 1.366 . S
C1450 C1449 1.366 . S
C1450 C1451 1.414 . S
C1450 C1453 1.499 . S
C1451 H1431 0.950 . S
C1451 C1450 1.414 . S
C1451 C1452 1.374 . S
C1452 H1432 0.950 . S
C1452 C1448 1.385 . S
C1452 C1451 1.374 . S
C1453 C1450 1.499 . S
C1453 C1454 1.373 . S
C1453 C1455 1.389 . S
C1454 H1433 0.950 . S
C1454 C1453 1.373 . S
C1454 C1470 1.377 . S
C1455 C1453 1.389 . S
C1455 C1456 1.524 . S
C1455 C1469 1.377 . S
C1456 C1455 1.524 . S
C1456 C1457 1.397 . S
C1456 C1461 1.363 . S
C1457 H1434 0.950 . S
C1457 C1456 1.397 . S
C1457 C1458 1.334 . S
C1458 H1435 0.950 . S
C1458 C1457 1.334 . S
C1458 C1459 1.287 . S
C1459 C1458 1.287 . S
C1459 C1460 1.524 . S
C1459 H1478 0.913 . S
C1460 H1436 0.950 . S
C1460 C1459 1.524 . S
C1460 C1461 1.415 . S
C1461 H1437 0.950 . S
C1461 C1456 1.363 . S
C1461 C1460 1.415 . S
C1462 H1438 0.951 . S
C1462 C1463 1.366 . S
C1462 C1464 1.388 . S
C1463 C1462 1.366 . S
C1463 C1467 1.385 . S
C1464 H1439 0.951 . S
C1464 C1462 1.388 . S
C1464 C1465 1.366 . S
C1465 C1464 1.366 . S
C1465 C1466 1.414 . S
C1465 C1468 1.499 . S
C1466 H1440 0.950 . S
C1466 C1465 1.414 . S
C1466 C1467 1.374 . S
C1467 H1441 0.950 . S
C1467 C1463 1.385 . S
C1467 C1466 1.374 . S
C1468 C1465 1.499 . S
C1468 C1469 1.373 . S
C1468 C1470 1.389 . S
C1469 H1442 0.950 . S
C1469 C1455 1.377 . S
C1469 C1468 1.373 . S
C1470 C1454 1.377 . S
C1470 C1468 1.389 . S
C1470 C1471 1.524 . S
C1471 C1470 1.524 . S
C1471 C1472 1.397 . S
C1471 C1476 1.363 . S
C1472 H1443 0.950 . S
C1472 C1471 1.397 . S
C1472 C1473 1.334 . S
C1473 H1444 0.950 . S
C1473 C1472 1.334 . S
C1473 C1474 1.287 . S
C1474 C1473 1.287 . S
C1474 C1475 1.524 . S
C1474 H1477 0.999 . S
C1475 H1445 0.950 . S
C1475 C1474 1.524 . S
C1475 C1476 1.415 . S
C1476 H1446 0.950 . S
C1476 C1471 1.363 . S
C1476 C1475 1.415 . S
H1477 C1474 0.999 . S
H1478 C1459 0.913 . S
H1479 C1497 0.951 . S
H1480 C1499 0.951 . S
H1481 C1501 0.950 . S
H1482 C1502 0.950 . S
H1483 C1504 0.950 . S
H1484 C1507 0.950 . S
H1485 C1508 0.950 . S
H1486 C1510 0.950 . S
H1487 C1511 0.950 . S
H1488 C1512 0.951 . S
H1489 C1514 0.951 . S
H1490 C1516 0.950 . S
H1491 C1517 0.950 . S
H1492 C1519 0.950 . S
H1493 C1522 0.950 . S
H1494 C1523 0.950 . S
H1495 C1525 0.950 . S
H1496 C1526 0.950 . S
C1497 H1479 0.951 . S
C1497 C1498 1.366 . S
C1497 C1499 1.388 . S
C1498 C1497 1.366 . S
C1498 C1502 1.385 . S
C1499 H1480 0.951 . S
C1499 C1497 1.388 . S
C1499 C1500 1.366 . S
C1500 C1499 1.366 . S
C1500 C1501 1.414 . S
C1500 C1503 1.499 . S
C1501 H1481 0.950 . S
C1501 C1500 1.414 . S
C1501 C1502 1.374 . S
C1502 H1482 0.950 . S
C1502 C1498 1.385 . S
C1502 C1501 1.374 . S
C1503 C1500 1.499 . S
C1503 C1504 1.373 . S
C1503 C1505 1.389 . S
C1504 H1483 0.950 . S
C1504 C1503 1.373 . S
C1504 C1520 1.377 . S
C1505 C1503 1.389 . S
C1505 C1506 1.524 . S
C1505 C1519 1.377 . S
C1506 C1505 1.524 . S
C1506 C1507 1.397 . S
C1506 C1511 1.363 . S
C1507 H1484 0.950 . S
C1507 C1506 1.397 . S
C1507 C1508 1.334 . S
C1508 H1485 0.950 . S
C1508 C1507 1.334 . S
C1508 C1509 1.287 . S
C1509 C1508 1.287 . S
C1509 C1510 1.524 . S
C1509 H1528 0.913 . S
C1510 H1486 0.950 . S
C1510 C1509 1.524 . S
C1510 C1511 1.415 . S
C1511 H1487 0.950 . S
C1511 C1506 1.363 . S
C1511 C1510 1.415 . S
C1512 H1488 0.951 . S
C1512 C1513 1.366 . S
C1512 C1514 1.388 . S
C1513 C1512 1.366 . S
C1513 C1517 1.385 . S
C1514 H1489 0.951 . S
C1514 C1512 1.388 . S
C1514 C1515 1.366 . S
C1515 C1514 1.366 . S
C1515 C1516 1.414 . S
C1515 C1518 1.499 . S
C1516 H1490 0.950 . S
C1516 C1515 1.414 . S
C1516 C1517 1.374 . S
C1517 H1491 0.950 . S
C1517 C1513 1.385 . S
C1517 C1516 1.374 . S
C1518 C1515 1.499 . S
C1518 C1519 1.373 . S
C1518 C1520 1.389 . S
C1519 H1492 0.950 . S
C1519 C1505 1.377 . S
C1519 C1518 1.373 . S
C1520 C1504 1.377 . S
C1520 C1518 1.389 . S
C1520 C1521 1.524 . S
C1521 C1520 1.524 . S
C1521 C1522 1.397 . S
C1521 C1526 1.363 . S
C1522 H1493 0.950 . S
C1522 C1521 1.397 . S
C1522 C1523 1.334 . S
C1523 H1494 0.950 . S
C1523 C1522 1.334 . S
C1523 C1524 1.287 . S
C1524 C1523 1.287 . S
C1524 C1525 1.524 . S
C1524 H1527 0.999 . S
C1525 H1495 0.950 . S
C1525 C1524 1.524 . S
C1525 C1526 1.415 . S
C1526 H1496 0.950 . S
C1526 C1521 1.363 . S
C1526 C1525 1.415 . S
H1527 C1524 0.999 . S
H1528 C1509 0.913 . S
H1529 C1547 0.951 . S
H1530 C1549 0.951 . S
H1531 C1551 0.950 . S
H1532 C1552 0.950 . S
H1533 C1554 0.950 . S
H1534 C1557 0.950 . S
H1535 C1558 0.950 . S
H1536 C1560 0.950 . S
H1537 C1561 0.950 . S
H1538 C1562 0.951 . S
H1539 C1564 0.951 . S
H1540 C1566 0.950 . S
H1541 C1567 0.950 . S
H1542 C1569 0.950 . S
H1543 C1572 0.950 . S
H1544 C1573 0.950 . S
H1545 C1575 0.950 . S
H1546 C1576 0.950 . S
C1547 H1529 0.951 . S
C1547 C1548 1.366 . S
C1547 C1549 1.388 . S
C1548 C1547 1.366 . S
C1548 C1552 1.385 . S
C1549 H1530 0.951 . S
C1549 C1547 1.388 . S
C1549 C1550 1.366 . S
C1550 C1549 1.366 . S
C1550 C1551 1.414 . S
C1550 C1553 1.499 . S
C1551 H1531 0.950 . S
C1551 C1550 1.414 . S
C1551 C1552 1.374 . S
C1552 H1532 0.950 . S
C1552 C1548 1.385 . S
C1552 C1551 1.374 . S
C1553 C1550 1.499 . S
C1553 C1554 1.373 . S
C1553 C1555 1.389 . S
C1554 H1533 0.950 . S
C1554 C1553 1.373 . S
C1554 C1570 1.377 . S
C1555 C1553 1.389 . S
C1555 C1556 1.524 . S
C1555 C1569 1.377 . S
C1556 C1555 1.524 . S
C1556 C1557 1.397 . S
C1556 C1561 1.363 . S
C1557 H1534 0.950 . S
C1557 C1556 1.397 . S
C1557 C1558 1.334 . S
C1558 H1535 0.950 . S
C1558 C1557 1.334 . S
C1558 C1559 1.287 . S
C1559 C1558 1.287 . S
C1559 C1560 1.524 . S
C1559 H1578 0.913 . S
C1560 H1536 0.950 . S
C1560 C1559 1.524 . S
C1560 C1561 1.415 . S
C1561 H1537 0.950 . S
C1561 C1556 1.363 . S
C1561 C1560 1.415 . S
C1562 H1538 0.951 . S
C1562 C1563 1.366 . S
C1562 C1564 1.388 . S
C1563 C1562 1.366 . S
C1563 C1567 1.385 . S
C1564 H1539 0.951 . S
C1564 C1562 1.388 . S
C1564 C1565 1.366 . S
C1565 C1564 1.366 . S
C1565 C1566 1.414 . S
C1565 C1568 1.499 . S
C1566 H1540 0.950 . S
C1566 C1565 1.414 . S
C1566 C1567 1.374 . S
C1567 H1541 0.950 . S
C1567 C1563 1.385 . S
C1567 C1566 1.374 . S
C1568 C1565 1.499 . S
C1568 C1569 1.373 . S
C1568 C1570 1.389 . S
C1569 H1542 0.950 . S
C1569 C1555 1.377 . S
C1569 C1568 1.373 . S
C1570 C1554 1.377 . S
C1570 C1568 1.389 . S
C1570 C1571 1.524 . S
C1571 C1570 1.524 . S
C1571 C1572 1.397 . S
C1571 C1576 1.363 . S
C1572 H1543 0.950 . S
C1572 C1571 1.397 . S
C1572 C1573 1.334 . S
C1573 H1544 0.950 . S
C1573 C1572 1.334 . S
C1573 C1574 1.287 . S
C1574 C1573 1.287 . S
C1574 C1575 1.524 . S
C1574 H1577 0.999 . S
C1575 H1545 0.950 . S
C1575 C1574 1.524 . S
C1575 C1576 1.415 . S
C1576 H1546 0.950 . S
C1576 C1571 1.363 . S
C1576 C1575 1.415 . S
H1577 C1574 0.999 . S
H1578 C1559 0.913 . S
H1579 C1597 0.951 . S
H1580 C1599 0.951 . S
H1581 C1601 0.950 . S
H1582 C1602 0.950 . S
H1583 C1604 0.950 . S
H1584 C1607 0.950 . S
H1585 C1608 0.950 . S
H1586 C1610 0.950 . S
H1587 C1611 0.950 . S
H1588 C1612 0.951 . S
H1589 C1614 0.951 . S
H1590 C1616 0.950 . S
H1591 C1617 0.950 . S
H1592 C1619 0.950 . S
H1593 C1622 0.950 . S
H1594 C1623 0.950 . S
H1595 C1625 0.950 . S
H1596 C1626 0.950 . S
C1597 H1579 0.951 . S
C1597 C1598 1.366 . S
C1597 C1599 1.388 . S
C1598 C1597 1.366 . S
C1598 C1602 1.385 . S
C1599 H1580 0.951 . S
C1599 C1597 1.388 . S
C1599 C1600 1.366 . S
C1600 C1599 1.366 . S
C1600 C1601 1.414 . S
C1600 C1603 1.499 . S
C1601 H1581 0.950 . S
C1601 C1600 1.414 . S
C1601 C1602 1.374 . S
C1602 H1582 0.950 . S
C1602 C1598 1.385 . S
C1602 C1601 1.374 . S
C1603 C1600 1.499 . S
C1603 C1604 1.373 . S
C1603 C1605 1.389 . S
C1604 H1583 0.950 . S
C1604 C1603 1.373 . S
C1604 C1620 1.377 . S
C1605 C1603 1.389 . S
C1605 C1606 1.524 . S
C1605 C1619 1.377 . S
C1606 C1605 1.524 . S
C1606 C1607 1.397 . S
C1606 C1611 1.363 . S
C1607 H1584 0.950 . S
C1607 C1606 1.397 . S
C1607 C1608 1.334 . S
C1608 H1585 0.950 . S
C1608 C1607 1.334 . S
C1608 C1609 1.287 . S
C1609 C1608 1.287 . S
C1609 C1610 1.524 . S
C1609 H1628 0.913 . S
C1610 H1586 0.950 . S
C1610 C1609 1.524 . S
C1610 C1611 1.415 . S
C1611 H1587 0.950 . S
C1611 C1606 1.363 . S
C1611 C1610 1.415 . S
C1612 H1588 0.951 . S
C1612 C1613 1.366 . S
C1612 C1614 1.388 . S
C1613 C1612 1.366 . S
C1613 C1617 1.385 . S
C1614 H1589 0.951 . S
C1614 C1612 1.388 . S
C1614 C1615 1.366 . S
C1615 C1614 1.366 . S
C1615 C1616 1.414 . S
C1615 C1618 1.499 . S
C1616 H1590 0.950 . S
C1616 C1615 1.414 . S
C1616 C1617 1.374 . S
C1617 H1591 0.950 . S
C1617 C1613 1.385 . S
C1617 C1616 1.374 . S
C1618 C1615 1.499 . S
C1618 C1619 1.373 . S
C1618 C1620 1.389 . S
C1619 H1592 0.950 . S
C1619 C1605 1.377 . S
C1619 C1618 1.373 . S
C1620 C1604 1.377 . S
C1620 C1618 1.389 . S
C1620 C1621 1.524 . S
C1621 C1620 1.524 . S
C1621 C1622 1.397 . S
C1621 C1626 1.363 . S
C1622 H1593 0.950 . S
C1622 C1621 1.397 . S
C1622 C1623 1.334 . S
C1623 H1594 0.950 . S
C1623 C1622 1.334 . S
C1623 C1624 1.287 . S
C1624 C1623 1.287 . S
C1624 C1625 1.524 . S
C1624 H1627 0.999 . S
C1625 H1595 0.950 . S
C1625 C1624 1.524 . S
C1625 C1626 1.415 . S
C1626 H1596 0.950 . S
C1626 C1621 1.363 . S
C1626 C1625 1.415 . S
H1627 C1624 0.999 . S
H1628 C1609 0.913 . S
H1629 C1647 0.951 . S
H1630 C1649 0.951 . S
H1631 C1651 0.950 . S
H1632 C1652 0.950 . S
H1633 C1654 0.950 . S
H1634 C1657 0.950 . S
H1635 C1658 0.950 . S
H1636 C1660 0.950 . S
H1637 C1661 0.950 . S
H1638 C1662 0.951 . S
H1639 C1664 0.951 . S
H1640 C1666 0.950 . S
H1641 C1667 0.950 . S
H1642 C1669 0.950 . S
H1643 C1672 0.950 . S
H1644 C1673 0.950 . S
H1645 C1675 0.950 . S
H1646 C1676 0.950 . S
C1647 H1629 0.951 . S
C1647 C1648 1.366 . S
C1647 C1649 1.388 . S
C1648 C1647 1.366 . S
C1648 C1652 1.385 . S
C1649 H1630 0.951 . S
C1649 C1647 1.388 . S
C1649 C1650 1.366 . S
C1650 C1649 1.366 . S
C1650 C1651 1.414 . S
C1650 C1653 1.499 . S
C1651 H1631 0.950 . S
C1651 C1650 1.414 . S
C1651 C1652 1.374 . S
C1652 H1632 0.950 . S
C1652 C1648 1.385 . S
C1652 C1651 1.374 . S
C1653 C1650 1.499 . S
C1653 C1654 1.373 . S
C1653 C1655 1.389 . S
C1654 H1633 0.950 . S
C1654 C1653 1.373 . S
C1654 C1670 1.377 . S
C1655 C1653 1.389 . S
C1655 C1656 1.524 . S
C1655 C1669 1.377 . S
C1656 C1655 1.524 . S
C1656 C1657 1.397 . S
C1656 C1661 1.363 . S
C1657 H1634 0.950 . S
C1657 C1656 1.397 . S
C1657 C1658 1.334 . S
C1658 H1635 0.950 . S
C1658 C1657 1.334 . S
C1658 C1659 1.287 . S
C1659 C1658 1.287 . S
C1659 C1660 1.524 . S
C1659 H1678 0.913 . S
C1660 H1636 0.950 . S
C1660 C1659 1.524 . S
C1660 C1661 1.415 . S
C1661 H1637 0.950 . S
C1661 C1656 1.363 . S
C1661 C1660 1.415 . S
C1662 H1638 0.951 . S
C1662 C1663 1.366 . S
C1662 C1664 1.388 . S
C1663 C1662 1.366 . S
C1663 C1667 1.385 . S
C1664 H1639 0.951 . S
C1664 C1662 1.388 . S
C1664 C1665 1.366 . S
C1665 C1664 1.366 . S
C1665 C1666 1.414 . S
C1665 C1668 1.499 . S
C1666 H1640 0.950 . S
C1666 C1665 1.414 . S
C1666 C1667 1.374 . S
C1667 H1641 0.950 . S
C1667 C1663 1.385 . S
C1667 C1666 1.374 . S
C1668 C1665 1.499 . S
C1668 C1669 1.373 . S
C1668 C1670 1.389 . S
C1669 H1642 0.950 . S
C1669 C1655 1.377 . S
C1669 C1668 1.373 . S
C1670 C1654 1.377 . S
C1670 C1668 1.389 . S
C1670 C1671 1.524 . S
C1671 C1670 1.524 . S
C1671 C1672 1.397 . S
C1671 C1676 1.363 . S
C1672 H1643 0.950 . S
C1672 C1671 1.397 . S
C1672 C1673 1.334 . S
C1673 H1644 0.950 . S
C1673 C1672 1.334 . S
C1673 C1674 1.287 . S
C1674 C1673 1.287 . S
C1674 C1675 1.524 . S
C1674 H1677 0.999 . S
C1675 H1645 0.950 . S
C1675 C1674 1.524 . S
C1675 C1676 1.415 . S
C1676 H1646 0.950 . S
C1676 C1671 1.363 . S
C1676 C1675 1.415 . S
H1677 C1674 0.999 . S
H1678 C1659 0.913 . S
H1679 C1697 0.951 . S
H1680 C1699 0.951 . S
H1681 C1701 0.950 . S
H1682 C1702 0.950 . S
H1683 C1704 0.950 . S
H1684 C1707 0.950 . S
H1685 C1708 0.950 . S
H1686 C1710 0.950 . S
H1687 C1711 0.950 . S
H1688 C1712 0.951 . S
H1689 C1714 0.951 . S
H1690 C1716 0.950 . S
H1691 C1717 0.950 . S
H1692 C1719 0.950 . S
H1693 C1722 0.950 . S
H1694 C1723 0.950 . S
H1695 C1725 0.950 . S
H1696 C1726 0.950 . S
C1697 H1679 0.951 . S
C1697 C1698 1.366 . S
C1697 C1699 1.388 . S
C1698 C1697 1.366 . S
C1698 C1702 1.385 . S
C1699 H1680 0.951 . S
C1699 C1697 1.388 . S
C1699 C1700 1.366 . S
C1700 C1699 1.366 . S
C1700 C1701 1.414 . S
C1700 C1703 1.499 . S
C1701 H1681 0.950 . S
C1701 C1700 1.414 . S
C1701 C1702 1.374 . S
C1702 H1682 0.950 . S
C1702 C1698 1.385 . S
C1702 C1701 1.374 . S
C1703 C1700 1.499 . S
C1703 C1704 1.373 . S
C1703 C1705 1.389 . S
C1704 H1683 0.950 . S
C1704 C1703 1.373 . S
C1704 C1720 1.377 . S
C1705 C1703 1.389 . S
C1705 C1706 1.524 . S
C1705 C1719 1.377 . S
C1706 C1705 1.524 . S
C1706 C1707 1.397 . S
C1706 C1711 1.363 . S
C1707 H1684 0.950 . S
C1707 C1706 1.397 . S
C1707 C1708 1.334 . S
C1708 H1685 0.950 . S
C1708 C1707 1.334 . S
C1708 C1709 1.287 . S
C1709 C1708 1.287 . S
C1709 C1710 1.524 . S
C1709 H1728 0.913 . S
C1710 H1686 0.950 . S
C1710 C1709 1.524 . S
C1710 C1711 1.415 . S
C1711 H1687 0.950 . S
C1711 C1706 1.363 . S
C1711 C1710 1.415 . S
C1712 H1688 0.951 . S
C1712 C1713 1.366 . S
C1712 C1714 1.388 . S
C1713 C1712 1.366 . S
C1713 C1717 1.385 . S
C1714 H1689 0.951 . S
C1714 C1712 1.388 . S
C1714 C1715 1.366 . S
C1715 C1714 1.366 . S
C1715 C1716 1.414 . S
C1715 C1718 1.499 . S
C1716 H1690 0.950 . S
C1716 C1715 1.414 . S
C1716 C1717 1.374 . S
C1717 H1691 0.950 . S
C1717 C1713 1.385 . S
C1717 C1716 1.374 . S
C1718 C1715 1.499 . S
C1718 C1719 1.373 . S
C1718 C1720 1.389 . S
C1719 H1692 0.950 . S
C1719 C1705 1.377 . S
C1719 C1718 1.373 . S
C1720 C1704 1.377 . S
C1720 C1718 1.389 . S
C1720 C1721 1.524 . S
C1721 C1720 1.524 . S
C1721 C1722 1.397 . S
C1721 C1726 1.363 . S
C1722 H1693 0.950 . S
C1722 C1721 1.397 . S
C1722 C1723 1.334 . S
C1723 H1694 0.950 . S
C1723 C1722 1.334 . S
C1723 C1724 1.287 . S
C1724 C1723 1.287 . S
C1724 C1725 1.524 . S
C1724 H1727 0.999 . S
C1725 H1695 0.950 . S
C1725 C1724 1.524 . S
C1725 C1726 1.415 . S
C1726 H1696 0.950 . S
C1726 C1721 1.363 . S
C1726 C1725 1.415 . S
H1727 C1724 0.999 . S
H1728 C1709 0.913 . S
H1729 C1747 0.951 . S
H1730 C1749 0.951 . S
H1731 C1751 0.950 . S
H1732 C1752 0.950 . S
H1733 C1754 0.950 . S
H1734 C1757 0.950 . S
H1735 C1758 0.950 . S
H1736 C1760 0.950 . S
H1737 C1761 0.950 . S
H1738 C1762 0.951 . S
H1739 C1764 0.951 . S
H1740 C1766 0.950 . S
H1741 C1767 0.950 . S
H1742 C1769 0.950 . S
H1743 C1772 0.950 . S
H1744 C1773 0.950 . S
H1745 C1775 0.950 . S
H1746 C1776 0.950 . S
C1747 H1729 0.951 . S
C1747 C1748 1.366 . S
C1747 C1749 1.388 . S
C1748 C1747 1.366 . S
C1748 C1752 1.385 . S
C1749 H1730 0.951 . S
C1749 C1747 1.388 . S
C1749 C1750 1.366 . S
C1750 C1749 1.366 . S
C1750 C1751 1.414 . S
C1750 C1753 1.499 . S
C1751 H1731 0.950 . S
C1751 C1750 1.414 . S
C1751 C1752 1.374 . S
C1752 H1732 0.950 . S
C1752 C1748 1.385 . S
C1752 C1751 1.374 . S
C1753 C1750 1.499 . S
C1753 C1754 1.373 . S
C1753 C1755 1.389 . S
C1754 H1733 0.950 . S
C1754 C1753 1.373 . S
C1754 C1770 1.377 . S
C1755 C1753 1.389 . S
C1755 C1756 1.524 . S
C1755 C1769 1.377 . S
C1756 C1755 1.524 . S
C1756 C1757 1.397 . S
C1756 C1761 1.363 . S
C1757 H1734 0.950 . S
C1757 C1756 1.397 . S
C1757 C1758 1.334 . S
C1758 H1735 0.950 . S
C1758 C1757 1.334 . S
C1758 C1759 1.287 . S
C1759 C1758 1.287 . S
C1759 C1760 1.524 . S
C1759 H1778 0.913 . S
C1760 H1736 0.950 . S
C1760 C1759 1.524 . S
C1760 C1761 1.415 . S
C1761 H1737 0.950 . S
C1761 C1756 1.363 . S
C1761 C1760 1.415 . S
C1762 H1738 0.951 . S
C1762 C1763 1.366 . S
C1762 C1764 1.388 . S
C1763 C1762 1.366 . S
C1763 C1767 1.385 . S
C1764 H1739 0.951 . S
C1764 C1762 1.388 . S
C1764 C1765 1.366 . S
C1765 C1764 1.366 . S
C1765 C1766 1.414 . S
C1765 C1768 1.499 . S
C1766 H1740 0.950 . S
C1766 C1765 1.414 . S
C1766 C1767 1.374 . S
C1767 H1741 0.950 . S
C1767 C1763 1.385 . S
C1767 C1766 1.374 . S
C1768 C1765 1.499 . S
C1768 C1769 1.373 . S
C1768 C1770 1.389 . S
C1769 H1742 0.950 . S
C1769 C1755 1.377 . S
C1769 C1768 1.373 . S
C1770 C1754 1.377 . S
C1770 C1768 1.389 . S
C1770 C1771 1.524 . S
C1771 C1770 1.524 . S
C1771 C1772 1.397 . S
C1771 C1776 1.363 . S
C1772 H1743 0.950 . S
C1772 C1771 1.397 . S
C1772 C1773 1.334 . S
C1773 H1744 0.950 . S
C1773 C1772 1.334 . S
C1773 C1774 1.287 . S
C1774 C1773 1.287 . S
C1774 C1775 1.524 . S
C1774 H1777 0.999 . S
C1775 H1745 0.950 . S
C1775 C1774 1.524 . S
C1775 C1776 1.415 . S
C1776 H1746 0.950 . S
C1776 C1771 1.363 . S
C1776 C1775 1.415 . S
H1777 C1774 0.999 . S
H1778 C1759 0.913 . S
C613 C504 0.959 . S
C598 C31 0.987 . S
C663 C540 1.656 . S
C648 C61 1.746 . S
C713 C505 1.390 . S
C698 C121 1.381 . S
C763 C535 1.529 . S
C748 C181 1.581 . S
C813 C502 1.454 . S
C798 C260 1.459 . S
C848 C331 1.714 . S
C863 C538 1.714 . S
C898 C380 1.116 . S
C913 C507 1.039 . S
C963 C537 1.401 . S
C948 C440 1.435 . S
C1013 C541 1.401 . S
C998 C1 1.368 . S
C1063 C506 1.454 . S
C1048 C91 1.500 . S
C1113 C534 1.714 . S
C1098 C151 1.714 . S
C1163 C503 1.039 . S
C1148 C200 1.116 . S
C1213 C536 1.656 . S
C1198 C271 1.702 . S
C1248 C301 1.381 . S
C1263 C501 1.389 . S
C1298 C361 1.580 . S
C1313 C539 1.529 . S
C1363 C508 0.961 . S
C1348 C451 0.972 . S
C1413 C570 1.734 . S
C1398 C20 1.807 . S
C1448 C241 1.984 . S
C1463 C573 1.910 . S
C1513 C572 1.696 . S
C1498 C320 1.756 . S
C1548 C391 2.154 . S
C1563 C571 2.155 . S
C1613 C574 1.734 . S
C1598 C421 1.792 . S
C1648 C140 1.756 . S
C1663 C568 1.696 . S
C1713 C567 2.155 . S
C1698 C211 2.155 . S
C1748 C80 2.033 . S
C1763 C569 1.911 . S
