# Generated by pormake.
# Topology pto, (3,4)-cn, num edge types: 1
# Building blocks:
#     Node 0, Type 0, BuildingBlock: KAKCAD_clean_linker_0, # of connection points: 3
#     Node 1, Type 0, BuildingBlock: KAKCAD_clean_linker_0, # of connection points: 3
#     Node 2, Type 0, BuildingBlock: KAKCAD_clean_linker_0, # of connection points: 3
#     Node 3, Type 0, BuildingBlock: KAKCAD_clean_linker_0, # of connection points: 3
#     Node 4, Type 0, BuildingBlock: KAKCAD_clean_linker_0, # of connection points: 3
#     Node 5, Type 0, BuildingBlock: KAKCAD_clean_linker_0, # of connection points: 3
#     Node 6, Type 0, BuildingBlock: KAKCAD_clean_linker_0, # of connection points: 3
#     Node 7, Type 0, BuildingBlock: KAKCAD_clean_linker_0, # of connection points: 3
#     Node 8, Type 1, BuildingBlock: NAWXER_clean_sbu_0, # of connection points: 4
#     Node 9, Type 1, BuildingBlock: NAWXER_clean_sbu_0, # of connection points: 4
#     Node 10, Type 1, BuildingBlock: NAWXER_clean_sbu_0, # of connection points: 4
#     Node 11, Type 1, BuildingBlock: NAWXER_clean_sbu_0, # of connection points: 4
#     Node 12, Type 1, BuildingBlock: NAWXER_clean_sbu_0, # of connection points: 4
#     Node 13, Type 1, BuildingBlock: NAWXER_clean_sbu_0, # of connection points: 4
#     Edge 14, Type (0, 1), BuildingBlock: XUDNAN_clean_linker_2, # of connection points: 2
#     Edge 15, Type (0, 1), BuildingBlock: XUDNAN_clean_linker_2, # of connection points: 2
#     Edge 16, Type (0, 1), BuildingBlock: XUDNAN_clean_linker_2, # of connection points: 2
#     Edge 17, Type (0, 1), BuildingBlock: XUDNAN_clean_linker_2, # of connection points: 2
#     Edge 18, Type (0, 1), BuildingBlock: XUDNAN_clean_linker_2, # of connection points: 2
#     Edge 19, Type (0, 1), BuildingBlock: XUDNAN_clean_linker_2, # of connection points: 2
#     Edge 20, Type (0, 1), BuildingBlock: XUDNAN_clean_linker_2, # of connection points: 2
#     Edge 21, Type (0, 1), BuildingBlock: XUDNAN_clean_linker_2, # of connection points: 2
#     Edge 22, Type (0, 1), BuildingBlock: XUDNAN_clean_linker_2, # of connection points: 2
#     Edge 23, Type (0, 1), BuildingBlock: XUDNAN_clean_linker_2, # of connection points: 2
#     Edge 24, Type (0, 1), BuildingBlock: XUDNAN_clean_linker_2, # of connection points: 2
#     Edge 25, Type (0, 1), BuildingBlock: XUDNAN_clean_linker_2, # of connection points: 2
#     Edge 26, Type (0, 1), BuildingBlock: XUDNAN_clean_linker_2, # of connection points: 2
#     Edge 27, Type (0, 1), BuildingBlock: XUDNAN_clean_linker_2, # of connection points: 2
#     Edge 28, Type (0, 1), BuildingBlock: XUDNAN_clean_linker_2, # of connection points: 2
#     Edge 29, Type (0, 1), BuildingBlock: XUDNAN_clean_linker_2, # of connection points: 2
#     Edge 30, Type (0, 1), BuildingBlock: XUDNAN_clean_linker_2, # of connection points: 2
#     Edge 31, Type (0, 1), BuildingBlock: XUDNAN_clean_linker_2, # of connection points: 2
#     Edge 32, Type (0, 1), BuildingBlock: XUDNAN_clean_linker_2, # of connection points: 2
#     Edge 33, Type (0, 1), BuildingBlock: XUDNAN_clean_linker_2, # of connection points: 2
#     Edge 34, Type (0, 1), BuildingBlock: XUDNAN_clean_linker_2, # of connection points: 2
#     Edge 35, Type (0, 1), BuildingBlock: XUDNAN_clean_linker_2, # of connection points: 2
#     Edge 36, Type (0, 1), BuildingBlock: XUDNAN_clean_linker_2, # of connection points: 2
#     Edge 37, Type (0, 1), BuildingBlock: XUDNAN_clean_linker_2, # of connection points: 2
# Relax obj value: 0.000
# Max RMSD: 0.003
# Mean RMSD: 0.002
data_MOF--net-pto--node1-NAWXER_clean_sbu_0--node2-KAKCAD_clean_linker_0--edge1-XUDNAN_clean_linker_2
_symmetry_space_group_name_H-M    P1
_symmetry_Int_Tables_number       1
_symmetry_cell_setting            triclinic
loop_
_symmetry_equiv_pos_as_xyz
'x, y, z'
_cell_length_a     53.486933
_cell_length_b     50.413064
_cell_length_c     47.139108
_cell_angle_alpha  90.524012
_cell_angle_beta   90.725061
_cell_angle_gamma 90.27473
loop_
_atom_site_label
_atom_site_type_symbol
_atom_site_fract_x
_atom_site_fract_y
_atom_site_fract_z
_atom_type_partial_charge
C0 C 0.2835 0.19078 0.32956 0.0
C1 C 0.26013 0.17917 0.33505 0.0
C2 C 0.28527 0.21328 0.31268 0.0
C3 C 0.26369 0.22478 0.30089 0.0
C4 C 0.24022 0.21361 0.30695 0.0
C5 C 0.23845 0.19103 0.32389 0.0
C6 C 0.26584 0.24805 0.28192 0.0
C7 C 0.28452 0.24891 0.26138 0.0
C8 C 0.28725 0.27094 0.24358 0.0
C9 C 0.27017 0.29208 0.24591 0.0
C10 C 0.25103 0.29146 0.26632 0.0
C11 C 0.2494 0.26944 0.2844 0.0
C12 C 0.23284 0.31368 0.26963 0.0
C13 C 0.24023 0.34037 0.26666 0.0
C14 C 0.20801 0.30826 0.2775 0.0
C15 C 0.19152 0.3288 0.28376 0.0
C16 C 0.19915 0.35531 0.28159 0.0
C17 C 0.3081 0.27115 0.22281 0.0
C18 C 0.33165 0.2611 0.23077 0.0
C19 C 0.30442 0.27944 0.19463 0.0
C20 C 0.32348 0.27642 0.17463 0.0
C21 C 0.34644 0.2649 0.18241 0.0
C22 C 0.35047 0.25785 0.21083 0.0
C23 C 0.22344 0.361 0.27236 0.0
H24 H 0.30052 0.18248 0.33837 0.0
H25 H 0.30357 0.22173 0.30891 0.0
H26 H 0.22326 0.22192 0.298 0.0
H27 H 0.22019 0.18245 0.3276 0.0
H28 H 0.2968 0.23203 0.25894 0.0
H29 H 0.23564 0.26913 0.30106 0.0
H30 H 0.27187 0.30894 0.23199 0.0
H31 H 0.25917 0.34539 0.26085 0.0
H32 H 0.20128 0.28805 0.27916 0.0
H33 H 0.17271 0.32397 0.29034 0.0
H34 H 0.33542 0.25519 0.25244 0.0
H35 H 0.28652 0.28718 0.18776 0.0
H36 H 0.22964 0.38139 0.27045 0.0
H37 H 0.36816 0.24948 0.2176 0.0
H38 H 0.3199 0.28207 0.15284 0.0
C39 C 0.33102 0.75584 0.80799 0.0
C40 C 0.34376 0.73238 0.81498 0.0
C41 C 0.30958 0.75512 0.79084 0.0
C42 C 0.30001 0.73092 0.78035 0.0
C43 C 0.31203 0.70727 0.78818 0.0
C44 C 0.33375 0.708 0.80526 0.0
C45 C 0.27776 0.73086 0.76102 0.0
C46 C 0.27643 0.74932 0.73873 0.0
C47 C 0.25471 0.75164 0.7218 0.0
C48 C 0.2344 0.73484 0.72744 0.0
C49 C 0.23535 0.71599 0.74915 0.0
C50 C 0.25729 0.71379 0.7657 0.0
C51 C 0.21256 0.69984 0.7546 0.0
C52 C 0.18906 0.71212 0.75373 0.0
C53 C 0.21362 0.67218 0.75789 0.0
C54 C 0.19149 0.65707 0.75891 0.0
C55 C 0.16792 0.66937 0.75656 0.0
C56 C 0.25219 0.77239 0.69934 0.0
C57 C 0.26421 0.79719 0.70205 0.0
C58 C 0.2361 0.76823 0.67586 0.0
C59 C 0.23046 0.78874 0.65723 0.0
C60 C 0.24181 0.81391 0.66025 0.0
C61 C 0.25948 0.81743 0.68252 0.0
C62 C 0.16716 0.69716 0.75421 0.0
H63 H 0.33765 0.77493 0.81576 0.0
H64 H 0.30041 0.77364 0.78579 0.0
H65 H 0.30505 0.68831 0.78044 0.0
H66 H 0.34308 0.68955 0.81015 0.0
H67 H 0.29246 0.76187 0.73468 0.0
H68 H 0.25795 0.69984 0.78305 0.0
H69 H 0.21725 0.73674 0.71526 0.0
H70 H 0.18753 0.73345 0.75172 0.0
H71 H 0.23148 0.66216 0.75862 0.0
H72 H 0.1929 0.63579 0.76125 0.0
H73 H 0.27675 0.80145 0.71972 0.0
H74 H 0.22716 0.74921 0.67204 0.0
H75 H 0.14963 0.70756 0.75176 0.0
H76 H 0.26958 0.83588 0.68543 0.0
H77 H 0.2165 0.78462 0.64101 0.0
C78 C 0.68898 0.68969 0.19009 0.0
C79 C 0.68079 0.71039 0.17249 0.0
C80 C 0.70803 0.69393 0.2102 0.0
C81 C 0.71933 0.71902 0.21346 0.0
C82 C 0.71079 0.73995 0.19647 0.0
C83 C 0.69181 0.73566 0.17612 0.0
C84 C 0.74035 0.72293 0.2341 0.0
C85 C 0.75955 0.70401 0.23569 0.0
C86 C 0.77909 0.7066 0.25574 0.0
C87 C 0.77924 0.72838 0.27443 0.0
C88 C 0.76026 0.7475 0.27327 0.0
C89 C 0.74104 0.74493 0.25274 0.0
C90 C 0.76004 0.76916 0.29477 0.0
C91 C 0.76321 0.76311 0.32361 0.0
C92 C 0.7573 0.7958 0.28683 0.0
C93 C 0.75805 0.81604 0.30743 0.0
C94 C 0.76109 0.80987 0.3363 0.0
C95 C 0.79908 0.68628 0.25756 0.0
C96 C 0.79307 0.65917 0.25551 0.0
C97 C 0.82428 0.6938 0.2614 0.0
C98 C 0.84309 0.67463 0.26253 0.0
C99 C 0.83709 0.64755 0.25981 0.0
C100 C 0.81184 0.64004 0.25665 0.0
C101 C 0.76363 0.78321 0.34414 0.0
H102 H 0.68058 0.67015 0.18847 0.0
H103 H 0.71388 0.67751 0.22335 0.0
H104 H 0.71925 0.75946 0.19836 0.0
H105 H 0.68624 0.75203 0.16278 0.0
H106 H 0.75945 0.68737 0.22096 0.0
H107 H 0.72609 0.75935 0.25215 0.0
H108 H 0.79398 0.73027 0.29032 0.0
H109 H 0.7652 0.74273 0.33035 0.0
H110 H 0.75496 0.80097 0.2647 0.0
H111 H 0.75586 0.83645 0.30087 0.0
H112 H 0.77381 0.65271 0.25316 0.0
H113 H 0.82953 0.71455 0.26284 0.0
H114 H 0.76614 0.77789 0.3662 0.0
H115 H 0.80656 0.61931 0.255 0.0
H116 H 0.86237 0.68106 0.26464 0.0
C117 C 0.7984 0.17738 0.68832 0.0
C118 C 0.77844 0.1739 0.66901 0.0
C119 C 0.79556 0.19328 0.71252 0.0
C120 C 0.77258 0.20557 0.7181 0.0
C121 C 0.75221 0.20085 0.69966 0.0
C122 C 0.75517 0.18533 0.67519 0.0
C123 C 0.77078 0.22571 0.74105 0.0
C124 C 0.78773 0.24708 0.7415 0.0
C125 C 0.78578 0.26748 0.76171 0.0
C126 C 0.767 0.26589 0.78221 0.0
C127 C 0.75 0.24447 0.7825 0.0
C128 C 0.75177 0.2246 0.76142 0.0
C129 C 0.7303 0.24369 0.80465 0.0
C130 C 0.73607 0.2518 0.83262 0.0
C131 C 0.70536 0.23686 0.7978 0.0
C132 C 0.68647 0.23971 0.81803 0.0
C133 C 0.69219 0.24958 0.84534 0.0
C134 C 0.80284 0.29086 0.76098 0.0
C135 C 0.82857 0.28779 0.75601 0.0
C136 C 0.79343 0.31652 0.76538 0.0
C137 C 0.80942 0.33848 0.76573 0.0
C138 C 0.83524 0.33537 0.76167 0.0
C139 C 0.84461 0.30984 0.75632 0.0
C140 C 0.71726 0.25487 0.85261 0.0
H141 H 0.81654 0.16887 0.684 0.0
H142 H 0.81154 0.19666 0.72646 0.0
H143 H 0.73437 0.21028 0.7034 0.0
H144 H 0.73943 0.18276 0.66071 0.0
H145 H 0.80182 0.24836 0.72523 0.0
H146 H 0.73874 0.20806 0.76111 0.0
H147 H 0.76549 0.28162 0.79791 0.0
H148 H 0.75514 0.25653 0.83889 0.0
H149 H 0.70023 0.23061 0.77647 0.0
H150 H 0.66725 0.23558 0.81186 0.0
H151 H 0.83642 0.26826 0.75267 0.0
H152 H 0.77364 0.31967 0.76855 0.0
H153 H 0.72224 0.26214 0.87365 0.0
H154 H 0.86444 0.3068 0.75336 0.0
H155 H 0.80156 0.35796 0.76937 0.0
C156 C 0.77569 0.83911 0.68424 0.0
C157 C 0.77119 0.86531 0.69341 0.0
C158 C 0.77731 0.81837 0.70389 0.0
C159 C 0.77424 0.82343 0.73303 0.0
C160 C 0.77016 0.84969 0.74209 0.0
C161 C 0.76857 0.87027 0.72261 0.0
C162 C 0.77384 0.8016 0.75412 0.0
C163 C 0.79179 0.78128 0.75416 0.0
C164 C 0.79165 0.76156 0.77528 0.0
C165 C 0.77323 0.76258 0.79641 0.0
C166 C 0.75503 0.78263 0.79649 0.0
C167 C 0.75536 0.80167 0.77497 0.0
C168 C 0.73556 0.78406 0.81885 0.0
C169 C 0.72424 0.761 0.82943 0.0
C170 C 0.7275 0.80885 0.82911 0.0
C171 C 0.70808 0.81062 0.8485 0.0
C172 C 0.69641 0.78764 0.85878 0.0
C173 C 0.81035 0.73961 0.77512 0.0
C174 C 0.81712 0.72726 0.74951 0.0
C175 C 0.82076 0.73002 0.80063 0.0
C176 C 0.83676 0.70807 0.80059 0.0
C177 C 0.84274 0.69513 0.77504 0.0
C178 C 0.8331 0.70537 0.74947 0.0
C179 C 0.705 0.76276 0.84925 0.0
H180 H 0.77806 0.83464 0.66193 0.0
H181 H 0.78035 0.79834 0.69624 0.0
H182 H 0.76798 0.85434 0.76441 0.0
H183 H 0.76479 0.89008 0.73048 0.0
H184 H 0.80622 0.78124 0.73824 0.0
H185 H 0.74087 0.8166 0.77416 0.0
H186 H 0.77298 0.74764 0.81276 0.0
H187 H 0.7298 0.74157 0.82195 0.0
H188 H 0.73608 0.82707 0.82197 0.0
H189 H 0.70189 0.83017 0.85489 0.0
H190 H 0.80943 0.73396 0.72947 0.0
H191 H 0.81634 0.73931 0.82075 0.0
H192 H 0.69685 0.74456 0.85702 0.0
H193 H 0.83765 0.69623 0.72932 0.0
H194 H 0.84376 0.70072 0.82068 0.0
C195 C 0.67663 0.30051 0.20556 0.0
C196 C 0.68036 0.31349 0.17973 0.0
C197 C 0.69703 0.29248 0.22217 0.0
C198 C 0.7217 0.2968 0.2131 0.0
C199 C 0.72534 0.31032 0.18744 0.0
C200 C 0.7049 0.31872 0.17106 0.0
C201 C 0.74345 0.28631 0.22969 0.0
C202 C 0.74154 0.26185 0.24365 0.0
C203 C 0.76187 0.25137 0.2589 0.0
C204 C 0.78476 0.26523 0.25919 0.0
C205 C 0.78725 0.29 0.24572 0.0
C206 C 0.76623 0.3004 0.23133 0.0
C207 C 0.81145 0.30527 0.24737 0.0
C208 C 0.82764 0.30276 0.27096 0.0
C209 C 0.81855 0.32278 0.22568 0.0
C210 C 0.84055 0.33795 0.22806 0.0
C211 C 0.85652 0.33561 0.25188 0.0
C212 C 0.75897 0.22611 0.27484 0.0
C213 C 0.73721 0.22118 0.2905 0.0
C214 C 0.7779 0.20687 0.27479 0.0
C215 C 0.77512 0.1833 0.28991 0.0
C216 C 0.75333 0.17831 0.30548 0.0
C217 C 0.73444 0.19761 0.30564 0.0
C218 C 0.84995 0.31722 0.27287 0.0
H219 H 0.65788 0.29651 0.2129 0.0
H220 H 0.69339 0.28276 0.24209 0.0
H221 H 0.74397 0.31371 0.17948 0.0
H222 H 0.7083 0.32847 0.15107 0.0
H223 H 0.72433 0.2505 0.24215 0.0
H224 H 0.76732 0.31985 0.2219 0.0
H225 H 0.80056 0.25668 0.27027 0.0
H226 H 0.82304 0.29001 0.28848 0.0
H227 H 0.80711 0.32497 0.20676 0.0
H228 H 0.84465 0.35189 0.21142 0.0
H229 H 0.72238 0.2357 0.2913 0.0
H230 H 0.79481 0.20988 0.26282 0.0
H231 H 0.86191 0.31396 0.29117 0.0
H232 H 0.71734 0.19438 0.3172 0.0
H233 H 0.79022 0.16907 0.2896 0.0
C234 C 0.3172 0.29811 0.84379 0.0
C235 C 0.34018 0.29776 0.82962 0.0
C236 C 0.29463 0.29594 0.82849 0.0
C237 C 0.29462 0.29344 0.79874 0.0
C238 C 0.31759 0.29437 0.78459 0.0
C239 C 0.34006 0.29648 0.79983 0.0
C240 C 0.27098 0.28864 0.78244 0.0
C241 C 0.24911 0.30262 0.78876 0.0
C242 C 0.22693 0.29831 0.77296 0.0
C243 C 0.2267 0.2794 0.75067 0.0
C244 C 0.24848 0.26503 0.74425 0.0
C245 C 0.27037 0.26982 0.76032 0.0
C246 C 0.24906 0.24464 0.72119 0.0
C247 C 0.2314 0.22389 0.71976 0.0
C248 C 0.26923 0.2442 0.70237 0.0
C249 C 0.27264 0.22275 0.6839 0.0
C250 C 0.25601 0.20107 0.68374 0.0
C251 C 0.20449 0.31446 0.77955 0.0
C252 C 0.19656 0.31729 0.80771 0.0
C253 C 0.19221 0.3289 0.75825 0.0
C254 C 0.17307 0.34666 0.76516 0.0
C255 C 0.16554 0.35014 0.79352 0.0
C256 C 0.17723 0.33471 0.81457 0.0
C257 C 0.23485 0.20227 0.70118 0.0
H258 H 0.3167 0.29889 0.86674 0.0
H259 H 0.27727 0.29517 0.84004 0.0
H260 H 0.31822 0.29313 0.76165 0.0
H261 H 0.35743 0.29669 0.78826 0.0
H262 H 0.24953 0.31755 0.80547 0.0
H263 H 0.28698 0.25831 0.75595 0.0
H264 H 0.20972 0.27597 0.73836 0.0
H265 H 0.21573 0.22364 0.73409 0.0
H266 H 0.28293 0.26011 0.70264 0.0
H267 H 0.28878 0.22281 0.67025 0.0
H268 H 0.20555 0.3062 0.82453 0.0
H269 H 0.19813 0.32734 0.73641 0.0
H270 H 0.22169 0.18589 0.70157 0.0
H271 H 0.17161 0.3362 0.83651 0.0
H272 H 0.16486 0.35834 0.74832 0.0
C273 C 0.27151 0.8394 0.31226 0.0
C274 C 0.26386 0.83325 0.33977 0.0
C275 C 0.26766 0.8214 0.28993 0.0
C276 C 0.25656 0.79644 0.2946 0.0
C277 C 0.2479 0.79076 0.322 0.0
C278 C 0.25138 0.80909 0.34435 0.0
C279 C 0.25591 0.7761 0.27129 0.0
C280 C 0.27646 0.77414 0.253 0.0
C281 C 0.27663 0.75582 0.23044 0.0
C282 C 0.25592 0.73898 0.22645 0.0
C283 C 0.23571 0.73927 0.24526 0.0
C284 C 0.23564 0.75827 0.26748 0.0
C285 C 0.21533 0.71909 0.24145 0.0
C286 C 0.18997 0.72555 0.24503 0.0
C287 C 0.22131 0.69308 0.2328 0.0
C288 C 0.20259 0.67452 0.22647 0.0
C289 C 0.17729 0.68119 0.22909 0.0
C290 C 0.29883 0.75349 0.21173 0.0
C291 C 0.31272 0.77602 0.20397 0.0
C292 C 0.30659 0.72847 0.2019 0.0
C293 C 0.32762 0.726 0.18489 0.0
C294 C 0.34185 0.74841 0.17759 0.0
C295 C 0.33403 0.7735 0.18721 0.0
C296 C 0.17113 0.70671 0.23903 0.0
H297 H 0.2808 0.85808 0.30808 0.0
H298 H 0.27391 0.8269 0.26902 0.0
H299 H 0.23938 0.77175 0.32648 0.0
H300 H 0.2453 0.80394 0.36544 0.0
H301 H 0.29282 0.78646 0.25687 0.0
H302 H 0.22001 0.75902 0.28183 0.0
H303 H 0.25551 0.72548 0.20844 0.0
H304 H 0.18464 0.74535 0.25157 0.0
H305 H 0.2406 0.68703 0.23066 0.0
H306 H 0.20794 0.65482 0.21953 0.0
H307 H 0.30715 0.79566 0.2108 0.0
H308 H 0.29667 0.71059 0.2077 0.0
H309 H 0.15173 0.71233 0.24134 0.0
H310 H 0.34458 0.7912 0.18224 0.0
H311 H 0.33267 0.70639 0.17744 0.0
C312 C 0.99856 0.46117 0.24628 0.0
C313 C 0.05232 0.53852 0.22588 0.0
O314 O 1.00458 0.47588 0.26762 0.0
Zn315 Zn 0.02542 0.51068 0.27839 0.0
O316 O 1.00694 0.46682 0.22185 0.0
Zn317 Zn 0.02585 0.49886 0.2339 0.0
O318 O 0.05515 0.48292 0.25935 0.0
O319 O 0.05113 0.49643 0.30374 0.0
O320 O 0.04453 0.52136 0.20777 0.0
O321 O 0.04625 0.53618 0.25192 0.0
O322 O 0.99878 0.53417 0.29166 0.0
O323 O 0.99572 0.52352 0.24617 0.0
C324 C 0.06297 0.4832 0.28514 0.0
C325 C 0.98704 0.53541 0.26802 0.0
C326 C 0.96485 0.47493 0.76161 0.0
C327 C 0.02802 0.54438 0.74725 0.0
O328 O 0.97221 0.48734 0.78406 0.0
Zn329 Zn 0.99801 0.51722 0.79759 0.0
O330 O 0.9751 0.47983 0.73793 0.0
Zn331 Zn 0.99767 0.50784 0.75232 0.0
O332 O 0.02359 0.48558 0.77653 0.0
O333 O 0.0221 0.49792 0.82143 0.0
O334 O 0.01966 0.5289 0.72782 0.0
O335 O 0.02105 0.54145 0.77285 0.0
O336 O 0.97492 0.54416 0.8123 0.0
O337 O 0.97087 0.53661 0.76615 0.0
C338 C 0.03143 0.4833 0.80214 0.0
C339 C 0.96388 0.54873 0.78872 0.0
C340 C 0.22373 0.97635 0.55138 0.0
C341 C 0.2418 0.04038 0.47737 0.0
O342 O 0.2079 0.98889 0.53633 0.0
Zn343 Zn 0.23177 0.01049 0.51611 0.0
O344 O 0.2471 0.98137 0.54914 0.0
Zn345 Zn 0.2707 1.00615 0.52445 0.0
O346 O 0.28672 0.02959 0.55184 0.0
O347 O 0.24648 0.03789 0.54755 0.0
O348 O 0.26134 0.0314 0.48991 0.0
O349 O 0.22022 0.03409 0.48617 0.0
O350 O 0.25039 0.97973 0.49196 0.0
O351 O 0.29028 0.97969 0.50464 0.0
C352 C 0.26784 0.04317 0.55902 0.0
C353 C 0.27243 0.97005 0.48961 0.0
C354 C 0.54418 0.71415 0.03032 0.0
C355 C 0.48163 0.72938 0.95515 0.0
O356 O 0.53517 0.69701 0.01295 0.0
Zn357 Zn 0.51225 0.72065 0.99342 0.0
O358 O 0.5363 0.73813 0.02945 0.0
Zn359 Zn 0.51033 0.76149 1.00498 0.0
O360 O 0.48622 0.77305 0.03291 0.0
O361 O 0.48654 0.72964 0.0265 0.0
O362 O 0.48774 0.75051 0.96893 0.0
O363 O 0.49074 0.70724 0.96261 0.0
O364 O 0.53858 0.74645 0.97274 0.0
O365 O 0.53299 0.78714 0.98924 0.0
C366 C 0.47825 0.75017 0.03949 0.0
C367 C 0.54477 0.77109 0.97335 0.0
C368 C 0.74931 0.98874 0.53574 0.0
C369 C 0.74483 0.03759 0.44619 0.0
O370 O 0.72946 0.99794 0.52444 0.0
Zn371 Zn 0.74538 0.01289 0.49105 0.0
O372 O 0.77036 0.99154 0.52345 0.0
Zn373 Zn 0.78527 0.00829 0.48572 0.0
O374 O 0.80794 0.03492 0.50222 0.0
O375 O 0.76795 0.04337 0.50955 0.0
O376 O 0.76677 0.0294 0.45269 0.0
O377 O 0.72659 0.03274 0.46245 0.0
O378 O 0.75645 0.97762 0.46955 0.0
O379 O 0.79758 0.97723 0.46533 0.0
C380 C 0.79103 0.04965 0.51261 0.0
C381 C 0.77639 0.96623 0.46106 0.0
C382 C 0.53924 0.31445 0.04544 0.0
C383 C 0.48047 0.30114 0.96606 0.0
O384 O 0.53641 0.29003 0.03817 0.0
Zn385 Zn 0.51545 0.26682 0.00763 0.0
O386 O 0.52674 0.33221 0.0326 0.0
Zn387 Zn 0.50897 0.30862 0.00645 0.0
O388 O 0.48447 0.2873 0.03373 0.0
O389 O 0.4944 0.24497 0.03144 0.0
O390 O 0.48572 0.32299 0.97849 0.0
O391 O 0.49035 0.27959 0.97492 0.0
O392 O 0.54204 0.25089 0.98526 0.0
O393 O 0.53947 0.2944 0.98115 0.0
C394 C 0.4807 0.2633 0.04139 0.0
C395 C 0.5502 0.27243 0.97487 0.0
H396 H 0.18 0.39369 0.24717 0.0
H397 H 0.17801 0.36401 0.33302 0.0
H398 H 0.14574 0.3972 0.3452 0.0
H399 H 0.16777 0.46438 0.26386 0.0
H400 H 0.14799 0.46835 0.23297 0.0
H401 H 0.17332 0.4449 0.23232 0.0
H402 H 0.14217 0.40743 0.21795 0.0
H403 H 0.11682 0.43072 0.21859 0.0
H404 H 0.11539 0.40121 0.23982 0.0
H405 H 0.11159 0.43195 0.34695 0.0
H406 H 0.07655 0.46271 0.33706 0.0
H407 H 0.09973 0.46762 0.24941 0.0
C408 C 0.17317 0.39472 0.26868 0.0
C409 C 0.18164 0.37672 0.28934 0.0
C410 C 0.17181 0.37793 0.31706 0.0
C411 C 0.15359 0.39672 0.32415 0.0
C412 C 0.14526 0.41401 0.30317 0.0
C413 C 0.15467 0.41307 0.27595 0.0
C414 C 0.14088 0.43196 0.25658 0.0
C415 C 0.15855 0.45369 0.2458 0.0
C416 C 0.12805 0.41692 0.23179 0.0
C417 C 0.12194 0.44325 0.27695 0.0
C418 C 0.12501 0.4331 0.30387 0.0
C419 C 0.10912 0.44016 0.32597 0.0
C420 C 0.08932 0.45767 0.32022 0.0
C421 C 0.08539 0.46747 0.29249 0.0
C422 C 0.10222 0.46041 0.27083 0.0
H423 H 0.15893 0.61872 0.73434 0.0
H424 H 0.12248 0.68406 0.77802 0.0
H425 H 0.08217 0.66133 0.77249 0.0
H426 H 0.10857 0.60083 0.68562 0.0
H427 H 0.11274 0.56558 0.68942 0.0
H428 H 0.13906 0.58775 0.69401 0.0
H429 H 0.14781 0.56889 0.74409 0.0
H430 H 0.12188 0.54632 0.73937 0.0
H431 H 0.12303 0.56838 0.76967 0.0
H432 H 0.04601 0.63243 0.76331 0.0
H433 H 0.01676 0.5947 0.75926 0.0
H434 H 0.07565 0.54549 0.72517 0.0
C435 C 0.14256 0.62824 0.74293 0.0
C436 C 0.14404 0.65379 0.75579 0.0
C437 C 0.12197 0.66517 0.76694 0.0
C438 C 0.09885 0.65234 0.76402 0.0
C439 C 0.09797 0.62775 0.75047 0.0
C440 C 0.11923 0.61539 0.74079 0.0
C441 C 0.11312 0.58769 0.72959 0.0
C442 C 0.11871 0.58534 0.69777 0.0
C443 C 0.12729 0.56657 0.7467 0.0
C444 C 0.08516 0.58644 0.73485 0.0
C445 C 0.07688 0.61013 0.74631 0.0
C446 C 0.05217 0.61383 0.75421 0.0
C447 C 0.03567 0.59238 0.75164 0.0
C448 C 0.04389 0.56751 0.7414 0.0
C449 C 0.06878 0.56461 0.73216 0.0
H450 H 0.87998 0.64408 0.293 0.0
H451 H 0.83965 0.60537 0.22346 0.0
H452 H 0.87274 0.57182 0.22019 0.0
H453 H 0.94125 0.63472 0.26492 0.0
H454 H 0.95603 0.62851 0.29878 0.0
H455 H 0.92864 0.64908 0.29682 0.0
H456 H 0.9064 0.61877 0.3328 0.0
H457 H 0.93373 0.59807 0.33485 0.0
H458 H 0.90378 0.58369 0.32553 0.0
H459 H 0.91022 0.54406 0.22239 0.0
H460 H 0.95066 0.5224 0.23025 0.0
H461 H 0.96791 0.57783 0.29892 0.0
C462 C 0.87814 0.6285 0.27713 0.0
C463 C 0.85707 0.62721 0.25864 0.0
C464 C 0.85532 0.60649 0.23821 0.0
C465 C 0.87409 0.58741 0.23608 0.0
C466 C 0.89452 0.58922 0.25457 0.0
C467 C 0.89675 0.60912 0.27476 0.0
C468 C 0.92106 0.60655 0.29155 0.0
C469 C 0.93773 0.63118 0.28778 0.0
C470 C 0.91592 0.60146 0.32305 0.0
C471 C 0.93222 0.58229 0.27731 0.0
C472 C 0.91645 0.57275 0.25606 0.0
C473 C 0.9227 0.55121 0.23905 0.0
C474 C 0.9458 0.53913 0.24365 0.0
C475 C 0.96246 0.54845 0.26518 0.0
C476 C 0.95544 0.57015 0.2825 0.0
H477 H 0.87533 0.3494 0.72819 0.0
H478 H 0.83402 0.37348 0.80279 0.0
H479 H 0.86192 0.41205 0.80917 0.0
H480 H 0.93632 0.36766 0.75531 0.0
H481 H 0.94763 0.37972 0.72193 0.0
H482 H 0.92407 0.35408 0.72244 0.0
H483 H 0.89505 0.38278 0.69097 0.0
H484 H 0.91851 0.40855 0.69041 0.0
H485 H 0.88741 0.41598 0.70233 0.0
H486 H 0.89418 0.44663 0.80893 0.0
H487 H 0.92962 0.47675 0.80201 0.0
H488 H 0.9511 0.43199 0.72703 0.0
C489 C 0.87222 0.36281 0.74586 0.0
C490 C 0.85232 0.35856 0.76487 0.0
C491 C 0.84881 0.37658 0.78768 0.0
C492 C 0.86464 0.39848 0.79157 0.0
C493 C 0.88392 0.40219 0.77245 0.0
C494 C 0.88785 0.38501 0.75 0.0
C495 C 0.91026 0.3938 0.73282 0.0
C496 C 0.93078 0.37255 0.73316 0.0
C497 C 0.90232 0.40069 0.70232 0.0
C498 C 0.91835 0.41844 0.74938 0.0
C499 C 0.90277 0.42272 0.77214 0.0
C500 C 0.90649 0.44359 0.79116 0.0
C501 C 0.92679 0.46053 0.78705 0.0
C502 C 0.94322 0.45671 0.76401 0.0
C503 C 0.93877 0.4355 0.7447 0.0
H504 H 0.22671 0.16634 0.37701 0.0
H505 H 0.29035 0.13594 0.33079 0.0
H506 H 0.29016 0.09582 0.36015 0.0
H507 H 0.24559 0.14433 0.44442 0.0
H508 H 0.21479 0.13524 0.45612 0.0
H509 H 0.21846 0.16084 0.43012 0.0
H510 H 0.18874 0.13531 0.39558 0.0
H511 H 0.18493 0.10961 0.42154 0.0
H512 H 0.19544 0.10131 0.3864 0.0
H513 H 0.28594 0.06143 0.39654 0.0
H514 H 0.27704 0.03335 0.43772 0.0
H515 H 0.21475 0.08398 0.45987 0.0
C516 C 0.24028 0.15099 0.37274 0.0
C517 C 0.25868 0.15437 0.35172 0.0
C518 C 0.27636 0.13401 0.34706 0.0
C519 C 0.27627 0.11103 0.36346 0.0
C520 C 0.25823 0.10853 0.38428 0.0
C521 C 0.24041 0.12778 0.38891 0.0
C522 C 0.22386 0.12049 0.41363 0.0
C523 C 0.22581 0.14147 0.43748 0.0
C524 C 0.19662 0.11644 0.40369 0.0
C525 C 0.2356 0.09447 0.42254 0.0
C526 C 0.25534 0.08801 0.40515 0.0
C527 C 0.27031 0.06601 0.41006 0.0
C528 C 0.26517 0.05028 0.43355 0.0
C529 C 0.24513 0.05645 0.45174 0.0
C530 C 0.22987 0.07859 0.44592 0.0
H531 H 0.36098 0.69886 0.85738 0.0
H532 H 0.38111 0.76921 0.81009 0.0
H533 H 0.4192 0.77437 0.83934 0.0
H534 H 0.38186 0.72151 0.92476 0.0
H535 H 0.39434 0.69017 0.93617 0.0
H536 H 0.36899 0.69092 0.91071 0.0
H537 H 0.39497 0.66288 0.87557 0.0
H538 H 0.42041 0.66197 0.90099 0.0
H539 H 0.42567 0.67418 0.86573 0.0
H540 H 0.45282 0.7747 0.87589 0.0
H541 H 0.48197 0.76833 0.91621 0.0
H542 H 0.4429 0.696 0.93845 0.0
C543 C 0.37361 0.71507 0.85285 0.0
C544 C 0.36771 0.73385 0.8316 0.0
C545 C 0.38475 0.75491 0.82662 0.0
C546 C 0.40661 0.75791 0.84298 0.0
C547 C 0.41156 0.73947 0.86407 0.0
C548 C 0.39579 0.71826 0.86889 0.0
C549 C 0.40549 0.70167 0.89343 0.0
C550 C 0.38654 0.70104 0.9177 0.0
C551 C 0.41202 0.6735 0.88332 0.0
C552 C 0.42885 0.71724 0.90191 0.0
C553 C 0.43187 0.739 0.88463 0.0
C554 C 0.45094 0.75749 0.88927 0.0
C555 C 0.46734 0.75376 0.91226 0.0
C556 C 0.46484 0.73154 0.93014 0.0
C557 C 0.44552 0.71285 0.92468 0.0
H558 H 0.78778 0.8568 0.33787 0.0
H559 H 0.73416 0.81023 0.38485 0.0
H560 H 0.73436 0.84418 0.42286 0.0
H561 H 0.82369 0.87998 0.39923 0.0
H562 H 0.82917 0.91258 0.38512 0.0
H563 H 0.82511 0.88461 0.3614 0.0
H564 H 0.78891 0.90876 0.33549 0.0
H565 H 0.79299 0.93686 0.35898 0.0
H566 H 0.76286 0.92089 0.35566 0.0
H567 H 0.73858 0.88345 0.45442 0.0
H568 H 0.74693 0.92629 0.47847 0.0
H569 H 0.79945 0.94733 0.41295 0.0
C570 C 0.77603 0.85389 0.35614 0.0
C571 C 0.76097 0.83089 0.35851 0.0
C572 C 0.74599 0.82759 0.38279 0.0
C573 C 0.74596 0.84676 0.40444 0.0
C574 C 0.76117 0.86904 0.40163 0.0
C575 C 0.77599 0.87276 0.3782 0.0
C576 C 0.79047 0.89868 0.3806 0.0
C577 C 0.81879 0.89365 0.38165 0.0
C578 C 0.78338 0.9174 0.35624 0.0
C579 C 0.78119 0.90906 0.40888 0.0
C580 C 0.76426 0.89157 0.42052 0.0
C581 C 0.752 0.89718 0.44571 0.0
C582 C 0.75684 0.92152 0.45919 0.0
C583 C 0.77402 0.93982 0.44768 0.0
C584 C 0.78666 0.93336 0.42244 0.0
H585 H 0.65263 0.21909 0.86442 0.0
H586 H 0.68659 0.29725 0.87128 0.0
H587 H 0.65403 0.31105 0.9048 0.0
H588 H 0.5881 0.24034 0.8686 0.0
H589 H 0.57827 0.21284 0.89002 0.0
H590 H 0.60394 0.20895 0.86596 0.0
H591 H 0.63234 0.19358 0.90751 0.0
H592 H 0.60677 0.19746 0.93169 0.0
H593 H 0.63597 0.21448 0.93854 0.0
H594 H 0.61793 0.31705 0.93628 0.0
H595 H 0.58081 0.31452 0.96638 0.0
H596 H 0.57021 0.23189 0.94205 0.0
C597 C 0.65306 0.2391 0.87297 0.0
C598 C 0.67215 0.25713 0.86535 0.0
C599 C 0.67227 0.2831 0.87706 0.0
C600 C 0.65382 0.29114 0.89602 0.0
C601 C 0.63539 0.27294 0.9033 0.0
C602 C 0.63486 0.2474 0.89238 0.0
C603 C 0.61315 0.23176 0.9045 0.0
C604 C 0.59478 0.22296 0.88086 0.0
C605 C 0.62263 0.20791 0.92157 0.0
C606 C 0.60158 0.25258 0.92377 0.0
C607 C 0.61471 0.2762 0.92245 0.0
C608 C 0.60754 0.29864 0.93761 0.0
C609 C 0.58635 0.297 0.9546 0.0
C610 C 0.5726 0.27301 0.95665 0.0
C611 C 0.58045 0.25043 0.94109 0.0
H612 H 0.24724 0.86862 0.66915 0.0
H613 H 0.22083 0.81113 0.6058 0.0
H614 H 0.20631 0.84741 0.57608 0.0
H615 H 0.20213 0.92041 0.65786 0.0
H616 H 0.22505 0.94669 0.66027 0.0
H617 H 0.22987 0.91636 0.67947 0.0
H618 H 0.2727 0.90981 0.65529 0.0
H619 H 0.26822 0.94038 0.63655 0.0
H620 H 0.27429 0.91018 0.61711 0.0
H621 H 0.19474 0.88996 0.55229 0.0
H622 H 0.19643 0.93477 0.53145 0.0
H623 H 0.23687 0.96383 0.60572 0.0
C624 C 0.23863 0.8632 0.64906 0.0
C625 C 0.23462 0.83631 0.64088 0.0
C626 C 0.22316 0.83109 0.61395 0.0
C627 C 0.2149 0.85173 0.59652 0.0
C628 C 0.21882 0.87773 0.60562 0.0
C629 C 0.23117 0.88352 0.6308 0.0
C630 C 0.23626 0.91304 0.63377 0.0
C631 C 0.2225 0.92481 0.65937 0.0
C632 C 0.26454 0.91867 0.63578 0.0
C633 C 0.22511 0.92283 0.6061 0.0
C634 C 0.21433 0.90224 0.59065 0.0
C635 C 0.20307 0.90626 0.5642 0.0
C636 C 0.20386 0.9318 0.55266 0.0
C637 C 0.21644 0.95265 0.56724 0.0
C638 C 0.22673 0.94824 0.59449 0.0
H639 H 0.64276 0.74367 0.15525 0.0
H640 H 0.67439 0.66592 0.13886 0.0
H641 H 0.64183 0.65743 0.10237 0.0
H642 H 0.57808 0.72548 0.14517 0.0
H643 H 0.56994 0.75597 0.12773 0.0
H644 H 0.59516 0.75555 0.15341 0.0
H645 H 0.62527 0.77504 0.11623 0.0
H646 H 0.60012 0.77565 0.09051 0.0
H647 H 0.62864 0.75838 0.0825 0.0
H648 H 0.60586 0.65765 0.0668 0.0
H649 H 0.57058 0.66749 0.0341 0.0
H650 H 0.56368 0.74551 0.07291 0.0
C651 C 0.64301 0.7249 0.14391 0.0
C652 C 0.66115 0.70542 0.15024 0.0
C653 C 0.66047 0.68102 0.13495 0.0
C654 C 0.64211 0.67603 0.11401 0.0
C655 C 0.62452 0.69565 0.10841 0.0
C656 C 0.62491 0.71964 0.12284 0.0
C657 C 0.60431 0.73769 0.1123 0.0
C658 C 0.58577 0.74404 0.13607 0.0
C659 C 0.61524 0.7632 0.09963 0.0
C660 C 0.59239 0.72018 0.08957 0.0
C661 C 0.60417 0.69593 0.08773 0.0
C662 C 0.59648 0.67658 0.06807 0.0
C663 C 0.57639 0.68232 0.04963 0.0
C664 C 0.56433 0.70725 0.05087 0.0
C665 C 0.57244 0.72624 0.07133 0.0
H666 H 0.79908 0.12474 0.65975 0.0
H667 H 0.76651 0.192 0.61639 0.0
H668 H 0.77285 0.16957 0.57025 0.0
H669 H 0.8456 0.10726 0.60549 0.0
H670 H 0.84114 0.07209 0.60996 0.0
H671 H 0.83663 0.09447 0.63949 0.0
H672 H 0.79174 0.07607 0.64607 0.0
H673 H 0.79629 0.05344 0.61689 0.0
H674 H 0.77018 0.0759 0.61636 0.0
H675 H 0.77917 0.13882 0.52958 0.0
H676 H 0.78154 0.09998 0.49736 0.0
H677 H 0.81017 0.0523 0.56628 0.0
C678 C 0.79365 0.13483 0.64046 0.0
C679 C 0.78237 0.1601 0.64153 0.0
C680 C 0.77503 0.17255 0.61597 0.0
C681 C 0.77881 0.16009 0.58969 0.0
C682 C 0.78993 0.13516 0.58931 0.0
C683 C 0.79704 0.12251 0.614 0.0
C684 C 0.80637 0.09471 0.60778 0.0
C685 C 0.83409 0.09198 0.61618 0.0
C686 C 0.79018 0.07381 0.62265 0.0
C687 C 0.80282 0.0935 0.57581 0.0
C688 C 0.79372 0.11726 0.56557 0.0
C689 C 0.78684 0.12033 0.53718 0.0
C690 C 0.78841 0.09829 0.51899 0.0
C691 C 0.79694 0.07364 0.52922 0.0
C692 C 0.80477 0.07135 0.55777 0.0
H693 H 0.36573 0.29819 0.14199 0.0
H694 H 0.37131 0.21835 0.17488 0.0
H695 H 0.40505 0.20852 0.14112 0.0
H696 H 0.37835 0.28149 0.06787 0.0
H697 H 0.3966 0.31108 0.06222 0.0
H698 H 0.37184 0.31131 0.08778 0.0
H699 H 0.40318 0.32729 0.12675 0.0
H700 H 0.42802 0.32705 0.10134 0.0
H701 H 0.43106 0.30831 0.13357 0.0
H702 H 0.439 0.20766 0.10451 0.0
H703 H 0.47149 0.21644 0.06886 0.0
H704 H 0.44455 0.29715 0.06068 0.0
C705 C 0.37385 0.27855 0.14177 0.0
C706 C 0.36591 0.25901 0.16103 0.0
C707 C 0.37725 0.23366 0.16043 0.0
C708 C 0.39634 0.22785 0.14125 0.0
C709 C 0.40399 0.24762 0.12279 0.0
C710 C 0.39315 0.27249 0.12291 0.0
C711 C 0.40565 0.29054 0.10175 0.0
C712 C 0.387 0.2991 0.07853 0.0
C713 C 0.41769 0.31472 0.11676 0.0
C714 C 0.42529 0.27203 0.08993 0.0
C715 C 0.42388 0.24728 0.10214 0.0
C716 C 0.44024 0.22696 0.09475 0.0
C717 C 0.45864 0.23211 0.07447 0.0
C718 C 0.46066 0.25747 0.06198 0.0
C719 C 0.44359 0.27755 0.06983 0.0
H720 H 0.88484 0.68288 0.80745 0.0
H721 H 0.83441 0.65062 0.74278 0.0
H722 H 0.85886 0.60945 0.74155 0.0
H723 H 0.94099 0.65537 0.77955 0.0
H724 H 0.9548 0.648 0.81364 0.0
H725 H 0.933 0.67495 0.81029 0.0
H726 H 0.90552 0.65419 0.84919 0.0
H727 H 0.92723 0.62712 0.85261 0.0
H728 H 0.89467 0.62044 0.84505 0.0
H729 H 0.88907 0.5728 0.74538 0.0
H730 H 0.92395 0.54216 0.75392 0.0
H731 H 0.95502 0.59616 0.8175 0.0
C732 C 0.8788 0.66705 0.79324 0.0
C733 C 0.85774 0.67021 0.77499 0.0
C734 C 0.85069 0.64903 0.75654 0.0
C735 C 0.86434 0.62541 0.75587 0.0
C736 C 0.885 0.62303 0.77391 0.0
C737 C 0.89227 0.64317 0.79231 0.0
C738 C 0.9157 0.63545 0.80888 0.0
C739 C 0.93741 0.65458 0.80271 0.0
C740 C 0.91046 0.63423 0.84083 0.0
C741 C 0.92053 0.60797 0.79664 0.0
C742 C 0.90245 0.60133 0.77654 0.0
C743 C 0.90322 0.57765 0.76123 0.0
C744 C 0.92316 0.5604 0.7662 0.0
C745 C 0.94211 0.56669 0.78647 0.0
C746 C 0.94057 0.59065 0.80224 0.0
H747 H 0.88728 0.35774 0.21053 0.0
H748 H 0.87731 0.35418 0.30195 0.0
H749 H 0.91482 0.38134 0.30911 0.0
H750 H 0.95527 0.35915 0.21013 0.0
H751 H 0.95715 0.38349 0.18245 0.0
H752 H 0.93072 0.36122 0.18369 0.0
H753 H 0.90056 0.40124 0.18442 0.0
H754 H 0.92686 0.42359 0.18294 0.0
H755 H 0.90465 0.4267 0.2112 0.0
H756 H 0.95241 0.40911 0.30743 0.0
H757 H 0.98565 0.44097 0.29707 0.0
H758 H 0.97053 0.43152 0.20671 0.0
C759 C 0.89284 0.36262 0.2321 0.0
C760 C 0.87934 0.35282 0.25565 0.0
C761 C 0.88758 0.36012 0.28342 0.0
C762 C 0.90889 0.37586 0.28781 0.0
C763 C 0.92174 0.38481 0.26428 0.0
C764 C 0.91391 0.37893 0.23695 0.0
C765 C 0.93025 0.3931 0.21555 0.0
C766 C 0.94417 0.37303 0.19685 0.0
C767 C 0.91465 0.4123 0.19746 0.0
C768 C 0.94826 0.408 0.23529 0.0
C769 C 0.94309 0.40241 0.26326 0.0
C770 C 0.95662 0.41374 0.28563 0.0
C771 C 0.97552 0.43189 0.27943 0.0
C772 C 0.98073 0.43898 0.25104 0.0
C773 C 0.96717 0.42642 0.22859 0.0
H774 H 0.12374 0.36537 0.76267 0.0
H775 H 0.16379 0.38145 0.84176 0.0
H776 H 0.13255 0.41524 0.85422 0.0
H777 H 0.1097 0.433 0.74801 0.0
H778 H 0.07944 0.42569 0.73251 0.0
H779 H 0.10393 0.40138 0.73092 0.0
H780 H 0.07507 0.36709 0.75505 0.0
H781 H 0.05051 0.39135 0.75681 0.0
H782 H 0.0612 0.37522 0.78867 0.0
H783 H 0.09697 0.44866 0.85753 0.0
H784 H 0.06168 0.47968 0.8499 0.0
H785 H 0.04681 0.44289 0.76779 0.0
C786 C 0.12611 0.37598 0.78259 0.0
C787 C 0.14628 0.37034 0.80127 0.0
C788 C 0.14828 0.38475 0.82726 0.0
C789 C 0.13068 0.4042 0.8345 0.0
C790 C 0.11115 0.40927 0.81553 0.0
C791 C 0.10887 0.39563 0.79003 0.0
C792 C 0.08685 0.40557 0.77275 0.0
C793 C 0.09551 0.4171 0.74438 0.0
C794 C 0.06725 0.38349 0.76805 0.0
C795 C 0.07722 0.42707 0.79235 0.0
C796 C 0.09126 0.4288 0.81708 0.0
C797 C 0.08584 0.44744 0.83823 0.0
C798 C 0.06573 0.46494 0.83378 0.0
C799 C 0.05151 0.46383 0.80825 0.0
C800 C 0.05734 0.44441 0.78752 0.0
H801 H 0.13679 0.66556 0.26019 0.0
H802 H 0.17411 0.65148 0.18041 0.0
H803 H 0.14376 0.61578 0.16857 0.0
H804 H 0.12621 0.59865 0.27566 0.0
H805 H 0.09611 0.60366 0.29158 0.0
H806 H 0.11891 0.63001 0.2922 0.0
H807 H 0.08704 0.66126 0.26779 0.0
H808 H 0.0641 0.63495 0.26714 0.0
H809 H 0.07246 0.65121 0.23469 0.0
H810 H 0.11072 0.57944 0.16689 0.0
H811 H 0.07915 0.54464 0.1767 0.0
H812 H 0.06434 0.58218 0.25794 0.0
C813 C 0.13818 0.65535 0.23996 0.0
C814 C 0.15768 0.66137 0.22113 0.0
C815 C 0.15931 0.64712 0.19515 0.0
C816 C 0.14208 0.62692 0.18819 0.0
C817 C 0.12332 0.62111 0.20744 0.0
C818 C 0.12129 0.63492 0.23281 0.0
C819 C 0.10066 0.6235 0.25077 0.0
C820 C 0.11111 0.61335 0.27922 0.0
C821 C 0.07983 0.64395 0.25536 0.0
C822 C 0.09175 0.60083 0.23182 0.0
C823 C 0.10476 0.59994 0.20673 0.0
C824 C 0.10027 0.58009 0.18639 0.0
C825 C 0.08227 0.56043 0.19209 0.0
C826 C 0.06925 0.56062 0.21805 0.0
C827 C 0.07391 0.58141 0.23785 0.0
H828 H 0.74773 0.86575 0.6407 0.0
H829 H 0.79033 0.91549 0.69966 0.0
H830 H 0.78537 0.95339 0.66756 0.0
H831 H 0.77396 0.89315 0.5774 0.0
H832 H 0.74518 0.89099 0.55718 0.0
H833 H 0.75114 0.86797 0.58542 0.0
H834 H 0.70951 0.88162 0.60884 0.0
H835 H 0.70361 0.90497 0.58084 0.0
H836 H 0.70406 0.91604 0.61731 0.0
H837 H 0.77754 0.98546 0.62875 0.0
H838 H 0.76934 0.00905 0.58386 0.0
H839 H 0.7317 0.93938 0.54943 0.0
C840 C 0.75613 0.88457 0.64679 0.0
C841 C 0.76919 0.88764 0.67296 0.0
C842 C 0.77981 0.9127 0.68008 0.0
C843 C 0.77714 0.93438 0.66194 0.0
C844 C 0.76384 0.9308 0.63662 0.0
C845 C 0.75367 0.90652 0.62885 0.0
C846 C 0.74108 0.90793 0.59984 0.0
C847 C 0.75359 0.88888 0.57871 0.0
C848 C 0.71289 0.90231 0.60184 0.0
C849 C 0.74605 0.93671 0.59243 0.0
C850 C 0.75906 0.94954 0.61412 0.0
C851 C 0.76705 0.97577 0.61179 0.0
C852 C 0.7622 0.98905 0.58636 0.0
C853 C 0.74929 0.97621 0.56375 0.0
C854 C 0.7408 0.94985 0.56691 0.0
H855 H 0.64181 0.28106 0.16308 0.0
H856 H 0.67063 0.36099 0.15394 0.0
H857 H 0.6353 0.37148 0.12143 0.0
H858 H 0.62432 0.27214 0.09142 0.0
H859 H 0.59677 0.25275 0.0987 0.0
H860 H 0.6228 0.25264 0.12324 0.0
H861 H 0.59359 0.26747 0.16382 0.0
H862 H 0.56744 0.26767 0.13935 0.0
H863 H 0.57514 0.29706 0.15976 0.0
H864 H 0.5972 0.37245 0.08847 0.0
H865 H 0.56203 0.36278 0.0552 0.0
H866 H 0.55972 0.28166 0.08503 0.0
C867 C 0.6404 0.30093 0.15465 0.0
C868 C 0.65872 0.32034 0.16123 0.0
C869 C 0.65669 0.34588 0.14917 0.0
C870 C 0.63665 0.35203 0.13084 0.0
C871 C 0.61893 0.33234 0.12465 0.0
C872 C 0.62076 0.30725 0.13609 0.0
C873 C 0.60047 0.289 0.1245 0.0
C874 C 0.61177 0.26524 0.10851 0.0
C875 C 0.58313 0.27977 0.14828 0.0
C876 C 0.5871 0.30759 0.10445 0.0
C877 C 0.59771 0.33263 0.10511 0.0
C878 C 0.58871 0.35293 0.08788 0.0
C879 C 0.56867 0.3473 0.06913 0.0
C880 C 0.55816 0.32148 0.06749 0.0
C881 C 0.56735 0.30159 0.08575 0.0
H882 H 0.22429 0.1696 0.65059 0.0
H883 H 0.30143 0.1771 0.67939 0.0
H884 H 0.31244 0.13736 0.65156 0.0
H885 H 0.22167 0.09744 0.65149 0.0
H886 H 0.2025 0.09485 0.61986 0.0
H887 H 0.20036 0.12374 0.64248 0.0
H888 H 0.20997 0.15392 0.59975 0.0
H889 H 0.21214 0.12514 0.57702 0.0
H890 H 0.23788 0.14827 0.57956 0.0
H891 H 0.31551 0.09723 0.62033 0.0
H892 H 0.31046 0.05952 0.58702 0.0
H893 H 0.23141 0.07739 0.57803 0.0
C894 C 0.24344 0.16274 0.65117 0.0
C895 C 0.26203 0.17668 0.66703 0.0
C896 C 0.28693 0.16712 0.66705 0.0
C897 C 0.29336 0.14442 0.65145 0.0
C898 C 0.27471 0.13131 0.63587 0.0
C899 C 0.25026 0.14007 0.63555 0.0
C900 C 0.234 0.12249 0.61649 0.0
C901 C 0.21342 0.10882 0.63361 0.0
C902 C 0.22285 0.13841 0.59174 0.0
C903 C 0.25318 0.10262 0.60614 0.0
C904 C 0.27652 0.10806 0.6177 0.0
C905 C 0.29731 0.09272 0.61117 0.0
C906 C 0.29424 0.0713 0.5922 0.0
C907 C 0.27055 0.06537 0.57985 0.0
C908 C 0.24977 0.08128 0.58712 0.0
H909 H 0.36011 0.78183 0.1363 0.0
H910 H 0.37614 0.70817 0.18002 0.0
H911 H 0.41279 0.70138 0.14992 0.0
H912 H 0.3779 0.76121 0.06757 0.0
H913 H 0.3924 0.79222 0.05824 0.0
H914 H 0.36739 0.79179 0.08345 0.0
H915 H 0.39574 0.81601 0.12047 0.0
H916 H 0.42082 0.81664 0.09531 0.0
H917 H 0.42572 0.80213 0.12973 0.0
H918 H 0.44581 0.70076 0.1134 0.0
H919 H 0.4755 0.7081 0.07464 0.0
H920 H 0.44082 0.78388 0.05676 0.0
C921 C 0.37151 0.76448 0.13991 0.0
C922 C 0.36487 0.74535 0.16037 0.0
C923 C 0.38029 0.72279 0.16405 0.0
C924 C 0.40135 0.71884 0.14722 0.0
C925 C 0.40708 0.73783 0.12705 0.0
C926 C 0.39287 0.76038 0.12353 0.0
C927 C 0.40329 0.77764 0.10022 0.0
C928 C 0.3841 0.78089 0.07593 0.0
C929 C 0.41191 0.80471 0.11216 0.0
C930 C 0.42534 0.76102 0.09095 0.0
C931 C 0.42702 0.73806 0.10667 0.0
C932 C 0.44491 0.7188 0.10118 0.0
C933 C 0.4616 0.7231 0.07905 0.0
C934 C 0.46051 0.74661 0.06289 0.0
C935 C 0.44226 0.76592 0.06909 0.0
H936 H 0.73335 0.17098 0.35864 0.0
H937 H 0.76673 0.12831 0.28833 0.0
H938 H 0.76397 0.08673 0.31524 0.0
H939 H 0.76418 0.13687 0.41323 0.0
H940 H 0.738 0.13633 0.43691 0.0
H941 H 0.74076 0.16242 0.41133 0.0
H942 H 0.69668 0.15083 0.39131 0.0
H943 H 0.69381 0.12459 0.41682 0.0
H944 H 0.68994 0.11741 0.37949 0.0
H945 H 0.76159 0.05087 0.3511 0.0
H946 H 0.75949 0.02291 0.39382 0.0
H947 H 0.72538 0.08752 0.44029 0.0
C948 C 0.7396 0.15281 0.34864 0.0
C949 C 0.75035 0.15302 0.32132 0.0
C950 C 0.75877 0.12882 0.30934 0.0
C951 C 0.75706 0.10502 0.32436 0.0
C952 C 0.74664 0.10558 0.3513 0.0
C953 C 0.73793 0.12879 0.36333 0.0
C954 C 0.72879 0.12411 0.39325 0.0
C955 C 0.74384 0.14092 0.41495 0.0
C956 C 0.70063 0.12956 0.39533 0.0
C957 C 0.7343 0.09477 0.39639 0.0
C958 C 0.74448 0.08449 0.37182 0.0
C959 C 0.75314 0.0585 0.37023 0.0
C960 C 0.75184 0.04277 0.39452 0.0
C961 C 0.74167 0.0529 0.41993 0.0
C962 C 0.73237 0.07906 0.42074 0.0
H963 H 0.35486 0.32731 0.87675 0.0
H964 H 0.37965 0.26535 0.81921 0.0
H965 H 0.4192 0.26192 0.8462 0.0
H966 H 0.41632 0.3586 0.88765 0.0
H967 H 0.41114 0.36571 0.92465 0.0
H968 H 0.38506 0.36443 0.90006 0.0
H969 H 0.36344 0.32913 0.93107 0.0
H970 H 0.3894 0.33034 0.95575 0.0
H971 H 0.37994 0.29915 0.93988 0.0
H972 H 0.45427 0.26242 0.8809 0.0
H973 H 0.48397 0.26792 0.92097 0.0
H974 H 0.43811 0.33075 0.95578 0.0
C975 C 0.36869 0.31314 0.8698 0.0
C976 C 0.36424 0.29674 0.8457 0.0
C977 C 0.3828 0.27844 0.83726 0.0
C978 C 0.4053 0.27625 0.85252 0.0
C979 C 0.40909 0.29263 0.87612 0.0
C980 C 0.39145 0.31084 0.8847 0.0
C981 C 0.40017 0.32557 0.91131 0.0
C982 C 0.40336 0.35535 0.90556 0.0
C983 C 0.38217 0.32075 0.93596 0.0
C984 C 0.42524 0.31239 0.91658 0.0
C985 C 0.42991 0.29344 0.89595 0.0
C986 C 0.45102 0.27743 0.89697 0.0
C987 C 0.46773 0.28065 0.91983 0.0
C988 C 0.46343 0.29992 0.94122 0.0
C989 C 0.44207 0.31626 0.93936 0.0
H990 H 0.232 0.85701 0.37758 0.0
H991 H 0.31009 0.85132 0.35497 0.0
H992 H 0.32125 0.88374 0.39281 0.0
H993 H 0.23262 0.92659 0.38968 0.0
H994 H 0.2113 0.92584 0.41897 0.0
H995 H 0.2097 0.90038 0.39197 0.0
H996 H 0.21501 0.86431 0.43036 0.0
H997 H 0.21659 0.88968 0.45751 0.0
H998 H 0.24148 0.8659 0.45438 0.0
H999 H 0.3238 0.91776 0.43228 0.0
H1000 H 0.31719 0.95269 0.46859 0.0
H1001 H 0.23723 0.93789 0.46395 0.0
C1002 C 0.25146 0.86233 0.38099 0.0
C1003 C 0.27025 0.85158 0.3636 0.0
C1004 C 0.29547 0.85936 0.36817 0.0
C1005 C 0.30198 0.87767 0.38964 0.0
C1006 C 0.28301 0.88821 0.40624 0.0
C1007 C 0.25824 0.88094 0.40209 0.0
C1008 C 0.24134 0.89654 0.42164 0.0
C1009 C 0.22264 0.91333 0.40454 0.0
C1010 C 0.22781 0.878 0.44219 0.0
C1011 C 0.26043 0.91385 0.43716 0.0
C1012 C 0.28439 0.90849 0.42826 0.0
C1013 C 0.3051 0.9221 0.43945 0.0
C1014 C 0.30119 0.94189 0.4601 0.0
C1015 C 0.27673 0.94812 0.46906 0.0
C1016 C 0.25617 0.93371 0.45747 0.0
H1017 H 0.65475 0.75523 0.86214 0.0
H1018 H 0.68953 0.82483 0.90121 0.0
H1019 H 0.65318 0.82995 0.93226 0.0
H1020 H 0.59128 0.77697 0.86443 0.0
H1021 H 0.57891 0.74488 0.87355 0.0
H1022 H 0.60715 0.74725 0.85328 0.0
H1023 H 0.63074 0.71904 0.89062 0.0
H1024 H 0.60251 0.71632 0.91081 0.0
H1025 H 0.63064 0.72925 0.92737 0.0
H1026 H 0.61259 0.82791 0.95884 0.0
H1027 H 0.57309 0.8159 0.98237 0.0
H1028 H 0.56653 0.74596 0.92836 0.0
C1029 C 0.655 0.7714 0.8774 0.0
C1030 C 0.67506 0.78981 0.87878 0.0
C1031 C 0.67422 0.81081 0.89903 0.0
C1032 C 0.65367 0.81384 0.91694 0.0
C1033 C 0.63416 0.79555 0.9147 0.0
C1034 C 0.63482 0.77451 0.89574 0.0
C1035 C 0.61196 0.75691 0.89845 0.0
C1036 C 0.59641 0.75649 0.87078 0.0
C1037 C 0.61942 0.72872 0.90735 0.0
C1038 C 0.59839 0.77131 0.92195 0.0
C1039 C 0.61131 0.79376 0.93078 0.0
C1040 C 0.60234 0.81033 0.95217 0.0
C1041 C 0.57983 0.80343 0.96529 0.0
C1042 C 0.56677 0.77999 0.95723 0.0
C1043 C 0.57612 0.76397 0.93504 0.0
loop_
_geom_bond_atom_site_label_1
_geom_bond_atom_site_label_2
_geom_bond_distance
_geom_bond_site_symmetry_2
_ccdc_geom_bond_type
C0 C1 1.386 . S
C0 C2 1.397 . S
C0 H24 0.931 . S
C1 C0 1.386 . S
C1 C5 1.397 . S
C2 C0 1.397 . S
C2 C3 1.384 . S
C2 H25 0.930 . S
C3 C2 1.384 . S
C3 C4 1.377 . S
C3 C6 1.481 . S
C4 C3 1.377 . S
C4 C5 1.389 . S
C4 H26 0.929 . S
C5 C1 1.397 . S
C5 C4 1.389 . S
C5 H27 0.931 . S
C6 C3 1.481 . S
C6 C7 1.387 . S
C6 C11 1.390 . S
C7 C6 1.387 . S
C7 C8 1.401 . S
C7 H28 0.930 . S
C8 C7 1.401 . S
C8 C9 1.376 . S
C8 C17 1.511 . S
C9 C8 1.376 . S
C9 C10 1.392 . S
C9 H30 0.931 . S
C10 C9 1.392 . S
C10 C11 1.361 . S
C10 C12 1.500 . S
C11 C6 1.390 . S
C11 C10 1.361 . S
C11 H29 0.931 . S
C12 C10 1.500 . S
C12 C13 1.371 . S
C12 C14 1.365 . S
C13 C12 1.371 . S
C13 C23 1.386 . S
C13 H31 0.931 . S
C14 C12 1.365 . S
C14 C15 1.409 . S
C14 H32 0.929 . S
C15 C14 1.409 . S
C15 C16 1.380 . S
C15 H33 0.930 . S
C16 C15 1.380 . S
C16 C23 1.357 . S
C17 C8 1.511 . S
C17 C18 1.341 . S
C17 C19 1.371 . S
C18 C17 1.341 . S
C18 C22 1.394 . S
C18 H34 0.930 . S
C19 C17 1.371 . S
C19 C20 1.392 . S
C19 H35 0.931 . S
C20 C19 1.392 . S
C20 C21 1.331 . S
C20 H38 0.932 . S
C21 C20 1.331 . S
C21 C22 1.336 . S
C22 C18 1.394 . S
C22 C21 1.336 . S
C22 H37 0.929 . S
C23 C13 1.386 . S
C23 C16 1.357 . S
C23 H36 0.928 . S
H24 C0 0.931 . S
H25 C2 0.930 . S
H26 C4 0.929 . S
H27 C5 0.931 . S
H28 C7 0.930 . S
H29 C11 0.931 . S
H30 C9 0.931 . S
H31 C13 0.931 . S
H32 C14 0.929 . S
H33 C15 0.930 . S
H34 C18 0.930 . S
H35 C19 0.931 . S
H36 C23 0.928 . S
H37 C22 0.929 . S
H38 C20 0.932 . S
C39 C40 1.386 . S
C39 C41 1.397 . S
C39 H63 0.931 . S
C40 C39 1.386 . S
C40 C44 1.397 . S
C41 C39 1.397 . S
C41 C42 1.384 . S
C41 H64 0.930 . S
C42 C41 1.384 . S
C42 C43 1.377 . S
C42 C45 1.481 . S
C43 C42 1.377 . S
C43 C44 1.389 . S
C43 H65 0.929 . S
C44 C40 1.397 . S
C44 C43 1.389 . S
C44 H66 0.931 . S
C45 C42 1.481 . S
C45 C46 1.387 . S
C45 C50 1.390 . S
C46 C45 1.387 . S
C46 C47 1.401 . S
C46 H67 0.930 . S
C47 C46 1.401 . S
C47 C48 1.376 . S
C47 C56 1.511 . S
C48 C47 1.376 . S
C48 C49 1.392 . S
C48 H69 0.931 . S
C49 C48 1.392 . S
C49 C50 1.361 . S
C49 C51 1.500 . S
C50 C45 1.390 . S
C50 C49 1.361 . S
C50 H68 0.931 . S
C51 C49 1.500 . S
C51 C52 1.371 . S
C51 C53 1.365 . S
C52 C51 1.371 . S
C52 C62 1.386 . S
C52 H70 0.931 . S
C53 C51 1.365 . S
C53 C54 1.409 . S
C53 H71 0.929 . S
C54 C53 1.409 . S
C54 C55 1.380 . S
C54 H72 0.930 . S
C55 C54 1.380 . S
C55 C62 1.357 . S
C56 C47 1.511 . S
C56 C57 1.341 . S
C56 C58 1.371 . S
C57 C56 1.341 . S
C57 C61 1.394 . S
C57 H73 0.930 . S
C58 C56 1.371 . S
C58 C59 1.392 . S
C58 H74 0.931 . S
C59 C58 1.392 . S
C59 C60 1.331 . S
C59 H77 0.932 . S
C60 C59 1.331 . S
C60 C61 1.336 . S
C61 C57 1.394 . S
C61 C60 1.336 . S
C61 H76 0.929 . S
C62 C52 1.386 . S
C62 C55 1.357 . S
C62 H75 0.928 . S
H63 C39 0.931 . S
H64 C41 0.930 . S
H65 C43 0.929 . S
H66 C44 0.931 . S
H67 C46 0.930 . S
H68 C50 0.931 . S
H69 C48 0.931 . S
H70 C52 0.931 . S
H71 C53 0.929 . S
H72 C54 0.930 . S
H73 C57 0.930 . S
H74 C58 0.931 . S
H75 C62 0.928 . S
H76 C61 0.929 . S
H77 C59 0.932 . S
C78 C79 1.386 . S
C78 C80 1.397 . S
C78 H102 0.931 . S
C79 C78 1.386 . S
C79 C83 1.397 . S
C80 C78 1.397 . S
C80 C81 1.384 . S
C80 H103 0.930 . S
C81 C80 1.384 . S
C81 C82 1.377 . S
C81 C84 1.481 . S
C82 C81 1.377 . S
C82 C83 1.389 . S
C82 H104 0.929 . S
C83 C79 1.397 . S
C83 C82 1.389 . S
C83 H105 0.931 . S
C84 C81 1.481 . S
C84 C85 1.387 . S
C84 C89 1.390 . S
C85 C84 1.387 . S
C85 C86 1.401 . S
C85 H106 0.930 . S
C86 C85 1.401 . S
C86 C87 1.376 . S
C86 C95 1.511 . S
C87 C86 1.376 . S
C87 C88 1.392 . S
C87 H108 0.931 . S
C88 C87 1.392 . S
C88 C89 1.361 . S
C88 C90 1.500 . S
C89 C84 1.390 . S
C89 C88 1.361 . S
C89 H107 0.931 . S
C90 C88 1.500 . S
C90 C91 1.371 . S
C90 C92 1.365 . S
C91 C90 1.371 . S
C91 C101 1.386 . S
C91 H109 0.931 . S
C92 C90 1.365 . S
C92 C93 1.409 . S
C92 H110 0.929 . S
C93 C92 1.409 . S
C93 C94 1.380 . S
C93 H111 0.930 . S
C94 C93 1.380 . S
C94 C101 1.357 . S
C95 C86 1.511 . S
C95 C96 1.341 . S
C95 C97 1.371 . S
C96 C95 1.341 . S
C96 C100 1.394 . S
C96 H112 0.930 . S
C97 C95 1.371 . S
C97 C98 1.392 . S
C97 H113 0.931 . S
C98 C97 1.392 . S
C98 C99 1.331 . S
C98 H116 0.932 . S
C99 C98 1.331 . S
C99 C100 1.336 . S
C100 C96 1.394 . S
C100 C99 1.336 . S
C100 H115 0.929 . S
C101 C91 1.386 . S
C101 C94 1.357 . S
C101 H114 0.928 . S
H102 C78 0.931 . S
H103 C80 0.930 . S
H104 C82 0.929 . S
H105 C83 0.931 . S
H106 C85 0.930 . S
H107 C89 0.931 . S
H108 C87 0.931 . S
H109 C91 0.931 . S
H110 C92 0.929 . S
H111 C93 0.930 . S
H112 C96 0.930 . S
H113 C97 0.931 . S
H114 C101 0.928 . S
H115 C100 0.929 . S
H116 C98 0.932 . S
C117 C118 1.386 . S
C117 C119 1.397 . S
C117 H141 0.931 . S
C118 C117 1.386 . S
C118 C122 1.397 . S
C119 C117 1.397 . S
C119 C120 1.384 . S
C119 H142 0.930 . S
C120 C119 1.384 . S
C120 C121 1.377 . S
C120 C123 1.481 . S
C121 C120 1.377 . S
C121 C122 1.389 . S
C121 H143 0.929 . S
C122 C118 1.397 . S
C122 C121 1.389 . S
C122 H144 0.931 . S
C123 C120 1.481 . S
C123 C124 1.387 . S
C123 C128 1.390 . S
C124 C123 1.387 . S
C124 C125 1.401 . S
C124 H145 0.930 . S
C125 C124 1.401 . S
C125 C126 1.376 . S
C125 C134 1.511 . S
C126 C125 1.376 . S
C126 C127 1.392 . S
C126 H147 0.931 . S
C127 C126 1.392 . S
C127 C128 1.361 . S
C127 C129 1.500 . S
C128 C123 1.390 . S
C128 C127 1.361 . S
C128 H146 0.931 . S
C129 C127 1.500 . S
C129 C130 1.371 . S
C129 C131 1.365 . S
C130 C129 1.371 . S
C130 C140 1.386 . S
C130 H148 0.931 . S
C131 C129 1.365 . S
C131 C132 1.409 . S
C131 H149 0.929 . S
C132 C131 1.409 . S
C132 C133 1.380 . S
C132 H150 0.930 . S
C133 C132 1.380 . S
C133 C140 1.357 . S
C134 C125 1.511 . S
C134 C135 1.341 . S
C134 C136 1.371 . S
C135 C134 1.341 . S
C135 C139 1.394 . S
C135 H151 0.930 . S
C136 C134 1.371 . S
C136 C137 1.392 . S
C136 H152 0.931 . S
C137 C136 1.392 . S
C137 C138 1.331 . S
C137 H155 0.932 . S
C138 C137 1.331 . S
C138 C139 1.336 . S
C139 C135 1.394 . S
C139 C138 1.336 . S
C139 H154 0.929 . S
C140 C130 1.386 . S
C140 C133 1.357 . S
C140 H153 0.928 . S
H141 C117 0.931 . S
H142 C119 0.930 . S
H143 C121 0.929 . S
H144 C122 0.931 . S
H145 C124 0.930 . S
H146 C128 0.931 . S
H147 C126 0.931 . S
H148 C130 0.931 . S
H149 C131 0.929 . S
H150 C132 0.930 . S
H151 C135 0.930 . S
H152 C136 0.931 . S
H153 C140 0.928 . S
H154 C139 0.929 . S
H155 C137 0.932 . S
C156 C157 1.386 . S
C156 C158 1.397 . S
C156 H180 0.931 . S
C157 C156 1.386 . S
C157 C161 1.397 . S
C158 C156 1.397 . S
C158 C159 1.384 . S
C158 H181 0.930 . S
C159 C158 1.384 . S
C159 C160 1.377 . S
C159 C162 1.481 . S
C160 C159 1.377 . S
C160 C161 1.389 . S
C160 H182 0.929 . S
C161 C157 1.397 . S
C161 C160 1.389 . S
C161 H183 0.931 . S
C162 C159 1.481 . S
C162 C163 1.387 . S
C162 C167 1.390 . S
C163 C162 1.387 . S
C163 C164 1.401 . S
C163 H184 0.930 . S
C164 C163 1.401 . S
C164 C165 1.376 . S
C164 C173 1.511 . S
C165 C164 1.376 . S
C165 C166 1.392 . S
C165 H186 0.931 . S
C166 C165 1.392 . S
C166 C167 1.361 . S
C166 C168 1.500 . S
C167 C162 1.390 . S
C167 C166 1.361 . S
C167 H185 0.931 . S
C168 C166 1.500 . S
C168 C169 1.371 . S
C168 C170 1.365 . S
C169 C168 1.371 . S
C169 C179 1.386 . S
C169 H187 0.931 . S
C170 C168 1.365 . S
C170 C171 1.409 . S
C170 H188 0.929 . S
C171 C170 1.409 . S
C171 C172 1.380 . S
C171 H189 0.930 . S
C172 C171 1.380 . S
C172 C179 1.357 . S
C173 C164 1.511 . S
C173 C174 1.341 . S
C173 C175 1.371 . S
C174 C173 1.341 . S
C174 C178 1.394 . S
C174 H190 0.930 . S
C175 C173 1.371 . S
C175 C176 1.392 . S
C175 H191 0.931 . S
C176 C175 1.392 . S
C176 C177 1.331 . S
C176 H194 0.932 . S
C177 C176 1.331 . S
C177 C178 1.336 . S
C178 C174 1.394 . S
C178 C177 1.336 . S
C178 H193 0.929 . S
C179 C169 1.386 . S
C179 C172 1.357 . S
C179 H192 0.928 . S
H180 C156 0.931 . S
H181 C158 0.930 . S
H182 C160 0.929 . S
H183 C161 0.931 . S
H184 C163 0.930 . S
H185 C167 0.931 . S
H186 C165 0.931 . S
H187 C169 0.931 . S
H188 C170 0.929 . S
H189 C171 0.930 . S
H190 C174 0.930 . S
H191 C175 0.931 . S
H192 C179 0.928 . S
H193 C178 0.929 . S
H194 C176 0.932 . S
C195 C196 1.386 . S
C195 C197 1.397 . S
C195 H219 0.931 . S
C196 C195 1.386 . S
C196 C200 1.397 . S
C197 C195 1.397 . S
C197 C198 1.384 . S
C197 H220 0.930 . S
C198 C197 1.384 . S
C198 C199 1.377 . S
C198 C201 1.481 . S
C199 C198 1.377 . S
C199 C200 1.389 . S
C199 H221 0.929 . S
C200 C196 1.397 . S
C200 C199 1.389 . S
C200 H222 0.931 . S
C201 C198 1.481 . S
C201 C202 1.387 . S
C201 C206 1.390 . S
C202 C201 1.387 . S
C202 C203 1.401 . S
C202 H223 0.930 . S
C203 C202 1.401 . S
C203 C204 1.376 . S
C203 C212 1.511 . S
C204 C203 1.376 . S
C204 C205 1.392 . S
C204 H225 0.931 . S
C205 C204 1.392 . S
C205 C206 1.361 . S
C205 C207 1.500 . S
C206 C201 1.390 . S
C206 C205 1.361 . S
C206 H224 0.931 . S
C207 C205 1.500 . S
C207 C208 1.371 . S
C207 C209 1.365 . S
C208 C207 1.371 . S
C208 C218 1.386 . S
C208 H226 0.931 . S
C209 C207 1.365 . S
C209 C210 1.409 . S
C209 H227 0.929 . S
C210 C209 1.409 . S
C210 C211 1.380 . S
C210 H228 0.930 . S
C211 C210 1.380 . S
C211 C218 1.357 . S
C212 C203 1.511 . S
C212 C213 1.341 . S
C212 C214 1.371 . S
C213 C212 1.341 . S
C213 C217 1.394 . S
C213 H229 0.930 . S
C214 C212 1.371 . S
C214 C215 1.392 . S
C214 H230 0.931 . S
C215 C214 1.392 . S
C215 C216 1.331 . S
C215 H233 0.932 . S
C216 C215 1.331 . S
C216 C217 1.336 . S
C217 C213 1.394 . S
C217 C216 1.336 . S
C217 H232 0.929 . S
C218 C208 1.386 . S
C218 C211 1.357 . S
C218 H231 0.928 . S
H219 C195 0.931 . S
H220 C197 0.930 . S
H221 C199 0.929 . S
H222 C200 0.931 . S
H223 C202 0.930 . S
H224 C206 0.931 . S
H225 C204 0.931 . S
H226 C208 0.931 . S
H227 C209 0.929 . S
H228 C210 0.930 . S
H229 C213 0.930 . S
H230 C214 0.931 . S
H231 C218 0.928 . S
H232 C217 0.929 . S
H233 C215 0.932 . S
C234 C235 1.386 . S
C234 C236 1.397 . S
C234 H258 0.931 . S
C235 C234 1.386 . S
C235 C239 1.397 . S
C236 C234 1.397 . S
C236 C237 1.384 . S
C236 H259 0.930 . S
C237 C236 1.384 . S
C237 C238 1.377 . S
C237 C240 1.481 . S
C238 C237 1.377 . S
C238 C239 1.389 . S
C238 H260 0.929 . S
C239 C235 1.397 . S
C239 C238 1.389 . S
C239 H261 0.931 . S
C240 C237 1.481 . S
C240 C241 1.387 . S
C240 C245 1.390 . S
C241 C240 1.387 . S
C241 C242 1.401 . S
C241 H262 0.930 . S
C242 C241 1.401 . S
C242 C243 1.376 . S
C242 C251 1.511 . S
C243 C242 1.376 . S
C243 C244 1.392 . S
C243 H264 0.931 . S
C244 C243 1.392 . S
C244 C245 1.361 . S
C244 C246 1.500 . S
C245 C240 1.390 . S
C245 C244 1.361 . S
C245 H263 0.931 . S
C246 C244 1.500 . S
C246 C247 1.371 . S
C246 C248 1.365 . S
C247 C246 1.371 . S
C247 C257 1.386 . S
C247 H265 0.931 . S
C248 C246 1.365 . S
C248 C249 1.409 . S
C248 H266 0.929 . S
C249 C248 1.409 . S
C249 C250 1.380 . S
C249 H267 0.930 . S
C250 C249 1.380 . S
C250 C257 1.357 . S
C251 C242 1.511 . S
C251 C252 1.341 . S
C251 C253 1.371 . S
C252 C251 1.341 . S
C252 C256 1.394 . S
C252 H268 0.930 . S
C253 C251 1.371 . S
C253 C254 1.392 . S
C253 H269 0.931 . S
C254 C253 1.392 . S
C254 C255 1.331 . S
C254 H272 0.932 . S
C255 C254 1.331 . S
C255 C256 1.336 . S
C256 C252 1.394 . S
C256 C255 1.336 . S
C256 H271 0.929 . S
C257 C247 1.386 . S
C257 C250 1.357 . S
C257 H270 0.928 . S
H258 C234 0.931 . S
H259 C236 0.930 . S
H260 C238 0.929 . S
H261 C239 0.931 . S
H262 C241 0.930 . S
H263 C245 0.931 . S
H264 C243 0.931 . S
H265 C247 0.931 . S
H266 C248 0.929 . S
H267 C249 0.930 . S
H268 C252 0.930 . S
H269 C253 0.931 . S
H270 C257 0.928 . S
H271 C256 0.929 . S
H272 C254 0.932 . S
C273 C274 1.386 . S
C273 C275 1.397 . S
C273 H297 0.931 . S
C274 C273 1.386 . S
C274 C278 1.397 . S
C275 C273 1.397 . S
C275 C276 1.384 . S
C275 H298 0.930 . S
C276 C275 1.384 . S
C276 C277 1.377 . S
C276 C279 1.481 . S
C277 C276 1.377 . S
C277 C278 1.389 . S
C277 H299 0.929 . S
C278 C274 1.397 . S
C278 C277 1.389 . S
C278 H300 0.931 . S
C279 C276 1.481 . S
C279 C280 1.387 . S
C279 C284 1.390 . S
C280 C279 1.387 . S
C280 C281 1.401 . S
C280 H301 0.930 . S
C281 C280 1.401 . S
C281 C282 1.376 . S
C281 C290 1.511 . S
C282 C281 1.376 . S
C282 C283 1.392 . S
C282 H303 0.931 . S
C283 C282 1.392 . S
C283 C284 1.361 . S
C283 C285 1.500 . S
C284 C279 1.390 . S
C284 C283 1.361 . S
C284 H302 0.931 . S
C285 C283 1.500 . S
C285 C286 1.371 . S
C285 C287 1.365 . S
C286 C285 1.371 . S
C286 C296 1.386 . S
C286 H304 0.931 . S
C287 C285 1.365 . S
C287 C288 1.409 . S
C287 H305 0.929 . S
C288 C287 1.409 . S
C288 C289 1.380 . S
C288 H306 0.930 . S
C289 C288 1.380 . S
C289 C296 1.357 . S
C290 C281 1.511 . S
C290 C291 1.341 . S
C290 C292 1.371 . S
C291 C290 1.341 . S
C291 C295 1.394 . S
C291 H307 0.930 . S
C292 C290 1.371 . S
C292 C293 1.392 . S
C292 H308 0.931 . S
C293 C292 1.392 . S
C293 C294 1.331 . S
C293 H311 0.932 . S
C294 C293 1.331 . S
C294 C295 1.336 . S
C295 C291 1.394 . S
C295 C294 1.336 . S
C295 H310 0.929 . S
C296 C286 1.386 . S
C296 C289 1.357 . S
C296 H309 0.928 . S
H297 C273 0.931 . S
H298 C275 0.930 . S
H299 C277 0.929 . S
H300 C278 0.931 . S
H301 C280 0.930 . S
H302 C284 0.931 . S
H303 C282 0.931 . S
H304 C286 0.931 . S
H305 C287 0.929 . S
H306 C288 0.930 . S
H307 C291 0.930 . S
H308 C292 0.931 . S
H309 C296 0.928 . S
H310 C295 0.929 . S
H311 C293 0.932 . S
C312 O314 1.247 . S
C312 O316 1.258 . S
C313 O320 1.247 . S
C313 O321 1.258 . S
O314 C312 1.247 . S
O314 Zn315 2.028 1_655 S
Zn315 O314 2.028 1_455 S
Zn315 O319 2.035 . S
Zn315 O321 2.035 . S
Zn315 O322 2.028 1_455 S
O316 C312 1.258 . S
O316 Zn317 2.035 1_655 S
Zn317 O316 2.035 1_455 S
Zn317 O318 2.028 . S
Zn317 O320 2.028 . S
Zn317 O323 2.035 1_455 S
O318 Zn317 2.028 . S
O318 C324 1.247 . S
O319 Zn315 2.035 . S
O319 C324 1.258 . S
O320 C313 1.247 . S
O320 Zn317 2.028 . S
O321 C313 1.258 . S
O321 Zn315 2.035 . S
O322 Zn315 2.028 1_655 S
O322 C325 1.247 . S
O323 Zn317 2.035 1_655 S
O323 C325 1.258 . S
C324 O318 1.247 . S
C324 O319 1.258 . S
C325 O322 1.247 . S
C325 O323 1.258 . S
C326 O328 1.247 . S
C326 O330 1.258 . S
C327 O334 1.247 . S
C327 O335 1.258 . S
O328 C326 1.247 . S
O328 Zn329 2.028 1_655 S
Zn329 O328 2.028 1_455 S
Zn329 O333 2.035 . S
Zn329 O335 2.035 . S
Zn329 O336 2.028 1_455 S
O330 C326 1.258 . S
O330 Zn331 2.035 1_655 S
Zn331 O330 2.035 1_455 S
Zn331 O332 2.028 . S
Zn331 O334 2.028 . S
Zn331 O337 2.035 1_455 S
O332 Zn331 2.028 . S
O332 C338 1.247 . S
O333 Zn329 2.035 . S
O333 C338 1.258 . S
O334 C327 1.247 . S
O334 Zn331 2.028 . S
O335 C327 1.258 . S
O335 Zn329 2.035 . S
O336 Zn329 2.028 1_655 S
O336 C339 1.247 . S
O337 Zn331 2.035 1_655 S
O337 C339 1.258 . S
C338 O332 1.247 . S
C338 O333 1.258 . S
C339 O336 1.247 . S
C339 O337 1.258 . S
C340 O342 1.247 . S
C340 O344 1.258 . S
C341 O348 1.247 . S
C341 O349 1.258 . S
O342 C340 1.247 . S
O342 Zn343 2.028 1_565 S
Zn343 O342 2.028 1_545 S
Zn343 O347 2.035 . S
Zn343 O349 2.035 . S
Zn343 O350 2.028 1_545 S
O344 C340 1.258 . S
O344 Zn345 2.035 1_565 S
Zn345 O344 2.035 1_545 S
Zn345 O346 2.028 . S
Zn345 O348 2.028 . S
Zn345 O351 2.035 1_545 S
O346 Zn345 2.028 . S
O346 C352 1.247 . S
O347 Zn343 2.035 . S
O347 C352 1.258 . S
O348 C341 1.247 . S
O348 Zn345 2.028 . S
O349 C341 1.258 . S
O349 Zn343 2.035 . S
O350 Zn343 2.028 1_565 S
O350 C353 1.247 . S
O351 Zn345 2.035 1_565 S
O351 C353 1.258 . S
C352 O346 1.247 . S
C352 O347 1.258 . S
C353 O350 1.247 . S
C353 O351 1.258 . S
C354 O356 1.247 . S
C354 O358 1.258 . S
C355 O362 1.247 . S
C355 O363 1.258 . S
O356 C354 1.247 . S
O356 Zn357 2.046 . S
Zn357 O356 2.046 . S
Zn357 O361 2.053 . S
Zn357 O363 2.018 1_554 S
Zn357 O364 2.010 1_554 S
O358 C354 1.258 . S
O358 Zn359 2.035 . S
Zn359 O358 2.035 . S
Zn359 O360 2.028 . S
Zn359 O362 2.028 1_554 S
Zn359 O365 2.035 1_554 S
O360 Zn359 2.028 . S
O360 C366 1.247 . S
O361 Zn357 2.053 . S
O361 C366 1.258 . S
O362 C355 1.247 . S
O362 Zn359 2.028 1_556 S
O363 C355 1.258 . S
O363 Zn357 2.018 1_556 S
O364 Zn357 2.010 1_556 S
O364 C367 1.247 . S
O365 Zn359 2.035 1_556 S
O365 C367 1.258 . S
C366 O360 1.247 . S
C366 O361 1.258 . S
C367 O364 1.247 . S
C367 O365 1.258 . S
C368 O370 1.247 . S
C368 O372 1.258 . S
C369 O376 1.247 . S
C369 O377 1.258 . S
O370 C368 1.247 . S
O370 Zn371 2.004 1_565 S
Zn371 O370 2.004 1_545 S
Zn371 O375 2.059 . S
Zn371 O377 2.059 . S
Zn371 O378 2.004 1_545 S
O372 C368 1.258 . S
O372 Zn373 2.035 1_565 S
Zn373 O372 2.035 1_545 S
Zn373 O374 2.028 . S
Zn373 O376 2.028 . S
Zn373 O379 2.035 1_545 S
O374 Zn373 2.028 . S
O374 C380 1.247 . S
O375 Zn371 2.059 . S
O375 C380 1.258 . S
O376 C369 1.247 . S
O376 Zn373 2.028 . S
O377 C369 1.258 . S
O377 Zn371 2.059 . S
O378 Zn371 2.004 1_565 S
O378 C381 1.247 . S
O379 Zn373 2.035 1_565 S
O379 C381 1.258 . S
C380 O374 1.247 . S
C380 O375 1.258 . S
C381 O378 1.247 . S
C381 O379 1.258 . S
C382 O384 1.247 . S
C382 O386 1.258 . S
C383 O390 1.247 . S
C383 O391 1.258 . S
O384 C382 1.247 . S
O384 Zn385 2.028 . S
Zn385 O384 2.028 . S
Zn385 O389 2.035 . S
Zn385 O391 2.035 1_554 S
Zn385 O392 2.028 1_554 S
O386 C382 1.258 . S
O386 Zn387 2.035 . S
Zn387 O386 2.035 . S
Zn387 O388 2.028 . S
Zn387 O390 2.028 1_554 S
Zn387 O393 2.035 1_554 S
O388 Zn387 2.028 . S
O388 C394 1.247 . S
O389 Zn385 2.035 . S
O389 C394 1.258 . S
O390 C383 1.247 . S
O390 Zn387 2.028 1_556 S
O391 C383 1.258 . S
O391 Zn385 2.035 1_556 S
O392 Zn385 2.028 1_556 S
O392 C395 1.247 . S
O393 Zn387 2.035 1_556 S
O393 C395 1.258 . S
C394 O388 1.247 . S
C394 O389 1.258 . S
C395 O392 1.247 . S
C395 O393 1.258 . S
H396 C408 0.930 . S
H397 C410 0.930 . S
H398 C411 0.930 . S
H399 C415 0.959 . S
H400 C415 0.959 . S
H401 C415 0.961 . S
H402 C416 0.960 . S
H403 C416 0.961 . S
H404 C416 0.959 . S
H405 C419 0.929 . S
H406 C420 0.931 . S
H407 C422 0.930 . S
C408 H396 0.930 . S
C408 C409 1.399 . S
C408 C413 1.399 . S
C409 C408 1.399 . S
C409 C410 1.376 . S
C410 H397 0.930 . S
C410 C409 1.376 . S
C410 C411 1.388 . S
C411 H398 0.930 . S
C411 C410 1.388 . S
C411 C412 1.390 . S
C412 C411 1.390 . S
C412 C413 1.394 . S
C412 C418 1.465 . S
C413 C408 1.399 . S
C413 C412 1.394 . S
C413 C414 1.516 . S
C414 C413 1.516 . S
C414 C415 1.502 . S
C414 C416 1.561 . S
C414 C417 1.526 . S
C415 H399 0.959 . S
C415 H400 0.959 . S
C415 H401 0.961 . S
C415 C414 1.502 . S
C416 H402 0.960 . S
C416 H403 0.961 . S
C416 H404 0.959 . S
C416 C414 1.561 . S
C417 C414 1.526 . S
C417 C418 1.396 . S
C417 C422 1.390 . S
C418 C412 1.465 . S
C418 C417 1.396 . S
C418 C419 1.399 . S
C419 H405 0.929 . S
C419 C418 1.399 . S
C419 C420 1.385 . S
C420 H406 0.931 . S
C420 C419 1.385 . S
C420 C421 1.389 . S
C421 C420 1.389 . S
C421 C422 1.387 . S
C422 H407 0.930 . S
C422 C417 1.390 . S
C422 C421 1.387 . S
H423 C435 0.930 . S
H424 C437 0.930 . S
H425 C438 0.930 . S
H426 C442 0.959 . S
H427 C442 0.959 . S
H428 C442 0.961 . S
H429 C443 0.960 . S
H430 C443 0.961 . S
H431 C443 0.959 . S
H432 C446 0.929 . S
H433 C447 0.931 . S
H434 C449 0.930 . S
C435 H423 0.930 . S
C435 C436 1.399 . S
C435 C440 1.399 . S
C436 C435 1.399 . S
C436 C437 1.376 . S
C437 H424 0.930 . S
C437 C436 1.376 . S
C437 C438 1.388 . S
C438 H425 0.930 . S
C438 C437 1.388 . S
C438 C439 1.390 . S
C439 C438 1.390 . S
C439 C440 1.394 . S
C439 C445 1.465 . S
C440 C435 1.399 . S
C440 C439 1.394 . S
C440 C441 1.516 . S
C441 C440 1.516 . S
C441 C442 1.502 . S
C441 C443 1.561 . S
C441 C444 1.526 . S
C442 H426 0.959 . S
C442 H427 0.959 . S
C442 H428 0.961 . S
C442 C441 1.502 . S
C443 H429 0.960 . S
C443 H430 0.961 . S
C443 H431 0.959 . S
C443 C441 1.561 . S
C444 C441 1.526 . S
C444 C445 1.396 . S
C444 C449 1.390 . S
C445 C439 1.465 . S
C445 C444 1.396 . S
C445 C446 1.399 . S
C446 H432 0.929 . S
C446 C445 1.399 . S
C446 C447 1.385 . S
C447 H433 0.931 . S
C447 C446 1.385 . S
C447 C448 1.389 . S
C448 C447 1.389 . S
C448 C449 1.387 . S
C449 H434 0.930 . S
C449 C444 1.390 . S
C449 C448 1.387 . S
H450 C462 0.930 . S
H451 C464 0.930 . S
H452 C465 0.930 . S
H453 C469 0.959 . S
H454 C469 0.959 . S
H455 C469 0.961 . S
H456 C470 0.960 . S
H457 C470 0.961 . S
H458 C470 0.959 . S
H459 C473 0.929 . S
H460 C474 0.931 . S
H461 C476 0.930 . S
C462 H450 0.930 . S
C462 C463 1.399 . S
C462 C467 1.399 . S
C463 C462 1.399 . S
C463 C464 1.376 . S
C464 H451 0.930 . S
C464 C463 1.376 . S
C464 C465 1.388 . S
C465 H452 0.930 . S
C465 C464 1.388 . S
C465 C466 1.390 . S
C466 C465 1.390 . S
C466 C467 1.394 . S
C466 C472 1.465 . S
C467 C462 1.399 . S
C467 C466 1.394 . S
C467 C468 1.516 . S
C468 C467 1.516 . S
C468 C469 1.502 . S
C468 C470 1.561 . S
C468 C471 1.526 . S
C469 H453 0.959 . S
C469 H454 0.959 . S
C469 H455 0.961 . S
C469 C468 1.502 . S
C470 H456 0.960 . S
C470 H457 0.961 . S
C470 H458 0.959 . S
C470 C468 1.561 . S
C471 C468 1.526 . S
C471 C472 1.396 . S
C471 C476 1.390 . S
C472 C466 1.465 . S
C472 C471 1.396 . S
C472 C473 1.399 . S
C473 H459 0.929 . S
C473 C472 1.399 . S
C473 C474 1.385 . S
C474 H460 0.931 . S
C474 C473 1.385 . S
C474 C475 1.389 . S
C475 C474 1.389 . S
C475 C476 1.387 . S
C476 H461 0.930 . S
C476 C471 1.390 . S
C476 C475 1.387 . S
H477 C489 0.930 . S
H478 C491 0.930 . S
H479 C492 0.930 . S
H480 C496 0.959 . S
H481 C496 0.959 . S
H482 C496 0.961 . S
H483 C497 0.960 . S
H484 C497 0.961 . S
H485 C497 0.959 . S
H486 C500 0.929 . S
H487 C501 0.931 . S
H488 C503 0.930 . S
C489 H477 0.930 . S
C489 C490 1.399 . S
C489 C494 1.399 . S
C490 C489 1.399 . S
C490 C491 1.376 . S
C491 H478 0.930 . S
C491 C490 1.376 . S
C491 C492 1.388 . S
C492 H479 0.930 . S
C492 C491 1.388 . S
C492 C493 1.390 . S
C493 C492 1.390 . S
C493 C494 1.394 . S
C493 C499 1.465 . S
C494 C489 1.399 . S
C494 C493 1.394 . S
C494 C495 1.516 . S
C495 C494 1.516 . S
C495 C496 1.502 . S
C495 C497 1.561 . S
C495 C498 1.526 . S
C496 H480 0.959 . S
C496 H481 0.959 . S
C496 H482 0.961 . S
C496 C495 1.502 . S
C497 H483 0.960 . S
C497 H484 0.961 . S
C497 H485 0.959 . S
C497 C495 1.561 . S
C498 C495 1.526 . S
C498 C499 1.396 . S
C498 C503 1.390 . S
C499 C493 1.465 . S
C499 C498 1.396 . S
C499 C500 1.399 . S
C500 H486 0.929 . S
C500 C499 1.399 . S
C500 C501 1.385 . S
C501 H487 0.931 . S
C501 C500 1.385 . S
C501 C502 1.389 . S
C502 C501 1.389 . S
C502 C503 1.387 . S
C503 H488 0.930 . S
C503 C498 1.390 . S
C503 C502 1.387 . S
H504 C516 0.930 . S
H505 C518 0.930 . S
H506 C519 0.930 . S
H507 C523 0.959 . S
H508 C523 0.959 . S
H509 C523 0.961 . S
H510 C524 0.960 . S
H511 C524 0.961 . S
H512 C524 0.959 . S
H513 C527 0.929 . S
H514 C528 0.931 . S
H515 C530 0.930 . S
C516 H504 0.930 . S
C516 C517 1.399 . S
C516 C521 1.399 . S
C517 C516 1.399 . S
C517 C518 1.376 . S
C518 H505 0.930 . S
C518 C517 1.376 . S
C518 C519 1.388 . S
C519 H506 0.930 . S
C519 C518 1.388 . S
C519 C520 1.390 . S
C520 C519 1.390 . S
C520 C521 1.394 . S
C520 C526 1.465 . S
C521 C516 1.399 . S
C521 C520 1.394 . S
C521 C522 1.516 . S
C522 C521 1.516 . S
C522 C523 1.502 . S
C522 C524 1.561 . S
C522 C525 1.526 . S
C523 H507 0.959 . S
C523 H508 0.959 . S
C523 H509 0.961 . S
C523 C522 1.502 . S
C524 H510 0.960 . S
C524 H511 0.961 . S
C524 H512 0.959 . S
C524 C522 1.561 . S
C525 C522 1.526 . S
C525 C526 1.396 . S
C525 C530 1.390 . S
C526 C520 1.465 . S
C526 C525 1.396 . S
C526 C527 1.399 . S
C527 H513 0.929 . S
C527 C526 1.399 . S
C527 C528 1.385 . S
C528 H514 0.931 . S
C528 C527 1.385 . S
C528 C529 1.389 . S
C529 C528 1.389 . S
C529 C530 1.387 . S
C530 H515 0.930 . S
C530 C525 1.390 . S
C530 C529 1.387 . S
H531 C543 0.930 . S
H532 C545 0.930 . S
H533 C546 0.930 . S
H534 C550 0.959 . S
H535 C550 0.959 . S
H536 C550 0.961 . S
H537 C551 0.960 . S
H538 C551 0.961 . S
H539 C551 0.959 . S
H540 C554 0.929 . S
H541 C555 0.931 . S
H542 C557 0.930 . S
C543 H531 0.930 . S
C543 C544 1.399 . S
C543 C548 1.399 . S
C544 C543 1.399 . S
C544 C545 1.376 . S
C545 H532 0.930 . S
C545 C544 1.376 . S
C545 C546 1.388 . S
C546 H533 0.930 . S
C546 C545 1.388 . S
C546 C547 1.390 . S
C547 C546 1.390 . S
C547 C548 1.394 . S
C547 C553 1.465 . S
C548 C543 1.399 . S
C548 C547 1.394 . S
C548 C549 1.516 . S
C549 C548 1.516 . S
C549 C550 1.502 . S
C549 C551 1.561 . S
C549 C552 1.526 . S
C550 H534 0.959 . S
C550 H535 0.959 . S
C550 H536 0.961 . S
C550 C549 1.502 . S
C551 H537 0.960 . S
C551 H538 0.961 . S
C551 H539 0.959 . S
C551 C549 1.561 . S
C552 C549 1.526 . S
C552 C553 1.396 . S
C552 C557 1.390 . S
C553 C547 1.465 . S
C553 C552 1.396 . S
C553 C554 1.399 . S
C554 H540 0.929 . S
C554 C553 1.399 . S
C554 C555 1.385 . S
C555 H541 0.931 . S
C555 C554 1.385 . S
C555 C556 1.389 . S
C556 C555 1.389 . S
C556 C557 1.387 . S
C557 H542 0.930 . S
C557 C552 1.390 . S
C557 C556 1.387 . S
H558 C570 0.930 . S
H559 C572 0.930 . S
H560 C573 0.930 . S
H561 C577 0.959 . S
H562 C577 0.959 . S
H563 C577 0.961 . S
H564 C578 0.960 . S
H565 C578 0.961 . S
H566 C578 0.959 . S
H567 C581 0.929 . S
H568 C582 0.931 . S
H569 C584 0.930 . S
C570 H558 0.930 . S
C570 C571 1.399 . S
C570 C575 1.399 . S
C571 C570 1.399 . S
C571 C572 1.376 . S
C572 H559 0.930 . S
C572 C571 1.376 . S
C572 C573 1.388 . S
C573 H560 0.930 . S
C573 C572 1.388 . S
C573 C574 1.390 . S
C574 C573 1.390 . S
C574 C575 1.394 . S
C574 C580 1.465 . S
C575 C570 1.399 . S
C575 C574 1.394 . S
C575 C576 1.516 . S
C576 C575 1.516 . S
C576 C577 1.502 . S
C576 C578 1.561 . S
C576 C579 1.526 . S
C577 H561 0.959 . S
C577 H562 0.959 . S
C577 H563 0.961 . S
C577 C576 1.502 . S
C578 H564 0.960 . S
C578 H565 0.961 . S
C578 H566 0.959 . S
C578 C576 1.561 . S
C579 C576 1.526 . S
C579 C580 1.396 . S
C579 C584 1.390 . S
C580 C574 1.465 . S
C580 C579 1.396 . S
C580 C581 1.399 . S
C581 H567 0.929 . S
C581 C580 1.399 . S
C581 C582 1.385 . S
C582 H568 0.931 . S
C582 C581 1.385 . S
C582 C583 1.389 . S
C583 C582 1.389 . S
C583 C584 1.387 . S
C584 H569 0.930 . S
C584 C579 1.390 . S
C584 C583 1.387 . S
H585 C597 0.930 . S
H586 C599 0.930 . S
H587 C600 0.930 . S
H588 C604 0.959 . S
H589 C604 0.959 . S
H590 C604 0.961 . S
H591 C605 0.960 . S
H592 C605 0.961 . S
H593 C605 0.959 . S
H594 C608 0.929 . S
H595 C609 0.931 . S
H596 C611 0.930 . S
C597 H585 0.930 . S
C597 C598 1.399 . S
C597 C602 1.399 . S
C598 C597 1.399 . S
C598 C599 1.376 . S
C599 H586 0.930 . S
C599 C598 1.376 . S
C599 C600 1.388 . S
C600 H587 0.930 . S
C600 C599 1.388 . S
C600 C601 1.390 . S
C601 C600 1.390 . S
C601 C602 1.394 . S
C601 C607 1.465 . S
C602 C597 1.399 . S
C602 C601 1.394 . S
C602 C603 1.516 . S
C603 C602 1.516 . S
C603 C604 1.502 . S
C603 C605 1.561 . S
C603 C606 1.526 . S
C604 H588 0.959 . S
C604 H589 0.959 . S
C604 H590 0.961 . S
C604 C603 1.502 . S
C605 H591 0.960 . S
C605 H592 0.961 . S
C605 H593 0.959 . S
C605 C603 1.561 . S
C606 C603 1.526 . S
C606 C607 1.396 . S
C606 C611 1.390 . S
C607 C601 1.465 . S
C607 C606 1.396 . S
C607 C608 1.399 . S
C608 H594 0.929 . S
C608 C607 1.399 . S
C608 C609 1.385 . S
C609 H595 0.931 . S
C609 C608 1.385 . S
C609 C610 1.389 . S
C610 C609 1.389 . S
C610 C611 1.387 . S
C611 H596 0.930 . S
C611 C606 1.390 . S
C611 C610 1.387 . S
H612 C624 0.930 . S
H613 C626 0.930 . S
H614 C627 0.930 . S
H615 C631 0.959 . S
H616 C631 0.959 . S
H617 C631 0.961 . S
H618 C632 0.960 . S
H619 C632 0.961 . S
H620 C632 0.959 . S
H621 C635 0.929 . S
H622 C636 0.931 . S
H623 C638 0.930 . S
C624 H612 0.930 . S
C624 C625 1.399 . S
C624 C629 1.399 . S
C625 C624 1.399 . S
C625 C626 1.376 . S
C626 H613 0.930 . S
C626 C625 1.376 . S
C626 C627 1.388 . S
C627 H614 0.930 . S
C627 C626 1.388 . S
C627 C628 1.390 . S
C628 C627 1.390 . S
C628 C629 1.394 . S
C628 C634 1.465 . S
C629 C624 1.399 . S
C629 C628 1.394 . S
C629 C630 1.516 . S
C630 C629 1.516 . S
C630 C631 1.502 . S
C630 C632 1.561 . S
C630 C633 1.526 . S
C631 H615 0.959 . S
C631 H616 0.959 . S
C631 H617 0.961 . S
C631 C630 1.502 . S
C632 H618 0.960 . S
C632 H619 0.961 . S
C632 H620 0.959 . S
C632 C630 1.561 . S
C633 C630 1.526 . S
C633 C634 1.396 . S
C633 C638 1.390 . S
C634 C628 1.465 . S
C634 C633 1.396 . S
C634 C635 1.399 . S
C635 H621 0.929 . S
C635 C634 1.399 . S
C635 C636 1.385 . S
C636 H622 0.931 . S
C636 C635 1.385 . S
C636 C637 1.389 . S
C637 C636 1.389 . S
C637 C638 1.387 . S
C638 H623 0.930 . S
C638 C633 1.390 . S
C638 C637 1.387 . S
H639 C651 0.930 . S
H640 C653 0.930 . S
H641 C654 0.930 . S
H642 C658 0.959 . S
H643 C658 0.959 . S
H644 C658 0.961 . S
H645 C659 0.960 . S
H646 C659 0.961 . S
H647 C659 0.959 . S
H648 C662 0.929 . S
H649 C663 0.931 . S
H650 C665 0.930 . S
C651 H639 0.930 . S
C651 C652 1.399 . S
C651 C656 1.399 . S
C652 C651 1.399 . S
C652 C653 1.376 . S
C653 H640 0.930 . S
C653 C652 1.376 . S
C653 C654 1.388 . S
C654 H641 0.930 . S
C654 C653 1.388 . S
C654 C655 1.390 . S
C655 C654 1.390 . S
C655 C656 1.394 . S
C655 C661 1.465 . S
C656 C651 1.399 . S
C656 C655 1.394 . S
C656 C657 1.516 . S
C657 C656 1.516 . S
C657 C658 1.502 . S
C657 C659 1.561 . S
C657 C660 1.526 . S
C658 H642 0.959 . S
C658 H643 0.959 . S
C658 H644 0.961 . S
C658 C657 1.502 . S
C659 H645 0.960 . S
C659 H646 0.961 . S
C659 H647 0.959 . S
C659 C657 1.561 . S
C660 C657 1.526 . S
C660 C661 1.396 . S
C660 C665 1.390 . S
C661 C655 1.465 . S
C661 C660 1.396 . S
C661 C662 1.399 . S
C662 H648 0.929 . S
C662 C661 1.399 . S
C662 C663 1.385 . S
C663 H649 0.931 . S
C663 C662 1.385 . S
C663 C664 1.389 . S
C664 C663 1.389 . S
C664 C665 1.387 . S
C665 H650 0.930 . S
C665 C660 1.390 . S
C665 C664 1.387 . S
H666 C678 0.930 . S
H667 C680 0.930 . S
H668 C681 0.930 . S
H669 C685 0.959 . S
H670 C685 0.959 . S
H671 C685 0.961 . S
H672 C686 0.960 . S
H673 C686 0.961 . S
H674 C686 0.959 . S
H675 C689 0.929 . S
H676 C690 0.931 . S
H677 C692 0.930 . S
C678 H666 0.930 . S
C678 C679 1.399 . S
C678 C683 1.399 . S
C679 C678 1.399 . S
C679 C680 1.376 . S
C680 H667 0.930 . S
C680 C679 1.376 . S
C680 C681 1.388 . S
C681 H668 0.930 . S
C681 C680 1.388 . S
C681 C682 1.390 . S
C682 C681 1.390 . S
C682 C683 1.394 . S
C682 C688 1.465 . S
C683 C678 1.399 . S
C683 C682 1.394 . S
C683 C684 1.516 . S
C684 C683 1.516 . S
C684 C685 1.502 . S
C684 C686 1.561 . S
C684 C687 1.526 . S
C685 H669 0.959 . S
C685 H670 0.959 . S
C685 H671 0.961 . S
C685 C684 1.502 . S
C686 H672 0.960 . S
C686 H673 0.961 . S
C686 H674 0.959 . S
C686 C684 1.561 . S
C687 C684 1.526 . S
C687 C688 1.396 . S
C687 C692 1.390 . S
C688 C682 1.465 . S
C688 C687 1.396 . S
C688 C689 1.399 . S
C689 H675 0.929 . S
C689 C688 1.399 . S
C689 C690 1.385 . S
C690 H676 0.931 . S
C690 C689 1.385 . S
C690 C691 1.389 . S
C691 C690 1.389 . S
C691 C692 1.387 . S
C692 H677 0.930 . S
C692 C687 1.390 . S
C692 C691 1.387 . S
H693 C705 0.930 . S
H694 C707 0.930 . S
H695 C708 0.930 . S
H696 C712 0.959 . S
H697 C712 0.959 . S
H698 C712 0.961 . S
H699 C713 0.960 . S
H700 C713 0.961 . S
H701 C713 0.959 . S
H702 C716 0.929 . S
H703 C717 0.931 . S
H704 C719 0.930 . S
C705 H693 0.930 . S
C705 C706 1.399 . S
C705 C710 1.399 . S
C706 C705 1.399 . S
C706 C707 1.376 . S
C707 H694 0.930 . S
C707 C706 1.376 . S
C707 C708 1.388 . S
C708 H695 0.930 . S
C708 C707 1.388 . S
C708 C709 1.390 . S
C709 C708 1.390 . S
C709 C710 1.394 . S
C709 C715 1.465 . S
C710 C705 1.399 . S
C710 C709 1.394 . S
C710 C711 1.516 . S
C711 C710 1.516 . S
C711 C712 1.502 . S
C711 C713 1.561 . S
C711 C714 1.526 . S
C712 H696 0.959 . S
C712 H697 0.959 . S
C712 H698 0.961 . S
C712 C711 1.502 . S
C713 H699 0.960 . S
C713 H700 0.961 . S
C713 H701 0.959 . S
C713 C711 1.561 . S
C714 C711 1.526 . S
C714 C715 1.396 . S
C714 C719 1.390 . S
C715 C709 1.465 . S
C715 C714 1.396 . S
C715 C716 1.399 . S
C716 H702 0.929 . S
C716 C715 1.399 . S
C716 C717 1.385 . S
C717 H703 0.931 . S
C717 C716 1.385 . S
C717 C718 1.389 . S
C718 C717 1.389 . S
C718 C719 1.387 . S
C719 H704 0.930 . S
C719 C714 1.390 . S
C719 C718 1.387 . S
H720 C732 0.930 . S
H721 C734 0.930 . S
H722 C735 0.930 . S
H723 C739 0.959 . S
H724 C739 0.959 . S
H725 C739 0.961 . S
H726 C740 0.960 . S
H727 C740 0.961 . S
H728 C740 0.959 . S
H729 C743 0.929 . S
H730 C744 0.931 . S
H731 C746 0.930 . S
C732 H720 0.930 . S
C732 C733 1.399 . S
C732 C737 1.399 . S
C733 C732 1.399 . S
C733 C734 1.376 . S
C734 H721 0.930 . S
C734 C733 1.376 . S
C734 C735 1.388 . S
C735 H722 0.930 . S
C735 C734 1.388 . S
C735 C736 1.390 . S
C736 C735 1.390 . S
C736 C737 1.394 . S
C736 C742 1.465 . S
C737 C732 1.399 . S
C737 C736 1.394 . S
C737 C738 1.516 . S
C738 C737 1.516 . S
C738 C739 1.502 . S
C738 C740 1.561 . S
C738 C741 1.526 . S
C739 H723 0.959 . S
C739 H724 0.959 . S
C739 H725 0.961 . S
C739 C738 1.502 . S
C740 H726 0.960 . S
C740 H727 0.961 . S
C740 H728 0.959 . S
C740 C738 1.561 . S
C741 C738 1.526 . S
C741 C742 1.396 . S
C741 C746 1.390 . S
C742 C736 1.465 . S
C742 C741 1.396 . S
C742 C743 1.399 . S
C743 H729 0.929 . S
C743 C742 1.399 . S
C743 C744 1.385 . S
C744 H730 0.931 . S
C744 C743 1.385 . S
C744 C745 1.389 . S
C745 C744 1.389 . S
C745 C746 1.387 . S
C746 H731 0.930 . S
C746 C741 1.390 . S
C746 C745 1.387 . S
H747 C759 0.930 . S
H748 C761 0.930 . S
H749 C762 0.930 . S
H750 C766 0.959 . S
H751 C766 0.959 . S
H752 C766 0.961 . S
H753 C767 0.960 . S
H754 C767 0.961 . S
H755 C767 0.959 . S
H756 C770 0.929 . S
H757 C771 0.931 . S
H758 C773 0.930 . S
C759 H747 0.930 . S
C759 C760 1.399 . S
C759 C764 1.399 . S
C760 C759 1.399 . S
C760 C761 1.376 . S
C761 H748 0.930 . S
C761 C760 1.376 . S
C761 C762 1.388 . S
C762 H749 0.930 . S
C762 C761 1.388 . S
C762 C763 1.390 . S
C763 C762 1.390 . S
C763 C764 1.394 . S
C763 C769 1.465 . S
C764 C759 1.399 . S
C764 C763 1.394 . S
C764 C765 1.516 . S
C765 C764 1.516 . S
C765 C766 1.502 . S
C765 C767 1.561 . S
C765 C768 1.526 . S
C766 H750 0.959 . S
C766 H751 0.959 . S
C766 H752 0.961 . S
C766 C765 1.502 . S
C767 H753 0.960 . S
C767 H754 0.961 . S
C767 H755 0.959 . S
C767 C765 1.561 . S
C768 C765 1.526 . S
C768 C769 1.396 . S
C768 C773 1.390 . S
C769 C763 1.465 . S
C769 C768 1.396 . S
C769 C770 1.399 . S
C770 H756 0.929 . S
C770 C769 1.399 . S
C770 C771 1.385 . S
C771 H757 0.931 . S
C771 C770 1.385 . S
C771 C772 1.389 . S
C772 C771 1.389 . S
C772 C773 1.387 . S
C773 H758 0.930 . S
C773 C768 1.390 . S
C773 C772 1.387 . S
H774 C786 0.930 . S
H775 C788 0.930 . S
H776 C789 0.930 . S
H777 C793 0.959 . S
H778 C793 0.959 . S
H779 C793 0.961 . S
H780 C794 0.960 . S
H781 C794 0.961 . S
H782 C794 0.959 . S
H783 C797 0.929 . S
H784 C798 0.931 . S
H785 C800 0.930 . S
C786 H774 0.930 . S
C786 C787 1.399 . S
C786 C791 1.399 . S
C787 C786 1.399 . S
C787 C788 1.376 . S
C788 H775 0.930 . S
C788 C787 1.376 . S
C788 C789 1.388 . S
C789 H776 0.930 . S
C789 C788 1.388 . S
C789 C790 1.390 . S
C790 C789 1.390 . S
C790 C791 1.394 . S
C790 C796 1.465 . S
C791 C786 1.399 . S
C791 C790 1.394 . S
C791 C792 1.516 . S
C792 C791 1.516 . S
C792 C793 1.502 . S
C792 C794 1.561 . S
C792 C795 1.526 . S
C793 H777 0.959 . S
C793 H778 0.959 . S
C793 H779 0.961 . S
C793 C792 1.502 . S
C794 H780 0.960 . S
C794 H781 0.961 . S
C794 H782 0.959 . S
C794 C792 1.561 . S
C795 C792 1.526 . S
C795 C796 1.396 . S
C795 C800 1.390 . S
C796 C790 1.465 . S
C796 C795 1.396 . S
C796 C797 1.399 . S
C797 H783 0.929 . S
C797 C796 1.399 . S
C797 C798 1.385 . S
C798 H784 0.931 . S
C798 C797 1.385 . S
C798 C799 1.389 . S
C799 C798 1.389 . S
C799 C800 1.387 . S
C800 H785 0.930 . S
C800 C795 1.390 . S
C800 C799 1.387 . S
H801 C813 0.930 . S
H802 C815 0.930 . S
H803 C816 0.930 . S
H804 C820 0.959 . S
H805 C820 0.959 . S
H806 C820 0.961 . S
H807 C821 0.960 . S
H808 C821 0.961 . S
H809 C821 0.959 . S
H810 C824 0.929 . S
H811 C825 0.931 . S
H812 C827 0.930 . S
C813 H801 0.930 . S
C813 C814 1.399 . S
C813 C818 1.399 . S
C814 C813 1.399 . S
C814 C815 1.376 . S
C815 H802 0.930 . S
C815 C814 1.376 . S
C815 C816 1.388 . S
C816 H803 0.930 . S
C816 C815 1.388 . S
C816 C817 1.390 . S
C817 C816 1.390 . S
C817 C818 1.394 . S
C817 C823 1.465 . S
C818 C813 1.399 . S
C818 C817 1.394 . S
C818 C819 1.516 . S
C819 C818 1.516 . S
C819 C820 1.502 . S
C819 C821 1.561 . S
C819 C822 1.526 . S
C820 H804 0.959 . S
C820 H805 0.959 . S
C820 H806 0.961 . S
C820 C819 1.502 . S
C821 H807 0.960 . S
C821 H808 0.961 . S
C821 H809 0.959 . S
C821 C819 1.561 . S
C822 C819 1.526 . S
C822 C823 1.396 . S
C822 C827 1.390 . S
C823 C817 1.465 . S
C823 C822 1.396 . S
C823 C824 1.399 . S
C824 H810 0.929 . S
C824 C823 1.399 . S
C824 C825 1.385 . S
C825 H811 0.931 . S
C825 C824 1.385 . S
C825 C826 1.389 . S
C826 C825 1.389 . S
C826 C827 1.387 . S
C827 H812 0.930 . S
C827 C822 1.390 . S
C827 C826 1.387 . S
H828 C840 0.930 . S
H829 C842 0.930 . S
H830 C843 0.930 . S
H831 C847 0.959 . S
H832 C847 0.959 . S
H833 C847 0.961 . S
H834 C848 0.960 . S
H835 C848 0.961 . S
H836 C848 0.959 . S
H837 C851 0.929 . S
H838 C852 0.931 . S
H839 C854 0.930 . S
C840 H828 0.930 . S
C840 C841 1.399 . S
C840 C845 1.399 . S
C841 C840 1.399 . S
C841 C842 1.376 . S
C842 H829 0.930 . S
C842 C841 1.376 . S
C842 C843 1.388 . S
C843 H830 0.930 . S
C843 C842 1.388 . S
C843 C844 1.390 . S
C844 C843 1.390 . S
C844 C845 1.394 . S
C844 C850 1.465 . S
C845 C840 1.399 . S
C845 C844 1.394 . S
C845 C846 1.516 . S
C846 C845 1.516 . S
C846 C847 1.502 . S
C846 C848 1.561 . S
C846 C849 1.526 . S
C847 H831 0.959 . S
C847 H832 0.959 . S
C847 H833 0.961 . S
C847 C846 1.502 . S
C848 H834 0.960 . S
C848 H835 0.961 . S
C848 H836 0.959 . S
C848 C846 1.561 . S
C849 C846 1.526 . S
C849 C850 1.396 . S
C849 C854 1.390 . S
C850 C844 1.465 . S
C850 C849 1.396 . S
C850 C851 1.399 . S
C851 H837 0.929 . S
C851 C850 1.399 . S
C851 C852 1.385 . S
C852 H838 0.931 . S
C852 C851 1.385 . S
C852 C853 1.389 . S
C853 C852 1.389 . S
C853 C854 1.387 . S
C854 H839 0.930 . S
C854 C849 1.390 . S
C854 C853 1.387 . S
H855 C867 0.930 . S
H856 C869 0.930 . S
H857 C870 0.930 . S
H858 C874 0.959 . S
H859 C874 0.959 . S
H860 C874 0.961 . S
H861 C875 0.960 . S
H862 C875 0.961 . S
H863 C875 0.959 . S
H864 C878 0.929 . S
H865 C879 0.931 . S
H866 C881 0.930 . S
C867 H855 0.930 . S
C867 C868 1.399 . S
C867 C872 1.399 . S
C868 C867 1.399 . S
C868 C869 1.376 . S
C869 H856 0.930 . S
C869 C868 1.376 . S
C869 C870 1.388 . S
C870 H857 0.930 . S
C870 C869 1.388 . S
C870 C871 1.390 . S
C871 C870 1.390 . S
C871 C872 1.394 . S
C871 C877 1.465 . S
C872 C867 1.399 . S
C872 C871 1.394 . S
C872 C873 1.516 . S
C873 C872 1.516 . S
C873 C874 1.502 . S
C873 C875 1.561 . S
C873 C876 1.526 . S
C874 H858 0.959 . S
C874 H859 0.959 . S
C874 H860 0.961 . S
C874 C873 1.502 . S
C875 H861 0.960 . S
C875 H862 0.961 . S
C875 H863 0.959 . S
C875 C873 1.561 . S
C876 C873 1.526 . S
C876 C877 1.396 . S
C876 C881 1.390 . S
C877 C871 1.465 . S
C877 C876 1.396 . S
C877 C878 1.399 . S
C878 H864 0.929 . S
C878 C877 1.399 . S
C878 C879 1.385 . S
C879 H865 0.931 . S
C879 C878 1.385 . S
C879 C880 1.389 . S
C880 C879 1.389 . S
C880 C881 1.387 . S
C881 H866 0.930 . S
C881 C876 1.390 . S
C881 C880 1.387 . S
H882 C894 0.930 . S
H883 C896 0.930 . S
H884 C897 0.930 . S
H885 C901 0.959 . S
H886 C901 0.959 . S
H887 C901 0.961 . S
H888 C902 0.960 . S
H889 C902 0.961 . S
H890 C902 0.959 . S
H891 C905 0.929 . S
H892 C906 0.931 . S
H893 C908 0.930 . S
C894 H882 0.930 . S
C894 C895 1.399 . S
C894 C899 1.399 . S
C895 C894 1.399 . S
C895 C896 1.376 . S
C896 H883 0.930 . S
C896 C895 1.376 . S
C896 C897 1.388 . S
C897 H884 0.930 . S
C897 C896 1.388 . S
C897 C898 1.390 . S
C898 C897 1.390 . S
C898 C899 1.394 . S
C898 C904 1.465 . S
C899 C894 1.399 . S
C899 C898 1.394 . S
C899 C900 1.516 . S
C900 C899 1.516 . S
C900 C901 1.502 . S
C900 C902 1.561 . S
C900 C903 1.526 . S
C901 H885 0.959 . S
C901 H886 0.959 . S
C901 H887 0.961 . S
C901 C900 1.502 . S
C902 H888 0.960 . S
C902 H889 0.961 . S
C902 H890 0.959 . S
C902 C900 1.561 . S
C903 C900 1.526 . S
C903 C904 1.396 . S
C903 C908 1.390 . S
C904 C898 1.465 . S
C904 C903 1.396 . S
C904 C905 1.399 . S
C905 H891 0.929 . S
C905 C904 1.399 . S
C905 C906 1.385 . S
C906 H892 0.931 . S
C906 C905 1.385 . S
C906 C907 1.389 . S
C907 C906 1.389 . S
C907 C908 1.387 . S
C908 H893 0.930 . S
C908 C903 1.390 . S
C908 C907 1.387 . S
H909 C921 0.930 . S
H910 C923 0.930 . S
H911 C924 0.930 . S
H912 C928 0.959 . S
H913 C928 0.959 . S
H914 C928 0.961 . S
H915 C929 0.960 . S
H916 C929 0.961 . S
H917 C929 0.959 . S
H918 C932 0.929 . S
H919 C933 0.931 . S
H920 C935 0.930 . S
C921 H909 0.930 . S
C921 C922 1.399 . S
C921 C926 1.399 . S
C922 C921 1.399 . S
C922 C923 1.376 . S
C923 H910 0.930 . S
C923 C922 1.376 . S
C923 C924 1.388 . S
C924 H911 0.930 . S
C924 C923 1.388 . S
C924 C925 1.390 . S
C925 C924 1.390 . S
C925 C926 1.394 . S
C925 C931 1.465 . S
C926 C921 1.399 . S
C926 C925 1.394 . S
C926 C927 1.516 . S
C927 C926 1.516 . S
C927 C928 1.502 . S
C927 C929 1.561 . S
C927 C930 1.526 . S
C928 H912 0.959 . S
C928 H913 0.959 . S
C928 H914 0.961 . S
C928 C927 1.502 . S
C929 H915 0.960 . S
C929 H916 0.961 . S
C929 H917 0.959 . S
C929 C927 1.561 . S
C930 C927 1.526 . S
C930 C931 1.396 . S
C930 C935 1.390 . S
C931 C925 1.465 . S
C931 C930 1.396 . S
C931 C932 1.399 . S
C932 H918 0.929 . S
C932 C931 1.399 . S
C932 C933 1.385 . S
C933 H919 0.931 . S
C933 C932 1.385 . S
C933 C934 1.389 . S
C934 C933 1.389 . S
C934 C935 1.387 . S
C935 H920 0.930 . S
C935 C930 1.390 . S
C935 C934 1.387 . S
H936 C948 0.930 . S
H937 C950 0.930 . S
H938 C951 0.930 . S
H939 C955 0.959 . S
H940 C955 0.959 . S
H941 C955 0.961 . S
H942 C956 0.960 . S
H943 C956 0.961 . S
H944 C956 0.959 . S
H945 C959 0.929 . S
H946 C960 0.931 . S
H947 C962 0.930 . S
C948 H936 0.930 . S
C948 C949 1.399 . S
C948 C953 1.399 . S
C949 C948 1.399 . S
C949 C950 1.376 . S
C950 H937 0.930 . S
C950 C949 1.376 . S
C950 C951 1.388 . S
C951 H938 0.930 . S
C951 C950 1.388 . S
C951 C952 1.390 . S
C952 C951 1.390 . S
C952 C953 1.394 . S
C952 C958 1.465 . S
C953 C948 1.399 . S
C953 C952 1.394 . S
C953 C954 1.516 . S
C954 C953 1.516 . S
C954 C955 1.502 . S
C954 C956 1.561 . S
C954 C957 1.526 . S
C955 H939 0.959 . S
C955 H940 0.959 . S
C955 H941 0.961 . S
C955 C954 1.502 . S
C956 H942 0.960 . S
C956 H943 0.961 . S
C956 H944 0.959 . S
C956 C954 1.561 . S
C957 C954 1.526 . S
C957 C958 1.396 . S
C957 C962 1.390 . S
C958 C952 1.465 . S
C958 C957 1.396 . S
C958 C959 1.399 . S
C959 H945 0.929 . S
C959 C958 1.399 . S
C959 C960 1.385 . S
C960 H946 0.931 . S
C960 C959 1.385 . S
C960 C961 1.389 . S
C961 C960 1.389 . S
C961 C962 1.387 . S
C962 H947 0.930 . S
C962 C957 1.390 . S
C962 C961 1.387 . S
H963 C975 0.930 . S
H964 C977 0.930 . S
H965 C978 0.930 . S
H966 C982 0.959 . S
H967 C982 0.959 . S
H968 C982 0.961 . S
H969 C983 0.960 . S
H970 C983 0.961 . S
H971 C983 0.959 . S
H972 C986 0.929 . S
H973 C987 0.931 . S
H974 C989 0.930 . S
C975 H963 0.930 . S
C975 C976 1.399 . S
C975 C980 1.399 . S
C976 C975 1.399 . S
C976 C977 1.376 . S
C977 H964 0.930 . S
C977 C976 1.376 . S
C977 C978 1.388 . S
C978 H965 0.930 . S
C978 C977 1.388 . S
C978 C979 1.390 . S
C979 C978 1.390 . S
C979 C980 1.394 . S
C979 C985 1.465 . S
C980 C975 1.399 . S
C980 C979 1.394 . S
C980 C981 1.516 . S
C981 C980 1.516 . S
C981 C982 1.502 . S
C981 C983 1.561 . S
C981 C984 1.526 . S
C982 H966 0.959 . S
C982 H967 0.959 . S
C982 H968 0.961 . S
C982 C981 1.502 . S
C983 H969 0.960 . S
C983 H970 0.961 . S
C983 H971 0.959 . S
C983 C981 1.561 . S
C984 C981 1.526 . S
C984 C985 1.396 . S
C984 C989 1.390 . S
C985 C979 1.465 . S
C985 C984 1.396 . S
C985 C986 1.399 . S
C986 H972 0.929 . S
C986 C985 1.399 . S
C986 C987 1.385 . S
C987 H973 0.931 . S
C987 C986 1.385 . S
C987 C988 1.389 . S
C988 C987 1.389 . S
C988 C989 1.387 . S
C989 H974 0.930 . S
C989 C984 1.390 . S
C989 C988 1.387 . S
H990 C1002 0.930 . S
H991 C1004 0.930 . S
H992 C1005 0.930 . S
H993 C1009 0.959 . S
H994 C1009 0.959 . S
H995 C1009 0.961 . S
H996 C1010 0.960 . S
H997 C1010 0.961 . S
H998 C1010 0.959 . S
H999 C1013 0.929 . S
H1000 C1014 0.931 . S
H1001 C1016 0.930 . S
C1002 H990 0.930 . S
C1002 C1003 1.399 . S
C1002 C1007 1.399 . S
C1003 C1002 1.399 . S
C1003 C1004 1.376 . S
C1004 H991 0.930 . S
C1004 C1003 1.376 . S
C1004 C1005 1.388 . S
C1005 H992 0.930 . S
C1005 C1004 1.388 . S
C1005 C1006 1.390 . S
C1006 C1005 1.390 . S
C1006 C1007 1.394 . S
C1006 C1012 1.465 . S
C1007 C1002 1.399 . S
C1007 C1006 1.394 . S
C1007 C1008 1.516 . S
C1008 C1007 1.516 . S
C1008 C1009 1.502 . S
C1008 C1010 1.561 . S
C1008 C1011 1.526 . S
C1009 H993 0.959 . S
C1009 H994 0.959 . S
C1009 H995 0.961 . S
C1009 C1008 1.502 . S
C1010 H996 0.960 . S
C1010 H997 0.961 . S
C1010 H998 0.959 . S
C1010 C1008 1.561 . S
C1011 C1008 1.526 . S
C1011 C1012 1.396 . S
C1011 C1016 1.390 . S
C1012 C1006 1.465 . S
C1012 C1011 1.396 . S
C1012 C1013 1.399 . S
C1013 H999 0.929 . S
C1013 C1012 1.399 . S
C1013 C1014 1.385 . S
C1014 H1000 0.931 . S
C1014 C1013 1.385 . S
C1014 C1015 1.389 . S
C1015 C1014 1.389 . S
C1015 C1016 1.387 . S
C1016 H1001 0.930 . S
C1016 C1011 1.390 . S
C1016 C1015 1.387 . S
H1017 C1029 0.930 . S
H1018 C1031 0.930 . S
H1019 C1032 0.930 . S
H1020 C1036 0.959 . S
H1021 C1036 0.959 . S
H1022 C1036 0.961 . S
H1023 C1037 0.960 . S
H1024 C1037 0.961 . S
H1025 C1037 0.959 . S
H1026 C1040 0.929 . S
H1027 C1041 0.931 . S
H1028 C1043 0.930 . S
C1029 H1017 0.930 . S
C1029 C1030 1.399 . S
C1029 C1034 1.399 . S
C1030 C1029 1.399 . S
C1030 C1031 1.376 . S
C1031 H1018 0.930 . S
C1031 C1030 1.376 . S
C1031 C1032 1.388 . S
C1032 H1019 0.930 . S
C1032 C1031 1.388 . S
C1032 C1033 1.390 . S
C1033 C1032 1.390 . S
C1033 C1034 1.394 . S
C1033 C1039 1.465 . S
C1034 C1029 1.399 . S
C1034 C1033 1.394 . S
C1034 C1035 1.516 . S
C1035 C1034 1.516 . S
C1035 C1036 1.502 . S
C1035 C1037 1.561 . S
C1035 C1038 1.526 . S
C1036 H1020 0.959 . S
C1036 H1021 0.959 . S
C1036 H1022 0.961 . S
C1036 C1035 1.502 . S
C1037 H1023 0.960 . S
C1037 H1024 0.961 . S
C1037 H1025 0.959 . S
C1037 C1035 1.561 . S
C1038 C1035 1.526 . S
C1038 C1039 1.396 . S
C1038 C1043 1.390 . S
C1039 C1033 1.465 . S
C1039 C1038 1.396 . S
C1039 C1040 1.399 . S
C1040 H1026 0.929 . S
C1040 C1039 1.399 . S
C1040 C1041 1.385 . S
C1041 H1027 0.931 . S
C1041 C1040 1.385 . S
C1041 C1042 1.389 . S
C1042 C1041 1.389 . S
C1042 C1043 1.387 . S
C1043 H1028 0.930 . S
C1043 C1038 1.390 . S
C1043 C1042 1.387 . S
C421 C324 1.503 . S
C409 C16 1.511 . S
C448 C327 1.496 . S
C436 C55 1.493 . S
C475 C325 1.509 . S
C463 C99 1.505 . S
C502 C326 1.500 . S
C490 C138 1.492 . S
C529 C341 1.496 . S
C517 C1 1.503 . S
C556 C355 1.487 . S
C544 C40 1.501 . S
C571 C94 1.503 . S
C583 C381 1.501 . S
C610 C395 1.503 . S
C598 C133 1.495 . S
C637 C340 1.491 . S
C625 C60 1.499 . S
C652 C79 1.502 . S
C664 C354 1.510 . S
C691 C380 1.496 . S
C679 C118 1.498 . S
C718 C394 1.499 . S
C706 C21 1.508 . S
C733 C177 1.499 . S
C745 C339 1.489 . S
C772 C312 1.501 . S
C760 C211 1.508 . S
C787 C255 1.501 . S
C799 C338 1.489 . S
C814 C289 1.509 . S
C826 C313 1.512 . S
C853 C368 1.490 . S
C841 C157 1.494 . S
C880 C382 1.501 . S
C868 C196 1.504 . S
C907 C352 1.490 . S
C895 C250 1.498 . S
C922 C294 1.505 . S
C934 C366 1.498 . S
C961 C369 1.490 . S
C949 C216 1.498 . S
C988 C383 1.495 . S
C976 C235 1.495 . S
C1015 C353 1.496 . S
C1003 C274 1.502 . S
C1030 C172 1.498 . S
C1042 C367 1.500 . S
