# Generated by pormake.
# Topology rtl, (3,6)-cn, num edge types: 1
# Building blocks:
#     Node 0, Type 0, BuildingBlock: CUQRIR_clean_linker_1, # of connection points: 3
#     Node 1, Type 0, BuildingBlock: CUQRIR_clean_linker_1, # of connection points: 3
#     Node 2, Type 0, BuildingBlock: CUQRIR_clean_linker_1, # of connection points: 3
#     Node 3, Type 0, BuildingBlock: CUQRIR_clean_linker_1, # of connection points: 3
#     Node 4, Type 1, BuildingBlock: CIFDUS_clean_sbu_1, # of connection points: 6
#     Node 5, Type 1, BuildingBlock: CIFDUS_clean_sbu_1, # of connection points: 6
#     Edge 6, Type (0, 1), BuildingBlock: XIVTED_clean_linker_0, # of connection points: 2
#     Edge 7, Type (0, 1), BuildingBlock: XIVTED_clean_linker_0, # of connection points: 2
#     Edge 8, Type (0, 1), BuildingBlock: XIVTED_clean_linker_0, # of connection points: 2
#     Edge 9, Type (0, 1), BuildingBlock: XIVTED_clean_linker_0, # of connection points: 2
#     Edge 10, Type (0, 1), BuildingBlock: XIVTED_clean_linker_0, # of connection points: 2
#     Edge 11, Type (0, 1), BuildingBlock: XIVTED_clean_linker_0, # of connection points: 2
#     Edge 12, Type (0, 1), BuildingBlock: XIVTED_clean_linker_0, # of connection points: 2
#     Edge 13, Type (0, 1), BuildingBlock: XIVTED_clean_linker_0, # of connection points: 2
#     Edge 14, Type (0, 1), BuildingBlock: XIVTED_clean_linker_0, # of connection points: 2
#     Edge 15, Type (0, 1), BuildingBlock: XIVTED_clean_linker_0, # of connection points: 2
#     Edge 16, Type (0, 1), BuildingBlock: XIVTED_clean_linker_0, # of connection points: 2
#     Edge 17, Type (0, 1), BuildingBlock: XIVTED_clean_linker_0, # of connection points: 2
# Relax obj value: 0.023
# Max RMSD: 0.122
# Mean RMSD: 0.101
data_MOF--net-rtl--node1-CIFDUS_clean_sbu_1--node2-CUQRIR_clean_linker_1--edge1-XIVTED_clean_linker_0
_symmetry_space_group_name_H-M    P1
_symmetry_Int_Tables_number       1
_symmetry_cell_setting            triclinic
loop_
_symmetry_equiv_pos_as_xyz
'x, y, z'
_cell_length_a     33.433642
_cell_length_b     33.409314
_cell_length_c     20.232131
_cell_angle_alpha  90.062393
_cell_angle_beta   97.503578
_cell_angle_gamma 90.127974
loop_
_atom_site_label
_atom_site_type_symbol
_atom_site_fract_x
_atom_site_fract_y
_atom_site_fract_z
_atom_type_partial_charge
C0 C 0.22835 0.80435 0.04608 0.0
N1 N 0.20084 0.83098 0.06278 0.0
N2 N 0.24943 0.78827 0.10127 0.0
C3 C 0.23434 0.79382 0.97576 0.0
C4 C 0.2341 0.80633 0.15222 0.0
N5 N 0.20433 0.83227 0.12904 0.0
C6 C 0.251 0.80128 0.2244 0.0
H7 H 0.24627 0.76299 0.97296 0.0
H8 H 0.25643 0.81501 0.95866 0.0
H9 H 0.20562 0.79648 0.94176 0.0
H10 H 0.28359 0.79385 0.2294 0.0
H11 H 0.23506 0.77629 0.24591 0.0
H12 H 0.24696 0.82893 0.25322 0.0
C13 C 0.72296 0.72236 0.64407 0.0
N14 N 0.69715 0.69407 0.61554 0.0
N15 N 0.73641 0.74577 0.59714 0.0
C16 C 0.73401 0.72844 0.71785 0.0
C17 C 0.71782 0.73081 0.53875 0.0
N18 N 0.69387 0.6992 0.54969 0.0
C19 C 0.7234 0.74692 0.47104 0.0
H20 H 0.73336 0.76084 0.72988 0.0
H21 H 0.76527 0.71771 0.73263 0.0
H22 H 0.71348 0.71206 0.74722 0.0
H23 H 0.7485 0.73061 0.45225 0.0
H24 H 0.73131 0.77912 0.47316 0.0
H25 H 0.69564 0.7426 0.43521 0.0
C26 C 0.79907 0.23458 0.05939 0.0
N27 N 0.82554 0.20619 0.04468 0.0
N28 N 0.77818 0.24956 1.00287 0.0
C29 C 0.7918 0.24577 0.12888 0.0
C30 C 0.7925 0.22902 0.95338 0.0
N31 N 0.82081 0.20231 0.97864 0.0
C32 C 0.77836 0.23474 0.88037 0.0
H33 H 0.77945 0.21944 0.15286 0.0
H34 H 0.77052 0.27115 0.12901 0.0
H35 H 0.82057 0.25422 0.15926 0.0
H36 H 0.79604 0.25937 0.86144 0.0
H37 H 0.74602 0.24321 0.8723 0.0
H38 H 0.78289 0.20726 0.85146 0.0
C39 C 0.27846 0.30083 0.44622 0.0
N40 N 0.30576 0.3295 0.46919 0.0
N41 N 0.26189 0.2838 0.49703 0.0
C42 C 0.27171 0.28563 0.37556 0.0
C43 C 0.2805 0.30253 0.55199 0.0
N44 N 0.30755 0.32976 0.5354 0.0
C45 C 0.27026 0.29634 0.62152 0.0
H46 H 0.24594 0.30181 0.34761 0.0
H47 H 0.26428 0.25322 0.3744 0.0
H48 H 0.29887 0.29035 0.35031 0.0
H49 H 0.29086 0.27354 0.647 0.0
H50 H 0.23872 0.28571 0.62055 0.0
H51 H 0.27427 0.32454 0.65073 0.0
O52 O 0.97761 0.04315 0.46748 0.0
Mn53 Mn 0.00494 0.01059 0.55185 0.0
O54 O 0.94867 0.99563 0.39832 0.0
Mn55 Mn 0.96627 0.95213 0.44901 0.0
O56 O 0.03328 0.97739 0.63544 0.0
O57 O 0.04666 0.05533 0.57363 0.0
Mn58 Mn 0.04968 0.06299 0.66101 0.0
O59 O 0.9632 0.03627 0.60916 0.0
O60 O 0.07861 0.01902 0.69227 0.0
O61 O 0.04671 0.98589 0.49271 0.0
O62 O 0.01641 0.93393 0.43709 0.0
O63 O 0.06631 0.10959 0.62671 0.0
O64 O 0.00088 0.0683 0.69227 0.0
C65 C 0.93737 0.93542 0.52967 0.0
C66 C 0.95683 0.03216 0.41195 0.0
C67 C 0.06385 0.98415 0.68048 0.0
C68 C 0.05731 0.0926 0.56921 0.0
C69 C 0.96704 0.05678 0.66331 0.0
C70 C 0.04729 0.95535 0.45407 0.0
O71 O 0.96422 0.96425 0.53343 0.0
O72 O 0.92961 0.9172 0.47284 0.0
O73 O 0.53988 0.54386 0.11839 0.0
Mn74 Mn 0.50595 0.50962 0.04395 0.0
O75 O 0.554 0.50002 0.20032 0.0
Mn76 Mn 0.5459 0.45492 0.14727 0.0
O77 O 0.47107 0.47699 0.96648 0.0
O78 O 0.46635 0.55799 0.03415 0.0
Mn79 Mn 0.46602 0.56754 0.94849 0.0
O80 O 0.54384 0.53077 0.97316 0.0
O81 O 0.44548 0.52535 0.89695 0.0
O82 O 0.46846 0.48622 0.11374 0.0
O83 O 0.49839 0.43052 0.15737 0.0
O84 O 0.43118 0.60391 0.96917 0.0
O85 O 0.51474 0.58684 0.9334 0.0
C86 C 0.58066 0.44801 0.06763 0.0
C87 C 0.55266 0.53557 0.17915 0.0
C88 C 0.44976 0.48865 0.91213 0.0
C89 C 0.44129 0.5886 0.02786 0.0
C90 C 0.54388 0.56277 0.93755 0.0
C91 C 0.46789 0.45339 0.14785 0.0
O92 O 0.54323 0.46035 0.05843 0.0
O93 O 0.59315 0.43566 0.1274 0.0
H94 H 0.18906 0.28307 0.42126 0.0
H95 H 0.13128 0.06705 0.5515 0.0
H96 H 0.26642 0.21359 0.5641 0.0
H97 H 0.04174 0.15547 0.48436 0.0
H98 H 0.18402 0.11276 0.52445 0.0
H99 H 0.13765 0.22987 0.41655 0.0
C100 C 0.19519 0.25641 0.45119 0.0
C101 C 0.23178 0.25257 0.49328 0.0
C102 C 0.15272 0.12158 0.51309 0.0
C103 C 0.17368 0.19167 0.48769 0.0
C104 C 0.12247 0.09504 0.52676 0.0
C105 C 0.08194 0.10722 0.51912 0.0
C106 C 0.14228 0.16026 0.49005 0.0
C107 C 0.0725 0.14465 0.48984 0.0
C108 C 0.16597 0.22619 0.4486 0.0
C109 C 0.2384 0.21766 0.53149 0.0
N110 N 0.10247 0.17011 0.47716 0.0
N111 N 0.20965 0.18853 0.52781 0.0
H112 H 0.3207 0.79399 0.05302 0.0
H113 H 0.37534 0.56774 0.08608 0.0
H114 H 0.24922 0.71568 0.15929 0.0
H115 H 0.46646 0.65858 0.08275 0.0
H116 H 0.32875 0.61876 0.11811 0.0
H117 H 0.37385 0.74284 0.0603 0.0
C118 C 0.31644 0.76593 0.07796 0.0
C119 C 0.28085 0.75867 0.10544 0.0
C120 C 0.35947 0.62726 0.11296 0.0
C121 C 0.34103 0.70026 0.11434 0.0
C122 C 0.38636 0.59794 0.09626 0.0
C123 C 0.42499 0.60888 0.08274 0.0
C124 C 0.3712 0.66771 0.11432 0.0
C125 C 0.43716 0.64882 0.09394 0.0
C126 C 0.34675 0.73697 0.08277 0.0
C127 C 0.27647 0.72207 0.13765 0.0
N128 N 0.41 0.67703 0.10685 0.0
N129 N 0.30602 0.69391 0.14056 0.0
H130 H 0.72216 0.82408 0.57118 0.0
H131 H 0.9561 0.87684 0.6206 0.0
H132 H 0.81503 0.74117 0.64727 0.0
H133 H 0.86329 0.96102 0.5494 0.0
H134 H 0.90469 0.83214 0.65527 0.0
H135 H 0.77228 0.87843 0.58172 0.0
C136 C 0.75322 0.81758 0.59046 0.0
C137 C 0.76492 0.7783 0.60731 0.0
C138 C 0.89555 0.86101 0.63431 0.0
C139 C 0.82236 0.83997 0.62043 0.0
C140 C 0.92511 0.88701 0.616 0.0
C141 C 0.91401 0.92291 0.58281 0.0
C142 C 0.85454 0.87084 0.61841 0.0
C143 C 0.87319 0.93389 0.57583 0.0
C144 C 0.78177 0.8485 0.59692 0.0
C145 C 0.80518 0.77117 0.63326 0.0
N146 N 0.84483 0.90757 0.59179 0.0
N147 N 0.83258 0.80159 0.63832 0.0
H148 H 0.70446 0.24116 0.04127 0.0
H149 H 0.64955 0.46796 0.01742 0.0
H150 H 0.77928 0.32334 0.94891 0.0
H151 H 0.55792 0.37692 0.01166 0.0
H152 H 0.69698 0.41763 0.98615 0.0
H153 H 0.6504 0.29147 0.03176 0.0
C154 C 0.70922 0.26989 0.01879 0.0
C155 C 0.74613 0.27858 0.99639 0.0
C156 C 0.66607 0.40891 0.98927 0.0
C157 C 0.68489 0.3361 0.98497 0.0
C158 C 0.63876 0.43784 1.00578 0.0
C159 C 0.59955 0.42676 0.01602 0.0
C160 C 0.65436 0.36846 0.98521 0.0
C161 C 0.58762 0.38689 1.00284 0.0
C162 C 0.67842 0.29841 0.01277 0.0
C163 C 0.75113 0.31595 0.96709 0.0
N164 N 0.61522 0.35894 0.99024 0.0
N165 N 0.72105 0.34364 0.96302 0.0
H166 H 0.18941 0.91271 0.12914 0.0
H167 H 0.0993 0.89343 0.47485 0.0
H168 H 0.16351 0.80162 0.22262 0.0
H169 H 0.06965 0.99528 0.34783 0.0
H170 H 0.13938 0.86626 0.3924 0.0
H171 H 0.1562 0.94911 0.21354 0.0
C172 C 0.17617 0.89604 0.16668 0.0
C173 C 0.17936 0.85416 0.16952 0.0
C174 C 0.1248 0.89499 0.38303 0.0
C175 C 0.14346 0.89525 0.26713 0.0
C176 C 0.10264 0.91079 0.43068 0.0
C177 C 0.08205 0.94697 0.41867 0.0
C178 C 0.12581 0.91514 0.32229 0.0
C179 C 0.08612 0.96776 0.35952 0.0
C180 C 0.15777 0.91675 0.21517 0.0
C181 C 0.16215 0.83393 0.2195 0.0
N182 N 0.10722 0.95134 0.31294 0.0
N183 N 0.14554 0.85459 0.26671 0.0
H184 H 0.72495 0.62471 0.67301 0.0
H185 H 0.51849 0.57903 0.8101 0.0
H186 H 0.62225 0.70293 0.6467 0.0
H187 H 0.62846 0.56023 0.94351 0.0
H188 H 0.55732 0.60523 0.72675 0.0
H189 H 0.69098 0.58378 0.75155 0.0
C190 C 0.69473 0.63235 0.68226 0.0
C191 C 0.67534 0.66595 0.65126 0.0
C192 C 0.57315 0.59471 0.77366 0.0
C193 C 0.63713 0.62041 0.74087 0.0
C194 C 0.5511 0.5796 0.82142 0.0
C195 C 0.5702 0.56809 0.88457 0.0
C196 C 0.61503 0.59788 0.78786 0.0
C197 C 0.61256 0.56899 0.8957 0.0
C198 C 0.67576 0.6095 0.72749 0.0
C199 C 0.63713 0.67605 0.66691 0.0
N200 N 0.63377 0.58419 0.84775 0.0
N201 N 0.61912 0.6532 0.71001 0.0
H202 H 0.82085 0.12642 0.05811 0.0
H203 H 0.964 0.11593 0.40806 0.0
H204 H 0.88561 0.23025 0.14028 0.0
H205 H 0.91474 0.01439 0.29175 0.0
H206 H 0.93639 0.16007 0.31487 0.0
H207 H 0.8568 0.08561 0.14616 0.0
C208 C 0.84337 0.14038 0.09408 0.0
C209 C 0.85043 0.18152 0.09189 0.0
C210 C 0.93198 0.12802 0.3103 0.0
C211 C 0.8909 0.13548 0.19525 0.0
C212 C 0.94756 0.10289 0.36351 0.0
C213 C 0.94152 0.06124 0.35864 0.0
C214 C 0.91029 0.1112 0.25235 0.0
C215 C 0.92018 0.04612 0.29914 0.0
C216 C 0.86364 0.11727 0.14507 0.0
C217 C 0.87912 0.19853 0.14104 0.0
N218 N 0.90547 0.07091 0.24915 0.0
N219 N 0.89812 0.17553 0.19129 0.0
H220 H 0.36879 0.30157 0.62181 0.0
H221 H 0.37993 0.50297 0.83385 0.0
H222 H 0.30492 0.40928 0.55871 0.0
H223 H 0.47039 0.41131 0.87599 0.0
H224 H 0.34934 0.46505 0.73852 0.0
H225 H 0.40545 0.33806 0.71696 0.0
C226 C 0.36335 0.33324 0.62748 0.0
C227 C 0.33435 0.35278 0.58245 0.0
C228 C 0.37576 0.45292 0.76841 0.0
C229 C 0.37479 0.39425 0.69168 0.0
C230 C 0.3932 0.47445 0.82346 0.0
C231 C 0.42807 0.4605 0.86302 0.0
C232 C 0.39279 0.41657 0.75218 0.0
C233 C 0.44344 0.4231 0.84717 0.0
C234 C 0.38395 0.35391 0.68179 0.0
C235 C 0.32751 0.39349 0.59197 0.0
N236 N 0.42573 0.40239 0.79259 0.0
N237 N 0.34728 0.41279 0.64592 0.0
H238 H 0.61328 0.68238 0.5341 0.0
H239 H 0.60657 0.59658 0.16679 0.0
H240 H 0.72224 0.66177 0.44689 0.0
H241 H 0.53302 0.54405 0.30379 0.0
H242 H 0.64011 0.63823 0.25876 0.0
H243 H 0.5751 0.64554 0.44143 0.0
C244 C 0.62934 0.66944 0.49643 0.0
C245 C 0.67117 0.6746 0.49897 0.0
C246 C 0.61617 0.61794 0.2681 0.0
C247 C 0.62727 0.63522 0.39033 0.0
C248 C 0.59679 0.59465 0.21567 0.0
C249 C 0.56712 0.56696 0.228 0.0
C250 C 0.60502 0.61399 0.33247 0.0
C251 C 0.55585 0.5651 0.29247 0.0
C252 C 0.60742 0.64913 0.44287 0.0
C253 C 0.69001 0.65871 0.44659 0.0
N254 N 0.57477 0.58828 0.34233 0.0
N255 N 0.66791 0.64019 0.39402 0.0
H256 H 0.88765 0.22169 0.92613 0.0
H257 H 0.91465 0.01801 0.73607 0.0
H258 H 0.80207 0.12663 0.93807 0.0
H259 H 0.94502 0.13352 0.66229 0.0
H260 H 0.8769 0.05169 0.81737 0.0
H261 H 0.91747 0.18363 0.84093 0.0
C262 C 0.87606 0.19218 0.91195 0.0
C263 C 0.84328 0.17664 0.93992 0.0
C264 C 0.89098 0.06949 0.78206 0.0
C265 C 0.87605 0.1334 0.84159 0.0
C266 C 0.91181 0.0503 0.73502 0.0
C267 C 0.93218 0.07312 0.69168 0.0
C268 C 0.89185 0.11153 0.78659 0.0
C269 C 0.92902 0.11492 0.69404 0.0
C270 C 0.89251 0.17075 0.86282 0.0
C271 C 0.8282 0.13884 0.91877 0.0
N272 N 0.91001 0.13275 0.74145 0.0
N273 N 0.84478 0.11829 0.87086 0.0
H274 H 0.38592 0.3487 0.48723 0.0
H275 H 0.38998 0.42497 0.1195 0.0
H276 H 0.27494 0.36958 0.35804 0.0
H277 H 0.47888 0.4635 0.28052 0.0
H278 H 0.34781 0.40003 0.20225 0.0
H279 H 0.42219 0.38692 0.41009 0.0
C280 C 0.36908 0.36179 0.44329 0.0
C281 C 0.32736 0.35556 0.42877 0.0
C282 C 0.37613 0.41483 0.21931 0.0
C283 C 0.36883 0.39788 0.33894 0.0
C284 C 0.39991 0.42933 0.17215 0.0
C285 C 0.43747 0.44689 0.19348 0.0
C286 C 0.39064 0.41721 0.28782 0.0
C287 C 0.44978 0.45054 0.2623 0.0
C288 C 0.38981 0.38331 0.39893 0.0
C289 C 0.30725 0.37278 0.37023 0.0
N290 N 0.42675 0.4354 0.30696 0.0
N291 N 0.32819 0.39248 0.32689 0.0
H292 H 0.22504 0.89704 1.00584 0.0
H293 H 0.02524 0.92584 0.74598 0.0
H294 H 0.12285 0.81935 1.01027 0.0
H295 H 0.14274 0.97252 0.72177 0.0
H296 H 0.05617 0.88784 0.84428 0.0
H297 H 0.19003 0.93044 0.9075 0.0
C298 C 0.19458 0.88796 0.98681 0.0
C299 C 0.17635 0.8562 0.01638 0.0
C300 C 0.07513 0.9059 0.81658 0.0
C301 C 0.13642 0.89283 0.90222 0.0
C302 C 0.05761 0.92708 0.76006 0.0
C303 C 0.08154 0.95239 0.72596 0.0
C304 C 0.11659 0.91055 0.83881 0.0
C305 C 0.12319 0.95353 0.74689 0.0
C306 C 0.1748 0.90642 0.93013 0.0
C307 C 0.13732 0.84442 0.98918 0.0
N308 N 0.13921 0.93342 0.80215 0.0
N309 N 0.11853 0.86268 0.93325 0.0
loop_
_geom_bond_atom_site_label_1
_geom_bond_atom_site_label_2
_geom_bond_distance
_geom_bond_site_symmetry_2
_ccdc_geom_bond_type
C0 N1 1.317 . S
C0 N2 1.348 . S
C0 C3 1.485 1_554 S
N1 C0 1.317 . S
N1 N5 1.370 . S
N2 C0 1.348 . S
N2 C4 1.346 . S
C3 C0 1.485 1_556 S
C3 H7 0.960 . S
C3 H8 0.961 . S
C3 H9 0.960 . S
C4 N2 1.346 . S
C4 N5 1.307 . S
C4 C6 1.486 . S
N5 N1 1.370 . S
N5 C4 1.307 . S
C6 C4 1.486 . S
C6 H10 0.960 . S
C6 H11 0.960 . S
C6 H12 0.959 . S
H7 C3 0.960 . S
H8 C3 0.961 . S
H9 C3 0.960 . S
H10 C6 0.960 . S
H11 C6 0.960 . S
H12 C6 0.959 . S
C13 N14 1.317 . S
C13 N15 1.348 . S
C13 C16 1.485 . S
N14 C13 1.317 . S
N14 N18 1.370 . S
N15 C13 1.348 . S
N15 C17 1.346 . S
C16 C13 1.485 . S
C16 H20 0.960 . S
C16 H21 0.961 . S
C16 H22 0.960 . S
C17 N15 1.346 . S
C17 N18 1.307 . S
C17 C19 1.486 . S
N18 N14 1.370 . S
N18 C17 1.307 . S
C19 C17 1.486 . S
C19 H23 0.960 . S
C19 H24 0.960 . S
C19 H25 0.959 . S
H20 C16 0.960 . S
H21 C16 0.961 . S
H22 C16 0.960 . S
H23 C19 0.960 . S
H24 C19 0.960 . S
H25 C19 0.959 . S
C26 N27 1.317 . S
C26 N28 1.349 1_554 S
C26 C29 1.485 . S
N27 C26 1.317 . S
N27 N31 1.370 1_554 S
N28 C26 1.349 1_556 S
N28 C30 1.345 . S
C29 C26 1.485 . S
C29 H33 0.960 . S
C29 H34 0.961 . S
C29 H35 0.960 . S
C30 N28 1.345 . S
C30 N31 1.307 . S
C30 C32 1.486 . S
N31 N27 1.370 1_556 S
N31 C30 1.307 . S
C32 C30 1.486 . S
C32 H36 0.960 . S
C32 H37 0.960 . S
C32 H38 0.959 . S
H33 C29 0.960 . S
H34 C29 0.961 . S
H35 C29 0.960 . S
H36 C32 0.960 . S
H37 C32 0.960 . S
H38 C32 0.959 . S
C39 N40 1.317 . S
C39 N41 1.348 . S
C39 C42 1.485 . S
N40 C39 1.317 . S
N40 N44 1.370 . S
N41 C39 1.348 . S
N41 C43 1.346 . S
C42 C39 1.485 . S
C42 H46 0.960 . S
C42 H47 0.961 . S
C42 H48 0.960 . S
C43 N41 1.346 . S
C43 N44 1.307 . S
C43 C45 1.486 . S
N44 N40 1.370 . S
N44 C43 1.307 . S
C45 C43 1.486 . S
C45 H49 0.960 . S
C45 H50 0.960 . S
C45 H51 0.959 . S
H46 C42 0.960 . S
H47 C42 0.961 . S
H48 C42 0.960 . S
H49 C45 0.960 . S
H50 C45 0.960 . S
H51 C45 0.959 . S
O52 Mn53 2.163 1_655 S
O52 C66 1.244 . S
Mn53 O52 2.163 1_455 S
Mn53 O56 2.160 1_545 S
Mn53 O57 2.221 . S
Mn53 O59 2.163 1_455 S
Mn53 O61 2.160 1_545 S
Mn53 O71 2.221 1_445 S
O54 Mn55 2.087 1_545 S
O54 C66 1.256 . S
Mn55 O54 2.087 1_565 S
Mn55 O62 2.089 1_655 S
Mn55 O71 2.290 . S
Mn55 O72 2.251 . S
O56 Mn53 2.160 1_565 S
O56 C67 1.239 . S
O57 Mn53 2.221 . S
O57 Mn58 2.290 . S
O57 C68 1.278 . S
Mn58 O57 2.290 . S
Mn58 O60 2.089 . S
Mn58 O63 2.251 . S
Mn58 O64 2.087 . S
O59 Mn53 2.163 1_655 S
O59 C69 1.244 . S
O60 Mn58 2.089 . S
O60 C67 1.256 1_545 S
O61 Mn53 2.160 1_565 S
O61 C70 1.239 . S
O62 Mn55 2.089 1_455 S
O62 C70 1.256 . S
O63 Mn58 2.251 . S
O63 C68 1.241 . S
O64 Mn58 2.087 . S
O64 C69 1.256 1_455 S
C65 O71 1.278 . S
C65 O72 1.241 . S
C66 O52 1.244 . S
C66 O54 1.256 . S
C67 O56 1.239 . S
C67 O60 1.256 1_565 S
C68 O57 1.278 . S
C68 O63 1.241 . S
C69 O59 1.244 . S
C69 O64 1.256 1_655 S
C70 O61 1.239 . S
C70 O62 1.256 . S
O71 Mn53 2.221 1_665 S
O71 Mn55 2.290 . S
O71 C65 1.278 . S
O72 Mn55 2.251 . S
O72 C65 1.241 . S
O73 Mn74 2.163 . S
O73 C87 1.244 . S
Mn74 O73 2.163 . S
Mn74 O77 2.160 1_554 S
Mn74 O78 2.221 . S
Mn74 O80 2.163 1_554 S
Mn74 O82 2.160 . S
Mn74 O92 2.221 . S
O75 Mn76 2.087 . S
O75 C87 1.256 . S
Mn76 O75 2.087 . S
Mn76 O83 2.089 . S
Mn76 O92 2.290 . S
Mn76 O93 2.251 . S
O77 Mn74 2.160 1_556 S
O77 C88 1.239 . S
O78 Mn74 2.221 . S
O78 Mn79 2.290 1_554 S
O78 C89 1.278 . S
Mn79 O78 2.290 1_556 S
Mn79 O81 2.089 . S
Mn79 O84 2.251 . S
Mn79 O85 2.087 . S
O80 Mn74 2.163 1_556 S
O80 C90 1.244 . S
O81 Mn79 2.089 . S
O81 C88 1.256 . S
O82 Mn74 2.160 . S
O82 C91 1.239 . S
O83 Mn76 2.089 . S
O83 C91 1.256 . S
O84 Mn79 2.251 . S
O84 C89 1.241 1_556 S
O85 Mn79 2.087 . S
O85 C90 1.256 . S
C86 O92 1.278 . S
C86 O93 1.241 . S
C87 O73 1.244 . S
C87 O75 1.256 . S
C88 O77 1.239 . S
C88 O81 1.256 . S
C89 O78 1.278 . S
C89 O84 1.241 1_554 S
C90 O80 1.244 . S
C90 O85 1.256 . S
C91 O82 1.239 . S
C91 O83 1.256 . S
O92 Mn74 2.221 . S
O92 Mn76 2.290 . S
O92 C86 1.278 . S
O93 Mn76 2.251 . S
O93 C86 1.241 . S
H94 C100 0.930 . S
H95 C104 0.930 . S
H96 C109 0.929 . S
H97 C107 0.929 . S
H98 C102 0.929 . S
H99 C108 0.929 . S
C100 H94 0.930 . S
C100 C101 1.367 . S
C100 C108 1.378 . S
C101 C100 1.367 . S
C101 C109 1.433 . S
C102 H98 0.929 . S
C102 C104 1.378 . S
C102 C106 1.350 . S
C103 C106 1.463 . S
C103 C108 1.350 . S
C103 N111 1.427 . S
C104 H95 0.930 . S
C104 C102 1.378 . S
C104 C105 1.367 . S
C105 C104 1.367 . S
C105 C107 1.433 . S
C106 C102 1.350 . S
C106 C103 1.463 . S
C106 N110 1.427 . S
C107 H97 0.929 . S
C107 C105 1.433 . S
C107 N110 1.384 . S
C108 H99 0.929 . S
C108 C100 1.378 . S
C108 C103 1.350 . S
C109 H96 0.929 . S
C109 C101 1.433 . S
C109 N111 1.384 . S
N110 C106 1.427 . S
N110 C107 1.384 . S
N111 C103 1.427 . S
N111 C109 1.384 . S
H112 C118 0.923 1_556 S
H113 C122 0.930 . S
H114 C127 0.929 . S
H115 C125 0.929 1_556 S
H116 C120 0.929 . S
H117 C126 0.929 1_556 S
C118 H112 0.923 1_554 S
C118 C119 1.367 . S
C118 C126 1.378 . S
C119 C118 1.367 . S
C119 C127 1.433 . S
C120 H116 0.929 . S
C120 C122 1.378 . S
C120 C124 1.350 . S
C121 C124 1.463 . S
C121 C126 1.350 . S
C121 N129 1.427 . S
C122 H113 0.930 . S
C122 C120 1.378 . S
C122 C123 1.367 . S
C123 C122 1.367 . S
C123 C125 1.433 . S
C124 C120 1.350 . S
C124 C121 1.463 . S
C124 N128 1.427 . S
C125 H115 0.929 1_554 S
C125 C123 1.433 . S
C125 N128 1.384 . S
C126 H117 0.929 1_554 S
C126 C118 1.378 . S
C126 C121 1.350 . S
C127 H114 0.929 . S
C127 C119 1.433 . S
C127 N129 1.384 . S
N128 C124 1.427 . S
N128 C125 1.384 . S
N129 C121 1.427 . S
N129 C127 1.384 . S
H130 C136 0.930 . S
H131 C140 0.930 . S
H132 C145 0.929 . S
H133 C143 0.929 . S
H134 C138 0.929 . S
H135 C144 0.929 . S
C136 H130 0.930 . S
C136 C137 1.367 . S
C136 C144 1.378 . S
C137 C136 1.367 . S
C137 C145 1.433 . S
C138 H134 0.929 . S
C138 C140 1.378 . S
C138 C142 1.350 . S
C139 C142 1.463 . S
C139 C144 1.350 . S
C139 N147 1.427 . S
C140 H131 0.930 . S
C140 C138 1.378 . S
C140 C141 1.367 . S
C141 C140 1.367 . S
C141 C143 1.433 . S
C142 C138 1.350 . S
C142 C139 1.463 . S
C142 N146 1.427 . S
C143 H133 0.929 . S
C143 C141 1.433 . S
C143 N146 1.384 . S
C144 H135 0.929 . S
C144 C136 1.378 . S
C144 C139 1.350 . S
C145 H132 0.929 . S
C145 C137 1.433 . S
C145 N147 1.384 . S
N146 C142 1.427 . S
N146 C143 1.384 . S
N147 C139 1.427 . S
N147 C145 1.384 . S
H148 C154 0.930 . S
H149 C158 0.930 . S
H150 C163 0.929 . S
H151 C161 0.929 . S
H152 C156 0.929 . S
H153 C162 0.929 . S
C154 H148 0.930 . S
C154 C155 1.373 . S
C154 C162 1.378 . S
C155 C154 1.373 . S
C155 C163 1.428 1_554 S
C156 H152 0.929 . S
C156 C158 1.378 . S
C156 C160 1.350 1_556 S
C157 C160 1.463 . S
C157 C162 1.350 . S
C157 N165 1.427 1_554 S
C158 H149 0.930 . S
C158 C156 1.378 . S
C158 C159 1.367 1_556 S
C159 C158 1.367 1_554 S
C159 C161 1.433 . S
C160 C156 1.350 1_554 S
C160 C157 1.463 . S
C160 N164 1.427 . S
C161 H151 0.929 . S
C161 C159 1.433 . S
C161 N164 1.384 . S
C162 H153 0.929 . S
C162 C154 1.378 . S
C162 C157 1.350 . S
C163 H150 0.929 . S
C163 C155 1.428 1_556 S
C163 N165 1.384 . S
N164 C160 1.427 . S
N164 C161 1.384 . S
N165 C157 1.427 1_556 S
N165 C163 1.384 . S
H166 C172 0.930 . S
H167 C176 0.930 . S
H168 C181 0.929 . S
H169 C179 0.929 . S
H170 C174 0.929 . S
H171 C180 0.929 . S
C172 H166 0.930 . S
C172 C173 1.367 . S
C172 C180 1.378 . S
C173 C172 1.367 . S
C173 C181 1.433 . S
C174 H170 0.929 . S
C174 C176 1.378 . S
C174 C178 1.350 . S
C175 C178 1.463 . S
C175 C180 1.350 . S
C175 N183 1.427 . S
C176 H167 0.930 . S
C176 C174 1.378 . S
C176 C177 1.367 . S
C177 C176 1.367 . S
C177 C179 1.433 . S
C178 C174 1.350 . S
C178 C175 1.463 . S
C178 N182 1.427 . S
C179 H169 0.929 . S
C179 C177 1.433 . S
C179 N182 1.384 . S
C180 H171 0.929 . S
C180 C172 1.378 . S
C180 C175 1.350 . S
C181 H168 0.929 . S
C181 C173 1.433 . S
C181 N183 1.384 . S
N182 C178 1.427 . S
N182 C179 1.384 . S
N183 C175 1.427 . S
N183 C181 1.384 . S
H184 C190 0.930 . S
H185 C194 0.930 . S
H186 C199 0.929 . S
H187 C197 0.929 . S
H188 C192 0.929 . S
H189 C198 0.929 . S
C190 H184 0.930 . S
C190 C191 1.367 . S
C190 C198 1.378 . S
C191 C190 1.367 . S
C191 C199 1.433 . S
C192 H188 0.929 . S
C192 C194 1.378 . S
C192 C196 1.350 . S
C193 C196 1.463 . S
C193 C198 1.350 . S
C193 N201 1.427 . S
C194 H185 0.930 . S
C194 C192 1.378 . S
C194 C195 1.367 . S
C195 C194 1.367 . S
C195 C197 1.433 . S
C196 C192 1.350 . S
C196 C193 1.463 . S
C196 N200 1.427 . S
C197 H187 0.929 . S
C197 C195 1.433 . S
C197 N200 1.384 . S
C198 H189 0.929 . S
C198 C190 1.378 . S
C198 C193 1.350 . S
C199 H186 0.929 . S
C199 C191 1.433 . S
C199 N201 1.384 . S
N200 C196 1.427 . S
N200 C197 1.384 . S
N201 C193 1.427 . S
N201 C199 1.384 . S
H202 C208 0.930 . S
H203 C212 0.930 . S
H204 C217 0.929 . S
H205 C215 0.929 . S
H206 C210 0.929 . S
H207 C216 0.929 . S
C208 H202 0.930 . S
C208 C209 1.367 . S
C208 C216 1.378 . S
C209 C208 1.367 . S
C209 C217 1.433 . S
C210 H206 0.929 . S
C210 C212 1.378 . S
C210 C214 1.350 . S
C211 C214 1.463 . S
C211 C216 1.350 . S
C211 N219 1.427 . S
C212 H203 0.930 . S
C212 C210 1.378 . S
C212 C213 1.367 . S
C213 C212 1.367 . S
C213 C215 1.433 . S
C214 C210 1.350 . S
C214 C211 1.463 . S
C214 N218 1.427 . S
C215 H205 0.929 . S
C215 C213 1.433 . S
C215 N218 1.384 . S
C216 H207 0.929 . S
C216 C208 1.378 . S
C216 C211 1.350 . S
C217 H204 0.929 . S
C217 C209 1.433 . S
C217 N219 1.384 . S
N218 C214 1.427 . S
N218 C215 1.384 . S
N219 C211 1.427 . S
N219 C217 1.384 . S
H220 C226 0.930 . S
H221 C230 0.930 . S
H222 C235 0.929 . S
H223 C233 0.929 . S
H224 C228 0.929 . S
H225 C234 0.929 . S
C226 H220 0.930 . S
C226 C227 1.367 . S
C226 C234 1.378 . S
C227 C226 1.367 . S
C227 C235 1.433 . S
C228 H224 0.929 . S
C228 C230 1.378 . S
C228 C232 1.350 . S
C229 C232 1.463 . S
C229 C234 1.350 . S
C229 N237 1.427 . S
C230 H221 0.930 . S
C230 C228 1.378 . S
C230 C231 1.367 . S
C231 C230 1.367 . S
C231 C233 1.433 . S
C232 C228 1.350 . S
C232 C229 1.463 . S
C232 N236 1.427 . S
C233 H223 0.929 . S
C233 C231 1.433 . S
C233 N236 1.384 . S
C234 H225 0.929 . S
C234 C226 1.378 . S
C234 C229 1.350 . S
C235 H222 0.929 . S
C235 C227 1.433 . S
C235 N237 1.384 . S
N236 C232 1.427 . S
N236 C233 1.384 . S
N237 C229 1.427 . S
N237 C235 1.384 . S
H238 C244 0.930 . S
H239 C248 0.930 . S
H240 C253 0.929 . S
H241 C251 0.929 . S
H242 C246 0.929 . S
H243 C252 0.929 . S
C244 H238 0.930 . S
C244 C245 1.367 . S
C244 C252 1.378 . S
C245 C244 1.367 . S
C245 C253 1.433 . S
C246 H242 0.929 . S
C246 C248 1.378 . S
C246 C250 1.350 . S
C247 C250 1.463 . S
C247 C252 1.350 . S
C247 N255 1.427 . S
C248 H239 0.930 . S
C248 C246 1.378 . S
C248 C249 1.367 . S
C249 C248 1.367 . S
C249 C251 1.433 . S
C250 C246 1.350 . S
C250 C247 1.463 . S
C250 N254 1.427 . S
C251 H241 0.929 . S
C251 C249 1.433 . S
C251 N254 1.384 . S
C252 H243 0.929 . S
C252 C244 1.378 . S
C252 C247 1.350 . S
C253 H240 0.929 . S
C253 C245 1.433 . S
C253 N255 1.384 . S
N254 C250 1.427 . S
N254 C251 1.384 . S
N255 C247 1.427 . S
N255 C253 1.384 . S
H256 C262 0.930 . S
H257 C266 0.930 . S
H258 C271 0.929 . S
H259 C269 0.929 . S
H260 C264 0.929 . S
H261 C270 0.929 . S
C262 H256 0.930 . S
C262 C263 1.367 . S
C262 C270 1.378 . S
C263 C262 1.367 . S
C263 C271 1.433 . S
C264 H260 0.929 . S
C264 C266 1.378 . S
C264 C268 1.350 . S
C265 C268 1.463 . S
C265 C270 1.350 . S
C265 N273 1.427 . S
C266 H257 0.930 . S
C266 C264 1.378 . S
C266 C267 1.367 . S
C267 C266 1.367 . S
C267 C269 1.433 . S
C268 C264 1.350 . S
C268 C265 1.463 . S
C268 N272 1.427 . S
C269 H259 0.929 . S
C269 C267 1.433 . S
C269 N272 1.384 . S
C270 H261 0.929 . S
C270 C262 1.378 . S
C270 C265 1.350 . S
C271 H258 0.929 . S
C271 C263 1.433 . S
C271 N273 1.384 . S
N272 C268 1.427 . S
N272 C269 1.384 . S
N273 C265 1.427 . S
N273 C271 1.384 . S
H274 C280 0.930 . S
H275 C284 0.930 . S
H276 C289 0.929 . S
H277 C287 0.929 . S
H278 C282 0.929 . S
H279 C288 0.929 . S
C280 H274 0.930 . S
C280 C281 1.367 . S
C280 C288 1.378 . S
C281 C280 1.367 . S
C281 C289 1.433 . S
C282 H278 0.929 . S
C282 C284 1.378 . S
C282 C286 1.350 . S
C283 C286 1.463 . S
C283 C288 1.350 . S
C283 N291 1.427 . S
C284 H275 0.930 . S
C284 C282 1.378 . S
C284 C285 1.367 . S
C285 C284 1.367 . S
C285 C287 1.433 . S
C286 C282 1.350 . S
C286 C283 1.463 . S
C286 N290 1.427 . S
C287 H277 0.929 . S
C287 C285 1.433 . S
C287 N290 1.384 . S
C288 H279 0.929 . S
C288 C280 1.378 . S
C288 C283 1.350 . S
C289 H276 0.929 . S
C289 C281 1.433 . S
C289 N291 1.384 . S
N290 C286 1.427 . S
N290 C287 1.384 . S
N291 C283 1.427 . S
N291 C289 1.384 . S
H292 C298 0.930 . S
H293 C302 0.930 . S
H294 C307 0.929 1_554 S
H295 C305 0.929 . S
H296 C300 0.929 . S
H297 C306 0.929 . S
C298 H292 0.930 . S
C298 C299 1.367 . S
C298 C306 1.378 . S
C299 C298 1.367 . S
C299 C307 1.433 . S
C300 H296 0.929 . S
C300 C302 1.378 . S
C300 C304 1.350 . S
C301 C304 1.463 . S
C301 C306 1.350 . S
C301 N309 1.427 . S
C302 H293 0.930 . S
C302 C300 1.378 . S
C302 C303 1.367 . S
C303 C302 1.367 . S
C303 C305 1.433 . S
C304 C300 1.350 . S
C304 C301 1.463 . S
C304 N308 1.427 . S
C305 H295 0.929 . S
C305 C303 1.433 . S
C305 N308 1.384 . S
C306 H297 0.929 . S
C306 C298 1.378 . S
C306 C301 1.350 . S
C307 H294 0.929 1_556 S
C307 C299 1.433 . S
C307 N309 1.384 . S
N308 C304 1.427 . S
N308 C305 1.384 . S
N309 C301 1.427 . S
N309 C307 1.384 . S
C105 C68 1.257 . S
C101 N41 1.465 . S
C119 N2 1.461 . S
C123 C89 1.284 . S
C137 N15 1.615 . S
C141 C65 1.405 . S
C155 N28 1.611 1_554 S
C159 C86 1.404 . S
C177 C70 1.462 . S
C173 N5 1.497 . S
C195 C90 1.511 . S
C191 N14 1.573 . S
C209 N27 1.546 . S
C213 C66 1.516 . S
C227 N44 1.487 . S
C231 C88 1.440 . S
C249 C87 1.511 . S
C245 N18 1.548 . S
C267 C69 1.525 . S
C263 N31 1.579 . S
C285 C91 1.462 . S
C281 N40 1.493 . S
C299 N1 1.490 1_556 S
C303 C67 1.454 . S
