# Generated by pormake.
# Topology anh, (6,3)-cn, num edge types: 1
# Building blocks:
#     Node 0, Type 0, BuildingBlock: GEDQOX_clean_sbu_0, # of connection points: 6
#     Node 1, Type 0, BuildingBlock: GEDQOX_clean_sbu_0, # of connection points: 6
#     Node 2, Type 0, BuildingBlock: GEDQOX_clean_sbu_0, # of connection points: 6
#     Node 3, Type 1, BuildingBlock: MIDCAF_clean_linker_0, # of connection points: 3
#     Node 4, Type 1, BuildingBlock: MIDCAF_clean_linker_0, # of connection points: 3
#     Node 5, Type 1, BuildingBlock: MIDCAF_clean_linker_0, # of connection points: 3
#     Node 6, Type 1, BuildingBlock: MIDCAF_clean_linker_0, # of connection points: 3
#     Node 7, Type 1, BuildingBlock: MIDCAF_clean_linker_0, # of connection points: 3
#     Node 8, Type 1, BuildingBlock: MIDCAF_clean_linker_0, # of connection points: 3
#     Edge 9, Type (0, 1), BuildingBlock: TEMPAE_clean_linker_10, # of connection points: 2
#     Edge 10, Type (0, 1), BuildingBlock: TEMPAE_clean_linker_10, # of connection points: 2
#     Edge 11, Type (0, 1), BuildingBlock: TEMPAE_clean_linker_10, # of connection points: 2
#     Edge 12, Type (0, 1), BuildingBlock: TEMPAE_clean_linker_10, # of connection points: 2
#     Edge 13, Type (0, 1), BuildingBlock: TEMPAE_clean_linker_10, # of connection points: 2
#     Edge 14, Type (0, 1), BuildingBlock: TEMPAE_clean_linker_10, # of connection points: 2
#     Edge 15, Type (0, 1), BuildingBlock: TEMPAE_clean_linker_10, # of connection points: 2
#     Edge 16, Type (0, 1), BuildingBlock: TEMPAE_clean_linker_10, # of connection points: 2
#     Edge 17, Type (0, 1), BuildingBlock: TEMPAE_clean_linker_10, # of connection points: 2
#     Edge 18, Type (0, 1), BuildingBlock: TEMPAE_clean_linker_10, # of connection points: 2
#     Edge 19, Type (0, 1), BuildingBlock: TEMPAE_clean_linker_10, # of connection points: 2
#     Edge 20, Type (0, 1), BuildingBlock: TEMPAE_clean_linker_10, # of connection points: 2
#     Edge 21, Type (0, 1), BuildingBlock: TEMPAE_clean_linker_10, # of connection points: 2
#     Edge 22, Type (0, 1), BuildingBlock: TEMPAE_clean_linker_10, # of connection points: 2
#     Edge 23, Type (0, 1), BuildingBlock: TEMPAE_clean_linker_10, # of connection points: 2
#     Edge 24, Type (0, 1), BuildingBlock: TEMPAE_clean_linker_10, # of connection points: 2
#     Edge 25, Type (0, 1), BuildingBlock: TEMPAE_clean_linker_10, # of connection points: 2
#     Edge 26, Type (0, 1), BuildingBlock: TEMPAE_clean_linker_10, # of connection points: 2
# Relax obj value: 0.179
# Max RMSD: 0.210
# Mean RMSD: 0.157
data_MOF--net-anh--node1-GEDQOX_clean_sbu_0--node2-MIDCAF_clean_linker_0--edge1-TEMPAE_clean_linker_10
_symmetry_space_group_name_H-M    P1
_symmetry_Int_Tables_number       1
_symmetry_cell_setting            triclinic
loop_
_symmetry_equiv_pos_as_xyz
'x, y, z'
_cell_length_a     37.069284
_cell_length_b     35.85246
_cell_length_c     67.089716
_cell_angle_alpha  93.326464
_cell_angle_beta   90.267453
_cell_angle_gamma 106.09589
loop_
_atom_site_label
_atom_site_type_symbol
_atom_site_fract_x
_atom_site_fract_y
_atom_site_fract_z
_atom_type_partial_charge
Nd0 Nd 0.08767 0.55878 0.14178 0.0
Nd1 Nd 0.06589 0.47072 0.14315 0.0
C2 C 0.11814 0.63227 0.13393 0.0
C3 C 0.15497 0.6611 0.13726 0.0
C4 C 0.18835 0.64981 0.13678 0.0
C5 C 0.22293 0.67715 0.14113 0.0
C6 C 0.22474 0.71628 0.14616 0.0
C7 C 0.19127 0.72756 0.14629 0.0
C8 C 0.15673 0.7002 0.14186 0.0
C9 C 0.07583 0.53246 0.17932 0.0
C10 C 0.15532 0.5128 0.14335 0.0
C11 C 1.03749 0.39708 0.15142 0.0
C12 C 1.00094 0.36968 0.15527 0.0
C13 C 0.96972 0.3829 0.16032 0.0
C14 C 0.93546 0.3564 0.16452 0.0
C15 C 0.93201 0.31625 0.16388 0.0
C16 C 0.96333 0.30321 0.15856 0.0
C17 C 0.99745 0.3297 0.15426 0.0
C18 C 0.07907 0.4988 0.10591 0.0
C19 C 0.99844 0.51607 0.14108 0.0
O20 O 0.11668 0.60292 0.12111 0.0
O21 O 0.09884 0.6219 0.14994 0.0
O22 O 0.06567 0.56197 0.17351 0.0
O23 O 0.09314 0.51902 0.16584 0.0
O24 O 0.14563 0.54455 0.13915 0.0
O25 O 0.12955 0.48075 0.14769 0.0
O26 O 1.05037 0.42539 0.16505 0.0
O27 O 1.04294 0.40837 0.13322 0.0
O28 O 0.09008 0.46952 0.11148 0.0
O29 O 0.06091 0.5107 0.11945 0.0
O30 O 1.00847 0.48553 0.14695 0.0
O31 O 1.02414 0.54704 0.13532 0.0
H32 H 0.18764 0.61975 0.1334 0.0
H33 H 0.24811 0.66742 0.14113 0.0
H34 H 0.19178 0.75754 0.14991 0.0
H35 H 0.13129 0.70948 0.14232 0.0
H36 H 0.97204 0.4137 0.16132 0.0
H37 H 0.91198 0.36739 0.16876 0.0
H38 H 0.96144 0.27246 0.15771 0.0
H39 H 1.02125 0.31898 0.15034 0.0
Nd40 Nd 0.51895 0.97821 0.51776 0.0
Nd41 Nd 0.60879 1.00371 0.51139 0.0
C42 C 0.45225 0.95041 0.53311 0.0
C43 C 0.42018 0.91716 0.52697 0.0
C44 C 0.39047 0.90386 0.53995 0.0
C45 C 0.36053 0.87143 0.53415 0.0
C46 C 0.35989 0.852 0.51525 0.0
C47 C 0.38989 0.86549 0.50237 0.0
C48 C 0.41979 0.89767 0.5082 0.0
C49 C 0.53526 0.98027 0.47756 0.0
C50 C 0.56563 0.91172 0.50964 0.0
C51 C 0.67927 0.03492 0.50161 0.0
C52 C 0.70252 0.07137 0.49421 0.0
C53 C 0.68709 0.10193 0.49049 0.0
C54 C 0.71023 0.13765 0.48505 0.0
C55 C 0.74906 0.14308 0.48299 0.0
C56 C 0.76416 0.11197 0.48627 0.0
C57 C 0.74106 0.07647 0.49191 0.0
C58 C 0.58418 0.98511 0.54893 0.0
C59 C 0.56202 0.07048 0.51676 0.0
O60 O 0.48227 0.94135 0.53916 0.0
O61 O 0.45986 0.97915 0.52114 0.0
O62 O 0.50118 0.97112 0.48406 0.0
O63 O 0.55754 0.98721 0.49228 0.0
O64 O 0.53559 0.92069 0.5168 0.0
O65 O 0.59591 0.93818 0.50405 0.0
O66 O 0.65407 0.01245 0.48916 0.0
O67 O 0.66685 0.03755 0.51972 0.0
O68 O 0.61362 0.97728 0.54134 0.0
O69 O 0.5703 1.00399 0.53724 0.0
O70 O 0.5921 0.06101 0.51 0.0
O71 O 0.53201 0.04438 0.52291 0.0
H72 H 0.39051 0.91845 0.55455 0.0
H73 H 0.33773 0.86178 0.54435 0.0
H74 H 0.39055 0.85076 0.48787 0.0
H75 H 0.4428 0.90722 0.4981 0.0
H76 H 0.6573 0.09826 0.49204 0.0
H77 H 0.69779 0.16097 0.4824 0.0
H78 H 0.79401 0.11543 0.48498 0.0
H79 H 0.75342 0.05319 0.49482 0.0
Nd80 Nd 0.4972 0.45249 0.8328 0.0
Nd81 Nd 0.58383 0.47978 0.84881 0.0
C82 C 0.43504 0.44896 0.81277 0.0
C83 C 0.42086 0.48077 0.80619 0.0
C84 C 0.3823 0.4771 0.8066 0.0
C85 C 0.36932 0.51005 0.80583 0.0
C86 C 0.39482 0.54727 0.80504 0.0
C87 C 0.43314 0.55029 0.80273 0.0
C88 C 0.44602 0.51727 0.80323 0.0
C89 C 0.50932 0.44699 0.87265 0.0
C90 C 0.54185 0.547 0.84131 0.0
C91 C 0.64547 0.49904 0.87132 0.0
C92 C 0.68361 0.5252 0.8702 0.0
C93 C 0.71405 0.51356 0.87739 0.0
C94 C 0.75056 0.53784 0.87636 0.0
C95 C 0.75728 0.57442 0.86822 0.0
C96 C 0.72663 0.58581 0.86083 0.0
C97 C 0.69011 0.56134 0.86174 0.0
C98 C 0.57966 0.47895 0.80774 0.0
C99 C 0.53902 0.38642 0.8386 0.0
O100 O 0.46526 0.4444 0.80408 0.0
O101 O 0.43629 0.44702 0.83219 0.0
O102 O 0.48179 0.42273 0.86243 0.0
O103 O 0.52715 0.47368 0.86209 0.0
O104 O 0.51091 0.51923 0.83607 0.0
O105 O 0.57361 0.53983 0.84671 0.0
O106 O 0.637 0.46875 0.85851 0.0
O107 O 0.61824 0.51556 0.87368 0.0
O108 O 0.61147 0.48879 0.8176 0.0
O109 O 0.55359 0.47004 0.81988 0.0
O110 O 0.56425 0.41249 0.85013 0.0
O111 O 0.51344 0.39597 0.8277 0.0
H112 H 0.36246 0.44922 0.80886 0.0
H113 H 0.33949 0.50668 0.80715 0.0
H114 H 0.45355 0.57842 0.80214 0.0
H115 H 0.47593 0.52082 0.80274 0.0
H116 H 0.70957 0.48559 0.88377 0.0
H117 H 0.77356 0.52782 0.88182 0.0
H118 H 0.73075 0.61389 0.85465 0.0
H119 H 0.66698 0.57075 0.85592 0.0
C120 C 0.46935 0.90001 0.22206 0.0
C121 C 0.46591 0.90136 0.20128 0.0
C122 C 0.49282 0.92973 0.1915 0.0
C123 C 0.52256 0.95606 0.20232 0.0
H124 H 0.61907 0.05181 0.19776 0.0
H125 H 0.66874 0.10159 0.18286 0.0
H126 H 0.72182 0.13654 0.24101 0.0
H127 H 0.67226 0.08787 0.25592 0.0
H128 H 0.63025 0.05718 0.29459 0.0
H129 H 0.62927 0.05389 0.33085 0.0
H130 H 0.54005 0.94665 0.32472 0.0
H131 H 0.54109 0.94953 0.28861 0.0
H132 H 0.50019 0.92406 0.24883 0.0
H133 H 0.44876 0.87908 0.23014 0.0
H134 H 0.49106 0.9314 0.17547 0.0
H135 H 0.5428 0.97754 0.19436 0.0
N136 N 0.58372 0.01016 0.22621 0.0
N137 N 0.61201 0.03326 0.25762 0.0
N138 N 0.55789 0.98078 0.25519 0.0
C139 C 0.61158 0.03562 0.23746 0.0
C140 C 0.58532 0.00592 0.26661 0.0
C141 C 0.55672 0.98257 0.23505 0.0
C142 C 0.64147 0.06574 0.22808 0.0
C143 C 0.64127 0.0702 0.20738 0.0
C144 C 0.66983 0.09864 0.19881 0.0
C145 C 0.69917 0.12325 0.21075 0.0
C146 C 0.69931 0.11867 0.2314 0.0
C147 C 0.67087 0.09042 0.23995 0.0
C148 C 0.58568 1.00367 0.28862 0.0
C149 C 0.61054 0.03277 0.30094 0.0
C150 C 0.60991 0.03101 0.32173 0.0
C151 C 0.58464 0.99998 0.33062 0.0
C152 C 0.56018 0.97067 0.3183 0.0
C153 C 0.56062 0.97252 0.29758 0.0
C154 C 0.52586 0.95464 0.22315 0.0
C155 C 0.49885 0.92617 0.23282 0.0
C156 C 0.60538 0.37767 0.55196 0.0
C157 C 0.57707 0.35617 0.53847 0.0
C158 C 0.5515 0.37469 0.53076 0.0
C159 C 0.55271 0.41287 0.53755 0.0
H160 H 0.54297 0.54405 0.52886 0.0
H161 H 0.54067 0.60594 0.51583 0.0
H162 H 0.60555 0.66777 0.5673 0.0
H163 H 0.60601 0.60652 0.58055 0.0
H164 H 0.55592 0.55361 0.62153 0.0
H165 H 0.55185 0.55071 0.65772 0.0
H166 H 0.58479 0.44399 0.6539 0.0
H167 H 0.58774 0.44618 0.61785 0.0
H168 H 0.62711 0.43023 0.57015 0.0
H169 H 0.62621 0.36487 0.55777 0.0
H170 H 0.52931 0.35898 0.52036 0.0
H171 H 0.5314 0.42569 0.53237 0.0
N172 N 0.57422 0.50082 0.55395 0.0
N173 N 0.57243 0.5331 0.58539 0.0
N174 N 0.5755 0.46887 0.58349 0.0
C175 C 0.57303 0.53355 0.56513 0.0
C176 C 0.57334 0.50079 0.59467 0.0
C177 C 0.57582 0.46846 0.56327 0.0
C178 C 0.57414 0.5704 0.55586 0.0
C179 C 0.55679 0.57099 0.53726 0.0
C180 C 0.55562 0.6065 0.5298 0.0
C181 C 0.57231 0.64208 0.54067 0.0
C182 C 0.5912 0.64115 0.55878 0.0
C183 C 0.59173 0.6059 0.56635 0.0
C184 C 0.57201 0.50006 0.61674 0.0
C185 C 0.56233 0.52955 0.62842 0.0
C186 C 0.56011 0.52795 0.64919 0.0
C187 C 0.56775 0.49697 0.65873 0.0
C188 C 0.5779 0.46782 0.64703 0.0
C189 C 0.57985 0.46925 0.62632 0.0
C190 C 0.5793 0.43286 0.55222 0.0
C191 C 0.60621 0.41531 0.55889 0.0
C192 C 1.03136 0.74208 0.90196 0.0
C193 C 1.02488 0.7317 0.88148 0.0
C194 C 1.05561 0.73211 0.86922 0.0
C195 C 0.09181 0.74003 0.87756 0.0
H196 H 0.20931 0.77442 0.86789 0.0
H197 H 0.25897 0.76893 0.84522 0.0
H198 H 0.30974 0.71957 0.89133 0.0
H199 H 0.26095 0.72592 0.91408 0.0
H200 H 0.21829 0.70242 0.95463 0.0
H201 H 0.20983 0.66248 0.98361 0.0
H202 H 0.093 0.66058 0.98525 0.0
H203 H 0.10106 0.70031 0.95667 0.0
H204 H 0.07107 0.75503 0.92634 0.0
H205 H 1.0082 0.74171 0.91181 0.0
H206 H 1.05135 0.72442 0.85336 0.0
H207 H 0.11461 0.73789 0.86792 0.0
N208 N 0.16547 0.75247 0.89726 0.0
N209 N 0.19566 0.73178 0.9236 0.0
N210 N 0.13269 0.73167 0.92615 0.0
C211 C 0.19697 0.74618 0.90518 0.0
C212 C 0.16357 0.72459 0.93422 0.0
C213 C 0.13334 0.74565 0.90777 0.0
C214 C 0.2306 0.74979 0.89272 0.0
C215 C 0.23151 0.76317 0.87336 0.0
C216 C 0.25998 0.76001 0.86031 0.0
C217 C 0.28809 0.74336 0.86633 0.0
C218 C 0.2888 0.73292 0.88619 0.0
C219 C 0.26047 0.73621 0.89925 0.0
C220 C 0.16031 0.70439 0.95313 0.0
C221 C 0.1909 0.69389 0.96131 0.0
C222 C 0.18613 0.67104 0.97789 0.0
C223 C 0.15063 0.65798 0.98642 0.0
C224 C 0.12051 0.66965 0.97872 0.0
C225 C 0.12529 0.69268 0.96237 0.0
C226 C 0.09768 0.747 0.89832 0.0
C227 C 0.06736 0.74946 0.91031 0.0
C228 C 0.17208 0.60456 0.43851 0.0
C229 C 0.1645 0.61452 0.45829 0.0
C230 C 0.13053 0.59407 0.46662 0.0
C231 C 0.10457 0.56444 0.4553 0.0
H232 H 1.01114 0.46436 0.45903 0.0
H233 H 0.95925 0.4154 0.47289 0.0
H234 H 0.92018 0.3702 0.41318 0.0
H235 H 0.97091 0.41915 0.39938 0.0
H236 H 1.00655 0.46675 0.36252 0.0
H237 H 1.01172 0.4669 0.32645 0.0
H238 H 0.13087 0.52299 0.33309 0.0
H239 H 0.12523 0.52451 0.36927 0.0
H240 H 0.15284 0.56884 0.4119 0.0
H241 H 0.19778 0.62009 0.43158 0.0
H242 H 0.12405 0.60099 0.48188 0.0
H243 H 0.07851 0.54948 0.46207 0.0
N244 N 1.05373 0.5005 0.43107 0.0
N245 N 1.03193 0.47275 0.3992 0.0
N246 N 0.0876 0.52331 0.40263 0.0
C247 C 1.02773 0.47394 0.41931 0.0
C248 C 0.06172 0.4972 0.39075 0.0
C249 C 0.08378 0.52534 0.42278 0.0
C250 C 0.99542 0.44574 0.42807 0.0
C251 C 0.99127 0.4442 0.44887 0.0
C252 C 0.96163 0.41603 0.45682 0.0
C253 C 0.93549 0.38891 0.44415 0.0
C254 C 0.93935 0.391 0.4234 0.0
C255 C 0.9688 0.41901 0.41547 0.0
C256 C 0.06544 0.49582 0.36878 0.0
C257 C 1.0339 0.47899 0.35629 0.0
C258 C 1.03694 0.47882 0.33555 0.0
C259 C 0.07174 0.49491 0.32674 0.0
C260 C 0.10347 0.51097 0.33929 0.0
C261 C 0.1003 0.5117 0.36006 0.0
C262 C 0.11189 0.55504 0.43535 0.0
C263 C 0.1461 0.5753 0.42717 0.0
C264 C 0.50837 0.08969 0.79846 0.0
C265 C 0.52714 0.10306 0.81678 0.0
C266 C 0.54012 0.07693 0.82781 0.0
C267 C 0.53657 0.03878 0.81987 0.0
H268 H 0.56173 0.87249 0.77321 0.0
H269 H 0.56231 0.81074 0.7858 0.0
H270 H 0.50306 0.83519 0.83803 0.0
H271 H 0.50324 0.89834 0.82545 0.0
H272 H 0.53014 0.89768 0.7319 0.0
H273 H 0.53414 0.89963 0.69564 0.0
H274 H 0.52225 0.01625 0.69956 0.0
H275 H 0.51866 0.01472 0.73565 0.0
H276 H 0.49088 0.04332 0.77618 0.0
H277 H 0.4974 0.10892 0.78985 0.0
H278 H 0.55455 0.08657 0.84205 0.0
H279 H 0.54858 0.01983 0.82809 0.0
N280 N 0.52531 0.958 0.79971 0.0
N281 N 0.52768 0.92518 0.76846 0.0
N282 N 0.52096 0.98795 0.76987 0.0
C283 C 0.52827 0.92557 0.78875 0.0
C284 C 0.52396 0.95618 0.7589 0.0
C285 C 0.52158 0.98943 0.79013 0.0
C286 C 0.53201 0.89027 0.7982 0.0
C287 C 0.54893 0.86499 0.78745 0.0
C288 C 0.54906 0.82931 0.79462 0.0
C289 C 0.53194 0.81743 0.81271 0.0
C290 C 0.51645 0.84339 0.82401 0.0
C291 C 0.51657 0.87957 0.81684 0.0
C292 C 0.52436 0.95613 0.73678 0.0
C293 C 0.52818 0.92368 0.72505 0.0
C294 C 0.53026 0.92468 0.70425 0.0
C295 C 0.52872 0.95818 0.69478 0.0
C296 C 0.52406 0.99023 0.70646 0.0
C297 C 0.52185 0.98923 0.72718 0.0
C298 C 0.51981 0.02637 0.80087 0.0
C299 C 0.50463 0.05195 0.79067 0.0
C300 C 0.69467 0.47001 0.11917 0.0
C301 C 0.71771 0.50117 0.13115 0.0
C302 C 0.70051 0.52843 0.14016 0.0
C303 C 0.66216 0.52566 0.13631 0.0
H304 H 0.52125 0.55899 0.13804 0.0
H305 H 0.45755 0.56342 0.14562 0.0
H306 H 0.41259 0.44198 0.12706 0.0
H307 H 0.47571 0.4379 0.11953 0.0
H308 H 0.49738 0.46839 0.06458 0.0
H309 H 0.48809 0.45682 0.02865 0.0
H310 H 0.60764 0.47687 0.02169 0.0
H311 H 0.61697 0.48742 0.0578 0.0
H312 H 0.64082 0.4438 0.10526 0.0
H313 H 0.70602 0.44766 0.1124 0.0
H314 H 0.71705 0.55293 0.14947 0.0
H315 H 0.65047 0.54818 0.14256 0.0
N316 N 0.57297 0.50011 0.12664 0.0
N317 N 0.53462 0.4902 0.09756 0.0
N318 N 0.59703 0.48912 0.09498 0.0
C319 C 0.53868 0.49708 0.11764 0.0
C320 C 0.56348 0.48652 0.08609 0.0
C321 C 0.60241 0.49584 0.11508 0.0
C322 C 0.50383 0.49784 0.12862 0.0
C323 C 0.49791 0.53292 0.13644 0.0
C324 C 0.46122 0.5355 0.14055 0.0
C325 C 0.42948 0.50321 0.13664 0.0
C326 C 0.43595 0.46771 0.12994 0.0
C327 C 0.47236 0.46515 0.12595 0.0
C328 C 0.55798 0.47901 0.06415 0.0
C329 C 0.52178 0.47032 0.05545 0.0
C330 C 0.51641 0.46383 0.03479 0.0
C331 C 0.54712 0.46611 0.02225 0.0
C332 C 0.58331 0.47441 0.03093 0.0
C333 C 0.58868 0.48069 0.05165 0.0
C334 C 0.64009 0.49559 0.12335 0.0
C335 C 0.65685 0.46747 0.11526 0.0
C336 C 0.20806 0.48336 0.15156 0.0
C337 C 0.19611 0.51318 0.14323 0.0
C338 C 0.24612 0.48292 0.15127 0.0
C339 C 0.27341 0.51276 0.14223 0.0
C340 C 0.26157 0.54308 0.1339 0.0
C341 C 0.22337 0.54297 0.13455 0.0
C342 C 0.25707 0.45017 0.16054 0.0
C343 C 0.28918 0.57535 0.1239 0.0
C344 C 0.37862 0.52755 0.15424 0.0
C345 C 0.38976 0.50659 0.13817 0.0
C346 C 0.34114 0.52984 0.15579 0.0
C347 C 0.31383 0.5113 0.14076 0.0
C348 C 0.32514 0.49074 0.12435 0.0
C349 C 0.36256 0.48851 0.12331 0.0
C350 C 0.3306 0.55176 0.17367 0.0
C351 C 0.29759 0.47097 0.10777 0.0
H352 H 0.18759 0.4602 0.1584 0.0
H353 H 0.21476 0.56599 0.12787 0.0
H354 H 0.26799 0.43312 0.14891 0.0
H355 H 0.27995 0.4621 0.17183 0.0
H356 H 0.2331 0.43018 0.16783 0.0
H357 H 0.27609 0.59771 0.11893 0.0
H358 H 0.31304 0.58971 0.13426 0.0
H359 H 0.30092 0.56306 0.11071 0.0
H360 H 0.39907 0.54153 0.16588 0.0
H361 H 0.37068 0.47286 0.11059 0.0
H362 H 0.30822 0.53185 0.18199 0.0
H363 H 0.31911 0.57525 0.16873 0.0
H364 H 0.3549 0.56485 0.18401 0.0
H365 H 0.27408 0.44845 0.11386 0.0
H366 H 0.31082 0.45696 0.09577 0.0
H367 H 0.28536 0.49245 0.10109 0.0
C368 C 0.80138 0.18276 0.46324 0.0
C369 C 0.77404 0.18116 0.47777 0.0
C370 C 0.82621 0.21833 0.45864 0.0
C371 C 0.82386 0.25317 0.46894 0.0
C372 C 0.79612 0.25181 0.48352 0.0
C373 C 0.77139 0.2158 0.4877 0.0
C374 C 0.85508 0.21858 0.44279 0.0
C375 C 0.79297 0.2883 0.49493 0.0
C376 C 0.91309 0.33654 0.46813 0.0
C377 C 0.90531 0.35717 0.45228 0.0
C378 C 0.88616 0.3036 0.47434 0.0
C379 C 0.85071 0.29085 0.46438 0.0
C380 C 0.84209 0.31255 0.44898 0.0
C381 C 0.86942 0.34553 0.44319 0.0
C382 C 0.89629 0.28141 0.49095 0.0
C383 C 0.80461 0.29996 0.43801 0.0
H384 H 0.80321 0.15608 0.45538 0.0
H385 H 0.75052 0.21461 0.4991 0.0
H386 H 0.85179 0.2376 0.43084 0.0
H387 H 0.88375 0.23071 0.44938 0.0
H388 H 0.85275 0.18904 0.43593 0.0
H389 H 0.76933 0.28238 0.50548 0.0
H390 H 0.81944 0.30213 0.5035 0.0
H391 H 0.7889 0.3096 0.4844 0.0
H392 H 0.94081 0.3451 0.47513 0.0
H393 H 0.86294 0.36177 0.43119 0.0
H394 H 0.89839 0.2527 0.4848 0.0
H395 H 0.87402 0.27591 0.50228 0.0
H396 H 0.92345 0.29718 0.49846 0.0
H397 H 0.80174 0.2718 0.42948 0.0
H398 H 0.80128 0.32157 0.42745 0.0
H399 H 0.78136 0.29535 0.44876 0.0
C400 C 0.50572 0.59651 0.84227 0.0
C401 C 0.5403 0.58783 0.84054 0.0
C402 C 0.5028 0.63422 0.83983 0.0
C403 C 0.53512 0.66401 0.83522 0.0
C404 C 0.57031 0.65565 0.83396 0.0
C405 C 0.57255 0.61776 0.83685 0.0
C406 C 0.46503 0.64205 0.84203 0.0
C407 C 0.60532 0.6863 0.82865 0.0
C408 C 0.52223 0.74597 0.80492 0.0
C409 C 0.52982 0.77766 0.81914 0.0
C410 C 0.52328 0.7089 0.81006 0.0
C411 C 0.53167 0.70291 0.83003 0.0
C412 C 0.53753 0.73422 0.8447 0.0
C413 C 0.53667 0.77126 0.83908 0.0
C414 C 0.51594 0.67621 0.794 0.0
C415 C 0.5454 0.72873 0.86626 0.0
H416 H 0.48071 0.57364 0.84538 0.0
H417 H 0.59929 0.6112 0.83537 0.0
H418 H 0.46601 0.66238 0.85525 0.0
H419 H 0.45825 0.65626 0.82884 0.0
H420 H 0.44205 0.61511 0.84394 0.0
H421 H 0.63081 0.67581 0.82928 0.0
H422 H 0.60203 0.69521 0.81333 0.0
H423 H 0.60962 0.71258 0.83895 0.0
H424 H 0.51572 0.75024 0.7896 0.0
H425 H 0.54246 0.79545 0.8502 0.0
H426 H 0.49141 0.65222 0.79792 0.0
H427 H 0.5405 0.66424 0.7929 0.0
H428 H 0.51031 0.68577 0.77913 0.0
H429 H 0.523 0.7043 0.87177 0.0
H430 H 0.5472 0.7553 0.87604 0.0
H431 H 0.57227 0.72103 0.86757 0.0
C432 C 0.94597 0.54739 0.13501 0.0
C433 C 0.95745 0.51511 0.14059 0.0
C434 C 0.90758 0.54662 0.13419 0.0
C435 C 0.87938 0.51273 0.13902 0.0
C436 C 0.8908 0.4802 0.14483 0.0
C437 C 0.92937 0.48179 0.14556 0.0
C438 C 0.89715 0.58209 0.12792 0.0
C439 C 0.86215 0.4433 0.15005 0.0
C440 C 0.77947 0.51908 0.15142 0.0
C441 C 0.75946 0.50537 0.13334 0.0
C442 C 0.81825 0.5218 0.15348 0.0
C443 C 0.83804 0.51068 0.13712 0.0
C444 C 0.81813 0.49734 0.1188 0.0
C445 C 0.77954 0.49501 0.11714 0.0
C446 C 0.83802 0.53626 0.17331 0.0
C447 C 0.83761 0.48529 0.10085 0.0
H448 H 0.96705 0.57341 0.13115 0.0
H449 H 0.93745 0.45658 0.14989 0.0
H450 H 0.87984 0.57477 0.11395 0.0
H451 H 0.87991 0.59176 0.13952 0.0
H452 H 0.92221 0.60667 0.12535 0.0
H453 H 0.87539 0.42094 0.15486 0.0
H454 H 0.8442 0.44976 0.16221 0.0
H455 H 0.84347 0.43095 0.13691 0.0
H456 H 0.76466 0.52702 0.16414 0.0
H457 H 0.76511 0.48527 0.1029 0.0
H458 H 0.86238 0.56185 0.17131 0.0
H459 H 0.84911 0.51334 0.17931 0.0
H460 H 0.81917 0.54459 0.18448 0.0
H461 H 0.86138 0.50997 0.09679 0.0
H462 H 0.81838 0.47554 0.08765 0.0
H463 H 0.84949 0.46124 0.10448 0.0
C464 C 0.3147 0.78764 0.52184 0.0
C465 C 0.32837 0.81752 0.5089 0.0
C466 C 0.28658 0.7538 0.51545 0.0
C467 C 0.27172 0.74991 0.49571 0.0
C468 C 0.28467 0.7805 0.48281 0.0
C469 C 0.31285 0.81386 0.48955 0.0
C470 C 0.27357 0.72177 0.52962 0.0
C471 C 0.26935 0.77764 0.4617 0.0
C472 C 0.23022 0.65074 0.46913 0.0
C473 C 0.1916 0.64716 0.46977 0.0
C474 C 0.25652 0.68336 0.4782 0.0
C475 C 0.24392 0.71324 0.4881 0.0
C476 C 0.2049 0.70912 0.48947 0.0
C477 C 0.17918 0.67605 0.48031 0.0
C478 C 0.29786 0.68647 0.47657 0.0
C479 C 0.19039 0.74039 0.49985 0.0
H480 H 0.32682 0.7902 0.53676 0.0
H481 H 0.32291 0.83714 0.4796 0.0
H482 H 0.24255 0.71372 0.53074 0.0
H483 H 0.28118 0.69543 0.52377 0.0
H484 H 0.28625 0.73025 0.54482 0.0
H485 H 0.28118 0.80469 0.45388 0.0
H486 H 0.27596 0.75312 0.45304 0.0
H487 H 0.23832 0.7715 0.46176 0.0
H488 H 0.23992 0.6282 0.46125 0.0
H489 H 0.14938 0.67358 0.48072 0.0
H490 H 0.31171 0.69258 0.49156 0.0
H491 H 0.31148 0.7111 0.4674 0.0
H492 H 0.30293 0.65953 0.46963 0.0
H493 H 0.20312 0.74806 0.51505 0.0
H494 H 0.15933 0.73135 0.50106 0.0
H495 H 0.19859 0.7671 0.49143 0.0
C496 C 0.50827 0.3159 0.82935 0.0
C497 C 0.5387 0.34475 0.8382 0.0
C498 C 0.50786 0.27654 0.82817 0.0
C499 C 0.5388 0.26553 0.83585 0.0
C500 C 0.56926 0.29433 0.84523 0.0
C501 C 0.56878 0.33355 0.84637 0.0
C502 C 0.47467 0.24682 0.81817 0.0
C503 C 0.60289 0.28388 0.85348 0.0
C504 C 0.52233 0.15674 0.84169 0.0
C505 C 0.53461 0.14491 0.82329 0.0
C506 C 0.52482 0.19624 0.84643 0.0
C507 C 0.54033 0.2244 0.8325 0.0
C508 C 0.55464 0.21265 0.8144 0.0
C509 C 0.55144 0.17313 0.81 0.0
C510 C 0.50916 0.20754 0.86585 0.0
C511 C 0.57181 0.24158 0.79922 0.0
H512 H 0.48466 0.32403 0.82317 0.0
H513 H 0.59243 0.35553 0.85327 0.0
H514 H 0.48373 0.23395 0.80429 0.0
H515 H 0.46339 0.22278 0.82809 0.0
H516 H 0.45169 0.25963 0.81425 0.0
H517 H 0.62287 0.30902 0.86171 0.0
H518 H 0.59378 0.25989 0.86367 0.0
H519 H 0.61792 0.27335 0.84107 0.0
H520 H 0.5092 0.13495 0.85194 0.0
H521 H 0.56132 0.16404 0.79584 0.0
H522 H 0.48356 0.21672 0.86274 0.0
H523 H 0.52973 0.23265 0.87371 0.0
H524 H 0.5017 0.18315 0.87592 0.0
H525 H 0.54989 0.2535 0.79293 0.0
H526 H 0.58456 0.22831 0.78673 0.0
H527 H 0.59375 0.26638 0.80642 0.0
C528 C 0.53247 0.84063 0.50977 0.0
C529 C 0.5662 0.87049 0.50959 0.0
C530 C 0.53242 0.80197 0.51227 0.0
C531 C 0.56692 0.79302 0.51511 0.0
C532 C 0.60112 0.82278 0.51411 0.0
C533 C 0.60035 0.86108 0.51117 0.0
C534 C 0.49535 0.77104 0.5128 0.0
C535 C 0.63849 0.81469 0.51738 0.0
C536 C 0.5657 0.70948 0.54767 0.0
C537 C 0.56951 0.68012 0.53369 0.0
C538 C 0.56499 0.74617 0.54177 0.0
C539 C 0.56712 0.75372 0.52128 0.0
C540 C 0.56977 0.72399 0.50697 0.0
C541 C 0.57123 0.68765 0.51334 0.0
C542 C 0.56236 0.77705 0.55758 0.0
C543 C 0.57139 0.73069 0.48495 0.0
H544 H 0.50595 0.84761 0.50837 0.0
H545 H 0.62654 0.884 0.51118 0.0
H546 H 0.49604 0.74504 0.50316 0.0
H547 H 0.49012 0.7617 0.52825 0.0
H548 H 0.4715 0.7816 0.50781 0.0
H549 H 0.66253 0.84006 0.51441 0.0
H550 H 0.64093 0.80726 0.53307 0.0
H551 H 0.64056 0.78935 0.50762 0.0
H552 H 0.5632 0.70384 0.56336 0.0
H553 H 0.57441 0.66543 0.50239 0.0
H554 H 0.53658 0.78622 0.55503 0.0
H555 H 0.58668 0.80315 0.55664 0.0
H556 H 0.56179 0.76681 0.57292 0.0
H557 H 0.54699 0.74066 0.48032 0.0
H558 H 0.57145 0.70405 0.47565 0.0
H559 H 0.5971 0.754 0.48186 0.0
C560 C 0.80858 0.62259 0.8512 0.0
C561 C 0.79609 0.6007 0.86778 0.0
C562 C 0.84536 0.64718 0.85069 0.0
C563 C 0.87025 0.64961 0.86707 0.0
C564 C 0.85775 0.62776 0.88387 0.0
C565 C 0.82082 0.60382 0.88407 0.0
C566 C 0.85769 0.67024 0.8326 0.0
C567 C 0.8835 0.62942 0.90163 0.0
C568 C 0.97599 0.67842 0.86333 0.0
C569 C 0.98582 0.71491 0.87382 0.0
C570 C 0.93823 0.65779 0.85978 0.0
C571 C 0.90972 0.67426 0.86677 0.0
C572 C 0.91953 0.71243 0.87589 0.0
C573 C 0.95755 0.73225 0.87944 0.0
C574 C 0.92897 0.61708 0.85011 0.0
C575 C 0.88992 0.73126 0.88319 0.0
H576 H 0.78978 0.62005 0.83846 0.0
H577 H 0.81122 0.58767 0.89711 0.0
H578 H 0.86875 0.70162 0.83717 0.0
H579 H 0.88083 0.66102 0.82526 0.0
H580 H 0.83442 0.66648 0.8215 0.0
H581 H 0.86945 0.61042 0.91346 0.0
H582 H 0.90853 0.6203 0.8968 0.0
H583 H 0.89362 0.65971 0.90819 0.0
H584 H 0.99774 0.66472 0.85915 0.0
H585 H 0.96514 0.76061 0.8874 0.0
H586 H 0.90656 0.6127 0.83849 0.0
H587 H 0.91829 0.59579 0.86155 0.0
H588 H 0.95389 0.61057 0.84318 0.0
H589 H 0.86737 0.72733 0.87168 0.0
H590 H 0.90186 0.76285 0.88712 0.0
H591 H 0.87678 0.71712 0.89666 0.0
C592 C 0.26342 0.77055 0.16896 0.0
C593 C 0.26116 0.74482 0.15214 0.0
C594 C 0.2978 0.79648 0.17544 0.0
C595 C 0.3308 0.79686 0.16481 0.0
C596 C 0.32863 0.7715 0.14758 0.0
C597 C 0.29385 0.74566 0.1415 0.0
C598 C 0.29895 0.82278 0.194 0.0
C599 C 0.36313 0.77127 0.13577 0.0
C600 C 0.41335 0.8865 0.17564 0.0
C601 C 0.43365 0.87365 0.19019 0.0
C602 C 0.38055 0.86139 0.16663 0.0
C603 C 0.3677 0.82259 0.17237 0.0
C604 C 0.38892 0.80904 0.18644 0.0
C605 C 0.42166 0.83466 0.1951 0.0
C606 C 0.35882 0.87682 0.15158 0.0
C607 C 0.37628 0.76787 0.19294 0.0
H608 H 0.23839 0.76967 0.17743 0.0
H609 H 0.29219 0.72612 0.12836 0.0
H610 H 0.31694 0.81579 0.20566 0.0
H611 H 0.31155 0.85357 0.19066 0.0
H612 H 0.2706 0.81988 0.20015 0.0
H613 H 0.35641 0.75117 0.12218 0.0
H614 H 0.37718 0.80098 0.13122 0.0
H615 H 0.38352 0.7623 0.14522 0.0
H616 H 0.42226 0.91662 0.17185 0.0
H617 H 0.4376 0.82429 0.20603 0.0
H618 H 0.33155 0.87806 0.15791 0.0
H619 H 0.35256 0.85703 0.1379 0.0
H620 H 0.37431 0.9064 0.14734 0.0
H621 H 0.34919 0.76324 0.20073 0.0
H622 H 0.39705 0.76125 0.20316 0.0
H623 H 0.37148 0.74685 0.17974 0.0
C624 C 0.5959 0.14124 0.51473 0.0
C625 C 0.56253 0.11222 0.51789 0.0
C626 C 0.59733 0.18086 0.51654 0.0
C627 C 0.56455 0.19193 0.52162 0.0
C628 C 0.53052 0.16282 0.52431 0.0
C629 C 0.52993 0.12337 0.52247 0.0
C630 C 0.63427 0.2109 0.51366 0.0
C631 C 0.49492 0.17338 0.52966 0.0
C632 C 0.5783 0.29067 0.54911 0.0
C633 C 0.57298 0.31393 0.53383 0.0
C634 C 0.5755 0.25108 0.5453 0.0
C635 C 0.56668 0.23388 0.52573 0.0
C636 C 0.56052 0.25687 0.51026 0.0
C637 C 0.56375 0.29664 0.51449 0.0
C638 C 0.58224 0.22772 0.56227 0.0
C639 C 0.55087 0.23951 0.48922 0.0
H640 H 0.62132 0.13314 0.5113 0.0
H641 H 0.50392 0.10128 0.52482 0.0
H642 H 0.63076 0.23163 0.50267 0.0
H643 H 0.64388 0.22793 0.52798 0.0
H644 H 0.65654 0.19756 0.50844 0.0
H645 H 0.47019 0.14742 0.52974 0.0
H646 H 0.49832 0.18873 0.54469 0.0
H647 H 0.48919 0.19355 0.51893 0.0
H648 H 0.58445 0.30339 0.56423 0.0
H649 H 0.55968 0.31434 0.50258 0.0
H650 H 0.60595 0.21535 0.55874 0.0
H651 H 0.55707 0.20296 0.56421 0.0
H652 H 0.58879 0.24546 0.57664 0.0
H653 H 0.57413 0.22851 0.48329 0.0
H654 H 0.54573 0.26091 0.47902 0.0
H655 H 0.52546 0.21432 0.48915 0.0
C656 C 0.39726 0.61719 0.80007 0.0
C657 C 0.38231 0.58268 0.80973 0.0
C658 C 0.38755 0.65144 0.80592 0.0
C659 C 0.3625 0.65102 0.82184 0.0
C660 C 0.34736 0.6162 0.83155 0.0
C661 C 0.35749 0.58267 0.8254 0.0
C662 C 0.40511 0.68805 0.79546 0.0
C663 C 0.32073 0.61434 0.84872 0.0
C664 C 0.34961 0.73159 0.85676 0.0
C665 C 0.31275 0.73091 0.85146 0.0
C666 C 0.36893 0.7094 0.84548 0.0
C667 C 0.35083 0.68608 0.8286 0.0
C668 C 0.31611 0.68995 0.82157 0.0
C669 C 0.29729 0.71214 0.83316 0.0
C670 C 0.40677 0.70747 0.85291 0.0
C671 C 0.29662 0.6668 0.80316 0.0
H672 H 0.4168 0.61753 0.78807 0.0
H673 H 0.34675 0.55657 0.83339 0.0
H674 H 0.38524 0.70591 0.79396 0.0
H675 H 0.42989 0.70578 0.80436 0.0
H676 H 0.4149 0.68138 0.78039 0.0
H677 H 0.3117 0.58499 0.85469 0.0
H678 H 0.3344 0.63559 0.86105 0.0
H679 H 0.2953 0.62217 0.84379 0.0
H680 H 0.36228 0.74718 0.87051 0.0
H681 H 0.26898 0.7116 0.82876 0.0
H682 H 0.42633 0.70914 0.84033 0.0
H683 H 0.40361 0.67926 0.85969 0.0
H684 H 0.41939 0.7313 0.86432 0.0
H685 H 0.31703 0.66648 0.79114 0.0
H686 H 0.27417 0.6787 0.79745 0.0
H687 H 0.28364 0.63626 0.80684 0.0
C688 C 0.86159 0.29096 0.16222 0.0
C689 C 0.8963 0.2881 0.16936 0.0
C690 C 0.82776 0.26466 0.16755 0.0
C691 C 0.82868 0.23504 0.18047 0.0
C692 C 0.86366 0.23198 0.18766 0.0
C693 C 0.89699 0.25845 0.18198 0.0
C694 C 0.79104 0.26865 0.15945 0.0
C695 C 0.86588 0.20108 0.20162 0.0
C696 C 0.74463 0.18988 0.21184 0.0
C697 C 0.73013 0.15317 0.20186 0.0
C698 C 0.77599 0.21722 0.2047 0.0
C699 C 0.79318 0.20784 0.18704 0.0
C700 C 0.77779 0.17149 0.17643 0.0
C701 C 0.7465 0.14455 0.18399 0.0
C702 C 0.79148 0.25566 0.21645 0.0
C703 C 0.79519 0.1605 0.15747 0.0
H704 H 0.86091 0.31359 0.1523 0.0
H705 H 0.92368 0.25642 0.18778 0.0
H706 H 0.7752 0.24108 0.15134 0.0
H707 H 0.77339 0.27432 0.17194 0.0
H708 H 0.79517 0.29261 0.14916 0.0
H709 H 0.89531 0.20219 0.20558 0.0
H710 H 0.85093 0.20474 0.21557 0.0
H711 H 0.85177 0.1718 0.19465 0.0
H712 H 0.7317 0.19711 0.22543 0.0
H713 H 0.73571 0.11618 0.17626 0.0
H714 H 0.79387 0.28008 0.20665 0.0
H715 H 0.82014 0.25781 0.22221 0.0
H716 H 0.77369 0.25932 0.22929 0.0
H717 H 0.79874 0.1837 0.1468 0.0
H718 H 0.77803 0.13265 0.15009 0.0
H719 H 0.82353 0.15755 0.16092 0.0
C720 C 0.1159 0.50842 0.07452 0.0
C721 C 0.0908 0.51943 0.0876 0.0
C722 C 0.12824 0.52922 0.05754 0.0
C723 C 0.11529 0.56183 0.05373 0.0
C724 C 0.08988 0.57292 0.06693 0.0
C725 C 0.07773 0.55139 0.0836 0.0
C726 C 0.15506 0.51635 0.04369 0.0
C727 C 0.07555 0.60762 0.06348 0.0
C728 C 0.16737 0.64015 0.02016 0.0
C729 C 0.14423 0.6314 0.00298 0.0
C730 C 0.15911 0.6169 0.03662 0.0
C731 C 0.12726 0.58397 0.03569 0.0
C732 C 0.10492 0.57405 0.01798 0.0
C733 C 0.11358 0.59799 0.00189 0.0
C734 C 0.18341 0.62854 0.05532 0.0
C735 C 0.07099 0.53897 0.0163 0.0
H736 H 0.12606 0.48372 0.07762 0.0
H737 H 0.05822 0.55991 0.09366 0.0
H738 H 0.14235 0.5093 0.02845 0.0
H739 H 0.18121 0.54033 0.04259 0.0
H740 H 0.16251 0.49044 0.04878 0.0
H741 H 1.05671 0.61299 0.07548 0.0
H742 H 0.09949 0.63409 0.06266 0.0
H743 H 0.0599 0.60306 0.04899 0.0
H744 H 0.19102 0.66603 0.02103 0.0
H745 H 0.096 0.59087 0.98847 0.0
H746 H 0.19252 0.6035 0.06024 0.0
H747 H 0.16692 0.63738 0.06757 0.0
H748 H 0.20872 0.65308 0.05312 0.0
H749 H 0.07865 0.5127 0.02062 0.0
H750 H 0.05856 0.53335 0.00095 0.0
H751 H 1.04923 0.54349 0.02673 0.0
C752 C 0.58292 0.99416 0.45071 0.0
C753 C 0.54533 0.98378 0.45637 0.0
C754 C 0.59247 0.9978 0.43053 0.0
C755 C 0.56361 0.99094 0.41574 0.0
C756 C 0.52555 0.98052 0.42144 0.0
C757 C 0.51689 0.977 0.44168 0.0
C758 C 0.63336 0.00885 0.42505 0.0
C759 C 0.49394 0.97312 0.40614 0.0
C760 C 0.58223 0.03181 0.36465 0.0
C761 C 0.58276 0.99858 0.35268 0.0
C762 C 0.57726 0.03007 0.38534 0.0
C763 C 0.57288 0.99428 0.39426 0.0
C764 C 0.5748 0.961 0.38235 0.0
C765 C 0.57962 0.96353 0.3617 0.0
C766 C 0.57521 0.06615 0.39753 0.0
C767 C 0.57059 0.9224 0.39134 0.0
H768 H 0.60483 0.9994 0.46203 0.0
H769 H 0.48775 0.96902 0.44603 0.0
H770 H 0.63905 0.9856 0.41497 0.0
H771 H 0.64018 0.0358 0.41682 0.0
H772 H 0.65239 0.01365 0.43837 0.0
H773 H 0.46587 0.96571 0.41306 0.0
H774 H 0.49695 0.99925 0.3975 0.0
H775 H 0.49522 0.94886 0.39537 0.0
H776 H 0.58431 0.05889 0.35773 0.0
H777 H 0.58056 0.93791 0.35253 0.0
H778 H 0.595 0.07178 0.41052 0.0
H779 H 0.54654 0.06173 0.40348 0.0
H780 H 0.58184 0.09229 0.38862 0.0
H781 H 0.59065 0.92591 0.40409 0.0
H782 H 0.57541 0.90005 0.3803 0.0
H783 H 0.54189 0.9116 0.39722 0.0
C784 C 0.54274 0.48641 0.77781 0.0
C785 C 0.57549 0.48091 0.78604 0.0
C786 C 0.53911 0.48967 0.7572 0.0
C787 C 0.56899 0.48715 0.74459 0.0
C788 C 0.60216 0.48155 0.7529 0.0
C789 C 0.60511 0.47881 0.77358 0.0
C790 C 0.50357 0.49632 0.74897 0.0
C791 C 0.63452 0.47837 0.73994 0.0
C792 C 0.55098 0.45917 0.6893 0.0
C793 C 0.5656 0.49502 0.68081 0.0
C794 C 0.55109 0.45634 0.71006 0.0
C795 C 0.56578 0.49025 0.72269 0.0
C796 C 0.57931 0.52674 0.7143 0.0
C797 C 0.57923 0.52867 0.69345 0.0
C798 C 0.53644 0.4169 0.71845 0.0
C799 C 0.59489 0.56359 0.72731 0.0
H800 H 0.52044 0.48929 0.78757 0.0
H801 H 0.63054 0.47475 0.78 0.0
H802 H 0.51033 0.52431 0.74164 0.0
H803 H 0.49045 0.47303 0.73742 0.0
H804 H 0.48276 0.49696 0.76076 0.0
H805 H 0.65813 0.47354 0.74872 0.0
H806 H 0.62483 0.45393 0.72849 0.0
H807 H 0.64514 0.50532 0.73191 0.0
H808 H 0.53964 0.43314 0.67967 0.0
H809 H 0.59089 0.55643 0.68706 0.0
H810 H 0.51434 0.41746 0.72946 0.0
H811 H 0.55951 0.4094 0.72645 0.0
H812 H 0.5246 0.39359 0.70665 0.0
H813 H 0.57451 0.56653 0.73895 0.0
H814 H 0.60153 0.58996 0.71858 0.0
H815 H 0.62091 0.56229 0.73512 0.0
C816 C 0.59143 0.95884 0.58175 0.0
C817 C 0.57171 0.97705 0.56946 0.0
C818 C 0.582 0.95353 0.6018 0.0
C819 C 0.55193 0.96653 0.60968 0.0
C820 C 0.53095 0.98357 0.59711 0.0
C821 C 0.54122 0.9888 0.57712 0.0
C822 C 0.60512 0.93532 0.61472 0.0
C823 C 0.49848 0.99743 0.60493 0.0
C824 C 0.51461 0.92939 0.65963 0.0
C825 C 0.53348 0.96045 0.67289 0.0
C826 C 0.51964 0.93124 0.63893 0.0
C827 C 0.54435 0.96477 0.63139 0.0
C828 C 0.56322 0.9963 0.64471 0.0
C829 C 0.55751 0.99376 0.66528 0.0
C830 C 0.49884 0.89721 0.62515 0.0
C831 C 0.59008 0.03242 0.63728 0.0
H832 H 0.61492 0.94956 0.57582 0.0
H833 H 0.52585 1.00277 0.5676 0.0
H834 H 0.62017 0.95698 0.62658 0.0
H835 H 0.58663 0.91056 0.62224 0.0
H836 H 0.62614 0.92473 0.60602 0.0
H837 H 0.4829 0.00665 0.59283 0.0
H838 H 0.47866 0.97409 0.61277 0.0
H839 H 0.50908 0.02245 0.61596 0.0
H840 H 0.49573 0.90375 0.66546 0.0
H841 H 0.57256 0.01762 0.67548 0.0
H842 H 0.51919 0.88457 0.6171 0.0
H843 H 0.48243 0.90711 0.61372 0.0
H844 H 0.47943 0.87399 0.6333 0.0
H845 H 0.61374 0.02471 0.62963 0.0
H846 H 0.60174 0.05476 0.64955 0.0
H847 H 0.57564 0.04539 0.62618 0.0
C848 C 0.54334 0.4773 0.90418 0.0
C849 C 0.516 0.44665 0.89434 0.0
C850 C 0.5493 0.47861 0.92488 0.0
C851 C 0.52692 0.44881 0.93608 0.0
C852 C 0.49951 0.41747 0.9262 0.0
C853 C 0.49445 0.4167 0.90538 0.0
C854 C 0.57896 0.51243 0.9348 0.0
C855 C 0.47497 0.3853 0.93767 0.0
C856 C 0.56157 0.43988 0.98855 0.0
C857 C 0.54136 0.46064 0.00018 0.0
C858 C 0.55679 0.43527 0.96768 0.0
C859 C 0.53105 0.45163 0.95823 0.0
C860 C 0.51025 0.47218 0.96988 0.0
C861 C 0.51577 0.47658 0.99068 0.0
C862 C 0.57962 0.41336 0.95572 0.0
C863 C 0.48257 0.49012 0.96036 0.0
H864 H 0.55963 0.5008 0.89575 0.0
H865 H 0.47323 0.39299 0.8978 0.0
H866 H 0.56549 0.52989 0.94493 0.0
H867 H 0.59841 0.50167 0.94405 0.0
H868 H 0.59564 0.53178 0.92379 0.0
H869 H 0.45615 0.36215 0.92769 0.0
H870 H 0.49259 0.37199 0.94678 0.0
H871 H 0.45744 0.39747 0.94814 0.0
H872 H 0.58103 0.42704 0.99578 0.0
H873 H 0.50049 0.49321 -0.00052 0.0
H874 H 0.59768 0.43288 0.94526 0.0
H875 H 0.56073 0.38888 0.94656 0.0
H876 H 0.59778 0.4016 0.96536 0.0
H877 H 0.4975 0.51275 0.95037 0.0
H878 H 0.46738 0.50365 0.9716 0.0
H879 H 0.46167 0.4677 0.95102 0.0
C880 C 1.04946 0.53378 0.21322 0.0
C881 C 0.07384 0.52148 0.20019 0.0
C882 C 1.04882 0.52611 0.23348 0.0
C883 C 0.07371 0.50631 0.24093 0.0
C884 C 0.0978 0.49299 0.22771 0.0
C885 C 0.0973 0.50041 0.20739 0.0
C886 C 1.02215 0.54008 0.24701 0.0
C887 C 0.12507 0.47226 0.23515 0.0
C888 C 0.09794 0.52889 0.29609 0.0
C889 C 0.07448 0.49625 0.30462 0.0
C890 C 0.09911 0.5317 0.27533 0.0
C891 C 0.07572 0.50152 0.26274 0.0
C892 C 1.0526 0.46811 0.27114 0.0
C893 C 1.05252 0.46571 0.29196 0.0
C894 C 0.12452 0.56762 0.2669 0.0
C895 C 1.02699 0.43549 0.2582 0.0
H896 H 1.03106 0.54976 0.20759 0.0
H897 H 0.1162 0.49092 0.19729 0.0
H898 H 1.0052 0.51571 0.25541 0.0
H899 H 1.03834 0.56271 0.25813 0.0
H900 H 1.00279 0.55251 0.23861 0.0
H901 H 0.14032 0.4618 0.22278 0.0
H902 H 0.14595 0.49229 0.24557 0.0
H903 H 0.11012 0.44706 0.2436 0.0
H904 H 0.11462 0.55294 0.30565 0.0
H905 H 1.03488 0.43999 0.29832 0.0
H906 H 0.10731 0.58449 0.26 0.0
H907 H 0.14204 0.55932 0.25501 0.0
H908 H 0.14333 0.58681 0.27853 0.0
H909 H 1.00569 0.44644 0.25057 0.0
H910 H 1.01219 0.41061 0.26696 0.0
H911 H 1.04324 0.42486 0.24642 0.0
loop_
_geom_bond_atom_site_label_1
_geom_bond_atom_site_label_2
_geom_bond_distance
_geom_bond_site_symmetry_2
_ccdc_geom_bond_type
Nd0 C2 2.836 . S
Nd0 O20 2.500 . S
Nd0 O21 2.492 . S
Nd0 O22 2.487 . S
Nd0 O23 2.682 . S
Nd0 O24 2.410 . S
Nd0 O29 2.414 . S
Nd0 O31 2.424 1_455 S
Nd1 C11 2.863 . S
Nd1 O23 2.417 1_655 S
Nd1 O25 2.389 1_655 S
Nd1 O26 2.525 . S
Nd1 O27 2.514 . S
Nd1 O28 2.488 1_655 S
Nd1 O29 2.677 1_655 S
Nd1 O30 2.442 . S
C2 Nd0 2.836 . S
C2 C3 1.498 . S
C2 O20 1.258 . S
C2 O21 1.239 . S
C3 C2 1.498 . S
C3 C4 1.366 . S
C3 C8 1.407 . S
C4 C3 1.366 . S
C4 C5 1.392 . S
C4 H32 0.930 . S
C5 C4 1.392 . S
C5 C6 1.398 . S
C5 H33 0.929 . S
C6 C5 1.398 . S
C6 C7 1.352 . S
C7 C6 1.352 . S
C7 C8 1.384 . S
C7 H34 0.930 . S
C8 C3 1.407 . S
C8 C7 1.384 . S
C8 H35 0.929 . S
C9 O22 1.241 . S
C9 O23 1.273 . S
C10 O24 1.251 . S
C10 O25 1.268 . S
C11 Nd1 2.863 . S
C11 C12 1.498 . S
C11 O26 1.258 . S
C11 O27 1.239 . S
C12 C11 1.498 . S
C12 C13 1.366 . S
C12 C17 1.407 . S
C13 C12 1.366 . S
C13 C14 1.392 . S
C13 H36 0.930 . S
C14 C13 1.392 . S
C14 C15 1.398 . S
C14 H37 0.929 . S
C15 C14 1.398 . S
C15 C16 1.352 . S
C16 C15 1.352 . S
C16 C17 1.384 . S
C16 H38 0.930 . S
C17 C12 1.407 . S
C17 C16 1.384 . S
C17 H39 0.929 . S
C18 O28 1.241 . S
C18 O29 1.273 . S
C19 O30 1.251 . S
C19 O31 1.268 . S
O20 Nd0 2.500 . S
O20 C2 1.258 . S
O21 Nd0 2.492 . S
O21 C2 1.239 . S
O22 Nd0 2.487 . S
O22 C9 1.241 . S
O23 Nd0 2.682 . S
O23 Nd1 2.417 1_455 S
O23 C9 1.273 . S
O24 Nd0 2.410 . S
O24 C10 1.251 . S
O25 Nd1 2.389 1_455 S
O25 C10 1.268 . S
O26 Nd1 2.525 . S
O26 C11 1.258 . S
O27 Nd1 2.514 . S
O27 C11 1.239 . S
O28 Nd1 2.488 1_455 S
O28 C18 1.241 . S
O29 Nd0 2.414 . S
O29 Nd1 2.677 1_455 S
O29 C18 1.273 . S
O30 Nd1 2.442 . S
O30 C19 1.251 . S
O31 Nd0 2.424 1_655 S
O31 C19 1.268 . S
H32 C4 0.930 . S
H33 C5 0.929 . S
H34 C7 0.930 . S
H35 C8 0.929 . S
H36 C13 0.930 . S
H37 C14 0.929 . S
H38 C16 0.930 . S
H39 C17 0.929 . S
Nd40 C42 2.818 1_545 S
Nd40 O60 2.482 1_545 S
Nd40 O61 2.477 1_545 S
Nd40 O62 2.487 . S
Nd40 O63 2.684 . S
Nd40 O64 2.385 1_545 S
Nd40 O69 2.410 . S
Nd40 O71 2.450 . S
Nd41 C51 2.836 . S
Nd41 O63 2.414 . S
Nd41 O65 2.424 1_545 S
Nd41 O66 2.500 . S
Nd41 O67 2.492 . S
Nd41 O68 2.487 . S
Nd41 O69 2.682 . S
Nd41 O70 2.410 . S
C42 Nd40 2.818 1_565 S
C42 C43 1.498 . S
C42 O60 1.258 . S
C42 O61 1.239 . S
C43 C42 1.498 . S
C43 C44 1.366 . S
C43 C48 1.407 . S
C44 C43 1.366 . S
C44 C45 1.392 . S
C44 H72 0.930 . S
C45 C44 1.392 . S
C45 C46 1.398 . S
C45 H73 0.929 . S
C46 C45 1.398 . S
C46 C47 1.352 . S
C47 C46 1.352 . S
C47 C48 1.384 . S
C47 H74 0.930 . S
C48 C43 1.407 . S
C48 C47 1.384 . S
C48 H75 0.929 . S
C49 O62 1.241 . S
C49 O63 1.273 . S
C50 O64 1.251 . S
C50 O65 1.268 . S
C51 Nd41 2.836 . S
C51 C52 1.498 . S
C51 O66 1.258 . S
C51 O67 1.239 . S
C52 C51 1.498 . S
C52 C53 1.366 . S
C52 C57 1.407 . S
C53 C52 1.366 . S
C53 C54 1.392 . S
C53 H76 0.930 . S
C54 C53 1.392 . S
C54 C55 1.398 . S
C54 H77 0.929 . S
C55 C54 1.398 . S
C55 C56 1.352 . S
C56 C55 1.352 . S
C56 C57 1.384 . S
C56 H78 0.930 . S
C57 C52 1.407 . S
C57 C56 1.384 . S
C57 H79 0.929 . S
C58 O68 1.241 . S
C58 O69 1.273 . S
C59 O70 1.251 . S
C59 O71 1.268 . S
O60 Nd40 2.482 1_565 S
O60 C42 1.258 . S
O61 Nd40 2.477 1_565 S
O61 C42 1.239 . S
O62 Nd40 2.487 . S
O62 C49 1.241 . S
O63 Nd40 2.684 . S
O63 Nd41 2.414 . S
O63 C49 1.273 . S
O64 Nd40 2.385 1_565 S
O64 C50 1.251 . S
O65 Nd41 2.424 1_565 S
O65 C50 1.268 . S
O66 Nd41 2.500 . S
O66 C51 1.258 . S
O67 Nd41 2.492 . S
O67 C51 1.239 . S
O68 Nd41 2.487 . S
O68 C58 1.241 . S
O69 Nd40 2.410 . S
O69 Nd41 2.682 . S
O69 C58 1.273 . S
O70 Nd41 2.410 . S
O70 C59 1.251 . S
O71 Nd40 2.450 . S
O71 C59 1.268 . S
H72 C44 0.930 . S
H73 C45 0.929 . S
H74 C47 0.930 . S
H75 C48 0.929 . S
H76 C53 0.930 . S
H77 C54 0.929 . S
H78 C56 0.930 . S
H79 C57 0.929 . S
Nd80 C82 2.836 . S
Nd80 O100 2.500 . S
Nd80 O101 2.492 . S
Nd80 O102 2.487 . S
Nd80 O103 2.682 . S
Nd80 O104 2.410 . S
Nd80 O109 2.414 . S
Nd80 O111 2.424 . S
Nd81 C91 2.836 . S
Nd81 O103 2.414 . S
Nd81 O105 2.424 . S
Nd81 O106 2.500 . S
Nd81 O107 2.492 . S
Nd81 O108 2.487 . S
Nd81 O109 2.682 . S
Nd81 O110 2.410 . S
C82 Nd80 2.836 . S
C82 C83 1.498 . S
C82 O100 1.258 . S
C82 O101 1.239 . S
C83 C82 1.498 . S
C83 C84 1.366 . S
C83 C88 1.407 . S
C84 C83 1.366 . S
C84 C85 1.392 . S
C84 H112 0.930 . S
C85 C84 1.392 . S
C85 C86 1.398 . S
C85 H113 0.929 . S
C86 C85 1.398 . S
C86 C87 1.352 . S
C87 C86 1.352 . S
C87 C88 1.384 . S
C87 H114 0.930 . S
C88 C83 1.407 . S
C88 C87 1.384 . S
C88 H115 0.929 . S
C89 O102 1.241 . S
C89 O103 1.273 . S
C90 O104 1.251 . S
C90 O105 1.268 . S
C91 Nd81 2.836 . S
C91 C92 1.498 . S
C91 O106 1.258 . S
C91 O107 1.239 . S
C92 C91 1.498 . S
C92 C93 1.366 . S
C92 C97 1.407 . S
C93 C92 1.366 . S
C93 C94 1.392 . S
C93 H116 0.930 . S
C94 C93 1.392 . S
C94 C95 1.398 . S
C94 H117 0.929 . S
C95 C94 1.398 . S
C95 C96 1.352 . S
C96 C95 1.352 . S
C96 C97 1.384 . S
C96 H118 0.930 . S
C97 C92 1.407 . S
C97 C96 1.384 . S
C97 H119 0.929 . S
C98 O108 1.241 . S
C98 O109 1.273 . S
C99 O110 1.251 . S
C99 O111 1.268 . S
O100 Nd80 2.500 . S
O100 C82 1.258 . S
O101 Nd80 2.492 . S
O101 C82 1.239 . S
O102 Nd80 2.487 . S
O102 C89 1.241 . S
O103 Nd80 2.682 . S
O103 Nd81 2.414 . S
O103 C89 1.273 . S
O104 Nd80 2.410 . S
O104 C90 1.251 . S
O105 Nd81 2.424 . S
O105 C90 1.268 . S
O106 Nd81 2.500 . S
O106 C91 1.258 . S
O107 Nd81 2.492 . S
O107 C91 1.239 . S
O108 Nd81 2.487 . S
O108 C98 1.241 . S
O109 Nd80 2.414 . S
O109 Nd81 2.682 . S
O109 C98 1.273 . S
O110 Nd81 2.410 . S
O110 C99 1.251 . S
O111 Nd80 2.424 . S
O111 C99 1.268 . S
H112 C84 0.930 . S
H113 C85 0.929 . S
H114 C87 0.930 . S
H115 C88 0.929 . S
H116 C93 0.930 . S
H117 C94 0.929 . S
H118 C96 0.930 . S
H119 C97 0.929 . S
C120 C121 1.384 . S
C120 H133 0.947 . S
C120 C155 1.382 . S
C121 C120 1.384 . S
C121 C122 1.378 . S
C122 C121 1.378 . S
C122 C123 1.378 . S
C122 H134 0.952 . S
C123 C122 1.378 . S
C123 H135 0.950 . S
C123 C154 1.383 . S
H124 C143 0.947 . S
H125 C144 0.946 . S
H126 C146 0.953 . S
H127 C147 0.945 . S
H128 C149 0.952 . S
H129 C150 0.949 . S
H130 C152 0.938 1_565 S
H131 C153 0.948 . S
H132 C155 0.951 . S
H133 C120 0.947 . S
H134 C122 0.952 . S
H135 C123 0.950 . S
N136 C139 1.382 . S
N136 C141 1.363 1_545 S
N137 C139 1.371 . S
N137 C140 1.372 . S
N138 C140 1.361 1_565 S
N138 C141 1.377 . S
C139 N136 1.382 . S
C139 N137 1.371 . S
C139 C142 1.480 . S
C140 N137 1.372 . S
C140 N138 1.361 1_545 S
C140 C148 1.457 . S
C141 N136 1.363 1_565 S
C141 N138 1.377 . S
C141 C154 1.479 . S
C142 C139 1.480 . S
C142 C143 1.383 . S
C142 C147 1.385 . S
C143 H124 0.947 . S
C143 C142 1.383 . S
C143 C144 1.388 . S
C144 H125 0.946 . S
C144 C143 1.388 . S
C144 C145 1.384 . S
C145 C144 1.384 . S
C145 C146 1.377 . S
C146 H126 0.953 . S
C146 C145 1.377 . S
C146 C147 1.369 . S
C147 H127 0.945 . S
C147 C142 1.385 . S
C147 C146 1.369 . S
C148 C140 1.457 . S
C148 C149 1.372 . S
C148 C153 1.364 1_545 S
C149 H128 0.952 . S
C149 C148 1.372 . S
C149 C150 1.389 . S
C150 H129 0.949 . S
C150 C149 1.389 . S
C150 C151 1.387 . S
C151 C150 1.387 . S
C151 C152 1.386 . S
C152 H130 0.938 1_545 S
C152 C151 1.386 . S
C152 C153 1.377 1_545 S
C153 H131 0.948 . S
C153 C148 1.364 1_565 S
C153 C152 1.377 1_565 S
C154 C123 1.383 . S
C154 C141 1.479 . S
C154 C155 1.398 . S
C155 C120 1.382 . S
C155 H132 0.951 . S
C155 C154 1.398 . S
C156 C157 1.384 . S
C156 H169 0.947 . S
C156 C191 1.382 . S
C157 C156 1.384 . S
C157 C158 1.378 . S
C158 C157 1.378 . S
C158 C159 1.378 . S
C158 H170 0.952 . S
C159 C158 1.378 . S
C159 H171 0.950 . S
C159 C190 1.383 . S
H160 C179 0.947 . S
H161 C180 0.946 . S
H162 C182 0.953 . S
H163 C183 0.945 . S
H164 C185 0.952 . S
H165 C186 0.949 . S
H166 C188 0.950 . S
H167 C189 0.948 . S
H168 C191 0.951 . S
H169 C156 0.947 . S
H170 C158 0.952 . S
H171 C159 0.950 . S
N172 C175 1.382 . S
N172 C177 1.363 . S
N173 C175 1.371 . S
N173 C176 1.372 . S
N174 C176 1.361 . S
N174 C177 1.377 . S
C175 N172 1.382 . S
C175 N173 1.371 . S
C175 C178 1.480 . S
C176 N173 1.372 . S
C176 N174 1.361 . S
C176 C184 1.457 . S
C177 N172 1.363 . S
C177 N174 1.377 . S
C177 C190 1.479 . S
C178 C175 1.480 . S
C178 C179 1.383 . S
C178 C183 1.385 . S
C179 H160 0.947 . S
C179 C178 1.383 . S
C179 C180 1.388 . S
C180 H161 0.946 . S
C180 C179 1.388 . S
C180 C181 1.384 . S
C181 C180 1.384 . S
C181 C182 1.377 . S
C182 H162 0.953 . S
C182 C181 1.377 . S
C182 C183 1.369 . S
C183 H163 0.945 . S
C183 C178 1.385 . S
C183 C182 1.369 . S
C184 C176 1.457 . S
C184 C185 1.372 . S
C184 C189 1.364 . S
C185 H164 0.952 . S
C185 C184 1.372 . S
C185 C186 1.389 . S
C186 H165 0.949 . S
C186 C185 1.389 . S
C186 C187 1.387 . S
C187 C186 1.387 . S
C187 C188 1.372 . S
C188 H166 0.950 . S
C188 C187 1.372 . S
C188 C189 1.379 . S
C189 H167 0.948 . S
C189 C184 1.364 . S
C189 C188 1.379 . S
C190 C159 1.383 . S
C190 C177 1.479 . S
C190 C191 1.398 . S
C191 C156 1.382 . S
C191 H168 0.951 . S
C191 C190 1.398 . S
C192 C193 1.384 . S
C192 H205 0.947 . S
C192 C227 1.382 . S
C193 C192 1.384 . S
C193 C194 1.378 . S
C194 C193 1.378 . S
C194 C195 1.378 . S
C194 H206 0.952 . S
C195 C194 1.378 . S
C195 H207 0.950 . S
C195 C226 1.383 . S
H196 C215 0.947 . S
H197 C216 0.946 . S
H198 C218 0.953 . S
H199 C219 0.945 . S
H200 C221 0.952 . S
H201 C222 0.949 . S
H202 C224 0.940 1_655 S
H203 C225 0.959 . S
H204 C227 0.951 . S
H205 C192 0.947 . S
H206 C194 0.952 . S
H207 C195 0.950 . S
N208 C211 1.382 . S
N208 C213 1.363 . S
N209 C211 1.371 . S
N209 C212 1.372 . S
N210 C212 1.361 . S
N210 C213 1.377 . S
C211 N208 1.382 . S
C211 N209 1.371 . S
C211 C214 1.480 . S
C212 N209 1.372 . S
C212 N210 1.361 . S
C212 C220 1.457 . S
C213 N208 1.363 . S
C213 N210 1.377 . S
C213 C226 1.479 1_455 S
C214 C211 1.480 . S
C214 C215 1.383 . S
C214 C219 1.385 . S
C215 H196 0.947 . S
C215 C214 1.383 . S
C215 C216 1.388 . S
C216 H197 0.946 . S
C216 C215 1.388 . S
C216 C217 1.384 . S
C217 C216 1.384 . S
C217 C218 1.377 . S
C218 H198 0.953 . S
C218 C217 1.377 . S
C218 C219 1.369 . S
C219 H199 0.945 . S
C219 C214 1.385 . S
C219 C218 1.369 . S
C220 C212 1.457 . S
C220 C221 1.372 . S
C220 C225 1.352 1_455 S
C221 H200 0.952 . S
C221 C220 1.372 . S
C221 C222 1.389 . S
C222 H201 0.949 . S
C222 C221 1.389 . S
C222 C223 1.387 . S
C223 C222 1.387 . S
C223 C224 1.382 . S
C224 H202 0.940 1_455 S
C224 C223 1.382 . S
C224 C225 1.379 1_455 S
C225 H203 0.959 . S
C225 C220 1.352 1_655 S
C225 C224 1.379 1_655 S
C226 C195 1.383 . S
C226 C213 1.479 1_655 S
C226 C227 1.398 . S
C227 C192 1.382 . S
C227 H204 0.951 . S
C227 C226 1.398 . S
C228 C229 1.384 . S
C228 H241 0.947 . S
C228 C263 1.382 . S
C229 C228 1.384 . S
C229 C230 1.378 . S
C230 C229 1.378 . S
C230 C231 1.378 . S
C230 H242 0.952 . S
C231 C230 1.378 . S
C231 H243 0.950 . S
C231 C262 1.383 . S
H232 C251 0.947 . S
H233 C252 0.946 . S
H234 C254 0.953 . S
H235 C255 0.945 . S
H236 C257 0.952 . S
H237 C258 0.949 . S
H238 C260 0.950 . S
H239 C261 0.948 . S
H240 C263 0.951 . S
H241 C228 0.947 . S
H242 C230 0.952 . S
H243 C231 0.950 . S
N244 C247 1.382 1_455 S
N244 C249 1.363 . S
N245 C247 1.371 . S
N245 C248 1.372 1_655 S
N246 C248 1.361 . S
N246 C249 1.377 . S
C247 N244 1.382 1_655 S
C247 N245 1.371 . S
C247 C250 1.480 . S
C248 N245 1.372 1_455 S
C248 N246 1.361 . S
C248 C256 1.457 . S
C249 N244 1.363 . S
C249 N246 1.377 . S
C249 C262 1.479 . S
C250 C247 1.480 . S
C250 C251 1.383 . S
C250 C255 1.385 . S
C251 H232 0.947 . S
C251 C250 1.383 . S
C251 C252 1.388 . S
C252 H233 0.946 . S
C252 C251 1.388 . S
C252 C253 1.384 . S
C253 C252 1.384 . S
C253 C254 1.377 . S
C254 H234 0.953 . S
C254 C253 1.377 . S
C254 C255 1.369 . S
C255 H235 0.945 . S
C255 C250 1.385 . S
C255 C254 1.369 . S
C256 C248 1.457 . S
C256 C257 1.372 1_455 S
C256 C261 1.364 . S
C257 H236 0.952 . S
C257 C256 1.372 1_655 S
C257 C258 1.389 . S
C258 H237 0.949 . S
C258 C257 1.389 . S
C258 C259 1.387 1_655 S
C259 C258 1.387 1_455 S
C259 C260 1.372 . S
C260 H238 0.950 . S
C260 C259 1.372 . S
C260 C261 1.379 . S
C261 H239 0.948 . S
C261 C256 1.364 . S
C261 C260 1.379 . S
C262 C231 1.383 . S
C262 C249 1.479 . S
C262 C263 1.398 . S
C263 C228 1.382 . S
C263 H240 0.951 . S
C263 C262 1.398 . S
C264 C265 1.384 . S
C264 H277 0.947 . S
C264 C299 1.382 . S
C265 C264 1.384 . S
C265 C266 1.378 . S
C266 C265 1.378 . S
C266 C267 1.378 . S
C266 H278 0.952 . S
C267 C266 1.378 . S
C267 H279 0.950 . S
C267 C298 1.383 . S
H268 C287 0.947 . S
H269 C288 0.946 . S
H270 C290 0.953 . S
H271 C291 0.945 . S
H272 C293 0.952 . S
H273 C294 0.949 . S
H274 C296 0.950 . S
H275 C297 0.948 . S
H276 C299 0.951 . S
H277 C264 0.947 . S
H278 C266 0.952 . S
H279 C267 0.950 . S
N280 C283 1.382 1_545 S
N280 C285 1.363 . S
N281 C283 1.371 . S
N281 C284 1.372 1_565 S
N282 C284 1.361 . S
N282 C285 1.377 . S
C283 N280 1.382 1_565 S
C283 N281 1.371 . S
C283 C286 1.480 . S
C284 N281 1.372 1_545 S
C284 N282 1.361 . S
C284 C292 1.457 . S
C285 N280 1.363 . S
C285 N282 1.377 . S
C285 C298 1.479 . S
C286 C283 1.480 . S
C286 C287 1.383 . S
C286 C291 1.385 . S
C287 H268 0.947 . S
C287 C286 1.383 . S
C287 C288 1.388 . S
C288 H269 0.946 . S
C288 C287 1.388 . S
C288 C289 1.384 . S
C289 C288 1.384 . S
C289 C290 1.377 . S
C290 H270 0.953 . S
C290 C289 1.377 . S
C290 C291 1.369 . S
C291 H271 0.945 . S
C291 C286 1.385 . S
C291 C290 1.369 . S
C292 C284 1.457 . S
C292 C293 1.372 1_545 S
C292 C297 1.364 . S
C293 H272 0.952 . S
C293 C292 1.372 1_565 S
C293 C294 1.389 . S
C294 H273 0.949 . S
C294 C293 1.389 . S
C294 C295 1.387 1_565 S
C295 C294 1.387 1_545 S
C295 C296 1.372 . S
C296 H274 0.950 . S
C296 C295 1.372 . S
C296 C297 1.379 . S
C297 H275 0.948 . S
C297 C292 1.364 . S
C297 C296 1.379 . S
C298 C267 1.383 . S
C298 C285 1.479 . S
C298 C299 1.398 . S
C299 C264 1.382 . S
C299 H276 0.951 . S
C299 C298 1.398 . S
C300 C301 1.384 . S
C300 H313 0.947 . S
C300 C335 1.382 . S
C301 C300 1.384 . S
C301 C302 1.378 . S
C302 C301 1.378 . S
C302 C303 1.378 . S
C302 H314 0.952 . S
C303 C302 1.378 . S
C303 H315 0.950 . S
C303 C334 1.383 . S
H304 C323 0.947 . S
H305 C324 0.946 . S
H306 C326 0.953 . S
H307 C327 0.945 . S
H308 C329 0.952 . S
H309 C330 0.949 . S
H310 C332 0.950 . S
H311 C333 0.948 . S
H312 C335 0.951 . S
H313 C300 0.947 . S
H314 C302 0.952 . S
H315 C303 0.950 . S
N316 C319 1.382 . S
N316 C321 1.363 . S
N317 C319 1.371 . S
N317 C320 1.372 . S
N318 C320 1.361 . S
N318 C321 1.377 . S
C319 N316 1.382 . S
C319 N317 1.371 . S
C319 C322 1.480 . S
C320 N317 1.372 . S
C320 N318 1.361 . S
C320 C328 1.457 . S
C321 N316 1.363 . S
C321 N318 1.377 . S
C321 C334 1.479 . S
C322 C319 1.480 . S
C322 C323 1.383 . S
C322 C327 1.385 . S
C323 H304 0.947 . S
C323 C322 1.383 . S
C323 C324 1.388 . S
C324 H305 0.946 . S
C324 C323 1.388 . S
C324 C325 1.384 . S
C325 C324 1.384 . S
C325 C326 1.377 . S
C326 H306 0.953 . S
C326 C325 1.377 . S
C326 C327 1.369 . S
C327 H307 0.945 . S
C327 C322 1.385 . S
C327 C326 1.369 . S
C328 C320 1.457 . S
C328 C329 1.372 . S
C328 C333 1.364 . S
C329 H308 0.952 . S
C329 C328 1.372 . S
C329 C330 1.389 . S
C330 H309 0.949 . S
C330 C329 1.389 . S
C330 C331 1.387 . S
C331 C330 1.387 . S
C331 C332 1.372 . S
C332 H310 0.950 . S
C332 C331 1.372 . S
C332 C333 1.379 . S
C333 H311 0.948 . S
C333 C328 1.364 . S
C333 C332 1.379 . S
C334 C303 1.383 . S
C334 C321 1.479 . S
C334 C335 1.398 . S
C335 C300 1.382 . S
C335 H312 0.951 . S
C335 C334 1.398 . S
C336 C337 1.391 . S
C336 C338 1.394 . S
C336 H352 0.931 . S
C337 C336 1.391 . S
C337 C341 1.376 . S
C338 C336 1.394 . S
C338 C339 1.369 . S
C338 C342 1.531 . S
C339 C338 1.369 . S
C339 C340 1.410 . S
C339 C347 1.503 . S
C340 C339 1.410 . S
C340 C341 1.392 . S
C340 C343 1.511 . S
C341 C337 1.376 . S
C341 C340 1.392 . S
C341 H353 0.929 . S
C342 C338 1.531 . S
C342 H354 0.960 . S
C342 H355 0.962 . S
C342 H356 0.960 . S
C343 C340 1.511 . S
C343 H357 0.961 . S
C343 H358 0.961 . S
C343 H359 0.961 . S
C344 C345 1.370 . S
C344 C346 1.363 . S
C344 H360 0.931 . S
C345 C344 1.370 . S
C345 C349 1.408 . S
C346 C344 1.363 . S
C346 C347 1.370 . S
C346 C350 1.524 . S
C347 C339 1.503 . S
C347 C346 1.370 . S
C347 C348 1.403 . S
C348 C347 1.403 . S
C348 C349 1.404 . S
C348 C351 1.539 . S
C349 C345 1.408 . S
C349 C348 1.404 . S
C349 H361 0.930 . S
C350 C346 1.524 . S
C350 H362 0.956 . S
C350 H363 0.961 . S
C350 H364 0.961 . S
C351 C348 1.539 . S
C351 H365 0.958 . S
C351 H366 0.961 . S
C351 H367 0.960 . S
H352 C336 0.931 . S
H353 C341 0.929 . S
H354 C342 0.960 . S
H355 C342 0.962 . S
H356 C342 0.960 . S
H357 C343 0.961 . S
H358 C343 0.961 . S
H359 C343 0.961 . S
H360 C344 0.931 . S
H361 C349 0.930 . S
H362 C350 0.956 . S
H363 C350 0.961 . S
H364 C350 0.961 . S
H365 C351 0.958 . S
H366 C351 0.961 . S
H367 C351 0.960 . S
C368 C369 1.391 . S
C368 C370 1.394 . S
C368 H384 0.931 . S
C369 C368 1.391 . S
C369 C373 1.376 . S
C370 C368 1.394 . S
C370 C371 1.369 . S
C370 C374 1.531 . S
C371 C370 1.369 . S
C371 C372 1.410 . S
C371 C379 1.503 . S
C372 C371 1.410 . S
C372 C373 1.392 . S
C372 C375 1.511 . S
C373 C369 1.376 . S
C373 C372 1.392 . S
C373 H385 0.929 . S
C374 C370 1.531 . S
C374 H386 0.960 . S
C374 H387 0.962 . S
C374 H388 0.960 . S
C375 C372 1.511 . S
C375 H389 0.961 . S
C375 H390 0.961 . S
C375 H391 0.961 . S
C376 C377 1.370 . S
C376 C378 1.363 . S
C376 H392 0.931 . S
C377 C376 1.370 . S
C377 C381 1.408 . S
C378 C376 1.363 . S
C378 C379 1.370 . S
C378 C382 1.524 . S
C379 C371 1.503 . S
C379 C378 1.370 . S
C379 C380 1.403 . S
C380 C379 1.403 . S
C380 C381 1.404 . S
C380 C383 1.539 . S
C381 C377 1.408 . S
C381 C380 1.404 . S
C381 H393 0.930 . S
C382 C378 1.524 . S
C382 H394 0.956 . S
C382 H395 0.961 . S
C382 H396 0.961 . S
C383 C380 1.539 . S
C383 H397 0.958 . S
C383 H398 0.961 . S
C383 H399 0.960 . S
H384 C368 0.931 . S
H385 C373 0.929 . S
H386 C374 0.960 . S
H387 C374 0.962 . S
H388 C374 0.960 . S
H389 C375 0.961 . S
H390 C375 0.961 . S
H391 C375 0.961 . S
H392 C376 0.931 . S
H393 C381 0.930 . S
H394 C382 0.956 . S
H395 C382 0.961 . S
H396 C382 0.961 . S
H397 C383 0.958 . S
H398 C383 0.961 . S
H399 C383 0.960 . S
C400 C401 1.391 . S
C400 C402 1.394 . S
C400 H416 0.931 . S
C401 C400 1.391 . S
C401 C405 1.376 . S
C402 C400 1.394 . S
C402 C403 1.369 . S
C402 C406 1.531 . S
C403 C402 1.369 . S
C403 C404 1.410 . S
C403 C411 1.503 . S
C404 C403 1.410 . S
C404 C405 1.392 . S
C404 C407 1.511 . S
C405 C401 1.376 . S
C405 C404 1.392 . S
C405 H417 0.929 . S
C406 C402 1.531 . S
C406 H418 0.960 . S
C406 H419 0.962 . S
C406 H420 0.960 . S
C407 C404 1.511 . S
C407 H421 0.961 . S
C407 H422 0.961 . S
C407 H423 0.961 . S
C408 C409 1.370 . S
C408 C410 1.363 . S
C408 H424 0.931 . S
C409 C408 1.370 . S
C409 C413 1.408 . S
C410 C408 1.363 . S
C410 C411 1.370 . S
C410 C414 1.524 . S
C411 C403 1.503 . S
C411 C410 1.370 . S
C411 C412 1.403 . S
C412 C411 1.403 . S
C412 C413 1.404 . S
C412 C415 1.539 . S
C413 C409 1.408 . S
C413 C412 1.404 . S
C413 H425 0.930 . S
C414 C410 1.524 . S
C414 H426 0.956 . S
C414 H427 0.961 . S
C414 H428 0.961 . S
C415 C412 1.539 . S
C415 H429 0.958 . S
C415 H430 0.961 . S
C415 H431 0.960 . S
H416 C400 0.931 . S
H417 C405 0.929 . S
H418 C406 0.960 . S
H419 C406 0.962 . S
H420 C406 0.960 . S
H421 C407 0.961 . S
H422 C407 0.961 . S
H423 C407 0.961 . S
H424 C408 0.931 . S
H425 C413 0.930 . S
H426 C414 0.956 . S
H427 C414 0.961 . S
H428 C414 0.961 . S
H429 C415 0.958 . S
H430 C415 0.961 . S
H431 C415 0.960 . S
C432 C433 1.391 . S
C432 C434 1.394 . S
C432 H448 0.931 . S
C433 C432 1.391 . S
C433 C437 1.376 . S
C434 C432 1.394 . S
C434 C435 1.369 . S
C434 C438 1.531 . S
C435 C434 1.369 . S
C435 C436 1.410 . S
C435 C443 1.503 . S
C436 C435 1.410 . S
C436 C437 1.392 . S
C436 C439 1.511 . S
C437 C433 1.376 . S
C437 C436 1.392 . S
C437 H449 0.929 . S
C438 C434 1.531 . S
C438 H450 0.960 . S
C438 H451 0.962 . S
C438 H452 0.960 . S
C439 C436 1.511 . S
C439 H453 0.961 . S
C439 H454 0.961 . S
C439 H455 0.961 . S
C440 C441 1.370 . S
C440 C442 1.363 . S
C440 H456 0.931 . S
C441 C440 1.370 . S
C441 C445 1.408 . S
C442 C440 1.363 . S
C442 C443 1.370 . S
C442 C446 1.524 . S
C443 C435 1.503 . S
C443 C442 1.370 . S
C443 C444 1.403 . S
C444 C443 1.403 . S
C444 C445 1.404 . S
C444 C447 1.539 . S
C445 C441 1.408 . S
C445 C444 1.404 . S
C445 H457 0.930 . S
C446 C442 1.524 . S
C446 H458 0.956 . S
C446 H459 0.961 . S
C446 H460 0.961 . S
C447 C444 1.539 . S
C447 H461 0.958 . S
C447 H462 0.961 . S
C447 H463 0.960 . S
H448 C432 0.931 . S
H449 C437 0.929 . S
H450 C438 0.960 . S
H451 C438 0.962 . S
H452 C438 0.960 . S
H453 C439 0.961 . S
H454 C439 0.961 . S
H455 C439 0.961 . S
H456 C440 0.931 . S
H457 C445 0.930 . S
H458 C446 0.956 . S
H459 C446 0.961 . S
H460 C446 0.961 . S
H461 C447 0.958 . S
H462 C447 0.961 . S
H463 C447 0.960 . S
C464 C465 1.391 . S
C464 C466 1.394 . S
C464 H480 0.931 . S
C465 C464 1.391 . S
C465 C469 1.376 . S
C466 C464 1.394 . S
C466 C467 1.369 . S
C466 C470 1.531 . S
C467 C466 1.369 . S
C467 C468 1.410 . S
C467 C475 1.503 . S
C468 C467 1.410 . S
C468 C469 1.392 . S
C468 C471 1.511 . S
C469 C465 1.376 . S
C469 C468 1.392 . S
C469 H481 0.929 . S
C470 C466 1.531 . S
C470 H482 0.960 . S
C470 H483 0.962 . S
C470 H484 0.960 . S
C471 C468 1.511 . S
C471 H485 0.961 . S
C471 H486 0.961 . S
C471 H487 0.961 . S
C472 C473 1.370 . S
C472 C474 1.363 . S
C472 H488 0.931 . S
C473 C472 1.370 . S
C473 C477 1.408 . S
C474 C472 1.363 . S
C474 C475 1.370 . S
C474 C478 1.524 . S
C475 C467 1.503 . S
C475 C474 1.370 . S
C475 C476 1.403 . S
C476 C475 1.403 . S
C476 C477 1.404 . S
C476 C479 1.539 . S
C477 C473 1.408 . S
C477 C476 1.404 . S
C477 H489 0.930 . S
C478 C474 1.524 . S
C478 H490 0.956 . S
C478 H491 0.961 . S
C478 H492 0.961 . S
C479 C476 1.539 . S
C479 H493 0.958 . S
C479 H494 0.961 . S
C479 H495 0.960 . S
H480 C464 0.931 . S
H481 C469 0.929 . S
H482 C470 0.960 . S
H483 C470 0.962 . S
H484 C470 0.960 . S
H485 C471 0.961 . S
H486 C471 0.961 . S
H487 C471 0.961 . S
H488 C472 0.931 . S
H489 C477 0.930 . S
H490 C478 0.956 . S
H491 C478 0.961 . S
H492 C478 0.961 . S
H493 C479 0.958 . S
H494 C479 0.961 . S
H495 C479 0.960 . S
C496 C497 1.391 . S
C496 C498 1.394 . S
C496 H512 0.931 . S
C497 C496 1.391 . S
C497 C501 1.376 . S
C498 C496 1.394 . S
C498 C499 1.369 . S
C498 C502 1.531 . S
C499 C498 1.369 . S
C499 C500 1.410 . S
C499 C507 1.503 . S
C500 C499 1.410 . S
C500 C501 1.392 . S
C500 C503 1.511 . S
C501 C497 1.376 . S
C501 C500 1.392 . S
C501 H513 0.929 . S
C502 C498 1.531 . S
C502 H514 0.960 . S
C502 H515 0.962 . S
C502 H516 0.960 . S
C503 C500 1.511 . S
C503 H517 0.961 . S
C503 H518 0.961 . S
C503 H519 0.961 . S
C504 C505 1.370 . S
C504 C506 1.363 . S
C504 H520 0.931 . S
C505 C504 1.370 . S
C505 C509 1.408 . S
C506 C504 1.363 . S
C506 C507 1.370 . S
C506 C510 1.524 . S
C507 C499 1.503 . S
C507 C506 1.370 . S
C507 C508 1.403 . S
C508 C507 1.403 . S
C508 C509 1.404 . S
C508 C511 1.539 . S
C509 C505 1.408 . S
C509 C508 1.404 . S
C509 H521 0.930 . S
C510 C506 1.524 . S
C510 H522 0.956 . S
C510 H523 0.961 . S
C510 H524 0.961 . S
C511 C508 1.539 . S
C511 H525 0.958 . S
C511 H526 0.961 . S
C511 H527 0.960 . S
H512 C496 0.931 . S
H513 C501 0.929 . S
H514 C502 0.960 . S
H515 C502 0.962 . S
H516 C502 0.960 . S
H517 C503 0.961 . S
H518 C503 0.961 . S
H519 C503 0.961 . S
H520 C504 0.931 . S
H521 C509 0.930 . S
H522 C510 0.956 . S
H523 C510 0.961 . S
H524 C510 0.961 . S
H525 C511 0.958 . S
H526 C511 0.961 . S
H527 C511 0.960 . S
C528 C529 1.391 . S
C528 C530 1.394 . S
C528 H544 0.931 . S
C529 C528 1.391 . S
C529 C533 1.376 . S
C530 C528 1.394 . S
C530 C531 1.369 . S
C530 C534 1.531 . S
C531 C530 1.369 . S
C531 C532 1.410 . S
C531 C539 1.503 . S
C532 C531 1.410 . S
C532 C533 1.392 . S
C532 C535 1.511 . S
C533 C529 1.376 . S
C533 C532 1.392 . S
C533 H545 0.929 . S
C534 C530 1.531 . S
C534 H546 0.960 . S
C534 H547 0.962 . S
C534 H548 0.960 . S
C535 C532 1.511 . S
C535 H549 0.961 . S
C535 H550 0.961 . S
C535 H551 0.961 . S
C536 C537 1.370 . S
C536 C538 1.363 . S
C536 H552 0.931 . S
C537 C536 1.370 . S
C537 C541 1.408 . S
C538 C536 1.363 . S
C538 C539 1.370 . S
C538 C542 1.524 . S
C539 C531 1.503 . S
C539 C538 1.370 . S
C539 C540 1.403 . S
C540 C539 1.403 . S
C540 C541 1.404 . S
C540 C543 1.539 . S
C541 C537 1.408 . S
C541 C540 1.404 . S
C541 H553 0.930 . S
C542 C538 1.524 . S
C542 H554 0.956 . S
C542 H555 0.961 . S
C542 H556 0.961 . S
C543 C540 1.539 . S
C543 H557 0.958 . S
C543 H558 0.961 . S
C543 H559 0.960 . S
H544 C528 0.931 . S
H545 C533 0.929 . S
H546 C534 0.960 . S
H547 C534 0.962 . S
H548 C534 0.960 . S
H549 C535 0.961 . S
H550 C535 0.961 . S
H551 C535 0.961 . S
H552 C536 0.931 . S
H553 C541 0.930 . S
H554 C542 0.956 . S
H555 C542 0.961 . S
H556 C542 0.961 . S
H557 C543 0.958 . S
H558 C543 0.961 . S
H559 C543 0.960 . S
C560 C561 1.391 . S
C560 C562 1.394 . S
C560 H576 0.931 . S
C561 C560 1.391 . S
C561 C565 1.376 . S
C562 C560 1.394 . S
C562 C563 1.369 . S
C562 C566 1.531 . S
C563 C562 1.369 . S
C563 C564 1.410 . S
C563 C571 1.503 . S
C564 C563 1.410 . S
C564 C565 1.392 . S
C564 C567 1.511 . S
C565 C561 1.376 . S
C565 C564 1.392 . S
C565 H577 0.929 . S
C566 C562 1.531 . S
C566 H578 0.960 . S
C566 H579 0.962 . S
C566 H580 0.960 . S
C567 C564 1.511 . S
C567 H581 0.961 . S
C567 H582 0.961 . S
C567 H583 0.961 . S
C568 C569 1.370 . S
C568 C570 1.363 . S
C568 H584 0.931 . S
C569 C568 1.370 . S
C569 C573 1.408 . S
C570 C568 1.363 . S
C570 C571 1.370 . S
C570 C574 1.524 . S
C571 C563 1.503 . S
C571 C570 1.370 . S
C571 C572 1.403 . S
C572 C571 1.403 . S
C572 C573 1.404 . S
C572 C575 1.539 . S
C573 C569 1.408 . S
C573 C572 1.404 . S
C573 H585 0.930 . S
C574 C570 1.524 . S
C574 H586 0.956 . S
C574 H587 0.961 . S
C574 H588 0.961 . S
C575 C572 1.539 . S
C575 H589 0.958 . S
C575 H590 0.961 . S
C575 H591 0.960 . S
H576 C560 0.931 . S
H577 C565 0.929 . S
H578 C566 0.960 . S
H579 C566 0.962 . S
H580 C566 0.960 . S
H581 C567 0.961 . S
H582 C567 0.961 . S
H583 C567 0.961 . S
H584 C568 0.931 . S
H585 C573 0.930 . S
H586 C574 0.956 . S
H587 C574 0.961 . S
H588 C574 0.961 . S
H589 C575 0.958 . S
H590 C575 0.961 . S
H591 C575 0.960 . S
C592 C593 1.391 . S
C592 C594 1.394 . S
C592 H608 0.931 . S
C593 C592 1.391 . S
C593 C597 1.376 . S
C594 C592 1.394 . S
C594 C595 1.369 . S
C594 C598 1.531 . S
C595 C594 1.369 . S
C595 C596 1.410 . S
C595 C603 1.503 . S
C596 C595 1.410 . S
C596 C597 1.392 . S
C596 C599 1.511 . S
C597 C593 1.376 . S
C597 C596 1.392 . S
C597 H609 0.929 . S
C598 C594 1.531 . S
C598 H610 0.960 . S
C598 H611 0.962 . S
C598 H612 0.960 . S
C599 C596 1.511 . S
C599 H613 0.961 . S
C599 H614 0.961 . S
C599 H615 0.961 . S
C600 C601 1.370 . S
C600 C602 1.363 . S
C600 H616 0.931 . S
C601 C600 1.370 . S
C601 C605 1.408 . S
C602 C600 1.363 . S
C602 C603 1.370 . S
C602 C606 1.524 . S
C603 C595 1.503 . S
C603 C602 1.370 . S
C603 C604 1.403 . S
C604 C603 1.403 . S
C604 C605 1.404 . S
C604 C607 1.539 . S
C605 C601 1.408 . S
C605 C604 1.404 . S
C605 H617 0.930 . S
C606 C602 1.524 . S
C606 H618 0.956 . S
C606 H619 0.961 . S
C606 H620 0.961 . S
C607 C604 1.539 . S
C607 H621 0.958 . S
C607 H622 0.961 . S
C607 H623 0.960 . S
H608 C592 0.931 . S
H609 C597 0.929 . S
H610 C598 0.960 . S
H611 C598 0.962 . S
H612 C598 0.960 . S
H613 C599 0.961 . S
H614 C599 0.961 . S
H615 C599 0.961 . S
H616 C600 0.931 . S
H617 C605 0.930 . S
H618 C606 0.956 . S
H619 C606 0.961 . S
H620 C606 0.961 . S
H621 C607 0.958 . S
H622 C607 0.961 . S
H623 C607 0.960 . S
C624 C625 1.391 . S
C624 C626 1.394 . S
C624 H640 0.931 . S
C625 C624 1.391 . S
C625 C629 1.376 . S
C626 C624 1.394 . S
C626 C627 1.369 . S
C626 C630 1.531 . S
C627 C626 1.369 . S
C627 C628 1.410 . S
C627 C635 1.503 . S
C628 C627 1.410 . S
C628 C629 1.392 . S
C628 C631 1.511 . S
C629 C625 1.376 . S
C629 C628 1.392 . S
C629 H641 0.929 . S
C630 C626 1.531 . S
C630 H642 0.960 . S
C630 H643 0.962 . S
C630 H644 0.960 . S
C631 C628 1.511 . S
C631 H645 0.961 . S
C631 H646 0.961 . S
C631 H647 0.961 . S
C632 C633 1.370 . S
C632 C634 1.363 . S
C632 H648 0.931 . S
C633 C632 1.370 . S
C633 C637 1.408 . S
C634 C632 1.363 . S
C634 C635 1.370 . S
C634 C638 1.524 . S
C635 C627 1.503 . S
C635 C634 1.370 . S
C635 C636 1.403 . S
C636 C635 1.403 . S
C636 C637 1.404 . S
C636 C639 1.539 . S
C637 C633 1.408 . S
C637 C636 1.404 . S
C637 H649 0.930 . S
C638 C634 1.524 . S
C638 H650 0.956 . S
C638 H651 0.961 . S
C638 H652 0.961 . S
C639 C636 1.539 . S
C639 H653 0.958 . S
C639 H654 0.961 . S
C639 H655 0.960 . S
H640 C624 0.931 . S
H641 C629 0.929 . S
H642 C630 0.960 . S
H643 C630 0.962 . S
H644 C630 0.960 . S
H645 C631 0.961 . S
H646 C631 0.961 . S
H647 C631 0.961 . S
H648 C632 0.931 . S
H649 C637 0.930 . S
H650 C638 0.956 . S
H651 C638 0.961 . S
H652 C638 0.961 . S
H653 C639 0.958 . S
H654 C639 0.961 . S
H655 C639 0.960 . S
C656 C657 1.391 . S
C656 C658 1.394 . S
C656 H672 0.931 . S
C657 C656 1.391 . S
C657 C661 1.376 . S
C658 C656 1.394 . S
C658 C659 1.369 . S
C658 C662 1.531 . S
C659 C658 1.369 . S
C659 C660 1.410 . S
C659 C667 1.503 . S
C660 C659 1.410 . S
C660 C661 1.392 . S
C660 C663 1.511 . S
C661 C657 1.376 . S
C661 C660 1.392 . S
C661 H673 0.929 . S
C662 C658 1.531 . S
C662 H674 0.960 . S
C662 H675 0.962 . S
C662 H676 0.960 . S
C663 C660 1.511 . S
C663 H677 0.961 . S
C663 H678 0.961 . S
C663 H679 0.961 . S
C664 C665 1.370 . S
C664 C666 1.363 . S
C664 H680 0.931 . S
C665 C664 1.370 . S
C665 C669 1.408 . S
C666 C664 1.363 . S
C666 C667 1.370 . S
C666 C670 1.524 . S
C667 C659 1.503 . S
C667 C666 1.370 . S
C667 C668 1.403 . S
C668 C667 1.403 . S
C668 C669 1.404 . S
C668 C671 1.539 . S
C669 C665 1.408 . S
C669 C668 1.404 . S
C669 H681 0.930 . S
C670 C666 1.524 . S
C670 H682 0.956 . S
C670 H683 0.961 . S
C670 H684 0.961 . S
C671 C668 1.539 . S
C671 H685 0.958 . S
C671 H686 0.961 . S
C671 H687 0.960 . S
H672 C656 0.931 . S
H673 C661 0.929 . S
H674 C662 0.960 . S
H675 C662 0.962 . S
H676 C662 0.960 . S
H677 C663 0.961 . S
H678 C663 0.961 . S
H679 C663 0.961 . S
H680 C664 0.931 . S
H681 C669 0.930 . S
H682 C670 0.956 . S
H683 C670 0.961 . S
H684 C670 0.961 . S
H685 C671 0.958 . S
H686 C671 0.961 . S
H687 C671 0.960 . S
C688 C689 1.391 . S
C688 C690 1.394 . S
C688 H704 0.931 . S
C689 C688 1.391 . S
C689 C693 1.376 . S
C690 C688 1.394 . S
C690 C691 1.369 . S
C690 C694 1.531 . S
C691 C690 1.369 . S
C691 C692 1.410 . S
C691 C699 1.503 . S
C692 C691 1.410 . S
C692 C693 1.392 . S
C692 C695 1.511 . S
C693 C689 1.376 . S
C693 C692 1.392 . S
C693 H705 0.929 . S
C694 C690 1.531 . S
C694 H706 0.960 . S
C694 H707 0.962 . S
C694 H708 0.960 . S
C695 C692 1.511 . S
C695 H709 0.961 . S
C695 H710 0.961 . S
C695 H711 0.961 . S
C696 C697 1.370 . S
C696 C698 1.363 . S
C696 H712 0.931 . S
C697 C696 1.370 . S
C697 C701 1.408 . S
C698 C696 1.363 . S
C698 C699 1.370 . S
C698 C702 1.524 . S
C699 C691 1.503 . S
C699 C698 1.370 . S
C699 C700 1.403 . S
C700 C699 1.403 . S
C700 C701 1.404 . S
C700 C703 1.539 . S
C701 C697 1.408 . S
C701 C700 1.404 . S
C701 H713 0.930 . S
C702 C698 1.524 . S
C702 H714 0.956 . S
C702 H715 0.961 . S
C702 H716 0.961 . S
C703 C700 1.539 . S
C703 H717 0.958 . S
C703 H718 0.961 . S
C703 H719 0.960 . S
H704 C688 0.931 . S
H705 C693 0.929 . S
H706 C694 0.960 . S
H707 C694 0.962 . S
H708 C694 0.960 . S
H709 C695 0.961 . S
H710 C695 0.961 . S
H711 C695 0.961 . S
H712 C696 0.931 . S
H713 C701 0.930 . S
H714 C702 0.956 . S
H715 C702 0.961 . S
H716 C702 0.961 . S
H717 C703 0.958 . S
H718 C703 0.961 . S
H719 C703 0.960 . S
C720 C721 1.391 . S
C720 C722 1.394 . S
C720 H736 0.931 . S
C721 C720 1.391 . S
C721 C725 1.376 . S
C722 C720 1.394 . S
C722 C723 1.369 . S
C722 C726 1.531 . S
C723 C722 1.369 . S
C723 C724 1.410 . S
C723 C731 1.503 . S
C724 C723 1.410 . S
C724 C725 1.392 . S
C724 C727 1.511 1_455 S
C725 C721 1.376 . S
C725 C724 1.392 . S
C725 H737 0.929 1_455 S
C726 C722 1.531 . S
C726 H738 0.960 . S
C726 H739 0.962 . S
C726 H740 0.960 . S
C727 C724 1.511 1_655 S
C727 H741 0.961 . S
C727 H742 0.961 . S
C727 H743 0.961 . S
C728 C729 1.370 . S
C728 C730 1.363 . S
C728 H744 0.931 . S
C729 C728 1.370 . S
C729 C733 1.408 . S
C730 C728 1.363 . S
C730 C731 1.370 . S
C730 C734 1.524 . S
C731 C723 1.503 . S
C731 C730 1.370 . S
C731 C732 1.419 . S
C732 C731 1.419 . S
C732 C733 1.404 . S
C732 C735 1.521 1_455 S
C733 C729 1.408 . S
C733 C732 1.404 . S
C733 H745 0.930 1_455 S
C734 C730 1.524 . S
C734 H746 0.956 . S
C734 H747 0.961 . S
C734 H748 0.961 . S
C735 C732 1.521 1_655 S
C735 H749 0.958 . S
C735 H750 0.961 . S
C735 H751 0.960 . S
H736 C720 0.931 . S
H737 C725 0.929 1_655 S
H738 C726 0.960 . S
H739 C726 0.962 . S
H740 C726 0.960 . S
H741 C727 0.961 . S
H742 C727 0.961 . S
H743 C727 0.961 . S
H744 C728 0.931 . S
H745 C733 0.930 1_655 S
H746 C734 0.956 . S
H747 C734 0.961 . S
H748 C734 0.961 . S
H749 C735 0.958 . S
H750 C735 0.961 . S
H751 C735 0.960 . S
C752 C753 1.391 . S
C752 C754 1.394 . S
C752 H768 0.931 . S
C753 C752 1.391 . S
C753 C757 1.376 . S
C754 C752 1.394 . S
C754 C755 1.369 . S
C754 C758 1.531 . S
C755 C754 1.369 . S
C755 C756 1.410 . S
C755 C763 1.503 . S
C756 C755 1.410 . S
C756 C757 1.392 . S
C756 C759 1.511 1_545 S
C757 C753 1.376 . S
C757 C756 1.392 . S
C757 H769 0.930 . S
C758 C754 1.531 . S
C758 H770 0.960 . S
C758 H771 0.962 . S
C758 H772 0.960 . S
C759 C756 1.511 1_565 S
C759 H773 0.961 . S
C759 H774 0.961 1_565 S
C759 H775 0.961 . S
C760 C761 1.370 . S
C760 C762 1.363 . S
C760 H776 0.931 . S
C761 C760 1.370 . S
C761 C765 1.408 1_545 S
C762 C760 1.363 . S
C762 C763 1.370 . S
C762 C766 1.524 . S
C763 C755 1.503 . S
C763 C762 1.370 . S
C763 C764 1.403 1_545 S
C764 C763 1.403 1_565 S
C764 C765 1.404 . S
C764 C767 1.539 . S
C765 C761 1.408 1_565 S
C765 C764 1.404 . S
C765 H777 0.930 . S
C766 C762 1.524 . S
C766 H778 0.956 . S
C766 H779 0.961 . S
C766 H780 0.961 . S
C767 C764 1.539 . S
C767 H781 0.958 . S
C767 H782 0.961 . S
C767 H783 0.960 . S
H768 C752 0.931 . S
H769 C757 0.930 . S
H770 C758 0.960 . S
H771 C758 0.962 . S
H772 C758 0.960 . S
H773 C759 0.961 . S
H774 C759 0.961 1_545 S
H775 C759 0.961 . S
H776 C760 0.931 . S
H777 C765 0.930 . S
H778 C766 0.956 . S
H779 C766 0.961 . S
H780 C766 0.961 . S
H781 C767 0.958 . S
H782 C767 0.961 . S
H783 C767 0.960 . S
C784 C785 1.391 . S
C784 C786 1.394 . S
C784 H800 0.931 . S
C785 C784 1.391 . S
C785 C789 1.376 . S
C786 C784 1.394 . S
C786 C787 1.369 . S
C786 C790 1.531 . S
C787 C786 1.369 . S
C787 C788 1.410 . S
C787 C795 1.503 . S
C788 C787 1.410 . S
C788 C789 1.392 . S
C788 C791 1.511 . S
C789 C785 1.376 . S
C789 C788 1.392 . S
C789 H801 0.929 . S
C790 C786 1.531 . S
C790 H802 0.960 . S
C790 H803 0.962 . S
C790 H804 0.960 . S
C791 C788 1.511 . S
C791 H805 0.961 . S
C791 H806 0.961 . S
C791 H807 0.961 . S
C792 C793 1.370 . S
C792 C794 1.363 . S
C792 H808 0.931 . S
C793 C792 1.370 . S
C793 C797 1.408 . S
C794 C792 1.363 . S
C794 C795 1.370 . S
C794 C798 1.524 . S
C795 C787 1.503 . S
C795 C794 1.370 . S
C795 C796 1.403 . S
C796 C795 1.403 . S
C796 C797 1.404 . S
C796 C799 1.539 . S
C797 C793 1.408 . S
C797 C796 1.404 . S
C797 H809 0.930 . S
C798 C794 1.524 . S
C798 H810 0.956 . S
C798 H811 0.961 . S
C798 H812 0.961 . S
C799 C796 1.539 . S
C799 H813 0.958 . S
C799 H814 0.961 . S
C799 H815 0.960 . S
H800 C784 0.931 . S
H801 C789 0.929 . S
H802 C790 0.960 . S
H803 C790 0.962 . S
H804 C790 0.960 . S
H805 C791 0.961 . S
H806 C791 0.961 . S
H807 C791 0.961 . S
H808 C792 0.931 . S
H809 C797 0.930 . S
H810 C798 0.956 . S
H811 C798 0.961 . S
H812 C798 0.961 . S
H813 C799 0.958 . S
H814 C799 0.961 . S
H815 C799 0.960 . S
C816 C817 1.391 1_565 S
C816 C818 1.394 . S
C816 H832 0.931 . S
C817 C816 1.391 1_545 S
C817 C821 1.376 . S
C818 C816 1.394 . S
C818 C819 1.369 1_565 S
C818 C822 1.531 . S
C819 C818 1.369 1_545 S
C819 C820 1.410 . S
C819 C827 1.503 . S
C820 C819 1.410 . S
C820 C821 1.392 . S
C820 C823 1.511 . S
C821 C817 1.376 . S
C821 C820 1.392 . S
C821 H833 0.929 . S
C822 C818 1.531 . S
C822 H834 0.960 . S
C822 H835 0.962 . S
C822 H836 0.960 . S
C823 C820 1.511 . S
C823 H837 0.961 . S
C823 H838 0.961 . S
C823 H839 0.961 . S
C824 C825 1.370 . S
C824 C826 1.363 . S
C824 H840 0.931 1_545 S
C825 C824 1.370 . S
C825 C829 1.408 . S
C826 C824 1.363 . S
C826 C827 1.370 . S
C826 C830 1.524 . S
C827 C819 1.503 . S
C827 C826 1.370 . S
C827 C828 1.403 . S
C828 C827 1.403 . S
C828 C829 1.404 . S
C828 C831 1.539 . S
C829 C825 1.408 . S
C829 C828 1.404 . S
C829 H841 0.930 . S
C830 C826 1.524 . S
C830 H842 0.956 1_545 S
C830 H843 0.961 . S
C830 H844 0.961 . S
C831 C828 1.539 . S
C831 H845 0.958 1_545 S
C831 H846 0.961 . S
C831 H847 0.960 . S
H832 C816 0.931 . S
H833 C821 0.929 . S
H834 C822 0.960 . S
H835 C822 0.962 . S
H836 C822 0.960 . S
H837 C823 0.961 . S
H838 C823 0.961 . S
H839 C823 0.961 . S
H840 C824 0.931 1_565 S
H841 C829 0.930 . S
H842 C830 0.956 1_565 S
H843 C830 0.961 . S
H844 C830 0.961 . S
H845 C831 0.958 1_565 S
H846 C831 0.961 . S
H847 C831 0.960 . S
C848 C849 1.391 . S
C848 C850 1.394 . S
C848 H864 0.931 . S
C849 C848 1.391 . S
C849 C853 1.376 . S
C850 C848 1.394 . S
C850 C851 1.369 . S
C850 C854 1.531 . S
C851 C850 1.369 . S
C851 C852 1.410 . S
C851 C859 1.503 . S
C852 C851 1.410 . S
C852 C853 1.392 . S
C852 C855 1.511 . S
C853 C849 1.376 . S
C853 C852 1.392 . S
C853 H865 0.929 . S
C854 C850 1.531 . S
C854 H866 0.960 . S
C854 H867 0.962 . S
C854 H868 0.960 . S
C855 C852 1.511 . S
C855 H869 0.961 . S
C855 H870 0.961 . S
C855 H871 0.961 . S
C856 C857 1.370 . S
C856 C858 1.363 . S
C856 H872 0.931 . S
C857 C856 1.370 . S
C857 C861 1.408 . S
C858 C856 1.363 . S
C858 C859 1.370 . S
C858 C862 1.524 . S
C859 C851 1.503 . S
C859 C858 1.370 . S
C859 C860 1.403 . S
C860 C859 1.403 . S
C860 C861 1.404 . S
C860 C863 1.539 . S
C861 C857 1.408 . S
C861 C860 1.404 . S
C861 H873 0.899 1_556 S
C862 C858 1.524 . S
C862 H874 0.956 . S
C862 H875 0.961 . S
C862 H876 0.961 . S
C863 C860 1.539 . S
C863 H877 0.958 . S
C863 H878 0.961 . S
C863 H879 0.960 . S
H864 C848 0.931 . S
H865 C853 0.929 . S
H866 C854 0.960 . S
H867 C854 0.962 . S
H868 C854 0.960 . S
H869 C855 0.961 . S
H870 C855 0.961 . S
H871 C855 0.961 . S
H872 C856 0.931 . S
H873 C861 0.899 1_554 S
H874 C862 0.956 . S
H875 C862 0.961 . S
H876 C862 0.961 . S
H877 C863 0.958 . S
H878 C863 0.961 . S
H879 C863 0.960 . S
C880 C881 1.391 1_655 S
C880 C882 1.394 . S
C880 H896 0.931 . S
C881 C880 1.391 1_455 S
C881 C885 1.376 . S
C882 C880 1.394 . S
C882 C883 1.369 1_655 S
C882 C886 1.531 . S
C883 C882 1.369 1_455 S
C883 C884 1.410 . S
C883 C891 1.503 . S
C884 C883 1.410 . S
C884 C885 1.392 . S
C884 C887 1.511 . S
C885 C881 1.376 . S
C885 C884 1.392 . S
C885 H897 0.929 . S
C886 C882 1.531 . S
C886 H898 0.960 . S
C886 H899 0.962 . S
C886 H900 0.960 . S
C887 C884 1.511 . S
C887 H901 0.961 . S
C887 H902 0.961 . S
C887 H903 0.961 . S
C888 C889 1.379 . S
C888 C890 1.367 . S
C888 H904 0.919 1_455 S
C889 C888 1.379 . S
C889 C893 1.408 . S
C890 C888 1.367 . S
C890 C891 1.370 . S
C890 C894 1.524 . S
C891 C883 1.503 . S
C891 C890 1.370 . S
C891 C892 1.403 . S
C892 C891 1.403 . S
C892 C893 1.404 . S
C892 C895 1.539 . S
C893 C889 1.408 . S
C893 C892 1.404 . S
C893 H905 0.930 . S
C894 C890 1.524 . S
C894 H906 0.956 1_455 S
C894 H907 0.961 . S
C894 H908 0.961 . S
C895 C892 1.539 . S
C895 H909 0.958 1_455 S
C895 H910 0.961 . S
C895 H911 0.960 . S
H896 C880 0.931 . S
H897 C885 0.929 . S
H898 C886 0.960 . S
H899 C886 0.962 . S
H900 C886 0.960 . S
H901 C887 0.961 . S
H902 C887 0.961 . S
H903 C887 0.961 . S
H904 C888 0.919 1_655 S
H905 C893 0.930 . S
H906 C894 0.956 1_655 S
H907 C894 0.961 . S
H908 C894 0.961 . S
H909 C895 0.958 1_655 S
H910 C895 0.961 . S
H911 C895 0.960 . S
C337 C10 3.120 . S
C345 C325 3.035 . S
C369 C55 1.194 . S
C377 C253 1.209 . S
C401 C90 1.919 . S
C409 C289 1.862 . S
C433 C19 2.983 . S
C441 C301 2.975 . S
C473 C229 1.320 . S
C465 C46 1.306 . S
C505 C265 2.037 . S
C497 C99 2.072 . S
C529 C50 1.904 . S
C537 C181 1.860 . S
C561 C95 0.555 . S
C569 C193 0.628 . S
C593 C6 1.327 . S
C601 C121 1.325 . S
C633 C157 2.013 . S
C625 C59 2.054 . S
C665 C217 0.360 . S
C657 C86 0.524 . S
C689 C15 1.277 . S
C697 C145 1.256 . S
C729 C223 1.096 1_554 S
C721 C18 1.061 . S
C753 C49 1.447 . S
C761 C151 1.480 . S
C785 C98 1.305 . S
C793 C187 1.362 . S
C825 C295 1.370 . S
C817 C58 1.302 . S
C857 C331 1.777 1_556 S
C849 C89 1.694 . S
C881 C9 1.478 . S
C889 C259 1.503 . S
