# Generated by pormake.
# Topology pth, (4,4)-cn, num edge types: 1
# Building blocks:
#     Node 0, Type 0, BuildingBlock: UXUYUI_clean_sbu_0, # of connection points: 4
#     Node 1, Type 0, BuildingBlock: UXUYUI_clean_sbu_0, # of connection points: 4
#     Node 2, Type 0, BuildingBlock: UXUYUI_clean_sbu_0, # of connection points: 4
#     Node 3, Type 1, BuildingBlock: MIFKUJ_clean_linker_1, # of connection points: 4
#     Node 4, Type 1, BuildingBlock: MIFKUJ_clean_linker_1, # of connection points: 4
#     Node 5, Type 1, BuildingBlock: MIFKUJ_clean_linker_1, # of connection points: 4
#     Edge 6, Type (0, 1), BuildingBlock: OJICUG_clean_linker_0, # of connection points: 2
#     Edge 7, Type (0, 1), BuildingBlock: OJICUG_clean_linker_0, # of connection points: 2
#     Edge 8, Type (0, 1), BuildingBlock: OJICUG_clean_linker_0, # of connection points: 2
#     Edge 9, Type (0, 1), BuildingBlock: OJICUG_clean_linker_0, # of connection points: 2
#     Edge 10, Type (0, 1), BuildingBlock: OJICUG_clean_linker_0, # of connection points: 2
#     Edge 11, Type (0, 1), BuildingBlock: OJICUG_clean_linker_0, # of connection points: 2
#     Edge 12, Type (0, 1), BuildingBlock: OJICUG_clean_linker_0, # of connection points: 2
#     Edge 13, Type (0, 1), BuildingBlock: OJICUG_clean_linker_0, # of connection points: 2
#     Edge 14, Type (0, 1), BuildingBlock: OJICUG_clean_linker_0, # of connection points: 2
#     Edge 15, Type (0, 1), BuildingBlock: OJICUG_clean_linker_0, # of connection points: 2
#     Edge 16, Type (0, 1), BuildingBlock: OJICUG_clean_linker_0, # of connection points: 2
#     Edge 17, Type (0, 1), BuildingBlock: OJICUG_clean_linker_0, # of connection points: 2
# Relax obj value: 0.075
# Max RMSD: 0.209
# Mean RMSD: 0.121
data_MOF--net-pth--node1-UXUYUI_clean_sbu_0--node2-MIFKUJ_clean_linker_1--edge1-OJICUG_clean_linker_0
_symmetry_space_group_name_H-M    P1
_symmetry_Int_Tables_number       1
_symmetry_cell_setting            triclinic
loop_
_symmetry_equiv_pos_as_xyz
'x, y, z'
_cell_length_a     28.591407
_cell_length_b     28.59708
_cell_length_c     61.57811
_cell_angle_alpha  90.019568
_cell_angle_beta   89.980943
_cell_angle_gamma 120.0323
loop_
_atom_site_label
_atom_site_type_symbol
_atom_site_fract_x
_atom_site_fract_y
_atom_site_fract_z
_atom_type_partial_charge
Li0 Li 0.05311 0.03596 0.03126 0.0
Li1 Li 0.99268 0.03538 0.05851 0.0
Li2 Li 0.01587 0.96502 0.05882 0.0
Li3 Li 0.95818 0.96647 0.03086 0.0
C4 C 0.11523 0.05232 0.06871 0.0
N5 N 0.21642 0.06983 0.0798 0.0
C6 C 0.14306 0.08555 0.08631 0.0
C7 C 0.13893 0.02804 0.05673 0.0
C8 C 0.19417 0.09391 0.09166 0.0
C9 C 0.19009 0.03738 0.0626 0.0
C10 C 0.00699 0.09839 0.022 0.0
C11 C 0.00178 0.16609 1.0005 0.0
N12 N 0.04331 0.20541 0.01212 0.0
C13 C 0.04964 0.13948 0.03374 0.0
C14 C 0.98286 0.11175 0.00524 0.0
C15 C 0.0674 0.19332 0.02849 0.0
C16 C 0.10092 0.07759 0.99099 0.0
N17 N 0.1116 0.08303 0.01265 0.0
C18 C 0.19738 0.16207 0.00644 0.0
C19 C 0.15869 0.12433 0.02056 0.0
C20 C 0.18681 0.15818 0.98408 0.0
C21 C 0.13803 0.11514 0.97633 0.0
H22 H 0.06259 0.04514 0.98521 0.0
H23 H 0.16552 0.12954 0.03784 0.0
C24 C 0.0044 0.08919 0.09715 0.0
N25 N 0.98039 0.08075 0.0774 0.0
C26 C 0.00363 0.12642 0.11154 0.0
C27 C 0.95119 0.14393 0.08539 0.0
C28 C 0.95318 0.10639 0.07142 0.0
C29 C 0.97765 0.15512 0.10557 0.0
H30 H 0.02532 0.06781 0.1015 0.0
H31 H 0.93448 0.09901 0.05558 0.0
C32 C 0.00682 0.90613 0.02021 0.0
N33 N 0.975 0.80273 0.0061 0.0
C34 C 0.96894 0.86149 0.03208 0.0
C35 C 0.02851 0.89821 0.00116 0.0
C36 C 0.95337 0.80954 0.02468 0.0
C37 C 0.01192 0.8456 0.99429 0.0
C38 C 0.89216 0.94768 0.0666 0.0
C39 C 0.8611 0.91225 0.08315 0.0
C40 C 0.87062 0.97332 0.05416 0.0
C41 C 0.80912 0.9033 0.08708 0.0
C42 C 0.8185 0.96333 0.0586 0.0
N43 N 0.78908 0.92883 0.07483 0.0
C44 C 0.99753 0.90613 0.09656 0.0
C45 C 0.05802 0.89688 0.07298 0.0
C46 C 0.99736 0.86827 0.11085 0.0
N47 N 0.0267 0.91887 0.07789 0.0
C48 C 0.05972 0.85933 0.08704 0.0
C49 C 0.02821 0.84392 0.10602 0.0
H50 H 0.9734 0.92462 0.1001 0.0
H51 H 0.08042 0.90728 0.05791 0.0
C52 C 0.89857 0.9337 0.99139 0.0
N53 N 0.89959 0.91977 0.01242 0.0
C54 C 0.85927 0.89676 0.97715 0.0
C55 C 0.8227 0.83239 0.00659 0.0
C56 C 0.86215 0.87064 0.02027 0.0
C57 C 0.82143 0.84495 0.98465 0.0
H58 H 0.92925 0.97288 0.98554 0.0
H59 H 0.86396 0.86039 0.03702 0.0
O60 O 0.06499 0.04363 0.06344 0.0
O61 O 0.9891 0.04526 0.02659 0.0
O62 O 0.02249 0.95746 0.02698 0.0
O63 O 0.94307 0.95647 0.06258 0.0
H64 H 0.12539 0.10478 0.09572 0.0
H65 H 0.11836 0.00256 0.04296 0.0
H66 H 0.21615 0.11954 0.10523 0.0
H67 H 0.2089 0.01887 0.05347 0.0
H68 H 0.98348 0.17701 0.98756 0.0
H69 H 0.06892 0.13003 0.04675 0.0
H70 H 0.94989 0.08038 0.99598 0.0
H71 H 0.10037 0.2255 0.03743 0.0
H72 H 0.23416 0.19533 0.01303 0.0
H73 H 0.12849 0.111 0.95917 0.0
H74 H 0.02373 0.13316 0.12709 0.0
H75 H 0.93098 0.16543 0.08012 0.0
H76 H 0.95143 0.86683 0.04678 0.0
H77 H 0.05781 0.93241 0.99177 0.0
H78 H 0.924 0.77464 0.03369 0.0
H79 H 0.02837 0.83886 0.97957 0.0
H80 H 0.87689 0.8917 0.09284 0.0
H81 H 0.89359 0.00046 0.04115 0.0
H82 H 0.78467 0.87599 0.09985 0.0
H83 H 0.8014 0.98294 0.04911 0.0
H84 H 0.97302 0.85779 0.12545 0.0
H85 H 0.08374 0.84107 0.08275 0.0
H86 H 0.85976 0.90781 0.96029 0.0
H87 H 0.79386 0.79309 0.01305 0.0
Li88 Li 0.99082 0.95159 0.36381 0.0
Li89 Li 0.05273 0.0127 0.39183 0.0
Li90 Li 0.95668 0.9887 0.39152 0.0
Li91 Li 0.01781 0.0486 0.36403 0.0
C92 C 0.94764 0.88984 0.40198 0.0
N93 N 0.86707 0.78843 0.41455 0.0
C94 C 0.95526 0.86449 0.41991 0.0
C95 C 0.89909 0.8637 0.39045 0.0
C96 C 0.91403 0.81317 0.42601 0.0
C97 C 0.85883 0.81244 0.39705 0.0
C98 C 0.11585 0.05378 0.35421 0.0
C99 C 0.19421 0.14199 0.359 0.0
N100 N 0.21985 0.13099 0.34289 0.0
C101 C 0.14291 0.04329 0.33771 0.0
C102 C 0.14163 0.10345 0.36496 0.0
C103 C 0.19551 0.08286 0.33223 0.0
C104 C 0.96111 0.8897 0.32519 0.0
N105 N 0.97871 0.89276 0.34591 0.0
C106 C 0.99049 0.81667 0.34027 0.0
C107 C 0.99307 0.85726 0.35367 0.0
C108 C 0.97338 0.8129 0.31861 0.0
C109 C 0.95799 0.84975 0.31118 0.0
H110 H 0.95083 0.91913 0.31939 0.0
H111 H 0.00808 0.8615 0.37009 0.0
C112 C 0.11842 0.04594 0.42962 0.0
N113 N 0.11084 0.02274 0.4097 0.0
C114 C 0.15771 0.04757 0.44361 0.0
C115 C 0.1805 0.0016 0.41624 0.0
C116 C 0.14107 0.00115 0.40275 0.0
C117 C 0.18874 0.02439 0.43708 0.0
H118 H 0.09284 0.06163 0.43488 0.0
H119 H 0.1335 0.98228 0.38693 0.0
C120 C 0.89952 0.98232 0.35197 0.0
N121 N 0.80651 0.9776 0.33651 0.0
C122 C 0.89352 0.02786 0.35297 0.0
C123 C 0.85852 0.93459 0.34278 0.0
C124 C 0.84613 0.02462 0.34515 0.0
C125 C 0.81171 0.93295 0.33516 0.0
C126 C 0.02474 0.10674 0.40318 0.0
C127 C 0.97939 0.11307 0.40204 0.0
C128 C 0.0728 0.14809 0.41201 0.0
C129 C 0.98313 0.16104 0.40938 0.0
C130 C 0.07494 0.19549 0.41916 0.0
N131 N 0.03045 0.20095 0.41769 0.0
C132 C 0.91314 0.99719 0.43067 0.0
C133 C 0.84611 0.9511 0.40383 0.0
C134 C 0.87469 0.99597 0.44498 0.0
N135 N 0.89855 0.97617 0.41037 0.0
C136 C 0.80627 0.94902 0.41761 0.0
C137 C 0.82057 0.97261 0.43835 0.0
H138 H 0.95514 0.01669 0.43546 0.0
H139 H 0.83516 0.93359 0.38782 0.0
C140 C 0.01021 0.0918 0.32468 0.0
N141 N 0.03122 0.1067 0.34498 0.0
C142 C 0.01111 0.12995 0.3103 0.0
C143 C 0.05777 0.19874 0.33756 0.0
C144 C 0.05608 0.15922 0.3514 0.0
C145 C 0.03403 0.18407 0.31686 0.0
H146 H 0.99081 0.04975 0.31997 0.0
H147 H 0.07357 0.17046 0.3674 0.0
O148 O 0.98757 0.94016 0.3959 0.0
O149 O 0.06443 0.01533 0.35977 0.0
O150 O 0.94563 0.98448 0.35948 0.0
O151 O 0.02208 0.06005 0.39613 0.0
H152 H 0.99266 0.8843 0.42902 0.0
H153 H 0.89256 0.88278 0.37657 0.0
H154 H 0.91935 0.79303 0.43986 0.0
H155 H 0.82104 0.79176 0.38827 0.0
H156 H 0.21463 0.18063 0.36719 0.0
H157 H 0.12345 0.00493 0.32926 0.0
H158 H 0.12132 0.11214 0.37777 0.0
H159 H 0.21698 0.07532 0.31949 0.0
H160 H 0.00362 0.78979 0.34659 0.0
H161 H 0.94416 0.84804 0.29467 0.0
H162 H 0.16236 0.06495 0.45964 0.0
H163 H 0.20392 0.98381 0.41049 0.0
H164 H 0.9253 0.06554 0.35944 0.0
H165 H 0.8627 0.8991 0.34161 0.0
H166 H 0.84097 0.05957 0.34586 0.0
H167 H 0.77954 0.89619 0.32813 0.0
H168 H 0.94151 0.08113 0.39579 0.0
H169 H 0.10823 0.14381 0.41321 0.0
H170 H 0.94834 0.16645 0.40854 0.0
H171 H 0.11197 0.22793 0.4259 0.0
H172 H 0.88765 0.015 0.46073 0.0
H173 H 0.76483 0.92968 0.41201 0.0
H174 H 0.99202 0.11675 0.29457 0.0
H175 H 0.0768 0.2402 0.34311 0.0
Li176 Li 0.03877 0.98779 0.6976 0.0
Li177 Li 0.03869 0.0477 0.7257 0.0
Li178 Li 0.96537 0.95199 0.72407 0.0
Li179 Li 0.97004 0.01583 0.697 0.0
C180 C 0.07092 0.95559 0.73479 0.0
N181 N 0.12718 0.90342 0.74538 0.0
C182 C 0.12575 0.98543 0.7401 0.0
C183 C 0.04445 0.8992 0.73537 0.0
C184 C 0.15358 0.95833 0.74525 0.0
C185 C 0.07364 0.87357 0.74063 0.0
C186 C 0.06298 0.11369 0.68939 0.0
C187 C 0.05346 0.19161 0.69608 0.0
N188 N 0.08924 0.21843 0.67984 0.0
C189 C 0.09968 0.142 0.67279 0.0
C190 C 0.03969 0.13865 0.70118 0.0
C191 C 0.11243 0.19494 0.66819 0.0
C192 C 0.0719 0.94782 0.66149 0.0
N193 N 0.08794 0.97842 0.67983 0.0
C194 C 0.18065 0.00975 0.67159 0.0
C195 C 0.14107 0.00931 0.68497 0.0
C196 C 0.16553 0.97887 0.65244 0.0
C197 C 0.11022 0.9471 0.64758 0.0
H198 H 0.0296 0.92549 0.65721 0.0
H199 H 0.15282 0.03501 0.69913 0.0
C200 C 0.07073 0.12175 0.76142 0.0
N201 N 0.08718 0.10534 0.74375 0.0
C202 C 0.10885 0.16198 0.77503 0.0
C203 C 0.1797 0.16755 0.75183 0.0
C204 C 0.14029 0.12775 0.73861 0.0
C205 C 0.16435 0.18506 0.77045 0.0
H206 H 0.02815 0.10312 0.7651 0.0
H207 H 0.15203 0.11367 0.72445 0.0
C208 C 0.93149 0.8911 0.68492 0.0
N209 N 0.87234 0.7852 0.67099 0.0
C210 C 0.88119 0.87235 0.67501 0.0
C211 C 0.95199 0.85617 0.68742 0.0
C212 C 0.85181 0.81862 0.66817 0.0
C213 C 0.92142 0.80274 0.68036 0.0
C214 C 0.90693 0.00298 0.7342 0.0
C215 C 0.86435 0.96504 0.72147 0.0
C216 C 0.8958 0.02485 0.75245 0.0
C217 C 0.81128 0.9496 0.72717 0.0
C218 C 0.84216 0.00837 0.75763 0.0
N219 N 0.80136 0.9714 0.74499 0.0
C220 C 0.93168 0.89326 0.76309 0.0
C221 C 0.86751 0.85455 0.73474 0.0
C222 C 0.89596 0.85435 0.77772 0.0
N223 N 0.9169 0.8928 0.74207 0.0
C224 C 0.83056 0.81501 0.74877 0.0
C225 C 0.84434 0.81478 0.77065 0.0
H226 H 0.97093 0.92459 0.76859 0.0
H227 H 0.85575 0.85572 0.71822 0.0
C228 C 0.92038 0.01099 0.65756 0.0
N229 N 0.92802 0.03231 0.67784 0.0
C230 C 0.8842 0.01433 0.64333 0.0
C231 C 0.86624 0.06376 0.67078 0.0
C232 C 0.90301 0.05966 0.68447 0.0
C233 C 0.85559 0.03988 0.65007 0.0
H234 H 0.94087 0.98946 0.65276 0.0
H235 H 0.91008 0.07657 0.70065 0.0
O236 O 0.04301 0.98154 0.72981 0.0
O237 O 0.05028 0.06189 0.69403 0.0
O238 O 0.96066 0.94359 0.69178 0.0
O239 O 0.95927 0.01846 0.72904 0.0
H240 H 0.14671 0.02909 0.74018 0.0
H241 H 0.00171 0.87536 0.73199 0.0
H242 H 0.19613 0.98097 0.7492 0.0
H243 H 0.05366 0.82994 0.74103 0.0
H244 H 0.03573 0.21141 0.70506 0.0
H245 H 0.11812 0.12322 0.66355 0.0
H246 H 0.01136 0.1175 0.71414 0.0
H247 H 0.14076 0.21735 0.65537 0.0
H248 H 0.22272 0.03461 0.67607 0.0
H249 H 0.09677 0.92355 0.63278 0.0
H250 H 0.09496 0.17469 0.78898 0.0
H251 H 0.22179 0.18323 0.74776 0.0
H252 H 0.86473 0.89883 0.67281 0.0
H253 H 0.99147 0.87036 0.69442 0.0
H254 H 0.81268 0.80349 0.66063 0.0
H255 H 0.93684 0.77529 0.68222 0.0
H256 H 0.87218 0.94772 0.70731 0.0
H257 H 0.92825 0.0542 0.76252 0.0
H258 H 0.77798 0.92027 0.71743 0.0
H259 H 0.83297 0.02497 0.77171 0.0
H260 H 0.9085 0.85549 0.79439 0.0
H261 H 0.79088 0.78609 0.74267 0.0
H262 H 0.87693 0.99494 0.6276 0.0
H263 H 0.84561 0.08449 0.6765 0.0
H264 H 0.07273 0.46097 0.16897 0.0
H265 H 0.06639 0.38754 0.14643 0.0
H266 H 0.91698 0.27557 0.17832 0.0
H267 H 0.9231 0.34936 0.2006 0.0
H268 H 0.00746 0.50171 0.17107 0.0
H269 H 0.07491 0.42372 0.21966 0.0
H270 H 0.08374 0.35792 0.24195 0.0
H271 H 0.93896 0.32354 0.27694 0.0
H272 H 0.93011 0.38925 0.2545 0.0
H273 H 0.9143 0.52205 0.24941 0.0
H274 H 0.90638 0.58831 0.27175 0.0
H275 H 0.06159 0.71338 0.2483 0.0
H276 H 0.06896 0.64674 0.22577 0.0
H277 H 0.99175 0.49272 0.25132 0.0
H278 H 0.93486 0.58377 0.19997 0.0
H279 H 0.94319 0.65953 0.17878 0.0
H280 H 0.08677 0.67611 0.14799 0.0
H281 H 0.08052 0.60329 0.1705 0.0
C282 C 0.99862 0.41058 0.18657 0.0
C283 C 0.03867 0.42059 0.17113 0.0
C284 C 0.03515 0.37856 0.15836 0.0
C285 C 0.99119 0.32579 0.16063 0.0
C286 C 0.95107 0.31587 0.17609 0.0
C287 C 0.95481 0.35788 0.18896 0.0
C288 C 0.0014 0.45555 0.1996 0.0
C289 C 0.00485 0.50021 0.18866 0.0
C290 C 0.99803 0.45344 0.22252 0.0
C291 C 0.00153 0.41113 0.23524 0.0
C292 C 0.0445 0.40135 0.23187 0.0
C293 C 0.04959 0.36378 0.24466 0.0
C294 C 0.01214 0.33563 0.26125 0.0
C295 C 0.96889 0.34512 0.26448 0.0
C296 C 0.96367 0.38252 0.25161 0.0
C297 C 0.99205 0.5795 0.23584 0.0
C298 C 0.94661 0.56378 0.24907 0.0
C299 C 0.94223 0.60167 0.26189 0.0
C300 C 0.9834 0.65614 0.26185 0.0
C301 C 0.02883 0.6719 0.24847 0.0
C302 C 0.0332 0.63387 0.23564 0.0
C303 C 0.99645 0.5383 0.22277 0.0
C304 C 0.99445 0.49427 0.23373 0.0
C305 C 0.00307 0.54204 0.19991 0.0
C306 C 0.00756 0.58827 0.18715 0.0
C307 C 0.96882 0.60452 0.18903 0.0
C308 C 0.9732 0.64743 0.17658 0.0
C309 C 0.01568 0.67421 0.16155 0.0
C310 C 0.05412 0.65742 0.15963 0.0
C311 C 0.05022 0.61519 0.17234 0.0
H312 H 0.6131 0.07355 0.50067 0.0
H313 H 0.67855 0.06474 0.47804 0.0
H314 H 0.64728 0.92204 0.51387 0.0
H315 H 0.58183 0.93098 0.53641 0.0
H316 H 0.51003 0.0113 0.50457 0.0
H317 H 0.65629 0.08141 0.5529 0.0
H318 H 0.7314 0.09143 0.57524 0.0
H319 H 0.62139 0.94895 0.61154 0.0
H320 H 0.54643 0.93886 0.58906 0.0
H321 H 0.39823 0.92184 0.58417 0.0
H322 H 0.32496 0.91571 0.60665 0.0
H323 H 0.34974 0.06555 0.5792 0.0
H324 H 0.42439 0.07242 0.55736 0.0
H325 H 0.50389 0.99899 0.58493 0.0
H326 H 0.3579 0.93208 0.53059 0.0
H327 H 0.28912 0.93671 0.50843 0.0
H328 H 0.41002 0.0933 0.48455 0.0
H329 H 0.47827 0.08873 0.50694 0.0
C330 C 0.5928 0.00322 0.52036 0.0
C331 C 0.62043 0.04044 0.50368 0.0
C332 C 0.65767 0.03522 0.49071 0.0
C333 C 0.66797 0.99257 0.49411 0.0
C334 C 0.64076 0.95572 0.511 0.0
C335 C 0.60338 0.96085 0.52392 0.0
C336 C 0.55078 0.00681 0.53327 0.0
C337 C 0.50922 0.00938 0.52218 0.0
C338 C 0.54964 0.00453 0.55624 0.0
C339 C 0.59567 0.00907 0.56915 0.0
C340 C 0.64842 0.05181 0.56544 0.0
C341 C 0.69135 0.05759 0.57826 0.0
C342 C 0.68231 0.0211 0.59521 0.0
C343 C 0.62954 0.97818 0.59881 0.0
C344 C 0.58669 0.97225 0.58592 0.0
C345 C 0.41656 0.99736 0.56897 0.0
C346 C 0.38781 0.95334 0.58299 0.0
C347 C 0.3456 0.94964 0.59568 0.0
C348 C 0.33134 0.99006 0.59469 0.0
C349 C 0.36 0.03398 0.58051 0.0
C350 C 0.40233 0.03769 0.56784 0.0
C351 C 0.46252 0.0016 0.55617 0.0
C352 C 0.50495 0.00083 0.56733 0.0
C353 C 0.46539 0.0073 0.53332 0.0
C354 C 0.42308 0.0102 0.52048 0.0
C355 C 0.36939 0.96758 0.52073 0.0
C356 C 0.33027 0.97013 0.50796 0.0
C357 C 0.34419 0.01542 0.49476 0.0
C358 C 0.39791 0.05821 0.49474 0.0
C359 C 0.43701 0.05547 0.50739 0.0
H360 H 0.46755 0.39797 0.83514 0.0
H361 H 0.39514 0.33145 0.81205 0.0
H362 H 0.27902 0.35673 0.84723 0.0
H363 H 0.35159 0.42451 0.86983 0.0
H364 H 0.50712 0.49841 0.83878 0.0
H365 H 0.43956 0.35995 0.89192 0.0
H366 H 0.373 0.28461 0.91403 0.0
H367 H 0.31467 0.38675 0.93945 0.0
H368 H 0.38208 0.46244 0.91758 0.0
H369 H 0.53167 0.62293 0.91396 0.0
H370 H 0.60107 0.697 0.93572 0.0
H371 H 0.71708 0.64992 0.91667 0.0
H372 H 0.64748 0.57589 0.89497 0.0
H373 H 0.49533 0.50978 0.91879 0.0
H374 H 0.5834 0.65274 0.86385 0.0
H375 H 0.65831 0.71836 0.84145 0.0
H376 H 0.68956 0.59241 0.82026 0.0
H377 H 0.61415 0.52705 0.84238 0.0
C378 C 0.41518 0.41606 0.85443 0.0
C379 C 0.42654 0.38924 0.83793 0.0
C380 C 0.38518 0.35129 0.82472 0.0
C381 C 0.33153 0.33903 0.82785 0.0
C382 C 0.31994 0.36497 0.84463 0.0
C383 C 0.36142 0.4035 0.85764 0.0
C384 C 0.45977 0.45954 0.86733 0.0
C385 C 0.50479 0.50029 0.85632 0.0
C386 C 0.45714 0.46238 0.89021 0.0
C387 C 0.41553 0.41664 0.90307 0.0
C388 C 0.41229 0.36604 0.90219 0.0
C389 C 0.37451 0.32318 0.91486 0.0
C390 C 0.33879 0.32999 0.92838 0.0
C391 C 0.34156 0.38045 0.92903 0.0
C392 C 0.38009 0.42365 0.91666 0.0
C393 C 0.58454 0.59413 0.90282 0.0
C394 C 0.57213 0.62876 0.91443 0.0
C395 C 0.61184 0.67122 0.92671 0.0
C396 C 0.66447 0.67923 0.92786 0.0
C397 C 0.67679 0.64449 0.91618 0.0
C398 C 0.6372 0.60241 0.90371 0.0
C399 C 0.54202 0.54867 0.89015 0.0
C400 C 0.49744 0.50762 0.90126 0.0
C401 C 0.54633 0.54433 0.86746 0.0
C402 C 0.5933 0.58505 0.85482 0.0
C403 C 0.6068 0.63947 0.85455 0.0
C404 C 0.64975 0.67695 0.84178 0.0
C405 C 0.67991 0.66064 0.82899 0.0
C406 C 0.66669 0.60621 0.82961 0.0
C407 C 0.62373 0.56882 0.84232 0.0
C408 C 0.93472 0.20334 0.12354 0.0
C409 C 0.98044 0.19814 0.11994 0.0
H410 H 0.90223 0.24775 0.13928 0.0
C411 C 0.02948 0.23492 0.12996 0.0
H412 H 0.89634 0.17543 0.11612 0.0
C413 C 0.03284 0.27614 0.1432 0.0
C414 C 0.98719 0.28139 0.14681 0.0
H415 H 0.06559 0.23237 0.1273 0.0
H416 H 0.07118 0.30374 0.15073 0.0
C417 C 0.93799 0.24441 0.13693 0.0
C418 C 0.74254 0.98831 0.44383 0.0
C419 C 0.77999 0.97528 0.4526 0.0
H420 H 0.67778 0.00364 0.45 0.0
C421 C 0.77971 0.96706 0.47513 0.0
H422 H 0.74209 0.99554 0.42659 0.0
C423 C 0.74316 0.97226 0.48859 0.0
C424 C 0.70625 0.98605 0.47983 0.0
H425 H 0.80777 0.95658 0.48237 0.0
H426 H 0.74446 0.96642 0.50591 0.0
C427 C 0.70616 0.99368 0.45729 0.0
C428 C 0.76963 0.72105 0.77948 0.0
C429 C 0.80421 0.77468 0.78605 0.0
H430 H 0.70312 0.64348 0.78764 0.0
C431 C 0.79866 0.79016 0.80716 0.0
H432 H 0.77315 0.70758 0.76343 0.0
C433 C 0.75886 0.75311 0.82119 0.0
C434 C 0.72369 0.69972 0.81446 0.0
H435 H 0.82422 0.83129 0.81268 0.0
H436 H 0.75564 0.76635 0.83732 0.0
C437 C 0.72985 0.68408 0.79348 0.0
C438 C 0.97511 0.75763 0.12653 0.0
C439 C 0.02547 0.801 0.12031 0.0
H440 H 0.93241 0.68304 0.14372 0.0
C441 C 0.07273 0.80293 0.1278 0.0
H442 H 0.93804 0.75489 0.12073 0.0
C443 C 0.06965 0.76236 0.14144 0.0
C444 C 0.01919 0.71845 0.14756 0.0
H445 H 0.11204 0.83626 0.12337 0.0
H446 H 0.10692 0.76582 0.14734 0.0
C447 C 0.97198 0.71664 0.13984 0.0
C448 C 0.26312 0.06724 0.46475 0.0
C449 C 0.22809 0.02212 0.45216 0.0
H450 H 0.32717 0.10043 0.48816 0.0
C451 C 0.23069 0.97449 0.45409 0.0
H452 H 0.2622 0.10455 0.46355 0.0
C453 C 0.26776 0.97211 0.46816 0.0
C454 C 0.30333 0.01742 0.48052 0.0
H455 H 0.20374 0.93882 0.44482 0.0
H456 H 0.26926 0.93505 0.46904 0.0
C457 C 0.30054 0.06499 0.47871 0.0
C458 C 0.25493 0.26806 0.7768 0.0
C459 C 0.20618 0.22593 0.78522 0.0
H460 H 0.33255 0.33652 0.78366 0.0
C461 C 0.19865 0.22221 0.80789 0.0
H462 H 0.26183 0.27306 0.75945 0.0
C463 C 0.23904 0.25924 0.82174 0.0
C464 C 0.28808 0.30039 0.81325 0.0
H465 H 0.16211 0.18991 0.81503 0.0
H466 H 0.23243 0.25493 0.83912 0.0
C467 C 0.29549 0.30457 0.79065 0.0
C468 C 0.76255 0.02633 0.64513 0.0
C469 C 0.81252 0.03842 0.63609 0.0
H470 H 0.68249 0.01163 0.63936 0.0
C471 C 0.81984 0.04619 0.61352 0.0
H472 H 0.75537 0.01946 0.66242 0.0
C473 C 0.77787 0.04124 0.60027 0.0
C474 C 0.72756 0.02807 0.60929 0.0
H475 H 0.85799 0.05588 0.60609 0.0
H476 H 0.78444 0.04658 0.58291 0.0
C477 C 0.72054 0.02112 0.63188 0.0
C478 C 0.77464 0.75079 0.96987 0.0
C479 C 0.78211 0.80324 0.96962 0.0
H480 H 0.73184 0.6707 0.95681 0.0
C481 C 0.75155 0.81515 0.95513 0.0
H482 H 0.79808 0.74063 0.98071 0.0
C483 C 0.71341 0.77498 0.94148 0.0
C484 C 0.70579 0.72243 0.94184 0.0
H485 H 0.75641 0.85521 0.95465 0.0
H486 H 0.69003 0.78503 0.93058 0.0
C487 C 0.73712 0.71091 0.95606 0.0
C488 C 0.95711 0.71956 0.31112 0.0
C489 C 0.97376 0.77211 0.30374 0.0
H490 H 0.94768 0.64218 0.30385 0.0
C491 C 0.99265 0.78595 0.28229 0.0
H492 H 0.9419 0.70742 0.32747 0.0
C493 C 0.99551 0.74833 0.26865 0.0
C494 C 0.97941 0.69597 0.27613 0.0
H495 H 0.00637 0.82626 0.27616 0.0
H496 H 0.01021 0.76023 0.25222 0.0
C497 C 0.9599 0.68197 0.29749 0.0
C498 C 0.25461 0.03113 0.63326 0.0
C499 C 0.20737 0.98158 0.6373 0.0
H500 H 0.33072 0.07256 0.61691 0.0
C501 C 0.20057 0.93495 0.62677 0.0
H502 H 0.2608 0.06801 0.64081 0.0
C503 C 0.24044 0.93772 0.61277 0.0
C504 C 0.28796 0.98721 0.60895 0.0
H505 H 0.16481 0.8961 0.62961 0.0
H506 H 0.23393 0.90108 0.60489 0.0
C507 C 0.29441 0.0339 0.61929 0.0
C508 C 0.28037 0.21608 0.96945 0.0
C509 C 0.22535 0.20054 0.96913 0.0
H510 H 0.35932 0.26896 0.95651 0.0
C511 C 0.20765 0.22717 0.95505 0.0
H512 H 0.29494 0.19611 0.98016 0.0
C513 C 0.24451 0.26933 0.94182 0.0
C514 C 0.29952 0.28485 0.94213 0.0
H515 H 0.16549 0.2162 0.95466 0.0
H516 H 0.23004 0.28969 0.93127 0.0
C517 C 0.31704 0.2575 0.9559 0.0
C518 C 0.03911 0.2248 0.28012 0.0
C519 C 0.03062 0.22423 0.30264 0.0
H520 H 0.03963 0.26016 0.24938 0.0
C521 C 0.01667 0.26098 0.31143 0.0
H522 H 0.05023 0.19723 0.27287 0.0
C523 C 0.01075 0.29706 0.298 0.0
C524 C 0.01881 0.29738 0.27547 0.0
H525 H 0.00919 0.26115 0.32866 0.0
H526 H 1.00012 0.32495 0.30531 0.0
C527 C 0.03343 0.26111 0.26669 0.0
loop_
_geom_bond_atom_site_label_1
_geom_bond_atom_site_label_2
_geom_bond_distance
_geom_bond_site_symmetry_2
_ccdc_geom_bond_type
Li0 N17 1.990 . S
Li0 O60 1.956 . S
Li0 O61 1.970 1_455 S
Li0 O62 1.961 1_545 S
Li1 N25 1.990 . S
Li1 O60 1.970 1_655 S
Li1 O61 1.956 . S
Li1 O63 1.961 1_545 S
Li2 N47 1.990 . S
Li2 O60 1.961 1_565 S
Li2 O62 1.956 . S
Li2 O63 1.970 1_455 S
Li3 N53 1.990 . S
Li3 O61 1.961 1_565 S
Li3 O62 1.970 1_655 S
Li3 O63 1.956 . S
C4 C6 1.348 . S
C4 C7 1.356 . S
C4 O60 1.325 . S
N5 C8 1.314 . S
N5 C9 1.279 . S
C6 C4 1.348 . S
C6 C8 1.353 . S
C6 H64 0.929 . S
C7 C4 1.356 . S
C7 C9 1.358 . S
C7 H65 0.930 . S
C8 N5 1.314 . S
C8 C6 1.353 . S
C8 H66 0.930 . S
C9 N5 1.279 . S
C9 C7 1.358 . S
C9 H67 0.930 . S
C10 C13 1.348 1_655 S
C10 C14 1.356 . S
C10 O61 1.325 . S
C11 N12 1.267 1_554 S
C11 C14 1.373 . S
C11 H68 0.927 1_554 S
N12 C11 1.267 1_556 S
N12 C15 1.314 . S
C13 C10 1.348 1_455 S
C13 C15 1.353 1_454 S
C13 H69 0.929 . S
C14 C10 1.356 . S
C14 C11 1.373 . S
C14 H70 0.930 . S
C15 N12 1.314 . S
C15 C13 1.353 1_656 S
C15 H71 0.930 1_655 S
C16 N17 1.314 1_556 S
C16 C21 1.353 . S
C16 H22 0.930 . S
N17 Li0 1.990 . S
N17 C16 1.314 1_554 S
N17 C19 1.279 . S
C18 C19 1.358 . S
C18 C20 1.356 1_554 S
C18 H72 0.930 . S
C19 N17 1.279 . S
C19 C18 1.358 . S
C19 H23 0.930 . S
C20 C18 1.356 1_556 S
C20 C21 1.348 . S
C21 C16 1.353 . S
C21 C20 1.348 . S
C21 H73 0.929 . S
H22 C16 0.930 . S
H23 C19 0.930 . S
C24 N25 1.314 . S
C24 C26 1.353 . S
C24 H30 0.930 . S
N25 Li1 1.990 . S
N25 C24 1.314 . S
N25 C28 1.279 . S
C26 C24 1.353 . S
C26 C29 1.348 . S
C26 H74 0.929 . S
C27 C28 1.358 . S
C27 C29 1.356 . S
C27 H75 0.930 . S
C28 N25 1.279 . S
C28 C27 1.358 . S
C28 H31 0.930 . S
C29 C26 1.348 . S
C29 C27 1.356 . S
H30 C24 0.930 . S
H31 C28 0.930 . S
C32 C34 1.348 1_455 S
C32 C35 1.356 . S
C32 O62 1.325 . S
N33 C36 1.314 . S
N33 C37 1.268 1_556 S
C34 C32 1.348 1_655 S
C34 C36 1.353 1_654 S
C34 H76 0.929 . S
C35 C32 1.356 . S
C35 C37 1.372 . S
C35 H77 0.930 . S
C36 N33 1.314 . S
C36 C34 1.353 1_456 S
C36 H78 0.930 1_455 S
C37 N33 1.268 1_554 S
C37 C35 1.372 . S
C37 H79 0.927 1_554 S
C38 C39 1.348 . S
C38 C40 1.356 . S
C38 O63 1.325 . S
C39 C38 1.348 . S
C39 C41 1.353 . S
C39 H80 0.929 . S
C40 C38 1.356 . S
C40 C42 1.358 . S
C40 H81 0.930 . S
C41 C39 1.353 . S
C41 N43 1.314 . S
C41 H82 0.930 . S
C42 C40 1.358 . S
C42 N43 1.279 . S
C42 H83 0.930 . S
N43 C41 1.314 . S
N43 C42 1.279 . S
C44 C46 1.353 . S
C44 N47 1.314 . S
C44 H50 0.930 . S
C45 N47 1.279 . S
C45 C48 1.358 . S
C45 H51 0.930 . S
C46 C44 1.353 . S
C46 C49 1.348 . S
C46 H84 0.929 . S
N47 Li2 1.990 . S
N47 C44 1.314 . S
N47 C45 1.279 . S
C48 C45 1.358 . S
C48 C49 1.356 . S
C48 H85 0.930 . S
C49 C46 1.348 . S
C49 C48 1.356 . S
H50 C44 0.930 . S
H51 C45 0.930 . S
C52 N53 1.314 1_556 S
C52 C54 1.353 . S
C52 H58 0.930 . S
N53 Li3 1.990 . S
N53 C52 1.314 1_554 S
N53 C56 1.279 . S
C54 C52 1.353 . S
C54 C57 1.348 . S
C54 H86 0.929 . S
C55 C56 1.358 . S
C55 C57 1.356 1_554 S
C55 H87 0.930 . S
C56 N53 1.279 . S
C56 C55 1.358 . S
C56 H59 0.930 . S
C57 C54 1.348 . S
C57 C55 1.356 1_556 S
H58 C52 0.930 . S
H59 C56 0.930 . S
O60 Li0 1.956 . S
O60 Li1 1.970 1_455 S
O60 Li2 1.961 1_545 S
O60 C4 1.325 . S
O61 Li0 1.970 1_655 S
O61 Li1 1.956 . S
O61 Li3 1.961 1_545 S
O61 C10 1.325 . S
O62 Li0 1.961 1_565 S
O62 Li2 1.956 . S
O62 Li3 1.970 1_455 S
O62 C32 1.325 . S
O63 Li1 1.961 1_565 S
O63 Li2 1.970 1_655 S
O63 Li3 1.956 . S
O63 C38 1.325 . S
H64 C6 0.929 . S
H65 C7 0.930 . S
H66 C8 0.930 . S
H67 C9 0.930 . S
H68 C11 0.927 1_556 S
H69 C13 0.929 . S
H70 C14 0.930 . S
H71 C15 0.930 1_455 S
H72 C18 0.930 . S
H73 C21 0.929 . S
H74 C26 0.929 . S
H75 C27 0.930 . S
H76 C34 0.929 . S
H77 C35 0.930 . S
H78 C36 0.930 1_655 S
H79 C37 0.927 1_556 S
H80 C39 0.929 . S
H81 C40 0.930 . S
H82 C41 0.930 . S
H83 C42 0.930 . S
H84 C46 0.929 . S
H85 C48 0.930 . S
H86 C54 0.929 . S
H87 C55 0.930 . S
Li88 N105 1.990 . S
Li88 O148 1.956 . S
Li88 O149 1.970 1_665 S
Li88 O150 1.961 . S
Li89 N113 1.990 . S
Li89 O148 1.970 1_445 S
Li89 O149 1.956 . S
Li89 O151 1.961 . S
Li90 N135 1.990 . S
Li90 O148 1.961 . S
Li90 O150 1.956 . S
Li90 O151 1.970 1_665 S
Li91 N141 1.990 . S
Li91 O149 1.961 . S
Li91 O150 1.970 1_445 S
Li91 O151 1.956 . S
C92 C94 1.348 1_655 S
C92 C95 1.356 . S
C92 O148 1.325 . S
N93 C96 1.314 . S
N93 C97 1.279 . S
C94 C92 1.348 1_455 S
C94 C96 1.353 1_455 S
C94 H152 0.929 . S
C95 C92 1.356 . S
C95 C97 1.358 . S
C95 H153 0.930 . S
C96 N93 1.314 . S
C96 C94 1.353 1_655 S
C96 H154 0.930 1_655 S
C97 N93 1.279 . S
C97 C95 1.358 . S
C97 H155 0.930 . S
C98 C101 1.348 1_545 S
C98 C102 1.356 . S
C98 O149 1.325 . S
C99 N100 1.279 . S
C99 C102 1.358 . S
C99 H156 0.930 . S
N100 C99 1.279 . S
N100 C103 1.314 . S
C101 C98 1.348 1_565 S
C101 C103 1.353 1_565 S
C101 H157 0.929 . S
C102 C98 1.356 . S
C102 C99 1.358 . S
C102 H158 0.930 . S
C103 N100 1.314 . S
C103 C101 1.353 1_545 S
C103 H159 0.930 1_545 S
C104 N105 1.314 . S
C104 C109 1.353 . S
C104 H110 0.930 . S
N105 Li88 1.990 . S
N105 C104 1.314 . S
N105 C107 1.279 . S
C106 C107 1.358 . S
C106 C108 1.356 . S
C106 H160 0.930 . S
C107 N105 1.279 . S
C107 C106 1.358 . S
C107 H111 0.930 . S
C108 C106 1.356 . S
C108 C109 1.348 . S
C109 C104 1.353 . S
C109 C108 1.348 . S
C109 H161 0.929 . S
H110 C104 0.930 . S
H111 C107 0.930 . S
C112 N113 1.314 . S
C112 C114 1.353 . S
C112 H118 0.930 . S
N113 Li89 1.990 . S
N113 C112 1.314 . S
N113 C116 1.279 . S
C114 C112 1.353 . S
C114 C117 1.348 . S
C114 H162 0.929 . S
C115 C116 1.358 . S
C115 C117 1.356 . S
C115 H163 0.930 . S
C116 N113 1.279 . S
C116 C115 1.358 . S
C116 H119 0.930 . S
C117 C114 1.348 . S
C117 C115 1.356 . S
H118 C112 0.930 . S
H119 C116 0.930 . S
C120 C122 1.348 1_565 S
C120 C123 1.356 . S
C120 O150 1.325 . S
N121 C124 1.314 . S
N121 C125 1.279 . S
C122 C120 1.348 1_545 S
C122 C124 1.353 1_545 S
C122 H164 0.929 . S
C123 C120 1.356 . S
C123 C125 1.358 . S
C123 H165 0.930 . S
C124 N121 1.314 . S
C124 C122 1.353 1_565 S
C124 H166 0.930 1_565 S
C125 N121 1.279 . S
C125 C123 1.358 . S
C125 H167 0.930 . S
C126 C127 1.348 1_455 S
C126 C128 1.356 . S
C126 O151 1.325 . S
C127 C126 1.348 1_655 S
C127 C129 1.353 1_655 S
C127 H168 0.929 . S
C128 C126 1.356 . S
C128 C130 1.358 . S
C128 H169 0.930 . S
C129 C127 1.353 1_455 S
C129 N131 1.314 . S
C129 H170 0.930 1_455 S
C130 C128 1.358 . S
C130 N131 1.279 . S
C130 H171 0.930 . S
N131 C129 1.314 . S
N131 C130 1.279 . S
C132 C134 1.353 . S
C132 N135 1.314 . S
C132 H138 0.930 . S
C133 N135 1.279 . S
C133 C136 1.358 . S
C133 H139 0.930 . S
C134 C132 1.353 . S
C134 C137 1.348 . S
C134 H172 0.929 . S
N135 Li90 1.990 . S
N135 C132 1.314 . S
N135 C133 1.279 . S
C136 C133 1.358 . S
C136 C137 1.356 . S
C136 H173 0.930 . S
C137 C134 1.348 . S
C137 C136 1.356 . S
H138 C132 0.930 . S
H139 C133 0.930 . S
C140 N141 1.314 . S
C140 C142 1.353 . S
C140 H146 0.930 . S
N141 Li91 1.990 . S
N141 C140 1.314 . S
N141 C144 1.279 . S
C142 C140 1.353 . S
C142 C145 1.348 . S
C142 H174 0.929 . S
C143 C144 1.358 . S
C143 C145 1.356 . S
C143 H175 0.930 . S
C144 N141 1.279 . S
C144 C143 1.358 . S
C144 H147 0.930 . S
C145 C142 1.348 . S
C145 C143 1.356 . S
H146 C140 0.930 . S
H147 C144 0.930 . S
O148 Li88 1.956 . S
O148 Li89 1.970 1_665 S
O148 Li90 1.961 . S
O148 C92 1.325 . S
O149 Li88 1.970 1_445 S
O149 Li89 1.956 . S
O149 Li91 1.961 . S
O149 C98 1.325 . S
O150 Li88 1.961 . S
O150 Li90 1.956 . S
O150 Li91 1.970 1_665 S
O150 C120 1.325 . S
O151 Li89 1.961 . S
O151 Li90 1.970 1_445 S
O151 Li91 1.956 . S
O151 C126 1.325 . S
H152 C94 0.929 . S
H153 C95 0.930 . S
H154 C96 0.930 1_455 S
H155 C97 0.930 . S
H156 C99 0.930 . S
H157 C101 0.929 . S
H158 C102 0.930 . S
H159 C103 0.930 1_565 S
H160 C106 0.930 . S
H161 C109 0.929 . S
H162 C114 0.929 . S
H163 C115 0.930 . S
H164 C122 0.929 . S
H165 C123 0.930 . S
H166 C124 0.930 1_545 S
H167 C125 0.930 . S
H168 C127 0.929 . S
H169 C128 0.930 . S
H170 C129 0.930 1_655 S
H171 C130 0.930 . S
H172 C134 0.929 . S
H173 C136 0.930 . S
H174 C142 0.929 . S
H175 C143 0.930 . S
Li176 N193 1.990 . S
Li176 O236 1.956 . S
Li176 O237 1.970 1_565 S
Li176 O238 1.961 1_455 S
Li177 N201 1.990 . S
Li177 O236 1.970 1_545 S
Li177 O237 1.956 . S
Li177 O239 1.961 1_455 S
Li178 N223 1.990 . S
Li178 O236 1.961 1_655 S
Li178 O238 1.956 . S
Li178 O239 1.970 1_565 S
Li179 N229 1.990 . S
Li179 O237 1.961 1_655 S
Li179 O238 1.970 1_545 S
Li179 O239 1.956 . S
C180 C182 1.348 1_565 S
C180 C183 1.356 . S
C180 O236 1.325 . S
N181 C184 1.314 . S
N181 C185 1.279 . S
C182 C180 1.348 1_545 S
C182 C184 1.353 1_545 S
C182 H240 0.929 . S
C183 C180 1.356 . S
C183 C185 1.358 . S
C183 H241 0.930 . S
C184 N181 1.314 . S
C184 C182 1.353 1_565 S
C184 H242 0.930 1_565 S
C185 N181 1.279 . S
C185 C183 1.358 . S
C185 H243 0.930 . S
C186 C189 1.348 . S
C186 C190 1.356 . S
C186 O237 1.325 . S
C187 N188 1.279 . S
C187 C190 1.358 . S
C187 H244 0.930 . S
N188 C187 1.279 . S
N188 C191 1.314 . S
C189 C186 1.348 . S
C189 C191 1.353 . S
C189 H245 0.929 . S
C190 C186 1.356 . S
C190 C187 1.358 . S
C190 H246 0.930 . S
C191 N188 1.314 . S
C191 C189 1.353 . S
C191 H247 0.930 . S
C192 N193 1.314 . S
C192 C197 1.353 . S
C192 H198 0.930 . S
N193 Li176 1.990 . S
N193 C192 1.314 . S
N193 C195 1.279 . S
C194 C195 1.358 . S
C194 C196 1.356 . S
C194 H248 0.930 . S
C195 N193 1.279 . S
C195 C194 1.358 . S
C195 H199 0.930 . S
C196 C194 1.356 . S
C196 C197 1.348 . S
C197 C192 1.353 . S
C197 C196 1.348 . S
C197 H249 0.929 . S
H198 C192 0.930 . S
H199 C195 0.930 . S
C200 N201 1.314 . S
C200 C202 1.353 . S
C200 H206 0.930 . S
N201 Li177 1.990 . S
N201 C200 1.314 . S
N201 C204 1.279 . S
C202 C200 1.353 . S
C202 C205 1.348 . S
C202 H250 0.929 . S
C203 C204 1.358 . S
C203 C205 1.356 . S
C203 H251 0.930 . S
C204 N201 1.279 . S
C204 C203 1.358 . S
C204 H207 0.930 . S
C205 C202 1.348 . S
C205 C203 1.356 . S
H206 C200 0.930 . S
H207 C204 0.930 . S
C208 C210 1.348 . S
C208 C211 1.356 . S
C208 O238 1.325 . S
N209 C212 1.314 . S
N209 C213 1.279 . S
C210 C208 1.348 . S
C210 C212 1.353 . S
C210 H252 0.929 . S
C211 C208 1.356 . S
C211 C213 1.358 . S
C211 H253 0.930 . S
C212 N209 1.314 . S
C212 C210 1.353 . S
C212 H254 0.930 . S
C213 N209 1.279 . S
C213 C211 1.358 . S
C213 H255 0.930 . S
C214 C215 1.348 1_545 S
C214 C216 1.356 . S
C214 O239 1.325 . S
C215 C214 1.348 1_565 S
C215 C217 1.353 1_565 S
C215 H256 0.929 . S
C216 C214 1.356 . S
C216 C218 1.358 . S
C216 H257 0.930 . S
C217 C215 1.353 1_545 S
C217 N219 1.314 . S
C217 H258 0.930 1_545 S
C218 C216 1.358 . S
C218 N219 1.279 . S
C218 H259 0.930 . S
N219 C217 1.314 . S
N219 C218 1.279 . S
C220 C222 1.353 . S
C220 N223 1.314 . S
C220 H226 0.930 . S
C221 N223 1.279 . S
C221 C224 1.358 . S
C221 H227 0.930 . S
C222 C220 1.353 . S
C222 C225 1.348 . S
C222 H260 0.929 . S
N223 Li178 1.990 . S
N223 C220 1.314 . S
N223 C221 1.279 . S
C224 C221 1.358 . S
C224 C225 1.356 . S
C224 H261 0.930 . S
C225 C222 1.348 . S
C225 C224 1.356 . S
H226 C220 0.930 . S
H227 C221 0.930 . S
C228 N229 1.314 . S
C228 C230 1.353 . S
C228 H234 0.930 . S
N229 Li179 1.990 . S
N229 C228 1.314 . S
N229 C232 1.279 . S
C230 C228 1.353 . S
C230 C233 1.348 . S
C230 H262 0.929 . S
C231 C232 1.358 . S
C231 C233 1.356 . S
C231 H263 0.930 . S
C232 N229 1.279 . S
C232 C231 1.358 . S
C232 H235 0.930 . S
C233 C230 1.348 . S
C233 C231 1.356 . S
H234 C228 0.930 . S
H235 C232 0.930 . S
O236 Li176 1.956 . S
O236 Li177 1.970 1_565 S
O236 Li178 1.961 1_455 S
O236 C180 1.325 . S
O237 Li176 1.970 1_545 S
O237 Li177 1.956 . S
O237 Li179 1.961 1_455 S
O237 C186 1.325 . S
O238 Li176 1.961 1_655 S
O238 Li178 1.956 . S
O238 Li179 1.970 1_565 S
O238 C208 1.325 . S
O239 Li177 1.961 1_655 S
O239 Li178 1.970 1_545 S
O239 Li179 1.956 . S
O239 C214 1.325 . S
H240 C182 0.929 . S
H241 C183 0.930 . S
H242 C184 0.930 1_545 S
H243 C185 0.930 . S
H244 C187 0.930 . S
H245 C189 0.929 . S
H246 C190 0.930 . S
H247 C191 0.930 . S
H248 C194 0.930 . S
H249 C197 0.929 . S
H250 C202 0.929 . S
H251 C203 0.930 . S
H252 C210 0.929 . S
H253 C211 0.930 . S
H254 C212 0.930 . S
H255 C213 0.930 . S
H256 C215 0.929 . S
H257 C216 0.930 . S
H258 C217 0.930 1_565 S
H259 C218 0.930 . S
H260 C222 0.929 . S
H261 C224 0.930 . S
H262 C230 0.929 . S
H263 C231 0.930 . S
H264 C283 0.949 . S
H265 C284 0.950 . S
H266 C286 0.950 . S
H267 C287 0.950 . S
H268 C289 0.950 . S
H269 C292 0.950 . S
H270 C293 0.950 . S
H271 C295 0.951 . S
H272 C296 0.949 . S
H273 C298 0.949 . S
H274 C299 0.950 . S
H275 C301 0.950 . S
H276 C302 0.950 . S
H277 C304 0.950 . S
H278 C307 0.950 . S
H279 C308 0.950 . S
H280 C310 0.951 . S
H281 C311 0.949 . S
C282 C283 1.376 . S
C282 C287 1.386 1_455 S
C282 C288 1.483 . S
C283 H264 0.949 . S
C283 C282 1.376 . S
C283 C284 1.397 . S
C284 H265 0.950 . S
C284 C283 1.397 . S
C284 C285 1.391 . S
C285 C284 1.391 . S
C285 C286 1.405 1_455 S
C286 H266 0.950 . S
C286 C285 1.405 1_655 S
C286 C287 1.367 . S
C287 H267 0.950 . S
C287 C282 1.386 1_655 S
C287 C286 1.367 . S
C288 C282 1.483 . S
C288 C289 1.382 . S
C288 C290 1.403 1_455 S
C289 H268 0.950 . S
C289 C288 1.382 . S
C289 C305 1.411 . S
C290 C288 1.403 1_655 S
C290 C291 1.489 . S
C290 C304 1.411 . S
C291 C290 1.489 . S
C291 C292 1.383 1_655 S
C291 C296 1.382 . S
C292 H269 0.950 . S
C292 C291 1.383 1_455 S
C292 C293 1.395 . S
C293 H270 0.950 . S
C293 C292 1.395 . S
C293 C294 1.288 1_455 S
C294 C293 1.288 1_655 S
C294 C295 1.392 . S
C295 H271 0.951 . S
C295 C294 1.392 . S
C295 C296 1.392 . S
C296 H272 0.949 . S
C296 C291 1.382 . S
C296 C295 1.392 . S
C297 C298 1.376 . S
C297 C302 1.386 1_655 S
C297 C303 1.483 . S
C298 H273 0.949 . S
C298 C297 1.376 . S
C298 C299 1.397 . S
C299 H274 0.950 . S
C299 C298 1.397 . S
C299 C300 1.399 . S
C300 C299 1.399 . S
C300 C301 1.390 1_655 S
C301 H275 0.950 . S
C301 C300 1.390 1_455 S
C301 C302 1.367 . S
C302 H276 0.950 . S
C302 C297 1.386 1_455 S
C302 C301 1.367 . S
C303 C297 1.483 . S
C303 C304 1.382 . S
C303 C305 1.403 1_655 S
C304 H277 0.950 . S
C304 C290 1.411 . S
C304 C303 1.382 . S
C305 C289 1.411 . S
C305 C303 1.403 1_455 S
C305 C306 1.489 . S
C306 C305 1.489 . S
C306 C307 1.383 1_455 S
C306 C311 1.382 . S
C307 H278 0.950 . S
C307 C306 1.383 1_655 S
C307 C308 1.395 . S
C308 H279 0.950 . S
C308 C307 1.395 . S
C308 C309 1.288 1_655 S
C309 C308 1.288 1_455 S
C309 C310 1.392 . S
C310 H280 0.951 . S
C310 C309 1.392 . S
C310 C311 1.392 . S
C311 H281 0.949 . S
C311 C306 1.382 . S
C311 C310 1.392 . S
H312 C331 0.949 . S
H313 C332 0.950 . S
H314 C334 0.950 . S
H315 C335 0.950 . S
H316 C337 0.950 . S
H317 C340 0.950 . S
H318 C341 0.950 . S
H319 C343 0.951 . S
H320 C344 0.949 . S
H321 C346 0.949 . S
H322 C347 0.950 . S
H323 C349 0.950 . S
H324 C350 0.950 . S
H325 C352 0.950 . S
H326 C355 0.950 . S
H327 C356 0.950 . S
H328 C358 0.951 . S
H329 C359 0.949 . S
C330 C331 1.376 . S
C330 C335 1.386 1_545 S
C330 C336 1.483 . S
C331 H312 0.949 . S
C331 C330 1.376 . S
C331 C332 1.397 . S
C332 H313 0.950 . S
C332 C331 1.397 . S
C332 C333 1.391 . S
C333 C332 1.391 . S
C333 C334 1.405 1_545 S
C334 H314 0.950 . S
C334 C333 1.405 1_565 S
C334 C335 1.367 . S
C335 H315 0.950 . S
C335 C330 1.386 1_565 S
C335 C334 1.367 . S
C336 C330 1.483 . S
C336 C337 1.382 . S
C336 C338 1.403 1_545 S
C337 H316 0.950 . S
C337 C336 1.382 . S
C337 C353 1.411 . S
C338 C336 1.403 1_565 S
C338 C339 1.489 . S
C338 C352 1.411 . S
C339 C338 1.489 . S
C339 C340 1.383 1_565 S
C339 C344 1.382 . S
C340 H317 0.950 . S
C340 C339 1.383 1_545 S
C340 C341 1.395 . S
C341 H318 0.950 . S
C341 C340 1.395 . S
C341 C342 1.288 1_545 S
C342 C341 1.288 1_565 S
C342 C343 1.392 . S
C343 H319 0.951 . S
C343 C342 1.392 . S
C343 C344 1.392 . S
C344 H320 0.949 . S
C344 C339 1.382 . S
C344 C343 1.392 . S
C345 C346 1.376 . S
C345 C350 1.386 1_565 S
C345 C351 1.483 . S
C346 H321 0.949 . S
C346 C345 1.376 . S
C346 C347 1.397 . S
C347 H322 0.950 . S
C347 C346 1.397 . S
C347 C348 1.413 . S
C348 C347 1.413 . S
C348 C349 1.393 1_565 S
C349 H323 0.950 . S
C349 C348 1.393 1_545 S
C349 C350 1.367 . S
C350 H324 0.950 . S
C350 C345 1.386 1_545 S
C350 C349 1.367 . S
C351 C345 1.483 . S
C351 C352 1.382 . S
C351 C353 1.403 1_565 S
C352 H325 0.950 . S
C352 C338 1.411 . S
C352 C351 1.382 . S
C353 C337 1.411 . S
C353 C351 1.403 1_545 S
C353 C354 1.489 . S
C354 C353 1.489 . S
C354 C355 1.383 1_545 S
C354 C359 1.382 . S
C355 H326 0.950 . S
C355 C354 1.383 1_565 S
C355 C356 1.395 . S
C356 H327 0.950 . S
C356 C355 1.395 . S
C356 C357 1.288 1_565 S
C357 C356 1.288 1_545 S
C357 C358 1.392 . S
C358 H328 0.951 . S
C358 C357 1.392 . S
C358 C359 1.392 . S
C359 H329 0.949 . S
C359 C354 1.382 . S
C359 C358 1.392 . S
H360 C379 0.949 . S
H361 C380 0.950 . S
H362 C382 0.950 . S
H363 C383 0.950 . S
H364 C385 0.950 . S
H365 C388 0.950 . S
H366 C389 0.950 . S
H367 C391 0.951 . S
H368 C392 0.949 . S
H369 C394 0.949 . S
H370 C395 0.950 . S
H371 C397 0.950 . S
H372 C398 0.950 . S
H373 C400 0.950 . S
H374 C403 0.950 . S
H375 C404 0.950 . S
H376 C406 0.951 . S
H377 C407 0.949 . S
C378 C379 1.376 . S
C378 C383 1.386 . S
C378 C384 1.483 . S
C379 H360 0.949 . S
C379 C378 1.376 . S
C379 C380 1.397 . S
C380 H361 0.950 . S
C380 C379 1.397 . S
C380 C381 1.391 . S
C381 C380 1.391 . S
C381 C382 1.405 . S
C382 H362 0.950 . S
C382 C381 1.405 . S
C382 C383 1.367 . S
C383 H363 0.950 . S
C383 C378 1.386 . S
C383 C382 1.367 . S
C384 C378 1.483 . S
C384 C385 1.382 . S
C384 C386 1.403 . S
C385 H364 0.950 . S
C385 C384 1.382 . S
C385 C401 1.411 . S
C386 C384 1.403 . S
C386 C387 1.489 . S
C386 C400 1.411 . S
C387 C386 1.489 . S
C387 C388 1.383 . S
C387 C392 1.382 . S
C388 H365 0.950 . S
C388 C387 1.383 . S
C388 C389 1.395 . S
C389 H366 0.950 . S
C389 C388 1.395 . S
C389 C390 1.288 . S
C390 C389 1.288 . S
C390 C391 1.392 . S
C391 H367 0.951 . S
C391 C390 1.392 . S
C391 C392 1.392 . S
C392 H368 0.949 . S
C392 C387 1.382 . S
C392 C391 1.392 . S
C393 C394 1.376 . S
C393 C398 1.386 . S
C393 C399 1.483 . S
C394 H369 0.949 . S
C394 C393 1.376 . S
C394 C395 1.397 . S
C395 H370 0.950 . S
C395 C394 1.397 . S
C395 C396 1.391 . S
C396 C395 1.391 . S
C396 C397 1.405 . S
C397 H371 0.950 . S
C397 C396 1.405 . S
C397 C398 1.367 . S
C398 H372 0.950 . S
C398 C393 1.386 . S
C398 C397 1.367 . S
C399 C393 1.483 . S
C399 C400 1.382 . S
C399 C401 1.403 . S
C400 H373 0.950 . S
C400 C386 1.411 . S
C400 C399 1.382 . S
C401 C385 1.411 . S
C401 C399 1.403 . S
C401 C402 1.489 . S
C402 C401 1.489 . S
C402 C403 1.383 . S
C402 C407 1.382 . S
C403 H374 0.950 . S
C403 C402 1.383 . S
C403 C404 1.395 . S
C404 H375 0.950 . S
C404 C403 1.395 . S
C404 C405 1.288 . S
C405 C404 1.288 . S
C405 C406 1.392 . S
C406 H376 0.951 . S
C406 C405 1.392 . S
C406 C407 1.392 . S
C407 H377 0.949 . S
C407 C402 1.382 . S
C407 C406 1.392 . S
C408 C409 1.387 . S
C408 H412 0.950 . S
C408 C417 1.390 . S
C409 C408 1.387 . S
C409 C411 1.387 . S
H410 C417 0.950 . S
C411 C409 1.387 . S
C411 C413 1.390 1_655 S
C411 H415 0.950 1_655 S
H412 C408 0.950 . S
C413 C411 1.390 1_455 S
C413 C414 1.387 1_455 S
C413 H416 0.950 . S
C414 C413 1.387 1_655 S
C414 C417 1.387 . S
H415 C411 0.950 1_455 S
H416 C413 0.950 . S
C417 C408 1.390 . S
C417 H410 0.950 . S
C417 C414 1.387 . S
C418 C419 1.387 . S
C418 H422 0.950 . S
C418 C427 1.390 . S
C419 C418 1.387 . S
C419 C421 1.387 . S
H420 C427 0.950 1_545 S
C421 C419 1.387 . S
C421 C423 1.390 . S
C421 H425 0.950 . S
H422 C418 0.950 . S
C423 C421 1.390 . S
C423 C424 1.387 . S
C423 H426 0.950 . S
C424 C423 1.387 . S
C424 C427 1.387 . S
H425 C421 0.950 . S
H426 C423 0.950 . S
C427 C418 1.390 . S
C427 H420 0.950 1_565 S
C427 C424 1.387 . S
C428 C429 1.387 . S
C428 H432 0.950 . S
C428 C437 1.390 . S
C429 C428 1.387 . S
C429 C431 1.387 . S
H430 C437 0.950 . S
C431 C429 1.387 . S
C431 C433 1.390 . S
C431 H435 0.950 . S
H432 C428 0.950 . S
C433 C431 1.390 . S
C433 C434 1.387 . S
C433 H436 0.950 . S
C434 C433 1.387 . S
C434 C437 1.387 . S
H435 C431 0.950 . S
H436 C433 0.950 . S
C437 C428 1.390 . S
C437 H430 0.950 . S
C437 C434 1.387 . S
C438 C439 1.387 . S
C438 H442 0.950 1_455 S
C438 C447 1.390 1_455 S
C439 C438 1.387 . S
C439 C441 1.387 . S
H440 C447 0.950 . S
C441 C439 1.387 . S
C441 C443 1.390 . S
C441 H445 0.950 . S
H442 C438 0.950 1_655 S
C443 C441 1.390 . S
C443 C444 1.387 . S
C443 H446 0.950 . S
C444 C443 1.387 . S
C444 C447 1.387 1_455 S
H445 C441 0.950 . S
H446 C443 0.950 . S
C447 C438 1.390 1_655 S
C447 H440 0.950 . S
C447 C444 1.387 1_655 S
C448 C449 1.387 . S
C448 H452 0.950 . S
C448 C457 1.390 . S
C449 C448 1.387 . S
C449 C451 1.387 . S
H450 C457 0.950 . S
C451 C449 1.387 . S
C451 C453 1.390 1_545 S
C451 H455 0.950 1_545 S
H452 C448 0.950 . S
C453 C451 1.390 1_565 S
C453 C454 1.387 1_565 S
C453 H456 0.950 . S
C454 C453 1.387 1_545 S
C454 C457 1.387 . S
H455 C451 0.950 1_565 S
H456 C453 0.950 . S
C457 C448 1.390 . S
C457 H450 0.950 . S
C457 C454 1.387 . S
C458 C459 1.387 . S
C458 H462 0.950 . S
C458 C467 1.390 . S
C459 C458 1.387 . S
C459 C461 1.387 . S
H460 C467 0.950 . S
C461 C459 1.387 . S
C461 C463 1.390 . S
C461 H465 0.950 . S
H462 C458 0.950 . S
C463 C461 1.390 . S
C463 C464 1.387 . S
C463 H466 0.950 . S
C464 C463 1.387 . S
C464 C467 1.387 . S
H465 C461 0.950 . S
H466 C463 0.950 . S
C467 C458 1.390 . S
C467 H460 0.950 . S
C467 C464 1.387 . S
C468 C469 1.387 . S
C468 H472 0.950 1_545 S
C468 C477 1.390 1_545 S
C469 C468 1.387 . S
C469 C471 1.387 . S
H470 C477 0.950 . S
C471 C469 1.387 . S
C471 C473 1.390 . S
C471 H475 0.950 . S
H472 C468 0.950 1_565 S
C473 C471 1.390 . S
C473 C474 1.387 . S
C473 H476 0.950 . S
C474 C473 1.387 . S
C474 C477 1.387 1_545 S
H475 C471 0.950 . S
H476 C473 0.950 . S
C477 C468 1.390 1_565 S
C477 H470 0.950 . S
C477 C474 1.387 1_565 S
C478 C479 1.387 . S
C478 H482 0.950 . S
C478 C487 1.390 . S
C479 C478 1.387 . S
C479 C481 1.387 . S
H480 C487 0.950 . S
C481 C479 1.387 . S
C481 C483 1.390 . S
C481 H485 0.950 . S
H482 C478 0.950 . S
C483 C481 1.390 . S
C483 C484 1.387 . S
C483 H486 0.950 . S
C484 C483 1.387 . S
C484 C487 1.387 . S
H485 C481 0.950 . S
H486 C483 0.950 . S
C487 C478 1.390 . S
C487 H480 0.950 . S
C487 C484 1.387 . S
C488 C489 1.387 . S
C488 H492 0.950 . S
C488 C497 1.390 . S
C489 C488 1.387 . S
C489 C491 1.387 . S
H490 C497 0.950 . S
C491 C489 1.387 . S
C491 C493 1.390 . S
C491 H495 0.950 . S
H492 C488 0.950 . S
C493 C491 1.390 . S
C493 C494 1.387 . S
C493 H496 0.950 . S
C494 C493 1.387 . S
C494 C497 1.387 . S
H495 C491 0.950 . S
H496 C493 0.950 . S
C497 C488 1.390 . S
C497 H490 0.950 . S
C497 C494 1.387 . S
C498 C499 1.387 1_545 S
C498 H502 0.950 . S
C498 C507 1.390 . S
C499 C498 1.387 1_565 S
C499 C501 1.387 . S
H500 C507 0.950 . S
C501 C499 1.387 . S
C501 C503 1.390 . S
C501 H505 0.950 . S
H502 C498 0.950 . S
C503 C501 1.390 . S
C503 C504 1.387 . S
C503 H506 0.950 . S
C504 C503 1.387 . S
C504 C507 1.387 1_565 S
H505 C501 0.950 . S
H506 C503 0.950 . S
C507 C498 1.390 . S
C507 H500 0.950 . S
C507 C504 1.387 1_545 S
C508 C509 1.387 . S
C508 H512 0.950 . S
C508 C517 1.390 . S
C509 C508 1.387 . S
C509 C511 1.387 . S
H510 C517 0.950 . S
C511 C509 1.387 . S
C511 C513 1.390 . S
C511 H515 0.950 . S
H512 C508 0.950 . S
C513 C511 1.390 . S
C513 C514 1.387 . S
C513 H516 0.950 . S
C514 C513 1.387 . S
C514 C517 1.387 . S
H515 C511 0.950 . S
H516 C513 0.950 . S
C517 C508 1.390 . S
C517 H510 0.950 . S
C517 C514 1.387 . S
C518 C519 1.387 . S
C518 H522 0.950 . S
C518 C527 1.390 . S
C519 C518 1.387 . S
C519 C521 1.387 . S
H520 C527 0.950 . S
C521 C519 1.387 . S
C521 C523 1.390 1_455 S
C521 H525 0.950 1_455 S
H522 C518 0.950 . S
C523 C521 1.390 1_655 S
C523 C524 1.387 1_655 S
C523 H526 0.950 . S
C524 C523 1.387 1_455 S
C524 C527 1.387 . S
H525 C521 0.950 1_655 S
H526 C523 0.950 . S
C527 C518 1.390 . S
C527 H520 0.950 . S
C527 C524 1.387 . S
C414 C285 1.559 1_655 S
C409 C29 1.520 . S
C419 C137 1.520 . S
C424 C333 1.559 1_565 S
C429 C225 1.519 . S
C434 C405 1.521 . S
C439 C49 1.521 . S
C444 C309 1.523 . S
C454 C357 1.523 . S
C449 C117 1.521 . S
C459 C205 1.520 . S
C464 C381 1.558 . S
C474 C342 1.566 1_545 S
C469 C233 1.519 . S
C479 C57 1.521 . S
C484 C396 1.544 . S
C494 C300 1.553 . S
C489 C108 1.520 . S
C504 C348 1.537 . S
C499 C196 1.520 . S
C514 C390 1.566 . S
C509 C20 1.520 . S
C519 C145 1.522 . S
C524 C294 1.567 1_455 S
