# Generated by pormake.
# Topology zzz, (3,6)-cn, num edge types: 1
# Building blocks:
#     Node 0, Type 0, BuildingBlock: ESEHIV_clean_linker_0, # of connection points: 3
#     Node 1, Type 0, BuildingBlock: ESEHIV_clean_linker_0, # of connection points: 3
#     Node 2, Type 0, BuildingBlock: ESEHIV_clean_linker_0, # of connection points: 3
#     Node 3, Type 0, BuildingBlock: ESEHIV_clean_linker_0, # of connection points: 3
#     Node 4, Type 0, BuildingBlock: ESEHIV_clean_linker_0, # of connection points: 3
#     Node 5, Type 0, BuildingBlock: ESEHIV_clean_linker_0, # of connection points: 3
#     Node 6, Type 0, BuildingBlock: ESEHIV_clean_linker_0, # of connection points: 3
#     Node 7, Type 0, BuildingBlock: ESEHIV_clean_linker_0, # of connection points: 3
#     Node 8, Type 1, BuildingBlock: BETFEN_clean_sbu_0, # of connection points: 6
#     Node 9, Type 1, BuildingBlock: BETFEN_clean_sbu_0, # of connection points: 6
#     Node 10, Type 1, BuildingBlock: BETFEN_clean_sbu_0, # of connection points: 6
#     Node 11, Type 1, BuildingBlock: BETFEN_clean_sbu_0, # of connection points: 6
#     Edge 12, Type (0, 1), BuildingBlock: KIFKEQ_clean_linker_1, # of connection points: 2
#     Edge 13, Type (0, 1), BuildingBlock: KIFKEQ_clean_linker_1, # of connection points: 2
#     Edge 14, Type (0, 1), BuildingBlock: KIFKEQ_clean_linker_1, # of connection points: 2
#     Edge 15, Type (0, 1), BuildingBlock: KIFKEQ_clean_linker_1, # of connection points: 2
#     Edge 16, Type (0, 1), BuildingBlock: KIFKEQ_clean_linker_1, # of connection points: 2
#     Edge 17, Type (0, 1), BuildingBlock: KIFKEQ_clean_linker_1, # of connection points: 2
#     Edge 18, Type (0, 1), BuildingBlock: KIFKEQ_clean_linker_1, # of connection points: 2
#     Edge 19, Type (0, 1), BuildingBlock: KIFKEQ_clean_linker_1, # of connection points: 2
#     Edge 20, Type (0, 1), BuildingBlock: KIFKEQ_clean_linker_1, # of connection points: 2
#     Edge 21, Type (0, 1), BuildingBlock: KIFKEQ_clean_linker_1, # of connection points: 2
#     Edge 22, Type (0, 1), BuildingBlock: KIFKEQ_clean_linker_1, # of connection points: 2
#     Edge 23, Type (0, 1), BuildingBlock: KIFKEQ_clean_linker_1, # of connection points: 2
#     Edge 24, Type (0, 1), BuildingBlock: KIFKEQ_clean_linker_1, # of connection points: 2
#     Edge 25, Type (0, 1), BuildingBlock: KIFKEQ_clean_linker_1, # of connection points: 2
#     Edge 26, Type (0, 1), BuildingBlock: KIFKEQ_clean_linker_1, # of connection points: 2
#     Edge 27, Type (0, 1), BuildingBlock: KIFKEQ_clean_linker_1, # of connection points: 2
#     Edge 28, Type (0, 1), BuildingBlock: KIFKEQ_clean_linker_1, # of connection points: 2
#     Edge 29, Type (0, 1), BuildingBlock: KIFKEQ_clean_linker_1, # of connection points: 2
#     Edge 30, Type (0, 1), BuildingBlock: KIFKEQ_clean_linker_1, # of connection points: 2
#     Edge 31, Type (0, 1), BuildingBlock: KIFKEQ_clean_linker_1, # of connection points: 2
#     Edge 32, Type (0, 1), BuildingBlock: KIFKEQ_clean_linker_1, # of connection points: 2
#     Edge 33, Type (0, 1), BuildingBlock: KIFKEQ_clean_linker_1, # of connection points: 2
#     Edge 34, Type (0, 1), BuildingBlock: KIFKEQ_clean_linker_1, # of connection points: 2
#     Edge 35, Type (0, 1), BuildingBlock: KIFKEQ_clean_linker_1, # of connection points: 2
# Relax obj value: 0.507
# Max RMSD: 0.263
# Mean RMSD: 0.254
data_MOF--net-zzz--node1-BETFEN_clean_sbu_0--node2-ESEHIV_clean_linker_0--edge1-KIFKEQ_clean_linker_1
_symmetry_space_group_name_H-M    P1
_symmetry_Int_Tables_number       1
_symmetry_cell_setting            triclinic
loop_
_symmetry_equiv_pos_as_xyz
'x, y, z'
_cell_length_a     46.301403
_cell_length_b     46.342432
_cell_length_c     14.470349
_cell_angle_alpha  89.363303
_cell_angle_beta   89.832169
_cell_angle_gamma 89.926223
loop_
_atom_site_label
_atom_site_type_symbol
_atom_site_fract_x
_atom_site_fract_y
_atom_site_fract_z
_atom_type_partial_charge
H0 H 0.78052 0.48358 0.41889 0.0
H1 H 0.7032 0.48753 0.26059 0.0
H2 H 0.71339 0.54393 0.49475 0.0
C3 C 0.75888 0.49227 0.41044 0.0
C4 C 0.74921 0.51414 0.46899 0.0
C5 C 0.74247 0.48321 0.3358 0.0
C6 C 0.71518 0.4946 0.32066 0.0
C7 C 0.70372 0.51593 0.3779 0.0
C8 C 0.72127 0.52663 0.45179 0.0
H9 H 0.9761 0.78542 0.40314 0.0
H10 H 0.97427 0.70778 0.24794 0.0
H11 H 0.03038 0.71437 0.48422 0.0
C12 C 0.98197 0.76288 0.39627 0.0
C13 C 1.00215 0.75147 0.45854 0.0
C14 C 0.97577 0.74868 0.31377 0.0
C15 C 0.9809 0.71908 0.30973 0.0
C16 C 1.00117 0.7061 0.36881 0.0
C17 C 1.01292 0.72291 0.4425 0.0
H18 H 0.74637 1.01179 0.37199 0.0
H19 H 0.82707 1.0117 0.22978 0.0
H20 H 0.82495 0.99508 0.52487 0.0
C21 C 0.76957 1.00831 0.37431 0.0
C22 C 0.78296 1.00258 0.45909 0.0
C23 C 0.78559 1.01195 0.29353 0.0
C24 C 0.81524 1.00849 0.29406 0.0
C25 C 0.83009 1.00213 0.37563 0.0
C26 C 0.81388 0.99926 0.46032 0.0
H27 H 0.48477 0.75331 0.41383 0.0
H28 H 0.5418 0.82087 0.50566 0.0
H29 H 0.49201 0.83094 0.25458 0.0
C30 C 0.49329 0.77507 0.40729 0.0
C31 C 0.4861 0.79147 0.32939 0.0
C32 C 0.51341 0.78481 0.4718 0.0
C33 C 0.52588 0.81286 0.45775 0.0
C34 C 0.51713 0.83028 0.38001 0.0
C35 C 0.49759 0.81882 0.3167 0.0
H36 H 0.24583 0.52917 0.11759 0.0
H37 H 0.32561 0.52887 0.26331 0.0
H38 H 0.32234 0.49457 0.98615 0.0
C39 C 0.26864 0.52367 0.11865 0.0
C40 C 0.2815 0.51121 0.04104 0.0
C41 C 0.28467 0.53001 0.19688 0.0
C42 C 0.31382 0.52364 0.2009 0.0
C43 C 0.32807 0.51086 0.12652 0.0
C44 C 0.31176 0.50427 0.04495 0.0
H45 H 0.0229 0.24206 0.13557 0.0
H46 H 0.022 0.32147 0.28048 0.0
H47 H 0.04111 0.32164 0.98737 0.0
C48 C 0.02688 0.26517 0.13467 0.0
C49 C 0.03368 0.27916 0.05128 0.0
C50 C 0.02214 0.2806 0.21508 0.0
C51 C 0.02625 0.31012 0.21653 0.0
C52 C 0.0331 0.3256 0.13611 0.0
C53 C 0.03674 0.31007 0.05126 0.0
H54 H 0.28129 0.99185 0.099 0.0
H55 H 0.20201 0.99768 0.24754 0.0
H56 H 0.21428 0.04927 0.99935 0.0
C57 C 0.25939 1.00023 0.10248 0.0
C58 C 0.25003 0.02043 0.03639 0.0
C59 C 0.24221 0.99257 0.17788 0.0
C60 C 0.21453 1.0035 0.18654 0.0
C61 C 0.20362 0.02357 0.12271 0.0
C62 C 0.22181 0.03289 0.04747 0.0
H63 H 0.51741 0.28875 0.1227 0.0
H64 H 0.50608 0.20861 0.97736 0.0
H65 H 0.51916 0.20912 0.27355 0.0
C66 C 0.51514 0.26542 0.12306 0.0
C67 C 0.51833 0.25028 0.20616 0.0
C68 C 0.51099 0.25118 0.0395 0.0
C69 C 0.50918 0.22026 0.04099 0.0
C70 C 0.51196 0.20481 0.12711 0.0
C71 C 0.51647 0.22042 0.20796 0.0
Pr72 Pr 0.04829 1.01094 0.81681 0.0
Pr73 Pr 0.99338 0.01938 0.70168 0.0
C74 C 0.08326 0.99399 0.95352 0.0
C75 C 0.07969 0.96703 1.00542 0.0
C76 C 0.10375 0.95027 0.0308 0.0
C77 C 0.10007 0.92127 0.05663 0.0
C78 C 0.07239 0.90906 0.05498 0.0
C79 C 0.04839 0.92615 0.03319 0.0
C80 C 0.05197 0.95489 1.00889 0.0
C81 C 0.06808 0.02586 0.63833 0.0
C82 C 0.0193 0.95267 0.71225 0.0
C83 C 0.95577 0.03461 0.56925 0.0
C84 C 0.95169 0.06352 0.53086 0.0
C85 C 0.92389 0.07375 0.51002 0.0
C86 C 0.91921 0.10338 0.49749 0.0
C87 C 0.94221 0.12273 0.50824 0.0
C88 C 0.97012 0.11219 0.52483 0.0
C89 C 0.97484 0.08286 0.5357 0.0
C90 C 0.97405 1.006 0.88288 0.0
C91 C 0.02427 0.07844 0.79842 0.0
O92 O 0.06305 1.01348 0.96574 0.0
O93 O 0.08938 0.98983 0.86653 0.0
O94 O 0.04154 0.02354 0.66101 0.0
O95 O 0.08439 0.02193 0.70973 0.0
O96 O 1.00234 0.97064 0.66614 0.0
O97 O 0.03624 0.96221 0.77903 0.0
O98 O 0.98048 0.02213 0.55073 0.0
O99 O 0.94874 0.03275 0.65637 0.0
O100 O 1.00038 1.00782 0.85801 0.0
O101 O 0.95747 1.0087 0.81173 0.0
O102 O 0.04219 0.06071 0.84203 0.0
O103 O 1.00497 0.06833 0.73912 0.0
H104 H 0.12534 0.95908 0.02563 0.0
H105 H 0.11872 0.90818 0.07404 0.0
H106 H 0.02688 0.91694 0.03226 0.0
H107 H 0.03316 0.96711 0.987 0.0
H108 H 0.90573 0.05906 0.50789 0.0
H109 H 0.89764 0.11123 0.48281 0.0
H110 H 0.98834 0.12674 0.53053 0.0
H111 H 0.99641 0.07547 0.55288 0.0
Pr112 Pr 0.52258 0.0485 0.81154 0.0
Pr113 Pr 0.51348 0.99114 0.70145 0.0
C114 C 0.5353 0.08548 0.946 0.0
C115 C 0.56213 0.08623 0.99828 0.0
C116 C 0.57638 0.11263 1.01022 0.0
C117 C 0.60616 0.11302 0.02558 0.0
C118 C 0.62163 0.087 0.02759 0.0
C119 C 0.60685 0.06066 0.02473 0.0
C120 C 0.5773 0.06025 1.01037 0.0
C121 C 0.5117 0.06457 0.62624 0.0
C122 C 0.58153 1.0144 0.72247 0.0
C123 C 0.49953 0.95411 0.56874 0.0
C124 C 0.47143 0.9509 0.52459 0.0
C125 C 0.45918 0.92337 0.51823 0.0
C126 C 0.42982 0.92037 0.49932 0.0
C127 C 0.4124 0.94496 0.48926 0.0
C128 C 0.42487 0.97248 0.49214 0.0
C129 C 0.45421 0.97546 0.50943 0.0
C130 C 0.52456 0.97493 0.88651 0.0
C131 C 0.45463 0.02472 0.79148 0.0
O132 O 0.51871 0.06295 0.96021 0.0
O133 O 0.53909 0.09157 0.85844 0.0
O134 O 0.51261 0.03893 0.65812 0.0
O135 O 0.51471 0.0827 0.69285 0.0
O136 O 0.56374 0.99638 0.68079 0.0
O137 O 0.57151 0.03457 0.7792 0.0
O138 O 0.51361 0.97808 0.55106 0.0
O139 O 0.49923 0.94709 0.65634 0.0
O140 O 0.52366 1.00065 0.85499 0.0
O141 O 0.52006 0.95688 0.82061 0.0
O142 O 0.47242 0.04257 0.83373 0.0
O143 O 0.4646 1.00493 0.73355 0.0
H144 H 0.56502 0.13284 0.99944 0.0
H145 H 0.61733 0.13351 0.02909 0.0
H146 H 0.61844 0.04034 0.02844 0.0
H147 H 0.56689 0.03959 1.00001 0.0
H148 H 0.47189 0.90432 0.53383 0.0
H149 H 0.42046 0.89898 0.49717 0.0
H150 H 0.41176 0.9917 0.48312 0.0
H151 H 0.463 0.99698 0.51646 0.0
Pr152 Pr 0.49378 0.51841 0.79236 0.0
Pr153 Pr 0.5424 0.51401 0.69576 0.0
C154 C 0.45064 0.53247 0.90804 0.0
C155 C 0.44897 0.55735 0.96835 0.0
C156 C 0.42239 0.57052 0.98661 0.0
C157 C 0.42168 0.59791 0.02583 0.0
C158 C 0.44759 0.61227 0.04628 0.0
C159 C 0.47407 0.59815 0.0324 0.0
C160 C 0.47474 0.57091 0.99388 0.0
C161 C 0.47869 0.50319 0.60945 0.0
C162 C 0.52164 0.58015 0.70981 0.0
C163 C 0.58631 0.49968 0.58334 0.0
C164 C 0.5903 0.47283 0.53318 0.0
C165 C 0.61728 0.45899 0.53321 0.0
C166 C 0.61934 0.43006 0.50757 0.0
C167 C 0.59437 0.41514 0.48222 0.0
C168 C 0.56782 0.42948 0.47672 0.0
C169 C 0.56575 0.45813 0.50217 0.0
C170 C 0.55713 0.53047 0.87767 0.0
C171 C 0.51452 0.45205 0.77774 0.0
O172 O 0.47056 0.51364 0.92935 0.0
O173 O 0.45036 0.53902 0.82021 0.0
O174 O 0.4971 0.52229 0.63045 0.0
O175 O 0.46944 0.49018 0.6834 0.0
O176 O 0.53612 0.56265 0.6561 0.0
O177 O 0.50637 0.56869 0.77835 0.0
O178 O 0.56471 0.51579 0.55646 0.0
O179 O 0.58749 0.49663 0.67286 0.0
O180 O 0.53909 0.51088 0.8577 0.0
O181 O 0.5662 0.54321 0.80299 0.0
O182 O 0.49913 0.46941 0.82924 0.0
O183 O 0.53073 0.46358 0.71167 0.0
H184 H 0.40237 0.56033 0.96631 0.0
H185 H 0.401 0.60825 0.03715 0.0
H186 H 0.4944 0.6088 0.04609 0.0
H187 H 0.49553 0.56124 0.97872 0.0
H188 H 0.63629 0.46999 0.55833 0.0
H189 H 0.63994 0.41903 0.51178 0.0
H190 H 0.54839 0.41803 0.45732 0.0
H191 H 0.54458 0.46813 0.50342 0.0
Pr192 Pr 1.01367 0.49397 0.79511 0.0
Pr193 Pr 0.02049 0.54151 0.68737 0.0
C194 C 0.9974 0.45338 0.91902 0.0
C195 C 0.96913 0.44762 0.95993 0.0
C196 C 0.96106 0.41941 0.98438 0.0
C197 C 0.93258 0.41362 1.01091 0.0
C198 C 0.91206 0.43593 1.01115 0.0
C199 C 0.92049 0.46424 0.98949 0.0
C200 C 0.94886 0.47007 0.9646 0.0
C201 C 0.02751 0.47645 0.61358 0.0
C202 C 0.95313 0.52384 0.70766 0.0
C203 C 0.0368 0.58189 0.56316 0.0
C204 C 0.06579 0.58769 0.52808 0.0
C205 C 0.07569 0.61614 0.5177 0.0
C206 C 0.10515 0.62143 0.5043 0.0
C207 C 0.12465 0.59826 0.50325 0.0
C208 C 0.1144 0.56986 0.5087 0.0
C209 C 0.08522 0.5646 0.52079 0.0
C210 C 1.00888 0.5593 0.87041 0.0
C211 C 0.08109 0.51188 0.77608 0.0
O212 O 1.0093 0.47774 0.94233 0.0
O213 O 0.99905 0.44859 0.83059 0.0
O214 O 1.00899 0.49569 0.6338 0.0
O215 O 0.0407 0.46751 0.68749 0.0
O216 O 0.97116 0.53818 0.6543 0.0
O217 O 0.96386 0.50765 0.77519 0.0
O218 O 0.02572 0.55715 0.53969 0.0
O219 O 0.03345 0.58729 0.65067 0.0
O220 O 0.0263 0.53934 0.84812 0.0
O221 O 0.99565 0.56906 0.79752 0.0
O222 O 0.06303 0.497 0.82796 0.0
O223 O 0.07045 0.5286 0.70957 0.0
H224 H 0.97651 0.40188 0.98066 0.0
H225 H 0.92639 0.39172 0.02876 0.0
H226 H 0.90507 0.48184 0.99168 0.0
H227 H 0.95476 0.49204 0.94679 0.0
H228 H 0.06089 0.63415 0.52391 0.0
H229 H 0.11281 0.64345 0.49822 0.0
H230 H 0.12909 0.55167 0.50518 0.0
H231 H 0.07811 0.54244 0.52874 0.0
H232 H 0.15154 0.99642 0.11194 0.0
H233 H 0.19098 0.07468 0.20614 0.0
H234 H 0.11313 1.00151 0.22657 0.0
H235 H 0.15224 0.08051 0.31924 0.0
H236 H 0.12011 0.04969 0.60466 0.0
H237 H 0.14601 0.05539 0.46048 0.0
H238 H 0.07252 0.02243 0.31227 0.0
H239 H 0.04621 0.0165 0.46017 0.0
C240 C 0.15097 1.01581 0.15295 0.0
C241 C 0.17444 0.03525 0.14855 0.0
C242 C 0.12904 0.01853 0.22029 0.0
C243 C 0.12981 0.04092 0.28543 0.0
C244 C 0.15119 0.0624 0.27276 0.0
C245 C 0.17316 0.05956 0.20572 0.0
C246 C 0.10907 0.04408 0.54146 0.0
C247 C 0.08089 0.03272 0.54489 0.0
C248 C 0.12401 0.0476 0.45773 0.0
C249 C 0.1116 0.03972 0.37295 0.0
C250 C 0.083 0.02882 0.37559 0.0
C251 C 0.06773 0.02561 0.46042 0.0
H252 H 0.55704 0.16793 0.1565 0.0
H253 H 0.46422 0.17078 0.14823 0.0
H254 H 0.55509 0.12679 0.26301 0.0
H255 H 0.46199 0.12913 0.25304 0.0
H256 H 0.47131 0.10178 0.56249 0.0
H257 H 0.47026 0.12766 0.4154 0.0
H258 H 0.5439 0.0786 0.32202 0.0
H259 H 0.54456 0.05236 0.47114 0.0
C260 C 0.53616 0.15858 0.17252 0.0
C261 C 0.51078 0.17273 0.14236 0.0
C262 C 0.53499 0.13507 0.23528 0.0
C263 C 0.50834 0.1249 0.27001 0.0
C264 C 0.483 0.13673 0.23059 0.0
C265 C 0.48421 0.16026 0.16804 0.0
C266 C 0.48666 0.09575 0.5094 0.0
C267 C 0.50754 0.07447 0.52822 0.0
C268 C 0.48611 0.11068 0.42435 0.0
C269 C 0.5069 0.10542 0.35506 0.0
C270 C 0.52746 0.08343 0.37291 0.0
C271 C 0.52763 0.06802 0.45809 0.0
H272 H 0.37135 0.5505 0.13443 0.0
H273 H 0.35475 0.45987 0.17283 0.0
H274 H 0.41169 0.5475 0.24131 0.0
H275 H 0.3962 0.45611 0.27611 0.0
H276 H 0.4345 0.46708 0.56482 0.0
H277 H 0.40463 0.4667 0.42766 0.0
H278 H 0.45564 0.53587 0.30897 0.0
H279 H 0.48506 0.53676 0.44973 0.0
C280 C 0.37749 0.52943 0.16107 0.0
C281 C 0.35964 0.50539 0.14381 0.0
C282 C 0.4006 0.52773 0.22428 0.0
C283 C 0.40703 0.50174 0.27181 0.0
C284 C 0.39149 0.47691 0.24493 0.0
C285 C 0.36809 0.47876 0.18274 0.0
C286 C 0.43961 0.48211 0.50932 0.0
C287 C 0.46236 0.50195 0.51936 0.0
C288 C 0.42248 0.48172 0.42917 0.0
C289 C 0.42738 0.50107 0.35465 0.0
C290 C 0.45064 0.52067 0.364 0.0
C291 C 0.46781 0.5211 0.44492 0.0
H292 H 0.07994 0.36017 0.16705 0.0
H293 H 0.98718 0.36203 0.15326 0.0
H294 H 0.07914 0.40155 0.26999 0.0
H295 H 0.98599 0.40243 0.25959 0.0
H296 H 0.99112 0.47885 0.46013 0.0
H297 H 0.99325 0.44924 0.32025 0.0
H298 H 0.0693 0.40645 0.42674 0.0
H299 H 0.06733 0.43614 0.56369 0.0
C300 C 0.05939 0.37033 0.18195 0.0
C301 C 0.0337 0.35773 0.14998 0.0
C302 C 0.05878 0.39365 0.24393 0.0
C303 C 0.03242 0.40506 0.27739 0.0
C304 C 1.00684 0.39458 0.23692 0.0
C305 C 1.00751 0.37151 0.17398 0.0
C306 C 1.00851 0.46338 0.45285 0.0
C307 C 0.02912 0.46013 0.52385 0.0
C308 C 1.00967 0.44614 0.3725 0.0
C309 C 0.03166 0.42523 0.35999 0.0
C310 C 0.05237 0.42251 0.43098 0.0
C311 C 0.05111 0.43953 0.51088 0.0
H312 H 0.86938 0.04586 0.35941 0.0
H313 H 0.8618 0.95357 0.34338 0.0
H314 H 0.91026 0.04485 0.25222 0.0
H315 H 0.90292 0.95228 0.23735 0.0
H316 H 0.93134 0.96912 0.93217 0.0
H317 H 0.90407 0.96641 0.07599 0.0
H318 H 0.95915 0.03139 0.19346 0.0
H319 H 0.98702 0.0336 0.04777 0.0
C320 C 0.87764 0.02508 0.33809 0.0
C321 C 0.86223 0.99973 0.36195 0.0
C322 C 0.90094 0.02453 0.27471 0.0
C323 C 0.90968 0.99855 0.23292 0.0
C324 C 0.89654 0.97287 0.26559 0.0
C325 C 0.8733 0.97346 0.32893 0.0
C326 C 0.93829 0.98223 0.98951 0.0
C327 C 0.96189 1.00106 0.9784 0.0
C328 C 0.92255 0.98068 0.07272 0.0
C329 C 0.92924 0.99847 0.14816 0.0
C330 C 0.95322 0.01719 0.13772 0.0
C331 C 0.9695 0.01824 0.0544 0.0
H332 H 0.48862 0.88078 0.40088 0.0
H333 H 0.56645 0.84532 0.28635 0.0
H334 H 0.49288 0.92293 0.29941 0.0
H335 H 0.57047 0.88679 0.18138 0.0
H336 H 0.57319 0.96479 0.99055 0.0
H337 H 0.57634 0.93587 0.13349 0.0
H338 H 0.48328 0.92992 0.14096 0.0
H339 H 0.48051 0.95903 0.99991 0.0
C340 C 0.5077 0.88289 0.3581 0.0
C341 C 0.52769 0.85996 0.3548 0.0
C342 C 0.5097 0.9067 0.29707 0.0
C343 C 0.53165 0.90834 0.22933 0.0
C344 C 0.55324 0.88673 0.23208 0.0
C345 C 0.55123 0.86293 0.29363 0.0
C346 C 0.55343 0.95825 0.02509 0.0
C347 C 0.52656 0.96504 0.98511 0.0
C348 C 0.55519 0.94118 0.10651 0.0
C349 C 0.5301 0.93015 0.1502 0.0
C350 C 0.5032 0.93818 0.11174 0.0
C351 C 0.50152 0.9551 0.03045 0.0
H352 H 0.65339 0.48579 0.37966 0.0
H353 H 0.6886 0.5681 0.29856 0.0
H354 H 0.61472 0.49151 0.26847 0.0
H355 H 0.64868 0.57526 0.19098 0.0
H356 H 0.60592 0.5615 0.91164 0.0
H357 H 0.63567 0.56233 0.0484 0.0
H358 H 0.57521 0.5057 0.18864 0.0
H359 H 0.54622 0.5037 0.04755 0.0
C360 C 0.65185 0.50604 0.34185 0.0
C361 C 0.67429 0.5265 0.34906 0.0
C362 C 0.62961 0.50927 0.27625 0.0
C363 C 0.62856 0.53343 0.21598 0.0
C364 C 0.64903 0.55559 0.23184 0.0
C365 C 0.67167 0.55202 0.29634 0.0
C366 C 0.59878 0.54928 0.97169 0.0
C367 C 0.57356 0.53238 0.96737 0.0
C368 C 0.61589 0.55 0.0518 0.0
C369 C 0.60839 0.53423 0.13247 0.0
C370 C 0.5825 0.51791 0.12889 0.0
C371 C 0.56553 0.51687 0.04765 0.0
H372 H 0.97782 0.65186 0.38539 0.0
H373 H 0.04816 0.69835 0.25867 0.0
H374 H 0.98335 0.61336 0.27165 0.0
H375 H 0.05338 0.66033 0.14377 0.0
H376 H 1.01479 0.61777 0.8779 0.0
H377 H 0.01937 0.64862 1.01285 0.0
H378 H 1.01437 0.57377 0.1919 0.0
H379 H 1.01078 0.54257 0.05513 0.0
C380 C 0.99557 0.65311 0.3366 0.0
C381 C 1.01305 0.67804 0.33346 0.0
C382 C 0.99846 0.63117 0.27006 0.0
C383 C 0.01847 0.63378 0.19675 0.0
C384 C 0.03747 0.65757 0.19814 0.0
C385 C 0.03494 0.67917 0.26563 0.0
C386 C 1.01485 0.60777 0.94592 0.0
C387 C 1.01232 0.57758 0.95515 0.0
C388 C 0.01771 0.62552 0.02371 0.0
C389 C 0.0174 0.61391 0.1142 0.0
C390 C 1.01474 0.58363 0.1237 0.0
C391 C 1.01273 0.56569 0.04524 0.0
H392 H 0.96513 0.28411 0.23474 0.0
H393 H 0.04159 0.24664 0.35638 0.0
H394 H 0.93471 0.25438 0.33587 0.0
H395 H 1.01131 0.21696 0.45876 0.0
H396 H 0.95777 0.16435 0.62836 0.0
H397 H 0.97099 0.21348 0.58253 0.0
H398 H 0.93284 0.19983 0.31439 0.0
H399 H 0.91991 0.15085 0.36009 0.0
C400 C 0.97524 0.27017 0.28589 0.0
C401 C 1.00534 0.2672 0.28883 0.0
C402 C 0.95796 0.25336 0.34353 0.0
C403 C 0.9707 0.23361 0.40496 0.0
C404 C 1.001 0.23245 0.41289 0.0
C405 C 0.01832 0.24907 0.35422 0.0
C406 C 0.95099 0.1725 0.56136 0.0
C407 C 0.93847 0.15396 0.49662 0.0
C408 C 0.95857 0.20046 0.53529 0.0
C409 C 0.95339 0.21003 0.44471 0.0
C410 C 0.93693 0.19293 0.38495 0.0
C411 C 0.92948 0.1649 0.41091 0.0
H412 H 0.25106 0.93515 0.20952 0.0
H413 H 0.2646 0.0198 0.32171 0.0
H414 H 0.28476 0.91467 0.32299 0.0
H415 H 0.29934 1.00035 0.43021 0.0
H416 H 0.36973 0.96968 0.59033 0.0
H417 H 0.31869 0.97272 0.54974 0.0
H418 H 0.33496 0.9185 0.31321 0.0
H419 H 0.38525 0.91438 0.35748 0.0
C420 C 0.26075 0.94908 0.26043 0.0
C421 C 0.25588 0.97884 0.25756 0.0
C422 C 0.28007 0.93755 0.32481 0.0
C423 C 0.29534 0.95592 0.38424 0.0
C424 C 0.28794 0.98537 0.38659 0.0
C425 C 0.26824 0.99668 0.32385 0.0
C426 C 0.36195 0.95779 0.53135 0.0
C427 C 0.38117 0.94226 0.47559 0.0
C428 C 0.33284 0.95949 0.50805 0.0
C429 C 0.32277 0.94637 0.4271 0.0
C430 C 0.3417 0.92867 0.37655 0.0
C431 C 0.37066 0.92651 0.40107 0.0
H432 H 0.49319 0.29682 0.28568 0.0
H433 H 0.56634 0.23917 0.3059 0.0
H434 H 0.51799 0.33121 0.38483 0.0
H435 H 0.59126 0.2739 0.40371 0.0
H436 H 0.58145 0.37435 0.60917 0.0
H437 H 0.5633 0.32595 0.57375 0.0
H438 H 0.58693 0.33896 0.28767 0.0
H439 H 0.60432 0.38749 0.32264 0.0
C440 C 0.51397 0.29104 0.31484 0.0
C441 C 0.52814 0.26575 0.28797 0.0
C442 C 0.52803 0.31053 0.37148 0.0
C443 C 0.55633 0.30485 0.40077 0.0
C444 C 0.56928 0.27828 0.38218 0.0
C445 C 0.55505 0.25857 0.32651 0.0
C446 C 0.584 0.36613 0.53984 0.0
C447 C 0.59445 0.38406 0.46842 0.0
C448 C 0.5736 0.33871 0.51982 0.0
C449 C 0.57407 0.32916 0.42858 0.0
C450 C 0.58697 0.34605 0.35882 0.0
C451 C 0.59703 0.37355 0.37862 0.0
H452 H 0.28685 0.587 0.22833 0.0
H453 H 0.2517 0.50686 0.33245 0.0
H454 H 0.25637 0.61392 0.33631 0.0
H455 H 0.22137 0.5334 0.44063 0.0
H456 H 0.16649 0.57935 0.61883 0.0
H457 H 0.21618 0.56917 0.57236 0.0
H458 H 0.2018 0.61537 0.31545 0.0
H459 H 0.15225 0.62534 0.36216 0.0
C460 C 0.27321 0.57529 0.27676 0.0
C461 C 0.27102 0.54521 0.27285 0.0
C462 C 0.256 0.59055 0.33835 0.0
C463 C 0.23668 0.57572 0.39657 0.0
C464 C 0.23646 0.54534 0.39754 0.0
C465 C 0.25345 0.53015 0.33534 0.0
C466 C 0.17457 0.58847 0.55456 0.0
C467 C 0.15579 0.60262 0.49295 0.0
C468 C 0.20287 0.58268 0.5281 0.0
C469 C 0.21251 0.5911 0.43996 0.0
C470 C 0.19491 0.60883 0.38416 0.0
C471 C 0.16655 0.61454 0.41061 0.0
H472 H 1.00913 0.73579 0.16248 0.0
H473 H 0.9523 0.80182 0.26971 0.0
H474 H 0.03709 0.77228 0.08237 0.0
H475 H 0.9814 0.83842 0.19077 0.0
H476 H 0.06841 0.88419 0.2233 0.0
H477 H 0.03988 0.84092 0.25752 0.0
H478 H 0.03352 0.82342 0.9659 0.0
H479 H 0.06187 0.86702 0.9317 0.0
C480 C 1.00147 0.75784 0.16554 0.0
C481 C 0.9793 0.76606 0.22747 0.0
C482 C 0.01795 0.77876 0.12012 0.0
C483 C 1.01199 0.80788 0.13457 0.0
C484 C 0.9867 0.81586 0.18148 0.0
C485 C 0.9699 0.7949 0.22568 0.0
C486 C 0.06206 0.87031 0.16711 0.0
C487 C 0.06718 0.87857 0.07528 0.0
C488 C 0.04538 0.84601 0.18631 0.0
C489 C 0.03392 0.82977 0.11372 0.0
C490 C 0.0419 0.83605 0.02236 0.0
C491 C 0.05836 0.86059 1.00309 0.0
H492 H 0.79409 0.0653 0.22573 0.0
H493 H 0.74532 0.98726 0.18445 0.0
H494 H 0.76172 0.09153 0.12105 0.0
H495 H 0.71338 1.01313 0.07801 0.0
H496 H 0.65644 0.06061 0.90476 0.0
H497 H 0.7066 0.04662 0.93066 0.0
H498 H 0.7077 0.0977 0.17856 0.0
H499 H 0.65745 0.11153 0.15247 0.0
C500 C 0.77722 0.05358 0.19049 0.0
C501 C 0.77171 0.02457 0.21243 0.0
C502 C 0.75888 0.0685 0.13088 0.0
C503 C 0.73527 0.05428 0.09197 0.0
C504 C 0.73175 0.02442 0.1064 0.0
C505 C 0.74975 1.00966 0.16746 0.0
C506 C 0.66788 0.0697 0.96258 0.0
C507 C 0.65326 0.08651 0.02799 0.0
C508 C 0.69649 0.06187 0.97693 0.0
C509 C 0.71067 0.07091 0.05677 0.0
C510 C 0.69718 0.09075 0.11585 0.0
C511 C 0.66846 0.09852 0.10149 0.0
H512 H 0.50942 0.77875 0.16507 0.0
H513 H 0.43154 0.77004 0.32749 0.0
H514 H 0.49448 0.73826 0.07 0.0
H515 H 0.41622 0.72993 0.2304 0.0
H516 H 0.41455 0.65647 0.97768 0.0
H517 H 0.41779 0.70777 0.01747 0.0
H518 H 0.48505 0.68775 0.21366 0.0
H519 H 0.48117 0.63667 0.17779 0.0
C520 C 0.48822 0.76939 0.17624 0.0
C521 C 0.47155 0.77708 0.2532 0.0
C522 C 0.47974 0.74634 0.12201 0.0
C523 C 0.45431 0.73135 0.1437 0.0
C524 C 0.43572 0.74164 0.21242 0.0
C525 C 0.44445 0.7644 0.26777 0.0
C526 C 0.4296 0.66301 0.03058 0.0
C527 C 0.44757 0.64265 0.07499 0.0
C528 C 0.43166 0.69224 0.05203 0.0
C529 C 0.45194 0.70122 0.11694 0.0
C530 C 0.4696 0.68099 0.16205 0.0
C531 C 0.46732 0.6519 0.14174 0.0
H532 H 0.75744 0.50227 0.16739 0.0
H533 H 0.76 0.42719 0.34568 0.0
H534 H 0.79333 0.48098 0.06725 0.0
H535 H 0.79469 0.40436 0.24156 0.0
H536 H 0.89262 0.41253 0.17126 0.0
H537 H 0.8436 0.41478 0.23015 0.0
H538 H 0.81451 0.44886 0.96637 0.0
H539 H 0.86424 0.44816 0.91026 0.0
C540 C 0.76475 0.48046 0.1821 0.0
C541 C 0.7565 0.4663 0.26384 0.0
C542 C 0.78523 0.46806 0.12444 0.0
C543 C 0.79742 0.44106 0.14721 0.0
C544 C 0.78634 0.42551 0.22354 0.0
C545 C 0.76636 0.43832 0.28263 0.0
C546 C 0.87551 0.41964 0.12537 0.0
C547 C 0.88194 0.43047 0.03716 0.0
C548 C 0.84729 0.42076 0.15858 0.0
C549 C 0.82501 0.43236 0.10337 0.0
C550 C 0.83121 0.44042 1.01143 0.0
C551 C 0.85956 0.43987 0.97903 0.0
H552 H 0.08028 0.2521 0.97188 0.0
H553 H 0.98773 0.25784 0.95669 0.0
H554 H 0.0788 0.20535 0.89523 0.0
H555 H 0.98581 0.21073 0.88353 0.0
H556 H 0.98903 0.12348 0.73611 0.0
H557 H 0.99259 0.17507 0.77021 0.0
H558 H 0.06768 0.15805 0.9384 0.0
H559 H 0.06441 0.10709 0.90306 0.0
C560 C 0.05966 0.24408 0.9482 0.0
C561 C 0.03422 0.25944 0.96894 0.0
C562 C 0.05863 0.21665 0.90635 0.0
C563 C 0.03206 0.20321 0.88486 0.0
C564 C 1.00681 0.21981 0.89811 0.0
C565 C 1.0079 0.24732 0.93922 0.0
C566 C 1.00642 0.13074 0.78 0.0
C567 C 0.02631 0.11058 0.81691 0.0
C568 C 1.00843 0.16056 0.80008 0.0
C569 C 0.03055 0.17148 0.85737 0.0
C570 C 0.0506 0.15121 0.89276 0.0
C571 C 0.04851 0.12154 0.8731 0.0
H572 H 0.28266 0.06997 0.02088 0.0
H573 H 0.27095 0.98674 0.89825 0.0
H574 H 0.33035 0.07378 0.94884 0.0
H575 H 0.31888 0.98944 0.83001 0.0
H576 H 0.40822 0.999 0.70217 0.0
H577 H 0.35673 1.00268 0.73818 0.0
H578 H 0.37663 0.05844 0.96672 0.0
H579 H 0.42749 0.05577 0.92767 0.0
C580 C 0.28974 0.05296 0.97531 0.0
C581 C 0.27239 0.02833 0.96423 0.0
C582 C 0.31771 0.05466 0.93574 0.0
C583 C 0.32968 0.03153 0.88481 0.0
C584 C 0.31119 1.00794 0.8678 0.0
C585 C 0.28321 1.00644 0.90651 0.0
C586 C 0.40159 1.01219 0.75982 0.0
C587 C 0.42251 0.02698 0.8118 0.0
C588 C 0.37176 1.01424 0.7812 0.0
C589 C 0.36158 0.0309 0.85625 0.0
C590 C 0.38271 0.04584 0.9073 0.0
C591 C 0.41237 0.04406 0.88525 0.0
H592 H 0.55646 0.27391 0.94254 0.0
H593 H 0.46379 0.27687 0.96016 0.0
H594 H 0.55679 0.32102 0.86476 0.0
H595 H 0.46377 0.32372 0.88076 0.0
H596 H 0.477 0.42235 0.89069 0.0
H597 H 0.47527 0.37116 0.92788 0.0
H598 H 0.5468 0.35599 0.74282 0.0
H599 H 0.54861 0.40791 0.70574 0.0
C600 C 0.53597 0.2838 0.92483 0.0
C601 C 0.51004 0.27091 0.95602 0.0
C602 C 0.53614 0.31125 0.88115 0.0
C603 C 0.51036 0.32704 0.86772 0.0
C604 C 0.48425 0.31292 0.89145 0.0
C605 C 0.48412 0.28548 0.93504 0.0
C606 C 0.49235 0.40824 0.85708 0.0
C607 C 0.51305 0.41975 0.79521 0.0
C608 C 0.49118 0.3785 0.87798 0.0
C609 C 0.51077 0.35877 0.83852 0.0
C610 C 0.53137 0.37019 0.77555 0.0
C611 C 0.53237 0.40011 0.75381 0.0
H612 H 0.25403 0.46183 0.9839 0.0
H613 H 0.25981 0.55288 0.92656 0.0
H614 H 0.20764 0.46014 0.90351 0.0
H615 H 0.21309 0.55182 0.84998 0.0
H616 H 0.12652 0.54422 0.70195 0.0
H617 H 0.17804 0.54139 0.74003 0.0
H618 H 0.16006 0.47203 0.93334 0.0
H619 H 0.10925 0.47443 0.89349 0.0
C620 C 0.24607 0.48129 0.95053 0.0
C621 C 0.26131 0.50734 0.96036 0.0
C622 C 0.21884 0.48058 0.90632 0.0
C623 C 0.20553 0.50603 0.87156 0.0
C624 C 0.22204 0.5316 0.87471 0.0
C625 C 0.24932 0.5322 0.91807 0.0
C626 C 0.13362 0.52816 0.75183 0.0
C627 C 0.11326 0.50967 0.79456 0.0
C628 C 0.16337 0.52661 0.77445 0.0
C629 C 0.17398 0.50644 0.84049 0.0
C630 C 0.15351 0.4876 0.88121 0.0
C631 C 0.12393 0.48919 0.85883 0.0
H632 H 0.04544 0.7893 0.42113 0.0
H633 H 0.98365 0.76701 0.63267 0.0
H634 H 0.0512 0.83714 0.4884 0.0
H635 H 0.99017 0.81474 0.70255 0.0
H636 H 0.02796 0.90399 0.82309 0.0
H637 H 0.02801 0.85288 0.77702 0.0
H638 H 1.013 0.87887 0.49431 0.0
H639 H 1.01174 0.92949 0.5406 0.0
C640 C 0.03437 0.79392 0.48538 0.0
C641 C 1.01482 0.77355 0.52285 0.0
C642 C 0.03719 0.82173 0.52301 0.0
C643 C 0.02099 0.83021 0.60083 0.0
C644 C 1.00318 0.80913 0.64307 0.0
C645 C 0.99979 0.78144 0.60384 0.0
C646 C 0.02463 0.89879 0.7511 0.0
C647 C 0.01982 0.92115 0.68575 0.0
C648 C 0.02459 0.8694 0.72467 0.0
C649 C 0.02076 0.86147 0.63148 0.0
C650 C 0.01631 0.88392 0.56643 0.0
C651 C 1.01543 0.91309 0.59319 0.0
H652 H 0.75543 0.95662 0.54309 0.0
H653 H 0.76063 0.04919 0.54783 0.0
H654 H 0.70871 0.95855 0.62208 0.0
H655 H 0.71355 0.05158 0.62298 0.0
H656 H 0.6265 0.0507 0.77294 0.0
H657 H 0.67807 0.04659 0.73645 0.0
H658 H 0.66105 0.9683 0.58708 0.0
H659 H 0.6102 0.97199 0.62645 0.0
C660 C 0.74727 0.97739 0.56481 0.0
C661 C 0.76258 1.00267 0.54092 0.0
C662 C 0.71982 0.97866 0.60804 0.0
C663 C 0.70624 1.00533 0.62769 0.0
C664 C 0.7227 0.03049 0.61031 0.0
C665 C 0.75021 0.02915 0.56788 0.0
C666 C 0.63385 0.03239 0.73342 0.0
C667 C 0.61371 1.01173 0.7032 0.0
C668 C 0.66364 0.03009 0.71145 0.0
C669 C 0.67456 1.00701 0.65814 0.0
C670 C 0.65429 0.98618 0.62945 0.0
C671 C 0.62466 0.98848 0.65145 0.0
H672 H 0.47944 0.763 0.61034 0.0
H673 H 0.56386 0.7538 0.4894 0.0
H674 H 0.48318 0.71495 0.67907 0.0
H675 H 0.56848 0.706 0.56123 0.0
H676 H 0.55028 0.60878 0.57048 0.0
H677 H 0.55197 0.65995 0.53488 0.0
H678 H 0.49902 0.67722 0.77429 0.0
H679 H 0.49664 0.62529 0.8082 0.0
C680 C 0.49957 0.75132 0.6026 0.0
C681 C 0.52151 0.76279 0.54499 0.0
C682 C 0.50165 0.72332 0.64148 0.0
C683 C 0.52584 0.70556 0.6245 0.0
C684 C 0.54898 0.71821 0.57418 0.0
C685 C 0.54677 0.7462 0.53472 0.0
C686 C 0.53901 0.62336 0.61618 0.0
C687 C 0.52318 0.61241 0.69223 0.0
C688 C 0.54025 0.65314 0.59611 0.0
C689 C 0.52583 0.67357 0.65139 0.0
C690 C 0.51026 0.66263 0.72867 0.0
C691 C 0.50895 0.63263 0.74867 0.0
H692 H 0.77001 0.48284 0.61501 0.0
H693 H 0.78078 0.56452 0.47534 0.0
H694 H 0.81772 0.48718 0.68286 0.0
H695 H 0.82819 0.57001 0.54697 0.0
H696 H 0.92544 0.55261 0.56657 0.0
H697 H 0.87449 0.55441 0.52947 0.0
H698 H 0.85548 0.50241 0.77178 0.0
H699 H 0.90713 0.49968 0.80637 0.0
C700 C 0.78198 0.5026 0.60274 0.0
C701 C 0.77104 0.52347 0.5401 0.0
C702 C 0.80983 0.50503 0.64126 0.0
C703 C 0.828 0.52861 0.6193 0.0
C704 C 0.81579 0.55089 0.56384 0.0
C705 C 0.78797 0.54825 0.52441 0.0
C706 C 0.9105 0.54157 0.61252 0.0
C707 C 0.92093 0.52585 0.68953 0.0
C708 C 0.8808 0.54287 0.59158 0.0
C709 C 0.8599 0.52871 0.64706 0.0
C710 C 0.87034 0.51339 0.72559 0.0
C711 C 0.90024 0.51192 0.74617 0.0
loop_
_geom_bond_atom_site_label_1
_geom_bond_atom_site_label_2
_geom_bond_distance
_geom_bond_site_symmetry_2
_ccdc_geom_bond_type
H0 C3 0.931 . S
H1 C6 0.928 . S
H2 C8 0.930 . S
C3 H0 0.931 . S
C3 C4 1.413 . S
C3 C5 1.360 . S
C4 C3 1.413 . S
C4 C8 1.429 . S
C5 C3 1.360 . S
C5 C6 1.372 . S
C6 H1 0.928 . S
C6 C5 1.372 . S
C6 C7 1.404 . S
C7 C6 1.404 . S
C7 C8 1.391 . S
C8 H2 0.930 . S
C8 C4 1.429 . S
C8 C7 1.391 . S
H9 C12 0.931 . S
H10 C15 0.928 . S
H11 C17 0.930 . S
C12 H9 0.931 . S
C12 C13 1.413 . S
C12 C14 1.360 . S
C13 C12 1.413 . S
C13 C17 1.429 1_655 S
C14 C12 1.360 . S
C14 C15 1.372 . S
C15 H10 0.928 . S
C15 C14 1.372 . S
C15 C16 1.404 . S
C16 C15 1.404 . S
C16 C17 1.390 1_655 S
C17 H11 0.930 . S
C17 C13 1.429 1_455 S
C17 C16 1.390 1_455 S
H18 C21 0.931 . S
H19 C24 0.928 . S
H20 C26 0.930 . S
C21 H18 0.931 . S
C21 C22 1.413 . S
C21 C23 1.360 . S
C22 C21 1.413 . S
C22 C26 1.429 1_565 S
C23 C21 1.360 . S
C23 C24 1.372 . S
C24 H19 0.928 . S
C24 C23 1.372 . S
C24 C25 1.404 . S
C25 C24 1.404 . S
C25 C26 1.390 1_565 S
C26 H20 0.930 . S
C26 C22 1.429 1_545 S
C26 C25 1.390 1_545 S
H27 C30 0.931 . S
H28 C33 0.928 . S
H29 C35 0.930 . S
C30 H27 0.931 . S
C30 C31 1.413 . S
C30 C32 1.360 . S
C31 C30 1.413 . S
C31 C35 1.429 . S
C32 C30 1.360 . S
C32 C33 1.372 . S
C33 H28 0.928 . S
C33 C32 1.372 . S
C33 C34 1.404 . S
C34 C33 1.404 . S
C34 C35 1.391 . S
C35 H29 0.930 . S
C35 C31 1.429 . S
C35 C34 1.391 . S
H36 C39 0.931 . S
H37 C42 0.928 . S
H38 C44 0.930 . S
C39 H36 0.931 . S
C39 C40 1.413 1_554 S
C39 C41 1.360 . S
C40 C39 1.413 1_556 S
C40 C44 1.429 . S
C41 C39 1.360 . S
C41 C42 1.372 . S
C42 H37 0.928 . S
C42 C41 1.372 . S
C42 C43 1.404 . S
C43 C42 1.404 . S
C43 C44 1.391 1_554 S
C44 H38 0.930 . S
C44 C40 1.429 . S
C44 C43 1.391 1_556 S
H45 C48 0.931 . S
H46 C51 0.928 . S
H47 C53 0.930 . S
C48 H45 0.931 . S
C48 C49 1.413 1_554 S
C48 C50 1.360 . S
C49 C48 1.413 1_556 S
C49 C53 1.429 1_655 S
C50 C48 1.360 . S
C50 C51 1.372 . S
C51 H46 0.928 . S
C51 C50 1.372 . S
C51 C52 1.404 . S
C52 C51 1.404 . S
C52 C53 1.391 1_654 S
C53 H47 0.930 . S
C53 C49 1.429 1_455 S
C53 C52 1.391 1_456 S
H54 C57 0.931 . S
H55 C60 0.928 . S
H56 C62 0.930 . S
C57 H54 0.931 . S
C57 C58 1.413 1_554 S
C57 C59 1.360 . S
C58 C57 1.413 1_556 S
C58 C62 1.429 1_565 S
C59 C57 1.360 . S
C59 C60 1.372 . S
C60 H55 0.928 . S
C60 C59 1.372 . S
C60 C61 1.404 . S
C61 C60 1.404 . S
C61 C62 1.391 1_564 S
C62 H56 0.930 . S
C62 C58 1.429 1_545 S
C62 C61 1.391 1_546 S
H63 C66 0.931 . S
H64 C69 0.928 . S
H65 C71 0.930 . S
C66 H63 0.931 . S
C66 C67 1.413 . S
C66 C68 1.360 1_554 S
C67 C66 1.413 . S
C67 C71 1.429 . S
C68 C66 1.360 1_556 S
C68 C69 1.372 . S
C69 H64 0.928 . S
C69 C68 1.372 . S
C69 C70 1.404 1_556 S
C70 C69 1.404 1_554 S
C70 C71 1.391 . S
C71 H65 0.930 . S
C71 C67 1.429 . S
C71 C70 1.391 . S
Pr72 C74 2.880 . S
Pr72 O92 2.562 . S
Pr72 O93 2.490 . S
Pr72 O94 2.695 1_565 S
Pr72 O95 2.512 . S
Pr72 O97 2.437 . S
Pr72 O100 2.436 1_455 S
Pr72 O102 2.438 1_565 S
Pr73 C83 2.880 . S
Pr73 O94 2.436 1_655 S
Pr73 O96 2.438 1_545 S
Pr73 O98 2.562 . S
Pr73 O99 2.490 . S
Pr73 O100 2.695 1_545 S
Pr73 O101 2.512 . S
Pr73 O103 2.437 . S
C74 Pr72 2.880 . S
C74 C75 1.491 . S
C74 O92 1.254 . S
C74 O93 1.225 . S
C75 C74 1.491 . S
C75 C76 1.392 . S
C75 C80 1.355 1_556 S
C76 C75 1.392 . S
C76 C77 1.368 1_556 S
C76 H104 0.929 . S
C77 C76 1.368 1_554 S
C77 C78 1.386 . S
C77 H105 0.929 . S
C78 C77 1.386 . S
C78 C79 1.373 . S
C79 C78 1.373 . S
C79 C80 1.410 . S
C79 H106 0.931 . S
C80 C75 1.355 1_554 S
C80 C79 1.410 . S
C80 H107 0.930 1_454 S
C81 O94 1.270 1_565 S
C81 O95 1.248 . S
C82 O96 1.267 . S
C82 O97 1.278 1_655 S
C83 Pr73 2.880 . S
C83 C84 1.491 . S
C83 O98 1.254 . S
C83 O99 1.225 . S
C84 C83 1.491 . S
C84 C85 1.392 . S
C84 C89 1.356 . S
C85 C84 1.392 . S
C85 C86 1.368 . S
C85 H108 0.929 . S
C86 C85 1.368 . S
C86 C87 1.386 . S
C86 H109 0.929 . S
C87 C86 1.386 . S
C87 C88 1.373 . S
C88 C87 1.373 . S
C88 C89 1.409 . S
C88 H110 0.931 . S
C89 C84 1.356 . S
C89 C88 1.409 . S
C89 H111 0.930 1_655 S
C90 O100 1.270 1_545 S
C90 O101 1.248 . S
C91 O102 1.267 . S
C91 O103 1.278 1_455 S
O92 Pr72 2.562 . S
O92 C74 1.254 . S
O93 Pr72 2.490 . S
O93 C74 1.225 . S
O94 Pr72 2.695 1_545 S
O94 Pr73 2.436 1_455 S
O94 C81 1.270 1_545 S
O95 Pr72 2.512 . S
O95 C81 1.248 . S
O96 Pr73 2.438 1_565 S
O96 C82 1.267 . S
O97 Pr72 2.437 . S
O97 C82 1.278 1_455 S
O98 Pr73 2.562 . S
O98 C83 1.254 . S
O99 Pr73 2.490 . S
O99 C83 1.225 . S
O100 Pr72 2.436 1_655 S
O100 Pr73 2.695 1_565 S
O100 C90 1.270 1_565 S
O101 Pr73 2.512 . S
O101 C90 1.248 . S
O102 Pr72 2.438 1_545 S
O102 C91 1.267 . S
O103 Pr73 2.437 . S
O103 C91 1.278 1_655 S
H104 C76 0.929 . S
H105 C77 0.929 . S
H106 C79 0.931 . S
H107 C80 0.930 1_656 S
H108 C85 0.929 . S
H109 C86 0.929 . S
H110 C88 0.931 . S
H111 C89 0.930 1_455 S
Pr112 C114 2.880 . S
Pr112 O132 2.562 . S
Pr112 O133 2.490 . S
Pr112 O134 2.695 . S
Pr112 O135 2.512 . S
Pr112 O137 2.437 . S
Pr112 O140 2.436 1_545 S
Pr112 O142 2.438 . S
Pr113 C123 2.880 . S
Pr113 O134 2.436 1_565 S
Pr113 O136 2.438 . S
Pr113 O138 2.562 . S
Pr113 O139 2.490 . S
Pr113 O140 2.695 . S
Pr113 O141 2.512 . S
Pr113 O143 2.437 . S
C114 Pr112 2.880 . S
C114 C115 1.491 . S
C114 O132 1.254 . S
C114 O133 1.225 . S
C115 C114 1.491 . S
C115 C116 1.392 . S
C115 C120 1.356 1_556 S
C116 C115 1.392 . S
C116 C117 1.368 1_556 S
C116 H144 0.929 . S
C117 C116 1.368 1_554 S
C117 C118 1.386 . S
C117 H145 0.929 . S
C118 C117 1.386 . S
C118 C119 1.373 . S
C119 C118 1.373 . S
C119 C120 1.409 . S
C119 H146 0.931 . S
C120 C115 1.356 1_554 S
C120 C119 1.409 . S
C120 H147 0.930 1_544 S
C121 O134 1.270 . S
C121 O135 1.248 . S
C122 O136 1.267 . S
C122 O137 1.278 1_565 S
C123 Pr113 2.880 . S
C123 C124 1.491 . S
C123 O138 1.254 . S
C123 O139 1.225 . S
C124 C123 1.491 . S
C124 C125 1.392 . S
C124 C129 1.356 . S
C125 C124 1.392 . S
C125 C126 1.368 . S
C125 H148 0.929 . S
C126 C125 1.368 . S
C126 C127 1.386 . S
C126 H149 0.929 . S
C127 C126 1.386 . S
C127 C128 1.373 . S
C128 C127 1.373 . S
C128 C129 1.409 . S
C128 H150 0.931 . S
C129 C124 1.356 . S
C129 C128 1.409 . S
C129 H151 0.930 1_565 S
C130 O140 1.270 . S
C130 O141 1.248 . S
C131 O142 1.267 . S
C131 O143 1.278 1_545 S
O132 Pr112 2.562 . S
O132 C114 1.254 . S
O133 Pr112 2.490 . S
O133 C114 1.225 . S
O134 Pr112 2.695 . S
O134 Pr113 2.436 1_545 S
O134 C121 1.270 . S
O135 Pr112 2.512 . S
O135 C121 1.248 . S
O136 Pr113 2.438 . S
O136 C122 1.267 . S
O137 Pr112 2.437 . S
O137 C122 1.278 1_545 S
O138 Pr113 2.562 . S
O138 C123 1.254 . S
O139 Pr113 2.490 . S
O139 C123 1.225 . S
O140 Pr112 2.436 1_565 S
O140 Pr113 2.695 . S
O140 C130 1.270 . S
O141 Pr113 2.512 . S
O141 C130 1.248 . S
O142 Pr112 2.438 . S
O142 C131 1.267 . S
O143 Pr113 2.437 . S
O143 C131 1.278 1_565 S
H144 C116 0.929 . S
H145 C117 0.929 . S
H146 C119 0.931 . S
H147 C120 0.930 1_566 S
H148 C125 0.929 . S
H149 C126 0.929 . S
H150 C128 0.931 . S
H151 C129 0.930 1_545 S
Pr152 C154 2.880 . S
Pr152 O172 2.562 . S
Pr152 O173 2.490 . S
Pr152 O174 2.695 . S
Pr152 O175 2.512 . S
Pr152 O177 2.437 . S
Pr152 O180 2.436 . S
Pr152 O182 2.438 . S
Pr153 C163 2.880 . S
Pr153 O174 2.436 . S
Pr153 O176 2.438 . S
Pr153 O178 2.562 . S
Pr153 O179 2.490 . S
Pr153 O180 2.695 . S
Pr153 O181 2.512 . S
Pr153 O183 2.437 . S
C154 Pr152 2.880 . S
C154 C155 1.491 . S
C154 O172 1.254 . S
C154 O173 1.225 . S
C155 C154 1.491 . S
C155 C156 1.392 . S
C155 C160 1.356 1_556 S
C156 C155 1.392 . S
C156 C157 1.368 1_556 S
C156 H184 0.929 . S
C157 C156 1.368 1_554 S
C157 C158 1.386 . S
C157 H185 0.929 . S
C158 C157 1.386 . S
C158 C159 1.373 . S
C159 C158 1.373 . S
C159 C160 1.409 . S
C159 H186 0.931 . S
C160 C155 1.356 1_554 S
C160 C159 1.409 . S
C160 H187 0.930 1_554 S
C161 O174 1.270 . S
C161 O175 1.248 . S
C162 O176 1.267 . S
C162 O177 1.278 . S
C163 Pr153 2.880 . S
C163 C164 1.491 . S
C163 O178 1.254 . S
C163 O179 1.225 . S
C164 C163 1.491 . S
C164 C165 1.392 . S
C164 C169 1.356 . S
C165 C164 1.392 . S
C165 C166 1.368 . S
C165 H188 0.929 . S
C166 C165 1.368 . S
C166 C167 1.386 . S
C166 H189 0.929 . S
C167 C166 1.386 . S
C167 C168 1.373 . S
C168 C167 1.373 . S
C168 C169 1.409 . S
C168 H190 0.931 . S
C169 C164 1.356 . S
C169 C168 1.409 . S
C169 H191 0.930 . S
C170 O180 1.270 . S
C170 O181 1.248 . S
C171 O182 1.267 . S
C171 O183 1.278 . S
O172 Pr152 2.562 . S
O172 C154 1.254 . S
O173 Pr152 2.490 . S
O173 C154 1.225 . S
O174 Pr152 2.695 . S
O174 Pr153 2.436 . S
O174 C161 1.270 . S
O175 Pr152 2.512 . S
O175 C161 1.248 . S
O176 Pr153 2.438 . S
O176 C162 1.267 . S
O177 Pr152 2.437 . S
O177 C162 1.278 . S
O178 Pr153 2.562 . S
O178 C163 1.254 . S
O179 Pr153 2.490 . S
O179 C163 1.225 . S
O180 Pr152 2.436 . S
O180 Pr153 2.695 . S
O180 C170 1.270 . S
O181 Pr153 2.512 . S
O181 C170 1.248 . S
O182 Pr152 2.438 . S
O182 C171 1.267 . S
O183 Pr153 2.437 . S
O183 C171 1.278 . S
H184 C156 0.929 . S
H185 C157 0.929 . S
H186 C159 0.931 . S
H187 C160 0.930 1_556 S
H188 C165 0.929 . S
H189 C166 0.929 . S
H190 C168 0.931 . S
H191 C169 0.930 . S
Pr192 C194 2.880 . S
Pr192 O212 2.562 . S
Pr192 O213 2.490 . S
Pr192 O214 2.695 1_655 S
Pr192 O215 2.512 . S
Pr192 O217 2.437 . S
Pr192 O220 2.436 . S
Pr192 O222 2.438 1_655 S
Pr193 C203 2.880 . S
Pr193 O214 2.436 . S
Pr193 O216 2.438 1_455 S
Pr193 O218 2.562 . S
Pr193 O219 2.490 . S
Pr193 O220 2.695 1_455 S
Pr193 O221 2.512 . S
Pr193 O223 2.437 . S
C194 Pr192 2.880 . S
C194 C195 1.491 . S
C194 O212 1.254 . S
C194 O213 1.225 . S
C195 C194 1.491 . S
C195 C196 1.392 . S
C195 C200 1.356 1_556 S
C196 C195 1.392 . S
C196 C197 1.368 1_556 S
C196 H224 0.929 . S
C197 C196 1.368 1_554 S
C197 C198 1.386 . S
C197 H225 0.929 . S
C198 C197 1.386 . S
C198 C199 1.373 . S
C199 C198 1.373 . S
C199 C200 1.409 . S
C199 H226 0.931 . S
C200 C195 1.356 1_554 S
C200 C199 1.409 . S
C200 H227 0.930 1_554 S
C201 O214 1.265 1_655 S
C201 O215 1.256 . S
C202 O216 1.267 . S
C202 O217 1.278 . S
C203 Pr193 2.880 . S
C203 C204 1.491 . S
C203 O218 1.254 . S
C203 O219 1.225 . S
C204 C203 1.491 . S
C204 C205 1.392 . S
C204 C209 1.356 . S
C205 C204 1.392 . S
C205 C206 1.368 . S
C205 H228 0.929 . S
C206 C205 1.368 . S
C206 C207 1.386 . S
C206 H229 0.929 . S
C207 C206 1.386 . S
C207 C208 1.373 . S
C208 C207 1.373 . S
C208 C209 1.409 . S
C208 H230 0.931 . S
C209 C204 1.356 . S
C209 C208 1.409 . S
C209 H231 0.930 . S
C210 O220 1.263 1_455 S
C210 O221 1.261 . S
C211 O222 1.267 . S
C211 O223 1.278 . S
O212 Pr192 2.562 . S
O212 C194 1.254 . S
O213 Pr192 2.490 . S
O213 C194 1.225 . S
O214 Pr192 2.695 1_455 S
O214 Pr193 2.436 . S
O214 C201 1.265 1_455 S
O215 Pr192 2.512 . S
O215 C201 1.256 . S
O216 Pr193 2.438 1_655 S
O216 C202 1.267 . S
O217 Pr192 2.437 . S
O217 C202 1.278 . S
O218 Pr193 2.562 . S
O218 C203 1.254 . S
O219 Pr193 2.490 . S
O219 C203 1.225 . S
O220 Pr192 2.436 . S
O220 Pr193 2.695 1_655 S
O220 C210 1.263 1_655 S
O221 Pr193 2.512 . S
O221 C210 1.261 . S
O222 Pr192 2.438 1_455 S
O222 C211 1.267 . S
O223 Pr193 2.437 . S
O223 C211 1.278 . S
H224 C196 0.929 . S
H225 C197 0.929 . S
H226 C199 0.931 . S
H227 C200 0.930 1_556 S
H228 C205 0.929 . S
H229 C206 0.929 . S
H230 C208 0.931 . S
H231 C209 0.930 . S
H232 C240 0.950 . S
H233 C245 0.950 . S
H234 C242 0.950 . S
H235 C244 0.950 . S
H236 C246 0.950 . S
H237 C248 0.950 . S
H238 C250 0.950 . S
H239 C251 0.950 . S
C240 H232 0.950 . S
C240 C241 1.393 . S
C240 C242 1.391 . S
C241 C240 1.393 . S
C241 C245 1.386 1_565 S
C242 H234 0.950 . S
C242 C240 1.391 . S
C242 C243 1.397 1_565 S
C243 C242 1.397 1_545 S
C243 C244 1.401 . S
C243 C249 1.490 . S
C244 H235 0.950 . S
C244 C243 1.401 . S
C244 C245 1.391 . S
C245 H233 0.950 . S
C245 C241 1.386 1_545 S
C245 C244 1.391 . S
C246 H236 0.950 . S
C246 C247 1.386 . S
C246 C248 1.391 . S
C247 C246 1.386 . S
C247 C251 1.393 1_545 S
C248 H237 0.950 . S
C248 C246 1.391 . S
C248 C249 1.427 . S
C249 C243 1.490 . S
C249 C248 1.427 . S
C249 C250 1.373 1_545 S
C250 H238 0.950 . S
C250 C249 1.373 1_565 S
C250 C251 1.391 . S
C251 H239 0.950 . S
C251 C247 1.393 1_565 S
C251 C250 1.391 . S
H252 C260 0.950 . S
H253 C265 0.950 . S
H254 C262 0.950 . S
H255 C264 0.950 . S
H256 C266 0.950 . S
H257 C268 0.950 . S
H258 C270 0.950 . S
H259 C271 0.950 . S
C260 H252 0.950 . S
C260 C261 1.386 . S
C260 C262 1.391 . S
C261 C260 1.386 . S
C261 C265 1.393 . S
C262 H254 0.950 . S
C262 C260 1.391 . S
C262 C263 1.400 . S
C263 C262 1.400 . S
C263 C264 1.398 . S
C263 C269 1.491 . S
C264 H255 0.950 . S
C264 C263 1.398 . S
C264 C265 1.391 . S
C265 H253 0.950 . S
C265 C261 1.393 . S
C265 C264 1.391 . S
C266 H256 0.950 . S
C266 C267 1.386 . S
C266 C268 1.391 . S
C267 C266 1.386 . S
C267 C271 1.393 . S
C268 H257 0.950 . S
C268 C266 1.391 . S
C268 C269 1.400 . S
C269 C263 1.491 . S
C269 C268 1.400 . S
C269 C270 1.398 . S
C270 H258 0.950 . S
C270 C269 1.398 . S
C270 C271 1.391 . S
C271 H259 0.950 . S
C271 C267 1.393 . S
C271 C270 1.391 . S
H272 C280 0.950 . S
H273 C285 0.950 . S
H274 C282 0.950 . S
H275 C284 0.950 . S
H276 C286 0.950 . S
H277 C288 0.950 . S
H278 C290 0.950 . S
H279 C291 0.950 . S
C280 H272 0.950 . S
C280 C281 1.386 . S
C280 C282 1.391 . S
C281 C280 1.386 . S
C281 C285 1.393 . S
C282 H274 0.950 . S
C282 C280 1.391 . S
C282 C283 1.400 . S
C283 C282 1.400 . S
C283 C284 1.398 . S
C283 C289 1.491 . S
C284 H275 0.950 . S
C284 C283 1.398 . S
C284 C285 1.391 . S
C285 H273 0.950 . S
C285 C281 1.393 . S
C285 C284 1.391 . S
C286 H276 0.950 . S
C286 C287 1.386 . S
C286 C288 1.391 . S
C287 C286 1.386 . S
C287 C291 1.393 . S
C288 H277 0.950 . S
C288 C286 1.391 . S
C288 C289 1.400 . S
C289 C283 1.491 . S
C289 C288 1.400 . S
C289 C290 1.398 . S
C290 H278 0.950 . S
C290 C289 1.398 . S
C290 C291 1.391 . S
C291 H279 0.950 . S
C291 C287 1.393 . S
C291 C290 1.391 . S
H292 C300 0.950 . S
H293 C305 0.950 . S
H294 C302 0.950 . S
H295 C304 0.950 . S
H296 C306 0.950 . S
H297 C308 0.950 . S
H298 C310 0.950 . S
H299 C311 0.950 . S
C300 H292 0.950 . S
C300 C301 1.411 . S
C300 C302 1.391 . S
C301 C300 1.411 . S
C301 C305 1.369 1_455 S
C302 H294 0.950 . S
C302 C300 1.391 . S
C302 C303 1.400 . S
C303 C302 1.400 . S
C303 C304 1.398 1_455 S
C303 C309 1.491 . S
C304 H295 0.950 . S
C304 C303 1.398 1_655 S
C304 C305 1.391 . S
C305 H293 0.950 . S
C305 C301 1.369 1_655 S
C305 C304 1.391 . S
C306 H296 0.950 . S
C306 C307 1.386 1_655 S
C306 C308 1.391 . S
C307 C306 1.386 1_455 S
C307 C311 1.393 . S
C308 H297 0.950 . S
C308 C306 1.391 . S
C308 C309 1.400 1_655 S
C309 C303 1.491 . S
C309 C308 1.400 1_455 S
C309 C310 1.398 . S
C310 H298 0.950 . S
C310 C309 1.398 . S
C310 C311 1.391 . S
C311 H299 0.950 . S
C311 C307 1.393 . S
C311 C310 1.391 . S
H312 C320 0.950 . S
H313 C325 0.950 . S
H314 C322 0.950 . S
H315 C324 0.950 . S
H316 C326 0.950 . S
H317 C328 0.950 . S
H318 C330 0.950 . S
H319 C331 0.950 . S
C320 H312 0.950 . S
C320 C321 1.368 1_545 S
C320 C322 1.391 . S
C321 C320 1.368 1_565 S
C321 C325 1.411 . S
C322 H314 0.950 . S
C322 C320 1.391 . S
C322 C323 1.383 1_545 S
C323 C322 1.383 1_565 S
C323 C324 1.416 . S
C323 C329 1.491 . S
C324 H315 0.950 . S
C324 C323 1.416 . S
C324 C325 1.391 . S
C325 H313 0.950 . S
C325 C321 1.411 . S
C325 C324 1.391 . S
C326 H316 0.950 . S
C326 C327 1.387 . S
C326 C328 1.391 1_556 S
C327 C326 1.387 . S
C327 C331 1.392 1_565 S
C328 H317 0.950 . S
C328 C326 1.391 1_554 S
C328 C329 1.402 . S
C329 C323 1.491 . S
C329 C328 1.402 . S
C329 C330 1.397 1_565 S
C330 H318 0.950 . S
C330 C329 1.397 1_545 S
C330 C331 1.391 1_554 S
C331 H319 0.950 . S
C331 C327 1.392 1_545 S
C331 C330 1.391 1_556 S
H332 C340 0.950 . S
H333 C345 0.950 . S
H334 C342 0.950 . S
H335 C344 0.950 . S
H336 C346 0.950 . S
H337 C348 0.950 . S
H338 C350 0.950 . S
H339 C351 0.950 . S
C340 H332 0.950 . S
C340 C341 1.386 . S
C340 C342 1.391 . S
C341 C340 1.386 . S
C341 C345 1.393 . S
C342 H334 0.950 . S
C342 C340 1.391 . S
C342 C343 1.400 . S
C343 C342 1.400 . S
C343 C344 1.398 . S
C343 C349 1.491 . S
C344 H335 0.950 . S
C344 C343 1.398 . S
C344 C345 1.391 . S
C345 H333 0.950 . S
C345 C341 1.393 . S
C345 C344 1.391 . S
C346 H336 0.950 . S
C346 C347 1.386 . S
C346 C348 1.391 1_556 S
C347 C346 1.386 . S
C347 C351 1.393 . S
C348 H337 0.950 . S
C348 C346 1.391 1_554 S
C348 C349 1.400 . S
C349 C343 1.491 . S
C349 C348 1.400 . S
C349 C350 1.398 . S
C350 H338 0.950 . S
C350 C349 1.398 . S
C350 C351 1.391 1_554 S
C351 H339 0.950 . S
C351 C347 1.393 . S
C351 C350 1.391 1_556 S
H352 C360 0.950 . S
H353 C365 0.950 . S
H354 C362 0.950 . S
H355 C364 0.950 . S
H356 C366 0.950 . S
H357 C368 0.950 . S
H358 C370 0.950 . S
H359 C371 0.950 . S
C360 H352 0.950 . S
C360 C361 1.386 . S
C360 C362 1.391 . S
C361 C360 1.386 . S
C361 C365 1.393 . S
C362 H354 0.950 . S
C362 C360 1.391 . S
C362 C363 1.400 . S
C363 C362 1.400 . S
C363 C364 1.398 . S
C363 C369 1.491 . S
C364 H355 0.950 . S
C364 C363 1.398 . S
C364 C365 1.391 . S
C365 H353 0.950 . S
C365 C361 1.393 . S
C365 C364 1.391 . S
C366 H356 0.950 . S
C366 C367 1.386 . S
C366 C368 1.391 1_556 S
C367 C366 1.386 . S
C367 C371 1.393 . S
C368 H357 0.950 . S
C368 C366 1.391 1_554 S
C368 C369 1.400 . S
C369 C363 1.491 . S
C369 C368 1.400 . S
C369 C370 1.398 . S
C370 H358 0.950 . S
C370 C369 1.398 . S
C370 C371 1.391 1_554 S
C371 H359 0.950 . S
C371 C367 1.393 . S
C371 C370 1.391 1_556 S
H372 C380 0.950 . S
H373 C385 0.950 . S
H374 C382 0.950 . S
H375 C384 0.950 . S
H376 C386 0.950 . S
H377 C388 0.950 . S
H378 C390 0.950 . S
H379 C391 0.950 . S
C380 H372 0.950 . S
C380 C381 1.386 . S
C380 C382 1.391 . S
C381 C380 1.386 . S
C381 C385 1.393 1_655 S
C382 H374 0.950 . S
C382 C380 1.391 . S
C382 C383 1.400 . S
C383 C382 1.400 . S
C383 C384 1.398 1_655 S
C383 C389 1.491 . S
C384 H375 0.950 . S
C384 C383 1.398 1_455 S
C384 C385 1.391 . S
C385 H373 0.950 . S
C385 C381 1.393 1_455 S
C385 C384 1.391 . S
C386 H376 0.950 . S
C386 C387 1.386 1_455 S
C386 C388 1.391 1_556 S
C387 C386 1.386 1_655 S
C387 C391 1.393 . S
C388 H377 0.950 . S
C388 C386 1.391 1_554 S
C388 C389 1.400 1_455 S
C389 C383 1.491 . S
C389 C388 1.400 1_655 S
C389 C390 1.398 . S
C390 H378 0.950 . S
C390 C389 1.398 . S
C390 C391 1.391 1_554 S
C391 H379 0.950 . S
C391 C387 1.393 . S
C391 C390 1.391 1_556 S
H392 C400 0.950 . S
H393 C405 0.950 . S
H394 C402 0.950 . S
H395 C404 0.950 . S
H396 C406 0.950 . S
H397 C408 0.950 . S
H398 C410 0.950 . S
H399 C411 0.950 . S
C400 H392 0.950 . S
C400 C401 1.386 1_655 S
C400 C402 1.391 . S
C401 C400 1.386 1_455 S
C401 C405 1.393 . S
C402 H394 0.950 . S
C402 C400 1.391 . S
C402 C403 1.400 . S
C403 C402 1.400 . S
C403 C404 1.398 . S
C403 C409 1.491 . S
C404 H395 0.950 . S
C404 C403 1.398 . S
C404 C405 1.391 1_655 S
C405 H393 0.950 . S
C405 C401 1.393 . S
C405 C404 1.391 1_455 S
C406 H396 0.950 . S
C406 C407 1.386 . S
C406 C408 1.391 . S
C407 C406 1.386 . S
C407 C411 1.393 . S
C408 H397 0.950 . S
C408 C406 1.391 . S
C408 C409 1.400 . S
C409 C403 1.491 . S
C409 C408 1.400 . S
C409 C410 1.398 . S
C410 H398 0.950 . S
C410 C409 1.398 . S
C410 C411 1.391 . S
C411 H399 0.950 . S
C411 C407 1.393 . S
C411 C410 1.391 . S
H412 C420 0.950 . S
H413 C425 0.950 . S
H414 C422 0.950 . S
H415 C424 0.950 . S
H416 C426 0.950 . S
H417 C428 0.950 1_545 S
H418 C430 0.950 . S
H419 C431 0.950 . S
C420 H412 0.950 . S
C420 C421 1.386 1_565 S
C420 C422 1.391 . S
C421 C420 1.386 1_545 S
C421 C425 1.393 . S
C422 H414 0.950 . S
C422 C420 1.391 . S
C422 C423 1.400 . S
C423 C422 1.400 . S
C423 C424 1.398 1_565 S
C423 C429 1.491 . S
C424 H415 0.950 . S
C424 C423 1.398 1_545 S
C424 C425 1.391 . S
C425 H413 0.950 . S
C425 C421 1.393 . S
C425 C424 1.391 . S
C426 H416 0.950 . S
C426 C427 1.386 . S
C426 C428 1.391 . S
C427 C426 1.386 . S
C427 C431 1.393 . S
C428 H417 0.950 1_565 S
C428 C426 1.391 . S
C428 C429 1.400 . S
C429 C423 1.491 . S
C429 C428 1.400 . S
C429 C430 1.398 . S
C430 H418 0.950 . S
C430 C429 1.398 . S
C430 C431 1.391 . S
C431 H419 0.950 . S
C431 C427 1.393 . S
C431 C430 1.391 . S
H432 C440 0.950 . S
H433 C445 0.950 . S
H434 C442 0.950 . S
H435 C444 0.950 . S
H436 C446 0.950 . S
H437 C448 0.950 . S
H438 C450 0.950 . S
H439 C451 0.950 . S
C440 H432 0.950 . S
C440 C441 1.386 . S
C440 C442 1.391 . S
C441 C440 1.386 . S
C441 C445 1.393 . S
C442 H434 0.950 . S
C442 C440 1.391 . S
C442 C443 1.400 . S
C443 C442 1.400 . S
C443 C444 1.398 . S
C443 C449 1.491 . S
C444 H435 0.950 . S
C444 C443 1.398 . S
C444 C445 1.391 . S
C445 H433 0.950 . S
C445 C441 1.393 . S
C445 C444 1.391 . S
C446 H436 0.950 . S
C446 C447 1.386 . S
C446 C448 1.391 . S
C447 C446 1.386 . S
C447 C451 1.393 . S
C448 H437 0.950 . S
C448 C446 1.391 . S
C448 C449 1.400 . S
C449 C443 1.491 . S
C449 C448 1.400 . S
C449 C450 1.398 . S
C450 H438 0.950 . S
C450 C449 1.398 . S
C450 C451 1.391 . S
C451 H439 0.950 . S
C451 C447 1.393 . S
C451 C450 1.391 . S
H452 C460 0.950 . S
H453 C465 0.950 . S
H454 C462 0.950 . S
H455 C464 0.950 . S
H456 C466 0.950 . S
H457 C468 0.950 . S
H458 C470 0.950 . S
H459 C471 0.950 . S
C460 H452 0.950 . S
C460 C461 1.386 . S
C460 C462 1.391 . S
C461 C460 1.386 . S
C461 C465 1.393 . S
C462 H454 0.950 . S
C462 C460 1.391 . S
C462 C463 1.400 . S
C463 C462 1.400 . S
C463 C464 1.398 . S
C463 C469 1.491 . S
C464 H455 0.950 . S
C464 C463 1.398 . S
C464 C465 1.391 . S
C465 H453 0.950 . S
C465 C461 1.393 . S
C465 C464 1.391 . S
C466 H456 0.950 . S
C466 C467 1.386 . S
C466 C468 1.391 . S
C467 C466 1.386 . S
C467 C471 1.393 . S
C468 H457 0.950 . S
C468 C466 1.391 . S
C468 C469 1.400 . S
C469 C463 1.491 . S
C469 C468 1.400 . S
C469 C470 1.398 . S
C470 H458 0.950 . S
C470 C469 1.398 . S
C470 C471 1.391 . S
C471 H459 0.950 . S
C471 C467 1.393 . S
C471 C470 1.391 . S
H472 C480 0.950 . S
H473 C485 0.950 . S
H474 C482 0.950 . S
H475 C484 0.950 . S
H476 C486 0.950 . S
H477 C488 0.950 . S
H478 C490 0.950 . S
H479 C491 0.950 1_556 S
C480 H472 0.950 . S
C480 C481 1.386 1_455 S
C480 C482 1.391 . S
C481 C480 1.386 1_655 S
C481 C485 1.393 . S
C482 H474 0.950 . S
C482 C480 1.391 . S
C482 C483 1.400 . S
C483 C482 1.400 . S
C483 C484 1.398 . S
C483 C489 1.491 . S
C484 H475 0.950 . S
C484 C483 1.398 . S
C484 C485 1.391 1_455 S
C485 H473 0.950 . S
C485 C481 1.393 . S
C485 C484 1.391 1_655 S
C486 H476 0.950 . S
C486 C487 1.386 . S
C486 C488 1.391 . S
C487 C486 1.386 . S
C487 C491 1.393 . S
C488 H477 0.950 . S
C488 C486 1.391 . S
C488 C489 1.400 . S
C489 C483 1.491 . S
C489 C488 1.400 . S
C489 C490 1.398 . S
C490 H478 0.950 . S
C490 C489 1.398 . S
C490 C491 1.391 . S
C491 H479 0.950 1_554 S
C491 C487 1.393 . S
C491 C490 1.391 . S
H492 C500 0.950 . S
H493 C505 0.950 . S
H494 C502 0.950 . S
H495 C504 0.950 . S
H496 C506 0.950 1_556 S
H497 C508 0.950 . S
H498 C510 0.950 . S
H499 C511 0.950 . S
C500 H492 0.950 . S
C500 C501 1.386 1_545 S
C500 C502 1.391 . S
C501 C500 1.386 1_565 S
C501 C505 1.393 . S
C502 H494 0.950 . S
C502 C500 1.391 . S
C502 C503 1.400 . S
C503 C502 1.400 . S
C503 C504 1.398 1_545 S
C503 C509 1.491 . S
C504 H495 0.950 . S
C504 C503 1.398 1_565 S
C504 C505 1.391 . S
C505 H493 0.950 . S
C505 C501 1.393 . S
C505 C504 1.391 . S
C506 H496 0.950 1_554 S
C506 C507 1.386 . S
C506 C508 1.391 . S
C507 C506 1.386 . S
C507 C511 1.393 . S
C508 H497 0.950 . S
C508 C506 1.391 . S
C508 C509 1.400 . S
C509 C503 1.491 . S
C509 C508 1.400 . S
C509 C510 1.398 . S
C510 H498 0.950 . S
C510 C509 1.398 . S
C510 C511 1.391 . S
C511 H499 0.950 . S
C511 C507 1.393 . S
C511 C510 1.391 . S
H512 C520 0.950 . S
H513 C525 0.950 . S
H514 C522 0.950 . S
H515 C524 0.950 . S
H516 C526 0.950 . S
H517 C528 0.950 . S
H518 C530 0.950 . S
H519 C531 0.950 . S
C520 H512 0.950 . S
C520 C521 1.386 . S
C520 C522 1.391 . S
C521 C520 1.386 . S
C521 C525 1.393 . S
C522 H514 0.950 . S
C522 C520 1.391 . S
C522 C523 1.400 . S
C523 C522 1.400 . S
C523 C524 1.398 . S
C523 C529 1.491 . S
C524 H515 0.950 . S
C524 C523 1.398 . S
C524 C525 1.391 . S
C525 H513 0.950 . S
C525 C521 1.393 . S
C525 C524 1.391 . S
C526 H516 0.950 . S
C526 C527 1.386 . S
C526 C528 1.391 . S
C527 C526 1.386 . S
C527 C531 1.393 . S
C528 H517 0.950 . S
C528 C526 1.391 . S
C528 C529 1.400 . S
C529 C523 1.491 . S
C529 C528 1.400 . S
C529 C530 1.398 . S
C530 H518 0.950 . S
C530 C529 1.398 . S
C530 C531 1.391 . S
C531 H519 0.950 . S
C531 C527 1.393 . S
C531 C530 1.391 . S
H532 C540 0.950 . S
H533 C545 0.950 . S
H534 C542 0.950 . S
H535 C544 0.950 . S
H536 C546 0.950 . S
H537 C548 0.950 . S
H538 C550 0.950 . S
H539 C551 0.950 1_556 S
C540 H532 0.950 . S
C540 C541 1.386 . S
C540 C542 1.391 . S
C541 C540 1.386 . S
C541 C545 1.393 . S
C542 H534 0.950 . S
C542 C540 1.391 . S
C542 C543 1.400 . S
C543 C542 1.400 . S
C543 C544 1.398 . S
C543 C549 1.491 . S
C544 H535 0.950 . S
C544 C543 1.398 . S
C544 C545 1.391 . S
C545 H533 0.950 . S
C545 C541 1.393 . S
C545 C544 1.391 . S
C546 H536 0.950 . S
C546 C547 1.386 . S
C546 C548 1.391 . S
C547 C546 1.386 . S
C547 C551 1.393 . S
C548 H537 0.950 . S
C548 C546 1.391 . S
C548 C549 1.400 . S
C549 C543 1.491 . S
C549 C548 1.400 . S
C549 C550 1.398 . S
C550 H538 0.950 . S
C550 C549 1.398 . S
C550 C551 1.391 . S
C551 H539 0.950 1_554 S
C551 C547 1.393 . S
C551 C550 1.391 . S
H552 C560 0.950 . S
H553 C565 0.950 . S
H554 C562 0.950 . S
H555 C564 0.950 . S
H556 C566 0.950 . S
H557 C568 0.950 . S
H558 C570 0.950 . S
H559 C571 0.950 . S
C560 H552 0.950 . S
C560 C561 1.386 . S
C560 C562 1.391 . S
C561 C560 1.386 . S
C561 C565 1.393 1_455 S
C562 H554 0.950 . S
C562 C560 1.391 . S
C562 C563 1.400 . S
C563 C562 1.400 . S
C563 C564 1.398 1_455 S
C563 C569 1.491 . S
C564 H555 0.950 . S
C564 C563 1.398 1_655 S
C564 C565 1.391 . S
C565 H553 0.950 . S
C565 C561 1.393 1_655 S
C565 C564 1.391 . S
C566 H556 0.950 . S
C566 C567 1.386 1_655 S
C566 C568 1.391 . S
C567 C566 1.386 1_455 S
C567 C571 1.393 . S
C568 H557 0.950 . S
C568 C566 1.391 . S
C568 C569 1.400 1_655 S
C569 C563 1.491 . S
C569 C568 1.400 1_455 S
C569 C570 1.398 . S
C570 H558 0.950 . S
C570 C569 1.398 . S
C570 C571 1.391 . S
C571 H559 0.950 . S
C571 C567 1.393 . S
C571 C570 1.391 . S
H572 C580 0.950 . S
H573 C585 0.950 . S
H574 C582 0.950 . S
H575 C584 0.950 . S
H576 C586 0.950 . S
H577 C588 0.950 . S
H578 C590 0.950 . S
H579 C591 0.950 . S
C580 H572 0.950 . S
C580 C581 1.386 . S
C580 C582 1.391 . S
C581 C580 1.386 . S
C581 C585 1.393 1_545 S
C582 H574 0.950 . S
C582 C580 1.391 . S
C582 C583 1.400 . S
C583 C582 1.400 . S
C583 C584 1.398 1_545 S
C583 C589 1.491 . S
C584 H575 0.950 . S
C584 C583 1.398 1_565 S
C584 C585 1.391 . S
C585 H573 0.950 . S
C585 C581 1.393 1_565 S
C585 C584 1.391 . S
C586 H576 0.950 . S
C586 C587 1.386 1_565 S
C586 C588 1.391 . S
C587 C586 1.386 1_545 S
C587 C591 1.393 . S
C588 H577 0.950 . S
C588 C586 1.391 . S
C588 C589 1.400 1_565 S
C589 C583 1.491 . S
C589 C588 1.400 1_545 S
C589 C590 1.398 . S
C590 H578 0.950 . S
C590 C589 1.398 . S
C590 C591 1.391 . S
C591 H579 0.950 . S
C591 C587 1.393 . S
C591 C590 1.391 . S
H592 C600 0.950 . S
H593 C605 0.950 . S
H594 C602 0.950 . S
H595 C604 0.950 . S
H596 C606 0.950 . S
H597 C608 0.950 . S
H598 C610 0.950 . S
H599 C611 0.950 . S
C600 H592 0.950 . S
C600 C601 1.386 . S
C600 C602 1.391 . S
C601 C600 1.386 . S
C601 C605 1.393 . S
C602 H594 0.950 . S
C602 C600 1.391 . S
C602 C603 1.400 . S
C603 C602 1.400 . S
C603 C604 1.398 . S
C603 C609 1.491 . S
C604 H595 0.950 . S
C604 C603 1.398 . S
C604 C605 1.391 . S
C605 H593 0.950 . S
C605 C601 1.393 . S
C605 C604 1.391 . S
C606 H596 0.950 . S
C606 C607 1.386 . S
C606 C608 1.391 . S
C607 C606 1.386 . S
C607 C611 1.393 . S
C608 H597 0.950 . S
C608 C606 1.391 . S
C608 C609 1.400 . S
C609 C603 1.491 . S
C609 C608 1.400 . S
C609 C610 1.398 . S
C610 H598 0.950 . S
C610 C609 1.398 . S
C610 C611 1.391 . S
C611 H599 0.950 . S
C611 C607 1.393 . S
C611 C610 1.391 . S
H612 C620 0.950 . S
H613 C625 0.950 . S
H614 C622 0.950 . S
H615 C624 0.950 . S
H616 C626 0.950 . S
H617 C628 0.950 . S
H618 C630 0.950 . S
H619 C631 0.950 . S
C620 H612 0.950 . S
C620 C621 1.386 . S
C620 C622 1.391 . S
C621 C620 1.386 . S
C621 C625 1.393 . S
C622 H614 0.950 . S
C622 C620 1.391 . S
C622 C623 1.400 . S
C623 C622 1.400 . S
C623 C624 1.398 . S
C623 C629 1.491 . S
C624 H615 0.950 . S
C624 C623 1.398 . S
C624 C625 1.391 . S
C625 H613 0.950 . S
C625 C621 1.393 . S
C625 C624 1.391 . S
C626 H616 0.950 . S
C626 C627 1.386 . S
C626 C628 1.391 . S
C627 C626 1.386 . S
C627 C631 1.393 . S
C628 H617 0.950 . S
C628 C626 1.391 . S
C628 C629 1.400 . S
C629 C623 1.491 . S
C629 C628 1.400 . S
C629 C630 1.398 . S
C630 H618 0.950 . S
C630 C629 1.398 . S
C630 C631 1.391 . S
C631 H619 0.950 . S
C631 C627 1.393 . S
C631 C630 1.391 . S
H632 C640 0.950 . S
H633 C645 0.950 . S
H634 C642 0.950 . S
H635 C644 0.950 . S
H636 C646 0.950 . S
H637 C648 0.950 . S
H638 C650 0.950 . S
H639 C651 0.950 . S
C640 H632 0.950 . S
C640 C641 1.386 1_455 S
C640 C642 1.391 . S
C641 C640 1.386 1_655 S
C641 C645 1.393 . S
C642 H634 0.950 . S
C642 C640 1.391 . S
C642 C643 1.400 1_455 S
C643 C642 1.400 1_655 S
C643 C644 1.398 . S
C643 C649 1.491 . S
C644 H635 0.950 . S
C644 C643 1.398 . S
C644 C645 1.391 . S
C645 H633 0.950 . S
C645 C641 1.393 . S
C645 C644 1.391 . S
C646 H636 0.950 . S
C646 C647 1.386 . S
C646 C648 1.391 . S
C647 C646 1.386 . S
C647 C651 1.393 1_655 S
C648 H637 0.950 . S
C648 C646 1.391 . S
C648 C649 1.400 . S
C649 C643 1.491 . S
C649 C648 1.400 . S
C649 C650 1.398 1_655 S
C650 H638 0.950 . S
C650 C649 1.398 1_455 S
C650 C651 1.391 . S
C651 H639 0.950 . S
C651 C647 1.393 1_455 S
C651 C650 1.391 . S
H652 C660 0.950 . S
H653 C665 0.950 . S
H654 C662 0.950 . S
H655 C664 0.950 . S
H656 C666 0.950 . S
H657 C668 0.950 . S
H658 C670 0.950 . S
H659 C671 0.950 . S
C660 H652 0.950 . S
C660 C661 1.386 . S
C660 C662 1.391 . S
C661 C660 1.386 . S
C661 C665 1.393 1_565 S
C662 H654 0.950 . S
C662 C660 1.391 . S
C662 C663 1.400 . S
C663 C662 1.400 . S
C663 C664 1.398 1_565 S
C663 C669 1.491 . S
C664 H655 0.950 . S
C664 C663 1.398 1_545 S
C664 C665 1.391 . S
C665 H653 0.950 . S
C665 C661 1.393 1_545 S
C665 C664 1.391 . S
C666 H656 0.950 . S
C666 C667 1.386 1_545 S
C666 C668 1.391 . S
C667 C666 1.386 1_565 S
C667 C671 1.393 . S
C668 H657 0.950 . S
C668 C666 1.391 . S
C668 C669 1.400 1_545 S
C669 C663 1.491 . S
C669 C668 1.400 1_565 S
C669 C670 1.398 . S
C670 H658 0.950 . S
C670 C669 1.398 . S
C670 C671 1.391 . S
C671 H659 0.950 . S
C671 C667 1.393 . S
C671 C670 1.391 . S
H672 C680 0.950 . S
H673 C685 0.950 . S
H674 C682 0.950 . S
H675 C684 0.950 . S
H676 C686 0.950 . S
H677 C688 0.950 . S
H678 C690 0.950 . S
H679 C691 0.950 . S
C680 H672 0.950 . S
C680 C681 1.386 . S
C680 C682 1.391 . S
C681 C680 1.386 . S
C681 C685 1.393 . S
C682 H674 0.950 . S
C682 C680 1.391 . S
C682 C683 1.400 . S
C683 C682 1.400 . S
C683 C684 1.398 . S
C683 C689 1.491 . S
C684 H675 0.950 . S
C684 C683 1.398 . S
C684 C685 1.391 . S
C685 H673 0.950 . S
C685 C681 1.393 . S
C685 C684 1.391 . S
C686 H676 0.950 . S
C686 C687 1.386 . S
C686 C688 1.391 . S
C687 C686 1.386 . S
C687 C691 1.393 . S
C688 H677 0.950 . S
C688 C686 1.391 . S
C688 C689 1.400 . S
C689 C683 1.491 . S
C689 C688 1.400 . S
C689 C690 1.398 . S
C690 H678 0.950 . S
C690 C689 1.398 . S
C690 C691 1.391 . S
C691 H679 0.950 . S
C691 C687 1.393 . S
C691 C690 1.391 . S
H692 C700 0.950 . S
H693 C705 0.950 . S
H694 C702 0.950 . S
H695 C704 0.950 . S
H696 C706 0.950 . S
H697 C708 0.950 . S
H698 C710 0.950 . S
H699 C711 0.950 . S
C700 H692 0.950 . S
C700 C701 1.386 . S
C700 C702 1.391 . S
C701 C700 1.386 . S
C701 C705 1.393 . S
C702 H694 0.950 . S
C702 C700 1.391 . S
C702 C703 1.400 . S
C703 C702 1.400 . S
C703 C704 1.398 . S
C703 C709 1.491 . S
C704 H695 0.950 . S
C704 C703 1.398 . S
C704 C705 1.391 . S
C705 H693 0.950 . S
C705 C701 1.393 . S
C705 C704 1.391 . S
C706 H696 0.950 . S
C706 C707 1.386 . S
C706 C708 1.391 . S
C707 C706 1.386 . S
C707 C711 1.393 . S
C708 H697 0.950 . S
C708 C706 1.391 . S
C708 C709 1.400 . S
C709 C703 1.491 . S
C709 C708 1.400 . S
C709 C710 1.398 . S
C710 H698 0.950 . S
C710 C709 1.398 . S
C710 C711 1.391 . S
C711 H699 0.950 . S
C711 C707 1.393 . S
C711 C710 1.391 . S
C241 C61 1.770 . S
C247 C81 1.921 1_545 S
C267 C121 1.940 . S
C261 C70 1.796 . S
C287 C161 1.949 . S
C281 C43 1.798 . S
C307 C201 1.929 1_455 S
C301 C52 1.810 1_455 S
C327 C90 1.917 1_565 S
C321 C25 1.798 . S
C341 C34 1.828 . S
C347 C130 1.938 . S
C361 C7 1.824 . S
C367 C170 1.943 . S
C381 C16 1.785 . S
C387 C210 1.931 1_655 S
C407 C87 0.551 . S
C401 C50 0.496 1_455 S
C427 C127 0.543 . S
C421 C59 0.488 1_545 S
C447 C167 0.539 . S
C441 C67 0.497 . S
C461 C41 0.488 . S
C467 C207 0.543 . S
C481 C14 0.500 . S
C487 C78 0.547 . S
C507 C118 0.484 . S
C501 C23 0.470 . S
C527 C158 0.501 . S
C521 C31 0.453 . S
C541 C5 0.475 . S
C547 C198 0.549 . S
C561 C49 2.016 1_455 S
C567 C91 2.259 . S
C581 C58 1.974 1_545 S
C587 C131 2.216 . S
C607 C171 2.185 . S
C601 C68 1.976 . S
C627 C211 2.240 . S
C621 C40 1.989 . S
C641 C13 2.020 . S
C647 C82 2.258 . S
C667 C122 2.207 . S
C661 C22 1.998 . S
C687 C162 2.198 . S
C681 C32 1.957 . S
C701 C4 1.995 . S
C707 C202 2.246 . S
