# Generated by pormake.
# Topology ant, (3,6)-cn, num edge types: 1
# Building blocks:
#     Node 0, Type 0, BuildingBlock: ESEHIV_clean_linker_0, # of connection points: 3
#     Node 1, Type 0, BuildingBlock: ESEHIV_clean_linker_0, # of connection points: 3
#     Node 2, Type 0, BuildingBlock: ESEHIV_clean_linker_0, # of connection points: 3
#     Node 3, Type 0, BuildingBlock: ESEHIV_clean_linker_0, # of connection points: 3
#     Node 4, Type 0, BuildingBlock: ESEHIV_clean_linker_0, # of connection points: 3
#     Node 5, Type 0, BuildingBlock: ESEHIV_clean_linker_0, # of connection points: 3
#     Node 6, Type 0, BuildingBlock: ESEHIV_clean_linker_0, # of connection points: 3
#     Node 7, Type 0, BuildingBlock: ESEHIV_clean_linker_0, # of connection points: 3
#     Node 8, Type 1, BuildingBlock: MIDCAF_clean_sbu_0, # of connection points: 6
#     Node 9, Type 1, BuildingBlock: MIDCAF_clean_sbu_0, # of connection points: 6
#     Node 10, Type 1, BuildingBlock: MIDCAF_clean_sbu_0, # of connection points: 6
#     Node 11, Type 1, BuildingBlock: MIDCAF_clean_sbu_0, # of connection points: 6
#     Edge 12, Type (0, 1), BuildingBlock: XUDNAN_clean_linker_2, # of connection points: 2
#     Edge 13, Type (0, 1), BuildingBlock: XUDNAN_clean_linker_2, # of connection points: 2
#     Edge 14, Type (0, 1), BuildingBlock: XUDNAN_clean_linker_2, # of connection points: 2
#     Edge 15, Type (0, 1), BuildingBlock: XUDNAN_clean_linker_2, # of connection points: 2
#     Edge 16, Type (0, 1), BuildingBlock: XUDNAN_clean_linker_2, # of connection points: 2
#     Edge 17, Type (0, 1), BuildingBlock: XUDNAN_clean_linker_2, # of connection points: 2
#     Edge 18, Type (0, 1), BuildingBlock: XUDNAN_clean_linker_2, # of connection points: 2
#     Edge 19, Type (0, 1), BuildingBlock: XUDNAN_clean_linker_2, # of connection points: 2
#     Edge 20, Type (0, 1), BuildingBlock: XUDNAN_clean_linker_2, # of connection points: 2
#     Edge 21, Type (0, 1), BuildingBlock: XUDNAN_clean_linker_2, # of connection points: 2
#     Edge 22, Type (0, 1), BuildingBlock: XUDNAN_clean_linker_2, # of connection points: 2
#     Edge 23, Type (0, 1), BuildingBlock: XUDNAN_clean_linker_2, # of connection points: 2
#     Edge 24, Type (0, 1), BuildingBlock: XUDNAN_clean_linker_2, # of connection points: 2
#     Edge 25, Type (0, 1), BuildingBlock: XUDNAN_clean_linker_2, # of connection points: 2
#     Edge 26, Type (0, 1), BuildingBlock: XUDNAN_clean_linker_2, # of connection points: 2
#     Edge 27, Type (0, 1), BuildingBlock: XUDNAN_clean_linker_2, # of connection points: 2
#     Edge 28, Type (0, 1), BuildingBlock: XUDNAN_clean_linker_2, # of connection points: 2
#     Edge 29, Type (0, 1), BuildingBlock: XUDNAN_clean_linker_2, # of connection points: 2
#     Edge 30, Type (0, 1), BuildingBlock: XUDNAN_clean_linker_2, # of connection points: 2
#     Edge 31, Type (0, 1), BuildingBlock: XUDNAN_clean_linker_2, # of connection points: 2
#     Edge 32, Type (0, 1), BuildingBlock: XUDNAN_clean_linker_2, # of connection points: 2
#     Edge 33, Type (0, 1), BuildingBlock: XUDNAN_clean_linker_2, # of connection points: 2
#     Edge 34, Type (0, 1), BuildingBlock: XUDNAN_clean_linker_2, # of connection points: 2
#     Edge 35, Type (0, 1), BuildingBlock: XUDNAN_clean_linker_2, # of connection points: 2
# Relax obj value: 0.103
# Max RMSD: 0.160
# Mean RMSD: 0.105
data_MOF--net-ant--node1-MIDCAF_clean_sbu_0--node2-ESEHIV_clean_linker_0--edge1-XUDNAN_clean_linker_2
_symmetry_space_group_name_H-M    P1
_symmetry_Int_Tables_number       1
_symmetry_cell_setting            triclinic
loop_
_symmetry_equiv_pos_as_xyz
'x, y, z'
_cell_length_a     26.277363
_cell_length_b     25.945802
_cell_length_c     72.012524
_cell_angle_alpha  90.225487
_cell_angle_beta   93.96154
_cell_angle_gamma 90.054143
loop_
_atom_site_label
_atom_site_type_symbol
_atom_site_fract_x
_atom_site_fract_y
_atom_site_fract_z
_atom_type_partial_charge
H0 H 0.15808 0.28707 0.03824 0.0
H1 H 0.22447 0.13648 0.04488 0.0
H2 H 0.23392 0.24375 0.09083 0.0
C3 C 0.17961 0.25921 0.04677 0.0
C4 C 0.19642 0.27196 0.06517 0.0
C5 C 0.18967 0.21029 0.03947 0.0
C6 C 0.21762 0.17451 0.0505 0.0
C7 C 0.23364 0.18595 0.06908 0.0
C8 C 0.22244 0.23475 0.07643 0.0
H9 H 0.9703 0.81103 0.28993 0.0
H10 H 0.13295 0.79664 0.29343 0.0
H11 H 0.05526 0.83797 0.34223 0.0
C12 C 0.00648 0.81272 0.29812 0.0
C13 C 0.00759 0.82379 0.31721 0.0
C14 C 0.0518 0.80395 0.28954 0.0
C15 C 0.09847 0.80537 0.30022 0.0
C16 C 0.10089 0.81836 0.31928 0.0
C17 C 0.0548 0.82781 0.32763 0.0
H18 H 0.6775 0.77336 0.53933 0.0
H19 H 0.7468 0.62363 0.54373 0.0
H20 H 0.76731 0.73124 0.58928 0.0
C21 C 0.7019 0.74606 0.54705 0.0
C22 C 0.72321 0.75911 0.56488 0.0
C23 C 0.71027 0.6971 0.53947 0.0
C24 C 0.7415 0.6618 0.54948 0.0
C25 C 0.76217 0.67361 0.56749 0.0
C26 C 0.75248 0.72225 0.57522 0.0
H27 H 0.48321 0.30048 0.78289 0.0
H28 H 0.64628 0.2928 0.79073 0.0
H29 H 0.55787 0.33692 0.83642 0.0
C30 C 0.51783 0.30406 0.79191 0.0
C31 C 0.51489 0.31827 0.81063 0.0
C32 C 0.56527 0.29562 0.78466 0.0
C33 C 0.60991 0.3004 0.7964 0.0
C34 C 0.60823 0.31585 0.8151 0.0
C35 C 0.5602 0.3247 0.82211 0.0
H36 H 0.96539 0.66951 0.95578 0.0
H37 H 0.02724 0.82205 0.95589 0.0
H38 H 0.99004 0.7437 0.90387 0.0
C39 C 0.97715 0.70272 0.94811 0.0
C40 C 0.97691 0.70008 0.92861 0.0
C41 C 0.99804 0.74495 0.95805 0.0
C42 C 0.01115 0.78911 0.94826 0.0
C43 C 0.0065 0.78993 0.92867 0.0
C44 C 0.9904 0.74465 0.9189 0.0
H45 H 0.62033 0.82811 0.20926 0.0
H46 H 0.78331 0.81693 0.20836 0.0
H47 H 0.68937 0.82627 0.15689 0.0
C48 C 0.65419 0.82681 0.20146 0.0
C49 C 0.64938 0.82824 0.18198 0.0
C50 C 0.70238 0.82227 0.21094 0.0
C51 C 0.74612 0.81984 0.20092 0.0
C52 C 0.74193 0.82184 0.18137 0.0
C53 C 0.69323 0.82549 0.17197 0.0
H54 H 0.49805 0.13677 0.44822 0.0
H55 H 0.55599 0.29192 0.45361 0.0
H56 H 0.4854 0.23802 0.40133 0.0
C57 C 0.50276 0.17501 0.44259 0.0
C58 C 0.4864 0.18391 0.42396 0.0
C59 C 0.52842 0.2132 0.45348 0.0
C60 C 0.53639 0.26183 0.44546 0.0
C61 C 0.52138 0.27115 0.42663 0.0
C62 C 0.49651 0.23171 0.41592 0.0
H63 H 0.13046 0.31935 0.69643 0.0
H64 H 0.29169 0.30774 0.70839 0.0
H65 H 0.23013 0.30331 0.65151 0.0
C66 C 0.16825 0.31754 0.69133 0.0
C67 C 0.17448 0.3135 0.67209 0.0
C68 C 0.21054 0.31648 0.70428 0.0
C69 C 0.2594 0.31018 0.6982 0.0
C70 C 0.26661 0.30415 0.67921 0.0
C71 C 0.22429 0.30751 0.66617 0.0
Zn72 Zn 0.2279 0.6783 0.14539 0.0
Zn73 Zn 0.14555 0.80061 0.10421 0.0
Zn74 Zn 0.18317 0.74385 0.12357 0.0
C75 C 0.16656 0.72975 0.08073 0.0
C76 C 0.21679 0.85977 0.11893 0.0
O77 O 0.14098 0.74706 0.14868 0.0
O78 O 0.19031 0.69855 0.16754 0.0
C79 C 0.18731 0.62081 0.11534 0.0
O80 O 0.16288 0.70673 0.09639 0.0
O81 O 0.17459 0.77768 0.08079 0.0
O82 O 0.1697 0.86617 0.11533 0.0
O83 O 0.23431 0.81328 0.1202 0.0
O84 O 0.20665 0.61456 0.1317 0.0
O85 O 0.17827 0.66666 0.10909 0.0
O86 O 0.26195 0.77289 0.1296 0.0
O87 O 0.29851 0.70516 0.14341 0.0
C88 C 0.30203 0.74998 0.13681 0.0
O89 O 0.10911 0.76879 0.13452 0.0
O90 O 0.07274 0.78701 0.10693 0.0
C91 C 0.15248 0.7284 0.16497 0.0
C92 C 0.06885 0.78051 0.12412 0.0
Zn93 Zn 0.52685 0.68763 0.34669 0.0
Zn94 Zn 0.61179 0.79842 0.40094 0.0
Zn95 Zn 0.57011 0.74142 0.37473 0.0
C96 C 0.52268 0.84804 0.38996 0.0
C97 C 0.68026 0.79986 0.37399 0.0
O98 O 0.56764 0.65904 0.38416 0.0
O99 O 0.5374 0.61941 0.35844 0.0
C100 C 0.45384 0.75735 0.35715 0.0
O101 O 0.51751 0.80688 0.37991 0.0
O102 O 0.56198 0.85464 0.40074 0.0
O103 O 0.67653 0.81522 0.39047 0.0
O104 O 0.64398 0.77302 0.36568 0.0
O105 O 0.45867 0.72092 0.34574 0.0
O106 O 0.49145 0.77073 0.36861 0.0
O107 O 0.61642 0.75104 0.35033 0.0
O108 O 0.57387 0.70735 0.3278 0.0
C109 C 0.61087 0.73593 0.33323 0.0
O110 O 0.58414 0.69032 0.39924 0.0
O111 O 0.61293 0.7467 0.42064 0.0
C112 C 0.55521 0.61725 0.37516 0.0
C113 C 0.60017 0.70129 0.4161 0.0
Zn114 Zn 0.66387 0.2898 0.60178 0.0
Zn115 Zn 0.76206 0.17208 0.64259 0.0
Zn116 Zn 0.71273 0.22972 0.61938 0.0
C117 C 0.83305 0.23762 0.62814 0.0
C118 C 0.71477 0.10859 0.61449 0.0
O119 O 0.64047 0.2465 0.63259 0.0
O120 O 0.59335 0.27657 0.60854 0.0
C121 C 0.74328 0.34655 0.61417 0.0
O122 O 0.79164 0.26024 0.62207 0.0
O123 O 0.83128 0.19486 0.63637 0.0
O124 O 0.73312 0.1077 0.63117 0.0
O125 O 0.70859 0.15197 0.60597 0.0
O126 O 0.6959 0.35382 0.61173 0.0
O127 O 0.76049 0.29995 0.6148 0.0
O128 O 0.69052 0.19028 0.59296 0.0
O129 O 0.68393 0.26302 0.57739 0.0
C130 C 0.68608 0.21442 0.57737 0.0
O131 O 0.67703 0.23406 0.64633 0.0
O132 O 0.73392 0.19729 0.66603 0.0
C133 C 0.59654 0.25991 0.625 0.0
C134 C 0.69313 0.2226 0.66314 0.0
Zn135 Zn 0.02694 0.19613 0.84464 0.0
Zn136 Zn 0.12921 0.30138 0.89487 0.0
Zn137 Zn 0.07598 0.25129 0.87095 0.0
C138 C 0.12261 0.20726 0.91083 0.0
C139 C 0.03559 0.35173 0.89118 0.0
O140 O 0.1163 0.25817 0.84494 0.0
O141 O 0.06858 0.21392 0.82394 0.0
C142 C 0.05795 0.1275 0.87285 0.0
O143 O 0.09303 0.20087 0.89592 0.0
O144 O 0.14731 0.24859 0.91333 0.0
O145 O 0.0771 0.35156 0.90109 0.0
O146 O 0.02703 0.31697 0.87854 0.0
O147 O 0.03845 0.12804 0.85634 0.0
O148 O 0.07212 0.16993 0.88107 0.0
O149 O 0.99785 0.28421 0.8666 0.0
O150 O 0.96009 0.23123 0.84573 0.0
C151 C 0.95811 0.2698 0.85639 0.0
O152 O 0.14844 0.2807 0.85903 0.0
O153 O 0.18527 0.32848 0.88157 0.0
C154 C 0.10667 0.24237 0.82805 0.0
C155 C 0.18528 0.31047 0.86532 0.0
H156 H 0.24107 0.36521 0.05848 0.0
H157 H 0.12389 0.29358 0.0891 0.0
H158 H 0.10091 0.37893 0.10162 0.0
H159 H 0.28346 0.45286 0.09431 0.0
H160 H 0.29648 0.50494 0.07883 0.0
H161 H 0.29993 0.43928 0.07089 0.0
H162 H 0.23501 0.46034 0.04324 0.0
H163 H 0.23084 0.526 0.05129 0.0
H164 H 0.1739 0.48742 0.04776 0.0
H165 H 0.09343 0.47038 0.11195 0.0
H166 H 0.10852 0.56004 0.12256 0.0
H167 H 0.23245 0.57386 0.08627 0.0
C168 C 0.21033 0.36787 0.06771 0.0
C169 C 0.1839 0.32316 0.07283 0.0
C170 C 0.14438 0.32756 0.08508 0.0
C171 C 0.13091 0.37585 0.09211 0.0
C172 C 0.15752 0.41937 0.0868 0.0
C173 C 0.19684 0.41585 0.07506 0.0
C174 C 0.22205 0.46805 0.07284 0.0
C175 C 0.27883 0.46615 0.07963 0.0
C176 C 0.21502 0.48653 0.05257 0.0
C177 C 0.19162 0.5012 0.08552 0.0
C178 C 0.15384 0.47241 0.09308 0.0
C179 C 0.12239 0.49343 0.10593 0.0
C180 C 0.13094 0.5445 0.11178 0.0
C181 C 0.17062 0.57411 0.10484 0.0
C182 C 0.20068 0.55257 0.09125 0.0
H183 H 0.92527 0.75903 0.31569 0.0
H184 H 0.98134 0.90429 0.33908 0.0
H185 H 0.90022 0.91641 0.35406 0.0
H186 H 0.79275 0.79615 0.3069 0.0
H187 H 0.76794 0.73473 0.31378 0.0
H188 H 0.82907 0.73821 0.304 0.0
H189 H 0.87159 0.69275 0.33293 0.0
H190 H 0.81053 0.6883 0.34271 0.0
H191 H 0.86336 0.71881 0.35577 0.0
H192 H 0.81553 0.91163 0.3671 0.0
H193 H 0.73355 0.88828 0.37938 0.0
H194 H 0.73194 0.74458 0.34831 0.0
C195 C 0.92008 0.79361 0.32382 0.0
C196 C 0.95918 0.83101 0.3262 0.0
C197 C 0.95174 0.87528 0.33718 0.0
C198 C 0.90578 0.88258 0.3456 0.0
C199 C 0.86793 0.84504 0.34297 0.0
C200 C 0.87466 0.80119 0.3325 0.0
C201 C 0.82904 0.76539 0.33284 0.0
C202 C 0.80314 0.75823 0.31321 0.0
C203 C 0.84458 0.71324 0.34159 0.0
C204 C 0.79566 0.7959 0.34525 0.0
C205 C 0.81883 0.84191 0.35075 0.0
C206 C 0.79684 0.87591 0.36281 0.0
C207 C 0.75036 0.86221 0.36974 0.0
C208 C 0.72627 0.81485 0.36466 0.0
C209 C 0.74898 0.78149 0.35208 0.0
H210 H 0.73568 0.63766 0.60076 0.0
H211 H 0.84191 0.61301 0.55835 0.0
H212 H 0.86772 0.52994 0.57278 0.0
H213 H 0.8094 0.56082 0.64028 0.0
H214 H 0.74988 0.53631 0.64767 0.0
H215 H 0.75296 0.60039 0.63818 0.0
H216 H 0.67969 0.57745 0.61359 0.0
H217 H 0.67645 0.51384 0.62294 0.0
H218 H 0.68646 0.52234 0.59862 0.0
H219 H 0.86607 0.4419 0.58666 0.0
H220 H 0.83206 0.3582 0.59666 0.0
H221 H 0.72578 0.43872 0.62968 0.0
C222 C 0.76649 0.61604 0.59522 0.0
C223 C 0.7876 0.63201 0.57872 0.0
C224 C 0.82597 0.60168 0.5712 0.0
C225 C 0.84097 0.55454 0.57936 0.0
C226 C 0.81734 0.53824 0.5951 0.0
C227 C 0.78114 0.5685 0.60306 0.0
C228 C 0.75404 0.53859 0.61745 0.0
C229 C 0.76739 0.56033 0.63706 0.0
C230 C 0.69579 0.53799 0.61285 0.0
C231 C 0.77738 0.48577 0.61522 0.0
C232 C 0.81537 0.4866 0.60285 0.0
C233 C 0.83743 0.44101 0.59675 0.0
C234 C 0.81815 0.39353 0.60257 0.0
C235 C 0.77656 0.39234 0.61398 0.0
C236 C 0.75822 0.43889 0.62119 0.0
H237 H 0.70079 0.35107 0.80455 0.0
H238 H 0.62703 0.29406 0.85254 0.0
H239 H 0.71009 0.29501 0.8708 0.0
H240 H 0.80134 0.26783 0.80948 0.0
H241 H 0.84788 0.31175 0.80123 0.0
H242 H 0.78176 0.31891 0.79367 0.0
H243 H 0.78419 0.41345 0.80558 0.0
H244 H 0.85049 0.40622 0.81339 0.0
H245 H 0.80501 0.42691 0.82949 0.0
H246 H 0.80335 0.29028 0.88251 0.0
H247 H 0.896 0.27094 0.8851 0.0
H248 H 0.90789 0.32224 0.8285 0.0
C249 C 0.70164 0.33913 0.81894 0.0
C250 C 0.65688 0.32233 0.82699 0.0
C251 C 0.66028 0.30797 0.84603 0.0
C252 C 0.70749 0.30831 0.85654 0.0
C253 C 0.75109 0.32313 0.84787 0.0
C254 C 0.74841 0.33806 0.82943 0.0
C255 C 0.80099 0.34464 0.8224 0.0
C256 C 0.80841 0.30863 0.80573 0.0
C257 C 0.81073 0.40118 0.81743 0.0
C258 C 0.83387 0.3287 0.83948 0.0
C259 C 0.80463 0.31823 0.85428 0.0
C260 C 0.82659 0.29928 0.87112 0.0
C261 C 0.87923 0.28873 0.87254 0.0
C262 C 0.90878 0.29615 0.8571 0.0
C263 C 0.8861 0.3177 0.84063 0.0
H264 H 0.00435 0.60596 0.943 0.0
H265 H 0.93621 0.67606 0.89257 0.0
H266 H 0.93022 0.58936 0.87782 0.0
H267 H 0.07723 0.51719 0.92406 0.0
H268 H 0.06701 0.4679 0.94098 0.0
H269 H 0.06151 0.53446 0.94726 0.0
H270 H 0.96972 0.51795 0.95707 0.0
H271 H 0.97486 0.451 0.95071 0.0
H272 H 0.92287 0.48934 0.94068 0.0
H273 H 0.94291 0.49315 0.86795 0.0
H274 H 0.97538 0.40391 0.86439 0.0
H275 H 0.02206 0.40082 0.9232 0.0
C276 C 0.98561 0.60385 0.92917 0.0
C277 C 0.96949 0.64856 0.91926 0.0
C278 C 0.94883 0.64276 0.90062 0.0
C279 C 0.94471 0.59348 0.89219 0.0
C280 C 0.96023 0.55034 0.90271 0.0
C281 C 0.9796 0.55557 0.92093 0.0
C282 C 0.99673 0.50488 0.92934 0.0
C283 C 0.05397 0.50622 0.93576 0.0
C284 C 0.96408 0.48992 0.94539 0.0
C285 C 0.98625 0.46994 0.91278 0.0
C286 C 0.9649 0.49618 0.89746 0.0
C287 C 0.95838 0.47217 0.88001 0.0
C288 C 0.97647 0.4213 0.87811 0.0
C289 C 1.00089 0.3956 0.89359 0.0
C290 C 0.00294 0.41939 0.9112 0.0
H291 H 0.82625 0.75863 0.18589 0.0
H292 H 0.76255 0.88631 0.15318 0.0
H293 H 0.84023 0.88966 0.13592 0.0
H294 H 0.95653 0.80243 0.18978 0.0
H295 H 0.98318 0.73881 0.18727 0.0
H296 H 0.92251 0.74658 0.19708 0.0
H297 H 0.88193 0.68384 0.17221 0.0
H298 H 0.94266 0.67665 0.16231 0.0
H299 H 0.88765 0.69716 0.14789 0.0
H300 H 0.92253 0.88003 0.1223 0.0
H301 H 0.00646 0.85671 0.1119 0.0
H302 H 0.02026 0.73491 0.15312 0.0
C303 C 0.82889 0.78736 0.17513 0.0
C304 C 0.78838 0.82224 0.17082 0.0
C305 C 0.79284 0.8589 0.15653 0.0
C306 C 0.83692 0.8613 0.14675 0.0
C307 C 0.87613 0.82663 0.15136 0.0
C308 C 0.87265 0.79006 0.16508 0.0
C309 C 0.9203 0.75676 0.16685 0.0
C310 C 0.94727 0.7615 0.18641 0.0
C311 C 0.90734 0.70025 0.16202 0.0
C312 C 0.95144 0.78109 0.15218 0.0
C313 C 0.92472 0.82113 0.14343 0.0
C314 C 0.94394 0.84888 0.12903 0.0
C315 C 0.99161 0.83517 0.1232 0.0
C316 C 0.0199 0.79418 0.13176 0.0
C317 C 0.99975 0.76692 0.14656 0.0
H318 H 0.50709 0.37145 0.43862 0.0
H319 H 0.56859 0.28142 0.39448 0.0
H320 H 0.5929 0.3614 0.37901 0.0
H321 H 0.45195 0.46885 0.40953 0.0
H322 H 0.46626 0.52153 0.42545 0.0
H323 H 0.45821 0.45743 0.43426 0.0
H324 H 0.54753 0.46306 0.45179 0.0
H325 H 0.55596 0.52711 0.44284 0.0
H326 H 0.60236 0.47778 0.43903 0.0
H327 H 0.60563 0.44855 0.36719 0.0
H328 H 0.60054 0.53971 0.35809 0.0
H329 H 0.5306 0.57727 0.40925 0.0
C330 C 0.52629 0.36879 0.42583 0.0
C331 C 0.53588 0.32016 0.4177 0.0
C332 C 0.56039 0.31815 0.40082 0.0
C333 C 0.57482 0.36337 0.39204 0.0
C334 C 0.56458 0.41056 0.40028 0.0
C335 C 0.54067 0.4139 0.41673 0.0
C336 C 0.53079 0.47 0.42169 0.0
C337 C 0.47339 0.48003 0.42279 0.0
C338 C 0.56096 0.48538 0.43992 0.0
C339 C 0.55149 0.49734 0.40514 0.0
C340 C 0.57161 0.46199 0.39322 0.0
C341 C 0.59051 0.47666 0.37648 0.0
C342 C 0.58743 0.52854 0.37144 0.0
C343 C 0.56561 0.56547 0.38302 0.0
C344 C 0.54851 0.54997 0.40035 0.0
H345 H 0.08144 0.36267 0.67373 0.0
H346 H 0.16218 0.25441 0.64022 0.0
H347 H 0.08378 0.23973 0.62044 0.0
H348 H 0.97672 0.28735 0.67658 0.0
H349 H 0.9303 0.33855 0.67585 0.0
H350 H 0.99493 0.35132 0.68436 0.0
H351 H 1.00059 0.42411 0.66002 0.0
H352 H 0.93578 0.41118 0.65134 0.0
H353 H 0.98639 0.41001 0.63568 0.0
H354 H 0.99534 0.22289 0.60823 0.0
H355 H 0.90326 0.2027 0.60566 0.0
H356 H 0.87709 0.31869 0.64724 0.0
C357 C 0.08305 0.33659 0.66203 0.0
C358 C 0.12869 0.31021 0.65856 0.0
C359 C 0.1286 0.27642 0.64302 0.0
C360 C 0.08394 0.2676 0.63166 0.0
C361 C 0.03937 0.29278 0.63589 0.0
C362 C 0.03853 0.32674 0.65069 0.0
C363 C 0.98433 0.34278 0.65398 0.0
C364 C 0.9708 0.32915 0.67386 0.0
C365 C 0.97632 0.40046 0.65002 0.0
C366 C 0.95466 0.31003 0.63948 0.0
C367 C 0.98731 0.28263 0.62883 0.0
C368 C 0.96936 0.24521 0.61606 0.0
C369 C 0.91706 0.23406 0.61464 0.0
C370 C 0.88341 0.26029 0.62586 0.0
C371 C 0.90207 0.2998 0.63799 0.0
H372 H 0.31781 0.34404 0.65043 0.0
H373 H 0.33042 0.23103 0.69477 0.0
H374 H 0.41601 0.20679 0.68568 0.0
H375 H 0.38142 0.26882 0.61664 0.0
H376 H 0.41334 0.3236 0.60739 0.0
H377 H 0.3528 0.33187 0.61732 0.0
H378 H 0.3927 0.401 0.64002 0.0
H379 H 0.45333 0.39294 0.63015 0.0
H380 H 0.44858 0.38516 0.65483 0.0
H381 H 0.49997 0.19418 0.67165 0.0
H382 H 0.57719 0.19572 0.65384 0.0
H383 H 0.51054 0.31796 0.61918 0.0
C384 C 0.33852 0.314 0.65812 0.0
C385 C 0.3177 0.28968 0.67337 0.0
C386 C 0.34605 0.25075 0.68321 0.0
C387 C 0.39453 0.23647 0.6781 0.0
C388 C 0.41415 0.26144 0.6631 0.0
C389 C 0.38714 0.29941 0.65326 0.0
C390 C 0.41732 0.32065 0.63785 0.0
C391 C 0.38956 0.31062 0.61867 0.0
C392 C 0.42866 0.37836 0.6409 0.0
C393 C 0.46538 0.28864 0.64057 0.0
C394 C 0.46279 0.25462 0.65517 0.0
C395 C 0.50258 0.22088 0.66024 0.0
C396 C 0.54636 0.22221 0.65015 0.0
C397 C 0.55015 0.25756 0.6354 0.0
C398 C 0.50881 0.29068 0.63047 0.0
H399 H 0.59969 0.75169 0.16228 0.0
H400 H 0.58344 0.90935 0.18077 0.0
H401 H 0.49446 0.91078 0.16678 0.0
H402 H 0.51592 0.75988 0.1185 0.0
H403 H 0.48986 0.69651 0.12173 0.0
H404 H 0.55433 0.711 0.13038 0.0
H405 H 0.53328 0.68222 0.16342 0.0
H406 H 0.46899 0.66757 0.15488 0.0
H407 H 0.48043 0.7116 0.17414 0.0
H408 H 0.40488 0.89193 0.15319 0.0
H409 H 0.32114 0.85222 0.14406 0.0
H410 H 0.3955 0.70579 0.13573 0.0
C411 C 0.57765 0.78685 0.16288 0.0
C412 C 0.5982 0.83077 0.1722 0.0
C413 C 0.56815 0.87568 0.1734 0.0
C414 C 0.51782 0.87681 0.16544 0.0
C415 C 0.49818 0.83254 0.1565 0.0
C416 C 0.52717 0.78828 0.15528 0.0
C417 C 0.49557 0.74405 0.14696 0.0
C418 C 0.51509 0.72686 0.12828 0.0
C419 C 0.4945 0.69872 0.16067 0.0
C420 C 0.44395 0.76978 0.14418 0.0
C421 C 0.44635 0.82116 0.14932 0.0
C422 C 0.40273 0.85196 0.14886 0.0
C423 C 0.35535 0.82927 0.14349 0.0
C424 C 0.35203 0.77624 0.13892 0.0
C425 C 0.39708 0.74661 0.13895 0.0
H426 H 0.43028 0.25548 0.80865 0.0
H427 H 0.48609 0.40398 0.8291 0.0
H428 H 0.40254 0.42176 0.84151 0.0
H429 H 0.29577 0.29555 0.79678 0.0
H430 H 0.2698 0.23588 0.8047 0.0
H431 H 0.33156 0.23665 0.79524 0.0
H432 H 0.37201 0.19479 0.82536 0.0
H433 H 0.31038 0.19332 0.83479 0.0
H434 H 0.36318 0.22477 0.84754 0.0
H435 H 0.31654 0.42192 0.85314 0.0
H436 H 0.23544 0.40123 0.86652 0.0
H437 H 0.23448 0.2506 0.84012 0.0
C438 C 0.42443 0.29203 0.8155 0.0
C439 C 0.46443 0.32858 0.8179 0.0
C440 C 0.45597 0.37551 0.82722 0.0
C441 C 0.40853 0.38611 0.83412 0.0
C442 C 0.36995 0.3493 0.83162 0.0
C443 C 0.37731 0.30299 0.82268 0.0
C444 C 0.33085 0.26825 0.82348 0.0
C445 C 0.30551 0.25852 0.80388 0.0
C446 C 0.34497 0.21728 0.83339 0.0
C447 C 0.2972 0.30153 0.83493 0.0
C448 C 0.32014 0.34865 0.83897 0.0
C449 C 0.298 0.38537 0.84996 0.0
C450 C 0.25196 0.37317 0.85752 0.0
C451 C 0.22857 0.32446 0.85426 0.0
C452 C 0.25101 0.2885 0.84251 0.0
H453 H 0.19451 0.84533 0.3069 0.0
H454 H 0.12327 0.79597 0.35659 0.0
H455 H 0.20774 0.79298 0.37356 0.0
H456 H 0.28946 0.75428 0.31133 0.0
H457 H 0.3377 0.79389 0.30186 0.0
H458 H 0.27156 0.80493 0.2951 0.0
H459 H 0.28138 0.90026 0.30577 0.0
H460 H 0.34769 0.88924 0.31274 0.0
H461 H 0.30563 0.91473 0.32924 0.0
H462 H 0.30136 0.786 0.38433 0.0
H463 H 0.3933 0.76341 0.38625 0.0
H464 H 0.40152 0.80454 0.32836 0.0
C465 C 0.19608 0.83395 0.32136 0.0
C466 C 0.15141 0.82101 0.33026 0.0
C467 C 0.15623 0.80738 0.34938 0.0
C468 C 0.20432 0.80539 0.3592 0.0
C469 C 0.24748 0.81665 0.34974 0.0
C470 C 0.24368 0.83008 0.33115 0.0
C471 C 0.29554 0.83224 0.32326 0.0
C472 C 0.29873 0.79405 0.30694 0.0
C473 C 0.30829 0.88741 0.31741 0.0
C474 C 0.32907 0.81582 0.3401 0.0
C475 C 0.30102 0.80899 0.35547 0.0
C476 C 0.32369 0.7917 0.37243 0.0
C477 C 0.37584 0.77919 0.37344 0.0
C478 C 0.40396 0.78266 0.35747 0.0
C479 C 0.38064 0.80233 0.34079 0.0
H480 H 0.74579 0.85634 0.55253 0.0
H481 H 0.67384 0.77505 0.59622 0.0
H482 H 0.65275 0.85822 0.61066 0.0
H483 H 0.80519 0.95107 0.58205 0.0
H484 H 0.79747 1.00328 0.56565 0.0
H485 H 0.80121 0.93795 0.55738 0.0
H486 H 0.7148 0.94962 0.53829 0.0
H487 H 0.71053 0.01492 0.54672 0.0
H488 H 0.65958 0.96995 0.54991 0.0
H489 H 0.64405 0.94768 0.62141 0.0
H490 H 0.65703 0.03856 0.63037 0.0
H491 H 0.73724 0.06527 0.58066 0.0
C492 C 0.72499 0.8564 0.565 0.0
C493 C 0.71104 0.80949 0.57328 0.0
C494 C 0.68478 0.81064 0.58975 0.0
C495 C 0.67229 0.85765 0.59791 0.0
C496 C 0.68662 0.90325 0.5895 0.0
C497 C 0.7129 0.90323 0.57354 0.0
C498 C 0.72813 0.95781 0.56851 0.0
C499 C 0.78646 0.96281 0.5684 0.0
C500 C 0.70168 0.97402 0.54974 0.0
C501 C 0.70758 0.98822 0.58445 0.0
C502 C 0.68274 0.95578 0.59609 0.0
C503 C 0.66292 0.97353 0.61233 0.0
C504 C 0.67038 0.02526 0.61728 0.0
C505 C 0.69762 0.05891 0.60612 0.0
C506 C 0.71519 0.04061 0.58917 0.0
H507 H 0.20221 0.1498 0.10183 0.0
H508 H 0.31526 0.12566 0.06177 0.0
H509 H 0.34053 0.04359 0.07705 0.0
H510 H 0.27313 0.07828 0.14295 0.0
H511 H 0.21355 0.05238 0.14975 0.0
H512 H 0.21545 0.11561 0.1395 0.0
H513 H 0.14584 0.08793 0.11415 0.0
H514 H 0.14367 0.02517 0.12432 0.0
H515 H 0.15625 0.03164 0.10014 0.0
H516 H 0.33905 0.9561 0.09157 0.0
H517 H 0.30687 0.87237 0.10231 0.0
H518 H 0.19554 0.95261 0.13317 0.0
C519 C 0.23414 0.1285 0.09696 0.0
C520 C 0.25739 0.14437 0.08086 0.0
C521 C 0.29745 0.1144 0.07427 0.0
C522 C 0.31219 0.06782 0.08292 0.0
C523 C 0.28675 0.05173 0.09826 0.0
C524 C 0.24883 0.08158 0.10535 0.0
C525 C 0.22112 0.05204 0.11969 0.0
C526 C 0.23146 0.07601 0.13913 0.0
C527 C 0.16337 0.04899 0.11423 0.0
C528 C 0.24658 0.99983 0.11852 0.0
C529 C 0.28559 1.00069 0.10659 0.0
C530 C 0.30966 0.95527 0.10137 0.0
C531 C 0.29148 0.90776 0.10764 0.0
C532 C 0.24921 0.90628 0.11873 0.0
C533 C 0.22872 0.95296 0.12505 0.0
H534 H 0.52381 0.14037 0.3934 0.0
H535 H 0.40304 0.1264 0.43091 0.0
H536 H 0.38221 0.03963 0.41838 0.0
H537 H 0.46265 0.05186 0.35387 0.0
H538 H 0.52474 0.02613 0.35 0.0
H539 H 0.51827 0.09256 0.35693 0.0
H540 H 0.58393 0.07764 0.38491 0.0
H541 H 0.59046 0.0117 0.37812 0.0
H542 H 0.57265 0.02703 0.40124 0.0
H543 H 0.39069 0.94829 0.40883 0.0
H544 H 0.42924 0.86273 0.40373 0.0
H545 H 0.54374 0.93426 0.37209 0.0
C546 C 0.49103 0.1201 0.39809 0.0
C547 C 0.46433 0.14018 0.4128 0.0
C548 C 0.42326 0.11183 0.41938 0.0
C549 C 0.41114 0.06256 0.4123 0.0
C550 C 0.44026 0.04221 0.39854 0.0
C551 C 0.47899 0.07052 0.39129 0.0
C552 C 0.51091 0.03697 0.37936 0.0
C553 C 0.50368 0.05283 0.35882 0.0
C554 C 0.56777 0.03841 0.38635 0.0
C555 C 0.48711 0.98472 0.3824 0.0
C556 C 0.44519 0.98861 0.39294 0.0
C557 C 0.42217 0.94481 0.39998 0.0
C558 C 0.44401 0.89627 0.39697 0.0
C559 C 0.48836 0.8923 0.38709 0.0
C560 C 0.50852 0.93659 0.37903 0.0
H561 H 0.9879 0.89188 0.93681 0.0
H562 H 0.0634 0.79401 0.89814 0.0
H563 H 0.09233 0.8712 0.88199 0.0
H564 H 0.94331 0.98564 0.90425 0.0
H565 H 0.95379 0.03983 0.91979 0.0
H566 H 0.94161 0.97703 0.92903 0.0
H567 H 0.02577 0.98296 0.94996 0.0
H568 H 0.03828 0.0457 0.9406 0.0
H569 H 0.08493 0.99513 0.93947 0.0
H570 H 0.10887 0.95751 0.86894 0.0
H571 H 0.1077 0.04796 0.85852 0.0
H572 H 0.02422 0.09187 0.90592 0.0
C573 C 0.01103 0.88669 0.92507 0.0
C574 C 0.02312 0.83666 0.9187 0.0
C575 C 0.05283 0.83168 0.90311 0.0
C576 C 0.07003 0.87537 0.89399 0.0
C577 C 0.0576 0.92394 0.90067 0.0
C578 C 0.0287 0.92999 0.91582 0.0
C579 C 0.0185 0.98666 0.91951 0.0
C580 C 0.96088 0.99794 0.91805 0.0
C581 C 0.04335 1.00359 0.93852 0.0
C582 C 0.04495 0.01142 0.90372 0.0
C583 C 0.06784 0.97436 0.89321 0.0
C584 C 0.09179 0.98691 0.8772 0.0
C585 C 0.09105 0.03834 0.87142 0.0
C586 C 0.0668 0.07677 0.88163 0.0
C587 C 0.04444 0.06341 0.89823 0.0
H588 H 0.24355 0.18538 0.00975 0.0
H589 H 0.08976 0.20202 0.02687 0.0
H590 H 0.05527 0.17667 0.99523 0.0
H591 H 0.22087 0.2455 0.96777 0.0
H592 H 0.26356 0.20598 0.95529 0.0
H593 H 0.27438 0.21409 0.97998 0.0
H594 H 0.27297 0.11459 0.98374 0.0
H595 H 0.26048 0.10663 0.95895 0.0
H596 H 0.21799 0.07849 0.97471 0.0
H597 H 0.03779 0.16013 0.9611 0.0
H598 H 0.0388 0.17402 0.92724 0.0
H599 H 0.20368 0.17146 0.93189 0.0
C600 C 0.20265 0.18251 0.00685 0.0
C601 C 0.16913 0.19512 0.02061 0.0
C602 C 0.11585 0.19236 0.01639 0.0
C603 C 0.09605 0.1773 -0.00143 0.0
C604 C 0.13011 0.16523 0.98515 0.0
C605 C 0.18236 0.16847 0.98905 0.0
C606 C 0.21065 0.16226 0.97158 0.0
C607 C 0.24427 0.20978 0.96847 0.0
C608 C 0.2424 0.11252 0.9723 0.0
C609 C 0.1662 0.15819 0.95707 0.0
C610 C 0.12005 0.15756 0.96524 0.0
C611 C 0.07365 0.15961 0.95456 0.0
C612 C 0.07447 0.16674 0.93525 0.0
C613 C 0.12134 0.17308 0.92703 0.0
C614 C 0.16747 0.16519 0.93786 0.0
H615 H 0.09591 0.72486 0.27151 0.0
H616 H 0.00779 0.86453 0.26205 0.0
H617 H 0.01706 0.85656 0.22814 0.0
H618 H 0.1855 0.74796 0.2398 0.0
H619 H 0.19066 0.68223 0.23196 0.0
H620 H 0.17164 0.6955 0.255 0.0
H621 H 0.08895 0.64205 0.24815 0.0
H622 H 0.10798 0.62819 0.22508 0.0
H623 H 0.04685 0.65736 0.2281 0.0
H624 H 0.04788 0.84037 0.19616 0.0
H625 H 0.08941 0.812 0.16814 0.0
H626 H 0.15334 0.68047 0.19858 0.0
C627 C 0.07774 0.75311 0.26222 0.0
C628 C 0.05116 0.79525 0.26924 0.0
C629 C 0.02789 0.8317 0.2568 0.0
C630 C 0.03311 0.82756 0.23758 0.0
C631 C 0.06092 0.78627 0.23112 0.0
C632 C 0.08198 0.74913 0.24304 0.0
C633 C 0.112 0.70988 0.23277 0.0
C634 C 0.16826 0.70888 0.24033 0.0
C635 C 0.08746 0.65619 0.23357 0.0
C636 C 0.10624 0.73176 0.21333 0.0
C637 C 0.07662 0.77577 0.2126 0.0
C638 C 0.06983 0.80508 0.19643 0.0
C639 C 0.09338 0.78854 0.18055 0.0
C640 C 0.1236 0.74334 0.18103 0.0
C641 C 0.12967 0.71464 0.19764 0.0
H642 H 0.75242 0.66854 0.5075 0.0
H643 H 0.6077 0.69008 0.5317 0.0
H644 H 0.56214 0.66399 0.5019 0.0
H645 H 0.71807 0.72775 0.46678 0.0
H646 H 0.75409 0.68671 0.45226 0.0
H647 H 0.77366 0.69399 0.47645 0.0
H648 H 0.76956 0.59452 0.48011 0.0
H649 H 0.74823 0.58756 0.45588 0.0
H650 H 0.71095 0.56084 0.4736 0.0
H651 H 0.53258 0.64947 0.46891 0.0
H652 H 0.52205 0.66766 0.43529 0.0
H653 H 0.68513 0.65815 0.43175 0.0
C654 C 0.71116 0.6664 0.50653 0.0
C655 C 0.68332 0.68084 0.52174 0.0
C656 C 0.62944 0.67907 0.52007 0.0
C657 C 0.6034 0.66352 0.50332 0.0
C658 C 0.63185 0.64988 0.48839 0.0
C659 C 0.68464 0.65186 0.48979 0.0
C660 C 0.70601 0.64492 0.47097 0.0
C661 C 0.73986 0.6911 0.46634 0.0
C662 C 0.73543 0.59392 0.4701 0.0
C663 C 0.65704 0.64282 0.45856 0.0
C664 C 0.61464 0.64296 0.46896 0.0
C665 C 0.56535 0.64803 0.46061 0.0
C666 C 0.55953 0.65769 0.44143 0.0
C667 C 0.6028 0.66317 0.43104 0.0
C668 C 0.65158 0.65201 0.43939 0.0
H669 H 0.62275 0.22176 0.76878 0.0
H670 H 0.51849 0.34771 0.75531 0.0
H671 H 0.53551 0.33936 0.72206 0.0
H672 H 0.71521 0.25703 0.73929 0.0
H673 H 0.73145 0.19249 0.7325 0.0
H674 H 0.70616 0.20378 0.75473 0.0
H675 H 0.63324 0.13838 0.74665 0.0
H676 H 0.65873 0.1263 0.72444 0.0
H677 H 0.59327 0.14618 0.72547 0.0
H678 H 0.57343 0.32515 0.69118 0.0
H679 H 0.62291 0.30064 0.66458 0.0
H680 H 0.69952 0.1816 0.69812 0.0
C681 C 0.60278 0.2469 0.75876 0.0
C682 C 0.56924 0.2853 0.76455 0.0
C683 C 0.54381 0.31758 0.75109 0.0
C684 C 0.55347 0.31331 0.73222 0.0
C685 C 0.58816 0.27615 0.72706 0.0
C686 C 0.61175 0.24293 0.73991 0.0
C687 C 0.64929 0.20806 0.731 0.0
C688 C 0.70373 0.21584 0.73991 0.0
C689 C 0.63261 0.15137 0.73194 0.0
C690 C 0.64433 0.22785 0.71124 0.0
C691 C 0.60881 0.26704 0.7092 0.0
C692 C 0.60034 0.29361 0.69249 0.0
C693 C 0.62849 0.27928 0.67743 0.0
C694 C 0.66392 0.23817 0.67908 0.0
C695 C 0.67205 0.21258 0.6963 0.0
H696 H 0.08873 0.775 0.97578 0.0
H697 H 0.9465 0.69742 0.98541 0.0
H698 H 0.98266 0.6701 0.01639 0.0
H699 H 0.17398 0.68532 -0.00082 0.0
H700 H 0.21627 0.7343 0.00919 0.0
H701 H 0.18043 0.74587 0.98736 0.0
H702 H 0.1407 0.82853 0.00072 0.0
H703 H 0.17813 0.81825 0.02223 0.0
H704 H 0.10984 0.82479 0.02227 0.0
H705 H 0.03495 0.65054 0.04626 0.0
H706 H 0.09002 0.65918 0.07535 0.0
H707 H 0.19594 0.75239 0.04638 0.0
C708 C 0.0646 0.75323 0.9845 0.0
C709 C 0.01486 0.73801 0.97803 0.0
C710 C 0.98503 0.70891 0.98992 0.0
C711 C 0.00536 0.69285 0.00748 0.0
C712 C 0.0554 0.70654 0.01301 0.0
C713 C 0.08404 0.73731 0.00208 0.0
C714 C 0.13531 0.75022 0.0118 0.0
C715 C 0.17907 0.72756 0.00125 0.0
C716 C 0.14132 0.80891 0.01442 0.0
C717 C 0.1306 0.72293 0.03012 0.0
C718 C 0.08488 0.69663 0.03038 0.0
C719 C 0.07095 0.67082 0.04621 0.0
C720 C 0.10281 0.67528 0.06261 0.0
C721 C 0.14715 0.70635 0.06301 0.0
C722 C 0.16257 0.72782 0.04632 0.0
H723 H 0.69043 0.73533 0.23054 0.0
H724 H 0.72012 0.89872 0.23667 0.0
H725 H 0.7146 0.89153 0.27087 0.0
H726 H 0.59756 0.72789 0.26065 0.0
H727 H 0.6147 0.66563 0.27018 0.0
H728 H 0.63114 0.68203 0.24715 0.0
H729 H 0.72628 0.6626 0.25645 0.0
H730 H 0.71013 0.64612 0.27963 0.0
H731 H 0.75762 0.69478 0.27633 0.0
H732 H 0.69253 0.86826 0.30343 0.0
H733 H 0.65336 0.832 0.33084 0.0
H734 H 0.6394 0.68368 0.30312 0.0
C735 C 0.69737 0.76909 0.23925 0.0
C736 C 0.70628 0.81737 0.2313 0.0
C737 C 0.71394 0.86134 0.24278 0.0
C738 C 0.71103 0.8575 0.26213 0.0
C739 C 0.70097 0.8093 0.26963 0.0
C740 C 0.69478 0.76577 0.25851 0.0
C741 C 0.6788 0.71974 0.26951 0.0
C742 C 0.62751 0.69758 0.26139 0.0
C743 C 0.72072 0.67836 0.27054 0.0
C744 C 0.67388 0.7447 0.28828 0.0
C745 C 0.68795 0.79606 0.28828 0.0
C746 C 0.68243 0.82785 0.3037 0.0
C747 C 0.66053 0.8069 0.31926 0.0
C748 C 0.64425 0.75491 0.31913 0.0
C749 C 0.65237 0.72334 0.30365 0.0
H750 H 0.61835 0.24774 0.47141 0.0
H751 H 0.48754 0.1496 0.47926 0.0
H752 H 0.52631 0.12344 0.50986 0.0
H753 H 0.7163 0.16991 0.4969 0.0
H754 H 0.74807 0.22567 0.50726 0.0
H755 H 0.71454 0.23038 0.48463 0.0
H756 H 0.65965 0.30556 0.49621 0.0
H757 H 0.69411 0.30192 0.51859 0.0
H758 H 0.62551 0.29685 0.51685 0.0
H759 H 0.57632 0.11222 0.54065 0.0
H760 H 0.62281 0.13186 0.57092 0.0
H761 H 0.71689 0.24167 0.54377 0.0
C762 C 0.59754 0.22085 0.47949 0.0
C763 C 0.5501 0.20021 0.4726 0.0
C764 C 0.52462 0.16498 0.48385 0.0
C765 C 0.5464 0.1497 0.50129 0.0
C766 C 0.59355 0.17022 0.50748 0.0
C767 C 0.61825 0.20588 0.49706 0.0
C768 C 0.66496 0.22749 0.50783 0.0
C769 C 0.71386 0.21244 0.4986 0.0
C770 C 0.66077 0.28641 0.51001 0.0
C771 C 0.66152 0.19999 0.5262 0.0
C772 C 0.62118 0.16565 0.52554 0.0
C773 C 0.60834 0.13858 0.54129 0.0
C774 C 0.63526 0.14949 0.55839 0.0
C775 C 0.67341 0.18802 0.55954 0.0
C776 C 0.68836 0.21142 0.54312 0.0
H777 H 0.17694 0.23566 0.72346 0.0
H778 H 0.22953 0.39327 0.7299 0.0
H779 H 0.21776 0.38914 0.76384 0.0
H780 H 0.08065 0.24062 0.75445 0.0
H781 H 0.09156 0.17654 0.76344 0.0
H782 H 0.10772 0.1918 0.74024 0.0
H783 H 0.20059 0.16112 0.74841 0.0
H784 H 0.18464 0.14615 0.77173 0.0
H785 H 0.23686 0.18921 0.76809 0.0
H786 H 0.19151 0.36941 0.79638 0.0
H787 H 0.15279 0.33633 0.82436 0.0
H788 H 0.12415 0.18961 0.79663 0.0
C789 C 0.18607 0.26911 0.73211 0.0
C790 C 0.20345 0.31495 0.72433 0.0
C791 C 0.21572 0.35805 0.73584 0.0
C792 C 0.20948 0.35585 0.75504 0.0
C793 C 0.19197 0.30993 0.76238 0.0
C794 C 0.18087 0.26724 0.75124 0.0
C795 C 0.16099 0.22309 0.76227 0.0
C796 C 0.10704 0.20712 0.75465 0.0
C797 C 0.19799 0.17718 0.76265 0.0
C798 C 0.16044 0.24817 0.78121 0.0
C799 C 0.17898 0.29805 0.78112 0.0
C800 C 0.1781 0.33 0.79673 0.0
C801 C 0.15662 0.31075 0.81263 0.0
C802 C 0.13704 0.25995 0.81282 0.0
C803 C 0.1399 0.22823 0.797 0.0
loop_
_geom_bond_atom_site_label_1
_geom_bond_atom_site_label_2
_geom_bond_distance
_geom_bond_site_symmetry_2
_ccdc_geom_bond_type
H0 C3 0.931 . S
H1 C6 0.928 . S
H2 C8 0.930 . S
C3 H0 0.931 . S
C3 C4 1.413 . S
C3 C5 1.360 . S
C4 C3 1.413 . S
C4 C8 1.429 . S
C5 C3 1.360 . S
C5 C6 1.372 . S
C6 H1 0.928 . S
C6 C5 1.372 . S
C6 C7 1.404 . S
C7 C6 1.404 . S
C7 C8 1.391 . S
C8 H2 0.930 . S
C8 C4 1.429 . S
C8 C7 1.391 . S
H9 C12 0.931 . S
H10 C15 0.928 . S
H11 C17 0.930 . S
C12 H9 0.931 . S
C12 C13 1.413 . S
C12 C14 1.360 . S
C13 C12 1.413 . S
C13 C17 1.429 . S
C14 C12 1.360 . S
C14 C15 1.372 . S
C15 H10 0.928 . S
C15 C14 1.372 . S
C15 C16 1.404 . S
C16 C15 1.404 . S
C16 C17 1.391 . S
C17 H11 0.930 . S
C17 C13 1.429 . S
C17 C16 1.391 . S
H18 C21 0.931 . S
H19 C24 0.928 . S
H20 C26 0.930 . S
C21 H18 0.931 . S
C21 C22 1.413 . S
C21 C23 1.360 . S
C22 C21 1.413 . S
C22 C26 1.429 . S
C23 C21 1.360 . S
C23 C24 1.372 . S
C24 H19 0.928 . S
C24 C23 1.372 . S
C24 C25 1.404 . S
C25 C24 1.404 . S
C25 C26 1.391 . S
C26 H20 0.930 . S
C26 C22 1.429 . S
C26 C25 1.391 . S
H27 C30 0.931 . S
H28 C33 0.928 . S
H29 C35 0.930 . S
C30 H27 0.931 . S
C30 C31 1.413 . S
C30 C32 1.360 . S
C31 C30 1.413 . S
C31 C35 1.429 . S
C32 C30 1.360 . S
C32 C33 1.372 . S
C33 H28 0.928 . S
C33 C32 1.372 . S
C33 C34 1.404 . S
C34 C33 1.404 . S
C34 C35 1.391 . S
C35 H29 0.930 . S
C35 C31 1.429 . S
C35 C34 1.391 . S
H36 C39 0.931 . S
H37 C42 0.928 . S
H38 C44 0.930 . S
C39 H36 0.931 . S
C39 C40 1.413 . S
C39 C41 1.360 . S
C40 C39 1.413 . S
C40 C44 1.429 . S
C41 C39 1.360 . S
C41 C42 1.372 . S
C42 H37 0.928 . S
C42 C41 1.372 . S
C42 C43 1.404 . S
C43 C42 1.404 . S
C43 C44 1.391 . S
C44 H38 0.930 . S
C44 C40 1.429 . S
C44 C43 1.391 . S
H45 C48 0.931 . S
H46 C51 0.928 . S
H47 C53 0.930 . S
C48 H45 0.931 . S
C48 C49 1.413 . S
C48 C50 1.360 . S
C49 C48 1.413 . S
C49 C53 1.429 . S
C50 C48 1.360 . S
C50 C51 1.372 . S
C51 H46 0.928 . S
C51 C50 1.372 . S
C51 C52 1.404 . S
C52 C51 1.404 . S
C52 C53 1.391 . S
C53 H47 0.930 . S
C53 C49 1.429 . S
C53 C52 1.391 . S
H54 C57 0.931 . S
H55 C60 0.928 . S
H56 C62 0.930 . S
C57 H54 0.931 . S
C57 C58 1.413 . S
C57 C59 1.360 . S
C58 C57 1.413 . S
C58 C62 1.429 . S
C59 C57 1.360 . S
C59 C60 1.372 . S
C60 H55 0.928 . S
C60 C59 1.372 . S
C60 C61 1.404 . S
C61 C60 1.404 . S
C61 C62 1.391 . S
C62 H56 0.930 . S
C62 C58 1.429 . S
C62 C61 1.391 . S
H63 C66 0.931 . S
H64 C69 0.928 . S
H65 C71 0.930 . S
C66 H63 0.931 . S
C66 C67 1.413 . S
C66 C68 1.360 . S
C67 C66 1.413 . S
C67 C71 1.429 . S
C68 C66 1.360 . S
C68 C69 1.372 . S
C69 H64 0.928 . S
C69 C68 1.372 . S
C69 C70 1.404 . S
C70 C69 1.404 . S
C70 C71 1.391 . S
C71 H65 0.930 . S
C71 C67 1.429 . S
C71 C70 1.391 . S
Zn72 O78 1.920 . S
Zn72 O84 1.898 . S
Zn72 O87 1.905 . S
Zn73 O81 1.905 . S
Zn73 O82 1.898 . S
Zn73 O90 1.920 . S
Zn74 O77 2.080 . S
Zn74 O80 2.114 . S
Zn74 O83 2.120 . S
Zn74 O85 2.120 . S
Zn74 O86 2.114 . S
Zn74 O89 2.080 . S
C75 O80 1.166 . S
C75 O81 1.182 . S
C76 O82 1.167 . S
C76 O83 1.299 . S
O77 Zn74 2.080 . S
O77 C91 1.305 . S
O78 Zn72 1.920 . S
O78 C91 1.234 . S
C79 O84 1.167 . S
C79 O85 1.299 . S
O80 Zn74 2.114 . S
O80 C75 1.166 . S
O81 Zn73 1.905 . S
O81 C75 1.182 . S
O82 Zn73 1.898 . S
O82 C76 1.167 . S
O83 Zn74 2.120 . S
O83 C76 1.299 . S
O84 Zn72 1.898 . S
O84 C79 1.167 . S
O85 Zn74 2.120 . S
O85 C79 1.299 . S
O86 Zn74 2.114 . S
O86 C88 1.166 . S
O87 Zn72 1.905 . S
O87 C88 1.182 . S
C88 O86 1.166 . S
C88 O87 1.182 . S
O89 Zn74 2.080 . S
O89 C92 1.305 . S
O90 Zn73 1.920 . S
O90 C92 1.234 . S
C91 O77 1.305 . S
C91 O78 1.234 . S
C92 O89 1.305 . S
C92 O90 1.234 . S
Zn93 O99 1.920 . S
Zn93 O105 1.898 . S
Zn93 O108 1.905 . S
Zn94 O102 1.905 . S
Zn94 O103 1.898 . S
Zn94 O111 1.920 . S
Zn95 O98 2.080 . S
Zn95 O101 2.114 . S
Zn95 O104 2.120 . S
Zn95 O106 2.120 . S
Zn95 O107 2.114 . S
Zn95 O110 2.080 . S
C96 O101 1.166 . S
C96 O102 1.182 . S
C97 O103 1.167 . S
C97 O104 1.299 . S
O98 Zn95 2.080 . S
O98 C112 1.305 . S
O99 Zn93 1.920 . S
O99 C112 1.234 . S
C100 O105 1.167 . S
C100 O106 1.299 . S
O101 Zn95 2.114 . S
O101 C96 1.166 . S
O102 Zn94 1.905 . S
O102 C96 1.182 . S
O103 Zn94 1.898 . S
O103 C97 1.167 . S
O104 Zn95 2.120 . S
O104 C97 1.299 . S
O105 Zn93 1.898 . S
O105 C100 1.167 . S
O106 Zn95 2.120 . S
O106 C100 1.299 . S
O107 Zn95 2.114 . S
O107 C109 1.166 . S
O108 Zn93 1.905 . S
O108 C109 1.182 . S
C109 O107 1.166 . S
C109 O108 1.182 . S
O110 Zn95 2.080 . S
O110 C113 1.305 . S
O111 Zn94 1.920 . S
O111 C113 1.234 . S
C112 O98 1.305 . S
C112 O99 1.234 . S
C113 O110 1.305 . S
C113 O111 1.234 . S
Zn114 O120 1.920 . S
Zn114 O126 1.898 . S
Zn114 O129 1.905 . S
Zn115 O123 1.905 . S
Zn115 O124 1.898 . S
Zn115 O132 1.920 . S
Zn116 O119 2.080 . S
Zn116 O122 2.114 . S
Zn116 O125 2.120 . S
Zn116 O127 2.120 . S
Zn116 O128 2.114 . S
Zn116 O131 2.080 . S
C117 O122 1.166 . S
C117 O123 1.182 . S
C118 O124 1.167 . S
C118 O125 1.299 . S
O119 Zn116 2.080 . S
O119 C133 1.305 . S
O120 Zn114 1.920 . S
O120 C133 1.234 . S
C121 O126 1.167 . S
C121 O127 1.299 . S
O122 Zn116 2.114 . S
O122 C117 1.166 . S
O123 Zn115 1.905 . S
O123 C117 1.182 . S
O124 Zn115 1.898 . S
O124 C118 1.167 . S
O125 Zn116 2.120 . S
O125 C118 1.299 . S
O126 Zn114 1.898 . S
O126 C121 1.167 . S
O127 Zn116 2.120 . S
O127 C121 1.299 . S
O128 Zn116 2.114 . S
O128 C130 1.166 . S
O129 Zn114 1.905 . S
O129 C130 1.182 . S
C130 O128 1.166 . S
C130 O129 1.182 . S
O131 Zn116 2.080 . S
O131 C134 1.305 . S
O132 Zn115 1.920 . S
O132 C134 1.234 . S
C133 O119 1.305 . S
C133 O120 1.234 . S
C134 O131 1.305 . S
C134 O132 1.234 . S
Zn135 O141 1.920 . S
Zn135 O147 1.898 . S
Zn135 O150 1.905 1_455 S
Zn136 O144 1.905 . S
Zn136 O145 1.898 . S
Zn136 O153 1.920 . S
Zn137 O140 2.080 . S
Zn137 O143 2.114 . S
Zn137 O146 2.120 . S
Zn137 O148 2.120 . S
Zn137 O149 2.114 . S
Zn137 O152 2.080 . S
C138 O143 1.166 . S
C138 O144 1.182 . S
C139 O145 1.167 . S
C139 O146 1.299 . S
O140 Zn137 2.080 . S
O140 C154 1.305 . S
O141 Zn135 1.920 . S
O141 C154 1.234 . S
C142 O147 1.167 . S
C142 O148 1.299 . S
O143 Zn137 2.114 . S
O143 C138 1.166 . S
O144 Zn136 1.905 . S
O144 C138 1.182 . S
O145 Zn136 1.898 . S
O145 C139 1.167 . S
O146 Zn137 2.120 . S
O146 C139 1.299 . S
O147 Zn135 1.898 . S
O147 C142 1.167 . S
O148 Zn137 2.120 . S
O148 C142 1.299 . S
O149 Zn137 2.114 . S
O149 C151 1.166 . S
O150 Zn135 1.905 1_655 S
O150 C151 1.182 1_655 S
C151 O149 1.166 . S
C151 O150 1.182 1_455 S
O152 Zn137 2.080 . S
O152 C155 1.305 . S
O153 Zn136 1.920 . S
O153 C155 1.234 . S
C154 O140 1.305 . S
C154 O141 1.234 . S
C155 O152 1.305 . S
C155 O153 1.234 . S
H156 C168 0.930 . S
H157 C170 0.930 . S
H158 C171 0.930 . S
H159 C175 0.959 . S
H160 C175 0.959 . S
H161 C175 0.961 . S
H162 C176 0.960 . S
H163 C176 0.961 . S
H164 C176 0.959 . S
H165 C179 0.929 . S
H166 C180 0.931 . S
H167 C182 0.930 . S
C168 H156 0.930 . S
C168 C169 1.399 . S
C168 C173 1.399 . S
C169 C168 1.399 . S
C169 C170 1.376 . S
C170 H157 0.930 . S
C170 C169 1.376 . S
C170 C171 1.388 . S
C171 H158 0.930 . S
C171 C170 1.388 . S
C171 C172 1.390 . S
C172 C171 1.390 . S
C172 C173 1.394 . S
C172 C178 1.465 . S
C173 C168 1.399 . S
C173 C172 1.394 . S
C173 C174 1.516 . S
C174 C173 1.516 . S
C174 C175 1.502 . S
C174 C176 1.561 . S
C174 C177 1.526 . S
C175 H159 0.959 . S
C175 H160 0.959 . S
C175 H161 0.961 . S
C175 C174 1.502 . S
C176 H162 0.960 . S
C176 H163 0.961 . S
C176 H164 0.959 . S
C176 C174 1.561 . S
C177 C174 1.526 . S
C177 C178 1.396 . S
C177 C182 1.390 . S
C178 C172 1.465 . S
C178 C177 1.396 . S
C178 C179 1.399 . S
C179 H165 0.929 . S
C179 C178 1.399 . S
C179 C180 1.385 . S
C180 H166 0.931 . S
C180 C179 1.385 . S
C180 C181 1.389 . S
C181 C180 1.389 . S
C181 C182 1.387 . S
C182 H167 0.930 . S
C182 C177 1.390 . S
C182 C181 1.387 . S
H183 C195 0.930 . S
H184 C197 0.930 . S
H185 C198 0.930 . S
H186 C202 0.959 . S
H187 C202 0.959 . S
H188 C202 0.961 . S
H189 C203 0.960 . S
H190 C203 0.961 . S
H191 C203 0.959 . S
H192 C206 0.929 . S
H193 C207 0.931 . S
H194 C209 0.930 . S
C195 H183 0.930 . S
C195 C196 1.399 1_655 S
C195 C200 1.399 . S
C196 C195 1.399 1_455 S
C196 C197 1.376 . S
C197 H184 0.930 . S
C197 C196 1.376 . S
C197 C198 1.388 1_455 S
C198 H185 0.930 . S
C198 C197 1.388 1_655 S
C198 C199 1.390 . S
C199 C198 1.390 . S
C199 C200 1.394 . S
C199 C205 1.465 . S
C200 C195 1.399 . S
C200 C199 1.394 . S
C200 C201 1.516 . S
C201 C200 1.516 . S
C201 C202 1.502 . S
C201 C203 1.561 . S
C201 C204 1.526 . S
C202 H186 0.959 . S
C202 H187 0.959 . S
C202 H188 0.961 . S
C202 C201 1.502 . S
C203 H189 0.960 . S
C203 H190 0.961 . S
C203 H191 0.959 . S
C203 C201 1.561 . S
C204 C201 1.526 . S
C204 C205 1.396 . S
C204 C209 1.390 . S
C205 C199 1.465 . S
C205 C204 1.396 . S
C205 C206 1.399 . S
C206 H192 0.929 . S
C206 C205 1.399 . S
C206 C207 1.385 . S
C207 H193 0.931 . S
C207 C206 1.385 . S
C207 C208 1.389 . S
C208 C207 1.389 . S
C208 C209 1.387 . S
C209 H194 0.930 . S
C209 C204 1.390 . S
C209 C208 1.387 . S
H210 C222 0.930 . S
H211 C224 0.930 . S
H212 C225 0.930 . S
H213 C229 0.959 . S
H214 C229 0.959 . S
H215 C229 0.961 . S
H216 C230 0.960 . S
H217 C230 0.961 . S
H218 C230 0.959 . S
H219 C233 0.929 . S
H220 C234 0.931 . S
H221 C236 0.930 . S
C222 H210 0.930 . S
C222 C223 1.399 . S
C222 C227 1.399 . S
C223 C222 1.399 . S
C223 C224 1.376 . S
C224 H211 0.930 . S
C224 C223 1.376 . S
C224 C225 1.388 . S
C225 H212 0.930 . S
C225 C224 1.388 . S
C225 C226 1.390 . S
C226 C225 1.390 . S
C226 C227 1.394 . S
C226 C232 1.465 . S
C227 C222 1.399 . S
C227 C226 1.394 . S
C227 C228 1.516 . S
C228 C227 1.516 . S
C228 C229 1.502 . S
C228 C230 1.561 . S
C228 C231 1.526 . S
C229 H213 0.959 . S
C229 H214 0.959 . S
C229 H215 0.961 . S
C229 C228 1.502 . S
C230 H216 0.960 . S
C230 H217 0.961 . S
C230 H218 0.959 . S
C230 C228 1.561 . S
C231 C228 1.526 . S
C231 C232 1.396 . S
C231 C236 1.390 . S
C232 C226 1.465 . S
C232 C231 1.396 . S
C232 C233 1.399 . S
C233 H219 0.929 . S
C233 C232 1.399 . S
C233 C234 1.385 . S
C234 H220 0.931 . S
C234 C233 1.385 . S
C234 C235 1.389 . S
C235 C234 1.389 . S
C235 C236 1.387 . S
C236 H221 0.930 . S
C236 C231 1.390 . S
C236 C235 1.387 . S
H237 C249 0.930 . S
H238 C251 0.930 . S
H239 C252 0.930 . S
H240 C256 0.959 . S
H241 C256 0.959 . S
H242 C256 0.961 . S
H243 C257 0.960 . S
H244 C257 0.961 . S
H245 C257 0.959 . S
H246 C260 0.929 . S
H247 C261 0.931 . S
H248 C263 0.930 . S
C249 H237 0.930 . S
C249 C250 1.399 . S
C249 C254 1.399 . S
C250 C249 1.399 . S
C250 C251 1.376 . S
C251 H238 0.930 . S
C251 C250 1.376 . S
C251 C252 1.388 . S
C252 H239 0.930 . S
C252 C251 1.388 . S
C252 C253 1.390 . S
C253 C252 1.390 . S
C253 C254 1.394 . S
C253 C259 1.465 . S
C254 C249 1.399 . S
C254 C253 1.394 . S
C254 C255 1.516 . S
C255 C254 1.516 . S
C255 C256 1.502 . S
C255 C257 1.561 . S
C255 C258 1.526 . S
C256 H240 0.959 . S
C256 H241 0.959 . S
C256 H242 0.961 . S
C256 C255 1.502 . S
C257 H243 0.960 . S
C257 H244 0.961 . S
C257 H245 0.959 . S
C257 C255 1.561 . S
C258 C255 1.526 . S
C258 C259 1.396 . S
C258 C263 1.390 . S
C259 C253 1.465 . S
C259 C258 1.396 . S
C259 C260 1.399 . S
C260 H246 0.929 . S
C260 C259 1.399 . S
C260 C261 1.385 . S
C261 H247 0.931 . S
C261 C260 1.385 . S
C261 C262 1.389 . S
C262 C261 1.389 . S
C262 C263 1.387 . S
C263 H248 0.930 . S
C263 C258 1.390 . S
C263 C262 1.387 . S
H264 C276 0.930 . S
H265 C278 0.930 . S
H266 C279 0.930 . S
H267 C283 0.959 . S
H268 C283 0.959 . S
H269 C283 0.961 . S
H270 C284 0.960 . S
H271 C284 0.961 . S
H272 C284 0.959 1_655 S
H273 C287 0.929 . S
H274 C288 0.931 . S
H275 C290 0.930 . S
C276 H264 0.930 . S
C276 C277 1.399 . S
C276 C281 1.399 . S
C277 C276 1.399 . S
C277 C278 1.376 . S
C278 H265 0.930 . S
C278 C277 1.376 . S
C278 C279 1.388 . S
C279 H266 0.930 . S
C279 C278 1.388 . S
C279 C280 1.390 . S
C280 C279 1.390 . S
C280 C281 1.394 . S
C280 C286 1.465 . S
C281 C276 1.399 . S
C281 C280 1.394 . S
C281 C282 1.516 . S
C282 C281 1.516 . S
C282 C283 1.502 . S
C282 C284 1.561 . S
C282 C285 1.526 . S
C283 H267 0.959 . S
C283 H268 0.959 . S
C283 H269 0.961 . S
C283 C282 1.502 . S
C284 H270 0.960 . S
C284 H271 0.961 . S
C284 H272 0.959 1_455 S
C284 C282 1.561 . S
C285 C282 1.526 . S
C285 C286 1.396 . S
C285 C290 1.390 . S
C286 C280 1.465 . S
C286 C285 1.396 . S
C286 C287 1.399 . S
C287 H273 0.929 . S
C287 C286 1.399 . S
C287 C288 1.385 . S
C288 H274 0.931 . S
C288 C287 1.385 . S
C288 C289 1.389 . S
C289 C288 1.389 . S
C289 C290 1.387 . S
C290 H275 0.930 . S
C290 C285 1.390 . S
C290 C289 1.387 . S
H291 C303 0.930 . S
H292 C305 0.930 . S
H293 C306 0.930 . S
H294 C310 0.959 . S
H295 C310 0.959 . S
H296 C310 0.961 . S
H297 C311 0.960 . S
H298 C311 0.961 . S
H299 C311 0.959 . S
H300 C314 0.929 . S
H301 C315 0.931 . S
H302 C317 0.930 . S
C303 H291 0.930 . S
C303 C304 1.399 . S
C303 C308 1.399 . S
C304 C303 1.399 . S
C304 C305 1.376 . S
C305 H292 0.930 . S
C305 C304 1.376 . S
C305 C306 1.388 . S
C306 H293 0.930 . S
C306 C305 1.388 . S
C306 C307 1.390 . S
C307 C306 1.390 . S
C307 C308 1.394 . S
C307 C313 1.465 . S
C308 C303 1.399 . S
C308 C307 1.394 . S
C308 C309 1.516 . S
C309 C308 1.516 . S
C309 C310 1.502 . S
C309 C311 1.561 . S
C309 C312 1.526 . S
C310 H294 0.959 . S
C310 H295 0.959 . S
C310 H296 0.961 . S
C310 C309 1.502 . S
C311 H297 0.960 . S
C311 H298 0.961 . S
C311 H299 0.959 . S
C311 C309 1.561 . S
C312 C309 1.526 . S
C312 C313 1.396 . S
C312 C317 1.390 . S
C313 C307 1.465 . S
C313 C312 1.396 . S
C313 C314 1.399 . S
C314 H300 0.929 . S
C314 C313 1.399 . S
C314 C315 1.385 . S
C315 H301 0.931 . S
C315 C314 1.385 . S
C315 C316 1.389 . S
C316 C315 1.389 . S
C316 C317 1.387 . S
C317 H302 0.930 . S
C317 C312 1.390 . S
C317 C316 1.387 . S
H318 C330 0.930 . S
H319 C332 0.930 . S
H320 C333 0.930 . S
H321 C337 0.959 . S
H322 C337 0.959 . S
H323 C337 0.961 . S
H324 C338 0.960 . S
H325 C338 0.961 . S
H326 C338 0.959 . S
H327 C341 0.929 . S
H328 C342 0.931 . S
H329 C344 0.930 . S
C330 H318 0.930 . S
C330 C331 1.399 . S
C330 C335 1.399 . S
C331 C330 1.399 . S
C331 C332 1.376 . S
C332 H319 0.930 . S
C332 C331 1.376 . S
C332 C333 1.388 . S
C333 H320 0.930 . S
C333 C332 1.388 . S
C333 C334 1.390 . S
C334 C333 1.390 . S
C334 C335 1.394 . S
C334 C340 1.465 . S
C335 C330 1.399 . S
C335 C334 1.394 . S
C335 C336 1.516 . S
C336 C335 1.516 . S
C336 C337 1.502 . S
C336 C338 1.561 . S
C336 C339 1.526 . S
C337 H321 0.959 . S
C337 H322 0.959 . S
C337 H323 0.961 . S
C337 C336 1.502 . S
C338 H324 0.960 . S
C338 H325 0.961 . S
C338 H326 0.959 . S
C338 C336 1.561 . S
C339 C336 1.526 . S
C339 C340 1.396 . S
C339 C344 1.390 . S
C340 C334 1.465 . S
C340 C339 1.396 . S
C340 C341 1.399 . S
C341 H327 0.929 . S
C341 C340 1.399 . S
C341 C342 1.385 . S
C342 H328 0.931 . S
C342 C341 1.385 . S
C342 C343 1.389 . S
C343 C342 1.389 . S
C343 C344 1.387 . S
C344 H329 0.930 . S
C344 C339 1.390 . S
C344 C343 1.387 . S
H345 C357 0.930 . S
H346 C359 0.930 . S
H347 C360 0.930 . S
H348 C364 0.959 . S
H349 C364 0.959 . S
H350 C364 0.961 . S
H351 C365 0.960 . S
H352 C365 0.961 . S
H353 C365 0.959 . S
H354 C368 0.929 . S
H355 C369 0.931 . S
H356 C371 0.930 . S
C357 H345 0.930 . S
C357 C358 1.399 . S
C357 C362 1.399 1_455 S
C358 C357 1.399 . S
C358 C359 1.376 . S
C359 H346 0.930 . S
C359 C358 1.376 . S
C359 C360 1.388 1_455 S
C360 H347 0.930 . S
C360 C359 1.388 1_655 S
C360 C361 1.390 . S
C361 C360 1.390 . S
C361 C362 1.394 . S
C361 C367 1.465 . S
C362 C357 1.399 1_655 S
C362 C361 1.394 . S
C362 C363 1.516 . S
C363 C362 1.516 . S
C363 C364 1.502 . S
C363 C365 1.561 . S
C363 C366 1.526 . S
C364 H348 0.959 . S
C364 H349 0.959 . S
C364 H350 0.961 . S
C364 C363 1.502 . S
C365 H351 0.960 . S
C365 H352 0.961 . S
C365 H353 0.959 . S
C365 C363 1.561 . S
C366 C363 1.526 . S
C366 C367 1.396 . S
C366 C371 1.390 . S
C367 C361 1.465 . S
C367 C366 1.396 . S
C367 C368 1.399 . S
C368 H354 0.929 . S
C368 C367 1.399 . S
C368 C369 1.385 . S
C369 H355 0.931 . S
C369 C368 1.385 . S
C369 C370 1.389 . S
C370 C369 1.389 . S
C370 C371 1.387 . S
C371 H356 0.930 . S
C371 C366 1.390 . S
C371 C370 1.387 . S
H372 C384 0.930 . S
H373 C386 0.930 . S
H374 C387 0.930 . S
H375 C391 0.959 . S
H376 C391 0.959 . S
H377 C391 0.961 . S
H378 C392 0.960 . S
H379 C392 0.961 . S
H380 C392 0.959 . S
H381 C395 0.929 . S
H382 C396 0.931 . S
H383 C398 0.930 . S
C384 H372 0.930 . S
C384 C385 1.399 . S
C384 C389 1.399 . S
C385 C384 1.399 . S
C385 C386 1.376 . S
C386 H373 0.930 . S
C386 C385 1.376 . S
C386 C387 1.388 . S
C387 H374 0.930 . S
C387 C386 1.388 . S
C387 C388 1.390 . S
C388 C387 1.390 . S
C388 C389 1.394 . S
C388 C394 1.465 . S
C389 C384 1.399 . S
C389 C388 1.394 . S
C389 C390 1.516 . S
C390 C389 1.516 . S
C390 C391 1.502 . S
C390 C392 1.561 . S
C390 C393 1.526 . S
C391 H375 0.959 . S
C391 H376 0.959 . S
C391 H377 0.961 . S
C391 C390 1.502 . S
C392 H378 0.960 . S
C392 H379 0.961 . S
C392 H380 0.959 . S
C392 C390 1.561 . S
C393 C390 1.526 . S
C393 C394 1.396 . S
C393 C398 1.390 . S
C394 C388 1.465 . S
C394 C393 1.396 . S
C394 C395 1.399 . S
C395 H381 0.929 . S
C395 C394 1.399 . S
C395 C396 1.385 . S
C396 H382 0.931 . S
C396 C395 1.385 . S
C396 C397 1.389 . S
C397 C396 1.389 . S
C397 C398 1.387 . S
C398 H383 0.930 . S
C398 C393 1.390 . S
C398 C397 1.387 . S
H399 C411 0.930 . S
H400 C413 0.930 . S
H401 C414 0.930 . S
H402 C418 0.959 . S
H403 C418 0.959 . S
H404 C418 0.961 . S
H405 C419 0.960 . S
H406 C419 0.961 . S
H407 C419 0.959 . S
H408 C422 0.929 . S
H409 C423 0.931 . S
H410 C425 0.930 . S
C411 H399 0.930 . S
C411 C412 1.399 . S
C411 C416 1.399 . S
C412 C411 1.399 . S
C412 C413 1.376 . S
C413 H400 0.930 . S
C413 C412 1.376 . S
C413 C414 1.388 . S
C414 H401 0.930 . S
C414 C413 1.388 . S
C414 C415 1.390 . S
C415 C414 1.390 . S
C415 C416 1.394 . S
C415 C421 1.465 . S
C416 C411 1.399 . S
C416 C415 1.394 . S
C416 C417 1.516 . S
C417 C416 1.516 . S
C417 C418 1.502 . S
C417 C419 1.561 . S
C417 C420 1.526 . S
C418 H402 0.959 . S
C418 H403 0.959 . S
C418 H404 0.961 . S
C418 C417 1.502 . S
C419 H405 0.960 . S
C419 H406 0.961 . S
C419 H407 0.959 . S
C419 C417 1.561 . S
C420 C417 1.526 . S
C420 C421 1.396 . S
C420 C425 1.390 . S
C421 C415 1.465 . S
C421 C420 1.396 . S
C421 C422 1.399 . S
C422 H408 0.929 . S
C422 C421 1.399 . S
C422 C423 1.385 . S
C423 H409 0.931 . S
C423 C422 1.385 . S
C423 C424 1.389 . S
C424 C423 1.389 . S
C424 C425 1.387 . S
C425 H410 0.930 . S
C425 C420 1.390 . S
C425 C424 1.387 . S
H426 C438 0.930 . S
H427 C440 0.930 . S
H428 C441 0.930 . S
H429 C445 0.959 . S
H430 C445 0.959 . S
H431 C445 0.961 . S
H432 C446 0.960 . S
H433 C446 0.961 . S
H434 C446 0.959 . S
H435 C449 0.929 . S
H436 C450 0.931 . S
H437 C452 0.930 . S
C438 H426 0.930 . S
C438 C439 1.399 . S
C438 C443 1.399 . S
C439 C438 1.399 . S
C439 C440 1.376 . S
C440 H427 0.930 . S
C440 C439 1.376 . S
C440 C441 1.388 . S
C441 H428 0.930 . S
C441 C440 1.388 . S
C441 C442 1.390 . S
C442 C441 1.390 . S
C442 C443 1.394 . S
C442 C448 1.465 . S
C443 C438 1.399 . S
C443 C442 1.394 . S
C443 C444 1.516 . S
C444 C443 1.516 . S
C444 C445 1.502 . S
C444 C446 1.561 . S
C444 C447 1.526 . S
C445 H429 0.959 . S
C445 H430 0.959 . S
C445 H431 0.961 . S
C445 C444 1.502 . S
C446 H432 0.960 . S
C446 H433 0.961 . S
C446 H434 0.959 . S
C446 C444 1.561 . S
C447 C444 1.526 . S
C447 C448 1.396 . S
C447 C452 1.390 . S
C448 C442 1.465 . S
C448 C447 1.396 . S
C448 C449 1.399 . S
C449 H435 0.929 . S
C449 C448 1.399 . S
C449 C450 1.385 . S
C450 H436 0.931 . S
C450 C449 1.385 . S
C450 C451 1.389 . S
C451 C450 1.389 . S
C451 C452 1.387 . S
C452 H437 0.930 . S
C452 C447 1.390 . S
C452 C451 1.387 . S
H453 C465 0.930 . S
H454 C467 0.930 . S
H455 C468 0.930 . S
H456 C472 0.959 . S
H457 C472 0.959 . S
H458 C472 0.961 . S
H459 C473 0.960 . S
H460 C473 0.961 . S
H461 C473 0.959 . S
H462 C476 0.929 . S
H463 C477 0.931 . S
H464 C479 0.930 . S
C465 H453 0.930 . S
C465 C466 1.399 . S
C465 C470 1.399 . S
C466 C465 1.399 . S
C466 C467 1.376 . S
C467 H454 0.930 . S
C467 C466 1.376 . S
C467 C468 1.388 . S
C468 H455 0.930 . S
C468 C467 1.388 . S
C468 C469 1.390 . S
C469 C468 1.390 . S
C469 C470 1.394 . S
C469 C475 1.465 . S
C470 C465 1.399 . S
C470 C469 1.394 . S
C470 C471 1.516 . S
C471 C470 1.516 . S
C471 C472 1.502 . S
C471 C473 1.561 . S
C471 C474 1.526 . S
C472 H456 0.959 . S
C472 H457 0.959 . S
C472 H458 0.961 . S
C472 C471 1.502 . S
C473 H459 0.960 . S
C473 H460 0.961 . S
C473 H461 0.959 . S
C473 C471 1.561 . S
C474 C471 1.526 . S
C474 C475 1.396 . S
C474 C479 1.390 . S
C475 C469 1.465 . S
C475 C474 1.396 . S
C475 C476 1.399 . S
C476 H462 0.929 . S
C476 C475 1.399 . S
C476 C477 1.385 . S
C477 H463 0.931 . S
C477 C476 1.385 . S
C477 C478 1.389 . S
C478 C477 1.389 . S
C478 C479 1.387 . S
C479 H464 0.930 . S
C479 C474 1.390 . S
C479 C478 1.387 . S
H480 C492 0.930 . S
H481 C494 0.930 . S
H482 C495 0.930 . S
H483 C499 0.959 . S
H484 C499 0.959 1_545 S
H485 C499 0.961 . S
H486 C500 0.960 . S
H487 C500 0.961 1_545 S
H488 C500 0.959 . S
H489 C503 0.929 . S
H490 C504 0.931 . S
H491 C506 0.930 . S
C492 H480 0.930 . S
C492 C493 1.399 . S
C492 C497 1.399 . S
C493 C492 1.399 . S
C493 C494 1.376 . S
C494 H481 0.930 . S
C494 C493 1.376 . S
C494 C495 1.388 . S
C495 H482 0.930 . S
C495 C494 1.388 . S
C495 C496 1.390 . S
C496 C495 1.390 . S
C496 C497 1.394 . S
C496 C502 1.465 . S
C497 C492 1.399 . S
C497 C496 1.394 . S
C497 C498 1.516 . S
C498 C497 1.516 . S
C498 C499 1.502 . S
C498 C500 1.561 . S
C498 C501 1.526 1_565 S
C499 H483 0.959 . S
C499 H484 0.959 1_565 S
C499 H485 0.961 . S
C499 C498 1.502 . S
C500 H486 0.960 . S
C500 H487 0.961 1_565 S
C500 H488 0.959 . S
C500 C498 1.561 . S
C501 C498 1.526 1_545 S
C501 C502 1.396 1_545 S
C501 C506 1.390 . S
C502 C496 1.465 . S
C502 C501 1.396 1_565 S
C502 C503 1.399 . S
C503 H489 0.929 . S
C503 C502 1.399 . S
C503 C504 1.385 1_565 S
C504 H490 0.931 . S
C504 C503 1.385 1_545 S
C504 C505 1.389 . S
C505 C504 1.389 . S
C505 C506 1.387 . S
C506 H491 0.930 . S
C506 C501 1.390 . S
C506 C505 1.387 . S
H507 C519 0.930 . S
H508 C521 0.930 . S
H509 C522 0.930 . S
H510 C526 0.959 . S
H511 C526 0.959 . S
H512 C526 0.961 . S
H513 C527 0.960 . S
H514 C527 0.961 . S
H515 C527 0.959 . S
H516 C530 0.929 . S
H517 C531 0.931 . S
H518 C533 0.930 . S
C519 H507 0.930 . S
C519 C520 1.399 . S
C519 C524 1.399 . S
C520 C519 1.399 . S
C520 C521 1.376 . S
C521 H508 0.930 . S
C521 C520 1.376 . S
C521 C522 1.388 . S
C522 H509 0.930 . S
C522 C521 1.388 . S
C522 C523 1.390 . S
C523 C522 1.390 . S
C523 C524 1.394 . S
C523 C529 1.465 1_545 S
C524 C519 1.399 . S
C524 C523 1.394 . S
C524 C525 1.516 . S
C525 C524 1.516 . S
C525 C526 1.502 . S
C525 C527 1.561 . S
C525 C528 1.526 1_545 S
C526 H510 0.959 . S
C526 H511 0.959 . S
C526 H512 0.961 . S
C526 C525 1.502 . S
C527 H513 0.960 . S
C527 H514 0.961 . S
C527 H515 0.959 . S
C527 C525 1.561 . S
C528 C525 1.526 1_565 S
C528 C529 1.396 . S
C528 C533 1.390 . S
C529 C523 1.465 1_565 S
C529 C528 1.396 . S
C529 C530 1.399 . S
C530 H516 0.929 . S
C530 C529 1.399 . S
C530 C531 1.385 . S
C531 H517 0.931 . S
C531 C530 1.385 . S
C531 C532 1.389 . S
C532 C531 1.389 . S
C532 C533 1.387 . S
C533 H518 0.930 . S
C533 C528 1.390 . S
C533 C532 1.387 . S
H534 C546 0.930 . S
H535 C548 0.930 . S
H536 C549 0.930 . S
H537 C553 0.959 . S
H538 C553 0.959 . S
H539 C553 0.961 . S
H540 C554 0.960 . S
H541 C554 0.961 . S
H542 C554 0.959 . S
H543 C557 0.929 . S
H544 C558 0.931 . S
H545 C560 0.930 . S
C546 H534 0.930 . S
C546 C547 1.399 . S
C546 C551 1.399 . S
C547 C546 1.399 . S
C547 C548 1.376 . S
C548 H535 0.930 . S
C548 C547 1.376 . S
C548 C549 1.388 . S
C549 H536 0.930 . S
C549 C548 1.388 . S
C549 C550 1.390 . S
C550 C549 1.390 . S
C550 C551 1.394 . S
C550 C556 1.465 1_545 S
C551 C546 1.399 . S
C551 C550 1.394 . S
C551 C552 1.516 . S
C552 C551 1.516 . S
C552 C553 1.502 . S
C552 C554 1.561 . S
C552 C555 1.526 1_545 S
C553 H537 0.959 . S
C553 H538 0.959 . S
C553 H539 0.961 . S
C553 C552 1.502 . S
C554 H540 0.960 . S
C554 H541 0.961 . S
C554 H542 0.959 . S
C554 C552 1.561 . S
C555 C552 1.526 1_565 S
C555 C556 1.396 . S
C555 C560 1.390 . S
C556 C550 1.465 1_565 S
C556 C555 1.396 . S
C556 C557 1.399 . S
C557 H543 0.929 . S
C557 C556 1.399 . S
C557 C558 1.385 . S
C558 H544 0.931 . S
C558 C557 1.385 . S
C558 C559 1.389 . S
C559 C558 1.389 . S
C559 C560 1.387 . S
C560 H545 0.930 . S
C560 C555 1.390 . S
C560 C559 1.387 . S
H561 C573 0.930 . S
H562 C575 0.930 . S
H563 C576 0.930 . S
H564 C580 0.959 1_545 S
H565 C580 0.959 1_545 S
H566 C580 0.961 . S
H567 C581 0.960 . S
H568 C581 0.961 1_545 S
H569 C581 0.959 . S
H570 C584 0.929 . S
H571 C585 0.931 . S
H572 C587 0.930 . S
C573 H561 0.930 . S
C573 C574 1.399 . S
C573 C578 1.399 . S
C574 C573 1.399 . S
C574 C575 1.376 . S
C575 H562 0.930 . S
C575 C574 1.376 . S
C575 C576 1.388 . S
C576 H563 0.930 . S
C576 C575 1.388 . S
C576 C577 1.390 . S
C577 C576 1.390 . S
C577 C578 1.394 . S
C577 C583 1.465 . S
C578 C573 1.399 . S
C578 C577 1.394 . S
C578 C579 1.516 . S
C579 C578 1.516 . S
C579 C580 1.502 . S
C579 C581 1.561 . S
C579 C582 1.526 1_565 S
C580 H564 0.959 1_565 S
C580 H565 0.959 1_565 S
C580 H566 0.961 . S
C580 C579 1.502 . S
C581 H567 0.960 . S
C581 H568 0.961 1_565 S
C581 H569 0.959 . S
C581 C579 1.561 . S
C582 C579 1.526 1_545 S
C582 C583 1.396 1_545 S
C582 C587 1.390 . S
C583 C577 1.465 . S
C583 C582 1.396 1_565 S
C583 C584 1.399 . S
C584 H570 0.929 . S
C584 C583 1.399 . S
C584 C585 1.385 1_565 S
C585 H571 0.931 . S
C585 C584 1.385 1_545 S
C585 C586 1.389 . S
C586 C585 1.389 . S
C586 C587 1.387 . S
C587 H572 0.930 . S
C587 C582 1.390 . S
C587 C586 1.387 . S
H588 C600 0.930 . S
H589 C602 0.930 . S
H590 C603 0.946 . S
H591 C607 0.959 . S
H592 C607 0.959 . S
H593 C607 0.961 . S
H594 C608 0.960 . S
H595 C608 0.961 . S
H596 C608 0.959 . S
H597 C611 0.929 . S
H598 C612 0.931 . S
H599 C614 0.930 . S
C600 H588 0.930 . S
C600 C601 1.399 . S
C600 C605 1.399 1_554 S
C601 C600 1.399 . S
C601 C602 1.376 . S
C602 H589 0.930 . S
C602 C601 1.376 . S
C602 C603 1.388 . S
C603 H590 0.946 . S
C603 C602 1.388 . S
C603 C604 1.390 1_554 S
C604 C603 1.390 1_556 S
C604 C605 1.394 . S
C604 C610 1.465 . S
C605 C600 1.399 1_556 S
C605 C604 1.394 . S
C605 C606 1.516 . S
C606 C605 1.516 . S
C606 C607 1.502 . S
C606 C608 1.561 . S
C606 C609 1.526 . S
C607 H591 0.959 . S
C607 H592 0.959 . S
C607 H593 0.961 . S
C607 C606 1.502 . S
C608 H594 0.960 . S
C608 H595 0.961 . S
C608 H596 0.959 . S
C608 C606 1.561 . S
C609 C606 1.526 . S
C609 C610 1.396 . S
C609 C614 1.390 . S
C610 C604 1.465 . S
C610 C609 1.396 . S
C610 C611 1.399 . S
C611 H597 0.929 . S
C611 C610 1.399 . S
C611 C612 1.385 . S
C612 H598 0.931 . S
C612 C611 1.385 . S
C612 C613 1.389 . S
C613 C612 1.389 . S
C613 C614 1.387 . S
C614 H599 0.930 . S
C614 C609 1.390 . S
C614 C613 1.387 . S
H615 C627 0.930 . S
H616 C629 0.930 . S
H617 C630 0.930 . S
H618 C634 0.959 . S
H619 C634 0.959 . S
H620 C634 0.961 . S
H621 C635 0.960 1_655 S
H622 C635 0.961 1_655 S
H623 C635 0.959 . S
H624 C638 0.929 . S
H625 C639 0.931 . S
H626 C641 0.930 . S
C627 H615 0.930 . S
C627 C628 1.399 . S
C627 C632 1.399 . S
C628 C627 1.399 . S
C628 C629 1.376 . S
C629 H616 0.930 . S
C629 C628 1.376 . S
C629 C630 1.388 . S
C630 H617 0.930 . S
C630 C629 1.388 . S
C630 C631 1.390 . S
C631 C630 1.390 . S
C631 C632 1.394 . S
C631 C637 1.465 . S
C632 C627 1.399 . S
C632 C631 1.394 . S
C632 C633 1.516 . S
C633 C632 1.516 . S
C633 C634 1.502 . S
C633 C635 1.561 . S
C633 C636 1.526 . S
C634 H618 0.959 . S
C634 H619 0.959 . S
C634 H620 0.961 . S
C634 C633 1.502 . S
C635 H621 0.960 1_455 S
C635 H622 0.961 1_455 S
C635 H623 0.959 . S
C635 C633 1.561 . S
C636 C633 1.526 . S
C636 C637 1.396 . S
C636 C641 1.390 . S
C637 C631 1.465 . S
C637 C636 1.396 . S
C637 C638 1.399 . S
C638 H624 0.929 . S
C638 C637 1.399 . S
C638 C639 1.385 . S
C639 H625 0.931 . S
C639 C638 1.385 . S
C639 C640 1.389 . S
C640 C639 1.389 . S
C640 C641 1.387 . S
C641 H626 0.930 . S
C641 C636 1.390 . S
C641 C640 1.387 . S
H642 C654 0.930 . S
H643 C656 0.930 . S
H644 C657 0.930 . S
H645 C661 0.959 . S
H646 C661 0.959 . S
H647 C661 0.961 . S
H648 C662 0.960 . S
H649 C662 0.961 . S
H650 C662 0.959 . S
H651 C665 0.929 . S
H652 C666 0.931 . S
H653 C668 0.930 . S
C654 H642 0.930 . S
C654 C655 1.399 . S
C654 C659 1.399 . S
C655 C654 1.399 . S
C655 C656 1.376 . S
C656 H643 0.930 . S
C656 C655 1.376 . S
C656 C657 1.388 . S
C657 H644 0.930 . S
C657 C656 1.388 . S
C657 C658 1.390 . S
C658 C657 1.390 . S
C658 C659 1.394 . S
C658 C664 1.465 . S
C659 C654 1.399 . S
C659 C658 1.394 . S
C659 C660 1.516 . S
C660 C659 1.516 . S
C660 C661 1.502 . S
C660 C662 1.561 . S
C660 C663 1.526 . S
C661 H645 0.959 . S
C661 H646 0.959 . S
C661 H647 0.961 . S
C661 C660 1.502 . S
C662 H648 0.960 . S
C662 H649 0.961 . S
C662 H650 0.959 . S
C662 C660 1.561 . S
C663 C660 1.526 . S
C663 C664 1.396 . S
C663 C668 1.390 . S
C664 C658 1.465 . S
C664 C663 1.396 . S
C664 C665 1.399 . S
C665 H651 0.929 . S
C665 C664 1.399 . S
C665 C666 1.385 . S
C666 H652 0.931 . S
C666 C665 1.385 . S
C666 C667 1.389 . S
C667 C666 1.389 . S
C667 C668 1.387 . S
C668 H653 0.930 . S
C668 C663 1.390 . S
C668 C667 1.387 . S
H669 C681 0.930 . S
H670 C683 0.930 . S
H671 C684 0.930 . S
H672 C688 0.959 . S
H673 C688 0.959 . S
H674 C688 0.961 . S
H675 C689 0.960 . S
H676 C689 0.961 . S
H677 C689 0.959 . S
H678 C692 0.929 . S
H679 C693 0.931 . S
H680 C695 0.930 . S
C681 H669 0.930 . S
C681 C682 1.399 . S
C681 C686 1.399 . S
C682 C681 1.399 . S
C682 C683 1.376 . S
C683 H670 0.930 . S
C683 C682 1.376 . S
C683 C684 1.388 . S
C684 H671 0.930 . S
C684 C683 1.388 . S
C684 C685 1.390 . S
C685 C684 1.390 . S
C685 C686 1.394 . S
C685 C691 1.465 . S
C686 C681 1.399 . S
C686 C685 1.394 . S
C686 C687 1.516 . S
C687 C686 1.516 . S
C687 C688 1.502 . S
C687 C689 1.561 . S
C687 C690 1.526 . S
C688 H672 0.959 . S
C688 H673 0.959 . S
C688 H674 0.961 . S
C688 C687 1.502 . S
C689 H675 0.960 . S
C689 H676 0.961 . S
C689 H677 0.959 . S
C689 C687 1.561 . S
C690 C687 1.526 . S
C690 C691 1.396 . S
C690 C695 1.390 . S
C691 C685 1.465 . S
C691 C690 1.396 . S
C691 C692 1.399 . S
C692 H678 0.929 . S
C692 C691 1.399 . S
C692 C693 1.385 . S
C693 H679 0.931 . S
C693 C692 1.385 . S
C693 C694 1.389 . S
C694 C693 1.389 . S
C694 C695 1.387 . S
C695 H680 0.930 . S
C695 C690 1.390 . S
C695 C694 1.387 . S
H696 C708 0.930 . S
H697 C710 0.930 1_655 S
H698 C711 0.930 1_654 S
H699 C715 0.959 . S
H700 C715 0.959 . S
H701 C715 0.961 . S
H702 C716 0.960 . S
H703 C716 0.961 . S
H704 C716 0.959 . S
H705 C719 0.929 1_655 S
H706 C720 0.931 . S
H707 C722 0.930 . S
C708 H696 0.930 . S
C708 C709 1.399 . S
C708 C713 1.381 1_556 S
C709 C708 1.399 . S
C709 C710 1.376 . S
C710 H697 0.930 1_455 S
C710 C709 1.376 . S
C710 C711 1.388 . S
C711 H698 0.930 1_456 S
C711 C710 1.388 . S
C711 C712 1.390 1_556 S
C712 C711 1.390 1_554 S
C712 C713 1.402 . S
C712 C718 1.465 . S
C713 C708 1.381 1_554 S
C713 C712 1.402 . S
C713 C714 1.528 . S
C714 C713 1.528 . S
C714 C715 1.502 . S
C714 C716 1.561 . S
C714 C717 1.526 . S
C715 H699 0.959 . S
C715 H700 0.959 . S
C715 H701 0.961 . S
C715 C714 1.502 . S
C716 H702 0.960 . S
C716 H703 0.961 . S
C716 H704 0.959 . S
C716 C714 1.561 . S
C717 C714 1.526 . S
C717 C718 1.396 . S
C717 C722 1.390 . S
C718 C712 1.465 . S
C718 C717 1.396 . S
C718 C719 1.399 . S
C719 H705 0.929 1_455 S
C719 C718 1.399 . S
C719 C720 1.385 . S
C720 H706 0.931 . S
C720 C719 1.385 . S
C720 C721 1.389 . S
C721 C720 1.389 . S
C721 C722 1.387 . S
C722 H707 0.930 . S
C722 C717 1.390 . S
C722 C721 1.387 . S
H723 C735 0.930 . S
H724 C737 0.930 . S
H725 C738 0.930 . S
H726 C742 0.959 . S
H727 C742 0.959 . S
H728 C742 0.961 . S
H729 C743 0.960 . S
H730 C743 0.961 . S
H731 C743 0.959 . S
H732 C746 0.929 . S
H733 C747 0.931 . S
H734 C749 0.930 . S
C735 H723 0.930 . S
C735 C736 1.399 . S
C735 C740 1.399 . S
C736 C735 1.399 . S
C736 C737 1.376 . S
C737 H724 0.930 . S
C737 C736 1.376 . S
C737 C738 1.388 . S
C738 H725 0.930 . S
C738 C737 1.388 . S
C738 C739 1.390 . S
C739 C738 1.390 . S
C739 C740 1.394 . S
C739 C745 1.465 . S
C740 C735 1.399 . S
C740 C739 1.394 . S
C740 C741 1.516 . S
C741 C740 1.516 . S
C741 C742 1.502 . S
C741 C743 1.561 . S
C741 C744 1.526 . S
C742 H726 0.959 . S
C742 H727 0.959 . S
C742 H728 0.961 . S
C742 C741 1.502 . S
C743 H729 0.960 . S
C743 H730 0.961 . S
C743 H731 0.959 . S
C743 C741 1.561 . S
C744 C741 1.526 . S
C744 C745 1.396 . S
C744 C749 1.390 . S
C745 C739 1.465 . S
C745 C744 1.396 . S
C745 C746 1.399 . S
C746 H732 0.929 . S
C746 C745 1.399 . S
C746 C747 1.385 . S
C747 H733 0.931 . S
C747 C746 1.385 . S
C747 C748 1.389 . S
C748 C747 1.389 . S
C748 C749 1.387 . S
C749 H734 0.930 . S
C749 C744 1.390 . S
C749 C748 1.387 . S
H750 C762 0.930 . S
H751 C764 0.930 . S
H752 C765 0.930 . S
H753 C769 0.959 . S
H754 C769 0.959 . S
H755 C769 0.961 . S
H756 C770 0.960 . S
H757 C770 0.961 . S
H758 C770 0.959 . S
H759 C773 0.929 . S
H760 C774 0.931 . S
H761 C776 0.930 . S
C762 H750 0.930 . S
C762 C763 1.399 . S
C762 C767 1.399 . S
C763 C762 1.399 . S
C763 C764 1.376 . S
C764 H751 0.930 . S
C764 C763 1.376 . S
C764 C765 1.388 . S
C765 H752 0.930 . S
C765 C764 1.388 . S
C765 C766 1.390 . S
C766 C765 1.390 . S
C766 C767 1.394 . S
C766 C772 1.465 . S
C767 C762 1.399 . S
C767 C766 1.394 . S
C767 C768 1.516 . S
C768 C767 1.516 . S
C768 C769 1.502 . S
C768 C770 1.561 . S
C768 C771 1.526 . S
C769 H753 0.959 . S
C769 H754 0.959 . S
C769 H755 0.961 . S
C769 C768 1.502 . S
C770 H756 0.960 . S
C770 H757 0.961 . S
C770 H758 0.959 . S
C770 C768 1.561 . S
C771 C768 1.526 . S
C771 C772 1.396 . S
C771 C776 1.390 . S
C772 C766 1.465 . S
C772 C771 1.396 . S
C772 C773 1.399 . S
C773 H759 0.929 . S
C773 C772 1.399 . S
C773 C774 1.385 . S
C774 H760 0.931 . S
C774 C773 1.385 . S
C774 C775 1.389 . S
C775 C774 1.389 . S
C775 C776 1.387 . S
C776 H761 0.930 . S
C776 C771 1.390 . S
C776 C775 1.387 . S
H777 C789 0.930 . S
H778 C791 0.930 . S
H779 C792 0.930 . S
H780 C796 0.959 . S
H781 C796 0.959 . S
H782 C796 0.961 . S
H783 C797 0.960 . S
H784 C797 0.961 . S
H785 C797 0.959 . S
H786 C800 0.929 . S
H787 C801 0.931 . S
H788 C803 0.930 . S
C789 H777 0.930 . S
C789 C790 1.399 . S
C789 C794 1.399 . S
C790 C789 1.399 . S
C790 C791 1.376 . S
C791 H778 0.930 . S
C791 C790 1.376 . S
C791 C792 1.388 . S
C792 H779 0.930 . S
C792 C791 1.388 . S
C792 C793 1.390 . S
C793 C792 1.390 . S
C793 C794 1.394 . S
C793 C799 1.465 . S
C794 C789 1.399 . S
C794 C793 1.394 . S
C794 C795 1.516 . S
C795 C794 1.516 . S
C795 C796 1.502 . S
C795 C797 1.561 . S
C795 C798 1.526 . S
C796 H780 0.959 . S
C796 H781 0.959 . S
C796 H782 0.961 . S
C796 C795 1.502 . S
C797 H783 0.960 . S
C797 H784 0.961 . S
C797 H785 0.959 . S
C797 C795 1.561 . S
C798 C795 1.526 . S
C798 C799 1.396 . S
C798 C803 1.390 . S
C799 C793 1.465 . S
C799 C798 1.396 . S
C799 C800 1.399 . S
C800 H786 0.929 . S
C800 C799 1.399 . S
C800 C801 1.385 . S
C801 H787 0.931 . S
C801 C800 1.385 . S
C801 C802 1.389 . S
C802 C801 1.389 . S
C802 C803 1.387 . S
C803 H788 0.930 . S
C803 C798 1.390 . S
C803 C802 1.387 . S
C181 C79 1.423 . S
C169 C4 1.533 . S
C208 C97 1.271 . S
C196 C13 1.399 . S
C223 C25 1.326 . S
C235 C121 1.167 . S
C262 C151 1.174 1_655 S
C250 C34 1.406 . S
C289 C139 1.284 . S
C277 C40 1.381 . S
C304 C52 1.399 . S
C316 C92 1.274 1_655 S
C331 C61 1.541 . S
C343 C112 1.415 . S
C358 C67 1.425 . S
C370 C117 1.190 . S
C385 C70 1.366 . S
C397 C133 1.352 . S
C412 C49 1.419 . S
C424 C88 1.300 . S
C451 C155 1.276 . S
C439 C31 1.407 . S
C478 C100 1.181 . S
C466 C16 1.408 . S
C493 C22 1.530 . S
C505 C118 1.404 . S
C520 C7 1.336 . S
C532 C76 1.185 . S
C559 C96 1.175 . S
C547 C58 1.339 . S
C586 C142 1.403 . S
C574 C43 1.548 . S
C613 C138 1.281 . S
C601 C5 1.462 . S
C640 C91 1.317 . S
C628 C14 1.455 . S
C655 C23 1.442 . S
C667 C113 1.287 . S
C682 C32 1.478 . S
C694 C134 1.410 . S
C721 C75 1.297 . S
C709 C41 1.490 . S
C736 C50 1.497 . S
C748 C109 1.398 . S
C775 C130 1.299 . S
C763 C59 1.508 . S
C802 C154 1.401 . S
C790 C68 1.476 . S
