# Generated by pormake.
# Topology anh, (6,3)-cn, num edge types: 1
# Building blocks:
#     Node 0, Type 0, BuildingBlock: BETDEL_clean_sbu_0, # of connection points: 6
#     Node 1, Type 0, BuildingBlock: BETDEL_clean_sbu_0, # of connection points: 6
#     Node 2, Type 0, BuildingBlock: BETDEL_clean_sbu_0, # of connection points: 6
#     Node 3, Type 1, BuildingBlock: BETDIP_clean_linker_0, # of connection points: 3
#     Node 4, Type 1, BuildingBlock: BETDIP_clean_linker_0, # of connection points: 3
#     Node 5, Type 1, BuildingBlock: BETDIP_clean_linker_0, # of connection points: 3
#     Node 6, Type 1, BuildingBlock: BETDIP_clean_linker_0, # of connection points: 3
#     Node 7, Type 1, BuildingBlock: BETDIP_clean_linker_0, # of connection points: 3
#     Node 8, Type 1, BuildingBlock: BETDIP_clean_linker_0, # of connection points: 3
#     Edge 9, Type (0, 1), BuildingBlock: KIFKEQ_clean_linker_1, # of connection points: 2
#     Edge 10, Type (0, 1), BuildingBlock: KIFKEQ_clean_linker_1, # of connection points: 2
#     Edge 11, Type (0, 1), BuildingBlock: KIFKEQ_clean_linker_1, # of connection points: 2
#     Edge 12, Type (0, 1), BuildingBlock: KIFKEQ_clean_linker_1, # of connection points: 2
#     Edge 13, Type (0, 1), BuildingBlock: KIFKEQ_clean_linker_1, # of connection points: 2
#     Edge 14, Type (0, 1), BuildingBlock: KIFKEQ_clean_linker_1, # of connection points: 2
#     Edge 15, Type (0, 1), BuildingBlock: KIFKEQ_clean_linker_1, # of connection points: 2
#     Edge 16, Type (0, 1), BuildingBlock: KIFKEQ_clean_linker_1, # of connection points: 2
#     Edge 17, Type (0, 1), BuildingBlock: KIFKEQ_clean_linker_1, # of connection points: 2
#     Edge 18, Type (0, 1), BuildingBlock: KIFKEQ_clean_linker_1, # of connection points: 2
#     Edge 19, Type (0, 1), BuildingBlock: KIFKEQ_clean_linker_1, # of connection points: 2
#     Edge 20, Type (0, 1), BuildingBlock: KIFKEQ_clean_linker_1, # of connection points: 2
#     Edge 21, Type (0, 1), BuildingBlock: KIFKEQ_clean_linker_1, # of connection points: 2
#     Edge 22, Type (0, 1), BuildingBlock: KIFKEQ_clean_linker_1, # of connection points: 2
#     Edge 23, Type (0, 1), BuildingBlock: KIFKEQ_clean_linker_1, # of connection points: 2
#     Edge 24, Type (0, 1), BuildingBlock: KIFKEQ_clean_linker_1, # of connection points: 2
#     Edge 25, Type (0, 1), BuildingBlock: KIFKEQ_clean_linker_1, # of connection points: 2
#     Edge 26, Type (0, 1), BuildingBlock: KIFKEQ_clean_linker_1, # of connection points: 2
# Relax obj value: 0.106
# Max RMSD: 0.163
# Mean RMSD: 0.118
data_MOF--net-anh--node1-BETDEL_clean_sbu_0--node2-BETDIP_clean_linker_0--edge1-KIFKEQ_clean_linker_1
_symmetry_space_group_name_H-M    P1
_symmetry_Int_Tables_number       1
_symmetry_cell_setting            triclinic
loop_
_symmetry_equiv_pos_as_xyz
'x, y, z'
_cell_length_a     30.494878
_cell_length_b     30.392556
_cell_length_c     48.905759
_cell_angle_alpha  93.407318
_cell_angle_beta   90.105495
_cell_angle_gamma 119.97222
loop_
_atom_site_label
_atom_site_type_symbol
_atom_site_fract_x
_atom_site_fract_y
_atom_site_fract_z
_atom_type_partial_charge
Dy0 Dy 0.06396 0.50488 0.15668 0.0
C1 C 0.94709 0.59951 0.18135 0.0
C2 C 0.12613 0.46763 0.14219 0.0
Dy3 Dy 1.01111 0.56637 0.16347 0.0
O4 O 0.11645 0.4763 0.16707 0.0
O5 O 0.10105 0.47852 0.12494 0.0
O6 O 0.0384 0.47544 0.19799 0.0
O7 O 0.05646 0.55014 0.19058 0.0
C8 C 0.03925 0.51657 0.20772 0.0
C9 C 0.03483 0.55478 0.11207 0.0
O10 O 0.09008 0.63081 0.17264 0.0
O11 O 0.12829 0.58663 0.15445 0.0
O12 O 0.96791 0.60743 0.15765 0.0
O13 O 0.96268 0.57486 0.19552 0.0
O14 O 0.03453 0.59524 0.12198 0.0
O15 O 1.01839 0.52109 0.12922 0.0
O16 O 0.98466 0.43845 0.15059 0.0
O17 O 0.94613 0.48516 0.16403 0.0
C18 C 0.13088 0.62989 0.164 0.0
C19 C 0.94371 0.44093 0.15728 0.0
Dy20 Dy 0.4916 0.02795 0.49122 0.0
C21 C 0.71176 0.15732 0.50858 0.0
C22 C 0.39526 0.96575 0.47124 0.0
Dy23 Dy 0.61186 0.08887 0.49769 0.0
O24 O 0.40875 1.0031 0.48982 0.0
O25 O 0.43486 0.96403 0.46281 0.0
O26 O 0.47536 0.01853 0.53654 0.0
O27 O 0.54824 0.05818 0.52326 0.0
C28 C 0.52291 0.04386 0.54427 0.0
C29 C 0.57157 0.04797 0.4475 0.0
O30 O 0.59641 1.01164 0.50861 0.0
O31 O 0.51347 0.9667 0.49027 0.0
O32 O 0.69008 0.14158 0.48438 0.0
O33 O 0.67887 0.13496 0.5272 0.0
O34 O 0.61326 0.05198 0.45712 0.0
O35 O 0.55494 0.0686 0.46449 0.0
O36 O 0.50598 0.10754 0.48748 0.0
O37 O 0.59226 0.15173 0.50008 0.0
C38 C 0.55466 0.9681 0.50068 0.0
C39 C 0.54906 0.15068 0.49406 0.0
Dy40 Dy 0.61384 0.56745 0.83162 0.0
C41 C 0.52229 0.35461 0.83812 0.0
C42 C 0.6513 0.66903 0.82688 0.0
Dy43 Dy 0.55508 0.45401 0.82917 0.0
O44 O 0.64825 0.64791 0.84955 0.0
O45 O 0.63428 0.63465 0.80648 0.0
O46 O 0.64501 0.56709 0.87317 0.0
O47 O 0.57024 0.51217 0.86135 0.0
C48 C 0.60417 0.52691 0.87993 0.0
C49 C 0.56173 0.49269 0.78074 0.0
O50 O 0.49135 0.46763 0.8405 0.0
O51 O 0.53225 0.55024 0.82715 0.0
O52 O 0.51137 0.3704 0.81643 0.0
O53 O 0.55008 0.39319 0.85527 0.0
O54 O 0.52233 0.45159 0.78799 0.0
O55 O 0.59724 0.50901 0.79872 0.0
O56 O 0.67996 0.55603 0.82311 0.0
O57 O 0.63629 0.47028 0.83084 0.0
C58 C 0.4904 0.50906 0.83423 0.0
C59 C 0.67926 0.51274 0.82663 0.0
H60 H 0.49747 0.99286 0.1626 0.0
H61 H 0.57847 0.07733 0.23741 0.0
H62 H 0.44484 0.93092 0.24074 0.0
H63 H 0.58372 0.14256 0.2098 0.0
C64 C 0.6025 0.13303 0.19355 0.0
C65 C 0.50152 0.9962 0.18475 0.0
C66 C 0.46593 0.95636 0.20016 0.0
C67 C 0.54234 0.04049 0.19814 0.0
C68 C 0.54711 0.04395 0.22694 0.0
C69 C 0.51204 1.00487 0.24245 0.0
C70 C 0.4718 0.96142 0.22887 0.0
N71 N 0.57899 0.08105 0.18289 0.0
H72 H 0.55348 0.51979 0.49955 0.0
H73 H 0.56994 0.60577 0.57608 0.0
H74 H 0.56694 0.46308 0.57596 0.0
H75 H 0.50102 0.60796 0.54863 0.0
C76 C 0.52845 0.62783 0.53323 0.0
C77 C 0.55851 0.52435 0.52167 0.0
C78 C 0.55986 0.48595 0.53612 0.0
C79 C 0.56079 0.56732 0.53613 0.0
C80 C 0.56687 0.57243 0.56489 0.0
C81 C 0.56996 0.5355 0.57932 0.0
C82 C 0.56608 0.49245 0.56479 0.0
N83 N 0.55636 0.60504 0.52206 0.0
H84 H 0.04492 0.51396 0.82808 0.0
H85 H 0.11957 0.51645 0.90374 0.0
H86 H 0.97418 0.5053 0.90544 0.0
H87 H 0.18842 0.57254 0.88042 0.0
C88 C 0.18122 0.54734 0.86216 0.0
C89 C 0.04552 0.51317 0.85019 0.0
C90 C 1.00335 0.50786 0.86506 0.0
C91 C 0.0885 0.51733 0.86409 0.0
C92 C 0.08816 0.51546 0.8928 0.0
C93 C 0.04733 0.51133 0.90774 0.0
C94 C 1.00528 0.50738 0.89376 0.0
N95 N 0.13142 0.52228 0.84947 0.0
H96 H 0.062 0.60375 0.48874 0.0
H97 H 0.99256 0.50222 0.41718 0.0
H98 H 0.07331 0.66412 0.41014 0.0
H99 H 0.99317 0.53379 0.50935 0.0
C100 C 0.99267 0.50163 0.49808 0.0
C101 C 0.05164 0.59783 0.46709 0.0
C102 C 0.07048 0.63983 0.45087 0.0
C103 C 1.02219 0.5482 0.45487 0.0
C104 C 1.01277 0.54078 0.42648 0.0
C105 C 0.03086 0.58233 0.41007 0.0
C106 C 0.05832 0.63175 0.42266 0.0
N107 N 1.00476 0.50448 0.47 0.0
H108 H 0.63845 0.07634 0.82154 0.0
H109 H 0.669 0.03617 0.74072 0.0
H110 H 0.58147 0.111 0.7505 0.0
H111 H 0.65444 1.01623 0.83416 0.0
C112 C 0.67407 1.00705 0.81835 0.0
C113 C 0.63462 0.0751 0.79948 0.0
C114 C 0.60732 0.09585 0.78798 0.0
C115 C 0.65639 0.05288 0.78229 0.0
C116 C 0.65206 0.05322 0.75383 0.0
C117 C 0.62508 0.07401 0.7422 0.0
C118 C 0.60275 0.09518 0.75939 0.0
N119 N 0.68119 0.02789 0.79243 0.0
H120 H 0.46844 0.48361 0.14854 0.0
H121 H 0.58503 0.49177 0.09644 0.0
H122 H 0.4394 0.4522 0.06129 0.0
H123 H 0.57488 0.43787 0.14582 0.0
C124 C 0.5904 0.47734 0.1535 0.0
C125 C 0.48061 0.47927 0.12824 0.0
C126 C 0.44747 0.46567 0.1053 0.0
C127 C 0.52971 0.48769 0.12512 0.0
C128 C 0.54647 0.48381 0.09886 0.0
C129 C 0.51413 0.4713 0.07572 0.0
C130 C 0.46447 0.46164 0.07912 0.0
N131 N 0.56306 0.50254 0.14832 0.0
H132 H 0.18694 0.45525 0.17747 0.0
H133 H 0.1556 0.45364 0.09119 0.0
H134 H 0.26087 0.44797 0.16687 0.0
H135 H 0.22892 0.44427 0.08029 0.0
H136 H 0.40143 0.50635 0.07653 0.0
H137 H 0.31866 0.49795 0.08374 0.0
H138 H 0.29377 0.39735 0.14823 0.0
H139 H 0.37748 0.40732 0.14146 0.0
C140 C 0.1953 0.45214 0.15616 0.0
C141 C 0.16587 0.45535 0.13513 0.0
C142 C 0.23757 0.44763 0.15004 0.0
C143 C 0.25114 0.44581 0.12271 0.0
C144 C 0.22006 0.44648 0.10158 0.0
C145 C 0.17787 0.4514 0.10776 0.0
C146 C 0.37793 0.482 0.09201 0.0
C147 C 0.39586 0.45774 0.10857 0.0
C148 C 0.33034 0.47689 0.09607 0.0
C149 C 0.29946 0.44701 0.11662 0.0
C150 C 0.31689 0.42138 0.13255 0.0
C151 C 0.36474 0.42697 0.12869 0.0
H152 H 0.75477 0.216 0.55638 0.0
H153 H 0.78421 0.19746 0.47143 0.0
H154 H 0.83405 0.29807 0.56105 0.0
H155 H 0.86193 0.27881 0.47571 0.0
H156 H 1.00355 0.41961 0.48454 0.0
H157 H 0.94557 0.33155 0.4942 0.0
H158 H 0.85887 0.38056 0.54411 0.0
H159 H 0.91857 0.46901 0.53533 0.0
C160 C 0.77884 0.2289 0.53895 0.0
C161 C 0.7634 0.2008 0.51349 0.0
C162 C 0.82394 0.27597 0.54154 0.0
C163 C 0.85429 0.29529 0.51873 0.0
C164 C 0.84013 0.26508 0.49385 0.0
C165 C 0.79525 0.21845 0.49129 0.0
C166 C 0.97282 0.41156 0.49816 0.0
C167 C 0.9647 0.4507 0.50877 0.0
C168 C 0.93951 0.36115 0.50362 0.0
C169 C 0.89678 0.34879 0.51934 0.0
C170 C 0.8914 0.38862 0.53198 0.0
C171 C 0.92539 0.43928 0.52686 0.0
H172 H 0.68628 0.74236 0.86868 0.0
H173 H 0.64823 0.71652 0.78192 0.0
H174 H 0.70125 0.82895 0.86772 0.0
H175 H 0.66219 0.80286 0.78098 0.0
H176 H 0.7215 0.97139 0.78353 0.0
H177 H 0.72488 0.89334 0.78614 0.0
H178 H 0.64711 0.86571 0.86246 0.0
H179 H 0.64453 0.94441 0.86004 0.0
C180 C 0.68163 0.75546 0.84934 0.0
C181 C 0.66587 0.72283 0.82538 0.0
C182 C 0.68991 0.80491 0.84883 0.0
C183 C 0.68252 0.82265 0.82434 0.0
C184 C 0.66873 0.79054 0.80013 0.0
C185 C 0.6605 0.74105 0.80065 0.0
C186 C 0.70568 0.949 0.80105 0.0
C187 C 0.68226 0.96362 0.82151 0.0
C188 C 0.70742 0.90415 0.80245 0.0
C189 C 0.68583 0.87306 0.82434 0.0
C190 C 0.66451 0.88903 0.84544 0.0
C191 C 0.66284 0.93396 0.84404 0.0
H192 H 0.88465 0.56039 0.22379 0.0
H193 H 0.90479 0.64239 0.1514 0.0
H194 H 0.79655 0.54039 0.22501 0.0
H195 H 0.81683 0.62255 0.15267 0.0
H196 H 0.64225 0.43544 0.17366 0.0
H197 H 0.73098 0.4786 0.1891 0.0
H198 H 0.74356 0.62413 0.17723 0.0
H199 H 0.65417 0.58069 0.16202 0.0
C200 C 0.8708 0.57579 0.20876 0.0
C201 C 0.90108 0.60212 0.18719 0.0
C202 C 0.82035 0.56414 0.20941 0.0
C203 C 0.79971 0.57915 0.18866 0.0
C204 C 0.83176 0.61056 0.16896 0.0
C205 C 0.8821 0.62182 0.16818 0.0
C206 C 0.66368 0.47669 0.17501 0.0
C207 C 0.64159 0.5047 0.1666 0.0
C208 C 0.71433 0.50146 0.18404 0.0
C209 C 0.7441 0.55477 0.18444 0.0
C210 C 0.72138 0.58302 0.17714 0.0
C211 C 0.67031 0.55817 0.1685 0.0
H212 H 0.3081 0.95971 0.49004 0.0
H213 H 0.36495 0.87584 0.44235 0.0
H214 H 0.22401 0.88279 0.48924 0.0
H215 H 0.2817 0.79941 0.44203 0.0
H216 H 0.07572 0.73138 0.4449 0.0
H217 H 0.15244 0.81548 0.45068 0.0
H218 H 0.23288 0.74722 0.48498 0.0
H219 H 0.15663 0.66359 0.47935 0.0
C220 C 0.30234 0.92519 0.47897 0.0
C221 C 0.34293 0.92354 0.46633 0.0
C222 C 0.25448 0.88131 0.47866 0.0
C223 C 0.24702 0.83524 0.4661 0.0
C224 C 0.28694 0.83439 0.45229 0.0
C225 C 0.33436 0.87821 0.45224 0.0
C226 C 0.10941 0.73478 0.45452 0.0
C227 C 0.11041 0.69107 0.46159 0.0
C228 C 0.15315 0.78272 0.45775 0.0
C229 C 0.19849 0.78732 0.46776 0.0
C230 C 0.19835 0.74432 0.47689 0.0
C231 C 0.1546 0.69663 0.47399 0.0
H232 H 0.47532 0.27465 0.80037 0.0
H233 H 0.55811 0.32078 0.87822 0.0
H234 H 0.48607 0.20078 0.79585 0.0
H235 H 0.5677 0.2455 0.87425 0.0
H236 H 0.65483 0.1755 0.82608 0.0
H237 H 0.62144 0.22789 0.8458 0.0
H238 H 0.474 0.12183 0.80858 0.0
H239 H 0.50848 0.07089 0.78797 0.0
C240 C 0.49427 0.26791 0.817 0.0
C241 C 0.51661 0.30375 0.8394 0.0
C242 C 0.50026 0.22528 0.81453 0.0
C243 C 0.52852 0.21747 0.83451 0.0
C244 C 0.54665 0.25093 0.85823 0.0
C245 C 0.5408 0.29379 0.86062 0.0
C246 C 0.61498 0.1628 0.82286 0.0
C247 C 0.58431 0.1198 0.80529 0.0
C248 C 0.59563 0.19261 0.83423 0.0
C249 C 0.54511 0.17957 0.8284 0.0
C250 C 0.51333 0.13365 0.81295 0.0
C251 C 0.53289 0.10432 0.80128 0.0
H252 H 0.6326 0.95099 0.51486 0.0
H253 H 0.47291 0.87177 0.49253 0.0
H254 H 0.62805 0.86905 0.5202 0.0
H255 H 0.46862 0.79067 0.49778 0.0
H256 H 0.46584 0.66387 0.54558 0.0
H257 H 0.47386 0.74533 0.53638 0.0
H258 H 0.61232 0.7865 0.49456 0.0
H259 H 0.60392 0.70379 0.50383 0.0
C260 C 0.59659 0.91628 0.511 0.0
C261 C 0.55309 0.91842 0.50342 0.0
C262 C 0.59409 0.8692 0.51387 0.0
C263 C 0.54791 0.82302 0.50956 0.0
C264 C 0.50473 0.8253 0.50161 0.0
C265 C 0.50729 0.87209 0.4985 0.0
C266 C 0.4978 0.69001 0.53415 0.0
C267 C 0.53396 0.67704 0.52526 0.0
C268 C 0.50235 0.73682 0.5288 0.0
C269 C 0.54363 0.77272 0.5146 0.0
C270 C 0.58013 0.75992 0.50566 0.0
C271 C 0.57515 0.71239 0.51075 0.0
H272 H 0.77777 0.59306 0.82985 0.0
H273 H 0.69095 0.42886 0.82371 0.0
H274 H 0.85589 0.58967 0.83433 0.0
H275 H 0.76863 0.42533 0.82712 0.0
H276 H 0.9055 0.43637 0.87269 0.0
H277 H 0.82912 0.43756 0.86023 0.0
H278 H 0.91775 0.57111 0.81553 0.0
H279 H 0.99514 0.57059 0.8291 0.0
C280 C 0.7753 0.5562 0.829 0.0
C281 C 0.7277 0.51126 0.82669 0.0
C282 C 0.82033 0.5542 0.83142 0.0
C283 C 0.81917 0.50719 0.83142 0.0
C284 C 0.77153 0.46236 0.82793 0.0
C285 C 0.72666 0.46437 0.82579 0.0
C286 C 0.90869 0.46553 0.85978 0.0
C287 C 0.95662 0.50338 0.85193 0.0
C288 C 0.86459 0.46616 0.85246 0.0
C289 C 0.86658 0.50459 0.83687 0.0
C290 C 0.91442 0.54126 0.82788 0.0
C291 C 0.95886 0.54058 0.83527 0.0
H292 H 0.15134 0.72747 0.17844 0.0
H293 H 0.22483 0.64249 0.15305 0.0
H294 H 0.23348 0.80577 0.1824 0.0
H295 H 0.30686 0.72087 0.1568 0.0
H296 H 0.4443 0.85879 0.20443 0.0
H297 H 0.36445 0.7806 0.19279 0.0
H298 H 0.30547 0.86805 0.15717 0.0
H299 H 0.38598 0.94663 0.16909 0.0
C300 C 0.1849 0.72538 0.17354 0.0
C301 C 0.1811 0.67825 0.16557 0.0
C302 C 0.23215 0.77055 0.17559 0.0
C303 C 0.27717 0.77 0.16994 0.0
C304 C 0.27325 0.72293 0.16161 0.0
C305 C 0.22599 0.67784 0.15936 0.0
C306 C 0.41472 0.86114 0.19345 0.0
C307 C 0.42167 0.90888 0.18745 0.0
C308 C 0.36878 0.81624 0.18678 0.0
C309 C 0.328 0.81768 0.17418 0.0
C310 C 0.3357 0.86537 0.16715 0.0
C311 C 0.38207 0.9104 0.1736 0.0
H312 H 0.63033 0.24776 0.50294 0.0
H313 H 0.46809 0.16659 0.48842 0.0
H314 H 0.63017 0.32792 0.50813 0.0
H315 H 0.4681 0.24704 0.4933 0.0
H316 H 0.48379 0.39017 0.54335 0.0
H317 H 0.47993 0.30979 0.52966 0.0
H318 H 0.61782 0.39093 0.48585 0.0
H319 H 0.62155 0.47179 0.49995 0.0
C320 C 0.59457 0.24688 0.50057 0.0
C321 C 0.54915 0.2002 0.4954 0.0
C322 C 0.59457 0.29317 0.50335 0.0
C323 C 0.54913 0.29439 0.50121 0.0
C324 C 0.50383 0.24781 0.49542 0.0
C325 C 0.50386 0.2015 0.49248 0.0
C326 C 0.51256 0.39067 0.53018 0.0
C327 C 0.55272 0.43731 0.52252 0.0
C328 C 0.5104 0.34449 0.5223 0.0
C329 C 0.54871 0.34346 0.50673 0.0
C330 C 0.58791 0.3901 0.4981 0.0
C331 C 0.58977 0.43645 0.50583 0.0
H332 H 0.40758 0.45019 0.8641 0.0
H333 H 0.46307 0.57013 0.80832 0.0
H334 H 0.32972 0.45432 0.86865 0.0
H335 H 0.38436 0.57317 0.81237 0.0
H336 H 0.20788 0.52205 0.81165 0.0
H337 H 0.28104 0.50985 0.80276 0.0
H338 H 0.31735 0.53071 0.88954 0.0
H339 H 0.24626 0.54469 0.89819 0.0
C340 C 0.403 0.47703 0.85254 0.0
C341 C 0.4419 0.51003 0.83597 0.0
C342 C 0.35832 0.47938 0.85516 0.0
C343 C 0.35068 0.51388 0.84076 0.0
C344 C 0.38884 0.54583 0.82352 0.0
C345 C 0.43411 0.54434 0.8214 0.0
C346 C 0.23126 0.52343 0.82875 0.0
C347 C 0.22121 0.53408 0.85564 0.0
C348 C 0.27327 0.5168 0.82368 0.0
C349 C 0.30496 0.51919 0.84549 0.0
C350 C 0.29363 0.52827 0.87232 0.0
C351 C 0.25288 0.53631 0.87726 0.0
H352 H 0.92164 0.3405 0.15537 0.0
H353 H 0.85068 0.43292 0.16149 0.0
H354 H 0.83936 0.26438 0.16156 0.0
H355 H 0.76917 0.35757 0.16687 0.0
H356 H 0.64752 0.2309 0.21267 0.0
H357 H 0.72863 0.30204 0.20181 0.0
H358 H 0.75238 0.20353 0.14397 0.0
H359 H 0.6703 0.13109 0.15557 0.0
C360 C 0.88852 0.34461 0.15763 0.0
C361 C 0.89326 0.39325 0.15822 0.0
C362 C 0.84117 0.30082 0.16109 0.0
C363 C 0.79729 0.30449 0.16518 0.0
C364 C 0.80199 0.35296 0.16453 0.0
C365 C 0.84903 0.39646 0.16125 0.0
C366 C 0.66978 0.22426 0.19748 0.0
C367 C 0.65206 0.17528 0.18488 0.0
C368 C 0.71644 0.26536 0.19107 0.0
C369 C 0.74734 0.25921 0.17167 0.0
C370 C 0.72987 0.20992 0.15907 0.0
C371 C 0.68265 0.16839 0.16555 0.0
H372 H 1.01072 0.46461 0.08373 0.0
H373 H 0.07579 0.62565 0.07475 0.0
H374 H 1.01743 0.45073 0.03433 0.0
H375 H 0.08258 0.61195 0.0257 0.0
H376 H 0.12621 0.57706 0.94247 0.0
H377 H 0.12792 0.58452 0.9925 0.0
H378 H 0.97457 0.45827 0.99177 0.0
H379 H 0.9731 0.45027 0.94166 0.0
C380 C 0.02689 0.497 0.07123 0.0
C381 C 0.04244 0.54614 0.08293 0.0
C382 C 0.03052 0.48906 0.04302 0.0
C383 C 0.05045 0.53026 0.02618 0.0
C384 C 0.06752 0.57954 0.03817 0.0
C385 C 0.06336 0.58735 0.06622 0.0
C386 C 0.09317 0.55036 0.95301 0.0
C387 C 0.04942 0.51323 0.93816 0.0
C388 C 0.09404 0.55487 0.98162 0.0
C389 C 0.05132 0.52212 0.99602 0.0
C390 C 1.00819 0.4838 0.98123 0.0
C391 C 1.00716 0.47955 0.95257 0.0
H392 H 0.60542 1.00415 0.40988 0.0
H393 H 0.50158 0.06118 0.41926 0.0
H394 H 0.58759 0.99053 0.36062 0.0
H395 H 0.48435 0.04855 0.36958 0.0
H396 H 0.43817 0.98044 0.28014 0.0
H397 H 0.44769 0.98571 0.33007 0.0
H398 H 0.60868 0.04579 0.32333 0.0
H399 H 0.59889 0.03878 0.2736 0.0
C400 C 0.57848 1.01348 0.40137 0.0
C401 C 0.55529 0.03424 0.41831 0.0
C402 C 0.56854 1.00604 0.37312 0.0
C403 C 0.53528 0.01934 0.36108 0.0
C404 C 0.51013 0.03784 0.37821 0.0
C405 C 0.52003 0.04519 0.40662 0.0
C406 C 0.4755 0.99434 0.28936 0.0
C407 C 0.51777 1.00909 0.27288 0.0
C408 C 0.48101 0.99781 0.31796 0.0
C409 C 0.52887 1.01588 0.33071 0.0
C410 C 0.57112 0.03093 0.31419 0.0
C411 C 0.56564 0.02754 0.28567 0.0
H412 H 0.64881 0.55444 0.7545 0.0
H413 H 0.48589 0.46904 0.74388 0.0
H414 H 0.65559 0.57432 0.70618 0.0
H415 H 0.49252 0.48892 0.69602 0.0
H416 H 0.51705 0.56107 0.61569 0.0
H417 H 0.51959 0.56092 0.66566 0.0
H418 H 0.63617 0.51985 0.66149 0.0
H419 H 0.63405 0.52058 0.61155 0.0
C420 C 0.61455 0.54059 0.74194 0.0
C421 C 0.56685 0.50988 0.75276 0.0
C422 C 0.6184 0.55175 0.71433 0.0
C423 C 0.57457 0.53311 0.69733 0.0
C424 C 0.52693 0.50428 0.70863 0.0
C425 C 0.52315 0.4926 0.73599 0.0
C426 C 0.54388 0.55297 0.62549 0.0
C427 C 0.57508 0.54045 0.60972 0.0
C428 C 0.54512 0.55259 0.65406 0.0
C429 C 0.57793 0.54017 0.66746 0.0
C430 C 0.61079 0.52997 0.65177 0.0
C431 C 0.60921 0.52987 0.62319 0.0
H432 H 0.47324 0.98507 0.58544 0.0
H433 H 0.61591 0.11448 0.56646 0.0
H434 H 0.50394 0.99299 0.63259 0.0
H435 H 0.64691 0.1227 0.61393 0.0
H436 H 0.63947 0.15071 0.71045 0.0
H437 H 0.61965 0.14399 0.66128 0.0
H438 H 0.57371 0.98433 0.65732 0.0
H439 H 0.59349 0.99101 0.7064 0.0
C440 C 0.51132 1.01509 0.59139 0.0
C441 C 0.54253 0.04898 0.57241 0.0
C442 C 0.52896 0.01939 0.61827 0.0
C443 C 0.57787 0.05819 0.62676 0.0
C444 C 0.60908 0.09239 0.6078 0.0
C445 C 0.59161 0.08752 0.5807 0.0
C446 C 0.6256 0.11437 0.69894 0.0
C447 C 0.61779 0.07132 0.71213 0.0
C448 C 0.61466 0.11063 0.67087 0.0
C449 C 0.59505 0.06362 0.65565 0.0
C450 C 0.58857 0.02093 0.6687 0.0
C451 C 0.60014 0.02481 0.69666 0.0
H452 H 0.51286 0.46481 0.90111 0.0
H453 H 0.67295 0.55165 0.92199 0.0
H454 H 0.49492 0.44593 0.9487 0.0
H455 H 0.6555 0.53059 0.96963 0.0
H456 H 0.59848 0.54756 0.05478 0.0
H457 H 0.62325 0.5549 0.00727 0.0
H458 H 0.49747 0.40349 0.98634 0.0
H459 H 0.47157 0.39762 0.03381 0.0
C460 C 0.54431 0.47894 0.91586 0.0
C461 C 0.59422 0.51023 0.90802 0.0
C462 C 0.53412 0.46777 0.94318 0.0
C463 C 0.57372 0.48698 0.96322 0.0
C464 C 0.62395 0.51608 0.95494 0.0
C465 C 0.63405 0.52789 0.92764 0.0
C466 C 0.57674 0.51559 0.04005 0.0
C467 C 0.53299 0.47219 0.04782 0.0
C468 C 0.591 0.51961 0.01279 0.0
C469 C 0.56217 0.47994 0.99276 0.0
C470 C 0.51992 0.4353 0.001 0.0
C471 C 0.50521 0.43169 0.02819 0.0
H472 H 0.99972 0.44748 0.2464 0.0
H473 H 0.05695 0.60613 0.23344 0.0
H474 H 0.99096 0.46413 0.29504 0.0
H475 H 0.04819 0.62277 0.28206 0.0
H476 H 0.10204 0.63561 0.37304 0.0
H477 H 0.09646 0.62039 0.32359 0.0
H478 H 0.94457 0.49362 0.32835 0.0
H479 H 0.94924 0.50985 0.37821 0.0
C480 C 1.00985 0.48575 0.25394 0.0
C481 C 0.02956 0.52566 0.23635 0.0
C482 C 1.0045 0.49518 0.28167 0.0
C483 C 1.01917 0.54477 0.29227 0.0
C484 C 0.03706 0.58429 0.27442 0.0
C485 C 0.04199 0.57476 0.24665 0.0
C486 C 0.0668 0.60535 0.36364 0.0
C487 C 0.02587 0.57424 0.37968 0.0
C488 C 0.06376 0.59654 0.33525 0.0
C489 C 1.02002 0.55602 0.32217 0.0
C490 C 0.97882 0.52502 0.33801 0.0
C491 C 0.98161 0.53422 0.36651 0.0
loop_
_geom_bond_atom_site_label_1
_geom_bond_atom_site_label_2
_geom_bond_distance
_geom_bond_site_symmetry_2
_ccdc_geom_bond_type
Dy0 O4 2.398 . S
Dy0 O5 2.491 . S
Dy0 O6 2.403 . S
Dy0 O7 2.664 . S
Dy0 O11 2.326 . S
Dy0 O15 2.310 . S
Dy0 O16 2.351 . S
C1 O12 1.185 . S
C1 O13 1.355 . S
C2 O4 1.185 . S
C2 O5 1.355 . S
Dy3 O7 2.310 . S
Dy3 O10 2.351 . S
Dy3 O12 2.398 1_455 S
Dy3 O13 2.491 1_455 S
Dy3 O14 2.403 . S
Dy3 O15 2.664 . S
Dy3 O17 2.326 1_455 S
O4 Dy0 2.398 . S
O4 C2 1.185 . S
O5 Dy0 2.491 . S
O5 C2 1.355 . S
O6 Dy0 2.403 . S
O6 C8 1.254 . S
O7 Dy0 2.664 . S
O7 Dy3 2.310 . S
O7 C8 1.268 . S
C8 O6 1.254 . S
C8 O7 1.268 . S
C9 O14 1.254 . S
C9 O15 1.268 . S
O10 Dy3 2.351 . S
O10 C18 1.249 . S
O11 Dy0 2.326 . S
O11 C18 1.267 . S
O12 C1 1.185 . S
O12 Dy3 2.398 1_655 S
O13 C1 1.355 . S
O13 Dy3 2.491 1_655 S
O14 Dy3 2.403 . S
O14 C9 1.254 . S
O15 Dy0 2.310 . S
O15 Dy3 2.664 . S
O15 C9 1.268 . S
O16 Dy0 2.351 . S
O16 C19 1.249 1_455 S
O17 Dy3 2.326 1_655 S
O17 C19 1.267 . S
C18 O10 1.249 . S
C18 O11 1.267 . S
C19 O16 1.249 1_655 S
C19 O17 1.267 . S
Dy20 O24 2.398 . S
Dy20 O25 2.491 . S
Dy20 O26 2.403 . S
Dy20 O27 2.664 1_565 S
Dy20 O31 2.326 . S
Dy20 O35 2.310 1_565 S
Dy20 O36 2.351 1_565 S
C21 O32 1.185 . S
C21 O33 1.355 . S
C22 O24 1.185 . S
C22 O25 1.355 . S
Dy23 O27 2.310 . S
Dy23 O30 2.351 1_545 S
Dy23 O32 2.398 . S
Dy23 O33 2.491 . S
Dy23 O34 2.403 . S
Dy23 O35 2.664 . S
Dy23 O37 2.326 . S
O24 Dy20 2.398 . S
O24 C22 1.185 . S
O25 Dy20 2.491 . S
O25 C22 1.355 . S
O26 Dy20 2.403 . S
O26 C28 1.254 1_565 S
O27 Dy20 2.664 1_545 S
O27 Dy23 2.310 . S
O27 C28 1.268 . S
C28 O26 1.254 1_545 S
C28 O27 1.268 . S
C29 O34 1.254 . S
C29 O35 1.268 . S
O30 Dy23 2.351 1_565 S
O30 C38 1.249 . S
O31 Dy20 2.326 . S
O31 C38 1.267 . S
O32 C21 1.185 . S
O32 Dy23 2.398 . S
O33 C21 1.355 . S
O33 Dy23 2.491 . S
O34 Dy23 2.403 . S
O34 C29 1.254 . S
O35 Dy20 2.310 1_545 S
O35 Dy23 2.664 . S
O35 C29 1.268 . S
O36 Dy20 2.351 1_545 S
O36 C39 1.249 . S
O37 Dy23 2.326 . S
O37 C39 1.267 . S
C38 O30 1.249 . S
C38 O31 1.267 . S
C39 O36 1.249 . S
C39 O37 1.267 . S
Dy40 O44 2.398 . S
Dy40 O45 2.491 . S
Dy40 O46 2.403 . S
Dy40 O47 2.664 . S
Dy40 O51 2.326 . S
Dy40 O55 2.310 . S
Dy40 O56 2.351 . S
C41 O52 1.185 . S
C41 O53 1.355 . S
C42 O44 1.185 . S
C42 O45 1.355 . S
Dy43 O47 2.310 . S
Dy43 O50 2.351 . S
Dy43 O52 2.398 . S
Dy43 O53 2.491 . S
Dy43 O54 2.403 . S
Dy43 O55 2.664 . S
Dy43 O57 2.326 . S
O44 Dy40 2.398 . S
O44 C42 1.185 . S
O45 Dy40 2.491 . S
O45 C42 1.355 . S
O46 Dy40 2.403 . S
O46 C48 1.254 . S
O47 Dy40 2.664 . S
O47 Dy43 2.310 . S
O47 C48 1.268 . S
C48 O46 1.254 . S
C48 O47 1.268 . S
C49 O54 1.254 . S
C49 O55 1.268 . S
O50 Dy43 2.351 . S
O50 C58 1.249 . S
O51 Dy40 2.326 . S
O51 C58 1.267 . S
O52 C41 1.185 . S
O52 Dy43 2.398 . S
O53 C41 1.355 . S
O53 Dy43 2.491 . S
O54 Dy43 2.403 . S
O54 C49 1.254 . S
O55 Dy40 2.310 . S
O55 Dy43 2.664 . S
O55 C49 1.268 . S
O56 Dy40 2.351 . S
O56 C59 1.249 . S
O57 Dy43 2.326 . S
O57 C59 1.267 . S
C58 O50 1.249 . S
C58 O51 1.267 . S
C59 O56 1.249 . S
C59 O57 1.267 . S
H60 C65 0.930 . S
H61 C68 0.930 . S
H62 C70 0.930 . S
H63 C64 1.016 . S
C64 H63 1.016 . S
C64 N71 1.286 . S
C65 H60 0.930 . S
C65 C66 1.397 . S
C65 C67 1.361 1_565 S
C66 C65 1.397 . S
C66 C70 1.390 . S
C67 C65 1.361 1_545 S
C67 C68 1.393 . S
C67 N71 1.413 . S
C68 H61 0.930 . S
C68 C67 1.393 . S
C68 C69 1.399 . S
C69 C68 1.399 . S
C69 C70 1.381 1_545 S
C70 H62 0.930 . S
C70 C66 1.390 . S
C70 C69 1.381 1_565 S
N71 C64 1.286 . S
N71 C67 1.413 . S
H72 C77 0.930 . S
H73 C80 0.930 . S
H74 C82 0.930 . S
H75 C76 1.016 . S
C76 H75 1.016 . S
C76 N83 1.286 . S
C77 H72 0.930 . S
C77 C78 1.397 . S
C77 C79 1.361 . S
C78 C77 1.397 . S
C78 C82 1.390 . S
C79 C77 1.361 . S
C79 C80 1.393 . S
C79 N83 1.413 . S
C80 H73 0.930 . S
C80 C79 1.393 . S
C80 C81 1.399 . S
C81 C80 1.399 . S
C81 C82 1.381 . S
C82 H74 0.930 . S
C82 C78 1.390 . S
C82 C81 1.381 . S
N83 C76 1.286 . S
N83 C79 1.413 . S
H84 C89 0.930 . S
H85 C92 0.930 . S
H86 C94 0.930 1_655 S
H87 C88 1.016 . S
C88 H87 1.016 . S
C88 N95 1.286 . S
C89 H84 0.930 . S
C89 C90 1.397 1_455 S
C89 C91 1.361 . S
C90 C89 1.397 1_655 S
C90 C94 1.390 1_655 S
C91 C89 1.361 . S
C91 C92 1.393 . S
C91 N95 1.413 . S
C92 H85 0.930 . S
C92 C91 1.393 . S
C92 C93 1.399 . S
C93 C92 1.399 . S
C93 C94 1.381 . S
C94 H86 0.930 1_455 S
C94 C90 1.390 1_455 S
C94 C93 1.381 . S
N95 C88 1.286 . S
N95 C91 1.413 . S
H96 C101 0.930 . S
H97 C104 0.930 . S
H98 C106 0.930 . S
H99 C100 1.016 . S
C100 H99 1.016 . S
C100 N107 1.286 . S
C101 H96 0.930 . S
C101 C102 1.397 . S
C101 C103 1.361 1_455 S
C102 C101 1.397 . S
C102 C106 1.390 . S
C103 C101 1.361 1_655 S
C103 C104 1.393 . S
C103 N107 1.413 . S
C104 H97 0.930 . S
C104 C103 1.393 . S
C104 C105 1.399 1_655 S
C105 C104 1.399 1_455 S
C105 C106 1.381 . S
C106 H98 0.930 . S
C106 C102 1.390 . S
C106 C105 1.381 . S
N107 C100 1.286 . S
N107 C103 1.413 . S
H108 C113 0.930 . S
H109 C116 0.930 1_565 S
H110 C118 0.930 . S
H111 C112 1.016 . S
C112 H111 1.016 . S
C112 N119 1.286 . S
C113 H108 0.930 . S
C113 C114 1.397 . S
C113 C115 1.361 . S
C114 C113 1.397 . S
C114 C118 1.390 . S
C115 C113 1.361 . S
C115 C116 1.393 . S
C115 N119 1.413 1_545 S
C116 H109 0.930 1_545 S
C116 C115 1.393 . S
C116 C117 1.399 . S
C117 C116 1.399 . S
C117 C118 1.381 . S
C118 H110 0.930 . S
C118 C114 1.390 . S
C118 C117 1.381 . S
N119 C112 1.286 . S
N119 C115 1.413 1_565 S
H120 C125 0.930 . S
H121 C128 0.930 . S
H122 C130 0.930 . S
H123 C124 1.016 . S
C124 H123 1.016 . S
C124 N131 1.286 . S
C125 H120 0.930 . S
C125 C126 1.397 . S
C125 C127 1.361 . S
C126 C125 1.397 . S
C126 C130 1.390 . S
C127 C125 1.361 . S
C127 C128 1.393 . S
C127 N131 1.413 . S
C128 H121 0.930 . S
C128 C127 1.393 . S
C128 C129 1.399 . S
C129 C128 1.399 . S
C129 C130 1.381 . S
C130 H122 0.930 . S
C130 C126 1.390 . S
C130 C129 1.381 . S
N131 C124 1.286 . S
N131 C127 1.413 . S
H132 C140 0.950 . S
H133 C145 0.950 . S
H134 C142 0.950 . S
H135 C144 0.950 . S
H136 C146 0.950 . S
H137 C148 0.950 . S
H138 C150 0.950 . S
H139 C151 0.950 . S
C140 H132 0.950 . S
C140 C141 1.386 . S
C140 C142 1.391 . S
C141 C140 1.386 . S
C141 C145 1.393 . S
C142 H134 0.950 . S
C142 C140 1.391 . S
C142 C143 1.400 . S
C143 C142 1.400 . S
C143 C144 1.398 . S
C143 C149 1.491 . S
C144 H135 0.950 . S
C144 C143 1.398 . S
C144 C145 1.391 . S
C145 H133 0.950 . S
C145 C141 1.393 . S
C145 C144 1.391 . S
C146 H136 0.950 . S
C146 C147 1.386 . S
C146 C148 1.391 . S
C147 C146 1.386 . S
C147 C151 1.393 . S
C148 H137 0.950 . S
C148 C146 1.391 . S
C148 C149 1.400 . S
C149 C143 1.491 . S
C149 C148 1.400 . S
C149 C150 1.398 . S
C150 H138 0.950 . S
C150 C149 1.398 . S
C150 C151 1.391 . S
C151 H139 0.950 . S
C151 C147 1.393 . S
C151 C150 1.391 . S
H152 C160 0.950 . S
H153 C165 0.950 . S
H154 C162 0.950 . S
H155 C164 0.950 . S
H156 C166 0.950 . S
H157 C168 0.950 . S
H158 C170 0.950 . S
H159 C171 0.950 . S
C160 H152 0.950 . S
C160 C161 1.386 . S
C160 C162 1.391 . S
C161 C160 1.386 . S
C161 C165 1.393 . S
C162 H154 0.950 . S
C162 C160 1.391 . S
C162 C163 1.400 . S
C163 C162 1.400 . S
C163 C164 1.398 . S
C163 C169 1.491 . S
C164 H155 0.950 . S
C164 C163 1.398 . S
C164 C165 1.391 . S
C165 H153 0.950 . S
C165 C161 1.393 . S
C165 C164 1.391 . S
C166 H156 0.950 . S
C166 C167 1.386 . S
C166 C168 1.391 . S
C167 C166 1.386 . S
C167 C171 1.393 . S
C168 H157 0.950 . S
C168 C166 1.391 . S
C168 C169 1.400 . S
C169 C163 1.491 . S
C169 C168 1.400 . S
C169 C170 1.398 . S
C170 H158 0.950 . S
C170 C169 1.398 . S
C170 C171 1.391 . S
C171 H159 0.950 . S
C171 C167 1.393 . S
C171 C170 1.391 . S
H172 C180 0.950 . S
H173 C185 0.950 . S
H174 C182 0.950 . S
H175 C184 0.950 . S
H176 C186 0.950 . S
H177 C188 0.950 . S
H178 C190 0.950 . S
H179 C191 0.950 . S
C180 H172 0.950 . S
C180 C181 1.386 . S
C180 C182 1.391 . S
C181 C180 1.386 . S
C181 C185 1.393 . S
C182 H174 0.950 . S
C182 C180 1.391 . S
C182 C183 1.400 . S
C183 C182 1.400 . S
C183 C184 1.398 . S
C183 C189 1.491 . S
C184 H175 0.950 . S
C184 C183 1.398 . S
C184 C185 1.391 . S
C185 H173 0.950 . S
C185 C181 1.393 . S
C185 C184 1.391 . S
C186 H176 0.950 . S
C186 C187 1.386 . S
C186 C188 1.391 . S
C187 C186 1.386 . S
C187 C191 1.393 . S
C188 H177 0.950 . S
C188 C186 1.391 . S
C188 C189 1.400 . S
C189 C183 1.491 . S
C189 C188 1.400 . S
C189 C190 1.398 . S
C190 H178 0.950 . S
C190 C189 1.398 . S
C190 C191 1.391 . S
C191 H179 0.950 . S
C191 C187 1.393 . S
C191 C190 1.391 . S
H192 C200 0.950 . S
H193 C205 0.950 . S
H194 C202 0.950 . S
H195 C204 0.950 . S
H196 C206 0.950 . S
H197 C208 0.950 . S
H198 C210 0.950 . S
H199 C211 0.950 . S
C200 H192 0.950 . S
C200 C201 1.386 . S
C200 C202 1.391 . S
C201 C200 1.386 . S
C201 C205 1.393 . S
C202 H194 0.950 . S
C202 C200 1.391 . S
C202 C203 1.400 . S
C203 C202 1.400 . S
C203 C204 1.398 . S
C203 C209 1.491 . S
C204 H195 0.950 . S
C204 C203 1.398 . S
C204 C205 1.391 . S
C205 H193 0.950 . S
C205 C201 1.393 . S
C205 C204 1.391 . S
C206 H196 0.950 . S
C206 C207 1.386 . S
C206 C208 1.391 . S
C207 C206 1.386 . S
C207 C211 1.393 . S
C208 H197 0.950 . S
C208 C206 1.391 . S
C208 C209 1.400 . S
C209 C203 1.491 . S
C209 C208 1.400 . S
C209 C210 1.398 . S
C210 H198 0.950 . S
C210 C209 1.398 . S
C210 C211 1.391 . S
C211 H199 0.950 . S
C211 C207 1.393 . S
C211 C210 1.391 . S
H212 C220 0.950 . S
H213 C225 0.950 . S
H214 C222 0.950 . S
H215 C224 0.950 . S
H216 C226 0.950 . S
H217 C228 0.950 . S
H218 C230 0.950 . S
H219 C231 0.950 . S
C220 H212 0.950 . S
C220 C221 1.386 . S
C220 C222 1.391 . S
C221 C220 1.386 . S
C221 C225 1.393 . S
C222 H214 0.950 . S
C222 C220 1.391 . S
C222 C223 1.400 . S
C223 C222 1.400 . S
C223 C224 1.398 . S
C223 C229 1.491 . S
C224 H215 0.950 . S
C224 C223 1.398 . S
C224 C225 1.391 . S
C225 H213 0.950 . S
C225 C221 1.393 . S
C225 C224 1.391 . S
C226 H216 0.950 . S
C226 C227 1.386 . S
C226 C228 1.391 . S
C227 C226 1.386 . S
C227 C231 1.393 . S
C228 H217 0.950 . S
C228 C226 1.391 . S
C228 C229 1.400 . S
C229 C223 1.491 . S
C229 C228 1.400 . S
C229 C230 1.398 . S
C230 H218 0.950 . S
C230 C229 1.398 . S
C230 C231 1.391 . S
C231 H219 0.950 . S
C231 C227 1.393 . S
C231 C230 1.391 . S
H232 C240 0.950 . S
H233 C245 0.950 . S
H234 C242 0.950 . S
H235 C244 0.950 . S
H236 C246 0.950 . S
H237 C248 0.950 . S
H238 C250 0.950 . S
H239 C251 0.950 . S
C240 H232 0.950 . S
C240 C241 1.386 . S
C240 C242 1.391 . S
C241 C240 1.386 . S
C241 C245 1.393 . S
C242 H234 0.950 . S
C242 C240 1.391 . S
C242 C243 1.400 . S
C243 C242 1.400 . S
C243 C244 1.398 . S
C243 C249 1.491 . S
C244 H235 0.950 . S
C244 C243 1.398 . S
C244 C245 1.391 . S
C245 H233 0.950 . S
C245 C241 1.393 . S
C245 C244 1.391 . S
C246 H236 0.950 . S
C246 C247 1.386 . S
C246 C248 1.391 . S
C247 C246 1.386 . S
C247 C251 1.393 . S
C248 H237 0.950 . S
C248 C246 1.391 . S
C248 C249 1.400 . S
C249 C243 1.491 . S
C249 C248 1.400 . S
C249 C250 1.398 . S
C250 H238 0.950 . S
C250 C249 1.398 . S
C250 C251 1.391 . S
C251 H239 0.950 . S
C251 C247 1.393 . S
C251 C250 1.391 . S
H252 C260 0.950 . S
H253 C265 0.950 . S
H254 C262 0.950 . S
H255 C264 0.950 . S
H256 C266 0.950 . S
H257 C268 0.950 . S
H258 C270 0.950 . S
H259 C271 0.950 . S
C260 H252 0.950 . S
C260 C261 1.386 . S
C260 C262 1.391 . S
C261 C260 1.386 . S
C261 C265 1.393 . S
C262 H254 0.950 . S
C262 C260 1.391 . S
C262 C263 1.400 . S
C263 C262 1.400 . S
C263 C264 1.398 . S
C263 C269 1.491 . S
C264 H255 0.950 . S
C264 C263 1.398 . S
C264 C265 1.391 . S
C265 H253 0.950 . S
C265 C261 1.393 . S
C265 C264 1.391 . S
C266 H256 0.950 . S
C266 C267 1.386 . S
C266 C268 1.391 . S
C267 C266 1.386 . S
C267 C271 1.393 . S
C268 H257 0.950 . S
C268 C266 1.391 . S
C268 C269 1.400 . S
C269 C263 1.491 . S
C269 C268 1.400 . S
C269 C270 1.398 . S
C270 H258 0.950 . S
C270 C269 1.398 . S
C270 C271 1.391 . S
C271 H259 0.950 . S
C271 C267 1.393 . S
C271 C270 1.391 . S
H272 C280 0.950 . S
H273 C285 0.950 . S
H274 C282 0.950 . S
H275 C284 0.950 . S
H276 C286 0.950 . S
H277 C288 0.950 . S
H278 C290 0.950 . S
H279 C291 0.950 . S
C280 H272 0.950 . S
C280 C281 1.386 . S
C280 C282 1.391 . S
C281 C280 1.386 . S
C281 C285 1.393 . S
C282 H274 0.950 . S
C282 C280 1.391 . S
C282 C283 1.400 . S
C283 C282 1.400 . S
C283 C284 1.398 . S
C283 C289 1.491 . S
C284 H275 0.950 . S
C284 C283 1.398 . S
C284 C285 1.391 . S
C285 H273 0.950 . S
C285 C281 1.393 . S
C285 C284 1.391 . S
C286 H276 0.950 . S
C286 C287 1.386 . S
C286 C288 1.391 . S
C287 C286 1.386 . S
C287 C291 1.393 . S
C288 H277 0.950 . S
C288 C286 1.391 . S
C288 C289 1.400 . S
C289 C283 1.491 . S
C289 C288 1.400 . S
C289 C290 1.398 . S
C290 H278 0.950 . S
C290 C289 1.398 . S
C290 C291 1.391 . S
C291 H279 0.950 . S
C291 C287 1.393 . S
C291 C290 1.391 . S
H292 C300 0.950 . S
H293 C305 0.950 . S
H294 C302 0.950 . S
H295 C304 0.950 . S
H296 C306 0.950 . S
H297 C308 0.950 . S
H298 C310 0.950 . S
H299 C311 0.950 . S
C300 H292 0.950 . S
C300 C301 1.386 . S
C300 C302 1.391 . S
C301 C300 1.386 . S
C301 C305 1.393 . S
C302 H294 0.950 . S
C302 C300 1.391 . S
C302 C303 1.400 . S
C303 C302 1.400 . S
C303 C304 1.398 . S
C303 C309 1.491 . S
C304 H295 0.950 . S
C304 C303 1.398 . S
C304 C305 1.391 . S
C305 H293 0.950 . S
C305 C301 1.393 . S
C305 C304 1.391 . S
C306 H296 0.950 . S
C306 C307 1.386 . S
C306 C308 1.391 . S
C307 C306 1.386 . S
C307 C311 1.393 . S
C308 H297 0.950 . S
C308 C306 1.391 . S
C308 C309 1.400 . S
C309 C303 1.491 . S
C309 C308 1.400 . S
C309 C310 1.398 . S
C310 H298 0.950 . S
C310 C309 1.398 . S
C310 C311 1.391 . S
C311 H299 0.950 . S
C311 C307 1.393 . S
C311 C310 1.391 . S
H312 C320 0.950 . S
H313 C325 0.950 . S
H314 C322 0.950 . S
H315 C324 0.950 . S
H316 C326 0.950 . S
H317 C328 0.950 . S
H318 C330 0.950 . S
H319 C331 0.950 . S
C320 H312 0.950 . S
C320 C321 1.386 . S
C320 C322 1.391 . S
C321 C320 1.386 . S
C321 C325 1.393 . S
C322 H314 0.950 . S
C322 C320 1.391 . S
C322 C323 1.400 . S
C323 C322 1.400 . S
C323 C324 1.398 . S
C323 C329 1.491 . S
C324 H315 0.950 . S
C324 C323 1.398 . S
C324 C325 1.391 . S
C325 H313 0.950 . S
C325 C321 1.393 . S
C325 C324 1.391 . S
C326 H316 0.950 . S
C326 C327 1.386 . S
C326 C328 1.391 . S
C327 C326 1.386 . S
C327 C331 1.393 . S
C328 H317 0.950 . S
C328 C326 1.391 . S
C328 C329 1.400 . S
C329 C323 1.491 . S
C329 C328 1.400 . S
C329 C330 1.398 . S
C330 H318 0.950 . S
C330 C329 1.398 . S
C330 C331 1.391 . S
C331 H319 0.950 . S
C331 C327 1.393 . S
C331 C330 1.391 . S
H332 C340 0.950 . S
H333 C345 0.950 . S
H334 C342 0.950 . S
H335 C344 0.950 . S
H336 C346 0.950 . S
H337 C348 0.950 . S
H338 C350 0.950 . S
H339 C351 0.950 . S
C340 H332 0.950 . S
C340 C341 1.386 . S
C340 C342 1.391 . S
C341 C340 1.386 . S
C341 C345 1.393 . S
C342 H334 0.950 . S
C342 C340 1.391 . S
C342 C343 1.400 . S
C343 C342 1.400 . S
C343 C344 1.398 . S
C343 C349 1.491 . S
C344 H335 0.950 . S
C344 C343 1.398 . S
C344 C345 1.391 . S
C345 H333 0.950 . S
C345 C341 1.393 . S
C345 C344 1.391 . S
C346 H336 0.950 . S
C346 C347 1.386 . S
C346 C348 1.391 . S
C347 C346 1.386 . S
C347 C351 1.393 . S
C348 H337 0.950 . S
C348 C346 1.391 . S
C348 C349 1.400 . S
C349 C343 1.491 . S
C349 C348 1.400 . S
C349 C350 1.398 . S
C350 H338 0.950 . S
C350 C349 1.398 . S
C350 C351 1.391 . S
C351 H339 0.950 . S
C351 C347 1.393 . S
C351 C350 1.391 . S
H352 C360 0.950 . S
H353 C365 0.950 . S
H354 C362 0.950 . S
H355 C364 0.950 . S
H356 C366 0.950 . S
H357 C368 0.950 . S
H358 C370 0.950 . S
H359 C371 0.950 . S
C360 H352 0.950 . S
C360 C361 1.386 . S
C360 C362 1.391 . S
C361 C360 1.386 . S
C361 C365 1.393 . S
C362 H354 0.950 . S
C362 C360 1.391 . S
C362 C363 1.400 . S
C363 C362 1.400 . S
C363 C364 1.398 . S
C363 C369 1.491 . S
C364 H355 0.950 . S
C364 C363 1.398 . S
C364 C365 1.391 . S
C365 H353 0.950 . S
C365 C361 1.393 . S
C365 C364 1.391 . S
C366 H356 0.950 . S
C366 C367 1.386 . S
C366 C368 1.391 . S
C367 C366 1.386 . S
C367 C371 1.393 . S
C368 H357 0.950 . S
C368 C366 1.391 . S
C368 C369 1.400 . S
C369 C363 1.491 . S
C369 C368 1.400 . S
C369 C370 1.398 . S
C370 H358 0.950 . S
C370 C369 1.398 . S
C370 C371 1.391 . S
C371 H359 0.950 . S
C371 C367 1.393 . S
C371 C370 1.391 . S
H372 C380 0.950 1_655 S
H373 C385 0.950 . S
H374 C382 0.950 1_655 S
H375 C384 0.950 . S
H376 C386 0.950 . S
H377 C388 0.950 . S
H378 C390 0.950 1_655 S
H379 C391 0.950 1_655 S
C380 H372 0.950 1_455 S
C380 C381 1.386 . S
C380 C382 1.391 . S
C381 C380 1.386 . S
C381 C385 1.393 . S
C382 H374 0.950 1_455 S
C382 C380 1.391 . S
C382 C383 1.400 . S
C383 C382 1.400 . S
C383 C384 1.398 . S
C383 C389 1.491 1_554 S
C384 H375 0.950 . S
C384 C383 1.398 . S
C384 C385 1.391 . S
C385 H373 0.950 . S
C385 C381 1.393 . S
C385 C384 1.391 . S
C386 H376 0.950 . S
C386 C387 1.386 . S
C386 C388 1.391 . S
C387 C386 1.386 . S
C387 C391 1.393 . S
C388 H377 0.950 . S
C388 C386 1.391 . S
C388 C389 1.400 . S
C389 C383 1.491 1_556 S
C389 C388 1.400 . S
C389 C390 1.398 . S
C390 H378 0.950 1_455 S
C390 C389 1.398 . S
C390 C391 1.391 . S
C391 H379 0.950 1_455 S
C391 C387 1.393 . S
C391 C390 1.391 . S
H392 C400 0.948 1_565 S
H393 C405 0.950 . S
H394 C402 0.943 1_565 S
H395 C404 0.950 . S
H396 C406 0.950 . S
H397 C408 0.950 . S
H398 C410 0.950 . S
H399 C411 0.936 1_565 S
C400 H392 0.948 1_545 S
C400 C401 1.387 . S
C400 C402 1.392 . S
C401 C400 1.387 . S
C401 C405 1.393 . S
C402 H394 0.943 1_545 S
C402 C400 1.392 . S
C402 C403 1.406 . S
C403 C402 1.406 . S
C403 C404 1.398 . S
C403 C409 1.491 . S
C404 H395 0.950 . S
C404 C403 1.398 . S
C404 C405 1.391 . S
C405 H393 0.950 . S
C405 C401 1.393 . S
C405 C404 1.391 . S
C406 H396 0.950 . S
C406 C407 1.386 . S
C406 C408 1.391 . S
C407 C406 1.386 . S
C407 C411 1.393 . S
C408 H397 0.950 . S
C408 C406 1.391 . S
C408 C409 1.400 . S
C409 C403 1.491 . S
C409 C408 1.400 . S
C409 C410 1.398 . S
C410 H398 0.950 . S
C410 C409 1.398 . S
C410 C411 1.391 . S
C411 H399 0.936 1_545 S
C411 C407 1.393 . S
C411 C410 1.391 . S
H412 C420 0.950 . S
H413 C425 0.950 . S
H414 C422 0.950 . S
H415 C424 0.950 . S
H416 C426 0.950 . S
H417 C428 0.950 . S
H418 C430 0.950 . S
H419 C431 0.950 . S
C420 H412 0.950 . S
C420 C421 1.386 . S
C420 C422 1.391 . S
C421 C420 1.386 . S
C421 C425 1.393 . S
C422 H414 0.950 . S
C422 C420 1.391 . S
C422 C423 1.400 . S
C423 C422 1.400 . S
C423 C424 1.398 . S
C423 C429 1.491 . S
C424 H415 0.950 . S
C424 C423 1.398 . S
C424 C425 1.391 . S
C425 H413 0.950 . S
C425 C421 1.393 . S
C425 C424 1.391 . S
C426 H416 0.950 . S
C426 C427 1.386 . S
C426 C428 1.391 . S
C427 C426 1.386 . S
C427 C431 1.393 . S
C428 H417 0.950 . S
C428 C426 1.391 . S
C428 C429 1.400 . S
C429 C423 1.491 . S
C429 C428 1.400 . S
C429 C430 1.398 . S
C430 H418 0.950 . S
C430 C429 1.398 . S
C430 C431 1.391 . S
C431 H419 0.950 . S
C431 C427 1.393 . S
C431 C430 1.391 . S
H432 C440 0.950 . S
H433 C445 0.950 . S
H434 C442 0.950 . S
H435 C444 0.950 . S
H436 C446 0.950 . S
H437 C448 0.950 . S
H438 C450 0.950 . S
H439 C451 0.950 . S
C440 H432 0.950 . S
C440 C441 1.386 1_565 S
C440 C442 1.391 . S
C441 C440 1.386 1_545 S
C441 C445 1.393 . S
C442 H434 0.950 . S
C442 C440 1.391 . S
C442 C443 1.400 1_565 S
C443 C442 1.400 1_545 S
C443 C444 1.398 . S
C443 C449 1.491 . S
C444 H435 0.950 . S
C444 C443 1.398 . S
C444 C445 1.391 . S
C445 H433 0.950 . S
C445 C441 1.393 . S
C445 C444 1.391 . S
C446 H436 0.950 . S
C446 C447 1.386 . S
C446 C448 1.391 . S
C447 C446 1.386 . S
C447 C451 1.393 1_545 S
C448 H437 0.950 . S
C448 C446 1.391 . S
C448 C449 1.400 . S
C449 C443 1.491 . S
C449 C448 1.400 . S
C449 C450 1.398 1_545 S
C450 H438 0.950 . S
C450 C449 1.398 1_565 S
C450 C451 1.391 . S
C451 H439 0.950 . S
C451 C447 1.393 1_565 S
C451 C450 1.391 . S
H452 C460 0.950 . S
H453 C465 0.950 . S
H454 C462 0.950 . S
H455 C464 0.950 . S
H456 C466 0.950 . S
H457 C468 0.950 . S
H458 C470 0.950 . S
H459 C471 0.950 . S
C460 H452 0.950 . S
C460 C461 1.386 . S
C460 C462 1.391 . S
C461 C460 1.386 . S
C461 C465 1.393 . S
C462 H454 0.950 . S
C462 C460 1.391 . S
C462 C463 1.400 . S
C463 C462 1.400 . S
C463 C464 1.398 . S
C463 C469 1.491 1_556 S
C464 H455 0.950 . S
C464 C463 1.398 . S
C464 C465 1.391 . S
C465 H453 0.950 . S
C465 C461 1.393 . S
C465 C464 1.391 . S
C466 H456 0.950 . S
C466 C467 1.386 . S
C466 C468 1.391 . S
C467 C466 1.386 . S
C467 C471 1.393 . S
C468 H457 0.950 . S
C468 C466 1.391 . S
C468 C469 1.400 . S
C469 C463 1.491 1_554 S
C469 C468 1.400 . S
C469 C470 1.398 . S
C470 H458 0.950 . S
C470 C469 1.398 . S
C470 C471 1.391 . S
C471 H459 0.950 . S
C471 C467 1.393 . S
C471 C470 1.391 . S
H472 C480 0.950 1_655 S
H473 C485 0.950 . S
H474 C482 0.950 1_655 S
H475 C484 0.950 . S
H476 C486 0.950 . S
H477 C488 0.950 . S
H478 C490 0.950 . S
H479 C491 0.950 . S
C480 H472 0.950 1_455 S
C480 C481 1.386 . S
C480 C482 1.391 . S
C481 C480 1.386 . S
C481 C485 1.393 . S
C482 H474 0.950 1_455 S
C482 C480 1.391 . S
C482 C483 1.400 . S
C483 C482 1.400 . S
C483 C484 1.398 . S
C483 C489 1.491 . S
C484 H475 0.950 . S
C484 C483 1.398 . S
C484 C485 1.391 . S
C485 H473 0.950 . S
C485 C481 1.393 . S
C485 C484 1.391 . S
C486 H476 0.950 . S
C486 C487 1.386 . S
C486 C488 1.391 . S
C487 C486 1.386 . S
C487 C491 1.393 1_455 S
C488 H477 0.950 . S
C488 C486 1.391 . S
C488 C489 1.400 . S
C489 C483 1.491 . S
C489 C488 1.400 . S
C489 C490 1.398 1_455 S
C490 H478 0.950 . S
C490 C489 1.398 1_655 S
C490 C491 1.391 . S
C491 H479 0.950 . S
C491 C487 1.393 1_655 S
C491 C490 1.391 . S
C141 C2 1.283 . S
C147 C126 1.300 . S
C161 C21 1.048 . S
C167 C100 1.054 . S
C181 C42 1.124 . S
C187 C112 1.108 . S
C201 C1 0.786 . S
C207 C124 0.813 . S
C227 C102 0.974 . S
C221 C22 0.982 . S
C247 C114 0.918 . S
C241 C41 0.918 . S
C261 C38 1.918 . S
C267 C76 1.886 . S
C281 C59 2.179 . S
C287 C90 2.160 . S
C301 C18 1.770 . S
C307 C66 1.768 . S
C327 C78 1.822 . S
C321 C39 1.856 . S
C347 C88 1.577 . S
C341 C58 1.653 . S
C361 C19 2.005 . S
C367 C64 1.940 . S
C387 C93 1.599 . S
C381 C9 1.524 . S
C401 C29 1.544 . S
C407 C69 1.632 . S
C421 C49 1.525 . S
C427 C81 1.572 . S
C447 C117 1.499 . S
C441 C28 1.487 . S
C467 C129 1.467 . S
C461 C48 1.438 . S
C481 C8 1.398 . S
C487 C105 1.443 . S
