# Generated by pormake.
# Topology rtl, (3,6)-cn, num edge types: 1
# Building blocks:
#     Node 0, Type 0, BuildingBlock: QEWDON_clean_linker_0, # of connection points: 3
#     Node 1, Type 0, BuildingBlock: QEWDON_clean_linker_0, # of connection points: 3
#     Node 2, Type 0, BuildingBlock: QEWDON_clean_linker_0, # of connection points: 3
#     Node 3, Type 0, BuildingBlock: QEWDON_clean_linker_0, # of connection points: 3
#     Node 4, Type 1, BuildingBlock: VOLQOD_clean_sbu_1, # of connection points: 6
#     Node 5, Type 1, BuildingBlock: VOLQOD_clean_sbu_1, # of connection points: 6
#     Edge 6, Type (0, 1), BuildingBlock: XIVTED_clean_linker_0, # of connection points: 2
#     Edge 7, Type (0, 1), BuildingBlock: XIVTED_clean_linker_0, # of connection points: 2
#     Edge 8, Type (0, 1), BuildingBlock: XIVTED_clean_linker_0, # of connection points: 2
#     Edge 9, Type (0, 1), BuildingBlock: XIVTED_clean_linker_0, # of connection points: 2
#     Edge 10, Type (0, 1), BuildingBlock: XIVTED_clean_linker_0, # of connection points: 2
#     Edge 11, Type (0, 1), BuildingBlock: XIVTED_clean_linker_0, # of connection points: 2
#     Edge 12, Type (0, 1), BuildingBlock: XIVTED_clean_linker_0, # of connection points: 2
#     Edge 13, Type (0, 1), BuildingBlock: XIVTED_clean_linker_0, # of connection points: 2
#     Edge 14, Type (0, 1), BuildingBlock: XIVTED_clean_linker_0, # of connection points: 2
#     Edge 15, Type (0, 1), BuildingBlock: XIVTED_clean_linker_0, # of connection points: 2
#     Edge 16, Type (0, 1), BuildingBlock: XIVTED_clean_linker_0, # of connection points: 2
#     Edge 17, Type (0, 1), BuildingBlock: XIVTED_clean_linker_0, # of connection points: 2
# Relax obj value: 0.048
# Max RMSD: 0.148
# Mean RMSD: 0.136
data_MOF--net-rtl--node1-VOLQOD_clean_sbu_1--node2-QEWDON_clean_linker_0--edge1-XIVTED_clean_linker_0
_symmetry_space_group_name_H-M    P1
_symmetry_Int_Tables_number       1
_symmetry_cell_setting            triclinic
loop_
_symmetry_equiv_pos_as_xyz
'x, y, z'
_cell_length_a     39.796405
_cell_length_b     39.860181
_cell_length_c     22.04713
_cell_angle_alpha  91.450266
_cell_angle_beta   91.845508
_cell_angle_gamma 90.024086
loop_
_atom_site_label
_atom_site_type_symbol
_atom_site_fract_x
_atom_site_fract_y
_atom_site_fract_z
_atom_type_partial_charge
H0 H 0.24137 0.85438 0.06369 0.0
C1 C 0.22479 0.85655 0.024 0.0
C2 C 0.19182 0.86823 0.0304 0.0
C3 C 0.23679 0.84951 0.96578 0.0
H4 H 0.14648 0.88406 -0.01513 0.0
C5 C 0.17107 0.87302 0.97887 0.0
C6 C 0.18253 0.86601 0.92034 0.0
C7 C 0.21532 0.8535 0.91456 0.0
C8 C 0.27263 0.84158 0.95677 0.0
H9 H 0.22471 0.84756 0.86999 0.0
C10 C 0.28823 0.81376 -0.0161 0.0
C11 C 0.32174 0.80531 0.97071 0.0
C12 C 0.29101 0.86159 0.9181 0.0
H13 H 0.27955 0.88325 0.89713 0.0
C14 C 0.32417 0.85375 0.90566 0.0
H15 H 0.27403 0.79852 0.01401 0.0
C16 C 0.33934 0.82571 0.93109 0.0
H17 H 0.36468 0.81964 0.91823 0.0
H18 H 0.338 0.86912 0.87527 0.0
H19 H 0.72558 0.69717 0.47098 0.0
C20 C 0.71193 0.68996 0.51038 0.0
C21 C 0.67804 0.68049 0.50339 0.0
C22 C 0.72861 0.68847 0.56754 0.0
H23 H 0.63473 0.66232 0.54801 0.0
C24 C 0.66081 0.66992 0.5539 0.0
C25 C 0.67737 0.66647 0.61049 0.0
C26 C 0.71113 0.67658 0.61733 0.0
C27 C 0.76503 0.69637 0.57416 0.0
H28 H 0.72424 0.67403 0.66079 0.0
C29 C 0.77851 0.72529 0.54848 0.0
C30 C 0.81323 0.73212 0.55405 0.0
C31 C 0.78669 0.67445 0.60551 0.0
H32 H 0.77715 0.65177 0.62489 0.0
C33 C 0.82101 0.68118 0.61127 0.0
H34 H 0.76206 0.74234 0.52413 0.0
C35 C 0.83425 0.70976 0.58579 0.0
H36 H 0.86097 0.71458 0.59158 0.0
H37 H 0.83745 0.66414 0.63553 0.0
H38 H 0.77436 0.19077 0.05857 0.0
C39 C 0.7879 0.18632 0.01724 0.0
C40 C 0.82104 0.1741 0.02039 0.0
C41 C 0.77159 0.19113 0.96061 0.0
H42 H 0.86277 0.15658 0.96844 0.0
C43 C 0.83786 0.16755 0.96634 0.0
C44 C 0.8219 0.17216 0.90954 0.0
C45 C 0.78873 0.18402 0.90704 0.0
C46 C 0.73555 0.20006 0.95678 0.0
H47 H 0.77598 0.18727 0.86339 0.0
C48 C 0.72345 0.22972 -0.0156 0.0
C49 C 0.68898 0.23771 0.97972 0.0
C50 C 0.713 0.17847 0.92473 0.0
H51 H 0.72181 0.15547 0.90336 0.0
C52 C 0.67889 0.18615 0.92047 0.0
H53 H 0.74078 0.24651 0.009 0.0
C54 C 0.6669 0.21553 0.94766 0.0
H55 H 0.64036 0.22122 0.94262 0.0
H56 H 0.66169 0.16936 0.89569 0.0
H57 H 0.31434 0.30192 0.6323 0.0
C58 C 0.31753 0.31639 0.59191 0.0
C59 C 0.32685 0.35038 0.59711 0.0
C60 C 0.31396 0.30052 0.53456 0.0
H61 H 0.34156 0.39377 0.54815 0.0
C62 C 0.33218 0.36826 0.54417 0.0
C63 C 0.32903 0.35262 0.48654 0.0
C64 C 0.31944 0.3187 0.48213 0.0
C65 C 0.30963 0.26388 0.52937 0.0
H66 H 0.31753 0.30595 0.43814 0.0
C67 C 0.27747 0.2493 0.52527 0.0
C68 C 0.27398 0.2144 0.51587 0.0
C69 C 0.33822 0.24348 0.52545 0.0
H70 H 0.36316 0.25446 0.52837 0.0
C71 C 0.33483 0.20885 0.51697 0.0
H72 H 0.25537 0.26511 0.52758 0.0
C73 C 0.30292 0.19435 0.51181 0.0
H74 H 0.30082 0.16741 0.50491 0.0
H75 H 0.35698 0.19323 0.51386 0.0
O76 O 0.92648 0.96925 0.46103 0.0
Zn77 Zn 0.94885 0.01522 0.46211 0.0
O78 O 0.99813 0.01165 0.46559 0.0
Zn79 Zn 0.01576 0.0324 0.54157 0.0
Zn80 Zn 0.01102 0.96448 0.46183 0.0
Zn81 Zn 0.01741 0.03418 0.39713 0.0
O82 O 0.05187 0.06664 0.52635 0.0
O83 O 0.05121 0.069 0.42589 0.0
O84 O 0.93238 0.042 0.53436 0.0
O85 O 0.97921 0.05602 0.58633 0.0
O86 O 0.0362 0.9976 0.59641 0.0
O87 O 0.03781 0.95196 0.53648 0.0
O88 O 0.03952 0.95346 0.39062 0.0
O89 O 0.93347 0.0409 0.38834 0.0
O90 O 0.04338 1.00193 0.34406 0.0
O91 O 0.98105 0.05673 0.34716 0.0
C92 C 0.93867 0.93967 0.45838 0.0
C93 C 0.06282 0.07875 0.47786 0.0
C94 C 0.04455 0.96713 0.58684 0.0
C95 C 0.94738 0.05725 0.57892 0.0
C96 C 0.05048 0.97087 0.34792 0.0
C97 C 0.94903 0.05682 0.34837 0.0
O98 O 0.97027 0.93482 0.45722 0.0
O99 O 0.57263 0.47648 0.06272 0.0
Zn100 Zn 0.54898 0.52187 0.05857 0.0
O101 O 0.49974 0.51748 0.05416 0.0
Zn102 Zn 0.4821 0.53622 0.97861 0.0
Zn103 Zn 0.4884 0.47024 0.05489 0.0
Zn104 Zn 0.47896 0.54059 0.12346 0.0
O105 O 0.4544 0.57728 -0.00402 0.0
O106 O 0.44728 0.57732 0.09558 0.0
O107 O 0.56558 0.54512 -0.01482 0.0
O108 O 0.51964 0.55104 0.92648 0.0
O109 O 0.45293 0.50278 0.93055 0.0
O110 O 0.4604 0.45605 -0.0182 0.0
O111 O 0.46127 0.45988 0.12609 0.0
O112 O 0.56307 0.55088 0.13089 0.0
O113 O 0.45297 0.50837 0.17484 0.0
O114 O 0.51522 0.56381 0.17538 0.0
C115 C 0.56082 0.44673 0.06233 0.0
C116 C 0.44163 0.58982 0.04364 0.0
C117 C 0.44741 0.47162 0.93724 0.0
C118 C 0.55122 0.55437 0.93596 0.0
C119 C 0.44859 0.47673 0.16935 0.0
C120 C 0.54711 0.56607 0.17256 0.0
O121 O 0.5293 0.44136 0.05915 0.0
H122 H 0.22085 0.22025 0.59145 0.0
H123 H 0.10159 0.0992 0.38554 0.0
H124 H 0.25109 0.17265 0.42415 0.0
H125 H 0.08868 0.1135 0.57822 0.0
H126 H 0.15086 0.13567 0.39311 0.0
H127 H 0.16672 0.19041 0.58127 0.0
C128 C 0.21588 0.20379 0.55234 0.0
C129 C 0.24038 0.19864 0.50873 0.0
C130 C 0.13712 0.13096 0.43365 0.0
C131 C 0.1789 0.16487 0.49661 0.0
C132 C 0.10888 0.11025 0.42939 0.0
C133 C 0.09106 0.10304 0.48144 0.0
C134 C 0.14752 0.14494 0.49022 0.0
C135 C 0.10181 0.11815 0.53701 0.0
C136 C 0.18519 0.1867 0.54673 0.0
C137 C 0.23292 0.17699 0.45901 0.0
N138 N 0.1294 0.13838 0.53998 0.0
N139 N 0.20284 0.16093 0.45425 0.0
H140 H 0.38826 0.79614 0.00368 0.0
H141 H 0.38563 0.60873 0.10578 0.0
H142 H 0.29301 0.74376 -0.00679 0.0
H143 H 0.45358 0.64203 0.97107 0.0
H144 H 0.3544 0.66202 0.09623 0.0
H145 H 0.41633 0.74327 0.02591 0.0
C146 C 0.37311 0.77369 0.00624 0.0
C147 C 0.33816 0.77447 -0.00527 0.0
C148 C 0.37618 0.65742 0.06901 0.0
C149 C 0.3703 0.7142 0.02291 0.0
C150 C 0.39396 0.62727 0.07444 0.0
C151 C 0.42201 0.62106 0.03881 0.0
C152 C 0.38746 0.68171 0.02945 0.0
C153 C 0.43189 0.64576 -0.00113 0.0
C154 C 0.38923 0.74363 0.01938 0.0
C155 C 0.31994 0.74457 0.00157 0.0
N156 N 0.41488 0.67519 -0.00421 0.0
N157 N 0.33627 0.71552 0.01497 0.0
H158 H 0.87034 0.73646 0.48941 0.0
H159 H 0.87193 0.93733 0.48802 0.0
H160 H 0.78973 0.79703 0.55896 0.0
H161 H 0.95444 0.87419 0.43406 0.0
H162 H 0.83794 0.88686 0.50172 0.0
H163 H 0.89784 0.78715 0.45623 0.0
C164 C 0.85836 0.76049 0.49748 0.0
C165 C 0.82794 0.76256 0.52776 0.0
C166 C 0.86339 0.88415 0.48634 0.0
C167 C 0.85935 0.82094 0.48981 0.0
C168 C 0.88277 0.91294 0.47831 0.0
C169 C 0.91624 0.91002 0.46046 0.0
C170 C 0.87756 0.85228 0.47615 0.0
C171 C 0.92893 0.87774 0.44856 0.0
C172 C 0.87403 0.78946 0.47838 0.0
C173 C 0.81319 0.79431 0.5358 0.0
N174 N 0.90968 0.85024 0.45695 0.0
N175 N 0.82922 0.82234 0.51754 0.0
H176 H 0.71429 0.30165 0.97243 0.0
H177 H 0.54576 0.38333 0.09526 0.0
H178 H 0.63289 0.24595 0.04636 0.0
H179 H 0.62751 0.44293 0.03201 0.0
H180 H 0.58064 0.33353 0.08726 0.0
H181 H 0.68669 0.35413 0.00374 0.0
C182 C 0.69094 0.30047 -0.00377 0.0
C183 C 0.67559 0.26944 0.00611 0.0
C184 C 0.5912 0.35746 0.07551 0.0
C185 C 0.64381 0.32916 0.04139 0.0
C186 C 0.5712 0.38599 0.07998 0.0
C187 C 0.58358 0.41733 0.06359 0.0
C188 C 0.62384 0.35998 0.05369 0.0
C189 C 0.61693 0.41922 0.04491 0.0
C190 C 0.67512 0.3304 0.01376 0.0
C191 C 0.64527 0.26933 0.03681 0.0
N192 N 0.63581 0.39082 0.03967 0.0
N193 N 0.63029 0.29866 0.0528 0.0
H194 H 0.15127 0.83392 0.10402 0.0
H195 H 0.09121 1.00189 0.26862 0.0
H196 H 0.20117 0.92886 0.08634 0.0
H197 H 0.06273 0.90385 0.32835 0.0
H198 H 0.13066 0.97536 0.19968 0.0
H199 H 0.11885 0.85821 0.18721 0.0
C200 C 0.15608 0.85959 0.11922 0.0
C201 C 0.17916 0.87939 0.08951 0.0
C202 C 0.11588 0.95966 0.22806 0.0
C203 C 0.1414 0.90772 0.18209 0.0
C204 C 0.09311 0.97478 0.26704 0.0
C205 C 0.07347 0.95507 0.30412 0.0
C206 C 0.11878 0.92454 0.22548 0.0
C207 C 0.07731 0.92004 0.30053 0.0
C208 C 0.13743 0.87354 0.16613 0.0
C209 C 0.18395 0.91277 0.10918 0.0
N210 N 0.09935 0.90588 0.26161 0.0
N211 N 0.16488 0.92606 0.1538 0.0
H212 H 0.63456 0.61276 0.59966 0.0
H213 H 0.61233 0.58577 0.95115 0.0
H214 H 0.6813 0.67989 0.73434 0.0
H215 H 0.53589 0.55921 0.81495 0.0
H216 H 0.64433 0.61335 0.87307 0.0
H217 H 0.60456 0.58575 0.67929 0.0
C218 C 0.63828 0.6222 0.64588 0.0
C219 C 0.65999 0.64933 0.65991 0.0
C220 C 0.62055 0.60146 0.86055 0.0
C221 C 0.62641 0.61734 0.75184 0.0
C222 C 0.6024 0.58555 0.90481 0.0
C223 C 0.57141 0.57016 0.8894 0.0
C224 C 0.60791 0.60131 0.80043 0.0
C225 C 0.55959 0.57085 0.82885 0.0
C226 C 0.62127 0.60649 0.69137 0.0
C227 C 0.66482 0.65917 0.72127 0.0
N228 N 0.57796 0.58598 0.7865 0.0
N229 N 0.64813 0.64315 0.76511 0.0
H230 H 0.79355 0.13886 0.11186 0.0
H231 H 0.97331 0.09953 0.26477 0.0
H232 H 0.8859 0.18555 0.06062 0.0
H233 H 0.88044 0.06052 0.33082 0.0
H234 H 0.94109 0.13306 0.19266 0.0
H235 H 0.82387 0.11329 0.19725 0.0
C236 C 0.82003 0.14438 0.11941 0.0
C237 C 0.8373 0.16412 0.07875 0.0
C238 C 0.9277 0.11728 0.22305 0.0
C239 C 0.8723 0.13427 0.17535 0.0
C240 C 0.94613 0.09793 0.2641 0.0
C241 C 0.92962 0.07693 0.30377 0.0
C242 C 0.89243 0.11556 0.22117 0.0
C243 C 0.89429 0.0762 0.30097 0.0
C244 C 0.83741 0.12949 0.16781 0.0
C245 C 0.87172 0.17007 0.09034 0.0
N246 N 0.87688 0.09509 0.26016 0.0
N247 N 0.88814 0.1549 0.13708 0.0
H248 H 0.3127 0.41433 0.63721 0.0
H249 H 0.43658 0.40383 0.92869 0.0
H250 H 0.36253 0.32337 0.69242 0.0
H251 H 0.40757 0.49675 0.84511 0.0
H252 H 0.40101 0.37322 0.85396 0.0
H253 H 0.33798 0.44373 0.72606 0.0
C254 C 0.32855 0.40043 0.66853 0.0
C255 C 0.33588 0.36645 0.6569 0.0
C256 C 0.40233 0.40031 0.85218 0.0
C257 C 0.36484 0.39992 0.7585 0.0
C258 C 0.42265 0.41786 0.89478 0.0
C259 C 0.42535 0.45296 0.89284 0.0
C260 C 0.38435 0.41795 0.80747 0.0
C261 C 0.40654 0.46971 0.84798 0.0
C262 C 0.343 0.41723 0.7191 0.0
C263 C 0.35606 0.34952 0.69959 0.0
N264 N 0.3869 0.45203 0.80697 0.0
N265 N 0.37016 0.36653 0.74816 0.0
H266 H 0.61706 0.70452 0.46411 0.0
H267 H 0.52209 0.6045 0.26552 0.0
H268 H 0.70061 0.64414 0.40675 0.0
H269 H 0.61506 0.57798 0.18072 0.0
H270 H 0.55334 0.64031 0.33799 0.0
H271 H 0.58366 0.68309 0.37674 0.0
C272 C 0.62849 0.68717 0.43228 0.0
C273 C 0.66143 0.67575 0.44283 0.0
C274 C 0.567 0.62743 0.30279 0.0
C275 C 0.62286 0.64943 0.34488 0.0
C276 C 0.54909 0.60645 0.26177 0.0
C277 C 0.56592 0.58801 0.21701 0.0
C278 C 0.60211 0.6302 0.29902 0.0
C279 C 0.60098 0.59158 0.21457 0.0
C280 C 0.60923 0.67437 0.38303 0.0
C281 C 0.67527 0.65354 0.40014 0.0
N282 N 0.6179 0.61204 0.25527 0.0
N283 N 0.65572 0.64065 0.35352 0.0
H284 H 0.88738 0.18303 0.88096 0.0
H285 H 0.87868 0.06186 0.58562 0.0
H286 H 0.79585 0.13595 0.81151 0.0
H287 H 0.97103 0.09821 0.67224 0.0
H288 H 0.84696 0.09417 0.66025 0.0
H289 H 0.91732 0.15807 0.79609 0.0
C290 C 0.87353 0.16766 0.84751 0.0
C291 C 0.83913 0.16131 0.85364 0.0
C292 C 0.87417 0.09513 0.66271 0.0
C293 C 0.87326 0.13257 0.75637 0.0
C294 C 0.89231 0.07667 0.62016 0.0
C295 C 0.92762 0.07708 0.62287 0.0
C296 C 0.89144 0.11425 0.70814 0.0
C297 C 0.94387 0.09687 0.66856 0.0
C298 C 0.89063 0.15341 0.79908 0.0
C299 C 0.82232 0.14166 0.80841 0.0
N300 N 0.92567 0.11456 0.70938 0.0
N301 N 0.83962 0.12772 0.76196 0.0
H302 H 0.31876 0.41877 0.45818 0.0
H303 H 0.43926 0.40913 0.17529 0.0
H304 H 0.3661 0.32793 0.39286 0.0
H305 H 0.41115 0.50276 0.26262 0.0
H306 H 0.4059 0.37902 0.24648 0.0
H307 H 0.34543 0.44966 0.37806 0.0
C308 C 0.33447 0.40524 0.42668 0.0
C309 C 0.34034 0.37068 0.43264 0.0
C310 C 0.40695 0.40615 0.25014 0.0
C311 C 0.37074 0.40588 0.34082 0.0
C312 C 0.42605 0.42346 0.20944 0.0
C313 C 0.42823 0.45863 0.2131 0.0
C314 C 0.38969 0.42399 0.29502 0.0
C315 C 0.41038 0.47566 0.25835 0.0
C316 C 0.34967 0.42291 0.38103 0.0
C317 C 0.36047 0.3544 0.38985 0.0
N318 N 0.39186 0.45815 0.29768 0.0
N319 N 0.37508 0.37218 0.34609 0.0
H320 H 0.20328 0.88822 0.80992 0.0
H321 H 0.0364 0.97193 0.70913 0.0
H322 H 0.11327 0.86507 0.90578 0.0
H323 H 0.09488 0.92163 0.57284 0.0
H324 H 0.06863 0.94213 0.78808 0.0
H325 H 0.16815 0.90842 0.72599 0.0
C326 C 0.17626 0.88671 0.81332 0.0
C327 C 0.16144 0.87498 0.8659 0.0
C328 C 0.07413 0.93757 0.74078 0.0
C329 C 0.12137 0.89971 0.77064 0.0
C330 C 0.05602 0.95463 0.69598 0.0
C331 C 0.06312 0.94911 0.63469 0.0
C332 C 0.1001 0.9158 0.72402 0.0
C333 C 0.08864 0.92637 0.61973 0.0
C334 C 0.1563 0.89859 0.76539 0.0
C335 C 0.12608 0.87472 0.86735 0.0
N336 N 0.10667 0.91088 0.66426 0.0
N337 N 0.10726 0.88754 0.82095 0.0
loop_
_geom_bond_atom_site_label_1
_geom_bond_atom_site_label_2
_geom_bond_distance
_geom_bond_site_symmetry_2
_ccdc_geom_bond_type
H0 C1 0.949 . S
C1 H0 0.949 . S
C1 C2 1.395 . S
C1 C3 1.391 . S
C2 C1 1.395 . S
C2 C5 1.390 . S
C3 C1 1.391 . S
C3 C7 1.387 1_554 S
C3 C8 1.491 1_554 S
H4 C5 0.950 . S
C5 C2 1.390 . S
C5 H4 0.950 . S
C5 C6 1.378 1_554 S
C6 C5 1.378 1_556 S
C6 C7 1.409 . S
C7 C3 1.387 1_556 S
C7 C6 1.409 . S
C7 H9 0.951 . S
C8 C3 1.491 1_556 S
C8 C10 1.382 1_556 S
C8 C12 1.404 . S
H9 C7 0.951 . S
C10 C8 1.382 1_554 S
C10 C11 1.390 . S
C10 H15 0.949 . S
C11 C10 1.390 . S
C11 C16 1.399 1_554 S
C12 C8 1.404 . S
C12 H13 0.950 . S
C12 C14 1.375 . S
H13 C12 0.950 . S
C14 C12 1.375 . S
C14 C16 1.382 . S
C14 H18 0.950 . S
H15 C10 0.949 . S
C16 C11 1.399 1_556 S
C16 C14 1.382 . S
C16 H17 0.952 . S
H17 C16 0.952 . S
H18 C14 0.950 . S
H19 C20 0.949 . S
C20 H19 0.949 . S
C20 C21 1.395 . S
C20 C22 1.391 . S
C21 C20 1.395 . S
C21 C24 1.390 . S
C22 C20 1.391 . S
C22 C26 1.387 . S
C22 C27 1.491 . S
H23 C24 0.950 . S
C24 C21 1.390 . S
C24 H23 0.950 . S
C24 C25 1.378 . S
C25 C24 1.378 . S
C25 C26 1.409 . S
C26 C22 1.387 . S
C26 C25 1.409 . S
C26 H28 0.951 . S
C27 C22 1.491 . S
C27 C29 1.382 . S
C27 C31 1.404 . S
H28 C26 0.951 . S
C29 C27 1.382 . S
C29 C30 1.390 . S
C29 H34 0.949 . S
C30 C29 1.390 . S
C30 C35 1.399 . S
C31 C27 1.404 . S
C31 H32 0.950 . S
C31 C33 1.375 . S
H32 C31 0.950 . S
C33 C31 1.375 . S
C33 C35 1.382 . S
C33 H37 0.950 . S
H34 C29 0.949 . S
C35 C30 1.399 . S
C35 C33 1.382 . S
C35 H36 0.952 . S
H36 C35 0.952 . S
H37 C33 0.950 . S
H38 C39 0.949 . S
C39 H38 0.949 . S
C39 C40 1.395 . S
C39 C41 1.391 . S
C40 C39 1.395 . S
C40 C43 1.390 . S
C41 C39 1.391 . S
C41 C45 1.387 1_554 S
C41 C46 1.491 1_554 S
H42 C43 0.950 . S
C43 C40 1.390 . S
C43 H42 0.950 . S
C43 C44 1.378 1_554 S
C44 C43 1.378 1_556 S
C44 C45 1.409 . S
C45 C41 1.387 1_556 S
C45 C44 1.409 . S
C45 H47 0.951 . S
C46 C41 1.491 1_556 S
C46 C48 1.382 1_556 S
C46 C50 1.404 . S
H47 C45 0.951 . S
C48 C46 1.382 1_554 S
C48 C49 1.390 . S
C48 H53 0.949 . S
C49 C48 1.390 . S
C49 C54 1.399 1_554 S
C50 C46 1.404 . S
C50 H51 0.950 . S
C50 C52 1.375 . S
H51 C50 0.950 . S
C52 C50 1.375 . S
C52 C54 1.382 . S
C52 H56 0.950 . S
H53 C48 0.949 . S
C54 C49 1.399 1_556 S
C54 C52 1.382 . S
C54 H55 0.952 . S
H55 C54 0.952 . S
H56 C52 0.950 . S
H57 C58 0.949 . S
C58 H57 0.949 . S
C58 C59 1.395 . S
C58 C60 1.391 . S
C59 C58 1.395 . S
C59 C62 1.390 . S
C60 C58 1.391 . S
C60 C64 1.387 . S
C60 C65 1.491 . S
H61 C62 0.950 . S
C62 C59 1.390 . S
C62 H61 0.950 . S
C62 C63 1.378 . S
C63 C62 1.378 . S
C63 C64 1.409 . S
C64 C60 1.387 . S
C64 C63 1.409 . S
C64 H66 0.951 . S
C65 C60 1.491 . S
C65 C67 1.382 . S
C65 C69 1.404 . S
H66 C64 0.951 . S
C67 C65 1.382 . S
C67 C68 1.390 . S
C67 H72 0.949 . S
C68 C67 1.390 . S
C68 C73 1.399 . S
C69 C65 1.404 . S
C69 H70 0.950 . S
C69 C71 1.375 . S
H70 C69 0.950 . S
C71 C69 1.375 . S
C71 C73 1.382 . S
C71 H75 0.950 . S
H72 C67 0.949 . S
C73 C68 1.399 . S
C73 C71 1.382 . S
C73 H74 0.952 . S
H74 C73 0.952 . S
H75 C71 0.950 . S
O76 Zn77 1.953 1_565 S
O76 C92 1.225 . S
Zn77 O76 1.953 1_545 S
Zn77 O78 1.949 1_655 S
Zn77 O84 1.919 . S
Zn77 O89 1.924 . S
O78 Zn77 1.949 1_455 S
O78 Zn79 1.923 . S
O78 Zn80 1.950 1_545 S
O78 Zn81 1.945 . S
Zn79 O78 1.923 . S
Zn79 O82 1.933 . S
Zn79 O85 1.941 1_455 S
Zn79 O86 1.965 1_545 S
Zn80 O78 1.950 1_565 S
Zn80 O87 1.938 . S
Zn80 O88 1.906 . S
Zn80 O98 1.953 1_455 S
Zn81 O78 1.945 . S
Zn81 O83 1.932 . S
Zn81 O90 1.977 1_545 S
Zn81 O91 1.910 1_455 S
O82 Zn79 1.933 . S
O82 C93 1.226 . S
O83 Zn81 1.932 . S
O83 C93 1.307 . S
O84 Zn77 1.919 . S
O84 C95 1.253 . S
O85 Zn79 1.941 1_655 S
O85 C95 1.283 . S
O86 Zn79 1.965 1_565 S
O86 C94 1.303 . S
O87 Zn80 1.938 . S
O87 C94 1.247 . S
O88 Zn80 1.906 . S
O88 C96 1.304 . S
O89 Zn77 1.924 . S
O89 C97 1.311 . S
O90 Zn81 1.977 1_565 S
O90 C96 1.272 . S
O91 Zn81 1.910 1_655 S
O91 C97 1.231 . S
C92 O76 1.225 . S
C92 O98 1.298 . S
C93 O82 1.226 . S
C93 O83 1.307 . S
C94 O86 1.303 . S
C94 O87 1.247 . S
C95 O84 1.253 . S
C95 O85 1.283 . S
C96 O88 1.304 . S
C96 O90 1.272 . S
C97 O89 1.311 . S
C97 O91 1.231 . S
O98 Zn80 1.953 1_655 S
O98 C92 1.298 . S
O99 Zn100 1.953 . S
O99 C115 1.225 . S
Zn100 O99 1.953 . S
Zn100 O101 1.949 . S
Zn100 O107 1.919 1_554 S
Zn100 O112 1.924 . S
O101 Zn100 1.949 . S
O101 Zn102 1.923 1_554 S
O101 Zn103 1.950 . S
O101 Zn104 1.945 . S
Zn102 O101 1.923 1_556 S
Zn102 O105 1.933 . S
Zn102 O108 1.941 . S
Zn102 O109 1.965 . S
Zn103 O101 1.950 . S
Zn103 O110 1.938 1_554 S
Zn103 O111 1.906 . S
Zn103 O121 1.953 . S
Zn104 O101 1.945 . S
Zn104 O106 1.932 . S
Zn104 O113 1.977 . S
Zn104 O114 1.910 . S
O105 Zn102 1.933 . S
O105 C116 1.226 1_556 S
O106 Zn104 1.932 . S
O106 C116 1.307 . S
O107 Zn100 1.919 1_556 S
O107 C118 1.253 . S
O108 Zn102 1.941 . S
O108 C118 1.283 . S
O109 Zn102 1.965 . S
O109 C117 1.303 . S
O110 Zn103 1.938 1_556 S
O110 C117 1.247 . S
O111 Zn103 1.906 . S
O111 C119 1.304 . S
O112 Zn100 1.924 . S
O112 C120 1.311 . S
O113 Zn104 1.977 . S
O113 C119 1.272 . S
O114 Zn104 1.910 . S
O114 C120 1.231 . S
C115 O99 1.225 . S
C115 O121 1.298 . S
C116 O105 1.226 1_554 S
C116 O106 1.307 . S
C117 O109 1.303 . S
C117 O110 1.247 . S
C118 O107 1.253 . S
C118 O108 1.283 . S
C119 O111 1.304 . S
C119 O113 1.272 . S
C120 O112 1.311 . S
C120 O114 1.231 . S
O121 Zn103 1.953 . S
O121 C115 1.298 . S
H122 C128 0.930 . S
H123 C132 0.930 . S
H124 C137 0.929 . S
H125 C135 0.929 . S
H126 C130 0.929 . S
H127 C136 0.929 . S
C128 H122 0.930 . S
C128 C129 1.367 . S
C128 C136 1.378 . S
C129 C128 1.367 . S
C129 C137 1.433 . S
C130 H126 0.929 . S
C130 C132 1.378 . S
C130 C134 1.350 . S
C131 C134 1.463 . S
C131 C136 1.350 . S
C131 N139 1.427 . S
C132 H123 0.930 . S
C132 C130 1.378 . S
C132 C133 1.367 . S
C133 C132 1.367 . S
C133 C135 1.433 . S
C134 C130 1.350 . S
C134 C131 1.463 . S
C134 N138 1.427 . S
C135 H125 0.929 . S
C135 C133 1.433 . S
C135 N138 1.384 . S
C136 H127 0.929 . S
C136 C128 1.378 . S
C136 C131 1.350 . S
C137 H124 0.929 . S
C137 C129 1.433 . S
C137 N139 1.384 . S
N138 C134 1.427 . S
N138 C135 1.384 . S
N139 C131 1.427 . S
N139 C137 1.384 . S
H140 C146 0.923 1_556 S
H141 C150 0.930 . S
H142 C155 0.929 . S
H143 C153 0.929 1_556 S
H144 C148 0.929 . S
H145 C154 0.929 1_556 S
C146 H140 0.923 1_554 S
C146 C147 1.367 . S
C146 C154 1.378 . S
C147 C146 1.367 . S
C147 C155 1.433 . S
C148 H144 0.929 . S
C148 C150 1.378 . S
C148 C152 1.350 . S
C149 C152 1.463 . S
C149 C154 1.350 . S
C149 N157 1.427 . S
C150 H141 0.930 . S
C150 C148 1.378 . S
C150 C151 1.367 . S
C151 C150 1.367 . S
C151 C153 1.433 . S
C152 C148 1.350 . S
C152 C149 1.463 . S
C152 N156 1.427 . S
C153 H143 0.929 1_554 S
C153 C151 1.433 . S
C153 N156 1.384 . S
C154 H145 0.929 1_554 S
C154 C146 1.378 . S
C154 C149 1.350 . S
C155 H142 0.929 . S
C155 C147 1.433 . S
C155 N157 1.384 . S
N156 C152 1.427 . S
N156 C153 1.384 . S
N157 C149 1.427 . S
N157 C155 1.384 . S
H158 C164 0.930 . S
H159 C168 0.930 . S
H160 C173 0.929 . S
H161 C171 0.929 . S
H162 C166 0.929 . S
H163 C172 0.929 . S
C164 H158 0.930 . S
C164 C165 1.367 . S
C164 C172 1.378 . S
C165 C164 1.367 . S
C165 C173 1.433 . S
C166 H162 0.929 . S
C166 C168 1.378 . S
C166 C170 1.350 . S
C167 C170 1.463 . S
C167 C172 1.350 . S
C167 N175 1.427 . S
C168 H159 0.930 . S
C168 C166 1.378 . S
C168 C169 1.367 . S
C169 C168 1.367 . S
C169 C171 1.433 . S
C170 C166 1.350 . S
C170 C167 1.463 . S
C170 N174 1.427 . S
C171 H161 0.929 . S
C171 C169 1.433 . S
C171 N174 1.384 . S
C172 H163 0.929 . S
C172 C164 1.378 . S
C172 C167 1.350 . S
C173 H160 0.929 . S
C173 C165 1.433 . S
C173 N175 1.384 . S
N174 C170 1.427 . S
N174 C171 1.384 . S
N175 C167 1.427 . S
N175 C173 1.384 . S
H176 C182 0.930 . S
H177 C186 0.930 . S
H178 C191 0.929 . S
H179 C189 0.929 . S
H180 C184 0.929 . S
H181 C190 0.929 . S
C182 H176 0.930 . S
C182 C183 1.367 1_556 S
C182 C190 1.378 . S
C183 C182 1.367 1_554 S
C183 C191 1.433 . S
C184 H180 0.929 . S
C184 C186 1.378 . S
C184 C188 1.350 . S
C185 C188 1.463 . S
C185 C190 1.350 1_554 S
C185 N193 1.427 . S
C186 H177 0.930 . S
C186 C184 1.378 . S
C186 C187 1.367 . S
C187 C186 1.367 . S
C187 C189 1.433 1_554 S
C188 C184 1.350 . S
C188 C185 1.463 . S
C188 N192 1.427 1_554 S
C189 H179 0.929 . S
C189 C187 1.433 1_556 S
C189 N192 1.384 . S
C190 H181 0.929 . S
C190 C182 1.378 . S
C190 C185 1.350 1_556 S
C191 H178 0.929 . S
C191 C183 1.433 . S
C191 N193 1.384 . S
N192 C188 1.427 1_556 S
N192 C189 1.384 . S
N193 C185 1.427 . S
N193 C191 1.384 . S
H194 C200 0.930 . S
H195 C204 0.930 . S
H196 C209 0.929 . S
H197 C207 0.929 . S
H198 C202 0.929 . S
H199 C208 0.929 . S
C200 H194 0.930 . S
C200 C201 1.367 . S
C200 C208 1.378 . S
C201 C200 1.367 . S
C201 C209 1.433 . S
C202 H198 0.929 . S
C202 C204 1.378 . S
C202 C206 1.350 . S
C203 C206 1.463 . S
C203 C208 1.350 . S
C203 N211 1.427 . S
C204 H195 0.930 . S
C204 C202 1.378 . S
C204 C205 1.367 . S
C205 C204 1.367 . S
C205 C207 1.433 . S
C206 C202 1.350 . S
C206 C203 1.463 . S
C206 N210 1.427 . S
C207 H197 0.929 . S
C207 C205 1.433 . S
C207 N210 1.384 . S
C208 H199 0.929 . S
C208 C200 1.378 . S
C208 C203 1.350 . S
C209 H196 0.929 . S
C209 C201 1.433 . S
C209 N211 1.384 . S
N210 C206 1.427 . S
N210 C207 1.384 . S
N211 C203 1.427 . S
N211 C209 1.384 . S
H212 C218 0.930 . S
H213 C222 0.930 . S
H214 C227 0.929 . S
H215 C225 0.929 . S
H216 C220 0.929 . S
H217 C226 0.929 . S
C218 H212 0.930 . S
C218 C219 1.367 . S
C218 C226 1.378 . S
C219 C218 1.367 . S
C219 C227 1.433 . S
C220 H216 0.929 . S
C220 C222 1.378 . S
C220 C224 1.350 . S
C221 C224 1.463 . S
C221 C226 1.350 . S
C221 N229 1.427 . S
C222 H213 0.930 . S
C222 C220 1.378 . S
C222 C223 1.367 . S
C223 C222 1.367 . S
C223 C225 1.433 . S
C224 C220 1.350 . S
C224 C221 1.463 . S
C224 N228 1.427 . S
C225 H215 0.929 . S
C225 C223 1.433 . S
C225 N228 1.384 . S
C226 H217 0.929 . S
C226 C218 1.378 . S
C226 C221 1.350 . S
C227 H214 0.929 . S
C227 C219 1.433 . S
C227 N229 1.384 . S
N228 C224 1.427 . S
N228 C225 1.384 . S
N229 C221 1.427 . S
N229 C227 1.384 . S
H230 C236 0.930 . S
H231 C240 0.930 . S
H232 C245 0.929 . S
H233 C243 0.929 . S
H234 C238 0.929 . S
H235 C244 0.929 . S
C236 H230 0.930 . S
C236 C237 1.367 . S
C236 C244 1.378 . S
C237 C236 1.367 . S
C237 C245 1.433 . S
C238 H234 0.929 . S
C238 C240 1.378 . S
C238 C242 1.350 . S
C239 C242 1.463 . S
C239 C244 1.350 . S
C239 N247 1.427 . S
C240 H231 0.930 . S
C240 C238 1.378 . S
C240 C241 1.367 . S
C241 C240 1.367 . S
C241 C243 1.433 . S
C242 C238 1.350 . S
C242 C239 1.463 . S
C242 N246 1.427 . S
C243 H233 0.929 . S
C243 C241 1.433 . S
C243 N246 1.384 . S
C244 H235 0.929 . S
C244 C236 1.378 . S
C244 C239 1.350 . S
C245 H232 0.929 . S
C245 C237 1.433 . S
C245 N247 1.384 . S
N246 C242 1.427 . S
N246 C243 1.384 . S
N247 C239 1.427 . S
N247 C245 1.384 . S
H248 C254 0.930 . S
H249 C258 0.930 . S
H250 C263 0.929 . S
H251 C261 0.929 . S
H252 C256 0.929 . S
H253 C262 0.929 . S
C254 H248 0.930 . S
C254 C255 1.367 . S
C254 C262 1.378 . S
C255 C254 1.367 . S
C255 C263 1.433 . S
C256 H252 0.929 . S
C256 C258 1.378 . S
C256 C260 1.350 . S
C257 C260 1.463 . S
C257 C262 1.350 . S
C257 N265 1.427 . S
C258 H249 0.930 . S
C258 C256 1.378 . S
C258 C259 1.367 . S
C259 C258 1.367 . S
C259 C261 1.433 . S
C260 C256 1.350 . S
C260 C257 1.463 . S
C260 N264 1.427 . S
C261 H251 0.929 . S
C261 C259 1.433 . S
C261 N264 1.384 . S
C262 H253 0.929 . S
C262 C254 1.378 . S
C262 C257 1.350 . S
C263 H250 0.929 . S
C263 C255 1.433 . S
C263 N265 1.384 . S
N264 C260 1.427 . S
N264 C261 1.384 . S
N265 C257 1.427 . S
N265 C263 1.384 . S
H266 C272 0.930 . S
H267 C276 0.930 . S
H268 C281 0.929 . S
H269 C279 0.929 . S
H270 C274 0.929 . S
H271 C280 0.929 . S
C272 H266 0.930 . S
C272 C273 1.367 . S
C272 C280 1.378 . S
C273 C272 1.367 . S
C273 C281 1.433 . S
C274 H270 0.929 . S
C274 C276 1.378 . S
C274 C278 1.350 . S
C275 C278 1.463 . S
C275 C280 1.350 . S
C275 N283 1.427 . S
C276 H267 0.930 . S
C276 C274 1.378 . S
C276 C277 1.367 . S
C277 C276 1.367 . S
C277 C279 1.433 . S
C278 C274 1.350 . S
C278 C275 1.463 . S
C278 N282 1.427 . S
C279 H269 0.929 . S
C279 C277 1.433 . S
C279 N282 1.384 . S
C280 H271 0.929 . S
C280 C272 1.378 . S
C280 C275 1.350 . S
C281 H268 0.929 . S
C281 C273 1.433 . S
C281 N283 1.384 . S
N282 C278 1.427 . S
N282 C279 1.384 . S
N283 C275 1.427 . S
N283 C281 1.384 . S
H284 C290 0.930 . S
H285 C294 0.930 . S
H286 C299 0.929 . S
H287 C297 0.929 . S
H288 C292 0.929 . S
H289 C298 0.929 . S
C290 H284 0.930 . S
C290 C291 1.367 . S
C290 C298 1.378 . S
C291 C290 1.367 . S
C291 C299 1.433 . S
C292 H288 0.929 . S
C292 C294 1.378 . S
C292 C296 1.350 . S
C293 C296 1.463 . S
C293 C298 1.350 . S
C293 N301 1.427 . S
C294 H285 0.930 . S
C294 C292 1.378 . S
C294 C295 1.367 . S
C295 C294 1.367 . S
C295 C297 1.433 . S
C296 C292 1.350 . S
C296 C293 1.463 . S
C296 N300 1.427 . S
C297 H287 0.929 . S
C297 C295 1.433 . S
C297 N300 1.384 . S
C298 H289 0.929 . S
C298 C290 1.378 . S
C298 C293 1.350 . S
C299 H286 0.929 . S
C299 C291 1.433 . S
C299 N301 1.384 . S
N300 C296 1.427 . S
N300 C297 1.384 . S
N301 C293 1.427 . S
N301 C299 1.384 . S
H302 C308 0.930 . S
H303 C312 0.930 . S
H304 C317 0.929 . S
H305 C315 0.929 . S
H306 C310 0.929 . S
H307 C316 0.929 . S
C308 H302 0.930 . S
C308 C309 1.367 . S
C308 C316 1.378 . S
C309 C308 1.367 . S
C309 C317 1.433 . S
C310 H306 0.929 . S
C310 C312 1.378 . S
C310 C314 1.350 . S
C311 C314 1.463 . S
C311 C316 1.350 . S
C311 N319 1.427 . S
C312 H303 0.930 . S
C312 C310 1.378 . S
C312 C313 1.367 . S
C313 C312 1.367 . S
C313 C315 1.433 . S
C314 C310 1.350 . S
C314 C311 1.463 . S
C314 N318 1.427 . S
C315 H305 0.929 . S
C315 C313 1.433 . S
C315 N318 1.384 . S
C316 H307 0.929 . S
C316 C308 1.378 . S
C316 C311 1.350 . S
C317 H304 0.929 . S
C317 C309 1.433 . S
C317 N319 1.384 . S
N318 C314 1.427 . S
N318 C315 1.384 . S
N319 C311 1.427 . S
N319 C317 1.384 . S
H320 C326 0.930 . S
H321 C330 0.930 . S
H322 C335 0.929 . S
H323 C333 0.929 . S
H324 C328 0.929 . S
H325 C334 0.929 . S
C326 H320 0.930 . S
C326 C327 1.367 . S
C326 C334 1.378 . S
C327 C326 1.367 . S
C327 C335 1.433 . S
C328 H324 0.929 . S
C328 C330 1.378 . S
C328 C332 1.350 . S
C329 C332 1.463 . S
C329 C334 1.350 . S
C329 N337 1.427 . S
C330 H321 0.930 . S
C330 C328 1.378 . S
C330 C331 1.367 . S
C331 C330 1.367 . S
C331 C333 1.433 . S
C332 C328 1.350 . S
C332 C329 1.463 . S
C332 N336 1.427 . S
C333 H323 0.929 . S
C333 C331 1.433 . S
C333 N336 1.384 . S
C334 H325 0.929 . S
C334 C326 1.378 . S
C334 C329 1.350 . S
C335 H322 0.929 . S
C335 C327 1.433 . S
C335 N337 1.384 . S
N336 C332 1.427 . S
N336 C333 1.384 . S
N337 C329 1.427 . S
N337 C335 1.384 . S
C133 C93 1.530 . S
C129 C68 1.412 . S
C147 C11 1.393 . S
C151 C116 1.532 . S
C165 C30 1.453 . S
C169 C92 1.561 . S
C183 C49 1.421 . S
C187 C115 1.561 . S
C205 C96 1.528 . S
C201 C2 1.533 . S
C223 C118 1.546 . S
C219 C25 1.595 . S
C237 C40 1.545 . S
C241 C97 1.520 . S
C255 C59 1.553 . S
C259 C117 1.532 . S
C277 C120 1.424 . S
C273 C21 1.446 . S
C295 C95 1.434 . S
C291 C44 1.496 . S
C313 C119 1.420 . S
C309 C63 1.466 . S
C327 C6 1.482 . S
C331 C94 1.434 . S
