# Generated by pormake.
# Topology zzz, (3,6)-cn, num edge types: 1
# Building blocks:
#     Node 0, Type 0, BuildingBlock: QEWDON_clean_linker_0, # of connection points: 3
#     Node 1, Type 0, BuildingBlock: QEWDON_clean_linker_0, # of connection points: 3
#     Node 2, Type 0, BuildingBlock: QEWDON_clean_linker_0, # of connection points: 3
#     Node 3, Type 0, BuildingBlock: QEWDON_clean_linker_0, # of connection points: 3
#     Node 4, Type 0, BuildingBlock: QEWDON_clean_linker_0, # of connection points: 3
#     Node 5, Type 0, BuildingBlock: QEWDON_clean_linker_0, # of connection points: 3
#     Node 6, Type 0, BuildingBlock: QEWDON_clean_linker_0, # of connection points: 3
#     Node 7, Type 0, BuildingBlock: QEWDON_clean_linker_0, # of connection points: 3
#     Node 8, Type 1, BuildingBlock: FUNLAD_clean_sbu_0, # of connection points: 6
#     Node 9, Type 1, BuildingBlock: FUNLAD_clean_sbu_0, # of connection points: 6
#     Node 10, Type 1, BuildingBlock: FUNLAD_clean_sbu_0, # of connection points: 6
#     Node 11, Type 1, BuildingBlock: FUNLAD_clean_sbu_0, # of connection points: 6
#     Edge 12, Type (0, 1), BuildingBlock: XUDNAN_clean_linker_2, # of connection points: 2
#     Edge 13, Type (0, 1), BuildingBlock: XUDNAN_clean_linker_2, # of connection points: 2
#     Edge 14, Type (0, 1), BuildingBlock: XUDNAN_clean_linker_2, # of connection points: 2
#     Edge 15, Type (0, 1), BuildingBlock: XUDNAN_clean_linker_2, # of connection points: 2
#     Edge 16, Type (0, 1), BuildingBlock: XUDNAN_clean_linker_2, # of connection points: 2
#     Edge 17, Type (0, 1), BuildingBlock: XUDNAN_clean_linker_2, # of connection points: 2
#     Edge 18, Type (0, 1), BuildingBlock: XUDNAN_clean_linker_2, # of connection points: 2
#     Edge 19, Type (0, 1), BuildingBlock: XUDNAN_clean_linker_2, # of connection points: 2
#     Edge 20, Type (0, 1), BuildingBlock: XUDNAN_clean_linker_2, # of connection points: 2
#     Edge 21, Type (0, 1), BuildingBlock: XUDNAN_clean_linker_2, # of connection points: 2
#     Edge 22, Type (0, 1), BuildingBlock: XUDNAN_clean_linker_2, # of connection points: 2
#     Edge 23, Type (0, 1), BuildingBlock: XUDNAN_clean_linker_2, # of connection points: 2
#     Edge 24, Type (0, 1), BuildingBlock: XUDNAN_clean_linker_2, # of connection points: 2
#     Edge 25, Type (0, 1), BuildingBlock: XUDNAN_clean_linker_2, # of connection points: 2
#     Edge 26, Type (0, 1), BuildingBlock: XUDNAN_clean_linker_2, # of connection points: 2
#     Edge 27, Type (0, 1), BuildingBlock: XUDNAN_clean_linker_2, # of connection points: 2
#     Edge 28, Type (0, 1), BuildingBlock: XUDNAN_clean_linker_2, # of connection points: 2
#     Edge 29, Type (0, 1), BuildingBlock: XUDNAN_clean_linker_2, # of connection points: 2
#     Edge 30, Type (0, 1), BuildingBlock: XUDNAN_clean_linker_2, # of connection points: 2
#     Edge 31, Type (0, 1), BuildingBlock: XUDNAN_clean_linker_2, # of connection points: 2
#     Edge 32, Type (0, 1), BuildingBlock: XUDNAN_clean_linker_2, # of connection points: 2
#     Edge 33, Type (0, 1), BuildingBlock: XUDNAN_clean_linker_2, # of connection points: 2
#     Edge 34, Type (0, 1), BuildingBlock: XUDNAN_clean_linker_2, # of connection points: 2
#     Edge 35, Type (0, 1), BuildingBlock: XUDNAN_clean_linker_2, # of connection points: 2
# Relax obj value: 0.080
# Max RMSD: 0.171
# Mean RMSD: 0.065
data_MOF--net-zzz--node1-FUNLAD_clean_sbu_0--node2-QEWDON_clean_linker_0--edge1-XUDNAN_clean_linker_2
_symmetry_space_group_name_H-M    P1
_symmetry_Int_Tables_number       1
_symmetry_cell_setting            triclinic
loop_
_symmetry_equiv_pos_as_xyz
'x, y, z'
_cell_length_a     54.830486
_cell_length_b     60.818748
_cell_length_c     17.243974
_cell_angle_alpha  85.133579
_cell_angle_beta   84.636048
_cell_angle_gamma 88.729917
loop_
_atom_site_label
_atom_site_type_symbol
_atom_site_fract_x
_atom_site_fract_y
_atom_site_fract_z
_atom_type_partial_charge
H0 H 0.80583 0.505 0.14218 0.0
C1 C 0.81556 0.50508 0.19382 0.0
C2 C 0.84072 0.50005 0.18706 0.0
C3 C 0.80339 0.51094 0.26526 0.0
H4 H 0.87377 0.49937 0.24515 0.0
C5 C 0.85402 0.50157 0.25163 0.0
C6 C 0.84268 0.50769 0.32269 0.0
C7 C 0.81734 0.51195 0.32989 0.0
C8 C 0.77662 0.51701 0.27083 0.0
H9 H 0.8088 0.51611 0.38595 0.0
C10 C 0.76085 0.50897 0.21963 0.0
C11 C 0.73618 0.51596 0.22025 0.0
C12 C 0.76671 0.53169 0.32496 0.0
H13 H 0.778 0.53901 0.36375 0.0
C14 C 0.74198 0.53777 0.32865 0.0
H15 H 0.76781 0.49765 0.17766 0.0
C16 C 0.72681 0.53004 0.27678 0.0
H17 H 0.70776 0.53526 0.28068 0.0
H18 H 0.73464 0.54892 0.37099 0.0
H19 H 1.00463 0.79825 0.02652 0.0
C20 C 1.00035 0.8048 0.08273 0.0
C21 C 0.01046 0.82502 0.09609 0.0
C22 C 0.98433 0.79352 0.14141 0.0
H23 H 0.01075 0.8505 0.17494 0.0
C24 C 1.00369 0.83446 0.16604 0.0
C25 C 0.98715 0.82418 0.22329 0.0
C26 C 0.9783 0.80334 0.21252 0.0
C27 C 0.97307 0.77209 0.1281 0.0
H28 H 0.96628 0.79519 0.25905 0.0
C29 C 0.98551 0.75681 0.08038 0.0
C30 C 0.97478 0.73653 0.07052 0.0
C31 C 0.94946 0.76672 0.16352 0.0
H32 H 0.9387 0.77821 0.1977 0.0
C33 C 0.93906 0.74649 0.15452 0.0
H34 H 1.00361 0.76036 0.05192 0.0
C35 C 0.95168 0.7314 0.10877 0.0
H36 H 0.94312 0.71591 0.10149 0.0
H37 H 0.92099 0.7426 0.18249 0.0
H38 H 0.74239 0.01661 0.04701 0.0
C39 C 0.73143 0.01202 0.10129 0.0
C40 C 0.70617 0.00824 0.09999 0.0
C41 C 0.74216 0.01051 0.17326 0.0
H42 H 0.67196 1.00192 0.16956 0.0
C43 C 0.69158 0.00385 0.17032 0.0
C44 C 0.70153 1.00257 0.24186 0.0
C45 C 0.72686 0.00507 0.24325 0.0
C46 C 0.76855 0.01632 0.17767 0.0
H47 H 0.7344 1.00346 0.29935 0.0
C48 C 0.78774 0.01136 0.11995 0.0
C49 C 0.81251 0.01664 0.12842 0.0
C50 C 0.77459 0.02726 0.2419 0.0
H51 H 0.76059 0.03234 0.28552 0.0
C52 C 0.79874 0.03197 0.25143 0.0
H53 H 0.78342 1.00341 0.06921 0.0
C54 C 0.81749 0.02644 0.19633 0.0
H55 H 0.83604 0.0298 0.20795 0.0
H56 H 0.80299 0.03992 0.30228 0.0
H57 H 0.53517 0.699 0.03062 0.0
C58 C 0.53476 0.68951 0.08678 0.0
C59 C 0.52852 0.6671 0.09232 0.0
C60 C 0.54159 0.69917 0.15322 0.0
H61 H 0.52433 0.63706 0.16698 0.0
C62 C 0.52913 0.65437 0.16344 0.0
C63 C 0.53583 0.66347 0.22974 0.0
C64 C 0.54137 0.68597 0.22505 0.0
C65 C 0.55045 0.72242 0.14785 0.0
H66 H 0.54607 0.693 0.27725 0.0
C67 C 0.54053 0.73946 0.0985 0.0
C68 C 0.54882 0.76134 0.09708 0.0
C69 C 0.56933 0.72767 0.19306 0.0
H70 H 0.57818 0.71505 0.22916 0.0
C71 C 0.57741 0.74925 0.19177 0.0
H72 H 0.5261 0.73593 0.06274 0.0
C73 C 0.56716 0.76599 0.14465 0.0
H74 H 0.57401 0.7826 0.14392 0.0
H75 H 0.59187 0.75298 0.22709 0.0
H76 H 0.23474 0.52451 0.26857 0.0
C77 C 0.22545 0.5198 0.21995 0.0
C78 C 0.19992 0.52104 0.2257 0.0
C79 C 0.23866 0.5122 0.15276 0.0
H80 H 0.16747 0.51707 0.16843 0.0
C81 C 0.18736 0.51607 0.16315 0.0
C82 C 0.19988 0.5092 0.09499 0.0
C83 C 0.2255 0.5067 0.0903 0.0
C84 C 0.26596 0.51013 0.14887 0.0
H85 H 0.23494 0.5005 0.03842 0.0
C86 C 0.27781 0.50565 0.21782 0.0
C87 C 0.30345 0.50593 0.21641 0.0
C88 C 0.28049 0.51358 0.07729 0.0
H89 H 0.27226 0.51746 0.02304 0.0
C90 C 0.30603 0.51279 0.07505 0.0
H91 H 0.26715 0.50204 0.27333 0.0
C92 C 0.31749 0.50919 0.14408 0.0
H93 H 0.3373 0.50965 0.14098 0.0
H94 H 0.31699 0.51561 0.01969 0.0
H95 H 1.00688 0.21791 0.43568 0.0
C96 C 0.02005 0.20923 0.39806 0.0
C97 C 0.02436 0.18658 0.41499 0.0
C98 C 0.03197 0.22034 0.33025 0.0
H99 H 0.04321 0.15751 0.37735 0.0
C100 C 0.04078 0.1752 0.36537 0.0
C101 C 0.05207 0.18568 0.2966 0.0
C102 C 0.04769 0.20828 0.27909 0.0
C103 C 0.02705 0.24417 0.30991 0.0
H104 H 0.05632 0.21635 0.22536 0.0
C105 C 0.0275 0.25971 0.36597 0.0
C106 C 0.02403 0.28247 0.34506 0.0
C107 C 0.02243 0.25152 0.23313 0.0
H108 H 0.0216 0.23993 0.18911 0.0
C109 C 0.01876 0.27389 0.21224 0.0
H110 H 0.03087 0.25409 0.42536 0.0
C111 C 0.01973 0.28927 0.26733 0.0
H112 H 0.01759 0.30658 0.24831 0.0
H113 H 0.01541 0.27938 0.15275 0.0
H114 H 0.30002 0.99297 0.44079 0.0
C115 C 0.31087 0.99755 0.38631 0.0
C116 C 0.33653 0.99892 0.38585 0.0
C117 C 0.29961 1.00093 0.31561 0.0
H118 H 0.37059 0.00455 0.31557 0.0
C119 C 0.35084 0.00404 0.31534 0.0
C120 C 0.34031 0.00795 0.24475 0.0
C121 C 0.31467 0.00677 0.24557 0.0
C122 C 0.27275 0.99667 0.31204 0.0
H123 H 0.30654 0.0102 0.19091 0.0
C124 C 0.25435 1.00097 0.37312 0.0
C125 C 0.22919 0.99694 0.36571 0.0
C126 C 0.26545 0.98767 0.24533 0.0
H127 H 0.27874 0.98303 0.19892 0.0
C128 C 0.24091 0.98432 0.23687 0.0
H129 H 0.25956 0.0074 0.42572 0.0
C130 C 0.22298 0.98918 0.2955 0.0
H131 H 0.20409 0.98689 0.28498 0.0
H132 H 0.23571 0.97788 0.18421 0.0
H133 H 0.53852 0.30821 0.40177 0.0
C134 C 0.53221 0.31763 0.3511 0.0
C135 C 0.52959 0.34068 0.35109 0.0
C136 C 0.52789 0.30704 0.2841 0.0
H137 H 0.52063 0.37086 0.28518 0.0
C138 C 0.52214 0.35305 0.28503 0.0
C139 C 0.51709 0.34289 0.21869 0.0
C140 C 0.51976 0.31986 0.21897 0.0
C141 C 0.53341 0.28302 0.27879 0.0
H142 H 0.51572 0.31192 0.16782 0.0
C143 C 0.52807 0.26718 0.34275 0.0
C144 C 0.53295 0.24453 0.33469 0.0
C145 C 0.54439 0.27583 0.208 0.0
H146 H 0.5495 0.2875 0.15846 0.0
C147 C 0.54931 0.25354 0.20017 0.0
H148 H 0.51962 0.27231 0.39777 0.0
C149 C 0.54356 0.23798 0.26274 0.0
H150 H 0.54786 0.22077 0.25526 0.0
H151 H 0.55777 0.2483 0.14538 0.0
C152 C 0.03453 0.96631 0.83395 0.0
N153 N 1.00688 0.97852 0.62044 0.0
C154 C 0.02355 0.96239 0.60223 0.0
C155 C 0.01668 0.9442 0.56618 0.0
C156 C 0.9925 0.94259 0.54786 0.0
C157 C 0.9761 0.96023 0.56086 0.0
C158 C 0.9837 0.97816 0.5982 0.0
Zn159 Zn 0.01621 0.99786 0.70458 0.0
C160 C 0.97429 1.00237 0.82789 0.0
N161 N 0.03809 0.03217 0.89202 0.0
C162 C 0.06135 0.0311 0.91381 0.0
C163 C 0.0219 0.04787 0.91722 0.0
C164 C 0.02913 0.06384 0.96342 0.0
C165 C 0.05346 0.06404 0.98287 0.0
C166 C 0.06948 0.047 0.95912 0.0
Zn167 Zn 0.02821 0.01359 0.80658 0.0
O168 O 0.02583 0.96854 0.76819 0.0
C169 C 0.07012 0.00909 0.68279 0.0
O170 O 0.03829 0.98336 0.86889 0.0
H171 H 1.0036 0.04869 0.89861 0.0
H172 H 0.04173 0.96263 0.62145 0.0
H173 H 0.07399 0.01854 0.89298 0.0
O174 O 0.05334 1.00063 0.64907 0.0
O175 O 0.06469 0.01618 0.7496 0.0
H176 H 0.97062 0.99095 0.61413 0.0
O177 O 0.0184 0.04312 0.74313 0.0
O178 O 1.00593 0.0279 0.64277 0.0
O179 O 0.99096 0.01097 0.86181 0.0
O180 O 0.97983 0.99519 0.76127 0.0
C181 C 0.00943 0.04507 0.67755 0.0
H182 H 0.02987 0.93097 0.55609 0.0
H183 H 0.95728 0.95947 0.54705 0.0
H184 H 0.01586 0.0762 0.98211 0.0
H185 H 0.08841 0.04645 0.97232 0.0
C186 C 0.48105 1.00044 0.65865 0.0
N187 N 0.51962 0.05696 0.69268 0.0
C188 C 0.52155 0.06339 0.61486 0.0
C189 C 0.5218 0.08577 0.58863 0.0
C190 C 0.51963 0.10193 0.64276 0.0
C191 C 0.51736 0.09476 0.7229 0.0
C192 C 0.51755 0.07215 0.74661 0.0
Zn193 Zn 0.52025 0.02365 0.72728 0.0
C194 C 0.4849 0.01098 0.8654 0.0
N195 N 0.5217 0.9537 0.79314 0.0
C196 C 0.51585 0.93909 0.74246 0.0
C197 C 0.52808 0.94651 0.86548 0.0
C198 C 0.52911 0.92392 0.88872 0.0
C199 C 0.52298 0.90836 0.83794 0.0
C200 C 0.51608 0.91639 0.76398 0.0
Zn201 Zn 0.521 0.98718 0.75962 0.0
O202 O 0.49097 0.01904 0.6604 0.0
C203 C 0.55612 0.99854 0.62155 0.0
O204 O 0.4906 0.98327 0.69167 0.0
H205 H 0.53256 0.95828 0.90534 0.0
H206 H 0.52308 0.05112 0.57275 0.0
H207 H 0.51095 0.94501 0.68499 0.0
O208 O 0.54769 0.01789 0.63175 0.0
O209 O 0.54701 0.98226 0.66484 0.0
H210 H 0.51607 0.06675 0.80824 0.0
O211 O 0.5514 0.99254 0.82657 0.0
O212 O 0.54921 0.02822 0.79532 0.0
O213 O 0.49467 0.99225 0.85393 0.0
O214 O 0.49284 0.02804 0.82337 0.0
C215 C 0.55989 0.0118 0.82876 0.0
H216 H 0.52412 0.09026 0.52632 0.0
H217 H 0.51527 0.10644 0.76712 0.0
H218 H 0.53507 0.91883 0.94566 0.0
H219 H 0.5107 0.90533 0.72288 0.0
C220 C 0.52858 0.46879 0.63985 0.0
N221 N 0.46322 0.50362 0.68252 0.0
C222 C 0.46374 0.50398 0.60341 0.0
C223 C 0.4422 0.50314 0.56739 0.0
C224 C 0.41962 0.5016 0.61281 0.0
C225 C 0.41943 0.50143 0.69457 0.0
C226 C 0.44163 0.50243 0.7285 0.0
Zn227 Zn 0.49699 0.50382 0.72397 0.0
C228 C 0.50534 0.47055 0.84725 0.0
N229 N 0.57095 0.50276 0.77792 0.0
C230 C 0.59229 0.4993 0.73318 0.0
C231 C 0.57088 0.50564 0.85538 0.0
C232 C 0.59267 0.5056 0.89043 0.0
C233 C 0.61489 0.50204 0.84614 0.0
C234 C 0.61468 0.49865 0.76666 0.0
Zn235 Zn 0.53706 0.503 0.73683 0.0
O236 O 0.5076 0.47766 0.65346 0.0
C237 C 0.52926 0.53632 0.61424 0.0
O238 O 0.54713 0.47696 0.6652 0.0
H239 H 0.55379 0.50771 0.89077 0.0
H240 H 0.48102 0.50478 0.56767 0.0
H241 H 0.59193 0.49687 0.67188 0.0
O242 O 0.50784 0.5291 0.6346 0.0
O243 O 0.54744 0.52736 0.64577 0.0
H244 H 0.44164 0.50205 0.79132 0.0
O245 O 0.52612 0.52929 0.80722 0.0
O246 O 0.48662 0.52955 0.79566 0.0
O247 O 0.5265 0.47834 0.82704 0.0
O248 O 0.48697 0.47894 0.81508 0.0
C249 C 0.505 0.53787 0.82152 0.0
H250 H 0.44332 0.5039 0.50419 0.0
H251 H 0.40242 0.5002 0.73187 0.0
H252 H 0.59213 0.50787 0.95224 0.0
H253 H 0.63159 0.49574 0.731 0.0
C254 C 0.05906 0.52085 0.60522 0.0
N255 N 0.02336 0.46047 0.66602 0.0
C256 C 0.02366 0.4573 0.58873 0.0
C257 C 0.02485 0.43599 0.56392 0.0
C258 C 0.02597 0.4177 0.61902 0.0
C259 C 0.02576 0.42143 0.69838 0.0
C260 C 0.02431 0.44304 0.72074 0.0
Zn261 Zn 0.02143 0.49214 0.6996 0.0
C262 C 0.05515 0.4996 0.81717 0.0
N263 N 0.01756 0.55936 0.76109 0.0
C264 C 0.02387 0.57659 0.7079 0.0
C265 C 0.00991 0.56289 0.83645 0.0
C266 C 1.00777 0.58431 0.86021 0.0
C267 C 0.01436 0.60251 0.80685 0.0
C268 C 0.02283 0.59822 0.72983 0.0
Zn269 Zn 0.01953 0.52748 0.72762 0.0
O270 O 0.0507 0.50137 0.61481 0.0
C271 C 0.9859 0.51996 0.60996 0.0
O272 O 0.04891 0.53578 0.64465 0.0
H273 H 1.00521 0.54909 0.87848 0.0
H274 H 0.02306 0.47136 0.54607 0.0
H275 H 0.0298 0.57364 0.64808 0.0
O276 O 0.99516 0.50069 0.61991 0.0
O277 O 0.99371 0.53548 0.6456 0.0
H278 H 0.02394 0.44588 0.7819 0.0
O279 O 0.98975 0.51844 0.80819 0.0
O280 O 0.99193 0.48347 0.78442 0.0
O281 O 0.04551 0.51881 0.80938 0.0
O282 O 0.04762 0.48435 0.77979 0.0
C283 C 0.98125 0.49908 0.81932 0.0
H284 H 0.02529 0.43388 0.50207 0.0
H285 H 0.02639 0.40778 0.7428 0.0
H286 H 1.0006 0.58638 0.91975 0.0
H287 H 0.02876 0.61135 0.68636 0.0
H288 H 0.18615 0.97385 0.40222 0.0
H289 H 0.22546 0.02905 0.4723 0.0
H290 H 0.1899 0.03724 0.56534 0.0
H291 H 0.12904 1.0022 0.39697 0.0
H292 H 0.11115 0.97815 0.43033 0.0
H293 H 0.14067 0.97512 0.37683 0.0
H294 H 0.15485 0.94856 0.48996 0.0
H295 H 0.12533 0.95143 0.54373 0.0
H296 H 0.15276 0.95741 0.58755 0.0
H297 H 0.1485 0.03994 0.64881 0.0
H298 H 0.10581 0.03767 0.70985 0.0
H299 H 0.09274 0.98329 0.57265 0.0
C300 C 0.18748 0.98783 0.43634 0.0
C301 C 0.2089 1.00089 0.42854 0.0
C302 C 0.20963 0.01854 0.47707 0.0
C303 C 0.18935 0.02344 0.52985 0.0
C304 C 0.1683 0.01068 0.5334 0.0
C305 C 0.1673 0.99326 0.48753 0.0
C306 C 0.14221 0.98278 0.49824 0.0
C307 C 0.13006 0.98468 0.421 0.0
C308 C 0.1439 0.95862 0.53189 0.0
C309 C 0.12901 0.99708 0.55712 0.0
C310 C 0.14443 0.01289 0.57772 0.0
C311 C 0.13635 0.02767 0.63261 0.0
C312 C 0.11203 0.02625 0.66703 0.0
C313 C 0.09579 0.01045 0.64559 0.0
C314 C 0.10454 0.99574 0.58964 0.0
H315 H 0.50934 0.20559 0.33165 0.0
H316 H 0.54582 0.24435 0.48476 0.0
H317 H 0.54331 0.21291 0.58648 0.0
H318 H 0.46841 0.17515 0.48726 0.0
H319 H 0.47109 0.15019 0.43748 0.0
H320 H 0.473 0.17669 0.38206 0.0
H321 H 0.51503 0.16518 0.31471 0.0
H322 H 0.51344 0.13882 0.37052 0.0
H323 H 0.53939 0.15627 0.37396 0.0
H324 H 0.5419 0.17526 0.66324 0.0
H325 H 0.53928 0.13601 0.71196 0.0
H326 H 0.50177 0.12262 0.51029 0.0
C327 C 0.51631 0.20762 0.38731 0.0
C328 C 0.52775 0.22739 0.40054 0.0
C329 C 0.53672 0.22943 0.47389 0.0
C330 C 0.53548 0.21162 0.53175 0.0
C331 C 0.52485 0.19204 0.51564 0.0
C332 C 0.51504 0.19012 0.4456 0.0
C333 C 0.50582 0.16704 0.44062 0.0
C334 C 0.47792 0.16729 0.43665 0.0
C335 C 0.51923 0.1562 0.37083 0.0
C336 C 0.51273 0.15598 0.51763 0.0
C337 C 0.52357 0.17065 0.56036 0.0
C338 C 0.53294 0.16377 0.63099 0.0
C339 C 0.53124 0.14137 0.65843 0.0
C340 C 0.52019 0.12598 0.61552 0.0
C341 C 0.51056 0.13369 0.54462 0.0
H342 H 0.3455 0.48301 0.25083 0.0
H343 H 0.28867 0.52601 0.34929 0.0
H344 H 0.30976 0.52592 0.46949 0.0
H345 H 0.3572 0.45101 0.43669 0.0
H346 H 0.38971 0.44944 0.40962 0.0
H347 H 0.36858 0.45069 0.33526 0.0
H348 H 0.39086 0.48494 0.26459 0.0
H349 H 0.412 0.48379 0.33857 0.0
H350 H 0.3946 0.50874 0.31778 0.0
H351 H 0.33942 0.52464 0.57269 0.0
H352 H 0.37543 0.52234 0.64937 0.0
H353 H 0.41216 0.47929 0.48559 0.0
C354 C 0.33734 0.49219 0.29805 0.0
C355 C 0.31533 0.50437 0.29079 0.0
C356 C 0.30527 0.5162 0.35399 0.0
C357 C 0.31715 0.51631 0.42249 0.0
C358 C 0.33899 0.50437 0.42732 0.0
C359 C 0.34891 0.4924 0.36698 0.0
C360 C 0.37337 0.48214 0.3847 0.0
C361 C 0.37213 0.45682 0.39202 0.0
C362 C 0.39391 0.49041 0.32275 0.0
C363 C 0.37608 0.4909 0.46299 0.0
C364 C 0.35596 0.50347 0.48715 0.0
C365 C 0.35511 0.51451 0.55509 0.0
C366 C 0.3756 0.51302 0.59853 0.0
C367 C 0.39668 0.50069 0.57355 0.0
C368 C 0.39646 0.48903 0.50603 0.0
H369 H 0.99723 0.32109 0.35751 0.0
H370 H 0.05511 0.28242 0.46196 0.0
H371 H 0.05992 0.31167 0.54994 0.0
H372 H 0.02653 0.3723 0.35173 0.0
H373 H 0.99871 0.38793 0.37239 0.0
H374 H 0.99787 0.36291 0.32402 0.0
H375 H 0.96518 0.34714 0.43143 0.0
H376 H 0.96585 0.37217 0.48006 0.0
H377 H 0.9714 0.3459 0.53255 0.0
H378 H 0.0601 0.34639 0.6214 0.0
H379 H 0.05615 0.38378 0.66802 0.0
H380 H 0.99966 0.40022 0.51177 0.0
C381 C 0.01093 0.31866 0.39883 0.0
C382 C 0.02573 0.29928 0.40257 0.0
C383 C 0.04318 0.29682 0.45859 0.0
C384 C 0.04618 0.31345 0.50859 0.0
C385 C 0.03164 0.3325 0.50191 0.0
C386 C 0.01436 0.33515 0.44839 0.0
C387 C 1.00203 0.35767 0.44953 0.0
C388 C 1.00657 0.37098 0.36968 0.0
C389 C 0.97448 0.35559 0.47493 0.0
C390 C 0.01536 0.36746 0.51118 0.0
C391 C 0.03216 0.3526 0.54145 0.0
C392 C 0.04689 0.35809 0.59842 0.0
C393 C 0.04446 0.37933 0.62473 0.0
C394 C 0.02762 0.39492 0.59351 0.0
C395 C 0.01283 0.38874 0.53631 0.0
H396 H 0.85536 0.0401 0.0907 0.0
H397 H 0.81833 0.98222 0.03124 0.0
H398 H 0.8549 0.97304 0.94408 0.0
H399 H 0.89009 0.05367 0.90585 0.0
H400 H 0.91685 0.06124 0.95019 0.0
H401 H 0.88686 0.06444 0.00057 0.0
H402 H 0.90056 0.04039 0.12054 0.0
H403 H 0.93056 0.03704 0.07045 0.0
H404 H 0.91301 0.0131 0.10795 0.0
H405 H 0.89686 0.96986 0.86467 0.0
H406 H 0.93979 0.97218 0.80591 0.0
H407 H 0.95038 0.0296 0.93106 0.0
C408 C 0.85474 0.02531 0.06033 0.0
C409 C 0.83362 0.01183 0.06927 0.0
C410 C 0.83388 0.99309 0.02543 0.0
C411 C 0.85475 0.98761 0.97604 0.0
C412 C 0.87543 1.00088 0.9713 0.0
C413 C 0.87553 0.01931 0.01272 0.0
C414 C 0.90038 0.03025 0.00158 0.0
C415 C 0.89842 0.05379 0.96219 0.0
C416 C 0.9118 0.03018 0.07978 0.0
C417 C 0.91445 0.01507 0.94753 0.0
C418 C 0.89967 0.99841 0.92965 0.0
C419 C 0.90853 0.98278 0.87886 0.0
C420 C 0.93297 0.98423 0.84572 0.0
C421 C 0.94857 1.00092 0.86447 0.0
C422 C 0.93907 0.01645 0.91642 0.0
H423 H 0.53028 0.80126 0.13731 0.0
H424 H 0.54772 0.76287 0.93849 0.0
H425 H 0.53994 0.79587 0.84901 0.0
H426 H 0.48145 0.83659 0.04919 0.0
H427 H 0.49028 0.86037 0.09506 0.0
H428 H 0.49417 0.83309 0.14224 0.0
H429 H 0.54014 0.84081 0.1495 0.0
H430 H 0.53654 0.86793 0.10125 0.0
H431 H 0.55905 0.84897 0.06095 0.0
H432 H 0.53665 0.83447 0.78245 0.0
H433 H 0.53394 0.87421 0.74346 0.0
H434 H 0.51533 0.88687 0.98648 0.0
C435 C 0.53176 0.79969 0.07493 0.0
C436 C 0.53945 0.77955 0.04454 0.0
C437 C 0.5415 0.77809 0.96275 0.0
C438 C 0.53726 0.79677 0.91164 0.0
C439 C 0.53056 0.81663 0.94348 0.0
C440 C 0.52728 0.81806 0.02336 0.0
C441 C 0.52112 0.8415 0.04285 0.0
C442 C 0.49521 0.84297 0.0848 0.0
C443 C 0.54036 0.85031 0.09149 0.0
C444 C 0.52236 0.85324 0.96157 0.0
C445 C 0.52778 0.83864 0.90503 0.0
C446 C 0.53173 0.84595 0.82616 0.0
C447 C 0.52999 0.86869 0.80455 0.0
C448 C 0.52411 0.88405 0.8614 0.0
C449 C 0.52004 0.87592 0.94097 0.0
H450 H 0.7014 0.54142 0.1485 0.0
H451 H 0.7357 0.47628 0.15281 0.0
H452 H 0.71152 0.46709 0.04657 0.0
H453 H 0.64153 0.52284 0.12409 0.0
H454 H 0.63392 0.54707 0.06295 0.0
H455 H 0.65543 0.54887 0.13476 0.0
H456 H 0.68758 0.56501 0.02614 0.0
H457 H 0.66626 0.56291 0.9538 0.0
H458 H 0.69603 0.54979 0.94216 0.0
H459 H 0.68277 0.46485 0.94032 0.0
H460 H 0.64859 0.46833 0.85514 0.0
H461 H 0.63178 0.53383 0.92798 0.0
C462 C 0.70374 0.52509 0.12807 0.0
C463 C 0.72071 0.50968 0.15911 0.0
C464 C 0.72328 0.48863 0.12918 0.0
C465 C 0.70955 0.4832 0.06887 0.0
C466 C 0.69318 0.4989 0.03941 0.0
C467 C 0.68999 0.5193 0.06889 0.0
C468 C 0.67016 0.53278 0.03089 0.0
C469 C 0.64901 0.53819 0.09179 0.0
C470 C 0.68065 0.55387 0.98556 0.0
C471 C 0.66242 0.51668 0.97602 0.0
C472 C 0.67618 0.49737 0.98059 0.0
C473 C 0.67195 0.47993 0.93613 0.0
C474 C 0.65268 0.48207 0.88759 0.0
C475 C 0.63778 0.50136 0.88511 0.0
C476 C 0.64307 0.51898 0.92871 0.0
H477 H 0.99193 0.69499 0.10941 0.0
H478 H 0.98271 0.74253 0.91239 0.0
H479 H 0.99499 0.71397 0.82141 0.0
H480 H 0.04599 0.6652 0.0133 0.0
H481 H 0.03593 0.63894 0.06033 0.0
H482 H 0.02921 0.66382 0.10858 0.0
H483 H 0.98306 0.65445 0.1227 0.0
H484 H 0.98954 0.62979 0.07342 0.0
H485 H 0.96809 0.65007 0.03664 0.0
H486 H 1.00123 0.67879 0.75458 0.0
H487 H 1.00604 0.64108 0.71468 0.0
H488 H 0.01625 0.61713 0.95476 0.0
C489 C 0.99331 0.69947 0.04702 0.0
C490 C 0.98669 0.72089 0.01736 0.0
C491 C 0.98814 0.72624 0.9357 0.0
C492 C 0.99496 0.71012 0.88385 0.0
C493 C 1.00073 0.68891 0.91487 0.0
C494 C 1.00059 0.6837 0.99455 0.0
C495 C 1.00665 0.65949 0.01287 0.0
C496 C 0.03089 0.65671 0.05101 0.0
C497 C 0.98558 0.64777 0.06443 0.0
C498 C 0.00919 0.65169 0.93133 0.0
C499 C 1.00567 0.66888 0.8757 0.0
C500 C 1.00483 0.66531 0.79733 0.0
C501 C 1.00779 0.64367 0.77515 0.0
C502 C 0.01197 0.62569 0.83084 0.0
C503 C 0.01294 0.6301 0.90996 0.0
H504 H 0.03887 0.16965 0.55363 0.0
H505 H 0.97927 0.17075 0.40615 0.0
H506 H 0.96468 0.13526 0.47239 0.0
H507 H 0.05505 0.11866 0.54249 0.0
H508 H 0.06223 0.11123 0.6413 0.0
H509 H 0.06369 0.13954 0.60259 0.0
H510 H 0.03304 0.15142 0.7152 0.0
H511 H 0.03215 0.1232 0.75678 0.0
H512 H 1.00412 0.13764 0.73623 0.0
H513 H 0.96475 0.09549 0.52404 0.0
H514 H 0.97406 0.05752 0.57881 0.0
H515 H 0.03222 0.08293 0.69829 0.0
C516 C 0.02169 0.16318 0.53984 0.0
C517 C 0.00976 0.17306 0.47655 0.0
C518 C 0.98809 0.1637 0.45636 0.0
C519 C 0.97989 0.1434 0.49307 0.0
C520 C 0.99328 0.13303 0.55102 0.0
C521 C 0.01317 0.14303 0.57666 0.0
C522 C 0.02627 0.12736 0.63251 0.0
C523 C 0.05339 0.12401 0.60287 0.0
C524 C 0.02373 0.13538 0.71509 0.0
C525 C 0.01179 0.10661 0.62968 0.0
C526 C 0.99274 0.11016 0.58283 0.0
C527 C 0.979 0.09269 0.56326 0.0
C528 C 0.98459 0.07117 0.59366 0.0
C529 C 1.00363 0.06742 0.64334 0.0
C530 C 0.01718 0.08542 0.66181 0.0
H531 H 0.37289 0.96901 0.41403 0.0
H532 H 0.33123 0.02284 0.51303 0.0
H533 H 0.36231 0.02584 0.60664 0.0
H534 H 0.39969 0.94563 0.60236 0.0
H535 H 0.42837 0.93945 0.54805 0.0
H536 H 0.40003 0.93791 0.5036 0.0
H537 H 0.41742 0.96485 0.38853 0.0
H538 H 0.44546 0.96711 0.43331 0.0
H539 H 0.42778 0.99159 0.40811 0.0
H540 H 0.40175 0.02891 0.66494 0.0
H541 H 0.44438 0.02843 0.69944 0.0
H542 H 0.46094 0.97174 0.56634 0.0
C543 C 0.36972 0.98059 0.45843 0.0
C544 C 0.34953 0.9955 0.45748 0.0
C545 C 0.34624 0.01098 0.51427 0.0
C546 C 0.36395 0.01289 0.56706 0.0
C547 C 0.38455 0.99896 0.5628 0.0
C548 C 0.38722 0.98267 0.51136 0.0
C549 C 0.41229 0.97154 0.51221 0.0
C550 C 0.40995 0.94719 0.54344 0.0
C551 C 0.42656 0.97393 0.43072 0.0
C552 C 0.42382 0.98486 0.56918 0.0
C553 C 0.40741 1.00051 0.59785 0.0
C554 C 0.4145 0.01636 0.64455 0.0
C555 C 0.43884 0.01613 0.66296 0.0
C556 C 0.45585 1.00006 0.63539 0.0
C557 C 0.44816 0.98401 0.58884 0.0
H558 H 0.56159 0.37397 0.35678 0.0
H559 H 0.50526 0.33547 0.49575 0.0
H560 H 0.50288 0.36272 0.59483 0.0
H561 H 0.59042 0.39585 0.52975 0.0
H562 H 0.59604 0.42213 0.47513 0.0
H563 H 0.59732 0.39719 0.42518 0.0
H564 H 0.56548 0.41424 0.33497 0.0
H565 H 0.56348 0.43893 0.38567 0.0
H566 H 0.5362 0.42358 0.3777 0.0
H567 H 0.49876 0.39778 0.65689 0.0
H568 H 0.49845 0.43585 0.6949 0.0
H569 H 0.56011 0.45148 0.52429 0.0
C570 C 0.5497 0.3708 0.41017 0.0
C571 C 0.53378 0.35259 0.41964 0.0
C572 C 0.51789 0.3491 0.48862 0.0
C573 C 0.51633 0.36457 0.54474 0.0
C574 C 0.5312 0.3831 0.53142 0.0
C575 C 0.54817 0.38597 0.4671 0.0
C576 C 0.56021 0.40836 0.46279 0.0
C577 C 0.58763 0.40572 0.47391 0.0
C578 C 0.55608 0.42207 0.38573 0.0
C579 C 0.54632 0.41816 0.53211 0.0
C580 C 0.52968 0.40323 0.57065 0.0
C581 C 0.51234 0.40929 0.62931 0.0
C582 C 0.51217 0.43101 0.64991 0.0
C583 C 0.5296 0.44636 0.61356 0.0
C584 C 0.54707 0.43983 0.55434 0.0
H585 H 0.17521 0.49113 0.3236 0.0
H586 H 0.19051 0.56088 0.28543 0.0
H587 H 0.15742 0.56857 0.38852 0.0
H588 H 0.11366 0.49635 0.33614 0.0
H589 H 0.10689 0.47409 0.41037 0.0
H590 H 0.13487 0.47346 0.34734 0.0
H591 H 0.16044 0.4698 0.46698 0.0
H592 H 0.13246 0.46975 0.53083 0.0
H593 H 0.15586 0.48951 0.53959 0.0
H594 H 0.11887 0.56868 0.48127 0.0
H595 H 0.07982 0.56121 0.56217 0.0
H596 H 0.08956 0.49123 0.53351 0.0
C597 C 0.17224 0.50788 0.3398 0.0
C598 C 0.1855 0.52542 0.29881 0.0
C599 C 0.18078 0.54728 0.31832 0.0
C600 C 0.16199 0.55174 0.37619 0.0
C601 C 0.14838 0.53408 0.41335 0.0
C602 C 0.15358 0.51253 0.39667 0.0
C603 C 0.13482 0.49673 0.43803 0.0
C604 C 0.1218 0.48445 0.37946 0.0
C605 C 0.1466 0.48049 0.4974 0.0
C606 C 0.11769 0.51278 0.47845 0.0
C607 C 0.12591 0.53421 0.46454 0.0
C608 C 0.11246 0.55193 0.49345 0.0
C609 C 0.09024 0.54754 0.53879 0.0
C610 C 0.08164 0.52565 0.5538 0.0
C611 C 0.09558 0.50815 0.52287 0.0
H612 H 0.99697 0.84348 0.95783 0.0
H613 H 0.05658 0.83907 0.10612 0.0
H614 H 0.07331 0.87385 0.04051 0.0
H615 H 0.03349 0.87393 0.77638 0.0
H616 H 1.00646 0.88995 0.75586 0.0
H617 H 1.00364 0.8618 0.79728 0.0
H618 H 0.974 0.87514 0.90993 0.0
H619 H 0.97733 0.90332 0.87093 0.0
H620 H 0.98414 0.89544 0.96982 0.0
H621 H 0.07583 0.91357 0.98915 0.0
H622 H 0.06911 0.95202 0.93372 0.0
H623 H 0.0093 0.92989 0.81363 0.0
C624 C 0.0145 0.84905 0.97223 0.0
C625 C 0.02574 0.83855 0.03591 0.0
C626 C 0.04806 0.84675 0.05622 0.0
C627 C 0.05754 0.8666 0.01977 0.0
C628 C 0.04478 0.87773 0.96186 0.0
C629 C 0.02425 0.86883 0.93591 0.0
C630 C 0.01219 0.88526 0.87998 0.0
C631 C 0.01408 0.87725 0.79746 0.0
C632 C 0.98535 0.89006 0.90951 0.0
C633 C 0.02808 0.90514 0.88285 0.0
C634 C 0.04686 0.90054 0.93003 0.0
C635 C 0.06179 0.91719 0.94965 0.0
C636 C 0.05768 0.93898 0.91888 0.0
C637 C 0.03895 0.94377 0.86876 0.0
C638 C 0.02416 0.92657 0.85037 0.0
H639 H 0.67915 0.97739 0.04414 0.0
H640 H 0.70155 0.04548 0.00245 0.0
H641 H 0.66752 0.0533 0.91893 0.0
H642 H 0.65409 0.9723 0.84731 0.0
H643 H 0.62946 0.95534 0.89374 0.0
H644 H 0.65884 0.95417 0.93301 0.0
H645 H 0.63734 0.96292 0.06724 0.0
H646 H 0.60805 0.96499 0.0281 0.0
H647 H 0.61911 0.98783 0.07438 0.0
H648 H 0.62655 0.05525 0.86405 0.0
H649 H 0.58521 0.05022 0.82398 0.0
H650 H 0.58893 0.98063 0.90344 0.0
C651 C 0.67769 0.99361 0.01354 0.0
C652 C 0.69321 0.01076 0.02815 0.0
C653 C 0.69027 0.03203 0.99006 0.0
C654 C 0.67078 0.03664 0.94343 0.0
C655 C 0.65465 0.01972 0.93509 0.0
C656 C 0.65828 0.99845 0.96742 0.0
C657 C 0.63698 0.9838 0.95703 0.0
C658 C 0.64534 0.96531 0.90463 0.0
C659 C 0.62466 0.97434 0.03641 0.0
C660 C 0.62033 1.0003 0.91643 0.0
C661 C 0.6309 0.02088 0.90398 0.0
C662 C 0.61835 0.0391 0.872 0.0
C663 C 0.59471 0.03608 0.85018 0.0
C664 C 0.58373 0.015 0.86042 0.0
C665 C 0.59677 0.99694 0.89457 0.0
H666 H 0.55743 0.63782 0.01808 0.0
H667 H 0.48531 0.66822 0.02513 0.0
H668 H 0.47113 0.63894 0.94879 0.0
H669 H 0.5579 0.61484 0.82117 0.0
H670 H 0.57375 0.59026 0.85649 0.0
H671 H 0.57899 0.61624 0.89474 0.0
H672 H 0.5676 0.59819 0.03471 0.0
H673 H 0.56138 0.57244 0.99698 0.0
H674 H 0.53803 0.58569 0.05822 0.0
H675 H 0.46357 0.60273 0.88991 0.0
H676 H 0.46455 0.56538 0.84197 0.0
H677 H 0.54145 0.55867 0.88203 0.0
C678 C 0.53908 0.63895 -0.00053 0.0
C679 C 0.52261 0.65553 0.02491 0.0
C680 C 0.49833 0.65601 0.00352 0.0
C681 C 0.4901 0.6393 0.96113 0.0
C682 C 0.50645 0.62233 0.94099 0.0
C683 C 0.5306 0.62233 0.95827 0.0
C684 C 0.54389 0.60122 0.93837 0.0
C685 C 0.56487 0.60592 0.87383 0.0
C686 C 0.55326 0.58866 0.01142 0.0
C687 C 0.52337 0.58904 0.90893 0.0
C688 C 0.50193 0.60142 0.91016 0.0
C689 C 0.48038 0.59304 0.88783 0.0
C690 C 0.48102 0.57172 0.86152 0.0
C691 C 0.50303 0.55903 0.85846 0.0
C692 C 0.52428 0.56786 0.88355 0.0
H693 H 0.87837 0.47048 0.16058 0.0
H694 H 0.83449 0.52088 0.04287 0.0
H695 H 0.86294 0.52 0.92429 0.0
H696 H 0.93196 0.49383 0.10287 0.0
H697 H 0.95011 0.46912 0.08962 0.0
H698 H 0.92295 0.4681 0.15654 0.0
H699 H 0.90538 0.43737 0.08363 0.0
H700 H 0.93278 0.43794 0.01694 0.0
H701 H 0.90318 0.44166 0.97977 0.0
H702 H 0.8999 0.52079 0.83332 0.0
H703 H 0.94227 0.52157 0.77151 0.0
H704 H 0.96399 0.47151 0.94682 0.0
C705 C 0.87433 0.48079 0.10889 0.0
C706 C 0.85414 0.4957 0.11097 0.0
C707 C 0.84949 0.509 0.04242 0.0
C708 C 0.86566 0.50867 0.97473 0.0
C709 C 0.88628 0.49488 0.97645 0.0
C710 C 0.89052 0.4809 0.04137 0.0
C711 C 0.91587 0.47037 0.03273 0.0
C712 C 0.9311 0.47569 0.09936 0.0
C713 C 0.9142 0.44535 0.02796 0.0
C714 C 0.92582 0.48176 0.95514 0.0
C715 C 0.90819 0.49544 0.92305 0.0
C716 C 0.91364 0.5097 0.85659 0.0
C717 C 0.93774 0.51019 0.82245 0.0
C718 C 0.95607 0.49653 0.85473 0.0
C719 C 0.95003 0.48175 0.92069 0.0
H720 H 0.04066 0.18115 0.14928 0.0
H721 H 0.09008 0.15697 0.31977 0.0
H722 H 0.10111 0.125 0.24377 0.0
H723 H 0.01555 0.13342 0.13126 0.0
H724 H 0.01215 0.13638 0.02791 0.0
H725 H 0.01335 0.16049 0.08064 0.0
H726 H 0.05004 0.17533 0.98685 0.0
H727 H 0.04856 0.15151 0.93195 0.0
H728 H 0.07683 0.15806 0.96985 0.0
H729 H 0.09882 0.09186 0.16927 0.0
H730 H 0.08654 0.06179 0.09443 0.0
H731 H 0.03954 0.1078 0.96873 0.0
C732 C 0.05494 0.16983 0.16769 0.0
C733 C 0.0649 0.17165 0.23931 0.0
C734 C 0.08265 0.156 0.26413 0.0
C735 C 0.08893 0.13776 0.22148 0.0
C736 C 0.07749 0.13557 0.15374 0.0
C737 C 0.06129 0.15147 0.12583 0.0
C738 C 0.04894 0.14377 0.05812 0.0
C739 C 0.02085 0.1435 0.07562 0.0
C740 C 0.05656 0.15801 0.98218 0.0
C741 C 0.05954 0.12063 0.05559 0.0
C742 C 0.07624 0.1163 0.11029 0.0
C743 C 0.08638 0.09527 0.12444 0.0
C744 C 0.07926 0.07825 0.08157 0.0
C745 C 0.06206 0.08231 0.02538 0.0
C746 C 0.05255 0.10397 0.01159 0.0
H747 H 0.38275 0.03223 0.21542 0.0
H748 H 0.33582 0.98959 0.10716 0.0
H749 H 0.36656 0.98884 0.99347 0.0
H750 H 0.40971 0.06283 0.03148 0.0
H751 H 0.43949 0.06365 0.06736 0.0
H752 H 0.41227 0.06367 0.13466 0.0
H753 H 0.42892 0.02938 0.21366 0.0
H754 H 0.45602 0.02907 0.14628 0.0
H755 H 0.43727 0.00488 0.16481 0.0
H756 H 0.40435 0.988 0.90181 0.0
H757 H 0.44571 0.98948 0.83202 0.0
H758 H 0.46898 0.033 0.99665 0.0
C759 C 0.37869 0.02308 0.1671 0.0
C760 C 0.3567 0.01101 0.17041 0.0
C761 C 0.3522 0.99929 0.10574 0.0
C762 C 0.36969 0.99863 0.04104 0.0
C763 C 0.39154 0.00993 0.04132 0.0
C764 C 0.39599 0.02222 0.10206 0.0
C765 C 0.42169 0.0316 0.09021 0.0
C766 C 0.42073 0.05695 0.08033 0.0
C767 C 0.43686 0.02322 0.15775 0.0
C768 C 0.4313 0.02208 0.01446 0.0
C769 C 0.41347 0.0097 0.98736 0.0
C770 C 0.41828 0.99793 0.92174 0.0
C771 C 0.44186 0.99877 0.88282 0.0
C772 C 0.46039 0.0114 0.90893 0.0
C773 C 0.455 0.02346 0.97508 0.0
H774 H 0.4874 0.38007 0.20842 0.0
H775 H 0.53512 0.3379 0.06801 0.0
H776 H 0.53202 0.36437 0.9532 0.0
H777 H 0.44904 0.40245 0.04795 0.0
H778 H 0.44741 0.42954 0.08338 0.0
H779 H 0.44932 0.4054 0.15101 0.0
H780 H 0.48753 0.42134 0.20258 0.0
H781 H 0.48594 0.44536 0.13474 0.0
H782 H 0.51366 0.42886 0.13489 0.0
H783 H 0.53114 0.39771 0.86333 0.0
H784 H 0.52932 0.43511 0.79776 0.0
H785 H 0.48063 0.45645 0.99044 0.0
C786 C 0.49671 0.37616 0.15301 0.0
C787 C 0.51143 0.3568 0.14723 0.0
C788 C 0.52337 0.35233 0.07375 0.0
C789 C 0.52181 0.36736 0.0082 0.0
C790 C 0.50805 0.38668 0.01677 0.0
C791 C 0.49535 0.39103 0.08686 0.0
C792 C 0.48381 0.41401 0.08183 0.0
C793 C 0.45572 0.41277 0.09161 0.0
C794 C 0.49331 0.42822 0.14207 0.0
C795 C 0.493 0.42227 -0.00101 0.0
C796 C 0.5068 0.40606 0.9627 0.0
C797 C 0.51969 0.41026 0.88987 0.0
C798 C 0.51852 0.43154 0.85307 0.0
C799 C 0.50419 0.44831 0.88798 0.0
C800 C 0.49101 0.44364 0.96159 0.0
H801 H 0.16917 0.53733 0.02175 0.0
H802 H 0.19551 0.46962 0.03307 0.0
H803 H 0.16146 0.45946 0.95834 0.0
H804 H 0.10878 0.52553 0.06145 0.0
H805 H 0.09711 0.54758 -0.00205 0.0
H806 H 0.12596 0.55052 0.0375 0.0
H807 H 0.14792 0.55811 0.89833 0.0
H808 H 0.11896 0.55598 0.85821 0.0
H809 H 0.14462 0.53897 0.8258 0.0
H810 H 0.12109 0.45621 0.89808 0.0
H811 H 0.08074 0.46078 0.8449 0.0
H812 H 0.08064 0.53058 0.88078 0.0
C813 C 0.16833 0.52057 0.00539 0.0
C814 C 0.18505 0.50428 0.03165 0.0
C815 C 0.18314 0.48236 0.01159 0.0
C816 C 0.16372 0.47646 0.97005 0.0
C817 C 0.14661 0.49273 0.94914 0.0
C818 C 0.14905 0.51444 0.96493 0.0
C819 C 0.12732 0.52851 0.94262 0.0
C820 C 0.11402 0.53862 0.01415 0.0
C821 C 0.13518 0.54645 0.87734 0.0
C822 C 0.11188 0.51128 0.91335 0.0
C823 C 0.12329 0.49076 0.91699 0.0
C824 C 0.11215 0.47226 0.89427 0.0
C825 C 0.08912 0.47498 0.86484 0.0
C826 C 0.07744 0.49602 0.85902 0.0
C827 C 0.08893 0.51424 0.88492 0.0
H828 H 0.96811 0.86558 0.2213 0.0
H829 H 0.98935 0.8106 0.37831 0.0
H830 H 0.98527 0.83468 0.48796 0.0
H831 H 1.00325 0.90282 0.28512 0.0
H832 H 0.98275 0.92628 0.27572 0.0
H833 H 0.98058 0.90385 0.21555 0.0
H834 H 0.93484 0.89889 0.2655 0.0
H835 H 0.93669 0.92163 0.32527 0.0
H836 H 0.92606 0.89519 0.3691 0.0
H837 H 0.98799 0.86606 0.57088 0.0
H838 H 0.9955 0.90173 0.6225 0.0
H839 H 0.97281 0.93661 0.41124 0.0
C840 C 0.9709 0.85844 0.27959 0.0
C841 C 0.97888 0.83629 0.29201 0.0
C842 C 0.98285 0.82746 0.36827 0.0
C843 C 0.98062 0.84105 0.4306 0.0
C844 C 0.97409 0.86324 0.41542 0.0
C845 C 0.96889 0.87179 0.34186 0.0
C846 C 0.96572 0.89666 0.33769 0.0
C847 C 0.98418 0.90805 0.27485 0.0
C848 C 0.93925 0.90349 0.32358 0.0
C849 C 0.97135 0.90101 0.41913 0.0
C850 C 0.97567 0.88148 0.46355 0.0
C851 C 0.98397 0.88137 0.53749 0.0
C852 C 0.98832 0.90166 0.56614 0.0
C853 C 0.98444 0.92175 0.52094 0.0
C854 C 0.97527 0.92143 0.44747 0.0
H855 H 0.66484 0.03054 0.28974 0.0
H856 H 0.69881 0.96734 0.35204 0.0
H857 H 0.66502 0.95939 0.45626 0.0
H858 H 0.64158 0.04219 0.49123 0.0
H859 H 0.61396 0.05519 0.4594 0.0
H860 H 0.64181 0.05632 0.39494 0.0
H861 H 0.61916 0.03938 0.28948 0.0
H862 H 0.59138 0.03775 0.35409 0.0
H863 H 0.60411 0.01328 0.31284 0.0
H864 H 0.62519 0.95687 0.54295 0.0
H865 H 0.58551 0.96175 0.61946 0.0
H866 H 0.57807 0.02758 0.50455 0.0
C867 C 0.66545 0.0153 0.32694 0.0
C868 C 0.68449 0.99959 0.31385 0.0
C869 C 0.68459 0.97967 0.36232 0.0
C870 C 0.66537 0.97499 0.42099 0.0
C871 C 0.64641 0.99054 0.43071 0.0
C872 C 0.64659 0.01051 0.38613 0.0
C873 C 0.62385 0.02424 0.40727 0.0
C874 C 0.63071 0.04576 0.44019 0.0
C875 C 0.60874 0.02893 0.33671 0.0
C876 C 0.61057 0.00875 0.46995 0.0
C877 C 0.62381 0.98933 0.48203 0.0
C878 C 0.61486 0.97212 0.53464 0.0
C879 C 0.59213 0.97502 0.5774 0.0
C880 C 0.57856 0.99507 0.5682 0.0
C881 C 0.58795 0.01208 0.51313 0.0
H882 H 0.558 0.62289 0.246 0.0
H883 H 0.51599 0.67093 0.37717 0.0
H884 H 0.51321 0.64422 0.49419 0.0
H885 H 0.52426 0.57723 0.31981 0.0
H886 H 0.54978 0.55809 0.32362 0.0
H887 H 0.5515 0.58186 0.25383 0.0
H888 H 0.59118 0.59405 0.30761 0.0
H889 H 0.58975 0.57017 0.37727 0.0
H890 H 0.59126 0.59738 0.41048 0.0
H891 H 0.50996 0.61091 0.58943 0.0
H892 H 0.50892 0.57394 0.66094 0.0
H893 H 0.55407 0.54745 0.46985 0.0
C894 C 0.54862 0.62791 0.29989 0.0
C895 C 0.53717 0.64895 0.30284 0.0
C896 C 0.52508 0.65499 0.3741 0.0
C897 C 0.52335 0.6399 0.4406 0.0
C898 C 0.53413 0.61902 0.43488 0.0
C899 C 0.54685 0.61312 0.36668 0.0
C900 C 0.55546 0.58922 0.37439 0.0
C901 C 0.54459 0.57582 0.31437 0.0
C902 C 0.58358 0.58762 0.36702 0.0
C903 C 0.54487 0.58231 0.4569 0.0
C904 C 0.53272 0.59983 0.49072 0.0
C905 C 0.5198 0.59722 0.5642 0.0
C906 C 0.5192 0.57619 0.60408 0.0
C907 C 0.53158 0.55811 0.57077 0.0
C908 C 0.54485 0.5612 0.49677 0.0
H909 H 0.87875 0.48075 0.37702 0.0
H910 H 0.84311 0.54431 0.40447 0.0
H911 H 0.87596 0.55465 0.4832 0.0
H912 H 0.9035 0.47362 0.57072 0.0
H913 H 0.93135 0.46101 0.5301 0.0
H914 H 0.90308 0.45783 0.487 0.0
H915 H 0.92396 0.47336 0.35299 0.0
H916 H 0.95205 0.4772 0.39607 0.0
H917 H 0.93766 0.50023 0.34438 0.0
H918 H 0.91551 0.55945 0.54548 0.0
H919 H 0.95571 0.55658 0.60012 0.0
H920 H 0.9655 0.49022 0.52605 0.0
C921 C 0.8775 0.4966 0.40161 0.0
C922 C 0.85839 0.51171 0.38522 0.0
C923 C 0.8574 0.53237 0.41759 0.0
C924 C 0.87611 0.53845 0.46157 0.0
C925 C 0.89548 0.5236 0.47277 0.0
C926 C 0.89602 0.50293 0.4449 0.0
C927 C 0.91943 0.49045 0.46062 0.0
C928 C 0.91401 0.46949 0.51539 0.0
C929 C 0.93413 0.485 0.38395 0.0
C930 C 0.93223 0.50745 0.50063 0.0
C931 C 0.91819 0.52646 0.50728 0.0
C932 C 0.92655 0.54455 0.54118 0.0
C933 C 0.94951 0.54285 0.57131 0.0
C934 C 0.9638 0.52321 0.56715 0.0
C935 C 0.9551 0.5055 0.53003 0.0
loop_
_geom_bond_atom_site_label_1
_geom_bond_atom_site_label_2
_geom_bond_distance
_geom_bond_site_symmetry_2
_ccdc_geom_bond_type
H0 C1 0.949 . S
C1 H0 0.949 . S
C1 C2 1.395 . S
C1 C3 1.391 . S
C2 C1 1.395 . S
C2 C5 1.390 . S
C3 C1 1.391 . S
C3 C7 1.387 . S
C3 C8 1.491 . S
H4 C5 0.950 . S
C5 C2 1.390 . S
C5 H4 0.950 . S
C5 C6 1.378 . S
C6 C5 1.378 . S
C6 C7 1.409 . S
C7 C3 1.387 . S
C7 C6 1.409 . S
C7 H9 0.951 . S
C8 C3 1.491 . S
C8 C10 1.382 . S
C8 C12 1.404 . S
H9 C7 0.951 . S
C10 C8 1.382 . S
C10 C11 1.390 . S
C10 H15 0.949 . S
C11 C10 1.390 . S
C11 C16 1.399 . S
C12 C8 1.404 . S
C12 H13 0.950 . S
C12 C14 1.375 . S
H13 C12 0.950 . S
C14 C12 1.375 . S
C14 C16 1.382 . S
C14 H18 0.950 . S
H15 C10 0.949 . S
C16 C11 1.399 . S
C16 C14 1.382 . S
C16 H17 0.952 . S
H17 C16 0.952 . S
H18 C14 0.950 . S
H19 C20 0.949 . S
C20 H19 0.949 . S
C20 C21 1.395 . S
C20 C22 1.391 1_556 S
C21 C20 1.395 . S
C21 C24 1.390 1_556 S
C22 C20 1.391 1_554 S
C22 C26 1.387 . S
C22 C27 1.491 . S
H23 C24 0.950 . S
C24 C21 1.390 1_554 S
C24 H23 0.950 . S
C24 C25 1.378 . S
C25 C24 1.378 . S
C25 C26 1.409 . S
C26 C22 1.387 . S
C26 C25 1.409 . S
C26 H28 0.951 . S
C27 C22 1.491 . S
C27 C29 1.382 1_554 S
C27 C31 1.404 . S
H28 C26 0.951 . S
C29 C27 1.382 1_556 S
C29 C30 1.390 . S
C29 H34 0.953 . S
C30 C29 1.390 . S
C30 C35 1.399 1_556 S
C31 C27 1.404 . S
C31 H32 0.950 . S
C31 C33 1.375 . S
H32 C31 0.950 . S
C33 C31 1.375 . S
C33 C35 1.382 . S
C33 H37 0.950 . S
H34 C29 0.953 . S
C35 C30 1.399 1_554 S
C35 C33 1.382 . S
C35 H36 0.952 . S
H36 C35 0.952 . S
H37 C33 0.950 . S
H38 C39 0.954 . S
C39 H38 0.954 . S
C39 C40 1.395 . S
C39 C41 1.391 . S
C40 C39 1.395 . S
C40 C43 1.390 . S
C41 C39 1.391 . S
C41 C45 1.387 . S
C41 C46 1.491 . S
H42 C43 0.950 . S
C43 C40 1.390 . S
C43 H42 0.950 . S
C43 C44 1.378 . S
C44 C43 1.378 . S
C44 C45 1.409 . S
C45 C41 1.387 . S
C45 C44 1.409 . S
C45 H47 0.951 . S
C46 C41 1.491 . S
C46 C48 1.382 . S
C46 C50 1.404 . S
H47 C45 0.951 . S
C48 C46 1.382 . S
C48 C49 1.390 . S
C48 H53 0.949 1_565 S
C49 C48 1.390 . S
C49 C54 1.399 . S
C50 C46 1.404 . S
C50 H51 0.950 . S
C50 C52 1.375 . S
H51 C50 0.950 . S
C52 C50 1.375 . S
C52 C54 1.382 . S
C52 H56 0.950 . S
H53 C48 0.949 1_545 S
C54 C49 1.399 . S
C54 C52 1.382 . S
C54 H55 0.952 . S
H55 C54 0.952 . S
H56 C52 0.950 . S
H57 C58 0.949 . S
C58 H57 0.949 . S
C58 C59 1.395 . S
C58 C60 1.391 . S
C59 C58 1.395 . S
C59 C62 1.390 . S
C60 C58 1.391 . S
C60 C64 1.387 . S
C60 C65 1.491 . S
H61 C62 0.950 . S
C62 C59 1.390 . S
C62 H61 0.950 . S
C62 C63 1.378 . S
C63 C62 1.378 . S
C63 C64 1.409 . S
C64 C60 1.387 . S
C64 C63 1.409 . S
C64 H66 0.951 . S
C65 C60 1.491 . S
C65 C67 1.382 . S
C65 C69 1.404 . S
H66 C64 0.951 . S
C67 C65 1.382 . S
C67 C68 1.390 . S
C67 H72 0.949 . S
C68 C67 1.390 . S
C68 C73 1.399 . S
C69 C65 1.404 . S
C69 H70 0.950 . S
C69 C71 1.375 . S
H70 C69 0.950 . S
C71 C69 1.375 . S
C71 C73 1.382 . S
C71 H75 0.950 . S
H72 C67 0.949 . S
C73 C68 1.399 . S
C73 C71 1.382 . S
C73 H74 0.952 . S
H74 C73 0.952 . S
H75 C71 0.950 . S
H76 C77 0.949 . S
C77 H76 0.949 . S
C77 C78 1.395 . S
C77 C79 1.391 . S
C78 C77 1.395 . S
C78 C81 1.390 . S
C79 C77 1.391 . S
C79 C83 1.387 . S
C79 C84 1.491 . S
H80 C81 0.950 . S
C81 C78 1.390 . S
C81 H80 0.950 . S
C81 C82 1.378 . S
C82 C81 1.378 . S
C82 C83 1.409 . S
C83 C79 1.387 . S
C83 C82 1.409 . S
C83 H85 0.951 . S
C84 C79 1.491 . S
C84 C86 1.382 . S
C84 C88 1.404 . S
H85 C83 0.951 . S
C86 C84 1.382 . S
C86 C87 1.390 . S
C86 H91 0.949 . S
C87 C86 1.390 . S
C87 C92 1.399 . S
C88 C84 1.404 . S
C88 H89 0.950 . S
C88 C90 1.375 . S
H89 C88 0.950 . S
C90 C88 1.375 . S
C90 C92 1.382 . S
C90 H94 0.950 . S
H91 C86 0.949 . S
C92 C87 1.399 . S
C92 C90 1.382 . S
C92 H93 0.952 . S
H93 C92 0.952 . S
H94 C90 0.950 . S
H95 C96 0.949 . S
C96 H95 0.949 . S
C96 C97 1.395 . S
C96 C98 1.391 . S
C97 C96 1.395 . S
C97 C100 1.390 . S
C98 C96 1.391 . S
C98 C102 1.387 . S
C98 C103 1.491 . S
H99 C100 0.950 . S
C100 C97 1.390 . S
C100 H99 0.950 . S
C100 C101 1.378 . S
C101 C100 1.378 . S
C101 C102 1.409 . S
C102 C98 1.387 . S
C102 C101 1.409 . S
C102 H104 0.951 . S
C103 C98 1.491 . S
C103 C105 1.382 . S
C103 C107 1.404 . S
H104 C102 0.951 . S
C105 C103 1.382 . S
C105 C106 1.390 . S
C105 H110 0.949 . S
C106 C105 1.390 . S
C106 C111 1.399 . S
C107 C103 1.404 . S
C107 H108 0.936 1_455 S
C107 C109 1.375 . S
H108 C107 0.936 1_655 S
C109 C107 1.375 . S
C109 C111 1.382 . S
C109 H113 0.950 1_455 S
H110 C105 0.949 . S
C111 C106 1.399 . S
C111 C109 1.382 . S
C111 H112 0.952 . S
H112 C111 0.952 . S
H113 C109 0.950 1_655 S
H114 C115 0.949 . S
C115 H114 0.949 . S
C115 C116 1.395 . S
C115 C117 1.391 . S
C116 C115 1.395 . S
C116 C119 1.390 . S
C117 C115 1.391 . S
C117 C121 1.387 . S
C117 C122 1.496 . S
H118 C119 0.950 . S
C119 C116 1.390 . S
C119 H118 0.950 . S
C119 C120 1.378 . S
C120 C119 1.378 . S
C120 C121 1.409 . S
C121 C117 1.387 . S
C121 C120 1.409 . S
C121 H123 0.951 . S
C122 C117 1.496 . S
C122 C124 1.394 . S
C122 C126 1.386 1_545 S
H123 C121 0.951 . S
C124 C122 1.394 . S
C124 C125 1.390 . S
C124 H129 0.949 . S
C125 C124 1.390 . S
C125 C130 1.399 1_545 S
C126 C122 1.386 1_565 S
C126 H127 0.950 . S
C126 C128 1.375 . S
H127 C126 0.950 . S
C128 C126 1.375 . S
C128 C130 1.382 . S
C128 H132 0.950 . S
H129 C124 0.949 . S
C130 C125 1.399 1_565 S
C130 C128 1.382 . S
C130 H131 0.952 . S
H131 C130 0.952 . S
H132 C128 0.950 . S
H133 C134 0.949 . S
C134 H133 0.949 . S
C134 C135 1.395 . S
C134 C136 1.391 . S
C135 C134 1.395 . S
C135 C138 1.390 . S
C136 C134 1.391 . S
C136 C140 1.387 . S
C136 C141 1.491 . S
H137 C138 0.950 . S
C138 C135 1.390 . S
C138 H137 0.950 . S
C138 C139 1.378 . S
C139 C138 1.378 . S
C139 C140 1.409 . S
C140 C136 1.387 . S
C140 C139 1.409 . S
C140 H142 0.951 . S
C141 C136 1.491 . S
C141 C143 1.382 . S
C141 C145 1.404 . S
H142 C140 0.951 . S
C143 C141 1.382 . S
C143 C144 1.390 . S
C143 H148 0.949 . S
C144 C143 1.390 . S
C144 C149 1.399 . S
C145 C141 1.404 . S
C145 H146 0.950 . S
C145 C147 1.375 . S
H146 C145 0.950 . S
C147 C145 1.375 . S
C147 C149 1.382 . S
C147 H151 0.950 . S
H148 C143 0.949 . S
C149 C144 1.399 . S
C149 C147 1.382 . S
C149 H150 0.952 . S
H150 C149 0.952 . S
H151 C147 0.950 . S
C152 O168 1.251 . S
C152 O170 1.254 . S
N153 C154 1.333 . S
N153 C158 1.307 1_455 S
N153 Zn159 2.020 . S
C154 N153 1.333 . S
C154 C155 1.379 . S
C154 H172 0.952 . S
C155 C154 1.379 . S
C155 C156 1.390 1_455 S
C155 H182 0.949 . S
C156 C155 1.390 1_655 S
C156 C157 1.357 . S
C157 C156 1.357 . S
C157 C158 1.370 . S
C157 H183 0.950 . S
C158 N153 1.307 1_655 S
C158 C157 1.370 . S
C158 H176 0.948 . S
Zn159 N153 2.020 . S
Zn159 O168 2.039 . S
Zn159 O174 2.034 . S
Zn159 O178 2.025 1_565 S
Zn159 O180 2.024 1_455 S
C160 O179 1.246 . S
C160 O180 1.249 1_545 S
N161 C162 1.307 . S
N161 C163 1.333 . S
N161 Zn167 2.020 . S
C162 N161 1.307 . S
C162 C166 1.370 1_556 S
C162 H173 0.948 . S
C163 N161 1.333 . S
C163 C164 1.379 . S
C163 H171 0.952 . S
C164 C163 1.379 . S
C164 C165 1.390 1_556 S
C164 H184 0.949 . S
C165 C164 1.390 1_554 S
C165 C166 1.357 . S
C166 C162 1.370 1_554 S
C166 C165 1.357 . S
C166 H185 0.950 . S
Zn167 N161 2.020 . S
Zn167 O170 2.025 1_545 S
Zn167 O175 2.024 . S
Zn167 O177 2.039 . S
Zn167 O179 2.034 1_455 S
O168 C152 1.251 . S
O168 Zn159 2.039 . S
C169 O174 1.223 1_545 S
C169 O175 1.271 . S
O170 C152 1.254 . S
O170 Zn167 2.025 1_565 S
H171 C163 0.952 . S
H172 C154 0.952 . S
H173 C162 0.948 . S
O174 Zn159 2.034 . S
O174 C169 1.223 1_565 S
O175 Zn167 2.024 . S
O175 C169 1.271 . S
H176 C158 0.948 . S
O177 Zn167 2.039 . S
O177 C181 1.251 . S
O178 Zn159 2.025 1_545 S
O178 C181 1.254 . S
O179 C160 1.246 . S
O179 Zn167 2.034 1_655 S
O180 Zn159 2.024 1_655 S
O180 C160 1.249 1_565 S
C181 O177 1.251 . S
C181 O178 1.254 . S
H182 C155 0.949 . S
H183 C157 0.950 . S
H184 C164 0.949 . S
H185 C166 0.950 . S
C186 O202 1.289 . S
C186 O204 1.219 1_545 S
N187 C188 1.333 . S
N187 C192 1.307 . S
N187 Zn193 2.020 . S
C188 N187 1.333 . S
C188 C189 1.379 . S
C188 H206 0.952 . S
C189 C188 1.379 . S
C189 C190 1.390 . S
C189 H216 0.949 . S
C190 C189 1.390 . S
C190 C191 1.357 . S
C191 C190 1.357 . S
C191 C192 1.370 . S
C191 H217 0.950 . S
C192 N187 1.307 . S
C192 C191 1.370 . S
C192 H210 0.948 . S
Zn193 N187 2.020 . S
Zn193 O202 2.039 . S
Zn193 O208 2.034 . S
Zn193 O212 2.025 . S
Zn193 O214 2.024 . S
C194 O213 1.246 1_545 S
C194 O214 1.249 . S
N195 C196 1.307 . S
N195 C197 1.333 . S
N195 Zn201 2.020 . S
C196 N195 1.307 . S
C196 C200 1.370 . S
C196 H207 0.948 . S
C197 N195 1.333 . S
C197 C198 1.379 . S
C197 H205 0.952 . S
C198 C197 1.379 . S
C198 C199 1.390 . S
C198 H218 0.949 . S
C199 C198 1.390 . S
C199 C200 1.357 . S
C200 C196 1.370 . S
C200 C199 1.357 . S
C200 H219 0.950 . S
Zn201 N195 2.020 . S
Zn201 O204 2.025 . S
Zn201 O209 2.024 . S
Zn201 O211 2.039 . S
Zn201 O213 2.034 . S
O202 C186 1.289 . S
O202 Zn193 2.039 . S
C203 O208 1.246 1_565 S
C203 O209 1.249 . S
O204 C186 1.219 1_565 S
O204 Zn201 2.025 . S
H205 C197 0.952 . S
H206 C188 0.952 . S
H207 C196 0.948 . S
O208 Zn193 2.034 . S
O208 C203 1.246 1_545 S
O209 Zn201 2.024 . S
O209 C203 1.249 . S
H210 C192 0.948 . S
O211 Zn201 2.039 . S
O211 C215 1.251 1_565 S
O212 Zn193 2.025 . S
O212 C215 1.254 . S
O213 C194 1.246 1_565 S
O213 Zn201 2.034 . S
O214 Zn193 2.024 . S
O214 C194 1.249 . S
C215 O211 1.251 1_545 S
C215 O212 1.254 . S
H216 C189 0.949 . S
H217 C191 0.950 . S
H218 C198 0.949 . S
H219 C200 0.950 . S
C220 O236 1.251 . S
C220 O238 1.254 . S
N221 C222 1.333 . S
N221 C226 1.307 . S
N221 Zn227 2.020 . S
C222 N221 1.333 . S
C222 C223 1.379 . S
C222 H240 0.952 . S
C223 C222 1.379 . S
C223 C224 1.390 . S
C223 H250 0.949 . S
C224 C223 1.390 . S
C224 C225 1.357 . S
C225 C224 1.357 . S
C225 C226 1.370 . S
C225 H251 0.950 . S
C226 N221 1.307 . S
C226 C225 1.370 . S
C226 H244 0.948 . S
Zn227 N221 2.020 . S
Zn227 O236 2.039 . S
Zn227 O242 2.034 . S
Zn227 O246 2.025 . S
Zn227 O248 2.024 . S
C228 O247 1.246 . S
C228 O248 1.249 . S
N229 C230 1.307 . S
N229 C231 1.333 . S
N229 Zn235 2.020 . S
C230 N229 1.307 . S
C230 C234 1.370 . S
C230 H241 0.948 . S
C231 N229 1.333 . S
C231 C232 1.379 . S
C231 H239 0.952 . S
C232 C231 1.379 . S
C232 C233 1.390 . S
C232 H252 0.949 . S
C233 C232 1.390 . S
C233 C234 1.357 . S
C234 C230 1.370 . S
C234 C233 1.357 . S
C234 H253 0.950 . S
Zn235 N229 2.020 . S
Zn235 O238 2.025 . S
Zn235 O243 2.024 . S
Zn235 O245 2.039 . S
Zn235 O247 2.034 . S
O236 C220 1.251 . S
O236 Zn227 2.039 . S
C237 O242 1.246 . S
C237 O243 1.249 . S
O238 C220 1.254 . S
O238 Zn235 2.025 . S
H239 C231 0.952 . S
H240 C222 0.952 . S
H241 C230 0.948 . S
O242 Zn227 2.034 . S
O242 C237 1.246 . S
O243 Zn235 2.024 . S
O243 C237 1.249 . S
H244 C226 0.948 . S
O245 Zn235 2.039 . S
O245 C249 1.251 . S
O246 Zn227 2.025 . S
O246 C249 1.254 . S
O247 C228 1.246 . S
O247 Zn235 2.034 . S
O248 Zn227 2.024 . S
O248 C228 1.249 . S
C249 O245 1.251 . S
C249 O246 1.254 . S
H250 C223 0.949 . S
H251 C225 0.950 . S
H252 C232 0.949 . S
H253 C234 0.950 . S
C254 O270 1.251 . S
C254 O272 1.254 . S
N255 C256 1.333 . S
N255 C260 1.307 . S
N255 Zn261 2.020 . S
C256 N255 1.333 . S
C256 C257 1.379 . S
C256 H274 0.952 . S
C257 C256 1.379 . S
C257 C258 1.390 . S
C257 H284 0.949 . S
C258 C257 1.390 . S
C258 C259 1.357 . S
C259 C258 1.357 . S
C259 C260 1.370 . S
C259 H285 0.951 . S
C260 N255 1.307 . S
C260 C259 1.370 . S
C260 H278 0.937 1_455 S
Zn261 N255 2.020 . S
Zn261 O270 2.039 . S
Zn261 O276 2.034 1_455 S
Zn261 O280 2.025 1_455 S
Zn261 O282 2.024 . S
C262 O281 1.246 . S
C262 O282 1.249 . S
N263 C264 1.307 . S
N263 C265 1.333 . S
N263 Zn269 2.020 . S
C264 N263 1.307 . S
C264 C268 1.370 . S
C264 H275 0.948 . S
C265 N263 1.333 . S
C265 C266 1.380 . S
C265 H273 0.952 1_455 S
C266 C265 1.380 . S
C266 C267 1.398 . S
C266 H286 0.941 1_455 S
C267 C266 1.398 . S
C267 C268 1.357 . S
C268 C264 1.370 . S
C268 C267 1.357 . S
C268 H287 0.950 . S
Zn269 N263 2.020 . S
Zn269 O272 2.025 . S
Zn269 O277 2.024 1_455 S
Zn269 O279 2.039 1_455 S
Zn269 O281 2.034 . S
O270 C254 1.251 . S
O270 Zn261 2.039 . S
C271 O276 1.246 . S
C271 O277 1.249 . S
O272 C254 1.254 . S
O272 Zn269 2.025 . S
H273 C265 0.952 1_655 S
H274 C256 0.952 . S
H275 C264 0.948 . S
O276 Zn261 2.034 1_655 S
O276 C271 1.246 . S
O277 Zn269 2.024 1_655 S
O277 C271 1.249 . S
H278 C260 0.937 1_655 S
O279 Zn269 2.039 1_655 S
O279 C283 1.251 . S
O280 Zn261 2.025 1_655 S
O280 C283 1.254 . S
O281 C262 1.246 . S
O281 Zn269 2.034 . S
O282 Zn261 2.024 . S
O282 C262 1.249 . S
C283 O279 1.251 . S
C283 O280 1.254 . S
H284 C257 0.949 . S
H285 C259 0.951 . S
H286 C266 0.941 1_655 S
H287 C268 0.950 . S
H288 C300 0.930 . S
H289 C302 0.930 . S
H290 C303 0.930 . S
H291 C307 0.959 . S
H292 C307 0.959 . S
H293 C307 0.961 . S
H294 C308 0.960 . S
H295 C308 0.961 . S
H296 C308 0.959 . S
H297 C311 0.929 . S
H298 C312 0.931 . S
H299 C314 0.930 . S
C300 H288 0.930 . S
C300 C301 1.399 1_565 S
C300 C305 1.399 . S
C301 C300 1.399 1_545 S
C301 C302 1.376 . S
C302 H289 0.930 . S
C302 C301 1.376 . S
C302 C303 1.388 . S
C303 H290 0.930 . S
C303 C302 1.388 . S
C303 C304 1.390 . S
C304 C303 1.390 . S
C304 C305 1.394 1_545 S
C304 C310 1.465 . S
C305 C300 1.399 . S
C305 C304 1.394 1_565 S
C305 C306 1.516 . S
C306 C305 1.516 . S
C306 C307 1.502 . S
C306 C308 1.561 . S
C306 C309 1.526 . S
C307 H291 0.959 . S
C307 H292 0.959 . S
C307 H293 0.961 . S
C307 C306 1.502 . S
C308 H294 0.960 . S
C308 H295 0.961 . S
C308 H296 0.959 . S
C308 C306 1.561 . S
C309 C306 1.526 . S
C309 C310 1.396 1_565 S
C309 C314 1.390 . S
C310 C304 1.465 . S
C310 C309 1.396 1_545 S
C310 C311 1.399 . S
C311 H297 0.929 . S
C311 C310 1.399 . S
C311 C312 1.385 . S
C312 H298 0.931 . S
C312 C311 1.385 . S
C312 C313 1.389 . S
C313 C312 1.389 . S
C313 C314 1.387 1_545 S
C314 H299 0.930 . S
C314 C309 1.390 . S
C314 C313 1.387 1_565 S
H315 C327 0.930 . S
H316 C329 0.930 . S
H317 C330 0.930 . S
H318 C334 0.959 . S
H319 C334 0.959 . S
H320 C334 0.961 . S
H321 C335 0.960 . S
H322 C335 0.961 . S
H323 C335 0.959 . S
H324 C338 0.929 . S
H325 C339 0.931 . S
H326 C341 0.930 . S
C327 H315 0.930 . S
C327 C328 1.399 . S
C327 C332 1.399 . S
C328 C327 1.399 . S
C328 C329 1.376 . S
C329 H316 0.930 . S
C329 C328 1.376 . S
C329 C330 1.388 . S
C330 H317 0.930 . S
C330 C329 1.388 . S
C330 C331 1.390 . S
C331 C330 1.390 . S
C331 C332 1.394 . S
C331 C337 1.465 . S
C332 C327 1.399 . S
C332 C331 1.394 . S
C332 C333 1.516 . S
C333 C332 1.516 . S
C333 C334 1.502 . S
C333 C335 1.561 . S
C333 C336 1.526 . S
C334 H318 0.959 . S
C334 H319 0.959 . S
C334 H320 0.961 . S
C334 C333 1.502 . S
C335 H321 0.960 . S
C335 H322 0.961 . S
C335 H323 0.959 . S
C335 C333 1.561 . S
C336 C333 1.526 . S
C336 C337 1.396 . S
C336 C341 1.390 . S
C337 C331 1.465 . S
C337 C336 1.396 . S
C337 C338 1.399 . S
C338 H324 0.929 . S
C338 C337 1.399 . S
C338 C339 1.385 . S
C339 H325 0.931 . S
C339 C338 1.385 . S
C339 C340 1.389 . S
C340 C339 1.389 . S
C340 C341 1.387 . S
C341 H326 0.930 . S
C341 C336 1.390 . S
C341 C340 1.387 . S
H342 C354 0.930 . S
H343 C356 0.930 . S
H344 C357 0.930 . S
H345 C361 0.959 . S
H346 C361 0.959 . S
H347 C361 0.961 . S
H348 C362 0.960 . S
H349 C362 0.961 . S
H350 C362 0.959 . S
H351 C365 0.929 . S
H352 C366 0.931 . S
H353 C368 0.930 . S
C354 H342 0.930 . S
C354 C355 1.399 . S
C354 C359 1.399 . S
C355 C354 1.399 . S
C355 C356 1.376 . S
C356 H343 0.930 . S
C356 C355 1.376 . S
C356 C357 1.388 . S
C357 H344 0.930 . S
C357 C356 1.388 . S
C357 C358 1.390 . S
C358 C357 1.390 . S
C358 C359 1.394 . S
C358 C364 1.465 . S
C359 C354 1.399 . S
C359 C358 1.394 . S
C359 C360 1.516 . S
C360 C359 1.516 . S
C360 C361 1.502 . S
C360 C362 1.561 . S
C360 C363 1.526 . S
C361 H345 0.959 . S
C361 H346 0.959 . S
C361 H347 0.961 . S
C361 C360 1.502 . S
C362 H348 0.960 . S
C362 H349 0.961 . S
C362 H350 0.959 . S
C362 C360 1.561 . S
C363 C360 1.526 . S
C363 C364 1.396 . S
C363 C368 1.390 . S
C364 C358 1.465 . S
C364 C363 1.396 . S
C364 C365 1.399 . S
C365 H351 0.929 . S
C365 C364 1.399 . S
C365 C366 1.385 . S
C366 H352 0.931 . S
C366 C365 1.385 . S
C366 C367 1.389 . S
C367 C366 1.389 . S
C367 C368 1.387 . S
C368 H353 0.930 . S
C368 C363 1.390 . S
C368 C367 1.387 . S
H369 C381 0.930 . S
H370 C383 0.930 . S
H371 C384 0.930 . S
H372 C388 0.959 . S
H373 C388 0.959 . S
H374 C388 0.961 . S
H375 C389 0.960 . S
H376 C389 0.961 . S
H377 C389 0.959 . S
H378 C392 0.929 . S
H379 C393 0.931 . S
H380 C395 0.930 . S
C381 H369 0.930 . S
C381 C382 1.399 . S
C381 C386 1.399 . S
C382 C381 1.399 . S
C382 C383 1.376 . S
C383 H370 0.930 . S
C383 C382 1.376 . S
C383 C384 1.388 . S
C384 H371 0.930 . S
C384 C383 1.388 . S
C384 C385 1.390 . S
C385 C384 1.390 . S
C385 C386 1.394 . S
C385 C391 1.465 . S
C386 C381 1.399 . S
C386 C385 1.394 . S
C386 C387 1.516 . S
C387 C386 1.516 . S
C387 C388 1.502 1_455 S
C387 C389 1.561 . S
C387 C390 1.526 . S
C388 H372 0.959 . S
C388 H373 0.959 . S
C388 H374 0.961 . S
C388 C387 1.502 1_655 S
C389 H375 0.960 . S
C389 H376 0.961 . S
C389 H377 0.959 . S
C389 C387 1.561 . S
C390 C387 1.526 . S
C390 C391 1.396 . S
C390 C395 1.390 . S
C391 C385 1.465 . S
C391 C390 1.396 . S
C391 C392 1.399 . S
C392 H378 0.929 . S
C392 C391 1.399 . S
C392 C393 1.385 . S
C393 H379 0.931 . S
C393 C392 1.385 . S
C393 C394 1.389 . S
C394 C393 1.389 . S
C394 C395 1.387 . S
C395 H380 0.930 . S
C395 C390 1.390 . S
C395 C394 1.387 . S
H396 C408 0.930 . S
H397 C410 0.930 . S
H398 C411 0.930 1_554 S
H399 C415 0.959 . S
H400 C415 0.959 . S
H401 C415 0.961 . S
H402 C416 0.960 . S
H403 C416 0.961 . S
H404 C416 0.959 . S
H405 C419 0.929 . S
H406 C420 0.931 . S
H407 C422 0.930 . S
C408 H396 0.930 . S
C408 C409 1.399 1_545 S
C408 C413 1.399 . S
C409 C408 1.399 1_565 S
C409 C410 1.376 1_556 S
C410 H397 0.930 . S
C410 C409 1.376 1_554 S
C410 C411 1.388 1_554 S
C411 H398 0.930 1_556 S
C411 C410 1.388 1_556 S
C411 C412 1.390 . S
C412 C411 1.390 . S
C412 C413 1.394 1_565 S
C412 C418 1.465 . S
C413 C408 1.399 . S
C413 C412 1.394 1_545 S
C413 C414 1.516 . S
C414 C413 1.516 . S
C414 C415 1.502 . S
C414 C416 1.561 . S
C414 C417 1.526 . S
C415 H399 0.959 . S
C415 H400 0.959 . S
C415 H401 0.961 . S
C415 C414 1.502 . S
C416 H402 0.960 . S
C416 H403 0.961 . S
C416 H404 0.959 . S
C416 C414 1.561 . S
C417 C414 1.526 . S
C417 C418 1.396 1_545 S
C417 C422 1.390 . S
C418 C412 1.465 . S
C418 C417 1.396 1_565 S
C418 C419 1.399 . S
C419 H405 0.929 . S
C419 C418 1.399 . S
C419 C420 1.385 . S
C420 H406 0.931 . S
C420 C419 1.385 . S
C420 C421 1.420 . S
C421 C420 1.420 . S
C421 C422 1.364 1_565 S
C422 H407 0.930 . S
C422 C417 1.390 . S
C422 C421 1.364 1_545 S
H423 C435 0.930 . S
H424 C437 0.930 . S
H425 C438 0.930 . S
H426 C442 0.959 1_556 S
H427 C442 0.959 . S
H428 C442 0.961 . S
H429 C443 0.960 . S
H430 C443 0.961 . S
H431 C443 0.959 . S
H432 C446 0.929 . S
H433 C447 0.931 . S
H434 C449 0.930 . S
C435 H423 0.930 . S
C435 C436 1.399 1_554 S
C435 C440 1.399 1_554 S
C436 C435 1.399 1_556 S
C436 C437 1.376 . S
C437 H424 0.930 . S
C437 C436 1.376 . S
C437 C438 1.388 . S
C438 H425 0.930 . S
C438 C437 1.388 . S
C438 C439 1.390 . S
C439 C438 1.390 . S
C439 C440 1.394 . S
C439 C445 1.465 . S
C440 C435 1.399 1_556 S
C440 C439 1.394 . S
C440 C441 1.516 1_556 S
C441 C440 1.516 1_554 S
C441 C442 1.502 . S
C441 C443 1.561 . S
C441 C444 1.526 1_554 S
C442 H426 0.959 1_554 S
C442 H427 0.959 . S
C442 H428 0.961 . S
C442 C441 1.502 . S
C443 H429 0.960 . S
C443 H430 0.961 . S
C443 H431 0.959 . S
C443 C441 1.561 . S
C444 C441 1.526 1_556 S
C444 C445 1.396 . S
C444 C449 1.390 . S
C445 C439 1.465 . S
C445 C444 1.396 . S
C445 C446 1.399 . S
C446 H432 0.929 . S
C446 C445 1.399 . S
C446 C447 1.385 . S
C447 H433 0.931 . S
C447 C446 1.385 . S
C447 C448 1.389 . S
C448 C447 1.389 . S
C448 C449 1.387 . S
C449 H434 0.930 . S
C449 C444 1.390 . S
C449 C448 1.387 . S
H450 C462 0.930 . S
H451 C464 0.930 . S
H452 C465 0.930 . S
H453 C469 0.959 . S
H454 C469 0.959 . S
H455 C469 0.961 . S
H456 C470 0.960 . S
H457 C470 0.961 . S
H458 C470 0.959 . S
H459 C473 0.929 . S
H460 C474 0.931 . S
H461 C476 0.930 . S
C462 H450 0.930 . S
C462 C463 1.399 . S
C462 C467 1.399 1_554 S
C463 C462 1.399 . S
C463 C464 1.376 . S
C464 H451 0.930 . S
C464 C463 1.376 . S
C464 C465 1.388 1_554 S
C465 H452 0.930 . S
C465 C464 1.388 1_556 S
C465 C466 1.390 . S
C466 C465 1.390 . S
C466 C467 1.394 . S
C466 C472 1.465 . S
C467 C462 1.399 1_556 S
C467 C466 1.394 . S
C467 C468 1.516 . S
C468 C467 1.516 . S
C468 C469 1.502 1_556 S
C468 C470 1.561 . S
C468 C471 1.526 . S
C469 H453 0.959 . S
C469 H454 0.959 . S
C469 H455 0.961 . S
C469 C468 1.502 1_554 S
C470 H456 0.960 . S
C470 H457 0.961 . S
C470 H458 0.959 . S
C470 C468 1.561 . S
C471 C468 1.526 . S
C471 C472 1.396 . S
C471 C476 1.390 . S
C472 C466 1.465 . S
C472 C471 1.396 . S
C472 C473 1.399 . S
C473 H459 0.929 . S
C473 C472 1.399 . S
C473 C474 1.385 . S
C474 H460 0.931 . S
C474 C473 1.385 . S
C474 C475 1.389 . S
C475 C474 1.389 . S
C475 C476 1.387 . S
C476 H461 0.930 . S
C476 C471 1.390 . S
C476 C475 1.387 . S
H477 C489 0.941 1_554 S
H478 C491 0.930 . S
H479 C492 0.930 . S
H480 C496 0.959 . S
H481 C496 0.959 . S
H482 C496 0.959 1_554 S
H483 C497 0.960 . S
H484 C497 0.961 1_455 S
H485 C497 0.959 . S
H486 C500 0.929 . S
H487 C501 0.931 . S
H488 C503 0.930 . S
C489 H477 0.941 1_556 S
C489 C490 1.383 1_455 S
C489 C494 1.398 . S
C490 C489 1.383 1_655 S
C490 C491 1.376 . S
C491 H478 0.930 . S
C491 C490 1.376 . S
C491 C492 1.388 . S
C492 H479 0.930 . S
C492 C491 1.388 . S
C492 C493 1.390 . S
C493 C492 1.390 . S
C493 C494 1.387 1_655 S
C493 C499 1.465 . S
C494 C489 1.398 . S
C494 C493 1.387 1_455 S
C494 C495 1.521 . S
C495 C494 1.521 . S
C495 C496 1.502 . S
C495 C497 1.561 1_456 S
C495 C498 1.526 . S
C496 H480 0.959 . S
C496 H481 0.959 . S
C496 H482 0.959 1_556 S
C496 C495 1.502 . S
C497 H483 0.960 . S
C497 H484 0.961 1_655 S
C497 H485 0.959 . S
C497 C495 1.561 1_654 S
C498 C495 1.526 . S
C498 C499 1.396 1_455 S
C498 C503 1.390 . S
C499 C493 1.465 . S
C499 C498 1.396 1_655 S
C499 C500 1.399 . S
C500 H486 0.929 . S
C500 C499 1.399 . S
C500 C501 1.385 . S
C501 H487 0.931 . S
C501 C500 1.385 . S
C501 C502 1.389 1_655 S
C502 C501 1.389 1_455 S
C502 C503 1.387 . S
C503 H488 0.930 . S
C503 C498 1.390 . S
C503 C502 1.387 . S
H504 C516 0.930 . S
H505 C518 0.930 . S
H506 C519 0.930 . S
H507 C523 0.959 . S
H508 C523 0.959 . S
H509 C523 0.961 . S
H510 C524 0.960 . S
H511 C524 0.961 . S
H512 C524 0.959 1_655 S
H513 C527 0.929 1_655 S
H514 C528 0.931 1_655 S
H515 C530 0.930 . S
C516 H504 0.930 . S
C516 C517 1.399 . S
C516 C521 1.399 . S
C517 C516 1.399 . S
C517 C518 1.376 . S
C518 H505 0.930 . S
C518 C517 1.376 . S
C518 C519 1.388 . S
C519 H506 0.930 . S
C519 C518 1.388 . S
C519 C520 1.390 . S
C520 C519 1.390 . S
C520 C521 1.394 . S
C520 C526 1.465 . S
C521 C516 1.399 . S
C521 C520 1.394 . S
C521 C522 1.516 . S
C522 C521 1.516 . S
C522 C523 1.502 . S
C522 C524 1.561 . S
C522 C525 1.526 . S
C523 H507 0.959 . S
C523 H508 0.959 . S
C523 H509 0.961 . S
C523 C522 1.502 . S
C524 H510 0.960 . S
C524 H511 0.961 . S
C524 H512 0.959 1_455 S
C524 C522 1.561 . S
C525 C522 1.526 . S
C525 C526 1.396 . S
C525 C530 1.390 . S
C526 C520 1.465 . S
C526 C525 1.396 . S
C526 C527 1.399 . S
C527 H513 0.929 1_455 S
C527 C526 1.399 . S
C527 C528 1.385 . S
C528 H514 0.931 1_455 S
C528 C527 1.385 . S
C528 C529 1.389 . S
C529 C528 1.389 . S
C529 C530 1.387 . S
C530 H515 0.930 . S
C530 C525 1.390 . S
C530 C529 1.387 . S
H531 C543 0.930 . S
H532 C545 0.930 . S
H533 C546 0.930 . S
H534 C550 0.959 . S
H535 C550 0.959 . S
H536 C550 0.961 . S
H537 C551 0.960 . S
H538 C551 0.961 . S
H539 C551 0.959 . S
H540 C554 0.929 . S
H541 C555 0.931 . S
H542 C557 0.930 . S
C543 H531 0.930 . S
C543 C544 1.399 1_565 S
C543 C548 1.399 . S
C544 C543 1.399 1_545 S
C544 C545 1.376 . S
C545 H532 0.930 . S
C545 C544 1.376 . S
C545 C546 1.388 . S
C546 H533 0.930 . S
C546 C545 1.388 . S
C546 C547 1.390 . S
C547 C546 1.390 . S
C547 C548 1.394 1_545 S
C547 C553 1.465 . S
C548 C543 1.399 . S
C548 C547 1.394 1_565 S
C548 C549 1.516 . S
C549 C548 1.516 . S
C549 C550 1.502 . S
C549 C551 1.561 . S
C549 C552 1.526 . S
C550 H534 0.959 . S
C550 H535 0.959 . S
C550 H536 0.961 . S
C550 C549 1.502 . S
C551 H537 0.960 . S
C551 H538 0.961 . S
C551 H539 0.959 . S
C551 C549 1.561 . S
C552 C549 1.526 . S
C552 C553 1.396 1_565 S
C552 C557 1.390 . S
C553 C547 1.465 . S
C553 C552 1.396 1_545 S
C553 C554 1.399 . S
C554 H540 0.929 . S
C554 C553 1.399 . S
C554 C555 1.385 . S
C555 H541 0.931 . S
C555 C554 1.385 . S
C555 C556 1.389 . S
C556 C555 1.389 . S
C556 C557 1.387 1_545 S
C557 H542 0.930 . S
C557 C552 1.390 . S
C557 C556 1.387 1_565 S
H558 C570 0.930 . S
H559 C572 0.930 . S
H560 C573 0.930 . S
H561 C577 0.959 . S
H562 C577 0.959 . S
H563 C577 0.961 . S
H564 C578 0.960 . S
H565 C578 0.961 . S
H566 C578 0.959 . S
H567 C581 0.929 . S
H568 C582 0.931 . S
H569 C584 0.930 . S
C570 H558 0.930 . S
C570 C571 1.399 . S
C570 C575 1.399 . S
C571 C570 1.399 . S
C571 C572 1.376 . S
C572 H559 0.930 . S
C572 C571 1.376 . S
C572 C573 1.388 . S
C573 H560 0.930 . S
C573 C572 1.388 . S
C573 C574 1.390 . S
C574 C573 1.390 . S
C574 C575 1.394 . S
C574 C580 1.465 . S
C575 C570 1.399 . S
C575 C574 1.394 . S
C575 C576 1.516 . S
C576 C575 1.516 . S
C576 C577 1.502 . S
C576 C578 1.561 . S
C576 C579 1.526 . S
C577 H561 0.959 . S
C577 H562 0.959 . S
C577 H563 0.961 . S
C577 C576 1.502 . S
C578 H564 0.960 . S
C578 H565 0.961 . S
C578 H566 0.959 . S
C578 C576 1.561 . S
C579 C576 1.526 . S
C579 C580 1.396 . S
C579 C584 1.390 . S
C580 C574 1.465 . S
C580 C579 1.396 . S
C580 C581 1.399 . S
C581 H567 0.929 . S
C581 C580 1.399 . S
C581 C582 1.385 . S
C582 H568 0.931 . S
C582 C581 1.385 . S
C582 C583 1.389 . S
C583 C582 1.389 . S
C583 C584 1.387 . S
C584 H569 0.930 . S
C584 C579 1.390 . S
C584 C583 1.387 . S
H585 C597 0.930 . S
H586 C599 0.930 . S
H587 C600 0.930 . S
H588 C604 0.959 . S
H589 C604 0.959 . S
H590 C604 0.961 . S
H591 C605 0.960 . S
H592 C605 0.961 . S
H593 C605 0.959 . S
H594 C608 0.929 . S
H595 C609 0.931 . S
H596 C611 0.930 . S
C597 H585 0.930 . S
C597 C598 1.399 . S
C597 C602 1.399 . S
C598 C597 1.399 . S
C598 C599 1.376 . S
C599 H586 0.930 . S
C599 C598 1.376 . S
C599 C600 1.388 . S
C600 H587 0.930 . S
C600 C599 1.388 . S
C600 C601 1.390 . S
C601 C600 1.390 . S
C601 C602 1.394 . S
C601 C607 1.465 . S
C602 C597 1.399 . S
C602 C601 1.394 . S
C602 C603 1.516 . S
C603 C602 1.516 . S
C603 C604 1.502 . S
C603 C605 1.561 . S
C603 C606 1.526 . S
C604 H588 0.959 . S
C604 H589 0.959 . S
C604 H590 0.961 . S
C604 C603 1.502 . S
C605 H591 0.960 . S
C605 H592 0.961 . S
C605 H593 0.959 . S
C605 C603 1.561 . S
C606 C603 1.526 . S
C606 C607 1.396 . S
C606 C611 1.390 . S
C607 C601 1.465 . S
C607 C606 1.396 . S
C607 C608 1.399 . S
C608 H594 0.929 . S
C608 C607 1.399 . S
C608 C609 1.385 . S
C609 H595 0.931 . S
C609 C608 1.385 . S
C609 C610 1.389 . S
C610 C609 1.389 . S
C610 C611 1.387 . S
C611 H596 0.930 . S
C611 C606 1.390 . S
C611 C610 1.387 . S
H612 C624 0.930 . S
H613 C626 0.929 1_454 S
H614 C627 0.930 1_554 S
H615 C631 0.959 1_455 S
H616 C631 0.959 . S
H617 C631 0.961 . S
H618 C632 0.960 . S
H619 C632 0.961 . S
H620 C632 0.959 . S
H621 C635 0.929 . S
H622 C636 0.931 . S
H623 C638 0.930 1_655 S
C624 H612 0.930 . S
C624 C625 1.399 . S
C624 C629 1.399 . S
C625 C624 1.399 . S
C625 C626 1.380 . S
C626 H613 0.929 1_656 S
C626 C625 1.380 . S
C626 C627 1.386 1_655 S
C627 H614 0.930 1_556 S
C627 C626 1.386 1_455 S
C627 C628 1.390 . S
C628 C627 1.390 . S
C628 C629 1.394 1_455 S
C628 C634 1.465 . S
C629 C624 1.399 . S
C629 C628 1.394 1_655 S
C629 C630 1.516 . S
C630 C629 1.516 . S
C630 C631 1.502 . S
C630 C632 1.561 . S
C630 C633 1.526 . S
C631 H615 0.959 1_655 S
C631 H616 0.959 . S
C631 H617 0.961 . S
C631 C630 1.502 . S
C632 H618 0.960 . S
C632 H619 0.961 . S
C632 H620 0.959 . S
C632 C630 1.561 . S
C633 C630 1.526 . S
C633 C634 1.396 1_655 S
C633 C638 1.390 1_655 S
C634 C628 1.465 . S
C634 C633 1.396 1_455 S
C634 C635 1.399 . S
C635 H621 0.929 . S
C635 C634 1.399 . S
C635 C636 1.385 . S
C636 H622 0.931 . S
C636 C635 1.385 . S
C636 C637 1.389 . S
C637 C636 1.389 . S
C637 C638 1.387 . S
C638 H623 0.930 1_455 S
C638 C633 1.390 1_455 S
C638 C637 1.387 . S
H639 C651 0.930 . S
H640 C653 0.930 . S
H641 C654 0.930 . S
H642 C658 0.959 1_545 S
H643 C658 0.959 . S
H644 C658 0.961 . S
H645 C659 0.960 . S
H646 C659 0.961 . S
H647 C659 0.959 . S
H648 C662 0.929 1_554 S
H649 C663 0.931 . S
H650 C665 0.930 . S
C651 H639 0.930 . S
C651 C652 1.399 1_556 S
C651 C656 1.399 . S
C652 C651 1.399 1_554 S
C652 C653 1.376 1_565 S
C653 H640 0.930 . S
C653 C652 1.376 1_545 S
C653 C654 1.388 . S
C654 H641 0.930 . S
C654 C653 1.388 . S
C654 C655 1.396 1_554 S
C655 C654 1.396 1_556 S
C655 C656 1.386 1_545 S
C655 C661 1.466 . S
C656 C651 1.399 . S
C656 C655 1.386 1_565 S
C656 C657 1.516 . S
C657 C656 1.516 . S
C657 C658 1.502 . S
C657 C659 1.561 . S
C657 C660 1.526 . S
C658 H642 0.959 1_565 S
C658 H643 0.959 . S
C658 H644 0.961 . S
C658 C657 1.502 . S
C659 H645 0.960 . S
C659 H646 0.961 . S
C659 H647 0.959 . S
C659 C657 1.561 . S
C660 C657 1.526 . S
C660 C661 1.396 1_565 S
C660 C665 1.390 . S
C661 C655 1.466 . S
C661 C660 1.396 1_545 S
C661 C662 1.399 . S
C662 H648 0.929 1_556 S
C662 C661 1.399 . S
C662 C663 1.385 . S
C663 H649 0.931 . S
C663 C662 1.385 . S
C663 C664 1.389 . S
C664 C663 1.389 . S
C664 C665 1.387 1_545 S
C665 H650 0.930 . S
C665 C660 1.390 . S
C665 C664 1.387 1_565 S
H666 C678 0.930 1_554 S
H667 C680 0.930 . S
H668 C681 0.930 . S
H669 C685 0.959 . S
H670 C685 0.959 . S
H671 C685 0.961 . S
H672 C686 0.960 . S
H673 C686 0.963 . S
H674 C686 0.959 . S
H675 C689 0.929 . S
H676 C690 0.931 . S
H677 C692 0.930 . S
C678 H666 0.930 1_556 S
C678 C679 1.399 1_556 S
C678 C683 1.399 . S
C679 C678 1.399 1_554 S
C679 C680 1.376 . S
C680 H667 0.930 . S
C680 C679 1.376 . S
C680 C681 1.388 1_554 S
C681 H668 0.930 . S
C681 C680 1.388 1_556 S
C681 C682 1.390 . S
C682 C681 1.390 . S
C682 C683 1.394 . S
C682 C688 1.465 . S
C683 C678 1.399 . S
C683 C682 1.394 . S
C683 C684 1.516 . S
C684 C683 1.516 . S
C684 C685 1.502 . S
C684 C686 1.561 1_556 S
C684 C687 1.526 . S
C685 H669 0.959 . S
C685 H670 0.959 . S
C685 H671 0.961 . S
C685 C684 1.502 . S
C686 H672 0.960 . S
C686 H673 0.963 . S
C686 H674 0.959 . S
C686 C684 1.561 1_554 S
C687 C684 1.526 . S
C687 C688 1.396 . S
C687 C692 1.390 . S
C688 C682 1.465 . S
C688 C687 1.396 . S
C688 C689 1.399 . S
C689 H675 0.929 . S
C689 C688 1.399 . S
C689 C690 1.385 . S
C690 H676 0.931 . S
C690 C689 1.385 . S
C690 C691 1.389 . S
C691 C690 1.389 . S
C691 C692 1.387 . S
C692 H677 0.930 . S
C692 C687 1.390 . S
C692 C691 1.387 . S
H693 C705 0.930 . S
H694 C707 0.930 . S
H695 C708 0.930 . S
H696 C712 0.959 1_554 S
H697 C712 0.959 . S
H698 C712 0.961 1_554 S
H699 C713 0.960 . S
H700 C713 0.961 . S
H701 C713 0.959 . S
H702 C716 0.929 . S
H703 C717 0.931 . S
H704 C719 0.930 . S
C705 H693 0.930 . S
C705 C706 1.399 . S
C705 C710 1.399 1_554 S
C706 C705 1.399 . S
C706 C707 1.376 . S
C707 H694 0.930 . S
C707 C706 1.376 . S
C707 C708 1.388 . S
C708 H695 0.930 . S
C708 C707 1.388 . S
C708 C709 1.390 1_554 S
C709 C708 1.390 1_556 S
C709 C710 1.394 . S
C709 C715 1.465 . S
C710 C705 1.399 1_556 S
C710 C709 1.394 . S
C710 C711 1.516 . S
C711 C710 1.516 . S
C711 C712 1.502 . S
C711 C713 1.561 . S
C711 C714 1.526 . S
C712 H696 0.959 1_556 S
C712 H697 0.959 . S
C712 H698 0.961 1_556 S
C712 C711 1.502 . S
C713 H699 0.960 . S
C713 H700 0.961 . S
C713 H701 0.959 . S
C713 C711 1.561 . S
C714 C711 1.526 . S
C714 C715 1.396 . S
C714 C719 1.390 . S
C715 C709 1.465 . S
C715 C714 1.396 . S
C715 C716 1.399 . S
C716 H702 0.929 . S
C716 C715 1.399 . S
C716 C717 1.385 . S
C717 H703 0.931 . S
C717 C716 1.385 . S
C717 C718 1.389 . S
C718 C717 1.389 . S
C718 C719 1.387 . S
C719 H704 0.930 . S
C719 C714 1.390 . S
C719 C718 1.387 . S
H720 C732 0.930 . S
H721 C734 0.930 . S
H722 C735 0.930 . S
H723 C739 0.959 1_655 S
H724 C739 0.959 . S
H725 C739 0.961 . S
H726 C740 0.960 . S
H727 C740 0.961 . S
H728 C740 0.959 . S
H729 C743 0.929 . S
H730 C744 0.931 . S
H731 C746 0.930 . S
C732 H720 0.930 . S
C732 C733 1.399 . S
C732 C737 1.399 . S
C733 C732 1.399 . S
C733 C734 1.376 . S
C734 H721 0.930 . S
C734 C733 1.376 . S
C734 C735 1.388 . S
C735 H722 0.930 . S
C735 C734 1.388 . S
C735 C736 1.390 . S
C736 C735 1.390 . S
C736 C737 1.394 . S
C736 C742 1.465 . S
C737 C732 1.399 . S
C737 C736 1.394 . S
C737 C738 1.516 . S
C738 C737 1.516 . S
C738 C739 1.502 . S
C738 C740 1.561 . S
C738 C741 1.526 . S
C739 H723 0.959 1_455 S
C739 H724 0.959 . S
C739 H725 0.961 . S
C739 C738 1.502 . S
C740 H726 0.960 . S
C740 H727 0.961 . S
C740 H728 0.959 . S
C740 C738 1.561 . S
C741 C738 1.526 . S
C741 C742 1.396 . S
C741 C746 1.390 . S
C742 C736 1.465 . S
C742 C741 1.396 . S
C742 C743 1.399 . S
C743 H729 0.929 . S
C743 C742 1.399 . S
C743 C744 1.385 . S
C744 H730 0.931 . S
C744 C743 1.385 . S
C744 C745 1.389 . S
C745 C744 1.389 . S
C745 C746 1.387 . S
C746 H731 0.930 . S
C746 C741 1.390 . S
C746 C745 1.387 . S
H747 C759 0.930 . S
H748 C761 0.930 . S
H749 C762 0.930 . S
H750 C766 0.959 . S
H751 C766 0.959 . S
H752 C766 0.961 . S
H753 C767 0.960 . S
H754 C767 0.961 . S
H755 C767 0.959 . S
H756 C770 0.929 . S
H757 C771 0.931 . S
H758 C773 0.930 . S
C759 H747 0.930 . S
C759 C760 1.399 . S
C759 C764 1.399 . S
C760 C759 1.399 . S
C760 C761 1.376 1_545 S
C761 H748 0.930 . S
C761 C760 1.376 1_565 S
C761 C762 1.388 . S
C762 H749 0.930 . S
C762 C761 1.388 . S
C762 C763 1.392 1_565 S
C763 C762 1.392 1_545 S
C763 C764 1.391 . S
C763 C769 1.463 1_545 S
C764 C759 1.399 . S
C764 C763 1.391 . S
C764 C765 1.516 . S
C765 C764 1.516 . S
C765 C766 1.502 1_554 S
C765 C767 1.561 . S
C765 C768 1.526 . S
C766 H750 0.959 . S
C766 H751 0.959 . S
C766 H752 0.961 . S
C766 C765 1.502 1_556 S
C767 H753 0.960 . S
C767 H754 0.961 . S
C767 H755 0.959 . S
C767 C765 1.561 . S
C768 C765 1.526 . S
C768 C769 1.359 1_545 S
C768 C773 1.390 1_554 S
C769 C763 1.463 1_565 S
C769 C768 1.359 1_565 S
C769 C770 1.432 . S
C770 H756 0.929 . S
C770 C769 1.432 . S
C770 C771 1.385 1_554 S
C771 H757 0.931 . S
C771 C770 1.385 1_556 S
C771 C772 1.389 1_565 S
C772 C771 1.389 1_545 S
C772 C773 1.387 . S
C773 H758 0.930 . S
C773 C768 1.390 1_556 S
C773 C772 1.387 . S
H774 C786 0.930 . S
H775 C788 0.930 . S
H776 C789 0.930 . S
H777 C793 0.959 . S
H778 C793 0.959 . S
H779 C793 0.961 . S
H780 C794 0.960 . S
H781 C794 0.961 . S
H782 C794 0.959 . S
H783 C797 0.929 . S
H784 C798 0.931 . S
H785 C800 0.930 1_554 S
C786 H774 0.930 . S
C786 C787 1.399 . S
C786 C791 1.399 . S
C787 C786 1.399 . S
C787 C788 1.376 . S
C788 H775 0.930 . S
C788 C787 1.376 . S
C788 C789 1.388 . S
C789 H776 0.930 . S
C789 C788 1.388 . S
C789 C790 1.390 . S
C790 C789 1.390 . S
C790 C791 1.394 . S
C790 C796 1.465 1_554 S
C791 C786 1.399 . S
C791 C790 1.394 . S
C791 C792 1.516 . S
C792 C791 1.516 . S
C792 C793 1.502 . S
C792 C794 1.561 . S
C792 C795 1.526 . S
C793 H777 0.959 . S
C793 H778 0.959 . S
C793 H779 0.961 . S
C793 C792 1.502 . S
C794 H780 0.960 . S
C794 H781 0.961 . S
C794 H782 0.959 . S
C794 C792 1.561 . S
C795 C792 1.526 . S
C795 C796 1.396 1_554 S
C795 C800 1.390 1_554 S
C796 C790 1.465 1_556 S
C796 C795 1.396 1_556 S
C796 C797 1.399 . S
C797 H783 0.929 . S
C797 C796 1.399 . S
C797 C798 1.385 . S
C798 H784 0.931 . S
C798 C797 1.385 . S
C798 C799 1.389 . S
C799 C798 1.389 . S
C799 C800 1.387 . S
C800 H785 0.930 1_556 S
C800 C795 1.390 1_556 S
C800 C799 1.387 . S
H801 C813 0.930 . S
H802 C815 0.930 . S
H803 C816 0.930 . S
H804 C820 0.959 . S
H805 C820 0.959 . S
H806 C820 0.961 . S
H807 C821 0.960 . S
H808 C821 0.961 . S
H809 C821 0.959 1_556 S
H810 C824 0.929 . S
H811 C825 0.931 . S
H812 C827 0.930 . S
C813 H801 0.930 . S
C813 C814 1.399 . S
C813 C818 1.399 . S
C814 C813 1.399 . S
C814 C815 1.376 . S
C815 H802 0.930 . S
C815 C814 1.376 . S
C815 C816 1.388 . S
C816 H803 0.930 . S
C816 C815 1.388 . S
C816 C817 1.390 . S
C817 C816 1.390 . S
C817 C818 1.394 . S
C817 C823 1.465 1_554 S
C818 C813 1.399 . S
C818 C817 1.394 . S
C818 C819 1.516 . S
C819 C818 1.516 . S
C819 C820 1.502 . S
C819 C821 1.561 . S
C819 C822 1.526 1_554 S
C820 H804 0.959 . S
C820 H805 0.959 . S
C820 H806 0.961 . S
C820 C819 1.502 . S
C821 H807 0.960 . S
C821 H808 0.961 . S
C821 H809 0.959 1_554 S
C821 C819 1.561 . S
C822 C819 1.526 1_556 S
C822 C823 1.396 . S
C822 C827 1.390 . S
C823 C817 1.465 1_556 S
C823 C822 1.396 . S
C823 C824 1.399 . S
C824 H810 0.929 . S
C824 C823 1.399 . S
C824 C825 1.385 . S
C825 H811 0.931 . S
C825 C824 1.385 . S
C825 C826 1.389 . S
C826 C825 1.389 . S
C826 C827 1.387 . S
C827 H812 0.930 . S
C827 C822 1.390 . S
C827 C826 1.387 . S
H828 C840 0.930 . S
H829 C842 0.930 . S
H830 C843 0.930 . S
H831 C847 0.959 . S
H832 C847 0.959 . S
H833 C847 0.961 . S
H834 C848 0.960 . S
H835 C848 0.961 . S
H836 C848 0.959 . S
H837 C851 0.929 . S
H838 C852 0.931 . S
H839 C854 0.930 . S
C840 H828 0.930 . S
C840 C841 1.399 . S
C840 C845 1.399 . S
C841 C840 1.399 . S
C841 C842 1.376 . S
C842 H829 0.930 . S
C842 C841 1.376 . S
C842 C843 1.388 . S
C843 H830 0.930 . S
C843 C842 1.388 . S
C843 C844 1.390 . S
C844 C843 1.390 . S
C844 C845 1.394 . S
C844 C850 1.465 . S
C845 C840 1.399 . S
C845 C844 1.394 . S
C845 C846 1.516 . S
C846 C845 1.516 . S
C846 C847 1.502 1_655 S
C846 C848 1.561 . S
C846 C849 1.526 . S
C847 H831 0.959 . S
C847 H832 0.959 . S
C847 H833 0.961 . S
C847 C846 1.502 1_455 S
C848 H834 0.960 . S
C848 H835 0.961 . S
C848 H836 0.959 . S
C848 C846 1.561 . S
C849 C846 1.526 . S
C849 C850 1.396 . S
C849 C854 1.390 . S
C850 C844 1.465 . S
C850 C849 1.396 . S
C850 C851 1.399 . S
C851 H837 0.929 . S
C851 C850 1.399 . S
C851 C852 1.385 . S
C852 H838 0.931 . S
C852 C851 1.385 . S
C852 C853 1.389 . S
C853 C852 1.389 . S
C853 C854 1.387 . S
C854 H839 0.930 . S
C854 C849 1.390 . S
C854 C853 1.387 . S
H855 C867 0.930 . S
H856 C869 0.930 . S
H857 C870 0.930 . S
H858 C874 0.959 . S
H859 C874 0.959 . S
H860 C874 0.961 . S
H861 C875 0.960 . S
H862 C875 0.961 . S
H863 C875 0.959 . S
H864 C878 0.929 . S
H865 C879 0.931 . S
H866 C881 0.930 . S
C867 H855 0.930 . S
C867 C868 1.399 1_545 S
C867 C872 1.399 . S
C868 C867 1.399 1_565 S
C868 C869 1.376 . S
C869 H856 0.930 . S
C869 C868 1.376 . S
C869 C870 1.388 . S
C870 H857 0.930 . S
C870 C869 1.388 . S
C870 C871 1.390 . S
C871 C870 1.390 . S
C871 C872 1.394 1_565 S
C871 C877 1.465 . S
C872 C867 1.399 . S
C872 C871 1.394 1_545 S
C872 C873 1.516 . S
C873 C872 1.516 . S
C873 C874 1.502 . S
C873 C875 1.561 . S
C873 C876 1.526 . S
C874 H858 0.959 . S
C874 H859 0.959 . S
C874 H860 0.961 . S
C874 C873 1.502 . S
C875 H861 0.960 . S
C875 H862 0.961 . S
C875 H863 0.959 . S
C875 C873 1.561 . S
C876 C873 1.526 . S
C876 C877 1.396 1_545 S
C876 C881 1.390 . S
C877 C871 1.465 . S
C877 C876 1.396 1_565 S
C877 C878 1.399 . S
C878 H864 0.929 . S
C878 C877 1.399 . S
C878 C879 1.385 . S
C879 H865 0.931 . S
C879 C878 1.385 . S
C879 C880 1.389 . S
C880 C879 1.389 . S
C880 C881 1.387 1_565 S
C881 H866 0.930 . S
C881 C876 1.390 . S
C881 C880 1.387 1_545 S
H882 C894 0.930 . S
H883 C896 0.930 . S
H884 C897 0.930 . S
H885 C901 0.959 . S
H886 C901 0.959 . S
H887 C901 0.961 . S
H888 C902 0.960 . S
H889 C902 0.961 . S
H890 C902 0.959 . S
H891 C905 0.929 . S
H892 C906 0.931 . S
H893 C908 0.930 . S
C894 H882 0.930 . S
C894 C895 1.399 . S
C894 C899 1.399 . S
C895 C894 1.399 . S
C895 C896 1.376 . S
C896 H883 0.930 . S
C896 C895 1.376 . S
C896 C897 1.388 . S
C897 H884 0.930 . S
C897 C896 1.388 . S
C897 C898 1.390 . S
C898 C897 1.390 . S
C898 C899 1.394 . S
C898 C904 1.465 . S
C899 C894 1.399 . S
C899 C898 1.394 . S
C899 C900 1.516 . S
C900 C899 1.516 . S
C900 C901 1.502 . S
C900 C902 1.561 . S
C900 C903 1.526 . S
C901 H885 0.959 . S
C901 H886 0.959 . S
C901 H887 0.961 . S
C901 C900 1.502 . S
C902 H888 0.960 . S
C902 H889 0.961 . S
C902 H890 0.959 . S
C902 C900 1.561 . S
C903 C900 1.526 . S
C903 C904 1.396 . S
C903 C908 1.390 . S
C904 C898 1.465 . S
C904 C903 1.396 . S
C904 C905 1.399 . S
C905 H891 0.929 . S
C905 C904 1.399 . S
C905 C906 1.385 . S
C906 H892 0.931 . S
C906 C905 1.385 . S
C906 C907 1.389 . S
C907 C906 1.389 . S
C907 C908 1.387 . S
C908 H893 0.930 . S
C908 C903 1.390 . S
C908 C907 1.387 . S
H909 C921 0.930 . S
H910 C923 0.930 . S
H911 C924 0.930 . S
H912 C928 0.959 . S
H913 C928 0.959 . S
H914 C928 0.961 . S
H915 C929 0.960 . S
H916 C929 0.961 . S
H917 C929 0.959 . S
H918 C932 0.929 . S
H919 C933 0.931 . S
H920 C935 0.930 . S
C921 H909 0.930 . S
C921 C922 1.399 . S
C921 C926 1.399 . S
C922 C921 1.399 . S
C922 C923 1.376 . S
C923 H910 0.930 . S
C923 C922 1.376 . S
C923 C924 1.388 . S
C924 H911 0.930 . S
C924 C923 1.388 . S
C924 C925 1.390 . S
C925 C924 1.390 . S
C925 C926 1.394 . S
C925 C931 1.465 . S
C926 C921 1.399 . S
C926 C925 1.394 . S
C926 C927 1.516 . S
C927 C926 1.516 . S
C927 C928 1.502 . S
C927 C929 1.561 . S
C927 C930 1.526 . S
C928 H912 0.959 . S
C928 H913 0.959 . S
C928 H914 0.961 . S
C928 C927 1.502 . S
C929 H915 0.960 . S
C929 H916 0.961 . S
C929 H917 0.959 . S
C929 C927 1.561 . S
C930 C927 1.526 . S
C930 C931 1.396 . S
C930 C935 1.390 . S
C931 C925 1.465 . S
C931 C930 1.396 . S
C931 C932 1.399 . S
C932 H918 0.929 . S
C932 C931 1.399 . S
C932 C933 1.385 . S
C933 H919 0.931 . S
C933 C932 1.385 . S
C933 C934 1.389 . S
C934 C933 1.389 . S
C934 C935 1.387 . S
C935 H920 0.930 . S
C935 C930 1.390 . S
C935 C934 1.387 . S
C301 C125 1.822 . S
C313 C169 1.907 . S
C340 C190 1.551 . S
C328 C144 1.447 . S
C367 C224 1.360 . S
C355 C87 1.295 . S
C394 C258 1.519 . S
C382 C106 1.425 . S
C421 C160 1.893 1_565 S
C409 C49 1.775 1_556 S
C436 C68 1.462 1_556 S
C448 C199 1.555 . S
C463 C11 1.392 . S
C475 C233 1.394 . S
C490 C30 1.459 . S
C502 C267 1.537 . S
C529 C181 0.682 . S
C517 C97 0.568 . S
C556 C186 1.120 . S
C544 C116 1.055 . S
C583 C220 1.000 . S
C571 C135 1.040 . S
C598 C78 0.441 . S
C610 C254 0.517 . S
C625 C21 0.539 . S
C637 C152 0.682 . S
C664 C215 1.134 . S
C652 C40 1.030 . S
C691 C249 1.043 . S
C679 C59 0.973 . S
C706 C2 0.552 . S
C718 C283 0.460 . S
C733 C101 1.271 . S
C745 C165 1.343 . S
C760 C120 1.697 . S
C772 C194 1.751 . S
C799 C228 1.552 . S
C787 C139 1.553 . S
C826 C262 1.651 . S
C814 C82 1.639 . S
C841 C25 1.333 . S
C853 C156 1.302 . S
C880 C203 1.753 . S
C868 C44 1.698 . S
C907 C237 1.553 . S
C895 C63 1.559 . S
C922 C6 1.600 . S
C934 C271 1.653 . S
