# Generated by pormake.
# Topology zzz, (3,6)-cn, num edge types: 1
# Building blocks:
#     Node 0, Type 0, BuildingBlock: BETDIP_clean_linker_0, # of connection points: 3
#     Node 1, Type 0, BuildingBlock: BETDIP_clean_linker_0, # of connection points: 3
#     Node 2, Type 0, BuildingBlock: BETDIP_clean_linker_0, # of connection points: 3
#     Node 3, Type 0, BuildingBlock: BETDIP_clean_linker_0, # of connection points: 3
#     Node 4, Type 0, BuildingBlock: BETDIP_clean_linker_0, # of connection points: 3
#     Node 5, Type 0, BuildingBlock: BETDIP_clean_linker_0, # of connection points: 3
#     Node 6, Type 0, BuildingBlock: BETDIP_clean_linker_0, # of connection points: 3
#     Node 7, Type 0, BuildingBlock: BETDIP_clean_linker_0, # of connection points: 3
#     Node 8, Type 1, BuildingBlock: GEDQOX_clean_sbu_0, # of connection points: 6
#     Node 9, Type 1, BuildingBlock: GEDQOX_clean_sbu_0, # of connection points: 6
#     Node 10, Type 1, BuildingBlock: GEDQOX_clean_sbu_0, # of connection points: 6
#     Node 11, Type 1, BuildingBlock: GEDQOX_clean_sbu_0, # of connection points: 6
#     Edge 12, Type (0, 1), BuildingBlock: ZUJKAS_clean_linker_0, # of connection points: 2
#     Edge 13, Type (0, 1), BuildingBlock: ZUJKAS_clean_linker_0, # of connection points: 2
#     Edge 14, Type (0, 1), BuildingBlock: ZUJKAS_clean_linker_0, # of connection points: 2
#     Edge 15, Type (0, 1), BuildingBlock: ZUJKAS_clean_linker_0, # of connection points: 2
#     Edge 16, Type (0, 1), BuildingBlock: ZUJKAS_clean_linker_0, # of connection points: 2
#     Edge 17, Type (0, 1), BuildingBlock: ZUJKAS_clean_linker_0, # of connection points: 2
#     Edge 18, Type (0, 1), BuildingBlock: ZUJKAS_clean_linker_0, # of connection points: 2
#     Edge 19, Type (0, 1), BuildingBlock: ZUJKAS_clean_linker_0, # of connection points: 2
#     Edge 20, Type (0, 1), BuildingBlock: ZUJKAS_clean_linker_0, # of connection points: 2
#     Edge 21, Type (0, 1), BuildingBlock: ZUJKAS_clean_linker_0, # of connection points: 2
#     Edge 22, Type (0, 1), BuildingBlock: ZUJKAS_clean_linker_0, # of connection points: 2
#     Edge 23, Type (0, 1), BuildingBlock: ZUJKAS_clean_linker_0, # of connection points: 2
#     Edge 24, Type (0, 1), BuildingBlock: ZUJKAS_clean_linker_0, # of connection points: 2
#     Edge 25, Type (0, 1), BuildingBlock: ZUJKAS_clean_linker_0, # of connection points: 2
#     Edge 26, Type (0, 1), BuildingBlock: ZUJKAS_clean_linker_0, # of connection points: 2
#     Edge 27, Type (0, 1), BuildingBlock: ZUJKAS_clean_linker_0, # of connection points: 2
#     Edge 28, Type (0, 1), BuildingBlock: ZUJKAS_clean_linker_0, # of connection points: 2
#     Edge 29, Type (0, 1), BuildingBlock: ZUJKAS_clean_linker_0, # of connection points: 2
#     Edge 30, Type (0, 1), BuildingBlock: ZUJKAS_clean_linker_0, # of connection points: 2
#     Edge 31, Type (0, 1), BuildingBlock: ZUJKAS_clean_linker_0, # of connection points: 2
#     Edge 32, Type (0, 1), BuildingBlock: ZUJKAS_clean_linker_0, # of connection points: 2
#     Edge 33, Type (0, 1), BuildingBlock: ZUJKAS_clean_linker_0, # of connection points: 2
#     Edge 34, Type (0, 1), BuildingBlock: ZUJKAS_clean_linker_0, # of connection points: 2
#     Edge 35, Type (0, 1), BuildingBlock: ZUJKAS_clean_linker_0, # of connection points: 2
# Relax obj value: 0.121
# Max RMSD: 0.169
# Mean RMSD: 0.091
data_MOF--net-zzz--node1-GEDQOX_clean_sbu_0--node2-BETDIP_clean_linker_0--edge1-ZUJKAS_clean_linker_0
_symmetry_space_group_name_H-M    P1
_symmetry_Int_Tables_number       1
_symmetry_cell_setting            triclinic
loop_
_symmetry_equiv_pos_as_xyz
'x, y, z'
_cell_length_a     70.243094
_cell_length_b     69.78913
_cell_length_c     21.154532
_cell_angle_alpha  81.196906
_cell_angle_beta   88.928603
_cell_angle_gamma 98.031933
loop_
_atom_site_label
_atom_site_type_symbol
_atom_site_fract_x
_atom_site_fract_y
_atom_site_fract_z
_atom_type_partial_charge
H0 H 0.76217 0.55667 0.23162 0.0
H1 H 0.76254 0.52871 0.06308 0.0
H2 H 0.81256 0.5337 0.17525 0.0
H3 H 0.74215 0.55249 0.03247 0.0
C4 C 0.73266 0.54916 0.07511 0.0
C5 C 0.76953 0.54924 0.19928 0.0
C6 C 0.78873 0.54632 0.20915 0.0
C7 C 0.76005 0.54332 0.14594 0.0
C8 C 0.76971 0.53376 0.10362 0.0
C9 C 0.78854 0.53014 0.1149 0.0
C10 C 0.7979 0.53645 0.16728 0.0
N11 N 0.74073 0.5467 0.13649 0.0
H12 H 1.00013 0.74883 0.33148 0.0
H13 H 0.02672 0.76806 0.14184 0.0
H14 H 0.02439 0.8091 0.27198 0.0
H15 H 0.004 0.74311 0.12035 0.0
C16 C 0.00633 0.73151 0.15868 0.0
C17 C 0.00768 0.76024 0.2956 0.0
C18 C 0.01185 0.77959 0.30883 0.0
C19 C 0.01291 0.75578 0.23501 0.0
C20 C 0.02242 0.771 0.1884 0.0
C21 C 0.02679 0.79012 0.20213 0.0
C22 C 0.02156 0.79416 0.26219 0.0
N23 N 0.00876 0.7361 0.22192 0.0
H24 H 0.75032 0.95716 0.28335 0.0
H25 H 0.7436 0.97739 0.08291 0.0
H26 H 0.69478 0.96718 0.21438 0.0
H27 H 0.76714 0.95684 0.07631 0.0
C28 C 0.77682 0.96242 0.11091 0.0
C29 C 0.74125 0.9614 0.24429 0.0
C30 C 0.72145 0.96115 0.25621 0.0
C31 C 0.74925 0.96653 0.18149 0.0
C32 C 0.7375 0.97257 0.13106 0.0
C33 C 0.71782 0.97258 0.1428 0.0
C34 C 0.70994 0.96668 0.20513 0.0
N35 N 0.76915 0.96588 0.17017 0.0
H36 H 0.50319 0.76726 0.45942 0.0
H37 H 0.47969 0.77017 0.27222 0.0
H38 H 0.47438 0.7151 0.39891 0.0
H39 H 0.51518 0.79096 0.26281 0.0
C40 C 0.50827 0.80007 0.29083 0.0
C41 C 0.49529 0.76015 0.42384 0.0
C42 C 0.48871 0.73993 0.43628 0.0
C43 C 0.49219 0.77105 0.36428 0.0
C44 C 0.48225 0.76167 0.31778 0.0
C45 C 0.47546 0.74152 0.33005 0.0
C46 C 0.47875 0.73083 0.38961 0.0
N47 N 0.49912 0.79141 0.35095 0.0
H48 H 0.26066 0.49347 0.47759 0.0
H49 H 0.24895 0.50307 0.67061 0.0
H50 H 0.20371 0.5007 0.53773 0.0
H51 H 0.27966 0.51593 0.66451 0.0
C52 C 0.28704 0.50729 0.63616 0.0
C53 C 0.25073 0.49588 0.51442 0.0
C54 C 0.23134 0.49673 0.5009 0.0
C55 C 0.25748 0.49889 0.57487 0.0
C56 C 0.24434 0.50172 0.62282 0.0
C57 C 0.22488 0.50217 0.60986 0.0
C58 C 0.21865 0.49993 0.54861 0.0
N59 N 0.27742 0.49887 0.58613 0.0
H60 H 0.0125 0.29066 0.39219 0.0
H61 H 0.00163 0.27184 0.59603 0.0
H62 H 0.01029 0.23001 0.47391 0.0
H63 H 0.98447 0.29781 0.58177 0.0
C64 C 0.99521 0.30892 0.55478 0.0
C65 C 0.01061 0.27922 0.43356 0.0
C66 C 0.01193 0.25966 0.42603 0.0
C67 C 0.00666 0.2839 0.49499 0.0
C68 C 0.0042 0.2687 0.54831 0.0
C69 C 0.00574 0.24938 0.54066 0.0
C70 C 0.00954 0.24508 0.47979 0.0
N71 N 0.00578 0.30381 0.5029 0.0
H72 H 0.2625 0.07413 0.44431 0.0
H73 H 0.27167 0.05912 0.64617 0.0
H74 H 0.31759 0.06088 0.50817 0.0
H75 H 0.24848 0.07936 0.65217 0.0
C76 C 0.23837 0.07377 0.61879 0.0
C77 C 0.27185 0.07022 0.48288 0.0
C78 C 0.29088 0.06771 0.4689 0.0
C79 C 0.26482 0.06747 0.54684 0.0
C80 C 0.27696 0.06192 0.59675 0.0
C81 C 0.29607 0.05984 0.58282 0.0
C82 C 0.30286 0.06273 0.51902 0.0
N83 N 0.24532 0.06957 0.55958 0.0
H84 H 0.52284 0.26899 0.25277 0.0
H85 H 0.5448 0.26626 0.4427 0.0
H86 H 0.5292 0.32004 0.34601 0.0
H87 H 0.56196 0.24374 0.39785 0.0
C88 C 0.54869 0.23517 0.38636 0.0
C89 C 0.52692 0.27598 0.29383 0.0
C90 C 0.52506 0.29582 0.29331 0.0
C91 C 0.53416 0.26518 0.34753 0.0
C92 C 0.53958 0.27444 0.40048 0.0
C93 C 0.53761 0.29412 0.40031 0.0
C94 C 0.53027 0.30464 0.34684 0.0
N95 N 0.53517 0.24488 0.34914 0.0
Nd96 Nd 1.00013 0.01016 0.81211 0.0
Nd97 Nd 0.01581 0.02627 0.93069 0.0
C98 C 0.98362 0.98718 0.73323 0.0
C99 C 0.98565 0.96833 0.71109 0.0
C100 C 0.96912 0.95565 0.70026 0.0
C101 C 0.97061 0.93816 0.67668 0.0
C102 C 0.98873 0.93289 0.663 0.0
C103 C 0.00531 0.94553 0.67505 0.0
C104 C 0.00379 0.96299 0.69891 0.0
C105 C 0.03708 0.02958 0.79595 0.0
C106 C 0.02203 0.98234 0.92095 0.0
C107 C 0.03272 0.04909 0.00941 0.0
C108 C 0.03046 0.06759 0.0332 0.0
C109 C 0.04212 0.07355 0.08175 0.0
C110 C 0.04027 0.09097 0.10516 0.0
C111 C 0.02665 0.10293 0.08066 0.0
C112 C 0.01505 0.09692 0.03148 0.0
C113 C 0.01692 0.07944 0.00813 0.0
C114 C 0.97888 0.00677 0.94662 0.0
C115 C 0.99362 0.05401 0.82196 0.0
O116 O 0.97744 0.98633 0.79249 0.0
O117 O 0.99719 1.00198 0.71511 0.0
O118 O 0.02451 0.03048 0.75181 0.0
O119 O 0.0303 0.01793 0.8453 0.0
O120 O 0.0093 0.98343 0.87579 0.0
O121 O 0.02927 0.99795 0.9456 0.0
O122 O 0.03803 0.05051 0.94902 0.0
O123 O 0.01954 0.034 0.02834 0.0
O124 O 0.99144 0.00579 0.9909 0.0
O125 O 0.98569 0.01852 0.89754 0.0
O126 O 0.0055 0.05281 0.86961 0.0
O127 O 0.98729 0.03879 0.79407 0.0
H128 H 0.95497 0.95935 0.70959 0.0
H129 H 0.95749 0.92874 0.66942 0.0
H130 H 0.01952 0.94219 0.66466 0.0
H131 H 0.01681 0.97244 0.70702 0.0
H132 H 0.05274 0.06472 0.1016 0.0
H133 H 0.04973 0.09517 0.14208 0.0
H134 H 0.00427 0.10555 0.01169 0.0
H135 H 0.00776 0.07512 0.97071 0.0
Nd136 Nd 0.50869 1.00469 0.81892 0.0
Nd137 Nd 0.50826 0.03463 0.90588 0.0
C138 C 0.51746 0.97537 0.76377 0.0
C139 C 0.5358 0.9716 0.73704 0.0
C140 C 0.5385 0.95257 0.72939 0.0
C141 C 0.55625 0.94898 0.70609 0.0
C142 C 0.57161 0.9644 0.69029 0.0
C143 C 0.56877 0.98345 0.69837 0.0
C144 C 0.55107 0.987 0.72159 0.0
C145 C 0.51002 0.04231 0.75581 0.0
C146 C 0.54959 0.02522 0.87196 0.0
C147 C 0.49943 0.06335 0.96413 0.0
C148 C 0.48109 0.06643 0.99285 0.0
C149 C 0.47896 0.08437 0.01219 0.0
C150 C 0.46134 0.08711 0.03909 0.0
C151 C 0.44557 0.07195 0.04678 0.0
C152 C 0.44781 0.0541 0.02644 0.0
C153 C 0.4654 0.05134 1.00014 0.0
C154 C 0.50728 0.99698 0.9681 0.0
C155 C 0.46744 0.0144 0.8515 0.0
O156 O 0.51662 0.97479 0.82584 0.0
O157 O 0.51022 0.99024 0.73307 0.0
O158 O 0.50005 0.02718 0.73747 0.0
O159 O 0.51939 0.0373 0.80437 0.0
O160 O 0.53985 0.00982 0.85201 0.0
O161 O 0.5408 0.03939 0.88785 0.0
O162 O 0.49993 0.0643 0.90189 0.0
O163 O 0.50703 0.04849 0.9931 0.0
O164 O 0.51748 0.01203 0.98592 0.0
O165 O 0.4976 1.00205 0.92043 0.0
O166 O 0.47723 0.0298 0.87126 0.0
O167 O 0.47618 1.00013 0.83615 0.0
H168 H 0.52694 0.94047 0.74179 0.0
H169 H 0.55801 0.9341 0.70114 0.0
H170 H 0.58014 0.99572 0.68584 0.0
H171 H 0.5493 1.0018 0.72757 0.0
H172 H 0.49093 0.09618 0.00684 0.0
H173 H 0.46019 0.10097 0.05485 0.0
H174 H 0.43593 0.04222 0.03048 0.0
H175 H 0.46675 0.03738 0.98548 0.0
Nd176 Nd 0.49338 0.51985 0.91851 0.0
Nd177 Nd 0.52362 0.51711 0.81711 0.0
C178 C 0.46324 0.52831 0.97957 0.0
C179 C 0.45781 0.54714 0.99008 0.0
C180 C 0.43966 0.54819 0.0168 0.0
C181 C 0.43476 0.56631 0.02675 0.0
C182 C 0.44793 0.58358 0.0095 0.0
C183 C 0.46599 0.58237 0.98188 0.0
C184 C 0.47089 0.56432 0.97247 0.0
C185 C 0.53071 0.52667 0.95507 0.0
C186 C 0.51037 0.55904 0.81248 0.0
C187 C 0.55347 0.5084 0.75547 0.0
C188 C 0.55715 0.4894 0.74052 0.0
C189 C 0.57491 0.48707 0.71366 0.0
C190 C 0.57793 0.46874 0.69939 0.0
C191 C 0.5632 0.45259 0.71198 0.0
C192 C 0.54564 0.45503 0.74042 0.0
C193 C 0.54262 0.47326 0.75412 0.0
C194 C 0.48638 0.51055 0.77975 0.0
C195 C 0.50657 0.47779 0.9233 0.0
O196 O 0.46306 0.5253 0.92007 0.0
O197 O 0.4786 0.52349 0.00839 0.0
O198 O 0.5167 0.51729 0.99351 0.0
O199 O 0.52462 0.53291 0.90134 0.0
O200 O 0.49574 0.54944 0.85005 0.0
O201 O 0.52524 0.55043 0.79955 0.0
O202 O 0.55332 0.5098 0.81643 0.0
O203 O 0.53902 0.51533 0.72637 0.0
O204 O 0.50054 0.51977 0.74175 0.0
O205 O 0.4923 0.50414 0.83367 0.0
O206 O 0.52092 0.4872 0.88413 0.0
O207 O 0.49204 0.48659 0.93825 0.0
H208 H 0.42937 0.53504 0.03032 0.0
H209 H 0.42073 0.56682 0.04798 0.0
H210 H 0.47661 0.59531 0.96929 0.0
H211 H 0.48503 0.56376 0.95217 0.0
H212 H 0.5863 0.49941 0.70316 0.0
H213 H 0.59156 0.46731 0.67714 0.0
H214 H 0.53414 0.44283 0.75187 0.0
H215 H 0.52882 0.47479 0.775 0.0
Nd216 Nd 0.00646 0.53243 0.8111 0.0
Nd217 Nd 0.00974 0.50547 0.92892 0.0
C218 C 0.99469 0.5588 0.72262 0.0
C219 C 0.97651 0.55955 0.68946 0.0
C220 C 0.97058 0.57764 0.66689 0.0
C221 C 0.95303 0.57835 0.63687 0.0
C222 C 0.94123 0.56096 0.62866 0.0
C223 C 0.94718 0.54287 0.65194 0.0
C224 C 0.9646 0.54217 0.68241 0.0
C225 C 0.01093 0.49533 0.78822 0.0
C226 C 0.96707 0.50747 0.88733 0.0
C227 C 0.0212 0.47928 0.01875 0.0
C228 C 0.03935 0.4789 0.05212 0.0
C229 C 0.04421 0.46124 0.08406 0.0
C230 C 0.062 0.46086 0.11274 0.0
C231 C 0.07527 0.47813 0.10954 0.0
C232 C 0.07022 0.49579 0.07739 0.0
C233 C 0.05243 0.49616 0.04926 0.0
C234 C 0.00504 0.54255 0.95101 0.0
C235 C 0.04921 0.53029 0.85225 0.0
O236 O 0.99369 0.55975 0.78376 0.0
O237 O 0.00494 0.54556 0.70942 0.0
O238 O 0.0194 0.51145 0.75446 0.0
O239 O 1.00013 0.49901 0.83208 0.0
O240 O 0.97501 0.52355 0.84971 0.0
O241 O 0.97783 0.4955 0.9185 0.0
O242 O 0.02245 0.47824 0.95769 0.0
O243 O 0.01084 0.49253 0.03106 0.0
O244 O 0.99634 0.52646 0.98435 0.0
O245 O 0.01607 0.53885 0.9078 0.0
O246 O 0.04129 0.51473 0.89226 0.0
O247 O 0.03861 0.54183 0.81828 0.0
H248 H 0.9795 0.59119 0.67254 0.0
H249 H 0.94885 0.59249 0.6191 0.0
H250 H 0.93826 0.52923 0.64711 0.0
H251 H 0.96874 0.52803 0.70061 0.0
H252 H 0.0343 0.44776 0.0865 0.0
H253 H 0.06528 0.44705 0.13779 0.0
H254 H 0.08015 0.50932 0.07292 0.0
H255 H 0.04894 0.50993 0.02453 0.0
H256 H 0.20822 0.05829 0.55225 0.0
H257 H 0.17397 0.05273 0.58478 0.0
H258 H 0.18733 0.07696 0.75707 0.0
H259 H 0.22161 0.08263 0.72472 0.0
H260 H 0.15701 0.0294 0.70006 0.0
H261 H 0.14403 0.10682 0.67971 0.0
H262 H 0.16468 0.09981 0.64174 0.0
H263 H 0.16419 0.10085 0.72605 0.0
C264 C 0.20385 0.06259 0.59677 0.0
C265 C 0.21754 0.07098 0.63595 0.0
C266 C 0.1843 0.05937 0.61532 0.0
C267 C 0.17812 0.06464 0.67295 0.0
C268 C 0.19177 0.0731 0.71192 0.0
H269 H 0.06681 0.02248 0.87368 0.0
H270 H 0.10135 0.0317 0.84693 0.0
C271 C 0.21132 0.07625 0.69353 0.0
C272 C 0.15748 0.06054 0.69351 0.0
H273 H 0.11864 0.08243 0.72629 0.0
C274 C 0.1486 0.04098 0.70582 0.0
C275 C 0.14657 0.07571 0.70059 0.0
C276 C 0.15525 0.097 0.68588 0.0
C277 C 0.1291 0.03614 0.72541 0.0
C278 C 0.11825 0.05128 0.73349 0.0
C279 C 0.12708 0.07086 0.72072 0.0
C280 C 0.09748 0.04703 0.75216 0.0
C281 C 0.12013 0.01489 0.73601 0.0
C282 C 0.08392 0.05319 0.70861 0.0
C283 C 0.06424 0.04798 0.72375 0.0
C284 C 0.0578 0.03661 0.78289 0.0
C285 C 0.07139 0.03115 0.82759 0.0
C286 C 0.09109 0.03632 0.81229 0.0
H287 H 0.12931 1.0055 0.71526 0.0
H288 H 0.11808 0.00954 0.7882 0.0
H289 H 0.10579 0.01315 0.71459 0.0
H290 H 0.08857 0.06155 0.6621 0.0
H291 H 0.05408 0.05249 0.68855 0.0
H292 H 0.57005 0.21596 0.47204 0.0
H293 H 0.56245 0.18271 0.53096 0.0
H294 H 0.50961 0.17445 0.43137 0.0
H295 H 0.51696 0.20806 0.3733 0.0
H296 H 0.50404 0.16186 0.55922 0.0
H297 H 0.56626 0.13147 0.47049 0.0
H298 H 0.5736 0.15317 0.50469 0.0
H299 H 0.55976 0.15461 0.43372 0.0
C300 C 0.55691 0.20697 0.46221 0.0
C301 C 0.54417 0.21453 0.41787 0.0
C302 C 0.55262 0.18793 0.49566 0.0
C303 C 0.53564 0.1759 0.48473 0.0
C304 C 0.52287 0.18341 0.44024 0.0
H305 H 0.49024 0.05546 0.65232 0.0
H306 H 0.49545 0.08805 0.58671 0.0
C307 C 0.5271 0.20258 0.40697 0.0
C308 C 0.53096 0.15585 0.52192 0.0
H309 H 0.54909 0.11291 0.56403 0.0
C310 C 0.51378 0.15108 0.55968 0.0
C311 C 0.54367 0.14174 0.5225 0.0
C312 C 0.56175 0.14542 0.48015 0.0
C313 C 0.50928 0.13284 0.59942 0.0
C314 C 0.52227 0.11904 0.60127 0.0
C315 C 0.53927 0.12364 0.56288 0.0
C316 C 0.51847 0.09968 0.64272 0.0
C317 C 0.49093 0.12856 0.64042 0.0
C318 C 0.52971 0.09547 0.69584 0.0
C319 C 0.52671 0.07693 0.73358 0.0
C320 C 0.51258 0.06221 0.71816 0.0
C321 C 0.50125 0.06652 0.66522 0.0
C322 C 0.50415 0.08512 0.62786 0.0
H323 H 0.48385 0.14182 0.64076 0.0
H324 H 0.48076 0.11731 0.62173 0.0
H325 H 0.49388 0.12256 0.69041 0.0
H326 H 0.54087 0.10653 0.70789 0.0
H327 H 0.53565 0.07401 0.77411 0.0
H328 H 0.30795 0.52239 0.7272 0.0
H329 H 0.34197 0.52135 0.74773 0.0
H330 H 0.34658 0.48851 0.59259 0.0
H331 H 0.31235 0.48925 0.57235 0.0
H332 H 0.36466 0.47378 0.70358 0.0
H333 H 0.38673 0.55385 0.63574 0.0
H334 H 0.36746 0.54761 0.6955 0.0
H335 H 0.36369 0.5416 0.61654 0.0
C336 C 0.31623 0.51495 0.69744 0.0
C337 C 0.30757 0.50605 0.64792 0.0
C338 C 0.33567 0.51445 0.70903 0.0
C339 C 0.34689 0.50517 0.67095 0.0
C340 C 0.33819 0.49586 0.62224 0.0
H341 H 0.47203 0.52364 0.66525 0.0
H342 H 0.4383 0.52085 0.63639 0.0
C343 C 0.31867 0.49633 0.61066 0.0
C344 C 0.36768 0.50525 0.68232 0.0
H345 H 0.40967 0.53588 0.68964 0.0
C346 C 0.37456 0.48733 0.70012 0.0
C347 C 0.38061 0.52294 0.67694 0.0
C348 C 0.37432 0.54259 0.65453 0.0
C349 C 0.39395 0.48666 0.71438 0.0
C350 C 0.40669 0.50441 0.71173 0.0
C351 C 0.39988 0.52228 0.69232 0.0
C352 C 0.42717 0.5049 0.72853 0.0
C353 C 0.40065 0.46697 0.73143 0.0
C354 C 0.43215 0.49687 0.78997 0.0
C355 C 0.45145 0.49834 0.80642 0.0
C356 C 0.46606 0.50809 0.76195 0.0
C357 C 0.46107 0.51602 0.70046 0.0
C358 C 0.44181 0.51446 0.68394 0.0
H359 H 0.39085 0.4552 0.7137 0.0
H360 H 0.41541 0.4672 0.71133 0.0
H361 H 0.40085 0.46322 0.78429 0.0
H362 H 0.42109 0.48983 0.82565 0.0
H363 H 0.45491 0.49214 0.85422 0.0
H364 H 0.02013 0.34253 0.50306 0.0
H365 H 0.02382 0.37457 0.54019 0.0
H366 H 0.9802 0.35179 0.68917 0.0
H367 H 0.97628 0.32011 0.65172 0.0
H368 H 0.97456 0.38754 0.62993 0.0
H369 H 0.05083 0.39015 0.69637 0.0
H370 H 0.04673 0.38715 0.61471 0.0
H371 H 0.0367 0.36813 0.67846 0.0
C372 C 0.01136 0.3444 0.54367 0.0
C373 C 0.99791 0.32875 0.57448 0.0
C374 C 0.01357 0.36269 0.56527 0.0
C375 C 0.00249 0.36563 0.61833 0.0
C376 C 0.98897 0.35001 0.64839 0.0
H377 H 0.9889 0.46028 0.83836 0.0
H378 H 0.98703 0.42886 0.79814 0.0
C379 C 0.98675 0.33185 0.62688 0.0
C380 C 0.00449 0.38494 0.64236 0.0
H381 H 0.03623 0.41829 0.70486 0.0
C382 C 0.98807 0.39422 0.64638 0.0
C383 C 0.02207 0.39377 0.66403 0.0
C384 C 0.04007 0.38425 0.66383 0.0
C385 C 0.98875 0.41201 0.67065 0.0
C386 C 0.00628 0.42077 0.6928 0.0
C387 C 0.02276 0.41161 0.68824 0.0
C388 C 0.00787 0.4396 0.71952 0.0
C389 C 0.97072 0.4215 0.67105 0.0
C390 C 0.02065 0.45602 0.6904 0.0
C391 C 0.02179 0.47392 0.71353 0.0
C392 C 0.01028 0.47588 0.7667 0.0
C393 C 0.99787 0.45931 0.79708 0.0
C394 C 0.9967 0.44137 0.77379 0.0
H395 H 0.96009 0.41583 0.63769 0.0
H396 H 0.96389 0.41825 0.71996 0.0
H397 H 0.97409 0.43765 0.65759 0.0
H398 H 0.02952 0.45509 0.64883 0.0
H399 H 0.03159 0.48634 0.68915 0.0
H400 H 0.80617 0.97814 0.18034 0.0
H401 H 0.84064 0.98431 0.15036 0.0
H402 H 0.82907 0.96034 0.97653 0.0
H403 H 0.79461 0.9541 0.00625 0.0
H404 H 0.86068 0.94669 0.04664 0.0
H405 H 0.8656 0.02787 0.00353 0.0
H406 H 0.85495 0.01588 0.07986 0.0
H407 H 0.84295 0.01181 0.00786 0.0
C408 C 0.81098 0.97413 0.13587 0.0
C409 C 0.79775 0.96568 0.09542 0.0
C410 C 0.83065 0.97774 0.11869 0.0
C411 C 0.83734 0.97297 0.06092 0.0
C412 C 0.82417 0.96418 0.0212 0.0
H413 H 0.94941 0.01395 0.86817 0.0
H414 H 0.91483 1.00448 0.89334 0.0
C415 C 0.80454 0.96065 0.03818 0.0
C416 C 0.85805 0.97725 0.04147 0.0
H417 H 0.89483 0.01479 0.99856 0.0
C418 C 0.86817 0.96156 0.03606 0.0
C419 C 0.86767 0.99668 0.02679 0.0
C420 C 0.85726 0.01408 0.02919 0.0
C421 C 0.88781 0.9648 0.01754 0.0
C422 C 0.89755 0.98422 0.00458 0.0
C423 C 0.88733 0.99991 0.00884 0.0
C424 C 0.91842 0.98864 0.98758 0.0
C425 C 0.89796 0.94746 0.01128 0.0
C426 C 0.93186 0.98276 0.0321 0.0
C427 C 0.95157 0.98819 0.01793 0.0
C428 C 0.95817 0.99964 0.95907 0.0
C429 C 0.94472 1.00512 0.9139 0.0
C430 C 0.92499 0.99975 0.92823 0.0
H431 H 0.88761 0.93414 0.0075 0.0
H432 H 0.90801 0.95068 0.96862 0.0
H433 H 0.90647 0.94422 0.05428 0.0
H434 H 0.92708 0.97444 0.07853 0.0
H435 H 0.96162 0.98379 0.05364 0.0
H436 H 0.48483 0.82537 0.32677 0.0
H437 H 0.48262 0.85866 0.27294 0.0
H438 H 0.52894 0.85486 0.14057 0.0
H439 H 0.53053 0.82134 0.19231 0.0
H440 H 0.5061 0.89171 0.25443 0.0
H441 H 0.4901 0.87123 0.01703 0.0
H442 H 0.49013 0.85317 0.08775 0.0
H443 H 0.51234 0.86373 0.04391 0.0
C444 C 0.49456 0.83169 0.2863 0.0
C445 C 0.50781 0.8208 0.26336 0.0
C446 C 0.49326 0.8507 0.25546 0.0
C447 C 0.50526 0.85913 0.20152 0.0
C448 C 0.51905 0.84848 0.18055 0.0
H449 H 0.53211 0.9829 0.05411 0.0
H450 H 0.53065 0.94949 0.11113 0.0
C451 C 0.52011 0.82942 0.21059 0.0
C452 C 0.50361 0.87912 0.1676 0.0
H453 H 0.50029 0.90538 0.01906 0.0
C454 C 0.50464 0.89466 0.20304 0.0
C455 C 0.50121 0.88299 0.1007 0.0
C456 C 0.49816 0.86684 0.06033 0.0
C457 C 0.50403 0.91399 0.17325 0.0
C458 C 0.50307 0.91804 0.10574 0.0
C459 C 0.50137 0.9024 0.07062 0.0
C460 C 0.50405 0.93835 0.07044 0.0
C461 C 0.50408 0.92974 0.21483 0.0
C462 C 0.49013 0.94311 0.02603 0.0
C463 C 0.49126 0.96212 0.99201 0.0
C464 C 0.50622 0.97675 0.00231 0.0
C465 C 0.52026 0.97196 0.04602 0.0
C466 C 0.51933 0.95289 0.0791 0.0
H467 H 0.49808 0.92354 0.26383 0.0
H468 H 0.51912 0.93661 0.21938 0.0
H469 H 0.4956 0.9413 0.19412 0.0
H470 H 0.4783 0.93213 0.01797 0.0
H471 H 0.48029 0.96543 0.95835 0.0
H472 H 0.70347 0.53776 0.16778 0.0
H473 H 0.66875 0.53367 0.15134 0.0
H474 H 0.67983 0.55336 0.9489 0.0
H475 H 0.71447 0.55699 0.96486 0.0
H476 H 0.64491 0.55976 0.10206 0.0
H477 H 0.64538 0.50176 0.95034 0.0
H478 H 0.66574 0.50948 0.99577 0.0
H479 H 0.66161 0.52356 0.91989 0.0
C480 C 0.69848 0.54123 0.11982 0.0
C481 C 0.71164 0.54758 0.06741 0.0
C482 C 0.67865 0.53888 0.11049 0.0
C483 C 0.67169 0.54281 0.0487 0.0
C484 C 0.68485 0.54973 0.99674 0.0
H485 H 0.56139 0.54479 0.87736 0.0
H486 H 0.5954 0.54873 0.90347 0.0
C487 C 0.70463 0.55194 0.00596 0.0
C488 C 0.6507 0.53979 0.03831 0.0
H489 H 0.61662 0.51627 0.95273 0.0
C490 C 0.63869 0.55011 0.06988 0.0
C491 C 0.64258 0.52712 0.99651 0.0
C492 C 0.65446 0.51469 0.96419 0.0
C493 C 0.61888 0.54857 0.05919 0.0
C494 C 0.61092 0.5363 0.01617 0.0
C495 C 0.62284 0.52577 0.98536 0.0
C496 C 0.59026 0.53438 0.00162 0.0
C497 C 0.60666 0.56043 0.09257 0.0
C498 C 0.57614 0.52491 0.04815 0.0
C499 C 0.55671 0.52252 0.03323 0.0
C500 C 0.55113 0.5296 0.97159 0.0
C501 C 0.56529 0.53919 0.92527 0.0
C502 C 0.5847 0.54145 0.94007 0.0
H503 H 0.61552 0.57171 0.11554 0.0
H504 H 0.5972 0.56778 0.05818 0.0
H505 H 0.59729 0.55051 0.13023 0.0
H506 H 0.58019 0.51913 0.09568 0.0
H507 H 0.54609 0.51501 0.06975 0.0
H508 H 0.01256 0.69706 0.23584 0.0
H509 H 0.01261 0.66466 0.20326 0.0
H510 H 1.0 0.6885 0.01089 0.0
H511 H 0.99979 0.72063 0.04318 0.0
H512 H 0.97726 0.6534 0.05388 0.0
H513 H 0.05408 0.6469 0.09549 0.0
H514 H 0.04056 0.65137 0.16338 0.0
H515 H 0.04464 0.66976 0.09327 0.0
C516 C 0.00979 0.69536 0.18668 0.0
C517 C 0.00616 0.71144 0.14206 0.0
C518 C 0.00996 0.67685 0.16792 0.0
C519 C 0.00655 0.67409 0.10423 0.0
C520 C 0.00273 0.69015 0.06016 0.0
H521 H 0.02758 0.57752 0.90297 0.0
H522 H 0.02791 0.60935 0.93984 0.0
C523 C 0.00261 0.70855 0.07874 0.0
C524 C 0.00655 0.65456 0.08295 0.0
H525 H 0.0349 0.61948 0.0643 0.0
C526 C 0.98987 0.64598 0.05639 0.0
C527 C 0.02306 0.64493 0.0851 0.0
C528 C 0.04168 0.65373 0.11029 0.0
C529 C 0.98918 0.6281 0.03267 0.0
C530 C 0.00555 0.61827 0.03602 0.0
C531 C 0.02231 0.62691 0.06195 0.0
C532 C 0.00542 0.59894 0.01337 0.0
C533 C 0.971 0.62008 0.00295 0.0
C534 C 0.9928 0.5824 0.04248 0.0
C535 C 0.99262 0.56426 0.02157 0.0
C536 C 0.00508 0.56213 0.97105 0.0
C537 C 0.01775 0.57867 0.94182 0.0
C538 C 0.01799 0.59686 0.96304 0.0
H539 H 0.96172 0.63157 0.9891 0.0
H540 H 0.97437 0.61367 0.95988 0.0
H541 H 0.96267 0.60835 0.03815 0.0
H542 H 0.98317 0.58347 0.08196 0.0
H543 H 0.98272 0.55183 0.04534 0.0
H544 H 0.03106 0.22462 0.57949 0.0
H545 H 0.02377 0.19257 0.64652 0.0
H546 H 0.96669 0.20459 0.68901 0.0
H547 H 0.97393 0.23675 0.62045 0.0
H548 H 0.01127 0.17793 0.77088 0.0
H549 H 0.95665 0.15673 0.59725 0.0
H550 H 0.97335 0.17917 0.58146 0.0
H551 H 0.95296 0.17723 0.63574 0.0
C552 C 0.01715 0.22063 0.60465 0.0
C553 C 0.003 0.233 0.59472 0.0
C554 C 0.01297 0.20232 0.64278 0.0
C555 C 0.99454 0.19602 0.6715 0.0
C556 C 0.98088 0.20904 0.66618 0.0
H557 H 0.98122 0.07813 0.89714 0.0
H558 H 0.97747 0.11257 0.8656 0.0
C559 C 0.98509 0.22747 0.62783 0.0
C560 C 0.98949 0.17524 0.70142 0.0
H561 H 0.96344 0.13194 0.67796 0.0
C562 C 1.0006 0.16788 0.75138 0.0
C563 C 0.97579 0.16216 0.67489 0.0
C564 C 0.96407 0.1691 0.61907 0.0
C565 C 0.99893 0.14772 0.77403 0.0
C566 C 0.98534 0.13459 0.74711 0.0
C567 C 0.97374 0.14203 0.6987 0.0
C568 C 0.98411 0.11303 0.76498 0.0
C569 C 0.01257 0.14066 0.82389 0.0
C570 C 0.98758 0.10145 0.71825 0.0
C571 C 0.98921 0.0816 0.73606 0.0
C572 C 0.9876 0.07322 0.80085 0.0
C573 C 0.98281 0.08444 0.84693 0.0
C574 C 0.9808 0.10412 0.82904 0.0
H575 H 0.0251 0.15201 0.82741 0.0
H576 H 0.00488 0.13705 0.87144 0.0
H577 H 0.01802 0.12729 0.81295 0.0
H578 H 0.99002 0.108 0.66841 0.0
H579 H 0.993 0.07321 0.69986 0.0
H580 H 0.29177 0.02686 0.67304 0.0
H581 H 0.31719 0.01449 0.73948 0.0
H582 H 0.35564 0.06772 0.67068 0.0
H583 H 0.33048 0.07993 0.60414 0.0
H584 H 0.3676 0.0314 0.64575 0.0
H585 H 0.34641 0.03 0.90177 0.0
H586 H 0.32858 0.02069 0.84969 0.0
H587 H 0.3376 0.04634 0.8379 0.0
C588 C 0.30546 0.03611 0.67399 0.0
C589 C 0.3093 0.05427 0.63358 0.0
C590 C 0.31993 0.02906 0.71177 0.0
C591 C 0.33825 0.04022 0.70981 0.0
C592 C 0.34158 0.05892 0.67279 0.0
H593 H 0.44539 0.04155 0.87837 0.0
H594 H 0.41213 0.04356 0.85145 0.0
C595 C 0.32724 0.06588 0.63495 0.0
C596 C 0.35477 0.03169 0.73868 0.0
H597 H 0.37619 0.01986 0.88001 0.0
C598 C 0.36941 0.02861 0.69701 0.0
C599 C 0.35696 0.02812 0.80544 0.0
C600 C 0.34165 0.03149 0.85169 0.0
C601 C 0.38663 0.02288 0.72009 0.0
C602 C 0.38909 0.01971 0.78693 0.0
C603 C 0.37414 0.02211 0.82886 0.0
C604 C 0.40796 0.01635 0.813 0.0
C605 C 0.40246 0.0214 0.6725 0.0
C606 C 0.41645 0.99999 0.80239 0.0
C607 C 0.43564 0.99886 0.81722 0.0
C608 C 0.44653 0.01402 0.84327 0.0
C609 C 0.43751 0.02969 0.85777 0.0
C610 C 0.41842 0.03083 0.84277 0.0
H611 H 0.3995 0.02787 0.62297 0.0
H612 H 0.41647 0.02895 0.68563 0.0
H613 H 0.40383 0.00575 0.67262 0.0
H614 H 0.40848 0.9885 0.78034 0.0
H615 H 0.44209 0.98649 0.80614 0.0
H616 H 0.57213 0.29587 0.45812 0.0
H617 H 0.5833 0.31673 0.53775 0.0
H618 H 0.52763 0.33602 0.5429 0.0
H619 H 0.5165 0.31531 0.46401 0.0
H620 H 0.58426 0.35753 0.51248 0.0
H621 H 0.54008 0.3267 0.73243 0.0
H622 H 0.54384 0.31246 0.66987 0.0
H623 H 0.5256 0.32835 0.66341 0.0
C624 C 0.56219 0.30418 0.47777 0.0
C625 C 0.5435 0.3041 0.45506 0.0
C626 C 0.56857 0.31607 0.52299 0.0
C627 C 0.5562 0.32768 0.54682 0.0
C628 C 0.53727 0.32685 0.52622 0.0
H629 H 0.53707 0.42893 0.65525 0.0
H630 H 0.54002 0.39693 0.62696 0.0
C631 C 0.53098 0.31518 0.48076 0.0
C632 C 0.56342 0.34271 0.58613 0.0
H633 H 0.54977 0.36222 0.715 0.0
C634 C 0.57728 0.35832 0.55798 0.0
C635 C 0.55436 0.3436 0.64557 0.0
C636 C 0.54028 0.32675 0.67987 0.0
C637 C 0.58073 0.37569 0.58433 0.0
C638 C 0.57016 0.37727 0.64029 0.0
C639 C 0.55774 0.36097 0.67174 0.0
C640 C 0.56897 0.39651 0.65968 0.0
C641 C 0.59428 0.39285 0.54919 0.0
C642 C 0.58438 0.40689 0.68717 0.0
C643 C 0.5827 0.42528 0.70381 0.0
C644 C 0.56556 0.43341 0.69329 0.0
C645 C 0.5503 0.42293 0.66519 0.0
C646 C 0.55198 0.40467 0.64882 0.0
H647 H 0.60092 0.38939 0.50501 0.0
H648 H 0.58644 0.40556 0.53599 0.0
H649 H 0.60593 0.39731 0.58097 0.0
H650 H 0.59758 0.40074 0.696 0.0
H651 H 0.59464 0.43298 0.72579 0.0
H652 H 0.22877 0.5295 0.69101 0.0
H653 H 0.20346 0.53735 0.76042 0.0
H654 H 0.16374 0.49044 0.70497 0.0
H655 H 0.18896 0.4821 0.63837 0.0
H656 H 0.17118 0.55015 0.7216 0.0
H657 H 0.15114 0.48222 0.89236 0.0
H658 H 0.17323 0.48676 0.84399 0.0
H659 H 0.15104 0.47636 0.81288 0.0
C660 C 0.21478 0.52052 0.69536 0.0
C661 C 0.21078 0.50527 0.65905 0.0
C662 C 0.20032 0.52509 0.73463 0.0
C663 C 0.18175 0.51434 0.73857 0.0
C664 C 0.17803 0.49865 0.70414 0.0
H665 H 0.07061 0.54457 0.7422 0.0
H666 H 0.10503 0.54422 0.72476 0.0
C667 C 0.19242 0.49405 0.66533 0.0
C668 C 0.16555 0.52057 0.77244 0.0
H669 H 0.1251 0.50156 0.86474 0.0
C670 C 0.16132 0.53968 0.75424 0.0
C671 C 0.1529 0.50716 0.81636 0.0
C672 C 0.15748 0.48707 0.84301 0.0
C673 C 0.144 0.54518 0.77452 0.0
C674 C 0.13032 0.53099 0.8122 0.0
C675 C 0.13532 0.51241 0.83472 0.0
C676 C 0.11021 0.5343 0.82441 0.0
C677 C 0.14051 0.56604 0.75436 0.0
C678 C 0.1015 0.52877 0.88602 0.0
C679 C 0.08172 0.52839 0.89549 0.0
C680 C 0.07033 0.53386 0.84382 0.0
C681 C 0.07915 0.54055 0.78294 0.0
C682 C 0.09888 0.54049 0.77312 0.0
H683 H 0.15425 0.57628 0.75032 0.0
H684 H 0.13423 0.56744 0.70641 0.0
H685 H 0.13053 0.57059 0.78868 0.0
H686 H 0.10985 0.52394 0.9264 0.0
H687 H 0.07526 0.52329 0.94298 0.0
H688 H 0.05935 0.81559 0.20967 0.0
H689 H 0.06673 0.84875 0.14906 0.0
H690 H 0.01951 0.83618 0.02744 0.0
H691 H 0.0122 0.80289 0.08767 0.0
H692 H 0.05425 0.86349 0.96613 0.0
H693 H 0.02457 0.8827 0.1906 0.0
H694 H 0.04446 0.86897 0.19847 0.0
H695 H 0.02173 0.85787 0.17412 0.0
C696 C 0.05109 0.81967 0.16824 0.0
C697 C 0.03516 0.80681 0.15336 0.0
C698 C 0.05524 0.83861 0.13396 0.0
C699 C 0.04342 0.84497 0.08473 0.0
C700 C 0.02877 0.83151 0.06543 0.0
H701 H 0.01025 0.948 0.87745 0.0
H702 H 0.01897 0.91587 0.915 0.0
C703 C 0.02467 0.81248 0.09955 0.0
C704 C 0.04425 0.86614 0.06072 0.0
H705 H 0.0327 0.90825 0.10497 0.0
C706 C 0.04974 0.87336 0.99649 0.0
C707 C 0.03838 0.87895 0.10066 0.0
C708 C 0.03181 0.87181 0.1697 0.0
C709 C 0.04925 0.89308 0.97084 0.0
C710 C 0.04266 0.90571 0.0102 0.0
C711 C 0.03781 0.89859 0.07495 0.0
C712 C 0.03885 0.92573 0.9842 0.0
C713 C 0.0557 0.90017 0.90179 0.0
C714 C 0.04675 0.94202 0.01171 0.0
C715 C 0.04157 0.96056 0.99086 0.0
C716 C 0.02827 0.96305 0.94248 0.0
C717 C 0.02057 0.94671 0.91475 0.0
C718 C 0.02572 0.92828 0.93562 0.0
H719 H 0.06633 0.89135 0.88573 0.0
H720 H 0.04308 0.89855 0.87124 0.0
H721 H 0.06222 0.91582 0.89415 0.0
H722 H 0.05675 0.94033 0.04985 0.0
H723 H 0.04776 0.97282 0.0132 0.0
H724 H 0.68403 0.95338 0.11062 0.0
H725 H 0.6597 0.96732 0.04424 0.0
H726 H 0.69828 0.02164 0.99576 0.0
H727 H 0.72284 0.00761 0.06219 0.0
H728 H 0.64712 1.00254 0.07984 0.0
H729 H 0.67138 0.01098 0.82349 0.0
H730 H 0.67926 0.99287 0.88396 0.0
H731 H 0.68853 0.01827 0.88081 0.0
C732 C 0.6875 0.9681 0.08434 0.0
C733 C 0.7052 0.97949 0.09163 0.0
C734 C 0.67363 0.97604 0.04652 0.0
C735 C 0.67722 0.99549 0.0153 0.0
C736 C 0.69536 0.00652 0.01895 0.0
H737 H 0.57456 0.05174 0.92488 0.0
H738 H 0.60798 0.04901 0.95183 0.0
C739 C 0.70935 0.99851 0.05674 0.0
C740 C 0.66101 1.00473 0.98703 0.0
H741 H 0.64132 0.0205 0.84563 0.0
C742 C 0.64591 0.00673 0.02868 0.0
C743 C 0.65962 0.01012 0.92039 0.0
C744 C 0.67547 0.00794 0.87413 0.0
C745 C 0.62901 0.0132 0.00541 0.0
C746 C 0.62736 0.01823 0.93856 0.0
C747 C 0.64276 0.01686 0.89686 0.0
C748 C 0.60883 0.02243 0.91153 0.0
C749 C 0.61266 0.01351 0.05248 0.0
C750 C 0.59867 0.00899 0.87704 0.0
C751 C 0.5797 0.01054 0.86144 0.0
C752 C 0.57051 0.02559 0.88001 0.0
C753 C 0.58116 0.03987 0.91052 0.0
C754 C 0.60023 0.03831 0.92603 0.0
H755 H 0.61505 0.00581 0.10102 0.0
H756 H 0.61124 0.02892 0.05647 0.0
H757 H 0.59885 0.00654 0.03589 0.0
H758 H 0.60506 0.99665 0.86524 0.0
H759 H 0.57202 0.9994 0.83724 0.0
H760 H 0.48557 0.74722 0.20208 0.0
H761 H 0.47431 0.72628 0.12393 0.0
H762 H 0.43461 0.69045 0.26707 0.0
H763 H 0.44496 0.71194 0.34418 0.0
H764 H 0.48038 0.68983 0.13928 0.0
H765 H 0.40234 0.68946 0.11421 0.0
H766 H 0.41709 0.70809 0.14927 0.0
H767 H 0.40782 0.68487 0.19704 0.0
C768 C 0.47389 0.73536 0.21623 0.0
C769 C 0.46632 0.73111 0.27965 0.0
C770 C 0.46753 0.72333 0.17152 0.0
C771 C 0.45351 0.70684 0.18937 0.0
C772 C 0.44512 0.70329 0.25154 0.0
H773 H 0.43134 0.59094 0.11941 0.0
H774 H 0.42998 0.62299 0.15117 0.0
C775 C 0.45131 0.71542 0.29601 0.0
C776 C 0.45007 0.69161 0.14744 0.0
H777 H 0.41481 0.65996 0.09334 0.0
C778 C 0.46606 0.68366 0.12776 0.0
C779 C 0.43138 0.68346 0.13273 0.0
C780 C 0.41373 0.69209 0.14892 0.0
C781 C 0.46384 0.66709 0.09726 0.0
C782 C 0.44512 0.65834 0.08557 0.0
C783 C 0.42913 0.66672 0.10263 0.0
C784 C 0.4421 0.63949 0.06106 0.0
C785 C 0.48149 0.65839 0.08102 0.0
C786 C 0.44861 0.63827 0.99897 0.0
C787 C 0.4494 0.61999 0.98067 0.0
C788 C 0.44366 0.60268 0.02421 0.0
C789 C 0.43576 0.60399 0.08469 0.0
C790 C 0.435 0.62228 0.10294 0.0
H791 H 0.49466 0.66529 0.10177 0.0
H792 H 0.47946 0.64239 0.09873 0.0
H793 H 0.48387 0.66055 0.02825 0.0
H794 H 0.45398 0.65144 0.96587 0.0
H795 H 0.45523 0.61941 0.93334 0.0
H796 H 0.80368 0.54512 0.99581 0.0
H797 H 0.82981 0.53335 0.94137 0.0
H798 H 0.82451 0.48181 0.08574 0.0
H799 H 0.79876 0.4939 0.14095 0.0
H800 H 0.85929 0.50357 0.08085 0.0
H801 H 0.84085 0.4922 0.83486 0.0
H802 H 0.83579 0.51535 0.85259 0.0
H803 H 0.82278 0.49302 0.89598 0.0
C804 C 0.80754 0.53086 0.01401 0.0
C805 C 0.79925 0.5203 0.07205 0.0
C806 C 0.82243 0.5241 0.9829 0.0
C807 C 0.82906 0.50661 0.00925 0.0
C808 C 0.81956 0.49526 0.06437 0.0
H809 H 0.94505 0.47621 0.96147 0.0
H810 H 0.91039 0.47231 0.98625 0.0
C811 C 0.80483 0.50211 0.09571 0.0
C812 C 0.84797 0.5023 0.98742 0.0
H813 H 0.87471 0.49774 0.85551 0.0
C814 C 0.86255 0.50185 0.03187 0.0
C815 C 0.85226 0.50035 0.92336 0.0
C816 C 0.83703 0.50007 0.87409 0.0
C817 C 0.88149 0.50041 0.01357 0.0
C818 C 0.88593 0.49889 0.94917 0.0
C819 C 0.87125 0.49878 0.90493 0.0
C820 C 0.90605 0.49925 0.92626 0.0
C821 C 0.89678 0.50163 0.06268 0.0
C822 C 0.91486 0.51514 0.88177 0.0
C823 C 0.93458 0.51732 0.86708 0.0
C824 C 0.94588 0.50367 0.89683 0.0
C825 C 0.9368 0.48712 0.93842 0.0
C826 C 0.91701 0.48488 0.95273 0.0
H827 H 0.89172 0.50702 0.10591 0.0
H828 H 0.90076 0.48684 0.07809 0.0
H829 H 0.90993 0.51153 0.04214 0.0
H830 H 0.90665 0.52635 0.86059 0.0
H831 H 0.94104 0.53014 0.83422 0.0
H832 H 0.98565 0.2525 0.3363 0.0
H833 H 0.98753 0.2295 0.26013 0.0
H834 H 0.04665 0.22619 0.30588 0.0
H835 H 0.04482 0.24938 0.38101 0.0
H836 H 0.04011 0.22284 0.178 0.0
H837 H 0.98603 0.17227 0.34133 0.0
H838 H 0.97825 0.19494 0.30751 0.0
H839 H 0.99768 0.1951 0.3616 0.0
C840 C 0.99932 0.24766 0.32748 0.0
C841 C 0.0152 0.25303 0.36372 0.0
C842 C 1.00029 0.23419 0.28489 0.0
C843 C 0.0171 0.22566 0.27835 0.0
C844 C 0.03349 0.23244 0.31009 0.0
H845 H 0.02906 0.10944 0.20544 0.0
H846 H 0.02669 0.13964 0.24799 0.0
C847 C 0.03253 0.24591 0.35252 0.0
C848 C 0.01714 0.20833 0.24444 0.0
H849 H 0.99714 0.16037 0.25135 0.0
C850 C 0.0306 0.20924 0.19365 0.0
C851 C 0.00503 0.19037 0.26564 0.0
C852 C 0.99104 0.18795 0.32234 0.0
C853 C 0.03228 0.19277 0.16371 0.0
C854 C 0.01998 0.17489 0.1844 0.0
C855 C 0.00647 0.17405 0.23496 0.0
C856 C 0.02155 0.15657 0.15699 0.0
C857 C 0.04772 0.19448 0.1118 0.0
C858 C 0.01924 0.15575 0.09149 0.0
C859 C 0.02078 0.13842 0.06669 0.0
C860 C 0.02458 0.12142 0.10683 0.0
C861 C 0.02653 0.12225 0.17259 0.0
C862 C 0.02502 0.13954 0.19723 0.0
H863 H 0.0589 0.20738 0.11267 0.0
H864 H 0.05481 0.1811 0.11664 0.0
H865 H 0.0411 0.19626 0.06444 0.0
H866 H 0.01614 0.16848 0.05946 0.0
H867 H 0.01927 0.13847 0.01583 0.0
H868 H 0.2978 0.10119 0.38137 0.0
H869 H 0.31907 0.10641 0.28466 0.0
H870 H 0.3247 0.04492 0.31517 0.0
H871 H 0.30345 0.03977 0.4106 0.0
H872 H 0.3562 0.1002 0.29313 0.0
H873 H 0.32151 0.05507 0.12337 0.0
H874 H 0.30817 0.06185 0.18832 0.0
H875 H 0.32098 0.04103 0.20193 0.0
C876 C 0.30295 0.08872 0.36553 0.0
C877 C 0.29892 0.07006 0.40271 0.0
C878 C 0.31518 0.09171 0.3107 0.0
C879 C 0.32334 0.07602 0.29216 0.0
C880 C 0.31825 0.05717 0.32732 0.0
H881 H 0.42186 0.04503 0.13123 0.0
H882 H 0.39127 0.04885 0.1808 0.0
C883 C 0.30615 0.05422 0.382 0.0
C884 C 0.33936 0.07952 0.24309 0.0
H885 H 0.35662 0.06052 0.11778 0.0
C886 C 0.35613 0.09196 0.25362 0.0
C887 C 0.33929 0.06873 0.19163 0.0
C888 C 0.32142 0.05609 0.17528 0.0
C889 C 0.37322 0.09277 0.21715 0.0
C890 C 0.37346 0.08097 0.16856 0.0
C891 C 0.35642 0.06944 0.15545 0.0
C892 C 0.39166 0.07886 0.13552 0.0
C893 C 0.39122 0.10524 0.23352 0.0
C894 C 0.40197 0.09448 0.09324 0.0
C895 C 0.41948 0.09231 0.06429 0.0
C896 C 0.42695 0.07446 0.0771 0.0
C897 C 0.41644 0.05886 0.11934 0.0
C898 C 0.39896 0.06103 0.14796 0.0
H899 H 0.38915 0.11162 0.27772 0.0
H900 H 0.40324 0.09643 0.2401 0.0
H901 H 0.39552 0.11743 0.19346 0.0
H902 H 0.39646 0.10831 0.0826 0.0
H903 H 0.42705 0.10452 0.03135 0.0
H904 H 0.4941 0.3152 0.28696 0.0
H905 H 0.48891 0.34274 0.2058 0.0
H906 H 0.53769 0.33341 0.09348 0.0
H907 H 0.54286 0.3057 0.17499 0.0
H908 H 0.5402 0.37095 0.12953 0.0
H909 H 0.47021 0.35158 0.02171 0.0
H910 H 0.46939 0.34612 0.10758 0.0
H911 H 0.4837 0.33334 0.06159 0.0
C912 C 0.5032 0.31854 0.24363 0.0
C913 C 0.51876 0.30826 0.23676 0.0
C914 C 0.50024 0.33427 0.19726 0.0
C915 C 0.51283 0.34006 0.14331 0.0
C916 C 0.5277 0.32906 0.13448 0.0
H917 H 0.53218 0.45403 0.89358 0.0
H918 H 0.53358 0.42009 0.94056 0.0
C919 C 0.53056 0.31317 0.1807 0.0
C920 C 0.51215 0.35918 0.10208 0.0
H921 H 0.48255 0.38578 0.01017 0.0
C922 C 0.52774 0.37412 0.10247 0.0
C923 C 0.49577 0.36335 0.06762 0.0
C924 C 0.47887 0.34771 0.06398 0.0
C925 C 0.52712 0.39329 0.07145 0.0
C926 C 0.51062 0.39757 0.03768 0.0
C927 C 0.49518 0.38251 0.03607 0.0
C928 C 0.50893 0.41773 0.00565 0.0
C929 C 0.5438 0.40898 0.07767 0.0
C930 C 0.49416 0.42751 0.02479 0.0
C931 C 0.49318 0.44692 0.99747 0.0
C932 C 0.50696 0.45693 0.95041 0.0
C933 C 0.52142 0.44688 0.93011 0.0
C934 C 0.52231 0.42746 0.95714 0.0
H935 H 0.55289 0.40444 0.11814 0.0
H936 H 0.55301 0.41191 0.03308 0.0
H937 H 0.53867 0.42286 0.08495 0.0
H938 H 0.48363 0.42026 0.06197 0.0
H939 H 0.48181 0.45416 0.01407 0.0
H940 H 0.22809 0.46417 0.44269 0.0
H941 H 0.2071 0.45786 0.35413 0.0
H942 H 0.19472 0.5173 0.33321 0.0
H943 H 0.21578 0.5236 0.42029 0.0
H944 H 0.1692 0.45923 0.36461 0.0
H945 H 0.19825 0.51041 0.14888 0.0
H946 H 0.21269 0.50471 0.21714 0.0
H947 H 0.19714 0.52325 0.2157 0.0
C948 C 0.22154 0.47606 0.41701 0.0
C949 C 0.22361 0.4944 0.43761 0.0
C950 C 0.20945 0.47243 0.36688 0.0
C951 C 0.19945 0.48716 0.33646 0.0
C952 C 0.20261 0.50584 0.35454 0.0
H953 H 0.09446 0.50568 0.17386 0.0
H954 H 0.12583 0.5056 0.22156 0.0
C955 C 0.2146 0.50944 0.40449 0.0
C956 C 0.18353 0.48248 0.29356 0.0
H957 H 0.16338 0.5008 0.15564 0.0
C958 C 0.16815 0.46794 0.31807 0.0
C959 C 0.18211 0.49386 0.23289 0.0
C960 C 0.19855 0.50878 0.20192 0.0
C961 C 0.15093 0.46546 0.28569 0.0
C962 C 0.14909 0.47775 0.22721 0.0
C963 C 0.1648 0.49152 0.20085 0.0
C964 C 0.13042 0.47774 0.19587 0.0
C965 C 0.13436 0.45054 0.31595 0.0
C966 C 0.12268 0.4621 0.16535 0.0
C967 C 0.10477 0.46216 0.13736 0.0
C968 C 0.09429 0.47787 0.13955 0.0
C969 C 0.10221 0.4935 0.17025 0.0
C970 C 0.12012 0.49346 0.19781 0.0
H971 H 0.13752 0.44342 0.36449 0.0
H972 H 0.12125 0.45762 0.31954 0.0
H973 H 0.13115 0.43902 0.28533 0.0
H974 H 0.13051 0.4499 0.16304 0.0
H975 H 0.09927 0.45004 0.1133 0.0
H976 H 0.03288 0.78502 0.41279 0.0
H977 H 0.02733 0.80714 0.48866 0.0
H978 H 0.97237 0.81411 0.40757 0.0
H979 H 0.97778 0.79161 0.33317 0.0
H980 H 0.02504 0.84466 0.45003 0.0
H981 H 0.95827 0.81271 0.59267 0.0
H982 H 0.97119 0.79849 0.54692 0.0
H983 H 0.95499 0.81402 0.50835 0.0
C984 C 0.01915 0.7904 0.41383 0.0
C985 C 0.00549 0.78609 0.36845 0.0
C986 C 0.01609 0.80331 0.45651 0.0
C987 C 0.99935 0.81232 0.45452 0.0
C988 C 0.98517 0.80706 0.41166 0.0
H989 H 0.96552 0.91648 0.57587 0.0
H990 H 0.96827 0.88689 0.52979 0.0
C991 C 0.9882 0.79405 0.36926 0.0
C992 C 0.99789 0.82898 0.49065 0.0
H993 H 0.96837 0.84717 0.59018 0.0
C994 C 0.01275 0.84503 0.48141 0.0
C995 C 0.9818 0.82971 0.53125 0.0
C996 C 0.96575 0.81272 0.54592 0.0
C997 C 0.01177 0.86183 0.51001 0.0
C998 C 0.99558 0.86267 0.54983 0.0
C999 C 0.98078 0.84659 0.55964 0.0
C1000 C 0.9936 0.88029 0.58037 0.0
C1001 C 0.02782 0.87886 0.49558 0.0
C1002 C 0.00676 0.8864 0.62507 0.0
C1003 C 0.00514 0.9033 0.65213 0.0
C1004 C 0.99028 0.91454 0.63526 0.0
C1005 C 0.97699 0.90817 0.591 0.0
C1006 C 0.97859 0.89124 0.56421 0.0
H1007 H 0.03694 0.87774 0.4532 0.0
H1008 H 0.02197 0.89297 0.48684 0.0
H1009 H 0.03713 0.8791 0.53733 0.0
H1010 H 0.01828 0.87805 0.63926 0.0
H1011 H 0.01545 0.90741 0.68682 0.0
H1012 H 0.68929 0.93522 0.29407 0.0
H1013 H 0.66944 0.93312 0.39146 0.0
H1014 H 0.71282 0.97341 0.46353 0.0
H1015 H 0.73259 0.97601 0.36462 0.0
H1016 H 0.67242 0.92421 0.52267 0.0
H1017 H 0.66675 1.00322 0.44733 0.0
H1018 H 0.67755 0.98906 0.39578 0.0
H1019 H 0.69056 0.99735 0.4612 0.0
C1020 C 0.69479 0.94331 0.33132 0.0
C1021 C 0.71231 0.95603 0.32148 0.0
C1022 C 0.68346 0.94205 0.38702 0.0
C1023 C 0.68942 0.95348 0.43404 0.0
C1024 C 0.70776 0.9648 0.42714 0.0
H1025 H 0.60797 0.98061 0.71636 0.0
H1026 H 0.63851 0.97694 0.6652 0.0
C1027 C 0.71914 0.9661 0.37105 0.0
C1028 C 0.67539 0.95504 0.4857 0.0
H1029 H 0.64697 0.98647 0.534 0.0
C1030 C 0.66706 0.93788 0.52591 0.0
C1031 C 0.66832 0.97289 0.48967 0.0
C1032 C 0.6761 0.99168 0.44601 0.0
C1033 C 0.65147 0.93797 0.56842 0.0
C1034 C 0.6439 0.95562 0.57021 0.0
C1035 C 0.65283 0.97295 0.53248 0.0
C1036 C 0.62574 0.95624 0.60625 0.0
C1037 C 0.643 0.9191 0.61018 0.0
C1038 C 0.60842 0.94583 0.59004 0.0
C1039 C 0.59092 0.94806 0.61859 0.0
C1040 C 0.59037 0.96083 0.66378 0.0
C1041 C 0.60783 0.97087 0.68106 0.0
C1042 C 0.62532 0.96868 0.65229 0.0
H1043 H 0.65366 0.90869 0.61785 0.0
H1044 H 0.63782 0.92183 0.65745 0.0
H1045 H 0.63059 0.91202 0.58634 0.0
H1046 H 0.60834 0.93654 0.55344 0.0
H1047 H 0.57776 0.94035 0.60334 0.0
H1048 H 0.5231 0.72816 0.46569 0.0
H1049 H 0.52814 0.69972 0.54415 0.0
H1050 H 0.46936 0.69427 0.61524 0.0
H1051 H 0.46417 0.72225 0.53529 0.0
H1052 H 0.52416 0.68704 0.67592 0.0
H1053 H 0.47053 0.64333 0.54582 0.0
H1054 H 0.48006 0.66849 0.5159 0.0
H1055 H 0.46125 0.66272 0.57761 0.0
C1056 C 0.51151 0.72127 0.4997 0.0
C1057 C 0.4933 0.72736 0.49502 0.0
C1058 C 0.51435 0.70498 0.54419 0.0
C1059 C 0.49899 0.69458 0.58447 0.0
C1060 C 0.48129 0.70181 0.58365 0.0
H1061 H 0.48136 0.58071 0.8252 0.0
H1062 H 0.47958 0.6143 0.7751 0.0
C1063 C 0.47838 0.71791 0.53866 0.0
C1064 C 0.50088 0.67518 0.62211 0.0
H1065 H 0.48255 0.62658 0.63867 0.0
C1066 C 0.51507 0.67382 0.66787 0.0
C1067 C 0.48916 0.65787 0.61093 0.0
C1068 C 0.47453 0.65807 0.55949 0.0
C1069 C 0.51758 0.65566 0.70356 0.0
C1070 C 0.50569 0.63847 0.69277 0.0
C1071 C 0.49154 0.63983 0.64712 0.0
C1072 C 0.50773 0.61876 0.72752 0.0
C1073 C 0.53274 0.65497 0.75306 0.0
C1074 C 0.52418 0.61012 0.71741 0.0
C1075 C 0.52523 0.59081 0.74575 0.0
C1076 C 0.50982 0.57981 0.78465 0.0
C1077 C 0.49351 0.5887 0.79555 0.0
C1078 C 0.49246 0.60793 0.76703 0.0
H1079 H 0.5379 0.66973 0.76498 0.0
H1080 H 0.52708 0.64507 0.79761 0.0
H1081 H 0.54523 0.64912 0.73424 0.0
H1082 H 0.53599 0.61811 0.68618 0.0
H1083 H 0.53799 0.58443 0.73632 0.0
H1084 H 0.82456 0.56708 0.20023 0.0
H1085 H 0.84572 0.5729 0.28726 0.0
H1086 H 0.79928 0.54828 0.42493 0.0
H1087 H 0.7781 0.54165 0.33709 0.0
H1088 H 0.84683 0.59249 0.38715 0.0
H1089 H 0.83873 0.51218 0.47304 0.0
H1090 H 0.82917 0.52224 0.39877 0.0
H1091 H 0.81703 0.52305 0.47368 0.0
C1092 C 0.81878 0.56308 0.24906 0.0
C1093 C 0.79982 0.55351 0.262 0.0
C1094 C 0.83086 0.56651 0.29881 0.0
C1095 C 0.82426 0.56058 0.36273 0.0
C1096 C 0.80482 0.55253 0.37595 0.0
H1097 H 0.91277 0.58305 0.64605 0.0
H1098 H 0.88254 0.58368 0.59002 0.0
C1099 C 0.79268 0.54895 0.32583 0.0
C1100 C 0.83841 0.5614 0.41397 0.0
H1101 H 0.8617 0.53213 0.52143 0.0
C1102 C 0.84992 0.57935 0.4173 0.0
C1103 C 0.84257 0.54418 0.45265 0.0
C1104 C 0.83137 0.52428 0.44929 0.0
C1105 C 0.86601 0.58043 0.4558 0.0
C1106 C 0.87038 0.56314 0.49348 0.0
C1107 C 0.85831 0.54537 0.49255 0.0
C1108 C 0.88836 0.56269 0.52927 0.0
C1109 C 0.8788 0.59985 0.4527 0.0
C1110 C 0.90145 0.55031 0.5151 0.0
C1111 C 0.91852 0.54973 0.54757 0.0
C1112 C 0.92296 0.5616 0.59478 0.0
C1113 C 0.90983 0.57395 0.60925 0.0
C1114 C 0.89259 0.57436 0.57717 0.0
H1115 H 0.8759 0.61057 0.41077 0.0
H1116 H 0.87617 0.60614 0.49659 0.0
H1117 H 0.89422 0.59797 0.45001 0.0
H1118 H 0.89853 0.5412 0.47827 0.0
H1119 H 0.92843 0.54019 0.535 0.0
loop_
_geom_bond_atom_site_label_1
_geom_bond_atom_site_label_2
_geom_bond_distance
_geom_bond_site_symmetry_2
_ccdc_geom_bond_type
H0 C5 0.930 . S
H1 C8 0.930 . S
H2 C10 0.930 . S
H3 C4 1.016 . S
C4 H3 1.016 . S
C4 N11 1.286 1_556 S
C5 H0 0.930 . S
C5 C6 1.397 . S
C5 C7 1.361 . S
C6 C5 1.397 . S
C6 C10 1.390 . S
C7 C5 1.361 . S
C7 C8 1.393 1_554 S
C7 N11 1.413 . S
C8 H1 0.930 . S
C8 C7 1.393 1_556 S
C8 C9 1.399 . S
C9 C8 1.399 . S
C9 C10 1.381 1_556 S
C10 H2 0.930 . S
C10 C6 1.390 . S
C10 C9 1.381 1_554 S
N11 C4 1.286 1_554 S
N11 C7 1.413 . S
H12 C17 0.930 . S
H13 C20 0.930 . S
H14 C22 0.930 . S
H15 C16 1.016 . S
C16 H15 1.016 . S
C16 N23 1.286 1_655 S
C17 H12 0.930 . S
C17 C18 1.397 1_455 S
C17 C19 1.361 . S
C18 C17 1.397 1_655 S
C18 C22 1.390 . S
C19 C17 1.361 . S
C19 C20 1.393 . S
C19 N23 1.413 . S
C20 H13 0.930 . S
C20 C19 1.393 . S
C20 C21 1.399 1_455 S
C21 C20 1.399 1_655 S
C21 C22 1.381 . S
C22 H14 0.930 . S
C22 C18 1.390 . S
C22 C21 1.381 . S
N23 C16 1.286 1_455 S
N23 C19 1.413 . S
H24 C29 0.930 . S
H25 C32 0.944 . S
H26 C34 0.930 . S
H27 C28 1.016 . S
C28 H27 1.016 . S
C28 N35 1.286 . S
C29 H24 0.930 . S
C29 C30 1.397 . S
C29 C31 1.361 . S
C30 C29 1.397 . S
C30 C34 1.390 . S
C31 C29 1.361 . S
C31 C32 1.393 . S
C31 N35 1.413 . S
C32 H25 0.944 . S
C32 C31 1.393 . S
C32 C33 1.399 . S
C33 C32 1.399 . S
C33 C34 1.381 . S
C34 H26 0.930 . S
C34 C30 1.390 . S
C34 C33 1.381 . S
N35 C28 1.286 . S
N35 C31 1.413 . S
H36 C41 0.930 . S
H37 C44 0.930 . S
H38 C46 0.930 . S
H39 C40 1.016 . S
C40 H39 1.016 . S
C40 N47 1.286 . S
C41 H36 0.930 . S
C41 C42 1.397 . S
C41 C43 1.361 . S
C42 C41 1.397 . S
C42 C46 1.390 . S
C43 C41 1.361 . S
C43 C44 1.393 . S
C43 N47 1.413 . S
C44 H37 0.930 . S
C44 C43 1.393 . S
C44 C45 1.399 . S
C45 C44 1.399 . S
C45 C46 1.381 . S
C46 H38 0.930 . S
C46 C42 1.390 . S
C46 C45 1.381 . S
N47 C40 1.286 . S
N47 C43 1.413 . S
H48 C53 0.930 . S
H49 C56 0.930 . S
H50 C58 0.930 . S
H51 C52 1.016 . S
C52 H51 1.016 . S
C52 N59 1.286 . S
C53 H48 0.930 . S
C53 C54 1.397 . S
C53 C55 1.361 . S
C54 C53 1.397 . S
C54 C58 1.390 . S
C55 C53 1.361 . S
C55 C56 1.393 . S
C55 N59 1.413 . S
C56 H49 0.930 . S
C56 C55 1.393 . S
C56 C57 1.399 . S
C57 C56 1.399 . S
C57 C58 1.381 . S
C58 H50 0.930 . S
C58 C54 1.390 . S
C58 C57 1.381 . S
N59 C52 1.286 . S
N59 C55 1.413 . S
H60 C65 0.930 . S
H61 C68 0.930 . S
H62 C70 0.930 . S
H63 C64 1.016 . S
C64 H63 1.016 . S
C64 N71 1.286 . S
C65 H60 0.930 . S
C65 C66 1.397 . S
C65 C67 1.361 . S
C66 C65 1.397 . S
C66 C70 1.390 . S
C67 C65 1.361 . S
C67 C68 1.393 . S
C67 N71 1.413 . S
C68 H61 0.930 . S
C68 C67 1.393 . S
C68 C69 1.399 . S
C69 C68 1.399 . S
C69 C70 1.381 . S
C70 H62 0.930 . S
C70 C66 1.390 . S
C70 C69 1.381 . S
N71 C64 1.286 . S
N71 C67 1.413 . S
H72 C77 0.930 . S
H73 C80 0.930 . S
H74 C82 0.930 . S
H75 C76 1.016 . S
C76 H75 1.016 . S
C76 N83 1.286 . S
C77 H72 0.930 . S
C77 C78 1.397 . S
C77 C79 1.361 . S
C78 C77 1.397 . S
C78 C82 1.390 . S
C79 C77 1.361 . S
C79 C80 1.393 . S
C79 N83 1.413 . S
C80 H73 0.930 . S
C80 C79 1.393 . S
C80 C81 1.399 . S
C81 C80 1.399 . S
C81 C82 1.381 . S
C82 H74 0.930 . S
C82 C78 1.390 . S
C82 C81 1.381 . S
N83 C76 1.286 . S
N83 C79 1.413 . S
H84 C89 0.930 . S
H85 C92 0.930 . S
H86 C94 0.930 . S
H87 C88 1.016 . S
C88 H87 1.016 . S
C88 N95 1.286 . S
C89 H84 0.930 . S
C89 C90 1.397 . S
C89 C91 1.361 . S
C90 C89 1.397 . S
C90 C94 1.390 . S
C91 C89 1.361 . S
C91 C92 1.393 . S
C91 N95 1.413 . S
C92 H85 0.930 . S
C92 C91 1.393 . S
C92 C93 1.399 . S
C93 C92 1.399 . S
C93 C94 1.381 . S
C94 H86 0.930 . S
C94 C90 1.390 . S
C94 C93 1.381 . S
N95 C88 1.286 . S
N95 C91 1.413 . S
Nd96 C98 2.836 1_545 S
Nd96 O116 2.500 1_445 S
Nd96 O117 2.492 1_545 S
Nd96 O118 2.487 . S
Nd96 O119 2.682 . S
Nd96 O120 2.410 1_545 S
Nd96 O125 2.414 1_455 S
Nd96 O127 2.424 . S
Nd97 C107 2.836 1_556 S
Nd97 O119 2.414 . S
Nd97 O121 2.424 1_545 S
Nd97 O122 2.500 . S
Nd97 O123 2.492 1_456 S
Nd97 O124 2.487 1_455 S
Nd97 O125 2.682 1_455 S
Nd97 O126 2.417 . S
C98 Nd96 2.836 1_565 S
C98 C99 1.498 . S
C98 O116 1.258 1_455 S
C98 O117 1.239 . S
C99 C98 1.498 . S
C99 C100 1.340 1_455 S
C99 C104 1.436 . S
C100 C99 1.340 1_655 S
C100 C101 1.392 . S
C100 H128 0.930 . S
C101 C100 1.392 . S
C101 C102 1.398 . S
C101 H129 0.929 . S
C102 C101 1.398 . S
C102 C103 1.352 1_655 S
C103 C102 1.352 1_455 S
C103 C104 1.384 . S
C103 H130 0.930 . S
C104 C99 1.436 . S
C104 C103 1.384 . S
C104 H131 0.929 . S
C105 O118 1.241 . S
C105 O119 1.273 . S
C106 O120 1.251 . S
C106 O121 1.268 . S
C107 Nd97 2.836 1_554 S
C107 C108 1.498 . S
C107 O122 1.258 1_554 S
C107 O123 1.239 1_455 S
C108 C107 1.498 . S
C108 C109 1.366 . S
C108 C113 1.407 . S
C109 C108 1.366 . S
C109 C110 1.392 . S
C109 H132 0.930 . S
C110 C109 1.392 . S
C110 C111 1.398 . S
C110 H133 0.929 . S
C111 C110 1.398 . S
C111 C112 1.352 . S
C112 C111 1.352 . S
C112 C113 1.384 . S
C112 H134 0.930 1_455 S
C113 C108 1.407 . S
C113 C112 1.384 . S
C113 H135 0.929 1_455 S
C114 O124 1.241 . S
C114 O125 1.273 . S
C115 O126 1.255 . S
C115 O127 1.268 . S
O116 Nd96 2.500 1_665 S
O116 C98 1.258 1_655 S
O117 Nd96 2.492 1_565 S
O117 C98 1.239 . S
O118 Nd96 2.487 . S
O118 C105 1.241 . S
O119 Nd96 2.682 . S
O119 Nd97 2.414 . S
O119 C105 1.273 . S
O120 Nd96 2.410 1_565 S
O120 C106 1.251 . S
O121 Nd97 2.424 1_565 S
O121 C106 1.268 . S
O122 Nd97 2.500 . S
O122 C107 1.258 1_556 S
O123 Nd97 2.492 1_654 S
O123 C107 1.239 1_655 S
O124 Nd97 2.487 1_655 S
O124 C114 1.241 . S
O125 Nd96 2.414 1_655 S
O125 Nd97 2.682 1_655 S
O125 C114 1.273 . S
O126 Nd97 2.417 . S
O126 C115 1.255 . S
O127 Nd96 2.424 . S
O127 C115 1.268 . S
H128 C100 0.930 . S
H129 C101 0.929 . S
H130 C103 0.930 . S
H131 C104 0.929 . S
H132 C109 0.930 . S
H133 C110 0.929 . S
H134 C112 0.930 1_655 S
H135 C113 0.929 1_655 S
Nd136 C138 2.836 1_545 S
Nd136 O156 2.500 1_545 S
Nd136 O157 2.492 . S
Nd136 O158 2.487 . S
Nd136 O159 2.682 . S
Nd136 O160 2.410 . S
Nd136 O165 2.414 1_545 S
Nd136 O167 2.424 . S
Nd137 C147 2.836 1_556 S
Nd137 O159 2.414 . S
Nd137 O161 2.424 . S
Nd137 O162 2.500 . S
Nd137 O163 2.492 1_556 S
Nd137 O164 2.487 1_545 S
Nd137 O165 2.682 1_545 S
Nd137 O166 2.410 . S
C138 Nd136 2.836 1_565 S
C138 C139 1.498 . S
C138 O156 1.258 . S
C138 O157 1.239 1_565 S
C139 C138 1.498 . S
C139 C140 1.366 . S
C139 C144 1.407 . S
C140 C139 1.366 . S
C140 C141 1.392 . S
C140 H168 0.930 . S
C141 C140 1.392 . S
C141 C142 1.398 . S
C141 H169 0.929 . S
C142 C141 1.398 . S
C142 C143 1.352 . S
C143 C142 1.352 . S
C143 C144 1.384 . S
C143 H170 0.930 . S
C144 C139 1.407 . S
C144 C143 1.384 . S
C144 H171 0.929 1_565 S
C145 O158 1.241 . S
C145 O159 1.273 . S
C146 O160 1.251 . S
C146 O161 1.268 . S
C147 Nd137 2.836 1_554 S
C147 C148 1.498 . S
C147 O162 1.258 1_554 S
C147 O163 1.239 . S
C148 C147 1.498 . S
C148 C149 1.366 . S
C148 C153 1.407 . S
C149 C148 1.366 . S
C149 C150 1.392 . S
C149 H172 0.930 1_554 S
C150 C149 1.392 . S
C150 C151 1.398 . S
C150 H173 0.929 . S
C151 C150 1.398 . S
C151 C152 1.352 . S
C152 C151 1.352 . S
C152 C153 1.384 . S
C152 H174 0.930 . S
C153 C148 1.407 . S
C153 C152 1.384 . S
C153 H175 0.929 . S
C154 O164 1.241 . S
C154 O165 1.273 . S
C155 O166 1.251 . S
C155 O167 1.268 . S
O156 Nd136 2.500 1_565 S
O156 C138 1.258 . S
O157 Nd136 2.492 . S
O157 C138 1.239 1_545 S
O158 Nd136 2.487 . S
O158 C145 1.241 . S
O159 Nd136 2.682 . S
O159 Nd137 2.414 . S
O159 C145 1.273 . S
O160 Nd136 2.410 . S
O160 C146 1.251 . S
O161 Nd137 2.424 . S
O161 C146 1.268 . S
O162 Nd137 2.500 . S
O162 C147 1.258 1_556 S
O163 Nd137 2.492 1_554 S
O163 C147 1.239 . S
O164 Nd137 2.487 1_565 S
O164 C154 1.241 . S
O165 Nd136 2.414 1_565 S
O165 Nd137 2.682 1_565 S
O165 C154 1.273 . S
O166 Nd137 2.410 . S
O166 C155 1.251 . S
O167 Nd136 2.424 . S
O167 C155 1.268 . S
H168 C140 0.930 . S
H169 C141 0.929 . S
H170 C143 0.930 . S
H171 C144 0.929 1_545 S
H172 C149 0.930 1_556 S
H173 C150 0.929 . S
H174 C152 0.930 . S
H175 C153 0.929 . S
Nd176 C178 2.836 . S
Nd176 O196 2.500 . S
Nd176 O197 2.492 . S
Nd176 O198 2.487 . S
Nd176 O199 2.682 . S
Nd176 O200 2.410 . S
Nd176 O205 2.414 . S
Nd176 O207 2.424 . S
Nd177 C187 2.836 . S
Nd177 O199 2.414 . S
Nd177 O201 2.424 . S
Nd177 O202 2.500 . S
Nd177 O203 2.492 . S
Nd177 O204 2.487 . S
Nd177 O205 2.682 . S
Nd177 O206 2.410 . S
C178 Nd176 2.836 . S
C178 C179 1.498 1_556 S
C178 O196 1.258 . S
C178 O197 1.239 . S
C179 C178 1.498 1_554 S
C179 C180 1.366 1_554 S
C179 C184 1.407 . S
C180 C179 1.366 1_556 S
C180 C181 1.392 1_556 S
C180 H208 0.930 . S
C181 C180 1.392 1_554 S
C181 C182 1.398 . S
C181 H209 0.929 1_554 S
C182 C181 1.398 . S
C182 C183 1.352 . S
C183 C182 1.352 . S
C183 C184 1.384 . S
C183 H210 0.930 . S
C184 C179 1.407 . S
C184 C183 1.384 . S
C184 H211 0.929 . S
C185 O198 1.241 . S
C185 O199 1.273 . S
C186 O200 1.251 . S
C186 O201 1.268 . S
C187 Nd177 2.836 . S
C187 C188 1.498 . S
C187 O202 1.258 . S
C187 O203 1.239 . S
C188 C187 1.498 . S
C188 C189 1.366 . S
C188 C193 1.407 . S
C189 C188 1.366 . S
C189 C190 1.392 . S
C189 H212 0.930 . S
C190 C189 1.392 . S
C190 C191 1.398 . S
C190 H213 0.929 . S
C191 C190 1.398 . S
C191 C192 1.352 . S
C192 C191 1.352 . S
C192 C193 1.384 . S
C192 H214 0.930 . S
C193 C188 1.407 . S
C193 C192 1.384 . S
C193 H215 0.929 . S
C194 O204 1.241 . S
C194 O205 1.273 . S
C195 O206 1.251 . S
C195 O207 1.268 . S
O196 Nd176 2.500 . S
O196 C178 1.258 . S
O197 Nd176 2.492 . S
O197 C178 1.239 . S
O198 Nd176 2.487 . S
O198 C185 1.241 . S
O199 Nd176 2.682 . S
O199 Nd177 2.414 . S
O199 C185 1.273 . S
O200 Nd176 2.410 . S
O200 C186 1.251 . S
O201 Nd177 2.424 . S
O201 C186 1.268 . S
O202 Nd177 2.500 . S
O202 C187 1.258 . S
O203 Nd177 2.492 . S
O203 C187 1.239 . S
O204 Nd177 2.487 . S
O204 C194 1.241 . S
O205 Nd176 2.414 . S
O205 Nd177 2.682 . S
O205 C194 1.273 . S
O206 Nd177 2.410 . S
O206 C195 1.251 . S
O207 Nd176 2.424 . S
O207 C195 1.268 . S
H208 C180 0.930 . S
H209 C181 0.929 1_556 S
H210 C183 0.930 . S
H211 C184 0.929 . S
H212 C189 0.930 . S
H213 C190 0.929 . S
H214 C192 0.930 . S
H215 C193 0.929 . S
Nd216 C218 2.836 1_455 S
Nd216 O236 2.500 1_455 S
Nd216 O237 2.492 1_455 S
Nd216 O238 2.486 1_455 S
Nd216 O239 2.682 . S
Nd216 O240 2.410 1_455 S
Nd216 O245 2.414 . S
Nd216 O247 2.424 . S
Nd217 C227 2.836 1_556 S
Nd217 O239 2.414 . S
Nd217 O241 2.424 1_455 S
Nd217 O242 2.500 1_556 S
Nd217 O243 2.492 1_556 S
Nd217 O244 2.487 . S
Nd217 O245 2.682 . S
Nd217 O246 2.410 . S
C218 Nd216 2.836 1_655 S
C218 C219 1.498 . S
C218 O236 1.258 . S
C218 O237 1.239 . S
C219 C218 1.498 . S
C219 C220 1.366 . S
C219 C224 1.407 . S
C220 C219 1.366 . S
C220 C221 1.392 . S
C220 H248 0.930 . S
C221 C220 1.392 . S
C221 C222 1.398 . S
C221 H249 0.929 . S
C222 C221 1.398 . S
C222 C223 1.352 . S
C223 C222 1.352 . S
C223 C224 1.384 . S
C223 H250 0.930 . S
C224 C219 1.407 . S
C224 C223 1.384 . S
C224 H251 0.929 . S
C225 O238 1.224 1_455 S
C225 O239 1.273 . S
C226 O240 1.251 . S
C226 O241 1.268 . S
C227 Nd217 2.836 1_554 S
C227 C228 1.498 . S
C227 O242 1.258 . S
C227 O243 1.239 . S
C228 C227 1.498 . S
C228 C229 1.366 . S
C228 C233 1.407 . S
C229 C228 1.366 . S
C229 C230 1.392 . S
C229 H252 0.930 . S
C230 C229 1.392 . S
C230 C231 1.398 . S
C230 H253 0.929 . S
C231 C230 1.398 . S
C231 C232 1.352 . S
C232 C231 1.352 . S
C232 C233 1.384 . S
C232 H254 0.930 . S
C233 C228 1.407 . S
C233 C232 1.384 . S
C233 H255 0.929 . S
C234 O244 1.241 . S
C234 O245 1.273 . S
C235 O246 1.251 . S
C235 O247 1.268 . S
O236 Nd216 2.500 1_655 S
O236 C218 1.258 . S
O237 Nd216 2.492 1_655 S
O237 C218 1.239 . S
O238 Nd216 2.486 1_655 S
O238 C225 1.224 1_655 S
O239 Nd216 2.682 . S
O239 Nd217 2.414 . S
O239 C225 1.273 . S
O240 Nd216 2.410 1_655 S
O240 C226 1.251 . S
O241 Nd217 2.424 1_655 S
O241 C226 1.268 . S
O242 Nd217 2.500 1_554 S
O242 C227 1.258 . S
O243 Nd217 2.492 1_554 S
O243 C227 1.239 . S
O244 Nd217 2.487 . S
O244 C234 1.241 . S
O245 Nd216 2.414 . S
O245 Nd217 2.682 . S
O245 C234 1.273 . S
O246 Nd217 2.410 . S
O246 C235 1.251 . S
O247 Nd216 2.424 . S
O247 C235 1.268 . S
H248 C220 0.930 . S
H249 C221 0.929 . S
H250 C223 0.930 . S
H251 C224 0.929 . S
H252 C229 0.930 . S
H253 C230 0.929 . S
H254 C232 0.930 . S
H255 C233 0.929 . S
H256 C264 0.929 . S
H257 C266 0.930 . S
H258 C268 0.930 . S
H259 C271 0.929 . S
H260 C274 0.930 . S
H261 C276 0.960 . S
H262 C276 0.960 . S
H263 C276 0.960 . S
C264 H256 0.929 . S
C264 C265 1.377 . S
C264 C266 1.384 . S
C265 C264 1.377 . S
C265 C271 1.390 . S
C266 H257 0.930 . S
C266 C264 1.384 . S
C266 C267 1.372 . S
C267 C266 1.372 . S
C267 C268 1.400 . S
C267 C272 1.490 . S
C268 H258 0.930 . S
C268 C267 1.400 . S
C268 C271 1.386 . S
H269 C285 0.930 . S
H270 C286 0.931 . S
C271 H259 0.929 . S
C271 C265 1.390 . S
C271 C268 1.386 . S
C272 C267 1.490 . S
C272 C274 1.395 . S
C272 C275 1.403 . S
H273 C279 0.930 . S
C274 H260 0.930 . S
C274 C272 1.395 . S
C274 C277 1.403 . S
C275 C272 1.403 . S
C275 C276 1.524 . S
C275 C279 1.400 . S
C276 H261 0.960 . S
C276 H262 0.960 . S
C276 H263 0.960 . S
C276 C275 1.524 . S
C277 C274 1.403 . S
C277 C278 1.392 . S
C277 C281 1.495 . S
C278 C277 1.392 . S
C278 C279 1.385 . S
C278 C280 1.478 . S
C279 H273 0.930 . S
C279 C275 1.400 . S
C279 C278 1.385 . S
C280 C278 1.478 . S
C280 C282 1.381 . S
C280 C286 1.383 . S
C281 C277 1.495 . S
C281 H287 0.959 . S
C281 H288 0.961 . S
C281 H289 0.960 . S
C282 C280 1.381 . S
C282 C283 1.394 . S
C282 H290 0.930 . S
C283 C282 1.394 . S
C283 C284 1.383 . S
C283 H291 0.929 . S
C284 C283 1.383 . S
C284 C285 1.377 . S
C285 H269 0.930 . S
C285 C284 1.377 . S
C285 C286 1.379 . S
C286 H270 0.931 . S
C286 C280 1.383 . S
C286 C285 1.379 . S
H287 C281 0.959 . S
H288 C281 0.961 . S
H289 C281 0.960 . S
H290 C282 0.930 . S
H291 C283 0.929 . S
H292 C300 0.929 . S
H293 C302 0.930 . S
H294 C304 0.930 . S
H295 C307 0.929 . S
H296 C310 0.930 . S
H297 C312 0.960 . S
H298 C312 0.960 . S
H299 C312 0.960 . S
C300 H292 0.929 . S
C300 C301 1.377 . S
C300 C302 1.384 . S
C301 C300 1.377 . S
C301 C307 1.390 . S
C302 H293 0.930 . S
C302 C300 1.384 . S
C302 C303 1.372 . S
C303 C302 1.372 . S
C303 C304 1.400 . S
C303 C308 1.490 . S
C304 H294 0.930 . S
C304 C303 1.400 . S
C304 C307 1.386 . S
H305 C321 0.930 . S
H306 C322 0.931 . S
C307 H295 0.929 . S
C307 C301 1.390 . S
C307 C304 1.386 . S
C308 C303 1.490 . S
C308 C310 1.395 . S
C308 C311 1.403 . S
H309 C315 0.930 . S
C310 H296 0.930 . S
C310 C308 1.395 . S
C310 C313 1.403 . S
C311 C308 1.403 . S
C311 C312 1.524 . S
C311 C315 1.400 . S
C312 H297 0.960 . S
C312 H298 0.960 . S
C312 H299 0.960 . S
C312 C311 1.524 . S
C313 C310 1.403 . S
C313 C314 1.392 . S
C313 C317 1.495 . S
C314 C313 1.392 . S
C314 C315 1.385 . S
C314 C316 1.478 . S
C315 H309 0.930 . S
C315 C311 1.400 . S
C315 C314 1.385 . S
C316 C314 1.478 . S
C316 C318 1.381 . S
C316 C322 1.383 . S
C317 C313 1.495 . S
C317 H323 0.959 . S
C317 H324 0.961 . S
C317 H325 0.960 . S
C318 C316 1.381 . S
C318 C319 1.394 . S
C318 H326 0.930 . S
C319 C318 1.394 . S
C319 C320 1.383 . S
C319 H327 0.929 . S
C320 C319 1.383 . S
C320 C321 1.377 . S
C321 H305 0.930 . S
C321 C320 1.377 . S
C321 C322 1.379 . S
C322 H306 0.931 . S
C322 C316 1.383 . S
C322 C321 1.379 . S
H323 C317 0.959 . S
H324 C317 0.961 . S
H325 C317 0.960 . S
H326 C318 0.930 . S
H327 C319 0.929 . S
H328 C336 0.929 . S
H329 C338 0.930 . S
H330 C340 0.930 . S
H331 C343 0.929 . S
H332 C346 0.930 . S
H333 C348 0.960 . S
H334 C348 0.960 . S
H335 C348 0.960 . S
C336 H328 0.929 . S
C336 C337 1.377 . S
C336 C338 1.384 . S
C337 C336 1.377 . S
C337 C343 1.390 . S
C338 H329 0.930 . S
C338 C336 1.384 . S
C338 C339 1.372 . S
C339 C338 1.372 . S
C339 C340 1.400 . S
C339 C344 1.490 . S
C340 H330 0.930 . S
C340 C339 1.400 . S
C340 C343 1.386 . S
H341 C357 0.930 . S
H342 C358 0.931 . S
C343 H331 0.929 . S
C343 C337 1.390 . S
C343 C340 1.386 . S
C344 C339 1.490 . S
C344 C346 1.395 . S
C344 C347 1.403 . S
H345 C351 0.930 . S
C346 H332 0.930 . S
C346 C344 1.395 . S
C346 C349 1.403 . S
C347 C344 1.403 . S
C347 C348 1.524 . S
C347 C351 1.400 . S
C348 H333 0.960 . S
C348 H334 0.960 . S
C348 H335 0.960 . S
C348 C347 1.524 . S
C349 C346 1.403 . S
C349 C350 1.392 . S
C349 C353 1.495 . S
C350 C349 1.392 . S
C350 C351 1.385 . S
C350 C352 1.478 . S
C351 H345 0.930 . S
C351 C347 1.400 . S
C351 C350 1.385 . S
C352 C350 1.478 . S
C352 C354 1.381 . S
C352 C358 1.383 . S
C353 C349 1.495 . S
C353 H359 0.959 . S
C353 H360 0.961 . S
C353 H361 0.960 . S
C354 C352 1.381 . S
C354 C355 1.394 . S
C354 H362 0.930 . S
C355 C354 1.394 . S
C355 C356 1.383 . S
C355 H363 0.929 . S
C356 C355 1.383 . S
C356 C357 1.377 . S
C357 H341 0.930 . S
C357 C356 1.377 . S
C357 C358 1.379 . S
C358 H342 0.931 . S
C358 C352 1.383 . S
C358 C357 1.379 . S
H359 C353 0.959 . S
H360 C353 0.961 . S
H361 C353 0.960 . S
H362 C354 0.930 . S
H363 C355 0.929 . S
H364 C372 0.929 . S
H365 C374 0.930 . S
H366 C376 0.930 . S
H367 C379 0.929 . S
H368 C382 0.930 . S
H369 C384 0.960 . S
H370 C384 0.960 . S
H371 C384 0.960 . S
C372 H364 0.929 . S
C372 C373 1.377 . S
C372 C374 1.384 . S
C373 C372 1.377 . S
C373 C379 1.390 . S
C374 H365 0.930 . S
C374 C372 1.384 . S
C374 C375 1.372 . S
C375 C374 1.372 . S
C375 C376 1.400 . S
C375 C380 1.490 . S
C376 H366 0.930 . S
C376 C375 1.400 . S
C376 C379 1.386 . S
H377 C393 0.926 1_655 S
H378 C394 0.928 1_655 S
C379 H367 0.929 . S
C379 C373 1.390 . S
C379 C376 1.386 . S
C380 C375 1.490 . S
C380 C382 1.395 1_455 S
C380 C383 1.403 . S
H381 C387 0.930 . S
C382 H368 0.930 . S
C382 C380 1.395 1_655 S
C382 C385 1.403 . S
C383 C380 1.403 . S
C383 C384 1.524 . S
C383 C387 1.400 . S
C384 H369 0.960 . S
C384 H370 0.960 . S
C384 H371 0.960 . S
C384 C383 1.524 . S
C385 C382 1.403 . S
C385 C386 1.392 1_655 S
C385 C389 1.495 . S
C386 C385 1.392 1_455 S
C386 C387 1.385 . S
C386 C388 1.478 . S
C387 H381 0.930 . S
C387 C383 1.400 . S
C387 C386 1.385 . S
C388 C386 1.478 . S
C388 C390 1.381 . S
C388 C394 1.394 . S
C389 C385 1.495 . S
C389 H395 0.959 . S
C389 H396 0.961 . S
C389 H397 0.960 . S
C390 C388 1.381 . S
C390 C391 1.394 . S
C390 H398 0.930 . S
C391 C390 1.394 . S
C391 C392 1.383 . S
C391 H399 0.929 . S
C392 C391 1.383 . S
C392 C393 1.378 . S
C393 H377 0.926 1_455 S
C393 C392 1.378 . S
C393 C394 1.375 . S
C394 H378 0.928 1_455 S
C394 C388 1.394 . S
C394 C393 1.375 . S
H395 C389 0.959 . S
H396 C389 0.961 . S
H397 C389 0.960 . S
H398 C390 0.930 . S
H399 C391 0.929 . S
H400 C408 0.929 . S
H401 C410 0.930 . S
H402 C412 0.930 . S
H403 C415 0.929 . S
H404 C418 0.930 . S
H405 C420 0.960 . S
H406 C420 0.960 . S
H407 C420 0.960 . S
C408 H400 0.929 . S
C408 C409 1.377 . S
C408 C410 1.384 . S
C409 C408 1.377 . S
C409 C415 1.390 1_554 S
C410 H401 0.930 . S
C410 C408 1.384 . S
C410 C411 1.372 . S
C411 C410 1.372 . S
C411 C412 1.400 1_554 S
C411 C416 1.490 1_554 S
C412 H402 0.930 . S
C412 C411 1.400 1_556 S
C412 C415 1.386 . S
H413 C429 0.926 1_545 S
H414 C430 0.931 . S
C415 H403 0.929 . S
C415 C409 1.390 1_556 S
C415 C412 1.386 . S
C416 C411 1.490 1_556 S
C416 C418 1.395 . S
C416 C419 1.403 . S
H417 C423 0.930 . S
C418 H404 0.930 . S
C418 C416 1.395 . S
C418 C421 1.403 . S
C419 C416 1.403 . S
C419 C420 1.524 1_556 S
C419 C423 1.400 . S
C420 H405 0.960 . S
C420 H406 0.960 . S
C420 H407 0.960 . S
C420 C419 1.524 1_554 S
C421 C418 1.403 . S
C421 C422 1.392 . S
C421 C425 1.495 . S
C422 C421 1.392 . S
C422 C423 1.385 . S
C422 C424 1.478 . S
C423 H417 0.930 . S
C423 C419 1.400 . S
C423 C422 1.385 . S
C424 C422 1.478 . S
C424 C426 1.381 . S
C424 C430 1.383 . S
C425 C421 1.495 . S
C425 H431 0.959 . S
C425 H432 0.961 . S
C425 H433 0.960 . S
C426 C424 1.381 . S
C426 C427 1.394 . S
C426 H434 0.930 . S
C427 C426 1.394 . S
C427 C428 1.383 . S
C427 H435 0.929 . S
C428 C427 1.383 . S
C428 C429 1.379 . S
C429 H413 0.926 1_565 S
C429 C428 1.379 . S
C429 C430 1.381 . S
C430 H414 0.931 . S
C430 C424 1.383 . S
C430 C429 1.381 . S
H431 C425 0.959 . S
H432 C425 0.961 . S
H433 C425 0.960 . S
H434 C426 0.930 . S
H435 C427 0.929 . S
H436 C444 0.929 . S
H437 C446 0.930 . S
H438 C448 0.930 . S
H439 C451 0.929 . S
H440 C454 0.930 . S
H441 C456 0.960 . S
H442 C456 0.960 . S
H443 C456 0.960 . S
C444 H436 0.929 . S
C444 C445 1.377 . S
C444 C446 1.384 . S
C445 C444 1.377 . S
C445 C451 1.390 . S
C446 H437 0.930 . S
C446 C444 1.384 . S
C446 C447 1.372 . S
C447 C446 1.372 . S
C447 C448 1.400 . S
C447 C452 1.490 . S
C448 H438 0.930 . S
C448 C447 1.400 . S
C448 C451 1.386 . S
H449 C465 0.930 . S
H450 C466 0.931 1_556 S
C451 H439 0.929 . S
C451 C445 1.390 . S
C451 C448 1.386 . S
C452 C447 1.490 . S
C452 C454 1.395 . S
C452 C455 1.403 . S
H453 C459 0.930 . S
C454 H440 0.930 . S
C454 C452 1.395 . S
C454 C457 1.403 . S
C455 C452 1.403 . S
C455 C456 1.524 . S
C455 C459 1.400 . S
C456 H441 0.960 . S
C456 H442 0.960 . S
C456 H443 0.960 . S
C456 C455 1.524 . S
C457 C454 1.403 . S
C457 C458 1.392 . S
C457 C461 1.495 . S
C458 C457 1.392 . S
C458 C459 1.385 . S
C458 C460 1.478 . S
C459 H453 0.930 . S
C459 C455 1.400 . S
C459 C458 1.385 . S
C460 C458 1.478 . S
C460 C462 1.381 . S
C460 C466 1.383 . S
C461 C457 1.495 . S
C461 H467 0.959 . S
C461 H468 0.961 . S
C461 H469 0.960 . S
C462 C460 1.381 . S
C462 C463 1.394 . S
C462 H470 0.930 . S
C463 C462 1.394 . S
C463 C464 1.383 1_554 S
C463 H471 0.929 . S
C464 C463 1.383 1_556 S
C464 C465 1.377 . S
C465 H449 0.930 . S
C465 C464 1.377 . S
C465 C466 1.379 1_556 S
C466 H450 0.931 1_554 S
C466 C460 1.383 . S
C466 C465 1.379 1_554 S
H467 C461 0.959 . S
H468 C461 0.961 . S
H469 C461 0.960 . S
H470 C462 0.930 . S
H471 C463 0.929 . S
H472 C480 0.929 . S
H473 C482 0.930 . S
H474 C484 0.930 . S
H475 C487 0.929 . S
H476 C490 0.930 1_554 S
H477 C492 0.960 . S
H478 C492 0.960 . S
H479 C492 0.960 . S
C480 H472 0.929 . S
C480 C481 1.377 . S
C480 C482 1.384 . S
C481 C480 1.377 . S
C481 C487 1.390 . S
C482 H473 0.930 . S
C482 C480 1.384 . S
C482 C483 1.372 . S
C483 C482 1.372 . S
C483 C484 1.400 . S
C483 C488 1.490 . S
C484 H474 0.930 . S
C484 C483 1.400 . S
C484 C487 1.386 . S
H485 C501 0.930 . S
H486 C502 0.931 . S
C487 H475 0.929 . S
C487 C481 1.390 . S
C487 C484 1.386 . S
C488 C483 1.490 . S
C488 C490 1.395 . S
C488 C491 1.403 . S
H489 C495 0.930 . S
C490 H476 0.930 1_556 S
C490 C488 1.395 . S
C490 C493 1.403 . S
C491 C488 1.403 . S
C491 C492 1.524 . S
C491 C495 1.400 . S
C492 H477 0.960 . S
C492 H478 0.960 . S
C492 H479 0.960 . S
C492 C491 1.524 . S
C493 C490 1.403 . S
C493 C494 1.392 . S
C493 C497 1.495 1_556 S
C494 C493 1.392 . S
C494 C495 1.385 . S
C494 C496 1.478 . S
C495 H489 0.930 . S
C495 C491 1.400 . S
C495 C494 1.385 . S
C496 C494 1.478 . S
C496 C498 1.381 . S
C496 C502 1.383 . S
C497 C493 1.495 1_554 S
C497 H503 0.959 . S
C497 H504 0.961 . S
C497 H505 0.960 . S
C498 C496 1.381 . S
C498 C499 1.394 . S
C498 H506 0.930 . S
C499 C498 1.394 . S
C499 C500 1.383 . S
C499 H507 0.929 . S
C500 C499 1.383 . S
C500 C501 1.377 . S
C501 H485 0.930 . S
C501 C500 1.377 . S
C501 C502 1.379 . S
C502 H486 0.931 . S
C502 C496 1.383 . S
C502 C501 1.379 . S
H503 C497 0.959 . S
H504 C497 0.961 . S
H505 C497 0.960 . S
H506 C498 0.930 . S
H507 C499 0.929 . S
H508 C516 0.929 . S
H509 C518 0.930 . S
H510 C520 0.930 . S
H511 C523 0.929 1_556 S
H512 C526 0.930 1_554 S
H513 C528 0.960 1_556 S
H514 C528 0.960 . S
H515 C528 0.960 1_556 S
C516 H508 0.929 . S
C516 C517 1.377 . S
C516 C518 1.384 . S
C517 C516 1.377 . S
C517 C523 1.390 1_655 S
C518 H509 0.930 . S
C518 C516 1.384 . S
C518 C519 1.346 1_655 S
C519 C518 1.346 1_455 S
C519 C520 1.418 1_554 S
C519 C524 1.500 . S
C520 H510 0.930 . S
C520 C519 1.418 1_556 S
C520 C523 1.386 1_556 S
H521 C537 0.930 . S
H522 C538 0.931 . S
C523 H511 0.929 1_554 S
C523 C517 1.390 1_455 S
C523 C520 1.386 1_554 S
C524 C519 1.500 . S
C524 C526 1.395 1_454 S
C524 C527 1.403 1_554 S
H525 C531 0.930 . S
C526 H512 0.930 1_556 S
C526 C524 1.395 1_656 S
C526 C529 1.403 . S
C527 C524 1.403 1_556 S
C527 C528 1.524 1_556 S
C527 C531 1.400 . S
C528 H513 0.960 1_554 S
C528 H514 0.960 . S
C528 H515 0.960 1_554 S
C528 C527 1.524 1_554 S
C529 C526 1.403 . S
C529 C530 1.392 1_655 S
C529 C533 1.495 . S
C530 C529 1.392 1_455 S
C530 C531 1.385 . S
C530 C532 1.478 . S
C531 H525 0.930 . S
C531 C527 1.400 . S
C531 C530 1.385 . S
C532 C530 1.478 . S
C532 C534 1.381 1_455 S
C532 C538 1.383 . S
C533 C529 1.495 . S
C533 H539 0.959 . S
C533 H540 0.961 . S
C533 H541 0.960 . S
C534 C532 1.381 1_655 S
C534 C535 1.388 1_655 S
C534 H542 0.930 1_556 S
C535 C534 1.388 1_455 S
C535 C536 1.393 . S
C535 H543 0.926 1_455 S
C536 C535 1.393 . S
C536 C537 1.377 . S
C537 H521 0.930 . S
C537 C536 1.377 . S
C537 C538 1.379 . S
C538 H522 0.931 . S
C538 C532 1.383 . S
C538 C537 1.379 . S
H539 C533 0.959 . S
H540 C533 0.961 . S
H541 C533 0.960 . S
H542 C534 0.930 1_554 S
H543 C535 0.926 1_655 S
H544 C552 0.929 . S
H545 C554 0.930 . S
H546 C556 0.930 . S
H547 C559 0.929 . S
H548 C562 0.930 . S
H549 C564 0.960 . S
H550 C564 0.960 . S
H551 C564 0.960 . S
C552 H544 0.929 . S
C552 C553 1.377 . S
C552 C554 1.384 . S
C553 C552 1.377 . S
C553 C559 1.390 . S
C554 H545 0.930 . S
C554 C552 1.384 . S
C554 C555 1.372 . S
C555 C554 1.372 . S
C555 C556 1.400 . S
C555 C560 1.490 . S
C556 H546 0.930 . S
C556 C555 1.400 . S
C556 C559 1.386 . S
H557 C573 0.917 1_655 S
H558 C574 0.931 . S
C559 H547 0.929 . S
C559 C553 1.390 . S
C559 C556 1.386 . S
C560 C555 1.490 . S
C560 C562 1.395 . S
C560 C563 1.403 1_455 S
H561 C567 0.930 . S
C562 H548 0.930 . S
C562 C560 1.395 . S
C562 C565 1.403 . S
C563 C560 1.403 1_655 S
C563 C564 1.524 . S
C563 C567 1.400 . S
C564 H549 0.960 . S
C564 H550 0.960 . S
C564 H551 0.960 . S
C564 C563 1.524 . S
C565 C562 1.403 . S
C565 C566 1.392 . S
C565 C569 1.495 . S
C566 C565 1.392 . S
C566 C567 1.385 1_455 S
C566 C568 1.478 . S
C567 H561 0.930 . S
C567 C563 1.400 . S
C567 C566 1.385 1_655 S
C568 C566 1.478 . S
C568 C570 1.381 . S
C568 C574 1.383 . S
C569 C565 1.495 . S
C569 H575 0.959 . S
C569 H576 0.961 . S
C569 H577 0.960 . S
C570 C568 1.381 . S
C570 C571 1.394 . S
C570 H578 0.930 . S
C571 C570 1.394 . S
C571 C572 1.383 . S
C571 H579 0.929 . S
C572 C571 1.383 . S
C572 C573 1.377 . S
C573 H557 0.917 1_455 S
C573 C572 1.377 . S
C573 C574 1.379 . S
C574 H558 0.931 . S
C574 C568 1.383 . S
C574 C573 1.379 . S
H575 C569 0.959 . S
H576 C569 0.961 . S
H577 C569 0.960 . S
H578 C570 0.930 . S
H579 C571 0.929 . S
H580 C588 0.929 . S
H581 C590 0.930 . S
H582 C592 0.930 . S
H583 C595 0.929 . S
H584 C598 0.930 . S
H585 C600 0.960 . S
H586 C600 0.960 . S
H587 C600 0.960 . S
C588 H580 0.929 . S
C588 C589 1.377 . S
C588 C590 1.384 . S
C589 C588 1.377 . S
C589 C595 1.390 . S
C590 H581 0.930 . S
C590 C588 1.384 . S
C590 C591 1.372 . S
C591 C590 1.372 . S
C591 C592 1.400 . S
C591 C596 1.490 . S
C592 H582 0.930 . S
C592 C591 1.400 . S
C592 C595 1.386 . S
H593 C609 0.930 . S
H594 C610 0.931 . S
C595 H583 0.929 . S
C595 C589 1.390 . S
C595 C592 1.386 . S
C596 C591 1.490 . S
C596 C598 1.395 . S
C596 C599 1.403 . S
H597 C603 0.930 . S
C598 H584 0.930 . S
C598 C596 1.395 . S
C598 C601 1.403 . S
C599 C596 1.403 . S
C599 C600 1.524 . S
C599 C603 1.400 . S
C600 H585 0.960 . S
C600 H586 0.960 . S
C600 H587 0.960 . S
C600 C599 1.524 . S
C601 C598 1.403 . S
C601 C602 1.392 . S
C601 C605 1.495 . S
C602 C601 1.392 . S
C602 C603 1.385 . S
C602 C604 1.478 . S
C603 H597 0.930 . S
C603 C599 1.400 . S
C603 C602 1.385 . S
C604 C602 1.478 . S
C604 C606 1.381 . S
C604 C610 1.383 . S
C605 C601 1.495 . S
C605 H611 0.959 . S
C605 H612 0.961 . S
C605 H613 0.960 . S
C606 C604 1.381 . S
C606 C607 1.394 . S
C606 H614 0.930 . S
C607 C606 1.394 . S
C607 C608 1.383 . S
C607 H615 0.929 . S
C608 C607 1.383 . S
C608 C609 1.377 . S
C609 H593 0.930 . S
C609 C608 1.377 . S
C609 C610 1.379 . S
C610 H594 0.931 . S
C610 C604 1.383 . S
C610 C609 1.379 . S
H611 C605 0.959 . S
H612 C605 0.961 . S
H613 C605 0.960 . S
H614 C606 0.930 . S
H615 C607 0.929 . S
H616 C624 0.929 . S
H617 C626 0.930 . S
H618 C628 0.930 . S
H619 C631 0.929 . S
H620 C634 0.930 . S
H621 C636 0.960 . S
H622 C636 0.960 . S
H623 C636 0.960 . S
C624 H616 0.929 . S
C624 C625 1.377 . S
C624 C626 1.384 . S
C625 C624 1.377 . S
C625 C631 1.390 . S
C626 H617 0.930 . S
C626 C624 1.384 . S
C626 C627 1.372 . S
C627 C626 1.372 . S
C627 C628 1.400 . S
C627 C632 1.490 . S
C628 H618 0.930 . S
C628 C627 1.400 . S
C628 C631 1.386 . S
H629 C645 0.930 . S
H630 C646 0.931 . S
C631 H619 0.929 . S
C631 C625 1.390 . S
C631 C628 1.386 . S
C632 C627 1.490 . S
C632 C634 1.395 . S
C632 C635 1.403 . S
H633 C639 0.930 . S
C634 H620 0.930 . S
C634 C632 1.395 . S
C634 C637 1.403 . S
C635 C632 1.403 . S
C635 C636 1.524 . S
C635 C639 1.400 . S
C636 H621 0.960 . S
C636 H622 0.960 . S
C636 H623 0.960 . S
C636 C635 1.524 . S
C637 C634 1.403 . S
C637 C638 1.392 . S
C637 C641 1.495 . S
C638 C637 1.392 . S
C638 C639 1.385 . S
C638 C640 1.478 . S
C639 H633 0.930 . S
C639 C635 1.400 . S
C639 C638 1.385 . S
C640 C638 1.478 . S
C640 C642 1.381 . S
C640 C646 1.383 . S
C641 C637 1.495 . S
C641 H647 0.959 . S
C641 H648 0.961 . S
C641 H649 0.960 . S
C642 C640 1.381 . S
C642 C643 1.394 . S
C642 H650 0.930 . S
C643 C642 1.394 . S
C643 C644 1.383 . S
C643 H651 0.929 . S
C644 C643 1.383 . S
C644 C645 1.377 . S
C645 H629 0.930 . S
C645 C644 1.377 . S
C645 C646 1.379 . S
C646 H630 0.931 . S
C646 C640 1.383 . S
C646 C645 1.379 . S
H647 C641 0.959 . S
H648 C641 0.961 . S
H649 C641 0.960 . S
H650 C642 0.930 . S
H651 C643 0.929 . S
H652 C660 0.929 . S
H653 C662 0.930 . S
H654 C664 0.930 . S
H655 C667 0.929 . S
H656 C670 0.930 . S
H657 C672 0.960 . S
H658 C672 0.960 . S
H659 C672 0.960 . S
C660 H652 0.929 . S
C660 C661 1.377 . S
C660 C662 1.384 . S
C661 C660 1.377 . S
C661 C667 1.390 . S
C662 H653 0.930 . S
C662 C660 1.384 . S
C662 C663 1.372 . S
C663 C662 1.372 . S
C663 C664 1.400 . S
C663 C668 1.490 . S
C664 H654 0.930 . S
C664 C663 1.400 . S
C664 C667 1.386 . S
H665 C681 0.930 . S
H666 C682 0.931 . S
C667 H655 0.929 . S
C667 C661 1.390 . S
C667 C664 1.386 . S
C668 C663 1.490 . S
C668 C670 1.395 . S
C668 C671 1.403 . S
H669 C675 0.930 . S
C670 H656 0.930 . S
C670 C668 1.395 . S
C670 C673 1.403 . S
C671 C668 1.403 . S
C671 C672 1.524 . S
C671 C675 1.400 . S
C672 H657 0.960 . S
C672 H658 0.960 . S
C672 H659 0.960 . S
C672 C671 1.524 . S
C673 C670 1.403 . S
C673 C674 1.392 . S
C673 C677 1.495 . S
C674 C673 1.392 . S
C674 C675 1.385 . S
C674 C676 1.478 . S
C675 H669 0.930 . S
C675 C671 1.400 . S
C675 C674 1.385 . S
C676 C674 1.478 . S
C676 C678 1.381 . S
C676 C682 1.383 . S
C677 C673 1.495 . S
C677 H683 0.959 . S
C677 H684 0.961 . S
C677 H685 0.960 . S
C678 C676 1.381 . S
C678 C679 1.394 . S
C678 H686 0.930 . S
C679 C678 1.394 . S
C679 C680 1.383 . S
C679 H687 0.929 . S
C680 C679 1.383 . S
C680 C681 1.377 . S
C681 H665 0.930 . S
C681 C680 1.377 . S
C681 C682 1.379 . S
C682 H666 0.931 . S
C682 C676 1.383 . S
C682 C681 1.379 . S
H683 C677 0.959 . S
H684 C677 0.961 . S
H685 C677 0.960 . S
H686 C678 0.930 . S
H687 C679 0.929 . S
H688 C696 0.929 . S
H689 C698 0.930 . S
H690 C700 0.930 . S
H691 C703 0.929 1_556 S
H692 C706 0.930 . S
H693 C708 0.960 . S
H694 C708 0.960 . S
H695 C708 0.960 . S
C696 H688 0.929 . S
C696 C697 1.377 1_455 S
C696 C698 1.384 . S
C697 C696 1.377 1_655 S
C697 C703 1.390 . S
C698 H689 0.930 . S
C698 C696 1.384 . S
C698 C699 1.372 . S
C699 C698 1.372 . S
C699 C700 1.400 1_454 S
C699 C704 1.490 1_554 S
C700 H690 0.930 . S
C700 C699 1.400 1_656 S
C700 C703 1.386 1_556 S
H701 C717 0.930 . S
H702 C718 0.931 . S
C703 H691 0.929 1_554 S
C703 C697 1.390 . S
C703 C700 1.386 1_554 S
C704 C699 1.490 1_556 S
C704 C706 1.395 . S
C704 C707 1.403 1_456 S
H705 C711 0.930 . S
C706 H692 0.930 . S
C706 C704 1.395 . S
C706 C709 1.403 . S
C707 C704 1.403 1_654 S
C707 C708 1.524 . S
C707 C711 1.400 1_554 S
C708 H693 0.960 . S
C708 H694 0.960 . S
C708 H695 0.960 . S
C708 C707 1.524 . S
C709 C706 1.403 . S
C709 C710 1.392 . S
C709 C713 1.495 . S
C710 C709 1.392 . S
C710 C711 1.385 1_455 S
C710 C712 1.478 . S
C711 H705 0.930 . S
C711 C707 1.400 1_556 S
C711 C710 1.385 1_655 S
C712 C710 1.478 . S
C712 C714 1.381 . S
C712 C718 1.383 1_455 S
C713 C709 1.495 . S
C713 H719 0.959 . S
C713 H720 0.961 . S
C713 H721 0.960 . S
C714 C712 1.381 . S
C714 C715 1.394 . S
C714 H722 0.930 . S
C715 C714 1.394 . S
C715 C716 1.383 . S
C715 H723 0.929 . S
C716 C715 1.383 . S
C716 C717 1.377 1_455 S
C717 H701 0.930 . S
C717 C716 1.377 1_655 S
C717 C718 1.379 . S
C718 H702 0.931 . S
C718 C712 1.383 1_655 S
C718 C717 1.379 . S
H719 C713 0.959 . S
H720 C713 0.961 . S
H721 C713 0.960 . S
H722 C714 0.930 . S
H723 C715 0.929 . S
H724 C732 0.929 . S
H725 C734 0.930 . S
H726 C736 0.930 . S
H727 C739 0.929 . S
H728 C742 0.930 1_554 S
H729 C744 0.960 . S
H730 C744 0.960 . S
H731 C744 0.960 . S
C732 H724 0.929 . S
C732 C733 1.377 1_556 S
C732 C734 1.384 . S
C733 C732 1.377 1_554 S
C733 C739 1.390 . S
C734 H725 0.930 . S
C734 C732 1.384 . S
C734 C735 1.372 . S
C735 C734 1.372 . S
C735 C736 1.400 1_556 S
C735 C740 1.490 . S
C736 H726 0.930 . S
C736 C735 1.400 1_554 S
C736 C739 1.386 . S
H737 C753 0.930 . S
H738 C754 0.931 . S
C739 H727 0.929 . S
C739 C733 1.390 . S
C739 C736 1.386 . S
C740 C735 1.490 . S
C740 C742 1.395 . S
C740 C743 1.403 . S
H741 C747 0.930 . S
C742 H728 0.930 1_556 S
C742 C740 1.395 . S
C742 C745 1.403 . S
C743 C740 1.403 . S
C743 C744 1.524 . S
C743 C747 1.400 . S
C744 H729 0.960 . S
C744 H730 0.960 . S
C744 H731 0.960 . S
C744 C743 1.524 . S
C745 C742 1.403 . S
C745 C746 1.392 . S
C745 C749 1.495 1_556 S
C746 C745 1.392 . S
C746 C747 1.385 . S
C746 C748 1.478 . S
C747 H741 0.930 . S
C747 C743 1.400 . S
C747 C746 1.385 . S
C748 C746 1.478 . S
C748 C750 1.381 . S
C748 C754 1.383 . S
C749 C745 1.495 1_554 S
C749 H755 0.959 . S
C749 H756 0.961 . S
C749 H757 0.960 1_554 S
C750 C748 1.381 . S
C750 C751 1.394 . S
C750 H758 0.930 . S
C751 C750 1.394 . S
C751 C752 1.383 . S
C751 H759 0.929 . S
C752 C751 1.383 . S
C752 C753 1.377 1_565 S
C753 H737 0.930 . S
C753 C752 1.377 1_545 S
C753 C754 1.379 1_545 S
C754 H738 0.931 . S
C754 C748 1.383 . S
C754 C753 1.379 1_565 S
H755 C749 0.959 . S
H756 C749 0.961 . S
H757 C749 0.960 1_556 S
H758 C750 0.930 . S
H759 C751 0.929 . S
H760 C768 0.929 . S
H761 C770 0.930 . S
H762 C772 0.930 . S
H763 C775 0.929 . S
H764 C778 0.930 . S
H765 C780 0.960 . S
H766 C780 0.960 . S
H767 C780 0.960 . S
C768 H760 0.929 . S
C768 C769 1.377 . S
C768 C770 1.384 . S
C769 C768 1.377 . S
C769 C775 1.390 . S
C770 H761 0.930 . S
C770 C768 1.384 . S
C770 C771 1.372 . S
C771 C770 1.372 . S
C771 C772 1.400 . S
C771 C776 1.490 . S
C772 H762 0.930 . S
C772 C771 1.400 . S
C772 C775 1.386 . S
H773 C789 0.930 . S
H774 C790 0.931 . S
C775 H763 0.929 . S
C775 C769 1.390 . S
C775 C772 1.386 . S
C776 C771 1.490 . S
C776 C778 1.395 . S
C776 C779 1.403 . S
H777 C783 0.930 . S
C778 H764 0.930 . S
C778 C776 1.395 . S
C778 C781 1.403 . S
C779 C776 1.403 . S
C779 C780 1.524 . S
C779 C783 1.400 . S
C780 H765 0.960 . S
C780 H766 0.960 . S
C780 H767 0.960 . S
C780 C779 1.524 . S
C781 C778 1.403 . S
C781 C782 1.392 . S
C781 C785 1.495 . S
C782 C781 1.392 . S
C782 C783 1.385 . S
C782 C784 1.478 . S
C783 H777 0.930 . S
C783 C779 1.400 . S
C783 C782 1.385 . S
C784 C782 1.478 . S
C784 C786 1.381 . S
C784 C790 1.383 . S
C785 C781 1.495 . S
C785 H791 0.959 . S
C785 H792 0.961 . S
C785 H793 0.960 . S
C786 C784 1.381 . S
C786 C787 1.394 . S
C786 H794 0.930 . S
C787 C786 1.394 . S
C787 C788 1.383 . S
C787 H795 0.929 . S
C788 C787 1.383 . S
C788 C789 1.377 . S
C789 H773 0.930 . S
C789 C788 1.377 . S
C789 C790 1.379 . S
C790 H774 0.931 . S
C790 C784 1.383 . S
C790 C789 1.379 . S
H791 C785 0.959 . S
H792 C785 0.961 . S
H793 C785 0.960 . S
H794 C786 0.930 . S
H795 C787 0.929 . S
H796 C804 0.929 . S
H797 C806 0.930 . S
H798 C808 0.930 . S
H799 C811 0.929 . S
H800 C814 0.930 . S
H801 C816 0.960 . S
H802 C816 0.960 . S
H803 C816 0.960 . S
C804 H796 0.929 . S
C804 C805 1.377 . S
C804 C806 1.384 . S
C805 C804 1.377 . S
C805 C811 1.390 . S
C806 H797 0.930 . S
C806 C804 1.384 . S
C806 C807 1.372 . S
C807 C806 1.372 . S
C807 C808 1.400 . S
C807 C812 1.490 . S
C808 H798 0.930 . S
C808 C807 1.400 . S
C808 C811 1.386 . S
H809 C825 0.930 . S
H810 C826 0.931 . S
C811 H799 0.929 . S
C811 C805 1.390 . S
C811 C808 1.386 . S
C812 C807 1.490 . S
C812 C814 1.395 . S
C812 C815 1.403 . S
H813 C819 0.930 . S
C814 H800 0.930 . S
C814 C812 1.395 . S
C814 C817 1.403 . S
C815 C812 1.403 . S
C815 C816 1.524 . S
C815 C819 1.400 . S
C816 H801 0.960 . S
C816 H802 0.960 . S
C816 H803 0.960 . S
C816 C815 1.524 . S
C817 C814 1.403 . S
C817 C818 1.392 . S
C817 C821 1.495 . S
C818 C817 1.392 . S
C818 C819 1.385 . S
C818 C820 1.478 . S
C819 H813 0.930 . S
C819 C815 1.400 . S
C819 C818 1.385 . S
C820 C818 1.478 . S
C820 C822 1.381 . S
C820 C826 1.383 . S
C821 C817 1.495 . S
C821 H827 0.959 . S
C821 H828 0.962 . S
C821 H829 0.960 . S
C822 C820 1.381 . S
C822 C823 1.394 . S
C822 H830 0.930 . S
C823 C822 1.394 . S
C823 C824 1.383 . S
C823 H831 0.929 . S
C824 C823 1.383 . S
C824 C825 1.377 . S
C825 H809 0.930 . S
C825 C824 1.377 . S
C825 C826 1.379 . S
C826 H810 0.931 . S
C826 C820 1.383 . S
C826 C825 1.379 . S
H827 C821 0.959 . S
H828 C821 0.962 . S
H829 C821 0.960 . S
H830 C822 0.930 . S
H831 C823 0.929 . S
H832 C840 0.963 . S
H833 C842 0.930 . S
H834 C844 0.930 . S
H835 C847 0.929 . S
H836 C850 0.930 . S
H837 C852 0.958 1_655 S
H838 C852 0.960 1_655 S
H839 C852 0.960 . S
C840 H832 0.963 . S
C840 C841 1.377 . S
C840 C842 1.384 . S
C841 C840 1.377 . S
C841 C847 1.390 . S
C842 H833 0.930 . S
C842 C840 1.384 . S
C842 C843 1.372 . S
C843 C842 1.372 . S
C843 C844 1.400 . S
C843 C848 1.490 . S
C844 H834 0.930 . S
C844 C843 1.400 . S
C844 C847 1.386 . S
H845 C861 0.930 . S
H846 C862 0.931 . S
C847 H835 0.929 . S
C847 C841 1.390 . S
C847 C844 1.386 . S
C848 C843 1.490 . S
C848 C850 1.395 . S
C848 C851 1.403 . S
H849 C855 0.930 . S
C850 H836 0.930 . S
C850 C848 1.395 . S
C850 C853 1.403 . S
C851 C848 1.403 . S
C851 C852 1.524 . S
C851 C855 1.400 . S
C852 H837 0.958 1_455 S
C852 H838 0.960 1_455 S
C852 H839 0.960 . S
C852 C851 1.524 . S
C853 C850 1.403 . S
C853 C854 1.392 . S
C853 C857 1.495 . S
C854 C853 1.392 . S
C854 C855 1.385 . S
C854 C856 1.478 . S
C855 H849 0.930 . S
C855 C851 1.400 . S
C855 C854 1.385 . S
C856 C854 1.478 . S
C856 C858 1.381 . S
C856 C862 1.383 . S
C857 C853 1.495 . S
C857 H863 0.959 . S
C857 H864 0.961 . S
C857 H865 0.960 . S
C858 C856 1.381 . S
C858 C859 1.394 . S
C858 H866 0.930 . S
C859 C858 1.394 . S
C859 C860 1.383 . S
C859 H867 0.966 . S
C860 C859 1.383 . S
C860 C861 1.377 . S
C861 H845 0.930 . S
C861 C860 1.377 . S
C861 C862 1.379 . S
C862 H846 0.931 . S
C862 C856 1.383 . S
C862 C861 1.379 . S
H863 C857 0.959 . S
H864 C857 0.961 . S
H865 C857 0.960 . S
H866 C858 0.930 . S
H867 C859 0.966 . S
H868 C876 0.929 . S
H869 C878 0.930 . S
H870 C880 0.930 . S
H871 C883 0.929 . S
H872 C886 0.930 . S
H873 C888 0.960 . S
H874 C888 0.960 . S
H875 C888 0.960 . S
C876 H868 0.929 . S
C876 C877 1.377 . S
C876 C878 1.384 . S
C877 C876 1.377 . S
C877 C883 1.390 . S
C878 H869 0.930 . S
C878 C876 1.384 . S
C878 C879 1.372 . S
C879 C878 1.372 . S
C879 C880 1.400 . S
C879 C884 1.490 . S
C880 H870 0.930 . S
C880 C879 1.400 . S
C880 C883 1.386 . S
H881 C897 0.930 . S
H882 C898 0.931 . S
C883 H871 0.929 . S
C883 C877 1.390 . S
C883 C880 1.386 . S
C884 C879 1.490 . S
C884 C886 1.395 . S
C884 C887 1.403 . S
H885 C891 0.930 . S
C886 H872 0.930 . S
C886 C884 1.395 . S
C886 C889 1.403 . S
C887 C884 1.403 . S
C887 C888 1.524 . S
C887 C891 1.400 . S
C888 H873 0.960 . S
C888 H874 0.960 . S
C888 H875 0.960 . S
C888 C887 1.524 . S
C889 C886 1.403 . S
C889 C890 1.392 . S
C889 C893 1.495 . S
C890 C889 1.392 . S
C890 C891 1.385 . S
C890 C892 1.478 . S
C891 H885 0.930 . S
C891 C887 1.400 . S
C891 C890 1.385 . S
C892 C890 1.478 . S
C892 C894 1.381 . S
C892 C898 1.383 . S
C893 C889 1.495 . S
C893 H899 0.959 . S
C893 H900 0.961 . S
C893 H901 0.960 . S
C894 C892 1.381 . S
C894 C895 1.394 . S
C894 H902 0.930 . S
C895 C894 1.394 . S
C895 C896 1.383 . S
C895 H903 0.929 . S
C896 C895 1.383 . S
C896 C897 1.377 . S
C897 H881 0.930 . S
C897 C896 1.377 . S
C897 C898 1.379 . S
C898 H882 0.931 . S
C898 C892 1.383 . S
C898 C897 1.379 . S
H899 C893 0.959 . S
H900 C893 0.961 . S
H901 C893 0.960 . S
H902 C894 0.930 . S
H903 C895 0.929 . S
H904 C912 0.929 . S
H905 C914 0.930 . S
H906 C916 0.930 . S
H907 C919 0.929 . S
H908 C922 0.930 . S
H909 C924 0.960 1_556 S
H910 C924 0.960 . S
H911 C924 0.960 . S
C912 H904 0.929 . S
C912 C913 1.377 . S
C912 C914 1.384 . S
C913 C912 1.377 . S
C913 C919 1.390 . S
C914 H905 0.930 . S
C914 C912 1.384 . S
C914 C915 1.372 . S
C915 C914 1.372 . S
C915 C916 1.400 . S
C915 C920 1.490 . S
C916 H906 0.930 . S
C916 C915 1.400 . S
C916 C919 1.386 . S
H917 C933 0.930 . S
H918 C934 0.931 . S
C919 H907 0.929 . S
C919 C913 1.390 . S
C919 C916 1.386 . S
C920 C915 1.490 . S
C920 C922 1.395 . S
C920 C923 1.403 . S
H921 C927 0.930 1_556 S
C922 H908 0.930 . S
C922 C920 1.395 . S
C922 C925 1.403 . S
C923 C920 1.403 . S
C923 C924 1.524 . S
C923 C927 1.400 . S
C924 H909 0.960 1_554 S
C924 H910 0.960 . S
C924 H911 0.960 . S
C924 C923 1.524 . S
C925 C922 1.403 . S
C925 C926 1.392 . S
C925 C929 1.495 . S
C926 C925 1.392 . S
C926 C927 1.385 . S
C926 C928 1.478 . S
C927 H921 0.930 1_554 S
C927 C923 1.400 . S
C927 C926 1.385 . S
C928 C926 1.478 . S
C928 C930 1.381 . S
C928 C934 1.383 1_554 S
C929 C925 1.495 . S
C929 H935 0.959 . S
C929 H936 0.961 . S
C929 H937 0.960 . S
C930 C928 1.381 . S
C930 C931 1.394 . S
C930 H938 0.930 . S
C931 C930 1.394 . S
C931 C932 1.383 1_554 S
C931 H939 0.929 . S
C932 C931 1.383 1_556 S
C932 C933 1.377 . S
C933 H917 0.930 . S
C933 C932 1.377 . S
C933 C934 1.379 . S
C934 H918 0.931 . S
C934 C928 1.383 1_556 S
C934 C933 1.379 . S
H935 C929 0.959 . S
H936 C929 0.961 . S
H937 C929 0.960 . S
H938 C930 0.930 . S
H939 C931 0.929 . S
H940 C948 0.929 . S
H941 C950 0.930 . S
H942 C952 0.930 . S
H943 C955 0.929 . S
H944 C958 0.930 . S
H945 C960 0.960 . S
H946 C960 0.960 . S
H947 C960 0.960 . S
C948 H940 0.929 . S
C948 C949 1.377 . S
C948 C950 1.384 . S
C949 C948 1.377 . S
C949 C955 1.390 . S
C950 H941 0.930 . S
C950 C948 1.384 . S
C950 C951 1.372 . S
C951 C950 1.372 . S
C951 C952 1.400 . S
C951 C956 1.490 . S
C952 H942 0.930 . S
C952 C951 1.400 . S
C952 C955 1.386 . S
H953 C969 0.930 . S
H954 C970 0.931 . S
C955 H943 0.929 . S
C955 C949 1.390 . S
C955 C952 1.386 . S
C956 C951 1.490 . S
C956 C958 1.395 . S
C956 C959 1.403 . S
H957 C963 0.930 . S
C958 H944 0.930 . S
C958 C956 1.395 . S
C958 C961 1.403 . S
C959 C956 1.403 . S
C959 C960 1.524 . S
C959 C963 1.400 . S
C960 H945 0.960 . S
C960 H946 0.960 . S
C960 H947 0.960 . S
C960 C959 1.524 . S
C961 C958 1.403 . S
C961 C962 1.392 . S
C961 C965 1.495 . S
C962 C961 1.392 . S
C962 C963 1.385 . S
C962 C964 1.478 . S
C963 H957 0.930 . S
C963 C959 1.400 . S
C963 C962 1.385 . S
C964 C962 1.478 . S
C964 C966 1.381 . S
C964 C970 1.383 . S
C965 C961 1.495 . S
C965 H971 0.959 . S
C965 H972 0.961 . S
C965 H973 0.960 . S
C966 C964 1.381 . S
C966 C967 1.394 . S
C966 H974 0.930 . S
C967 C966 1.394 . S
C967 C968 1.383 . S
C967 H975 0.929 . S
C968 C967 1.383 . S
C968 C969 1.377 . S
C969 H953 0.930 . S
C969 C968 1.377 . S
C969 C970 1.379 . S
C970 H954 0.931 . S
C970 C964 1.383 . S
C970 C969 1.379 . S
H971 C965 0.959 . S
H972 C965 0.961 . S
H973 C965 0.960 . S
H974 C966 0.930 . S
H975 C967 0.929 . S
H976 C984 0.929 . S
H977 C986 0.930 . S
H978 C988 0.930 . S
H979 C991 0.929 . S
H980 C994 0.930 . S
H981 C996 0.960 . S
H982 C996 0.960 . S
H983 C996 0.960 . S
C984 H976 0.929 . S
C984 C985 1.377 1_455 S
C984 C986 1.384 . S
C985 C984 1.377 1_655 S
C985 C991 1.390 . S
C986 H977 0.930 . S
C986 C984 1.384 . S
C986 C987 1.372 1_455 S
C987 C986 1.372 1_655 S
C987 C988 1.400 . S
C987 C992 1.490 . S
C988 H978 0.930 . S
C988 C987 1.400 . S
C988 C991 1.386 . S
H989 C1005 0.930 . S
H990 C1006 0.931 . S
C991 H979 0.929 . S
C991 C985 1.390 . S
C991 C988 1.386 . S
C992 C987 1.490 . S
C992 C994 1.395 1_655 S
C992 C995 1.403 . S
H993 C999 0.930 . S
C994 H980 0.930 . S
C994 C992 1.395 1_455 S
C994 C997 1.403 . S
C995 C992 1.403 . S
C995 C996 1.524 . S
C995 C999 1.400 . S
C996 H981 0.960 . S
C996 H982 0.960 . S
C996 H983 0.960 . S
C996 C995 1.524 . S
C997 C994 1.403 . S
C997 C998 1.392 1_455 S
C997 C1001 1.495 . S
C998 C997 1.392 1_655 S
C998 C999 1.385 . S
C998 C1000 1.478 . S
C999 H993 0.930 . S
C999 C995 1.400 . S
C999 C998 1.385 . S
C1000 C998 1.478 . S
C1000 C1002 1.381 1_655 S
C1000 C1006 1.383 . S
C1001 C997 1.495 . S
C1001 H1007 0.959 . S
C1001 H1008 0.961 . S
C1001 H1009 0.960 . S
C1002 C1000 1.381 1_455 S
C1002 C1003 1.394 . S
C1002 H1010 0.930 . S
C1003 C1002 1.394 . S
C1003 C1004 1.383 1_455 S
C1003 H1011 0.929 . S
C1004 C1003 1.383 1_655 S
C1004 C1005 1.377 . S
C1005 H989 0.930 . S
C1005 C1004 1.377 . S
C1005 C1006 1.379 . S
C1006 H990 0.931 . S
C1006 C1000 1.383 . S
C1006 C1005 1.379 . S
H1007 C1001 0.959 . S
H1008 C1001 0.961 . S
H1009 C1001 0.960 . S
H1010 C1002 0.930 . S
H1011 C1003 0.929 . S
H1012 C1020 0.929 . S
H1013 C1022 0.930 . S
H1014 C1024 0.930 . S
H1015 C1027 0.929 . S
H1016 C1030 0.930 . S
H1017 C1032 0.960 . S
H1018 C1032 0.960 . S
H1019 C1032 0.960 . S
C1020 H1012 0.929 . S
C1020 C1021 1.377 . S
C1020 C1022 1.384 . S
C1021 C1020 1.377 . S
C1021 C1027 1.390 . S
C1022 H1013 0.930 . S
C1022 C1020 1.384 . S
C1022 C1023 1.372 . S
C1023 C1022 1.372 . S
C1023 C1024 1.400 . S
C1023 C1028 1.490 . S
C1024 H1014 0.930 . S
C1024 C1023 1.400 . S
C1024 C1027 1.386 . S
H1025 C1041 0.930 . S
H1026 C1042 0.931 . S
C1027 H1015 0.929 . S
C1027 C1021 1.390 . S
C1027 C1024 1.386 . S
C1028 C1023 1.490 . S
C1028 C1030 1.395 . S
C1028 C1031 1.403 . S
H1029 C1035 0.930 . S
C1030 H1016 0.930 . S
C1030 C1028 1.395 . S
C1030 C1033 1.403 . S
C1031 C1028 1.403 . S
C1031 C1032 1.524 . S
C1031 C1035 1.400 . S
C1032 H1017 0.960 . S
C1032 H1018 0.960 . S
C1032 H1019 0.960 . S
C1032 C1031 1.524 . S
C1033 C1030 1.403 . S
C1033 C1034 1.392 . S
C1033 C1037 1.495 . S
C1034 C1033 1.392 . S
C1034 C1035 1.385 . S
C1034 C1036 1.478 . S
C1035 H1029 0.930 . S
C1035 C1031 1.400 . S
C1035 C1034 1.385 . S
C1036 C1034 1.478 . S
C1036 C1038 1.381 . S
C1036 C1042 1.383 . S
C1037 C1033 1.495 . S
C1037 H1043 0.959 . S
C1037 H1044 0.961 . S
C1037 H1045 0.960 . S
C1038 C1036 1.381 . S
C1038 C1039 1.394 . S
C1038 H1046 0.930 . S
C1039 C1038 1.394 . S
C1039 C1040 1.383 . S
C1039 H1047 0.929 . S
C1040 C1039 1.383 . S
C1040 C1041 1.377 . S
C1041 H1025 0.930 . S
C1041 C1040 1.377 . S
C1041 C1042 1.379 . S
C1042 H1026 0.931 . S
C1042 C1036 1.383 . S
C1042 C1041 1.379 . S
H1043 C1037 0.959 . S
H1044 C1037 0.961 . S
H1045 C1037 0.960 . S
H1046 C1038 0.930 . S
H1047 C1039 0.929 . S
H1048 C1056 0.929 . S
H1049 C1058 0.930 . S
H1050 C1060 0.930 . S
H1051 C1063 0.929 . S
H1052 C1066 0.930 . S
H1053 C1068 0.960 . S
H1054 C1068 0.960 . S
H1055 C1068 0.960 . S
C1056 H1048 0.929 . S
C1056 C1057 1.377 . S
C1056 C1058 1.384 . S
C1057 C1056 1.377 . S
C1057 C1063 1.390 . S
C1058 H1049 0.930 . S
C1058 C1056 1.384 . S
C1058 C1059 1.372 . S
C1059 C1058 1.372 . S
C1059 C1060 1.400 . S
C1059 C1064 1.490 . S
C1060 H1050 0.930 . S
C1060 C1059 1.400 . S
C1060 C1063 1.386 . S
H1061 C1077 0.930 . S
H1062 C1078 0.931 . S
C1063 H1051 0.929 . S
C1063 C1057 1.390 . S
C1063 C1060 1.386 . S
C1064 C1059 1.490 . S
C1064 C1066 1.395 . S
C1064 C1067 1.403 . S
H1065 C1071 0.930 . S
C1066 H1052 0.930 . S
C1066 C1064 1.395 . S
C1066 C1069 1.403 . S
C1067 C1064 1.403 . S
C1067 C1068 1.524 . S
C1067 C1071 1.400 . S
C1068 H1053 0.960 . S
C1068 H1054 0.960 . S
C1068 H1055 0.960 . S
C1068 C1067 1.524 . S
C1069 C1066 1.403 . S
C1069 C1070 1.392 . S
C1069 C1073 1.495 . S
C1070 C1069 1.392 . S
C1070 C1071 1.385 . S
C1070 C1072 1.478 . S
C1071 H1065 0.930 . S
C1071 C1067 1.400 . S
C1071 C1070 1.385 . S
C1072 C1070 1.478 . S
C1072 C1074 1.381 . S
C1072 C1078 1.383 . S
C1073 C1069 1.495 . S
C1073 H1079 0.959 . S
C1073 H1080 0.961 . S
C1073 H1081 0.960 . S
C1074 C1072 1.381 . S
C1074 C1075 1.394 . S
C1074 H1082 0.930 . S
C1075 C1074 1.394 . S
C1075 C1076 1.383 . S
C1075 H1083 0.929 . S
C1076 C1075 1.383 . S
C1076 C1077 1.377 . S
C1077 H1061 0.930 . S
C1077 C1076 1.377 . S
C1077 C1078 1.379 . S
C1078 H1062 0.931 . S
C1078 C1072 1.383 . S
C1078 C1077 1.379 . S
H1079 C1073 0.959 . S
H1080 C1073 0.961 . S
H1081 C1073 0.960 . S
H1082 C1074 0.930 . S
H1083 C1075 0.929 . S
H1084 C1092 0.929 . S
H1085 C1094 0.930 . S
H1086 C1096 0.930 . S
H1087 C1099 0.929 . S
H1088 C1102 0.930 . S
H1089 C1104 0.960 . S
H1090 C1104 0.960 . S
H1091 C1104 0.960 . S
C1092 H1084 0.929 . S
C1092 C1093 1.377 . S
C1092 C1094 1.384 . S
C1093 C1092 1.377 . S
C1093 C1099 1.390 . S
C1094 H1085 0.930 . S
C1094 C1092 1.384 . S
C1094 C1095 1.372 . S
C1095 C1094 1.372 . S
C1095 C1096 1.400 . S
C1095 C1100 1.490 . S
C1096 H1086 0.930 . S
C1096 C1095 1.400 . S
C1096 C1099 1.386 . S
H1097 C1113 0.930 . S
H1098 C1114 0.931 . S
C1099 H1087 0.929 . S
C1099 C1093 1.390 . S
C1099 C1096 1.386 . S
C1100 C1095 1.490 . S
C1100 C1102 1.395 . S
C1100 C1103 1.403 . S
H1101 C1107 0.930 . S
C1102 H1088 0.930 . S
C1102 C1100 1.395 . S
C1102 C1105 1.403 . S
C1103 C1100 1.403 . S
C1103 C1104 1.524 . S
C1103 C1107 1.400 . S
C1104 H1089 0.960 . S
C1104 H1090 0.960 . S
C1104 H1091 0.960 . S
C1104 C1103 1.524 . S
C1105 C1102 1.403 . S
C1105 C1106 1.392 . S
C1105 C1109 1.495 . S
C1106 C1105 1.392 . S
C1106 C1107 1.385 . S
C1106 C1108 1.478 . S
C1107 H1101 0.930 . S
C1107 C1103 1.400 . S
C1107 C1106 1.385 . S
C1108 C1106 1.478 . S
C1108 C1110 1.381 . S
C1108 C1114 1.383 . S
C1109 C1105 1.495 . S
C1109 H1115 0.959 . S
C1109 H1116 0.961 . S
C1109 H1117 0.960 . S
C1110 C1108 1.381 . S
C1110 C1111 1.394 . S
C1110 H1118 0.930 . S
C1111 C1110 1.394 . S
C1111 C1112 1.383 . S
C1111 H1119 0.929 . S
C1112 C1111 1.383 . S
C1112 C1113 1.377 . S
C1113 H1097 0.930 . S
C1113 C1112 1.377 . S
C1113 C1114 1.379 . S
C1114 H1098 0.931 . S
C1114 C1108 1.383 . S
C1114 C1113 1.379 . S
H1115 C1109 0.959 . S
H1116 C1109 0.961 . S
H1117 C1109 0.960 . S
H1118 C1110 0.930 . S
H1119 C1111 0.929 . S
C265 C76 1.727 . S
C284 C105 1.683 . S
C320 C145 1.350 . S
C301 C88 1.344 . S
C356 C194 1.267 . S
C337 C52 1.332 . S
C392 C225 1.529 . S
C373 C64 1.614 . S
C428 C114 1.718 1_565 S
C409 C28 1.743 . S
C445 C40 1.338 . S
C464 C154 1.285 . S
C481 C4 1.338 . S
C500 C185 1.269 . S
C517 C16 1.618 . S
C536 C234 1.546 . S
C572 C115 0.708 . S
C553 C69 0.698 . S
C608 C155 1.294 . S
C589 C81 1.192 . S
C644 C191 0.603 . S
C625 C93 0.610 . S
C661 C57 0.856 . S
C680 C235 0.887 . S
C697 C21 0.697 . S
C716 C106 0.693 . S
C752 C146 1.293 1_565 S
C733 C33 1.189 . S
C788 C182 0.570 . S
C769 C45 0.609 . S
C805 C9 0.867 . S
C824 C226 0.886 . S
C841 C66 1.622 . S
C860 C111 1.665 . S
C877 C78 1.401 . S
C896 C151 1.417 . S
C932 C195 1.926 . S
C913 C90 1.793 . S
C968 C231 1.437 . S
C949 C54 1.420 . S
C985 C18 1.624 . S
C1004 C102 1.652 . S
C1040 C142 1.418 . S
C1021 C30 1.385 . S
C1076 C186 1.923 . S
C1057 C42 1.808 . S
C1093 C6 1.409 . S
C1112 C222 1.433 . S
