# Generated by pormake.
# Topology rtl, (3,6)-cn, num edge types: 1
# Building blocks:
#     Node 0, Type 0, BuildingBlock: CUQRIR_clean_linker_1, # of connection points: 3
#     Node 1, Type 0, BuildingBlock: CUQRIR_clean_linker_1, # of connection points: 3
#     Node 2, Type 0, BuildingBlock: CUQRIR_clean_linker_1, # of connection points: 3
#     Node 3, Type 0, BuildingBlock: CUQRIR_clean_linker_1, # of connection points: 3
#     Node 4, Type 1, BuildingBlock: KUMJIN_clean_sbu_1, # of connection points: 6
#     Node 5, Type 1, BuildingBlock: KUMJIN_clean_sbu_1, # of connection points: 6
#     Edge 6, Type (0, 1), BuildingBlock: MIFKUJ_clean_linker_0, # of connection points: 2
#     Edge 7, Type (0, 1), BuildingBlock: MIFKUJ_clean_linker_0, # of connection points: 2
#     Edge 8, Type (0, 1), BuildingBlock: MIFKUJ_clean_linker_0, # of connection points: 2
#     Edge 9, Type (0, 1), BuildingBlock: MIFKUJ_clean_linker_0, # of connection points: 2
#     Edge 10, Type (0, 1), BuildingBlock: MIFKUJ_clean_linker_0, # of connection points: 2
#     Edge 11, Type (0, 1), BuildingBlock: MIFKUJ_clean_linker_0, # of connection points: 2
#     Edge 12, Type (0, 1), BuildingBlock: MIFKUJ_clean_linker_0, # of connection points: 2
#     Edge 13, Type (0, 1), BuildingBlock: MIFKUJ_clean_linker_0, # of connection points: 2
#     Edge 14, Type (0, 1), BuildingBlock: MIFKUJ_clean_linker_0, # of connection points: 2
#     Edge 15, Type (0, 1), BuildingBlock: MIFKUJ_clean_linker_0, # of connection points: 2
#     Edge 16, Type (0, 1), BuildingBlock: MIFKUJ_clean_linker_0, # of connection points: 2
#     Edge 17, Type (0, 1), BuildingBlock: MIFKUJ_clean_linker_0, # of connection points: 2
# Relax obj value: 0.062
# Max RMSD: 0.212
# Mean RMSD: 0.168
data_MOF--net-rtl--node1-KUMJIN_clean_sbu_1--node2-CUQRIR_clean_linker_1--edge1-MIFKUJ_clean_linker_0
_symmetry_space_group_name_H-M    P1
_symmetry_Int_Tables_number       1
_symmetry_cell_setting            triclinic
loop_
_symmetry_equiv_pos_as_xyz
'x, y, z'
_cell_length_a     43.153002
_cell_length_b     43.324373
_cell_length_c     32.108579
_cell_angle_alpha  79.667465
_cell_angle_beta   98.944232
_cell_angle_gamma 90.505218
loop_
_atom_site_label
_atom_site_type_symbol
_atom_site_fract_x
_atom_site_fract_y
_atom_site_fract_z
_atom_type_partial_charge
C0 C 0.24218 0.8115 1.00096 0.0
N1 N 0.22083 0.83227 1.00745 0.0
N2 N 0.25276 0.79159 0.03788 0.0
C3 C 0.25118 0.80891 0.95823 0.0
C4 C 0.23702 0.80058 0.06706 0.0
N5 N 0.2175 0.82516 0.04856 0.0
C6 C 0.24116 0.78592 0.11374 0.0
H7 H 0.23099 0.81512 0.93212 0.0
H8 H 0.25965 0.78482 0.9581 0.0
H9 H 0.27047 0.8253 0.95179 0.0
H10 H 0.24231 0.80445 0.13372 0.0
H11 H 0.26263 0.77081 0.12331 0.0
H12 H 0.22047 0.77142 0.11986 0.0
C13 C 0.71952 0.72872 0.65636 0.0
N14 N 0.69878 0.70658 0.6459 0.0
N15 N 0.73211 0.74251 0.62166 0.0
C16 C 0.72884 0.73542 0.70092 0.0
C17 C 0.71827 0.72801 0.58983 0.0
N18 N 0.69793 0.70632 0.60442 0.0
C19 C 0.72497 0.73471 0.54452 0.0
H20 H 0.73728 0.75969 0.70033 0.0
H21 H 0.74818 0.719 0.71796 0.0
H22 H 0.70881 0.73176 0.71905 0.0
H23 H 0.74426 0.71884 0.54164 0.0
H24 H 0.73238 0.75933 0.53588 0.0
H25 H 0.70399 0.73037 0.52171 0.0
C26 C 0.79995 0.20606 0.08627 0.0
N27 N 0.81977 0.18561 0.07613 0.0
N28 N 0.78307 0.22285 0.05039 0.0
C29 C 0.7979 0.21028 0.13129 0.0
C30 C 0.7934 0.21171 0.01796 0.0
N31 N 0.8156 0.1888 0.03371 0.0
C32 C 0.78282 0.22434 0.97108 0.0
H33 H 0.77986 0.1944 0.14383 0.0
H34 H 0.79111 0.2348 0.13201 0.0
H35 H 0.82057 0.20419 0.15271 0.0
H36 H 0.79869 0.24341 0.96034 0.0
H37 H 0.75854 0.23408 0.9655 0.0
H38 H 0.78373 0.20617 0.95111 0.0
C39 C 0.30552 0.29738 0.41772 0.0
N40 N 0.32795 0.3182 0.42787 0.0
N41 N 0.2962 0.28107 0.45369 0.0
C42 C 0.29221 0.29346 0.37281 0.0
C43 C 0.31397 0.2924 0.48594 0.0
N44 N 0.33342 0.31466 0.47038 0.0
C45 C 0.31144 0.28263 0.53268 0.0
H46 H 0.27262 0.31064 0.36015 0.0
H47 H 0.2828 0.2697 0.37189 0.0
H48 H 0.31034 0.29783 0.35153 0.0
H49 H 0.30182 0.25872 0.53925 0.0
H50 H 0.29552 0.29941 0.54172 0.0
H51 H 0.33466 0.28314 0.55293 0.0
Eu52 Eu 0.03944 0.9795 0.51642 0.0
C53 C 0.93558 0.08046 0.51436 0.0
N54 N 0.96716 0.08189 0.52467 0.0
C55 C 0.96655 0.13386 0.48344 0.0
C56 C 0.91824 0.10537 0.48642 0.0
C57 C 0.98268 0.10855 0.51138 0.0
C58 C 0.93425 0.13202 0.47024 0.0
C59 C 0.88741 0.05386 0.5269 0.0
C60 C 0.92044 0.05511 0.53446 0.0
C61 C 0.87008 0.0778 0.49743 0.0
C62 C 0.88547 0.10352 0.47723 0.0
Eu63 Eu 0.99301 0.03843 0.57153 0.0
N64 N 0.93779 0.03318 0.56427 0.0
C65 C 0.87271 0.02943 0.55078 0.0
C66 C 0.9234 0.011 0.59019 0.0
C67 C 0.89078 0.0082 0.58308 0.0
H68 H 1.00765 0.10986 0.52163 0.0
H69 H 0.87958 0.99004 0.60302 0.0
H70 H 0.99502 0.91442 0.52051 0.0
H71 H 0.16447 0.98608 0.57369 0.0
H72 H 0.937 0.99554 0.61673 0.0
H73 H 0.84739 0.02758 0.54584 0.0
H74 H 0.11301 0.00416 0.53056 0.0
H75 H 0.97901 0.15468 0.47206 0.0
H76 H 0.84471 0.07726 0.49142 0.0
H77 H 0.87174 0.12241 0.45583 0.0
H78 H 0.99583 0.86146 0.5632 0.0
H79 H 0.92177 0.15167 0.44873 0.0
H80 H 0.16892 0.93504 0.62354 0.0
N81 N 0.03831 0.92732 0.55406 0.0
C82 C 0.06494 0.91661 0.5813 0.0
C83 C 0.01514 0.87688 0.56951 0.0
C84 C 0.06704 0.88584 0.60527 0.0
C85 C 0.01442 0.90732 0.54594 0.0
C86 C 0.04129 0.86625 0.6 0.0
N87 N 0.08892 0.96431 0.55709 0.0
C88 C 0.11494 0.98197 0.55244 0.0
C89 C 0.1199 0.92416 0.60745 0.0
C90 C 0.09114 0.93546 0.58234 0.0
C91 C 0.14639 0.94292 0.60481 0.0
C92 C 0.14399 0.97175 0.57668 0.0
H93 H 0.042 0.84244 0.61774 0.0
H94 H 0.0972 0.85157 0.65086 0.0
H95 H 0.14334 0.88526 0.65311 0.0
O96 O 0.05557 0.99425 0.45455 0.0
O97 O 0.05983 0.99334 0.58071 0.0
O98 O 0.01551 0.99376 0.6103 0.0
O99 O 0.05181 0.94512 0.47944 0.0
O100 O 0.05518 0.02974 0.50287 0.0
O101 O 0.04032 0.05559 0.55471 0.0
O102 O 0.97428 0.05878 0.62169 0.0
O103 O 0.99247 0.04834 0.49915 0.0
O104 O 0.99174 0.99905 0.48274 0.0
O105 O 0.02394 0.06192 0.61512 0.0
O106 O 0.9822 0.98603 0.58429 0.0
O107 O 0.98807 0.96898 0.52197 0.0
C108 C 0.04575 0.989 0.61468 0.0
C109 C 0.04269 0.96036 0.40473 0.0
C110 C 0.04766 0.94729 0.33494 0.0
C111 C 0.01467 0.946 0.32595 0.0
C112 C 0.01001 0.95874 0.39511 0.0
C113 C 0.99609 0.95192 0.35571 0.0
C114 C 0.06141 0.95497 0.37457 0.0
C115 C 0.05748 0.05284 0.52484 0.0
C116 C 0.05748 0.96585 0.4471 0.0
C117 C 0.09522 0.87507 0.63201 0.0
C118 C 0.12155 0.89422 0.6332 0.0
C119 C 0.98427 0.02904 0.47229 0.0
C120 C 0.00885 0.08712 0.67029 0.0
C121 C 0.99636 0.10474 0.73427 0.0
C122 C 0.02333 0.12334 0.73464 0.0
C123 C 0.03578 0.10559 0.67202 0.0
C124 C 0.98908 0.08679 0.70146 0.0
C125 C 0.04285 0.1236 0.70391 0.0
C126 C 0.97415 0.96764 0.55598 0.0
C127 C 1.00186 0.0688 0.63542 0.0
H128 H 1.0031 0.93956 0.29642 0.0
H129 H 0.99541 0.96214 0.41848 0.0
H130 H 0.97081 0.95054 0.34856 0.0
H131 H 0.08666 0.95651 0.38232 0.0
H132 H 0.02921 0.13817 0.75841 0.0
H133 H 0.05128 0.10643 0.64835 0.0
H134 H 0.9685 0.07228 0.70053 0.0
H135 H 0.06348 0.13801 0.70465 0.0
Eu136 Eu 0.48556 0.49224 0.99878 0.0
C137 C 0.62127 0.53871 0.0671 0.0
N138 N 0.60543 0.51376 0.08498 0.0
C139 C 0.65234 0.4819 0.10054 0.0
C140 C 0.65343 0.5359 0.06462 0.0
C141 C 0.62049 0.4858 0.10239 0.0
C142 C 0.66887 0.50702 0.08144 0.0
C143 C 0.62077 0.59301 0.03068 0.0
C144 C 0.60509 0.56702 0.0503 0.0
C145 C 0.65283 0.59028 0.02832 0.0
C146 C 0.66909 0.56183 0.04521 0.0
Eu147 Eu 0.55176 0.52264 0.08574 0.0
N148 N 0.57369 0.56863 0.05137 0.0
C149 C 0.60365 0.6209 0.01349 0.0
C150 C 0.55713 0.59604 0.03593 0.0
C151 C 0.57176 0.62246 0.01639 0.0
H152 H 0.60801 0.46664 0.11831 0.0
H153 H 0.55845 0.64405 1.00369 0.0
H154 H 0.41947 0.53258 0.99495 0.0
H155 H 0.51085 0.36598 0.0521 0.0
H156 H 0.53271 0.59777 0.03867 0.0
H157 H 0.61484 0.64138 0.9981 0.0
H158 H 0.51887 0.41887 0.01346 0.0
H159 H 0.66416 0.4596 0.11407 0.0
H160 H 0.66522 0.61 0.01326 0.0
H161 H 0.69379 0.56008 0.04296 0.0
H162 H 0.36778 0.52411 0.01912 0.0
H163 H 0.69355 0.50392 0.08006 0.0
H164 H 0.4635 0.3548 0.08631 0.0
N165 N 0.43569 0.48588 0.01998 0.0
C166 C 0.42902 0.45673 0.03997 0.0
C167 C 0.38483 0.50501 0.0253 0.0
C168 C 0.39999 0.45087 0.05455 0.0
C169 C 0.41405 0.50981 0.0118 0.0
C170 C 0.37783 0.47548 0.04703 0.0
N171 N 0.47932 0.43924 0.03151 0.0
C172 C 0.49939 0.41517 0.03092 0.0
C173 C 0.44529 0.4025 0.06724 0.0
C174 C 0.45165 0.43294 0.04655 0.0
C175 C 0.46749 0.37848 0.07066 0.0
C176 C 0.49433 0.38473 0.05161 0.0
H177 H 0.35527 0.47192 0.0578 0.0
H178 H 0.3721 0.416 0.08837 0.0
H179 H 0.41163 0.3736 0.09921 0.0
O180 O 0.48482 0.46801 0.94419 0.0
O181 O 0.47474 0.49571 0.06516 0.0
O182 O 0.52151 0.48177 0.10853 0.0
O183 O 0.45123 0.50515 0.94069 0.0
O184 O 0.53562 0.47268 1.00982 0.0
O185 O 0.55063 0.47112 0.08203 0.0
O186 O 0.54395 0.55143 0.13267 0.0
O187 O 0.56174 0.52839 0.01697 0.0
O188 O 0.51383 0.53348 0.97256 0.0
O189 O 0.58173 0.51705 0.14821 0.0
O190 O 0.50507 0.54958 0.06849 0.0
O191 O 0.48166 0.54418 0.9998 0.0
C192 C 0.49071 0.48291 0.10235 0.0
C193 C 0.43537 0.46502 0.90136 0.0
C194 C 0.41214 0.4427 0.83924 0.0
C195 C 0.38645 0.433 0.86009 0.0
C196 C 0.40957 0.45492 0.92167 0.0
C197 C 0.38534 0.43892 0.90115 0.0
C198 C 0.43678 0.45847 0.8603 0.0
C199 C 0.55382 0.46171 0.04627 0.0
C200 C 0.46024 0.48343 0.9218 0.0
C201 C 0.39412 0.42087 0.07647 0.0
C202 C 0.41672 0.39676 0.08283 0.0
C203 C 0.54426 0.53761 0.97944 0.0
C204 C 0.55881 0.52887 0.2055 0.0
C205 C 0.5651 0.53602 0.27995 0.0
C206 C 0.54414 0.51157 0.28841 0.0
C207 C 0.53769 0.50478 0.21446 0.0
C208 C 0.57265 0.54441 0.23836 0.0
C209 C 0.53047 0.49608 0.25578 0.0
C210 C 0.48463 0.55842 0.03322 0.0
C211 C 0.56645 0.5379 0.16199 0.0
H212 H 0.36735 0.42059 0.8447 0.0
H213 H 0.40788 0.45973 0.95308 0.0
H214 H 0.36549 0.43128 0.91699 0.0
H215 H 0.45656 0.46633 0.84434 0.0
H216 H 0.53868 0.50433 0.32045 0.0
H217 H 0.52701 0.49277 0.18944 0.0
H218 H 0.58883 0.56324 0.23147 0.0
H219 H 0.51428 0.47728 0.26251 0.0
H220 H 0.29234 0.2243 0.42991 0.0
H221 H 0.25027 0.18614 0.43938 0.0
H222 H 0.20239 0.24994 0.49786 0.0
H223 H 0.24397 0.28835 0.48712 0.0
H224 H 0.20906 0.18738 0.5448 0.0
H225 H 0.1739 0.24259 0.40113 0.0
H226 H 0.17957 0.26346 0.32611 0.0
H227 H 0.19554 0.17014 0.3052 0.0
H228 H 0.19046 0.14875 0.38036 0.0
H229 H 0.06615 0.10808 0.55534 0.0
H230 H 0.10548 0.14763 0.54071 0.0
H231 H 0.14243 0.09224 0.45993 0.0
H232 H 0.10232 0.05322 0.47283 0.0
H233 H 0.14182 0.15077 0.42394 0.0
H234 H 0.17853 0.09459 0.56509 0.0
H235 H 0.17496 0.07174 0.64022 0.0
H236 H 0.15941 0.16358 0.66665 0.0
H237 H 0.16245 0.18695 0.59146 0.0
C238 C 0.27246 0.23025 0.44397 0.0
C239 C 0.27097 0.25927 0.45726 0.0
C240 C 0.24862 0.20849 0.44962 0.0
C241 C 0.22316 0.21529 0.46919 0.0
C242 C 0.22181 0.24424 0.48272 0.0
C243 C 0.24541 0.26612 0.47653 0.0
C244 C 0.19818 0.19204 0.47621 0.0
C245 C 0.19405 0.17964 0.51841 0.0
C246 C 0.1793 0.1813 0.44178 0.0
C247 C 0.18212 0.19411 0.3965 0.0
C248 C 0.1789 0.22655 0.38065 0.0
C249 C 0.18195 0.23847 0.33808 0.0
C250 C 0.188 0.21815 0.31093 0.0
C251 C 0.1909 0.18586 0.32628 0.0
C252 C 0.18792 0.17382 0.36886 0.0
C253 C 0.08252 0.10429 0.5343 0.0
C254 C 0.08109 0.07725 0.51552 0.0
C255 C 0.10519 0.12691 0.52616 0.0
C256 C 0.12739 0.12272 0.49982 0.0
C257 C 0.12567 0.09603 0.48045 0.0
C258 C 0.10273 0.07361 0.48807 0.0
C259 C 0.15252 0.146 0.49269 0.0
C260 C 0.15676 0.15842 0.45045 0.0
C261 C 0.17186 0.15641 0.52715 0.0
C262 C 0.17043 0.14249 0.57254 0.0
C263 C 0.17416 0.1099 0.58685 0.0
C264 C 0.17225 0.09685 0.62946 0.0
C265 C 0.16689 0.11619 0.65817 0.0
C266 C 0.16353 0.14863 0.64436 0.0
C267 C 0.16537 0.16179 0.60176 0.0
H268 H 0.16539 0.10605 0.69113 0.0
H269 H 0.19035 0.22743 0.27798 0.0
H270 H 0.31483 0.79883 0.04427 0.0
H271 H 0.35448 0.75793 0.04676 0.0
H272 H 0.2819 0.6887 0.04509 0.0
H273 H 0.24258 0.72978 0.04427 0.0
H274 H 0.33338 0.66352 0.09496 0.0
H275 H 0.30889 0.72257 0.95332 0.0
H276 H 0.30126 0.77064 0.8983 0.0
H277 H 0.39851 0.7924 0.92861 0.0
H278 H 0.4066 0.74474 0.98442 0.0
H279 H 0.44054 0.58647 0.96636 0.0
H280 H 0.4003 0.62534 0.96815 0.0
H281 H 0.43844 0.62886 0.09957 0.0
H282 H 0.47814 0.58946 0.09856 0.0
H283 H 0.40061 0.68405 0.98113 0.0
H284 H 0.37942 0.63614 0.15527 0.0
H285 H 0.38419 0.58558 0.20568 0.0
H286 H 0.3712 0.53591 0.10018 0.0
H287 H 0.36585 0.58611 0.04911 0.0
C288 C 0.30771 0.77471 0.04528 0.0
C289 C 0.27604 0.76709 0.04414 0.0
C290 C 0.33016 0.75144 0.04642 0.0
C291 C 0.3211 0.7203 0.04527 0.0
C292 C 0.28946 0.71252 0.04594 0.0
C293 C 0.26706 0.73582 0.04541 0.0
C294 C 0.34432 0.69644 0.04069 0.0
C295 C 0.3481 0.66803 0.07013 0.0
C296 C 0.36291 0.70185 1.00747 0.0
C297 C 0.3583 0.73019 0.97329 0.0
C298 C 0.32862 0.73768 0.94841 0.0
C299 C 0.3242 0.76487 0.91709 0.0
C300 C 0.34937 0.78458 0.91 0.0
C301 C 0.37903 0.77711 0.93416 0.0
C302 C 0.38355 0.75001 0.96563 0.0
C303 C 0.44045 0.59554 0.99565 0.0
C304 C 0.46233 0.58443 0.03251 0.0
C305 C 0.41748 0.61787 0.99654 0.0
C306 C 0.416 0.62957 0.03422 0.0
C307 C 0.43873 0.61966 0.0704 0.0
C308 C 0.46156 0.59723 0.06964 0.0
C309 C 0.39031 0.6516 0.03612 0.0
C310 C 0.38594 0.67958 1.00602 0.0
C311 C 0.37054 0.64531 0.06788 0.0
C312 C 0.37248 0.61496 0.09837 0.0
C313 C 0.37733 0.61445 0.14282 0.0
C314 C 0.38019 0.58584 0.1715 0.0
C315 C 0.37807 0.55758 0.15611 0.0
C316 C 0.37292 0.55783 0.11201 0.0
C317 C 0.36998 0.58636 0.0832 0.0
H318 H 0.3803 0.53548 0.17833 0.0
H319 H 0.34591 0.80563 0.88575 0.0
H320 H 0.73148 0.80233 0.63457 0.0
H321 H 0.77356 0.84059 0.6261 0.0
H322 H 0.83078 0.77016 0.59305 0.0
H323 H 0.78908 0.73195 0.60296 0.0
H324 H 0.86575 0.80209 0.64338 0.0
H325 H 0.78946 0.8274 0.51641 0.0
H326 H 0.7369 0.84129 0.47491 0.0
H327 H 0.736 0.92623 0.52614 0.0
H328 H 0.7884 0.91259 0.56848 0.0
H329 H 0.9356 0.94126 0.49687 0.0
H330 H 0.89591 0.90142 0.50991 0.0
H331 H 0.91893 0.89973 0.64597 0.0
H332 H 0.95899 0.93916 0.63309 0.0
H333 H 0.84398 0.90363 0.54344 0.0
H334 H 0.90751 0.82897 0.70005 0.0
H335 H 0.95996 0.8073 0.73393 0.0
H336 H 0.98755 0.81306 0.61007 0.0
H337 H 0.93549 0.8355 0.57541 0.0
C338 C 0.75332 0.79512 0.62622 0.0
C339 C 0.75736 0.76436 0.61962 0.0
C340 C 0.77718 0.81694 0.62095 0.0
C341 C 0.80526 0.80838 0.60844 0.0
C342 C 0.80941 0.77736 0.60274 0.0
C343 C 0.78565 0.75559 0.60822 0.0
C344 C 0.8302 0.83167 0.60051 0.0
C345 C 0.86091 0.82438 0.62171 0.0
C346 C 0.82414 0.86049 0.57152 0.0
C347 C 0.79271 0.86881 0.54596 0.0
C348 C 0.77795 0.84892 0.51908 0.0
C349 C 0.7482 0.85677 0.49537 0.0
C350 C 0.73308 0.88458 0.49797 0.0
C351 C 0.74772 0.90466 0.52421 0.0
C352 C 0.77745 0.89689 0.54806 0.0
C353 C 0.93229 0.93224 0.52957 0.0
C354 C 0.95026 0.94344 0.56394 0.0
C355 C 0.90956 0.90955 0.53699 0.0
C356 C 0.90451 0.89739 0.57895 0.0
C357 C 0.92261 0.90843 0.61335 0.0
C358 C 0.94528 0.9312 0.60593 0.0
C359 C 0.87952 0.87408 0.58653 0.0
C360 C 0.84876 0.88145 0.56538 0.0
C361 C 0.88565 0.84495 0.6147 0.0
C362 C 0.91779 0.83423 0.63525 0.0
C363 C 0.92494 0.826 0.68009 0.0
C364 C 0.95457 0.81363 0.69939 0.0
C365 C 0.97715 0.8091 0.67411 0.0
C366 C 0.97019 0.81713 0.62953 0.0
C367 C 0.9407 0.82985 0.61006 0.0
H368 H 0.99999 0.79923 0.68905 0.0
H369 H 0.71005 0.89062 0.47958 0.0
H370 H 0.78077 0.28174 1.00418 0.0
H371 H 0.7414 0.32283 1.00096 0.0
H372 H 0.69465 0.26009 0.09064 0.0
H373 H 0.73262 0.21838 0.09092 0.0
H374 H 0.65259 0.29056 0.03577 0.0
H375 H 0.7454 0.32168 0.11876 0.0
H376 H 0.80114 0.33487 0.1352 0.0
H377 H 0.78918 0.41128 0.02814 0.0
H378 H 0.73343 0.39828 0.01069 0.0
H379 H 0.57215 0.4108 0.10825 0.0
H380 H 0.61177 0.37058 0.10751 0.0
H381 H 0.63047 0.4197 0.98505 0.0
H382 H 0.59028 0.45948 0.9851 0.0
H383 H 0.68616 0.39745 0.05593 0.0
H384 H 0.59071 0.36379 0.97632 0.0
H385 H 0.53467 0.35056 0.96748 0.0
H386 H 0.55233 0.27789 0.07885 0.0
H387 H 0.60843 0.29111 0.08883 0.0
C388 C 0.76173 0.27668 0.02253 0.0
C389 C 0.75967 0.24697 0.04783 0.0
C390 C 0.7395 0.30028 0.02125 0.0
C391 C 0.7153 0.29491 0.0463 0.0
C392 C 0.71307 0.26499 0.07113 0.0
C393 C 0.7349 0.24124 0.07165 0.0
C394 C 0.69231 0.32032 0.04672 0.0
C395 C 0.66011 0.31378 0.04068 0.0
C396 C 0.70182 0.35087 0.05272 0.0
C397 C 0.73532 0.35879 0.06315 0.0
C398 C 0.75471 0.34115 0.09853 0.0
C399 C 0.7863 0.34861 0.10806 0.0
C400 C 0.79872 0.37384 0.08266 0.0
C401 C 0.77954 0.39171 0.04774 0.0
C402 C 0.74794 0.38432 0.03803 0.0
C403 C 0.58483 0.41298 0.08131 0.0
C404 C 0.57822 0.43803 0.04666 0.0
C405 C 0.60736 0.39008 0.0809 0.0
C406 C 0.62394 0.39226 0.04621 0.0
C407 C 0.61789 0.4177 0.01208 0.0
C408 C 0.59488 0.44021 0.01202 0.0
C409 C 0.64692 0.36743 0.04501 0.0
C410 C 0.67895 0.37416 0.05096 0.0
C411 C 0.63734 0.3369 0.03991 0.0
C412 C 0.60371 0.32865 0.03355 0.0
C413 C 0.58261 0.34517 0.99914 0.0
C414 C 0.55084 0.33763 0.99386 0.0
C415 C 0.53995 0.31339 0.02258 0.0
C416 C 0.56081 0.29665 0.05662 0.0
C417 C 0.59259 0.30415 0.06209 0.0
H418 H 0.51534 0.30762 0.01847 0.0
H419 H 0.82318 0.37958 0.09009 0.0
H420 H 0.22814 0.88241 0.06822 0.0
H421 H 0.20054 0.90744 0.11537 0.0
H422 H 0.13605 0.83056 0.12365 0.0
H423 H 0.16498 0.80503 0.0787 0.0
H424 H 0.14624 0.92997 0.11773 0.0
H425 H 0.11582 0.81198 0.22063 0.0
H426 H 0.13691 0.75772 0.24169 0.0
H427 H 0.22881 0.7902 0.22251 0.0
H428 H 0.20842 0.84469 0.20214 0.0
H429 H 0.03501 0.95883 0.24663 0.0
H430 H 0.06504 0.94137 0.19674 0.0
H431 H 0.13657 0.90225 0.30203 0.0
H432 H 0.10535 0.91707 0.35247 0.0
H433 H 0.12795 0.86304 0.25381 0.0
H434 H 0.14561 0.97244 0.22639 0.0
H435 H 0.1324 0.02902 0.20985 0.0
H436 H 0.08028 0.01827 0.08819 0.0
H437 H 0.09284 0.96152 0.10423 0.0
C438 C 0.20781 0.8713 0.07991 0.0
C439 C 0.19853 0.84196 0.07038 0.0
C440 C 0.19204 0.88549 0.1067 0.0
C441 C 0.16658 0.87058 0.12395 0.0
C442 C 0.15612 0.84215 0.11183 0.0
C443 C 0.17236 0.82768 0.08596 0.0
C444 C 0.15205 0.88371 0.15636 0.0
C445 C 0.14222 0.91535 0.14749 0.0
C446 C 0.1478 0.86502 0.196 0.0
C447 C 0.16049 0.83239 0.20948 0.0
C448 C 0.14056 0.80757 0.2212 0.0
C449 C 0.1524 0.77677 0.23298 0.0
C450 C 0.18416 0.77051 0.23333 0.0
C451 C 0.2042 0.79507 0.22214 0.0
C452 C 0.19252 0.82591 0.2105 0.0
C453 C 0.05696 0.94623 0.2594 0.0
C454 C 0.06749 0.93931 0.30391 0.0
C455 C 0.07447 0.93671 0.23059 0.0
C456 C 0.10341 0.92079 0.24535 0.0
C457 C 0.11435 0.91449 0.28965 0.0
C458 C 0.09657 0.92344 0.31855 0.0
C459 C 0.12146 0.90925 0.21493 0.0
C460 C 0.13199 0.87781 0.22418 0.0
C461 C 0.12754 0.92853 0.17656 0.0
C462 C 0.11994 0.96266 0.1667 0.0
C463 C 0.13114 0.98209 0.19624 0.0
C464 C 0.1238 0.0142 0.18693 0.0
C465 C 0.10545 0.02722 0.14804 0.0
C466 C 0.09447 0.00815 0.11832 0.0
C467 C 0.10172 0.97601 0.12748 0.0
H468 H 0.09978 0.05208 0.1409 0.0
H469 H 0.19325 0.74664 0.24232 0.0
H470 H 0.63633 0.70392 0.64489 0.0
H471 H 0.60866 0.67201 0.69812 0.0
H472 H 0.69721 0.6322 0.76754 0.0
H473 H 0.72453 0.66314 0.71287 0.0
H474 H 0.65364 0.58839 0.76982 0.0
H475 H 0.66126 0.69381 0.79643 0.0
H476 H 0.65468 0.75137 0.77823 0.0
H477 H 0.55476 0.74215 0.75076 0.0
H478 H 0.5608 0.68447 0.76816 0.0
H479 H 0.60686 0.53851 0.97336 0.0
H480 H 0.63217 0.56602 0.91481 0.0
H481 H 0.5419 0.60039 0.845 0.0
H482 H 0.51644 0.57367 0.90413 0.0
H483 H 0.58539 0.64621 0.84188 0.0
H484 H 0.57896 0.53955 0.81835 0.0
H485 H 0.58703 0.48227 0.83974 0.0
H486 H 0.68666 0.49429 0.86489 0.0
H487 H 0.67914 0.55171 0.84423 0.0
C488 C 0.64964 0.6876 0.67079 0.0
C489 C 0.68239 0.68563 0.67477 0.0
C490 C 0.63395 0.66973 0.70155 0.0
C491 C 0.65088 0.65005 0.73733 0.0
C492 C 0.68361 0.64722 0.74036 0.0
C493 C 0.69922 0.66491 0.70935 0.0
C494 C 0.63474 0.6337 0.77264 0.0
C495 C 0.63896 0.6011 0.78581 0.0
C496 C 0.61522 0.65013 0.79329 0.0
C497 C 0.61151 0.68482 0.78318 0.0
C498 C 0.6379 0.70405 0.78622 0.0
C499 C 0.63427 0.7367 0.77608 0.0
C500 C 0.60433 0.75041 0.76325 0.0
C501 C 0.57795 0.73149 0.76064 0.0
C502 C 0.58145 0.69882 0.77066 0.0
C503 C 0.59237 0.55218 0.9458 0.0
C504 C 0.5596 0.55401 0.94361 0.0
C505 C 0.60688 0.56766 0.91211 0.0
C506 C 0.58892 0.585 0.87523 0.0
C507 C 0.55623 0.5871 0.87308 0.0
C508 C 0.5417 0.57165 0.90683 0.0
C509 C 0.60421 0.60095 0.83892 0.0
C510 C 0.59991 0.6335 0.82567 0.0
C511 C 0.62385 0.5845 0.81851 0.0
C512 C 0.62846 0.54995 0.83006 0.0
C513 C 0.60258 0.52999 0.82865 0.0
C514 C 0.60705 0.4975 0.84064 0.0
C515 C 0.63733 0.48465 0.85376 0.0
C516 C 0.66321 0.50427 0.85475 0.0
C517 C 0.65886 0.53679 0.84286 0.0
H518 H 0.64075 0.45949 0.86309 0.0
H519 H 0.60156 0.77569 0.75541 0.0
H520 H 0.87915 0.19314 0.11212 0.0
H521 H 0.9087 0.15844 0.17436 0.0
H522 H 0.83248 0.09331 0.17279 0.0
H523 H 0.80334 0.12803 0.1101 0.0
H524 H 0.84823 0.11224 0.25012 0.0
H525 H 0.90044 0.07162 0.15068 0.0
H526 H 0.92993 0.07408 0.09034 0.0
H527 H 1.00691 0.1166 0.15956 0.0
H528 H 0.97765 0.11495 0.22005 0.0
H529 H 0.95227 0.99558 0.41519 0.0
H530 H 0.92509 0.01568 0.34267 0.0
H531 H 0.94717 0.1102 0.35989 0.0
H532 H 0.97664 0.09014 0.43092 0.0
H533 H 0.95689 0.06913 0.27273 0.0
H534 H 0.86002 0.13729 0.32259 0.0
H535 H 0.82612 0.13439 0.37832 0.0
H536 H 0.83612 0.03396 0.40502 0.0
H537 H 0.86932 0.03622 0.34866 0.0
C538 C 0.86948 0.17078 0.12419 0.0
C539 C 0.83949 0.16266 0.1062 0.0
C540 C 0.88617 0.15108 0.15975 0.0
C541 C 0.87284 0.12321 0.1781 0.0
C542 C 0.84326 0.1146 0.159 0.0
C543 C 0.82676 0.13418 0.12319 0.0
C544 C 0.88808 0.10506 0.21982 0.0
C545 C 0.87189 0.10256 0.25491 0.0
C546 C 0.91895 0.09245 0.22606 0.0
C547 C 0.93671 0.0934 0.1898 0.0
C548 C 0.92354 0.08176 0.15291 0.0
C549 C 0.94024 0.08297 0.11869 0.0
C550 C 0.97025 0.09554 0.12108 0.0
C551 C 0.98365 0.10689 0.15774 0.0
C552 C 0.96702 0.1058 0.19202 0.0
C553 C 0.95187 0.0206 0.40334 0.0
C554 C 0.96669 0.04127 0.42902 0.0
C555 C 0.93606 0.03203 0.36204 0.0
C556 C 0.93395 0.06439 0.34622 0.0
C557 C 0.94836 0.08514 0.37178 0.0
C558 C 0.96488 0.07365 0.4126 0.0
C559 C 0.91705 0.07671 0.30275 0.0
C560 C 0.9331 0.0785 0.2676 0.0
C561 C 0.88596 0.08855 0.29626 0.0
C562 C 0.86759 0.08698 0.3319 0.0
C563 C 0.85509 0.1146 0.3405 0.0
C564 C 0.83582 0.11306 0.37197 0.0
C565 C 0.82889 0.084 0.39505 0.0
C566 C 0.84153 0.05645 0.3871 0.0
C567 C 0.86066 0.05786 0.35547 0.0
H568 H 0.81367 0.08285 0.41906 0.0
H569 H 0.98315 0.09644 0.09456 0.0
H570 H 0.3171 0.3717 0.48162 0.0
H571 H 0.3421 0.39942 0.53785 0.0
H572 H 0.41609 0.32877 0.5731 0.0
H573 H 0.39021 0.30079 0.51745 0.0
H574 H 0.39308 0.33485 0.64024 0.0
H575 H 0.43 0.4073 0.53166 0.0
H576 H 0.42799 0.44357 0.46271 0.0
H577 H 0.36282 0.50359 0.50029 0.0
H578 H 0.364 0.46741 0.56922 0.0
H579 H 0.4581 0.41253 0.81116 0.0
H580 H 0.45556 0.39617 0.74123 0.0
H581 H 0.36495 0.44208 0.69927 0.0
H582 H 0.36718 0.45797 0.76917 0.0
H583 H 0.40662 0.4493 0.63443 0.0
H584 H 0.36461 0.36961 0.73753 0.0
H585 H 0.3682 0.33278 0.80633 0.0
H586 H 0.44735 0.28608 0.77709 0.0
H587 H 0.4445 0.323 0.70836 0.0
C588 C 0.33929 0.36292 0.5005 0.0
C589 C 0.35208 0.33453 0.49529 0.0
C590 C 0.35362 0.37866 0.53261 0.0
C591 C 0.38117 0.36633 0.55976 0.0
C592 C 0.39491 0.3388 0.55265 0.0
C593 C 0.38039 0.32298 0.52075 0.0
C594 C 0.39316 0.37986 0.59859 0.0
C595 C 0.39683 0.3598 0.63868 0.0
C596 C 0.39768 0.41248 0.59696 0.0
C597 C 0.39694 0.43448 0.55558 0.0
C598 C 0.41504 0.4281 0.52513 0.0
C599 C 0.41408 0.44868 0.48604 0.0
C600 C 0.39525 0.47585 0.4771 0.0
C601 C 0.37739 0.48253 0.50726 0.0
C602 C 0.37823 0.46201 0.54639 0.0
C603 C 0.43796 0.41959 0.78666 0.0
C604 C 0.41273 0.43629 0.79553 0.0
C605 C 0.43652 0.41025 0.74683 0.0
C606 C 0.41003 0.41789 0.71514 0.0
C607 C 0.38565 0.43608 0.72319 0.0
C608 C 0.38684 0.44494 0.76316 0.0
C609 C 0.40599 0.40427 0.67543 0.0
C610 C 0.40361 0.4243 0.63547 0.0
C611 C 0.40304 0.37158 0.67699 0.0
C612 C 0.40461 0.3493 0.71813 0.0
C613 C 0.38296 0.35167 0.74597 0.0
C614 C 0.38482 0.33075 0.78491 0.0
C615 C 0.40806 0.30717 0.79614 0.0
C616 C 0.42942 0.30441 0.76839 0.0
C617 C 0.42769 0.32532 0.72945 0.0
H618 H 0.40946 0.29099 0.82629 0.0
H619 H 0.39454 0.49175 0.44682 0.0
H620 H 0.63676 0.70527 0.57104 0.0
H621 H 0.61304 0.67198 0.52058 0.0
H622 H 0.70269 0.62581 0.53025 0.0
H623 H 0.72594 0.6584 0.58191 0.0
H624 H 0.67264 0.65361 0.44442 0.0
H625 H 0.6505 0.58496 0.5718 0.0
H626 H 0.62881 0.57294 0.63942 0.0
H627 H 0.53641 0.59892 0.57126 0.0
H628 H 0.55764 0.61166 0.50329 0.0
H629 H 0.62697 0.54398 0.3089 0.0
H630 H 0.64923 0.5698 0.36839 0.0
H631 H 0.5558 0.59257 0.38742 0.0
H632 H 0.53369 0.56524 0.32948 0.0
H633 H 0.58799 0.57624 0.46079 0.0
H634 H 0.60664 0.64786 0.33605 0.0
H635 H 0.62547 0.66539 0.26712 0.0
H636 H 0.72007 0.64047 0.32727 0.0
H637 H 0.70174 0.6224 0.39648 0.0
C638 C 0.6509 0.68705 0.56373 0.0
C639 C 0.68283 0.68359 0.58098 0.0
C640 C 0.63752 0.66835 0.53461 0.0
C641 C 0.65614 0.64641 0.52183 0.0
C642 C 0.68794 0.64252 0.53986 0.0
C643 C 0.70112 0.66086 0.56943 0.0
C644 C 0.6431 0.6293 0.48724 0.0
C645 C 0.65446 0.6363 0.44809 0.0
C646 C 0.61858 0.60772 0.49172 0.0
C647 C 0.60572 0.59956 0.53248 0.0
C648 C 0.62559 0.58837 0.57126 0.0
C649 C 0.61338 0.58138 0.60965 0.0
C650 C 0.58127 0.58523 0.60965 0.0
C651 C 0.56129 0.59598 0.57122 0.0
C652 C 0.5734 0.60307 0.53274 0.0
C653 C 0.6113 0.55464 0.32578 0.0
C654 C 0.57868 0.5528 0.31463 0.0
C655 C 0.62398 0.56952 0.35966 0.0
C656 C 0.60426 0.58372 0.38213 0.0
C657 C 0.57159 0.58182 0.3708 0.0
C658 C 0.55894 0.56633 0.3376 0.0
C659 C 0.61758 0.60037 0.41751 0.0
C660 C 0.60624 0.59342 0.45688 0.0
C661 C 0.64165 0.62265 0.41292 0.0
C662 C 0.65277 0.63347 0.37135 0.0
C663 C 0.63143 0.6459 0.33451 0.0
C664 C 0.64202 0.65596 0.2954 0.0
C665 C 0.67394 0.65396 0.29279 0.0
C666 C 0.69535 0.64196 0.32932 0.0
C667 C 0.68487 0.63182 0.36851 0.0
H668 H 0.68209 0.66177 0.26248 0.0
H669 H 0.57186 0.57982 0.63941 0.0
H670 H 0.87799 0.19092 0.03479 0.0
H671 H 0.90799 0.16879 0.988 0.0
H672 H 0.82306 0.13054 0.92884 0.0
H673 H 0.79368 0.15067 0.97835 0.0
H674 H 0.86873 0.09248 0.9294 0.0
H675 H 0.85285 0.20262 0.88493 0.0
H676 H 0.85356 0.2583 0.89232 0.0
H677 H 0.95405 0.2537 0.92339 0.0
H678 H 0.95391 0.1978 0.91689 0.0
H679 H 0.93172 0.10371 0.72578 0.0
H680 H 0.89911 0.11046 0.77987 0.0
H681 H 0.98233 0.11454 0.87205 0.0
H682 H 0.01498 0.10626 0.81936 0.0
H683 H 0.93483 0.16929 0.85091 0.0
H684 H 0.94686 0.0558 0.8934 0.0
H685 H 0.94189 1.00161 0.87977 0.0
H686 H 0.84237 0.01568 0.84233 0.0
H687 H 0.84683 0.07015 0.85513 0.0
C688 C 0.86603 0.17701 0.01262 0.0
C689 C 0.83358 0.17283 1.00952 0.0
C690 C 0.88302 0.16473 0.98545 0.0
C691 C 0.86764 0.14885 0.95377 0.0
C692 C 0.83546 0.14299 0.95255 0.0
C693 C 0.81864 0.15468 0.98049 0.0
C694 C 0.88473 0.14018 0.92046 0.0
C695 C 0.8829 0.10941 0.91198 0.0
C696 C 0.9031 0.16224 0.89723 0.0
C697 C 0.90334 0.19594 0.9008 0.0
C698 C 0.87509 0.21343 0.8936 0.0
C699 C 0.87539 0.24503 0.89762 0.0
C700 C 0.90383 0.25951 0.9084 0.0
C701 C 0.93204 0.24243 0.91509 0.0
C702 C 0.93186 0.21079 0.91123 0.0
C703 C 0.94309 0.10521 0.75785 0.0
C704 C 0.97606 0.10496 0.76789 0.0
C705 C 0.92441 0.10922 0.78863 0.0
C706 C 0.9384 0.11322 0.82975 0.0
C707 C 0.97113 0.11171 0.84036 0.0
C708 C 0.98974 0.10723 0.81001 0.0
C709 C 0.91932 0.1216 0.86081 0.0
C710 C 0.92063 0.15246 0.86849 0.0
C711 C 0.89989 0.0999 0.88228 0.0
C712 C 0.89724 0.06717 0.8747 0.0
C713 C 0.92396 0.04746 0.8818 0.0
C714 C 0.92123 0.01666 0.87434 0.0
C715 C 0.89185 0.00524 0.86005 0.0
C716 C 0.86512 0.02457 0.85332 0.0
C717 C 0.86774 0.0554 0.8607 0.0
H718 H 0.88978 0.98139 0.85431 0.0
H719 H 0.90402 0.28399 0.91148 0.0
H720 H 0.30097 0.35978 0.3587 0.0
H721 H 0.32776 0.39126 0.30399 0.0
H722 H 0.41727 0.35813 0.37738 0.0
H723 H 0.3904 0.32531 0.43095 0.0
H724 H 0.41056 0.42679 0.34057 0.0
H725 H 0.39397 0.32387 0.30219 0.0
H726 H 0.36091 0.27946 0.28627 0.0
H727 H 0.30567 0.34011 0.18095 0.0
H728 H 0.33805 0.38506 0.19681 0.0
H729 H 0.51149 0.43873 0.17361 0.0
H730 H 0.48229 0.41645 0.2314 0.0
H731 H 0.40072 0.4719 0.16659 0.0
H732 H 0.43048 0.49626 0.11078 0.0
H733 H 0.40098 0.39493 0.1982 0.0
H734 H 0.41492 0.497 0.23237 0.0
H735 H 0.44079 0.54478 0.2502 0.0
H736 H 0.4934 0.49074 0.36399 0.0
H737 H 0.46916 0.44227 0.34541 0.0
C738 C 0.32634 0.35914 0.36295 0.0
C739 C 0.34366 0.33974 0.3986 0.0
C740 C 0.34159 0.37726 0.33192 0.0
C741 C 0.37446 0.37676 0.33648 0.0
C742 C 0.39187 0.3588 0.37329 0.0
C743 C 0.37657 0.34022 0.40395 0.0
C744 C 0.3906 0.39378 0.30187 0.0
C745 C 0.40888 0.41965 0.3096 0.0
C746 C 0.3873 0.38504 0.26102 0.0
C747 C 0.36819 0.35791 0.25103 0.0
C748 C 0.37459 0.32781 0.2759 0.0
C749 C 0.356 0.30253 0.26685 0.0
C750 C 0.33114 0.30698 0.2327 0.0
C751 C 0.32489 0.33671 0.20744 0.0
C752 C 0.34336 0.3621 0.21645 0.0
C753 C 0.48751 0.4466 0.17208 0.0
C754 C 0.47332 0.46927 0.13754 0.0
C755 C 0.47087 0.43382 0.20504 0.0
C756 C 0.43951 0.44285 0.2035 0.0
C757 C 0.42504 0.46493 0.16866 0.0
C758 C 0.44199 0.47853 0.13653 0.0
C759 C 0.42145 0.42777 0.2371 0.0
C760 C 0.40283 0.40212 0.22917 0.0
C761 C 0.42398 0.43714 0.27752 0.0
C762 C 0.44081 0.46578 0.28674 0.0
C763 C 0.43284 0.49506 0.2603 0.0
C764 C 0.44707 0.52235 0.27073 0.0
C765 C 0.46884 0.52079 0.30811 0.0
C766 C 0.47663 0.49189 0.33492 0.0
C767 C 0.46287 0.46446 0.32422 0.0
H768 H 0.47959 0.54199 0.31639 0.0
H769 H 0.31677 0.28738 0.22574 0.0
H770 H 0.24271 0.87531 0.9477 0.0
H771 H 0.21165 0.90727 0.88508 0.0
H772 H 0.12668 0.87567 0.93361 0.0
H773 H 0.15788 0.84102 0.99353 0.0
H774 H 0.11811 0.87112 0.85798 0.0
H775 H 0.15655 0.95578 0.92485 0.0
H776 H 0.19523 0.9885 0.96084 0.0
H777 H 0.24091 0.00654 0.84951 0.0
H778 H 0.20276 0.97355 0.81304 0.0
H779 H 0.02161 0.96854 0.68814 0.0
H780 H 0.04996 0.94843 0.75945 0.0
H781 H 0.13792 0.96315 0.71142 0.0
H782 H 0.10954 0.98571 0.64053 0.0
H783 H 0.14219 0.97853 0.78899 0.0
H784 H 0.0988 0.88838 0.72631 0.0
H785 H 0.05469 0.85833 0.69564 0.0
H786 H 0.01156 0.85572 0.80777 0.0
H787 H 0.05509 0.88581 0.83911 0.0
C788 C 0.2174 0.8753 0.94488 0.0
C789 C 0.2027 0.85546 0.9752 0.0
C790 C 0.19958 0.89401 0.90941 0.0
C791 C 0.16661 0.8943 0.90443 0.0
C792 C 0.15202 0.8759 0.93635 0.0
C793 C 0.16986 0.85642 0.97108 0.0
C794 C 0.14741 0.91117 0.86416 0.0
C795 C 0.12313 0.89487 0.84354 0.0
C796 C 0.1539 0.94206 0.84456 0.0
C797 C 0.17692 0.96196 0.86634 0.0
C798 C 0.17498 0.96653 0.90815 0.0
C799 C 0.19679 0.98516 0.92862 0.0
C800 C 0.22055 0.99954 0.90751 0.0
C801 C 0.2225 0.99537 0.86584 0.0
C802 C 0.20077 0.97674 0.84522 0.0
C803 C 0.04702 0.96772 0.69269 0.0
C804 C 0.06336 0.9778 0.65818 0.0
C805 C 0.0632 0.95596 0.73354 0.0
C806 C 0.09608 0.95331 0.74065 0.0
C807 C 0.11252 0.96451 0.70665 0.0
C808 C 0.0963 0.97693 0.66592 0.0
C809 C 0.11328 0.93832 0.78321 0.0
C810 C 0.13721 0.95491 0.80398 0.0
C811 C 0.10581 0.90807 0.80378 0.0
C812 C 0.08008 0.88952 0.7849 0.0
C813 C 0.07985 0.88147 0.74433 0.0
C814 C 0.05499 0.86448 0.72683 0.0
C815 C 0.0304 0.85531 0.74964 0.0
C816 C 0.03062 0.8629 0.79013 0.0
C817 C 0.05538 0.87985 0.80781 0.0
H818 H 0.01119 0.84228 0.73602 0.0
H819 H 0.23741 0.01396 0.92342 0.0
loop_
_geom_bond_atom_site_label_1
_geom_bond_atom_site_label_2
_geom_bond_distance
_geom_bond_site_symmetry_2
_ccdc_geom_bond_type
C0 N1 1.317 1_556 S
C0 N2 1.348 1_556 S
C0 C3 1.485 . S
N1 C0 1.317 1_554 S
N1 N5 1.370 . S
N2 C0 1.348 1_554 S
N2 C4 1.346 . S
C3 C0 1.485 . S
C3 H7 0.960 . S
C3 H8 0.961 . S
C3 H9 0.960 . S
C4 N2 1.346 . S
C4 N5 1.307 . S
C4 C6 1.486 . S
N5 N1 1.370 . S
N5 C4 1.307 . S
C6 C4 1.486 . S
C6 H10 0.960 . S
C6 H11 0.960 . S
C6 H12 0.959 . S
H7 C3 0.960 . S
H8 C3 0.961 . S
H9 C3 0.960 . S
H10 C6 0.960 . S
H11 C6 0.960 . S
H12 C6 0.959 . S
C13 N14 1.317 . S
C13 N15 1.348 . S
C13 C16 1.485 . S
N14 C13 1.317 . S
N14 N18 1.370 . S
N15 C13 1.348 . S
N15 C17 1.346 . S
C16 C13 1.485 . S
C16 H20 0.960 . S
C16 H21 0.961 . S
C16 H22 0.960 . S
C17 N15 1.346 . S
C17 N18 1.307 . S
C17 C19 1.486 . S
N18 N14 1.370 . S
N18 C17 1.307 . S
C19 C17 1.486 . S
C19 H23 0.960 . S
C19 H24 0.960 . S
C19 H25 0.959 . S
H20 C16 0.960 . S
H21 C16 0.961 . S
H22 C16 0.960 . S
H23 C19 0.960 . S
H24 C19 0.960 . S
H25 C19 0.959 . S
C26 N27 1.317 . S
C26 N28 1.348 . S
C26 C29 1.485 . S
N27 C26 1.317 . S
N27 N31 1.370 . S
N28 C26 1.348 . S
N28 C30 1.346 . S
C29 C26 1.485 . S
C29 H33 0.960 . S
C29 H34 0.961 . S
C29 H35 0.960 . S
C30 N28 1.346 . S
C30 N31 1.307 . S
C30 C32 1.486 1_554 S
N31 N27 1.370 . S
N31 C30 1.307 . S
C32 C30 1.486 1_556 S
C32 H36 0.960 . S
C32 H37 0.960 . S
C32 H38 0.959 . S
H33 C29 0.960 . S
H34 C29 0.961 . S
H35 C29 0.960 . S
H36 C32 0.960 . S
H37 C32 0.960 . S
H38 C32 0.959 . S
C39 N40 1.317 . S
C39 N41 1.348 . S
C39 C42 1.485 . S
N40 C39 1.317 . S
N40 N44 1.370 . S
N41 C39 1.348 . S
N41 C43 1.346 . S
C42 C39 1.485 . S
C42 H46 0.960 . S
C42 H47 0.961 . S
C42 H48 0.960 . S
C43 N41 1.346 . S
C43 N44 1.307 . S
C43 C45 1.486 . S
N44 N40 1.370 . S
N44 C43 1.307 . S
C45 C43 1.486 . S
C45 H49 0.960 . S
C45 H50 0.960 . S
C45 H51 0.959 . S
H46 C42 0.960 . S
H47 C42 0.961 . S
H48 C42 0.960 . S
H49 C45 0.960 . S
H50 C45 0.960 . S
H51 C45 0.959 . S
Eu52 N81 2.600 . S
Eu52 N87 2.562 . S
Eu52 O96 2.462 . S
Eu52 O97 2.373 . S
Eu52 O99 2.432 . S
Eu52 O100 2.291 1_565 S
Eu52 O104 2.335 1_465 S
Eu52 O107 2.372 1_455 S
Eu52 C116 2.787 . S
C53 N54 1.365 . S
C53 C56 1.405 . S
C53 C60 1.448 . S
N54 C53 1.365 . S
N54 C57 1.319 1_655 S
N54 Eu63 2.600 . S
C55 C57 1.397 . S
C55 C58 1.367 1_455 S
C55 H75 0.931 . S
C56 C53 1.405 . S
C56 C58 1.403 . S
C56 C62 1.439 . S
C57 N54 1.319 1_455 S
C57 C55 1.397 . S
C57 H68 0.930 . S
C58 C55 1.367 1_655 S
C58 C56 1.403 . S
C58 H79 0.929 . S
C59 C60 1.430 . S
C59 C61 1.387 . S
C59 C65 1.404 . S
C60 C53 1.448 . S
C60 C59 1.430 . S
C60 N64 1.351 . S
C61 C59 1.387 . S
C61 C62 1.374 . S
C61 H76 0.931 . S
C62 C56 1.439 . S
C62 C61 1.374 . S
C62 H77 0.931 . S
Eu63 N54 2.600 . S
Eu63 N64 2.562 . S
Eu63 O98 2.335 1_655 S
Eu63 O101 2.372 1_655 S
Eu63 O102 2.462 . S
Eu63 O103 2.373 . S
Eu63 O105 2.432 . S
Eu63 O106 2.291 1_545 S
Eu63 C127 2.787 . S
N64 C60 1.351 . S
N64 Eu63 2.562 . S
N64 C66 1.325 . S
C65 C59 1.404 . S
C65 C67 1.366 . S
C65 H73 0.930 . S
C66 N64 1.325 . S
C66 C67 1.416 . S
C66 H72 0.929 . S
C67 C65 1.366 . S
C67 C66 1.416 . S
C67 H69 0.930 . S
H68 C57 0.930 . S
H69 C67 0.930 . S
H70 C85 0.930 1_655 S
H71 C92 0.930 . S
H72 C66 0.929 . S
H73 C65 0.930 . S
H74 C88 0.929 . S
H75 C55 0.931 . S
H76 C61 0.931 . S
H77 C62 0.931 . S
H78 C83 0.931 1_655 S
H79 C58 0.929 . S
H80 C91 0.930 . S
N81 Eu52 2.600 . S
N81 C82 1.365 . S
N81 C85 1.319 . S
C82 N81 1.365 . S
C82 C84 1.405 . S
C82 C90 1.448 . S
C83 H78 0.931 1_455 S
C83 C85 1.397 . S
C83 C86 1.367 . S
C84 C82 1.405 . S
C84 C86 1.403 . S
C84 C117 1.439 . S
C85 H70 0.930 1_455 S
C85 N81 1.319 . S
C85 C83 1.397 . S
C86 C83 1.367 . S
C86 C84 1.403 . S
C86 H93 0.929 . S
N87 Eu52 2.562 . S
N87 C88 1.325 . S
N87 C90 1.351 . S
C88 H74 0.929 . S
C88 N87 1.325 . S
C88 C92 1.416 . S
C89 C90 1.430 . S
C89 C91 1.404 . S
C89 C118 1.387 . S
C90 C82 1.448 . S
C90 N87 1.351 . S
C90 C89 1.430 . S
C91 H80 0.930 . S
C91 C89 1.404 . S
C91 C92 1.366 . S
C92 H71 0.930 . S
C92 C88 1.416 . S
C92 C91 1.366 . S
H93 C86 0.929 . S
H94 C117 0.931 . S
H95 C118 0.931 . S
O96 Eu52 2.462 . S
O96 C116 1.252 . S
O97 Eu52 2.373 . S
O97 C108 1.249 . S
O98 Eu63 2.335 1_455 S
O98 C108 1.264 1_545 S
O99 Eu52 2.432 . S
O99 C116 1.268 . S
O100 Eu52 2.291 1_545 S
O100 C115 1.255 . S
O101 Eu63 2.372 1_455 S
O101 C115 1.257 . S
O102 Eu63 2.462 . S
O102 C127 1.252 . S
O103 Eu63 2.373 . S
O103 C119 1.249 . S
O104 Eu52 2.335 1_645 S
O104 C119 1.264 . S
O105 Eu63 2.432 . S
O105 C127 1.268 . S
O106 Eu63 2.291 1_565 S
O106 C126 1.255 . S
O107 Eu52 2.372 1_655 S
O107 C126 1.257 . S
C108 O97 1.249 . S
C108 O98 1.264 1_565 S
C109 C112 1.382 . S
C109 C114 1.390 . S
C109 C116 1.506 . S
C110 C111 1.398 . S
C110 C114 1.392 . S
C111 C110 1.398 . S
C111 C113 1.372 . S
C111 H128 0.931 . S
C112 C109 1.382 . S
C112 C113 1.390 . S
C112 H129 0.931 . S
C113 C111 1.372 . S
C113 C112 1.390 . S
C113 H130 0.929 . S
C114 C109 1.390 . S
C114 C110 1.392 . S
C114 H131 0.930 . S
C115 O100 1.255 . S
C115 O101 1.257 . S
C116 Eu52 2.787 . S
C116 O96 1.252 . S
C116 O99 1.268 . S
C116 C109 1.506 . S
C117 C84 1.439 . S
C117 H94 0.931 . S
C117 C118 1.374 . S
C118 C89 1.387 . S
C118 H95 0.931 . S
C118 C117 1.374 . S
C119 O103 1.249 . S
C119 O104 1.264 . S
C120 C123 1.382 . S
C120 C124 1.390 . S
C120 C127 1.506 . S
C121 C122 1.398 . S
C121 C124 1.392 . S
C122 C121 1.398 . S
C122 C125 1.372 . S
C122 H132 0.931 . S
C123 C120 1.382 . S
C123 C125 1.390 . S
C123 H133 0.931 . S
C124 C120 1.390 . S
C124 C121 1.392 . S
C124 H134 0.930 . S
C125 C122 1.372 . S
C125 C123 1.390 . S
C125 H135 0.929 . S
C126 O106 1.255 . S
C126 O107 1.257 . S
C127 Eu63 2.787 . S
C127 O102 1.252 . S
C127 O105 1.268 . S
C127 C120 1.506 . S
H128 C111 0.931 . S
H129 C112 0.931 . S
H130 C113 0.929 . S
H131 C114 0.930 . S
H132 C122 0.931 . S
H133 C123 0.931 . S
H134 C124 0.930 . S
H135 C125 0.929 . S
Eu136 N165 2.600 . S
Eu136 N171 2.562 1_556 S
Eu136 O180 2.462 . S
Eu136 O181 2.373 1_556 S
Eu136 O183 2.432 . S
Eu136 O184 2.291 1_556 S
Eu136 O188 2.335 . S
Eu136 O191 2.371 1_556 S
Eu136 C200 2.787 . S
C137 N138 1.365 . S
C137 C140 1.405 . S
C137 C144 1.448 . S
N138 C137 1.365 . S
N138 C141 1.319 . S
N138 Eu147 2.600 . S
C139 C141 1.397 . S
C139 C142 1.367 . S
C139 H159 0.931 . S
C140 C137 1.405 . S
C140 C142 1.403 . S
C140 C146 1.439 . S
C141 N138 1.319 . S
C141 C139 1.397 . S
C141 H152 0.930 . S
C142 C139 1.367 . S
C142 C140 1.403 . S
C142 H163 0.929 . S
C143 C144 1.430 . S
C143 C145 1.387 . S
C143 C149 1.404 . S
C144 C137 1.448 . S
C144 C143 1.430 . S
C144 N148 1.351 . S
C145 C143 1.387 . S
C145 C146 1.374 . S
C145 H160 0.931 . S
C146 C140 1.439 . S
C146 C145 1.374 . S
C146 H161 0.931 . S
Eu147 N138 2.600 . S
Eu147 N148 2.562 . S
Eu147 O182 2.335 . S
Eu147 O185 2.372 . S
Eu147 O186 2.462 . S
Eu147 O187 2.373 1_554 S
Eu147 O189 2.432 . S
Eu147 O190 2.291 . S
Eu147 C211 2.787 . S
N148 C144 1.351 . S
N148 Eu147 2.562 . S
N148 C150 1.325 . S
C149 C143 1.404 . S
C149 C151 1.366 . S
C149 H157 0.930 . S
C150 N148 1.325 . S
C150 C151 1.416 . S
C150 H156 0.929 . S
C151 C149 1.366 . S
C151 C150 1.416 . S
C151 H153 0.930 . S
H152 C141 0.930 . S
H153 C151 0.930 . S
H154 C169 0.930 . S
H155 C176 0.930 . S
H156 C150 0.929 . S
H157 C149 0.930 . S
H158 C172 0.929 . S
H159 C139 0.931 . S
H160 C145 0.931 . S
H161 C146 0.931 . S
H162 C167 0.931 . S
H163 C142 0.929 . S
H164 C175 0.930 . S
N165 Eu136 2.600 . S
N165 C166 1.365 1_556 S
N165 C169 1.319 . S
C166 N165 1.365 1_554 S
C166 C168 1.405 . S
C166 C174 1.448 . S
C167 H162 0.931 . S
C167 C169 1.397 . S
C167 C170 1.367 1_556 S
C168 C166 1.405 . S
C168 C170 1.403 . S
C168 C201 1.439 . S
C169 H154 0.930 . S
C169 N165 1.319 . S
C169 C167 1.397 . S
C170 C167 1.367 1_554 S
C170 C168 1.403 . S
C170 H177 0.929 . S
N171 Eu136 2.562 1_554 S
N171 C172 1.325 . S
N171 C174 1.351 . S
C172 H158 0.929 . S
C172 N171 1.325 . S
C172 C176 1.416 . S
C173 C174 1.430 . S
C173 C175 1.404 . S
C173 C202 1.387 . S
C174 C166 1.448 . S
C174 N171 1.351 . S
C174 C173 1.430 . S
C175 H164 0.930 . S
C175 C173 1.404 . S
C175 C176 1.366 . S
C176 H155 0.930 . S
C176 C172 1.416 . S
C176 C175 1.366 . S
H177 C170 0.929 . S
H178 C201 0.931 . S
H179 C202 0.931 . S
O180 Eu136 2.462 . S
O180 C200 1.252 . S
O181 Eu136 2.373 1_554 S
O181 C192 1.249 . S
O182 Eu147 2.335 . S
O182 C192 1.264 . S
O183 Eu136 2.432 . S
O183 C200 1.268 . S
O184 Eu136 2.291 1_554 S
O184 C199 1.255 . S
O185 Eu147 2.372 . S
O185 C199 1.257 . S
O186 Eu147 2.462 . S
O186 C211 1.252 . S
O187 Eu147 2.373 1_556 S
O187 C203 1.249 . S
O188 Eu136 2.335 . S
O188 C203 1.264 . S
O189 Eu147 2.432 . S
O189 C211 1.268 . S
O190 Eu147 2.291 . S
O190 C210 1.255 . S
O191 Eu136 2.371 1_554 S
O191 C210 1.258 . S
C192 O181 1.249 . S
C192 O182 1.264 . S
C193 C196 1.382 . S
C193 C198 1.390 . S
C193 C200 1.506 . S
C194 C195 1.398 . S
C194 C198 1.392 . S
C195 C194 1.398 . S
C195 C197 1.372 . S
C195 H212 0.931 . S
C196 C193 1.382 . S
C196 C197 1.390 . S
C196 H213 0.931 . S
C197 C195 1.372 . S
C197 C196 1.390 . S
C197 H214 0.929 . S
C198 C193 1.390 . S
C198 C194 1.392 . S
C198 H215 0.930 . S
C199 O184 1.255 . S
C199 O185 1.257 . S
C200 Eu136 2.787 . S
C200 O180 1.252 . S
C200 O183 1.268 . S
C200 C193 1.506 . S
C201 C168 1.439 . S
C201 H178 0.931 . S
C201 C202 1.374 . S
C202 C173 1.387 . S
C202 H179 0.931 . S
C202 C201 1.374 . S
C203 O187 1.249 . S
C203 O188 1.264 . S
C204 C207 1.382 . S
C204 C208 1.390 . S
C204 C211 1.506 . S
C205 C206 1.398 . S
C205 C208 1.392 . S
C206 C205 1.398 . S
C206 C209 1.372 . S
C206 H216 0.931 . S
C207 C204 1.382 . S
C207 C209 1.390 . S
C207 H217 0.931 . S
C208 C204 1.390 . S
C208 C205 1.392 . S
C208 H218 0.930 . S
C209 C206 1.372 . S
C209 C207 1.390 . S
C209 H219 0.929 . S
C210 O190 1.255 . S
C210 O191 1.258 . S
C211 Eu147 2.787 . S
C211 O186 1.252 . S
C211 O189 1.268 . S
C211 C204 1.506 . S
H212 C195 0.931 . S
H213 C196 0.931 . S
H214 C197 0.929 . S
H215 C198 0.930 . S
H216 C206 0.931 . S
H217 C207 0.931 . S
H218 C208 0.930 . S
H219 C209 0.929 . S
H220 C238 0.951 . S
H221 C240 0.951 . S
H222 C242 0.950 . S
H223 C243 0.950 . S
H224 C245 0.950 . S
H225 C248 0.950 . S
H226 C249 0.950 . S
H227 C251 0.950 . S
H228 C252 0.950 . S
H229 C253 0.951 . S
H230 C255 0.951 . S
H231 C257 0.950 . S
H232 C258 0.950 . S
H233 C260 0.950 . S
H234 C263 0.950 . S
H235 C264 0.950 . S
H236 C266 0.950 . S
H237 C267 0.950 . S
C238 H220 0.951 . S
C238 C239 1.366 . S
C238 C240 1.388 . S
C239 C238 1.366 . S
C239 C243 1.385 . S
C240 H221 0.951 . S
C240 C238 1.388 . S
C240 C241 1.366 . S
C241 C240 1.366 . S
C241 C242 1.414 . S
C241 C244 1.499 . S
C242 H222 0.950 . S
C242 C241 1.414 . S
C242 C243 1.374 . S
C243 H223 0.950 . S
C243 C239 1.385 . S
C243 C242 1.374 . S
C244 C241 1.499 . S
C244 C245 1.373 . S
C244 C246 1.389 . S
C245 H224 0.950 . S
C245 C244 1.373 . S
C245 C261 1.377 . S
C246 C244 1.389 . S
C246 C247 1.524 . S
C246 C260 1.377 . S
C247 C246 1.524 . S
C247 C248 1.397 . S
C247 C252 1.363 . S
C248 H225 0.950 . S
C248 C247 1.397 . S
C248 C249 1.334 . S
C249 H226 0.950 . S
C249 C248 1.334 . S
C249 C250 1.287 . S
C250 C249 1.287 . S
C250 C251 1.524 . S
C250 H269 0.913 . S
C251 H227 0.950 . S
C251 C250 1.524 . S
C251 C252 1.415 . S
C252 H228 0.950 . S
C252 C247 1.363 . S
C252 C251 1.415 . S
C253 H229 0.951 . S
C253 C254 1.366 . S
C253 C255 1.388 . S
C254 C253 1.366 . S
C254 C258 1.385 . S
C255 H230 0.951 . S
C255 C253 1.388 . S
C255 C256 1.366 . S
C256 C255 1.366 . S
C256 C257 1.414 . S
C256 C259 1.499 . S
C257 H231 0.950 . S
C257 C256 1.414 . S
C257 C258 1.374 . S
C258 H232 0.950 . S
C258 C254 1.385 . S
C258 C257 1.374 . S
C259 C256 1.499 . S
C259 C260 1.373 . S
C259 C261 1.389 . S
C260 H233 0.950 . S
C260 C246 1.377 . S
C260 C259 1.373 . S
C261 C245 1.377 . S
C261 C259 1.389 . S
C261 C262 1.524 . S
C262 C261 1.524 . S
C262 C263 1.397 . S
C262 C267 1.363 . S
C263 H234 0.950 . S
C263 C262 1.397 . S
C263 C264 1.334 . S
C264 H235 0.950 . S
C264 C263 1.334 . S
C264 C265 1.287 . S
C265 C264 1.287 . S
C265 C266 1.524 . S
C265 H268 0.999 . S
C266 H236 0.950 . S
C266 C265 1.524 . S
C266 C267 1.415 . S
C267 H237 0.950 . S
C267 C262 1.363 . S
C267 C266 1.415 . S
H268 C265 0.999 . S
H269 C250 0.913 . S
H270 C288 0.951 . S
H271 C290 0.951 . S
H272 C292 0.942 1_556 S
H273 C293 0.953 . S
H274 C295 0.950 . S
H275 C298 0.950 . S
H276 C299 0.950 . S
H277 C301 0.950 . S
H278 C302 0.950 . S
H279 C303 0.943 1_556 S
H280 C305 0.951 . S
H281 C307 0.950 . S
H282 C308 0.950 . S
H283 C310 0.950 . S
H284 C313 0.950 . S
H285 C314 0.950 . S
H286 C316 0.950 . S
H287 C317 0.950 . S
C288 H270 0.951 . S
C288 C289 1.366 . S
C288 C290 1.388 . S
C289 C288 1.366 . S
C289 C293 1.385 . S
C290 H271 0.951 . S
C290 C288 1.388 . S
C290 C291 1.366 . S
C291 C290 1.366 . S
C291 C292 1.414 . S
C291 C294 1.499 . S
C292 H272 0.942 1_554 S
C292 C291 1.414 . S
C292 C293 1.374 . S
C293 H273 0.953 . S
C293 C289 1.385 . S
C293 C292 1.374 . S
C294 C291 1.499 . S
C294 C295 1.373 . S
C294 C296 1.389 . S
C295 H274 0.950 . S
C295 C294 1.373 . S
C295 C311 1.377 . S
C296 C294 1.389 . S
C296 C297 1.524 . S
C296 C310 1.377 . S
C297 C296 1.524 . S
C297 C298 1.397 1_554 S
C297 C302 1.363 . S
C298 H275 0.950 . S
C298 C297 1.397 1_556 S
C298 C299 1.334 . S
C299 H276 0.950 . S
C299 C298 1.334 . S
C299 C300 1.287 . S
C300 C299 1.287 . S
C300 C301 1.524 1_556 S
C300 H319 0.913 . S
C301 H277 0.950 . S
C301 C300 1.524 1_554 S
C301 C302 1.415 . S
C302 H278 0.950 . S
C302 C297 1.363 . S
C302 C301 1.415 . S
C303 H279 0.943 1_554 S
C303 C304 1.366 . S
C303 C305 1.388 . S
C304 C303 1.366 . S
C304 C308 1.385 . S
C305 H280 0.951 . S
C305 C303 1.388 . S
C305 C306 1.366 . S
C306 C305 1.366 . S
C306 C307 1.414 . S
C306 C309 1.499 . S
C307 H281 0.950 . S
C307 C306 1.414 . S
C307 C308 1.374 . S
C308 H282 0.950 . S
C308 C304 1.385 . S
C308 C307 1.374 . S
C309 C306 1.499 . S
C309 C310 1.373 . S
C309 C311 1.389 . S
C310 H283 0.950 . S
C310 C296 1.377 . S
C310 C309 1.373 . S
C311 C295 1.377 . S
C311 C309 1.389 . S
C311 C312 1.524 . S
C312 C311 1.524 . S
C312 C313 1.397 . S
C312 C317 1.363 . S
C313 H284 0.950 . S
C313 C312 1.397 . S
C313 C314 1.334 . S
C314 H285 0.950 . S
C314 C313 1.334 . S
C314 C315 1.287 . S
C315 C314 1.287 . S
C315 C316 1.524 . S
C315 H318 0.999 . S
C316 H286 0.950 . S
C316 C315 1.524 . S
C316 C317 1.415 . S
C317 H287 0.950 . S
C317 C312 1.363 . S
C317 C316 1.415 . S
H318 C315 0.999 . S
H319 C300 0.913 . S
H320 C338 0.951 . S
H321 C340 0.951 . S
H322 C342 0.950 . S
H323 C343 0.950 . S
H324 C345 0.950 . S
H325 C348 0.950 . S
H326 C349 0.950 . S
H327 C351 0.950 . S
H328 C352 0.950 . S
H329 C353 0.951 . S
H330 C355 0.951 . S
H331 C357 0.950 . S
H332 C358 0.950 . S
H333 C360 0.950 . S
H334 C363 0.950 . S
H335 C364 0.950 . S
H336 C366 0.950 . S
H337 C367 0.950 . S
C338 H320 0.951 . S
C338 C339 1.366 . S
C338 C340 1.388 . S
C339 C338 1.366 . S
C339 C343 1.385 . S
C340 H321 0.951 . S
C340 C338 1.388 . S
C340 C341 1.366 . S
C341 C340 1.366 . S
C341 C342 1.414 . S
C341 C344 1.499 . S
C342 H322 0.950 . S
C342 C341 1.414 . S
C342 C343 1.374 . S
C343 H323 0.950 . S
C343 C339 1.385 . S
C343 C342 1.374 . S
C344 C341 1.499 . S
C344 C345 1.373 . S
C344 C346 1.389 . S
C345 H324 0.950 . S
C345 C344 1.373 . S
C345 C361 1.377 . S
C346 C344 1.389 . S
C346 C347 1.524 . S
C346 C360 1.377 . S
C347 C346 1.524 . S
C347 C348 1.397 . S
C347 C352 1.363 . S
C348 H325 0.950 . S
C348 C347 1.397 . S
C348 C349 1.334 . S
C349 H326 0.950 . S
C349 C348 1.334 . S
C349 C350 1.287 . S
C350 C349 1.287 . S
C350 C351 1.524 . S
C350 H369 0.913 . S
C351 H327 0.950 . S
C351 C350 1.524 . S
C351 C352 1.415 . S
C352 H328 0.950 . S
C352 C347 1.363 . S
C352 C351 1.415 . S
C353 H329 0.951 . S
C353 C354 1.366 . S
C353 C355 1.388 . S
C354 C353 1.366 . S
C354 C358 1.385 . S
C355 H330 0.951 . S
C355 C353 1.388 . S
C355 C356 1.366 . S
C356 C355 1.366 . S
C356 C357 1.414 . S
C356 C359 1.499 . S
C357 H331 0.950 . S
C357 C356 1.414 . S
C357 C358 1.374 . S
C358 H332 0.950 . S
C358 C354 1.385 . S
C358 C357 1.374 . S
C359 C356 1.499 . S
C359 C360 1.373 . S
C359 C361 1.389 . S
C360 H333 0.950 . S
C360 C346 1.377 . S
C360 C359 1.373 . S
C361 C345 1.377 . S
C361 C359 1.389 . S
C361 C362 1.524 . S
C362 C361 1.524 . S
C362 C363 1.397 . S
C362 C367 1.363 . S
C363 H334 0.950 . S
C363 C362 1.397 . S
C363 C364 1.334 . S
C364 H335 0.950 . S
C364 C363 1.334 . S
C364 C365 1.287 . S
C365 C364 1.287 . S
C365 C366 1.524 . S
C365 H368 0.999 . S
C366 H336 0.950 . S
C366 C365 1.524 . S
C366 C367 1.415 . S
C367 H337 0.950 . S
C367 C362 1.363 . S
C367 C366 1.415 . S
H368 C365 0.999 . S
H369 C350 0.913 . S
H370 C388 0.951 . S
H371 C390 0.951 . S
H372 C392 0.950 . S
H373 C393 0.950 . S
H374 C395 0.950 . S
H375 C398 0.950 . S
H376 C399 0.950 . S
H377 C401 0.950 . S
H378 C402 0.950 . S
H379 C403 0.951 . S
H380 C405 0.951 . S
H381 C407 0.950 . S
H382 C408 0.950 . S
H383 C410 0.950 . S
H384 C413 0.950 1_556 S
H385 C414 0.950 1_556 S
H386 C416 0.950 . S
H387 C417 0.950 . S
C388 H370 0.951 . S
C388 C389 1.366 1_556 S
C388 C390 1.388 . S
C389 C388 1.366 1_554 S
C389 C393 1.385 . S
C390 H371 0.951 . S
C390 C388 1.388 . S
C390 C391 1.366 1_556 S
C391 C390 1.366 1_554 S
C391 C392 1.414 . S
C391 C394 1.499 . S
C392 H372 0.950 . S
C392 C391 1.414 . S
C392 C393 1.374 . S
C393 H373 0.950 . S
C393 C389 1.385 . S
C393 C392 1.374 . S
C394 C391 1.499 . S
C394 C395 1.373 . S
C394 C396 1.389 . S
C395 H374 0.950 . S
C395 C394 1.373 . S
C395 C411 1.377 . S
C396 C394 1.389 . S
C396 C397 1.524 . S
C396 C410 1.377 . S
C397 C396 1.524 . S
C397 C398 1.397 . S
C397 C402 1.363 1_554 S
C398 H375 0.950 . S
C398 C397 1.397 . S
C398 C399 1.334 . S
C399 H376 0.950 . S
C399 C398 1.334 . S
C399 C400 1.287 . S
C400 C399 1.287 . S
C400 C401 1.524 1_554 S
C400 H419 0.913 . S
C401 H377 0.950 . S
C401 C400 1.524 1_556 S
C401 C402 1.415 . S
C402 H378 0.950 . S
C402 C397 1.363 1_556 S
C402 C401 1.415 . S
C403 H379 0.951 . S
C403 C404 1.366 . S
C403 C405 1.388 . S
C404 C403 1.366 . S
C404 C408 1.385 1_554 S
C405 H380 0.951 . S
C405 C403 1.388 . S
C405 C406 1.366 . S
C406 C405 1.366 . S
C406 C407 1.414 1_554 S
C406 C409 1.499 . S
C407 H381 0.950 . S
C407 C406 1.414 1_556 S
C407 C408 1.374 . S
C408 H382 0.950 . S
C408 C404 1.385 1_556 S
C408 C407 1.374 . S
C409 C406 1.499 . S
C409 C410 1.373 . S
C409 C411 1.389 . S
C410 H383 0.950 . S
C410 C396 1.377 . S
C410 C409 1.373 . S
C411 C395 1.377 . S
C411 C409 1.389 . S
C411 C412 1.524 . S
C412 C411 1.524 . S
C412 C413 1.397 . S
C412 C417 1.363 . S
C413 H384 0.950 1_554 S
C413 C412 1.397 . S
C413 C414 1.334 . S
C414 H385 0.950 1_554 S
C414 C413 1.334 . S
C414 C415 1.287 . S
C415 C414 1.287 . S
C415 C416 1.524 . S
C415 H418 0.999 . S
C416 H386 0.950 . S
C416 C415 1.524 . S
C416 C417 1.415 . S
C417 H387 0.950 . S
C417 C412 1.363 . S
C417 C416 1.415 . S
H418 C415 0.999 . S
H419 C400 0.913 . S
H420 C438 0.951 . S
H421 C440 0.951 . S
H422 C442 0.950 . S
H423 C443 0.950 . S
H424 C445 0.950 . S
H425 C448 0.950 . S
H426 C449 0.950 . S
H427 C451 0.950 . S
H428 C452 0.950 . S
H429 C453 0.951 . S
H430 C455 0.951 . S
H431 C457 0.950 . S
H432 C458 0.950 . S
H433 C460 0.950 . S
H434 C463 0.950 . S
H435 C464 0.950 . S
H436 C466 0.950 . S
H437 C467 0.950 . S
C438 H420 0.951 . S
C438 C439 1.366 . S
C438 C440 1.388 . S
C439 C438 1.366 . S
C439 C443 1.385 . S
C440 H421 0.951 . S
C440 C438 1.388 . S
C440 C441 1.366 . S
C441 C440 1.366 . S
C441 C442 1.414 . S
C441 C444 1.499 . S
C442 H422 0.950 . S
C442 C441 1.414 . S
C442 C443 1.374 . S
C443 H423 0.950 . S
C443 C439 1.385 . S
C443 C442 1.374 . S
C444 C441 1.499 . S
C444 C445 1.373 . S
C444 C446 1.389 . S
C445 H424 0.950 . S
C445 C444 1.373 . S
C445 C461 1.377 . S
C446 C444 1.389 . S
C446 C447 1.524 . S
C446 C460 1.377 . S
C447 C446 1.524 . S
C447 C448 1.397 . S
C447 C452 1.363 . S
C448 H425 0.950 . S
C448 C447 1.397 . S
C448 C449 1.334 . S
C449 H426 0.950 . S
C449 C448 1.334 . S
C449 C450 1.287 . S
C450 C449 1.287 . S
C450 C451 1.524 . S
C450 H469 0.913 . S
C451 H427 0.950 . S
C451 C450 1.524 . S
C451 C452 1.415 . S
C452 H428 0.950 . S
C452 C447 1.363 . S
C452 C451 1.415 . S
C453 H429 0.951 . S
C453 C454 1.366 . S
C453 C455 1.388 . S
C454 C453 1.366 . S
C454 C458 1.385 . S
C455 H430 0.951 . S
C455 C453 1.388 . S
C455 C456 1.366 . S
C456 C455 1.366 . S
C456 C457 1.414 . S
C456 C459 1.499 . S
C457 H431 0.950 . S
C457 C456 1.414 . S
C457 C458 1.374 . S
C458 H432 0.950 . S
C458 C454 1.385 . S
C458 C457 1.374 . S
C459 C456 1.499 . S
C459 C460 1.373 . S
C459 C461 1.389 . S
C460 H433 0.950 . S
C460 C446 1.377 . S
C460 C459 1.373 . S
C461 C445 1.377 . S
C461 C459 1.389 . S
C461 C462 1.524 . S
C462 C461 1.524 . S
C462 C463 1.397 . S
C462 C467 1.363 . S
C463 H434 0.950 . S
C463 C462 1.397 . S
C463 C464 1.334 1_565 S
C464 H435 0.950 . S
C464 C463 1.334 1_545 S
C464 C465 1.287 . S
C465 C464 1.287 . S
C465 C466 1.524 . S
C465 H468 0.999 . S
C466 H436 0.950 . S
C466 C465 1.524 . S
C466 C467 1.415 1_545 S
C467 H437 0.950 . S
C467 C462 1.363 . S
C467 C466 1.415 1_565 S
H468 C465 0.999 . S
H469 C450 0.913 . S
H470 C488 0.951 . S
H471 C490 0.951 . S
H472 C492 0.950 . S
H473 C493 0.950 . S
H474 C495 0.950 . S
H475 C498 0.950 . S
H476 C499 0.950 . S
H477 C501 0.950 . S
H478 C502 0.950 . S
H479 C503 0.951 . S
H480 C505 0.951 . S
H481 C507 0.950 . S
H482 C508 0.950 . S
H483 C510 0.950 . S
H484 C513 0.950 . S
H485 C514 0.950 . S
H486 C516 0.950 . S
H487 C517 0.950 . S
C488 H470 0.951 . S
C488 C489 1.366 . S
C488 C490 1.388 . S
C489 C488 1.366 . S
C489 C493 1.385 . S
C490 H471 0.951 . S
C490 C488 1.388 . S
C490 C491 1.366 . S
C491 C490 1.366 . S
C491 C492 1.414 . S
C491 C494 1.499 . S
C492 H472 0.950 . S
C492 C491 1.414 . S
C492 C493 1.374 . S
C493 H473 0.950 . S
C493 C489 1.385 . S
C493 C492 1.374 . S
C494 C491 1.499 . S
C494 C495 1.373 . S
C494 C496 1.389 . S
C495 H474 0.950 . S
C495 C494 1.373 . S
C495 C511 1.377 . S
C496 C494 1.389 . S
C496 C497 1.524 . S
C496 C510 1.377 . S
C497 C496 1.524 . S
C497 C498 1.397 . S
C497 C502 1.363 . S
C498 H475 0.950 . S
C498 C497 1.397 . S
C498 C499 1.334 . S
C499 H476 0.950 . S
C499 C498 1.334 . S
C499 C500 1.287 . S
C500 C499 1.287 . S
C500 C501 1.524 . S
C500 H519 0.913 . S
C501 H477 0.950 . S
C501 C500 1.524 . S
C501 C502 1.415 . S
C502 H478 0.950 . S
C502 C497 1.363 . S
C502 C501 1.415 . S
C503 H479 0.951 . S
C503 C504 1.366 . S
C503 C505 1.388 . S
C504 C503 1.366 . S
C504 C508 1.385 . S
C505 H480 0.951 . S
C505 C503 1.388 . S
C505 C506 1.366 . S
C506 C505 1.366 . S
C506 C507 1.414 . S
C506 C509 1.499 . S
C507 H481 0.950 . S
C507 C506 1.414 . S
C507 C508 1.374 . S
C508 H482 0.950 . S
C508 C504 1.385 . S
C508 C507 1.374 . S
C509 C506 1.499 . S
C509 C510 1.373 . S
C509 C511 1.389 . S
C510 H483 0.950 . S
C510 C496 1.377 . S
C510 C509 1.373 . S
C511 C495 1.377 . S
C511 C509 1.389 . S
C511 C512 1.524 . S
C512 C511 1.524 . S
C512 C513 1.397 . S
C512 C517 1.363 . S
C513 H484 0.950 . S
C513 C512 1.397 . S
C513 C514 1.334 . S
C514 H485 0.950 . S
C514 C513 1.334 . S
C514 C515 1.287 . S
C515 C514 1.287 . S
C515 C516 1.524 . S
C515 H518 0.999 . S
C516 H486 0.950 . S
C516 C515 1.524 . S
C516 C517 1.415 . S
C517 H487 0.950 . S
C517 C512 1.363 . S
C517 C516 1.415 . S
H518 C515 0.999 . S
H519 C500 0.913 . S
H520 C538 0.951 . S
H521 C540 0.951 . S
H522 C542 0.950 . S
H523 C543 0.950 . S
H524 C545 0.950 . S
H525 C548 0.950 . S
H526 C549 0.950 . S
H527 C551 0.950 . S
H528 C552 0.950 . S
H529 C553 0.951 . S
H530 C555 0.951 . S
H531 C557 0.950 . S
H532 C558 0.950 . S
H533 C560 0.950 . S
H534 C563 0.950 . S
H535 C564 0.950 . S
H536 C566 0.950 . S
H537 C567 0.950 . S
C538 H520 0.951 . S
C538 C539 1.366 . S
C538 C540 1.388 . S
C539 C538 1.366 . S
C539 C543 1.385 . S
C540 H521 0.951 . S
C540 C538 1.388 . S
C540 C541 1.366 . S
C541 C540 1.366 . S
C541 C542 1.414 . S
C541 C544 1.499 . S
C542 H522 0.950 . S
C542 C541 1.414 . S
C542 C543 1.374 . S
C543 H523 0.950 . S
C543 C539 1.385 . S
C543 C542 1.374 . S
C544 C541 1.499 . S
C544 C545 1.373 . S
C544 C546 1.389 . S
C545 H524 0.950 . S
C545 C544 1.373 . S
C545 C561 1.377 . S
C546 C544 1.389 . S
C546 C547 1.524 . S
C546 C560 1.377 . S
C547 C546 1.524 . S
C547 C548 1.397 . S
C547 C552 1.363 . S
C548 H525 0.950 . S
C548 C547 1.397 . S
C548 C549 1.334 . S
C549 H526 0.950 . S
C549 C548 1.334 . S
C549 C550 1.287 . S
C550 C549 1.287 . S
C550 C551 1.524 . S
C550 H569 0.913 . S
C551 H527 0.950 . S
C551 C550 1.524 . S
C551 C552 1.415 . S
C552 H528 0.950 . S
C552 C547 1.363 . S
C552 C551 1.415 . S
C553 H529 0.951 . S
C553 C554 1.366 . S
C553 C555 1.388 . S
C554 C553 1.366 . S
C554 C558 1.385 . S
C555 H530 0.951 . S
C555 C553 1.388 . S
C555 C556 1.366 . S
C556 C555 1.366 . S
C556 C557 1.414 . S
C556 C559 1.499 . S
C557 H531 0.950 . S
C557 C556 1.414 . S
C557 C558 1.374 . S
C558 H532 0.950 . S
C558 C554 1.385 . S
C558 C557 1.374 . S
C559 C556 1.499 . S
C559 C560 1.373 . S
C559 C561 1.389 . S
C560 H533 0.950 . S
C560 C546 1.377 . S
C560 C559 1.373 . S
C561 C545 1.377 . S
C561 C559 1.389 . S
C561 C562 1.524 . S
C562 C561 1.524 . S
C562 C563 1.397 . S
C562 C567 1.363 . S
C563 H534 0.950 . S
C563 C562 1.397 . S
C563 C564 1.334 . S
C564 H535 0.950 . S
C564 C563 1.334 . S
C564 C565 1.287 . S
C565 C564 1.287 . S
C565 C566 1.524 . S
C565 H568 0.999 . S
C566 H536 0.950 . S
C566 C565 1.524 . S
C566 C567 1.415 . S
C567 H537 0.950 . S
C567 C562 1.363 . S
C567 C566 1.415 . S
H568 C565 0.999 . S
H569 C550 0.913 . S
H570 C588 0.951 . S
H571 C590 0.951 . S
H572 C592 0.950 . S
H573 C593 0.950 . S
H574 C595 0.950 . S
H575 C598 0.950 . S
H576 C599 0.950 . S
H577 C601 0.950 . S
H578 C602 0.950 . S
H579 C603 0.951 . S
H580 C605 0.951 . S
H581 C607 0.950 . S
H582 C608 0.950 . S
H583 C610 0.950 . S
H584 C613 0.950 . S
H585 C614 0.950 . S
H586 C616 0.950 . S
H587 C617 0.950 . S
C588 H570 0.951 . S
C588 C589 1.366 . S
C588 C590 1.388 . S
C589 C588 1.366 . S
C589 C593 1.385 . S
C590 H571 0.951 . S
C590 C588 1.388 . S
C590 C591 1.366 . S
C591 C590 1.366 . S
C591 C592 1.414 . S
C591 C594 1.499 . S
C592 H572 0.950 . S
C592 C591 1.414 . S
C592 C593 1.374 . S
C593 H573 0.950 . S
C593 C589 1.385 . S
C593 C592 1.374 . S
C594 C591 1.499 . S
C594 C595 1.373 . S
C594 C596 1.389 . S
C595 H574 0.950 . S
C595 C594 1.373 . S
C595 C611 1.377 . S
C596 C594 1.389 . S
C596 C597 1.524 . S
C596 C610 1.377 . S
C597 C596 1.524 . S
C597 C598 1.397 . S
C597 C602 1.363 . S
C598 H575 0.950 . S
C598 C597 1.397 . S
C598 C599 1.334 . S
C599 H576 0.950 . S
C599 C598 1.334 . S
C599 C600 1.287 . S
C600 C599 1.287 . S
C600 C601 1.524 . S
C600 H619 0.913 . S
C601 H577 0.950 . S
C601 C600 1.524 . S
C601 C602 1.415 . S
C602 H578 0.950 . S
C602 C597 1.363 . S
C602 C601 1.415 . S
C603 H579 0.951 . S
C603 C604 1.366 . S
C603 C605 1.388 . S
C604 C603 1.366 . S
C604 C608 1.385 . S
C605 H580 0.951 . S
C605 C603 1.388 . S
C605 C606 1.366 . S
C606 C605 1.366 . S
C606 C607 1.414 . S
C606 C609 1.499 . S
C607 H581 0.950 . S
C607 C606 1.414 . S
C607 C608 1.374 . S
C608 H582 0.950 . S
C608 C604 1.385 . S
C608 C607 1.374 . S
C609 C606 1.499 . S
C609 C610 1.373 . S
C609 C611 1.389 . S
C610 H583 0.950 . S
C610 C596 1.377 . S
C610 C609 1.373 . S
C611 C595 1.377 . S
C611 C609 1.389 . S
C611 C612 1.524 . S
C612 C611 1.524 . S
C612 C613 1.397 . S
C612 C617 1.363 . S
C613 H584 0.950 . S
C613 C612 1.397 . S
C613 C614 1.334 . S
C614 H585 0.950 . S
C614 C613 1.334 . S
C614 C615 1.287 . S
C615 C614 1.287 . S
C615 C616 1.524 . S
C615 H618 0.999 . S
C616 H586 0.950 . S
C616 C615 1.524 . S
C616 C617 1.415 . S
C617 H587 0.950 . S
C617 C612 1.363 . S
C617 C616 1.415 . S
H618 C615 0.999 . S
H619 C600 0.913 . S
H620 C638 0.951 . S
H621 C640 0.951 . S
H622 C642 0.950 . S
H623 C643 0.950 . S
H624 C645 0.950 . S
H625 C648 0.950 . S
H626 C649 0.950 . S
H627 C651 0.950 . S
H628 C652 0.950 . S
H629 C653 0.951 . S
H630 C655 0.951 . S
H631 C657 0.950 . S
H632 C658 0.950 . S
H633 C660 0.950 . S
H634 C663 0.950 . S
H635 C664 0.950 . S
H636 C666 0.950 . S
H637 C667 0.950 . S
C638 H620 0.951 . S
C638 C639 1.366 . S
C638 C640 1.388 . S
C639 C638 1.366 . S
C639 C643 1.385 . S
C640 H621 0.951 . S
C640 C638 1.388 . S
C640 C641 1.366 . S
C641 C640 1.366 . S
C641 C642 1.414 . S
C641 C644 1.499 . S
C642 H622 0.950 . S
C642 C641 1.414 . S
C642 C643 1.374 . S
C643 H623 0.950 . S
C643 C639 1.385 . S
C643 C642 1.374 . S
C644 C641 1.499 . S
C644 C645 1.373 . S
C644 C646 1.389 . S
C645 H624 0.950 . S
C645 C644 1.373 . S
C645 C661 1.377 . S
C646 C644 1.389 . S
C646 C647 1.524 . S
C646 C660 1.377 . S
C647 C646 1.524 . S
C647 C648 1.397 . S
C647 C652 1.363 . S
C648 H625 0.950 . S
C648 C647 1.397 . S
C648 C649 1.334 . S
C649 H626 0.950 . S
C649 C648 1.334 . S
C649 C650 1.287 . S
C650 C649 1.287 . S
C650 C651 1.524 . S
C650 H669 0.913 . S
C651 H627 0.950 . S
C651 C650 1.524 . S
C651 C652 1.415 . S
C652 H628 0.950 . S
C652 C647 1.363 . S
C652 C651 1.415 . S
C653 H629 0.951 . S
C653 C654 1.366 . S
C653 C655 1.388 . S
C654 C653 1.366 . S
C654 C658 1.385 . S
C655 H630 0.951 . S
C655 C653 1.388 . S
C655 C656 1.366 . S
C656 C655 1.366 . S
C656 C657 1.414 . S
C656 C659 1.499 . S
C657 H631 0.950 . S
C657 C656 1.414 . S
C657 C658 1.374 . S
C658 H632 0.950 . S
C658 C654 1.385 . S
C658 C657 1.374 . S
C659 C656 1.499 . S
C659 C660 1.373 . S
C659 C661 1.389 . S
C660 H633 0.950 . S
C660 C646 1.377 . S
C660 C659 1.373 . S
C661 C645 1.377 . S
C661 C659 1.389 . S
C661 C662 1.524 . S
C662 C661 1.524 . S
C662 C663 1.397 . S
C662 C667 1.363 . S
C663 H634 0.950 . S
C663 C662 1.397 . S
C663 C664 1.334 . S
C664 H635 0.950 . S
C664 C663 1.334 . S
C664 C665 1.287 . S
C665 C664 1.287 . S
C665 C666 1.524 . S
C665 H668 0.999 . S
C666 H636 0.950 . S
C666 C665 1.524 . S
C666 C667 1.415 . S
C667 H637 0.950 . S
C667 C662 1.363 . S
C667 C666 1.415 . S
H668 C665 0.999 . S
H669 C650 0.913 . S
H670 C688 0.968 . S
H671 C690 0.951 . S
H672 C692 0.950 . S
H673 C693 0.950 . S
H674 C695 0.950 . S
H675 C698 0.950 . S
H676 C699 0.950 . S
H677 C701 0.950 . S
H678 C702 0.950 . S
H679 C703 0.951 . S
H680 C705 0.951 . S
H681 C707 0.950 . S
H682 C708 0.950 . S
H683 C710 0.950 . S
H684 C713 0.950 . S
H685 C714 0.950 1_565 S
H686 C716 0.950 . S
H687 C717 0.950 . S
C688 H670 0.968 . S
C688 C689 1.365 1_554 S
C688 C690 1.372 1_554 S
C689 C688 1.365 1_556 S
C689 C693 1.385 . S
C690 H671 0.951 . S
C690 C688 1.372 1_556 S
C690 C691 1.366 . S
C691 C690 1.366 . S
C691 C692 1.414 . S
C691 C694 1.499 . S
C692 H672 0.950 . S
C692 C691 1.414 . S
C692 C693 1.374 . S
C693 H673 0.950 . S
C693 C689 1.385 . S
C693 C692 1.374 . S
C694 C691 1.499 . S
C694 C695 1.373 . S
C694 C696 1.389 . S
C695 H674 0.950 . S
C695 C694 1.373 . S
C695 C711 1.377 . S
C696 C694 1.389 . S
C696 C697 1.524 . S
C696 C710 1.377 . S
C697 C696 1.524 . S
C697 C698 1.397 . S
C697 C702 1.363 . S
C698 H675 0.950 . S
C698 C697 1.397 . S
C698 C699 1.334 . S
C699 H676 0.950 . S
C699 C698 1.334 . S
C699 C700 1.287 . S
C700 C699 1.287 . S
C700 C701 1.524 . S
C700 H719 0.913 . S
C701 H677 0.950 . S
C701 C700 1.524 . S
C701 C702 1.415 . S
C702 H678 0.950 . S
C702 C697 1.363 . S
C702 C701 1.415 . S
C703 H679 0.951 . S
C703 C704 1.366 . S
C703 C705 1.388 . S
C704 C703 1.366 . S
C704 C708 1.385 . S
C705 H680 0.951 . S
C705 C703 1.388 . S
C705 C706 1.366 . S
C706 C705 1.366 . S
C706 C707 1.414 . S
C706 C709 1.499 . S
C707 H681 0.950 . S
C707 C706 1.414 . S
C707 C708 1.374 . S
C708 H682 0.950 . S
C708 C704 1.385 . S
C708 C707 1.374 . S
C709 C706 1.499 . S
C709 C710 1.373 . S
C709 C711 1.389 . S
C710 H683 0.950 . S
C710 C696 1.377 . S
C710 C709 1.373 . S
C711 C695 1.377 . S
C711 C709 1.389 . S
C711 C712 1.524 . S
C712 C711 1.524 . S
C712 C713 1.397 . S
C712 C717 1.363 . S
C713 H684 0.950 . S
C713 C712 1.397 . S
C713 C714 1.334 . S
C714 H685 0.950 1_545 S
C714 C713 1.334 . S
C714 C715 1.287 . S
C715 C714 1.287 . S
C715 C716 1.524 . S
C715 H718 0.999 . S
C716 H686 0.950 . S
C716 C715 1.524 . S
C716 C717 1.415 . S
C717 H687 0.950 . S
C717 C712 1.363 . S
C717 C716 1.415 . S
H718 C715 0.999 . S
H719 C700 0.913 . S
H720 C738 0.951 . S
H721 C740 0.951 . S
H722 C742 0.950 . S
H723 C743 0.950 . S
H724 C745 0.950 . S
H725 C748 0.950 . S
H726 C749 0.950 . S
H727 C751 0.950 . S
H728 C752 0.950 . S
H729 C753 0.951 . S
H730 C755 0.951 . S
H731 C757 0.950 . S
H732 C758 0.950 . S
H733 C760 0.950 . S
H734 C763 0.950 . S
H735 C764 0.950 . S
H736 C766 0.950 . S
H737 C767 0.950 . S
C738 H720 0.951 . S
C738 C739 1.366 . S
C738 C740 1.388 . S
C739 C738 1.366 . S
C739 C743 1.385 . S
C740 H721 0.951 . S
C740 C738 1.388 . S
C740 C741 1.366 . S
C741 C740 1.366 . S
C741 C742 1.414 . S
C741 C744 1.499 . S
C742 H722 0.950 . S
C742 C741 1.414 . S
C742 C743 1.374 . S
C743 H723 0.950 . S
C743 C739 1.385 . S
C743 C742 1.374 . S
C744 C741 1.499 . S
C744 C745 1.373 . S
C744 C746 1.389 . S
C745 H724 0.950 . S
C745 C744 1.373 . S
C745 C761 1.377 . S
C746 C744 1.389 . S
C746 C747 1.524 . S
C746 C760 1.377 . S
C747 C746 1.524 . S
C747 C748 1.397 . S
C747 C752 1.363 . S
C748 H725 0.950 . S
C748 C747 1.397 . S
C748 C749 1.334 . S
C749 H726 0.950 . S
C749 C748 1.334 . S
C749 C750 1.287 . S
C750 C749 1.287 . S
C750 C751 1.524 . S
C750 H769 0.913 . S
C751 H727 0.950 . S
C751 C750 1.524 . S
C751 C752 1.415 . S
C752 H728 0.950 . S
C752 C747 1.363 . S
C752 C751 1.415 . S
C753 H729 0.951 . S
C753 C754 1.366 . S
C753 C755 1.388 . S
C754 C753 1.366 . S
C754 C758 1.385 . S
C755 H730 0.951 . S
C755 C753 1.388 . S
C755 C756 1.366 . S
C756 C755 1.366 . S
C756 C757 1.414 . S
C756 C759 1.499 . S
C757 H731 0.950 . S
C757 C756 1.414 . S
C757 C758 1.374 . S
C758 H732 0.950 . S
C758 C754 1.385 . S
C758 C757 1.374 . S
C759 C756 1.499 . S
C759 C760 1.373 . S
C759 C761 1.389 . S
C760 H733 0.950 . S
C760 C746 1.377 . S
C760 C759 1.373 . S
C761 C745 1.377 . S
C761 C759 1.389 . S
C761 C762 1.524 . S
C762 C761 1.524 . S
C762 C763 1.397 . S
C762 C767 1.363 . S
C763 H734 0.950 . S
C763 C762 1.397 . S
C763 C764 1.334 . S
C764 H735 0.950 . S
C764 C763 1.334 . S
C764 C765 1.287 . S
C765 C764 1.287 . S
C765 C766 1.524 . S
C765 H768 0.999 . S
C766 H736 0.950 . S
C766 C765 1.524 . S
C766 C767 1.415 . S
C767 H737 0.950 . S
C767 C762 1.363 . S
C767 C766 1.415 . S
H768 C765 0.999 . S
H769 C750 0.913 . S
H770 C788 0.951 . S
H771 C790 0.951 . S
H772 C792 0.950 . S
H773 C793 0.950 . S
H774 C795 0.950 . S
H775 C798 0.950 . S
H776 C799 0.950 . S
H777 C801 0.950 . S
H778 C802 0.950 . S
H779 C803 0.951 . S
H780 C805 0.951 . S
H781 C807 0.950 . S
H782 C808 0.950 . S
H783 C810 0.950 . S
H784 C813 0.950 . S
H785 C814 0.950 . S
H786 C816 0.950 . S
H787 C817 0.950 . S
C788 H770 0.951 . S
C788 C789 1.366 . S
C788 C790 1.388 . S
C789 C788 1.366 . S
C789 C793 1.385 . S
C790 H771 0.951 . S
C790 C788 1.388 . S
C790 C791 1.366 . S
C791 C790 1.366 . S
C791 C792 1.414 . S
C791 C794 1.499 . S
C792 H772 0.950 . S
C792 C791 1.414 . S
C792 C793 1.374 . S
C793 H773 0.950 . S
C793 C789 1.385 . S
C793 C792 1.374 . S
C794 C791 1.499 . S
C794 C795 1.373 . S
C794 C796 1.389 . S
C795 H774 0.950 . S
C795 C794 1.373 . S
C795 C811 1.377 . S
C796 C794 1.389 . S
C796 C797 1.524 . S
C796 C810 1.377 . S
C797 C796 1.524 . S
C797 C798 1.397 . S
C797 C802 1.363 . S
C798 H775 0.950 . S
C798 C797 1.397 . S
C798 C799 1.334 . S
C799 H776 0.950 . S
C799 C798 1.334 . S
C799 C800 1.287 . S
C800 C799 1.287 . S
C800 C801 1.524 . S
C800 H819 0.913 . S
C801 H777 0.950 . S
C801 C800 1.524 . S
C801 C802 1.415 . S
C802 H778 0.950 . S
C802 C797 1.363 . S
C802 C801 1.415 . S
C803 H779 0.951 . S
C803 C804 1.366 . S
C803 C805 1.388 . S
C804 C803 1.366 . S
C804 C808 1.385 . S
C805 H780 0.951 . S
C805 C803 1.388 . S
C805 C806 1.366 . S
C806 C805 1.366 . S
C806 C807 1.414 . S
C806 C809 1.499 . S
C807 H781 0.950 . S
C807 C806 1.414 . S
C807 C808 1.374 . S
C808 H782 0.950 . S
C808 C804 1.385 . S
C808 C807 1.374 . S
C809 C806 1.499 . S
C809 C810 1.373 . S
C809 C811 1.389 . S
C810 H783 0.950 . S
C810 C796 1.377 . S
C810 C809 1.373 . S
C811 C795 1.377 . S
C811 C809 1.389 . S
C811 C812 1.524 . S
C812 C811 1.524 . S
C812 C813 1.397 . S
C812 C817 1.363 . S
C813 H784 0.950 . S
C813 C812 1.397 . S
C813 C814 1.334 . S
C814 H785 0.950 . S
C814 C813 1.334 . S
C814 C815 1.287 . S
C815 C814 1.287 . S
C815 C816 1.524 . S
C815 H818 1.024 . S
C816 H786 0.950 . S
C816 C815 1.524 . S
C816 C817 1.415 . S
C817 H787 0.950 . S
C817 C812 1.363 . S
C817 C816 1.415 . S
H818 C815 1.024 . S
H819 C800 0.913 . S
C254 C115 1.695 . S
C239 N41 1.725 . S
C289 N2 1.677 . S
C304 C210 1.659 . S
C339 N15 1.720 . S
C354 C126 1.695 . S
C389 N28 1.671 . S
C404 C199 1.659 . S
C454 C110 1.431 . S
C439 N5 1.616 . S
C504 C203 1.694 . S
C489 N14 1.683 . S
C539 N27 1.590 . S
C554 C119 1.623 . S
C589 N44 1.586 . S
C604 C194 1.433 . S
C654 C205 1.433 . S
C639 N18 1.585 . S
C704 C121 1.431 . S
C689 N31 1.615 1_556 S
C754 C192 1.694 . S
C739 N40 1.693 . S
C789 N1 1.604 1_556 S
C804 C108 1.623 . S
