# Generated by pormake.
# Topology llk, (3,12)-cn, num edge types: 1
# Building blocks:
#     Node 0, Type 0, BuildingBlock: BETDAH_clean_linker_0, # of connection points: 3
#     Node 1, Type 0, BuildingBlock: BETDAH_clean_linker_0, # of connection points: 3
#     Node 2, Type 0, BuildingBlock: BETDAH_clean_linker_0, # of connection points: 3
#     Node 3, Type 0, BuildingBlock: BETDAH_clean_linker_0, # of connection points: 3
#     Node 4, Type 0, BuildingBlock: BETDAH_clean_linker_0, # of connection points: 3
#     Node 5, Type 0, BuildingBlock: BETDAH_clean_linker_0, # of connection points: 3
#     Node 6, Type 0, BuildingBlock: BETDAH_clean_linker_0, # of connection points: 3
#     Node 7, Type 0, BuildingBlock: BETDAH_clean_linker_0, # of connection points: 3
#     Node 8, Type 0, BuildingBlock: BETDAH_clean_linker_0, # of connection points: 3
#     Node 9, Type 0, BuildingBlock: BETDAH_clean_linker_0, # of connection points: 3
#     Node 10, Type 0, BuildingBlock: BETDAH_clean_linker_0, # of connection points: 3
#     Node 11, Type 0, BuildingBlock: BETDAH_clean_linker_0, # of connection points: 3
#     Node 12, Type 0, BuildingBlock: BETDAH_clean_linker_0, # of connection points: 3
#     Node 13, Type 0, BuildingBlock: BETDAH_clean_linker_0, # of connection points: 3
#     Node 14, Type 0, BuildingBlock: BETDAH_clean_linker_0, # of connection points: 3
#     Node 15, Type 0, BuildingBlock: BETDAH_clean_linker_0, # of connection points: 3
#     Node 16, Type 0, BuildingBlock: BETDAH_clean_linker_0, # of connection points: 3
#     Node 17, Type 0, BuildingBlock: BETDAH_clean_linker_0, # of connection points: 3
#     Node 18, Type 0, BuildingBlock: BETDAH_clean_linker_0, # of connection points: 3
#     Node 19, Type 0, BuildingBlock: BETDAH_clean_linker_0, # of connection points: 3
#     Node 20, Type 0, BuildingBlock: BETDAH_clean_linker_0, # of connection points: 3
#     Node 21, Type 0, BuildingBlock: BETDAH_clean_linker_0, # of connection points: 3
#     Node 22, Type 0, BuildingBlock: BETDAH_clean_linker_0, # of connection points: 3
#     Node 23, Type 0, BuildingBlock: BETDAH_clean_linker_0, # of connection points: 3
#     Node 24, Type 1, BuildingBlock: QEWDON_clean_sbu_0, # of connection points: 12
#     Node 25, Type 1, BuildingBlock: QEWDON_clean_sbu_0, # of connection points: 12
#     Node 26, Type 1, BuildingBlock: QEWDON_clean_sbu_0, # of connection points: 12
#     Node 27, Type 1, BuildingBlock: QEWDON_clean_sbu_0, # of connection points: 12
#     Node 28, Type 1, BuildingBlock: QEWDON_clean_sbu_0, # of connection points: 12
#     Node 29, Type 1, BuildingBlock: QEWDON_clean_sbu_0, # of connection points: 12
#     Edge 30, Type (0, 1), BuildingBlock: ZUJKAS_clean_linker_0, # of connection points: 2
#     Edge 31, Type (0, 1), BuildingBlock: ZUJKAS_clean_linker_0, # of connection points: 2
#     Edge 32, Type (0, 1), BuildingBlock: ZUJKAS_clean_linker_0, # of connection points: 2
#     Edge 33, Type (0, 1), BuildingBlock: ZUJKAS_clean_linker_0, # of connection points: 2
#     Edge 34, Type (0, 1), BuildingBlock: ZUJKAS_clean_linker_0, # of connection points: 2
#     Edge 35, Type (0, 1), BuildingBlock: ZUJKAS_clean_linker_0, # of connection points: 2
#     Edge 36, Type (0, 1), BuildingBlock: ZUJKAS_clean_linker_0, # of connection points: 2
#     Edge 37, Type (0, 1), BuildingBlock: ZUJKAS_clean_linker_0, # of connection points: 2
#     Edge 38, Type (0, 1), BuildingBlock: ZUJKAS_clean_linker_0, # of connection points: 2
#     Edge 39, Type (0, 1), BuildingBlock: ZUJKAS_clean_linker_0, # of connection points: 2
#     Edge 40, Type (0, 1), BuildingBlock: ZUJKAS_clean_linker_0, # of connection points: 2
#     Edge 41, Type (0, 1), BuildingBlock: ZUJKAS_clean_linker_0, # of connection points: 2
#     Edge 42, Type (0, 1), BuildingBlock: ZUJKAS_clean_linker_0, # of connection points: 2
#     Edge 43, Type (0, 1), BuildingBlock: ZUJKAS_clean_linker_0, # of connection points: 2
#     Edge 44, Type (0, 1), BuildingBlock: ZUJKAS_clean_linker_0, # of connection points: 2
#     Edge 45, Type (0, 1), BuildingBlock: ZUJKAS_clean_linker_0, # of connection points: 2
#     Edge 46, Type (0, 1), BuildingBlock: ZUJKAS_clean_linker_0, # of connection points: 2
#     Edge 47, Type (0, 1), BuildingBlock: ZUJKAS_clean_linker_0, # of connection points: 2
#     Edge 48, Type (0, 1), BuildingBlock: ZUJKAS_clean_linker_0, # of connection points: 2
#     Edge 49, Type (0, 1), BuildingBlock: ZUJKAS_clean_linker_0, # of connection points: 2
#     Edge 50, Type (0, 1), BuildingBlock: ZUJKAS_clean_linker_0, # of connection points: 2
#     Edge 51, Type (0, 1), BuildingBlock: ZUJKAS_clean_linker_0, # of connection points: 2
#     Edge 52, Type (0, 1), BuildingBlock: ZUJKAS_clean_linker_0, # of connection points: 2
#     Edge 53, Type (0, 1), BuildingBlock: ZUJKAS_clean_linker_0, # of connection points: 2
#     Edge 54, Type (0, 1), BuildingBlock: ZUJKAS_clean_linker_0, # of connection points: 2
#     Edge 55, Type (0, 1), BuildingBlock: ZUJKAS_clean_linker_0, # of connection points: 2
#     Edge 56, Type (0, 1), BuildingBlock: ZUJKAS_clean_linker_0, # of connection points: 2
#     Edge 57, Type (0, 1), BuildingBlock: ZUJKAS_clean_linker_0, # of connection points: 2
#     Edge 58, Type (0, 1), BuildingBlock: ZUJKAS_clean_linker_0, # of connection points: 2
#     Edge 59, Type (0, 1), BuildingBlock: ZUJKAS_clean_linker_0, # of connection points: 2
#     Edge 60, Type (0, 1), BuildingBlock: ZUJKAS_clean_linker_0, # of connection points: 2
#     Edge 61, Type (0, 1), BuildingBlock: ZUJKAS_clean_linker_0, # of connection points: 2
#     Edge 62, Type (0, 1), BuildingBlock: ZUJKAS_clean_linker_0, # of connection points: 2
#     Edge 63, Type (0, 1), BuildingBlock: ZUJKAS_clean_linker_0, # of connection points: 2
#     Edge 64, Type (0, 1), BuildingBlock: ZUJKAS_clean_linker_0, # of connection points: 2
#     Edge 65, Type (0, 1), BuildingBlock: ZUJKAS_clean_linker_0, # of connection points: 2
#     Edge 66, Type (0, 1), BuildingBlock: ZUJKAS_clean_linker_0, # of connection points: 2
#     Edge 67, Type (0, 1), BuildingBlock: ZUJKAS_clean_linker_0, # of connection points: 2
#     Edge 68, Type (0, 1), BuildingBlock: ZUJKAS_clean_linker_0, # of connection points: 2
#     Edge 69, Type (0, 1), BuildingBlock: ZUJKAS_clean_linker_0, # of connection points: 2
#     Edge 70, Type (0, 1), BuildingBlock: ZUJKAS_clean_linker_0, # of connection points: 2
#     Edge 71, Type (0, 1), BuildingBlock: ZUJKAS_clean_linker_0, # of connection points: 2
#     Edge 72, Type (0, 1), BuildingBlock: ZUJKAS_clean_linker_0, # of connection points: 2
#     Edge 73, Type (0, 1), BuildingBlock: ZUJKAS_clean_linker_0, # of connection points: 2
#     Edge 74, Type (0, 1), BuildingBlock: ZUJKAS_clean_linker_0, # of connection points: 2
#     Edge 75, Type (0, 1), BuildingBlock: ZUJKAS_clean_linker_0, # of connection points: 2
#     Edge 76, Type (0, 1), BuildingBlock: ZUJKAS_clean_linker_0, # of connection points: 2
#     Edge 77, Type (0, 1), BuildingBlock: ZUJKAS_clean_linker_0, # of connection points: 2
#     Edge 78, Type (0, 1), BuildingBlock: ZUJKAS_clean_linker_0, # of connection points: 2
#     Edge 79, Type (0, 1), BuildingBlock: ZUJKAS_clean_linker_0, # of connection points: 2
#     Edge 80, Type (0, 1), BuildingBlock: ZUJKAS_clean_linker_0, # of connection points: 2
#     Edge 81, Type (0, 1), BuildingBlock: ZUJKAS_clean_linker_0, # of connection points: 2
#     Edge 82, Type (0, 1), BuildingBlock: ZUJKAS_clean_linker_0, # of connection points: 2
#     Edge 83, Type (0, 1), BuildingBlock: ZUJKAS_clean_linker_0, # of connection points: 2
#     Edge 84, Type (0, 1), BuildingBlock: ZUJKAS_clean_linker_0, # of connection points: 2
#     Edge 85, Type (0, 1), BuildingBlock: ZUJKAS_clean_linker_0, # of connection points: 2
#     Edge 86, Type (0, 1), BuildingBlock: ZUJKAS_clean_linker_0, # of connection points: 2
#     Edge 87, Type (0, 1), BuildingBlock: ZUJKAS_clean_linker_0, # of connection points: 2
#     Edge 88, Type (0, 1), BuildingBlock: ZUJKAS_clean_linker_0, # of connection points: 2
#     Edge 89, Type (0, 1), BuildingBlock: ZUJKAS_clean_linker_0, # of connection points: 2
#     Edge 90, Type (0, 1), BuildingBlock: ZUJKAS_clean_linker_0, # of connection points: 2
#     Edge 91, Type (0, 1), BuildingBlock: ZUJKAS_clean_linker_0, # of connection points: 2
#     Edge 92, Type (0, 1), BuildingBlock: ZUJKAS_clean_linker_0, # of connection points: 2
#     Edge 93, Type (0, 1), BuildingBlock: ZUJKAS_clean_linker_0, # of connection points: 2
#     Edge 94, Type (0, 1), BuildingBlock: ZUJKAS_clean_linker_0, # of connection points: 2
#     Edge 95, Type (0, 1), BuildingBlock: ZUJKAS_clean_linker_0, # of connection points: 2
#     Edge 96, Type (0, 1), BuildingBlock: ZUJKAS_clean_linker_0, # of connection points: 2
#     Edge 97, Type (0, 1), BuildingBlock: ZUJKAS_clean_linker_0, # of connection points: 2
#     Edge 98, Type (0, 1), BuildingBlock: ZUJKAS_clean_linker_0, # of connection points: 2
#     Edge 99, Type (0, 1), BuildingBlock: ZUJKAS_clean_linker_0, # of connection points: 2
#     Edge 100, Type (0, 1), BuildingBlock: ZUJKAS_clean_linker_0, # of connection points: 2
#     Edge 101, Type (0, 1), BuildingBlock: ZUJKAS_clean_linker_0, # of connection points: 2
# Relax obj value: 0.091
# Max RMSD: 0.167
# Mean RMSD: 0.132
data_MOF--net-llk--node1-QEWDON_clean_sbu_0--node2-BETDAH_clean_linker_0--edge1-ZUJKAS_clean_linker_0
_symmetry_space_group_name_H-M    P1
_symmetry_Int_Tables_number       1
_symmetry_cell_setting            triclinic
loop_
_symmetry_equiv_pos_as_xyz
'x, y, z'
_cell_length_a     58.100453
_cell_length_b     60.843989
_cell_length_c     60.321979
_cell_angle_alpha  90.07447
_cell_angle_beta   89.97577
_cell_angle_gamma 89.618326
loop_
_atom_site_label
_atom_site_type_symbol
_atom_site_fract_x
_atom_site_fract_y
_atom_site_fract_z
_atom_type_partial_charge
H0 H 0.05916 0.26584 0.33926 0.0
H1 H 0.05992 0.30023 0.27707 0.0
H2 H 0.05671 0.22966 0.27798 0.0
C3 C 0.05915 0.26553 0.3213 0.0
C4 C 0.05799 0.24525 0.3102 0.0
C5 C 0.05975 0.28545 0.30954 0.0
C6 C 0.05939 0.28495 0.28623 0.0
C7 C 0.05848 0.26476 0.27482 0.0
C8 C 0.05791 0.24509 0.28689 0.0
N9 N 0.05777 0.26361 0.25128 0.0
C10 C 0.05661 0.28184 0.23741 0.0
H11 H 0.69315 0.06412 0.20999 0.0
H12 H 0.74705 0.07737 0.25663 0.0
H13 H 0.76134 0.07868 0.18658 0.0
C14 C 0.71092 0.0683 0.21338 0.0
C15 C 0.72627 0.07115 0.19567 0.0
C16 C 0.71828 0.07056 0.23538 0.0
C17 C 0.74141 0.07551 0.23963 0.0
C18 C 0.75707 0.07845 0.22208 0.0
C19 C 0.74929 0.07658 0.20012 0.0
N20 N 0.78069 0.08297 0.22609 0.0
C21 C 0.79061 0.08162 0.24705 0.0
H22 H 0.00756 0.69211 0.26059 0.0
H23 H 0.01215 0.75468 0.29327 0.0
H24 H 0.0034 0.7517 0.22247 0.0
C25 C 0.00761 0.7099 0.25975 0.0
C26 C 0.00514 0.72028 0.23911 0.0
C27 C 0.0102 0.72214 0.27933 0.0
C28 C 0.01028 0.7452 0.27819 0.0
C29 C 0.00764 0.75591 0.25764 0.0
C30 C 0.00512 0.74337 0.23825 0.0
N31 N 0.0075 0.7792 0.25582 0.0
C32 C 0.0078 0.79346 0.27386 0.0
H33 H 0.23522 0.99379 0.30369 0.0
H34 H 0.28908 0.99062 0.25478 0.0
H35 H 0.21798 0.99076 0.23459 0.0
C36 C 0.24068 0.99246 0.28655 0.0
C37 C 0.22398 0.99197 0.26982 0.0
C38 C 0.26423 0.9922 0.28133 0.0
C39 C 0.27095 0.99112 0.25893 0.0
C40 C 0.25423 0.99044 0.24201 0.0
C41 C 0.23084 0.99114 0.2476 0.0
N42 N 0.2602 0.98899 0.21923 0.0
C43 C 0.28264 0.98802 0.21132 0.0
H44 H 0.00105 0.76238 0.69419 0.0
H45 H 0.00928 0.72521 0.75424 0.0
H46 H 0.01212 0.79584 0.75608 0.0
C47 C 0.0036 0.7619 0.71198 0.0
C48 C 0.00634 0.78165 0.7237 0.0
C49 C 0.00468 0.74149 0.7228 0.0
C50 C 0.00818 0.74091 0.74586 0.0
C51 C 0.01098 0.76058 0.75788 0.0
C52 C 0.01 0.78077 0.74671 0.0
N53 N 0.0152 0.76077 0.78109 0.0
C54 C 0.0177 0.74206 0.79412 0.0
H55 H 0.28704 0.02515 0.71434 0.0
H56 H 0.30841 0.99879 0.7768 0.0
H57 H 0.23678 0.99696 0.75829 0.0
C58 C 0.28255 0.01781 0.73012 0.0
C59 C 0.25963 0.01201 0.73443 0.0
C60 C 0.30007 0.01305 0.74534 0.0
C61 C 0.29467 0.00254 0.76527 0.0
C62 C 0.27174 0.99685 0.77013 0.0
C63 C 0.25438 0.00146 0.75457 0.0
N64 N 0.2658 0.98639 0.79042 0.0
C65 C 0.28159 0.98343 0.80751 0.0
H66 H -0.00043 0.33053 0.75098 0.0
H67 H 0.98295 0.27364 0.71199 0.0
H68 H 0.98089 0.27025 0.78325 0.0
C69 C 0.99446 0.31345 0.75001 0.0
C70 C 0.99073 0.30165 0.76964 0.0
C71 C 0.99155 0.30356 0.72915 0.0
C72 C 0.98529 0.28132 0.72803 0.0
C73 C 0.98138 0.26925 0.74758 0.0
C74 C 0.98385 0.27959 0.76825 0.0
N75 N 0.97484 0.24678 0.74705 0.0
C76 C 0.97532 0.23381 0.72803 0.0
H77 H 0.79326 0.05428 0.72673 0.0
H78 H 0.74777 0.08989 0.77035 0.0
H79 H 0.8201 0.08477 0.78541 0.0
C80 C 0.79032 0.06339 0.74195 0.0
C81 C 0.80903 0.06808 0.75575 0.0
C82 C 0.76823 0.07148 0.74682 0.0
C83 C 0.7648 0.08369 0.76637 0.0
C84 C 0.7835 0.08822 0.78052 0.0
C85 C 0.80564 0.08092 0.77477 0.0
N86 N 0.78057 0.10024 0.8005 0.0
C87 C 0.76052 0.09931 0.813 0.0
H88 H 0.30888 0.27041 0.04083 0.0
H89 H 0.24142 0.29679 0.05317 0.0
H90 H 0.24943 0.23071 0.02803 0.0
C91 C 0.29033 0.26839 0.0408 0.0
C92 C 0.28089 0.24867 0.03323 0.0
C93 C 0.27625 0.28564 0.04816 0.0
C94 C 0.25226 0.28331 0.04764 0.0
C95 C 0.2425 0.26331 0.04054 0.0
C96 C 0.25694 0.24598 0.03371 0.0
N97 N 0.21832 0.26012 0.03991 0.0
C98 C 0.20247 0.27731 0.03988 0.0
H99 H 0.30054 0.77491 0.01492 0.0
H100 H 0.2394 0.74106 0.03506 0.0
H101 H 0.2382 0.81134 0.02774 0.0
C102 C 0.28245 0.7752 0.01929 0.0
C103 C 0.2707 0.79544 0.02031 0.0
C104 C 0.27133 0.75548 0.02477 0.0
C105 C 0.24806 0.75622 0.03106 0.0
C106 C 0.23601 0.77634 0.03209 0.0
C107 C 0.2475 0.79586 0.02694 0.0
N108 N 0.21236 0.77739 0.03817 0.0
C109 C 0.19882 0.75879 0.04077 0.0
H110 H 0.81733 0.32931 0.99255 0.0
H111 H 0.7753 0.27384 0.9756 0.0
H112 H 0.84894 0.26961 0.96896 0.0
C113 C 0.81583 0.3124 0.98705 0.0
C114 C 0.83579 0.30056 0.98133 0.0
C115 C 0.79393 0.303 0.98488 0.0
C116 C 0.79212 0.28123 0.97717 0.0
C117 C 0.81203 0.26913 0.97148 0.0
C118 C 0.83367 0.279 0.97331 0.0
N119 N 0.81103 0.24707 0.96379 0.0
C120 C 0.79161 0.2339 0.9651 0.0
H121 H 0.78169 0.7045 0.98464 0.0
H122 H 0.74602 0.76628 0.98944 0.0
H123 H 0.81893 0.76501 0.97717 0.0
C124 C 0.78189 0.72228 0.98367 0.0
C125 C 0.80282 0.73318 0.98008 0.0
C126 C 0.76135 0.7341 0.98708 0.0
C127 C 0.76187 0.75715 0.98694 0.0
C128 C 0.78271 0.76834 0.98343 0.0
C129 C 0.803 0.75627 0.98 0.0
N130 N 0.78383 0.79165 0.98336 0.0
C131 C 0.76447 0.80502 0.98533 0.0
H132 H 0.52022 0.76134 0.80772 0.0
H133 H 0.52096 0.79172 0.74353 0.0
H134 H 0.52301 0.72118 0.74904 0.0
C135 C 0.52119 0.75994 0.78983 0.0
C136 C 0.5221 0.73898 0.78007 0.0
C137 C 0.52063 0.77904 0.77679 0.0
C138 C 0.52109 0.77701 0.75361 0.0
C139 C 0.52196 0.75613 0.7435 0.0
C140 C 0.52227 0.73723 0.75683 0.0
N141 N 0.52265 0.75364 0.72005 0.0
C142 C 0.52364 0.77132 0.70547 0.0
H143 H 0.22745 0.55238 0.73838 0.0
H144 H 0.28069 0.56253 0.78682 0.0
H145 H 0.29678 0.56455 0.71718 0.0
C146 C 0.24529 0.55563 0.74241 0.0
C147 C 0.26128 0.55811 0.7252 0.0
C148 C 0.252 0.55747 0.7647 0.0
C149 C 0.27533 0.5611 0.76969 0.0
C150 C 0.29153 0.5637 0.75247 0.0
C151 C 0.28428 0.56257 0.73036 0.0
N152 N 0.31517 0.56765 0.75668 0.0
C153 C 0.32578 0.56392 0.77696 0.0
H154 H 0.46553 0.18182 0.76208 0.0
H155 H 0.46155 0.24332 0.79693 0.0
H156 H 0.46675 0.24263 0.72575 0.0
C157 C 0.46529 0.19964 0.76181 0.0
C158 C 0.46662 0.21068 0.74142 0.0
C159 C 0.4635 0.21125 0.78187 0.0
C160 C 0.46266 0.23432 0.78146 0.0
C161 C 0.46377 0.24569 0.76117 0.0
C162 C 0.46547 0.23377 0.74128 0.0
N163 N 0.46372 0.26905 0.76021 0.0
C164 C 0.46676 0.28261 0.77857 0.0
H165 H 0.71437 0.51221 0.82288 0.0
H166 H 0.76707 0.51999 0.77365 0.0
H167 H 0.69614 0.51455 0.75382 0.0
C168 C 0.71942 0.51347 0.80563 0.0
C169 C 0.70247 0.51287 0.78906 0.0
C170 C 0.74271 0.51616 0.80025 0.0
C171 C 0.74912 0.51773 0.77785 0.0
C172 C 0.73234 0.51709 0.76101 0.0
C173 C 0.70907 0.51486 0.76676 0.0
N174 N 0.73826 0.51896 0.73823 0.0
C175 C 0.7608 0.52048 0.73063 0.0
H176 H 0.50681 0.26561 0.19946 0.0
H177 H 0.51499 0.23167 0.26132 0.0
H178 H 0.51355 0.30241 0.26007 0.0
C179 C 0.50879 0.2661 0.21732 0.0
C180 C 0.50996 0.28651 0.22817 0.0
C181 C 0.51068 0.2463 0.22911 0.0
C182 C 0.51349 0.24694 0.25222 0.0
C183 C 0.51426 0.26721 0.26349 0.0
C184 C 0.51244 0.28686 0.25137 0.0
N185 N 0.51721 0.26844 0.28688 0.0
C186 C 0.51946 0.25022 0.30071 0.0
H187 H 0.75437 0.48759 0.20147 0.0
H188 H 0.78031 0.49925 0.26717 0.0
H189 H 0.70844 0.48584 0.25731 0.0
C190 C 0.75159 0.48849 0.21921 0.0
C191 C 0.72928 0.48569 0.22765 0.0
C192 C 0.77013 0.49346 0.23329 0.0
C193 C 0.76609 0.49555 0.2562 0.0
C194 C 0.74376 0.4928 0.26487 0.0
C195 C 0.72555 0.488 0.25052 0.0
N196 N 0.73892 0.49482 0.28788 0.0
C197 C 0.7557 0.49743 0.30404 0.0
H198 H 0.55532 0.82579 0.25039 0.0
H199 H 0.55869 0.76478 0.21459 0.0
H200 H 0.56192 0.76493 0.28599 0.0
C201 C 0.55683 0.80802 0.25037 0.0
C202 C 0.55873 0.79685 0.27061 0.0
C203 C 0.55662 0.79662 0.23014 0.0
C204 C 0.55882 0.7736 0.23019 0.0
C205 C 0.56073 0.76206 0.25036 0.0
C206 C 0.56049 0.77379 0.27047 0.0
N207 N 0.56286 0.73876 0.25105 0.0
C208 C 0.56217 0.7251 0.23249 0.0
H209 H 0.30795 0.59487 0.19349 0.0
H210 H 0.25733 0.59175 0.2452 0.0
H211 H 0.32929 0.59654 0.26164 0.0
C212 C 0.30356 0.59552 0.21095 0.0
C213 C 0.32126 0.59668 0.22669 0.0
C214 C 0.2805 0.59358 0.21743 0.0
C215 C 0.27513 0.59313 0.24013 0.0
C216 C 0.2927 0.59434 0.25619 0.0
C217 C 0.31572 0.59601 0.24933 0.0
N218 N 0.28783 0.59345 0.27926 0.0
C219 C 0.26597 0.58983 0.28789 0.0
H220 H 0.83668 0.76816 0.47239 0.0
H221 H 0.7705 0.80007 0.4719 0.0
H222 H 0.77495 0.72957 0.47453 0.0
C223 C 0.81807 0.76718 0.47236 0.0
C224 C 0.80755 0.74648 0.47326 0.0
C225 C 0.80489 0.78663 0.47197 0.0
C226 C 0.78076 0.78516 0.47235 0.0
C227 C 0.76993 0.76454 0.47319 0.0
C228 C 0.7834 0.74536 0.47344 0.0
N229 N 0.7456 0.76253 0.47428 0.0
C230 C 0.73076 0.78036 0.47694 0.0
H231 H 0.82543 0.26703 0.47927 0.0
H232 H 0.76057 0.23642 0.49287 0.0
H233 H 0.76785 0.30626 0.50105 0.0
C234 C 0.80738 0.26845 0.48362 0.0
C235 C 0.79828 0.28906 0.48954 0.0
C236 C 0.79391 0.2494 0.4847 0.0
C237 C 0.77095 0.2511 0.49187 0.0
C238 C 0.76156 0.27169 0.49783 0.0
C239 C 0.77523 0.2905 0.49645 0.0
N240 N 0.73865 0.27405 0.50576 0.0
C241 C 0.72386 0.25652 0.50913 0.0
H242 H 0.25839 0.83125 0.53196 0.0
H243 H 0.22397 0.76977 0.54179 0.0
H244 H 0.29783 0.77129 0.53534 0.0
C245 C 0.25918 0.81354 0.53385 0.0
C246 C 0.28056 0.80274 0.53296 0.0
C247 C 0.23877 0.8018 0.53716 0.0
C248 C 0.23975 0.77883 0.53931 0.0
C249 C 0.26117 0.76779 0.53888 0.0
C250 C 0.28142 0.77987 0.53589 0.0
N251 N 0.26305 0.74465 0.54148 0.0
C252 C 0.24444 0.7304 0.54153 0.0
H253 H 0.26437 0.1864 0.49795 0.0
H254 H 0.22741 0.24776 0.49865 0.0
H255 H 0.30138 0.24726 0.49441 0.0
C256 C 0.26443 0.20421 0.49749 0.0
C257 C 0.28547 0.2153 0.49609 0.0
C258 C 0.24345 0.21574 0.49844 0.0
C259 C 0.24356 0.23883 0.49794 0.0
C260 C 0.26452 0.25023 0.49625 0.0
C261 C 0.28531 0.23838 0.49536 0.0
N262 N 0.26543 0.27356 0.49552 0.0
C263 C 0.24625 0.28736 0.49474 0.0
Zn264 Zn 0.9446 0.99683 0.45643 0.0
Zn265 Zn 0.95419 0.04778 0.46913 0.0
O266 O 0.96881 0.01788 0.46779 0.0
H267 H 0.98392 0.01382 0.47311 0.0
C268 C 0.94169 0.97551 0.519 0.0
O269 O 0.93634 0.99581 0.51352 0.0
Zn270 Zn 0.05409 0.04774 0.53972 0.0
Zn271 Zn 0.0551 0.99616 0.54882 0.0
O272 O 0.03357 0.0225 0.54773 0.0
H273 H 0.01886 0.02312 0.55521 0.0
Zn274 Zn 0.97389 0.99891 0.54717 0.0
O275 O 0.97769 0.02538 0.52725 0.0
Zn276 Zn 0.97565 0.05169 0.54683 0.0
H277 H 0.98575 0.02498 0.51328 0.0
Zn278 Zn 0.03662 0.9845 0.46351 0.0
O279 O 0.03364 0.01261 0.48157 0.0
H280 H 0.02772 0.01351 0.49652 0.0
Zn281 Zn 0.03627 0.03759 0.4602 0.0
C282 C 0.06295 0.95916 0.49638 0.0
O283 O 0.0643 0.97858 0.50582 0.0
O284 O 0.91633 0.01317 0.44379 0.0
O285 O 0.92203 0.04755 0.45512 0.0
O286 O 0.08774 0.0057 0.55753 0.0
O287 O 0.08647 0.04185 0.55186 0.0
O288 O 0.96617 0.00663 0.57975 0.0
O289 O 0.96572 0.04315 0.57785 0.0
C290 C 0.99432 0.06661 0.44767 0.0
O291 O 0.04582 0.99003 0.43095 0.0
O292 O 0.0462 0.02659 0.42981 0.0
O293 O 0.04335 0.96856 0.56555 0.0
C294 C 0.90993 0.03323 0.44496 0.0
O295 O 0.95529 0.96858 0.43964 0.0
C296 C 0.02059 0.07747 0.55715 0.0
O297 O 0.95753 0.97218 0.53316 0.0
C298 C 0.09714 0.02456 0.55835 0.0
O299 O 0.05165 0.95722 0.47845 0.0
C300 C 0.94684 0.07238 0.5135 0.0
O301 O 0.97276 0.06858 0.45049 0.0
O302 O 0.00462 0.05106 0.4578 0.0
C303 C 0.96321 0.02539 0.5888 0.0
O304 O 0.04216 0.07526 0.55467 0.0
O305 O 0.00791 0.06292 0.54839 0.0
C306 C 0.06351 0.06169 0.49247 0.0
O307 O 0.95304 0.07342 0.53371 0.0
O308 O 0.95584 0.05761 0.50124 0.0
C309 C 0.04902 0.00793 0.42047 0.0
O310 O 0.05965 0.05924 0.47188 0.0
O311 O 0.05233 0.05021 0.50631 0.0
C312 C 0.03598 0.97129 0.58522 0.0
O313 O 0.0354 0.99127 0.59352 0.0
C314 C 0.97469 0.96768 0.42989 0.0
O315 O 0.98845 0.98469 0.43105 0.0
Zn316 Zn 0.48325 0.05442 0.0343 0.0
Zn317 Zn 0.48335 0.05372 0.98114 0.0
O318 O 0.48812 0.03447 0.00758 0.0
H319 H 0.49554 0.02021 0.00768 0.0
C320 C 0.54444 0.08811 0.05978 0.0
O321 O 0.53088 0.08994 0.04244 0.0
Zn322 Zn 0.5485 0.98125 0.95302 0.0
Zn323 Zn 0.54735 0.98886 0.00446 0.0
O324 O 0.53092 0.99841 0.97581 0.0
H325 H 0.52423 0.01278 0.97334 0.0
Zn326 Zn 0.57394 0.06545 0.02738 0.0
O327 O 0.55048 0.05522 0.00494 0.0
Zn328 Zn 0.56519 0.05876 0.97516 0.0
H329 H 0.53682 0.04684 0.00817 0.0
Zn330 Zn 0.4864 0.96292 0.01555 0.0
O331 O 0.50613 0.96211 0.9876 0.0
H332 H 0.51899 0.9523 0.98501 0.0
Zn333 Zn 0.48358 0.97232 0.965 0.0
C334 C 0.51806 0.94287 0.04875 0.0
O335 O 0.53319 0.95657 0.04053 0.0
O336 O 0.46628 0.08324 0.02625 0.0
O337 O 0.46513 0.08101 0.98949 0.0
O338 O 0.56418 0.95895 0.00303 0.0
O339 O 0.56582 0.95562 0.96651 0.0
O340 O 0.60317 0.07834 0.01355 0.0
O341 O 0.59731 0.07248 0.97757 0.0
C342 C 0.46594 0.0165 0.95548 0.0
O343 O 0.45181 0.95888 0.0089 0.0
O344 O 0.45191 0.95985 0.97207 0.0
O345 O 0.56682 0.01124 0.02214 0.0
C346 C 0.45993 0.09081 0.00752 0.0
O347 O 0.47121 0.04025 0.06327 0.0
C348 C 0.57697 0.02024 0.94508 0.0
O349 O 0.56351 0.07796 0.05775 0.0
C350 C 0.57064 0.94853 0.98582 0.0
O351 O 0.49762 0.94307 0.04129 0.0
C352 C 0.5233 0.07758 0.9587 0.0
O353 O 0.46446 0.03707 0.95873 0.0
O354 O 0.48123 0.00535 0.96556 0.0
C355 C 0.60976 0.07967 0.99346 0.0
O356 O 0.57283 1.00056 0.93926 0.0
O357 O 0.56498 0.02888 0.96047 0.0
C358 C 0.51006 0.96057 0.92212 0.0
O359 O 0.54505 0.07923 0.95761 0.0
O360 O 0.51497 0.06219 0.97047 0.0
C361 C 0.44151 0.95658 0.99041 0.0
O362 O 0.49256 0.96121 0.93483 0.0
O363 O 0.52961 0.96789 0.92815 0.0
C364 C 0.58736 0.01434 0.0156 0.0
O365 O 0.59439 0.00471 0.99728 0.0
C366 C 0.46658 0.01994 0.06499 0.0
O367 O 0.47081 0.00679 0.04816 0.0
Zn368 Zn 0.96426 0.48833 0.97146 0.0
Zn369 Zn 0.96632 0.54095 0.97392 0.0
O370 O 0.98643 0.51432 0.96916 0.0
H371 H 0.00147 0.51391 0.96233 0.0
C372 C -0.00118 0.45435 0.03396 0.0
O373 O 0.00948 0.46787 0.02051 0.0
Zn374 Zn 0.06535 0.54314 0.04392 0.0
Zn375 Zn 0.07763 0.49261 0.05455 0.0
O376 O 0.05097 0.51357 0.04811 0.0
H377 H 0.03562 0.50948 0.0437 0.0
Zn378 Zn 0.99256 0.49435 0.06148 0.0
O379 O 0.98443 0.51564 0.03659 0.0
Zn380 Zn 0.98399 0.54325 0.05452 0.0
H381 H 0.97451 0.51172 0.02439 0.0
Zn382 Zn 0.05051 0.49657 0.95976 0.0
O383 O 0.04548 0.52084 0.9823 0.0
H384 H 0.03703 0.51887 0.99596 0.0
Zn385 Zn 0.04618 0.54837 0.96438 0.0
C386 C 0.06372 0.46327 0.99211 0.0
O387 O 0.06543 0.48089 0.00459 0.0
O388 O 0.93102 0.49744 0.96354 0.0
O389 O 0.93375 0.53383 0.96405 0.0
O390 O 0.10801 0.50867 0.06167 0.0
O391 O 0.09908 0.54292 0.05195 0.0
O392 O 0.9753 0.50243 0.09051 0.0
O393 O 0.96747 0.53757 0.08377 0.0
C394 C -0.00161 0.5696 0.95171 0.0
O395 O 0.06886 0.50706 0.93242 0.0
O396 O 0.06404 0.54323 0.93565 0.0
O397 O 0.07156 0.46345 0.07166 0.0
C398 C 0.92214 0.51643 0.96069 0.0
O399 O 0.97335 0.45814 0.95747 0.0
C400 C 0.02947 0.56592 0.06778 0.0
O401 O 0.99118 0.46157 0.05236 0.0
C402 C 0.11346 0.5288 0.05934 0.0
O403 O 0.05731 0.46536 0.97208 0.0
C404 C 0.96435 0.56685 0.01692 0.0
O405 O 0.97714 0.56636 0.95526 0.0
O406 O 0.01268 0.55623 0.96038 0.0
C407 C 0.96584 0.52059 0.09607 0.0
O408 O 0.051 0.56501 0.0645 0.0
O409 O 0.01713 0.55137 0.0585 0.0
C410 C 0.06717 0.56965 0.00214 0.0
O411 O 0.96877 0.56779 0.03754 0.0
O412 O 0.96838 0.54905 0.00646 0.0
C413 C 0.07233 0.52654 0.92544 0.0
O414 O 0.06283 0.57179 0.98161 0.0
O415 O 0.0602 0.55264 0.01227 0.0
C416 C 0.05311 0.46001 0.08242 0.0
O417 O 0.03683 0.47511 0.08236 0.0
C418 C 0.99285 0.45393 0.94886 0.0
O419 O 0.00906 0.46885 0.94978 0.0
Zn420 Zn 0.47417 0.4716 -0.00017 0.0
Zn421 Zn 0.48579 0.47661 0.05149 0.0
O422 O 0.48782 0.49232 0.02247 0.0
H423 H 0.49826 0.50416 0.0191 0.0
C424 C 0.52472 0.42585 0.9588 0.0
O425 O 0.52119 0.41896 0.97914 0.0
Zn426 Zn 0.54834 0.55227 0.0383 0.0
Zn427 Zn 0.53943 0.56061 0.98878 0.0
O428 O 0.54441 0.53516 0.01025 0.0
H429 H 0.53742 0.52085 0.00905 0.0
Zn430 Zn 0.55396 0.45794 0.98227 0.0
O431 O 0.53706 0.46432 0.01119 0.0
Zn432 Zn 0.56168 0.46952 0.03416 0.0
H433 H 0.52118 0.46053 0.01391 0.0
Zn434 Zn 0.46253 0.55769 0.98367 0.0
O435 O 0.48567 0.55352 0.00862 0.0
H436 H 0.50121 0.54814 0.00671 0.0
Zn437 Zn 0.46779 0.55392 0.03701 0.0
C438 C 0.49126 0.58257 0.95308 0.0
O439 O 0.50172 0.58701 0.97185 0.0
O440 O 0.45386 0.44784 0.01413 0.0
O441 O 0.46208 0.45212 0.04992 0.0
O442 O 0.55882 0.58758 0.99748 0.0
O443 O 0.56779 0.57934 0.03232 0.0
O444 O 0.58723 0.4477 0.98782 0.0
O445 O 0.59241 0.45625 0.02334 0.0
C446 C 0.47012 0.51763 0.07014 0.0
O447 O 0.43176 0.57028 0.99516 0.0
O448 O 0.43539 0.56613 0.03164 0.0
O449 O 0.53921 0.55349 0.95509 0.0
C450 C 0.45097 0.44261 0.0344 0.0
O451 O 0.46253 0.48529 0.9704 0.0
C452 C 0.56747 0.51216 0.05887 0.0
O453 O 0.53732 0.4426 0.95575 0.0
C454 C 0.56951 0.59183 0.01541 0.0
O455 O 0.47402 0.56983 0.95334 0.0
C456 C 0.53218 0.45488 0.06884 0.0
O457 O 0.47616 0.49814 0.07517 0.0
O458 O 0.46985 0.52328 0.04982 0.0
C459 C 0.5998 0.44806 0.00512 0.0
O460 O 0.56349 0.53268 0.06113 0.0
O461 O 0.56199 0.50251 0.04086 0.0
C462 C 0.50482 0.5737 0.06098 0.0
O463 O 0.55296 0.45381 0.06237 0.0
O464 O 0.51812 0.46567 0.05685 0.0
C465 C 0.42379 0.5723 0.01474 0.0
O466 O 0.48308 0.57376 0.05899 0.0
O467 O 0.51631 0.56143 0.04783 0.0
C468 C 0.54004 0.53384 0.94799 0.0
O469 O 0.53985 0.5176 0.96233 0.0
C470 C 0.45082 0.50298 0.97134 0.0
O471 O 0.44697 0.51208 0.99077 0.0
Zn472 Zn 0.98165 0.49355 0.47705 0.0
Zn473 Zn 0.97299 0.5455 0.48263 0.0
O474 O -0.00232 0.52245 0.48306 0.0
H475 H 0.01179 0.52363 0.49143 0.0
C476 C 0.95758 0.46155 0.53246 0.0
O477 O 0.96418 0.47679 0.51847 0.0
Zn478 Zn 0.06296 0.54791 0.54006 0.0
Zn479 Zn 0.07161 0.49575 0.54346 0.0
O480 O 0.04657 0.5192 0.54122 0.0
H481 H 0.03097 0.51681 0.53631 0.0
Zn482 Zn 0.9774 0.49211 0.56489 0.0
O483 O 0.97962 0.51725 0.54304 0.0
Zn484 Zn 0.98079 0.54458 0.56119 0.0
H485 H 0.9857 0.51576 0.5282 0.0
Zn486 Zn 0.06099 0.49915 0.44725 0.0
O487 O 0.05593 0.5203 0.47295 0.0
H488 H 0.05529 0.51667 0.48852 0.0
Zn489 Zn 0.05192 0.55012 0.45948 0.0
C490 C 0.08542 0.46445 0.472 0.0
O491 O 0.08587 0.47992 0.4872 0.0
O492 O 0.94848 0.49735 0.46543 0.0
O493 O 0.94356 0.53347 0.46887 0.0
O494 O 0.10352 0.50841 0.55141 0.0
O495 O 0.09632 0.54429 0.54919 0.0
O496 O 0.96608 0.50251 0.59557 0.0
O497 O 0.96843 0.53887 0.59244 0.0
C498 C 0.00416 0.57321 0.45781 0.0
O499 O 0.0718 0.51519 0.41898 0.0
O500 O 0.06331 0.54994 0.4274 0.0
O501 O 0.06302 0.46616 0.5584 0.0
C502 C 0.93618 0.5146 0.46305 0.0
O503 O 0.00082 0.4683 0.46294 0.0
C504 C 0.02719 0.56822 0.56827 0.0
O505 O 0.96176 0.46397 0.553 0.0
C506 C 0.11006 0.52831 0.55304 0.0
O507 O 0.0755 0.46837 0.45363 0.0
C508 C 0.95745 0.56807 0.52622 0.0
O509 O 0.9835 0.57146 0.46447 0.0
O510 O 0.01844 0.55831 0.46344 0.0
C511 C 0.96319 0.52174 0.60355 0.0
O512 O 0.04805 0.56892 0.56193 0.0
O513 O 0.01406 0.55404 0.55944 0.0
C514 C 0.07431 0.57089 0.49702 0.0
O515 O 0.96019 0.56746 0.54709 0.0
O516 O 0.96842 0.55405 0.51459 0.0
C517 C 0.07128 0.53554 0.41394 0.0
O518 O 0.0721 0.5712 0.47608 0.0
O519 O 0.06174 0.5579 0.50819 0.0
C520 C 0.04231 0.45981 0.56023 0.0
O521 O 0.02571 0.47197 0.55183 0.0
C522 C 0.0129 0.47218 0.44583 0.0
O523 O 0.01352 0.49232 0.43802 0.0
Zn524 Zn 0.47838 0.98617 0.46239 0.0
Zn525 Zn 0.47181 0.03827 0.47051 0.0
O526 O 0.49588 0.01501 0.46433 0.0
H527 H 0.5116 0.01703 0.45959 0.0
C528 C 0.46085 0.96048 0.5298 0.0
O529 O 0.45784 0.97875 0.51854 0.0
Zn530 Zn 0.57291 0.04956 0.54196 0.0
Zn531 Zn 0.58241 0.99806 0.55118 0.0
O532 O 0.55732 0.02036 0.54443 0.0
H533 H 0.54238 0.01679 0.53846 0.0
Zn534 Zn 0.49176 0.98875 0.55576 0.0
O535 O 0.49498 0.01366 0.53346 0.0
Zn536 Zn 0.49212 0.04164 0.55085 0.0
H537 H 0.50158 0.01221 0.51883 0.0
Zn538 Zn 0.5569 0.00165 0.45752 0.0
O539 O 0.5533 0.0254 0.48106 0.0
H540 H 0.54718 0.0228 0.49568 0.0
Zn541 Zn 0.54987 0.05326 0.46363 0.0
C542 C 0.58568 0.97017 0.48192 0.0
O543 O 0.59119 0.98807 0.49288 0.0
O544 O 0.44467 0.99192 0.45362 0.0
O545 O 0.44066 0.02799 0.45884 0.0
O546 O 0.61114 0.01295 0.56413 0.0
O547 O 0.60515 0.04811 0.5555 0.0
O548 O 0.48245 0.99956 0.58697 0.0
O549 O 0.47987 0.03568 0.58176 0.0
C550 C 0.50082 0.07149 0.45224 0.0
O551 O 0.56774 0.01371 0.4274 0.0
O552 O 0.56409 0.04966 0.43315 0.0
O553 O 0.57314 0.96795 0.56491 0.0
C554 C 0.43258 0.00946 0.4527 0.0
O555 O 0.49356 0.95882 0.44694 0.0
C556 C 0.53413 0.07017 0.56317 0.0
O557 O 0.47503 0.96028 0.54584 0.0
C558 C 0.61746 0.03298 0.56433 0.0
O559 O 0.57085 0.97147 0.46649 0.0
C560 C 0.46617 0.06111 0.5142 0.0
O561 O 0.47981 0.06633 0.45451 0.0
O562 O 0.51576 0.05872 0.46083 0.0
C563 C 0.47769 0.01879 0.59409 0.0
O564 O 0.5557 0.07172 0.56034 0.0
O565 O 0.52382 0.0546 0.55323 0.0
C566 C 0.57299 0.07633 0.49942 0.0
O567 O 0.47157 0.06299 0.53453 0.0
O568 O 0.47274 0.0442 0.50346 0.0
C569 C 0.56992 0.03349 0.42085 0.0
O570 O 0.56582 0.078 0.47957 0.0
O571 O 0.5699 0.05841 0.50977 0.0
C572 C 0.55425 0.96575 0.57532 0.0
O573 O 0.54014 0.98265 0.57682 0.0
C574 C 0.51154 0.96018 0.43499 0.0
O575 O 0.52168 0.97931 0.43295 0.0
H576 H 0.23088 0.17981 0.47455 0.0
H577 H 0.19743 0.15642 0.48034 0.0
H578 H 0.17318 0.19986 0.53195 0.0
H579 H 0.20699 0.22336 0.52645 0.0
H580 H 0.18679 0.13694 0.52515 0.0
H581 H 0.11661 0.18812 0.48826 0.0
H582 H 0.14628 0.19149 0.48003 0.0
H583 H 0.137 0.20064 0.50684 0.0
C584 C 0.21839 0.18446 0.48708 0.0
C585 C 0.22165 0.20329 0.5002 0.0
C586 C 0.1993 0.17112 0.49032 0.0
C587 C 0.18296 0.17641 0.50659 0.0
C588 C 0.1856 0.19562 0.51922 0.0
H589 H 0.05892 0.09526 0.52209 0.0
H590 H 0.08759 0.12346 0.53104 0.0
C591 C 0.20482 0.20903 0.516 0.0
C592 C 0.16392 0.161 0.51077 0.0
H593 H 0.10739 0.15202 0.49874 0.0
C594 C 0.16932 0.14033 0.51974 0.0
C595 C 0.14117 0.16562 0.5039 0.0
C596 C 0.13472 0.18762 0.49414 0.0
C597 C 0.15275 0.12374 0.52102 0.0
C598 C 0.1304 0.12785 0.51273 0.0
C599 C 0.1246 0.14895 0.50502 0.0
C600 C 0.11378 0.10985 0.5094 0.0
C601 C 0.15946 0.10174 0.53064 0.0
C602 C 0.11904 0.09296 0.49433 0.0
C603 C 0.10282 0.07689 0.48941 0.0
C604 C 0.08115 0.07733 0.49962 0.0
C605 C 0.0759 0.09407 0.51487 0.0
C606 C 0.0921 0.11031 0.51969 0.0
H607 H 0.17425 0.10325 0.54221 0.0
H608 H 0.14481 0.09417 0.5396 0.0
H609 H 0.1647 0.09051 0.517 0.0
H610 H 0.13547 0.09261 0.48582 0.0
H611 H 0.10705 0.06431 0.47731 0.0
H612 H 0.78997 0.2115 0.5087 0.0
H613 H 0.81366 0.17826 0.50519 0.0
H614 H 0.84663 0.20524 0.44737 0.0
H615 H 0.8228 0.23845 0.45055 0.0
H616 H 0.82566 0.14679 0.46687 0.0
H617 H 0.89667 0.19945 0.49862 0.0
H618 H 0.86679 0.20734 0.5013 0.0
H619 H 0.88083 0.2091 0.47488 0.0
C620 C 0.80172 0.21008 0.49482 0.0
C621 C 0.80477 0.22771 0.48008 0.0
C622 C 0.81525 0.1911 0.49285 0.0
C623 C 0.83199 0.18949 0.47616 0.0
C624 C 0.83388 0.20631 0.46044 0.0
H625 H 0.93788 0.08481 0.47038 0.0
H626 H 0.90934 0.11186 0.45765 0.0
C627 C 0.82035 0.22527 0.46237 0.0
C628 C 0.84946 0.17177 0.47717 0.0
H629 H 0.90463 0.16193 0.49401 0.0
C630 C 0.84304 0.15007 0.47246 0.0
C631 C 0.87205 0.17621 0.48459 0.0
C632 C 0.87962 0.19923 0.49029 0.0
C633 C 0.85862 0.13255 0.4755 0.0
C634 C 0.8809 0.137 0.48362 0.0
C635 C 0.88751 0.15873 0.48767 0.0
C636 C 0.89675 0.1193 0.49056 0.0
C637 C 0.85108 0.10933 0.47093 0.0
C638 C 0.89901 0.11466 0.51318 0.0
C639 C 0.91511 0.09921 0.52042 0.0
C640 C 0.92933 0.08808 0.50517 0.0
C641 C 0.92689 0.09266 0.48245 0.0
C642 C 0.91067 0.10818 0.47517 0.0
H643 H 0.83311 0.10859 0.46469 0.0
H644 H 0.8627 0.1017 0.45845 0.0
H645 H 0.8524 0.09942 0.48633 0.0
H646 H 0.88848 0.12325 0.52528 0.0
H647 H 0.9165 0.09608 0.53805 0.0
H648 H 0.8438 0.79901 0.44958 0.0
H649 H 0.86594 0.83262 0.45466 0.0
H650 H 0.81406 0.85757 0.49941 0.0
H651 H 0.79245 0.82349 0.49547 0.0
H652 H 0.85812 0.87632 0.44837 0.0
H653 H 0.87114 0.85848 0.53771 0.0
H654 H 0.85902 0.83871 0.51882 0.0
H655 H 0.84141 0.86053 0.52994 0.0
C656 C 0.83712 0.8116 0.46059 0.0
C657 C 0.81656 0.80833 0.47247 0.0
C658 C 0.8497 0.8309 0.4633 0.0
C659 C 0.84192 0.84736 0.47782 0.0
C660 C 0.82065 0.84482 0.48854 0.0
H661 H 0.90235 0.97714 0.49414 0.0
H662 H 0.87856 0.94625 0.48241 0.0
C663 C 0.80816 0.82542 0.48603 0.0
C664 C 0.85671 0.86654 0.48265 0.0
H665 H 0.88464 0.89269 0.52474 0.0
C666 C 0.86394 0.87994 0.46506 0.0
C667 C 0.86467 0.87093 0.50437 0.0
C668 C 0.85887 0.8563 0.52377 0.0
C669 C 0.87874 0.89777 0.46866 0.0
C670 C 0.88605 0.90255 0.4905 0.0
C671 C 0.8789 0.88907 0.50802 0.0
C672 C 0.90134 0.92126 0.49576 0.0
C673 C 0.88686 0.91093 0.449 0.0
C674 C 0.92195 0.91752 0.50732 0.0
C675 C 0.93537 0.93514 0.51438 0.0
C676 C 0.92845 0.95687 0.50998 0.0
C677 C 0.90817 0.96058 0.49777 0.0
C678 C 0.89463 0.94293 0.49089 0.0
H679 H 0.88523 0.9015 0.43329 0.0
H680 H 0.87614 0.92601 0.44749 0.0
H681 H 0.90509 0.91594 0.45101 0.0
H682 H 0.92745 0.90093 0.51127 0.0
H683 H 0.95096 0.93171 0.52363 0.0
H684 H 0.19987 0.79455 0.51276 0.0
H685 H 0.16606 0.81892 0.50991 0.0
H686 H 0.19425 0.86068 0.56081 0.0
H687 H 0.22811 0.83671 0.56337 0.0
H688 H 0.13251 0.83611 0.5401 0.0
H689 H 0.18945 0.9011 0.50669 0.0
H690 H 0.19872 0.87289 0.50955 0.0
H691 H 0.1982 0.89082 0.53328 0.0
C692 C 0.19855 0.80871 0.52361 0.0
C693 C 0.21666 0.81398 0.53806 0.0
C694 C 0.17931 0.8226 0.52196 0.0
C695 C 0.17795 0.84184 0.5348 0.0
C696 C 0.19523 0.84618 0.5504 0.0
H697 H 0.0917 0.95861 0.53228 0.0
H698 H 0.1175 0.92883 0.54382 0.0
C699 C 0.2145 0.83247 0.55189 0.0
C700 C 0.15952 0.85831 0.53076 0.0
H701 H 0.15091 0.91133 0.51414 0.0
C702 C 0.13647 0.85255 0.5344 0.0
C703 C 0.16478 0.8797 0.52317 0.0
C704 C 0.18909 0.88649 0.51772 0.0
C705 C 0.11854 0.86784 0.53104 0.0
C706 C 0.12389 0.88926 0.52369 0.0
C707 C 0.14691 0.89495 0.52002 0.0
C708 C 0.10596 0.90596 0.51875 0.0
C709 C 0.09407 0.8611 0.53565 0.0
C710 C 0.09073 0.90284 0.50101 0.0
C711 C 0.07605 0.91986 0.49428 0.0
C712 C 0.07642 0.94034 0.50514 0.0
C713 C 0.09103 0.94308 0.52351 0.0
C714 C 0.10576 0.92608 0.53016 0.0
H715 H 0.0933 0.84613 0.54615 0.0
H716 H 0.08441 0.87457 0.544 0.0
H717 H 0.08533 0.85748 0.51972 0.0
H718 H 0.09091 0.88758 0.49174 0.0
H719 H 0.06499 0.91719 0.48009 0.0
H720 H 0.48173 0.23334 0.19598 0.0
H721 H 0.48573 0.20107 0.17207 0.0
H722 H 0.54413 0.17917 0.21043 0.0
H723 H 0.54053 0.21173 0.23418 0.0
H724 H 0.55282 0.18271 0.16529 0.0
H725 H 0.473 0.13545 0.17952 0.0
H726 H 0.46783 0.16403 0.17391 0.0
H727 H 0.48307 0.15616 0.19863 0.0
C728 C 0.49523 0.22148 0.19951 0.0
C729 C 0.51091 0.22512 0.21686 0.0
C730 C 0.49733 0.20293 0.18599 0.0
C731 C 0.51506 0.1876 0.18963 0.0
C732 C 0.5302 0.19072 0.20748 0.0
H733 H 0.5682 0.08675 0.0989 0.0
H734 H 0.56078 0.1084 0.13236 0.0
C735 C 0.52806 0.20926 0.22107 0.0
C736 C 0.51939 0.16989 0.17324 0.0
H737 H 0.49408 0.12694 0.14635 0.0
C738 C 0.54015 0.17027 0.16138 0.0
C739 C 0.50273 0.15383 0.16808 0.0
C740 C 0.48049 0.15216 0.18084 0.0
C741 C 0.54436 0.15562 0.14386 0.0
C742 C 0.52752 0.13981 0.13838 0.0
C743 C 0.50696 0.13906 0.1506 0.0
C744 C 0.53053 0.12475 0.11925 0.0
C745 C 0.56634 0.1579 0.13071 0.0
C746 C 0.51535 0.12598 0.10121 0.0
C747 C 0.51939 0.11347 0.08213 0.0
C748 C 0.53873 0.09951 0.08078 0.0
C749 C 0.55329 0.09753 0.09931 0.0
C750 C 0.54914 0.10996 0.11842 0.0
H751 H 0.57475 0.17398 0.13368 0.0
H752 H 0.5786 0.14476 0.13572 0.0
H753 H 0.56301 0.15618 0.11267 0.0
H754 H 0.5008 0.13722 0.10157 0.0
H755 H 0.50776 0.11527 0.06821 0.0
H756 H 0.80137 0.52549 0.24402 0.0
H757 H 0.838 0.53332 0.22542 0.0
H758 H 0.82784 0.47785 0.1821 0.0
H759 H 0.79158 0.46962 0.20078 0.0
H760 H 0.87919 0.50374 0.21611 0.0
H761 H 0.83312 0.53449 0.14153 0.0
H762 H 0.81946 0.53227 0.16834 0.0
H763 H 0.82378 0.50819 0.15155 0.0
C764 C 0.80716 0.51471 0.23082 0.0
C765 C 0.79342 0.49707 0.22371 0.0
C766 C 0.82802 0.51927 0.22017 0.0
C767 C 0.83539 0.50633 0.20223 0.0
C768 C 0.82224 0.48819 0.19574 0.0
H769 H 0.95642 0.4872 0.12504 0.0
H770 H 0.92681 0.48668 0.1537 0.0
C771 C 0.80149 0.48359 0.20637 0.0
C772 C 0.8562 0.51222 0.18944 0.0
H773 H 0.8733 0.52815 0.13784 0.0
C774 C 0.87798 0.50931 0.19908 0.0
C775 C 0.85449 0.51981 0.16737 0.0
C776 C 0.83147 0.52408 0.15657 0.0
C777 C 0.89819 0.51287 0.18678 0.0
C778 C 0.89646 0.51929 0.1643 0.0
C779 C 0.87464 0.52314 0.15505 0.0
C780 C 0.91679 0.52074 0.14948 0.0
C781 C 0.92119 0.50959 0.19791 0.0
C782 C 0.92117 0.54011 0.13764 0.0
C783 C 0.93805 0.54045 0.12109 0.0
C784 C 0.95071 0.52132 0.11591 0.0
C785 C 0.94702 0.50224 0.12856 0.0
C786 C 0.93017 0.50194 0.1451 0.0
H787 H 0.91981 0.51149 0.21618 0.0
H788 H 0.92755 0.4927 0.19442 0.0
H789 H 0.93409 0.52142 0.19157 0.0
H790 H 0.91098 0.55478 0.14069 0.0
H791 H 0.94046 0.55546 0.11175 0.0
H792 H 0.58098 0.79182 0.1914 0.0
H793 H 0.57847 0.81507 0.15818 0.0
H794 H 0.52376 0.8527 0.18856 0.0
H795 H 0.52601 0.82958 0.22155 0.0
H796 H 0.54027 0.82506 0.12957 0.0
H797 H 0.57295 0.899 0.17279 0.0
H798 H 0.57609 0.87162 0.18397 0.0
H799 H 0.54925 0.88627 0.18679 0.0
C800 C 0.56824 0.80489 0.19084 0.0
C801 C 0.55392 0.8091 0.20918 0.0
C802 C 0.56691 0.81819 0.17194 0.0
C803 C 0.5513 0.83588 0.1712 0.0
C804 C 0.53632 0.83947 0.18907 0.0
H805 H 0.49046 0.9132 0.06954 0.0
H806 H 0.50135 0.88634 0.09766 0.0
C807 C 0.53763 0.82625 0.20788 0.0
C808 C 0.55053 0.85084 0.15189 0.0
H809 H 0.55435 0.90502 0.13791 0.0
C810 C 0.54363 0.8425 0.13127 0.0
C811 C 0.55532 0.8735 0.1541 0.0
C812 C 0.56404 0.88313 0.17555 0.0
C813 C 0.54022 0.85648 0.11305 0.0
C814 C 0.54351 0.87936 0.1157 0.0
C815 C 0.5516 0.88751 0.13599 0.0
C816 C 0.53733 0.89528 0.0981 0.0
C817 C 0.53287 0.84668 0.09121 0.0
C818 C 0.55385 0.90966 0.08945 0.0
C819 C 0.54765 0.92522 0.07343 0.0
C820 C 0.52476 0.92674 0.06595 0.0
C821 C 0.50826 0.91242 0.07483 0.0
C822 C 0.51448 0.89691 0.0908 0.0
H823 H 0.53787 0.82906 0.08998 0.0
H824 H 0.51386 0.84778 0.08979 0.0
H825 H 0.54056 0.85569 0.07705 0.0
H826 H 0.57155 0.90879 0.09506 0.0
H827 H 0.56077 0.93599 0.0669 0.0
H828 H 0.24437 0.56491 0.21817 0.0
H829 H 0.21749 0.55688 0.18803 0.0
H830 H 0.24953 0.6063 0.14748 0.0
H831 H 0.27611 0.6149 0.17769 0.0
H832 H 0.18676 0.58807 0.16277 0.0
H833 H 0.25399 0.54549 0.11241 0.0
H834 H 0.25683 0.54953 0.14196 0.0
H835 H 0.26084 0.57219 0.12341 0.0
C836 C 0.24538 0.57443 0.20304 0.0
C837 C 0.26248 0.59045 0.20027 0.0
C838 C 0.23015 0.56969 0.1858 0.0
C839 C 0.23185 0.58078 0.16551 0.0
C840 C 0.24824 0.59736 0.16295 0.0
H841 H 0.12978 0.57096 0.05998 0.0
H842 H 0.16089 0.58499 0.08316 0.0
C843 C 0.2634 0.6022 0.1802 0.0
C844 C 0.21681 0.57459 0.14685 0.0
H845 H 0.21674 0.54785 0.09705 0.0
C846 C 0.19327 0.57944 0.1483 0.0
C847 C 0.2255 0.56317 0.12818 0.0
C848 C 0.25064 0.5571 0.12629 0.0
C849 C 0.17802 0.57301 0.13153 0.0
C850 C 0.18669 0.56161 0.11279 0.0
C851 C 0.21028 0.55684 0.11131 0.0
C852 C 0.17107 0.55304 0.09556 0.0
C853 C 0.15266 0.57781 0.1343 0.0
C854 C 0.16752 0.53033 0.09389 0.0
C855 C 0.14983 0.5222 0.08061 0.0
C856 C 0.1354 0.5367 0.06882 0.0
C857 C 0.14038 0.55933 0.06904 0.0
C858 C 0.15808 0.56742 0.08234 0.0
H859 H 0.14837 0.58318 0.15143 0.0
H860 H 0.14751 0.59114 0.12275 0.0
H861 H 0.14231 0.56306 0.13024 0.0
H862 H 0.17754 0.51899 0.10388 0.0
H863 H 0.14662 0.50469 0.0807 0.0
H864 H 0.54404 0.79338 0.81327 0.0
H865 H 0.53914 0.82823 0.83295 0.0
H866 H 0.4894 0.84946 0.78436 0.0
H867 H 0.49389 0.81439 0.76466 0.0
H868 H 0.52415 0.88245 0.79843 0.0
H869 H 0.47814 0.8421 0.86788 0.0
H870 H 0.50503 0.8293 0.86046 0.0
H871 H 0.48161 0.82935 0.84101 0.0
C872 C 0.53201 0.80542 0.80677 0.0
C873 C 0.51913 0.80099 0.78756 0.0
C874 C 0.52931 0.82534 0.81798 0.0
C875 C 0.5137 0.84123 0.81023 0.0
C876 C 0.5015 0.83733 0.79058 0.0
H877 H 0.47131 0.94397 0.90255 0.0
H878 H 0.46965 0.91811 0.87159 0.0
C879 C 0.50415 0.81734 0.77934 0.0
C880 C 0.50952 0.86142 0.82334 0.0
H881 H 0.49088 0.87863 0.87408 0.0
C882 C 0.51664 0.88174 0.81487 0.0
C883 C 0.49934 0.86043 0.84458 0.0
C884 C 0.49038 0.83917 0.854 0.0
C885 C 0.51482 0.90103 0.82764 0.0
C886 C 0.50589 0.89978 0.84944 0.0
C887 C 0.4978 0.87959 0.85741 0.0
C888 C 0.50626 0.91864 0.86503 0.0
C889 C 0.52262 0.92248 0.81777 0.0
C890 C 0.5273 0.92802 0.87121 0.0
C891 C 0.52833 0.94286 0.88887 0.0
C892 C 0.50834 0.94838 0.90089 0.0
C893 C 0.48707 0.93997 0.89379 0.0
C894 C 0.48607 0.92519 0.87607 0.0
H895 H 0.52167 0.92212 0.79937 0.0
H896 H 0.51207 0.93648 0.82397 0.0
H897 H 0.54082 0.92535 0.82246 0.0
H898 H 0.54317 0.92289 0.86326 0.0
H899 H 0.545 0.94898 0.89387 0.0
H900 H 0.25449 0.53458 0.80389 0.0
H901 H 0.22364 0.52946 0.83123 0.0
H902 H 0.17882 0.57128 0.79271 0.0
H903 H 0.20944 0.57661 0.76555 0.0
H904 H 0.19742 0.56094 0.85649 0.0
H905 H 0.14279 0.51313 0.79863 0.0
H906 H 0.17296 0.51801 0.79358 0.0
H907 H 0.15205 0.5392 0.78804 0.0
C908 C 0.23815 0.54288 0.80142 0.0
C909 C 0.23429 0.55573 0.7824 0.0
C910 C 0.22053 0.53987 0.81697 0.0
C911 C 0.19882 0.54962 0.8137 0.0
C912 C 0.19526 0.56318 0.79525 0.0
H913 H 0.08651 0.56567 0.90767 0.0
H914 H 0.11677 0.57123 0.88008 0.0
C915 C 0.21279 0.5662 0.77975 0.0
C916 C 0.17968 0.54551 0.82938 0.0
H917 H 0.12558 0.52409 0.83266 0.0
C918 C 0.18174 0.55283 0.85134 0.0
C919 C 0.15935 0.5347 0.82263 0.0
C920 C 0.15664 0.52561 0.7995 0.0
C921 C 0.16377 0.55003 0.86665 0.0
C922 C 0.14314 0.53987 0.85969 0.0
C923 C 0.14129 0.53213 0.83785 0.0
C924 C 0.12354 0.53657 0.87506 0.0
C925 C 0.16712 0.55768 0.89022 0.0
C926 C 0.11661 0.51524 0.8806 0.0
C927 C 0.09924 0.51197 0.89627 0.0
C928 C 0.08837 0.53 0.90662 0.0
C929 C 0.09459 0.55139 0.90017 0.0
C930 C 0.11201 0.55462 0.88452 0.0
H931 H 0.18558 0.56036 0.89413 0.0
H932 H 0.15782 0.57348 0.89269 0.0
H933 H 0.16007 0.54555 0.90213 0.0
H934 H 0.12517 0.50109 0.87332 0.0
H935 H 0.09485 0.49528 0.90074 0.0
H936 H 0.49175 0.17754 0.79394 0.0
H937 H 0.49124 0.15644 0.82823 0.0
H938 H 0.43486 0.19618 0.85253 0.0
H939 H 0.4354 0.21764 0.81802 0.0
H940 H 0.46763 0.18958 0.88413 0.0
H941 H 0.44556 0.10996 0.84632 0.0
H942 H 0.46991 0.12161 0.8325 0.0
H943 H 0.44248 0.13563 0.83157 0.0
C944 C 0.47906 0.18166 0.80646 0.0
C945 C 0.4634 0.19905 0.80317 0.0
C946 C 0.47872 0.16953 0.82603 0.0
C947 C 0.46256 0.17431 0.84268 0.0
C948 C 0.44726 0.19203 0.83976 0.0
H949 H 0.47777 0.07436 0.94625 0.0
H950 H 0.45611 0.09975 0.92254 0.0
C951 C 0.44766 0.20432 0.82012 0.0
C952 C 0.46264 0.16116 0.86336 0.0
H953 H 0.46675 0.10811 0.8811 0.0
C954 C 0.46691 0.17178 0.8836 0.0
C955 C 0.46092 0.13797 0.86289 0.0
C956 C 0.45419 0.12568 0.84217 0.0
C957 C 0.4717 0.15969 0.90289 0.0
C958 C 0.47283 0.13647 0.90171 0.0
C959 C 0.46633 0.12591 0.882 0.0
C960 C 0.48392 0.12304 0.91929 0.0
C961 C 0.47622 0.17197 0.92417 0.0
C962 C 0.50659 0.12775 0.9256 0.0
C963 C 0.51882 0.1134 0.93925 0.0
C964 C 0.50879 0.0938 0.94677 0.0
C965 C 0.48584 0.0894 0.94108 0.0
C966 C 0.47349 0.10389 0.92742 0.0
H967 H 0.46582 0.18734 0.92491 0.0
H968 H 0.47222 0.16181 0.93894 0.0
H969 H 0.49462 0.1767 0.92481 0.0
H970 H 0.51533 0.14201 0.91905 0.0
H971 H 0.53649 0.11733 0.94327 0.0
H972 H 0.73933 0.53938 0.83893 0.0
H973 H 0.76752 0.54156 0.86891 0.0
H974 H 0.81365 0.49932 0.83214 0.0
H975 H 0.78541 0.49684 0.80211 0.0
H976 H 0.78656 0.5069 0.89415 0.0
H977 H 0.85337 0.55297 0.84806 0.0
H978 H 0.82401 0.55094 0.83851 0.0
H979 H 0.84379 0.52847 0.83433 0.0
C980 C 0.75542 0.53043 0.83726 0.0
C981 C 0.76013 0.51789 0.81816 0.0
C982 C 0.77152 0.53179 0.85437 0.0
C983 C 0.79271 0.52079 0.85262 0.0
C984 C 0.79752 0.50825 0.83361 0.0
H985 H 0.89331 0.48303 0.94882 0.0
H986 H 0.85942 0.48568 0.92515 0.0
C987 C 0.78141 0.50686 0.81647 0.0
C988 C 0.80961 0.52213 0.87089 0.0
H989 H 0.86441 0.53795 0.88288 0.0
C990 C 0.80354 0.51383 0.89178 0.0
C991 C 0.83157 0.53151 0.8678 0.0
C992 C 0.83857 0.54168 0.84603 0.0
C993 C 0.81918 0.51398 0.90951 0.0
C994 C 0.8415 0.52245 0.90611 0.0
C995 C 0.84729 0.53139 0.88542 0.0
C996 C 0.85964 0.52119 0.9233 0.0
C997 C 0.8117 0.50509 0.93168 0.0
C998 C 0.87082 0.54031 0.9304 0.0
C999 C 0.89031 0.53888 0.94389 0.0
C1000 C 0.8991 0.51824 0.95033 0.0
C1001 C 0.88704 0.49919 0.9442 0.0
C1002 C 0.86756 0.50066 0.93072 0.0
H1003 H 0.79266 0.5054 0.93343 0.0
H1004 H 0.81756 0.48776 0.9332 0.0
H1005 H 0.81936 0.51464 0.94551 0.0
H1006 H 0.86497 0.55632 0.92479 0.0
H1007 H 0.89911 0.55389 0.94833 0.0
H1008 H 0.74518 0.69804 0.96525 0.0
H1009 H 0.71027 0.67727 0.97315 0.0
H1010 H 0.69333 0.72226 0.02609 0.0
H1011 H 0.72832 0.74316 0.0183 0.0
H1012 H 0.69957 0.65662 0.01297 0.0
H1013 H 0.63318 0.7189 0.99038 0.0
H1014 H 0.6629 0.7212 0.982 0.0
H1015 H 0.65455 0.72785 0.00989 0.0
C1016 C 0.73402 0.70354 0.97856 0.0
C1017 C 0.73952 0.72222 0.99117 0.0
C1018 C 0.71405 0.6917 0.983 0.0
C1019 C 0.69913 0.69834 7e-05 0.0
C1020 C 0.7044 0.71711 0.01258 0.0
H1021 H 0.59566 0.6064 0.05032 0.0
H1022 H 0.62585 0.63428 0.04929 0.0
C1023 C 0.72439 0.72901 0.00811 0.0
C1024 C 0.67866 0.68492 0.00526 0.0
H1025 H 0.61988 0.68538 0.00526 0.0
C1026 C 0.68213 0.66292 0.01143 0.0
C1027 C 0.65598 0.69321 0.00311 0.0
C1028 C 0.65129 0.71653 0.99581 0.0
C1029 C 0.66353 0.64882 0.0151 0.0
C1030 C 0.64082 0.65709 0.01297 0.0
C1031 C 0.63732 0.67919 0.00713 0.0
C1032 C 0.62063 0.64247 0.01475 0.0
C1033 C 0.66836 0.62497 0.02034 0.0
C1034 C 0.607 0.63863 0.99599 0.0
C1035 C 0.58969 0.62285 0.99653 0.0
C1036 C 0.58568 0.61056 0.01588 0.0
C1037 C 0.59849 0.61536 0.03507 0.0
C1038 C 0.6158 0.63123 0.0345 0.0
H1039 H 0.68655 0.62034 0.01694 0.0
H1040 H 0.66491 0.62197 0.03817 0.0
H1041 H 0.657 0.61406 0.01051 0.0
H1042 H 0.6104 0.64722 0.98061 0.0
H1043 H 0.58006 0.61974 0.98149 0.0
H1044 H 0.30292 0.74136 0.99404 0.0
H1045 H 0.32493 0.70695 0.99406 0.0
H1046 H 0.29049 0.68682 0.05391 0.0
H1047 H 0.26878 0.7214 0.0544 0.0
H1048 H 0.35425 0.69234 0.03044 0.0
H1049 H 0.28456 0.63332 0.01006 0.0
H1050 H 0.28231 0.66235 0.00403 0.0
H1051 H 0.27879 0.65275 0.03193 0.0
C1052 C 0.30007 0.72968 0.00728 0.0
C1053 C 0.28409 0.73419 0.02424 0.0
C1054 C 0.31254 0.70997 0.00716 0.0
C1055 C 0.30912 0.6943 0.02384 0.0
C1056 C 0.29306 0.69857 0.04068 0.0
H1057 H 0.40613 0.58853 0.05366 0.0
H1058 H 0.37569 0.61625 0.05759 0.0
C1059 C 0.28066 0.71834 0.04089 0.0
C1060 C 0.32335 0.67405 0.02424 0.0
H1061 H 0.32137 0.61829 0.01777 0.0
C1062 C 0.34708 0.67614 0.02777 0.0
C1063 C 0.31386 0.653 0.02068 0.0
C1064 C 0.28851 0.65007 0.0163 0.0
C1065 C 0.36166 0.6577 0.02774 0.0
C1066 C 0.3522 0.63662 0.02424 0.0
C1067 C 0.32846 0.63448 0.02071 0.0
C1068 C 0.36721 0.61695 0.0227 0.0
C1069 C 0.3872 0.66091 0.03088 0.0
C1070 C 0.37165 0.60747 0.00195 0.0
C1071 C 0.38904 0.59167 -0.00041 0.0
C1072 C 0.40223 0.58506 0.01801 0.0
C1073 C 0.3964 0.59331 0.03911 0.0
C1074 C 0.37906 0.6092 0.04141 0.0
H1075 H 0.39211 0.67851 0.02995 0.0
H1076 H 0.39235 0.65453 0.04739 0.0
H1077 H 0.39704 0.65161 0.01814 0.0
H1078 H 0.36259 0.61323 0.98734 0.0
H1079 H 0.39293 0.58553 0.98314 0.0
H1080 H 0.30564 0.29043 0.08254 0.0
H1081 H 0.33284 0.32051 0.08782 0.0
H1082 H 0.30078 0.35608 0.03412 0.0
H1083 H 0.27324 0.32609 0.02913 0.0
H1084 H 0.36215 0.32881 0.05356 0.0
H1085 H 0.31636 0.40542 0.07772 0.0
H1086 H 0.30398 0.37848 0.08135 0.0
H1087 H 0.30351 0.39149 0.0546 0.0
C1088 C 0.30383 0.30513 0.07254 0.0
C1089 C 0.28742 0.3061 0.05549 0.0
C1090 C 0.31939 0.32223 0.07549 0.0
C1091 C 0.31884 0.34054 0.06139 0.0
C1092 C 0.30126 0.34231 0.04546 0.0
H1093 H 0.4277 0.41564 0.00608 0.0
H1094 H 0.39626 0.39072 0.01497 0.0
C1095 C 0.28554 0.3252 0.04261 0.0
C1096 C 0.33878 0.35557 0.06075 0.0
H1097 H 0.35432 0.40957 0.06249 0.0
C1098 C 0.36047 0.34644 0.05585 0.0
C1099 C 0.33658 0.37853 0.06375 0.0
C1100 C 0.31389 0.38908 0.06985 0.0
C1101 C 0.37986 0.35972 0.05312 0.0
C1102 C 0.37745 0.38272 0.05515 0.0
C1103 C 0.356 0.39188 0.06084 0.0
C1104 C 0.39682 0.39752 0.05016 0.0
C1105 C 0.40274 0.34912 0.04772 0.0
C1106 C 0.40755 0.40946 0.06709 0.0
C1107 C 0.42571 0.42362 0.06211 0.0
C1108 C 0.43317 0.42624 0.04006 0.0
C1109 C 0.42242 0.41403 0.02322 0.0
C1110 C 0.40444 0.39979 0.02825 0.0
H1111 H 0.40279 0.33122 0.05137 0.0
H1112 H 0.40645 0.35131 0.02982 0.0
H1113 H 0.41681 0.35701 0.05725 0.0
H1114 H 0.40186 0.40784 0.08411 0.0
H1115 H 0.43354 0.43285 0.07546 0.0
H1116 H 0.78632 0.32948 0.02085 0.0
H1117 H 0.75356 0.35414 0.02748 0.0
H1118 H 0.72229 0.33219 0.96657 0.0
H1119 H 0.75483 0.3073 0.96004 0.0
H1120 H 0.73943 0.38834 0.00256 0.0
H1121 H 0.66882 0.32805 0.00874 0.0
H1122 H 0.69875 0.32 0.00984 0.0
H1123 H 0.68494 0.32492 0.98357 0.0
C1124 C 0.77233 0.32977 0.00899 0.0
C1125 C 0.77311 0.31641 0.98995 0.0
C1126 C 0.75363 0.34385 0.0128 0.0
C1127 C 0.7353 0.34485 0.99768 0.0
C1128 C 0.73591 0.33132 0.97878 0.0
H1129 H 0.61988 0.42761 0.96964 0.0
H1130 H 0.65387 0.40392 0.96959 0.0
C1131 C 0.75454 0.31711 0.97504 0.0
C1132 C 0.71621 0.3609 0.00099 0.0
H1133 H 0.65762 0.36559 0.00279 0.0
C1134 C 0.72156 0.38333 0.00292 0.0
C1135 C 0.69287 0.35437 0.00157 0.0
C1136 C 0.68599 0.3305 0.00106 0.0
C1137 C 0.70417 0.39942 0.00455 0.0
C1138 C 0.68091 0.3929 0.00424 0.0
C1139 C 0.67553 0.3705 0.00288 0.0
C1140 C 0.66179 0.40908 0.0042 0.0
C1141 C 0.71062 0.42335 0.00585 0.0
C1142 C 0.65527 0.42018 0.02364 0.0
C1143 C 0.6357 0.43378 0.02381 0.0
C1144 C 0.62236 0.43644 0.00449 0.0
C1145 C 0.62964 0.42596 0.98485 0.0
C1146 C 0.64906 0.41234 0.98476 0.0
H1147 H 0.72946 0.42585 0.00409 0.0
H1148 H 0.70159 0.43277 0.99268 0.0
H1149 H 0.70503 0.43018 0.02207 0.0
H1150 H 0.66488 0.41775 0.03884 0.0
H1151 H 0.6306 0.44155 0.03923 0.0
H1152 H 0.97972 0.70437 0.73209 0.0
H1153 H 0.97594 0.6713 0.70891 0.0
H1154 H 0.02192 0.69944 0.66068 0.0
H1155 H 0.02592 0.73218 0.68364 0.0
H1156 H 0.9799 0.68195 0.64285 0.0
H1157 H 0.02638 0.62336 0.69826 0.0
H1158 H 0.00315 0.63936 0.7099 0.0
H1159 H 0.02905 0.65276 0.70128 0.0
C1160 C 0.98918 0.70335 0.71665 0.0
C1161 C 0.00298 0.72093 0.70961 0.0
C1162 C 0.98696 0.68452 0.70342 0.0
C1163 C -0.00137 0.68299 0.68309 0.0
C1164 C 0.01261 0.70039 0.67623 0.0
H1165 H 0.05415 0.59315 0.59479 0.0
H1166 H 0.04248 0.61863 0.6238 0.0
C1167 C 0.01483 0.71911 0.68935 0.0
C1168 C -0.00335 0.66341 0.66864 0.0
H1169 H 0.01616 0.6107 0.6629 0.0
C1170 C 0.98739 0.66619 0.64733 0.0
C1171 C 0.00648 0.64296 0.67461 0.0
C1172 C 0.01697 0.63928 0.69719 0.0
C1173 C 0.98886 0.64944 0.63136 0.0
C1174 C -0.0003 0.62934 0.637 0.0
C1175 C 0.00778 0.62613 0.65871 0.0
C1176 C 0.00601 0.61293 0.61987 0.0
C1177 C 0.98025 0.65386 0.60818 0.0
C1178 C 0.98932 0.60118 0.60801 0.0
C1179 C -0.00402 0.58657 0.59115 0.0
C1180 C 0.01938 0.58344 0.586 0.0
C1181 C 0.03594 0.59515 0.59817 0.0
C1182 C 0.02933 0.60966 0.6149 0.0
H1183 H 0.97484 0.67126 0.60587 0.0
H1184 H 0.99383 0.64985 0.59583 0.0
H1185 H 0.96524 0.64322 0.6047 0.0
H1186 H 0.97121 0.60338 0.6117 0.0
H1187 H 0.98281 0.57807 0.58203 0.0
H1188 H 0.33612 0.98435 0.74424 0.0
H1189 H 0.37341 0.99016 0.72643 0.0
H1190 H 0.35544 0.05815 0.71498 0.0
H1191 H 0.31782 0.05213 0.73214 0.0
H1192 H 0.36482 0.03736 0.6777 0.0
H1193 H 0.43463 0.01869 0.73718 0.0
H1194 H 0.41376 0.99714 0.73599 0.0
H1195 H 0.40536 0.02394 0.74592 0.0
C1196 C 0.3405 1.00069 0.73857 0.0
C1197 C 0.32417 0.01778 0.73935 0.0
C1198 C 0.36187 0.00405 0.72853 0.0
C1199 C 0.36732 0.02465 0.71952 0.0
C1200 C 0.35162 0.04215 0.72188 0.0
H1201 H 0.46461 0.05693 0.61477 0.0
H1202 H 0.44115 0.0604 0.6483 0.0
C1203 C 0.33016 0.03871 0.73161 0.0
C1204 C 0.38712 0.02684 0.70423 0.0
H1205 H 0.44466 0.01644 0.69826 0.0
C1206 C 0.38235 0.03324 0.68236 0.0
C1207 C 0.40994 0.02117 0.71024 0.0
C1208 C 0.41627 0.01506 0.73368 0.0
C1209 C 0.39952 0.03334 0.66612 0.0
C1210 C 0.42222 0.02718 0.67196 0.0
C1211 C 0.42722 0.02122 0.69392 0.0
C1212 C 0.44039 0.02556 0.65491 0.0
C1213 C 0.39298 0.03908 0.64257 0.0
C1214 C 0.44856 0.00485 0.64829 0.0
C1215 C 0.46194 0.00274 0.62915 0.0
C1216 C 0.46729 0.02134 0.61635 0.0
C1217 C 0.46057 0.04225 0.62408 0.0
C1218 C 0.44724 0.04431 0.64324 0.0
H1219 H 0.37403 0.03915 0.64007 0.0
H1220 H 0.39945 0.05573 0.63857 0.0
H1221 H 0.40083 0.02727 0.63068 0.0
H1222 H 0.44342 0.9902 0.65714 0.0
H1223 H 0.46702 0.98641 0.6238 0.0
H1224 H 0.01453 0.2917 0.69113 0.0
H1225 H 0.02286 0.31498 0.65892 0.0
H1226 H 0.98485 0.36835 0.68894 0.0
H1227 H 0.97623 0.34524 0.72093 0.0
H1228 H 0.99176 0.34075 0.62921 0.0
H1229 H 0.05194 0.39149 0.67891 0.0
H1230 H 0.0427 0.36456 0.6876 0.0
H1231 H 0.02395 0.38792 0.69102 0.0
C1232 C 0.00766 0.30828 0.69069 0.0
C1233 C 0.99501 0.31675 0.70871 0.0
C1234 C 0.01247 0.32155 0.67233 0.0
C1235 C 0.00474 0.34344 0.67177 0.0
C1236 C 0.99126 0.35159 0.68926 0.0
H1237 H -0.00015 0.44418 0.57165 0.0
H1238 H 0.99124 0.4137 0.59661 0.0
C1239 C 0.98645 0.33839 0.70755 0.0
C1240 C 0.01162 0.35825 0.65355 0.0
H1241 H 0.04197 0.40493 0.64329 0.0
C1242 C 0.00287 0.35471 0.63217 0.0
C1243 C 0.02634 0.37624 0.65748 0.0
C1244 C 0.03698 0.38026 0.67993 0.0
C1245 C 0.00794 0.36918 0.6147 0.0
C1246 C 0.02191 0.38769 0.61888 0.0
C1247 C 0.03117 0.39079 0.64014 0.0
C1248 C 0.02688 0.40444 0.60174 0.0
C1249 C -0.0016 0.3645 0.59195 0.0
C1250 C 0.04976 0.40942 0.59638 0.0
C1251 C 0.05474 0.42696 0.58229 0.0
C1252 C 0.03691 0.43994 0.57336 0.0
C1253 C 0.01397 0.43448 0.57819 0.0
C1254 C 0.009 0.41694 0.59234 0.0
H1255 H 0.99371 0.34692 0.59004 0.0
H1256 H 0.9826 0.37453 0.58937 0.0
H1257 H 0.01098 0.36885 0.57883 0.0
H1258 H 0.06382 0.40003 0.60353 0.0
H1259 H 0.0726 0.43065 0.57885 0.0
H1260 H 0.7563 0.03349 0.72585 0.0
H1261 H 0.73025 0.02948 0.69426 0.0
H1262 H 0.71216 0.09819 0.69878 0.0
H1263 H 0.73851 0.1024 0.73029 0.0
H1264 H 0.68209 0.03919 0.68954 0.0
H1265 H 0.73706 0.09014 0.63449 0.0
H1266 H 0.74734 0.07906 0.66045 0.0
H1267 H 0.72837 0.10246 0.66032 0.0
C1268 C 0.74657 0.04769 0.72026 0.0
C1269 C 0.74954 0.06829 0.73041 0.0
C1270 C 0.73172 0.04538 0.70224 0.0
C1271 C 0.71967 0.06363 0.69394 0.0
C1272 C 0.72164 0.08399 0.70473 0.0
H1273 H 0.6295 0.07411 0.57882 0.0
H1274 H 0.65551 0.08259 0.60952 0.0
C1275 C 0.73645 0.08631 0.72287 0.0
C1276 C 0.70562 0.06129 0.6736 0.0
H1277 H 0.70312 0.07571 0.6189 0.0
C1278 C 0.68662 0.04722 0.67411 0.0
C1279 C 0.71161 0.07182 0.65352 0.0
C1280 C 0.73229 0.08661 0.65196 0.0
C1281 C 0.67342 0.04337 0.65506 0.0
C1282 C 0.67973 0.05346 0.63482 0.0
C1283 C 0.69845 0.06789 0.63439 0.0
C1284 C 0.66702 0.04901 0.61402 0.0
C1285 C 0.65266 0.02867 0.65682 0.0
C1286 C 0.66595 0.02756 0.60557 0.0
C1287 C 0.65111 0.02263 0.58808 0.0
C1288 C 0.63718 0.03912 0.5786 0.0
C1289 C 0.63989 0.06098 0.58578 0.0
C1290 C 0.65469 0.06587 0.60339 0.0
H1291 H 0.64672 0.02702 0.67424 0.0
H1292 H 0.63818 0.03509 0.64665 0.0
H1293 H 0.65725 0.01203 0.65063 0.0
H1294 H 0.67581 0.01442 0.61318 0.0
H1295 H 0.64968 0.00567 0.5828 0.0
H1296 H 0.08445 0.29624 0.34662 0.0
H1297 H 0.08041 0.32926 0.36951 0.0
H1298 H 0.03135 0.35593 0.32298 0.0
H1299 H 0.03465 0.32263 0.30039 0.0
H1300 H 0.08633 0.37441 0.36146 0.0
H1301 H -0.00442 0.35432 0.38159 0.0
H1302 H 0.01486 0.33488 0.36851 0.0
H1303 H 0.00152 0.35632 0.35245 0.0
C1304 C 0.0728 0.30914 0.34124 0.0
C1305 C 0.05961 0.30665 0.32184 0.0
C1306 C 0.07065 0.32806 0.35425 0.0
C1307 C 0.05528 0.34484 0.34814 0.0
C1308 C 0.04302 0.34297 0.32818 0.0
H1309 H 0.03556 0.47407 0.4061 0.0
H1310 H 0.04873 0.44315 0.38339 0.0
C1311 C 0.0451 0.32402 0.31517 0.0
C1312 C 0.05114 0.36366 0.36328 0.0
H1313 H 0.0094 0.38849 0.39444 0.0
C1314 C 0.06953 0.37753 0.36871 0.0
C1315 C 0.02931 0.3674 0.37301 0.0
C1316 C 0.00921 0.35235 0.3688 0.0
C1317 C 0.06654 0.39532 0.38335 0.0
C1318 C 0.04452 0.39942 0.39254 0.0
C1319 C 0.02625 0.38535 0.38732 0.0
C1320 C 0.0397 0.41829 0.40745 0.0
C1321 C 0.087 0.40933 0.38913 0.0
C1322 C 0.03042 0.41462 0.4286 0.0
C1323 C 0.02264 0.43223 0.44152 0.0
C1324 C 0.02389 0.45387 0.43347 0.0
C1325 C 0.03426 0.45759 0.41274 0.0
C1326 C 0.04197 0.43994 0.39979 0.0
H1327 H 0.10351 0.40073 0.38552 0.0
H1328 H 0.08643 0.42462 0.37914 0.0
H1329 H 0.0867 0.414 0.40691 0.0
H1330 H 0.02851 0.39803 0.43482 0.0
H1331 H 0.01492 0.4288 0.45748 0.0
H1332 H 0.72507 0.04775 0.27387 0.0
H1333 H 0.69751 0.04211 0.30399 0.0
H1334 H 0.64683 0.08062 0.26876 0.0
H1335 H 0.67431 0.08644 0.23862 0.0
H1336 H 0.6752 0.07368 0.33017 0.0
H1337 H 0.61276 0.02328 0.28278 0.0
H1338 H 0.64162 0.02842 0.27305 0.0
H1339 H 0.61968 0.0492 0.27029 0.0
C1340 C 0.70811 0.05513 0.27261 0.0
C1341 C 0.7018 0.06745 0.25385 0.0
C1342 C 0.69237 0.0518 0.28975 0.0
C1343 C 0.67006 0.06066 0.28839 0.0
C1344 C 0.66381 0.07324 0.26987 0.0
H1345 H 0.57705 0.07333 0.40102 0.0
H1346 H 0.59974 0.08061 0.36772 0.0
C1347 C 0.67952 0.07656 0.2527 0.0
C1348 C 0.65353 0.05711 0.30663 0.0
H1349 H 0.60172 0.03402 0.31908 0.0
C1350 C 0.65912 0.06504 0.32778 0.0
C1351 C 0.6327 0.04564 0.30341 0.0
C1352 C 0.62635 0.03595 0.28121 0.0
C1353 C 0.64437 0.06185 0.34586 0.0
C1354 C 0.62332 0.05077 0.34255 0.0
C1355 C 0.61776 0.04275 0.32143 0.0
C1356 C 0.60748 0.04638 0.36116 0.0
C1357 C 0.65172 0.06985 0.36846 0.0
C1358 C 0.60348 0.02468 0.36782 0.0
C1359 C 0.59043 0.02042 0.38674 0.0
C1360 C 0.58115 0.03784 0.39931 0.0
C1361 C 0.58418 0.05954 0.39187 0.0
C1362 C 0.5972 0.06376 0.37291 0.0
H1363 H 0.67042 0.07355 0.36905 0.0
H1364 H 0.64213 0.08515 0.37257 0.0
H1365 H 0.64781 0.05745 0.38139 0.0
H1366 H 0.61117 0.01106 0.35883 0.0
H1367 H 0.58832 0.00351 0.39191 0.0
H1368 H 0.98553 0.68724 0.29428 0.0
H1369 H 0.99197 0.66578 0.32788 0.0
H1370 H 0.04707 0.70905 0.34678 0.0
H1371 H 0.04094 0.73059 0.31281 0.0
H1372 H 0.0368 0.64511 0.33946 0.0
H1373 H 0.00279 0.70407 0.40249 0.0
H1374 H 0.99455 0.70581 0.37367 0.0
H1375 H 0.02291 0.71372 0.382 0.0
C1376 C -0.00096 0.69222 0.30555 0.0
C1377 C 0.01286 0.7105 0.30081 0.0
C1378 C 0.00265 0.67997 0.32475 0.0
C1379 C 0.02001 0.68582 0.33972 0.0
C1380 C 0.03349 0.70439 0.33545 0.0
H1381 H 0.0472 0.5861 0.44339 0.0
H1382 H 0.05598 0.61512 0.41664 0.0
C1383 C 0.02991 0.71669 0.31612 0.0
C1384 C 0.02404 0.67187 0.3594 0.0
H1385 H 0.01234 0.66853 0.41469 0.0
C1386 C 0.0319 0.65028 0.35603 0.0
C1387 C 0.01762 0.6788 0.38088 0.0
C1388 C 0.0089 0.70183 0.38517 0.0
C1389 C 0.0323 0.63498 0.37341 0.0
C1390 C 0.02481 0.6416 0.39474 0.0
C1391 C 0.01814 0.66356 0.39834 0.0
C1392 C 0.02049 0.62535 0.41249 0.0
C1393 C 0.03938 0.61155 0.3685 0.0
C1394 C -0.00219 0.62197 0.41954 0.0
C1395 C 0.9928 0.60539 0.43466 0.0
C1396 C 0.01037 0.59176 0.44311 0.0
C1397 C 0.03324 0.59581 0.43678 0.0
C1398 C 0.03828 0.61248 0.42156 0.0
H1399 H 0.04103 0.60838 0.35042 0.0
H1400 H 0.05631 0.60816 0.37631 0.0
H1401 H 0.02673 0.59985 0.37549 0.0
H1402 H 0.98382 0.63173 0.41279 0.0
H1403 H 0.97497 0.60294 0.43927 0.0
H1404 H 0.26396 0.9708 0.32117 0.0
H1405 H 0.29049 0.9755 0.35221 0.0
H1406 H 0.33015 0.02136 0.31369 0.0
H1407 H 0.30347 0.01697 0.28255 0.0
H1408 H 0.35665 0.98923 0.33604 0.0
H1409 H 0.29436 0.03023 0.39263 0.0
H1410 H 0.28449 0.00471 0.38117 0.0
H1411 H 0.28948 0.0277 0.36317 0.0
C1412 C 0.27825 0.982 0.31933 0.0
C1413 C 0.28149 0.99367 0.29945 0.0
C1414 C 0.29334 0.9847 0.33711 0.0
C1415 C 0.31196 0.99914 0.3354 0.0
C1416 C 0.31573 0.01028 0.31538 0.0
H1417 H 0.40625 0.04404 0.43776 0.0
H1418 H 0.37504 0.04215 0.41055 0.0
C1419 C 0.30059 0.00762 0.29756 0.0
C1420 C 0.32779 0.00215 0.35438 0.0
H1421 H 0.33005 0.01877 0.40849 0.0
C1422 C 0.35087 0.99578 0.35184 0.0
C1423 C 0.32022 0.01094 0.37489 0.0
C1424 C 0.29584 0.01899 0.37816 0.0
C1425 C 0.36649 0.99743 0.36947 0.0
C1426 C 0.35872 0.00543 0.39023 0.0
C1427 C 0.33581 0.01238 0.39263 0.0
C1428 C 0.37443 0.00663 0.40947 0.0
C1429 C 0.39124 0.99067 0.36575 0.0
C1430 C 0.38347 0.98728 0.41867 0.0
C1431 C 0.40123 0.98827 0.43421 0.0
C1432 C 0.41028 0.00865 0.44081 0.0
C1433 C 0.39978 0.02807 0.43297 0.0
C1434 C 0.38198 0.02704 0.41737 0.0
H1435 H 0.3955 0.98947 0.34783 0.0
H1436 H 0.40312 0.00255 0.37367 0.0
H1437 H 0.39429 0.97432 0.37337 0.0
H1438 H 0.37755 0.97139 0.41302 0.0
H1439 H 0.4087 0.97299 0.44009 0.0
H1440 H 0.07902 0.20533 0.3022 0.0
H1441 H 0.0751 0.17125 0.3236 0.0
H1442 H 0.0287 0.20417 0.36868 0.0
H1443 H 0.03209 0.23799 0.3473 0.0
H1444 H 0.06541 0.17802 0.38927 0.0
H1445 H 0.0154 0.13286 0.32507 0.0
H1446 H 0.04203 0.1454 0.31681 0.0
H1447 H 0.01807 0.16241 0.32471 0.0
C1448 C 0.06785 0.20525 0.31658 0.0
C1449 C 0.05594 0.22445 0.32306 0.0
C1450 C 0.06571 0.1858 0.32882 0.0
C1451 C 0.0516 0.18522 0.3477 0.0
C1452 C 0.03982 0.20433 0.35425 0.0
H1453 H 0.97455 0.10007 0.42473 0.0
H1454 H 0.99251 0.12604 0.39972 0.0
C1455 C 0.04187 0.22369 0.34204 0.0
C1456 C 0.04845 0.16472 0.36058 0.0
H1457 H 0.02008 0.11576 0.35963 0.0
C1458 C 0.0559 0.16418 0.38271 0.0
C1459 C 0.03596 0.14678 0.35193 0.0
C1460 C 0.02724 0.14675 0.32837 0.0
C1461 C 0.05034 0.14655 0.39672 0.0
C1462 C 0.03702 0.12907 0.38832 0.0
C1463 C 0.03045 0.12915 0.36593 0.0
C1464 C 0.02677 0.11244 0.4032 0.0
C1465 C 0.05751 0.1473 0.42074 0.0
C1466 C 0.04011 0.09601 0.41342 0.0
C1467 C 0.0298 0.0809 0.42787 0.0
C1468 C 0.00606 0.08208 0.43237 0.0
C1469 C 0.99289 0.09855 0.42183 0.0
C1470 C 0.00311 0.11346 0.40742 0.0
H1471 H 0.06646 0.16282 0.42503 0.0
H1472 H 0.04219 0.14562 0.43161 0.0
H1473 H 0.06927 0.1333 0.42433 0.0
H1474 H 0.05842 0.09486 0.41022 0.0
H1475 H 0.04041 0.06843 0.43542 0.0
H1476 H 0.82822 0.05818 0.25829 0.0
H1477 H 0.844 0.05308 0.29571 0.0
H1478 H 0.79029 0.09469 0.32242 0.0
H1479 H 0.77436 0.09955 0.28494 0.0
H1480 H 0.86011 0.08469 0.32509 0.0
H1481 H 0.78622 0.0393 0.36099 0.0
H1482 H 0.78971 0.04325 0.33153 0.0
H1483 H 0.77929 0.06537 0.34861 0.0
C1484 C 0.81987 0.06621 0.2722 0.0
C1485 C 0.80021 0.07924 0.26897 0.0
C1486 C 0.82884 0.0633 0.29352 0.0
C1487 C 0.81816 0.07329 0.3119 0.0
C1488 C 0.79856 0.08652 0.30856 0.0
H1489 H 0.89443 0.07542 0.43772 0.0
H1490 H 0.86864 0.08759 0.40803 0.0
C1491 C 0.78959 0.08942 0.2872 0.0
C1492 C 0.82795 0.07003 0.3344 0.0
H1493 H 0.81722 0.04702 0.385 0.0
C1494 C 0.85068 0.07663 0.33827 0.0
C1495 C 0.81562 0.05938 0.3515 0.0
C1496 C 0.79142 0.05122 0.34801 0.0
C1497 C 0.86165 0.07245 0.35858 0.0
C1498 C 0.84937 0.06174 0.37569 0.0
C1499 C 0.82647 0.05549 0.37198 0.0
C1500 C 0.86095 0.05476 0.39649 0.0
C1501 C 0.88665 0.07861 0.36113 0.0
C1502 C 0.86385 0.03228 0.40085 0.0
C1503 C 0.87834 0.02525 0.41794 0.0
C1504 C 0.8903 0.0406 0.43099 0.0
C1505 C 0.8857 0.06314 0.42787 0.0
C1506 C 0.87109 0.07015 0.41078 0.0
H1507 H 0.89475 0.08274 0.34499 0.0
H1508 H 0.88795 0.09321 0.37209 0.0
H1509 H 0.8966 0.06498 0.36884 0.0
H1510 H 0.85602 0.02011 0.39016 0.0
H1511 H 0.88124 0.00777 0.41997 0.0
H1512 H 0.03847 0.82561 0.2814 0.0
H1513 H 0.03644 0.85387 0.31052 0.0
H1514 H 0.97371 0.82512 0.3351 0.0
H1515 H 0.976 0.79672 0.30619 0.0
H1516 H 0.00185 0.88418 0.31613 0.0
H1517 H 0.01044 0.83333 0.39185 0.0
H1518 H 0.01768 0.82307 0.36461 0.0
H1519 H 0.98815 0.82408 0.37356 0.0
C1520 C 0.02448 0.82523 0.29328 0.0
C1521 C 0.00744 0.80911 0.29183 0.0
C1522 C 0.0233 0.84133 0.30984 0.0
C1523 C 0.00511 0.84143 0.3252 0.0
C1524 C 0.98819 0.82508 0.32379 0.0
H1525 H 0.9498 0.93019 0.42326 0.0
H1526 H 0.95896 0.89954 0.39845 0.0
C1527 C 0.9894 0.80897 0.30724 0.0
C1528 C 0.00292 0.85951 0.34167 0.0
H1529 H -0.00283 0.87026 0.39702 0.0
C1530 C 0.00109 0.88117 0.33384 0.0
C1531 C 0.00189 0.85554 0.36476 0.0
C1532 C 0.00486 0.83277 0.37425 0.0
C1533 C -0.00249 0.89889 0.34839 0.0
C1534 C -0.00393 0.89489 0.37145 0.0
C1535 C -0.00175 0.87327 0.37933 0.0
C1536 C 0.99147 0.91287 0.38752 0.0
C1537 C 0.99449 0.92167 0.33889 0.0
C1538 C 0.00698 0.93029 0.39001 0.0
C1539 C 0.00178 0.94789 0.40415 0.0
C1540 C 0.981 0.94833 0.41614 0.0
C1541 C 0.96588 0.93045 0.41419 0.0
C1542 C 0.97111 0.91288 0.40004 0.0
H1543 H 0.99087 0.92125 0.32081 0.0
H1544 H 0.98023 0.93059 0.34733 0.0
H1545 H 0.01054 0.93111 0.34147 0.0
H1546 H 0.02299 0.93041 0.38082 0.0
H1547 H 0.01388 0.9613 0.40538 0.0
H1548 H 0.20108 0.9637 0.29639 0.0
H1549 H 0.16229 0.96835 0.31164 0.0
H1550 H 0.15328 0.0276 0.27336 0.0
H1551 H 0.1921 0.02274 0.25771 0.0
H1552 H 0.14976 0.03065 0.32213 0.0
H1553 H 0.09442 0.96558 0.28672 0.0
H1554 H 0.12286 0.9566 0.29442 0.0
H1555 H 0.11936 0.97626 0.27246 0.0
C1556 C 0.19053 0.97735 0.29079 0.0
C1557 C 0.19941 0.99288 0.27595 0.0
C1558 C 0.16839 0.97992 0.29936 0.0
C1559 C 0.15489 0.99817 0.29339 0.0
C1560 C 0.16336 0.01326 0.27787 0.0
H1561 H 0.05013 0.04104 0.38974 0.0
H1562 H 0.07063 0.04085 0.35428 0.0
C1563 C 0.18545 0.01048 0.26899 0.0
C1564 C 0.13381 0.00306 0.3062 0.0
H1565 H 0.08272 0.9806 0.32182 0.0
C1566 C 0.13476 0.02013 0.32177 0.0
C1567 C 0.11449 0.98915 0.30565 0.0
C1568 C 0.11253 0.97095 0.28879 0.0
C1569 C 0.11776 0.02256 0.33811 0.0
C1570 C 0.09886 0.00793 0.3383 0.0
C1571 C 0.09717 0.9918 0.32168 0.0
C1572 C 0.08259 0.00719 0.35724 0.0
C1573 C 0.12129 0.0396 0.35601 0.0
C1574 C 0.08104 0.98787 0.36983 0.0
C1575 C 0.06889 0.98776 0.38978 0.0
C1576 C 0.0583 0.00708 0.39766 0.0
C1577 C 0.05849 0.026 0.38429 0.0
C1578 C 0.0703 0.02596 0.36409 0.0
H1579 H 0.13909 0.04618 0.35597 0.0
H1580 H 0.10931 0.0536 0.35325 0.0
H1581 H 0.11778 0.03262 0.37265 0.0
H1582 H 0.09025 0.97314 0.36483 0.0
H1583 H 0.06892 0.97286 0.39959 0.0
H1584 H 0.97771 0.79486 0.6901 0.0
H1585 H 0.9809 0.82781 0.66718 0.0
H1586 H 0.03775 0.84994 0.70715 0.0
H1587 H 0.03528 0.81659 0.72964 0.0
H1588 H 0.97844 0.87224 0.67638 0.0
H1589 H 0.06502 0.84904 0.64484 0.0
H1590 H 0.04707 0.83015 0.65992 0.0
H1591 H 0.06329 0.85067 0.67451 0.0
C1592 C 0.99095 0.8067 0.69399 0.0
C1593 C 0.00646 0.80292 0.71152 0.0
C1594 C 0.99264 0.8256 0.68096 0.0
C1595 C 0.00986 0.8411 0.68517 0.0
C1596 C 0.02464 0.83795 0.70333 0.0
H1597 H 0.02161 0.97166 0.62836 0.0
H1598 H 0.01394 0.94011 0.65216 0.0
C1599 C 0.02302 0.819 0.71634 0.0
C1600 C 0.01276 0.86016 0.67012 0.0
H1601 H 0.05104 0.88436 0.63498 0.0
C1602 C 0.9943 0.87491 0.6673 0.0
C1603 C 0.0333 0.86336 0.65796 0.0
C1604 C 0.05324 0.84737 0.65924 0.0
C1605 C -0.00402 0.89299 0.65293 0.0
C1606 C 0.01682 0.8966 0.64137 0.0
C1607 C 0.03513 0.88166 0.64396 0.0
C1608 C 0.02016 0.9158 0.62658 0.0
C1609 C 0.97528 0.9078 0.64994 0.0
C1610 C 0.02655 0.91266 0.60434 0.0
C1611 C 0.0312 0.93068 0.59072 0.0
C1612 C 0.02964 0.95221 0.59913 0.0
C1613 C 0.0229 0.95531 0.62132 0.0
C1614 C 0.01833 0.93728 0.63494 0.0
H1615 H 0.95908 0.89939 0.65466 0.0
H1616 H 0.97712 0.92246 0.66074 0.0
H1617 H 0.97376 0.91347 0.63251 0.0
H1618 H 0.02817 0.89622 0.59757 0.0
H1619 H 0.03637 0.92771 0.57372 0.0
H1620 H 0.22471 0.98479 0.72116 0.0
H1621 H 0.19852 0.99003 0.68971 0.0
H1622 H 0.22859 0.05326 0.67666 0.0
H1623 H 0.25435 0.04852 0.70837 0.0
H1624 H 0.16674 0.02972 0.67983 0.0
H1625 H 0.23613 0.01312 0.61816 0.0
H1626 H 0.2378 0.00349 0.64644 0.0
H1627 H 0.24225 0.03199 0.64039 0.0
C1628 C 0.22542 1.00002 0.71192 0.0
C1629 C 0.24179 0.01615 0.71718 0.0
C1630 C 0.21057 0.0029 0.69386 0.0
C1631 C 0.21194 0.02187 0.68073 0.0
C1632 C 0.22754 0.03837 0.68644 0.0
H1633 H 0.11589 0.06172 0.57649 0.0
H1634 H 0.14608 0.063 0.60481 0.0
C1635 C 0.24227 0.03559 0.70453 0.0
C1636 C 0.19746 0.02417 0.66069 0.0
H1637 H 0.19936 0.02206 0.60409 0.0
C1638 C 0.17384 0.02818 0.66326 0.0
C1639 C 0.20687 0.02204 0.63915 0.0
C1640 C 0.23213 0.0173 0.63568 0.0
C1641 C 0.15928 0.03007 0.64477 0.0
C1642 C 0.16868 0.02796 0.62321 0.0
C1643 C 0.19232 0.02394 0.62064 0.0
C1644 C 0.15372 0.02819 0.60336 0.0
C1645 C 0.13384 0.03374 0.64838 0.0
C1646 C 0.14897 0.00842 0.5924 0.0
C1647 C 0.13176 0.0076 0.57627 0.0
C1648 C 0.11905 0.02659 0.57074 0.0
C1649 C 0.1253 0.04678 0.58037 0.0
C1650 C 0.14244 0.04754 0.59665 0.0
H1651 H 0.12889 0.03196 0.66607 0.0
H1652 H 0.12909 0.05057 0.6429 0.0
H1653 H 0.12372 0.02193 0.63834 0.0
H1654 H 0.15762 0.99335 0.59726 0.0
H1655 H 0.12752 0.99181 0.56906 0.0
H1656 H 0.01329 0.22375 0.7046 0.0
H1657 H 0.01631 0.19749 0.67375 0.0
H1658 H 0.94345 0.18499 0.67833 0.0
H1659 H 0.94045 0.2114 0.70916 0.0
H1660 H 0.00418 0.15229 0.67657 0.0
H1661 H 0.95408 0.19586 0.61121 0.0
H1662 H 0.96546 0.20984 0.63521 0.0
H1663 H 0.94036 0.19301 0.63778 0.0
C1664 C -0.00207 0.21554 0.69878 0.0
C1665 C 0.97665 0.21949 0.70899 0.0
C1666 C -0.00036 0.20058 0.68124 0.0
C1667 C 0.98006 0.18945 0.6736 0.0
C1668 C 0.95868 0.19366 0.68369 0.0
H1669 H 0.97609 0.08445 0.57225 0.0
H1670 H 0.96357 0.11111 0.6005 0.0
C1671 C 0.957 0.20863 0.7013 0.0
C1672 C 0.98246 0.17253 0.656 0.0
H1673 H 0.9687 0.16062 0.6022 0.0
C1674 C -0.00368 0.15407 0.66036 0.0
C1675 C 0.97198 0.17477 0.63493 0.0
C1676 C 0.95724 0.19448 0.62932 0.0
C1677 C 0.00038 0.13801 0.6441 0.0
C1678 C 0.99064 0.14065 0.62278 0.0
C1679 C 0.97612 0.15869 0.61858 0.0
C1680 C -0.00284 0.12578 0.6043 0.0
C1681 C 0.01532 0.11843 0.64976 0.0
C1682 C 0.01992 0.12571 0.59664 0.0
C1683 C 0.02708 0.11053 0.58072 0.0
C1684 C 0.01163 0.09504 0.57199 0.0
C1685 C 0.98848 0.09589 0.57881 0.0
C1686 C 0.98129 0.11117 0.5949 0.0
H1687 H 0.01649 0.11587 0.66796 0.0
H1688 H 0.00859 0.10323 0.64197 0.0
H1689 H 0.03298 0.12119 0.64336 0.0
H1690 H 0.03233 0.1371 0.60342 0.0
H1691 H 0.04498 0.11062 0.57567 0.0
H1692 H 0.82318 0.02594 0.74986 0.0
H1693 H 0.85791 0.01358 0.73038 0.0
H1694 H 0.88037 0.08087 0.72519 0.0
H1695 H 0.84608 0.09306 0.74546 0.0
H1696 H 0.86301 0.025 0.68905 0.0
H1697 H 0.94123 0.05081 0.73375 0.0
H1698 H 0.91336 0.04981 0.74698 0.0
H1699 H 0.92142 0.0733 0.73063 0.0
C1700 C 0.83606 0.03792 0.74531 0.0
C1701 C 0.83214 0.06039 0.74909 0.0
C1702 C 0.85584 0.03089 0.73419 0.0
C1703 C 0.87186 0.04626 0.7264 0.0
C1704 C 0.86863 0.06863 0.7315 0.0
H1705 H 0.95488 0.06241 0.61337 0.0
H1706 H 0.93629 0.06463 0.6496 0.0
C1707 C 0.84898 0.07562 0.74296 0.0
C1708 C 0.88918 0.03952 0.7096 0.0
H1709 H 0.94527 0.04569 0.69392 0.0
C1710 C 0.88112 0.02904 0.69039 0.0
C1711 C 0.91276 0.04497 0.71124 0.0
C1712 C 0.92272 0.05514 0.73189 0.0
C1713 C 0.89564 0.02486 0.67235 0.0
C1714 C 0.91899 0.03112 0.67362 0.0
C1715 C 0.92735 0.04091 0.69307 0.0
C1716 C 0.93412 0.02943 0.654 0.0
C1717 C 0.88559 0.01488 0.65158 0.0
C1718 C 0.93979 0.00887 0.64491 0.0
C1719 C 0.95025 0.0075 0.62408 0.0
C1720 C 0.95523 0.0267 0.61207 0.0
C1721 C 0.951 0.04728 0.62201 0.0
C1722 C 0.94052 0.04861 0.6428 0.0
H1723 H 0.86648 0.01437 0.65207 0.0
H1724 H 0.89092 0.02433 0.63671 0.0
H1725 H 0.89209 0.9978 0.64967 0.0
H1726 H 0.93516 0.99389 0.65347 0.0
H1727 H 0.95356 0.99139 0.61705 0.0
H1728 H 0.3115 0.02194 0.20584 0.0
H1729 H 0.34779 0.02153 0.18489 0.0
H1730 H 0.34029 0.95194 0.17335 0.0
H1731 H 0.30385 0.95244 0.1941 0.0
H1732 H 0.38983 0.99587 0.1892 0.0
H1733 H 0.34247 0.97951 0.11069 0.0
H1734 H 0.32806 0.98845 0.13565 0.0
H1735 H 0.33774 0.96049 0.13298 0.0
C1736 C 0.31786 0.00655 0.19905 0.0
C1737 C 0.30512 0.98724 0.20135 0.0
C1738 C 0.33852 0.00631 0.18717 0.0
C1739 C 0.34654 0.98675 0.17738 0.0
C1740 C 0.33423 0.96722 0.18055 0.0
H1741 H 0.45068 0.97835 0.07286 0.0
H1742 H 0.42475 0.96683 0.1026 0.0
C1743 C 0.31355 0.96749 0.19243 0.0
C1744 C 0.36688 0.98726 0.16261 0.0
H1745 H 0.38238 0.98401 0.10815 0.0
C1746 C 0.38831 0.99307 0.1715 0.0
C1747 C 0.36481 0.98349 0.13955 0.0
C1748 C 0.34204 0.97779 0.12902 0.0
C1749 C 0.40769 0.99563 0.15784 0.0
C1750 C 0.40539 0.99276 0.13467 0.0
C1751 C 0.38414 0.98614 0.12592 0.0
C1752 C 0.42394 0.99856 0.11887 0.0
C1753 C 0.43038 0.00152 0.16836 0.0
C1754 C 0.43237 0.0201 0.11833 0.0
C1755 C 0.4472 0.02671 0.10143 0.0
C1756 C 0.45368 0.01197 0.08454 0.0
C1757 C 0.44599 0.99012 0.08559 0.0
C1758 C 0.43118 0.98351 0.10258 0.0
H1759 H 0.43135 0.99553 0.18573 0.0
H1760 H 0.44511 0.99455 0.15889 0.0
H1761 H 0.43207 0.01967 0.16875 0.0
H1762 H 0.4266 0.03217 0.13036 0.0
H1763 H 0.45277 0.04366 0.10112 0.0
H1764 H 0.08705 0.29164 0.20537 0.0
H1765 H 0.08425 0.32178 0.17841 0.0
H1766 H 0.01981 0.34236 0.20765 0.0
H1767 H 0.02286 0.31239 0.23483 0.0
H1768 H 0.05005 0.32977 0.14717 0.0
H1769 H 0.0564 0.39934 0.20652 0.0
H1770 H 0.06369 0.37146 0.21407 0.0
H1771 H 0.03406 0.38005 0.21275 0.0
C1772 C 0.07244 0.30278 0.20608 0.0
C1773 C 0.05524 0.3 0.2221 0.0
C1774 C 0.07079 0.31989 0.19068 0.0
C1775 C 0.05196 0.3345 0.19117 0.0
C1776 C 0.0347 0.33158 0.20722 0.0
H1777 H 0.01809 0.44953 0.11084 0.0
H1778 H 0.01615 0.41807 0.13603 0.0
C1779 C 0.03638 0.31446 0.22264 0.0
C1780 C 0.05026 0.35247 0.17459 0.0
H1781 H 0.04823 0.40833 0.1692 0.0
C1782 C 0.04966 0.34695 0.15198 0.0
C1783 C 0.04968 0.37488 0.18089 0.0
C1784 C 0.05119 0.38188 0.20486 0.0
C1785 C 0.04842 0.36322 0.1355 0.0
C1786 C 0.04811 0.38562 0.1418 0.0
C1787 C 0.04839 0.39114 0.16441 0.0
C1788 C 0.04841 0.40367 0.12526 0.0
C1789 C 0.04728 0.35628 0.11151 0.0
C1790 C 0.06713 0.40594 0.11074 0.0
C1791 C 0.06833 0.42392 0.09638 0.0
C1792 C 0.05086 0.44004 0.0963 0.0
C1793 C 0.03185 0.43743 0.11048 0.0
C1794 C 0.03071 0.41948 0.12491 0.0
H1795 H 0.04082 0.33922 0.10976 0.0
H1796 H 0.036 0.36748 0.10178 0.0
H1797 H 0.06483 0.35681 0.1043 0.0
H1798 H 0.08117 0.39414 0.11097 0.0
H1799 H 0.08323 0.42544 0.0857 0.0
H1800 H 0.7025 0.03626 0.17989 0.0
H1801 H 0.6848 0.03211 0.14345 0.0
H1802 H 0.71305 0.09429 0.12311 0.0
H1803 H 0.73081 0.09861 0.15992 0.0
H1804 H 0.66484 0.08974 0.11536 0.0
H1805 H 0.71355 0.01834 0.08267 0.0
H1806 H 0.70333 0.01379 0.11035 0.0
H1807 H 0.72401 0.03509 0.10524 0.0
C1808 C 0.70516 0.04894 0.16757 0.0
C1809 C 0.71795 0.06778 0.1727 0.0
C1810 C 0.69519 0.04648 0.14671 0.0
C1811 C 0.69782 0.06277 0.13051 0.0
C1812 C 0.71098 0.08146 0.13536 0.0
H1813 H 0.63134 0.02646 0.00525 0.0
H1814 H 0.65981 0.04309 0.02992 0.0
C1815 C 0.72118 0.08386 0.15629 0.0
C1816 C 0.68528 0.06068 0.10924 0.0
H1817 H 0.67558 0.02418 0.0674 0.0
C1818 C 0.66748 0.07569 0.10455 0.0
C1819 C 0.68897 0.04256 0.09496 0.0
C1820 C 0.70867 0.02665 0.09841 0.0
C1821 C 0.65219 0.0721 0.08689 0.0
C1822 C 0.65464 0.05286 0.07387 0.0
C1823 C 0.67351 0.0388 0.07754 0.0
C1824 C 0.63671 0.04574 0.05796 0.0
C1825 C 0.6332 0.08862 0.08274 0.0
C1826 C 0.61422 0.04189 0.06547 0.0
C1827 C 0.59796 0.03238 0.05146 0.0
C1828 C 0.60389 0.0264 0.02967 0.0
C1829 C 0.62625 0.0308 0.02198 0.0
C1830 C 0.64252 0.04036 0.03602 0.0
H1831 H 0.63836 0.10533 0.08819 0.0
H1832 H 0.62841 0.08924 0.06494 0.0
H1833 H 0.61777 0.08393 0.09245 0.0
H1834 H 0.60948 0.04539 0.08248 0.0
H1835 H 0.58093 0.02911 0.05795 0.0
H1836 H 0.97598 0.72693 0.20375 0.0
H1837 H 0.97092 0.70311 0.1712 0.0
H1838 H 0.02354 0.65932 0.19595 0.0
H1839 H 0.02903 0.68306 0.22808 0.0
H1840 H 0.00431 0.68918 0.13897 0.0
H1841 H 0.96786 0.61866 0.18457 0.0
H1842 H 0.9687 0.64611 0.19603 0.0
H1843 H 0.99384 0.6287 0.19697 0.0
C1844 C 0.9866 0.71233 0.20213 0.0
C1845 C 0.00271 0.70676 0.21867 0.0
C1846 C 0.98356 0.69868 0.18363 0.0
C1847 C -0.00356 0.67919 0.18149 0.0
C1848 C 0.01296 0.67396 0.19761 0.0
H1849 H 0.05373 0.59864 0.08707 0.0
H1850 H 0.04007 0.62759 0.11139 0.0
C1851 C 0.01608 0.68757 0.21597 0.0
C1852 C 0.99348 0.66442 0.16215 0.0
H1853 H 0.98535 0.61041 0.14916 0.0
C1854 C -0.00035 0.67207 0.14106 0.0
C1855 C 0.98692 0.64223 0.1648 0.0
C1856 C 0.97871 0.63347 0.18678 0.0
C1857 C 0.00135 0.65762 0.12295 0.0
C1858 C -0.003 0.63498 0.12615 0.0
C1859 C 0.98889 0.62773 0.14676 0.0
C1860 C 0.00426 0.61826 0.10963 0.0
C1861 C 0.00872 0.66654 0.10076 0.0
C1862 C 0.98868 0.6031 0.10065 0.0
C1863 C -0.00349 0.58628 0.08652 0.0
C1864 C 0.02008 0.58408 0.08163 0.0
C1865 C 0.03545 0.59959 0.09049 0.0
C1866 C 0.02765 0.61639 0.10431 0.0
H1867 H 0.00364 0.68408 0.09893 0.0
H1868 H 0.02775 0.66552 0.09944 0.0
H1869 H 0.00114 0.65697 0.08692 0.0
H1870 H 0.97054 0.6042 0.10469 0.0
H1871 H 0.98418 0.575 0.07967 0.0
H1872 H 0.297 0.01677 0.83232 0.0
H1873 H 0.32996 0.01609 0.85775 0.0
H1874 H 0.34011 0.94704 0.84431 0.0
H1875 H 0.30691 0.94772 0.81889 0.0
H1876 H 0.34412 0.95931 0.89052 0.0
H1877 H 0.39716 0.01111 0.83515 0.0
H1878 H 0.36939 0.0228 0.84119 0.0
H1879 H 0.37138 0.9975 0.82584 0.0
C1880 C 0.30615 0.00143 0.83506 0.0
C1881 C 0.29959 0.98228 0.8239 0.0
C1882 C 0.325 0.00107 0.84942 0.0
C1883 C 0.33764 0.98158 0.85265 0.0
C1884 C 0.33061 0.96223 0.84197 0.0
H1885 H 0.47239 0.99486 0.91638 0.0
H1886 H 0.4424 0.98081 0.89148 0.0
C1887 C 0.31171 0.96262 0.82754 0.0
C1888 C 0.35852 0.98176 0.86676 0.0
H1889 H 0.41036 0.00714 0.87243 0.0
C1890 C 0.35875 0.96954 0.88648 0.0
C1891 C 0.37779 0.99471 0.8612 0.0
C1892 C 0.3791 0.00711 0.83958 0.0
C1893 C 0.37727 0.97094 0.90141 0.0
C1894 C 0.3958 0.98514 0.89655 0.0
C1895 C 0.39608 0.99638 0.87625 0.0
C1896 C 0.41407 0.99017 0.91294 0.0
C1897 C 0.37677 0.95736 0.92231 0.0
C1898 C 0.40814 0.99989 0.93329 0.0
C1899 C 0.42522 0.00767 0.94749 0.0
C1900 C 0.4485 0.00581 0.94162 0.0
C1901 C 0.45456 0.9957 0.92154 0.0
C1902 C 0.43744 0.98791 0.90727 0.0
H1903 H 0.36589 0.94254 0.92025 0.0
H1904 H 0.39437 0.95208 0.92721 0.0
H1905 H 0.36934 0.96734 0.93599 0.0
H1906 H 0.39026 0.0024 0.93776 0.0
H1907 H 0.42022 0.01572 0.96281 0.0
H1908 H 0.02649 0.32745 0.78269 0.0
H1909 H 0.02973 0.34903 0.81674 0.0
H1910 H 0.96507 0.32301 0.83963 0.0
H1911 H 0.96185 0.30118 0.8056 0.0
H1912 H -0.00033 0.38107 0.82876 0.0
H1913 H 0.00435 0.31826 0.89518 0.0
H1914 H 0.00898 0.31166 0.86632 0.0
H1915 H 0.98023 0.31505 0.87689 0.0
C1916 C 0.01308 0.32614 0.7951 0.0
C1917 C 0.99384 0.31272 0.79142 0.0
C1918 C 0.015 0.33841 0.81458 0.0
C1919 C -0.00224 0.33752 0.83086 0.0
C1920 C 0.97885 0.32361 0.82756 0.0
H1921 H 0.96213 0.42061 0.94216 0.0
H1922 H 0.96499 0.3908 0.91504 0.0
C1923 C 0.97698 0.31119 0.80807 0.0
C1924 C -0.00141 0.35277 0.85012 0.0
H1925 H -0.00202 0.35536 0.90676 0.0
C1926 C -0.00047 0.37541 0.84581 0.0
C1927 C -0.00176 0.34539 0.87236 0.0
C1928 C -0.00189 0.32125 0.87804 0.0
C1929 C -0.00025 0.39089 0.86305 0.0
C1930 C -0.00063 0.38354 0.88529 0.0
C1931 C -0.0016 0.36091 0.88969 0.0
C1932 C -0.0008 0.39937 0.90401 0.0
C1933 C -0.00025 0.41504 0.85731 0.0
C1934 C 0.01788 0.41347 0.90746 0.0
C1935 C 0.01632 0.43056 0.92293 0.0
C1936 C -0.004 0.43384 0.93522 0.0
C1937 C 0.97792 0.41873 0.93278 0.0
C1938 C 0.97953 0.40163 0.91733 0.0
H1939 H 0.995 0.41796 0.83971 0.0
H1940 H 0.98757 0.42431 0.86807 0.0
H1941 H 0.01724 0.42173 0.86002 0.0
H1942 H 0.03337 0.41175 0.89759 0.0
H1943 H 0.03066 0.44172 0.92458 0.0
H1944 H 0.71599 0.1058 0.80179 0.0
H1945 H 0.6822 0.09852 0.82521 0.0
H1946 H 0.72711 0.07848 0.87859 0.0
H1947 H 0.76071 0.08615 0.85534 0.0
H1948 H 0.67044 0.05919 0.84199 0.0
H1949 H 0.68198 0.11787 0.91114 0.0
H1950 H 0.69705 0.12042 0.88511 0.0
H1951 H 0.70747 0.10181 0.90603 0.0
C1952 C 0.71849 0.10022 0.81868 0.0
C1953 C 0.74069 0.09663 0.827 0.0
C1954 C 0.69928 0.09607 0.83201 0.0
C1955 C 0.70213 0.08836 0.85381 0.0
C1956 C 0.72447 0.08502 0.86209 0.0
H1957 H 0.6167 0.0032 0.92899 0.0
H1958 H 0.64612 0.0218 0.90714 0.0
C1959 C 0.74362 0.08922 0.84879 0.0
C1960 C 0.68191 0.08173 0.86718 0.0
H1961 H 0.65723 0.08693 0.91836 0.0
C1962 C 0.66735 0.06553 0.85855 0.0
C1963 C 0.67767 0.0902 0.88869 0.0
C1964 C 0.69172 0.1087 0.89821 0.0
C1965 C 0.64937 0.05681 0.87121 0.0
C1966 C 0.64617 0.06414 0.89327 0.0
C1967 C 0.65996 0.08112 0.90156 0.0
C1968 C 0.62923 0.05359 0.90812 0.0
C1969 C 0.6341 0.03961 0.86092 0.0
C1970 C 0.61044 0.06551 0.91665 0.0
C1971 C 0.59367 0.05491 0.92936 0.0
C1972 C 0.59553 0.0323 0.93375 0.0
C1973 C 0.61475 0.02063 0.92575 0.0
C1974 C 0.63153 0.03121 0.91322 0.0
H1975 H 0.63442 0.04048 0.84252 0.0
H1976 H 0.64035 0.02305 0.86584 0.0
H1977 H 0.61603 0.04149 0.86664 0.0
H1978 H 0.6084 0.08282 0.91291 0.0
H1979 H 0.57886 0.06419 0.93496 0.0
H1980 H 0.99229 0.70511 0.79545 0.0
H1981 H 0.99499 0.67558 0.82317 0.0
H1982 H 0.05191 0.70874 0.85429 0.0
H1983 H 0.04901 0.73834 0.82673 0.0
H1984 H 0.03233 0.64722 0.83574 0.0
H1985 H 0.0042 0.70222 0.90449 0.0
H1986 H 0.00098 0.70967 0.8757 0.0
H1987 H 0.02865 0.71135 0.88883 0.0
C1988 C 0.00545 0.7059 0.80814 0.0
C1989 C 0.0204 0.72384 0.80919 0.0
C1990 C 0.00703 0.68908 0.8239 0.0
C1991 C 0.02347 0.69011 0.84095 0.0
C1992 C 0.0389 0.70778 0.84149 0.0
H1993 H 0.04155 0.57983 0.93548 0.0
H1994 H 0.05115 0.60935 0.90934 0.0
C1995 C 0.0373 0.72458 0.82574 0.0
C1996 C 0.02377 0.67317 0.85863 0.0
H1997 H 0.01264 0.66549 0.91367 0.0
C1998 C 0.02826 0.65119 0.85283 0.0
C1999 C 0.01833 0.67844 0.88088 0.0
C2000 C 0.01258 0.70165 0.88793 0.0
C2001 C 0.02698 0.63427 0.86863 0.0
C2002 C 0.02123 0.63953 0.89082 0.0
C2003 C 0.01728 0.66156 0.8967 0.0
C2004 C 0.01639 0.62227 0.90751 0.0
C2005 C 0.03074 0.6108 0.86131 0.0
C2006 C 0.99392 0.62017 0.91562 0.0
C2007 C 0.98844 0.60339 0.93036 0.0
C2008 C 0.00534 0.58829 0.93748 0.0
C2009 C 0.02811 0.59092 0.93006 0.0
C2010 C 0.03358 0.60776 0.9151 0.0
H2011 H 0.03165 0.60925 0.84297 0.0
H2012 H 0.04716 0.60455 0.86837 0.0
H2013 H 0.01666 0.60019 0.8675 0.0
H2014 H 0.98041 0.63126 0.91012 0.0
H2015 H 0.97076 0.6021 0.93591 0.0
H2016 H 0.15642 0.27431 0.04396 0.0
H2017 H 0.12809 0.30397 0.038 0.0
H2018 H 0.18338 0.34946 0.02602 0.0
H2019 H 0.21159 0.31979 0.03168 0.0
H2020 H 0.1219 0.3456 0.05882 0.0
H2021 H 0.14365 0.35328 0.96966 0.0
H2022 H 0.15268 0.33009 0.98621 0.0
H2023 H 0.16812 0.35557 0.98765 0.0
C2024 C 0.16239 0.29073 0.04023 0.0
C2025 C 0.18597 0.29498 0.03821 0.0
C2026 C 0.14629 0.30759 0.03686 0.0
C2027 C 0.15366 0.3288 0.03127 0.0
C2028 C 0.17735 0.33312 0.02997 0.0
H2029 H 0.08831 0.45496 0.02971 0.0
H2030 H 0.10623 0.42029 0.04069 0.0
C2031 C 0.19341 0.31627 0.03332 0.0
C2032 C 0.13668 0.3463 0.02608 0.0
H2033 H 0.12056 0.38183 0.98521 0.0
C2034 C 0.12141 0.35343 0.04268 0.0
C2035 C 0.13577 0.35614 0.00488 0.0
C2036 C 0.15076 0.34826 0.98599 0.0
C2037 C 0.10587 0.37082 0.03888 0.0
C2038 C 0.10591 0.3815 0.01804 0.0
C2039 C 0.12058 0.37374 0.00122 0.0
C2040 C 0.09201 0.40152 0.01348 0.0
C2041 C 0.08968 0.37758 0.05725 0.0
C2042 C 0.07787 0.40255 0.99461 0.0
C2043 C 0.06779 0.42244 0.98816 0.0
C2044 C 0.0717 0.44169 0.00046 0.0
C2045 C 0.08486 0.4404 0.01997 0.0
C2046 C 0.09504 0.42053 0.02634 0.0
H2047 H 0.08576 0.36348 0.06826 0.0
H2048 H 0.09808 0.39037 0.06751 0.0
H2049 H 0.07327 0.38437 0.05069 0.0
H2050 H 0.07531 0.38809 0.98443 0.0
H2051 H 0.05754 0.42288 0.97316 0.0
H2052 H 0.16144 0.75174 0.06645 0.0
H2053 H 0.13854 0.71785 0.06815 0.0
H2054 H 0.18375 0.68759 0.02005 0.0
H2055 H 0.2065 0.72131 0.01837 0.0
H2056 H 0.11573 0.69831 0.0325 0.0
H2057 H 0.17942 0.64049 0.06846 0.0
H2058 H 0.18257 0.66998 0.07006 0.0
H2059 H 0.19054 0.65543 0.0452 0.0
C2060 C 0.1665 0.7377 0.05645 0.0
C2061 C 0.18566 0.73886 0.0424 0.0
C2062 C 0.15351 0.71842 0.05745 0.0
C2063 C 0.15973 0.70007 0.04456 0.0
C2064 C 0.179 0.70134 0.03057 0.0
H2065 H 0.11025 0.58176 0.99141 0.0
H2066 H 0.13199 0.61281 0.00633 0.0
C2067 C 0.19188 0.72061 0.02951 0.0
C2068 C 0.14518 0.68015 0.04424 0.0
H2069 H 0.14753 0.62427 0.04914 0.0
C2070 C 0.12248 0.68215 0.03655 0.0
C2071 C 0.15406 0.65912 0.04959 0.0
C2072 C 0.17792 0.6561 0.059 0.0
C2073 C 0.1089 0.66353 0.03268 0.0
C2074 C 0.11817 0.6424 0.03704 0.0
C2075 C 0.14049 0.64048 0.04577 0.0
C2076 C 0.10597 0.62215 0.03031 0.0
C2077 C 0.08526 0.66659 0.02269 0.0
C2078 C 0.08438 0.61679 0.03924 0.0
C2079 C 0.07193 0.59911 0.03062 0.0
C2080 C 0.08111 0.58638 0.0133 0.0
C2081 C 0.103 0.59127 0.00495 0.0
C2082 C 0.11541 0.60892 0.01349 0.0
H2083 H 0.08243 0.68361 0.01658 0.0
H2084 H 0.08265 0.65501 0.00869 0.0
H2085 H 0.07203 0.66313 0.03546 0.0
H2086 H 0.07685 0.62671 0.05231 0.0
H2087 H 0.0547 0.59614 0.03664 0.0
H2088 H 0.31442 0.2532 0.00232 0.0
H2089 H 0.34442 0.22656 0.9925 0.0
H2090 H 0.31325 0.17877 0.03573 0.0
H2091 H 0.28294 0.20542 0.04541 0.0
H2092 H 0.37451 0.21009 0.02293 0.0
H2093 H 0.3286 0.14224 0.98078 0.0
H2094 H 0.31593 0.16917 0.98464 0.0
H2095 H 0.31627 0.14971 0.00706 0.0
C2096 C 0.31375 0.23685 0.00939 0.0
C2097 C 0.2965 0.23133 0.02471 0.0
C2098 C 0.33085 0.22167 0.00376 0.0
C2099 C 0.33102 0.20068 0.01331 0.0
C2100 C 0.3132 0.19476 0.02785 0.0
H2101 H 0.44425 0.11536 0.04246 0.0
H2102 H 0.41427 0.14359 0.04189 0.0
C2103 C 0.29594 0.20995 0.03341 0.0
C2104 C 0.35111 0.18598 0.00985 0.0
H2105 H 0.36697 0.1345 0.99307 0.0
C2106 C 0.3729 0.19363 0.01618 0.0
C2107 C 0.34899 0.16464 0.00082 0.0
C2108 C 0.32623 0.15599 0.99272 0.0
C2109 C 0.39254 0.18026 0.01439 0.0
C2110 C 0.39025 0.15856 0.00638 0.0
C2111 C 0.36861 0.15113 -0.00066 0.0
C2112 C 0.40983 0.14292 0.00629 0.0
C2113 C 0.41556 0.18944 0.02114 0.0
C2114 C 0.41734 0.13327 0.98641 0.0
C2115 C 0.4345 0.11706 0.98666 0.0
C2116 C 0.44424 0.11007 0.00684 0.0
C2117 C 0.43717 0.12034 0.02663 0.0
C2118 C 0.42007 0.13656 0.02634 0.0
H2119 H 0.41551 0.2077 0.02077 0.0
H2120 H 0.41952 0.18418 0.03834 0.0
H2121 H 0.4295 0.18328 0.01013 0.0
H2122 H 0.4096 0.13799 0.97077 0.0
H2123 H 0.43954 0.10952 0.9711 0.0
H2124 H 0.8518 0.3238 0.01665 0.0
H2125 H 0.88846 0.34302 0.01996 0.0
H2126 H 0.90846 0.3199 0.95512 0.0
H2127 H 0.87155 0.30067 0.95158 0.0
H2128 H 0.93681 0.32472 0.01438 0.0
H2129 H 0.91138 0.3897 0.95378 0.0
H2130 H 0.89003 0.37305 0.96744 0.0
H2131 H 0.90809 0.36118 0.94645 0.0
C2132 C 0.864 0.32278 0.0031 0.0
C2133 C 0.85873 0.31089 0.98378 0.0
C2134 C 0.88498 0.33363 0.00507 0.0
C2135 C 0.90105 0.33296 0.98773 0.0
C2136 C 0.89619 0.32067 0.96863 0.0
H2137 H 0.00661 0.43515 0.99336 0.0
H2138 H 0.98915 0.40133 0.9792 0.0
C2139 C 0.87519 0.30963 0.96669 0.0
C2140 C 0.92227 0.34613 0.98962 0.0
H2141 H 0.94385 0.39622 0.97564 0.0
C2142 C 0.93868 0.34015 0.00559 0.0
C2143 C 0.92484 0.36604 0.97785 0.0
C2144 C 0.9077 0.37306 0.96042 0.0
C2145 C 0.95682 0.35425 0.01112 0.0
C2146 C 0.95811 0.37512 0.00087 0.0
C2147 C 0.94279 0.38028 0.9836 0.0
C2148 C 0.97241 0.39306 0.01012 0.0
C2149 C 0.97396 0.34692 0.02841 0.0
C2150 C 0.96925 0.39938 0.03231 0.0
C2151 C 0.97916 0.41858 0.0404 0.0
C2152 C 0.99219 0.43212 0.0264 0.0
C2153 C -0.00351 0.42517 0.00451 0.0
C2154 C 0.98655 0.40585 0.9964 0.0
H2155 H 0.97669 0.32884 0.02764 0.0
H2156 H 0.99081 0.35517 0.02631 0.0
H2157 H 0.96711 0.35087 0.04513 0.0
H2158 H 0.95797 0.39018 0.0431 0.0
H2159 H 0.97555 0.42338 0.05736 0.0
H2160 H 0.73453 0.81268 0.95241 0.0
H2161 H 0.69908 0.8348 0.95446 0.0
H2162 H 0.71242 0.84824 0.02352 0.0
H2163 H 0.74786 0.8259 0.02146 0.0
H2164 H 0.66538 0.83628 0.01311 0.0
H2165 H 0.69897 0.90272 0.95922 0.0
H2166 H 0.70143 0.8756 0.94763 0.0
H2167 H 0.71747 0.8825 0.97211 0.0
C2168 C 0.72982 0.82044 0.96796 0.0
C2169 C 0.74376 0.81798 0.98672 0.0
C2170 C 0.70968 0.83302 0.96913 0.0
C2171 C 0.70334 0.84334 0.98907 0.0
C2172 C 0.7171 0.84046 0.00799 0.0
H2173 H 0.59169 0.93305 0.02343 0.0
H2174 H 0.62233 0.90538 0.02548 0.0
C2175 C 0.73729 0.82785 0.00679 0.0
C2176 C 0.68259 0.85749 0.98995 0.0
H2177 H 0.65931 0.90423 0.96806 0.0
C2178 C 0.66401 0.8512 0.00337 0.0
C2179 C 0.681 0.87696 0.97728 0.0
C2180 C 0.70083 0.88502 0.96339 0.0
C2181 C 0.64353 0.86362 0.00393 0.0
C2182 C 0.64185 0.8829 0.99095 0.0
C2183 C 0.66058 0.8893 0.97782 0.0
C2184 C 0.62097 0.89696 0.99064 0.0
C2185 C 0.62372 0.85577 0.01793 0.0
C2186 C 0.60985 0.90118 0.97044 0.0
C2187 C 0.59252 0.91709 0.96915 0.0
C2188 C 0.58602 0.92918 0.98806 0.0
C2189 C 0.59627 0.92403 0.00856 0.0
C2190 C 0.61372 0.90813 0.0098 0.0
H2191 H 0.62563 0.83814 0.02241 0.0
H2192 H 0.62308 0.86547 0.03351 0.0
H2193 H 0.60709 0.85813 0.00915 0.0
H2194 H 0.61522 0.89272 0.95547 0.0
H2195 H 0.58489 0.92052 0.95313 0.0
H2196 H 0.80954 0.695 0.95676 0.0
H2197 H 0.84339 0.67094 0.95759 0.0
H2198 H 0.87932 0.71841 0.9976 0.0
H2199 H 0.84521 0.74213 0.99777 0.0
H2200 H 0.89081 0.67472 0.94671 0.0
H2201 H 0.87601 0.6639 0.03718 0.0
H2202 H 0.85516 0.67694 0.01932 0.0
H2203 H 0.88007 0.6918 0.02845 0.0
C2204 C 0.82467 0.70036 0.9657 0.0
C2205 C 0.82449 0.72028 0.97759 0.0
C2206 C 0.84408 0.68671 0.96593 0.0
C2207 C 0.86367 0.69275 0.97797 0.0
C2208 C 0.8642 0.71333 0.98848 0.0
H2209 H 0.97415 0.60928 0.02629 0.0
H2210 H 0.95368 0.64202 0.0132 0.0
C2211 C 0.84473 0.72694 0.98841 0.0
C2212 C 0.88241 0.67654 0.98146 0.0
H2213 H 0.90728 0.64493 0.02159 0.0
C2214 C 0.8946 0.6683 0.96308 0.0
C2215 C 0.88714 0.6681 0.00284 0.0
C2216 C 0.87381 0.67545 0.02308 0.0
C2217 C 0.9114 0.65175 0.96556 0.0
C2218 C 0.91583 0.64316 0.9869 0.0
C2219 C 0.90397 0.65172 0.00527 0.0
C2220 C 0.93146 0.62426 0.99077 0.0
C2221 C 0.92425 0.64356 0.94542 0.0
C2222 C 0.92612 0.60349 0.98208 0.0
C2223 C 0.9378 0.58476 0.98959 0.0
C2224 C 0.95487 0.58653 0.0059 0.0
C2225 C 0.96101 0.60746 0.01369 0.0
C2226 C 0.94943 0.62616 0.00616 0.0
H2227 H 0.92368 0.65572 0.9317 0.0
H2228 H 0.94252 0.63986 0.94947 0.0
H2229 H 0.91617 0.62818 0.93944 0.0
H2230 H 0.9119 0.60156 0.97066 0.0
H2231 H 0.93227 0.56887 0.98389 0.0
H2232 H 0.27132 0.83375 0.04408 0.0
H2233 H 0.29473 0.86641 0.03692 0.0
H2234 H 0.32146 0.8362 0.97749 0.0
H2235 H 0.29816 0.80352 0.98454 0.0
H2236 H 0.34554 0.86181 0.0322 0.0
H2237 H 0.30357 0.90156 0.95963 0.0
H2238 H 0.2882 0.88383 0.97849 0.0
H2239 H 0.30748 0.87221 0.95835 0.0
C2240 C 0.28183 0.83427 0.02926 0.0
C2241 C 0.28299 0.81607 0.0149 0.0
C2242 C 0.29519 0.8529 0.02521 0.0
C2243 C 0.3096 0.85378 0.00656 0.0
C2244 C 0.31019 0.83596 0.9918 0.0
H2245 H 0.42066 0.93285 0.95761 0.0
H2246 H 0.38611 0.91034 0.96132 0.0
C2247 C 0.29704 0.81725 0.99595 0.0
C2248 C 0.32595 0.87214 0.00381 0.0
H2249 H 0.34039 0.91486 0.96995 0.0
C2250 C 0.3443 0.87361 0.01877 0.0
C2251 C 0.32439 0.88721 0.98606 0.0
C2252 C 0.30479 0.88634 0.96973 0.0
C2253 C 0.3616 0.88936 0.01614 0.0
C2254 C 0.36004 0.90464 0.99846 0.0
C2255 C 0.34147 0.90331 0.9836 0.0
C2256 C 0.37823 0.92128 0.99466 0.0
C2257 C 0.38191 0.88873 0.03176 0.0
C2258 C 0.38449 0.9359 0.01161 0.0
C2259 C 0.40441 0.9485 0.00967 0.0
C2260 C 0.4181 0.94713 0.99049 0.0
C2261 C 0.41052 0.93419 0.97263 0.0
C2262 C 0.39078 0.92128 0.97474 0.0
H2263 H 0.38355 0.87257 0.0402 0.0
H2264 H 0.39824 0.89205 0.02285 0.0
H2265 H 0.37955 0.90146 0.04476 0.0
H2266 H 0.37462 0.93676 0.02682 0.0
H2267 H 0.4096 0.95861 0.02356 0.0
H2268 H 0.77079 0.21275 0.93141 0.0
H2269 H 0.73991 0.18543 0.93439 0.0
H2270 H 0.73996 0.19321 0.00552 0.0
H2271 H 0.77055 0.22071 0.00245 0.0
H2272 H 0.74045 0.14549 0.95713 0.0
H2273 H 0.67207 0.20063 0.99 0.0
H2274 H 0.69813 0.21094 0.97757 0.0
H2275 H 0.69823 0.2014 0.00579 0.0
C2276 C 0.76392 0.20874 0.9476 0.0
C2277 C 0.77265 0.21882 0.9667 0.0
C2278 C 0.74642 0.19312 0.94931 0.0
C2279 C 0.73742 0.18749 0.97015 0.0
C2280 C 0.7463 0.19762 0.98924 0.0
H2281 H 0.64263 0.09301 0.02284 0.0
H2282 H 0.67479 0.11771 0.01576 0.0
C2283 C 0.76376 0.21324 0.98752 0.0
C2284 C 0.71918 0.17063 0.97202 0.0
H2285 H 0.66487 0.16216 0.99181 0.0
C2286 C 0.72382 0.14918 0.96447 0.0
C2287 C 0.6975 0.17547 0.98164 0.0
C2288 C 0.69105 0.19841 0.98902 0.0
C2289 C 0.70755 0.13233 0.96684 0.0
C2290 C 0.68619 0.13712 0.97695 0.0
C2291 C 0.68139 0.15858 0.98418 0.0
C2292 C 0.66855 0.12007 0.98052 0.0
C2293 C 0.71355 0.10931 0.95948 0.0
C2294 C 0.65468 0.11296 0.96293 0.0
C2295 C 0.63623 0.09881 0.96688 0.0
C2296 C 0.63125 0.09174 0.98856 0.0
C2297 C 0.64586 0.09823 0.00597 0.0
C2298 C 0.66427 0.11233 0.00198 0.0
H2299 H 0.73067 0.10837 0.95129 0.0
H2300 H 0.71357 0.09821 0.97407 0.0
H2301 H 0.70033 0.10316 0.9478 0.0
H2302 H 0.65759 0.11903 0.94631 0.0
H2303 H 0.62527 0.09428 0.95314 0.0
H2304 H 0.49605 0.70169 0.77637 0.0
H2305 H 0.4934 0.67139 0.80314 0.0
H2306 H 0.54634 0.70133 0.84286 0.0
H2307 H 0.54894 0.73161 0.81638 0.0
H2308 H 0.52601 0.6407 0.82185 0.0
H2309 H 0.49053 0.69845 0.88466 0.0
H2310 H 0.49275 0.70548 0.85569 0.0
H2311 H 0.51767 0.70678 0.87332 0.0
C2312 C 0.50738 0.70158 0.79063 0.0
C2313 C 0.52246 0.71917 0.79447 0.0
C2314 C 0.50582 0.68431 0.80591 0.0
C2315 C 0.51935 0.68436 0.8252 0.0
C2316 C 0.53539 0.70121 0.82833 0.0
H2317 H 0.52637 0.61166 0.94754 0.0
H2318 H 0.53454 0.63406 0.91493 0.0
C2319 C 0.53685 0.71849 0.8132 0.0
C2320 C 0.51576 0.66772 0.84282 0.0
H2321 H 0.5002 0.66268 0.89715 0.0
C2322 C 0.52026 0.64544 0.83829 0.0
C2323 C 0.5081 0.67394 0.86421 0.0
C2324 C 0.50176 0.69742 0.86977 0.0
C2325 C 0.51794 0.62931 0.85486 0.0
C2326 C 0.51072 0.63568 0.87633 0.0
C2327 C 0.50594 0.65789 0.88071 0.0
C2328 C 0.50781 0.61975 0.8947 0.0
C2329 C 0.52371 0.60569 0.8495 0.0
C2330 C 0.49031 0.60396 0.894 0.0
C2331 C 0.4855 0.59116 0.91269 0.0
C2332 C 0.49805 0.59403 0.93243 0.0
C2333 C 0.51625 0.60914 0.93269 0.0
C2334 C 0.52099 0.62194 0.91405 0.0
H2335 H 0.53351 0.60415 0.83375 0.0
H2336 H 0.53394 0.59813 0.86308 0.0
H2337 H 0.50753 0.59625 0.84781 0.0
H2338 H 0.47971 0.60221 0.87934 0.0
H2339 H 0.47141 0.57963 0.91192 0.0
H2340 H 0.3577 0.53241 0.78256 0.0
H2341 H 0.37999 0.52484 0.81632 0.0
H2342 H 0.34477 0.57803 0.84978 0.0
H2343 H 0.32228 0.58542 0.81601 0.0
H2344 H 0.40946 0.55381 0.83995 0.0
H2345 H 0.33625 0.52514 0.89158 0.0
H2346 H 0.33443 0.52738 0.86179 0.0
H2347 H 0.3324 0.55157 0.8788 0.0
C2348 C 0.3547 0.54235 0.79722 0.0
C2349 C 0.33834 0.55935 0.797 0.0
C2350 C 0.36744 0.53809 0.8164 0.0
C2351 C 0.36387 0.55074 0.83558 0.0
C2352 C 0.34753 0.56787 0.83525 0.0
H2353 H 0.4209 0.53765 0.96835 0.0
H2354 H 0.40166 0.55165 0.93521 0.0
C2355 C 0.33477 0.57212 0.81604 0.0
C2356 C 0.37736 0.54596 0.85585 0.0
H2357 H 0.37239 0.52775 0.90909 0.0
C2358 C 0.40139 0.54815 0.8551 0.0
C2359 C 0.36674 0.53866 0.87557 0.0
C2360 C 0.34106 0.53535 0.87706 0.0
C2361 C 0.41512 0.54325 0.87363 0.0
C2362 C 0.40452 0.53555 0.89322 0.0
C2363 C 0.38046 0.5337 0.89405 0.0
C2364 C 0.418 0.52851 0.91284 0.0
C2365 C 0.44079 0.54656 0.87211 0.0
C2366 C 0.4337 0.51094 0.91125 0.0
C2367 C 0.44487 0.503 0.93016 0.0
C2368 C 0.44037 0.51238 0.95105 0.0
C2369 C 0.42493 0.53021 0.95251 0.0
C2370 C 0.41384 0.53818 0.93359 0.0
H2371 H 0.44528 0.55855 0.85895 0.0
H2372 H 0.44793 0.55241 0.88812 0.0
H2373 H 0.44921 0.53066 0.86793 0.0
H2374 H 0.43681 0.50292 0.89548 0.0
H2375 H 0.45661 0.4892 0.92846 0.0
H2376 H 0.45372 0.32507 0.78146 0.0
H2377 H 0.46221 0.35077 0.81182 0.0
H2378 H 0.49722 0.29884 0.84722 0.0
H2379 H 0.48894 0.27324 0.81672 0.0
H2380 H 0.45072 0.34915 0.85695 0.0
H2381 H 0.5454 0.3478 0.8447 0.0
H2382 H 0.5256 0.3372 0.82431 0.0
H2383 H 0.53292 0.32112 0.8483 0.0
C2384 C 0.46315 0.31922 0.7958 0.0
C2385 C 0.47077 0.29735 0.79692 0.0
C2386 C 0.46798 0.33385 0.81309 0.0
C2387 C 0.48064 0.32681 0.83164 0.0
C2388 C 0.48781 0.30473 0.83289 0.0
H2389 H 0.49725 0.3895 0.95962 0.0
H2390 H 0.48539 0.36672 0.9283 0.0
C2391 C 0.48297 0.29011 0.81559 0.0
C2392 C 0.48638 0.34258 0.84961 0.0
H2393 H 0.53153 0.36587 0.87702 0.0
C2394 C 0.46838 0.35286 0.86131 0.0
C2395 C 0.50943 0.34768 0.85504 0.0
C2396 C 0.52948 0.33806 0.84232 0.0
C2397 C 0.47283 0.36772 0.87864 0.0
C2398 C 0.49589 0.3722 0.88458 0.0
C2399 C 0.51387 0.3623 0.87255 0.0
C2400 C 0.50181 0.38685 0.90343 0.0
C2401 C 0.45283 0.37868 0.89027 0.0
C2402 C 0.51513 0.4057 0.89991 0.0
C2403 C 0.52201 0.41877 0.91781 0.0
C2404 C 0.51588 0.4131 0.93964 0.0
C2405 C 0.50223 0.39439 0.94305 0.0
C2406 C 0.49531 0.38139 0.92514 0.0
H2407 H 0.4369 0.37812 0.88011 0.0
H2408 H 0.44942 0.36999 0.90609 0.0
H2409 H 0.45674 0.3961 0.89419 0.0
H2410 H 0.52042 0.41018 0.8833 0.0
H2411 H 0.53254 0.43303 0.91456 0.0
H2412 H 0.66651 0.53855 0.77501 0.0
H2413 H 0.62813 0.5411 0.79189 0.0
H2414 H 0.64512 0.48715 0.83531 0.0
H2415 H 0.68323 0.48428 0.81831 0.0
H2416 H 0.59684 0.48893 0.81992 0.0
H2417 H 0.62956 0.56727 0.85585 0.0
H2418 H 0.62981 0.56446 0.82618 0.0
H2419 H 0.64849 0.54757 0.84273 0.0
C2420 C 0.66175 0.52679 0.78765 0.0
C2421 C 0.67793 0.51144 0.79563 0.0
C2422 C 0.6399 0.52833 0.79733 0.0
C2423 C 0.63398 0.51453 0.81505 0.0
C2424 C 0.64939 0.49798 0.82169 0.0
H2425 H 0.55717 0.49611 0.92976 0.0
H2426 H 0.57394 0.49181 0.89305 0.0
C2427 C 0.67119 0.49646 0.81208 0.0
C2428 C 0.61351 0.51915 0.82894 0.0
H2429 H 0.59536 0.55358 0.87007 0.0
C2430 C 0.59618 0.50328 0.83061 0.0
C2431 C 0.61269 0.53792 0.84278 0.0
C2432 C 0.63113 0.55529 0.84201 0.0
C2433 C 0.57851 0.50527 0.84643 0.0
C2434 C 0.57861 0.52329 0.86132 0.0
C2435 C 0.59519 0.53977 0.85868 0.0
C2436 C 0.56392 0.5242 0.88148 0.0
C2437 C 0.5602 0.48783 0.84725 0.0
C2438 C 0.55243 0.54377 0.88733 0.0
C2439 C 0.54332 0.54648 0.90862 0.0
C2440 C 0.5454 0.52959 0.9244 0.0
C2441 C 0.55525 0.50942 0.91798 0.0
C2442 C 0.56467 0.50685 0.89682 0.0
H2443 H 0.55682 0.48113 0.83043 0.0
H2444 H 0.56631 0.474 0.85773 0.0
H2445 H 0.54382 0.4943 0.85423 0.0
H2446 H 0.55164 0.55741 0.87582 0.0
H2447 H 0.53564 0.56216 0.91303 0.0
H2448 H 0.48708 0.32531 0.2375 0.0
H2449 H 0.48473 0.35841 0.21424 0.0
H2450 H 0.5288 0.32745 0.16574 0.0
H2451 H 0.53162 0.29473 0.18887 0.0
H2452 H 0.52132 0.38581 0.19684 0.0
H2453 H 0.47066 0.3463 0.13022 0.0
H2454 H 0.47297 0.33491 0.15779 0.0
H2455 H 0.49575 0.33074 0.138 0.0
C2456 C 0.49643 0.32565 0.22198 0.0
C2457 C 0.50925 0.3072 0.21492 0.0
C2458 C 0.49497 0.34452 0.20866 0.0
C2459 C 0.50617 0.34518 0.18804 0.0
C2460 C 0.51953 0.32709 0.18133 0.0
H2461 H 0.56053 0.43727 0.09992 0.0
H2462 H 0.55041 0.41409 0.13115 0.0
C2463 C 0.52108 0.30836 0.19458 0.0
C2464 C 0.50437 0.3647 0.17338 0.0
H2465 H 0.49049 0.37937 0.12041 0.0
C2466 C 0.5142 0.38457 0.18026 0.0
C2467 C 0.49469 0.36322 0.15192 0.0
C2468 C 0.4827 0.34271 0.14408 0.0
C2469 C 0.51604 0.4025 0.16567 0.0
C2470 C 0.50808 0.40035 0.14358 0.0
C2471 C 0.49678 0.38101 0.13726 0.0
C2472 C 0.51361 0.41673 0.12613 0.0
C2473 C 0.52696 0.42339 0.17393 0.0
C2474 C 0.4963 0.42596 0.11267 0.0
C2475 C 0.50209 0.43926 0.09453 0.0
C2476 C 0.52529 0.44317 0.08933 0.0
C2477 C 0.54247 0.43447 0.1033 0.0
C2478 C 0.5367 0.42137 0.12139 0.0
H2479 H 0.5244 0.4254 0.19208 0.0
H2480 H 0.54578 0.42263 0.17081 0.0
H2481 H 0.51982 0.43805 0.16535 0.0
H2482 H 0.47835 0.42249 0.11593 0.0
H2483 H 0.48849 0.44582 0.08421 0.0
H2484 H 0.72832 0.45668 0.193 0.0
H2485 H 0.69783 0.45221 0.16537 0.0
H2486 H 0.656 0.49999 0.19992 0.0
H2487 H 0.68639 0.50457 0.22762 0.0
H2488 H 0.63106 0.46222 0.18257 0.0
H2489 H 0.68755 0.50246 0.12025 0.0
H2490 H 0.69945 0.47871 0.13383 0.0
H2491 H 0.69364 0.50321 0.14955 0.0
C2492 C 0.71256 0.46613 0.19478 0.0
C2493 C 0.70986 0.48119 0.21232 0.0
C2494 C 0.69515 0.46349 0.17905 0.0
C2495 C 0.67482 0.47597 0.18049 0.0
C2496 C 0.67157 0.49018 0.19857 0.0
H2497 H 0.56194 0.51915 0.10304 0.0
H2498 H 0.58612 0.50486 0.13294 0.0
C2499 C 0.68894 0.49277 0.21437 0.0
C2500 C 0.65787 0.47579 0.16217 0.0
H2501 H 0.65079 0.49211 0.10854 0.0
C2502 C 0.63537 0.46856 0.1663 0.0
C2503 C 0.6636 0.48403 0.14097 0.0
C2504 C 0.6873 0.49272 0.13581 0.0
C2505 C 0.61832 0.46964 0.14978 0.0
C2506 C 0.6239 0.47857 0.12884 0.0
C2507 C 0.64658 0.48513 0.12457 0.0
C2508 C 0.6063 0.48341 0.11173 0.0
C2509 C 0.5945 0.46131 0.15491 0.0
C2510 C 0.60944 0.476 0.08987 0.0
C2511 C 0.59581 0.48439 0.07274 0.0
C2512 C 0.57877 0.50022 0.07718 0.0
C2513 C 0.57485 0.50679 0.0992 0.0
C2514 C 0.5885 0.49846 0.11633 0.0
H2515 H 0.59494 0.44866 0.16817 0.0
H2516 H 0.58366 0.47519 0.16087 0.0
H2517 H 0.58623 0.45419 0.13996 0.0
H2518 H 0.62331 0.46467 0.08588 0.0
H2519 H 0.59975 0.47973 0.0559 0.0
H2520 H 0.53906 0.73012 0.19393 0.0
H2521 H 0.53509 0.70267 0.16421 0.0
H2522 H 0.57894 0.65798 0.20053 0.0
H2523 H 0.58272 0.68536 0.23029 0.0
H2524 H 0.56887 0.67988 0.13746 0.0
H2525 H 0.51868 0.62344 0.19118 0.0
H2526 H 0.5236 0.65179 0.19848 0.0
H2527 H 0.54616 0.63175 0.20185 0.0
C2528 C 0.54796 0.71449 0.19539 0.0
C2529 C 0.56111 0.70968 0.21427 0.0
C2530 C 0.54575 0.69886 0.17844 0.0
C2531 C 0.55653 0.67819 0.18025 0.0
C2532 C 0.57024 0.6737 0.19891 0.0
H2533 H 0.55093 0.57887 0.07197 0.0
H2534 H 0.56684 0.60325 0.10066 0.0
C2535 C 0.57245 0.68933 0.21583 0.0
C2536 C 0.5525 0.66104 0.16311 0.0
H2537 H 0.52601 0.61176 0.15469 0.0
C2538 C 0.55972 0.66486 0.14123 0.0
C2539 C 0.54045 0.64152 0.16808 0.0
C2540 C 0.53158 0.63684 0.19111 0.0
C2541 C 0.55481 0.64986 0.1241 0.0
C2542 C 0.54245 0.63052 0.12904 0.0
C2543 C 0.53572 0.62649 0.15101 0.0
C2544 C 0.53366 0.61573 0.11139 0.0
C2545 C 0.56192 0.65523 0.10068 0.0
C2546 C 0.50986 0.61445 0.10811 0.0
C2547 C 0.50085 0.60084 0.09174 0.0
C2548 C 0.5154 0.58798 0.07816 0.0
C2549 C 0.53931 0.58892 0.08169 0.0
C2550 C 0.54839 0.6028 0.09813 0.0
H2551 H 0.56885 0.67214 0.0992 0.0
H2552 H 0.57542 0.64344 0.09519 0.0
H2553 H 0.54704 0.65356 0.08926 0.0
H2554 H 0.49815 0.62415 0.1182 0.0
H2555 H 0.48232 0.60043 0.08981 0.0
H2556 H 0.34089 0.62319 0.19575 0.0
H2557 H 0.3759 0.61511 0.17464 0.0
H2558 H 0.39073 0.56052 0.21792 0.0
H2559 H 0.35556 0.56843 0.23904 0.0
H2560 H 0.4271 0.60353 0.18327 0.0
H2561 H 0.36938 0.53633 0.15467 0.0
H2562 H 0.35862 0.55998 0.16955 0.0
H2563 H 0.37399 0.53874 0.18405 0.0
C2564 C 0.35209 0.60998 0.20126 0.0
C2565 C 0.34541 0.59623 0.2188 0.0
C2566 C 0.37213 0.60547 0.18927 0.0
C2567 C 0.38571 0.58711 0.19463 0.0
C2568 C 0.38043 0.57478 0.2136 0.0
H2569 H 0.48734 0.52024 0.1121 0.0
H2570 H 0.47052 0.54059 0.14341 0.0
C2571 C 0.36038 0.57934 0.22567 0.0
C2572 C 0.40188 0.5783 0.17785 0.0
H2573 H 0.40525 0.5392 0.13739 0.0
C2574 C 0.42255 0.58932 0.17339 0.0
C2575 C 0.39557 0.56001 0.16475 0.0
C2576 C 0.37314 0.54809 0.16828 0.0
C2577 C 0.43711 0.58238 0.15602 0.0
C2578 C 0.43058 0.56422 0.1429 0.0
C2579 C 0.41009 0.55315 0.14756 0.0
C2580 C 0.44416 0.55647 0.12371 0.0
C2581 C 0.45898 0.5947 0.15126 0.0
C2582 C 0.43512 0.55905 0.10231 0.0
C2583 C 0.44457 0.54739 0.08454 0.0
C2584 C 0.4632 0.53302 0.08786 0.0
C2585 C 0.47303 0.53136 0.10909 0.0
C2586 C 0.46358 0.54306 0.12692 0.0
H2587 H 0.46095 0.60934 0.1621 0.0
H2588 H 0.47402 0.58363 0.15378 0.0
H2589 H 0.45922 0.60005 0.13367 0.0
H2590 H 0.41984 0.569 0.09963 0.0
H2591 H 0.43617 0.54831 0.06861 0.0
H2592 H 0.77922 0.55314 0.70647 0.0
H2593 H 0.81827 0.55415 0.69074 0.0
H2594 H 0.8336 0.49154 0.72103 0.0
H2595 H 0.7945 0.49052 0.73666 0.0
H2596 H 0.86374 0.55033 0.71205 0.0
H2597 H 0.84426 0.48235 0.6533 0.0
H2598 H 0.82198 0.49755 0.66761 0.0
H2599 H 0.83843 0.477 0.68205 0.0
C2600 C 0.79106 0.53973 0.70983 0.0
C2601 C 0.78408 0.52169 0.72252 0.0
C2602 C 0.8133 0.54033 0.70096 0.0
C2603 C 0.82871 0.52283 0.70458 0.0
C2604 C 0.82187 0.50509 0.71787 0.0
H2605 H 0.95502 0.49034 0.6349 0.0
H2606 H 0.92545 0.49145 0.66366 0.0
C2607 C 0.79964 0.50452 0.72677 0.0
C2608 C 0.85143 0.5226 0.69341 0.0
H2609 H 0.88168 0.49655 0.65256 0.0
C2610 C 0.86778 0.53852 0.69912 0.0
C2611 C 0.85661 0.50715 0.67659 0.0
C2612 C 0.8394 0.49011 0.66932 0.0
C2613 C 0.88928 0.53938 0.6884 0.0
C2614 C 0.89427 0.5242 0.67123 0.0
C2615 C 0.87797 0.5081 0.66582 0.0
C2616 C 0.91553 0.52526 0.65757 0.0
C2617 C 0.90644 0.5564 0.69571 0.0
C2618 C 0.92055 0.54419 0.64521 0.0
C2619 C 0.9377 0.54369 0.62892 0.0
C2620 C 0.94982 0.52409 0.62438 0.0
C2621 C 0.9459 0.50565 0.63787 0.0
C2622 C 0.92896 0.50625 0.6543 0.0
H2623 H 0.9035 0.56138 0.71322 0.0
H2624 H 0.92439 0.55023 0.69401 0.0
H2625 H 0.90445 0.57127 0.68525 0.0
H2626 H 0.91018 0.55893 0.64706 0.0
H2627 H 0.94018 0.55816 0.61877 0.0
H2628 H 0.49463 0.806 0.70447 0.0
H2629 H 0.4974 0.83849 0.68043 0.0
H2630 H 0.55891 0.81148 0.65055 0.0
H2631 H 0.55586 0.77888 0.67433 0.0
H2632 H 0.53258 0.86831 0.67821 0.0
H2633 H 0.52096 0.82822 0.59644 0.0
H2634 H 0.5142 0.81465 0.62221 0.0
H2635 H 0.54352 0.81607 0.61274 0.0
C2636 C 0.50855 0.807 0.69255 0.0
C2637 C 0.52493 0.79007 0.69094 0.0
C2638 C 0.51016 0.8255 0.6789 0.0
C2639 C 0.52813 0.82725 0.66341 0.0
C2640 C 0.54458 0.81026 0.66196 0.0
H2641 H 0.58011 0.92797 0.57631 0.0
H2642 H 0.57247 0.89444 0.59733 0.0
C2643 C 0.54294 0.79175 0.6756 0.0
C2644 C 0.53033 0.8473 0.64957 0.0
H2645 H 0.5342 0.86524 0.59603 0.0
C2646 C 0.53272 0.86767 0.66024 0.0
C2647 C 0.53054 0.84643 0.62611 0.0
C2648 C 0.52694 0.8252 0.61367 0.0
C2649 C 0.53593 0.88711 0.64814 0.0
C2650 C 0.53644 0.8862 0.62471 0.0
C2651 C 0.53383 0.86587 0.614 0.0
C2652 C 0.54025 0.90613 0.61108 0.0
C2653 C 0.53946 0.90838 0.66055 0.0
C2654 C 0.52438 0.92362 0.61143 0.0
C2655 C 0.52868 0.94282 0.59944 0.0
C2656 C 0.54893 0.94486 0.58682 0.0
C2657 C 0.56442 0.92701 0.58595 0.0
C2658 C 0.56008 0.90781 0.59793 0.0
H2659 H 0.54375 0.90553 0.67826 0.0
H2660 H 0.55345 0.91813 0.65287 0.0
H2661 H 0.52339 0.91831 0.65985 0.0
H2662 H 0.50875 0.92248 0.62115 0.0
H2663 H 0.51629 0.95618 0.60033 0.0
H2664 H 0.26922 0.58645 0.69089 0.0
H2665 H 0.25226 0.58506 0.65355 0.0
H2666 H 0.21906 0.52405 0.66997 0.0
H2667 H 0.23583 0.52534 0.70715 0.0
H2668 H 0.24374 0.53158 0.62217 0.0
H2669 H 0.17658 0.59096 0.65128 0.0
H2670 H 0.20653 0.59541 0.65762 0.0
H2671 H 0.19144 0.57338 0.67075 0.0
C2672 C 0.25869 0.57254 0.68631 0.0
C2673 C 0.25361 0.55611 0.7019 0.0
C2674 C 0.24905 0.57178 0.66506 0.0
C2675 C 0.23448 0.55446 0.65915 0.0
C2676 C 0.23036 0.53749 0.67429 0.0
H2677 H 0.14059 0.49944 0.57172 0.0
H2678 H 0.17506 0.50837 0.59262 0.0
C2679 C 0.23979 0.53833 0.69552 0.0
C2680 C 0.22132 0.55496 0.63826 0.0
H2681 H 0.16983 0.57262 0.61786 0.0
C2682 C 0.2278 0.54088 0.6209 0.0
C2683 C 0.20073 0.56728 0.63669 0.0
C2684 C 0.19322 0.58266 0.655 0.0
C2685 C 0.21353 0.53803 0.60234 0.0
C2686 C 0.19198 0.54901 0.6016 0.0
C2687 C 0.1863 0.56414 0.61838 0.0
C2688 C 0.17381 0.54323 0.58537 0.0
C2689 C 0.22154 0.52298 0.58397 0.0
C2690 C 0.16151 0.5598 0.57422 0.0
C2691 C 0.14142 0.55478 0.56259 0.0
C2692 C 0.13327 0.53307 0.56187 0.0
C2693 C 0.14641 0.51632 0.57186 0.0
C2694 C 0.16633 0.52139 0.58367 0.0
H2695 H 0.24059 0.52331 0.58237 0.0
H2696 H 0.2166 0.50585 0.58797 0.0
H2697 H 0.21379 0.52758 0.56779 0.0
H2698 H 0.16685 0.57679 0.5754 0.0
H2699 H 0.13177 0.56805 0.55499 0.0
H2700 H 0.49521 0.17548 0.73499 0.0
H2701 H 0.50044 0.15356 0.70148 0.0
H2702 H 0.45174 0.19485 0.66691 0.0
H2703 H 0.44619 0.21691 0.70067 0.0
H2704 H 0.46656 0.13012 0.6774 0.0
H2705 H 0.50914 0.19419 0.62619 0.0
H2706 H 0.50638 0.19664 0.65591 0.0
H2707 H 0.48185 0.20131 0.63844 0.0
C2708 C 0.48543 0.17986 0.72034 0.0
C2709 C 0.47015 0.19789 0.72058 0.0
C2710 C 0.48852 0.16734 0.70116 0.0
C2711 C 0.47656 0.1726 0.68168 0.0
C2712 C 0.46136 0.19066 0.6817 0.0
H2713 H 0.48746 0.07629 0.57137 0.0
H2714 H 0.46972 0.10183 0.5979 0.0
C2715 C 0.45824 0.20326 0.70098 0.0
C2716 C 0.4802 0.15891 0.66157 0.0
H2717 H 0.50548 0.15906 0.61045 0.0
C2718 C 0.4748 0.13647 0.66261 0.0
C2719 C 0.49096 0.16727 0.64234 0.0
C2720 C 0.49761 0.19113 0.64054 0.0
C2721 C 0.4807 0.12198 0.64533 0.0
C2722 C 0.49208 0.1302 0.62636 0.0
C2723 C 0.49664 0.15281 0.62495 0.0
C2724 C 0.50204 0.11531 0.60925 0.0
C2725 C 0.47564 0.09786 0.64796 0.0
C2726 C 0.52596 0.11473 0.60639 0.0
C2727 C 0.53604 0.10022 0.59129 0.0
C2728 C 0.52249 0.08582 0.57857 0.0
C2729 C 0.49844 0.08675 0.58108 0.0
C2730 C 0.48828 0.1014 0.59626 0.0
H2731 H 0.47035 0.09366 0.66514 0.0
H2732 H 0.46139 0.09345 0.63662 0.0
H2733 H 0.4909 0.08771 0.64345 0.0
H2734 H 0.53696 0.12527 0.6162 0.0
H2735 H 0.55463 0.10014 0.58986 0.0
H2736 H 0.77202 0.53501 0.32157 0.0
H2737 H 0.8012 0.53828 0.35096 0.0
H2738 H 0.80627 0.46757 0.3545 0.0
H2739 H 0.77733 0.46437 0.32502 0.0
H2740 H 0.80072 0.52095 0.39494 0.0
H2741 H 0.87313 0.48737 0.34493 0.0
H2742 H 0.84647 0.49666 0.33263 0.0
H2743 H 0.84815 0.47015 0.34568 0.0
C2744 C 0.7795 0.52025 0.32866 0.0
C2745 C 0.77278 0.49946 0.32117 0.0
C2746 C 0.79603 0.5221 0.34541 0.0
C2747 C 0.80605 0.50317 0.35469 0.0
C2748 C 0.79901 0.48237 0.34729 0.0
H2749 H 0.91408 0.47729 0.44969 0.0
H2750 H 0.88052 0.47479 0.42549 0.0
C2751 C 0.78251 0.48054 0.33057 0.0
C2752 C 0.82394 0.50509 0.37205 0.0
H2753 H 0.88007 0.49265 0.38323 0.0
C2754 C 0.81811 0.51485 0.39241 0.0
C2755 C 0.84658 0.49714 0.36862 0.0
C2756 C 0.85409 0.48742 0.34673 0.0
C2757 C 0.83426 0.51644 0.40967 0.0
C2758 C 0.85685 0.50832 0.40627 0.0
C2759 C 0.86267 0.49869 0.38585 0.0
C2760 C 0.87504 0.50993 0.4234 0.0
C2761 C 0.8269 0.52637 0.43149 0.0
C2762 C 0.88279 0.53053 0.43063 0.0
C2763 C 0.90197 0.53204 0.44453 0.0
C2764 C 0.91389 0.51296 0.45125 0.0
C2765 C 0.90542 0.49232 0.44474 0.0
C2766 C 0.88623 0.49085 0.4309 0.0
H2767 H 0.80788 0.5264 0.43341 0.0
H2768 H 0.83467 0.5173 0.44563 0.0
H2769 H 0.83282 0.54365 0.4323 0.0
H2770 H 0.87465 0.54548 0.42474 0.0
H2771 H 0.90803 0.5482 0.44918 0.0
H2772 H 0.58405 0.83297 0.28082 0.0
H2773 H 0.57904 0.85774 0.3124 0.0
H2774 H 0.52669 0.81526 0.33893 0.0
H2775 H 0.53188 0.7902 0.30735 0.0
H2776 H 0.53875 0.87941 0.32067 0.0
H2777 H 0.5638 0.83011 0.39428 0.0
H2778 H 0.57148 0.82213 0.36637 0.0
H2779 H 0.54292 0.81726 0.37663 0.0
C2780 C 0.57177 0.8287 0.29361 0.0
C2781 C 0.55828 0.8097 0.29159 0.0
C2782 C 0.56893 0.84286 0.31165 0.0
C2783 C 0.55257 0.83836 0.32813 0.0
C2784 C 0.53974 0.81889 0.32668 0.0
H2785 H 0.49228 0.91922 0.4324 0.0
H2786 H 0.50326 0.88908 0.40753 0.0
C2787 C 0.54268 0.80459 0.30861 0.0
C2788 C 0.54742 0.8552 0.34536 0.0
H2789 H 0.54556 0.86459 0.40126 0.0
C2790 C 0.5404 0.87618 0.33829 0.0
C2791 C 0.54936 0.85095 0.36835 0.0
C2792 C 0.55749 0.82896 0.37693 0.0
C2793 C 0.53512 0.89295 0.35349 0.0
C2794 C 0.53726 0.88879 0.37646 0.0
C2795 C 0.54406 0.86777 0.38363 0.0
C2796 C 0.53217 0.90613 0.39314 0.0
C2797 C 0.52683 0.91487 0.34481 0.0
C2798 C 0.54522 0.92546 0.39379 0.0
C2799 C 0.53897 0.94275 0.40793 0.0
C2800 C 0.51958 0.94101 0.42178 0.0
C2801 C 0.50722 0.92118 0.42186 0.0
C2802 C 0.51349 0.9039 0.40769 0.0
H2803 H 0.52092 0.91375 0.32733 0.0
H2804 H 0.51248 0.92141 0.35509 0.0
H2805 H 0.54117 0.92681 0.34549 0.0
H2806 H 0.55995 0.92737 0.38296 0.0
H2807 H 0.54903 0.95767 0.40759 0.0
H2808 H 0.22488 0.60424 0.27252 0.0
H2809 H 0.18691 0.59791 0.28941 0.0
H2810 H 0.21912 0.55964 0.34113 0.0
H2811 H 0.25697 0.56612 0.32436 0.0
H2812 H 0.16381 0.55796 0.29931 0.0
H2813 H 0.18176 0.60655 0.37504 0.0
H2814 H 0.19926 0.60836 0.35038 0.0
H2815 H 0.20324 0.58594 0.36943 0.0
C2816 C 0.22372 0.59449 0.28749 0.0
C2817 C 0.24361 0.58575 0.29735 0.0
C2818 C 0.20211 0.59085 0.29707 0.0
C2819 C 0.20025 0.57859 0.3167 0.0
C2820 C 0.22021 0.56949 0.32622 0.0
H2821 H 0.09466 0.51024 0.38376 0.0
H2822 H 0.12247 0.52285 0.35649 0.0
C2823 C 0.24176 0.57311 0.31664 0.0
C2824 C 0.17756 0.57532 0.32743 0.0
H2825 H 0.14931 0.58276 0.37645 0.0
C2826 C 0.16047 0.5636 0.31608 0.0
C2827 C 0.17307 0.58307 0.34912 0.0
C2828 C 0.1902 0.59687 0.36165 0.0
C2829 C 0.13943 0.55846 0.32632 0.0
C2830 C 0.13558 0.56498 0.34855 0.0
C2831 C 0.15225 0.57764 0.35945 0.0
C2832 C 0.11543 0.55747 0.36162 0.0
C2833 C 0.12164 0.54596 0.31329 0.0
C2834 C 0.10181 0.57269 0.37337 0.0
C2835 C 0.08601 0.56551 0.38925 0.0
C2836 C 0.08362 0.54295 0.39376 0.0
C2837 C 0.09603 0.52773 0.38077 0.0
C2838 C 0.11189 0.53493 0.36499 0.0
H2839 H 0.12347 0.54897 0.29521 0.0
H2840 H 0.12411 0.52809 0.31615 0.0
H2841 H 0.1039 0.55056 0.31844 0.0
H2842 H 0.10425 0.59018 0.37105 0.0
H2843 H 0.07671 0.5777 0.39888 0.0
H2844 H 0.54385 0.24954 0.33865 0.0
H2845 H 0.5464 0.21929 0.36553 0.0
H2846 H 0.50201 0.18013 0.32418 0.0
H2847 H 0.49972 0.21031 0.29722 0.0
H2848 H 0.5111 0.20091 0.38889 0.0
H2849 H 0.55427 0.13717 0.33778 0.0
H2850 H 0.55351 0.16581 0.32995 0.0
H2851 H 0.52911 0.14851 0.32473 0.0
C2852 C 0.53489 0.23433 0.33527 0.0
C2853 C 0.52171 0.23203 0.31596 0.0
C2854 C 0.53633 0.2171 0.35059 0.0
C2855 C 0.52471 0.19728 0.34673 0.0
C2856 C 0.51158 0.19503 0.32728 0.0
H2857 H 0.47121 0.10126 0.43429 0.0
H2858 H 0.47985 0.13231 0.41043 0.0
C2859 C 0.51014 0.21228 0.31197 0.0
C2860 C 0.52506 0.17953 0.36368 0.0
H2861 H 0.53584 0.12471 0.37104 0.0
C2862 C 0.51678 0.18432 0.38504 0.0
C2863 C 0.53281 0.15794 0.35883 0.0
C2864 C 0.54315 0.15206 0.33665 0.0
C2865 C 0.51501 0.1679 0.4013 0.0
C2866 C 0.52143 0.14604 0.39601 0.0
C2867 C 0.53075 0.14144 0.37502 0.0
C2868 C 0.51675 0.12752 0.41136 0.0
C2869 C 0.50599 0.17404 0.42395 0.0
C2870 C 0.53465 0.1143 0.41974 0.0
C2871 C 0.52975 0.09638 0.43358 0.0
C2872 C 0.50685 0.09116 0.43888 0.0
C2873 C 0.48907 0.10466 0.43055 0.0
C2874 C 0.49397 0.12255 0.41695 0.0
H2875 H 0.50835 0.19182 0.42744 0.0
H2876 H 0.48729 0.17053 0.4247 0.0
H2877 H 0.51472 0.16436 0.43712 0.0
H2878 H 0.55238 0.11783 0.41558 0.0
H2879 H 0.54383 0.08657 0.43987 0.0
H2880 H 0.69073 0.78805 0.45579 0.0
H2881 H 0.6653 0.82018 0.46043 0.0
H2882 H 0.71139 0.84628 0.50985 0.0
H2883 H 0.73698 0.8143 0.50489 0.0
H2884 H 0.64268 0.836 0.49842 0.0
H2885 H 0.70492 0.89699 0.46583 0.0
H2886 H 0.70889 0.86776 0.46225 0.0
H2887 H 0.71545 0.8805 0.48837 0.0
C2888 C 0.69534 0.80073 0.46759 0.0
C2889 C 0.71567 0.799 0.47994 0.0
C2890 C 0.68085 0.81898 0.47028 0.0
C2891 C 0.68661 0.83574 0.48528 0.0
C2892 C 0.70683 0.83374 0.4979 0.0
H2893 H 0.6208 0.96258 0.51121 0.0
H2894 H 0.64426 0.92922 0.51474 0.0
C2895 C 0.72134 0.8155 0.49517 0.0
C2896 C 0.67147 0.85533 0.48754 0.0
H2897 H 0.66978 0.91089 0.47981 0.0
C2898 C 0.64859 0.85239 0.49439 0.0
C2899 C 0.67927 0.87669 0.48234 0.0
C2900 C 0.7034 0.88075 0.4741 0.0
C2901 C 0.63328 0.87027 0.49614 0.0
C2902 C 0.64098 0.89155 0.49058 0.0
C2903 C 0.66396 0.89454 0.48414 0.0
C2904 C 0.62528 0.91083 0.49016 0.0
C2905 C 0.60903 0.86626 0.50406 0.0
C2906 C 0.60671 0.91146 0.47531 0.0
C2907 C 0.59329 0.93049 0.47321 0.0
C2908 C 0.5983 0.94931 0.48585 0.0
C2909 C 0.61649 0.9484 0.50121 0.0
C2910 C 0.62993 0.92936 0.50325 0.0
H2911 H 0.60774 0.85062 0.51346 0.0
H2912 H 0.60287 0.87995 0.51477 0.0
H2913 H 0.59742 0.86515 0.48951 0.0
H2914 H 0.60307 0.89749 0.46476 0.0
H2915 H 0.57944 0.93064 0.4612 0.0
H2916 H 0.67924 0.25593 0.49777 0.0
H2917 H 0.65246 0.22517 0.50213 0.0
H2918 H 0.70657 0.18622 0.53183 0.0
H2919 H 0.73334 0.21713 0.52756 0.0
H2920 H 0.65962 0.18313 0.48289 0.0
H2921 H 0.65115 0.17818 0.57461 0.0
H2922 H 0.66163 0.20242 0.56068 0.0
H2923 H 0.68002 0.17882 0.56386 0.0
C2924 C 0.68525 0.24083 0.50541 0.0
C2925 C 0.70812 0.23867 0.5124 0.0
C2926 C 0.67002 0.22335 0.50793 0.0
C2927 C 0.67746 0.20356 0.51759 0.0
C2928 C 0.70037 0.20151 0.52476 0.0
H2929 H 0.61221 0.07558 0.52408 0.0
H2930 H 0.63711 0.10704 0.53204 0.0
C2931 C 0.71564 0.21902 0.52219 0.0
C2932 C 0.66166 0.1846 0.51847 0.0
H2933 H 0.63286 0.15034 0.55358 0.0
C2934 C 0.65371 0.176 0.49834 0.0
C2935 C 0.65423 0.17523 0.53868 0.0
C2936 C 0.66202 0.18417 0.56074 0.0
C2937 C 0.6385 0.15826 0.49781 0.0
C2938 C 0.63058 0.1492 0.51799 0.0
C2939 C 0.63882 0.1575 0.53818 0.0
C2940 C 0.61369 0.1311 0.51806 0.0
C2941 C 0.63127 0.14918 0.47558 0.0
C2942 C 0.59184 0.13442 0.50874 0.0
C2943 C 0.57767 0.11654 0.50426 0.0
C2944 C 0.58496 0.09511 0.50944 0.0
C2945 C 0.60596 0.09198 0.52055 0.0
C2946 C 0.62027 0.10991 0.52486 0.0
H2947 H 0.64321 0.15419 0.46213 0.0
H2948 H 0.6305 0.13095 0.47596 0.0
H2949 H 0.61386 0.15555 0.47141 0.0
H2950 H 0.58635 0.1507 0.50366 0.0
H2951 H 0.56156 0.11933 0.49564 0.0
H2952 H 0.80126 0.70668 0.45253 0.0
H2953 H 0.82524 0.67345 0.45588 0.0
H2954 H 0.87031 0.70741 0.50093 0.0
H2955 H 0.84633 0.74034 0.49819 0.0
H2956 H 0.89249 0.68253 0.46398 0.0
H2957 H 0.82954 0.63482 0.5141 0.0
H2958 H 0.81958 0.6477 0.48897 0.0
H2959 H 0.82803 0.66441 0.51204 0.0
C2960 C 0.81618 0.707 0.46328 0.0
C2961 C 0.82193 0.72622 0.47501 0.0
C2962 C 0.82989 0.68806 0.46508 0.0
C2963 C 0.84951 0.68806 0.47862 0.0
C2964 C 0.85532 0.70718 0.49025 0.0
H2965 H 0.93525 0.60101 0.54807 0.0
H2966 H 0.90859 0.62824 0.53319 0.0
C2967 C 0.84163 0.72602 0.48857 0.0
C2968 C 0.86393 0.66812 0.4813 0.0
H2969 H 0.86598 0.61892 0.50834 0.0
C2970 C 0.88663 0.66841 0.47333 0.0
C2971 C 0.85618 0.64987 0.49361 0.0
C2972 C 0.83205 0.64904 0.50283 0.0
C2973 C 0.90208 0.65118 0.47804 0.0
C2974 C 0.89453 0.6333 0.49101 0.0
C2975 C 0.8716 0.63265 0.49829 0.0
C2976 C 0.9108 0.61648 0.49943 0.0
C2977 C 0.92666 0.65269 0.47013 0.0
C2978 C 0.92088 0.6008 0.48531 0.0
C2979 C 0.9362 0.58505 0.49381 0.0
C2980 C 0.94171 0.58479 0.51651 0.0
C2981 C 0.93149 0.60063 0.53049 0.0
C2982 C 0.91618 0.61623 0.52204 0.0
H2983 H 0.93032 0.66871 0.46208 0.0
H2984 H 0.93868 0.65042 0.48427 0.0
H2985 H 0.93017 0.63937 0.45799 0.0
H2986 H 0.91674 0.60063 0.4678 0.0
H2987 H 0.94344 0.57305 0.48265 0.0
H2988 H 0.32157 0.80045 0.55534 0.0
H2989 H 0.35481 0.82483 0.55119 0.0
H2990 H 0.32058 0.85832 0.49742 0.0
H2991 H 0.28737 0.83421 0.50158 0.0
H2992 H 0.38426 0.83545 0.51487 0.0
H2993 H 0.3323 0.90729 0.54276 0.0
H2994 H 0.32261 0.87936 0.54595 0.0
H2995 H 0.32034 0.89285 0.51953 0.0
C2996 C 0.32131 0.81281 0.54245 0.0
C2997 C 0.30175 0.81567 0.52901 0.0
C2998 C 0.34026 0.82674 0.54011 0.0
C2999 C 0.33993 0.84365 0.5243 0.0
C3000 C 0.32096 0.8457 0.51006 0.0
H3001 H 0.4267 0.95646 0.49886 0.0
H3002 H 0.39897 0.92659 0.49531 0.0
C3003 C 0.30201 0.83192 0.51246 0.0
C3004 C 0.3588 0.85991 0.52339 0.0
H3005 H 0.36989 0.91456 0.52987 0.0
C3006 C 0.38118 0.85275 0.51817 0.0
C3007 C 0.3547 0.88245 0.52776 0.0
C3008 C 0.33125 0.89098 0.53452 0.0
C3009 C 0.39953 0.86765 0.51687 0.0
C3010 C 0.39537 0.89019 0.52119 0.0
C3011 C 0.37299 0.8973 0.52637 0.0
C3012 C 0.414 0.90673 0.52135 0.0
C3013 C 0.42312 0.85924 0.51057 0.0
C3014 C 0.43183 0.90533 0.53697 0.0
C3015 C 0.44769 0.92239 0.53907 0.0
C3016 C 0.44591 0.94125 0.52568 0.0
C3017 C 0.42854 0.94221 0.50947 0.0
C3018 C 0.41268 0.92515 0.50741 0.0
H3019 H 0.42223 0.84307 0.50204 0.0
H3020 H 0.43208 0.87107 0.4996 0.0
H3021 H 0.43359 0.85712 0.5258 0.0
H3022 H 0.43292 0.89148 0.54819 0.0
H3023 H 0.46084 0.92112 0.55174 0.0
H3024 H 0.25099 0.33109 0.49483 0.0
H3025 H 0.22035 0.35884 0.49159 0.0
H3026 H 0.16969 0.30741 0.488 0.0
H3027 H 0.20045 0.27961 0.49145 0.0
H3028 H 0.1892 0.36364 0.45645 0.0
H3029 H 0.14403 0.34905 0.53631 0.0
H3030 H 0.17278 0.33893 0.53091 0.0
H3031 H 0.1484 0.32522 0.51912 0.0
C3032 C 0.23327 0.3258 0.49351 0.0
C3033 C 0.2279 0.3034 0.49346 0.0
C3034 C 0.21582 0.3416 0.49163 0.0
C3035 C 0.19272 0.33521 0.48978 0.0
C3036 C 0.18735 0.31271 0.48979 0.0
H3037 H 0.08629 0.4282 0.44506 0.0
H3038 H 0.11024 0.39515 0.44913 0.0
C3039 C 0.20487 0.29687 0.49165 0.0
C3040 C 0.17451 0.35222 0.48706 0.0
H3041 H 0.1275 0.37534 0.51218 0.0
C3042 C 0.17562 0.36613 0.46856 0.0
C3043 C 0.15695 0.35552 0.50299 0.0
C3044 C 0.15545 0.34154 0.52357 0.0
C3045 C 0.1598 0.38343 0.46565 0.0
C3046 C 0.14214 0.38669 0.48151 0.0
C3047 C 0.14091 0.37266 0.49994 0.0
C3048 C 0.12583 0.40551 0.47998 0.0
C3049 C 0.16264 0.39855 0.44602 0.0
C3050 C 0.12591 0.42185 0.49642 0.0
C3051 C 0.1122 0.44067 0.49418 0.0
C3052 C 0.09812 0.44353 0.47543 0.0
C3053 C 0.09724 0.42665 0.45949 0.0
C3054 C 0.11094 0.40778 0.46177 0.0
H3055 H 0.17987 0.39674 0.43821 0.0
H3056 H 0.14947 0.39457 0.43334 0.0
H3057 H 0.16019 0.41598 0.45102 0.0
H3058 H 0.13718 0.42037 0.51065 0.0
H3059 H 0.11317 0.45327 0.50684 0.0
H3060 H 0.29685 0.17952 0.52115 0.0
H3061 H 0.33154 0.15694 0.51903 0.0
H3062 H 0.35896 0.19958 0.46859 0.0
H3063 H 0.32362 0.22195 0.46999 0.0
H3064 H 0.36458 0.1553 0.45832 0.0
H3065 H 0.39432 0.17187 0.5437 0.0
H3066 H 0.36522 0.16228 0.54333 0.0
H3067 H 0.37215 0.18812 0.5305 0.0
C3068 C 0.31017 0.1841 0.5095 0.0
C3069 C 0.30741 0.20252 0.49567 0.0
C3070 C 0.33013 0.17128 0.50849 0.0
C3071 C 0.34799 0.17674 0.49388 0.0
C3072 C 0.34542 0.19516 0.48008 0.0
H3073 H 0.47503 0.1045 0.51709 0.0
H3074 H 0.44925 0.1348 0.50711 0.0
C3075 C 0.32533 0.20802 0.48103 0.0
C3076 C 0.36902 0.1628 0.49296 0.0
H3077 H 0.40992 0.13965 0.52616 0.0
C3078 C 0.37477 0.1521 0.47304 0.0
C3079 C 0.38257 0.15895 0.51205 0.0
C3080 C 0.37841 0.1711 0.53353 0.0
C3081 C 0.39302 0.1368 0.47201 0.0
C3082 C 0.40546 0.13176 0.49155 0.0
C3083 C 0.40033 0.14328 0.51117 0.0
C3084 C 0.42314 0.11398 0.49266 0.0
C3085 C 0.39872 0.12621 0.45005 0.0
C3086 C 0.41758 0.09221 0.48698 0.0
C3087 C 0.43261 0.07489 0.49225 0.0
C3088 C 0.45314 0.07909 0.50368 0.0
C3089 C 0.45927 0.1009 0.50823 0.0
C3090 C 0.44453 0.1182 0.50258 0.0
H3091 H 0.3937 0.13703 0.43601 0.0
H3092 H 0.41737 0.12234 0.44868 0.0
H3093 H 0.38894 0.11069 0.44842 0.0
H3094 H 0.40098 0.08839 0.47986 0.0
H3095 H 0.42733 0.05815 0.48905 0.0
H3096 H 0.83129 0.30066 0.4593 0.0
H3097 H 0.85927 0.33043 0.46244 0.0
H3098 H 0.8276 0.35157 0.52354 0.0
H3099 H 0.79995 0.32156 0.52093 0.0
H3100 H 0.83998 0.38635 0.48947 0.0
H3101 H 0.9105 0.32852 0.5133 0.0
H3102 H 0.8936 0.32183 0.48923 0.0
H3103 H 0.88047 0.32152 0.51613 0.0
C3104 C 0.83025 0.31166 0.4734 0.0
C3105 C 0.81348 0.30862 0.48996 0.0
C3106 C 0.84618 0.32867 0.4751 0.0
C3107 C 0.84554 0.34299 0.4933 0.0
C3108 C 0.82828 0.34064 0.50936 0.0
H3109 H 0.94142 0.42735 0.55709 0.0
H3110 H 0.91519 0.39844 0.54521 0.0
C3111 C 0.81242 0.32356 0.50775 0.0
C3112 C 0.8635 0.35977 0.49629 0.0
H3113 H 0.91958 0.36609 0.51169 0.0
C3114 C 0.85746 0.38201 0.49412 0.0
C3115 C 0.88616 0.35389 0.50253 0.0
C3116 C 0.89321 0.33017 0.5056 0.0
C3117 C 0.87351 0.39864 0.49834 0.0
C3118 C 0.89616 0.39276 0.50473 0.0
C3119 C 0.90224 0.37049 0.50662 0.0
C3120 C 0.91326 0.40949 0.51118 0.0
C3121 C 0.8659 0.42235 0.49671 0.0
C3122 C 0.92131 0.42492 0.4958 0.0
C3123 C 0.9363 0.44152 0.50254 0.0
C3124 C 0.9435 0.44288 0.52477 0.0
C3125 C 0.93608 0.42685 0.53989 0.0
C3126 C 0.92113 0.4103 0.53314 0.0
H3127 H 0.84687 0.424 0.49576 0.0
H3128 H 0.87212 0.43189 0.5112 0.0
H3129 H 0.87335 0.42975 0.48153 0.0
H3130 H 0.91573 0.42431 0.47868 0.0
H3131 H 0.94182 0.45354 0.49045 0.0
H3132 H 0.23479 0.70369 0.50747 0.0
H3133 H 0.20522 0.6751 0.50627 0.0
H3134 H 0.18437 0.69201 0.57284 0.0
H3135 H 0.21391 0.72084 0.57392 0.0
H3136 H 0.20118 0.63866 0.53545 0.0
H3137 H 0.12339 0.69261 0.53759 0.0
H3138 H 0.15157 0.70296 0.53078 0.0
H3139 H 0.14442 0.69677 0.55903 0.0
C3140 C 0.22371 0.70137 0.52173 0.0
C3141 C 0.22633 0.71436 0.54072 0.0
C3142 C 0.20693 0.68504 0.52108 0.0
C3143 C 0.19248 0.68155 0.5394 0.0
C3144 C 0.1951 0.69465 0.55842 0.0
H3145 H 0.07515 0.59027 0.53826 0.0
H3146 H 0.1047 0.61502 0.55301 0.0
C3147 C 0.21194 0.71102 0.55906 0.0
C3148 C 0.17512 0.66382 0.53849 0.0
H3149 H 0.11734 0.65456 0.53498 0.0
C3150 C 0.18284 0.6421 0.53558 0.0
C3151 C 0.15121 0.66831 0.5389 0.0
C3152 C 0.14202 0.69141 0.5416 0.0
C3153 C 0.16731 0.62484 0.53229 0.0
C3154 C 0.14342 0.62948 0.53154 0.0
C3155 C 0.13565 0.65102 0.53558 0.0
C3156 C 0.12652 0.6129 0.52398 0.0
C3157 C 0.17681 0.60191 0.52914 0.0
C3158 C 0.12895 0.60351 0.50286 0.0
C3159 C 0.11226 0.58936 0.49459 0.0
C3160 C 0.09266 0.58427 0.5072 0.0
C3161 C 0.09032 0.59341 0.52847 0.0
C3162 C 0.10707 0.60772 0.53678 0.0
H3163 H 0.19269 0.59943 0.53911 0.0
H3164 H 0.16416 0.58917 0.53381 0.0
H3165 H 0.18147 0.59955 0.51145 0.0
H3166 H 0.14347 0.60766 0.49244 0.0
H3167 H 0.11452 0.58268 0.47806 0.0
loop_
_geom_bond_atom_site_label_1
_geom_bond_atom_site_label_2
_geom_bond_distance
_geom_bond_site_symmetry_2
_ccdc_geom_bond_type
H0 C3 0.929 . S
H1 C6 0.929 . S
H2 C8 0.930 . S
C3 H0 0.929 . S
C3 C4 1.398 . S
C3 C5 1.396 . S
C4 C3 1.398 . S
C4 C8 1.407 . S
C5 C3 1.396 . S
C5 C6 1.394 . S
C6 H1 0.929 . S
C6 C5 1.394 . S
C6 C7 1.382 . S
C7 C6 1.382 . S
C7 C8 1.392 . S
C7 N9 1.420 . S
C8 H2 0.930 . S
C8 C4 1.407 . S
C8 C7 1.392 . S
N9 C7 1.420 . S
N9 C10 1.244 . S
C10 N9 1.244 . S
H11 C14 0.929 . S
H12 C17 0.929 . S
H13 C19 0.930 . S
C14 H11 0.929 . S
C14 C15 1.398 . S
C14 C16 1.396 . S
C15 C14 1.398 . S
C15 C19 1.407 . S
C16 C14 1.396 . S
C16 C17 1.394 . S
C17 H12 0.929 . S
C17 C16 1.394 . S
C17 C18 1.382 . S
C18 C17 1.382 . S
C18 C19 1.392 . S
C18 N20 1.420 . S
C19 H13 0.930 . S
C19 C15 1.407 . S
C19 C18 1.392 . S
N20 C18 1.420 . S
N20 C21 1.244 . S
C21 N20 1.244 . S
H22 C25 0.929 . S
H23 C28 0.929 . S
H24 C30 0.930 . S
C25 H22 0.929 . S
C25 C26 1.398 . S
C25 C27 1.396 . S
C26 C25 1.398 . S
C26 C30 1.407 . S
C27 C25 1.396 . S
C27 C28 1.394 . S
C28 H23 0.929 . S
C28 C27 1.394 . S
C28 C29 1.382 . S
C29 C28 1.382 . S
C29 C30 1.392 . S
C29 N31 1.420 . S
C30 H24 0.930 . S
C30 C26 1.407 . S
C30 C29 1.392 . S
N31 C29 1.420 . S
N31 C32 1.244 . S
C32 N31 1.244 . S
H33 C36 0.929 . S
H34 C39 0.929 . S
H35 C41 0.930 . S
C36 H33 0.929 . S
C36 C37 1.398 . S
C36 C38 1.396 . S
C37 C36 1.398 . S
C37 C41 1.407 1_545 S
C38 C36 1.396 . S
C38 C39 1.394 1_545 S
C39 H34 0.929 . S
C39 C38 1.394 1_565 S
C39 C40 1.382 . S
C40 C39 1.382 . S
C40 C41 1.392 . S
C40 N42 1.420 . S
C41 H35 0.930 . S
C41 C37 1.407 1_565 S
C41 C40 1.392 . S
N42 C40 1.420 . S
N42 C43 1.244 1_565 S
C43 N42 1.244 1_545 S
H44 C47 0.935 . S
H45 C50 0.929 . S
H46 C52 0.930 . S
C47 H44 0.935 . S
C47 C48 1.395 1_655 S
C47 C49 1.394 1_655 S
C48 C47 1.395 1_455 S
C48 C52 1.407 . S
C49 C47 1.394 1_455 S
C49 C50 1.401 . S
C50 H45 0.929 . S
C50 C49 1.401 . S
C50 C51 1.382 . S
C51 C50 1.382 . S
C51 C52 1.392 . S
C51 N53 1.420 . S
C52 H46 0.930 . S
C52 C48 1.407 . S
C52 C51 1.392 . S
N53 C51 1.420 . S
N53 C54 1.244 1_455 S
C54 N53 1.244 1_655 S
H55 C58 0.929 . S
H56 C61 0.929 . S
H57 C63 0.930 . S
C58 H55 0.929 . S
C58 C59 1.398 . S
C58 C60 1.396 . S
C59 C58 1.398 . S
C59 C63 1.407 . S
C60 C58 1.396 . S
C60 C61 1.394 . S
C61 H56 0.929 . S
C61 C60 1.394 . S
C61 C62 1.382 . S
C62 C61 1.382 . S
C62 C63 1.392 . S
C62 N64 1.420 . S
C63 H57 0.930 . S
C63 C59 1.407 . S
C63 C62 1.392 . S
N64 C62 1.420 . S
N64 C65 1.244 . S
C65 N64 1.244 . S
H66 C69 0.929 . S
H67 C72 0.929 . S
H68 C74 0.930 . S
C69 H66 0.929 . S
C69 C70 1.398 . S
C69 C71 1.396 . S
C70 C69 1.398 . S
C70 C74 1.407 . S
C71 C69 1.396 . S
C71 C72 1.394 . S
C72 H67 0.929 . S
C72 C71 1.394 . S
C72 C73 1.382 . S
C73 C72 1.382 . S
C73 C74 1.392 . S
C73 N75 1.420 . S
C74 H68 0.930 . S
C74 C70 1.407 . S
C74 C73 1.392 . S
N75 C73 1.420 . S
N75 C76 1.244 . S
C76 N75 1.244 . S
H77 C80 0.929 . S
H78 C83 0.929 . S
H79 C85 0.930 . S
C80 H77 0.929 . S
C80 C81 1.398 . S
C80 C82 1.396 . S
C81 C80 1.398 . S
C81 C85 1.407 . S
C82 C80 1.396 . S
C82 C83 1.394 . S
C83 H78 0.929 . S
C83 C82 1.394 . S
C83 C84 1.382 . S
C84 C83 1.382 . S
C84 C85 1.392 . S
C84 N86 1.420 . S
C85 H79 0.930 . S
C85 C81 1.407 . S
C85 C84 1.392 . S
N86 C84 1.420 . S
N86 C87 1.244 . S
C87 N86 1.244 . S
H88 C91 0.929 . S
H89 C94 0.929 . S
H90 C96 0.930 . S
C91 H88 0.929 . S
C91 C92 1.398 . S
C91 C93 1.396 . S
C92 C91 1.398 . S
C92 C96 1.407 . S
C93 C91 1.396 . S
C93 C94 1.394 . S
C94 H89 0.929 . S
C94 C93 1.394 . S
C94 C95 1.382 . S
C95 C94 1.382 . S
C95 C96 1.392 . S
C95 N97 1.420 . S
C96 H90 0.930 . S
C96 C92 1.407 . S
C96 C95 1.392 . S
N97 C95 1.420 . S
N97 C98 1.244 . S
C98 N97 1.244 . S
H99 C102 0.929 . S
H100 C105 0.929 . S
H101 C107 0.930 . S
C102 H99 0.929 . S
C102 C103 1.398 . S
C102 C104 1.396 . S
C103 C102 1.398 . S
C103 C107 1.407 . S
C104 C102 1.396 . S
C104 C105 1.394 . S
C105 H100 0.929 . S
C105 C104 1.394 . S
C105 C106 1.382 . S
C106 C105 1.382 . S
C106 C107 1.392 . S
C106 N108 1.420 . S
C107 H101 0.930 . S
C107 C103 1.407 . S
C107 C106 1.392 . S
N108 C106 1.420 . S
N108 C109 1.244 . S
C109 N108 1.244 . S
H110 C113 0.929 . S
H111 C116 0.929 . S
H112 C118 0.930 . S
C113 H110 0.929 . S
C113 C114 1.395 1_554 S
C113 C115 1.396 1_554 S
C114 C113 1.395 1_556 S
C114 C118 1.414 . S
C115 C113 1.396 1_556 S
C115 C116 1.393 . S
C116 H111 0.929 . S
C116 C115 1.393 . S
C116 C117 1.382 . S
C117 C116 1.382 . S
C117 C118 1.392 . S
C117 N119 1.420 . S
C118 H112 0.930 . S
C118 C114 1.414 . S
C118 C117 1.392 . S
N119 C117 1.420 . S
N119 C120 1.244 1_556 S
C120 N119 1.244 1_554 S
H121 C124 0.936 . S
H122 C127 0.929 . S
H123 C129 0.930 . S
C124 H121 0.936 . S
C124 C125 1.395 1_556 S
C124 C126 1.393 1_556 S
C125 C124 1.395 1_554 S
C125 C129 1.407 . S
C126 C124 1.393 1_554 S
C126 C127 1.394 . S
C127 H122 0.929 . S
C127 C126 1.394 . S
C127 C128 1.382 . S
C128 C127 1.382 . S
C128 C129 1.392 . S
C128 N130 1.420 . S
C129 H123 0.930 . S
C129 C125 1.407 . S
C129 C128 1.392 . S
N130 C128 1.420 . S
N130 C131 1.244 . S
C131 N130 1.244 . S
H132 C135 0.929 . S
H133 C138 0.929 . S
H134 C140 0.930 . S
C135 H132 0.929 . S
C135 C136 1.398 . S
C135 C137 1.396 . S
C136 C135 1.398 . S
C136 C140 1.407 . S
C137 C135 1.396 . S
C137 C138 1.394 . S
C138 H133 0.929 . S
C138 C137 1.394 . S
C138 C139 1.382 . S
C139 C138 1.382 . S
C139 C140 1.392 . S
C139 N141 1.420 . S
C140 H134 0.930 . S
C140 C136 1.407 . S
C140 C139 1.392 . S
N141 C139 1.420 . S
N141 C142 1.244 . S
C142 N141 1.244 . S
H143 C146 0.929 . S
H144 C149 0.929 . S
H145 C151 0.930 . S
C146 H143 0.929 . S
C146 C147 1.398 . S
C146 C148 1.396 . S
C147 C146 1.398 . S
C147 C151 1.407 . S
C148 C146 1.396 . S
C148 C149 1.394 . S
C149 H144 0.929 . S
C149 C148 1.394 . S
C149 C150 1.382 . S
C150 C149 1.382 . S
C150 C151 1.392 . S
C150 N152 1.420 . S
C151 H145 0.930 . S
C151 C147 1.407 . S
C151 C150 1.392 . S
N152 C150 1.420 . S
N152 C153 1.244 . S
C153 N152 1.244 . S
H154 C157 0.929 . S
H155 C160 0.929 . S
H156 C162 0.930 . S
C157 H154 0.929 . S
C157 C158 1.398 . S
C157 C159 1.396 . S
C158 C157 1.398 . S
C158 C162 1.407 . S
C159 C157 1.396 . S
C159 C160 1.394 . S
C160 H155 0.929 . S
C160 C159 1.394 . S
C160 C161 1.382 . S
C161 C160 1.382 . S
C161 C162 1.392 . S
C161 N163 1.420 . S
C162 H156 0.930 . S
C162 C158 1.407 . S
C162 C161 1.392 . S
N163 C161 1.420 . S
N163 C164 1.244 . S
C164 N163 1.244 . S
H165 C168 0.929 . S
H166 C171 0.929 . S
H167 C173 0.930 . S
C168 H165 0.929 . S
C168 C169 1.398 . S
C168 C170 1.396 . S
C169 C168 1.398 . S
C169 C173 1.407 . S
C170 C168 1.396 . S
C170 C171 1.394 . S
C171 H166 0.929 . S
C171 C170 1.394 . S
C171 C172 1.382 . S
C172 C171 1.382 . S
C172 C173 1.392 . S
C172 N174 1.420 . S
C173 H167 0.930 . S
C173 C169 1.407 . S
C173 C172 1.392 . S
N174 C172 1.420 . S
N174 C175 1.244 . S
C175 N174 1.244 . S
H176 C179 0.929 . S
H177 C182 0.929 . S
H178 C184 0.930 . S
C179 H176 0.929 . S
C179 C180 1.398 . S
C179 C181 1.396 . S
C180 C179 1.398 . S
C180 C184 1.407 . S
C181 C179 1.396 . S
C181 C182 1.394 . S
C182 H177 0.929 . S
C182 C181 1.394 . S
C182 C183 1.382 . S
C183 C182 1.382 . S
C183 C184 1.392 . S
C183 N185 1.420 . S
C184 H178 0.930 . S
C184 C180 1.407 . S
C184 C183 1.392 . S
N185 C183 1.420 . S
N185 C186 1.244 . S
C186 N185 1.244 . S
H187 C190 0.929 . S
H188 C193 0.929 . S
H189 C195 0.930 . S
C190 H187 0.929 . S
C190 C191 1.398 . S
C190 C192 1.396 . S
C191 C190 1.398 . S
C191 C195 1.407 . S
C192 C190 1.396 . S
C192 C193 1.394 . S
C193 H188 0.929 . S
C193 C192 1.394 . S
C193 C194 1.382 . S
C194 C193 1.382 . S
C194 C195 1.392 . S
C194 N196 1.420 . S
C195 H189 0.930 . S
C195 C191 1.407 . S
C195 C194 1.392 . S
N196 C194 1.420 . S
N196 C197 1.244 . S
C197 N196 1.244 . S
H198 C201 0.929 . S
H199 C204 0.929 . S
H200 C206 0.930 . S
C201 H198 0.929 . S
C201 C202 1.398 . S
C201 C203 1.396 . S
C202 C201 1.398 . S
C202 C206 1.407 . S
C203 C201 1.396 . S
C203 C204 1.394 . S
C204 H199 0.929 . S
C204 C203 1.394 . S
C204 C205 1.382 . S
C205 C204 1.382 . S
C205 C206 1.392 . S
C205 N207 1.420 . S
C206 H200 0.930 . S
C206 C202 1.407 . S
C206 C205 1.392 . S
N207 C205 1.420 . S
N207 C208 1.244 . S
C208 N207 1.244 . S
H209 C212 0.929 . S
H210 C215 0.929 . S
H211 C217 0.930 . S
C212 H209 0.929 . S
C212 C213 1.398 . S
C212 C214 1.396 . S
C213 C212 1.398 . S
C213 C217 1.407 . S
C214 C212 1.396 . S
C214 C215 1.394 . S
C215 H210 0.929 . S
C215 C214 1.394 . S
C215 C216 1.382 . S
C216 C215 1.382 . S
C216 C217 1.392 . S
C216 N218 1.420 . S
C217 H211 0.930 . S
C217 C213 1.407 . S
C217 C216 1.392 . S
N218 C216 1.420 . S
N218 C219 1.244 . S
C219 N218 1.244 . S
H220 C223 0.929 . S
H221 C226 0.929 . S
H222 C228 0.930 . S
C223 H220 0.929 . S
C223 C224 1.398 . S
C223 C225 1.396 . S
C224 C223 1.398 . S
C224 C228 1.407 . S
C225 C223 1.396 . S
C225 C226 1.394 . S
C226 H221 0.929 . S
C226 C225 1.394 . S
C226 C227 1.382 . S
C227 C226 1.382 . S
C227 C228 1.392 . S
C227 N229 1.420 . S
C228 H222 0.930 . S
C228 C224 1.407 . S
C228 C227 1.392 . S
N229 C227 1.420 . S
N229 C230 1.244 . S
C230 N229 1.244 . S
H231 C234 0.929 . S
H232 C237 0.929 . S
H233 C239 0.930 . S
C234 H231 0.929 . S
C234 C235 1.398 . S
C234 C236 1.396 . S
C235 C234 1.398 . S
C235 C239 1.407 . S
C236 C234 1.396 . S
C236 C237 1.394 . S
C237 H232 0.929 . S
C237 C236 1.394 . S
C237 C238 1.382 . S
C238 C237 1.382 . S
C238 C239 1.392 . S
C238 N240 1.420 . S
C239 H233 0.930 . S
C239 C235 1.407 . S
C239 C238 1.392 . S
N240 C238 1.420 . S
N240 C241 1.244 . S
C241 N240 1.244 . S
H242 C245 0.929 . S
H243 C248 0.929 . S
H244 C250 0.930 . S
C245 H242 0.929 . S
C245 C246 1.398 . S
C245 C247 1.396 . S
C246 C245 1.398 . S
C246 C250 1.407 . S
C247 C245 1.396 . S
C247 C248 1.394 . S
C248 H243 0.929 . S
C248 C247 1.394 . S
C248 C249 1.382 . S
C249 C248 1.382 . S
C249 C250 1.392 . S
C249 N251 1.420 . S
C250 H244 0.930 . S
C250 C246 1.407 . S
C250 C249 1.392 . S
N251 C249 1.420 . S
N251 C252 1.244 . S
C252 N251 1.244 . S
H253 C256 0.929 . S
H254 C259 0.929 . S
H255 C261 0.930 . S
C256 H253 0.929 . S
C256 C257 1.398 . S
C256 C258 1.396 . S
C257 C256 1.398 . S
C257 C261 1.407 . S
C258 C256 1.396 . S
C258 C259 1.394 . S
C259 H254 0.929 . S
C259 C258 1.394 . S
C259 C260 1.382 . S
C260 C259 1.382 . S
C260 C261 1.392 . S
C260 N262 1.420 . S
C261 H255 0.930 . S
C261 C257 1.407 . S
C261 C260 1.392 . S
N262 C260 1.420 . S
N262 C263 1.244 . S
C263 N262 1.244 . S
Zn264 O266 1.933 1_565 S
Zn264 O284 1.985 1_465 S
Zn264 O295 1.955 . S
Zn265 O266 1.900 1_655 S
Zn265 O285 1.990 . S
Zn265 O301 1.934 1_655 S
Zn265 O308 1.995 . S
O266 Zn264 1.933 1_545 S
O266 Zn265 1.900 1_455 S
O266 H267 0.841 . S
H267 O266 0.841 . S
C268 O269 1.246 . S
C268 O297 1.276 . S
O269 C268 1.246 . S
Zn270 O272 1.911 . S
Zn270 O287 1.970 . S
Zn270 O304 1.945 . S
Zn270 O311 1.981 . S
Zn271 O272 1.933 1_565 S
Zn271 O286 1.990 . S
Zn271 O293 1.955 . S
O272 Zn270 1.911 . S
O272 Zn271 1.933 1_545 S
O272 H273 0.841 . S
H273 O272 0.841 . S
Zn274 O275 1.933 1_665 S
Zn274 O288 1.985 1_565 S
Zn274 O297 1.955 . S
O275 Zn274 1.933 1_445 S
O275 Zn276 1.911 1_455 S
O275 H277 0.841 . S
Zn276 O275 1.911 1_655 S
Zn276 O289 1.970 . S
Zn276 O305 1.981 1_655 S
Zn276 O307 1.945 . S
H277 O275 0.841 . S
Zn278 O279 1.933 1_565 S
Zn278 O291 1.995 . S
Zn278 O299 1.955 . S
O279 Zn278 1.933 1_545 S
O279 H280 0.841 . S
O279 Zn281 1.911 . S
H280 O279 0.841 . S
Zn281 O279 1.911 . S
Zn281 O292 1.970 . S
Zn281 O302 1.981 . S
Zn281 O310 1.945 . S
C282 O283 1.246 . S
C282 O299 1.276 . S
O283 C282 1.246 . S
O284 Zn264 1.985 1_645 S
O284 C294 1.245 . S
O285 Zn265 1.990 . S
O285 C294 1.263 . S
O286 Zn271 1.990 . S
O286 C298 1.222 1_565 S
O287 Zn270 1.970 . S
O287 C298 1.263 . S
O288 Zn274 1.985 1_545 S
O288 C303 1.245 . S
O289 Zn276 1.970 . S
O289 C303 1.263 . S
C290 O301 1.262 . S
C290 O302 1.245 . S
O291 Zn278 1.995 . S
O291 C309 1.201 1_565 S
O292 Zn281 1.970 . S
O292 C309 1.263 . S
O293 Zn271 1.955 . S
O293 C312 1.276 . S
C294 O284 1.245 . S
C294 O285 1.263 . S
O295 Zn264 1.955 . S
O295 C314 1.276 . S
C296 O304 1.262 . S
C296 O305 1.245 . S
O297 C268 1.276 . S
O297 Zn274 1.955 . S
C298 O286 1.222 1_545 S
C298 O287 1.263 . S
O299 Zn278 1.955 . S
O299 C282 1.276 . S
C300 O307 1.262 . S
C300 O308 1.245 . S
O301 Zn265 1.934 1_455 S
O301 C290 1.262 . S
O302 Zn281 1.981 . S
O302 C290 1.245 . S
C303 O288 1.245 . S
C303 O289 1.263 . S
O304 Zn270 1.945 . S
O304 C296 1.262 . S
O305 Zn276 1.981 1_455 S
O305 C296 1.245 . S
C306 O310 1.262 . S
C306 O311 1.245 . S
O307 Zn276 1.945 . S
O307 C300 1.262 . S
O308 Zn265 1.995 . S
O308 C300 1.245 . S
C309 O291 1.201 1_545 S
C309 O292 1.263 . S
O310 Zn281 1.945 . S
O310 C306 1.262 . S
O311 Zn270 1.981 . S
O311 C306 1.245 . S
C312 O293 1.276 . S
C312 O313 1.246 . S
O313 C312 1.246 . S
C314 O295 1.276 . S
C314 O315 1.246 . S
O315 C314 1.246 . S
Zn316 O318 1.933 . S
Zn316 O336 1.985 . S
Zn316 O347 1.955 . S
Zn317 O318 1.911 1_556 S
Zn317 O337 1.970 . S
Zn317 O353 1.945 . S
Zn317 O360 1.981 . S
O318 Zn316 1.933 . S
O318 Zn317 1.911 1_554 S
O318 H319 0.841 . S
H319 O318 0.841 . S
C320 O321 1.246 . S
C320 O349 1.276 . S
O321 C320 1.246 . S
Zn322 O324 1.911 1_566 S
Zn322 O339 1.970 . S
Zn322 O356 1.950 . S
Zn322 O363 1.981 . S
Zn323 O324 1.933 1_565 S
Zn323 O338 1.985 . S
Zn323 O345 1.955 1_565 S
O324 Zn322 1.911 1_544 S
O324 Zn323 1.933 1_545 S
O324 H325 0.841 . S
H325 O324 0.841 . S
Zn326 O327 1.933 . S
Zn326 O340 1.985 . S
Zn326 O349 1.955 . S
O327 Zn326 1.933 . S
O327 Zn328 1.911 1_554 S
O327 H329 0.841 . S
Zn328 O327 1.911 1_556 S
Zn328 O341 1.970 . S
Zn328 O357 1.981 . S
Zn328 O359 1.945 . S
H329 O327 0.841 . S
Zn330 O331 1.933 . S
Zn330 O343 1.985 . S
Zn330 O351 1.955 . S
O331 Zn330 1.933 . S
O331 H332 0.841 . S
O331 Zn333 1.911 1_554 S
H332 O331 0.841 . S
Zn333 O331 1.911 1_556 S
Zn333 O344 1.970 . S
Zn333 O354 1.981 1_565 S
Zn333 O362 1.945 . S
C334 O335 1.246 . S
C334 O351 1.276 . S
O335 C334 1.246 . S
O336 Zn316 1.985 . S
O336 C346 1.245 . S
O337 Zn317 1.970 . S
O337 C346 1.263 1_556 S
O338 Zn323 1.985 . S
O338 C350 1.245 . S
O339 Zn322 1.970 . S
O339 C350 1.263 1_556 S
O340 Zn326 1.985 . S
O340 C355 1.245 . S
O341 Zn328 1.970 . S
O341 C355 1.263 1_556 S
C342 O353 1.262 . S
C342 O354 1.245 . S
O343 Zn330 1.985 . S
O343 C361 1.245 . S
O344 Zn333 1.970 . S
O344 C361 1.263 1_556 S
O345 Zn323 1.955 1_545 S
O345 C364 1.276 . S
C346 O336 1.245 . S
C346 O337 1.263 1_554 S
O347 Zn316 1.955 . S
O347 C366 1.276 . S
C348 O356 1.247 1_545 S
C348 O357 1.245 . S
O349 C320 1.276 . S
O349 Zn326 1.955 . S
C350 O338 1.245 . S
C350 O339 1.263 1_554 S
O351 Zn330 1.955 . S
O351 C334 1.276 . S
C352 O359 1.262 . S
C352 O360 1.245 . S
O353 Zn317 1.945 . S
O353 C342 1.262 . S
O354 Zn333 1.981 1_545 S
O354 C342 1.245 . S
C355 O340 1.245 . S
C355 O341 1.263 1_554 S
O356 Zn322 1.950 . S
O356 C348 1.247 1_565 S
O357 Zn328 1.981 . S
O357 C348 1.245 . S
C358 O362 1.262 . S
C358 O363 1.245 . S
O359 Zn328 1.945 . S
O359 C352 1.262 . S
O360 Zn317 1.981 . S
O360 C352 1.245 . S
C361 O343 1.245 . S
C361 O344 1.263 1_554 S
O362 Zn333 1.945 . S
O362 C358 1.262 . S
O363 Zn322 1.981 . S
O363 C358 1.245 . S
C364 O345 1.276 . S
C364 O365 1.246 . S
O365 C364 1.246 . S
C366 O347 1.276 . S
C366 O367 1.246 . S
O367 C366 1.246 . S
Zn368 O370 1.933 . S
Zn368 O388 1.985 . S
Zn368 O399 1.955 . S
Zn369 O370 1.911 . S
Zn369 O389 1.970 . S
Zn369 O405 1.945 . S
Zn369 O412 1.981 . S
O370 Zn368 1.933 . S
O370 Zn369 1.911 . S
O370 H371 0.841 1_655 S
H371 O370 0.841 1_455 S
C372 O373 1.246 1_554 S
C372 O401 1.276 . S
O373 C372 1.246 1_556 S
Zn374 O376 1.911 . S
Zn374 O391 1.970 . S
Zn374 O408 1.945 . S
Zn374 O415 1.981 . S
Zn375 O376 1.933 . S
Zn375 O390 1.985 . S
Zn375 O397 1.955 . S
O376 Zn374 1.911 . S
O376 Zn375 1.933 . S
O376 H377 0.841 . S
H377 O376 0.841 . S
Zn378 O379 1.933 . S
Zn378 O392 1.985 . S
Zn378 O401 1.955 . S
O379 Zn378 1.933 . S
O379 Zn380 1.911 . S
O379 H381 0.841 . S
Zn380 O379 1.911 . S
Zn380 O393 1.970 . S
Zn380 O409 1.981 . S
Zn380 O411 1.945 . S
H381 O379 0.841 . S
Zn382 O383 1.933 . S
Zn382 O395 1.985 . S
Zn382 O403 1.955 . S
O383 Zn382 1.933 . S
O383 H384 0.841 . S
O383 Zn385 1.911 . S
H384 O383 0.841 . S
Zn385 O383 1.911 . S
Zn385 O396 1.970 . S
Zn385 O406 1.981 . S
Zn385 O414 1.945 . S
C386 O387 1.246 . S
C386 O403 1.276 1_554 S
O387 C386 1.246 . S
O388 Zn368 1.985 . S
O388 C398 1.245 . S
O389 Zn369 1.970 . S
O389 C398 1.263 . S
O390 Zn375 1.985 . S
O390 C402 1.245 . S
O391 Zn374 1.970 . S
O391 C402 1.263 . S
O392 Zn378 1.985 . S
O392 C407 1.245 . S
O393 Zn380 1.970 . S
O393 C407 1.263 . S
C394 O405 1.262 1_455 S
C394 O406 1.245 . S
O395 Zn382 1.985 . S
O395 C413 1.245 . S
O396 Zn385 1.970 . S
O396 C413 1.263 . S
O397 Zn375 1.955 . S
O397 C416 1.276 . S
C398 O388 1.245 . S
C398 O389 1.263 . S
O399 Zn368 1.955 . S
O399 C418 1.276 1_655 S
C400 O408 1.262 . S
C400 O409 1.245 1_455 S
O401 C372 1.276 . S
O401 Zn378 1.955 . S
C402 O390 1.245 . S
C402 O391 1.263 . S
O403 Zn382 1.955 . S
O403 C386 1.276 1_556 S
C404 O411 1.262 . S
C404 O412 1.245 1_554 S
O405 Zn369 1.945 . S
O405 C394 1.262 1_655 S
O406 Zn385 1.981 . S
O406 C394 1.245 . S
C407 O392 1.245 . S
C407 O393 1.263 . S
O408 Zn374 1.945 . S
O408 C400 1.262 . S
O409 Zn380 1.981 . S
O409 C400 1.245 1_655 S
C410 O414 1.262 1_554 S
C410 O415 1.245 . S
O411 Zn380 1.945 . S
O411 C404 1.262 . S
O412 Zn369 1.981 . S
O412 C404 1.245 1_556 S
C413 O395 1.245 . S
C413 O396 1.263 . S
O414 Zn385 1.945 . S
O414 C410 1.262 1_556 S
O415 Zn374 1.981 . S
O415 C410 1.245 . S
C416 O397 1.276 . S
C416 O417 1.246 1_455 S
O417 C416 1.246 1_655 S
C418 O399 1.276 1_455 S
C418 O419 1.246 . S
O419 C418 1.246 . S
Zn420 O422 1.933 1_556 S
Zn420 O440 1.985 . S
Zn420 O451 1.955 . S
Zn421 O422 1.911 . S
Zn421 O441 1.970 . S
Zn421 O457 1.945 . S
Zn421 O464 1.981 . S
O422 Zn420 1.933 1_554 S
O422 Zn421 1.911 . S
O422 H423 0.841 . S
H423 O422 0.841 . S
C424 O425 1.246 . S
C424 O453 1.276 . S
O425 C424 1.246 . S
Zn426 O428 1.911 . S
Zn426 O443 1.970 . S
Zn426 O460 1.945 . S
Zn426 O467 1.981 . S
Zn427 O428 1.933 1_556 S
Zn427 O442 1.985 . S
Zn427 O449 1.955 . S
O428 Zn426 1.911 . S
O428 Zn427 1.933 1_554 S
O428 H429 0.841 . S
H429 O428 0.841 . S
Zn430 O431 1.933 1_556 S
Zn430 O444 1.985 . S
Zn430 O453 1.955 . S
O431 Zn430 1.933 1_554 S
O431 Zn432 1.911 . S
O431 H433 0.841 . S
Zn432 O431 1.911 . S
Zn432 O445 1.970 . S
Zn432 O461 1.981 . S
Zn432 O463 1.945 . S
H433 O431 0.841 . S
Zn434 O435 1.933 1_556 S
Zn434 O447 1.985 . S
Zn434 O455 1.955 . S
O435 Zn434 1.933 1_554 S
O435 H436 0.841 . S
O435 Zn437 1.911 . S
H436 O435 0.841 . S
Zn437 O435 1.911 . S
Zn437 O448 1.970 . S
Zn437 O458 1.981 . S
Zn437 O466 1.945 . S
C438 O439 1.246 . S
C438 O455 1.276 . S
O439 C438 1.246 . S
O440 Zn420 1.985 . S
O440 C450 1.245 1_556 S
O441 Zn421 1.970 . S
O441 C450 1.263 . S
O442 Zn427 1.985 . S
O442 C454 1.245 1_556 S
O443 Zn426 1.970 . S
O443 C454 1.263 . S
O444 Zn430 1.985 . S
O444 C459 1.245 1_556 S
O445 Zn432 1.970 . S
O445 C459 1.263 . S
C446 O457 1.262 . S
C446 O458 1.245 . S
O447 Zn434 1.985 . S
O447 C465 1.245 1_556 S
O448 Zn437 1.970 . S
O448 C465 1.263 . S
O449 Zn427 1.955 . S
O449 C468 1.276 . S
C450 O440 1.245 1_554 S
C450 O441 1.263 . S
O451 Zn420 1.955 . S
O451 C470 1.276 . S
C452 O460 1.262 . S
C452 O461 1.245 . S
O453 C424 1.276 . S
O453 Zn430 1.955 . S
C454 O442 1.245 1_554 S
C454 O443 1.263 . S
O455 Zn434 1.955 . S
O455 C438 1.276 . S
C456 O463 1.262 . S
C456 O464 1.245 . S
O457 Zn421 1.945 . S
O457 C446 1.262 . S
O458 Zn437 1.981 . S
O458 C446 1.245 . S
C459 O444 1.245 1_554 S
C459 O445 1.263 . S
O460 Zn426 1.945 . S
O460 C452 1.262 . S
O461 Zn432 1.981 . S
O461 C452 1.245 . S
C462 O466 1.262 . S
C462 O467 1.245 . S
O463 Zn432 1.945 . S
O463 C456 1.262 . S
O464 Zn421 1.981 . S
O464 C456 1.245 . S
C465 O447 1.245 1_554 S
C465 O448 1.263 . S
O466 Zn437 1.945 . S
O466 C462 1.262 . S
O467 Zn426 1.981 . S
O467 C462 1.245 . S
C468 O449 1.276 . S
C468 O469 1.246 . S
O469 C468 1.246 . S
C470 O451 1.276 . S
C470 O471 1.246 . S
O471 C470 1.246 . S
Zn472 O474 1.933 1_655 S
Zn472 O492 1.985 . S
Zn472 O503 1.955 1_655 S
Zn473 O474 1.911 1_655 S
Zn473 O493 1.970 . S
Zn473 O509 1.945 . S
Zn473 O516 1.981 . S
O474 Zn472 1.933 1_455 S
O474 Zn473 1.911 1_455 S
O474 H475 0.841 . S
H475 O474 0.841 . S
C476 O477 1.246 . S
C476 O505 1.276 . S
O477 C476 1.246 . S
Zn478 O480 1.911 . S
Zn478 O495 1.970 . S
Zn478 O512 1.945 . S
Zn478 O519 1.981 . S
Zn479 O480 1.933 . S
Zn479 O494 1.985 . S
Zn479 O501 1.955 . S
O480 Zn478 1.911 . S
O480 Zn479 1.933 . S
O480 H481 0.841 . S
H481 O480 0.841 . S
Zn482 O483 1.933 . S
Zn482 O496 1.985 . S
Zn482 O505 1.955 . S
O483 Zn482 1.933 . S
O483 Zn484 1.911 . S
O483 H485 0.841 . S
Zn484 O483 1.911 . S
Zn484 O497 1.970 . S
Zn484 O513 1.981 1_655 S
Zn484 O515 1.945 . S
H485 O483 0.841 . S
Zn486 O487 1.933 . S
Zn486 O499 1.985 . S
Zn486 O507 1.955 . S
O487 Zn486 1.933 . S
O487 H488 0.841 . S
O487 Zn489 1.911 . S
H488 O487 0.841 . S
Zn489 O487 1.911 . S
Zn489 O500 1.970 . S
Zn489 O510 1.981 . S
Zn489 O518 1.945 . S
C490 O491 1.246 . S
C490 O507 1.276 . S
O491 C490 1.246 . S
O492 Zn472 1.985 . S
O492 C502 1.245 . S
O493 Zn473 1.970 . S
O493 C502 1.263 . S
O494 Zn479 1.985 . S
O494 C506 1.245 . S
O495 Zn478 1.970 . S
O495 C506 1.263 . S
O496 Zn482 1.985 . S
O496 C511 1.245 . S
O497 Zn484 1.970 . S
O497 C511 1.263 . S
C498 O509 1.262 1_455 S
C498 O510 1.245 . S
O499 Zn486 1.985 . S
O499 C517 1.245 . S
O500 Zn489 1.970 . S
O500 C517 1.263 . S
O501 Zn479 1.955 . S
O501 C520 1.276 . S
C502 O492 1.245 . S
C502 O493 1.263 . S
O503 Zn472 1.955 1_455 S
O503 C522 1.276 . S
C504 O512 1.262 . S
C504 O513 1.245 . S
O505 C476 1.276 . S
O505 Zn482 1.955 . S
C506 O494 1.245 . S
C506 O495 1.263 . S
O507 Zn486 1.955 . S
O507 C490 1.276 . S
C508 O515 1.262 . S
C508 O516 1.245 . S
O509 Zn473 1.945 . S
O509 C498 1.262 1_655 S
O510 Zn489 1.981 . S
O510 C498 1.245 . S
C511 O496 1.245 . S
C511 O497 1.263 . S
O512 Zn478 1.945 . S
O512 C504 1.262 . S
O513 Zn484 1.981 1_455 S
O513 C504 1.245 . S
C514 O518 1.262 . S
C514 O519 1.245 . S
O515 Zn484 1.945 . S
O515 C508 1.262 . S
O516 Zn473 1.981 . S
O516 C508 1.245 . S
C517 O499 1.245 . S
C517 O500 1.263 . S
O518 Zn489 1.945 . S
O518 C514 1.262 . S
O519 Zn478 1.981 . S
O519 C514 1.245 . S
C520 O501 1.276 . S
C520 O521 1.246 . S
O521 C520 1.246 . S
C522 O503 1.276 . S
C522 O523 1.246 . S
O523 C522 1.246 . S
Zn524 O526 1.933 1_565 S
Zn524 O544 1.991 . S
Zn524 O555 1.955 . S
Zn525 O526 1.911 . S
Zn525 O545 1.970 . S
Zn525 O561 1.945 . S
Zn525 O568 1.981 . S
O526 Zn524 1.933 1_545 S
O526 Zn525 1.911 . S
O526 H527 0.841 . S
H527 O526 0.841 . S
C528 O529 1.246 . S
C528 O557 1.276 . S
O529 C528 1.246 . S
Zn530 O532 1.911 . S
Zn530 O547 1.970 . S
Zn530 O564 1.945 . S
Zn530 O571 1.981 . S
Zn531 O532 1.933 1_565 S
Zn531 O546 1.985 1_565 S
Zn531 O553 1.955 . S
O532 Zn530 1.911 . S
O532 Zn531 1.933 1_545 S
O532 H533 0.841 . S
H533 O532 0.841 . S
Zn534 O535 1.933 1_565 S
Zn534 O548 1.991 . S
Zn534 O557 1.955 . S
O535 Zn534 1.933 1_545 S
O535 Zn536 1.911 . S
O535 H537 0.841 . S
Zn536 O535 1.911 . S
Zn536 O549 1.970 . S
Zn536 O565 1.981 . S
Zn536 O567 1.945 . S
H537 O535 0.841 . S
Zn538 O539 1.933 1_565 S
Zn538 O551 1.985 1_565 S
Zn538 O559 1.955 . S
O539 Zn538 1.933 1_545 S
O539 H540 0.841 . S
O539 Zn541 1.911 . S
H540 O539 0.841 . S
Zn541 O539 1.911 . S
Zn541 O552 1.970 . S
Zn541 O562 1.981 . S
Zn541 O570 1.945 . S
C542 O543 1.246 . S
C542 O559 1.276 . S
O543 C542 1.246 . S
O544 Zn524 1.991 . S
O544 C554 1.213 1_565 S
O545 Zn525 1.970 . S
O545 C554 1.263 . S
O546 Zn531 1.985 1_545 S
O546 C558 1.245 . S
O547 Zn530 1.970 . S
O547 C558 1.263 . S
O548 Zn534 1.991 . S
O548 C563 1.220 1_565 S
O549 Zn536 1.970 . S
O549 C563 1.263 . S
C550 O561 1.262 . S
C550 O562 1.245 . S
O551 Zn538 1.985 1_545 S
O551 C569 1.245 . S
O552 Zn541 1.970 . S
O552 C569 1.263 . S
O553 Zn531 1.955 . S
O553 C572 1.276 . S
C554 O544 1.213 1_545 S
C554 O545 1.263 . S
O555 Zn524 1.955 . S
O555 C574 1.276 . S
C556 O564 1.262 . S
C556 O565 1.245 . S
O557 C528 1.276 . S
O557 Zn534 1.955 . S
C558 O546 1.245 . S
C558 O547 1.263 . S
O559 Zn538 1.955 . S
O559 C542 1.276 . S
C560 O567 1.262 . S
C560 O568 1.245 . S
O561 Zn525 1.945 . S
O561 C550 1.262 . S
O562 Zn541 1.981 . S
O562 C550 1.245 . S
C563 O548 1.220 1_545 S
C563 O549 1.263 . S
O564 Zn530 1.945 . S
O564 C556 1.262 . S
O565 Zn536 1.981 . S
O565 C556 1.245 . S
C566 O570 1.262 . S
C566 O571 1.245 . S
O567 Zn536 1.945 . S
O567 C560 1.262 . S
O568 Zn525 1.981 . S
O568 C560 1.245 . S
C569 O551 1.245 . S
C569 O552 1.263 . S
O570 Zn541 1.945 . S
O570 C566 1.262 . S
O571 Zn530 1.981 . S
O571 C566 1.245 . S
C572 O553 1.276 . S
C572 O573 1.246 . S
O573 C572 1.246 . S
C574 O555 1.276 . S
C574 O575 1.246 . S
O575 C574 1.246 . S
H576 C584 0.929 . S
H577 C586 0.930 . S
H578 C588 0.930 . S
H579 C591 0.929 . S
H580 C594 0.930 . S
H581 C596 0.960 . S
H582 C596 0.960 . S
H583 C596 0.960 . S
C584 H576 0.929 . S
C584 C585 1.377 . S
C584 C586 1.384 . S
C585 C584 1.377 . S
C585 C591 1.390 . S
C586 H577 0.930 . S
C586 C584 1.384 . S
C586 C587 1.372 . S
C587 C586 1.372 . S
C587 C588 1.400 . S
C587 C592 1.490 . S
C588 H578 0.930 . S
C588 C587 1.400 . S
C588 C591 1.386 . S
H589 C605 0.930 . S
H590 C606 0.931 . S
C591 H579 0.929 . S
C591 C585 1.390 . S
C591 C588 1.386 . S
C592 C587 1.490 . S
C592 C594 1.395 . S
C592 C595 1.403 . S
H593 C599 0.930 . S
C594 H580 0.930 . S
C594 C592 1.395 . S
C594 C597 1.403 . S
C595 C592 1.403 . S
C595 C596 1.524 . S
C595 C599 1.400 . S
C596 H581 0.960 . S
C596 H582 0.960 . S
C596 H583 0.960 . S
C596 C595 1.524 . S
C597 C594 1.403 . S
C597 C598 1.392 . S
C597 C601 1.495 . S
C598 C597 1.392 . S
C598 C599 1.385 . S
C598 C600 1.478 . S
C599 H593 0.930 . S
C599 C595 1.400 . S
C599 C598 1.385 . S
C600 C598 1.478 . S
C600 C602 1.381 . S
C600 C606 1.383 . S
C601 C597 1.495 . S
C601 H607 0.959 . S
C601 H608 0.961 . S
C601 H609 0.960 . S
C602 C600 1.381 . S
C602 C603 1.394 . S
C602 H610 0.930 . S
C603 C602 1.394 . S
C603 C604 1.383 . S
C603 H611 0.929 . S
C604 C603 1.383 . S
C604 C605 1.377 . S
C605 H589 0.930 . S
C605 C604 1.377 . S
C605 C606 1.379 . S
C606 H590 0.931 . S
C606 C600 1.383 . S
C606 C605 1.379 . S
H607 C601 0.959 . S
H608 C601 0.961 . S
H609 C601 0.960 . S
H610 C602 0.930 . S
H611 C603 0.929 . S
H612 C620 0.929 . S
H613 C622 0.930 . S
H614 C624 0.930 . S
H615 C627 0.929 . S
H616 C630 0.930 . S
H617 C632 0.960 . S
H618 C632 0.960 . S
H619 C632 0.960 . S
C620 H612 0.929 . S
C620 C621 1.377 . S
C620 C622 1.384 . S
C621 C620 1.377 . S
C621 C627 1.390 . S
C622 H613 0.930 . S
C622 C620 1.384 . S
C622 C623 1.372 . S
C623 C622 1.372 . S
C623 C624 1.400 . S
C623 C628 1.490 . S
C624 H614 0.930 . S
C624 C623 1.400 . S
C624 C627 1.386 . S
H625 C641 0.930 . S
H626 C642 0.931 . S
C627 H615 0.929 . S
C627 C621 1.390 . S
C627 C624 1.386 . S
C628 C623 1.490 . S
C628 C630 1.395 . S
C628 C631 1.403 . S
H629 C635 0.930 . S
C630 H616 0.930 . S
C630 C628 1.395 . S
C630 C633 1.403 . S
C631 C628 1.403 . S
C631 C632 1.524 . S
C631 C635 1.400 . S
C632 H617 0.960 . S
C632 H618 0.960 . S
C632 H619 0.960 . S
C632 C631 1.524 . S
C633 C630 1.403 . S
C633 C634 1.392 . S
C633 C637 1.495 . S
C634 C633 1.392 . S
C634 C635 1.385 . S
C634 C636 1.478 . S
C635 H629 0.930 . S
C635 C631 1.400 . S
C635 C634 1.385 . S
C636 C634 1.478 . S
C636 C638 1.381 . S
C636 C642 1.383 . S
C637 C633 1.495 . S
C637 H643 0.959 . S
C637 H644 0.961 . S
C637 H645 0.960 . S
C638 C636 1.381 . S
C638 C639 1.394 . S
C638 H646 0.930 . S
C639 C638 1.394 . S
C639 C640 1.383 . S
C639 H647 0.929 . S
C640 C639 1.383 . S
C640 C641 1.377 . S
C641 H625 0.930 . S
C641 C640 1.377 . S
C641 C642 1.379 . S
C642 H626 0.931 . S
C642 C636 1.383 . S
C642 C641 1.379 . S
H643 C637 0.959 . S
H644 C637 0.961 . S
H645 C637 0.960 . S
H646 C638 0.930 . S
H647 C639 0.929 . S
H648 C656 0.929 . S
H649 C658 0.930 . S
H650 C660 0.930 . S
H651 C663 0.929 . S
H652 C666 0.930 . S
H653 C668 0.960 . S
H654 C668 0.960 . S
H655 C668 0.960 . S
C656 H648 0.929 . S
C656 C657 1.377 . S
C656 C658 1.384 . S
C657 C656 1.377 . S
C657 C663 1.390 . S
C658 H649 0.930 . S
C658 C656 1.384 . S
C658 C659 1.372 . S
C659 C658 1.372 . S
C659 C660 1.400 . S
C659 C664 1.490 . S
C660 H650 0.930 . S
C660 C659 1.400 . S
C660 C663 1.386 . S
H661 C677 0.930 . S
H662 C678 0.931 . S
C663 H651 0.929 . S
C663 C657 1.390 . S
C663 C660 1.386 . S
C664 C659 1.490 . S
C664 C666 1.395 . S
C664 C667 1.403 . S
H665 C671 0.930 . S
C666 H652 0.930 . S
C666 C664 1.395 . S
C666 C669 1.403 . S
C667 C664 1.403 . S
C667 C668 1.524 . S
C667 C671 1.400 . S
C668 H653 0.960 . S
C668 H654 0.960 . S
C668 H655 0.960 . S
C668 C667 1.524 . S
C669 C666 1.403 . S
C669 C670 1.392 . S
C669 C673 1.495 . S
C670 C669 1.392 . S
C670 C671 1.385 . S
C670 C672 1.478 . S
C671 H665 0.930 . S
C671 C667 1.400 . S
C671 C670 1.385 . S
C672 C670 1.478 . S
C672 C674 1.381 . S
C672 C678 1.383 . S
C673 C669 1.495 . S
C673 H679 0.959 . S
C673 H680 0.961 . S
C673 H681 0.960 . S
C674 C672 1.381 . S
C674 C675 1.394 . S
C674 H682 0.930 . S
C675 C674 1.394 . S
C675 C676 1.383 . S
C675 H683 0.929 . S
C676 C675 1.383 . S
C676 C677 1.377 . S
C677 H661 0.930 . S
C677 C676 1.377 . S
C677 C678 1.379 . S
C678 H662 0.931 . S
C678 C672 1.383 . S
C678 C677 1.379 . S
H679 C673 0.959 . S
H680 C673 0.961 . S
H681 C673 0.960 . S
H682 C674 0.930 . S
H683 C675 0.929 . S
H684 C692 0.929 . S
H685 C694 0.930 . S
H686 C696 0.930 . S
H687 C699 0.929 . S
H688 C702 0.930 . S
H689 C704 0.960 . S
H690 C704 0.960 . S
H691 C704 0.960 . S
C692 H684 0.929 . S
C692 C693 1.377 . S
C692 C694 1.384 . S
C693 C692 1.377 . S
C693 C699 1.390 . S
C694 H685 0.930 . S
C694 C692 1.384 . S
C694 C695 1.372 . S
C695 C694 1.372 . S
C695 C696 1.400 . S
C695 C700 1.490 . S
C696 H686 0.930 . S
C696 C695 1.400 . S
C696 C699 1.386 . S
H697 C713 0.930 . S
H698 C714 0.931 . S
C699 H687 0.929 . S
C699 C693 1.390 . S
C699 C696 1.386 . S
C700 C695 1.490 . S
C700 C702 1.395 . S
C700 C703 1.403 . S
H701 C707 0.930 . S
C702 H688 0.930 . S
C702 C700 1.395 . S
C702 C705 1.403 . S
C703 C700 1.403 . S
C703 C704 1.524 . S
C703 C707 1.400 . S
C704 H689 0.960 . S
C704 H690 0.960 . S
C704 H691 0.960 . S
C704 C703 1.524 . S
C705 C702 1.403 . S
C705 C706 1.392 . S
C705 C709 1.495 . S
C706 C705 1.392 . S
C706 C707 1.385 . S
C706 C708 1.478 . S
C707 H701 0.930 . S
C707 C703 1.400 . S
C707 C706 1.385 . S
C708 C706 1.478 . S
C708 C710 1.381 . S
C708 C714 1.383 . S
C709 C705 1.495 . S
C709 H715 0.959 . S
C709 H716 0.961 . S
C709 H717 0.960 . S
C710 C708 1.381 . S
C710 C711 1.394 . S
C710 H718 0.930 . S
C711 C710 1.394 . S
C711 C712 1.383 . S
C711 H719 0.929 . S
C712 C711 1.383 . S
C712 C713 1.377 . S
C713 H697 0.930 . S
C713 C712 1.377 . S
C713 C714 1.379 . S
C714 H698 0.931 . S
C714 C708 1.383 . S
C714 C713 1.379 . S
H715 C709 0.959 . S
H716 C709 0.961 . S
H717 C709 0.960 . S
H718 C710 0.930 . S
H719 C711 0.929 . S
H720 C728 0.929 . S
H721 C730 0.930 . S
H722 C732 0.930 . S
H723 C735 0.929 . S
H724 C738 0.930 . S
H725 C740 0.960 . S
H726 C740 0.960 . S
H727 C740 0.960 . S
C728 H720 0.929 . S
C728 C729 1.377 . S
C728 C730 1.384 . S
C729 C728 1.377 . S
C729 C735 1.390 . S
C730 H721 0.930 . S
C730 C728 1.384 . S
C730 C731 1.372 . S
C731 C730 1.372 . S
C731 C732 1.400 . S
C731 C736 1.490 . S
C732 H722 0.930 . S
C732 C731 1.400 . S
C732 C735 1.386 . S
H733 C749 0.930 . S
H734 C750 0.931 . S
C735 H723 0.929 . S
C735 C729 1.390 . S
C735 C732 1.386 . S
C736 C731 1.490 . S
C736 C738 1.395 . S
C736 C739 1.403 . S
H737 C743 0.930 . S
C738 H724 0.930 . S
C738 C736 1.395 . S
C738 C741 1.403 . S
C739 C736 1.403 . S
C739 C740 1.524 . S
C739 C743 1.400 . S
C740 H725 0.960 . S
C740 H726 0.960 . S
C740 H727 0.960 . S
C740 C739 1.524 . S
C741 C738 1.403 . S
C741 C742 1.392 . S
C741 C745 1.495 . S
C742 C741 1.392 . S
C742 C743 1.385 . S
C742 C744 1.478 . S
C743 H737 0.930 . S
C743 C739 1.400 . S
C743 C742 1.385 . S
C744 C742 1.478 . S
C744 C746 1.381 . S
C744 C750 1.383 . S
C745 C741 1.495 . S
C745 H751 0.959 . S
C745 H752 0.961 . S
C745 H753 0.960 . S
C746 C744 1.381 . S
C746 C747 1.394 . S
C746 H754 0.930 . S
C747 C746 1.394 . S
C747 C748 1.383 . S
C747 H755 0.929 . S
C748 C747 1.383 . S
C748 C749 1.377 . S
C749 H733 0.930 . S
C749 C748 1.377 . S
C749 C750 1.379 . S
C750 H734 0.931 . S
C750 C744 1.383 . S
C750 C749 1.379 . S
H751 C745 0.959 . S
H752 C745 0.961 . S
H753 C745 0.960 . S
H754 C746 0.930 . S
H755 C747 0.929 . S
H756 C764 0.929 . S
H757 C766 0.930 . S
H758 C768 0.930 . S
H759 C771 0.929 . S
H760 C774 0.930 . S
H761 C776 0.960 . S
H762 C776 0.960 . S
H763 C776 0.960 . S
C764 H756 0.929 . S
C764 C765 1.377 . S
C764 C766 1.384 . S
C765 C764 1.377 . S
C765 C771 1.390 . S
C766 H757 0.930 . S
C766 C764 1.384 . S
C766 C767 1.372 . S
C767 C766 1.372 . S
C767 C768 1.400 . S
C767 C772 1.490 . S
C768 H758 0.930 . S
C768 C767 1.400 . S
C768 C771 1.386 . S
H769 C785 0.930 . S
H770 C786 0.931 . S
C771 H759 0.929 . S
C771 C765 1.390 . S
C771 C768 1.386 . S
C772 C767 1.490 . S
C772 C774 1.395 . S
C772 C775 1.403 . S
H773 C779 0.930 . S
C774 H760 0.930 . S
C774 C772 1.395 . S
C774 C777 1.403 . S
C775 C772 1.403 . S
C775 C776 1.524 . S
C775 C779 1.400 . S
C776 H761 0.960 . S
C776 H762 0.960 . S
C776 H763 0.960 . S
C776 C775 1.524 . S
C777 C774 1.403 . S
C777 C778 1.392 . S
C777 C781 1.495 . S
C778 C777 1.392 . S
C778 C779 1.385 . S
C778 C780 1.478 . S
C779 H773 0.930 . S
C779 C775 1.400 . S
C779 C778 1.385 . S
C780 C778 1.478 . S
C780 C782 1.381 . S
C780 C786 1.383 . S
C781 C777 1.495 . S
C781 H787 0.959 . S
C781 H788 0.961 . S
C781 H789 0.960 . S
C782 C780 1.381 . S
C782 C783 1.394 . S
C782 H790 0.930 . S
C783 C782 1.394 . S
C783 C784 1.383 . S
C783 H791 0.929 . S
C784 C783 1.383 . S
C784 C785 1.377 . S
C785 H769 0.930 . S
C785 C784 1.377 . S
C785 C786 1.379 . S
C786 H770 0.931 . S
C786 C780 1.383 . S
C786 C785 1.379 . S
H787 C781 0.959 . S
H788 C781 0.961 . S
H789 C781 0.960 . S
H790 C782 0.930 . S
H791 C783 0.929 . S
H792 C800 0.929 . S
H793 C802 0.930 . S
H794 C804 0.930 . S
H795 C807 0.929 . S
H796 C810 0.930 . S
H797 C812 0.960 . S
H798 C812 0.960 . S
H799 C812 0.960 . S
C800 H792 0.929 . S
C800 C801 1.377 . S
C800 C802 1.384 . S
C801 C800 1.377 . S
C801 C807 1.390 . S
C802 H793 0.930 . S
C802 C800 1.384 . S
C802 C803 1.372 . S
C803 C802 1.372 . S
C803 C804 1.400 . S
C803 C808 1.490 . S
C804 H794 0.930 . S
C804 C803 1.400 . S
C804 C807 1.386 . S
H805 C821 0.930 . S
H806 C822 0.931 . S
C807 H795 0.929 . S
C807 C801 1.390 . S
C807 C804 1.386 . S
C808 C803 1.490 . S
C808 C810 1.395 . S
C808 C811 1.403 . S
H809 C815 0.930 . S
C810 H796 0.930 . S
C810 C808 1.395 . S
C810 C813 1.403 . S
C811 C808 1.403 . S
C811 C812 1.524 . S
C811 C815 1.400 . S
C812 H797 0.960 . S
C812 H798 0.960 . S
C812 H799 0.960 . S
C812 C811 1.524 . S
C813 C810 1.403 . S
C813 C814 1.392 . S
C813 C817 1.495 . S
C814 C813 1.392 . S
C814 C815 1.385 . S
C814 C816 1.478 . S
C815 H809 0.930 . S
C815 C811 1.400 . S
C815 C814 1.385 . S
C816 C814 1.478 . S
C816 C818 1.381 . S
C816 C822 1.383 . S
C817 C813 1.495 . S
C817 H823 0.959 . S
C817 H824 0.961 . S
C817 H825 0.960 . S
C818 C816 1.381 . S
C818 C819 1.394 . S
C818 H826 0.930 . S
C819 C818 1.394 . S
C819 C820 1.383 . S
C819 H827 0.929 . S
C820 C819 1.383 . S
C820 C821 1.377 . S
C821 H805 0.930 . S
C821 C820 1.377 . S
C821 C822 1.379 . S
C822 H806 0.931 . S
C822 C816 1.383 . S
C822 C821 1.379 . S
H823 C817 0.959 . S
H824 C817 0.961 . S
H825 C817 0.960 . S
H826 C818 0.930 . S
H827 C819 0.929 . S
H828 C836 0.929 . S
H829 C838 0.930 . S
H830 C840 0.930 . S
H831 C843 0.929 . S
H832 C846 0.930 . S
H833 C848 0.960 . S
H834 C848 0.960 . S
H835 C848 0.960 . S
C836 H828 0.929 . S
C836 C837 1.377 . S
C836 C838 1.384 . S
C837 C836 1.377 . S
C837 C843 1.390 . S
C838 H829 0.930 . S
C838 C836 1.384 . S
C838 C839 1.372 . S
C839 C838 1.372 . S
C839 C840 1.400 . S
C839 C844 1.490 . S
C840 H830 0.930 . S
C840 C839 1.400 . S
C840 C843 1.386 . S
H841 C857 0.930 . S
H842 C858 0.931 . S
C843 H831 0.929 . S
C843 C837 1.390 . S
C843 C840 1.386 . S
C844 C839 1.490 . S
C844 C846 1.395 . S
C844 C847 1.403 . S
H845 C851 0.930 . S
C846 H832 0.930 . S
C846 C844 1.395 . S
C846 C849 1.403 . S
C847 C844 1.403 . S
C847 C848 1.524 . S
C847 C851 1.400 . S
C848 H833 0.960 . S
C848 H834 0.960 . S
C848 H835 0.960 . S
C848 C847 1.524 . S
C849 C846 1.403 . S
C849 C850 1.392 . S
C849 C853 1.495 . S
C850 C849 1.392 . S
C850 C851 1.385 . S
C850 C852 1.478 . S
C851 H845 0.930 . S
C851 C847 1.400 . S
C851 C850 1.385 . S
C852 C850 1.478 . S
C852 C854 1.381 . S
C852 C858 1.383 . S
C853 C849 1.495 . S
C853 H859 0.959 . S
C853 H860 0.961 . S
C853 H861 0.960 . S
C854 C852 1.381 . S
C854 C855 1.394 . S
C854 H862 0.930 . S
C855 C854 1.394 . S
C855 C856 1.383 . S
C855 H863 0.929 . S
C856 C855 1.383 . S
C856 C857 1.377 . S
C857 H841 0.930 . S
C857 C856 1.377 . S
C857 C858 1.379 . S
C858 H842 0.931 . S
C858 C852 1.383 . S
C858 C857 1.379 . S
H859 C853 0.959 . S
H860 C853 0.961 . S
H861 C853 0.960 . S
H862 C854 0.930 . S
H863 C855 0.929 . S
H864 C872 0.929 . S
H865 C874 0.930 . S
H866 C876 0.930 . S
H867 C879 0.929 . S
H868 C882 0.930 . S
H869 C884 0.960 . S
H870 C884 0.960 . S
H871 C884 0.960 . S
C872 H864 0.929 . S
C872 C873 1.377 . S
C872 C874 1.384 . S
C873 C872 1.377 . S
C873 C879 1.390 . S
C874 H865 0.930 . S
C874 C872 1.384 . S
C874 C875 1.372 . S
C875 C874 1.372 . S
C875 C876 1.400 . S
C875 C880 1.490 . S
C876 H866 0.930 . S
C876 C875 1.400 . S
C876 C879 1.386 . S
H877 C893 0.930 . S
H878 C894 0.931 . S
C879 H867 0.929 . S
C879 C873 1.390 . S
C879 C876 1.386 . S
C880 C875 1.490 . S
C880 C882 1.395 . S
C880 C883 1.403 . S
H881 C887 0.930 . S
C882 H868 0.930 . S
C882 C880 1.395 . S
C882 C885 1.403 . S
C883 C880 1.403 . S
C883 C884 1.524 . S
C883 C887 1.400 . S
C884 H869 0.960 . S
C884 H870 0.960 . S
C884 H871 0.960 . S
C884 C883 1.524 . S
C885 C882 1.403 . S
C885 C886 1.392 . S
C885 C889 1.495 . S
C886 C885 1.392 . S
C886 C887 1.385 . S
C886 C888 1.478 . S
C887 H881 0.930 . S
C887 C883 1.400 . S
C887 C886 1.385 . S
C888 C886 1.478 . S
C888 C890 1.381 . S
C888 C894 1.383 . S
C889 C885 1.495 . S
C889 H895 0.959 . S
C889 H896 0.961 . S
C889 H897 0.960 . S
C890 C888 1.381 . S
C890 C891 1.394 . S
C890 H898 0.930 . S
C891 C890 1.394 . S
C891 C892 1.383 . S
C891 H899 0.929 . S
C892 C891 1.383 . S
C892 C893 1.377 . S
C893 H877 0.930 . S
C893 C892 1.377 . S
C893 C894 1.379 . S
C894 H878 0.931 . S
C894 C888 1.383 . S
C894 C893 1.379 . S
H895 C889 0.959 . S
H896 C889 0.961 . S
H897 C889 0.960 . S
H898 C890 0.930 . S
H899 C891 0.929 . S
H900 C908 0.929 . S
H901 C910 0.930 . S
H902 C912 0.930 . S
H903 C915 0.929 . S
H904 C918 0.930 . S
H905 C920 0.960 . S
H906 C920 0.960 . S
H907 C920 0.960 . S
C908 H900 0.929 . S
C908 C909 1.377 . S
C908 C910 1.384 . S
C909 C908 1.377 . S
C909 C915 1.390 . S
C910 H901 0.930 . S
C910 C908 1.384 . S
C910 C911 1.372 . S
C911 C910 1.372 . S
C911 C912 1.400 . S
C911 C916 1.490 . S
C912 H902 0.930 . S
C912 C911 1.400 . S
C912 C915 1.386 . S
H913 C929 0.930 . S
H914 C930 0.931 . S
C915 H903 0.929 . S
C915 C909 1.390 . S
C915 C912 1.386 . S
C916 C911 1.490 . S
C916 C918 1.395 . S
C916 C919 1.403 . S
H917 C923 0.930 . S
C918 H904 0.930 . S
C918 C916 1.395 . S
C918 C921 1.403 . S
C919 C916 1.403 . S
C919 C920 1.524 . S
C919 C923 1.400 . S
C920 H905 0.960 . S
C920 H906 0.960 . S
C920 H907 0.960 . S
C920 C919 1.524 . S
C921 C918 1.403 . S
C921 C922 1.392 . S
C921 C925 1.495 . S
C922 C921 1.392 . S
C922 C923 1.385 . S
C922 C924 1.478 . S
C923 H917 0.930 . S
C923 C919 1.400 . S
C923 C922 1.385 . S
C924 C922 1.478 . S
C924 C926 1.381 . S
C924 C930 1.383 . S
C925 C921 1.495 . S
C925 H931 0.959 . S
C925 H932 0.961 . S
C925 H933 0.960 . S
C926 C924 1.381 . S
C926 C927 1.394 . S
C926 H934 0.930 . S
C927 C926 1.394 . S
C927 C928 1.383 . S
C927 H935 0.929 . S
C928 C927 1.383 . S
C928 C929 1.377 . S
C929 H913 0.930 . S
C929 C928 1.377 . S
C929 C930 1.379 . S
C930 H914 0.931 . S
C930 C924 1.383 . S
C930 C929 1.379 . S
H931 C925 0.959 . S
H932 C925 0.961 . S
H933 C925 0.960 . S
H934 C926 0.930 . S
H935 C927 0.929 . S
H936 C944 0.929 . S
H937 C946 0.930 . S
H938 C948 0.930 . S
H939 C951 0.929 . S
H940 C954 0.930 . S
H941 C956 0.960 . S
H942 C956 0.960 . S
H943 C956 0.960 . S
C944 H936 0.929 . S
C944 C945 1.377 . S
C944 C946 1.384 . S
C945 C944 1.377 . S
C945 C951 1.390 . S
C946 H937 0.930 . S
C946 C944 1.384 . S
C946 C947 1.372 . S
C947 C946 1.372 . S
C947 C948 1.400 . S
C947 C952 1.490 . S
C948 H938 0.930 . S
C948 C947 1.400 . S
C948 C951 1.386 . S
H949 C965 0.930 . S
H950 C966 0.931 . S
C951 H939 0.929 . S
C951 C945 1.390 . S
C951 C948 1.386 . S
C952 C947 1.490 . S
C952 C954 1.395 . S
C952 C955 1.403 . S
H953 C959 0.930 . S
C954 H940 0.930 . S
C954 C952 1.395 . S
C954 C957 1.403 . S
C955 C952 1.403 . S
C955 C956 1.524 . S
C955 C959 1.400 . S
C956 H941 0.960 . S
C956 H942 0.960 . S
C956 H943 0.960 . S
C956 C955 1.524 . S
C957 C954 1.403 . S
C957 C958 1.392 . S
C957 C961 1.495 . S
C958 C957 1.392 . S
C958 C959 1.385 . S
C958 C960 1.478 . S
C959 H953 0.930 . S
C959 C955 1.400 . S
C959 C958 1.385 . S
C960 C958 1.478 . S
C960 C962 1.381 . S
C960 C966 1.383 . S
C961 C957 1.495 . S
C961 H967 0.959 . S
C961 H968 0.961 . S
C961 H969 0.960 . S
C962 C960 1.381 . S
C962 C963 1.394 . S
C962 H970 0.930 . S
C963 C962 1.394 . S
C963 C964 1.383 . S
C963 H971 0.929 . S
C964 C963 1.383 . S
C964 C965 1.377 . S
C965 H949 0.930 . S
C965 C964 1.377 . S
C965 C966 1.379 . S
C966 H950 0.931 . S
C966 C960 1.383 . S
C966 C965 1.379 . S
H967 C961 0.959 . S
H968 C961 0.961 . S
H969 C961 0.960 . S
H970 C962 0.930 . S
H971 C963 0.929 . S
H972 C980 0.929 . S
H973 C982 0.930 . S
H974 C984 0.930 . S
H975 C987 0.929 . S
H976 C990 0.930 . S
H977 C992 0.960 . S
H978 C992 0.960 . S
H979 C992 0.960 . S
C980 H972 0.929 . S
C980 C981 1.377 . S
C980 C982 1.384 . S
C981 C980 1.377 . S
C981 C987 1.390 . S
C982 H973 0.930 . S
C982 C980 1.384 . S
C982 C983 1.372 . S
C983 C982 1.372 . S
C983 C984 1.400 . S
C983 C988 1.490 . S
C984 H974 0.930 . S
C984 C983 1.400 . S
C984 C987 1.386 . S
H985 C1001 0.930 . S
H986 C1002 0.931 . S
C987 H975 0.929 . S
C987 C981 1.390 . S
C987 C984 1.386 . S
C988 C983 1.490 . S
C988 C990 1.395 . S
C988 C991 1.403 . S
H989 C995 0.930 . S
C990 H976 0.930 . S
C990 C988 1.395 . S
C990 C993 1.403 . S
C991 C988 1.403 . S
C991 C992 1.524 . S
C991 C995 1.400 . S
C992 H977 0.960 . S
C992 H978 0.960 . S
C992 H979 0.960 . S
C992 C991 1.524 . S
C993 C990 1.403 . S
C993 C994 1.392 . S
C993 C997 1.495 . S
C994 C993 1.392 . S
C994 C995 1.385 . S
C994 C996 1.478 . S
C995 H989 0.930 . S
C995 C991 1.400 . S
C995 C994 1.385 . S
C996 C994 1.478 . S
C996 C998 1.381 . S
C996 C1002 1.383 . S
C997 C993 1.495 . S
C997 H1003 0.959 . S
C997 H1004 0.961 . S
C997 H1005 0.960 . S
C998 C996 1.381 . S
C998 C999 1.394 . S
C998 H1006 0.930 . S
C999 C998 1.394 . S
C999 C1000 1.383 . S
C999 H1007 0.929 . S
C1000 C999 1.383 . S
C1000 C1001 1.377 . S
C1001 H985 0.930 . S
C1001 C1000 1.377 . S
C1001 C1002 1.379 . S
C1002 H986 0.931 . S
C1002 C996 1.383 . S
C1002 C1001 1.379 . S
H1003 C997 0.959 . S
H1004 C997 0.961 . S
H1005 C997 0.960 . S
H1006 C998 0.930 . S
H1007 C999 0.929 . S
H1008 C1016 0.929 . S
H1009 C1018 0.930 . S
H1010 C1020 0.930 . S
H1011 C1023 0.929 . S
H1012 C1026 0.930 . S
H1013 C1028 0.960 . S
H1014 C1028 0.960 . S
H1015 C1028 0.960 . S
C1016 H1008 0.929 . S
C1016 C1017 1.377 1_556 S
C1016 C1018 1.384 . S
C1017 C1016 1.377 1_554 S
C1017 C1023 1.390 . S
C1018 H1009 0.930 . S
C1018 C1016 1.384 . S
C1018 C1019 1.372 1_556 S
C1019 C1018 1.372 1_554 S
C1019 C1020 1.400 . S
C1019 C1024 1.490 . S
C1020 H1010 0.930 . S
C1020 C1019 1.400 . S
C1020 C1023 1.386 . S
H1021 C1037 0.930 . S
H1022 C1038 0.931 . S
C1023 H1011 0.929 . S
C1023 C1017 1.390 . S
C1023 C1020 1.386 . S
C1024 C1019 1.490 . S
C1024 C1026 1.395 1_554 S
C1024 C1027 1.403 . S
H1025 C1031 0.930 . S
C1026 H1012 0.930 . S
C1026 C1024 1.395 1_556 S
C1026 C1029 1.403 . S
C1027 C1024 1.403 . S
C1027 C1028 1.524 . S
C1027 C1031 1.400 . S
C1028 H1013 0.960 . S
C1028 H1014 0.960 . S
C1028 H1015 0.960 . S
C1028 C1027 1.524 . S
C1029 C1026 1.403 . S
C1029 C1030 1.392 1_556 S
C1029 C1033 1.495 . S
C1030 C1029 1.392 1_554 S
C1030 C1031 1.385 . S
C1030 C1032 1.478 . S
C1031 H1025 0.930 . S
C1031 C1027 1.400 . S
C1031 C1030 1.385 . S
C1032 C1030 1.478 . S
C1032 C1034 1.381 1_554 S
C1032 C1038 1.383 . S
C1033 C1029 1.495 . S
C1033 H1039 0.959 . S
C1033 H1040 0.966 . S
C1033 H1041 0.960 . S
C1034 C1032 1.381 1_556 S
C1034 C1035 1.394 . S
C1034 H1042 0.930 . S
C1035 C1034 1.394 . S
C1035 C1036 1.383 1_556 S
C1035 H1043 0.929 . S
C1036 C1035 1.383 1_554 S
C1036 C1037 1.377 . S
C1037 H1021 0.930 . S
C1037 C1036 1.377 . S
C1037 C1038 1.379 . S
C1038 H1022 0.931 . S
C1038 C1032 1.383 . S
C1038 C1037 1.379 . S
H1039 C1033 0.959 . S
H1040 C1033 0.966 . S
H1041 C1033 0.960 . S
H1042 C1034 0.930 . S
H1043 C1035 0.929 . S
H1044 C1052 0.929 . S
H1045 C1054 0.930 . S
H1046 C1056 0.930 . S
H1047 C1059 0.929 . S
H1048 C1062 0.930 . S
H1049 C1064 0.960 . S
H1050 C1064 0.960 1_556 S
H1051 C1064 0.960 . S
C1052 H1044 0.929 . S
C1052 C1053 1.377 1_556 S
C1052 C1054 1.384 . S
C1053 C1052 1.377 1_554 S
C1053 C1059 1.390 . S
C1054 H1045 0.930 . S
C1054 C1052 1.384 . S
C1054 C1055 1.372 1_556 S
C1055 C1054 1.372 1_554 S
C1055 C1056 1.400 . S
C1055 C1060 1.490 . S
C1056 H1046 0.930 . S
C1056 C1055 1.400 . S
C1056 C1059 1.386 . S
H1057 C1073 0.930 . S
H1058 C1074 0.931 . S
C1059 H1047 0.929 . S
C1059 C1053 1.390 . S
C1059 C1056 1.386 . S
C1060 C1055 1.490 . S
C1060 C1062 1.395 . S
C1060 C1063 1.403 . S
H1061 C1067 0.930 . S
C1062 H1048 0.930 . S
C1062 C1060 1.395 . S
C1062 C1065 1.403 . S
C1063 C1060 1.403 . S
C1063 C1064 1.524 . S
C1063 C1067 1.400 . S
C1064 H1049 0.960 . S
C1064 H1050 0.960 1_554 S
C1064 H1051 0.960 . S
C1064 C1063 1.524 . S
C1065 C1062 1.403 . S
C1065 C1066 1.392 . S
C1065 C1069 1.495 . S
C1066 C1065 1.392 . S
C1066 C1067 1.385 . S
C1066 C1068 1.478 . S
C1067 H1061 0.930 . S
C1067 C1063 1.400 . S
C1067 C1066 1.385 . S
C1068 C1066 1.478 . S
C1068 C1070 1.381 1_554 S
C1068 C1074 1.383 . S
C1069 C1065 1.495 . S
C1069 H1075 0.959 . S
C1069 H1076 0.961 . S
C1069 H1077 0.960 . S
C1070 C1068 1.381 1_556 S
C1070 C1071 1.394 . S
C1070 H1078 0.930 . S
C1071 C1070 1.394 . S
C1071 C1072 1.383 1_556 S
C1071 H1079 0.929 . S
C1072 C1071 1.383 1_554 S
C1072 C1073 1.377 . S
C1073 H1057 0.930 . S
C1073 C1072 1.377 . S
C1073 C1074 1.379 . S
C1074 H1058 0.931 . S
C1074 C1068 1.383 . S
C1074 C1073 1.379 . S
H1075 C1069 0.959 . S
H1076 C1069 0.961 . S
H1077 C1069 0.960 . S
H1078 C1070 0.930 . S
H1079 C1071 0.929 . S
H1080 C1088 0.929 . S
H1081 C1090 0.930 . S
H1082 C1092 0.930 . S
H1083 C1095 0.929 . S
H1084 C1098 0.930 1_556 S
H1085 C1100 0.960 . S
H1086 C1100 0.960 . S
H1087 C1100 0.960 . S
C1088 H1080 0.929 . S
C1088 C1089 1.377 . S
C1088 C1090 1.384 . S
C1089 C1088 1.377 . S
C1089 C1095 1.390 . S
C1090 H1081 0.930 . S
C1090 C1088 1.384 . S
C1090 C1091 1.372 . S
C1091 C1090 1.372 . S
C1091 C1092 1.400 . S
C1091 C1096 1.490 . S
C1092 H1082 0.930 . S
C1092 C1091 1.400 . S
C1092 C1095 1.386 . S
H1093 C1109 0.930 . S
H1094 C1110 0.931 . S
C1095 H1083 0.929 . S
C1095 C1089 1.390 . S
C1095 C1092 1.386 . S
C1096 C1091 1.490 . S
C1096 C1098 1.395 . S
C1096 C1099 1.403 . S
H1097 C1103 0.930 . S
C1098 H1084 0.930 1_554 S
C1098 C1096 1.395 . S
C1098 C1101 1.406 . S
C1099 C1096 1.403 . S
C1099 C1100 1.524 . S
C1099 C1103 1.400 . S
C1100 H1085 0.960 . S
C1100 H1086 0.960 . S
C1100 H1087 0.960 . S
C1100 C1099 1.524 . S
C1101 C1098 1.406 . S
C1101 C1102 1.404 . S
C1101 C1105 1.481 1_554 S
C1102 C1101 1.404 . S
C1102 C1103 1.385 . S
C1102 C1104 1.478 . S
C1103 H1097 0.930 . S
C1103 C1099 1.400 . S
C1103 C1102 1.385 . S
C1104 C1102 1.478 . S
C1104 C1106 1.381 . S
C1104 C1110 1.383 1_554 S
C1105 C1101 1.481 1_556 S
C1105 H1111 0.959 . S
C1105 H1112 0.961 . S
C1105 H1113 0.960 . S
C1106 C1104 1.381 . S
C1106 C1107 1.394 . S
C1106 H1114 0.930 . S
C1107 C1106 1.394 . S
C1107 C1108 1.383 . S
C1107 H1115 0.929 . S
C1108 C1107 1.383 . S
C1108 C1109 1.377 1_554 S
C1109 H1093 0.930 . S
C1109 C1108 1.377 1_556 S
C1109 C1110 1.379 . S
C1110 H1094 0.931 . S
C1110 C1104 1.383 1_556 S
C1110 C1109 1.379 . S
H1111 C1105 0.959 . S
H1112 C1105 0.961 . S
H1113 C1105 0.960 . S
H1114 C1106 0.930 . S
H1115 C1107 0.929 . S
H1116 C1124 0.929 . S
H1117 C1126 0.930 . S
H1118 C1128 0.930 . S
H1119 C1131 0.929 . S
H1120 C1134 0.930 . S
H1121 C1136 0.960 . S
H1122 C1136 0.960 1_554 S
H1123 C1136 0.960 . S
C1124 H1116 0.929 . S
C1124 C1125 1.377 . S
C1124 C1126 1.384 . S
C1125 C1124 1.377 . S
C1125 C1131 1.390 1_554 S
C1126 H1117 0.930 . S
C1126 C1124 1.384 . S
C1126 C1127 1.372 . S
C1127 C1126 1.372 . S
C1127 C1128 1.400 1_554 S
C1127 C1132 1.490 . S
C1128 H1118 0.930 . S
C1128 C1127 1.400 1_556 S
C1128 C1131 1.386 . S
H1129 C1145 0.930 . S
H1130 C1146 0.931 . S
C1131 H1119 0.929 . S
C1131 C1125 1.390 1_556 S
C1131 C1128 1.386 . S
C1132 C1127 1.490 . S
C1132 C1134 1.395 . S
C1132 C1135 1.396 1_554 S
H1133 C1139 0.921 1_556 S
C1134 H1120 0.930 . S
C1134 C1132 1.395 . S
C1134 C1137 1.403 . S
C1135 C1132 1.396 1_556 S
C1135 C1136 1.531 . S
C1135 C1139 1.398 1_556 S
C1136 H1121 0.960 . S
C1136 H1122 0.960 1_556 S
C1136 H1123 0.960 . S
C1136 C1135 1.531 . S
C1137 C1134 1.403 . S
C1137 C1138 1.392 . S
C1137 C1141 1.495 . S
C1138 C1137 1.392 . S
C1138 C1139 1.396 . S
C1138 C1140 1.478 . S
C1139 H1133 0.921 1_554 S
C1139 C1135 1.398 1_554 S
C1139 C1138 1.396 . S
C1140 C1138 1.478 . S
C1140 C1142 1.381 . S
C1140 C1146 1.383 1_554 S
C1141 C1137 1.495 . S
C1141 H1147 0.959 . S
C1141 H1148 0.961 . S
C1141 H1149 0.960 . S
C1142 C1140 1.381 . S
C1142 C1143 1.394 . S
C1142 H1150 0.930 . S
C1143 C1142 1.394 . S
C1143 C1144 1.383 . S
C1143 H1151 0.929 . S
C1144 C1143 1.383 . S
C1144 C1145 1.377 1_554 S
C1145 H1129 0.930 . S
C1145 C1144 1.377 1_556 S
C1145 C1146 1.379 . S
C1146 H1130 0.931 . S
C1146 C1140 1.383 1_556 S
C1146 C1145 1.379 . S
H1147 C1141 0.959 . S
H1148 C1141 0.961 . S
H1149 C1141 0.960 . S
H1150 C1142 0.930 . S
H1151 C1143 0.929 . S
H1152 C1160 0.929 . S
H1153 C1162 0.930 . S
H1154 C1164 0.930 . S
H1155 C1167 0.929 . S
H1156 C1170 0.930 . S
H1157 C1172 0.960 . S
H1158 C1172 0.960 . S
H1159 C1172 0.960 . S
C1160 H1152 0.929 . S
C1160 C1161 1.377 1_655 S
C1160 C1162 1.384 . S
C1161 C1160 1.377 1_455 S
C1161 C1167 1.390 . S
C1162 H1153 0.930 . S
C1162 C1160 1.384 . S
C1162 C1163 1.372 1_655 S
C1163 C1162 1.372 1_455 S
C1163 C1164 1.400 . S
C1163 C1168 1.490 . S
C1164 H1154 0.930 . S
C1164 C1163 1.400 . S
C1164 C1167 1.386 . S
H1165 C1181 0.930 . S
H1166 C1182 0.931 . S
C1167 H1155 0.929 . S
C1167 C1161 1.390 . S
C1167 C1164 1.386 . S
C1168 C1163 1.490 . S
C1168 C1170 1.395 1_455 S
C1168 C1171 1.403 . S
H1169 C1175 0.930 . S
C1170 H1156 0.930 . S
C1170 C1168 1.395 1_655 S
C1170 C1173 1.403 . S
C1171 C1168 1.403 . S
C1171 C1172 1.524 . S
C1171 C1175 1.400 . S
C1172 H1157 0.960 . S
C1172 H1158 0.960 . S
C1172 H1159 0.960 . S
C1172 C1171 1.524 . S
C1173 C1170 1.403 . S
C1173 C1174 1.392 1_655 S
C1173 C1177 1.495 . S
C1174 C1173 1.392 1_455 S
C1174 C1175 1.385 . S
C1174 C1176 1.478 . S
C1175 H1169 0.930 . S
C1175 C1171 1.400 . S
C1175 C1174 1.385 . S
C1176 C1174 1.478 . S
C1176 C1178 1.381 1_455 S
C1176 C1182 1.383 . S
C1177 C1173 1.495 . S
C1177 H1183 0.959 . S
C1177 H1184 0.961 . S
C1177 H1185 0.960 . S
C1178 C1176 1.381 1_655 S
C1178 C1179 1.394 . S
C1178 H1186 0.930 . S
C1179 C1178 1.394 . S
C1179 C1180 1.383 1_655 S
C1179 H1187 0.929 . S
C1180 C1179 1.383 1_455 S
C1180 C1181 1.377 . S
C1181 H1165 0.930 . S
C1181 C1180 1.377 . S
C1181 C1182 1.379 . S
C1182 H1166 0.931 . S
C1182 C1176 1.383 . S
C1182 C1181 1.379 . S
H1183 C1177 0.959 . S
H1184 C1177 0.961 . S
H1185 C1177 0.960 . S
H1186 C1178 0.930 . S
H1187 C1179 0.929 . S
H1188 C1196 0.929 . S
H1189 C1198 0.930 . S
H1190 C1200 0.930 . S
H1191 C1203 0.929 . S
H1192 C1206 0.930 . S
H1193 C1208 0.960 . S
H1194 C1208 0.960 1_565 S
H1195 C1208 0.960 . S
C1196 H1188 0.929 . S
C1196 C1197 1.377 1_565 S
C1196 C1198 1.384 . S
C1197 C1196 1.377 1_545 S
C1197 C1203 1.390 . S
C1198 H1189 0.930 . S
C1198 C1196 1.384 . S
C1198 C1199 1.372 1_565 S
C1199 C1198 1.372 1_545 S
C1199 C1200 1.400 . S
C1199 C1204 1.490 . S
C1200 H1190 0.930 . S
C1200 C1199 1.400 . S
C1200 C1203 1.386 . S
H1201 C1217 0.930 . S
H1202 C1218 0.931 . S
C1203 H1191 0.929 . S
C1203 C1197 1.390 . S
C1203 C1200 1.386 . S
C1204 C1199 1.490 . S
C1204 C1206 1.395 . S
C1204 C1207 1.403 . S
H1205 C1211 0.930 . S
C1206 H1192 0.930 . S
C1206 C1204 1.395 . S
C1206 C1209 1.403 . S
C1207 C1204 1.403 . S
C1207 C1208 1.524 . S
C1207 C1211 1.400 . S
C1208 H1193 0.960 . S
C1208 H1194 0.960 1_545 S
C1208 H1195 0.960 . S
C1208 C1207 1.524 . S
C1209 C1206 1.403 . S
C1209 C1210 1.392 . S
C1209 C1213 1.495 . S
C1210 C1209 1.392 . S
C1210 C1211 1.385 . S
C1210 C1212 1.478 . S
C1211 H1205 0.930 . S
C1211 C1207 1.400 . S
C1211 C1210 1.385 . S
C1212 C1210 1.478 . S
C1212 C1214 1.381 1_545 S
C1212 C1218 1.383 . S
C1213 C1209 1.495 . S
C1213 H1219 0.959 . S
C1213 H1220 0.961 . S
C1213 H1221 0.960 . S
C1214 C1212 1.381 1_565 S
C1214 C1215 1.396 . S
C1214 H1222 0.930 . S
C1215 C1214 1.396 . S
C1215 C1216 1.363 1_565 S
C1215 H1223 0.948 . S
C1216 C1215 1.363 1_545 S
C1216 C1217 1.377 . S
C1217 H1201 0.930 . S
C1217 C1216 1.377 . S
C1217 C1218 1.379 . S
C1218 H1202 0.931 . S
C1218 C1212 1.383 . S
C1218 C1217 1.379 . S
H1219 C1213 0.959 . S
H1220 C1213 0.961 . S
H1221 C1213 0.960 . S
H1222 C1214 0.930 . S
H1223 C1215 0.948 . S
H1224 C1232 0.929 . S
H1225 C1234 0.930 . S
H1226 C1236 0.930 1_655 S
H1227 C1239 0.929 1_655 S
H1228 C1242 0.930 . S
H1229 C1244 0.960 . S
H1230 C1244 0.960 . S
H1231 C1244 0.960 . S
C1232 H1224 0.929 . S
C1232 C1233 1.377 . S
C1232 C1234 1.384 . S
C1233 C1232 1.377 . S
C1233 C1239 1.390 . S
C1234 H1225 0.930 . S
C1234 C1232 1.384 . S
C1234 C1235 1.372 . S
C1235 C1234 1.372 . S
C1235 C1236 1.400 . S
C1235 C1240 1.490 . S
C1236 H1226 0.930 1_455 S
C1236 C1235 1.400 . S
C1236 C1239 1.386 . S
H1237 C1253 0.930 . S
H1238 C1254 0.931 . S
C1239 H1227 0.929 1_455 S
C1239 C1233 1.390 . S
C1239 C1236 1.386 . S
C1240 C1235 1.490 . S
C1240 C1242 1.395 . S
C1240 C1243 1.403 . S
H1241 C1247 0.930 . S
C1242 H1228 0.930 . S
C1242 C1240 1.395 . S
C1242 C1245 1.403 . S
C1243 C1240 1.403 . S
C1243 C1244 1.524 . S
C1243 C1247 1.400 . S
C1244 H1229 0.960 . S
C1244 H1230 0.960 . S
C1244 H1231 0.960 . S
C1244 C1243 1.524 . S
C1245 C1242 1.403 . S
C1245 C1246 1.392 . S
C1245 C1249 1.495 . S
C1246 C1245 1.392 . S
C1246 C1247 1.385 . S
C1246 C1248 1.478 . S
C1247 H1241 0.930 . S
C1247 C1243 1.400 . S
C1247 C1246 1.385 . S
C1248 C1246 1.478 . S
C1248 C1250 1.381 . S
C1248 C1254 1.383 1_455 S
C1249 C1245 1.495 . S
C1249 H1255 0.959 . S
C1249 H1256 0.961 . S
C1249 H1257 0.960 . S
C1250 C1248 1.381 . S
C1250 C1251 1.394 . S
C1250 H1258 0.930 . S
C1251 C1250 1.394 . S
C1251 C1252 1.383 . S
C1251 H1259 0.929 . S
C1252 C1251 1.383 . S
C1252 C1253 1.377 1_455 S
C1253 H1237 0.930 . S
C1253 C1252 1.377 1_655 S
C1253 C1254 1.379 . S
C1254 H1238 0.931 . S
C1254 C1248 1.383 1_655 S
C1254 C1253 1.379 . S
H1255 C1249 0.959 . S
H1256 C1249 0.961 . S
H1257 C1249 0.960 . S
H1258 C1250 0.930 . S
H1259 C1251 0.929 . S
H1260 C1268 0.929 . S
H1261 C1270 0.930 1_565 S
H1262 C1272 0.930 . S
H1263 C1275 0.929 . S
H1264 C1278 0.930 . S
H1265 C1280 0.960 . S
H1266 C1280 0.960 . S
H1267 C1280 0.960 . S
C1268 H1260 0.929 . S
C1268 C1269 1.377 . S
C1268 C1270 1.384 . S
C1269 C1268 1.377 . S
C1269 C1275 1.390 . S
C1270 H1261 0.930 1_545 S
C1270 C1268 1.384 . S
C1270 C1271 1.372 . S
C1271 C1270 1.372 . S
C1271 C1272 1.400 . S
C1271 C1276 1.490 . S
C1272 H1262 0.930 . S
C1272 C1271 1.400 . S
C1272 C1275 1.386 . S
H1273 C1289 0.930 . S
H1274 C1290 0.931 . S
C1275 H1263 0.929 . S
C1275 C1269 1.390 . S
C1275 C1272 1.386 . S
C1276 C1271 1.490 . S
C1276 C1278 1.395 . S
C1276 C1279 1.403 . S
H1277 C1283 0.930 . S
C1278 H1264 0.930 . S
C1278 C1276 1.395 . S
C1278 C1281 1.403 . S
C1279 C1276 1.403 . S
C1279 C1280 1.524 . S
C1279 C1283 1.400 . S
C1280 H1265 0.960 . S
C1280 H1266 0.960 . S
C1280 H1267 0.960 . S
C1280 C1279 1.524 . S
C1281 C1278 1.403 . S
C1281 C1282 1.392 . S
C1281 C1285 1.495 . S
C1282 C1281 1.392 . S
C1282 C1283 1.385 . S
C1282 C1284 1.478 . S
C1283 H1277 0.930 . S
C1283 C1279 1.400 . S
C1283 C1282 1.385 . S
C1284 C1282 1.478 . S
C1284 C1286 1.381 . S
C1284 C1290 1.383 . S
C1285 C1281 1.495 . S
C1285 H1291 0.959 . S
C1285 H1292 0.961 . S
C1285 H1293 0.945 1_545 S
C1286 C1284 1.381 . S
C1286 C1287 1.394 . S
C1286 H1294 0.930 1_545 S
C1287 C1286 1.394 . S
C1287 C1288 1.383 . S
C1287 H1295 0.929 1_545 S
C1288 C1287 1.383 . S
C1288 C1289 1.377 . S
C1289 H1273 0.930 . S
C1289 C1288 1.377 . S
C1289 C1290 1.379 . S
C1290 H1274 0.931 . S
C1290 C1284 1.383 . S
C1290 C1289 1.379 . S
H1291 C1285 0.959 . S
H1292 C1285 0.961 . S
H1293 C1285 0.945 1_565 S
H1294 C1286 0.930 1_565 S
H1295 C1287 0.929 1_565 S
H1296 C1304 0.929 . S
H1297 C1306 0.930 . S
H1298 C1308 0.930 . S
H1299 C1311 0.929 . S
H1300 C1314 0.930 . S
H1301 C1316 0.960 . S
H1302 C1316 0.960 . S
H1303 C1316 0.960 . S
C1304 H1296 0.929 . S
C1304 C1305 1.377 . S
C1304 C1306 1.384 . S
C1305 C1304 1.377 . S
C1305 C1311 1.390 . S
C1306 H1297 0.930 . S
C1306 C1304 1.384 . S
C1306 C1307 1.372 . S
C1307 C1306 1.372 . S
C1307 C1308 1.400 . S
C1307 C1312 1.490 . S
C1308 H1298 0.930 . S
C1308 C1307 1.400 . S
C1308 C1311 1.386 . S
H1309 C1325 0.930 . S
H1310 C1326 0.931 . S
C1311 H1299 0.929 . S
C1311 C1305 1.390 . S
C1311 C1308 1.386 . S
C1312 C1307 1.490 . S
C1312 C1314 1.395 . S
C1312 C1315 1.403 . S
H1313 C1319 0.930 . S
C1314 H1300 0.930 . S
C1314 C1312 1.395 . S
C1314 C1317 1.403 . S
C1315 C1312 1.403 . S
C1315 C1316 1.524 1_455 S
C1315 C1319 1.400 . S
C1316 H1301 0.960 . S
C1316 H1302 0.960 . S
C1316 H1303 0.960 . S
C1316 C1315 1.524 1_655 S
C1317 C1314 1.403 . S
C1317 C1318 1.392 . S
C1317 C1321 1.495 . S
C1318 C1317 1.392 . S
C1318 C1319 1.385 . S
C1318 C1320 1.478 . S
C1319 H1313 0.930 . S
C1319 C1315 1.400 . S
C1319 C1318 1.385 . S
C1320 C1318 1.478 . S
C1320 C1322 1.381 . S
C1320 C1326 1.383 . S
C1321 C1317 1.495 . S
C1321 H1327 0.959 . S
C1321 H1328 0.961 . S
C1321 H1329 0.960 . S
C1322 C1320 1.381 . S
C1322 C1323 1.394 . S
C1322 H1330 0.930 . S
C1323 C1322 1.394 . S
C1323 C1324 1.383 . S
C1323 H1331 0.929 . S
C1324 C1323 1.383 . S
C1324 C1325 1.377 . S
C1325 H1309 0.930 . S
C1325 C1324 1.377 . S
C1325 C1326 1.379 . S
C1326 H1310 0.931 . S
C1326 C1320 1.383 . S
C1326 C1325 1.379 . S
H1327 C1321 0.959 . S
H1328 C1321 0.961 . S
H1329 C1321 0.960 . S
H1330 C1322 0.930 . S
H1331 C1323 0.929 . S
H1332 C1340 0.929 . S
H1333 C1342 0.930 . S
H1334 C1344 0.930 . S
H1335 C1347 0.929 . S
H1336 C1350 0.930 . S
H1337 C1352 0.960 . S
H1338 C1352 0.960 . S
H1339 C1352 0.960 . S
C1340 H1332 0.929 . S
C1340 C1341 1.377 . S
C1340 C1342 1.384 . S
C1341 C1340 1.377 . S
C1341 C1347 1.390 . S
C1342 H1333 0.930 . S
C1342 C1340 1.384 . S
C1342 C1343 1.372 . S
C1343 C1342 1.372 . S
C1343 C1344 1.400 . S
C1343 C1348 1.490 . S
C1344 H1334 0.930 . S
C1344 C1343 1.400 . S
C1344 C1347 1.386 . S
H1345 C1361 0.930 . S
H1346 C1362 0.931 . S
C1347 H1335 0.929 . S
C1347 C1341 1.390 . S
C1347 C1344 1.386 . S
C1348 C1343 1.490 . S
C1348 C1350 1.395 . S
C1348 C1351 1.403 . S
H1349 C1355 0.930 . S
C1350 H1336 0.930 . S
C1350 C1348 1.395 . S
C1350 C1353 1.403 . S
C1351 C1348 1.403 . S
C1351 C1352 1.524 . S
C1351 C1355 1.400 . S
C1352 H1337 0.960 . S
C1352 H1338 0.960 . S
C1352 H1339 0.960 . S
C1352 C1351 1.524 . S
C1353 C1350 1.403 . S
C1353 C1354 1.392 . S
C1353 C1357 1.495 . S
C1354 C1353 1.392 . S
C1354 C1355 1.385 . S
C1354 C1356 1.478 . S
C1355 H1349 0.930 . S
C1355 C1351 1.400 . S
C1355 C1354 1.385 . S
C1356 C1354 1.478 . S
C1356 C1358 1.381 . S
C1356 C1362 1.383 . S
C1357 C1353 1.495 . S
C1357 H1363 0.959 . S
C1357 H1364 0.961 . S
C1357 H1365 0.960 . S
C1358 C1356 1.381 . S
C1358 C1359 1.394 . S
C1358 H1366 0.930 1_545 S
C1359 C1358 1.394 . S
C1359 C1360 1.383 . S
C1359 H1367 0.929 1_545 S
C1360 C1359 1.383 . S
C1360 C1361 1.377 . S
C1361 H1345 0.930 . S
C1361 C1360 1.377 . S
C1361 C1362 1.379 . S
C1362 H1346 0.931 . S
C1362 C1356 1.383 . S
C1362 C1361 1.379 . S
H1363 C1357 0.959 . S
H1364 C1357 0.961 . S
H1365 C1357 0.960 . S
H1366 C1358 0.930 1_565 S
H1367 C1359 0.929 1_565 S
H1368 C1376 0.929 . S
H1369 C1378 0.930 . S
H1370 C1380 0.930 . S
H1371 C1383 0.929 . S
H1372 C1386 0.930 . S
H1373 C1388 0.960 1_655 S
H1374 C1388 0.960 1_655 S
H1375 C1388 0.960 . S
C1376 H1368 0.929 . S
C1376 C1377 1.377 . S
C1376 C1378 1.384 . S
C1377 C1376 1.377 . S
C1377 C1383 1.390 . S
C1378 H1369 0.930 . S
C1378 C1376 1.384 . S
C1378 C1379 1.372 . S
C1379 C1378 1.372 . S
C1379 C1380 1.400 . S
C1379 C1384 1.490 . S
C1380 H1370 0.930 . S
C1380 C1379 1.400 . S
C1380 C1383 1.386 . S
H1381 C1397 0.930 . S
H1382 C1398 0.931 . S
C1383 H1371 0.929 . S
C1383 C1377 1.390 . S
C1383 C1380 1.386 . S
C1384 C1379 1.490 . S
C1384 C1386 1.395 . S
C1384 C1387 1.403 . S
H1385 C1391 0.930 . S
C1386 H1372 0.930 . S
C1386 C1384 1.395 . S
C1386 C1389 1.403 . S
C1387 C1384 1.403 . S
C1387 C1388 1.524 . S
C1387 C1391 1.400 . S
C1388 H1373 0.960 1_455 S
C1388 H1374 0.960 1_455 S
C1388 H1375 0.960 . S
C1388 C1387 1.524 . S
C1389 C1386 1.403 . S
C1389 C1390 1.392 . S
C1389 C1393 1.495 . S
C1390 C1389 1.392 . S
C1390 C1391 1.385 . S
C1390 C1392 1.478 . S
C1391 H1385 0.930 . S
C1391 C1387 1.400 . S
C1391 C1390 1.385 . S
C1392 C1390 1.478 . S
C1392 C1394 1.381 . S
C1392 C1398 1.383 . S
C1393 C1389 1.495 . S
C1393 H1399 0.959 . S
C1393 H1400 0.961 . S
C1393 H1401 0.960 . S
C1394 C1392 1.381 . S
C1394 C1395 1.394 . S
C1394 H1402 0.930 . S
C1395 C1394 1.394 . S
C1395 C1396 1.383 . S
C1395 H1403 0.929 . S
C1396 C1395 1.383 . S
C1396 C1397 1.377 . S
C1397 H1381 0.930 . S
C1397 C1396 1.377 . S
C1397 C1398 1.379 . S
C1398 H1382 0.931 . S
C1398 C1392 1.383 . S
C1398 C1397 1.379 . S
H1399 C1393 0.959 . S
H1400 C1393 0.961 . S
H1401 C1393 0.960 . S
H1402 C1394 0.930 . S
H1403 C1395 0.929 . S
H1404 C1412 0.929 . S
H1405 C1414 0.930 . S
H1406 C1416 0.930 . S
H1407 C1419 0.929 . S
H1408 C1422 0.930 . S
H1409 C1424 0.960 . S
H1410 C1424 0.960 . S
H1411 C1424 0.960 . S
C1412 H1404 0.929 . S
C1412 C1413 1.377 1_565 S
C1412 C1414 1.384 . S
C1413 C1412 1.377 1_545 S
C1413 C1419 1.390 . S
C1414 H1405 0.930 . S
C1414 C1412 1.384 . S
C1414 C1415 1.372 1_565 S
C1415 C1414 1.372 1_545 S
C1415 C1416 1.400 . S
C1415 C1420 1.490 . S
C1416 H1406 0.930 . S
C1416 C1415 1.400 . S
C1416 C1419 1.386 . S
H1417 C1433 0.930 . S
H1418 C1434 0.931 . S
C1419 H1407 0.929 . S
C1419 C1413 1.390 . S
C1419 C1416 1.386 . S
C1420 C1415 1.490 . S
C1420 C1422 1.395 1_545 S
C1420 C1423 1.403 . S
H1421 C1427 0.930 . S
C1422 H1408 0.930 . S
C1422 C1420 1.395 1_565 S
C1422 C1425 1.403 . S
C1423 C1420 1.403 . S
C1423 C1424 1.524 . S
C1423 C1427 1.400 . S
C1424 H1409 0.960 . S
C1424 H1410 0.960 . S
C1424 H1411 0.960 . S
C1424 C1423 1.524 . S
C1425 C1422 1.403 . S
C1425 C1426 1.392 1_565 S
C1425 C1429 1.495 . S
C1426 C1425 1.392 1_545 S
C1426 C1427 1.385 . S
C1426 C1428 1.478 . S
C1427 H1421 0.930 . S
C1427 C1423 1.400 . S
C1427 C1426 1.385 . S
C1428 C1426 1.478 . S
C1428 C1430 1.381 1_545 S
C1428 C1434 1.383 . S
C1429 C1425 1.495 . S
C1429 H1435 0.959 . S
C1429 H1436 0.961 . S
C1429 H1437 0.960 . S
C1430 C1428 1.381 1_565 S
C1430 C1431 1.394 . S
C1430 H1438 0.930 . S
C1431 C1430 1.394 . S
C1431 C1432 1.383 1_565 S
C1431 H1439 0.929 . S
C1432 C1431 1.383 1_545 S
C1432 C1433 1.377 . S
C1433 H1417 0.930 . S
C1433 C1432 1.377 . S
C1433 C1434 1.379 . S
C1434 H1418 0.931 . S
C1434 C1428 1.383 . S
C1434 C1433 1.379 . S
H1435 C1429 0.959 . S
H1436 C1429 0.961 . S
H1437 C1429 0.960 . S
H1438 C1430 0.930 . S
H1439 C1431 0.929 . S
H1440 C1448 0.929 . S
H1441 C1450 0.930 . S
H1442 C1452 0.930 . S
H1443 C1455 0.929 . S
H1444 C1458 0.930 . S
H1445 C1460 0.960 . S
H1446 C1460 0.960 . S
H1447 C1460 0.982 . S
C1448 H1440 0.929 . S
C1448 C1449 1.377 . S
C1448 C1450 1.384 . S
C1449 C1448 1.377 . S
C1449 C1455 1.390 . S
C1450 H1441 0.930 . S
C1450 C1448 1.384 . S
C1450 C1451 1.372 . S
C1451 C1450 1.372 . S
C1451 C1452 1.400 . S
C1451 C1456 1.490 . S
C1452 H1442 0.930 . S
C1452 C1451 1.400 . S
C1452 C1455 1.386 . S
H1453 C1469 0.930 . S
H1454 C1470 0.931 . S
C1455 H1443 0.929 . S
C1455 C1449 1.390 . S
C1455 C1452 1.386 . S
C1456 C1451 1.490 . S
C1456 C1458 1.395 . S
C1456 C1459 1.403 . S
H1457 C1463 0.930 . S
C1458 H1444 0.930 . S
C1458 C1456 1.395 . S
C1458 C1461 1.403 . S
C1459 C1456 1.403 . S
C1459 C1460 1.524 . S
C1459 C1463 1.400 . S
C1460 H1445 0.960 . S
C1460 H1446 0.960 . S
C1460 H1447 0.982 . S
C1460 C1459 1.524 . S
C1461 C1458 1.403 . S
C1461 C1462 1.392 . S
C1461 C1465 1.495 . S
C1462 C1461 1.392 . S
C1462 C1463 1.385 . S
C1462 C1464 1.478 . S
C1463 H1457 0.930 . S
C1463 C1459 1.400 . S
C1463 C1462 1.385 . S
C1464 C1462 1.478 . S
C1464 C1466 1.381 . S
C1464 C1470 1.383 . S
C1465 C1461 1.495 . S
C1465 H1471 0.959 . S
C1465 H1472 0.961 . S
C1465 H1473 0.960 . S
C1466 C1464 1.381 . S
C1466 C1467 1.394 . S
C1466 H1474 0.930 . S
C1467 C1466 1.394 . S
C1467 C1468 1.383 . S
C1467 H1475 0.929 . S
C1468 C1467 1.383 . S
C1468 C1469 1.377 . S
C1469 H1453 0.930 . S
C1469 C1468 1.377 . S
C1469 C1470 1.379 . S
C1470 H1454 0.931 . S
C1470 C1464 1.383 . S
C1470 C1469 1.379 . S
H1471 C1465 0.959 . S
H1472 C1465 0.961 . S
H1473 C1465 0.960 . S
H1474 C1466 0.930 . S
H1475 C1467 0.929 . S
H1476 C1484 0.929 . S
H1477 C1486 0.930 . S
H1478 C1488 0.930 . S
H1479 C1491 0.929 . S
H1480 C1494 0.930 . S
H1481 C1496 0.960 . S
H1482 C1496 0.960 . S
H1483 C1496 0.960 . S
C1484 H1476 0.929 . S
C1484 C1485 1.377 . S
C1484 C1486 1.384 . S
C1485 C1484 1.377 . S
C1485 C1491 1.390 . S
C1486 H1477 0.930 . S
C1486 C1484 1.384 . S
C1486 C1487 1.372 . S
C1487 C1486 1.372 . S
C1487 C1488 1.400 . S
C1487 C1492 1.490 . S
C1488 H1478 0.930 . S
C1488 C1487 1.400 . S
C1488 C1491 1.386 . S
H1489 C1505 0.930 . S
H1490 C1506 0.931 . S
C1491 H1479 0.929 . S
C1491 C1485 1.390 . S
C1491 C1488 1.386 . S
C1492 C1487 1.490 . S
C1492 C1494 1.395 . S
C1492 C1495 1.403 . S
H1493 C1499 0.930 . S
C1494 H1480 0.930 . S
C1494 C1492 1.395 . S
C1494 C1497 1.403 . S
C1495 C1492 1.403 . S
C1495 C1496 1.524 . S
C1495 C1499 1.400 . S
C1496 H1481 0.960 . S
C1496 H1482 0.960 . S
C1496 H1483 0.960 . S
C1496 C1495 1.524 . S
C1497 C1494 1.403 . S
C1497 C1498 1.392 . S
C1497 C1501 1.495 . S
C1498 C1497 1.392 . S
C1498 C1499 1.385 . S
C1498 C1500 1.478 . S
C1499 H1493 0.930 . S
C1499 C1495 1.400 . S
C1499 C1498 1.385 . S
C1500 C1498 1.478 . S
C1500 C1502 1.381 . S
C1500 C1506 1.383 . S
C1501 C1497 1.495 . S
C1501 H1507 0.959 . S
C1501 H1508 0.961 . S
C1501 H1509 0.960 . S
C1502 C1500 1.381 . S
C1502 C1503 1.394 . S
C1502 H1510 0.928 . S
C1503 C1502 1.394 . S
C1503 C1504 1.383 . S
C1503 H1511 0.929 1_545 S
C1504 C1503 1.383 . S
C1504 C1505 1.377 . S
C1505 H1489 0.930 . S
C1505 C1504 1.377 . S
C1505 C1506 1.379 . S
C1506 H1490 0.931 . S
C1506 C1500 1.383 . S
C1506 C1505 1.379 . S
H1507 C1501 0.959 . S
H1508 C1501 0.961 . S
H1509 C1501 0.960 . S
H1510 C1502 0.928 . S
H1511 C1503 0.929 1_565 S
H1512 C1520 0.929 . S
H1513 C1522 0.930 . S
H1514 C1524 0.947 . S
H1515 C1527 0.929 1_655 S
H1516 C1530 0.930 . S
H1517 C1532 0.960 . S
H1518 C1532 0.960 . S
H1519 C1532 0.960 . S
C1520 H1512 0.929 . S
C1520 C1521 1.377 . S
C1520 C1522 1.384 . S
C1521 C1520 1.377 . S
C1521 C1527 1.390 . S
C1522 H1513 0.930 . S
C1522 C1520 1.384 . S
C1522 C1523 1.372 . S
C1523 C1522 1.372 . S
C1523 C1524 1.400 . S
C1523 C1528 1.490 . S
C1524 H1514 0.947 . S
C1524 C1523 1.400 . S
C1524 C1527 1.386 . S
H1525 C1541 0.930 . S
H1526 C1542 0.931 . S
C1527 H1515 0.929 1_455 S
C1527 C1521 1.390 . S
C1527 C1524 1.386 . S
C1528 C1523 1.490 . S
C1528 C1530 1.395 . S
C1528 C1531 1.403 . S
H1529 C1535 0.930 . S
C1530 H1516 0.930 . S
C1530 C1528 1.395 . S
C1530 C1533 1.403 . S
C1531 C1528 1.403 . S
C1531 C1532 1.524 . S
C1531 C1535 1.400 . S
C1532 H1517 0.960 . S
C1532 H1518 0.960 . S
C1532 H1519 0.960 . S
C1532 C1531 1.524 . S
C1533 C1530 1.403 . S
C1533 C1534 1.392 . S
C1533 C1537 1.495 . S
C1534 C1533 1.392 . S
C1534 C1535 1.385 . S
C1534 C1536 1.478 . S
C1535 H1529 0.930 . S
C1535 C1531 1.400 . S
C1535 C1534 1.385 . S
C1536 C1534 1.478 . S
C1536 C1538 1.381 . S
C1536 C1542 1.383 . S
C1537 C1533 1.495 . S
C1537 H1543 0.959 . S
C1537 H1544 0.961 . S
C1537 H1545 0.960 . S
C1538 C1536 1.381 . S
C1538 C1539 1.394 . S
C1538 H1546 0.930 . S
C1539 C1538 1.394 . S
C1539 C1540 1.383 . S
C1539 H1547 0.929 . S
C1540 C1539 1.383 . S
C1540 C1541 1.377 . S
C1541 H1525 0.930 . S
C1541 C1540 1.377 . S
C1541 C1542 1.379 . S
C1542 H1526 0.931 . S
C1542 C1536 1.383 . S
C1542 C1541 1.379 . S
H1543 C1537 0.959 . S
H1544 C1537 0.961 . S
H1545 C1537 0.960 . S
H1546 C1538 0.930 . S
H1547 C1539 0.929 . S
H1548 C1556 0.939 . S
H1549 C1558 0.928 1_565 S
H1550 C1560 0.930 . S
H1551 C1563 0.929 . S
H1552 C1566 0.930 . S
H1553 C1568 0.960 . S
H1554 C1568 0.960 . S
H1555 C1568 0.960 . S
C1556 H1548 0.939 . S
C1556 C1557 1.373 1_565 S
C1556 C1558 1.381 1_565 S
C1557 C1556 1.373 1_545 S
C1557 C1563 1.390 . S
C1558 H1549 0.928 1_545 S
C1558 C1556 1.381 1_545 S
C1558 C1559 1.372 . S
C1559 C1558 1.372 . S
C1559 C1560 1.400 . S
C1559 C1564 1.490 . S
C1560 H1550 0.930 . S
C1560 C1559 1.400 . S
C1560 C1563 1.386 . S
H1561 C1577 0.930 . S
H1562 C1578 0.931 . S
C1563 H1551 0.929 . S
C1563 C1557 1.390 . S
C1563 C1560 1.386 . S
C1564 C1559 1.490 . S
C1564 C1566 1.395 . S
C1564 C1567 1.403 1_545 S
H1565 C1571 0.930 . S
C1566 H1552 0.930 . S
C1566 C1564 1.395 . S
C1566 C1569 1.403 . S
C1567 C1564 1.403 1_565 S
C1567 C1568 1.524 . S
C1567 C1571 1.400 . S
C1568 H1553 0.960 . S
C1568 H1554 0.960 . S
C1568 H1555 0.960 . S
C1568 C1567 1.524 . S
C1569 C1566 1.403 . S
C1569 C1570 1.392 . S
C1569 C1573 1.495 . S
C1570 C1569 1.392 . S
C1570 C1571 1.385 1_545 S
C1570 C1572 1.478 . S
C1571 H1565 0.930 . S
C1571 C1567 1.400 . S
C1571 C1570 1.385 1_565 S
C1572 C1570 1.478 . S
C1572 C1574 1.381 . S
C1572 C1578 1.383 . S
C1573 C1569 1.495 . S
C1573 H1579 0.959 . S
C1573 H1580 0.961 . S
C1573 H1581 0.960 . S
C1574 C1572 1.381 . S
C1574 C1575 1.394 . S
C1574 H1582 0.930 . S
C1575 C1574 1.394 . S
C1575 C1576 1.383 . S
C1575 H1583 0.929 . S
C1576 C1575 1.383 . S
C1576 C1577 1.377 . S
C1577 H1561 0.930 . S
C1577 C1576 1.377 . S
C1577 C1578 1.379 . S
C1578 H1562 0.931 . S
C1578 C1572 1.383 . S
C1578 C1577 1.379 . S
H1579 C1573 0.959 . S
H1580 C1573 0.961 . S
H1581 C1573 0.960 . S
H1582 C1574 0.930 . S
H1583 C1575 0.929 . S
H1584 C1592 0.929 . S
H1585 C1594 0.930 . S
H1586 C1596 0.930 . S
H1587 C1599 0.929 . S
H1588 C1602 0.930 . S
H1589 C1604 0.960 . S
H1590 C1604 0.960 . S
H1591 C1604 0.960 . S
C1592 H1584 0.929 . S
C1592 C1593 1.377 1_655 S
C1592 C1594 1.384 . S
C1593 C1592 1.377 1_455 S
C1593 C1599 1.390 . S
C1594 H1585 0.930 . S
C1594 C1592 1.384 . S
C1594 C1595 1.372 1_655 S
C1595 C1594 1.372 1_455 S
C1595 C1596 1.400 . S
C1595 C1600 1.490 . S
C1596 H1586 0.930 . S
C1596 C1595 1.400 . S
C1596 C1599 1.386 . S
H1597 C1613 0.930 . S
H1598 C1614 0.931 . S
C1599 H1587 0.929 . S
C1599 C1593 1.390 . S
C1599 C1596 1.386 . S
C1600 C1595 1.490 . S
C1600 C1602 1.395 1_455 S
C1600 C1603 1.403 . S
H1601 C1607 0.930 . S
C1602 H1588 0.930 . S
C1602 C1600 1.395 1_655 S
C1602 C1605 1.403 . S
C1603 C1600 1.403 . S
C1603 C1604 1.524 . S
C1603 C1607 1.400 . S
C1604 H1589 0.960 . S
C1604 H1590 0.960 . S
C1604 H1591 0.960 . S
C1604 C1603 1.524 . S
C1605 C1602 1.403 . S
C1605 C1606 1.392 1_655 S
C1605 C1609 1.495 . S
C1606 C1605 1.392 1_455 S
C1606 C1607 1.385 . S
C1606 C1608 1.478 . S
C1607 H1601 0.930 . S
C1607 C1603 1.400 . S
C1607 C1606 1.385 . S
C1608 C1606 1.478 . S
C1608 C1610 1.381 . S
C1608 C1614 1.383 . S
C1609 C1605 1.495 . S
C1609 H1615 0.959 . S
C1609 H1616 0.961 . S
C1609 H1617 0.960 . S
C1610 C1608 1.381 . S
C1610 C1611 1.394 . S
C1610 H1618 0.949 . S
C1611 C1610 1.394 . S
C1611 C1612 1.383 . S
C1611 H1619 0.929 . S
C1612 C1611 1.383 . S
C1612 C1613 1.377 . S
C1613 H1597 0.930 . S
C1613 C1612 1.377 . S
C1613 C1614 1.379 . S
C1614 H1598 0.931 . S
C1614 C1608 1.383 . S
C1614 C1613 1.379 . S
H1615 C1609 0.959 . S
H1616 C1609 0.961 . S
H1617 C1609 0.960 . S
H1618 C1610 0.949 . S
H1619 C1611 0.929 . S
H1620 C1628 0.929 . S
H1621 C1630 0.930 . S
H1622 C1632 0.930 . S
H1623 C1635 0.929 . S
H1624 C1638 0.930 . S
H1625 C1640 0.960 . S
H1626 C1640 0.960 . S
H1627 C1640 0.960 1_545 S
C1628 H1620 0.929 . S
C1628 C1629 1.377 1_565 S
C1628 C1630 1.384 . S
C1629 C1628 1.377 1_545 S
C1629 C1635 1.390 . S
C1630 H1621 0.930 . S
C1630 C1628 1.384 . S
C1630 C1631 1.372 1_565 S
C1631 C1630 1.372 1_545 S
C1631 C1632 1.400 . S
C1631 C1636 1.490 . S
C1632 H1622 0.930 . S
C1632 C1631 1.400 . S
C1632 C1635 1.386 . S
H1633 C1649 0.930 . S
H1634 C1650 0.931 . S
C1635 H1623 0.929 . S
C1635 C1629 1.390 . S
C1635 C1632 1.386 . S
C1636 C1631 1.490 . S
C1636 C1638 1.395 . S
C1636 C1639 1.403 . S
H1637 C1643 0.930 . S
C1638 H1624 0.930 . S
C1638 C1636 1.395 . S
C1638 C1641 1.403 . S
C1639 C1636 1.403 . S
C1639 C1640 1.524 1_545 S
C1639 C1643 1.400 . S
C1640 H1625 0.960 . S
C1640 H1626 0.960 . S
C1640 H1627 0.960 1_565 S
C1640 C1639 1.524 1_565 S
C1641 C1638 1.403 . S
C1641 C1642 1.392 . S
C1641 C1645 1.495 . S
C1642 C1641 1.392 . S
C1642 C1643 1.385 . S
C1642 C1644 1.478 . S
C1643 H1637 0.930 . S
C1643 C1639 1.400 . S
C1643 C1642 1.385 . S
C1644 C1642 1.478 . S
C1644 C1646 1.381 . S
C1644 C1650 1.383 . S
C1645 C1641 1.495 . S
C1645 H1651 0.959 . S
C1645 H1652 0.961 . S
C1645 H1653 0.960 . S
C1646 C1644 1.381 . S
C1646 C1647 1.394 . S
C1646 H1654 0.930 1_545 S
C1647 C1646 1.394 . S
C1647 C1648 1.383 . S
C1647 H1655 0.929 1_545 S
C1648 C1647 1.383 . S
C1648 C1649 1.377 . S
C1649 H1633 0.930 . S
C1649 C1648 1.377 . S
C1649 C1650 1.379 . S
C1650 H1634 0.931 . S
C1650 C1644 1.383 . S
C1650 C1649 1.379 . S
H1651 C1645 0.959 . S
H1652 C1645 0.961 . S
H1653 C1645 0.960 . S
H1654 C1646 0.930 1_565 S
H1655 C1647 0.929 1_565 S
H1656 C1664 0.929 . S
H1657 C1666 0.930 . S
H1658 C1668 0.930 1_655 S
H1659 C1671 0.929 1_655 S
H1660 C1674 0.930 . S
H1661 C1676 0.960 1_655 S
H1662 C1676 0.960 . S
H1663 C1676 0.960 1_655 S
C1664 H1656 0.929 . S
C1664 C1665 1.377 . S
C1664 C1666 1.384 . S
C1665 C1664 1.377 . S
C1665 C1671 1.390 . S
C1666 H1657 0.930 . S
C1666 C1664 1.384 . S
C1666 C1667 1.372 . S
C1667 C1666 1.372 . S
C1667 C1668 1.400 . S
C1667 C1672 1.490 . S
C1668 H1658 0.930 1_455 S
C1668 C1667 1.400 . S
C1668 C1671 1.386 . S
H1669 C1685 0.930 1_655 S
H1670 C1686 0.931 1_655 S
C1671 H1659 0.929 1_455 S
C1671 C1665 1.390 . S
C1671 C1668 1.386 . S
C1672 C1667 1.490 . S
C1672 C1674 1.395 . S
C1672 C1675 1.403 . S
H1673 C1679 0.930 . S
C1674 H1660 0.930 . S
C1674 C1672 1.395 . S
C1674 C1677 1.403 . S
C1675 C1672 1.403 . S
C1675 C1676 1.524 . S
C1675 C1679 1.400 . S
C1676 H1661 0.960 1_455 S
C1676 H1662 0.960 . S
C1676 H1663 0.960 1_455 S
C1676 C1675 1.524 . S
C1677 C1674 1.403 . S
C1677 C1678 1.392 . S
C1677 C1681 1.495 . S
C1678 C1677 1.392 . S
C1678 C1679 1.385 . S
C1678 C1680 1.478 . S
C1679 H1673 0.930 . S
C1679 C1675 1.400 . S
C1679 C1678 1.385 . S
C1680 C1678 1.478 . S
C1680 C1682 1.381 . S
C1680 C1686 1.383 . S
C1681 C1677 1.495 . S
C1681 H1687 0.959 . S
C1681 H1688 0.961 . S
C1681 H1689 0.960 . S
C1682 C1680 1.381 . S
C1682 C1683 1.394 . S
C1682 H1690 0.930 . S
C1683 C1682 1.394 . S
C1683 C1684 1.383 . S
C1683 H1691 0.929 . S
C1684 C1683 1.383 . S
C1684 C1685 1.377 . S
C1685 H1669 0.930 1_455 S
C1685 C1684 1.377 . S
C1685 C1686 1.379 . S
C1686 H1670 0.931 1_455 S
C1686 C1680 1.383 . S
C1686 C1685 1.379 . S
H1687 C1681 0.959 . S
H1688 C1681 0.961 . S
H1689 C1681 0.960 . S
H1690 C1682 0.930 . S
H1691 C1683 0.929 . S
H1692 C1700 0.929 . S
H1693 C1702 0.930 . S
H1694 C1704 0.930 . S
H1695 C1707 0.929 . S
H1696 C1710 0.930 . S
H1697 C1712 0.960 . S
H1698 C1712 0.960 . S
H1699 C1712 0.960 . S
C1700 H1692 0.929 . S
C1700 C1701 1.377 . S
C1700 C1702 1.384 . S
C1701 C1700 1.377 . S
C1701 C1707 1.390 . S
C1702 H1693 0.930 . S
C1702 C1700 1.384 . S
C1702 C1703 1.372 . S
C1703 C1702 1.372 . S
C1703 C1704 1.400 . S
C1703 C1708 1.490 . S
C1704 H1694 0.930 . S
C1704 C1703 1.400 . S
C1704 C1707 1.386 . S
H1705 C1721 0.930 . S
H1706 C1722 0.931 . S
C1707 H1695 0.929 . S
C1707 C1701 1.390 . S
C1707 C1704 1.386 . S
C1708 C1703 1.490 . S
C1708 C1710 1.395 . S
C1708 C1711 1.403 . S
H1709 C1715 0.930 . S
C1710 H1696 0.930 . S
C1710 C1708 1.395 . S
C1710 C1713 1.403 . S
C1711 C1708 1.403 . S
C1711 C1712 1.524 . S
C1711 C1715 1.400 . S
C1712 H1697 0.960 . S
C1712 H1698 0.960 . S
C1712 H1699 0.960 . S
C1712 C1711 1.524 . S
C1713 C1710 1.403 . S
C1713 C1714 1.392 . S
C1713 C1717 1.495 . S
C1714 C1713 1.392 . S
C1714 C1715 1.385 . S
C1714 C1716 1.478 . S
C1715 H1709 0.930 . S
C1715 C1711 1.400 . S
C1715 C1714 1.385 . S
C1716 C1714 1.478 . S
C1716 C1718 1.381 . S
C1716 C1722 1.383 . S
C1717 C1713 1.495 . S
C1717 H1723 0.959 . S
C1717 H1724 0.961 . S
C1717 H1725 0.960 . S
C1718 C1716 1.381 . S
C1718 C1719 1.394 . S
C1718 H1726 0.930 1_545 S
C1719 C1718 1.394 . S
C1719 C1720 1.383 . S
C1719 H1727 0.929 1_545 S
C1720 C1719 1.383 . S
C1720 C1721 1.377 . S
C1721 H1705 0.930 . S
C1721 C1720 1.377 . S
C1721 C1722 1.379 . S
C1722 H1706 0.931 . S
C1722 C1716 1.383 . S
C1722 C1721 1.379 . S
H1723 C1717 0.959 . S
H1724 C1717 0.961 . S
H1725 C1717 0.960 . S
H1726 C1718 0.930 1_565 S
H1727 C1719 0.929 1_565 S
H1728 C1736 0.929 . S
H1729 C1738 0.930 . S
H1730 C1740 0.930 . S
H1731 C1743 0.929 . S
H1732 C1746 0.930 . S
H1733 C1748 0.960 . S
H1734 C1748 0.960 1_545 S
H1735 C1748 0.960 . S
C1736 H1728 0.929 . S
C1736 C1737 1.377 . S
C1736 C1738 1.384 . S
C1737 C1736 1.377 . S
C1737 C1743 1.390 1_545 S
C1738 H1729 0.930 . S
C1738 C1736 1.384 . S
C1738 C1739 1.372 . S
C1739 C1738 1.372 . S
C1739 C1740 1.400 1_545 S
C1739 C1744 1.490 . S
C1740 H1730 0.930 . S
C1740 C1739 1.400 1_565 S
C1740 C1743 1.386 . S
H1741 C1757 0.930 . S
H1742 C1758 0.931 . S
C1743 H1731 0.929 . S
C1743 C1737 1.390 1_565 S
C1743 C1740 1.386 . S
C1744 C1739 1.490 . S
C1744 C1746 1.395 . S
C1744 C1747 1.390 1_545 S
H1745 C1751 0.920 1_565 S
C1746 H1732 0.930 . S
C1746 C1744 1.395 . S
C1746 C1749 1.403 . S
C1747 C1744 1.390 1_565 S
C1747 C1748 1.539 . S
C1747 C1751 1.397 1_565 S
C1748 H1733 0.960 . S
C1748 H1734 0.960 1_565 S
C1748 H1735 0.960 . S
C1748 C1747 1.539 . S
C1749 C1746 1.403 . S
C1749 C1750 1.392 . S
C1749 C1753 1.495 . S
C1750 C1749 1.392 . S
C1750 C1751 1.398 . S
C1750 C1752 1.478 . S
C1751 H1745 0.920 1_545 S
C1751 C1747 1.397 1_545 S
C1751 C1750 1.398 . S
C1752 C1750 1.478 . S
C1752 C1754 1.381 . S
C1752 C1758 1.383 1_545 S
C1753 C1749 1.495 . S
C1753 H1759 0.959 . S
C1753 H1760 0.961 . S
C1753 H1761 0.960 . S
C1754 C1752 1.381 . S
C1754 C1755 1.394 . S
C1754 H1762 0.930 . S
C1755 C1754 1.394 . S
C1755 C1756 1.383 . S
C1755 H1763 0.929 . S
C1756 C1755 1.383 . S
C1756 C1757 1.377 1_545 S
C1757 H1741 0.930 . S
C1757 C1756 1.377 1_565 S
C1757 C1758 1.379 . S
C1758 H1742 0.931 . S
C1758 C1752 1.383 1_565 S
C1758 C1757 1.379 . S
H1759 C1753 0.959 . S
H1760 C1753 0.961 . S
H1761 C1753 0.960 . S
H1762 C1754 0.930 . S
H1763 C1755 0.929 . S
H1764 C1772 0.929 . S
H1765 C1774 0.930 . S
H1766 C1776 0.930 1_655 S
H1767 C1779 0.910 1_655 S
H1768 C1782 0.930 . S
H1769 C1784 0.960 . S
H1770 C1784 0.960 . S
H1771 C1784 0.974 . S
C1772 H1764 0.929 . S
C1772 C1773 1.377 . S
C1772 C1774 1.384 . S
C1773 C1772 1.377 . S
C1773 C1779 1.390 . S
C1774 H1765 0.930 . S
C1774 C1772 1.384 . S
C1774 C1775 1.372 . S
C1775 C1774 1.372 . S
C1775 C1776 1.400 . S
C1775 C1780 1.490 . S
C1776 H1766 0.930 1_455 S
C1776 C1775 1.400 . S
C1776 C1779 1.386 . S
H1777 C1793 0.930 . S
H1778 C1794 0.931 . S
C1779 H1767 0.910 1_455 S
C1779 C1773 1.390 . S
C1779 C1776 1.386 . S
C1780 C1775 1.490 . S
C1780 C1782 1.395 . S
C1780 C1783 1.403 . S
H1781 C1787 0.930 . S
C1782 H1768 0.930 . S
C1782 C1780 1.395 . S
C1782 C1785 1.403 . S
C1783 C1780 1.403 . S
C1783 C1784 1.524 . S
C1783 C1787 1.400 . S
C1784 H1769 0.960 . S
C1784 H1770 0.960 . S
C1784 H1771 0.974 . S
C1784 C1783 1.524 . S
C1785 C1782 1.403 . S
C1785 C1786 1.392 . S
C1785 C1789 1.495 . S
C1786 C1785 1.392 . S
C1786 C1787 1.385 . S
C1786 C1788 1.478 . S
C1787 H1781 0.930 . S
C1787 C1783 1.400 . S
C1787 C1786 1.385 . S
C1788 C1786 1.478 . S
C1788 C1790 1.381 . S
C1788 C1794 1.383 1_455 S
C1789 C1785 1.495 . S
C1789 H1795 0.959 . S
C1789 H1796 0.961 . S
C1789 H1797 0.960 . S
C1790 C1788 1.381 . S
C1790 C1791 1.394 . S
C1790 H1798 0.930 . S
C1791 C1790 1.394 . S
C1791 C1792 1.383 . S
C1791 H1799 0.929 . S
C1792 C1791 1.383 . S
C1792 C1793 1.377 1_455 S
C1793 H1777 0.930 . S
C1793 C1792 1.377 1_655 S
C1793 C1794 1.379 . S
C1794 H1778 0.931 . S
C1794 C1788 1.383 1_655 S
C1794 C1793 1.379 . S
H1795 C1789 0.959 . S
H1796 C1789 0.961 . S
H1797 C1789 0.960 . S
H1798 C1790 0.930 . S
H1799 C1791 0.929 . S
H1800 C1808 0.929 . S
H1801 C1810 0.930 . S
H1802 C1812 0.930 . S
H1803 C1815 0.929 . S
H1804 C1818 0.930 . S
H1805 C1820 0.960 . S
H1806 C1820 0.960 . S
H1807 C1820 0.960 . S
C1808 H1800 0.929 . S
C1808 C1809 1.377 . S
C1808 C1810 1.384 . S
C1809 C1808 1.377 . S
C1809 C1815 1.390 . S
C1810 H1801 0.930 . S
C1810 C1808 1.384 . S
C1810 C1811 1.372 . S
C1811 C1810 1.372 . S
C1811 C1812 1.400 . S
C1811 C1816 1.490 . S
C1812 H1802 0.930 . S
C1812 C1811 1.400 . S
C1812 C1815 1.386 . S
H1813 C1829 0.930 . S
H1814 C1830 0.931 . S
C1815 H1803 0.929 . S
C1815 C1809 1.390 . S
C1815 C1812 1.386 . S
C1816 C1811 1.490 . S
C1816 C1818 1.395 . S
C1816 C1819 1.403 . S
H1817 C1823 0.930 . S
C1818 H1804 0.930 . S
C1818 C1816 1.395 . S
C1818 C1821 1.403 . S
C1819 C1816 1.403 . S
C1819 C1820 1.524 . S
C1819 C1823 1.400 . S
C1820 H1805 0.960 . S
C1820 H1806 0.960 . S
C1820 H1807 0.960 . S
C1820 C1819 1.524 . S
C1821 C1818 1.403 . S
C1821 C1822 1.392 . S
C1821 C1825 1.495 . S
C1822 C1821 1.392 . S
C1822 C1823 1.385 . S
C1822 C1824 1.478 . S
C1823 H1817 0.930 . S
C1823 C1819 1.400 . S
C1823 C1822 1.385 . S
C1824 C1822 1.478 . S
C1824 C1826 1.381 . S
C1824 C1830 1.383 . S
C1825 C1821 1.495 . S
C1825 H1831 0.959 . S
C1825 H1832 0.961 . S
C1825 H1833 0.960 . S
C1826 C1824 1.381 . S
C1826 C1827 1.394 . S
C1826 H1834 0.930 1_545 S
C1827 C1826 1.394 . S
C1827 C1828 1.383 . S
C1827 H1835 0.929 1_545 S
C1828 C1827 1.383 . S
C1828 C1829 1.377 . S
C1829 H1813 0.930 . S
C1829 C1828 1.377 . S
C1829 C1830 1.379 . S
C1830 H1814 0.931 . S
C1830 C1824 1.383 . S
C1830 C1829 1.379 . S
H1831 C1825 0.959 . S
H1832 C1825 0.961 . S
H1833 C1825 0.960 . S
H1834 C1826 0.930 1_565 S
H1835 C1827 0.929 1_565 S
H1836 C1844 0.929 1_655 S
H1837 C1846 0.930 1_655 S
H1838 C1848 0.930 . S
H1839 C1851 0.929 . S
H1840 C1854 0.930 . S
H1841 C1856 0.960 . S
H1842 C1856 0.960 . S
H1843 C1856 0.960 1_455 S
C1844 H1836 0.929 1_455 S
C1844 C1845 1.377 . S
C1844 C1846 1.384 . S
C1845 C1844 1.377 . S
C1845 C1851 1.390 . S
C1846 H1837 0.930 1_455 S
C1846 C1844 1.384 . S
C1846 C1847 1.372 . S
C1847 C1846 1.372 . S
C1847 C1848 1.400 . S
C1847 C1852 1.490 . S
C1848 H1838 0.930 . S
C1848 C1847 1.400 . S
C1848 C1851 1.386 . S
H1849 C1865 0.930 . S
H1850 C1866 0.931 . S
C1851 H1839 0.929 . S
C1851 C1845 1.390 . S
C1851 C1848 1.386 . S
C1852 C1847 1.490 . S
C1852 C1854 1.395 . S
C1852 C1855 1.403 . S
H1853 C1859 0.931 . S
C1854 H1840 0.930 . S
C1854 C1852 1.395 . S
C1854 C1857 1.403 . S
C1855 C1852 1.403 . S
C1855 C1856 1.524 1_455 S
C1855 C1859 1.400 . S
C1856 H1841 0.960 . S
C1856 H1842 0.960 . S
C1856 H1843 0.960 1_655 S
C1856 C1855 1.524 1_655 S
C1857 C1854 1.403 . S
C1857 C1858 1.392 . S
C1857 C1861 1.495 . S
C1858 C1857 1.392 . S
C1858 C1859 1.385 . S
C1858 C1860 1.478 . S
C1859 H1853 0.931 . S
C1859 C1855 1.400 . S
C1859 C1858 1.385 . S
C1860 C1858 1.478 . S
C1860 C1862 1.381 1_455 S
C1860 C1866 1.383 . S
C1861 C1857 1.495 . S
C1861 H1867 0.959 . S
C1861 H1868 0.961 . S
C1861 H1869 0.960 . S
C1862 C1860 1.381 1_655 S
C1862 C1863 1.394 . S
C1862 H1870 0.930 . S
C1863 C1862 1.394 . S
C1863 C1864 1.383 1_655 S
C1863 H1871 0.929 . S
C1864 C1863 1.383 1_455 S
C1864 C1865 1.377 . S
C1865 H1849 0.930 . S
C1865 C1864 1.377 . S
C1865 C1866 1.379 . S
C1866 H1850 0.931 . S
C1866 C1860 1.383 . S
C1866 C1865 1.379 . S
H1867 C1861 0.959 . S
H1868 C1861 0.961 . S
H1869 C1861 0.960 . S
H1870 C1862 0.930 . S
H1871 C1863 0.929 . S
H1872 C1880 0.929 . S
H1873 C1882 0.930 . S
H1874 C1884 0.930 . S
H1875 C1887 0.929 . S
H1876 C1890 0.930 . S
H1877 C1892 0.960 . S
H1878 C1892 0.960 . S
H1879 C1892 0.960 . S
C1880 H1872 0.929 . S
C1880 C1881 1.377 . S
C1880 C1882 1.384 . S
C1881 C1880 1.377 . S
C1881 C1887 1.390 1_545 S
C1882 H1873 0.930 . S
C1882 C1880 1.384 . S
C1882 C1883 1.372 . S
C1883 C1882 1.372 . S
C1883 C1884 1.400 1_545 S
C1883 C1888 1.490 . S
C1884 H1874 0.930 . S
C1884 C1883 1.400 1_565 S
C1884 C1887 1.386 . S
H1885 C1901 0.930 . S
H1886 C1902 0.931 . S
C1887 H1875 0.929 . S
C1887 C1881 1.390 1_565 S
C1887 C1884 1.386 . S
C1888 C1883 1.490 . S
C1888 C1890 1.395 . S
C1888 C1891 1.403 . S
H1889 C1895 0.930 . S
C1890 H1876 0.930 . S
C1890 C1888 1.395 . S
C1890 C1893 1.403 . S
C1891 C1888 1.403 . S
C1891 C1892 1.524 . S
C1891 C1895 1.400 . S
C1892 H1877 0.960 . S
C1892 H1878 0.960 . S
C1892 H1879 0.960 . S
C1892 C1891 1.524 . S
C1893 C1890 1.403 . S
C1893 C1894 1.392 . S
C1893 C1897 1.495 1_545 S
C1894 C1893 1.392 . S
C1894 C1895 1.385 . S
C1894 C1896 1.478 . S
C1895 H1889 0.930 . S
C1895 C1891 1.400 . S
C1895 C1894 1.385 . S
C1896 C1894 1.478 . S
C1896 C1898 1.381 . S
C1896 C1902 1.383 1_545 S
C1897 C1893 1.495 1_565 S
C1897 H1903 0.959 . S
C1897 H1904 0.961 . S
C1897 H1905 0.960 1_565 S
C1898 C1896 1.381 . S
C1898 C1899 1.394 . S
C1898 H1906 0.930 . S
C1899 C1898 1.394 . S
C1899 C1900 1.383 . S
C1899 H1907 0.929 . S
C1900 C1899 1.383 . S
C1900 C1901 1.377 1_545 S
C1901 H1885 0.930 . S
C1901 C1900 1.377 1_565 S
C1901 C1902 1.379 . S
C1902 H1886 0.931 . S
C1902 C1896 1.383 1_565 S
C1902 C1901 1.379 . S
H1903 C1897 0.959 . S
H1904 C1897 0.961 . S
H1905 C1897 0.960 1_545 S
H1906 C1898 0.930 . S
H1907 C1899 0.929 . S
H1908 C1916 0.929 . S
H1909 C1918 0.930 . S
H1910 C1920 0.930 1_655 S
H1911 C1923 0.929 1_655 S
H1912 C1926 0.930 . S
H1913 C1928 0.960 . S
H1914 C1928 0.960 . S
H1915 C1928 0.960 . S
C1916 H1908 0.929 . S
C1916 C1917 1.377 . S
C1916 C1918 1.384 . S
C1917 C1916 1.377 . S
C1917 C1923 1.390 . S
C1918 H1909 0.930 . S
C1918 C1916 1.384 . S
C1918 C1919 1.372 . S
C1919 C1918 1.372 . S
C1919 C1920 1.400 . S
C1919 C1924 1.490 . S
C1920 H1910 0.930 1_455 S
C1920 C1919 1.400 . S
C1920 C1923 1.386 . S
H1921 C1937 0.930 1_655 S
H1922 C1938 0.931 1_655 S
C1923 H1911 0.929 1_455 S
C1923 C1917 1.390 . S
C1923 C1920 1.386 . S
C1924 C1919 1.490 . S
C1924 C1926 1.395 . S
C1924 C1927 1.403 . S
H1925 C1931 0.930 . S
C1926 H1912 0.930 . S
C1926 C1924 1.395 . S
C1926 C1929 1.403 . S
C1927 C1924 1.403 . S
C1927 C1928 1.524 . S
C1927 C1931 1.400 . S
C1928 H1913 0.960 . S
C1928 H1914 0.960 . S
C1928 H1915 0.960 . S
C1928 C1927 1.524 . S
C1929 C1926 1.403 . S
C1929 C1930 1.392 . S
C1929 C1933 1.495 . S
C1930 C1929 1.392 . S
C1930 C1931 1.385 . S
C1930 C1932 1.478 . S
C1931 H1925 0.930 . S
C1931 C1927 1.400 . S
C1931 C1930 1.385 . S
C1932 C1930 1.478 . S
C1932 C1934 1.381 . S
C1932 C1938 1.383 . S
C1933 C1929 1.495 . S
C1933 H1939 0.959 . S
C1933 H1940 0.920 1_455 S
C1933 H1941 0.960 . S
C1934 C1932 1.381 . S
C1934 C1935 1.394 . S
C1934 H1942 0.930 . S
C1935 C1934 1.394 . S
C1935 C1936 1.383 . S
C1935 H1943 0.929 . S
C1936 C1935 1.383 . S
C1936 C1937 1.377 . S
C1937 H1921 0.930 1_455 S
C1937 C1936 1.377 . S
C1937 C1938 1.379 . S
C1938 H1922 0.931 1_455 S
C1938 C1932 1.383 . S
C1938 C1937 1.379 . S
H1939 C1933 0.959 . S
H1940 C1933 0.920 1_655 S
H1941 C1933 0.960 . S
H1942 C1934 0.930 . S
H1943 C1935 0.929 . S
H1944 C1952 0.929 . S
H1945 C1954 0.930 . S
H1946 C1956 0.930 . S
H1947 C1959 0.929 . S
H1948 C1962 0.930 . S
H1949 C1964 0.960 . S
H1950 C1964 0.960 . S
H1951 C1964 0.960 . S
C1952 H1944 0.929 . S
C1952 C1953 1.377 . S
C1952 C1954 1.384 . S
C1953 C1952 1.377 . S
C1953 C1959 1.390 . S
C1954 H1945 0.930 . S
C1954 C1952 1.384 . S
C1954 C1955 1.372 . S
C1955 C1954 1.372 . S
C1955 C1956 1.400 . S
C1955 C1960 1.490 . S
C1956 H1946 0.930 . S
C1956 C1955 1.400 . S
C1956 C1959 1.386 . S
H1957 C1973 0.930 1_565 S
H1958 C1974 0.921 1_565 S
C1959 H1947 0.929 . S
C1959 C1953 1.390 . S
C1959 C1956 1.386 . S
C1960 C1955 1.490 . S
C1960 C1962 1.395 . S
C1960 C1963 1.403 . S
H1961 C1967 0.930 . S
C1962 H1948 0.930 . S
C1962 C1960 1.395 . S
C1962 C1965 1.403 . S
C1963 C1960 1.403 . S
C1963 C1964 1.524 . S
C1963 C1967 1.400 . S
C1964 H1949 0.960 . S
C1964 H1950 0.960 . S
C1964 H1951 0.960 . S
C1964 C1963 1.524 . S
C1965 C1962 1.403 . S
C1965 C1966 1.392 . S
C1965 C1969 1.495 . S
C1966 C1965 1.392 . S
C1966 C1967 1.385 . S
C1966 C1968 1.478 . S
C1967 H1961 0.930 . S
C1967 C1963 1.400 . S
C1967 C1966 1.385 . S
C1968 C1966 1.478 . S
C1968 C1970 1.381 . S
C1968 C1974 1.383 . S
C1969 C1965 1.495 . S
C1969 H1975 0.959 . S
C1969 H1976 0.961 . S
C1969 H1977 0.960 . S
C1970 C1968 1.381 . S
C1970 C1971 1.394 . S
C1970 H1978 0.930 . S
C1971 C1970 1.394 . S
C1971 C1972 1.383 . S
C1971 H1979 0.929 . S
C1972 C1971 1.383 . S
C1972 C1973 1.377 . S
C1973 H1957 0.930 1_545 S
C1973 C1972 1.377 . S
C1973 C1974 1.379 . S
C1974 H1958 0.921 1_545 S
C1974 C1968 1.383 . S
C1974 C1973 1.379 . S
H1975 C1969 0.959 . S
H1976 C1969 0.961 . S
H1977 C1969 0.960 . S
H1978 C1970 0.930 . S
H1979 C1971 0.929 . S
H1980 C1988 0.929 . S
H1981 C1990 0.930 . S
H1982 C1992 0.930 . S
H1983 C1995 0.929 . S
H1984 C1998 0.930 . S
H1985 C2000 0.960 . S
H1986 C2000 0.959 1_655 S
H1987 C2000 0.960 . S
C1988 H1980 0.929 . S
C1988 C1989 1.377 . S
C1988 C1990 1.384 . S
C1989 C1988 1.377 . S
C1989 C1995 1.390 1_655 S
C1990 H1981 0.930 . S
C1990 C1988 1.384 . S
C1990 C1991 1.337 1_655 S
C1991 C1990 1.337 1_455 S
C1991 C1992 1.434 . S
C1991 C1996 1.492 . S
C1992 H1982 0.930 . S
C1992 C1991 1.434 . S
C1992 C1995 1.386 . S
H1993 C2009 0.930 . S
H1994 C2010 0.931 . S
C1995 H1983 0.929 . S
C1995 C1989 1.390 1_455 S
C1995 C1992 1.386 . S
C1996 C1991 1.492 . S
C1996 C1998 1.395 1_455 S
C1996 C1999 1.403 . S
H1997 C2003 0.930 . S
C1998 H1984 0.930 . S
C1998 C1996 1.395 1_655 S
C1998 C2001 1.403 . S
C1999 C1996 1.403 . S
C1999 C2000 1.524 . S
C1999 C2003 1.400 . S
C2000 H1985 0.960 . S
C2000 H1986 0.959 1_455 S
C2000 H1987 0.960 . S
C2000 C1999 1.524 . S
C2001 C1998 1.403 . S
C2001 C2002 1.392 1_655 S
C2001 C2005 1.495 . S
C2002 C2001 1.392 1_455 S
C2002 C2003 1.385 . S
C2002 C2004 1.478 . S
C2003 H1997 0.930 . S
C2003 C1999 1.400 . S
C2003 C2002 1.385 . S
C2004 C2002 1.478 . S
C2004 C2006 1.381 1_455 S
C2004 C2010 1.383 . S
C2005 C2001 1.495 . S
C2005 H2011 0.959 . S
C2005 H2012 0.961 1_655 S
C2005 H2013 0.960 . S
C2006 C2004 1.381 1_655 S
C2006 C2007 1.394 . S
C2006 H2014 0.930 . S
C2007 C2006 1.394 . S
C2007 C2008 1.383 1_655 S
C2007 H2015 0.929 . S
C2008 C2007 1.383 1_455 S
C2008 C2009 1.377 . S
C2009 H1993 0.930 . S
C2009 C2008 1.377 . S
C2009 C2010 1.379 . S
C2010 H1994 0.931 . S
C2010 C2004 1.383 . S
C2010 C2009 1.379 . S
H2011 C2005 0.959 . S
H2012 C2005 0.961 1_455 S
H2013 C2005 0.960 . S
H2014 C2006 0.930 . S
H2015 C2007 0.929 . S
H2016 C2024 0.929 . S
H2017 C2026 0.930 . S
H2018 C2028 0.930 1_556 S
H2019 C2031 0.929 1_556 S
H2020 C2034 0.930 . S
H2021 C2036 0.960 . S
H2022 C2036 0.960 . S
H2023 C2036 0.960 . S
C2024 H2016 0.929 . S
C2024 C2025 1.377 . S
C2024 C2026 1.384 . S
C2025 C2024 1.377 . S
C2025 C2031 1.390 . S
C2026 H2017 0.930 . S
C2026 C2024 1.384 . S
C2026 C2027 1.372 . S
C2027 C2026 1.372 . S
C2027 C2028 1.400 . S
C2027 C2032 1.490 . S
C2028 H2018 0.930 1_554 S
C2028 C2027 1.400 . S
C2028 C2031 1.386 . S
H2029 C2045 0.930 1_556 S
H2030 C2046 0.931 1_556 S
C2031 H2019 0.929 1_554 S
C2031 C2025 1.390 . S
C2031 C2028 1.386 . S
C2032 C2027 1.490 . S
C2032 C2034 1.395 . S
C2032 C2035 1.403 1_554 S
H2033 C2039 0.930 . S
C2034 H2020 0.930 . S
C2034 C2032 1.395 . S
C2034 C2037 1.403 . S
C2035 C2032 1.403 1_556 S
C2035 C2036 1.524 . S
C2035 C2039 1.400 . S
C2036 H2021 0.960 . S
C2036 H2022 0.960 . S
C2036 H2023 0.960 . S
C2036 C2035 1.524 . S
C2037 C2034 1.403 . S
C2037 C2038 1.392 . S
C2037 C2041 1.495 . S
C2038 C2037 1.392 . S
C2038 C2039 1.385 1_554 S
C2038 C2040 1.478 . S
C2039 H2033 0.930 . S
C2039 C2035 1.400 . S
C2039 C2038 1.385 1_556 S
C2040 C2038 1.478 . S
C2040 C2042 1.381 . S
C2040 C2046 1.383 . S
C2041 C2037 1.495 . S
C2041 H2047 0.959 . S
C2041 H2048 0.961 . S
C2041 H2049 0.960 . S
C2042 C2040 1.381 . S
C2042 C2043 1.394 . S
C2042 H2050 0.930 . S
C2043 C2042 1.394 . S
C2043 C2044 1.383 . S
C2043 H2051 0.929 . S
C2044 C2043 1.383 . S
C2044 C2045 1.377 . S
C2045 H2029 0.930 1_554 S
C2045 C2044 1.377 . S
C2045 C2046 1.379 . S
C2046 H2030 0.931 1_554 S
C2046 C2040 1.383 . S
C2046 C2045 1.379 . S
H2047 C2041 0.959 . S
H2048 C2041 0.961 . S
H2049 C2041 0.960 . S
H2050 C2042 0.930 . S
H2051 C2043 0.929 . S
H2052 C2060 0.929 . S
H2053 C2062 0.930 . S
H2054 C2064 0.950 . S
H2055 C2067 0.954 . S
H2056 C2070 0.930 1_556 S
H2057 C2072 0.960 . S
H2058 C2072 0.960 . S
H2059 C2072 0.960 . S
C2060 H2052 0.929 . S
C2060 C2061 1.377 . S
C2060 C2062 1.384 . S
C2061 C2060 1.377 . S
C2061 C2067 1.367 1_554 S
C2062 H2053 0.930 . S
C2062 C2060 1.384 . S
C2062 C2063 1.372 . S
C2063 C2062 1.372 . S
C2063 C2064 1.381 1_554 S
C2063 C2068 1.490 . S
C2064 H2054 0.950 . S
C2064 C2063 1.381 1_556 S
C2064 C2067 1.386 . S
H2065 C2081 0.930 . S
H2066 C2082 0.931 . S
C2067 H2055 0.954 . S
C2067 C2061 1.367 1_556 S
C2067 C2064 1.386 . S
C2068 C2063 1.490 . S
C2068 C2070 1.395 . S
C2068 C2071 1.403 . S
H2069 C2075 0.930 . S
C2070 H2056 0.930 1_554 S
C2070 C2068 1.395 . S
C2070 C2073 1.403 . S
C2071 C2068 1.403 . S
C2071 C2072 1.524 . S
C2071 C2075 1.400 . S
C2072 H2057 0.960 . S
C2072 H2058 0.960 . S
C2072 H2059 0.960 . S
C2072 C2071 1.524 . S
C2073 C2070 1.403 . S
C2073 C2074 1.392 . S
C2073 C2077 1.495 1_554 S
C2074 C2073 1.392 . S
C2074 C2075 1.385 . S
C2074 C2076 1.478 . S
C2075 H2069 0.930 . S
C2075 C2071 1.400 . S
C2075 C2074 1.385 . S
C2076 C2074 1.478 . S
C2076 C2078 1.381 . S
C2076 C2082 1.383 1_554 S
C2077 C2073 1.495 1_556 S
C2077 H2083 0.959 . S
C2077 H2084 0.961 . S
C2077 H2085 0.960 1_556 S
C2078 C2076 1.381 . S
C2078 C2079 1.394 . S
C2078 H2086 0.930 . S
C2079 C2078 1.394 . S
C2079 C2080 1.383 . S
C2079 H2087 0.929 . S
C2080 C2079 1.383 . S
C2080 C2081 1.377 1_554 S
C2081 H2065 0.930 . S
C2081 C2080 1.377 1_556 S
C2081 C2082 1.379 . S
C2082 H2066 0.931 . S
C2082 C2076 1.383 1_556 S
C2082 C2081 1.379 . S
H2083 C2077 0.959 . S
H2084 C2077 0.961 . S
H2085 C2077 0.960 1_554 S
H2086 C2078 0.930 . S
H2087 C2079 0.929 . S
H2088 C2096 0.929 1_556 S
H2089 C2098 0.912 1_556 S
H2090 C2100 0.930 . S
H2091 C2103 0.929 . S
H2092 C2106 0.930 . S
H2093 C2108 0.960 1_556 S
H2094 C2108 0.960 1_556 S
H2095 C2108 0.960 . S
C2096 H2088 0.929 1_554 S
C2096 C2097 1.377 . S
C2096 C2098 1.385 . S
C2097 C2096 1.377 . S
C2097 C2103 1.390 . S
C2098 H2089 0.912 1_554 S
C2098 C2096 1.385 . S
C2098 C2099 1.389 . S
C2099 C2098 1.389 . S
C2099 C2100 1.400 . S
C2099 C2104 1.490 . S
C2100 H2090 0.930 . S
C2100 C2099 1.400 . S
C2100 C2103 1.386 . S
H2101 C2117 0.930 . S
H2102 C2118 0.931 . S
C2103 H2091 0.929 . S
C2103 C2097 1.390 . S
C2103 C2100 1.386 . S
C2104 C2099 1.490 . S
C2104 C2106 1.395 . S
C2104 C2107 1.403 . S
H2105 C2111 0.930 . S
C2106 H2092 0.930 . S
C2106 C2104 1.395 . S
C2106 C2109 1.403 . S
C2107 C2104 1.403 . S
C2107 C2108 1.524 . S
C2107 C2111 1.400 . S
C2108 H2093 0.960 1_554 S
C2108 H2094 0.960 1_554 S
C2108 H2095 0.960 . S
C2108 C2107 1.524 . S
C2109 C2106 1.403 . S
C2109 C2110 1.392 . S
C2109 C2113 1.495 . S
C2110 C2109 1.392 . S
C2110 C2111 1.385 . S
C2110 C2112 1.478 . S
C2111 H2105 0.930 . S
C2111 C2107 1.400 . S
C2111 C2110 1.385 . S
C2112 C2110 1.478 . S
C2112 C2114 1.381 1_554 S
C2112 C2118 1.383 . S
C2113 C2109 1.495 . S
C2113 H2119 0.959 . S
C2113 H2120 0.961 . S
C2113 H2121 0.960 . S
C2114 C2112 1.381 1_556 S
C2114 C2115 1.394 . S
C2114 H2122 0.930 . S
C2115 C2114 1.394 . S
C2115 C2116 1.383 1_556 S
C2115 H2123 0.929 . S
C2116 C2115 1.383 1_554 S
C2116 C2117 1.377 . S
C2117 H2101 0.930 . S
C2117 C2116 1.377 . S
C2117 C2118 1.379 . S
C2118 H2102 0.931 . S
C2118 C2112 1.383 . S
C2118 C2117 1.379 . S
H2119 C2113 0.959 . S
H2120 C2113 0.961 . S
H2121 C2113 0.960 . S
H2122 C2114 0.930 . S
H2123 C2115 0.929 . S
H2124 C2132 0.929 . S
H2125 C2134 0.930 . S
H2126 C2136 0.930 . S
H2127 C2139 0.929 . S
H2128 C2142 0.930 . S
H2129 C2144 0.960 . S
H2130 C2144 0.960 1_554 S
H2131 C2144 0.960 . S
C2132 H2124 0.929 . S
C2132 C2133 1.382 1_554 S
C2132 C2134 1.384 . S
C2133 C2132 1.382 1_556 S
C2133 C2139 1.385 . S
C2134 H2125 0.930 . S
C2134 C2132 1.384 . S
C2134 C2135 1.378 . S
C2135 C2134 1.378 . S
C2135 C2136 1.393 1_554 S
C2135 C2140 1.490 . S
C2136 H2126 0.930 . S
C2136 C2135 1.393 1_556 S
C2136 C2139 1.386 . S
H2137 C2153 0.930 . S
H2138 C2154 0.931 . S
C2139 H2127 0.929 . S
C2139 C2133 1.385 . S
C2139 C2136 1.386 . S
C2140 C2135 1.490 . S
C2140 C2142 1.394 . S
C2140 C2143 1.404 1_554 S
H2141 C2147 0.930 . S
C2142 H2128 0.930 . S
C2142 C2140 1.394 . S
C2142 C2145 1.403 . S
C2143 C2140 1.404 1_556 S
C2143 C2144 1.524 . S
C2143 C2147 1.400 . S
C2144 H2129 0.960 . S
C2144 H2130 0.960 1_556 S
C2144 H2131 0.960 . S
C2144 C2143 1.524 . S
C2145 C2142 1.403 . S
C2145 C2146 1.388 1_554 S
C2145 C2149 1.495 . S
C2146 C2145 1.388 1_556 S
C2146 C2147 1.389 . S
C2146 C2148 1.478 . S
C2147 H2141 0.930 . S
C2147 C2143 1.400 . S
C2147 C2146 1.389 . S
C2148 C2146 1.478 . S
C2148 C2150 1.381 1_556 S
C2148 C2154 1.383 . S
C2149 C2145 1.495 . S
C2149 H2155 0.959 . S
C2149 H2156 0.961 1_554 S
C2149 H2157 0.960 . S
C2150 C2148 1.381 1_554 S
C2150 C2151 1.394 . S
C2150 H2158 0.930 . S
C2151 C2150 1.394 . S
C2151 C2152 1.383 1_554 S
C2151 H2159 0.929 . S
C2152 C2151 1.383 1_556 S
C2152 C2153 1.377 . S
C2153 H2137 0.930 . S
C2153 C2152 1.377 . S
C2153 C2154 1.379 . S
C2154 H2138 0.931 . S
C2154 C2148 1.383 . S
C2154 C2153 1.379 . S
H2155 C2149 0.959 . S
H2156 C2149 0.961 1_556 S
H2157 C2149 0.960 . S
H2158 C2150 0.930 . S
H2159 C2151 0.929 . S
H2160 C2168 0.933 . S
H2161 C2170 0.928 1_556 S
H2162 C2172 0.930 . S
H2163 C2175 0.929 . S
H2164 C2178 0.930 . S
H2165 C2180 0.960 . S
H2166 C2180 0.960 . S
H2167 C2180 0.960 . S
C2168 H2160 0.933 . S
C2168 C2169 1.376 1_556 S
C2168 C2170 1.382 1_556 S
C2169 C2168 1.376 1_554 S
C2169 C2175 1.390 . S
C2170 H2161 0.928 1_554 S
C2170 C2168 1.382 1_554 S
C2170 C2171 1.375 . S
C2171 C2170 1.375 . S
C2171 C2172 1.400 . S
C2171 C2176 1.490 . S
C2172 H2162 0.930 . S
C2172 C2171 1.400 . S
C2172 C2175 1.386 . S
H2173 C2189 0.930 . S
H2174 C2190 0.931 . S
C2175 H2163 0.929 . S
C2175 C2169 1.390 . S
C2175 C2172 1.386 . S
C2176 C2171 1.490 . S
C2176 C2178 1.395 . S
C2176 C2179 1.403 1_554 S
H2177 C2183 0.930 . S
C2178 H2164 0.930 . S
C2178 C2176 1.395 . S
C2178 C2181 1.403 . S
C2179 C2176 1.403 1_556 S
C2179 C2180 1.524 . S
C2179 C2183 1.400 . S
C2180 H2165 0.960 . S
C2180 H2166 0.960 . S
C2180 H2167 0.960 . S
C2180 C2179 1.524 . S
C2181 C2178 1.403 . S
C2181 C2182 1.392 . S
C2181 C2185 1.495 . S
C2182 C2181 1.392 . S
C2182 C2183 1.385 1_554 S
C2182 C2184 1.478 . S
C2183 H2177 0.930 . S
C2183 C2179 1.400 . S
C2183 C2182 1.385 1_556 S
C2184 C2182 1.478 . S
C2184 C2186 1.381 . S
C2184 C2190 1.383 . S
C2185 C2181 1.495 . S
C2185 H2191 0.959 . S
C2185 H2192 0.961 . S
C2185 H2193 0.960 . S
C2186 C2184 1.381 . S
C2186 C2187 1.394 . S
C2186 H2194 0.930 . S
C2187 C2186 1.394 . S
C2187 C2188 1.383 . S
C2187 H2195 0.929 . S
C2188 C2187 1.383 . S
C2188 C2189 1.377 . S
C2189 H2173 0.930 . S
C2189 C2188 1.377 . S
C2189 C2190 1.379 . S
C2190 H2174 0.931 . S
C2190 C2184 1.383 . S
C2190 C2189 1.379 . S
H2191 C2185 0.959 . S
H2192 C2185 0.961 . S
H2193 C2185 0.960 . S
H2194 C2186 0.930 . S
H2195 C2187 0.929 . S
H2196 C2204 0.929 . S
H2197 C2206 0.930 . S
H2198 C2208 0.930 . S
H2199 C2211 0.929 . S
H2200 C2214 0.930 . S
H2201 C2216 0.960 . S
H2202 C2216 0.960 . S
H2203 C2216 0.960 . S
C2204 H2196 0.929 . S
C2204 C2205 1.359 1_556 S
C2204 C2206 1.384 . S
C2205 C2204 1.359 1_554 S
C2205 C2211 1.409 . S
C2206 H2197 0.930 . S
C2206 C2204 1.384 . S
C2206 C2207 1.378 . S
C2207 C2206 1.378 . S
C2207 C2208 1.393 1_556 S
C2207 C2212 1.490 . S
C2208 H2198 0.930 . S
C2208 C2207 1.393 1_554 S
C2208 C2211 1.386 . S
H2209 C2225 0.930 . S
H2210 C2226 0.931 . S
C2211 H2199 0.929 . S
C2211 C2205 1.409 . S
C2211 C2208 1.386 . S
C2212 C2207 1.490 . S
C2212 C2214 1.395 . S
C2212 C2215 1.403 1_556 S
H2213 C2219 0.930 . S
C2214 H2200 0.930 . S
C2214 C2212 1.395 . S
C2214 C2217 1.403 . S
C2215 C2212 1.403 1_554 S
C2215 C2216 1.524 . S
C2215 C2219 1.400 . S
C2216 H2201 0.960 . S
C2216 H2202 0.960 . S
C2216 H2203 0.960 . S
C2216 C2215 1.524 . S
C2217 C2214 1.403 . S
C2217 C2218 1.392 . S
C2217 C2221 1.495 . S
C2218 C2217 1.392 . S
C2218 C2219 1.385 1_556 S
C2218 C2220 1.478 . S
C2219 H2213 0.930 . S
C2219 C2215 1.400 . S
C2219 C2218 1.385 1_554 S
C2220 C2218 1.478 . S
C2220 C2222 1.381 . S
C2220 C2226 1.383 1_556 S
C2221 C2217 1.495 . S
C2221 H2227 0.959 . S
C2221 H2228 0.961 . S
C2221 H2229 0.960 . S
C2222 C2220 1.381 . S
C2222 C2223 1.394 . S
C2222 H2230 0.930 . S
C2223 C2222 1.394 . S
C2223 C2224 1.383 . S
C2223 H2231 0.929 . S
C2224 C2223 1.383 . S
C2224 C2225 1.377 1_556 S
C2225 H2209 0.930 . S
C2225 C2224 1.377 1_554 S
C2225 C2226 1.379 . S
C2226 H2210 0.931 . S
C2226 C2220 1.383 1_554 S
C2226 C2225 1.379 . S
H2227 C2221 0.959 . S
H2228 C2221 0.961 . S
H2229 C2221 0.960 . S
H2230 C2222 0.930 . S
H2231 C2223 0.929 . S
H2232 C2240 0.929 . S
H2233 C2242 0.930 . S
H2234 C2244 0.930 . S
H2235 C2247 0.929 . S
H2236 C2250 0.930 . S
H2237 C2252 0.960 . S
H2238 C2252 0.960 . S
H2239 C2252 0.960 . S
C2240 H2232 0.929 . S
C2240 C2241 1.377 . S
C2240 C2242 1.384 . S
C2241 C2240 1.377 . S
C2241 C2247 1.390 1_554 S
C2242 H2233 0.930 . S
C2242 C2240 1.384 . S
C2242 C2243 1.372 . S
C2243 C2242 1.372 . S
C2243 C2244 1.400 1_554 S
C2243 C2248 1.490 . S
C2244 H2234 0.930 . S
C2244 C2243 1.400 1_556 S
C2244 C2247 1.386 . S
H2245 C2261 0.921 1_556 S
H2246 C2262 0.931 1_556 S
C2247 H2235 0.929 . S
C2247 C2241 1.390 1_556 S
C2247 C2244 1.386 . S
C2248 C2243 1.490 . S
C2248 C2250 1.395 . S
C2248 C2251 1.403 1_554 S
H2249 C2255 0.930 . S
C2250 H2236 0.930 . S
C2250 C2248 1.395 . S
C2250 C2253 1.403 . S
C2251 C2248 1.403 1_556 S
C2251 C2252 1.524 . S
C2251 C2255 1.400 . S
C2252 H2237 0.960 . S
C2252 H2238 0.960 . S
C2252 H2239 0.960 . S
C2252 C2251 1.524 . S
C2253 C2250 1.403 . S
C2253 C2254 1.392 . S
C2253 C2257 1.495 . S
C2254 C2253 1.392 . S
C2254 C2255 1.385 1_554 S
C2254 C2256 1.478 . S
C2255 H2249 0.930 . S
C2255 C2251 1.400 . S
C2255 C2254 1.385 1_556 S
C2256 C2254 1.478 . S
C2256 C2258 1.381 . S
C2256 C2262 1.383 . S
C2257 C2253 1.495 . S
C2257 H2263 0.959 . S
C2257 H2264 0.961 . S
C2257 H2265 0.960 . S
C2258 C2256 1.381 . S
C2258 C2259 1.394 . S
C2258 H2266 0.930 . S
C2259 C2258 1.394 . S
C2259 C2260 1.383 . S
C2259 H2267 0.929 . S
C2260 C2259 1.383 . S
C2260 C2261 1.384 . S
C2261 H2245 0.921 1_554 S
C2261 C2260 1.384 . S
C2261 C2262 1.381 . S
C2262 H2246 0.931 1_554 S
C2262 C2256 1.383 . S
C2262 C2261 1.381 . S
H2263 C2257 0.959 . S
H2264 C2257 0.961 . S
H2265 C2257 0.960 . S
H2266 C2258 0.930 . S
H2267 C2259 0.929 . S
H2268 C2276 0.929 . S
H2269 C2278 0.930 . S
H2270 C2280 0.930 . S
H2271 C2283 0.929 . S
H2272 C2286 0.930 1_556 S
H2273 C2288 0.960 . S
H2274 C2288 0.960 1_556 S
H2275 C2288 0.960 . S
C2276 H2268 0.929 . S
C2276 C2277 1.345 1_556 S
C2276 C2278 1.384 . S
C2277 C2276 1.345 1_554 S
C2277 C2283 1.424 . S
C2278 H2269 0.930 . S
C2278 C2276 1.384 . S
C2278 C2279 1.372 1_556 S
C2279 C2278 1.372 1_554 S
C2279 C2280 1.400 . S
C2279 C2284 1.490 . S
C2280 H2270 0.930 . S
C2280 C2279 1.400 . S
C2280 C2283 1.386 . S
H2281 C2297 0.930 . S
H2282 C2298 0.931 . S
C2283 H2271 0.929 . S
C2283 C2277 1.424 . S
C2283 C2280 1.386 . S
C2284 C2279 1.490 . S
C2284 C2286 1.395 . S
C2284 C2287 1.403 . S
H2285 C2291 0.930 . S
C2286 H2272 0.930 1_554 S
C2286 C2284 1.395 . S
C2286 C2289 1.403 . S
C2287 C2284 1.403 . S
C2287 C2288 1.524 . S
C2287 C2291 1.400 . S
C2288 H2273 0.960 . S
C2288 H2274 0.960 1_554 S
C2288 H2275 0.960 . S
C2288 C2287 1.524 . S
C2289 C2286 1.403 . S
C2289 C2290 1.392 . S
C2289 C2293 1.496 . S
C2290 C2289 1.392 . S
C2290 C2291 1.385 . S
C2290 C2292 1.478 . S
C2291 H2285 0.930 . S
C2291 C2287 1.400 . S
C2291 C2290 1.385 . S
C2292 C2290 1.478 . S
C2292 C2294 1.381 1_554 S
C2292 C2298 1.383 . S
C2293 C2289 1.496 . S
C2293 H2299 0.957 1_554 S
C2293 H2300 0.972 . S
C2293 H2301 0.950 1_554 S
C2294 C2292 1.381 1_556 S
C2294 C2295 1.394 . S
C2294 H2302 0.930 . S
C2295 C2294 1.394 . S
C2295 C2296 1.383 1_556 S
C2295 H2303 0.929 . S
C2296 C2295 1.383 1_554 S
C2296 C2297 1.377 . S
C2297 H2281 0.930 . S
C2297 C2296 1.377 . S
C2297 C2298 1.379 . S
C2298 H2282 0.931 . S
C2298 C2292 1.383 . S
C2298 C2297 1.379 . S
H2299 C2293 0.957 1_556 S
H2300 C2293 0.972 . S
H2301 C2293 0.950 1_556 S
H2302 C2294 0.930 . S
H2303 C2295 0.929 . S
H2304 C2312 0.929 . S
H2305 C2314 0.930 . S
H2306 C2316 0.930 . S
H2307 C2319 0.929 . S
H2308 C2322 0.930 . S
H2309 C2324 0.960 . S
H2310 C2324 0.960 . S
H2311 C2324 0.960 . S
C2312 H2304 0.929 . S
C2312 C2313 1.377 . S
C2312 C2314 1.384 . S
C2313 C2312 1.377 . S
C2313 C2319 1.390 . S
C2314 H2305 0.930 . S
C2314 C2312 1.384 . S
C2314 C2315 1.372 . S
C2315 C2314 1.372 . S
C2315 C2316 1.400 . S
C2315 C2320 1.490 . S
C2316 H2306 0.930 . S
C2316 C2315 1.400 . S
C2316 C2319 1.386 . S
H2317 C2333 0.930 . S
H2318 C2334 0.931 . S
C2319 H2307 0.929 . S
C2319 C2313 1.390 . S
C2319 C2316 1.386 . S
C2320 C2315 1.490 . S
C2320 C2322 1.395 . S
C2320 C2323 1.403 . S
H2321 C2327 0.930 . S
C2322 H2308 0.930 . S
C2322 C2320 1.395 . S
C2322 C2325 1.403 . S
C2323 C2320 1.403 . S
C2323 C2324 1.524 . S
C2323 C2327 1.400 . S
C2324 H2309 0.960 . S
C2324 H2310 0.960 . S
C2324 H2311 0.960 . S
C2324 C2323 1.524 . S
C2325 C2322 1.403 . S
C2325 C2326 1.392 . S
C2325 C2329 1.495 . S
C2326 C2325 1.392 . S
C2326 C2327 1.385 . S
C2326 C2328 1.478 . S
C2327 H2321 0.930 . S
C2327 C2323 1.400 . S
C2327 C2326 1.385 . S
C2328 C2326 1.478 . S
C2328 C2330 1.381 . S
C2328 C2334 1.383 . S
C2329 C2325 1.495 . S
C2329 H2335 0.959 . S
C2329 H2336 0.961 . S
C2329 H2337 0.960 . S
C2330 C2328 1.381 . S
C2330 C2331 1.394 . S
C2330 H2338 0.930 . S
C2331 C2330 1.394 . S
C2331 C2332 1.383 . S
C2331 H2339 0.929 . S
C2332 C2331 1.383 . S
C2332 C2333 1.377 . S
C2333 H2317 0.930 . S
C2333 C2332 1.377 . S
C2333 C2334 1.379 . S
C2334 H2318 0.931 . S
C2334 C2328 1.383 . S
C2334 C2333 1.379 . S
H2335 C2329 0.959 . S
H2336 C2329 0.961 . S
H2337 C2329 0.960 . S
H2338 C2330 0.930 . S
H2339 C2331 0.929 . S
H2340 C2348 0.929 . S
H2341 C2350 0.930 . S
H2342 C2352 0.930 . S
H2343 C2355 0.929 . S
H2344 C2358 0.930 . S
H2345 C2360 0.960 . S
H2346 C2360 0.960 . S
H2347 C2360 0.960 . S
C2348 H2340 0.929 . S
C2348 C2349 1.377 . S
C2348 C2350 1.384 . S
C2349 C2348 1.377 . S
C2349 C2355 1.390 . S
C2350 H2341 0.930 . S
C2350 C2348 1.384 . S
C2350 C2351 1.372 . S
C2351 C2350 1.372 . S
C2351 C2352 1.400 . S
C2351 C2356 1.490 . S
C2352 H2342 0.930 . S
C2352 C2351 1.400 . S
C2352 C2355 1.386 . S
H2353 C2369 0.930 . S
H2354 C2370 0.931 . S
C2355 H2343 0.929 . S
C2355 C2349 1.390 . S
C2355 C2352 1.386 . S
C2356 C2351 1.490 . S
C2356 C2358 1.395 . S
C2356 C2359 1.403 . S
H2357 C2363 0.930 . S
C2358 H2344 0.930 . S
C2358 C2356 1.395 . S
C2358 C2361 1.403 . S
C2359 C2356 1.403 . S
C2359 C2360 1.524 . S
C2359 C2363 1.400 . S
C2360 H2345 0.960 . S
C2360 H2346 0.960 . S
C2360 H2347 0.960 . S
C2360 C2359 1.524 . S
C2361 C2358 1.403 . S
C2361 C2362 1.392 . S
C2361 C2365 1.495 . S
C2362 C2361 1.392 . S
C2362 C2363 1.385 . S
C2362 C2364 1.478 . S
C2363 H2357 0.930 . S
C2363 C2359 1.400 . S
C2363 C2362 1.385 . S
C2364 C2362 1.478 . S
C2364 C2366 1.381 . S
C2364 C2370 1.383 . S
C2365 C2361 1.495 . S
C2365 H2371 0.959 . S
C2365 H2372 0.961 . S
C2365 H2373 0.960 . S
C2366 C2364 1.381 . S
C2366 C2367 1.394 . S
C2366 H2374 0.930 . S
C2367 C2366 1.394 . S
C2367 C2368 1.383 . S
C2367 H2375 0.929 . S
C2368 C2367 1.383 . S
C2368 C2369 1.377 . S
C2369 H2353 0.930 . S
C2369 C2368 1.377 . S
C2369 C2370 1.379 . S
C2370 H2354 0.931 . S
C2370 C2364 1.383 . S
C2370 C2369 1.379 . S
H2371 C2365 0.959 . S
H2372 C2365 0.961 . S
H2373 C2365 0.960 . S
H2374 C2366 0.930 . S
H2375 C2367 0.929 . S
H2376 C2384 0.929 . S
H2377 C2386 0.930 . S
H2378 C2388 0.930 . S
H2379 C2391 0.929 . S
H2380 C2394 0.930 . S
H2381 C2396 0.960 . S
H2382 C2396 0.960 . S
H2383 C2396 0.960 . S
C2384 H2376 0.929 . S
C2384 C2385 1.377 . S
C2384 C2386 1.384 . S
C2385 C2384 1.377 . S
C2385 C2391 1.390 . S
C2386 H2377 0.930 . S
C2386 C2384 1.384 . S
C2386 C2387 1.372 . S
C2387 C2386 1.372 . S
C2387 C2388 1.400 . S
C2387 C2392 1.490 . S
C2388 H2378 0.930 . S
C2388 C2387 1.400 . S
C2388 C2391 1.386 . S
H2389 C2405 0.930 . S
H2390 C2406 0.931 . S
C2391 H2379 0.929 . S
C2391 C2385 1.390 . S
C2391 C2388 1.386 . S
C2392 C2387 1.490 . S
C2392 C2394 1.395 . S
C2392 C2395 1.403 . S
H2393 C2399 0.930 . S
C2394 H2380 0.930 . S
C2394 C2392 1.395 . S
C2394 C2397 1.403 . S
C2395 C2392 1.403 . S
C2395 C2396 1.524 . S
C2395 C2399 1.400 . S
C2396 H2381 0.960 . S
C2396 H2382 0.960 . S
C2396 H2383 0.960 . S
C2396 C2395 1.524 . S
C2397 C2394 1.403 . S
C2397 C2398 1.392 . S
C2397 C2401 1.495 . S
C2398 C2397 1.392 . S
C2398 C2399 1.385 . S
C2398 C2400 1.478 . S
C2399 H2393 0.930 . S
C2399 C2395 1.400 . S
C2399 C2398 1.385 . S
C2400 C2398 1.478 . S
C2400 C2402 1.381 . S
C2400 C2406 1.383 . S
C2401 C2397 1.495 . S
C2401 H2407 0.959 . S
C2401 H2408 0.961 . S
C2401 H2409 0.960 . S
C2402 C2400 1.381 . S
C2402 C2403 1.394 . S
C2402 H2410 0.930 . S
C2403 C2402 1.394 . S
C2403 C2404 1.383 . S
C2403 H2411 0.929 . S
C2404 C2403 1.383 . S
C2404 C2405 1.377 . S
C2405 H2389 0.930 . S
C2405 C2404 1.377 . S
C2405 C2406 1.379 . S
C2406 H2390 0.931 . S
C2406 C2400 1.383 . S
C2406 C2405 1.379 . S
H2407 C2401 0.959 . S
H2408 C2401 0.961 . S
H2409 C2401 0.960 . S
H2410 C2402 0.930 . S
H2411 C2403 0.929 . S
H2412 C2420 0.929 . S
H2413 C2422 0.930 . S
H2414 C2424 0.930 . S
H2415 C2427 0.929 . S
H2416 C2430 0.930 . S
H2417 C2432 0.960 . S
H2418 C2432 0.960 . S
H2419 C2432 0.960 . S
C2420 H2412 0.929 . S
C2420 C2421 1.377 . S
C2420 C2422 1.384 . S
C2421 C2420 1.377 . S
C2421 C2427 1.390 . S
C2422 H2413 0.930 . S
C2422 C2420 1.384 . S
C2422 C2423 1.372 . S
C2423 C2422 1.372 . S
C2423 C2424 1.400 . S
C2423 C2428 1.490 . S
C2424 H2414 0.930 . S
C2424 C2423 1.400 . S
C2424 C2427 1.386 . S
H2425 C2441 0.930 . S
H2426 C2442 0.931 . S
C2427 H2415 0.929 . S
C2427 C2421 1.390 . S
C2427 C2424 1.386 . S
C2428 C2423 1.490 . S
C2428 C2430 1.395 . S
C2428 C2431 1.403 . S
H2429 C2435 0.930 . S
C2430 H2416 0.930 . S
C2430 C2428 1.395 . S
C2430 C2433 1.403 . S
C2431 C2428 1.403 . S
C2431 C2432 1.524 . S
C2431 C2435 1.400 . S
C2432 H2417 0.960 . S
C2432 H2418 0.960 . S
C2432 H2419 0.960 . S
C2432 C2431 1.524 . S
C2433 C2430 1.403 . S
C2433 C2434 1.392 . S
C2433 C2437 1.495 . S
C2434 C2433 1.392 . S
C2434 C2435 1.385 . S
C2434 C2436 1.478 . S
C2435 H2429 0.930 . S
C2435 C2431 1.400 . S
C2435 C2434 1.385 . S
C2436 C2434 1.478 . S
C2436 C2438 1.381 . S
C2436 C2442 1.383 . S
C2437 C2433 1.495 . S
C2437 H2443 0.959 . S
C2437 H2444 0.961 . S
C2437 H2445 0.960 . S
C2438 C2436 1.381 . S
C2438 C2439 1.394 . S
C2438 H2446 0.930 . S
C2439 C2438 1.394 . S
C2439 C2440 1.383 . S
C2439 H2447 0.929 . S
C2440 C2439 1.383 . S
C2440 C2441 1.377 . S
C2441 H2425 0.930 . S
C2441 C2440 1.377 . S
C2441 C2442 1.379 . S
C2442 H2426 0.931 . S
C2442 C2436 1.383 . S
C2442 C2441 1.379 . S
H2443 C2437 0.959 . S
H2444 C2437 0.961 . S
H2445 C2437 0.960 . S
H2446 C2438 0.930 . S
H2447 C2439 0.929 . S
H2448 C2456 0.929 . S
H2449 C2458 0.930 . S
H2450 C2460 0.930 . S
H2451 C2463 0.929 . S
H2452 C2466 0.930 . S
H2453 C2468 0.960 . S
H2454 C2468 0.960 . S
H2455 C2468 0.960 . S
C2456 H2448 0.929 . S
C2456 C2457 1.377 . S
C2456 C2458 1.384 . S
C2457 C2456 1.377 . S
C2457 C2463 1.390 . S
C2458 H2449 0.930 . S
C2458 C2456 1.384 . S
C2458 C2459 1.372 . S
C2459 C2458 1.372 . S
C2459 C2460 1.400 . S
C2459 C2464 1.490 . S
C2460 H2450 0.930 . S
C2460 C2459 1.400 . S
C2460 C2463 1.386 . S
H2461 C2477 0.930 . S
H2462 C2478 0.931 . S
C2463 H2451 0.929 . S
C2463 C2457 1.390 . S
C2463 C2460 1.386 . S
C2464 C2459 1.490 . S
C2464 C2466 1.395 . S
C2464 C2467 1.403 . S
H2465 C2471 0.930 . S
C2466 H2452 0.930 . S
C2466 C2464 1.395 . S
C2466 C2469 1.403 . S
C2467 C2464 1.403 . S
C2467 C2468 1.524 . S
C2467 C2471 1.400 . S
C2468 H2453 0.960 . S
C2468 H2454 0.960 . S
C2468 H2455 0.960 . S
C2468 C2467 1.524 . S
C2469 C2466 1.403 . S
C2469 C2470 1.392 . S
C2469 C2473 1.495 . S
C2470 C2469 1.392 . S
C2470 C2471 1.385 . S
C2470 C2472 1.478 . S
C2471 H2465 0.930 . S
C2471 C2467 1.400 . S
C2471 C2470 1.385 . S
C2472 C2470 1.478 . S
C2472 C2474 1.381 . S
C2472 C2478 1.383 . S
C2473 C2469 1.495 . S
C2473 H2479 0.959 . S
C2473 H2480 0.961 . S
C2473 H2481 0.960 . S
C2474 C2472 1.381 . S
C2474 C2475 1.394 . S
C2474 H2482 0.930 . S
C2475 C2474 1.394 . S
C2475 C2476 1.383 . S
C2475 H2483 0.929 . S
C2476 C2475 1.383 . S
C2476 C2477 1.377 . S
C2477 H2461 0.930 . S
C2477 C2476 1.377 . S
C2477 C2478 1.379 . S
C2478 H2462 0.931 . S
C2478 C2472 1.383 . S
C2478 C2477 1.379 . S
H2479 C2473 0.959 . S
H2480 C2473 0.961 . S
H2481 C2473 0.960 . S
H2482 C2474 0.930 . S
H2483 C2475 0.929 . S
H2484 C2492 0.929 . S
H2485 C2494 0.930 . S
H2486 C2496 0.930 . S
H2487 C2499 0.929 . S
H2488 C2502 0.930 . S
H2489 C2504 0.960 . S
H2490 C2504 0.960 . S
H2491 C2504 0.960 . S
C2492 H2484 0.929 . S
C2492 C2493 1.377 . S
C2492 C2494 1.384 . S
C2493 C2492 1.377 . S
C2493 C2499 1.390 . S
C2494 H2485 0.930 . S
C2494 C2492 1.384 . S
C2494 C2495 1.372 . S
C2495 C2494 1.372 . S
C2495 C2496 1.400 . S
C2495 C2500 1.490 . S
C2496 H2486 0.930 . S
C2496 C2495 1.400 . S
C2496 C2499 1.386 . S
H2497 C2513 0.930 . S
H2498 C2514 0.931 . S
C2499 H2487 0.929 . S
C2499 C2493 1.390 . S
C2499 C2496 1.386 . S
C2500 C2495 1.490 . S
C2500 C2502 1.395 . S
C2500 C2503 1.403 . S
H2501 C2507 0.930 . S
C2502 H2488 0.930 . S
C2502 C2500 1.395 . S
C2502 C2505 1.403 . S
C2503 C2500 1.403 . S
C2503 C2504 1.524 . S
C2503 C2507 1.400 . S
C2504 H2489 0.960 . S
C2504 H2490 0.960 . S
C2504 H2491 0.960 . S
C2504 C2503 1.524 . S
C2505 C2502 1.403 . S
C2505 C2506 1.392 . S
C2505 C2509 1.495 . S
C2506 C2505 1.392 . S
C2506 C2507 1.385 . S
C2506 C2508 1.478 . S
C2507 H2501 0.930 . S
C2507 C2503 1.400 . S
C2507 C2506 1.385 . S
C2508 C2506 1.478 . S
C2508 C2510 1.381 . S
C2508 C2514 1.383 . S
C2509 C2505 1.495 . S
C2509 H2515 0.959 . S
C2509 H2516 0.961 . S
C2509 H2517 0.960 . S
C2510 C2508 1.381 . S
C2510 C2511 1.394 . S
C2510 H2518 0.930 . S
C2511 C2510 1.394 . S
C2511 C2512 1.383 . S
C2511 H2519 0.929 . S
C2512 C2511 1.383 . S
C2512 C2513 1.377 . S
C2513 H2497 0.930 . S
C2513 C2512 1.377 . S
C2513 C2514 1.379 . S
C2514 H2498 0.931 . S
C2514 C2508 1.383 . S
C2514 C2513 1.379 . S
H2515 C2509 0.959 . S
H2516 C2509 0.961 . S
H2517 C2509 0.960 . S
H2518 C2510 0.930 . S
H2519 C2511 0.929 . S
H2520 C2528 0.929 . S
H2521 C2530 0.930 . S
H2522 C2532 0.930 . S
H2523 C2535 0.929 . S
H2524 C2538 0.930 . S
H2525 C2540 0.960 . S
H2526 C2540 0.960 . S
H2527 C2540 0.960 . S
C2528 H2520 0.929 . S
C2528 C2529 1.377 . S
C2528 C2530 1.384 . S
C2529 C2528 1.377 . S
C2529 C2535 1.390 . S
C2530 H2521 0.930 . S
C2530 C2528 1.384 . S
C2530 C2531 1.372 . S
C2531 C2530 1.372 . S
C2531 C2532 1.400 . S
C2531 C2536 1.490 . S
C2532 H2522 0.930 . S
C2532 C2531 1.400 . S
C2532 C2535 1.386 . S
H2533 C2549 0.930 . S
H2534 C2550 0.931 . S
C2535 H2523 0.929 . S
C2535 C2529 1.390 . S
C2535 C2532 1.386 . S
C2536 C2531 1.490 . S
C2536 C2538 1.395 . S
C2536 C2539 1.403 . S
H2537 C2543 0.930 . S
C2538 H2524 0.930 . S
C2538 C2536 1.395 . S
C2538 C2541 1.403 . S
C2539 C2536 1.403 . S
C2539 C2540 1.524 . S
C2539 C2543 1.400 . S
C2540 H2525 0.960 . S
C2540 H2526 0.960 . S
C2540 H2527 0.960 . S
C2540 C2539 1.524 . S
C2541 C2538 1.403 . S
C2541 C2542 1.392 . S
C2541 C2545 1.495 . S
C2542 C2541 1.392 . S
C2542 C2543 1.385 . S
C2542 C2544 1.478 . S
C2543 H2537 0.930 . S
C2543 C2539 1.400 . S
C2543 C2542 1.385 . S
C2544 C2542 1.478 . S
C2544 C2546 1.381 . S
C2544 C2550 1.383 . S
C2545 C2541 1.495 . S
C2545 H2551 0.959 . S
C2545 H2552 0.961 . S
C2545 H2553 0.960 . S
C2546 C2544 1.381 . S
C2546 C2547 1.394 . S
C2546 H2554 0.930 . S
C2547 C2546 1.394 . S
C2547 C2548 1.383 . S
C2547 H2555 0.929 . S
C2548 C2547 1.383 . S
C2548 C2549 1.377 . S
C2549 H2533 0.930 . S
C2549 C2548 1.377 . S
C2549 C2550 1.379 . S
C2550 H2534 0.931 . S
C2550 C2544 1.383 . S
C2550 C2549 1.379 . S
H2551 C2545 0.959 . S
H2552 C2545 0.961 . S
H2553 C2545 0.960 . S
H2554 C2546 0.930 . S
H2555 C2547 0.929 . S
H2556 C2564 0.929 . S
H2557 C2566 0.930 . S
H2558 C2568 0.930 . S
H2559 C2571 0.929 . S
H2560 C2574 0.930 . S
H2561 C2576 0.960 . S
H2562 C2576 0.960 . S
H2563 C2576 0.960 . S
C2564 H2556 0.929 . S
C2564 C2565 1.377 . S
C2564 C2566 1.384 . S
C2565 C2564 1.377 . S
C2565 C2571 1.390 . S
C2566 H2557 0.930 . S
C2566 C2564 1.384 . S
C2566 C2567 1.372 . S
C2567 C2566 1.372 . S
C2567 C2568 1.400 . S
C2567 C2572 1.490 . S
C2568 H2558 0.930 . S
C2568 C2567 1.400 . S
C2568 C2571 1.386 . S
H2569 C2585 0.930 . S
H2570 C2586 0.931 . S
C2571 H2559 0.929 . S
C2571 C2565 1.390 . S
C2571 C2568 1.386 . S
C2572 C2567 1.490 . S
C2572 C2574 1.395 . S
C2572 C2575 1.403 . S
H2573 C2579 0.930 . S
C2574 H2560 0.930 . S
C2574 C2572 1.395 . S
C2574 C2577 1.403 . S
C2575 C2572 1.403 . S
C2575 C2576 1.524 . S
C2575 C2579 1.400 . S
C2576 H2561 0.960 . S
C2576 H2562 0.960 . S
C2576 H2563 0.960 . S
C2576 C2575 1.524 . S
C2577 C2574 1.403 . S
C2577 C2578 1.392 . S
C2577 C2581 1.495 . S
C2578 C2577 1.392 . S
C2578 C2579 1.385 . S
C2578 C2580 1.478 . S
C2579 H2573 0.930 . S
C2579 C2575 1.400 . S
C2579 C2578 1.385 . S
C2580 C2578 1.478 . S
C2580 C2582 1.381 . S
C2580 C2586 1.383 . S
C2581 C2577 1.495 . S
C2581 H2587 0.959 . S
C2581 H2588 0.961 . S
C2581 H2589 0.960 . S
C2582 C2580 1.381 . S
C2582 C2583 1.394 . S
C2582 H2590 0.930 . S
C2583 C2582 1.394 . S
C2583 C2584 1.383 . S
C2583 H2591 0.929 . S
C2584 C2583 1.383 . S
C2584 C2585 1.377 . S
C2585 H2569 0.930 . S
C2585 C2584 1.377 . S
C2585 C2586 1.379 . S
C2586 H2570 0.931 . S
C2586 C2580 1.383 . S
C2586 C2585 1.379 . S
H2587 C2581 0.959 . S
H2588 C2581 0.961 . S
H2589 C2581 0.960 . S
H2590 C2582 0.930 . S
H2591 C2583 0.929 . S
H2592 C2600 0.929 . S
H2593 C2602 0.930 . S
H2594 C2604 0.930 . S
H2595 C2607 0.929 . S
H2596 C2610 0.930 . S
H2597 C2612 0.960 . S
H2598 C2612 0.960 . S
H2599 C2612 0.960 . S
C2600 H2592 0.929 . S
C2600 C2601 1.377 . S
C2600 C2602 1.384 . S
C2601 C2600 1.377 . S
C2601 C2607 1.390 . S
C2602 H2593 0.930 . S
C2602 C2600 1.384 . S
C2602 C2603 1.372 . S
C2603 C2602 1.372 . S
C2603 C2604 1.400 . S
C2603 C2608 1.490 . S
C2604 H2594 0.930 . S
C2604 C2603 1.400 . S
C2604 C2607 1.386 . S
H2605 C2621 0.930 . S
H2606 C2622 0.931 . S
C2607 H2595 0.929 . S
C2607 C2601 1.390 . S
C2607 C2604 1.386 . S
C2608 C2603 1.490 . S
C2608 C2610 1.395 . S
C2608 C2611 1.403 . S
H2609 C2615 0.930 . S
C2610 H2596 0.930 . S
C2610 C2608 1.395 . S
C2610 C2613 1.403 . S
C2611 C2608 1.403 . S
C2611 C2612 1.524 . S
C2611 C2615 1.400 . S
C2612 H2597 0.960 . S
C2612 H2598 0.960 . S
C2612 H2599 0.960 . S
C2612 C2611 1.524 . S
C2613 C2610 1.403 . S
C2613 C2614 1.392 . S
C2613 C2617 1.495 . S
C2614 C2613 1.392 . S
C2614 C2615 1.385 . S
C2614 C2616 1.478 . S
C2615 H2609 0.930 . S
C2615 C2611 1.400 . S
C2615 C2614 1.385 . S
C2616 C2614 1.478 . S
C2616 C2618 1.381 . S
C2616 C2622 1.383 . S
C2617 C2613 1.495 . S
C2617 H2623 0.959 . S
C2617 H2624 0.961 . S
C2617 H2625 0.960 . S
C2618 C2616 1.381 . S
C2618 C2619 1.394 . S
C2618 H2626 0.930 . S
C2619 C2618 1.394 . S
C2619 C2620 1.383 . S
C2619 H2627 0.929 . S
C2620 C2619 1.383 . S
C2620 C2621 1.377 . S
C2621 H2605 0.930 . S
C2621 C2620 1.377 . S
C2621 C2622 1.379 . S
C2622 H2606 0.931 . S
C2622 C2616 1.383 . S
C2622 C2621 1.379 . S
H2623 C2617 0.959 . S
H2624 C2617 0.961 . S
H2625 C2617 0.960 . S
H2626 C2618 0.930 . S
H2627 C2619 0.929 . S
H2628 C2636 0.929 . S
H2629 C2638 0.930 . S
H2630 C2640 0.930 . S
H2631 C2643 0.929 . S
H2632 C2646 0.930 . S
H2633 C2648 0.960 . S
H2634 C2648 0.960 . S
H2635 C2648 0.960 . S
C2636 H2628 0.929 . S
C2636 C2637 1.377 . S
C2636 C2638 1.384 . S
C2637 C2636 1.377 . S
C2637 C2643 1.390 . S
C2638 H2629 0.930 . S
C2638 C2636 1.384 . S
C2638 C2639 1.372 . S
C2639 C2638 1.372 . S
C2639 C2640 1.400 . S
C2639 C2644 1.490 . S
C2640 H2630 0.930 . S
C2640 C2639 1.400 . S
C2640 C2643 1.386 . S
H2641 C2657 0.930 . S
H2642 C2658 0.931 . S
C2643 H2631 0.929 . S
C2643 C2637 1.390 . S
C2643 C2640 1.386 . S
C2644 C2639 1.490 . S
C2644 C2646 1.395 . S
C2644 C2647 1.403 . S
H2645 C2651 0.930 . S
C2646 H2632 0.930 . S
C2646 C2644 1.395 . S
C2646 C2649 1.403 . S
C2647 C2644 1.403 . S
C2647 C2648 1.524 . S
C2647 C2651 1.400 . S
C2648 H2633 0.960 . S
C2648 H2634 0.960 . S
C2648 H2635 0.960 . S
C2648 C2647 1.524 . S
C2649 C2646 1.403 . S
C2649 C2650 1.392 . S
C2649 C2653 1.495 . S
C2650 C2649 1.392 . S
C2650 C2651 1.385 . S
C2650 C2652 1.478 . S
C2651 H2645 0.930 . S
C2651 C2647 1.400 . S
C2651 C2650 1.385 . S
C2652 C2650 1.478 . S
C2652 C2654 1.381 . S
C2652 C2658 1.383 . S
C2653 C2649 1.495 . S
C2653 H2659 0.959 . S
C2653 H2660 0.961 . S
C2653 H2661 0.960 . S
C2654 C2652 1.381 . S
C2654 C2655 1.394 . S
C2654 H2662 0.930 . S
C2655 C2654 1.394 . S
C2655 C2656 1.383 . S
C2655 H2663 0.929 . S
C2656 C2655 1.383 . S
C2656 C2657 1.377 . S
C2657 H2641 0.930 . S
C2657 C2656 1.377 . S
C2657 C2658 1.379 . S
C2658 H2642 0.931 . S
C2658 C2652 1.383 . S
C2658 C2657 1.379 . S
H2659 C2653 0.959 . S
H2660 C2653 0.961 . S
H2661 C2653 0.960 . S
H2662 C2654 0.930 . S
H2663 C2655 0.929 . S
H2664 C2672 0.929 . S
H2665 C2674 0.930 . S
H2666 C2676 0.930 . S
H2667 C2679 0.929 . S
H2668 C2682 0.930 . S
H2669 C2684 0.960 . S
H2670 C2684 0.960 . S
H2671 C2684 0.960 . S
C2672 H2664 0.929 . S
C2672 C2673 1.377 . S
C2672 C2674 1.384 . S
C2673 C2672 1.377 . S
C2673 C2679 1.390 . S
C2674 H2665 0.930 . S
C2674 C2672 1.384 . S
C2674 C2675 1.372 . S
C2675 C2674 1.372 . S
C2675 C2676 1.400 . S
C2675 C2680 1.490 . S
C2676 H2666 0.930 . S
C2676 C2675 1.400 . S
C2676 C2679 1.386 . S
H2677 C2693 0.930 . S
H2678 C2694 0.931 . S
C2679 H2667 0.929 . S
C2679 C2673 1.390 . S
C2679 C2676 1.386 . S
C2680 C2675 1.490 . S
C2680 C2682 1.395 . S
C2680 C2683 1.403 . S
H2681 C2687 0.930 . S
C2682 H2668 0.930 . S
C2682 C2680 1.395 . S
C2682 C2685 1.403 . S
C2683 C2680 1.403 . S
C2683 C2684 1.524 . S
C2683 C2687 1.400 . S
C2684 H2669 0.960 . S
C2684 H2670 0.960 . S
C2684 H2671 0.960 . S
C2684 C2683 1.524 . S
C2685 C2682 1.403 . S
C2685 C2686 1.392 . S
C2685 C2689 1.495 . S
C2686 C2685 1.392 . S
C2686 C2687 1.385 . S
C2686 C2688 1.478 . S
C2687 H2681 0.930 . S
C2687 C2683 1.400 . S
C2687 C2686 1.385 . S
C2688 C2686 1.478 . S
C2688 C2690 1.381 . S
C2688 C2694 1.383 . S
C2689 C2685 1.495 . S
C2689 H2695 0.959 . S
C2689 H2696 0.961 . S
C2689 H2697 0.960 . S
C2690 C2688 1.381 . S
C2690 C2691 1.394 . S
C2690 H2698 0.930 . S
C2691 C2690 1.394 . S
C2691 C2692 1.383 . S
C2691 H2699 0.929 . S
C2692 C2691 1.383 . S
C2692 C2693 1.377 . S
C2693 H2677 0.930 . S
C2693 C2692 1.377 . S
C2693 C2694 1.379 . S
C2694 H2678 0.931 . S
C2694 C2688 1.383 . S
C2694 C2693 1.379 . S
H2695 C2689 0.959 . S
H2696 C2689 0.961 . S
H2697 C2689 0.960 . S
H2698 C2690 0.930 . S
H2699 C2691 0.929 . S
H2700 C2708 0.929 . S
H2701 C2710 0.930 . S
H2702 C2712 0.930 . S
H2703 C2715 0.929 . S
H2704 C2718 0.930 . S
H2705 C2720 0.960 . S
H2706 C2720 0.960 . S
H2707 C2720 0.960 . S
C2708 H2700 0.929 . S
C2708 C2709 1.377 . S
C2708 C2710 1.384 . S
C2709 C2708 1.377 . S
C2709 C2715 1.390 . S
C2710 H2701 0.930 . S
C2710 C2708 1.384 . S
C2710 C2711 1.372 . S
C2711 C2710 1.372 . S
C2711 C2712 1.400 . S
C2711 C2716 1.490 . S
C2712 H2702 0.930 . S
C2712 C2711 1.400 . S
C2712 C2715 1.386 . S
H2713 C2729 0.930 . S
H2714 C2730 0.931 . S
C2715 H2703 0.929 . S
C2715 C2709 1.390 . S
C2715 C2712 1.386 . S
C2716 C2711 1.490 . S
C2716 C2718 1.395 . S
C2716 C2719 1.403 . S
H2717 C2723 0.930 . S
C2718 H2704 0.930 . S
C2718 C2716 1.395 . S
C2718 C2721 1.403 . S
C2719 C2716 1.403 . S
C2719 C2720 1.524 . S
C2719 C2723 1.400 . S
C2720 H2705 0.960 . S
C2720 H2706 0.960 . S
C2720 H2707 0.960 . S
C2720 C2719 1.524 . S
C2721 C2718 1.403 . S
C2721 C2722 1.392 . S
C2721 C2725 1.495 . S
C2722 C2721 1.392 . S
C2722 C2723 1.385 . S
C2722 C2724 1.478 . S
C2723 H2717 0.930 . S
C2723 C2719 1.400 . S
C2723 C2722 1.385 . S
C2724 C2722 1.478 . S
C2724 C2726 1.381 . S
C2724 C2730 1.383 . S
C2725 C2721 1.495 . S
C2725 H2731 0.959 . S
C2725 H2732 0.961 . S
C2725 H2733 0.960 . S
C2726 C2724 1.381 . S
C2726 C2727 1.394 . S
C2726 H2734 0.930 . S
C2727 C2726 1.394 . S
C2727 C2728 1.383 . S
C2727 H2735 0.929 . S
C2728 C2727 1.383 . S
C2728 C2729 1.377 . S
C2729 H2713 0.930 . S
C2729 C2728 1.377 . S
C2729 C2730 1.379 . S
C2730 H2714 0.931 . S
C2730 C2724 1.383 . S
C2730 C2729 1.379 . S
H2731 C2725 0.959 . S
H2732 C2725 0.961 . S
H2733 C2725 0.960 . S
H2734 C2726 0.930 . S
H2735 C2727 0.929 . S
H2736 C2744 0.929 . S
H2737 C2746 0.930 . S
H2738 C2748 0.930 . S
H2739 C2751 0.929 . S
H2740 C2754 0.930 . S
H2741 C2756 0.960 . S
H2742 C2756 0.960 . S
H2743 C2756 0.960 . S
C2744 H2736 0.929 . S
C2744 C2745 1.377 . S
C2744 C2746 1.384 . S
C2745 C2744 1.377 . S
C2745 C2751 1.390 . S
C2746 H2737 0.930 . S
C2746 C2744 1.384 . S
C2746 C2747 1.372 . S
C2747 C2746 1.372 . S
C2747 C2748 1.400 . S
C2747 C2752 1.490 . S
C2748 H2738 0.930 . S
C2748 C2747 1.400 . S
C2748 C2751 1.386 . S
H2749 C2765 0.930 . S
H2750 C2766 0.931 . S
C2751 H2739 0.929 . S
C2751 C2745 1.390 . S
C2751 C2748 1.386 . S
C2752 C2747 1.490 . S
C2752 C2754 1.395 . S
C2752 C2755 1.403 . S
H2753 C2759 0.930 . S
C2754 H2740 0.930 . S
C2754 C2752 1.395 . S
C2754 C2757 1.403 . S
C2755 C2752 1.403 . S
C2755 C2756 1.524 . S
C2755 C2759 1.400 . S
C2756 H2741 0.960 . S
C2756 H2742 0.960 . S
C2756 H2743 0.960 . S
C2756 C2755 1.524 . S
C2757 C2754 1.403 . S
C2757 C2758 1.392 . S
C2757 C2761 1.495 . S
C2758 C2757 1.392 . S
C2758 C2759 1.385 . S
C2758 C2760 1.478 . S
C2759 H2753 0.930 . S
C2759 C2755 1.400 . S
C2759 C2758 1.385 . S
C2760 C2758 1.478 . S
C2760 C2762 1.381 . S
C2760 C2766 1.383 . S
C2761 C2757 1.495 . S
C2761 H2767 0.959 . S
C2761 H2768 0.961 . S
C2761 H2769 0.960 . S
C2762 C2760 1.381 . S
C2762 C2763 1.394 . S
C2762 H2770 0.930 . S
C2763 C2762 1.394 . S
C2763 C2764 1.383 . S
C2763 H2771 0.929 . S
C2764 C2763 1.383 . S
C2764 C2765 1.377 . S
C2765 H2749 0.930 . S
C2765 C2764 1.377 . S
C2765 C2766 1.379 . S
C2766 H2750 0.931 . S
C2766 C2760 1.383 . S
C2766 C2765 1.379 . S
H2767 C2761 0.959 . S
H2768 C2761 0.961 . S
H2769 C2761 0.960 . S
H2770 C2762 0.930 . S
H2771 C2763 0.929 . S
H2772 C2780 0.929 . S
H2773 C2782 0.930 . S
H2774 C2784 0.930 . S
H2775 C2787 0.929 . S
H2776 C2790 0.930 . S
H2777 C2792 0.960 . S
H2778 C2792 0.960 . S
H2779 C2792 0.960 . S
C2780 H2772 0.929 . S
C2780 C2781 1.377 . S
C2780 C2782 1.384 . S
C2781 C2780 1.377 . S
C2781 C2787 1.390 . S
C2782 H2773 0.930 . S
C2782 C2780 1.384 . S
C2782 C2783 1.372 . S
C2783 C2782 1.372 . S
C2783 C2784 1.400 . S
C2783 C2788 1.490 . S
C2784 H2774 0.930 . S
C2784 C2783 1.400 . S
C2784 C2787 1.386 . S
H2785 C2801 0.930 . S
H2786 C2802 0.931 . S
C2787 H2775 0.929 . S
C2787 C2781 1.390 . S
C2787 C2784 1.386 . S
C2788 C2783 1.490 . S
C2788 C2790 1.395 . S
C2788 C2791 1.403 . S
H2789 C2795 0.930 . S
C2790 H2776 0.930 . S
C2790 C2788 1.395 . S
C2790 C2793 1.403 . S
C2791 C2788 1.403 . S
C2791 C2792 1.524 . S
C2791 C2795 1.400 . S
C2792 H2777 0.960 . S
C2792 H2778 0.960 . S
C2792 H2779 0.960 . S
C2792 C2791 1.524 . S
C2793 C2790 1.403 . S
C2793 C2794 1.392 . S
C2793 C2797 1.495 . S
C2794 C2793 1.392 . S
C2794 C2795 1.385 . S
C2794 C2796 1.478 . S
C2795 H2789 0.930 . S
C2795 C2791 1.400 . S
C2795 C2794 1.385 . S
C2796 C2794 1.478 . S
C2796 C2798 1.381 . S
C2796 C2802 1.383 . S
C2797 C2793 1.495 . S
C2797 H2803 0.959 . S
C2797 H2804 0.961 . S
C2797 H2805 0.960 . S
C2798 C2796 1.381 . S
C2798 C2799 1.394 . S
C2798 H2806 0.930 . S
C2799 C2798 1.394 . S
C2799 C2800 1.383 . S
C2799 H2807 0.929 . S
C2800 C2799 1.383 . S
C2800 C2801 1.377 . S
C2801 H2785 0.930 . S
C2801 C2800 1.377 . S
C2801 C2802 1.379 . S
C2802 H2786 0.931 . S
C2802 C2796 1.383 . S
C2802 C2801 1.379 . S
H2803 C2797 0.959 . S
H2804 C2797 0.961 . S
H2805 C2797 0.960 . S
H2806 C2798 0.930 . S
H2807 C2799 0.929 . S
H2808 C2816 0.929 . S
H2809 C2818 0.930 . S
H2810 C2820 0.930 . S
H2811 C2823 0.929 . S
H2812 C2826 0.930 . S
H2813 C2828 0.960 . S
H2814 C2828 0.960 . S
H2815 C2828 0.960 . S
C2816 H2808 0.929 . S
C2816 C2817 1.377 . S
C2816 C2818 1.384 . S
C2817 C2816 1.377 . S
C2817 C2823 1.390 . S
C2818 H2809 0.930 . S
C2818 C2816 1.384 . S
C2818 C2819 1.372 . S
C2819 C2818 1.372 . S
C2819 C2820 1.400 . S
C2819 C2824 1.490 . S
C2820 H2810 0.930 . S
C2820 C2819 1.400 . S
C2820 C2823 1.386 . S
H2821 C2837 0.930 . S
H2822 C2838 0.931 . S
C2823 H2811 0.929 . S
C2823 C2817 1.390 . S
C2823 C2820 1.386 . S
C2824 C2819 1.490 . S
C2824 C2826 1.395 . S
C2824 C2827 1.403 . S
H2825 C2831 0.930 . S
C2826 H2812 0.930 . S
C2826 C2824 1.395 . S
C2826 C2829 1.403 . S
C2827 C2824 1.403 . S
C2827 C2828 1.524 . S
C2827 C2831 1.400 . S
C2828 H2813 0.960 . S
C2828 H2814 0.960 . S
C2828 H2815 0.960 . S
C2828 C2827 1.524 . S
C2829 C2826 1.403 . S
C2829 C2830 1.392 . S
C2829 C2833 1.495 . S
C2830 C2829 1.392 . S
C2830 C2831 1.385 . S
C2830 C2832 1.478 . S
C2831 H2825 0.930 . S
C2831 C2827 1.400 . S
C2831 C2830 1.385 . S
C2832 C2830 1.478 . S
C2832 C2834 1.381 . S
C2832 C2838 1.383 . S
C2833 C2829 1.495 . S
C2833 H2839 0.959 . S
C2833 H2840 0.961 . S
C2833 H2841 0.960 . S
C2834 C2832 1.381 . S
C2834 C2835 1.394 . S
C2834 H2842 0.930 . S
C2835 C2834 1.394 . S
C2835 C2836 1.383 . S
C2835 H2843 0.929 . S
C2836 C2835 1.383 . S
C2836 C2837 1.377 . S
C2837 H2821 0.930 . S
C2837 C2836 1.377 . S
C2837 C2838 1.379 . S
C2838 H2822 0.931 . S
C2838 C2832 1.383 . S
C2838 C2837 1.379 . S
H2839 C2833 0.959 . S
H2840 C2833 0.961 . S
H2841 C2833 0.960 . S
H2842 C2834 0.930 . S
H2843 C2835 0.929 . S
H2844 C2852 0.929 . S
H2845 C2854 0.930 . S
H2846 C2856 0.930 . S
H2847 C2859 0.929 . S
H2848 C2862 0.930 . S
H2849 C2864 0.960 . S
H2850 C2864 0.960 . S
H2851 C2864 0.960 . S
C2852 H2844 0.929 . S
C2852 C2853 1.377 . S
C2852 C2854 1.384 . S
C2853 C2852 1.377 . S
C2853 C2859 1.390 . S
C2854 H2845 0.930 . S
C2854 C2852 1.384 . S
C2854 C2855 1.372 . S
C2855 C2854 1.372 . S
C2855 C2856 1.400 . S
C2855 C2860 1.490 . S
C2856 H2846 0.930 . S
C2856 C2855 1.400 . S
C2856 C2859 1.386 . S
H2857 C2873 0.930 . S
H2858 C2874 0.931 . S
C2859 H2847 0.929 . S
C2859 C2853 1.390 . S
C2859 C2856 1.386 . S
C2860 C2855 1.490 . S
C2860 C2862 1.395 . S
C2860 C2863 1.403 . S
H2861 C2867 0.930 . S
C2862 H2848 0.930 . S
C2862 C2860 1.395 . S
C2862 C2865 1.403 . S
C2863 C2860 1.403 . S
C2863 C2864 1.524 . S
C2863 C2867 1.400 . S
C2864 H2849 0.960 . S
C2864 H2850 0.960 . S
C2864 H2851 0.960 . S
C2864 C2863 1.524 . S
C2865 C2862 1.403 . S
C2865 C2866 1.392 . S
C2865 C2869 1.495 . S
C2866 C2865 1.392 . S
C2866 C2867 1.385 . S
C2866 C2868 1.478 . S
C2867 H2861 0.930 . S
C2867 C2863 1.400 . S
C2867 C2866 1.385 . S
C2868 C2866 1.478 . S
C2868 C2870 1.381 . S
C2868 C2874 1.383 . S
C2869 C2865 1.495 . S
C2869 H2875 0.959 . S
C2869 H2876 0.961 . S
C2869 H2877 0.960 . S
C2870 C2868 1.381 . S
C2870 C2871 1.394 . S
C2870 H2878 0.930 . S
C2871 C2870 1.394 . S
C2871 C2872 1.383 . S
C2871 H2879 0.929 . S
C2872 C2871 1.383 . S
C2872 C2873 1.377 . S
C2873 H2857 0.930 . S
C2873 C2872 1.377 . S
C2873 C2874 1.379 . S
C2874 H2858 0.931 . S
C2874 C2868 1.383 . S
C2874 C2873 1.379 . S
H2875 C2869 0.959 . S
H2876 C2869 0.961 . S
H2877 C2869 0.960 . S
H2878 C2870 0.930 . S
H2879 C2871 0.929 . S
H2880 C2888 0.929 . S
H2881 C2890 0.930 . S
H2882 C2892 0.930 . S
H2883 C2895 0.929 . S
H2884 C2898 0.930 . S
H2885 C2900 0.960 . S
H2886 C2900 0.960 . S
H2887 C2900 0.960 . S
C2888 H2880 0.929 . S
C2888 C2889 1.377 . S
C2888 C2890 1.384 . S
C2889 C2888 1.377 . S
C2889 C2895 1.390 . S
C2890 H2881 0.930 . S
C2890 C2888 1.384 . S
C2890 C2891 1.372 . S
C2891 C2890 1.372 . S
C2891 C2892 1.400 . S
C2891 C2896 1.490 . S
C2892 H2882 0.930 . S
C2892 C2891 1.400 . S
C2892 C2895 1.386 . S
H2893 C2909 0.930 . S
H2894 C2910 0.931 . S
C2895 H2883 0.929 . S
C2895 C2889 1.390 . S
C2895 C2892 1.386 . S
C2896 C2891 1.490 . S
C2896 C2898 1.395 . S
C2896 C2899 1.403 . S
H2897 C2903 0.930 . S
C2898 H2884 0.930 . S
C2898 C2896 1.395 . S
C2898 C2901 1.403 . S
C2899 C2896 1.403 . S
C2899 C2900 1.524 . S
C2899 C2903 1.400 . S
C2900 H2885 0.960 . S
C2900 H2886 0.960 . S
C2900 H2887 0.960 . S
C2900 C2899 1.524 . S
C2901 C2898 1.403 . S
C2901 C2902 1.392 . S
C2901 C2905 1.495 . S
C2902 C2901 1.392 . S
C2902 C2903 1.385 . S
C2902 C2904 1.478 . S
C2903 H2897 0.930 . S
C2903 C2899 1.400 . S
C2903 C2902 1.385 . S
C2904 C2902 1.478 . S
C2904 C2906 1.381 . S
C2904 C2910 1.383 . S
C2905 C2901 1.495 . S
C2905 H2911 0.959 . S
C2905 H2912 0.961 . S
C2905 H2913 0.960 . S
C2906 C2904 1.381 . S
C2906 C2907 1.394 . S
C2906 H2914 0.930 . S
C2907 C2906 1.394 . S
C2907 C2908 1.383 . S
C2907 H2915 0.929 . S
C2908 C2907 1.383 . S
C2908 C2909 1.377 . S
C2909 H2893 0.930 . S
C2909 C2908 1.377 . S
C2909 C2910 1.379 . S
C2910 H2894 0.931 . S
C2910 C2904 1.383 . S
C2910 C2909 1.379 . S
H2911 C2905 0.959 . S
H2912 C2905 0.961 . S
H2913 C2905 0.960 . S
H2914 C2906 0.930 . S
H2915 C2907 0.929 . S
H2916 C2924 0.929 . S
H2917 C2926 0.930 . S
H2918 C2928 0.930 . S
H2919 C2931 0.929 . S
H2920 C2934 0.930 . S
H2921 C2936 0.960 . S
H2922 C2936 0.960 . S
H2923 C2936 0.960 . S
C2924 H2916 0.929 . S
C2924 C2925 1.377 . S
C2924 C2926 1.384 . S
C2925 C2924 1.377 . S
C2925 C2931 1.390 . S
C2926 H2917 0.930 . S
C2926 C2924 1.384 . S
C2926 C2927 1.372 . S
C2927 C2926 1.372 . S
C2927 C2928 1.400 . S
C2927 C2932 1.490 . S
C2928 H2918 0.930 . S
C2928 C2927 1.400 . S
C2928 C2931 1.386 . S
H2929 C2945 0.930 . S
H2930 C2946 0.931 . S
C2931 H2919 0.929 . S
C2931 C2925 1.390 . S
C2931 C2928 1.386 . S
C2932 C2927 1.490 . S
C2932 C2934 1.395 . S
C2932 C2935 1.403 . S
H2933 C2939 0.930 . S
C2934 H2920 0.930 . S
C2934 C2932 1.395 . S
C2934 C2937 1.403 . S
C2935 C2932 1.403 . S
C2935 C2936 1.524 . S
C2935 C2939 1.400 . S
C2936 H2921 0.960 . S
C2936 H2922 0.960 . S
C2936 H2923 0.960 . S
C2936 C2935 1.524 . S
C2937 C2934 1.403 . S
C2937 C2938 1.392 . S
C2937 C2941 1.495 . S
C2938 C2937 1.392 . S
C2938 C2939 1.385 . S
C2938 C2940 1.478 . S
C2939 H2933 0.930 . S
C2939 C2935 1.400 . S
C2939 C2938 1.385 . S
C2940 C2938 1.478 . S
C2940 C2942 1.381 . S
C2940 C2946 1.383 . S
C2941 C2937 1.495 . S
C2941 H2947 0.959 . S
C2941 H2948 0.961 . S
C2941 H2949 0.960 . S
C2942 C2940 1.381 . S
C2942 C2943 1.394 . S
C2942 H2950 0.930 . S
C2943 C2942 1.394 . S
C2943 C2944 1.383 . S
C2943 H2951 0.929 . S
C2944 C2943 1.383 . S
C2944 C2945 1.377 . S
C2945 H2929 0.930 . S
C2945 C2944 1.377 . S
C2945 C2946 1.379 . S
C2946 H2930 0.931 . S
C2946 C2940 1.383 . S
C2946 C2945 1.379 . S
H2947 C2941 0.959 . S
H2948 C2941 0.961 . S
H2949 C2941 0.960 . S
H2950 C2942 0.930 . S
H2951 C2943 0.929 . S
H2952 C2960 0.929 . S
H2953 C2962 0.930 . S
H2954 C2964 0.930 . S
H2955 C2967 0.929 . S
H2956 C2970 0.930 . S
H2957 C2972 0.960 . S
H2958 C2972 0.960 . S
H2959 C2972 0.960 . S
C2960 H2952 0.929 . S
C2960 C2961 1.377 . S
C2960 C2962 1.384 . S
C2961 C2960 1.377 . S
C2961 C2967 1.390 . S
C2962 H2953 0.930 . S
C2962 C2960 1.384 . S
C2962 C2963 1.372 . S
C2963 C2962 1.372 . S
C2963 C2964 1.400 . S
C2963 C2968 1.490 . S
C2964 H2954 0.930 . S
C2964 C2963 1.400 . S
C2964 C2967 1.386 . S
H2965 C2981 0.930 . S
H2966 C2982 0.931 . S
C2967 H2955 0.929 . S
C2967 C2961 1.390 . S
C2967 C2964 1.386 . S
C2968 C2963 1.490 . S
C2968 C2970 1.395 . S
C2968 C2971 1.403 . S
H2969 C2975 0.930 . S
C2970 H2956 0.930 . S
C2970 C2968 1.395 . S
C2970 C2973 1.403 . S
C2971 C2968 1.403 . S
C2971 C2972 1.524 . S
C2971 C2975 1.400 . S
C2972 H2957 0.960 . S
C2972 H2958 0.960 . S
C2972 H2959 0.960 . S
C2972 C2971 1.524 . S
C2973 C2970 1.403 . S
C2973 C2974 1.392 . S
C2973 C2977 1.495 . S
C2974 C2973 1.392 . S
C2974 C2975 1.385 . S
C2974 C2976 1.478 . S
C2975 H2969 0.930 . S
C2975 C2971 1.400 . S
C2975 C2974 1.385 . S
C2976 C2974 1.478 . S
C2976 C2978 1.381 . S
C2976 C2982 1.383 . S
C2977 C2973 1.495 . S
C2977 H2983 0.959 . S
C2977 H2984 0.961 . S
C2977 H2985 0.960 . S
C2978 C2976 1.381 . S
C2978 C2979 1.394 . S
C2978 H2986 0.930 . S
C2979 C2978 1.394 . S
C2979 C2980 1.383 . S
C2979 H2987 0.929 . S
C2980 C2979 1.383 . S
C2980 C2981 1.377 . S
C2981 H2965 0.930 . S
C2981 C2980 1.377 . S
C2981 C2982 1.379 . S
C2982 H2966 0.931 . S
C2982 C2976 1.383 . S
C2982 C2981 1.379 . S
H2983 C2977 0.959 . S
H2984 C2977 0.961 . S
H2985 C2977 0.960 . S
H2986 C2978 0.930 . S
H2987 C2979 0.929 . S
H2988 C2996 0.929 . S
H2989 C2998 0.930 . S
H2990 C3000 0.930 . S
H2991 C3003 0.929 . S
H2992 C3006 0.930 . S
H2993 C3008 0.960 . S
H2994 C3008 0.960 . S
H2995 C3008 0.960 . S
C2996 H2988 0.929 . S
C2996 C2997 1.377 . S
C2996 C2998 1.384 . S
C2997 C2996 1.377 . S
C2997 C3003 1.390 . S
C2998 H2989 0.930 . S
C2998 C2996 1.384 . S
C2998 C2999 1.372 . S
C2999 C2998 1.372 . S
C2999 C3000 1.400 . S
C2999 C3004 1.490 . S
C3000 H2990 0.930 . S
C3000 C2999 1.400 . S
C3000 C3003 1.386 . S
H3001 C3017 0.930 . S
H3002 C3018 0.931 . S
C3003 H2991 0.929 . S
C3003 C2997 1.390 . S
C3003 C3000 1.386 . S
C3004 C2999 1.490 . S
C3004 C3006 1.395 . S
C3004 C3007 1.403 . S
H3005 C3011 0.930 . S
C3006 H2992 0.930 . S
C3006 C3004 1.395 . S
C3006 C3009 1.403 . S
C3007 C3004 1.403 . S
C3007 C3008 1.524 . S
C3007 C3011 1.400 . S
C3008 H2993 0.960 . S
C3008 H2994 0.960 . S
C3008 H2995 0.960 . S
C3008 C3007 1.524 . S
C3009 C3006 1.403 . S
C3009 C3010 1.392 . S
C3009 C3013 1.495 . S
C3010 C3009 1.392 . S
C3010 C3011 1.385 . S
C3010 C3012 1.478 . S
C3011 H3005 0.930 . S
C3011 C3007 1.400 . S
C3011 C3010 1.385 . S
C3012 C3010 1.478 . S
C3012 C3014 1.381 . S
C3012 C3018 1.383 . S
C3013 C3009 1.495 . S
C3013 H3019 0.959 . S
C3013 H3020 0.961 . S
C3013 H3021 0.960 . S
C3014 C3012 1.381 . S
C3014 C3015 1.394 . S
C3014 H3022 0.930 . S
C3015 C3014 1.394 . S
C3015 C3016 1.383 . S
C3015 H3023 0.929 . S
C3016 C3015 1.383 . S
C3016 C3017 1.377 . S
C3017 H3001 0.930 . S
C3017 C3016 1.377 . S
C3017 C3018 1.379 . S
C3018 H3002 0.931 . S
C3018 C3012 1.383 . S
C3018 C3017 1.379 . S
H3019 C3013 0.959 . S
H3020 C3013 0.961 . S
H3021 C3013 0.960 . S
H3022 C3014 0.930 . S
H3023 C3015 0.929 . S
H3024 C3032 0.929 . S
H3025 C3034 0.930 . S
H3026 C3036 0.930 . S
H3027 C3039 0.929 . S
H3028 C3042 0.930 . S
H3029 C3044 0.960 . S
H3030 C3044 0.960 . S
H3031 C3044 0.960 . S
C3032 H3024 0.929 . S
C3032 C3033 1.377 . S
C3032 C3034 1.384 . S
C3033 C3032 1.377 . S
C3033 C3039 1.390 . S
C3034 H3025 0.930 . S
C3034 C3032 1.384 . S
C3034 C3035 1.372 . S
C3035 C3034 1.372 . S
C3035 C3036 1.400 . S
C3035 C3040 1.490 . S
C3036 H3026 0.930 . S
C3036 C3035 1.400 . S
C3036 C3039 1.386 . S
H3037 C3053 0.930 . S
H3038 C3054 0.931 . S
C3039 H3027 0.929 . S
C3039 C3033 1.390 . S
C3039 C3036 1.386 . S
C3040 C3035 1.490 . S
C3040 C3042 1.395 . S
C3040 C3043 1.403 . S
H3041 C3047 0.930 . S
C3042 H3028 0.930 . S
C3042 C3040 1.395 . S
C3042 C3045 1.403 . S
C3043 C3040 1.403 . S
C3043 C3044 1.524 . S
C3043 C3047 1.400 . S
C3044 H3029 0.960 . S
C3044 H3030 0.960 . S
C3044 H3031 0.960 . S
C3044 C3043 1.524 . S
C3045 C3042 1.403 . S
C3045 C3046 1.392 . S
C3045 C3049 1.495 . S
C3046 C3045 1.392 . S
C3046 C3047 1.385 . S
C3046 C3048 1.478 . S
C3047 H3041 0.930 . S
C3047 C3043 1.400 . S
C3047 C3046 1.385 . S
C3048 C3046 1.478 . S
C3048 C3050 1.381 . S
C3048 C3054 1.383 . S
C3049 C3045 1.495 . S
C3049 H3055 0.959 . S
C3049 H3056 0.961 . S
C3049 H3057 0.960 . S
C3050 C3048 1.381 . S
C3050 C3051 1.394 . S
C3050 H3058 0.930 . S
C3051 C3050 1.394 . S
C3051 C3052 1.383 . S
C3051 H3059 0.929 . S
C3052 C3051 1.383 . S
C3052 C3053 1.377 . S
C3053 H3037 0.930 . S
C3053 C3052 1.377 . S
C3053 C3054 1.379 . S
C3054 H3038 0.931 . S
C3054 C3048 1.383 . S
C3054 C3053 1.379 . S
H3055 C3049 0.959 . S
H3056 C3049 0.961 . S
H3057 C3049 0.960 . S
H3058 C3050 0.930 . S
H3059 C3051 0.929 . S
H3060 C3068 0.929 . S
H3061 C3070 0.930 . S
H3062 C3072 0.930 . S
H3063 C3075 0.929 . S
H3064 C3078 0.930 . S
H3065 C3080 0.960 . S
H3066 C3080 0.960 . S
H3067 C3080 0.960 . S
C3068 H3060 0.929 . S
C3068 C3069 1.377 . S
C3068 C3070 1.384 . S
C3069 C3068 1.377 . S
C3069 C3075 1.390 . S
C3070 H3061 0.930 . S
C3070 C3068 1.384 . S
C3070 C3071 1.372 . S
C3071 C3070 1.372 . S
C3071 C3072 1.400 . S
C3071 C3076 1.490 . S
C3072 H3062 0.930 . S
C3072 C3071 1.400 . S
C3072 C3075 1.386 . S
H3073 C3089 0.930 . S
H3074 C3090 0.931 . S
C3075 H3063 0.929 . S
C3075 C3069 1.390 . S
C3075 C3072 1.386 . S
C3076 C3071 1.490 . S
C3076 C3078 1.395 . S
C3076 C3079 1.403 . S
H3077 C3083 0.930 . S
C3078 H3064 0.930 . S
C3078 C3076 1.395 . S
C3078 C3081 1.403 . S
C3079 C3076 1.403 . S
C3079 C3080 1.524 . S
C3079 C3083 1.400 . S
C3080 H3065 0.960 . S
C3080 H3066 0.960 . S
C3080 H3067 0.960 . S
C3080 C3079 1.524 . S
C3081 C3078 1.403 . S
C3081 C3082 1.392 . S
C3081 C3085 1.495 . S
C3082 C3081 1.392 . S
C3082 C3083 1.385 . S
C3082 C3084 1.478 . S
C3083 H3077 0.930 . S
C3083 C3079 1.400 . S
C3083 C3082 1.385 . S
C3084 C3082 1.478 . S
C3084 C3086 1.381 . S
C3084 C3090 1.383 . S
C3085 C3081 1.495 . S
C3085 H3091 0.959 . S
C3085 H3092 0.961 . S
C3085 H3093 0.960 . S
C3086 C3084 1.381 . S
C3086 C3087 1.394 . S
C3086 H3094 0.930 . S
C3087 C3086 1.394 . S
C3087 C3088 1.383 . S
C3087 H3095 0.929 . S
C3088 C3087 1.383 . S
C3088 C3089 1.377 . S
C3089 H3073 0.930 . S
C3089 C3088 1.377 . S
C3089 C3090 1.379 . S
C3090 H3074 0.931 . S
C3090 C3084 1.383 . S
C3090 C3089 1.379 . S
H3091 C3085 0.959 . S
H3092 C3085 0.961 . S
H3093 C3085 0.960 . S
H3094 C3086 0.930 . S
H3095 C3087 0.929 . S
H3096 C3104 0.929 . S
H3097 C3106 0.930 . S
H3098 C3108 0.930 . S
H3099 C3111 0.929 . S
H3100 C3114 0.930 . S
H3101 C3116 0.960 . S
H3102 C3116 0.960 . S
H3103 C3116 0.960 . S
C3104 H3096 0.929 . S
C3104 C3105 1.377 . S
C3104 C3106 1.384 . S
C3105 C3104 1.377 . S
C3105 C3111 1.390 . S
C3106 H3097 0.930 . S
C3106 C3104 1.384 . S
C3106 C3107 1.372 . S
C3107 C3106 1.372 . S
C3107 C3108 1.400 . S
C3107 C3112 1.490 . S
C3108 H3098 0.930 . S
C3108 C3107 1.400 . S
C3108 C3111 1.386 . S
H3109 C3125 0.930 . S
H3110 C3126 0.931 . S
C3111 H3099 0.929 . S
C3111 C3105 1.390 . S
C3111 C3108 1.386 . S
C3112 C3107 1.490 . S
C3112 C3114 1.395 . S
C3112 C3115 1.403 . S
H3113 C3119 0.930 . S
C3114 H3100 0.930 . S
C3114 C3112 1.395 . S
C3114 C3117 1.403 . S
C3115 C3112 1.403 . S
C3115 C3116 1.524 . S
C3115 C3119 1.400 . S
C3116 H3101 0.960 . S
C3116 H3102 0.960 . S
C3116 H3103 0.960 . S
C3116 C3115 1.524 . S
C3117 C3114 1.403 . S
C3117 C3118 1.392 . S
C3117 C3121 1.495 . S
C3118 C3117 1.392 . S
C3118 C3119 1.385 . S
C3118 C3120 1.478 . S
C3119 H3113 0.930 . S
C3119 C3115 1.400 . S
C3119 C3118 1.385 . S
C3120 C3118 1.478 . S
C3120 C3122 1.381 . S
C3120 C3126 1.383 . S
C3121 C3117 1.495 . S
C3121 H3127 0.959 . S
C3121 H3128 0.961 . S
C3121 H3129 0.960 . S
C3122 C3120 1.381 . S
C3122 C3123 1.394 . S
C3122 H3130 0.930 . S
C3123 C3122 1.394 . S
C3123 C3124 1.383 . S
C3123 H3131 0.929 . S
C3124 C3123 1.383 . S
C3124 C3125 1.377 . S
C3125 H3109 0.930 . S
C3125 C3124 1.377 . S
C3125 C3126 1.379 . S
C3126 H3110 0.931 . S
C3126 C3120 1.383 . S
C3126 C3125 1.379 . S
H3127 C3121 0.959 . S
H3128 C3121 0.961 . S
H3129 C3121 0.960 . S
H3130 C3122 0.930 . S
H3131 C3123 0.929 . S
H3132 C3140 0.929 . S
H3133 C3142 0.930 . S
H3134 C3144 0.930 . S
H3135 C3147 0.929 . S
H3136 C3150 0.930 . S
H3137 C3152 0.960 . S
H3138 C3152 0.960 . S
H3139 C3152 0.960 . S
C3140 H3132 0.929 . S
C3140 C3141 1.377 . S
C3140 C3142 1.384 . S
C3141 C3140 1.377 . S
C3141 C3147 1.390 . S
C3142 H3133 0.930 . S
C3142 C3140 1.384 . S
C3142 C3143 1.372 . S
C3143 C3142 1.372 . S
C3143 C3144 1.400 . S
C3143 C3148 1.490 . S
C3144 H3134 0.930 . S
C3144 C3143 1.400 . S
C3144 C3147 1.386 . S
H3145 C3161 0.930 . S
H3146 C3162 0.931 . S
C3147 H3135 0.929 . S
C3147 C3141 1.390 . S
C3147 C3144 1.386 . S
C3148 C3143 1.490 . S
C3148 C3150 1.395 . S
C3148 C3151 1.403 . S
H3149 C3155 0.930 . S
C3150 H3136 0.930 . S
C3150 C3148 1.395 . S
C3150 C3153 1.403 . S
C3151 C3148 1.403 . S
C3151 C3152 1.524 . S
C3151 C3155 1.400 . S
C3152 H3137 0.960 . S
C3152 H3138 0.960 . S
C3152 H3139 0.960 . S
C3152 C3151 1.524 . S
C3153 C3150 1.403 . S
C3153 C3154 1.392 . S
C3153 C3157 1.495 . S
C3154 C3153 1.392 . S
C3154 C3155 1.385 . S
C3154 C3156 1.478 . S
C3155 H3149 0.930 . S
C3155 C3151 1.400 . S
C3155 C3154 1.385 . S
C3156 C3154 1.478 . S
C3156 C3158 1.381 . S
C3156 C3162 1.383 . S
C3157 C3153 1.495 . S
C3157 H3163 0.959 . S
C3157 H3164 0.961 . S
C3157 H3165 0.960 . S
C3158 C3156 1.381 . S
C3158 C3159 1.394 . S
C3158 H3166 0.930 . S
C3159 C3158 1.394 . S
C3159 C3160 1.383 . S
C3159 H3167 0.929 . S
C3160 C3159 1.383 . S
C3160 C3161 1.377 . S
C3161 H3145 0.930 . S
C3161 C3160 1.377 . S
C3161 C3162 1.379 . S
C3162 H3146 0.931 . S
C3162 C3156 1.383 . S
C3162 C3161 1.379 . S
H3163 C3157 0.959 . S
H3164 C3157 0.961 . S
H3165 C3157 0.960 . S
H3166 C3158 0.930 . S
H3167 C3159 0.929 . S
C604 C306 1.081 . S
C585 C258 1.147 . S
C621 C236 1.553 . S
C640 C300 1.452 . S
C676 C268 1.632 . S
C657 C225 1.711 . S
C693 C247 1.359 . S
C712 C282 1.318 . S
C748 C320 1.877 . S
C729 C181 2.024 . S
C784 C407 1.329 . S
C765 C192 1.334 . S
C801 C203 2.070 . S
C820 C334 1.967 . S
C856 C402 1.231 . S
C837 C214 1.271 . S
C873 C137 2.193 . S
C892 C358 2.099 . S
C928 C413 1.607 . S
C909 C148 1.663 . S
C945 C159 2.112 . S
C964 C352 2.016 . S
C981 C170 0.890 . S
C1000 C398 0.912 . S
C1036 C454 0.891 . S
C1017 C126 0.929 . S
C1053 C104 1.738 . S
C1072 C465 1.689 . S
C1089 C93 1.379 . S
C1108 C450 1.371 . S
C1144 C459 1.450 . S
C1125 C115 1.459 1_554 S
C1161 C49 1.494 . S
C1180 C504 1.457 . S
C1197 C60 0.475 . S
C1216 C563 0.441 . S
C1233 C71 1.638 . S
C1252 C520 1.553 . S
C1269 C82 1.255 . S
C1288 C558 1.209 . S
C1324 C522 1.724 . S
C1305 C5 1.798 . S
C1360 C569 0.609 . S
C1341 C16 0.642 . S
C1377 C27 1.584 . S
C1396 C498 1.485 . S
C1432 C554 0.716 . S
C1413 C38 0.757 . S
C1468 C290 1.712 . S
C1449 C4 1.739 . S
C1485 C21 1.117 . S
C1504 C294 1.125 . S
C1521 C32 1.413 . S
C1540 C314 1.366 . S
C1557 C37 0.868 . S
C1576 C309 0.867 . S
C1593 C48 1.792 . S
C1612 C312 1.767 . S
C1648 C298 1.203 . S
C1629 C59 1.216 . S
C1665 C76 1.331 . S
C1684 C296 1.307 . S
C1720 C303 1.218 . S
C1701 C81 1.246 . S
C1756 C366 1.305 . S
C1737 C43 1.293 . S
C1773 C10 1.799 . S
C1792 C416 1.787 . S
C1828 C364 1.419 . S
C1809 C15 1.439 . S
C1864 C400 2.001 . S
C1845 C26 2.096 . S
C1881 C65 0.980 . S
C1900 C342 0.960 . S
C1936 C418 1.917 . S
C1917 C70 2.015 . S
C1972 C348 1.387 . S
C1953 C87 1.362 . S
C2008 C394 1.543 . S
C1989 C54 1.559 . S
C2044 C386 1.390 . S
C2025 C98 1.361 . S
C2061 C109 1.150 . S
C2080 C410 1.190 . S
C2116 C346 1.370 . S
C2097 C92 1.338 . S
C2152 C372 1.261 1_556 S
C2133 C114 1.246 . S
C2169 C131 0.817 . S
C2188 C350 0.858 . S
C2205 C125 1.348 . S
C2224 C404 1.373 1_556 S
C2260 C361 1.621 . S
C2241 C103 1.617 . S
C2296 C355 1.247 . S
C2277 C120 1.162 . S
C2332 C438 2.080 . S
C2313 C136 2.126 . S
C2368 C470 1.381 . S
C2349 C153 1.337 . S
C2385 C164 1.733 . S
C2404 C424 1.790 . S
C2440 C468 1.087 . S
C2421 C169 1.066 . S
C2476 C456 2.049 . S
C2457 C180 2.076 . S
C2493 C191 1.347 . S
C2512 C452 1.377 . S
C2529 C208 1.727 . S
C2548 C462 1.771 . S
C2584 C446 1.413 . S
C2565 C213 1.427 . S
C2620 C511 1.149 . S
C2601 C175 1.115 . S
C2637 C142 1.507 . S
C2656 C572 1.496 . S
C2692 C506 1.247 . S
C2673 C147 1.227 . S
C2728 C556 1.743 . S
C2709 C158 1.790 . S
C2764 C502 0.903 . S
C2745 C197 0.852 . S
C2781 C202 1.655 . S
C2800 C574 1.607 . S
C2836 C517 1.264 . S
C2817 C219 1.196 . S
C2872 C550 1.253 . S
C2853 C186 1.219 . S
C2908 C542 1.546 . S
C2889 C230 1.518 . S
C2925 C241 1.617 . S
C2944 C566 1.593 . S
C2980 C508 1.584 . S
C2961 C224 1.605 . S
C2997 C246 1.752 . S
C3016 C528 1.706 . S
C3052 C490 1.143 . S
C3033 C263 1.174 . S
C3088 C560 1.471 . S
C3069 C257 1.484 . S
C3124 C476 1.578 . S
C3105 C235 1.623 . S
C3141 C252 1.095 . S
C3160 C514 1.063 . S
