# Generated by pormake.
# Topology ctn, (3,4)-cn, num edge types: 1
# Building blocks:
#     Node 0, Type 0, BuildingBlock: BELTOD_clean_linker_0, # of connection points: 3
#     Node 1, Type 0, BuildingBlock: BELTOD_clean_linker_0, # of connection points: 3
#     Node 2, Type 0, BuildingBlock: BELTOD_clean_linker_0, # of connection points: 3
#     Node 3, Type 0, BuildingBlock: BELTOD_clean_linker_0, # of connection points: 3
#     Node 4, Type 0, BuildingBlock: BELTOD_clean_linker_0, # of connection points: 3
#     Node 5, Type 0, BuildingBlock: BELTOD_clean_linker_0, # of connection points: 3
#     Node 6, Type 0, BuildingBlock: BELTOD_clean_linker_0, # of connection points: 3
#     Node 7, Type 0, BuildingBlock: BELTOD_clean_linker_0, # of connection points: 3
#     Node 8, Type 0, BuildingBlock: BELTOD_clean_linker_0, # of connection points: 3
#     Node 9, Type 0, BuildingBlock: BELTOD_clean_linker_0, # of connection points: 3
#     Node 10, Type 0, BuildingBlock: BELTOD_clean_linker_0, # of connection points: 3
#     Node 11, Type 0, BuildingBlock: BELTOD_clean_linker_0, # of connection points: 3
#     Node 12, Type 0, BuildingBlock: BELTOD_clean_linker_0, # of connection points: 3
#     Node 13, Type 0, BuildingBlock: BELTOD_clean_linker_0, # of connection points: 3
#     Node 14, Type 0, BuildingBlock: BELTOD_clean_linker_0, # of connection points: 3
#     Node 15, Type 0, BuildingBlock: BELTOD_clean_linker_0, # of connection points: 3
#     Node 16, Type 1, BuildingBlock: KUFVIS_clean_sbu_0, # of connection points: 4
#     Node 17, Type 1, BuildingBlock: KUFVIS_clean_sbu_0, # of connection points: 4
#     Node 18, Type 1, BuildingBlock: KUFVIS_clean_sbu_0, # of connection points: 4
#     Node 19, Type 1, BuildingBlock: KUFVIS_clean_sbu_0, # of connection points: 4
#     Node 20, Type 1, BuildingBlock: KUFVIS_clean_sbu_0, # of connection points: 4
#     Node 21, Type 1, BuildingBlock: KUFVIS_clean_sbu_0, # of connection points: 4
#     Node 22, Type 1, BuildingBlock: KUFVIS_clean_sbu_0, # of connection points: 4
#     Node 23, Type 1, BuildingBlock: KUFVIS_clean_sbu_0, # of connection points: 4
#     Node 24, Type 1, BuildingBlock: KUFVIS_clean_sbu_0, # of connection points: 4
#     Node 25, Type 1, BuildingBlock: KUFVIS_clean_sbu_0, # of connection points: 4
#     Node 26, Type 1, BuildingBlock: KUFVIS_clean_sbu_0, # of connection points: 4
#     Node 27, Type 1, BuildingBlock: KUFVIS_clean_sbu_0, # of connection points: 4
#     Edge 28, Type (0, 1), BuildingBlock: CIFDUS_clean_linker_0, # of connection points: 2
#     Edge 29, Type (0, 1), BuildingBlock: CIFDUS_clean_linker_0, # of connection points: 2
#     Edge 30, Type (0, 1), BuildingBlock: CIFDUS_clean_linker_0, # of connection points: 2
#     Edge 31, Type (0, 1), BuildingBlock: CIFDUS_clean_linker_0, # of connection points: 2
#     Edge 32, Type (0, 1), BuildingBlock: CIFDUS_clean_linker_0, # of connection points: 2
#     Edge 33, Type (0, 1), BuildingBlock: CIFDUS_clean_linker_0, # of connection points: 2
#     Edge 34, Type (0, 1), BuildingBlock: CIFDUS_clean_linker_0, # of connection points: 2
#     Edge 35, Type (0, 1), BuildingBlock: CIFDUS_clean_linker_0, # of connection points: 2
#     Edge 36, Type (0, 1), BuildingBlock: CIFDUS_clean_linker_0, # of connection points: 2
#     Edge 37, Type (0, 1), BuildingBlock: CIFDUS_clean_linker_0, # of connection points: 2
#     Edge 38, Type (0, 1), BuildingBlock: CIFDUS_clean_linker_0, # of connection points: 2
#     Edge 39, Type (0, 1), BuildingBlock: CIFDUS_clean_linker_0, # of connection points: 2
#     Edge 40, Type (0, 1), BuildingBlock: CIFDUS_clean_linker_0, # of connection points: 2
#     Edge 41, Type (0, 1), BuildingBlock: CIFDUS_clean_linker_0, # of connection points: 2
#     Edge 42, Type (0, 1), BuildingBlock: CIFDUS_clean_linker_0, # of connection points: 2
#     Edge 43, Type (0, 1), BuildingBlock: CIFDUS_clean_linker_0, # of connection points: 2
#     Edge 44, Type (0, 1), BuildingBlock: CIFDUS_clean_linker_0, # of connection points: 2
#     Edge 45, Type (0, 1), BuildingBlock: CIFDUS_clean_linker_0, # of connection points: 2
#     Edge 46, Type (0, 1), BuildingBlock: CIFDUS_clean_linker_0, # of connection points: 2
#     Edge 47, Type (0, 1), BuildingBlock: CIFDUS_clean_linker_0, # of connection points: 2
#     Edge 48, Type (0, 1), BuildingBlock: CIFDUS_clean_linker_0, # of connection points: 2
#     Edge 49, Type (0, 1), BuildingBlock: CIFDUS_clean_linker_0, # of connection points: 2
#     Edge 50, Type (0, 1), BuildingBlock: CIFDUS_clean_linker_0, # of connection points: 2
#     Edge 51, Type (0, 1), BuildingBlock: CIFDUS_clean_linker_0, # of connection points: 2
#     Edge 52, Type (0, 1), BuildingBlock: CIFDUS_clean_linker_0, # of connection points: 2
#     Edge 53, Type (0, 1), BuildingBlock: CIFDUS_clean_linker_0, # of connection points: 2
#     Edge 54, Type (0, 1), BuildingBlock: CIFDUS_clean_linker_0, # of connection points: 2
#     Edge 55, Type (0, 1), BuildingBlock: CIFDUS_clean_linker_0, # of connection points: 2
#     Edge 56, Type (0, 1), BuildingBlock: CIFDUS_clean_linker_0, # of connection points: 2
#     Edge 57, Type (0, 1), BuildingBlock: CIFDUS_clean_linker_0, # of connection points: 2
#     Edge 58, Type (0, 1), BuildingBlock: CIFDUS_clean_linker_0, # of connection points: 2
#     Edge 59, Type (0, 1), BuildingBlock: CIFDUS_clean_linker_0, # of connection points: 2
#     Edge 60, Type (0, 1), BuildingBlock: CIFDUS_clean_linker_0, # of connection points: 2
#     Edge 61, Type (0, 1), BuildingBlock: CIFDUS_clean_linker_0, # of connection points: 2
#     Edge 62, Type (0, 1), BuildingBlock: CIFDUS_clean_linker_0, # of connection points: 2
#     Edge 63, Type (0, 1), BuildingBlock: CIFDUS_clean_linker_0, # of connection points: 2
#     Edge 64, Type (0, 1), BuildingBlock: CIFDUS_clean_linker_0, # of connection points: 2
#     Edge 65, Type (0, 1), BuildingBlock: CIFDUS_clean_linker_0, # of connection points: 2
#     Edge 66, Type (0, 1), BuildingBlock: CIFDUS_clean_linker_0, # of connection points: 2
#     Edge 67, Type (0, 1), BuildingBlock: CIFDUS_clean_linker_0, # of connection points: 2
#     Edge 68, Type (0, 1), BuildingBlock: CIFDUS_clean_linker_0, # of connection points: 2
#     Edge 69, Type (0, 1), BuildingBlock: CIFDUS_clean_linker_0, # of connection points: 2
#     Edge 70, Type (0, 1), BuildingBlock: CIFDUS_clean_linker_0, # of connection points: 2
#     Edge 71, Type (0, 1), BuildingBlock: CIFDUS_clean_linker_0, # of connection points: 2
#     Edge 72, Type (0, 1), BuildingBlock: CIFDUS_clean_linker_0, # of connection points: 2
#     Edge 73, Type (0, 1), BuildingBlock: CIFDUS_clean_linker_0, # of connection points: 2
#     Edge 74, Type (0, 1), BuildingBlock: CIFDUS_clean_linker_0, # of connection points: 2
#     Edge 75, Type (0, 1), BuildingBlock: CIFDUS_clean_linker_0, # of connection points: 2
# Relax obj value: 0.013
# Max RMSD: 0.066
# Mean RMSD: 0.034
data_MOF--net-ctn--node1-KUFVIS_clean_sbu_0--node2-BELTOD_clean_linker_0--edge1-CIFDUS_clean_linker_0
_symmetry_space_group_name_H-M    P1
_symmetry_Int_Tables_number       1
_symmetry_cell_setting            triclinic
loop_
_symmetry_equiv_pos_as_xyz
'x, y, z'
_cell_length_a     54.786128
_cell_length_b     55.057328
_cell_length_c     54.863779
_cell_angle_alpha  90.404983
_cell_angle_beta   90.38585
_cell_angle_gamma 92.474325
loop_
_atom_site_label
_atom_site_type_symbol
_atom_site_fract_x
_atom_site_fract_y
_atom_site_fract_z
_atom_type_partial_charge
P0 P 0.06353 0.0577 0.06542 0.0
H1 H 0.06441 0.03404 0.11277 0.0
H2 H 0.03229 0.02125 0.14135 0.0
H3 H 0.97754 0.04187 0.08934 0.0
H4 H 0.00957 0.05468 0.06101 0.0
H5 H 0.09857 0.06031 0.02594 0.0
H6 H 0.12527 0.03066 0.00815 0.0
H7 H 0.09154 0.97454 0.05292 0.0
H8 H 0.06511 0.00439 0.07086 0.0
H9 H 0.06616 0.11093 0.06409 0.0
H10 H 0.03549 0.05204 0.01982 0.0
O11 O 0.08405 0.07232 0.08344 0.0
H12 H 0.05026 0.14036 0.03552 0.0
H13 H 0.01899 0.08157 0.99137 0.0
C14 C 0.03949 0.04562 0.08485 0.0
C15 C 0.04547 0.03556 0.10743 0.0
C16 C 0.02709 0.02813 0.1237 0.0
C17 C 0.00236 0.03075 0.11771 0.0
C18 C 0.99643 0.03996 0.09465 0.0
C19 C 0.01482 0.04723 0.07835 0.0
C20 C 0.07965 0.03457 0.04954 0.0
C21 C 0.09656 0.04151 0.03156 0.0
C22 C 0.11182 0.02451 0.02136 0.0
C23 C 0.11063 1.00019 0.02915 0.0
C24 C 0.09315 0.99317 0.04672 0.0
C25 C 0.07785 0.01022 0.05688 0.0
C26 C 0.05211 0.07928 0.04399 0.0
C27 C 0.05609 0.1043 0.04817 0.0
C28 C 0.04703 0.12113 0.03183 0.0
C29 C 0.03343 0.11324 0.01124 0.0
C30 C 0.02932 0.08814 0.00717 0.0
C31 C 0.03879 0.07129 0.02332 0.0
P32 P 0.33533 0.67511 0.18113 0.0
H33 H 0.36409 0.69764 0.14222 0.0
H34 H 0.35726 0.73181 0.11527 0.0
H35 H 0.28965 0.74474 0.15247 0.0
H36 H 0.29724 0.71112 0.17999 0.0
H37 H 0.38438 0.66496 0.19859 0.0
H38 H 0.40817 0.67878 0.23411 0.0
H39 H 0.34735 0.71968 0.25887 0.0
H40 H 0.3237 0.70599 0.2228 0.0
H41 H 0.2895 0.66712 0.15395 0.0
H42 H 0.31929 0.64644 0.22332 0.0
O43 O 0.35161 0.6557 0.16517 0.0
H44 H 0.25222 0.64274 0.16203 0.0
H45 H 0.28258 0.62116 0.23113 0.0
C46 C 0.33078 0.7014 0.16257 0.0
C47 C 0.34785 0.7079 0.14461 0.0
C48 C 0.34385 0.72741 0.12914 0.0
C49 C 0.32268 0.74083 0.13136 0.0
C50 C 0.3062 0.73492 0.15024 0.0
C51 C 0.31036 0.71552 0.16585 0.0
C52 C 0.35226 0.68443 0.20811 0.0
C53 C 0.37606 0.67676 0.21171 0.0
C54 C 0.38961 0.68456 0.23217 0.0
C55 C 0.37965 0.70025 0.24944 0.0
C56 C 0.35564 0.70775 0.24583 0.0
C57 C 0.34207 0.69989 0.22531 0.0
C58 C 0.30685 0.65929 0.18839 0.0
C59 C 0.28785 0.65766 0.17113 0.0
C60 C 0.26665 0.6434 0.17564 0.0
C61 C 0.26426 0.62999 0.19729 0.0
C62 C 0.28346 0.63165 0.21452 0.0
C63 C 0.30456 0.64609 0.21006 0.0
P64 P 0.98094 0.48771 0.02789 0.0
H65 H 0.99725 0.46952 0.98061 0.0
H66 H 0.99572 0.42924 0.96167 0.0
H67 H 0.95916 0.39971 0.02514 0.0
H68 H 0.96047 0.44031 0.04386 0.0
H69 H 0.96682 0.53778 0.0359 0.0
H70 H 0.92816 0.55741 0.03466 0.0
H71 H 0.89263 0.48972 0.00998 0.0
H72 H 0.93082 0.46971 0.0146 0.0
H73 H 0.01167 0.45251 0.05225 0.0
H74 H 0.97986 0.52047 0.07073 0.0
O75 O 1.00067 0.50519 0.01205 0.0
H76 H 0.03304 0.45299 0.09119 0.0
H77 H 0.0027 0.52224 0.10847 0.0
C78 C 0.97922 0.45787 0.01378 0.0
C79 C 0.98895 0.4544 0.99051 0.0
C80 C 0.98819 0.43128 0.97973 0.0
C81 C 0.97752 0.41115 0.99195 0.0
C82 C 0.9674 0.41481 0.01515 0.0
C83 C 0.96823 0.43797 0.02594 0.0
C84 C 0.95177 0.50198 0.02637 0.0
C85 C 0.95051 0.52693 0.03116 0.0
C86 C 0.92824 0.53837 0.02972 0.0
C87 C 0.90669 0.52543 0.02218 0.0
C88 C 0.90831 0.50045 0.01663 0.0
C89 C 0.93045 0.48885 0.01904 0.0
C90 C 0.99349 0.48616 0.05849 0.0
C91 C 0.00886 0.46739 0.06476 0.0
C92 C 0.02156 0.46793 0.08701 0.0
C93 C 0.01991 0.48774 0.10324 0.0
C94 C 0.00421 0.50635 0.09695 0.0
C95 C 0.99111 0.50547 0.07497 0.0
P96 P 0.67791 0.83165 0.17559 0.0
H97 H 0.69495 0.8749 0.14907 0.0
H98 H 0.72816 0.90511 0.15637 0.0
H99 H 0.75003 0.86566 0.22021 0.0
H100 H 0.71621 0.83584 0.21308 0.0
H101 H 0.65124 0.78813 0.15825 0.0
H102 H 0.66286 0.75335 0.13361 0.0
H103 H 0.73752 0.78207 0.13286 0.0
H104 H 0.72586 0.81648 0.15788 0.0
H105 H 0.64687 0.85971 0.20669 0.0
H106 H 0.67665 0.78851 0.20738 0.0
O107 O 0.65742 0.84435 0.15761 0.0
H108 H 0.62459 0.85036 0.24416 0.0
H109 H 0.65383 0.77867 0.2444 0.0
C110 C 0.70284 0.85346 0.18084 0.0
C111 C 0.70681 0.87282 0.16471 0.0
C112 C 0.72597 0.88998 0.16879 0.0
C113 C 0.74168 0.88793 0.18898 0.0
C114 C 0.73797 0.86807 0.20477 0.0
C115 C 0.71872 0.85096 0.20069 0.0
C116 C 0.68763 0.80487 0.15994 0.0
C117 C 0.67017 0.78674 0.15304 0.0
C118 C 0.67682 0.76697 0.13881 0.0
C119 C 0.7011 0.76502 0.13107 0.0
C120 C 0.71872 0.78289 0.13867 0.0
C121 C 0.71202 0.80268 0.15294 0.0
C122 C 0.66296 0.82464 0.20399 0.0
C123 C 0.64853 0.84202 0.2149 0.0
C124 C 0.63571 0.83659 0.23626 0.0
C125 C 0.63713 0.81364 0.24718 0.0
C126 C 0.65239 0.79657 0.2366 0.0
C127 C 0.66529 0.80208 0.21525 0.0
P128 P 0.06029 0.94944 0.45267 0.0
H129 H 0.09641 0.95175 0.49223 0.0
H130 H 0.1295 0.98146 0.50264 0.0
H131 H 0.10525 0.02837 0.44555 0.0
H132 H 0.07176 0.99919 0.4357 0.0
H133 H 0.0464 0.8979 0.45489 0.0
H134 H 0.03335 0.87121 0.48808 0.0
H135 H 0.03435 0.93289 0.53728 0.0
H136 H 0.04758 0.95956 0.5038 0.0
H137 H 0.05825 0.96716 0.40286 0.0
H138 H 0.00801 0.95595 0.46233 0.0
O139 O 0.07652 0.9319 0.43454 0.0
H140 H 0.02446 0.97798 0.37624 0.0
H141 H 0.97406 0.96627 0.43559 0.0
C142 C 0.08118 0.97339 0.46352 0.0
C143 C 0.09763 0.96879 0.48251 0.0
C144 C 0.11661 0.98568 0.48839 0.0
C145 C 0.11984 0.00708 0.47484 0.0
C146 C 0.10309 0.01193 0.45621 0.0
C147 C 0.08388 0.99526 0.45065 0.0
C148 C 0.04868 0.93055 0.47708 0.0
C149 C 0.04375 0.90571 0.4728 0.0
C150 C 0.03605 0.89049 0.49176 0.0
C151 C 0.03299 0.89988 0.5154 0.0
C152 C 0.03692 0.92505 0.51937 0.0
C153 C 0.04449 0.9403 0.50028 0.0
C154 C 0.03563 0.9605 0.43448 0.0
C155 C 0.03999 0.96737 0.41028 0.0
C156 C 0.02071 0.97369 0.39512 0.0
C157 C 0.99664 0.97289 0.40384 0.0
C158 C 0.99244 0.96691 0.42839 0.0
C159 C 0.01183 0.96097 0.44366 0.0
P160 P 0.21601 0.71123 0.80616 0.0
H161 H 0.23405 0.70147 0.85591 0.0
H162 H 0.23007 0.72357 0.89431 0.0
H163 H 0.17972 0.77116 0.86002 0.0
H164 H 0.18396 0.74916 0.82148 0.0
H165 H 0.26653 0.7038 0.81926 0.0
H166 H 0.2917 0.66833 0.81884 0.0
H167 H 0.22928 0.62366 0.79446 0.0
H168 H 0.204 0.65919 0.79594 0.0
H169 H 0.20556 0.71869 0.75466 0.0
H170 H 0.16594 0.69387 0.81805 0.0
O171 O 0.23359 0.73242 0.7924 0.0
H172 H 0.16777 0.71691 0.73079 0.0
H173 H 0.12779 0.69223 0.79422 0.0
C174 C 0.20919 0.72354 0.83577 0.0
C175 C 0.2218 0.71633 0.85664 0.0
C176 C 0.21956 0.72902 0.87863 0.0
C177 C 0.20462 0.74911 0.88013 0.0
C178 C 0.19111 0.75556 0.85949 0.0
C179 C 0.19355 0.743 0.83746 0.0
C180 C 0.23345 0.68419 0.8075 0.0
C181 C 0.25822 0.68631 0.81406 0.0
C182 C 0.27264 0.666 0.81362 0.0
C183 C 0.26267 0.64309 0.80631 0.0
C184 C 0.23759 0.64093 0.80038 0.0
C185 C 0.22309 0.6613 0.80105 0.0
C186 C 0.18844 0.70692 0.78823 0.0
C187 C 0.18871 0.71278 0.76343 0.0
C188 C 0.16706 0.71186 0.74983 0.0
C189 C 0.14471 0.70485 0.76072 0.0
C190 C 0.1447 0.69774 0.78531 0.0
C191 C 0.16644 0.69876 0.79897 0.0
P192 P 0.99386 0.51715 0.50016 0.0
H193 H 0.04447 0.51398 0.48556 0.0
H194 H 0.06434 0.51036 0.44605 0.0
H195 H 0.99407 0.51241 0.41008 0.0
H196 H 0.97434 0.51632 0.44973 0.0
H197 H 0.00747 0.53708 0.54807 0.0
H198 H 0.00963 0.57842 0.56479 0.0
H199 H 0.98715 0.6062 0.49519 0.0
H200 H 0.98581 0.56473 0.47817 0.0
H201 H 0.96993 0.47053 0.5129 0.0
H202 H 0.94817 0.53971 0.48569 0.0
O203 O 0.00908 0.4994 0.51897 0.0
H204 H 0.92737 0.4554 0.51202 0.0
H205 H 0.90554 0.52473 0.48493 0.0
C206 C 0.00791 0.51503 0.47064 0.0
C207 C 0.03333 0.51355 0.46918 0.0
C208 C 0.04465 0.51133 0.44657 0.0
C209 C 0.03078 0.51079 0.42489 0.0
C210 C 0.00529 0.51281 0.42641 0.0
C211 C 0.99396 0.51494 0.4491 0.0
C212 C 0.99661 0.54784 0.51183 0.0
C213 C 0.00335 0.55204 0.53625 0.0
C214 C 0.00461 0.57565 0.5458 0.0
C215 C 0.99865 0.59542 0.53122 0.0
C216 C 0.99181 0.59121 0.50677 0.0
C217 C 0.99105 0.56759 0.49707 0.0
C218 C 0.96227 0.50638 0.49968 0.0
C219 C 0.956 0.48258 0.50696 0.0
C220 C 0.93162 0.47397 0.50658 0.0
C221 C 0.91304 0.48893 0.49861 0.0
C222 C 0.91943 0.51274 0.49113 0.0
C223 C 0.94382 0.52138 0.49167 0.0
P224 P 0.82077 0.8263 0.82138 0.0
H225 H 0.84032 0.84732 0.77611 0.0
H226 H 0.86518 0.83082 0.74337 0.0
H227 H 0.86418 0.76158 0.78004 0.0
H228 H 0.83919 0.77786 0.81203 0.0
H229 H 0.7917 0.85908 0.84915 0.0
H230 H 0.75673 0.88315 0.83922 0.0
H231 H 0.75876 0.85711 0.76473 0.0
H232 H 0.79296 0.83201 0.7753 0.0
H233 H 0.8324 0.81233 0.87163 0.0
H234 H 0.78346 0.78765 0.81389 0.0
O235 O 0.8406 0.84424 0.83712 0.0
H236 H 0.81598 0.7801 0.89802 0.0
H237 H 0.76741 0.75485 0.83985 0.0
C238 C 0.83714 0.81366 0.79614 0.0
C239 C 0.84509 0.82845 0.77678 0.0
C240 C 0.85953 0.81907 0.75822 0.0
C241 C 0.86649 0.79476 0.75889 0.0
C242 C 0.85867 0.78016 0.77853 0.0
C243 C 0.84427 0.78952 0.79695 0.0
C244 C 0.79537 0.84428 0.81284 0.0
C245 C 0.78465 0.85864 0.83065 0.0
C246 C 0.76468 0.87252 0.82488 0.0
C247 C 0.75501 0.87247 0.80104 0.0
C248 C 0.76555 0.85758 0.7833 0.0
C249 C 0.7854 0.84343 0.78923 0.0
C250 C 0.80896 0.80246 0.8409 0.0
C251 C 0.81817 0.7999 0.86459 0.0
C252 C 0.80891 0.7813 0.8796 0.0
C253 C 0.79032 0.76486 0.87112 0.0
C254 C 0.78142 0.7674 0.84716 0.0
C255 C 0.79061 0.78607 0.83224 0.0
P256 P 0.3229 0.34 0.32857 0.0
H257 H 0.3691 0.35963 0.30874 0.0
H258 H 0.39503 0.34652 0.27552 0.0
H259 H 0.34192 0.28867 0.25776 0.0
H260 H 0.31635 0.30161 0.29131 0.0
H261 H 0.28593 0.36274 0.35733 0.0
H262 H 0.24984 0.38523 0.34681 0.0
H263 H 0.26501 0.37503 0.27032 0.0
H264 H 0.30089 0.35232 0.281 0.0
H265 H 0.34169 0.31856 0.37339 0.0
H266 H 0.28345 0.30311 0.32163 0.0
O267 O 0.33994 0.35856 0.34659 0.0
H268 H 0.32702 0.28444 0.39837 0.0
H269 H 0.26944 0.26822 0.34566 0.0
C270 C 0.34102 0.33128 0.30286 0.0
C271 C 0.36301 0.34413 0.29769 0.0
C272 C 0.37775 0.33673 0.27853 0.0
C273 C 0.37069 0.31639 0.26408 0.0
C274 C 0.34817 0.3041 0.26883 0.0
C275 C 0.33347 0.31152 0.28801 0.0
C276 C 0.29616 0.35598 0.31999 0.0
C277 C 0.28143 0.36533 0.33829 0.0
C278 C 0.26087 0.37826 0.33225 0.0
C279 C 0.25457 0.38203 0.30772 0.0
C280 C 0.26919 0.37225 0.28939 0.0
C281 C 0.28984 0.35936 0.29548 0.0
C282 C 0.31343 0.31357 0.34585 0.0
C283 C 0.3259 0.30764 0.36725 0.0
C284 C 0.31762 0.28793 0.38141 0.0
C285 C 0.29685 0.27363 0.37423 0.0
C286 C 0.28512 0.27911 0.35212 0.0
C287 C 0.29323 0.29897 0.33819 0.0
P288 P 0.48754 0.99037 0.52343 0.0
H289 H 0.49721 0.97262 0.47423 0.0
H290 H 0.49425 0.93228 0.45546 0.0
H291 H 0.46533 0.90246 0.52248 0.0
H292 H 0.46825 0.94314 0.54118 0.0
H293 H 0.47875 0.03855 0.54205 0.0
H294 H 0.44296 0.06346 0.54249 0.0
H295 H 0.39985 0.00426 0.50943 0.0
H296 H 0.43602 0.97962 0.50861 0.0
H297 H 0.53706 0.97946 0.53744 0.0
H298 H 0.46967 0.99354 0.57404 0.0
O299 O 0.50696 0.00699 0.50639 0.0
H300 H 0.55824 0.97819 0.57673 0.0
H301 H 0.49071 0.99217 0.6135 0.0
C302 C 0.48322 0.96083 0.5092 0.0
C303 C 0.49019 0.95745 0.48492 0.0
C304 C 0.48864 0.93431 0.47423 0.0
C305 C 0.47987 0.91407 0.48755 0.0
C306 C 0.47214 0.91767 0.5117 0.0
C307 C 0.47383 0.94088 0.52243 0.0
C308 C 0.46004 0.0072 0.52548 0.0
C309 C 0.46152 0.03086 0.5351 0.0
C310 C 0.44098 0.04506 0.53542 0.0
C311 C 0.41843 0.03592 0.52601 0.0
C312 C 0.41697 0.01201 0.51656 0.0
C313 C 0.43761 0.99779 0.51627 0.0
C314 C 0.50197 0.98716 0.5528 0.0
C315 C 0.52679 0.98211 0.55398 0.0
C316 C 0.53883 0.9812 0.57648 0.0
C317 C 0.52622 0.98529 0.59828 0.0
C318 C 0.50104 0.98936 0.59703 0.0
C319 C 0.48898 0.99014 0.57447 0.0
P320 P 0.1864 0.32605 0.68706 0.0
H321 H 0.20184 0.37373 0.66784 0.0
H322 H 0.23402 0.40349 0.67996 0.0
H323 H 0.26046 0.35307 0.73299 0.0
H324 H 0.22783 0.32347 0.72104 0.0
H325 H 0.15908 0.29469 0.65284 0.0
H326 H 0.17017 0.26122 0.62649 0.0
H327 H 0.24425 0.2676 0.65414 0.0
H328 H 0.2327 0.30049 0.68126 0.0
H329 H 0.18695 0.34546 0.73741 0.0
H330 H 0.14916 0.28768 0.69679 0.0
O331 O 0.16643 0.34122 0.67061 0.0
H332 H 0.16261 0.33514 0.77326 0.0
H333 H 0.124 0.27817 0.73245 0.0
C334 C 0.21222 0.34652 0.69381 0.0
C335 C 0.21465 0.36896 0.68195 0.0
C336 C 0.23316 0.38595 0.68879 0.0
C337 C 0.24961 0.38075 0.70762 0.0
C338 C 0.24778 0.35778 0.71872 0.0
C339 C 0.22928 0.34079 0.71179 0.0
C340 C 0.19505 0.30035 0.66888 0.0
C341 C 0.17767 0.28877 0.65343 0.0
C342 C 0.18412 0.26972 0.63818 0.0
C343 C 0.20824 0.26191 0.63784 0.0
C344 C 0.22549 0.27304 0.65397 0.0
C345 C 0.21892 0.29204 0.66942 0.0
C346 C 0.17065 0.31673 0.71449 0.0
C347 C 0.17396 0.33015 0.73625 0.0
C348 C 0.15987 0.32443 0.75675 0.0
C349 C 0.14159 0.30583 0.75555 0.0
C350 C 0.13809 0.29255 0.73378 0.0
C351 C 0.15259 0.29789 0.71346 0.0
P352 P 0.83353 0.18288 0.68441 0.0
H353 H 0.83954 0.19743 0.63344 0.0
H354 H 0.82518 0.23152 0.61019 0.0
H355 H 0.79269 0.26028 0.67541 0.0
H356 H 0.80599 0.22514 0.69816 0.0
H357 H 0.85468 0.15503 0.72415 0.0
H358 H 0.87884 0.16669 0.7601 0.0
H359 H 0.8816 0.24135 0.73573 0.0
H360 H 0.85571 0.22983 0.70139 0.0
H361 H 0.79288 0.1665 0.65349 0.0
H362 H 0.81305 0.15934 0.72912 0.0
O363 O 0.851 0.16628 0.66659 0.0
H364 H 0.75681 0.14012 0.65995 0.0
H365 H 0.77912 0.13072 0.73507 0.0
C366 C 0.8242 0.209 0.66763 0.0
C367 C 0.82946 0.21114 0.64278 0.0
C368 C 0.82134 0.23083 0.62951 0.0
C369 C 0.80795 0.24897 0.64088 0.0
C370 C 0.80272 0.24665 0.66589 0.0
C371 C 0.8105 0.22668 0.67903 0.0
C372 C 0.85181 0.19171 0.71088 0.0
C373 C 0.8597 0.17406 0.72711 0.0
C374 C 0.87408 0.18074 0.74746 0.0
C375 C 0.88196 0.20516 0.75137 0.0
C376 C 0.87511 0.22255 0.73418 0.0
C377 C 0.86019 0.21592 0.71427 0.0
C378 C 0.80607 0.1647 0.69065 0.0
C379 C 0.78971 0.15907 0.67148 0.0
C380 C 0.76918 0.14359 0.67515 0.0
C381 C 0.76491 0.1327 0.69799 0.0
C382 C 0.78127 0.1388 0.71726 0.0
C383 C 0.80132 0.15494 0.71373 0.0
P384 P 0.56678 0.56547 0.56339 0.0
H385 H 0.56936 0.54264 0.61107 0.0
H386 H 0.53801 0.52887 0.64009 0.0
H387 H 0.48185 0.545 0.58776 0.0
H388 H 0.51324 0.5585 0.55877 0.0
H389 H 0.60966 0.57006 0.53272 0.0
H390 H 0.63677 0.54055 0.51524 0.0
H391 H 0.59086 0.48194 0.54406 0.0
H392 H 0.56378 0.51163 0.56152 0.0
H393 H 0.54009 0.60904 0.5717 0.0
H394 H 0.5635 0.56809 0.50941 0.0
O395 O 0.58607 0.58193 0.58118 0.0
H396 H 0.52239 0.63875 0.54455 0.0
H397 H 0.54618 0.59802 0.48216 0.0
C398 C 0.54363 0.55208 0.58299 0.0
C399 C 0.5503 0.54293 0.60575 0.0
C400 C 0.53238 0.53498 0.62228 0.0
C401 C 0.50746 0.53616 0.61631 0.0
C402 C 0.5009 0.54428 0.59301 0.0
C403 C 0.51885 0.55197 0.57641 0.0
C404 C 0.58465 0.5431 0.54832 0.0
C405 C 0.60524 0.55085 0.53498 0.0
C406 C 0.62069 0.53394 0.52494 0.0
C407 C 0.616 0.50886 0.52826 0.0
C408 C 0.5951 0.50112 0.54137 0.0
C409 C 0.57952 0.51811 0.55125 0.0
C410 C 0.5533 0.58647 0.54263 0.0
C411 C 0.54141 0.60644 0.55217 0.0
C412 C 0.53121 0.62335 0.53665 0.0
C413 C 0.53297 0.62075 0.51123 0.0
C414 C 0.54479 0.60062 0.50168 0.0
C415 C 0.55469 0.58349 0.51727 0.0
P416 P 0.55592 0.44016 0.96352 0.0
H417 H 0.60863 0.43827 0.95675 0.0
H418 H 0.64259 0.46709 0.96523 0.0
H419 H 0.59252 0.51779 0.99513 0.0
H420 H 0.5583 0.48842 0.9868 0.0
H421 H 0.50683 0.41769 0.97002 0.0
H422 H 0.48815 0.39574 0.00403 0.0
H423 H 0.55213 0.41398 0.04822 0.0
H424 H 0.56967 0.43719 0.01479 0.0
H425 H 0.56599 0.44693 0.91256 0.0
H426 H 0.5073 0.46259 0.9614 0.0
O427 O 0.5676 0.41512 0.9519 0.0
H428 H 0.54117 0.45862 0.8779 0.0
H429 H 0.48184 0.47367 0.9264 0.0
C430 C 0.58092 0.46122 0.97117 0.0
C431 C 0.60485 0.45547 0.96529 0.0
C432 C 0.62431 0.47204 0.97005 0.0
C433 C 0.62024 0.49476 0.98075 0.0
C434 C 0.59624 0.50032 0.98709 0.0
C435 C 0.5767 0.48367 0.98223 0.0
C436 C 0.53929 0.42991 0.99004 0.0
C437 C 0.51628 0.41797 0.98742 0.0
C438 C 0.50583 0.40492 0.00682 0.0
C439 C 0.51862 0.40276 0.02902 0.0
C440 C 0.54135 0.4155 0.03175 0.0
C441 C 0.55152 0.42889 0.01249 0.0
C442 C 0.53813 0.45291 0.9394 0.0
C443 C 0.54775 0.45301 0.91583 0.0
C444 C 0.53354 0.4597 0.89603 0.0
C445 C 0.50934 0.46647 0.89937 0.0
C446 C 0.50037 0.46836 0.92327 0.0
C447 C 0.51479 0.46174 0.94323 0.0
P448 P 0.71583 0.21957 0.29394 0.0
H449 H 0.7463 0.25966 0.31391 0.0
H450 H 0.74527 0.28263 0.35193 0.0
H451 H 0.68547 0.23555 0.37682 0.0
H452 H 0.68618 0.213 0.33811 0.0
H453 H 0.74958 0.19878 0.25965 0.0
H454 H 0.77405 0.16292 0.26063 0.0
H455 H 0.74444 0.14422 0.33118 0.0
H456 H 0.71959 0.18027 0.32991 0.0
H457 H 0.6725 0.24801 0.29732 0.0
H458 H 0.69173 0.17961 0.26557 0.0
O459 O 0.72908 0.23852 0.27389 0.0
H460 H 0.63223 0.24387 0.27817 0.0
H461 H 0.65155 0.17561 0.24582 0.0
C462 C 0.71614 0.23483 0.32309 0.0
C463 C 0.73299 0.25421 0.32754 0.0
C464 C 0.73248 0.26724 0.34941 0.0
C465 C 0.71528 0.26094 0.36748 0.0
C466 C 0.69873 0.24107 0.36317 0.0
C467 C 0.69923 0.22807 0.34116 0.0
C468 C 0.73314 0.19248 0.29493 0.0
C469 C 0.7484 0.18709 0.27542 0.0
C470 C 0.7625 0.16659 0.27605 0.0
C471 C 0.76154 0.1509 0.29617 0.0
C472 C 0.74564 0.15597 0.31544 0.0
C473 C 0.73152 0.17661 0.3148 0.0
C474 C 0.68495 0.21388 0.28331 0.0
C475 C 0.66787 0.23182 0.28665 0.0
C476 C 0.64493 0.22957 0.27545 0.0
C477 C 0.63873 0.20948 0.26034 0.0
C478 C 0.65565 0.19115 0.25758 0.0
C479 C 0.67865 0.19343 0.26885 0.0
P480 P 0.48814 0.02238 0.99197 0.0
H481 H 0.51899 0.05933 0.96716 0.0
H482 H 0.53651 0.06125 0.92647 0.0
H483 H 0.50234 0.99105 0.90905 0.0
H484 H 0.48466 0.98926 0.95002 0.0
H485 H 0.51042 0.0418 0.03722 0.0
H486 H 0.51029 0.08169 0.05701 0.0
H487 H 0.46569 0.10795 0.99841 0.0
H488 H 0.46584 0.06794 0.97872 0.0
H489 H 0.46428 0.98372 0.02087 0.0
H490 H 0.44454 0.03182 0.96301 0.0
O491 O 0.50637 0.00451 0.0076 0.0
H492 H 0.42325 0.96464 0.01984 0.0
H493 H 0.40306 0.0138 0.96271 0.0
C494 C 0.49988 0.02448 0.9614 0.0
C495 C 0.51485 0.04452 0.95452 0.0
C496 C 0.52493 0.04557 0.93122 0.0
C497 C 0.52061 0.0264 0.91445 0.0
C498 C 0.506 0.00609 0.92156 0.0
C499 C 0.49573 0.00515 0.94487 0.0
C500 C 0.48806 0.05186 0.00652 0.0
C501 C 0.50065 0.05612 0.02857 0.0
C502 C 0.50071 0.079 0.0398 0.0
C503 C 0.48807 0.09802 0.02922 0.0
C504 C 0.47543 0.09363 0.00711 0.0
C505 C 0.47547 0.07076 0.99586 0.0
C506 C 0.45754 0.009 0.99182 0.0
C507 C 0.45103 0.99033 0.00807 0.0
C508 C 0.42741 0.9796 0.00765 0.0
C509 C 0.40972 0.98758 0.99114 0.0
C510 C 0.41624 0.00684 0.97536 0.0
C511 C 0.43994 0.01735 0.97564 0.0
Mn512 Mn 0.25134 0.86751 0.01882 0.0
Mn513 Mn 0.2467 0.8901 0.96209 0.0
C514 C 0.23354 0.84403 0.98764 0.0
C515 C 0.27221 0.84666 0.04877 0.0
C516 C 0.21484 0.90538 0.00412 0.0
O517 O 0.27645 0.89611 0.01914 0.0
O518 O 0.27398 0.90764 0.97981 0.0
C519 C 0.29358 0.87446 0.94198 0.0
N520 N 0.26873 0.8743 0.94092 0.0
C521 C 0.26787 0.8486 0.90521 0.0
C522 C 0.29346 0.84864 0.90584 0.0
C523 C 0.30636 0.86159 0.92433 0.0
C524 C 0.25613 0.86183 0.92325 0.0
H525 H 0.30359 0.88426 0.95623 0.0
C526 C 0.28372 0.90915 1.00114 0.0
O527 O 0.25569 0.86191 0.05434 0.0
O528 O 0.27725 0.84419 0.02582 0.0
N529 N 0.22126 0.87403 0.94311 0.0
C530 C 0.1966 0.87474 0.94585 0.0
C531 C 0.18103 0.86229 0.92909 0.0
C532 C 0.19096 0.8493 0.90967 0.0
C533 C 0.21639 0.84888 0.90719 0.0
C534 C 0.231 0.86181 0.92432 0.0
H535 H 0.18885 0.88469 0.96073 0.0
O536 O 0.22834 0.83918 0.01018 0.0
O537 O 0.24838 0.86264 0.9843 0.0
O538 O 0.22336 0.89074 0.01957 0.0
O539 O 0.22273 0.90716 0.9823 0.0
C540 C 0.22782 0.83574 0.88866 0.0
C541 C 0.25353 0.83556 0.88771 0.0
H542 H 0.30337 0.83862 0.89234 0.0
H543 H 0.3261 0.86159 0.92501 0.0
H544 H 0.16143 0.86262 0.93119 0.0
H545 H 0.1789 0.8395 0.89694 0.0
H546 H 0.21699 0.8254 0.87528 0.0
H547 H 0.2621 0.82509 0.8736 0.0
Mn548 Mn 0.13278 0.5098 0.26167 0.0
Mn549 Mn 0.11089 0.56604 0.2581 0.0
C550 C 0.1556 0.54087 0.24336 0.0
C551 C 0.15535 0.48088 0.2818 0.0
C552 C 0.09253 0.52378 0.22619 0.0
O553 O 0.10582 0.50917 0.2874 0.0
O554 O 0.09446 0.5481 0.28512 0.0
C555 C 0.12953 0.58678 0.30489 0.0
N556 N 0.12834 0.58763 0.28011 0.0
C557 C 0.15451 0.62387 0.27935 0.0
C558 C 0.15589 0.62346 0.30488 0.0
C559 C 0.14336 0.60482 0.31769 0.0
C560 C 0.14025 0.60554 0.2676 0.0
H561 H 0.12004 0.57241 0.3148 0.0
C562 C 0.09313 0.52684 0.29459 0.0
O563 O 0.13881 0.47452 0.26566 0.0
O564 O 0.15789 0.50386 0.28705 0.0
N565 N 0.1258 0.58513 0.23276 0.0
C566 C 0.12404 0.58187 0.20816 0.0
C567 C 0.13637 0.5984 0.19266 0.0
C568 C 0.15029 0.61812 0.20261 0.0
C569 C 0.15173 0.62116 0.22798 0.0
C570 C 0.13889 0.60422 0.24251 0.0
H571 H 0.1135 0.56665 0.20042 0.0
O572 O 0.15949 0.51837 0.23809 0.0
O573 O 0.13831 0.54441 0.25889 0.0
O574 O 0.10739 0.50834 0.23392 0.0
O575 O 0.09193 0.54549 0.23443 0.0
C576 C 0.16585 0.64001 0.23943 0.0
C577 C 0.16723 0.64137 0.2651 0.0
H578 H 0.16671 0.63722 0.31481 0.0
H579 H 0.14445 0.60432 0.33738 0.0
H580 H 0.13526 0.59586 0.1731 0.0
H581 H 0.16 0.63066 0.1906 0.0
H582 H 0.17604 0.65333 0.22866 0.0
H583 H 0.17844 0.65573 0.27368 0.0
Mn584 Mn 0.75309 0.62689 0.00914 0.0
Mn585 Mn 0.70038 0.63873 0.97995 0.0
C586 C 0.71905 0.60073 0.01294 0.0
C587 C 0.7913 0.60965 0.00976 0.0
C588 C 0.7175 0.66501 0.02618 0.0
O589 O 0.76411 0.65197 0.98378 0.0
O590 O 0.72818 0.65715 0.96474 0.0
C591 C 0.71086 0.61551 0.93255 0.0
N592 N 0.6962 0.6176 0.95233 0.0
C593 C 0.66686 0.588 0.93583 0.0
C594 C 0.6816 0.5856 0.91523 0.0
C595 C 0.70374 0.59935 0.91364 0.0
C596 C 0.675 0.60427 0.95417 0.0
H597 H 0.72784 0.62613 0.93122 0.0
C598 C 0.75119 0.66169 0.96731 0.0
O599 O 0.7865 0.62771 0.02403 0.0
O600 O 0.7742 0.60192 0.99482 0.0
N601 N 0.67174 0.62219 0.99248 0.0
C602 C 0.66003 0.62609 0.0139 0.0
C603 C 0.63782 0.61334 0.01861 0.0
C604 C 0.62771 0.59701 1.00112 0.0
C605 C 0.63988 0.59363 0.97903 0.0
C606 C 0.66194 0.60685 0.97535 0.0
H607 H 0.66762 0.63876 0.02733 0.0
O608 O 0.73636 0.60088 0.02921 0.0
O609 O 0.72223 0.61573 0.99496 0.0
O610 O 0.73712 0.65362 0.02913 0.0
O611 O 0.70276 0.66091 0.00833 0.0
C612 C 0.6311 0.57748 0.96062 0.0
C613 C 0.64459 0.57466 0.93904 0.0
H614 H 0.67617 0.57316 0.9006 0.0
H615 H 0.71525 0.59753 0.89783 0.0
H616 H 0.62851 0.61611 0.03567 0.0
H617 H 0.61065 0.58711 0.00487 0.0
H618 H 0.61416 0.5669 0.96301 0.0
H619 H 0.63783 0.56193 0.92517 0.0
Mn620 Mn 0.87175 0.01191 0.25535 0.0
Mn621 Mn 0.88402 0.95238 0.25704 0.0
C622 C 0.84494 0.98311 0.23765 0.0
C623 C 0.85486 0.04657 0.27178 0.0
C624 C 0.91026 0.98874 0.22379 0.0
O625 O 0.89783 0.01045 0.28221 0.0
O626 O 0.90109 0.96973 0.28452 0.0
C627 C 0.8585 0.93912 0.30277 0.0
N628 N 0.86188 0.93551 0.27848 0.0
C629 C 0.83125 0.90282 0.27746 0.0
C630 C 0.82775 0.90593 0.30256 0.0
C631 C 0.84135 0.92424 0.31524 0.0
C632 C 0.84866 0.91815 0.26603 0.0
H633 H 0.86867 0.95337 0.31251 0.0
C634 C 0.90613 0.99147 0.29212 0.0
O635 O 0.8727 0.04798 0.25637 0.0
O636 O 0.84743 0.02494 0.27852 0.0
N637 N 0.86825 0.93348 0.23155 0.0
C638 C 0.87276 0.93382 0.20716 0.0
C639 C 0.86007 0.91713 0.19171 0.0
C640 C 0.84301 0.90016 0.2015 0.0
C641 C 0.83881 0.90003 0.22668 0.0
C642 C 0.85215 0.91697 0.2412 0.0
H643 H 0.8859 0.94675 0.19951 0.0
O644 O 0.84472 0.00564 0.23086 0.0
O645 O 0.86075 0.97827 0.25441 0.0
O646 O 0.89742 0.00665 0.22937 0.0
O647 O 0.90756 0.9679 0.23382 0.0
C648 C 0.82158 0.88406 0.23787 0.0
C649 C 0.81775 0.8855 0.26323 0.0
H650 H 0.81444 0.89458 0.31222 0.0
H651 H 0.83855 0.92694 0.33457 0.0
H652 H 0.86337 0.91738 0.17228 0.0
H653 H 0.83307 0.88748 0.18949 0.0
H654 H 0.81088 0.87087 0.22708 0.0
H655 H 0.80415 0.87341 0.27156 0.0
Mn656 Mn 0.26032 0.12995 0.50706 0.0
Mn657 Mn 0.20758 0.14562 0.48024 0.0
C658 C 0.2254 0.10479 0.51008 0.0
C659 C 0.29746 0.11043 0.50494 0.0
C660 C 0.22751 0.16893 0.52711 0.0
O661 O 0.27166 0.15647 0.48312 0.0
O662 O 0.23568 0.16305 0.46464 0.0
C663 C 0.21431 0.12412 0.43128 0.0
N664 N 0.20084 0.12605 0.45191 0.0
C665 C 0.16871 0.09958 0.43529 0.0
C666 C 0.1822 0.09737 0.41382 0.0
C667 C 0.20515 0.1096 0.41186 0.0
C668 C 0.17886 0.11416 0.45409 0.0
H669 H 0.23187 0.13365 0.42966 0.0
C670 C 0.25878 0.167 0.46711 0.0
O671 O 0.29401 0.1274 0.52098 0.0
O672 O 0.27969 0.10544 0.48976 0.0
N673 N 0.17875 0.13009 0.49348 0.0
C674 C 0.16865 0.13319 0.51586 0.0
C675 C 0.14608 0.1214 0.52116 0.0
C676 C 0.13398 0.10687 0.50331 0.0
C677 C 0.14456 0.10425 0.48029 0.0
C678 C 0.16711 0.11637 0.47609 0.0
H679 H 0.17779 0.1445 0.52957 0.0
O680 O 0.24311 0.10314 0.5257 0.0
O681 O 0.2287 0.12092 0.49315 0.0
O682 O 0.24612 0.15591 0.52959 0.0
O683 O 0.21252 0.16656 0.50924 0.0
C684 C 0.13375 0.08986 0.46145 0.0
C685 C 0.14579 0.08758 0.43894 0.0
H686 H 0.1752 0.08619 0.3988 0.0
H687 H 0.2157 0.10792 0.39537 0.0
H688 H 0.13801 0.12355 0.53895 0.0
H689 H 0.11662 0.09774 0.5075 0.0
H690 H 0.11636 0.08019 0.46419 0.0
H691 H 0.13748 0.07616 0.42474 0.0
Mn692 Mn 0.37895 0.5107 0.75641 0.0
Mn693 Mn 0.39288 0.45145 0.75375 0.0
C694 C 0.35385 0.48278 0.7353 0.0
C695 C 0.36002 0.54374 0.77402 0.0
C696 C 0.41829 0.49034 0.7232 0.0
O697 O 0.40356 0.50812 0.7845 0.0
O698 O 0.41057 0.46821 0.7811 0.0
C699 C 0.36989 0.43553 0.79999 0.0
N700 N 0.37217 0.43312 0.7754 0.0
C701 C 0.34356 0.3987 0.77449 0.0
C702 C 0.34099 0.40074 0.79982 0.0
C703 C 0.35414 0.4193 0.81261 0.0
C704 C 0.35942 0.41549 0.76289 0.0
H705 H 0.38004 0.44971 0.80989 0.0
C706 C 0.41405 0.48901 0.79145 0.0
O707 O 0.37873 0.54665 0.75981 0.0
O708 O 0.35296 0.52151 0.77901 0.0
N709 N 0.37696 0.43277 0.72824 0.0
C710 C 0.38077 0.43389 0.70375 0.0
C711 C 0.36847 0.41698 0.68824 0.0
C712 C 0.35266 0.39889 0.69809 0.0
C713 C 0.34934 0.39784 0.72338 0.0
C714 C 0.3621 0.41518 0.73793 0.0
H715 H 0.39303 0.44766 0.6961 0.0
O716 O 0.3536 0.50573 0.73017 0.0
O717 O 0.36872 0.47679 0.75258 0.0
O718 O 0.40625 0.50795 0.73129 0.0
O719 O 0.41491 0.46848 0.73047 0.0
C720 C 0.33365 0.38045 0.73471 0.0
C721 C 0.33076 0.38088 0.76025 0.0
H722 H 0.32885 0.38827 0.80962 0.0
H723 H 0.35218 0.42105 0.83215 0.0
H724 H 0.37116 0.41787 0.66874 0.0
H725 H 0.34309 0.38596 0.68606 0.0
H726 H 0.32344 0.36689 0.72393 0.0
H727 H 0.31836 0.36766 0.7687 0.0
Mn728 Mn 0.75208 0.37163 0.51489 0.0
Mn729 Mn 0.75016 0.39833 0.4599 0.0
C730 C 0.73667 0.35016 0.48129 0.0
C731 C 0.7725 0.34913 0.54384 0.0
C732 C 0.7159 0.41008 0.50135 0.0
O733 O 0.77636 0.40068 0.51855 0.0
O734 O 0.77658 0.4146 0.4799 0.0
C735 C 0.79796 0.38472 0.44034 0.0
N736 N 0.77314 0.38431 0.43845 0.0
C737 C 0.7739 0.36115 0.40111 0.0
C738 C 0.79947 0.36144 0.40259 0.0
C739 C 0.81154 0.37325 0.42231 0.0
C740 C 0.76134 0.37301 0.41955 0.0
H741 H 0.80732 0.39366 0.45552 0.0
C742 C 0.78486 0.41476 0.50186 0.0
O743 O 0.7549 0.36295 0.54998 0.0
O744 O 0.77867 0.34893 0.52106 0.0
N745 N 0.7256 0.38345 0.43896 0.0
C746 C 0.70083 0.38347 0.44105 0.0
C747 C 0.68603 0.37179 0.42313 0.0
C748 C 0.69682 0.36026 0.40326 0.0
C749 C 0.72235 0.36052 0.40147 0.0
C750 C 0.73617 0.37262 0.41977 0.0
H751 H 0.69242 0.39223 0.45631 0.0
O752 O 0.73043 0.34346 0.50309 0.0
O753 O 0.75111 0.36936 0.4801 0.0
O754 O 0.72326 0.39402 0.51599 0.0
O755 O 0.72533 0.41374 0.48038 0.0
C756 C 0.73461 0.34877 0.38254 0.0
C757 C 0.76036 0.34907 0.38237 0.0
H758 H 0.81 0.35246 0.38883 0.0
H759 H 0.83126 0.37344 0.42365 0.0
H760 H 0.66634 0.37158 0.4247 0.0
H761 H 0.68534 0.35104 0.38962 0.0
H762 H 0.7244 0.3391 0.36825 0.0
H763 H 0.76957 0.33964 0.36794 0.0
Mn764 Mn 0.63667 0.00547 0.75719 0.0
Mn765 Mn 0.61464 0.06182 0.75691 0.0
C766 C 0.6594 0.03766 0.74056 0.0
C767 C 0.65961 0.97576 0.77577 0.0
C768 C 0.59647 0.02136 0.72251 0.0
O769 O 0.60976 0.00324 0.7829 0.0
O770 O 0.59848 0.0422 0.78291 0.0
C771 C 0.63286 0.08012 0.80483 0.0
N772 N 0.63169 0.08238 0.78015 0.0
C773 C 0.65655 0.11949 0.78158 0.0
C774 C 0.6579 0.11763 0.80702 0.0
C775 C 0.64603 0.09784 0.81869 0.0
C776 C 0.64295 0.10141 0.76875 0.0
H777 H 0.62382 0.0649 0.81387 0.0
C778 C 0.59721 0.02048 0.7913 0.0
O779 O 0.64306 0.97001 0.75942 0.0
O780 O 0.6619 0.99849 0.78206 0.0
N781 N 0.62933 0.08257 0.73275 0.0
C782 C 0.62791 0.08059 0.70801 0.0
C783 C 0.63984 0.09832 0.69354 0.0
C784 C 0.65299 0.11792 0.70465 0.0
C785 C 0.65408 0.11963 0.73015 0.0
C786 C 0.64172 0.1015 0.74363 0.0
H787 H 0.61794 0.0655 0.69937 0.0
O788 O 0.66331 0.01549 0.734 0.0
O789 O 0.64213 0.04029 0.75633 0.0
O790 O 0.61112 0.00536 0.72953 0.0
O791 O 0.59608 0.04257 0.73202 0.0
C792 C 0.66747 0.13828 0.7427 0.0
C793 C 0.66868 0.13823 0.7684 0.0
H794 H 0.66823 0.13114 0.81776 0.0
H795 H 0.6471 0.09621 0.83831 0.0
H796 H 0.63901 0.09681 0.67387 0.0
H797 H 0.66238 0.13141 0.69342 0.0
H798 H 0.67726 0.15252 0.73276 0.0
H799 H 0.67936 0.15245 0.77783 0.0
Mn800 Mn 0.00959 0.25436 0.87759 0.0
Mn801 Mn 0.95414 0.2446 0.90296 0.0
C802 C 0.98011 0.22985 0.85807 0.0
C803 C 0.03664 0.27549 0.85187 0.0
C804 C 0.99937 0.21988 0.92033 0.0
O805 O 0.00821 0.28226 0.90201 0.0
O806 O 0.97071 0.27438 0.9176 0.0
C807 C 0.92991 0.28801 0.88463 0.0
N808 N 0.93065 0.26339 0.88648 0.0
C809 C 0.8933 0.25765 0.86339 0.0
C810 C 0.89208 0.28294 0.86138 0.0
C811 C 0.91049 0.29818 0.87201 0.0
C812 C 0.91299 0.24856 0.87636 0.0
H813 H 0.94404 0.29982 0.89269 0.0
C814 C 0.99071 0.28737 0.9162 0.0
O815 O 0.04445 0.26247 0.86971 0.0
O816 O 0.01317 0.27727 0.84985 0.0
N817 N 0.93615 0.21681 0.88992 0.0
C818 C 0.94116 0.19286 0.89166 0.0
C819 C 0.92516 0.17522 0.88089 0.0
C820 C 0.90417 0.18238 0.86849 0.0
C821 C 0.89939 0.20713 0.86694 0.0
C822 C 0.91592 0.22389 0.87816 0.0
H823 H 0.9574 0.18726 0.90091 0.0
O824 O 0.00311 0.22723 0.85376 0.0
O825 O 0.97509 0.24638 0.87412 0.0
O826 O 0.01399 0.23022 0.90529 0.0
O827 O 0.97659 0.22382 0.92101 0.0
C828 C 0.87919 0.21587 0.85419 0.0
C829 C 0.87611 0.2411 0.85249 0.0
H830 H 0.87725 0.29085 0.85147 0.0
H831 H 0.90975 0.31771 0.87041 0.0
H832 H 0.92906 0.15616 0.88202 0.0
H833 H 0.892 0.16874 0.86 0.0
H834 H 0.86613 0.20335 0.84529 0.0
H835 H 0.86073 0.24761 0.84229 0.0
Mn836 Mn 0.50881 0.75737 0.37187 0.0
Mn837 Mn 0.45375 0.74819 0.39833 0.0
C838 C 0.47873 0.73333 0.3527 0.0
C839 C 0.53574 0.77922 0.34656 0.0
C840 C 0.49905 0.72258 0.41443 0.0
O841 O 0.50834 0.78464 0.39719 0.0
O842 O 0.47046 0.77813 0.41229 0.0
C843 C 0.42944 0.79124 0.3793 0.0
N844 N 0.43011 0.76667 0.3817 0.0
C845 C 0.39294 0.76049 0.35841 0.0
C846 C 0.39179 0.78573 0.35582 0.0
C847 C 0.41014 0.80116 0.36629 0.0
C848 C 0.41254 0.75165 0.37171 0.0
H849 H 0.44357 0.80318 0.38719 0.0
C850 C 0.49085 0.79043 0.41111 0.0
O851 O 0.5436 0.76526 0.36361 0.0
O852 O 0.51227 0.78128 0.34492 0.0
N853 N 0.43555 0.72016 0.38612 0.0
C854 C 0.4401 0.69621 0.38907 0.0
C855 C 0.42385 0.67837 0.37901 0.0
C856 C 0.40307 0.68531 0.36613 0.0
C857 C 0.39865 0.71005 0.36353 0.0
C858 C 0.41536 0.72702 0.37414 0.0
H859 H 0.4561 0.69075 0.39886 0.0
O860 O 0.50156 0.73098 0.34739 0.0
O861 O 0.4742 0.74969 0.36908 0.0
O862 O 0.51324 0.73215 0.39852 0.0
O863 O 0.47662 0.72776 0.41639 0.0
C864 C 0.37857 0.71855 0.35041 0.0
C865 C 0.37571 0.74375 0.34786 0.0
H866 H 0.37703 0.79345 0.34564 0.0
H867 H 0.40944 0.82066 0.36425 0.0
H868 H 0.42741 0.65931 0.38107 0.0
H869 H 0.39072 0.6715 0.35817 0.0
H870 H 0.36541 0.70586 0.3419 0.0
H871 H 0.36041 0.75005 0.33742 0.0
Mn872 Mn 0.00836 0.75422 0.62834 0.0
Mn873 Mn 0.98625 0.7017 0.65307 0.0
C874 C 0.01447 0.71757 0.6089 0.0
C875 C 0.00422 0.78844 0.60401 0.0
C876 C 0.03219 0.72884 0.67144 0.0
O877 O 0.9838 0.76586 0.65314 0.0
O878 O 0.96875 0.72969 0.66658 0.0
C879 C 0.93669 0.70137 0.63115 0.0
N880 N 0.95809 0.69023 0.63494 0.0
C881 C 0.9437 0.65496 0.61204 0.0
C882 C 0.92144 0.66598 0.60803 0.0
C883 C 0.91796 0.68932 0.61756 0.0
C884 C 0.96174 0.6679 0.6256 0.0
H885 H 0.93395 0.71932 0.63841 0.0
C886 C 0.96907 0.75299 0.66618 0.0
O887 O 0.02008 0.78819 0.62166 0.0
O888 O 0.99017 0.76903 0.60095 0.0
N889 N 1.00104 0.67286 0.64175 0.0
C890 C 0.02371 0.66492 0.64691 0.0
C891 C 0.03019 0.64192 0.63854 0.0
C892 C 0.01321 0.6272 0.62523 0.0
C893 C 0.98984 0.63554 0.62056 0.0
C894 C 0.98438 0.65857 0.62947 0.0
H895 H 0.03681 0.67606 0.65726 0.0
O896 O 0.02843 0.73657 0.60422 0.0
O897 O 0.99709 0.7206 0.62452 0.0
O898 O 0.03181 0.74582 0.65578 0.0
O899 O 0.01574 0.71169 0.67251 0.0
C900 C 0.97181 0.62201 0.60721 0.0
C901 C 0.94879 0.63174 0.60289 0.0
H902 H 0.90695 0.65675 0.59757 0.0
H903 H 0.90087 0.698 0.61445 0.0
H904 H 0.04824 0.63558 0.6423 0.0
H905 H 0.01834 0.60955 0.61863 0.0
H906 H 0.97558 0.60423 0.59992 0.0
H907 H 0.9352 0.62131 0.59232 0.0
Mn908 Mn 0.49486 0.25207 0.1335 0.0
Mn909 Mn 0.47783 0.19695 0.15622 0.0
C910 C 0.50302 0.21694 0.11212 0.0
C911 C 0.48823 0.28684 0.11069 0.0
C912 C 0.52219 0.22645 0.1744 0.0
O913 O 0.4698 0.26065 0.15917 0.0
O914 O 0.45958 0.22296 0.17239 0.0
C915 C 0.42697 0.19452 0.13744 0.0
N916 N 0.44928 0.18467 0.13922 0.0
C917 C 0.43546 0.14948 0.11589 0.0
C918 C 0.4123 0.15919 0.1139 0.0
C919 C 0.40807 0.18186 0.12463 0.0
C920 C 0.45363 0.16302 0.12871 0.0
H921 H 0.42362 0.21189 0.14575 0.0
C922 C 0.45747 0.24606 0.17285 0.0
O923 O 0.5041 0.28696 0.12833 0.0
O924 O 0.47541 0.26674 0.10689 0.0
N925 N 0.49366 0.16983 0.14236 0.0
C926 C 0.5172 0.1633 0.14539 0.0
C927 C 0.52454 0.14124 0.13541 0.0
C928 C 0.50755 0.12596 0.12274 0.0
C929 C 0.48333 0.13284 0.12025 0.0
C930 C 0.47706 0.15502 0.13061 0.0
H931 H 0.53031 0.17488 0.15524 0.0
O932 O 0.51576 0.23695 0.10828 0.0
O933 O 0.48585 0.218 0.12829 0.0
O934 O 0.51942 0.2444 0.16025 0.0
O935 O 0.5077 0.20766 0.1745 0.0
C936 C 0.46521 0.11867 0.10767 0.0
C937 C 0.44131 0.12701 0.10545 0.0
H938 H 0.39767 0.14947 0.10406 0.0
H939 H 0.39027 0.18951 0.1231 0.0
H940 H 0.54326 0.13603 0.13747 0.0
H941 H 0.51332 0.10903 0.11493 0.0
H942 H 0.46956 0.10151 0.09934 0.0
H943 H 0.42763 0.11613 0.09543 0.0
H944 H 0.24454 0.76676 0.90437 0.0
H945 H 0.16592 0.76737 0.90479 0.0
H946 H 0.16754 0.79563 0.93961 0.0
H947 H 0.19181 0.82181 0.96884 0.0
H948 H 0.2704 0.82273 0.96553 0.0
H949 H 0.2684 0.79183 0.93342 0.0
C950 C 0.22774 0.7727 0.91239 0.0
C951 C 0.20516 0.7648 0.90225 0.0
C952 C 0.22886 0.78922 0.93194 0.0
C953 C 0.18354 0.7732 0.91237 0.0
C954 C 0.18446 0.78928 0.93228 0.0
C955 C 0.20837 0.81503 0.96109 0.0
C956 C 0.2312 0.82469 0.96906 0.0
C957 C 0.20705 0.79767 0.94207 0.0
C958 C 0.25265 0.81574 0.95924 0.0
C959 C 0.25152 0.79807 0.94096 0.0
H960 H 0.02182 0.53589 0.38344 0.0
H961 H 0.06746 0.48093 0.4124 0.0
H962 H 0.08953 0.47938 0.37388 0.0
H963 H 0.09752 0.49552 0.33268 0.0
H964 H 0.05235 0.55135 0.30457 0.0
H965 H 0.02819 0.55025 0.34171 0.0
C966 C 0.03632 0.52328 0.38121 0.0
C967 C 0.04303 0.50866 0.40086 0.0
C968 C 0.04907 0.52262 0.35908 0.0
C969 C 0.06214 0.49266 0.39771 0.0
C970 C 0.07471 0.49168 0.37563 0.0
C971 C 0.08213 0.50712 0.33454 0.0
C972 C 0.07681 0.52352 0.31587 0.0
C973 C 0.06857 0.50683 0.35628 0.0
C974 C 0.05695 0.53865 0.3187 0.0
C975 C 0.04312 0.53808 0.33997 0.0
H976 H 0.81415 0.73666 0.90384 0.0
H977 H 0.74239 0.74994 0.87511 0.0
H978 H 0.72446 0.71872 0.90149 0.0
H979 H 0.72875 0.68848 0.93313 0.0
H980 H 0.79994 0.67559 0.96349 0.0
H981 H 0.81841 0.70607 0.93619 0.0
C982 C 0.79457 0.73286 0.90348 0.0
C983 C 0.7797 0.74562 0.88734 0.0
C984 C 0.78424 0.71501 0.91901 0.0
C985 C 0.75438 0.74017 0.88695 0.0
C986 C 0.74405 0.72241 0.90218 0.0
C987 C 0.74835 0.69218 0.93384 0.0
C988 C 0.76289 0.67966 0.95045 0.0
C989 C 0.75878 0.70979 0.9183 0.0
C990 C 0.78825 0.68491 0.95097 0.0
C991 C 0.79883 0.70236 0.93535 0.0
H992 H 0.99026 0.00886 0.3705 0.0
H993 H 0.95685 0.9424 0.39836 0.0
H994 H 0.92509 0.94318 0.36705 0.0
H995 H 0.90883 0.96074 0.32997 0.0
H996 H 0.94052 0.02795 0.30223 0.0
H997 H 0.97093 0.02902 0.33536 0.0
C998 C 0.97583 0.99474 0.3698 0.0
C999 C 0.97592 0.97554 0.38665 0.0
C1000 C 0.95749 0.99536 0.35173 0.0
C1001 C 0.95705 0.95746 0.38574 0.0
C1002 C 0.93899 0.9578 0.36774 0.0
C1003 C 0.92221 0.97579 0.33128 0.0
C1004 C 0.92261 0.99411 0.31355 0.0
C1005 C 0.93933 0.97636 0.35039 0.0
C1006 C 0.93986 0.01364 0.31569 0.0
C1007 C 0.9573 0.01417 0.33454 0.0
H1008 H 0.19349 0.25687 0.59072 0.0
H1009 H 0.23939 0.22446 0.6446 0.0
H1010 H 0.25038 0.19333 0.61501 0.0
H1011 H 0.24585 0.17455 0.57383 0.0
H1012 H 0.19824 0.20702 0.5213 0.0
H1013 H 0.18881 0.23847 0.55049 0.0
C1014 C 0.20565 0.24283 0.59619 0.0
C1015 C 0.21537 0.24295 0.61998 0.0
C1016 C 0.21158 0.22485 0.57927 0.0
C1017 C 0.2317 0.22496 0.62639 0.0
C1018 C 0.2379 0.20705 0.60949 0.0
C1019 C 0.2335 0.18856 0.56877 0.0
C1020 C 0.22273 0.18822 0.54535 0.0
C1021 C 0.22784 0.20672 0.58586 0.0
C1022 C 0.20668 0.20656 0.53919 0.0
C1023 C 0.20127 0.22468 0.55588 0.0
H1024 H 0.50415 0.49701 0.64654 0.0
H1025 H 0.46818 0.56254 0.62776 0.0
H1026 H 0.43767 0.55437 0.65925 0.0
H1027 H 0.42152 0.52899 0.69254 0.0
H1028 H 0.45664 0.46273 0.71065 0.0
H1029 H 0.48719 0.47088 0.67918 0.0
C1030 C 0.48963 0.50948 0.64939 0.0
C1031 C 0.48843 0.53033 0.63482 0.0
C1032 C 0.47205 0.50461 0.66749 0.0
C1033 C 0.46936 0.54621 0.63854 0.0
C1034 C 0.45199 0.54164 0.65665 0.0
C1035 C 0.43591 0.51637 0.68969 0.0
C1036 C 0.43685 0.49537 0.7041 0.0
C1037 C 0.45322 0.52096 0.67131 0.0
C1038 C 0.45544 0.47904 0.69986 0.0
C1039 C 0.47296 0.48369 0.68186 0.0
H1040 H 0.83078 0.27297 0.60333 0.0
H1041 H 0.76467 0.27191 0.64588 0.0
H1042 H 0.74922 0.30465 0.62133 0.0
H1043 H 0.75305 0.33165 0.58589 0.0
H1044 H 0.81724 0.32974 0.54097 0.0
H1045 H 0.83467 0.29989 0.5681 0.0
C1046 C 0.81288 0.27967 0.60717 0.0
C1047 C 0.79897 0.26976 0.62651 0.0
C1048 C 0.80367 0.29797 0.59243 0.0
C1049 C 0.77606 0.27929 0.63143 0.0
C1050 C 0.76705 0.29793 0.61723 0.0
C1051 C 0.77099 0.32492 0.58225 0.0
C1052 C 0.78389 0.3329 0.56153 0.0
C1053 C 0.78055 0.30719 0.59749 0.0
C1054 C 0.80696 0.32381 0.55681 0.0
C1055 C 0.81691 0.30673 0.57229 0.0
H1056 H 0.52149 0.0185 0.63459 0.0
H1057 H 0.56155 0.95559 0.61502 0.0
H1058 H 0.58603 0.96028 0.65236 0.0
H1059 H 0.59746 0.98363 0.68962 0.0
H1060 H 0.5574 0.04696 0.70829 0.0
H1061 H 0.5314 0.04044 0.67254 0.0
C1062 C 0.53527 0.00553 0.63868 0.0
C1063 C 0.53967 0.98675 0.62198 0.0
C1064 C 0.54941 0.00846 0.66004 0.0
C1065 C 0.55794 0.97038 0.62742 0.0
C1066 C 0.57191 0.97301 0.64881 0.0
C1067 C 0.58289 0.99585 0.68602 0.0
C1068 C 0.57958 0.01583 0.70167 0.0
C1069 C 0.56805 0.99221 0.66512 0.0
C1070 C 0.56059 0.03152 0.69656 0.0
C1071 C 0.54564 0.02782 0.67608 0.0
H1072 H 0.91632 0.17869 0.77513 0.0
H1073 H 0.88289 0.24844 0.77669 0.0
H1074 H 0.91058 0.26209 0.80917 0.0
H1075 H 0.9451 0.2549 0.8364 0.0
H1076 H 0.97592 0.18433 0.83824 0.0
H1077 H 0.94805 0.17012 0.8054 0.0
C1078 C 0.91456 0.19669 0.78284 0.0
C1079 C 0.89763 0.21257 0.77285 0.0
C1080 C 0.92999 0.20424 0.8023 0.0
C1081 C 0.89617 0.23597 0.78317 0.0
C1082 C 0.91187 0.24379 0.80202 0.0
C1083 C 0.94514 0.23618 0.83012 0.0
C1084 C 0.96182 0.22037 0.84022 0.0
C1085 C 0.92893 0.22816 0.81159 0.0
C1086 C 0.96276 0.19659 0.83103 0.0
C1087 C 0.9469 0.18853 0.81228 0.0
H1088 H 0.51455 0.89347 0.45971 0.0
H1089 H 0.44292 0.8791 0.48993 0.0
H1090 H 0.44057 0.83918 0.47004 0.0
H1091 H 0.45806 0.80915 0.4427 0.0
H1092 H 0.52964 0.82369 0.41214 0.0
H1093 H 0.53271 0.86273 0.43351 0.0
C1094 C 0.49837 0.88165 0.46186 0.0
C1095 C 0.47887 0.88938 0.47618 0.0
C1096 C 0.49711 0.85874 0.4503 0.0
C1097 C 0.45826 0.87359 0.47916 0.0
C1098 C 0.45685 0.8508 0.46769 0.0
C1099 C 0.47445 0.82072 0.44079 0.0
C1100 C 0.49355 0.81336 0.42567 0.0
C1101 C 0.47608 0.84327 0.45304 0.0
C1102 C 0.51462 0.82874 0.42358 0.0
C1103 C 0.51638 0.85116 0.43576 0.0
H1104 H 0.09253 0.30837 0.75683 0.0
H1105 H 0.15487 0.29284 0.80141 0.0
H1106 H 0.12799 0.28335 0.83596 0.0
H1107 H 0.08646 0.27766 0.85269 0.0
H1108 H 0.02435 0.29492 0.80823 0.0
H1109 H 0.05138 0.30592 0.77457 0.0
C1110 C 0.10013 0.30292 0.77416 0.0
C1111 C 0.12549 0.30095 0.77663 0.0
C1112 C 0.08463 0.29795 0.79395 0.0
C1113 C 0.13533 0.29432 0.79919 0.0
C1114 C 0.11998 0.28892 0.81888 0.0
C1115 C 0.07888 0.28411 0.83574 0.0
C1116 C 0.0534 0.28531 0.83296 0.0
C1117 C 0.09457 0.29045 0.81639 0.0
C1118 C 0.04387 0.29383 0.8109 0.0
C1119 C 0.05932 0.3 0.79156 0.0
H1120 H 0.55513 0.64291 0.47263 0.0
H1121 H 0.48806 0.6403 0.51337 0.0
H1122 H 0.47163 0.67159 0.48723 0.0
H1123 H 0.4764 0.69981 0.45286 0.0
H1124 H 0.54405 0.70292 0.41276 0.0
H1125 H 0.56005 0.6714 0.43854 0.0
C1126 C 0.53684 0.64906 0.47563 0.0
C1127 C 0.5228 0.63925 0.49485 0.0
C1128 C 0.52762 0.66725 0.46071 0.0
C1129 C 0.49928 0.64767 0.49877 0.0
C1130 C 0.48986 0.66553 0.48381 0.0
C1131 C 0.49467 0.69367 0.44975 0.0
C1132 C 0.50892 0.70387 0.43081 0.0
C1133 C 0.5039 0.67553 0.46476 0.0
C1134 C 0.5326 0.69557 0.42719 0.0
C1135 C 0.5418 0.67745 0.4419 0.0
H1136 H 0.90609 0.81674 0.7364 0.0
H1137 H 0.86235 0.74962 0.738 0.0
H1138 H 0.88998 0.73112 0.70941 0.0
H1139 H 0.92724 0.73328 0.68524 0.0
H1140 H 0.97069 0.80045 0.68212 0.0
H1141 H 0.94223 0.81973 0.70968 0.0
C1142 C 0.90237 0.7982 0.7302 0.0
C1143 C 0.88228 0.78453 0.73967 0.0
C1144 C 0.91832 0.78762 0.71354 0.0
C1145 C 0.87792 0.76044 0.7315 0.0
C1146 C 0.89366 0.74984 0.71503 0.0
C1147 C 0.93054 0.75216 0.69053 0.0
C1148 C 0.95126 0.76529 0.6818 0.0
C1149 C 0.91409 0.76313 0.70623 0.0
C1150 C 0.95494 0.78987 0.68859 0.0
C1151 C 0.93869 0.8009 0.7044 0.0
H1152 H 0.99984 0.86144 0.51617 0.0
H1153 H 0.05369 0.90057 0.56079 0.0
H1154 H 0.04796 0.87061 0.59307 0.0
H1155 H 0.03034 0.83147 0.60715 0.0
H1156 H 0.97708 0.79177 0.56228 0.0
H1157 H 0.9799 0.82374 0.53163 0.0
C1158 C 0.01024 0.86345 0.53301 0.0
C1159 C 0.0273 0.88314 0.53596 0.0
C1160 C 0.00708 0.84596 0.5514 0.0
C1161 C 0.04031 0.88572 0.55808 0.0
C1162 C 0.03718 0.86848 0.57649 0.0
C1163 C 0.01914 0.82992 0.59079 0.0
C1164 C 0.00369 0.80914 0.58693 0.0
C1165 C 0.021 0.84827 0.57314 0.0
C1166 C 0.98919 0.80753 0.5657 0.0
C1167 C 0.99084 0.82577 0.54811 0.0
H1168 H 0.13092 0.74108 0.73117 0.0
H1169 H 0.10628 0.67118 0.75882 0.0
H1170 H 0.06869 0.67283 0.73455 0.0
H1171 H 0.04359 0.69358 0.70422 0.0
H1172 H 0.06907 0.76349 0.67672 0.0
H1173 H 0.10552 0.76225 0.70211 0.0
C1174 C 0.1174 0.72611 0.73177 0.0
C1175 C 0.12152 0.70592 0.74658 0.0
C1176 C 0.09595 0.72717 0.71778 0.0
C1177 C 0.10354 0.68696 0.7476 0.0
C1178 C 0.08209 0.68786 0.73366 0.0
C1179 C 0.057 0.70864 0.70389 0.0
C1180 C 0.05348 0.72854 0.68839 0.0
C1181 C 0.07817 0.70782 0.71853 0.0
C1182 C 0.07119 0.74785 0.6883 0.0
C1183 C 0.09214 0.74719 0.70283 0.0
H1184 H 0.03594 0.61949 0.5551 0.0
H1185 H 0.96141 0.62652 0.53148 0.0
H1186 H 0.95996 0.66568 0.55276 0.0
H1187 H 0.97908 0.69643 0.58063 0.0
H1188 H 0.05416 0.6905 0.60259 0.0
H1189 H 0.05648 0.65252 0.57921 0.0
C1190 C 0.0195 0.62978 0.55447 0.0
C1191 C 0.99875 0.62017 0.54196 0.0
C1192 C 0.01892 0.65234 0.56651 0.0
C1193 C 0.97761 0.63368 0.54095 0.0
C1194 C 0.97677 0.656 0.55314 0.0
C1195 C 0.99589 0.68672 0.5802 0.0
C1196 C 0.01614 0.69543 0.59399 0.0
C1197 C 0.99714 0.66524 0.5664 0.0
C1198 C 0.03821 0.68356 0.59256 0.0
C1199 C 0.03952 0.66195 0.5792 0.0
H1200 H 0.75581 0.90756 0.23271 0.0
H1201 H 0.77216 0.91061 0.15594 0.0
H1202 H 0.80441 0.94177 0.16386 0.0
H1203 H 0.82906 0.96734 0.19297 0.0
H1204 H 0.81395 0.96214 0.26974 0.0
H1205 H 0.78001 0.93288 0.26151 0.0
C1206 C 0.76653 0.91487 0.21771 0.0
C1207 C 0.76154 0.90669 0.19378 0.0
C1208 C 0.78519 0.93257 0.2224 0.0
C1209 C 0.7754 0.91675 0.17452 0.0
C1210 C 0.7939 0.93454 0.17903 0.0
C1211 C 0.81819 0.95977 0.20777 0.0
C1212 C 0.82416 0.96626 0.23191 0.0
C1213 C 0.79904 0.94253 0.20291 0.0
C1214 C 0.80986 0.95685 0.25104 0.0
C1215 C 0.79047 0.94021 0.24635 0.0
H1216 H 0.80916 0.14888 0.28321 0.0
H1217 H 0.74866 0.10443 0.31031 0.0
H1218 H 0.77316 0.06838 0.30763 0.0
H1219 H 0.81065 0.049 0.29413 0.0
H1220 H 0.87028 0.0937 0.26549 0.0
H1221 H 0.84728 0.13006 0.27223 0.0
C1222 C 0.80131 0.1313 0.28852 0.0
C1223 C 0.77701 0.12933 0.29666 0.0
C1224 C 0.81535 0.11065 0.28658 0.0
C1225 C 0.76734 0.10649 0.30404 0.0
C1226 C 0.7813 0.08584 0.30238 0.0
C1227 C 0.81874 0.06674 0.28974 0.0
C1228 C 0.84211 0.0686 0.2792 0.0
C1229 C 0.80518 0.08762 0.29323 0.0
C1230 C 0.8523 0.09172 0.27351 0.0
C1231 C 0.83913 0.11254 0.2773 0.0
H1232 H 0.38137 0.96926 0.02841 0.0
H1233 H 0.3824 0.97749 0.95015 0.0
H1234 H 0.34279 0.95601 0.94688 0.0
H1235 H 0.30907 0.93299 0.96558 0.0
H1236 H 0.30856 0.92198 0.04345 0.0
H1237 H 0.34687 0.94628 0.0474 0.0
C1238 C 0.37302 0.96626 0.01061 0.0
C1239 C 0.385 0.97515 0.98958 0.0
C1240 C 0.35035 0.9533 0.00873 0.0
C1241 C 0.37357 0.97135 0.96674 0.0
C1242 C 0.35095 0.95884 0.96479 0.0
C1243 C 0.3171 0.93602 0.98353 0.0
C1244 C 0.30582 0.92558 0.00419 0.0
C1245 C 0.33931 0.94955 0.98561 0.0
C1246 C 0.31677 0.92973 0.0272 0.0
C1247 C 0.33873 0.94359 0.02947 0.0
H1248 H 0.24122 0.42432 0.32875 0.0
H1249 H 0.22003 0.37271 0.27213 0.0
H1250 H 0.18614 0.39774 0.26039 0.0
H1251 H 0.16375 0.43537 0.26493 0.0
H1252 H 0.18589 0.48737 0.32088 0.0
H1253 H 0.21775 0.46083 0.33454 0.0
C1254 C 0.22898 0.41834 0.31407 0.0
C1255 C 0.23324 0.39668 0.3013 0.0
C1256 C 0.20961 0.43288 0.30735 0.0
C1257 C 0.21739 0.38945 0.28206 0.0
C1258 C 0.19791 0.40369 0.27543 0.0
C1259 C 0.1753 0.44071 0.28035 0.0
C1260 C 0.17242 0.46332 0.29188 0.0
C1261 C 0.19401 0.42559 0.28776 0.0
C1262 C 0.18772 0.47008 0.31168 0.0
C1263 C 0.20601 0.45495 0.31945 0.0
H1264 H 0.13508 0.0301 0.51673 0.0
H1265 H 0.15369 0.01999 0.44123 0.0
H1266 H 0.18944 0.04772 0.44619 0.0
H1267 H 0.21358 0.07715 0.47108 0.0
H1268 H 0.19484 0.08882 0.54618 0.0
H1269 H 0.161 0.05818 0.54253 0.0
C1270 C 0.14709 0.03397 0.50149 0.0
C1271 C 0.14174 0.02334 0.47859 0.0
C1272 C 0.16736 0.05034 0.50437 0.0
C1273 C 0.15738 0.02828 0.45891 0.0
C1274 C 0.17785 0.044 0.46177 0.0
C1275 C 0.20198 0.07295 0.48658 0.0
C1276 C 0.20587 0.08567 0.50857 0.0
C1277 C 0.18266 0.05556 0.48422 0.0
C1278 C 0.19161 0.07952 0.52892 0.0
C1279 C 0.17233 0.06207 0.5268 0.0
H1280 H 0.73906 0.12307 0.73979 0.0
H1281 H 0.74339 0.10094 0.66419 0.0
H1282 H 0.71012 0.071 0.67022 0.0
H1283 H 0.6808 0.04944 0.69746 0.0
H1284 H 0.68135 0.0675 0.77395 0.0
H1285 H 0.71249 0.09982 0.7673 0.0
C1286 C 0.73324 0.11149 0.72461 0.0
C1287 C 0.74403 0.11462 0.70153 0.0
C1288 C 0.71497 0.09331 0.72842 0.0
C1289 C 0.73531 0.09965 0.6821 0.0
C1290 C 0.71639 0.08217 0.68556 0.0
C1291 C 0.68771 0.06063 0.71254 0.0
C1292 C 0.67804 0.05707 0.73592 0.0
C1293 C 0.70622 0.07868 0.70868 0.0
C1294 C 0.68775 0.07085 0.75559 0.0
C1295 C 0.7057 0.08913 0.75183 0.0
H1296 H 0.38415 0.03975 0.48995 0.0
H1297 H 0.40395 0.06737 0.56153 0.0
H1298 H 0.36935 0.09384 0.56077 0.0
H1299 H 0.33283 0.10871 0.54013 0.0
H1300 H 0.31224 0.07985 0.46925 0.0
H1301 H 0.3476 0.05435 0.46948 0.0
C1302 C 0.38077 0.05134 0.50551 0.0
C1303 C 0.39676 0.0515 0.52575 0.0
C1304 C 0.36067 0.06644 0.50506 0.0
C1305 C 0.39221 0.06703 0.54555 0.0
C1306 C 0.37233 0.08214 0.54519 0.0
C1307 C 0.3362 0.09699 0.52465 0.0
C1308 C 0.31992 0.09628 0.50468 0.0
C1309 C 0.35643 0.08203 0.52504 0.0
C1310 C 0.32445 0.08079 0.48487 0.0
C1311 C 0.34467 0.06614 0.48499 0.0
H1312 H 0.63323 0.46945 0.55159 0.0
H1313 H 0.63819 0.50847 0.48377 0.0
H1314 H 0.66894 0.48107 0.46922 0.0
H1315 H 0.69542 0.44691 0.47626 0.0
H1316 H 0.69069 0.4081 0.54434 0.0
H1317 H 0.65872 0.43433 0.55806 0.0
C1318 C 0.64078 0.47175 0.53348 0.0
C1319 C 0.63343 0.49106 0.51883 0.0
C1320 C 0.6586 0.456 0.52528 0.0
C1321 C 0.6437 0.49395 0.49555 0.0
C1322 C 0.66124 0.47824 0.48718 0.0
C1323 C 0.68738 0.44408 0.49408 0.0
C1324 C 0.69568 0.42553 0.50923 0.0
C1325 C 0.66904 0.45936 0.50199 0.0
C1326 C 0.68485 0.42221 0.53224 0.0
C1327 C 0.66651 0.43724 0.54015 0.0
H1328 H 0.75392 0.27871 0.39424 0.0
H1329 H 0.67512 0.2757 0.3924 0.0
H1330 H 0.67443 0.30175 0.42871 0.0
H1331 H 0.69658 0.32755 0.45975 0.0
H1332 H 0.77528 0.33209 0.45907 0.0
H1333 H 0.77571 0.30334 0.42507 0.0
C1334 C 0.73656 0.28379 0.40169 0.0
C1335 C 0.71463 0.27536 0.39049 0.0
C1336 C 0.73631 0.29911 0.42217 0.0
C1337 C 0.6923 0.28174 0.40077 0.0
C1338 C 0.69189 0.29676 0.42146 0.0
C1339 C 0.71371 0.32208 0.4521 0.0
C1340 C 0.73585 0.33223 0.46132 0.0
C1341 C 0.7138 0.30584 0.43214 0.0
C1342 C 0.75803 0.32483 0.45174 0.0
C1343 C 0.7583 0.30834 0.43241 0.0
H1344 H 0.54404 0.99105 0.88964 0.0
H1345 H 0.52165 0.06499 0.88378 0.0
H1346 H 0.54196 0.06893 0.84451 0.0
H1347 H 0.56772 0.0524 0.81312 0.0
H1348 H 0.59138 0.9788 0.81862 0.0
H1349 H 0.56851 0.97359 0.85654 0.0
C1350 C 0.54335 0.00789 0.87958 0.0
C1351 C 0.53152 0.02778 0.88973 0.0
C1352 C 0.5553 0.01012 0.857 0.0
C1353 C 0.53095 0.04955 0.87657 0.0
C1354 C 0.54248 0.05179 0.85406 0.0
C1355 C 0.56782 0.03508 0.8224 0.0
C1356 C 0.58146 0.01607 0.81296 0.0
C1357 C 0.55501 0.03234 0.84431 0.0
C1358 C 0.58112 0.99379 0.82538 0.0
C1359 C 0.5681 0.99082 0.84714 0.0
H1360 H 0.32145 0.2414 0.4025 0.0
H1361 H 0.24878 0.26205 0.38261 0.0
H1362 H 0.23116 0.23053 0.40863 0.0
H1363 H 0.23591 0.19799 0.4375 0.0
H1364 H 0.30792 0.17771 0.45981 0.0
H1365 H 0.3262 0.20856 0.43265 0.0
C1366 C 0.30176 0.23912 0.40398 0.0
C1367 C 0.28654 0.25402 0.39026 0.0
C1368 C 0.29159 0.22113 0.41949 0.0
C1369 C 0.26104 0.25057 0.39235 0.0
C1370 C 0.25088 0.23266 0.40745 0.0
C1371 C 0.25565 0.20011 0.43647 0.0
C1372 C 0.27048 0.18539 0.4507 0.0
C1373 C 0.26595 0.2179 0.42109 0.0
C1374 C 0.29602 0.18875 0.44911 0.0
C1375 C 0.30648 0.20639 0.43356 0.0
H1376 H 0.47714 0.50219 0.88875 0.0
H1377 H 0.50472 0.43493 0.86163 0.0
H1378 H 0.47857 0.43676 0.82584 0.0
H1379 H 0.44771 0.45654 0.80252 0.0
H1380 H 0.419 0.52383 0.82801 0.0
H1381 H 0.44591 0.52305 0.864 0.0
C1382 C 0.47734 0.48799 0.87497 0.0
C1383 C 0.49305 0.46855 0.87778 0.0
C1384 C 0.46214 0.48916 0.85414 0.0
C1385 C 0.49316 0.45029 0.85975 0.0
C1386 C 0.47811 0.45124 0.8393 0.0
C1387 C 0.44721 0.47113 0.81589 0.0
C1388 C 0.43117 0.49012 0.8126 0.0
C1389 C 0.46255 0.4705 0.83634 0.0
C1390 C 0.43118 0.50899 0.83003 0.0
C1391 C 0.44649 0.50847 0.85067 0.0
H1392 H 0.67528 0.74787 0.09174 0.0
H1393 H 0.74194 0.73779 0.13199 0.0
H1394 H 0.75305 0.70601 0.1032 0.0
H1395 H 0.74378 0.68118 0.06637 0.0
H1396 H 0.67662 0.69164 0.02676 0.0
H1397 H 0.66574 0.72287 0.05571 0.0
C1398 C 0.69209 0.73851 0.09445 0.0
C1399 C 0.70767 0.74516 0.11409 0.0
C1400 C 0.69833 0.72029 0.07789 0.0
C1401 C 0.72967 0.73318 0.11694 0.0
C1402 C 0.73599 0.71493 0.10053 0.0
C1403 C 0.72675 0.69024 0.06406 0.0
C1404 C 0.71114 0.68395 0.04426 0.0
C1405 C 0.72048 0.70837 0.08087 0.0
C1406 C 0.68912 0.69601 0.04169 0.0
C1407 C 0.6828 0.71394 0.05828 0.0
H1408 H 0.99716 0.99148 0.1479 0.0
H1409 H 0.96397 0.05847 0.12875 0.0
H1410 H 0.93264 0.05121 0.1595 0.0
H1411 H 0.91511 0.02651 0.19232 0.0
H1412 H 0.94754 0.95914 0.21168 0.0
H1413 H 0.97872 0.96595 0.18046 0.0
C1414 C 0.98308 0.00448 0.15052 0.0
C1415 C 0.9829 0.02546 0.13596 0.0
C1416 C 0.96502 1.00019 0.16832 0.0
C1417 C 0.96437 0.04201 0.13942 0.0
C1418 C 0.94652 0.03796 0.15713 0.0
C1419 C 0.929 0.01327 0.18982 0.0
C1420 C 0.92901 0.99242 0.20454 0.0
C1421 C 0.94673 0.0172 0.17175 0.0
C1422 C 0.94704 0.97539 0.2007 0.0
C1423 C 0.96493 0.97928 0.18284 0.0
H1424 H 0.30216 0.78461 0.13958 0.0
H1425 H 0.33058 0.73999 0.08222 0.0
H1426 H 0.31972 0.76995 0.05205 0.0
H1427 H 0.29956 0.80735 0.04143 0.0
H1428 H 0.26886 0.85092 0.09826 0.0
H1429 H 0.28306 0.82281 0.12904 0.0
C1430 C 0.30591 0.78138 0.12048 0.0
C1431 C 0.31719 0.75998 0.1133 0.0
C1432 C 0.29912 0.79848 0.10305 0.0
C1433 C 0.32228 0.75639 0.08844 0.0
C1434 C 0.31588 0.77345 0.07108 0.0
C1435 C 0.29624 0.81088 0.06057 0.0
C1436 C 0.28313 0.83118 0.06752 0.0
C1437 C 0.30401 0.79439 0.07812 0.0
C1438 C 0.27887 0.83539 0.0924 0.0
C1439 C 0.28693 0.81929 0.11002 0.0
H1440 H 0.0092 0.50904 0.14709 0.0
H1441 H 0.06626 0.47144 0.11043 0.0
H1442 H 0.09257 0.47695 0.14609 0.0
H1443 H 0.10082 0.49515 0.18671 0.0
H1444 H 0.04563 0.53694 0.22097 0.0
H1445 H 0.01751 0.5276 0.18708 0.0
C1446 C 0.02746 0.50223 0.14664 0.0
C1447 C 0.03549 0.48982 0.12579 0.0
C1448 C 0.04304 0.50641 0.16684 0.0
C1449 C 0.05913 0.48064 0.12617 0.0
C1450 C 0.07442 0.48403 0.14655 0.0
C1451 C 0.08253 0.50195 0.18682 0.0
C1452 C 0.07525 0.51662 0.20632 0.0
C1453 C 0.06672 0.49719 0.16685 0.0
C1454 C 0.05165 0.52566 0.20611 0.0
C1455 C 0.03557 0.52031 0.18675 0.0
H1456 H 0.41051 0.67501 0.27801 0.0
H1457 H 0.38293 0.74654 0.26796 0.0
H1458 H 0.41024 0.76272 0.30004 0.0
H1459 H 0.44406 0.75718 0.32893 0.0
H1460 H 0.4725 0.68615 0.33837 0.0
H1461 H 0.44316 0.66914 0.30815 0.0
C1462 C 0.41049 0.69414 0.28283 0.0
C1463 C 0.39477 0.70954 0.27044 0.0
C1464 C 0.42652 0.70342 0.30104 0.0
C1465 C 0.39466 0.73421 0.27727 0.0
C1466 C 0.41045 0.74354 0.29546 0.0
C1467 C 0.4434 0.73789 0.32469 0.0
C1468 C 0.45976 0.7227 0.33626 0.0
C1469 C 0.42668 0.7284 0.30722 0.0
C1470 C 0.45964 0.69798 0.32994 0.0
C1471 C 0.44293 0.68832 0.31269 0.0
H1472 H 0.01358 0.38976 0.96649 0.0
H1473 H 0.93955 0.37716 0.99128 0.0
H1474 H 0.93762 0.33736 0.97126 0.0
H1475 H 0.95625 0.30688 0.94534 0.0
H1476 H 0.03007 0.31979 0.91979 0.0
H1477 H 0.03264 0.35871 0.94138 0.0
C1478 C 0.99697 0.37837 0.96742 0.0
C1479 C 0.97671 0.38655 0.98034 0.0
C1480 C 0.9959 0.35554 0.95569 0.0
C1481 C 0.95551 0.3713 0.9817 0.0
C1482 C 0.95433 0.34856 0.97012 0.0
C1483 C 0.97302 0.31805 0.9446 0.0
C1484 C 0.99292 0.31026 0.93083 0.0
C1485 C 0.97435 0.34057 0.95692 0.0
C1486 C 0.01442 0.32519 0.93015 0.0
C1487 C 0.01591 0.34754 0.94248 0.0
H1488 H 0.59003 0.82495 0.25584 0.0
H1489 H 0.65021 0.78769 0.28737 0.0
H1490 H 0.62461 0.77505 0.3217 0.0
H1491 H 0.58454 0.77297 0.34178 0.0
H1492 H 0.52446 0.8102 0.30999 0.0
H1493 H 0.55084 0.82498 0.27711 0.0
C1494 C 0.59773 0.81443 0.27041 0.0
C1495 C 0.62204 0.80722 0.2689 0.0
C1496 C 0.58292 0.80725 0.29011 0.0
C1497 C 0.63148 0.7932 0.28782 0.0
C1498 C 0.61688 0.78608 0.30755 0.0
C1499 C 0.57729 0.78457 0.32783 0.0
C1500 C 0.55252 0.7904 0.32833 0.0
C1501 C 0.59248 0.79274 0.30874 0.0
C1502 C 0.54343 0.80539 0.31005 0.0
C1503 C 0.55849 0.8138 0.29118 0.0
H1504 H 0.0576 0.15158 0.99006 0.0
H1505 H 0.98659 0.11508 0.99452 0.0
H1506 H 0.9695 0.14531 0.96749 0.0
H1507 H 0.9748 0.18222 0.94271 0.0
H1508 H 0.04643 0.21734 0.93643 0.0
H1509 H 0.06317 0.18773 0.96419 0.0
C1510 C 0.03838 0.15033 0.98513 0.0
C1511 C 0.02333 0.13122 0.9943 0.0
C1512 C 0.02879 0.16757 0.96933 0.0
C1513 C 0.99853 0.12957 0.98755 0.0
C1514 C 0.98875 0.1469 0.9722 0.0
C1515 C 0.99406 0.18345 0.94746 0.0
C1516 C 0.0093 0.20206 0.93754 0.0
C1517 C 0.0037 0.16601 0.96301 0.0
C1518 C 0.03428 0.20319 0.94373 0.0
C1519 C 0.04388 0.18627 0.95963 0.0
H1520 H 0.38049 0.26951 0.25388 0.0
H1521 H 0.39838 0.34301 0.23135 0.0
H1522 H 0.42674 0.32796 0.20107 0.0
H1523 H 0.44685 0.29374 0.18129 0.0
H1524 H 0.42794 0.22037 0.20413 0.0
H1525 H 0.39944 0.23562 0.23361 0.0
C1526 C 0.39029 0.28226 0.24212 0.0
C1527 C 0.38722 0.30735 0.2449 0.0
C1528 C 0.40649 0.27351 0.22475 0.0
C1529 C 0.40054 0.3236 0.2298 0.0
C1530 C 0.4167 0.315 0.2124 0.0
C1531 C 0.43647 0.28107 0.19266 0.0
C1532 C 0.43976 0.25591 0.1904 0.0
C1533 C 0.41993 0.28996 0.20978 0.0
C1534 C 0.42601 0.23983 0.20537 0.0
C1535 C 0.40961 0.24852 0.22232 0.0
H1536 H 0.49341 0.35903 0.02285 0.0
H1537 H 0.52385 0.40716 0.07885 0.0
H1538 H 0.51571 0.37599 0.1094 0.0
H1539 H 0.50348 0.33371 0.11958 0.0
H1540 H 0.47083 0.28666 0.06405 0.0
H1541 H 0.47554 0.31917 0.03414 0.0
C1542 C 0.49767 0.36314 0.04178 0.0
C1543 C 0.50975 0.38544 0.04826 0.0
C1544 C 0.49258 0.34526 0.05942 0.0
C1545 C 0.51525 0.38999 0.07304 0.0
C1546 C 0.51045 0.3722 0.09062 0.0
C1547 C 0.49703 0.33072 0.10101 0.0
C1548 C 0.48708 0.30773 0.09397 0.0
C1549 C 0.49975 0.34952 0.08391 0.0
C1550 C 0.47855 0.30419 0.06994 0.0
C1551 C 0.48139 0.32273 0.05278 0.0
H1552 H 0.61862 0.2465 0.23612 0.0
H1553 H 0.60679 0.17038 0.2524 0.0
H1554 H 0.56925 0.169 0.22785 0.0
H1555 H 0.54027 0.18937 0.20111 0.0
H1556 H 0.5529 0.26555 0.18487 0.0
H1557 H 0.58942 0.26696 0.21041 0.0
C1558 C 0.60765 0.22967 0.23463 0.0
C1559 C 0.61544 0.20861 0.24621 0.0
C1560 C 0.58622 0.229 0.22047 0.0
C1561 C 0.60129 0.18682 0.24356 0.0
C1562 C 0.57978 0.18605 0.2296 0.0
C1563 C 0.55089 0.20633 0.20327 0.0
C1564 C 0.54375 0.2273 0.19097 0.0
C1565 C 0.57213 0.20702 0.21786 0.0
C1566 C 0.55791 0.24907 0.19396 0.0
C1567 C 0.57885 0.24993 0.2086 0.0
H1568 H 0.52612 0.12401 0.05041 0.0
H1569 H 0.44875 0.12609 0.03577 0.0
H1570 H 0.44702 0.1642 0.05858 0.0
H1571 H 0.46678 0.19505 0.0857 0.0
H1572 H 0.54399 0.19345 0.10026 0.0
H1573 H 0.54663 0.15705 0.07446 0.0
C1574 C 0.5089 0.13284 0.05221 0.0
C1575 C 0.48755 0.12209 0.0416 0.0
C1576 C 0.50801 0.15471 0.06546 0.0
C1577 C 0.46547 0.13402 0.04362 0.0
C1578 C 0.46444 0.15579 0.05673 0.0
C1579 C 0.48414 0.18665 0.08313 0.0
C1580 C 0.505 0.19608 0.09549 0.0
C1581 C 0.48546 0.16596 0.0682 0.0
C1582 C 0.52764 0.18594 0.09132 0.0
C1583 C 0.52912 0.1652 0.07661 0.0
H1584 H 0.27845 0.41174 0.68048 0.0
H1585 H 0.26127 0.39243 0.75472 0.0
H1586 H 0.29107 0.42327 0.76972 0.0
H1587 H 0.32319 0.4546 0.76181 0.0
H1588 H 0.34039 0.47455 0.68798 0.0
H1589 H 0.30905 0.44494 0.67263 0.0
C1590 C 0.28112 0.41441 0.69994 0.0
C1591 C 0.26784 0.39961 0.71645 0.0
C1592 C 0.29827 0.43226 0.70846 0.0
C1593 C 0.27158 0.40324 0.74161 0.0
C1594 C 0.28843 0.42104 0.75022 0.0
C1595 C 0.32005 0.45232 0.74236 0.0
C1596 C 0.33448 0.46588 0.72592 0.0
C1597 C 0.30211 0.43538 0.73382 0.0
C1598 C 0.32974 0.46375 0.70084 0.0
C1599 C 0.31189 0.44686 0.69212 0.0
H1600 H 0.30935 0.64311 0.78943 0.0
H1601 H 0.25194 0.59519 0.8175 0.0
H1602 H 0.27749 0.56036 0.81144 0.0
H1603 H 0.31563 0.54329 0.79651 0.0
H1604 H 0.3728 0.59172 0.7688 0.0
H1605 H 0.3481 0.62657 0.77709 0.0
C1606 C 0.3025 0.62515 0.79469 0.0
C1607 C 0.27864 0.6219 0.80388 0.0
C1608 C 0.31733 0.60523 0.7913 0.0
C1609 C 0.27005 0.59829 0.81005 0.0
C1610 C 0.28473 0.57834 0.80674 0.0
C1611 C 0.32281 0.5615 0.79262 0.0
C1612 C 0.34605 0.56483 0.78199 0.0
C1613 C 0.30832 0.58155 0.79713 0.0
C1614 C 0.355 0.58857 0.77693 0.0
C1615 C 0.34084 0.60855 0.78159 0.0
H1616 H 0.88775 0.46196 0.53235 0.0
H1617 H 0.88053 0.49425 0.46137 0.0
H1618 H 0.83923 0.47617 0.45731 0.0
H1619 H 0.80655 0.4488 0.47241 0.0
H1620 H 0.81377 0.4155 0.543 0.0
H1621 H 0.85356 0.43658 0.54877 0.0
C1622 C 0.87709 0.46505 0.51602 0.0
C1623 C 0.88729 0.47932 0.49713 0.0
C1624 C 0.85337 0.45443 0.51371 0.0
C1625 C 0.87309 0.48351 0.47626 0.0
C1626 C 0.84951 0.47306 0.47386 0.0
C1627 C 0.81662 0.4463 0.48922 0.0
C1628 C 0.80714 0.43035 0.50714 0.0
C1629 C 0.83964 0.45818 0.49229 0.0
C1630 C 0.82051 0.42761 0.52886 0.0
C1631 C 0.84338 0.43956 0.53213 0.0
H1632 H 0.74698 0.91812 0.81805 0.0
H1633 H 0.71633 0.8624 0.76972 0.0
H1634 H 0.68345 0.88883 0.7585 0.0
H1635 H 0.66401 0.92842 0.76148 0.0
H1636 H 0.69455 0.98334 0.81077 0.0
H1637 H 0.72629 0.95622 0.82307 0.0
C1638 C 0.73292 0.91147 0.80539 0.0
C1639 C 0.73435 0.88821 0.79473 0.0
C1640 C 0.71386 0.92662 0.79925 0.0
C1641 C 0.71608 0.88032 0.77794 0.0
C1642 C 0.6971 0.89537 0.77164 0.0
C1643 C 0.67742 0.93432 0.77515 0.0
C1644 C 0.67688 0.95794 0.78512 0.0
C1645 C 0.69589 0.91865 0.78204 0.0
C1646 C 0.69449 0.9653 0.80274 0.0
C1647 C 0.71275 0.94982 0.80975 0.0
H1648 H 0.63105 0.52348 0.02063 0.0
H1649 H 0.65591 0.50664 0.9482 0.0
H1650 H 0.68966 0.53665 0.95267 0.0
H1651 H 0.71072 0.56943 0.97599 0.0
H1652 H 0.68683 0.58664 0.04841 0.0
H1653 H 0.65415 0.5547 0.04528 0.0
C1654 C 0.64385 0.52645 0.00585 0.0
C1655 C 0.64092 0.51287 0.9841 0.0
C1656 C 0.66332 0.54381 0.00852 0.0
C1657 C 0.65788 0.51664 0.96523 0.0
C1658 C 0.67718 0.53383 0.96773 0.0
C1659 C 0.6983 0.5661 0.99105 0.0
C1660 C 0.70039 0.58074 0.01203 0.0
C1661 C 0.67984 0.54776 0.98911 0.0
C1662 C 0.68503 0.5758 0.03189 0.0
C1663 C 0.66641 0.55761 0.03006 0.0
H1664 H 0.24033 0.62152 0.24007 0.0
H1665 H 0.23894 0.60116 0.16391 0.0
H1666 H 0.20437 0.57276 0.17108 0.0
H1667 H 0.1757 0.55195 0.19951 0.0
H1668 H 0.17905 0.57064 0.27584 0.0
H1669 H 0.212 0.60093 0.26825 0.0
C1670 C 0.23263 0.61076 0.22503 0.0
C1671 C 0.24238 0.61352 0.2015 0.0
C1672 C 0.21314 0.594 0.22936 0.0
C1673 C 0.2317 0.59974 0.18218 0.0
C1674 C 0.21203 0.58328 0.18629 0.0
C1675 C 0.1836 0.56287 0.21434 0.0
C1676 C 0.17454 0.55981 0.23802 0.0
C1677 C 0.20277 0.58005 0.20985 0.0
C1678 C 0.18525 0.57342 0.25732 0.0
C1679 C 0.20419 0.59057 0.25302 0.0
H1680 H 0.89891 0.57393 0.01329 0.0
H1681 H 0.85974 0.50533 0.02644 0.0
H1682 H 0.82125 0.5249 0.02156 0.0
H1683 H 0.79814 0.5617 0.01468 0.0
H1684 H 0.83693 0.63105 0.0084 0.0
H1685 H 0.87609 0.61108 0.0103 0.0
C1686 C 0.88215 0.56311 0.01568 0.0
C1687 C 0.88281 0.53784 0.01999 0.0
C1688 C 0.8598 0.57472 0.0142 0.0
C1689 C 0.86036 0.52453 0.02234 0.0
C1690 C 0.8381 0.53579 0.01986 0.0
C1691 C 0.81523 0.57235 0.01367 0.0
C1692 C 0.81483 0.5977 0.01112 0.0
C1693 C 0.83758 0.56085 0.0158 0.0
C1694 C 0.83694 0.61148 0.0103 0.0
C1695 C 0.85926 0.60005 0.01137 0.0
H1696 H 0.13476 0.96692 0.05541 0.0
H1697 H 0.1272 0.99446 0.98244 0.0
H1698 H 0.15858 0.96759 0.96817 0.0
H1699 H 0.18883 0.9368 0.97662 0.0
H1700 H 0.1958 0.90935 0.04983 0.0
H1701 H 0.16381 0.93539 0.06357 0.0
C1702 C 0.13965 0.96679 0.03629 0.0
C1703 C 0.12857 0.98271 0.02005 0.0
C1704 C 0.15772 0.95133 0.02821 0.0
C1705 C 0.13557 0.98258 0.99542 0.0
C1706 C 0.15348 0.96716 0.98722 0.0
C1707 C 0.18337 0.93647 0.99558 0.0
C1708 C 0.19492 0.9211 0.01211 0.0
C1709 C 0.16485 0.95159 0.0035 0.0
C1710 C 0.18738 0.92093 0.0366 0.0
C1711 C 0.16904 0.93586 0.04455 0.0
loop_
_geom_bond_atom_site_label_1
_geom_bond_atom_site_label_2
_geom_bond_distance
_geom_bond_site_symmetry_2
_ccdc_geom_bond_type
P0 O11 1.490 . S
P0 C14 1.812 . S
P0 C20 1.803 . S
P0 C26 1.819 . S
H1 C15 0.941 . S
H2 C16 0.939 . S
H3 C18 0.940 . S
H4 C19 0.940 . S
H5 C21 0.939 . S
H6 C22 0.942 . S
H7 C24 0.940 . S
H8 C25 0.939 . S
H9 C27 0.941 . S
H10 C31 0.939 . S
O11 P0 1.490 . S
H12 C28 0.939 . S
H13 C30 0.940 . S
C14 P0 1.812 . S
C14 C15 1.389 . S
C14 C19 1.391 . S
C15 H1 0.941 . S
C15 C14 1.389 . S
C15 C16 1.397 . S
C16 H2 0.939 . S
C16 C15 1.397 . S
C16 C17 1.378 1_455 S
C17 C16 1.378 1_655 S
C17 C18 1.378 . S
C18 H3 0.940 . S
C18 C17 1.378 . S
C18 C19 1.396 1_655 S
C19 H4 0.940 . S
C19 C14 1.391 . S
C19 C18 1.396 1_455 S
C20 P0 1.803 . S
C20 C21 1.378 . S
C20 C25 1.400 . S
C21 H5 0.939 . S
C21 C20 1.378 . S
C21 C22 1.361 . S
C22 H6 0.942 . S
C22 C21 1.361 . S
C22 C23 1.369 1_545 S
C23 C22 1.369 1_565 S
C23 C24 1.404 . S
C24 H7 0.940 . S
C24 C23 1.404 . S
C24 C25 1.389 1_565 S
C25 H8 0.939 . S
C25 C20 1.400 . S
C25 C24 1.389 1_545 S
C26 P0 1.819 . S
C26 C27 1.391 . S
C26 C31 1.391 . S
C27 H9 0.941 . S
C27 C26 1.391 . S
C27 C28 1.396 . S
C28 H12 0.939 . S
C28 C27 1.396 . S
C28 C29 1.397 1_554 S
C29 C28 1.397 1_556 S
C29 C30 1.385 . S
C30 H13 0.940 . S
C30 C29 1.385 . S
C30 C31 1.388 1_556 S
C31 H10 0.939 . S
C31 C26 1.391 . S
C31 C30 1.388 1_554 S
P32 O43 1.490 . S
P32 C46 1.812 . S
P32 C52 1.803 . S
P32 C58 1.819 . S
H33 C47 0.941 . S
H34 C48 0.939 . S
H35 C50 0.940 . S
H36 C51 0.940 . S
H37 C53 0.939 . S
H38 C54 0.942 . S
H39 C56 0.940 . S
H40 C57 0.939 . S
H41 C59 0.941 . S
H42 C63 0.939 . S
O43 P32 1.490 . S
H44 C60 0.939 . S
H45 C62 0.940 . S
C46 P32 1.812 . S
C46 C47 1.389 . S
C46 C51 1.391 . S
C47 H33 0.941 . S
C47 C46 1.389 . S
C47 C48 1.397 . S
C48 H34 0.939 . S
C48 C47 1.397 . S
C48 C49 1.378 . S
C49 C48 1.378 . S
C49 C50 1.378 . S
C50 H35 0.940 . S
C50 C49 1.378 . S
C50 C51 1.396 . S
C51 H36 0.940 . S
C51 C46 1.391 . S
C51 C50 1.396 . S
C52 P32 1.803 . S
C52 C53 1.378 . S
C52 C57 1.400 . S
C53 H37 0.939 . S
C53 C52 1.378 . S
C53 C54 1.361 . S
C54 H38 0.942 . S
C54 C53 1.361 . S
C54 C55 1.369 . S
C55 C54 1.369 . S
C55 C56 1.404 . S
C56 H39 0.940 . S
C56 C55 1.404 . S
C56 C57 1.389 . S
C57 H40 0.939 . S
C57 C52 1.400 . S
C57 C56 1.389 . S
C58 P32 1.819 . S
C58 C59 1.391 . S
C58 C63 1.391 . S
C59 H41 0.941 . S
C59 C58 1.391 . S
C59 C60 1.396 . S
C60 H44 0.939 . S
C60 C59 1.396 . S
C60 C61 1.397 . S
C61 C60 1.397 . S
C61 C62 1.385 . S
C62 H45 0.940 . S
C62 C61 1.385 . S
C62 C63 1.388 . S
C63 H42 0.939 . S
C63 C58 1.391 . S
C63 C62 1.388 . S
P64 O75 1.490 1_654 S
P64 C78 1.812 . S
P64 C84 1.803 . S
P64 C90 1.819 . S
H65 C79 0.941 . S
H66 C80 0.939 . S
H67 C82 0.940 . S
H68 C83 0.940 . S
H69 C85 0.939 . S
H70 C86 0.942 . S
H71 C88 0.940 . S
H72 C89 0.939 . S
H73 C91 0.941 . S
H74 C95 0.939 . S
O75 P64 1.490 1_456 S
H76 C92 0.939 . S
H77 C94 0.940 . S
C78 P64 1.812 . S
C78 C79 1.389 1_554 S
C78 C83 1.391 . S
C79 H65 0.941 . S
C79 C78 1.389 1_556 S
C79 C80 1.397 . S
C80 H66 0.939 . S
C80 C79 1.397 . S
C80 C81 1.378 . S
C81 C80 1.378 . S
C81 C82 1.378 1_556 S
C82 H67 0.940 . S
C82 C81 1.378 1_554 S
C82 C83 1.396 . S
C83 H68 0.940 . S
C83 C78 1.391 . S
C83 C82 1.396 . S
C84 P64 1.803 . S
C84 C85 1.378 . S
C84 C89 1.400 . S
C85 H69 0.939 . S
C85 C84 1.378 . S
C85 C86 1.361 . S
C86 H70 0.942 . S
C86 C85 1.361 . S
C86 C87 1.369 . S
C87 C86 1.369 . S
C87 C88 1.404 . S
C88 H71 0.940 . S
C88 C87 1.404 . S
C88 C89 1.389 . S
C89 H72 0.939 . S
C89 C84 1.400 . S
C89 C88 1.389 . S
C90 P64 1.819 . S
C90 C91 1.391 1_655 S
C90 C95 1.391 . S
C91 H73 0.941 . S
C91 C90 1.391 1_455 S
C91 C92 1.396 . S
C92 H76 0.939 . S
C92 C91 1.396 . S
C92 C93 1.397 . S
C93 C92 1.397 . S
C93 C94 1.385 1_455 S
C94 H77 0.940 . S
C94 C93 1.385 1_655 S
C94 C95 1.388 . S
C95 H74 0.939 . S
C95 C90 1.391 . S
C95 C94 1.388 . S
P96 O107 1.490 . S
P96 C110 1.812 . S
P96 C116 1.803 . S
P96 C122 1.819 . S
H97 C111 0.941 . S
H98 C112 0.939 . S
H99 C114 0.940 . S
H100 C115 0.940 . S
H101 C117 0.939 . S
H102 C118 0.942 . S
H103 C120 0.940 . S
H104 C121 0.939 . S
H105 C123 0.941 . S
H106 C127 0.939 . S
O107 P96 1.490 . S
H108 C124 0.939 . S
H109 C126 0.940 . S
C110 P96 1.812 . S
C110 C111 1.389 . S
C110 C115 1.391 . S
C111 H97 0.941 . S
C111 C110 1.389 . S
C111 C112 1.397 . S
C112 H98 0.939 . S
C112 C111 1.397 . S
C112 C113 1.378 . S
C113 C112 1.378 . S
C113 C114 1.378 . S
C114 H99 0.940 . S
C114 C113 1.378 . S
C114 C115 1.396 . S
C115 H100 0.940 . S
C115 C110 1.391 . S
C115 C114 1.396 . S
C116 P96 1.803 . S
C116 C117 1.378 . S
C116 C121 1.400 . S
C117 H101 0.939 . S
C117 C116 1.378 . S
C117 C118 1.361 . S
C118 H102 0.942 . S
C118 C117 1.361 . S
C118 C119 1.369 . S
C119 C118 1.369 . S
C119 C120 1.404 . S
C120 H103 0.940 . S
C120 C119 1.404 . S
C120 C121 1.389 . S
C121 H104 0.939 . S
C121 C116 1.400 . S
C121 C120 1.389 . S
C122 P96 1.819 . S
C122 C123 1.391 . S
C122 C127 1.391 . S
C123 H105 0.941 . S
C123 C122 1.391 . S
C123 C124 1.396 . S
C124 H108 0.939 . S
C124 C123 1.396 . S
C124 C125 1.397 . S
C125 C124 1.397 . S
C125 C126 1.385 . S
C126 H109 0.940 . S
C126 C125 1.385 . S
C126 C127 1.388 . S
C127 H106 0.939 . S
C127 C122 1.391 . S
C127 C126 1.388 . S
P128 O139 1.490 . S
P128 C142 1.812 . S
P128 C148 1.803 . S
P128 C154 1.819 . S
H129 C143 0.941 . S
H130 C144 0.939 . S
H131 C146 0.940 . S
H132 C147 0.940 . S
H133 C149 0.939 . S
H134 C150 0.942 . S
H135 C152 0.940 . S
H136 C153 0.939 . S
H137 C155 0.941 . S
H138 C159 0.939 . S
O139 P128 1.490 . S
H140 C156 0.939 . S
H141 C158 0.940 . S
C142 P128 1.812 . S
C142 C143 1.389 . S
C142 C147 1.391 . S
C143 H129 0.941 . S
C143 C142 1.389 . S
C143 C144 1.397 . S
C144 H130 0.939 . S
C144 C143 1.397 . S
C144 C145 1.378 1_565 S
C145 C144 1.378 1_545 S
C145 C146 1.378 . S
C146 H131 0.940 . S
C146 C145 1.378 . S
C146 C147 1.396 1_545 S
C147 H132 0.940 . S
C147 C142 1.391 . S
C147 C146 1.396 1_565 S
C148 P128 1.803 . S
C148 C149 1.378 . S
C148 C153 1.400 . S
C149 H133 0.939 . S
C149 C148 1.378 . S
C149 C150 1.361 . S
C150 H134 0.942 . S
C150 C149 1.361 . S
C150 C151 1.369 . S
C151 C150 1.369 . S
C151 C152 1.404 . S
C152 H135 0.940 . S
C152 C151 1.404 . S
C152 C153 1.389 . S
C153 H136 0.939 . S
C153 C148 1.400 . S
C153 C152 1.389 . S
C154 P128 1.819 . S
C154 C155 1.391 . S
C154 C159 1.391 . S
C155 H137 0.941 . S
C155 C154 1.391 . S
C155 C156 1.396 . S
C156 H140 0.939 . S
C156 C155 1.396 . S
C156 C157 1.397 1_455 S
C157 C156 1.397 1_655 S
C157 C158 1.385 . S
C158 H141 0.940 . S
C158 C157 1.385 . S
C158 C159 1.388 1_655 S
C159 H138 0.939 . S
C159 C154 1.391 . S
C159 C158 1.388 1_455 S
P160 O171 1.490 . S
P160 C174 1.812 . S
P160 C180 1.803 . S
P160 C186 1.819 . S
H161 C175 0.941 . S
H162 C176 0.939 . S
H163 C178 0.940 . S
H164 C179 0.940 . S
H165 C181 0.939 . S
H166 C182 0.942 . S
H167 C184 0.940 . S
H168 C185 0.939 . S
H169 C187 0.941 . S
H170 C191 0.939 . S
O171 P160 1.490 . S
H172 C188 0.939 . S
H173 C190 0.940 . S
C174 P160 1.812 . S
C174 C175 1.389 . S
C174 C179 1.391 . S
C175 H161 0.941 . S
C175 C174 1.389 . S
C175 C176 1.397 . S
C176 H162 0.939 . S
C176 C175 1.397 . S
C176 C177 1.378 . S
C177 C176 1.378 . S
C177 C178 1.378 . S
C178 H163 0.940 . S
C178 C177 1.378 . S
C178 C179 1.396 . S
C179 H164 0.940 . S
C179 C174 1.391 . S
C179 C178 1.396 . S
C180 P160 1.803 . S
C180 C181 1.378 . S
C180 C185 1.400 . S
C181 H165 0.939 . S
C181 C180 1.378 . S
C181 C182 1.361 . S
C182 H166 0.942 . S
C182 C181 1.361 . S
C182 C183 1.369 . S
C183 C182 1.369 . S
C183 C184 1.404 . S
C184 H167 0.940 . S
C184 C183 1.404 . S
C184 C185 1.389 . S
C185 H168 0.939 . S
C185 C180 1.400 . S
C185 C184 1.389 . S
C186 P160 1.819 . S
C186 C187 1.391 . S
C186 C191 1.391 . S
C187 H169 0.941 . S
C187 C186 1.391 . S
C187 C188 1.396 . S
C188 H172 0.939 . S
C188 C187 1.396 . S
C188 C189 1.397 . S
C189 C188 1.397 . S
C189 C190 1.385 . S
C190 H173 0.940 . S
C190 C189 1.385 . S
C190 C191 1.388 . S
C191 H170 0.939 . S
C191 C186 1.391 . S
C191 C190 1.388 . S
P192 O203 1.490 1_655 S
P192 C206 1.812 1_655 S
P192 C212 1.803 . S
P192 C218 1.819 . S
H193 C207 0.941 . S
H194 C208 0.939 . S
H195 C210 0.940 . S
H196 C211 0.940 . S
H197 C213 0.939 . S
H198 C214 0.942 . S
H199 C216 0.940 . S
H200 C217 0.939 . S
H201 C219 0.941 . S
H202 C223 0.939 . S
O203 P192 1.490 1_455 S
H204 C220 0.939 . S
H205 C222 0.940 . S
C206 P192 1.812 1_455 S
C206 C207 1.389 . S
C206 C211 1.391 1_455 S
C207 H193 0.941 . S
C207 C206 1.389 . S
C207 C208 1.397 . S
C208 H194 0.939 . S
C208 C207 1.397 . S
C208 C209 1.378 . S
C209 C208 1.378 . S
C209 C210 1.378 1_455 S
C210 H195 0.940 . S
C210 C209 1.378 1_655 S
C210 C211 1.396 . S
C211 H196 0.940 . S
C211 C206 1.391 1_655 S
C211 C210 1.396 . S
C212 P192 1.803 . S
C212 C213 1.378 . S
C212 C217 1.400 . S
C213 H197 0.939 . S
C213 C212 1.378 . S
C213 C214 1.361 . S
C214 H198 0.942 . S
C214 C213 1.361 . S
C214 C215 1.369 . S
C215 C214 1.369 . S
C215 C216 1.404 . S
C216 H199 0.940 . S
C216 C215 1.404 . S
C216 C217 1.389 . S
C217 H200 0.939 . S
C217 C212 1.400 . S
C217 C216 1.389 . S
C218 P192 1.819 . S
C218 C219 1.391 . S
C218 C223 1.391 . S
C219 H201 0.941 . S
C219 C218 1.391 . S
C219 C220 1.396 . S
C220 H204 0.939 . S
C220 C219 1.396 . S
C220 C221 1.397 . S
C221 C220 1.397 . S
C221 C222 1.385 . S
C222 H205 0.940 . S
C222 C221 1.385 . S
C222 C223 1.388 . S
C223 H202 0.939 . S
C223 C218 1.391 . S
C223 C222 1.388 . S
P224 O235 1.490 . S
P224 C238 1.812 . S
P224 C244 1.803 . S
P224 C250 1.819 . S
H225 C239 0.941 . S
H226 C240 0.939 . S
H227 C242 0.940 . S
H228 C243 0.940 . S
H229 C245 0.939 . S
H230 C246 0.942 . S
H231 C248 0.940 . S
H232 C249 0.939 . S
H233 C251 0.941 . S
H234 C255 0.939 . S
O235 P224 1.490 . S
H236 C252 0.939 . S
H237 C254 0.940 . S
C238 P224 1.812 . S
C238 C239 1.389 . S
C238 C243 1.391 . S
C239 H225 0.941 . S
C239 C238 1.389 . S
C239 C240 1.397 . S
C240 H226 0.939 . S
C240 C239 1.397 . S
C240 C241 1.378 . S
C241 C240 1.378 . S
C241 C242 1.378 . S
C242 H227 0.940 . S
C242 C241 1.378 . S
C242 C243 1.396 . S
C243 H228 0.940 . S
C243 C238 1.391 . S
C243 C242 1.396 . S
C244 P224 1.803 . S
C244 C245 1.378 . S
C244 C249 1.400 . S
C245 H229 0.939 . S
C245 C244 1.378 . S
C245 C246 1.361 . S
C246 H230 0.942 . S
C246 C245 1.361 . S
C246 C247 1.369 . S
C247 C246 1.369 . S
C247 C248 1.404 . S
C248 H231 0.940 . S
C248 C247 1.404 . S
C248 C249 1.389 . S
C249 H232 0.939 . S
C249 C244 1.400 . S
C249 C248 1.389 . S
C250 P224 1.819 . S
C250 C251 1.391 . S
C250 C255 1.391 . S
C251 H233 0.941 . S
C251 C250 1.391 . S
C251 C252 1.396 . S
C252 H236 0.939 . S
C252 C251 1.396 . S
C252 C253 1.397 . S
C253 C252 1.397 . S
C253 C254 1.385 . S
C254 H237 0.940 . S
C254 C253 1.385 . S
C254 C255 1.388 . S
C255 H234 0.939 . S
C255 C250 1.391 . S
C255 C254 1.388 . S
P256 O267 1.490 . S
P256 C270 1.812 . S
P256 C276 1.803 . S
P256 C282 1.819 . S
H257 C271 0.941 . S
H258 C272 0.939 . S
H259 C274 0.940 . S
H260 C275 0.940 . S
H261 C277 0.939 . S
H262 C278 0.942 . S
H263 C280 0.940 . S
H264 C281 0.939 . S
H265 C283 0.941 . S
H266 C287 0.939 . S
O267 P256 1.490 . S
H268 C284 0.939 . S
H269 C286 0.940 . S
C270 P256 1.812 . S
C270 C271 1.389 . S
C270 C275 1.391 . S
C271 H257 0.941 . S
C271 C270 1.389 . S
C271 C272 1.397 . S
C272 H258 0.939 . S
C272 C271 1.397 . S
C272 C273 1.378 . S
C273 C272 1.378 . S
C273 C274 1.378 . S
C274 H259 0.940 . S
C274 C273 1.378 . S
C274 C275 1.396 . S
C275 H260 0.940 . S
C275 C270 1.391 . S
C275 C274 1.396 . S
C276 P256 1.803 . S
C276 C277 1.378 . S
C276 C281 1.400 . S
C277 H261 0.939 . S
C277 C276 1.378 . S
C277 C278 1.361 . S
C278 H262 0.942 . S
C278 C277 1.361 . S
C278 C279 1.369 . S
C279 C278 1.369 . S
C279 C280 1.404 . S
C280 H263 0.940 . S
C280 C279 1.404 . S
C280 C281 1.389 . S
C281 H264 0.939 . S
C281 C276 1.400 . S
C281 C280 1.389 . S
C282 P256 1.819 . S
C282 C283 1.391 . S
C282 C287 1.391 . S
C283 H265 0.941 . S
C283 C282 1.391 . S
C283 C284 1.396 . S
C284 H268 0.939 . S
C284 C283 1.396 . S
C284 C285 1.397 . S
C285 C284 1.397 . S
C285 C286 1.385 . S
C286 H269 0.940 . S
C286 C285 1.385 . S
C286 C287 1.388 . S
C287 H266 0.939 . S
C287 C282 1.391 . S
C287 C286 1.388 . S
P288 O299 1.490 1_565 S
P288 C302 1.812 . S
P288 C308 1.789 1_565 S
P288 C314 1.819 . S
H289 C303 0.941 . S
H290 C304 0.939 . S
H291 C306 0.940 . S
H292 C307 0.940 . S
H293 C309 0.939 . S
H294 C310 0.942 . S
H295 C312 0.940 . S
H296 C313 0.939 . S
H297 C315 0.941 . S
H298 C319 0.939 . S
O299 P288 1.490 1_545 S
H300 C316 0.939 . S
H301 C318 0.940 . S
C302 P288 1.812 . S
C302 C303 1.389 . S
C302 C307 1.391 . S
C303 H289 0.941 . S
C303 C302 1.389 . S
C303 C304 1.397 . S
C304 H290 0.939 . S
C304 C303 1.397 . S
C304 C305 1.378 . S
C305 C304 1.378 . S
C305 C306 1.378 . S
C306 H291 0.940 . S
C306 C305 1.378 . S
C306 C307 1.396 . S
C307 H292 0.940 . S
C307 C302 1.391 . S
C307 C306 1.396 . S
C308 P288 1.789 1_545 S
C308 C309 1.417 . S
C308 C313 1.379 1_545 S
C309 H293 0.939 . S
C309 C308 1.417 . S
C309 C310 1.361 . S
C310 H294 0.942 . S
C310 C309 1.361 . S
C310 C311 1.369 . S
C311 C310 1.369 . S
C311 C312 1.404 1_545 S
C312 H295 0.940 . S
C312 C311 1.404 1_565 S
C312 C313 1.389 . S
C313 H296 0.939 . S
C313 C308 1.379 1_565 S
C313 C312 1.389 . S
C314 P288 1.819 . S
C314 C315 1.391 . S
C314 C319 1.391 . S
C315 H297 0.941 . S
C315 C314 1.391 . S
C315 C316 1.396 . S
C316 H300 0.939 . S
C316 C315 1.396 . S
C316 C317 1.397 . S
C317 C316 1.397 . S
C317 C318 1.385 . S
C318 H301 0.940 . S
C318 C317 1.385 . S
C318 C319 1.388 . S
C319 H298 0.939 . S
C319 C314 1.391 . S
C319 C318 1.388 . S
P320 O331 1.490 . S
P320 C334 1.812 . S
P320 C340 1.803 . S
P320 C346 1.819 . S
H321 C335 0.941 . S
H322 C336 0.939 . S
H323 C338 0.940 . S
H324 C339 0.940 . S
H325 C341 0.939 . S
H326 C342 0.942 . S
H327 C344 0.940 . S
H328 C345 0.939 . S
H329 C347 0.941 . S
H330 C351 0.939 . S
O331 P320 1.490 . S
H332 C348 0.939 . S
H333 C350 0.940 . S
C334 P320 1.812 . S
C334 C335 1.389 . S
C334 C339 1.391 . S
C335 H321 0.941 . S
C335 C334 1.389 . S
C335 C336 1.397 . S
C336 H322 0.939 . S
C336 C335 1.397 . S
C336 C337 1.378 . S
C337 C336 1.378 . S
C337 C338 1.378 . S
C338 H323 0.940 . S
C338 C337 1.378 . S
C338 C339 1.396 . S
C339 H324 0.940 . S
C339 C334 1.391 . S
C339 C338 1.396 . S
C340 P320 1.803 . S
C340 C341 1.378 . S
C340 C345 1.400 . S
C341 H325 0.939 . S
C341 C340 1.378 . S
C341 C342 1.361 . S
C342 H326 0.942 . S
C342 C341 1.361 . S
C342 C343 1.369 . S
C343 C342 1.369 . S
C343 C344 1.404 . S
C344 H327 0.940 . S
C344 C343 1.404 . S
C344 C345 1.389 . S
C345 H328 0.939 . S
C345 C340 1.400 . S
C345 C344 1.389 . S
C346 P320 1.819 . S
C346 C347 1.391 . S
C346 C351 1.391 . S
C347 H329 0.941 . S
C347 C346 1.391 . S
C347 C348 1.396 . S
C348 H332 0.939 . S
C348 C347 1.396 . S
C348 C349 1.397 . S
C349 C348 1.397 . S
C349 C350 1.385 . S
C350 H333 0.940 . S
C350 C349 1.385 . S
C350 C351 1.388 . S
C351 H330 0.939 . S
C351 C346 1.391 . S
C351 C350 1.388 . S
P352 O363 1.490 . S
P352 C366 1.812 . S
P352 C372 1.803 . S
P352 C378 1.819 . S
H353 C367 0.941 . S
H354 C368 0.939 . S
H355 C370 0.940 . S
H356 C371 0.940 . S
H357 C373 0.939 . S
H358 C374 0.942 . S
H359 C376 0.940 . S
H360 C377 0.939 . S
H361 C379 0.941 . S
H362 C383 0.939 . S
O363 P352 1.490 . S
H364 C380 0.939 . S
H365 C382 0.940 . S
C366 P352 1.812 . S
C366 C367 1.389 . S
C366 C371 1.391 . S
C367 H353 0.941 . S
C367 C366 1.389 . S
C367 C368 1.397 . S
C368 H354 0.939 . S
C368 C367 1.397 . S
C368 C369 1.378 . S
C369 C368 1.378 . S
C369 C370 1.378 . S
C370 H355 0.940 . S
C370 C369 1.378 . S
C370 C371 1.396 . S
C371 H356 0.940 . S
C371 C366 1.391 . S
C371 C370 1.396 . S
C372 P352 1.803 . S
C372 C373 1.378 . S
C372 C377 1.400 . S
C373 H357 0.939 . S
C373 C372 1.378 . S
C373 C374 1.361 . S
C374 H358 0.942 . S
C374 C373 1.361 . S
C374 C375 1.369 . S
C375 C374 1.369 . S
C375 C376 1.404 . S
C376 H359 0.940 . S
C376 C375 1.404 . S
C376 C377 1.389 . S
C377 H360 0.939 . S
C377 C372 1.400 . S
C377 C376 1.389 . S
C378 P352 1.819 . S
C378 C379 1.391 . S
C378 C383 1.391 . S
C379 H361 0.941 . S
C379 C378 1.391 . S
C379 C380 1.396 . S
C380 H364 0.939 . S
C380 C379 1.396 . S
C380 C381 1.397 . S
C381 C380 1.397 . S
C381 C382 1.385 . S
C382 H365 0.940 . S
C382 C381 1.385 . S
C382 C383 1.388 . S
C383 H362 0.939 . S
C383 C378 1.391 . S
C383 C382 1.388 . S
P384 O395 1.490 . S
P384 C398 1.812 . S
P384 C404 1.803 . S
P384 C410 1.819 . S
H385 C399 0.941 . S
H386 C400 0.939 . S
H387 C402 0.940 . S
H388 C403 0.940 . S
H389 C405 0.939 . S
H390 C406 0.942 . S
H391 C408 0.940 . S
H392 C409 0.939 . S
H393 C411 0.941 . S
H394 C415 0.939 . S
O395 P384 1.490 . S
H396 C412 0.939 . S
H397 C414 0.940 . S
C398 P384 1.812 . S
C398 C399 1.389 . S
C398 C403 1.391 . S
C399 H385 0.941 . S
C399 C398 1.389 . S
C399 C400 1.397 . S
C400 H386 0.939 . S
C400 C399 1.397 . S
C400 C401 1.378 . S
C401 C400 1.378 . S
C401 C402 1.378 . S
C402 H387 0.940 . S
C402 C401 1.378 . S
C402 C403 1.396 . S
C403 H388 0.940 . S
C403 C398 1.391 . S
C403 C402 1.396 . S
C404 P384 1.803 . S
C404 C405 1.378 . S
C404 C409 1.400 . S
C405 H389 0.939 . S
C405 C404 1.378 . S
C405 C406 1.361 . S
C406 H390 0.942 . S
C406 C405 1.361 . S
C406 C407 1.369 . S
C407 C406 1.369 . S
C407 C408 1.404 . S
C408 H391 0.940 . S
C408 C407 1.404 . S
C408 C409 1.389 . S
C409 H392 0.939 . S
C409 C404 1.400 . S
C409 C408 1.389 . S
C410 P384 1.819 . S
C410 C411 1.391 . S
C410 C415 1.391 . S
C411 H393 0.941 . S
C411 C410 1.391 . S
C411 C412 1.396 . S
C412 H396 0.939 . S
C412 C411 1.396 . S
C412 C413 1.397 . S
C413 C412 1.397 . S
C413 C414 1.385 . S
C414 H397 0.940 . S
C414 C413 1.385 . S
C414 C415 1.388 . S
C415 H394 0.939 . S
C415 C410 1.391 . S
C415 C414 1.388 . S
P416 O427 1.490 . S
P416 C430 1.812 . S
P416 C436 1.803 . S
P416 C442 1.819 . S
H417 C431 0.941 . S
H418 C432 0.939 . S
H419 C434 0.940 . S
H420 C435 0.940 . S
H421 C437 0.939 . S
H422 C438 0.942 . S
H423 C440 0.940 . S
H424 C441 0.939 1_554 S
H425 C443 0.941 . S
H426 C447 0.939 . S
O427 P416 1.490 . S
H428 C444 0.939 . S
H429 C446 0.940 . S
C430 P416 1.812 . S
C430 C431 1.389 . S
C430 C435 1.391 . S
C431 H417 0.941 . S
C431 C430 1.389 . S
C431 C432 1.397 . S
C432 H418 0.939 . S
C432 C431 1.397 . S
C432 C433 1.378 . S
C433 C432 1.378 . S
C433 C434 1.378 . S
C434 H419 0.940 . S
C434 C433 1.378 . S
C434 C435 1.396 . S
C435 H420 0.940 . S
C435 C430 1.391 . S
C435 C434 1.396 . S
C436 P416 1.803 . S
C436 C437 1.378 . S
C436 C441 1.399 . S
C437 H421 0.939 . S
C437 C436 1.378 . S
C437 C438 1.361 . S
C438 H422 0.942 . S
C438 C437 1.361 . S
C438 C439 1.369 1_556 S
C439 C438 1.369 1_554 S
C439 C440 1.404 . S
C440 H423 0.940 . S
C440 C439 1.404 . S
C440 C441 1.390 1_554 S
C441 H424 0.939 1_556 S
C441 C436 1.399 . S
C441 C440 1.390 1_556 S
C442 P416 1.819 . S
C442 C443 1.391 . S
C442 C447 1.391 . S
C443 H425 0.941 . S
C443 C442 1.391 . S
C443 C444 1.396 . S
C444 H428 0.939 . S
C444 C443 1.396 . S
C444 C445 1.397 . S
C445 C444 1.397 . S
C445 C446 1.385 . S
C446 H429 0.940 . S
C446 C445 1.385 . S
C446 C447 1.388 . S
C447 H426 0.939 . S
C447 C442 1.391 . S
C447 C446 1.388 . S
P448 O459 1.490 . S
P448 C462 1.812 . S
P448 C468 1.803 . S
P448 C474 1.819 . S
H449 C463 0.941 . S
H450 C464 0.939 . S
H451 C466 0.940 . S
H452 C467 0.940 . S
H453 C469 0.939 . S
H454 C470 0.942 . S
H455 C472 0.940 . S
H456 C473 0.939 . S
H457 C475 0.941 . S
H458 C479 0.939 . S
O459 P448 1.490 . S
H460 C476 0.939 . S
H461 C478 0.940 . S
C462 P448 1.812 . S
C462 C463 1.389 . S
C462 C467 1.391 . S
C463 H449 0.941 . S
C463 C462 1.389 . S
C463 C464 1.397 . S
C464 H450 0.939 . S
C464 C463 1.397 . S
C464 C465 1.378 . S
C465 C464 1.378 . S
C465 C466 1.378 . S
C466 H451 0.940 . S
C466 C465 1.378 . S
C466 C467 1.396 . S
C467 H452 0.940 . S
C467 C462 1.391 . S
C467 C466 1.396 . S
C468 P448 1.803 . S
C468 C469 1.378 . S
C468 C473 1.400 . S
C469 H453 0.939 . S
C469 C468 1.378 . S
C469 C470 1.361 . S
C470 H454 0.942 . S
C470 C469 1.361 . S
C470 C471 1.369 . S
C471 C470 1.369 . S
C471 C472 1.404 . S
C472 H455 0.940 . S
C472 C471 1.404 . S
C472 C473 1.389 . S
C473 H456 0.939 . S
C473 C468 1.400 . S
C473 C472 1.389 . S
C474 P448 1.819 . S
C474 C475 1.391 . S
C474 C479 1.391 . S
C475 H457 0.941 . S
C475 C474 1.391 . S
C475 C476 1.396 . S
C476 H460 0.939 . S
C476 C475 1.396 . S
C476 C477 1.397 . S
C477 C476 1.397 . S
C477 C478 1.385 . S
C478 H461 0.940 . S
C478 C477 1.385 . S
C478 C479 1.388 . S
C479 H458 0.939 . S
C479 C474 1.391 . S
C479 C478 1.388 . S
P480 O491 1.490 1_556 S
P480 C494 1.812 . S
P480 C500 1.803 1_556 S
P480 C506 1.819 . S
H481 C495 0.941 . S
H482 C496 0.939 . S
H483 C498 0.940 . S
H484 C499 0.940 . S
H485 C501 0.939 . S
H486 C502 0.942 . S
H487 C504 0.940 1_556 S
H488 C505 0.939 . S
H489 C507 0.941 . S
H490 C511 0.939 1_554 S
O491 P480 1.490 1_554 S
H492 C508 0.939 . S
H493 C510 0.940 . S
C494 P480 1.812 . S
C494 C495 1.389 . S
C494 C499 1.391 . S
C495 H481 0.941 . S
C495 C494 1.389 . S
C495 C496 1.397 . S
C496 H482 0.939 . S
C496 C495 1.397 . S
C496 C497 1.378 . S
C497 C496 1.378 . S
C497 C498 1.378 . S
C498 H483 0.940 . S
C498 C497 1.378 . S
C498 C499 1.396 . S
C499 H484 0.940 . S
C499 C494 1.391 . S
C499 C498 1.396 . S
C500 P480 1.803 1_554 S
C500 C501 1.378 . S
C500 C505 1.400 1_554 S
C501 H485 0.939 . S
C501 C500 1.378 . S
C501 C502 1.361 . S
C502 H486 0.942 . S
C502 C501 1.361 . S
C502 C503 1.369 . S
C503 C502 1.369 . S
C503 C504 1.404 . S
C504 H487 0.940 1_554 S
C504 C503 1.404 . S
C504 C505 1.389 1_554 S
C505 H488 0.939 . S
C505 C500 1.400 1_556 S
C505 C504 1.389 1_556 S
C506 P480 1.819 . S
C506 C507 1.391 1_545 S
C506 C511 1.391 . S
C507 H489 0.941 . S
C507 C506 1.391 1_565 S
C507 C508 1.396 . S
C508 H492 0.939 . S
C508 C507 1.396 . S
C508 C509 1.397 . S
C509 C508 1.397 . S
C509 C510 1.385 1_565 S
C510 H493 0.940 . S
C510 C509 1.385 1_545 S
C510 C511 1.388 . S
C511 H490 0.939 1_556 S
C511 C506 1.391 . S
C511 C510 1.388 . S
Mn512 O517 2.095 . S
Mn512 O527 2.162 . S
Mn512 O528 2.297 . S
Mn512 O536 2.385 1_554 S
Mn512 O537 2.209 1_554 S
Mn512 O538 2.094 . S
Mn513 O518 2.121 . S
Mn513 N520 2.257 . S
Mn513 N529 2.282 . S
Mn513 O537 2.215 . S
Mn513 O539 2.117 . S
C514 O536 1.234 . S
C514 O537 1.283 . S
C515 O527 1.281 . S
C515 O528 1.236 . S
C516 O538 1.240 . S
C516 O539 1.264 1_554 S
O517 Mn512 2.095 . S
O517 C526 1.246 . S
O518 Mn513 2.121 . S
O518 C526 1.264 1_556 S
C519 N520 1.326 . S
C519 C523 1.460 . S
C519 H525 0.929 . S
N520 Mn513 2.257 . S
N520 C519 1.326 . S
N520 C524 1.362 . S
C521 C522 1.258 . S
C521 C524 1.431 . S
C521 C541 1.449 . S
C522 C521 1.258 . S
C522 C523 1.477 . S
C522 H542 0.931 . S
C523 C519 1.460 . S
C523 C522 1.477 . S
C523 H543 0.930 . S
C524 N520 1.362 . S
C524 C521 1.431 . S
C524 C534 1.476 . S
H525 C519 0.929 . S
C526 O517 1.246 . S
C526 O518 1.264 1_554 S
O527 Mn512 2.162 . S
O527 C515 1.281 . S
O528 Mn512 2.297 . S
O528 C515 1.236 . S
N529 Mn513 2.282 . S
N529 C530 1.328 . S
N529 C534 1.318 . S
C530 N529 1.328 . S
C530 C531 1.457 . S
C530 H535 0.929 . S
C531 C530 1.457 . S
C531 C532 1.291 . S
C531 H544 0.931 . S
C532 C531 1.291 . S
C532 C533 1.373 . S
C532 H545 0.929 . S
C533 C532 1.373 . S
C533 C534 1.396 . S
C533 C540 1.403 . S
C534 C524 1.476 . S
C534 N529 1.318 . S
C534 C533 1.396 . S
H535 C530 0.929 . S
O536 Mn512 2.385 1_556 S
O536 C514 1.234 . S
O537 Mn512 2.209 1_556 S
O537 Mn513 2.215 . S
O537 C514 1.283 . S
O538 Mn512 2.094 . S
O538 C516 1.240 . S
O539 Mn513 2.117 . S
O539 C516 1.264 1_556 S
C540 C533 1.403 . S
C540 C541 1.399 . S
C540 H546 0.929 . S
C541 C521 1.449 . S
C541 C540 1.399 . S
C541 H547 0.930 . S
H542 C522 0.931 . S
H543 C523 0.930 . S
H544 C531 0.931 . S
H545 C532 0.929 . S
H546 C540 0.929 . S
H547 C541 0.930 . S
Mn548 O553 2.095 . S
Mn548 O563 2.162 . S
Mn548 O564 2.297 . S
Mn548 O572 2.385 . S
Mn548 O573 2.209 . S
Mn548 O574 2.094 . S
Mn549 O554 2.121 . S
Mn549 N556 2.257 . S
Mn549 N565 2.282 . S
Mn549 O573 2.215 . S
Mn549 O575 2.117 . S
C550 O572 1.234 . S
C550 O573 1.283 . S
C551 O563 1.281 . S
C551 O564 1.236 . S
C552 O574 1.240 . S
C552 O575 1.264 . S
O553 Mn548 2.095 . S
O553 C562 1.250 . S
O554 Mn549 2.121 . S
O554 C562 1.258 . S
C555 N556 1.326 . S
C555 C559 1.460 . S
C555 H561 0.929 . S
N556 Mn549 2.257 . S
N556 C555 1.326 . S
N556 C560 1.362 . S
C557 C558 1.258 . S
C557 C560 1.431 . S
C557 C577 1.449 . S
C558 C557 1.258 . S
C558 C559 1.477 . S
C558 H578 0.931 . S
C559 C555 1.460 . S
C559 C558 1.477 . S
C559 H579 0.930 . S
C560 N556 1.362 . S
C560 C557 1.431 . S
C560 C570 1.476 . S
H561 C555 0.929 . S
C562 O553 1.250 . S
C562 O554 1.258 . S
O563 Mn548 2.162 . S
O563 C551 1.281 . S
O564 Mn548 2.297 . S
O564 C551 1.236 . S
N565 Mn549 2.282 . S
N565 C566 1.328 . S
N565 C570 1.318 . S
C566 N565 1.328 . S
C566 C567 1.457 . S
C566 H571 0.929 . S
C567 C566 1.457 . S
C567 C568 1.291 . S
C567 H580 0.931 . S
C568 C567 1.291 . S
C568 C569 1.373 . S
C568 H581 0.929 . S
C569 C568 1.373 . S
C569 C570 1.396 . S
C569 C576 1.403 . S
C570 C560 1.476 . S
C570 N565 1.318 . S
C570 C569 1.396 . S
H571 C566 0.929 . S
O572 Mn548 2.385 . S
O572 C550 1.234 . S
O573 Mn548 2.209 . S
O573 Mn549 2.215 . S
O573 C550 1.283 . S
O574 Mn548 2.094 . S
O574 C552 1.240 . S
O575 Mn549 2.117 . S
O575 C552 1.264 . S
C576 C569 1.403 . S
C576 C577 1.399 . S
C576 H582 0.929 . S
C577 C557 1.449 . S
C577 C576 1.399 . S
C577 H583 0.930 . S
H578 C558 0.931 . S
H579 C559 0.930 . S
H580 C567 0.931 . S
H581 C568 0.929 . S
H582 C576 0.929 . S
H583 C577 0.930 . S
Mn584 O589 2.095 1_554 S
Mn584 O599 2.162 . S
Mn584 O600 2.297 1_554 S
Mn584 O608 2.385 . S
Mn584 O609 2.209 1_554 S
Mn584 O610 2.094 . S
Mn585 O590 2.121 . S
Mn585 N592 2.257 . S
Mn585 N601 2.282 . S
Mn585 O609 2.215 . S
Mn585 O611 2.117 1_556 S
C586 O608 1.238 . S
C586 O609 1.280 1_554 S
C587 O599 1.281 . S
C587 O600 1.236 1_554 S
C588 O610 1.240 . S
C588 O611 1.264 . S
O589 Mn584 2.095 1_556 S
O589 C598 1.250 . S
O590 Mn585 2.121 . S
O590 C598 1.258 . S
C591 N592 1.326 . S
C591 C595 1.460 . S
C591 H597 0.929 . S
N592 Mn585 2.257 . S
N592 C591 1.326 . S
N592 C596 1.362 . S
C593 C594 1.258 . S
C593 C596 1.431 . S
C593 C613 1.449 . S
C594 C593 1.258 . S
C594 C595 1.477 . S
C594 H614 0.931 . S
C595 C591 1.460 . S
C595 C594 1.477 . S
C595 H615 0.930 . S
C596 N592 1.362 . S
C596 C593 1.431 . S
C596 C606 1.476 . S
H597 C591 0.929 . S
C598 O589 1.250 . S
C598 O590 1.258 . S
O599 Mn584 2.162 . S
O599 C587 1.281 . S
O600 Mn584 2.297 1_556 S
O600 C587 1.236 1_556 S
N601 Mn585 2.282 . S
N601 C602 1.328 1_556 S
N601 C606 1.318 . S
C602 N601 1.328 1_554 S
C602 C603 1.457 . S
C602 H607 0.929 . S
C603 C602 1.457 . S
C603 C604 1.291 . S
C603 H616 0.931 . S
C604 C603 1.291 . S
C604 C605 1.373 1_554 S
C604 H617 0.929 . S
C605 C604 1.373 1_556 S
C605 C606 1.396 . S
C605 C612 1.403 . S
C606 C596 1.476 . S
C606 N601 1.318 . S
C606 C605 1.396 . S
H607 C602 0.929 . S
O608 Mn584 2.385 . S
O608 C586 1.238 . S
O609 Mn584 2.209 1_556 S
O609 Mn585 2.215 . S
O609 C586 1.280 1_556 S
O610 Mn584 2.094 . S
O610 C588 1.240 . S
O611 Mn585 2.117 1_554 S
O611 C588 1.264 . S
C612 C605 1.403 . S
C612 C613 1.399 . S
C612 H618 0.929 . S
C613 C593 1.449 . S
C613 C612 1.399 . S
C613 H619 0.930 . S
H614 C594 0.931 . S
H615 C595 0.930 . S
H616 C603 0.931 . S
H617 C604 0.929 . S
H618 C612 0.929 . S
H619 C613 0.930 . S
Mn620 O625 2.095 . S
Mn620 O635 2.162 . S
Mn620 O636 2.297 . S
Mn620 O644 2.385 1_545 S
Mn620 O645 2.209 1_545 S
Mn620 O646 2.094 . S
Mn621 O626 2.121 . S
Mn621 N628 2.257 . S
Mn621 N637 2.282 . S
Mn621 O645 2.215 . S
Mn621 O647 2.117 . S
C622 O644 1.234 . S
C622 O645 1.283 . S
C623 O635 1.281 . S
C623 O636 1.236 . S
C624 O646 1.240 . S
C624 O647 1.264 1_545 S
O625 Mn620 2.095 . S
O625 C634 1.250 1_545 S
O626 Mn621 2.121 . S
O626 C634 1.258 . S
C627 N628 1.326 . S
C627 C631 1.460 . S
C627 H633 0.929 . S
N628 Mn621 2.257 . S
N628 C627 1.326 . S
N628 C632 1.362 . S
C629 C630 1.258 . S
C629 C632 1.431 . S
C629 C649 1.449 . S
C630 C629 1.258 . S
C630 C631 1.477 . S
C630 H650 0.931 . S
C631 C627 1.460 . S
C631 C630 1.477 . S
C631 H651 0.930 . S
C632 N628 1.362 . S
C632 C629 1.431 . S
C632 C642 1.476 . S
H633 C627 0.929 . S
C634 O625 1.250 1_565 S
C634 O626 1.258 . S
O635 Mn620 2.162 . S
O635 C623 1.281 . S
O636 Mn620 2.297 . S
O636 C623 1.236 . S
N637 Mn621 2.282 . S
N637 C638 1.328 . S
N637 C642 1.318 . S
C638 N637 1.328 . S
C638 C639 1.457 . S
C638 H643 0.929 . S
C639 C638 1.457 . S
C639 C640 1.291 . S
C639 H652 0.931 . S
C640 C639 1.291 . S
C640 C641 1.373 . S
C640 H653 0.929 . S
C641 C640 1.373 . S
C641 C642 1.396 . S
C641 C648 1.403 . S
C642 C632 1.476 . S
C642 N637 1.318 . S
C642 C641 1.396 . S
H643 C638 0.929 . S
O644 Mn620 2.385 1_565 S
O644 C622 1.234 . S
O645 Mn620 2.209 1_565 S
O645 Mn621 2.215 . S
O645 C622 1.283 . S
O646 Mn620 2.094 . S
O646 C624 1.240 . S
O647 Mn621 2.117 . S
O647 C624 1.264 1_565 S
C648 C641 1.403 . S
C648 C649 1.399 . S
C648 H654 0.929 . S
C649 C629 1.449 . S
C649 C648 1.399 . S
C649 H655 0.930 . S
H650 C630 0.931 . S
H651 C631 0.930 . S
H652 C639 0.931 . S
H653 C640 0.929 . S
H654 C648 0.929 . S
H655 C649 0.930 . S
Mn656 O661 2.095 . S
Mn656 O671 2.162 . S
Mn656 O672 2.297 . S
Mn656 O680 2.385 . S
Mn656 O681 2.209 . S
Mn656 O682 2.094 . S
Mn657 O662 2.121 . S
Mn657 N664 2.257 . S
Mn657 N673 2.282 . S
Mn657 O681 2.215 . S
Mn657 O683 2.117 . S
C658 O680 1.234 . S
C658 O681 1.283 . S
C659 O671 1.281 . S
C659 O672 1.236 . S
C660 O682 1.240 . S
C660 O683 1.264 . S
O661 Mn656 2.095 . S
O661 C670 1.250 . S
O662 Mn657 2.121 . S
O662 C670 1.258 . S
C663 N664 1.326 . S
C663 C667 1.460 . S
C663 H669 0.929 . S
N664 Mn657 2.257 . S
N664 C663 1.326 . S
N664 C668 1.362 . S
C665 C666 1.258 . S
C665 C668 1.431 . S
C665 C685 1.449 . S
C666 C665 1.258 . S
C666 C667 1.477 . S
C666 H686 0.931 . S
C667 C663 1.460 . S
C667 C666 1.477 . S
C667 H687 0.930 . S
C668 N664 1.362 . S
C668 C665 1.431 . S
C668 C678 1.476 . S
H669 C663 0.929 . S
C670 O661 1.250 . S
C670 O662 1.258 . S
O671 Mn656 2.162 . S
O671 C659 1.281 . S
O672 Mn656 2.297 . S
O672 C659 1.236 . S
N673 Mn657 2.282 . S
N673 C674 1.328 . S
N673 C678 1.318 . S
C674 N673 1.328 . S
C674 C675 1.457 . S
C674 H679 0.929 . S
C675 C674 1.457 . S
C675 C676 1.291 . S
C675 H688 0.931 . S
C676 C675 1.291 . S
C676 C677 1.373 . S
C676 H689 0.929 . S
C677 C676 1.373 . S
C677 C678 1.396 . S
C677 C684 1.403 . S
C678 C668 1.476 . S
C678 N673 1.318 . S
C678 C677 1.396 . S
H679 C674 0.929 . S
O680 Mn656 2.385 . S
O680 C658 1.234 . S
O681 Mn656 2.209 . S
O681 Mn657 2.215 . S
O681 C658 1.283 . S
O682 Mn656 2.094 . S
O682 C660 1.240 . S
O683 Mn657 2.117 . S
O683 C660 1.264 . S
C684 C677 1.403 . S
C684 C685 1.399 . S
C684 H690 0.929 . S
C685 C665 1.449 . S
C685 C684 1.399 . S
C685 H691 0.930 . S
H686 C666 0.931 . S
H687 C667 0.930 . S
H688 C675 0.931 . S
H689 C676 0.929 . S
H690 C684 0.929 . S
H691 C685 0.930 . S
Mn692 O697 2.095 . S
Mn692 O707 2.162 . S
Mn692 O708 2.297 . S
Mn692 O716 2.385 . S
Mn692 O717 2.209 . S
Mn692 O718 2.094 . S
Mn693 O698 2.121 . S
Mn693 N700 2.257 . S
Mn693 N709 2.282 . S
Mn693 O717 2.215 . S
Mn693 O719 2.117 . S
C694 O716 1.234 . S
C694 O717 1.283 . S
C695 O707 1.281 . S
C695 O708 1.236 . S
C696 O718 1.240 . S
C696 O719 1.264 . S
O697 Mn692 2.095 . S
O697 C706 1.250 . S
O698 Mn693 2.121 . S
O698 C706 1.258 . S
C699 N700 1.326 . S
C699 C703 1.460 . S
C699 H705 0.929 . S
N700 Mn693 2.257 . S
N700 C699 1.326 . S
N700 C704 1.362 . S
C701 C702 1.258 . S
C701 C704 1.431 . S
C701 C721 1.449 . S
C702 C701 1.258 . S
C702 C703 1.477 . S
C702 H722 0.931 . S
C703 C699 1.460 . S
C703 C702 1.477 . S
C703 H723 0.930 . S
C704 N700 1.362 . S
C704 C701 1.431 . S
C704 C714 1.476 . S
H705 C699 0.929 . S
C706 O697 1.250 . S
C706 O698 1.258 . S
O707 Mn692 2.162 . S
O707 C695 1.281 . S
O708 Mn692 2.297 . S
O708 C695 1.236 . S
N709 Mn693 2.282 . S
N709 C710 1.328 . S
N709 C714 1.318 . S
C710 N709 1.328 . S
C710 C711 1.457 . S
C710 H715 0.929 . S
C711 C710 1.457 . S
C711 C712 1.291 . S
C711 H724 0.931 . S
C712 C711 1.291 . S
C712 C713 1.373 . S
C712 H725 0.929 . S
C713 C712 1.373 . S
C713 C714 1.396 . S
C713 C720 1.403 . S
C714 C704 1.476 . S
C714 N709 1.318 . S
C714 C713 1.396 . S
H715 C710 0.929 . S
O716 Mn692 2.385 . S
O716 C694 1.234 . S
O717 Mn692 2.209 . S
O717 Mn693 2.215 . S
O717 C694 1.283 . S
O718 Mn692 2.094 . S
O718 C696 1.240 . S
O719 Mn693 2.117 . S
O719 C696 1.264 . S
C720 C713 1.403 . S
C720 C721 1.399 . S
C720 H726 0.929 . S
C721 C701 1.449 . S
C721 C720 1.399 . S
C721 H727 0.930 . S
H722 C702 0.931 . S
H723 C703 0.930 . S
H724 C711 0.931 . S
H725 C712 0.929 . S
H726 C720 0.929 . S
H727 C721 0.930 . S
Mn728 O733 2.095 . S
Mn728 O743 2.162 . S
Mn728 O744 2.297 . S
Mn728 O752 2.385 . S
Mn728 O753 2.209 . S
Mn728 O754 2.094 . S
Mn729 O734 2.121 . S
Mn729 N736 2.257 . S
Mn729 N745 2.282 . S
Mn729 O753 2.215 . S
Mn729 O755 2.117 . S
C730 O752 1.234 . S
C730 O753 1.283 . S
C731 O743 1.281 . S
C731 O744 1.236 . S
C732 O754 1.240 . S
C732 O755 1.264 . S
O733 Mn728 2.095 . S
O733 C742 1.250 . S
O734 Mn729 2.121 . S
O734 C742 1.258 . S
C735 N736 1.326 . S
C735 C739 1.460 . S
C735 H741 0.929 . S
N736 Mn729 2.257 . S
N736 C735 1.326 . S
N736 C740 1.362 . S
C737 C738 1.258 . S
C737 C740 1.431 . S
C737 C757 1.449 . S
C738 C737 1.258 . S
C738 C739 1.477 . S
C738 H758 0.931 . S
C739 C735 1.460 . S
C739 C738 1.477 . S
C739 H759 0.930 . S
C740 N736 1.362 . S
C740 C737 1.431 . S
C740 C750 1.476 . S
H741 C735 0.929 . S
C742 O733 1.250 . S
C742 O734 1.258 . S
O743 Mn728 2.162 . S
O743 C731 1.281 . S
O744 Mn728 2.297 . S
O744 C731 1.236 . S
N745 Mn729 2.282 . S
N745 C746 1.328 . S
N745 C750 1.318 . S
C746 N745 1.328 . S
C746 C747 1.457 . S
C746 H751 0.929 . S
C747 C746 1.457 . S
C747 C748 1.291 . S
C747 H760 0.931 . S
C748 C747 1.291 . S
C748 C749 1.373 . S
C748 H761 0.929 . S
C749 C748 1.373 . S
C749 C750 1.396 . S
C749 C756 1.403 . S
C750 C740 1.476 . S
C750 N745 1.318 . S
C750 C749 1.396 . S
H751 C746 0.929 . S
O752 Mn728 2.385 . S
O752 C730 1.234 . S
O753 Mn728 2.209 . S
O753 Mn729 2.215 . S
O753 C730 1.283 . S
O754 Mn728 2.094 . S
O754 C732 1.240 . S
O755 Mn729 2.117 . S
O755 C732 1.264 . S
C756 C749 1.403 . S
C756 C757 1.399 . S
C756 H762 0.929 . S
C757 C737 1.449 . S
C757 C756 1.399 . S
C757 H763 0.930 . S
H758 C738 0.931 . S
H759 C739 0.930 . S
H760 C747 0.931 . S
H761 C748 0.929 . S
H762 C756 0.929 . S
H763 C757 0.930 . S
Mn764 O769 2.095 . S
Mn764 O779 2.162 . S
Mn764 O780 2.297 . S
Mn764 O788 2.385 1_565 S
Mn764 O789 2.209 1_565 S
Mn764 O790 2.094 . S
Mn765 O770 2.121 . S
Mn765 N772 2.257 . S
Mn765 N781 2.282 . S
Mn765 O789 2.215 . S
Mn765 O791 2.117 . S
C766 O788 1.234 . S
C766 O789 1.283 . S
C767 O779 1.281 . S
C767 O780 1.236 . S
C768 O790 1.208 1_545 S
C768 O791 1.306 . S
O769 Mn764 2.095 . S
O769 C778 1.250 1_565 S
O770 Mn765 2.121 . S
O770 C778 1.258 . S
C771 N772 1.326 . S
C771 C775 1.460 . S
C771 H777 0.929 . S
N772 Mn765 2.257 . S
N772 C771 1.326 . S
N772 C776 1.362 . S
C773 C774 1.258 . S
C773 C776 1.431 . S
C773 C793 1.449 . S
C774 C773 1.258 . S
C774 C775 1.477 . S
C774 H794 0.931 . S
C775 C771 1.460 . S
C775 C774 1.477 . S
C775 H795 0.930 . S
C776 N772 1.362 . S
C776 C773 1.431 . S
C776 C786 1.476 . S
H777 C771 0.929 . S
C778 O769 1.250 1_545 S
C778 O770 1.258 . S
O779 Mn764 2.162 . S
O779 C767 1.281 . S
O780 Mn764 2.297 . S
O780 C767 1.236 . S
N781 Mn765 2.282 . S
N781 C782 1.328 . S
N781 C786 1.318 . S
C782 N781 1.328 . S
C782 C783 1.457 . S
C782 H787 0.929 . S
C783 C782 1.457 . S
C783 C784 1.291 . S
C783 H796 0.931 . S
C784 C783 1.291 . S
C784 C785 1.373 . S
C784 H797 0.929 . S
C785 C784 1.373 . S
C785 C786 1.396 . S
C785 C792 1.403 . S
C786 C776 1.476 . S
C786 N781 1.318 . S
C786 C785 1.396 . S
H787 C782 0.929 . S
O788 Mn764 2.385 1_545 S
O788 C766 1.234 . S
O789 Mn764 2.209 1_545 S
O789 Mn765 2.215 . S
O789 C766 1.283 . S
O790 Mn764 2.094 . S
O790 C768 1.208 1_565 S
O791 Mn765 2.117 . S
O791 C768 1.306 . S
C792 C785 1.403 . S
C792 C793 1.399 . S
C792 H798 0.929 . S
C793 C773 1.449 . S
C793 C792 1.399 . S
C793 H799 0.930 . S
H794 C774 0.931 . S
H795 C775 0.930 . S
H796 C783 0.931 . S
H797 C784 0.929 . S
H798 C792 0.929 . S
H799 C793 0.930 . S
Mn800 O805 2.095 . S
Mn800 O815 2.162 . S
Mn800 O816 2.297 . S
Mn800 O824 2.385 1_455 S
Mn800 O825 2.209 1_455 S
Mn800 O826 2.094 . S
Mn801 O806 2.121 . S
Mn801 N808 2.257 . S
Mn801 N817 2.282 . S
Mn801 O825 2.215 . S
Mn801 O827 2.117 . S
C802 O824 1.234 . S
C802 O825 1.283 . S
C803 O815 1.281 . S
C803 O816 1.236 . S
C804 O826 1.240 . S
C804 O827 1.264 1_455 S
O805 Mn800 2.095 . S
O805 C814 1.250 1_455 S
O806 Mn801 2.121 . S
O806 C814 1.258 . S
C807 N808 1.326 . S
C807 C811 1.460 . S
C807 H813 0.929 . S
N808 Mn801 2.257 . S
N808 C807 1.326 . S
N808 C812 1.362 . S
C809 C810 1.258 . S
C809 C812 1.431 . S
C809 C829 1.449 . S
C810 C809 1.258 . S
C810 C811 1.477 . S
C810 H830 0.931 . S
C811 C807 1.460 . S
C811 C810 1.477 . S
C811 H831 0.930 . S
C812 N808 1.362 . S
C812 C809 1.431 . S
C812 C822 1.476 . S
H813 C807 0.929 . S
C814 O805 1.250 1_655 S
C814 O806 1.258 . S
O815 Mn800 2.162 . S
O815 C803 1.281 . S
O816 Mn800 2.297 . S
O816 C803 1.236 . S
N817 Mn801 2.282 . S
N817 C818 1.328 . S
N817 C822 1.318 . S
C818 N817 1.328 . S
C818 C819 1.457 . S
C818 H823 0.929 . S
C819 C818 1.457 . S
C819 C820 1.291 . S
C819 H832 0.931 . S
C820 C819 1.291 . S
C820 C821 1.373 . S
C820 H833 0.929 . S
C821 C820 1.373 . S
C821 C822 1.396 . S
C821 C828 1.403 . S
C822 C812 1.476 . S
C822 N817 1.318 . S
C822 C821 1.396 . S
H823 C818 0.929 . S
O824 Mn800 2.385 1_655 S
O824 C802 1.234 . S
O825 Mn800 2.209 1_655 S
O825 Mn801 2.215 . S
O825 C802 1.283 . S
O826 Mn800 2.094 . S
O826 C804 1.240 . S
O827 Mn801 2.117 . S
O827 C804 1.264 1_655 S
C828 C821 1.403 . S
C828 C829 1.399 . S
C828 H834 0.929 . S
C829 C809 1.449 . S
C829 C828 1.399 . S
C829 H835 0.930 . S
H830 C810 0.931 . S
H831 C811 0.930 . S
H832 C819 0.931 . S
H833 C820 0.929 . S
H834 C828 0.929 . S
H835 C829 0.930 . S
Mn836 O841 2.095 . S
Mn836 O851 2.162 . S
Mn836 O852 2.297 . S
Mn836 O860 2.385 . S
Mn836 O861 2.209 . S
Mn836 O862 2.094 . S
Mn837 O842 2.121 . S
Mn837 N844 2.257 . S
Mn837 N853 2.282 . S
Mn837 O861 2.215 . S
Mn837 O863 2.117 . S
C838 O860 1.234 . S
C838 O861 1.283 . S
C839 O851 1.281 . S
C839 O852 1.236 . S
C840 O862 1.240 . S
C840 O863 1.264 . S
O841 Mn836 2.095 . S
O841 C850 1.250 . S
O842 Mn837 2.121 . S
O842 C850 1.258 . S
C843 N844 1.326 . S
C843 C847 1.460 . S
C843 H849 0.929 . S
N844 Mn837 2.257 . S
N844 C843 1.326 . S
N844 C848 1.362 . S
C845 C846 1.258 . S
C845 C848 1.431 . S
C845 C865 1.449 . S
C846 C845 1.258 . S
C846 C847 1.477 . S
C846 H866 0.931 . S
C847 C843 1.460 . S
C847 C846 1.477 . S
C847 H867 0.930 . S
C848 N844 1.362 . S
C848 C845 1.431 . S
C848 C858 1.476 . S
H849 C843 0.929 . S
C850 O841 1.250 . S
C850 O842 1.258 . S
O851 Mn836 2.162 . S
O851 C839 1.281 . S
O852 Mn836 2.297 . S
O852 C839 1.236 . S
N853 Mn837 2.282 . S
N853 C854 1.328 . S
N853 C858 1.318 . S
C854 N853 1.328 . S
C854 C855 1.457 . S
C854 H859 0.929 . S
C855 C854 1.457 . S
C855 C856 1.291 . S
C855 H868 0.931 . S
C856 C855 1.291 . S
C856 C857 1.373 . S
C856 H869 0.929 . S
C857 C856 1.373 . S
C857 C858 1.396 . S
C857 C864 1.403 . S
C858 C848 1.476 . S
C858 N853 1.318 . S
C858 C857 1.396 . S
H859 C854 0.929 . S
O860 Mn836 2.385 . S
O860 C838 1.234 . S
O861 Mn836 2.209 . S
O861 Mn837 2.215 . S
O861 C838 1.283 . S
O862 Mn836 2.094 . S
O862 C840 1.240 . S
O863 Mn837 2.117 . S
O863 C840 1.264 . S
C864 C857 1.403 . S
C864 C865 1.399 . S
C864 H870 0.929 . S
C865 C845 1.449 . S
C865 C864 1.399 . S
C865 H871 0.930 . S
H866 C846 0.931 . S
H867 C847 0.930 . S
H868 C855 0.931 . S
H869 C856 0.929 . S
H870 C864 0.929 . S
H871 C865 0.930 . S
Mn872 O877 2.095 1_455 S
Mn872 O887 2.162 . S
Mn872 O888 2.297 1_455 S
Mn872 O896 2.385 . S
Mn872 O897 2.209 1_455 S
Mn872 O898 2.094 . S
Mn873 O878 2.121 . S
Mn873 N880 2.257 . S
Mn873 N889 2.290 . S
Mn873 O897 2.215 . S
Mn873 O899 2.117 1_655 S
C874 O896 1.234 . S
C874 O897 1.283 1_455 S
C875 O887 1.281 . S
C875 O888 1.236 1_455 S
C876 O898 1.240 . S
C876 O899 1.264 . S
O877 Mn872 2.095 1_655 S
O877 C886 1.250 . S
O878 Mn873 2.121 . S
O878 C886 1.258 . S
C879 N880 1.326 . S
C879 C883 1.460 . S
C879 H885 0.929 . S
N880 Mn873 2.257 . S
N880 C879 1.326 . S
N880 C884 1.362 . S
C881 C882 1.258 . S
C881 C884 1.431 . S
C881 C901 1.449 . S
C882 C881 1.258 . S
C882 C883 1.477 . S
C882 H902 0.931 . S
C883 C879 1.460 . S
C883 C882 1.477 . S
C883 H903 0.930 . S
C884 N880 1.362 . S
C884 C881 1.431 . S
C884 C894 1.476 . S
H885 C879 0.929 . S
C886 O877 1.250 . S
C886 O878 1.258 . S
O887 Mn872 2.162 . S
O887 C875 1.281 . S
O888 Mn872 2.297 1_655 S
O888 C875 1.236 1_655 S
N889 Mn873 2.290 . S
N889 C890 1.307 1_655 S
N889 C894 1.331 . S
C890 N889 1.307 1_455 S
C890 C891 1.457 . S
C890 H895 0.929 . S
C891 C890 1.457 . S
C891 C892 1.291 . S
C891 H904 0.931 . S
C892 C891 1.291 . S
C892 C893 1.373 1_455 S
C892 H905 0.929 . S
C893 C892 1.373 1_655 S
C893 C894 1.396 . S
C893 C900 1.403 . S
C894 C884 1.476 . S
C894 N889 1.331 . S
C894 C893 1.396 . S
H895 C890 0.929 . S
O896 Mn872 2.385 . S
O896 C874 1.234 . S
O897 Mn872 2.209 1_655 S
O897 Mn873 2.215 . S
O897 C874 1.283 1_655 S
O898 Mn872 2.094 . S
O898 C876 1.240 . S
O899 Mn873 2.117 1_455 S
O899 C876 1.264 . S
C900 C893 1.403 . S
C900 C901 1.399 . S
C900 H906 0.929 . S
C901 C881 1.449 . S
C901 C900 1.399 . S
C901 H907 0.930 . S
H902 C882 0.931 . S
H903 C883 0.930 . S
H904 C891 0.931 . S
H905 C892 0.929 . S
H906 C900 0.929 . S
H907 C901 0.930 . S
Mn908 O913 2.095 . S
Mn908 O923 2.162 . S
Mn908 O924 2.297 . S
Mn908 O932 2.385 . S
Mn908 O933 2.209 . S
Mn908 O934 2.094 . S
Mn909 O914 2.121 . S
Mn909 N916 2.257 . S
Mn909 N925 2.282 . S
Mn909 O933 2.215 . S
Mn909 O935 2.117 . S
C910 O932 1.234 . S
C910 O933 1.283 . S
C911 O923 1.281 . S
C911 O924 1.236 . S
C912 O934 1.240 . S
C912 O935 1.264 . S
O913 Mn908 2.095 . S
O913 C922 1.250 . S
O914 Mn909 2.121 . S
O914 C922 1.258 . S
C915 N916 1.326 . S
C915 C919 1.460 . S
C915 H921 0.929 . S
N916 Mn909 2.257 . S
N916 C915 1.326 . S
N916 C920 1.362 . S
C917 C918 1.258 . S
C917 C920 1.431 . S
C917 C937 1.449 . S
C918 C917 1.258 . S
C918 C919 1.477 . S
C918 H938 0.931 . S
C919 C915 1.460 . S
C919 C918 1.477 . S
C919 H939 0.930 . S
C920 N916 1.362 . S
C920 C917 1.431 . S
C920 C930 1.476 . S
H921 C915 0.929 . S
C922 O913 1.250 . S
C922 O914 1.258 . S
O923 Mn908 2.162 . S
O923 C911 1.281 . S
O924 Mn908 2.297 . S
O924 C911 1.236 . S
N925 Mn909 2.282 . S
N925 C926 1.328 . S
N925 C930 1.318 . S
C926 N925 1.328 . S
C926 C927 1.457 . S
C926 H931 0.929 . S
C927 C926 1.457 . S
C927 C928 1.291 . S
C927 H940 0.931 . S
C928 C927 1.291 . S
C928 C929 1.373 . S
C928 H941 0.929 . S
C929 C928 1.373 . S
C929 C930 1.396 . S
C929 C936 1.403 . S
C930 C920 1.476 . S
C930 N925 1.318 . S
C930 C929 1.396 . S
H931 C926 0.929 . S
O932 Mn908 2.385 . S
O932 C910 1.234 . S
O933 Mn908 2.209 . S
O933 Mn909 2.215 . S
O933 C910 1.283 . S
O934 Mn908 2.094 . S
O934 C912 1.240 . S
O935 Mn909 2.117 . S
O935 C912 1.264 . S
C936 C929 1.403 . S
C936 C937 1.399 . S
C936 H942 0.929 . S
C937 C917 1.449 . S
C937 C936 1.399 . S
C937 H943 0.930 . S
H938 C918 0.931 . S
H939 C919 0.930 . S
H940 C927 0.931 . S
H941 C928 0.929 . S
H942 C936 0.929 . S
H943 C937 0.930 . S
H944 C950 0.930 . S
H945 C953 0.930 . S
H946 C954 0.930 . S
H947 C955 0.930 . S
H948 C958 0.930 . S
H949 C959 0.930 . S
C950 H944 0.930 . S
C950 C951 1.355 . S
C950 C952 1.415 . S
C951 C950 1.355 . S
C951 C953 1.419 . S
C952 C950 1.415 . S
C952 C957 1.425 . S
C952 C959 1.409 . S
C953 H945 0.930 . S
C953 C951 1.419 . S
C953 C954 1.362 . S
C954 H946 0.930 . S
C954 C953 1.362 . S
C954 C957 1.409 . S
C955 H947 0.930 . S
C955 C956 1.355 . S
C955 C957 1.415 . S
C956 C955 1.355 . S
C956 C958 1.419 . S
C957 C952 1.425 . S
C957 C954 1.409 . S
C957 C955 1.415 . S
C958 H948 0.930 . S
C958 C956 1.419 . S
C958 C959 1.362 . S
C959 H949 0.930 . S
C959 C952 1.409 . S
C959 C958 1.362 . S
H960 C966 0.930 . S
H961 C969 0.930 . S
H962 C970 0.930 . S
H963 C971 0.930 . S
H964 C974 0.930 . S
H965 C975 0.930 . S
C966 H960 0.930 . S
C966 C967 1.355 . S
C966 C968 1.415 . S
C967 C966 1.355 . S
C967 C969 1.419 . S
C968 C966 1.415 . S
C968 C973 1.425 . S
C968 C975 1.409 . S
C969 H961 0.930 . S
C969 C967 1.419 . S
C969 C970 1.362 . S
C970 H962 0.930 . S
C970 C969 1.362 . S
C970 C973 1.409 . S
C971 H963 0.930 . S
C971 C972 1.355 . S
C971 C973 1.415 . S
C972 C971 1.355 . S
C972 C974 1.419 . S
C973 C968 1.425 . S
C973 C970 1.409 . S
C973 C971 1.415 . S
C974 H964 0.930 . S
C974 C972 1.419 . S
C974 C975 1.362 . S
C975 H965 0.930 . S
C975 C968 1.409 . S
C975 C974 1.362 . S
H976 C982 0.930 . S
H977 C985 0.930 . S
H978 C986 0.930 . S
H979 C987 0.930 . S
H980 C990 0.930 . S
H981 C991 0.930 . S
C982 H976 0.930 . S
C982 C983 1.355 . S
C982 C984 1.415 . S
C983 C982 1.355 . S
C983 C985 1.419 . S
C984 C982 1.415 . S
C984 C989 1.425 . S
C984 C991 1.409 . S
C985 H977 0.930 . S
C985 C983 1.419 . S
C985 C986 1.362 . S
C986 H978 0.930 . S
C986 C985 1.362 . S
C986 C989 1.409 . S
C987 H979 0.930 . S
C987 C988 1.355 . S
C987 C989 1.415 . S
C988 C987 1.355 . S
C988 C990 1.419 . S
C989 C984 1.425 . S
C989 C986 1.409 . S
C989 C987 1.415 . S
C990 H980 0.930 . S
C990 C988 1.419 . S
C990 C991 1.362 . S
C991 H981 0.930 . S
C991 C984 1.409 . S
C991 C990 1.362 . S
H992 C998 0.939 . S
H993 C1001 0.930 . S
H994 C1002 0.930 . S
H995 C1003 0.930 . S
H996 C1006 0.930 . S
H997 C1007 0.930 . S
C998 H992 0.939 . S
C998 C999 1.345 1_545 S
C998 C1000 1.414 . S
C999 C998 1.345 1_565 S
C999 C1001 1.419 . S
C1000 C998 1.414 . S
C1000 C1005 1.405 1_545 S
C1000 C1007 1.431 . S
C1001 H993 0.930 . S
C1001 C999 1.419 . S
C1001 C1002 1.362 . S
C1002 H994 0.930 . S
C1002 C1001 1.362 . S
C1002 C1005 1.409 . S
C1003 H995 0.930 . S
C1003 C1004 1.327 1_565 S
C1003 C1005 1.415 . S
C1004 C1003 1.327 1_545 S
C1004 C1006 1.445 . S
C1005 C1000 1.405 1_565 S
C1005 C1002 1.409 . S
C1005 C1003 1.415 . S
C1006 H996 0.930 . S
C1006 C1004 1.445 . S
C1006 C1007 1.362 . S
C1007 H997 0.930 . S
C1007 C1000 1.431 . S
C1007 C1006 1.362 . S
H1008 C1014 0.930 . S
H1009 C1017 0.930 . S
H1010 C1018 0.930 . S
H1011 C1019 0.930 . S
H1012 C1022 0.930 . S
H1013 C1023 0.930 . S
C1014 H1008 0.930 . S
C1014 C1015 1.355 . S
C1014 C1016 1.415 . S
C1015 C1014 1.355 . S
C1015 C1017 1.419 . S
C1016 C1014 1.415 . S
C1016 C1021 1.425 . S
C1016 C1023 1.409 . S
C1017 H1009 0.930 . S
C1017 C1015 1.419 . S
C1017 C1018 1.362 . S
C1018 H1010 0.930 . S
C1018 C1017 1.362 . S
C1018 C1021 1.409 . S
C1019 H1011 0.930 . S
C1019 C1020 1.355 . S
C1019 C1021 1.415 . S
C1020 C1019 1.355 . S
C1020 C1022 1.419 . S
C1021 C1016 1.425 . S
C1021 C1018 1.409 . S
C1021 C1019 1.415 . S
C1022 H1012 0.930 . S
C1022 C1020 1.419 . S
C1022 C1023 1.362 . S
C1023 H1013 0.930 . S
C1023 C1016 1.409 . S
C1023 C1022 1.362 . S
H1024 C1030 0.930 . S
H1025 C1033 0.930 . S
H1026 C1034 0.930 . S
H1027 C1035 0.930 . S
H1028 C1038 0.930 . S
H1029 C1039 0.930 . S
C1030 H1024 0.930 . S
C1030 C1031 1.355 . S
C1030 C1032 1.415 . S
C1031 C1030 1.355 . S
C1031 C1033 1.419 . S
C1032 C1030 1.415 . S
C1032 C1037 1.425 . S
C1032 C1039 1.409 . S
C1033 H1025 0.930 . S
C1033 C1031 1.419 . S
C1033 C1034 1.362 . S
C1034 H1026 0.930 . S
C1034 C1033 1.362 . S
C1034 C1037 1.409 . S
C1035 H1027 0.930 . S
C1035 C1036 1.355 . S
C1035 C1037 1.415 . S
C1036 C1035 1.355 . S
C1036 C1038 1.419 . S
C1037 C1032 1.425 . S
C1037 C1034 1.409 . S
C1037 C1035 1.415 . S
C1038 H1028 0.930 . S
C1038 C1036 1.419 . S
C1038 C1039 1.362 . S
C1039 H1029 0.930 . S
C1039 C1032 1.409 . S
C1039 C1038 1.362 . S
H1040 C1046 0.930 . S
H1041 C1049 0.930 . S
H1042 C1050 0.930 . S
H1043 C1051 0.930 . S
H1044 C1054 0.930 . S
H1045 C1055 0.930 . S
C1046 H1040 0.930 . S
C1046 C1047 1.355 . S
C1046 C1048 1.415 . S
C1047 C1046 1.355 . S
C1047 C1049 1.419 . S
C1048 C1046 1.415 . S
C1048 C1053 1.425 . S
C1048 C1055 1.409 . S
C1049 H1041 0.930 . S
C1049 C1047 1.419 . S
C1049 C1050 1.362 . S
C1050 H1042 0.930 . S
C1050 C1049 1.362 . S
C1050 C1053 1.409 . S
C1051 H1043 0.930 . S
C1051 C1052 1.355 . S
C1051 C1053 1.415 . S
C1052 C1051 1.355 . S
C1052 C1054 1.419 . S
C1053 C1048 1.425 . S
C1053 C1050 1.409 . S
C1053 C1051 1.415 . S
C1054 H1044 0.930 . S
C1054 C1052 1.419 . S
C1054 C1055 1.362 . S
C1055 H1045 0.930 . S
C1055 C1048 1.409 . S
C1055 C1054 1.362 . S
H1056 C1062 0.930 1_545 S
H1057 C1065 0.930 . S
H1058 C1066 0.930 . S
H1059 C1067 0.930 . S
H1060 C1070 0.930 . S
H1061 C1071 0.930 . S
C1062 H1056 0.930 1_565 S
C1062 C1063 1.355 . S
C1062 C1064 1.415 . S
C1063 C1062 1.355 . S
C1063 C1065 1.419 . S
C1064 C1062 1.415 . S
C1064 C1069 1.425 . S
C1064 C1071 1.409 1_565 S
C1065 H1057 0.930 . S
C1065 C1063 1.419 . S
C1065 C1066 1.362 . S
C1066 H1058 0.930 . S
C1066 C1065 1.362 . S
C1066 C1069 1.409 . S
C1067 H1059 0.930 . S
C1067 C1068 1.355 . S
C1067 C1069 1.415 . S
C1068 C1067 1.355 . S
C1068 C1070 1.419 1_565 S
C1069 C1064 1.425 . S
C1069 C1066 1.409 . S
C1069 C1067 1.415 . S
C1070 H1060 0.930 . S
C1070 C1068 1.419 1_545 S
C1070 C1071 1.362 . S
C1071 H1061 0.930 . S
C1071 C1064 1.409 1_545 S
C1071 C1070 1.362 . S
H1072 C1078 0.930 . S
H1073 C1081 0.930 . S
H1074 C1082 0.930 . S
H1075 C1083 0.930 . S
H1076 C1086 0.930 . S
H1077 C1087 0.930 . S
C1078 H1072 0.930 . S
C1078 C1079 1.355 . S
C1078 C1080 1.415 . S
C1079 C1078 1.355 . S
C1079 C1081 1.419 . S
C1080 C1078 1.415 . S
C1080 C1085 1.425 . S
C1080 C1087 1.409 . S
C1081 H1073 0.930 . S
C1081 C1079 1.419 . S
C1081 C1082 1.362 . S
C1082 H1074 0.930 . S
C1082 C1081 1.362 . S
C1082 C1085 1.409 . S
C1083 H1075 0.930 . S
C1083 C1084 1.355 . S
C1083 C1085 1.415 . S
C1084 C1083 1.355 . S
C1084 C1086 1.419 . S
C1085 C1080 1.425 . S
C1085 C1082 1.409 . S
C1085 C1083 1.415 . S
C1086 H1076 0.930 . S
C1086 C1084 1.419 . S
C1086 C1087 1.362 . S
C1087 H1077 0.930 . S
C1087 C1080 1.409 . S
C1087 C1086 1.362 . S
H1088 C1094 0.930 . S
H1089 C1097 0.930 . S
H1090 C1098 0.930 . S
H1091 C1099 0.930 . S
H1092 C1102 0.930 . S
H1093 C1103 0.930 . S
C1094 H1088 0.930 . S
C1094 C1095 1.355 . S
C1094 C1096 1.415 . S
C1095 C1094 1.355 . S
C1095 C1097 1.419 . S
C1096 C1094 1.415 . S
C1096 C1101 1.425 . S
C1096 C1103 1.409 . S
C1097 H1089 0.930 . S
C1097 C1095 1.419 . S
C1097 C1098 1.362 . S
C1098 H1090 0.930 . S
C1098 C1097 1.362 . S
C1098 C1101 1.409 . S
C1099 H1091 0.930 . S
C1099 C1100 1.355 . S
C1099 C1101 1.415 . S
C1100 C1099 1.355 . S
C1100 C1102 1.419 . S
C1101 C1096 1.425 . S
C1101 C1098 1.409 . S
C1101 C1099 1.415 . S
C1102 H1092 0.930 . S
C1102 C1100 1.419 . S
C1102 C1103 1.362 . S
C1103 H1093 0.930 . S
C1103 C1096 1.409 . S
C1103 C1102 1.362 . S
H1104 C1110 0.930 . S
H1105 C1113 0.930 . S
H1106 C1114 0.930 . S
H1107 C1115 0.930 . S
H1108 C1118 0.930 . S
H1109 C1119 0.930 . S
C1110 H1104 0.930 . S
C1110 C1111 1.355 . S
C1110 C1112 1.415 . S
C1111 C1110 1.355 . S
C1111 C1113 1.419 . S
C1112 C1110 1.415 . S
C1112 C1117 1.425 . S
C1112 C1119 1.409 . S
C1113 H1105 0.930 . S
C1113 C1111 1.419 . S
C1113 C1114 1.362 . S
C1114 H1106 0.930 . S
C1114 C1113 1.362 . S
C1114 C1117 1.409 . S
C1115 H1107 0.930 . S
C1115 C1116 1.355 . S
C1115 C1117 1.415 . S
C1116 C1115 1.355 . S
C1116 C1118 1.419 . S
C1117 C1112 1.425 . S
C1117 C1114 1.409 . S
C1117 C1115 1.415 . S
C1118 H1108 0.930 . S
C1118 C1116 1.419 . S
C1118 C1119 1.362 . S
C1119 H1109 0.930 . S
C1119 C1112 1.409 . S
C1119 C1118 1.362 . S
H1120 C1126 0.930 . S
H1121 C1129 0.930 . S
H1122 C1130 0.930 . S
H1123 C1131 0.930 . S
H1124 C1134 0.930 . S
H1125 C1135 0.930 . S
C1126 H1120 0.930 . S
C1126 C1127 1.355 . S
C1126 C1128 1.415 . S
C1127 C1126 1.355 . S
C1127 C1129 1.419 . S
C1128 C1126 1.415 . S
C1128 C1133 1.425 . S
C1128 C1135 1.409 . S
C1129 H1121 0.930 . S
C1129 C1127 1.419 . S
C1129 C1130 1.362 . S
C1130 H1122 0.930 . S
C1130 C1129 1.362 . S
C1130 C1133 1.409 . S
C1131 H1123 0.930 . S
C1131 C1132 1.355 . S
C1131 C1133 1.415 . S
C1132 C1131 1.355 . S
C1132 C1134 1.419 . S
C1133 C1128 1.425 . S
C1133 C1130 1.409 . S
C1133 C1131 1.415 . S
C1134 H1124 0.930 . S
C1134 C1132 1.419 . S
C1134 C1135 1.362 . S
C1135 H1125 0.930 . S
C1135 C1128 1.409 . S
C1135 C1134 1.362 . S
H1136 C1142 0.930 . S
H1137 C1145 0.930 . S
H1138 C1146 0.930 . S
H1139 C1147 0.930 . S
H1140 C1150 0.930 . S
H1141 C1151 0.930 . S
C1142 H1136 0.930 . S
C1142 C1143 1.355 . S
C1142 C1144 1.415 . S
C1143 C1142 1.355 . S
C1143 C1145 1.419 . S
C1144 C1142 1.415 . S
C1144 C1149 1.425 . S
C1144 C1151 1.409 . S
C1145 H1137 0.930 . S
C1145 C1143 1.419 . S
C1145 C1146 1.362 . S
C1146 H1138 0.930 . S
C1146 C1145 1.362 . S
C1146 C1149 1.409 . S
C1147 H1139 0.930 . S
C1147 C1148 1.355 . S
C1147 C1149 1.415 . S
C1148 C1147 1.355 . S
C1148 C1150 1.419 . S
C1149 C1144 1.425 . S
C1149 C1146 1.409 . S
C1149 C1147 1.415 . S
C1150 H1140 0.930 . S
C1150 C1148 1.419 . S
C1150 C1151 1.362 . S
C1151 H1141 0.930 . S
C1151 C1144 1.409 . S
C1151 C1150 1.362 . S
H1152 C1158 0.930 . S
H1153 C1161 0.930 . S
H1154 C1162 0.930 . S
H1155 C1163 0.930 . S
H1156 C1166 0.930 . S
H1157 C1167 0.930 . S
C1158 H1152 0.930 . S
C1158 C1159 1.355 . S
C1158 C1160 1.415 . S
C1159 C1158 1.355 . S
C1159 C1161 1.419 . S
C1160 C1158 1.415 . S
C1160 C1165 1.425 . S
C1160 C1167 1.409 . S
C1161 H1153 0.930 . S
C1161 C1159 1.419 . S
C1161 C1162 1.362 . S
C1162 H1154 0.930 . S
C1162 C1161 1.362 . S
C1162 C1165 1.409 . S
C1163 H1155 0.930 . S
C1163 C1164 1.355 . S
C1163 C1165 1.415 . S
C1164 C1163 1.355 . S
C1164 C1166 1.419 . S
C1165 C1160 1.425 . S
C1165 C1162 1.409 . S
C1165 C1163 1.415 . S
C1166 H1156 0.930 . S
C1166 C1164 1.419 . S
C1166 C1167 1.362 . S
C1167 H1157 0.930 . S
C1167 C1160 1.409 . S
C1167 C1166 1.362 . S
H1168 C1174 0.930 . S
H1169 C1177 0.930 . S
H1170 C1178 0.930 . S
H1171 C1179 0.930 . S
H1172 C1182 0.930 . S
H1173 C1183 0.930 . S
C1174 H1168 0.930 . S
C1174 C1175 1.355 . S
C1174 C1176 1.415 . S
C1175 C1174 1.355 . S
C1175 C1177 1.419 . S
C1176 C1174 1.415 . S
C1176 C1181 1.425 . S
C1176 C1183 1.409 . S
C1177 H1169 0.930 . S
C1177 C1175 1.419 . S
C1177 C1178 1.362 . S
C1178 H1170 0.930 . S
C1178 C1177 1.362 . S
C1178 C1181 1.409 . S
C1179 H1171 0.930 . S
C1179 C1180 1.355 . S
C1179 C1181 1.415 . S
C1180 C1179 1.355 . S
C1180 C1182 1.419 . S
C1181 C1176 1.425 . S
C1181 C1178 1.409 . S
C1181 C1179 1.415 . S
C1182 H1172 0.930 . S
C1182 C1180 1.419 . S
C1182 C1183 1.362 . S
C1183 H1173 0.930 . S
C1183 C1176 1.409 . S
C1183 C1182 1.362 . S
H1184 C1190 0.930 . S
H1185 C1193 0.930 . S
H1186 C1194 0.930 . S
H1187 C1195 0.930 . S
H1188 C1198 0.930 . S
H1189 C1199 0.930 . S
C1190 H1184 0.930 . S
C1190 C1191 1.355 1_455 S
C1190 C1192 1.415 . S
C1191 C1190 1.355 1_655 S
C1191 C1193 1.419 . S
C1192 C1190 1.415 . S
C1192 C1197 1.425 1_455 S
C1192 C1199 1.409 . S
C1193 H1185 0.930 . S
C1193 C1191 1.419 . S
C1193 C1194 1.362 . S
C1194 H1186 0.930 . S
C1194 C1193 1.362 . S
C1194 C1197 1.409 . S
C1195 H1187 0.930 . S
C1195 C1196 1.388 . S
C1195 C1197 1.415 . S
C1196 C1195 1.388 . S
C1196 C1198 1.381 1_655 S
C1197 C1192 1.425 1_655 S
C1197 C1194 1.409 . S
C1197 C1195 1.415 . S
C1198 H1188 0.930 . S
C1198 C1196 1.381 1_455 S
C1198 C1199 1.362 . S
C1199 H1189 0.930 . S
C1199 C1192 1.409 . S
C1199 C1198 1.362 . S
H1200 C1206 0.930 . S
H1201 C1209 0.930 . S
H1202 C1210 0.930 . S
H1203 C1211 0.930 . S
H1204 C1214 0.930 . S
H1205 C1215 0.930 . S
C1206 H1200 0.930 . S
C1206 C1207 1.355 . S
C1206 C1208 1.415 . S
C1207 C1206 1.355 . S
C1207 C1209 1.419 . S
C1208 C1206 1.415 . S
C1208 C1213 1.425 . S
C1208 C1215 1.409 . S
C1209 H1201 0.930 . S
C1209 C1207 1.419 . S
C1209 C1210 1.362 . S
C1210 H1202 0.930 . S
C1210 C1209 1.362 . S
C1210 C1213 1.409 . S
C1211 H1203 0.930 . S
C1211 C1212 1.355 . S
C1211 C1213 1.415 . S
C1212 C1211 1.355 . S
C1212 C1214 1.419 . S
C1213 C1208 1.425 . S
C1213 C1210 1.409 . S
C1213 C1211 1.415 . S
C1214 H1204 0.930 . S
C1214 C1212 1.419 . S
C1214 C1215 1.362 . S
C1215 H1205 0.930 . S
C1215 C1208 1.409 . S
C1215 C1214 1.362 . S
H1216 C1222 0.930 . S
H1217 C1225 0.930 . S
H1218 C1226 0.930 . S
H1219 C1227 0.930 . S
H1220 C1230 0.930 . S
H1221 C1231 0.930 . S
C1222 H1216 0.930 . S
C1222 C1223 1.355 . S
C1222 C1224 1.415 . S
C1223 C1222 1.355 . S
C1223 C1225 1.419 . S
C1224 C1222 1.415 . S
C1224 C1229 1.425 . S
C1224 C1231 1.409 . S
C1225 H1217 0.930 . S
C1225 C1223 1.419 . S
C1225 C1226 1.362 . S
C1226 H1218 0.930 . S
C1226 C1225 1.362 . S
C1226 C1229 1.409 . S
C1227 H1219 0.930 . S
C1227 C1228 1.355 . S
C1227 C1229 1.415 . S
C1228 C1227 1.355 . S
C1228 C1230 1.419 . S
C1229 C1224 1.425 . S
C1229 C1226 1.409 . S
C1229 C1227 1.415 . S
C1230 H1220 0.930 . S
C1230 C1228 1.419 . S
C1230 C1231 1.362 . S
C1231 H1221 0.930 . S
C1231 C1224 1.409 . S
C1231 C1230 1.362 . S
H1232 C1238 0.930 . S
H1233 C1241 0.930 1_545 S
H1234 C1242 0.930 . S
H1235 C1243 0.930 . S
H1236 C1246 0.930 . S
H1237 C1247 0.930 . S
C1238 H1232 0.930 . S
C1238 C1239 1.355 . S
C1238 C1240 1.415 . S
C1239 C1238 1.355 . S
C1239 C1241 1.419 . S
C1240 C1238 1.415 . S
C1240 C1245 1.425 . S
C1240 C1247 1.409 . S
C1241 H1233 0.930 1_565 S
C1241 C1239 1.419 . S
C1241 C1242 1.363 1_556 S
C1242 H1234 0.930 . S
C1242 C1241 1.363 1_554 S
C1242 C1245 1.409 1_554 S
C1243 H1235 0.930 . S
C1243 C1244 1.355 . S
C1243 C1245 1.415 1_554 S
C1244 C1243 1.355 . S
C1244 C1246 1.419 1_554 S
C1245 C1240 1.425 . S
C1245 C1242 1.409 1_556 S
C1245 C1243 1.415 1_556 S
C1246 H1236 0.930 . S
C1246 C1244 1.419 1_556 S
C1246 C1247 1.362 . S
C1247 H1237 0.930 . S
C1247 C1240 1.409 . S
C1247 C1246 1.362 . S
H1248 C1254 0.930 . S
H1249 C1257 0.930 . S
H1250 C1258 0.930 . S
H1251 C1259 0.930 . S
H1252 C1262 0.930 . S
H1253 C1263 0.930 . S
C1254 H1248 0.930 . S
C1254 C1255 1.355 . S
C1254 C1256 1.415 . S
C1255 C1254 1.355 . S
C1255 C1257 1.419 . S
C1256 C1254 1.415 . S
C1256 C1261 1.425 . S
C1256 C1263 1.409 . S
C1257 H1249 0.930 . S
C1257 C1255 1.419 . S
C1257 C1258 1.362 . S
C1258 H1250 0.930 . S
C1258 C1257 1.362 . S
C1258 C1261 1.409 . S
C1259 H1251 0.930 . S
C1259 C1260 1.355 . S
C1259 C1261 1.415 . S
C1260 C1259 1.355 . S
C1260 C1262 1.419 . S
C1261 C1256 1.425 . S
C1261 C1258 1.409 . S
C1261 C1259 1.415 . S
C1262 H1252 0.930 . S
C1262 C1260 1.419 . S
C1262 C1263 1.362 . S
C1263 H1253 0.930 . S
C1263 C1256 1.409 . S
C1263 C1262 1.362 . S
H1264 C1270 0.930 . S
H1265 C1273 0.930 . S
H1266 C1274 0.930 . S
H1267 C1275 0.930 . S
H1268 C1278 0.930 . S
H1269 C1279 0.930 . S
C1270 H1264 0.930 . S
C1270 C1271 1.355 . S
C1270 C1272 1.415 . S
C1271 C1270 1.355 . S
C1271 C1273 1.419 . S
C1272 C1270 1.415 . S
C1272 C1277 1.425 . S
C1272 C1279 1.409 . S
C1273 H1265 0.930 . S
C1273 C1271 1.419 . S
C1273 C1274 1.362 . S
C1274 H1266 0.930 . S
C1274 C1273 1.362 . S
C1274 C1277 1.409 . S
C1275 H1267 0.930 . S
C1275 C1276 1.355 . S
C1275 C1277 1.415 . S
C1276 C1275 1.355 . S
C1276 C1278 1.419 . S
C1277 C1272 1.425 . S
C1277 C1274 1.409 . S
C1277 C1275 1.415 . S
C1278 H1268 0.930 . S
C1278 C1276 1.419 . S
C1278 C1279 1.362 . S
C1279 H1269 0.930 . S
C1279 C1272 1.409 . S
C1279 C1278 1.362 . S
H1280 C1286 0.930 . S
H1281 C1289 0.930 . S
H1282 C1290 0.930 . S
H1283 C1291 0.930 . S
H1284 C1294 0.930 . S
H1285 C1295 0.930 . S
C1286 H1280 0.930 . S
C1286 C1287 1.355 . S
C1286 C1288 1.415 . S
C1287 C1286 1.355 . S
C1287 C1289 1.419 . S
C1288 C1286 1.415 . S
C1288 C1293 1.425 . S
C1288 C1295 1.409 . S
C1289 H1281 0.930 . S
C1289 C1287 1.419 . S
C1289 C1290 1.362 . S
C1290 H1282 0.930 . S
C1290 C1289 1.362 . S
C1290 C1293 1.409 . S
C1291 H1283 0.930 . S
C1291 C1292 1.355 . S
C1291 C1293 1.415 . S
C1292 C1291 1.355 . S
C1292 C1294 1.419 . S
C1293 C1288 1.425 . S
C1293 C1290 1.409 . S
C1293 C1291 1.415 . S
C1294 H1284 0.930 . S
C1294 C1292 1.419 . S
C1294 C1295 1.362 . S
C1295 H1285 0.930 . S
C1295 C1288 1.409 . S
C1295 C1294 1.362 . S
H1296 C1302 0.930 . S
H1297 C1305 0.930 . S
H1298 C1306 0.930 . S
H1299 C1307 0.930 . S
H1300 C1310 0.930 . S
H1301 C1311 0.930 . S
C1302 H1296 0.930 . S
C1302 C1303 1.355 . S
C1302 C1304 1.415 . S
C1303 C1302 1.355 . S
C1303 C1305 1.419 . S
C1304 C1302 1.415 . S
C1304 C1309 1.425 . S
C1304 C1311 1.409 . S
C1305 H1297 0.930 . S
C1305 C1303 1.419 . S
C1305 C1306 1.362 . S
C1306 H1298 0.930 . S
C1306 C1305 1.362 . S
C1306 C1309 1.409 . S
C1307 H1299 0.930 . S
C1307 C1308 1.355 . S
C1307 C1309 1.415 . S
C1308 C1307 1.355 . S
C1308 C1310 1.419 . S
C1309 C1304 1.425 . S
C1309 C1306 1.409 . S
C1309 C1307 1.415 . S
C1310 H1300 0.930 . S
C1310 C1308 1.419 . S
C1310 C1311 1.362 . S
C1311 H1301 0.930 . S
C1311 C1304 1.409 . S
C1311 C1310 1.362 . S
H1312 C1318 0.930 . S
H1313 C1321 0.930 . S
H1314 C1322 0.930 . S
H1315 C1323 0.930 . S
H1316 C1326 0.930 . S
H1317 C1327 0.930 . S
C1318 H1312 0.930 . S
C1318 C1319 1.355 . S
C1318 C1320 1.415 . S
C1319 C1318 1.355 . S
C1319 C1321 1.419 . S
C1320 C1318 1.415 . S
C1320 C1325 1.425 . S
C1320 C1327 1.409 . S
C1321 H1313 0.930 . S
C1321 C1319 1.419 . S
C1321 C1322 1.362 . S
C1322 H1314 0.930 . S
C1322 C1321 1.362 . S
C1322 C1325 1.409 . S
C1323 H1315 0.930 . S
C1323 C1324 1.355 . S
C1323 C1325 1.415 . S
C1324 C1323 1.355 . S
C1324 C1326 1.419 . S
C1325 C1320 1.425 . S
C1325 C1322 1.409 . S
C1325 C1323 1.415 . S
C1326 H1316 0.930 . S
C1326 C1324 1.419 . S
C1326 C1327 1.362 . S
C1327 H1317 0.930 . S
C1327 C1320 1.409 . S
C1327 C1326 1.362 . S
H1328 C1334 0.930 . S
H1329 C1337 0.930 . S
H1330 C1338 0.930 . S
H1331 C1339 0.930 . S
H1332 C1342 0.930 . S
H1333 C1343 0.930 . S
C1334 H1328 0.930 . S
C1334 C1335 1.355 . S
C1334 C1336 1.415 . S
C1335 C1334 1.355 . S
C1335 C1337 1.419 . S
C1336 C1334 1.415 . S
C1336 C1341 1.425 . S
C1336 C1343 1.409 . S
C1337 H1329 0.930 . S
C1337 C1335 1.419 . S
C1337 C1338 1.362 . S
C1338 H1330 0.930 . S
C1338 C1337 1.362 . S
C1338 C1341 1.409 . S
C1339 H1331 0.930 . S
C1339 C1340 1.355 . S
C1339 C1341 1.415 . S
C1340 C1339 1.355 . S
C1340 C1342 1.419 . S
C1341 C1336 1.425 . S
C1341 C1338 1.409 . S
C1341 C1339 1.415 . S
C1342 H1332 0.930 . S
C1342 C1340 1.419 . S
C1342 C1343 1.362 . S
C1343 H1333 0.930 . S
C1343 C1336 1.409 . S
C1343 C1342 1.362 . S
H1344 C1350 0.930 1_565 S
H1345 C1353 0.930 . S
H1346 C1354 0.930 . S
H1347 C1355 0.930 . S
H1348 C1358 0.930 . S
H1349 C1359 0.930 . S
C1350 H1344 0.930 1_545 S
C1350 C1351 1.355 . S
C1350 C1352 1.415 . S
C1351 C1350 1.355 . S
C1351 C1353 1.419 . S
C1352 C1350 1.415 . S
C1352 C1357 1.425 . S
C1352 C1359 1.409 1_545 S
C1353 H1345 0.930 . S
C1353 C1351 1.419 . S
C1353 C1354 1.362 . S
C1354 H1346 0.930 . S
C1354 C1353 1.362 . S
C1354 C1357 1.409 . S
C1355 H1347 0.930 . S
C1355 C1356 1.355 . S
C1355 C1357 1.415 . S
C1356 C1355 1.355 . S
C1356 C1358 1.419 1_545 S
C1357 C1352 1.425 . S
C1357 C1354 1.409 . S
C1357 C1355 1.415 . S
C1358 H1348 0.930 . S
C1358 C1356 1.419 1_565 S
C1358 C1359 1.362 . S
C1359 H1349 0.930 . S
C1359 C1352 1.409 1_565 S
C1359 C1358 1.362 . S
H1360 C1366 0.930 . S
H1361 C1369 0.930 . S
H1362 C1370 0.930 . S
H1363 C1371 0.930 . S
H1364 C1374 0.930 . S
H1365 C1375 0.930 . S
C1366 H1360 0.930 . S
C1366 C1367 1.355 . S
C1366 C1368 1.415 . S
C1367 C1366 1.355 . S
C1367 C1369 1.419 . S
C1368 C1366 1.415 . S
C1368 C1373 1.425 . S
C1368 C1375 1.409 . S
C1369 H1361 0.930 . S
C1369 C1367 1.419 . S
C1369 C1370 1.362 . S
C1370 H1362 0.930 . S
C1370 C1369 1.362 . S
C1370 C1373 1.409 . S
C1371 H1363 0.930 . S
C1371 C1372 1.355 . S
C1371 C1373 1.415 . S
C1372 C1371 1.355 . S
C1372 C1374 1.419 . S
C1373 C1368 1.425 . S
C1373 C1370 1.409 . S
C1373 C1371 1.415 . S
C1374 H1364 0.930 . S
C1374 C1372 1.419 . S
C1374 C1375 1.362 . S
C1375 H1365 0.930 . S
C1375 C1368 1.409 . S
C1375 C1374 1.362 . S
H1376 C1382 0.930 . S
H1377 C1385 0.930 . S
H1378 C1386 0.930 . S
H1379 C1387 0.930 . S
H1380 C1390 0.930 . S
H1381 C1391 0.930 . S
C1382 H1376 0.930 . S
C1382 C1383 1.355 . S
C1382 C1384 1.415 . S
C1383 C1382 1.355 . S
C1383 C1385 1.419 . S
C1384 C1382 1.415 . S
C1384 C1389 1.425 . S
C1384 C1391 1.409 . S
C1385 H1377 0.930 . S
C1385 C1383 1.419 . S
C1385 C1386 1.362 . S
C1386 H1378 0.930 . S
C1386 C1385 1.362 . S
C1386 C1389 1.409 . S
C1387 H1379 0.930 . S
C1387 C1388 1.355 . S
C1387 C1389 1.415 . S
C1388 C1387 1.355 . S
C1388 C1390 1.419 . S
C1389 C1384 1.425 . S
C1389 C1386 1.409 . S
C1389 C1387 1.415 . S
C1390 H1380 0.930 . S
C1390 C1388 1.419 . S
C1390 C1391 1.362 . S
C1391 H1381 0.930 . S
C1391 C1384 1.409 . S
C1391 C1390 1.362 . S
H1392 C1398 0.930 . S
H1393 C1401 0.930 . S
H1394 C1402 0.930 . S
H1395 C1403 0.930 . S
H1396 C1406 0.930 . S
H1397 C1407 0.930 . S
C1398 H1392 0.930 . S
C1398 C1399 1.355 . S
C1398 C1400 1.415 . S
C1399 C1398 1.355 . S
C1399 C1401 1.419 . S
C1400 C1398 1.415 . S
C1400 C1405 1.425 . S
C1400 C1407 1.409 . S
C1401 H1393 0.930 . S
C1401 C1399 1.419 . S
C1401 C1402 1.362 . S
C1402 H1394 0.930 . S
C1402 C1401 1.362 . S
C1402 C1405 1.409 . S
C1403 H1395 0.930 . S
C1403 C1404 1.355 . S
C1403 C1405 1.415 . S
C1404 C1403 1.355 . S
C1404 C1406 1.419 . S
C1405 C1400 1.425 . S
C1405 C1402 1.409 . S
C1405 C1403 1.415 . S
C1406 H1396 0.930 . S
C1406 C1404 1.419 . S
C1406 C1407 1.362 . S
C1407 H1397 0.930 . S
C1407 C1400 1.409 . S
C1407 C1406 1.362 . S
H1408 C1414 0.930 1_565 S
H1409 C1417 0.930 . S
H1410 C1418 0.930 . S
H1411 C1419 0.930 . S
H1412 C1422 0.930 . S
H1413 C1423 0.930 . S
C1414 H1408 0.930 1_545 S
C1414 C1415 1.355 . S
C1414 C1416 1.415 . S
C1415 C1414 1.355 . S
C1415 C1417 1.419 . S
C1416 C1414 1.415 . S
C1416 C1421 1.425 . S
C1416 C1423 1.409 1_545 S
C1417 H1409 0.930 . S
C1417 C1415 1.419 . S
C1417 C1418 1.362 . S
C1418 H1410 0.930 . S
C1418 C1417 1.362 . S
C1418 C1421 1.409 . S
C1419 H1411 0.930 . S
C1419 C1420 1.355 . S
C1419 C1421 1.415 . S
C1420 C1419 1.355 . S
C1420 C1422 1.419 1_545 S
C1421 C1416 1.425 . S
C1421 C1418 1.409 . S
C1421 C1419 1.415 . S
C1422 H1412 0.930 . S
C1422 C1420 1.419 1_565 S
C1422 C1423 1.362 . S
C1423 H1413 0.930 . S
C1423 C1416 1.409 1_565 S
C1423 C1422 1.362 . S
H1424 C1430 0.930 . S
H1425 C1433 0.930 . S
H1426 C1434 0.930 . S
H1427 C1435 0.930 . S
H1428 C1438 0.930 . S
H1429 C1439 0.930 . S
C1430 H1424 0.930 . S
C1430 C1431 1.355 . S
C1430 C1432 1.415 . S
C1431 C1430 1.355 . S
C1431 C1433 1.419 . S
C1432 C1430 1.415 . S
C1432 C1437 1.425 . S
C1432 C1439 1.409 . S
C1433 H1425 0.930 . S
C1433 C1431 1.419 . S
C1433 C1434 1.362 . S
C1434 H1426 0.930 . S
C1434 C1433 1.362 . S
C1434 C1437 1.409 . S
C1435 H1427 0.930 . S
C1435 C1436 1.355 . S
C1435 C1437 1.415 . S
C1436 C1435 1.355 . S
C1436 C1438 1.419 . S
C1437 C1432 1.425 . S
C1437 C1434 1.409 . S
C1437 C1435 1.415 . S
C1438 H1428 0.930 . S
C1438 C1436 1.419 . S
C1438 C1439 1.362 . S
C1439 H1429 0.930 . S
C1439 C1432 1.409 . S
C1439 C1438 1.362 . S
H1440 C1446 0.930 . S
H1441 C1449 0.930 . S
H1442 C1450 0.930 . S
H1443 C1451 0.930 . S
H1444 C1454 0.930 . S
H1445 C1455 0.930 . S
C1446 H1440 0.930 . S
C1446 C1447 1.355 . S
C1446 C1448 1.415 . S
C1447 C1446 1.355 . S
C1447 C1449 1.419 . S
C1448 C1446 1.415 . S
C1448 C1453 1.425 . S
C1448 C1455 1.409 . S
C1449 H1441 0.930 . S
C1449 C1447 1.419 . S
C1449 C1450 1.362 . S
C1450 H1442 0.930 . S
C1450 C1449 1.362 . S
C1450 C1453 1.409 . S
C1451 H1443 0.930 . S
C1451 C1452 1.355 . S
C1451 C1453 1.415 . S
C1452 C1451 1.355 . S
C1452 C1454 1.419 . S
C1453 C1448 1.425 . S
C1453 C1450 1.409 . S
C1453 C1451 1.415 . S
C1454 H1444 0.930 . S
C1454 C1452 1.419 . S
C1454 C1455 1.362 . S
C1455 H1445 0.930 . S
C1455 C1448 1.409 . S
C1455 C1454 1.362 . S
H1456 C1462 0.930 . S
H1457 C1465 0.930 . S
H1458 C1466 0.930 . S
H1459 C1467 0.930 . S
H1460 C1470 0.930 . S
H1461 C1471 0.930 . S
C1462 H1456 0.930 . S
C1462 C1463 1.355 . S
C1462 C1464 1.415 . S
C1463 C1462 1.355 . S
C1463 C1465 1.419 . S
C1464 C1462 1.415 . S
C1464 C1469 1.425 . S
C1464 C1471 1.409 . S
C1465 H1457 0.930 . S
C1465 C1463 1.419 . S
C1465 C1466 1.362 . S
C1466 H1458 0.930 . S
C1466 C1465 1.362 . S
C1466 C1469 1.409 . S
C1467 H1459 0.930 . S
C1467 C1468 1.355 . S
C1467 C1469 1.415 . S
C1468 C1467 1.355 . S
C1468 C1470 1.419 . S
C1469 C1464 1.425 . S
C1469 C1466 1.409 . S
C1469 C1467 1.415 . S
C1470 H1460 0.930 . S
C1470 C1468 1.419 . S
C1470 C1471 1.362 . S
C1471 H1461 0.930 . S
C1471 C1464 1.409 . S
C1471 C1470 1.362 . S
H1472 C1478 0.930 . S
H1473 C1481 0.930 . S
H1474 C1482 0.930 . S
H1475 C1483 0.930 . S
H1476 C1486 0.930 . S
H1477 C1487 0.930 . S
C1478 H1472 0.930 . S
C1478 C1479 1.355 1_455 S
C1478 C1480 1.415 . S
C1479 C1478 1.355 1_655 S
C1479 C1481 1.419 . S
C1480 C1478 1.415 . S
C1480 C1485 1.425 1_455 S
C1480 C1487 1.409 . S
C1481 H1473 0.930 . S
C1481 C1479 1.419 . S
C1481 C1482 1.362 . S
C1482 H1474 0.930 . S
C1482 C1481 1.362 . S
C1482 C1485 1.409 . S
C1483 H1475 0.930 . S
C1483 C1484 1.355 1_655 S
C1483 C1485 1.415 . S
C1484 C1483 1.355 1_455 S
C1484 C1486 1.419 . S
C1485 C1480 1.425 1_655 S
C1485 C1482 1.409 . S
C1485 C1483 1.415 . S
C1486 H1476 0.930 . S
C1486 C1484 1.419 . S
C1486 C1487 1.362 . S
C1487 H1477 0.930 . S
C1487 C1480 1.409 . S
C1487 C1486 1.362 . S
H1488 C1494 0.930 . S
H1489 C1497 0.930 . S
H1490 C1498 0.930 . S
H1491 C1499 0.930 . S
H1492 C1502 0.930 . S
H1493 C1503 0.930 . S
C1494 H1488 0.930 . S
C1494 C1495 1.355 . S
C1494 C1496 1.415 . S
C1495 C1494 1.355 . S
C1495 C1497 1.419 . S
C1496 C1494 1.415 . S
C1496 C1501 1.425 . S
C1496 C1503 1.409 . S
C1497 H1489 0.930 . S
C1497 C1495 1.419 . S
C1497 C1498 1.362 . S
C1498 H1490 0.930 . S
C1498 C1497 1.362 . S
C1498 C1501 1.409 . S
C1499 H1491 0.930 . S
C1499 C1500 1.355 . S
C1499 C1501 1.415 . S
C1500 C1499 1.355 . S
C1500 C1502 1.419 . S
C1501 C1496 1.425 . S
C1501 C1498 1.409 . S
C1501 C1499 1.415 . S
C1502 H1492 0.930 . S
C1502 C1500 1.419 . S
C1502 C1503 1.362 . S
C1503 H1493 0.930 . S
C1503 C1496 1.409 . S
C1503 C1502 1.362 . S
H1504 C1510 0.930 . S
H1505 C1513 0.930 . S
H1506 C1514 0.930 1_655 S
H1507 C1515 0.930 1_655 S
H1508 C1518 0.930 . S
H1509 C1519 0.930 . S
C1510 H1504 0.930 . S
C1510 C1511 1.355 . S
C1510 C1512 1.415 . S
C1511 C1510 1.355 . S
C1511 C1513 1.419 . S
C1512 C1510 1.415 . S
C1512 C1517 1.425 . S
C1512 C1519 1.409 . S
C1513 H1505 0.930 . S
C1513 C1511 1.419 . S
C1513 C1514 1.362 . S
C1514 H1506 0.930 1_455 S
C1514 C1513 1.362 . S
C1514 C1517 1.409 . S
C1515 H1507 0.930 1_455 S
C1515 C1516 1.355 . S
C1515 C1517 1.415 . S
C1516 C1515 1.355 . S
C1516 C1518 1.419 . S
C1517 C1512 1.425 . S
C1517 C1514 1.409 . S
C1517 C1515 1.415 . S
C1518 H1508 0.930 . S
C1518 C1516 1.419 . S
C1518 C1519 1.362 . S
C1519 H1509 0.930 . S
C1519 C1512 1.409 . S
C1519 C1518 1.362 . S
H1520 C1526 0.930 . S
H1521 C1529 0.930 . S
H1522 C1530 0.930 . S
H1523 C1531 0.930 . S
H1524 C1534 0.930 . S
H1525 C1535 0.930 . S
C1526 H1520 0.930 . S
C1526 C1527 1.355 . S
C1526 C1528 1.415 . S
C1527 C1526 1.355 . S
C1527 C1529 1.419 . S
C1528 C1526 1.415 . S
C1528 C1533 1.425 . S
C1528 C1535 1.409 . S
C1529 H1521 0.930 . S
C1529 C1527 1.419 . S
C1529 C1530 1.362 . S
C1530 H1522 0.930 . S
C1530 C1529 1.362 . S
C1530 C1533 1.409 . S
C1531 H1523 0.930 . S
C1531 C1532 1.355 . S
C1531 C1533 1.415 . S
C1532 C1531 1.355 . S
C1532 C1534 1.419 . S
C1533 C1528 1.425 . S
C1533 C1530 1.409 . S
C1533 C1531 1.415 . S
C1534 H1524 0.930 . S
C1534 C1532 1.419 . S
C1534 C1535 1.362 . S
C1535 H1525 0.930 . S
C1535 C1528 1.409 . S
C1535 C1534 1.362 . S
H1536 C1542 0.930 . S
H1537 C1545 0.930 . S
H1538 C1546 0.930 . S
H1539 C1547 0.930 . S
H1540 C1550 0.930 . S
H1541 C1551 0.930 . S
C1542 H1536 0.930 . S
C1542 C1543 1.355 . S
C1542 C1544 1.415 . S
C1543 C1542 1.355 . S
C1543 C1545 1.419 . S
C1544 C1542 1.415 . S
C1544 C1549 1.425 . S
C1544 C1551 1.409 . S
C1545 H1537 0.930 . S
C1545 C1543 1.419 . S
C1545 C1546 1.362 . S
C1546 H1538 0.930 . S
C1546 C1545 1.362 . S
C1546 C1549 1.409 . S
C1547 H1539 0.930 . S
C1547 C1548 1.355 . S
C1547 C1549 1.415 . S
C1548 C1547 1.355 . S
C1548 C1550 1.419 . S
C1549 C1544 1.425 . S
C1549 C1546 1.409 . S
C1549 C1547 1.415 . S
C1550 H1540 0.930 . S
C1550 C1548 1.419 . S
C1550 C1551 1.362 . S
C1551 H1541 0.930 . S
C1551 C1544 1.409 . S
C1551 C1550 1.362 . S
H1552 C1558 0.930 . S
H1553 C1561 0.930 . S
H1554 C1562 0.930 . S
H1555 C1563 0.930 . S
H1556 C1566 0.930 . S
H1557 C1567 0.930 . S
C1558 H1552 0.930 . S
C1558 C1559 1.355 . S
C1558 C1560 1.415 . S
C1559 C1558 1.355 . S
C1559 C1561 1.419 . S
C1560 C1558 1.415 . S
C1560 C1565 1.425 . S
C1560 C1567 1.409 . S
C1561 H1553 0.930 . S
C1561 C1559 1.419 . S
C1561 C1562 1.362 . S
C1562 H1554 0.930 . S
C1562 C1561 1.362 . S
C1562 C1565 1.409 . S
C1563 H1555 0.930 . S
C1563 C1564 1.355 . S
C1563 C1565 1.415 . S
C1564 C1563 1.355 . S
C1564 C1566 1.419 . S
C1565 C1560 1.425 . S
C1565 C1562 1.409 . S
C1565 C1563 1.415 . S
C1566 H1556 0.930 . S
C1566 C1564 1.419 . S
C1566 C1567 1.362 . S
C1567 H1557 0.930 . S
C1567 C1560 1.409 . S
C1567 C1566 1.362 . S
H1568 C1574 0.930 . S
H1569 C1577 0.930 . S
H1570 C1578 0.930 . S
H1571 C1579 0.930 . S
H1572 C1582 0.930 . S
H1573 C1583 0.930 . S
C1574 H1568 0.930 . S
C1574 C1575 1.355 . S
C1574 C1576 1.415 . S
C1575 C1574 1.355 . S
C1575 C1577 1.419 . S
C1576 C1574 1.415 . S
C1576 C1581 1.425 . S
C1576 C1583 1.409 . S
C1577 H1569 0.930 . S
C1577 C1575 1.419 . S
C1577 C1578 1.362 . S
C1578 H1570 0.930 . S
C1578 C1577 1.362 . S
C1578 C1581 1.409 . S
C1579 H1571 0.930 . S
C1579 C1580 1.355 . S
C1579 C1581 1.415 . S
C1580 C1579 1.355 . S
C1580 C1582 1.419 . S
C1581 C1576 1.425 . S
C1581 C1578 1.409 . S
C1581 C1579 1.415 . S
C1582 H1572 0.930 . S
C1582 C1580 1.419 . S
C1582 C1583 1.362 . S
C1583 H1573 0.930 . S
C1583 C1576 1.409 . S
C1583 C1582 1.362 . S
H1584 C1590 0.930 . S
H1585 C1593 0.930 . S
H1586 C1594 0.930 . S
H1587 C1595 0.930 . S
H1588 C1598 0.930 . S
H1589 C1599 0.930 . S
C1590 H1584 0.930 . S
C1590 C1591 1.355 . S
C1590 C1592 1.415 . S
C1591 C1590 1.355 . S
C1591 C1593 1.419 . S
C1592 C1590 1.415 . S
C1592 C1597 1.425 . S
C1592 C1599 1.409 . S
C1593 H1585 0.930 . S
C1593 C1591 1.419 . S
C1593 C1594 1.362 . S
C1594 H1586 0.930 . S
C1594 C1593 1.362 . S
C1594 C1597 1.409 . S
C1595 H1587 0.930 . S
C1595 C1596 1.355 . S
C1595 C1597 1.415 . S
C1596 C1595 1.355 . S
C1596 C1598 1.419 . S
C1597 C1592 1.425 . S
C1597 C1594 1.409 . S
C1597 C1595 1.415 . S
C1598 H1588 0.930 . S
C1598 C1596 1.419 . S
C1598 C1599 1.362 . S
C1599 H1589 0.930 . S
C1599 C1592 1.409 . S
C1599 C1598 1.362 . S
H1600 C1606 0.930 . S
H1601 C1609 0.930 . S
H1602 C1610 0.930 . S
H1603 C1611 0.930 . S
H1604 C1614 0.930 . S
H1605 C1615 0.930 . S
C1606 H1600 0.930 . S
C1606 C1607 1.355 . S
C1606 C1608 1.415 . S
C1607 C1606 1.355 . S
C1607 C1609 1.419 . S
C1608 C1606 1.415 . S
C1608 C1613 1.425 . S
C1608 C1615 1.409 . S
C1609 H1601 0.930 . S
C1609 C1607 1.419 . S
C1609 C1610 1.362 . S
C1610 H1602 0.930 . S
C1610 C1609 1.362 . S
C1610 C1613 1.409 . S
C1611 H1603 0.930 . S
C1611 C1612 1.355 . S
C1611 C1613 1.415 . S
C1612 C1611 1.355 . S
C1612 C1614 1.419 . S
C1613 C1608 1.425 . S
C1613 C1610 1.409 . S
C1613 C1611 1.415 . S
C1614 H1604 0.930 . S
C1614 C1612 1.419 . S
C1614 C1615 1.362 . S
C1615 H1605 0.930 . S
C1615 C1608 1.409 . S
C1615 C1614 1.362 . S
H1616 C1622 0.930 . S
H1617 C1625 0.930 . S
H1618 C1626 0.930 . S
H1619 C1627 0.930 . S
H1620 C1630 0.930 . S
H1621 C1631 0.930 . S
C1622 H1616 0.930 . S
C1622 C1623 1.355 . S
C1622 C1624 1.415 . S
C1623 C1622 1.355 . S
C1623 C1625 1.419 . S
C1624 C1622 1.415 . S
C1624 C1629 1.425 . S
C1624 C1631 1.409 . S
C1625 H1617 0.930 . S
C1625 C1623 1.419 . S
C1625 C1626 1.362 . S
C1626 H1618 0.930 . S
C1626 C1625 1.362 . S
C1626 C1629 1.409 . S
C1627 H1619 0.930 . S
C1627 C1628 1.355 . S
C1627 C1629 1.415 . S
C1628 C1627 1.355 . S
C1628 C1630 1.419 . S
C1629 C1624 1.425 . S
C1629 C1626 1.409 . S
C1629 C1627 1.415 . S
C1630 H1620 0.930 . S
C1630 C1628 1.419 . S
C1630 C1631 1.362 . S
C1631 H1621 0.930 . S
C1631 C1624 1.409 . S
C1631 C1630 1.362 . S
H1632 C1638 0.930 . S
H1633 C1641 0.930 . S
H1634 C1642 0.930 . S
H1635 C1643 0.930 . S
H1636 C1646 0.930 . S
H1637 C1647 0.930 . S
C1638 H1632 0.930 . S
C1638 C1639 1.355 . S
C1638 C1640 1.415 . S
C1639 C1638 1.355 . S
C1639 C1641 1.419 . S
C1640 C1638 1.415 . S
C1640 C1645 1.425 . S
C1640 C1647 1.409 . S
C1641 H1633 0.930 . S
C1641 C1639 1.419 . S
C1641 C1642 1.362 . S
C1642 H1634 0.930 . S
C1642 C1641 1.362 . S
C1642 C1645 1.409 . S
C1643 H1635 0.930 . S
C1643 C1644 1.355 . S
C1643 C1645 1.415 . S
C1644 C1643 1.355 . S
C1644 C1646 1.419 . S
C1645 C1640 1.425 . S
C1645 C1642 1.409 . S
C1645 C1643 1.415 . S
C1646 H1636 0.930 . S
C1646 C1644 1.419 . S
C1646 C1647 1.362 . S
C1647 H1637 0.930 . S
C1647 C1640 1.409 . S
C1647 C1646 1.362 . S
H1648 C1654 0.908 1_554 S
H1649 C1657 0.930 . S
H1650 C1658 0.930 . S
H1651 C1659 0.930 . S
H1652 C1662 0.930 . S
H1653 C1663 0.930 . S
C1654 H1648 0.908 1_556 S
C1654 C1655 1.375 . S
C1654 C1656 1.416 . S
C1655 C1654 1.375 . S
C1655 C1657 1.419 . S
C1656 C1654 1.416 . S
C1656 C1661 1.425 . S
C1656 C1663 1.409 1_556 S
C1657 H1649 0.930 . S
C1657 C1655 1.419 . S
C1657 C1658 1.362 . S
C1658 H1650 0.930 . S
C1658 C1657 1.362 . S
C1658 C1661 1.409 . S
C1659 H1651 0.930 . S
C1659 C1660 1.355 . S
C1659 C1661 1.415 . S
C1660 C1659 1.355 . S
C1660 C1662 1.419 1_556 S
C1661 C1656 1.425 . S
C1661 C1658 1.409 . S
C1661 C1659 1.415 . S
C1662 H1652 0.930 . S
C1662 C1660 1.419 1_554 S
C1662 C1663 1.362 . S
C1663 H1653 0.930 . S
C1663 C1656 1.409 1_554 S
C1663 C1662 1.362 . S
H1664 C1670 0.930 . S
H1665 C1673 0.930 . S
H1666 C1674 0.930 . S
H1667 C1675 0.930 . S
H1668 C1678 0.930 . S
H1669 C1679 0.930 . S
C1670 H1664 0.930 . S
C1670 C1671 1.355 . S
C1670 C1672 1.415 . S
C1671 C1670 1.355 . S
C1671 C1673 1.419 . S
C1672 C1670 1.415 . S
C1672 C1677 1.425 . S
C1672 C1679 1.409 . S
C1673 H1665 0.930 . S
C1673 C1671 1.419 . S
C1673 C1674 1.362 . S
C1674 H1666 0.930 . S
C1674 C1673 1.362 . S
C1674 C1677 1.409 . S
C1675 H1667 0.930 . S
C1675 C1676 1.355 . S
C1675 C1677 1.415 . S
C1676 C1675 1.355 . S
C1676 C1678 1.419 . S
C1677 C1672 1.425 . S
C1677 C1674 1.409 . S
C1677 C1675 1.415 . S
C1678 H1668 0.930 . S
C1678 C1676 1.419 . S
C1678 C1679 1.362 . S
C1679 H1669 0.930 . S
C1679 C1672 1.409 . S
C1679 C1678 1.362 . S
H1680 C1686 0.930 . S
H1681 C1689 0.930 . S
H1682 C1690 0.930 . S
H1683 C1691 0.930 . S
H1684 C1694 0.929 1_556 S
H1685 C1695 0.930 1_556 S
C1686 H1680 0.930 . S
C1686 C1687 1.355 . S
C1686 C1688 1.415 . S
C1687 C1686 1.355 . S
C1687 C1689 1.419 . S
C1688 C1686 1.415 . S
C1688 C1693 1.425 . S
C1688 C1695 1.409 . S
C1689 H1681 0.930 . S
C1689 C1687 1.419 . S
C1689 C1690 1.362 . S
C1690 H1682 0.930 . S
C1690 C1689 1.362 . S
C1690 C1693 1.409 . S
C1691 H1683 0.930 . S
C1691 C1692 1.355 . S
C1691 C1693 1.415 . S
C1692 C1691 1.355 . S
C1692 C1694 1.420 . S
C1693 C1688 1.425 . S
C1693 C1690 1.409 . S
C1693 C1691 1.415 . S
C1694 H1684 0.929 1_554 S
C1694 C1692 1.420 . S
C1694 C1695 1.362 . S
C1695 H1685 0.930 1_554 S
C1695 C1688 1.409 . S
C1695 C1694 1.362 . S
H1696 C1702 0.930 . S
H1697 C1705 0.930 1_545 S
H1698 C1706 0.930 . S
H1699 C1707 0.930 . S
H1700 C1710 0.930 . S
H1701 C1711 0.930 . S
C1702 H1696 0.930 . S
C1702 C1703 1.355 . S
C1702 C1704 1.415 . S
C1703 C1702 1.355 . S
C1703 C1705 1.419 . S
C1704 C1702 1.415 . S
C1704 C1709 1.425 . S
C1704 C1711 1.409 . S
C1705 H1697 0.930 1_565 S
C1705 C1703 1.419 . S
C1705 C1706 1.362 . S
C1706 H1698 0.930 . S
C1706 C1705 1.362 . S
C1706 C1709 1.409 . S
C1707 H1699 0.930 . S
C1707 C1708 1.355 . S
C1707 C1709 1.415 . S
C1708 C1707 1.355 . S
C1708 C1710 1.419 . S
C1709 C1704 1.425 . S
C1709 C1706 1.409 . S
C1709 C1707 1.415 . S
C1710 H1700 0.930 . S
C1710 C1708 1.419 . S
C1710 C1711 1.362 . S
C1711 H1701 0.930 . S
C1711 C1704 1.409 . S
C1711 C1710 1.362 . S
C956 C514 1.436 . S
C951 C177 1.388 . S
C972 C562 1.587 . S
C967 C209 1.638 . S
C983 C253 1.402 . S
C988 C598 1.375 . S
C1004 C634 1.550 1_545 S
C999 C157 1.581 . S
C1020 C660 1.466 . S
C1015 C343 1.498 . S
C1036 C696 1.558 . S
C1031 C401 1.541 . S
C1047 C369 1.527 . S
C1052 C731 1.522 . S
C1068 C768 1.588 1_565 S
C1063 C317 1.558 . S
C1079 C375 1.479 . S
C1084 C802 1.431 . S
C1100 C850 1.593 . S
C1095 C305 1.610 . S
C1111 C349 1.478 . S
C1116 C803 1.473 . S
C1132 C840 1.592 . S
C1127 C413 1.545 . S
C1143 C241 1.451 . S
C1148 C886 1.369 . S
C1159 C151 1.565 . S
C1164 C875 1.579 . S
C1175 C189 1.430 . S
C1180 C876 1.503 . S
C1191 C215 1.607 . S
C1196 C874 1.595 1_655 S
C1207 C113 1.452 . S
C1212 C622 1.433 . S
C1223 C471 1.410 . S
C1228 C623 1.457 . S
C1244 C526 1.600 . S
C1239 C509 1.617 . S
C1260 C551 1.466 . S
C1255 C279 1.467 . S
C1271 C145 1.537 . S
C1276 C658 1.556 . S
C1292 C766 1.528 . S
C1287 C381 1.519 . S
C1308 C659 1.594 . S
C1303 C311 1.558 . S
C1324 C732 1.574 . S
C1319 C407 1.517 . S
C1340 C730 1.441 . S
C1335 C465 1.410 . S
C1351 C497 1.637 . S
C1356 C778 1.613 . S
C1367 C285 1.392 . S
C1372 C670 1.383 . S
C1388 C706 1.589 . S
C1383 C445 1.539 . S
C1399 C119 1.497 . S
C1404 C588 1.472 . S
C1420 C624 1.547 . S
C1415 C17 1.520 . S
C1436 C515 1.522 . S
C1431 C49 1.505 . S
C1452 C552 1.596 . S
C1447 C93 1.549 . S
C1463 C55 1.467 . S
C1468 C838 1.454 . S
C1479 C81 1.614 . S
C1484 C814 1.598 1_455 S
C1495 C125 1.485 . S
C1500 C839 1.472 . S
C1511 C29 1.577 . S
C1516 C804 1.602 . S
C1532 C922 1.351 . S
C1527 C273 1.438 . S
C1548 C911 1.573 . S
C1543 C439 1.566 . S
C1564 C912 1.514 . S
C1559 C477 1.465 . S
C1575 C503 1.618 . S
C1580 C910 1.600 . S
C1591 C337 1.471 . S
C1596 C694 1.433 . S
C1612 C695 1.452 . S
C1607 C183 1.417 . S
C1628 C742 1.606 . S
C1623 C221 1.621 . S
C1644 C767 1.467 . S
C1639 C247 1.477 . S
C1655 C433 1.547 . S
C1660 C586 1.558 1_556 S
C1676 C550 1.525 . S
C1671 C61 1.523 . S
C1687 C87 1.590 . S
C1692 C587 1.579 . S
C1708 C516 1.574 . S
C1703 C23 1.516 . S
