# Generated by pormake.
# Topology sit, (3,6)-cn, num edge types: 1
# Building blocks:
#     Node 0, Type 0, BuildingBlock: MIDCAF_clean_linker_0, # of connection points: 3
#     Node 1, Type 0, BuildingBlock: MIDCAF_clean_linker_0, # of connection points: 3
#     Node 2, Type 0, BuildingBlock: MIDCAF_clean_linker_0, # of connection points: 3
#     Node 3, Type 0, BuildingBlock: MIDCAF_clean_linker_0, # of connection points: 3
#     Node 4, Type 1, BuildingBlock: MIDCAF_clean_sbu_0, # of connection points: 6
#     Node 5, Type 1, BuildingBlock: MIDCAF_clean_sbu_0, # of connection points: 6
#     Edge 6, Type (0, 1), BuildingBlock: CIFDUS_clean_linker_0, # of connection points: 2
#     Edge 7, Type (0, 1), BuildingBlock: CIFDUS_clean_linker_0, # of connection points: 2
#     Edge 8, Type (0, 1), BuildingBlock: CIFDUS_clean_linker_0, # of connection points: 2
#     Edge 9, Type (0, 1), BuildingBlock: CIFDUS_clean_linker_0, # of connection points: 2
#     Edge 10, Type (0, 1), BuildingBlock: CIFDUS_clean_linker_0, # of connection points: 2
#     Edge 11, Type (0, 1), BuildingBlock: CIFDUS_clean_linker_0, # of connection points: 2
#     Edge 12, Type (0, 1), BuildingBlock: CIFDUS_clean_linker_0, # of connection points: 2
#     Edge 13, Type (0, 1), BuildingBlock: CIFDUS_clean_linker_0, # of connection points: 2
#     Edge 14, Type (0, 1), BuildingBlock: CIFDUS_clean_linker_0, # of connection points: 2
#     Edge 15, Type (0, 1), BuildingBlock: CIFDUS_clean_linker_0, # of connection points: 2
#     Edge 16, Type (0, 1), BuildingBlock: CIFDUS_clean_linker_0, # of connection points: 2
#     Edge 17, Type (0, 1), BuildingBlock: CIFDUS_clean_linker_0, # of connection points: 2
# Relax obj value: 0.112
# Max RMSD: 0.194
# Mean RMSD: 0.108
data_MOF--net-sit--node1-MIDCAF_clean_sbu_0--node2-MIDCAF_clean_linker_0--edge1-CIFDUS_clean_linker_0
_symmetry_space_group_name_H-M    P1
_symmetry_Int_Tables_number       1
_symmetry_cell_setting            triclinic
loop_
_symmetry_equiv_pos_as_xyz
'x, y, z'
_cell_length_a     25.624467
_cell_length_b     33.503591
_cell_length_c     38.854038
_cell_angle_alpha  90.958098
_cell_angle_beta   88.746073
_cell_angle_gamma 83.976186
loop_
_atom_site_label
_atom_site_type_symbol
_atom_site_fract_x
_atom_site_fract_y
_atom_site_fract_z
_atom_type_partial_charge
C0 C 0.95575 0.44584 0.97295 0.0
C1 C 0.90922 0.44313 -0.00766 0.0
C2 C 0.91206 0.42052 0.02262 0.0
C3 C 0.95922 0.39888 0.03179 0.0
H4 H 0.01044 0.29206 0.0762 0.0
H5 H 0.00101 0.23038 0.10566 0.0
H6 H 0.1563 0.18234 0.06995 0.0
H7 H 0.16655 0.24545 0.04097 0.0
H8 H 0.23765 0.30909 -0.00241 0.0
H9 H 0.31584 0.32706 0.96615 0.0
H10 H 0.24217 0.44807 0.95625 0.0
H11 H 0.16501 0.43069 0.98719 0.0
H12 H 0.03753 0.42661 0.96622 0.0
H13 H 0.95546 0.46224 0.94918 0.0
H14 H 0.87753 0.4185 0.03879 0.0
H15 H 0.95967 0.38051 0.05448 0.0
N16 N 0.05061 0.33873 0.03488 0.0
N17 N 0.14131 0.32183 0.02576 0.0
N18 N 0.10017 0.38272 0.00577 0.0
C19 C 0.09426 0.31251 0.03869 0.0
C20 C 0.14447 0.35731 0.00954 0.0
C21 C 0.05324 0.37378 0.01838 0.0
C22 C 0.08938 0.27395 0.0562 0.0
C23 C 0.04267 0.26841 0.0743 0.0
C24 C 0.03696 0.2326 0.09098 0.0
C25 C 0.07756 0.20088 0.08989 0.0
C26 C 0.12426 0.20614 0.0715 0.0
C27 C 0.13017 0.24234 0.05489 0.0
C28 C 0.19459 0.36819 -0.00562 0.0
C29 C 0.23853 0.33963 0.98908 0.0
C30 C 0.28327 0.34988 0.97117 0.0
C31 C 0.28454 0.38873 0.95827 0.0
C32 C 0.24182 0.41767 0.96527 0.0
C33 C 0.19752 0.40758 0.98307 0.0
C34 C 0.00488 0.40021 0.01138 0.0
C35 C 0.00304 0.425 0.98256 0.0
C36 C 0.87194 0.58987 0.01817 0.0
C37 C 0.82809 0.61723 0.02683 0.0
C38 C 0.83614 0.65362 0.04351 0.0
C39 C 0.88701 0.66329 0.04965 0.0
H40 H 0.97486 0.74972 0.09368 0.0
H41 H -0.00531 0.81024 0.12437 0.0
H42 H 0.15624 0.78891 0.08891 0.0
H43 H 0.13697 0.72819 0.05881 0.0
H44 H 0.18004 0.63154 0.04223 0.0
H45 H 0.25271 0.59295 0.01107 0.0
H46 H 0.14312 0.53912 0.94667 0.0
H47 H 0.06995 0.57726 0.97819 0.0
H48 H 0.95526 0.57795 0.01618 0.0
H49 H 0.86743 0.56177 0.00501 0.0
H50 H 0.80317 0.67513 0.05102 0.0
H51 H 0.89185 0.69208 0.06156 0.0
N52 N -0.00573 0.68383 0.05689 0.0
N53 N 0.08433 0.66954 0.04411 0.0
N54 N 0.02587 0.6238 0.02798 0.0
C55 C 0.04396 0.69472 0.05801 0.0
C56 C 0.07555 0.63407 0.02905 0.0
C57 C 0.98501 0.64826 0.04199 0.0
C58 C 0.05446 0.73353 0.07422 0.0
C59 C 0.01452 0.7581 0.0921 0.0
C60 C 0.02575 0.79308 0.10945 0.0
C61 C 0.07714 0.8043 0.10926 0.0
C62 C 0.11641 0.78082 0.08996 0.0
C63 C 0.10527 0.7459 0.07272 0.0
C64 C 0.11929 0.60778 0.01247 0.0
C65 C 0.17133 0.61105 0.02179 0.0
C66 C 0.21291 0.58863 0.00421 0.0
C67 C 0.20337 0.56298 0.9766 0.0
C68 C 0.15137 0.55861 0.96796 0.0
C69 C 0.10964 0.58048 0.98599 0.0
C70 C 0.93089 0.63673 0.03922 0.0
C71 C 0.92259 0.59944 0.0243 0.0
C72 C 0.38372 0.9545 0.51156 0.0
C73 C 0.34671 0.92656 0.51094 0.0
C74 C 0.35829 0.88922 0.52652 0.0
C75 C 0.40818 0.87868 0.53972 0.0
H76 H 0.50845 0.79107 0.59159 0.0
H77 H 0.53372 0.73778 0.63179 0.0
H78 H 0.6917 0.77157 0.63181 0.0
H79 H 0.66674 0.82494 0.59147 0.0
H80 H 0.6978 0.89363 0.53625 0.0
H81 H 0.76181 0.91832 0.49626 0.0
H82 H 0.63634 0.96481 0.43112 0.0
H83 H 0.57225 0.94111 0.471 0.0
H84 H 0.46185 0.96565 0.52311 0.0
H85 H 0.37527 0.9837 0.50015 0.0
H86 H 0.3302 0.86721 0.52626 0.0
H87 H 0.41753 0.84873 0.54944 0.0
N88 N 0.51727 0.86004 0.56323 0.0
N89 N 0.60589 0.86581 0.5491 0.0
N90 N 0.53971 0.91012 0.52605 0.0
C91 C 0.5691 0.84704 0.56651 0.0
C92 C 0.59126 0.89728 0.52864 0.0
C93 C 0.50253 0.89203 0.54332 0.0
C94 C 0.58538 0.81264 0.58867 0.0
C95 C 0.54873 0.78694 0.59984 0.0
C96 C 0.56333 0.75608 0.62253 0.0
C97 C 0.61469 0.75056 0.63481 0.0
C98 C 0.65184 0.77526 0.62272 0.0
C99 C 0.63745 0.80582 0.59967 0.0
C100 C 0.63005 0.91521 0.50672 0.0
C101 C 0.68385 0.90963 0.51368 0.0
C102 C 0.72036 0.92392 0.491 0.0
C103 C 0.70361 0.94333 0.46081 0.0
C104 C 0.64992 0.94991 0.45431 0.0
C105 C 0.61341 0.93635 0.47722 0.0
C106 C 0.44682 0.90542 0.53735 0.0
C107 C 0.43325 0.94407 0.52466 0.0
C108 C 0.39265 0.1456 0.4718 0.0
C109 C 0.34437 0.14753 0.49 0.0
C110 C 0.34133 0.1636 0.52386 0.0
C111 C 0.38516 0.17811 0.53871 0.0
H112 H 0.42952 0.27634 0.60247 0.0
H113 H 0.42269 0.33676 0.6395 0.0
H114 H 0.58908 0.34349 0.62539 0.0
H115 H 0.59614 0.28402 0.58867 0.0
H116 H 0.65967 0.23297 0.52903 0.0
H117 H 0.74164 0.2116 0.49821 0.0
H118 H 0.68314 0.09915 0.4707 0.0
H119 H 0.6002 0.12141 0.5003 0.0
H120 H 0.47264 0.15762 0.47171 0.0
H121 H 0.39656 0.13472 0.44539 0.0
H122 H 0.3051 0.16513 0.53891 0.0
H123 H 0.38161 0.19072 0.56461 0.0
N124 N 0.47486 0.22306 0.558 0.0
N125 N 0.56628 0.22497 0.55557 0.0
N126 N 0.52805 0.17756 0.52237 0.0
C127 C 0.5182 0.23973 0.56858 0.0
C128 C 0.57151 0.19366 0.53269 0.0
C129 C 0.47973 0.19195 0.53476 0.0
C130 C 0.51335 0.27528 0.59233 0.0
C131 C 0.46464 0.29072 0.60731 0.0
C132 C 0.46066 0.32525 0.62858 0.0
C133 C 0.50517 0.34522 0.63491 0.0
C134 C 0.5538 0.32935 0.6204 0.0
C135 C 0.55788 0.29491 0.59949 0.0
C136 C 0.62329 0.17902 0.51698 0.0
C137 C 0.66447 0.20354 0.5167 0.0
C138 C 0.71165 0.19113 0.49909 0.0
C139 C 0.71915 0.15361 0.48177 0.0
C140 C 0.67847 0.12855 0.48308 0.0
C141 C 0.631 0.14121 0.50029 0.0
C142 C 0.43312 0.176 0.52027 0.0
C143 C 0.43645 0.15918 0.48685 0.0
Zn144 Zn 0.04739 0.10727 0.31946 0.0
Zn145 Zn 0.05066 0.94915 0.32895 0.0
Zn146 Zn 0.05433 0.02669 0.32105 0.0
C147 C 0.07122 0.96172 0.25897 0.0
C148 C 0.95616 0.98307 0.35276 0.0
O149 O 0.12033 0.04611 0.35058 0.0
O150 O 0.10504 0.1125 0.35183 0.0
C151 C 0.06846 0.07473 0.2518 0.0
O152 O 0.0627 0.99895 0.26842 0.0
O153 O 0.07158 0.93438 0.28095 0.0
O154 O 0.97647 0.94847 0.34376 0.0
O155 O 0.98052 1.01412 0.34694 0.0
O156 O 0.06262 0.10714 0.26919 0.0
O157 O 0.06527 0.04076 0.26625 0.0
O158 O 0.97857 0.05574 0.3434 0.0
O159 O 0.9755 0.12167 0.33808 0.0
C160 C 0.95436 0.09129 0.34769 0.0
O161 O 0.12019 1.00368 0.35327 0.0
O162 O 0.10424 0.94143 0.36482 0.0
C163 C 0.13202 0.08083 0.36075 0.0
C164 C 0.13145 0.97032 0.36886 0.0
Zn165 Zn 0.52153 0.61669 0.85078 0.0
Zn166 Zn 0.62126 0.48823 0.83137 0.0
Zn167 Zn 0.56672 0.54698 0.84493 0.0
C168 C 0.53947 0.49362 0.78746 0.0
C169 C 0.53633 0.46534 0.87004 0.0
O170 O 0.5937 0.56862 0.89387 0.0
O171 O 0.55549 0.63074 0.89506 0.0
C172 C 0.58276 0.60781 0.78816 0.0
O173 O 0.51837 0.50726 0.81631 0.0
O174 O 0.58902 0.49084 0.78401 0.0
O175 O 0.5853 0.45476 0.86861 0.0
O176 O 0.51854 0.49788 0.85491 0.0
O177 O 0.55361 0.6331 0.80636 0.0
O178 O 0.59257 0.57181 0.79803 0.0
O179 O 0.48512 0.53523 0.85146 0.0
O180 O 0.44911 0.59825 0.85276 0.0
C181 C 0.44438 0.56108 0.85408 0.0
O182 O 0.63162 0.5352 0.88075 0.0
O183 O 0.69027 0.50826 0.84264 0.0
C184 C 0.58538 0.6033 0.90875 0.0
C185 C 0.67961 0.5237 0.87216 0.0
H186 H 0.15249 0.15689 0.12654 0.0
H187 H -0.01051 0.16187 0.09938 0.0
H188 H 0.97402 0.11412 0.14414 0.0
H189 H 0.00299 0.08261 0.1984 0.0
H190 H 0.16553 0.07777 0.2252 0.0
H191 H 0.18561 0.11219 0.17231 0.0
C192 C 0.11398 0.14655 0.12946 0.0
C193 C 0.07183 0.16424 0.11038 0.0
C194 C 0.10526 0.11897 0.15531 0.0
C195 C 0.02227 0.15006 0.11461 0.0
C196 C 0.01337 0.12251 0.1401 0.0
C197 C 0.04317 0.08733 0.19164 0.0
C198 C 0.08286 0.07763 0.21529 0.0
C199 C 0.05396 0.1084 0.16176 0.0
C200 C 0.13464 0.08455 0.20692 0.0
C201 C 0.14592 0.1048 0.17698 0.0
H202 H 0.02356 0.87898 0.12104 0.0
H203 H 0.16187 0.80328 0.1501 0.0
H204 H 0.17887 0.85144 0.19482 0.0
H205 H 0.14631 0.90841 0.23198 0.0
H206 H 0.007 0.98385 0.20575 0.0
H207 H -0.00088 0.94327 0.15321 0.0
C208 C 0.05778 0.87339 0.13688 0.0
C209 C 0.09103 0.83727 0.13239 0.0
C210 C 0.06711 0.90118 0.1631 0.0
C211 C 0.13574 0.83079 0.15274 0.0
C212 C 0.1454 0.85825 0.17854 0.0
C213 C 0.11537 0.9168 0.21402 0.0
C214 C 0.07712 0.94872 0.22259 0.0
C215 C 0.11033 0.89268 0.18475 0.0
C216 C 0.0371 0.95951 0.19939 0.0
C217 C 0.03218 0.9359 0.16969 0.0
H218 H 0.59478 0.67234 0.63945 0.0
H219 H 0.66136 0.76702 0.6945 0.0
H220 H 0.66589 0.72707 0.7464 0.0
H221 H 0.63697 0.67067 0.77832 0.0
H222 H 0.57032 0.57551 0.72447 0.0
H223 H 0.58044 0.6097 0.66967 0.0
C224 C 0.61122 0.68374 0.66268 0.0
C225 C 0.62709 0.7227 0.66336 0.0
C226 C 0.61332 0.66067 0.69259 0.0
C227 C 0.64902 0.73708 0.69336 0.0
C228 C 0.65128 0.71439 0.72311 0.0
C229 C 0.6263 0.65691 0.75434 0.0
C230 C 0.60276 0.621 0.75508 0.0
C231 C 0.63163 0.67692 0.72334 0.0
C232 C 0.58891 0.6031 0.72418 0.0
C233 C 0.59415 0.62287 0.69302 0.0
H234 H 0.45503 0.36011 0.69756 0.0
H235 H 0.5488 0.41381 0.62104 0.0
H236 H 0.55927 0.4696 0.66043 0.0
H237 H 0.55407 0.49694 0.71922 0.0
H238 H 0.4629 0.44337 0.79681 0.0
H239 H 0.43744 0.39462 0.7543 0.0
C240 C 0.47658 0.38456 0.68927 0.0
C241 C 0.50221 0.38232 0.65672 0.0
C242 C 0.48296 0.41654 0.7123 0.0
C243 C 0.52987 0.41431 0.64628 0.0
C244 C 0.53573 0.44631 0.66873 0.0
C245 C 0.52722 0.47537 0.7265 0.0
C246 C 0.51046 0.47356 0.76103 0.0
C247 C 0.5143 0.44684 0.70221 0.0
C248 C 0.47574 0.44562 0.77031 0.0
C249 C 0.46188 0.41735 0.74606 0.0
H250 H 0.39043 0.3758 0.96875 0.0
H251 H 0.276 0.42513 0.89685 0.0
H252 H 0.34519 0.449 0.86127 0.0
H253 H 0.43609 0.46126 0.85328 0.0
H254 H 0.5524 0.41499 0.92483 0.0
H255 H 0.48488 0.38368 0.9576 0.0
C256 C 0.38098 0.39123 0.94501 0.0
C257 C 0.32819 0.39915 0.93563 0.0
C258 C 0.42115 0.40541 0.92473 0.0
C259 C 0.31628 0.41924 0.90486 0.0
C260 C 0.35579 0.43271 0.88441 0.0
C261 C 0.44698 0.44374 0.87569 0.0
C262 C 0.49891 0.44075 0.88684 0.0
C263 C 0.40807 0.42679 0.89452 0.0
C264 C 0.51251 0.41775 0.91581 0.0
C265 C 0.47386 0.40014 0.93464 0.0
H266 H 0.75374 0.67096 0.00015 0.0
H267 H 0.78378 0.5459 0.02583 0.0
H268 H 0.70529 0.53126 -0.00448 0.0
H269 H 0.63699 0.55224 0.95372 0.0
H270 H 0.60753 0.67759 0.92899 0.0
H271 H 0.67638 0.69374 0.9674 0.0
C272 C 0.74255 0.64063 -3e-05 0.0
C273 C 0.7753 0.60951 0.01475 0.0
C274 C 0.69801 0.63223 0.98199 0.0
C275 C 0.76005 0.57034 0.01397 0.0
C276 C 0.71524 0.56188 -0.00345 0.0
C277 C 0.64515 0.58314 0.95719 0.0
C278 C 0.61806 0.61347 0.93788 0.0
C279 C 0.68536 0.59227 0.9791 0.0
C280 C 0.62805 0.65354 0.9433 0.0
C281 C 0.66774 0.66284 0.9651 0.0
H282 H 0.88686 0.51164 0.95522 0.0
H283 H 0.81465 0.41205 -0.00175 0.0
H284 H 0.73412 0.43283 0.9688 0.0
H285 H 0.68814 0.47316 0.92448 0.0
H286 H 0.76291 0.56756 0.87611 0.0
H287 H 0.83849 0.55495 0.91372 0.0
C288 C 0.85362 0.49439 0.95825 0.0
C289 C 0.85759 0.45997 0.97881 0.0
C290 C 0.80792 0.50536 0.93987 0.0
C291 C 0.81316 0.43891 0.98308 0.0
C292 C 0.76703 0.45044 0.96581 0.0
C293 C 0.72073 0.49132 0.92275 0.0
C294 C 0.72051 0.5212 0.89796 0.0
C295 C 0.76463 0.48269 0.94326 0.0
C296 C 0.7627 0.54448 0.8953 0.0
C297 C 0.8058 0.53712 0.91662 0.0
H298 H 0.21412 0.57003 0.90785 0.0
H299 H 0.29273 0.5182 -0.00398 0.0
H300 H 0.37432 0.50454 0.96188 0.0
H301 H 0.42637 0.52093 0.91122 0.0
H302 H 0.34945 0.57842 0.82498 0.0
H303 H 0.26381 0.57622 0.85381 0.0
C304 C 0.24872 0.55458 0.91921 0.0
C305 C 0.24787 0.54551 0.95439 0.0
C306 C 0.29587 0.54856 0.89988 0.0
C307 C 0.29291 0.52585 0.96904 0.0
C308 C 0.33949 0.51825 0.9496 0.0
C309 C 0.39056 0.53124 0.89818 0.0
C310 C 0.39366 0.54911 0.8659 0.0
C311 C 0.34201 0.53142 0.91558 0.0
C312 C 0.34751 0.56398 0.84966 0.0
C313 C 0.29876 0.56301 0.86626 0.0
H314 H 0.78141 0.99137 0.46862 0.0
H315 H 0.71193 0.91686 0.39466 0.0
H316 H 0.78212 0.92578 0.35274 0.0
H317 H 0.86795 0.94906 0.33956 0.0
H318 H 0.93719 0.02431 0.41296 0.0
H319 H 0.86202 1.02166 0.45255 0.0
C320 C 0.78157 0.9776 0.44314 0.0
C321 C 0.74233 0.95321 0.43463 0.0
C322 C 0.82186 0.983 0.41921 0.0
C323 C 0.74205 0.93576 0.40155 0.0
C324 C 0.78216 0.94071 0.3777 0.0
C325 C 0.86588 0.96537 0.364 0.0
C326 C 0.90744 0.98688 0.37352 0.0
C327 C 0.82292 0.96341 0.38658 0.0
C328 C 0.905 1.00792 0.40515 0.0
C329 C 0.86238 1.00611 0.42785 0.0
H330 H 0.34003 0.08656 0.44266 0.0
H331 H 0.2419 0.18047 0.49783 0.0
H332 H 0.16671 0.16496 0.46487 0.0
H333 H 0.13045 0.12926 0.41671 0.0
H334 H 0.23135 0.04374 0.35554 0.0
H335 H 0.30425 0.05166 0.39409 0.0
C336 C 0.30242 0.104 0.44739 0.0
C337 C 0.29721 0.13501 0.47263 0.0
C338 C 0.25982 0.09639 0.42711 0.0
C339 C 0.24741 0.15614 0.47899 0.0
C340 C 0.20433 0.14764 0.45982 0.0
C341 C 0.16839 0.11217 0.41209 0.0
C342 C 0.17542 0.08461 0.38431 0.0
C343 C 0.21041 0.11853 0.4333 0.0
C344 C 0.22467 0.06322 0.37801 0.0
C345 C 0.2664 0.0684 0.39964 0.0
H346 H 0.34549 0.94818 0.4449 0.0
H347 H 0.2438 0.92122 0.52929 0.0
H348 H 0.16708 0.93373 0.49263 0.0
H349 H 0.12972 0.95194 0.43608 0.0
H350 H 0.23317 0.97355 0.35118 0.0
H351 H 0.30903 0.96396 0.38857 0.0
C352 C 0.3064 0.94549 0.45533 0.0
C353 C 0.29984 0.93444 0.48973 0.0
C354 C 0.26317 0.95197 0.43407 0.0
C355 C 0.24941 0.92993 0.50285 0.0
C356 C 0.20576 0.93709 0.48195 0.0
C357 C 0.16898 0.95479 0.42606 0.0
C358 C 0.17633 0.96507 0.39155 0.0
C359 C 0.21226 0.94808 0.4475 0.0
C360 C 0.227 0.96744 0.37818 0.0
C361 C 0.27017 0.96151 0.39939 0.0
H362 H 0.73085 0.11195 0.42028 0.0
H363 H 0.81913 0.1676 0.4979 0.0
H364 H 0.89893 0.15349 0.46276 0.0
H365 H 0.94337 0.12758 0.40927 0.0
H366 H 0.85802 0.06797 0.33311 0.0
H367 H 0.77718 0.08069 0.36871 0.0
C368 C 0.76762 0.1204 0.42988 0.0
C369 C 0.76854 0.14147 0.46158 0.0
C370 C 0.81376 0.11164 0.40973 0.0
C371 C 0.81674 0.15237 0.47327 0.0
C372 C 0.86257 0.14409 0.45329 0.0
C373 C 0.90689 0.11748 0.40058 0.0
C374 C 0.90587 0.09744 0.36871 0.0
C375 C 0.86135 0.12435 0.42131 0.0
C376 C 0.85908 0.0838 0.35758 0.0
C377 C 0.81313 0.09105 0.37791 0.0
loop_
_geom_bond_atom_site_label_1
_geom_bond_atom_site_label_2
_geom_bond_distance
_geom_bond_site_symmetry_2
_ccdc_geom_bond_type
C0 C1 1.384 . S
C0 H13 0.947 . S
C0 C35 1.382 1_655 S
C1 C0 1.384 . S
C1 C2 1.378 . S
C2 C1 1.378 . S
C2 C3 1.378 1_556 S
C2 H14 0.952 1_556 S
C3 C2 1.378 1_554 S
C3 H15 0.950 . S
C3 C34 1.383 1_654 S
H4 C23 0.947 . S
H5 C24 0.946 . S
H6 C26 0.953 . S
H7 C27 0.945 . S
H8 C29 0.952 . S
H9 C30 0.949 1_554 S
H10 C32 0.950 . S
H11 C33 0.948 . S
H12 C35 0.951 . S
H13 C0 0.947 . S
H14 C2 0.952 1_554 S
H15 C3 0.950 . S
N16 C19 1.382 . S
N16 C21 1.363 . S
N17 C19 1.371 . S
N17 C20 1.372 . S
N18 C20 1.366 . S
N18 C21 1.381 . S
C19 N16 1.382 . S
C19 N17 1.371 . S
C19 C22 1.480 . S
C20 N17 1.372 . S
C20 N18 1.366 . S
C20 C28 1.457 . S
C21 N16 1.363 . S
C21 N18 1.381 . S
C21 C34 1.479 1_554 S
C22 C19 1.480 . S
C22 C23 1.383 . S
C22 C27 1.385 . S
C23 H4 0.947 . S
C23 C22 1.383 . S
C23 C24 1.388 . S
C24 H5 0.946 . S
C24 C23 1.388 . S
C24 C25 1.384 . S
C25 C24 1.384 . S
C25 C26 1.377 . S
C26 H6 0.953 . S
C26 C25 1.377 . S
C26 C27 1.369 . S
C27 H7 0.945 . S
C27 C22 1.385 . S
C27 C26 1.369 . S
C28 C20 1.457 . S
C28 C29 1.372 . S
C28 C33 1.364 1_554 S
C29 H8 0.952 . S
C29 C28 1.372 . S
C29 C30 1.389 1_554 S
C30 H9 0.949 1_556 S
C30 C29 1.389 1_556 S
C30 C31 1.387 . S
C31 C30 1.387 . S
C31 C32 1.372 . S
C32 H10 0.950 . S
C32 C31 1.372 . S
C32 C33 1.379 . S
C33 H11 0.948 . S
C33 C28 1.364 1_556 S
C33 C32 1.379 . S
C34 C3 1.383 1_456 S
C34 C21 1.479 1_556 S
C34 C35 1.398 . S
C35 C0 1.382 1_455 S
C35 H12 0.951 . S
C35 C34 1.398 . S
C36 C37 1.384 . S
C36 H49 0.947 . S
C36 C71 1.382 . S
C37 C36 1.384 . S
C37 C38 1.378 . S
C38 C37 1.378 . S
C38 C39 1.378 1_556 S
C38 H50 0.952 1_556 S
C39 C38 1.378 1_554 S
C39 H51 0.950 . S
C39 C70 1.383 1_554 S
H40 C59 0.947 . S
H41 C60 0.946 . S
H42 C62 0.953 . S
H43 C63 0.945 . S
H44 C65 0.952 . S
H45 C66 0.949 1_554 S
H46 C68 0.950 . S
H47 C69 0.948 . S
H48 C71 0.951 . S
H49 C36 0.947 . S
H50 C38 0.952 1_554 S
H51 C39 0.950 . S
N52 C55 1.382 1_655 S
N52 C57 1.363 . S
N53 C55 1.371 . S
N53 C56 1.372 . S
N54 C56 1.361 1_556 S
N54 C57 1.377 1_456 S
C55 N52 1.382 1_455 S
C55 N53 1.371 . S
C55 C58 1.480 . S
C56 N53 1.372 . S
C56 N54 1.361 1_554 S
C56 C64 1.457 1_554 S
C57 N52 1.363 . S
C57 N54 1.377 1_654 S
C57 C70 1.479 1_554 S
C58 C55 1.480 . S
C58 C59 1.383 1_455 S
C58 C63 1.385 . S
C59 H40 0.947 . S
C59 C58 1.383 1_655 S
C59 C60 1.388 . S
C60 H41 0.946 . S
C60 C59 1.388 . S
C60 C61 1.384 1_655 S
C61 C60 1.384 1_455 S
C61 C62 1.377 . S
C62 H42 0.953 . S
C62 C61 1.377 . S
C62 C63 1.369 . S
C63 H43 0.945 . S
C63 C58 1.385 . S
C63 C62 1.369 . S
C64 C56 1.457 1_556 S
C64 C65 1.372 1_556 S
C64 C69 1.364 . S
C65 H44 0.952 . S
C65 C64 1.372 1_554 S
C65 C66 1.389 1_554 S
C66 H45 0.949 1_556 S
C66 C65 1.389 1_556 S
C66 C67 1.387 . S
C67 C66 1.387 . S
C67 C68 1.372 . S
C68 H46 0.950 . S
C68 C67 1.372 . S
C68 C69 1.379 . S
C69 H47 0.948 . S
C69 C64 1.364 . S
C69 C68 1.379 . S
C70 C39 1.383 1_556 S
C70 C57 1.479 1_556 S
C70 C71 1.398 . S
C71 C36 1.382 . S
C71 H48 0.951 . S
C71 C70 1.398 . S
C72 C73 1.384 . S
C72 H85 0.947 . S
C72 C107 1.382 . S
C73 C72 1.384 . S
C73 C74 1.378 . S
C74 C73 1.378 . S
C74 C75 1.378 . S
C74 H86 0.952 . S
C75 C74 1.378 . S
C75 H87 0.950 . S
C75 C106 1.383 . S
H76 C95 0.947 . S
H77 C96 0.946 . S
H78 C98 0.953 . S
H79 C99 0.945 . S
H80 C101 0.952 . S
H81 C102 0.949 . S
H82 C104 0.950 . S
H83 C105 0.948 . S
H84 C107 0.951 . S
H85 C72 0.947 . S
H86 C74 0.952 . S
H87 C75 0.950 . S
N88 C91 1.382 . S
N88 C93 1.363 . S
N89 C91 1.371 . S
N89 C92 1.372 . S
N90 C92 1.361 . S
N90 C93 1.377 . S
C91 N88 1.382 . S
C91 N89 1.371 . S
C91 C94 1.480 . S
C92 N89 1.372 . S
C92 N90 1.361 . S
C92 C100 1.457 . S
C93 N88 1.363 . S
C93 N90 1.377 . S
C93 C106 1.479 . S
C94 C91 1.480 . S
C94 C95 1.383 . S
C94 C99 1.385 . S
C95 H76 0.947 . S
C95 C94 1.383 . S
C95 C96 1.388 . S
C96 H77 0.946 . S
C96 C95 1.388 . S
C96 C97 1.384 . S
C97 C96 1.384 . S
C97 C98 1.377 . S
C98 H78 0.953 . S
C98 C97 1.377 . S
C98 C99 1.369 . S
C99 H79 0.945 . S
C99 C94 1.385 . S
C99 C98 1.369 . S
C100 C92 1.457 . S
C100 C101 1.372 . S
C100 C105 1.364 . S
C101 H80 0.952 . S
C101 C100 1.372 . S
C101 C102 1.389 . S
C102 H81 0.949 . S
C102 C101 1.389 . S
C102 C103 1.387 . S
C103 C102 1.387 . S
C103 C104 1.372 . S
C104 H82 0.950 . S
C104 C103 1.372 . S
C104 C105 1.379 . S
C105 H83 0.948 . S
C105 C100 1.364 . S
C105 C104 1.379 . S
C106 C75 1.383 . S
C106 C93 1.479 . S
C106 C107 1.398 . S
C107 C72 1.382 . S
C107 H84 0.951 . S
C107 C106 1.398 . S
C108 C109 1.384 . S
C108 H121 0.947 . S
C108 C143 1.382 . S
C109 C108 1.384 . S
C109 C110 1.378 . S
C110 C109 1.378 . S
C110 C111 1.378 . S
C110 H122 0.952 . S
C111 C110 1.378 . S
C111 H123 0.950 . S
C111 C142 1.383 . S
H112 C131 0.947 . S
H113 C132 0.946 . S
H114 C134 0.953 . S
H115 C135 0.945 . S
H116 C137 0.952 . S
H117 C138 0.949 . S
H118 C140 0.950 . S
H119 C141 0.948 . S
H120 C143 0.951 . S
H121 C108 0.947 . S
H122 C110 0.952 . S
H123 C111 0.950 . S
N124 C127 1.382 . S
N124 C129 1.363 . S
N125 C127 1.371 . S
N125 C128 1.372 . S
N126 C128 1.361 . S
N126 C129 1.377 . S
C127 N124 1.382 . S
C127 N125 1.371 . S
C127 C130 1.480 . S
C128 N125 1.372 . S
C128 N126 1.361 . S
C128 C136 1.457 . S
C129 N124 1.363 . S
C129 N126 1.377 . S
C129 C142 1.479 . S
C130 C127 1.480 . S
C130 C131 1.383 . S
C130 C135 1.385 . S
C131 H112 0.947 . S
C131 C130 1.383 . S
C131 C132 1.388 . S
C132 H113 0.946 . S
C132 C131 1.388 . S
C132 C133 1.384 . S
C133 C132 1.384 . S
C133 C134 1.377 . S
C134 H114 0.953 . S
C134 C133 1.377 . S
C134 C135 1.369 . S
C135 H115 0.945 . S
C135 C130 1.385 . S
C135 C134 1.369 . S
C136 C128 1.457 . S
C136 C137 1.372 . S
C136 C141 1.364 . S
C137 H116 0.952 . S
C137 C136 1.372 . S
C137 C138 1.389 . S
C138 H117 0.949 . S
C138 C137 1.389 . S
C138 C139 1.387 . S
C139 C138 1.387 . S
C139 C140 1.372 . S
C140 H118 0.950 . S
C140 C139 1.372 . S
C140 C141 1.379 . S
C141 H119 0.948 . S
C141 C136 1.364 . S
C141 C140 1.379 . S
C142 C111 1.383 . S
C142 C129 1.479 . S
C142 C143 1.398 . S
C143 C108 1.382 . S
C143 H120 0.951 . S
C143 C142 1.398 . S
Zn144 O150 1.920 . S
Zn144 O156 1.898 . S
Zn144 O159 1.905 1_455 S
Zn145 O153 1.905 . S
Zn145 O154 1.898 . S
Zn145 O162 1.920 . S
Zn146 O149 2.080 . S
Zn146 O152 2.114 1_545 S
Zn146 O155 2.120 1_545 S
Zn146 O157 2.120 . S
Zn146 O158 2.114 1_455 S
Zn146 O161 2.080 1_545 S
C147 O152 1.166 . S
C147 O153 1.182 . S
C148 O154 1.167 . S
C148 O155 1.299 . S
O149 Zn146 2.080 . S
O149 C163 1.305 . S
O150 Zn144 1.920 . S
O150 C163 1.234 . S
C151 O156 1.167 . S
C151 O157 1.299 . S
O152 Zn146 2.114 1_565 S
O152 C147 1.166 . S
O153 Zn145 1.905 . S
O153 C147 1.182 . S
O154 Zn145 1.898 . S
O154 C148 1.167 . S
O155 Zn146 2.120 1_565 S
O155 C148 1.299 . S
O156 Zn144 1.898 . S
O156 C151 1.167 . S
O157 Zn146 2.120 . S
O157 C151 1.299 . S
O158 Zn146 2.114 1_655 S
O158 C160 1.166 . S
O159 Zn144 1.905 1_655 S
O159 C160 1.182 . S
C160 O158 1.166 . S
C160 O159 1.182 . S
O161 Zn146 2.080 1_565 S
O161 C164 1.305 . S
O162 Zn145 1.920 . S
O162 C164 1.234 . S
C163 O149 1.305 . S
C163 O150 1.234 . S
C164 O161 1.305 . S
C164 O162 1.234 . S
Zn165 O171 1.920 . S
Zn165 O177 1.898 . S
Zn165 O180 1.905 . S
Zn166 O174 1.905 . S
Zn166 O175 1.898 . S
Zn166 O183 1.920 . S
Zn167 O170 2.080 . S
Zn167 O173 2.114 . S
Zn167 O176 2.120 . S
Zn167 O178 2.120 . S
Zn167 O179 2.114 . S
Zn167 O182 2.080 . S
C168 O173 1.166 . S
C168 O174 1.182 . S
C169 O175 1.167 . S
C169 O176 1.299 . S
O170 Zn167 2.080 . S
O170 C184 1.305 . S
O171 Zn165 1.920 . S
O171 C184 1.234 . S
C172 O177 1.167 . S
C172 O178 1.299 . S
O173 Zn167 2.114 . S
O173 C168 1.166 . S
O174 Zn166 1.905 . S
O174 C168 1.182 . S
O175 Zn166 1.898 . S
O175 C169 1.167 . S
O176 Zn167 2.120 . S
O176 C169 1.299 . S
O177 Zn165 1.898 . S
O177 C172 1.167 . S
O178 Zn167 2.120 . S
O178 C172 1.299 . S
O179 Zn167 2.114 . S
O179 C181 1.166 . S
O180 Zn165 1.905 . S
O180 C181 1.182 . S
C181 O179 1.166 . S
C181 O180 1.182 . S
O182 Zn167 2.080 . S
O182 C185 1.305 . S
O183 Zn166 1.920 . S
O183 C185 1.234 . S
C184 O170 1.305 . S
C184 O171 1.234 . S
C185 O182 1.305 . S
C185 O183 1.234 . S
H186 C192 0.930 . S
H187 C195 0.930 . S
H188 C196 0.930 . S
H189 C197 0.930 . S
H190 C200 0.930 . S
H191 C201 0.930 . S
C192 H186 0.930 . S
C192 C193 1.355 . S
C192 C194 1.415 . S
C193 C192 1.355 . S
C193 C195 1.419 . S
C194 C192 1.415 . S
C194 C199 1.425 . S
C194 C201 1.409 . S
C195 H187 0.930 . S
C195 C193 1.419 . S
C195 C196 1.362 . S
C196 H188 0.930 . S
C196 C195 1.362 . S
C196 C199 1.409 . S
C197 H189 0.930 . S
C197 C198 1.355 . S
C197 C199 1.415 . S
C198 C197 1.355 . S
C198 C200 1.419 . S
C199 C194 1.425 . S
C199 C196 1.409 . S
C199 C197 1.415 . S
C200 H190 0.930 . S
C200 C198 1.419 . S
C200 C201 1.362 . S
C201 H191 0.930 . S
C201 C194 1.409 . S
C201 C200 1.362 . S
H202 C208 0.930 . S
H203 C211 0.930 . S
H204 C212 0.930 . S
H205 C213 0.930 . S
H206 C216 0.930 . S
H207 C217 0.930 . S
C208 H202 0.930 . S
C208 C209 1.355 1_655 S
C208 C210 1.415 . S
C209 C208 1.355 1_455 S
C209 C211 1.419 . S
C210 C208 1.415 . S
C210 C215 1.425 1_655 S
C210 C217 1.409 . S
C211 H203 0.930 . S
C211 C209 1.419 . S
C211 C212 1.362 . S
C212 H204 0.930 . S
C212 C211 1.362 . S
C212 C215 1.409 . S
C213 H205 0.930 . S
C213 C214 1.355 . S
C213 C215 1.415 . S
C214 C213 1.355 . S
C214 C216 1.419 1_455 S
C215 C210 1.425 1_455 S
C215 C212 1.409 . S
C215 C213 1.415 . S
C216 H206 0.930 . S
C216 C214 1.419 1_655 S
C216 C217 1.362 . S
C217 H207 0.930 . S
C217 C210 1.409 . S
C217 C216 1.362 . S
H218 C224 0.930 . S
H219 C227 0.930 . S
H220 C228 0.930 . S
H221 C229 0.930 . S
H222 C232 0.930 . S
H223 C233 0.930 . S
C224 H218 0.930 . S
C224 C225 1.355 . S
C224 C226 1.415 . S
C225 C224 1.355 . S
C225 C227 1.419 . S
C226 C224 1.415 . S
C226 C231 1.425 . S
C226 C233 1.409 . S
C227 H219 0.930 . S
C227 C225 1.419 . S
C227 C228 1.362 . S
C228 H220 0.930 . S
C228 C227 1.362 . S
C228 C231 1.409 . S
C229 H221 0.930 . S
C229 C230 1.355 . S
C229 C231 1.415 . S
C230 C229 1.355 . S
C230 C232 1.419 . S
C231 C226 1.425 . S
C231 C228 1.409 . S
C231 C229 1.415 . S
C232 H222 0.930 . S
C232 C230 1.419 . S
C232 C233 1.362 . S
C233 H223 0.930 . S
C233 C226 1.409 . S
C233 C232 1.362 . S
H234 C240 0.930 . S
H235 C243 0.930 . S
H236 C244 0.930 . S
H237 C245 0.930 . S
H238 C248 0.930 . S
H239 C249 0.930 . S
C240 H234 0.930 . S
C240 C241 1.355 . S
C240 C242 1.415 . S
C241 C240 1.355 . S
C241 C243 1.419 . S
C242 C240 1.415 . S
C242 C247 1.425 . S
C242 C249 1.409 . S
C243 H235 0.930 . S
C243 C241 1.419 . S
C243 C244 1.362 . S
C244 H236 0.930 . S
C244 C243 1.362 . S
C244 C247 1.409 . S
C245 H237 0.930 . S
C245 C246 1.355 . S
C245 C247 1.415 . S
C246 C245 1.355 . S
C246 C248 1.419 . S
C247 C242 1.425 . S
C247 C244 1.409 . S
C247 C245 1.415 . S
C248 H238 0.930 . S
C248 C246 1.419 . S
C248 C249 1.362 . S
C249 H239 0.930 . S
C249 C242 1.409 . S
C249 C248 1.362 . S
H250 C256 0.930 . S
H251 C259 0.930 . S
H252 C260 0.930 . S
H253 C261 0.930 . S
H254 C264 0.930 . S
H255 C265 0.930 . S
C256 H250 0.930 . S
C256 C257 1.355 . S
C256 C258 1.415 . S
C257 C256 1.355 . S
C257 C259 1.419 . S
C258 C256 1.415 . S
C258 C263 1.425 . S
C258 C265 1.409 . S
C259 H251 0.930 . S
C259 C257 1.419 . S
C259 C260 1.362 . S
C260 H252 0.930 . S
C260 C259 1.362 . S
C260 C263 1.409 . S
C261 H253 0.930 . S
C261 C262 1.355 . S
C261 C263 1.415 . S
C262 C261 1.355 . S
C262 C264 1.419 . S
C263 C258 1.425 . S
C263 C260 1.409 . S
C263 C261 1.415 . S
C264 H254 0.930 . S
C264 C262 1.419 . S
C264 C265 1.362 . S
C265 H255 0.930 . S
C265 C258 1.409 . S
C265 C264 1.362 . S
H266 C272 0.930 . S
H267 C275 0.930 . S
H268 C276 0.930 . S
H269 C277 0.930 . S
H270 C280 0.930 . S
H271 C281 0.930 . S
C272 H266 0.930 . S
C272 C273 1.355 . S
C272 C274 1.415 . S
C273 C272 1.355 . S
C273 C275 1.419 . S
C274 C272 1.415 . S
C274 C279 1.425 . S
C274 C281 1.409 . S
C275 H267 0.930 . S
C275 C273 1.419 . S
C275 C276 1.362 . S
C276 H268 0.930 . S
C276 C275 1.362 . S
C276 C279 1.409 . S
C277 H269 0.930 . S
C277 C278 1.355 . S
C277 C279 1.415 . S
C278 C277 1.355 . S
C278 C280 1.419 . S
C279 C274 1.425 . S
C279 C276 1.409 . S
C279 C277 1.415 . S
C280 H270 0.930 . S
C280 C278 1.419 . S
C280 C281 1.362 . S
C281 H271 0.930 . S
C281 C274 1.409 . S
C281 C280 1.362 . S
H282 C288 0.930 . S
H283 C291 0.930 . S
H284 C292 0.930 . S
H285 C293 0.930 . S
H286 C296 0.930 . S
H287 C297 0.930 . S
C288 H282 0.930 . S
C288 C289 1.355 . S
C288 C290 1.415 . S
C289 C288 1.355 . S
C289 C291 1.419 . S
C290 C288 1.415 . S
C290 C295 1.425 . S
C290 C297 1.409 . S
C291 H283 0.930 . S
C291 C289 1.419 . S
C291 C292 1.362 . S
C292 H284 0.930 . S
C292 C291 1.362 . S
C292 C295 1.409 . S
C293 H285 0.930 . S
C293 C294 1.355 . S
C293 C295 1.415 . S
C294 C293 1.355 . S
C294 C296 1.419 . S
C295 C290 1.425 . S
C295 C292 1.409 . S
C295 C293 1.415 . S
C296 H286 0.930 . S
C296 C294 1.419 . S
C296 C297 1.362 . S
C297 H287 0.930 . S
C297 C290 1.409 . S
C297 C296 1.362 . S
H298 C304 0.930 . S
H299 C307 0.930 1_554 S
H300 C308 0.930 . S
H301 C309 0.930 . S
H302 C312 0.930 . S
H303 C313 0.930 . S
C304 H298 0.930 . S
C304 C305 1.355 . S
C304 C306 1.415 . S
C305 C304 1.355 . S
C305 C307 1.419 . S
C306 C304 1.415 . S
C306 C311 1.425 . S
C306 C313 1.409 . S
C307 H299 0.930 1_556 S
C307 C305 1.419 . S
C307 C308 1.362 . S
C308 H300 0.930 . S
C308 C307 1.362 . S
C308 C311 1.409 . S
C309 H301 0.930 . S
C309 C310 1.355 . S
C309 C311 1.415 . S
C310 C309 1.355 . S
C310 C312 1.419 . S
C311 C306 1.425 . S
C311 C308 1.409 . S
C311 C309 1.415 . S
C312 H302 0.930 . S
C312 C310 1.419 . S
C312 C313 1.362 . S
C313 H303 0.930 . S
C313 C306 1.409 . S
C313 C312 1.362 . S
H314 C320 0.930 . S
H315 C323 0.930 . S
H316 C324 0.930 . S
H317 C325 0.930 . S
H318 C328 0.930 . S
H319 C329 0.930 . S
C320 H314 0.930 . S
C320 C321 1.355 . S
C320 C322 1.415 . S
C321 C320 1.355 . S
C321 C323 1.419 . S
C322 C320 1.415 . S
C322 C327 1.425 . S
C322 C329 1.409 . S
C323 H315 0.930 . S
C323 C321 1.419 . S
C323 C324 1.362 . S
C324 H316 0.930 . S
C324 C323 1.362 . S
C324 C327 1.409 . S
C325 H317 0.930 . S
C325 C326 1.355 . S
C325 C327 1.415 . S
C326 C325 1.355 . S
C326 C328 1.419 1_655 S
C327 C322 1.425 . S
C327 C324 1.409 . S
C327 C325 1.415 . S
C328 H318 0.930 . S
C328 C326 1.419 1_455 S
C328 C329 1.362 1_455 S
C329 H319 0.930 . S
C329 C322 1.409 . S
C329 C328 1.362 1_655 S
H330 C336 0.930 . S
H331 C339 0.930 . S
H332 C340 0.930 . S
H333 C341 0.930 . S
H334 C344 0.930 . S
H335 C345 0.930 . S
C336 H330 0.930 . S
C336 C337 1.355 . S
C336 C338 1.415 . S
C337 C336 1.355 . S
C337 C339 1.419 . S
C338 C336 1.415 . S
C338 C343 1.425 . S
C338 C345 1.409 . S
C339 H331 0.930 . S
C339 C337 1.419 . S
C339 C340 1.362 . S
C340 H332 0.930 . S
C340 C339 1.362 . S
C340 C343 1.409 . S
C341 H333 0.930 . S
C341 C342 1.355 . S
C341 C343 1.415 . S
C342 C341 1.355 . S
C342 C344 1.419 . S
C343 C338 1.425 . S
C343 C340 1.409 . S
C343 C341 1.415 . S
C344 H334 0.930 . S
C344 C342 1.419 . S
C344 C345 1.362 . S
C345 H335 0.930 . S
C345 C338 1.409 . S
C345 C344 1.362 . S
H346 C352 0.930 . S
H347 C355 0.930 . S
H348 C356 0.930 . S
H349 C357 0.930 . S
H350 C360 0.930 . S
H351 C361 0.930 . S
C352 H346 0.930 . S
C352 C353 1.355 . S
C352 C354 1.415 . S
C353 C352 1.355 . S
C353 C355 1.419 . S
C354 C352 1.415 . S
C354 C359 1.425 . S
C354 C361 1.409 . S
C355 H347 0.930 . S
C355 C353 1.419 . S
C355 C356 1.362 . S
C356 H348 0.930 . S
C356 C355 1.362 . S
C356 C359 1.409 . S
C357 H349 0.930 . S
C357 C358 1.355 . S
C357 C359 1.415 . S
C358 C357 1.355 . S
C358 C360 1.419 . S
C359 C354 1.425 . S
C359 C356 1.409 . S
C359 C357 1.415 . S
C360 H350 0.930 . S
C360 C358 1.419 . S
C360 C361 1.362 . S
C361 H351 0.930 . S
C361 C354 1.409 . S
C361 C360 1.362 . S
H362 C368 0.930 . S
H363 C371 0.930 . S
H364 C372 0.930 . S
H365 C373 0.930 . S
H366 C376 0.930 . S
H367 C377 0.930 . S
C368 H362 0.930 . S
C368 C369 1.355 . S
C368 C370 1.415 . S
C369 C368 1.355 . S
C369 C371 1.419 . S
C370 C368 1.415 . S
C370 C375 1.425 . S
C370 C377 1.409 . S
C371 H363 0.930 . S
C371 C369 1.419 . S
C371 C372 1.362 . S
C372 H364 0.930 . S
C372 C371 1.362 . S
C372 C375 1.409 . S
C373 H365 0.930 . S
C373 C374 1.355 . S
C373 C375 1.415 . S
C374 C373 1.355 . S
C374 C376 1.419 . S
C375 C370 1.425 . S
C375 C372 1.409 . S
C375 C373 1.415 . S
C376 H366 0.930 . S
C376 C374 1.419 . S
C376 C377 1.362 . S
C377 H367 0.930 . S
C377 C370 1.409 . S
C377 C376 1.362 . S
C198 C151 1.433 . S
C193 C25 1.525 . S
C214 C147 1.466 . S
C209 C61 1.516 . S
C230 C172 1.482 . S
C225 C97 1.495 . S
C241 C133 1.545 . S
C246 C168 1.412 . S
C257 C31 1.224 . S
C262 C169 1.076 . S
C278 C184 1.071 . S
C273 C37 1.286 . S
C289 C1 1.677 . S
C294 C185 1.567 . S
C310 C181 1.525 . S
C305 C67 1.694 . S
C326 C148 1.072 1_655 S
C321 C103 1.221 . S
C337 C109 1.334 . S
C342 C163 1.210 . S
C358 C164 1.546 . S
C353 C73 1.668 . S
C374 C160 1.556 . S
C369 C139 1.703 . S
