# Generated by pormake.
# Topology pto, (3,4)-cn, num edge types: 1
# Building blocks:
#     Node 0, Type 0, BuildingBlock: OLANEW_clean_sbu_2, # of connection points: 3
#     Node 1, Type 0, BuildingBlock: OLANEW_clean_sbu_2, # of connection points: 3
#     Node 2, Type 0, BuildingBlock: OLANEW_clean_sbu_2, # of connection points: 3
#     Node 3, Type 0, BuildingBlock: OLANEW_clean_sbu_2, # of connection points: 3
#     Node 4, Type 0, BuildingBlock: OLANEW_clean_sbu_2, # of connection points: 3
#     Node 5, Type 0, BuildingBlock: OLANEW_clean_sbu_2, # of connection points: 3
#     Node 6, Type 0, BuildingBlock: OLANEW_clean_sbu_2, # of connection points: 3
#     Node 7, Type 0, BuildingBlock: OLANEW_clean_sbu_2, # of connection points: 3
#     Node 8, Type 1, BuildingBlock: AZAVOO_clean_linker_0, # of connection points: 4
#     Node 9, Type 1, BuildingBlock: AZAVOO_clean_linker_0, # of connection points: 4
#     Node 10, Type 1, BuildingBlock: AZAVOO_clean_linker_0, # of connection points: 4
#     Node 11, Type 1, BuildingBlock: AZAVOO_clean_linker_0, # of connection points: 4
#     Node 12, Type 1, BuildingBlock: AZAVOO_clean_linker_0, # of connection points: 4
#     Node 13, Type 1, BuildingBlock: AZAVOO_clean_linker_0, # of connection points: 4
#     Edge 14, Type (0, 1), BuildingBlock: AJUNOK_clean_linker_0, # of connection points: 2
#     Edge 15, Type (0, 1), BuildingBlock: AJUNOK_clean_linker_0, # of connection points: 2
#     Edge 16, Type (0, 1), BuildingBlock: AJUNOK_clean_linker_0, # of connection points: 2
#     Edge 17, Type (0, 1), BuildingBlock: AJUNOK_clean_linker_0, # of connection points: 2
#     Edge 18, Type (0, 1), BuildingBlock: AJUNOK_clean_linker_0, # of connection points: 2
#     Edge 19, Type (0, 1), BuildingBlock: AJUNOK_clean_linker_0, # of connection points: 2
#     Edge 20, Type (0, 1), BuildingBlock: AJUNOK_clean_linker_0, # of connection points: 2
#     Edge 21, Type (0, 1), BuildingBlock: AJUNOK_clean_linker_0, # of connection points: 2
#     Edge 22, Type (0, 1), BuildingBlock: AJUNOK_clean_linker_0, # of connection points: 2
#     Edge 23, Type (0, 1), BuildingBlock: AJUNOK_clean_linker_0, # of connection points: 2
#     Edge 24, Type (0, 1), BuildingBlock: AJUNOK_clean_linker_0, # of connection points: 2
#     Edge 25, Type (0, 1), BuildingBlock: AJUNOK_clean_linker_0, # of connection points: 2
#     Edge 26, Type (0, 1), BuildingBlock: AJUNOK_clean_linker_0, # of connection points: 2
#     Edge 27, Type (0, 1), BuildingBlock: AJUNOK_clean_linker_0, # of connection points: 2
#     Edge 28, Type (0, 1), BuildingBlock: AJUNOK_clean_linker_0, # of connection points: 2
#     Edge 29, Type (0, 1), BuildingBlock: AJUNOK_clean_linker_0, # of connection points: 2
#     Edge 30, Type (0, 1), BuildingBlock: AJUNOK_clean_linker_0, # of connection points: 2
#     Edge 31, Type (0, 1), BuildingBlock: AJUNOK_clean_linker_0, # of connection points: 2
#     Edge 32, Type (0, 1), BuildingBlock: AJUNOK_clean_linker_0, # of connection points: 2
#     Edge 33, Type (0, 1), BuildingBlock: AJUNOK_clean_linker_0, # of connection points: 2
#     Edge 34, Type (0, 1), BuildingBlock: AJUNOK_clean_linker_0, # of connection points: 2
#     Edge 35, Type (0, 1), BuildingBlock: AJUNOK_clean_linker_0, # of connection points: 2
#     Edge 36, Type (0, 1), BuildingBlock: AJUNOK_clean_linker_0, # of connection points: 2
#     Edge 37, Type (0, 1), BuildingBlock: AJUNOK_clean_linker_0, # of connection points: 2
# Relax obj value: 0.074
# Max RMSD: 0.224
# Mean RMSD: 0.131
data_MOF--net-pto--node1-OLANEW_clean_sbu_2--node2-AZAVOO_clean_linker_0--edge1-AJUNOK_clean_linker_0
_symmetry_space_group_name_H-M    P1
_symmetry_Int_Tables_number       1
_symmetry_cell_setting            triclinic
loop_
_symmetry_equiv_pos_as_xyz
'x, y, z'
_cell_length_a     35.742524
_cell_length_b     39.455692
_cell_length_c     40.017217
_cell_angle_alpha  92.851108
_cell_angle_beta   90.734955
_cell_angle_gamma 116.97265
loop_
_atom_site_label
_atom_site_type_symbol
_atom_site_fract_x
_atom_site_fract_y
_atom_site_fract_z
_atom_type_partial_charge
O0 O 0.38605 0.50754 0.21975 0.0
Cd1 Cd 0.39476 0.54585 0.27156 0.0
O2 O 0.32129 0.49503 0.20518 0.0
Cd3 Cd 0.31217 0.53124 0.24372 0.0
O4 O 0.26655 0.55109 0.25836 0.0
C5 C 0.26488 0.57792 0.24315 0.0
O6 O 0.29313 0.59512 0.22102 0.0
C7 C 0.35391 0.49074 0.20004 0.0
C8 C 0.40982 0.50689 0.3221 0.0
O9 O 0.3731 0.50416 0.31669 0.0
O10 O 0.43975 0.52918 0.30451 0.0
O11 O 0.3523 0.10078 0.85612 0.0
Cd12 Cd 0.30813 0.11442 0.81716 0.0
O13 O 0.30306 0.04169 0.85235 0.0
Cd14 Cd 0.27611 0.98056 0.85909 0.0
O15 O 0.24212 0.91915 0.84666 0.0
C16 C 0.20347 0.90112 0.853 0.0
O17 O 0.18544 0.91969 0.86844 0.0
C18 C 0.33824 0.06675 0.86483 0.0
C19 C 0.34715 0.15207 0.76047 0.0
O20 O 0.34728 0.1706 0.78774 0.0
O21 O 0.32935 0.1156 0.76028 0.0
O22 O 0.90901 0.97007 0.31457 0.0
Cd23 Cd 0.94928 0.96842 0.26612 0.0
O24 O 0.8535 0.9491 0.28052 0.0
Cd25 Cd 0.78971 0.93947 0.26751 0.0
O26 O 0.73877 0.94265 0.23919 0.0
C27 C 0.74092 0.97525 0.23518 0.0
O28 O 0.77272 0.00546 0.24945 0.0
C29 C 0.87015 0.96023 0.30978 0.0
C30 C 0.95809 0.90184 0.25871 0.0
O31 O 0.98606 0.93161 0.27493 0.0
O32 O 0.92581 0.90357 0.24628 0.0
O33 O 0.72883 0.25552 0.79872 0.0
Cd34 Cd 0.67489 0.19169 0.81033 0.0
O35 O 0.68711 0.26895 0.76705 0.0
Cd36 Cd 0.63003 0.21908 0.77869 0.0
O37 O 0.57152 0.19817 0.80482 0.0
C38 C 0.57257 0.19263 0.83571 0.0
O39 O 0.60781 0.19605 0.84944 0.0
C40 C 0.72338 0.27807 0.77987 0.0
C41 C 0.6641 0.14057 0.75602 0.0
O42 O 0.64075 0.15729 0.75893 0.0
O43 O 0.69209 0.14748 0.77924 0.0
O44 O 0.85874 0.90586 0.66697 0.0
Cd45 Cd 0.8984 0.90022 0.71501 0.0
O46 O 0.82258 0.91761 0.70523 0.0
Cd47 Cd 0.77973 0.93689 0.72806 0.0
O48 O 0.74622 0.95213 0.76649 0.0
C49 C 0.70841 0.92943 0.77238 0.0
O50 O 0.68923 0.89728 0.75399 0.0
C51 C 0.83012 0.91527 0.67446 0.0
C52 C 0.90845 0.83423 0.71786 0.0
O53 O 0.87714 0.83652 0.73112 0.0
O54 O 0.93411 0.8627 0.70224 0.0
O55 O 0.63015 0.3323 0.28794 0.0
Cd56 Cd 0.56654 0.27539 0.29992 0.0
O57 O 0.6162 0.36999 0.32229 0.0
Cd58 Cd 0.55163 0.32614 0.32554 0.0
O59 O 0.49797 0.2962 0.29067 0.0
C60 C 0.47599 0.31265 0.28293 0.0
O61 O 0.48371 0.34513 0.29906 0.0
C62 C 0.64107 0.36501 0.30246 0.0
C63 C 0.58824 0.22593 0.33284 0.0
O64 O 0.58596 0.25383 0.34887 0.0
O65 O 0.57984 0.22115 0.30122 0.0
O66 O 0.3607 0.53087 0.86326 0.0
Cd67 Cd 0.36965 0.57554 0.82018 0.0
O68 O 0.31316 0.48152 0.83339 0.0
Cd69 Cd 0.33014 0.50793 0.78587 0.0
O70 O 0.35401 0.48786 0.74339 0.0
C71 C 0.35512 0.45664 0.74792 0.0
O72 O 0.34226 0.44065 0.77638 0.0
C73 C 0.33372 0.49595 0.8609 0.0
C74 C 0.29999 0.58965 0.81501 0.0
O75 O 0.30276 0.56362 0.79632 0.0
O76 O 0.33045 0.60933 0.83605 0.0
O77 O 0.47839 0.02103 0.29378 0.0
Cd78 Cd 0.4611 0.00742 0.35252 0.0
O79 O 0.41379 0.98132 0.2782 0.0
Cd80 Cd 0.36019 0.94379 0.24521 0.0
O81 O 0.29767 0.89817 0.23156 0.0
C82 C 0.29091 0.86421 0.2358 0.0
O83 O 0.32236 0.85831 0.24625 0.0
C84 C 0.45093 0.00373 0.27034 0.0
C85 C 0.45337 0.0635 0.39325 0.0
O86 O 0.4893 0.06473 0.38833 0.0
O87 O 0.42109 0.0362 0.37821 0.0
H88 H 0.93315 0.37911 0.27935 0.0
H89 H 0.71849 0.62368 0.22988 0.0
H90 H 0.03253 0.5874 0.2959 0.0
H91 H 0.09884 0.58319 0.29772 0.0
H92 H 0.11593 0.60977 0.19386 0.0
H93 H 0.0498 0.61442 0.19238 0.0
H94 H 0.94038 0.52978 0.30042 0.0
H95 H 0.93455 0.4656 0.30148 0.0
H96 H 0.96386 0.4687 0.1968 0.0
H97 H 0.96916 0.53271 0.19601 0.0
H98 H 0.88303 0.56909 0.30859 0.0
H99 H 0.81525 0.51716 0.32182 0.0
H100 H 0.80161 0.46716 0.22108 0.0
H101 H 0.87009 0.51907 0.20819 0.0
H102 H 0.90277 0.65219 0.29795 0.0
H103 H 0.83896 0.66037 0.30106 0.0
H104 H 0.79611 0.59999 0.20406 0.0
H105 H 0.86027 0.59242 0.20112 0.0
H106 H 0.99827 0.70473 0.29285 0.0
H107 H 0.99952 0.76733 0.29496 0.0
H108 H 0.93821 0.74116 0.19665 0.0
H109 H 0.93662 0.67823 0.19493 0.0
H110 H 0.06441 0.67299 0.28945 0.0
H111 H 0.13443 0.72633 0.28481 0.0
H112 H 0.10045 0.74166 0.18479 0.0
H113 H 0.03044 0.68777 0.18939 0.0
O114 O 0.93558 0.40446 0.27838 0.0
O115 O 0.95102 0.40761 0.2246 0.0
O116 O 0.76767 0.65212 0.27893 0.0
O117 O 0.74413 0.62105 0.22923 0.0
C118 C 0.99772 0.6062 0.24385 0.0
C119 C 0.95821 0.57457 0.24729 0.0
C120 C 0.9219 0.57999 0.24979 0.0
C121 C 0.92476 0.61668 0.24743 0.0
C122 C 0.96424 0.64827 0.24375 0.0
C123 C 0.00076 0.64308 0.24219 0.0
C124 C 0.03641 0.60115 0.24399 0.0
C125 C 0.05047 0.59202 0.27349 0.0
C126 C 0.08833 0.58976 0.27452 0.0
C127 C 0.1128 0.59674 0.24609 0.0
C128 C 0.09821 0.60519 0.21637 0.0
C129 C 0.06033 0.60746 0.21537 0.0
C130 C 0.95494 0.53575 0.2481 0.0
C131 C 0.9453 0.51644 0.27772 0.0
C132 C 0.94211 0.47984 0.27826 0.0
C133 C 0.94867 0.46198 0.24921 0.0
C134 C 0.95856 0.4816 0.21961 0.0
C135 C 0.96166 0.51815 0.21909 0.0
C136 C 0.8812 0.54785 0.25742 0.0
C137 C 0.86533 0.54693 0.28939 0.0
C138 C 0.82659 0.51746 0.29682 0.0
C139 C 0.80293 0.48854 0.27229 0.0
C140 C 0.81926 0.48916 0.2404 0.0
C141 C 0.85817 0.51869 0.233 0.0
C142 C 0.8862 0.62192 0.24923 0.0
C143 C 0.87968 0.641 0.27732 0.0
C144 C 0.84315 0.6455 0.27907 0.0
C145 C 0.81242 0.63083 0.25278 0.0
C146 C 0.81911 0.61165 0.22472 0.0
C147 C 0.8557 0.60725 0.22298 0.0
C148 C 0.96753 0.68711 0.24369 0.0
C149 C 0.98569 0.71277 0.27158 0.0
C150 C 0.98653 0.74851 0.27267 0.0
C151 C 0.96936 0.75922 0.2458 0.0
C152 C 0.95162 0.73358 0.2177 0.0
C153 C 0.95079 0.69779 0.21663 0.0
C154 C 0.0425 0.67644 0.2397 0.0
C155 C 0.07212 0.68779 0.26651 0.0
C156 C 0.11198 0.71814 0.26383 0.0
C157 C 0.12265 0.73799 0.23447 0.0
C158 C 0.09276 0.72697 0.20778 0.0
C159 C 0.05294 0.69631 0.21037 0.0
C160 C 0.94521 0.42308 0.24985 0.0
C161 C 0.77347 0.63539 0.25456 0.0
H162 H 0.02561 0.39326 0.83885 0.0
H163 H 0.72612 0.51576 0.6853 0.0
H164 H 0.05799 0.5863 0.84445 0.0
H165 H 0.12802 0.59012 0.85273 0.0
H166 H 0.15781 0.62635 0.75227 0.0
H167 H 0.08773 0.62222 0.74406 0.0
H168 H 0.96937 0.51102 0.83441 0.0
H169 H 0.98658 0.45902 0.84493 0.0
H170 H 0.05725 0.48127 0.75476 0.0
H171 H 0.03926 0.53281 0.74428 0.0
H172 H 0.88307 0.51811 0.81169 0.0
H173 H 0.82856 0.45176 0.81042 0.0
H174 H 0.88947 0.42242 0.72967 0.0
H175 H 0.94319 0.48928 0.73004 0.0
H176 H 0.88459 0.59497 0.79939 0.0
H177 H 0.81273 0.57964 0.78133 0.0
H178 H 0.82746 0.52586 0.68903 0.0
H179 H 0.89947 0.54179 0.70722 0.0
H180 H 0.96363 0.66875 0.81297 0.0
H181 H 0.94726 0.72046 0.79855 0.0
H182 H 0.94014 0.68556 0.69368 0.0
H183 H 0.95724 0.6344 0.70823 0.0
H184 H 0.04064 0.65665 0.84388 0.0
H185 H 0.08892 0.72313 0.86081 0.0
H186 H 0.10308 0.74987 0.75697 0.0
H187 H 0.05475 0.68304 0.74011 0.0
O188 O 0.01919 0.41392 0.83421 0.0
O189 O 0.05568 0.42691 0.78791 0.0
O190 O 0.74875 0.55084 0.74062 0.0
O191 O 0.75455 0.52248 0.69292 0.0
C192 C 0.02356 0.59533 0.78627 0.0
C193 C 0.9923 0.55703 0.78222 0.0
C194 C 0.95064 0.54863 0.77267 0.0
C195 C 0.94072 0.57852 0.76581 0.0
C196 C 0.97199 0.61683 0.77007 0.0
C197 C 0.01307 0.62522 0.78141 0.0
C198 C 0.06786 0.60389 0.79364 0.0
C199 C 0.08002 0.59588 0.82455 0.0
C200 C 0.11995 0.59819 0.82926 0.0
C201 C 0.14817 0.60853 0.8031 0.0
C202 C 0.13653 0.61822 0.77274 0.0
C203 C 0.09673 0.61611 0.76812 0.0
C204 C 0.00309 0.52566 0.78862 0.0
C205 C 0.98847 0.50453 0.81693 0.0
C206 C 0.9984 0.4749 0.82289 0.0
C207 C 0.02331 0.46599 0.80069 0.0
C208 C 0.03801 0.48738 0.77237 0.0
C209 C 0.02789 0.51688 0.76636 0.0
C210 C 0.91709 0.50855 0.77095 0.0
C211 C 0.88439 0.49752 0.79342 0.0
C212 C 0.85346 0.45973 0.79278 0.0
C213 C 0.85522 0.43226 0.77009 0.0
C214 C 0.88784 0.44321 0.74754 0.0
C215 C 0.91838 0.48122 0.74775 0.0
C216 C 0.89728 0.56964 0.75455 0.0
C217 C 0.87235 0.58016 0.77516 0.0
C218 C 0.83126 0.57123 0.76484 0.0
C219 C 0.81433 0.55149 0.73372 0.0
C220 C 0.8395 0.54106 0.71313 0.0
C221 C 0.88061 0.55009 0.72346 0.0
C222 C 0.96192 0.64807 0.76162 0.0
C223 C 0.95876 0.67245 0.78691 0.0
C224 C 0.94918 0.70173 0.77866 0.0
C225 C 0.94281 0.70714 0.74499 0.0
C226 C 0.94561 0.68241 0.71977 0.0
C227 C 0.95512 0.65313 0.72804 0.0
C228 C 0.04427 0.66511 0.7908 0.0
C229 C 0.05451 0.67679 0.82477 0.0
C230 C 0.08185 0.71468 0.8344 0.0
C231 C 0.09976 0.74147 0.81018 0.0
C232 C 0.09006 0.7296 0.77608 0.0
C233 C 0.06241 0.69164 0.76645 0.0
C234 C 0.03379 0.43449 0.8071 0.0
C235 C 0.77059 0.54168 0.72275 0.0
H236 H 0.43143 0.22469 0.31312 0.0
H237 H 0.45593 0.54969 0.56241 0.0
H238 H 0.36799 0.22001 0.47728 0.0
H239 H 0.37369 0.16526 0.45176 0.0
H240 H 0.48631 0.19533 0.51275 0.0
H241 H 0.4825 0.25233 0.53574 0.0
H242 H 0.37952 0.27915 0.43367 0.0
H243 H 0.39067 0.25617 0.37867 0.0
H244 H 0.51483 0.27663 0.41286 0.0
H245 H 0.50353 0.30019 0.46762 0.0
H246 H 0.36333 0.33377 0.46221 0.0
H247 H 0.36034 0.37464 0.41938 0.0
H248 H 0.49596 0.43683 0.42439 0.0
H249 H 0.49854 0.39423 0.46601 0.0
H250 H 0.35905 0.35992 0.54057 0.0
H251 H 0.35567 0.41983 0.55307 0.0
H252 H 0.48973 0.4822 0.54145 0.0
H253 H 0.49267 0.42204 0.52932 0.0
H254 H 0.3542 0.29939 0.59022 0.0
H255 H 0.34062 0.33021 0.64007 0.0
H256 H 0.46959 0.41722 0.64398 0.0
H257 H 0.48322 0.38593 0.59443 0.0
H258 H 0.35553 0.22546 0.56047 0.0
H259 H 0.34147 0.19053 0.61157 0.0
H260 H 0.46618 0.26748 0.65113 0.0
H261 H 0.47965 0.30272 0.60025 0.0
O262 O 0.42842 0.23543 0.33459 0.0
O263 O 0.49251 0.24756 0.353 0.0
O264 O 0.38722 0.49233 0.56158 0.0
O265 O 0.45631 0.52562 0.55724 0.0
C266 C 0.42787 0.27898 0.51535 0.0
C267 C 0.43311 0.30304 0.48871 0.0
C268 C 0.43193 0.33801 0.49483 0.0
C269 C 0.42822 0.35024 0.52772 0.0
C270 C 0.42511 0.32729 0.55459 0.0
C271 C 0.42439 0.29136 0.54845 0.0
C272 C 0.42542 0.24073 0.50769 0.0
C273 C 0.39368 0.21455 0.48539 0.0
C274 C 0.39688 0.18309 0.47095 0.0
C275 C 0.4313 0.17657 0.47928 0.0
C276 C 0.46045 0.20049 0.50459 0.0
C277 C 0.45788 0.23266 0.51832 0.0
C278 C 0.44091 0.2918 0.4545 0.0
C279 C 0.40943 0.27943 0.42902 0.0
C280 C 0.41576 0.26597 0.39771 0.0
C281 C 0.45362 0.26448 0.39139 0.0
C282 C 0.48533 0.27743 0.41688 0.0
C283 C 0.479 0.29098 0.44814 0.0
C284 C 0.43114 0.36078 0.46675 0.0
C285 C 0.39238 0.3557 0.45345 0.0
C286 C 0.39076 0.37932 0.42929 0.0
C287 C 0.42791 0.40893 0.41837 0.0
C288 C 0.46682 0.41376 0.43165 0.0
C289 C 0.4684 0.38963 0.45551 0.0
C290 C 0.42607 0.38674 0.53395 0.0
C291 C 0.38759 0.38659 0.54064 0.0
C292 C 0.38577 0.42082 0.54777 0.0
C293 C 0.42245 0.45583 0.54823 0.0
C294 C 0.46091 0.45578 0.54128 0.0
C295 C 0.46267 0.42151 0.5342 0.0
C296 C 0.41964 0.3405 0.58871 0.0
C297 C 0.37986 0.32434 0.60251 0.0
C298 C 0.3721 0.34207 0.63078 0.0
C299 C 0.40391 0.37639 0.64532 0.0
C300 C 0.44444 0.3911 0.63281 0.0
C301 C 0.45231 0.37314 0.60478 0.0
C302 C 0.41853 0.26669 0.57673 0.0
C303 C 0.38007 0.2343 0.57991 0.0
C304 C 0.3721 0.21444 0.60909 0.0
C305 C 0.40247 0.22671 0.63558 0.0
C306 C 0.44184 0.25791 0.63147 0.0
C307 C 0.44972 0.27783 0.60235 0.0
C308 C 0.45957 0.24878 0.35854 0.0
C309 C 0.42075 0.49226 0.55606 0.0
H310 H 0.4954 0.03757 0.80281 0.0
H311 H 0.74827 0.90878 0.04771 0.0
H312 H 0.53004 0.07176 0.0038 0.0
H313 H 0.48088 0.08875 0.97444 0.0
H314 H 0.39519 0.96944 0.95536 0.0
H315 H 0.44429 0.95267 0.98503 0.0
H316 H 0.56464 0.05739 0.93971 0.0
H317 H 0.54197 0.06069 0.88253 0.0
H318 H 0.4689 0.93802 0.87452 0.0
H319 H 0.49259 0.93513 0.93155 0.0
H320 H 0.62975 0.03601 0.93502 0.0
H321 H 0.65939 0.02245 0.88416 0.0
H322 H 0.60229 0.90315 0.90416 0.0
H323 H 0.57166 0.91681 0.95442 0.0
H324 H 0.67569 0.02675 0.99542 0.0
H325 H 0.73432 0.01165 0.00365 0.0
H326 H 0.64979 0.90523 0.04432 0.0
H327 H 0.59136 0.92047 0.03554 0.0
H328 H 0.65153 0.04403 0.06516 0.0
H329 H 0.68663 0.04102 0.11675 0.0
H330 H 0.57511 0.94053 0.1408 0.0
H331 H 0.54083 0.94268 0.08791 0.0
H332 H 0.574 0.06309 0.0786 0.0
H333 H 0.55046 0.06817 0.13506 0.0
H334 H 0.4419 0.95895 0.11605 0.0
H335 H 0.46554 0.95412 0.05949 0.0
O336 O 0.50412 0.03556 0.82535 0.0
O337 O 0.46491 0.97271 0.82327 0.0
O338 O 0.76766 0.97012 0.02241 0.0
O339 O 0.72561 0.91528 0.04388 0.0
C340 C 0.52567 0.0013 0.00229 0.0
C341 C 0.54502 0.99416 0.97399 0.0
C342 C 0.57884 0.98542 0.97808 0.0
C343 C 0.59393 0.98429 0.01048 0.0
C344 C 0.57552 0.99249 0.03887 0.0
C345 C 0.54108 0.00074 0.03484 0.0
C346 C 0.49068 0.01101 0.9966 0.0
C347 C 0.49979 0.04935 0.99472 0.0
C348 C 0.472 0.05897 0.97751 0.0
C349 C 0.43476 0.03033 0.96202 0.0
C350 C 0.42371 0.99202 0.96702 0.0
C351 C 0.45155 0.98242 0.98418 0.0
C352 C 0.53004 0.99605 0.9397 0.0
C353 C 0.54362 0.03131 0.92556 0.0
C354 C 0.53065 0.03308 0.89291 0.0
C355 C 0.50342 0.99964 0.874 0.0
C356 C 0.48975 0.96433 0.88842 0.0
C357 C 0.50316 0.96257 0.92096 0.0
C358 C 0.59831 0.97733 0.94817 0.0
C359 C 0.62349 0.00694 0.92826 0.0
C360 C 0.6405 0.99919 0.89938 0.0
C361 C 0.63263 0.96168 0.88998 0.0
C362 C 0.60804 0.93218 0.91038 0.0
C363 C 0.5909 0.93995 0.9392 0.0
C364 C 0.6293 0.97464 0.01478 0.0
C365 C 0.66987 6e-05 0.00583 0.0
C366 C 0.70331 0.99142 0.01069 0.0
C367 C 0.69674 0.95722 0.02468 0.0
C368 C 0.65595 0.93179 0.0335 0.0
C369 C 0.62253 0.94042 0.02853 0.0
C370 C 0.59373 0.99352 0.07274 0.0
C371 C 0.63444 0.02171 0.08181 0.0
C372 C 0.65427 0.02016 0.11151 0.0
C373 C 0.63347 0.99075 0.13308 0.0
C374 C 0.59191 0.96347 0.12463 0.0
C375 C 0.57221 0.9648 0.09463 0.0
C376 C 0.52155 0.00818 0.065 0.0
C377 C 0.54449 0.0408 0.08628 0.0
C378 C 0.53127 0.04347 0.11858 0.0
C379 C 0.49484 0.01357 0.1301 0.0
C380 C 0.47012 0.98236 0.1078 0.0
C381 C 0.48346 0.97964 0.07548 0.0
C382 C 0.48954 0.00166 0.83936 0.0
C383 C 0.73222 0.94807 0.03018 0.0
H384 H 0.66242 0.00236 0.26813 0.0
H385 H 0.58167 0.1955 0.57107 0.0
H386 H 0.66935 0.95268 0.43273 0.0
H387 H 0.71232 0.93662 0.39426 0.0
H388 H 0.82447 0.0193 0.44876 0.0
H389 H 0.78162 0.03796 0.48469 0.0
H390 H 0.6191 0.99746 0.40861 0.0
H391 H 0.62477 0.99306 0.34789 0.0
H392 H 0.75939 0.06202 0.35967 0.0
H393 H 0.75312 0.0669 0.42034 0.0
H394 H 0.58441 0.04402 0.44867 0.0
H395 H 0.56742 0.08496 0.41362 0.0
H396 H 0.69955 0.16163 0.40833 0.0
H397 H 0.71634 0.12084 0.44354 0.0
H398 H 0.57792 0.02869 0.52634 0.0
H399 H 0.54265 0.06458 0.54982 0.0
H400 H 0.6552 0.16985 0.53865 0.0
H401 H 0.6902 0.13352 0.51558 0.0
H402 H 0.6133 0.99596 0.56798 0.0
H403 H 0.60812 0.01322 0.62712 0.0
H404 H 0.72799 0.11298 0.62355 0.0
H405 H 0.73262 0.09597 0.56463 0.0
H406 H 0.66182 0.94374 0.52758 0.0
H407 H 0.69331 0.91574 0.56576 0.0
H408 H 0.80055 0.02593 0.58427 0.0
H409 H 0.76901 0.05363 0.54642 0.0
O410 O 0.66106 0.00477 0.29219 0.0
O411 O 0.73037 0.03861 0.29973 0.0
O412 O 0.53854 0.12562 0.56871 0.0
O413 O 0.59505 0.18061 0.56232 0.0
C414 C 0.6979 0.01533 0.4766 0.0
C415 C 0.68181 0.03409 0.45571 0.0
C416 C 0.66245 0.0553 0.46983 0.0
C417 C 0.65743 0.0566 0.50463 0.0
C418 C 0.6738 0.03834 0.52557 0.0
C419 C 0.6943 0.01791 0.51169 0.0
C420 C 0.72226 0.99679 0.46138 0.0
C421 C 0.70317 0.9667 0.43682 0.0
C422 C 0.7278 0.95757 0.41483 0.0
C423 C 0.7719 0.97773 0.41768 0.0
C424 C 0.79064 0.00442 0.44499 0.0
C425 C 0.76609 0.0144 0.46623 0.0
C426 C 0.68571 0.03224 0.41883 0.0
C427 C 0.64974 0.01176 0.39798 0.0
C428 C 0.65309 0.00921 0.36334 0.0
C429 C 0.69254 0.02707 0.34895 0.0
C430 C 0.72854 0.04787 0.36996 0.0
C431 C 0.72509 0.05063 0.4046 0.0
C432 C 0.65156 0.07947 0.44847 0.0
C433 C 0.6096 0.06959 0.43983 0.0
C434 C 0.60001 0.09277 0.41968 0.0
C435 C 0.63226 0.12613 0.40803 0.0
C436 C 0.6742 0.13602 0.41696 0.0
C437 C 0.68377 0.11278 0.43692 0.0
C438 C 0.63654 0.07856 0.51933 0.0
C439 C 0.59492 0.05949 0.52917 0.0
C440 C 0.57486 0.08006 0.5425 0.0
C441 C 0.59609 0.12012 0.54605 0.0
C442 C 0.63792 0.13907 0.53623 0.0
C443 C 0.65799 0.11843 0.52304 0.0
C444 C 0.67344 0.04465 0.56227 0.0
C445 C 0.63876 0.02105 0.58028 0.0
C446 C 0.63576 0.03099 0.61382 0.0
C447 C 0.66764 0.06444 0.62966 0.0
C448 C 0.70324 0.08689 0.61193 0.0
C449 C 0.70594 0.07723 0.5784 0.0
C450 C 0.71331 0.00062 0.53413 0.0
C451 C 0.69217 0.9617 0.53983 0.0
C452 C 0.71003 0.94584 0.56163 0.0
C453 C 0.7495 0.96866 0.57758 0.0
C454 C 0.7704 0.00764 0.57187 0.0
C455 C 0.75238 0.02349 0.55042 0.0
C456 C 0.69597 0.02392 0.31217 0.0
C457 C 0.57471 0.14213 0.55975 0.0
H458 H 0.4136 0.33357 0.79467 0.0
H459 H 0.43188 0.09229 0.07896 0.0
H460 H 0.42232 0.36725 0.96702 0.0
H461 H 0.40935 0.41609 0.9414 0.0
H462 H 0.27732 0.35361 0.96047 0.0
H463 H 0.29059 0.30435 0.986 0.0
H464 H 0.44449 0.31398 0.93436 0.0
H465 H 0.44485 0.32418 0.87453 0.0
H466 H 0.30926 0.26135 0.86859 0.0
H467 H 0.30938 0.25142 0.92854 0.0
H468 H 0.47253 0.27539 0.98705 0.0
H469 H 0.51017 0.25094 0.95089 0.0
H470 H 0.39231 0.16729 0.90431 0.0
H471 H 0.3546 0.19293 0.94045 0.0
H472 H 0.46203 0.26981 0.05938 0.0
H473 H 0.48565 0.22629 0.08262 0.0
H474 H 0.3736 0.13029 0.04011 0.0
H475 H 0.34999 0.17416 0.0175 0.0
H476 H 0.44085 0.33349 0.08079 0.0
H477 H 0.4538 0.33805 0.14127 0.0
H478 H 0.34868 0.22685 0.14825 0.0
H479 H 0.33502 0.22281 0.08728 0.0
H480 H 0.42057 0.3774 0.03612 0.0
H481 H 0.41502 0.42458 0.07506 0.0
H482 H 0.29862 0.33739 0.10928 0.0
H483 H 0.3039 0.29033 0.06961 0.0
O484 O 0.41303 0.3268 0.81761 0.0
O485 O 0.34481 0.28648 0.81356 0.0
O486 O 0.47903 0.16044 0.09321 0.0
O487 O 0.4229 0.11015 0.07057 0.0
C488 C 0.36585 0.30267 0.99306 0.0
C489 C 0.37657 0.27855 0.97245 0.0
C490 C 0.38977 0.25372 0.98707 0.0
C491 C 0.39009 0.25149 0.02221 0.0
C492 C 0.37978 0.27593 0.04285 0.0
C493 C 0.36806 0.30178 0.02819 0.0
C494 C 0.35732 0.33217 0.97801 0.0
C495 C 0.39061 0.36413 0.96571 0.0
C496 C 0.38325 0.3922 0.95155 0.0
C497 C 0.34244 0.38886 0.94951 0.0
C498 C 0.30908 0.35689 0.96201 0.0
C499 C 0.31655 0.32882 0.97643 0.0
C500 C 0.37693 0.2817 0.93564 0.0
C501 C 0.41496 0.30195 0.91997 0.0
C502 C 0.41504 0.30794 0.88586 0.0
C503 C 0.37706 0.2937 0.86682 0.0
C504 C 0.33905 0.27265 0.88252 0.0
C505 C 0.33901 0.26687 0.9167 0.0
C506 C 0.41092 0.23586 0.96639 0.0
C507 C 0.45475 0.25146 0.96935 0.0
C508 C 0.47616 0.23734 0.94876 0.0
C509 C 0.4542 0.20725 0.92472 0.0
C510 C 0.41005 0.19086 0.92232 0.0
C511 C 0.38851 0.20525 0.94297 0.0
C512 C 0.40396 0.22513 0.03721 0.0
C513 C 0.44232 0.23938 0.05555 0.0
C514 C 0.45587 0.21445 0.06861 0.0
C515 C 0.43146 0.17477 0.06327 0.0
C516 C 0.39311 0.16065 0.04476 0.0
C517 C 0.37952 0.18563 0.03184 0.0
C518 C 0.38661 0.27808 0.07972 0.0
C519 C 0.42007 0.3104 0.09538 0.0
C520 C 0.42746 0.31295 0.12986 0.0
C521 C 0.40204 0.2829 0.1493 0.0
C522 C 0.36864 0.25035 0.13369 0.0
C523 C 0.36085 0.24803 0.09904 0.0
C524 C 0.36233 0.3306 0.04978 0.0
C525 C 0.39334 0.36868 0.05143 0.0
C526 C 0.39036 0.39546 0.07383 0.0
C527 C 0.35629 0.38459 0.09493 0.0
C528 C 0.32481 0.34657 0.09283 0.0
C529 C 0.32784 0.31972 0.07038 0.0
C530 C 0.37718 0.30183 0.83101 0.0
C531 C 0.44601 0.14816 0.07666 0.0
C532 C 0.19111 0.55809 0.26006 0.0
C533 C 0.22802 0.58547 0.24654 0.0
C534 C 0.15427 0.56231 0.26033 0.0
C535 C 0.15291 0.59416 0.24723 0.0
H536 H 0.19012 0.53247 0.26955 0.0
H537 H 0.12629 0.53989 0.26999 0.0
S538 S 0.24219 0.67647 0.21303 0.0
N539 N 0.26174 0.64719 0.22228 0.0
N540 N 0.19254 0.65532 0.22335 0.0
C541 C 0.18998 0.62258 0.23498 0.0
C542 C 0.22751 0.61821 0.23454 0.0
C543 C 0.13781 0.83949 0.85409 0.0
C544 C 0.17842 0.86017 0.84214 0.0
C545 C 0.1128 0.80111 0.84377 0.0
C546 C 0.12719 0.78198 0.82079 0.0
H547 H 0.12508 0.85298 0.87163 0.0
H548 H 0.08168 0.78641 0.85351 0.0
S549 S 0.23112 0.82236 0.7823 0.0
N550 N 0.23203 0.85805 0.80629 0.0
N551 N 0.18466 0.78591 0.78686 0.0
C552 C 0.16764 0.80206 0.80867 0.0
C553 C 0.19337 0.8411 0.8194 0.0
C554 C 0.92731 0.83182 0.24412 0.0
C555 C 0.96244 0.86624 0.25471 0.0
C556 C 0.93003 0.79751 0.24082 0.0
C557 C 0.96802 0.79627 0.24785 0.0
H558 H 0.89718 0.83117 0.23884 0.0
H559 H 0.90191 0.77159 0.23339 0.0
S560 S 0.07017 0.87869 0.27338 0.0
N561 N 0.0371 0.89714 0.27042 0.0
N562 N 0.04218 0.83262 0.26369 0.0
C563 C 0.00365 0.83052 0.25764 0.0
C564 C 0.00088 0.86549 0.26118 0.0
C565 C 0.7487 0.34588 0.76637 0.0
C566 C 0.75817 0.31634 0.77497 0.0
C567 C 0.7804 0.3832 0.76435 0.0
C568 C 0.82277 0.39223 0.77021 0.0
H569 H 0.71642 0.34046 0.76218 0.0
H570 H 0.7717 0.40526 0.75847 0.0
S571 S 0.86488 0.32555 0.79183 0.0
N572 N 0.81347 0.29874 0.78836 0.0
N573 N 0.87308 0.36902 0.78391 0.0
C574 C 0.83298 0.363 0.77778 0.0
C575 C 0.80066 0.32502 0.78037 0.0
C576 C 0.39139 0.47288 0.37497 0.0
C577 C 0.41689 0.48384 0.34714 0.0
C578 C 0.39585 0.44936 0.39813 0.0
C579 C 0.42549 0.4353 0.39409 0.0
H580 H 0.3678 0.4826 0.37893 0.0
H581 H 0.37577 0.44206 0.41939 0.0
S582 S 0.49824 0.45387 0.32424 0.0
N583 N 0.47241 0.47845 0.31641 0.0
N584 N 0.47975 0.43308 0.35932 0.0
C585 C 0.45119 0.44603 0.36631 0.0
C586 C 0.4471 0.47053 0.34298 0.0
C587 C 0.34313 0.03389 0.91541 0.0
C588 C 0.36281 0.05669 0.88877 0.0
C589 C 0.36652 0.02573 0.93938 0.0
C590 C 0.4103 0.04009 0.9374 0.0
H591 H 0.30958 0.02288 0.91808 0.0
H592 H 0.35034 0.00834 0.95969 0.0
S593 S 0.4751 0.09554 0.86929 0.0
N594 N 0.42756 0.09025 0.85998 0.0
N595 N 0.47141 0.07453 0.90459 0.0
C596 C 0.42995 0.06184 0.91022 0.0
C597 C 0.40624 0.07028 0.88603 0.0
C598 C 0.81212 0.93304 0.34953 0.0
C599 C 0.84571 0.96491 0.33726 0.0
C600 C 0.78883 0.93723 0.37599 0.0
C601 C 0.79799 0.97352 0.39064 0.0
H602 H 0.80415 0.90471 0.33884 0.0
H603 H 0.76357 0.91188 0.38509 0.0
S604 S 0.88021 0.06607 0.36418 0.0
N605 N 0.88591 0.03367 0.34006 0.0
N606 N 0.84097 0.04209 0.38842 0.0
C607 C 0.83095 0.00564 0.37768 0.0
C608 C 0.85509 0.0012 0.35131 0.0
C609 C 0.54197 0.18814 0.89202 0.0
C610 C 0.53761 0.18926 0.85714 0.0
C611 C 0.51291 0.19101 0.91358 0.0
C612 C 0.4785 0.19546 0.9012 0.0
H613 H 0.56886 0.18641 0.903 0.0
H614 H 0.51845 0.19145 0.94032 0.0
S615 S 0.44982 0.19561 0.81181 0.0
N616 N 0.49347 0.19103 0.811 0.0
N617 N 0.4396 0.19765 0.85176 0.0
C618 C 0.47209 0.19407 0.86632 0.0
C619 C 0.50154 0.19081 0.84425 0.0
C620 C 0.3595 0.15061 0.69895 0.0
C621 C 0.36491 0.17194 0.72953 0.0
C622 C 0.37257 0.16847 0.66882 0.0
C623 C 0.39191 0.20839 0.66806 0.0
H624 H 0.34414 0.11976 0.69805 0.0
H625 H 0.36711 0.15087 0.64585 0.0
S626 S 0.41457 0.27753 0.741 0.0
N627 N 0.39222 0.23547 0.75709 0.0
N628 N 0.41624 0.26882 0.70044 0.0
C629 C 0.39848 0.23013 0.69848 0.0
C630 C 0.38513 0.21198 0.72918 0.0
C631 C 0.68201 0.94756 0.19173 0.0
C632 C 0.71053 0.97928 0.212 0.0
C633 C 0.65582 0.9512 0.1673 0.0
C634 C 0.65676 0.98662 0.16236 0.0
H635 H 0.68088 0.91985 0.19382 0.0
H636 H 0.63602 0.92634 0.1512 0.0
S637 S 0.72114 0.07745 0.21183 0.0
N638 N 0.73557 0.04686 0.22708 0.0
N639 N 0.6849 0.05309 0.18221 0.0
C640 C 0.68324 0.01809 0.18371 0.0
C641 C 0.71047 0.01459 0.20822 0.0
C642 C 0.69373 0.10659 0.71894 0.0
C643 C 0.66106 0.1163 0.72558 0.0
C644 C 0.6947 0.08816 0.68837 0.0
C645 C 0.66272 0.07823 0.66354 0.0
H646 H 0.71976 0.1147 0.73688 0.0
H647 H 0.72128 0.08262 0.6837 0.0
S648 S 0.56861 0.09448 0.66908 0.0
N649 N 0.59455 0.11238 0.70529 0.0
N650 N 0.59659 0.07769 0.64788 0.0
C651 C 0.62885 0.086 0.67036 0.0
C652 C 0.62797 0.10506 0.70137 0.0
C653 C 0.38967 0.45874 0.16757 0.0
C654 C 0.35406 0.4648 0.1719 0.0
C655 C 0.39021 0.43313 0.14235 0.0
C656 C 0.35515 0.41245 0.12051 0.0
H657 H 0.41731 0.4735 0.18405 0.0
H658 H 0.41803 0.4289 0.14037 0.0
S659 S 0.25505 0.41912 0.11941 0.0
N660 N 0.28326 0.4488 0.15091 0.0
N661 N 0.28468 0.4007 0.1035 0.0
C662 C 0.31964 0.41855 0.12399 0.0
C663 C 0.31901 0.44476 0.14963 0.0
C664 C 0.89229 0.77357 0.74512 0.0
C665 C 0.91605 0.80066 0.72237 0.0
C666 C 0.90093 0.74329 0.75209 0.0
C667 C 0.93336 0.73865 0.73632 0.0
H668 H 0.86733 0.77615 0.75829 0.0
H669 H 0.88212 0.72338 0.77003 0.0
S670 S 0.00434 0.80082 0.67423 0.0
N671 N 0.97305 0.82014 0.68355 0.0
N672 N 0.98914 0.76322 0.69678 0.0
C673 C 0.95683 0.76494 0.71304 0.0
C674 C 0.94824 0.79593 0.70605 0.0
C675 C 0.71315 0.38971 0.28008 0.0
C676 C 0.68222 0.39712 0.29558 0.0
C677 C 0.75199 0.4194 0.27251 0.0
C678 C 0.76138 0.45764 0.28009 0.0
H679 H 0.70747 0.36069 0.27385 0.0
H680 H 0.77502 0.41233 0.26098 0.0
S681 S 0.69052 0.49276 0.31842 0.0
N682 N 0.66326 0.44589 0.31702 0.0
N683 N 0.7361 0.5016 0.30232 0.0
C684 C 0.73069 0.46558 0.29518 0.0
C685 C 0.69118 0.43536 0.30304 0.0
C686 C 0.23308 0.57853 0.78535 0.0
C687 C 0.26242 0.59633 0.81228 0.0
C688 C 0.19673 0.58333 0.78232 0.0
C689 C 0.18805 0.60583 0.80625 0.0
H690 H 0.23804 0.56055 0.7664 0.0
H691 H 0.17476 0.56862 0.76142 0.0
S692 S 0.2548 0.65954 0.88099 0.0
N693 N 0.28054 0.63823 0.86304 0.0
N694 N 0.21187 0.64691 0.85725 0.0
C695 C 0.21709 0.62409 0.83314 0.0
C696 C 0.2544 0.6195 0.83614 0.0
C697 C 0.24119 0.79513 0.239 0.0
C698 C 0.24776 0.83211 0.2323 0.0
C699 C 0.20067 0.76474 0.23896 0.0
C700 C 0.16513 0.77003 0.23196 0.0
H701 H 0.26746 0.7896 0.24505 0.0
H702 H 0.19708 0.73691 0.24478 0.0
S703 S 0.16449 0.86046 0.21191 0.0
N704 N 0.21475 0.87182 0.21755 0.0
N705 N 0.13863 0.81446 0.21761 0.0
C706 C 0.17103 0.80642 0.2243 0.0
C707 C 0.21233 0.83751 0.22444 0.0
C708 C 0.76723 0.92069 0.65195 0.0
C709 C 0.80869 0.92617 0.64818 0.0
C710 C 0.74766 0.93336 0.62842 0.0
C711 C 0.76901 0.95224 0.60047 0.0
H712 H 0.74972 0.90649 0.67318 0.0
H713 H 0.71606 0.92932 0.63261 0.0
S714 S 0.87658 0.97113 0.57757 0.0
N715 N 0.86944 0.94986 0.61312 0.0
N716 N 0.83261 0.97364 0.5691 0.0
C717 C 0.80984 0.95674 0.59579 0.0
C718 C 0.82963 0.94361 0.61952 0.0
C719 C 0.43529 0.32486 0.23798 0.0
C720 C 0.44912 0.30012 0.25172 0.0
C721 C 0.41762 0.31784 0.20539 0.0
C722 C 0.4125 0.28555 0.18552 0.0
H723 H 0.44032 0.35106 0.25166 0.0
H724 H 0.40955 0.33869 0.19512 0.0
S725 S 0.43823 0.20926 0.21087 0.0
N726 N 0.4524 0.23988 0.24385 0.0
N727 N 0.41901 0.22686 0.18259 0.0
C728 C 0.42313 0.25909 0.19969 0.0
C729 C 0.44147 0.26632 0.23282 0.0
C730 C 0.36287 0.39999 0.72544 0.0
C731 C 0.36931 0.43759 0.72171 0.0
C732 C 0.37463 0.38052 0.70086 0.0
C733 C 0.39383 0.39808 0.67184 0.0
H734 H 0.34803 0.3851 0.74731 0.0
H735 H 0.36861 0.35149 0.70454 0.0
S736 S 0.41817 0.4959 0.64969 0.0
N737 N 0.39654 0.49161 0.68647 0.0
N738 N 0.41873 0.4549 0.64037 0.0
C739 C 0.40101 0.43572 0.66784 0.0
C740 C 0.38871 0.4555 0.69273 0.0
C741 C 0.43356 0.00379 0.20922 0.0
C742 C 0.46302 0.00798 0.23483 0.0
C743 C 0.4441 0.00611 0.17542 0.0
C744 C 0.48467 0.0132 0.16601 0.0
H745 H 0.40222 0.99906 0.21528 0.0
H746 H 0.4204 0.00244 0.15649 0.0
S747 S 0.57314 0.02544 0.22311 0.0
N748 N 0.5345 0.01919 0.2482 0.0
N749 N 0.55417 0.02356 0.18486 0.0
C750 C 0.51456 0.01788 0.19134 0.0
C751 C 0.50382 0.01539 0.22568 0.0
C752 C 0.62698 0.21412 0.37949 0.0
C753 C 0.60049 0.20026 0.35052 0.0
C754 C 0.63795 0.19014 0.39747 0.0
C755 C 0.62221 0.15131 0.38744 0.0
H756 H 0.6391 0.24368 0.38852 0.0
H757 H 0.65785 0.2018 0.41998 0.0
S758 S 0.55473 0.10174 0.31193 0.0
N759 N 0.56099 0.14582 0.31145 0.0
N760 N 0.58122 0.10061 0.34561 0.0
C761 C 0.59664 0.1373 0.35807 0.0
C762 C 0.58595 0.16184 0.33948 0.0
C763 C 0.30337 0.43103 0.88301 0.0
C764 C 0.33037 0.47041 0.88799 0.0
C765 C 0.30553 0.40493 0.90443 0.0
C766 C 0.33473 0.41719 0.93165 0.0
H767 H 0.28187 0.41989 0.86136 0.0
H768 H 0.28599 0.37478 0.89842 0.0
S769 S 0.40696 0.51723 0.9596 0.0
N770 N 0.38327 0.52057 0.92512 0.0
N771 N 0.38706 0.47124 0.96535 0.0
C772 C 0.35945 0.45653 0.93861 0.0
C773 C 0.35725 0.48321 0.91685 0.0
C774 C 0.40942 0.0848 0.42835 0.0
C775 C 0.44899 0.09226 0.41609 0.0
C776 C 0.40421 0.11152 0.4497 0.0
C777 C 0.43828 0.14703 0.45944 0.0
H778 H 0.38212 0.05801 0.42147 0.0
H779 H 0.37311 0.10437 0.45845 0.0
S780 S 0.54824 0.18098 0.43376 0.0
N781 N 0.52297 0.13772 0.41553 0.0
N782 N 0.51283 0.18848 0.45441 0.0
C783 C 0.47806 0.15478 0.44745 0.0
C784 C 0.48349 0.12733 0.42609 0.0
C785 C 0.71163 0.968 0.82495 0.0
C786 C 0.68765 0.93796 0.80123 0.0
C787 C 0.69352 0.97561 0.85336 0.0
C788 C 0.6507 0.95356 0.85922 0.0
H789 H 0.74492 0.98546 0.82194 0.0
H790 H 0.71343 0.99853 0.87123 0.0
S791 S 0.57312 0.87392 0.80361 0.0
N792 N 0.61804 0.88737 0.78476 0.0
N793 N 0.58408 0.90212 0.83802 0.0
C794 C 0.62607 0.92408 0.83539 0.0
C795 C 0.64449 0.91622 0.80645 0.0
loop_
_geom_bond_atom_site_label_1
_geom_bond_atom_site_label_2
_geom_bond_distance
_geom_bond_site_symmetry_2
_ccdc_geom_bond_type
O0 Cd1 2.300 . S
O0 C7 1.275 . S
Cd1 O0 2.300 . S
Cd1 O9 2.381 . S
Cd1 O10 2.378 . S
O2 Cd3 2.385 . S
O2 C7 1.255 . S
Cd3 O2 2.385 . S
Cd3 O4 2.317 . S
O4 Cd3 2.317 . S
O4 C5 1.232 . S
C5 O4 1.232 . S
C5 O6 1.218 . S
O6 C5 1.218 . S
C7 O0 1.275 . S
C7 O2 1.255 . S
C8 O9 1.258 . S
C8 O10 1.256 . S
O9 Cd1 2.381 . S
O9 C8 1.258 . S
O10 Cd1 2.378 . S
O10 C8 1.256 . S
O11 Cd12 2.300 . S
O11 C18 1.275 . S
Cd12 O11 2.300 . S
Cd12 O20 2.381 . S
Cd12 O21 2.378 . S
O13 Cd14 2.385 . S
O13 C18 1.255 1_565 S
Cd14 O13 2.385 . S
Cd14 O15 2.317 . S
O15 Cd14 2.317 . S
O15 C16 1.232 . S
C16 O15 1.232 . S
C16 O17 1.218 . S
O17 C16 1.218 . S
C18 O11 1.275 . S
C18 O13 1.255 1_545 S
C19 O20 1.258 . S
C19 O21 1.256 . S
O20 Cd12 2.381 . S
O20 C19 1.258 . S
O21 Cd12 2.378 . S
O21 C19 1.256 . S
O22 Cd23 2.300 . S
O22 C29 1.275 . S
Cd23 O22 2.300 . S
Cd23 O31 2.381 . S
Cd23 O32 2.378 . S
O24 Cd25 2.385 . S
O24 C29 1.255 . S
Cd25 O24 2.385 . S
Cd25 O26 2.317 . S
O26 Cd25 2.317 . S
O26 C27 1.232 . S
C27 O26 1.232 . S
C27 O28 1.218 . S
O28 C27 1.218 . S
C29 O22 1.275 . S
C29 O24 1.255 . S
C30 O31 1.258 . S
C30 O32 1.256 . S
O31 Cd23 2.381 . S
O31 C30 1.258 . S
O32 Cd23 2.378 . S
O32 C30 1.256 . S
O33 Cd34 2.300 . S
O33 C40 1.275 . S
Cd34 O33 2.300 . S
Cd34 O42 2.381 . S
Cd34 O43 2.378 . S
O35 Cd36 2.385 . S
O35 C40 1.255 . S
Cd36 O35 2.385 . S
Cd36 O37 2.317 . S
O37 Cd36 2.317 . S
O37 C38 1.232 . S
C38 O37 1.232 . S
C38 O39 1.218 . S
O39 C38 1.218 . S
C40 O33 1.275 . S
C40 O35 1.255 . S
C41 O42 1.258 . S
C41 O43 1.256 . S
O42 Cd34 2.381 . S
O42 C41 1.258 . S
O43 Cd34 2.378 . S
O43 C41 1.256 . S
O44 Cd45 2.300 . S
O44 C51 1.275 . S
Cd45 O44 2.300 . S
Cd45 O53 2.381 . S
Cd45 O54 2.378 . S
O46 Cd47 2.385 . S
O46 C51 1.255 . S
Cd47 O46 2.385 . S
Cd47 O48 2.317 . S
O48 Cd47 2.317 . S
O48 C49 1.232 . S
C49 O48 1.232 . S
C49 O50 1.218 . S
O50 C49 1.218 . S
C51 O44 1.275 . S
C51 O46 1.255 . S
C52 O53 1.258 . S
C52 O54 1.256 . S
O53 Cd45 2.381 . S
O53 C52 1.258 . S
O54 Cd45 2.378 . S
O54 C52 1.256 . S
O55 Cd56 2.300 . S
O55 C62 1.275 . S
Cd56 O55 2.300 . S
Cd56 O64 2.381 . S
Cd56 O65 2.378 . S
O57 Cd58 2.385 . S
O57 C62 1.255 . S
Cd58 O57 2.385 . S
Cd58 O59 2.317 . S
O59 Cd58 2.317 . S
O59 C60 1.232 . S
C60 O59 1.232 . S
C60 O61 1.218 . S
O61 C60 1.218 . S
C62 O55 1.275 . S
C62 O57 1.255 . S
C63 O64 1.258 . S
C63 O65 1.256 . S
O64 Cd56 2.381 . S
O64 C63 1.258 . S
O65 Cd56 2.378 . S
O65 C63 1.256 . S
O66 Cd67 2.300 . S
O66 C73 1.275 . S
Cd67 O66 2.300 . S
Cd67 O75 2.381 . S
Cd67 O76 2.378 . S
O68 Cd69 2.385 . S
O68 C73 1.255 . S
Cd69 O68 2.385 . S
Cd69 O70 2.317 . S
O70 Cd69 2.317 . S
O70 C71 1.232 . S
C71 O70 1.232 . S
C71 O72 1.218 . S
O72 C71 1.218 . S
C73 O66 1.275 . S
C73 O68 1.255 . S
C74 O75 1.258 . S
C74 O76 1.256 . S
O75 Cd67 2.381 . S
O75 C74 1.258 . S
O76 Cd67 2.378 . S
O76 C74 1.256 . S
O77 Cd78 2.300 1_565 S
O77 C84 1.275 . S
Cd78 O77 2.300 1_545 S
Cd78 O86 2.381 . S
Cd78 O87 2.378 . S
O79 Cd80 2.385 . S
O79 C84 1.255 . S
Cd80 O79 2.385 . S
Cd80 O81 2.317 . S
O81 Cd80 2.317 . S
O81 C82 1.232 . S
C82 O81 1.232 . S
C82 O83 1.218 . S
O83 C82 1.218 . S
C84 O77 1.275 . S
C84 O79 1.255 . S
C85 O86 1.258 . S
C85 O87 1.256 . S
O86 Cd78 2.381 . S
O86 C85 1.258 . S
O87 Cd78 2.378 . S
O87 C85 1.256 . S
H88 O114 0.856 . S
H89 O117 0.854 . S
H90 C125 0.930 . S
H91 C126 0.930 . S
H92 C128 0.930 . S
H93 C129 0.930 . S
H94 C131 0.931 . S
H95 C132 0.930 . S
H96 C134 0.930 . S
H97 C135 0.929 . S
H98 C137 0.930 . S
H99 C138 0.931 . S
H100 C140 0.930 . S
H101 C141 0.929 . S
H102 C143 0.931 . S
H103 C144 0.930 . S
H104 C146 0.930 . S
H105 C147 0.932 . S
H106 C149 0.930 . S
H107 C150 0.929 . S
H108 C152 0.931 . S
H109 C153 0.930 . S
H110 C155 0.929 . S
H111 C156 0.931 . S
H112 C158 0.930 . S
H113 C159 0.929 . S
O114 H88 0.856 . S
O114 C160 1.300 . S
O115 C160 1.209 . S
O116 C161 1.199 . S
O117 H89 0.854 . S
O117 C161 1.297 . S
C118 C119 1.404 . S
C118 C123 1.397 . S
C118 C124 1.492 1_655 S
C119 C118 1.404 . S
C119 C120 1.396 . S
C119 C130 1.492 . S
C120 C119 1.396 . S
C120 C121 1.397 . S
C120 C136 1.509 . S
C121 C120 1.397 . S
C121 C122 1.412 . S
C121 C142 1.485 . S
C122 C121 1.412 . S
C122 C123 1.388 . S
C122 C148 1.490 . S
C123 C118 1.397 . S
C123 C122 1.388 . S
C123 C154 1.519 1_655 S
C124 C118 1.492 1_455 S
C124 C125 1.363 . S
C124 C129 1.390 . S
C125 H90 0.930 . S
C125 C124 1.363 . S
C125 C126 1.372 . S
C126 H91 0.930 . S
C126 C125 1.372 . S
C126 C127 1.383 . S
C127 C126 1.383 . S
C127 C128 1.395 . S
C128 H92 0.930 . S
C128 C127 1.395 . S
C128 C129 1.362 . S
C129 H93 0.930 . S
C129 C124 1.390 . S
C129 C128 1.362 . S
C130 C119 1.492 . S
C130 C131 1.377 . S
C130 C135 1.397 . S
C131 H94 0.931 . S
C131 C130 1.377 . S
C131 C132 1.376 . S
C132 H95 0.930 . S
C132 C131 1.376 . S
C132 C133 1.376 . S
C133 C132 1.376 . S
C133 C134 1.378 . S
C133 C160 1.486 . S
C134 H96 0.930 . S
C134 C133 1.378 . S
C134 C135 1.376 . S
C135 H97 0.929 . S
C135 C130 1.397 . S
C135 C134 1.376 . S
C136 C120 1.509 . S
C136 C137 1.391 . S
C136 C141 1.386 . S
C137 H98 0.930 . S
C137 C136 1.391 . S
C137 C138 1.375 . S
C138 H99 0.931 . S
C138 C137 1.375 . S
C138 C139 1.375 . S
C139 C138 1.375 . S
C139 C140 1.361 . S
C140 H100 0.930 . S
C140 C139 1.361 . S
C140 C141 1.399 . S
C141 H101 0.929 . S
C141 C136 1.386 . S
C141 C140 1.399 . S
C142 C121 1.485 . S
C142 C143 1.394 . S
C142 C147 1.360 . S
C143 H102 0.931 . S
C143 C142 1.394 . S
C143 C144 1.372 . S
C144 H103 0.930 . S
C144 C143 1.372 . S
C144 C145 1.397 . S
C145 C144 1.397 . S
C145 C146 1.390 . S
C145 C161 1.476 . S
C146 H104 0.930 . S
C146 C145 1.390 . S
C146 C147 1.366 . S
C147 H105 0.932 . S
C147 C142 1.360 . S
C147 C146 1.366 . S
C148 C122 1.490 . S
C148 C149 1.380 . S
C148 C153 1.386 . S
C149 H106 0.930 . S
C149 C148 1.380 . S
C149 C150 1.381 . S
C150 H107 0.929 . S
C150 C149 1.381 . S
C150 C151 1.371 . S
C151 C150 1.371 . S
C151 C152 1.380 . S
C152 H108 0.931 . S
C152 C151 1.380 . S
C152 C153 1.387 . S
C153 H109 0.930 . S
C153 C148 1.386 . S
C153 C152 1.387 . S
C154 C123 1.519 1_455 S
C154 C155 1.377 . S
C154 C159 1.361 . S
C155 H110 0.929 . S
C155 C154 1.377 . S
C155 C156 1.386 . S
C156 H111 0.931 . S
C156 C155 1.386 . S
C156 C157 1.363 . S
C157 C156 1.363 . S
C157 C158 1.385 . S
C158 H112 0.930 . S
C158 C157 1.385 . S
C158 C159 1.396 . S
C159 H113 0.929 . S
C159 C154 1.361 . S
C159 C158 1.396 . S
C160 O114 1.300 . S
C160 O115 1.209 . S
C160 C133 1.486 . S
C161 O116 1.199 . S
C161 O117 1.297 . S
C161 C145 1.476 . S
H162 O188 0.856 . S
H163 O191 0.854 . S
H164 C199 0.930 . S
H165 C200 0.930 . S
H166 C202 0.930 . S
H167 C203 0.930 . S
H168 C205 0.931 . S
H169 C206 0.930 . S
H170 C208 0.930 . S
H171 C209 0.929 . S
H172 C211 0.930 . S
H173 C212 0.931 . S
H174 C214 0.930 . S
H175 C215 0.929 . S
H176 C217 0.931 . S
H177 C218 0.930 . S
H178 C220 0.930 . S
H179 C221 0.932 . S
H180 C223 0.930 . S
H181 C224 0.929 . S
H182 C226 0.931 . S
H183 C227 0.930 . S
H184 C229 0.929 . S
H185 C230 0.931 . S
H186 C232 0.930 . S
H187 C233 0.929 . S
O188 H162 0.856 . S
O188 C234 1.300 . S
O189 C234 1.209 . S
O190 C235 1.199 . S
O191 H163 0.854 . S
O191 C235 1.297 . S
C192 C193 1.404 1_455 S
C192 C197 1.397 1_455 S
C192 C198 1.492 . S
C193 C192 1.404 1_655 S
C193 C194 1.396 . S
C193 C204 1.492 . S
C194 C193 1.396 . S
C194 C195 1.397 . S
C194 C210 1.509 . S
C195 C194 1.397 . S
C195 C196 1.412 . S
C195 C216 1.485 . S
C196 C195 1.412 . S
C196 C197 1.388 . S
C196 C222 1.490 . S
C197 C192 1.397 1_655 S
C197 C196 1.388 . S
C197 C228 1.519 1_655 S
C198 C192 1.492 . S
C198 C199 1.363 . S
C198 C203 1.390 . S
C199 H164 0.930 . S
C199 C198 1.363 . S
C199 C200 1.372 . S
C200 H165 0.930 . S
C200 C199 1.372 . S
C200 C201 1.383 . S
C201 C200 1.383 . S
C201 C202 1.395 . S
C202 H166 0.930 . S
C202 C201 1.395 . S
C202 C203 1.362 . S
C203 H167 0.930 . S
C203 C198 1.390 . S
C203 C202 1.362 . S
C204 C193 1.492 . S
C204 C205 1.377 . S
C204 C209 1.397 1_655 S
C205 H168 0.931 . S
C205 C204 1.377 . S
C205 C206 1.376 . S
C206 H169 0.930 . S
C206 C205 1.376 . S
C206 C207 1.376 1_655 S
C207 C206 1.376 1_455 S
C207 C208 1.378 . S
C207 C234 1.486 . S
C208 H170 0.930 . S
C208 C207 1.378 . S
C208 C209 1.376 . S
C209 H171 0.929 . S
C209 C204 1.397 1_455 S
C209 C208 1.376 . S
C210 C194 1.509 . S
C210 C211 1.391 . S
C210 C215 1.386 . S
C211 H172 0.930 . S
C211 C210 1.391 . S
C211 C212 1.375 . S
C212 H173 0.931 . S
C212 C211 1.375 . S
C212 C213 1.375 . S
C213 C212 1.375 . S
C213 C214 1.361 . S
C214 H174 0.930 . S
C214 C213 1.361 . S
C214 C215 1.399 . S
C215 H175 0.929 . S
C215 C210 1.386 . S
C215 C214 1.399 . S
C216 C195 1.485 . S
C216 C217 1.394 . S
C216 C221 1.360 . S
C217 H176 0.931 . S
C217 C216 1.394 . S
C217 C218 1.372 . S
C218 H177 0.930 . S
C218 C217 1.372 . S
C218 C219 1.397 . S
C219 C218 1.397 . S
C219 C220 1.390 . S
C219 C235 1.476 . S
C220 H178 0.930 . S
C220 C219 1.390 . S
C220 C221 1.366 . S
C221 H179 0.932 . S
C221 C216 1.360 . S
C221 C220 1.366 . S
C222 C196 1.490 . S
C222 C223 1.380 . S
C222 C227 1.386 . S
C223 H180 0.930 . S
C223 C222 1.380 . S
C223 C224 1.381 . S
C224 H181 0.929 . S
C224 C223 1.381 . S
C224 C225 1.371 . S
C225 C224 1.371 . S
C225 C226 1.380 . S
C226 H182 0.931 . S
C226 C225 1.380 . S
C226 C227 1.387 . S
C227 H183 0.930 . S
C227 C222 1.386 . S
C227 C226 1.387 . S
C228 C197 1.519 1_455 S
C228 C229 1.377 . S
C228 C233 1.361 . S
C229 H184 0.929 . S
C229 C228 1.377 . S
C229 C230 1.386 . S
C230 H185 0.931 . S
C230 C229 1.386 . S
C230 C231 1.363 . S
C231 C230 1.363 . S
C231 C232 1.385 . S
C232 H186 0.930 . S
C232 C231 1.385 . S
C232 C233 1.396 . S
C233 H187 0.929 . S
C233 C228 1.361 . S
C233 C232 1.396 . S
C234 O188 1.300 . S
C234 O189 1.209 . S
C234 C207 1.486 . S
C235 O190 1.199 . S
C235 O191 1.297 . S
C235 C219 1.476 . S
H236 O262 0.856 . S
H237 O265 0.854 . S
H238 C273 0.930 . S
H239 C274 0.930 . S
H240 C276 0.930 . S
H241 C277 0.930 . S
H242 C279 0.931 . S
H243 C280 0.930 . S
H244 C282 0.930 . S
H245 C283 0.929 . S
H246 C285 0.930 . S
H247 C286 0.931 . S
H248 C288 0.930 . S
H249 C289 0.929 . S
H250 C291 0.931 . S
H251 C292 0.930 . S
H252 C294 0.930 . S
H253 C295 0.932 . S
H254 C297 0.930 . S
H255 C298 0.929 . S
H256 C300 0.931 . S
H257 C301 0.930 . S
H258 C303 0.929 . S
H259 C304 0.931 . S
H260 C306 0.930 . S
H261 C307 0.929 . S
O262 H236 0.856 . S
O262 C308 1.300 . S
O263 C308 1.209 . S
O264 C309 1.199 . S
O265 H237 0.854 . S
O265 C309 1.297 . S
C266 C267 1.404 . S
C266 C271 1.397 . S
C266 C272 1.492 . S
C267 C266 1.404 . S
C267 C268 1.396 . S
C267 C278 1.492 . S
C268 C267 1.396 . S
C268 C269 1.397 . S
C268 C284 1.509 . S
C269 C268 1.397 . S
C269 C270 1.412 . S
C269 C290 1.485 . S
C270 C269 1.412 . S
C270 C271 1.388 . S
C270 C296 1.490 . S
C271 C266 1.397 . S
C271 C270 1.388 . S
C271 C302 1.519 . S
C272 C266 1.492 . S
C272 C273 1.363 . S
C272 C277 1.390 . S
C273 H238 0.930 . S
C273 C272 1.363 . S
C273 C274 1.372 . S
C274 H239 0.930 . S
C274 C273 1.372 . S
C274 C275 1.383 . S
C275 C274 1.383 . S
C275 C276 1.395 . S
C276 H240 0.930 . S
C276 C275 1.395 . S
C276 C277 1.362 . S
C277 H241 0.930 . S
C277 C272 1.390 . S
C277 C276 1.362 . S
C278 C267 1.492 . S
C278 C279 1.377 . S
C278 C283 1.397 . S
C279 H242 0.931 . S
C279 C278 1.377 . S
C279 C280 1.376 . S
C280 H243 0.930 . S
C280 C279 1.376 . S
C280 C281 1.376 . S
C281 C280 1.376 . S
C281 C282 1.378 . S
C281 C308 1.486 . S
C282 H244 0.930 . S
C282 C281 1.378 . S
C282 C283 1.376 . S
C283 H245 0.929 . S
C283 C278 1.397 . S
C283 C282 1.376 . S
C284 C268 1.509 . S
C284 C285 1.391 . S
C284 C289 1.386 . S
C285 H246 0.930 . S
C285 C284 1.391 . S
C285 C286 1.375 . S
C286 H247 0.931 . S
C286 C285 1.375 . S
C286 C287 1.375 . S
C287 C286 1.375 . S
C287 C288 1.361 . S
C288 H248 0.930 . S
C288 C287 1.361 . S
C288 C289 1.399 . S
C289 H249 0.929 . S
C289 C284 1.386 . S
C289 C288 1.399 . S
C290 C269 1.485 . S
C290 C291 1.394 . S
C290 C295 1.360 . S
C291 H250 0.931 . S
C291 C290 1.394 . S
C291 C292 1.372 . S
C292 H251 0.930 . S
C292 C291 1.372 . S
C292 C293 1.397 . S
C293 C292 1.397 . S
C293 C294 1.390 . S
C293 C309 1.476 . S
C294 H252 0.930 . S
C294 C293 1.390 . S
C294 C295 1.366 . S
C295 H253 0.932 . S
C295 C290 1.360 . S
C295 C294 1.366 . S
C296 C270 1.490 . S
C296 C297 1.380 . S
C296 C301 1.386 . S
C297 H254 0.930 . S
C297 C296 1.380 . S
C297 C298 1.381 . S
C298 H255 0.929 . S
C298 C297 1.381 . S
C298 C299 1.371 . S
C299 C298 1.371 . S
C299 C300 1.380 . S
C300 H256 0.931 . S
C300 C299 1.380 . S
C300 C301 1.387 . S
C301 H257 0.930 . S
C301 C296 1.386 . S
C301 C300 1.387 . S
C302 C271 1.519 . S
C302 C303 1.377 . S
C302 C307 1.361 . S
C303 H258 0.929 . S
C303 C302 1.377 . S
C303 C304 1.386 . S
C304 H259 0.931 . S
C304 C303 1.386 . S
C304 C305 1.363 . S
C305 C304 1.363 . S
C305 C306 1.385 . S
C306 H260 0.930 . S
C306 C305 1.385 . S
C306 C307 1.396 . S
C307 H261 0.929 . S
C307 C302 1.361 . S
C307 C306 1.396 . S
C308 O262 1.300 . S
C308 O263 1.209 . S
C308 C281 1.486 . S
C309 O264 1.199 . S
C309 O265 1.297 . S
C309 C293 1.476 . S
H310 O336 0.856 1_565 S
H311 O339 0.854 . S
H312 C347 0.930 . S
H313 C348 0.930 . S
H314 C350 0.928 1_554 S
H315 C351 0.930 . S
H316 C353 0.931 . S
H317 C354 0.930 . S
H318 C356 0.930 . S
H319 C357 0.929 . S
H320 C359 0.930 1_545 S
H321 C360 0.931 1_545 S
H322 C362 0.930 . S
H323 C363 0.929 . S
H324 C365 0.931 . S
H325 C366 0.930 1_545 S
H326 C368 0.930 . S
H327 C369 0.932 . S
H328 C371 0.930 . S
H329 C372 0.929 . S
H330 C374 0.931 . S
H331 C375 0.930 . S
H332 C377 0.929 . S
H333 C378 0.931 . S
H334 C380 0.930 . S
H335 C381 0.929 . S
O336 H310 0.856 1_545 S
O336 C382 1.300 1_545 S
O337 C382 1.209 . S
O338 C383 1.199 . S
O339 H311 0.854 . S
O339 C383 1.297 . S
C340 C341 1.404 1_554 S
C340 C345 1.397 . S
C340 C346 1.492 1_564 S
C341 C340 1.404 1_556 S
C341 C342 1.396 . S
C341 C352 1.492 . S
C342 C341 1.396 . S
C342 C343 1.397 1_556 S
C342 C358 1.509 . S
C343 C342 1.397 1_554 S
C343 C344 1.412 . S
C343 C364 1.485 . S
C344 C343 1.412 . S
C344 C345 1.388 . S
C344 C370 1.490 . S
C345 C340 1.397 . S
C345 C344 1.388 . S
C345 C376 1.519 1_565 S
C346 C340 1.492 1_546 S
C346 C347 1.363 . S
C346 C351 1.390 1_546 S
C347 H312 0.930 . S
C347 C346 1.363 . S
C347 C348 1.372 . S
C348 H313 0.930 . S
C348 C347 1.372 . S
C348 C349 1.383 . S
C349 C348 1.383 . S
C349 C350 1.397 1_545 S
C350 H314 0.928 1_556 S
C350 C349 1.397 1_565 S
C350 C351 1.361 1_556 S
C351 H315 0.930 . S
C351 C346 1.390 1_564 S
C351 C350 1.361 1_554 S
C352 C341 1.492 . S
C352 C353 1.377 1_565 S
C352 C357 1.397 . S
C353 H316 0.931 . S
C353 C352 1.377 1_545 S
C353 C354 1.376 . S
C354 H317 0.930 . S
C354 C353 1.376 . S
C354 C355 1.376 1_545 S
C355 C354 1.376 1_565 S
C355 C356 1.378 . S
C355 C382 1.486 . S
C356 H318 0.930 . S
C356 C355 1.378 . S
C356 C357 1.376 . S
C357 H319 0.929 . S
C357 C352 1.397 . S
C357 C356 1.376 . S
C358 C342 1.509 . S
C358 C359 1.391 . S
C358 C363 1.386 . S
C359 H320 0.930 1_565 S
C359 C358 1.391 . S
C359 C360 1.375 . S
C360 H321 0.931 1_565 S
C360 C359 1.375 . S
C360 C361 1.375 . S
C361 C360 1.375 . S
C361 C362 1.361 . S
C362 H322 0.930 . S
C362 C361 1.361 . S
C362 C363 1.399 . S
C363 H323 0.929 . S
C363 C358 1.386 . S
C363 C362 1.399 . S
C364 C343 1.485 . S
C364 C365 1.394 1_565 S
C364 C369 1.360 . S
C365 H324 0.931 . S
C365 C364 1.394 1_545 S
C365 C366 1.372 1_545 S
C366 H325 0.930 1_565 S
C366 C365 1.372 1_565 S
C366 C367 1.397 . S
C367 C366 1.397 . S
C367 C368 1.390 . S
C367 C383 1.476 . S
C368 H326 0.930 . S
C368 C367 1.390 . S
C368 C369 1.366 . S
C369 H327 0.932 . S
C369 C364 1.360 . S
C369 C368 1.366 . S
C370 C344 1.490 . S
C370 C371 1.380 1_565 S
C370 C375 1.386 . S
C371 H328 0.930 . S
C371 C370 1.380 1_545 S
C371 C372 1.381 . S
C372 H329 0.929 . S
C372 C371 1.381 . S
C372 C373 1.371 . S
C373 C372 1.371 . S
C373 C374 1.380 1_545 S
C374 H330 0.931 . S
C374 C373 1.380 1_565 S
C374 C375 1.387 . S
C375 H331 0.930 . S
C375 C370 1.386 . S
C375 C374 1.387 . S
C376 C345 1.519 1_545 S
C376 C377 1.377 . S
C376 C381 1.361 1_545 S
C377 H332 0.929 . S
C377 C376 1.377 . S
C377 C378 1.386 . S
C378 H333 0.931 . S
C378 C377 1.386 . S
C378 C379 1.363 . S
C379 C378 1.363 . S
C379 C380 1.385 1_545 S
C380 H334 0.930 . S
C380 C379 1.385 1_565 S
C380 C381 1.396 . S
C381 H335 0.929 . S
C381 C376 1.361 1_565 S
C381 C380 1.396 . S
C382 O336 1.300 1_565 S
C382 O337 1.209 . S
C382 C355 1.486 . S
C383 O338 1.199 . S
C383 O339 1.297 . S
C383 C367 1.476 . S
H384 O410 0.856 . S
H385 O413 0.854 . S
H386 C421 0.930 . S
H387 C422 0.930 . S
H388 C424 0.930 . S
H389 C425 0.930 . S
H390 C427 0.931 . S
H391 C428 0.930 . S
H392 C430 0.930 . S
H393 C431 0.929 . S
H394 C433 0.930 . S
H395 C434 0.931 . S
H396 C436 0.930 . S
H397 C437 0.929 . S
H398 C439 0.931 . S
H399 C440 0.930 . S
H400 C442 0.930 . S
H401 C443 0.932 . S
H402 C445 0.930 . S
H403 C446 0.929 . S
H404 C448 0.931 . S
H405 C449 0.930 . S
H406 C451 0.929 . S
H407 C452 0.931 . S
H408 C454 0.930 . S
H409 C455 0.929 . S
O410 H384 0.856 . S
O410 C456 1.300 . S
O411 C456 1.209 . S
O412 C457 1.199 . S
O413 H385 0.854 . S
O413 C457 1.297 . S
C414 C415 1.404 . S
C414 C419 1.397 . S
C414 C420 1.492 1_545 S
C415 C414 1.404 . S
C415 C416 1.396 . S
C415 C426 1.492 . S
C416 C415 1.396 . S
C416 C417 1.397 . S
C416 C432 1.509 . S
C417 C416 1.397 . S
C417 C418 1.412 . S
C417 C438 1.485 . S
C418 C417 1.412 . S
C418 C419 1.388 . S
C418 C444 1.490 . S
C419 C414 1.397 . S
C419 C418 1.388 . S
C419 C450 1.519 1_545 S
C420 C414 1.492 1_565 S
C420 C421 1.363 . S
C420 C425 1.390 . S
C421 H386 0.930 . S
C421 C420 1.363 . S
C421 C422 1.372 . S
C422 H387 0.930 . S
C422 C421 1.372 . S
C422 C423 1.383 . S
C423 C422 1.383 . S
C423 C424 1.395 . S
C424 H388 0.930 . S
C424 C423 1.395 . S
C424 C425 1.362 . S
C425 H389 0.930 . S
C425 C420 1.390 . S
C425 C424 1.362 . S
C426 C415 1.492 . S
C426 C427 1.377 . S
C426 C431 1.397 . S
C427 H390 0.931 . S
C427 C426 1.377 . S
C427 C428 1.376 . S
C428 H391 0.930 . S
C428 C427 1.376 . S
C428 C429 1.376 . S
C429 C428 1.376 . S
C429 C430 1.378 . S
C429 C456 1.486 . S
C430 H392 0.930 . S
C430 C429 1.378 . S
C430 C431 1.376 . S
C431 H393 0.929 . S
C431 C426 1.397 . S
C431 C430 1.376 . S
C432 C416 1.509 . S
C432 C433 1.391 . S
C432 C437 1.386 . S
C433 H394 0.930 . S
C433 C432 1.391 . S
C433 C434 1.375 . S
C434 H395 0.931 . S
C434 C433 1.375 . S
C434 C435 1.375 . S
C435 C434 1.375 . S
C435 C436 1.361 . S
C436 H396 0.930 . S
C436 C435 1.361 . S
C436 C437 1.399 . S
C437 H397 0.929 . S
C437 C432 1.386 . S
C437 C436 1.399 . S
C438 C417 1.485 . S
C438 C439 1.394 . S
C438 C443 1.360 . S
C439 H398 0.931 . S
C439 C438 1.394 . S
C439 C440 1.372 . S
C440 H399 0.930 . S
C440 C439 1.372 . S
C440 C441 1.397 . S
C441 C440 1.397 . S
C441 C442 1.390 . S
C441 C457 1.476 . S
C442 H400 0.930 . S
C442 C441 1.390 . S
C442 C443 1.366 . S
C443 H401 0.932 . S
C443 C438 1.360 . S
C443 C442 1.366 . S
C444 C418 1.490 . S
C444 C445 1.380 1_545 S
C444 C449 1.386 . S
C445 H402 0.930 . S
C445 C444 1.380 1_565 S
C445 C446 1.381 . S
C446 H403 0.929 . S
C446 C445 1.381 . S
C446 C447 1.371 1_565 S
C447 C446 1.371 1_545 S
C447 C448 1.380 . S
C448 H404 0.931 . S
C448 C447 1.380 . S
C448 C449 1.387 . S
C449 H405 0.930 . S
C449 C444 1.386 . S
C449 C448 1.387 . S
C450 C419 1.519 1_565 S
C450 C451 1.377 . S
C450 C455 1.361 1_565 S
C451 H406 0.929 . S
C451 C450 1.377 . S
C451 C452 1.386 . S
C452 H407 0.931 . S
C452 C451 1.386 . S
C452 C453 1.363 . S
C453 C452 1.363 . S
C453 C454 1.385 . S
C454 H408 0.930 . S
C454 C453 1.385 . S
C454 C455 1.396 1_565 S
C455 H409 0.929 . S
C455 C450 1.361 1_545 S
C455 C454 1.396 1_545 S
C456 O410 1.300 . S
C456 O411 1.209 . S
C456 C429 1.486 . S
C457 O412 1.199 . S
C457 O413 1.297 . S
C457 C441 1.476 . S
H458 O484 0.856 . S
H459 O487 0.854 . S
H460 C495 0.930 . S
H461 C496 0.930 . S
H462 C498 0.930 . S
H463 C499 0.930 . S
H464 C501 0.931 . S
H465 C502 0.930 . S
H466 C504 0.930 . S
H467 C505 0.929 . S
H468 C507 0.930 . S
H469 C508 0.931 . S
H470 C510 0.930 . S
H471 C511 0.929 . S
H472 C513 0.931 . S
H473 C514 0.930 . S
H474 C516 0.930 . S
H475 C517 0.932 . S
H476 C519 0.930 . S
H477 C520 0.929 . S
H478 C522 0.931 . S
H479 C523 0.930 . S
H480 C525 0.929 . S
H481 C526 0.931 . S
H482 C528 0.930 . S
H483 C529 0.929 . S
O484 H458 0.856 . S
O484 C530 1.300 . S
O485 C530 1.209 . S
O486 C531 1.199 . S
O487 H459 0.854 . S
O487 C531 1.297 . S
C488 C489 1.404 . S
C488 C493 1.397 1_556 S
C488 C494 1.492 . S
C489 C488 1.404 . S
C489 C490 1.396 . S
C489 C500 1.492 . S
C490 C489 1.396 . S
C490 C491 1.397 1_556 S
C490 C506 1.509 . S
C491 C490 1.397 1_554 S
C491 C492 1.412 . S
C491 C512 1.485 . S
C492 C491 1.412 . S
C492 C493 1.388 . S
C492 C518 1.490 . S
C493 C488 1.397 1_554 S
C493 C492 1.388 . S
C493 C524 1.519 . S
C494 C488 1.492 . S
C494 C495 1.363 . S
C494 C499 1.390 . S
C495 H460 0.930 . S
C495 C494 1.363 . S
C495 C496 1.372 . S
C496 H461 0.930 . S
C496 C495 1.372 . S
C496 C497 1.383 . S
C497 C496 1.383 . S
C497 C498 1.395 . S
C498 H462 0.930 . S
C498 C497 1.395 . S
C498 C499 1.362 . S
C499 H463 0.930 . S
C499 C494 1.390 . S
C499 C498 1.362 . S
C500 C489 1.492 . S
C500 C501 1.377 . S
C500 C505 1.397 . S
C501 H464 0.931 . S
C501 C500 1.377 . S
C501 C502 1.376 . S
C502 H465 0.930 . S
C502 C501 1.376 . S
C502 C503 1.376 . S
C503 C502 1.376 . S
C503 C504 1.378 . S
C503 C530 1.486 . S
C504 H466 0.930 . S
C504 C503 1.378 . S
C504 C505 1.376 . S
C505 H467 0.929 . S
C505 C500 1.397 . S
C505 C504 1.376 . S
C506 C490 1.509 . S
C506 C507 1.391 . S
C506 C511 1.386 . S
C507 H468 0.930 . S
C507 C506 1.391 . S
C507 C508 1.375 . S
C508 H469 0.931 . S
C508 C507 1.375 . S
C508 C509 1.375 . S
C509 C508 1.375 . S
C509 C510 1.361 . S
C510 H470 0.930 . S
C510 C509 1.361 . S
C510 C511 1.399 . S
C511 H471 0.929 . S
C511 C506 1.386 . S
C511 C510 1.399 . S
C512 C491 1.485 . S
C512 C513 1.394 . S
C512 C517 1.360 . S
C513 H472 0.931 . S
C513 C512 1.394 . S
C513 C514 1.372 . S
C514 H473 0.930 . S
C514 C513 1.372 . S
C514 C515 1.397 . S
C515 C514 1.397 . S
C515 C516 1.390 . S
C515 C531 1.476 . S
C516 H474 0.930 . S
C516 C515 1.390 . S
C516 C517 1.366 . S
C517 H475 0.932 . S
C517 C512 1.360 . S
C517 C516 1.366 . S
C518 C492 1.490 . S
C518 C519 1.380 . S
C518 C523 1.386 . S
C519 H476 0.930 . S
C519 C518 1.380 . S
C519 C520 1.381 . S
C520 H477 0.929 . S
C520 C519 1.381 . S
C520 C521 1.371 . S
C521 C520 1.371 . S
C521 C522 1.380 . S
C522 H478 0.931 . S
C522 C521 1.380 . S
C522 C523 1.387 . S
C523 H479 0.930 . S
C523 C518 1.386 . S
C523 C522 1.387 . S
C524 C493 1.519 . S
C524 C525 1.377 . S
C524 C529 1.361 . S
C525 H480 0.929 . S
C525 C524 1.377 . S
C525 C526 1.386 . S
C526 H481 0.931 . S
C526 C525 1.386 . S
C526 C527 1.363 . S
C527 C526 1.363 . S
C527 C528 1.385 . S
C528 H482 0.930 . S
C528 C527 1.385 . S
C528 C529 1.396 . S
C529 H483 0.929 . S
C529 C524 1.361 . S
C529 C528 1.396 . S
C530 O484 1.300 . S
C530 O485 1.209 . S
C530 C503 1.486 . S
C531 O486 1.199 . S
C531 O487 1.297 . S
C531 C515 1.476 . S
C532 C533 1.369 . S
C532 C534 1.419 . S
C532 H536 0.930 . S
C533 C532 1.369 . S
C533 C542 1.429 . S
C534 C532 1.419 . S
C534 C535 1.363 . S
C534 H537 0.929 . S
C535 C534 1.363 . S
C535 C541 1.428 . S
H536 C532 0.930 . S
H537 C534 0.929 . S
S538 N539 1.613 . S
S538 N540 1.610 . S
N539 S538 1.613 . S
N539 C542 1.350 . S
N540 S538 1.610 . S
N540 C541 1.351 . S
C541 C535 1.428 . S
C541 N540 1.351 . S
C541 C542 1.434 . S
C542 C533 1.429 . S
C542 N539 1.350 . S
C542 C541 1.434 . S
C543 C544 1.369 . S
C543 C545 1.419 . S
C543 H547 0.930 . S
C544 C543 1.369 . S
C544 C553 1.429 . S
C545 C543 1.419 . S
C545 C546 1.363 . S
C545 H548 0.929 . S
C546 C545 1.363 . S
C546 C552 1.428 . S
H547 C543 0.930 . S
H548 C545 0.929 . S
S549 N550 1.613 . S
S549 N551 1.610 . S
N550 S549 1.613 . S
N550 C553 1.350 . S
N551 S549 1.610 . S
N551 C552 1.351 . S
C552 C546 1.428 . S
C552 N551 1.351 . S
C552 C553 1.434 . S
C553 C544 1.429 . S
C553 N550 1.350 . S
C553 C552 1.434 . S
C554 C555 1.369 . S
C554 C556 1.419 . S
C554 H558 0.930 . S
C555 C554 1.369 . S
C555 C564 1.429 . S
C556 C554 1.419 . S
C556 C557 1.363 . S
C556 H559 0.929 . S
C557 C556 1.363 . S
C557 C563 1.428 . S
H558 C554 0.930 . S
H559 C556 0.929 . S
S560 N561 1.617 . S
S560 N562 1.610 . S
N561 S560 1.617 . S
N561 C564 1.349 1_455 S
N562 S560 1.610 . S
N562 C563 1.351 1_455 S
C563 C557 1.428 . S
C563 N562 1.351 1_655 S
C563 C564 1.434 . S
C564 C555 1.429 . S
C564 N561 1.349 1_655 S
C564 C563 1.434 . S
C565 C566 1.369 . S
C565 C567 1.419 . S
C565 H569 0.930 . S
C566 C565 1.369 . S
C566 C575 1.429 . S
C567 C565 1.419 . S
C567 C568 1.363 . S
C567 H570 0.929 . S
C568 C567 1.363 . S
C568 C574 1.428 . S
H569 C565 0.930 . S
H570 C567 0.929 . S
S571 N572 1.613 . S
S571 N573 1.610 . S
N572 S571 1.613 . S
N572 C575 1.350 . S
N573 S571 1.610 . S
N573 C574 1.351 . S
C574 C568 1.428 . S
C574 N573 1.351 . S
C574 C575 1.434 . S
C575 C566 1.429 . S
C575 N572 1.350 . S
C575 C574 1.434 . S
C576 C577 1.369 . S
C576 C578 1.419 . S
C576 H580 0.930 . S
C577 C576 1.369 . S
C577 C586 1.429 . S
C578 C576 1.419 . S
C578 C579 1.363 . S
C578 H581 0.929 . S
C579 C578 1.363 . S
C579 C585 1.428 . S
H580 C576 0.930 . S
H581 C578 0.929 . S
S582 N583 1.613 . S
S582 N584 1.610 . S
N583 S582 1.613 . S
N583 C586 1.350 . S
N584 S582 1.610 . S
N584 C585 1.351 . S
C585 C579 1.428 . S
C585 N584 1.351 . S
C585 C586 1.434 . S
C586 C577 1.429 . S
C586 N583 1.350 . S
C586 C585 1.434 . S
C587 C588 1.369 . S
C587 C589 1.419 . S
C587 H591 0.930 . S
C588 C587 1.369 . S
C588 C597 1.429 . S
C589 C587 1.419 . S
C589 C590 1.363 . S
C589 H592 0.929 . S
C590 C589 1.363 . S
C590 C596 1.428 . S
H591 C587 0.930 . S
H592 C589 0.929 . S
S593 N594 1.613 . S
S593 N595 1.610 . S
N594 S593 1.613 . S
N594 C597 1.350 . S
N595 S593 1.610 . S
N595 C596 1.351 . S
C596 C590 1.428 . S
C596 N595 1.351 . S
C596 C597 1.434 . S
C597 C588 1.429 . S
C597 N594 1.350 . S
C597 C596 1.434 . S
C598 C599 1.369 . S
C598 C600 1.419 . S
C598 H602 0.930 . S
C599 C598 1.369 . S
C599 C608 1.429 . S
C600 C598 1.419 . S
C600 C601 1.363 . S
C600 H603 0.929 . S
C601 C600 1.363 . S
C601 C607 1.428 . S
H602 C598 0.930 . S
H603 C600 0.929 . S
S604 N605 1.613 . S
S604 N606 1.610 . S
N605 S604 1.613 . S
N605 C608 1.350 . S
N606 S604 1.610 . S
N606 C607 1.351 . S
C607 C601 1.428 . S
C607 N606 1.351 . S
C607 C608 1.434 . S
C608 C599 1.429 . S
C608 N605 1.350 . S
C608 C607 1.434 . S
C609 C610 1.369 . S
C609 C611 1.419 . S
C609 H613 0.930 . S
C610 C609 1.369 . S
C610 C619 1.429 . S
C611 C609 1.419 . S
C611 C612 1.363 . S
C611 H614 0.929 . S
C612 C611 1.363 . S
C612 C618 1.428 . S
H613 C609 0.930 . S
H614 C611 0.929 . S
S615 N616 1.613 . S
S615 N617 1.610 . S
N616 S615 1.613 . S
N616 C619 1.350 . S
N617 S615 1.610 . S
N617 C618 1.351 . S
C618 C612 1.428 . S
C618 N617 1.351 . S
C618 C619 1.434 . S
C619 C610 1.429 . S
C619 N616 1.350 . S
C619 C618 1.434 . S
C620 C621 1.369 . S
C620 C622 1.419 . S
C620 H624 0.930 . S
C621 C620 1.369 . S
C621 C630 1.429 . S
C622 C620 1.419 . S
C622 C623 1.363 . S
C622 H625 0.929 . S
C623 C622 1.363 . S
C623 C629 1.428 . S
H624 C620 0.930 . S
H625 C622 0.929 . S
S626 N627 1.613 . S
S626 N628 1.610 . S
N627 S626 1.613 . S
N627 C630 1.350 . S
N628 S626 1.610 . S
N628 C629 1.351 . S
C629 C623 1.428 . S
C629 N628 1.351 . S
C629 C630 1.434 . S
C630 C621 1.429 . S
C630 N627 1.350 . S
C630 C629 1.434 . S
C631 C632 1.369 . S
C631 C633 1.419 . S
C631 H635 0.930 . S
C632 C631 1.369 . S
C632 C641 1.429 1_565 S
C633 C631 1.419 . S
C633 C634 1.358 1_565 S
C633 H636 0.929 . S
C634 C633 1.358 1_545 S
C634 C640 1.429 . S
H635 C631 0.930 . S
H636 C633 0.929 . S
S637 N638 1.613 . S
S637 N639 1.610 . S
N638 S637 1.613 . S
N638 C641 1.350 . S
N639 S637 1.610 . S
N639 C640 1.351 . S
C640 C634 1.429 . S
C640 N639 1.351 . S
C640 C641 1.434 . S
C641 C632 1.429 1_545 S
C641 N638 1.350 . S
C641 C640 1.434 . S
C642 C643 1.369 . S
C642 C644 1.419 . S
C642 H646 0.930 . S
C643 C642 1.369 . S
C643 C652 1.429 . S
C644 C642 1.419 . S
C644 C645 1.363 . S
C644 H647 0.929 . S
C645 C644 1.363 . S
C645 C651 1.428 . S
H646 C642 0.930 . S
H647 C644 0.929 . S
S648 N649 1.613 . S
S648 N650 1.610 . S
N649 S648 1.613 . S
N649 C652 1.350 . S
N650 S648 1.610 . S
N650 C651 1.351 . S
C651 C645 1.428 . S
C651 N650 1.351 . S
C651 C652 1.434 . S
C652 C643 1.429 . S
C652 N649 1.350 . S
C652 C651 1.434 . S
C653 C654 1.369 . S
C653 C655 1.419 . S
C653 H657 0.930 . S
C654 C653 1.369 . S
C654 C663 1.429 . S
C655 C653 1.419 . S
C655 C656 1.363 . S
C655 H658 0.929 . S
C656 C655 1.363 . S
C656 C662 1.428 . S
H657 C653 0.930 . S
H658 C655 0.929 . S
S659 N660 1.613 . S
S659 N661 1.610 . S
N660 S659 1.613 . S
N660 C663 1.350 . S
N661 S659 1.610 . S
N661 C662 1.351 . S
C662 C656 1.428 . S
C662 N661 1.351 . S
C662 C663 1.434 . S
C663 C654 1.429 . S
C663 N660 1.350 . S
C663 C662 1.434 . S
C664 C665 1.369 . S
C664 C666 1.419 . S
C664 H668 0.930 . S
C665 C664 1.369 . S
C665 C674 1.429 . S
C666 C664 1.419 . S
C666 C667 1.363 . S
C666 H669 0.929 . S
C667 C666 1.363 . S
C667 C673 1.428 . S
H668 C664 0.930 . S
H669 C666 0.929 . S
S670 N671 1.613 . S
S670 N672 1.610 . S
N671 S670 1.613 . S
N671 C674 1.350 . S
N672 S670 1.610 . S
N672 C673 1.351 . S
C673 C667 1.428 . S
C673 N672 1.351 . S
C673 C674 1.434 . S
C674 C665 1.429 . S
C674 N671 1.350 . S
C674 C673 1.434 . S
C675 C676 1.369 . S
C675 C677 1.419 . S
C675 H679 0.930 . S
C676 C675 1.369 . S
C676 C685 1.429 . S
C677 C675 1.419 . S
C677 C678 1.363 . S
C677 H680 0.929 . S
C678 C677 1.363 . S
C678 C684 1.428 . S
H679 C675 0.930 . S
H680 C677 0.929 . S
S681 N682 1.613 . S
S681 N683 1.610 . S
N682 S681 1.613 . S
N682 C685 1.350 . S
N683 S681 1.610 . S
N683 C684 1.351 . S
C684 C678 1.428 . S
C684 N683 1.351 . S
C684 C685 1.434 . S
C685 C676 1.429 . S
C685 N682 1.350 . S
C685 C684 1.434 . S
C686 C687 1.369 . S
C686 C688 1.419 . S
C686 H690 0.930 . S
C687 C686 1.369 . S
C687 C696 1.429 . S
C688 C686 1.419 . S
C688 C689 1.363 . S
C688 H691 0.929 . S
C689 C688 1.363 . S
C689 C695 1.428 . S
H690 C686 0.930 . S
H691 C688 0.929 . S
S692 N693 1.613 . S
S692 N694 1.610 . S
N693 S692 1.613 . S
N693 C696 1.350 . S
N694 S692 1.610 . S
N694 C695 1.351 . S
C695 C689 1.428 . S
C695 N694 1.351 . S
C695 C696 1.434 . S
C696 C687 1.429 . S
C696 N693 1.350 . S
C696 C695 1.434 . S
C697 C698 1.369 . S
C697 C699 1.419 . S
C697 H701 0.930 . S
C698 C697 1.369 . S
C698 C707 1.429 . S
C699 C697 1.419 . S
C699 C700 1.363 . S
C699 H702 0.929 . S
C700 C699 1.363 . S
C700 C706 1.428 . S
H701 C697 0.930 . S
H702 C699 0.929 . S
S703 N704 1.613 . S
S703 N705 1.610 . S
N704 S703 1.613 . S
N704 C707 1.350 . S
N705 S703 1.610 . S
N705 C706 1.351 . S
C706 C700 1.428 . S
C706 N705 1.351 . S
C706 C707 1.434 . S
C707 C698 1.429 . S
C707 N704 1.350 . S
C707 C706 1.434 . S
C708 C709 1.369 . S
C708 C710 1.419 . S
C708 H712 0.930 . S
C709 C708 1.369 . S
C709 C718 1.429 . S
C710 C708 1.419 . S
C710 C711 1.363 . S
C710 H713 0.929 . S
C711 C710 1.363 . S
C711 C717 1.428 . S
H712 C708 0.930 . S
H713 C710 0.929 . S
S714 N715 1.613 . S
S714 N716 1.610 . S
N715 S714 1.613 . S
N715 C718 1.350 . S
N716 S714 1.610 . S
N716 C717 1.351 . S
C717 C711 1.428 . S
C717 N716 1.351 . S
C717 C718 1.434 . S
C718 C709 1.429 . S
C718 N715 1.350 . S
C718 C717 1.434 . S
C719 C720 1.369 . S
C719 C721 1.419 . S
C719 H723 0.930 . S
C720 C719 1.369 . S
C720 C729 1.429 . S
C721 C719 1.419 . S
C721 C722 1.363 . S
C721 H724 0.929 . S
C722 C721 1.363 . S
C722 C728 1.428 . S
H723 C719 0.930 . S
H724 C721 0.929 . S
S725 N726 1.613 . S
S725 N727 1.610 . S
N726 S725 1.613 . S
N726 C729 1.350 . S
N727 S725 1.610 . S
N727 C728 1.351 . S
C728 C722 1.428 . S
C728 N727 1.351 . S
C728 C729 1.434 . S
C729 C720 1.429 . S
C729 N726 1.350 . S
C729 C728 1.434 . S
C730 C731 1.369 . S
C730 C732 1.419 . S
C730 H734 0.930 . S
C731 C730 1.369 . S
C731 C740 1.429 . S
C732 C730 1.419 . S
C732 C733 1.363 . S
C732 H735 0.929 . S
C733 C732 1.363 . S
C733 C739 1.428 . S
H734 C730 0.930 . S
H735 C732 0.929 . S
S736 N737 1.613 . S
S736 N738 1.610 . S
N737 S736 1.613 . S
N737 C740 1.350 . S
N738 S736 1.610 . S
N738 C739 1.351 . S
C739 C733 1.428 . S
C739 N738 1.351 . S
C739 C740 1.434 . S
C740 C731 1.429 . S
C740 N737 1.350 . S
C740 C739 1.434 . S
C741 C742 1.369 . S
C741 C743 1.419 . S
C741 H745 0.930 . S
C742 C741 1.369 . S
C742 C751 1.431 . S
C743 C741 1.419 . S
C743 C744 1.363 . S
C743 H746 0.929 . S
C744 C743 1.363 . S
C744 C750 1.428 1_565 S
H745 C741 0.930 . S
H746 C743 0.929 . S
S747 N748 1.613 . S
S747 N749 1.610 . S
N748 S747 1.613 . S
N748 C751 1.348 1_545 S
N749 S747 1.610 . S
N749 C750 1.351 . S
C750 C744 1.428 1_545 S
C750 N749 1.351 . S
C750 C751 1.432 1_545 S
C751 C742 1.431 . S
C751 N748 1.348 1_565 S
C751 C750 1.432 1_565 S
C752 C753 1.369 . S
C752 C754 1.419 . S
C752 H756 0.930 . S
C753 C752 1.369 . S
C753 C762 1.429 . S
C754 C752 1.419 . S
C754 C755 1.363 . S
C754 H757 0.929 . S
C755 C754 1.363 . S
C755 C761 1.428 . S
H756 C752 0.930 . S
H757 C754 0.929 . S
S758 N759 1.613 . S
S758 N760 1.610 . S
N759 S758 1.613 . S
N759 C762 1.350 . S
N760 S758 1.610 . S
N760 C761 1.351 . S
C761 C755 1.428 . S
C761 N760 1.351 . S
C761 C762 1.434 . S
C762 C753 1.429 . S
C762 N759 1.350 . S
C762 C761 1.434 . S
C763 C764 1.369 . S
C763 C765 1.419 . S
C763 H767 0.930 . S
C764 C763 1.369 . S
C764 C773 1.429 . S
C765 C763 1.419 . S
C765 C766 1.363 . S
C765 H768 0.929 . S
C766 C765 1.363 . S
C766 C772 1.428 . S
H767 C763 0.930 . S
H768 C765 0.929 . S
S769 N770 1.613 . S
S769 N771 1.610 . S
N770 S769 1.613 . S
N770 C773 1.350 . S
N771 S769 1.610 . S
N771 C772 1.351 . S
C772 C766 1.428 . S
C772 N771 1.351 . S
C772 C773 1.434 . S
C773 C764 1.429 . S
C773 N770 1.350 . S
C773 C772 1.434 . S
C774 C775 1.369 . S
C774 C776 1.419 . S
C774 H778 0.930 . S
C775 C774 1.369 . S
C775 C784 1.429 . S
C776 C774 1.419 . S
C776 C777 1.363 . S
C776 H779 0.929 . S
C777 C776 1.363 . S
C777 C783 1.428 . S
H778 C774 0.930 . S
H779 C776 0.929 . S
S780 N781 1.613 . S
S780 N782 1.610 . S
N781 S780 1.613 . S
N781 C784 1.350 . S
N782 S780 1.610 . S
N782 C783 1.351 . S
C783 C777 1.428 . S
C783 N782 1.351 . S
C783 C784 1.434 . S
C784 C775 1.429 . S
C784 N781 1.350 . S
C784 C783 1.434 . S
C785 C786 1.369 . S
C785 C787 1.419 . S
C785 H789 0.930 . S
C786 C785 1.369 . S
C786 C795 1.429 . S
C787 C785 1.419 . S
C787 C788 1.363 . S
C787 H790 0.929 . S
C788 C787 1.363 . S
C788 C794 1.428 . S
H789 C785 0.930 . S
H790 C787 0.929 . S
S791 N792 1.613 . S
S791 N793 1.610 . S
N792 S791 1.613 . S
N792 C795 1.350 . S
N793 S791 1.610 . S
N793 C794 1.351 . S
C794 C788 1.428 . S
C794 N793 1.351 . S
C794 C795 1.434 . S
C795 C786 1.429 . S
C795 N792 1.350 . S
C795 C794 1.434 . S
C535 C127 1.791 . S
C533 C5 1.704 . S
C546 C231 1.902 . S
C544 C16 1.505 . S
C557 C151 1.596 . S
C555 C30 1.558 . S
C568 C213 1.706 . S
C566 C40 1.706 . S
C579 C287 1.712 . S
C577 C8 1.761 . S
C590 C349 1.837 . S
C588 C18 1.934 . S
C599 C29 1.758 . S
C601 C423 1.725 . S
C612 C509 1.714 . S
C610 C38 1.843 . S
C623 C305 2.509 . S
C621 C19 2.527 . S
C632 C27 1.517 . S
C634 C373 1.773 . S
C645 C447 1.413 . S
C643 C41 1.555 . S
C656 C527 2.004 . S
C654 C7 2.088 . S
C665 C52 1.576 . S
C667 C225 1.553 . S
C678 C139 2.012 . S
C676 C62 2.175 . S
C687 C74 1.575 . S
C689 C201 1.556 . S
C698 C82 1.590 . S
C700 C157 1.987 . S
C711 C453 1.728 . S
C709 C51 1.715 . S
C722 C521 1.380 . S
C720 C60 1.305 . S
C733 C299 1.863 . S
C731 C71 1.899 . S
C742 C84 2.183 . S
C744 C379 2.302 1_565 S
C755 C435 1.329 . S
C753 C63 1.341 . S
C766 C497 1.490 . S
C764 C73 1.569 . S
C777 C275 1.857 . S
C775 C85 1.937 . S
C786 C49 1.240 . S
C788 C361 1.446 . S
