# Generated by pormake.
# Topology sit, (3,6)-cn, num edge types: 1
# Building blocks:
#     Node 0, Type 0, BuildingBlock: BELTOD_clean_linker_0, # of connection points: 3
#     Node 1, Type 0, BuildingBlock: BELTOD_clean_linker_0, # of connection points: 3
#     Node 2, Type 0, BuildingBlock: BELTOD_clean_linker_0, # of connection points: 3
#     Node 3, Type 0, BuildingBlock: BELTOD_clean_linker_0, # of connection points: 3
#     Node 4, Type 1, BuildingBlock: MIDCAF_clean_sbu_0, # of connection points: 6
#     Node 5, Type 1, BuildingBlock: MIDCAF_clean_sbu_0, # of connection points: 6
#     Edge 6, Type (0, 1), BuildingBlock: FUNLAD_clean_linker_0, # of connection points: 2
#     Edge 7, Type (0, 1), BuildingBlock: FUNLAD_clean_linker_0, # of connection points: 2
#     Edge 8, Type (0, 1), BuildingBlock: FUNLAD_clean_linker_0, # of connection points: 2
#     Edge 9, Type (0, 1), BuildingBlock: FUNLAD_clean_linker_0, # of connection points: 2
#     Edge 10, Type (0, 1), BuildingBlock: FUNLAD_clean_linker_0, # of connection points: 2
#     Edge 11, Type (0, 1), BuildingBlock: FUNLAD_clean_linker_0, # of connection points: 2
#     Edge 12, Type (0, 1), BuildingBlock: FUNLAD_clean_linker_0, # of connection points: 2
#     Edge 13, Type (0, 1), BuildingBlock: FUNLAD_clean_linker_0, # of connection points: 2
#     Edge 14, Type (0, 1), BuildingBlock: FUNLAD_clean_linker_0, # of connection points: 2
#     Edge 15, Type (0, 1), BuildingBlock: FUNLAD_clean_linker_0, # of connection points: 2
#     Edge 16, Type (0, 1), BuildingBlock: FUNLAD_clean_linker_0, # of connection points: 2
#     Edge 17, Type (0, 1), BuildingBlock: FUNLAD_clean_linker_0, # of connection points: 2
# Relax obj value: 0.105
# Max RMSD: 0.192
# Mean RMSD: 0.101
data_MOF--net-sit--node1-MIDCAF_clean_sbu_0--node2-BELTOD_clean_linker_0--edge1-FUNLAD_clean_linker_0
_symmetry_space_group_name_H-M    P1
_symmetry_Int_Tables_number       1
_symmetry_cell_setting            triclinic
loop_
_symmetry_equiv_pos_as_xyz
'x, y, z'
_cell_length_a     29.758636
_cell_length_b     41.323247
_cell_length_c     45.703488
_cell_angle_alpha  90.152063
_cell_angle_beta   90.208182
_cell_angle_gamma 84.208565
loop_
_atom_site_label
_atom_site_type_symbol
_atom_site_fract_x
_atom_site_fract_y
_atom_site_fract_z
_atom_type_partial_charge
P0 P 0.08687 0.24225 0.96914 0.0
H1 H 0.1652 0.23688 0.93008 0.0
H2 H 0.22811 0.27009 0.9249 0.0
H3 H 0.18276 0.32554 0.00141 0.0
H4 H 0.11986 0.29204 0.00654 0.0
H5 H 0.01877 0.20062 0.98685 0.0
H6 H 0.01175 0.16537 0.02923 0.0
H7 H 0.13815 0.19292 0.06325 0.0
H8 H 0.14519 0.22765 0.02083 0.0
H9 H 0.06942 0.29306 0.92632 0.0
H10 H 0.00696 0.26389 0.00572 0.0
O11 O 0.08504 0.21859 0.93961 0.0
H12 H 0.01257 0.33934 0.92194 0.0
H13 H 0.94788 0.30889 0.00045 0.0
C14 C 0.13805 0.26196 0.96877 0.0
C15 C 0.16924 0.25575 0.94608 0.0
C16 C 0.20496 0.27493 0.94299 0.0
C17 C 0.21004 0.30063 0.96258 0.0
C18 C 0.17987 0.30579 0.9861 0.0
C19 C 0.14399 0.28669 0.98906 0.0
C20 C 0.08208 0.21714 0.00089 0.0
C21 C 0.04484 0.19912 0.00353 0.0
C22 C 0.04083 0.17907 0.02776 0.0
C23 C 0.07438 0.1764 0.04959 0.0
C24 C 0.11195 0.19422 0.04665 0.0
C25 C 0.11578 0.2144 0.02249 0.0
C26 C 0.04212 0.27474 0.96605 0.0
C27 C 0.04292 0.29634 0.94257 0.0
C28 C 0.01013 0.32275 0.94003 0.0
C29 C 0.97511 0.32783 0.96066 0.0
C30 C 0.9745 0.30605 0.9843 0.0
C31 C 0.00798 0.27989 0.9871 0.0
P32 P 0.03834 0.68977 0.09119 0.0
H33 H 0.1086 0.63533 0.09908 0.0
H34 H 0.1691 0.61157 0.06714 0.0
H35 H 0.12754 0.6831 0.00099 0.0
H36 H 0.06803 0.70709 0.03328 0.0
H37 H 0.9674 0.74013 0.10773 0.0
H38 H 0.96728 0.7981 0.11794 0.0
H39 H 0.10888 0.79265 0.09554 0.0
H40 H 0.10896 0.73442 0.08621 0.0
H41 H 0.98399 0.63521 0.09747 0.0
H42 H 0.98342 0.7212 0.04419 0.0
O43 O 0.04219 0.67273 0.12428 0.0
H44 H 0.9186 0.61919 0.07046 0.0
H45 H 0.91873 0.70512 0.01671 0.0
C46 C 0.08441 0.67326 0.06866 0.0
C47 C 0.11288 0.64607 0.07783 0.0
C48 C 0.14716 0.63233 0.05945 0.0
C49 C 0.15325 0.64553 0.03158 0.0
C50 C 0.12429 0.6727 0.02251 0.0
C51 C 0.09014 0.68638 0.04088 0.0
C52 C 0.0379 0.7331 0.09566 0.0
C53 C -0.00177 0.75154 0.10455 0.0
C54 C -0.00183 0.78477 0.11018 0.0
C55 C 0.03801 0.80016 0.1073 0.0
C56 C 0.07766 0.78157 0.09805 0.0
C57 C 0.07767 0.74828 0.0925 0.0
C58 C 0.98774 0.67976 0.07328 0.0
C59 C 0.96941 0.65083 0.08019 0.0
C60 C 0.93237 0.64155 0.06453 0.0
C61 C 0.91338 0.66094 0.04149 0.0
C62 C 0.93202 0.68994 0.03467 0.0
C63 C 0.96903 0.69916 0.05033 0.0
P64 P 0.61573 0.74465 0.46855 0.0
H65 H 0.7091 0.74403 0.44856 0.0
H66 H 0.76347 0.78448 0.4513 0.0
H67 H 0.66923 0.84688 0.50315 0.0
H68 H 0.61476 0.80655 0.49984 0.0
H69 H 0.62845 0.67394 0.47698 0.0
H70 H 0.62247 0.63966 0.52009 0.0
H71 H 0.59305 0.72572 0.57331 0.0
H72 H 0.5984 0.75975 0.53011 0.0
H73 H 0.5908 0.80064 0.43161 0.0
H74 H 0.52315 0.73983 0.49015 0.0
O75 O 0.62843 0.72163 0.43909 0.0
H76 H 0.51982 0.83442 0.42324 0.0
H77 H 0.45204 0.77381 0.4821 0.0
C78 C 0.65775 0.77253 0.47361 0.0
C79 C 0.70032 0.76629 0.4607 0.0
C80 C 0.73145 0.78938 0.46245 0.0
C81 C 0.72049 0.81902 0.47727 0.0
C82 C 0.67838 0.82454 0.49119 0.0
C83 C 0.64737 0.80139 0.48948 0.0
C84 C 0.61388 0.71938 0.5004 0.0
C85 C 0.62095 0.68542 0.49795 0.0
C86 C 0.61771 0.66584 0.52261 0.0
C87 C 0.60707 0.67999 0.55005 0.0
C88 C 0.60067 0.71409 0.5524 0.0
C89 C 0.60409 0.73359 0.52778 0.0
C90 C 0.56246 0.76818 0.46197 0.0
C91 C 0.5607 0.7947 0.44283 0.0
C92 C 0.5202 0.81412 0.43822 0.0
C93 C 0.48052 0.80707 0.45238 0.0
C94 C 0.48212 0.77988 0.47096 0.0
C95 C 0.52282 0.76053 0.47567 0.0
P96 P 0.53107 0.21186 0.58585 0.0
H97 H 0.62819 0.19837 0.59672 0.0
H98 H 0.69203 0.18389 0.564 0.0
H99 H 0.60224 0.19627 0.48943 0.0
H100 H 0.53883 0.21107 0.52222 0.0
H101 H 0.4861 0.24816 0.6337 0.0
H102 H 0.46957 0.30606 0.64335 0.0
H103 H 0.51895 0.32756 0.55739 0.0
H104 H 0.53651 0.26934 0.54827 0.0
H105 H 0.52589 0.14303 0.57761 0.0
H106 H 0.44234 0.2321 0.55904 0.0
O107 O 0.54527 0.19579 0.61846 0.0
H108 H 0.47212 0.11195 0.5519 0.0
H109 H 0.38837 0.20115 0.5333 0.0
C110 C 0.57881 0.2053 0.56186 0.0
C111 C 0.62238 0.19824 0.57332 0.0
C112 C 0.65875 0.18982 0.55462 0.0
C113 C 0.65204 0.1886 0.52417 0.0
C114 C 0.60855 0.19715 0.51276 0.0
C115 C 0.57225 0.20545 0.53148 0.0
C116 C 0.51368 0.25451 0.59066 0.0
C117 C 0.49304 0.26532 0.61684 0.0
C118 C 0.48309 0.29853 0.62216 0.0
C119 C 0.49318 0.32162 0.6012 0.0
C120 C 0.51146 0.3105 0.5742 0.0
C121 C 0.5215 0.27718 0.56894 0.0
C122 C 0.48772 0.18973 0.57054 0.0
C123 C 0.49554 0.15581 0.5684 0.0
C124 C 0.46508 0.13813 0.55351 0.0
C125 C 0.42616 0.15415 0.54058 0.0
C126 C 0.41787 0.18816 0.54335 0.0
C127 C 0.44865 0.20587 0.55806 0.0
Zn128 Zn 0.05707 0.08797 0.35477 0.0
Zn129 Zn 0.05486 0.96505 0.3502 0.0
Zn130 Zn 0.05788 0.02492 0.35334 0.0
C131 C 0.04233 0.98507 0.29425 0.0
C132 C 0.98828 0.98483 0.38824 0.0
O133 O 0.11659 0.03507 0.38008 0.0
O134 O 0.10151 0.08807 0.3873 0.0
C135 C 0.07284 0.07059 0.29743 0.0
O136 O 0.05648 0.01029 0.30652 0.0
O137 O 0.03211 0.96168 0.30971 0.0
O138 O 0.01311 0.95906 0.38264 0.0
O139 O -0.00301 0.01206 0.37699 0.0
O140 O 0.0774 0.09442 0.31412 0.0
O141 O 0.0625 0.04343 0.30802 0.0
O142 O -0.00455 0.04601 0.37517 0.0
O143 O 0.99225 0.09847 0.36474 0.0
C144 C 0.97455 0.0749 0.3759 0.0
O145 O 0.12032 1.00168 0.37438 0.0
O146 O 0.11959 0.95172 0.35722 0.0
C147 C 0.12517 0.06166 0.39271 0.0
C148 C 0.13965 0.97259 0.37094 0.0
Zn149 Zn 0.5334 0.58228 0.85023 0.0
Zn150 Zn 0.58694 0.45377 0.84063 0.0
Zn151 Zn 0.55957 0.51782 0.84608 0.0
C152 C 0.57173 0.47913 0.78433 0.0
C153 C 0.50516 0.46032 0.87183 0.0
O154 O 0.61185 0.54011 0.87103 0.0
O155 O 0.58409 0.59157 0.87673 0.0
C156 C 0.54528 0.56816 0.79114 0.0
O157 O 0.5615 0.50545 0.79905 0.0
O158 O 0.58458 0.4528 0.79722 0.0
O159 O 0.53616 0.4391 0.86368 0.0
O160 O 0.50788 0.4907 0.86667 0.0
O161 O 0.53538 0.59216 0.80787 0.0
O162 O 0.55426 0.53934 0.80172 0.0
O163 O 0.49505 0.52426 0.87039 0.0
O164 O 0.47398 0.57717 0.86768 0.0
C165 C 0.46639 0.54905 0.87574 0.0
O166 O 0.62643 0.50695 0.86764 0.0
O167 O 0.64624 0.45449 0.85961 0.0
C168 C 0.6148 0.56878 0.88155 0.0
C169 C 0.65474 0.48137 0.87029 0.0
C170 C 0.10757 0.13592 0.08653 0.0
C171 C 0.06998 0.15558 0.07563 0.0
C172 C 0.10421 0.11795 0.11215 0.0
C173 C 0.06322 0.11959 0.12763 0.0
C174 C 0.02518 0.13805 0.11597 0.0
C175 C 0.0285 0.15593 0.09029 0.0
C176 C 0.05924 0.1036 0.15649 0.0
C177 C 0.09447 0.09779 0.175 0.0
C178 C 0.08959 0.08787 0.20592 0.0
C179 C 0.12085 0.0974 0.22648 0.0
C180 C 0.11573 0.09111 0.25616 0.0
C181 C 0.07979 0.07449 0.26585 0.0
H182 H 0.03011 0.06188 0.20025 0.0
C183 C 0.04929 0.06385 0.24535 0.0
C184 C 0.05419 0.07035 0.21555 0.0
H185 H 0.02096 0.05136 0.25246 0.0
H186 H 0.13968 0.13449 0.07528 0.0
H187 H 0.13387 0.10299 0.11973 0.0
H188 H 0.9931 0.13956 0.12729 0.0
H189 H -0.00106 0.1709 0.08247 0.0
H190 H 0.02548 0.10005 0.16394 0.0
H191 H 0.12749 0.10421 0.16853 0.0
H192 H 0.14856 0.11074 0.21967 0.0
H193 H 0.13966 0.09956 0.27164 0.0
C194 C 0.07498 0.84398 0.13336 0.0
C195 C 0.03882 0.83465 0.11651 0.0
C196 C 0.07269 0.8748 0.14621 0.0
C197 C 0.03412 0.89714 0.14242 0.0
C198 C -0.0007 0.88854 0.12404 0.0
C199 C 0.00166 0.8577 0.11113 0.0
C200 C 0.02561 0.92663 0.16114 0.0
C201 C 0.05799 0.93933 0.17688 0.0
C202 C 0.04836 0.95858 0.2041 0.0
C203 C 0.009 0.95557 0.22051 0.0
C204 C 0.00573 0.9667 0.24931 0.0
C205 C 0.04136 0.98129 0.26228 0.0
H206 H 0.1135 0.97771 0.20455 0.0
C207 C 0.0792 0.98662 0.24542 0.0
C208 C 0.08269 0.97526 0.21654 0.0
H209 H 0.10738 0.99744 0.25517 0.0
H210 H 0.10387 0.82675 0.1383 0.0
H211 H 0.0999 0.87989 0.1607 0.0
H212 H 0.96913 0.90514 0.12079 0.0
H213 H 0.97356 0.85149 0.09784 0.0
H214 H 0.99053 0.93597 0.16432 0.0
H215 H 0.09327 0.93258 0.17169 0.0
H216 H 0.98209 0.9423 0.21228 0.0
H217 H 0.9764 0.96212 0.26206 0.0
C218 C 0.56557 0.66727 0.59542 0.0
C219 C 0.60159 0.65939 0.57608 0.0
C220 C 0.56086 0.64875 0.62047 0.0
C221 C 0.59196 0.62165 0.62672 0.0
C222 C 0.62791 0.61368 0.60734 0.0
C223 C 0.63251 0.63219 0.58213 0.0
C224 C 0.58975 0.60317 0.65445 0.0
C225 C 0.55082 0.60124 0.66898 0.0
C226 C 0.54875 0.58955 0.69956 0.0
C227 C 0.51318 0.60314 0.71717 0.0
C228 C 0.51185 0.59562 0.74684 0.0
C229 C 0.5455 0.57374 0.75937 0.0
H230 H 0.60909 0.55516 0.69879 0.0
C231 C 0.58015 0.55894 0.74164 0.0
C232 C 0.58182 0.56676 0.71189 0.0
H233 H 0.60658 0.54209 0.75095 0.0
H234 H 0.54102 0.68795 0.59126 0.0
H235 H 0.53359 0.6565 0.63529 0.0
H236 H 0.65271 0.59324 0.61186 0.0
H237 H 0.66089 0.62573 0.56776 0.0
H238 H 0.62147 0.59251 0.66371 0.0
H239 H 0.51925 0.61159 0.65928 0.0
H240 H 0.48717 0.6206 0.70821 0.0
H241 H 0.48467 0.60721 0.76009 0.0
C242 C 0.52367 0.37612 0.60165 0.0
C243 C 0.48914 0.35677 0.60905 0.0
C244 C 0.52553 0.40665 0.6146 0.0
C245 C 0.49328 0.41818 0.63562 0.0
C246 C 0.45604 0.40053 0.64033 0.0
C247 C 0.45397 0.37014 0.62721 0.0
C248 C 0.5004 0.44526 0.65617 0.0
C249 C 0.54201 0.4529 0.6635 0.0
C250 C 0.55212 0.46636 0.69266 0.0
C251 C 0.59307 0.45472 0.70607 0.0
C252 C 0.60032 0.46042 0.73568 0.0
C253 C 0.56729 0.47865 0.75228 0.0
H254 H 0.489 0.4969 0.69884 0.0
C255 C 0.52802 0.49291 0.73843 0.0
C256 C 0.52039 0.48678 0.70875 0.0
H257 H 0.50219 0.50721 0.75088 0.0
H258 H 0.55112 0.36683 0.5875 0.0
H259 H 0.55363 0.42019 0.60921 0.0
H260 H 0.43012 0.40906 0.65591 0.0
H261 H 0.42608 0.35634 0.63262 0.0
H262 H 0.47198 0.45393 0.66992 0.0
H263 H 0.57099 0.44261 0.65105 0.0
H264 H 0.61825 0.43916 0.69417 0.0
H265 H 0.63102 0.44942 0.74592 0.0
C266 C 0.25162 0.33488 0.92912 0.0
C267 C 0.24503 0.32307 0.95741 0.0
C268 C 0.28443 0.35601 0.92393 0.0
C269 C 0.31138 0.36592 0.94699 0.0
C270 C 0.30484 0.35408 0.97527 0.0
C271 C 0.2717 0.33309 0.98051 0.0
C272 C 0.34894 0.38623 0.94167 0.0
C273 C 0.34928 0.40708 0.91905 0.0
C274 C 0.38971 0.42307 0.91032 0.0
C275 C 0.38421 0.45041 0.89192 0.0
C276 C 0.4218 0.46347 0.8802 0.0
C277 C 0.46555 0.44939 0.88669 0.0
H278 H 0.43967 0.38787 0.93055 0.0
C279 C 0.47117 0.42253 0.90552 0.0
C280 C 0.43375 0.4095 0.91726 0.0
H281 H 0.50464 0.41104 0.9106 0.0
H282 H 0.23128 0.32783 0.91092 0.0
H283 H 0.28932 0.36373 0.90166 0.0
H284 H 0.32559 0.36096 0.99334 0.0
H285 H 0.26755 0.32419 0.00251 0.0
H286 H 0.37727 0.38353 0.9568 0.0
H287 H 0.31904 0.41215 0.90578 0.0
H288 H 0.35072 0.46109 0.88589 0.0
H289 H 0.41658 0.48363 0.86507 0.0
C290 C 0.87381 0.61808 0.01572 0.0
C291 C 0.87489 0.65072 0.0242 0.0
C292 C 0.83806 0.60865 -0.00115 0.0
C293 C 0.80271 0.63178 0.98994 0.0
C294 C 0.80349 0.66425 -0.00112 0.0
C295 C 0.8392 0.67366 0.01572 0.0
C296 C 0.76385 0.62313 0.97206 0.0
C297 C 0.76457 0.59624 0.9552 0.0
C298 C 0.7255 0.58885 0.93686 0.0
C299 C 0.73319 0.56926 0.91184 0.0
C300 C 0.69724 0.56269 0.89369 0.0
C301 C 0.65297 0.57514 0.90055 0.0
H302 H 0.67315 0.61499 0.9635 0.0
C303 C 0.64508 0.59429 0.92573 0.0
C304 C 0.68085 0.60084 0.94388 0.0
H305 H 0.61106 0.60389 0.93159 0.0
H306 H 0.90092 0.59984 0.0218 0.0
H307 H 0.83819 0.58321 0.9932 0.0
H308 H 0.77647 0.68253 0.99267 0.0
H309 H 0.83864 0.6989 0.02229 0.0
H310 H 0.73424 0.64077 0.97167 0.0
H311 H 0.79543 0.58 0.95328 0.0
H312 H 0.76716 0.55955 0.90599 0.0
H313 H 0.70415 0.54863 0.87393 0.0
C314 C 0.92397 0.36477 0.92877 0.0
C315 C 0.93905 0.35529 0.95697 0.0
C316 C 0.89009 0.39024 0.92493 0.0
C317 C 0.86993 0.40678 0.94919 0.0
C318 C 0.88429 0.39719 0.9774 0.0
C319 C 0.91892 0.37196 0.98128 0.0
C320 C 0.83066 0.43148 0.94517 0.0
C321 C 0.82739 0.4515 0.92188 0.0
C322 C 0.78372 0.46716 0.91054 0.0
C323 C 0.77983 0.47209 0.88021 0.0
C324 C 0.73756 0.47931 0.86727 0.0
C325 C 0.69861 0.48269 0.88452 0.0
H326 H 0.74679 0.47077 0.95161 0.0
C327 C 0.70251 0.48102 0.91506 0.0
C328 C 0.74492 0.47332 0.92808 0.0
H329 H 0.6726 0.48354 0.92865 0.0
H330 H 0.93743 0.35195 0.90952 0.0
H331 H 0.87849 0.39604 0.90289 0.0
H332 H 0.86872 0.40924 0.99644 0.0
H333 H 0.92989 0.36561 0.00332 0.0
H334 H 0.80251 0.43052 0.96005 0.0
H335 H 0.8567 0.45213 0.90782 0.0
H336 H 0.80913 0.4678 0.86619 0.0
H337 H 0.73502 0.48039 0.84362 0.0
C338 C 0.19872 0.59726 0.00893 0.0
C339 C 0.18956 0.63119 0.01191 0.0
C340 C 0.23187 0.58401 0.98945 0.0
C341 C 0.25657 0.60453 0.97269 0.0
C342 C 0.24758 0.63835 0.97595 0.0
C343 C 0.21467 0.65153 0.99538 0.0
C344 C 0.29073 0.5922 0.95073 0.0
C345 C 0.31203 0.56182 0.95004 0.0
C346 C 0.34849 0.55293 0.92853 0.0
C347 C 0.38733 0.53296 0.93705 0.0
C348 C 0.42537 0.52954 0.91888 0.0
C349 C 0.42458 0.54585 0.89196 0.0
H350 H 0.31645 0.5809 0.89259 0.0
C351 C 0.38447 0.56337 0.88241 0.0
C352 C 0.34657 0.56654 0.90034 0.0
H353 H 0.38303 0.57578 0.86151 0.0
H354 H 0.17946 0.58096 0.02108 0.0
H355 H 0.23708 0.55785 0.98711 0.0
H356 H 0.2661 0.65475 0.96334 0.0
H357 H 0.20896 0.67774 -0.00252 0.0
H358 H 0.30071 0.60999 0.93517 0.0
H359 H 0.30612 0.54442 0.967 0.0
H360 H 0.38932 0.52179 0.95849 0.0
H361 H 0.4561 0.51589 0.9266 0.0
C362 C 0.73617 0.8773 0.47184 0.0
C363 C 0.75213 0.84458 0.47695 0.0
C364 C 0.76637 0.90091 0.46885 0.0
C365 C 0.81325 0.89218 0.47078 0.0
C366 C 0.82887 0.85977 0.47734 0.0
C367 C 0.79874 0.83623 0.48029 0.0
C368 C 0.84737 0.91523 0.46477 0.0
C369 C 0.83895 0.94331 0.44975 0.0
C370 C 0.87597 0.96099 0.43778 0.0
C371 C 0.86875 0.97828 0.41142 0.0
C372 C 0.9052 0.98893 0.39616 0.0
C373 C 0.94916 0.98244 0.40719 0.0
H374 H 0.92618 0.94643 0.47125 0.0
C375 C 0.95588 0.9681 0.4348 0.0
C376 C 0.91952 0.958 0.45026 0.0
H377 H 0.98965 0.96327 0.44377 0.0
H378 H 0.70039 0.8845 0.46914 0.0
H379 H 0.7527 0.92571 0.46467 0.0
H380 H 0.86473 0.85234 0.47931 0.0
H381 H 0.81204 0.81136 0.4848 0.0
H382 H 0.88205 0.90645 0.47 0.0
H383 H 0.80491 0.95112 0.44238 0.0
H384 H 0.83544 0.98146 0.40156 0.0
H385 H 0.89946 1.00002 0.37484 0.0
C386 C 0.34821 0.14162 0.52699 0.0
C387 C 0.39512 0.13557 0.52342 0.0
C388 C 0.31891 0.12488 0.51011 0.0
C389 C 0.33598 0.10171 0.48924 0.0
C390 C 0.38286 0.09575 0.48564 0.0
C391 C 0.4122 0.11229 0.50275 0.0
C392 C 0.30554 0.08565 0.46933 0.0
C393 C 0.26366 0.07967 0.47722 0.0
C394 C 0.22897 0.07072 0.45613 0.0
C395 C 0.18358 0.08037 0.46265 0.0
C396 C 0.14983 0.07634 0.44218 0.0
C397 C 0.16066 0.06186 0.41503 0.0
H398 H 0.27419 0.04628 0.42385 0.0
C399 C 0.20563 0.05055 0.40885 0.0
C400 C 0.23969 0.05489 0.4293 0.0
H401 H 0.21452 0.03937 0.38791 0.0
H402 H 0.33416 0.15943 0.54276 0.0
H403 H 0.28295 0.13101 0.51282 0.0
H404 H 0.39681 0.07843 0.46942 0.0
H405 H 0.44825 0.10749 0.49925 0.0
H406 H 0.31744 0.08029 0.44726 0.0
H407 H 0.25266 0.08476 0.49955 0.0
H408 H 0.17433 0.09243 0.48317 0.0
H409 H 0.11523 0.08521 0.44732 0.0
C410 C 0.43634 0.86159 0.4458 0.0
C411 C 0.43746 0.82751 0.44692 0.0
C412 C 0.39656 0.88071 0.43827 0.0
C413 C 0.35709 0.86604 0.43168 0.0
C414 C 0.358 0.83206 0.43356 0.0
C415 C 0.39766 0.81299 0.44126 0.0
C416 C 0.3158 0.88475 0.42 0.0
C417 C 0.30521 0.91698 0.42373 0.0
C418 C 0.26503 0.93405 0.40915 0.0
C419 C 0.23765 0.95847 0.42394 0.0
C420 C 0.19732 0.97227 0.41116 0.0
C421 C 0.18464 0.96236 0.38317 0.0
H422 H 0.27444 0.90746 0.36824 0.0
C423 C 0.2134 0.93931 0.36783 0.0
C424 C 0.25324 0.92541 0.3806 0.0
H425 H 0.20448 0.9314 0.34613 0.0
H426 H 0.46648 0.87345 0.4503 0.0
H427 H 0.39749 0.90673 0.4365 0.0
H428 H 0.32816 0.82012 0.42839 0.0
H429 H 0.39757 0.78679 0.44165 0.0
H430 H 0.29277 0.87108 0.40761 0.0
H431 H 0.3249 0.93078 0.43836 0.0
H432 H 0.24634 0.96571 0.44588 0.0
H433 H 0.17509 0.98942 0.42366 0.0
C434 C 0.71911 0.14942 0.51193 0.0
C435 C 0.68968 0.17692 0.50444 0.0
C436 C 0.75343 0.13744 0.49288 0.0
C437 C 0.75893 0.15268 0.46581 0.0
C438 C 0.73011 0.18056 0.45863 0.0
C439 C 0.69565 0.19246 0.47764 0.0
C440 C 0.79542 0.14112 0.44511 0.0
C441 C 0.81474 0.11019 0.44417 0.0
C442 C 0.85336 0.09961 0.42478 0.0
C443 C 0.88449 0.07368 0.43371 0.0
C444 C 0.92337 0.06491 0.41733 0.0
C445 C 0.93128 0.08142 0.39137 0.0
H446 H 0.83647 0.13456 0.38993 0.0
C447 C 0.89927 0.10641 0.38174 0.0
C448 C 0.86049 0.11529 0.39814 0.0
H449 H 0.90457 0.11942 0.36169 0.0
H450 H 0.71518 0.13681 0.53237 0.0
H451 H 0.77584 0.11659 0.49973 0.0
H452 H 0.73403 0.19304 0.43811 0.0
H453 H 0.67383 0.21394 0.47144 0.0
H454 H 0.80672 0.15908 0.43027 0.0
H455 H 0.80363 0.0922 0.45904 0.0
H456 H 0.87971 0.06109 0.45406 0.0
H457 H 0.94825 0.04633 0.42572 0.0
loop_
_geom_bond_atom_site_label_1
_geom_bond_atom_site_label_2
_geom_bond_distance
_geom_bond_site_symmetry_2
_ccdc_geom_bond_type
P0 O11 1.490 . S
P0 C14 1.812 . S
P0 C20 1.803 1_556 S
P0 C26 1.819 . S
H1 C15 0.941 . S
H2 C16 0.939 . S
H3 C18 0.940 . S
H4 C19 0.940 1_554 S
H5 C21 0.939 . S
H6 C22 0.942 . S
H7 C24 0.940 . S
H8 C25 0.939 . S
H9 C27 0.941 . S
H10 C31 0.939 . S
O11 P0 1.490 . S
H12 C28 0.939 . S
H13 C30 0.940 1_655 S
C14 P0 1.812 . S
C14 C15 1.389 . S
C14 C19 1.391 . S
C15 H1 0.941 . S
C15 C14 1.389 . S
C15 C16 1.397 . S
C16 H2 0.939 . S
C16 C15 1.397 . S
C16 C17 1.378 . S
C17 C16 1.378 . S
C17 C18 1.378 . S
C18 H3 0.940 . S
C18 C17 1.378 . S
C18 C19 1.396 . S
C19 H4 0.940 1_556 S
C19 C14 1.391 . S
C19 C18 1.396 . S
C20 P0 1.803 1_554 S
C20 C21 1.378 . S
C20 C25 1.400 . S
C21 H5 0.939 . S
C21 C20 1.378 . S
C21 C22 1.361 . S
C22 H6 0.942 . S
C22 C21 1.361 . S
C22 C23 1.369 . S
C23 C22 1.369 . S
C23 C24 1.404 . S
C24 H7 0.940 . S
C24 C23 1.404 . S
C24 C25 1.389 . S
C25 H8 0.939 . S
C25 C20 1.400 . S
C25 C24 1.389 . S
C26 P0 1.819 . S
C26 C27 1.391 . S
C26 C31 1.391 1_556 S
C27 H9 0.941 . S
C27 C26 1.391 . S
C27 C28 1.396 . S
C28 H12 0.939 . S
C28 C27 1.396 . S
C28 C29 1.397 . S
C29 C28 1.397 . S
C29 C30 1.385 1_556 S
C30 H13 0.940 1_455 S
C30 C29 1.385 1_554 S
C30 C31 1.388 . S
C31 H10 0.939 . S
C31 C26 1.391 1_554 S
C31 C30 1.388 . S
P32 O43 1.490 . S
P32 C46 1.812 . S
P32 C52 1.803 . S
P32 C58 1.819 1_455 S
H33 C47 0.941 . S
H34 C48 0.939 . S
H35 C50 0.940 . S
H36 C51 0.940 . S
H37 C53 0.939 . S
H38 C54 0.942 . S
H39 C56 0.940 . S
H40 C57 0.939 . S
H41 C59 0.941 . S
H42 C63 0.939 . S
O43 P32 1.490 . S
H44 C60 0.939 . S
H45 C62 0.939 1_556 S
C46 P32 1.812 . S
C46 C47 1.389 . S
C46 C51 1.391 1_554 S
C47 H33 0.941 . S
C47 C46 1.389 . S
C47 C48 1.397 . S
C48 H34 0.939 . S
C48 C47 1.397 . S
C48 C49 1.378 1_554 S
C49 C48 1.378 1_556 S
C49 C50 1.378 . S
C50 H35 0.940 . S
C50 C49 1.378 . S
C50 C51 1.396 . S
C51 H36 0.940 . S
C51 C46 1.391 1_556 S
C51 C50 1.396 . S
C52 P32 1.803 . S
C52 C53 1.378 1_455 S
C52 C57 1.400 . S
C53 H37 0.939 . S
C53 C52 1.378 1_655 S
C53 C54 1.361 . S
C54 H38 0.942 . S
C54 C53 1.361 . S
C54 C55 1.369 1_655 S
C55 C54 1.369 1_455 S
C55 C56 1.404 . S
C56 H39 0.940 . S
C56 C55 1.404 . S
C56 C57 1.389 . S
C57 H40 0.939 . S
C57 C52 1.400 . S
C57 C56 1.389 . S
C58 P32 1.819 1_655 S
C58 C59 1.391 . S
C58 C63 1.391 . S
C59 H41 0.941 . S
C59 C58 1.391 . S
C59 C60 1.396 1_554 S
C60 H44 0.939 . S
C60 C59 1.396 1_556 S
C60 C61 1.397 . S
C61 C60 1.397 . S
C61 C62 1.385 1_556 S
C62 H45 0.939 1_554 S
C62 C61 1.385 1_554 S
C62 C63 1.388 . S
C63 H42 0.939 . S
C63 C58 1.391 . S
C63 C62 1.388 . S
P64 O75 1.490 . S
P64 C78 1.812 . S
P64 C84 1.803 . S
P64 C90 1.819 . S
H65 C79 0.941 . S
H66 C80 0.939 . S
H67 C82 0.940 . S
H68 C83 0.940 . S
H69 C85 0.939 . S
H70 C86 0.942 . S
H71 C88 0.940 . S
H72 C89 0.939 . S
H73 C91 0.941 . S
H74 C95 0.939 . S
O75 P64 1.490 . S
H76 C92 0.939 . S
H77 C94 0.940 . S
C78 P64 1.812 . S
C78 C79 1.389 . S
C78 C83 1.391 . S
C79 H65 0.941 . S
C79 C78 1.389 . S
C79 C80 1.397 . S
C80 H66 0.939 . S
C80 C79 1.397 . S
C80 C81 1.378 . S
C81 C80 1.378 . S
C81 C82 1.378 . S
C82 H67 0.940 . S
C82 C81 1.378 . S
C82 C83 1.396 . S
C83 H68 0.940 . S
C83 C78 1.391 . S
C83 C82 1.396 . S
C84 P64 1.803 . S
C84 C85 1.378 . S
C84 C89 1.400 . S
C85 H69 0.939 . S
C85 C84 1.378 . S
C85 C86 1.361 . S
C86 H70 0.942 . S
C86 C85 1.361 . S
C86 C87 1.369 . S
C87 C86 1.369 . S
C87 C88 1.404 . S
C88 H71 0.940 . S
C88 C87 1.404 . S
C88 C89 1.389 . S
C89 H72 0.939 . S
C89 C84 1.400 . S
C89 C88 1.389 . S
C90 P64 1.819 . S
C90 C91 1.391 . S
C90 C95 1.391 . S
C91 H73 0.941 . S
C91 C90 1.391 . S
C91 C92 1.396 . S
C92 H76 0.939 . S
C92 C91 1.396 . S
C92 C93 1.397 . S
C93 C92 1.397 . S
C93 C94 1.385 . S
C94 H77 0.940 . S
C94 C93 1.385 . S
C94 C95 1.388 . S
C95 H74 0.939 . S
C95 C90 1.391 . S
C95 C94 1.388 . S
P96 O107 1.490 . S
P96 C110 1.812 . S
P96 C116 1.803 . S
P96 C122 1.819 . S
H97 C111 0.941 . S
H98 C112 0.939 . S
H99 C114 0.940 . S
H100 C115 0.940 . S
H101 C117 0.939 . S
H102 C118 0.942 . S
H103 C120 0.940 . S
H104 C121 0.939 . S
H105 C123 0.941 . S
H106 C127 0.939 . S
O107 P96 1.490 . S
H108 C124 0.939 . S
H109 C126 0.940 . S
C110 P96 1.812 . S
C110 C111 1.389 . S
C110 C115 1.391 . S
C111 H97 0.941 . S
C111 C110 1.389 . S
C111 C112 1.397 . S
C112 H98 0.939 . S
C112 C111 1.397 . S
C112 C113 1.378 . S
C113 C112 1.378 . S
C113 C114 1.378 . S
C114 H99 0.940 . S
C114 C113 1.378 . S
C114 C115 1.396 . S
C115 H100 0.940 . S
C115 C110 1.391 . S
C115 C114 1.396 . S
C116 P96 1.803 . S
C116 C117 1.378 . S
C116 C121 1.400 . S
C117 H101 0.939 . S
C117 C116 1.378 . S
C117 C118 1.361 . S
C118 H102 0.942 . S
C118 C117 1.361 . S
C118 C119 1.369 . S
C119 C118 1.369 . S
C119 C120 1.404 . S
C120 H103 0.940 . S
C120 C119 1.404 . S
C120 C121 1.389 . S
C121 H104 0.939 . S
C121 C116 1.400 . S
C121 C120 1.389 . S
C122 P96 1.819 . S
C122 C123 1.391 . S
C122 C127 1.391 . S
C123 H105 0.941 . S
C123 C122 1.391 . S
C123 C124 1.396 . S
C124 H108 0.939 . S
C124 C123 1.396 . S
C124 C125 1.397 . S
C125 C124 1.397 . S
C125 C126 1.385 . S
C126 H109 0.940 . S
C126 C125 1.385 . S
C126 C127 1.388 . S
C127 H106 0.939 . S
C127 C122 1.391 . S
C127 C126 1.388 . S
Zn128 O134 1.920 . S
Zn128 O140 1.898 . S
Zn128 O143 1.905 1_455 S
Zn129 O137 1.905 . S
Zn129 O138 1.898 . S
Zn129 O146 1.920 . S
Zn130 O133 2.080 . S
Zn130 O136 2.114 1_545 S
Zn130 O139 2.120 1_545 S
Zn130 O141 2.120 . S
Zn130 O142 2.114 . S
Zn130 O145 2.080 1_545 S
C131 O136 1.166 . S
C131 O137 1.182 . S
C132 O138 1.167 . S
C132 O139 1.299 . S
O133 Zn130 2.080 . S
O133 C147 1.305 . S
O134 Zn128 1.920 . S
O134 C147 1.234 . S
C135 O140 1.167 . S
C135 O141 1.299 . S
O136 Zn130 2.114 1_565 S
O136 C131 1.166 . S
O137 Zn129 1.905 . S
O137 C131 1.182 . S
O138 Zn129 1.898 . S
O138 C132 1.167 . S
O139 Zn130 2.120 1_565 S
O139 C132 1.299 . S
O140 Zn128 1.898 . S
O140 C135 1.167 . S
O141 Zn130 2.120 . S
O141 C135 1.299 . S
O142 Zn130 2.114 . S
O142 C144 1.166 1_455 S
O143 Zn128 1.905 1_655 S
O143 C144 1.182 . S
C144 O142 1.166 1_655 S
C144 O143 1.182 . S
O145 Zn130 2.080 1_565 S
O145 C148 1.305 . S
O146 Zn129 1.920 . S
O146 C148 1.234 . S
C147 O133 1.305 . S
C147 O134 1.234 . S
C148 O145 1.305 . S
C148 O146 1.234 . S
Zn149 O155 1.920 . S
Zn149 O161 1.898 . S
Zn149 O164 1.905 . S
Zn150 O158 1.905 . S
Zn150 O159 1.898 . S
Zn150 O167 1.920 . S
Zn151 O154 2.080 . S
Zn151 O157 2.114 . S
Zn151 O160 2.120 . S
Zn151 O162 2.120 . S
Zn151 O163 2.114 . S
Zn151 O166 2.080 . S
C152 O157 1.166 . S
C152 O158 1.182 . S
C153 O159 1.167 . S
C153 O160 1.299 . S
O154 Zn151 2.080 . S
O154 C168 1.305 . S
O155 Zn149 1.920 . S
O155 C168 1.234 . S
C156 O161 1.167 . S
C156 O162 1.299 . S
O157 Zn151 2.114 . S
O157 C152 1.166 . S
O158 Zn150 1.905 . S
O158 C152 1.182 . S
O159 Zn150 1.898 . S
O159 C153 1.167 . S
O160 Zn151 2.120 . S
O160 C153 1.299 . S
O161 Zn149 1.898 . S
O161 C156 1.167 . S
O162 Zn151 2.120 . S
O162 C156 1.299 . S
O163 Zn151 2.114 . S
O163 C165 1.166 . S
O164 Zn149 1.905 . S
O164 C165 1.182 . S
C165 O163 1.166 . S
C165 O164 1.182 . S
O166 Zn151 2.080 . S
O166 C169 1.305 . S
O167 Zn150 1.920 . S
O167 C169 1.234 . S
C168 O154 1.305 . S
C168 O155 1.234 . S
C169 O166 1.305 . S
C169 O167 1.234 . S
C170 C171 1.386 . S
C170 C172 1.383 . S
C170 H186 0.951 . S
C171 C170 1.386 . S
C171 C175 1.383 . S
C172 C170 1.383 . S
C172 C173 1.402 . S
C172 H187 0.951 . S
C173 C172 1.402 . S
C173 C174 1.375 . S
C173 C176 1.481 . S
C174 C173 1.375 . S
C174 C175 1.367 . S
C174 H188 0.951 . S
C175 C171 1.383 . S
C175 C174 1.367 . S
C175 H189 0.950 . S
C176 C173 1.481 . S
C176 C177 1.297 . S
C176 H190 0.950 . S
C177 C176 1.297 . S
C177 C178 1.479 . S
C177 H191 0.950 . S
C178 C177 1.479 . S
C178 C179 1.375 . S
C178 C184 1.404 . S
C179 C178 1.375 . S
C179 C180 1.369 . S
C179 H192 0.950 . S
C180 C179 1.369 . S
C180 C181 1.392 . S
C180 H193 0.951 . S
C181 C180 1.392 . S
C181 C183 1.384 . S
H182 C184 0.949 . S
C183 C181 1.384 . S
C183 C184 1.385 . S
C183 H185 0.950 . S
C184 C178 1.404 . S
C184 H182 0.949 . S
C184 C183 1.385 . S
H185 C183 0.950 . S
H186 C170 0.951 . S
H187 C172 0.951 . S
H188 C174 0.951 . S
H189 C175 0.950 . S
H190 C176 0.950 . S
H191 C177 0.950 . S
H192 C179 0.950 . S
H193 C180 0.951 . S
C194 C195 1.386 . S
C194 C196 1.383 . S
C194 H210 0.956 . S
C195 C194 1.386 . S
C195 C199 1.383 . S
C196 C194 1.383 . S
C196 C197 1.402 . S
C196 H211 0.951 . S
C197 C196 1.402 . S
C197 C198 1.375 . S
C197 C200 1.481 . S
C198 C197 1.375 . S
C198 C199 1.367 . S
C198 H212 0.951 . S
C199 C195 1.383 . S
C199 C198 1.367 . S
C199 H213 0.950 . S
C200 C197 1.481 . S
C200 C201 1.297 . S
C200 H214 0.950 . S
C201 C200 1.297 . S
C201 C202 1.479 . S
C201 H215 0.950 . S
C202 C201 1.479 . S
C202 C203 1.375 . S
C202 C208 1.404 . S
C203 C202 1.375 . S
C203 C204 1.369 . S
C203 H216 0.950 . S
C204 C203 1.369 . S
C204 C205 1.392 . S
C204 H217 0.951 . S
C205 C204 1.392 . S
C205 C207 1.384 . S
H206 C208 0.949 . S
C207 C205 1.384 . S
C207 C208 1.385 . S
C207 H209 0.950 . S
C208 C202 1.404 . S
C208 H206 0.949 . S
C208 C207 1.385 . S
H209 C207 0.950 . S
H210 C194 0.956 . S
H211 C196 0.951 . S
H212 C198 0.951 . S
H213 C199 0.950 . S
H214 C200 0.950 . S
H215 C201 0.950 . S
H216 C203 0.950 . S
H217 C204 0.951 . S
C218 C219 1.386 . S
C218 C220 1.383 . S
C218 H234 0.951 . S
C219 C218 1.386 . S
C219 C223 1.383 . S
C220 C218 1.383 . S
C220 C221 1.402 . S
C220 H235 0.951 . S
C221 C220 1.402 . S
C221 C222 1.375 . S
C221 C224 1.481 . S
C222 C221 1.375 . S
C222 C223 1.367 . S
C222 H236 0.951 . S
C223 C219 1.383 . S
C223 C222 1.367 . S
C223 H237 0.950 . S
C224 C221 1.481 . S
C224 C225 1.297 . S
C224 H238 0.950 . S
C225 C224 1.297 . S
C225 C226 1.479 . S
C225 H239 0.950 . S
C226 C225 1.479 . S
C226 C227 1.375 . S
C226 C232 1.404 . S
C227 C226 1.375 . S
C227 C228 1.369 . S
C227 H240 0.950 . S
C228 C227 1.369 . S
C228 C229 1.392 . S
C228 H241 0.951 . S
C229 C228 1.392 . S
C229 C231 1.384 . S
H230 C232 0.949 . S
C231 C229 1.384 . S
C231 C232 1.385 . S
C231 H233 0.950 . S
C232 C226 1.404 . S
C232 H230 0.949 . S
C232 C231 1.385 . S
H233 C231 0.950 . S
H234 C218 0.951 . S
H235 C220 0.951 . S
H236 C222 0.951 . S
H237 C223 0.950 . S
H238 C224 0.950 . S
H239 C225 0.950 . S
H240 C227 0.950 . S
H241 C228 0.951 . S
C242 C243 1.386 . S
C242 C244 1.383 . S
C242 H258 0.951 . S
C243 C242 1.386 . S
C243 C247 1.383 . S
C244 C242 1.383 . S
C244 C245 1.402 . S
C244 H259 0.951 . S
C245 C244 1.402 . S
C245 C246 1.375 . S
C245 C248 1.481 . S
C246 C245 1.375 . S
C246 C247 1.367 . S
C246 H260 0.951 . S
C247 C243 1.383 . S
C247 C246 1.367 . S
C247 H261 0.950 . S
C248 C245 1.481 . S
C248 C249 1.297 . S
C248 H262 0.950 . S
C249 C248 1.297 . S
C249 C250 1.479 . S
C249 H263 0.950 . S
C250 C249 1.479 . S
C250 C251 1.375 . S
C250 C256 1.404 . S
C251 C250 1.375 . S
C251 C252 1.369 . S
C251 H264 0.950 . S
C252 C251 1.369 . S
C252 C253 1.392 . S
C252 H265 0.951 . S
C253 C252 1.392 . S
C253 C255 1.384 . S
H254 C256 0.949 . S
C255 C253 1.384 . S
C255 C256 1.385 . S
C255 H257 0.950 . S
C256 C250 1.404 . S
C256 H254 0.949 . S
C256 C255 1.385 . S
H257 C255 0.950 . S
H258 C242 0.951 . S
H259 C244 0.951 . S
H260 C246 0.951 . S
H261 C247 0.950 . S
H262 C248 0.950 . S
H263 C249 0.950 . S
H264 C251 0.950 . S
H265 C252 0.951 . S
C266 C267 1.386 . S
C266 C268 1.383 . S
C266 H282 0.951 . S
C267 C266 1.386 . S
C267 C271 1.396 . S
C268 C266 1.383 . S
C268 C269 1.402 . S
C268 H283 0.951 . S
C269 C268 1.402 . S
C269 C270 1.375 . S
C269 C272 1.481 . S
C270 C269 1.375 . S
C270 C271 1.370 . S
C270 H284 0.951 1_556 S
C271 C267 1.396 . S
C271 C270 1.370 . S
C271 H285 0.934 1_556 S
C272 C269 1.481 . S
C272 C273 1.297 . S
C272 H286 0.950 . S
C273 C272 1.297 . S
C273 C274 1.479 . S
C273 H287 0.950 . S
C274 C273 1.479 . S
C274 C275 1.375 . S
C274 C280 1.404 . S
C275 C274 1.375 . S
C275 C276 1.369 . S
C275 H288 0.950 . S
C276 C275 1.369 . S
C276 C277 1.392 . S
C276 H289 0.951 . S
C277 C276 1.392 . S
C277 C279 1.384 . S
H278 C280 0.949 . S
C279 C277 1.384 . S
C279 C280 1.385 . S
C279 H281 0.950 . S
C280 C274 1.404 . S
C280 H278 0.949 . S
C280 C279 1.385 . S
H281 C279 0.950 . S
H282 C266 0.951 . S
H283 C268 0.951 . S
H284 C270 0.951 1_554 S
H285 C271 0.934 1_554 S
H286 C272 0.950 . S
H287 C273 0.950 . S
H288 C275 0.950 . S
H289 C276 0.951 . S
C290 C291 1.386 . S
C290 C292 1.383 . S
C290 H306 0.951 . S
C291 C290 1.386 . S
C291 C295 1.383 1_556 S
C292 C290 1.383 . S
C292 C293 1.402 . S
C292 H307 0.951 . S
C293 C292 1.402 . S
C293 C294 1.375 . S
C293 C296 1.481 . S
C294 C293 1.375 . S
C294 C295 1.367 1_556 S
C294 H308 0.951 1_556 S
C295 C291 1.383 1_554 S
C295 C294 1.367 1_554 S
C295 H309 0.950 . S
C296 C293 1.481 . S
C296 C297 1.297 . S
C296 H310 0.950 . S
C297 C296 1.297 . S
C297 C298 1.479 . S
C297 H311 0.950 . S
C298 C297 1.479 . S
C298 C299 1.375 . S
C298 C304 1.404 . S
C299 C298 1.375 . S
C299 C300 1.369 . S
C299 H312 0.950 . S
C300 C299 1.369 . S
C300 C301 1.392 . S
C300 H313 0.951 . S
C301 C300 1.392 . S
C301 C303 1.384 . S
H302 C304 0.949 . S
C303 C301 1.384 . S
C303 C304 1.385 . S
C303 H305 0.950 . S
C304 C298 1.404 . S
C304 H302 0.949 . S
C304 C303 1.385 . S
H305 C303 0.950 . S
H306 C290 0.951 . S
H307 C292 0.951 . S
H308 C294 0.951 1_554 S
H309 C295 0.950 . S
H310 C296 0.950 . S
H311 C297 0.950 . S
H312 C299 0.950 . S
H313 C300 0.951 . S
C314 C315 1.386 . S
C314 C316 1.383 . S
C314 H330 0.951 . S
C315 C314 1.386 . S
C315 C319 1.383 . S
C316 C314 1.383 . S
C316 C317 1.402 . S
C316 H331 0.951 . S
C317 C316 1.402 . S
C317 C318 1.375 . S
C317 C320 1.481 . S
C318 C317 1.375 . S
C318 C319 1.367 . S
C318 H332 0.951 . S
C319 C315 1.383 . S
C319 C318 1.367 . S
C319 H333 0.950 1_556 S
C320 C317 1.481 . S
C320 C321 1.297 . S
C320 H334 0.950 . S
C321 C320 1.297 . S
C321 C322 1.479 . S
C321 H335 0.950 . S
C322 C321 1.479 . S
C322 C323 1.375 . S
C322 C328 1.404 . S
C323 C322 1.375 . S
C323 C324 1.369 . S
C323 H336 0.950 . S
C324 C323 1.369 . S
C324 C325 1.392 . S
C324 H337 0.951 . S
C325 C324 1.392 . S
C325 C327 1.384 . S
H326 C328 0.949 . S
C327 C325 1.384 . S
C327 C328 1.385 . S
C327 H329 0.950 . S
C328 C322 1.404 . S
C328 H326 0.949 . S
C328 C327 1.385 . S
H329 C327 0.950 . S
H330 C314 0.951 . S
H331 C316 0.951 . S
H332 C318 0.951 . S
H333 C319 0.950 1_554 S
H334 C320 0.950 . S
H335 C321 0.950 . S
H336 C323 0.950 . S
H337 C324 0.951 . S
C338 C339 1.386 . S
C338 C340 1.383 . S
C338 H354 0.951 . S
C339 C338 1.386 . S
C339 C343 1.383 . S
C340 C338 1.383 . S
C340 C341 1.402 . S
C340 H355 0.951 . S
C341 C340 1.402 . S
C341 C342 1.375 . S
C341 C344 1.481 . S
C342 C341 1.375 . S
C342 C343 1.367 . S
C342 H356 0.951 . S
C343 C339 1.383 . S
C343 C342 1.367 . S
C343 H357 0.950 . S
C344 C341 1.481 . S
C344 C345 1.297 . S
C344 H358 0.950 . S
C345 C344 1.297 . S
C345 C346 1.479 . S
C345 H359 0.950 . S
C346 C345 1.479 . S
C346 C347 1.375 . S
C346 C352 1.404 . S
C347 C346 1.375 . S
C347 C348 1.369 . S
C347 H360 0.950 . S
C348 C347 1.369 . S
C348 C349 1.392 . S
C348 H361 0.951 . S
C349 C348 1.392 . S
C349 C351 1.384 . S
H350 C352 0.949 . S
C351 C349 1.384 . S
C351 C352 1.385 . S
C351 H353 0.950 . S
C352 C346 1.404 . S
C352 H350 0.949 . S
C352 C351 1.385 . S
H353 C351 0.950 . S
H354 C338 0.951 . S
H355 C340 0.951 . S
H356 C342 0.951 . S
H357 C343 0.950 . S
H358 C344 0.950 . S
H359 C345 0.950 . S
H360 C347 0.950 . S
H361 C348 0.951 . S
C362 C363 1.386 . S
C362 C364 1.383 . S
C362 H378 0.951 . S
C363 C362 1.386 . S
C363 C367 1.383 . S
C364 C362 1.383 . S
C364 C365 1.402 . S
C364 H379 0.951 . S
C365 C364 1.402 . S
C365 C366 1.375 . S
C365 C368 1.481 . S
C366 C365 1.375 . S
C366 C367 1.367 . S
C366 H380 0.951 . S
C367 C363 1.383 . S
C367 C366 1.367 . S
C367 H381 0.950 . S
C368 C365 1.481 . S
C368 C369 1.297 . S
C368 H382 0.950 . S
C369 C368 1.297 . S
C369 C370 1.479 . S
C369 H383 0.950 . S
C370 C369 1.479 . S
C370 C371 1.375 . S
C370 C376 1.404 . S
C371 C370 1.375 . S
C371 C372 1.369 . S
C371 H384 0.950 . S
C372 C371 1.369 . S
C372 C373 1.392 . S
C372 H385 0.951 . S
C373 C372 1.392 . S
C373 C375 1.384 1_655 S
H374 C376 0.949 . S
C375 C373 1.384 1_455 S
C375 C376 1.385 1_455 S
C375 H377 0.950 . S
C376 C370 1.404 . S
C376 H374 0.949 . S
C376 C375 1.385 1_655 S
H377 C375 0.950 . S
H378 C362 0.951 . S
H379 C364 0.951 . S
H380 C366 0.951 . S
H381 C367 0.950 . S
H382 C368 0.950 . S
H383 C369 0.950 . S
H384 C371 0.950 . S
H385 C372 0.951 . S
C386 C387 1.386 . S
C386 C388 1.383 . S
C386 H402 0.951 . S
C387 C386 1.386 . S
C387 C391 1.383 . S
C388 C386 1.383 . S
C388 C389 1.402 . S
C388 H403 0.951 . S
C389 C388 1.402 . S
C389 C390 1.375 . S
C389 C392 1.481 . S
C390 C389 1.375 . S
C390 C391 1.367 . S
C390 H404 0.951 . S
C391 C387 1.383 . S
C391 C390 1.367 . S
C391 H405 0.950 . S
C392 C389 1.481 . S
C392 C393 1.297 . S
C392 H406 0.950 . S
C393 C392 1.297 . S
C393 C394 1.479 . S
C393 H407 0.950 . S
C394 C393 1.479 . S
C394 C395 1.375 . S
C394 C400 1.404 . S
C395 C394 1.375 . S
C395 C396 1.369 . S
C395 H408 0.950 . S
C396 C395 1.369 . S
C396 C397 1.392 . S
C396 H409 0.951 . S
C397 C396 1.392 . S
C397 C399 1.384 . S
H398 C400 0.949 . S
C399 C397 1.384 . S
C399 C400 1.385 . S
C399 H401 0.950 . S
C400 C394 1.404 . S
C400 H398 0.949 . S
C400 C399 1.385 . S
H401 C399 0.950 . S
H402 C386 0.951 . S
H403 C388 0.951 . S
H404 C390 0.951 . S
H405 C391 0.950 . S
H406 C392 0.950 . S
H407 C393 0.950 . S
H408 C395 0.950 . S
H409 C396 0.951 . S
C410 C411 1.386 . S
C410 C412 1.383 . S
C410 H426 0.951 . S
C411 C410 1.386 . S
C411 C415 1.383 . S
C412 C410 1.383 . S
C412 C413 1.402 . S
C412 H427 0.951 . S
C413 C412 1.402 . S
C413 C414 1.375 . S
C413 C416 1.481 . S
C414 C413 1.375 . S
C414 C415 1.367 . S
C414 H428 0.951 . S
C415 C411 1.383 . S
C415 C414 1.367 . S
C415 H429 0.950 . S
C416 C413 1.481 . S
C416 C417 1.297 . S
C416 H430 0.950 . S
C417 C416 1.297 . S
C417 C418 1.479 . S
C417 H431 0.950 . S
C418 C417 1.479 . S
C418 C419 1.375 . S
C418 C424 1.404 . S
C419 C418 1.375 . S
C419 C420 1.369 . S
C419 H432 0.950 . S
C420 C419 1.369 . S
C420 C421 1.392 . S
C420 H433 0.951 . S
C421 C420 1.392 . S
C421 C423 1.384 . S
H422 C424 0.949 . S
C423 C421 1.384 . S
C423 C424 1.385 . S
C423 H425 0.950 . S
C424 C418 1.404 . S
C424 H422 0.949 . S
C424 C423 1.385 . S
H425 C423 0.950 . S
H426 C410 0.951 . S
H427 C412 0.951 . S
H428 C414 0.951 . S
H429 C415 0.950 . S
H430 C416 0.950 . S
H431 C417 0.950 . S
H432 C419 0.950 . S
H433 C420 0.951 . S
C434 C435 1.386 . S
C434 C436 1.383 . S
C434 H450 0.951 . S
C435 C434 1.386 . S
C435 C439 1.383 . S
C436 C434 1.383 . S
C436 C437 1.402 . S
C436 H451 0.951 . S
C437 C436 1.402 . S
C437 C438 1.375 . S
C437 C440 1.481 . S
C438 C437 1.375 . S
C438 C439 1.367 . S
C438 H452 0.951 . S
C439 C435 1.383 . S
C439 C438 1.367 . S
C439 H453 0.950 . S
C440 C437 1.481 . S
C440 C441 1.297 . S
C440 H454 0.950 . S
C441 C440 1.297 . S
C441 C442 1.479 . S
C441 H455 0.950 . S
C442 C441 1.479 . S
C442 C443 1.375 . S
C442 C448 1.404 . S
C443 C442 1.375 . S
C443 C444 1.369 . S
C443 H456 0.950 . S
C444 C443 1.369 . S
C444 C445 1.392 . S
C444 H457 0.951 . S
C445 C444 1.392 . S
C445 C447 1.384 . S
H446 C448 0.949 . S
C447 C445 1.384 . S
C447 C448 1.385 . S
C447 H449 0.950 . S
C448 C442 1.404 . S
C448 H446 0.949 . S
C448 C447 1.385 . S
H449 C447 0.950 . S
H450 C434 0.951 . S
H451 C436 0.951 . S
H452 C438 0.951 . S
H453 C439 0.950 . S
H454 C440 0.950 . S
H455 C441 0.950 . S
H456 C443 0.950 . S
H457 C444 0.951 . S
C181 C135 1.323 . S
C171 C23 1.503 . S
C205 C131 1.376 . S
C195 C55 1.461 . S
C229 C156 1.396 . S
C219 C87 1.496 . S
C243 C119 1.481 . S
C253 C152 1.444 . S
C267 C17 1.158 . S
C277 C153 1.108 . S
C301 C168 1.138 . S
C291 C61 1.080 . S
C315 C29 1.704 1_655 S
C325 C169 1.496 . S
C349 C165 1.571 . S
C339 C49 1.681 . S
C373 C132 1.133 1_655 S
C363 C81 1.161 . S
C387 C125 1.172 . S
C397 C147 0.979 . S
C421 C148 1.557 . S
C411 C93 1.687 . S
C445 C144 1.610 . S
C435 C113 1.680 . S
