# Generated by pormake.
# Topology dag, (6,3)-cn, num edge types: 1
# Building blocks:
#     Node 0, Type 0, BuildingBlock: MIDCAF_clean_sbu_0, # of connection points: 6
#     Node 1, Type 0, BuildingBlock: MIDCAF_clean_sbu_0, # of connection points: 6
#     Node 2, Type 0, BuildingBlock: MIDCAF_clean_sbu_0, # of connection points: 6
#     Node 3, Type 0, BuildingBlock: MIDCAF_clean_sbu_0, # of connection points: 6
#     Node 4, Type 1, BuildingBlock: CUQRIR_clean_linker_1, # of connection points: 3
#     Node 5, Type 1, BuildingBlock: CUQRIR_clean_linker_1, # of connection points: 3
#     Node 6, Type 1, BuildingBlock: CUQRIR_clean_linker_1, # of connection points: 3
#     Node 7, Type 1, BuildingBlock: CUQRIR_clean_linker_1, # of connection points: 3
#     Node 8, Type 1, BuildingBlock: CUQRIR_clean_linker_1, # of connection points: 3
#     Node 9, Type 1, BuildingBlock: CUQRIR_clean_linker_1, # of connection points: 3
#     Node 10, Type 1, BuildingBlock: CUQRIR_clean_linker_1, # of connection points: 3
#     Node 11, Type 1, BuildingBlock: CUQRIR_clean_linker_1, # of connection points: 3
#     Edge 12, Type (0, 1), BuildingBlock: TEMPAE_clean_linker_10, # of connection points: 2
#     Edge 13, Type (0, 1), BuildingBlock: TEMPAE_clean_linker_10, # of connection points: 2
#     Edge 14, Type (0, 1), BuildingBlock: TEMPAE_clean_linker_10, # of connection points: 2
#     Edge 15, Type (0, 1), BuildingBlock: TEMPAE_clean_linker_10, # of connection points: 2
#     Edge 16, Type (0, 1), BuildingBlock: TEMPAE_clean_linker_10, # of connection points: 2
#     Edge 17, Type (0, 1), BuildingBlock: TEMPAE_clean_linker_10, # of connection points: 2
#     Edge 18, Type (0, 1), BuildingBlock: TEMPAE_clean_linker_10, # of connection points: 2
#     Edge 19, Type (0, 1), BuildingBlock: TEMPAE_clean_linker_10, # of connection points: 2
#     Edge 20, Type (0, 1), BuildingBlock: TEMPAE_clean_linker_10, # of connection points: 2
#     Edge 21, Type (0, 1), BuildingBlock: TEMPAE_clean_linker_10, # of connection points: 2
#     Edge 22, Type (0, 1), BuildingBlock: TEMPAE_clean_linker_10, # of connection points: 2
#     Edge 23, Type (0, 1), BuildingBlock: TEMPAE_clean_linker_10, # of connection points: 2
#     Edge 24, Type (0, 1), BuildingBlock: TEMPAE_clean_linker_10, # of connection points: 2
#     Edge 25, Type (0, 1), BuildingBlock: TEMPAE_clean_linker_10, # of connection points: 2
#     Edge 26, Type (0, 1), BuildingBlock: TEMPAE_clean_linker_10, # of connection points: 2
#     Edge 27, Type (0, 1), BuildingBlock: TEMPAE_clean_linker_10, # of connection points: 2
#     Edge 28, Type (0, 1), BuildingBlock: TEMPAE_clean_linker_10, # of connection points: 2
#     Edge 29, Type (0, 1), BuildingBlock: TEMPAE_clean_linker_10, # of connection points: 2
#     Edge 30, Type (0, 1), BuildingBlock: TEMPAE_clean_linker_10, # of connection points: 2
#     Edge 31, Type (0, 1), BuildingBlock: TEMPAE_clean_linker_10, # of connection points: 2
#     Edge 32, Type (0, 1), BuildingBlock: TEMPAE_clean_linker_10, # of connection points: 2
#     Edge 33, Type (0, 1), BuildingBlock: TEMPAE_clean_linker_10, # of connection points: 2
#     Edge 34, Type (0, 1), BuildingBlock: TEMPAE_clean_linker_10, # of connection points: 2
#     Edge 35, Type (0, 1), BuildingBlock: TEMPAE_clean_linker_10, # of connection points: 2
# Relax obj value: 0.120
# Max RMSD: 0.123
# Mean RMSD: 0.093
data_MOF--net-dag--node1-MIDCAF_clean_sbu_0--node2-CUQRIR_clean_linker_1--edge1-TEMPAE_clean_linker_10
_symmetry_space_group_name_H-M    P1
_symmetry_Int_Tables_number       1
_symmetry_cell_setting            triclinic
loop_
_symmetry_equiv_pos_as_xyz
'x, y, z'
_cell_length_a     38.600754
_cell_length_b     38.570801
_cell_length_c     30.100813
_cell_angle_alpha  90.156977
_cell_angle_beta   89.830889
_cell_angle_gamma 89.548543
loop_
_atom_site_label
_atom_site_type_symbol
_atom_site_fract_x
_atom_site_fract_y
_atom_site_fract_z
_atom_type_partial_charge
Zn0 Zn 0.08255 0.81722 0.10259 0.0
Zn1 Zn 0.11477 0.90193 0.90656 0.0
Zn2 Zn 0.10943 0.88514 0.99077 0.0
C3 C 0.11609 0.96258 0.95968 0.0
C4 C 0.05385 0.86893 0.91109 0.0
O5 O 0.14743 0.84505 0.01396 0.0
O6 O 0.1057 0.81229 0.03905 0.0
C7 C 0.10849 0.88578 0.1005 0.0
O8 O 0.12032 0.94067 0.99109 0.0
O9 O 0.10978 0.95228 0.92067 0.0
O10 O 0.07459 0.87659 0.88022 0.0
O11 O 0.0629 0.87305 0.95175 0.0
O12 O 0.09882 0.86452 0.13045 0.0
O13 O 0.10421 0.87755 0.06008 0.0
O14 O 0.05511 0.86946 0.99984 0.0
O15 O 0.06983 0.82256 0.03586 0.0
C16 C 0.04618 0.84384 0.02447 0.0
O17 O 0.15365 0.856 0.96617 0.0
O18 O 0.16218 0.88147 0.90158 0.0
C19 C 0.1381 0.81806 0.03605 0.0
C20 C 0.17196 0.86035 0.93113 0.0
Zn21 Zn 0.6303 0.60697 0.39336 0.0
Zn22 Zn 0.60387 0.60055 0.61504 0.0
Zn23 Zn 0.62081 0.60964 0.47795 0.0
C24 C 0.62817 0.54121 0.55471 0.0
C25 C 0.56198 0.62558 0.53029 0.0
O26 O 0.66298 0.64631 0.46451 0.0
O27 O 0.66993 0.63915 0.3921 0.0
C28 C 0.64401 0.54093 0.4322 0.0
O29 O 0.62871 0.55967 0.51839 0.0
O30 O 0.61905 0.55298 0.59298 0.0
O31 O 0.58642 0.61467 0.55441 0.0
O32 O 0.56847 0.62728 0.48896 0.0
O33 O 0.64273 0.55712 0.3958 0.0
O34 O 0.63604 0.55607 0.46886 0.0
O35 O 0.57154 0.62283 0.44391 0.0
O36 O 0.58339 0.62237 0.37206 0.0
C37 C 0.56185 0.6268 0.4033 0.0
O38 O 0.65288 0.64894 0.50838 0.0
O39 O 0.62637 0.62486 0.56293 0.0
C40 C 0.67912 0.65304 0.42818 0.0
C41 C 0.6479 0.64721 0.55012 0.0
Zn42 Zn 0.90715 0.09428 0.9601 0.0
Zn43 Zn 0.85724 0.15907 0.12217 0.0
Zn44 Zn 0.86748 0.11512 0.01737 0.0
C45 C 0.92815 0.13042 0.0877 0.0
C46 C 0.829 0.1 0.10972 0.0
O47 O 0.84618 0.14416 0.96538 0.0
O48 O 0.87548 0.11618 0.91314 0.0
C49 C 0.93934 0.14958 0.98032 0.0
O50 O 0.91649 0.11881 0.05074 0.0
O51 O 0.90856 0.14582 0.11573 0.0
O52 O 0.82586 0.11885 0.14396 0.0
O53 O 0.84495 0.11294 0.07715 0.0
O54 O 0.95033 0.12127 0.96419 0.0
O55 O 0.91032 0.15058 1.00096 0.0
O56 O 0.85428 0.06387 0.99282 0.0
O57 O 0.90417 0.04336 0.96943 0.0
C58 C 0.8726 0.03843 0.97858 0.0
O59 O 0.83437 0.15988 0.00653 0.0
O60 O 0.83656 0.18801 0.0719 0.0
C61 C 0.85259 0.13831 0.92433 0.0
C62 C 0.82794 0.18654 0.03114 0.0
Zn63 Zn 0.36672 0.3533 0.62932 0.0
Zn64 Zn 0.37418 0.39016 0.41686 0.0
Zn65 Zn 0.37116 0.37197 0.49586 0.0
C66 C 0.44006 0.37029 0.43271 0.0
C67 C 0.34825 0.44696 0.46412 0.0
O68 O 0.33301 0.33146 0.50798 0.0
O69 O 0.36238 0.33905 0.5671 0.0
C70 C 0.42884 0.34386 0.55338 0.0
O71 O 0.42409 0.36103 0.46845 0.0
O72 O 0.4245 0.38838 0.40406 0.0
O73 O 0.35221 0.43587 0.42495 0.0
O74 O 0.35544 0.42727 0.49734 0.0
O75 O 0.40505 0.34752 0.58214 0.0
O76 O 0.42248 0.35291 0.51331 0.0
O77 O 0.35829 0.41365 0.54623 0.0
O78 O 0.35288 0.40338 0.6206 0.0
C79 C 0.35197 0.42359 0.58687 0.0
O80 O 0.3344 0.33717 0.46306 0.0
O81 O 0.3472 0.35048 0.39359 0.0
C82 C 0.33708 0.3246 0.54891 0.0
C83 C 0.33145 0.33163 0.42114 0.0
C84 C 0.17698 0.15779 0.22763 0.0
N85 N 0.16981 0.13125 0.20008 0.0
N86 N 0.20929 0.1542 0.24436 0.0
C87 C 0.15146 0.18581 0.24049 0.0
C88 C 0.22145 0.12435 0.22592 0.0
N89 N 0.19729 0.11029 0.1989 0.0
C90 C 0.25764 0.11046 0.2318 0.0
H91 H 0.15407 0.20779 0.21706 0.0
H92 H 0.15642 0.19536 0.27466 0.0
H93 H 0.12446 0.17627 0.23849 0.0
H94 H 0.25849 0.09386 0.26182 0.0
H95 H 0.27616 0.13201 0.23656 0.0
H96 H 0.26574 0.09464 0.20267 0.0
C97 C 0.30377 0.67386 0.73506 0.0
N98 N 0.3255 0.6643 0.70201 0.0
N99 N 0.31225 0.70559 0.75051 0.0
C100 C 0.27579 0.65135 0.75409 0.0
C101 C 0.3398 0.71509 0.72557 0.0
N102 N 0.34807 0.68976 0.6961 0.0
C103 C 0.35691 0.74991 0.72829 0.0
H104 H 0.27062 0.65797 0.7894 0.0
H105 H 0.28294 0.62351 0.7514 0.0
H106 H 0.25163 0.65564 0.73491 0.0
H107 H 0.37726 0.74904 0.75422 0.0
H108 H 0.33778 0.77025 0.73785 0.0
H109 H 0.36905 0.75687 0.6961 0.0
C110 C 0.78548 0.85322 0.24571 0.0
N111 N 0.8058 0.86055 0.21043 0.0
N112 N 0.79779 0.82502 0.26733 0.0
C113 C 0.75508 0.87492 0.26082 0.0
C114 C 0.82637 0.81554 0.24401 0.0
N115 N 0.83132 0.83736 0.20966 0.0
C116 C 0.84881 0.78451 0.25393 0.0
H117 H 0.75851 0.90256 0.25184 0.0
H118 H 0.75124 0.87275 0.29725 0.0
H119 H 0.73141 0.86548 0.244 0.0
H120 H 0.86228 0.77517 0.22349 0.0
H121 H 0.83314 0.7632 0.26811 0.0
H122 H 0.86866 0.79197 0.2787 0.0
C123 C 0.72062 0.29546 0.67509 0.0
N124 N 0.69256 0.30756 0.65319 0.0
N125 N 0.71249 0.2668 0.69875 0.0
C126 C 0.75629 0.31065 0.67159 0.0
C127 C 0.6784 0.26186 0.69026 0.0
N128 N 0.6664 0.28657 0.6624 0.0
C129 C 0.65607 0.23522 0.7126 0.0
H130 H 0.76005 0.32303 0.6387 0.0
H131 H 0.77647 0.29038 0.67651 0.0
H132 H 0.7594 0.33083 0.69757 0.0
H133 H 0.66555 0.2296 0.74661 0.0
H134 H 0.65709 0.21087 0.69294 0.0
H135 H 0.62867 0.24403 0.71454 0.0
C136 C 0.65881 0.27723 0.24086 0.0
N137 N 0.65215 0.2954 0.27858 0.0
N138 N 0.68587 0.29117 0.21878 0.0
C139 C 0.63881 0.24638 0.22493 0.0
C140 C 0.69583 0.31805 0.24438 0.0
N141 N 0.67552 0.32052 0.2808 0.0
C142 C 0.7238 0.34322 0.2323 0.0
H143 H 0.65659 0.227 0.2096 0.0
H144 H 0.62024 0.25489 0.19901 0.0
H145 H 0.62433 0.23415 0.25258 0.0
H146 H 0.71219 0.36461 0.21262 0.0
H147 H 0.74414 0.3304 0.21177 0.0
H148 H 0.73561 0.35449 0.26259 0.0
C149 C 0.14418 0.23201 0.78559 0.0
N150 N 0.13257 0.21189 0.81914 0.0
N151 N 0.1753 0.22029 0.77068 0.0
C152 C 0.12351 0.26074 0.76432 0.0
C153 C 0.18206 0.1922 0.79639 0.0
N154 N 0.15602 0.187 0.82583 0.0
C155 C 0.21479 0.17086 0.79425 0.0
H156 H 0.13038 0.26353 0.72871 0.0
H157 H 0.12924 0.28548 0.78157 0.0
H158 H 0.0953 0.25587 0.76718 0.0
H159 H 0.23692 0.18685 0.78306 0.0
H160 H 0.21126 0.14938 0.77015 0.0
H161 H 0.2208 0.15944 0.82717 0.0
C162 C 0.26206 0.68077 0.31037 0.0
N163 N 0.28834 0.66926 0.3364 0.0
N164 N 0.27314 0.70638 0.28308 0.0
C165 C 0.22638 0.66558 0.30937 0.0
C166 C 0.30705 0.70989 0.29337 0.0
N167 N 0.31621 0.6875 0.32583 0.0
C168 C 0.33189 0.73292 0.26898 0.0
H169 H 0.22005 0.65294 0.34142 0.0
H170 H 0.22529 0.64584 0.28253 0.0
H171 H 0.20673 0.68589 0.30205 0.0
H172 H 0.351 0.74415 0.29226 0.0
H173 H 0.31803 0.75419 0.25158 0.0
H174 H 0.3463 0.71714 0.24408 0.0
C175 C 0.76109 0.81523 0.80539 0.0
N176 N 0.78728 0.8253 0.83229 0.0
N177 N 0.77002 0.78582 0.78302 0.0
C178 C 0.72727 0.83438 0.79985 0.0
C179 C 0.80246 0.77842 0.7977 0.0
N180 N 0.81293 0.80244 0.82738 0.0
C181 C 0.82453 0.74841 0.7821 0.0
H182 H 0.70657 0.81994 0.81725 0.0
H183 H 0.72034 0.8358 0.76414 0.0
H184 H 0.72789 0.86084 0.8141 0.0
H185 H 0.84221 0.75744 0.75547 0.0
H186 H 0.80839 0.72703 0.76905 0.0
H187 H 0.84071 0.73833 0.80962 0.0
C188 C 0.11283 0.94042 0.14331 0.0
C189 C 0.12684 0.91753 0.11199 0.0
C190 C 0.1296 0.97153 0.15322 0.0
C191 C 0.1619 0.97886 0.13291 0.0
C192 C 0.17649 0.95526 0.10191 0.0
C193 C 0.15833 0.92508 0.09109 0.0
C194 C 0.11233 -0.00305 0.18456 0.0
C195 C 0.211 0.96204 0.08006 0.0
C196 C 0.18466 0.07382 0.13412 0.0
C197 C 0.19811 0.07705 0.17703 0.0
C198 C 0.17387 0.04165 0.11803 0.0
C199 C 0.17975 0.01164 0.14399 0.0
C200 C 0.19843 0.01423 0.18425 0.0
C201 C 0.20643 0.04712 0.20106 0.0
C202 C 0.15243 0.04105 0.07621 0.0
C203 C 0.20729 0.98258 0.21143 0.0
H204 H 0.08825 0.93445 0.15896 0.0
H205 H 0.16902 0.90704 0.06687 0.0
H206 H 0.12761 -0.00088 0.21557 0.0
H207 H 0.11142 0.02299 0.1691 0.0
H208 H 0.08553 0.98919 0.19339 0.0
H209 H 0.22007 0.93969 0.05964 0.0
H210 H 0.20891 0.98514 0.05831 0.0
H211 H 0.2308 0.96774 0.10567 0.0
H212 H 0.1795 0.09696 0.11486 0.0
H213 H 0.21696 0.04946 0.23422 0.0
H214 H 0.12501 0.04661 0.08507 0.0
H215 H 0.15344 0.01556 0.0593 0.0
H216 H 0.16095 0.06144 0.05267 0.0
H217 H 0.18393 0.97384 0.22963 0.0
H218 H 0.22789 0.98809 0.23611 0.0
H219 H 0.21606 0.96096 0.18961 0.0
C220 C 0.51167 0.66601 0.5338 0.0
C221 C 0.52832 0.63594 0.54895 0.0
C222 C 0.48098 0.67787 0.55402 0.0
C223 C 0.46616 0.65835 0.58888 0.0
C224 C 0.48183 0.62672 0.60217 0.0
C225 C 0.51332 0.61636 0.58283 0.0
C226 C 0.46499 0.71164 0.53895 0.0
C227 C 0.46538 0.6039 0.63692 0.0
C228 C 0.41058 0.69575 0.68116 0.0
C229 C 0.37721 0.68817 0.66611 0.0
C230 C 0.43965 0.68872 0.65451 0.0
C231 C 0.43529 0.67155 0.61326 0.0
C232 C 0.40152 0.66462 0.59758 0.0
C233 C 0.37291 0.67473 0.62328 0.0
C234 C 0.47512 0.69812 0.67152 0.0
C235 C 0.39512 0.64493 0.5551 0.0
H236 H 0.5234 0.68094 0.50732 0.0
H237 H 0.52607 0.59276 0.59385 0.0
H238 H 0.43848 0.70704 0.52628 0.0
H239 H 0.46269 0.72977 0.56754 0.0
H240 H 0.48037 0.72421 0.51232 0.0
H241 H 0.47827 0.57811 0.63908 0.0
H242 H 0.46684 0.61662 0.66994 0.0
H243 H 0.43755 0.60007 0.62927 0.0
H244 H 0.41408 0.70582 0.71443 0.0
H245 H 0.347 0.67002 0.61107 0.0
H246 H 0.49059 0.71048 0.64484 0.0
H247 H 0.48914 0.6743 0.68195 0.0
H248 H 0.47365 0.71607 0.70041 0.0
H249 H 0.39517 0.66323 0.52675 0.0
H250 H 0.36951 0.63207 0.55596 0.0
H251 H 0.41523 0.62474 0.54919 0.0
C252 C 0.84177 0.03857 0.09173 0.0
C253 C 0.81941 0.06334 0.11053 0.0
C254 C 0.83671 0.00316 0.09917 0.0
C255 C 0.80883 0.99268 0.12645 0.0
C256 C 0.78464 0.01751 0.14257 0.0
C257 C 0.79043 0.05275 0.13469 0.0
C258 C 0.86291 0.9773 0.08131 0.0
C259 C 0.75454 0.0072 0.17167 0.0
C260 C 0.78948 0.8979 0.14786 0.0
C261 C 0.80698 0.89304 0.18793 0.0
C262 C 0.79057 0.93008 0.12625 0.0
C263 C 0.8092 0.95757 0.14597 0.0
C264 C 0.8275 0.95217 0.18613 0.0
C265 C 0.82622 0.91978 0.2065 0.0
C266 C 0.77147 0.93486 0.08303 0.0
C267 C 0.84799 0.98071 0.20802 0.0
H268 H 0.8648 0.04696 0.07431 0.0
H269 H 0.77319 0.07208 0.14912 0.0
H270 H 0.8768 0.96466 0.10922 0.0
H271 H 0.8496 0.95659 0.06243 0.0
H272 H 0.88237 0.98959 0.05928 0.0
H273 H 0.73531 0.02859 0.17556 0.0
H274 H 0.74129 0.9842 0.15775 0.0
H275 H 0.76429 6e-05 0.2051 0.0
H276 H 0.775 0.8766 0.13378 0.0
H277 H 0.83987 0.9152 0.23738 0.0
H278 H 0.78874 0.94662 0.05783 0.0
H279 H 0.74933 0.95296 0.08806 0.0
H280 H 0.76147 0.90998 0.06976 0.0
H281 H 0.8678 0.99071 0.18466 0.0
H282 H 0.86129 0.9718 0.23867 0.0
H283 H 0.83051 0.00265 0.21686 0.0
C284 C 0.49292 0.34032 0.54405 0.0
C285 C 0.46309 0.33118 0.56744 0.0
C286 C 0.52575 0.33041 0.55937 0.0
C287 C 0.52869 0.31115 0.59923 0.0
C288 C 0.49849 0.30113 0.62243 0.0
C289 C 0.46602 0.31146 0.60635 0.0
C290 C 0.55731 0.34203 0.53409 0.0
C291 C 0.50044 0.28013 0.66463 0.0
C292 C 0.61546 0.26753 0.62062 0.0
C293 C 0.63117 0.29169 0.64858 0.0
C294 C 0.58169 0.2731 0.60493 0.0
C295 C 0.56344 0.30347 0.61791 0.0
C296 C 0.57893 0.32733 0.64754 0.0
C297 C 0.61281 0.32119 0.66235 0.0
C298 C 0.56579 0.24688 0.57392 0.0
C299 C 0.55973 0.35926 0.66362 0.0
H300 H 0.49073 0.35647 0.51484 0.0
H301 H 0.44285 0.30435 0.62454 0.0
H302 H 0.5721 0.36021 0.55512 0.0
H303 H 0.5745 0.31959 0.52655 0.0
H304 H 0.55054 0.3553 0.50254 0.0
H305 H 0.47448 0.27167 0.67617 0.0
H306 H 0.51706 0.25686 0.65953 0.0
H307 H 0.51241 0.29579 0.69136 0.0
H308 H 0.63001 0.24471 0.6104 0.0
H309 H 0.62515 0.33944 0.68458 0.0
H310 H 0.5618 0.25873 0.54076 0.0
H311 H 0.53999 0.23895 0.58648 0.0
H312 H 0.58232 0.22337 0.5699 0.0
H313 H 0.54886 0.37387 0.63512 0.0
H314 H 0.57656 0.37673 0.68329 0.0
H315 H 0.53763 0.35149 0.68487 0.0
C316 C 0.68588 0.49672 0.4074 0.0
C317 C 0.65525 0.50463 0.43031 0.0
C318 C 0.69233 0.4632 0.39146 0.0
C319 C 0.66737 0.43712 0.39867 0.0
C320 C 0.63837 0.44417 0.4265 0.0
C321 C 0.63248 0.47814 0.44177 0.0
C322 C 0.72401 0.45672 0.36298 0.0
C323 C 0.61149 0.41724 0.43672 0.0
C324 C 0.65196 0.3774 0.30085 0.0
C325 C 0.67383 0.34956 0.31056 0.0
C326 C 0.64933 0.40576 0.32981 0.0
C327 C 0.66839 0.40564 0.3701 0.0
C328 C 0.69039 0.37708 0.38008 0.0
C329 C 0.69308 0.34949 0.34976 0.0
C330 C 0.62719 0.43643 0.31633 0.0
C331 C 0.71154 0.37502 0.42204 0.0
H332 H 0.70351 0.51746 0.39892 0.0
H333 H 0.60874 0.48442 0.45951 0.0
H334 H 0.73898 0.43433 0.37606 0.0
H335 H 0.716 0.45021 0.32858 0.0
H336 H 0.74134 0.47956 0.36174 0.0
H337 H 0.60284 0.41971 0.47181 0.0
H338 H 0.58836 0.42208 0.41591 0.0
H339 H 0.62109 0.39048 0.43064 0.0
H340 H 0.63727 0.37695 0.27022 0.0
H341 H 0.70984 0.32754 0.3569 0.0
H342 H 0.64342 0.46002 0.31435 0.0
H343 H 0.60681 0.44139 0.3416 0.0
H344 H 0.61446 0.43243 0.28368 0.0
H345 H 0.73911 0.36986 0.41349 0.0
H346 H 0.70258 0.3527 0.44211 0.0
H347 H 0.71007 0.3988 0.44267 0.0
C348 C 0.94924 0.19994 0.93294 0.0
C349 C 0.95848 0.18108 0.97086 0.0
C350 C 0.97458 0.21773 0.90876 0.0
C351 C 0.00935 0.21615 0.92338 0.0
C352 C 0.01695 0.20269 0.96602 0.0
C353 C 0.99129 0.18483 0.98921 0.0
C354 C 0.96506 0.23332 0.86449 0.0
C355 C 0.05321 0.20152 0.98427 0.0
C356 C 0.07754 0.18615 0.84197 0.0
C357 C 0.09955 0.21466 0.84103 0.0
C358 C 0.04704 0.18701 0.86704 0.0
C359 C 0.03782 0.21774 0.89042 0.0
C360 C 0.05855 0.24763 0.88648 0.0
C361 C 0.08963 0.24556 0.86226 0.0
C362 C 0.02569 0.1544 0.87018 0.0
C363 C 0.04902 0.28097 0.90998 0.0
H364 H 0.92351 0.19705 0.91903 0.0
H365 H -0.00192 0.17039 0.01886 0.0
H366 H 0.98167 0.25583 0.85656 0.0
H367 H 0.96886 0.21359 0.83798 0.0
H368 H 0.93745 0.24166 0.86397 0.0
H369 H 0.05248 0.2074 0.02032 0.0
H370 H 0.06391 0.17495 0.97975 0.0
H371 H 0.07091 0.2201 0.96813 0.0
H372 H 0.08484 0.16279 0.82409 0.0
H373 H 0.10673 0.26767 0.86098 0.0
H374 H -0.0011 0.1596 0.85868 0.0
H375 H 0.0241 0.14575 0.90525 0.0
H376 H 0.03672 0.1328 0.85 0.0
H377 H 0.02099 0.28678 0.90607 0.0
H378 H 0.06419 0.30322 0.89729 0.0
H379 H 0.05416 0.27825 0.94605 0.0
C380 C 0.30643 0.49527 0.48119 0.0
C381 C 0.33965 0.4841 0.46859 0.0
C382 C 0.29449 0.52875 0.46966 0.0
C383 C 0.31607 0.55079 0.44417 0.0
C384 C 0.35073 0.54056 0.43549 0.0
C385 C 0.36208 0.50748 0.44807 0.0
C386 C 0.25784 0.53917 0.4812 0.0
C387 C 0.37467 0.56257 0.40793 0.0
C388 C 0.28182 0.60678 0.35036 0.0
C389 C 0.28851 0.64012 0.36635 0.0
C390 C 0.28832 0.57745 0.37674 0.0
C391 C 0.30164 0.58164 0.42033 0.0
C392 C 0.30626 0.61552 0.4375 0.0
C393 C 0.29992 0.64435 0.41013 0.0
C394 C 0.28353 0.54192 0.35662 0.0
C395 C 0.32028 0.62124 0.48355 0.0
H396 H 0.28896 0.47708 0.4968 0.0
H397 H 0.38772 0.49866 0.43812 0.0
H398 H 0.25611 0.56721 0.48935 0.0
H399 H 0.24087 0.53429 0.4522 0.0
H400 H 0.24784 0.52401 0.50977 0.0
H401 H 0.40204 0.5537 0.41035 0.0
H402 H 0.36665 0.56096 0.37263 0.0
H403 H 0.37312 0.59017 0.41801 0.0
H404 H 0.27362 0.60363 0.3162 0.0
H405 H 0.30522 0.67026 0.4222 0.0
H406 H 0.26818 0.52535 0.37925 0.0
H407 H 0.3092 0.52924 0.35195 0.0
H408 H 0.2703 0.54305 0.32392 0.0
H409 H 0.30634 0.60486 0.50783 0.0
H410 H 0.31814 0.64879 0.49414 0.0
H411 H 0.34798 0.61345 0.48426 0.0
C412 C 0.99126 0.86251 0.92908 0.0
C413 C 0.0192 0.85525 0.90073 0.0
C414 C 0.958 0.85028 0.91985 0.0
C415 C 0.95247 0.83049 0.88078 0.0
C416 C 0.981 0.82158 0.85316 0.0
C417 C 0.01398 0.83459 0.86307 0.0
C418 C 0.92959 0.85864 0.95288 0.0
C419 C 0.97679 0.79821 0.81325 0.0
C420 C 0.86464 0.78698 0.87119 0.0
C421 C 0.84815 0.80852 0.84041 0.0
C422 C 0.89898 0.79329 0.88412 0.0
C423 C 0.91669 0.82219 0.86631 0.0
C424 C 0.89983 0.844 0.83518 0.0
C425 C 0.86584 0.83666 0.8224 0.0
C426 C 0.91611 0.76941 0.91717 0.0
C427 C 0.91751 0.87507 0.81503 0.0
H428 H -0.00489 0.87868 0.95802 0.0
H429 H 0.03575 0.82829 0.84159 0.0
H430 H 0.90327 0.8522 0.9411 0.0
H431 H 0.93461 0.84377 0.98374 0.0
H432 H 0.93029 0.88651 0.96214 0.0
H433 H 0.00209 0.78816 0.80088 0.0
H434 H 0.95998 0.7759 0.82154 0.0
H435 H 0.96417 0.81275 0.78595 0.0
H436 H 0.85053 0.76541 0.88519 0.0
H437 H 0.8528 0.85299 0.79833 0.0
H438 H 0.91882 0.78307 0.94945 0.0
H439 H 0.94251 0.76202 0.90564 0.0
H440 H 0.90089 0.74547 0.9227 0.0
H441 H 0.93308 0.88914 0.8401 0.0
H442 H 0.89857 0.89345 0.80011 0.0
H443 H 0.93536 0.86631 0.7883 0.0
C444 C 0.87608 0.98002 0.94349 0.0
C445 C 0.85648 0.00492 0.9667 0.0
C446 C 0.86063 0.9505 0.92547 0.0
C447 C 0.82468 0.94521 0.93133 0.0
C448 C 0.80498 0.96918 0.9569 0.0
C449 C 0.8211 -0.00107 0.97416 0.0
C450 C 0.88256 0.92647 0.89729 0.0
C451 C 0.76664 0.96431 0.96408 0.0
C452 C 0.78869 0.88888 0.8394 0.0
C453 C 0.78961 0.85612 0.85921 0.0
C454 C 0.79739 0.91867 0.86369 0.0
C455 C 0.80796 0.91541 0.90855 0.0
C456 C 0.80748 0.88246 0.92917 0.0
C457 C 0.79828 0.8532 0.90416 0.0
C458 C 0.79765 0.95325 0.84036 0.0
C459 C 0.81939 0.87774 0.97648 0.0
H460 H 0.9034 0.98432 0.93742 0.0
H461 H 0.80578 0.01794 0.9923 0.0
H462 H 0.87554 0.899 0.90255 0.0
H463 H 0.87798 0.93255 0.8618 0.0
H464 H 0.91065 0.92959 0.904 0.0
H465 H 0.75598 0.98262 0.9893 0.0
H466 H 0.7528 0.96858 0.93229 0.0
H467 H 0.76119 0.93741 0.97484 0.0
H468 H 0.78302 0.89086 0.80426 0.0
H469 H 0.79951 0.82765 0.919 0.0
H470 H 0.82482 0.96122 0.83437 0.0
H471 H 0.7852 0.9735 0.86138 0.0
H472 H 0.78408 0.95225 0.80789 0.0
H473 H 0.84774 0.88211 0.97826 0.0
H474 H 0.81385 0.85133 0.98913 0.0
H475 H 0.8067 0.89709 0.99861 0.0
C476 C 0.48333 0.32199 0.43155 0.0
C477 C 0.47477 0.35649 0.42172 0.0
C478 C 0.51297 0.30621 0.41302 0.0
C479 C 0.53487 0.32581 0.38501 0.0
C480 C 0.52759 0.36143 0.37781 0.0
C481 C 0.49732 0.37617 0.39567 0.0
C482 C 0.51993 0.26837 0.4223 0.0
C483 C 0.55086 0.38367 0.34946 0.0
C484 C 0.62546 0.29664 0.35279 0.0
C485 C 0.62192 0.29367 0.30668 0.0
C486 C 0.5971 0.30578 0.37967 0.0
C487 C 0.56393 0.30918 0.36017 0.0
C488 C 0.55954 0.30116 0.31456 0.0
C489 C 0.58878 0.29469 0.28801 0.0
C490 C 0.6033 0.31357 0.42812 0.0
C491 C 0.52423 0.30156 0.29314 0.0
H492 H 0.46579 0.30673 0.45163 0.0
H493 H 0.49076 0.40291 0.38818 0.0
H494 H 0.53027 0.25474 0.3925 0.0
H495 H 0.53946 0.26622 0.44911 0.0
H496 H 0.49617 0.25488 0.43363 0.0
H497 H 0.54576 0.41176 0.35479 0.0
H498 H 0.57853 0.37806 0.35657 0.0
H499 H 0.54639 0.37787 0.31385 0.0
H500 H 0.65098 0.29424 0.36734 0.0
H501 H 0.58585 0.29241 0.25237 0.0
H502 H 0.59592 0.29075 0.44824 0.0
H503 H 0.58755 0.33606 0.43953 0.0
H504 H 0.63101 0.31912 0.43469 0.0
H505 H 0.50469 0.28972 0.31545 0.0
H506 H 0.52435 0.28736 0.26097 0.0
H507 H 0.51604 0.3287 0.28671 0.0
C508 C 0.15453 0.01342 0.96694 0.0
C509 C 0.12091 0.00015 0.96572 0.0
C510 C 0.16101 0.04794 0.95455 0.0
C511 C 0.13329 0.06921 0.93962 0.0
C512 C 0.09889 0.05698 0.94332 0.0
C513 C 0.09315 0.02247 0.95607 0.0
C514 C 0.19792 0.06038 0.95308 0.0
C515 C 0.06842 0.07885 0.92871 0.0
C516 C 0.14677 0.16267 0.90109 0.0
C517 C 0.15215 0.1578 0.85538 0.0
C518 C 0.14117 0.13418 0.92945 0.0
C519 C 0.14058 0.10019 0.91139 0.0
C520 C 0.146 0.09541 0.86511 0.0
C521 C 0.1519 0.12422 0.83787 0.0
C522 C 0.13628 0.14041 0.97859 0.0
C523 C 0.14487 0.05984 0.84404 0.0
H524 H 0.17607 -0.00393 0.97391 0.0
H525 H 0.06717 0.01204 0.95457 0.0
H526 H 0.20765 0.05899 0.91838 0.0
H527 H 0.19951 0.08778 0.96416 0.0
H528 H 0.21513 0.04424 0.97428 0.0
H529 H 0.04342 0.06809 0.94049 0.0
H530 H 0.07075 0.10581 0.94116 0.0
H531 H 0.06791 0.07991 0.89187 0.0
H532 H 0.14692 0.18878 0.91445 0.0
H533 H 0.1554 0.1207 0.80241 0.0
H534 H 0.15934 0.13063 0.99669 0.0
H535 H 0.11358 0.12603 0.99134 0.0
H536 H 0.13279 0.16838 0.98645 0.0
H537 H 0.16496 0.04281 0.85899 0.0
H538 H 0.14921 0.06066 0.80756 0.0
H539 H 0.11933 0.0478 0.85047 0.0
C540 C 0.49915 0.62942 0.42368 0.0
C541 C 0.52566 0.63681 0.39335 0.0
C542 C 0.46464 0.63843 0.41473 0.0
C543 C 0.45638 0.65529 0.37433 0.0
C544 C 0.48318 0.66351 0.34396 0.0
C545 C 0.51747 0.65382 0.35363 0.0
C546 C 0.43772 0.62925 0.44907 0.0
C547 C 0.47568 0.68281 0.30144 0.0
C548 C 0.36622 0.64788 0.32551 0.0
C549 C 0.35101 0.67917 0.33911 0.0
C550 C 0.40044 0.63961 0.33713 0.0
C551 C 0.41976 0.66336 0.36286 0.0
C552 C 0.40415 0.69479 0.37734 0.0
C553 C 0.36983 0.70234 0.3652 0.0
C554 C 0.41606 0.60574 0.3213 0.0
C555 C 0.42372 0.72028 0.40569 0.0
H556 H 0.50516 0.61592 0.45426 0.0
H557 H 0.53795 0.65995 0.33029 0.0
H558 H 0.41156 0.63992 0.44212 0.0
H559 H 0.43605 0.60062 0.4517 0.0
H560 H 0.44624 0.63893 0.48194 0.0
H561 H 0.49966 0.68896 0.28263 0.0
H562 H 0.45863 0.66713 0.27983 0.0
H563 H 0.46169 0.70739 0.309 0.0
H564 H 0.35132 0.63015 0.30529 0.0
H565 H 0.35756 0.72632 0.37591 0.0
H566 H 0.42901 0.5921 0.34917 0.0
H567 H 0.43611 0.6109 0.29576 0.0
H568 H 0.39636 0.58834 0.30654 0.0
H569 H 0.43095 0.70786 0.4376 0.0
H570 H 0.40828 0.74406 0.41296 0.0
H571 H 0.4481 0.7278 0.38874 0.0
C572 C 0.36114 0.48677 0.57341 0.0
C573 C 0.34424 0.46029 0.59637 0.0
C574 C 0.35663 0.52155 0.58605 0.0
C575 C 0.33583 0.52962 0.62356 0.0
C576 C 0.31836 0.50297 0.64644 0.0
C577 C 0.32251 0.46866 0.63226 0.0
C578 C 0.3746 0.54955 0.55997 0.0
C579 C 0.29655 0.51046 0.68718 0.0
C580 C 0.35594 0.609 0.69235 0.0
C581 C 0.32791 0.63057 0.68214 0.0
C582 C 0.35934 0.57631 0.67253 0.0
C583 C 0.33427 0.56544 0.64126 0.0
C584 C 0.30639 0.58775 0.6299 0.0
C585 C 0.30322 0.62 0.65119 0.0
C586 C 0.38911 0.55304 0.68607 0.0
C587 C 0.27953 0.57733 0.59618 0.0
H588 H 0.37897 0.48026 0.54677 0.0
H589 H 0.30955 0.44814 0.65023 0.0
H590 H 0.35489 0.56735 0.54572 0.0
H591 H 0.39133 0.56515 0.58211 0.0
H592 H 0.39074 0.53889 0.53247 0.0
H593 H 0.28429 0.48676 0.70073 0.0
H594 H 0.31291 0.5221 0.71347 0.0
H595 H 0.27588 0.52953 0.67918 0.0
H596 H 0.37493 0.61778 0.71624 0.0
H597 H 0.28186 0.63728 0.64326 0.0
H598 H 0.40369 0.54401 0.65636 0.0
H599 H 0.3789 0.52971 0.70299 0.0
H600 H 0.40739 0.56627 0.70884 0.0
H601 H 0.29154 0.56284 0.56814 0.0
H602 H 0.2654 0.60021 0.58279 0.0
H603 H 0.26038 0.56003 0.61213 0.0
C604 C -0.00023 0.81241 0.0645 0.0
C605 C 0.01217 0.84348 0.04684 0.0
C606 C 0.96834 0.81149 0.0878 0.0
C607 C 0.94914 0.84254 0.09408 0.0
C608 C 0.96099 0.87386 0.07516 0.0
C609 C 0.99245 0.87395 0.05164 0.0
C610 C 0.95613 0.77747 0.10672 0.0
C611 C 0.94106 0.90742 0.081 0.0
C612 C 0.85633 0.83501 0.13474 0.0
C613 C 0.86074 0.83866 0.18056 0.0
C614 C 0.88485 0.83643 0.10584 0.0
C615 C 0.91824 0.84251 0.12349 0.0
C616 C 0.9225 0.84708 0.16988 0.0
C617 C 0.89362 0.84482 0.19793 0.0
C618 C 0.87928 0.83125 0.05669 0.0
C619 C 0.9576 0.85411 0.18987 0.0
H620 H 0.01482 0.78876 0.06035 0.0
H621 H 0.00203 0.89805 0.03805 0.0
H622 H 0.95622 0.77879 0.14355 0.0
H623 H 0.92911 0.7724 0.09621 0.0
H624 H 0.97275 0.75529 0.09608 0.0
H625 H 0.9531 0.92923 0.0627 0.0
H626 H 0.91407 0.90437 0.06916 0.0
H627 H 0.93968 0.91431 0.11679 0.0
H628 H 0.83057 0.83055 0.1218 0.0
H629 H 0.89647 0.84824 0.23348 0.0
H630 H 0.89741 0.81125 0.04347 0.0
H631 H 0.88469 0.85577 0.03896 0.0
H632 H 0.85235 0.8233 0.04902 0.0
H633 H 0.97526 0.83181 0.18343 0.0
H634 H 0.95616 0.85856 0.22632 0.0
H635 H 0.96926 0.87722 0.17406 0.0
C636 C 0.61627 0.48062 0.57489 0.0
C637 C 0.63774 0.50425 0.55327 0.0
C638 C 0.6274 0.44669 0.58309 0.0
C639 C 0.66094 0.43607 0.5693 0.0
C640 C 0.68172 0.45906 0.54424 0.0
C641 C 0.67002 0.49323 0.53701 0.0
C642 C 0.60436 0.42354 0.61034 0.0
C643 C 0.7173 0.44872 0.52794 0.0
C644 C 0.69776 0.37081 0.65005 0.0
C645 C 0.68975 0.33953 0.62905 0.0
C646 C 0.69085 0.4026 0.62936 0.0
C647 C 0.67538 0.40295 0.58675 0.0
C648 C 0.66918 0.37125 0.56443 0.0
C649 C 0.67629 0.33982 0.58601 0.0
C650 C 0.69808 0.43576 0.65431 0.0
C651 C 0.65293 0.37048 0.51912 0.0
H652 H 0.59132 0.48929 0.58759 0.0
H653 H 0.68682 0.5117 0.52075 0.0
H654 H 0.61217 0.42529 0.64572 0.0
H655 H 0.57671 0.4315 0.60789 0.0
H656 H 0.60688 0.39608 0.59998 0.0
H657 H 0.72435 0.46331 0.49748 0.0
H658 H 0.73657 0.45491 0.55401 0.0
H659 H 0.71911 0.42055 0.52075 0.0
H660 H 0.70779 0.37034 0.68363 0.0
H661 H 0.6703 0.31541 0.56996 0.0
H662 H 0.67323 0.44851 0.66364 0.0
H663 H 0.71255 0.454 0.63285 0.0
H664 H 0.71327 0.4311 0.68505 0.0
H665 H 0.625 0.37665 0.5223 0.0
H666 H 0.65573 0.34468 0.50303 0.0
H667 H 0.6646 0.39046 0.49751 0.0
C668 C 0.98784 0.10484 0.07511 0.0
C669 C 0.96551 0.12741 0.09841 0.0
C670 C 0.023 0.10167 0.08712 0.0
C671 C 0.0358 0.1216 0.12304 0.0
C672 C 0.01344 0.14473 0.146 0.0
C673 C 0.97874 0.14726 0.13348 0.0
C674 C 0.04629 0.07686 0.06187 0.0
C675 C 0.02611 0.16683 0.18413 0.0
C676 C 0.11464 0.10052 0.19253 0.0
C677 C 0.13759 0.12582 0.17766 0.0
C678 C 0.08189 0.09712 0.17294 0.0
C679 C 0.07255 0.11914 0.13724 0.0
C680 C 0.09679 0.14323 0.1206 0.0
C681 C 0.12891 0.14662 0.14148 0.0
C682 C 0.05655 0.0715 0.19201 0.0
C683 C 0.08792 0.16709 0.08276 0.0
H684 H 0.97781 0.08938 0.04799 0.0
H685 H 0.96188 0.16504 0.15144 0.0
H686 H 0.0695 0.09054 0.04927 0.0
H687 H 0.0556 0.05615 0.0845 0.0
H688 H 0.03287 0.0646 0.03333 0.0
H689 H 0.00529 0.18353 0.19844 0.0
H690 H 0.03656 0.15008 0.21092 0.0
H691 H 0.04747 0.18374 0.17272 0.0
H692 H 0.12197 0.08441 0.22047 0.0
H693 H 0.1472 0.16588 0.13016 0.0
H694 H 0.04801 0.05336 0.16563 0.0
H695 H 0.03314 0.08532 0.20451 0.0
H696 H 0.06785 0.0563 0.2198 0.0
H697 H 0.07523 0.15244 0.05568 0.0
H698 H 0.11114 0.18025 0.06919 0.0
H699 H 0.06934 0.18719 0.09464 0.0
C700 C 0.15184 0.76954 0.08741 0.0
C701 C 0.16158 0.80126 0.0686 0.0
C702 C 0.17139 0.75401 0.12124 0.0
C703 C 0.20146 0.77066 0.13708 0.0
C704 C 0.21201 0.80233 0.11752 0.0
C705 C 0.19203 0.81719 0.08325 0.0
C706 C 0.15935 0.72009 0.1407 0.0
C707 C 0.24383 0.82095 0.13365 0.0
C708 C 0.22847 0.74638 0.2547 0.0
C709 C 0.25496 0.72224 0.24663 0.0
C710 C 0.21143 0.76304 0.21935 0.0
C711 C 0.2211 0.75514 0.17493 0.0
C712 C 0.24808 0.73079 0.16681 0.0
C713 C 0.26476 0.71471 0.20283 0.0
C714 C 0.1829 0.78887 0.22951 0.0
C715 C 0.25899 0.72134 0.12009 0.0
H716 H 0.12845 0.75696 0.07601 0.0
H717 H 0.19963 0.84177 0.069 0.0
H718 H 0.18042 0.70041 0.1387 0.0
H719 H 0.15286 0.72369 0.17635 0.0
H720 H 0.1362 0.70979 0.12341 0.0
H721 H 0.24929 0.84463 0.11397 0.0
H722 H 0.24034 0.82851 0.16898 0.0
H723 H 0.26674 0.80344 0.1319 0.0
H724 H 0.22137 0.75232 0.28875 0.0
H725 H 0.28543 0.69607 0.19697 0.0
H726 H 0.15802 0.77945 0.21581 0.0
H727 H 0.18851 0.81402 0.21329 0.0
H728 H 0.1796 0.79333 0.26576 0.0
H729 H 0.23696 0.70937 0.10227 0.0
H730 H 0.28126 0.70292 0.11947 0.0
H731 H 0.26623 0.74501 0.1015 0.0
C732 C 0.66753 0.70502 0.57621 0.0
C733 C 0.66663 0.66905 0.58183 0.0
C734 C 0.68342 0.7263 0.608 0.0
C735 C 0.69994 0.71093 0.64513 0.0
C736 C 0.69996 0.67439 0.64997 0.0
C737 C 0.68255 0.65394 0.61874 0.0
C738 C 0.68165 0.76517 0.60255 0.0
C739 C 0.7185 0.65688 0.68801 0.0
C740 C 0.76839 0.76183 0.70706 0.0
C741 C 0.75156 0.76908 0.7474 0.0
C742 C 0.75192 0.74301 0.67337 0.0
C743 C 0.71707 0.73284 0.67923 0.0
C744 C 0.69924 0.74193 0.71885 0.0
C745 C 0.71698 0.75925 0.7529 0.0
C746 C 0.77226 0.73286 0.63234 0.0
C747 C 0.66164 0.73278 0.72564 0.0
H748 H 0.65465 0.71655 0.54784 0.0
H749 H 0.68183 0.62602 0.62274 0.0
H750 H 0.66874 0.77702 0.63195 0.0
H751 H 0.70811 0.77604 0.60067 0.0
H752 H 0.66724 0.77297 0.57223 0.0
H753 H 0.71821 0.62816 0.68507 0.0
H754 H 0.74584 0.66554 0.68934 0.0
H755 H 0.70612 0.66431 0.71996 0.0
H756 H 0.79482 0.77028 0.7023 0.0
H757 H 0.70401 0.7645 0.78415 0.0
H758 H 0.7592 0.74273 0.60211 0.0
H759 H 0.77341 0.70417 0.6295 0.0
H760 H 0.79915 0.7429 0.63295 0.0
H761 H 0.64616 0.74061 0.69625 0.0
H762 H 0.65045 0.74547 0.75565 0.0
H763 H 0.65909 0.70432 0.7293 0.0
C764 C 0.81188 0.24777 0.03002 0.0
C765 C 0.8041 0.21392 0.01654 0.0
C766 C 0.78628 0.26848 0.05013 0.0
C767 C 0.75258 0.25487 0.05513 0.0
C768 C 0.74318 0.22511 0.03049 0.0
C769 C 0.76941 0.20464 0.01122 0.0
C770 C 0.79696 0.30129 0.07355 0.0
C771 C 0.70685 0.21124 0.03203 0.0
C772 C 0.72381 0.25341 0.17536 0.0
C773 C 0.70018 0.28079 0.17689 0.0
C774 C 0.7405 0.2445 0.13562 0.0
C775 C 0.7329 0.2634 0.09626 0.0
C776 C 0.70811 0.29063 0.09757 0.0
C777 C 0.69228 0.2993 0.13826 0.0
C778 C 0.76718 0.21559 0.13639 0.0
C779 C 0.69897 0.31143 0.05683 0.0
H780 H 0.83881 0.25536 0.0327 0.0
H781 H 0.7632 0.17873 0.99989 0.0
H782 H 0.77616 0.32121 0.07171 0.0
H783 H 0.80172 0.29556 0.10915 0.0
H784 H 0.82111 0.31202 0.05908 0.0
H785 H 0.70151 0.19464 0.00265 0.0
H786 H 0.70371 0.1952 0.06233 0.0
H787 H 0.68753 0.23268 0.03341 0.0
H788 H 0.72982 0.23967 0.20578 0.0
H789 H 0.67402 0.32074 0.14016 0.0
H790 H 0.79299 0.22604 0.12761 0.0
H791 H 0.76061 0.19536 0.11163 0.0
H792 H 0.76915 0.20308 0.16949 0.0
H793 H 0.71613 0.33432 0.05496 0.0
H794 H 0.67183 0.32112 0.05869 0.0
H795 H 0.70229 0.29615 0.0258 0.0
C796 C 0.32228 0.29057 0.616 0.0
C797 C 0.31154 0.30551 0.57589 0.0
C798 C 0.29855 0.27497 0.6448 0.0
C799 C 0.26304 0.27441 0.63338 0.0
C800 C 0.25213 0.28828 0.59208 0.0
C801 C 0.27664 0.30355 0.56357 0.0
C802 C 0.31143 0.26001 0.68813 0.0
C803 C 0.21446 0.28826 0.57884 0.0
C804 C 0.208 0.21232 0.7008 0.0
C805 C 0.19583 0.23405 0.73487 0.0
C806 C 0.22898 0.22527 0.66653 0.0
C807 C 0.23749 0.26092 0.6661 0.0
C808 C 0.22414 0.28319 0.69965 0.0
C809 C 0.20373 0.26939 0.73384 0.0
C810 C 0.24295 0.20063 0.63168 0.0
C811 C 0.23235 0.3214 0.70025 0.0
H812 H 0.3494 0.29141 0.6252 0.0
H813 H 0.26829 0.31506 0.53255 0.0
H814 H 0.30035 0.27499 0.71637 0.0
H815 H 0.30273 0.23281 0.69172 0.0
H816 H 0.34013 0.26053 0.69067 0.0
H817 H 0.21068 0.29682 0.54396 0.0
H818 H 0.20339 0.262 0.58274 0.0
H819 H 0.19963 0.30597 0.60108 0.0
H820 H 0.20125 0.18512 0.70123 0.0
H821 H 0.19438 0.28608 0.76036 0.0
H822 H 0.27153 0.19862 0.63473 0.0
H823 H 0.23727 0.21062 0.59794 0.0
H824 H 0.23188 0.17424 0.63486 0.0
H825 H 0.26036 0.325 0.70678 0.0
H826 H 0.21735 0.33567 0.72612 0.0
H827 H 0.22667 0.33311 0.66741 0.0
C828 C 0.7338 0.67384 0.39615 0.0
C829 C 0.70676 0.67884 0.42656 0.0
C830 C 0.75409 0.70164 0.38246 0.0
C831 C 0.74672 0.73514 0.39948 0.0
C832 C 0.72291 0.73925 0.43503 0.0
C833 C 0.70294 0.71079 0.44824 0.0
C834 C 0.78 0.69584 0.3454 0.0
C835 C 0.71557 0.77429 0.45544 0.0
C836 C 0.80307 0.80104 0.34263 0.0
C837 C 0.78299 0.80794 0.30498 0.0
C838 C 0.79031 0.77995 0.37676 0.0
C839 C 0.75702 0.76531 0.37234 0.0
C840 C 0.73566 0.77479 0.33599 0.0
C841 C 0.74904 0.79602 0.30268 0.0
C842 C 0.81348 0.77143 0.41553 0.0
C843 C 0.69982 0.76001 0.33007 0.0
H844 H 0.73715 0.64876 0.38024 0.0
H845 H 0.68219 0.71448 0.47216 0.0
H846 H 0.76925 0.7062 0.31389 0.0
H847 H 0.80443 0.70976 0.35229 0.0
H848 H 0.78612 0.6679 0.34048 0.0
H849 H 0.70514 0.77172 0.48971 0.0
H850 H 0.73925 0.7904 0.45633 0.0
H851 H 0.69591 0.7881 0.43514 0.0
H852 H 0.82916 0.8111 0.34449 0.0
H853 H 0.73375 0.80162 0.27339 0.0
H854 H 0.82864 0.7476 0.40785 0.0
H855 H 0.79827 0.76667 0.44622 0.0
H856 H 0.83213 0.79266 0.4219 0.0
H857 H 0.70185 0.73183 0.32286 0.0
H858 H 0.68553 0.77261 0.3024 0.0
H859 H 0.68442 0.76321 0.36098 0.0
C860 C 0.84846 0.16534 0.84946 0.0
C861 C 0.83308 0.1572 0.89026 0.0
C862 C 0.82988 0.18383 0.81719 0.0
C863 C 0.79508 0.19361 0.8259 0.0
C864 C 0.77951 0.18524 0.86706 0.0
C865 C 0.79886 0.1673 0.89887 0.0
C866 C 0.8475 0.19313 0.77403 0.0
C867 C 0.74233 0.19482 0.87738 0.0
C868 C 0.75245 0.26665 0.76213 0.0
C869 C 0.73397 0.2484 0.72979 0.0
C870 C 0.77331 0.24917 0.79289 0.0
C871 C 0.77476 0.21252 0.79198 0.0
C872 C 0.75585 0.19392 0.75964 0.0
C873 C 0.73597 0.21218 0.72849 0.0
C874 C 0.79349 0.26986 0.82658 0.0
C875 C 0.75618 0.15477 0.75843 0.0
H876 H 0.87513 0.15777 0.84312 0.0
H877 H 0.78694 0.16043 0.9302 0.0
H878 H 0.83367 0.18106 0.74576 0.0
H879 H 0.84646 0.22162 0.76906 0.0
H880 H 0.87503 0.18451 0.77306 0.0
H881 H 0.73416 0.18606 0.91094 0.0
H882 H 0.73872 0.22332 0.87552 0.0
H883 H 0.72494 0.18304 0.85233 0.0
H884 H 0.7502 0.29463 0.76363 0.0
H885 H 0.72176 0.19825 0.70321 0.0
H886 H 0.82133 0.26255 0.82506 0.0
H887 H 0.78418 0.2639 0.86059 0.0
H888 H 0.79102 0.29825 0.82112 0.0
H889 H 0.78304 0.14503 0.75355 0.0
H890 H 0.73966 0.14428 0.73147 0.0
H891 H 0.74684 0.14446 0.79066 0.0
C892 C 0.28053 0.29201 0.4193 0.0
C893 C 0.31365 0.30086 0.40448 0.0
C894 C 0.2624 0.26496 0.39864 0.0
C895 C 0.27839 0.24622 0.36343 0.0
C896 C 0.31295 0.25345 0.35113 0.0
C897 C 0.32997 0.28103 0.37143 0.0
C898 C 0.22546 0.25812 0.41235 0.0
C899 C 0.33129 0.23351 0.3146 0.0
C900 C 0.2409 0.16417 0.31409 0.0
C901 C 0.22629 0.17704 0.27489 0.0
C902 C 0.25708 0.18652 0.34433 0.0
C903 C 0.25805 0.22247 0.33515 0.0
C904 C 0.24254 0.23557 0.29601 0.0
C905 C 0.22727 0.21257 0.26607 0.0
C906 C 0.27391 0.17163 0.38534 0.0
C907 C 0.24291 0.27378 0.2851 0.0
H908 H 0.26817 0.30739 0.44515 0.0
H909 H 0.35599 0.28757 0.3608 0.0
H910 H 0.20771 0.26838 0.38652 0.0
H911 H 0.22074 0.22988 0.41513 0.0
H912 H 0.21885 0.27075 0.44453 0.0
H913 H 0.35946 0.23918 0.31341 0.0
H914 H 0.32793 0.2052 0.31914 0.0
H915 H 0.31985 0.2405 0.28203 0.0
H916 H 0.23956 0.13667 0.32099 0.0
H917 H 0.21621 0.22226 0.23544 0.0
H918 H 0.26442 0.18539 0.41546 0.0
H919 H 0.30234 0.17548 0.38359 0.0
H920 H 0.26881 0.14348 0.38909 0.0
H921 H 0.23317 0.28919 0.31377 0.0
H922 H 0.22685 0.28003 0.25557 0.0
H923 H 0.26987 0.28207 0.27837 0.0
C924 C 0.22698 0.84971 0.89086 0.0
C925 C 0.2024 0.83831 0.92174 0.0
C926 C 0.25041 0.82645 0.87131 0.0
C927 C 0.24905 0.791 0.88305 0.0
C928 C 0.22732 0.78023 0.9183 0.0
C929 C 0.20407 0.80417 0.93739 0.0
C930 C 0.27363 0.83916 0.8344 0.0
C931 C 0.22592 0.74281 0.9326 0.0
C932 C 0.26098 0.73357 0.78253 0.0
C933 C 0.29595 0.72465 0.78577 0.0
C934 C 0.24499 0.75385 0.81535 0.0
C935 C 0.26459 0.76512 0.85238 0.0
C936 C 0.29962 0.75467 0.8568 0.0
C937 C 0.31505 0.7347 0.82301 0.0
C938 C 0.20756 0.76455 0.80927 0.0
C939 C 0.3211 0.76559 0.89615 0.0
H940 H 0.22622 0.87638 0.87952 0.0
H941 H 0.18532 0.79534 0.96163 0.0
H942 H 0.30009 0.82807 0.83756 0.0
H943 H 0.2631 0.83056 0.80194 0.0
H944 H 0.27546 0.86789 0.83409 0.0
H945 H 0.21463 0.74022 0.96642 0.0
H946 H 0.20946 0.72814 0.90906 0.0
H947 H 0.2521 0.73074 0.93219 0.0
H948 H 0.24657 0.72552 0.75348 0.0
H949 H 0.34207 0.72713 0.82533 0.0
H950 H 0.2058 0.79309 0.80502 0.0
H951 H 0.1922 0.75778 0.83916 0.0
H952 H 0.1956 0.75199 0.77987 0.0
H953 H 0.32832 0.79322 0.89256 0.0
H954 H 0.34529 0.74995 0.89891 0.0
H955 H 0.30611 0.76317 0.92748 0.0
loop_
_geom_bond_atom_site_label_1
_geom_bond_atom_site_label_2
_geom_bond_distance
_geom_bond_site_symmetry_2
_ccdc_geom_bond_type
Zn0 O6 1.920 . S
Zn0 O12 1.898 . S
Zn0 O15 1.905 . S
Zn1 O9 1.905 . S
Zn1 O10 1.898 . S
Zn1 O18 1.920 . S
Zn2 O5 2.081 . S
Zn2 O8 2.113 1_554 S
Zn2 O11 2.119 1_554 S
Zn2 O13 2.121 . S
Zn2 O14 2.115 . S
Zn2 O17 2.079 1_554 S
C3 O8 1.166 . S
C3 O9 1.182 . S
C4 O10 1.167 . S
C4 O11 1.299 . S
O5 Zn2 2.081 . S
O5 C19 1.305 . S
O6 Zn0 1.920 . S
O6 C19 1.234 . S
C7 O12 1.167 . S
C7 O13 1.299 . S
O8 Zn2 2.113 1_556 S
O8 C3 1.166 . S
O9 Zn1 1.905 . S
O9 C3 1.182 . S
O10 Zn1 1.898 . S
O10 C4 1.167 . S
O11 Zn2 2.119 1_556 S
O11 C4 1.299 . S
O12 Zn0 1.898 . S
O12 C7 1.167 . S
O13 Zn2 2.121 . S
O13 C7 1.299 . S
O14 Zn2 2.115 . S
O14 C16 1.166 . S
O15 Zn0 1.905 . S
O15 C16 1.182 . S
C16 O14 1.166 . S
C16 O15 1.182 . S
O17 Zn2 2.079 1_556 S
O17 C20 1.305 . S
O18 Zn1 1.920 . S
O18 C20 1.234 . S
C19 O5 1.305 . S
C19 O6 1.234 . S
C20 O17 1.305 . S
C20 O18 1.234 . S
Zn21 O27 1.920 . S
Zn21 O33 1.898 . S
Zn21 O36 1.905 . S
Zn22 O30 1.905 . S
Zn22 O31 1.898 . S
Zn22 O39 1.920 . S
Zn23 O26 2.080 . S
Zn23 O29 2.114 . S
Zn23 O32 2.120 . S
Zn23 O34 2.120 . S
Zn23 O35 2.114 . S
Zn23 O38 2.080 . S
C24 O29 1.166 . S
C24 O30 1.182 . S
C25 O31 1.167 . S
C25 O32 1.299 . S
O26 Zn23 2.080 . S
O26 C40 1.305 . S
O27 Zn21 1.920 . S
O27 C40 1.234 . S
C28 O33 1.167 . S
C28 O34 1.299 . S
O29 Zn23 2.114 . S
O29 C24 1.166 . S
O30 Zn22 1.905 . S
O30 C24 1.182 . S
O31 Zn22 1.898 . S
O31 C25 1.167 . S
O32 Zn23 2.120 . S
O32 C25 1.299 . S
O33 Zn21 1.898 . S
O33 C28 1.167 . S
O34 Zn23 2.120 . S
O34 C28 1.299 . S
O35 Zn23 2.114 . S
O35 C37 1.166 . S
O36 Zn21 1.905 . S
O36 C37 1.182 . S
C37 O35 1.166 . S
C37 O36 1.182 . S
O38 Zn23 2.080 . S
O38 C41 1.305 . S
O39 Zn22 1.920 . S
O39 C41 1.234 . S
C40 O26 1.305 . S
C40 O27 1.234 . S
C41 O38 1.305 . S
C41 O39 1.234 . S
Zn42 O48 1.920 . S
Zn42 O54 1.898 . S
Zn42 O57 1.905 . S
Zn43 O51 1.905 . S
Zn43 O52 1.898 . S
Zn43 O60 1.920 . S
Zn44 O47 2.079 1_554 S
Zn44 O50 2.115 . S
Zn44 O53 2.121 . S
Zn44 O55 2.119 1_554 S
Zn44 O56 2.112 1_554 S
Zn44 O59 2.082 . S
C45 O50 1.166 . S
C45 O51 1.182 . S
C46 O52 1.167 . S
C46 O53 1.299 . S
O47 Zn44 2.079 1_556 S
O47 C61 1.305 . S
O48 Zn42 1.920 . S
O48 C61 1.234 . S
C49 O54 1.167 . S
C49 O55 1.299 . S
O50 Zn44 2.115 . S
O50 C45 1.166 . S
O51 Zn43 1.905 . S
O51 C45 1.182 . S
O52 Zn43 1.898 . S
O52 C46 1.167 . S
O53 Zn44 2.121 . S
O53 C46 1.299 . S
O54 Zn42 1.898 . S
O54 C49 1.167 . S
O55 Zn44 2.119 1_556 S
O55 C49 1.299 . S
O56 Zn44 2.112 1_556 S
O56 C58 1.166 . S
O57 Zn42 1.905 . S
O57 C58 1.182 . S
C58 O56 1.166 . S
C58 O57 1.182 . S
O59 Zn44 2.082 . S
O59 C62 1.305 . S
O60 Zn43 1.920 . S
O60 C62 1.234 . S
C61 O47 1.305 . S
C61 O48 1.234 . S
C62 O59 1.305 . S
C62 O60 1.234 . S
Zn63 O69 1.920 . S
Zn63 O75 1.898 . S
Zn63 O78 1.905 . S
Zn64 O72 1.905 . S
Zn64 O73 1.898 . S
Zn64 O81 1.920 . S
Zn65 O68 2.080 . S
Zn65 O71 2.114 . S
Zn65 O74 2.120 . S
Zn65 O76 2.120 . S
Zn65 O77 2.114 . S
Zn65 O80 2.080 . S
C66 O71 1.166 . S
C66 O72 1.182 . S
C67 O73 1.167 . S
C67 O74 1.299 . S
O68 Zn65 2.080 . S
O68 C82 1.305 . S
O69 Zn63 1.920 . S
O69 C82 1.234 . S
C70 O75 1.167 . S
C70 O76 1.299 . S
O71 Zn65 2.114 . S
O71 C66 1.166 . S
O72 Zn64 1.905 . S
O72 C66 1.182 . S
O73 Zn64 1.898 . S
O73 C67 1.167 . S
O74 Zn65 2.120 . S
O74 C67 1.299 . S
O75 Zn63 1.898 . S
O75 C70 1.167 . S
O76 Zn65 2.120 . S
O76 C70 1.299 . S
O77 Zn65 2.114 . S
O77 C79 1.166 . S
O78 Zn63 1.905 . S
O78 C79 1.182 . S
C79 O77 1.166 . S
C79 O78 1.182 . S
O80 Zn65 2.080 . S
O80 C83 1.305 . S
O81 Zn64 1.920 . S
O81 C83 1.234 . S
C82 O68 1.305 . S
C82 O69 1.234 . S
C83 O80 1.305 . S
C83 O81 1.234 . S
C84 N85 1.317 . S
C84 N86 1.348 . S
C84 C87 1.485 . S
N85 C84 1.317 . S
N85 N89 1.370 . S
N86 C84 1.348 . S
N86 C88 1.346 . S
C87 C84 1.485 . S
C87 H91 0.960 . S
C87 H92 0.961 . S
C87 H93 0.960 . S
C88 N86 1.346 . S
C88 N89 1.307 . S
C88 C90 1.486 . S
N89 N85 1.370 . S
N89 C88 1.307 . S
C90 C88 1.486 . S
C90 H94 0.960 . S
C90 H95 0.960 . S
C90 H96 0.959 . S
H91 C87 0.960 . S
H92 C87 0.961 . S
H93 C87 0.960 . S
H94 C90 0.960 . S
H95 C90 0.960 . S
H96 C90 0.959 . S
C97 N98 1.317 . S
C97 N99 1.348 . S
C97 C100 1.485 . S
N98 C97 1.317 . S
N98 N102 1.370 . S
N99 C97 1.348 . S
N99 C101 1.346 . S
C100 C97 1.485 . S
C100 H104 0.960 . S
C100 H105 0.961 . S
C100 H106 0.960 . S
C101 N99 1.346 . S
C101 N102 1.307 . S
C101 C103 1.486 . S
N102 N98 1.370 . S
N102 C101 1.307 . S
C103 C101 1.486 . S
C103 H107 0.960 . S
C103 H108 0.960 . S
C103 H109 0.959 . S
H104 C100 0.960 . S
H105 C100 0.961 . S
H106 C100 0.960 . S
H107 C103 0.960 . S
H108 C103 0.960 . S
H109 C103 0.959 . S
C110 N111 1.317 . S
C110 N112 1.348 . S
C110 C113 1.485 . S
N111 C110 1.317 . S
N111 N115 1.370 . S
N112 C110 1.348 . S
N112 C114 1.346 . S
C113 C110 1.485 . S
C113 H117 0.960 . S
C113 H118 0.961 . S
C113 H119 0.960 . S
C114 N112 1.346 . S
C114 N115 1.307 . S
C114 C116 1.486 . S
N115 N111 1.370 . S
N115 C114 1.307 . S
C116 C114 1.486 . S
C116 H120 0.960 . S
C116 H121 0.960 . S
C116 H122 0.959 . S
H117 C113 0.960 . S
H118 C113 0.961 . S
H119 C113 0.960 . S
H120 C116 0.960 . S
H121 C116 0.960 . S
H122 C116 0.959 . S
C123 N124 1.317 . S
C123 N125 1.348 . S
C123 C126 1.485 . S
N124 C123 1.317 . S
N124 N128 1.370 . S
N125 C123 1.348 . S
N125 C127 1.346 . S
C126 C123 1.485 . S
C126 H130 0.960 . S
C126 H131 0.961 . S
C126 H132 0.960 . S
C127 N125 1.346 . S
C127 N128 1.307 . S
C127 C129 1.486 . S
N128 N124 1.370 . S
N128 C127 1.307 . S
C129 C127 1.486 . S
C129 H133 0.960 . S
C129 H134 0.960 . S
C129 H135 0.959 . S
H130 C126 0.960 . S
H131 C126 0.961 . S
H132 C126 0.960 . S
H133 C129 0.960 . S
H134 C129 0.960 . S
H135 C129 0.959 . S
C136 N137 1.317 . S
C136 N138 1.348 . S
C136 C139 1.485 . S
N137 C136 1.317 . S
N137 N141 1.370 . S
N138 C136 1.348 . S
N138 C140 1.346 . S
C139 C136 1.485 . S
C139 H143 0.960 . S
C139 H144 0.961 . S
C139 H145 0.960 . S
C140 N138 1.346 . S
C140 N141 1.307 . S
C140 C142 1.486 . S
N141 N137 1.370 . S
N141 C140 1.307 . S
C142 C140 1.486 . S
C142 H146 0.960 . S
C142 H147 0.960 . S
C142 H148 0.959 . S
H143 C139 0.960 . S
H144 C139 0.961 . S
H145 C139 0.960 . S
H146 C142 0.960 . S
H147 C142 0.960 . S
H148 C142 0.959 . S
C149 N150 1.317 . S
C149 N151 1.348 . S
C149 C152 1.485 . S
N150 C149 1.317 . S
N150 N154 1.370 . S
N151 C149 1.348 . S
N151 C153 1.346 . S
C152 C149 1.485 . S
C152 H156 0.960 . S
C152 H157 0.961 . S
C152 H158 0.960 . S
C153 N151 1.346 . S
C153 N154 1.307 . S
C153 C155 1.486 . S
N154 N150 1.370 . S
N154 C153 1.307 . S
C155 C153 1.486 . S
C155 H159 0.960 . S
C155 H160 0.960 . S
C155 H161 0.959 . S
H156 C152 0.960 . S
H157 C152 0.961 . S
H158 C152 0.960 . S
H159 C155 0.960 . S
H160 C155 0.960 . S
H161 C155 0.959 . S
C162 N163 1.317 . S
C162 N164 1.348 . S
C162 C165 1.485 . S
N163 C162 1.317 . S
N163 N167 1.370 . S
N164 C162 1.348 . S
N164 C166 1.346 . S
C165 C162 1.485 . S
C165 H169 0.960 . S
C165 H170 0.961 . S
C165 H171 0.960 . S
C166 N164 1.346 . S
C166 N167 1.307 . S
C166 C168 1.486 . S
N167 N163 1.370 . S
N167 C166 1.307 . S
C168 C166 1.486 . S
C168 H172 0.960 . S
C168 H173 0.960 . S
C168 H174 0.959 . S
H169 C165 0.960 . S
H170 C165 0.961 . S
H171 C165 0.960 . S
H172 C168 0.960 . S
H173 C168 0.960 . S
H174 C168 0.959 . S
C175 N176 1.317 . S
C175 N177 1.348 . S
C175 C178 1.485 . S
N176 C175 1.317 . S
N176 N180 1.370 . S
N177 C175 1.348 . S
N177 C179 1.346 . S
C178 C175 1.485 . S
C178 H182 0.960 . S
C178 H183 0.961 . S
C178 H184 0.960 . S
C179 N177 1.346 . S
C179 N180 1.307 . S
C179 C181 1.486 . S
N180 N176 1.370 . S
N180 C179 1.307 . S
C181 C179 1.486 . S
C181 H185 0.960 . S
C181 H186 0.960 . S
C181 H187 0.959 . S
H182 C178 0.960 . S
H183 C178 0.961 . S
H184 C178 0.960 . S
H185 C181 0.960 . S
H186 C181 0.960 . S
H187 C181 0.959 . S
C188 C189 1.391 . S
C188 C190 1.394 . S
C188 H204 0.931 . S
C189 C188 1.391 . S
C189 C193 1.376 . S
C190 C188 1.394 . S
C190 C191 1.369 . S
C190 C194 1.531 . S
C191 C190 1.369 . S
C191 C192 1.410 . S
C191 C199 1.503 1_565 S
C192 C191 1.410 . S
C192 C193 1.392 . S
C192 C195 1.511 . S
C193 C189 1.376 . S
C193 C192 1.392 . S
C193 H205 0.929 . S
C194 C190 1.531 . S
C194 H206 0.960 1_565 S
C194 H207 0.962 1_565 S
C194 H208 0.960 . S
C195 C192 1.511 . S
C195 H209 0.961 . S
C195 H210 0.961 1_565 S
C195 H211 0.961 . S
C196 C197 1.370 . S
C196 C198 1.363 . S
C196 H212 0.931 . S
C197 C196 1.370 . S
C197 C201 1.408 . S
C198 C196 1.363 . S
C198 C199 1.370 . S
C198 C202 1.524 . S
C199 C191 1.503 1_545 S
C199 C198 1.370 . S
C199 C200 1.403 . S
C200 C199 1.403 . S
C200 C201 1.404 . S
C200 C203 1.539 1_545 S
C201 C197 1.408 . S
C201 C200 1.404 . S
C201 H213 0.930 . S
C202 C198 1.524 . S
C202 H214 0.956 . S
C202 H215 0.961 . S
C202 H216 0.961 . S
C203 C200 1.539 1_565 S
C203 H217 0.958 . S
C203 H218 0.961 . S
C203 H219 0.960 . S
H204 C188 0.931 . S
H205 C193 0.929 . S
H206 C194 0.960 1_545 S
H207 C194 0.962 1_545 S
H208 C194 0.960 . S
H209 C195 0.961 . S
H210 C195 0.961 1_545 S
H211 C195 0.961 . S
H212 C196 0.931 . S
H213 C201 0.930 . S
H214 C202 0.956 . S
H215 C202 0.961 . S
H216 C202 0.961 . S
H217 C203 0.958 . S
H218 C203 0.961 . S
H219 C203 0.960 . S
C220 C221 1.391 . S
C220 C222 1.394 . S
C220 H236 0.931 . S
C221 C220 1.391 . S
C221 C225 1.376 . S
C222 C220 1.394 . S
C222 C223 1.369 . S
C222 C226 1.531 . S
C223 C222 1.369 . S
C223 C224 1.410 . S
C223 C231 1.503 . S
C224 C223 1.410 . S
C224 C225 1.392 . S
C224 C227 1.511 . S
C225 C221 1.376 . S
C225 C224 1.392 . S
C225 H237 0.929 . S
C226 C222 1.531 . S
C226 H238 0.960 . S
C226 H239 0.962 . S
C226 H240 0.960 . S
C227 C224 1.511 . S
C227 H241 0.961 . S
C227 H242 0.961 . S
C227 H243 0.961 . S
C228 C229 1.370 . S
C228 C230 1.363 . S
C228 H244 0.931 . S
C229 C228 1.370 . S
C229 C233 1.408 . S
C230 C228 1.363 . S
C230 C231 1.370 . S
C230 C234 1.524 . S
C231 C223 1.503 . S
C231 C230 1.370 . S
C231 C232 1.403 . S
C232 C231 1.403 . S
C232 C233 1.404 . S
C232 C235 1.539 . S
C233 C229 1.408 . S
C233 C232 1.404 . S
C233 H245 0.930 . S
C234 C230 1.524 . S
C234 H246 0.956 . S
C234 H247 0.961 . S
C234 H248 0.961 . S
C235 C232 1.539 . S
C235 H249 0.958 . S
C235 H250 0.961 . S
C235 H251 0.960 . S
H236 C220 0.931 . S
H237 C225 0.929 . S
H238 C226 0.960 . S
H239 C226 0.962 . S
H240 C226 0.960 . S
H241 C227 0.961 . S
H242 C227 0.961 . S
H243 C227 0.961 . S
H244 C228 0.931 . S
H245 C233 0.930 . S
H246 C234 0.956 . S
H247 C234 0.961 . S
H248 C234 0.961 . S
H249 C235 0.958 . S
H250 C235 0.961 . S
H251 C235 0.960 . S
C252 C253 1.391 . S
C252 C254 1.394 . S
C252 H268 0.931 . S
C253 C252 1.391 . S
C253 C257 1.376 . S
C254 C252 1.394 . S
C254 C255 1.369 . S
C254 C258 1.531 1_545 S
C255 C254 1.369 . S
C255 C256 1.410 . S
C255 C263 1.503 1_545 S
C256 C255 1.410 . S
C256 C257 1.392 . S
C256 C259 1.511 . S
C257 C253 1.376 . S
C257 C256 1.392 . S
C257 H269 0.929 . S
C258 C254 1.531 1_565 S
C258 H270 0.960 . S
C258 H271 0.962 . S
C258 H272 0.960 . S
C259 C256 1.511 . S
C259 H273 0.961 . S
C259 H274 0.961 . S
C259 H275 0.961 . S
C260 C261 1.370 . S
C260 C262 1.363 . S
C260 H276 0.931 . S
C261 C260 1.370 . S
C261 C265 1.408 . S
C262 C260 1.363 . S
C262 C263 1.370 . S
C262 C266 1.524 . S
C263 C255 1.503 1_565 S
C263 C262 1.370 . S
C263 C264 1.403 . S
C264 C263 1.403 . S
C264 C265 1.404 . S
C264 C267 1.539 . S
C265 C261 1.408 . S
C265 C264 1.404 . S
C265 H277 0.930 . S
C266 C262 1.524 . S
C266 H278 0.956 . S
C266 H279 0.961 . S
C266 H280 0.961 . S
C267 C264 1.539 . S
C267 H281 0.958 . S
C267 H282 0.961 . S
C267 H283 0.960 1_565 S
H268 C252 0.931 . S
H269 C257 0.929 . S
H270 C258 0.960 . S
H271 C258 0.962 . S
H272 C258 0.960 . S
H273 C259 0.961 . S
H274 C259 0.961 . S
H275 C259 0.961 . S
H276 C260 0.931 . S
H277 C265 0.930 . S
H278 C266 0.956 . S
H279 C266 0.961 . S
H280 C266 0.961 . S
H281 C267 0.958 . S
H282 C267 0.961 . S
H283 C267 0.960 1_545 S
C284 C285 1.391 . S
C284 C286 1.394 . S
C284 H300 0.931 . S
C285 C284 1.391 . S
C285 C289 1.376 . S
C286 C284 1.394 . S
C286 C287 1.369 . S
C286 C290 1.531 . S
C287 C286 1.369 . S
C287 C288 1.410 . S
C287 C295 1.503 . S
C288 C287 1.410 . S
C288 C289 1.392 . S
C288 C291 1.511 . S
C289 C285 1.376 . S
C289 C288 1.392 . S
C289 H301 0.929 . S
C290 C286 1.531 . S
C290 H302 0.960 . S
C290 H303 0.962 . S
C290 H304 0.960 . S
C291 C288 1.511 . S
C291 H305 0.961 . S
C291 H306 0.961 . S
C291 H307 0.961 . S
C292 C293 1.370 . S
C292 C294 1.363 . S
C292 H308 0.931 . S
C293 C292 1.370 . S
C293 C297 1.408 . S
C294 C292 1.363 . S
C294 C295 1.370 . S
C294 C298 1.524 . S
C295 C287 1.503 . S
C295 C294 1.370 . S
C295 C296 1.403 . S
C296 C295 1.403 . S
C296 C297 1.404 . S
C296 C299 1.539 . S
C297 C293 1.408 . S
C297 C296 1.404 . S
C297 H309 0.930 . S
C298 C294 1.524 . S
C298 H310 0.956 . S
C298 H311 0.961 . S
C298 H312 0.961 . S
C299 C296 1.539 . S
C299 H313 0.958 . S
C299 H314 0.961 . S
C299 H315 0.960 . S
H300 C284 0.931 . S
H301 C289 0.929 . S
H302 C290 0.960 . S
H303 C290 0.962 . S
H304 C290 0.960 . S
H305 C291 0.961 . S
H306 C291 0.961 . S
H307 C291 0.961 . S
H308 C292 0.931 . S
H309 C297 0.930 . S
H310 C298 0.956 . S
H311 C298 0.961 . S
H312 C298 0.961 . S
H313 C299 0.958 . S
H314 C299 0.961 . S
H315 C299 0.960 . S
C316 C317 1.391 . S
C316 C318 1.394 . S
C316 H332 0.931 . S
C317 C316 1.391 . S
C317 C321 1.376 . S
C318 C316 1.394 . S
C318 C319 1.369 . S
C318 C322 1.531 . S
C319 C318 1.369 . S
C319 C320 1.410 . S
C319 C327 1.503 . S
C320 C319 1.410 . S
C320 C321 1.392 . S
C320 C323 1.511 . S
C321 C317 1.376 . S
C321 C320 1.392 . S
C321 H333 0.929 . S
C322 C318 1.531 . S
C322 H334 0.960 . S
C322 H335 0.962 . S
C322 H336 0.960 . S
C323 C320 1.511 . S
C323 H337 0.961 . S
C323 H338 0.961 . S
C323 H339 0.961 . S
C324 C325 1.370 . S
C324 C326 1.363 . S
C324 H340 0.931 . S
C325 C324 1.370 . S
C325 C329 1.408 . S
C326 C324 1.363 . S
C326 C327 1.370 . S
C326 C330 1.524 . S
C327 C319 1.503 . S
C327 C326 1.370 . S
C327 C328 1.403 . S
C328 C327 1.403 . S
C328 C329 1.404 . S
C328 C331 1.539 . S
C329 C325 1.408 . S
C329 C328 1.404 . S
C329 H341 0.930 . S
C330 C326 1.524 . S
C330 H342 0.956 . S
C330 H343 0.961 . S
C330 H344 0.961 . S
C331 C328 1.539 . S
C331 H345 0.958 . S
C331 H346 0.961 . S
C331 H347 0.960 . S
H332 C316 0.931 . S
H333 C321 0.929 . S
H334 C322 0.960 . S
H335 C322 0.962 . S
H336 C322 0.960 . S
H337 C323 0.961 . S
H338 C323 0.961 . S
H339 C323 0.961 . S
H340 C324 0.931 . S
H341 C329 0.930 . S
H342 C330 0.956 . S
H343 C330 0.961 . S
H344 C330 0.961 . S
H345 C331 0.958 . S
H346 C331 0.961 . S
H347 C331 0.960 . S
C348 C349 1.391 . S
C348 C350 1.394 . S
C348 H364 0.931 . S
C349 C348 1.391 . S
C349 C353 1.376 . S
C350 C348 1.394 . S
C350 C351 1.363 1_655 S
C350 C354 1.531 . S
C351 C350 1.363 1_455 S
C351 C352 1.410 . S
C351 C359 1.508 . S
C352 C351 1.410 . S
C352 C353 1.392 1_455 S
C352 C355 1.511 . S
C353 C349 1.376 . S
C353 C352 1.392 1_655 S
C353 H365 0.929 . S
C354 C350 1.531 . S
C354 H366 0.960 . S
C354 H367 0.962 . S
C354 H368 0.960 . S
C355 C352 1.511 . S
C355 H369 0.961 . S
C355 H370 0.961 . S
C355 H371 0.961 . S
C356 C357 1.370 . S
C356 C358 1.363 . S
C356 H372 0.931 . S
C357 C356 1.370 . S
C357 C361 1.408 . S
C358 C356 1.363 . S
C358 C359 1.370 . S
C358 C362 1.524 . S
C359 C351 1.508 . S
C359 C358 1.370 . S
C359 C360 1.403 . S
C360 C359 1.403 . S
C360 C361 1.404 . S
C360 C363 1.539 . S
C361 C357 1.408 . S
C361 C360 1.404 . S
C361 H373 0.930 . S
C362 C358 1.524 . S
C362 H374 0.956 . S
C362 H375 0.961 . S
C362 H376 0.961 . S
C363 C360 1.539 . S
C363 H377 0.958 . S
C363 H378 0.961 . S
C363 H379 0.960 . S
H364 C348 0.931 . S
H365 C353 0.929 . S
H366 C354 0.960 . S
H367 C354 0.962 . S
H368 C354 0.960 . S
H369 C355 0.961 . S
H370 C355 0.961 . S
H371 C355 0.961 . S
H372 C356 0.931 . S
H373 C361 0.930 . S
H374 C362 0.956 . S
H375 C362 0.961 . S
H376 C362 0.961 . S
H377 C363 0.958 . S
H378 C363 0.961 . S
H379 C363 0.960 . S
C380 C381 1.391 . S
C380 C382 1.394 . S
C380 H396 0.931 . S
C381 C380 1.391 . S
C381 C385 1.376 . S
C382 C380 1.394 . S
C382 C383 1.369 . S
C382 C386 1.531 . S
C383 C382 1.369 . S
C383 C384 1.410 . S
C383 C391 1.503 . S
C384 C383 1.410 . S
C384 C385 1.392 . S
C384 C387 1.511 . S
C385 C381 1.376 . S
C385 C384 1.392 . S
C385 H397 0.929 . S
C386 C382 1.531 . S
C386 H398 0.960 . S
C386 H399 0.962 . S
C386 H400 0.960 . S
C387 C384 1.511 . S
C387 H401 0.961 . S
C387 H402 0.961 . S
C387 H403 0.961 . S
C388 C389 1.370 . S
C388 C390 1.363 . S
C388 H404 0.931 . S
C389 C388 1.370 . S
C389 C393 1.408 . S
C390 C388 1.363 . S
C390 C391 1.370 . S
C390 C394 1.524 . S
C391 C383 1.503 . S
C391 C390 1.370 . S
C391 C392 1.403 . S
C392 C391 1.403 . S
C392 C393 1.404 . S
C392 C395 1.539 . S
C393 C389 1.408 . S
C393 C392 1.404 . S
C393 H405 0.930 . S
C394 C390 1.524 . S
C394 H406 0.956 . S
C394 H407 0.961 . S
C394 H408 0.961 . S
C395 C392 1.539 . S
C395 H409 0.958 . S
C395 H410 0.961 . S
C395 H411 0.960 . S
H396 C380 0.931 . S
H397 C385 0.929 . S
H398 C386 0.960 . S
H399 C386 0.962 . S
H400 C386 0.960 . S
H401 C387 0.961 . S
H402 C387 0.961 . S
H403 C387 0.961 . S
H404 C388 0.931 . S
H405 C393 0.930 . S
H406 C394 0.956 . S
H407 C394 0.961 . S
H408 C394 0.961 . S
H409 C395 0.958 . S
H410 C395 0.961 . S
H411 C395 0.960 . S
C412 C413 1.391 . S
C412 C414 1.394 1_455 S
C412 H428 0.931 . S
C413 C412 1.391 . S
C413 C417 1.376 . S
C414 C412 1.394 1_655 S
C414 C415 1.373 . S
C414 C418 1.531 . S
C415 C414 1.373 . S
C415 C416 1.379 1_655 S
C415 C423 1.531 . S
C416 C415 1.379 1_455 S
C416 C417 1.392 . S
C416 C419 1.511 . S
C417 C413 1.376 . S
C417 C416 1.392 . S
C417 H429 0.929 . S
C418 C414 1.531 . S
C418 H430 0.960 . S
C418 H431 0.962 . S
C418 H432 0.960 . S
C419 C416 1.511 . S
C419 H433 0.961 . S
C419 H434 0.961 . S
C419 H435 0.961 . S
C420 C421 1.370 . S
C420 C422 1.363 . S
C420 H436 0.931 . S
C421 C420 1.370 . S
C421 C425 1.408 . S
C422 C420 1.363 . S
C422 C423 1.370 . S
C422 C426 1.524 . S
C423 C415 1.531 . S
C423 C422 1.370 . S
C423 C424 1.403 . S
C424 C423 1.403 . S
C424 C425 1.404 . S
C424 C427 1.539 . S
C425 C421 1.408 . S
C425 C424 1.404 . S
C425 H437 0.930 . S
C426 C422 1.524 . S
C426 H438 0.956 . S
C426 H439 0.961 . S
C426 H440 0.961 . S
C427 C424 1.539 . S
C427 H441 0.958 . S
C427 H442 0.961 . S
C427 H443 0.960 . S
H428 C412 0.931 . S
H429 C417 0.929 . S
H430 C418 0.960 . S
H431 C418 0.962 . S
H432 C418 0.960 . S
H433 C419 0.961 . S
H434 C419 0.961 . S
H435 C419 0.961 . S
H436 C420 0.931 . S
H437 C425 0.930 . S
H438 C426 0.956 . S
H439 C426 0.961 . S
H440 C426 0.961 . S
H441 C427 0.958 . S
H442 C427 0.961 . S
H443 C427 0.960 . S
C444 C445 1.391 . S
C444 C446 1.393 1_545 S
C444 H460 0.931 . S
C445 C444 1.391 . S
C445 C449 1.376 . S
C446 C444 1.393 1_565 S
C446 C447 1.369 . S
C446 C450 1.531 . S
C447 C446 1.369 . S
C447 C448 1.410 . S
C447 C455 1.503 . S
C448 C447 1.410 . S
C448 C449 1.392 1_565 S
C448 C451 1.511 . S
C449 C445 1.376 . S
C449 C448 1.392 1_545 S
C449 H461 0.929 . S
C450 C446 1.531 . S
C450 H462 0.960 . S
C450 H463 0.962 . S
C450 H464 0.960 . S
C451 C448 1.511 . S
C451 H465 0.961 . S
C451 H466 0.961 . S
C451 H467 0.961 . S
C452 C453 1.370 . S
C452 C454 1.363 . S
C452 H468 0.931 . S
C453 C452 1.370 . S
C453 C457 1.408 . S
C454 C452 1.363 . S
C454 C455 1.370 . S
C454 C458 1.524 . S
C455 C447 1.503 . S
C455 C454 1.370 . S
C455 C456 1.403 . S
C456 C455 1.403 . S
C456 C457 1.404 . S
C456 C459 1.539 . S
C457 C453 1.408 . S
C457 C456 1.404 . S
C457 H469 0.930 . S
C458 C454 1.524 . S
C458 H470 0.956 . S
C458 H471 0.961 . S
C458 H472 0.961 . S
C459 C456 1.539 . S
C459 H473 0.958 . S
C459 H474 0.961 . S
C459 H475 0.960 . S
H460 C444 0.931 . S
H461 C449 0.929 . S
H462 C450 0.960 . S
H463 C450 0.962 . S
H464 C450 0.960 . S
H465 C451 0.961 . S
H466 C451 0.961 . S
H467 C451 0.961 . S
H468 C452 0.931 . S
H469 C457 0.930 . S
H470 C458 0.956 . S
H471 C458 0.961 . S
H472 C458 0.961 . S
H473 C459 0.958 . S
H474 C459 0.961 . S
H475 C459 0.960 . S
C476 C477 1.391 . S
C476 C478 1.394 . S
C476 H492 0.931 . S
C477 C476 1.391 . S
C477 C481 1.376 . S
C478 C476 1.394 . S
C478 C479 1.369 . S
C478 C482 1.531 . S
C479 C478 1.369 . S
C479 C480 1.410 . S
C479 C487 1.503 . S
C480 C479 1.410 . S
C480 C481 1.392 . S
C480 C483 1.511 . S
C481 C477 1.376 . S
C481 C480 1.392 . S
C481 H493 0.929 . S
C482 C478 1.531 . S
C482 H494 0.960 . S
C482 H495 0.962 . S
C482 H496 0.960 . S
C483 C480 1.511 . S
C483 H497 0.961 . S
C483 H498 0.961 . S
C483 H499 0.961 . S
C484 C485 1.370 . S
C484 C486 1.363 . S
C484 H500 0.931 . S
C485 C484 1.370 . S
C485 C489 1.408 . S
C486 C484 1.363 . S
C486 C487 1.370 . S
C486 C490 1.524 . S
C487 C479 1.503 . S
C487 C486 1.370 . S
C487 C488 1.403 . S
C488 C487 1.403 . S
C488 C489 1.404 . S
C488 C491 1.539 . S
C489 C485 1.408 . S
C489 C488 1.404 . S
C489 H501 0.930 . S
C490 C486 1.524 . S
C490 H502 0.956 . S
C490 H503 0.961 . S
C490 H504 0.961 . S
C491 C488 1.539 . S
C491 H505 0.958 . S
C491 H506 0.961 . S
C491 H507 0.960 . S
H492 C476 0.931 . S
H493 C481 0.929 . S
H494 C482 0.960 . S
H495 C482 0.962 . S
H496 C482 0.960 . S
H497 C483 0.961 . S
H498 C483 0.961 . S
H499 C483 0.961 . S
H500 C484 0.931 . S
H501 C489 0.930 . S
H502 C490 0.956 . S
H503 C490 0.961 . S
H504 C490 0.961 . S
H505 C491 0.958 . S
H506 C491 0.961 . S
H507 C491 0.960 . S
C508 C509 1.391 . S
C508 C510 1.394 1_565 S
C508 H524 0.931 . S
C509 C508 1.391 . S
C509 C513 1.365 1_565 S
C510 C508 1.394 1_545 S
C510 C511 1.369 . S
C510 C514 1.531 . S
C511 C510 1.369 . S
C511 C512 1.410 . S
C511 C519 1.503 . S
C512 C511 1.410 . S
C512 C513 1.405 . S
C512 C515 1.511 . S
C513 C509 1.365 1_545 S
C513 C512 1.405 . S
C513 H525 0.927 1_545 S
C514 C510 1.531 . S
C514 H526 0.960 . S
C514 H527 0.962 . S
C514 H528 0.960 1_545 S
C515 C512 1.511 . S
C515 H529 0.961 . S
C515 H530 0.961 . S
C515 H531 0.961 . S
C516 C517 1.370 . S
C516 C518 1.363 . S
C516 H532 0.931 . S
C517 C516 1.370 . S
C517 C521 1.408 . S
C518 C516 1.363 . S
C518 C519 1.370 . S
C518 C522 1.524 . S
C519 C511 1.503 . S
C519 C518 1.370 . S
C519 C520 1.403 . S
C520 C519 1.403 . S
C520 C521 1.404 . S
C520 C523 1.539 . S
C521 C517 1.408 . S
C521 C520 1.404 . S
C521 H533 0.930 . S
C522 C518 1.524 . S
C522 H534 0.956 . S
C522 H535 0.961 . S
C522 H536 0.961 . S
C523 C520 1.539 . S
C523 H537 0.958 . S
C523 H538 0.961 . S
C523 H539 0.960 . S
H524 C508 0.931 . S
H525 C513 0.927 1_565 S
H526 C514 0.960 . S
H527 C514 0.962 . S
H528 C514 0.960 1_565 S
H529 C515 0.961 . S
H530 C515 0.961 . S
H531 C515 0.961 . S
H532 C516 0.931 . S
H533 C521 0.930 . S
H534 C522 0.956 . S
H535 C522 0.961 . S
H536 C522 0.961 . S
H537 C523 0.958 . S
H538 C523 0.961 . S
H539 C523 0.960 . S
C540 C541 1.391 . S
C540 C542 1.394 . S
C540 H556 0.931 . S
C541 C540 1.391 . S
C541 C545 1.376 . S
C542 C540 1.394 . S
C542 C543 1.369 . S
C542 C546 1.531 . S
C543 C542 1.369 . S
C543 C544 1.410 . S
C543 C551 1.503 . S
C544 C543 1.410 . S
C544 C545 1.392 . S
C544 C547 1.511 . S
C545 C541 1.376 . S
C545 C544 1.392 . S
C545 H557 0.929 . S
C546 C542 1.531 . S
C546 H558 0.960 . S
C546 H559 0.962 . S
C546 H560 0.960 . S
C547 C544 1.511 . S
C547 H561 0.961 . S
C547 H562 0.961 . S
C547 H563 0.961 . S
C548 C549 1.370 . S
C548 C550 1.363 . S
C548 H564 0.931 . S
C549 C548 1.370 . S
C549 C553 1.408 . S
C550 C548 1.363 . S
C550 C551 1.370 . S
C550 C554 1.524 . S
C551 C543 1.503 . S
C551 C550 1.370 . S
C551 C552 1.403 . S
C552 C551 1.403 . S
C552 C553 1.404 . S
C552 C555 1.539 . S
C553 C549 1.408 . S
C553 C552 1.404 . S
C553 H565 0.930 . S
C554 C550 1.524 . S
C554 H566 0.956 . S
C554 H567 0.961 . S
C554 H568 0.961 . S
C555 C552 1.539 . S
C555 H569 0.958 . S
C555 H570 0.961 . S
C555 H571 0.960 . S
H556 C540 0.931 . S
H557 C545 0.929 . S
H558 C546 0.960 . S
H559 C546 0.962 . S
H560 C546 0.960 . S
H561 C547 0.961 . S
H562 C547 0.961 . S
H563 C547 0.961 . S
H564 C548 0.931 . S
H565 C553 0.930 . S
H566 C554 0.956 . S
H567 C554 0.961 . S
H568 C554 0.961 . S
H569 C555 0.958 . S
H570 C555 0.961 . S
H571 C555 0.960 . S
C572 C573 1.391 . S
C572 C574 1.394 . S
C572 H588 0.931 . S
C573 C572 1.391 . S
C573 C577 1.376 . S
C574 C572 1.394 . S
C574 C575 1.369 . S
C574 C578 1.531 . S
C575 C574 1.369 . S
C575 C576 1.410 . S
C575 C583 1.503 . S
C576 C575 1.410 . S
C576 C577 1.392 . S
C576 C579 1.511 . S
C577 C573 1.376 . S
C577 C576 1.392 . S
C577 H589 0.929 . S
C578 C574 1.531 . S
C578 H590 0.960 . S
C578 H591 0.962 . S
C578 H592 0.960 . S
C579 C576 1.511 . S
C579 H593 0.961 . S
C579 H594 0.961 . S
C579 H595 0.961 . S
C580 C581 1.370 . S
C580 C582 1.363 . S
C580 H596 0.931 . S
C581 C580 1.370 . S
C581 C585 1.408 . S
C582 C580 1.363 . S
C582 C583 1.370 . S
C582 C586 1.524 . S
C583 C575 1.503 . S
C583 C582 1.370 . S
C583 C584 1.403 . S
C584 C583 1.403 . S
C584 C585 1.404 . S
C584 C587 1.539 . S
C585 C581 1.408 . S
C585 C584 1.404 . S
C585 H597 0.930 . S
C586 C582 1.524 . S
C586 H598 0.956 . S
C586 H599 0.961 . S
C586 H600 0.961 . S
C587 C584 1.539 . S
C587 H601 0.958 . S
C587 H602 0.961 . S
C587 H603 0.960 . S
H588 C572 0.931 . S
H589 C577 0.929 . S
H590 C578 0.960 . S
H591 C578 0.962 . S
H592 C578 0.960 . S
H593 C579 0.961 . S
H594 C579 0.961 . S
H595 C579 0.961 . S
H596 C580 0.931 . S
H597 C585 0.930 . S
H598 C586 0.956 . S
H599 C586 0.961 . S
H600 C586 0.961 . S
H601 C587 0.958 . S
H602 C587 0.961 . S
H603 C587 0.960 . S
C604 C605 1.391 . S
C604 C606 1.394 1_455 S
C604 H620 0.931 . S
C605 C604 1.391 . S
C605 C609 1.376 1_455 S
C606 C604 1.394 1_655 S
C606 C607 1.369 . S
C606 C610 1.531 . S
C607 C606 1.369 . S
C607 C608 1.410 . S
C607 C615 1.503 . S
C608 C607 1.410 . S
C608 C609 1.392 . S
C608 C611 1.511 . S
C609 C605 1.376 1_655 S
C609 C608 1.392 . S
C609 H621 0.929 . S
C610 C606 1.531 . S
C610 H622 0.960 . S
C610 H623 0.962 . S
C610 H624 0.960 1_655 S
C611 C608 1.511 . S
C611 H625 0.961 . S
C611 H626 0.961 . S
C611 H627 0.961 . S
C612 C613 1.370 . S
C612 C614 1.363 . S
C612 H628 0.931 . S
C613 C612 1.370 . S
C613 C617 1.408 . S
C614 C612 1.363 . S
C614 C615 1.370 . S
C614 C618 1.524 . S
C615 C607 1.503 . S
C615 C614 1.370 . S
C615 C616 1.403 . S
C616 C615 1.403 . S
C616 C617 1.404 . S
C616 C619 1.539 . S
C617 C613 1.408 . S
C617 C616 1.404 . S
C617 H629 0.930 . S
C618 C614 1.524 . S
C618 H630 0.956 . S
C618 H631 0.961 . S
C618 H632 0.961 . S
C619 C616 1.539 . S
C619 H633 0.958 . S
C619 H634 0.961 . S
C619 H635 0.960 . S
H620 C604 0.931 . S
H621 C609 0.929 . S
H622 C610 0.960 . S
H623 C610 0.962 . S
H624 C610 0.960 1_455 S
H625 C611 0.961 . S
H626 C611 0.961 . S
H627 C611 0.961 . S
H628 C612 0.931 . S
H629 C617 0.930 . S
H630 C618 0.956 . S
H631 C618 0.961 . S
H632 C618 0.961 . S
H633 C619 0.958 . S
H634 C619 0.961 . S
H635 C619 0.960 . S
C636 C637 1.391 . S
C636 C638 1.394 . S
C636 H652 0.931 . S
C637 C636 1.391 . S
C637 C641 1.376 . S
C638 C636 1.394 . S
C638 C639 1.369 . S
C638 C642 1.531 . S
C639 C638 1.369 . S
C639 C640 1.410 . S
C639 C647 1.503 . S
C640 C639 1.410 . S
C640 C641 1.392 . S
C640 C643 1.511 . S
C641 C637 1.376 . S
C641 C640 1.392 . S
C641 H653 0.929 . S
C642 C638 1.531 . S
C642 H654 0.960 . S
C642 H655 0.962 . S
C642 H656 0.960 . S
C643 C640 1.511 . S
C643 H657 0.961 . S
C643 H658 0.961 . S
C643 H659 0.961 . S
C644 C645 1.370 . S
C644 C646 1.363 . S
C644 H660 0.931 . S
C645 C644 1.370 . S
C645 C649 1.408 . S
C646 C644 1.363 . S
C646 C647 1.370 . S
C646 C650 1.524 . S
C647 C639 1.503 . S
C647 C646 1.370 . S
C647 C648 1.403 . S
C648 C647 1.403 . S
C648 C649 1.404 . S
C648 C651 1.539 . S
C649 C645 1.408 . S
C649 C648 1.404 . S
C649 H661 0.930 . S
C650 C646 1.524 . S
C650 H662 0.956 . S
C650 H663 0.961 . S
C650 H664 0.961 . S
C651 C648 1.539 . S
C651 H665 0.958 . S
C651 H666 0.961 . S
C651 H667 0.960 . S
H652 C636 0.931 . S
H653 C641 0.929 . S
H654 C642 0.960 . S
H655 C642 0.962 . S
H656 C642 0.960 . S
H657 C643 0.961 . S
H658 C643 0.961 . S
H659 C643 0.961 . S
H660 C644 0.931 . S
H661 C649 0.930 . S
H662 C650 0.956 . S
H663 C650 0.961 . S
H664 C650 0.961 . S
H665 C651 0.958 . S
H666 C651 0.961 . S
H667 C651 0.960 . S
C668 C669 1.391 . S
C668 C670 1.394 1_655 S
C668 H684 0.931 . S
C669 C668 1.391 . S
C669 C673 1.376 . S
C670 C668 1.394 1_455 S
C670 C671 1.369 . S
C670 C674 1.531 . S
C671 C670 1.369 . S
C671 C672 1.410 . S
C671 C679 1.503 . S
C672 C671 1.410 . S
C672 C673 1.392 1_455 S
C672 C675 1.511 . S
C673 C669 1.376 . S
C673 C672 1.392 1_655 S
C673 H685 0.929 . S
C674 C670 1.531 . S
C674 H686 0.960 . S
C674 H687 0.962 . S
C674 H688 0.960 . S
C675 C672 1.511 . S
C675 H689 0.961 . S
C675 H690 0.961 . S
C675 H691 0.961 . S
C676 C677 1.370 . S
C676 C678 1.363 . S
C676 H692 0.931 . S
C677 C676 1.370 . S
C677 C681 1.408 . S
C678 C676 1.363 . S
C678 C679 1.370 . S
C678 C682 1.524 . S
C679 C671 1.503 . S
C679 C678 1.370 . S
C679 C680 1.403 . S
C680 C679 1.403 . S
C680 C681 1.404 . S
C680 C683 1.539 . S
C681 C677 1.408 . S
C681 C680 1.404 . S
C681 H693 0.930 . S
C682 C678 1.524 . S
C682 H694 0.956 . S
C682 H695 0.961 . S
C682 H696 0.961 . S
C683 C680 1.539 . S
C683 H697 0.958 . S
C683 H698 0.961 . S
C683 H699 0.960 . S
H684 C668 0.931 . S
H685 C673 0.929 . S
H686 C674 0.960 . S
H687 C674 0.962 . S
H688 C674 0.960 . S
H689 C675 0.961 . S
H690 C675 0.961 . S
H691 C675 0.961 . S
H692 C676 0.931 . S
H693 C681 0.930 . S
H694 C682 0.956 . S
H695 C682 0.961 . S
H696 C682 0.961 . S
H697 C683 0.958 . S
H698 C683 0.961 . S
H699 C683 0.960 . S
C700 C701 1.391 . S
C700 C702 1.394 . S
C700 H716 0.931 . S
C701 C700 1.391 . S
C701 C705 1.376 . S
C702 C700 1.394 . S
C702 C703 1.369 . S
C702 C706 1.531 . S
C703 C702 1.369 . S
C703 C704 1.410 . S
C703 C711 1.503 . S
C704 C703 1.410 . S
C704 C705 1.392 . S
C704 C707 1.511 . S
C705 C701 1.376 . S
C705 C704 1.392 . S
C705 H717 0.929 . S
C706 C702 1.531 . S
C706 H718 0.960 . S
C706 H719 0.962 . S
C706 H720 0.960 . S
C707 C704 1.511 . S
C707 H721 0.961 . S
C707 H722 0.961 . S
C707 H723 0.961 . S
C708 C709 1.370 . S
C708 C710 1.363 . S
C708 H724 0.931 . S
C709 C708 1.370 . S
C709 C713 1.408 . S
C710 C708 1.363 . S
C710 C711 1.370 . S
C710 C714 1.524 . S
C711 C703 1.503 . S
C711 C710 1.370 . S
C711 C712 1.403 . S
C712 C711 1.403 . S
C712 C713 1.404 . S
C712 C715 1.539 . S
C713 C709 1.408 . S
C713 C712 1.404 . S
C713 H725 0.930 . S
C714 C710 1.524 . S
C714 H726 0.956 . S
C714 H727 0.961 . S
C714 H728 0.961 . S
C715 C712 1.539 . S
C715 H729 0.958 . S
C715 H730 0.961 . S
C715 H731 0.960 . S
H716 C700 0.931 . S
H717 C705 0.929 . S
H718 C706 0.960 . S
H719 C706 0.962 . S
H720 C706 0.960 . S
H721 C707 0.961 . S
H722 C707 0.961 . S
H723 C707 0.961 . S
H724 C708 0.931 . S
H725 C713 0.930 . S
H726 C714 0.956 . S
H727 C714 0.961 . S
H728 C714 0.961 . S
H729 C715 0.958 . S
H730 C715 0.961 . S
H731 C715 0.960 . S
C732 C733 1.391 . S
C732 C734 1.394 . S
C732 H748 0.931 . S
C733 C732 1.391 . S
C733 C737 1.376 . S
C734 C732 1.394 . S
C734 C735 1.369 . S
C734 C738 1.531 . S
C735 C734 1.369 . S
C735 C736 1.410 . S
C735 C743 1.503 . S
C736 C735 1.410 . S
C736 C737 1.392 . S
C736 C739 1.511 . S
C737 C733 1.376 . S
C737 C736 1.392 . S
C737 H749 0.929 . S
C738 C734 1.531 . S
C738 H750 0.960 . S
C738 H751 0.962 . S
C738 H752 0.960 . S
C739 C736 1.511 . S
C739 H753 0.961 . S
C739 H754 0.961 . S
C739 H755 0.961 . S
C740 C741 1.370 . S
C740 C742 1.363 . S
C740 H756 0.931 . S
C741 C740 1.370 . S
C741 C745 1.408 . S
C742 C740 1.363 . S
C742 C743 1.370 . S
C742 C746 1.524 . S
C743 C735 1.503 . S
C743 C742 1.370 . S
C743 C744 1.403 . S
C744 C743 1.403 . S
C744 C745 1.404 . S
C744 C747 1.539 . S
C745 C741 1.408 . S
C745 C744 1.404 . S
C745 H757 0.930 . S
C746 C742 1.524 . S
C746 H758 0.956 . S
C746 H759 0.961 . S
C746 H760 0.961 . S
C747 C744 1.539 . S
C747 H761 0.958 . S
C747 H762 0.961 . S
C747 H763 0.960 . S
H748 C732 0.931 . S
H749 C737 0.929 . S
H750 C738 0.960 . S
H751 C738 0.962 . S
H752 C738 0.960 . S
H753 C739 0.961 . S
H754 C739 0.961 . S
H755 C739 0.961 . S
H756 C740 0.931 . S
H757 C745 0.930 . S
H758 C746 0.956 . S
H759 C746 0.961 . S
H760 C746 0.961 . S
H761 C747 0.958 . S
H762 C747 0.961 . S
H763 C747 0.960 . S
C764 C765 1.391 . S
C764 C766 1.394 . S
C764 H780 0.931 . S
C765 C764 1.391 . S
C765 C769 1.376 . S
C766 C764 1.394 . S
C766 C767 1.369 . S
C766 C770 1.531 . S
C767 C766 1.369 . S
C767 C768 1.410 . S
C767 C775 1.503 . S
C768 C767 1.410 . S
C768 C769 1.392 . S
C768 C771 1.511 . S
C769 C765 1.376 . S
C769 C768 1.392 . S
C769 H781 0.929 . S
C770 C766 1.531 . S
C770 H782 0.960 . S
C770 H783 0.962 . S
C770 H784 0.960 . S
C771 C768 1.511 . S
C771 H785 0.961 . S
C771 H786 0.961 . S
C771 H787 0.961 . S
C772 C773 1.370 . S
C772 C774 1.363 . S
C772 H788 0.931 . S
C773 C772 1.370 . S
C773 C777 1.408 . S
C774 C772 1.363 . S
C774 C775 1.370 . S
C774 C778 1.524 . S
C775 C767 1.503 . S
C775 C774 1.370 . S
C775 C776 1.403 . S
C776 C775 1.403 . S
C776 C777 1.404 . S
C776 C779 1.539 . S
C777 C773 1.408 . S
C777 C776 1.404 . S
C777 H789 0.930 . S
C778 C774 1.524 . S
C778 H790 0.956 . S
C778 H791 0.961 . S
C778 H792 0.961 . S
C779 C776 1.539 . S
C779 H793 0.958 . S
C779 H794 0.961 . S
C779 H795 0.960 . S
H780 C764 0.931 . S
H781 C769 0.929 . S
H782 C770 0.960 . S
H783 C770 0.962 . S
H784 C770 0.960 . S
H785 C771 0.961 . S
H786 C771 0.961 . S
H787 C771 0.961 . S
H788 C772 0.931 . S
H789 C777 0.930 . S
H790 C778 0.956 . S
H791 C778 0.961 . S
H792 C778 0.961 . S
H793 C779 0.958 . S
H794 C779 0.961 . S
H795 C779 0.960 . S
C796 C797 1.391 . S
C796 C798 1.394 . S
C796 H812 0.931 . S
C797 C796 1.391 . S
C797 C801 1.376 . S
C798 C796 1.394 . S
C798 C799 1.369 . S
C798 C802 1.531 . S
C799 C798 1.369 . S
C799 C800 1.410 . S
C799 C807 1.503 . S
C800 C799 1.410 . S
C800 C801 1.392 . S
C800 C803 1.511 . S
C801 C797 1.376 . S
C801 C800 1.392 . S
C801 H813 0.929 . S
C802 C798 1.531 . S
C802 H814 0.960 . S
C802 H815 0.962 . S
C802 H816 0.960 . S
C803 C800 1.511 . S
C803 H817 0.961 . S
C803 H818 0.961 . S
C803 H819 0.961 . S
C804 C805 1.370 . S
C804 C806 1.363 . S
C804 H820 0.931 . S
C805 C804 1.370 . S
C805 C809 1.408 . S
C806 C804 1.363 . S
C806 C807 1.370 . S
C806 C810 1.524 . S
C807 C799 1.503 . S
C807 C806 1.370 . S
C807 C808 1.403 . S
C808 C807 1.403 . S
C808 C809 1.404 . S
C808 C811 1.539 . S
C809 C805 1.408 . S
C809 C808 1.404 . S
C809 H821 0.930 . S
C810 C806 1.524 . S
C810 H822 0.956 . S
C810 H823 0.961 . S
C810 H824 0.961 . S
C811 C808 1.539 . S
C811 H825 0.958 . S
C811 H826 0.961 . S
C811 H827 0.960 . S
H812 C796 0.931 . S
H813 C801 0.929 . S
H814 C802 0.960 . S
H815 C802 0.962 . S
H816 C802 0.960 . S
H817 C803 0.961 . S
H818 C803 0.961 . S
H819 C803 0.961 . S
H820 C804 0.931 . S
H821 C809 0.930 . S
H822 C810 0.956 . S
H823 C810 0.961 . S
H824 C810 0.961 . S
H825 C811 0.958 . S
H826 C811 0.961 . S
H827 C811 0.960 . S
C828 C829 1.391 . S
C828 C830 1.394 . S
C828 H844 0.931 . S
C829 C828 1.391 . S
C829 C833 1.376 . S
C830 C828 1.394 . S
C830 C831 1.369 . S
C830 C834 1.531 . S
C831 C830 1.369 . S
C831 C832 1.410 . S
C831 C839 1.503 . S
C832 C831 1.410 . S
C832 C833 1.392 . S
C832 C835 1.511 . S
C833 C829 1.376 . S
C833 C832 1.392 . S
C833 H845 0.929 . S
C834 C830 1.531 . S
C834 H846 0.960 . S
C834 H847 0.962 . S
C834 H848 0.960 . S
C835 C832 1.511 . S
C835 H849 0.961 . S
C835 H850 0.961 . S
C835 H851 0.961 . S
C836 C837 1.370 . S
C836 C838 1.363 . S
C836 H852 0.931 . S
C837 C836 1.370 . S
C837 C841 1.408 . S
C838 C836 1.363 . S
C838 C839 1.370 . S
C838 C842 1.524 . S
C839 C831 1.503 . S
C839 C838 1.370 . S
C839 C840 1.403 . S
C840 C839 1.403 . S
C840 C841 1.404 . S
C840 C843 1.539 . S
C841 C837 1.408 . S
C841 C840 1.404 . S
C841 H853 0.930 . S
C842 C838 1.524 . S
C842 H854 0.956 . S
C842 H855 0.961 . S
C842 H856 0.961 . S
C843 C840 1.539 . S
C843 H857 0.958 . S
C843 H858 0.961 . S
C843 H859 0.960 . S
H844 C828 0.931 . S
H845 C833 0.929 . S
H846 C834 0.960 . S
H847 C834 0.962 . S
H848 C834 0.960 . S
H849 C835 0.961 . S
H850 C835 0.961 . S
H851 C835 0.961 . S
H852 C836 0.931 . S
H853 C841 0.930 . S
H854 C842 0.956 . S
H855 C842 0.961 . S
H856 C842 0.961 . S
H857 C843 0.958 . S
H858 C843 0.961 . S
H859 C843 0.960 . S
C860 C861 1.391 . S
C860 C862 1.394 . S
C860 H876 0.931 . S
C861 C860 1.391 . S
C861 C865 1.376 . S
C862 C860 1.394 . S
C862 C863 1.369 . S
C862 C866 1.531 . S
C863 C862 1.369 . S
C863 C864 1.410 . S
C863 C871 1.503 . S
C864 C863 1.410 . S
C864 C865 1.392 . S
C864 C867 1.511 . S
C865 C861 1.376 . S
C865 C864 1.392 . S
C865 H877 0.929 . S
C866 C862 1.531 . S
C866 H878 0.960 . S
C866 H879 0.962 . S
C866 H880 0.960 . S
C867 C864 1.511 . S
C867 H881 0.961 . S
C867 H882 0.961 . S
C867 H883 0.961 . S
C868 C869 1.370 . S
C868 C870 1.363 . S
C868 H884 0.931 . S
C869 C868 1.370 . S
C869 C873 1.408 . S
C870 C868 1.363 . S
C870 C871 1.370 . S
C870 C874 1.524 . S
C871 C863 1.503 . S
C871 C870 1.370 . S
C871 C872 1.403 . S
C872 C871 1.403 . S
C872 C873 1.404 . S
C872 C875 1.539 . S
C873 C869 1.408 . S
C873 C872 1.404 . S
C873 H885 0.930 . S
C874 C870 1.524 . S
C874 H886 0.956 . S
C874 H887 0.961 . S
C874 H888 0.961 . S
C875 C872 1.539 . S
C875 H889 0.958 . S
C875 H890 0.961 . S
C875 H891 0.960 . S
H876 C860 0.931 . S
H877 C865 0.929 . S
H878 C866 0.960 . S
H879 C866 0.962 . S
H880 C866 0.960 . S
H881 C867 0.961 . S
H882 C867 0.961 . S
H883 C867 0.961 . S
H884 C868 0.931 . S
H885 C873 0.930 . S
H886 C874 0.956 . S
H887 C874 0.961 . S
H888 C874 0.961 . S
H889 C875 0.958 . S
H890 C875 0.961 . S
H891 C875 0.960 . S
C892 C893 1.391 . S
C892 C894 1.394 . S
C892 H908 0.931 . S
C893 C892 1.391 . S
C893 C897 1.376 . S
C894 C892 1.394 . S
C894 C895 1.369 . S
C894 C898 1.531 . S
C895 C894 1.369 . S
C895 C896 1.410 . S
C895 C903 1.503 . S
C896 C895 1.410 . S
C896 C897 1.392 . S
C896 C899 1.511 . S
C897 C893 1.376 . S
C897 C896 1.392 . S
C897 H909 0.929 . S
C898 C894 1.531 . S
C898 H910 0.960 . S
C898 H911 0.962 . S
C898 H912 0.960 . S
C899 C896 1.511 . S
C899 H913 0.961 . S
C899 H914 0.961 . S
C899 H915 0.961 . S
C900 C901 1.370 . S
C900 C902 1.363 . S
C900 H916 0.931 . S
C901 C900 1.370 . S
C901 C905 1.408 . S
C902 C900 1.363 . S
C902 C903 1.370 . S
C902 C906 1.524 . S
C903 C895 1.503 . S
C903 C902 1.370 . S
C903 C904 1.403 . S
C904 C903 1.403 . S
C904 C905 1.404 . S
C904 C907 1.539 . S
C905 C901 1.408 . S
C905 C904 1.404 . S
C905 H917 0.930 . S
C906 C902 1.524 . S
C906 H918 0.956 . S
C906 H919 0.961 . S
C906 H920 0.961 . S
C907 C904 1.539 . S
C907 H921 0.958 . S
C907 H922 0.961 . S
C907 H923 0.960 . S
H908 C892 0.931 . S
H909 C897 0.929 . S
H910 C898 0.960 . S
H911 C898 0.962 . S
H912 C898 0.960 . S
H913 C899 0.961 . S
H914 C899 0.961 . S
H915 C899 0.961 . S
H916 C900 0.931 . S
H917 C905 0.930 . S
H918 C906 0.956 . S
H919 C906 0.961 . S
H920 C906 0.961 . S
H921 C907 0.958 . S
H922 C907 0.961 . S
H923 C907 0.960 . S
C924 C925 1.391 . S
C924 C926 1.394 . S
C924 H940 0.931 . S
C925 C924 1.391 . S
C925 C929 1.376 . S
C926 C924 1.394 . S
C926 C927 1.369 . S
C926 C930 1.531 . S
C927 C926 1.369 . S
C927 C928 1.410 . S
C927 C935 1.503 . S
C928 C927 1.410 . S
C928 C929 1.392 . S
C928 C931 1.511 . S
C929 C925 1.376 . S
C929 C928 1.392 . S
C929 H941 0.929 . S
C930 C926 1.531 . S
C930 H942 0.960 . S
C930 H943 0.962 . S
C930 H944 0.960 . S
C931 C928 1.511 . S
C931 H945 0.961 . S
C931 H946 0.961 . S
C931 H947 0.961 . S
C932 C933 1.370 . S
C932 C934 1.363 . S
C932 H948 0.931 . S
C933 C932 1.370 . S
C933 C937 1.408 . S
C934 C932 1.363 . S
C934 C935 1.370 . S
C934 C938 1.524 . S
C935 C927 1.503 . S
C935 C934 1.370 . S
C935 C936 1.403 . S
C936 C935 1.403 . S
C936 C937 1.404 . S
C936 C939 1.539 . S
C937 C933 1.408 . S
C937 C936 1.404 . S
C937 H949 0.930 . S
C938 C934 1.524 . S
C938 H950 0.956 . S
C938 H951 0.961 . S
C938 H952 0.961 . S
C939 C936 1.539 . S
C939 H953 0.958 . S
C939 H954 0.961 . S
C939 H955 0.960 . S
H940 C924 0.931 . S
H941 C929 0.929 . S
H942 C930 0.960 . S
H943 C930 0.962 . S
H944 C930 0.960 . S
H945 C931 0.961 . S
H946 C931 0.961 . S
H947 C931 0.961 . S
H948 C932 0.931 . S
H949 C937 0.930 . S
H950 C938 0.956 . S
H951 C938 0.961 . S
H952 C938 0.961 . S
H953 C939 0.958 . S
H954 C939 0.961 . S
H955 C939 0.960 . S
C189 C7 0.728 . S
C197 N89 0.821 . S
C221 C25 0.810 . S
C229 N102 0.807 . S
C253 C46 0.706 . S
C261 N111 0.818 . S
C293 N128 0.810 . S
C285 C70 0.708 . S
C325 N141 0.806 . S
C317 C28 0.830 . S
C349 C49 0.845 . S
C357 N150 0.814 . S
C381 C67 0.862 . S
C389 N163 0.805 . S
C413 C4 0.741 . S
C421 N180 0.810 . S
C445 C58 1.640 . S
C453 N176 1.727 . S
C485 N137 1.721 . S
C477 C66 1.572 . S
C517 N154 1.731 . S
C509 C3 1.585 . S
C541 C37 1.621 . S
C549 N167 1.731 . S
C581 N98 1.728 . S
C573 C79 1.643 . S
C605 C16 1.611 . S
C613 N115 1.732 . S
C645 N124 1.725 . S
C637 C24 1.603 . S
C677 N85 1.727 . S
C669 C45 1.644 . S
C709 N164 1.380 . S
C701 C19 1.266 . S
C741 N177 1.377 . S
C733 C41 1.185 . S
C765 C62 1.291 . S
C773 N138 1.373 . S
C805 N151 1.381 . S
C797 C82 1.232 . S
C837 N112 1.380 . S
C829 C40 1.191 . S
C861 C61 1.193 . S
C869 N125 1.378 . S
C901 N86 1.375 . S
C893 C83 1.195 . S
C933 N99 1.375 . S
C925 C20 1.261 . S
