# Generated by pormake.
# Topology anh, (6,3)-cn, num edge types: 1
# Building blocks:
#     Node 0, Type 0, BuildingBlock: BETDIP_clean_sbu_0, # of connection points: 6
#     Node 1, Type 0, BuildingBlock: BETDIP_clean_sbu_0, # of connection points: 6
#     Node 2, Type 0, BuildingBlock: BETDIP_clean_sbu_0, # of connection points: 6
#     Node 3, Type 1, BuildingBlock: VETTIZ_charged_linker_0, # of connection points: 3
#     Node 4, Type 1, BuildingBlock: VETTIZ_charged_linker_0, # of connection points: 3
#     Node 5, Type 1, BuildingBlock: VETTIZ_charged_linker_0, # of connection points: 3
#     Node 6, Type 1, BuildingBlock: VETTIZ_charged_linker_0, # of connection points: 3
#     Node 7, Type 1, BuildingBlock: VETTIZ_charged_linker_0, # of connection points: 3
#     Node 8, Type 1, BuildingBlock: VETTIZ_charged_linker_0, # of connection points: 3
#     Edge 9, Type (0, 1), BuildingBlock: UVAHIK_clean_linker_0, # of connection points: 2
#     Edge 10, Type (0, 1), BuildingBlock: UVAHIK_clean_linker_0, # of connection points: 2
#     Edge 11, Type (0, 1), BuildingBlock: UVAHIK_clean_linker_0, # of connection points: 2
#     Edge 12, Type (0, 1), BuildingBlock: UVAHIK_clean_linker_0, # of connection points: 2
#     Edge 13, Type (0, 1), BuildingBlock: UVAHIK_clean_linker_0, # of connection points: 2
#     Edge 14, Type (0, 1), BuildingBlock: UVAHIK_clean_linker_0, # of connection points: 2
#     Edge 15, Type (0, 1), BuildingBlock: UVAHIK_clean_linker_0, # of connection points: 2
#     Edge 16, Type (0, 1), BuildingBlock: UVAHIK_clean_linker_0, # of connection points: 2
#     Edge 17, Type (0, 1), BuildingBlock: UVAHIK_clean_linker_0, # of connection points: 2
#     Edge 18, Type (0, 1), BuildingBlock: UVAHIK_clean_linker_0, # of connection points: 2
#     Edge 19, Type (0, 1), BuildingBlock: UVAHIK_clean_linker_0, # of connection points: 2
#     Edge 20, Type (0, 1), BuildingBlock: UVAHIK_clean_linker_0, # of connection points: 2
#     Edge 21, Type (0, 1), BuildingBlock: UVAHIK_clean_linker_0, # of connection points: 2
#     Edge 22, Type (0, 1), BuildingBlock: UVAHIK_clean_linker_0, # of connection points: 2
#     Edge 23, Type (0, 1), BuildingBlock: UVAHIK_clean_linker_0, # of connection points: 2
#     Edge 24, Type (0, 1), BuildingBlock: UVAHIK_clean_linker_0, # of connection points: 2
#     Edge 25, Type (0, 1), BuildingBlock: UVAHIK_clean_linker_0, # of connection points: 2
#     Edge 26, Type (0, 1), BuildingBlock: UVAHIK_clean_linker_0, # of connection points: 2
# Relax obj value: 0.211
# Max RMSD: 0.181
# Mean RMSD: 0.153
data_MOF--net-anh--node1-BETDIP_clean_sbu_0--node2-VETTIZ_charged_linker_0--edge1-UVAHIK_clean_linker_0
_symmetry_space_group_name_H-M    P1
_symmetry_Int_Tables_number       1
_symmetry_cell_setting            triclinic
loop_
_symmetry_equiv_pos_as_xyz
'x, y, z'
_cell_length_a     45.173315
_cell_length_b     45.362905
_cell_length_c     81.368104
_cell_angle_alpha  90.049002
_cell_angle_beta   90.07591
_cell_angle_gamma 119.89847
loop_
_atom_site_label
_atom_site_type_symbol
_atom_site_fract_x
_atom_site_fract_y
_atom_site_fract_z
_atom_type_partial_charge
Tb0 Tb 0.10777 0.59597 0.17433 0.0
Tb1 Tb 0.07131 0.52342 0.16463 0.0
C2 C 0.14881 0.64989 0.18857 0.0
C3 C 0.18617 0.66902 0.18709 0.0
C4 C 0.20664 0.68351 0.20103 0.0
C5 C 0.24217 0.69895 0.19983 0.0
C6 C 0.25765 0.70013 0.18467 0.0
C7 C 0.23703 0.68558 0.17075 0.0
C8 C 0.20163 0.66997 0.17197 0.0
C9 C 0.0977 0.58527 0.14275 0.0
C10 C 0.15108 0.55667 0.16679 0.0
C11 C 1.02979 0.46918 0.15063 0.0
C12 C 0.9927 0.45487 0.14884 0.0
C13 C 0.97653 0.44121 0.13377 0.0
C14 C 0.94213 0.4316 0.13152 0.0
C15 C 0.92358 0.43583 0.14428 0.0
C16 C 0.93984 0.44906 0.15942 0.0
C17 C 0.974 0.45857 0.16165 0.0
C18 C 0.08068 0.5345 0.19654 0.0
C19 C 1.02904 0.56395 0.16936 0.0
O20 O 0.13652 0.61994 0.19543 0.0
O21 O 0.13179 0.64908 0.17536 0.0
O22 O 0.10571 0.5691 0.15262 0.0
O23 O 0.09764 0.61044 0.15025 0.0
O24 O 0.1503 0.58383 0.17262 0.0
O25 O 0.12254 0.52985 0.16144 0.0
O26 O 1.04831 0.49767 0.14271 0.0
O27 O 1.04092 0.47033 0.16562 0.0
O28 O 0.07274 0.55052 0.18648 0.0
O29 O 0.08137 0.50972 0.18895 0.0
O30 O 1.03108 0.53824 0.16267 0.0
O31 O 1.05589 0.5885 0.17718 0.0
H32 H 0.19512 0.6825 0.21284 0.0
H33 H 0.25756 0.71032 0.21071 0.0
H34 H 0.24828 0.6858 0.15897 0.0
H35 H 0.18632 0.65814 0.16112 0.0
H36 H 0.99071 0.43875 0.12365 0.0
H37 H 0.93028 0.42156 0.1197 0.0
H38 H 0.92613 0.45205 0.1696 0.0
H39 H 0.98597 0.46956 0.17334 0.0
Tb40 Tb 0.61353 0.05127 0.50319 0.0
Tb41 Tb 0.57321 0.0861 0.49974 0.0
C42 C 0.63345 1.01155 0.51261 0.0
C43 C 0.61583 0.97418 0.51339 0.0
C44 C 0.58373 0.95551 0.52095 0.0
C45 C 0.56594 0.92005 0.52024 0.0
C46 C 0.57978 0.90264 0.51187 0.0
C47 C 0.612 0.92133 0.50444 0.0
C48 C 0.6299 0.95679 0.50524 0.0
C49 C 0.60813 0.06854 0.47316 0.0
C50 C 0.52984 1.00617 0.49966 0.0
C51 C 0.55369 0.12547 0.4892 0.0
C52 C 0.57374 0.15952 0.48195 0.0
C53 C 0.60292 0.16778 0.47251 0.0
C54 C 0.62508 0.20137 0.4679 0.0
C55 C 0.61836 0.22727 0.47255 0.0
C56 C 0.58817 0.21863 0.48123 0.0
C57 C 0.5661 0.18501 0.48594 0.0
C58 C 0.57808 0.06862 0.52996 0.0
C59 C 0.65685 0.13048 0.50116 0.0
O60 O 0.62279 1.02683 0.52271 0.0
O61 O 0.6386 1.02411 0.49775 0.0
O62 O 0.58516 0.05676 0.4839 0.0
O63 O 0.63525 0.06895 0.47869 0.0
O64 O 0.55953 1.00745 0.50283 0.0
O65 O 0.52903 1.03465 0.49705 0.0
O66 O 0.55217 0.10044 0.48053 0.0
O67 O 0.55981 0.12336 0.50477 0.0
O68 O 0.60165 0.08073 0.51939 0.0
O69 O 0.55107 0.06797 0.524 0.0
O70 O 0.62732 0.12852 0.49703 0.0
O71 O 0.65737 0.10283 0.50602 0.0
H72 H 0.57201 0.96824 0.52715 0.0
H73 H 0.54108 0.90627 0.526 0.0
H74 H 0.62354 0.90851 0.49815 0.0
H75 H 0.65451 0.9707 0.49925 0.0
H76 H 0.60936 0.14851 0.46923 0.0
H77 H 0.64801 0.20725 0.46113 0.0
H78 H 0.58254 0.23812 0.48517 0.0
H79 H 0.54388 0.17918 0.4933 0.0
Tb80 Tb 0.56431 0.54073 0.83881 0.0
Tb81 Tb 0.63766 0.57844 0.82997 0.0
C82 C 0.50909 0.52665 0.85212 0.0
C83 C 0.4895 0.54444 0.85031 0.0
C84 C 0.47899 0.55486 0.86428 0.0
C85 C 0.46339 0.57469 0.86263 0.0
C86 C 0.4579 0.58417 0.84697 0.0
C87 C 0.46837 0.57367 0.83301 0.0
C88 C 0.48425 0.55421 0.83466 0.0
C89 C 0.57667 0.54103 0.80742 0.0
C90 C 0.60181 0.62286 0.83136 0.0
C91 C 0.69347 0.595 0.81617 0.0
C92 C 0.71034 0.57503 0.81285 0.0
C93 C 0.72529 0.57703 0.79746 0.0
C94 C 0.73757 0.55496 0.79359 0.0
C95 C 0.73442 0.53033 0.80498 0.0
C96 C 0.72035 0.52907 0.82049 0.0
C97 C 0.70842 0.55119 0.8244 0.0
C98 C 0.62501 0.57772 0.86162 0.0
C99 C 0.5987 0.49576 0.83519 0.0
O100 O 0.5386 0.54414 0.85957 0.0
O101 O 0.51101 0.51094 0.83899 0.0
O102 O 0.59193 0.56541 0.81729 0.0
O103 O 0.55143 0.51572 0.8148 0.0
O104 O 0.57484 0.59459 0.83701 0.0
O105 O 0.62942 0.62203 0.82642 0.0
O106 O 0.6649 0.58486 0.80816 0.0
O107 O 0.69097 0.60147 0.83163 0.0
O108 O 0.60993 0.55315 0.85174 0.0
O109 O 0.64955 0.60334 0.85399 0.0
O110 O 0.62511 0.52396 0.82913 0.0
O111 O 0.57254 0.49706 0.84188 0.0
H112 H 0.48331 0.54808 0.87646 0.0
H113 H 0.45521 0.58223 0.87358 0.0
H114 H 0.46468 0.58089 0.82082 0.0
H115 H 0.49287 0.5473 0.82366 0.0
H116 H 0.72671 0.59508 0.78834 0.0
H117 H 0.74872 0.55653 0.78162 0.0
H118 H 0.71836 0.51071 0.82957 0.0
H119 H 0.69679 0.54893 0.83631 0.0
C120 C 0.60725 0.1895 0.19202 0.0
C121 C 0.62146 0.22322 0.19759 0.0
C122 C 0.62181 0.22917 0.21466 0.0
C123 C 0.59768 0.16895 0.2201 0.0
C124 C 0.59653 0.16312 0.20339 0.0
C125 C 0.58639 0.127 0.19936 0.0
H126 H 0.53717 0.96797 0.2251 0.0
C127 C 0.58693 0.13631 0.22854 0.0
C128 C 0.58065 0.11179 0.21641 0.0
H129 H 0.55814 1.00675 0.17537 0.0
H130 H 0.5725 0.06239 0.18529 0.0
H131 H 0.60455 1.03522 0.24184 0.0
H132 H 0.49789 1.00202 0.23596 0.0
H133 H 0.5101 1.02491 0.25448 0.0
H134 H 0.51289 0.98669 0.25247 0.0
H135 H 0.5708 0.99858 0.25182 0.0
H136 H 0.58877 1.04028 0.26078 0.0
C137 C 0.61676 0.12685 0.19048 0.0
C138 C 0.5529 0.11138 0.18924 0.0
C139 C 0.58003 0.12875 0.29102 0.0
C140 C 0.5685 0.10108 0.30186 0.0
C141 C 0.55591 0.0681 0.29548 0.0
C142 C 0.55553 0.0627 0.27856 0.0
C143 C 0.56767 0.09055 0.26784 0.0
C144 C 0.57887 0.1228 0.27404 0.0
C145 C 0.5889 0.14888 0.2606 0.0
C146 C 0.58243 0.12696 0.2454 0.0
C147 C 0.57066 0.09299 0.2498 0.0
C148 C 0.62721 0.17548 0.26271 0.0
C149 C 0.56473 0.16385 0.26142 0.0
C150 C 0.54579 0.98859 0.21635 0.0
C151 C 0.54666 0.98286 0.1994 0.0
C152 C 0.55702 1.01036 0.18846 0.0
C153 C 0.56544 0.04271 0.19426 0.0
C154 C 0.56376 0.04779 0.2112 0.0
C155 C 0.55449 1.02107 0.22194 0.0
C156 C 0.55402 1.03107 0.23951 0.0
C157 C 0.56501 0.06841 0.23756 0.0
C158 C 0.57036 0.0779 0.22097 0.0
C159 C 0.58072 1.02594 0.24914 0.0
C160 C 0.51696 1.01006 0.24609 0.0
H161 H 0.61156 0.20846 0.23873 0.0
H162 H 0.60607 0.1837 0.17904 0.0
H163 H 0.53482 0.11872 0.19457 0.0
H164 H 0.53907 0.08332 0.18919 0.0
H165 H 0.55802 0.12051 0.17633 0.0
H166 H 0.64155 0.14985 0.19354 0.0
H167 H 0.61369 0.12623 0.17691 0.0
H168 H 0.62023 0.10536 0.1943 0.0
H169 H 0.58946 0.1543 0.29566 0.0
H170 H 0.54704 0.04651 0.30368 0.0
H171 H 0.54603 1.03704 0.2745 0.0
H172 H 0.64182 0.16317 0.26704 0.0
H173 H 0.63087 0.19518 0.27188 0.0
H174 H 0.63956 0.18804 0.25107 0.0
H175 H 0.53819 0.14364 0.26432 0.0
H176 H 0.56272 0.17475 0.24965 0.0
H177 H 0.57301 0.18363 0.27114 0.0
H178 H 0.63302 0.2548 0.21944 0.0
C179 C 0.60977 0.2022 0.22591 0.0
C180 C 0.59951 0.61446 0.5441 0.0
C181 C 0.57499 0.61819 0.55312 0.0
C182 C 0.57012 0.60876 0.56985 0.0
C183 C 0.61488 0.59427 0.56844 0.0
C184 C 0.61873 0.60212 0.55192 0.0
C185 C 0.6448 0.59538 0.54395 0.0
H186 H 0.73745 0.51713 0.54792 0.0
C187 C 0.63896 0.58248 0.57283 0.0
C188 C 0.65629 0.58264 0.55853 0.0
H189 H 0.72162 0.56685 0.5062 0.0
H190 H 0.69506 0.58964 0.52376 0.0
H191 H 0.76054 0.58628 0.57237 0.0
H192 H 0.66812 0.48985 0.56594 0.0
H193 H 0.67658 0.49829 0.58713 0.0
H194 H 0.70661 0.49367 0.57448 0.0
H195 H 0.75607 0.54759 0.5806 0.0
H196 H 0.74167 0.57253 0.59176 0.0
C197 C 0.67412 0.62937 0.53714 0.0
C198 C 0.62599 0.56742 0.53078 0.0
C199 C 0.65107 0.55795 0.6323 0.0
C200 C 0.67026 0.5457 0.6403 0.0
C201 C 0.68988 0.53561 0.63092 0.0
C202 C 0.69127 0.53892 0.61372 0.0
C203 C 0.67248 0.55205 0.6059 0.0
C204 C 0.65238 0.56073 0.61521 0.0
C205 C 0.63283 0.57272 0.60494 0.0
C206 C 0.64624 0.57204 0.58797 0.0
C207 C 0.66936 0.55985 0.58854 0.0
C208 C 0.64308 0.60933 0.61037 0.0
C209 C 0.59414 0.54661 0.60664 0.0
C210 C 0.72893 0.53351 0.54261 0.0
C211 C 0.73044 0.53906 0.5255 0.0
C212 C 0.71958 0.56107 0.51921 0.0
C213 C 0.70399 0.57415 0.52939 0.0
C214 C 0.69924 0.56524 0.54607 0.0
C215 C 0.71346 0.54708 0.55267 0.0
C216 C 0.70805 0.54257 0.57099 0.0
C217 C 0.68567 0.55834 0.5739 0.0
C218 C 0.68013 0.57093 0.55914 0.0
C219 C 0.7433 0.56303 0.57949 0.0
C220 C 0.689 0.50411 0.57498 0.0
H221 H 0.58552 0.59101 0.59036 0.0
H222 H 0.60439 0.62173 0.53129 0.0
H223 H 0.60136 0.54673 0.53568 0.0
H224 H 0.64021 0.55478 0.52685 0.0
H225 H 0.62018 0.57802 0.51973 0.0
H226 H 0.67659 0.65154 0.54418 0.0
H227 H 0.66963 0.63301 0.52406 0.0
H228 H 0.69941 0.63124 0.53833 0.0
H229 H 0.63511 0.56504 0.63925 0.0
H230 H 0.70458 0.52578 0.63694 0.0
H231 H 0.70679 0.53109 0.60716 0.0
H232 H 0.67125 0.62497 0.61189 0.0
H233 H 0.63111 0.60916 0.62231 0.0
H234 H 0.63609 0.62291 0.60131 0.0
H235 H 0.58957 0.5214 0.61094 0.0
H236 H 0.58048 0.54117 0.59472 0.0
H237 H 0.58169 0.55548 0.61558 0.0
H238 H 0.55097 0.61054 0.57708 0.0
C239 C 0.59007 0.59711 0.57756 0.0
C240 C 0.15255 0.58312 0.86753 0.0
C241 C 0.18359 0.60466 0.87559 0.0
C242 C 0.18392 0.60652 0.89291 0.0
C243 C 0.12376 0.5646 0.8938 0.0
C244 C 0.12319 0.5632 0.87684 0.0
C245 C 0.08869 0.53747 0.87026 0.0
H246 H 0.92271 0.42417 0.88458 0.0
C247 C 0.08942 0.53968 0.8998 0.0
C248 C 0.06878 0.52351 0.8861 0.0
H249 H 0.97444 0.45906 0.83788 0.0
H250 H 1.02808 0.49105 0.8518 0.0
H251 H 0.98524 0.41619 0.90348 0.0
H252 H 0.95762 0.49438 0.90096 0.0
H253 H 0.9708 0.49371 0.92117 0.0
H254 H 0.93379 0.45666 0.91304 0.0
H255 H 0.94718 0.41181 0.91272 0.0
H256 H 0.98756 0.43241 0.9234 0.0
C257 C 0.09249 0.51001 0.86063 0.0
C258 C 0.0749 0.55675 0.85993 0.0
C259 C 0.0659 0.52937 0.96096 0.0
C260 C 1.03622 0.51076 0.97041 0.0
C261 C 1.00563 0.48746 0.96239 0.0
C262 C 1.00457 0.48339 0.94524 0.0
C263 C 1.03432 0.50302 0.93598 0.0
C264 C 1.06429 0.52543 0.94391 0.0
C265 C 0.09323 0.54502 0.9322 0.0
C266 C 0.07572 0.53081 0.91587 0.0
C267 C 1.04131 0.50606 0.91811 0.0
C268 C 0.12138 0.5358 0.93575 0.0
C269 C 0.10492 0.58334 0.93408 0.0
C270 C 0.94563 0.43841 0.87733 0.0
C271 C 0.94405 0.43906 0.86005 0.0
C272 C 0.9747 0.45759 0.85115 0.0
C273 C 1.00592 0.47673 0.85929 0.0
C274 C 1.00665 0.47774 0.87653 0.0
C275 C 0.97701 0.45813 0.88529 0.0
C276 C 0.98258 0.46335 0.90356 0.0
C277 C 1.02031 0.48968 0.90425 0.0
C278 C 1.03416 0.49808 0.88836 0.0
C279 C 0.97509 0.42921 0.91134 0.0
C280 C 0.95996 0.47754 0.91018 0.0
H281 H 0.15643 0.58893 0.91515 0.0
H282 H 0.15124 0.58112 0.85425 0.0
H283 H 0.08201 0.58172 0.86564 0.0
H284 H 1.04678 0.5433 0.85914 0.0
H285 H 0.08564 0.56174 0.84731 0.0
H286 H 0.11288 0.50609 0.86608 0.0
H287 H 0.09935 0.51751 0.84759 0.0
H288 H 0.06927 0.48467 0.86109 0.0
H289 H 0.09005 0.54698 0.96666 0.0
H290 H 0.98228 0.47296 0.9693 0.0
H291 H 0.9805 0.46556 0.93984 0.0
H292 H 0.10995 0.5087 0.93948 0.0
H293 H 0.13845 0.55165 0.94587 0.0
H294 H 0.13698 0.53828 0.92484 0.0
H295 H 0.08298 0.58704 0.93712 0.0
H296 H 0.11549 0.59792 0.92264 0.0
H297 H 0.12409 0.59521 0.94407 0.0
H298 H 0.20747 0.62221 0.89954 0.0
C299 C 0.15424 0.58673 0.90202 0.0
C300 C 1.00663 0.48106 0.47946 0.0
C301 C 0.97906 0.45267 0.47108 0.0
C302 C 0.98186 0.45091 0.45395 0.0
C303 C 1.03547 0.50463 0.45327 0.0
C304 C 1.03483 0.50699 0.47019 0.0
C305 C 0.06698 0.5398 0.47601 0.0
H306 H 0.21562 0.68728 0.45046 0.0
C307 C 0.06605 0.53517 0.44662 0.0
C308 C 0.08555 0.55663 0.45976 0.0
H309 H 0.1877 0.65998 0.50112 0.0
H310 H 0.13504 0.60834 0.49219 0.0
H311 H 0.1981 0.61522 0.4381 0.0
H312 H 0.14384 0.67039 0.43869 0.0
H313 H 0.1319 0.64758 0.42019 0.0
H314 H 0.17622 0.67865 0.42377 0.0
H315 H 0.20842 0.65063 0.42484 0.0
H316 H 0.17774 0.60773 0.41895 0.0
C317 C 0.08875 0.53006 0.4868 0.0
C318 C 1.05622 0.56249 0.48527 0.0
C319 C 0.07847 0.5455 0.38421 0.0
C320 C 0.10179 0.57122 0.3737 0.0
C321 C 0.12875 0.60092 0.38073 0.0
C322 C 0.13253 0.60487 0.39785 0.0
C323 C 0.10896 0.57898 0.40825 0.0
C324 C 0.08241 0.55009 0.40133 0.0
C325 C 1.05912 0.52583 0.41417 0.0
C326 C 0.07613 0.54479 0.43001 0.0
C327 C 0.10545 0.57565 0.42646 0.0
C328 C 1.06036 0.49234 0.41252 0.0
C329 C 1.02326 0.52205 0.41166 0.0
C330 C 0.19888 0.67031 0.45986 0.0
C331 C 0.20704 0.67816 0.47656 0.0
C332 C 0.1828 0.65508 0.48809 0.0
C333 C 0.15227 0.62493 0.48293 0.0
C334 C 0.14528 0.61744 0.466 0.0
C335 C 0.16883 0.64066 0.45499 0.0
C336 C 0.15877 0.63068 0.43752 0.0
C337 C 0.1259 0.5972 0.43943 0.0
C338 C 0.11683 0.58849 0.45615 0.0
C339 C 0.18716 0.62598 0.42927 0.0
C340 C 0.15254 0.6582 0.42948 0.0
H341 H 1.00861 0.4724 0.4322 0.0
H342 H 1.00585 0.48337 0.49266 0.0
H343 H 1.03912 0.5677 0.47747 0.0
H344 H 0.07862 0.58721 0.48862 0.0
H345 H 1.04231 0.54986 0.49672 0.0
H346 H 0.09466 0.51225 0.48009 0.0
H347 H 0.07488 0.51736 0.49825 0.0
H348 H 0.11328 0.55259 0.49024 0.0
H349 H 1.0572 0.52253 0.37923 0.0
H350 H 0.14727 0.621 0.37295 0.0
H351 H 0.15386 0.62799 0.40228 0.0
H352 H 0.08563 0.49732 0.40792 0.0
H353 H 1.04067 0.47443 0.40378 0.0
H354 H 1.05735 0.4794 0.42443 0.0
H355 H 1.02519 0.54556 0.40638 0.0
H356 H 1.00924 0.51835 0.4233 0.0
H357 H 1.00736 0.50079 0.40314 0.0
H358 H 0.96221 0.42963 0.44709 0.0
C359 C 1.0093 0.47615 0.44519 0.0
C360 C 0.59432 0.96938 0.81176 0.0
C361 C 0.59227 0.94059 0.80327 0.0
C362 C 0.59144 0.94098 0.786 0.0
C363 C 0.59393 0.99587 0.78559 0.0
C364 C 0.59484 0.99683 0.80257 0.0
C365 C 0.59576 1.0296 0.80861 0.0
H366 H 0.59877 0.17947 0.78401 0.0
C367 C 0.59484 1.02704 0.77915 0.0
C368 C 0.59594 0.04773 0.79247 0.0
H369 H 0.5985 0.15089 0.83457 0.0
H370 H 0.59696 0.0982 0.82535 0.0
H371 H 0.65365 0.16278 0.77265 0.0
H372 H 0.5443 0.10889 0.77106 0.0
H373 H 0.5573 0.10136 0.75199 0.0
H374 H 0.57025 0.14436 0.758 0.0
H375 H 0.63039 0.17163 0.75746 0.0
H376 H 0.64348 0.14042 0.75403 0.0
C377 C 0.62854 0.05109 0.81862 0.0
C378 C 0.56349 1.0199 0.81876 0.0
C379 C 0.59352 1.04008 0.71673 0.0
C380 C 0.59598 0.06632 0.70646 0.0
C381 C 0.59974 0.09606 0.71401 0.0
C382 C 0.60005 0.09924 0.73115 0.0
C383 C 0.59717 0.07273 0.7412 0.0
C384 C 0.59449 0.04403 0.73393 0.0
C385 C 0.59324 1.01916 0.74654 0.0
C386 C 0.59508 1.03747 0.7626 0.0
C387 C 0.59698 0.06859 0.75936 0.0
C388 C 0.62525 1.01531 0.744 0.0
C389 C 0.55848 0.98582 0.74458 0.0
C390 C 0.59895 0.16266 0.79338 0.0
C391 C 0.5994 0.17065 0.81011 0.0
C392 C 0.59823 0.14616 0.82151 0.0
C393 C 0.59745 0.11552 0.81618 0.0
C394 C 0.59763 0.10869 0.79921 0.0
C395 C 0.59836 0.13265 0.78836 0.0
C396 C 0.59887 0.12333 0.77083 0.0
C397 C 0.5977 0.08957 0.77249 0.0
C398 C 0.59707 0.07995 0.78914 0.0
C399 C 0.63314 0.15092 0.76321 0.0
C400 C 0.56623 0.11945 0.76238 0.0
H401 H 0.59141 0.96552 0.76421 0.0
H402 H 0.59481 0.97015 0.82505 0.0
H403 H 0.54021 1.0029 0.81152 0.0
H404 H 0.56186 0.04258 0.82228 0.0
H405 H 0.56331 1.00633 0.83016 0.0
H406 H 0.65137 0.05635 0.81126 0.0
H407 H 0.62849 1.03748 0.82998 0.0
H408 H 0.63117 0.07581 0.82221 0.0
H409 H 0.59052 1.01673 0.71159 0.0
H410 H 0.60286 0.11733 0.7067 0.0
H411 H 0.60251 0.12243 0.73585 0.0
H412 H 0.6467 1.03857 0.73845 0.0
H413 H 0.61961 0.99368 0.7357 0.0
H414 H 0.63588 1.01212 0.75568 0.0
H415 H 0.53803 0.9913 0.74078 0.0
H416 H 0.54906 0.97151 0.75619 0.0
H417 H 0.55992 0.96898 0.73508 0.0
H418 H 0.59018 0.92 0.77904 0.0
C419 C 0.59228 0.96789 0.7773 0.0
C420 C 0.67992 0.56534 0.14586 0.0
C421 C 0.70921 0.56739 0.13789 0.0
C422 C 0.71005 0.56846 0.12065 0.0
C423 C 0.65495 0.56591 0.11923 0.0
C424 C 0.653 0.56491 0.13619 0.0
C425 C 0.61986 0.56387 0.14171 0.0
H426 H 0.47221 0.564 0.11542 0.0
C427 C 0.62413 0.56532 0.11229 0.0
C428 C 0.60279 0.56426 0.1253 0.0
H429 H 0.4974 0.55961 0.16619 0.0
H430 H 0.55061 0.56158 0.15749 0.0
H431 H 0.54462 0.61862 0.10387 0.0
H432 H 0.48904 0.50963 0.10329 0.0
H433 H 0.51207 0.5212 0.08486 0.0
H434 H 0.48104 0.53443 0.08869 0.0
H435 H 0.50999 0.59435 0.08995 0.0
H436 H 0.55349 0.60682 0.08479 0.0
C437 C 0.62903 0.59568 0.15207 0.0
C438 C 0.59771 0.53082 0.15129 0.0
C439 C 0.61406 0.56689 0.04974 0.0
C440 C 0.58917 0.56652 0.03911 0.0
C441 C 0.55999 0.56518 0.04615 0.0
C442 C 0.55585 0.56467 0.06324 0.0
C443 C 0.58099 0.56527 0.07369 0.0
C444 C 0.60939 0.56621 0.06687 0.0
C445 C 0.63336 0.5666 0.07984 0.0
C446 C 0.61463 0.56562 0.09561 0.0
C447 C 0.5841 0.56497 0.09191 0.0
C448 C 0.66772 0.60048 0.07811 0.0
C449 C 0.63583 0.53389 0.07763 0.0
C450 C 0.4884 0.56287 0.12492 0.0
C451 C 0.47932 0.56101 0.14157 0.0
C452 C 0.50301 0.56101 0.15319 0.0
C453 C 0.53394 0.56199 0.14815 0.0
C454 C 0.54184 0.56312 0.13126 0.0
C455 C 0.51868 0.56352 0.12016 0.0
C456 C 0.52911 0.56406 0.10272 0.0
C457 C 0.5625 0.56428 0.10476 0.0
C458 C 0.571 0.56383 0.12151 0.0
C459 C 0.53441 0.59747 0.09477 0.0
C460 C 0.50145 0.53086 0.09431 0.0
H461 H 0.68663 0.5685 0.09838 0.0
H462 H 0.67833 0.56467 0.15913 0.0
H463 H 0.5933 0.50841 0.14385 0.0
H464 H 0.57246 0.52769 0.15432 0.0
H465 H 0.61048 0.53064 0.16294 0.0
H466 H 0.64677 0.61908 0.14519 0.0
H467 H 0.64172 0.59533 0.16373 0.0
H468 H 0.60615 0.59744 0.15516 0.0
H469 H 0.63702 0.56824 0.04489 0.0
H470 H 0.53997 0.56417 0.03841 0.0
H471 H 0.53306 0.56385 0.0676 0.0
H472 H 0.66377 0.62104 0.07302 0.0
H473 H 0.6855 0.59755 0.06975 0.0
H474 H 0.68054 0.61067 0.09005 0.0
H475 H 0.61125 0.51237 0.07311 0.0
H476 H 0.64074 0.52452 0.08927 0.0
H477 H 0.65586 0.53786 0.06857 0.0
H478 H 0.73166 0.56991 0.11414 0.0
C479 C 0.68353 0.56763 0.11143 0.0
C480 C 0.21669 0.58721 0.16738 0.0
C481 C 0.18494 0.55706 0.16541 0.0
C482 C 0.2481 0.58749 0.16566 0.0
C483 C 0.28529 0.53231 0.15063 0.0
H484 H 0.36838 0.60324 0.17046 0.0
C485 C 0.41678 0.5426 0.1354 0.0
C486 C 0.44522 0.55874 0.14611 0.0
C487 C 0.38594 0.54242 0.13844 0.0
C488 C 0.34555 0.58283 0.16492 0.0
H489 H 0.16246 0.50322 0.16045 0.0
H490 H 0.21607 0.5032 0.15819 0.0
H491 H 0.31478 0.60268 0.17466 0.0
H492 H 0.46144 0.58647 0.16909 0.0
H493 H 0.40743 0.585 0.17478 0.0
H494 H 0.31541 0.51147 0.14155 0.0
C495 C 0.21733 0.52728 0.16046 0.0
C496 C 0.31434 0.5828 0.16714 0.0
C497 C 0.18602 0.52713 0.16193 0.0
C498 C 0.44062 0.57368 0.16043 0.0
C499 C 0.40938 0.57322 0.16358 0.0
C500 C 0.31628 0.53211 0.14859 0.0
C501 C 0.24933 0.5575 0.16211 0.0
C502 C 0.2833 0.5576 0.15998 0.0
C503 C 0.38124 0.55776 0.15257 0.0
C504 C 0.34742 0.55752 0.15552 0.0
H505 H 0.21737 0.61092 0.17002 0.0
H506 H 0.27144 0.61164 0.16687 0.0
H507 H 0.26289 0.51251 0.14454 0.0
H508 H 0.41812 0.52987 0.12442 0.0
H509 H 0.36596 0.53058 0.12932 0.0
C510 C 0.69036 0.19566 0.49975 0.0
C511 C 0.69009 0.16441 0.49993 0.0
C512 C 0.72124 0.22718 0.49853 0.0
C513 C 0.81947 0.26771 0.49857 0.0
H514 H 0.81493 0.34563 0.48267 0.0
C515 C 0.94561 0.402 0.49087 0.0
C516 C 0.94616 0.42459 0.47879 0.0
C517 C 0.9148 0.37161 0.49493 0.0
C518 C 0.81737 0.32438 0.48692 0.0
H519 H 0.72337 0.14292 0.49862 0.0
H520 H 0.77633 0.19688 0.49555 0.0
H521 H 0.76319 0.29175 0.48559 0.0
H522 H 0.91345 0.43233 0.46201 0.0
H523 H 0.86136 0.38061 0.46856 0.0
H524 H 0.87404 0.30017 0.49899 0.0
C525 C 0.75293 0.19763 0.49701 0.0
C526 C 0.78687 0.29287 0.48897 0.0
C527 C 0.7221 0.16614 0.49868 0.0
C528 C 0.91447 0.4161 0.47149 0.0
C529 C 0.88403 0.3859 0.47538 0.0
C530 C 0.85012 0.29919 0.49628 0.0
C531 C 0.75346 0.22916 0.49687 0.0
C532 C 0.78689 0.26351 0.49484 0.0
C533 C 0.88322 0.36236 0.48702 0.0
C534 C 0.85001 0.32845 0.49029 0.0
H535 H 0.66657 0.19588 0.5008 0.0
H536 H 0.71956 0.25009 0.49913 0.0
H537 H 0.82166 0.24668 0.50338 0.0
H538 H 0.96926 0.40697 0.49666 0.0
H539 H 0.91607 0.35515 0.50417 0.0
C540 C 0.57204 0.65809 0.83559 0.0
C541 C 0.60037 0.65575 0.82993 0.0
C542 C 0.57077 0.68865 0.83424 0.0
C543 C 0.62616 0.78407 0.82484 0.0
H544 H 0.5386 0.7797 0.82177 0.0
C545 C 0.61688 0.90987 0.82041 0.0
C546 C 0.58998 0.90892 0.81114 0.0
C547 C 0.61774 0.87961 0.82415 0.0
C548 C 0.56353 0.78188 0.82244 0.0
H549 H 0.64962 0.6851 0.81819 0.0
H550 H 0.64724 0.73741 0.81551 0.0
H551 H 0.54101 0.72768 0.82442 0.0
H552 H 0.54261 0.87427 0.7989 0.0
H553 H 0.54389 0.82264 0.80524 0.0
H554 H 0.64865 0.83828 0.82227 0.0
C555 C 0.626 0.71592 0.82139 0.0
C556 C 0.56491 0.75148 0.82424 0.0
C557 C 0.62732 0.68541 0.82282 0.0
C558 C 0.56354 0.8764 0.80631 0.0
C559 C 0.56435 0.84636 0.81 0.0
C560 C 0.62478 0.8145 0.82296 0.0
C561 C 0.59772 0.71848 0.82707 0.0
C562 C 0.59627 0.75163 0.82541 0.0
C563 C 0.59176 0.84705 0.81875 0.0
C564 C 0.59341 0.81427 0.8216 0.0
H565 H 0.55065 0.6362 0.8412 0.0
H566 H 0.54856 0.6888 0.83909 0.0
H567 H 0.65105 0.78627 0.82594 0.0
H568 H 0.63816 0.93417 0.82411 0.0
H569 H 0.63923 0.88197 0.83111 0.0
C570 C 0.9701 0.54309 0.15663 0.0
C571 C 0.99587 0.56485 0.16773 0.0
C572 C 0.93939 0.54396 0.15474 0.0
C573 C 0.89718 0.59667 0.16428 0.0
H574 H 0.81449 0.51402 0.15213 0.0
C575 C 0.77274 0.59797 0.14393 0.0
C576 C 0.74012 0.5693 0.14642 0.0
C577 C 0.80304 0.59768 0.148 0.0
C578 C 0.83707 0.53745 0.15569 0.0
H579 H 1.00835 0.60477 0.1856 0.0
H580 H 0.95474 0.60553 0.18279 0.0
H581 H 0.86748 0.5131 0.15618 0.0
H582 H 0.7147 0.51751 0.15523 0.0
H583 H 0.76721 0.51704 0.16274 0.0
H584 H 0.8667 0.62095 0.16401 0.0
C585 C 0.95846 0.58808 0.17517 0.0
C586 C 0.86801 0.53701 0.15781 0.0
C587 C 0.98946 0.58752 0.17691 0.0
C588 C 0.73907 0.54045 0.15353 0.0
C589 C 0.76951 0.54005 0.15754 0.0
C590 C 0.86627 0.59713 0.1621 0.0
C591 C 0.93256 0.56622 0.16406 0.0
C592 C 0.89894 0.56664 0.16208 0.0
C593 C 0.80231 0.56849 0.15458 0.0
C594 C 0.83542 0.56758 0.15766 0.0
H595 H 0.97383 0.52554 0.14908 0.0
H596 H 0.92123 0.52747 0.14561 0.0
H597 H 0.91994 0.62028 0.16741 0.0
H598 H 0.77488 0.62037 0.13806 0.0
H599 H 0.82718 0.62009 0.14518 0.0
C600 C 0.46503 0.96983 0.4953 0.0
C601 C 0.49679 0.9719 0.49848 0.0
C602 C 0.43434 0.93814 0.49396 0.0
C603 C 0.40033 0.84307 0.488 0.0
H604 H 0.31366 0.83557 0.49951 0.0
C605 C 0.27044 0.72049 0.47157 0.0
C606 C 0.24078 0.71011 0.4812 0.0
C607 C 0.3011 0.75129 0.47456 0.0
C608 C 0.33749 0.83677 0.49632 0.0
H609 H 0.5199 0.94069 0.50271 0.0
H610 H 0.46705 0.88605 0.50067 0.0
H611 H 0.36646 0.88962 0.50309 0.0
H612 H 0.22189 0.72533 0.50209 0.0
H613 H 0.27528 0.77863 0.50749 0.0
H614 H 0.37155 0.79015 0.48154 0.0
C615 C 0.46565 0.90897 0.49895 0.0
C616 C 0.3682 0.86835 0.49819 0.0
C617 C 0.49635 0.9407 0.50029 0.0
C618 C 0.24375 0.73185 0.49433 0.0
C619 C 0.2746 0.76295 0.49731 0.0
C620 C 0.36967 0.81156 0.48611 0.0
C621 C 0.43377 0.90681 0.49571 0.0
C622 C 0.40048 0.87243 0.494 0.0
C623 C 0.30405 0.77359 0.4874 0.0
C624 C 0.33735 0.80755 0.49011 0.0
H625 H 0.46377 0.99288 0.49373 0.0
H626 H 0.41103 0.93841 0.49122 0.0
H627 H 0.42401 0.84439 0.4844 0.0
H628 H 0.27005 0.70473 0.46148 0.0
H629 H 0.32237 0.75789 0.46638 0.0
C630 C 0.6291 0.46138 0.83119 0.0
C631 C 0.59876 0.46212 0.83423 0.0
C632 C 0.62953 0.43047 0.82982 0.0
C633 C 0.57425 0.33342 0.83551 0.0
H634 H 0.64846 0.33417 0.81153 0.0
C635 C 0.5848 0.20823 0.8288 0.0
C636 C 0.60137 0.20445 0.81489 0.0
C637 C 0.58482 0.23915 0.83201 0.0
C638 C 0.62702 0.33277 0.81811 0.0
H639 H 0.54453 0.42927 0.83808 0.0
H640 H 0.54474 0.37576 0.83508 0.0
H641 H 0.64658 0.38605 0.81452 0.0
H642 H 0.63271 0.23275 0.79407 0.0
H643 H 0.63139 0.28438 0.79905 0.0
H644 H 0.55396 0.27955 0.83838 0.0
C645 C 0.56889 0.39918 0.83419 0.0
C646 C 0.62629 0.36341 0.82015 0.0
C647 C 0.56864 0.43027 0.83585 0.0
C648 C 0.61873 0.23344 0.80471 0.0
C649 C 0.61851 0.26398 0.80781 0.0
C650 C 0.57478 0.30258 0.83329 0.0
C651 C 0.59938 0.39836 0.83106 0.0
C652 C 0.59992 0.36476 0.82892 0.0
C653 C 0.60147 0.26784 0.82149 0.0
C654 C 0.60113 0.30132 0.82445 0.0
H655 H 0.6529 0.48494 0.83001 0.0
H656 H 0.654 0.43213 0.82797 0.0
H657 H 0.55352 0.33242 0.84258 0.0
H658 H 0.57103 0.187 0.83706 0.0
H659 H 0.57171 0.2404 0.84288 0.0
C660 C 0.5473 0.84651 0.52591 0.0
C661 C 0.56142 0.86504 0.51145 0.0
C662 C 0.53367 0.81137 0.5261 0.0
C663 C 0.5467 0.74774 0.50508 0.0
H664 H 0.4822 0.68972 0.53813 0.0
C665 C 0.54795 0.62959 0.52859 0.0
C666 C 0.55636 0.63401 0.54544 0.0
C667 C 0.53514 0.64856 0.52098 0.0
C668 C 0.49978 0.70535 0.52862 0.0
H669 H 0.5699 0.86119 0.48552 0.0
H670 H 0.54569 0.79952 0.48578 0.0
H671 H 0.48346 0.74217 0.53002 0.0
H672 H 0.55591 0.66064 0.56758 0.0
H673 H 0.53269 0.69256 0.55446 0.0
H674 H 0.56407 0.71171 0.50426 0.0
C675 C 0.54582 0.81224 0.49707 0.0
C676 C 0.50071 0.73546 0.52405 0.0
C677 C 0.55973 0.84751 0.49692 0.0
C678 C 0.5493 0.65599 0.55468 0.0
C679 C 0.53594 0.67439 0.54715 0.0
C680 C 0.54546 0.71744 0.5095 0.0
C681 C 0.53363 0.7939 0.51179 0.0
C682 C 0.52561 0.75799 0.51298 0.0
C683 C 0.52981 0.67171 0.53015 0.0
C684 C 0.52335 0.69703 0.52198 0.0
H685 H 0.54848 0.85939 0.53732 0.0
H686 H 0.52515 0.79831 0.53775 0.0
H687 H 0.56632 0.76444 0.49657 0.0
H688 H 0.55222 0.61227 0.52115 0.0
H689 H 0.53052 0.64604 0.50785 0.0
C690 C 0.78106 0.5185 0.79781 0.0
C691 C 0.74652 0.5063 0.80124 0.0
C692 C 0.7942 0.49641 0.79819 0.0
C693 C 0.81873 0.4458 0.79934 0.0
H694 H 0.78651 0.39322 0.83946 0.0
C695 C 0.90618 0.4122 0.83534 0.0
C696 C 0.91066 0.42519 0.85143 0.0
C697 C 0.87785 0.40667 0.82598 0.0
C698 C 0.79556 0.40734 0.82809 0.0
H699 H 0.69772 0.46135 0.80587 0.0
H700 H 0.72035 0.4224 0.80607 0.0
H701 H 0.75269 0.41482 0.82662 0.0
H702 H 0.88726 0.43992 0.87067 0.0
H703 H 0.83822 0.42992 0.85461 0.0
H704 H 0.86331 0.44115 0.80184 0.0
C705 C 0.73762 0.44908 0.80361 0.0
C706 C 0.77598 0.4195 0.82058 0.0
C707 C 0.72462 0.47127 0.80344 0.0
C708 C 0.88463 0.4295 0.85843 0.0
C709 C 0.85631 0.42373 0.84915 0.0
C710 C 0.83848 0.43388 0.80695 0.0
C711 C 0.77289 0.46167 0.80185 0.0
C712 C 0.78831 0.44061 0.80666 0.0
C713 C 0.85331 0.41369 0.8326 0.0
C714 C 0.82801 0.41629 0.82195 0.0
H715 H 0.79838 0.54548 0.79614 0.0
H716 H 0.82153 0.50723 0.79694 0.0
H717 H 0.82853 0.46119 0.78837 0.0
H718 H 0.92539 0.40788 0.82969 0.0
H719 H 0.87598 0.39847 0.81332 0.0
C720 C 0.31518 0.7126 0.19484 0.0
C721 C 0.29525 0.71772 0.18318 0.0
C722 C 0.3508 0.73162 0.19414 0.0
C723 C 0.42358 0.79593 0.16867 0.0
H724 H 0.45961 0.83685 0.21116 0.0
C725 C 0.51138 0.9363 0.1795 0.0
C726 C 0.53325 0.94767 0.19321 0.0
C727 C 0.49262 0.90172 0.17577 0.0
C728 C 0.45054 0.82516 0.19922 0.0
H729 H 0.29674 0.74561 0.1613 0.0
H730 H 0.35852 0.77948 0.16034 0.0
H731 H 0.40469 0.78544 0.20959 0.0
H732 H 0.55577 0.93216 0.21251 0.0
H733 H 0.52224 0.8715 0.2062 0.0
H734 H 0.46847 0.83776 0.1583 0.0
C735 C 0.34701 0.76022 0.16978 0.0
C736 C 0.41887 0.79553 0.19831 0.0
C737 C 0.31151 0.741 0.17039 0.0
C738 C 0.53843 0.92406 0.20213 0.0
C739 C 0.51946 0.8894 0.19846 0.0
C740 C 0.45519 0.82583 0.16958 0.0
C741 C 0.36712 0.75642 0.18189 0.0
C742 C 0.40417 0.78162 0.18297 0.0
C743 C 0.49519 0.8778 0.18573 0.0
C744 C 0.46807 0.84165 0.18482 0.0
H745 H 0.3032 0.69431 0.20465 0.0
H746 H 0.36552 0.72768 0.20351 0.0
H747 H 0.41338 0.78531 0.15668 0.0
H748 H 0.50655 0.95367 0.17242 0.0
H749 H 0.47387 0.8936 0.16599 0.0
C750 C 0.63446 0.28713 0.46531 0.0
C751 C 0.6443 0.26349 0.47003 0.0
C752 C 0.65792 0.32193 0.46587 0.0
C753 C 0.72717 0.37876 0.49161 0.0
H754 H 0.72886 0.44773 0.46292 0.0
C755 C 0.76273 0.50888 0.5179 0.0
C756 C 0.73806 0.51812 0.5141 0.0
C757 C 0.7651 0.48423 0.50852 0.0
C758 C 0.72886 0.42885 0.47105 0.0
H759 H 0.68694 0.25757 0.47783 0.0
H760 H 0.72777 0.31854 0.47913 0.0
H761 H 0.70569 0.38961 0.45282 0.0
H762 H 0.69767 0.50973 0.49697 0.0
H763 H 0.70149 0.46715 0.48096 0.0
H764 H 0.74719 0.41674 0.51033 0.0
C765 C 0.70198 0.31005 0.47495 0.0
C766 C 0.71575 0.39566 0.46522 0.0
C767 C 0.67864 0.27522 0.47417 0.0
C768 C 0.71742 0.50381 0.50013 0.0
C769 C 0.71969 0.47925 0.49084 0.0
C770 C 0.73978 0.41178 0.49752 0.0
C771 C 0.69153 0.33372 0.47132 0.0
C772 C 0.71333 0.37001 0.4757 0.0
C773 C 0.74269 0.46822 0.49524 0.0
C774 C 0.73908 0.43678 0.48759 0.0
H775 H 0.60827 0.27876 0.46188 0.0
H776 H 0.64907 0.33963 0.46313 0.0
H777 H 0.72546 0.35944 0.49999 0.0
H778 H 0.77934 0.5198 0.52845 0.0
H779 H 0.78347 0.47671 0.5121 0.0
C780 C 0.44899 0.63264 0.85479 0.0
C781 C 0.4399 0.60368 0.84514 0.0
C782 C 0.42977 0.64904 0.85404 0.0
C783 C 0.35659 0.64856 0.83182 0.0
H784 H 0.33231 0.66197 0.87574 0.0
C785 C 0.22213 0.60504 0.85341 0.0
C786 C 0.21621 0.62206 0.86632 0.0
C787 C 0.25484 0.61779 0.84696 0.0
C788 C 0.33932 0.65937 0.86332 0.0
H789 H 0.4047 0.56995 0.82668 0.0
H790 H 0.37049 0.59751 0.82578 0.0
H791 H 0.38241 0.65648 0.87182 0.0
H792 H 0.23925 0.66792 0.88121 0.0
H793 H 0.29676 0.68958 0.87027 0.0
H794 H 0.31135 0.64839 0.82366 0.0
C795 C 0.39291 0.60842 0.83358 0.0
C796 C 0.3682 0.65622 0.86104 0.0
C797 C 0.41234 0.59235 0.83419 0.0
C798 C 0.24315 0.65372 0.87158 0.0
C799 C 0.276 0.66629 0.86524 0.0
C800 C 0.32742 0.65133 0.83414 0.0
C801 C 0.40082 0.63645 0.84381 0.0
C802 C 0.37616 0.64896 0.84539 0.0
C803 C 0.28239 0.64765 0.85338 0.0
C804 C 0.31764 0.65506 0.85004 0.0
H805 H 0.47057 0.6422 0.86311 0.0
H806 H 0.43696 0.6709 0.86187 0.0
H807 H 0.36255 0.64397 0.81953 0.0
H808 H 0.20219 0.58049 0.84912 0.0
H809 H 0.25901 0.60262 0.83797 0.0
C810 C 0.86422 0.39442 0.13485 0.0
C811 C 0.88706 0.42559 0.14224 0.0
C812 C 0.82909 0.38217 0.13544 0.0
C813 C 0.76942 0.38754 0.16353 0.0
H814 H 0.7036 0.31864 0.13418 0.0
C815 C 0.64212 0.2837 0.18848 0.0
C816 C 0.6399 0.25195 0.1859 0.0
C817 C 0.66414 0.31186 0.17893 0.0
C818 C 0.72152 0.33827 0.14239 0.0
H819 H 0.89125 0.46977 0.15469 0.0
H820 H 0.83005 0.44875 0.15543 0.0
H821 H 0.7609 0.35836 0.12418 0.0
H822 H 0.65822 0.22502 0.17058 0.0
H823 H 0.69523 0.27323 0.15395 0.0
H824 H 0.73095 0.36608 0.18203 0.0
C825 C 0.83918 0.43341 0.1495 0.0
C826 C 0.75435 0.36087 0.13671 0.0
C827 C 0.87425 0.44548 0.14906 0.0
C828 C 0.65837 0.24861 0.17281 0.0
C829 C 0.6798 0.27647 0.16318 0.0
C830 C 0.7366 0.36506 0.16918 0.0
C831 C 0.81611 0.40097 0.14334 0.0
C832 C 0.77926 0.38435 0.14752 0.0
C833 C 0.6839 0.30865 0.16649 0.0
C834 C 0.71307 0.33886 0.15896 0.0
H835 H 0.87326 0.3784 0.1296 0.0
H836 H 0.81212 0.35685 0.13075 0.0
H837 H 0.78788 0.40519 0.17225 0.0
H838 H 0.62782 0.28711 0.19823 0.0
H839 H 0.66678 0.33642 0.18171 0.0
C840 C 0.06767 0.58674 0.11738 0.0
C841 C 0.08766 0.57563 0.12553 0.0
C842 C 1.0577 0.57726 0.10108 0.0
C843 C 1.05771 0.57212 0.06419 0.0
H844 H 1.04337 0.48628 0.04695 0.0
C845 C 1.05784 0.5494 0.99492 0.0
C846 C 1.03732 0.51654 0.98846 0.0
C847 C 1.06046 0.55498 0.01183 0.0
C848 C 1.04672 0.51015 0.05157 0.0
H849 H 0.1131 0.5461 0.12328 0.0
H850 H 0.09724 0.53083 0.09459 0.0
H851 H 1.0531 0.49795 0.07621 0.0
H852 H 1.0027 0.46386 0.99486 0.0
H853 H 1.006 0.47388 0.02442 0.0
H854 H 1.04999 0.58381 0.03972 0.0
C855 C 0.08816 0.5459 0.10081 0.0
C856 C 1.05291 0.51711 0.06836 0.0
C857 C 0.09758 0.5549 0.1172 0.0
C858 C 1.0186 0.48953 0.99938 0.0
C859 C 1.02088 0.49521 0.01637 0.0
C860 C 1.05097 0.56494 0.04748 0.0
C861 C 0.06812 0.557 0.0925 0.0
C862 C 1.05911 0.54846 0.07485 0.0
C863 C 1.04211 0.528 0.02281 0.0
C864 C 1.0461 0.53417 0.04087 0.0
H865 H 1.05933 0.60239 0.12366 0.0
H866 H 1.04166 0.5857 0.09526 0.0
H867 H 1.0627 0.5967 0.06862 0.0
H868 H 0.07208 0.57099 0.98691 0.0
H869 H 0.0775 0.58049 0.01626 0.0
C870 C 0.63179 0.09604 0.44609 0.0
C871 C 0.60352 0.07737 0.45633 0.0
C872 C 0.6271 0.10335 0.42991 0.0
C873 C 0.56479 0.06877 0.39686 0.0
H874 H 0.61834 0.15701 0.37632 0.0
C875 C 0.54148 0.08705 0.32956 0.0
C876 C 0.57049 0.1061 0.31983 0.0
C877 C 0.54417 0.08792 0.34665 0.0
C878 C 0.60338 0.13214 0.38183 0.0
H879 H 0.54834 0.05213 0.45796 0.0
H880 H 0.54012 0.06455 0.42966 0.0
H881 H 0.62642 0.15012 0.40551 0.0
H882 H 0.62476 0.14192 0.32014 0.0
H883 H 0.62992 0.14266 0.35005 0.0
H884 H 0.54272 0.05015 0.37328 0.0
C885 C 0.56586 0.0736 0.43411 0.0
C886 C 0.60796 0.12827 0.39854 0.0
C887 C 0.57057 0.06662 0.45029 0.0
C888 C 0.60201 0.12722 0.32746 0.0
C889 C 0.60486 0.12767 0.34458 0.0
C890 C 0.5605 0.07249 0.38017 0.0
C891 C 0.59404 0.0917 0.42371 0.0
C892 C 0.58872 0.09651 0.40618 0.0
C893 C 0.57611 0.10731 0.35438 0.0
C894 C 0.57974 0.10419 0.37239 0.0
H895 H 0.65746 0.10474 0.45053 0.0
H896 H 0.64924 0.11714 0.4221 0.0
H897 H 0.55003 0.04386 0.40238 0.0
H898 H 0.51684 0.07082 0.32389 0.0
H899 H 0.52131 0.07267 0.35379 0.0
C900 C 0.61034 0.56982 0.78235 0.0
C901 C 0.58851 0.53973 0.79075 0.0
C902 C 0.62253 0.56854 0.76675 0.0
C903 C 0.60436 0.51111 0.73111 0.0
H904 H 0.6957 0.57975 0.71814 0.0
C905 C 0.65765 0.51261 0.66646 0.0
C906 C 0.66938 0.54382 0.65841 0.0
C907 C 0.65181 0.51022 0.68343 0.0
C908 C 0.67019 0.56036 0.72164 0.0
H909 H 0.56219 0.48473 0.78962 0.0
H910 H 0.58388 0.48234 0.76249 0.0
H911 H 0.67677 0.57891 0.74631 0.0
H912 H 0.68602 0.59722 0.66165 0.0
H913 H 0.67648 0.59326 0.69128 0.0
H914 H 0.59785 0.49274 0.70636 0.0
C915 C 0.59122 0.50698 0.76775 0.0
C916 C 0.65922 0.56 0.73772 0.0
C917 C 0.57882 0.50831 0.7833 0.0
C918 C 0.67696 0.5729 0.66764 0.0
C919 C 0.67164 0.57064 0.68458 0.0
C920 C 0.61547 0.51128 0.71508 0.0
C921 C 0.61325 0.53709 0.75927 0.0
C922 C 0.6259 0.53581 0.74256 0.0
C923 C 0.65819 0.53914 0.69258 0.0
C924 C 0.64824 0.53631 0.7101 0.0
H925 H 0.61793 0.59437 0.78783 0.0
H926 H 0.63885 0.59224 0.76047 0.0
H927 H 0.57841 0.49238 0.73431 0.0
H928 H 0.65144 0.48984 0.65952 0.0
H929 H 0.64157 0.48567 0.68934 0.0
C930 C 0.61518 0.08003 0.55489 0.0
C931 C 0.5826 0.06395 0.54761 0.0
C932 C 0.61879 0.07812 0.57192 0.0
C933 C 0.57803 1.02856 0.60897 0.0
H934 H 0.62365 0.11447 0.63244 0.0
C935 C 0.60782 0.0447 0.67983 0.0
C936 C 0.59479 0.0632 0.68806 0.0
C937 C 0.60753 0.04295 0.66259 0.0
C938 C 0.61106 0.0903 0.62603 0.0
H939 H 0.52849 1.03203 0.55225 0.0
H940 H 0.53491 1.02773 0.58191 0.0
H941 H 0.62202 0.11412 0.60232 0.0
H942 H 0.56978 0.09304 0.68414 0.0
H943 H 0.5711 0.09137 0.65431 0.0
H944 H 0.56724 1.0048 0.63275 0.0
C945 C 0.55756 0.04218 0.5745 0.0
C946 C 0.61028 0.0901 0.60882 0.0
C947 C 0.55389 0.04475 0.55756 0.0
C948 C 0.5811 0.07945 0.67845 0.0
C949 C 0.58155 0.07831 0.66128 0.0
C950 C 0.57952 1.02876 0.6262 0.0
C951 C 0.58997 0.05937 0.58192 0.0
C952 C 0.5933 0.05926 0.60011 0.0
C953 C 0.59485 0.06018 0.65316 0.0
C954 C 0.59555 0.05966 0.6349 0.0
H955 H 0.63774 0.09503 0.54751 0.0
H956 H 0.64407 0.09153 0.57733 0.0
H957 H 0.5648 1.00444 0.60256 0.0
H958 H 0.61898 1.03215 0.68663 0.0
H959 H 0.61801 1.02883 0.6566 0.0
C960 C 0.59493 0.54617 0.88732 0.0
C961 C 0.62013 0.57592 0.87969 0.0
C962 C 0.5911 0.54471 0.90448 0.0
C963 C 0.61375 0.60041 0.94162 0.0
H964 H 0.59118 0.51749 0.96506 0.0
C965 C 0.5824 0.58602 0.01102 0.0
C966 C 0.59339 0.5677 0.02082 0.0
C967 C 0.58541 0.58657 0.99389 0.0
C968 C 0.59782 0.54099 0.95875 0.0
H969 H 0.66113 0.62737 0.88404 0.0
H970 H 0.65504 0.62472 0.9138 0.0
H971 H 0.597 0.51927 0.93523 0.0
H972 H 0.61635 0.53561 0.02 0.0
H973 H 0.62258 0.53744 0.99018 0.0
H974 H 0.61564 0.62249 0.9651 0.0
C975 C 0.63767 0.60264 0.90665 0.0
C976 C 0.60068 0.54186 0.94157 0.0
C977 C 0.64135 0.60412 0.88954 0.0
C978 C 0.60786 0.55025 0.01293 0.0
C979 C 0.61101 0.55092 0.99576 0.0
C980 C 0.61103 0.59958 0.95877 0.0
C981 C 0.61248 0.57295 0.91441 0.0
C982 C 0.60875 0.57162 0.93273 0.0
C983 C 0.59976 0.56904 0.98597 0.0
C984 C 0.60299 0.56986 0.96762 0.0
H985 H 0.57819 0.524 0.88005 0.0
H986 H 0.57112 0.52154 0.90993 0.0
H987 H 0.61954 0.62368 0.93531 0.0
H988 H 0.57159 0.60022 0.01658 0.0
H989 H 0.57604 0.60048 0.98685 0.0
C990 C 0.08613 0.51592 0.22479 0.0
C991 C 0.08272 0.53909 0.21463 0.0
C992 C 0.08739 0.51957 0.24191 0.0
C993 C 0.10847 0.58212 0.27497 0.0
H994 H 1.05275 0.50336 0.30208 0.0
C995 C 0.10148 0.59413 0.34558 0.0
C996 C 0.09819 0.5673 0.35549 0.0
C997 C 0.09867 0.59073 0.32845 0.0
C998 C 0.06894 0.52559 0.29478 0.0
H999 H 0.07804 0.58435 0.21445 0.0
H1000 H 0.08109 0.59125 0.24441 0.0
H1001 H 1.05031 0.49764 0.27226 0.0
H1002 H 0.08969 0.51592 0.35514 0.0
H1003 H 0.08583 0.51021 0.32531 0.0
H1004 H 0.12797 0.60996 0.29737 0.0
C1005 C 0.0827 0.57018 0.2391 0.0
C1006 C 0.06737 0.52228 0.27763 0.0
C1007 C 0.08091 0.56622 0.22196 0.0
C1008 C 0.09196 0.53693 0.34786 0.0
C1009 C 0.0896 0.53366 0.3307 0.0
C1010 C 0.11042 0.58536 0.29213 0.0
C1011 C 0.08573 0.54676 0.24928 0.0
C1012 C 0.08711 0.55049 0.26752 0.0
C1013 C 0.09293 0.56052 0.3207 0.0
C1014 C 0.09068 0.55714 0.30233 0.0
H1015 H 0.0876 0.49475 0.21952 0.0
H1016 H 0.09007 0.50129 0.24939 0.0
H1017 H 0.1243 0.60426 0.26753 0.0
H1018 H 0.10584 0.61771 0.3511 0.0
H1019 H 0.10065 0.61176 0.32131 0.0
loop_
_geom_bond_atom_site_label_1
_geom_bond_atom_site_label_2
_geom_bond_distance
_geom_bond_site_symmetry_2
_ccdc_geom_bond_type
Tb0 C2 2.809 . S
Tb0 O20 2.484 . S
Tb0 O21 2.440 . S
Tb0 O22 2.658 . S
Tb0 O23 2.409 . S
Tb0 O24 2.378 . S
Tb0 O28 2.325 . S
Tb0 O31 2.341 1_455 S
Tb1 C11 2.809 1_455 S
Tb1 O22 2.325 . S
Tb1 O25 2.341 . S
Tb1 O26 2.484 1_455 S
Tb1 O27 2.440 1_455 S
Tb1 O28 2.658 . S
Tb1 O29 2.409 . S
Tb1 O30 2.378 1_455 S
C2 Tb0 2.809 . S
C2 C3 1.514 . S
C2 O20 1.248 . S
C2 O21 1.266 . S
C3 C2 1.514 . S
C3 C4 1.359 . S
C3 C8 1.348 . S
C4 C3 1.359 . S
C4 C5 1.380 . S
C4 H32 0.929 . S
C5 C4 1.380 . S
C5 C6 1.347 . S
C5 H33 0.931 . S
C6 C5 1.347 . S
C6 C7 1.369 . S
C7 C6 1.369 . S
C7 C8 1.408 . S
C7 H34 0.930 . S
C8 C3 1.348 . S
C8 C7 1.408 . S
C8 H35 0.930 . S
C9 O22 1.281 . S
C9 O23 1.254 . S
C10 O24 1.236 . S
C10 O25 1.266 . S
C11 Tb1 2.809 1_655 S
C11 C12 1.514 . S
C11 O26 1.248 . S
C11 O27 1.266 . S
C12 C11 1.514 . S
C12 C13 1.359 . S
C12 C17 1.348 . S
C13 C12 1.359 . S
C13 C14 1.380 . S
C13 H36 0.929 . S
C14 C13 1.380 . S
C14 C15 1.347 . S
C14 H37 0.931 . S
C15 C14 1.347 . S
C15 C16 1.369 . S
C16 C15 1.369 . S
C16 C17 1.408 . S
C16 H38 0.930 . S
C17 C12 1.348 . S
C17 C16 1.408 . S
C17 H39 0.930 . S
C18 O28 1.281 . S
C18 O29 1.254 . S
C19 O30 1.236 . S
C19 O31 1.266 . S
O20 Tb0 2.484 . S
O20 C2 1.248 . S
O21 Tb0 2.440 . S
O21 C2 1.266 . S
O22 Tb0 2.658 . S
O22 Tb1 2.325 . S
O22 C9 1.281 . S
O23 Tb0 2.409 . S
O23 C9 1.254 . S
O24 Tb0 2.378 . S
O24 C10 1.236 . S
O25 Tb1 2.341 . S
O25 C10 1.266 . S
O26 Tb1 2.484 1_655 S
O26 C11 1.248 . S
O27 Tb1 2.440 1_655 S
O27 C11 1.266 . S
O28 Tb0 2.325 . S
O28 Tb1 2.658 . S
O28 C18 1.281 . S
O29 Tb1 2.409 . S
O29 C18 1.254 . S
O30 Tb1 2.378 1_655 S
O30 C19 1.236 . S
O31 Tb0 2.341 1_655 S
O31 C19 1.266 . S
H32 C4 0.929 . S
H33 C5 0.931 . S
H34 C7 0.930 . S
H35 C8 0.930 . S
H36 C13 0.929 . S
H37 C14 0.931 . S
H38 C16 0.930 . S
H39 C17 0.930 . S
Tb40 C42 2.809 1_545 S
Tb40 O60 2.484 1_545 S
Tb40 O61 2.440 1_545 S
Tb40 O62 2.658 . S
Tb40 O63 2.409 . S
Tb40 O64 2.378 1_545 S
Tb40 O68 2.325 . S
Tb40 O71 2.341 . S
Tb41 C51 2.809 . S
Tb41 O62 2.325 . S
Tb41 O65 2.341 1_545 S
Tb41 O66 2.484 . S
Tb41 O67 2.440 . S
Tb41 O68 2.658 . S
Tb41 O69 2.409 . S
Tb41 O70 2.378 . S
C42 Tb40 2.809 1_565 S
C42 C43 1.514 . S
C42 O60 1.248 . S
C42 O61 1.266 . S
C43 C42 1.514 . S
C43 C44 1.359 . S
C43 C48 1.348 . S
C44 C43 1.359 . S
C44 C45 1.380 . S
C44 H72 0.929 . S
C45 C44 1.380 . S
C45 C46 1.347 . S
C45 H73 0.931 . S
C46 C45 1.347 . S
C46 C47 1.369 . S
C47 C46 1.369 . S
C47 C48 1.408 . S
C47 H74 0.930 . S
C48 C43 1.348 . S
C48 C47 1.408 . S
C48 H75 0.930 . S
C49 O62 1.281 . S
C49 O63 1.254 . S
C50 O64 1.236 . S
C50 O65 1.266 . S
C51 Tb41 2.809 . S
C51 C52 1.514 . S
C51 O66 1.248 . S
C51 O67 1.266 . S
C52 C51 1.514 . S
C52 C53 1.359 . S
C52 C57 1.348 . S
C53 C52 1.359 . S
C53 C54 1.380 . S
C53 H76 0.929 . S
C54 C53 1.380 . S
C54 C55 1.347 . S
C54 H77 0.931 . S
C55 C54 1.347 . S
C55 C56 1.369 . S
C56 C55 1.369 . S
C56 C57 1.408 . S
C56 H78 0.930 . S
C57 C52 1.348 . S
C57 C56 1.408 . S
C57 H79 0.930 . S
C58 O68 1.281 . S
C58 O69 1.254 . S
C59 O70 1.236 . S
C59 O71 1.266 . S
O60 Tb40 2.484 1_565 S
O60 C42 1.248 . S
O61 Tb40 2.440 1_565 S
O61 C42 1.266 . S
O62 Tb40 2.658 . S
O62 Tb41 2.325 . S
O62 C49 1.281 . S
O63 Tb40 2.409 . S
O63 C49 1.254 . S
O64 Tb40 2.378 1_565 S
O64 C50 1.236 . S
O65 Tb41 2.341 1_565 S
O65 C50 1.266 . S
O66 Tb41 2.484 . S
O66 C51 1.248 . S
O67 Tb41 2.440 . S
O67 C51 1.266 . S
O68 Tb40 2.325 . S
O68 Tb41 2.658 . S
O68 C58 1.281 . S
O69 Tb41 2.409 . S
O69 C58 1.254 . S
O70 Tb41 2.378 . S
O70 C59 1.236 . S
O71 Tb40 2.341 . S
O71 C59 1.266 . S
H72 C44 0.929 . S
H73 C45 0.931 . S
H74 C47 0.930 . S
H75 C48 0.930 . S
H76 C53 0.929 . S
H77 C54 0.931 . S
H78 C56 0.930 . S
H79 C57 0.930 . S
Tb80 C82 2.809 . S
Tb80 O100 2.484 . S
Tb80 O101 2.440 . S
Tb80 O102 2.658 . S
Tb80 O103 2.409 . S
Tb80 O104 2.378 . S
Tb80 O108 2.325 . S
Tb80 O111 2.341 . S
Tb81 C91 2.809 . S
Tb81 O102 2.325 . S
Tb81 O105 2.341 . S
Tb81 O106 2.484 . S
Tb81 O107 2.440 . S
Tb81 O108 2.658 . S
Tb81 O109 2.409 . S
Tb81 O110 2.378 . S
C82 Tb80 2.809 . S
C82 C83 1.514 . S
C82 O100 1.248 . S
C82 O101 1.266 . S
C83 C82 1.514 . S
C83 C84 1.359 . S
C83 C88 1.348 . S
C84 C83 1.359 . S
C84 C85 1.380 . S
C84 H112 0.929 . S
C85 C84 1.380 . S
C85 C86 1.347 . S
C85 H113 0.931 . S
C86 C85 1.347 . S
C86 C87 1.369 . S
C87 C86 1.369 . S
C87 C88 1.408 . S
C87 H114 0.930 . S
C88 C83 1.348 . S
C88 C87 1.408 . S
C88 H115 0.930 . S
C89 O102 1.281 . S
C89 O103 1.254 . S
C90 O104 1.236 . S
C90 O105 1.266 . S
C91 Tb81 2.809 . S
C91 C92 1.514 . S
C91 O106 1.248 . S
C91 O107 1.266 . S
C92 C91 1.514 . S
C92 C93 1.359 . S
C92 C97 1.348 . S
C93 C92 1.359 . S
C93 C94 1.380 . S
C93 H116 0.929 . S
C94 C93 1.380 . S
C94 C95 1.347 . S
C94 H117 0.931 . S
C95 C94 1.347 . S
C95 C96 1.369 . S
C96 C95 1.369 . S
C96 C97 1.408 . S
C96 H118 0.930 . S
C97 C92 1.348 . S
C97 C96 1.408 . S
C97 H119 0.930 . S
C98 O108 1.281 . S
C98 O109 1.254 . S
C99 O110 1.236 . S
C99 O111 1.266 . S
O100 Tb80 2.484 . S
O100 C82 1.248 . S
O101 Tb80 2.440 . S
O101 C82 1.266 . S
O102 Tb80 2.658 . S
O102 Tb81 2.325 . S
O102 C89 1.281 . S
O103 Tb80 2.409 . S
O103 C89 1.254 . S
O104 Tb80 2.378 . S
O104 C90 1.236 . S
O105 Tb81 2.341 . S
O105 C90 1.266 . S
O106 Tb81 2.484 . S
O106 C91 1.248 . S
O107 Tb81 2.440 . S
O107 C91 1.266 . S
O108 Tb80 2.325 . S
O108 Tb81 2.658 . S
O108 C98 1.281 . S
O109 Tb81 2.409 . S
O109 C98 1.254 . S
O110 Tb81 2.378 . S
O110 C99 1.236 . S
O111 Tb80 2.341 . S
O111 C99 1.266 . S
H112 C84 0.929 . S
H113 C85 0.931 . S
H114 C87 0.930 . S
H115 C88 0.930 . S
H116 C93 0.929 . S
H117 C94 0.931 . S
H118 C96 0.930 . S
H119 C97 0.930 . S
C120 C121 1.391 . S
C120 C124 1.391 . S
C120 H162 0.948 . S
C121 C120 1.391 . S
C121 C122 1.391 . S
C122 C121 1.391 . S
C122 H178 0.947 . S
C122 C179 1.392 . S
C123 C124 1.391 . S
C123 C127 1.397 . S
C123 C179 1.419 . S
C124 C120 1.391 . S
C124 C123 1.391 . S
C124 C125 1.399 . S
C125 C124 1.399 . S
C125 C128 1.396 . S
C125 C137 1.453 . S
C125 C138 1.684 . S
H126 C150 0.948 . S
C127 C123 1.397 . S
C127 C128 1.394 . S
C127 C146 1.723 . S
C128 C125 1.396 . S
C128 C127 1.394 . S
C128 C158 1.723 . S
H129 C152 0.947 . S
H130 C153 0.948 . S
H131 C159 0.982 . S
H132 C160 0.979 . S
H133 C160 0.980 . S
H134 C160 0.983 . S
H135 C159 0.979 . S
H136 C159 0.977 . S
C137 C125 1.453 . S
C137 H166 0.982 . S
C137 H167 0.979 . S
C137 H168 0.977 . S
C138 C125 1.684 . S
C138 H163 0.979 . S
C138 H164 0.980 . S
C138 H165 0.983 . S
C139 C140 1.391 . S
C139 C144 1.391 . S
C139 H169 0.948 . S
C140 C139 1.391 . S
C140 C141 1.391 . S
C141 C140 1.391 . S
C141 C142 1.392 . S
C141 H170 0.947 1_545 S
C142 C141 1.392 . S
C142 C143 1.419 . S
C142 H171 0.948 1_545 S
C143 C142 1.419 . S
C143 C144 1.391 . S
C143 C147 1.397 . S
C144 C139 1.391 . S
C144 C143 1.391 . S
C144 C145 1.399 . S
C145 C144 1.399 . S
C145 C146 1.396 . S
C145 C148 1.453 . S
C145 C149 1.684 . S
C146 C127 1.723 . S
C146 C145 1.396 . S
C146 C147 1.394 . S
C147 C143 1.397 . S
C147 C146 1.394 . S
C147 C157 1.723 . S
C148 C145 1.453 . S
C148 H172 0.982 . S
C148 H173 0.979 . S
C148 H174 0.977 . S
C149 C145 1.684 . S
C149 H175 0.979 . S
C149 H176 0.980 . S
C149 H177 0.983 . S
C150 H126 0.948 . S
C150 C151 1.391 . S
C150 C155 1.391 . S
C151 C150 1.391 . S
C151 C152 1.391 . S
C152 H129 0.947 . S
C152 C151 1.391 . S
C152 C153 1.392 1_565 S
C153 H130 0.948 . S
C153 C152 1.392 1_545 S
C153 C154 1.419 . S
C154 C153 1.419 . S
C154 C155 1.391 1_545 S
C154 C158 1.397 . S
C155 C150 1.391 . S
C155 C154 1.391 1_565 S
C155 C156 1.399 . S
C156 C155 1.399 . S
C156 C157 1.396 1_565 S
C156 C159 1.453 . S
C156 C160 1.684 . S
C157 C147 1.723 . S
C157 C156 1.396 1_545 S
C157 C158 1.394 . S
C158 C128 1.723 . S
C158 C154 1.397 . S
C158 C157 1.394 . S
C159 H131 0.982 . S
C159 H135 0.979 . S
C159 H136 0.977 . S
C159 C156 1.453 . S
C160 H132 0.979 . S
C160 H133 0.980 . S
C160 H134 0.983 . S
C160 C156 1.684 . S
H161 C179 0.948 . S
H162 C120 0.948 . S
H163 C138 0.979 . S
H164 C138 0.980 . S
H165 C138 0.983 . S
H166 C137 0.982 . S
H167 C137 0.979 . S
H168 C137 0.977 . S
H169 C139 0.948 . S
H170 C141 0.947 1_565 S
H171 C142 0.948 1_565 S
H172 C148 0.982 . S
H173 C148 0.979 . S
H174 C148 0.977 . S
H175 C149 0.979 . S
H176 C149 0.980 . S
H177 C149 0.983 . S
H178 C122 0.947 . S
C179 C122 1.392 . S
C179 C123 1.419 . S
C179 H161 0.948 . S
C180 C181 1.391 . S
C180 C184 1.391 . S
C180 H222 0.948 . S
C181 C180 1.391 . S
C181 C182 1.391 . S
C182 C181 1.391 . S
C182 H238 0.947 . S
C182 C239 1.392 . S
C183 C184 1.391 . S
C183 C187 1.397 . S
C183 C239 1.419 . S
C184 C180 1.391 . S
C184 C183 1.391 . S
C184 C185 1.399 . S
C185 C184 1.399 . S
C185 C188 1.396 . S
C185 C197 1.453 . S
C185 C198 1.684 . S
H186 C210 0.948 . S
C187 C183 1.397 . S
C187 C188 1.394 . S
C187 C206 1.723 . S
C188 C185 1.396 . S
C188 C187 1.394 . S
C188 C218 1.723 . S
H189 C212 0.947 . S
H190 C213 0.948 . S
H191 C219 0.982 . S
H192 C220 0.979 . S
H193 C220 0.980 . S
H194 C220 0.983 . S
H195 C219 0.979 . S
H196 C219 0.977 . S
C197 C185 1.453 . S
C197 H226 0.982 . S
C197 H227 0.979 . S
C197 H228 0.977 . S
C198 C185 1.684 . S
C198 H223 0.979 . S
C198 H224 0.980 . S
C198 H225 0.983 . S
C199 C200 1.391 . S
C199 C204 1.391 . S
C199 H229 0.948 . S
C200 C199 1.391 . S
C200 C201 1.391 . S
C201 C200 1.391 . S
C201 C202 1.392 . S
C201 H230 0.947 . S
C202 C201 1.392 . S
C202 C203 1.419 . S
C202 H231 0.948 . S
C203 C202 1.419 . S
C203 C204 1.391 . S
C203 C207 1.397 . S
C204 C199 1.391 . S
C204 C203 1.391 . S
C204 C205 1.399 . S
C205 C204 1.399 . S
C205 C206 1.396 . S
C205 C208 1.453 . S
C205 C209 1.684 . S
C206 C187 1.723 . S
C206 C205 1.396 . S
C206 C207 1.394 . S
C207 C203 1.397 . S
C207 C206 1.394 . S
C207 C217 1.723 . S
C208 C205 1.453 . S
C208 H232 0.982 . S
C208 H233 0.979 . S
C208 H234 0.977 . S
C209 C205 1.684 . S
C209 H235 0.979 . S
C209 H236 0.980 . S
C209 H237 0.983 . S
C210 H186 0.948 . S
C210 C211 1.391 . S
C210 C215 1.391 . S
C211 C210 1.391 . S
C211 C212 1.391 . S
C212 H189 0.947 . S
C212 C211 1.391 . S
C212 C213 1.392 . S
C213 H190 0.948 . S
C213 C212 1.392 . S
C213 C214 1.419 . S
C214 C213 1.419 . S
C214 C215 1.391 . S
C214 C218 1.397 . S
C215 C210 1.391 . S
C215 C214 1.391 . S
C215 C216 1.399 . S
C216 C215 1.399 . S
C216 C217 1.396 . S
C216 C219 1.453 . S
C216 C220 1.684 . S
C217 C207 1.723 . S
C217 C216 1.396 . S
C217 C218 1.394 . S
C218 C188 1.723 . S
C218 C214 1.397 . S
C218 C217 1.394 . S
C219 H191 0.982 . S
C219 H195 0.979 . S
C219 H196 0.977 . S
C219 C216 1.453 . S
C220 H192 0.979 . S
C220 H193 0.980 . S
C220 H194 0.983 . S
C220 C216 1.684 . S
H221 C239 0.948 . S
H222 C180 0.948 . S
H223 C198 0.979 . S
H224 C198 0.980 . S
H225 C198 0.983 . S
H226 C197 0.982 . S
H227 C197 0.979 . S
H228 C197 0.977 . S
H229 C199 0.948 . S
H230 C201 0.947 . S
H231 C202 0.948 . S
H232 C208 0.982 . S
H233 C208 0.979 . S
H234 C208 0.977 . S
H235 C209 0.979 . S
H236 C209 0.980 . S
H237 C209 0.983 . S
H238 C182 0.947 . S
C239 C182 1.392 . S
C239 C183 1.419 . S
C239 H221 0.948 . S
C240 C241 1.391 . S
C240 C244 1.391 . S
C240 H282 0.948 . S
C241 C240 1.391 . S
C241 C242 1.391 . S
C242 C241 1.391 . S
C242 H298 0.947 . S
C242 C299 1.392 . S
C243 C244 1.391 . S
C243 C247 1.397 . S
C243 C299 1.419 . S
C244 C240 1.391 . S
C244 C243 1.391 . S
C244 C245 1.399 . S
C245 C244 1.399 . S
C245 C248 1.396 . S
C245 C257 1.453 . S
C245 C258 1.684 . S
H246 C270 0.948 . S
C247 C243 1.397 . S
C247 C248 1.394 . S
C247 C266 1.723 . S
C248 C245 1.396 . S
C248 C247 1.394 . S
C248 C278 1.723 1_455 S
H249 C272 0.947 . S
H250 C273 0.948 . S
H251 C279 0.982 . S
H252 C280 0.979 . S
H253 C280 0.980 . S
H254 C280 0.983 . S
H255 C279 0.979 . S
H256 C279 0.977 . S
C257 C245 1.453 . S
C257 H286 0.982 . S
C257 H287 0.979 . S
C257 H288 0.977 1_455 S
C258 C245 1.684 . S
C258 H283 0.979 . S
C258 H284 0.980 . S
C258 H285 0.983 . S
C259 C260 1.391 . S
C259 C264 1.391 . S
C259 H289 0.948 . S
C260 C259 1.391 . S
C260 C261 1.391 1_455 S
C261 C260 1.391 1_655 S
C261 C262 1.392 . S
C261 H290 0.947 . S
C262 C261 1.392 . S
C262 C263 1.418 1_655 S
C262 H291 0.948 . S
C263 C262 1.418 1_455 S
C263 C264 1.392 . S
C263 C267 1.397 . S
C264 C259 1.391 . S
C264 C263 1.392 . S
C264 C265 1.399 . S
C265 C264 1.399 . S
C265 C266 1.396 . S
C265 C268 1.453 . S
C265 C269 1.684 . S
C266 C247 1.723 . S
C266 C265 1.396 . S
C266 C267 1.394 . S
C267 C263 1.397 . S
C267 C266 1.394 . S
C267 C277 1.723 1_455 S
C268 C265 1.453 . S
C268 H292 0.982 . S
C268 H293 0.979 . S
C268 H294 0.977 . S
C269 C265 1.684 . S
C269 H295 0.979 . S
C269 H296 0.980 . S
C269 H297 0.983 . S
C270 H246 0.948 . S
C270 C271 1.391 . S
C270 C275 1.391 . S
C271 C270 1.391 . S
C271 C272 1.391 . S
C272 H249 0.947 . S
C272 C271 1.391 . S
C272 C273 1.392 . S
C273 H250 0.948 . S
C273 C272 1.392 . S
C273 C274 1.419 . S
C274 C273 1.419 . S
C274 C275 1.391 . S
C274 C278 1.397 . S
C275 C270 1.391 . S
C275 C274 1.391 . S
C275 C276 1.399 . S
C276 C275 1.399 . S
C276 C277 1.396 . S
C276 C279 1.453 . S
C276 C280 1.684 . S
C277 C267 1.723 1_655 S
C277 C276 1.396 . S
C277 C278 1.394 . S
C278 C248 1.723 1_655 S
C278 C274 1.397 . S
C278 C277 1.394 . S
C279 H251 0.982 . S
C279 H255 0.979 . S
C279 H256 0.977 . S
C279 C276 1.453 . S
C280 H252 0.979 . S
C280 H253 0.980 . S
C280 H254 0.983 . S
C280 C276 1.684 . S
H281 C299 0.948 . S
H282 C240 0.948 . S
H283 C258 0.979 . S
H284 C258 0.980 . S
H285 C258 0.983 . S
H286 C257 0.982 . S
H287 C257 0.979 . S
H288 C257 0.977 1_655 S
H289 C259 0.948 . S
H290 C261 0.947 . S
H291 C262 0.948 . S
H292 C268 0.982 . S
H293 C268 0.979 . S
H294 C268 0.977 . S
H295 C269 0.979 . S
H296 C269 0.980 . S
H297 C269 0.983 . S
H298 C242 0.947 . S
C299 C242 1.392 . S
C299 C243 1.419 . S
C299 H281 0.948 . S
C300 C301 1.391 . S
C300 C304 1.391 . S
C300 H342 0.948 . S
C301 C300 1.391 . S
C301 C302 1.391 . S
C302 C301 1.391 . S
C302 H358 0.947 . S
C302 C359 1.392 . S
C303 C304 1.391 . S
C303 C307 1.397 1_655 S
C303 C359 1.419 . S
C304 C300 1.391 . S
C304 C303 1.391 . S
C304 C305 1.399 1_655 S
C305 C304 1.399 1_455 S
C305 C308 1.396 . S
C305 C317 1.453 . S
C305 C318 1.684 . S
H306 C330 0.948 . S
C307 C303 1.397 1_455 S
C307 C308 1.394 . S
C307 C326 1.723 . S
C308 C305 1.396 . S
C308 C307 1.394 . S
C308 C338 1.723 . S
H309 C332 0.947 . S
H310 C333 0.948 . S
H311 C339 0.982 . S
H312 C340 0.979 . S
H313 C340 0.980 . S
H314 C340 0.983 . S
H315 C339 0.979 . S
H316 C339 0.977 . S
C317 C305 1.453 . S
C317 H346 0.982 . S
C317 H347 0.979 . S
C317 H348 0.977 . S
C318 C305 1.684 . S
C318 H343 0.979 . S
C318 H344 0.980 . S
C318 H345 0.983 . S
C319 C320 1.391 . S
C319 C324 1.391 . S
C319 H349 0.948 . S
C320 C319 1.391 . S
C320 C321 1.391 . S
C321 C320 1.391 . S
C321 C322 1.392 . S
C321 H350 0.947 . S
C322 C321 1.392 . S
C322 C323 1.419 . S
C322 H351 0.948 . S
C323 C322 1.419 . S
C323 C324 1.391 . S
C323 C327 1.397 . S
C324 C319 1.391 . S
C324 C323 1.391 . S
C324 C325 1.399 . S
C325 C324 1.399 . S
C325 C326 1.396 . S
C325 C328 1.453 . S
C325 C329 1.684 1_455 S
C326 C307 1.723 . S
C326 C325 1.396 . S
C326 C327 1.394 . S
C327 C323 1.397 . S
C327 C326 1.394 . S
C327 C337 1.723 . S
C328 C325 1.453 . S
C328 H352 0.982 . S
C328 H353 0.979 1_455 S
C328 H354 0.977 1_455 S
C329 C325 1.684 1_655 S
C329 H355 0.979 . S
C329 H356 0.980 . S
C329 H357 0.983 . S
C330 H306 0.948 . S
C330 C331 1.391 . S
C330 C335 1.391 . S
C331 C330 1.391 . S
C331 C332 1.391 . S
C332 H309 0.947 . S
C332 C331 1.391 . S
C332 C333 1.392 . S
C333 H310 0.948 . S
C333 C332 1.392 . S
C333 C334 1.419 . S
C334 C333 1.419 . S
C334 C335 1.391 . S
C334 C338 1.397 . S
C335 C330 1.391 . S
C335 C334 1.391 . S
C335 C336 1.399 . S
C336 C335 1.399 . S
C336 C337 1.396 . S
C336 C339 1.453 . S
C336 C340 1.684 . S
C337 C327 1.723 . S
C337 C336 1.396 . S
C337 C338 1.394 . S
C338 C308 1.723 . S
C338 C334 1.397 . S
C338 C337 1.394 . S
C339 H311 0.982 . S
C339 H315 0.979 . S
C339 H316 0.977 . S
C339 C336 1.453 . S
C340 H312 0.979 . S
C340 H313 0.980 . S
C340 H314 0.983 . S
C340 C336 1.684 . S
H341 C359 0.948 . S
H342 C300 0.948 . S
H343 C318 0.979 . S
H344 C318 0.980 . S
H345 C318 0.983 . S
H346 C317 0.982 . S
H347 C317 0.979 . S
H348 C317 0.977 . S
H349 C319 0.948 . S
H350 C321 0.947 . S
H351 C322 0.948 . S
H352 C328 0.982 . S
H353 C328 0.979 1_655 S
H354 C328 0.977 1_655 S
H355 C329 0.979 . S
H356 C329 0.980 . S
H357 C329 0.983 . S
H358 C302 0.947 . S
C359 C302 1.392 . S
C359 C303 1.419 . S
C359 H341 0.948 . S
C360 C361 1.391 . S
C360 C364 1.391 . S
C360 H402 0.948 . S
C361 C360 1.391 . S
C361 C362 1.391 . S
C362 C361 1.391 . S
C362 H418 0.947 . S
C362 C419 1.392 . S
C363 C364 1.391 . S
C363 C367 1.397 . S
C363 C419 1.419 . S
C364 C360 1.391 . S
C364 C363 1.391 . S
C364 C365 1.399 . S
C365 C364 1.399 . S
C365 C368 1.396 . S
C365 C377 1.453 . S
C365 C378 1.684 . S
H366 C390 0.948 . S
C367 C363 1.397 . S
C367 C368 1.394 . S
C367 C386 1.723 . S
C368 C365 1.396 . S
C368 C367 1.394 . S
C368 C398 1.723 1_565 S
H369 C392 0.947 . S
H370 C393 0.948 . S
H371 C399 0.982 . S
H372 C400 0.979 . S
H373 C400 0.980 . S
H374 C400 0.983 . S
H375 C399 0.979 . S
H376 C399 0.977 . S
C377 C365 1.453 . S
C377 H406 0.982 1_565 S
C377 H407 0.979 . S
C377 H408 0.977 1_565 S
C378 C365 1.684 . S
C378 H403 0.979 . S
C378 H404 0.980 . S
C378 H405 0.983 . S
C379 C380 1.391 1_565 S
C379 C384 1.391 . S
C379 H409 0.948 . S
C380 C379 1.391 1_545 S
C380 C381 1.391 . S
C381 C380 1.391 . S
C381 C382 1.392 . S
C381 H410 0.947 . S
C382 C381 1.392 . S
C382 C383 1.419 . S
C382 H411 0.948 . S
C383 C382 1.419 . S
C383 C384 1.391 1_545 S
C383 C387 1.397 . S
C384 C379 1.391 . S
C384 C383 1.391 1_565 S
C384 C385 1.399 . S
C385 C384 1.399 . S
C385 C386 1.396 . S
C385 C388 1.453 . S
C385 C389 1.684 . S
C386 C367 1.723 . S
C386 C385 1.396 . S
C386 C387 1.394 1_565 S
C387 C383 1.397 . S
C387 C386 1.394 1_545 S
C387 C397 1.723 . S
C388 C385 1.453 . S
C388 H412 0.982 . S
C388 H413 0.979 . S
C388 H414 0.977 . S
C389 C385 1.684 . S
C389 H415 0.979 . S
C389 H416 0.980 . S
C389 H417 0.983 . S
C390 H366 0.948 . S
C390 C391 1.391 . S
C390 C395 1.391 . S
C391 C390 1.391 . S
C391 C392 1.391 . S
C392 H369 0.947 . S
C392 C391 1.391 . S
C392 C393 1.392 . S
C393 H370 0.948 . S
C393 C392 1.392 . S
C393 C394 1.419 . S
C394 C393 1.419 . S
C394 C395 1.391 . S
C394 C398 1.397 . S
C395 C390 1.391 . S
C395 C394 1.391 . S
C395 C396 1.399 . S
C396 C395 1.399 . S
C396 C397 1.396 . S
C396 C399 1.453 . S
C396 C400 1.684 . S
C397 C387 1.723 . S
C397 C396 1.396 . S
C397 C398 1.394 . S
C398 C368 1.723 1_545 S
C398 C394 1.397 . S
C398 C397 1.394 . S
C399 H371 0.982 . S
C399 H375 0.979 . S
C399 H376 0.977 . S
C399 C396 1.453 . S
C400 H372 0.979 . S
C400 H373 0.980 . S
C400 H374 0.983 . S
C400 C396 1.684 . S
H401 C419 0.948 . S
H402 C360 0.948 . S
H403 C378 0.979 . S
H404 C378 0.980 . S
H405 C378 0.983 . S
H406 C377 0.982 1_545 S
H407 C377 0.979 . S
H408 C377 0.977 1_545 S
H409 C379 0.948 . S
H410 C381 0.947 . S
H411 C382 0.948 . S
H412 C388 0.982 . S
H413 C388 0.979 . S
H414 C388 0.977 . S
H415 C389 0.979 . S
H416 C389 0.980 . S
H417 C389 0.983 . S
H418 C362 0.947 . S
C419 C362 1.392 . S
C419 C363 1.419 . S
C419 H401 0.948 . S
C420 C421 1.391 . S
C420 C424 1.391 . S
C420 H462 0.948 . S
C421 C420 1.391 . S
C421 C422 1.391 . S
C422 C421 1.391 . S
C422 H478 0.947 . S
C422 C479 1.392 . S
C423 C424 1.391 . S
C423 C427 1.397 . S
C423 C479 1.419 . S
C424 C420 1.391 . S
C424 C423 1.391 . S
C424 C425 1.399 . S
C425 C424 1.399 . S
C425 C428 1.396 . S
C425 C437 1.453 . S
C425 C438 1.684 . S
H426 C450 0.948 . S
C427 C423 1.397 . S
C427 C428 1.394 . S
C427 C446 1.723 . S
C428 C425 1.396 . S
C428 C427 1.394 . S
C428 C458 1.723 . S
H429 C452 0.947 . S
H430 C453 0.948 . S
H431 C459 0.982 . S
H432 C460 0.979 . S
H433 C460 0.980 . S
H434 C460 0.983 . S
H435 C459 0.979 . S
H436 C459 0.977 . S
C437 C425 1.453 . S
C437 H466 0.982 . S
C437 H467 0.979 . S
C437 H468 0.977 . S
C438 C425 1.684 . S
C438 H463 0.979 . S
C438 H464 0.980 . S
C438 H465 0.983 . S
C439 C440 1.391 . S
C439 C444 1.391 . S
C439 H469 0.948 . S
C440 C439 1.391 . S
C440 C441 1.391 . S
C441 C440 1.391 . S
C441 C442 1.392 . S
C441 H470 0.947 . S
C442 C441 1.392 . S
C442 C443 1.419 . S
C442 H471 0.948 . S
C443 C442 1.419 . S
C443 C444 1.391 . S
C443 C447 1.397 . S
C444 C439 1.391 . S
C444 C443 1.391 . S
C444 C445 1.399 . S
C445 C444 1.399 . S
C445 C446 1.396 . S
C445 C448 1.453 . S
C445 C449 1.684 . S
C446 C427 1.723 . S
C446 C445 1.396 . S
C446 C447 1.394 . S
C447 C443 1.397 . S
C447 C446 1.394 . S
C447 C457 1.723 . S
C448 C445 1.453 . S
C448 H472 0.982 . S
C448 H473 0.979 . S
C448 H474 0.977 . S
C449 C445 1.684 . S
C449 H475 0.979 . S
C449 H476 0.980 . S
C449 H477 0.983 . S
C450 H426 0.948 . S
C450 C451 1.391 . S
C450 C455 1.391 . S
C451 C450 1.391 . S
C451 C452 1.391 . S
C452 H429 0.947 . S
C452 C451 1.391 . S
C452 C453 1.392 . S
C453 H430 0.948 . S
C453 C452 1.392 . S
C453 C454 1.419 . S
C454 C453 1.419 . S
C454 C455 1.391 . S
C454 C458 1.397 . S
C455 C450 1.391 . S
C455 C454 1.391 . S
C455 C456 1.399 . S
C456 C455 1.399 . S
C456 C457 1.396 . S
C456 C459 1.453 . S
C456 C460 1.684 . S
C457 C447 1.723 . S
C457 C456 1.396 . S
C457 C458 1.394 . S
C458 C428 1.723 . S
C458 C454 1.397 . S
C458 C457 1.394 . S
C459 H431 0.982 . S
C459 H435 0.979 . S
C459 H436 0.977 . S
C459 C456 1.453 . S
C460 H432 0.979 . S
C460 H433 0.980 . S
C460 H434 0.983 . S
C460 C456 1.684 . S
H461 C479 0.948 . S
H462 C420 0.948 . S
H463 C438 0.979 . S
H464 C438 0.980 . S
H465 C438 0.983 . S
H466 C437 0.982 . S
H467 C437 0.979 . S
H468 C437 0.977 . S
H469 C439 0.948 . S
H470 C441 0.947 . S
H471 C442 0.948 . S
H472 C448 0.982 . S
H473 C448 0.979 . S
H474 C448 0.977 . S
H475 C449 0.979 . S
H476 C449 0.980 . S
H477 C449 0.983 . S
H478 C422 0.947 . S
C479 C422 1.392 . S
C479 C423 1.419 . S
C479 H461 0.948 . S
C480 C481 1.349 . S
C480 C482 1.327 . S
C480 H505 0.950 . S
C481 C480 1.349 . S
C481 C497 1.349 . S
C482 C480 1.327 . S
C482 C501 1.429 . S
C482 H506 0.950 . S
C483 C500 1.574 . S
C483 C502 1.368 . S
C483 H507 0.949 . S
H484 C488 0.949 . S
C485 C486 1.349 . S
C485 C487 1.327 . S
C485 H508 0.950 . S
C486 C485 1.349 . S
C486 C498 1.349 . S
C487 C485 1.327 . S
C487 C503 1.429 . S
C487 H509 0.950 . S
C488 H484 0.949 . S
C488 C496 1.574 . S
C488 C504 1.368 . S
H489 C497 0.950 . S
H490 C495 0.950 . S
H491 C496 0.949 . S
H492 C498 0.950 . S
H493 C499 0.950 . S
H494 C500 0.949 . S
C495 H490 0.950 . S
C495 C497 1.327 . S
C495 C501 1.429 . S
C496 C488 1.574 . S
C496 H491 0.949 . S
C496 C502 1.368 . S
C497 C481 1.349 . S
C497 H489 0.950 . S
C497 C495 1.327 . S
C498 C486 1.349 . S
C498 H492 0.950 . S
C498 C499 1.327 . S
C499 H493 0.950 . S
C499 C498 1.327 . S
C499 C503 1.429 . S
C500 C483 1.574 . S
C500 H494 0.949 . S
C500 C504 1.368 . S
C501 C482 1.429 . S
C501 C495 1.429 . S
C501 C502 1.523 . S
C502 C483 1.368 . S
C502 C496 1.368 . S
C502 C501 1.523 . S
C503 C487 1.429 . S
C503 C499 1.429 . S
C503 C504 1.523 . S
C504 C488 1.368 . S
C504 C500 1.368 . S
C504 C503 1.523 . S
H505 C480 0.950 . S
H506 C482 0.950 . S
H507 C483 0.949 . S
H508 C485 0.950 . S
H509 C487 0.950 . S
C510 C511 1.349 . S
C510 C512 1.327 . S
C510 H535 0.950 . S
C511 C510 1.349 . S
C511 C527 1.349 . S
C512 C510 1.327 . S
C512 C531 1.429 . S
C512 H536 0.950 . S
C513 C530 1.574 . S
C513 C532 1.368 . S
C513 H537 0.949 . S
H514 C518 0.949 . S
C515 C516 1.349 . S
C515 C517 1.327 . S
C515 H538 0.950 . S
C516 C515 1.349 . S
C516 C528 1.349 . S
C517 C515 1.327 . S
C517 C533 1.429 . S
C517 H539 0.950 . S
C518 H514 0.949 . S
C518 C526 1.574 . S
C518 C534 1.368 . S
H519 C527 0.950 . S
H520 C525 0.950 . S
H521 C526 0.949 . S
H522 C528 0.950 . S
H523 C529 0.950 . S
H524 C530 0.949 . S
C525 H520 0.950 . S
C525 C527 1.327 . S
C525 C531 1.429 . S
C526 C518 1.574 . S
C526 H521 0.949 . S
C526 C532 1.368 . S
C527 C511 1.349 . S
C527 H519 0.950 . S
C527 C525 1.327 . S
C528 C516 1.349 . S
C528 H522 0.950 . S
C528 C529 1.327 . S
C529 H523 0.950 . S
C529 C528 1.327 . S
C529 C533 1.429 . S
C530 C513 1.574 . S
C530 H524 0.949 . S
C530 C534 1.368 . S
C531 C512 1.429 . S
C531 C525 1.429 . S
C531 C532 1.523 . S
C532 C513 1.368 . S
C532 C526 1.368 . S
C532 C531 1.523 . S
C533 C517 1.429 . S
C533 C529 1.429 . S
C533 C534 1.523 . S
C534 C518 1.368 . S
C534 C530 1.368 . S
C534 C533 1.523 . S
H535 C510 0.950 . S
H536 C512 0.950 . S
H537 C513 0.949 . S
H538 C515 0.950 . S
H539 C517 0.950 . S
C540 C541 1.349 . S
C540 C542 1.327 . S
C540 H565 0.950 . S
C541 C540 1.349 . S
C541 C557 1.349 . S
C542 C540 1.327 . S
C542 C561 1.429 . S
C542 H566 0.950 . S
C543 C560 1.574 . S
C543 C562 1.368 . S
C543 H567 0.949 . S
H544 C548 0.949 . S
C545 C546 1.349 . S
C545 C547 1.327 . S
C545 H568 0.950 . S
C546 C545 1.349 . S
C546 C558 1.349 . S
C547 C545 1.327 . S
C547 C563 1.429 . S
C547 H569 0.950 . S
C548 H544 0.949 . S
C548 C556 1.574 . S
C548 C564 1.368 . S
H549 C557 0.950 . S
H550 C555 0.950 . S
H551 C556 0.949 . S
H552 C558 0.950 . S
H553 C559 0.950 . S
H554 C560 0.949 . S
C555 H550 0.950 . S
C555 C557 1.327 . S
C555 C561 1.429 . S
C556 C548 1.574 . S
C556 H551 0.949 . S
C556 C562 1.368 . S
C557 C541 1.349 . S
C557 H549 0.950 . S
C557 C555 1.327 . S
C558 C546 1.349 . S
C558 H552 0.950 . S
C558 C559 1.327 . S
C559 H553 0.950 . S
C559 C558 1.327 . S
C559 C563 1.429 . S
C560 C543 1.574 . S
C560 H554 0.949 . S
C560 C564 1.368 . S
C561 C542 1.429 . S
C561 C555 1.429 . S
C561 C562 1.523 . S
C562 C543 1.368 . S
C562 C556 1.368 . S
C562 C561 1.523 . S
C563 C547 1.429 . S
C563 C559 1.429 . S
C563 C564 1.523 . S
C564 C548 1.368 . S
C564 C560 1.368 . S
C564 C563 1.523 . S
H565 C540 0.950 . S
H566 C542 0.950 . S
H567 C543 0.949 . S
H568 C545 0.950 . S
H569 C547 0.950 . S
C570 C571 1.349 . S
C570 C572 1.327 . S
C570 H595 0.950 . S
C571 C570 1.349 . S
C571 C587 1.349 . S
C572 C570 1.327 . S
C572 C591 1.429 . S
C572 H596 0.950 . S
C573 C590 1.574 . S
C573 C592 1.368 . S
C573 H597 0.949 . S
H574 C578 0.949 . S
C575 C576 1.349 . S
C575 C577 1.327 . S
C575 H598 0.950 . S
C576 C575 1.349 . S
C576 C588 1.349 . S
C577 C575 1.327 . S
C577 C593 1.429 . S
C577 H599 0.950 . S
C578 H574 0.949 . S
C578 C586 1.574 . S
C578 C594 1.368 . S
H579 C587 0.950 . S
H580 C585 0.950 . S
H581 C586 0.949 . S
H582 C588 0.950 . S
H583 C589 0.950 . S
H584 C590 0.949 . S
C585 H580 0.950 . S
C585 C587 1.327 . S
C585 C591 1.429 . S
C586 C578 1.574 . S
C586 H581 0.949 . S
C586 C592 1.368 . S
C587 C571 1.349 . S
C587 H579 0.950 . S
C587 C585 1.327 . S
C588 C576 1.349 . S
C588 H582 0.950 . S
C588 C589 1.327 . S
C589 H583 0.950 . S
C589 C588 1.327 . S
C589 C593 1.429 . S
C590 C573 1.574 . S
C590 H584 0.949 . S
C590 C594 1.368 . S
C591 C572 1.429 . S
C591 C585 1.429 . S
C591 C592 1.523 . S
C592 C573 1.368 . S
C592 C586 1.368 . S
C592 C591 1.523 . S
C593 C577 1.429 . S
C593 C589 1.429 . S
C593 C594 1.523 . S
C594 C578 1.368 . S
C594 C590 1.368 . S
C594 C593 1.523 . S
H595 C570 0.950 . S
H596 C572 0.950 . S
H597 C573 0.949 . S
H598 C575 0.950 . S
H599 C577 0.950 . S
C600 C601 1.349 . S
C600 C602 1.327 . S
C600 H625 0.950 . S
C601 C600 1.349 . S
C601 C617 1.349 . S
C602 C600 1.327 . S
C602 C621 1.429 . S
C602 H626 0.950 . S
C603 C620 1.574 . S
C603 C622 1.368 . S
C603 H627 0.949 . S
H604 C608 0.949 . S
C605 C606 1.349 . S
C605 C607 1.327 . S
C605 H628 0.950 . S
C606 C605 1.349 . S
C606 C618 1.349 . S
C607 C605 1.327 . S
C607 C623 1.429 . S
C607 H629 0.950 . S
C608 H604 0.949 . S
C608 C616 1.574 . S
C608 C624 1.368 . S
H609 C617 0.950 . S
H610 C615 0.950 . S
H611 C616 0.949 . S
H612 C618 0.950 . S
H613 C619 0.950 . S
H614 C620 0.949 . S
C615 H610 0.950 . S
C615 C617 1.327 . S
C615 C621 1.429 . S
C616 C608 1.574 . S
C616 H611 0.949 . S
C616 C622 1.368 . S
C617 C601 1.349 . S
C617 H609 0.950 . S
C617 C615 1.327 . S
C618 C606 1.349 . S
C618 H612 0.950 . S
C618 C619 1.327 . S
C619 H613 0.950 . S
C619 C618 1.327 . S
C619 C623 1.429 . S
C620 C603 1.574 . S
C620 H614 0.949 . S
C620 C624 1.368 . S
C621 C602 1.429 . S
C621 C615 1.429 . S
C621 C622 1.523 . S
C622 C603 1.368 . S
C622 C616 1.368 . S
C622 C621 1.523 . S
C623 C607 1.429 . S
C623 C619 1.429 . S
C623 C624 1.523 . S
C624 C608 1.368 . S
C624 C620 1.368 . S
C624 C623 1.523 . S
H625 C600 0.950 . S
H626 C602 0.950 . S
H627 C603 0.949 . S
H628 C605 0.950 . S
H629 C607 0.950 . S
C630 C631 1.349 . S
C630 C632 1.327 . S
C630 H655 0.950 . S
C631 C630 1.349 . S
C631 C647 1.349 . S
C632 C630 1.327 . S
C632 C651 1.429 . S
C632 H656 0.950 . S
C633 C650 1.574 . S
C633 C652 1.368 . S
C633 H657 0.949 . S
H634 C638 0.949 . S
C635 C636 1.349 . S
C635 C637 1.327 . S
C635 H658 0.950 . S
C636 C635 1.349 . S
C636 C648 1.349 . S
C637 C635 1.327 . S
C637 C653 1.429 . S
C637 H659 0.950 . S
C638 H634 0.949 . S
C638 C646 1.574 . S
C638 C654 1.368 . S
H639 C647 0.950 . S
H640 C645 0.950 . S
H641 C646 0.949 . S
H642 C648 0.950 . S
H643 C649 0.950 . S
H644 C650 0.949 . S
C645 H640 0.950 . S
C645 C647 1.327 . S
C645 C651 1.429 . S
C646 C638 1.574 . S
C646 H641 0.949 . S
C646 C652 1.368 . S
C647 C631 1.349 . S
C647 H639 0.950 . S
C647 C645 1.327 . S
C648 C636 1.349 . S
C648 H642 0.950 . S
C648 C649 1.327 . S
C649 H643 0.950 . S
C649 C648 1.327 . S
C649 C653 1.429 . S
C650 C633 1.574 . S
C650 H644 0.949 . S
C650 C654 1.368 . S
C651 C632 1.429 . S
C651 C645 1.429 . S
C651 C652 1.523 . S
C652 C633 1.368 . S
C652 C646 1.368 . S
C652 C651 1.523 . S
C653 C637 1.429 . S
C653 C649 1.429 . S
C653 C654 1.523 . S
C654 C638 1.368 . S
C654 C650 1.368 . S
C654 C653 1.523 . S
H655 C630 0.950 . S
H656 C632 0.950 . S
H657 C633 0.949 . S
H658 C635 0.950 . S
H659 C637 0.950 . S
C660 C661 1.349 . S
C660 C662 1.327 . S
C660 H685 0.950 . S
C661 C660 1.349 . S
C661 C677 1.349 . S
C662 C660 1.327 . S
C662 C681 1.429 . S
C662 H686 0.950 . S
C663 C680 1.574 . S
C663 C682 1.368 . S
C663 H687 0.949 . S
H664 C668 0.949 . S
C665 C666 1.349 . S
C665 C667 1.327 . S
C665 H688 0.950 . S
C666 C665 1.349 . S
C666 C678 1.349 . S
C667 C665 1.327 . S
C667 C683 1.429 . S
C667 H689 0.950 . S
C668 H664 0.949 . S
C668 C676 1.574 . S
C668 C684 1.368 . S
H669 C677 0.950 . S
H670 C675 0.950 . S
H671 C676 0.949 . S
H672 C678 0.950 . S
H673 C679 0.950 . S
H674 C680 0.949 . S
C675 H670 0.950 . S
C675 C677 1.327 . S
C675 C681 1.429 . S
C676 C668 1.574 . S
C676 H671 0.949 . S
C676 C682 1.368 . S
C677 C661 1.349 . S
C677 H669 0.950 . S
C677 C675 1.327 . S
C678 C666 1.349 . S
C678 H672 0.950 . S
C678 C679 1.327 . S
C679 H673 0.950 . S
C679 C678 1.327 . S
C679 C683 1.429 . S
C680 C663 1.574 . S
C680 H674 0.949 . S
C680 C684 1.368 . S
C681 C662 1.429 . S
C681 C675 1.429 . S
C681 C682 1.523 . S
C682 C663 1.368 . S
C682 C676 1.368 . S
C682 C681 1.523 . S
C683 C667 1.429 . S
C683 C679 1.429 . S
C683 C684 1.523 . S
C684 C668 1.368 . S
C684 C680 1.368 . S
C684 C683 1.523 . S
H685 C660 0.950 . S
H686 C662 0.950 . S
H687 C663 0.949 . S
H688 C665 0.950 . S
H689 C667 0.950 . S
C690 C691 1.349 . S
C690 C692 1.327 . S
C690 H715 0.950 . S
C691 C690 1.349 . S
C691 C707 1.349 . S
C692 C690 1.327 . S
C692 C711 1.429 . S
C692 H716 0.950 . S
C693 C710 1.574 . S
C693 C712 1.368 . S
C693 H717 0.949 . S
H694 C698 0.949 . S
C695 C696 1.349 . S
C695 C697 1.327 . S
C695 H718 0.950 . S
C696 C695 1.349 . S
C696 C708 1.349 . S
C697 C695 1.327 . S
C697 C713 1.429 . S
C697 H719 0.950 . S
C698 H694 0.949 . S
C698 C706 1.574 . S
C698 C714 1.368 . S
H699 C707 0.950 . S
H700 C705 0.950 . S
H701 C706 0.949 . S
H702 C708 0.950 . S
H703 C709 0.950 . S
H704 C710 0.949 . S
C705 H700 0.950 . S
C705 C707 1.327 . S
C705 C711 1.429 . S
C706 C698 1.574 . S
C706 H701 0.949 . S
C706 C712 1.368 . S
C707 C691 1.349 . S
C707 H699 0.950 . S
C707 C705 1.327 . S
C708 C696 1.349 . S
C708 H702 0.950 . S
C708 C709 1.327 . S
C709 H703 0.950 . S
C709 C708 1.327 . S
C709 C713 1.429 . S
C710 C693 1.574 . S
C710 H704 0.949 . S
C710 C714 1.368 . S
C711 C692 1.429 . S
C711 C705 1.429 . S
C711 C712 1.523 . S
C712 C693 1.368 . S
C712 C706 1.368 . S
C712 C711 1.523 . S
C713 C697 1.429 . S
C713 C709 1.429 . S
C713 C714 1.523 . S
C714 C698 1.368 . S
C714 C710 1.368 . S
C714 C713 1.523 . S
H715 C690 0.950 . S
H716 C692 0.950 . S
H717 C693 0.949 . S
H718 C695 0.950 . S
H719 C697 0.950 . S
C720 C721 1.349 . S
C720 C722 1.327 . S
C720 H745 0.950 . S
C721 C720 1.349 . S
C721 C737 1.349 . S
C722 C720 1.327 . S
C722 C741 1.429 . S
C722 H746 0.950 . S
C723 C740 1.574 . S
C723 C742 1.368 . S
C723 H747 0.949 . S
H724 C728 0.949 . S
C725 C726 1.349 . S
C725 C727 1.327 . S
C725 H748 0.950 . S
C726 C725 1.349 . S
C726 C738 1.349 . S
C727 C725 1.327 . S
C727 C743 1.429 . S
C727 H749 0.950 . S
C728 H724 0.949 . S
C728 C736 1.574 . S
C728 C744 1.368 . S
H729 C737 0.950 . S
H730 C735 0.950 . S
H731 C736 0.949 . S
H732 C738 0.950 . S
H733 C739 0.950 . S
H734 C740 0.949 . S
C735 H730 0.950 . S
C735 C737 1.327 . S
C735 C741 1.429 . S
C736 C728 1.574 . S
C736 H731 0.949 . S
C736 C742 1.368 . S
C737 C721 1.349 . S
C737 H729 0.950 . S
C737 C735 1.327 . S
C738 C726 1.349 . S
C738 H732 0.950 . S
C738 C739 1.327 . S
C739 H733 0.950 . S
C739 C738 1.327 . S
C739 C743 1.429 . S
C740 C723 1.574 . S
C740 H734 0.949 . S
C740 C744 1.368 . S
C741 C722 1.429 . S
C741 C735 1.429 . S
C741 C742 1.523 . S
C742 C723 1.368 . S
C742 C736 1.368 . S
C742 C741 1.523 . S
C743 C727 1.429 . S
C743 C739 1.429 . S
C743 C744 1.523 . S
C744 C728 1.368 . S
C744 C740 1.368 . S
C744 C743 1.523 . S
H745 C720 0.950 . S
H746 C722 0.950 . S
H747 C723 0.949 . S
H748 C725 0.950 . S
H749 C727 0.950 . S
C750 C751 1.349 . S
C750 C752 1.327 . S
C750 H775 0.950 . S
C751 C750 1.349 . S
C751 C767 1.349 . S
C752 C750 1.327 . S
C752 C771 1.429 . S
C752 H776 0.950 . S
C753 C770 1.574 . S
C753 C772 1.368 . S
C753 H777 0.949 . S
H754 C758 0.949 . S
C755 C756 1.349 . S
C755 C757 1.327 . S
C755 H778 0.950 . S
C756 C755 1.349 . S
C756 C768 1.349 . S
C757 C755 1.327 . S
C757 C773 1.429 . S
C757 H779 0.950 . S
C758 H754 0.949 . S
C758 C766 1.574 . S
C758 C774 1.368 . S
H759 C767 0.950 . S
H760 C765 0.950 . S
H761 C766 0.949 . S
H762 C768 0.950 . S
H763 C769 0.950 . S
H764 C770 0.949 . S
C765 H760 0.950 . S
C765 C767 1.327 . S
C765 C771 1.429 . S
C766 C758 1.574 . S
C766 H761 0.949 . S
C766 C772 1.368 . S
C767 C751 1.349 . S
C767 H759 0.950 . S
C767 C765 1.327 . S
C768 C756 1.349 . S
C768 H762 0.950 . S
C768 C769 1.327 . S
C769 H763 0.950 . S
C769 C768 1.327 . S
C769 C773 1.429 . S
C770 C753 1.574 . S
C770 H764 0.949 . S
C770 C774 1.368 . S
C771 C752 1.429 . S
C771 C765 1.429 . S
C771 C772 1.523 . S
C772 C753 1.368 . S
C772 C766 1.368 . S
C772 C771 1.523 . S
C773 C757 1.429 . S
C773 C769 1.429 . S
C773 C774 1.523 . S
C774 C758 1.368 . S
C774 C770 1.368 . S
C774 C773 1.523 . S
H775 C750 0.950 . S
H776 C752 0.950 . S
H777 C753 0.949 . S
H778 C755 0.950 . S
H779 C757 0.950 . S
C780 C781 1.349 . S
C780 C782 1.327 . S
C780 H805 0.950 . S
C781 C780 1.349 . S
C781 C797 1.349 . S
C782 C780 1.327 . S
C782 C801 1.429 . S
C782 H806 0.950 . S
C783 C800 1.574 . S
C783 C802 1.368 . S
C783 H807 0.949 . S
H784 C788 0.949 . S
C785 C786 1.349 . S
C785 C787 1.327 . S
C785 H808 0.950 . S
C786 C785 1.349 . S
C786 C798 1.349 . S
C787 C785 1.327 . S
C787 C803 1.429 . S
C787 H809 0.950 . S
C788 H784 0.949 . S
C788 C796 1.574 . S
C788 C804 1.368 . S
H789 C797 0.950 . S
H790 C795 0.950 . S
H791 C796 0.949 . S
H792 C798 0.950 . S
H793 C799 0.950 . S
H794 C800 0.949 . S
C795 H790 0.950 . S
C795 C797 1.327 . S
C795 C801 1.429 . S
C796 C788 1.574 . S
C796 H791 0.949 . S
C796 C802 1.368 . S
C797 C781 1.349 . S
C797 H789 0.950 . S
C797 C795 1.327 . S
C798 C786 1.349 . S
C798 H792 0.950 . S
C798 C799 1.327 . S
C799 H793 0.950 . S
C799 C798 1.327 . S
C799 C803 1.429 . S
C800 C783 1.574 . S
C800 H794 0.949 . S
C800 C804 1.368 . S
C801 C782 1.429 . S
C801 C795 1.429 . S
C801 C802 1.523 . S
C802 C783 1.368 . S
C802 C796 1.368 . S
C802 C801 1.523 . S
C803 C787 1.429 . S
C803 C799 1.429 . S
C803 C804 1.523 . S
C804 C788 1.368 . S
C804 C800 1.368 . S
C804 C803 1.523 . S
H805 C780 0.950 . S
H806 C782 0.950 . S
H807 C783 0.949 . S
H808 C785 0.950 . S
H809 C787 0.950 . S
C810 C811 1.349 . S
C810 C812 1.327 . S
C810 H835 0.950 . S
C811 C810 1.349 . S
C811 C827 1.349 . S
C812 C810 1.327 . S
C812 C831 1.429 . S
C812 H836 0.950 . S
C813 C830 1.574 . S
C813 C832 1.368 . S
C813 H837 0.949 . S
H814 C818 0.949 . S
C815 C816 1.349 . S
C815 C817 1.327 . S
C815 H838 0.950 . S
C816 C815 1.349 . S
C816 C828 1.349 . S
C817 C815 1.327 . S
C817 C833 1.429 . S
C817 H839 0.950 . S
C818 H814 0.949 . S
C818 C826 1.574 . S
C818 C834 1.368 . S
H819 C827 0.950 . S
H820 C825 0.950 . S
H821 C826 0.949 . S
H822 C828 0.950 . S
H823 C829 0.950 . S
H824 C830 0.949 . S
C825 H820 0.950 . S
C825 C827 1.327 . S
C825 C831 1.429 . S
C826 C818 1.574 . S
C826 H821 0.949 . S
C826 C832 1.368 . S
C827 C811 1.349 . S
C827 H819 0.950 . S
C827 C825 1.327 . S
C828 C816 1.349 . S
C828 H822 0.950 . S
C828 C829 1.327 . S
C829 H823 0.950 . S
C829 C828 1.327 . S
C829 C833 1.429 . S
C830 C813 1.574 . S
C830 H824 0.949 . S
C830 C834 1.368 . S
C831 C812 1.429 . S
C831 C825 1.429 . S
C831 C832 1.523 . S
C832 C813 1.368 . S
C832 C826 1.368 . S
C832 C831 1.523 . S
C833 C817 1.429 . S
C833 C829 1.429 . S
C833 C834 1.523 . S
C834 C818 1.368 . S
C834 C830 1.368 . S
C834 C833 1.523 . S
H835 C810 0.950 . S
H836 C812 0.950 . S
H837 C813 0.949 . S
H838 C815 0.950 . S
H839 C817 0.950 . S
C840 C841 1.349 1_655 S
C840 C842 1.327 . S
C840 H865 0.950 . S
C841 C840 1.349 1_455 S
C841 C857 1.349 . S
C842 C840 1.327 . S
C842 C861 1.429 1_655 S
C842 H866 0.950 . S
C843 C860 1.574 . S
C843 C862 1.368 . S
C843 H867 0.949 . S
H844 C848 0.949 . S
C845 C846 1.349 . S
C845 C847 1.327 1_556 S
C845 H868 0.950 . S
C846 C845 1.349 . S
C846 C858 1.349 1_455 S
C847 C845 1.327 1_554 S
C847 C863 1.429 . S
C847 H869 0.950 . S
C848 H844 0.949 . S
C848 C856 1.574 . S
C848 C864 1.368 1_655 S
H849 C857 0.950 . S
H850 C855 0.950 . S
H851 C856 0.949 . S
H852 C858 0.950 . S
H853 C859 0.950 . S
H854 C860 0.949 . S
C855 H850 0.950 . S
C855 C857 1.327 . S
C855 C861 1.429 . S
C856 C848 1.574 . S
C856 H851 0.949 . S
C856 C862 1.368 1_655 S
C857 C841 1.349 . S
C857 H849 0.950 . S
C857 C855 1.327 . S
C858 C846 1.349 1_655 S
C858 H852 0.950 . S
C858 C859 1.327 1_556 S
C859 H853 0.950 . S
C859 C858 1.327 1_554 S
C859 C863 1.429 1_655 S
C860 C843 1.574 . S
C860 H854 0.949 . S
C860 C864 1.368 . S
C861 C842 1.429 1_455 S
C861 C855 1.429 . S
C861 C862 1.523 . S
C862 C843 1.368 . S
C862 C856 1.368 1_455 S
C862 C861 1.523 . S
C863 C847 1.429 . S
C863 C859 1.429 1_455 S
C863 C864 1.523 . S
C864 C848 1.368 1_455 S
C864 C860 1.368 . S
C864 C863 1.523 . S
H865 C840 0.950 . S
H866 C842 0.950 . S
H867 C843 0.949 . S
H868 C845 0.950 . S
H869 C847 0.950 . S
C870 C871 1.349 . S
C870 C872 1.327 . S
C870 H895 0.950 . S
C871 C870 1.349 . S
C871 C887 1.349 . S
C872 C870 1.327 . S
C872 C891 1.429 . S
C872 H896 0.950 . S
C873 C890 1.574 . S
C873 C892 1.368 . S
C873 H897 0.949 1_545 S
H874 C878 0.949 . S
C875 C876 1.349 . S
C875 C877 1.327 . S
C875 H898 0.950 . S
C876 C875 1.349 . S
C876 C888 1.349 . S
C877 C875 1.327 . S
C877 C893 1.429 . S
C877 H899 0.950 . S
C878 H874 0.949 . S
C878 C886 1.574 . S
C878 C894 1.368 . S
H879 C887 0.950 1_565 S
H880 C885 0.950 1_565 S
H881 C886 0.949 . S
H882 C888 0.950 . S
H883 C889 0.950 . S
H884 C890 0.942 1_565 S
C885 H880 0.950 1_545 S
C885 C887 1.327 . S
C885 C891 1.429 . S
C886 C878 1.574 . S
C886 H881 0.949 . S
C886 C892 1.368 . S
C887 C871 1.349 . S
C887 H879 0.950 1_545 S
C887 C885 1.327 . S
C888 C876 1.349 . S
C888 H882 0.950 . S
C888 C889 1.327 . S
C889 H883 0.950 . S
C889 C888 1.327 . S
C889 C893 1.429 . S
C890 C873 1.574 . S
C890 H884 0.942 1_545 S
C890 C894 1.368 . S
C891 C872 1.429 . S
C891 C885 1.429 . S
C891 C892 1.523 . S
C892 C873 1.368 . S
C892 C886 1.368 . S
C892 C891 1.523 . S
C893 C877 1.429 . S
C893 C889 1.429 . S
C893 C894 1.523 . S
C894 C878 1.368 . S
C894 C890 1.368 . S
C894 C893 1.523 . S
H895 C870 0.950 . S
H896 C872 0.950 . S
H897 C873 0.949 1_565 S
H898 C875 0.950 . S
H899 C877 0.950 . S
C900 C901 1.349 . S
C900 C902 1.327 . S
C900 H925 0.950 . S
C901 C900 1.349 . S
C901 C917 1.349 . S
C902 C900 1.327 . S
C902 C921 1.429 . S
C902 H926 0.950 . S
C903 C920 1.574 . S
C903 C922 1.368 . S
C903 H927 0.949 . S
H904 C908 0.949 . S
C905 C906 1.349 . S
C905 C907 1.327 . S
C905 H928 0.950 . S
C906 C905 1.349 . S
C906 C918 1.349 . S
C907 C905 1.327 . S
C907 C923 1.429 . S
C907 H929 0.950 . S
C908 H904 0.949 . S
C908 C916 1.574 . S
C908 C924 1.368 . S
H909 C917 0.950 . S
H910 C915 0.950 . S
H911 C916 0.949 . S
H912 C918 0.950 . S
H913 C919 0.950 . S
H914 C920 0.949 . S
C915 H910 0.950 . S
C915 C917 1.327 . S
C915 C921 1.429 . S
C916 C908 1.574 . S
C916 H911 0.949 . S
C916 C922 1.368 . S
C917 C901 1.349 . S
C917 H909 0.950 . S
C917 C915 1.327 . S
C918 C906 1.349 . S
C918 H912 0.950 . S
C918 C919 1.327 . S
C919 H913 0.950 . S
C919 C918 1.327 . S
C919 C923 1.429 . S
C920 C903 1.574 . S
C920 H914 0.949 . S
C920 C924 1.368 . S
C921 C902 1.429 . S
C921 C915 1.429 . S
C921 C922 1.523 . S
C922 C903 1.368 . S
C922 C916 1.368 . S
C922 C921 1.523 . S
C923 C907 1.429 . S
C923 C919 1.429 . S
C923 C924 1.523 . S
C924 C908 1.368 . S
C924 C920 1.368 . S
C924 C923 1.523 . S
H925 C900 0.950 . S
H926 C902 0.950 . S
H927 C903 0.949 . S
H928 C905 0.950 . S
H929 C907 0.950 . S
C930 C931 1.349 . S
C930 C932 1.327 . S
C930 H955 0.950 . S
C931 C930 1.349 . S
C931 C947 1.322 1_545 S
C932 C930 1.327 . S
C932 C951 1.429 . S
C932 H956 0.950 . S
C933 C950 1.574 . S
C933 C952 1.368 1_565 S
C933 H957 0.949 . S
H934 C938 0.949 . S
C935 C936 1.349 1_565 S
C935 C937 1.327 . S
C935 H958 0.950 . S
C936 C935 1.349 1_545 S
C936 C948 1.349 . S
C937 C935 1.327 . S
C937 C953 1.429 1_565 S
C937 H959 0.950 . S
C938 H934 0.949 . S
C938 C946 1.574 . S
C938 C954 1.368 . S
H939 C947 0.976 . S
H940 C945 0.950 . S
H941 C946 0.949 . S
H942 C948 0.950 . S
H943 C949 0.950 . S
H944 C950 0.949 . S
C945 H940 0.950 . S
C945 C947 1.329 . S
C945 C951 1.429 1_565 S
C946 C938 1.574 . S
C946 H941 0.949 . S
C946 C952 1.368 . S
C947 C931 1.322 1_565 S
C947 H939 0.976 . S
C947 C945 1.329 . S
C948 C936 1.349 . S
C948 H942 0.950 . S
C948 C949 1.327 . S
C949 H943 0.950 . S
C949 C948 1.327 . S
C949 C953 1.429 . S
C950 C933 1.574 . S
C950 H944 0.949 . S
C950 C954 1.368 1_565 S
C951 C932 1.429 . S
C951 C945 1.429 1_545 S
C951 C952 1.523 . S
C952 C933 1.368 1_545 S
C952 C946 1.368 . S
C952 C951 1.523 . S
C953 C937 1.429 1_545 S
C953 C949 1.429 . S
C953 C954 1.523 . S
C954 C938 1.368 . S
C954 C950 1.368 1_545 S
C954 C953 1.523 . S
H955 C930 0.950 . S
H956 C932 0.950 . S
H957 C933 0.949 . S
H958 C935 0.950 . S
H959 C937 0.950 . S
C960 C961 1.349 . S
C960 C962 1.327 . S
C960 H985 0.950 . S
C961 C960 1.349 . S
C961 C977 1.349 . S
C962 C960 1.327 . S
C962 C981 1.429 . S
C962 H986 0.950 . S
C963 C980 1.574 . S
C963 C982 1.368 . S
C963 H987 0.949 . S
H964 C968 0.949 . S
C965 C966 1.349 . S
C965 C967 1.327 1_554 S
C965 H988 0.950 . S
C966 C965 1.349 . S
C966 C978 1.349 . S
C967 C965 1.327 1_556 S
C967 C983 1.429 . S
C967 H989 0.950 . S
C968 H964 0.949 . S
C968 C976 1.574 . S
C968 C984 1.368 . S
H969 C977 0.950 . S
H970 C975 0.950 . S
H971 C976 0.949 . S
H972 C978 0.950 . S
H973 C979 0.950 . S
H974 C980 0.949 . S
C975 H970 0.950 . S
C975 C977 1.327 . S
C975 C981 1.429 . S
C976 C968 1.574 . S
C976 H971 0.949 . S
C976 C982 1.368 . S
C977 C961 1.349 . S
C977 H969 0.950 . S
C977 C975 1.327 . S
C978 C966 1.349 . S
C978 H972 0.950 . S
C978 C979 1.327 1_554 S
C979 H973 0.950 . S
C979 C978 1.327 1_556 S
C979 C983 1.429 . S
C980 C963 1.574 . S
C980 H974 0.949 . S
C980 C984 1.368 . S
C981 C962 1.429 . S
C981 C975 1.429 . S
C981 C982 1.523 . S
C982 C963 1.368 . S
C982 C976 1.368 . S
C982 C981 1.523 . S
C983 C967 1.429 . S
C983 C979 1.429 . S
C983 C984 1.523 . S
C984 C968 1.368 . S
C984 C980 1.368 . S
C984 C983 1.523 . S
H985 C960 0.950 . S
H986 C962 0.950 . S
H987 C963 0.949 . S
H988 C965 0.950 . S
H989 C967 0.950 . S
C990 C991 1.349 . S
C990 C992 1.327 . S
C990 H1015 0.950 . S
C991 C990 1.349 . S
C991 C1007 1.349 . S
C992 C990 1.327 . S
C992 C1011 1.429 . S
C992 H1016 0.950 . S
C993 C1010 1.574 . S
C993 C1012 1.368 . S
C993 H1017 0.949 . S
H994 C998 0.949 . S
C995 C996 1.349 . S
C995 C997 1.327 . S
C995 H1018 0.950 . S
C996 C995 1.349 . S
C996 C1008 1.349 . S
C997 C995 1.327 . S
C997 C1013 1.429 . S
C997 H1019 0.950 . S
C998 H994 0.949 . S
C998 C1006 1.574 . S
C998 C1014 1.368 . S
H999 C1007 0.950 . S
H1000 C1005 0.950 . S
H1001 C1006 0.949 . S
H1002 C1008 0.950 . S
H1003 C1009 0.950 . S
H1004 C1010 0.949 . S
C1005 H1000 0.950 . S
C1005 C1007 1.327 . S
C1005 C1011 1.429 . S
C1006 C998 1.574 . S
C1006 H1001 0.949 . S
C1006 C1012 1.368 . S
C1007 C991 1.349 . S
C1007 H999 0.950 . S
C1007 C1005 1.327 . S
C1008 C996 1.349 . S
C1008 H1002 0.950 . S
C1008 C1009 1.327 . S
C1009 H1003 0.950 . S
C1009 C1008 1.327 . S
C1009 C1013 1.429 . S
C1010 C993 1.574 . S
C1010 H1004 0.949 . S
C1010 C1014 1.368 . S
C1011 C992 1.429 . S
C1011 C1005 1.429 . S
C1011 C1012 1.523 . S
C1012 C993 1.368 . S
C1012 C1006 1.368 . S
C1012 C1011 1.523 . S
C1013 C997 1.429 . S
C1013 C1009 1.429 . S
C1013 C1014 1.523 . S
C1014 C998 1.368 . S
C1014 C1010 1.368 . S
C1014 C1013 1.523 . S
H1015 C990 0.950 . S
H1016 C992 0.950 . S
H1017 C993 0.949 . S
H1018 C995 0.950 . S
H1019 C997 0.950 . S
C481 C10 2.941 . S
C486 C451 2.959 . S
C511 C59 3.034 . S
C516 C301 2.877 . S
C541 C90 2.941 . S
C546 C361 2.807 . S
C571 C19 3.035 . S
C576 C421 2.878 . S
C606 C331 2.959 . S
C601 C50 2.941 . S
C636 C391 3.029 . S
C631 C99 3.035 . S
C661 C46 0.349 . S
C666 C181 0.485 . S
C691 C95 0.311 . S
C696 C271 0.255 . S
C721 C6 0.347 . S
C726 C151 0.298 . S
C756 C211 0.254 . S
C751 C55 0.310 . S
C786 C241 0.485 . S
C781 C86 0.348 . S
C811 C15 0.311 . S
C816 C121 0.406 . S
C846 C260 1.078 . S
C841 C9 1.073 . S
C871 C49 1.073 . S
C876 C140 1.086 . S
C901 C89 1.073 . S
C906 C200 1.078 . S
C936 C380 1.751 . S
C931 C58 1.700 . S
C966 C440 1.753 . S
C961 C98 1.700 . S
C991 C18 1.700 . S
C996 C320 1.753 . S
