# Generated by pormake.
# Topology pyr, (3,6)-cn, num edge types: 1
# Building blocks:
#     Node 0, Type 0, BuildingBlock: PAMTOO_clean_linker_0, # of connection points: 3
#     Node 1, Type 0, BuildingBlock: PAMTOO_clean_linker_0, # of connection points: 3
#     Node 2, Type 0, BuildingBlock: PAMTOO_clean_linker_0, # of connection points: 3
#     Node 3, Type 0, BuildingBlock: PAMTOO_clean_linker_0, # of connection points: 3
#     Node 4, Type 0, BuildingBlock: PAMTOO_clean_linker_0, # of connection points: 3
#     Node 5, Type 0, BuildingBlock: PAMTOO_clean_linker_0, # of connection points: 3
#     Node 6, Type 0, BuildingBlock: PAMTOO_clean_linker_0, # of connection points: 3
#     Node 7, Type 0, BuildingBlock: PAMTOO_clean_linker_0, # of connection points: 3
#     Node 8, Type 1, BuildingBlock: BETDEL_clean_sbu_0, # of connection points: 6
#     Node 9, Type 1, BuildingBlock: BETDEL_clean_sbu_0, # of connection points: 6
#     Node 10, Type 1, BuildingBlock: BETDEL_clean_sbu_0, # of connection points: 6
#     Node 11, Type 1, BuildingBlock: BETDEL_clean_sbu_0, # of connection points: 6
#     Edge 12, Type (0, 1), BuildingBlock: XUDNAN_clean_linker_2, # of connection points: 2
#     Edge 13, Type (0, 1), BuildingBlock: XUDNAN_clean_linker_2, # of connection points: 2
#     Edge 14, Type (0, 1), BuildingBlock: XUDNAN_clean_linker_2, # of connection points: 2
#     Edge 15, Type (0, 1), BuildingBlock: XUDNAN_clean_linker_2, # of connection points: 2
#     Edge 16, Type (0, 1), BuildingBlock: XUDNAN_clean_linker_2, # of connection points: 2
#     Edge 17, Type (0, 1), BuildingBlock: XUDNAN_clean_linker_2, # of connection points: 2
#     Edge 18, Type (0, 1), BuildingBlock: XUDNAN_clean_linker_2, # of connection points: 2
#     Edge 19, Type (0, 1), BuildingBlock: XUDNAN_clean_linker_2, # of connection points: 2
#     Edge 20, Type (0, 1), BuildingBlock: XUDNAN_clean_linker_2, # of connection points: 2
#     Edge 21, Type (0, 1), BuildingBlock: XUDNAN_clean_linker_2, # of connection points: 2
#     Edge 22, Type (0, 1), BuildingBlock: XUDNAN_clean_linker_2, # of connection points: 2
#     Edge 23, Type (0, 1), BuildingBlock: XUDNAN_clean_linker_2, # of connection points: 2
#     Edge 24, Type (0, 1), BuildingBlock: XUDNAN_clean_linker_2, # of connection points: 2
#     Edge 25, Type (0, 1), BuildingBlock: XUDNAN_clean_linker_2, # of connection points: 2
#     Edge 26, Type (0, 1), BuildingBlock: XUDNAN_clean_linker_2, # of connection points: 2
#     Edge 27, Type (0, 1), BuildingBlock: XUDNAN_clean_linker_2, # of connection points: 2
#     Edge 28, Type (0, 1), BuildingBlock: XUDNAN_clean_linker_2, # of connection points: 2
#     Edge 29, Type (0, 1), BuildingBlock: XUDNAN_clean_linker_2, # of connection points: 2
#     Edge 30, Type (0, 1), BuildingBlock: XUDNAN_clean_linker_2, # of connection points: 2
#     Edge 31, Type (0, 1), BuildingBlock: XUDNAN_clean_linker_2, # of connection points: 2
#     Edge 32, Type (0, 1), BuildingBlock: XUDNAN_clean_linker_2, # of connection points: 2
#     Edge 33, Type (0, 1), BuildingBlock: XUDNAN_clean_linker_2, # of connection points: 2
#     Edge 34, Type (0, 1), BuildingBlock: XUDNAN_clean_linker_2, # of connection points: 2
#     Edge 35, Type (0, 1), BuildingBlock: XUDNAN_clean_linker_2, # of connection points: 2
# Relax obj value: 0.086
# Max RMSD: 0.194
# Mean RMSD: 0.138
data_MOF--net-pyr--node1-BETDEL_clean_sbu_0--node2-PAMTOO_clean_linker_0--edge1-XUDNAN_clean_linker_2
_symmetry_space_group_name_H-M    P1
_symmetry_Int_Tables_number       1
_symmetry_cell_setting            triclinic
loop_
_symmetry_equiv_pos_as_xyz
'x, y, z'
_cell_length_a     35.625117
_cell_length_b     38.74226
_cell_length_c     35.2306
_cell_angle_alpha  91.911016
_cell_angle_beta   90.333034
_cell_angle_gamma 100.16714
loop_
_atom_site_label
_atom_site_type_symbol
_atom_site_fract_x
_atom_site_fract_y
_atom_site_fract_z
_atom_type_partial_charge
H0 H 0.15296 0.20633 0.21489 0.0
H1 H 0.24618 0.15433 0.18468 0.0
H2 H 0.21994 0.23598 0.11572 0.0
H3 H 0.26043 0.17556 0.06866 0.0
C4 C 0.2636 0.16424 0.09683 0.0
O5 O 0.26502 0.19062 0.12447 0.0
H6 H 0.23875 0.14284 0.10084 0.0
C7 C 0.17583 0.20287 0.19579 0.0
C8 C 0.18335 0.22449 0.1644 0.0
C9 C 0.19851 0.17773 0.20367 0.0
C10 C 0.22837 0.17359 0.17913 0.0
C11 C 0.23531 0.19403 0.14707 0.0
C12 C 0.21295 0.21937 0.13972 0.0
H13 H 0.2779 0.89876 0.7169 0.0
H14 H 0.2587 0.81341 0.63376 0.0
H15 H 0.35813 0.82803 0.70602 0.0
H16 H 0.35954 0.81829 0.61716 0.0
C17 C 0.34336 0.79113 0.62002 0.0
O18 O 0.32051 0.7889 0.65172 0.0
H19 H 0.32495 0.78474 0.59426 0.0
C20 C 0.28658 0.87588 0.70353 0.0
C21 C 0.32088 0.86595 0.7151 0.0
C22 C 0.26391 0.85742 0.67415 0.0
C23 C 0.27562 0.82801 0.65658 0.0
C24 C 0.30934 0.81728 0.66851 0.0
C25 C 0.33175 0.83613 0.69775 0.0
H26 H 0.74352 0.31597 0.92751 0.0
H27 H 0.64819 0.29105 0.84923 0.0
H28 H 0.72626 0.38783 0.84108 0.0
H29 H 0.63016 0.37303 0.84655 0.0
C30 C 0.63263 0.36353 0.81659 0.0
O31 O 0.66518 0.34898 0.81205 0.0
H32 H 0.6073 0.34283 0.81051 0.0
C33 C 0.72723 0.32258 0.90363 0.0
C34 C 0.73893 0.35488 0.88631 0.0
C35 C 0.69443 0.29907 0.89085 0.0
C36 C 0.67386 0.30817 0.85948 0.0
C37 C 0.68537 0.3402 0.84185 0.0
C38 C 0.71769 0.36334 0.85525 0.0
H39 H 0.8596 0.71848 0.43636 0.0
H40 H 0.85682 0.6303 0.35726 0.0
H41 H 0.93459 0.72567 0.34031 0.0
H42 H 0.89159 0.68905 0.2723 0.0
C43 C 0.89458 0.66177 0.27897 0.0
O44 O 0.91106 0.66143 0.31455 0.0
H45 H 0.86545 0.64564 0.2788 0.0
C46 C 0.86998 0.70658 0.41119 0.0
C47 C 0.89854 0.72667 0.38961 0.0
C48 C 0.85439 0.67157 0.40007 0.0
C49 C 0.86855 0.65679 0.36713 0.0
C50 C 0.89737 0.67626 0.34579 0.0
C51 C 0.91223 0.71099 0.35706 0.0
H52 H 0.81991 0.91275 0.87024 0.0
H53 H 0.81346 0.82477 0.94301 0.0
H54 H 0.9024 0.84388 0.86115 0.0
H55 H 0.8633 0.77174 0.86688 0.0
C56 C 0.86497 0.77038 0.89837 0.0
O57 O 0.87354 0.80352 0.91506 0.0
H58 H 0.83677 0.75701 0.90846 0.0
C59 C 0.83048 0.8896 0.87888 0.0
C60 C 0.863 0.88053 0.86149 0.0
C61 C 0.8125 0.86983 0.90851 0.0
C62 C 0.82671 0.84019 0.91999 0.0
C63 C 0.85872 0.83079 0.90249 0.0
C64 C 0.87685 0.8509 0.87347 0.0
H65 H 0.7974 0.14299 0.3375 0.0
H66 H 0.73331 0.22666 0.35483 0.0
H67 H 0.81328 0.20843 0.43975 0.0
H68 H 0.7407 0.24129 0.47248 0.0
C69 C 0.73255 0.2463 0.44293 0.0
O70 O 0.76438 0.24807 0.42034 0.0
H71 H 0.70956 0.22447 0.43301 0.0
C72 C 0.7903 0.16452 0.35482 0.0
C73 C 0.80882 0.17332 0.3901 0.0
C74 C 0.76276 0.1834 0.34178 0.0
C75 C 0.7544 0.21169 0.36421 0.0
C76 C 0.77226 0.22033 0.39955 0.0
C77 C 0.79916 0.20105 0.41262 0.0
H78 H 0.35745 0.72127 0.12172 0.0
H79 H 0.3872 0.64446 0.19705 0.0
H80 H 0.4583 0.7448 0.1929 0.0
H81 H 0.40858 0.68449 0.26853 0.0
C82 C 0.43988 0.68875 0.26354 0.0
O83 O 0.44717 0.6843 0.22531 0.0
H84 H 0.45225 0.71614 0.2728 0.0
C85 C 0.37623 0.7135 0.14273 0.0
C86 C 0.40979 0.73706 0.15389 0.0
C87 C 0.36677 0.6801 0.15866 0.0
C88 C 0.39228 0.6703 0.18529 0.0
C89 C 0.4246 0.69378 0.19787 0.0
C90 C 0.43329 0.72695 0.18233 0.0
H91 H 0.12393 0.31306 0.74601 0.0
H92 H 0.21266 0.4049 0.75518 0.0
H93 H 0.21146 0.33218 0.66128 0.0
H94 H 0.28633 0.36087 0.69994 0.0
C95 C 0.28315 0.38892 0.69928 0.0
O96 O 0.24565 0.39158 0.6919 0.0
H97 H 0.2917 0.40158 0.72756 0.0
C98 C 0.14999 0.32856 0.73579 0.0
C99 C 0.16589 0.31828 0.70147 0.0
C100 C 0.16628 0.36026 0.75531 0.0
C101 C 0.19948 0.3806 0.74075 0.0
C102 C 0.21564 0.37034 0.70712 0.0
C103 C 0.19894 0.33938 0.6877 0.0
Dy104 Dy 0.0683 0.03358 0.49856 0.0
C105 C 0.9976 0.992 0.64326 0.0
C106 C 0.10601 0.06228 0.43709 0.0
Dy107 Dy 0.02089 0.01346 0.57315 0.0
O108 O 0.06954 0.05028 0.43791 0.0
O109 O 0.12167 0.05869 0.46978 0.0
O110 O 0.09976 0.98934 0.5082 0.0
O111 O 0.07972 0.01519 0.55516 0.0
C112 C 0.09528 0.98964 0.54473 0.0
C113 C 0.98052 0.045 0.52409 0.0
O114 O 0.05739 0.06516 0.59142 0.0
O115 O 0.07486 0.08485 0.53124 0.0
O116 O 0.0063 0.97127 0.61609 0.0
O117 O 1.00195 0.02398 0.63206 0.0
O118 O 0.96726 0.03378 0.55655 0.0
O119 O 0.01335 0.03788 0.5208 0.0
O120 O 0.0252 0.98839 0.47691 0.0
O121 O 0.00644 0.96422 0.53521 0.0
C122 C 0.07178 0.0905 0.56836 0.0
C123 C 0.00738 0.96236 0.49732 0.0
Dy124 Dy 0.57173 0.03312 0.06465 0.0
C125 C 0.47599 0.97851 0.93236 0.0
C126 C 0.61267 0.0736 0.12091 0.0
Dy127 Dy 0.52552 0.00694 0.98884 0.0
O128 O 0.60577 0.03951 0.11952 0.0
O129 O 0.59703 0.08535 0.09186 0.0
O130 O 0.56206 0.97812 0.08476 0.0
O131 O 0.52116 0.99369 0.04897 0.0
C132 C 0.53095 0.96784 0.06495 0.0
C133 C 0.57625 0.06647 0.97719 0.0
O134 O 0.48293 0.03245 0.02145 0.0
O135 O 0.51939 0.0563 0.07442 0.0
O136 O 0.48138 0.01079 0.94509 0.0
O137 O 0.49735 0.96074 0.95125 0.0
O138 O 0.5542 0.04964 0.95083 0.0
O139 O 0.57006 0.04957 0.00704 0.0
O140 O 0.61518 0.01321 0.02898 0.0
O141 O 0.5737 0.97645 0.98722 0.0
C142 C 0.48773 0.05187 0.05352 0.0
C143 C 0.60775 0.98672 0.00362 0.0
Dy144 Dy 0.56792 0.50026 0.51603 0.0
C145 C 0.50771 0.61317 0.58786 0.0
C146 C 0.60327 0.44854 0.48612 0.0
Dy147 Dy 0.54782 0.56454 0.55872 0.0
O148 O 0.57817 0.44453 0.51286 0.0
O149 O 0.60872 0.48073 0.47526 0.0
O150 O 0.50593 0.47837 0.50764 0.0
O151 O 0.52409 0.50843 0.55723 0.0
C152 C 0.49524 0.49275 0.53869 0.0
C153 C 0.62033 0.57291 0.53495 0.0
O154 O 0.56092 0.53334 0.60781 0.0
O155 O 0.59684 0.49941 0.57302 0.0
O156 O 0.54307 0.612 0.5961 0.0
O157 O 0.49422 0.58752 0.56419 0.0
O158 O 0.60953 0.59103 0.56325 0.0
O159 O 0.59133 0.55586 0.5181 0.0
O160 O 0.5496 0.52729 0.46568 0.0
O161 O 0.52599 0.57111 0.49977 0.0
C162 C 0.5852 0.51105 0.60599 0.0
C163 C 0.53158 0.5545 0.46728 0.0
Dy164 Dy 0.0504 0.48017 0.05075 0.0
C165 C 0.02842 0.61175 0.99025 0.0
C166 C 0.06706 0.42176 0.0833 0.0
Dy167 Dy 0.05063 0.55043 0.0071 0.0
O168 O 0.05696 0.44826 0.10145 0.0
O169 O 0.06777 0.4269 0.04702 0.0
O170 O 1.00354 0.49441 0.08721 0.0
O171 O 0.04494 0.53428 0.06591 0.0
C172 C 0.0145 0.52811 0.08467 0.0
C173 C 0.07423 0.50149 0.96092 0.0
O174 O 0.1056 0.5658 0.0393 0.0
O175 O 0.10975 0.51048 0.06212 0.0
O176 O 0.06094 0.6033 0.98052 0.0
O177 O 0.00873 0.58705 0.00964 0.0
O178 O 0.07226 0.533 0.95035 0.0
O179 O 0.06411 0.49932 0.99504 0.0
O180 O 0.99929 0.46308 0.01316 0.0
O181 O 0.99175 0.51937 0.99698 0.0
C182 C 0.12407 0.54418 0.05733 0.0
C183 C 0.97928 0.48501 0.99782 0.0
H184 H 0.13032 0.14627 0.23332 0.0
H185 H 0.25261 0.1642 0.25379 0.0
H186 H 0.24222 0.13425 0.31458 0.0
H187 H 0.10428 0.1629 0.32808 0.0
H188 H 0.06204 0.1295 0.32706 0.0
H189 H 0.07913 0.15008 0.28387 0.0
H190 H 0.08204 0.08917 0.25245 0.0
H191 H 0.06479 0.06837 0.29552 0.0
H192 H 0.10891 0.06025 0.27531 0.0
H193 H 0.21848 0.10636 0.37501 0.0
H194 H 0.18293 0.07984 0.42994 0.0
H195 H 0.07612 0.0797 0.3701 0.0
C196 C 0.15492 0.14372 0.2505 0.0
C197 C 0.19229 0.15746 0.23877 0.0
C198 C 0.22376 0.15341 0.26193 0.0
C199 C 0.21814 0.13663 0.2966 0.0
C200 C 0.18091 0.1239 0.30757 0.0
C201 C 0.14983 0.127 0.28512 0.0
C202 C 0.11273 0.1119 0.30399 0.0
C203 C 0.08811 0.14029 0.31118 0.0
C204 C 0.09084 0.08056 0.28041 0.0
C205 C 0.1278 0.10028 0.34082 0.0
C206 C 0.16721 0.10744 0.34229 0.0
C207 C 0.18764 0.1003 0.37404 0.0
C208 C 0.16723 0.08535 0.40509 0.0
C209 C 0.1269 0.07764 0.40403 0.0
C210 C 0.10699 0.08508 0.37144 0.0
H211 H 0.36184 0.84472 0.77459 0.0
H212 H 0.3368 0.93739 0.72047 0.0
H213 H 0.37334 0.97486 0.77033 0.0
H214 H 0.35653 0.87526 0.87033 0.0
H215 H 0.3963 0.85701 0.88759 0.0
H216 H 0.36878 0.83659 0.84722 0.0
H217 H 0.43005 0.84213 0.80703 0.0
H218 H 0.45784 0.86229 0.84739 0.0
H219 H 0.46001 0.88449 0.80309 0.0
H220 H 0.40803 1.00225 0.82679 0.0
H221 H 0.44545 0.01949 0.88517 0.0
H222 H 0.4532 0.91051 0.90273 0.0
C223 C 0.36448 0.8729 0.77301 0.0
C224 C 0.34571 0.88803 0.74396 0.0
C225 C 0.3499 0.92506 0.74295 0.0
C226 C 0.37085 0.94665 0.77101 0.0
C227 C 0.38808 0.93095 0.79967 0.0
C228 C 0.38578 0.89505 0.80074 0.0
C229 C 0.40748 0.88538 0.83496 0.0
C230 C 0.38066 0.86219 0.8616 0.0
C231 C 0.44083 0.86752 0.82235 0.0
C232 C 0.42171 0.92149 0.8531 0.0
C233 C 0.40986 0.9472 0.83212 0.0
C234 C 0.41789 0.98247 0.8433 0.0
C235 C 0.43905 0.99194 0.87664 0.0
C236 C 0.45233 0.96635 0.89838 0.0
C237 C 0.44355 0.93059 0.88649 0.0
H238 H 0.63398 0.36083 0.73827 0.0
H239 H 0.6284 0.43226 0.83457 0.0
H240 H 0.61998 0.47904 0.79096 0.0
H241 H 0.68532 0.42719 0.6744 0.0
H242 H 0.65907 0.40745 0.63294 0.0
H243 H 0.66788 0.38056 0.67164 0.0
H244 H 0.59532 0.35732 0.67634 0.0
H245 H 0.58638 0.38428 0.63785 0.0
H246 H 0.56317 0.38809 0.68273 0.0
H247 H 0.60515 0.5159 0.73745 0.0
H248 H 0.58905 0.54149 0.67739 0.0
H249 H 0.60717 0.44739 0.61521 0.0
C250 C 0.63185 0.3866 0.74999 0.0
C251 C 0.63215 0.39308 0.78974 0.0
C252 C 0.62855 0.42686 0.80422 0.0
C253 C 0.62372 0.45357 0.77966 0.0
C254 C 0.62286 0.44621 0.74064 0.0
C255 C 0.62728 0.41368 0.72581 0.0
C256 C 0.62371 0.41225 0.6828 0.0
C257 C 0.66124 0.40653 0.66437 0.0
C258 C 0.59014 0.3838 0.66915 0.0
C259 C 0.61581 0.44876 0.67589 0.0
C260 C 0.61539 0.4679 0.70965 0.0
C261 C 0.60607 0.50141 0.71078 0.0
C262 C 0.59685 0.5157 0.67655 0.0
C263 C 0.59737 0.49668 0.6416 0.0
C264 C 0.60738 0.46291 0.64138 0.0
H265 H 0.88832 0.5937 0.25042 0.0
H266 H 0.95488 0.69786 0.24017 0.0
H267 H 0.9919 0.67566 0.18823 0.0
H268 H 0.96585 0.54606 0.23275 0.0
H269 H 0.93626 0.51063 0.20642 0.0
H270 H 0.91572 0.53485 0.24293 0.0
H271 H 0.86614 0.5488 0.19426 0.0
H272 H 0.88676 0.52489 0.15753 0.0
H273 H 0.88239 0.56997 0.15105 0.0
H274 H 0.02049 0.64199 0.13596 0.0
H275 H 0.04114 0.59891 0.09074 0.0
H276 H 0.95585 0.51671 0.13531 0.0
C277 C 0.91081 0.61173 0.23728 0.0
C278 C 0.91854 0.64759 0.2489 0.0
C279 C 0.94839 0.67038 0.23138 0.0
C280 C 0.96945 0.658 0.20185 0.0
C281 C 0.96051 0.62266 0.19036 0.0
C282 C 0.9321 0.59978 0.20777 0.0
C283 C 0.92829 0.563 0.19028 0.0
C284 C 0.93707 0.53711 0.21986 0.0
C285 C 0.88854 0.55097 0.17221 0.0
C286 C 0.9589 0.56872 0.16026 0.0
C287 C 0.9771 0.60333 0.16064 0.0
C288 C 0.00647 0.61482 0.13552 0.0
C289 C 0.01793 0.5902 0.10984 0.0
C290 C 1.00012 0.55449 0.10949 0.0
C291 C 0.96996 0.54385 0.13482 0.0
H292 H 0.2963 0.13201 0.03845 0.0
H293 H 0.31051 0.15939 0.15878 0.0
H294 H 0.36839 0.1329 0.16055 0.0
H295 H 0.32715 0.04806 0.04344 0.0
H296 H 0.35128 0.05187 0.99854 0.0
H297 H 0.3108 0.07313 0.0065 0.0
H298 H 0.35146 0.13279 0.98954 0.0
H299 H 0.39202 0.11169 0.98147 0.0
H300 H 0.39564 0.14846 0.01483 0.0
H301 H 0.42586 0.10565 0.14905 0.0
H302 H 0.47798 0.07677 0.12558 0.0
H303 H 0.42577 0.06488 0.01308 0.0
C304 C 0.31181 0.13257 0.06506 0.0
C305 C 0.29945 0.14859 0.09818 0.0
C306 C 0.31981 0.148 0.1328 0.0
C307 C 0.35271 0.13292 0.13415 0.0
C308 C 0.36451 0.11795 0.10083 0.0
C309 C 0.3446 0.11738 0.06698 0.0
C310 C 0.36331 0.09925 0.0354 0.0
C311 C 0.33653 0.06611 0.02008 0.0
C312 C 0.37639 0.12457 0.00343 0.0
C313 C 0.39701 0.09003 0.05677 0.0
C314 C 0.39717 0.10116 0.09445 0.0
C315 C 0.42596 0.0966 0.11967 0.0
C316 C 0.4555 0.08025 0.10601 0.0
C317 C 0.45589 0.06844 0.06753 0.0
C318 C 0.42607 0.07328 0.04273 0.0
H319 H 0.24199 0.86663 0.60079 0.0
H320 H 0.20898 0.87967 0.71798 0.0
H321 H 0.15841 0.91119 0.6972 0.0
H322 H 0.23205 0.94888 0.57243 0.0
H323 H 0.21295 0.93545 0.5257 0.0
H324 H 0.24317 0.90989 0.549 0.0
H325 H 0.19069 0.85449 0.5415 0.0
H326 H 0.16038 0.87982 0.51771 0.0
H327 H 0.14349 0.85577 0.559 0.0
H328 H 0.11738 0.9482 0.66455 0.0
H329 H 0.08617 0.98425 0.62166 0.0
H330 H 0.14377 0.94494 0.52568 0.0
C331 C 0.22328 0.87507 0.62194 0.0
C332 C 0.22946 0.8707 0.66101 0.0
C333 C 0.20494 0.88294 0.6879 0.0
C334 C 0.17604 0.90077 0.67637 0.0
C335 C 0.17161 0.90581 0.63776 0.0
C336 C 0.19416 0.89284 0.61088 0.0
C337 C 0.18512 0.90375 0.57142 0.0
C338 C 0.22042 0.9258 0.55362 0.0
C339 C 0.16895 0.87153 0.5459 0.0
C340 C 0.15488 0.92572 0.58048 0.0
C341 C 0.14733 0.92649 0.61888 0.0
C342 C 0.12248 0.9472 0.63431 0.0
C343 C 0.10494 0.96764 0.60982 0.0
C344 C 0.11222 0.96703 0.5704 0.0
C345 C 0.13721 0.9455 0.55565 0.0
H346 H 0.80748 0.34073 0.91318 0.0
H347 H 0.74636 0.42639 0.89435 0.0
H348 H 0.8013 0.46847 0.92019 0.0
H349 H 0.85031 0.37515 1.00265 0.0
H350 H 0.89469 0.36016 0.9939 0.0
H351 H 0.85106 0.33663 0.9727 0.0
H352 H 0.88117 0.34342 0.906 0.0
H353 H 0.9249 0.36696 0.92699 0.0
H354 H 0.90104 0.38659 0.89034 0.0
H355 H 0.86218 0.50125 0.9482 0.0
H356 H 0.92527 0.52297 0.9771 0.0
H357 H 0.9467 0.41609 0.98031 0.0
C358 C 0.80549 0.3683 0.91468 0.0
C359 C 0.77253 0.38018 0.90144 0.0
C360 C 0.77145 0.4166 0.90357 0.0
C361 C 0.80242 0.44073 0.91849 0.0
C362 C 0.83428 0.42809 0.93138 0.0
C363 C 0.83609 0.39277 0.92972 0.0
C364 C 0.87363 0.38616 0.94596 0.0
C365 C 0.86701 0.36316 0.98088 0.0
C366 C 0.89653 0.36982 0.9155 0.0
C367 C 0.8926 0.42334 0.95703 0.0
C368 C 0.86938 0.44705 0.94821 0.0
C369 C 0.88062 0.48294 0.95527 0.0
C370 C 0.91663 0.495 0.97168 0.0
C371 C 0.94108 0.47126 0.98106 0.0
C372 C 0.92867 0.4349 0.97371 0.0
H373 H 0.79514 0.69488 0.43821 0.0
H374 H 0.84171 0.6005 0.41228 0.0
H375 H 0.78765 0.5654 0.44458 0.0
H376 H 0.76273 0.66945 0.53333 0.0
H377 H 0.72078 0.68928 0.5298 0.0
H378 H 0.76324 0.70711 0.5045 0.0
H379 H 0.72441 0.70036 0.44146 0.0
H380 H 0.6819 0.68236 0.4665 0.0
H381 H 0.69761 0.65798 0.42701 0.0
H382 H 0.72597 0.53975 0.47609 0.0
H383 H 0.66404 0.52659 0.50902 0.0
H384 H 0.66072 0.63769 0.51967 0.0
C385 C 0.79458 0.66695 0.43984 0.0
C386 C 0.82286 0.65065 0.42207 0.0
C387 C 0.82017 0.61378 0.42463 0.0
C388 C 0.78965 0.59353 0.44328 0.0
C389 C 0.76217 0.61043 0.45995 0.0
C390 C 0.76464 0.64637 0.45892 0.0
C391 C 0.73138 0.65808 0.4793 0.0
C392 C 0.74538 0.68242 0.51378 0.0
C393 C 0.70742 0.67573 0.45193 0.0
C394 C 0.7096 0.62306 0.49156 0.0
C395 C 0.72769 0.59585 0.47981 0.0
C396 C 0.71185 0.5609 0.48585 0.0
C397 C 0.67665 0.55362 0.50434 0.0
C398 C 0.65802 0.58111 0.51702 0.0
C399 C 0.67487 0.61626 0.51084 0.0
H400 H 0.16028 0.24974 0.0972 0.0
H401 H 0.15939 0.26677 0.21976 0.0
H402 H 0.12516 0.31582 0.2118 0.0
H403 H 0.18012 0.34057 0.07654 0.0
H404 H 0.15105 0.3358 0.03399 0.0
H405 H 0.1725 0.29975 0.04914 0.0
H406 H 0.10595 0.25985 0.04905 0.0
H407 H 0.08427 0.29586 0.03402 0.0
H408 H 0.06813 0.27332 0.07647 0.0
H409 H 0.09354 0.36427 0.1913 0.0
H410 H 0.069 0.41137 0.15897 0.0
H411 H 0.09289 0.36558 0.04958 0.0
C412 C 0.15287 0.26371 0.1224 0.0
C413 C 0.16202 0.25378 0.15915 0.0
C414 C 0.15174 0.27295 0.19131 0.0
C415 C 0.13249 0.30111 0.18713 0.0
C416 C 0.12395 0.31012 0.1506 0.0
C417 C 0.13397 0.29222 0.11875 0.0
C418 C 0.12327 0.3087 0.08271 0.0
C419 C 0.15886 0.322 0.05922 0.0
C420 C 0.09364 0.28289 0.05918 0.0
C421 C 0.10607 0.33885 0.0994 0.0
C422 C 0.10644 0.33888 0.13863 0.0
C423 C 0.09292 0.36448 0.1606 0.0
C424 C 0.07904 0.39108 0.14199 0.0
C425 C 0.07903 0.39196 0.10188 0.0
C426 C 0.09238 0.36533 0.08031 0.0
H427 H 0.65947 0.23459 0.86017 0.0
H428 H 0.69858 0.28766 0.96755 0.0
H429 H 0.67773 0.23273 1.0006 0.0
H430 H 0.57415 0.18549 0.89741 0.0
H431 H 0.57538 0.14724 0.8672 0.0
H432 H 0.59642 0.19003 0.85159 0.0
H433 H 0.66062 0.16858 0.84107 0.0
H434 H 0.63982 0.12577 0.85696 0.0
H435 H 0.68242 0.14972 0.87977 0.0
H436 H 0.65137 0.17156 0.02255 0.0
H437 H 0.61678 0.11117 0.03142 0.0
H438 H 0.59092 0.09988 0.91097 0.0
C439 C 0.66359 0.23489 0.89065 0.0
C440 C 0.68136 0.26568 0.91093 0.0
C441 C 0.68618 0.26442 0.9509 0.0
C442 C 0.67417 0.23329 0.97011 0.0
C443 C 0.65694 0.20353 0.94918 0.0
C444 C 0.6513 0.20419 0.91038 0.0
C445 C 0.63006 0.16921 0.89481 0.0
C446 C 0.59173 0.17325 0.8767 0.0
C447 C 0.65472 0.15233 0.86648 0.0
C448 C 0.6243 0.14891 0.93095 0.0
C449 C 0.64046 0.16894 0.96197 0.0
C450 C 0.6385 0.15571 0.99843 0.0
C451 C 0.61878 0.12138 0.00333 0.0
C452 C 0.60087 0.10097 0.97214 0.0
C453 C 0.60429 0.11487 0.93547 0.0
H454 H 0.91829 0.75772 0.46082 0.0
H455 H 0.91135 0.78124 0.3416 0.0
H456 H 0.93623 0.84356 0.35707 0.0
H457 H 0.89027 0.83845 0.49827 0.0
H458 H 0.92283 0.84301 0.53822 0.0
H459 H 0.90354 0.80004 0.5183 0.0
H460 H 0.97193 0.78753 0.50852 0.0
H461 H 0.99141 0.83043 0.52841 0.0
H462 H 0.00546 0.81739 0.48177 0.0
H463 H 0.96282 0.90261 0.3843 0.0
H464 H 0.99082 0.95561 0.4216 0.0
H465 H 0.98098 0.89578 0.52436 0.0
C466 C 0.92168 0.77607 0.43805 0.0
C467 C 0.91303 0.76442 0.39987 0.0
C468 C 0.91829 0.78929 0.37091 0.0
C469 C 0.93216 0.82485 0.37945 0.0
C470 C 0.94065 0.83538 0.41717 0.0
C471 C 0.93568 0.81186 0.44609 0.0
C472 C 0.948 0.83034 0.48411 0.0
C473 C 0.91414 0.8278 0.51133 0.0
C474 C 0.98118 0.81554 0.50173 0.0
C475 C 0.96091 0.86781 0.47187 0.0
C476 C 0.95618 0.86994 0.43311 0.0
C477 C 0.96659 0.90132 0.41469 0.0
C478 C 0.98262 0.93135 0.43627 0.0
C479 C 0.98827 0.93008 0.47607 0.0
C480 C 0.97684 0.89778 0.4941 0.0
H481 H 0.3433 0.72857 0.58011 0.0
H482 H 0.40643 0.79823 0.66621 0.0
H483 H 0.45425 0.75902 0.66966 0.0
H484 H 0.36028 0.64668 0.61878 0.0
H485 H 0.36503 0.62634 0.57271 0.0
H486 H 0.33517 0.65913 0.5783 0.0
H487 H 0.3731 0.69548 0.5261 0.0
H488 H 0.40304 0.66283 0.52037 0.0
H489 H 0.42414 0.70793 0.53097 0.0
H490 H 0.49684 0.71366 0.66103 0.0
H491 H 0.53029 0.66507 0.64191 0.0
H492 H 0.43863 0.62466 0.56214 0.0
C493 C 0.36708 0.73536 0.59984 0.0
C494 C 0.37143 0.7664 0.62286 0.0
C495 C 0.40281 0.77453 0.64837 0.0
C496 C 0.43001 0.75245 0.65048 0.0
C497 C 0.42523 0.72225 0.62701 0.0
C498 C 0.39447 0.71362 0.60227 0.0
C499 C 0.39644 0.68014 0.57945 0.0
C500 C 0.3622 0.65137 0.58783 0.0
C501 C 0.39936 0.68702 0.5367 0.0
C502 C 0.43321 0.67137 0.59504 0.0
C503 C 0.44942 0.69597 0.62243 0.0
C504 C 0.48422 0.69408 0.63986 0.0
C505 C 0.50302 0.66645 0.62885 0.0
C506 C 0.48687 0.64105 0.60083 0.0
C507 C 0.4514 0.64349 0.58399 0.0
H508 H 0.89282 0.86009 0.79433 0.0
H509 H 0.88093 0.95207 0.86391 0.0
H510 H 0.91684 0.99008 0.81679 0.0
H511 H 0.98897 0.89242 0.76252 0.0
H512 H 0.98035 0.87316 0.71529 0.0
H513 H 0.95425 0.85288 0.75478 0.0
H514 H 0.89044 0.85594 0.72047 0.0
H515 H 0.91632 0.87604 0.68083 0.0
H516 H 0.88164 0.89756 0.70454 0.0
H517 H 0.95275 0.01806 0.76241 0.0
H518 H 0.98451 0.03485 0.70212 0.0
H519 H 0.97421 0.92497 0.66754 0.0
C520 C 0.89802 0.88823 0.79972 0.0
C521 C 0.88395 0.90318 0.83267 0.0
C522 C 0.89094 0.94011 0.83858 0.0
C523 C 0.91159 0.96188 0.81218 0.0
C524 C 0.92511 0.94631 0.78008 0.0
C525 C 0.91856 0.91038 0.77361 0.0
C526 C 0.93539 0.90052 0.73621 0.0
C527 C 0.9666 0.87844 0.7426 0.0
C528 C 0.90408 0.8814 0.7089 0.0
C529 C 0.95215 0.9366 0.72255 0.0
C530 C 0.94606 0.96256 0.74849 0.0
C531 C 0.95787 0.99801 0.74194 0.0
C532 C 0.97588 0.00726 0.70765 0.0
C533 C 0.98185 0.98117 0.68038 0.0
C534 C 0.97029 0.94538 0.68813 0.0
H535 H 0.73316 0.11712 0.31371 0.0
H536 H 0.74584 0.22715 0.28712 0.0
H537 H 0.70918 0.21082 0.22757 0.0
H538 H 0.74242 0.08419 0.21696 0.0
H539 H 0.70749 0.04506 0.22292 0.0
H540 H 0.73542 0.06542 0.26307 0.0
H541 H 0.6734 0.06958 0.29967 0.0
H542 H 0.64528 0.04941 0.25959 0.0
H543 H 0.63813 0.09147 0.27871 0.0
H544 H 0.66997 0.1828 0.17187 0.0
H545 H 0.63157 0.14475 0.12298 0.0
H546 H 0.64512 0.05283 0.18515 0.0
C547 C 0.72871 0.13775 0.29509 0.0
C548 C 0.74234 0.17344 0.30509 0.0
C549 C 0.73531 0.19968 0.28026 0.0
C550 C 0.71469 0.19066 0.2463 0.0
C551 C 0.70137 0.15528 0.23751 0.0
C552 C 0.70819 0.12921 0.26108 0.0
C553 C 0.69015 0.09321 0.24527 0.0
C554 C 0.7207 0.07065 0.23653 0.0
C555 C 0.65995 0.07485 0.27243 0.0
C556 C 0.67198 0.10313 0.20918 0.0
C557 C 0.67882 0.13908 0.20528 0.0
C558 C 0.66453 0.15462 0.17454 0.0
C559 C 0.64272 0.13282 0.14699 0.0
C560 C 0.63547 0.09595 0.15039 0.0
C561 C 0.65033 0.08096 0.18187 0.0
H562 H 0.45488 0.69459 0.33962 0.0
H563 H 0.45972 0.62439 0.242 0.0
H564 H 0.48392 0.58253 0.28321 0.0
H565 H 0.53949 0.67866 0.38796 0.0
H566 H 0.51906 0.68036 0.43453 0.0
H567 H 0.50336 0.70505 0.39698 0.0
H568 H 0.43353 0.67452 0.40733 0.0
H569 H 0.44909 0.64968 0.44481 0.0
H570 H 0.42191 0.62728 0.40516 0.0
H571 H 0.50836 0.54839 0.33579 0.0
H572 H 0.52883 0.52437 0.39516 0.0
H573 H 0.50545 0.61627 0.45828 0.0
C574 C 0.46154 0.67059 0.32689 0.0
C575 C 0.45656 0.6633 0.28745 0.0
C576 C 0.46433 0.63107 0.27195 0.0
C577 C 0.47792 0.60703 0.29519 0.0
C578 C 0.48293 0.61527 0.33396 0.0
C579 C 0.47475 0.64623 0.34969 0.0
C580 C 0.48154 0.64851 0.39226 0.0
C581 C 0.51272 0.68001 0.40358 0.0
C582 C 0.4443 0.65008 0.41364 0.0
C583 C 0.49498 0.61408 0.39806 0.0
C584 C 0.49574 0.59528 0.36414 0.0
C585 C 0.50775 0.56288 0.36251 0.0
C586 C 0.51936 0.54944 0.3964 0.0
C587 C 0.51866 0.56827 0.43151 0.0
C588 C 0.50613 0.60098 0.43207 0.0
H589 H 0.15544 0.4275 0.77081 0.0
H590 H 0.13576 0.32369 0.81727 0.0
H591 H 0.10926 0.34777 0.87543 0.0
H592 H 0.18593 0.475 0.8568 0.0
H593 H 0.16317 0.51163 0.84622 0.0
H594 H 0.17887 0.48566 0.80815 0.0
H595 H 0.1106 0.47377 0.77908 0.0
H596 H 0.09472 0.49985 0.81697 0.0
H597 H 0.07097 0.45523 0.80794 0.0
H598 H 0.0869 0.38512 0.93029 0.0
H599 H 0.0688 0.43091 0.97399 0.0
H600 H 0.10447 0.50926 0.89052 0.0
C601 C 0.14571 0.40973 0.79322 0.0
C602 C 0.14804 0.37369 0.78955 0.0
C603 C 0.13415 0.35134 0.81932 0.0
C604 C 0.11924 0.36485 0.85254 0.0
C605 C 0.11813 0.40073 0.85545 0.0
C606 C 0.1308 0.42271 0.82631 0.0
C607 C 0.12688 0.46025 0.83606 0.0
C608 C 0.16604 0.48455 0.83686 0.0
C609 C 0.09914 0.47301 0.80837 0.0
C610 C 0.11034 0.45623 0.87544 0.0
C611 C 0.10541 0.42178 0.88633 0.0
C612 C 0.09071 0.41212 0.9219 0.0
C613 C 0.08073 0.4383 0.9467 0.0
C614 C 0.08555 0.47364 0.93585 0.0
C615 C 0.10051 0.48247 0.89971 0.0
H616 H 0.74829 0.89032 0.8796 0.0
H617 H 0.80727 0.8782 0.9851 0.0
H618 H 0.75904 0.90402 0.02086 0.0
H619 H 0.72332 0.97216 0.90288 0.0
H620 H 0.67676 0.96293 0.88064 0.0
H621 H 0.71416 0.94107 0.86325 0.0
H622 H 0.67135 0.88064 0.87257 0.0
H623 H 0.63367 0.90232 0.88978 0.0
H624 H 0.65085 0.87055 0.91842 0.0
H625 H 0.70954 0.93677 0.04428 0.0
H626 H 0.65732 0.96995 0.05517 0.0
H627 H 0.62715 0.95822 0.93538 0.0
C628 C 0.75065 0.89272 0.91027 0.0
C629 C 0.78134 0.88216 0.9297 0.0
C630 C 0.78367 0.88569 0.9698 0.0
C631 C 0.75654 0.90046 0.9903 0.0
C632 C 0.72699 0.91111 0.9703 0.0
C633 C 0.72344 0.90697 0.93127 0.0
C634 C 0.68928 0.92136 0.91682 0.0
C635 C 0.70164 0.95115 0.88928 0.0
C636 C 0.65952 0.89196 0.89831 0.0
C637 C 0.67486 0.93508 0.95375 0.0
C638 C 0.69722 0.92895 0.98417 0.0
C639 C 0.69142 0.94122 0.02084 0.0
C640 C 0.6619 0.96022 0.02668 0.0
C641 C 0.63827 0.96638 0.99612 0.0
C642 C 0.64455 0.95334 0.95925 0.0
H643 H 0.81598 0.14606 0.45998 0.0
H644 H 0.86885 0.15681 0.34944 0.0
H645 H 0.91905 0.12504 0.37125 0.0
H646 H 0.90222 0.15773 0.51567 0.0
H647 H 0.88324 0.12555 0.54956 0.0
H648 H 0.8518 0.14922 0.52509 0.0
H649 H 0.8108 0.09042 0.50107 0.0
H650 H 0.84212 0.06657 0.52547 0.0
H651 H 0.83321 0.05875 0.47523 0.0
H652 H 0.96466 0.09324 0.40625 0.0
H653 H 0.99975 0.06169 0.45073 0.0
H654 H 0.91552 0.07059 0.53707 0.0
C655 C 0.83825 0.14186 0.44046 0.0
C656 C 0.83865 0.15393 0.40308 0.0
C657 C 0.86792 0.14753 0.37813 0.0
C658 C 0.89661 0.12966 0.39031 0.0
C659 C 0.89541 0.11813 0.42741 0.0
C660 C 0.86681 0.12378 0.45201 0.0
C661 C 0.87153 0.10822 0.49018 0.0
C662 C 0.87757 0.13689 0.52199 0.0
C663 C 0.83739 0.07927 0.49845 0.0
C664 C 0.90739 0.09314 0.48336 0.0
C665 C 0.92093 0.09923 0.44708 0.0
C666 C 0.95419 0.0882 0.43467 0.0
C667 C 0.974 0.07041 0.46005 0.0
C668 C 0.96025 0.06371 0.49712 0.0
C669 C 0.92654 0.0752 0.50875 0.0
H670 H 0.32376 0.67389 0.09123 0.0
H671 H 0.32437 0.63149 0.20412 0.0
H672 H 0.26595 0.59006 0.18806 0.0
H673 H 0.22194 0.67227 0.09046 0.0
H674 H 0.21654 0.66198 0.04024 0.0
H675 H 0.26086 0.68648 0.05892 0.0
H676 H 0.29713 0.64051 0.02825 0.0
H677 H 0.25288 0.6157 0.00972 0.0
H678 H 0.2833 0.59491 0.03915 0.0
H679 H 0.20834 0.5518 0.15994 0.0
H680 H 0.14992 0.52489 0.1246 0.0
H681 H 0.18055 0.59696 0.03358 0.0
C682 C 0.31172 0.65626 0.1129 0.0
C683 C 0.33008 0.65574 0.14873 0.0
C684 C 0.31255 0.63179 0.17581 0.0
C685 C 0.27885 0.6082 0.16717 0.0
C686 C 0.26202 0.60926 0.13165 0.0
C687 C 0.27729 0.63314 0.10522 0.0
C688 C 0.2517 0.63035 0.0702 0.0
C689 C 0.23688 0.66482 0.06464 0.0
C690 C 0.27251 0.61973 0.03474 0.0
C691 C 0.2198 0.60111 0.0812 0.0
C692 C 0.22684 0.58891 0.11648 0.0
C693 C 0.20231 0.56129 0.13242 0.0
C694 C 0.16932 0.54605 0.11204 0.0
C695 C 0.1607 0.55892 0.07648 0.0
C696 C 0.18637 0.58678 0.06085 0.0
H697 H 0.35182 0.43469 0.70749 0.0
H698 H 0.27296 0.38008 0.62215 0.0
H699 H 0.31627 0.4052 0.57151 0.0
H700 H 0.3842 0.51446 0.65413 0.0
H701 H 0.43282 0.51873 0.6707 0.0
H702 H 0.39424 0.49889 0.70011 0.0
H703 H 0.42494 0.44326 0.70445 0.0
H704 H 0.46358 0.46295 0.67517 0.0
H705 H 0.43589 0.4208 0.66138 0.0
H706 H 0.3698 0.43303 0.53054 0.0
H707 H 0.43073 0.45999 0.50202 0.0
H708 H 0.47515 0.49696 0.6138 0.0
C709 C 0.34341 0.42861 0.6781 0.0
C710 C 0.30862 0.40614 0.66859 0.0
C711 C 0.29909 0.39786 0.6299 0.0
C712 C 0.3235 0.41199 0.60102 0.0
C713 C 0.3575 0.43421 0.61131 0.0
C714 C 0.36753 0.44247 0.64891 0.0
C715 C 0.40676 0.4653 0.65231 0.0
C716 C 0.40434 0.50149 0.67038 0.0
C717 C 0.43442 0.44698 0.67464 0.0
C718 C 0.41751 0.46807 0.61079 0.0
C719 C 0.38854 0.45016 0.58763 0.0
C720 C 0.3925 0.44743 0.54836 0.0
C721 C 0.42719 0.46282 0.53242 0.0
C722 C 0.4575 0.4807 0.55565 0.0
C723 C 0.45225 0.48389 0.59528 0.0
H724 H 0.86229 0.71804 0.94964 0.0
H725 H 0.93732 0.77906 0.87065 0.0
H726 H 0.98961 0.748 0.88873 0.0
H727 H 0.93315 0.71485 0.02285 0.0
H728 H 0.91379 0.67039 0.0347 0.0
H729 H 0.8829 0.69822 0.01639 0.0
H730 H 0.8602 0.65223 0.96215 0.0
H731 H 0.89071 0.62417 0.98052 0.0
H732 H 0.89503 0.63714 0.93186 0.0
H733 H 0.03282 0.70872 0.91425 0.0
H734 H 0.06263 0.66256 0.94317 0.0
H735 H 0.95889 0.62801 0.00548 0.0
C736 C 0.88973 0.72472 0.93614 0.0
C737 C 0.89593 0.7505 0.90847 0.0
C738 C 0.93219 0.75898 0.8916 0.0
C739 C 0.96197 0.74166 0.90184 0.0
C740 C 0.95493 0.71618 0.92916 0.0
C741 C 0.91966 0.70767 0.94598 0.0
C742 C 0.91906 0.67857 0.97363 0.0
C743 C 0.9118 0.69129 0.0143 0.0
C744 C 0.88951 0.64611 0.96128 0.0
C745 C 0.95935 0.67175 0.96947 0.0
C746 C 0.97975 0.69384 0.94392 0.0
C747 C 0.01722 0.69145 0.93451 0.0
C748 C 0.03395 0.66529 0.9511 0.0
C749 C 0.01308 0.64199 0.9766 0.0
C750 C 0.97562 0.64574 0.98632 0.0
H751 H 0.4819 0.77399 0.14004 0.0
H752 H 0.3619 0.78051 0.12765 0.0
H753 H 0.37977 0.83767 0.09797 0.0
H754 H 0.5112 0.86382 0.16873 0.0
H755 H 0.55641 0.86803 0.14505 0.0
H756 H 0.53395 0.82608 0.16178 0.0
H757 H 0.53698 0.79865 0.09399 0.0
H758 H 0.55916 0.84064 0.07697 0.0
H759 H 0.51593 0.81736 0.0547 0.0
H760 H 0.41125 0.89554 0.07024 0.0
H761 H 0.45347 0.9508 0.05341 0.0
H762 H 0.55196 0.90815 0.08947 0.0
C763 C 0.45915 0.78733 0.13146 0.0
C764 C 0.42033 0.77207 0.13608 0.0
C765 C 0.39184 0.79076 0.12371 0.0
C766 C 0.40171 0.82352 0.10695 0.0
C767 C 0.44021 0.83765 0.103 0.0
C768 C 0.46845 0.82027 0.11535 0.0
C769 C 0.5077 0.84203 0.11026 0.0
C770 C 0.52853 0.85049 0.14874 0.0
C771 C 0.53132 0.82356 0.08231 0.0
C772 C 0.49718 0.87457 0.09352 0.0
C773 C 0.45816 0.87138 0.08885 0.0
C774 C 0.44184 0.89829 0.07385 0.0
C775 C 0.46599 0.92951 0.06423 0.0
C776 C 0.50587 0.93369 0.0703 0.0
C777 C 0.52153 0.90564 0.08462 0.0
H778 H 0.14144 0.24914 0.72183 0.0
H779 H 0.14782 0.31815 0.62668 0.0
H780 H 0.12262 0.26778 0.58392 0.0
H781 H 0.17104 0.17767 0.67168 0.0
H782 H 0.13912 0.14357 0.69471 0.0
H783 H 0.15504 0.18519 0.71921 0.0
H784 H 0.08497 0.19245 0.72977 0.0
H785 H 0.06882 0.1507 0.70552 0.0
H786 H 0.05289 0.18948 0.68955 0.0
H787 H 0.10177 0.21084 0.55043 0.0
H788 H 0.08261 0.14973 0.52766 0.0
H789 H 0.08745 0.1149 0.64331 0.0
C790 C 0.1368 0.25358 0.69213 0.0
C791 C 0.14681 0.28762 0.67753 0.0
C792 C 0.14077 0.29234 0.63841 0.0
C793 C 0.12634 0.26389 0.61389 0.0
C794 C 0.11777 0.23064 0.62878 0.0
C795 C 0.12236 0.22518 0.66697 0.0
C796 C 0.11191 0.18623 0.67485 0.0
C797 C 0.14633 0.17236 0.69107 0.0
C798 C 0.0776 0.17931 0.70151 0.0
C799 C 0.10139 0.17084 0.63505 0.0
C800 C 0.10504 0.19716 0.60912 0.0
C801 C 0.09848 0.18998 0.57047 0.0
C802 C 0.08777 0.155 0.5578 0.0
C803 C 0.08348 0.12724 0.58356 0.0
C804 C 0.09022 0.13543 0.62287 0.0
H805 H 0.68431 0.26955 0.49388 0.0
H806 H 0.74335 0.29808 0.38904 0.0
H807 H 0.71631 0.35243 0.3886 0.0
H808 H 0.59814 0.30097 0.46873 0.0
H809 H 0.59008 0.31638 0.51632 0.0
H810 H 0.61475 0.27999 0.5089 0.0
H811 H 0.67198 0.31283 0.54918 0.0
H812 H 0.64744 0.34927 0.55677 0.0
H813 H 0.69443 0.35629 0.53658 0.0
H814 H 0.68475 0.40499 0.40088 0.0
H815 H 0.64793 0.45014 0.42329 0.0
H816 H 0.60656 0.38584 0.51793 0.0
C817 C 0.69174 0.28744 0.47104 0.0
C818 C 0.71686 0.28008 0.44223 0.0
C819 C 0.72506 0.30354 0.41208 0.0
C820 C 0.70968 0.33445 0.41146 0.0
C821 C 0.68554 0.3412 0.4407 0.0
C822 C 0.6763 0.31821 0.46975 0.0
C823 C 0.64895 0.33125 0.49726 0.0
C824 C 0.61072 0.30562 0.49782 0.0
C825 C 0.66678 0.3378 0.53731 0.0
C826 C 0.64456 0.36533 0.47934 0.0
C827 C 0.66603 0.37068 0.44682 0.0
C828 C 0.66755 0.40093 0.42609 0.0
C829 C 0.64661 0.4264 0.439 0.0
C830 C 0.62422 0.42122 0.47203 0.0
C831 C 0.62309 0.39021 0.49227 0.0
loop_
_geom_bond_atom_site_label_1
_geom_bond_atom_site_label_2
_geom_bond_distance
_geom_bond_site_symmetry_2
_ccdc_geom_bond_type
H0 C7 0.929 . S
H1 C10 0.930 . S
H2 C12 0.929 . S
H3 C4 0.969 . S
C4 H3 0.969 . S
C4 O5 1.550 . S
C4 H6 0.973 . S
O5 C4 1.550 . S
O5 C11 1.412 . S
H6 C4 0.973 . S
C7 H0 0.929 . S
C7 C8 1.400 . S
C7 C9 1.364 . S
C8 C7 1.400 . S
C8 C12 1.377 . S
C9 C7 1.364 . S
C9 C10 1.374 . S
C10 H1 0.930 . S
C10 C9 1.374 . S
C10 C11 1.383 . S
C11 O5 1.412 . S
C11 C10 1.383 . S
C11 C12 1.394 . S
C12 H2 0.929 . S
C12 C8 1.377 . S
C12 C11 1.394 . S
H13 C20 0.929 . S
H14 C23 0.930 . S
H15 C25 0.929 . S
H16 C17 0.969 . S
C17 H16 0.969 . S
C17 O18 1.550 . S
C17 H19 0.973 . S
O18 C17 1.550 . S
O18 C24 1.412 . S
H19 C17 0.973 . S
C20 H13 0.929 . S
C20 C21 1.400 . S
C20 C22 1.364 . S
C21 C20 1.400 . S
C21 C25 1.377 . S
C22 C20 1.364 . S
C22 C23 1.374 . S
C23 H14 0.930 . S
C23 C22 1.374 . S
C23 C24 1.383 . S
C24 O18 1.412 . S
C24 C23 1.383 . S
C24 C25 1.394 . S
C25 H15 0.929 . S
C25 C21 1.377 . S
C25 C24 1.394 . S
H26 C33 0.929 . S
H27 C36 0.930 . S
H28 C38 0.929 . S
H29 C30 0.969 . S
C30 H29 0.969 . S
C30 O31 1.550 . S
C30 H32 0.973 . S
O31 C30 1.550 . S
O31 C37 1.412 . S
H32 C30 0.973 . S
C33 H26 0.929 . S
C33 C34 1.400 . S
C33 C35 1.364 . S
C34 C33 1.400 . S
C34 C38 1.377 . S
C35 C33 1.364 . S
C35 C36 1.374 . S
C36 H27 0.930 . S
C36 C35 1.374 . S
C36 C37 1.383 . S
C37 O31 1.412 . S
C37 C36 1.383 . S
C37 C38 1.394 . S
C38 H28 0.929 . S
C38 C34 1.377 . S
C38 C37 1.394 . S
H39 C46 0.929 . S
H40 C49 0.930 . S
H41 C51 0.929 . S
H42 C43 0.969 . S
C43 H42 0.969 . S
C43 O44 1.550 . S
C43 H45 0.973 . S
O44 C43 1.550 . S
O44 C50 1.412 . S
H45 C43 0.973 . S
C46 H39 0.929 . S
C46 C47 1.400 . S
C46 C48 1.364 . S
C47 C46 1.400 . S
C47 C51 1.377 . S
C48 C46 1.364 . S
C48 C49 1.374 . S
C49 H40 0.930 . S
C49 C48 1.374 . S
C49 C50 1.383 . S
C50 O44 1.412 . S
C50 C49 1.383 . S
C50 C51 1.394 . S
C51 H41 0.929 . S
C51 C47 1.377 . S
C51 C50 1.394 . S
H52 C59 0.929 . S
H53 C62 0.930 . S
H54 C64 0.929 . S
H55 C56 0.969 . S
C56 H55 0.969 . S
C56 O57 1.550 . S
C56 H58 0.973 . S
O57 C56 1.550 . S
O57 C63 1.412 . S
H58 C56 0.973 . S
C59 H52 0.929 . S
C59 C60 1.400 . S
C59 C61 1.364 . S
C60 C59 1.400 . S
C60 C64 1.377 . S
C61 C59 1.364 . S
C61 C62 1.374 . S
C62 H53 0.930 . S
C62 C61 1.374 . S
C62 C63 1.383 . S
C63 O57 1.412 . S
C63 C62 1.383 . S
C63 C64 1.394 . S
C64 H54 0.929 . S
C64 C60 1.377 . S
C64 C63 1.394 . S
H65 C72 0.929 . S
H66 C75 0.930 . S
H67 C77 0.929 . S
H68 C69 0.969 . S
C69 H68 0.969 . S
C69 O70 1.550 . S
C69 H71 0.973 . S
O70 C69 1.550 . S
O70 C76 1.412 . S
H71 C69 0.973 . S
C72 H65 0.929 . S
C72 C73 1.400 . S
C72 C74 1.364 . S
C73 C72 1.400 . S
C73 C77 1.377 . S
C74 C72 1.364 . S
C74 C75 1.374 . S
C75 H66 0.930 . S
C75 C74 1.374 . S
C75 C76 1.383 . S
C76 O70 1.412 . S
C76 C75 1.383 . S
C76 C77 1.394 . S
C77 H67 0.929 . S
C77 C73 1.377 . S
C77 C76 1.394 . S
H78 C85 0.929 . S
H79 C88 0.930 . S
H80 C90 0.929 . S
H81 C82 0.969 . S
C82 H81 0.969 . S
C82 O83 1.550 . S
C82 H84 0.973 . S
O83 C82 1.550 . S
O83 C89 1.412 . S
H84 C82 0.973 . S
C85 H78 0.929 . S
C85 C86 1.400 . S
C85 C87 1.364 . S
C86 C85 1.400 . S
C86 C90 1.377 . S
C87 C85 1.364 . S
C87 C88 1.374 . S
C88 H79 0.930 . S
C88 C87 1.374 . S
C88 C89 1.383 . S
C89 O83 1.412 . S
C89 C88 1.383 . S
C89 C90 1.394 . S
C90 H80 0.929 . S
C90 C86 1.377 . S
C90 C89 1.394 . S
H91 C98 0.929 . S
H92 C101 0.930 . S
H93 C103 0.929 . S
H94 C95 0.969 . S
C95 H94 0.969 . S
C95 O96 1.550 . S
C95 H97 0.973 . S
O96 C95 1.550 . S
O96 C102 1.412 . S
H97 C95 0.973 . S
C98 H91 0.929 . S
C98 C99 1.400 . S
C98 C100 1.364 . S
C99 C98 1.400 . S
C99 C103 1.377 . S
C100 C98 1.364 . S
C100 C101 1.374 . S
C101 H92 0.930 . S
C101 C100 1.374 . S
C101 C102 1.383 . S
C102 O96 1.412 . S
C102 C101 1.383 . S
C102 C103 1.394 . S
C103 H93 0.929 . S
C103 C99 1.377 . S
C103 C102 1.394 . S
Dy104 O108 2.398 . S
Dy104 O109 2.491 . S
Dy104 O110 2.403 . S
Dy104 O111 2.664 . S
Dy104 O115 2.326 . S
Dy104 O119 2.310 1_455 S
Dy104 O120 2.351 1_545 S
C105 O116 1.185 . S
C105 O117 1.355 . S
C106 O108 1.185 . S
C106 O109 1.355 . S
Dy107 O111 2.310 1_655 S
Dy107 O114 2.351 1_655 S
Dy107 O116 2.398 1_545 S
Dy107 O117 2.491 1_545 S
Dy107 O118 2.403 . S
Dy107 O119 2.664 . S
Dy107 O121 2.326 1_545 S
O108 Dy104 2.398 . S
O108 C106 1.185 . S
O109 Dy104 2.491 . S
O109 C106 1.355 . S
O110 Dy104 2.403 . S
O110 C112 1.254 . S
O111 Dy104 2.664 . S
O111 Dy107 2.310 1_455 S
O111 C112 1.268 . S
C112 O110 1.254 . S
C112 O111 1.268 . S
C113 O118 1.254 . S
C113 O119 1.268 . S
O114 Dy107 2.351 1_455 S
O114 C122 1.249 . S
O115 Dy104 2.326 . S
O115 C122 1.267 . S
O116 C105 1.185 . S
O116 Dy107 2.398 1_565 S
O117 C105 1.355 . S
O117 Dy107 2.491 1_565 S
O118 Dy107 2.403 . S
O118 C113 1.254 . S
O119 Dy104 2.310 1_655 S
O119 Dy107 2.664 . S
O119 C113 1.268 . S
O120 Dy104 2.351 1_565 S
O120 C123 1.249 1_455 S
O121 Dy107 2.326 1_565 S
O121 C123 1.267 . S
C122 O114 1.249 . S
C122 O115 1.267 . S
C123 O120 1.249 1_655 S
C123 O121 1.267 . S
Dy124 O128 2.398 . S
Dy124 O129 2.491 . S
Dy124 O130 2.403 1_545 S
Dy124 O131 2.664 1_545 S
Dy124 O135 2.326 . S
Dy124 O139 2.310 . S
Dy124 O140 2.351 1_545 S
C125 O136 1.185 1_565 S
C125 O137 1.355 . S
C126 O128 1.185 . S
C126 O129 1.355 . S
Dy127 O131 2.310 1_546 S
Dy127 O134 2.351 1_556 S
Dy127 O136 2.398 . S
Dy127 O137 2.491 1_545 S
Dy127 O138 2.403 . S
Dy127 O139 2.664 1_556 S
Dy127 O141 2.326 1_545 S
O128 Dy124 2.398 . S
O128 C126 1.185 . S
O129 Dy124 2.491 . S
O129 C126 1.355 . S
O130 Dy124 2.403 1_565 S
O130 C132 1.254 . S
O131 Dy124 2.664 1_565 S
O131 Dy127 2.310 1_564 S
O131 C132 1.268 . S
C132 O130 1.254 . S
C132 O131 1.268 . S
C133 O138 1.254 . S
C133 O139 1.268 1_556 S
O134 Dy127 2.351 1_554 S
O134 C142 1.249 . S
O135 Dy124 2.326 . S
O135 C142 1.267 . S
O136 C125 1.185 1_545 S
O136 Dy127 2.398 . S
O137 C125 1.355 . S
O137 Dy127 2.491 1_565 S
O138 Dy127 2.403 . S
O138 C133 1.254 . S
O139 Dy124 2.310 . S
O139 Dy127 2.664 1_554 S
O139 C133 1.268 1_554 S
O140 Dy124 2.351 1_565 S
O140 C143 1.249 1_554 S
O141 Dy127 2.326 1_565 S
O141 C143 1.267 . S
C142 O134 1.249 . S
C142 O135 1.267 . S
C143 O140 1.249 1_556 S
C143 O141 1.267 . S
Dy144 O148 2.398 . S
Dy144 O149 2.491 . S
Dy144 O150 2.403 . S
Dy144 O151 2.664 . S
Dy144 O155 2.326 . S
Dy144 O159 2.310 . S
Dy144 O160 2.351 . S
C145 O156 1.185 . S
C145 O157 1.355 . S
C146 O148 1.185 . S
C146 O149 1.355 . S
Dy147 O151 2.310 . S
Dy147 O154 2.351 . S
Dy147 O156 2.398 . S
Dy147 O157 2.491 . S
Dy147 O158 2.403 . S
Dy147 O159 2.664 . S
Dy147 O161 2.326 . S
O148 Dy144 2.398 . S
O148 C146 1.185 . S
O149 Dy144 2.491 . S
O149 C146 1.355 . S
O150 Dy144 2.403 . S
O150 C152 1.254 . S
O151 Dy144 2.664 . S
O151 Dy147 2.310 . S
O151 C152 1.268 . S
C152 O150 1.254 . S
C152 O151 1.268 . S
C153 O158 1.254 . S
C153 O159 1.268 . S
O154 Dy147 2.351 . S
O154 C162 1.249 . S
O155 Dy144 2.326 . S
O155 C162 1.267 . S
O156 C145 1.185 . S
O156 Dy147 2.398 . S
O157 C145 1.355 . S
O157 Dy147 2.491 . S
O158 Dy147 2.403 . S
O158 C153 1.254 . S
O159 Dy144 2.310 . S
O159 Dy147 2.664 . S
O159 C153 1.268 . S
O160 Dy144 2.351 . S
O160 C163 1.249 . S
O161 Dy147 2.326 . S
O161 C163 1.267 . S
C162 O154 1.249 . S
C162 O155 1.267 . S
C163 O160 1.249 . S
C163 O161 1.267 . S
Dy164 O168 2.398 . S
Dy164 O169 2.491 . S
Dy164 O170 2.403 . S
Dy164 O171 2.664 . S
Dy164 O175 2.326 . S
Dy164 O179 2.310 . S
Dy164 O180 2.351 1_455 S
C165 O176 1.185 . S
C165 O177 1.355 1_556 S
C166 O168 1.185 . S
C166 O169 1.355 . S
Dy167 O171 2.310 . S
Dy167 O174 2.351 . S
Dy167 O176 2.398 1_454 S
Dy167 O177 2.491 1_455 S
Dy167 O178 2.403 1_554 S
Dy167 O179 2.664 . S
Dy167 O181 2.326 1_454 S
O168 Dy164 2.398 . S
O168 C166 1.185 . S
O169 Dy164 2.491 . S
O169 C166 1.355 . S
O170 Dy164 2.403 . S
O170 C172 1.254 . S
O171 Dy164 2.664 . S
O171 Dy167 2.310 . S
O171 C172 1.268 . S
C172 O170 1.254 . S
C172 O171 1.268 . S
C173 O178 1.254 . S
C173 O179 1.268 1_556 S
O174 Dy167 2.351 . S
O174 C182 1.249 . S
O175 Dy164 2.326 . S
O175 C182 1.267 . S
O176 C165 1.185 . S
O176 Dy167 2.398 1_656 S
O177 C165 1.355 1_554 S
O177 Dy167 2.491 1_655 S
O178 Dy167 2.403 1_556 S
O178 C173 1.254 . S
O179 Dy164 2.310 . S
O179 Dy167 2.664 . S
O179 C173 1.268 1_554 S
O180 Dy164 2.351 1_655 S
O180 C183 1.249 . S
O181 Dy167 2.326 1_656 S
O181 C183 1.267 1_556 S
C182 O174 1.249 . S
C182 O175 1.267 . S
C183 O180 1.249 . S
C183 O181 1.267 1_554 S
H184 C196 0.930 . S
H185 C198 0.930 . S
H186 C199 0.930 . S
H187 C203 0.959 . S
H188 C203 0.959 . S
H189 C203 0.961 . S
H190 C204 0.960 . S
H191 C204 0.961 . S
H192 C204 0.959 . S
H193 C207 0.929 . S
H194 C208 0.931 . S
H195 C210 0.930 . S
C196 H184 0.930 . S
C196 C197 1.399 . S
C196 C201 1.399 . S
C197 C196 1.399 . S
C197 C198 1.376 . S
C198 H185 0.930 . S
C198 C197 1.376 . S
C198 C199 1.388 . S
C199 H186 0.930 . S
C199 C198 1.388 . S
C199 C200 1.390 . S
C200 C199 1.390 . S
C200 C201 1.394 . S
C200 C206 1.465 . S
C201 C196 1.399 . S
C201 C200 1.394 . S
C201 C202 1.516 . S
C202 C201 1.516 . S
C202 C203 1.502 . S
C202 C204 1.561 . S
C202 C205 1.526 . S
C203 H187 0.959 . S
C203 H188 0.959 . S
C203 H189 0.961 . S
C203 C202 1.502 . S
C204 H190 0.960 . S
C204 H191 0.961 . S
C204 H192 0.959 . S
C204 C202 1.561 . S
C205 C202 1.526 . S
C205 C206 1.396 . S
C205 C210 1.390 . S
C206 C200 1.465 . S
C206 C205 1.396 . S
C206 C207 1.399 . S
C207 H193 0.929 . S
C207 C206 1.399 . S
C207 C208 1.385 . S
C208 H194 0.931 . S
C208 C207 1.385 . S
C208 C209 1.389 . S
C209 C208 1.389 . S
C209 C210 1.387 . S
C210 H195 0.930 . S
C210 C205 1.390 . S
C210 C209 1.387 . S
H211 C223 0.930 . S
H212 C225 0.930 . S
H213 C226 0.930 . S
H214 C230 0.959 . S
H215 C230 0.959 . S
H216 C230 0.961 . S
H217 C231 0.960 . S
H218 C231 0.961 . S
H219 C231 0.959 . S
H220 C234 0.929 1_545 S
H221 C235 0.931 1_545 S
H222 C237 0.930 . S
C223 H211 0.930 . S
C223 C224 1.399 . S
C223 C228 1.399 . S
C224 C223 1.399 . S
C224 C225 1.376 . S
C225 H212 0.930 . S
C225 C224 1.376 . S
C225 C226 1.388 . S
C226 H213 0.930 . S
C226 C225 1.388 . S
C226 C227 1.390 . S
C227 C226 1.390 . S
C227 C228 1.394 . S
C227 C233 1.465 . S
C228 C223 1.399 . S
C228 C227 1.394 . S
C228 C229 1.516 . S
C229 C228 1.516 . S
C229 C230 1.502 . S
C229 C231 1.561 . S
C229 C232 1.526 . S
C230 H214 0.959 . S
C230 H215 0.959 . S
C230 H216 0.961 . S
C230 C229 1.502 . S
C231 H217 0.960 . S
C231 H218 0.961 . S
C231 H219 0.959 . S
C231 C229 1.561 . S
C232 C229 1.526 . S
C232 C233 1.396 . S
C232 C237 1.390 . S
C233 C227 1.465 . S
C233 C232 1.396 . S
C233 C234 1.399 . S
C234 H220 0.929 1_565 S
C234 C233 1.399 . S
C234 C235 1.385 . S
C235 H221 0.931 1_565 S
C235 C234 1.385 . S
C235 C236 1.389 . S
C236 C235 1.389 . S
C236 C237 1.387 . S
C237 H222 0.930 . S
C237 C232 1.390 . S
C237 C236 1.387 . S
H238 C250 0.930 . S
H239 C252 0.930 . S
H240 C253 0.930 . S
H241 C257 0.959 . S
H242 C257 0.959 . S
H243 C257 0.961 . S
H244 C258 0.960 . S
H245 C258 0.961 . S
H246 C258 0.959 . S
H247 C261 0.929 . S
H248 C262 0.931 . S
H249 C264 0.930 . S
C250 H238 0.930 . S
C250 C251 1.399 . S
C250 C255 1.399 . S
C251 C250 1.399 . S
C251 C252 1.376 . S
C252 H239 0.930 . S
C252 C251 1.376 . S
C252 C253 1.388 . S
C253 H240 0.930 . S
C253 C252 1.388 . S
C253 C254 1.390 . S
C254 C253 1.390 . S
C254 C255 1.394 . S
C254 C260 1.465 . S
C255 C250 1.399 . S
C255 C254 1.394 . S
C255 C256 1.516 . S
C256 C255 1.516 . S
C256 C257 1.502 . S
C256 C258 1.561 . S
C256 C259 1.526 . S
C257 H241 0.959 . S
C257 H242 0.959 . S
C257 H243 0.961 . S
C257 C256 1.502 . S
C258 H244 0.960 . S
C258 H245 0.961 . S
C258 H246 0.959 . S
C258 C256 1.561 . S
C259 C256 1.526 . S
C259 C260 1.396 . S
C259 C264 1.390 . S
C260 C254 1.465 . S
C260 C259 1.396 . S
C260 C261 1.399 . S
C261 H247 0.929 . S
C261 C260 1.399 . S
C261 C262 1.385 . S
C262 H248 0.931 . S
C262 C261 1.385 . S
C262 C263 1.389 . S
C263 C262 1.389 . S
C263 C264 1.387 . S
C264 H249 0.930 . S
C264 C259 1.390 . S
C264 C263 1.387 . S
H265 C277 0.930 . S
H266 C279 0.930 . S
H267 C280 0.930 . S
H268 C284 0.959 . S
H269 C284 0.959 . S
H270 C284 0.961 . S
H271 C285 0.960 . S
H272 C285 0.961 . S
H273 C285 0.959 . S
H274 C288 0.926 1_455 S
H275 C289 0.931 . S
H276 C291 0.930 . S
C277 H265 0.930 . S
C277 C278 1.399 . S
C277 C282 1.399 . S
C278 C277 1.399 . S
C278 C279 1.376 . S
C279 H266 0.930 . S
C279 C278 1.376 . S
C279 C280 1.388 . S
C280 H267 0.930 . S
C280 C279 1.388 . S
C280 C281 1.390 . S
C281 C280 1.390 . S
C281 C282 1.394 . S
C281 C287 1.465 . S
C282 C277 1.399 . S
C282 C281 1.394 . S
C282 C283 1.516 . S
C283 C282 1.516 . S
C283 C284 1.502 . S
C283 C285 1.561 . S
C283 C286 1.526 . S
C284 H268 0.959 . S
C284 H269 0.959 . S
C284 H270 0.961 . S
C284 C283 1.502 . S
C285 H271 0.960 . S
C285 H272 0.961 . S
C285 H273 0.959 . S
C285 C283 1.561 . S
C286 C283 1.526 . S
C286 C287 1.396 . S
C286 C291 1.390 . S
C287 C281 1.465 . S
C287 C286 1.396 . S
C287 C288 1.407 . S
C288 H274 0.926 1_655 S
C288 C287 1.407 . S
C288 C289 1.381 1_655 S
C289 H275 0.931 . S
C289 C288 1.381 1_455 S
C289 C290 1.389 1_455 S
C290 C289 1.389 1_655 S
C290 C291 1.387 . S
C291 H276 0.930 . S
C291 C286 1.390 . S
C291 C290 1.387 . S
H292 C304 0.930 . S
H293 C306 0.930 . S
H294 C307 0.930 . S
H295 C311 0.959 . S
H296 C311 0.959 . S
H297 C311 0.961 . S
H298 C312 0.960 . S
H299 C312 0.961 . S
H300 C312 0.959 . S
H301 C315 0.929 . S
H302 C316 0.931 . S
H303 C318 0.930 . S
C304 H292 0.930 . S
C304 C305 1.399 . S
C304 C309 1.399 . S
C305 C304 1.399 . S
C305 C306 1.376 . S
C306 H293 0.930 . S
C306 C305 1.376 . S
C306 C307 1.388 . S
C307 H294 0.930 . S
C307 C306 1.388 . S
C307 C308 1.390 . S
C308 C307 1.390 . S
C308 C309 1.394 . S
C308 C314 1.465 . S
C309 C304 1.399 . S
C309 C308 1.394 . S
C309 C310 1.516 . S
C310 C309 1.516 . S
C310 C311 1.502 . S
C310 C312 1.561 . S
C310 C313 1.526 . S
C311 H295 0.959 . S
C311 H296 0.959 . S
C311 H297 0.961 . S
C311 C310 1.502 . S
C312 H298 0.960 . S
C312 H299 0.961 . S
C312 H300 0.959 . S
C312 C310 1.561 . S
C313 C310 1.526 . S
C313 C314 1.396 . S
C313 C318 1.390 . S
C314 C308 1.465 . S
C314 C313 1.396 . S
C314 C315 1.399 . S
C315 H301 0.929 . S
C315 C314 1.399 . S
C315 C316 1.385 . S
C316 H302 0.931 . S
C316 C315 1.385 . S
C316 C317 1.389 . S
C317 C316 1.389 . S
C317 C318 1.387 . S
C318 H303 0.930 . S
C318 C313 1.390 . S
C318 C317 1.387 . S
H319 C331 0.930 . S
H320 C333 0.930 . S
H321 C334 0.930 . S
H322 C338 0.959 . S
H323 C338 0.959 . S
H324 C338 0.961 . S
H325 C339 0.960 . S
H326 C339 0.961 . S
H327 C339 0.959 . S
H328 C342 0.929 . S
H329 C343 0.931 . S
H330 C345 0.930 . S
C331 H319 0.930 . S
C331 C332 1.399 . S
C331 C336 1.399 . S
C332 C331 1.399 . S
C332 C333 1.376 . S
C333 H320 0.930 . S
C333 C332 1.376 . S
C333 C334 1.388 . S
C334 H321 0.930 . S
C334 C333 1.388 . S
C334 C335 1.390 . S
C335 C334 1.390 . S
C335 C336 1.394 . S
C335 C341 1.465 . S
C336 C331 1.399 . S
C336 C335 1.394 . S
C336 C337 1.516 . S
C337 C336 1.516 . S
C337 C338 1.502 . S
C337 C339 1.561 . S
C337 C340 1.526 . S
C338 H322 0.959 . S
C338 H323 0.959 . S
C338 H324 0.961 . S
C338 C337 1.502 . S
C339 H325 0.960 . S
C339 H326 0.961 . S
C339 H327 0.959 . S
C339 C337 1.561 . S
C340 C337 1.526 . S
C340 C341 1.396 . S
C340 C345 1.390 . S
C341 C335 1.465 . S
C341 C340 1.396 . S
C341 C342 1.399 . S
C342 H328 0.929 . S
C342 C341 1.399 . S
C342 C343 1.385 . S
C343 H329 0.931 . S
C343 C342 1.385 . S
C343 C344 1.389 . S
C344 C343 1.389 . S
C344 C345 1.387 . S
C345 H330 0.930 . S
C345 C340 1.390 . S
C345 C344 1.387 . S
H346 C358 0.930 . S
H347 C360 0.930 . S
H348 C361 0.930 . S
H349 C365 0.959 . S
H350 C365 0.959 . S
H351 C365 0.961 . S
H352 C366 0.960 . S
H353 C366 0.961 . S
H354 C366 0.959 . S
H355 C369 0.929 . S
H356 C370 0.931 . S
H357 C372 0.930 . S
C358 H346 0.930 . S
C358 C359 1.399 . S
C358 C363 1.399 . S
C359 C358 1.399 . S
C359 C360 1.376 . S
C360 H347 0.930 . S
C360 C359 1.376 . S
C360 C361 1.388 . S
C361 H348 0.930 . S
C361 C360 1.388 . S
C361 C362 1.390 . S
C362 C361 1.390 . S
C362 C363 1.394 . S
C362 C368 1.465 . S
C363 C358 1.399 . S
C363 C362 1.394 . S
C363 C364 1.516 . S
C364 C363 1.516 . S
C364 C365 1.502 . S
C364 C366 1.561 . S
C364 C367 1.526 . S
C365 H349 0.959 . S
C365 H350 0.959 . S
C365 H351 0.961 . S
C365 C364 1.502 . S
C366 H352 0.960 . S
C366 H353 0.961 . S
C366 H354 0.959 . S
C366 C364 1.561 . S
C367 C364 1.526 . S
C367 C368 1.396 . S
C367 C372 1.390 . S
C368 C362 1.465 . S
C368 C367 1.396 . S
C368 C369 1.399 . S
C369 H355 0.929 . S
C369 C368 1.399 . S
C369 C370 1.385 1_556 S
C370 H356 0.931 . S
C370 C369 1.385 1_554 S
C370 C371 1.389 . S
C371 C370 1.389 . S
C371 C372 1.387 1_554 S
C372 H357 0.930 . S
C372 C367 1.390 . S
C372 C371 1.387 1_556 S
H373 C385 0.930 . S
H374 C387 0.930 . S
H375 C388 0.930 . S
H376 C392 0.959 . S
H377 C392 0.959 . S
H378 C392 0.961 . S
H379 C393 0.960 . S
H380 C393 0.961 . S
H381 C393 0.959 . S
H382 C396 0.929 . S
H383 C397 0.931 . S
H384 C399 0.930 . S
C385 H373 0.930 . S
C385 C386 1.399 . S
C385 C390 1.399 . S
C386 C385 1.399 . S
C386 C387 1.376 . S
C387 H374 0.930 . S
C387 C386 1.376 . S
C387 C388 1.388 . S
C388 H375 0.930 . S
C388 C387 1.388 . S
C388 C389 1.390 . S
C389 C388 1.390 . S
C389 C390 1.394 . S
C389 C395 1.465 . S
C390 C385 1.399 . S
C390 C389 1.394 . S
C390 C391 1.516 . S
C391 C390 1.516 . S
C391 C392 1.502 . S
C391 C393 1.561 . S
C391 C394 1.526 . S
C392 H376 0.959 . S
C392 H377 0.959 . S
C392 H378 0.961 . S
C392 C391 1.502 . S
C393 H379 0.960 . S
C393 H380 0.961 . S
C393 H381 0.959 . S
C393 C391 1.561 . S
C394 C391 1.526 . S
C394 C395 1.396 . S
C394 C399 1.390 . S
C395 C389 1.465 . S
C395 C394 1.396 . S
C395 C396 1.399 . S
C396 H382 0.929 . S
C396 C395 1.399 . S
C396 C397 1.385 . S
C397 H383 0.931 . S
C397 C396 1.385 . S
C397 C398 1.389 . S
C398 C397 1.389 . S
C398 C399 1.387 . S
C399 H384 0.930 . S
C399 C394 1.390 . S
C399 C398 1.387 . S
H400 C412 0.930 . S
H401 C414 0.930 . S
H402 C415 0.930 . S
H403 C419 0.959 . S
H404 C419 0.959 . S
H405 C419 0.961 . S
H406 C420 0.960 . S
H407 C420 0.961 . S
H408 C420 0.959 . S
H409 C423 0.929 . S
H410 C424 0.931 . S
H411 C426 0.930 . S
C412 H400 0.930 . S
C412 C413 1.399 . S
C412 C417 1.399 . S
C413 C412 1.399 . S
C413 C414 1.376 . S
C414 H401 0.930 . S
C414 C413 1.376 . S
C414 C415 1.388 . S
C415 H402 0.930 . S
C415 C414 1.388 . S
C415 C416 1.390 . S
C416 C415 1.390 . S
C416 C417 1.394 . S
C416 C422 1.465 . S
C417 C412 1.399 . S
C417 C416 1.394 . S
C417 C418 1.516 . S
C418 C417 1.516 . S
C418 C419 1.502 . S
C418 C420 1.561 . S
C418 C421 1.526 . S
C419 H403 0.959 . S
C419 H404 0.959 . S
C419 H405 0.961 . S
C419 C418 1.502 . S
C420 H406 0.960 . S
C420 H407 0.961 . S
C420 H408 0.959 . S
C420 C418 1.561 . S
C421 C418 1.526 . S
C421 C422 1.396 . S
C421 C426 1.390 . S
C422 C416 1.465 . S
C422 C421 1.396 . S
C422 C423 1.399 . S
C423 H409 0.929 . S
C423 C422 1.399 . S
C423 C424 1.385 . S
C424 H410 0.931 . S
C424 C423 1.385 . S
C424 C425 1.389 . S
C425 C424 1.389 . S
C425 C426 1.387 . S
C426 H411 0.930 . S
C426 C421 1.390 . S
C426 C425 1.387 . S
H427 C439 0.930 . S
H428 C441 0.930 . S
H429 C442 0.930 . S
H430 C446 0.959 . S
H431 C446 0.959 . S
H432 C446 0.961 . S
H433 C447 0.960 . S
H434 C447 0.961 . S
H435 C447 0.959 . S
H436 C450 0.929 1_554 S
H437 C451 0.931 . S
H438 C453 0.930 . S
C439 H427 0.930 . S
C439 C440 1.399 . S
C439 C444 1.399 . S
C440 C439 1.399 . S
C440 C441 1.376 . S
C441 H428 0.930 . S
C441 C440 1.376 . S
C441 C442 1.388 . S
C442 H429 0.930 . S
C442 C441 1.388 . S
C442 C443 1.390 . S
C443 C442 1.390 . S
C443 C444 1.394 . S
C443 C449 1.465 . S
C444 C439 1.399 . S
C444 C443 1.394 . S
C444 C445 1.516 . S
C445 C444 1.516 . S
C445 C446 1.502 . S
C445 C447 1.561 . S
C445 C448 1.526 . S
C446 H430 0.959 . S
C446 H431 0.959 . S
C446 H432 0.961 . S
C446 C445 1.502 . S
C447 H433 0.960 . S
C447 H434 0.961 . S
C447 H435 0.959 . S
C447 C445 1.561 . S
C448 C445 1.526 . S
C448 C449 1.396 . S
C448 C453 1.390 . S
C449 C443 1.465 . S
C449 C448 1.396 . S
C449 C450 1.399 . S
C450 H436 0.929 1_556 S
C450 C449 1.399 . S
C450 C451 1.385 1_556 S
C451 H437 0.931 . S
C451 C450 1.385 1_554 S
C451 C452 1.389 1_554 S
C452 C451 1.389 1_556 S
C452 C453 1.387 . S
C453 H438 0.930 . S
C453 C448 1.390 . S
C453 C452 1.387 . S
H454 C466 0.930 . S
H455 C468 0.930 . S
H456 C469 0.930 . S
H457 C473 0.959 . S
H458 C473 0.959 . S
H459 C473 0.961 . S
H460 C474 0.960 . S
H461 C474 0.961 . S
H462 C474 0.959 . S
H463 C477 0.929 . S
H464 C478 0.931 . S
H465 C480 0.930 . S
C466 H454 0.930 . S
C466 C467 1.399 . S
C466 C471 1.399 . S
C467 C466 1.399 . S
C467 C468 1.376 . S
C468 H455 0.930 . S
C468 C467 1.376 . S
C468 C469 1.388 . S
C469 H456 0.930 . S
C469 C468 1.388 . S
C469 C470 1.390 . S
C470 C469 1.390 . S
C470 C471 1.394 . S
C470 C476 1.465 . S
C471 C466 1.399 . S
C471 C470 1.394 . S
C471 C472 1.516 . S
C472 C471 1.516 . S
C472 C473 1.502 . S
C472 C474 1.561 . S
C472 C475 1.526 . S
C473 H457 0.959 . S
C473 H458 0.959 . S
C473 H459 0.961 . S
C473 C472 1.502 . S
C474 H460 0.960 . S
C474 H461 0.961 . S
C474 H462 0.959 . S
C474 C472 1.561 . S
C475 C472 1.526 . S
C475 C476 1.396 . S
C475 C480 1.390 . S
C476 C470 1.465 . S
C476 C475 1.396 . S
C476 C477 1.399 . S
C477 H463 0.929 . S
C477 C476 1.399 . S
C477 C478 1.385 . S
C478 H464 0.931 . S
C478 C477 1.385 . S
C478 C479 1.389 . S
C479 C478 1.389 . S
C479 C480 1.387 . S
C480 H465 0.930 . S
C480 C475 1.390 . S
C480 C479 1.387 . S
H481 C493 0.930 . S
H482 C495 0.930 . S
H483 C496 0.930 . S
H484 C500 0.959 . S
H485 C500 0.959 . S
H486 C500 0.961 . S
H487 C501 0.960 . S
H488 C501 0.961 . S
H489 C501 0.959 . S
H490 C504 0.929 . S
H491 C505 0.931 . S
H492 C507 0.930 . S
C493 H481 0.930 . S
C493 C494 1.399 . S
C493 C498 1.399 . S
C494 C493 1.399 . S
C494 C495 1.376 . S
C495 H482 0.930 . S
C495 C494 1.376 . S
C495 C496 1.388 . S
C496 H483 0.930 . S
C496 C495 1.388 . S
C496 C497 1.390 . S
C497 C496 1.390 . S
C497 C498 1.394 . S
C497 C503 1.465 . S
C498 C493 1.399 . S
C498 C497 1.394 . S
C498 C499 1.516 . S
C499 C498 1.516 . S
C499 C500 1.502 . S
C499 C501 1.561 . S
C499 C502 1.526 . S
C500 H484 0.959 . S
C500 H485 0.959 . S
C500 H486 0.961 . S
C500 C499 1.502 . S
C501 H487 0.960 . S
C501 H488 0.961 . S
C501 H489 0.959 . S
C501 C499 1.561 . S
C502 C499 1.526 . S
C502 C503 1.396 . S
C502 C507 1.390 . S
C503 C497 1.465 . S
C503 C502 1.396 . S
C503 C504 1.399 . S
C504 H490 0.929 . S
C504 C503 1.399 . S
C504 C505 1.385 . S
C505 H491 0.931 . S
C505 C504 1.385 . S
C505 C506 1.389 . S
C506 C505 1.389 . S
C506 C507 1.387 . S
C507 H492 0.930 . S
C507 C502 1.390 . S
C507 C506 1.387 . S
H508 C520 0.930 . S
H509 C522 0.930 . S
H510 C523 0.930 . S
H511 C527 0.959 . S
H512 C527 0.959 . S
H513 C527 0.961 . S
H514 C528 0.960 . S
H515 C528 0.961 . S
H516 C528 0.959 . S
H517 C531 0.929 . S
H518 C532 0.931 . S
H519 C534 0.930 . S
C520 H508 0.930 . S
C520 C521 1.399 . S
C520 C525 1.399 . S
C521 C520 1.399 . S
C521 C522 1.376 . S
C522 H509 0.930 . S
C522 C521 1.376 . S
C522 C523 1.388 . S
C523 H510 0.930 . S
C523 C522 1.388 . S
C523 C524 1.390 . S
C524 C523 1.390 . S
C524 C525 1.394 . S
C524 C530 1.465 . S
C525 C520 1.399 . S
C525 C524 1.394 . S
C525 C526 1.516 . S
C526 C525 1.516 . S
C526 C527 1.502 . S
C526 C528 1.561 . S
C526 C529 1.526 . S
C527 H511 0.959 . S
C527 H512 0.959 . S
C527 H513 0.961 . S
C527 C526 1.502 . S
C528 H514 0.960 . S
C528 H515 0.961 . S
C528 H516 0.959 . S
C528 C526 1.561 . S
C529 C526 1.526 . S
C529 C530 1.396 . S
C529 C534 1.390 . S
C530 C524 1.465 . S
C530 C529 1.396 . S
C530 C531 1.399 . S
C531 H517 0.929 . S
C531 C530 1.399 . S
C531 C532 1.385 . S
C532 H518 0.931 . S
C532 C531 1.385 . S
C532 C533 1.389 . S
C533 C532 1.389 . S
C533 C534 1.387 . S
C534 H519 0.930 . S
C534 C529 1.390 . S
C534 C533 1.387 . S
H535 C547 0.930 . S
H536 C549 0.930 . S
H537 C550 0.930 . S
H538 C554 0.959 . S
H539 C554 0.959 . S
H540 C554 0.961 . S
H541 C555 0.960 . S
H542 C555 0.961 . S
H543 C555 0.959 . S
H544 C558 0.929 . S
H545 C559 0.931 . S
H546 C561 0.930 . S
C547 H535 0.930 . S
C547 C548 1.399 . S
C547 C552 1.399 . S
C548 C547 1.399 . S
C548 C549 1.376 . S
C549 H536 0.930 . S
C549 C548 1.376 . S
C549 C550 1.388 . S
C550 H537 0.930 . S
C550 C549 1.388 . S
C550 C551 1.390 . S
C551 C550 1.390 . S
C551 C552 1.394 . S
C551 C557 1.465 . S
C552 C547 1.399 . S
C552 C551 1.394 . S
C552 C553 1.516 . S
C553 C552 1.516 . S
C553 C554 1.502 . S
C553 C555 1.561 . S
C553 C556 1.526 . S
C554 H538 0.959 . S
C554 H539 0.959 . S
C554 H540 0.961 . S
C554 C553 1.502 . S
C555 H541 0.960 . S
C555 H542 0.961 . S
C555 H543 0.959 . S
C555 C553 1.561 . S
C556 C553 1.526 . S
C556 C557 1.396 . S
C556 C561 1.390 . S
C557 C551 1.465 . S
C557 C556 1.396 . S
C557 C558 1.399 . S
C558 H544 0.929 . S
C558 C557 1.399 . S
C558 C559 1.385 . S
C559 H545 0.931 . S
C559 C558 1.385 . S
C559 C560 1.389 . S
C560 C559 1.389 . S
C560 C561 1.387 . S
C561 H546 0.930 . S
C561 C556 1.390 . S
C561 C560 1.387 . S
H562 C574 0.930 . S
H563 C576 0.930 . S
H564 C577 0.930 . S
H565 C581 0.959 . S
H566 C581 0.959 . S
H567 C581 0.961 . S
H568 C582 0.960 . S
H569 C582 0.961 . S
H570 C582 0.959 . S
H571 C585 0.929 . S
H572 C586 0.931 . S
H573 C588 0.930 . S
C574 H562 0.930 . S
C574 C575 1.399 . S
C574 C579 1.399 . S
C575 C574 1.399 . S
C575 C576 1.376 . S
C576 H563 0.930 . S
C576 C575 1.376 . S
C576 C577 1.388 . S
C577 H564 0.930 . S
C577 C576 1.388 . S
C577 C578 1.390 . S
C578 C577 1.390 . S
C578 C579 1.394 . S
C578 C584 1.465 . S
C579 C574 1.399 . S
C579 C578 1.394 . S
C579 C580 1.516 . S
C580 C579 1.516 . S
C580 C581 1.502 . S
C580 C582 1.561 . S
C580 C583 1.526 . S
C581 H565 0.959 . S
C581 H566 0.959 . S
C581 H567 0.961 . S
C581 C580 1.502 . S
C582 H568 0.960 . S
C582 H569 0.961 . S
C582 H570 0.959 . S
C582 C580 1.561 . S
C583 C580 1.526 . S
C583 C584 1.396 . S
C583 C588 1.390 . S
C584 C578 1.465 . S
C584 C583 1.396 . S
C584 C585 1.399 . S
C585 H571 0.929 . S
C585 C584 1.399 . S
C585 C586 1.385 . S
C586 H572 0.931 . S
C586 C585 1.385 . S
C586 C587 1.389 . S
C587 C586 1.389 . S
C587 C588 1.387 . S
C588 H573 0.930 . S
C588 C583 1.390 . S
C588 C587 1.387 . S
H589 C601 0.930 . S
H590 C603 0.930 . S
H591 C604 0.930 . S
H592 C608 0.959 . S
H593 C608 0.959 . S
H594 C608 0.961 . S
H595 C609 0.960 . S
H596 C609 0.961 . S
H597 C609 0.959 . S
H598 C612 0.929 . S
H599 C613 0.931 . S
H600 C615 0.930 . S
C601 H589 0.930 . S
C601 C602 1.399 . S
C601 C606 1.399 . S
C602 C601 1.399 . S
C602 C603 1.376 . S
C603 H590 0.930 . S
C603 C602 1.376 . S
C603 C604 1.388 . S
C604 H591 0.930 . S
C604 C603 1.388 . S
C604 C605 1.390 . S
C605 C604 1.390 . S
C605 C606 1.394 . S
C605 C611 1.465 . S
C606 C601 1.399 . S
C606 C605 1.394 . S
C606 C607 1.516 . S
C607 C606 1.516 . S
C607 C608 1.502 . S
C607 C609 1.561 . S
C607 C610 1.526 . S
C608 H592 0.959 . S
C608 H593 0.959 . S
C608 H594 0.961 . S
C608 C607 1.502 . S
C609 H595 0.960 . S
C609 H596 0.961 . S
C609 H597 0.959 . S
C609 C607 1.561 . S
C610 C607 1.526 . S
C610 C611 1.396 . S
C610 C615 1.390 . S
C611 C605 1.465 . S
C611 C610 1.396 . S
C611 C612 1.399 . S
C612 H598 0.929 . S
C612 C611 1.399 . S
C612 C613 1.385 . S
C613 H599 0.931 . S
C613 C612 1.385 . S
C613 C614 1.389 . S
C614 C613 1.389 . S
C614 C615 1.387 . S
C615 H600 0.930 . S
C615 C610 1.390 . S
C615 C614 1.387 . S
H616 C628 0.930 . S
H617 C630 0.930 . S
H618 C631 0.930 . S
H619 C635 0.959 . S
H620 C635 0.959 . S
H621 C635 0.961 . S
H622 C636 0.960 . S
H623 C636 0.961 . S
H624 C636 0.959 . S
H625 C639 0.929 . S
H626 C640 0.931 1_554 S
H627 C642 0.930 . S
C628 H616 0.930 . S
C628 C629 1.399 . S
C628 C633 1.399 . S
C629 C628 1.399 . S
C629 C630 1.376 . S
C630 H617 0.930 . S
C630 C629 1.376 . S
C630 C631 1.388 . S
C631 H618 0.930 . S
C631 C630 1.388 . S
C631 C632 1.390 . S
C632 C631 1.390 . S
C632 C633 1.394 . S
C632 C638 1.465 . S
C633 C628 1.399 . S
C633 C632 1.394 . S
C633 C634 1.516 . S
C634 C633 1.516 . S
C634 C635 1.502 . S
C634 C636 1.561 . S
C634 C637 1.526 . S
C635 H619 0.959 . S
C635 H620 0.959 . S
C635 H621 0.961 . S
C635 C634 1.502 . S
C636 H622 0.960 . S
C636 H623 0.961 . S
C636 H624 0.959 . S
C636 C634 1.561 . S
C637 C634 1.526 . S
C637 C638 1.396 . S
C637 C642 1.390 . S
C638 C632 1.465 . S
C638 C637 1.396 . S
C638 C639 1.399 . S
C639 H625 0.929 . S
C639 C638 1.399 . S
C639 C640 1.385 . S
C640 H626 0.931 1_556 S
C640 C639 1.385 . S
C640 C641 1.389 . S
C641 C640 1.389 . S
C641 C642 1.387 . S
C642 H627 0.930 . S
C642 C637 1.390 . S
C642 C641 1.387 . S
H643 C655 0.930 . S
H644 C657 0.930 . S
H645 C658 0.930 . S
H646 C662 0.959 . S
H647 C662 0.959 . S
H648 C662 0.961 . S
H649 C663 0.960 . S
H650 C663 0.961 . S
H651 C663 0.959 . S
H652 C666 0.929 . S
H653 C667 0.931 . S
H654 C669 0.930 . S
C655 H643 0.930 . S
C655 C656 1.399 . S
C655 C660 1.399 . S
C656 C655 1.399 . S
C656 C657 1.376 . S
C657 H644 0.930 . S
C657 C656 1.376 . S
C657 C658 1.388 . S
C658 H645 0.930 . S
C658 C657 1.388 . S
C658 C659 1.390 . S
C659 C658 1.390 . S
C659 C660 1.394 . S
C659 C665 1.465 . S
C660 C655 1.399 . S
C660 C659 1.394 . S
C660 C661 1.516 . S
C661 C660 1.516 . S
C661 C662 1.502 . S
C661 C663 1.561 . S
C661 C664 1.526 . S
C662 H646 0.959 . S
C662 H647 0.959 . S
C662 H648 0.961 . S
C662 C661 1.502 . S
C663 H649 0.960 . S
C663 H650 0.961 . S
C663 H651 0.959 . S
C663 C661 1.561 . S
C664 C661 1.526 . S
C664 C665 1.396 . S
C664 C669 1.390 . S
C665 C659 1.465 . S
C665 C664 1.396 . S
C665 C666 1.399 . S
C666 H652 0.929 . S
C666 C665 1.399 . S
C666 C667 1.385 . S
C667 H653 0.931 . S
C667 C666 1.385 . S
C667 C668 1.389 . S
C668 C667 1.389 . S
C668 C669 1.387 . S
C669 H654 0.930 . S
C669 C664 1.390 . S
C669 C668 1.387 . S
H670 C682 0.930 . S
H671 C684 0.930 . S
H672 C685 0.930 . S
H673 C689 0.959 . S
H674 C689 0.959 . S
H675 C689 0.961 . S
H676 C690 0.960 . S
H677 C690 0.961 . S
H678 C690 0.959 . S
H679 C693 0.929 . S
H680 C694 0.931 . S
H681 C696 0.930 . S
C682 H670 0.930 . S
C682 C683 1.399 . S
C682 C687 1.399 . S
C683 C682 1.399 . S
C683 C684 1.376 . S
C684 H671 0.930 . S
C684 C683 1.376 . S
C684 C685 1.388 . S
C685 H672 0.930 . S
C685 C684 1.388 . S
C685 C686 1.390 . S
C686 C685 1.390 . S
C686 C687 1.394 . S
C686 C692 1.465 . S
C687 C682 1.399 . S
C687 C686 1.394 . S
C687 C688 1.516 . S
C688 C687 1.516 . S
C688 C689 1.502 . S
C688 C690 1.561 . S
C688 C691 1.526 . S
C689 H673 0.959 . S
C689 H674 0.959 . S
C689 H675 0.961 . S
C689 C688 1.502 . S
C690 H676 0.960 . S
C690 H677 0.961 . S
C690 H678 0.959 . S
C690 C688 1.561 . S
C691 C688 1.526 . S
C691 C692 1.396 . S
C691 C696 1.390 . S
C692 C686 1.465 . S
C692 C691 1.396 . S
C692 C693 1.399 . S
C693 H679 0.929 . S
C693 C692 1.399 . S
C693 C694 1.385 . S
C694 H680 0.931 . S
C694 C693 1.385 . S
C694 C695 1.389 . S
C695 C694 1.389 . S
C695 C696 1.387 . S
C696 H681 0.930 . S
C696 C691 1.390 . S
C696 C695 1.387 . S
H697 C709 0.930 . S
H698 C711 0.930 . S
H699 C712 0.930 . S
H700 C716 0.959 . S
H701 C716 0.959 . S
H702 C716 0.961 . S
H703 C717 0.960 . S
H704 C717 0.961 . S
H705 C717 0.959 . S
H706 C720 0.929 . S
H707 C721 0.931 . S
H708 C723 0.930 . S
C709 H697 0.930 . S
C709 C710 1.399 . S
C709 C714 1.399 . S
C710 C709 1.399 . S
C710 C711 1.376 . S
C711 H698 0.930 . S
C711 C710 1.376 . S
C711 C712 1.388 . S
C712 H699 0.930 . S
C712 C711 1.388 . S
C712 C713 1.390 . S
C713 C712 1.390 . S
C713 C714 1.394 . S
C713 C719 1.465 . S
C714 C709 1.399 . S
C714 C713 1.394 . S
C714 C715 1.516 . S
C715 C714 1.516 . S
C715 C716 1.502 . S
C715 C717 1.561 . S
C715 C718 1.526 . S
C716 H700 0.959 . S
C716 H701 0.959 . S
C716 H702 0.961 . S
C716 C715 1.502 . S
C717 H703 0.960 . S
C717 H704 0.961 . S
C717 H705 0.959 . S
C717 C715 1.561 . S
C718 C715 1.526 . S
C718 C719 1.396 . S
C718 C723 1.390 . S
C719 C713 1.465 . S
C719 C718 1.396 . S
C719 C720 1.399 . S
C720 H706 0.929 . S
C720 C719 1.399 . S
C720 C721 1.385 . S
C721 H707 0.931 . S
C721 C720 1.385 . S
C721 C722 1.389 . S
C722 C721 1.389 . S
C722 C723 1.387 . S
C723 H708 0.930 . S
C723 C718 1.390 . S
C723 C722 1.387 . S
H724 C736 0.930 . S
H725 C738 0.930 . S
H726 C739 0.930 . S
H727 C743 0.959 . S
H728 C743 0.959 . S
H729 C743 0.961 . S
H730 C744 0.960 . S
H731 C744 0.961 . S
H732 C744 0.959 . S
H733 C747 0.929 . S
H734 C748 0.931 . S
H735 C750 0.930 . S
C736 H724 0.930 . S
C736 C737 1.399 . S
C736 C741 1.399 . S
C737 C736 1.399 . S
C737 C738 1.376 . S
C738 H725 0.930 . S
C738 C737 1.376 . S
C738 C739 1.388 . S
C739 H726 0.930 . S
C739 C738 1.388 . S
C739 C740 1.390 . S
C740 C739 1.390 . S
C740 C741 1.394 . S
C740 C746 1.465 . S
C741 C736 1.399 . S
C741 C740 1.394 . S
C741 C742 1.516 . S
C742 C741 1.516 . S
C742 C743 1.502 . S
C742 C744 1.561 . S
C742 C745 1.526 . S
C743 H727 0.959 . S
C743 H728 0.959 . S
C743 H729 0.961 . S
C743 C742 1.502 . S
C744 H730 0.960 . S
C744 H731 0.961 . S
C744 H732 0.959 . S
C744 C742 1.561 . S
C745 C742 1.526 . S
C745 C746 1.396 . S
C745 C750 1.390 . S
C746 C740 1.465 . S
C746 C745 1.396 . S
C746 C747 1.399 . S
C747 H733 0.929 . S
C747 C746 1.399 . S
C747 C748 1.385 . S
C748 H734 0.931 . S
C748 C747 1.385 . S
C748 C749 1.389 . S
C749 C748 1.389 . S
C749 C750 1.387 . S
C750 H735 0.930 . S
C750 C745 1.390 . S
C750 C749 1.387 . S
H751 C763 0.930 . S
H752 C765 0.930 . S
H753 C766 0.930 . S
H754 C770 0.959 . S
H755 C770 0.959 . S
H756 C770 0.961 . S
H757 C771 0.960 . S
H758 C771 0.961 . S
H759 C771 0.959 . S
H760 C774 0.929 . S
H761 C775 0.931 . S
H762 C777 0.930 . S
C763 H751 0.930 . S
C763 C764 1.399 . S
C763 C768 1.399 . S
C764 C763 1.399 . S
C764 C765 1.376 . S
C765 H752 0.930 . S
C765 C764 1.376 . S
C765 C766 1.388 . S
C766 H753 0.930 . S
C766 C765 1.388 . S
C766 C767 1.390 . S
C767 C766 1.390 . S
C767 C768 1.394 . S
C767 C773 1.465 . S
C768 C763 1.399 . S
C768 C767 1.394 . S
C768 C769 1.516 . S
C769 C768 1.516 . S
C769 C770 1.502 . S
C769 C771 1.561 . S
C769 C772 1.526 . S
C770 H754 0.959 . S
C770 H755 0.959 . S
C770 H756 0.961 . S
C770 C769 1.502 . S
C771 H757 0.960 . S
C771 H758 0.961 . S
C771 H759 0.959 . S
C771 C769 1.561 . S
C772 C769 1.526 . S
C772 C773 1.396 . S
C772 C777 1.390 . S
C773 C767 1.465 . S
C773 C772 1.396 . S
C773 C774 1.399 . S
C774 H760 0.929 . S
C774 C773 1.399 . S
C774 C775 1.385 . S
C775 H761 0.931 . S
C775 C774 1.385 . S
C775 C776 1.389 . S
C776 C775 1.389 . S
C776 C777 1.387 . S
C777 H762 0.930 . S
C777 C772 1.390 . S
C777 C776 1.387 . S
H778 C790 0.930 . S
H779 C792 0.930 . S
H780 C793 0.930 . S
H781 C797 0.959 . S
H782 C797 0.959 . S
H783 C797 0.961 . S
H784 C798 0.960 . S
H785 C798 0.961 . S
H786 C798 0.959 . S
H787 C801 0.929 . S
H788 C802 0.931 . S
H789 C804 0.930 . S
C790 H778 0.930 . S
C790 C791 1.399 . S
C790 C795 1.399 . S
C791 C790 1.399 . S
C791 C792 1.376 . S
C792 H779 0.930 . S
C792 C791 1.376 . S
C792 C793 1.388 . S
C793 H780 0.930 . S
C793 C792 1.388 . S
C793 C794 1.390 . S
C794 C793 1.390 . S
C794 C795 1.394 . S
C794 C800 1.465 . S
C795 C790 1.399 . S
C795 C794 1.394 . S
C795 C796 1.516 . S
C796 C795 1.516 . S
C796 C797 1.502 . S
C796 C798 1.561 . S
C796 C799 1.526 . S
C797 H781 0.959 . S
C797 H782 0.959 . S
C797 H783 0.961 . S
C797 C796 1.502 . S
C798 H784 0.960 . S
C798 H785 0.961 . S
C798 H786 0.959 . S
C798 C796 1.561 . S
C799 C796 1.526 . S
C799 C800 1.396 . S
C799 C804 1.390 . S
C800 C794 1.465 . S
C800 C799 1.396 . S
C800 C801 1.399 . S
C801 H787 0.929 . S
C801 C800 1.399 . S
C801 C802 1.385 . S
C802 H788 0.931 . S
C802 C801 1.385 . S
C802 C803 1.389 . S
C803 C802 1.389 . S
C803 C804 1.387 . S
C804 H789 0.930 . S
C804 C799 1.390 . S
C804 C803 1.387 . S
H805 C817 0.930 . S
H806 C819 0.930 . S
H807 C820 0.930 . S
H808 C824 0.959 . S
H809 C824 0.959 . S
H810 C824 0.961 . S
H811 C825 0.960 . S
H812 C825 0.961 . S
H813 C825 0.959 . S
H814 C828 0.929 . S
H815 C829 0.931 . S
H816 C831 0.930 . S
C817 H805 0.930 . S
C817 C818 1.399 . S
C817 C822 1.399 . S
C818 C817 1.399 . S
C818 C819 1.376 . S
C819 H806 0.930 . S
C819 C818 1.376 . S
C819 C820 1.388 . S
C820 H807 0.930 . S
C820 C819 1.388 . S
C820 C821 1.390 . S
C821 C820 1.390 . S
C821 C822 1.394 . S
C821 C827 1.465 . S
C822 C817 1.399 . S
C822 C821 1.394 . S
C822 C823 1.516 . S
C823 C822 1.516 . S
C823 C824 1.502 . S
C823 C825 1.561 . S
C823 C826 1.526 . S
C824 H808 0.959 . S
C824 H809 0.959 . S
C824 H810 0.961 . S
C824 C823 1.502 . S
C825 H811 0.960 . S
C825 H812 0.961 . S
C825 H813 0.959 . S
C825 C823 1.561 . S
C826 C823 1.526 . S
C826 C827 1.396 . S
C826 C831 1.390 . S
C827 C821 1.465 . S
C827 C826 1.396 . S
C827 C828 1.399 . S
C828 H814 0.929 . S
C828 C827 1.399 . S
C828 C829 1.385 . S
C829 H815 0.931 . S
C829 C828 1.385 . S
C829 C830 1.389 . S
C830 C829 1.389 . S
C830 C831 1.387 . S
C831 H816 0.930 . S
C831 C826 1.390 . S
C831 C830 1.387 . S
C197 C9 1.751 . S
C209 C106 1.716 . S
C224 C21 1.428 . S
C236 C125 1.342 . S
C263 C162 1.468 . S
C251 C30 1.464 . S
C278 C43 1.476 . S
C290 C172 1.540 1_655 S
C317 C142 1.725 . S
C305 C4 1.596 . S
C344 C112 1.947 1_565 S
C332 C22 1.969 . S
C371 C183 1.231 . S
C359 C34 1.216 . S
C398 C153 1.298 . S
C386 C48 1.310 . S
C413 C8 1.657 . S
C425 C166 1.668 . S
C452 C133 1.719 . S
C440 C35 1.739 . S
C467 C47 1.872 . S
C479 C123 1.865 . S
C494 C17 1.171 . S
C506 C145 1.155 . S
C533 C105 1.393 . S
C521 C60 1.393 . S
C548 C74 1.533 . S
C560 C126 1.533 . S
C575 C82 1.240 . S
C587 C163 1.307 . S
C602 C100 1.965 . S
C614 C173 1.913 . S
C629 C61 2.140 . S
C641 C143 2.168 . S
C668 C113 1.474 . S
C656 C73 1.502 . S
C695 C182 1.697 . S
C683 C87 1.741 . S
C722 C152 1.030 . S
C710 C95 1.038 . S
C737 C56 1.666 . S
C749 C165 1.631 . S
C776 C132 1.797 . S
C764 C86 1.848 . S
C803 C122 1.707 . S
C791 C99 1.705 . S
C818 C69 1.142 . S
C830 C146 1.136 . S
