# Generated by pormake.
# Topology pts, (4,4)-cn, num edge types: 1
# Building blocks:
#     Node 0, Type 0, BuildingBlock: AZAVOO_clean_linker_0, # of connection points: 4
#     Node 1, Type 0, BuildingBlock: AZAVOO_clean_linker_0, # of connection points: 4
#     Node 2, Type 1, BuildingBlock: AZAVOO_clean_sbu_0, # of connection points: 4
#     Node 3, Type 1, BuildingBlock: AZAVOO_clean_sbu_0, # of connection points: 4
#     Edge 4, Type (0, 1), BuildingBlock: KIFKEQ_clean_linker_1, # of connection points: 2
#     Edge 5, Type (0, 1), BuildingBlock: KIFKEQ_clean_linker_1, # of connection points: 2
#     Edge 6, Type (0, 1), BuildingBlock: KIFKEQ_clean_linker_1, # of connection points: 2
#     Edge 7, Type (0, 1), BuildingBlock: KIFKEQ_clean_linker_1, # of connection points: 2
#     Edge 8, Type (0, 1), BuildingBlock: KIFKEQ_clean_linker_1, # of connection points: 2
#     Edge 9, Type (0, 1), BuildingBlock: KIFKEQ_clean_linker_1, # of connection points: 2
#     Edge 10, Type (0, 1), BuildingBlock: KIFKEQ_clean_linker_1, # of connection points: 2
#     Edge 11, Type (0, 1), BuildingBlock: KIFKEQ_clean_linker_1, # of connection points: 2
# Relax obj value: 0.120
# Max RMSD: 0.230
# Mean RMSD: 0.159
data_MOF--net-pts--node1-AZAVOO_clean_sbu_0--node2-AZAVOO_clean_linker_0--edge1-KIFKEQ_clean_linker_1
_symmetry_space_group_name_H-M    P1
_symmetry_Int_Tables_number       1
_symmetry_cell_setting            triclinic
loop_
_symmetry_equiv_pos_as_xyz
'x, y, z'
_cell_length_a     26.741681
_cell_length_b     27.544912
_cell_length_c     47.305725
_cell_angle_alpha  91.720013
_cell_angle_beta   98.213865
_cell_angle_gamma 89.931064
loop_
_atom_site_label
_atom_site_type_symbol
_atom_site_fract_x
_atom_site_fract_y
_atom_site_fract_z
_atom_type_partial_charge
H0 H 0.42564 0.1119 0.80745 0.0
H1 H 0.87365 0.0212 0.04862 0.0
H2 H 0.43268 0.14832 0.95865 0.0
H3 H 0.35039 0.13389 0.93 0.0
H4 H 0.35158 0.98656 0.95911 0.0
H5 H 0.43485 0.00099 0.98695 0.0
H6 H 0.5241 0.15234 0.92438 0.0
H7 H 0.48678 0.1494 0.87398 0.0
H8 H 0.445 -0.00078 0.88165 0.0
H9 H 0.48326 0.00245 0.93183 0.0
H10 H 0.63329 0.15864 0.9563 0.0
H11 H 0.6859 0.16258 0.91807 0.0
H12 H 0.65641 0.0103 0.89748 0.0
H13 H 0.60302 0.00724 0.93531 0.0
H14 H 0.66457 0.15377 0.01912 0.0
H15 H 0.75483 0.14893 0.03734 0.0
H16 H 0.75136 -0.00542 0.0174 0.0
H17 H 0.66106 -0.0 -0.00057 0.0
H18 H 0.60016 0.1476 0.06094 0.0
H19 H 0.66288 0.13702 0.10346 0.0
H20 H 0.65543 0.98147 0.08843 0.0
H21 H 0.59277 0.9925 0.04632 0.0
H22 H 0.46275 0.15583 0.02874 0.0
H23 H 0.40289 0.15894 0.06341 0.0
H24 H 0.43219 0.00766 0.08097 0.0
H25 H 0.49147 0.00481 0.04591 0.0
O26 O 0.44062 0.11214 0.82733 0.0
O27 O 0.41904 0.03534 0.8326 0.0
O28 O 0.83809 0.10384 0.05072 0.0
O29 O 0.83833 0.02438 0.0409 0.0
C30 C 0.49523 0.07907 0.98369 0.0
C31 C 0.52766 0.07985 0.96251 0.0
C32 C 0.58047 0.08117 0.97055 0.0
C33 C 0.60094 0.07939 -0.00041 0.0
C34 C 0.56866 0.07721 0.02075 0.0
C35 C 0.51574 0.07833 0.01291 0.0
C36 C 0.4399 0.07555 0.97458 0.0
C37 C 0.41428 0.11351 0.95965 0.0
C38 C 0.36718 0.10516 0.94331 0.0
C39 C 0.34488 0.05875 0.94186 0.0
C40 C 0.36829 0.0224 0.95937 0.0
C41 C 0.41553 0.03074 0.97558 0.0
C42 C 0.50625 0.07767 0.93172 0.0
C43 C 0.50719 0.11878 0.91505 0.0
C44 C 0.48569 0.11702 0.88631 0.0
C45 C 0.46279 0.0741 0.8738 0.0
C46 C 0.46227 0.03286 0.8906 0.0
C47 C 0.48403 0.03461 0.91927 0.0
C48 C 0.61437 0.08271 0.94842 0.0
C49 C 0.63851 0.12617 0.94356 0.0
C50 C 0.66863 0.12826 0.9218 0.0
C51 C 0.67517 0.08681 0.90461 0.0
C52 C 0.65144 0.0431 0.90996 0.0
C53 C 0.62126 0.04112 0.93167 0.0
C54 C 0.65651 0.07725 0.00798 0.0
C55 C 0.68357 0.11909 0.01846 0.0
C56 C 0.73503 0.11616 0.02893 0.0
C57 C 0.76027 0.07129 0.02894 0.0
C58 C 0.73309 0.02965 0.01777 0.0
C59 C 0.68162 0.03265 0.00736 0.0
C60 C 0.59177 0.07079 0.05074 0.0
C61 C 0.6105 0.11123 0.06763 0.0
C62 C 0.64687 0.10512 0.0916 0.0
C63 C 0.66468 0.05844 0.09902 0.0
C64 C 0.64233 0.01785 0.08344 0.0
C65 C 0.60622 0.02403 0.05946 0.0
C66 C 0.48167 0.08022 0.03502 0.0
C67 C 0.45644 0.12349 0.04025 0.0
C68 C 0.42242 0.12523 0.0601 0.0
C69 C 0.41278 0.08355 0.07493 0.0
C70 C 0.43841 0.04025 0.06968 0.0
C71 C 0.47263 0.03864 0.0499 0.0
C72 C 0.43947 0.07249 0.84336 0.0
C73 C 0.81456 0.06771 0.04082 0.0
H74 H 0.06363 0.40456 0.32033 0.0
H75 H 0.12897 0.85643 0.52771 0.0
H76 H 0.01645 0.42696 0.47674 0.0
H77 H 0.01527 0.35117 0.44829 0.0
H78 H 0.17831 0.3528 0.45837 0.0
H79 H 0.1792 0.4281 0.48739 0.0
H80 H 0.0226 0.49876 0.42707 0.0
H81 H 0.02454 0.46088 0.37974 0.0
H82 H 0.18757 0.45399 0.39728 0.0
H83 H 0.18498 0.49188 0.44454 0.0
H84 H 0.02252 0.62116 0.44725 0.0
H85 H 0.02171 0.66987 0.40484 0.0
H86 H 0.17882 0.63439 0.40263 0.0
H87 H 0.17976 0.58819 0.44599 0.0
H88 H 0.01387 0.64036 0.51265 0.0
H89 H 0.01071 0.72785 0.52276 0.0
H90 H 0.16768 0.74032 0.51123 0.0
H91 H 0.17049 0.65266 0.50154 0.0
H92 H 0.00691 0.55404 0.55032 0.0
H93 H 0.99398 0.59918 0.59374 0.0
H94 H 0.1481 0.65166 0.60254 0.0
H95 H 0.16163 0.60283 0.56057 0.0
H96 H 0.00433 0.46924 0.5328 0.0
H97 H 0.99412 0.4109 0.56939 0.0
H98 H 0.15675 0.39925 0.58901 0.0
H99 H 0.16612 0.46024 0.55358 0.0
O100 O 0.06379 0.4205 0.33885 0.0
O101 O 0.14757 0.41825 0.34881 0.0
O102 O 0.04856 0.81332 0.52953 0.0
O103 O 0.12913 0.82174 0.52371 0.0
C104 C 0.09786 0.48563 0.49078 0.0
C105 C 0.10176 0.5178 0.46852 0.0
C106 C 0.10018 0.56831 0.4737 0.0
C107 C 0.09467 0.58684 0.50122 0.0
C108 C 0.0906 0.55454 0.52358 0.0
C109 C 0.09165 0.50382 0.5182 0.0
C110 C 0.09789 0.43286 0.48405 0.0
C111 C 0.05192 0.40955 0.47411 0.0
C112 C 0.05133 0.36658 0.45765 0.0
C113 C 0.09671 0.34686 0.45078 0.0
C114 C 0.14287 0.36772 0.46316 0.0
C115 C 0.14344 0.41024 0.48001 0.0
C116 C 0.10362 0.49809 0.4391 0.0
C117 C 0.05867 0.48944 0.42049 0.0
C118 C 0.05991 0.46765 0.39354 0.0
C119 C 0.10621 0.45428 0.38476 0.0
C120 C 0.15128 0.46382 0.40337 0.0
C121 C 0.14995 0.48558 0.43032 0.0
C122 C 0.10118 0.60126 0.44962 0.0
C123 C 0.0569 0.62467 0.43781 0.0
C124 C 0.05637 0.65181 0.41333 0.0
C125 C 0.10004 0.65554 0.40005 0.0
C126 C 0.14462 0.63265 0.41237 0.0
C127 C 0.14523 0.60604 0.43705 0.0
C128 C 0.09245 0.64019 0.50649 0.0
C129 C 0.04754 0.66205 0.51239 0.0
C130 C 0.04584 0.71203 0.51811 0.0
C131 C 0.089 0.74109 0.51784 0.0
C132 C 0.1338 0.71903 0.51163 0.0
C133 C 0.13548 0.66901 0.50601 0.0
C134 C 0.08539 0.57463 0.55246 0.0
C135 C 0.03852 0.57341 0.56241 0.0
C136 C 0.03094 0.60019 0.58696 0.0
C137 C 0.06969 0.6299 0.60156 0.0
C138 C 0.11746 0.62886 0.59228 0.0
C139 C 0.12528 0.60115 0.56811 0.0
C140 C 0.08591 0.46951 0.54099 0.0
C141 C 0.03765 0.45476 0.54548 0.0
C142 C 0.03199 0.42088 0.56616 0.0
C143 C 0.0746 0.40006 0.58226 0.0
C144 C 0.12303 0.41509 0.57754 0.0
C145 C 0.12857 0.44966 0.55715 0.0
C146 C 0.10732 0.43 0.35641 0.0
C147 C 0.08747 0.79418 0.52405 0.0
Mg148 Mg 0.10713 0.00451 0.25393 0.0
O149 O 0.02459 0.00776 0.23117 0.0
O150 O 0.97543 0.98456 0.2629 0.0
Mg151 Mg 0.0239 0.9655 0.30457 0.0
C152 C 0.98097 -0.00063 0.23821 0.0
C153 C 0.18185 0.06186 0.2242 0.0
O154 O 0.20457 0.06087 0.25071 0.0
O155 O 0.09485 0.07419 0.27978 0.0
O156 O 0.04636 0.04547 0.31047 0.0
O157 O 0.1149 0.92585 0.24119 0.0
O158 O 0.0863 0.95227 0.28038 0.0
C159 C 0.07026 0.08006 0.30091 0.0
C160 C 0.09609 0.91637 0.26414 0.0
O161 O 0.13744 0.04446 0.21837 0.0
Mg162 Mg 0.98662 0.0188 0.72368 0.0
O163 O 0.05512 0.01751 0.75887 0.0
O164 O 0.12338 -0.00097 0.73854 0.0
Mg165 Mg 0.09874 0.98877 0.69051 0.0
C166 C 0.10248 0.00958 0.76057 0.0
C167 C 0.89384 0.0621 0.74856 0.0
O168 O 0.87294 0.05277 0.7221 0.0
O169 O 0.01202 0.09172 0.70897 0.0
O170 O 0.07858 0.0699 0.6878 0.0
O171 O 0.97353 0.93971 0.72803 0.0
O172 O 0.02221 0.9697 0.69871 0.0
C173 C 0.04804 0.10209 0.69511 0.0
C174 C 0.00453 0.93224 0.7097 0.0
O175 O 0.94074 0.05426 0.75546 0.0
H176 H 0.4014 0.1545 0.11531 0.0
H177 H 0.34038 0.01628 0.0812 0.0
H178 H 0.34137 0.15638 0.14971 0.0
H179 H 0.28132 0.01756 0.11602 0.0
H180 H 0.15363 0.05057 0.16635 0.0
H181 H 0.20661 0.06081 0.12895 0.0
H182 H 0.32918 0.11153 0.1924 0.0
H183 H 0.27623 0.10187 0.22969 0.0
C184 C 0.37497 0.12467 0.11505 0.0
C185 C 0.3758 0.08512 0.09561 0.0
C186 C 0.34084 0.12559 0.13488 0.0
C187 C 0.30653 0.08716 0.13559 0.0
C188 C 0.30682 0.04803 0.11582 0.0
C189 C 0.34112 0.04697 0.09612 0.0
C190 C 0.19158 0.06471 0.17226 0.0
C191 C 0.21083 0.07501 0.20106 0.0
C192 C 0.22205 0.07021 0.15085 0.0
C193 C 0.27229 0.08644 0.15774 0.0
C194 C 0.29059 0.09919 0.18634 0.0
C195 C 0.26025 0.09346 0.20775 0.0
H196 H 0.13329 0.38338 0.63378 0.0
H197 H 0.00245 0.32837 0.57757 0.0
H198 H 0.12674 0.31601 0.6655 0.0
H199 H 0.99491 0.26281 0.60998 0.0
H200 H 0.974 0.17076 0.68569 0.0
H201 H 0.97906 0.24806 0.662 0.0
H202 H 0.13721 0.22299 0.65777 0.0
H203 H 0.1322 0.14563 0.68106 0.0
C204 C 0.10304 0.35723 0.62818 0.0
C205 C 0.06857 0.3614 0.60292 0.0
C206 C 0.09913 0.31891 0.6465 0.0
C207 C 0.06019 0.28445 0.64023 0.0
C208 C 0.0248 0.28938 0.61556 0.0
C209 C 0.02914 0.32714 0.59702 0.0
C210 C 0.01005 0.18221 0.6802 0.0
C211 C 0.05261 0.15197 0.68501 0.0
C212 C 0.01284 0.22626 0.66653 0.0
C213 C 0.05845 0.24126 0.65797 0.0
C214 C 0.10167 0.21241 0.6643 0.0
C215 C 0.09869 0.16803 0.67749 0.0
H216 H 0.75201 0.11149 0.1065 0.0
H217 H 0.67992 0.99001 0.14015 0.0
H218 H 0.82832 0.09801 0.14017 0.0
H219 H 0.75693 0.97515 0.17295 0.0
H220 H 0.8829 0.99313 0.24769 0.0
H221 H 0.80685 0.0092 0.21489 0.0
H222 H 0.89731 0.04091 0.14895 0.0
H223 H 0.97407 0.02601 0.18218 0.0
C224 C 0.75226 0.08226 0.12134 0.0
C225 C 0.70971 0.05211 0.12088 0.0
C226 C 0.79631 0.07402 0.1403 0.0
C227 C 0.79888 0.0354 0.15922 0.0
C228 C 0.75611 0.00557 0.15892 0.0
C229 C 0.71206 0.01384 0.13998 0.0
C230 C 0.88682 0.00342 0.2262 0.0
C231 C 0.9348 0.00817 0.2176 0.0
C232 C 0.84302 0.01242 0.20731 0.0
C233 C 0.84586 0.02621 0.17925 0.0
C234 C 0.89378 0.03094 0.17055 0.0
C235 C 0.93779 0.02208 0.18954 0.0
H236 H 0.13312 0.66214 0.64961 0.0
H237 H 0.9821 0.68048 0.60438 0.0
H238 H 0.11941 0.7309 0.68143 0.0
H239 H 0.96805 0.74694 0.6371 0.0
H240 H 0.08898 0.90241 0.68761 0.0
H241 H 0.10514 0.82238 0.66761 0.0
H242 H 0.96559 0.76934 0.69131 0.0
H243 H 0.94959 0.84961 0.7118 0.0
C244 C 0.09684 0.68016 0.64664 0.0
C245 C 0.05896 0.6658 0.62412 0.0
C246 C 0.08896 0.71926 0.66502 0.0
C247 C 0.04272 0.74407 0.66165 0.0
C248 C 0.00383 0.72796 0.64038 0.0
C249 C 0.01195 0.68957 0.62169 0.0
C250 C 0.06207 0.87367 0.68895 0.0
C251 C 0.01774 0.88249 0.70097 0.0
C252 C 0.07159 0.82768 0.67774 0.0
C253 C 0.03653 0.78985 0.6779 0.0
C254 C 0.99314 0.79803 0.69092 0.0
C255 C 0.9841 0.84386 0.70266 0.0
H256 H 0.33343 0.97728 0.90748 0.0
H257 H 0.26071 0.11331 0.92403 0.0
H258 H 0.27065 0.96174 0.86575 0.0
H259 H 0.19872 0.09848 0.88141 0.0
H260 H 0.07443 0.0382 0.81215 0.0
H261 H 0.12821 0.04614 0.85837 0.0
H262 H 0.25662 -0.0016 0.81901 0.0
H263 H 0.20319 0.98978 0.77311 0.0
C264 C 0.30337 0.00341 0.90261 0.0
C265 C 0.30206 0.04656 0.91915 0.0
C266 C 0.26781 -0.0052 0.87841 0.0
C267 C 0.23015 0.02917 0.87006 0.0
C268 C 0.22719 0.07121 0.88735 0.0
C269 C 0.26288 0.07987 0.91163 0.0
C270 C 0.11408 0.02912 0.81339 0.0
C271 C 0.13446 0.01337 0.78886 0.0
C272 C 0.14488 0.03388 0.83985 0.0
C273 C 0.19658 0.02269 0.84237 0.0
C274 C 0.21676 0.00653 0.8179 0.0
C275 C 0.18613 0.00195 0.7915 0.0
H276 H 0.04557 0.26088 0.44654 0.0
H277 H 0.14365 0.348 0.40352 0.0
H278 H 0.03878 0.20071 0.40732 0.0
H279 H 0.13537 0.28902 0.36356 0.0
H280 H 0.15022 0.14247 0.31356 0.0
H281 H 0.15778 0.20924 0.34918 0.0
H282 H 0.00099 0.18973 0.35947 0.0
H283 H 0.99454 0.12187 0.32506 0.0
C284 C 0.0656 0.26703 0.42861 0.0
C285 C 0.0954 0.30868 0.42809 0.0
C286 C 0.06135 0.23294 0.40596 0.0
C287 C 0.08604 0.24025 0.38202 0.0
C288 C 0.11629 0.28189 0.38172 0.0
C289 C 0.1211 0.31564 0.4046 0.0
C290 C 0.11722 0.15335 0.32304 0.0
C291 C 0.07197 0.12689 0.31686 0.0
C292 C 0.12148 0.1915 0.34349 0.0
C293 C 0.0803 0.20413 0.35775 0.0
C294 C 0.03397 0.17995 0.34969 0.0
C295 C 0.03003 0.14146 0.32971 0.0
H296 H 0.65558 0.04435 0.85117 0.0
H297 H 0.76509 0.13458 0.90463 0.0
H298 H 0.70831 0.04453 0.81334 0.0
H299 H 0.81672 0.13683 0.86617 0.0
H300 H 0.92337 0.07151 0.8062 0.0
H301 H 0.86974 0.0825 0.84327 0.0
H302 H 0.73901 0.09417 0.77863 0.0
H303 H 0.79258 0.08172 0.74146 0.0
C304 C 0.69085 0.06438 0.85482 0.0
C305 C 0.7063 0.08908 0.88104 0.0
C306 C 0.72075 0.06512 0.83294 0.0
C307 C 0.76677 0.09077 0.83666 0.0
C308 C 0.78175 0.1163 0.86268 0.0
C309 C 0.75189 0.11542 0.88463 0.0
C310 C 0.88327 0.07699 0.79985 0.0
C311 C 0.86218 0.07523 0.77085 0.0
C312 C 0.8525 0.08355 0.82115 0.0
C313 C 0.79995 0.08878 0.81396 0.0
C314 C 0.77921 0.08928 0.78492 0.0
C315 C 0.80997 0.08248 0.7636 0.0
H316 H 0.17443 0.71415 0.38552 0.0
H317 H 0.02371 0.66106 0.35485 0.0
H318 H 0.17046 0.7655 0.34436 0.0
H319 H 0.01936 0.71398 0.31406 0.0
H320 H 0.01682 0.88021 0.2868 0.0
H321 H 0.01679 0.80636 0.3139 0.0
H322 H 0.16153 0.76681 0.28972 0.0
H323 H 0.16137 0.84118 0.26248 0.0
C324 C 0.14084 0.71261 0.36974 0.0
C325 C 0.09917 0.68383 0.37372 0.0
C326 C 0.13865 0.74199 0.34609 0.0
C327 C 0.09462 0.7436 0.32603 0.0
C328 C 0.05366 0.71352 0.32932 0.0
C329 C 0.05603 0.68367 0.35283 0.0
C330 C 0.04796 0.8551 0.2867 0.0
C331 C 0.08946 0.8665 0.27305 0.0
C332 C 0.04778 0.81264 0.30199 0.0
C333 C 0.0895 0.78128 0.30419 0.0
C334 C 0.12913 0.7907 0.28852 0.0
C335 C 0.12887 0.83291 0.27279 0.0
loop_
_geom_bond_atom_site_label_1
_geom_bond_atom_site_label_2
_geom_bond_distance
_geom_bond_site_symmetry_2
_ccdc_geom_bond_type
H0 O26 0.856 . S
H1 O29 0.854 . S
H2 C37 0.930 . S
H3 C38 0.930 . S
H4 C40 0.930 1_565 S
H5 C41 0.930 1_565 S
H6 C43 0.931 . S
H7 C44 0.930 . S
H8 C46 0.930 . S
H9 C47 0.929 . S
H10 C49 0.930 . S
H11 C50 0.931 . S
H12 C52 0.930 . S
H13 C53 0.929 . S
H14 C55 0.931 . S
H15 C56 0.930 . S
H16 C58 0.930 . S
H17 C59 0.943 . S
H18 C61 0.930 . S
H19 C62 0.929 . S
H20 C64 0.931 1_565 S
H21 C65 0.930 1_565 S
H22 C67 0.929 . S
H23 C68 0.931 . S
H24 C70 0.930 . S
H25 C71 0.929 . S
O26 H0 0.856 . S
O26 C72 1.300 . S
O27 C72 1.209 1_565 S
O28 C73 1.199 . S
O29 H1 0.854 . S
O29 C73 1.297 1_565 S
C30 C31 1.404 . S
C30 C35 1.397 1_556 S
C30 C36 1.492 . S
C31 C30 1.404 . S
C31 C32 1.396 . S
C31 C42 1.492 . S
C32 C31 1.396 . S
C32 C33 1.397 . S
C32 C48 1.509 . S
C33 C32 1.397 . S
C33 C34 1.412 1_556 S
C33 C54 1.485 1_556 S
C34 C33 1.412 1_554 S
C34 C35 1.388 . S
C34 C60 1.490 . S
C35 C30 1.397 1_554 S
C35 C34 1.388 . S
C35 C66 1.519 . S
C36 C30 1.492 . S
C36 C37 1.363 . S
C36 C41 1.390 . S
C37 H2 0.930 . S
C37 C36 1.363 . S
C37 C38 1.372 . S
C38 H3 0.930 . S
C38 C37 1.372 . S
C38 C39 1.383 . S
C39 C38 1.383 . S
C39 C40 1.395 . S
C40 H4 0.930 1_545 S
C40 C39 1.395 . S
C40 C41 1.362 . S
C41 H5 0.930 1_545 S
C41 C36 1.390 . S
C41 C40 1.362 . S
C42 C31 1.492 . S
C42 C43 1.377 . S
C42 C47 1.397 1_545 S
C43 H6 0.931 . S
C43 C42 1.377 . S
C43 C44 1.376 . S
C44 H7 0.930 . S
C44 C43 1.376 . S
C44 C45 1.376 . S
C45 C44 1.376 . S
C45 C46 1.378 1_545 S
C45 C72 1.486 . S
C46 H8 0.930 . S
C46 C45 1.378 1_565 S
C46 C47 1.376 . S
C47 H9 0.929 . S
C47 C42 1.397 1_565 S
C47 C46 1.376 . S
C48 C32 1.509 . S
C48 C49 1.391 . S
C48 C53 1.386 1_545 S
C49 H10 0.930 . S
C49 C48 1.391 . S
C49 C50 1.375 . S
C50 H11 0.931 . S
C50 C49 1.375 . S
C50 C51 1.375 . S
C51 C50 1.375 . S
C51 C52 1.361 1_545 S
C52 H12 0.930 . S
C52 C51 1.361 1_565 S
C52 C53 1.399 . S
C53 H13 0.929 . S
C53 C48 1.386 1_565 S
C53 C52 1.399 . S
C54 C33 1.485 1_554 S
C54 C55 1.394 . S
C54 C59 1.354 1_544 S
C55 H14 0.931 . S
C55 C54 1.394 . S
C55 C56 1.372 . S
C56 H15 0.930 . S
C56 C55 1.372 . S
C56 C57 1.397 . S
C57 C56 1.397 . S
C57 C58 1.390 1_545 S
C57 C73 1.476 . S
C58 H16 0.930 . S
C58 C57 1.390 1_565 S
C58 C59 1.362 1_554 S
C59 H17 0.943 . S
C59 C54 1.354 1_566 S
C59 C58 1.362 1_556 S
C60 C34 1.490 . S
C60 C61 1.380 . S
C60 C65 1.386 . S
C61 H18 0.930 . S
C61 C60 1.380 . S
C61 C62 1.381 . S
C62 H19 0.929 . S
C62 C61 1.381 . S
C62 C63 1.371 . S
C63 C62 1.371 . S
C63 C64 1.380 . S
C64 H20 0.931 1_545 S
C64 C63 1.380 . S
C64 C65 1.387 . S
C65 H21 0.930 1_545 S
C65 C60 1.386 . S
C65 C64 1.387 . S
C66 C35 1.519 . S
C66 C67 1.377 . S
C66 C71 1.361 1_545 S
C67 H22 0.929 . S
C67 C66 1.377 . S
C67 C68 1.386 . S
C68 H23 0.931 . S
C68 C67 1.386 . S
C68 C69 1.363 . S
C69 C68 1.363 . S
C69 C70 1.385 1_545 S
C70 H24 0.930 . S
C70 C69 1.385 1_565 S
C70 C71 1.396 . S
C71 H25 0.929 . S
C71 C66 1.361 1_565 S
C71 C70 1.396 . S
C72 O26 1.300 . S
C72 O27 1.209 1_545 S
C72 C45 1.486 . S
C73 O28 1.199 . S
C73 O29 1.297 1_545 S
C73 C57 1.476 . S
H74 O100 0.856 . S
H75 O103 0.854 . S
H76 C111 0.930 1_655 S
H77 C112 0.930 1_655 S
H78 C114 0.930 . S
H79 C115 0.930 . S
H80 C117 0.931 . S
H81 C118 0.930 . S
H82 C120 0.930 . S
H83 C121 0.929 . S
H84 C123 0.930 . S
H85 C124 0.931 . S
H86 C126 0.930 . S
H87 C127 0.929 . S
H88 C129 0.931 1_655 S
H89 C130 0.930 . S
H90 C132 0.930 . S
H91 C133 0.932 . S
H92 C135 0.930 1_655 S
H93 C136 0.929 . S
H94 C138 0.931 . S
H95 C139 0.930 . S
H96 C141 0.929 1_655 S
H97 C142 0.931 1_655 S
H98 C144 0.930 . S
H99 C145 0.929 . S
O100 H74 0.856 . S
O100 C146 1.300 . S
O101 C146 1.209 . S
O102 C147 1.199 . S
O103 H75 0.854 . S
O103 C147 1.297 . S
C104 C105 1.404 . S
C104 C109 1.397 . S
C104 C110 1.492 . S
C105 C104 1.404 . S
C105 C106 1.396 . S
C105 C116 1.492 . S
C106 C105 1.396 . S
C106 C107 1.397 . S
C106 C122 1.509 . S
C107 C106 1.397 . S
C107 C108 1.412 . S
C107 C128 1.485 . S
C108 C107 1.412 . S
C108 C109 1.388 . S
C108 C134 1.490 . S
C109 C104 1.397 . S
C109 C108 1.388 . S
C109 C140 1.519 . S
C110 C104 1.492 . S
C110 C111 1.363 . S
C110 C115 1.390 . S
C111 H76 0.930 1_455 S
C111 C110 1.363 . S
C111 C112 1.372 . S
C112 H77 0.930 1_455 S
C112 C111 1.372 . S
C112 C113 1.383 . S
C113 C112 1.383 . S
C113 C114 1.395 . S
C114 H78 0.930 . S
C114 C113 1.395 . S
C114 C115 1.362 . S
C115 H79 0.930 . S
C115 C110 1.390 . S
C115 C114 1.362 . S
C116 C105 1.492 . S
C116 C117 1.377 . S
C116 C121 1.397 . S
C117 H80 0.931 . S
C117 C116 1.377 . S
C117 C118 1.376 . S
C118 H81 0.930 . S
C118 C117 1.376 . S
C118 C119 1.376 . S
C119 C118 1.376 . S
C119 C120 1.378 . S
C119 C146 1.486 . S
C120 H82 0.930 . S
C120 C119 1.378 . S
C120 C121 1.376 . S
C121 H83 0.929 . S
C121 C116 1.397 . S
C121 C120 1.376 . S
C122 C106 1.509 . S
C122 C123 1.391 . S
C122 C127 1.386 . S
C123 H84 0.930 . S
C123 C122 1.391 . S
C123 C124 1.375 . S
C124 H85 0.931 . S
C124 C123 1.375 . S
C124 C125 1.375 . S
C125 C124 1.375 . S
C125 C126 1.361 . S
C126 H86 0.930 . S
C126 C125 1.361 . S
C126 C127 1.399 . S
C127 H87 0.929 . S
C127 C122 1.386 . S
C127 C126 1.399 . S
C128 C107 1.485 . S
C128 C129 1.394 . S
C128 C133 1.360 . S
C129 H88 0.931 1_455 S
C129 C128 1.394 . S
C129 C130 1.372 . S
C130 H89 0.930 . S
C130 C129 1.372 . S
C130 C131 1.397 . S
C131 C130 1.397 . S
C131 C132 1.390 . S
C131 C147 1.476 . S
C132 H90 0.930 . S
C132 C131 1.390 . S
C132 C133 1.366 . S
C133 H91 0.932 . S
C133 C128 1.360 . S
C133 C132 1.366 . S
C134 C108 1.490 . S
C134 C135 1.380 . S
C134 C139 1.386 . S
C135 H92 0.930 1_455 S
C135 C134 1.380 . S
C135 C136 1.381 1_455 S
C136 H93 0.929 . S
C136 C135 1.381 1_655 S
C136 C137 1.371 1_655 S
C137 C136 1.371 1_455 S
C137 C138 1.380 . S
C138 H94 0.931 . S
C138 C137 1.380 . S
C138 C139 1.387 . S
C139 H95 0.930 . S
C139 C134 1.386 . S
C139 C138 1.387 . S
C140 C109 1.519 . S
C140 C141 1.377 . S
C140 C145 1.361 . S
C141 H96 0.929 1_455 S
C141 C140 1.377 . S
C141 C142 1.386 . S
C142 H97 0.931 1_455 S
C142 C141 1.386 . S
C142 C143 1.363 . S
C143 C142 1.363 . S
C143 C144 1.385 . S
C144 H98 0.930 . S
C144 C143 1.385 . S
C144 C145 1.396 . S
C145 H99 0.929 . S
C145 C140 1.361 . S
C145 C144 1.396 . S
C146 O100 1.300 . S
C146 O101 1.209 . S
C146 C119 1.486 . S
C147 O102 1.199 . S
C147 O103 1.297 . S
C147 C131 1.476 . S
Mg148 O149 2.028 . S
Mg148 O155 1.986 . S
Mg148 O157 2.114 1_545 S
Mg148 O158 2.251 . S
Mg148 O161 2.010 . S
O149 Mg148 2.028 . S
O149 C152 1.250 1_455 S
O150 Mg151 2.028 . S
O150 C152 1.248 . S
Mg151 O150 2.028 . S
Mg151 O156 2.032 1_655 S
Mg151 O158 2.079 1_655 S
C152 O149 1.250 1_655 S
C152 O150 1.248 . S
C153 O154 1.264 . S
C153 O161 1.249 . S
O154 C153 1.264 . S
O155 Mg148 1.986 . S
O155 C159 1.246 . S
O156 Mg151 2.032 1_455 S
O156 C159 1.259 . S
O157 Mg148 2.114 1_565 S
O157 C160 1.252 . S
O158 Mg148 2.251 . S
O158 Mg151 2.079 1_455 S
O158 C160 1.273 1_545 S
C159 O155 1.246 . S
C159 O156 1.259 . S
C160 O157 1.252 . S
C160 O158 1.273 1_565 S
O161 Mg148 2.010 . S
O161 C153 1.249 . S
Mg162 O163 2.041 . S
Mg162 O169 1.989 . S
Mg162 O171 2.114 1_545 S
Mg162 O172 2.266 1_545 S
Mg162 O175 1.992 1_455 S
O163 Mg162 2.041 . S
O163 C166 1.250 . S
O164 Mg165 2.028 . S
O164 C166 1.248 . S
Mg165 O164 2.028 . S
Mg165 O170 2.032 . S
Mg165 O172 2.079 1_545 S
C166 O163 1.250 . S
C166 O164 1.248 . S
C167 O168 1.264 . S
C167 O175 1.249 . S
O168 C167 1.264 . S
O169 Mg162 1.989 . S
O169 C173 1.246 . S
O170 Mg165 2.032 . S
O170 C173 1.259 . S
O171 Mg162 2.114 1_565 S
O171 C174 1.252 . S
O172 Mg162 2.266 1_565 S
O172 Mg165 2.079 1_565 S
O172 C174 1.273 . S
C173 O169 1.246 . S
C173 O170 1.259 . S
C174 O171 1.252 . S
C174 O172 1.273 . S
O175 Mg162 1.992 1_655 S
O175 C167 1.249 . S
H176 C184 0.950 . S
H177 C189 0.950 1_565 S
H178 C186 0.950 . S
H179 C188 0.950 1_565 S
H180 C190 0.950 1_565 S
H181 C192 0.950 1_565 S
H182 C194 0.950 . S
H183 C195 0.950 . S
C184 H176 0.950 . S
C184 C185 1.386 . S
C184 C186 1.391 . S
C185 C184 1.386 . S
C185 C189 1.393 . S
C186 H178 0.950 . S
C186 C184 1.391 . S
C186 C187 1.400 . S
C187 C186 1.400 . S
C187 C188 1.398 . S
C187 C193 1.491 . S
C188 H179 0.950 1_545 S
C188 C187 1.398 . S
C188 C189 1.391 . S
C189 H177 0.950 1_545 S
C189 C185 1.393 . S
C189 C188 1.391 . S
C190 H180 0.950 1_545 S
C190 C191 1.386 . S
C190 C192 1.391 . S
C191 C190 1.386 . S
C191 C195 1.393 . S
C192 H181 0.950 1_545 S
C192 C190 1.391 . S
C192 C193 1.400 . S
C193 C187 1.491 . S
C193 C192 1.400 . S
C193 C194 1.398 . S
C194 H182 0.950 . S
C194 C193 1.398 . S
C194 C195 1.391 . S
C195 H183 0.950 . S
C195 C191 1.393 . S
C195 C194 1.391 . S
H196 C204 0.950 . S
H197 C209 0.950 . S
H198 C206 0.950 . S
H199 C208 0.950 . S
H200 C210 0.950 1_655 S
H201 C212 0.950 . S
H202 C214 0.950 . S
H203 C215 0.950 . S
C204 H196 0.950 . S
C204 C205 1.386 . S
C204 C206 1.391 . S
C205 C204 1.386 . S
C205 C209 1.393 . S
C206 H198 0.950 . S
C206 C204 1.391 . S
C206 C207 1.400 . S
C207 C206 1.400 . S
C207 C208 1.398 . S
C207 C213 1.491 . S
C208 H199 0.950 . S
C208 C207 1.398 . S
C208 C209 1.391 . S
C209 H197 0.950 . S
C209 C205 1.393 . S
C209 C208 1.391 . S
C210 H200 0.950 1_455 S
C210 C211 1.386 . S
C210 C212 1.391 . S
C211 C210 1.386 . S
C211 C215 1.393 . S
C212 H201 0.950 . S
C212 C210 1.391 . S
C212 C213 1.400 . S
C213 C207 1.491 . S
C213 C212 1.400 . S
C213 C214 1.398 . S
C214 H202 0.950 . S
C214 C213 1.398 . S
C214 C215 1.391 . S
C215 H203 0.950 . S
C215 C211 1.393 . S
C215 C214 1.391 . S
H216 C224 0.950 . S
H217 C229 0.950 . S
H218 C226 0.950 . S
H219 C228 0.950 . S
H220 C230 0.950 . S
H221 C232 0.950 . S
H222 C234 0.950 . S
H223 C235 0.950 . S
C224 H216 0.950 . S
C224 C225 1.386 . S
C224 C226 1.391 . S
C225 C224 1.386 . S
C225 C229 1.393 . S
C226 H218 0.950 . S
C226 C224 1.391 . S
C226 C227 1.400 . S
C227 C226 1.400 . S
C227 C228 1.398 . S
C227 C233 1.491 . S
C228 H219 0.950 . S
C228 C227 1.398 . S
C228 C229 1.391 . S
C229 H217 0.950 . S
C229 C225 1.393 . S
C229 C228 1.391 . S
C230 H220 0.950 . S
C230 C231 1.386 . S
C230 C232 1.391 . S
C231 C230 1.386 . S
C231 C235 1.393 . S
C232 H221 0.950 . S
C232 C230 1.391 . S
C232 C233 1.400 . S
C233 C227 1.491 . S
C233 C232 1.400 . S
C233 C234 1.398 . S
C234 H222 0.950 . S
C234 C233 1.398 . S
C234 C235 1.391 . S
C235 H223 0.950 . S
C235 C231 1.393 . S
C235 C234 1.391 . S
H236 C244 0.950 . S
H237 C249 0.950 . S
H238 C246 0.950 . S
H239 C248 0.950 . S
H240 C250 0.950 . S
H241 C252 0.950 . S
H242 C254 0.950 . S
H243 C255 0.950 . S
C244 H236 0.950 . S
C244 C245 1.386 . S
C244 C246 1.391 . S
C245 C244 1.386 . S
C245 C249 1.393 . S
C246 H238 0.950 . S
C246 C244 1.391 . S
C246 C247 1.400 . S
C247 C246 1.400 . S
C247 C248 1.398 . S
C247 C253 1.491 . S
C248 H239 0.950 . S
C248 C247 1.398 . S
C248 C249 1.391 . S
C249 H237 0.950 . S
C249 C245 1.393 . S
C249 C248 1.391 . S
C250 H240 0.950 . S
C250 C251 1.386 . S
C250 C252 1.391 . S
C251 C250 1.386 . S
C251 C255 1.393 . S
C252 H241 0.950 . S
C252 C250 1.391 . S
C252 C253 1.400 . S
C253 C247 1.491 . S
C253 C252 1.400 . S
C253 C254 1.398 . S
C254 H242 0.950 . S
C254 C253 1.398 . S
C254 C255 1.391 . S
C255 H243 0.950 . S
C255 C251 1.393 . S
C255 C254 1.391 . S
H256 C264 0.950 . S
H257 C269 0.950 . S
H258 C266 0.950 . S
H259 C268 0.950 . S
H260 C270 0.950 . S
H261 C272 0.950 . S
H262 C274 0.950 . S
H263 C275 0.950 . S
C264 H256 0.950 . S
C264 C265 1.386 . S
C264 C266 1.391 . S
C265 C264 1.386 . S
C265 C269 1.393 . S
C266 H258 0.950 . S
C266 C264 1.391 . S
C266 C267 1.400 . S
C267 C266 1.400 . S
C267 C268 1.398 . S
C267 C273 1.491 . S
C268 H259 0.950 . S
C268 C267 1.398 . S
C268 C269 1.391 . S
C269 H257 0.950 . S
C269 C265 1.393 . S
C269 C268 1.391 . S
C270 H260 0.950 . S
C270 C271 1.386 . S
C270 C272 1.391 . S
C271 C270 1.386 . S
C271 C275 1.393 . S
C272 H261 0.950 . S
C272 C270 1.391 . S
C272 C273 1.400 . S
C273 C267 1.491 . S
C273 C272 1.400 . S
C273 C274 1.398 . S
C274 H262 0.950 . S
C274 C273 1.398 . S
C274 C275 1.391 . S
C275 H263 0.950 . S
C275 C271 1.393 . S
C275 C274 1.391 . S
H276 C284 0.950 1_655 S
H277 C289 0.950 . S
H278 C286 0.950 1_655 S
H279 C288 0.950 . S
H280 C290 0.950 . S
H281 C292 0.950 . S
H282 C294 0.950 1_655 S
H283 C295 0.950 1_655 S
C284 H276 0.950 1_455 S
C284 C285 1.386 . S
C284 C286 1.391 . S
C285 C284 1.386 . S
C285 C289 1.393 . S
C286 H278 0.950 1_455 S
C286 C284 1.391 . S
C286 C287 1.400 . S
C287 C286 1.400 . S
C287 C288 1.398 . S
C287 C293 1.491 . S
C288 H279 0.950 . S
C288 C287 1.398 . S
C288 C289 1.391 . S
C289 H277 0.950 . S
C289 C285 1.393 . S
C289 C288 1.391 . S
C290 H280 0.950 . S
C290 C291 1.386 . S
C290 C292 1.391 . S
C291 C290 1.386 . S
C291 C295 1.393 . S
C292 H281 0.950 . S
C292 C290 1.391 . S
C292 C293 1.400 . S
C293 C287 1.491 . S
C293 C292 1.400 . S
C293 C294 1.398 . S
C294 H282 0.950 1_455 S
C294 C293 1.398 . S
C294 C295 1.391 . S
C295 H283 0.950 1_455 S
C295 C291 1.393 . S
C295 C294 1.391 . S
H296 C304 0.950 . S
H297 C309 0.950 . S
H298 C306 0.950 . S
H299 C308 0.950 . S
H300 C310 0.950 . S
H301 C312 0.950 . S
H302 C314 0.950 . S
H303 C315 0.950 . S
C304 H296 0.950 . S
C304 C305 1.386 . S
C304 C306 1.391 . S
C305 C304 1.386 . S
C305 C309 1.393 . S
C306 H298 0.950 . S
C306 C304 1.391 . S
C306 C307 1.400 . S
C307 C306 1.400 . S
C307 C308 1.398 . S
C307 C313 1.491 . S
C308 H299 0.950 . S
C308 C307 1.398 . S
C308 C309 1.391 . S
C309 H297 0.950 . S
C309 C305 1.393 . S
C309 C308 1.391 . S
C310 H300 0.950 . S
C310 C311 1.386 . S
C310 C312 1.391 . S
C311 C310 1.386 . S
C311 C315 1.393 . S
C312 H301 0.950 . S
C312 C310 1.391 . S
C312 C313 1.400 . S
C313 C307 1.491 . S
C313 C312 1.400 . S
C313 C314 1.398 . S
C314 H302 0.950 . S
C314 C313 1.398 . S
C314 C315 1.391 . S
C315 H303 0.950 . S
C315 C311 1.393 . S
C315 C314 1.391 . S
H316 C324 0.950 . S
H317 C329 0.950 . S
H318 C326 0.950 . S
H319 C328 0.950 . S
H320 C330 0.950 1_655 S
H321 C332 0.950 . S
H322 C334 0.950 . S
H323 C335 0.950 . S
C324 H316 0.950 . S
C324 C325 1.386 . S
C324 C326 1.391 . S
C325 C324 1.386 . S
C325 C329 1.393 . S
C326 H318 0.950 . S
C326 C324 1.391 . S
C326 C327 1.400 . S
C327 C326 1.400 . S
C327 C328 1.398 . S
C327 C333 1.491 . S
C328 H319 0.950 . S
C328 C327 1.398 . S
C328 C329 1.391 . S
C329 H317 0.950 . S
C329 C325 1.393 . S
C329 C328 1.391 . S
C330 H320 0.950 1_455 S
C330 C331 1.386 . S
C330 C332 1.391 . S
C331 C330 1.386 . S
C331 C335 1.393 . S
C332 H321 0.950 . S
C332 C330 1.391 . S
C332 C333 1.400 . S
C333 C327 1.491 . S
C333 C332 1.400 . S
C333 C334 1.398 . S
C334 H322 0.950 . S
C334 C333 1.398 . S
C334 C335 1.391 . S
C335 H323 0.950 . S
C335 C331 1.393 . S
C335 C334 1.391 . S
C191 C153 1.840 . S
C185 C69 2.119 . S
C211 C173 2.104 . S
C205 C143 2.153 . S
C231 C152 1.530 . S
C225 C63 1.480 . S
C251 C174 1.582 . S
C245 C137 1.460 . S
C271 C166 1.465 . S
C265 C39 1.391 . S
C291 C159 1.342 . S
C285 C113 1.325 . S
C311 C167 0.769 . S
C305 C51 0.800 . S
C325 C125 0.836 . S
C331 C160 0.831 . S
