# Generated by pormake.
# Topology apo, (3,6)-cn, num edge types: 1
# Building blocks:
#     Node 0, Type 0, BuildingBlock: MIDCAF_clean_linker_0, # of connection points: 3
#     Node 1, Type 0, BuildingBlock: MIDCAF_clean_linker_0, # of connection points: 3
#     Node 2, Type 0, BuildingBlock: MIDCAF_clean_linker_0, # of connection points: 3
#     Node 3, Type 0, BuildingBlock: MIDCAF_clean_linker_0, # of connection points: 3
#     Node 4, Type 0, BuildingBlock: MIDCAF_clean_linker_0, # of connection points: 3
#     Node 5, Type 0, BuildingBlock: MIDCAF_clean_linker_0, # of connection points: 3
#     Node 6, Type 0, BuildingBlock: MIDCAF_clean_linker_0, # of connection points: 3
#     Node 7, Type 0, BuildingBlock: MIDCAF_clean_linker_0, # of connection points: 3
#     Node 8, Type 1, BuildingBlock: KUMBOL_clean_sbu_1, # of connection points: 6
#     Node 9, Type 1, BuildingBlock: KUMBOL_clean_sbu_1, # of connection points: 6
#     Node 10, Type 1, BuildingBlock: KUMBOL_clean_sbu_1, # of connection points: 6
#     Node 11, Type 1, BuildingBlock: KUMBOL_clean_sbu_1, # of connection points: 6
#     Edge 12, Type (0, 1), BuildingBlock: AJUNOK_clean_linker_0, # of connection points: 2
#     Edge 13, Type (0, 1), BuildingBlock: AJUNOK_clean_linker_0, # of connection points: 2
#     Edge 14, Type (0, 1), BuildingBlock: AJUNOK_clean_linker_0, # of connection points: 2
#     Edge 15, Type (0, 1), BuildingBlock: AJUNOK_clean_linker_0, # of connection points: 2
#     Edge 16, Type (0, 1), BuildingBlock: AJUNOK_clean_linker_0, # of connection points: 2
#     Edge 17, Type (0, 1), BuildingBlock: AJUNOK_clean_linker_0, # of connection points: 2
#     Edge 18, Type (0, 1), BuildingBlock: AJUNOK_clean_linker_0, # of connection points: 2
#     Edge 19, Type (0, 1), BuildingBlock: AJUNOK_clean_linker_0, # of connection points: 2
#     Edge 20, Type (0, 1), BuildingBlock: AJUNOK_clean_linker_0, # of connection points: 2
#     Edge 21, Type (0, 1), BuildingBlock: AJUNOK_clean_linker_0, # of connection points: 2
#     Edge 22, Type (0, 1), BuildingBlock: AJUNOK_clean_linker_0, # of connection points: 2
#     Edge 23, Type (0, 1), BuildingBlock: AJUNOK_clean_linker_0, # of connection points: 2
#     Edge 24, Type (0, 1), BuildingBlock: AJUNOK_clean_linker_0, # of connection points: 2
#     Edge 25, Type (0, 1), BuildingBlock: AJUNOK_clean_linker_0, # of connection points: 2
#     Edge 26, Type (0, 1), BuildingBlock: AJUNOK_clean_linker_0, # of connection points: 2
#     Edge 27, Type (0, 1), BuildingBlock: AJUNOK_clean_linker_0, # of connection points: 2
#     Edge 28, Type (0, 1), BuildingBlock: AJUNOK_clean_linker_0, # of connection points: 2
#     Edge 29, Type (0, 1), BuildingBlock: AJUNOK_clean_linker_0, # of connection points: 2
#     Edge 30, Type (0, 1), BuildingBlock: AJUNOK_clean_linker_0, # of connection points: 2
#     Edge 31, Type (0, 1), BuildingBlock: AJUNOK_clean_linker_0, # of connection points: 2
#     Edge 32, Type (0, 1), BuildingBlock: AJUNOK_clean_linker_0, # of connection points: 2
#     Edge 33, Type (0, 1), BuildingBlock: AJUNOK_clean_linker_0, # of connection points: 2
#     Edge 34, Type (0, 1), BuildingBlock: AJUNOK_clean_linker_0, # of connection points: 2
#     Edge 35, Type (0, 1), BuildingBlock: AJUNOK_clean_linker_0, # of connection points: 2
# Relax obj value: 0.008
# Max RMSD: 0.110
# Mean RMSD: 0.085
data_MOF--net-apo--node1-KUMBOL_clean_sbu_1--node2-MIDCAF_clean_linker_0--edge1-AJUNOK_clean_linker_0
_symmetry_space_group_name_H-M    P1
_symmetry_Int_Tables_number       1
_symmetry_cell_setting            triclinic
loop_
_symmetry_equiv_pos_as_xyz
'x, y, z'
_cell_length_a     23.079139
_cell_length_b     40.574169
_cell_length_c     51.403922
_cell_angle_alpha  89.9726
_cell_angle_beta   89.928631
_cell_angle_gamma 90.913645
loop_
_atom_site_label
_atom_site_type_symbol
_atom_site_fract_x
_atom_site_fract_y
_atom_site_fract_z
_atom_type_partial_charge
C0 C 0.35853 0.39964 0.50367 0.0
C1 C 0.33198 0.37714 0.52084 0.0
C2 C 0.29184 0.35394 0.51089 0.0
C3 C 0.27845 0.35347 0.48422 0.0
H4 H 0.22617 0.29011 0.41651 0.0
H5 H 0.17767 0.24635 0.39122 0.0
H6 H 0.14412 0.31595 0.32975 0.0
H7 H 0.19104 0.35937 0.35475 0.0
H8 H 0.26964 0.4196 0.34808 0.0
H9 H 0.30549 0.46537 0.3217 0.0
H10 H 0.40212 0.50319 0.38733 0.0
H11 H 0.36562 0.45764 0.41413 0.0
H12 H 0.3664 0.41735 0.46482 0.0
H13 H 0.38927 0.41798 0.51078 0.0
H14 H 0.2711 0.3361 0.52368 0.0
H15 H 0.24715 0.33548 0.47711 0.0
N16 N 0.25871 0.35273 0.42726 0.0
N17 N 0.26368 0.38151 0.38765 0.0
N18 N 0.30753 0.40397 0.42461 0.0
C19 C 0.24552 0.35475 0.40144 0.0
C20 C 0.29465 0.40618 0.39897 0.0
C21 C 0.28974 0.37751 0.43898 0.0
C22 C 0.21288 0.32823 0.38764 0.0
C23 C 0.20794 0.29606 0.39771 0.0
C24 C 0.18073 0.27098 0.38315 0.0
C25 C 0.15772 0.27773 0.3584 0.0
C26 C 0.16136 0.31002 0.34876 0.0
C27 C 0.1886 0.33488 0.36312 0.0
C28 C 0.31505 0.43472 0.38324 0.0
C29 C 0.29849 0.4376 0.35701 0.0
C30 C 0.31922 0.46372 0.3418 0.0
C31 C 0.35723 0.48746 0.35239 0.0
C32 C 0.37284 0.48514 0.37872 0.0
C33 C 0.35202 0.459 0.394 0.0
C34 C 0.30464 0.3764 0.46712 0.0
C35 C 0.34503 0.39934 0.47726 0.0
C36 C 0.18061 0.08601 1.00643 0.0
C37 C 0.20157 0.11234 0.02165 0.0
C38 C 0.22529 0.14021 1.00906 0.0
C39 C 0.22943 0.14133 0.98185 0.0
H40 H 0.32788 0.18513 0.91673 0.0
H41 H 0.37902 0.22849 0.89184 0.0
H42 H 0.2753 0.20517 0.82447 0.0
H43 H 0.2249 0.16161 0.84884 0.0
H44 H 0.18566 0.08656 0.84392 0.0
H45 H 0.14795 0.04079 0.81793 0.0
H46 H 0.11692 0.98417 0.8877 0.0
H47 H 0.15432 0.03002 0.91408 0.0
H48 H 0.16822 0.06619 0.96831 0.0
H49 H 0.16109 0.06447 0.01555 0.0
H50 H 0.24182 0.16088 0.02031 0.0
H51 H 0.2486 0.16304 0.97284 0.0
N52 N 0.24051 0.14135 0.92521 0.0
N53 N 0.22165 0.11633 0.88488 0.0
N54 N 0.19273 0.08979 0.9233 0.0
C55 C 0.24401 0.14197 0.89875 0.0
C56 C 0.19622 0.09008 0.8969 0.0
C57 C 0.21444 0.11535 0.93765 0.0
C58 C 0.27246 0.16985 0.88475 0.0
C59 C 0.31564 0.18945 0.8967 0.0
C60 C 0.34499 0.21411 0.88251 0.0
C61 C 0.33079 0.21988 0.85638 0.0
C62 C 0.28678 0.20101 0.84463 0.0
C63 C 0.25817 0.17609 0.8586 0.0
C64 C 0.17308 0.06209 0.88119 0.0
C65 C 0.17094 0.06443 0.85387 0.0
C66 C 0.1493 0.03827 0.83891 0.0
C67 C 0.13 0.00903 0.85086 0.0
C68 C 0.13226 0.00641 0.87808 0.0
C69 C 0.15335 0.03275 0.89313 0.0
C70 C 0.20951 0.11466 0.96658 0.0
C71 C 0.18454 0.08713 0.97928 0.0
C72 C 0.84681 0.12061 0.5216 0.0
C73 C 0.8498 0.15348 0.51306 0.0
C74 C 0.83561 0.1788 0.53034 0.0
C75 C 0.81884 0.17151 0.5558 0.0
H76 H 0.69255 0.20101 0.61374 0.0
H77 H 0.64329 0.24215 0.63998 0.0
H78 H 0.71003 0.1976 0.70994 0.0
H79 H 0.75692 0.15562 0.68385 0.0
H80 H 0.74603 0.07118 0.6723 0.0
H81 H 0.77511 0.02334 0.69724 0.0
H82 H 0.90653 0.00233 0.64006 0.0
H83 H 0.87677 0.05025 0.61454 0.0
H84 H 0.82911 0.08774 0.55344 0.0
H85 H 0.85743 0.1007 0.50849 0.0
H86 H 0.83695 0.2043 0.52405 0.0
H87 H 0.80823 0.19174 0.5686 0.0
N88 N 0.77169 0.15496 0.60597 0.0
N89 N 0.76887 0.11997 0.64208 0.0
N90 N 0.81101 0.10196 0.60316 0.0
C91 C 0.75669 0.14936 0.63111 0.0
C92 C 0.79566 0.09609 0.62835 0.0
C93 C 0.79892 0.13147 0.59184 0.0
C94 C 0.72848 0.17508 0.64673 0.0
C95 C 0.69689 0.20013 0.63471 0.0
C96 C 0.66907 0.22383 0.64973 0.0
C97 C 0.67341 0.22336 0.67703 0.0
C98 C 0.70553 0.19846 0.68897 0.0
C99 C 0.73247 0.17447 0.67401 0.0
C100 C 0.80969 0.06483 0.64159 0.0
C101 C 0.78098 0.05635 0.66487 0.0
C102 C 0.79771 0.02903 0.67926 0.0
C103 C 0.84388 0.00967 0.67087 0.0
C104 C 0.87089 0.01703 0.64698 0.0
C105 C 0.85387 0.0444 0.6324 0.0
C106 C 0.81646 0.13868 0.56465 0.0
C107 C 0.8308 0.11327 0.54729 0.0
C108 C 0.63657 0.37988 0.02472 0.0
C109 C 0.66761 0.35645 1.01052 0.0
C110 C 0.71244 0.33942 0.02276 0.0
C111 C 0.72533 0.34522 0.04891 0.0
H112 H 0.8172 0.30537 0.11404 0.0
H113 H 0.86664 0.26447 0.14073 0.0
H114 H 0.77906 0.30068 0.20905 0.0
H115 H 0.73188 0.34214 0.18282 0.0
H116 H 0.73562 0.426 0.17709 0.0
H117 H 0.70264 0.47289 0.20203 0.0
H118 H 0.58341 0.49729 0.14055 0.0
H119 H 0.61755 0.45053 0.11501 0.0
H120 H 0.62485 0.404 0.06136 0.0
H121 H 0.60175 0.39328 0.01564 0.0
H122 H 0.73653 0.32096 1.01226 0.0
H123 H 0.75966 0.33131 0.05788 0.0
N124 N 0.73393 0.34956 0.10503 0.0
N125 N 0.72514 0.38073 0.14304 0.0
N126 N 0.68748 0.40077 0.10394 0.0
C127 C 0.74319 0.35313 0.13095 0.0
C128 C 0.69771 0.40473 0.12982 0.0
C129 C 0.70586 0.37324 0.09139 0.0
C130 C 0.7713 0.32721 0.14638 0.0
C131 C 0.8087 0.30455 0.13476 0.0
C132 C 0.83688 0.28117 0.15002 0.0
C133 C 0.82762 0.27987 0.17707 0.0
C134 C 0.78868 0.30183 0.18844 0.0
C135 C 0.76131 0.32542 0.17333 0.0
C136 C 0.67905 0.43443 0.14403 0.0
C137 C 0.70254 0.44137 0.16872 0.0
C138 C 0.68361 0.46821 0.18311 0.0
C139 C 0.64062 0.48876 0.17324 0.0
C140 C 0.61743 0.48217 0.14844 0.0
C141 C 0.63676 0.45535 0.13387 0.0
C142 C 0.69399 0.36844 0.06331 0.0
C143 C 0.64998 0.38605 0.05082 0.0
C144 C 0.6922 0.58647 0.51418 0.0
C145 C 0.70987 0.61431 0.49982 0.0
C146 C 0.73082 0.64224 0.51318 0.0
C147 C 0.73416 0.6423 0.54036 0.0
H148 H 0.71856 0.70272 0.62875 0.0
H149 H 0.76575 0.74539 0.65548 0.0
H150 H 0.90367 0.67805 0.67313 0.0
H151 H 0.85375 0.635 0.64822 0.0
H152 H 0.60686 0.58993 0.65377 0.0
H153 H 0.56427 0.54548 0.67996 0.0
H154 H 0.70127 0.48093 0.65545 0.0
H155 H 0.74097 0.52503 0.6277 0.0
H156 H 0.68129 0.56459 0.55174 0.0
H157 H 0.67582 0.56462 0.50436 0.0
H158 H 0.74567 0.66386 0.50258 0.0
H159 H 0.75083 0.66421 0.54999 0.0
N160 N 0.7471 0.63971 0.59652 0.0
N161 N 0.72958 0.61325 0.63648 0.0
N162 N 0.69896 0.58826 0.59757 0.0
C163 C 0.75184 0.63915 0.62286 0.0
C164 C 0.70293 0.58787 0.62391 0.0
C165 C 0.72082 0.6142 0.58368 0.0
C166 C 0.78257 0.66576 0.63675 0.0
C167 C 0.75892 0.69728 0.63847 0.0
C168 C 0.78606 0.72162 0.65369 0.0
C169 C 0.83786 0.71498 0.66705 0.0
C170 C 0.86262 0.6837 0.66414 0.0
C171 C 0.83463 0.65916 0.64956 0.0
C172 C 0.67702 0.56067 0.63897 0.0
C173 C 0.6274 0.5661 0.65396 0.0
C174 C 0.60363 0.54077 0.6692 0.0
C175 C 0.63032 0.50985 0.67046 0.0
C176 C 0.67964 0.50441 0.65497 0.0
C177 C 0.70252 0.52957 0.63918 0.0
C178 C 0.71651 0.61442 0.55482 0.0
C179 C 0.69523 0.58655 0.54135 0.0
C180 C 0.82972 0.91017 0.02318 0.0
C181 C 0.8205 0.88238 1.00745 0.0
C182 C 0.79706 0.85348 0.01871 0.0
C183 C 0.78447 0.85232 0.04545 0.0
H184 H 0.72255 0.79089 0.11158 0.0
H185 H 0.66849 0.7482 0.13601 0.0
H186 H 0.65235 0.8149 0.20084 0.0
H187 H 0.70554 0.85714 0.17695 0.0
H188 H 0.88562 0.90072 0.1675 0.0
H189 H 0.92665 0.94594 0.1932 0.0
H190 H 0.81103 0.01369 0.15525 0.0
H191 H 0.7744 0.96868 0.12787 0.0
H192 H 0.82561 0.93111 0.06099 0.0
H193 H 0.84685 0.93292 0.01496 0.0
H194 H 0.78984 0.83162 1.00701 0.0
H195 H 0.76763 0.82958 0.05376 0.0
N196 N 0.7582 0.85358 0.102 0.0
N197 N 0.77486 0.87894 0.14248 0.0
N198 N 0.808 0.90448 0.10444 0.0
C199 C 0.75181 0.85364 0.12842 0.0
C200 C 0.80274 0.90431 0.1306 0.0
C201 C 0.78646 0.87916 0.08991 0.0
C202 C 0.7185 0.82743 0.14227 0.0
C203 C 0.70717 0.79642 0.13098 0.0
C204 C 0.67652 0.77202 0.14494 0.0
C205 C 0.65587 0.77852 0.17014 0.0
C206 C 0.66706 0.80945 0.1813 0.0
C207 C 0.698 0.83355 0.1676 0.0
C208 C 0.8269 0.9315 0.14602 0.0
C209 C 0.86941 0.92539 0.16472 0.0
C210 C 0.8922 0.95122 0.17964 0.0
C211 C 0.87092 0.98337 0.17689 0.0
C212 C 0.82853 0.98931 0.15785 0.0
C213 C 0.80728 0.96363 0.1423 0.0
C214 C 0.79525 0.88004 0.06128 0.0
C215 C 0.81728 0.90906 0.04965 0.0
C216 C 0.1524 0.88506 0.50736 0.0
C217 C 0.17331 0.85647 0.5194 0.0
C218 C 0.20307 0.83349 0.50421 0.0
C219 C 0.21188 0.83879 0.47771 0.0
H220 H 0.23378 0.78729 0.40257 0.0
H221 H 0.27711 0.7458 0.37441 0.0
H222 H 0.36805 0.8229 0.33213 0.0
H223 H 0.32168 0.8642 0.35906 0.0
H224 H 0.24256 0.92936 0.35382 0.0
H225 H 0.20682 0.97427 0.32746 0.0
H226 H 0.07659 0.99437 0.3854 0.0
H227 H 0.11307 0.94932 0.41237 0.0
H228 H 0.14487 0.91275 0.47196 0.0
H229 H 0.12863 0.90303 0.5185 0.0
H230 H 0.22033 0.8114 0.51294 0.0
H231 H 0.23537 0.8204 0.46689 0.0
N232 N 0.23103 0.84935 0.42349 0.0
N233 N 0.22827 0.88242 0.38631 0.0
N234 N 0.18607 0.90096 0.42509 0.0
C235 C 0.24411 0.85417 0.39805 0.0
C236 C 0.19901 0.90584 0.39947 0.0
C237 C 0.20263 0.87275 0.43731 0.0
C238 C 0.27407 0.82887 0.3828 0.0
C239 C 0.26305 0.79523 0.38722 0.0
C240 C 0.28783 0.77154 0.37109 0.0
C241 C 0.32496 0.78105 0.35057 0.0
C242 C 0.33775 0.81473 0.34697 0.0
C243 C 0.31185 0.83839 0.36263 0.0
C244 C 0.1802 0.93547 0.38513 0.0
C245 C 0.20632 0.94329 0.3611 0.0
C246 C 0.18563 0.96889 0.34583 0.0
C247 C 0.13802 0.9872 0.35406 0.0
C248 C 0.11318 0.98041 0.37854 0.0
C249 C 0.13413 0.95473 0.39399 0.0
C250 C 0.19135 0.86736 0.46551 0.0
C251 C 0.16139 0.89049 0.48066 0.0
C252 C 0.34278 0.61839 1.00397 0.0
C253 C 0.34158 0.65071 0.01368 0.0
C254 C 0.32797 0.67665 0.99684 0.0
C255 C 0.31444 0.67036 0.97083 0.0
H256 H 0.24282 0.71444 0.90432 0.0
H257 H 0.19381 0.75504 0.87726 0.0
H258 H 0.13457 0.67726 0.826 0.0
H259 H 0.1848 0.63699 0.85233 0.0
H260 H 0.24765 0.56973 0.85358 0.0
H261 H 0.28158 0.5235 0.82801 0.0
H262 H 0.42144 0.50945 0.8824 0.0
H263 H 0.38655 0.55544 0.90862 0.0
H264 H 0.33078 0.5869 0.97091 0.0
H265 H 0.35357 0.59804 0.01663 0.0
H266 H 0.32665 0.70176 1.00396 0.0
H267 H 0.30342 0.69091 0.95843 0.0
N268 N 0.26779 0.6541 0.92018 0.0
N269 N 0.26562 0.6193 0.88393 0.0
N270 N 0.31338 0.60271 0.92183 0.0
C271 C 0.25094 0.64805 0.89533 0.0
C272 C 0.29694 0.5966 0.89687 0.0
C273 C 0.29857 0.63142 0.93365 0.0
C274 C 0.21822 0.67258 0.8803 0.0
C275 C 0.21923 0.70605 0.8873 0.0
C276 C 0.19125 0.72926 0.87183 0.0
C277 C 0.16151 0.71936 0.84922 0.0
C278 C 0.15881 0.68576 0.8428 0.0
C279 C 0.18723 0.66267 0.85804 0.0
C280 C 0.31479 0.56648 0.88302 0.0
C281 C 0.28555 0.55676 0.86022 0.0
C282 C 0.3052 0.53044 0.84541 0.0
C283 C 0.35498 0.51346 0.85285 0.0
C284 C 0.38306 0.52227 0.87617 0.0
C285 C 0.36304 0.54852 0.89118 0.0
C286 C 0.31507 0.63801 0.96103 0.0
C287 C 0.33003 0.6121 0.97781 0.0
C288 C 0.80857 0.1149 0.272 0.0
C289 C 0.7934 0.05843 0.28652 0.0
C290 C 0.82842 0.0871 0.28467 0.0
C291 C 0.73941 0.05738 0.27398 0.0
C292 C 0.75302 0.11449 0.26056 0.0
C293 C 0.71936 0.08531 0.26092 0.0
N294 N 0.84145 0.14303 0.27277 0.0
C295 C 0.81836 0.17226 0.26503 0.0
C296 C 0.73182 0.14381 0.25019 0.0
C297 C 0.76418 0.17295 0.25292 0.0
Gd298 Gd 0.06156 0.13735 0.23676 0.0
Gd299 Gd 0.93346 0.1381 0.2923 0.0
N300 N 0.88114 0.08865 0.2963 0.0
C301 C 0.81285 0.03218 0.30175 0.0
C302 C 0.89922 0.06394 0.31221 0.0
C303 C 0.86548 0.03521 0.31506 0.0
H304 H 0.94008 0.06638 0.32236 0.0
H305 H 0.88031 0.01535 0.32729 0.0
H306 H 0.02618 0.2097 0.20814 0.0
H307 H 0.84079 0.19534 0.26859 0.0
H308 H 0.06573 0.26611 0.20513 0.0
H309 H 0.78699 0.00981 0.30383 0.0
H310 H 0.71211 0.03544 0.27489 0.0
H311 H 0.16517 0.09201 0.26357 0.0
H312 H 0.68941 0.14452 0.24121 0.0
H313 H 0.74689 0.19608 0.24621 0.0
H314 H 0.25312 0.25956 0.24484 0.0
H315 H 0.67684 0.08447 0.25202 0.0
H316 H 0.31342 0.15448 0.27667 0.0
H317 H 0.26539 0.09963 0.2794 0.0
N318 N 0.15609 0.14224 0.25271 0.0
C319 C 0.18211 0.17237 0.25032 0.0
C320 C 0.18531 0.11618 0.26272 0.0
C321 C 0.26935 0.15131 0.26975 0.0
C322 C 0.24231 0.12033 0.27145 0.0
C323 C 0.23925 0.17783 0.25915 0.0
H324 H 0.30812 0.2142 0.26407 0.0
N325 N 0.09608 0.1917 0.2307 0.0
C326 C 0.15089 0.19794 0.23942 0.0
C327 C 0.14459 0.25459 0.22531 0.0
C328 C 0.17639 0.22964 0.23715 0.0
C329 C 0.06664 0.21538 0.21757 0.0
C330 C 0.08978 0.2473 0.21519 0.0
O331 O 0.94089 0.0931 0.26661 0.0
O332 O 0.97011 0.1196 0.23014 0.0
O333 O 0.0835 0.14364 0.19601 0.0
O334 O 0.09754 0.09664 0.21466 0.0
O335 O 0.01886 0.11452 0.30185 0.0
O336 O 0.05784 0.09304 0.26377 0.0
O337 O 0.08042 0.15963 0.27657 0.0
O338 O 0.99298 0.18201 0.28682 0.0
O339 O 0.95336 0.13619 0.33357 0.0
O340 O 0.87333 0.15765 0.32057 0.0
O341 O 0.97653 0.16121 0.22639 0.0
O342 O 0.94051 0.18211 0.26502 0.0
C343 C 0.94883 0.09331 0.24142 0.0
C344 C 0.04847 0.0921 0.28918 0.0
C345 C 0.15642 0.11083 0.17791 0.0
C346 C 0.20321 0.1082 0.13522 0.0
C347 C 0.2606 0.10477 0.17478 0.0
C348 C 0.2106 0.10762 0.18988 0.0
C349 C 0.25703 0.10495 0.14764 0.0
C350 C 0.15301 0.11145 0.15053 0.0
C351 C 0.10292 0.11395 0.19335 0.0
C352 C 0.23298 0.23533 0.24634 0.0
C353 C 0.26437 0.20948 0.25724 0.0
H354 H 0.16259 0.27928 0.22324 0.0
C355 C 0.04932 0.18082 0.28971 0.0
C356 C 0.9448 0.18227 0.23942 0.0
C357 C 0.91169 0.17632 0.36049 0.0
C358 C 0.90511 0.19071 0.40644 0.0
C359 C 0.92593 0.23305 0.37396 0.0
C360 C 0.92347 0.20937 0.35425 0.0
C361 C 0.91629 0.22391 0.39987 0.0
C362 C 0.90317 0.16708 0.38648 0.0
C363 C 0.90616 0.15099 0.34035 0.0
H364 H 0.3023 0.10236 0.18413 0.0
H365 H 0.21435 0.10731 0.21083 0.0
H366 H 0.29642 0.10281 0.13632 0.0
H367 H 0.11124 0.11398 0.14116 0.0
H368 H 0.93448 0.25863 0.3691 0.0
H369 H 0.92989 0.21684 0.33421 0.0
H370 H 0.91647 0.24292 0.41465 0.0
H371 H 0.89467 0.14137 0.39112 0.0
C372 C 0.68327 0.38494 0.76348 0.0
C373 C 0.69809 0.44321 0.77233 0.0
C374 C 0.66453 0.41403 0.77446 0.0
C375 C 0.74909 0.44319 0.7574 0.0
C376 C 0.73619 0.38436 0.74975 0.0
C377 C 0.76799 0.41383 0.74603 0.0
N378 N 0.65231 0.35678 0.76817 0.0
C379 C 0.67543 0.32689 0.76231 0.0
C380 C 0.75689 0.35397 0.74127 0.0
C381 C 0.72699 0.32504 0.74808 0.0
Gd382 Gd 0.42808 0.35877 0.73922 0.0
Gd383 Gd 0.56328 0.36322 0.79009 0.0
N384 N 0.61469 0.41334 0.78846 0.0
C385 C 0.68047 0.47111 0.7861 0.0
C386 C 0.59886 0.43978 0.8031 0.0
C387 C 0.63135 0.46916 0.80202 0.0
H388 H 0.56046 0.43823 0.81515 0.0
H389 H 0.61813 0.49035 0.8132 0.0
H390 H 0.46931 0.29283 0.70315 0.0
H391 H 0.65439 0.3043 0.76861 0.0
H392 H 0.44367 0.23401 0.69949 0.0
H393 H 0.70528 0.49398 0.78511 0.0
H394 H 0.77514 0.46547 0.75521 0.0
H395 H 0.32108 0.39354 0.77183 0.0
H396 H 0.79726 0.35245 0.73058 0.0
H397 H 0.74404 0.30129 0.74273 0.0
H398 H 0.27284 0.22143 0.75204 0.0
H399 H 0.80842 0.41392 0.73529 0.0
H400 H 0.19547 0.31853 0.79134 0.0
H401 H 0.22836 0.37689 0.79274 0.0
N402 N 0.3401 0.34504 0.75928 0.0
C403 C 0.32175 0.31319 0.75725 0.0
C404 C 0.30683 0.36805 0.77122 0.0
C405 C 0.23593 0.32574 0.78209 0.0
C406 C 0.25441 0.3587 0.78297 0.0
C407 C 0.26956 0.30252 0.76902 0.0
H408 H 0.21303 0.26042 0.7765 0.0
N409 N 0.40483 0.30278 0.73166 0.0
C410 C 0.35573 0.29128 0.7435 0.0
C411 C 0.37122 0.237 0.72578 0.0
C412 C 0.33795 0.258 0.74111 0.0
C413 C 0.43451 0.28302 0.71497 0.0
C414 C 0.41912 0.24971 0.71229 0.0
O415 O 0.54765 0.40584 0.76241 0.0
O416 O 0.51479 0.37908 0.72618 0.0
O417 O 0.38736 0.3532 0.70125 0.0
O418 O 0.38396 0.39981 0.72138 0.0
O419 O 0.47954 0.38663 0.80236 0.0
O420 O 0.43201 0.40407 0.765 0.0
O421 O 0.41829 0.34034 0.78075 0.0
O422 O 0.50607 0.31756 0.7896 0.0
O423 O 0.55175 0.37042 0.83154 0.0
O424 O 0.62741 0.34545 0.81747 0.0
O425 O 0.51404 0.33798 0.72663 0.0
O426 O 0.55305 0.31782 0.76467 0.0
C427 C 0.54068 0.40442 0.73711 0.0
C428 C 0.44551 0.40708 0.78989 0.0
C429 C 0.39457 0.40119 0.67544 0.0
C430 C 0.39661 0.40456 0.62789 0.0
C431 C 0.45315 0.44342 0.65392 0.0
C432 C 0.43305 0.42838 0.67666 0.0
C433 C 0.43528 0.4316 0.62972 0.0
C434 C 0.37627 0.38944 0.65093 0.0
C435 C 0.37512 0.38429 0.6995 0.0
C436 C 0.28688 0.24697 0.75349 0.0
C437 C 0.2527 0.26919 0.76736 0.0
H438 H 0.35909 0.21126 0.72347 0.0
C439 C 0.44938 0.31746 0.79184 0.0
C440 C 0.54787 0.31762 0.7392 0.0
C441 C 0.59228 0.33119 0.85918 0.0
C442 C 0.60166 0.31914 0.90538 0.0
C443 C 0.55784 0.2787 0.87621 0.0
C444 C 0.56643 0.30013 0.85522 0.0
C445 C 0.57509 0.28817 0.90122 0.0
C446 C 0.60998 0.34058 0.8842 0.0
C447 C 0.59847 0.35486 0.8378 0.0
H448 H 0.48278 0.46432 0.65506 0.0
H449 H 0.44796 0.43797 0.69517 0.0
H450 H 0.45129 0.44385 0.61235 0.0
H451 H 0.34719 0.36825 0.64981 0.0
H452 H 0.53754 0.2548 0.8731 0.0
H453 H 0.55259 0.29269 0.836 0.0
H454 H 0.56808 0.27127 0.91728 0.0
H455 H 0.62908 0.36487 0.88728 0.0
C456 C 0.80178 0.8324 0.75918 0.0
C457 C 0.79064 0.7741 0.76894 0.0
C458 C 0.82241 0.80397 0.77054 0.0
C459 C 0.73935 0.7728 0.7543 0.0
C460 C 0.74865 0.8316 0.74564 0.0
C461 C 0.71848 0.80148 0.7426 0.0
N462 N 0.83133 0.86122 0.76311 0.0
C463 C 0.80686 0.89046 0.75638 0.0
C464 C 0.72621 0.86129 0.73658 0.0
C465 C 0.75491 0.89091 0.74242 0.0
Gd466 Gd 0.05551 0.86339 0.73447 0.0
Gd467 Gd 0.92064 0.85702 0.78511 0.0
N468 N 0.87249 0.80592 0.78425 0.0
C469 C 0.81042 0.74681 0.78286 0.0
C470 C 0.89061 0.78 0.79891 0.0
C471 C 0.86002 0.74997 0.79832 0.0
H472 H 0.92923 0.78251 0.81068 0.0
H473 H 0.875 0.72922 0.80956 0.0
H474 H 0.01609 0.92756 0.69647 0.0
H475 H 0.82667 0.91364 0.76202 0.0
H476 H 0.03877 0.98685 0.69256 0.0
H477 H 0.78705 0.72345 0.78227 0.0
H478 H 0.71465 0.74998 0.75253 0.0
H479 H 0.16452 0.83007 0.76669 0.0
H480 H 0.68553 0.86175 0.72609 0.0
H481 H 0.73654 0.91415 0.73659 0.0
H482 H 0.20515 0.00275 0.74733 0.0
H483 H 0.6779 0.80034 0.73203 0.0
H484 H 0.28593 0.90679 0.787 0.0
H485 H 0.2561 0.8479 0.78782 0.0
N486 N 0.14289 0.87835 0.75462 0.0
C487 C 0.15982 0.91046 0.75277 0.0
C488 C 0.17733 0.85576 0.76636 0.0
C489 C 0.24593 0.89905 0.77765 0.0
C490 C 0.2292 0.86578 0.7782 0.0
C491 C 0.21124 0.92185 0.76472 0.0
H492 H 0.2657 0.96475 0.77238 0.0
N493 N 0.07787 0.91937 0.72632 0.0
C494 C 0.12557 0.93175 0.73865 0.0
C495 C 0.10903 0.98547 0.72009 0.0
C496 C 0.14212 0.9652 0.7361 0.0
C497 C 0.04899 0.93829 0.7088 0.0
C498 C 0.06292 0.97178 0.70598 0.0
O499 O 0.93924 0.81485 0.75761 0.0
O500 O 0.96946 0.84231 0.72122 0.0
O501 O 0.09606 0.86838 0.69627 0.0
O502 O 0.09922 0.82148 0.7174 0.0
O503 O 0.00467 0.83421 0.7978 0.0
O504 O 0.05347 0.81831 0.76039 0.0
O505 O 0.0644 0.88205 0.776 0.0
O506 O 0.97525 0.9035 0.78392 0.0
O507 O 0.93355 0.85151 0.82662 0.0
O508 O 0.85524 0.87354 0.81243 0.0
O509 O 0.96923 0.88355 0.72156 0.0
O510 O 0.92798 0.90255 0.75949 0.0
C511 C 0.94375 0.81691 0.73225 0.0
C512 C 0.04202 0.81549 0.78548 0.0
C513 C 0.14577 0.82329 0.67488 0.0
C514 C 0.17009 0.82042 0.62868 0.0
C515 C 0.20897 0.78046 0.65903 0.0
C516 C 0.17979 0.79552 0.67948 0.0
C517 C 0.20396 0.79267 0.63377 0.0
C518 C 0.14151 0.83594 0.64943 0.0
C519 C 0.11291 0.83794 0.69646 0.0
C520 C 0.19207 0.97706 0.74888 0.0
C521 C 0.22665 0.95541 0.76309 0.0
H522 H 0.12018 0.01133 0.71763 0.0
C523 C 0.03158 0.90413 0.78706 0.0
C524 C 0.93535 0.90396 0.73408 0.0
C525 C 0.8906 0.8909 0.85331 0.0
C526 C 0.88185 0.90535 0.89915 0.0
C527 C 0.92 0.94539 0.86797 0.0
C528 C 0.91304 0.9225 0.84792 0.0
C529 C 0.90459 0.93693 0.89345 0.0
C530 C 0.87518 0.88238 0.87888 0.0
C531 C 0.88566 0.86597 0.8328 0.0
H532 H 0.23516 0.75907 0.66272 0.0
H533 H 0.18371 0.78539 0.69889 0.0
H534 H 0.22664 0.78042 0.61814 0.0
H535 H 0.11449 0.85701 0.64561 0.0
H536 H 0.93753 0.96973 0.86378 0.0
H537 H 0.92546 0.92932 0.8283 0.0
H538 H 0.91012 0.95513 0.90869 0.0
H539 H 0.85919 0.85766 0.88304 0.0
C540 C 0.67269 0.6786 0.27117 0.0
C541 C 0.66282 0.73553 0.28451 0.0
C542 C 0.64064 0.70298 0.28315 0.0
C543 C 0.71671 0.74327 0.2731 0.0
C544 C 0.72726 0.68609 0.26013 0.0
C545 C 0.74889 0.71861 0.26099 0.0
N546 N 0.6499 0.64757 0.26995 0.0
C547 C 0.68057 0.62248 0.25929 0.0
C548 C 0.75839 0.66065 0.24852 0.0
C549 C 0.73512 0.62865 0.2483 0.0
Gd550 Gd 0.42629 0.63461 0.23558 0.0
Gd551 Gd 0.55792 0.63949 0.28831 0.0
N552 N 0.58843 0.69473 0.29389 0.0
C553 C 0.63062 0.75922 0.29768 0.0
C554 C 0.55899 0.71723 0.30827 0.0
C555 C 0.57891 0.7499 0.30994 0.0
H556 H 0.52102 0.71006 0.31914 0.0
H557 H 0.55478 0.76775 0.32103 0.0
H558 H 0.44387 0.56106 0.20878 0.0
H559 H 0.66335 0.59759 0.25947 0.0
H560 H 0.39585 0.50593 0.20915 0.0
H561 H 0.64612 0.7845 0.29915 0.0
H562 H 0.73424 0.76819 0.27384 0.0
H563 H 0.32629 0.68709 0.25964 0.0
H564 H 0.80056 0.66538 0.23989 0.0
H565 H 0.75921 0.60873 0.23971 0.0
H566 H 0.22997 0.52004 0.26448 0.0
H567 H 0.79059 0.7249 0.25248 0.0
H568 H 0.189 0.62955 0.29329 0.0
H569 H 0.23553 0.68381 0.28464 0.0
N570 N 0.33601 0.63514 0.25719 0.0
C571 C 0.30878 0.60534 0.25993 0.0
C572 C 0.30868 0.66321 0.26465 0.0
C573 C 0.23001 0.6308 0.28301 0.0
C574 C 0.25623 0.66146 0.27826 0.0
C575 C 0.2554 0.60231 0.27318 0.0
H576 H 0.18733 0.56838 0.28564 0.0
N577 N 0.38316 0.582 0.23481 0.0
C578 C 0.33245 0.57806 0.24795 0.0
C579 C 0.32767 0.52081 0.23514 0.0
C580 C 0.30395 0.54713 0.24897 0.0
C581 C 0.40494 0.55703 0.22014 0.0
C582 C 0.37783 0.52594 0.2203 0.0
O583 O 0.57082 0.66006 0.24769 0.0
O584 O 0.48185 0.68079 0.23763 0.0
O585 O 0.44026 0.63119 0.19389 0.0
O586 O 0.3599 0.65034 0.20869 0.0
O587 O 0.47266 0.66258 0.2994 0.0
O588 O 0.42917 0.68016 0.26133 0.0
O589 O 0.44326 0.59226 0.26286 0.0
O590 O 0.469 0.62056 0.29909 0.0
O591 O 0.58666 0.64615 0.3281 0.0
O592 O 0.59735 0.59891 0.3092 0.0
O593 O 0.5125 0.61376 0.22405 0.0
O594 O 0.55558 0.59453 0.26195 0.0
C595 C 0.53858 0.68164 0.2357 0.0
C596 C 0.43813 0.68248 0.28663 0.0
C597 C 0.39257 0.67 0.168 0.0
C598 C 0.38347 0.68451 0.12216 0.0
C599 C 0.40096 0.72716 0.15469 0.0
C600 C 0.4009 0.70334 0.17431 0.0
C601 C 0.39203 0.71789 0.12878 0.0
C602 C 0.38488 0.66066 0.14199 0.0
C603 C 0.39101 0.64445 0.18816 0.0
C604 C 0.25226 0.54369 0.26321 0.0
C605 C 0.22806 0.57121 0.27531 0.0
H606 H 0.30699 0.49665 0.23538 0.0
C607 C 0.44616 0.59446 0.28816 0.0
C608 C 0.54696 0.59355 0.23651 0.0
C609 C 0.66047 0.61261 0.34449 0.0
C610 C 0.71027 0.61073 0.38638 0.0
C611 C 0.76417 0.6042 0.34604 0.0
C612 C 0.71329 0.60777 0.33166 0.0
C613 C 0.76276 0.60554 0.37322 0.0
C614 C 0.65921 0.61409 0.3718 0.0
C615 C 0.60578 0.61631 0.33024 0.0
H616 H 0.40728 0.7529 0.15959 0.0
H617 H 0.40691 0.71086 0.19434 0.0
H618 H 0.391 0.73689 0.11398 0.0
H619 H 0.38011 0.63472 0.13726 0.0
H620 H 0.80487 0.6004 0.33608 0.0
H621 H 0.71522 0.60665 0.31066 0.0
H622 H 0.80276 0.60287 0.38397 0.0
H623 H 0.61821 0.61744 0.38171 0.0
C624 C 0.10509 0.04496 0.34724 0.0
C625 C 0.11479 0.01342 0.33706 0.0
C626 C 0.08451 0.07032 0.33144 0.0
C627 C 0.07301 0.06514 0.30483 0.0
H628 H 0.11411 0.05021 0.36751 0.0
H629 H 0.07786 0.09426 0.34018 0.0
S630 S 0.08729 0.9863 0.26915 0.0
N631 N 0.10842 0.9778 0.29906 0.0
N632 N 0.07067 0.02573 0.26925 0.0
C633 C 0.08224 0.03367 0.29441 0.0
C634 C 0.10281 0.00774 0.31056 0.0
C635 C 0.39241 0.45639 0.84746 0.0
C636 C 0.37755 0.48667 0.83625 0.0
C637 C 0.41365 0.43069 0.83221 0.0
C638 C 0.42051 0.43423 0.80513 0.0
H639 H 0.38715 0.4524 0.86818 0.0
H640 H 0.42448 0.40779 0.84176 0.0
S641 S 0.39147 0.50938 0.76651 0.0
N642 N 0.37404 0.51941 0.79661 0.0
N643 N 0.41262 0.47074 0.76783 0.0
C644 C 0.4059 0.46438 0.79363 0.0
C645 C 0.38481 0.4907 0.80922 0.0
C646 C 0.60277 0.45063 0.67894 0.0
C647 C 0.60711 0.48338 0.68789 0.0
C648 C 0.58089 0.42532 0.69493 0.0
C649 C 0.56282 0.43168 0.72054 0.0
H650 H 0.61557 0.44453 0.65927 0.0
H651 H 0.57822 0.40057 0.68712 0.0
S652 S 0.56215 0.51327 0.75304 0.0
N653 N 0.59099 0.52067 0.7242 0.0
N654 N 0.54713 0.47338 0.75357 0.0
C655 C 0.56595 0.46431 0.72962 0.0
C656 C 0.5887 0.49006 0.71347 0.0
C657 C 0.90341 0.04213 0.18304 0.0
C658 C 0.89244 0.01071 0.19377 0.0
C659 C 0.92216 0.06854 0.19857 0.0
C660 C 0.93099 0.06459 0.22545 0.0
H661 H 0.89767 0.0464 0.16241 0.0
H662 H 0.92918 0.09232 0.1894 0.0
S663 S 0.91265 0.98689 0.26289 0.0
N664 N 0.89263 0.97715 0.23305 0.0
N665 N 0.93172 0.02623 0.26176 0.0
C666 C 0.92196 0.03313 0.23632 0.0
C667 C 0.90185 0.00634 0.22061 0.0
C668 C 0.87319 0.95104 0.67717 0.0
C669 C 0.86506 0.98265 0.68759 0.0
C670 C 0.89419 0.92541 0.69263 0.0
C671 C 0.90799 0.93053 0.719 0.0
H672 H 0.86323 0.9461 0.65694 0.0
H673 H 0.90035 0.90149 0.68377 0.0
S674 S 0.89677 0.00914 0.75525 0.0
N675 N 0.87394 0.01793 0.72566 0.0
N676 N 0.91279 0.96965 0.75472 0.0
C677 C 0.89949 0.96191 0.7297 0.0
C678 C 0.87832 0.98802 0.71397 0.0
C679 C 0.60477 0.51095 0.21566 0.0
C680 C 0.61915 0.51633 0.18933 0.0
C681 C 0.58345 0.5364 0.23121 0.0
C682 C 0.57524 0.568 0.22086 0.0
H683 H 0.60887 0.48668 0.22419 0.0
H684 H 0.57161 0.53101 0.25117 0.0
S685 S 0.6123 0.59591 0.15404 0.0
N686 N 0.62834 0.5564 0.15433 0.0
N687 N 0.58722 0.6041 0.18338 0.0
C688 C 0.59103 0.574 0.19483 0.0
C689 C 0.61312 0.54818 0.17908 0.0
C690 C 0.3784 0.54733 0.34434 0.0
C691 C 0.38099 0.5144 0.33589 0.0
C692 C 0.40013 0.57316 0.32885 0.0
C693 C 0.42498 0.5669 0.30441 0.0
H694 H 0.35871 0.55318 0.36287 0.0
H695 H 0.39657 0.59823 0.33587 0.0
S696 S 0.44816 0.48486 0.27478 0.0
N697 N 0.41425 0.47682 0.30242 0.0
N698 N 0.45515 0.52537 0.2734 0.0
C699 C 0.42903 0.53409 0.29602 0.0
C700 C 0.40699 0.50783 0.31174 0.0
C701 C 0.05801 0.98733 0.8187 0.0
C702 C 0.10599 0.98176 0.83483 0.0
C703 C 0.03413 0.96196 0.80343 0.0
C704 C 0.058 0.93029 0.80337 0.0
H705 H 0.03841 0.01141 0.81811 0.0
H706 H 0.997 0.96729 0.79142 0.0
S707 S 0.18359 0.90308 0.84233 0.0
N708 N 0.17651 0.94235 0.84998 0.0
N709 N 0.13174 0.89461 0.82112 0.0
C710 C 0.10617 0.92444 0.81932 0.0
C711 C 0.13006 0.95019 0.83513 0.0
C712 C 0.17686 0.13617 0.06547 0.0
C713 C 0.20013 0.11037 0.05061 0.0
C714 C 0.17635 0.13492 0.09284 0.0
C715 C 0.19999 0.1081 0.10631 0.0
H716 H 0.15885 0.15745 0.05587 0.0
H717 H 0.15862 0.15544 0.10354 0.0
S718 S 0.26514 0.03408 0.07665 0.0
N719 N 0.24659 0.05703 0.05155 0.0
N720 N 0.24567 0.0548 0.10279 0.0
C721 C 0.22272 0.08204 0.09169 0.0
C722 C 0.22274 0.08313 0.06392 0.0
C723 C 0.40512 0.38085 0.55661 0.0
C724 C 0.34662 0.3788 0.54901 0.0
C725 C 0.42071 0.38759 0.58242 0.0
C726 C 0.37847 0.39258 0.60172 0.0
H727 H 0.43923 0.37819 0.5423 0.0
H728 H 0.46633 0.38984 0.58716 0.0
S729 S 0.21923 0.38844 0.59223 0.0
N730 N 0.24619 0.38099 0.56307 0.0
N731 N 0.27554 0.39365 0.61169 0.0
C732 C 0.3198 0.38905 0.59469 0.0
C733 C 0.30386 0.38217 0.56831 0.0
C734 C 0.59447 0.338 0.97761 0.0
C735 C 0.6514 0.34849 0.98335 0.0
C736 C 0.57882 0.32838 0.95235 0.0
C737 C 0.61934 0.32941 0.9319 0.0
H738 H 0.56213 0.33657 0.99288 0.0
H739 H 0.53462 0.32025 0.94875 0.0
S740 S 0.77341 0.35608 0.93666 0.0
N741 N 0.74803 0.36003 0.96654 0.0
N742 N 0.71852 0.34223 0.91896 0.0
C743 C 0.67613 0.34041 0.9373 0.0
C744 C 0.69221 0.34983 0.96307 0.0
C745 C 0.83423 0.14918 0.46508 0.0
C746 C 0.86677 0.16167 0.48603 0.0
C747 C 0.84706 0.15863 0.43944 0.0
C748 C 0.89332 0.18064 0.43381 0.0
H749 H 0.79764 0.13271 0.4686 0.0
H750 H 0.81973 0.14913 0.42397 0.0
S751 S 0.99524 0.21737 0.48192 0.0
N752 N 0.94894 0.19548 0.49964 0.0
N753 N 0.97439 0.21252 0.45143 0.0
C754 C 0.92726 0.19242 0.45465 0.0
C755 C 0.91371 0.18308 0.48075 0.0
C756 C 0.89149 0.89736 0.97254 0.0
C757 C 0.83684 0.88421 0.97953 0.0
C758 C 0.90601 0.90336 0.9465 0.0
C759 C 0.86653 0.89638 0.92637 0.0
H760 H 0.92299 0.90366 0.98741 0.0
H761 H 0.94834 0.9139 0.94212 0.0
S762 S 0.71823 0.86103 0.9342 0.0
N763 N 0.74351 0.86369 0.96419 0.0
N764 N 0.77082 0.87491 0.9151 0.0
C765 C 0.81241 0.88219 0.93297 0.0
C766 C 0.79758 0.87608 0.95957 0.0
C767 C 0.73385 0.58767 0.45728 0.0
C768 C 0.7082 0.61373 0.47092 0.0
C769 C 0.73444 0.58696 0.42999 0.0
C770 C 0.70879 0.61209 0.41529 0.0
H771 H 0.75445 0.5679 0.46779 0.0
H772 H 0.7548 0.56645 0.42031 0.0
S773 S 0.63455 0.68536 0.44165 0.0
N774 N 0.65536 0.6649 0.46772 0.0
N775 N 0.65669 0.66369 0.41644 0.0
C776 C 0.68237 0.6381 0.4287 0.0
C777 C 0.68214 0.63893 0.45649 0.0
C778 C 0.39672 0.68062 0.04844 0.0
C779 C 0.35334 0.65761 0.04146 0.0
C780 C 0.4066 0.68885 0.07456 0.0
C781 C 0.37298 0.67466 0.09465 0.0
H782 H 0.42325 0.69232 0.03357 0.0
H783 H 0.44096 0.70643 0.07904 0.0
S784 S 0.2515 0.61443 0.08618 0.0
N785 N 0.27562 0.62126 0.05637 0.0
N786 N 0.29272 0.63737 0.10544 0.0
C787 C 0.32916 0.65167 0.08781 0.0
C788 C 0.31969 0.64301 0.06123 0.0
C789 C 0.14689 0.81819 0.5558 0.0
C790 C 0.16488 0.84987 0.54766 0.0
C791 C 0.14653 0.8094 0.58213 0.0
C792 C 0.16369 0.832 0.60146 0.0
H793 H 0.13447 0.79967 0.54159 0.0
H794 H 0.13401 0.78442 0.58738 0.0
S795 S 0.21144 0.91862 0.59082 0.0
N796 N 0.19808 0.90439 0.56128 0.0
N797 N 0.19641 0.88789 0.61095 0.0
C798 C 0.17894 0.86426 0.59383 0.0
C799 C 0.17971 0.87321 0.5669 0.0
C800 C 0.07574 0.25724 0.33072 0.0
C801 C 0.12997 0.25159 0.34221 0.0
C802 C 0.05021 0.23418 0.31384 0.0
C803 C 0.07785 0.20451 0.30771 0.0
H804 H 0.05293 0.27982 0.3347 0.0
H805 H 0.00877 0.23995 0.30524 0.0
S806 S 0.21989 0.17752 0.3331 0.0
N807 N 0.21053 0.21411 0.34637 0.0
N808 N 0.1618 0.17027 0.31514 0.0
C809 C 0.1318 0.19832 0.3193 0.0
C810 C 0.15791 0.2219 0.33651 0.0
C811 C 0.33764 0.27546 0.83562 0.0
C812 C 0.36276 0.2449 0.84089 0.0
C813 C 0.36626 0.2989 0.81993 0.0
C814 C 0.4204 0.29231 0.80854 0.0
H815 H 0.29564 0.28125 0.84369 0.0
H816 H 0.34581 0.32239 0.8168 0.0
S817 S 0.50228 0.21476 0.81537 0.0
N818 N 0.44378 0.20879 0.83341 0.0
N819 N 0.49657 0.25209 0.8029 0.0
C820 C 0.44544 0.26151 0.81347 0.0
C821 C 0.41677 0.23796 0.82986 0.0
C822 C 0.61187 0.23801 0.71539 0.0
C823 C 0.64326 0.24813 0.69315 0.0
C824 C 0.582 0.26077 0.73064 0.0
C825 C 0.58171 0.29424 0.72387 0.0
H826 H 0.6095 0.21222 0.72081 0.0
H827 H 0.55771 0.25203 0.74741 0.0
S828 S 0.66188 0.33416 0.66963 0.0
N829 N 0.6764 0.2946 0.66677 0.0
N830 N 0.61811 0.33703 0.69492 0.0
C831 C 0.61358 0.30486 0.70211 0.0
C832 C 0.64489 0.28188 0.68686 0.0
C833 C 0.86061 0.22237 0.18532 0.0
C834 C 0.8579 0.25543 0.1934 0.0
C835 C 0.8885 0.19879 0.20049 0.0
C836 C 0.91394 0.20736 0.22441 0.0
H837 H 0.84059 0.21459 0.16724 0.0
H838 H 0.88972 0.17359 0.19356 0.0
S839 S 0.92287 0.29072 0.25352 0.0
N840 N 0.88644 0.29581 0.22621 0.0
N841 N 0.9372 0.25104 0.25507 0.0
C842 C 0.91181 0.24019 0.23275 0.0
C843 C 0.8842 0.26435 0.21715 0.0
C844 C 0.86919 0.77364 0.67574 0.0
C845 C 0.86563 0.74054 0.68403 0.0
C846 C 0.89512 0.79812 0.69132 0.0
C847 C 0.91837 0.7905 0.71581 0.0
H848 H 0.85229 0.78069 0.65693 0.0
H849 H 0.89631 0.82328 0.68424 0.0
S850 S 0.92305 0.70769 0.74621 0.0
N851 N 0.88799 0.7017 0.71861 0.0
N852 N 0.93956 0.74741 0.74701 0.0
C853 C 0.91612 0.75756 0.72419 0.0
C854 C 0.88914 0.73268 0.70852 0.0
C855 C 0.64882 0.72271 0.19077 0.0
C856 C 0.6235 0.7532 0.1853 0.0
C857 C 0.62106 0.69969 0.20713 0.0
C858 C 0.56677 0.70627 0.21839 0.0
H859 H 0.69103 0.71697 0.18288 0.0
H860 H 0.6423 0.67657 0.21092 0.0
S861 S 0.48211 0.78247 0.20972 0.0
N862 N 0.54087 0.7886 0.1919 0.0
N863 N 0.48896 0.7456 0.22284 0.0
C864 C 0.54076 0.73654 0.21275 0.0
C865 C 0.56909 0.75995 0.19618 0.0
C866 C 0.37377 0.72698 0.34442 0.0
C867 C 0.3514 0.75584 0.33344 0.0
C868 C 0.40065 0.7033 0.329 0.0
C869 C 0.40697 0.7076 0.30195 0.0
H870 H 0.37153 0.72285 0.36522 0.0
H871 H 0.41717 0.68155 0.33851 0.0
S872 S 0.35382 0.77825 0.26336 0.0
N873 N 0.33431 0.78653 0.29353 0.0
N874 N 0.38808 0.74291 0.26476 0.0
C875 C 0.38442 0.73621 0.29062 0.0
C876 C 0.35601 0.76012 0.3063 0.0
C877 C 0.097 0.76775 0.84374 0.0
C878 C 0.13269 0.74394 0.83248 0.0
C879 C 0.06797 0.79063 0.82835 0.0
C880 C 0.07348 0.79069 0.80103 0.0
H881 H 0.09073 0.76842 0.86463 0.0
H882 H 0.04099 0.8084 0.83811 0.0
S883 S 0.16396 0.73395 0.76211 0.0
N884 N 0.17408 0.72244 0.79254 0.0
N885 N 0.11832 0.76479 0.76344 0.0
C886 C 0.10948 0.76705 0.78953 0.0
C887 C 0.13931 0.74385 0.80527 0.0
loop_
_geom_bond_atom_site_label_1
_geom_bond_atom_site_label_2
_geom_bond_distance
_geom_bond_site_symmetry_2
_ccdc_geom_bond_type
C0 C1 1.384 . S
C0 H13 0.947 . S
C0 C35 1.382 . S
C1 C0 1.384 . S
C1 C2 1.378 . S
C2 C1 1.378 . S
C2 C3 1.378 . S
C2 H14 0.952 . S
C3 C2 1.378 . S
C3 H15 0.950 . S
C3 C34 1.383 . S
H4 C23 0.947 . S
H5 C24 0.946 . S
H6 C26 0.953 . S
H7 C27 0.945 . S
H8 C29 0.952 . S
H9 C30 0.949 . S
H10 C32 0.950 . S
H11 C33 0.948 . S
H12 C35 0.951 . S
H13 C0 0.947 . S
H14 C2 0.952 . S
H15 C3 0.950 . S
N16 C19 1.382 . S
N16 C21 1.363 . S
N17 C19 1.371 . S
N17 C20 1.372 . S
N18 C20 1.361 . S
N18 C21 1.377 . S
C19 N16 1.382 . S
C19 N17 1.371 . S
C19 C22 1.480 . S
C20 N17 1.372 . S
C20 N18 1.361 . S
C20 C28 1.457 . S
C21 N16 1.363 . S
C21 N18 1.377 . S
C21 C34 1.479 . S
C22 C19 1.480 . S
C22 C23 1.383 . S
C22 C27 1.385 . S
C23 H4 0.947 . S
C23 C22 1.383 . S
C23 C24 1.388 . S
C24 H5 0.946 . S
C24 C23 1.388 . S
C24 C25 1.384 . S
C25 C24 1.384 . S
C25 C26 1.377 . S
C26 H6 0.953 . S
C26 C25 1.377 . S
C26 C27 1.369 . S
C27 H7 0.945 . S
C27 C22 1.385 . S
C27 C26 1.369 . S
C28 C20 1.457 . S
C28 C29 1.372 . S
C28 C33 1.364 . S
C29 H8 0.952 . S
C29 C28 1.372 . S
C29 C30 1.389 . S
C30 H9 0.949 . S
C30 C29 1.389 . S
C30 C31 1.387 . S
C31 C30 1.387 . S
C31 C32 1.372 . S
C32 H10 0.950 . S
C32 C31 1.372 . S
C32 C33 1.379 . S
C33 H11 0.948 . S
C33 C28 1.364 . S
C33 C32 1.379 . S
C34 C3 1.383 . S
C34 C21 1.479 . S
C34 C35 1.398 . S
C35 C0 1.382 . S
C35 H12 0.951 . S
C35 C34 1.398 . S
C36 C37 1.384 1_556 S
C36 H49 0.947 . S
C36 C71 1.382 . S
C37 C36 1.384 1_554 S
C37 C38 1.378 1_554 S
C38 C37 1.378 1_556 S
C38 C39 1.378 . S
C38 H50 0.940 1_556 S
C39 C38 1.378 . S
C39 H51 0.950 . S
C39 C70 1.383 . S
H40 C59 0.947 . S
H41 C60 0.946 . S
H42 C62 0.953 . S
H43 C63 0.945 . S
H44 C65 0.952 . S
H45 C66 0.949 . S
H46 C68 0.950 1_565 S
H47 C69 0.948 . S
H48 C71 0.951 . S
H49 C36 0.947 . S
H50 C38 0.940 1_554 S
H51 C39 0.950 . S
N52 C55 1.382 . S
N52 C57 1.363 . S
N53 C55 1.371 . S
N53 C56 1.372 . S
N54 C56 1.361 . S
N54 C57 1.377 . S
C55 N52 1.382 . S
C55 N53 1.371 . S
C55 C58 1.480 . S
C56 N53 1.372 . S
C56 N54 1.361 . S
C56 C64 1.457 . S
C57 N52 1.363 . S
C57 N54 1.377 . S
C57 C70 1.479 . S
C58 C55 1.480 . S
C58 C59 1.383 . S
C58 C63 1.385 . S
C59 H40 0.947 . S
C59 C58 1.383 . S
C59 C60 1.388 . S
C60 H41 0.946 . S
C60 C59 1.388 . S
C60 C61 1.384 . S
C61 C60 1.384 . S
C61 C62 1.377 . S
C62 H42 0.953 . S
C62 C61 1.377 . S
C62 C63 1.369 . S
C63 H43 0.945 . S
C63 C58 1.385 . S
C63 C62 1.369 . S
C64 C56 1.457 . S
C64 C65 1.372 . S
C64 C69 1.364 . S
C65 H44 0.952 . S
C65 C64 1.372 . S
C65 C66 1.389 . S
C66 H45 0.949 . S
C66 C65 1.389 . S
C66 C67 1.387 . S
C67 C66 1.387 . S
C67 C68 1.372 . S
C68 H46 0.950 1_545 S
C68 C67 1.372 . S
C68 C69 1.379 . S
C69 H47 0.948 . S
C69 C64 1.364 . S
C69 C68 1.379 . S
C70 C39 1.383 . S
C70 C57 1.479 . S
C70 C71 1.398 . S
C71 C36 1.382 . S
C71 H48 0.951 . S
C71 C70 1.398 . S
C72 C73 1.384 . S
C72 H85 0.947 . S
C72 C107 1.382 . S
C73 C72 1.384 . S
C73 C74 1.378 . S
C74 C73 1.378 . S
C74 C75 1.378 . S
C74 H86 0.952 . S
C75 C74 1.378 . S
C75 H87 0.950 . S
C75 C106 1.383 . S
H76 C95 0.947 . S
H77 C96 0.946 . S
H78 C98 0.953 . S
H79 C99 0.945 . S
H80 C101 0.952 . S
H81 C102 0.949 . S
H82 C104 0.950 1_565 S
H83 C105 0.948 . S
H84 C107 0.951 . S
H85 C72 0.947 . S
H86 C74 0.952 . S
H87 C75 0.950 . S
N88 C91 1.382 . S
N88 C93 1.363 . S
N89 C91 1.371 . S
N89 C92 1.372 . S
N90 C92 1.361 . S
N90 C93 1.377 . S
C91 N88 1.382 . S
C91 N89 1.371 . S
C91 C94 1.480 . S
C92 N89 1.372 . S
C92 N90 1.361 . S
C92 C100 1.457 . S
C93 N88 1.363 . S
C93 N90 1.377 . S
C93 C106 1.479 . S
C94 C91 1.480 . S
C94 C95 1.383 . S
C94 C99 1.385 . S
C95 H76 0.947 . S
C95 C94 1.383 . S
C95 C96 1.388 . S
C96 H77 0.946 . S
C96 C95 1.388 . S
C96 C97 1.384 . S
C97 C96 1.384 . S
C97 C98 1.377 . S
C98 H78 0.953 . S
C98 C97 1.377 . S
C98 C99 1.369 . S
C99 H79 0.945 . S
C99 C94 1.385 . S
C99 C98 1.369 . S
C100 C92 1.457 . S
C100 C101 1.372 . S
C100 C105 1.364 . S
C101 H80 0.952 . S
C101 C100 1.372 . S
C101 C102 1.389 . S
C102 H81 0.949 . S
C102 C101 1.389 . S
C102 C103 1.387 . S
C103 C102 1.387 . S
C103 C104 1.372 . S
C104 H82 0.950 1_545 S
C104 C103 1.372 . S
C104 C105 1.379 . S
C105 H83 0.948 . S
C105 C100 1.364 . S
C105 C104 1.379 . S
C106 C75 1.383 . S
C106 C93 1.479 . S
C106 C107 1.398 . S
C107 C72 1.382 . S
C107 H84 0.951 . S
C107 C106 1.398 . S
C108 C109 1.387 . S
C108 H121 0.947 . S
C108 C143 1.382 . S
C109 C108 1.387 . S
C109 C110 1.382 . S
C110 C109 1.382 . S
C110 C111 1.378 . S
C110 H122 0.952 . S
C111 C110 1.378 . S
C111 H123 0.950 . S
C111 C142 1.383 . S
H112 C131 0.947 . S
H113 C132 0.946 . S
H114 C134 0.953 . S
H115 C135 0.945 . S
H116 C137 0.952 . S
H117 C138 0.949 . S
H118 C140 0.950 . S
H119 C141 0.948 . S
H120 C143 0.951 . S
H121 C108 0.947 . S
H122 C110 0.952 . S
H123 C111 0.950 . S
N124 C127 1.382 . S
N124 C129 1.363 . S
N125 C127 1.371 . S
N125 C128 1.372 . S
N126 C128 1.361 . S
N126 C129 1.377 . S
C127 N124 1.382 . S
C127 N125 1.371 . S
C127 C130 1.480 . S
C128 N125 1.372 . S
C128 N126 1.361 . S
C128 C136 1.457 . S
C129 N124 1.363 . S
C129 N126 1.377 . S
C129 C142 1.479 . S
C130 C127 1.480 . S
C130 C131 1.383 . S
C130 C135 1.385 . S
C131 H112 0.947 . S
C131 C130 1.383 . S
C131 C132 1.388 . S
C132 H113 0.946 . S
C132 C131 1.388 . S
C132 C133 1.384 . S
C133 C132 1.384 . S
C133 C134 1.377 . S
C134 H114 0.953 . S
C134 C133 1.377 . S
C134 C135 1.369 . S
C135 H115 0.945 . S
C135 C130 1.385 . S
C135 C134 1.369 . S
C136 C128 1.457 . S
C136 C137 1.372 . S
C136 C141 1.364 . S
C137 H116 0.952 . S
C137 C136 1.372 . S
C137 C138 1.389 . S
C138 H117 0.949 . S
C138 C137 1.389 . S
C138 C139 1.387 . S
C139 C138 1.387 . S
C139 C140 1.372 . S
C140 H118 0.950 . S
C140 C139 1.372 . S
C140 C141 1.379 . S
C141 H119 0.948 . S
C141 C136 1.364 . S
C141 C140 1.379 . S
C142 C111 1.383 . S
C142 C129 1.479 . S
C142 C143 1.398 . S
C143 C108 1.382 . S
C143 H120 0.951 . S
C143 C142 1.398 . S
C144 C145 1.384 . S
C144 H157 0.947 . S
C144 C179 1.382 . S
C145 C144 1.384 . S
C145 C146 1.378 . S
C146 C145 1.378 . S
C146 C147 1.378 . S
C146 H158 0.952 . S
C147 C146 1.378 . S
C147 H159 0.950 . S
C147 C178 1.383 . S
H148 C167 0.947 . S
H149 C168 0.946 . S
H150 C170 0.953 . S
H151 C171 0.945 . S
H152 C173 0.952 . S
H153 C174 0.949 . S
H154 C176 0.950 . S
H155 C177 0.948 . S
H156 C179 0.951 . S
H157 C144 0.947 . S
H158 C146 0.952 . S
H159 C147 0.950 . S
N160 C163 1.382 . S
N160 C165 1.363 . S
N161 C163 1.371 . S
N161 C164 1.372 . S
N162 C164 1.361 . S
N162 C165 1.377 . S
C163 N160 1.382 . S
C163 N161 1.371 . S
C163 C166 1.480 . S
C164 N161 1.372 . S
C164 N162 1.361 . S
C164 C172 1.457 . S
C165 N160 1.363 . S
C165 N162 1.377 . S
C165 C178 1.479 . S
C166 C163 1.480 . S
C166 C167 1.383 . S
C166 C171 1.385 . S
C167 H148 0.947 . S
C167 C166 1.383 . S
C167 C168 1.388 . S
C168 H149 0.946 . S
C168 C167 1.388 . S
C168 C169 1.384 . S
C169 C168 1.384 . S
C169 C170 1.377 . S
C170 H150 0.953 . S
C170 C169 1.377 . S
C170 C171 1.369 . S
C171 H151 0.945 . S
C171 C166 1.385 . S
C171 C170 1.369 . S
C172 C164 1.457 . S
C172 C173 1.372 . S
C172 C177 1.364 . S
C173 H152 0.952 . S
C173 C172 1.372 . S
C173 C174 1.389 . S
C174 H153 0.949 . S
C174 C173 1.389 . S
C174 C175 1.387 . S
C175 C174 1.387 . S
C175 C176 1.372 . S
C176 H154 0.950 . S
C176 C175 1.372 . S
C176 C177 1.379 . S
C177 H155 0.948 . S
C177 C172 1.364 . S
C177 C176 1.379 . S
C178 C147 1.383 . S
C178 C165 1.479 . S
C178 C179 1.398 . S
C179 C144 1.382 . S
C179 H156 0.951 . S
C179 C178 1.398 . S
C180 C181 1.384 1_554 S
C180 H193 0.947 . S
C180 C215 1.382 . S
C181 C180 1.384 1_556 S
C181 C182 1.378 1_556 S
C182 C181 1.378 1_554 S
C182 C183 1.378 . S
C182 H194 0.952 1_554 S
C183 C182 1.378 . S
C183 H195 0.950 . S
C183 C214 1.383 . S
H184 C203 0.947 . S
H185 C204 0.946 . S
H186 C206 0.953 . S
H187 C207 0.945 . S
H188 C209 0.952 . S
H189 C210 0.949 . S
H190 C212 0.950 1_545 S
H191 C213 0.948 . S
H192 C215 0.951 . S
H193 C180 0.947 . S
H194 C182 0.952 1_556 S
H195 C183 0.950 . S
N196 C199 1.382 . S
N196 C201 1.363 . S
N197 C199 1.371 . S
N197 C200 1.372 . S
N198 C200 1.361 . S
N198 C201 1.377 . S
C199 N196 1.382 . S
C199 N197 1.371 . S
C199 C202 1.480 . S
C200 N197 1.372 . S
C200 N198 1.361 . S
C200 C208 1.457 . S
C201 N196 1.363 . S
C201 N198 1.377 . S
C201 C214 1.479 . S
C202 C199 1.480 . S
C202 C203 1.383 . S
C202 C207 1.385 . S
C203 H184 0.947 . S
C203 C202 1.383 . S
C203 C204 1.388 . S
C204 H185 0.946 . S
C204 C203 1.388 . S
C204 C205 1.384 . S
C205 C204 1.384 . S
C205 C206 1.377 . S
C206 H186 0.953 . S
C206 C205 1.377 . S
C206 C207 1.369 . S
C207 H187 0.945 . S
C207 C202 1.385 . S
C207 C206 1.369 . S
C208 C200 1.457 . S
C208 C209 1.372 . S
C208 C213 1.364 . S
C209 H188 0.952 . S
C209 C208 1.372 . S
C209 C210 1.389 . S
C210 H189 0.949 . S
C210 C209 1.389 . S
C210 C211 1.387 . S
C211 C210 1.387 . S
C211 C212 1.372 . S
C212 H190 0.950 1_565 S
C212 C211 1.372 . S
C212 C213 1.379 . S
C213 H191 0.948 . S
C213 C208 1.364 . S
C213 C212 1.379 . S
C214 C183 1.383 . S
C214 C201 1.479 . S
C214 C215 1.398 . S
C215 C180 1.382 . S
C215 H192 0.951 . S
C215 C214 1.398 . S
C216 C217 1.384 . S
C216 H229 0.947 . S
C216 C251 1.382 . S
C217 C216 1.384 . S
C217 C218 1.378 . S
C218 C217 1.378 . S
C218 C219 1.378 . S
C218 H230 0.952 . S
C219 C218 1.378 . S
C219 H231 0.950 . S
C219 C250 1.383 . S
H220 C239 0.947 . S
H221 C240 0.946 . S
H222 C242 0.953 . S
H223 C243 0.945 . S
H224 C245 0.952 . S
H225 C246 0.949 . S
H226 C248 0.950 1_545 S
H227 C249 0.948 . S
H228 C251 0.951 . S
H229 C216 0.947 . S
H230 C218 0.952 . S
H231 C219 0.950 . S
N232 C235 1.382 . S
N232 C237 1.363 . S
N233 C235 1.371 . S
N233 C236 1.372 . S
N234 C236 1.361 . S
N234 C237 1.377 . S
C235 N232 1.382 . S
C235 N233 1.371 . S
C235 C238 1.480 . S
C236 N233 1.372 . S
C236 N234 1.361 . S
C236 C244 1.457 . S
C237 N232 1.363 . S
C237 N234 1.377 . S
C237 C250 1.479 . S
C238 C235 1.480 . S
C238 C239 1.383 . S
C238 C243 1.385 . S
C239 H220 0.947 . S
C239 C238 1.383 . S
C239 C240 1.388 . S
C240 H221 0.946 . S
C240 C239 1.388 . S
C240 C241 1.384 . S
C241 C240 1.384 . S
C241 C242 1.377 . S
C242 H222 0.953 . S
C242 C241 1.377 . S
C242 C243 1.369 . S
C243 H223 0.945 . S
C243 C238 1.385 . S
C243 C242 1.369 . S
C244 C236 1.457 . S
C244 C245 1.372 . S
C244 C249 1.364 . S
C245 H224 0.952 . S
C245 C244 1.372 . S
C245 C246 1.389 . S
C246 H225 0.949 . S
C246 C245 1.389 . S
C246 C247 1.387 . S
C247 C246 1.387 . S
C247 C248 1.372 . S
C248 H226 0.950 1_565 S
C248 C247 1.372 . S
C248 C249 1.379 . S
C249 H227 0.948 . S
C249 C244 1.364 . S
C249 C248 1.379 . S
C250 C219 1.383 . S
C250 C237 1.479 . S
C250 C251 1.398 . S
C251 C216 1.382 . S
C251 H228 0.951 . S
C251 C250 1.398 . S
C252 C253 1.374 1_556 S
C252 H265 0.947 . S
C252 C287 1.382 . S
C253 C252 1.374 1_554 S
C253 C254 1.371 1_554 S
C254 C253 1.371 1_556 S
C254 C255 1.378 . S
C254 H266 0.952 . S
C255 C254 1.378 . S
C255 H267 0.950 . S
C255 C286 1.383 . S
H256 C275 0.947 . S
H257 C276 0.946 . S
H258 C278 0.953 . S
H259 C279 0.945 . S
H260 C281 0.952 . S
H261 C282 0.949 . S
H262 C284 0.950 . S
H263 C285 0.948 . S
H264 C287 0.951 . S
H265 C252 0.947 . S
H266 C254 0.952 . S
H267 C255 0.950 . S
N268 C271 1.382 . S
N268 C273 1.363 . S
N269 C271 1.371 . S
N269 C272 1.372 . S
N270 C272 1.361 . S
N270 C273 1.377 . S
C271 N268 1.382 . S
C271 N269 1.371 . S
C271 C274 1.480 . S
C272 N269 1.372 . S
C272 N270 1.361 . S
C272 C280 1.457 . S
C273 N268 1.363 . S
C273 N270 1.377 . S
C273 C286 1.479 . S
C274 C271 1.480 . S
C274 C275 1.383 . S
C274 C279 1.385 . S
C275 H256 0.947 . S
C275 C274 1.383 . S
C275 C276 1.388 . S
C276 H257 0.946 . S
C276 C275 1.388 . S
C276 C277 1.384 . S
C277 C276 1.384 . S
C277 C278 1.377 . S
C278 H258 0.953 . S
C278 C277 1.377 . S
C278 C279 1.369 . S
C279 H259 0.945 . S
C279 C274 1.385 . S
C279 C278 1.369 . S
C280 C272 1.457 . S
C280 C281 1.372 . S
C280 C285 1.364 . S
C281 H260 0.952 . S
C281 C280 1.372 . S
C281 C282 1.389 . S
C282 H261 0.949 . S
C282 C281 1.389 . S
C282 C283 1.387 . S
C283 C282 1.387 . S
C283 C284 1.372 . S
C284 H262 0.950 . S
C284 C283 1.372 . S
C284 C285 1.379 . S
C285 H263 0.948 . S
C285 C280 1.364 . S
C285 C284 1.379 . S
C286 C255 1.383 . S
C286 C273 1.479 . S
C286 C287 1.398 . S
C287 C252 1.382 . S
C287 H264 0.951 . S
C287 C286 1.398 . S
C288 C290 1.422 . S
C288 C292 1.415 . S
C288 N294 1.369 . S
C289 C290 1.421 . S
C289 C291 1.417 . S
C289 C301 1.422 . S
C290 C288 1.422 . S
C290 C289 1.421 . S
C290 N300 1.359 . S
C291 C289 1.417 . S
C291 C293 1.329 . S
C291 H310 0.930 . S
C292 C288 1.415 . S
C292 C293 1.437 . S
C292 C296 1.413 . S
C293 C291 1.329 . S
C293 C292 1.437 . S
C293 H315 0.929 . S
N294 C288 1.369 . S
N294 C295 1.338 . S
N294 Gd299 2.622 . S
C295 N294 1.338 . S
C295 C297 1.378 . S
C295 H307 0.929 . S
C296 C292 1.413 . S
C296 C297 1.348 . S
C296 H312 0.931 . S
C297 C295 1.378 . S
C297 C296 1.348 . S
C297 H313 0.930 . S
Gd298 N318 2.622 . S
Gd298 N325 2.570 . S
Gd298 O332 2.353 . S
Gd298 O333 2.468 . S
Gd298 O334 2.427 . S
Gd298 O336 2.388 . S
Gd298 O337 2.386 . S
Gd298 O341 2.307 1_455 S
Gd298 C351 2.805 . S
Gd299 N294 2.622 . S
Gd299 N300 2.570 . S
Gd299 O331 2.386 . S
Gd299 O335 2.307 1_655 S
Gd299 O338 2.353 1_655 S
Gd299 O339 2.468 . S
Gd299 O340 2.427 . S
Gd299 O342 2.388 . S
Gd299 C363 2.805 . S
N300 C290 1.359 . S
N300 Gd299 2.570 . S
N300 C302 1.343 . S
C301 C289 1.422 . S
C301 C303 1.321 . S
C301 H309 0.931 . S
C302 N300 1.343 . S
C302 C303 1.390 . S
C302 H304 0.931 . S
C303 C301 1.321 . S
C303 C302 1.390 . S
C303 H305 0.930 . S
H304 C302 0.931 . S
H305 C303 0.930 . S
H306 C329 0.931 . S
H307 C295 0.929 . S
H308 C330 0.930 . S
H309 C301 0.931 . S
H310 C291 0.930 . S
H311 C320 0.929 . S
H312 C296 0.931 . S
H313 C297 0.930 . S
H314 C352 0.930 . S
H315 C293 0.929 . S
H316 C321 0.931 . S
H317 C322 0.930 . S
N318 Gd298 2.622 . S
N318 C319 1.369 . S
N318 C320 1.338 . S
C319 N318 1.369 . S
C319 C323 1.415 . S
C319 C326 1.422 . S
C320 H311 0.929 . S
C320 N318 1.338 . S
C320 C322 1.378 . S
C321 H316 0.931 . S
C321 C322 1.348 . S
C321 C323 1.413 . S
C322 H317 0.930 . S
C322 C320 1.378 . S
C322 C321 1.348 . S
C323 C319 1.415 . S
C323 C321 1.413 . S
C323 C353 1.437 . S
H324 C353 0.929 . S
N325 Gd298 2.570 . S
N325 C326 1.359 . S
N325 C329 1.343 . S
C326 C319 1.422 . S
C326 N325 1.359 . S
C326 C328 1.421 . S
C327 C328 1.422 . S
C327 C330 1.321 . S
C327 H354 0.931 . S
C328 C326 1.421 . S
C328 C327 1.422 . S
C328 C352 1.417 . S
C329 H306 0.931 . S
C329 N325 1.343 . S
C329 C330 1.390 . S
C330 H308 0.930 . S
C330 C327 1.321 . S
C330 C329 1.390 . S
O331 Gd299 2.386 . S
O331 C343 1.265 . S
O332 Gd298 2.353 . S
O332 C343 1.242 1_455 S
O333 Gd298 2.468 . S
O333 C351 1.263 . S
O334 Gd298 2.427 . S
O334 C351 1.252 . S
O335 Gd299 2.307 1_455 S
O335 C344 1.261 . S
O336 Gd298 2.388 . S
O336 C344 1.252 . S
O337 Gd298 2.386 . S
O337 C355 1.265 . S
O338 Gd299 2.353 1_455 S
O338 C355 1.242 . S
O339 Gd299 2.468 . S
O339 C363 1.263 . S
O340 Gd299 2.427 . S
O340 C363 1.252 . S
O341 Gd298 2.307 1_655 S
O341 C356 1.261 . S
O342 Gd299 2.388 . S
O342 C356 1.252 . S
C343 O331 1.265 . S
C343 O332 1.242 1_655 S
C344 O335 1.261 . S
C344 O336 1.252 . S
C345 C348 1.394 . S
C345 C350 1.370 . S
C345 C351 1.500 . S
C346 C349 1.383 . S
C346 C350 1.395 . S
C347 C348 1.396 . S
C347 C349 1.365 . S
C347 H364 0.929 . S
C348 C345 1.394 . S
C348 C347 1.396 . S
C348 H365 0.930 . S
C349 C346 1.383 . S
C349 C347 1.365 . S
C349 H366 0.931 . S
C350 C345 1.370 . S
C350 C346 1.395 . S
C350 H367 0.930 . S
C351 Gd298 2.805 . S
C351 O333 1.263 . S
C351 O334 1.252 . S
C351 C345 1.500 . S
C352 H314 0.930 . S
C352 C328 1.417 . S
C352 C353 1.329 . S
C353 C323 1.437 . S
C353 H324 0.929 . S
C353 C352 1.329 . S
H354 C327 0.931 . S
C355 O337 1.265 . S
C355 O338 1.242 . S
C356 O341 1.261 . S
C356 O342 1.252 . S
C357 C360 1.394 . S
C357 C362 1.370 . S
C357 C363 1.500 . S
C358 C361 1.383 . S
C358 C362 1.395 . S
C359 C360 1.396 . S
C359 C361 1.365 . S
C359 H368 0.929 . S
C360 C357 1.394 . S
C360 C359 1.396 . S
C360 H369 0.930 . S
C361 C358 1.383 . S
C361 C359 1.365 . S
C361 H370 0.931 . S
C362 C357 1.370 . S
C362 C358 1.395 . S
C362 H371 0.930 . S
C363 Gd299 2.805 . S
C363 O339 1.263 . S
C363 O340 1.252 . S
C363 C357 1.500 . S
H364 C347 0.929 . S
H365 C348 0.930 . S
H366 C349 0.931 . S
H367 C350 0.930 . S
H368 C359 0.929 . S
H369 C360 0.930 . S
H370 C361 0.931 . S
H371 C362 0.930 . S
C372 C374 1.422 . S
C372 C376 1.415 . S
C372 N378 1.369 . S
C373 C374 1.421 . S
C373 C375 1.417 . S
C373 C385 1.422 . S
C374 C372 1.422 . S
C374 C373 1.421 . S
C374 N384 1.359 . S
C375 C373 1.417 . S
C375 C377 1.329 . S
C375 H394 0.930 . S
C376 C372 1.415 . S
C376 C377 1.437 . S
C376 C380 1.413 . S
C377 C375 1.329 . S
C377 C376 1.437 . S
C377 H399 0.929 . S
N378 C372 1.369 . S
N378 C379 1.338 . S
N378 Gd383 2.622 . S
C379 N378 1.338 . S
C379 C381 1.378 . S
C379 H391 0.929 . S
C380 C376 1.413 . S
C380 C381 1.348 . S
C380 H396 0.931 . S
C381 C379 1.378 . S
C381 C380 1.348 . S
C381 H397 0.930 . S
Gd382 N402 2.622 . S
Gd382 N409 2.570 . S
Gd382 O416 2.353 . S
Gd382 O417 2.468 . S
Gd382 O418 2.427 . S
Gd382 O420 2.388 . S
Gd382 O421 2.386 . S
Gd382 O425 2.307 . S
Gd382 C435 2.805 . S
Gd383 N378 2.622 . S
Gd383 N384 2.570 . S
Gd383 O415 2.386 . S
Gd383 O419 2.307 . S
Gd383 O422 2.353 . S
Gd383 O423 2.468 . S
Gd383 O424 2.427 . S
Gd383 O426 2.388 . S
Gd383 C447 2.805 . S
N384 C374 1.359 . S
N384 Gd383 2.570 . S
N384 C386 1.343 . S
C385 C373 1.422 . S
C385 C387 1.321 . S
C385 H393 0.931 . S
C386 N384 1.343 . S
C386 C387 1.390 . S
C386 H388 0.931 . S
C387 C385 1.321 . S
C387 C386 1.390 . S
C387 H389 0.930 . S
H388 C386 0.931 . S
H389 C387 0.930 . S
H390 C413 0.931 . S
H391 C379 0.929 . S
H392 C414 0.930 . S
H393 C385 0.931 . S
H394 C375 0.930 . S
H395 C404 0.929 . S
H396 C380 0.931 . S
H397 C381 0.930 . S
H398 C436 0.930 . S
H399 C377 0.929 . S
H400 C405 0.931 . S
H401 C406 0.930 . S
N402 Gd382 2.622 . S
N402 C403 1.369 . S
N402 C404 1.338 . S
C403 N402 1.369 . S
C403 C407 1.415 . S
C403 C410 1.422 . S
C404 H395 0.929 . S
C404 N402 1.338 . S
C404 C406 1.378 . S
C405 H400 0.931 . S
C405 C406 1.348 . S
C405 C407 1.413 . S
C406 H401 0.930 . S
C406 C404 1.378 . S
C406 C405 1.348 . S
C407 C403 1.415 . S
C407 C405 1.413 . S
C407 C437 1.437 . S
H408 C437 0.929 . S
N409 Gd382 2.570 . S
N409 C410 1.359 . S
N409 C413 1.343 . S
C410 C403 1.422 . S
C410 N409 1.359 . S
C410 C412 1.421 . S
C411 C412 1.422 . S
C411 C414 1.321 . S
C411 H438 0.931 . S
C412 C410 1.421 . S
C412 C411 1.422 . S
C412 C436 1.417 . S
C413 H390 0.931 . S
C413 N409 1.343 . S
C413 C414 1.390 . S
C414 H392 0.930 . S
C414 C411 1.321 . S
C414 C413 1.390 . S
O415 Gd383 2.386 . S
O415 C427 1.265 . S
O416 Gd382 2.353 . S
O416 C427 1.242 . S
O417 Gd382 2.468 . S
O417 C435 1.263 . S
O418 Gd382 2.427 . S
O418 C435 1.252 . S
O419 Gd383 2.307 . S
O419 C428 1.261 . S
O420 Gd382 2.388 . S
O420 C428 1.252 . S
O421 Gd382 2.386 . S
O421 C439 1.265 . S
O422 Gd383 2.353 . S
O422 C439 1.242 . S
O423 Gd383 2.468 . S
O423 C447 1.263 . S
O424 Gd383 2.427 . S
O424 C447 1.252 . S
O425 Gd382 2.307 . S
O425 C440 1.261 . S
O426 Gd383 2.388 . S
O426 C440 1.252 . S
C427 O415 1.265 . S
C427 O416 1.242 . S
C428 O419 1.261 . S
C428 O420 1.252 . S
C429 C432 1.394 . S
C429 C434 1.370 . S
C429 C435 1.500 . S
C430 C433 1.383 . S
C430 C434 1.395 . S
C431 C432 1.396 . S
C431 C433 1.365 . S
C431 H448 0.929 . S
C432 C429 1.394 . S
C432 C431 1.396 . S
C432 H449 0.930 . S
C433 C430 1.383 . S
C433 C431 1.365 . S
C433 H450 0.931 . S
C434 C429 1.370 . S
C434 C430 1.395 . S
C434 H451 0.930 . S
C435 Gd382 2.805 . S
C435 O417 1.263 . S
C435 O418 1.252 . S
C435 C429 1.500 . S
C436 H398 0.930 . S
C436 C412 1.417 . S
C436 C437 1.329 . S
C437 C407 1.437 . S
C437 H408 0.929 . S
C437 C436 1.329 . S
H438 C411 0.931 . S
C439 O421 1.265 . S
C439 O422 1.242 . S
C440 O425 1.261 . S
C440 O426 1.252 . S
C441 C444 1.394 . S
C441 C446 1.370 . S
C441 C447 1.500 . S
C442 C445 1.383 . S
C442 C446 1.395 . S
C443 C444 1.396 . S
C443 C445 1.365 . S
C443 H452 0.929 . S
C444 C441 1.394 . S
C444 C443 1.396 . S
C444 H453 0.930 . S
C445 C442 1.383 . S
C445 C443 1.365 . S
C445 H454 0.931 . S
C446 C441 1.370 . S
C446 C442 1.395 . S
C446 H455 0.930 . S
C447 Gd383 2.805 . S
C447 O423 1.263 . S
C447 O424 1.252 . S
C447 C441 1.500 . S
H448 C431 0.929 . S
H449 C432 0.930 . S
H450 C433 0.931 . S
H451 C434 0.930 . S
H452 C443 0.929 . S
H453 C444 0.930 . S
H454 C445 0.931 . S
H455 C446 0.930 . S
C456 C458 1.422 . S
C456 C460 1.415 . S
C456 N462 1.369 . S
C457 C458 1.421 . S
C457 C459 1.417 . S
C457 C469 1.422 . S
C458 C456 1.422 . S
C458 C457 1.421 . S
C458 N468 1.359 . S
C459 C457 1.417 . S
C459 C461 1.329 . S
C459 H478 0.930 . S
C460 C456 1.415 . S
C460 C461 1.437 . S
C460 C464 1.413 . S
C461 C459 1.329 . S
C461 C460 1.437 . S
C461 H483 0.929 . S
N462 C456 1.369 . S
N462 C463 1.338 . S
N462 Gd467 2.622 . S
C463 N462 1.338 . S
C463 C465 1.378 . S
C463 H475 0.929 . S
C464 C460 1.413 . S
C464 C465 1.348 . S
C464 H480 0.931 . S
C465 C463 1.378 . S
C465 C464 1.348 . S
C465 H481 0.930 . S
Gd466 N486 2.622 . S
Gd466 N493 2.570 . S
Gd466 O500 2.353 . S
Gd466 O501 2.468 . S
Gd466 O502 2.427 . S
Gd466 O504 2.388 . S
Gd466 O505 2.386 . S
Gd466 O509 2.307 . S
Gd466 C519 2.805 . S
Gd467 N462 2.622 . S
Gd467 N468 2.570 . S
Gd467 O499 2.386 . S
Gd467 O503 2.307 1_655 S
Gd467 O506 2.353 1_655 S
Gd467 O507 2.468 . S
Gd467 O508 2.427 . S
Gd467 O510 2.388 . S
Gd467 C531 2.805 . S
N468 C458 1.359 . S
N468 Gd467 2.570 . S
N468 C470 1.343 . S
C469 C457 1.422 . S
C469 C471 1.321 . S
C469 H477 0.931 . S
C470 N468 1.343 . S
C470 C471 1.390 . S
C470 H472 0.931 . S
C471 C469 1.321 . S
C471 C470 1.390 . S
C471 H473 0.930 . S
H472 C470 0.931 . S
H473 C471 0.930 . S
H474 C497 0.931 . S
H475 C463 0.929 . S
H476 C498 0.930 . S
H477 C469 0.931 . S
H478 C459 0.930 . S
H479 C488 0.929 . S
H480 C464 0.931 . S
H481 C465 0.930 . S
H482 C520 0.930 . S
H483 C461 0.929 . S
H484 C489 0.931 . S
H485 C490 0.930 . S
N486 Gd466 2.622 . S
N486 C487 1.369 . S
N486 C488 1.338 . S
C487 N486 1.369 . S
C487 C491 1.415 . S
C487 C494 1.422 . S
C488 H479 0.929 . S
C488 N486 1.338 . S
C488 C490 1.378 . S
C489 H484 0.931 . S
C489 C490 1.348 . S
C489 C491 1.413 . S
C490 H485 0.930 . S
C490 C488 1.378 . S
C490 C489 1.348 . S
C491 C487 1.415 . S
C491 C489 1.413 . S
C491 C521 1.437 . S
H492 C521 0.929 . S
N493 Gd466 2.570 . S
N493 C494 1.359 . S
N493 C497 1.343 . S
C494 C487 1.422 . S
C494 N493 1.359 . S
C494 C496 1.421 . S
C495 C496 1.422 . S
C495 C498 1.321 . S
C495 H522 0.931 . S
C496 C494 1.421 . S
C496 C495 1.422 . S
C496 C520 1.417 . S
C497 H474 0.931 . S
C497 N493 1.343 . S
C497 C498 1.390 . S
C498 H476 0.930 . S
C498 C495 1.321 . S
C498 C497 1.390 . S
O499 Gd467 2.386 . S
O499 C511 1.265 . S
O500 Gd466 2.353 . S
O500 C511 1.242 1_455 S
O501 Gd466 2.468 . S
O501 C519 1.263 . S
O502 Gd466 2.427 . S
O502 C519 1.252 . S
O503 Gd467 2.307 1_455 S
O503 C512 1.261 . S
O504 Gd466 2.388 . S
O504 C512 1.252 . S
O505 Gd466 2.386 . S
O505 C523 1.265 . S
O506 Gd467 2.353 1_455 S
O506 C523 1.242 . S
O507 Gd467 2.468 . S
O507 C531 1.263 . S
O508 Gd467 2.427 . S
O508 C531 1.252 . S
O509 Gd466 2.307 . S
O509 C524 1.261 1_455 S
O510 Gd467 2.388 . S
O510 C524 1.252 . S
C511 O499 1.265 . S
C511 O500 1.242 1_655 S
C512 O503 1.261 . S
C512 O504 1.252 . S
C513 C516 1.394 . S
C513 C518 1.370 . S
C513 C519 1.500 . S
C514 C517 1.383 . S
C514 C518 1.395 . S
C515 C516 1.396 . S
C515 C517 1.365 . S
C515 H532 0.929 . S
C516 C513 1.394 . S
C516 C515 1.396 . S
C516 H533 0.930 . S
C517 C514 1.383 . S
C517 C515 1.365 . S
C517 H534 0.931 . S
C518 C513 1.370 . S
C518 C514 1.395 . S
C518 H535 0.930 . S
C519 Gd466 2.805 . S
C519 O501 1.263 . S
C519 O502 1.252 . S
C519 C513 1.500 . S
C520 H482 0.930 . S
C520 C496 1.417 . S
C520 C521 1.329 . S
C521 C491 1.437 . S
C521 H492 0.929 . S
C521 C520 1.329 . S
H522 C495 0.931 . S
C523 O505 1.265 . S
C523 O506 1.242 . S
C524 O509 1.261 1_655 S
C524 O510 1.252 . S
C525 C528 1.394 . S
C525 C530 1.370 . S
C525 C531 1.500 . S
C526 C529 1.383 . S
C526 C530 1.395 . S
C527 C528 1.396 . S
C527 C529 1.365 . S
C527 H536 0.929 . S
C528 C525 1.394 . S
C528 C527 1.396 . S
C528 H537 0.930 . S
C529 C526 1.383 . S
C529 C527 1.365 . S
C529 H538 0.931 . S
C530 C525 1.370 . S
C530 C526 1.395 . S
C530 H539 0.930 . S
C531 Gd467 2.805 . S
C531 O507 1.263 . S
C531 O508 1.252 . S
C531 C525 1.500 . S
H532 C515 0.929 . S
H533 C516 0.930 . S
H534 C517 0.931 . S
H535 C518 0.930 . S
H536 C527 0.929 . S
H537 C528 0.930 . S
H538 C529 0.931 . S
H539 C530 0.930 . S
C540 C542 1.422 . S
C540 C544 1.415 . S
C540 N546 1.369 . S
C541 C542 1.421 . S
C541 C543 1.417 . S
C541 C553 1.422 . S
C542 C540 1.422 . S
C542 C541 1.421 . S
C542 N552 1.359 . S
C543 C541 1.417 . S
C543 C545 1.329 . S
C543 H562 0.930 . S
C544 C540 1.415 . S
C544 C545 1.437 . S
C544 C548 1.413 . S
C545 C543 1.329 . S
C545 C544 1.437 . S
C545 H567 0.929 . S
N546 C540 1.369 . S
N546 C547 1.338 . S
N546 Gd551 2.622 . S
C547 N546 1.338 . S
C547 C549 1.378 . S
C547 H559 0.929 . S
C548 C544 1.413 . S
C548 C549 1.348 . S
C548 H564 0.931 . S
C549 C547 1.378 . S
C549 C548 1.348 . S
C549 H565 0.930 . S
Gd550 N570 2.622 . S
Gd550 N577 2.570 . S
Gd550 O584 2.353 . S
Gd550 O585 2.468 . S
Gd550 O586 2.427 . S
Gd550 O588 2.388 . S
Gd550 O589 2.386 . S
Gd550 O593 2.307 . S
Gd550 C603 2.805 . S
Gd551 N546 2.622 . S
Gd551 N552 2.570 . S
Gd551 O583 2.386 . S
Gd551 O587 2.307 . S
Gd551 O590 2.353 . S
Gd551 O591 2.468 . S
Gd551 O592 2.427 . S
Gd551 O594 2.388 . S
Gd551 C615 2.805 . S
N552 C542 1.359 . S
N552 Gd551 2.570 . S
N552 C554 1.343 . S
C553 C541 1.422 . S
C553 C555 1.321 . S
C553 H561 0.931 . S
C554 N552 1.343 . S
C554 C555 1.390 . S
C554 H556 0.931 . S
C555 C553 1.321 . S
C555 C554 1.390 . S
C555 H557 0.930 . S
H556 C554 0.931 . S
H557 C555 0.930 . S
H558 C581 0.931 . S
H559 C547 0.929 . S
H560 C582 0.930 . S
H561 C553 0.931 . S
H562 C543 0.930 . S
H563 C572 0.929 . S
H564 C548 0.931 . S
H565 C549 0.930 . S
H566 C604 0.930 . S
H567 C545 0.929 . S
H568 C573 0.931 . S
H569 C574 0.930 . S
N570 Gd550 2.622 . S
N570 C571 1.369 . S
N570 C572 1.338 . S
C571 N570 1.369 . S
C571 C575 1.415 . S
C571 C578 1.422 . S
C572 H563 0.929 . S
C572 N570 1.338 . S
C572 C574 1.378 . S
C573 H568 0.931 . S
C573 C574 1.348 . S
C573 C575 1.413 . S
C574 H569 0.930 . S
C574 C572 1.378 . S
C574 C573 1.348 . S
C575 C571 1.415 . S
C575 C573 1.413 . S
C575 C605 1.437 . S
H576 C605 0.929 . S
N577 Gd550 2.570 . S
N577 C578 1.359 . S
N577 C581 1.343 . S
C578 C571 1.422 . S
C578 N577 1.359 . S
C578 C580 1.421 . S
C579 C580 1.422 . S
C579 C582 1.321 . S
C579 H606 0.931 . S
C580 C578 1.421 . S
C580 C579 1.422 . S
C580 C604 1.417 . S
C581 H558 0.931 . S
C581 N577 1.343 . S
C581 C582 1.390 . S
C582 H560 0.930 . S
C582 C579 1.321 . S
C582 C581 1.390 . S
O583 Gd551 2.386 . S
O583 C595 1.265 . S
O584 Gd550 2.353 . S
O584 C595 1.242 . S
O585 Gd550 2.468 . S
O585 C603 1.263 . S
O586 Gd550 2.427 . S
O586 C603 1.252 . S
O587 Gd551 2.307 . S
O587 C596 1.261 . S
O588 Gd550 2.388 . S
O588 C596 1.252 . S
O589 Gd550 2.386 . S
O589 C607 1.265 . S
O590 Gd551 2.353 . S
O590 C607 1.242 . S
O591 Gd551 2.468 . S
O591 C615 1.263 . S
O592 Gd551 2.427 . S
O592 C615 1.252 . S
O593 Gd550 2.307 . S
O593 C608 1.261 . S
O594 Gd551 2.388 . S
O594 C608 1.252 . S
C595 O583 1.265 . S
C595 O584 1.242 . S
C596 O587 1.261 . S
C596 O588 1.252 . S
C597 C600 1.394 . S
C597 C602 1.370 . S
C597 C603 1.500 . S
C598 C601 1.383 . S
C598 C602 1.395 . S
C599 C600 1.396 . S
C599 C601 1.365 . S
C599 H616 0.929 . S
C600 C597 1.394 . S
C600 C599 1.396 . S
C600 H617 0.930 . S
C601 C598 1.383 . S
C601 C599 1.365 . S
C601 H618 0.931 . S
C602 C597 1.370 . S
C602 C598 1.395 . S
C602 H619 0.930 . S
C603 Gd550 2.805 . S
C603 O585 1.263 . S
C603 O586 1.252 . S
C603 C597 1.500 . S
C604 H566 0.930 . S
C604 C580 1.417 . S
C604 C605 1.329 . S
C605 C575 1.437 . S
C605 H576 0.929 . S
C605 C604 1.329 . S
H606 C579 0.931 . S
C607 O589 1.265 . S
C607 O590 1.242 . S
C608 O593 1.261 . S
C608 O594 1.252 . S
C609 C612 1.394 . S
C609 C614 1.370 . S
C609 C615 1.500 . S
C610 C613 1.383 . S
C610 C614 1.395 . S
C611 C612 1.396 . S
C611 C613 1.365 . S
C611 H620 0.929 . S
C612 C609 1.394 . S
C612 C611 1.396 . S
C612 H621 0.930 . S
C613 C610 1.383 . S
C613 C611 1.365 . S
C613 H622 0.931 . S
C614 C609 1.370 . S
C614 C610 1.395 . S
C614 H623 0.930 . S
C615 Gd551 2.805 . S
C615 O591 1.263 . S
C615 O592 1.252 . S
C615 C609 1.500 . S
H616 C599 0.929 . S
H617 C600 0.930 . S
H618 C601 0.931 . S
H619 C602 0.930 . S
H620 C611 0.929 . S
H621 C612 0.930 . S
H622 C613 0.931 . S
H623 C614 0.930 . S
C624 C625 1.369 . S
C624 C626 1.419 . S
C624 H628 0.930 . S
C625 C624 1.369 . S
C625 C634 1.429 . S
C626 C624 1.419 . S
C626 C627 1.363 . S
C626 H629 0.929 . S
C627 C626 1.363 . S
C627 C633 1.428 . S
H628 C624 0.930 . S
H629 C626 0.929 . S
S630 N631 1.613 1_655 S
S630 N632 1.610 1_565 S
N631 S630 1.613 1_455 S
N631 C634 1.350 1_565 S
N632 S630 1.610 1_545 S
N632 C633 1.351 1_655 S
C633 C627 1.428 . S
C633 N632 1.351 1_455 S
C633 C634 1.434 . S
C634 C625 1.429 . S
C634 N631 1.350 1_545 S
C634 C633 1.434 . S
C635 C636 1.369 . S
C635 C637 1.419 . S
C635 H639 0.930 . S
C636 C635 1.369 . S
C636 C645 1.429 . S
C637 C635 1.419 . S
C637 C638 1.363 . S
C637 H640 0.929 . S
C638 C637 1.363 . S
C638 C644 1.428 . S
H639 C635 0.930 . S
H640 C637 0.929 . S
S641 N642 1.613 . S
S641 N643 1.610 . S
N642 S641 1.613 . S
N642 C645 1.350 . S
N643 S641 1.610 . S
N643 C644 1.351 . S
C644 C638 1.428 . S
C644 N643 1.351 . S
C644 C645 1.434 . S
C645 C636 1.429 . S
C645 N642 1.350 . S
C645 C644 1.434 . S
C646 C647 1.369 . S
C646 C648 1.419 . S
C646 H650 0.930 . S
C647 C646 1.369 . S
C647 C656 1.429 . S
C648 C646 1.419 . S
C648 C649 1.363 . S
C648 H651 0.929 . S
C649 C648 1.363 . S
C649 C655 1.428 . S
H650 C646 0.930 . S
H651 C648 0.929 . S
S652 N653 1.613 . S
S652 N654 1.610 . S
N653 S652 1.613 . S
N653 C656 1.350 . S
N654 S652 1.610 . S
N654 C655 1.351 . S
C655 C649 1.428 . S
C655 N654 1.351 . S
C655 C656 1.434 . S
C656 C647 1.429 . S
C656 N653 1.350 . S
C656 C655 1.434 . S
C657 C658 1.369 . S
C657 C659 1.419 . S
C657 H661 0.930 . S
C658 C657 1.369 . S
C658 C667 1.429 . S
C659 C657 1.419 . S
C659 C660 1.363 . S
C659 H662 0.929 . S
C660 C659 1.363 . S
C660 C666 1.428 . S
H661 C657 0.930 . S
H662 C659 0.929 . S
S663 N664 1.613 1_545 S
S663 N665 1.610 . S
N664 S663 1.613 1_565 S
N664 C667 1.350 1_565 S
N665 S663 1.610 . S
N665 C666 1.351 . S
C666 C660 1.428 . S
C666 N665 1.351 . S
C666 C667 1.434 . S
C667 C658 1.429 . S
C667 N664 1.350 1_545 S
C667 C666 1.434 . S
C668 C669 1.369 . S
C668 C670 1.419 . S
C668 H672 0.930 . S
C669 C668 1.369 . S
C669 C678 1.429 . S
C670 C668 1.419 . S
C670 C671 1.363 . S
C670 H673 0.929 . S
C671 C670 1.363 . S
C671 C677 1.428 . S
H672 C668 0.930 . S
H673 C670 0.929 . S
S674 N675 1.613 . S
S674 N676 1.610 1_545 S
N675 S674 1.613 . S
N675 C678 1.350 1_545 S
N676 S674 1.610 1_565 S
N676 C677 1.351 . S
C677 C671 1.428 . S
C677 N676 1.351 . S
C677 C678 1.434 . S
C678 C669 1.429 . S
C678 N675 1.350 1_565 S
C678 C677 1.434 . S
C679 C680 1.369 . S
C679 C681 1.419 . S
C679 H683 0.930 . S
C680 C679 1.369 . S
C680 C689 1.429 . S
C681 C679 1.419 . S
C681 C682 1.363 . S
C681 H684 0.929 . S
C682 C681 1.363 . S
C682 C688 1.428 . S
H683 C679 0.930 . S
H684 C681 0.929 . S
S685 N686 1.613 . S
S685 N687 1.610 . S
N686 S685 1.613 . S
N686 C689 1.350 . S
N687 S685 1.610 . S
N687 C688 1.351 . S
C688 C682 1.428 . S
C688 N687 1.351 . S
C688 C689 1.434 . S
C689 C680 1.429 . S
C689 N686 1.350 . S
C689 C688 1.434 . S
C690 C691 1.369 . S
C690 C692 1.419 . S
C690 H694 0.930 . S
C691 C690 1.369 . S
C691 C700 1.429 . S
C692 C690 1.419 . S
C692 C693 1.363 . S
C692 H695 0.929 . S
C693 C692 1.363 . S
C693 C699 1.428 . S
H694 C690 0.930 . S
H695 C692 0.929 . S
S696 N697 1.613 . S
S696 N698 1.610 . S
N697 S696 1.613 . S
N697 C700 1.350 . S
N698 S696 1.610 . S
N698 C699 1.351 . S
C699 C693 1.428 . S
C699 N698 1.351 . S
C699 C700 1.434 . S
C700 C691 1.429 . S
C700 N697 1.350 . S
C700 C699 1.434 . S
C701 C702 1.369 . S
C701 C703 1.419 . S
C701 H705 0.930 1_565 S
C702 C701 1.369 . S
C702 C711 1.429 . S
C703 C701 1.419 . S
C703 C704 1.363 . S
C703 H706 0.929 . S
C704 C703 1.363 . S
C704 C710 1.428 . S
H705 C701 0.930 1_545 S
H706 C703 0.929 . S
S707 N708 1.613 . S
S707 N709 1.610 . S
N708 S707 1.613 . S
N708 C711 1.350 . S
N709 S707 1.610 . S
N709 C710 1.351 . S
C710 C704 1.428 . S
C710 N709 1.351 . S
C710 C711 1.434 . S
C711 C702 1.429 . S
C711 N708 1.350 . S
C711 C710 1.434 . S
C712 C713 1.369 . S
C712 C714 1.419 . S
C712 H716 0.930 . S
C713 C712 1.369 . S
C713 C722 1.429 . S
C714 C712 1.419 . S
C714 C715 1.363 . S
C714 H717 0.929 . S
C715 C714 1.363 . S
C715 C721 1.428 . S
H716 C712 0.930 . S
H717 C714 0.929 . S
S718 N719 1.613 . S
S718 N720 1.610 . S
N719 S718 1.613 . S
N719 C722 1.350 . S
N720 S718 1.610 . S
N720 C721 1.351 . S
C721 C715 1.428 . S
C721 N720 1.351 . S
C721 C722 1.434 . S
C722 C713 1.429 . S
C722 N719 1.350 . S
C722 C721 1.434 . S
C723 C724 1.369 . S
C723 C725 1.419 . S
C723 H727 0.930 . S
C724 C723 1.369 . S
C724 C733 1.429 . S
C725 C723 1.419 . S
C725 C726 1.363 . S
C725 H728 0.929 . S
C726 C725 1.363 . S
C726 C732 1.428 . S
H727 C723 0.930 . S
H728 C725 0.929 . S
S729 N730 1.613 . S
S729 N731 1.610 . S
N730 S729 1.613 . S
N730 C733 1.350 . S
N731 S729 1.610 . S
N731 C732 1.351 . S
C732 C726 1.428 . S
C732 N731 1.351 . S
C732 C733 1.434 . S
C733 C724 1.429 . S
C733 N730 1.350 . S
C733 C732 1.434 . S
C734 C735 1.369 . S
C734 C736 1.419 . S
C734 H738 0.930 . S
C735 C734 1.369 . S
C735 C744 1.429 . S
C736 C734 1.419 . S
C736 C737 1.363 . S
C736 H739 0.929 . S
C737 C736 1.363 . S
C737 C743 1.428 . S
H738 C734 0.930 . S
H739 C736 0.929 . S
S740 N741 1.613 . S
S740 N742 1.610 . S
N741 S740 1.613 . S
N741 C744 1.350 . S
N742 S740 1.610 . S
N742 C743 1.351 . S
C743 C737 1.428 . S
C743 N742 1.351 . S
C743 C744 1.434 . S
C744 C735 1.429 . S
C744 N741 1.350 . S
C744 C743 1.434 . S
C745 C746 1.369 . S
C745 C747 1.419 . S
C745 H749 0.930 . S
C746 C745 1.369 . S
C746 C755 1.429 . S
C747 C745 1.419 . S
C747 C748 1.363 . S
C747 H750 0.929 . S
C748 C747 1.363 . S
C748 C754 1.428 . S
H749 C745 0.930 . S
H750 C747 0.929 . S
S751 N752 1.613 . S
S751 N753 1.610 . S
N752 S751 1.613 . S
N752 C755 1.350 . S
N753 S751 1.610 . S
N753 C754 1.351 . S
C754 C748 1.428 . S
C754 N753 1.351 . S
C754 C755 1.434 . S
C755 C746 1.429 . S
C755 N752 1.350 . S
C755 C754 1.434 . S
C756 C757 1.369 . S
C756 C758 1.419 . S
C756 H760 0.930 . S
C757 C756 1.369 . S
C757 C766 1.429 . S
C758 C756 1.419 . S
C758 C759 1.363 . S
C758 H761 0.929 . S
C759 C758 1.363 . S
C759 C765 1.428 . S
H760 C756 0.930 . S
H761 C758 0.929 . S
S762 N763 1.613 . S
S762 N764 1.610 . S
N763 S762 1.613 . S
N763 C766 1.350 . S
N764 S762 1.610 . S
N764 C765 1.351 . S
C765 C759 1.428 . S
C765 N764 1.351 . S
C765 C766 1.434 . S
C766 C757 1.429 . S
C766 N763 1.350 . S
C766 C765 1.434 . S
C767 C768 1.369 . S
C767 C769 1.419 . S
C767 H771 0.930 . S
C768 C767 1.369 . S
C768 C777 1.429 . S
C769 C767 1.419 . S
C769 C770 1.363 . S
C769 H772 0.929 . S
C770 C769 1.363 . S
C770 C776 1.428 . S
H771 C767 0.930 . S
H772 C769 0.929 . S
S773 N774 1.613 . S
S773 N775 1.610 . S
N774 S773 1.613 . S
N774 C777 1.350 . S
N775 S773 1.610 . S
N775 C776 1.351 . S
C776 C770 1.428 . S
C776 N775 1.351 . S
C776 C777 1.434 . S
C777 C768 1.429 . S
C777 N774 1.350 . S
C777 C776 1.434 . S
C778 C779 1.369 . S
C778 C780 1.419 . S
C778 H782 0.930 . S
C779 C778 1.369 . S
C779 C788 1.429 . S
C780 C778 1.419 . S
C780 C781 1.363 . S
C780 H783 0.929 . S
C781 C780 1.363 . S
C781 C787 1.428 . S
H782 C778 0.930 . S
H783 C780 0.929 . S
S784 N785 1.613 . S
S784 N786 1.610 . S
N785 S784 1.613 . S
N785 C788 1.350 . S
N786 S784 1.610 . S
N786 C787 1.351 . S
C787 C781 1.428 . S
C787 N786 1.351 . S
C787 C788 1.434 . S
C788 C779 1.429 . S
C788 N785 1.350 . S
C788 C787 1.434 . S
C789 C790 1.369 . S
C789 C791 1.419 . S
C789 H793 0.930 . S
C790 C789 1.369 . S
C790 C799 1.429 . S
C791 C789 1.419 . S
C791 C792 1.363 . S
C791 H794 0.929 . S
C792 C791 1.363 . S
C792 C798 1.428 . S
H793 C789 0.930 . S
H794 C791 0.929 . S
S795 N796 1.613 . S
S795 N797 1.610 . S
N796 S795 1.613 . S
N796 C799 1.350 . S
N797 S795 1.610 . S
N797 C798 1.351 . S
C798 C792 1.428 . S
C798 N797 1.351 . S
C798 C799 1.434 . S
C799 C790 1.429 . S
C799 N796 1.350 . S
C799 C798 1.434 . S
C800 C801 1.369 . S
C800 C802 1.419 . S
C800 H804 0.930 . S
C801 C800 1.369 . S
C801 C810 1.429 . S
C802 C800 1.419 . S
C802 C803 1.363 . S
C802 H805 0.929 . S
C803 C802 1.363 . S
C803 C809 1.428 . S
H804 C800 0.930 . S
H805 C802 0.929 . S
S806 N807 1.613 . S
S806 N808 1.610 . S
N807 S806 1.613 . S
N807 C810 1.350 . S
N808 S806 1.610 . S
N808 C809 1.351 . S
C809 C803 1.428 . S
C809 N808 1.351 . S
C809 C810 1.434 . S
C810 C801 1.429 . S
C810 N807 1.350 . S
C810 C809 1.434 . S
C811 C812 1.369 . S
C811 C813 1.419 . S
C811 H815 0.930 . S
C812 C811 1.369 . S
C812 C821 1.429 . S
C813 C811 1.419 . S
C813 C814 1.363 . S
C813 H816 0.929 . S
C814 C813 1.363 . S
C814 C820 1.428 . S
H815 C811 0.930 . S
H816 C813 0.929 . S
S817 N818 1.613 . S
S817 N819 1.610 . S
N818 S817 1.613 . S
N818 C821 1.350 . S
N819 S817 1.610 . S
N819 C820 1.351 . S
C820 C814 1.428 . S
C820 N819 1.351 . S
C820 C821 1.434 . S
C821 C812 1.429 . S
C821 N818 1.350 . S
C821 C820 1.434 . S
C822 C823 1.369 . S
C822 C824 1.419 . S
C822 H826 0.930 . S
C823 C822 1.369 . S
C823 C832 1.429 . S
C824 C822 1.419 . S
C824 C825 1.363 . S
C824 H827 0.929 . S
C825 C824 1.363 . S
C825 C831 1.428 . S
H826 C822 0.930 . S
H827 C824 0.929 . S
S828 N829 1.613 . S
S828 N830 1.610 . S
N829 S828 1.613 . S
N829 C832 1.350 . S
N830 S828 1.610 . S
N830 C831 1.351 . S
C831 C825 1.428 . S
C831 N830 1.351 . S
C831 C832 1.434 . S
C832 C823 1.429 . S
C832 N829 1.350 . S
C832 C831 1.434 . S
C833 C834 1.369 . S
C833 C835 1.419 . S
C833 H837 0.930 . S
C834 C833 1.369 . S
C834 C843 1.429 . S
C835 C833 1.419 . S
C835 C836 1.363 . S
C835 H838 0.929 . S
C836 C835 1.363 . S
C836 C842 1.428 . S
H837 C833 0.930 . S
H838 C835 0.929 . S
S839 N840 1.613 1_455 S
S839 N841 1.610 1_455 S
N840 S839 1.613 1_655 S
N840 C843 1.350 . S
N841 S839 1.610 1_655 S
N841 C842 1.351 . S
C842 C836 1.428 . S
C842 N841 1.351 . S
C842 C843 1.434 . S
C843 C834 1.429 . S
C843 N840 1.350 . S
C843 C842 1.434 . S
C844 C845 1.369 . S
C844 C846 1.419 . S
C844 H848 0.930 . S
C845 C844 1.369 . S
C845 C854 1.429 . S
C846 C844 1.419 . S
C846 C847 1.363 . S
C846 H849 0.929 . S
C847 C846 1.363 . S
C847 C853 1.428 . S
H848 C844 0.930 . S
H849 C846 0.929 . S
S850 N851 1.613 . S
S850 N852 1.610 . S
N851 S850 1.613 . S
N851 C854 1.350 . S
N852 S850 1.610 . S
N852 C853 1.351 . S
C853 C847 1.428 . S
C853 N852 1.351 . S
C853 C854 1.434 . S
C854 C845 1.429 . S
C854 N851 1.350 . S
C854 C853 1.434 . S
C855 C856 1.369 . S
C855 C857 1.419 . S
C855 H859 0.930 . S
C856 C855 1.369 . S
C856 C865 1.429 . S
C857 C855 1.419 . S
C857 C858 1.363 . S
C857 H860 0.929 . S
C858 C857 1.363 . S
C858 C864 1.428 . S
H859 C855 0.930 . S
H860 C857 0.929 . S
S861 N862 1.613 . S
S861 N863 1.610 . S
N862 S861 1.613 . S
N862 C865 1.350 . S
N863 S861 1.610 . S
N863 C864 1.351 . S
C864 C858 1.428 . S
C864 N863 1.351 . S
C864 C865 1.434 . S
C865 C856 1.429 . S
C865 N862 1.350 . S
C865 C864 1.434 . S
C866 C867 1.369 . S
C866 C868 1.419 . S
C866 H870 0.930 . S
C867 C866 1.369 . S
C867 C876 1.429 . S
C868 C866 1.419 . S
C868 C869 1.363 . S
C868 H871 0.929 . S
C869 C868 1.363 . S
C869 C875 1.428 . S
H870 C866 0.930 . S
H871 C868 0.929 . S
S872 N873 1.613 . S
S872 N874 1.610 . S
N873 S872 1.613 . S
N873 C876 1.350 . S
N874 S872 1.610 . S
N874 C875 1.351 . S
C875 C869 1.428 . S
C875 N874 1.351 . S
C875 C876 1.434 . S
C876 C867 1.429 . S
C876 N873 1.350 . S
C876 C875 1.434 . S
C877 C878 1.369 . S
C877 C879 1.419 . S
C877 H881 0.930 . S
C878 C877 1.369 . S
C878 C887 1.429 . S
C879 C877 1.419 . S
C879 C880 1.363 . S
C879 H882 0.929 . S
C880 C879 1.363 . S
C880 C886 1.428 . S
H881 C877 0.930 . S
H882 C879 0.929 . S
S883 N884 1.613 . S
S883 N885 1.610 . S
N884 S883 1.613 . S
N884 C887 1.350 . S
N885 S883 1.610 . S
N885 C886 1.351 . S
C886 C880 1.428 . S
C886 N885 1.351 . S
C886 C887 1.434 . S
C887 C878 1.429 . S
C887 N884 1.350 . S
C887 C886 1.434 . S
C625 C247 1.488 1_545 S
C627 C344 1.469 . S
C638 C428 1.468 . S
C636 C283 1.488 . S
C649 C427 1.478 . S
C647 C175 1.486 . S
C658 C211 1.487 1_545 S
C660 C343 1.479 . S
C671 C524 1.468 . S
C669 C103 1.471 1_565 S
C682 C608 1.470 . S
C680 C139 1.475 . S
C691 C31 1.464 . S
C693 C607 1.479 . S
C702 C67 1.468 1_565 S
C704 C523 1.478 . S
C715 C346 1.312 . S
C713 C37 1.511 . S
C726 C430 1.312 . S
C724 C1 1.512 . S
C737 C442 1.397 . S
C735 C109 1.523 1_556 S
C748 C358 1.399 . S
C746 C73 1.525 . S
C759 C526 1.317 . S
C757 C181 1.528 . S
C768 C145 1.526 . S
C770 C610 1.323 . S
C781 C598 1.401 . S
C779 C253 1.560 . S
C790 C217 1.542 . S
C792 C514 1.405 . S
C803 C355 1.577 . S
C801 C25 1.543 . S
C814 C439 1.577 . S
C812 C61 1.547 . S
C823 C97 1.535 . S
C825 C440 1.561 . S
C836 C356 1.559 . S
C834 C133 1.536 . S
C847 C511 1.579 . S
C845 C169 1.567 . S
C856 C205 1.569 . S
C858 C595 1.578 . S
C867 C241 1.554 . S
C869 C596 1.559 . S
C878 C277 1.554 . S
C880 C512 1.560 . S
