# Generated by pormake.
# Topology pyr, (3,6)-cn, num edge types: 1
# Building blocks:
#     Node 0, Type 0, BuildingBlock: MIDCAF_clean_linker_0, # of connection points: 3
#     Node 1, Type 0, BuildingBlock: MIDCAF_clean_linker_0, # of connection points: 3
#     Node 2, Type 0, BuildingBlock: MIDCAF_clean_linker_0, # of connection points: 3
#     Node 3, Type 0, BuildingBlock: MIDCAF_clean_linker_0, # of connection points: 3
#     Node 4, Type 0, BuildingBlock: MIDCAF_clean_linker_0, # of connection points: 3
#     Node 5, Type 0, BuildingBlock: MIDCAF_clean_linker_0, # of connection points: 3
#     Node 6, Type 0, BuildingBlock: MIDCAF_clean_linker_0, # of connection points: 3
#     Node 7, Type 0, BuildingBlock: MIDCAF_clean_linker_0, # of connection points: 3
#     Node 8, Type 1, BuildingBlock: BETDEL_clean_sbu_0, # of connection points: 6
#     Node 9, Type 1, BuildingBlock: BETDEL_clean_sbu_0, # of connection points: 6
#     Node 10, Type 1, BuildingBlock: BETDEL_clean_sbu_0, # of connection points: 6
#     Node 11, Type 1, BuildingBlock: BETDEL_clean_sbu_0, # of connection points: 6
#     Edge 12, Type (0, 1), None
#     Edge 13, Type (0, 1), None
#     Edge 14, Type (0, 1), None
#     Edge 15, Type (0, 1), None
#     Edge 16, Type (0, 1), None
#     Edge 17, Type (0, 1), None
#     Edge 18, Type (0, 1), None
#     Edge 19, Type (0, 1), None
#     Edge 20, Type (0, 1), None
#     Edge 21, Type (0, 1), None
#     Edge 22, Type (0, 1), None
#     Edge 23, Type (0, 1), None
#     Edge 24, Type (0, 1), None
#     Edge 25, Type (0, 1), None
#     Edge 26, Type (0, 1), None
#     Edge 27, Type (0, 1), None
#     Edge 28, Type (0, 1), None
#     Edge 29, Type (0, 1), None
#     Edge 30, Type (0, 1), None
#     Edge 31, Type (0, 1), None
#     Edge 32, Type (0, 1), None
#     Edge 33, Type (0, 1), None
#     Edge 34, Type (0, 1), None
#     Edge 35, Type (0, 1), None
# Relax obj value: 0.046
# Max RMSD: 0.099
# Mean RMSD: 0.044
data_MOF--net-pyr--node1-BETDEL_clean_sbu_0--node2-MIDCAF_clean_linker_0--edge1-none
_symmetry_space_group_name_H-M    P1
_symmetry_Int_Tables_number       1
_symmetry_cell_setting            triclinic
loop_
_symmetry_equiv_pos_as_xyz
'x, y, z'
_cell_length_a     24.188837
_cell_length_b     25.104124
_cell_length_c     23.789786
_cell_angle_alpha  90.220177
_cell_angle_beta   87.813527
_cell_angle_gamma 96.550248
loop_
_atom_site_label
_atom_site_type_symbol
_atom_site_fract_x
_atom_site_fract_y
_atom_site_fract_z
_atom_type_partial_charge
C0 C 0.15484 0.18973 0.36431 0.0
C1 C 0.16559 0.13622 0.36784 0.0
C2 C 0.21633 0.12126 0.34653 0.0
C3 C 0.25326 0.15827 0.31631 0.0
H4 H 0.42066 0.21533 0.20925 0.0
H5 H 0.47564 0.14996 0.16379 0.0
H6 H 0.36276 0.13491 0.02677 0.0
H7 H 0.30915 0.20136 0.07094 0.0
H8 H 0.24732 0.32603 0.06944 0.0
H9 H 0.17503 0.3667 0.02155 0.0
H10 H 0.06725 0.3453 0.17065 0.0
H11 H 0.13873 0.30543 0.2187 0.0
H12 H 0.18066 0.26699 0.32951 0.0
H13 H 0.11678 0.20256 0.38248 0.0
H14 H 0.22601 0.08039 0.35046 0.0
H15 H 0.28983 0.14446 0.29595 0.0
N16 N 0.30884 0.22564 0.22981 0.0
N17 N 0.28672 0.27165 0.14943 0.0
N18 N 0.23101 0.2725 0.23173 0.0
C19 C 0.32105 0.24147 0.1759 0.0
C20 C 0.2419 0.288 0.17775 0.0
C21 C 0.26375 0.24109 0.25805 0.0
C22 C 0.36118 0.21344 0.14323 0.0
C23 C 0.40879 0.19911 0.16861 0.0
C24 C 0.43971 0.16151 0.14305 0.0
C25 C 0.42219 0.13675 0.09284 0.0
C26 C 0.37613 0.15283 0.06622 0.0
C27 C 0.34621 0.1915 0.0909 0.0
C28 C 0.19933 0.3134 0.14817 0.0
C29 C 0.20819 0.3299 0.09191 0.0
C30 C 0.16664 0.35252 0.06432 0.0
C31 C 0.11567 0.35863 0.09252 0.0
C32 C 0.10606 0.34056 0.14792 0.0
C33 C 0.14753 0.31841 0.1756 0.0
C34 C 0.23946 0.21044 0.30723 0.0
C35 C 0.19188 0.22679 0.33484 0.0
C36 C 0.10634 0.93151 0.62774 0.0
C37 C 0.10705 0.92298 0.56947 0.0
C38 C 0.13573 0.88172 0.54679 0.0
C39 C 0.16567 0.85139 0.58133 0.0
H40 H 0.25699 0.70552 0.59824 0.0
H41 H 0.32119 0.64441 0.56013 0.0
H42 H 0.44338 0.70493 0.67905 0.0
H43 H 0.37931 0.76485 0.71797 0.0
H44 H 0.30367 0.79034 0.84594 0.0
H45 H 0.3552 0.83979 0.91933 0.0
H46 H 0.29384 0.98579 0.86628 0.0
H47 H 0.24161 0.93635 0.79324 0.0
H48 H 0.1363 0.91015 0.70691 0.0
H49 H 0.08418 0.96274 0.64638 0.0
H50 H 0.13651 0.87392 0.50196 0.0
H51 H 0.1889 0.82123 0.56212 0.0
N52 N 0.23619 0.79699 0.65349 0.0
N53 N 0.28277 0.79585 0.73801 0.0
N54 N 0.21476 0.85383 0.72799 0.0
C55 C 0.27491 0.77709 0.68514 0.0
C56 C 0.25282 0.83385 0.75988 0.0
C57 C 0.20558 0.8353 0.67501 0.0
C58 C 0.31283 0.73978 0.66126 0.0
C59 C 0.29745 0.70562 0.61627 0.0
C60 C 0.33411 0.67062 0.59465 0.0
C61 C 0.38715 0.67008 0.61683 0.0
C62 C 0.40276 0.70456 0.66127 0.0
C63 C 0.36583 0.73868 0.68361 0.0
C64 C 0.26964 0.85974 0.81317 0.0
C65 C 0.29979 0.83267 0.85108 0.0
C66 C 0.32924 0.86092 0.89309 0.0
C67 C 0.32937 0.91665 0.89729 0.0
C68 C 0.29476 0.94282 0.86329 0.0
C69 C 0.26469 0.91444 0.82167 0.0
C70 C 0.16763 0.8618 0.63934 0.0
C71 C 0.13634 0.90127 0.66233 0.0
C72 C 0.61222 0.15501 0.92216 0.0
C73 C 0.55587 0.141 0.91052 0.0
C74 C 0.52897 0.17653 0.87844 0.0
C75 C 0.55717 0.22505 0.85897 0.0
H76 H 0.59533 0.32647 0.70169 0.0
H77 H 0.55988 0.37208 0.62245 0.0
H78 H 0.60099 0.52478 0.70336 0.0
H79 H 0.63888 0.47905 0.78217 0.0
H80 H 0.7562 0.47194 0.86037 0.0
H81 H 0.83942 0.51325 0.90438 0.0
H82 H 0.86518 0.36057 0.97599 0.0
H83 H 0.78104 0.31901 0.93217 0.0
H84 H 0.68348 0.21453 0.91397 0.0
H85 H 0.63423 0.12832 0.94636 0.0
H86 H 0.4856 0.16705 0.86857 0.0
H87 H 0.53451 0.25135 0.83492 0.0
N88 N 0.61989 0.32074 0.81112 0.0
N89 N 0.68847 0.39355 0.82247 0.0
N90 N 0.68732 0.31667 0.87899 0.0
C91 C 0.64315 0.37066 0.79547 0.0
C92 C 0.71116 0.36673 0.86402 0.0
C93 C 0.64132 0.29354 0.8531 0.0
C94 C 0.62007 0.39906 0.74827 0.0
C95 C 0.59686 0.36976 0.70273 0.0
C96 C 0.57674 0.39596 0.65716 0.0
C97 C 0.57764 0.45209 0.65658 0.0
C98 C 0.59956 0.48151 0.70268 0.0
C99 C 0.62144 0.45533 0.74763 0.0
C100 C 0.76167 0.39196 0.89239 0.0
C101 C 0.77936 0.44698 0.88553 0.0
C102 C 0.82722 0.47081 0.91107 0.0
C103 C 0.85931 0.4403 0.94381 0.0
C104 C 0.8416 0.38531 0.95104 0.0
C105 C 0.79321 0.3615 0.92593 0.0
C106 C 0.61304 0.24017 0.87179 0.0
C107 C 0.64036 0.20441 0.90354 0.0
C108 C 0.69261 0.63843 0.4826 0.0
C109 C 0.65196 0.60015 0.46125 0.0
C110 C 0.66161 0.57869 0.40736 0.0
C111 C 0.71028 0.59634 0.37508 0.0
H112 H 0.83428 0.55326 0.25156 0.0
H113 H 0.87384 0.5027 0.17545 0.0
H114 H 0.99088 0.64016 0.13148 0.0
H115 H 0.95158 0.69125 0.20831 0.0
H116 H 0.96479 0.79739 0.30454 0.0
H117 H 1.00553 0.88378 0.34356 0.0
H118 H 0.86956 0.87741 0.46711 0.0
H119 H 0.82955 0.79363 0.42927 0.0
H120 H 0.77032 0.68678 0.4682 0.0
H121 H 0.68677 0.65558 0.52396 0.0
H122 H 0.63107 0.54897 0.38975 0.0
H123 H 0.71593 0.57996 0.33334 0.0
N124 N 0.82034 0.63398 0.31582 0.0
N125 N 0.89029 0.70679 0.3001 0.0
N126 N 0.82423 0.70909 0.37449 0.0
C127 C 0.86602 0.65688 0.2852 0.0
C128 C 0.86919 0.73327 0.34491 0.0
C129 C 0.79937 0.65997 0.36081 0.0
C130 C 0.88962 0.62668 0.23682 0.0
C131 C 0.86832 0.57315 0.22581 0.0
C132 C 0.89108 0.54391 0.18195 0.0
C133 C 0.9357 0.56717 0.1473 0.0
C134 C 0.95654 0.62092 0.15734 0.0
C135 C 0.93398 0.65021 0.2016 0.0
C136 C 0.89407 0.78759 0.36392 0.0
C137 C 0.94348 0.81485 0.33967 0.0
C138 C 0.96669 0.86449 0.36184 0.0
C139 C 0.94109 0.88749 0.40881 0.0
C140 C 0.89097 0.86096 0.43136 0.0
C141 C 0.8679 0.81228 0.40937 0.0
C142 C 0.74993 0.63634 0.39576 0.0
C143 C 0.74063 0.65642 0.45033 0.0
C144 C 0.58481 0.88204 0.87544 0.0
C145 C 0.60236 0.90685 0.92561 0.0
C146 C 0.64848 0.89084 0.95218 0.0
C147 C 0.67844 0.8522 0.92748 0.0
H148 H 0.77777 0.71807 0.94887 0.0
H149 H 0.85017 0.67737 0.99656 0.0
H150 H 0.95739 0.69823 0.84702 0.0
H151 H 0.8858 0.73814 0.79917 0.0
H152 H 0.84376 0.77679 0.68865 0.0
H153 H 0.90753 0.84124 0.6356 0.0
H154 H 0.79815 0.9633 0.66757 0.0
H155 H 0.73444 0.8992 0.7222 0.0
H156 H 0.60386 0.82822 0.80924 0.0
H157 H 0.54884 0.89353 0.85473 0.0
H158 H 0.66189 0.9088 0.9916 0.0
H159 H 0.71555 0.84242 0.94739 0.0
N160 N 0.73803 0.77215 0.86886 0.0
N161 N 0.79358 0.77132 0.78646 0.0
N162 N 0.71569 0.81808 0.78852 0.0
C163 C 0.78282 0.75584 0.84047 0.0
C164 C 0.76075 0.80267 0.76019 0.0
C165 C 0.70361 0.80228 0.84245 0.0
C166 C 0.82547 0.73045 0.86994 0.0
C167 C 0.8168 0.71408 0.92625 0.0
C168 C 0.85842 0.69144 0.95373 0.0
C169 C 0.90925 0.68517 0.92534 0.0
C170 C 0.91867 0.70309 0.86988 0.0
C171 C 0.87715 0.72528 0.84232 0.0
C172 C 0.78491 0.8333 0.71094 0.0
C173 C 0.83248 0.81697 0.6833 0.0
C174 C 0.86946 0.85405 0.65377 0.0
C175 C 0.85864 0.90753 0.65021 0.0
C176 C 0.80788 0.92245 0.67153 0.0
C177 C 0.77102 0.88543 0.70182 0.0
C178 C 0.66343 0.83023 0.87517 0.0
C179 C 0.61576 0.84447 0.84986 0.0
C180 C 0.73 0.10114 0.15468 0.0
C181 C 0.69526 0.12727 0.1208 0.0
C182 C 0.69529 0.18299 0.12507 0.0
C183 C 0.72479 0.21124 0.16704 0.0
H184 H 0.6456 0.27924 0.30002 0.0
H185 H 0.58153 0.33911 0.33902 0.0
H186 H 0.70362 0.39935 0.45814 0.0
H187 H 0.76783 0.33828 0.41994 0.0
H188 H 0.83609 0.22274 0.45585 0.0
H189 H 0.88841 0.16999 0.516 0.0
H190 H 0.94026 0.0808 0.37164 0.0
H191 H 0.88821 0.13347 0.31112 0.0
H192 H 0.78329 0.10763 0.22461 0.0
H193 H 0.73101 0.05819 0.15163 0.0
H194 H 0.66922 0.20409 0.09892 0.0
H195 H 0.72083 0.25356 0.17224 0.0
N196 N 0.74204 0.2481 0.28003 0.0
N197 N 0.78864 0.24689 0.36454 0.0
N198 N 0.80999 0.19005 0.29002 0.0
C199 C 0.74994 0.26684 0.33291 0.0
C200 C 0.8192 0.20856 0.343 0.0
C201 C 0.77195 0.21008 0.25815 0.0
C202 C 0.71203 0.30416 0.35682 0.0
C203 C 0.65906 0.30534 0.33444 0.0
C204 C 0.62213 0.33943 0.35682 0.0
C205 C 0.63771 0.37381 0.40135 0.0
C206 C 0.69073 0.37322 0.42356 0.0
C207 C 0.72739 0.33824 0.40188 0.0
C208 C 0.85712 0.182 0.37865 0.0
C209 C 0.8592 0.19248 0.43665 0.0
C210 C 0.8891 0.16212 0.47119 0.0
C211 C 0.91762 0.12074 0.44852 0.0
C212 C 0.91822 0.11213 0.39027 0.0
C213 C 0.88827 0.14241 0.35569 0.0
C214 C 0.75507 0.1842 0.20485 0.0
C215 C 0.76011 0.12953 0.19626 0.0
C216 C 0.19758 0.57294 0.10701 0.0
C217 C 0.16553 0.60348 0.07425 0.0
C218 C 0.18326 0.65846 0.06705 0.0
C219 C 0.23165 0.68225 0.09221 0.0
H220 H 0.34139 0.82912 0.10425 0.0
H221 H 0.3906 0.91537 0.07202 0.0
H222 H 0.53915 0.87678 0.15003 0.0
H223 H 0.49028 0.79239 0.18354 0.0
H224 H 0.42933 0.71718 0.3166 0.0
H225 H 0.46475 0.67159 0.39586 0.0
H226 H 0.42372 0.51888 0.31494 0.0
H227 H 0.38586 0.5646 0.23611 0.0
H228 H 0.26855 0.57177 0.15776 0.0
H229 H 0.18536 0.53051 0.11367 0.0
H230 H 0.15972 0.68322 0.04209 0.0
H231 H 0.24384 0.72474 0.08598 0.0
N232 N 0.33752 0.72702 0.13923 0.0
N233 N 0.40489 0.72291 0.20716 0.0
N234 N 0.3363 0.65013 0.19574 0.0
C235 C 0.38351 0.75013 0.16516 0.0
C236 C 0.38161 0.67299 0.22278 0.0
C237 C 0.31366 0.67696 0.15417 0.0
C238 C 0.4118 0.80352 0.14653 0.0
C239 C 0.38449 0.83927 0.11476 0.0
C240 C 0.41261 0.88869 0.09622 0.0
C241 C 0.46892 0.90277 0.10797 0.0
C242 C 0.49581 0.86725 0.14008 0.0
C243 C 0.46763 0.81868 0.15945 0.0
C244 C 0.40463 0.64459 0.27001 0.0
C245 C 0.42781 0.67389 0.31556 0.0
C246 C 0.44791 0.6477 0.36114 0.0
C247 C 0.44703 0.59157 0.36173 0.0
C248 C 0.42513 0.56215 0.31562 0.0
C249 C 0.40327 0.58833 0.27066 0.0
C250 C 0.26315 0.65177 0.12576 0.0
C251 C 0.24543 0.59675 0.13259 0.0
C252 C 0.13365 0.1824 0.58696 0.0
C253 C 0.08339 0.15601 0.60937 0.0
C254 C 0.0577 0.17914 0.65621 0.0
C255 C 0.08097 0.22877 0.67837 0.0
H256 H 0.07298 0.35243 0.80969 0.0
H257 H 0.03379 0.40357 0.88652 0.0
H258 H 0.15123 0.54079 0.84276 0.0
H259 H 0.19068 0.49017 0.76662 0.0
H260 H 0.3085 0.46373 0.68457 0.0
H261 H 0.39339 0.49473 0.62824 0.0
H262 H 0.3383 0.38742 0.49438 0.0
H263 H 0.2547 0.35622 0.55008 0.0
H264 H 0.19522 0.24959 0.58916 0.0
H265 H 0.15512 0.16584 0.55132 0.0
H266 H 0.01876 0.15997 0.67438 0.0
H267 H 0.05959 0.24633 0.71339 0.0
N268 N 0.13435 0.33673 0.718 0.0
N269 N 0.20436 0.40948 0.70224 0.0
N270 N 0.20041 0.33433 0.64362 0.0
C271 C 0.15867 0.38664 0.73288 0.0
C272 C 0.2253 0.38345 0.65727 0.0
C273 C 0.15542 0.3102 0.67321 0.0
C274 C 0.13513 0.41687 0.78126 0.0
C275 C 0.09069 0.39343 0.81644 0.0
C276 C 0.0682 0.42275 0.86071 0.0
C277 C 0.08918 0.47645 0.87081 0.0
C278 C 0.13388 0.49962 0.83621 0.0
C279 C 0.15657 0.47035 0.79234 0.0
C280 C 0.27479 0.40701 0.62233 0.0
C281 C 0.31429 0.44719 0.64293 0.0
C282 C 0.36298 0.46485 0.61068 0.0
C283 C 0.37281 0.44321 0.55692 0.0
C284 C 0.33232 0.40473 0.53564 0.0
C285 C 0.28427 0.38673 0.56788 0.0
C286 C 0.13051 0.25588 0.65425 0.0
C287 C 0.15677 0.23105 0.60895 0.0
Dy288 Dy 0.05307 0.03467 0.46402 0.0
C289 C 0.90023 0.94679 0.62319 0.0
C290 C 0.12398 0.09698 0.39485 0.0
Dy291 Dy 0.97125 1.00899 0.55404 0.0
O292 O 0.13375 0.05083 0.414 0.0
O293 O 0.07422 0.10697 0.41 0.0
O294 O 0.09125 0.95954 0.47776 0.0
O295 O 0.0598 1.00034 0.54766 0.0
C296 C 0.0813 0.95881 0.53174 0.0
C297 C 0.9433 0.08486 0.48627 0.0
O298 O 0.0205 0.07169 0.60491 0.0
O299 O 0.07248 0.1021 0.52585 0.0
O300 O 0.89036 0.99278 0.60369 0.0
O301 O 0.95011 0.93692 0.60839 0.0
O302 O 0.93343 0.08427 0.54027 0.0
O303 O 0.96454 0.04318 0.47036 0.0
O304 O 1.00384 0.97192 0.41319 0.0
O305 O 0.95197 0.94146 0.49229 0.0
C306 C 0.0574 0.10755 0.57953 0.0
C307 C 0.96702 0.936 0.43861 0.0
Dy308 Dy 0.56318 0.03934 0.04152 0.0
C309 C 0.37142 0.94796 0.93049 0.0
C310 C 0.65318 0.09592 0.08766 0.0
Dy311 Dy 0.46141 1.00437 0.97682 0.0
O312 O 0.63992 0.0446 0.09251 0.0
O313 O 0.61714 0.11634 0.0578 0.0
O314 O 0.55489 0.96276 0.09026 0.0
O315 O 0.48245 0.99228 0.06379 0.0
C316 C 0.50153 0.95257 0.08566 0.0
C317 C 0.52318 0.09128 0.93294 0.0
O318 O 0.4235 0.05505 0.04077 0.0
O319 O 0.50664 0.09872 0.07125 0.0
O320 O 0.38489 0.99924 0.92552 0.0
O321 O 0.40725 0.92748 0.96058 0.0
O322 O 0.46979 0.08123 0.92846 0.0
O323 O 0.5421 0.05136 0.95453 0.0
O324 O 0.60107 0.98857 0.97766 0.0
O325 O 0.51793 0.94495 0.94713 0.0
C326 C 0.45203 0.09474 0.06755 0.0
C327 C 0.57253 0.94888 0.95089 0.0
Dy328 Dy 0.52783 0.47507 0.47349 0.0
C329 C 0.42603 0.63397 0.59322 0.0
C330 C 0.5988 0.40987 0.42502 0.0
Dy331 Dy 0.4969 0.56864 0.54482 0.0
O332 O 0.54545 0.40597 0.41711 0.0
O333 O 0.613 0.44948 0.45853 0.0
O334 O 0.43928 0.43572 0.47672 0.0
O335 O 0.46886 0.48336 0.54398 0.0
C336 C 0.42581 0.45844 0.5239 0.0
C337 C 0.599 0.58498 0.49436 0.0
O338 O 0.52804 0.52073 0.61474 0.0
O339 O 0.56348 0.45691 0.55693 0.0
O340 O 0.4794 0.63787 0.60106 0.0
O341 O 0.41177 0.59428 0.55983 0.0
O342 O 0.58566 0.60769 0.54159 0.0
O343 O 0.55578 0.56034 0.47439 0.0
O344 O 0.49662 0.52293 0.40358 0.0
O345 O 0.46125 0.58679 0.46137 0.0
C346 C 0.55664 0.4789 0.60724 0.0
C347 C 0.46804 0.56477 0.41107 0.0
Dy348 Dy 0.02117 0.47334 0.03622 0.0
C349 C 0.94852 0.65277 0.95017 0.0
C350 C 0.07644 0.39101 0.06763 0.0
Dy351 Dy 1.00375 0.57043 0.98166 0.0
O352 O 0.03251 0.40542 0.09399 0.0
O353 O 0.08844 0.42009 0.02311 0.0
O354 O 0.95246 0.48251 0.10052 0.0
O355 O 1.00289 0.55109 0.07111 0.0
C356 C 0.96103 0.53454 0.1025 0.0
C357 C 0.06389 0.50912 0.91561 0.0
O358 O 0.07804 0.60736 0.02699 0.0
O359 O 0.10176 0.52503 0.05286 0.0
O360 O 0.99228 0.63815 0.92368 0.0
O361 O 0.93667 0.62389 0.99485 0.0
O362 O 0.07262 0.56114 0.91763 0.0
O363 O 0.02186 0.49264 0.94682 0.0
O364 O 0.94685 0.43642 0.99095 0.0
O365 O 0.92311 0.51876 0.96511 0.0
C366 C 0.11344 0.57777 0.04926 0.0
C367 C 0.91142 0.46601 0.96874 0.0
loop_
_geom_bond_atom_site_label_1
_geom_bond_atom_site_label_2
_geom_bond_distance
_geom_bond_site_symmetry_2
_ccdc_geom_bond_type
C0 C1 1.384 . S
C0 H13 0.947 . S
C0 C35 1.382 . S
C1 C0 1.384 . S
C1 C2 1.378 . S
C2 C1 1.378 . S
C2 C3 1.378 . S
C2 H14 0.952 . S
C3 C2 1.378 . S
C3 H15 0.950 . S
C3 C34 1.383 . S
H4 C23 0.947 . S
H5 C24 0.946 . S
H6 C26 0.953 . S
H7 C27 0.945 . S
H8 C29 0.952 . S
H9 C30 0.949 . S
H10 C32 0.950 . S
H11 C33 0.948 . S
H12 C35 0.951 . S
H13 C0 0.947 . S
H14 C2 0.952 . S
H15 C3 0.950 . S
N16 C19 1.382 . S
N16 C21 1.363 . S
N17 C19 1.371 . S
N17 C20 1.372 . S
N18 C20 1.361 . S
N18 C21 1.377 . S
C19 N16 1.382 . S
C19 N17 1.371 . S
C19 C22 1.480 . S
C20 N17 1.372 . S
C20 N18 1.361 . S
C20 C28 1.457 . S
C21 N16 1.363 . S
C21 N18 1.377 . S
C21 C34 1.479 . S
C22 C19 1.480 . S
C22 C23 1.383 . S
C22 C27 1.385 . S
C23 H4 0.947 . S
C23 C22 1.383 . S
C23 C24 1.388 . S
C24 H5 0.946 . S
C24 C23 1.388 . S
C24 C25 1.384 . S
C25 C24 1.384 . S
C25 C26 1.377 . S
C26 H6 0.953 . S
C26 C25 1.377 . S
C26 C27 1.369 . S
C27 H7 0.945 . S
C27 C22 1.385 . S
C27 C26 1.369 . S
C28 C20 1.457 . S
C28 C29 1.372 . S
C28 C33 1.364 . S
C29 H8 0.952 . S
C29 C28 1.372 . S
C29 C30 1.389 . S
C30 H9 0.949 . S
C30 C29 1.389 . S
C30 C31 1.387 . S
C31 C30 1.387 . S
C31 C32 1.372 . S
C32 H10 0.950 . S
C32 C31 1.372 . S
C32 C33 1.379 . S
C33 H11 0.948 . S
C33 C28 1.364 . S
C33 C32 1.379 . S
C34 C3 1.383 . S
C34 C21 1.479 . S
C34 C35 1.398 . S
C35 C0 1.382 . S
C35 H12 0.951 . S
C35 C34 1.398 . S
C36 C37 1.384 . S
C36 H49 0.947 . S
C36 C71 1.382 . S
C37 C36 1.384 . S
C37 C38 1.378 . S
C38 C37 1.378 . S
C38 C39 1.378 . S
C38 H50 0.952 . S
C39 C38 1.378 . S
C39 H51 0.950 . S
C39 C70 1.383 . S
H40 C59 0.947 . S
H41 C60 0.946 . S
H42 C62 0.953 . S
H43 C63 0.945 . S
H44 C65 0.952 . S
H45 C66 0.949 . S
H46 C68 0.950 . S
H47 C69 0.948 . S
H48 C71 0.951 . S
H49 C36 0.947 . S
H50 C38 0.952 . S
H51 C39 0.950 . S
N52 C55 1.382 . S
N52 C57 1.363 . S
N53 C55 1.371 . S
N53 C56 1.372 . S
N54 C56 1.361 . S
N54 C57 1.377 . S
C55 N52 1.382 . S
C55 N53 1.371 . S
C55 C58 1.480 . S
C56 N53 1.372 . S
C56 N54 1.361 . S
C56 C64 1.457 . S
C57 N52 1.363 . S
C57 N54 1.377 . S
C57 C70 1.479 . S
C58 C55 1.480 . S
C58 C59 1.383 . S
C58 C63 1.385 . S
C59 H40 0.947 . S
C59 C58 1.383 . S
C59 C60 1.388 . S
C60 H41 0.946 . S
C60 C59 1.388 . S
C60 C61 1.384 . S
C61 C60 1.384 . S
C61 C62 1.377 . S
C62 H42 0.953 . S
C62 C61 1.377 . S
C62 C63 1.369 . S
C63 H43 0.945 . S
C63 C58 1.385 . S
C63 C62 1.369 . S
C64 C56 1.457 . S
C64 C65 1.372 . S
C64 C69 1.364 . S
C65 H44 0.952 . S
C65 C64 1.372 . S
C65 C66 1.389 . S
C66 H45 0.949 . S
C66 C65 1.389 . S
C66 C67 1.387 . S
C67 C66 1.387 . S
C67 C68 1.372 . S
C68 H46 0.950 . S
C68 C67 1.372 . S
C68 C69 1.379 . S
C69 H47 0.948 . S
C69 C64 1.364 . S
C69 C68 1.379 . S
C70 C39 1.383 . S
C70 C57 1.479 . S
C70 C71 1.398 . S
C71 C36 1.382 . S
C71 H48 0.951 . S
C71 C70 1.398 . S
C72 C73 1.384 . S
C72 H85 0.947 . S
C72 C107 1.382 . S
C73 C72 1.384 . S
C73 C74 1.378 . S
C74 C73 1.378 . S
C74 C75 1.378 . S
C74 H86 0.952 . S
C75 C74 1.378 . S
C75 H87 0.950 . S
C75 C106 1.383 . S
H76 C95 0.947 . S
H77 C96 0.946 . S
H78 C98 0.953 . S
H79 C99 0.945 . S
H80 C101 0.952 . S
H81 C102 0.949 . S
H82 C104 0.950 . S
H83 C105 0.948 . S
H84 C107 0.951 . S
H85 C72 0.947 . S
H86 C74 0.952 . S
H87 C75 0.950 . S
N88 C91 1.382 . S
N88 C93 1.363 . S
N89 C91 1.371 . S
N89 C92 1.372 . S
N90 C92 1.361 . S
N90 C93 1.377 . S
C91 N88 1.382 . S
C91 N89 1.371 . S
C91 C94 1.480 . S
C92 N89 1.372 . S
C92 N90 1.361 . S
C92 C100 1.457 . S
C93 N88 1.363 . S
C93 N90 1.377 . S
C93 C106 1.479 . S
C94 C91 1.480 . S
C94 C95 1.383 . S
C94 C99 1.385 . S
C95 H76 0.947 . S
C95 C94 1.383 . S
C95 C96 1.388 . S
C96 H77 0.946 . S
C96 C95 1.388 . S
C96 C97 1.384 . S
C97 C96 1.384 . S
C97 C98 1.377 . S
C98 H78 0.953 . S
C98 C97 1.377 . S
C98 C99 1.369 . S
C99 H79 0.945 . S
C99 C94 1.385 . S
C99 C98 1.369 . S
C100 C92 1.457 . S
C100 C101 1.372 . S
C100 C105 1.364 . S
C101 H80 0.952 . S
C101 C100 1.372 . S
C101 C102 1.389 . S
C102 H81 0.949 . S
C102 C101 1.389 . S
C102 C103 1.387 . S
C103 C102 1.387 . S
C103 C104 1.372 . S
C104 H82 0.950 . S
C104 C103 1.372 . S
C104 C105 1.379 . S
C105 H83 0.948 . S
C105 C100 1.364 . S
C105 C104 1.379 . S
C106 C75 1.383 . S
C106 C93 1.479 . S
C106 C107 1.398 . S
C107 C72 1.382 . S
C107 H84 0.951 . S
C107 C106 1.398 . S
C108 C109 1.384 . S
C108 H121 0.947 . S
C108 C143 1.382 . S
C109 C108 1.384 . S
C109 C110 1.378 . S
C110 C109 1.378 . S
C110 C111 1.378 . S
C110 H122 0.952 . S
C111 C110 1.378 . S
C111 H123 0.950 . S
C111 C142 1.383 . S
H112 C131 0.947 . S
H113 C132 0.946 . S
H114 C134 0.953 1_455 S
H115 C135 0.945 . S
H116 C137 0.952 . S
H117 C138 0.949 . S
H118 C140 0.950 . S
H119 C141 0.948 . S
H120 C143 0.951 . S
H121 C108 0.947 . S
H122 C110 0.952 . S
H123 C111 0.950 . S
N124 C127 1.382 . S
N124 C129 1.363 . S
N125 C127 1.371 . S
N125 C128 1.372 . S
N126 C128 1.361 . S
N126 C129 1.377 . S
C127 N124 1.382 . S
C127 N125 1.371 . S
C127 C130 1.480 . S
C128 N125 1.372 . S
C128 N126 1.361 . S
C128 C136 1.457 . S
C129 N124 1.363 . S
C129 N126 1.377 . S
C129 C142 1.479 . S
C130 C127 1.480 . S
C130 C131 1.383 . S
C130 C135 1.385 . S
C131 H112 0.947 . S
C131 C130 1.383 . S
C131 C132 1.388 . S
C132 H113 0.946 . S
C132 C131 1.388 . S
C132 C133 1.384 . S
C133 C132 1.384 . S
C133 C134 1.377 . S
C134 H114 0.953 1_655 S
C134 C133 1.377 . S
C134 C135 1.369 . S
C135 H115 0.945 . S
C135 C130 1.385 . S
C135 C134 1.369 . S
C136 C128 1.457 . S
C136 C137 1.372 . S
C136 C141 1.364 . S
C137 H116 0.952 . S
C137 C136 1.372 . S
C137 C138 1.389 . S
C138 H117 0.949 . S
C138 C137 1.389 . S
C138 C139 1.387 . S
C139 C138 1.387 . S
C139 C140 1.372 . S
C140 H118 0.950 . S
C140 C139 1.372 . S
C140 C141 1.379 . S
C141 H119 0.948 . S
C141 C136 1.364 . S
C141 C140 1.379 . S
C142 C111 1.383 . S
C142 C129 1.479 . S
C142 C143 1.398 . S
C143 C108 1.382 . S
C143 H120 0.951 . S
C143 C142 1.398 . S
C144 C145 1.384 . S
C144 H157 0.947 . S
C144 C179 1.382 . S
C145 C144 1.384 . S
C145 C146 1.378 . S
C146 C145 1.378 . S
C146 C147 1.378 . S
C146 H158 0.952 . S
C147 C146 1.378 . S
C147 H159 0.950 . S
C147 C178 1.383 . S
H148 C167 0.947 . S
H149 C168 0.946 . S
H150 C170 0.953 . S
H151 C171 0.945 . S
H152 C173 0.952 . S
H153 C174 0.949 . S
H154 C176 0.950 . S
H155 C177 0.948 . S
H156 C179 0.951 . S
H157 C144 0.947 . S
H158 C146 0.952 . S
H159 C147 0.950 . S
N160 C163 1.382 . S
N160 C165 1.363 . S
N161 C163 1.371 . S
N161 C164 1.372 . S
N162 C164 1.361 . S
N162 C165 1.377 . S
C163 N160 1.382 . S
C163 N161 1.371 . S
C163 C166 1.480 . S
C164 N161 1.372 . S
C164 N162 1.361 . S
C164 C172 1.457 . S
C165 N160 1.363 . S
C165 N162 1.377 . S
C165 C178 1.479 . S
C166 C163 1.480 . S
C166 C167 1.383 . S
C166 C171 1.385 . S
C167 H148 0.947 . S
C167 C166 1.383 . S
C167 C168 1.388 . S
C168 H149 0.946 . S
C168 C167 1.388 . S
C168 C169 1.384 . S
C169 C168 1.384 . S
C169 C170 1.377 . S
C170 H150 0.953 . S
C170 C169 1.377 . S
C170 C171 1.369 . S
C171 H151 0.945 . S
C171 C166 1.385 . S
C171 C170 1.369 . S
C172 C164 1.457 . S
C172 C173 1.372 . S
C172 C177 1.364 . S
C173 H152 0.952 . S
C173 C172 1.372 . S
C173 C174 1.389 . S
C174 H153 0.949 . S
C174 C173 1.389 . S
C174 C175 1.387 . S
C175 C174 1.387 . S
C175 C176 1.372 . S
C176 H154 0.950 . S
C176 C175 1.372 . S
C176 C177 1.379 . S
C177 H155 0.948 . S
C177 C172 1.364 . S
C177 C176 1.379 . S
C178 C147 1.383 . S
C178 C165 1.479 . S
C178 C179 1.398 . S
C179 C144 1.382 . S
C179 H156 0.951 . S
C179 C178 1.398 . S
C180 C181 1.384 . S
C180 H193 0.947 . S
C180 C215 1.382 . S
C181 C180 1.384 . S
C181 C182 1.378 . S
C182 C181 1.378 . S
C182 C183 1.378 . S
C182 H194 0.952 . S
C183 C182 1.378 . S
C183 H195 0.950 . S
C183 C214 1.383 . S
H184 C203 0.947 . S
H185 C204 0.946 . S
H186 C206 0.953 . S
H187 C207 0.945 . S
H188 C209 0.952 . S
H189 C210 0.949 . S
H190 C212 0.950 . S
H191 C213 0.948 . S
H192 C215 0.951 . S
H193 C180 0.947 . S
H194 C182 0.952 . S
H195 C183 0.950 . S
N196 C199 1.382 . S
N196 C201 1.363 . S
N197 C199 1.371 . S
N197 C200 1.372 . S
N198 C200 1.361 . S
N198 C201 1.377 . S
C199 N196 1.382 . S
C199 N197 1.371 . S
C199 C202 1.480 . S
C200 N197 1.372 . S
C200 N198 1.361 . S
C200 C208 1.457 . S
C201 N196 1.363 . S
C201 N198 1.377 . S
C201 C214 1.479 . S
C202 C199 1.480 . S
C202 C203 1.383 . S
C202 C207 1.385 . S
C203 H184 0.947 . S
C203 C202 1.383 . S
C203 C204 1.388 . S
C204 H185 0.946 . S
C204 C203 1.388 . S
C204 C205 1.384 . S
C205 C204 1.384 . S
C205 C206 1.377 . S
C206 H186 0.953 . S
C206 C205 1.377 . S
C206 C207 1.369 . S
C207 H187 0.945 . S
C207 C202 1.385 . S
C207 C206 1.369 . S
C208 C200 1.457 . S
C208 C209 1.372 . S
C208 C213 1.364 . S
C209 H188 0.952 . S
C209 C208 1.372 . S
C209 C210 1.389 . S
C210 H189 0.949 . S
C210 C209 1.389 . S
C210 C211 1.387 . S
C211 C210 1.387 . S
C211 C212 1.372 . S
C212 H190 0.950 . S
C212 C211 1.372 . S
C212 C213 1.379 . S
C213 H191 0.948 . S
C213 C208 1.364 . S
C213 C212 1.379 . S
C214 C183 1.383 . S
C214 C201 1.479 . S
C214 C215 1.398 . S
C215 C180 1.382 . S
C215 H192 0.951 . S
C215 C214 1.398 . S
C216 C217 1.384 . S
C216 H229 0.947 . S
C216 C251 1.382 . S
C217 C216 1.384 . S
C217 C218 1.378 . S
C218 C217 1.378 . S
C218 C219 1.378 . S
C218 H230 0.952 . S
C219 C218 1.378 . S
C219 H231 0.950 . S
C219 C250 1.383 . S
H220 C239 0.947 . S
H221 C240 0.946 . S
H222 C242 0.953 . S
H223 C243 0.945 . S
H224 C245 0.952 . S
H225 C246 0.949 . S
H226 C248 0.950 . S
H227 C249 0.948 . S
H228 C251 0.951 . S
H229 C216 0.947 . S
H230 C218 0.952 . S
H231 C219 0.950 . S
N232 C235 1.382 . S
N232 C237 1.363 . S
N233 C235 1.371 . S
N233 C236 1.372 . S
N234 C236 1.361 . S
N234 C237 1.377 . S
C235 N232 1.382 . S
C235 N233 1.371 . S
C235 C238 1.480 . S
C236 N233 1.372 . S
C236 N234 1.361 . S
C236 C244 1.457 . S
C237 N232 1.363 . S
C237 N234 1.377 . S
C237 C250 1.479 . S
C238 C235 1.480 . S
C238 C239 1.383 . S
C238 C243 1.385 . S
C239 H220 0.947 . S
C239 C238 1.383 . S
C239 C240 1.388 . S
C240 H221 0.946 . S
C240 C239 1.388 . S
C240 C241 1.384 . S
C241 C240 1.384 . S
C241 C242 1.377 . S
C242 H222 0.953 . S
C242 C241 1.377 . S
C242 C243 1.369 . S
C243 H223 0.945 . S
C243 C238 1.385 . S
C243 C242 1.369 . S
C244 C236 1.457 . S
C244 C245 1.372 . S
C244 C249 1.364 . S
C245 H224 0.952 . S
C245 C244 1.372 . S
C245 C246 1.389 . S
C246 H225 0.949 . S
C246 C245 1.389 . S
C246 C247 1.387 . S
C247 C246 1.387 . S
C247 C248 1.372 . S
C248 H226 0.950 . S
C248 C247 1.372 . S
C248 C249 1.379 . S
C249 H227 0.948 . S
C249 C244 1.364 . S
C249 C248 1.379 . S
C250 C219 1.383 . S
C250 C237 1.479 . S
C250 C251 1.398 . S
C251 C216 1.382 . S
C251 H228 0.951 . S
C251 C250 1.398 . S
C252 C253 1.384 . S
C252 H265 0.947 . S
C252 C287 1.382 . S
C253 C252 1.384 . S
C253 C254 1.378 . S
C254 C253 1.378 . S
C254 C255 1.378 . S
C254 H266 0.952 . S
C255 C254 1.378 . S
C255 H267 0.950 . S
C255 C286 1.383 . S
H256 C275 0.947 . S
H257 C276 0.946 . S
H258 C278 0.953 . S
H259 C279 0.945 . S
H260 C281 0.952 . S
H261 C282 0.949 . S
H262 C284 0.950 . S
H263 C285 0.948 . S
H264 C287 0.951 . S
H265 C252 0.947 . S
H266 C254 0.952 . S
H267 C255 0.950 . S
N268 C271 1.382 . S
N268 C273 1.363 . S
N269 C271 1.371 . S
N269 C272 1.372 . S
N270 C272 1.361 . S
N270 C273 1.377 . S
C271 N268 1.382 . S
C271 N269 1.371 . S
C271 C274 1.480 . S
C272 N269 1.372 . S
C272 N270 1.361 . S
C272 C280 1.457 . S
C273 N268 1.363 . S
C273 N270 1.377 . S
C273 C286 1.479 . S
C274 C271 1.480 . S
C274 C275 1.383 . S
C274 C279 1.385 . S
C275 H256 0.947 . S
C275 C274 1.383 . S
C275 C276 1.388 . S
C276 H257 0.946 . S
C276 C275 1.388 . S
C276 C277 1.384 . S
C277 C276 1.384 . S
C277 C278 1.377 . S
C278 H258 0.953 . S
C278 C277 1.377 . S
C278 C279 1.369 . S
C279 H259 0.945 . S
C279 C274 1.385 . S
C279 C278 1.369 . S
C280 C272 1.457 . S
C280 C281 1.372 . S
C280 C285 1.364 . S
C281 H260 0.952 . S
C281 C280 1.372 . S
C281 C282 1.389 . S
C282 H261 0.949 . S
C282 C281 1.389 . S
C282 C283 1.387 . S
C283 C282 1.387 . S
C283 C284 1.372 . S
C284 H262 0.950 . S
C284 C283 1.372 . S
C284 C285 1.379 . S
C285 H263 0.948 . S
C285 C280 1.364 . S
C285 C284 1.379 . S
C286 C255 1.383 . S
C286 C273 1.479 . S
C286 C287 1.398 . S
C287 C252 1.382 . S
C287 H264 0.951 . S
C287 C286 1.398 . S
Dy288 O292 2.398 . S
Dy288 O293 2.491 . S
Dy288 O294 2.403 1_545 S
Dy288 O295 2.664 1_545 S
Dy288 O299 2.326 . S
Dy288 O303 2.310 1_455 S
Dy288 O304 2.351 1_445 S
C289 O300 1.185 . S
C289 O301 1.355 . S
C290 O292 1.185 . S
C290 O293 1.355 . S
Dy291 O295 2.310 1_655 S
Dy291 O298 2.351 1_665 S
Dy291 O300 2.398 . S
Dy291 O301 2.491 . S
Dy291 O302 2.403 1_565 S
Dy291 O303 2.664 1_565 S
Dy291 O305 2.326 . S
O292 Dy288 2.398 . S
O292 C290 1.185 . S
O293 Dy288 2.491 . S
O293 C290 1.355 . S
O294 Dy288 2.403 1_565 S
O294 C296 1.254 . S
O295 Dy288 2.664 1_565 S
O295 Dy291 2.310 1_455 S
O295 C296 1.268 . S
C296 O294 1.254 . S
C296 O295 1.268 . S
C297 O302 1.254 . S
C297 O303 1.268 . S
O298 Dy291 2.351 1_445 S
O298 C306 1.249 . S
O299 Dy288 2.326 . S
O299 C306 1.267 . S
O300 C289 1.185 . S
O300 Dy291 2.398 . S
O301 C289 1.355 . S
O301 Dy291 2.491 . S
O302 Dy291 2.403 1_545 S
O302 C297 1.254 . S
O303 Dy288 2.310 1_655 S
O303 Dy291 2.664 1_545 S
O303 C297 1.268 . S
O304 Dy288 2.351 1_665 S
O304 C307 1.249 . S
O305 Dy291 2.326 . S
O305 C307 1.267 . S
C306 O298 1.249 . S
C306 O299 1.267 . S
C307 O304 1.249 . S
C307 O305 1.267 . S
Dy308 O312 2.398 . S
Dy308 O313 2.491 . S
Dy308 O314 2.403 1_545 S
Dy308 O315 2.664 1_545 S
Dy308 O319 2.326 . S
Dy308 O323 2.310 1_554 S
Dy308 O324 2.351 1_544 S
C309 O320 1.185 . S
C309 O321 1.355 . S
C310 O312 1.185 . S
C310 O313 1.355 . S
Dy311 O315 2.310 1_546 S
Dy311 O318 2.351 1_556 S
Dy311 O320 2.398 1_545 S
Dy311 O321 2.491 1_545 S
Dy311 O322 2.403 . S
Dy311 O323 2.664 . S
Dy311 O325 2.326 1_545 S
O312 Dy308 2.398 . S
O312 C310 1.185 . S
O313 Dy308 2.491 . S
O313 C310 1.355 . S
O314 Dy308 2.403 1_565 S
O314 C316 1.254 . S
O315 Dy308 2.664 1_565 S
O315 Dy311 2.310 1_564 S
O315 C316 1.268 . S
C316 O314 1.254 . S
C316 O315 1.268 . S
C317 O322 1.254 . S
C317 O323 1.268 . S
O318 Dy311 2.351 1_554 S
O318 C326 1.249 . S
O319 Dy308 2.326 . S
O319 C326 1.267 . S
O320 C309 1.185 . S
O320 Dy311 2.398 1_565 S
O321 C309 1.355 . S
O321 Dy311 2.491 1_565 S
O322 Dy311 2.403 . S
O322 C317 1.254 . S
O323 Dy308 2.310 1_556 S
O323 Dy311 2.664 . S
O323 C317 1.268 . S
O324 Dy308 2.351 1_566 S
O324 C327 1.249 . S
O325 Dy311 2.326 1_565 S
O325 C327 1.267 . S
C326 O318 1.249 . S
C326 O319 1.267 . S
C327 O324 1.249 . S
C327 O325 1.267 . S
Dy328 O332 2.398 . S
Dy328 O333 2.491 . S
Dy328 O334 2.403 . S
Dy328 O335 2.664 . S
Dy328 O339 2.326 . S
Dy328 O343 2.310 . S
Dy328 O344 2.351 . S
C329 O340 1.185 . S
C329 O341 1.355 . S
C330 O332 1.185 . S
C330 O333 1.355 . S
Dy331 O335 2.310 . S
Dy331 O338 2.351 . S
Dy331 O340 2.398 . S
Dy331 O341 2.491 . S
Dy331 O342 2.403 . S
Dy331 O343 2.664 . S
Dy331 O345 2.326 . S
O332 Dy328 2.398 . S
O332 C330 1.185 . S
O333 Dy328 2.491 . S
O333 C330 1.355 . S
O334 Dy328 2.403 . S
O334 C336 1.254 . S
O335 Dy328 2.664 . S
O335 Dy331 2.310 . S
O335 C336 1.268 . S
C336 O334 1.254 . S
C336 O335 1.268 . S
C337 O342 1.254 . S
C337 O343 1.268 . S
O338 Dy331 2.351 . S
O338 C346 1.249 . S
O339 Dy328 2.326 . S
O339 C346 1.267 . S
O340 C329 1.185 . S
O340 Dy331 2.398 . S
O341 C329 1.355 . S
O341 Dy331 2.491 . S
O342 Dy331 2.403 . S
O342 C337 1.254 . S
O343 Dy328 2.310 . S
O343 Dy331 2.664 . S
O343 C337 1.268 . S
O344 Dy328 2.351 . S
O344 C347 1.249 . S
O345 Dy331 2.326 . S
O345 C347 1.267 . S
C346 O338 1.249 . S
C346 O339 1.267 . S
C347 O344 1.249 . S
C347 O345 1.267 . S
Dy348 O352 2.398 . S
Dy348 O353 2.491 . S
Dy348 O354 2.403 1_455 S
Dy348 O355 2.664 1_455 S
Dy348 O359 2.326 . S
Dy348 O363 2.310 1_554 S
Dy348 O364 2.351 1_454 S
C349 O360 1.185 . S
C349 O361 1.355 . S
C350 O352 1.185 . S
C350 O353 1.355 . S
Dy351 O355 2.310 1_556 S
Dy351 O358 2.351 1_656 S
Dy351 O360 2.398 . S
Dy351 O361 2.491 . S
Dy351 O362 2.403 1_655 S
Dy351 O363 2.664 1_655 S
Dy351 O365 2.326 . S
O352 Dy348 2.398 . S
O352 C350 1.185 . S
O353 Dy348 2.491 . S
O353 C350 1.355 . S
O354 Dy348 2.403 1_655 S
O354 C356 1.254 . S
O355 Dy348 2.664 1_655 S
O355 Dy351 2.310 1_554 S
O355 C356 1.268 . S
C356 O354 1.254 . S
C356 O355 1.268 . S
C357 O362 1.254 . S
C357 O363 1.268 . S
O358 Dy351 2.351 1_454 S
O358 C366 1.249 . S
O359 Dy348 2.326 . S
O359 C366 1.267 . S
O360 C349 1.185 . S
O360 Dy351 2.398 . S
O361 C349 1.355 . S
O361 Dy351 2.491 . S
O362 Dy351 2.403 1_455 S
O362 C357 1.254 . S
O363 Dy348 2.310 1_556 S
O363 Dy351 2.664 1_455 S
O363 C357 1.268 . S
O364 Dy348 2.351 1_656 S
O364 C367 1.249 . S
O365 Dy351 2.326 . S
O365 C367 1.267 . S
C366 O358 1.249 . S
C366 O359 1.267 . S
C367 O364 1.249 . S
C367 O365 1.267 . S
C1 C290 2.307 . S
C67 C309 1.220 . S
C346 C97 2.044 . S
C133 C356 2.075 . S
C326 C25 2.982 . S
C296 C37 1.292 . S
C367 C103 1.639 . S
C337 C109 1.686 . S
C31 C350 2.486 . S
C317 C73 1.930 . S
C139 C307 2.117 . S
C61 C329 1.440 . S
C289 C175 2.134 . S
C181 C310 1.177 . S
C247 C347 2.095 . S
C277 C357 2.027 . S
C145 C327 2.814 . S
C297 C211 1.266 . S
C366 C217 1.601 . S
C336 C283 1.686 . S
C169 C349 2.300 . S
C316 C241 1.947 . S
C306 C253 2.089 . S
C205 C330 1.568 . S
