# Generated by pormake.
# Topology zzz, (3,6)-cn, num edge types: 1
# Building blocks:
#     Node 0, Type 0, BuildingBlock: INOVEN_clean_linker_0, # of connection points: 3
#     Node 1, Type 0, BuildingBlock: INOVEN_clean_linker_0, # of connection points: 3
#     Node 2, Type 0, BuildingBlock: INOVEN_clean_linker_0, # of connection points: 3
#     Node 3, Type 0, BuildingBlock: INOVEN_clean_linker_0, # of connection points: 3
#     Node 4, Type 0, BuildingBlock: INOVEN_clean_linker_0, # of connection points: 3
#     Node 5, Type 0, BuildingBlock: INOVEN_clean_linker_0, # of connection points: 3
#     Node 6, Type 0, BuildingBlock: INOVEN_clean_linker_0, # of connection points: 3
#     Node 7, Type 0, BuildingBlock: INOVEN_clean_linker_0, # of connection points: 3
#     Node 8, Type 1, BuildingBlock: VOLQOD_clean_sbu_1, # of connection points: 6
#     Node 9, Type 1, BuildingBlock: VOLQOD_clean_sbu_1, # of connection points: 6
#     Node 10, Type 1, BuildingBlock: VOLQOD_clean_sbu_1, # of connection points: 6
#     Node 11, Type 1, BuildingBlock: VOLQOD_clean_sbu_1, # of connection points: 6
#     Edge 12, Type (0, 1), BuildingBlock: KIFKEQ_clean_linker_1, # of connection points: 2
#     Edge 13, Type (0, 1), BuildingBlock: KIFKEQ_clean_linker_1, # of connection points: 2
#     Edge 14, Type (0, 1), BuildingBlock: KIFKEQ_clean_linker_1, # of connection points: 2
#     Edge 15, Type (0, 1), BuildingBlock: KIFKEQ_clean_linker_1, # of connection points: 2
#     Edge 16, Type (0, 1), BuildingBlock: KIFKEQ_clean_linker_1, # of connection points: 2
#     Edge 17, Type (0, 1), BuildingBlock: KIFKEQ_clean_linker_1, # of connection points: 2
#     Edge 18, Type (0, 1), BuildingBlock: KIFKEQ_clean_linker_1, # of connection points: 2
#     Edge 19, Type (0, 1), BuildingBlock: KIFKEQ_clean_linker_1, # of connection points: 2
#     Edge 20, Type (0, 1), BuildingBlock: KIFKEQ_clean_linker_1, # of connection points: 2
#     Edge 21, Type (0, 1), BuildingBlock: KIFKEQ_clean_linker_1, # of connection points: 2
#     Edge 22, Type (0, 1), BuildingBlock: KIFKEQ_clean_linker_1, # of connection points: 2
#     Edge 23, Type (0, 1), BuildingBlock: KIFKEQ_clean_linker_1, # of connection points: 2
#     Edge 24, Type (0, 1), BuildingBlock: KIFKEQ_clean_linker_1, # of connection points: 2
#     Edge 25, Type (0, 1), BuildingBlock: KIFKEQ_clean_linker_1, # of connection points: 2
#     Edge 26, Type (0, 1), BuildingBlock: KIFKEQ_clean_linker_1, # of connection points: 2
#     Edge 27, Type (0, 1), BuildingBlock: KIFKEQ_clean_linker_1, # of connection points: 2
#     Edge 28, Type (0, 1), BuildingBlock: KIFKEQ_clean_linker_1, # of connection points: 2
#     Edge 29, Type (0, 1), BuildingBlock: KIFKEQ_clean_linker_1, # of connection points: 2
#     Edge 30, Type (0, 1), BuildingBlock: KIFKEQ_clean_linker_1, # of connection points: 2
#     Edge 31, Type (0, 1), BuildingBlock: KIFKEQ_clean_linker_1, # of connection points: 2
#     Edge 32, Type (0, 1), BuildingBlock: KIFKEQ_clean_linker_1, # of connection points: 2
#     Edge 33, Type (0, 1), BuildingBlock: KIFKEQ_clean_linker_1, # of connection points: 2
#     Edge 34, Type (0, 1), BuildingBlock: KIFKEQ_clean_linker_1, # of connection points: 2
#     Edge 35, Type (0, 1), BuildingBlock: KIFKEQ_clean_linker_1, # of connection points: 2
# Relax obj value: 0.197
# Max RMSD: 0.236
# Mean RMSD: 0.110
data_MOF--net-zzz--node1-VOLQOD_clean_sbu_1--node2-INOVEN_clean_linker_0--edge1-KIFKEQ_clean_linker_1
_symmetry_space_group_name_H-M    P1
_symmetry_Int_Tables_number       1
_symmetry_cell_setting            triclinic
loop_
_symmetry_equiv_pos_as_xyz
'x, y, z'
_cell_length_a     51.814239
_cell_length_b     51.511601
_cell_length_c     17.671923
_cell_angle_alpha  90.105507
_cell_angle_beta   89.732564
_cell_angle_gamma 90.886139
loop_
_atom_site_label
_atom_site_type_symbol
_atom_site_fract_x
_atom_site_fract_y
_atom_site_fract_z
_atom_type_partial_charge
H0 H 0.76328 0.51439 0.2424 0.0
H1 H 0.83975 0.48538 0.20857 0.0
H2 H 0.78141 0.46967 0.04267 0.0
N3 N 0.7434 0.49574 0.11313 0.0
N4 N 0.7362 0.48529 0.05284 0.0
C5 C 0.7769 0.50353 0.20862 0.0
C6 C 0.80236 0.5005 0.23384 0.0
C7 C 0.76909 0.49238 0.13943 0.0
C8 C 0.78712 0.47831 0.09605 0.0
C9 C 0.81262 0.47557 0.12061 0.0
C10 C 0.81993 0.48669 0.18964 0.0
H11 H 0.99409 0.75803 0.26727 0.0
H12 H 0.02655 0.83477 0.24502 0.0
H13 H 0.04307 0.77713 0.07657 0.0
N14 N 0.01332 0.73917 0.13818 0.0
N15 N 0.02168 0.73323 0.07418 0.0
C16 C 0.00647 0.7717 0.2372 0.0
C17 C 0.01 0.79704 0.26509 0.0
C18 C 0.01834 0.76433 0.16886 0.0
C19 C 0.03391 0.78259 0.12932 0.0
C20 C 0.03709 0.80811 0.15617 0.0
C21 C 0.02523 0.81493 0.22461 0.0
H22 H 0.74777 0.00323 0.21951 0.0
H23 H 0.67059 0.03162 0.20132 0.0
H24 H 0.72754 0.05319 0.03431 0.0
N25 N 0.76537 0.02672 0.08884 0.0
N26 N 0.7828 0.01226 0.11154 0.0
C27 C 0.73383 0.01507 0.19059 0.0
C28 C 0.70853 0.01687 0.2192 0.0
C29 C 0.74066 0.02844 0.12346 0.0
C30 C 0.72215 0.04328 0.08621 0.0
C31 C 0.69672 0.0446 0.11343 0.0
C32 C 0.69032 0.03156 0.18052 0.0
H33 H 0.52376 0.75255 0.2744 0.0
H34 H 0.49639 0.674 0.24795 0.0
H35 H 0.49579 0.72566 0.05767 0.0
N36 N 0.51397 0.76773 0.13326 0.0
N37 N 0.51661 0.77139 0.06381 0.0
C38 C 0.51542 0.73737 0.23927 0.0
C39 C 0.51075 0.71255 0.26942 0.0
C40 C 0.5097 0.74236 0.16289 0.0
C41 C 0.49968 0.72215 0.11691 0.0
C42 C 0.49508 0.69729 0.14714 0.0
C43 C 0.50008 0.69305 0.2237 0.0
H44 H 0.24539 0.50223 0.12811 0.0
H45 H 0.17146 0.53781 0.15199 0.0
H46 H 0.22996 0.55222 0.31871 0.0
N47 N 0.26576 0.52123 0.25563 0.0
N48 N 0.27255 0.52963 0.31894 0.0
C49 C 0.23271 0.51524 0.1583 0.0
C50 C 0.20774 0.51966 0.13116 0.0
C51 C 0.24097 0.52702 0.22607 0.0
C52 C 0.22393 0.54329 0.26603 0.0
C53 C 0.19878 0.54738 0.23982 0.0
C54 C 0.19111 0.53575 0.17171 0.0
H55 H 0.04519 0.2509 0.09838 0.0
H56 H 0.03098 0.17035 0.1486 0.0
H57 H 0.01756 0.22777 0.31971 0.0
N58 N 0.03263 0.26899 0.23548 0.0
N59 N 0.03438 0.27477 0.30391 0.0
C60 C 0.03929 0.23589 0.138 0.0
C61 C 0.03937 0.20971 0.11585 0.0
C62 C 0.03193 0.24256 0.21228 0.0
C63 C 0.02373 0.22286 0.26286 0.0
C64 C 0.02348 0.19679 0.2401 0.0
C65 C 0.03151 0.19048 0.16696 0.0
H66 H 0.25931 0.02281 0.10277 0.0
H67 H 0.33865 1.00099 0.12411 0.0
H68 H 0.28535 0.98275 0.30273 0.0
N69 N 0.24343 0.00339 0.23625 0.0
N70 N 0.23834 0.99344 0.29909 0.0
C71 C 0.27446 0.01361 0.13459 0.0
C72 C 0.29983 0.0134 0.10591 0.0
C73 C 0.2689 0.00226 0.20561 0.0
C74 C 0.28905 0.99082 0.2471 0.0
C75 C 0.3143 0.99077 0.21848 0.0
C76 C 0.31923 0.0015 0.14736 0.0
H77 H 0.47509 0.25097 0.07878 0.0
H78 H 0.49179 0.33225 0.11078 0.0
H79 H 0.50965 0.27863 0.28696 0.0
N80 N 0.49198 0.23552 0.21462 0.0
N81 N 0.50099 0.23069 0.27842 0.0
C82 C 0.48254 0.26667 0.11366 0.0
C83 C 0.48225 0.29237 0.08691 0.0
C84 C 0.49248 0.26141 0.18618 0.0
C85 C 0.50222 0.28217 0.23077 0.0
C86 C 0.50163 0.30772 0.20408 0.0
C87 C 0.49182 0.3125 0.13224 0.0
O88 O 0.0717 0.00487 0.65751 0.0
Zn89 Zn 0.04494 0.00719 0.74092 0.0
O90 O 0.0099 1.00086 0.70021 0.0
Zn91 Zn 0.9886 0.03098 0.71911 0.0
Zn92 Zn 0.01205 0.99476 0.59089 0.0
Zn93 Zn 0.99315 0.97102 0.74945 0.0
O94 O 0.95786 0.02295 0.78574 0.0
O95 O 0.96023 0.98057 0.80566 0.0
O96 O 0.04855 0.04342 0.78728 0.0
O97 O 0.00954 0.05925 0.76693 0.0
O98 O 0.97688 0.04723 0.62323 0.0
O99 O 0.99507 0.02356 0.53336 0.0
O100 O 0.99628 0.95998 0.56311 0.0
O101 O 0.05381 0.97968 0.81814 0.0
O102 O 0.98523 0.94246 0.6737 0.0
O103 O 0.01745 0.95603 0.82458 0.0
C104 C 0.0707 0.99965 0.58704 0.0
C105 C 0.94895 0.00215 0.81553 0.0
C106 C 0.98184 0.04302 0.55383 0.0
C107 C 0.03257 0.06199 0.7904 0.0
C108 C 0.98718 0.94106 0.60188 0.0
C109 C 0.0405 0.96088 0.84537 0.0
O110 O 0.0492 0.9949 0.55471 0.0
O111 O 0.49644 0.06173 0.62839 0.0
Zn112 Zn 0.497 0.0353 0.71264 0.0
O113 O 0.5065 1.00086 0.67236 0.0
Zn114 Zn 0.47921 0.97591 0.69804 0.0
Zn115 Zn 0.5109 0.0028 0.5622 0.0
Zn116 Zn 0.53861 0.98852 0.71656 0.0
O117 O 0.49167 0.94675 0.76333 0.0
O118 O 0.53379 0.95442 0.77297 0.0
O119 O 0.46105 0.03486 0.76162 0.0
O120 O 0.45034 0.99314 0.75271 0.0
O121 O 0.46276 0.96132 0.60476 0.0
O122 O 0.48388 0.98068 0.5104 0.0
O123 O 0.54657 0.99175 0.5294 0.0
O124 O 0.52397 0.04797 0.7879 0.0
O125 O 0.56665 0.98414 0.63759 0.0
O126 O 0.55169 0.01525 0.7894 0.0
C127 C 0.50058 0.06088 0.55728 0.0
C128 C 0.51381 0.94056 0.78778 0.0
C129 C 0.46611 0.96536 0.53439 0.0
C130 C 0.44504 0.01617 0.77283 0.0
C131 C 0.56681 0.98567 0.56565 0.0
C132 C 0.5445 0.03749 0.81182 0.0
O133 O 0.50641 0.03967 0.5246 0.0
O134 O 0.44214 0.49859 0.65028 0.0
Zn135 Zn 0.47076 0.49604 0.72803 0.0
O136 O 0.50475 0.50153 0.67789 0.0
Zn137 Zn 0.52579 0.4712 0.69273 0.0
Zn138 Zn 0.50033 0.50771 0.56966 0.0
Zn139 Zn 0.52346 0.53113 0.72086 0.0
O140 O 0.55661 0.4785 0.75894 0.0
O141 O 0.55559 0.52101 0.77811 0.0
O142 O 0.46752 0.45968 0.77483 0.0
O143 O 0.50479 0.44259 0.73923 0.0
O144 O 0.53765 0.45653 0.59449 0.0
O145 O 0.51834 0.48036 0.50771 0.0
O146 O 0.51305 0.54359 0.54056 0.0
O147 O 0.46418 0.52465 0.80567 0.0
O148 O 0.53228 0.55865 0.64385 0.0
O149 O 0.49983 0.54896 0.79128 0.0
C150 C 0.44184 0.5025 0.57903 0.0
C151 C 0.5661 0.4991 0.78833 0.0
C152 C 0.53253 0.46136 0.52572 0.0
C153 C 0.48262 0.44039 0.76988 0.0
C154 C 0.52554 0.56145 0.57526 0.0
C155 C 0.47768 0.54494 0.82044 0.0
O156 O 0.4627 0.50603 0.54179 0.0
O157 O 0.96271 0.5405 0.58134 0.0
Zn158 Zn 0.99783 0.54097 0.63369 0.0
O159 O 0.00678 0.50644 0.67382 0.0
Zn160 Zn 0.00957 0.50757 0.78453 0.0
Zn161 Zn 0.98014 0.48132 0.64476 0.0
Zn162 Zn 0.03954 0.49495 0.63192 0.0
O163 O 0.04481 0.49628 0.81985 0.0
O164 O 0.06616 0.48952 0.71273 0.0
O165 O 0.99652 0.567 0.71939 0.0
O166 O 0.00507 0.54426 0.82272 0.0
O167 O 0.98198 0.48499 0.83336 0.0
O168 O 0.96386 0.46482 0.73562 0.0
O169 O 0.99362 0.45319 0.57598 0.0
O170 O 0.0255 0.55432 0.56128 0.0
O171 O 0.03573 0.46166 0.57213 0.0
O172 O 0.05404 0.5224 0.564 0.0
C173 C 0.94626 0.52206 0.57265 0.0
C174 C 0.06545 0.49041 0.78467 0.0
C175 C 0.96561 0.46876 0.80648 0.0
C176 C 0.99997 0.56572 0.79068 0.0
C177 C 0.01628 0.44765 0.55361 0.0
C178 C 0.04685 0.54449 0.54094 0.0
O179 O 0.95087 0.49906 0.59418 0.0
H180 H 0.22684 0.97267 0.43073 0.0
H181 H 0.19432 0.01625 0.24742 0.0
H182 H 0.18577 0.97413 0.49891 0.0
H183 H 0.15303 0.01815 0.31594 0.0
H184 H 0.07644 0.99149 0.43414 0.0
H185 H 0.11656 0.99029 0.36105 0.0
H186 H 0.15999 0.00624 0.56429 0.0
H187 H 0.12013 0.00709 0.63743 0.0
C188 C 0.21075 0.98255 0.40528 0.0
C189 C 0.21368 0.99432 0.33443 0.0
C190 C 0.18732 0.98357 0.44434 0.0
C191 C 0.16614 0.99646 0.41326 0.0
C192 C 0.16892 0.00794 0.34126 0.0
C193 C 0.19254 0.00696 0.30213 0.0
C194 C 0.09455 0.99473 0.46329 0.0
C195 C 0.095 0.99923 0.54191 0.0
C196 C 0.11753 0.99422 0.42121 0.0
C197 C 0.14151 0.99804 0.45681 0.0
C198 C 0.1419 0.00281 0.53521 0.0
C199 C 0.11898 0.00341 0.57716 0.0
H200 H 0.52018 0.21981 0.41147 0.0
H201 H 0.481 0.18516 0.22099 0.0
H202 H 0.51951 0.17806 0.47666 0.0
H203 H 0.47987 0.14311 0.28655 0.0
H204 H 0.50899 0.06757 0.40461 0.0
H205 H 0.50845 0.10815 0.33306 0.0
H206 H 0.48773 0.14964 0.53646 0.0
H207 H 0.48864 0.10943 0.60801 0.0
C208 C 0.51143 0.2031 0.3838 0.0
C209 C 0.50067 0.20564 0.31184 0.0
C210 C 0.51085 0.17926 0.42114 0.0
C211 C 0.49938 0.15727 0.38722 0.0
C212 C 0.48894 0.15966 0.31408 0.0
C213 C 0.4895 0.1837 0.27664 0.0
C214 C 0.50423 0.08534 0.43403 0.0
C215 C 0.49908 0.0852 0.51235 0.0
C216 C 0.50378 0.10857 0.39284 0.0
C217 C 0.49827 0.13219 0.42911 0.0
C218 C 0.49252 0.13189 0.50697 0.0
C219 C 0.49293 0.10875 0.548 0.0
H220 H 0.31202 0.50102 0.26018 0.0
H221 H 0.2876 0.54595 0.45288 0.0
H222 H 0.35307 0.49229 0.3231 0.0
H223 H 0.32858 0.53769 0.51567 0.0
H224 H 0.39308 0.49794 0.63904 0.0
H225 H 0.35205 0.50252 0.57387 0.0
H226 H 0.39267 0.51525 0.3629 0.0
H227 H 0.43371 0.51025 0.42762 0.0
C228 C 0.3155 0.50906 0.31592 0.0
C229 C 0.29676 0.5242 0.35222 0.0
C230 C 0.339 0.50415 0.35188 0.0
C231 C 0.34407 0.51417 0.42467 0.0
C232 C 0.32518 0.52929 0.4603 0.0
C233 C 0.30184 0.53421 0.42434 0.0
C234 C 0.3933 0.50154 0.57868 0.0
C235 C 0.41677 0.50388 0.53881 0.0
C236 C 0.36976 0.50431 0.54134 0.0
C237 C 0.36907 0.50944 0.4632 0.0
C238 C 0.39249 0.51109 0.42295 0.0
C239 C 0.41604 0.50837 0.46028 0.0
H240 H 0.01676 0.31756 0.23083 0.0
H241 H 0.05013 0.29025 0.43841 0.0
H242 H 0.01342 0.36131 0.28549 0.0
H243 H 0.04741 0.33396 0.49259 0.0
H244 H 0.06107 0.42121 0.53262 0.0
H245 H 0.06694 0.38034 0.46469 0.0
H246 H 0.98654 0.37958 0.4022 0.0
H247 H 0.98042 0.4203 0.47116 0.0
C248 C 0.02375 0.32107 0.28763 0.0
C249 C 0.03392 0.30073 0.33075 0.0
C250 C 0.02172 0.34598 0.31896 0.0
C251 C 0.03027 0.35097 0.39306 0.0
C252 C 0.04095 0.3307 0.43508 0.0
C253 C 0.04246 0.30578 0.40438 0.0
C254 C 0.04468 0.41249 0.50385 0.0
C255 C 0.02023 0.42392 0.5077 0.0
C256 C 0.04805 0.38907 0.46518 0.0
C257 C 0.02719 0.37686 0.42834 0.0
C258 C 0.00297 0.38872 0.42972 0.0
C259 C 0.99946 0.41191 0.46959 0.0
H260 H 0.7971 0.03919 0.9854 0.0
H261 H 0.82277 0.98259 0.14705 0.0
H262 H 0.83763 0.03594 0.91698 0.0
H263 H 0.8641 0.97961 0.07884 0.0
H264 H 0.92229 0.96192 0.88421 0.0
H265 H 0.88252 0.96427 0.95877 0.0
H266 H 0.88244 0.04751 0.92987 0.0
H267 H 0.92163 0.04517 0.85441 0.0
C268 C 0.81154 0.02615 0.00677 0.0
C269 C 0.80682 0.01112 0.07203 0.0
C270 C 0.83491 0.02439 0.96763 0.0
C271 C 0.85427 0.00763 0.99252 0.0
C272 C 0.84954 0.99256 0.05772 0.0
C273 C 0.82603 0.99436 0.09708 0.0
C274 C 0.91378 0.98073 0.89381 0.0
C275 C 0.92511 0.00333 0.86262 0.0
C276 C 0.89107 0.98209 0.93703 0.0
C277 C 0.87915 0.00606 0.95 0.0
C278 C 0.89078 0.02866 0.91992 0.0
C279 C 0.91339 0.02731 0.87679 0.0
H280 H 0.53447 0.78187 0.92662 0.0
H281 H 0.50389 0.8176 0.12807 0.0
H282 H 0.53626 0.82434 0.86388 0.0
H283 H 0.50505 0.86 0.06495 0.0
H284 H 0.47623 0.91664 0.87203 0.0
H285 H 0.47936 0.87671 0.94558 0.0
H286 H 0.55946 0.87041 0.88135 0.0
H287 H 0.55657 0.91079 0.80875 0.0
C288 C 0.52845 0.79894 0.9575 0.0
C289 C 0.51927 0.79658 0.03188 0.0
C290 C 0.52952 0.82316 0.92191 0.0
C291 C 0.52081 0.8454 0.95968 0.0
C292 C 0.51185 0.84311 0.03465 0.0
C293 C 0.5113 0.81893 0.07081 0.0
C294 C 0.49456 0.90685 0.8739 0.0
C295 C 0.51614 0.91681 0.83433 0.0
C296 C 0.49638 0.8841 0.91644 0.0
C297 C 0.51964 0.87054 0.91915 0.0
C298 C 0.54128 0.88051 0.88001 0.0
C299 C 0.53963 0.90361 0.83871 0.0
H300 H 0.71985 0.46197 0.9298 0.0
H301 H 0.69631 0.51485 0.10535 0.0
H302 H 0.67776 0.46556 0.86966 0.0
H303 H 0.65373 0.51839 0.04575 0.0
H304 H 0.59321 0.53868 0.85813 0.0
H305 H 0.63367 0.53567 0.92804 0.0
H306 H 0.63308 0.45265 0.89352 0.0
H307 H 0.59308 0.4556 0.82301 0.0
C308 C 0.70544 0.47423 0.95555 0.0
C309 C 0.71116 0.48794 0.02187 0.0
C310 C 0.68133 0.47621 0.92156 0.0
C311 C 0.66228 0.4921 0.95324 0.0
C312 C 0.66805 0.50608 0.01982 0.0
C313 C 0.69231 0.50397 0.05415 0.0
C314 C 0.60166 0.51977 0.86572 0.0
C315 C 0.58998 0.49742 0.83416 0.0
C316 C 0.62476 0.51804 0.90623 0.0
C317 C 0.6367 0.49395 0.91583 0.0
C318 C 0.62462 0.47157 0.88605 0.0
C319 C 0.6016 0.47327 0.84577 0.0
H320 H 0.9952 0.69106 0.13113 0.0
H321 H 0.03753 0.72041 0.93815 0.0
H322 H 0.98734 0.64987 0.06415 0.0
H323 H 0.03003 0.67947 0.87132 0.0
H324 H 0.99106 0.61513 0.7417 0.0
H325 H 0.99414 0.65528 0.81404 0.0
H326 H 0.01152 0.61171 0.01552 0.0
H327 H 0.00809 0.57133 0.9434 0.0
C328 C 0.00285 0.68863 0.07449 0.0
C329 C 0.01697 0.70881 0.03915 0.0
C330 C 0.99843 0.66509 0.03624 0.0
C331 C 0.00786 0.66148 0.96211 0.0
C332 C 0.02208 0.68174 0.92769 0.0
C333 C 0.02656 0.70507 0.96592 0.0
C334 C 0.9953 0.614 0.80155 0.0
C335 C 0.99956 0.58994 0.83643 0.0
C336 C 0.9972 0.63707 0.84297 0.0
C337 C 0.00338 0.63672 0.92036 0.0
C338 C 0.00661 0.61264 0.95609 0.0
C339 C 0.00477 0.5895 0.91456 0.0
H340 H 0.97839 0.19369 0.32134 0.0
H341 H 0.04806 0.15206 0.27065 0.0
H342 H 0.96125 0.15565 0.38967 0.0
H343 H 0.03127 0.11443 0.33865 0.0
H344 H 0.99153 0.04295 0.40142 0.0
H345 H 0.99741 0.08123 0.32232 0.0
H346 H 0.96952 0.12961 0.50404 0.0
H347 H 0.96291 0.09138 0.58254 0.0
C348 C 0.99015 0.17656 0.32595 0.0
C349 C 0.01445 0.17566 0.29058 0.0
C350 C 0.9803 0.15477 0.36436 0.0
C351 C 0.99463 0.13183 0.36773 0.0
C352 C 0.01936 0.13148 0.33483 0.0
C353 C 0.02913 0.15311 0.2967 0.0
C354 C 0.98583 0.06161 0.42374 0.0
C355 C 0.9774 0.06415 0.499 0.0
C356 C 0.98944 0.08359 0.37866 0.0
C357 C 0.98477 0.10848 0.40803 0.0
C358 C 0.97349 0.11072 0.48004 0.0
C359 C 0.96973 0.08872 0.52505 0.0
H360 H 0.31777 0.94571 0.30165 0.0
H361 H 0.36045 0.01505 0.23789 0.0
H362 H 0.35574 0.93032 0.37057 0.0
H363 H 0.39787 0.99976 0.30468 0.0
H364 H 0.41843 0.94491 0.56846 0.0
H365 H 0.38114 0.94463 0.48534 0.0
H366 H 0.43044 0.96521 0.29643 0.0
H367 H 0.46774 0.96623 0.37978 0.0
C368 C 0.33519 0.95759 0.30239 0.0
C369 C 0.3363 0.98139 0.26357 0.0
C370 C 0.3569 0.94873 0.34116 0.0
C371 C 0.37997 0.9635 0.34112 0.0
C372 C 0.38073 0.98746 0.30344 0.0
C373 C 0.35919 0.99631 0.26552 0.0
C374 C 0.42152 0.94852 0.50871 0.0
C375 C 0.44592 0.95644 0.48109 0.0
C376 C 0.40008 0.94825 0.46103 0.0
C377 C 0.40283 0.95567 0.38505 0.0
C378 C 0.42774 0.9601 0.35542 0.0
C379 C 0.44911 0.96059 0.40309 0.0
H380 H 0.4756 0.35187 0.23113 0.0
H381 H 0.5472 0.31386 0.28113 0.0
H382 H 0.49038 0.39035 0.29837 0.0
H383 H 0.56236 0.35287 0.3488 0.0
H384 H 0.52359 0.46303 0.37317 0.0
H385 H 0.52161 0.42579 0.28822 0.0
H386 H 0.55208 0.37706 0.46419 0.0
H387 H 0.55494 0.4143 0.5482 0.0
C388 C 0.49463 0.35188 0.2563 0.0
C389 C 0.51034 0.33001 0.25069 0.0
C390 C 0.50324 0.37403 0.29411 0.0
C391 C 0.52781 0.37491 0.32734 0.0
C392 C 0.54339 0.35279 0.32334 0.0
C393 C 0.53469 0.33047 0.28525 0.0
C394 C 0.53067 0.44458 0.39297 0.0
C395 C 0.53872 0.44151 0.46814 0.0
C396 C 0.52934 0.42319 0.3445 0.0
C397 C 0.53586 0.39835 0.37048 0.0
C398 C 0.54675 0.39589 0.44261 0.0
C399 C 0.54829 0.41732 0.49091 0.0
H400 H 0.1601 0.57989 0.19511 0.0
H401 H 0.1924 0.54362 0.39293 0.0
H402 H 0.12149 0.59062 0.26799 0.0
H403 H 0.15446 0.55499 0.4655 0.0
H404 H 0.08586 0.57486 0.59095 0.0
H405 H 0.12429 0.58761 0.51819 0.0
H406 H 0.08839 0.55791 0.31482 0.0
H407 H 0.05003 0.54542 0.38798 0.0
C408 C 0.15929 0.57482 0.25453 0.0
C409 C 0.17913 0.56039 0.28772 0.0
C410 C 0.13724 0.58107 0.29619 0.0
C411 C 0.13484 0.57341 0.37211 0.0
C412 C 0.15581 0.56142 0.40726 0.0
C413 C 0.17768 0.5549 0.36549 0.0
C414 C 0.08586 0.57222 0.5301 0.0
C415 C 0.06516 0.5594 0.49448 0.0
C416 C 0.10784 0.57933 0.48862 0.0
C417 C 0.10944 0.57351 0.41105 0.0
C418 C 0.08763 0.56291 0.37434 0.0
C419 C 0.06568 0.55573 0.416 0.0
H420 H 0.06717 0.84949 0.20355 0.0
H421 H 0.03518 0.81388 0.00216 0.0
H422 H 0.07761 0.88864 0.13106 0.0
H423 H 0.0469 0.85235 0.92983 0.0
H424 H 0.07427 0.92337 0.80955 0.0
H425 H 0.08371 0.88508 0.88652 0.0
H426 H 0.04119 0.91815 0.07302 0.0
H427 H 0.03128 0.95594 0.99532 0.0
C428 C 0.06294 0.84969 0.1436 0.0
C429 C 0.04975 0.82869 0.10921 0.0
C430 C 0.06913 0.87203 0.10217 0.0
C431 C 0.06289 0.8735 0.02519 0.0
C432 C 0.05215 0.8516 0.98906 0.0
C433 C 0.04548 0.82947 0.03069 0.0
C434 C 0.06789 0.92279 0.86801 0.0
C435 C 0.05231 0.94248 0.89728 0.0
C436 C 0.07316 0.90093 0.91174 0.0
C437 C 0.0632 0.89875 0.98554 0.0
C438 C 0.04941 0.91953 0.01666 0.0
C439 C 0.04372 0.94111 0.97242 0.0
H440 H 0.69062 0.04302 0.95981 0.0
H441 H 0.6552 0.07252 0.16395 0.0
H442 H 0.65184 0.05271 0.88955 0.0
H443 H 0.61584 0.08129 0.09342 0.0
H444 H 0.54864 0.03262 0.96354 0.0
H445 H 0.58612 0.04562 0.03896 0.0
H446 H 0.61882 0.08538 0.84514 0.0
H447 H 0.58103 0.07248 0.7702 0.0
C448 C 0.67496 0.05242 0.98933 0.0
C449 C 0.6759 0.0565 0.06796 0.0
C450 C 0.65264 0.05796 0.9489 0.0
C451 C 0.63073 0.06746 0.9863 0.0
C452 C 0.63239 0.07369 0.06347 0.0
C453 C 0.65486 0.0685 0.10378 0.0
C454 C 0.5633 0.04518 0.93845 0.0
C455 C 0.56204 0.05186 0.86182 0.0
C456 C 0.58473 0.05264 0.98139 0.0
C457 C 0.60543 0.0664 0.94765 0.0
C458 C 0.60314 0.07476 0.87238 0.0
C459 C 0.58153 0.06756 0.82977 0.0
H460 H 0.5132 0.64807 0.15047 0.0
H461 H 0.45802 0.69601 0.03563 0.0
H462 H 0.49903 0.6108 0.07731 0.0
H463 H 0.44419 0.65829 0.95993 0.0
H464 H 0.46985 0.59404 0.77769 0.0
H465 H 0.46677 0.63164 0.86085 0.0
H466 H 0.4614 0.58065 0.05433 0.0
H467 H 0.46455 0.54286 0.9701 0.0
C468 C 0.49769 0.65058 0.11038 0.0
C469 C 0.48652 0.675 0.09953 0.0
C470 C 0.48946 0.62911 0.06869 0.0
C471 C 0.4701 0.63148 0.01407 0.0
C472 C 0.459 0.6559 0.0023 0.0
C473 C 0.46708 0.67749 0.04492 0.0
C474 C 0.46692 0.59092 0.83779 0.0
C475 C 0.46749 0.56576 0.86799 0.0
C476 C 0.46509 0.61242 0.88536 0.0
C477 C 0.46422 0.60907 0.96407 0.0
C478 C 0.46232 0.58372 0.99375 0.0
C479 C 0.46389 0.56213 0.94582 0.0
H480 H 0.8188 0.48009 0.96751 0.0
H481 H 0.85178 0.44365 0.1641 0.0
H482 H 0.85624 0.4679 0.89298 0.0
H483 H 0.88977 0.4322 0.08949 0.0
H484 H 0.9619 0.4725 0.96079 0.0
H485 H 0.9234 0.46419 0.03702 0.0
H486 H 0.88457 0.43202 0.8418 0.0
H487 H 0.92302 0.44018 0.76525 0.0
C488 C 0.83362 0.46875 0.99432 0.0
C489 C 0.83249 0.46326 0.0721 0.0
C490 C 0.85513 0.46178 0.95154 0.0
C491 C 0.87601 0.44934 0.98579 0.0
C492 C 0.87404 0.44204 0.06205 0.0
C493 C 0.85237 0.44873 0.10466 0.0
C494 C 0.94547 0.46293 0.93455 0.0
C495 C 0.94537 0.45757 0.85657 0.0
C496 C 0.92343 0.45803 0.97837 0.0
C497 C 0.90091 0.44782 0.94487 0.0
C498 C 0.90161 0.4402 0.86867 0.0
C499 C 0.9237 0.44486 0.825 0.0
H500 H 0.08532 0.19126 0.06777 0.0
H501 H 0.00743 0.20541 0.99679 0.0
H502 H 0.08984 0.15864 0.96825 0.0
H503 H 0.01112 0.17227 0.9 0.0
H504 H 0.01743 0.10869 0.7385 0.0
H505 H 0.02614 0.15132 0.79292 0.0
H506 H 0.07341 0.11591 0.96431 0.0
H507 H 0.06583 0.07345 0.90632 0.0
C508 C 0.06966 0.18831 0.0281 0.0
C509 C 0.04612 0.20093 0.0391 0.0
C510 C 0.07198 0.1692 0.97222 0.0
C511 C 0.05062 0.16214 0.92728 0.0
C512 C 0.02811 0.17708 0.93286 0.0
C513 C 0.02595 0.19635 0.9881 0.0
C514 C 0.03003 0.11015 0.78715 0.0
C515 C 0.04061 0.08778 0.81918 0.0
C516 C 0.03499 0.13459 0.81851 0.0
C517 C 0.05011 0.13721 0.88401 0.0
C518 C 0.0619 0.11487 0.9134 0.0
C519 C 0.0574 0.09042 0.88075 0.0
H520 H 0.32778 0.05758 0.08768 0.0
H521 H 0.29273 0.99427 0.96395 0.0
H522 H 0.36029 0.06288 0.9893 0.0
H523 H 0.32444 1.00029 0.86261 0.0
H524 H 0.40877 0.9799 0.81261 0.0
H525 H 0.3673 0.98621 0.87162 0.0
H526 H 0.38028 0.06931 0.86942 0.0
H527 H 0.42275 0.06282 0.81148 0.0
C528 C 0.32599 0.04599 0.03666 0.0
C529 C 0.30792 0.02538 0.03357 0.0
C530 C 0.34483 0.04885 0.98026 0.0
C531 C 0.34568 0.03132 0.91922 0.0
C532 C 0.32494 0.01352 0.91029 0.0
C533 C 0.30633 0.01042 0.96742 0.0
C534 C 0.40287 0.99961 0.82411 0.0
C535 C 0.41935 0.02084 0.80782 0.0
C536 C 0.37872 0.00328 0.85712 0.0
C537 C 0.37005 0.02833 0.87465 0.0
C538 C 0.38629 0.04972 0.85701 0.0
C539 C 0.41068 0.04601 0.82398 0.0
H540 H 0.51018 0.29499 0.95831 0.0
H541 H 0.4349 0.31013 0.05088 0.0
H542 H 0.50428 0.32849 0.86424 0.0
H543 H 0.42814 0.34321 0.95447 0.0
H544 H 0.4523 0.42852 0.89323 0.0
H545 H 0.44536 0.38572 0.94946 0.0
H546 H 0.48692 0.35082 0.76337 0.0
H547 H 0.49502 0.39371 0.71022 0.0
C548 C 0.49159 0.30428 0.95496 0.0
C549 C 0.47298 0.29994 0.01152 0.0
C550 C 0.48821 0.32383 0.90136 0.0
C551 C 0.46598 0.33928 0.90289 0.0
C552 C 0.44583 0.3323 0.95295 0.0
C553 C 0.44937 0.31286 0.00704 0.0
C554 C 0.45958 0.41162 0.86405 0.0
C555 C 0.47466 0.41447 0.79841 0.0
C556 C 0.45543 0.38696 0.89577 0.0
C557 C 0.46586 0.3646 0.8616 0.0
C558 C 0.47917 0.3675 0.79255 0.0
C559 C 0.48377 0.39212 0.76191 0.0
H560 H 0.18348 0.4729 0.12946 0.0
H561 H 0.20515 0.5376 0.98742 0.0
H562 H 0.1514 0.45884 0.03614 0.0
H563 H 0.17319 0.52369 0.89378 0.0
H564 H 0.07063 0.48279 0.93696 0.0
H565 H 0.11044 0.48258 0.00971 0.0
H566 H 0.15494 0.49006 0.80354 0.0
H567 H 0.11505 0.4902 0.7303 0.0
C568 C 0.18226 0.48329 0.07636 0.0
C569 C 0.19693 0.50607 0.06477 0.0
C570 C 0.16368 0.4755 0.02351 0.0
C571 C 0.15954 0.49037 0.95817 0.0
C572 C 0.17605 0.51171 0.94326 0.0
C573 C 0.19447 0.51962 0.9965 0.0
C574 C 0.08888 0.48393 0.90692 0.0
C575 C 0.08961 0.48674 0.82787 0.0
C576 C 0.11174 0.48359 0.94858 0.0
C577 C 0.13585 0.4863 0.91229 0.0
C578 C 0.13665 0.48802 0.83301 0.0
C579 C 0.11377 0.48803 0.79116 0.0
H580 H 0.96288 0.81866 0.27052 0.0
H581 H 0.02848 0.80009 0.408 0.0
H582 H 0.94926 0.85064 0.36454 0.0
H583 H 0.01501 0.83195 0.50228 0.0
H584 H 0.97661 0.93358 0.45234 0.0
H585 H 0.97393 0.8925 0.38442 0.0
H586 H 0.98245 0.85089 0.59448 0.0
H587 H 0.98496 0.89221 0.66301 0.0
C588 C 0.97354 0.82043 0.32294 0.0
C589 C 0.99652 0.80681 0.33276 0.0
C590 C 0.96597 0.83895 0.37623 0.0
C591 C 0.98128 0.84408 0.44018 0.0
C592 C 0.0027 0.82833 0.4539 0.0
C593 C 0.01037 0.80996 0.40024 0.0
C594 C 0.97734 0.9157 0.48435 0.0
C595 C 0.98122 0.91618 0.56295 0.0
C596 C 0.97559 0.89211 0.44549 0.0
C597 C 0.97798 0.86843 0.48415 0.0
C598 C 0.98058 0.86884 0.56327 0.0
C599 C 0.98193 0.89249 0.60242 0.0
H600 H 0.70697 0.03423 0.36388 0.0
H601 H 0.68622 0.96912 0.22227 0.0
H602 H 0.6754 0.01984 0.45863 0.0
H603 H 0.6546 0.95451 0.31684 0.0
H604 H 0.61613 0.98672 0.62163 0.0
H605 H 0.65656 0.98687 0.54945 0.0
H606 H 0.61346 0.97756 0.3424 0.0
H607 H 0.57324 0.97748 0.414 0.0
C608 C 0.6967 0.016 0.35521 0.0
C609 C 0.6992 0.00257 0.28648 0.0
C610 C 0.67844 0.00783 0.40912 0.0
C611 C 0.66218 0.98628 0.39458 0.0
C612 C 0.66663 0.97137 0.32919 0.0
C613 C 0.685 0.97945 0.2756 0.0
C614 C 0.61532 0.98421 0.56082 0.0
C615 C 0.59141 0.98229 0.52351 0.0
C616 C 0.63849 0.98437 0.51955 0.0
C617 C 0.63825 0.98217 0.44026 0.0
C618 C 0.61439 0.97891 0.40351 0.0
C619 C 0.59127 0.9791 0.44454 0.0
H620 H 0.47963 0.70372 0.38996 0.0
H621 H 0.55881 0.70042 0.31529 0.0
H622 H 0.48749 0.66902 0.48058 0.0
H623 H 0.56675 0.66576 0.40663 0.0
H624 H 0.55461 0.60337 0.62448 0.0
H625 H 0.55507 0.64757 0.57197 0.0
H626 H 0.50393 0.6221 0.39408 0.0
H627 H 0.50369 0.57816 0.44453 0.0
C628 C 0.49916 0.69688 0.39684 0.0
C629 C 0.51863 0.70471 0.34594 0.0
C630 C 0.50357 0.67683 0.44797 0.0
C631 C 0.52761 0.66465 0.44948 0.0
C632 C 0.54812 0.67503 0.40658 0.0
C633 C 0.54365 0.69505 0.35497 0.0
C634 C 0.54378 0.60713 0.57349 0.0
C635 C 0.52906 0.58719 0.53878 0.0
C636 C 0.544 0.63239 0.54391 0.0
C637 C 0.52917 0.6381 0.48013 0.0
C638 C 0.51522 0.6181 0.44409 0.0
C639 C 0.51529 0.59291 0.4727 0.0
H640 H 0.80938 0.47446 0.36349 0.0
H641 H 0.81989 0.54968 0.2611 0.0
H642 H 0.84104 0.48555 0.45898 0.0
H643 H 0.85107 0.56173 0.35923 0.0
H644 H 0.9354 0.54992 0.44523 0.0
H645 H 0.89424 0.5507 0.37847 0.0
H646 H 0.85837 0.50717 0.56102 0.0
H647 H 0.89991 0.50495 0.62411 0.0
C648 C 0.81744 0.494 0.36438 0.0
C649 C 0.81206 0.51132 0.30575 0.0
C650 C 0.8358 0.50045 0.41907 0.0
C651 C 0.84916 0.52449 0.41656 0.0
C652 C 0.84169 0.54284 0.3621 0.0
C653 C 0.82342 0.53621 0.30679 0.0
C654 C 0.91854 0.54093 0.47127 0.0
C655 C 0.92082 0.52698 0.53886 0.0
C656 C 0.89482 0.5415 0.43344 0.0
C657 C 0.87284 0.52858 0.46348 0.0
C658 C 0.8749 0.51663 0.5347 0.0
C659 C 0.89868 0.51547 0.57123 0.0
loop_
_geom_bond_atom_site_label_1
_geom_bond_atom_site_label_2
_geom_bond_distance
_geom_bond_site_symmetry_2
_ccdc_geom_bond_type
H0 C5 0.929 . S
H1 C10 0.931 . S
H2 C8 0.930 . S
N3 N4 1.234 1_554 S
N3 C7 1.453 . S
N4 N3 1.234 1_556 S
C5 H0 0.929 . S
C5 C6 1.373 . S
C5 C7 1.368 . S
C6 C5 1.373 . S
C6 C10 1.397 . S
C7 N3 1.453 . S
C7 C5 1.368 . S
C7 C8 1.373 1_554 S
C8 H2 0.930 . S
C8 C7 1.373 1_556 S
C8 C9 1.371 . S
C9 C8 1.371 . S
C9 C10 1.383 1_556 S
C10 H1 0.931 . S
C10 C6 1.397 . S
C10 C9 1.383 1_554 S
H11 C16 0.929 . S
H12 C21 0.932 . S
H13 C19 0.930 . S
N14 N15 1.234 1_455 S
N14 C18 1.453 . S
N15 N14 1.234 1_655 S
C16 H11 0.929 . S
C16 C17 1.373 . S
C16 C18 1.368 . S
C17 C16 1.373 . S
C17 C21 1.397 1_455 S
C18 N14 1.453 . S
C18 C16 1.368 . S
C18 C19 1.373 . S
C19 H13 0.930 . S
C19 C18 1.373 . S
C19 C20 1.371 . S
C20 C19 1.371 . S
C20 C21 1.382 1_455 S
C21 H12 0.932 . S
C21 C17 1.397 1_655 S
C21 C20 1.382 1_655 S
H22 C27 0.929 . S
H23 C32 0.938 . S
H24 C30 0.930 1_556 S
N25 N26 1.234 1_545 S
N25 C29 1.453 . S
N26 N25 1.234 1_565 S
C27 H22 0.929 . S
C27 C28 1.373 . S
C27 C29 1.368 . S
C28 C27 1.373 . S
C28 C32 1.395 1_545 S
C29 N25 1.453 . S
C29 C27 1.368 . S
C29 C30 1.373 . S
C30 H24 0.930 1_554 S
C30 C29 1.373 . S
C30 C31 1.375 . S
C31 C30 1.375 . S
C31 C32 1.380 1_545 S
C32 H23 0.938 . S
C32 C28 1.395 1_565 S
C32 C31 1.380 1_565 S
H33 C38 0.929 . S
H34 C43 0.931 . S
H35 C41 0.930 . S
N36 N37 1.234 1_554 S
N36 C40 1.453 . S
N37 N36 1.234 1_556 S
C38 H33 0.929 . S
C38 C39 1.373 . S
C38 C40 1.368 . S
C39 C38 1.373 . S
C39 C43 1.397 . S
C40 N36 1.453 . S
C40 C38 1.368 . S
C40 C41 1.373 1_554 S
C41 H35 0.930 . S
C41 C40 1.373 1_556 S
C41 C42 1.372 . S
C42 C41 1.372 . S
C42 C43 1.370 1_556 S
C43 H34 0.931 . S
C43 C39 1.397 . S
C43 C42 1.370 1_554 S
H44 C49 0.929 . S
H45 C54 0.931 . S
H46 C52 0.930 . S
N47 N48 1.234 . S
N47 C51 1.453 . S
N48 N47 1.234 . S
C49 H44 0.929 . S
C49 C50 1.373 . S
C49 C51 1.368 . S
C50 C49 1.373 . S
C50 C54 1.397 . S
C51 N47 1.453 . S
C51 C49 1.368 . S
C51 C52 1.373 . S
C52 H46 0.930 . S
C52 C51 1.373 . S
C52 C53 1.371 . S
C53 C52 1.371 . S
C53 C54 1.383 . S
C54 H45 0.931 . S
C54 C50 1.397 . S
C54 C53 1.383 . S
H55 C60 0.929 . S
H56 C65 0.931 . S
H57 C63 0.930 . S
N58 N59 1.234 . S
N58 C62 1.453 . S
N59 N58 1.234 . S
C60 H55 0.929 . S
C60 C61 1.373 . S
C60 C62 1.368 . S
C61 C60 1.373 . S
C61 C65 1.397 . S
C62 N58 1.453 . S
C62 C60 1.368 . S
C62 C63 1.373 . S
C63 H57 0.930 . S
C63 C62 1.373 . S
C63 C64 1.371 . S
C64 C63 1.371 . S
C64 C65 1.383 . S
C65 H56 0.931 . S
C65 C61 1.397 . S
C65 C64 1.383 . S
H66 C71 0.929 . S
H67 C76 0.931 . S
H68 C74 0.930 . S
N69 N70 1.234 . S
N69 C73 1.453 . S
N70 N69 1.234 . S
C71 H66 0.929 . S
C71 C72 1.373 . S
C71 C73 1.368 . S
C72 C71 1.373 . S
C72 C76 1.397 . S
C73 N69 1.453 . S
C73 C71 1.368 . S
C73 C74 1.373 . S
C74 H68 0.930 . S
C74 C73 1.373 . S
C74 C75 1.371 . S
C75 C74 1.371 . S
C75 C76 1.383 . S
C76 H67 0.931 . S
C76 C72 1.397 . S
C76 C75 1.383 . S
H77 C82 0.929 . S
H78 C87 0.931 . S
H79 C85 0.930 . S
N80 N81 1.234 . S
N80 C84 1.453 . S
N81 N80 1.234 . S
C82 H77 0.929 . S
C82 C83 1.373 . S
C82 C84 1.368 . S
C83 C82 1.373 . S
C83 C87 1.397 . S
C84 N80 1.453 . S
C84 C82 1.368 . S
C84 C85 1.373 . S
C85 H79 0.930 . S
C85 C84 1.373 . S
C85 C86 1.371 . S
C86 C85 1.371 . S
C86 C87 1.383 . S
C87 H78 0.931 . S
C87 C83 1.397 . S
C87 C86 1.383 . S
O88 Zn89 1.955 . S
O88 C104 1.225 1_545 S
Zn89 O88 1.955 . S
Zn89 O90 1.948 1_545 S
Zn89 O96 1.945 . S
Zn89 O101 1.892 1_545 S
O90 Zn89 1.948 1_565 S
O90 Zn91 1.901 1_465 S
O90 Zn92 1.952 . S
O90 Zn93 1.965 1_455 S
Zn91 O90 1.901 1_645 S
Zn91 O94 1.933 . S
Zn91 O97 1.941 1_655 S
Zn91 O98 1.965 . S
Zn92 O90 1.952 . S
Zn92 O99 1.938 1_565 S
Zn92 O100 1.906 . S
Zn92 O110 1.953 . S
Zn93 O90 1.965 1_655 S
Zn93 O95 1.932 . S
Zn93 O102 1.977 . S
Zn93 O103 1.910 1_655 S
O94 Zn91 1.933 . S
O94 C105 1.226 . S
O95 Zn93 1.932 . S
O95 C105 1.307 1_565 S
O96 Zn89 1.945 . S
O96 C107 1.253 . S
O97 Zn91 1.941 1_455 S
O97 C107 1.283 . S
O98 Zn91 1.965 . S
O98 C106 1.303 1_655 S
O99 Zn92 1.938 1_545 S
O99 C106 1.247 . S
O100 Zn92 1.906 . S
O100 C108 1.304 1_455 S
O101 Zn89 1.892 1_565 S
O101 C109 1.311 . S
O102 Zn93 1.977 . S
O102 C108 1.272 . S
O103 Zn93 1.910 1_455 S
O103 C109 1.231 . S
C104 O88 1.225 1_565 S
C104 O110 1.298 . S
C105 O94 1.226 . S
C105 O95 1.307 1_545 S
C106 O98 1.303 1_455 S
C106 O99 1.247 . S
C107 O96 1.253 . S
C107 O97 1.283 . S
C108 O100 1.304 1_655 S
C108 O102 1.272 . S
C109 O101 1.311 . S
C109 O103 1.231 . S
O110 Zn92 1.953 . S
O110 C104 1.298 . S
O111 Zn112 1.953 . S
O111 C127 1.225 . S
Zn112 O111 1.953 . S
Zn112 O113 1.949 . S
Zn112 O119 1.919 . S
Zn112 O124 1.924 . S
O113 Zn112 1.949 . S
O113 Zn114 1.923 1_545 S
O113 Zn115 1.950 . S
O113 Zn116 1.945 1_545 S
Zn114 O113 1.923 1_565 S
Zn114 O117 1.933 . S
Zn114 O120 1.941 . S
Zn114 O121 1.965 . S
Zn115 O113 1.950 . S
Zn115 O122 1.938 . S
Zn115 O123 1.906 . S
Zn115 O133 1.953 . S
Zn116 O113 1.945 1_565 S
Zn116 O118 1.932 . S
Zn116 O125 1.977 . S
Zn116 O126 1.910 1_565 S
O117 Zn114 1.933 . S
O117 C128 1.226 . S
O118 Zn116 1.932 . S
O118 C128 1.307 . S
O119 Zn112 1.919 . S
O119 C130 1.253 . S
O120 Zn114 1.941 . S
O120 C130 1.283 1_565 S
O121 Zn114 1.965 . S
O121 C129 1.303 1_565 S
O122 Zn115 1.938 . S
O122 C129 1.247 . S
O123 Zn115 1.906 . S
O123 C131 1.304 1_545 S
O124 Zn112 1.924 . S
O124 C132 1.311 . S
O125 Zn116 1.977 . S
O125 C131 1.272 . S
O126 Zn116 1.910 1_545 S
O126 C132 1.231 . S
C127 O111 1.225 . S
C127 O133 1.298 . S
C128 O117 1.226 . S
C128 O118 1.307 . S
C129 O121 1.303 1_545 S
C129 O122 1.247 . S
C130 O119 1.253 . S
C130 O120 1.283 1_545 S
C131 O123 1.304 1_565 S
C131 O125 1.272 . S
C132 O124 1.311 . S
C132 O126 1.231 . S
O133 Zn115 1.953 . S
O133 C127 1.298 . S
O134 Zn135 1.953 . S
O134 C150 1.225 . S
Zn135 O134 1.953 . S
Zn135 O136 1.949 . S
Zn135 O142 1.919 . S
Zn135 O147 1.924 . S
O136 Zn135 1.949 . S
O136 Zn137 1.923 . S
O136 Zn138 1.950 . S
O136 Zn139 1.945 . S
Zn137 O136 1.923 . S
Zn137 O140 1.933 . S
Zn137 O143 1.941 . S
Zn137 O144 1.965 . S
Zn138 O136 1.950 . S
Zn138 O145 1.938 . S
Zn138 O146 1.906 . S
Zn138 O156 1.953 . S
Zn139 O136 1.945 . S
Zn139 O141 1.932 . S
Zn139 O148 1.977 . S
Zn139 O149 1.910 . S
O140 Zn137 1.933 . S
O140 C151 1.226 . S
O141 Zn139 1.932 . S
O141 C151 1.307 . S
O142 Zn135 1.919 . S
O142 C153 1.253 . S
O143 Zn137 1.941 . S
O143 C153 1.283 . S
O144 Zn137 1.965 . S
O144 C152 1.303 . S
O145 Zn138 1.938 . S
O145 C152 1.247 . S
O146 Zn138 1.906 . S
O146 C154 1.304 . S
O147 Zn135 1.924 . S
O147 C155 1.311 . S
O148 Zn139 1.977 . S
O148 C154 1.272 . S
O149 Zn139 1.910 . S
O149 C155 1.231 . S
C150 O134 1.225 . S
C150 O156 1.298 . S
C151 O140 1.226 . S
C151 O141 1.307 . S
C152 O144 1.303 . S
C152 O145 1.247 . S
C153 O142 1.253 . S
C153 O143 1.283 . S
C154 O146 1.304 . S
C154 O148 1.272 . S
C155 O147 1.311 . S
C155 O149 1.231 . S
O156 Zn138 1.953 . S
O156 C150 1.298 . S
O157 Zn158 1.922 1_655 S
O157 C173 1.225 . S
Zn158 O157 1.922 1_455 S
Zn158 O159 1.949 . S
Zn158 O165 1.919 . S
Zn158 O170 1.957 . S
O159 Zn158 1.949 . S
O159 Zn160 1.918 1_455 S
O159 Zn161 1.929 1_455 S
O159 Zn162 1.973 . S
Zn160 O159 1.918 1_655 S
Zn160 O163 1.933 1_655 S
Zn160 O166 1.941 . S
Zn160 O167 1.965 . S
Zn161 O159 1.929 1_655 S
Zn161 O168 1.938 . S
Zn161 O169 1.906 . S
Zn161 O179 1.953 . S
Zn162 O159 1.973 . S
Zn162 O164 1.932 . S
Zn162 O171 1.977 . S
Zn162 O172 1.910 . S
O163 Zn160 1.933 1_455 S
O163 C174 1.226 . S
O164 Zn162 1.932 . S
O164 C174 1.307 . S
O165 Zn158 1.919 . S
O165 C176 1.253 . S
O166 Zn160 1.941 . S
O166 C176 1.285 1_655 S
O167 Zn160 1.965 . S
O167 C175 1.303 . S
O168 Zn161 1.938 . S
O168 C175 1.247 . S
O169 Zn161 1.906 . S
O169 C177 1.304 1_655 S
O170 Zn158 1.957 . S
O170 C178 1.311 . S
O171 Zn162 1.977 . S
O171 C177 1.272 . S
O172 Zn162 1.910 . S
O172 C178 1.231 . S
C173 O157 1.225 . S
C173 O179 1.298 . S
C174 O163 1.226 . S
C174 O164 1.307 . S
C175 O167 1.303 . S
C175 O168 1.247 . S
C176 O165 1.253 . S
C176 O166 1.285 1_455 S
C177 O169 1.304 1_455 S
C177 O171 1.272 . S
C178 O170 1.311 . S
C178 O172 1.231 . S
O179 Zn161 1.953 . S
O179 C173 1.298 . S
H180 C188 0.950 . S
H181 C193 0.950 . S
H182 C190 0.950 . S
H183 C192 0.950 . S
H184 C194 0.950 . S
H185 C196 0.950 . S
H186 C198 0.950 . S
H187 C199 0.950 . S
C188 H180 0.950 . S
C188 C189 1.386 1_565 S
C188 C190 1.391 . S
C189 C188 1.386 1_545 S
C189 C193 1.393 . S
C190 H182 0.950 . S
C190 C188 1.391 . S
C190 C191 1.400 1_565 S
C191 C190 1.400 1_545 S
C191 C192 1.398 . S
C191 C197 1.491 . S
C192 H183 0.950 . S
C192 C191 1.398 . S
C192 C193 1.391 . S
C193 H181 0.950 . S
C193 C189 1.393 . S
C193 C192 1.391 . S
C194 H184 0.950 . S
C194 C195 1.358 1_545 S
C194 C196 1.391 . S
C195 C194 1.358 1_565 S
C195 C199 1.419 . S
C196 H185 0.950 . S
C196 C194 1.391 . S
C196 C197 1.400 . S
C197 C191 1.491 . S
C197 C196 1.400 . S
C197 C198 1.398 1_545 S
C198 H186 0.950 . S
C198 C197 1.398 1_565 S
C198 C199 1.391 . S
C199 H187 0.950 . S
C199 C195 1.419 . S
C199 C198 1.391 . S
H200 C208 0.950 . S
H201 C213 0.950 . S
H202 C210 0.950 . S
H203 C212 0.950 . S
H204 C214 0.950 . S
H205 C216 0.950 . S
H206 C218 0.950 . S
H207 C219 0.950 . S
C208 H200 0.950 . S
C208 C209 1.386 . S
C208 C210 1.391 . S
C209 C208 1.386 . S
C209 C213 1.393 . S
C210 H202 0.950 . S
C210 C208 1.391 . S
C210 C211 1.400 . S
C211 C210 1.400 . S
C211 C212 1.398 . S
C211 C217 1.491 . S
C212 H203 0.950 . S
C212 C211 1.398 . S
C212 C213 1.391 . S
C213 H201 0.950 . S
C213 C209 1.393 . S
C213 C212 1.391 . S
C214 H204 0.950 . S
C214 C215 1.386 . S
C214 C216 1.391 . S
C215 C214 1.386 . S
C215 C219 1.393 . S
C216 H205 0.950 . S
C216 C214 1.391 . S
C216 C217 1.400 . S
C217 C211 1.491 . S
C217 C216 1.400 . S
C217 C218 1.398 . S
C218 H206 0.950 . S
C218 C217 1.398 . S
C218 C219 1.391 . S
C219 H207 0.950 . S
C219 C215 1.393 . S
C219 C218 1.391 . S
H220 C228 0.950 . S
H221 C233 0.950 . S
H222 C230 0.950 . S
H223 C232 0.950 . S
H224 C234 0.950 . S
H225 C236 0.950 . S
H226 C238 0.950 . S
H227 C239 0.950 . S
C228 H220 0.950 . S
C228 C229 1.386 . S
C228 C230 1.391 . S
C229 C228 1.386 . S
C229 C233 1.393 . S
C230 H222 0.950 . S
C230 C228 1.391 . S
C230 C231 1.400 . S
C231 C230 1.400 . S
C231 C232 1.398 . S
C231 C237 1.491 . S
C232 H223 0.950 . S
C232 C231 1.398 . S
C232 C233 1.391 . S
C233 H221 0.950 . S
C233 C229 1.393 . S
C233 C232 1.391 . S
C234 H224 0.950 . S
C234 C235 1.386 . S
C234 C236 1.391 . S
C235 C234 1.386 . S
C235 C239 1.393 . S
C236 H225 0.950 . S
C236 C234 1.391 . S
C236 C237 1.400 . S
C237 C231 1.491 . S
C237 C236 1.400 . S
C237 C238 1.398 . S
C238 H226 0.950 . S
C238 C237 1.398 . S
C238 C239 1.391 . S
C239 H227 0.950 . S
C239 C235 1.393 . S
C239 C238 1.391 . S
H240 C248 0.950 . S
H241 C253 0.950 . S
H242 C250 0.950 . S
H243 C252 0.950 . S
H244 C254 0.950 . S
H245 C256 0.950 . S
H246 C258 0.950 . S
H247 C259 0.958 . S
C248 H240 0.950 . S
C248 C249 1.386 . S
C248 C250 1.391 . S
C249 C248 1.386 . S
C249 C253 1.393 . S
C250 H242 0.950 . S
C250 C248 1.391 . S
C250 C251 1.400 . S
C251 C250 1.400 . S
C251 C252 1.398 . S
C251 C257 1.491 . S
C252 H243 0.950 . S
C252 C251 1.398 . S
C252 C253 1.391 . S
C253 H241 0.950 . S
C253 C249 1.393 . S
C253 C252 1.391 . S
C254 H244 0.950 . S
C254 C255 1.386 . S
C254 C256 1.391 . S
C255 C254 1.386 . S
C255 C259 1.393 . S
C256 H245 0.950 . S
C256 C254 1.391 . S
C256 C257 1.400 . S
C257 C251 1.491 . S
C257 C256 1.400 . S
C257 C258 1.398 . S
C258 H246 0.950 . S
C258 C257 1.398 . S
C258 C259 1.391 . S
C259 H247 0.958 . S
C259 C255 1.393 . S
C259 C258 1.391 . S
H260 C268 0.950 1_554 S
H261 C273 0.950 . S
H262 C270 0.950 . S
H263 C272 0.950 . S
H264 C274 0.950 . S
H265 C276 0.950 . S
H266 C278 0.950 . S
H267 C279 0.950 . S
C268 H260 0.950 1_556 S
C268 C269 1.361 1_545 S
C268 C270 1.391 . S
C269 C268 1.361 1_565 S
C269 C273 1.417 . S
C270 H262 0.950 . S
C270 C268 1.391 . S
C270 C271 1.417 . S
C271 C270 1.417 . S
C271 C272 1.381 1_545 S
C271 C277 1.491 . S
C272 H263 0.950 . S
C272 C271 1.381 1_565 S
C272 C273 1.391 . S
C273 H261 0.950 . S
C273 C269 1.417 . S
C273 C272 1.391 . S
C274 H264 0.950 . S
C274 C275 1.386 1_565 S
C274 C276 1.391 . S
C275 C274 1.386 1_545 S
C275 C279 1.393 . S
C276 H265 0.950 . S
C276 C274 1.391 . S
C276 C277 1.400 1_565 S
C277 C271 1.491 . S
C277 C276 1.400 1_545 S
C277 C278 1.398 . S
C278 H266 0.950 . S
C278 C277 1.398 . S
C278 C279 1.391 . S
C279 H267 0.950 . S
C279 C275 1.393 . S
C279 C278 1.391 . S
H280 C288 0.950 . S
H281 C293 0.950 . S
H282 C290 0.950 . S
H283 C292 0.950 . S
H284 C294 0.950 . S
H285 C296 0.950 . S
H286 C298 0.950 . S
H287 C299 0.950 . S
C288 H280 0.950 . S
C288 C289 1.386 . S
C288 C290 1.391 . S
C289 C288 1.386 . S
C289 C293 1.393 . S
C290 H282 0.950 . S
C290 C288 1.391 . S
C290 C291 1.400 . S
C291 C290 1.400 . S
C291 C292 1.398 . S
C291 C297 1.491 . S
C292 H283 0.950 . S
C292 C291 1.398 . S
C292 C293 1.391 . S
C293 H281 0.950 . S
C293 C289 1.393 . S
C293 C292 1.391 . S
C294 H284 0.950 . S
C294 C295 1.386 . S
C294 C296 1.391 . S
C295 C294 1.386 . S
C295 C299 1.393 . S
C296 H285 0.950 . S
C296 C294 1.391 . S
C296 C297 1.400 . S
C297 C291 1.491 . S
C297 C296 1.400 . S
C297 C298 1.398 . S
C298 H286 0.950 . S
C298 C297 1.398 . S
C298 C299 1.391 . S
C299 H287 0.950 . S
C299 C295 1.393 . S
C299 C298 1.391 . S
H300 C308 0.950 . S
H301 C313 0.950 1_554 S
H302 C310 0.950 . S
H303 C312 0.950 . S
H304 C314 0.950 . S
H305 C316 0.950 . S
H306 C318 0.950 . S
H307 C319 0.950 . S
C308 H300 0.950 . S
C308 C309 1.386 . S
C308 C310 1.391 . S
C309 C308 1.386 . S
C309 C313 1.393 . S
C310 H302 0.950 . S
C310 C308 1.391 . S
C310 C311 1.400 . S
C311 C310 1.400 . S
C311 C312 1.398 . S
C311 C317 1.491 . S
C312 H303 0.950 . S
C312 C311 1.398 . S
C312 C313 1.391 . S
C313 H301 0.950 1_556 S
C313 C309 1.393 . S
C313 C312 1.391 . S
C314 H304 0.950 . S
C314 C315 1.386 . S
C314 C316 1.391 . S
C315 C314 1.386 . S
C315 C319 1.393 . S
C316 H305 0.950 . S
C316 C314 1.391 . S
C316 C317 1.400 . S
C317 C311 1.491 . S
C317 C316 1.400 . S
C317 C318 1.398 . S
C318 H306 0.950 . S
C318 C317 1.398 . S
C318 C319 1.391 . S
C319 H307 0.950 . S
C319 C315 1.393 . S
C319 C318 1.391 . S
H320 C328 0.950 . S
H321 C333 0.950 . S
H322 C330 0.950 . S
H323 C332 0.950 . S
H324 C334 0.950 . S
H325 C336 0.950 . S
H326 C338 0.950 . S
H327 C339 0.950 . S
C328 H320 0.950 . S
C328 C329 1.386 . S
C328 C330 1.391 . S
C329 C328 1.386 . S
C329 C333 1.393 1_654 S
C330 H322 0.950 . S
C330 C328 1.391 . S
C330 C331 1.396 1_654 S
C331 C330 1.396 1_456 S
C331 C332 1.401 . S
C331 C337 1.492 . S
C332 H323 0.950 . S
C332 C331 1.401 . S
C332 C333 1.391 . S
C333 H321 0.950 . S
C333 C329 1.393 1_456 S
C333 C332 1.391 . S
C334 H324 0.950 . S
C334 C335 1.386 . S
C334 C336 1.391 . S
C335 C334 1.386 . S
C335 C339 1.393 1_455 S
C336 H325 0.950 . S
C336 C334 1.391 . S
C336 C337 1.400 . S
C337 C331 1.492 . S
C337 C336 1.400 . S
C337 C338 1.398 1_455 S
C338 H326 0.950 . S
C338 C337 1.398 1_655 S
C338 C339 1.391 . S
C339 H327 0.950 . S
C339 C335 1.393 1_655 S
C339 C338 1.391 . S
H340 C348 0.950 . S
H341 C353 0.950 . S
H342 C350 0.950 . S
H343 C352 0.950 . S
H344 C354 0.950 . S
H345 C356 0.950 . S
H346 C358 0.950 . S
H347 C359 0.950 . S
C348 H340 0.950 . S
C348 C349 1.386 . S
C348 C350 1.391 . S
C349 C348 1.386 . S
C349 C353 1.393 . S
C350 H342 0.950 . S
C350 C348 1.391 . S
C350 C351 1.400 . S
C351 C350 1.400 . S
C351 C352 1.398 . S
C351 C357 1.491 . S
C352 H343 0.950 . S
C352 C351 1.398 . S
C352 C353 1.391 . S
C353 H341 0.950 . S
C353 C349 1.393 . S
C353 C352 1.391 . S
C354 H344 0.950 . S
C354 C355 1.386 . S
C354 C356 1.391 . S
C355 C354 1.386 . S
C355 C359 1.393 . S
C356 H345 0.950 . S
C356 C354 1.391 . S
C356 C357 1.400 . S
C357 C351 1.491 . S
C357 C356 1.400 . S
C357 C358 1.398 . S
C358 H346 0.950 . S
C358 C357 1.398 . S
C358 C359 1.391 . S
C359 H347 0.950 . S
C359 C355 1.393 . S
C359 C358 1.391 . S
H360 C368 0.950 . S
H361 C373 0.950 . S
H362 C370 0.950 . S
H363 C372 0.950 . S
H364 C374 0.950 . S
H365 C376 0.950 . S
H366 C378 0.950 . S
H367 C379 0.950 . S
C368 H360 0.950 . S
C368 C369 1.386 1_565 S
C368 C370 1.391 . S
C369 C368 1.386 1_545 S
C369 C373 1.393 . S
C370 H362 0.950 . S
C370 C368 1.391 . S
C370 C371 1.400 1_565 S
C371 C370 1.400 1_545 S
C371 C372 1.398 . S
C371 C377 1.491 . S
C372 H363 0.950 . S
C372 C371 1.398 . S
C372 C373 1.391 . S
C373 H361 0.950 . S
C373 C369 1.393 . S
C373 C372 1.391 . S
C374 H364 0.950 . S
C374 C375 1.386 . S
C374 C376 1.391 . S
C375 C374 1.386 . S
C375 C379 1.393 1_545 S
C376 H365 0.950 . S
C376 C374 1.391 . S
C376 C377 1.400 . S
C377 C371 1.491 . S
C377 C376 1.400 . S
C377 C378 1.398 1_545 S
C378 H366 0.950 . S
C378 C377 1.398 1_565 S
C378 C379 1.391 . S
C379 H367 0.950 . S
C379 C375 1.393 1_565 S
C379 C378 1.391 . S
H380 C388 0.950 . S
H381 C393 0.950 . S
H382 C390 0.950 . S
H383 C392 0.950 . S
H384 C394 0.950 . S
H385 C396 0.950 . S
H386 C398 0.950 . S
H387 C399 0.950 . S
C388 H380 0.950 . S
C388 C389 1.386 . S
C388 C390 1.391 . S
C389 C388 1.386 . S
C389 C393 1.393 . S
C390 H382 0.950 . S
C390 C388 1.391 . S
C390 C391 1.400 . S
C391 C390 1.400 . S
C391 C392 1.398 . S
C391 C397 1.491 . S
C392 H383 0.950 . S
C392 C391 1.398 . S
C392 C393 1.391 . S
C393 H381 0.950 . S
C393 C389 1.393 . S
C393 C392 1.391 . S
C394 H384 0.950 . S
C394 C395 1.386 . S
C394 C396 1.391 . S
C395 C394 1.386 . S
C395 C399 1.393 . S
C396 H385 0.950 . S
C396 C394 1.391 . S
C396 C397 1.400 . S
C397 C391 1.491 . S
C397 C396 1.400 . S
C397 C398 1.398 . S
C398 H386 0.950 . S
C398 C397 1.398 . S
C398 C399 1.391 . S
C399 H387 0.950 . S
C399 C395 1.393 . S
C399 C398 1.391 . S
H400 C408 0.950 . S
H401 C413 0.950 . S
H402 C410 0.950 . S
H403 C412 0.950 . S
H404 C414 0.950 . S
H405 C416 0.950 . S
H406 C418 0.950 . S
H407 C419 0.950 . S
C408 H400 0.950 . S
C408 C409 1.386 . S
C408 C410 1.391 . S
C409 C408 1.386 . S
C409 C413 1.393 . S
C410 H402 0.950 . S
C410 C408 1.391 . S
C410 C411 1.400 . S
C411 C410 1.400 . S
C411 C412 1.398 . S
C411 C417 1.491 . S
C412 H403 0.950 . S
C412 C411 1.398 . S
C412 C413 1.391 . S
C413 H401 0.950 . S
C413 C409 1.393 . S
C413 C412 1.391 . S
C414 H404 0.950 . S
C414 C415 1.386 . S
C414 C416 1.391 . S
C415 C414 1.386 . S
C415 C419 1.393 . S
C416 H405 0.950 . S
C416 C414 1.391 . S
C416 C417 1.400 . S
C417 C411 1.491 . S
C417 C416 1.400 . S
C417 C418 1.398 . S
C418 H406 0.950 . S
C418 C417 1.398 . S
C418 C419 1.391 . S
C419 H407 0.950 . S
C419 C415 1.393 . S
C419 C418 1.391 . S
H420 C428 0.950 . S
H421 C433 0.950 . S
H422 C430 0.950 . S
H423 C432 0.950 . S
H424 C434 0.950 . S
H425 C436 0.950 . S
H426 C438 0.950 1_554 S
H427 C439 0.950 . S
C428 H420 0.950 . S
C428 C429 1.386 . S
C428 C430 1.391 . S
C429 C428 1.386 . S
C429 C433 1.393 1_454 S
C430 H422 0.950 . S
C430 C428 1.391 . S
C430 C431 1.400 1_554 S
C431 C430 1.400 1_556 S
C431 C432 1.398 . S
C431 C437 1.491 . S
C432 H423 0.950 . S
C432 C431 1.398 . S
C432 C433 1.391 1_455 S
C433 H421 0.950 . S
C433 C429 1.393 1_656 S
C433 C432 1.391 1_655 S
C434 H424 0.950 . S
C434 C435 1.386 . S
C434 C436 1.391 . S
C435 C434 1.386 . S
C435 C439 1.393 . S
C436 H425 0.950 . S
C436 C434 1.391 . S
C436 C437 1.400 . S
C437 C431 1.491 . S
C437 C436 1.400 . S
C437 C438 1.398 . S
C438 H426 0.950 1_556 S
C438 C437 1.398 . S
C438 C439 1.391 . S
C439 H427 0.950 . S
C439 C435 1.393 . S
C439 C438 1.391 . S
H440 C448 0.950 . S
H441 C453 0.950 . S
H442 C450 0.954 . S
H443 C452 0.945 1_554 S
H444 C454 0.950 . S
H445 C456 0.950 . S
H446 C458 0.950 . S
H447 C459 0.950 . S
C448 H440 0.950 . S
C448 C449 1.391 . S
C448 C450 1.391 1_565 S
C449 C448 1.391 . S
C449 C453 1.378 1_566 S
C450 H442 0.954 . S
C450 C448 1.391 1_545 S
C450 C451 1.400 . S
C451 C450 1.400 . S
C451 C452 1.407 . S
C451 C457 1.491 . S
C452 H443 0.945 1_556 S
C452 C451 1.407 . S
C452 C453 1.387 1_556 S
C453 H441 0.950 . S
C453 C449 1.378 1_544 S
C453 C452 1.387 1_554 S
C454 H444 0.950 . S
C454 C455 1.386 . S
C454 C456 1.391 . S
C455 C454 1.386 . S
C455 C459 1.393 . S
C456 H445 0.950 . S
C456 C454 1.391 . S
C456 C457 1.400 . S
C457 C451 1.491 . S
C457 C456 1.400 . S
C457 C458 1.398 . S
C458 H446 0.950 . S
C458 C457 1.398 . S
C458 C459 1.391 . S
C459 H447 0.950 . S
C459 C455 1.393 . S
C459 C458 1.391 . S
H460 C468 0.950 . S
H461 C473 0.950 . S
H462 C470 0.950 . S
H463 C472 0.950 . S
H464 C474 0.950 . S
H465 C476 0.950 . S
H466 C478 0.950 . S
H467 C479 0.950 . S
C468 H460 0.950 . S
C468 C469 1.386 . S
C468 C470 1.391 . S
C469 C468 1.386 . S
C469 C473 1.393 . S
C470 H462 0.950 . S
C470 C468 1.391 . S
C470 C471 1.400 . S
C471 C470 1.400 . S
C471 C472 1.398 . S
C471 C477 1.491 . S
C472 H463 0.950 . S
C472 C471 1.398 . S
C472 C473 1.391 . S
C473 H461 0.950 . S
C473 C469 1.393 . S
C473 C472 1.391 . S
C474 H464 0.950 . S
C474 C475 1.386 . S
C474 C476 1.391 . S
C475 C474 1.386 . S
C475 C479 1.393 . S
C476 H465 0.950 . S
C476 C474 1.391 . S
C476 C477 1.400 . S
C477 C471 1.491 . S
C477 C476 1.400 . S
C477 C478 1.398 . S
C478 H466 0.950 . S
C478 C477 1.398 . S
C478 C479 1.391 . S
C479 H467 0.950 . S
C479 C475 1.393 . S
C479 C478 1.391 . S
H480 C488 0.950 . S
H481 C493 0.950 1_554 S
H482 C490 0.950 . S
H483 C492 0.950 . S
H484 C494 0.950 . S
H485 C496 0.950 . S
H486 C498 0.950 . S
H487 C499 0.950 . S
C488 H480 0.950 . S
C488 C489 1.386 . S
C488 C490 1.391 . S
C489 C488 1.386 . S
C489 C493 1.393 . S
C490 H482 0.950 . S
C490 C488 1.391 . S
C490 C491 1.400 . S
C491 C490 1.400 . S
C491 C492 1.398 . S
C491 C497 1.491 . S
C492 H483 0.950 . S
C492 C491 1.398 . S
C492 C493 1.391 . S
C493 H481 0.950 1_556 S
C493 C489 1.393 . S
C493 C492 1.391 . S
C494 H484 0.950 . S
C494 C495 1.386 . S
C494 C496 1.391 . S
C495 C494 1.386 . S
C495 C499 1.393 . S
C496 H485 0.950 . S
C496 C494 1.391 . S
C496 C497 1.400 . S
C497 C491 1.491 . S
C497 C496 1.400 . S
C497 C498 1.398 . S
C498 H486 0.950 . S
C498 C497 1.398 . S
C498 C499 1.391 . S
C499 H487 0.950 . S
C499 C495 1.393 . S
C499 C498 1.391 . S
H500 C508 0.950 . S
H501 C513 0.950 . S
H502 C510 0.950 . S
H503 C512 0.950 1_655 S
H504 C514 0.950 1_655 S
H505 C516 0.950 1_655 S
H506 C518 0.950 . S
H507 C519 0.950 . S
C508 H500 0.950 . S
C508 C509 1.386 . S
C508 C510 1.391 . S
C509 C508 1.386 . S
C509 C513 1.393 . S
C510 H502 0.950 . S
C510 C508 1.391 . S
C510 C511 1.400 . S
C511 C510 1.400 . S
C511 C512 1.398 . S
C511 C517 1.491 . S
C512 H503 0.950 1_455 S
C512 C511 1.398 . S
C512 C513 1.391 . S
C513 H501 0.950 . S
C513 C509 1.393 . S
C513 C512 1.391 . S
C514 H504 0.950 1_455 S
C514 C515 1.385 . S
C514 C516 1.391 1_556 S
C515 C514 1.385 . S
C515 C519 1.393 . S
C516 H505 0.950 1_455 S
C516 C514 1.391 1_554 S
C516 C517 1.400 . S
C517 C511 1.491 . S
C517 C516 1.400 . S
C517 C518 1.398 . S
C518 H506 0.950 . S
C518 C517 1.398 . S
C518 C519 1.391 1_554 S
C519 H507 0.950 . S
C519 C515 1.393 . S
C519 C518 1.391 1_556 S
H520 C528 0.950 . S
H521 C533 0.950 . S
H522 C530 0.950 1_556 S
H523 C532 0.950 . S
H524 C534 0.950 . S
H525 C536 0.950 . S
H526 C538 0.950 . S
H527 C539 0.950 . S
C528 H520 0.950 . S
C528 C529 1.386 . S
C528 C530 1.391 . S
C529 C528 1.386 . S
C529 C533 1.393 1_545 S
C530 H522 0.950 1_554 S
C530 C528 1.391 . S
C530 C531 1.400 . S
C531 C530 1.400 . S
C531 C532 1.398 1_545 S
C531 C537 1.491 1_554 S
C532 H523 0.950 . S
C532 C531 1.398 1_565 S
C532 C533 1.391 . S
C533 H521 0.950 . S
C533 C529 1.393 1_565 S
C533 C532 1.391 . S
C534 H524 0.950 . S
C534 C535 1.386 1_565 S
C534 C536 1.391 1_556 S
C535 C534 1.386 1_545 S
C535 C539 1.393 . S
C536 H525 0.950 . S
C536 C534 1.391 1_554 S
C536 C537 1.400 1_564 S
C537 C531 1.491 1_556 S
C537 C536 1.400 1_546 S
C537 C538 1.398 . S
C538 H526 0.950 . S
C538 C537 1.398 . S
C538 C539 1.391 . S
C539 H527 0.950 . S
C539 C535 1.393 . S
C539 C538 1.391 . S
H540 C548 0.950 . S
H541 C553 0.950 . S
H542 C550 0.950 . S
H543 C552 0.950 . S
H544 C554 0.950 . S
H545 C556 0.950 . S
H546 C558 0.950 . S
H547 C559 0.950 . S
C548 H540 0.950 . S
C548 C549 1.386 . S
C548 C550 1.391 . S
C549 C548 1.386 . S
C549 C553 1.393 . S
C550 H542 0.950 . S
C550 C548 1.391 . S
C550 C551 1.400 . S
C551 C550 1.400 . S
C551 C552 1.398 . S
C551 C557 1.491 1_554 S
C552 H543 0.950 . S
C552 C551 1.398 . S
C552 C553 1.391 . S
C553 H541 0.950 . S
C553 C549 1.393 . S
C553 C552 1.391 . S
C554 H544 0.950 . S
C554 C555 1.386 . S
C554 C556 1.391 . S
C555 C554 1.386 . S
C555 C559 1.393 . S
C556 H545 0.950 . S
C556 C554 1.391 . S
C556 C557 1.400 . S
C557 C551 1.491 1_556 S
C557 C556 1.400 . S
C557 C558 1.398 . S
C558 H546 0.950 . S
C558 C557 1.398 . S
C558 C559 1.391 . S
C559 H547 0.950 . S
C559 C555 1.393 . S
C559 C558 1.391 . S
H560 C568 0.950 . S
H561 C573 0.950 . S
H562 C570 0.950 1_556 S
H563 C572 0.950 . S
H564 C574 0.950 . S
H565 C576 0.950 1_554 S
H566 C578 0.950 . S
H567 C579 0.950 . S
C568 H560 0.950 . S
C568 C569 1.386 . S
C568 C570 1.391 . S
C569 C568 1.386 . S
C569 C573 1.393 . S
C570 H562 0.950 1_554 S
C570 C568 1.391 . S
C570 C571 1.400 . S
C571 C570 1.400 . S
C571 C572 1.398 . S
C571 C577 1.491 1_554 S
C572 H563 0.950 . S
C572 C571 1.398 . S
C572 C573 1.391 . S
C573 H561 0.950 . S
C573 C569 1.393 . S
C573 C572 1.391 . S
C574 H564 0.950 . S
C574 C575 1.386 . S
C574 C576 1.391 . S
C575 C574 1.386 . S
C575 C579 1.393 . S
C576 H565 0.950 1_556 S
C576 C574 1.391 . S
C576 C577 1.400 . S
C577 C571 1.491 1_556 S
C577 C576 1.400 . S
C577 C578 1.398 . S
C578 H566 0.950 . S
C578 C577 1.398 . S
C578 C579 1.391 . S
C579 H567 0.950 . S
C579 C575 1.393 . S
C579 C578 1.391 . S
H580 C588 0.950 . S
H581 C593 0.950 . S
H582 C590 0.950 . S
H583 C592 0.950 . S
H584 C594 0.950 . S
H585 C596 0.948 1_455 S
H586 C598 0.950 . S
H587 C599 0.950 . S
C588 H580 0.950 . S
C588 C589 1.387 1_655 S
C588 C590 1.391 . S
C589 C588 1.387 1_455 S
C589 C593 1.392 . S
C590 H582 0.950 . S
C590 C588 1.391 . S
C590 C591 1.400 . S
C591 C590 1.400 . S
C591 C592 1.398 1_655 S
C591 C597 1.491 . S
C592 H583 0.950 . S
C592 C591 1.398 1_455 S
C592 C593 1.391 . S
C593 H581 0.950 . S
C593 C589 1.392 . S
C593 C592 1.391 . S
C594 H584 0.950 . S
C594 C595 1.386 . S
C594 C596 1.391 . S
C595 C594 1.386 . S
C595 C599 1.393 . S
C596 H585 0.948 1_655 S
C596 C594 1.391 . S
C596 C597 1.400 . S
C597 C591 1.491 . S
C597 C596 1.400 . S
C597 C598 1.398 . S
C598 H586 0.950 . S
C598 C597 1.398 . S
C598 C599 1.391 . S
C599 H587 0.950 . S
C599 C595 1.393 . S
C599 C598 1.391 . S
H600 C608 0.950 . S
H601 C613 0.949 1_545 S
H602 C610 0.950 . S
H603 C612 0.950 . S
H604 C614 0.950 . S
H605 C616 0.950 . S
H606 C618 0.950 . S
H607 C619 0.950 . S
C608 H600 0.950 . S
C608 C609 1.386 . S
C608 C610 1.391 . S
C609 C608 1.386 . S
C609 C613 1.393 . S
C610 H602 0.950 . S
C610 C608 1.391 . S
C610 C611 1.400 . S
C611 C610 1.400 . S
C611 C612 1.398 . S
C611 C617 1.491 . S
C612 H603 0.950 . S
C612 C611 1.398 . S
C612 C613 1.391 . S
C613 H601 0.949 1_565 S
C613 C609 1.393 . S
C613 C612 1.391 . S
C614 H604 0.950 . S
C614 C615 1.386 . S
C614 C616 1.391 . S
C615 C614 1.386 . S
C615 C619 1.393 . S
C616 H605 0.950 . S
C616 C614 1.391 . S
C616 C617 1.400 . S
C617 C611 1.491 . S
C617 C616 1.400 . S
C617 C618 1.398 . S
C618 H606 0.950 . S
C618 C617 1.398 . S
C618 C619 1.391 . S
C619 H607 0.950 . S
C619 C615 1.393 . S
C619 C618 1.391 . S
H620 C628 0.950 . S
H621 C633 0.950 . S
H622 C630 0.950 . S
H623 C632 0.950 . S
H624 C634 0.950 . S
H625 C636 0.950 . S
H626 C638 0.950 . S
H627 C639 0.950 . S
C628 H620 0.950 . S
C628 C629 1.386 . S
C628 C630 1.391 . S
C629 C628 1.386 . S
C629 C633 1.393 . S
C630 H622 0.950 . S
C630 C628 1.391 . S
C630 C631 1.400 . S
C631 C630 1.400 . S
C631 C632 1.398 . S
C631 C637 1.491 . S
C632 H623 0.950 . S
C632 C631 1.398 . S
C632 C633 1.391 . S
C633 H621 0.950 . S
C633 C629 1.393 . S
C633 C632 1.391 . S
C634 H624 0.950 . S
C634 C635 1.386 . S
C634 C636 1.391 . S
C635 C634 1.386 . S
C635 C639 1.393 . S
C636 H625 0.950 . S
C636 C634 1.391 . S
C636 C637 1.400 . S
C637 C631 1.491 . S
C637 C636 1.400 . S
C637 C638 1.398 . S
C638 H626 0.950 . S
C638 C637 1.398 . S
C638 C639 1.391 . S
C639 H627 0.950 . S
C639 C635 1.393 . S
C639 C638 1.391 . S
H640 C648 0.950 . S
H641 C653 0.950 . S
H642 C650 0.950 . S
H643 C652 0.950 . S
H644 C654 0.950 . S
H645 C656 0.950 . S
H646 C658 0.950 . S
H647 C659 0.950 . S
C648 H640 0.950 . S
C648 C649 1.386 . S
C648 C650 1.391 . S
C649 C648 1.386 . S
C649 C653 1.393 . S
C650 H642 0.950 . S
C650 C648 1.391 . S
C650 C651 1.400 . S
C651 C650 1.400 . S
C651 C652 1.398 . S
C651 C657 1.491 . S
C652 H643 0.950 . S
C652 C651 1.398 . S
C652 C653 1.391 . S
C653 H641 0.950 . S
C653 C649 1.393 . S
C653 C652 1.391 . S
C654 H644 0.950 . S
C654 C655 1.386 . S
C654 C656 1.391 . S
C655 C654 1.386 . S
C655 C659 1.393 . S
C656 H645 0.950 . S
C656 C654 1.391 . S
C656 C657 1.400 . S
C657 C651 1.491 . S
C657 C656 1.400 . S
C657 C658 1.398 . S
C658 H646 0.950 . S
C658 C657 1.398 . S
C658 C659 1.391 . S
C659 H647 0.950 . S
C659 C655 1.393 . S
C659 C658 1.391 . S
C189 N70 1.533 . S
C195 C104 1.571 . S
C215 C127 1.620 . S
C209 N81 1.584 . S
C235 C150 1.624 . S
C229 N48 1.587 . S
C255 C177 1.498 . S
C249 N59 1.539 . S
C275 C105 1.561 . S
C269 N26 1.536 1_556 S
C289 N37 1.455 . S
C295 C128 1.493 . S
C309 N4 1.460 . S
C315 C151 1.484 . S
C329 N15 1.553 . S
C335 C176 1.584 . S
C355 C106 0.404 . S
C349 C64 0.466 . S
C375 C129 0.390 . S
C369 C75 0.413 . S
C395 C152 0.445 . S
C389 C86 0.483 . S
C409 C53 0.576 . S
C415 C178 0.609 . S
C429 C20 0.675 . S
C435 C109 0.659 . S
C455 C132 0.718 . S
C449 C31 0.661 1_566 S
C475 C155 0.654 . S
C469 C42 0.609 . S
C489 C9 0.453 . S
C495 C175 0.390 . S
C509 C61 1.566 . S
C515 C107 1.542 . S
C529 C72 1.516 . S
C535 C130 1.521 . S
C555 C153 1.550 . S
C549 C83 1.554 . S
C575 C174 1.373 . S
C569 C50 1.328 . S
C589 C17 1.604 . S
C595 C108 1.555 . S
C615 C131 1.478 . S
C609 C28 1.561 1_565 S
C635 C154 1.461 . S
C629 C39 1.532 . S
C649 C6 1.676 . S
C655 C173 1.723 . S
