# Generated by pormake.
# Topology zzz, (3,6)-cn, num edge types: 1
# Building blocks:
#     Node 0, Type 0, BuildingBlock: VETTIZ_charged_linker_0, # of connection points: 3
#     Node 1, Type 0, BuildingBlock: VETTIZ_charged_linker_0, # of connection points: 3
#     Node 2, Type 0, BuildingBlock: VETTIZ_charged_linker_0, # of connection points: 3
#     Node 3, Type 0, BuildingBlock: VETTIZ_charged_linker_0, # of connection points: 3
#     Node 4, Type 0, BuildingBlock: VETTIZ_charged_linker_0, # of connection points: 3
#     Node 5, Type 0, BuildingBlock: VETTIZ_charged_linker_0, # of connection points: 3
#     Node 6, Type 0, BuildingBlock: VETTIZ_charged_linker_0, # of connection points: 3
#     Node 7, Type 0, BuildingBlock: VETTIZ_charged_linker_0, # of connection points: 3
#     Node 8, Type 1, BuildingBlock: FUNLAD_clean_sbu_0, # of connection points: 6
#     Node 9, Type 1, BuildingBlock: FUNLAD_clean_sbu_0, # of connection points: 6
#     Node 10, Type 1, BuildingBlock: FUNLAD_clean_sbu_0, # of connection points: 6
#     Node 11, Type 1, BuildingBlock: FUNLAD_clean_sbu_0, # of connection points: 6
#     Edge 12, Type (0, 1), None
#     Edge 13, Type (0, 1), None
#     Edge 14, Type (0, 1), None
#     Edge 15, Type (0, 1), None
#     Edge 16, Type (0, 1), None
#     Edge 17, Type (0, 1), None
#     Edge 18, Type (0, 1), None
#     Edge 19, Type (0, 1), None
#     Edge 20, Type (0, 1), None
#     Edge 21, Type (0, 1), None
#     Edge 22, Type (0, 1), None
#     Edge 23, Type (0, 1), None
#     Edge 24, Type (0, 1), None
#     Edge 25, Type (0, 1), None
#     Edge 26, Type (0, 1), None
#     Edge 27, Type (0, 1), None
#     Edge 28, Type (0, 1), None
#     Edge 29, Type (0, 1), None
#     Edge 30, Type (0, 1), None
#     Edge 31, Type (0, 1), None
#     Edge 32, Type (0, 1), None
#     Edge 33, Type (0, 1), None
#     Edge 34, Type (0, 1), None
#     Edge 35, Type (0, 1), None
# Relax obj value: 0.261
# Max RMSD: 0.258
# Mean RMSD: 0.200
data_MOF--net-zzz--node1-FUNLAD_clean_sbu_0--node2-VETTIZ_charged_linker_0--edge1-none
_symmetry_space_group_name_H-M    P1
_symmetry_Int_Tables_number       1
_symmetry_cell_setting            triclinic
loop_
_symmetry_equiv_pos_as_xyz
'x, y, z'
_cell_length_a     31.05415
_cell_length_b     36.845503
_cell_length_c     12.682683
_cell_angle_alpha  83.549475
_cell_angle_beta   81.574361
_cell_angle_gamma 91.999223
loop_
_atom_site_label
_atom_site_type_symbol
_atom_site_fract_x
_atom_site_fract_y
_atom_site_fract_z
_atom_type_partial_charge
C0 C 0.88564 0.50497 0.60174 0.0
C1 C 0.91284 0.48406 0.66417 0.0
C2 C 0.90917 0.44549 0.67111 0.0
C3 C 0.86752 0.45024 0.52748 0.0
C4 C 0.86091 0.48637 0.53631 0.0
C5 C 0.82977 0.49995 0.45882 0.0
H6 H 0.75016 0.46773 0.99771 0.0
C7 C 0.85393 0.44052 0.43052 0.0
C8 C 0.82563 0.46646 0.39621 0.0
H9 H 0.68464 0.5296 0.2369 0.0
H10 H 0.73762 0.51085 0.35691 0.0
H11 H 0.83288 0.4794 0.97474 0.0
H12 H 0.75583 0.39978 0.1649 0.0
H13 H 0.80618 0.38058 0.12579 0.0
H14 H 0.77938 0.40531 0.02535 0.0
H15 H 0.85329 0.4358 0.96936 0.0
H16 H 0.87523 0.46746 0.05018 0.0
C17 C 0.85032 0.53376 0.38369 0.0
C18 C 0.78638 0.50848 0.5253 0.0
C19 C 0.97539 0.42688 0.14435 0.0
C20 C 0.97332 0.42478 0.03538 0.0
C21 C 0.93841 0.40484 0.00623 0.0
C22 C 0.90134 0.39483 0.08207 0.0
C23 C 0.90018 0.40569 0.18451 0.0
C24 C 0.93824 0.41568 0.21986 0.0
C25 C 0.92973 0.42195 0.33634 0.0
C26 C 0.87954 0.42221 0.35376 0.0
C27 C 0.86365 0.41674 0.25881 0.0
C28 C 0.95245 0.45862 0.35254 0.0
C29 C 0.94686 0.38953 0.40318 0.0
C30 C 0.7482 0.47908 0.07337 0.0
C31 C 0.71445 0.5015 0.10516 0.0
C32 C 0.71136 0.51334 0.20849 0.0
C33 C 0.74228 0.5033 0.27704 0.0
C34 C 0.77649 0.48156 0.24158 0.0
C35 C 0.7779 0.46895 0.14254 0.0
C36 C 0.81087 0.44087 0.12379 0.0
C37 C 0.82848 0.43753 0.23011 0.0
C38 C 0.80966 0.4627 0.29748 0.0
C39 C 0.84502 0.45646 0.02513 0.0
C40 C 0.78701 0.40466 0.10843 0.0
H41 H 0.8873 0.3991 0.60034 0.0
H42 H 0.88616 0.53447 0.59823 0.0
H43 H 0.76468 0.48339 0.54956 0.0
H44 H 0.76912 0.52953 0.48103 0.0
H45 H 0.79219 0.52011 0.5995 0.0
H46 H 0.88251 0.52772 0.34013 0.0
H47 H 0.85502 0.55709 0.43 0.0
H48 H 0.82891 0.54222 0.32339 0.0
H49 H 1.00318 0.44091 0.16697 0.0
H50 H 0.93711 0.40184 0.92271 0.0
H51 H 0.87329 0.38269 0.05639 0.0
H52 H 0.94032 0.48187 0.30344 0.0
H53 H 0.98833 0.45832 0.3302 0.0
H54 H 0.94752 0.46383 0.43739 0.0
H55 H 0.98042 0.3838 0.36708 0.0
H56 H 0.92566 0.36433 0.40697 0.0
H57 H 0.94921 0.39547 0.48571 0.0
H58 H 0.92688 0.42869 0.72382 0.0
C59 C 0.88709 0.42842 0.60106 0.0
C60 C 0.09965 0.88925 0.92208 0.0
C61 C 0.10425 0.92425 0.95673 0.0
C62 C 0.11406 0.92682 0.06064 0.0
C63 C 0.09426 0.86283 0.10432 0.0
C64 C 0.09501 0.85839 0.99858 0.0
C65 C 0.08318 0.81907 0.98542 0.0
H66 H 0.97697 0.65865 0.21025 0.0
C67 C 0.07309 0.83049 0.16909 0.0
C68 C 0.07006 0.80296 0.10305 0.0
H69 H 0.04792 0.68595 0.88965 0.0
H70 H 0.07319 0.74375 0.93642 0.0
H71 H 0.05823 0.70027 0.33949 0.0
H72 H 0.93944 0.74866 0.25641 0.0
H73 H 0.94513 0.73794 0.39574 0.0
H74 H 0.93604 0.7019 0.31782 0.0
H75 H 1.00683 0.67481 0.38101 0.0
H76 H 1.01941 0.71411 0.44422 0.0
C77 C 0.12422 0.80181 0.93078 0.0
C78 C 0.04423 0.81851 0.92199 0.0
C79 C 0.95659 0.85756 0.46197 0.0
C80 C 0.9555 0.84305 0.56897 0.0
C81 C 0.96578 0.80612 0.59136 0.0
C82 C 0.98186 0.78595 0.50703 0.0
C83 C 0.99027 0.80377 0.40162 0.0
C84 C 0.98173 0.84042 0.38385 0.0
C85 C 1.01501 0.86077 0.29727 0.0
C86 C 0.04261 0.82939 0.26312 0.0
C87 C 1.02338 0.79571 0.3132 0.0
C88 C 0.04121 0.89037 0.34374 0.0
C89 C 0.99136 0.87787 0.20633 0.0
C90 C 0.99742 0.67746 0.15021 0.0
C91 C 1.00951 0.66821 0.04523 0.0
C92 C 0.03716 0.69286 0.9698 0.0
C93 C 0.05201 0.72628 0.9969 0.0
C94 C 0.03839 0.73584 0.09977 0.0
C95 C 1.0118 0.71175 0.17551 0.0
C96 C 1.00251 0.72702 0.28213 0.0
C97 C 0.02632 0.76469 0.25499 0.0
C98 C 0.04791 0.76906 0.14817 0.0
C99 C 1.02285 0.70274 0.36671 0.0
C100 C 0.95298 0.72914 0.31486 0.0
H101 H 0.11706 0.89688 0.21521 0.0
H102 H 0.09492 0.88641 0.8405 0.0
H103 H 0.02988 0.79076 0.92152 0.0
H104 H 0.05438 0.8303 0.83708 0.0
H105 H 1.01769 0.83487 0.95806 0.0
H106 H 0.15454 0.81879 0.93095 0.0
H107 H 0.12192 0.79854 0.84573 0.0
H108 H 0.12956 0.77477 0.97359 0.0
H109 H 0.95038 0.88618 0.44327 0.0
H110 H 0.96633 0.79453 0.67347 0.0
H111 H 0.99317 0.75911 0.52674 0.0
H112 H 0.06953 0.87865 0.3772 0.0
H113 H 1.02189 0.90304 0.40907 0.0
H114 H 0.05204 0.91403 0.28268 0.0
H115 H 0.9733 0.85639 0.17273 0.0
H116 H 1.0147 0.89291 0.13992 0.0
H117 H 0.96773 0.89763 0.23681 0.0
H118 H 0.12035 0.95315 0.08727 0.0
C119 C 0.11017 0.89533 0.13487 0.0
C120 C 0.91471 0.99783 0.11412 0.0
C121 C 0.92995 0.01114 0.00435 0.0
C122 C 0.90168 0.03111 0.9456 0.0
C123 C 0.84278 0.01942 0.0941 0.0
C124 C 0.87061 1.00295 0.15846 0.0
C125 C 0.84517 0.98919 0.26974 0.0
H126 H 0.64393 0.93024 0.54748 0.0
C127 C 0.7976 0.01297 0.14855 0.0
C128 C 0.798 0.99684 0.25431 0.0
H129 H 0.70615 0.02716 0.62794 0.0
H130 H 0.76868 0.02191 0.48578 0.0
H131 H 0.62367 0.97014 0.41314 0.0
H132 H 0.71638 0.89459 0.34184 0.0
H133 H 0.68311 0.90268 0.23975 0.0
H134 H 0.65797 0.89248 0.37768 0.0
H135 H 0.61894 0.94817 0.30221 0.0
H136 H 0.64579 0.99371 0.28992 0.0
C137 C 0.86004 0.01114 0.35514 0.0
C138 C 0.8507 0.94803 0.29786 0.0
C139 C 0.66388 0.03347 0.96593 0.0
C140 C 0.62273 0.01429 0.98697 0.0
C141 C 0.61743 0.98112 0.05678 0.0
C142 C 0.65207 0.96692 0.10132 0.0
C143 C 0.68975 0.98874 0.09304 0.0
C144 C 0.69727 0.01987 0.02091 0.0
C145 C 0.74474 0.03269 0.00633 0.0
C146 C 0.75961 0.00893 0.10034 0.0
C147 C 0.72594 0.98411 0.15191 0.0
C148 C 0.7486 0.07372 0.01938 0.0
C149 C 0.76707 0.02383 0.89481 0.0
C150 C 0.67228 0.94893 0.53969 0.0
C151 C 0.67002 0.97854 0.59949 0.0
C152 C 0.70666 1.00384 0.58295 0.0
C153 C 0.74278 1.00072 0.50184 0.0
C154 C 0.74036 0.97443 0.43013 0.0
C155 C 0.70217 0.9522 0.44417 0.0
C156 C 0.68746 0.94825 0.33778 0.0
C157 C 0.72479 0.96926 0.26017 0.0
C158 C 0.75851 0.97937 0.31404 0.0
C159 C 0.64215 0.96584 0.3346 0.0
C160 C 0.68595 0.90725 0.32319 0.0
H161 H 0.83851 0.05122 0.94231 0.0
H162 H 0.93583 0.98278 0.16193 0.0
H163 H 0.84036 0.93231 0.23515 0.0
H164 H 0.83057 0.9377 0.37602 0.0
H165 H 0.88527 0.94265 0.30423 0.0
H166 H 0.85458 0.04069 0.33665 0.0
H167 H 0.89535 0.00813 0.35822 0.0
H168 H 0.84174 1.00122 0.43573 0.0
H169 H 0.6704 0.05689 0.90515 0.0
H170 H 0.58723 0.96445 0.07097 0.0
H171 H 0.64867 0.93966 0.1424 0.0
H172 H 0.72961 0.07923 0.09682 0.0
H173 H 0.73597 0.09038 0.95312 0.0
H174 H 0.78295 0.08305 0.01881 0.0
H175 H 0.74348 0.01319 0.84615 0.0
H176 H 0.7912 1.00251 0.90285 0.0
H177 H 0.78372 0.04853 0.84533 0.0
H178 H 0.91277 0.04256 0.86311 0.0
C179 C 0.85856 0.0355 0.99002 0.0
C180 C 0.55767 0.63568 0.56548 0.0
C181 C 0.582 0.60371 0.57044 0.0
C182 C 0.61224 0.59762 0.48069 0.0
C183 C 0.58103 0.64511 0.37577 0.0
C184 C 0.5601 0.65771 0.46611 0.0
C185 C 0.53555 0.69135 0.43442 0.0
H186 H 0.47692 0.7951 0.99575 0.0
C187 C 0.56252 0.66142 0.2843 0.0
C188 C 0.54465 0.69408 0.31099 0.0
H189 H 0.55813 0.83937 0.20464 0.0
H190 H 0.56086 0.77796 0.30084 0.0
H191 H 0.53588 0.73496 0.95084 0.0
H192 H 0.41882 0.72476 0.18647 0.0
H193 H 0.42103 0.68693 0.11254 0.0
H194 H 0.41705 0.73216 0.04475 0.0
H195 H 0.48247 0.73791 0.91268 0.0
H196 H 0.50561 0.69464 0.94045 0.0
C197 C 0.55413 0.72479 0.47816 0.0
C198 C 0.48642 0.68466 0.47626 0.0
C199 C 0.50361 0.56591 0.08004 0.0
C200 C 0.48063 0.56815 0.99263 0.0
C201 C 0.45964 0.60038 0.96555 0.0
C202 C 0.46581 0.63134 0.01825 0.0
C203 C 0.49459 0.63004 0.09463 0.0
C204 C 0.51241 0.59743 0.12531 0.0
C205 C 0.54332 0.60068 0.2047 0.0
C206 C 0.5424 0.64145 0.21387 0.0
C207 C 0.51263 0.65804 0.15272 0.0
C208 C 0.58933 0.58898 0.15922 0.0
C209 C 0.52334 0.57687 0.30985 0.0
C210 C 0.49297 0.7923 0.06628 0.0
C211 C 0.51616 0.82239 0.09414 0.0
C212 C 0.53928 0.8169 0.18257 0.0
C213 C 0.53999 0.78195 0.24013 0.0
C214 C 0.51663 0.75249 0.21059 0.0
C215 C 0.49464 0.75758 0.12304 0.0
C216 C 0.4823 0.72168 0.08573 0.0
C217 C 0.50396 0.6952 0.15938 0.0
C218 C 0.5202 0.71305 0.23827 0.0
C219 C 0.50226 0.7221 0.96607 0.0
C220 C 0.43213 0.71594 0.10761 0.0
H221 H 0.63216 0.61182 0.31094 0.0
H222 H 0.53497 0.64139 0.63418 0.0
H223 H 0.47335 0.65969 0.44748 0.0
H224 H 0.46813 0.70824 0.44743 0.0
H225 H 0.48024 0.68113 0.56543 0.0
H226 H 0.58823 0.73206 0.439 0.0
H227 H 0.55402 0.719 0.56614 0.0
H228 H 0.53387 0.74862 0.4649 0.0
H229 H 0.51946 0.54113 0.10327 0.0
H230 H 0.44192 0.60269 0.89782 0.0
H231 H 0.45059 0.65576 0.99219 0.0
H232 H 0.58933 0.57451 0.08702 0.0
H233 H 0.60269 0.56987 0.21891 0.0
H234 H 0.61271 0.613 0.13458 0.0
H235 H 0.49043 0.5858 0.34029 0.0
H236 H 0.5434 0.57766 0.37429 0.0
H237 H 0.52037 0.54775 0.29573 0.0
H238 H 0.63192 0.57391 0.48352 0.0
C239 C 0.61159 0.61836 0.38162 0.0
C240 C 0.347 0.51624 0.34867 0.0
C241 C 0.36634 0.53319 0.42726 0.0
C242 C 0.35715 0.56954 0.44298 0.0
C243 C 0.30176 0.5676 0.33118 0.0
C244 C 0.31476 0.53495 0.29868 0.0
C245 C 0.28769 0.52427 0.21406 0.0
H246 H 0.10595 0.56857 0.97977 0.0
C247 C 0.26175 0.57683 0.29242 0.0
C248 C 0.25405 0.55411 0.21507 0.0
H249 H 0.18689 0.47924 0.90385 0.0
H250 H 0.23579 0.49766 0.02779 0.0
H251 H 0.08818 0.54469 0.17851 0.0
H252 H 0.16743 0.63244 0.02591 0.0
H253 H 0.14125 0.64479 0.14974 0.0
H254 H 0.10914 0.6256 0.06043 0.0
H255 H 0.07771 0.58626 0.22884 0.0
H256 H 0.10992 0.55314 0.29475 0.0
C257 C 0.26582 0.48587 0.24996 0.0
C258 C 0.31761 0.5266 0.10525 0.0
C259 C 0.13659 0.58671 0.56918 0.0
C260 C 0.09263 0.58534 0.55579 0.0
C261 C 0.07985 0.60405 0.46376 0.0
C262 C 0.1119 0.6178 0.37739 0.0
C263 C 0.15533 0.60945 0.38253 0.0
C264 C 0.16801 0.59868 0.48043 0.0
C265 C 0.21596 0.59253 0.47 0.0
C266 C 0.22714 0.59421 0.34745 0.0
C267 C 0.1902 0.60096 0.29858 0.0
C268 C 0.22359 0.55464 0.52946 0.0
C269 C 0.23832 0.62385 0.51678 0.0
C270 C 0.13448 0.55287 0.98653 0.0
C271 C 0.14213 0.52238 0.93117 0.0
C272 C 0.17989 0.50296 0.94538 0.0
C273 C 0.20802 0.51352 0.0174 0.0
C274 C 0.19726 0.54286 0.07773 0.0
C275 C 0.16015 0.56108 0.06225 0.0
C276 C 0.14611 0.58508 0.14666 0.0
C277 C 0.18501 0.58385 0.2058 0.0
C278 C 0.21534 0.55879 0.16665 0.0
C279 C 0.10356 0.56663 0.2161 0.0
C280 C 0.14043 0.62412 0.09311 0.0
H281 H 0.31881 0.61516 0.40395 0.0
H282 H 0.3555 0.48916 0.33038 0.0
H283 H 0.33518 0.5539 0.08569 0.0
H284 H 0.29912 0.52267 0.03908 0.0
H285 H 0.34228 0.5055 0.10747 0.0
H286 H 0.24707 0.4846 0.33215 0.0
H287 H 0.29065 0.46489 0.25093 0.0
H288 H 0.24283 0.47856 0.19607 0.0
H289 H 0.14602 0.57408 0.64303 0.0
H290 H 0.04574 0.6049 0.45468 0.0
H291 H 0.10196 0.63128 0.30598 0.0
H292 H 0.20597 0.53241 0.49791 0.0
H293 H 0.21253 0.55339 0.61709 0.0
H294 H 0.25846 0.54874 0.5218 0.0
H295 H 0.21749 0.63148 0.58921 0.0
H296 H 0.24488 0.64867 0.45717 0.0
H297 H 0.26909 0.61561 0.54462 0.0
H298 H 0.37374 0.58387 0.49681 0.0
C299 C 0.32536 0.58716 0.39299 0.0
C300 C 0.99246 0.11718 0.62155 0.0
C301 C 0.98849 0.08244 0.58532 0.0
C302 C 0.98774 0.08025 0.47538 0.0
C303 C 1.01549 0.14263 0.43962 0.0
C304 C 1.00627 0.14733 0.54593 0.0
C305 C 1.01941 0.1857 0.56529 0.0
H306 H 0.10238 0.35597 0.34641 0.0
C307 C 0.03938 0.17506 0.38326 0.0
C308 C 0.03896 0.202 0.45155 0.0
H309 H 0.05668 0.31522 0.67907 0.0
H310 H 0.04477 0.25509 0.63145 0.0
H311 H 0.16114 0.2714 0.28419 0.0
H312 H 0.03132 0.30216 0.22776 0.0
H313 H 0.07129 0.29465 0.11593 0.0
H314 H 0.07687 0.33457 0.18223 0.0
H315 H 0.15455 0.31694 0.22209 0.0
H316 H 0.14923 0.27858 0.14868 0.0
C317 C 0.0539 0.18344 0.64264 0.0
C318 C 0.97757 0.20435 0.60747 0.0
C319 C 0.14505 0.15612 0.06832 0.0
C320 C 0.13361 0.16772 0.96791 0.0
C321 C 0.11786 0.20311 0.95047 0.0
C322 C 0.10856 0.22423 0.0364 0.0
C323 C 0.11232 0.20883 0.1409 0.0
C324 C 0.12772 0.17372 0.15576 0.0
C325 C 0.10576 0.15329 0.26081 0.0
C326 C 0.06928 0.17876 0.28863 0.0
C327 C 0.08181 0.21386 0.23775 0.0
C328 C 0.13751 0.15269 0.34381 0.0
C329 C 0.09023 0.11371 0.25035 0.0
C330 C 0.09081 0.33376 0.40854 0.0
C331 C 0.07924 0.34056 0.51652 0.0
C332 C 0.06471 0.3109 0.59544 0.0
C333 C 0.05737 0.27601 0.56778 0.0
C334 C 0.0657 0.27004 0.46007 0.0
C335 C 0.08448 0.29777 0.38217 0.0
C336 C 0.0934 0.28399 0.27263 0.0
C337 C 0.0769 0.24396 0.29994 0.0
C338 C 0.05889 0.23694 0.40938 0.0
C339 C 0.14246 0.28788 0.22939 0.0
C340 C 0.06668 0.30499 0.19509 0.0
H341 H 1.00191 0.10956 0.31627 0.0
H342 H 0.99111 0.11985 0.70618 0.0
H343 H 0.95168 0.19978 0.55763 0.0
H344 H 0.98239 0.23426 0.60445 0.0
H345 H 0.96487 0.19282 0.69148 0.0
H346 H 0.0797 0.20562 0.62122 0.0
H347 H 0.07178 0.15784 0.63913 0.0
H348 H 0.03848 0.18401 0.72712 0.0
H349 H 0.15684 0.12901 0.08257 0.0
H350 H 0.1081 0.21253 0.87387 0.0
H351 H 0.09206 0.24922 0.02313 0.0
H352 H 0.14959 0.18082 0.35249 0.0
H353 H 0.16612 0.13664 0.31886 0.0
H354 H 0.12104 0.13996 0.42386 0.0
H355 H 0.06556 0.11344 0.19521 0.0
H356 H 0.07763 0.09872 0.32994 0.0
H357 H 0.11769 0.09741 0.2199 0.0
H358 H 0.98283 0.05413 0.44614 0.0
C359 C 1.00038 0.11122 0.40121 0.0
C360 C 0.38559 0.00924 0.98132 0.0
C361 C 0.42357 0.03312 0.94555 0.0
C362 C 0.42542 0.06703 0.98729 0.0
C363 C 0.36394 0.04648 0.12157 0.0
C364 C 0.3541 0.01821 0.06672 0.0
C365 C 0.31293 0.9972 0.1287 0.0
H366 H 0.19333 0.98449 0.65002 0.0
C367 C 0.34238 0.03832 0.2322 0.0
C368 C 0.30423 0.01621 0.23218 0.0
H369 H 0.12925 0.01886 0.3788 0.0
H370 H 0.19976 0.01782 0.25601 0.0
H371 H 0.24191 0.92955 0.60827 0.0
H372 H 0.28798 0.03401 0.5816 0.0
H373 H 0.32028 0.99863 0.63396 0.0
H374 H 0.26383 0.99884 0.68611 0.0
H375 H 0.29682 0.93334 0.62699 0.0
H376 H 0.28348 0.92267 0.49928 0.0
C377 C 0.32147 0.95638 0.1536 0.0
C378 C 0.27484 1.00188 0.06447 0.0
C379 C 0.45869 0.013 0.46942 0.0
C380 C 0.46176 0.98359 0.548 0.0
C381 C 0.42697 0.95697 0.57655 0.0
C382 C 0.38839 0.96137 0.53267 0.0
C383 C 0.3846 0.99295 0.46336 0.0
C384 C 0.42022 0.01651 0.42569 0.0
C385 C 0.41352 0.04187 0.32862 0.0
C386 C 0.36673 0.02981 0.31767 0.0
C387 C 0.35012 1.00284 0.40171 0.0
C388 C 0.44869 0.0349 0.23357 0.0
C389 C 0.41626 0.08168 0.35434 0.0
C390 C 0.19407 0.99155 0.56449 0.0
C391 C 0.15586 1.00187 0.52462 0.0
C392 C 0.15811 0.01057 0.41181 0.0
C393 C 0.19824 0.0099 0.34129 0.0
C394 C 0.23584 0.99928 0.38387 0.0
C395 C 0.23321 0.99012 0.4938 0.0
C396 C 0.27667 0.98063 0.52529 0.0
C397 C 0.3061 0.99045 0.41749 0.0
C398 C 0.2822 0.99841 0.33307 0.0
C399 C 0.27494 0.93935 0.56642 0.0
C400 C 0.28784 1.00445 0.61148 0.0
H401 H 0.4007 0.09765 0.11596 0.0
H402 H 0.38188 0.98378 0.94773 0.0
H403 H 0.26833 0.03129 0.0477 0.0
H404 H 0.24474 0.98729 0.11019 0.0
H405 H 0.28243 0.99057 0.98659 0.0
H406 H 0.34934 0.95308 0.1992 0.0
H407 H 0.32915 0.94354 0.07834 0.0
H408 H 0.29227 0.94134 0.20235 0.0
H409 H 0.48562 0.03303 0.44304 0.0
H410 H 0.42897 0.93358 0.63522 0.0
H411 H 0.36317 0.94002 0.55036 0.0
H412 H 0.47951 0.02577 0.2599 0.0
H413 H 0.45898 0.06029 0.17916 0.0
H414 H 0.43721 0.01326 0.18837 0.0
H415 H 0.39362 0.0851 0.42867 0.0
H416 H 0.40723 0.10083 0.28847 0.0
H417 H 0.44989 0.08969 0.36632 0.0
H418 H 0.45263 0.08663 0.95933 0.0
C419 C 0.39582 0.07363 0.07681 0.0
C420 C 0.51914 0.37396 0.96892 0.0
C421 C 0.49452 0.40584 0.96364 0.0
C422 C 0.46437 0.41187 0.0536 0.0
C423 C 0.49592 0.36458 0.1587 0.0
C424 C 0.51685 0.35193 0.06853 0.0
C425 C 0.54133 0.3182 0.10088 0.0
H426 H 0.6018 0.21615 0.54219 0.0
C427 C 0.51443 0.34839 0.25033 0.0
C428 C 0.53229 0.31559 0.22446 0.0
H429 H 0.5241 0.16898 0.33094 0.0
H430 H 0.51919 0.23016 0.23385 0.0
H431 H 0.65831 0.28497 0.35427 0.0
H432 H 0.54043 0.27508 0.5861 0.0
H433 H 0.56909 0.31625 0.59549 0.0
H434 H 0.59369 0.27374 0.6255 0.0
H435 H 0.65935 0.28032 0.49634 0.0
H436 H 0.65511 0.32435 0.42127 0.0
C437 C 0.59045 0.32475 0.05893 0.0
C438 C 0.52264 0.28468 0.05778 0.0
C439 C 0.57379 0.44443 0.4525 0.0
C440 C 0.5961 0.44211 0.54107 0.0
C441 C 0.61662 0.40978 0.56956 0.0
C442 C 0.61043 0.37875 0.51734 0.0
C443 C 0.58214 0.38013 0.43985 0.0
C444 C 0.56484 0.41283 0.40771 0.0
C445 C 0.5341 0.4095 0.32794 0.0
C446 C 0.53453 0.36859 0.32032 0.0
C447 C 0.56398 0.35208 0.38235 0.0
C448 C 0.55451 0.43276 0.22224 0.0
C449 C 0.48822 0.42176 0.37218 0.0
C450 C 0.58519 0.21845 0.47255 0.0
C451 C 0.56397 0.18762 0.44355 0.0
C452 C 0.54176 0.19209 0.35328 0.0
C453 C 0.53954 0.22698 0.29587 0.0
C454 C 0.56098 0.25727 0.32675 0.0
C455 C 0.58253 0.25288 0.41525 0.0
C456 C 0.5942 0.28896 0.45175 0.0
C457 C 0.57254 0.3149 0.37689 0.0
C458 C 0.55663 0.29671 0.2981 0.0
C459 C 0.64438 0.29512 0.43078 0.0
C460 C 0.57365 0.28873 0.57102 0.0
H461 H 0.44459 0.39766 0.22344 0.0
H462 H 0.54184 0.36825 0.90022 0.0
H463 H 0.48866 0.27734 0.09775 0.0
H464 H 0.54302 0.26092 0.0706 0.0
H465 H 0.5224 0.29041 0.96992 0.0
H466 H 0.6036 0.34976 0.08735 0.0
H467 H 0.59659 0.32815 0.96975 0.0
H468 H 0.60868 0.30118 0.08804 0.0
H469 H 0.55845 0.46933 0.4281 0.0
H470 H 0.63382 0.40743 0.63822 0.0
H471 H 0.62515 0.35424 0.54483 0.0
H472 H 0.58729 0.42344 0.19249 0.0
H473 H 0.55793 0.46197 0.23528 0.0
H474 H 0.53444 0.43183 0.15778 0.0
H475 H 0.48844 0.43727 0.44225 0.0
H476 H 0.46478 0.39792 0.39959 0.0
H477 H 0.47487 0.44016 0.31084 0.0
H478 H 0.44448 0.43545 0.05077 0.0
C479 C 0.46525 0.39124 0.15274 0.0
C480 C 0.0884 0.95588 0.89501 0.0
N481 N 0.99876 0.9362 0.69281 0.0
C482 C 1.02524 0.90785 0.67992 0.0
C483 C 1.00907 0.87456 0.65584 0.0
C484 C 0.96552 0.87053 0.63974 0.0
C485 C 0.93833 0.89975 0.6565 0.0
C486 C 0.95561 0.9324 0.68472 0.0
Zn487 Zn 0.02688 0.98302 0.73462 0.0
C488 C 0.97307 1.00351 0.94294 0.0
N489 N 0.08952 0.07123 0.85557 0.0
C490 C 0.133 0.07656 0.85766 0.0
C491 C 0.06192 0.09856 0.87353 0.0
C492 C 0.07723 0.1322 0.89763 0.0
C493 C 0.12143 0.138 0.90583 0.0
C494 C 0.14967 0.1098 0.88368 0.0
Zn495 Zn 0.06198 0.02387 0.81386 0.0
O496 O 0.06182 0.94929 0.83182 0.0
C497 C 0.11511 1.00403 0.60339 0.0
O498 O 0.09581 0.98867 0.91261 0.0
H499 H 0.02748 0.09412 0.87154 0.0
H500 H 0.05955 0.9113 0.68465 0.0
H501 H 0.15462 0.05478 0.8416 0.0
O502 O 0.08093 0.98401 0.60144 0.0
O503 O 0.11598 0.02282 0.6819 0.0
H504 H 0.93493 0.95508 0.69644 0.0
O505 O 0.02792 0.05733 0.71541 0.0
O506 O 0.99282 0.01806 0.63668 0.0
O507 O 1.00695 0.02392 0.94453 0.0
O508 O 0.97326 0.98373 0.86643 0.0
C509 C 1.00121 0.05084 0.65247 0.0
H510 H 0.03169 0.85346 0.63903 0.0
H511 H 0.90498 0.89817 0.64093 0.0
H512 H 0.05392 0.15248 0.91781 0.0
H513 H 0.1838 0.1128 0.8919 0.0
C514 C 0.49711 0.9847 0.61234 0.0
N515 N 0.55967 0.08481 0.64268 0.0
C516 C 0.56811 0.08595 0.53363 0.0
C517 C 0.56933 0.1191 0.46707 0.0
C518 C 0.56252 0.15177 0.51261 0.0
C519 C 0.55452 0.14993 0.62552 0.0
C520 C 0.553 0.11607 0.68921 0.0
Zn521 Zn 0.55277 0.03334 0.7314 0.0
C522 C 0.46359 0.02229 0.8765 0.0
N523 N 0.52849 0.92303 0.88296 0.0
C524 C 0.48891 0.90458 0.90941 0.0
C525 C 0.56399 0.90987 0.92326 0.0
C526 C 0.56042 0.87753 0.99394 0.0
C527 C 0.51998 0.85803 0.02343 0.0
C528 C 0.48397 0.87188 0.97929 0.0
Zn529 Zn 0.53531 0.97444 0.79423 0.0
O530 O 0.51532 0.01575 0.61813 0.0
C531 C 0.62632 0.98697 0.65676 0.0
O532 O 0.50277 0.95736 0.67805 0.0
H533 H 0.5952 0.92486 0.90223 0.0
H534 H 0.57331 0.06091 0.49762 0.0
H535 H 0.46091 0.91553 0.87776 0.0
O536 O 0.61362 0.01942 0.6452 0.0
O537 O 0.59946 0.96172 0.7085 0.0
H538 H 0.54579 0.11469 0.77569 0.0
O539 O 0.56674 0.99206 0.90826 0.0
O540 O 0.59042 0.04842 0.84737 0.0
O541 O 0.4729 0.98884 0.87812 0.0
O542 O 0.4917 0.04672 0.82542 0.0
C543 C 0.58969 0.02036 0.91607 0.0
H544 H 0.57593 0.11919 0.38078 0.0
H545 H 0.54855 0.17438 0.66436 0.0
H546 H 0.58931 0.86766 0.02387 0.0
H547 H 0.45212 0.85781 0.99969 0.0
C548 C 0.58394 0.46745 0.61999 0.0
N549 N 0.4571 0.50468 0.63666 0.0
C550 C 0.4703 0.50892 0.52813 0.0
C551 C 0.44006 0.51347 0.45642 0.0
C552 C 0.39586 0.51491 0.49619 0.0
C553 C 0.38269 0.50873 0.60805 0.0
C554 C 0.41391 0.50331 0.67715 0.0
Zn555 Zn 0.5056 0.5059 0.7353 0.0
C556 C 0.50886 0.43781 0.88341 0.0
N557 N 0.6185 0.50674 0.89496 0.0
C558 C 0.66107 0.51497 0.85337 0.0
C559 C 0.60584 0.50045 0.0034 0.0
C560 C 0.63639 0.50136 0.07419 0.0
C561 C 0.6807 0.50811 0.03354 0.0
C562 C 0.69279 0.51568 0.92137 0.0
Zn563 Zn 0.57023 0.50406 0.79785 0.0
O564 O 0.54494 0.47742 0.62845 0.0
C565 C 0.56725 0.57186 0.6502 0.0
O566 O 0.608 0.47507 0.6881 0.0
H567 H 0.57192 0.49396 0.0355 0.0
H568 H 0.5046 0.51099 0.49632 0.0
H569 H 0.67059 0.52029 0.76731 0.0
O570 O 0.52999 0.5568 0.648 0.0
O571 O 0.59356 0.55531 0.7048 0.0
H572 H 0.40378 0.50019 0.76312 0.0
O573 O 0.53111 0.53239 0.90487 0.0
O574 O 0.46808 0.53523 0.84563 0.0
O575 O 0.54609 0.45304 0.88524 0.0
O576 O 0.48229 0.45431 0.82907 0.0
C577 C 0.49229 0.5427 0.91356 0.0
H578 H 0.45136 0.51884 0.37102 0.0
H579 H 0.34883 0.51058 0.64188 0.0
H580 H 0.62572 0.49505 0.15965 0.0
H581 H 0.72669 0.52109 0.88637 0.0
C582 C 0.06413 0.5574 0.62518 0.0
N583 N 0.06545 0.44068 0.6547 0.0
C584 C 0.10445 0.43553 0.59422 0.0
C585 C 0.11004 0.40381 0.54118 0.0
C586 C 0.07489 0.37789 0.54994 0.0
C587 C 0.03486 0.38529 0.60752 0.0
C588 C 0.0312 0.41604 0.66094 0.0
Zn589 Zn 0.04817 0.48306 0.74746 0.0
C590 C 0.10686 0.51107 0.87082 0.0
N591 N 0.99233 0.56787 0.9195 0.0
C592 C 0.97835 0.59888 0.86932 0.0
C593 C 1.00365 0.56726 0.01959 0.0
C594 C 1.00518 0.59952 0.06824 0.0
C595 C 0.99581 0.63263 0.01232 0.0
C596 C 0.9801 0.63174 0.9142 0.0
Zn597 Zn 1.01065 0.5265 0.82758 0.0
O598 O 0.07414 0.52417 0.62418 0.0
C599 C 0.95119 0.4993 0.70552 0.0
O600 O 0.03634 0.56649 0.69973 0.0
H601 H 1.01508 0.54247 0.05796 0.0
H602 H 0.13149 0.45527 0.58955 0.0
H603 H 0.96947 0.59893 0.78999 0.0
O604 O 0.98651 0.48286 0.68811 0.0
O605 O 0.94888 0.52376 0.76892 0.0
H606 H 1.0008 0.4193 0.71088 0.0
O607 O 0.98682 0.4856 0.95553 0.0
O608 O 1.02214 0.44308 0.8754 0.0
O609 O 0.07177 0.5281 0.88263 0.0
O610 O 0.10935 0.48525 0.81151 0.0
C611 C 0.99716 0.45249 0.95469 0.0
H612 H 0.14166 0.3989 0.49814 0.0
H613 H 1.00686 0.36616 0.61643 0.0
H614 H 1.01712 0.59914 0.14423 0.0
H615 H 0.97214 0.6567 0.86909 0.0
loop_
_geom_bond_atom_site_label_1
_geom_bond_atom_site_label_2
_geom_bond_distance
_geom_bond_site_symmetry_2
_ccdc_geom_bond_type
C0 C1 1.391 . S
C0 C4 1.391 . S
C0 H42 0.948 . S
C1 C0 1.391 . S
C1 C2 1.391 . S
C2 C1 1.391 . S
C2 H58 0.947 . S
C2 C59 1.392 . S
C3 C4 1.391 . S
C3 C7 1.397 . S
C3 C59 1.419 . S
C4 C0 1.391 . S
C4 C3 1.391 . S
C4 C5 1.399 . S
C5 C4 1.399 . S
C5 C8 1.396 . S
C5 C17 1.453 . S
C5 C18 1.684 . S
H6 C30 0.948 . S
C7 C3 1.397 . S
C7 C8 1.394 . S
C7 C26 1.723 . S
C8 C5 1.396 . S
C8 C7 1.394 . S
C8 C38 1.723 . S
H9 C32 0.947 . S
H10 C33 0.948 . S
H11 C39 0.982 1_554 S
H12 C40 0.979 . S
H13 C40 0.980 . S
H14 C40 0.983 . S
H15 C39 0.979 . S
H16 C39 0.977 . S
C17 C5 1.453 . S
C17 H46 0.982 . S
C17 H47 0.979 . S
C17 H48 0.977 . S
C18 C5 1.684 . S
C18 H43 0.979 . S
C18 H44 0.980 . S
C18 H45 0.983 . S
C19 C20 1.391 . S
C19 C24 1.391 1_556 S
C19 H49 0.948 1_556 S
C20 C19 1.391 . S
C20 C21 1.391 . S
C21 C20 1.391 . S
C21 C22 1.392 . S
C21 H50 0.947 . S
C22 C21 1.392 . S
C22 C23 1.419 1_556 S
C22 H51 0.948 . S
C23 C22 1.419 1_554 S
C23 C24 1.391 . S
C23 C27 1.397 . S
C24 C19 1.391 1_554 S
C24 C23 1.391 . S
C24 C25 1.399 . S
C25 C24 1.399 . S
C25 C26 1.396 . S
C25 C28 1.453 . S
C25 C29 1.684 . S
C26 C7 1.723 . S
C26 C25 1.396 . S
C26 C27 1.394 . S
C27 C23 1.397 . S
C27 C26 1.394 . S
C27 C37 1.723 . S
C28 C25 1.453 . S
C28 H52 0.982 . S
C28 H53 0.979 . S
C28 H54 0.977 . S
C29 C25 1.684 . S
C29 H55 0.979 . S
C29 H56 0.980 . S
C29 H57 0.983 . S
C30 H6 0.948 . S
C30 C31 1.391 . S
C30 C35 1.391 . S
C31 C30 1.391 . S
C31 C32 1.391 . S
C32 H9 0.947 . S
C32 C31 1.391 . S
C32 C33 1.392 . S
C33 H10 0.948 . S
C33 C32 1.392 . S
C33 C34 1.419 . S
C34 C33 1.419 . S
C34 C35 1.391 . S
C34 C38 1.397 . S
C35 C30 1.391 . S
C35 C34 1.391 . S
C35 C36 1.399 . S
C36 C35 1.399 . S
C36 C37 1.396 . S
C36 C39 1.453 1_554 S
C36 C40 1.684 1_554 S
C37 C27 1.723 . S
C37 C36 1.396 . S
C37 C38 1.394 . S
C38 C8 1.723 . S
C38 C34 1.397 . S
C38 C37 1.394 . S
C39 H11 0.982 1_556 S
C39 H15 0.979 . S
C39 H16 0.977 . S
C39 C36 1.453 1_556 S
C40 H12 0.979 . S
C40 H13 0.980 . S
C40 H14 0.983 . S
C40 C36 1.684 1_556 S
H41 C59 0.948 . S
H42 C0 0.948 . S
H43 C18 0.979 . S
H44 C18 0.980 . S
H45 C18 0.983 . S
H46 C17 0.982 . S
H47 C17 0.979 . S
H48 C17 0.977 . S
H49 C19 0.948 1_554 S
H50 C21 0.947 . S
H51 C22 0.948 . S
H52 C28 0.982 . S
H53 C28 0.979 . S
H54 C28 0.977 . S
H55 C29 0.979 . S
H56 C29 0.980 . S
H57 C29 0.983 . S
H58 C2 0.947 . S
C59 C2 1.392 . S
C59 C3 1.419 . S
C59 H41 0.948 . S
C60 C61 1.391 . S
C60 C64 1.391 . S
C60 H102 0.948 . S
C61 C60 1.391 . S
C61 C62 1.391 . S
C62 C61 1.391 . S
C62 H118 0.947 . S
C62 C119 1.392 . S
C63 C64 1.391 . S
C63 C67 1.397 . S
C63 C119 1.419 . S
C64 C60 1.391 . S
C64 C63 1.391 . S
C64 C65 1.399 . S
C65 C64 1.399 . S
C65 C68 1.396 . S
C65 C77 1.453 . S
C65 C78 1.684 . S
H66 C90 0.953 . S
C67 C63 1.397 . S
C67 C68 1.394 . S
C67 C86 1.723 1_556 S
C68 C65 1.396 . S
C68 C67 1.394 . S
C68 C98 1.723 . S
H69 C92 0.947 . S
H70 C93 0.948 . S
H71 C99 0.982 . S
H72 C100 0.979 . S
H73 C100 0.980 . S
H74 C100 0.983 . S
H75 C99 0.979 . S
H76 C99 0.977 . S
C77 C65 1.453 . S
C77 H106 0.982 . S
C77 H107 0.979 . S
C77 H108 0.977 . S
C78 C65 1.684 . S
C78 H103 0.979 . S
C78 H104 0.980 . S
C78 H105 0.983 . S
C79 C80 1.391 . S
C79 C84 1.391 . S
C79 H109 0.948 . S
C80 C79 1.391 . S
C80 C81 1.391 . S
C81 C80 1.391 . S
C81 C82 1.392 . S
C81 H110 0.947 . S
C82 C81 1.392 . S
C82 C83 1.419 . S
C82 H111 0.948 . S
C83 C82 1.419 . S
C83 C84 1.391 . S
C83 C87 1.397 . S
C84 C79 1.391 . S
C84 C83 1.391 . S
C84 C85 1.399 . S
C85 C84 1.399 . S
C85 C86 1.396 . S
C85 C88 1.453 . S
C85 C89 1.684 . S
C86 C67 1.723 1_554 S
C86 C85 1.396 . S
C86 C87 1.394 . S
C87 C83 1.397 . S
C87 C86 1.394 . S
C87 C97 1.723 . S
C88 C85 1.453 . S
C88 H112 0.982 . S
C88 H113 0.979 . S
C88 H114 0.977 . S
C89 C85 1.684 . S
C89 H115 0.979 . S
C89 H116 0.980 . S
C89 H117 0.983 . S
C90 H66 0.953 . S
C90 C91 1.384 1_554 S
C90 C95 1.393 . S
C91 C90 1.384 1_556 S
C91 C92 1.391 . S
C92 H69 0.947 . S
C92 C91 1.391 . S
C92 C93 1.392 . S
C93 H70 0.948 . S
C93 C92 1.392 . S
C93 C94 1.419 . S
C94 C93 1.419 . S
C94 C95 1.391 1_556 S
C94 C98 1.397 . S
C95 C90 1.393 . S
C95 C94 1.391 1_554 S
C95 C96 1.399 . S
C96 C95 1.399 . S
C96 C97 1.396 . S
C96 C99 1.453 . S
C96 C100 1.684 . S
C97 C87 1.723 . S
C97 C96 1.396 . S
C97 C98 1.394 1_554 S
C98 C68 1.723 . S
C98 C94 1.397 . S
C98 C97 1.394 1_556 S
C99 H71 0.982 . S
C99 H75 0.979 . S
C99 H76 0.977 . S
C99 C96 1.453 . S
C100 H72 0.979 . S
C100 H73 0.980 . S
C100 H74 0.983 . S
C100 C96 1.684 . S
H101 C119 0.948 . S
H102 C60 0.948 . S
H103 C78 0.979 . S
H104 C78 0.980 . S
H105 C78 0.983 . S
H106 C77 0.982 . S
H107 C77 0.979 . S
H108 C77 0.977 . S
H109 C79 0.948 . S
H110 C81 0.947 . S
H111 C82 0.948 . S
H112 C88 0.982 . S
H113 C88 0.979 . S
H114 C88 0.977 . S
H115 C89 0.979 . S
H116 C89 0.980 . S
H117 C89 0.983 . S
H118 C62 0.947 . S
C119 C62 1.392 . S
C119 C63 1.419 . S
C119 H101 0.948 . S
C120 C121 1.391 . S
C120 C124 1.391 . S
C120 H162 0.948 . S
C121 C120 1.391 . S
C121 C122 1.391 1_554 S
C122 C121 1.391 1_556 S
C122 H178 0.947 . S
C122 C179 1.392 . S
C123 C124 1.391 . S
C123 C127 1.397 1_565 S
C123 C179 1.419 1_554 S
C124 C120 1.391 . S
C124 C123 1.391 . S
C124 C125 1.399 . S
C125 C124 1.399 . S
C125 C128 1.396 1_565 S
C125 C137 1.453 1_565 S
C125 C138 1.684 . S
H126 C150 0.948 . S
C127 C123 1.397 1_545 S
C127 C128 1.394 . S
C127 C146 1.723 . S
C128 C125 1.396 1_545 S
C128 C127 1.394 . S
C128 C158 1.723 . S
H129 C152 0.947 . S
H130 C153 0.948 . S
H131 C159 0.982 . S
H132 C160 0.979 . S
H133 C160 0.980 . S
H134 C160 0.983 . S
H135 C159 0.979 . S
H136 C159 0.977 . S
C137 C125 1.453 1_545 S
C137 H166 0.982 . S
C137 H167 0.979 . S
C137 H168 0.977 . S
C138 C125 1.684 . S
C138 H163 0.979 . S
C138 H164 0.980 . S
C138 H165 0.983 . S
C139 C140 1.391 . S
C139 C144 1.391 . S
C139 H169 0.948 . S
C140 C139 1.391 . S
C140 C141 1.391 . S
C141 C140 1.391 . S
C141 C142 1.392 1_556 S
C141 H170 0.947 . S
C142 C141 1.392 1_554 S
C142 C143 1.419 . S
C142 H171 0.948 . S
C143 C142 1.419 . S
C143 C144 1.391 1_554 S
C143 C147 1.397 1_565 S
C144 C139 1.391 . S
C144 C143 1.391 1_556 S
C144 C145 1.399 . S
C145 C144 1.399 . S
C145 C146 1.396 1_566 S
C145 C148 1.453 1_565 S
C145 C149 1.684 . S
C146 C127 1.723 . S
C146 C145 1.396 1_544 S
C146 C147 1.394 . S
C147 C143 1.397 1_545 S
C147 C146 1.394 . S
C147 C157 1.723 . S
C148 C145 1.453 1_545 S
C148 H172 0.982 . S
C148 H173 0.979 . S
C148 H174 0.977 . S
C149 C145 1.684 . S
C149 H175 0.979 . S
C149 H176 0.980 . S
C149 H177 0.983 . S
C150 H126 0.948 . S
C150 C151 1.391 . S
C150 C155 1.391 . S
C151 C150 1.391 . S
C151 C152 1.391 . S
C152 H129 0.947 . S
C152 C151 1.391 . S
C152 C153 1.392 . S
C153 H130 0.948 . S
C153 C152 1.392 . S
C153 C154 1.419 . S
C154 C153 1.419 . S
C154 C155 1.391 . S
C154 C158 1.397 1_565 S
C155 C150 1.391 . S
C155 C154 1.391 . S
C155 C156 1.399 . S
C156 C155 1.399 . S
C156 C157 1.396 1_565 S
C156 C159 1.453 1_565 S
C156 C160 1.684 . S
C157 C147 1.723 . S
C157 C156 1.396 1_545 S
C157 C158 1.394 . S
C158 C128 1.723 . S
C158 C154 1.397 1_545 S
C158 C157 1.394 . S
C159 H131 0.982 . S
C159 H135 0.979 . S
C159 H136 0.977 . S
C159 C156 1.453 1_545 S
C160 H132 0.979 . S
C160 H133 0.980 . S
C160 H134 0.983 . S
C160 C156 1.684 . S
H161 C179 0.948 . S
H162 C120 0.948 . S
H163 C138 0.979 . S
H164 C138 0.980 . S
H165 C138 0.983 . S
H166 C137 0.982 . S
H167 C137 0.979 . S
H168 C137 0.977 . S
H169 C139 0.948 . S
H170 C141 0.947 . S
H171 C142 0.948 . S
H172 C148 0.982 . S
H173 C148 0.979 . S
H174 C148 0.977 . S
H175 C149 0.979 . S
H176 C149 0.980 . S
H177 C149 0.983 . S
H178 C122 0.947 . S
C179 C122 1.392 . S
C179 C123 1.419 1_556 S
C179 H161 0.948 . S
C180 C181 1.391 . S
C180 C184 1.391 . S
C180 H222 0.948 . S
C181 C180 1.391 . S
C181 C182 1.391 . S
C182 C181 1.391 . S
C182 H238 0.947 . S
C182 C239 1.392 . S
C183 C184 1.391 . S
C183 C187 1.397 . S
C183 C239 1.419 . S
C184 C180 1.391 . S
C184 C183 1.391 . S
C184 C185 1.399 . S
C185 C184 1.399 . S
C185 C188 1.396 . S
C185 C197 1.453 . S
C185 C198 1.684 . S
H186 C210 0.948 . S
C187 C183 1.397 . S
C187 C188 1.394 . S
C187 C206 1.723 . S
C188 C185 1.396 . S
C188 C187 1.394 . S
C188 C218 1.723 . S
H189 C212 0.947 . S
H190 C213 0.948 . S
H191 C219 0.982 . S
H192 C220 0.979 . S
H193 C220 0.980 . S
H194 C220 0.983 . S
H195 C219 0.979 . S
H196 C219 0.977 . S
C197 C185 1.453 . S
C197 H226 0.982 . S
C197 H227 0.979 . S
C197 H228 0.977 . S
C198 C185 1.684 . S
C198 H223 0.979 . S
C198 H224 0.980 . S
C198 H225 0.983 . S
C199 C200 1.391 . S
C199 C204 1.391 1_556 S
C199 H229 0.948 . S
C200 C199 1.391 . S
C200 C201 1.391 . S
C201 C200 1.391 . S
C201 C202 1.392 . S
C201 H230 0.947 . S
C202 C201 1.392 . S
C202 C203 1.419 . S
C202 H231 0.948 . S
C203 C202 1.419 . S
C203 C204 1.391 1_556 S
C203 C207 1.397 1_556 S
C204 C199 1.391 1_554 S
C204 C203 1.391 1_554 S
C204 C205 1.399 . S
C205 C204 1.399 . S
C205 C206 1.396 . S
C205 C208 1.453 . S
C205 C209 1.684 . S
C206 C187 1.723 . S
C206 C205 1.396 . S
C206 C207 1.394 . S
C207 C203 1.397 1_554 S
C207 C206 1.394 . S
C207 C217 1.723 . S
C208 C205 1.453 . S
C208 H232 0.982 . S
C208 H233 0.979 . S
C208 H234 0.977 . S
C209 C205 1.684 . S
C209 H235 0.979 . S
C209 H236 0.980 . S
C209 H237 0.983 . S
C210 H186 0.948 . S
C210 C211 1.391 1_556 S
C210 C215 1.391 1_556 S
C211 C210 1.391 1_554 S
C211 C212 1.391 . S
C212 H189 0.947 . S
C212 C211 1.391 . S
C212 C213 1.392 . S
C213 H190 0.948 . S
C213 C212 1.392 . S
C213 C214 1.419 . S
C214 C213 1.419 . S
C214 C215 1.391 . S
C214 C218 1.397 . S
C215 C210 1.391 1_554 S
C215 C214 1.391 . S
C215 C216 1.399 1_554 S
C216 C215 1.399 1_556 S
C216 C217 1.396 1_556 S
C216 C219 1.453 . S
C216 C220 1.684 . S
C217 C207 1.723 . S
C217 C216 1.396 1_554 S
C217 C218 1.394 . S
C218 C188 1.723 . S
C218 C214 1.397 . S
C218 C217 1.394 . S
C219 H191 0.982 . S
C219 H195 0.979 . S
C219 H196 0.977 . S
C219 C216 1.453 . S
C220 H192 0.979 . S
C220 H193 0.980 . S
C220 H194 0.983 . S
C220 C216 1.684 . S
H221 C239 0.948 . S
H222 C180 0.948 . S
H223 C198 0.979 . S
H224 C198 0.980 . S
H225 C198 0.983 . S
H226 C197 0.982 . S
H227 C197 0.979 . S
H228 C197 0.977 . S
H229 C199 0.948 . S
H230 C201 0.947 . S
H231 C202 0.948 . S
H232 C208 0.982 . S
H233 C208 0.979 . S
H234 C208 0.977 . S
H235 C209 0.979 . S
H236 C209 0.980 . S
H237 C209 0.983 . S
H238 C182 0.947 . S
C239 C182 1.392 . S
C239 C183 1.419 . S
C239 H221 0.948 . S
C240 C241 1.391 . S
C240 C244 1.391 . S
C240 H282 0.948 . S
C241 C240 1.391 . S
C241 C242 1.391 . S
C242 C241 1.391 . S
C242 H298 0.947 . S
C242 C299 1.392 . S
C243 C244 1.391 . S
C243 C247 1.397 . S
C243 C299 1.419 . S
C244 C240 1.391 . S
C244 C243 1.391 . S
C244 C245 1.399 . S
C245 C244 1.399 . S
C245 C248 1.396 . S
C245 C257 1.453 . S
C245 C258 1.684 . S
H246 C270 0.948 . S
C247 C243 1.397 . S
C247 C248 1.394 . S
C247 C266 1.723 . S
C248 C245 1.396 . S
C248 C247 1.394 . S
C248 C278 1.723 . S
H249 C272 0.947 . S
H250 C273 0.948 1_554 S
H251 C279 0.982 . S
H252 C280 0.979 . S
H253 C280 0.980 . S
H254 C280 0.983 . S
H255 C279 0.979 . S
H256 C279 0.977 . S
C257 C245 1.453 . S
C257 H286 0.982 . S
C257 H287 0.979 . S
C257 H288 0.977 . S
C258 C245 1.684 . S
C258 H283 0.979 . S
C258 H284 0.980 . S
C258 H285 0.983 . S
C259 C260 1.391 . S
C259 C264 1.391 . S
C259 H289 0.948 . S
C260 C259 1.391 . S
C260 C261 1.391 . S
C261 C260 1.391 . S
C261 C262 1.392 . S
C261 H290 0.947 . S
C262 C261 1.392 . S
C262 C263 1.419 . S
C262 H291 0.948 . S
C263 C262 1.419 . S
C263 C264 1.391 . S
C263 C267 1.397 . S
C264 C259 1.391 . S
C264 C263 1.391 . S
C264 C265 1.399 . S
C265 C264 1.399 . S
C265 C266 1.396 . S
C265 C268 1.453 . S
C265 C269 1.684 . S
C266 C247 1.723 . S
C266 C265 1.396 . S
C266 C267 1.394 . S
C267 C263 1.397 . S
C267 C266 1.394 . S
C267 C277 1.723 . S
C268 C265 1.453 . S
C268 H292 0.982 . S
C268 H293 0.979 . S
C268 H294 0.977 . S
C269 C265 1.684 . S
C269 H295 0.979 . S
C269 H296 0.980 . S
C269 H297 0.983 . S
C270 H246 0.948 . S
C270 C271 1.391 . S
C270 C275 1.391 1_556 S
C271 C270 1.391 . S
C271 C272 1.391 . S
C272 H249 0.947 . S
C272 C271 1.391 . S
C272 C273 1.392 . S
C273 H250 0.948 1_556 S
C273 C272 1.392 . S
C273 C274 1.419 1_556 S
C274 C273 1.419 1_554 S
C274 C275 1.391 . S
C274 C278 1.397 . S
C275 C270 1.391 1_554 S
C275 C274 1.391 . S
C275 C276 1.399 . S
C276 C275 1.399 . S
C276 C277 1.396 . S
C276 C279 1.453 . S
C276 C280 1.684 . S
C277 C267 1.723 . S
C277 C276 1.396 . S
C277 C278 1.394 . S
C278 C248 1.723 . S
C278 C274 1.397 . S
C278 C277 1.394 . S
C279 H251 0.982 . S
C279 H255 0.979 . S
C279 H256 0.977 . S
C279 C276 1.453 . S
C280 H252 0.979 . S
C280 H253 0.980 . S
C280 H254 0.983 . S
C280 C276 1.684 . S
H281 C299 0.948 . S
H282 C240 0.948 . S
H283 C258 0.979 . S
H284 C258 0.980 . S
H285 C258 0.983 . S
H286 C257 0.982 . S
H287 C257 0.979 . S
H288 C257 0.977 . S
H289 C259 0.948 . S
H290 C261 0.947 . S
H291 C262 0.948 . S
H292 C268 0.982 . S
H293 C268 0.979 . S
H294 C268 0.977 . S
H295 C269 0.979 . S
H296 C269 0.980 . S
H297 C269 0.983 . S
H298 C242 0.947 . S
C299 C242 1.392 . S
C299 C243 1.419 . S
C299 H281 0.948 . S
C300 C301 1.391 . S
C300 C304 1.391 . S
C300 H342 0.948 . S
C301 C300 1.391 . S
C301 C302 1.391 . S
C302 C301 1.391 . S
C302 H358 0.947 . S
C302 C359 1.392 . S
C303 C304 1.391 . S
C303 C307 1.397 . S
C303 C359 1.419 . S
C304 C300 1.391 . S
C304 C303 1.391 . S
C304 C305 1.399 . S
C305 C304 1.399 . S
C305 C308 1.396 . S
C305 C317 1.453 . S
C305 C318 1.684 . S
H306 C330 0.948 . S
C307 C303 1.397 . S
C307 C308 1.394 . S
C307 C326 1.723 . S
C308 C305 1.396 . S
C308 C307 1.394 . S
C308 C338 1.723 . S
H309 C332 0.947 . S
H310 C333 0.948 . S
H311 C339 0.982 . S
H312 C340 0.979 . S
H313 C340 0.980 . S
H314 C340 0.983 . S
H315 C339 0.979 . S
H316 C339 0.977 . S
C317 C305 1.453 . S
C317 H346 0.982 . S
C317 H347 0.979 . S
C317 H348 0.977 . S
C318 C305 1.684 . S
C318 H343 0.979 . S
C318 H344 0.980 . S
C318 H345 0.983 . S
C319 C320 1.391 . S
C319 C324 1.391 . S
C319 H349 0.948 . S
C320 C319 1.391 . S
C320 C321 1.391 . S
C321 C320 1.391 . S
C321 C322 1.392 . S
C321 H350 0.947 . S
C322 C321 1.392 . S
C322 C323 1.419 . S
C322 H351 0.948 . S
C323 C322 1.419 . S
C323 C324 1.391 . S
C323 C327 1.397 . S
C324 C319 1.391 . S
C324 C323 1.391 . S
C324 C325 1.399 . S
C325 C324 1.399 . S
C325 C326 1.396 . S
C325 C328 1.453 . S
C325 C329 1.684 . S
C326 C307 1.723 . S
C326 C325 1.396 . S
C326 C327 1.394 . S
C327 C323 1.397 . S
C327 C326 1.394 . S
C327 C337 1.723 . S
C328 C325 1.453 . S
C328 H352 0.982 . S
C328 H353 0.979 . S
C328 H354 0.977 . S
C329 C325 1.684 . S
C329 H355 0.979 . S
C329 H356 0.980 . S
C329 H357 0.983 . S
C330 H306 0.948 . S
C330 C331 1.391 . S
C330 C335 1.391 . S
C331 C330 1.391 . S
C331 C332 1.391 . S
C332 H309 0.947 . S
C332 C331 1.391 . S
C332 C333 1.392 . S
C333 H310 0.948 . S
C333 C332 1.392 . S
C333 C334 1.419 . S
C334 C333 1.419 . S
C334 C335 1.391 . S
C334 C338 1.397 . S
C335 C330 1.391 . S
C335 C334 1.391 . S
C335 C336 1.399 . S
C336 C335 1.399 . S
C336 C337 1.396 . S
C336 C339 1.453 . S
C336 C340 1.684 . S
C337 C327 1.723 . S
C337 C336 1.396 . S
C337 C338 1.394 . S
C338 C308 1.723 . S
C338 C334 1.397 . S
C338 C337 1.394 . S
C339 H311 0.982 . S
C339 H315 0.979 . S
C339 H316 0.977 . S
C339 C336 1.453 . S
C340 H312 0.979 . S
C340 H313 0.980 . S
C340 H314 0.983 . S
C340 C336 1.684 . S
H341 C359 0.948 . S
H342 C300 0.948 . S
H343 C318 0.979 . S
H344 C318 0.980 . S
H345 C318 0.983 . S
H346 C317 0.982 . S
H347 C317 0.979 . S
H348 C317 0.977 . S
H349 C319 0.948 . S
H350 C321 0.947 . S
H351 C322 0.948 . S
H352 C328 0.982 . S
H353 C328 0.979 . S
H354 C328 0.977 . S
H355 C329 0.979 . S
H356 C329 0.980 . S
H357 C329 0.983 . S
H358 C302 0.947 . S
C359 C302 1.392 . S
C359 C303 1.419 . S
C359 H341 0.948 . S
C360 C361 1.391 1_554 S
C360 C364 1.391 . S
C360 H402 0.948 1_554 S
C361 C360 1.391 1_556 S
C361 C362 1.391 1_556 S
C362 C361 1.391 1_554 S
C362 H418 0.947 . S
C362 C419 1.392 . S
C363 C364 1.391 . S
C363 C367 1.397 1_545 S
C363 C419 1.419 . S
C364 C360 1.391 . S
C364 C363 1.391 . S
C364 C365 1.399 . S
C365 C364 1.399 . S
C365 C368 1.396 1_545 S
C365 C377 1.453 1_545 S
C365 C378 1.684 . S
H366 C390 0.948 . S
C367 C363 1.397 1_565 S
C367 C368 1.394 . S
C367 C386 1.723 . S
C368 C365 1.396 1_565 S
C368 C367 1.394 . S
C368 C398 1.723 . S
H369 C392 0.947 . S
H370 C393 0.948 . S
H371 C399 0.982 . S
H372 C400 0.979 . S
H373 C400 0.980 . S
H374 C400 0.983 . S
H375 C399 0.979 . S
H376 C399 0.977 . S
C377 C365 1.453 1_565 S
C377 H406 0.982 . S
C377 H407 0.979 . S
C377 H408 0.977 . S
C378 C365 1.684 . S
C378 H403 0.979 . S
C378 H404 0.980 . S
C378 H405 0.983 . S
C379 C380 1.391 . S
C379 C384 1.391 . S
C379 H409 0.948 . S
C380 C379 1.391 . S
C380 C381 1.391 . S
C381 C380 1.391 . S
C381 C382 1.392 . S
C381 H410 0.947 . S
C382 C381 1.392 . S
C382 C383 1.419 . S
C382 H411 0.948 . S
C383 C382 1.419 . S
C383 C384 1.391 . S
C383 C387 1.397 1_545 S
C384 C379 1.391 . S
C384 C383 1.391 . S
C384 C385 1.399 . S
C385 C384 1.399 . S
C385 C386 1.396 1_545 S
C385 C388 1.453 1_545 S
C385 C389 1.684 . S
C386 C367 1.723 . S
C386 C385 1.396 1_565 S
C386 C387 1.394 . S
C387 C383 1.397 1_565 S
C387 C386 1.394 . S
C387 C397 1.723 . S
C388 C385 1.453 1_565 S
C388 H412 0.982 . S
C388 H413 0.979 . S
C388 H414 0.977 . S
C389 C385 1.684 . S
C389 H415 0.979 . S
C389 H416 0.980 . S
C389 H417 0.983 . S
C390 H366 0.948 . S
C390 C391 1.391 . S
C390 C395 1.391 . S
C391 C390 1.391 . S
C391 C392 1.391 . S
C392 H369 0.947 . S
C392 C391 1.391 . S
C392 C393 1.392 . S
C393 H370 0.948 . S
C393 C392 1.392 . S
C393 C394 1.419 . S
C394 C393 1.419 . S
C394 C395 1.391 . S
C394 C398 1.397 1_545 S
C395 C390 1.391 . S
C395 C394 1.391 . S
C395 C396 1.399 . S
C396 C395 1.399 . S
C396 C397 1.396 1_545 S
C396 C399 1.453 1_545 S
C396 C400 1.684 . S
C397 C387 1.723 . S
C397 C396 1.396 1_565 S
C397 C398 1.394 . S
C398 C368 1.723 . S
C398 C394 1.397 1_565 S
C398 C397 1.394 . S
C399 H371 0.982 . S
C399 H375 0.979 . S
C399 H376 0.977 . S
C399 C396 1.453 1_565 S
C400 H372 0.979 . S
C400 H373 0.980 . S
C400 H374 0.983 . S
C400 C396 1.684 . S
H401 C419 0.948 . S
H402 C360 0.948 1_556 S
H403 C378 0.979 . S
H404 C378 0.980 . S
H405 C378 0.983 . S
H406 C377 0.982 . S
H407 C377 0.979 . S
H408 C377 0.977 . S
H409 C379 0.948 . S
H410 C381 0.947 . S
H411 C382 0.948 . S
H412 C388 0.982 . S
H413 C388 0.979 . S
H414 C388 0.977 . S
H415 C389 0.979 . S
H416 C389 0.980 . S
H417 C389 0.983 . S
H418 C362 0.947 . S
C419 C362 1.392 . S
C419 C363 1.419 . S
C419 H401 0.948 . S
C420 C421 1.391 1_554 S
C420 C424 1.391 . S
C420 H462 0.948 1_554 S
C421 C420 1.391 1_556 S
C421 C422 1.391 1_556 S
C422 C421 1.391 1_554 S
C422 H478 0.947 . S
C422 C479 1.392 . S
C423 C424 1.391 . S
C423 C427 1.397 . S
C423 C479 1.419 . S
C424 C420 1.391 . S
C424 C423 1.391 . S
C424 C425 1.399 . S
C425 C424 1.399 . S
C425 C428 1.396 . S
C425 C437 1.453 . S
C425 C438 1.684 . S
H426 C450 0.948 . S
C427 C423 1.397 . S
C427 C428 1.394 . S
C427 C446 1.723 . S
C428 C425 1.396 . S
C428 C427 1.394 . S
C428 C458 1.723 . S
H429 C452 0.947 . S
H430 C453 0.948 . S
H431 C459 0.982 . S
H432 C460 0.979 . S
H433 C460 0.980 . S
H434 C460 0.983 . S
H435 C459 0.979 . S
H436 C459 0.977 . S
C437 C425 1.453 . S
C437 H466 0.982 . S
C437 H467 0.979 . S
C437 H468 0.977 . S
C438 C425 1.684 . S
C438 H463 0.979 . S
C438 H464 0.980 . S
C438 H465 0.983 . S
C439 C440 1.391 . S
C439 C444 1.391 . S
C439 H469 0.948 . S
C440 C439 1.391 . S
C440 C441 1.391 . S
C441 C440 1.391 . S
C441 C442 1.392 . S
C441 H470 0.947 . S
C442 C441 1.392 . S
C442 C443 1.419 . S
C442 H471 0.948 . S
C443 C442 1.419 . S
C443 C444 1.391 . S
C443 C447 1.397 . S
C444 C439 1.391 . S
C444 C443 1.391 . S
C444 C445 1.399 . S
C445 C444 1.399 . S
C445 C446 1.396 . S
C445 C448 1.453 . S
C445 C449 1.684 . S
C446 C427 1.723 . S
C446 C445 1.396 . S
C446 C447 1.394 . S
C447 C443 1.397 . S
C447 C446 1.394 . S
C447 C457 1.723 . S
C448 C445 1.453 . S
C448 H472 0.982 . S
C448 H473 0.979 . S
C448 H474 0.977 . S
C449 C445 1.684 . S
C449 H475 0.979 . S
C449 H476 0.980 . S
C449 H477 0.983 . S
C450 H426 0.948 . S
C450 C451 1.391 . S
C450 C455 1.391 . S
C451 C450 1.391 . S
C451 C452 1.391 . S
C452 H429 0.947 . S
C452 C451 1.391 . S
C452 C453 1.392 . S
C453 H430 0.948 . S
C453 C452 1.392 . S
C453 C454 1.419 . S
C454 C453 1.419 . S
C454 C455 1.391 . S
C454 C458 1.397 . S
C455 C450 1.391 . S
C455 C454 1.391 . S
C455 C456 1.399 . S
C456 C455 1.399 . S
C456 C457 1.396 . S
C456 C459 1.453 . S
C456 C460 1.684 . S
C457 C447 1.723 . S
C457 C456 1.396 . S
C457 C458 1.394 . S
C458 C428 1.723 . S
C458 C454 1.397 . S
C458 C457 1.394 . S
C459 H431 0.982 . S
C459 H435 0.979 . S
C459 H436 0.977 . S
C459 C456 1.453 . S
C460 H432 0.979 . S
C460 H433 0.980 . S
C460 H434 0.983 . S
C460 C456 1.684 . S
H461 C479 0.948 . S
H462 C420 0.948 1_556 S
H463 C438 0.979 . S
H464 C438 0.980 . S
H465 C438 0.983 . S
H466 C437 0.982 . S
H467 C437 0.979 . S
H468 C437 0.977 . S
H469 C439 0.948 . S
H470 C441 0.947 . S
H471 C442 0.948 . S
H472 C448 0.982 . S
H473 C448 0.979 . S
H474 C448 0.977 . S
H475 C449 0.979 . S
H476 C449 0.980 . S
H477 C449 0.983 . S
H478 C422 0.947 . S
C479 C422 1.392 . S
C479 C423 1.419 . S
C479 H461 0.948 . S
C480 O496 1.251 1_455 S
C480 O498 1.254 . S
N481 C482 1.333 . S
N481 C486 1.307 . S
N481 Zn487 2.020 1_655 S
C482 N481 1.333 . S
C482 C483 1.379 . S
C482 H500 0.952 . S
C483 C482 1.379 . S
C483 C484 1.390 . S
C483 H510 0.949 . S
C484 C483 1.390 . S
C484 C485 1.357 . S
C485 C484 1.357 . S
C485 C486 1.370 . S
C485 H511 0.950 . S
C486 N481 1.307 . S
C486 C485 1.370 . S
C486 H504 0.948 1_565 S
Zn487 N481 2.020 1_455 S
Zn487 O496 2.039 1_455 S
Zn487 O502 2.034 . S
Zn487 O506 2.025 1_565 S
Zn487 O508 2.024 1_465 S
C488 O507 1.246 . S
C488 O508 1.249 . S
N489 C490 1.307 . S
N489 C491 1.333 . S
N489 Zn495 2.020 1_554 S
C490 N489 1.307 . S
C490 C494 1.370 . S
C490 H501 0.948 1_545 S
C491 N489 1.333 . S
C491 C492 1.379 . S
C491 H499 0.952 1_554 S
C492 C491 1.379 . S
C492 C493 1.390 . S
C492 H512 0.949 . S
C493 C492 1.390 . S
C493 C494 1.357 . S
C494 C490 1.370 . S
C494 C493 1.357 . S
C494 H513 0.950 . S
Zn495 N489 2.020 1_556 S
Zn495 O498 2.025 1_545 S
Zn495 O503 2.024 1_545 S
Zn495 O505 2.039 . S
Zn495 O507 2.034 1_455 S
O496 C480 1.251 1_655 S
O496 Zn487 2.039 1_655 S
C497 O502 1.246 . S
C497 O503 1.249 . S
O498 C480 1.254 . S
O498 Zn495 2.025 1_565 S
H499 C491 0.952 1_556 S
H500 C482 0.952 . S
H501 C490 0.948 1_565 S
O502 Zn487 2.034 . S
O502 C497 1.246 . S
O503 Zn495 2.024 1_565 S
O503 C497 1.249 . S
H504 C486 0.948 1_545 S
O505 Zn495 2.039 . S
O505 C509 1.251 . S
O506 Zn487 2.025 1_545 S
O506 C509 1.254 . S
O507 C488 1.246 . S
O507 Zn495 2.034 1_655 S
O508 Zn487 2.024 1_645 S
O508 C488 1.249 . S
C509 O505 1.251 . S
C509 O506 1.254 . S
H510 C483 0.949 . S
H511 C485 0.950 . S
H512 C492 0.949 . S
H513 C494 0.950 . S
C514 O530 1.251 1_565 S
C514 O532 1.254 . S
N515 C516 1.333 . S
N515 C520 1.307 . S
N515 Zn521 2.020 . S
C516 N515 1.333 . S
C516 C517 1.379 . S
C516 H534 0.952 . S
C517 C516 1.379 . S
C517 C518 1.390 . S
C517 H544 0.949 . S
C518 C517 1.390 . S
C518 C519 1.357 . S
C519 C518 1.357 . S
C519 C520 1.370 . S
C519 H545 0.950 . S
C520 N515 1.307 . S
C520 C519 1.370 . S
C520 H538 0.948 . S
Zn521 N515 2.020 . S
Zn521 O530 2.039 . S
Zn521 O536 2.034 . S
Zn521 O540 2.025 . S
Zn521 O542 2.024 . S
C522 O541 1.246 1_545 S
C522 O542 1.249 . S
N523 C524 1.307 . S
N523 C525 1.333 . S
N523 Zn529 2.020 . S
C524 N523 1.307 . S
C524 C528 1.370 . S
C524 H535 0.948 . S
C525 N523 1.333 . S
C525 C526 1.379 . S
C525 H533 0.952 . S
C526 C525 1.379 . S
C526 C527 1.390 . S
C526 H546 0.949 1_556 S
C527 C526 1.390 . S
C527 C528 1.357 . S
C528 C524 1.370 . S
C528 C527 1.357 . S
C528 H547 0.950 . S
Zn529 N523 2.020 . S
Zn529 O532 2.025 . S
Zn529 O537 2.024 . S
Zn529 O539 2.039 . S
Zn529 O541 2.034 . S
O530 C514 1.251 1_545 S
O530 Zn521 2.039 . S
C531 O536 1.246 1_565 S
C531 O537 1.249 . S
O532 C514 1.254 . S
O532 Zn529 2.025 . S
H533 C525 0.952 . S
H534 C516 0.952 . S
H535 C524 0.948 . S
O536 Zn521 2.034 . S
O536 C531 1.246 1_545 S
O537 Zn529 2.024 . S
O537 C531 1.249 . S
H538 C520 0.948 . S
O539 Zn529 2.039 . S
O539 C543 1.251 1_565 S
O540 Zn521 2.025 . S
O540 C543 1.254 . S
O541 C522 1.246 1_565 S
O541 Zn529 2.034 . S
O542 Zn521 2.024 . S
O542 C522 1.249 . S
C543 O539 1.251 1_545 S
C543 O540 1.254 . S
H544 C517 0.949 . S
H545 C519 0.950 . S
H546 C526 0.949 1_554 S
H547 C528 0.950 . S
C548 O564 1.251 . S
C548 O566 1.254 . S
N549 C550 1.333 . S
N549 C554 1.307 . S
N549 Zn555 2.020 . S
C550 N549 1.333 . S
C550 C551 1.379 . S
C550 H568 0.952 . S
C551 C550 1.379 . S
C551 C552 1.390 . S
C551 H578 0.949 . S
C552 C551 1.390 . S
C552 C553 1.357 . S
C553 C552 1.357 . S
C553 C554 1.370 . S
C553 H579 0.950 . S
C554 N549 1.307 . S
C554 C553 1.370 . S
C554 H572 0.948 . S
Zn555 N549 2.020 . S
Zn555 O564 2.039 . S
Zn555 O570 2.034 . S
Zn555 O574 2.025 . S
Zn555 O576 2.024 . S
C556 O575 1.246 . S
C556 O576 1.249 . S
N557 C558 1.307 . S
N557 C559 1.333 . S
N557 Zn563 2.020 . S
C558 N557 1.307 . S
C558 C562 1.370 . S
C558 H569 0.948 . S
C559 N557 1.333 . S
C559 C560 1.379 . S
C559 H567 0.952 . S
C560 C559 1.379 . S
C560 C561 1.390 . S
C560 H580 0.949 1_556 S
C561 C560 1.390 . S
C561 C562 1.357 . S
C562 C558 1.370 . S
C562 C561 1.357 . S
C562 H581 0.950 . S
Zn563 N557 2.020 . S
Zn563 O566 2.025 . S
Zn563 O571 2.024 . S
Zn563 O573 2.039 . S
Zn563 O575 2.034 . S
O564 C548 1.251 . S
O564 Zn555 2.039 . S
C565 O570 1.246 . S
C565 O571 1.249 . S
O566 C548 1.254 . S
O566 Zn563 2.025 . S
H567 C559 0.952 . S
H568 C550 0.952 . S
H569 C558 0.948 . S
O570 Zn555 2.034 . S
O570 C565 1.246 . S
O571 Zn563 2.024 . S
O571 C565 1.249 . S
H572 C554 0.948 . S
O573 Zn563 2.039 . S
O573 C577 1.251 . S
O574 Zn555 2.025 . S
O574 C577 1.254 . S
O575 C556 1.246 . S
O575 Zn563 2.034 . S
O576 Zn555 2.024 . S
O576 C556 1.249 . S
C577 O573 1.251 . S
C577 O574 1.254 . S
H578 C551 0.949 . S
H579 C553 0.950 . S
H580 C560 0.949 1_554 S
H581 C562 0.950 . S
C582 O598 1.251 . S
C582 O600 1.254 . S
N583 C584 1.333 . S
N583 C588 1.307 . S
N583 Zn589 2.020 . S
C584 N583 1.333 . S
C584 C585 1.379 . S
C584 H602 0.952 . S
C585 C584 1.379 . S
C585 C586 1.390 . S
C585 H612 0.949 . S
C586 C585 1.390 . S
C586 C587 1.357 . S
C587 C586 1.357 . S
C587 C588 1.370 . S
C587 H613 0.950 . S
C588 N583 1.307 . S
C588 C587 1.370 . S
C588 H606 0.948 . S
Zn589 N583 2.020 . S
Zn589 O598 2.039 . S
Zn589 O604 2.034 1_455 S
Zn589 O608 2.025 1_455 S
Zn589 O610 2.024 . S
C590 O609 1.246 . S
C590 O610 1.249 . S
N591 C592 1.307 . S
N591 C593 1.333 . S
N591 Zn597 2.020 1_655 S
C592 N591 1.307 . S
C592 C596 1.370 . S
C592 H603 0.948 1_655 S
C593 N591 1.333 . S
C593 C594 1.379 . S
C593 H601 0.952 . S
C594 C593 1.379 . S
C594 C595 1.390 . S
C594 H614 0.949 . S
C595 C594 1.390 . S
C595 C596 1.357 . S
C596 C592 1.370 . S
C596 C595 1.357 . S
C596 H615 0.950 . S
Zn597 N591 2.020 1_455 S
Zn597 O600 2.025 . S
Zn597 O605 2.024 1_455 S
Zn597 O607 2.039 1_455 S
Zn597 O609 2.034 . S
O598 C582 1.251 . S
O598 Zn589 2.039 . S
C599 O604 1.246 . S
C599 O605 1.249 . S
O600 C582 1.254 . S
O600 Zn597 2.025 . S
H601 C593 0.952 . S
H602 C584 0.952 . S
H603 C592 0.948 1_455 S
O604 Zn589 2.034 1_655 S
O604 C599 1.246 . S
O605 Zn597 2.024 1_655 S
O605 C599 1.249 . S
H606 C588 0.948 . S
O607 Zn597 2.039 1_655 S
O607 C611 1.251 . S
O608 Zn589 2.025 1_655 S
O608 C611 1.254 . S
O609 C590 1.246 . S
O609 Zn597 2.034 . S
O610 Zn589 2.024 . S
O610 C590 1.249 . S
C611 O607 1.251 . S
C611 O608 1.254 . S
H612 C585 0.949 . S
H613 C587 0.950 . S
H614 C594 0.949 . S
H615 C596 0.950 . S
C391 C497 2.905 1_545 S
C518 C451 2.752 . S
C552 C241 3.011 . S
C586 C331 2.030 . S
C488 C121 2.590 1_546 S
C211 C527 2.593 1_554 S
C31 C561 3.447 1_554 S
C91 C595 2.236 . S
C509 C301 3.712 . S
C514 C380 1.593 1_565 S
C548 C440 2.051 . S
C260 C582 1.289 . S
C61 C480 3.903 1_655 S
C543 C140 1.193 1_545 S
C577 C200 1.804 . S
C20 C611 1.260 . S
C320 C493 3.241 . S
C361 C522 3.068 . S
C556 C421 2.563 . S
C590 C271 3.281 . S
C80 C484 3.363 . S
C531 C151 3.486 . S
C565 C181 2.461 . S
C1 C599 2.917 . S
