# Generated by pormake.
# Topology tsx, (6,3)-cn, num edge types: 1
# Building blocks:
#     Node 0, Type 0, BuildingBlock: FUNLAD_clean_sbu_0, # of connection points: 6
#     Node 1, Type 0, BuildingBlock: FUNLAD_clean_sbu_0, # of connection points: 6
#     Node 2, Type 1, BuildingBlock: BELTOD_clean_linker_0, # of connection points: 3
#     Node 3, Type 1, BuildingBlock: BELTOD_clean_linker_0, # of connection points: 3
#     Node 4, Type 1, BuildingBlock: BELTOD_clean_linker_0, # of connection points: 3
#     Node 5, Type 1, BuildingBlock: BELTOD_clean_linker_0, # of connection points: 3
#     Edge 6, Type (0, 1), BuildingBlock: TEMPAE_clean_linker_10, # of connection points: 2
#     Edge 7, Type (0, 1), BuildingBlock: TEMPAE_clean_linker_10, # of connection points: 2
#     Edge 8, Type (0, 1), BuildingBlock: TEMPAE_clean_linker_10, # of connection points: 2
#     Edge 9, Type (0, 1), BuildingBlock: TEMPAE_clean_linker_10, # of connection points: 2
#     Edge 10, Type (0, 1), BuildingBlock: TEMPAE_clean_linker_10, # of connection points: 2
#     Edge 11, Type (0, 1), BuildingBlock: TEMPAE_clean_linker_10, # of connection points: 2
#     Edge 12, Type (0, 1), BuildingBlock: TEMPAE_clean_linker_10, # of connection points: 2
#     Edge 13, Type (0, 1), BuildingBlock: TEMPAE_clean_linker_10, # of connection points: 2
#     Edge 14, Type (0, 1), BuildingBlock: TEMPAE_clean_linker_10, # of connection points: 2
#     Edge 15, Type (0, 1), BuildingBlock: TEMPAE_clean_linker_10, # of connection points: 2
#     Edge 16, Type (0, 1), BuildingBlock: TEMPAE_clean_linker_10, # of connection points: 2
#     Edge 17, Type (0, 1), BuildingBlock: TEMPAE_clean_linker_10, # of connection points: 2
# Relax obj value: 0.152
# Max RMSD: 0.148
# Mean RMSD: 0.078
data_MOF--net-tsx--node1-FUNLAD_clean_sbu_0--node2-BELTOD_clean_linker_0--edge1-TEMPAE_clean_linker_10
_symmetry_space_group_name_H-M    P1
_symmetry_Int_Tables_number       1
_symmetry_cell_setting            triclinic
loop_
_symmetry_equiv_pos_as_xyz
'x, y, z'
_cell_length_a     21.73709
_cell_length_b     24.208557
_cell_length_c     46.811199
_cell_angle_alpha  91.660961
_cell_angle_beta   92.06451
_cell_angle_gamma 89.976844
loop_
_atom_site_label
_atom_site_type_symbol
_atom_site_fract_x
_atom_site_fract_y
_atom_site_fract_z
_atom_type_partial_charge
C0 C 0.87943 0.91928 0.00084 0.0
N1 N 0.97251 0.00407 0.06855 0.0
C2 C 0.92029 0.00953 0.08357 0.0
C3 C 0.92387 0.0152 0.11341 0.0
C4 C 0.98174 0.01538 0.1278 0.0
C5 C 0.03461 0.00849 0.11173 0.0
C6 C 0.02895 0.003 0.08206 0.0
Zn7 Zn 0.96932 0.00025 0.02487 0.0
C8 C 0.05783 0.92075 0.00178 0.0
N9 N 0.96776 -0.00311 0.9336 0.0
C10 C 0.91536 0.99177 0.91691 0.0
C11 C 0.02409 -0.0024 0.92185 0.0
C12 C 0.02952 0.99193 0.89238 0.0
C13 C 0.97654 0.98531 0.87461 0.0
C14 C 0.91871 0.98605 0.88714 0.0
Zn15 Zn 0.9665 0.00066 0.97731 0.0
O16 O 0.89981 0.94116 0.0243 0.0
C17 C 0.87954 0.08182 5e-05 0.0
O18 O 0.89928 0.936 0.97732 0.0
H19 H 0.06525 0.00178 0.9354 0.0
H20 H 0.8759 0.01038 0.07238 0.0
H21 H 0.87106 0.9912 0.92671 0.0
O22 O 0.90256 0.06487 0.0236 0.0
O23 O 0.897 0.06034 0.9766 0.0
H24 H 0.06992 -0.00143 0.06977 0.0
O25 O 0.03338 0.0647 0.97819 0.0
O26 O 0.04082 0.05869 0.02485 0.0
O27 O 0.03763 0.94164 0.97875 0.0
O28 O 0.03547 0.93592 0.0254 0.0
C29 C 0.05875 0.07946 0.00203 0.0
H30 H 0.88198 0.02075 0.125 0.0
H31 H 0.08006 0.00744 0.12198 0.0
H32 H 0.07493 0.99259 0.88359 0.0
H33 H 0.87674 0.98083 0.87417 0.0
C34 C 0.38375 0.41682 0.50042 0.0
N35 N 0.47634 0.50208 0.56809 0.0
C36 C 0.42408 0.50758 0.58308 0.0
C37 C 0.42759 0.51361 0.6129 0.0
C38 C 0.48544 0.51407 0.62732 0.0
C39 C 0.53836 0.50701 0.61129 0.0
C40 C 0.53276 0.50121 0.58163 0.0
Zn41 Zn 0.47304 0.49836 0.52444 0.0
C42 C 0.56225 0.41981 0.50116 0.0
N43 N 0.47084 0.4955 0.4332 0.0
C44 C 0.41839 0.4897 0.41661 0.0
C45 C 0.52704 0.49699 0.42135 0.0
C46 C 0.53228 0.49149 0.39187 0.0
C47 C 0.47925 0.48415 0.37419 0.0
C48 C 0.42155 0.48406 0.38683 0.0
Zn49 Zn 0.46983 0.49905 0.4769 0.0
O50 O 0.40411 0.43869 0.52388 0.0
C51 C 0.3823 0.57939 0.49983 0.0
O52 O 0.40326 0.43385 0.4769 0.0
H53 H 0.56825 0.50164 0.43483 0.0
H54 H 0.37972 0.50827 0.57187 0.0
H55 H 0.3742 0.48852 0.42649 0.0
O56 O 0.40568 0.56246 0.52331 0.0
O57 O 0.39973 0.55818 0.47632 0.0
H58 H 0.57377 0.4968 0.56936 0.0
O59 O 0.53608 0.56365 0.47779 0.0
O60 O 0.54392 0.55735 0.52443 0.0
O61 O 0.54159 0.4406 0.47819 0.0
O62 O 0.53987 0.43463 0.52483 0.0
C63 C 0.56147 0.57845 0.50162 0.0
H64 H 0.38566 0.51931 0.62444 0.0
H65 H 0.58379 0.50614 0.62156 0.0
H66 H 0.57758 0.4928 0.383 0.0
H67 H 0.37955 0.47825 0.37394 0.0
P68 P 0.10644 0.10071 0.43618 0.0
H69 H 0.08578 0.20333 0.46891 0.0
H70 H 0.99322 0.24724 0.48629 0.0
H71 H 0.88603 0.10569 0.45516 0.0
H72 H 0.97808 0.06519 0.43539 0.0
H73 H 0.22585 0.04854 0.44295 0.0
H74 H 0.25972 0.96174 0.46319 0.0
H75 H 0.0732 0.92766 0.4867 0.0
H76 H 0.03979 0.01381 0.46609 0.0
H77 H 0.09411 0.17342 0.3881 0.0
H78 H 0.07717 -0.00107 0.40238 0.0
O79 O 0.16409 0.14628 0.43924 0.0
H80 H 0.06663 0.15719 0.33739 0.0
H81 H 0.0492 0.98249 0.35186 0.0
C82 C 0.03901 0.13048 0.45144 0.0
C83 C 0.04242 0.18162 0.4661 0.0
C84 C 0.9892 0.20649 0.47626 0.0
C85 C 0.93156 0.18013 0.47232 0.0
C86 C 0.92903 0.12796 0.45822 0.0
C87 C 0.98198 0.10409 0.44733 0.0
C88 C 0.13053 0.03842 0.45337 0.0
C89 C 0.19238 0.02269 0.45277 0.0
C90 C 0.21171 0.97309 0.46455 0.0
C91 C 0.16929 0.93786 0.47695 0.0
C92 C 0.10707 0.95347 0.47713 0.0
C93 C 0.08788 0.00325 0.46542 0.0
C94 C 0.08897 0.08732 0.39883 0.0
C95 C 0.08487 0.13159 0.38026 0.0
C96 C 0.06859 0.12232 0.35138 0.0
C97 C 0.05588 0.06852 0.34065 0.0
C98 C 0.05957 0.02427 0.35944 0.0
C99 C 0.07562 0.03366 0.38834 0.0
P100 P 0.11128 0.89993 0.57141 0.0
H101 H 0.08929 0.7976 0.53769 0.0
H102 H 0.99552 0.75261 0.51919 0.0
H103 H 0.88957 0.89356 0.54843 0.0
H104 H 0.98274 0.93473 0.56963 0.0
H105 H 0.23163 0.94781 0.56304 0.0
H106 H 0.26478 0.03332 0.54227 0.0
H107 H 0.07494 0.07421 0.52149 0.0
H108 H 0.04243 0.98969 0.54287 0.0
H109 H 0.09501 0.82758 0.61884 0.0
H110 H 0.08778 0.00277 0.60469 0.0
O111 O 0.16857 0.85406 0.57017 0.0
H112 H 0.06618 0.84423 0.66838 0.0
H113 H 0.05822 0.01965 0.65401 0.0
C114 C 0.04314 0.86996 0.55458 0.0
C115 C 0.04587 0.81888 0.5399 0.0
C116 C 0.99193 0.79341 0.52905 0.0
C117 C 0.93427 0.81918 0.53222 0.0
C118 C 0.93252 0.87158 0.54603 0.0
C119 C 0.98617 0.89596 0.55768 0.0
C120 C 0.13464 0.96159 0.55415 0.0
C121 C 0.19719 0.97494 0.55377 0.0
C122 C 0.21608 0.02384 0.54167 0.0
C123 C 0.17258 0.06063 0.52984 0.0
C124 C 0.10977 0.04732 0.53065 0.0
C125 C 0.09103 -0.00165 0.54273 0.0
C126 C 0.09464 0.91391 0.60826 0.0
C127 C 0.08771 0.86965 0.62649 0.0
C128 C 0.0706 0.87919 0.65468 0.0
C129 C 0.05984 0.93328 0.6651 0.0
C130 C 0.06691 0.9776 0.64671 0.0
C131 C 0.08384 0.96795 0.61847 0.0
P132 P 0.60147 0.60295 0.9362 0.0
H133 H 0.57956 0.70359 0.97032 0.0
H134 H 0.48636 0.74611 0.98789 0.0
H135 H 0.38022 0.60642 0.95363 0.0
H136 H 0.47313 0.56706 0.93399 0.0
H137 H 0.72141 0.552 0.94359 0.0
H138 H 0.75569 0.46506 0.96351 0.0
H139 H 0.5687 0.42842 0.98539 0.0
H140 H 0.53488 0.51471 0.965 0.0
H141 H 0.59146 0.67582 0.88805 0.0
H142 H 0.57243 0.50146 0.90219 0.0
O143 O 0.65855 0.64904 0.93973 0.0
H144 H 0.56616 0.65964 0.83711 0.0
H145 H 0.54662 0.4851 0.85148 0.0
C146 C 0.53341 0.63174 0.95132 0.0
C147 C 0.5363 0.68196 0.96686 0.0
C148 C 0.48274 0.70602 0.97712 0.0
C149 C 0.42525 0.67977 0.97236 0.0
C150 C 0.42318 0.62851 0.95736 0.0
C151 C 0.47654 0.60537 0.94647 0.0
C152 C 0.62583 0.5406 0.95323 0.0
C153 C 0.68792 0.52555 0.95299 0.0
C154 C 0.70747 0.47585 0.96458 0.0
C155 C 0.66506 0.43985 0.97644 0.0
C156 C 0.60259 0.4548 0.97624 0.0
C157 C 0.58318 0.50468 0.9647 0.0
C158 C 0.58516 0.58978 0.89874 0.0
C159 C 0.5822 0.63405 0.88014 0.0
C160 C 0.56719 0.6248 0.85113 0.0
C161 C 0.5546 0.57104 0.8403 0.0
C162 C 0.557 0.52683 0.85913 0.0
C163 C 0.57179 0.53619 0.88815 0.0
P164 P 0.61037 0.40018 0.07054 0.0
H165 H 0.58821 0.29735 0.03726 0.0
H166 H 0.49436 0.25203 0.01912 0.0
H167 H 0.38852 0.39337 0.04795 0.0
H168 H 0.48179 0.43487 0.06883 0.0
H169 H 0.7302 0.4496 0.063 0.0
H170 H 0.76269 0.53569 0.0426 0.0
H171 H 0.57281 0.57445 0.02073 0.0
H172 H 0.54092 0.48923 0.04161 0.0
H173 H 0.5975 0.32764 0.11819 0.0
H174 H 0.58433 0.50248 0.10371 0.0
O175 O 0.66793 0.35461 0.06901 0.0
H176 H 0.56929 0.34388 0.16787 0.0
H177 H 0.55545 0.51891 0.15316 0.0
C178 C 0.54215 0.36997 0.05389 0.0
C179 C 0.54479 0.31866 0.03944 0.0
C180 C 0.4908 0.29298 0.0288 0.0
C181 C 0.43314 0.31875 0.03197 0.0
C182 C 0.43146 0.37137 0.04556 0.0
C183 C 0.48517 0.39595 0.05702 0.0
C184 C 0.63324 0.46219 0.05346 0.0
C185 C 0.69562 0.47637 0.05355 0.0
C186 C 0.71414 0.5256 0.04167 0.0
C187 C 0.67042 0.56194 0.02965 0.0
C188 C 0.60777 0.54787 0.03003 0.0
C189 C 0.5894 0.49852 0.04185 0.0
C190 C 0.59421 0.41386 0.10745 0.0
C191 C 0.58906 0.36956 0.1258 0.0
C192 C 0.57231 0.37884 0.15406 0.0
C193 C 0.5601 0.4327 0.16442 0.0
C194 C 0.56531 0.47706 0.1459 0.0
C195 C 0.58188 0.46766 0.1176 0.0
C196 C 0.11478 0.16192 0.98533 0.0
C197 C 0.11208 0.11678 0.00326 0.0
C198 C 0.16542 0.19806 0.98721 0.0
C199 C 0.21504 0.18724 0.0067 0.0
C200 C 0.21319 0.14042 0.02408 0.0
C201 C 0.16118 0.10633 0.0225 0.0
C202 C 0.165 0.2486 0.96907 0.0
C203 C 0.26591 0.12652 0.04455 0.0
C204 C 0.37286 0.25123 -0.00011 0.0
C205 C 0.3749 0.28932 0.02314 0.0
C206 C 0.32031 0.2188 0.99359 0.0
C207 C 0.26779 0.22601 0.01029 0.0
C208 C 0.26801 0.26671 0.03255 0.0
C209 C 0.32179 0.29699 0.03907 0.0
C210 C 0.32223 0.17484 0.97008 0.0
C211 C 0.21235 0.27652 0.05045 0.0
H212 H 0.07654 0.16982 0.9705 0.0
H213 H 0.1593 0.07079 0.03604 0.0
H214 H 0.16543 0.28636 0.9831 0.0
H215 H 0.207 0.24975 0.95634 0.0
H216 H 0.12395 0.24999 0.95427 0.0
H217 H 0.25929 0.08617 0.05473 0.0
H218 H 0.3098 0.12516 0.03314 0.0
H219 H 0.27062 0.15908 0.06165 0.0
H220 H 0.41279 0.24572 0.98692 0.0
H221 H 0.32255 0.32518 0.05746 0.0
H222 H 0.28172 0.1784 0.95517 0.0
H223 H 0.32017 0.13341 0.97956 0.0
H224 H 0.36472 0.17727 0.95768 0.0
H225 H 0.17008 0.27965 0.03657 0.0
H226 H 0.21687 0.31477 0.06405 0.0
H227 H 0.20617 0.24109 0.06458 0.0
C228 C 0.15905 0.89422 0.98348 0.0
C229 C 0.11017 0.88259 0.00097 0.0
C230 C 0.20976 0.85883 0.98199 0.0
C231 C 0.21036 0.80959 0.99759 0.0
C232 C 0.16093 0.7976 0.01534 0.0
C233 C 0.11168 0.83499 0.01725 0.0
C234 C 0.2624 0.87396 0.96348 0.0
C235 C 0.15913 0.7446 0.03149 0.0
C236 C 0.31345 0.70242 0.96391 0.0
C237 C 0.36749 0.7076 0.98117 0.0
C238 C 0.26036 0.7324 0.97034 0.0
C239 C 0.26178 0.76998 0.99404 0.0
C240 C 0.3151 0.774 0.01222 0.0
C241 C 0.367 0.74213 0.00581 0.0
C242 C 0.20382 0.72606 0.95078 0.0
C243 C 0.31868 0.81439 0.03742 0.0
H244 H 0.15794 0.93157 0.97121 0.0
H245 H 0.07347 0.82619 0.03067 0.0
H246 H 0.30663 0.87262 0.97604 0.0
H247 H 0.26554 0.84355 0.94541 0.0
H248 H 0.25686 0.91582 0.95461 0.0
H249 H 0.11865 0.74256 0.04524 0.0
H250 H 0.15735 0.70885 0.01609 0.0
H251 H 0.20161 0.74019 0.04506 0.0
H252 H 0.31308 0.67674 0.94458 0.0
H253 H 0.40778 0.74547 0.01975 0.0
H254 H 0.19812 0.76341 0.93776 0.0
H255 H 0.16193 0.72206 0.96343 0.0
H256 H 0.20694 0.68947 0.93602 0.0
H257 H 0.3182 0.85721 0.02956 0.0
H258 H 0.3611 0.8088 0.05098 0.0
H259 H 0.27811 0.80995 0.05086 0.0
C260 C 0.83496 0.84168 0.02673 0.0
C261 C 0.83786 0.87114 0.00148 0.0
C262 C 0.80134 0.79262 0.02755 0.0
C263 C 0.76835 0.77311 0.00267 0.0
C264 C 0.76853 0.80391 0.97741 0.0
C265 C 0.8042 0.85234 0.97697 0.0
C266 C 0.80315 0.7606 0.05483 0.0
C267 C 0.73233 0.78509 0.95078 0.0
C268 C 0.74616 0.61881 0.00406 0.0
C269 C 0.69025 0.61526 0.01796 0.0
C270 C 0.77016 0.67003 0.99686 0.0
C271 C 0.73688 0.71882 0.00323 0.0
C272 C 0.67785 0.71517 0.01478 0.0
C273 C 0.65547 0.66347 0.0223 0.0
C274 C 0.83345 0.67209 0.98464 0.0
C275 C 0.64011 0.7662 0.02101 0.0
H276 H 0.86111 0.85578 0.04572 0.0
H277 H 0.80607 0.87521 0.95745 0.0
H278 H 0.75583 0.75461 0.06228 0.0
H279 H 0.82308 0.71901 0.05078 0.0
H280 H 0.83092 0.78171 0.07229 0.0
H281 H 0.73001 0.81752 0.93446 0.0
H282 H 0.75422 0.74785 0.94125 0.0
H283 H 0.68478 0.77344 0.95607 0.0
H284 H 0.77242 0.58164 -0.00028 0.0
H285 H 0.61214 0.66146 0.03295 0.0
H286 H 0.86658 0.68957 0.0011 0.0
H287 H 0.83362 0.69944 0.96606 0.0
H288 H 0.84995 0.6305 0.9778 0.0
H289 H 0.66024 0.7887 0.0401 0.0
H290 H 0.59153 0.75586 0.02523 0.0
H291 H 0.64074 0.79458 0.00283 0.0
C292 C 0.80654 0.14654 0.02435 0.0
C293 C 0.83692 0.12932 -0.00032 0.0
C294 C 0.77017 0.19456 0.02452 0.0
C295 C 0.76581 0.22662 -0.00028 0.0
C296 C 0.79511 0.20853 0.97459 0.0
C297 C 0.82964 0.15978 0.9748 0.0
C298 C 0.73801 0.21179 0.0514 0.0
C299 C 0.79225 0.24191 0.94778 0.0
C300 C 0.6501 0.33809 0.98245 0.0
C301 C 0.68594 0.38584 0.98754 0.0
C302 C 0.67349 0.28575 0.98891 0.0
C303 C 0.73451 0.28108 0.0001 0.0
C304 C 0.76903 0.32932 0.00738 0.0
C305 C 0.74402 0.38114 0.00129 0.0
C306 C 0.63439 0.2353 0.98194 0.0
C307 C 0.83432 0.32619 0.01937 0.0
H308 H 0.81169 0.12282 0.04358 0.0
H309 H 0.85316 0.1468 0.9557 0.0
H310 H 0.76201 0.24792 0.06176 0.0
H311 H 0.68992 0.22457 0.04629 0.0
H312 H 0.73744 0.17807 0.06699 0.0
H313 H 0.81692 0.22158 0.92995 0.0
H314 H 0.74367 0.24843 0.94062 0.0
H315 H 0.81304 0.28325 0.95231 0.0
H316 H 0.60502 0.34104 0.97197 0.0
H317 H 0.77116 0.41795 0.00624 0.0
H318 H 0.63815 0.20558 -0.00048 0.0
H319 H 0.65095 0.2141 0.96234 0.0
H320 H 0.58513 0.24613 0.97822 0.0
H321 H 0.83735 0.29784 0.03754 0.0
H322 H 0.85232 0.36732 0.02676 0.0
H323 H 0.86456 0.30937 0.0026 0.0
C324 C 0.61661 0.66153 0.48508 0.0
C325 C 0.61447 0.61613 0.50286 0.0
C326 C 0.66693 0.69804 0.487 0.0
C327 C 0.71679 0.68734 0.50639 0.0
C328 C 0.7155 0.64028 0.52361 0.0
C329 C 0.66381 0.60581 0.52199 0.0
C330 C 0.66591 0.74882 0.46903 0.0
C331 C 0.76849 0.62652 0.54395 0.0
C332 C 0.87417 0.75222 0.49975 0.0
C333 C 0.87607 0.78988 0.52318 0.0
C334 C 0.82174 0.71975 0.49329 0.0
C335 C 0.7692 0.72645 0.51003 0.0
C336 C 0.76925 0.76682 0.53245 0.0
C337 C 0.82292 0.79718 0.53912 0.0
C338 C 0.82383 0.67619 0.46959 0.0
C339 C 0.71358 0.77608 0.55041 0.0
H340 H 0.57818 0.66934 0.47034 0.0
H341 H 0.66236 0.57008 0.53541 0.0
H342 H 0.66598 0.7864 0.48319 0.0
H343 H 0.70785 0.75052 0.45629 0.0
H344 H 0.6248 0.75004 0.45426 0.0
H345 H 0.76231 0.58598 0.55402 0.0
H346 H 0.8123 0.62562 0.53249 0.0
H347 H 0.77301 0.6589 0.56115 0.0
H348 H 0.91415 0.74704 0.48679 0.0
H349 H 0.82357 0.82506 0.55763 0.0
H350 H 0.7831 0.67961 0.4548 0.0
H351 H 0.82236 0.63458 0.4789 0.0
H352 H 0.86613 0.6792 0.4571 0.0
H353 H 0.67124 0.7791 0.53658 0.0
H354 H 0.71786 0.81422 0.56412 0.0
H355 H 0.70774 0.74046 0.56445 0.0
C356 C 0.61863 0.33594 0.51755 0.0
C357 C 0.61505 0.38209 0.50024 0.0
C358 C 0.66844 0.29914 0.51576 0.0
C359 C 0.71636 0.3103 0.49702 0.0
C360 C 0.71367 0.35809 0.48029 0.0
C361 C 0.66243 0.39286 0.48174 0.0
C362 C 0.66886 0.24761 0.53315 0.0
C363 C 0.76467 0.37234 0.46067 0.0
C364 C 0.8744 0.24525 0.50488 0.0
C365 C 0.87405 0.2086 0.48104 0.0
C366 C 0.82251 0.2773 0.5111 0.0
C367 C 0.76831 0.27119 0.49365 0.0
C368 C 0.76614 0.23164 0.47082 0.0
C369 C 0.81925 0.20164 0.46446 0.0
C370 C 0.82692 0.31993 0.53528 0.0
C371 C 0.70865 0.223 0.45212 0.0
H372 H 0.58163 0.32778 0.53177 0.0
H373 H 0.65981 0.42912 0.46867 0.0
H374 H 0.66722 0.2106 0.51858 0.0
H375 H 0.7121 0.24513 0.54636 0.0
H376 H 0.62921 0.24602 0.54743 0.0
H377 H 0.75767 0.41325 0.4509 0.0
H378 H 0.80968 0.37268 0.47264 0.0
H379 H 0.76729 0.3405 0.44323 0.0
H380 H 0.91574 0.25005 0.51834 0.0
H381 H 0.81815 0.17439 0.4457 0.0
H382 H 0.78752 0.31602 0.54949 0.0
H383 H 0.82474 0.36192 0.52639 0.0
H384 H 0.87039 0.31631 0.54832 0.0
H385 H 0.66764 0.21961 0.46541 0.0
H386 H 0.71154 0.18528 0.43814 0.0
H387 H 0.70148 0.25909 0.43831 0.0
C388 C 0.30847 0.34988 0.47657 0.0
C389 C 0.3424 0.36852 0.50103 0.0
C390 C 0.27266 0.30154 0.47703 0.0
C391 C 0.27258 0.27064 0.50225 0.0
C392 C 0.306 0.28991 0.52707 0.0
C393 C 0.33978 0.33888 0.52623 0.0
C394 C 0.23609 0.28295 0.45045 0.0
C395 C 0.30791 0.25779 0.55432 0.0
C396 C 0.15869 0.16223 0.5223 0.0
C397 C 0.19285 0.11366 0.51795 0.0
C398 C 0.18156 0.21365 0.51463 0.0
C399 C 0.24047 0.21666 0.50291 0.0
C400 C 0.27308 0.16752 0.49649 0.0
C401 C 0.24858 0.11659 0.50386 0.0
C402 C 0.14449 0.26506 0.5209 0.0
C403 C 0.33619 0.1689 0.48407 0.0
H404 H 0.31015 0.37287 0.45708 0.0
H405 H 0.36615 0.35283 0.54518 0.0
H406 H 0.25763 0.2456 0.44087 0.0
H407 H 0.18851 0.27156 0.45583 0.0
H408 H 0.23384 0.31542 0.43416 0.0
H409 H 0.33621 0.27859 0.5717 0.0
H410 H 0.26066 0.25225 0.56195 0.0
H411 H 0.32727 0.21602 0.55016 0.0
H412 H 0.11551 0.16074 0.53311 0.0
H413 H 0.27437 0.07915 0.4995 0.0
H414 H 0.14541 0.29344 0.50272 0.0
H415 H 0.16498 0.28735 0.53998 0.0
H416 H 0.09581 0.25522 0.52515 0.0
H417 H 0.33651 0.19635 0.46553 0.0
H418 H 0.35195 0.12714 0.4771 0.0
H419 H 0.3698 0.18587 0.50045 0.0
C420 C 0.3098 0.64406 0.52449 0.0
C421 C 0.33946 0.62674 0.49964 0.0
C422 C 0.27355 0.69215 0.52485 0.0
C423 C 0.26861 0.72419 0.50006 0.0
C424 C 0.29704 0.70592 0.47474 0.0
C425 C 0.33146 0.6571 0.47476 0.0
C426 C 0.24235 0.70955 0.55197 0.0
C427 C 0.29349 0.73924 0.44791 0.0
C428 C 0.1534 0.83637 0.48341 0.0
C429 C 0.18983 0.88386 0.48817 0.0
C430 C 0.17648 0.7839 0.48983 0.0
C431 C 0.23775 0.77885 0.50064 0.0
C432 C 0.27286 0.82687 0.50766 0.0
C433 C 0.24816 0.87884 0.50163 0.0
C434 C 0.13677 0.7337 0.48319 0.0
C435 C 0.33841 0.82332 0.51928 0.0
H436 H 0.31551 0.62043 0.54373 0.0
H437 H 0.35439 0.64404 0.45552 0.0
H438 H 0.26765 0.74481 0.56247 0.0
H439 H 0.19457 0.7236 0.54717 0.0
H440 H 0.24107 0.67546 0.56732 0.0
H441 H 0.31739 0.71871 0.4299 0.0
H442 H 0.24475 0.74604 0.4411 0.0
H443 H 0.31472 0.78046 0.45226 0.0
H444 H 0.10809 0.83961 0.47318 0.0
H445 H 0.27574 0.91549 0.50634 0.0
H446 H 0.14056 0.70423 0.50088 0.0
H447 H 0.15278 0.71207 0.46361 0.0
H448 H 0.08757 0.74489 0.47961 0.0
H449 H 0.34162 0.79513 0.53751 0.0
H450 H 0.357 0.86436 0.52646 0.0
H451 H 0.36802 0.80606 0.50237 0.0
C452 C 0.03385 0.05849 0.17142 0.0
C453 C 0.98763 0.02378 0.15933 0.0
C454 C 0.042 0.06542 0.20113 0.0
C455 C 0.00278 0.03714 0.21926 0.0
C456 C 0.95522 0.00286 0.20725 0.0
C457 C 0.94819 -0.00342 0.17738 0.0
C458 C 0.09308 0.10256 0.21311 0.0
C459 C 0.91251 0.97213 0.22595 0.0
C460 C 0.06661 0.01495 0.29455 0.0
C461 C 0.03951 0.05863 0.30987 0.0
C462 C 0.05379 0.00661 0.26516 0.0
C463 C 0.01275 0.04276 0.25079 0.0
C464 C 0.98405 0.08609 0.26627 0.0
C465 C -0.00212 0.09358 0.29564 0.0
C466 C 0.08557 0.96012 0.24933 0.0
C467 C 0.93973 0.12523 0.2517 0.0
H468 H 0.06374 0.08044 0.15757 0.0
H469 H 0.91269 0.96939 0.16816 0.0
H470 H 0.07386 0.13556 0.2271 0.0
H471 H 0.12584 0.07836 0.22649 0.0
H472 H 0.11896 0.12222 0.19607 0.0
H473 H 0.87637 0.94884 0.21328 0.0
H474 H 0.93929 0.94262 0.23916 0.0
H475 H 0.88986 0.00149 0.24087 0.0
H476 H 0.09926 0.98816 0.3054 0.0
H477 H 0.97612 0.1269 0.3075 0.0
H478 H 0.11618 0.97739 0.23335 0.0
H479 H 0.05113 0.9336 0.23748 0.0
H480 H 0.11362 0.93392 0.26391 0.0
H481 H 0.96413 0.149 0.23565 0.0
H482 H 0.91874 0.15487 0.26707 0.0
H483 H 0.90239 0.10167 0.24008 0.0
C484 C 0.028 0.94094 0.83295 0.0
C485 C 0.98251 0.97661 0.8433 0.0
C486 C 0.0371 0.9343 0.80358 0.0
C487 C -0.00032 0.96394 0.78398 0.0
C488 C 0.95264 -0.00095 0.79419 0.0
C489 C 0.94453 0.00491 0.82379 0.0
C490 C 0.08749 0.89618 0.79355 0.0
C491 C 0.91184 0.03125 0.77391 0.0
C492 C 0.06896 0.98605 0.71191 0.0
C493 C 0.04159 0.94328 0.69508 0.0
C494 C 0.05432 0.99429 0.74067 0.0
C495 C 0.01118 0.95895 0.75288 0.0
C496 C 0.98213 0.91665 0.7358 0.0
C497 C 0.99775 0.90928 0.70711 0.0
C498 C 0.08648 0.03971 0.75824 0.0
C499 C 0.93567 0.87834 0.74802 0.0
H500 H 0.05673 0.91816 0.84791 0.0
H501 H 0.90958 0.03278 0.83169 0.0
H502 H 0.06799 0.86419 0.77837 0.0
H503 H 0.12182 0.91995 0.78195 0.0
H504 H 0.11164 0.87522 0.81153 0.0
H505 H 0.87562 0.05479 0.78516 0.0
H506 H 0.94011 0.06073 0.76226 0.0
H507 H 0.88936 0.00288 0.75768 0.0
H508 H 0.10325 0.01214 0.70281 0.0
H509 H 0.97571 0.87672 0.69407 0.0
H510 H 0.11573 0.02137 0.77541 0.0
H511 H 0.05219 0.06665 0.76876 0.0
H512 H 0.11597 0.06569 0.74513 0.0
H513 H 0.95832 0.85341 0.76491 0.0
H514 H 0.9145 0.84975 0.73147 0.0
H515 H 0.89861 0.90258 0.75818 0.0
C516 C 0.53749 0.5578 0.6708 0.0
C517 C 0.4912 0.52303 0.65882 0.0
C518 C 0.54527 0.56547 0.70049 0.0
C519 C 0.50557 0.53794 0.71869 0.0
C520 C 0.458 0.50356 0.70679 0.0
C521 C 0.45137 0.49649 0.67694 0.0
C522 C 0.59643 0.60263 0.71237 0.0
C523 C 0.41477 0.47362 0.72558 0.0
C524 C 0.56715 0.51708 0.79447 0.0
C525 C 0.53969 0.56108 0.8094 0.0
C526 C 0.55535 0.50834 0.76503 0.0
C527 C 0.51499 0.5444 0.75021 0.0
C528 C 0.48611 0.58821 0.76527 0.0
C529 C 0.49892 0.5961 0.7947 0.0
C530 C 0.58732 0.46138 0.74966 0.0
C531 C 0.44252 0.62729 0.7502 0.0
H532 H 0.56768 0.57927 0.6569 0.0
H533 H 0.41582 0.46925 0.66782 0.0
H534 H 0.57719 0.63618 0.726 0.0
H535 H 0.62874 0.57867 0.72609 0.0
H536 H 0.62281 0.62156 0.69527 0.0
H537 H 0.37878 0.45005 0.71295 0.0
H538 H 0.44116 0.44448 0.73917 0.0
H539 H 0.39192 0.50355 0.74013 0.0
H540 H 0.59919 0.49026 0.80569 0.0
H541 H 0.47693 0.62969 0.80625 0.0
H542 H 0.61819 0.47812 0.73364 0.0
H543 H 0.55298 0.43459 0.73791 0.0
H544 H 0.6151 0.43556 0.76453 0.0
H545 H 0.46745 0.65023 0.73401 0.0
H546 H 0.42165 0.65765 0.76523 0.0
H547 H 0.40507 0.60371 0.73867 0.0
C548 C 0.44605 0.50295 0.32342 0.0
C549 C 0.48505 0.47552 0.34287 0.0
C550 C 0.45379 0.49706 0.2938 0.0
C551 C 0.50154 0.46289 0.2835 0.0
C552 C 0.54008 0.43418 0.30302 0.0
C553 C 0.53127 0.44075 0.33242 0.0
C554 C 0.41177 0.52824 0.27358 0.0
C555 C 0.5913 0.39709 0.2929 0.0
C556 C 0.49965 0.40758 0.20676 0.0
C557 C 0.54225 0.44246 0.19447 0.0
C558 C 0.48439 0.41484 0.2355 0.0
C559 C 0.51257 0.4579 0.25236 0.0
C560 C 0.55447 0.49408 0.2399 0.0
C561 C 0.56875 0.48595 0.21108 0.0
C562 C 0.43925 0.37564 0.24799 0.0
C563 C 0.5857 0.54031 0.25723 0.0
H564 H 0.41051 0.53013 0.33139 0.0
H565 H 0.5608 0.41862 0.34733 0.0
H566 H 0.43902 0.55819 0.26174 0.0
H567 H 0.38974 0.49927 0.25751 0.0
H568 H 0.37517 0.55111 0.28492 0.0
H569 H 0.6164 0.37686 0.31084 0.0
H570 H 0.5724 0.36454 0.27789 0.0
H571 H 0.6247 0.42151 0.28107 0.0
H572 H 0.47827 0.37446 0.19387 0.0
H573 H 0.60209 0.51273 0.20177 0.0
H574 H 0.40174 0.39915 0.25824 0.0
H575 H 0.46288 0.35135 0.26487 0.0
H576 H 0.41856 0.34646 0.2316 0.0
H577 H 0.5509 0.5666 0.26781 0.0
H578 H 0.61423 0.56681 0.24394 0.0
H579 H 0.61575 0.52276 0.27435 0.0
loop_
_geom_bond_atom_site_label_1
_geom_bond_atom_site_label_2
_geom_bond_distance
_geom_bond_site_symmetry_2
_ccdc_geom_bond_type
C0 O16 1.251 . S
C0 O18 1.254 1_554 S
N1 C2 1.333 1_445 S
N1 C6 1.307 . S
N1 Zn7 2.020 . S
C2 N1 1.333 1_665 S
C2 C3 1.379 . S
C2 H20 0.952 . S
C3 C2 1.379 . S
C3 C4 1.390 1_665 S
C3 H30 0.949 . S
C4 C3 1.390 1_445 S
C4 C5 1.357 . S
C5 C4 1.357 . S
C5 C6 1.370 . S
C5 H31 0.950 . S
C6 N1 1.307 . S
C6 C5 1.370 . S
C6 H24 0.948 . S
Zn7 N1 2.020 . S
Zn7 O16 2.039 1_445 S
Zn7 O22 2.034 1_455 S
Zn7 O26 2.025 . S
Zn7 O28 2.024 1_545 S
C8 O27 1.246 1_554 S
C8 O28 1.249 . S
N9 C10 1.304 1_445 S
N9 C11 1.339 . S
N9 Zn15 2.020 . S
C10 N9 1.304 1_665 S
C10 C14 1.370 . S
C10 H21 0.948 . S
C11 N9 1.339 . S
C11 C12 1.379 . S
C11 H19 0.952 . S
C12 C11 1.379 . S
C12 C13 1.390 . S
C12 H32 0.949 . S
C13 C12 1.390 . S
C13 C14 1.357 1_445 S
C14 C10 1.370 . S
C14 C13 1.357 1_665 S
C14 H33 0.950 . S
Zn15 N9 2.020 . S
Zn15 O18 2.025 1_445 S
Zn15 O23 2.024 1_455 S
Zn15 O25 2.039 . S
Zn15 O27 2.034 1_545 S
O16 C0 1.251 . S
O16 Zn7 2.039 1_665 S
C17 O22 1.246 . S
C17 O23 1.249 1_554 S
O18 C0 1.254 1_556 S
O18 Zn15 2.025 1_665 S
H19 C11 0.952 . S
H20 C2 0.952 . S
H21 C10 0.948 . S
O22 Zn7 2.034 1_655 S
O22 C17 1.246 . S
O23 Zn15 2.024 1_655 S
O23 C17 1.249 1_556 S
H24 C6 0.948 . S
O25 Zn15 2.039 . S
O25 C29 1.251 1_556 S
O26 Zn7 2.025 . S
O26 C29 1.254 . S
O27 C8 1.246 1_556 S
O27 Zn15 2.034 1_565 S
O28 Zn7 2.024 1_565 S
O28 C8 1.249 . S
C29 O25 1.251 1_554 S
C29 O26 1.254 . S
H30 C3 0.949 . S
H31 C5 0.950 . S
H32 C12 0.949 . S
H33 C14 0.950 . S
C34 O50 1.251 . S
C34 O52 1.254 . S
N35 C36 1.333 . S
N35 C40 1.307 . S
N35 Zn41 2.020 . S
C36 N35 1.333 . S
C36 C37 1.379 . S
C36 H54 0.952 . S
C37 C36 1.379 . S
C37 C38 1.390 . S
C37 H64 0.949 . S
C38 C37 1.390 . S
C38 C39 1.357 . S
C39 C38 1.357 . S
C39 C40 1.370 . S
C39 H65 0.950 . S
C40 N35 1.307 . S
C40 C39 1.370 . S
C40 H58 0.948 . S
Zn41 N35 2.020 . S
Zn41 O50 2.039 . S
Zn41 O56 2.034 . S
Zn41 O60 2.025 . S
Zn41 O62 2.024 . S
C42 O61 1.246 . S
C42 O62 1.249 . S
N43 C44 1.307 . S
N43 C45 1.333 . S
N43 Zn49 2.020 . S
C44 N43 1.307 . S
C44 C48 1.370 . S
C44 H55 0.948 . S
C45 N43 1.333 . S
C45 C46 1.379 . S
C45 H53 0.952 . S
C46 C45 1.379 . S
C46 C47 1.390 . S
C46 H66 0.949 . S
C47 C46 1.390 . S
C47 C48 1.357 . S
C48 C44 1.370 . S
C48 C47 1.357 . S
C48 H67 0.950 . S
Zn49 N43 2.020 . S
Zn49 O52 2.025 . S
Zn49 O57 2.024 . S
Zn49 O59 2.039 . S
Zn49 O61 2.034 . S
O50 C34 1.251 . S
O50 Zn41 2.039 . S
C51 O56 1.246 . S
C51 O57 1.249 . S
O52 C34 1.254 . S
O52 Zn49 2.025 . S
H53 C45 0.952 . S
H54 C36 0.952 . S
H55 C44 0.948 . S
O56 Zn41 2.034 . S
O56 C51 1.246 . S
O57 Zn49 2.024 . S
O57 C51 1.249 . S
H58 C40 0.948 . S
O59 Zn49 2.039 . S
O59 C63 1.251 . S
O60 Zn41 2.025 . S
O60 C63 1.254 . S
O61 C42 1.246 . S
O61 Zn49 2.034 . S
O62 Zn41 2.024 . S
O62 C42 1.249 . S
C63 O59 1.251 . S
C63 O60 1.254 . S
H64 C37 0.949 . S
H65 C39 0.950 . S
H66 C46 0.949 . S
H67 C48 0.950 . S
P68 O79 1.490 . S
P68 C82 1.812 1_455 S
P68 C88 1.803 1_545 S
P68 C94 1.819 . S
H69 C83 0.941 . S
H70 C84 0.939 . S
H71 C86 0.940 . S
H72 C87 0.940 . S
H73 C89 0.939 . S
H74 C90 0.942 . S
H75 C92 0.940 . S
H76 C93 0.939 . S
H77 C95 0.941 . S
H78 C99 0.939 . S
O79 P68 1.490 . S
H80 C96 0.939 . S
H81 C98 0.940 . S
C82 P68 1.812 1_655 S
C82 C83 1.389 1_655 S
C82 C87 1.391 . S
C83 H69 0.941 . S
C83 C82 1.389 1_455 S
C83 C84 1.397 1_455 S
C84 H70 0.939 . S
C84 C83 1.397 1_655 S
C84 C85 1.378 . S
C85 C84 1.378 . S
C85 C86 1.378 . S
C86 H71 0.940 . S
C86 C85 1.378 . S
C86 C87 1.396 . S
C87 H72 0.940 . S
C87 C82 1.391 . S
C87 C86 1.396 . S
C88 P68 1.803 1_565 S
C88 C89 1.378 . S
C88 C93 1.400 . S
C89 H73 0.939 . S
C89 C88 1.378 . S
C89 C90 1.361 . S
C90 H74 0.942 . S
C90 C89 1.361 . S
C90 C91 1.369 . S
C91 C90 1.369 . S
C91 C92 1.404 . S
C92 H75 0.940 . S
C92 C91 1.404 . S
C92 C93 1.389 . S
C93 H76 0.939 . S
C93 C88 1.400 . S
C93 C92 1.389 . S
C94 P68 1.819 . S
C94 C95 1.391 . S
C94 C99 1.391 1_545 S
C95 H77 0.941 . S
C95 C94 1.391 . S
C95 C96 1.396 . S
C96 H80 0.939 . S
C96 C95 1.396 . S
C96 C97 1.397 . S
C97 C96 1.397 . S
C97 C98 1.385 1_545 S
C98 H81 0.940 . S
C98 C97 1.385 1_565 S
C98 C99 1.388 . S
C99 H78 0.939 . S
C99 C94 1.391 1_565 S
C99 C98 1.388 . S
P100 O111 1.490 . S
P100 C114 1.812 . S
P100 C120 1.803 1_565 S
P100 C126 1.819 . S
H101 C115 0.941 . S
H102 C116 0.939 . S
H103 C118 0.940 . S
H104 C119 0.940 . S
H105 C121 0.939 . S
H106 C122 0.942 . S
H107 C124 0.940 . S
H108 C125 0.939 . S
H109 C127 0.941 . S
H110 C131 0.939 . S
O111 P100 1.490 . S
H112 C128 0.939 . S
H113 C130 0.940 . S
C114 P100 1.812 . S
C114 C115 1.389 . S
C114 C119 1.391 1_455 S
C115 H101 0.941 . S
C115 C114 1.389 . S
C115 C116 1.397 1_455 S
C116 H102 0.939 . S
C116 C115 1.397 1_655 S
C116 C117 1.378 . S
C117 C116 1.378 . S
C117 C118 1.378 . S
C118 H103 0.940 . S
C118 C117 1.378 . S
C118 C119 1.396 . S
C119 H104 0.940 . S
C119 C114 1.391 1_655 S
C119 C118 1.396 . S
C120 P100 1.803 1_545 S
C120 C121 1.378 . S
C120 C125 1.400 . S
C121 H105 0.939 . S
C121 C120 1.378 . S
C121 C122 1.361 . S
C122 H106 0.942 . S
C122 C121 1.361 . S
C122 C123 1.369 . S
C123 C122 1.369 . S
C123 C124 1.404 . S
C124 H107 0.940 . S
C124 C123 1.404 . S
C124 C125 1.389 . S
C125 H108 0.939 . S
C125 C120 1.400 . S
C125 C124 1.389 . S
C126 P100 1.819 . S
C126 C127 1.391 . S
C126 C131 1.391 1_565 S
C127 H109 0.941 . S
C127 C126 1.391 . S
C127 C128 1.396 . S
C128 H112 0.939 . S
C128 C127 1.396 . S
C128 C129 1.397 . S
C129 C128 1.397 . S
C129 C130 1.385 1_565 S
C130 H113 0.940 . S
C130 C129 1.385 1_545 S
C130 C131 1.388 . S
C131 H110 0.939 . S
C131 C126 1.391 1_545 S
C131 C130 1.388 . S
P132 O143 1.490 . S
P132 C146 1.812 . S
P132 C152 1.803 . S
P132 C158 1.819 . S
H133 C147 0.941 . S
H134 C148 0.939 1_554 S
H135 C150 0.940 . S
H136 C151 0.940 . S
H137 C153 0.939 . S
H138 C154 0.942 . S
H139 C156 0.940 . S
H140 C157 0.939 . S
H141 C159 0.941 . S
H142 C163 0.939 . S
O143 P132 1.490 . S
H144 C160 0.939 . S
H145 C162 0.940 . S
C146 P132 1.812 . S
C146 C147 1.389 . S
C146 C151 1.391 . S
C147 H133 0.941 . S
C147 C146 1.389 . S
C147 C148 1.397 . S
C148 H134 0.939 1_556 S
C148 C147 1.397 . S
C148 C149 1.378 . S
C149 C148 1.378 . S
C149 C150 1.378 . S
C150 H135 0.940 . S
C150 C149 1.378 . S
C150 C151 1.396 . S
C151 H136 0.940 . S
C151 C146 1.391 . S
C151 C150 1.396 . S
C152 P132 1.803 . S
C152 C153 1.378 . S
C152 C157 1.400 . S
C153 H137 0.939 . S
C153 C152 1.378 . S
C153 C154 1.361 . S
C154 H138 0.942 . S
C154 C153 1.361 . S
C154 C155 1.369 . S
C155 C154 1.369 . S
C155 C156 1.404 . S
C156 H139 0.940 . S
C156 C155 1.404 . S
C156 C157 1.389 . S
C157 H140 0.939 . S
C157 C152 1.400 . S
C157 C156 1.389 . S
C158 P132 1.819 . S
C158 C159 1.391 . S
C158 C163 1.391 . S
C159 H141 0.941 . S
C159 C158 1.391 . S
C159 C160 1.396 . S
C160 H144 0.939 . S
C160 C159 1.396 . S
C160 C161 1.397 . S
C161 C160 1.397 . S
C161 C162 1.385 . S
C162 H145 0.940 . S
C162 C161 1.385 . S
C162 C163 1.388 . S
C163 H142 0.939 . S
C163 C158 1.391 . S
C163 C162 1.388 . S
P164 O175 1.490 . S
P164 C178 1.812 . S
P164 C184 1.803 . S
P164 C190 1.819 . S
H165 C179 0.941 . S
H166 C180 0.939 1_556 S
H167 C182 0.940 . S
H168 C183 0.940 . S
H169 C185 0.939 . S
H170 C186 0.942 . S
H171 C188 0.940 . S
H172 C189 0.939 . S
H173 C191 0.941 . S
H174 C195 0.939 . S
O175 P164 1.490 . S
H176 C192 0.939 . S
H177 C194 0.940 . S
C178 P164 1.812 . S
C178 C179 1.389 . S
C178 C183 1.391 . S
C179 H165 0.941 . S
C179 C178 1.389 . S
C179 C180 1.397 . S
C180 H166 0.939 1_554 S
C180 C179 1.397 . S
C180 C181 1.378 . S
C181 C180 1.378 . S
C181 C182 1.378 . S
C182 H167 0.940 . S
C182 C181 1.378 . S
C182 C183 1.396 . S
C183 H168 0.940 . S
C183 C178 1.391 . S
C183 C182 1.396 . S
C184 P164 1.803 . S
C184 C185 1.378 . S
C184 C189 1.400 . S
C185 H169 0.939 . S
C185 C184 1.378 . S
C185 C186 1.361 . S
C186 H170 0.942 . S
C186 C185 1.361 . S
C186 C187 1.369 . S
C187 C186 1.369 . S
C187 C188 1.404 . S
C188 H171 0.940 . S
C188 C187 1.404 . S
C188 C189 1.389 . S
C189 H172 0.939 . S
C189 C184 1.400 . S
C189 C188 1.389 . S
C190 P164 1.819 . S
C190 C191 1.391 . S
C190 C195 1.391 . S
C191 H173 0.941 . S
C191 C190 1.391 . S
C191 C192 1.396 . S
C192 H176 0.939 . S
C192 C191 1.396 . S
C192 C193 1.397 . S
C193 C192 1.397 . S
C193 C194 1.385 . S
C194 H177 0.940 . S
C194 C193 1.385 . S
C194 C195 1.388 . S
C195 H174 0.939 . S
C195 C190 1.391 . S
C195 C194 1.388 . S
C196 C197 1.391 . S
C196 C198 1.394 . S
C196 H212 0.931 1_554 S
C197 C196 1.391 . S
C197 C201 1.376 . S
C198 C196 1.394 . S
C198 C199 1.369 . S
C198 C202 1.531 . S
C199 C198 1.369 . S
C199 C200 1.410 . S
C199 C207 1.503 . S
C200 C199 1.410 . S
C200 C201 1.392 . S
C200 C203 1.511 . S
C201 C197 1.376 . S
C201 C200 1.392 . S
C201 H213 0.929 . S
C202 C198 1.531 . S
C202 H214 0.960 . S
C202 H215 0.962 1_554 S
C202 H216 0.960 . S
C203 C200 1.511 . S
C203 H217 0.961 . S
C203 H218 0.961 . S
C203 H219 0.961 . S
C204 C205 1.370 1_556 S
C204 C206 1.363 . S
C204 H220 0.931 . S
C205 C204 1.370 1_554 S
C205 C209 1.408 . S
C206 C204 1.363 . S
C206 C207 1.370 1_556 S
C206 C210 1.524 . S
C207 C199 1.503 . S
C207 C206 1.370 1_554 S
C207 C208 1.403 . S
C208 C207 1.403 . S
C208 C209 1.404 . S
C208 C211 1.539 . S
C209 C205 1.408 . S
C209 C208 1.404 . S
C209 H221 0.930 . S
C210 C206 1.524 . S
C210 H222 0.956 . S
C210 H223 0.961 . S
C210 H224 0.961 . S
C211 C208 1.539 . S
C211 H225 0.958 . S
C211 H226 0.961 . S
C211 H227 0.960 . S
H212 C196 0.931 1_556 S
H213 C201 0.929 . S
H214 C202 0.960 . S
H215 C202 0.962 1_556 S
H216 C202 0.960 . S
H217 C203 0.961 . S
H218 C203 0.961 . S
H219 C203 0.961 . S
H220 C204 0.931 . S
H221 C209 0.930 . S
H222 C210 0.956 . S
H223 C210 0.961 . S
H224 C210 0.961 . S
H225 C211 0.958 . S
H226 C211 0.961 . S
H227 C211 0.960 . S
C228 C229 1.391 . S
C228 C230 1.394 . S
C228 H244 0.931 . S
C229 C228 1.391 . S
C229 C233 1.374 1_554 S
C230 C228 1.394 . S
C230 C231 1.369 . S
C230 C234 1.531 . S
C231 C230 1.369 . S
C231 C232 1.408 1_554 S
C231 C239 1.502 1_554 S
C232 C231 1.408 1_556 S
C232 C233 1.392 . S
C232 C235 1.513 . S
C233 C229 1.374 1_556 S
C233 C232 1.392 . S
C233 H245 0.931 . S
C234 C230 1.531 . S
C234 H246 0.960 . S
C234 H247 0.962 1_554 S
C234 H248 0.960 . S
C235 C232 1.513 . S
C235 H249 0.961 . S
C235 H250 0.961 . S
C235 H251 0.961 1_556 S
C236 C237 1.370 . S
C236 C238 1.363 . S
C236 H252 0.931 . S
C237 C236 1.370 . S
C237 C241 1.408 1_556 S
C238 C236 1.363 . S
C238 C239 1.383 . S
C238 C242 1.524 . S
C239 C231 1.502 1_556 S
C239 C238 1.383 . S
C239 C240 1.392 1_556 S
C240 C239 1.392 1_554 S
C240 C241 1.404 . S
C240 C243 1.539 . S
C241 C237 1.408 1_554 S
C241 C240 1.404 . S
C241 H253 0.930 . S
C242 C238 1.524 . S
C242 H254 0.956 . S
C242 H255 0.961 . S
C242 H256 0.961 . S
C243 C240 1.539 . S
C243 H257 0.958 . S
C243 H258 0.961 . S
C243 H259 0.960 . S
H244 C228 0.931 . S
H245 C233 0.931 . S
H246 C234 0.960 . S
H247 C234 0.962 1_556 S
H248 C234 0.960 . S
H249 C235 0.961 . S
H250 C235 0.961 . S
H251 C235 0.961 1_554 S
H252 C236 0.931 . S
H253 C241 0.930 . S
H254 C242 0.956 . S
H255 C242 0.961 . S
H256 C242 0.961 . S
H257 C243 0.958 . S
H258 C243 0.961 . S
H259 C243 0.960 . S
C260 C261 1.391 . S
C260 C262 1.394 . S
C260 H276 0.931 . S
C261 C260 1.391 . S
C261 C265 1.376 1_554 S
C262 C260 1.394 . S
C262 C263 1.369 . S
C262 C266 1.531 . S
C263 C262 1.369 . S
C263 C264 1.410 1_554 S
C263 C271 1.503 . S
C264 C263 1.410 1_556 S
C264 C265 1.392 . S
C264 C267 1.511 . S
C265 C261 1.376 1_556 S
C265 C264 1.392 . S
C265 H277 0.929 . S
C266 C262 1.531 . S
C266 H278 0.960 . S
C266 H279 0.962 . S
C266 H280 0.960 . S
C267 C264 1.511 . S
C267 H281 0.961 . S
C267 H282 0.961 . S
C267 H283 0.961 . S
C268 C269 1.350 1_556 S
C268 C270 1.367 . S
C268 H284 0.949 . S
C269 C268 1.350 1_554 S
C269 C273 1.408 . S
C270 C268 1.367 . S
C270 C271 1.370 1_556 S
C270 C274 1.524 . S
C271 C263 1.503 . S
C271 C270 1.370 1_554 S
C271 C272 1.403 . S
C272 C271 1.403 . S
C272 C273 1.404 . S
C272 C275 1.539 . S
C273 C269 1.408 . S
C273 C272 1.404 . S
C273 H285 0.930 . S
C274 C270 1.524 . S
C274 H286 0.956 . S
C274 H287 0.961 . S
C274 H288 0.961 . S
C275 C272 1.539 . S
C275 H289 0.958 . S
C275 H290 0.961 . S
C275 H291 0.960 . S
H276 C260 0.931 . S
H277 C265 0.929 . S
H278 C266 0.960 . S
H279 C266 0.962 . S
H280 C266 0.960 . S
H281 C267 0.961 . S
H282 C267 0.961 . S
H283 C267 0.961 . S
H284 C268 0.949 . S
H285 C273 0.930 . S
H286 C274 0.956 . S
H287 C274 0.961 . S
H288 C274 0.961 . S
H289 C275 0.958 . S
H290 C275 0.961 . S
H291 C275 0.960 . S
C292 C293 1.391 . S
C292 C294 1.394 . S
C292 H308 0.931 . S
C293 C292 1.391 . S
C293 C297 1.376 1_554 S
C294 C292 1.394 . S
C294 C295 1.369 . S
C294 C298 1.531 . S
C295 C294 1.369 . S
C295 C296 1.410 1_554 S
C295 C303 1.505 . S
C296 C295 1.410 1_556 S
C296 C297 1.392 . S
C296 C299 1.511 . S
C297 C293 1.376 1_556 S
C297 C296 1.392 . S
C297 H309 0.929 . S
C298 C294 1.531 . S
C298 H310 0.960 . S
C298 H311 0.962 . S
C298 H312 0.960 . S
C299 C296 1.511 . S
C299 H313 0.961 . S
C299 H314 0.961 . S
C299 H315 0.961 . S
C300 C301 1.370 . S
C300 C302 1.363 . S
C300 H316 0.931 . S
C301 C300 1.370 . S
C301 C305 1.408 1_556 S
C302 C300 1.363 . S
C302 C303 1.362 1_556 S
C302 C306 1.524 . S
C303 C295 1.505 . S
C303 C302 1.362 1_554 S
C303 C304 1.410 . S
C304 C303 1.410 . S
C304 C305 1.404 . S
C304 C307 1.539 . S
C305 C301 1.408 1_554 S
C305 C304 1.404 . S
C305 H317 0.930 . S
C306 C302 1.524 . S
C306 H318 0.956 . S
C306 H319 0.961 . S
C306 H320 0.961 . S
C307 C304 1.539 . S
C307 H321 0.958 . S
C307 H322 0.961 . S
C307 H323 0.960 . S
H308 C292 0.931 . S
H309 C297 0.929 . S
H310 C298 0.960 . S
H311 C298 0.962 . S
H312 C298 0.960 . S
H313 C299 0.961 . S
H314 C299 0.961 . S
H315 C299 0.961 . S
H316 C300 0.931 . S
H317 C305 0.930 . S
H318 C306 0.956 . S
H319 C306 0.961 . S
H320 C306 0.961 . S
H321 C307 0.958 . S
H322 C307 0.961 . S
H323 C307 0.960 . S
C324 C325 1.391 . S
C324 C326 1.394 . S
C324 H340 0.931 . S
C325 C324 1.391 . S
C325 C329 1.376 . S
C326 C324 1.394 . S
C326 C327 1.369 . S
C326 C330 1.531 . S
C327 C326 1.369 . S
C327 C328 1.410 . S
C327 C335 1.503 . S
C328 C327 1.410 . S
C328 C329 1.392 . S
C328 C331 1.511 . S
C329 C325 1.376 . S
C329 C328 1.392 . S
C329 H341 0.929 . S
C330 C326 1.531 . S
C330 H342 0.960 . S
C330 H343 0.962 . S
C330 H344 0.960 . S
C331 C328 1.511 . S
C331 H345 0.961 . S
C331 H346 0.961 . S
C331 H347 0.961 . S
C332 C333 1.370 . S
C332 C334 1.363 . S
C332 H348 0.931 . S
C333 C332 1.370 . S
C333 C337 1.408 . S
C334 C332 1.363 . S
C334 C335 1.370 . S
C334 C338 1.524 . S
C335 C327 1.503 . S
C335 C334 1.370 . S
C335 C336 1.403 . S
C336 C335 1.403 . S
C336 C337 1.404 . S
C336 C339 1.539 . S
C337 C333 1.408 . S
C337 C336 1.404 . S
C337 H349 0.930 . S
C338 C334 1.524 . S
C338 H350 0.956 . S
C338 H351 0.961 . S
C338 H352 0.961 . S
C339 C336 1.539 . S
C339 H353 0.958 . S
C339 H354 0.961 . S
C339 H355 0.960 . S
H340 C324 0.931 . S
H341 C329 0.929 . S
H342 C330 0.960 . S
H343 C330 0.962 . S
H344 C330 0.960 . S
H345 C331 0.961 . S
H346 C331 0.961 . S
H347 C331 0.961 . S
H348 C332 0.931 . S
H349 C337 0.930 . S
H350 C338 0.956 . S
H351 C338 0.961 . S
H352 C338 0.961 . S
H353 C339 0.958 . S
H354 C339 0.961 . S
H355 C339 0.960 . S
C356 C357 1.391 . S
C356 C358 1.394 . S
C356 H372 0.931 . S
C357 C356 1.391 . S
C357 C361 1.376 . S
C358 C356 1.394 . S
C358 C359 1.369 . S
C358 C362 1.531 . S
C359 C358 1.369 . S
C359 C360 1.410 . S
C359 C367 1.503 . S
C360 C359 1.410 . S
C360 C361 1.392 . S
C360 C363 1.511 . S
C361 C357 1.376 . S
C361 C360 1.392 . S
C361 H373 0.929 . S
C362 C358 1.531 . S
C362 H374 0.960 . S
C362 H375 0.962 . S
C362 H376 0.960 . S
C363 C360 1.511 . S
C363 H377 0.961 . S
C363 H378 0.961 . S
C363 H379 0.961 . S
C364 C365 1.370 . S
C364 C366 1.363 . S
C364 H380 0.931 . S
C365 C364 1.370 . S
C365 C369 1.408 . S
C366 C364 1.363 . S
C366 C367 1.370 . S
C366 C370 1.524 . S
C367 C359 1.503 . S
C367 C366 1.370 . S
C367 C368 1.403 . S
C368 C367 1.403 . S
C368 C369 1.404 . S
C368 C371 1.539 . S
C369 C365 1.408 . S
C369 C368 1.404 . S
C369 H381 0.930 . S
C370 C366 1.524 . S
C370 H382 0.956 . S
C370 H383 0.961 . S
C370 H384 0.961 . S
C371 C368 1.539 . S
C371 H385 0.958 . S
C371 H386 0.961 . S
C371 H387 0.960 . S
H372 C356 0.931 . S
H373 C361 0.929 . S
H374 C362 0.960 . S
H375 C362 0.962 . S
H376 C362 0.960 . S
H377 C363 0.961 . S
H378 C363 0.961 . S
H379 C363 0.961 . S
H380 C364 0.931 . S
H381 C369 0.930 . S
H382 C370 0.956 . S
H383 C370 0.961 . S
H384 C370 0.961 . S
H385 C371 0.958 . S
H386 C371 0.961 . S
H387 C371 0.960 . S
C388 C389 1.391 . S
C388 C390 1.394 . S
C388 H404 0.931 . S
C389 C388 1.391 . S
C389 C393 1.376 . S
C390 C388 1.394 . S
C390 C391 1.369 . S
C390 C394 1.531 . S
C391 C390 1.369 . S
C391 C392 1.410 . S
C391 C399 1.503 . S
C392 C391 1.410 . S
C392 C393 1.392 . S
C392 C395 1.511 . S
C393 C389 1.376 . S
C393 C392 1.392 . S
C393 H405 0.929 . S
C394 C390 1.531 . S
C394 H406 0.960 . S
C394 H407 0.962 . S
C394 H408 0.960 . S
C395 C392 1.511 . S
C395 H409 0.961 . S
C395 H410 0.961 . S
C395 H411 0.961 . S
C396 C397 1.370 . S
C396 C398 1.363 . S
C396 H412 0.931 . S
C397 C396 1.370 . S
C397 C401 1.408 . S
C398 C396 1.363 . S
C398 C399 1.370 . S
C398 C402 1.524 . S
C399 C391 1.503 . S
C399 C398 1.370 . S
C399 C400 1.403 . S
C400 C399 1.403 . S
C400 C401 1.404 . S
C400 C403 1.539 . S
C401 C397 1.408 . S
C401 C400 1.404 . S
C401 H413 0.930 . S
C402 C398 1.524 . S
C402 H414 0.956 . S
C402 H415 0.961 . S
C402 H416 0.961 . S
C403 C400 1.539 . S
C403 H417 0.958 . S
C403 H418 0.961 . S
C403 H419 0.960 . S
H404 C388 0.931 . S
H405 C393 0.929 . S
H406 C394 0.960 . S
H407 C394 0.962 . S
H408 C394 0.960 . S
H409 C395 0.961 . S
H410 C395 0.961 . S
H411 C395 0.961 . S
H412 C396 0.931 . S
H413 C401 0.930 . S
H414 C402 0.956 . S
H415 C402 0.961 . S
H416 C402 0.961 . S
H417 C403 0.958 . S
H418 C403 0.961 . S
H419 C403 0.960 . S
C420 C421 1.391 . S
C420 C422 1.394 . S
C420 H436 0.931 . S
C421 C420 1.391 . S
C421 C425 1.376 . S
C422 C420 1.394 . S
C422 C423 1.369 . S
C422 C426 1.531 . S
C423 C422 1.369 . S
C423 C424 1.410 . S
C423 C431 1.503 . S
C424 C423 1.410 . S
C424 C425 1.392 . S
C424 C427 1.511 . S
C425 C421 1.376 . S
C425 C424 1.392 . S
C425 H437 0.929 . S
C426 C422 1.531 . S
C426 H438 0.960 . S
C426 H439 0.962 . S
C426 H440 0.960 . S
C427 C424 1.511 . S
C427 H441 0.961 . S
C427 H442 0.961 . S
C427 H443 0.961 . S
C428 C429 1.370 . S
C428 C430 1.363 . S
C428 H444 0.931 . S
C429 C428 1.370 . S
C429 C433 1.408 . S
C430 C428 1.363 . S
C430 C431 1.370 . S
C430 C434 1.524 . S
C431 C423 1.503 . S
C431 C430 1.370 . S
C431 C432 1.403 . S
C432 C431 1.403 . S
C432 C433 1.404 . S
C432 C435 1.539 . S
C433 C429 1.408 . S
C433 C432 1.404 . S
C433 H445 0.930 . S
C434 C430 1.524 . S
C434 H446 0.956 . S
C434 H447 0.961 . S
C434 H448 0.961 . S
C435 C432 1.539 . S
C435 H449 0.958 . S
C435 H450 0.961 . S
C435 H451 0.960 . S
H436 C420 0.931 . S
H437 C425 0.929 . S
H438 C426 0.960 . S
H439 C426 0.962 . S
H440 C426 0.960 . S
H441 C427 0.961 . S
H442 C427 0.961 . S
H443 C427 0.961 . S
H444 C428 0.931 . S
H445 C433 0.930 . S
H446 C434 0.956 . S
H447 C434 0.961 . S
H448 C434 0.961 . S
H449 C435 0.958 . S
H450 C435 0.961 . S
H451 C435 0.960 . S
C452 C453 1.391 . S
C452 C454 1.394 . S
C452 H468 0.931 . S
C453 C452 1.391 . S
C453 C457 1.376 1_445 S
C454 C452 1.394 . S
C454 C455 1.369 1_455 S
C454 C458 1.531 . S
C455 C454 1.369 1_655 S
C455 C456 1.410 1_545 S
C455 C463 1.503 . S
C456 C455 1.410 1_565 S
C456 C457 1.392 . S
C456 C459 1.511 . S
C457 C453 1.376 1_665 S
C457 C456 1.392 . S
C457 H469 0.929 . S
C458 C454 1.531 . S
C458 H470 0.960 . S
C458 H471 0.962 . S
C458 H472 0.960 . S
C459 C456 1.511 . S
C459 H473 0.961 . S
C459 H474 0.961 . S
C459 H475 0.961 . S
C460 C461 1.370 1_465 S
C460 C462 1.363 . S
C460 H476 0.931 . S
C461 C460 1.370 1_645 S
C461 C465 1.408 . S
C462 C460 1.363 . S
C462 C463 1.370 1_465 S
C462 C466 1.524 . S
C463 C455 1.503 . S
C463 C462 1.370 1_645 S
C463 C464 1.403 . S
C464 C463 1.403 . S
C464 C465 1.404 . S
C464 C467 1.539 . S
C465 C461 1.408 . S
C465 C464 1.404 . S
C465 H477 0.930 . S
C466 C462 1.524 . S
C466 H478 0.956 . S
C466 H479 0.961 . S
C466 H480 0.961 . S
C467 C464 1.539 . S
C467 H481 0.958 . S
C467 H482 0.961 . S
C467 H483 0.960 . S
H468 C452 0.931 . S
H469 C457 0.929 . S
H470 C458 0.960 . S
H471 C458 0.962 . S
H472 C458 0.960 . S
H473 C459 0.961 . S
H474 C459 0.961 . S
H475 C459 0.961 . S
H476 C460 0.931 . S
H477 C465 0.930 . S
H478 C466 0.956 . S
H479 C466 0.961 . S
H480 C466 0.961 . S
H481 C467 0.958 . S
H482 C467 0.961 . S
H483 C467 0.960 . S
C484 C485 1.391 1_565 S
C484 C486 1.394 . S
C484 H500 0.931 . S
C485 C484 1.391 1_545 S
C485 C489 1.376 1_455 S
C486 C484 1.394 . S
C486 C487 1.369 . S
C486 C490 1.531 . S
C487 C486 1.369 . S
C487 C488 1.410 1_465 S
C487 C495 1.503 . S
C488 C487 1.410 1_645 S
C488 C489 1.392 . S
C488 C491 1.511 . S
C489 C485 1.376 1_655 S
C489 C488 1.392 . S
C489 H501 0.929 . S
C490 C486 1.531 . S
C490 H502 0.960 . S
C490 H503 0.962 . S
C490 H504 0.960 . S
C491 C488 1.511 . S
C491 H505 0.961 . S
C491 H506 0.961 . S
C491 H507 0.961 . S
C492 C493 1.370 . S
C492 C494 1.363 . S
C492 H508 0.931 . S
C493 C492 1.370 . S
C493 C497 1.408 1_445 S
C494 C492 1.363 . S
C494 C495 1.370 1_545 S
C494 C498 1.524 . S
C495 C487 1.503 . S
C495 C494 1.370 1_565 S
C495 C496 1.403 1_455 S
C496 C495 1.403 1_655 S
C496 C497 1.404 . S
C496 C499 1.539 . S
C497 C493 1.408 1_665 S
C497 C496 1.404 . S
C497 H509 0.930 . S
C498 C494 1.524 . S
C498 H510 0.956 . S
C498 H511 0.961 . S
C498 H512 0.961 . S
C499 C496 1.539 . S
C499 H513 0.958 . S
C499 H514 0.961 . S
C499 H515 0.960 . S
H500 C484 0.931 . S
H501 C489 0.929 . S
H502 C490 0.960 . S
H503 C490 0.962 . S
H504 C490 0.960 . S
H505 C491 0.961 . S
H506 C491 0.961 . S
H507 C491 0.961 . S
H508 C492 0.931 . S
H509 C497 0.930 . S
H510 C498 0.956 . S
H511 C498 0.961 . S
H512 C498 0.961 . S
H513 C499 0.958 . S
H514 C499 0.961 . S
H515 C499 0.960 . S
C516 C517 1.391 . S
C516 C518 1.394 . S
C516 H532 0.931 . S
C517 C516 1.391 . S
C517 C521 1.376 . S
C518 C516 1.394 . S
C518 C519 1.369 . S
C518 C522 1.531 . S
C519 C518 1.369 . S
C519 C520 1.410 . S
C519 C527 1.503 . S
C520 C519 1.410 . S
C520 C521 1.392 . S
C520 C523 1.511 . S
C521 C517 1.376 . S
C521 C520 1.392 . S
C521 H533 0.929 . S
C522 C518 1.531 . S
C522 H534 0.960 . S
C522 H535 0.962 . S
C522 H536 0.960 . S
C523 C520 1.511 . S
C523 H537 0.961 . S
C523 H538 0.961 . S
C523 H539 0.961 . S
C524 C525 1.370 . S
C524 C526 1.363 . S
C524 H540 0.931 . S
C525 C524 1.370 . S
C525 C529 1.408 . S
C526 C524 1.363 . S
C526 C527 1.370 . S
C526 C530 1.524 . S
C527 C519 1.503 . S
C527 C526 1.370 . S
C527 C528 1.403 . S
C528 C527 1.403 . S
C528 C529 1.404 . S
C528 C531 1.539 . S
C529 C525 1.408 . S
C529 C528 1.404 . S
C529 H541 0.930 . S
C530 C526 1.524 . S
C530 H542 0.956 . S
C530 H543 0.961 . S
C530 H544 0.961 . S
C531 C528 1.539 . S
C531 H545 0.958 . S
C531 H546 0.961 . S
C531 H547 0.960 . S
H532 C516 0.931 . S
H533 C521 0.929 . S
H534 C522 0.960 . S
H535 C522 0.962 . S
H536 C522 0.960 . S
H537 C523 0.961 . S
H538 C523 0.961 . S
H539 C523 0.961 . S
H540 C524 0.931 . S
H541 C529 0.930 . S
H542 C530 0.956 . S
H543 C530 0.961 . S
H544 C530 0.961 . S
H545 C531 0.958 . S
H546 C531 0.961 . S
H547 C531 0.960 . S
C548 C549 1.391 . S
C548 C550 1.394 . S
C548 H564 0.931 . S
C549 C548 1.391 . S
C549 C553 1.376 . S
C550 C548 1.394 . S
C550 C551 1.369 . S
C550 C554 1.531 . S
C551 C550 1.369 . S
C551 C552 1.410 . S
C551 C559 1.503 . S
C552 C551 1.410 . S
C552 C553 1.392 . S
C552 C555 1.511 . S
C553 C549 1.376 . S
C553 C552 1.392 . S
C553 H565 0.929 . S
C554 C550 1.531 . S
C554 H566 0.960 . S
C554 H567 0.962 . S
C554 H568 0.960 . S
C555 C552 1.511 . S
C555 H569 0.961 . S
C555 H570 0.961 . S
C555 H571 0.961 . S
C556 C557 1.370 . S
C556 C558 1.363 . S
C556 H572 0.931 . S
C557 C556 1.370 . S
C557 C561 1.408 . S
C558 C556 1.363 . S
C558 C559 1.370 . S
C558 C562 1.524 . S
C559 C551 1.503 . S
C559 C558 1.370 . S
C559 C560 1.403 . S
C560 C559 1.403 . S
C560 C561 1.404 . S
C560 C563 1.539 . S
C561 C557 1.408 . S
C561 C560 1.404 . S
C561 H573 0.930 . S
C562 C558 1.524 . S
C562 H574 0.956 . S
C562 H575 0.961 . S
C562 H576 0.961 . S
C563 C560 1.539 . S
C563 H577 0.958 . S
C563 H578 0.961 . S
C563 H579 0.960 . S
H564 C548 0.931 . S
H565 C553 0.929 . S
H566 C554 0.960 . S
H567 C554 0.962 . S
H568 C554 0.960 . S
H569 C555 0.961 . S
H570 C555 0.961 . S
H571 C555 0.961 . S
H572 C556 0.931 . S
H573 C561 0.930 . S
H574 C562 0.956 . S
H575 C562 0.961 . S
H576 C562 0.961 . S
H577 C563 0.958 . S
H578 C563 0.961 . S
H579 C563 0.960 . S
C205 C181 1.399 . S
C197 C29 1.440 . S
C229 C8 1.438 . S
C237 C149 1.407 . S
C261 C0 1.431 . S
C269 C187 1.398 . S
C293 C17 1.450 . S
C301 C155 1.390 . S
C325 C63 1.439 . S
C333 C117 1.397 . S
C357 C42 1.435 . S
C365 C85 1.388 . S
C397 C123 1.384 . S
C389 C34 1.433 . S
C429 C91 1.395 . S
C421 C51 1.449 . S
C453 C4 1.483 . S
C461 C97 1.457 1_655 S
C485 C13 1.474 . S
C493 C129 1.460 1_545 S
C525 C161 1.453 . S
C517 C38 1.481 . S
C549 C47 1.488 . S
C557 C193 1.455 . S
