# Generated by pormake.
# Topology ctn, (3,4)-cn, num edge types: 1
# Building blocks:
#     Node 0, Type 0, BuildingBlock: CUQRIR_clean_linker_1, # of connection points: 3
#     Node 1, Type 0, BuildingBlock: CUQRIR_clean_linker_1, # of connection points: 3
#     Node 2, Type 0, BuildingBlock: CUQRIR_clean_linker_1, # of connection points: 3
#     Node 3, Type 0, BuildingBlock: CUQRIR_clean_linker_1, # of connection points: 3
#     Node 4, Type 0, BuildingBlock: CUQRIR_clean_linker_1, # of connection points: 3
#     Node 5, Type 0, BuildingBlock: CUQRIR_clean_linker_1, # of connection points: 3
#     Node 6, Type 0, BuildingBlock: CUQRIR_clean_linker_1, # of connection points: 3
#     Node 7, Type 0, BuildingBlock: CUQRIR_clean_linker_1, # of connection points: 3
#     Node 8, Type 0, BuildingBlock: CUQRIR_clean_linker_1, # of connection points: 3
#     Node 9, Type 0, BuildingBlock: CUQRIR_clean_linker_1, # of connection points: 3
#     Node 10, Type 0, BuildingBlock: CUQRIR_clean_linker_1, # of connection points: 3
#     Node 11, Type 0, BuildingBlock: CUQRIR_clean_linker_1, # of connection points: 3
#     Node 12, Type 0, BuildingBlock: CUQRIR_clean_linker_1, # of connection points: 3
#     Node 13, Type 0, BuildingBlock: CUQRIR_clean_linker_1, # of connection points: 3
#     Node 14, Type 0, BuildingBlock: CUQRIR_clean_linker_1, # of connection points: 3
#     Node 15, Type 0, BuildingBlock: CUQRIR_clean_linker_1, # of connection points: 3
#     Node 16, Type 1, BuildingBlock: NAHDIM_clean_sbu_0, # of connection points: 4
#     Node 17, Type 1, BuildingBlock: NAHDIM_clean_sbu_0, # of connection points: 4
#     Node 18, Type 1, BuildingBlock: NAHDIM_clean_sbu_0, # of connection points: 4
#     Node 19, Type 1, BuildingBlock: NAHDIM_clean_sbu_0, # of connection points: 4
#     Node 20, Type 1, BuildingBlock: NAHDIM_clean_sbu_0, # of connection points: 4
#     Node 21, Type 1, BuildingBlock: NAHDIM_clean_sbu_0, # of connection points: 4
#     Node 22, Type 1, BuildingBlock: NAHDIM_clean_sbu_0, # of connection points: 4
#     Node 23, Type 1, BuildingBlock: NAHDIM_clean_sbu_0, # of connection points: 4
#     Node 24, Type 1, BuildingBlock: NAHDIM_clean_sbu_0, # of connection points: 4
#     Node 25, Type 1, BuildingBlock: NAHDIM_clean_sbu_0, # of connection points: 4
#     Node 26, Type 1, BuildingBlock: NAHDIM_clean_sbu_0, # of connection points: 4
#     Node 27, Type 1, BuildingBlock: NAHDIM_clean_sbu_0, # of connection points: 4
#     Edge 28, Type (0, 1), BuildingBlock: EZIPEK_clean_linker_0, # of connection points: 2
#     Edge 29, Type (0, 1), BuildingBlock: EZIPEK_clean_linker_0, # of connection points: 2
#     Edge 30, Type (0, 1), BuildingBlock: EZIPEK_clean_linker_0, # of connection points: 2
#     Edge 31, Type (0, 1), BuildingBlock: EZIPEK_clean_linker_0, # of connection points: 2
#     Edge 32, Type (0, 1), BuildingBlock: EZIPEK_clean_linker_0, # of connection points: 2
#     Edge 33, Type (0, 1), BuildingBlock: EZIPEK_clean_linker_0, # of connection points: 2
#     Edge 34, Type (0, 1), BuildingBlock: EZIPEK_clean_linker_0, # of connection points: 2
#     Edge 35, Type (0, 1), BuildingBlock: EZIPEK_clean_linker_0, # of connection points: 2
#     Edge 36, Type (0, 1), BuildingBlock: EZIPEK_clean_linker_0, # of connection points: 2
#     Edge 37, Type (0, 1), BuildingBlock: EZIPEK_clean_linker_0, # of connection points: 2
#     Edge 38, Type (0, 1), BuildingBlock: EZIPEK_clean_linker_0, # of connection points: 2
#     Edge 39, Type (0, 1), BuildingBlock: EZIPEK_clean_linker_0, # of connection points: 2
#     Edge 40, Type (0, 1), BuildingBlock: EZIPEK_clean_linker_0, # of connection points: 2
#     Edge 41, Type (0, 1), BuildingBlock: EZIPEK_clean_linker_0, # of connection points: 2
#     Edge 42, Type (0, 1), BuildingBlock: EZIPEK_clean_linker_0, # of connection points: 2
#     Edge 43, Type (0, 1), BuildingBlock: EZIPEK_clean_linker_0, # of connection points: 2
#     Edge 44, Type (0, 1), BuildingBlock: EZIPEK_clean_linker_0, # of connection points: 2
#     Edge 45, Type (0, 1), BuildingBlock: EZIPEK_clean_linker_0, # of connection points: 2
#     Edge 46, Type (0, 1), BuildingBlock: EZIPEK_clean_linker_0, # of connection points: 2
#     Edge 47, Type (0, 1), BuildingBlock: EZIPEK_clean_linker_0, # of connection points: 2
#     Edge 48, Type (0, 1), BuildingBlock: EZIPEK_clean_linker_0, # of connection points: 2
#     Edge 49, Type (0, 1), BuildingBlock: EZIPEK_clean_linker_0, # of connection points: 2
#     Edge 50, Type (0, 1), BuildingBlock: EZIPEK_clean_linker_0, # of connection points: 2
#     Edge 51, Type (0, 1), BuildingBlock: EZIPEK_clean_linker_0, # of connection points: 2
#     Edge 52, Type (0, 1), BuildingBlock: EZIPEK_clean_linker_0, # of connection points: 2
#     Edge 53, Type (0, 1), BuildingBlock: EZIPEK_clean_linker_0, # of connection points: 2
#     Edge 54, Type (0, 1), BuildingBlock: EZIPEK_clean_linker_0, # of connection points: 2
#     Edge 55, Type (0, 1), BuildingBlock: EZIPEK_clean_linker_0, # of connection points: 2
#     Edge 56, Type (0, 1), BuildingBlock: EZIPEK_clean_linker_0, # of connection points: 2
#     Edge 57, Type (0, 1), BuildingBlock: EZIPEK_clean_linker_0, # of connection points: 2
#     Edge 58, Type (0, 1), BuildingBlock: EZIPEK_clean_linker_0, # of connection points: 2
#     Edge 59, Type (0, 1), BuildingBlock: EZIPEK_clean_linker_0, # of connection points: 2
#     Edge 60, Type (0, 1), BuildingBlock: EZIPEK_clean_linker_0, # of connection points: 2
#     Edge 61, Type (0, 1), BuildingBlock: EZIPEK_clean_linker_0, # of connection points: 2
#     Edge 62, Type (0, 1), BuildingBlock: EZIPEK_clean_linker_0, # of connection points: 2
#     Edge 63, Type (0, 1), BuildingBlock: EZIPEK_clean_linker_0, # of connection points: 2
#     Edge 64, Type (0, 1), BuildingBlock: EZIPEK_clean_linker_0, # of connection points: 2
#     Edge 65, Type (0, 1), BuildingBlock: EZIPEK_clean_linker_0, # of connection points: 2
#     Edge 66, Type (0, 1), BuildingBlock: EZIPEK_clean_linker_0, # of connection points: 2
#     Edge 67, Type (0, 1), BuildingBlock: EZIPEK_clean_linker_0, # of connection points: 2
#     Edge 68, Type (0, 1), BuildingBlock: EZIPEK_clean_linker_0, # of connection points: 2
#     Edge 69, Type (0, 1), BuildingBlock: EZIPEK_clean_linker_0, # of connection points: 2
#     Edge 70, Type (0, 1), BuildingBlock: EZIPEK_clean_linker_0, # of connection points: 2
#     Edge 71, Type (0, 1), BuildingBlock: EZIPEK_clean_linker_0, # of connection points: 2
#     Edge 72, Type (0, 1), BuildingBlock: EZIPEK_clean_linker_0, # of connection points: 2
#     Edge 73, Type (0, 1), BuildingBlock: EZIPEK_clean_linker_0, # of connection points: 2
#     Edge 74, Type (0, 1), BuildingBlock: EZIPEK_clean_linker_0, # of connection points: 2
#     Edge 75, Type (0, 1), BuildingBlock: EZIPEK_clean_linker_0, # of connection points: 2
# Relax obj value: 0.083
# Max RMSD: 0.206
# Mean RMSD: 0.127
data_MOF--net-ctn--node1-NAHDIM_clean_sbu_0--node2-CUQRIR_clean_linker_1--edge1-EZIPEK_clean_linker_0
_symmetry_space_group_name_H-M    P1
_symmetry_Int_Tables_number       1
_symmetry_cell_setting            triclinic
loop_
_symmetry_equiv_pos_as_xyz
'x, y, z'
_cell_length_a     36.561016
_cell_length_b     34.040695
_cell_length_c     34.573473
_cell_angle_alpha  98.789602
_cell_angle_beta   88.857183
_cell_angle_gamma 95.668526
loop_
_atom_site_label
_atom_site_type_symbol
_atom_site_fract_x
_atom_site_fract_y
_atom_site_fract_z
_atom_type_partial_charge
C0 C 0.05432 0.01384 0.08751 0.0
N1 N 0.06495 0.02421 0.05231 0.0
N2 N 0.01948 0.02194 0.09595 0.0
C3 C 0.07735 0.99399 0.11293 0.0
C4 C 0.00889 0.03747 0.06489 0.0
N5 N 0.03649 0.0394 0.03818 0.0
C6 C 0.97212 0.05309 0.06193 0.0
H7 H 0.07018 1.00214 0.14427 0.0
H8 H 0.10706 1.00238 0.10842 0.0
H9 H 0.0718 0.96113 0.10506 0.0
H10 H 0.97296 0.08368 0.07871 0.0
H11 H 0.95027 0.03407 0.07492 0.0
H12 H 0.96525 0.05421 0.03102 0.0
C13 C 0.26685 0.73801 0.22778 0.0
N14 N 0.28048 0.71909 0.25523 0.0
N15 N 0.29206 0.7661 0.21724 0.0
C16 C 0.22933 0.72781 0.20965 0.0
C17 C 0.32163 0.76426 0.23965 0.0
N18 N 0.31458 0.73597 0.26337 0.0
C19 C 0.35723 0.79007 0.23828 0.0
H20 H 0.23168 0.70698 0.18191 0.0
H21 H 0.21819 0.75501 0.2026 0.0
H22 H 0.20986 0.71335 0.22944 0.0
H23 H 0.35543 0.81834 0.25866 0.0
H24 H 0.36245 0.79761 0.20842 0.0
H25 H 0.38047 0.77498 0.2474 0.0
C26 C 0.9568 0.50739 0.10021 0.0
N27 N 0.97886 0.47715 0.09687 0.0
N28 N 0.9383 0.50666 0.06667 0.0
C29 C 0.95356 0.53803 0.13601 0.0
C30 C 0.94943 0.47499 0.04269 0.0
N31 N 0.97363 0.45638 0.06097 0.0
C32 C 0.93516 0.46123 1.00183 0.0
H33 H 0.96099 0.52636 0.16278 0.0
H34 H 0.92521 0.54715 0.13904 0.0
H35 H 0.97249 0.56493 0.13291 0.0
H36 H 0.93046 0.48722 0.98736 0.0
H37 H 0.90841 0.44306 1.00339 0.0
H38 H 0.95459 0.44287 0.9839 0.0
C39 C 0.68203 0.76532 0.22665 0.0
N40 N 0.71415 0.78337 0.21499 0.0
N41 N 0.66766 0.78841 0.25746 0.0
C42 C 0.66478 0.72525 0.20784 0.0
C43 C 0.69222 0.82106 0.26431 0.0
N44 N 0.72073 0.81793 0.23884 0.0
C45 C 0.68889 0.85558 0.29653 0.0
H46 H 0.65043 0.72896 0.18084 0.0
H47 H 0.64458 0.71196 0.22771 0.0
H48 H 0.68623 0.70463 0.1993 0.0
H49 H 0.70371 0.85029 0.32267 0.0
H50 H 0.65967 0.8586 0.30464 0.0
H51 H 0.70155 0.88379 0.28752 0.0
C52 C 0.0162 0.97766 0.49502 0.0
N53 N 0.05013 0.97883 0.51067 0.0
N54 N 0.0171 0.99892 0.46514 0.0
C55 C 0.98241 0.95349 0.50718 0.0
C56 C 0.05266 0.01336 0.46283 0.0
N57 N 0.07311 1.00143 0.4905 0.0
C58 C 0.06701 0.04091 0.43472 0.0
H59 H 0.98096 0.92308 0.48993 0.0
H60 H 0.95719 0.96721 0.5013 0.0
H61 H 0.98343 0.95076 0.53869 0.0
H62 H 0.06475 0.07221 0.44856 0.0
H63 H 0.05059 0.03518 0.40744 0.0
H64 H 0.09633 0.03739 0.42752 0.0
C65 C 0.17708 0.73067 0.81975 0.0
N66 N 0.20652 0.71936 0.83683 0.0
N67 N 0.16871 0.70611 0.78601 0.0
C68 C 0.15738 0.76672 0.83497 0.0
C69 C 0.19352 0.67894 0.78318 0.0
N70 N 0.21632 0.68653 0.81441 0.0
C71 C 0.19533 0.64506 0.75001 0.0
H72 H 0.12744 0.76031 0.82953 0.0
H73 H 0.16761 0.79159 0.81906 0.0
H74 H 0.1621 0.77628 0.86676 0.0
H75 H 0.22365 0.63594 0.74618 0.0
H76 H 0.18603 0.65348 0.72232 0.0
H77 H 0.17673 0.61914 0.75665 0.0
C78 C 0.96838 0.523 0.46654 0.0
N79 N 0.99317 0.55553 0.46883 0.0
N80 N 0.93982 0.53035 0.49113 0.0
C81 C 0.97255 0.48394 0.44073 0.0
C82 C 0.9478 0.56858 0.50829 0.0
N83 N 0.9802 0.58413 0.49475 0.0
C84 C 0.92515 0.58982 0.54015 0.0
H85 H 0.94763 0.46263 0.44112 0.0
H86 H 0.99635 0.47042 0.45082 0.0
H87 H 0.97848 0.48932 0.41026 0.0
H88 H 0.93706 0.58758 0.56891 0.0
H89 H 0.89626 0.57622 0.53927 0.0
H90 H 0.92574 0.62194 0.53752 0.0
C91 C 0.78954 0.82387 0.84168 0.0
N92 N 0.81519 0.79768 0.832 0.0
N93 N 0.78305 0.84296 0.8115 0.0
C94 C 0.76972 0.82991 0.88036 0.0
C95 C 0.80575 0.82803 0.78296 0.0
N96 N 0.82585 0.80073 0.79518 0.0
C97 C 0.80933 0.84152 0.7435 0.0
H98 H 0.74329 0.81067 0.87806 0.0
H99 H 0.76346 0.86141 0.88801 0.0
H100 H 0.78631 0.82179 0.90396 0.0
H101 H 0.82866 0.86903 0.74572 0.0
H102 H 0.78235 0.84876 0.73384 0.0
H103 H 0.82008 0.81822 0.72141 0.0
C104 C 0.27518 0.29921 0.32694 0.0
N105 N 0.30528 0.27877 0.31946 0.0
N106 N 0.2779 0.33201 0.30906 0.0
C107 C 0.24371 0.28801 0.353 0.0
C108 C 0.31044 0.33086 0.28998 0.0
N109 N 0.32721 0.29844 0.2958 0.0
C110 C 0.32525 0.36082 0.26441 0.0
H111 H 0.21806 0.29923 0.34436 0.0
H112 H 0.25016 0.30173 0.38361 0.0
H113 H 0.23945 0.25512 0.35189 0.0
H114 H 0.31633 0.39074 0.27549 0.0
H115 H 0.31429 0.35129 0.23439 0.0
H116 H 0.35571 0.36277 0.26294 0.0
C117 C 0.4607 0.99809 0.58684 0.0
N118 N 0.48299 0.96819 0.58527 0.0
N119 N 0.44243 0.99558 0.55286 0.0
C120 C 0.457 0.03017 0.62136 0.0
C121 C 0.45394 0.96314 0.53041 0.0
N122 N 0.47815 0.9458 0.55005 0.0
C123 C 0.44004 0.94741 0.48974 0.0
H124 H 0.46441 0.02004 0.64896 0.0
H125 H 0.42854 0.039 0.62366 0.0
H126 H 0.47571 0.0569 0.61715 0.0
H127 H 0.43519 0.97239 0.47391 0.0
H128 H 0.41342 0.92912 0.49179 0.0
H129 H 0.45978 0.92863 0.47282 0.0
C130 C 0.16712 0.26067 0.71797 0.0
N131 N 0.1973 0.28029 0.70374 0.0
N132 N 0.15944 0.27772 0.75467 0.0
C133 C 0.14525 0.22449 0.69639 0.0
C134 C 0.18549 0.30871 0.76245 0.0
N135 N 0.20835 0.31084 0.73134 0.0
C136 C 0.18813 0.33718 0.80029 0.0
H137 H 0.14885 0.22287 0.66426 0.0
H138 H 0.11565 0.22503 0.70399 0.0
H139 H 0.15468 0.19729 0.70545 0.0
H140 H 0.17922 0.32139 0.82519 0.0
H141 H 0.16951 0.36078 0.79902 0.0
H142 H 0.21659 0.35149 0.80534 0.0
C143 C 0.77603 0.2318 0.72417 0.0
N144 N 0.7891 0.21281 0.75185 0.0
N145 N 0.7987 0.26437 0.71922 0.0
C146 C 0.74216 0.21714 0.70006 0.0
C147 C 0.82617 0.26492 0.74505 0.0
N148 N 0.82029 0.23373 0.76548 0.0
C149 C 0.85853 0.29597 0.75033 0.0
H150 H 0.72955 0.24234 0.69048 0.0
H151 H 0.72151 0.2002 0.71667 0.0
H152 H 0.75008 0.19699 0.67355 0.0
H153 H 0.8514 0.32132 0.77241 0.0
H154 H 0.8654 0.30753 0.72249 0.0
H155 H 0.88281 0.28359 0.76087 0.0
C156 C 0.54776 0.51097 0.59434 0.0
N157 N 0.56147 0.52498 0.56174 0.0
N158 N 0.51261 0.51912 0.60077 0.0
C159 C 0.56792 0.48712 0.61865 0.0
C160 C 0.50504 0.53863 0.57123 0.0
N161 N 0.53465 0.54259 0.54737 0.0
C162 C 0.46957 0.55671 0.56758 0.0
H163 H 0.55854 0.49198 0.64958 0.0
H164 H 0.59804 0.49512 0.61727 0.0
H165 H 0.56204 0.45491 0.60709 0.0
H166 H 0.4717 0.5872 0.58469 0.0
H167 H 0.44619 0.53884 0.5795 0.0
H168 H 0.46404 0.55897 0.5366 0.0
C169 C 0.51672 0.46883 0.98332 0.0
N170 N 0.54912 0.47353 1.00277 0.0
N171 N 0.51896 0.48918 0.95269 0.0
C172 C 0.48375 0.44132 0.99201 0.0
C173 C 0.5537 0.50688 0.954 0.0
N174 N 0.57237 0.49754 0.98438 0.0
C175 C 0.56898 0.5349 0.92669 0.0
H176 H 0.48555 0.4116 0.97412 0.0
H177 H 0.45793 0.45273 0.98422 0.0
H178 H 0.48275 0.43768 0.02336 0.0
H179 H 0.56781 0.56611 0.94134 0.0
H180 H 0.55295 0.53065 0.89922 0.0
H181 H 0.59818 0.53044 0.9197 0.0
C182 C 0.68528 0.24213 0.31775 0.0
N183 N 0.71172 0.22639 0.33567 0.0
N184 N 0.67097 0.21575 0.28751 0.0
C185 C 0.67225 0.28264 0.33062 0.0
C186 C 0.68965 0.18346 0.28709 0.0
N187 N 0.7149 0.18987 0.31613 0.0
C188 C 0.68353 0.14602 0.25779 0.0
H189 H 0.6475 0.27936 0.34938 0.0
H190 H 0.66442 0.29582 0.3049 0.0
H191 H 0.69372 0.30311 0.3476 0.0
H192 H 0.69934 0.15027 0.23077 0.0
H193 H 0.65403 0.13988 0.24987 0.0
H194 H 0.69281 0.12003 0.26939 0.0
C195 C 0.4721 0.02245 0.9666 0.0
N196 N 0.49641 0.0553 0.96762 0.0
N197 N 0.44405 0.02982 0.99182 0.0
C198 C 0.47513 0.98353 0.94016 0.0
C199 C 0.45199 0.06817 0.00847 0.0
N200 N 0.48404 0.08376 0.99417 0.0
C201 C 0.42913 0.08981 0.03984 0.0
H202 H 0.46157 0.98455 0.91196 0.0
H203 H 0.46119 0.95825 0.95333 0.0
H204 H 0.50436 0.97851 0.93411 0.0
H205 H 0.43831 0.08447 0.06882 0.0
H206 H 0.39967 0.07849 0.03639 0.0
H207 H 0.43244 0.12245 0.03914 0.0
C208 C 0.1943 0.94746 0.01302 0.0
O209 O 0.21899 0.95334 0.98585 0.0
O210 O 0.2376 0.84688 0.98612 0.0
Zn211 Zn 0.24479 0.89254 0.03135 0.0
O212 O 0.28748 0.93054 0.01919 0.0
C213 C 0.25045 0.83678 0.08727 0.0
O214 O 0.2327 0.81093 0.06033 0.0
O215 O 0.19903 0.92264 0.0362 0.0
C216 C 0.32011 0.9231 0.02499 0.0
O217 O 0.32568 0.89058 0.03924 0.0
C218 C 0.26092 0.82247 0.97355 0.0
O219 O 0.29329 0.82552 0.98997 0.0
O220 O 0.25724 0.87291 0.08187 0.0
C221 C 0.191 0.46186 0.30304 0.0
O222 O 0.20896 0.49693 0.31448 0.0
O223 O 0.10294 0.52724 0.32559 0.0
Zn224 Zn 0.1378 0.51077 0.28082 0.0
O225 O 0.1803 0.55338 0.27795 0.0
C226 C 0.07635 0.48759 0.2268 0.0
O227 O 0.05877 0.48025 0.25882 0.0
O228 O 0.15893 0.45994 0.28886 0.0
C229 C 0.17793 0.59069 0.28643 0.0
O230 O 0.14636 0.60367 0.29836 0.0
C231 C 0.113 0.54519 0.35929 0.0
O232 O 0.14808 0.55513 0.36659 0.0
O233 O 0.11031 0.50031 0.22886 0.0
C234 C 0.82461 0.58971 0.01522 0.0
O235 O 0.79975 0.56648 0.99339 0.0
O236 O 0.78469 0.6686 0.95512 0.0
Zn237 Zn 0.77512 0.64809 0.00768 0.0
O238 O 0.73323 0.60321 1.00537 0.0
C239 C 0.78412 0.71159 0.07537 0.0
O240 O 0.81951 0.70891 0.06996 0.0
O241 O 0.82062 0.62658 0.02468 0.0
C242 C 0.70005 0.6085 0.99903 0.0
O243 O 0.69248 0.64361 0.99178 0.0
C244 C 0.80169 0.70283 0.9533 0.0
O245 O 0.81353 0.72516 0.98586 0.0
O246 O 0.76124 0.69095 0.05129 0.0
C247 C 0.8136 0.06881 0.31228 0.0
O248 O 0.7968 0.03449 0.31877 0.0
O249 O 0.90626 0.01384 0.32889 0.0
Zn250 Zn 0.87208 0.01988 0.28599 0.0
O251 O 0.83484 0.97181 0.27393 0.0
C252 C 0.93177 0.00648 0.23251 0.0
O253 O 0.9422 0.986 0.25887 0.0
O254 O 0.84657 0.07023 0.29983 0.0
C255 C 0.84383 0.93659 0.26349 0.0
O256 O 0.87862 0.92998 0.26152 0.0
C257 C 0.89862 0.01708 0.36512 0.0
O258 O 0.86541 0.02436 0.37749 0.0
O259 O 0.90259 0.02404 0.23769 0.0
C260 C 0.32859 0.08017 0.50233 0.0
O261 O 0.30042 0.05818 0.48475 0.0
O262 O 0.28641 0.17298 0.45485 0.0
Zn263 Zn 0.28147 0.14345 0.50242 0.0
O264 O 0.23745 0.10077 0.50185 0.0
C265 C 0.25052 0.20674 0.55582 0.0
O266 O 0.2291 0.20851 0.52622 0.0
O267 O 0.32754 0.11768 0.511 0.0
C268 C 0.20463 0.10491 0.4928 0.0
O269 O 0.19743 0.13795 0.48051 0.0
C270 C 0.30739 0.16506 0.42535 0.0
O271 O 0.32705 0.13452 0.42301 0.0
O272 O 0.27577 0.1833 0.55135 0.0
C273 C 0.3248 0.57897 0.82584 0.0
O274 O 0.34531 0.57595 0.85579 0.0
O275 O 0.39417 0.51306 0.82993 0.0
Zn276 Zn 0.36027 0.51084 0.78441 0.0
O277 O 0.32916 0.45801 0.77304 0.0
C278 C 0.41139 0.48989 0.72376 0.0
O279 O 0.40822 0.45625 0.73825 0.0
O280 O 0.32686 0.55503 0.794 0.0
C281 C 0.3142 0.44758 0.73969 0.0
O282 O 0.31921 0.47115 0.71292 0.0
C283 C 0.4044 0.48159 0.84009 0.0
O284 O 0.39085 0.44646 0.82227 0.0
O285 O 0.39268 0.51813 0.73827 0.0
C286 C 0.69203 0.4494 0.52185 0.0
O287 O 0.71678 0.45677 0.49519 0.0
O288 O 0.73451 0.34745 0.49253 0.0
Zn289 Zn 0.74269 0.39324 0.53783 0.0
O290 O 0.78497 0.43086 0.52376 0.0
C291 C 0.75554 0.33831 0.5931 0.0
O292 O 0.74287 0.31065 0.56465 0.0
O293 O 0.69688 0.4235 0.54383 0.0
C294 C 0.81776 0.42351 0.52891 0.0
O295 O 0.82378 0.39148 0.54374 0.0
C296 C 0.75795 0.32346 0.4791 0.0
O297 O 0.79001 0.32572 0.49609 0.0
O298 O 0.75676 0.37487 0.58883 0.0
C299 C 0.68504 0.96413 0.80769 0.0
O300 O 0.68792 0.99605 0.83452 0.0
O301 O 0.60127 0.02149 0.81907 0.0
Zn302 Zn 0.63765 0.01092 0.77431 0.0
O303 O 0.67734 0.05729 0.77972 0.0
C304 C 0.57828 0.98721 0.71805 0.0
O305 O 0.56034 0.97902 0.7496 0.0
O306 O 0.66347 0.9625 0.77903 0.0
C307 C 0.69327 0.07148 0.75125 0.0
O308 O 0.684 0.05563 0.7153 0.0
C309 C 0.60865 0.04769 0.84906 0.0
O310 O 0.64068 0.06901 0.85178 0.0
O311 O 0.61182 1.00152 0.72116 0.0
C312 C 0.99868 0.14775 0.93829 0.0
O313 O 0.97058 0.13509 0.91508 0.0
O314 O 0.9504 0.22087 0.88351 0.0
Zn315 Zn 0.99515 0.23135 0.91988 0.0
O316 O 0.98832 0.27589 0.96523 0.0
C317 C 0.04334 0.22739 0.85474 0.0
O318 O 0.02263 0.1938 0.84429 0.0
O319 O 0.01123 0.18431 0.94252 0.0
C320 C 1.00051 0.31193 0.96349 0.0
O321 O 0.01785 0.32055 0.93176 0.0
C322 C 0.9164 0.21983 0.89254 0.0
O323 O 0.90643 0.22218 0.92947 0.0
O324 O 0.03718 0.24923 0.88688 0.0
C325 C 0.49999 0.66303 0.46198 0.0
O326 O 0.48099 0.68831 0.48462 0.0
O327 O 0.44973 0.71376 0.37282 0.0
Zn328 Zn 0.49521 0.71997 0.40798 0.0
O329 O 0.49162 0.76456 0.45505 0.0
C330 C 0.53794 0.75756 0.34899 0.0
O331 O 0.50832 0.77567 0.34551 0.0
O332 O 0.50741 0.66905 0.42717 0.0
C333 C 0.50491 0.80065 0.45519 0.0
O334 O 0.52295 0.81038 0.42433 0.0
C335 C 0.41651 0.71708 0.38357 0.0
O336 O 0.40825 0.72219 0.42103 0.0
O337 O 0.53831 0.73363 0.37379 0.0
C338 C 0.02539 0.85151 0.59654 0.0
O339 O 0.99935 0.8268 0.57801 0.0
O340 O 0.97684 0.7981 0.68968 0.0
Zn341 Zn 0.0187 0.79235 0.64935 0.0
O342 O 0.00685 0.74704 0.60461 0.0
C343 C 0.05758 0.74046 0.68594 0.0
O344 O 0.02959 0.71509 0.6727 0.0
O345 O 0.03753 0.84382 0.62851 0.0
C346 C 0.03156 0.73576 0.58005 0.0
O347 O 0.06445 0.75528 0.58203 0.0
C348 C 0.94481 0.77942 0.68641 0.0
O349 O 0.93582 0.75593 0.6535 0.0
O350 O 0.05959 0.77614 0.67886 0.0
C351 C 0.52462 0.34928 0.09225 0.0
O352 O 0.50099 0.32266 0.07221 0.0
O353 O 0.46958 0.2989 0.18283 0.0
Zn354 Zn 0.51542 0.29285 0.14783 0.0
O355 O 0.50723 0.24598 0.10383 0.0
C356 C 0.55552 0.24504 0.1897 0.0
O357 O 0.52977 0.21706 0.17593 0.0
O358 O 0.53438 0.34365 0.12592 0.0
C359 C 0.53278 0.23545 0.08006 0.0
O360 O 0.56519 0.256 0.08274 0.0
C361 C 0.44879 0.26868 0.19058 0.0
O362 O 0.45512 0.23271 0.17382 0.0
O363 O 0.55519 0.28015 0.18156 0.0
C364 C 0.24324 0.78103 0.86656 0.0
C365 C 0.22611 0.74238 0.87001 0.0
C366 C 0.24038 0.75355 0.94005 0.0
C367 C 0.25292 0.79377 0.93745 0.0
N368 N 0.2659 0.84696 0.8991 0.0
N369 N 0.20227 0.69476 0.91094 0.0
C370 C 0.25463 0.80773 0.90082 0.0
C371 C 0.22357 0.7291 0.90692 0.0
N372 N 0.2479 0.79238 0.8304 0.0
N373 N 0.24402 0.73896 0.9743 0.0
H374 H 0.18737 0.67808 0.88774 0.0
H375 H 0.19627 0.6852 0.93777 0.0
H376 H 0.25573 0.75637 0.99926 0.0
H377 H 0.23852 0.70885 0.97687 0.0
H378 H 0.26383 0.81808 0.8251 0.0
H379 H 0.23754 0.7748 0.80494 0.0
H380 H 0.2635 0.86054 0.8744 0.0
H381 H 0.27613 0.86679 0.92331 0.0
C382 C 0.05699 0.53963 0.45313 0.0
C383 C 0.02582 0.55853 0.44469 0.0
C384 C 0.05546 0.57504 0.38423 0.0
C385 C 0.08503 0.55284 0.39062 0.0
N386 N 0.11217 0.50967 0.42891 0.0
N387 N 0.99136 0.58383 0.39708 0.0
C388 C 0.08574 0.53454 0.42487 0.0
C389 C 0.0241 0.57387 0.40903 0.0
N390 N 0.05817 0.52481 0.48751 0.0
N391 N 0.05738 0.59742 0.35452 0.0
H392 H 0.96707 0.57936 0.41272 0.0
H393 H 0.98744 0.59168 0.3696 0.0
H394 H 0.08008 0.59919 0.3359 0.0
H395 H 0.03814 0.61718 0.35087 0.0
H396 H 0.0818 0.51571 0.49834 0.0
H397 H 0.03545 0.52271 0.50587 0.0
H398 H 0.11196 0.49191 0.45089 0.0
H399 H 0.13315 0.50419 0.40856 0.0
C400 C 0.78516 0.73756 0.85513 0.0
C401 C 0.81751 0.7638 0.85255 0.0
C402 C 0.84326 0.73736 0.90722 0.0
C403 C 0.80804 0.71846 0.91523 0.0
N404 N 0.74381 0.70388 0.89764 0.0
N405 N 0.8774 0.78951 0.87704 0.0
C406 C 0.77867 0.71851 0.88888 0.0
C407 C 0.84688 0.76338 0.87843 0.0
N408 N 0.75959 0.73293 0.82615 0.0
N409 N 0.87334 0.73 0.92679 0.0
H410 H 0.88097 0.80796 0.85567 0.0
H411 H 0.89795 0.7943 0.89816 0.0
H412 H 0.87179 0.70999 0.94696 0.0
H413 H 0.90012 0.74029 0.91997 0.0
H414 H 0.73697 0.71159 0.82417 0.0
H415 H 0.76307 0.74804 0.80208 0.0
H416 H 0.72079 0.7075 0.88177 0.0
H417 H 0.73696 0.69136 0.92277 0.0
C418 C 0.96729 0.0375 0.44907 0.0
C419 C 0.98706 1.00356 0.44044 0.0
C420 C 0.94504 0.9759 0.38683 0.0
C421 C 0.92744 0.01173 0.39281 0.0
N422 N 0.92503 0.07926 0.42602 0.0
N423 N 0.99883 0.94317 0.3985 0.0
C424 C 0.93922 0.04324 0.42317 0.0
C425 C 0.97705 0.9735 0.40853 0.0
N426 N 0.97516 0.06387 0.48241 0.0
N427 N 0.93034 0.94367 0.36145 0.0
H428 H 0.02246 0.94091 0.41402 0.0
H429 H 0.99534 0.92241 0.3731 0.0
H430 H 0.90632 0.94396 0.34578 0.0
H431 H 0.93984 0.91553 0.35868 0.0
H432 H 0.95933 0.08709 0.49277 0.0
H433 H 0.99612 0.06056 0.50133 0.0
H434 H 0.93531 0.10459 0.44488 0.0
H435 H 0.90483 0.08492 0.40729 0.0
C436 C 0.23008 0.22731 0.66526 0.0
C437 C 0.21699 0.26556 0.66856 0.0
C438 C 0.23487 0.26856 0.6003 0.0
C439 C 0.24194 0.22782 0.59537 0.0
N440 N 0.23776 0.16583 0.62235 0.0
N441 N 0.20006 0.31892 0.63651 0.0
C442 C 0.23779 0.2065 0.62772 0.0
C443 C 0.21789 0.2855 0.63545 0.0
N444 N 0.2339 0.21022 0.698 0.0
N445 N 0.24455 0.29116 0.57163 0.0
H446 H 0.18494 0.32994 0.6608 0.0
H447 H 0.1969 0.33275 0.61206 0.0
H448 H 0.25787 0.27996 0.54591 0.0
H449 H 0.24281 0.32188 0.57526 0.0
H450 H 0.24691 0.18428 0.69777 0.0
H451 H 0.2269 0.22378 0.72587 0.0
H452 H 0.23095 0.14874 0.64448 0.0
H453 H 0.24015 0.14843 0.59507 0.0
C454 C 0.49174 0.53516 0.66904 0.0
C455 C 0.48868 0.51015 0.63242 0.0
C456 C 0.43442 0.472 0.65523 0.0
C457 C 0.43851 0.49593 0.69256 0.0
N458 N 0.47517 0.54449 0.73778 0.0
N459 N 0.4619 0.45137 0.59175 0.0
C460 C 0.46834 0.52597 0.7003 0.0
C461 C 0.46145 0.4774 0.62593 0.0
N462 N 0.51651 0.56824 0.67347 0.0
N463 N 0.40394 0.44547 0.64729 0.0
H464 H 0.48118 0.45527 0.5697 0.0
H465 H 0.44518 0.42455 0.58644 0.0
H466 H 0.38345 0.44083 0.66798 0.0
H467 H 0.39747 0.43018 0.61948 0.0
H468 H 0.51735 0.59034 0.69793 0.0
H469 H 0.53477 0.57491 0.65134 0.0
H470 H 0.49862 0.56371 0.74584 0.0
H471 H 0.45909 0.53791 0.76166 0.0
C472 C 0.77046 0.32004 0.69773 0.0
C473 C 0.79479 0.28993 0.69026 0.0
C474 C 0.80103 0.30101 0.62211 0.0
C475 C 0.77199 0.32615 0.62788 0.0
N476 N 0.72811 0.35942 0.67098 0.0
N477 N 0.83239 0.24989 0.64587 0.0
C478 C 0.75687 0.33633 0.66586 0.0
C479 C 0.81025 0.28029 0.65266 0.0
N480 N 0.75999 0.33219 0.73543 0.0
N481 N 0.82031 0.29772 0.58769 0.0
H482 H 0.84037 0.23501 0.66808 0.0
H483 H 0.84105 0.23791 0.61807 0.0
H484 H 0.8149 0.31345 0.56516 0.0
H485 H 0.84386 0.28272 0.58296 0.0
H486 H 0.74466 0.35628 0.74388 0.0
H487 H 0.76937 0.31987 0.75881 0.0
H488 H 0.7133 0.36442 0.69699 0.0
H489 H 0.71743 0.37181 0.64838 0.0
C490 C 0.53941 1.00099 0.61922 0.0
C491 C 0.51222 0.96783 0.6131 0.0
C492 C 0.53698 0.94251 0.66891 0.0
C493 C 0.55904 0.97926 0.67944 0.0
N494 N 0.57729 0.04628 0.66633 0.0
N495 N 0.48175 0.91004 0.63635 0.0
C496 C 0.55975 0.0091 0.65473 0.0
C497 C 0.51036 0.93908 0.6388 0.0
N498 N 0.54501 0.0254 0.59135 0.0
N499 N 0.54181 0.91059 0.68723 0.0
H500 H 0.461 0.90811 0.61592 0.0
H501 H 0.47682 0.89067 0.65688 0.0
H502 H 0.56205 0.9115 0.70829 0.0
H503 H 0.52863 0.88215 0.67836 0.0
H504 H 0.56676 0.04771 0.59219 0.0
H505 H 0.5299 0.0208 0.5655 0.0
H506 H 0.57509 0.07033 0.65144 0.0
H507 H 0.59115 0.0545 0.69278 0.0
C508 C 0.86629 0.19777 0.79477 0.0
C509 C 0.84169 0.22779 0.79875 0.0
C510 C 0.86733 0.25422 0.86397 0.0
C511 C 0.88878 0.22123 0.86158 0.0
N512 N 0.90336 0.15752 0.82723 0.0
N513 N 0.81681 0.28349 0.83836 0.0
C514 C 0.88645 0.19163 0.82779 0.0
C515 C 0.84143 0.25543 0.83396 0.0
N516 N 0.87294 0.17754 0.75861 0.0
N517 N 0.87355 0.28591 0.89331 0.0
H518 H 0.79899 0.28685 0.81619 0.0
H519 H 0.81209 0.30141 0.86485 0.0
H520 H 0.8931 0.28717 0.91506 0.0
H521 H 0.86189 0.31272 0.89416 0.0
H522 H 0.89283 0.15746 0.7531 0.0
H523 H 0.86211 0.1852 0.73353 0.0
H524 H 0.89969 0.13334 0.80475 0.0
H525 H 0.91815 0.15188 0.85096 0.0
C526 C 0.45889 0.87404 0.5313 0.0
C527 C 0.48781 0.90542 0.53764 0.0
C528 C 0.52974 0.86042 0.50224 0.0
C529 C 0.49936 0.83266 0.48888 0.0
N530 N 0.43352 0.81514 0.48871 0.0
N531 N 0.55036 0.92952 0.52588 0.0
C532 C 0.46358 0.83941 0.50364 0.0
C533 C 0.52337 0.89864 0.5229 0.0
N534 N 0.42604 0.87858 0.55011 0.0
N535 N 0.5647 0.85019 0.49509 0.0
H536 H 0.54608 0.95797 0.53981 0.0
H537 H 0.57577 0.92763 0.51188 0.0
H538 H 0.57015 0.82202 0.4809 0.0
H539 H 0.58789 0.86791 0.50685 0.0
H540 H 0.40522 0.85538 0.55022 0.0
H541 H 0.42079 0.90481 0.56826 0.0
H542 H 0.40659 0.82178 0.49463 0.0
H543 H 0.435 0.79 0.46774 0.0
C544 C 0.13566 0.23532 0.8029 0.0
C545 C 0.13034 0.26524 0.77995 0.0
C546 C 0.06873 0.27192 0.80748 0.0
C547 C 0.07319 0.24022 0.82881 0.0
N548 N 0.10878 0.18887 0.84471 0.0
N549 N 0.0919 0.30924 0.75605 0.0
C550 C 0.10605 0.22095 0.82581 0.0
C551 C 0.09687 0.28288 0.78113 0.0
N552 N 0.16954 0.22171 0.80347 0.0
N553 N 0.0377 0.29158 0.81264 0.0
H554 H 0.11241 0.31791 0.73682 0.0
H555 H 0.067 0.32053 0.7523 0.0
H556 H 0.01564 0.28305 0.83012 0.0
H557 H 0.03441 0.31763 0.80133 0.0
H558 H 0.17676 0.20268 0.8223 0.0
H559 H 0.19151 0.23182 0.78672 0.0
H560 H 0.13033 0.17085 0.84049 0.0
H561 H 0.08831 0.17869 0.86324 0.0
C562 C 0.54247 0.61346 0.53823 0.0
C563 C 0.53841 0.57248 0.52147 0.0
C564 C 0.51266 0.59082 0.46221 0.0
C565 C 0.51721 0.63174 0.47922 0.0
N566 N 0.54893 0.6821 0.52689 0.0
N567 N 0.52768 0.52321 0.46459 0.0
C568 C 0.53629 0.64305 0.51507 0.0
C569 C 0.52665 0.5617 0.48217 0.0
N570 N 0.54926 0.62406 0.57731 0.0
N571 N 0.49284 0.57937 0.4286 0.0
H572 H 0.53752 0.50187 0.47914 0.0
H573 H 0.52235 0.51357 0.43502 0.0
H574 H 0.48159 0.59955 0.41356 0.0
H575 H 0.48517 0.54967 0.41713 0.0
H576 H 0.5477 0.65295 0.59203 0.0
H577 H 0.55404 0.60336 0.59547 0.0
H578 H 0.56574 0.6913 0.55125 0.0
H579 H 0.54616 0.70446 0.5099 0.0
C580 C 0.88796 0.82377 0.77395 0.0
C581 C 0.86089 0.79152 0.77709 0.0
C582 C 0.89592 0.74903 0.72911 0.0
C583 C 0.91779 0.78339 0.71974 0.0
N584 N 0.92959 0.85552 0.73048 0.0
N585 N 0.83792 0.72341 0.75528 0.0
C586 C 0.91296 0.82133 0.74184 0.0
C587 C 0.86475 0.75395 0.75428 0.0
N588 N 0.88854 0.85753 0.80091 0.0
N589 N 0.90551 0.71169 0.71513 0.0
H590 H 0.81542 0.72609 0.77399 0.0
H591 H 0.83701 0.69666 0.73595 0.0
H592 H 0.92932 0.70686 0.69871 0.0
H593 H 0.89223 0.68585 0.72368 0.0
H594 H 0.90937 0.88091 0.80219 0.0
H595 H 0.87024 0.85998 0.82446 0.0
H596 H 0.92387 0.88396 0.74345 0.0
H597 H 0.94574 0.85589 0.70538 0.0
C598 C 0.05876 0.90878 0.51538 0.0
C599 C 0.05921 0.94909 0.53389 0.0
C600 C 0.04384 0.92561 0.59665 0.0
C601 C 0.04267 0.88542 0.57763 0.0
N602 N 0.06197 0.83963 0.5226 0.0
N603 N 0.06213 0.99566 0.59326 0.0
C604 C 0.0546 0.87737 0.53823 0.0
C605 C 0.05559 0.95727 0.57511 0.0
N606 N 0.0589 0.90029 0.4755 0.0
N607 N 0.03128 0.93376 0.63423 0.0
H608 H 0.0708 0.01865 0.57761 0.0
H609 H 0.06278 1.00386 0.62353 0.0
H610 H 0.02213 0.9116 0.65083 0.0
H611 H 0.02753 0.96244 0.64813 0.0
H612 H 0.05355 0.87149 0.46024 0.0
H613 H 0.06208 0.92248 0.4577 0.0
H614 H 0.07376 0.83278 0.495 0.0
H615 H 0.06004 0.81614 0.53892 0.0
C616 C 0.15133 0.72971 0.72576 0.0
C617 C 0.14125 0.7104 0.75828 0.0
C618 C 0.07624 0.71069 0.74383 0.0
C619 C 0.08624 0.72802 0.70974 0.0
N620 N 0.13321 0.7456 0.66349 0.0
N621 N 0.09581 0.67525 0.79444 0.0
C622 C 0.12382 0.73508 0.69925 0.0
C623 C 0.10413 0.69832 0.76585 0.0
N624 N 0.1871 0.74407 0.72107 0.0
N625 N 0.04059 0.70858 0.75673 0.0
H626 H 0.11605 0.66649 0.81129 0.0
H627 H 0.06946 0.66211 0.79908 0.0
H628 H 0.01941 0.71906 0.74267 0.0
H629 H 0.03253 0.69995 0.78349 0.0
H630 H 0.19562 0.76246 0.70047 0.0
H631 H 0.20794 0.73991 0.73977 0.0
H632 H 0.16007 0.74729 0.65282 0.0
H633 H 0.11383 0.74895 0.64282 0.0
C634 C 0.0214 0.62461 0.54455 0.0
C635 C 0.99909 0.62228 0.51101 0.0
C636 C 1.00295 0.69572 0.51929 0.0
C637 C 0.02456 0.69755 0.55317 0.0
N638 N 0.06252 0.66498 0.59218 0.0
N639 N 0.96313 0.65487 0.47039 0.0
C640 C 0.03664 0.66237 0.56367 0.0
C641 C 0.98898 0.65775 0.4989 0.0
N642 N 0.02443 0.59103 0.56087 0.0
N643 N 0.99637 0.73041 0.50647 0.0
H644 H 0.95052 0.62753 0.45714 0.0
H645 H 0.95167 0.67911 0.46222 0.0
H646 H 0.00637 0.75845 0.52098 0.0
H647 H 0.98376 0.73162 0.48003 0.0
H648 H 0.03693 0.59109 0.58767 0.0
H649 H 0.01047 0.56362 0.54999 0.0
H650 H 0.07538 0.64061 0.59812 0.0
H651 H 0.07376 0.69207 0.60749 0.0
C652 C 0.77967 0.84315 0.27184 0.0
C653 C 0.75426 0.84449 0.24164 0.0
C654 C 0.79138 0.90216 0.22207 0.0
C655 C 0.81488 0.90305 0.25438 0.0
N656 N 0.82991 0.87723 0.31263 0.0
N657 N 0.73107 0.88069 0.1946 0.0
C658 C 0.809 0.87392 0.27969 0.0
C659 C 0.75897 0.87525 0.21822 0.0
N660 N 0.77493 0.81298 0.29384 0.0
N661 N 0.80024 0.92678 0.19486 0.0
H662 H 0.7059 0.86343 0.19386 0.0
H663 H 0.73128 0.90487 0.1794 0.0
H664 H 0.8239 0.94682 0.19675 0.0
H665 H 0.78603 0.9247 0.16869 0.0
H666 H 0.79464 0.80689 0.31282 0.0
H667 H 0.7516 0.79271 0.29183 0.0
H668 H 0.82451 0.85984 0.33472 0.0
H669 H 0.85153 0.89941 0.31948 0.0
C670 C 0.74451 0.14181 0.34981 0.0
C671 C 0.74428 0.16491 0.31911 0.0
C672 C 0.79058 0.12559 0.28366 0.0
C673 C 0.79276 0.10454 0.31589 0.0
N674 N 0.77862 0.10003 0.38362 0.0
N675 N 0.77217 0.18406 0.26019 0.0
C676 C 0.772 0.11518 0.35034 0.0
C677 C 0.76942 0.15878 0.28744 0.0
N678 N 0.71677 0.14282 0.37671 0.0
N679 N 0.80594 0.11208 0.24833 0.0
H680 H 0.75589 0.20764 0.26103 0.0
H681 H 0.79272 0.18377 0.23887 0.0
H682 H 0.81998 0.08661 0.24311 0.0
H683 H 0.80151 0.12371 0.22283 0.0
H684 H 0.71356 0.12384 0.39774 0.0
H685 H 0.69474 0.1595 0.37494 0.0
H686 H 0.76642 0.10956 0.41048 0.0
H687 H 0.79914 0.08111 0.38525 0.0
C688 C 0.38382 0.99374 0.9729 0.0
C689 C 0.41306 1.00283 0.99983 0.0
C690 C 0.37927 0.96413 0.04522 0.0
C691 C 0.35173 0.95116 0.01642 0.0
N692 N 0.33144 0.94788 0.94967 0.0
N693 N 0.44236 0.99124 0.05799 0.0
C694 C 0.35486 0.96448 0.97934 0.0
C695 C 0.41189 0.98634 0.03495 0.0
N696 N 0.38345 0.0138 0.94163 0.0
N697 N 0.37357 0.95708 0.08286 0.0
H698 H 0.46681 0.00688 0.0506 0.0
H699 H 0.44446 0.97666 0.08213 0.0
H700 H 0.34921 0.94277 0.09223 0.0
H701 H 0.39137 0.96919 0.10571 0.0
H702 H 0.36102 0.0115 0.92303 0.0
H703 H 0.40442 0.03545 0.93642 0.0
H704 H 0.33489 0.95367 0.92103 0.0
H705 H 0.31062 0.92537 0.95262 0.0
C706 C 0.24938 0.39114 0.34249 0.0
C707 C 0.25207 0.36149 0.30939 0.0
C708 C 0.21309 0.39633 0.27197 0.0
C709 C 0.20892 0.42515 0.30577 0.0
N710 N 0.2152 0.44395 0.37568 0.0
N711 N 0.22975 0.33004 0.24637 0.0
C712 C 0.22465 0.42068 0.34186 0.0
C713 C 0.23157 0.36222 0.27534 0.0
N714 N 0.27165 0.39206 0.37386 0.0
N715 N 0.20169 0.40263 0.2362 0.0
H716 H 0.24279 0.30461 0.24866 0.0
H717 H 0.21253 0.32699 0.22223 0.0
H718 H 0.1892 0.42781 0.23187 0.0
H719 H 0.20766 0.38464 0.21013 0.0
H720 H 0.2739 0.41545 0.39719 0.0
H721 H 0.29012 0.37088 0.37497 0.0
H722 H 0.2232 0.43952 0.40331 0.0
H723 H 0.19622 0.46503 0.37646 0.0
C724 C 0.14108 0.00735 0.48545 0.0
C725 C 0.10868 0.022 0.5028 0.0
C726 C 0.1439 0.08694 0.52389 0.0
C727 C 0.17375 0.07461 0.49976 0.0
N728 N 0.20055 0.02286 0.45597 0.0
N729 N 0.07854 0.07742 0.53616 0.0
C730 C 0.17265 0.03447 0.48066 0.0
C731 C 0.11016 0.06211 0.52207 0.0
N732 N 0.14128 0.9675 0.47293 0.0
N733 N 0.14795 0.12221 0.549 0.0
H734 H 0.05343 0.05999 0.536 0.0
H735 H 0.07685 0.10772 0.54579 0.0
H736 H 0.17261 0.14065 0.55178 0.0
H737 H 0.12823 0.13099 0.56987 0.0
H738 H 0.16468 0.95395 0.46278 0.0
H739 H 0.11869 0.94761 0.47703 0.0
H740 H 0.19944 0.9954 0.43781 0.0
H741 H 0.22387 0.04181 0.45132 0.0
C742 C 0.74428 0.17368 0.78835 0.0
C743 C 0.77299 0.17451 0.76034 0.0
C744 C 0.75536 0.10382 0.73614 0.0
C745 C 0.7224 0.10553 0.7583 0.0
N746 N 0.68331 0.14493 0.80279 0.0
N747 N 0.80041 0.14185 0.70154 0.0
C748 C 0.71651 0.14093 0.78444 0.0
C749 C 0.77754 0.13974 0.73297 0.0
N750 N 0.7424 0.20545 0.81722 0.0
N751 N 0.76547 0.06799 0.71797 0.0
H752 H 0.81468 0.16847 0.69609 0.0
H753 H 0.80189 0.11822 0.67869 0.0
H754 H 0.75041 0.04087 0.72078 0.0
H755 H 0.7908 0.06507 0.70397 0.0
H756 H 0.72429 0.2054 0.84086 0.0
H757 H 0.76133 0.23047 0.81904 0.0
H758 H 0.67633 0.1716 0.81886 0.0
H759 H 0.66117 0.12304 0.79893 0.0
C760 C 0.37781 0.01084 0.5551 0.0
C761 C 0.41456 0.01959 0.5433 0.0
C762 C 0.39545 0.06849 0.50451 0.0
C763 C 0.35868 0.06066 0.51742 0.0
N764 N 0.31627 0.03163 0.56209 0.0
N765 N 0.46008 0.06037 0.51271 0.0
C766 C 0.35022 0.03383 0.54474 0.0
C767 C 0.42388 0.04975 0.5199 0.0
N768 N 0.36926 0.97974 0.5754 0.0
N769 N 0.40286 0.09232 0.47633 0.0
H770 H 0.48115 0.04646 0.52335 0.0
H771 H 0.46937 0.08464 0.49894 0.0
H772 H 0.38272 0.10644 0.46438 0.0
H773 H 0.42838 0.09597 0.46276 0.0
H774 H 0.34242 0.96854 0.58087 0.0
H775 H 0.38917 0.96338 0.58465 0.0
H776 H 0.30967 0.01565 0.58507 0.0
H777 H 0.29558 0.04884 0.55616 0.0
C778 C 0.62835 0.53214 0.54804 0.0
C779 C 0.59351 0.51017 0.54111 0.0
C780 C 0.62418 0.45075 0.51352 0.0
C781 C 0.65853 0.47116 0.52604 0.0
N782 N 0.69413 0.53098 0.55606 0.0
N783 N 0.55792 0.44755 0.51963 0.0
C784 C 0.66095 0.51202 0.54295 0.0
C785 C 0.59142 0.46933 0.52374 0.0
N786 N 0.63004 0.57223 0.56024 0.0
N787 N 0.62291 0.41372 0.49144 0.0
H788 H 0.53332 0.46037 0.52579 0.0
H789 H 0.55452 0.41659 0.51232 0.0
H790 H 0.64639 0.39912 0.48375 0.0
H791 H 0.59913 0.39898 0.47793 0.0
H792 H 0.65428 0.5912 0.5627 0.0
H793 H 0.6065 0.58697 0.56456 0.0
H794 H 0.69737 0.5593 0.5726 0.0
H795 H 0.71855 0.51733 0.55254 0.0
C796 C 0.76168 0.26672 0.37509 0.0
C797 C 0.7272 0.24364 0.37332 0.0
C798 C 0.71722 0.26665 0.44315 0.0
C799 C 0.74927 0.29376 0.44361 0.0
N800 N 0.80033 0.32306 0.40876 0.0
N801 N 0.66922 0.22659 0.40411 0.0
C802 C 0.77152 0.29428 0.40944 0.0
C803 C 0.70433 0.24465 0.40707 0.0
N804 N 0.78432 0.26338 0.34323 0.0
N805 N 0.69935 0.26134 0.47731 0.0
H806 H 0.65868 0.20966 0.37838 0.0
H807 H 0.64967 0.23079 0.42631 0.0
H808 H 0.70798 0.27684 0.5044 0.0
H809 H 0.6782 0.23884 0.47923 0.0
H810 H 0.81155 0.27572 0.34359 0.0
H811 H 0.77638 0.24579 0.31697 0.0
H812 H 0.81503 0.32785 0.38355 0.0
H813 H 0.8079 0.34461 0.43274 0.0
C814 C 0.51825 0.06576 0.90144 0.0
C815 C 0.52625 0.05958 0.93995 0.0
C816 C 0.58885 0.04531 0.91884 0.0
C817 C 0.58124 0.05394 0.88106 0.0
N818 N 0.54172 0.08072 0.83878 0.0
N819 N 0.56892 0.04453 0.98609 0.0
C820 C 0.54685 0.06677 0.87313 0.0
C821 C 0.56176 0.0503 0.94895 0.0
N822 N 0.48274 0.06794 0.89112 0.0
N823 N 0.62093 0.02972 0.92513 0.0
H824 H 0.54833 0.04291 0.00702 0.0
H825 H 0.59511 0.04275 0.99652 0.0
H826 H 0.64114 0.02494 0.9037 0.0
H827 H 0.62675 0.01884 0.95062 0.0
H828 H 0.47454 0.06765 0.86239 0.0
H829 H 0.46084 0.06639 0.91072 0.0
H830 H 0.51854 0.0944 0.83314 0.0
H831 H 0.56214 0.0821 0.81738 0.0
C832 C 0.32509 0.26162 0.38245 0.0
C833 C 0.3149 0.24909 0.34264 0.0
C834 C 0.30173 0.18007 0.35636 0.0
C835 C 0.31253 0.19288 0.39586 0.0
N836 N 0.34387 0.24331 0.44357 0.0
N837 N 0.29878 0.19576 0.29034 0.0
C838 C 0.32722 0.23287 0.40792 0.0
C839 C 0.30533 0.20793 0.32915 0.0
N840 N 0.33031 0.30141 0.39672 0.0
N841 N 0.28602 0.14193 0.34542 0.0
H842 H 0.29987 0.21589 0.27058 0.0
H843 H 0.29514 0.16599 0.27735 0.0
H844 H 0.28296 0.12084 0.36448 0.0
H845 H 0.2738 0.13172 0.31836 0.0
H846 H 0.33283 0.31259 0.42642 0.0
H847 H 0.32944 0.32346 0.37908 0.0
H848 H 0.35849 0.271 0.45231 0.0
H849 H 0.34623 0.22299 0.46292 0.0
C850 C 0.46085 0.51145 0.93324 0.0
C851 C 0.49123 0.48911 0.92369 0.0
C852 C 0.46704 0.46635 0.85783 0.0
C853 C 0.43436 0.48466 0.8689 0.0
N854 N 0.39791 0.52055 0.91883 0.0
N855 N 0.52156 0.4411 0.8794 0.0
C856 C 0.43068 0.50639 0.90704 0.0
C857 C 0.49384 0.46534 0.88666 0.0
N858 N 0.46124 0.53776 0.96728 0.0
N859 N 0.4734 0.45177 0.81946 0.0
H860 H 0.5421 0.44044 0.89968 0.0
H861 H 0.52261 0.4196 0.85459 0.0
H862 H 0.45518 0.45335 0.79709 0.0
H863 H 0.49837 0.44183 0.80922 0.0
H864 H 0.44164 0.55793 0.97445 0.0
H865 H 0.48305 0.54159 0.98695 0.0
H866 H 0.39247 0.53315 0.94748 0.0
H867 H 0.37491 0.51664 0.90078 0.0
C868 C 0.76171 0.74202 0.18352 0.0
C869 C 0.73513 0.76901 0.18073 0.0
C870 C 0.74595 0.76348 0.10996 0.0
C871 C 0.77023 0.73393 0.11212 0.0
N872 N 0.79719 0.69034 0.15023 0.0
N873 N 0.69499 0.79699 0.14028 0.0
C874 C 0.7776 0.72233 0.14882 0.0
C875 C 0.72549 0.77768 0.14368 0.0
N876 N 0.77035 0.73381 0.21942 0.0
N877 N 0.74271 0.77829 0.07574 0.0
H878 H 0.67811 0.80566 0.16407 0.0
H879 H 0.68432 0.80064 0.11349 0.0
H880 H 0.75757 0.76873 0.05054 0.0
H881 H 0.72811 0.80261 0.0735 0.0
H882 H 0.7929 0.71896 0.22463 0.0
H883 H 0.75528 0.7431 0.24437 0.0
H884 H 0.80013 0.67765 0.17539 0.0
H885 H 0.80827 0.67403 0.12558 0.0
C886 C 1.00126 0.04853 0.16301 0.0
C887 C 0.99869 0.0172 0.13092 0.0
C888 C 0.95402 0.97756 0.16643 0.0
C889 C 0.95469 0.01014 0.1975 0.0
N890 N 0.97596 0.07783 0.22493 0.0
N891 N 0.97172 0.95361 0.09946 0.0
C892 C 0.97746 0.04605 0.19566 0.0
C893 C 0.97487 0.98206 0.13199 0.0
N894 N 0.02727 0.08012 0.16239 0.0
N895 N 0.93363 0.94239 0.17007 0.0
H896 H 0.98758 0.95594 0.07436 0.0
H897 H 0.95224 0.92892 0.0963 0.0
H898 H 0.91667 0.9387 0.1941 0.0
H899 H 0.93478 0.91617 0.1504 0.0
H900 H 0.03333 0.10237 0.18615 0.0
H901 H 0.04498 0.08245 0.13872 0.0
H902 H 0.98869 0.10627 0.22339 0.0
H903 H 0.96011 0.07652 0.2502 0.0
C904 C 0.2987 0.77295 0.14743 0.0
C905 C 0.28838 0.78881 0.18581 0.0
C906 C 0.25529 0.83862 0.16038 0.0
C907 C 0.26574 0.82277 0.12173 0.0
N908 N 0.30537 0.78227 0.07951 0.0
N909 N 0.26372 0.84057 0.23039 0.0
C910 C 0.2899 0.79212 0.11557 0.0
C911 C 0.26911 0.82322 0.1927 0.0
N912 N 0.31566 0.73854 0.14141 0.0
N913 N 0.23052 0.86655 0.16606 0.0
H914 H 0.27326 0.82907 0.25421 0.0
H915 H 0.25267 0.86775 0.23796 0.0
H916 H 0.21944 0.87817 0.14318 0.0
H917 H 0.2189 0.87627 0.19313 0.0
H918 H 0.31984 0.72246 0.11382 0.0
H919 H 0.3237 0.72477 0.16439 0.0
H920 H 0.32579 0.76285 0.07404 0.0
H921 H 0.30045 0.79655 0.0558 0.0
C922 C 0.00597 0.44481 0.14821 0.0
C923 C 0.00817 0.47495 0.124 0.0
C924 C 0.05696 0.51326 0.16599 0.0
C925 C 0.05602 0.48194 0.18899 0.0
N926 N 0.03696 0.41312 0.19461 0.0
N927 N 0.04143 0.53348 0.1046 0.0
C928 C 0.0329 0.44612 0.17765 0.0
C929 C 0.03593 0.50745 0.13103 0.0
N930 N 0.97673 0.41647 0.14505 0.0
N931 N 0.07542 0.5497 0.17887 0.0
H932 H 0.02574 0.53073 0.07929 0.0
H933 H 0.06358 0.55537 0.10591 0.0
H934 H 0.08982 0.55628 0.2051 0.0
H935 H 0.07348 0.57479 0.16543 0.0
H936 H 0.97159 0.39608 0.16459 0.0
H937 H 0.95576 0.41613 0.1252 0.0
H938 H 0.02302 0.38523 0.18499 0.0
H939 H 0.05718 0.41261 0.21536 0.0
C940 C 0.35739 0.69521 0.29144 0.0
C941 C 0.33798 0.72961 0.29494 0.0
C942 C 0.37194 0.75714 0.35543 0.0
C943 C 0.3883 0.72074 0.354 0.0
N944 N 0.39189 0.65251 0.32393 0.0
N945 N 0.32413 0.79217 0.33219 0.0
C946 C 0.3795 0.68892 0.32301 0.0
C947 C 0.34438 0.76011 0.32771 0.0
N948 N 0.35694 0.67008 0.25675 0.0
N949 N 0.38436 0.78976 0.38167 0.0
H950 H 0.30475 0.79614 0.31178 0.0
H951 H 0.32432 0.81311 0.35753 0.0
H952 H 0.40519 0.78936 0.40171 0.0
H953 H 0.37656 0.81829 0.38128 0.0
H954 H 0.37306 0.64626 0.25095 0.0
H955 H 0.34382 0.67623 0.23229 0.0
H956 H 0.38334 0.62713 0.30418 0.0
H957 H 0.40812 0.64685 0.34656 0.0
C958 C 0.01867 0.41027 0.03124 0.0
C959 C 0.98318 0.41637 0.04661 0.0
C960 C 0.95912 0.35092 0.01128 0.0
C961 C 0.9949 0.34466 0.99635 0.0
N962 N 0.06023 0.36277 1.00196 0.0
N963 N 0.92143 0.38902 0.05849 0.0
C964 C 0.02519 0.37252 0.00969 0.0
C965 C 0.95429 0.38503 0.03955 0.0
N966 N 0.04543 0.4414 0.03459 0.0
N967 N 0.92921 0.32653 0.99611 0.0
H968 H 0.91611 0.41482 0.07726 0.0
H969 H 0.90065 0.36571 0.05808 0.0
H970 H 0.93091 0.3018 0.97464 0.0
H971 H 0.90219 0.33271 1.0023 0.0
H972 H 0.07071 0.4401 0.02025 0.0
H973 H 0.041 0.46957 0.04914 0.0
H974 H 0.08337 0.38053 0.0138 0.0
H975 H 0.06591 0.33495 0.98713 0.0
C976 C 0.59996 0.77817 0.26285 0.0
C977 C 0.63501 0.77946 0.27975 0.0
C978 C 0.60648 0.77198 0.34296 0.0
C979 C 0.57125 0.76572 0.32509 0.0
N980 N 0.5358 0.75355 0.26524 0.0
N981 N 0.67171 0.76785 0.33298 0.0
C982 C 0.56824 0.76631 0.2842 0.0
C983 C 0.63827 0.77333 0.31896 0.0
N984 N 0.59701 0.78911 0.22677 0.0
N985 N 0.60979 0.77877 0.38279 0.0
H986 H 0.69521 0.76727 0.31543 0.0
H987 H 0.67519 0.75968 0.36042 0.0
H988 H 0.58736 0.78078 0.40178 0.0
H989 H 0.63494 0.78706 0.39687 0.0
H990 H 0.5719 0.79247 0.21452 0.0
H991 H 0.61988 0.79833 0.21072 0.0
H992 H 0.5333 0.75008 0.23491 0.0
H993 H 0.51242 0.74219 0.27912 0.0
C994 C 0.03603 0.1084 0.02569 0.0
C995 C 0.03802 0.06754 0.01048 0.0
C996 C 0.02277 0.08194 0.9455 0.0
C997 C 0.01384 0.12056 0.96261 0.0
N998 N 0.00531 0.16712 0.02172 0.0
N999 N 0.03036 0.01445 0.95615 0.0
C1000 C 0.01923 0.13323 1.00337 0.0
C1001 C 0.03102 0.0541 0.97027 0.0
N1002 N 0.04828 0.12276 0.06265 0.0
N1003 N 0.02421 0.07211 0.90574 0.0
H1004 H 0.03685 0.99383 0.97357 0.0
H1005 H 0.02124 1.00197 0.92819 0.0
H1006 H 0.01946 0.09211 0.88677 0.0
H1007 H 0.0337 0.04568 0.89176 0.0
H1008 H 0.05069 0.15302 0.07418 0.0
H1009 H 0.05946 0.10472 0.08019 0.0
H1010 H 0.0053 0.17533 0.05201 0.0
H1011 H 0.98973 0.18461 0.00758 0.0
C1012 C 0.35077 0.27005 0.23097 0.0
C1013 C 0.35737 0.2838 0.27148 0.0
C1014 C 0.42399 0.28419 0.25917 0.0
C1015 C 0.41736 0.27362 0.21842 0.0
N1016 N 0.37505 0.25941 0.16453 0.0
N1017 N 0.40018 0.3104 0.32277 0.0
C1018 C 0.38085 0.26685 0.20408 0.0
C1019 C 0.39401 0.29212 0.28528 0.0
N1020 N 0.31536 0.26122 0.2182 0.0
N1021 N 0.45899 0.28623 0.27303 0.0
H1022 H 0.37883 0.31719 0.34207 0.0
H1023 H 0.42606 0.3217 0.33372 0.0
H1024 H 0.48176 0.28218 0.25474 0.0
H1025 H 0.46519 0.2891 0.30266 0.0
H1026 H 0.30801 0.24733 0.19015 0.0
H1027 H 0.29279 0.26537 0.23671 0.0
H1028 H 0.34951 0.25822 0.15149 0.0
H1029 H 0.39638 0.25695 0.14407 0.0
C1030 C 0.55085 0.45502 0.06895 0.0
C1031 C 0.55803 0.44581 0.02833 0.0
C1032 C 0.55724 0.37508 0.0357 0.0
C1033 C 0.54184 0.38337 0.07362 0.0
N1034 N 0.52339 0.43194 0.12696 0.0
N1035 N 0.56431 0.39552 0.97201 0.0
C1036 C 0.53929 0.42366 0.09091 0.0
C1037 C 0.56119 0.40544 0.01164 0.0
N1038 N 0.55374 0.49395 0.086 0.0
N1039 N 0.56797 0.33804 0.02257 0.0
H1040 H 0.56671 0.41679 0.9532 0.0
H1041 H 0.56181 0.36613 0.95771 0.0
H1042 H 0.56619 0.31544 0.03996 0.0
H1043 H 0.58222 0.33132 0.99637 0.0
H1044 H 0.55174 0.50312 0.11605 0.0
H1045 H 0.56202 0.51679 0.07006 0.0
H1046 H 0.51687 0.46032 0.13913 0.0
H1047 H 0.51432 0.40999 0.14382 0.0
C1048 C 0.60514 0.21145 0.27266 0.0
C1049 C 0.64202 0.221 0.26191 0.0
C1050 C 0.62231 0.24143 0.20153 0.0
C1051 C 0.58519 0.23562 0.21408 0.0
N1052 N 0.54098 0.21967 0.26363 0.0
N1053 N 0.68676 0.2486 0.21933 0.0
C1054 C 0.57643 0.22155 0.2501 0.0
C1055 C 0.6509 0.23693 0.22716 0.0
N1056 N 0.59782 0.1923 0.3043 0.0
N1057 N 0.63013 0.24967 0.1646 0.0
H1058 H 0.70824 0.24472 0.23736 0.0
H1059 H 0.695 0.26454 0.19674 0.0
H1060 H 0.60992 0.25273 0.14475 0.0
H1061 H 0.65638 0.25013 0.15235 0.0
H1062 H 0.57163 0.1807 0.31165 0.0
H1063 H 0.61856 0.18523 0.32157 0.0
H1064 H 0.53351 0.21396 0.29159 0.0
H1065 H 0.5191 0.22679 0.24803 0.0
C1066 C 0.52158 0.12411 0.04729 0.0
C1067 C 0.50359 0.12142 0.01078 0.0
C1068 C 0.51054 0.1948 0.01658 0.0
C1069 C 0.52738 0.19691 0.05347 0.0
N1070 N 0.55915 0.16458 0.09815 0.0
N1071 N 0.47719 0.15356 0.96246 0.0
C1072 C 0.53629 0.16183 0.06685 0.0
C1073 C 0.49781 0.15669 0.99543 0.0
N1074 N 0.5214 0.09103 0.06524 0.0
N1075 N 0.5072 0.22931 1.00184 0.0
H1076 H 0.4662 0.12613 0.94784 0.0
H1077 H 0.46889 0.17766 0.95086 0.0
H1078 H 0.51641 0.25736 0.01691 0.0
H1079 H 0.49785 0.23041 0.97386 0.0
H1080 H 0.52982 0.09191 0.09397 0.0
H1081 H 0.50953 0.06305 0.0528 0.0
H1082 H 0.56972 0.14 0.10684 0.0
H1083 H 0.57065 0.19182 0.11298 0.0
C1084 C 0.22339 0.38241 0.72716 0.0
C1085 C 0.23541 0.34401 0.72743 0.0
C1086 C 0.29951 0.37322 0.72901 0.0
C1087 C 0.28728 0.41188 0.73303 0.0
N1088 N 0.23769 0.45424 0.74073 0.0
N1089 N 0.28417 0.30384 0.73603 0.0
C1090 C 0.24922 0.41678 0.73298 0.0
C1091 C 0.27335 0.33957 0.7299 0.0
N1092 N 0.18699 0.38593 0.72185 0.0
N1093 N 0.33611 0.36869 0.72405 0.0
H1094 H 0.26536 0.2795 0.73894 0.0
H1095 H 0.31115 0.29952 0.74202 0.0
H1096 H 0.35596 0.39282 0.72353 0.0
H1097 H 0.34636 0.34099 0.71708 0.0
H1098 H 0.17683 0.41224 0.71696 0.0
H1099 H 0.16705 0.36161 0.71923 0.0
H1100 H 0.21037 0.45971 0.74584 0.0
H1101 H 0.2557 0.48024 0.74513 0.0
C1102 C 0.28165 0.6738 0.81803 0.0
C1103 C 0.24394 0.66146 0.82285 0.0
C1104 C 0.25949 0.59504 0.83243 0.0
C1105 C 0.2973 0.60837 0.82953 0.0
N1106 N 0.34497 0.66224 0.82758 0.0
N1107 N 0.19645 0.61189 0.83812 0.0
C1108 C 0.30855 0.64853 0.82539 0.0
C1109 C 0.23277 0.62254 0.8314 0.0
N1110 N 0.29152 0.70798 0.80281 0.0
N1111 N 0.24919 0.55576 0.83497 0.0
H1112 H 0.17596 0.63053 0.8355 0.0
H1113 H 0.18667 0.58574 0.84861 0.0
H1114 H 0.26805 0.53536 0.83806 0.0
H1115 H 0.22222 0.54274 0.83222 0.0
H1116 H 0.31838 0.71705 0.79518 0.0
H1117 H 0.27208 0.7247 0.79344 0.0
H1118 H 0.35444 0.69227 0.82861 0.0
H1119 H 0.36551 0.64413 0.83176 0.0
C1120 C 0.90914 0.48756 0.53578 0.0
C1121 C 0.90956 0.5028 0.5 0.0
C1122 C 0.85163 0.46291 0.48115 0.0
C1123 C 0.8491 0.45118 0.51894 0.0
N1124 N 0.87188 0.45953 0.58521 0.0
N1125 N 0.87937 0.51055 0.44103 0.0
C1126 C 0.87693 0.46538 0.54714 0.0
C1127 C 0.88017 0.49214 0.47337 0.0
N1128 N 0.9399 0.49366 0.55846 0.0
N1129 N 0.82805 0.4448 0.45215 0.0
H1130 H 0.90025 0.53183 0.43462 0.0
H1131 H 0.85682 0.50712 0.42246 0.0
H1132 H 0.80764 0.42211 0.4561 0.0
H1133 H 0.83101 0.4495 0.42314 0.0
H1134 H 0.94254 0.48002 0.58313 0.0
H1135 H 0.96407 0.50933 0.55035 0.0
H1136 H 0.88983 0.47262 0.60759 0.0
H1137 H 0.84787 0.44515 0.59532 0.0
C1138 C 0.77245 0.91373 0.81354 0.0
C1139 C 0.75828 0.87322 0.81041 0.0
C1140 C 0.69555 0.89236 0.80857 0.0
C1141 C 0.71004 0.93259 0.80829 0.0
N1142 N 0.76264 0.98004 0.80154 0.0
N1143 N 0.70752 0.82264 0.79885 0.0
C1144 C 0.74864 0.94294 0.80835 0.0
C1145 C 0.72009 0.86214 0.80614 0.0
N1146 N 0.80858 0.92434 0.82257 0.0
N1147 N 0.65856 0.88328 0.81268 0.0
H1148 H 0.72508 0.80008 0.79697 0.0
H1149 H 0.68041 0.81233 0.79153 0.0
H1150 H 0.63979 0.90471 0.81502 0.0
H1151 H 0.64674 0.85519 0.81706 0.0
H1152 H 0.81986 0.95388 0.82923 0.0
H1153 H 0.82644 0.90347 0.82696 0.0
H1154 H 0.79056 0.98776 0.79733 0.0
H1155 H 0.74622 1.00194 0.79609 0.0
C1156 C 0.60473 0.56011 0.01832 0.0
C1157 C 0.60621 0.52029 0.99921 0.0
C1158 C 0.67088 0.53699 0.98186 0.0
C1159 C 0.66952 0.57645 1.0022 0.0
N1160 N 0.63854 0.62037 0.05077 0.0
N1161 N 0.64309 0.46854 0.97163 0.0
C1162 C 0.63753 0.5863 0.02403 0.0
C1163 C 0.64031 0.50797 0.98435 0.0
N1164 N 0.57152 0.5739 0.02854 0.0
N1165 N 0.69994 0.5278 0.95783 0.0
H1166 H 0.62109 0.44725 0.97371 0.0
H1167 H 0.66783 0.45679 0.96343 0.0
H1168 H 0.7222 0.54831 0.95367 0.0
H1169 H 0.70044 0.50081 0.93911 0.0
H1170 H 0.56842 0.60395 0.03808 0.0
H1171 H 0.54679 0.55566 0.0249 0.0
H1172 H 0.61676 0.62712 0.06975 0.0
H1173 H 0.66251 0.63943 0.05705 0.0
C1174 C 0.24484 0.68405 0.30374 0.0
C1175 C 0.26272 0.68281 0.26695 0.0
C1176 C 0.22694 0.61894 0.24334 0.0
C1177 C 0.20995 0.61971 0.2807 0.0
N1178 N 0.21002 0.64726 0.34922 0.0
N1179 N 0.27566 0.64605 0.20381 0.0
C1180 C 0.22141 0.65038 0.31185 0.0
C1181 C 0.25585 0.64871 0.23784 0.0
N1182 N 0.24778 0.71859 0.3297 0.0
N1183 N 0.21335 0.59219 0.21211 0.0
H1184 H 0.29422 0.66921 0.19696 0.0
H1185 H 0.27536 0.62004 0.18353 0.0
H1186 H 0.19119 0.57086 0.21405 0.0
H1187 H 0.22175 0.59334 0.18333 0.0
H1188 H 0.23227 0.72287 0.35533 0.0
H1189 H 0.2633 0.74419 0.32364 0.0
H1190 H 0.22019 0.66693 0.37356 0.0
H1191 H 0.19324 0.6227 0.35621 0.0
C1192 C 0.92009 0.56325 0.03732 0.0
C1193 C 0.91052 0.53143 0.05864 0.0
C1194 C 0.84575 0.54366 0.05798 0.0
C1195 C 0.85469 0.57198 0.03226 0.0
N1196 N 0.89976 0.60791 0.99549 0.0
N1197 N 0.86508 0.48917 0.08787 0.0
C1198 C 0.89181 0.58203 0.02176 0.0
C1199 C 0.87356 0.52123 0.06885 0.0
N1200 N 0.95638 0.57516 0.03207 0.0
N1201 N 0.81095 0.53923 0.07299 0.0
H1202 H 0.88513 0.47333 0.09765 0.0
H1203 H 0.83833 0.4769 0.09203 0.0
H1204 H 0.79002 0.55576 0.06625 0.0
H1205 H 0.80357 0.52193 0.09479 0.0
H1206 H 0.96575 0.60042 0.01984 0.0
H1207 H 0.97733 0.56116 0.04282 0.0
H1208 H 0.92576 0.61337 0.9835 0.0
H1209 H 0.87974 0.62228 0.98358 0.0
C1210 C 0.09346 0.96603 0.01753 0.0
C1211 C 0.09568 0.0079 0.03045 0.0
C1212 C 0.16311 0.01092 0.02807 0.0
C1213 C 0.16066 0.96895 0.01593 0.0
N1214 N 0.12428 0.90851 0.98889 0.0
N1215 N 0.13162 0.07127 0.0394 0.0
C1216 C 0.12602 0.94715 0.00731 0.0
C1217 C 0.13031 0.03069 0.03247 0.0
N1218 N 0.06022 0.94389 0.01779 0.0
N1219 N 0.19655 0.03149 0.03761 0.0
H1220 H 0.10786 0.08582 0.04264 0.0
H1221 H 0.15557 0.09028 0.03814 0.0
H1222 H 0.22111 0.01809 0.03481 0.0
H1223 H 0.19992 0.06121 0.05078 0.0
H1224 H 0.05714 0.9128 0.014 0.0
H1225 H 0.03569 0.95683 0.02405 0.0
H1226 H 0.09997 0.89228 0.97825 0.0
H1227 H 0.14766 0.89379 0.98102 0.0
loop_
_geom_bond_atom_site_label_1
_geom_bond_atom_site_label_2
_geom_bond_distance
_geom_bond_site_symmetry_2
_ccdc_geom_bond_type
C0 N1 1.317 1_565 S
C0 N2 1.348 1_465 S
C0 C3 1.485 . S
N1 C0 1.317 1_545 S
N1 N5 1.370 . S
N2 C0 1.348 1_645 S
N2 C4 1.346 . S
C3 C0 1.485 . S
C3 H7 0.960 . S
C3 H8 0.961 . S
C3 H9 0.960 . S
C4 N2 1.346 . S
C4 N5 1.307 1_655 S
C4 C6 1.486 . S
N5 N1 1.370 . S
N5 C4 1.307 1_455 S
C6 C4 1.486 . S
C6 H10 0.960 . S
C6 H11 0.960 . S
C6 H12 0.959 . S
H7 C3 0.960 . S
H8 C3 0.961 . S
H9 C3 0.960 . S
H10 C6 0.960 . S
H11 C6 0.960 . S
H12 C6 0.959 . S
C13 N14 1.317 . S
C13 N15 1.348 . S
C13 C16 1.485 . S
N14 C13 1.317 . S
N14 N18 1.370 . S
N15 C13 1.348 . S
N15 C17 1.346 . S
C16 C13 1.485 . S
C16 H20 0.960 . S
C16 H21 0.961 . S
C16 H22 0.960 . S
C17 N15 1.346 . S
C17 N18 1.307 . S
C17 C19 1.486 . S
N18 N14 1.370 . S
N18 C17 1.307 . S
C19 C17 1.486 . S
C19 H23 0.960 . S
C19 H24 0.960 . S
C19 H25 0.959 . S
H20 C16 0.960 . S
H21 C16 0.961 . S
H22 C16 0.960 . S
H23 C19 0.960 . S
H24 C19 0.960 . S
H25 C19 0.959 . S
C26 N27 1.317 . S
C26 N28 1.348 . S
C26 C29 1.485 . S
N27 C26 1.317 . S
N27 N31 1.370 . S
N28 C26 1.348 . S
N28 C30 1.346 . S
C29 C26 1.485 . S
C29 H33 0.960 . S
C29 H34 0.961 . S
C29 H35 0.960 . S
C30 N28 1.346 . S
C30 N31 1.307 . S
C30 C32 1.486 1_554 S
N31 N27 1.370 . S
N31 C30 1.307 . S
C32 C30 1.486 1_556 S
C32 H36 0.960 . S
C32 H37 0.960 . S
C32 H38 0.959 . S
H33 C29 0.960 . S
H34 C29 0.961 . S
H35 C29 0.960 . S
H36 C32 0.960 . S
H37 C32 0.960 . S
H38 C32 0.959 . S
C39 N40 1.317 . S
C39 N41 1.348 . S
C39 C42 1.485 . S
N40 C39 1.317 . S
N40 N44 1.370 . S
N41 C39 1.348 . S
N41 C43 1.346 . S
C42 C39 1.485 . S
C42 H46 0.960 . S
C42 H47 0.961 . S
C42 H48 0.960 . S
C43 N41 1.346 . S
C43 N44 1.307 . S
C43 C45 1.486 . S
N44 N40 1.370 . S
N44 C43 1.307 . S
C45 C43 1.486 . S
C45 H49 0.960 . S
C45 H50 0.960 . S
C45 H51 0.959 . S
H46 C42 0.960 . S
H47 C42 0.961 . S
H48 C42 0.960 . S
H49 C45 0.960 . S
H50 C45 0.960 . S
H51 C45 0.959 . S
C52 N53 1.317 . S
C52 N54 1.348 . S
C52 C55 1.485 1_455 S
N53 C52 1.317 . S
N53 N57 1.370 . S
N54 C52 1.348 . S
N54 C56 1.346 1_565 S
C55 C52 1.485 1_655 S
C55 H59 0.960 . S
C55 H60 0.961 . S
C55 H61 0.960 . S
C56 N54 1.346 1_545 S
C56 N57 1.307 1_545 S
C56 C58 1.486 . S
N57 N53 1.370 . S
N57 C56 1.307 1_565 S
C58 C56 1.486 . S
C58 H62 0.960 . S
C58 H63 0.960 . S
C58 H64 0.959 . S
H59 C55 0.960 . S
H60 C55 0.961 . S
H61 C55 0.960 . S
H62 C58 0.960 . S
H63 C58 0.960 . S
H64 C58 0.959 . S
C65 N66 1.317 . S
C65 N67 1.348 . S
C65 C68 1.485 . S
N66 C65 1.317 . S
N66 N70 1.370 . S
N67 C65 1.348 . S
N67 C69 1.346 . S
C68 C65 1.485 . S
C68 H72 0.960 . S
C68 H73 0.961 . S
C68 H74 0.960 . S
C69 N67 1.346 . S
C69 N70 1.307 . S
C69 C71 1.486 . S
N70 N66 1.370 . S
N70 C69 1.307 . S
C71 C69 1.486 . S
C71 H75 0.960 . S
C71 H76 0.960 . S
C71 H77 0.959 . S
H72 C68 0.960 . S
H73 C68 0.961 . S
H74 C68 0.960 . S
H75 C71 0.960 . S
H76 C71 0.960 . S
H77 C71 0.959 . S
C78 N79 1.317 . S
C78 N80 1.348 . S
C78 C81 1.485 . S
N79 C78 1.317 . S
N79 N83 1.370 . S
N80 C78 1.348 . S
N80 C82 1.346 . S
C81 C78 1.485 . S
C81 H85 0.960 . S
C81 H86 0.961 . S
C81 H87 0.960 . S
C82 N80 1.346 . S
C82 N83 1.307 . S
C82 C84 1.486 . S
N83 N79 1.370 . S
N83 C82 1.307 . S
C84 C82 1.486 . S
C84 H88 0.960 . S
C84 H89 0.960 . S
C84 H90 0.959 . S
H85 C81 0.960 . S
H86 C81 0.961 . S
H87 C81 0.960 . S
H88 C84 0.960 . S
H89 C84 0.960 . S
H90 C84 0.959 . S
C91 N92 1.317 . S
C91 N93 1.348 . S
C91 C94 1.485 . S
N92 C91 1.317 . S
N92 N96 1.370 . S
N93 C91 1.348 . S
N93 C95 1.346 . S
C94 C91 1.485 . S
C94 H98 0.960 . S
C94 H99 0.961 . S
C94 H100 0.960 . S
C95 N93 1.346 . S
C95 N96 1.307 . S
C95 C97 1.486 . S
N96 N92 1.370 . S
N96 C95 1.307 . S
C97 C95 1.486 . S
C97 H101 0.960 . S
C97 H102 0.960 . S
C97 H103 0.959 . S
H98 C94 0.960 . S
H99 C94 0.961 . S
H100 C94 0.960 . S
H101 C97 0.960 . S
H102 C97 0.960 . S
H103 C97 0.959 . S
C104 N105 1.317 . S
C104 N106 1.348 . S
C104 C107 1.485 . S
N105 C104 1.317 . S
N105 N109 1.370 . S
N106 C104 1.348 . S
N106 C108 1.346 . S
C107 C104 1.485 . S
C107 H111 0.960 . S
C107 H112 0.961 . S
C107 H113 0.960 . S
C108 N106 1.346 . S
C108 N109 1.307 . S
C108 C110 1.486 . S
N109 N105 1.370 . S
N109 C108 1.307 . S
C110 C108 1.486 . S
C110 H114 0.960 . S
C110 H115 0.960 . S
C110 H116 0.959 . S
H111 C107 0.960 . S
H112 C107 0.961 . S
H113 C107 0.960 . S
H114 C110 0.960 . S
H115 C110 0.960 . S
H116 C110 0.959 . S
C117 N118 1.317 . S
C117 N119 1.348 . S
C117 C120 1.485 1_565 S
N118 C117 1.317 . S
N118 N122 1.370 . S
N119 C117 1.348 . S
N119 C121 1.346 . S
C120 C117 1.485 1_545 S
C120 H124 0.960 . S
C120 H125 0.961 . S
C120 H126 0.960 . S
C121 N119 1.346 . S
C121 N122 1.307 . S
C121 C123 1.486 . S
N122 N118 1.370 . S
N122 C121 1.307 . S
C123 C121 1.486 . S
C123 H127 0.960 . S
C123 H128 0.960 . S
C123 H129 0.959 . S
H124 C120 0.960 . S
H125 C120 0.961 . S
H126 C120 0.960 . S
H127 C123 0.960 . S
H128 C123 0.960 . S
H129 C123 0.959 . S
C130 N131 1.317 . S
C130 N132 1.348 . S
C130 C133 1.485 . S
N131 C130 1.317 . S
N131 N135 1.370 . S
N132 C130 1.348 . S
N132 C134 1.346 . S
C133 C130 1.485 . S
C133 H137 0.960 . S
C133 H138 0.961 . S
C133 H139 0.960 . S
C134 N132 1.346 . S
C134 N135 1.307 . S
C134 C136 1.486 . S
N135 N131 1.370 . S
N135 C134 1.307 . S
C136 C134 1.486 . S
C136 H140 0.960 . S
C136 H141 0.960 . S
C136 H142 0.959 . S
H137 C133 0.960 . S
H138 C133 0.961 . S
H139 C133 0.960 . S
H140 C136 0.960 . S
H141 C136 0.960 . S
H142 C136 0.959 . S
C143 N144 1.317 . S
C143 N145 1.348 . S
C143 C146 1.485 . S
N144 C143 1.317 . S
N144 N148 1.370 . S
N145 C143 1.348 . S
N145 C147 1.346 . S
C146 C143 1.485 . S
C146 H150 0.960 . S
C146 H151 0.961 . S
C146 H152 0.960 . S
C147 N145 1.346 . S
C147 N148 1.307 . S
C147 C149 1.486 . S
N148 N144 1.370 . S
N148 C147 1.307 . S
C149 C147 1.486 . S
C149 H153 0.960 . S
C149 H154 0.960 . S
C149 H155 0.959 . S
H150 C146 0.960 . S
H151 C146 0.961 . S
H152 C146 0.960 . S
H153 C149 0.960 . S
H154 C149 0.960 . S
H155 C149 0.959 . S
C156 N157 1.317 . S
C156 N158 1.348 . S
C156 C159 1.485 . S
N157 C156 1.317 . S
N157 N161 1.370 . S
N158 C156 1.348 . S
N158 C160 1.346 . S
C159 C156 1.485 . S
C159 H163 0.960 . S
C159 H164 0.961 . S
C159 H165 0.960 . S
C160 N158 1.346 . S
C160 N161 1.307 . S
C160 C162 1.486 . S
N161 N157 1.370 . S
N161 C160 1.307 . S
C162 C160 1.486 . S
C162 H166 0.960 . S
C162 H167 0.960 . S
C162 H168 0.959 . S
H163 C159 0.960 . S
H164 C159 0.961 . S
H165 C159 0.960 . S
H166 C162 0.960 . S
H167 C162 0.960 . S
H168 C162 0.959 . S
C169 N170 1.317 . S
C169 N171 1.348 . S
C169 C172 1.485 . S
N170 C169 1.317 . S
N170 N174 1.370 . S
N171 C169 1.348 . S
N171 C173 1.346 . S
C172 C169 1.485 . S
C172 H176 0.960 . S
C172 H177 0.961 . S
C172 H178 0.960 . S
C173 N171 1.346 . S
C173 N174 1.307 . S
C173 C175 1.486 . S
N174 N170 1.370 . S
N174 C173 1.307 . S
C175 C173 1.486 . S
C175 H179 0.960 . S
C175 H180 0.960 . S
C175 H181 0.959 . S
H176 C172 0.960 . S
H177 C172 0.961 . S
H178 C172 0.960 . S
H179 C175 0.960 . S
H180 C175 0.960 . S
H181 C175 0.959 . S
C182 N183 1.317 . S
C182 N184 1.348 . S
C182 C185 1.485 . S
N183 C182 1.317 . S
N183 N187 1.370 . S
N184 C182 1.348 . S
N184 C186 1.346 . S
C185 C182 1.485 . S
C185 H189 0.960 . S
C185 H190 0.961 . S
C185 H191 0.960 . S
C186 N184 1.346 . S
C186 N187 1.307 . S
C186 C188 1.486 . S
N187 N183 1.370 . S
N187 C186 1.307 . S
C188 C186 1.486 . S
C188 H192 0.960 . S
C188 H193 0.960 . S
C188 H194 0.959 . S
H189 C185 0.960 . S
H190 C185 0.961 . S
H191 C185 0.960 . S
H192 C188 0.960 . S
H193 C188 0.960 . S
H194 C188 0.959 . S
C195 N196 1.317 . S
C195 N197 1.348 . S
C195 C198 1.485 1_545 S
N196 C195 1.317 . S
N196 N200 1.370 . S
N197 C195 1.348 . S
N197 C199 1.346 1_556 S
C198 C195 1.485 1_565 S
C198 H202 0.960 . S
C198 H203 0.961 . S
C198 H204 0.960 . S
C199 N197 1.346 1_554 S
C199 N200 1.307 1_554 S
C199 C201 1.486 . S
N200 N196 1.370 . S
N200 C199 1.307 1_556 S
C201 C199 1.486 . S
C201 H205 0.960 . S
C201 H206 0.960 . S
C201 H207 0.959 . S
H202 C198 0.960 . S
H203 C198 0.961 . S
H204 C198 0.960 . S
H205 C201 0.960 . S
H206 C201 0.960 . S
H207 C201 0.959 . S
C208 O209 1.160 1_554 S
C208 O215 1.185 . S
O209 C208 1.160 1_556 S
O210 Zn211 1.899 1_556 S
O210 C218 1.284 . S
Zn211 O210 1.899 1_554 S
Zn211 O212 2.032 . S
Zn211 O215 2.086 . S
Zn211 O220 1.977 . S
O212 Zn211 2.032 . S
O212 C216 1.278 . S
C213 O214 1.203 . S
C213 O220 1.267 . S
O214 C213 1.203 . S
O215 C208 1.185 . S
O215 Zn211 2.086 . S
C216 O212 1.278 . S
C216 O217 1.211 . S
O217 C216 1.211 . S
C218 O210 1.284 . S
C218 O219 1.273 . S
O219 C218 1.273 . S
O220 Zn211 1.977 . S
O220 C213 1.267 . S
C221 O222 1.160 . S
C221 O228 1.185 . S
O222 C221 1.160 . S
O223 Zn224 1.899 . S
O223 C231 1.284 . S
Zn224 O223 1.899 . S
Zn224 O225 2.032 . S
Zn224 O228 2.086 . S
Zn224 O233 1.977 . S
O225 Zn224 2.032 . S
O225 C229 1.278 . S
C226 O227 1.203 . S
C226 O233 1.267 . S
O227 C226 1.203 . S
O228 C221 1.185 . S
O228 Zn224 2.086 . S
C229 O225 1.278 . S
C229 O230 1.211 . S
O230 C229 1.211 . S
C231 O223 1.284 . S
C231 O232 1.273 . S
O232 C231 1.273 . S
O233 Zn224 1.977 . S
O233 C226 1.267 . S
C234 O235 1.160 1_554 S
C234 O241 1.185 . S
O235 C234 1.160 1_556 S
O236 Zn237 1.899 1_556 S
O236 C244 1.284 . S
Zn237 O236 1.899 1_554 S
Zn237 O238 2.032 1_554 S
Zn237 O241 2.086 . S
Zn237 O246 1.977 . S
O238 Zn237 2.032 1_556 S
O238 C242 1.278 . S
C239 O240 1.203 . S
C239 O246 1.267 . S
O240 C239 1.203 . S
O241 C234 1.185 . S
O241 Zn237 2.086 . S
C242 O238 1.278 . S
C242 O243 1.211 1_556 S
O243 C242 1.211 1_554 S
C244 O236 1.284 . S
C244 O245 1.273 . S
O245 C244 1.273 . S
O246 Zn237 1.977 . S
O246 C239 1.267 . S
C247 O248 1.160 . S
C247 O254 1.185 . S
O248 C247 1.160 . S
O249 Zn250 1.899 . S
O249 C257 1.284 . S
Zn250 O249 1.899 . S
Zn250 O251 2.032 1_545 S
Zn250 O254 2.086 . S
Zn250 O259 1.977 . S
O251 Zn250 2.032 1_565 S
O251 C255 1.278 . S
C252 O253 1.203 1_545 S
C252 O259 1.267 . S
O253 C252 1.203 1_565 S
O254 C247 1.185 . S
O254 Zn250 2.086 . S
C255 O251 1.278 . S
C255 O256 1.211 . S
O256 C255 1.211 . S
C257 O249 1.284 . S
C257 O258 1.273 1_545 S
O258 C257 1.273 1_565 S
O259 Zn250 1.977 . S
O259 C252 1.267 . S
C260 O261 1.160 . S
C260 O267 1.185 . S
O261 C260 1.160 . S
O262 Zn263 1.899 . S
O262 C270 1.284 . S
Zn263 O262 1.899 . S
Zn263 O264 2.032 . S
Zn263 O267 2.086 . S
Zn263 O272 1.977 . S
O264 Zn263 2.032 . S
O264 C268 1.278 . S
C265 O266 1.203 . S
C265 O272 1.267 . S
O266 C265 1.203 . S
O267 C260 1.185 . S
O267 Zn263 2.086 . S
C268 O264 1.278 . S
C268 O269 1.211 . S
O269 C268 1.211 . S
C270 O262 1.284 . S
C270 O271 1.273 . S
O271 C270 1.273 . S
O272 Zn263 1.977 . S
O272 C265 1.267 . S
C273 O274 1.160 . S
C273 O280 1.185 . S
O274 C273 1.160 . S
O275 Zn276 1.899 . S
O275 C283 1.284 . S
Zn276 O275 1.899 . S
Zn276 O277 2.032 . S
Zn276 O280 2.086 . S
Zn276 O285 1.977 . S
O277 Zn276 2.032 . S
O277 C281 1.278 . S
C278 O279 1.203 . S
C278 O285 1.267 . S
O279 C278 1.203 . S
O280 C273 1.185 . S
O280 Zn276 2.086 . S
C281 O277 1.278 . S
C281 O282 1.211 . S
O282 C281 1.211 . S
C283 O275 1.284 . S
C283 O284 1.273 . S
O284 C283 1.273 . S
O285 Zn276 1.977 . S
O285 C278 1.267 . S
C286 O287 1.160 . S
C286 O293 1.185 . S
O287 C286 1.160 . S
O288 Zn289 1.899 . S
O288 C296 1.284 . S
Zn289 O288 1.899 . S
Zn289 O290 2.032 . S
Zn289 O293 2.086 . S
Zn289 O298 1.977 . S
O290 Zn289 2.032 . S
O290 C294 1.278 . S
C291 O292 1.203 . S
C291 O298 1.267 . S
O292 C291 1.203 . S
O293 C286 1.185 . S
O293 Zn289 2.086 . S
C294 O290 1.278 . S
C294 O295 1.211 . S
O295 C294 1.211 . S
C296 O288 1.284 . S
C296 O297 1.273 . S
O297 C296 1.273 . S
O298 Zn289 1.977 . S
O298 C291 1.267 . S
C299 O300 1.160 . S
C299 O306 1.185 . S
O300 C299 1.160 . S
O301 Zn302 1.899 . S
O301 C309 1.284 1_565 S
Zn302 O301 1.899 . S
Zn302 O303 2.032 1_565 S
Zn302 O306 2.086 . S
Zn302 O311 1.977 . S
O303 Zn302 2.032 1_545 S
O303 C307 1.278 . S
C304 O305 1.203 1_565 S
C304 O311 1.267 . S
O305 C304 1.203 1_545 S
O306 C299 1.185 . S
O306 Zn302 2.086 . S
C307 O303 1.278 . S
C307 O308 1.211 . S
O308 C307 1.211 . S
C309 O301 1.284 1_545 S
C309 O310 1.273 . S
O310 C309 1.273 . S
O311 Zn302 1.977 . S
O311 C304 1.267 . S
C312 O313 1.160 . S
C312 O319 1.185 1_655 S
O313 C312 1.160 . S
O314 Zn315 1.899 1_655 S
O314 C322 1.284 . S
Zn315 O314 1.899 1_455 S
Zn315 O316 2.032 1_455 S
Zn315 O319 2.086 . S
Zn315 O324 1.977 . S
O316 Zn315 2.032 1_655 S
O316 C320 1.277 1_655 S
C317 O318 1.203 . S
C317 O324 1.267 . S
O318 C317 1.203 . S
O319 C312 1.185 1_455 S
O319 Zn315 2.086 . S
C320 O316 1.277 1_455 S
C320 O321 1.213 . S
O321 C320 1.213 . S
C322 O314 1.284 . S
C322 O323 1.273 . S
O323 C322 1.273 . S
O324 Zn315 1.977 . S
O324 C317 1.267 . S
C325 O326 1.160 . S
C325 O332 1.185 . S
O326 C325 1.160 . S
O327 Zn328 1.899 . S
O327 C335 1.284 . S
Zn328 O327 1.899 . S
Zn328 O329 2.032 . S
Zn328 O332 2.086 . S
Zn328 O337 1.977 . S
O329 Zn328 2.032 . S
O329 C333 1.278 . S
C330 O331 1.203 . S
C330 O337 1.267 . S
O331 C330 1.203 . S
O332 C325 1.185 . S
O332 Zn328 2.086 . S
C333 O329 1.278 . S
C333 O334 1.211 . S
O334 C333 1.211 . S
C335 O327 1.284 . S
C335 O336 1.273 . S
O336 C335 1.273 . S
O337 Zn328 1.977 . S
O337 C330 1.267 . S
C338 O339 1.160 1_455 S
C338 O345 1.185 . S
O339 C338 1.160 1_655 S
O340 Zn341 1.899 1_655 S
O340 C348 1.284 . S
Zn341 O340 1.899 1_455 S
Zn341 O342 2.032 . S
Zn341 O345 2.086 . S
Zn341 O350 1.977 . S
O342 Zn341 2.032 . S
O342 C346 1.278 . S
C343 O344 1.203 . S
C343 O350 1.267 . S
O344 C343 1.203 . S
O345 C338 1.185 . S
O345 Zn341 2.086 . S
C346 O342 1.278 . S
C346 O347 1.211 . S
O347 C346 1.211 . S
C348 O340 1.284 . S
C348 O349 1.273 . S
O349 C348 1.273 . S
O350 Zn341 1.977 . S
O350 C343 1.267 . S
C351 O352 1.160 . S
C351 O358 1.185 . S
O352 C351 1.160 . S
O353 Zn354 1.899 . S
O353 C361 1.284 . S
Zn354 O353 1.899 . S
Zn354 O355 2.032 . S
Zn354 O358 2.086 . S
Zn354 O363 1.977 . S
O355 Zn354 2.032 . S
O355 C359 1.278 . S
C356 O357 1.203 . S
C356 O363 1.267 . S
O357 C356 1.203 . S
O358 C351 1.185 . S
O358 Zn354 2.086 . S
C359 O355 1.278 . S
C359 O360 1.211 . S
O360 C359 1.211 . S
C361 O353 1.284 . S
C361 O362 1.273 . S
O362 C361 1.273 . S
O363 Zn354 1.977 . S
O363 C356 1.267 . S
C364 C365 1.363 . S
C364 C370 1.379 . S
C364 N372 1.356 . S
C365 C364 1.363 . S
C365 C371 1.363 . S
C366 C367 1.363 . S
C366 C371 1.379 . S
C366 N373 1.356 . S
C367 C366 1.363 . S
C367 C370 1.363 . S
N368 C370 1.356 . S
N368 H380 0.984 . S
N368 H381 0.985 . S
N369 C371 1.356 . S
N369 H374 0.984 . S
N369 H375 0.985 . S
C370 C364 1.379 . S
C370 C367 1.363 . S
C370 N368 1.356 . S
C371 C365 1.363 . S
C371 C366 1.379 . S
C371 N369 1.356 . S
N372 C364 1.356 . S
N372 H378 0.984 . S
N372 H379 0.984 . S
N373 C366 1.356 . S
N373 H376 0.984 . S
N373 H377 0.985 . S
H374 N369 0.984 . S
H375 N369 0.985 . S
H376 N373 0.984 . S
H377 N373 0.985 . S
H378 N372 0.984 . S
H379 N372 0.984 . S
H380 N368 0.984 . S
H381 N368 0.985 . S
C382 C383 1.363 . S
C382 C388 1.379 . S
C382 N390 1.356 1_455 S
C383 C382 1.363 . S
C383 C389 1.363 . S
C384 C385 1.363 . S
C384 C389 1.379 . S
C384 N391 1.356 . S
C385 C384 1.363 . S
C385 C388 1.363 . S
N386 C388 1.356 . S
N386 H398 0.984 . S
N386 H399 0.985 . S
N387 C389 1.356 . S
N387 H392 0.984 1_455 S
N387 H393 0.985 . S
C388 C382 1.379 . S
C388 C385 1.363 . S
C388 N386 1.356 . S
C389 C383 1.363 . S
C389 C384 1.379 . S
C389 N387 1.356 . S
N390 C382 1.356 1_655 S
N390 H396 0.984 . S
N390 H397 0.984 . S
N391 C384 1.356 . S
N391 H394 0.984 . S
N391 H395 0.985 . S
H392 N387 0.984 1_655 S
H393 N387 0.985 . S
H394 N391 0.984 . S
H395 N391 0.985 . S
H396 N390 0.984 . S
H397 N390 0.984 . S
H398 N386 0.984 . S
H399 N386 0.985 . S
C400 C401 1.363 . S
C400 C406 1.379 . S
C400 N408 1.356 . S
C401 C400 1.363 . S
C401 C407 1.363 . S
C402 C403 1.363 . S
C402 C407 1.379 . S
C402 N409 1.356 . S
C403 C402 1.363 . S
C403 C406 1.363 . S
N404 C406 1.356 . S
N404 H416 0.984 . S
N404 H417 0.985 . S
N405 C407 1.356 . S
N405 H410 0.984 . S
N405 H411 0.985 . S
C406 C400 1.379 . S
C406 C403 1.363 . S
C406 N404 1.356 . S
C407 C401 1.363 . S
C407 C402 1.379 . S
C407 N405 1.356 . S
N408 C400 1.356 . S
N408 H414 0.984 . S
N408 H415 0.984 . S
N409 C402 1.356 . S
N409 H412 0.984 . S
N409 H413 0.985 . S
H410 N405 0.984 . S
H411 N405 0.985 . S
H412 N409 0.984 . S
H413 N409 0.985 . S
H414 N408 0.984 . S
H415 N408 0.984 . S
H416 N404 0.984 . S
H417 N404 0.985 . S
C418 C419 1.363 1_545 S
C418 C424 1.379 . S
C418 N426 1.356 . S
C419 C418 1.363 1_565 S
C419 C425 1.363 . S
C420 C421 1.363 1_565 S
C420 C425 1.379 . S
C420 N427 1.356 . S
C421 C420 1.363 1_545 S
C421 C424 1.363 . S
N422 C424 1.356 . S
N422 H434 0.984 . S
N422 H435 0.985 . S
N423 C425 1.356 1_455 S
N423 H428 0.984 . S
N423 H429 0.985 . S
C424 C418 1.379 . S
C424 C421 1.363 . S
C424 N422 1.356 . S
C425 C419 1.363 . S
C425 C420 1.379 . S
C425 N423 1.356 1_655 S
N426 C418 1.356 . S
N426 H432 0.984 . S
N426 H433 0.982 . S
N427 C420 1.356 . S
N427 H430 0.984 . S
N427 H431 0.985 . S
H428 N423 0.984 . S
H429 N423 0.985 . S
H430 N427 0.984 . S
H431 N427 0.985 . S
H432 N426 0.984 . S
H433 N426 0.982 . S
H434 N422 0.984 . S
H435 N422 0.985 . S
C436 C437 1.363 . S
C436 C442 1.379 . S
C436 N444 1.356 . S
C437 C436 1.363 . S
C437 C443 1.363 . S
C438 C439 1.363 . S
C438 C443 1.379 . S
C438 N445 1.356 . S
C439 C438 1.363 . S
C439 C442 1.363 . S
N440 C442 1.356 . S
N440 H452 0.984 . S
N440 H453 0.985 . S
N441 C443 1.356 . S
N441 H446 0.984 . S
N441 H447 0.985 . S
C442 C436 1.379 . S
C442 C439 1.363 . S
C442 N440 1.356 . S
C443 C437 1.363 . S
C443 C438 1.379 . S
C443 N441 1.356 . S
N444 C436 1.356 . S
N444 H450 0.984 . S
N444 H451 0.984 . S
N445 C438 1.356 . S
N445 H448 0.984 . S
N445 H449 0.985 . S
H446 N441 0.984 . S
H447 N441 0.985 . S
H448 N445 0.984 . S
H449 N445 0.985 . S
H450 N444 0.984 . S
H451 N444 0.984 . S
H452 N440 0.984 . S
H453 N440 0.985 . S
C454 C455 1.363 . S
C454 C460 1.379 . S
C454 N462 1.356 . S
C455 C454 1.363 . S
C455 C461 1.363 . S
C456 C457 1.363 . S
C456 C461 1.379 . S
C456 N463 1.356 . S
C457 C456 1.363 . S
C457 C460 1.363 . S
N458 C460 1.356 . S
N458 H470 0.984 . S
N458 H471 0.985 . S
N459 C461 1.356 . S
N459 H464 0.984 . S
N459 H465 0.985 . S
C460 C454 1.379 . S
C460 C457 1.363 . S
C460 N458 1.356 . S
C461 C455 1.363 . S
C461 C456 1.379 . S
C461 N459 1.356 . S
N462 C454 1.356 . S
N462 H468 0.984 . S
N462 H469 0.984 . S
N463 C456 1.356 . S
N463 H466 0.984 . S
N463 H467 0.985 . S
H464 N459 0.984 . S
H465 N459 0.985 . S
H466 N463 0.984 . S
H467 N463 0.985 . S
H468 N462 0.984 . S
H469 N462 0.984 . S
H470 N458 0.984 . S
H471 N458 0.985 . S
C472 C473 1.363 . S
C472 C478 1.379 . S
C472 N480 1.356 . S
C473 C472 1.363 . S
C473 C479 1.363 . S
C474 C475 1.363 . S
C474 C479 1.379 . S
C474 N481 1.356 . S
C475 C474 1.363 . S
C475 C478 1.363 . S
N476 C478 1.356 . S
N476 H488 0.984 . S
N476 H489 0.985 . S
N477 C479 1.356 . S
N477 H482 0.984 . S
N477 H483 0.985 . S
C478 C472 1.379 . S
C478 C475 1.363 . S
C478 N476 1.356 . S
C479 C473 1.363 . S
C479 C474 1.379 . S
C479 N477 1.356 . S
N480 C472 1.356 . S
N480 H486 0.984 . S
N480 H487 0.984 . S
N481 C474 1.356 . S
N481 H484 0.984 . S
N481 H485 0.985 . S
H482 N477 0.984 . S
H483 N477 0.985 . S
H484 N481 0.984 . S
H485 N481 0.985 . S
H486 N480 0.984 . S
H487 N480 0.984 . S
H488 N476 0.984 . S
H489 N476 0.985 . S
C490 C491 1.363 . S
C490 C496 1.379 . S
C490 N498 1.356 . S
C491 C490 1.363 . S
C491 C497 1.363 . S
C492 C493 1.363 . S
C492 C497 1.379 . S
C492 N499 1.356 . S
C493 C492 1.363 . S
C493 C496 1.363 . S
N494 C496 1.356 1_545 S
N494 H506 0.984 . S
N494 H507 0.985 . S
N495 C497 1.356 . S
N495 H500 0.984 . S
N495 H501 0.985 . S
C496 C490 1.379 . S
C496 C493 1.363 . S
C496 N494 1.356 1_565 S
C497 C491 1.363 . S
C497 C492 1.379 . S
C497 N495 1.356 . S
N498 C490 1.356 . S
N498 H504 0.984 1_565 S
N498 H505 0.984 . S
N499 C492 1.356 . S
N499 H502 0.984 . S
N499 H503 0.985 . S
H500 N495 0.984 . S
H501 N495 0.985 . S
H502 N499 0.984 . S
H503 N499 0.985 . S
H504 N498 0.984 1_545 S
H505 N498 0.984 . S
H506 N494 0.984 . S
H507 N494 0.985 . S
C508 C509 1.363 . S
C508 C514 1.379 . S
C508 N516 1.356 . S
C509 C508 1.363 . S
C509 C515 1.363 . S
C510 C511 1.363 . S
C510 C515 1.379 . S
C510 N517 1.356 . S
C511 C510 1.363 . S
C511 C514 1.363 . S
N512 C514 1.356 . S
N512 H524 0.984 . S
N512 H525 0.985 . S
N513 C515 1.356 . S
N513 H518 0.984 . S
N513 H519 0.985 . S
C514 C508 1.379 . S
C514 C511 1.363 . S
C514 N512 1.356 . S
C515 C509 1.363 . S
C515 C510 1.379 . S
C515 N513 1.356 . S
N516 C508 1.356 . S
N516 H522 0.984 . S
N516 H523 0.984 . S
N517 C510 1.356 . S
N517 H520 0.984 . S
N517 H521 0.985 . S
H518 N513 0.984 . S
H519 N513 0.985 . S
H520 N517 0.984 . S
H521 N517 0.985 . S
H522 N516 0.984 . S
H523 N516 0.984 . S
H524 N512 0.984 . S
H525 N512 0.985 . S
C526 C527 1.363 . S
C526 C532 1.379 . S
C526 N534 1.356 . S
C527 C526 1.363 . S
C527 C533 1.363 . S
C528 C529 1.363 . S
C528 C533 1.379 . S
C528 N535 1.356 . S
C529 C528 1.363 . S
C529 C532 1.363 . S
N530 C532 1.356 . S
N530 H542 0.984 . S
N530 H543 0.985 . S
N531 C533 1.356 . S
N531 H536 0.984 . S
N531 H537 0.985 . S
C532 C526 1.379 . S
C532 C529 1.363 . S
C532 N530 1.356 . S
C533 C527 1.363 . S
C533 C528 1.379 . S
C533 N531 1.356 . S
N534 C526 1.356 . S
N534 H540 0.984 . S
N534 H541 0.984 . S
N535 C528 1.356 . S
N535 H538 0.984 . S
N535 H539 0.985 . S
H536 N531 0.984 . S
H537 N531 0.985 . S
H538 N535 0.984 . S
H539 N535 0.985 . S
H540 N534 0.984 . S
H541 N534 0.984 . S
H542 N530 0.984 . S
H543 N530 0.985 . S
C544 C545 1.363 . S
C544 C550 1.379 . S
C544 N552 1.356 . S
C545 C544 1.363 . S
C545 C551 1.363 . S
C546 C547 1.363 . S
C546 C551 1.379 . S
C546 N553 1.356 . S
C547 C546 1.363 . S
C547 C550 1.363 . S
N548 C550 1.356 . S
N548 H560 0.984 . S
N548 H561 0.985 . S
N549 C551 1.356 . S
N549 H554 0.984 . S
N549 H555 0.985 . S
C550 C544 1.379 . S
C550 C547 1.363 . S
C550 N548 1.356 . S
C551 C545 1.363 . S
C551 C546 1.379 . S
C551 N549 1.356 . S
N552 C544 1.356 . S
N552 H558 0.984 . S
N552 H559 0.984 . S
N553 C546 1.356 . S
N553 H556 0.984 . S
N553 H557 0.985 . S
H554 N549 0.984 . S
H555 N549 0.985 . S
H556 N553 0.984 . S
H557 N553 0.985 . S
H558 N552 0.984 . S
H559 N552 0.984 . S
H560 N548 0.984 . S
H561 N548 0.985 . S
C562 C563 1.363 . S
C562 C568 1.379 . S
C562 N570 1.356 . S
C563 C562 1.363 . S
C563 C569 1.363 . S
C564 C565 1.363 . S
C564 C569 1.379 . S
C564 N571 1.356 . S
C565 C564 1.363 . S
C565 C568 1.363 . S
N566 C568 1.356 . S
N566 H578 0.984 . S
N566 H579 0.985 . S
N567 C569 1.356 . S
N567 H572 0.984 . S
N567 H573 0.985 . S
C568 C562 1.379 . S
C568 C565 1.363 . S
C568 N566 1.356 . S
C569 C563 1.363 . S
C569 C564 1.379 . S
C569 N567 1.356 . S
N570 C562 1.356 . S
N570 H576 0.984 . S
N570 H577 0.984 . S
N571 C564 1.356 . S
N571 H574 0.984 . S
N571 H575 0.985 . S
H572 N567 0.984 . S
H573 N567 0.985 . S
H574 N571 0.984 . S
H575 N571 0.985 . S
H576 N570 0.984 . S
H577 N570 0.984 . S
H578 N566 0.984 . S
H579 N566 0.985 . S
C580 C581 1.363 . S
C580 C586 1.379 . S
C580 N588 1.356 . S
C581 C580 1.363 . S
C581 C587 1.363 . S
C582 C583 1.363 . S
C582 C587 1.379 . S
C582 N589 1.356 . S
C583 C582 1.363 . S
C583 C586 1.363 . S
N584 C586 1.356 . S
N584 H596 0.984 . S
N584 H597 0.985 . S
N585 C587 1.356 . S
N585 H590 0.984 . S
N585 H591 0.985 . S
C586 C580 1.379 . S
C586 C583 1.363 . S
C586 N584 1.356 . S
C587 C581 1.363 . S
C587 C582 1.379 . S
C587 N585 1.356 . S
N588 C580 1.356 . S
N588 H594 0.984 . S
N588 H595 0.984 . S
N589 C582 1.356 . S
N589 H592 0.984 . S
N589 H593 0.985 . S
H590 N585 0.984 . S
H591 N585 0.985 . S
H592 N589 0.984 . S
H593 N589 0.985 . S
H594 N588 0.984 . S
H595 N588 0.984 . S
H596 N584 0.984 . S
H597 N584 0.985 . S
C598 C599 1.363 . S
C598 C604 1.379 . S
C598 N606 1.356 . S
C599 C598 1.363 . S
C599 C605 1.363 . S
C600 C601 1.363 . S
C600 C605 1.379 . S
C600 N607 1.356 . S
C601 C600 1.363 . S
C601 C604 1.363 . S
N602 C604 1.356 . S
N602 H614 0.984 . S
N602 H615 0.985 . S
N603 C605 1.356 . S
N603 H608 0.984 . S
N603 H609 0.985 . S
C604 C598 1.379 . S
C604 C601 1.363 . S
C604 N602 1.356 . S
C605 C599 1.363 . S
C605 C600 1.379 . S
C605 N603 1.356 . S
N606 C598 1.356 . S
N606 H612 0.984 . S
N606 H613 0.984 . S
N607 C600 1.356 . S
N607 H610 0.984 . S
N607 H611 0.985 . S
H608 N603 0.984 . S
H609 N603 0.985 . S
H610 N607 0.984 . S
H611 N607 0.985 . S
H612 N606 0.984 . S
H613 N606 0.984 . S
H614 N602 0.984 . S
H615 N602 0.985 . S
C616 C617 1.363 . S
C616 C622 1.379 . S
C616 N624 1.356 . S
C617 C616 1.363 . S
C617 C623 1.363 . S
C618 C619 1.363 . S
C618 C623 1.379 . S
C618 N625 1.356 . S
C619 C618 1.363 . S
C619 C622 1.363 . S
N620 C622 1.356 . S
N620 H632 0.984 . S
N620 H633 0.985 . S
N621 C623 1.356 . S
N621 H626 0.984 . S
N621 H627 0.985 . S
C622 C616 1.379 . S
C622 C619 1.363 . S
C622 N620 1.356 . S
C623 C617 1.363 . S
C623 C618 1.379 . S
C623 N621 1.356 . S
N624 C616 1.356 . S
N624 H630 0.984 . S
N624 H631 0.984 . S
N625 C618 1.356 . S
N625 H628 0.984 . S
N625 H629 0.985 . S
H626 N621 0.984 . S
H627 N621 0.985 . S
H628 N625 0.984 . S
H629 N625 0.985 . S
H630 N624 0.984 . S
H631 N624 0.984 . S
H632 N620 0.984 . S
H633 N620 0.985 . S
C634 C635 1.363 . S
C634 C640 1.379 . S
C634 N642 1.356 . S
C635 C634 1.363 . S
C635 C641 1.363 1_655 S
C636 C637 1.363 1_455 S
C636 C641 1.379 . S
C636 N643 1.356 . S
C637 C636 1.363 1_655 S
C637 C640 1.363 . S
N638 C640 1.356 . S
N638 H650 0.984 . S
N638 H651 0.985 . S
N639 C641 1.356 . S
N639 H644 0.987 . S
N639 H645 0.985 . S
C640 C634 1.379 . S
C640 C637 1.363 . S
C640 N638 1.356 . S
C641 C635 1.363 1_455 S
C641 C636 1.379 . S
C641 N639 1.356 . S
N642 C634 1.356 . S
N642 H648 0.984 . S
N642 H649 0.984 . S
N643 C636 1.356 . S
N643 H646 0.984 . S
N643 H647 0.985 . S
H644 N639 0.987 . S
H645 N639 0.985 . S
H646 N643 0.984 . S
H647 N643 0.985 . S
H648 N642 0.984 . S
H649 N642 0.984 . S
H650 N638 0.984 . S
H651 N638 0.985 . S
C652 C653 1.363 . S
C652 C658 1.379 . S
C652 N660 1.356 . S
C653 C652 1.363 . S
C653 C659 1.363 . S
C654 C655 1.363 . S
C654 C659 1.379 . S
C654 N661 1.356 . S
C655 C654 1.363 . S
C655 C658 1.363 . S
N656 C658 1.356 . S
N656 H668 0.984 . S
N656 H669 0.985 . S
N657 C659 1.356 . S
N657 H662 0.984 . S
N657 H663 0.985 . S
C658 C652 1.379 . S
C658 C655 1.363 . S
C658 N656 1.356 . S
C659 C653 1.363 . S
C659 C654 1.379 . S
C659 N657 1.356 . S
N660 C652 1.356 . S
N660 H666 0.984 . S
N660 H667 0.984 . S
N661 C654 1.356 . S
N661 H664 0.984 . S
N661 H665 0.985 . S
H662 N657 0.984 . S
H663 N657 0.985 . S
H664 N661 0.984 . S
H665 N661 0.985 . S
H666 N660 0.984 . S
H667 N660 0.984 . S
H668 N656 0.984 . S
H669 N656 0.985 . S
C670 C671 1.363 . S
C670 C676 1.379 . S
C670 N678 1.356 . S
C671 C670 1.363 . S
C671 C677 1.363 . S
C672 C673 1.363 . S
C672 C677 1.379 . S
C672 N679 1.356 . S
C673 C672 1.363 . S
C673 C676 1.363 . S
N674 C676 1.356 . S
N674 H686 0.984 . S
N674 H687 0.985 . S
N675 C677 1.356 . S
N675 H680 0.984 . S
N675 H681 0.985 . S
C676 C670 1.379 . S
C676 C673 1.363 . S
C676 N674 1.356 . S
C677 C671 1.363 . S
C677 C672 1.379 . S
C677 N675 1.356 . S
N678 C670 1.356 . S
N678 H684 0.984 . S
N678 H685 0.984 . S
N679 C672 1.356 . S
N679 H682 0.984 . S
N679 H683 0.985 . S
H680 N675 0.984 . S
H681 N675 0.985 . S
H682 N679 0.984 . S
H683 N679 0.985 . S
H684 N678 0.984 . S
H685 N678 0.984 . S
H686 N674 0.984 . S
H687 N674 0.985 . S
C688 C689 1.363 . S
C688 C694 1.379 . S
C688 N696 1.356 . S
C689 C688 1.363 . S
C689 C695 1.363 1_566 S
C690 C691 1.363 . S
C690 C695 1.379 1_565 S
C690 N697 1.356 . S
C691 C690 1.363 . S
C691 C694 1.363 1_554 S
N692 C694 1.356 . S
N692 H704 0.984 . S
N692 H705 0.985 . S
N693 C695 1.356 . S
N693 H698 0.984 . S
N693 H699 0.985 . S
C694 C688 1.379 . S
C694 C691 1.363 1_556 S
C694 N692 1.356 . S
C695 C689 1.363 1_544 S
C695 C690 1.379 1_545 S
C695 N693 1.356 . S
N696 C688 1.356 . S
N696 H702 0.984 . S
N696 H703 0.984 . S
N697 C690 1.356 . S
N697 H700 0.984 . S
N697 H701 0.985 1_565 S
H698 N693 0.984 . S
H699 N693 0.985 . S
H700 N697 0.984 . S
H701 N697 0.985 1_545 S
H702 N696 0.984 . S
H703 N696 0.984 . S
H704 N692 0.984 . S
H705 N692 0.985 . S
C706 C707 1.363 . S
C706 C712 1.379 . S
C706 N714 1.356 . S
C707 C706 1.363 . S
C707 C713 1.363 . S
C708 C709 1.363 . S
C708 C713 1.379 . S
C708 N715 1.356 . S
C709 C708 1.363 . S
C709 C712 1.363 . S
N710 C712 1.356 . S
N710 H722 0.984 . S
N710 H723 0.985 . S
N711 C713 1.356 . S
N711 H716 0.984 . S
N711 H717 0.985 . S
C712 C706 1.379 . S
C712 C709 1.363 . S
C712 N710 1.356 . S
C713 C707 1.363 . S
C713 C708 1.379 . S
C713 N711 1.356 . S
N714 C706 1.356 . S
N714 H720 0.984 . S
N714 H721 0.984 . S
N715 C708 1.356 . S
N715 H718 0.984 . S
N715 H719 0.985 . S
H716 N711 0.984 . S
H717 N711 0.985 . S
H718 N715 0.984 . S
H719 N715 0.985 . S
H720 N714 0.984 . S
H721 N714 0.984 . S
H722 N710 0.984 . S
H723 N710 0.985 . S
C724 C725 1.363 . S
C724 C730 1.379 . S
C724 N732 1.356 1_545 S
C725 C724 1.363 . S
C725 C731 1.363 . S
C726 C727 1.363 . S
C726 C731 1.379 . S
C726 N733 1.356 . S
C727 C726 1.363 . S
C727 C730 1.363 . S
N728 C730 1.356 . S
N728 H740 0.984 . S
N728 H741 0.985 . S
N729 C731 1.356 . S
N729 H734 0.984 . S
N729 H735 0.985 . S
C730 C724 1.379 . S
C730 C727 1.363 . S
C730 N728 1.356 . S
C731 C725 1.363 . S
C731 C726 1.379 . S
C731 N729 1.356 . S
N732 C724 1.356 1_565 S
N732 H738 0.984 . S
N732 H739 0.984 . S
N733 C726 1.356 . S
N733 H736 0.984 . S
N733 H737 0.985 . S
H734 N729 0.984 . S
H735 N729 0.985 . S
H736 N733 0.984 . S
H737 N733 0.985 . S
H738 N732 0.984 . S
H739 N732 0.984 . S
H740 N728 0.984 . S
H741 N728 0.985 . S
C742 C743 1.363 . S
C742 C748 1.379 . S
C742 N750 1.356 . S
C743 C742 1.363 . S
C743 C749 1.363 . S
C744 C745 1.363 . S
C744 C749 1.379 . S
C744 N751 1.356 . S
C745 C744 1.363 . S
C745 C748 1.363 . S
N746 C748 1.356 . S
N746 H758 0.984 . S
N746 H759 0.985 . S
N747 C749 1.356 . S
N747 H752 0.984 . S
N747 H753 0.985 . S
C748 C742 1.379 . S
C748 C745 1.363 . S
C748 N746 1.356 . S
C749 C743 1.363 . S
C749 C744 1.379 . S
C749 N747 1.356 . S
N750 C742 1.356 . S
N750 H756 0.984 . S
N750 H757 0.984 . S
N751 C744 1.356 . S
N751 H754 0.984 . S
N751 H755 0.985 . S
H752 N747 0.984 . S
H753 N747 0.985 . S
H754 N751 0.984 . S
H755 N751 0.985 . S
H756 N750 0.984 . S
H757 N750 0.984 . S
H758 N746 0.984 . S
H759 N746 0.985 . S
C760 C761 1.363 . S
C760 C766 1.379 . S
C760 N768 1.356 . S
C761 C760 1.363 . S
C761 C767 1.363 . S
C762 C763 1.363 . S
C762 C767 1.379 . S
C762 N769 1.356 . S
C763 C762 1.363 . S
C763 C766 1.363 . S
N764 C766 1.356 . S
N764 H776 0.984 . S
N764 H777 0.985 . S
N765 C767 1.356 1_565 S
N765 H770 0.984 . S
N765 H771 0.985 . S
C766 C760 1.379 . S
C766 C763 1.363 . S
C766 N764 1.356 . S
C767 C761 1.363 . S
C767 C762 1.379 . S
C767 N765 1.356 1_545 S
N768 C760 1.356 . S
N768 H774 0.984 . S
N768 H775 0.984 . S
N769 C762 1.356 . S
N769 H772 0.984 . S
N769 H773 0.985 . S
H770 N765 0.984 . S
H771 N765 0.985 . S
H772 N769 0.984 . S
H773 N769 0.985 . S
H774 N768 0.984 . S
H775 N768 0.984 . S
H776 N764 0.984 . S
H777 N764 0.985 . S
C778 C779 1.363 . S
C778 C784 1.379 . S
C778 N786 1.356 . S
C779 C778 1.363 . S
C779 C785 1.363 . S
C780 C781 1.363 . S
C780 C785 1.379 . S
C780 N787 1.356 . S
C781 C780 1.363 . S
C781 C784 1.363 . S
N782 C784 1.356 . S
N782 H794 0.984 . S
N782 H795 0.985 . S
N783 C785 1.356 . S
N783 H788 0.984 . S
N783 H789 0.985 . S
C784 C778 1.379 . S
C784 C781 1.363 . S
C784 N782 1.356 . S
C785 C779 1.363 . S
C785 C780 1.379 . S
C785 N783 1.356 . S
N786 C778 1.356 . S
N786 H792 0.984 . S
N786 H793 0.984 . S
N787 C780 1.356 . S
N787 H790 0.984 . S
N787 H791 0.985 . S
H788 N783 0.984 . S
H789 N783 0.985 . S
H790 N787 0.984 . S
H791 N787 0.985 . S
H792 N786 0.984 . S
H793 N786 0.984 . S
H794 N782 0.984 . S
H795 N782 0.985 . S
C796 C797 1.363 . S
C796 C802 1.379 . S
C796 N804 1.356 . S
C797 C796 1.363 . S
C797 C803 1.363 . S
C798 C799 1.363 . S
C798 C803 1.379 . S
C798 N805 1.356 . S
C799 C798 1.363 . S
C799 C802 1.363 . S
N800 C802 1.356 . S
N800 H812 0.984 . S
N800 H813 0.985 . S
N801 C803 1.356 . S
N801 H806 0.984 . S
N801 H807 0.985 . S
C802 C796 1.379 . S
C802 C799 1.363 . S
C802 N800 1.356 . S
C803 C797 1.363 . S
C803 C798 1.379 . S
C803 N801 1.356 . S
N804 C796 1.356 . S
N804 H810 0.984 . S
N804 H811 0.984 . S
N805 C798 1.356 . S
N805 H808 0.984 . S
N805 H809 0.985 . S
H806 N801 0.984 . S
H807 N801 0.985 . S
H808 N805 0.984 . S
H809 N805 0.985 . S
H810 N804 0.984 . S
H811 N804 0.984 . S
H812 N800 0.984 . S
H813 N800 0.985 . S
C814 C815 1.363 . S
C814 C820 1.379 . S
C814 N822 1.356 . S
C815 C814 1.363 . S
C815 C821 1.363 . S
C816 C817 1.363 . S
C816 C821 1.379 . S
C816 N823 1.356 1_545 S
C817 C816 1.363 . S
C817 C820 1.363 . S
N818 C820 1.356 . S
N818 H830 0.984 . S
N818 H831 0.985 . S
N819 C821 1.355 1_565 S
N819 H824 0.983 1_565 S
N819 H825 0.987 . S
C820 C814 1.379 . S
C820 C817 1.363 . S
C820 N818 1.356 . S
C821 C815 1.363 . S
C821 C816 1.379 . S
C821 N819 1.355 1_545 S
N822 C814 1.356 . S
N822 H828 0.984 . S
N822 H829 0.984 . S
N823 C816 1.356 1_565 S
N823 H826 0.984 . S
N823 H827 0.985 . S
H824 N819 0.983 1_545 S
H825 N819 0.987 . S
H826 N823 0.984 . S
H827 N823 0.985 . S
H828 N822 0.984 . S
H829 N822 0.984 . S
H830 N818 0.984 . S
H831 N818 0.985 . S
C832 C833 1.363 . S
C832 C838 1.379 . S
C832 N840 1.356 . S
C833 C832 1.363 . S
C833 C839 1.363 . S
C834 C835 1.363 . S
C834 C839 1.379 . S
C834 N841 1.356 . S
C835 C834 1.363 . S
C835 C838 1.363 . S
N836 C838 1.356 . S
N836 H848 0.984 . S
N836 H849 0.985 . S
N837 C839 1.356 . S
N837 H842 0.984 . S
N837 H843 0.985 . S
C838 C832 1.379 . S
C838 C835 1.363 . S
C838 N836 1.356 . S
C839 C833 1.363 . S
C839 C834 1.379 . S
C839 N837 1.356 . S
N840 C832 1.356 . S
N840 H846 0.984 . S
N840 H847 0.984 . S
N841 C834 1.356 . S
N841 H844 0.984 . S
N841 H845 0.985 . S
H842 N837 0.984 . S
H843 N837 0.985 . S
H844 N841 0.984 . S
H845 N841 0.985 . S
H846 N840 0.984 . S
H847 N840 0.984 . S
H848 N836 0.984 . S
H849 N836 0.985 . S
C850 C851 1.363 . S
C850 C856 1.379 . S
C850 N858 1.356 . S
C851 C850 1.363 . S
C851 C857 1.363 . S
C852 C853 1.363 . S
C852 C857 1.379 . S
C852 N859 1.356 . S
C853 C852 1.363 . S
C853 C856 1.363 . S
N854 C856 1.356 . S
N854 H866 0.984 . S
N854 H867 0.985 . S
N855 C857 1.356 . S
N855 H860 0.984 . S
N855 H861 0.985 . S
C856 C850 1.379 . S
C856 C853 1.363 . S
C856 N854 1.356 . S
C857 C851 1.363 . S
C857 C852 1.379 . S
C857 N855 1.356 . S
N858 C850 1.356 . S
N858 H864 0.984 . S
N858 H865 0.984 . S
N859 C852 1.356 . S
N859 H862 0.984 . S
N859 H863 0.985 . S
H860 N855 0.984 . S
H861 N855 0.985 . S
H862 N859 0.984 . S
H863 N859 0.985 . S
H864 N858 0.984 . S
H865 N858 0.984 . S
H866 N854 0.984 . S
H867 N854 0.985 . S
C868 C869 1.363 . S
C868 C874 1.379 . S
C868 N876 1.356 . S
C869 C868 1.363 . S
C869 C875 1.363 . S
C870 C871 1.363 . S
C870 C875 1.379 . S
C870 N877 1.356 . S
C871 C870 1.363 . S
C871 C874 1.363 . S
N872 C874 1.356 . S
N872 H884 0.984 . S
N872 H885 0.985 . S
N873 C875 1.356 . S
N873 H878 0.984 . S
N873 H879 0.985 . S
C874 C868 1.379 . S
C874 C871 1.363 . S
C874 N872 1.356 . S
C875 C869 1.363 . S
C875 C870 1.379 . S
C875 N873 1.356 . S
N876 C868 1.356 . S
N876 H882 0.984 . S
N876 H883 0.984 . S
N877 C870 1.356 . S
N877 H880 0.984 . S
N877 H881 0.985 . S
H878 N873 0.984 . S
H879 N873 0.985 . S
H880 N877 0.984 . S
H881 N877 0.985 . S
H882 N876 0.984 . S
H883 N876 0.984 . S
H884 N872 0.984 . S
H885 N872 0.985 . S
C886 C887 1.363 . S
C886 C892 1.379 . S
C886 N894 1.356 1_655 S
C887 C886 1.363 . S
C887 C893 1.363 1_545 S
C888 C889 1.363 1_565 S
C888 C893 1.379 . S
C888 N895 1.356 . S
C889 C888 1.363 1_545 S
C889 C892 1.363 . S
N890 C892 1.356 . S
N890 H902 0.984 . S
N890 H903 0.985 . S
N891 C893 1.356 . S
N891 H896 0.984 . S
N891 H897 0.985 . S
C892 C886 1.379 . S
C892 C889 1.363 . S
C892 N890 1.356 . S
C893 C887 1.363 1_565 S
C893 C888 1.379 . S
C893 N891 1.356 . S
N894 C886 1.356 1_455 S
N894 H900 0.984 . S
N894 H901 0.984 . S
N895 C888 1.356 . S
N895 H898 0.984 . S
N895 H899 0.985 . S
H896 N891 0.984 . S
H897 N891 0.985 . S
H898 N895 0.984 . S
H899 N895 0.985 . S
H900 N894 0.984 . S
H901 N894 0.984 . S
H902 N890 0.984 . S
H903 N890 0.985 . S
C904 C905 1.363 . S
C904 C910 1.379 . S
C904 N912 1.356 . S
C905 C904 1.363 . S
C905 C911 1.363 . S
C906 C907 1.363 . S
C906 C911 1.379 . S
C906 N913 1.356 . S
C907 C906 1.363 . S
C907 C910 1.363 . S
N908 C910 1.356 . S
N908 H920 0.984 . S
N908 H921 0.985 . S
N909 C911 1.356 . S
N909 H914 0.984 . S
N909 H915 0.985 . S
C910 C904 1.379 . S
C910 C907 1.363 . S
C910 N908 1.356 . S
C911 C905 1.363 . S
C911 C906 1.379 . S
C911 N909 1.356 . S
N912 C904 1.356 . S
N912 H918 0.984 . S
N912 H919 0.984 . S
N913 C906 1.356 . S
N913 H916 0.984 . S
N913 H917 0.985 . S
H914 N909 0.984 . S
H915 N909 0.985 . S
H916 N913 0.984 . S
H917 N913 0.985 . S
H918 N912 0.984 . S
H919 N912 0.984 . S
H920 N908 0.984 . S
H921 N908 0.985 . S
C922 C923 1.363 . S
C922 C928 1.379 . S
C922 N930 1.356 1_455 S
C923 C922 1.363 . S
C923 C929 1.363 . S
C924 C925 1.363 . S
C924 C929 1.379 . S
C924 N931 1.356 . S
C925 C924 1.363 . S
C925 C928 1.363 . S
N926 C928 1.356 . S
N926 H938 0.984 . S
N926 H939 0.985 . S
N927 C929 1.356 . S
N927 H932 0.984 . S
N927 H933 0.985 . S
C928 C922 1.379 . S
C928 C925 1.363 . S
C928 N926 1.356 . S
C929 C923 1.363 . S
C929 C924 1.379 . S
C929 N927 1.356 . S
N930 C922 1.356 1_655 S
N930 H936 0.984 . S
N930 H937 0.984 . S
N931 C924 1.356 . S
N931 H934 0.984 . S
N931 H935 0.985 . S
H932 N927 0.984 . S
H933 N927 0.985 . S
H934 N931 0.984 . S
H935 N931 0.985 . S
H936 N930 0.984 . S
H937 N930 0.984 . S
H938 N926 0.984 . S
H939 N926 0.985 . S
C940 C941 1.363 . S
C940 C946 1.379 . S
C940 N948 1.356 . S
C941 C940 1.363 . S
C941 C947 1.363 . S
C942 C943 1.363 . S
C942 C947 1.379 . S
C942 N949 1.356 . S
C943 C942 1.363 . S
C943 C946 1.363 . S
N944 C946 1.356 . S
N944 H956 0.984 . S
N944 H957 0.985 . S
N945 C947 1.356 . S
N945 H950 0.984 . S
N945 H951 0.985 . S
C946 C940 1.379 . S
C946 C943 1.363 . S
C946 N944 1.356 . S
C947 C941 1.363 . S
C947 C942 1.379 . S
C947 N945 1.356 . S
N948 C940 1.356 . S
N948 H954 0.984 . S
N948 H955 0.984 . S
N949 C942 1.356 . S
N949 H952 0.984 . S
N949 H953 0.985 . S
H950 N945 0.984 . S
H951 N945 0.985 . S
H952 N949 0.984 . S
H953 N949 0.985 . S
H954 N948 0.984 . S
H955 N948 0.984 . S
H956 N944 0.984 . S
H957 N944 0.985 . S
C958 C959 1.363 1_455 S
C958 C964 1.379 . S
C958 N966 1.356 . S
C959 C958 1.363 1_655 S
C959 C965 1.363 1_554 S
C960 C961 1.363 . S
C960 C965 1.379 . S
C960 N967 1.356 . S
C961 C960 1.363 . S
C961 C964 1.363 1_656 S
N962 C964 1.356 . S
N962 H974 0.984 . S
N962 H975 0.985 1_554 S
N963 C965 1.356 . S
N963 H968 0.984 1_556 S
N963 H969 0.985 . S
C964 C958 1.379 . S
C964 C961 1.363 1_454 S
C964 N962 1.356 . S
C965 C959 1.363 1_556 S
C965 C960 1.379 . S
C965 N963 1.356 . S
N966 C958 1.356 . S
N966 H972 0.984 . S
N966 H973 0.984 . S
N967 C960 1.356 . S
N967 H970 0.984 . S
N967 H971 0.985 . S
H968 N963 0.984 1_554 S
H969 N963 0.985 . S
H970 N967 0.984 . S
H971 N967 0.985 . S
H972 N966 0.984 . S
H973 N966 0.984 . S
H974 N962 0.984 . S
H975 N962 0.985 1_556 S
C976 C977 1.363 . S
C976 C982 1.379 . S
C976 N984 1.356 . S
C977 C976 1.363 . S
C977 C983 1.363 . S
C978 C979 1.363 . S
C978 C983 1.379 . S
C978 N985 1.356 . S
C979 C978 1.363 . S
C979 C982 1.363 . S
N980 C982 1.356 . S
N980 H992 0.984 . S
N980 H993 0.985 . S
N981 C983 1.356 . S
N981 H986 0.984 . S
N981 H987 0.985 . S
C982 C976 1.379 . S
C982 C979 1.363 . S
C982 N980 1.356 . S
C983 C977 1.363 . S
C983 C978 1.379 . S
C983 N981 1.356 . S
N984 C976 1.356 . S
N984 H990 0.984 . S
N984 H991 0.984 . S
N985 C978 1.356 . S
N985 H988 0.984 . S
N985 H989 0.985 . S
H986 N981 0.984 . S
H987 N981 0.985 . S
H988 N985 0.984 . S
H989 N985 0.985 . S
H990 N984 0.984 . S
H991 N984 0.984 . S
H992 N980 0.984 . S
H993 N980 0.985 . S
C994 C995 1.363 1_655 S
C994 C1000 1.379 . S
C994 N1002 1.356 . S
C995 C994 1.363 1_455 S
C995 C1001 1.363 1_554 S
C996 C997 1.363 . S
C996 C1001 1.379 . S
C996 N1003 1.356 . S
C997 C996 1.363 . S
C997 C1000 1.363 1_456 S
N998 C1000 1.356 . S
N998 H1010 0.984 . S
N998 H1011 0.985 1_554 S
N999 C1001 1.356 . S
N999 H1004 0.984 1_556 S
N999 H1005 0.985 . S
C1000 C994 1.379 . S
C1000 C997 1.363 1_654 S
C1000 N998 1.356 . S
C1001 C995 1.363 1_556 S
C1001 C996 1.379 . S
C1001 N999 1.356 . S
N1002 C994 1.356 . S
N1002 H1008 0.984 . S
N1002 H1009 0.984 . S
N1003 C996 1.356 . S
N1003 H1006 0.984 . S
N1003 H1007 0.985 . S
H1004 N999 0.984 1_554 S
H1005 N999 0.985 . S
H1006 N1003 0.984 . S
H1007 N1003 0.985 . S
H1008 N1002 0.984 . S
H1009 N1002 0.984 . S
H1010 N998 0.984 . S
H1011 N998 0.985 1_556 S
C1012 C1013 1.363 . S
C1012 C1018 1.379 . S
C1012 N1020 1.356 . S
C1013 C1012 1.363 . S
C1013 C1019 1.363 . S
C1014 C1015 1.363 . S
C1014 C1019 1.379 . S
C1014 N1021 1.356 . S
C1015 C1014 1.363 . S
C1015 C1018 1.363 . S
N1016 C1018 1.356 . S
N1016 H1028 0.984 . S
N1016 H1029 0.985 . S
N1017 C1019 1.356 . S
N1017 H1022 0.984 . S
N1017 H1023 0.985 . S
C1018 C1012 1.379 . S
C1018 C1015 1.363 . S
C1018 N1016 1.356 . S
C1019 C1013 1.363 . S
C1019 C1014 1.379 . S
C1019 N1017 1.356 . S
N1020 C1012 1.356 . S
N1020 H1026 0.984 . S
N1020 H1027 0.984 . S
N1021 C1014 1.356 . S
N1021 H1024 0.984 . S
N1021 H1025 0.985 . S
H1022 N1017 0.984 . S
H1023 N1017 0.985 . S
H1024 N1021 0.984 . S
H1025 N1021 0.985 . S
H1026 N1020 0.984 . S
H1027 N1020 0.984 . S
H1028 N1016 0.984 . S
H1029 N1016 0.985 . S
C1030 C1031 1.363 . S
C1030 C1036 1.379 . S
C1030 N1038 1.356 . S
C1031 C1030 1.363 . S
C1031 C1037 1.363 . S
C1032 C1033 1.363 . S
C1032 C1037 1.379 . S
C1032 N1039 1.356 . S
C1033 C1032 1.363 . S
C1033 C1036 1.363 . S
N1034 C1036 1.356 . S
N1034 H1046 0.984 . S
N1034 H1047 0.985 . S
N1035 C1037 1.356 1_556 S
N1035 H1040 0.984 . S
N1035 H1041 0.985 . S
C1036 C1030 1.379 . S
C1036 C1033 1.363 . S
C1036 N1034 1.356 . S
C1037 C1031 1.363 . S
C1037 C1032 1.379 . S
C1037 N1035 1.356 1_554 S
N1038 C1030 1.356 . S
N1038 H1044 0.984 . S
N1038 H1045 0.984 . S
N1039 C1032 1.356 . S
N1039 H1042 0.984 . S
N1039 H1043 0.985 1_554 S
H1040 N1035 0.984 . S
H1041 N1035 0.985 . S
H1042 N1039 0.984 . S
H1043 N1039 0.985 1_556 S
H1044 N1038 0.984 . S
H1045 N1038 0.984 . S
H1046 N1034 0.984 . S
H1047 N1034 0.985 . S
C1048 C1049 1.363 . S
C1048 C1054 1.379 . S
C1048 N1056 1.356 . S
C1049 C1048 1.363 . S
C1049 C1055 1.363 . S
C1050 C1051 1.363 . S
C1050 C1055 1.379 . S
C1050 N1057 1.356 . S
C1051 C1050 1.363 . S
C1051 C1054 1.363 . S
N1052 C1054 1.356 . S
N1052 H1064 0.984 . S
N1052 H1065 0.985 . S
N1053 C1055 1.356 . S
N1053 H1058 0.984 . S
N1053 H1059 0.985 . S
C1054 C1048 1.379 . S
C1054 C1051 1.363 . S
C1054 N1052 1.356 . S
C1055 C1049 1.363 . S
C1055 C1050 1.379 . S
C1055 N1053 1.356 . S
N1056 C1048 1.356 . S
N1056 H1062 0.984 . S
N1056 H1063 0.984 . S
N1057 C1050 1.356 . S
N1057 H1060 0.984 . S
N1057 H1061 0.985 . S
H1058 N1053 0.984 . S
H1059 N1053 0.985 . S
H1060 N1057 0.984 . S
H1061 N1057 0.985 . S
H1062 N1056 0.984 . S
H1063 N1056 0.984 . S
H1064 N1052 0.984 . S
H1065 N1052 0.985 . S
C1066 C1067 1.363 . S
C1066 C1072 1.379 . S
C1066 N1074 1.356 . S
C1067 C1066 1.363 . S
C1067 C1073 1.364 . S
C1068 C1069 1.363 . S
C1068 C1073 1.380 . S
C1068 N1075 1.356 . S
C1069 C1068 1.363 . S
C1069 C1072 1.363 . S
N1070 C1072 1.356 . S
N1070 H1082 0.984 . S
N1070 H1083 0.985 . S
N1071 C1073 1.354 1_556 S
N1071 H1076 0.984 . S
N1071 H1077 0.985 . S
C1072 C1066 1.379 . S
C1072 C1069 1.363 . S
C1072 N1070 1.356 . S
C1073 C1067 1.364 . S
C1073 C1068 1.380 . S
C1073 N1071 1.354 1_554 S
N1074 C1066 1.356 . S
N1074 H1080 0.984 . S
N1074 H1081 0.984 . S
N1075 C1068 1.356 . S
N1075 H1078 0.984 . S
N1075 H1079 0.985 . S
H1076 N1071 0.984 . S
H1077 N1071 0.985 . S
H1078 N1075 0.984 . S
H1079 N1075 0.985 . S
H1080 N1074 0.984 . S
H1081 N1074 0.984 . S
H1082 N1070 0.984 . S
H1083 N1070 0.985 . S
C1084 C1085 1.363 . S
C1084 C1090 1.379 . S
C1084 N1092 1.356 . S
C1085 C1084 1.363 . S
C1085 C1091 1.363 . S
C1086 C1087 1.363 . S
C1086 C1091 1.379 . S
C1086 N1093 1.356 . S
C1087 C1086 1.363 . S
C1087 C1090 1.363 . S
N1088 C1090 1.356 . S
N1088 H1100 0.984 . S
N1088 H1101 0.985 . S
N1089 C1091 1.356 . S
N1089 H1094 0.984 . S
N1089 H1095 0.985 . S
C1090 C1084 1.379 . S
C1090 C1087 1.363 . S
C1090 N1088 1.356 . S
C1091 C1085 1.363 . S
C1091 C1086 1.379 . S
C1091 N1089 1.356 . S
N1092 C1084 1.356 . S
N1092 H1098 0.984 . S
N1092 H1099 0.984 . S
N1093 C1086 1.356 . S
N1093 H1096 0.984 . S
N1093 H1097 0.985 . S
H1094 N1089 0.984 . S
H1095 N1089 0.985 . S
H1096 N1093 0.984 . S
H1097 N1093 0.985 . S
H1098 N1092 0.984 . S
H1099 N1092 0.984 . S
H1100 N1088 0.984 . S
H1101 N1088 0.985 . S
C1102 C1103 1.363 . S
C1102 C1108 1.379 . S
C1102 N1110 1.356 . S
C1103 C1102 1.363 . S
C1103 C1109 1.363 . S
C1104 C1105 1.363 . S
C1104 C1109 1.379 . S
C1104 N1111 1.356 . S
C1105 C1104 1.363 . S
C1105 C1108 1.363 . S
N1106 C1108 1.356 . S
N1106 H1118 0.984 . S
N1106 H1119 0.985 . S
N1107 C1109 1.356 . S
N1107 H1112 0.984 . S
N1107 H1113 0.985 . S
C1108 C1102 1.379 . S
C1108 C1105 1.363 . S
C1108 N1106 1.356 . S
C1109 C1103 1.363 . S
C1109 C1104 1.379 . S
C1109 N1107 1.356 . S
N1110 C1102 1.356 . S
N1110 H1116 0.984 . S
N1110 H1117 0.984 . S
N1111 C1104 1.356 . S
N1111 H1114 0.984 . S
N1111 H1115 0.985 . S
H1112 N1107 0.984 . S
H1113 N1107 0.985 . S
H1114 N1111 0.984 . S
H1115 N1111 0.985 . S
H1116 N1110 0.984 . S
H1117 N1110 0.984 . S
H1118 N1106 0.984 . S
H1119 N1106 0.985 . S
C1120 C1121 1.363 . S
C1120 C1126 1.379 . S
C1120 N1128 1.356 . S
C1121 C1120 1.363 . S
C1121 C1127 1.363 . S
C1122 C1123 1.363 . S
C1122 C1127 1.379 . S
C1122 N1129 1.356 . S
C1123 C1122 1.363 . S
C1123 C1126 1.363 . S
N1124 C1126 1.356 . S
N1124 H1136 0.984 . S
N1124 H1137 0.985 . S
N1125 C1127 1.356 . S
N1125 H1130 0.984 . S
N1125 H1131 0.985 . S
C1126 C1120 1.379 . S
C1126 C1123 1.363 . S
C1126 N1124 1.356 . S
C1127 C1121 1.363 . S
C1127 C1122 1.379 . S
C1127 N1125 1.356 . S
N1128 C1120 1.356 . S
N1128 H1134 0.984 . S
N1128 H1135 0.984 . S
N1129 C1122 1.356 . S
N1129 H1132 0.984 . S
N1129 H1133 0.985 . S
H1130 N1125 0.984 . S
H1131 N1125 0.985 . S
H1132 N1129 0.984 . S
H1133 N1129 0.985 . S
H1134 N1128 0.984 . S
H1135 N1128 0.984 . S
H1136 N1124 0.984 . S
H1137 N1124 0.985 . S
C1138 C1139 1.363 . S
C1138 C1144 1.379 . S
C1138 N1146 1.356 . S
C1139 C1138 1.363 . S
C1139 C1145 1.363 . S
C1140 C1141 1.363 . S
C1140 C1145 1.379 . S
C1140 N1147 1.356 . S
C1141 C1140 1.363 . S
C1141 C1144 1.363 . S
N1142 C1144 1.356 . S
N1142 H1154 0.984 . S
N1142 H1155 0.985 . S
N1143 C1145 1.356 . S
N1143 H1148 0.984 . S
N1143 H1149 0.985 . S
C1144 C1138 1.379 . S
C1144 C1141 1.363 . S
C1144 N1142 1.356 . S
C1145 C1139 1.363 . S
C1145 C1140 1.379 . S
C1145 N1143 1.356 . S
N1146 C1138 1.356 . S
N1146 H1152 0.984 . S
N1146 H1153 0.984 . S
N1147 C1140 1.356 . S
N1147 H1150 0.984 . S
N1147 H1151 0.985 . S
H1148 N1143 0.984 . S
H1149 N1143 0.985 . S
H1150 N1147 0.984 . S
H1151 N1147 0.985 . S
H1152 N1146 0.984 . S
H1153 N1146 0.984 . S
H1154 N1142 0.984 . S
H1155 N1142 0.985 . S
C1156 C1157 1.363 1_554 S
C1156 C1162 1.379 . S
C1156 N1164 1.356 . S
C1157 C1156 1.363 1_556 S
C1157 C1163 1.363 . S
C1158 C1159 1.363 . S
C1158 C1163 1.379 . S
C1158 N1165 1.356 . S
C1159 C1158 1.363 . S
C1159 C1162 1.363 1_556 S
N1160 C1162 1.356 . S
N1160 H1172 0.984 . S
N1160 H1173 0.985 . S
N1161 C1163 1.356 . S
N1161 H1166 0.984 . S
N1161 H1167 0.985 . S
C1162 C1156 1.379 . S
C1162 C1159 1.363 1_554 S
C1162 N1160 1.356 . S
C1163 C1157 1.363 . S
C1163 C1158 1.379 . S
C1163 N1161 1.356 . S
N1164 C1156 1.356 . S
N1164 H1170 0.984 . S
N1164 H1171 0.984 . S
N1165 C1158 1.356 . S
N1165 H1168 0.984 . S
N1165 H1169 0.985 . S
H1166 N1161 0.984 . S
H1167 N1161 0.985 . S
H1168 N1165 0.984 . S
H1169 N1165 0.985 . S
H1170 N1164 0.984 . S
H1171 N1164 0.984 . S
H1172 N1160 0.984 . S
H1173 N1160 0.985 . S
C1174 C1175 1.363 . S
C1174 C1180 1.379 . S
C1174 N1182 1.356 . S
C1175 C1174 1.363 . S
C1175 C1181 1.363 . S
C1176 C1177 1.363 . S
C1176 C1181 1.379 . S
C1176 N1183 1.356 . S
C1177 C1176 1.363 . S
C1177 C1180 1.363 . S
N1178 C1180 1.356 . S
N1178 H1190 0.984 . S
N1178 H1191 0.985 . S
N1179 C1181 1.356 . S
N1179 H1184 0.984 . S
N1179 H1185 0.985 . S
C1180 C1174 1.379 . S
C1180 C1177 1.363 . S
C1180 N1178 1.356 . S
C1181 C1175 1.363 . S
C1181 C1176 1.379 . S
C1181 N1179 1.356 . S
N1182 C1174 1.356 . S
N1182 H1188 0.984 . S
N1182 H1189 0.984 . S
N1183 C1176 1.356 . S
N1183 H1186 0.984 . S
N1183 H1187 0.985 . S
H1184 N1179 0.984 . S
H1185 N1179 0.985 . S
H1186 N1183 0.984 . S
H1187 N1183 0.985 . S
H1188 N1182 0.984 . S
H1189 N1182 0.984 . S
H1190 N1178 0.984 . S
H1191 N1178 0.985 . S
C1192 C1193 1.363 . S
C1192 C1198 1.379 1_554 S
C1192 N1200 1.356 1_554 S
C1193 C1192 1.363 . S
C1193 C1199 1.363 . S
C1194 C1195 1.363 . S
C1194 C1199 1.379 . S
C1194 N1201 1.356 . S
C1195 C1194 1.363 . S
C1195 C1198 1.363 1_554 S
N1196 C1198 1.356 . S
N1196 H1208 0.984 . S
N1196 H1209 0.985 . S
N1197 C1199 1.356 . S
N1197 H1202 0.984 . S
N1197 H1203 0.985 . S
C1198 C1192 1.379 1_556 S
C1198 C1195 1.363 1_556 S
C1198 N1196 1.356 . S
C1199 C1193 1.363 . S
C1199 C1194 1.379 . S
C1199 N1197 1.356 . S
N1200 C1192 1.356 1_556 S
N1200 H1206 0.984 . S
N1200 H1207 0.984 1_556 S
N1201 C1194 1.356 . S
N1201 H1204 0.984 . S
N1201 H1205 0.985 . S
H1202 N1197 0.984 . S
H1203 N1197 0.985 . S
H1204 N1201 0.984 . S
H1205 N1201 0.985 . S
H1206 N1200 0.984 . S
H1207 N1200 0.984 1_554 S
H1208 N1196 0.984 . S
H1209 N1196 0.985 . S
C1210 C1211 1.363 . S
C1210 C1216 1.379 . S
C1210 N1218 1.356 1_554 S
C1211 C1210 1.363 . S
C1211 C1217 1.363 . S
C1212 C1213 1.363 . S
C1212 C1217 1.379 . S
C1212 N1219 1.356 . S
C1213 C1212 1.363 . S
C1213 C1216 1.363 . S
N1214 C1216 1.356 1_556 S
N1214 H1226 0.984 . S
N1214 H1227 0.985 . S
N1215 C1217 1.356 1_545 S
N1215 H1220 0.984 . S
N1215 H1221 0.985 . S
C1216 C1210 1.379 . S
C1216 C1213 1.363 . S
C1216 N1214 1.356 1_554 S
C1217 C1211 1.363 . S
C1217 C1212 1.379 . S
C1217 N1215 1.356 1_565 S
N1218 C1210 1.356 1_556 S
N1218 H1224 0.984 . S
N1218 H1225 0.984 1_556 S
N1219 C1212 1.356 . S
N1219 H1222 0.984 . S
N1219 H1223 0.985 1_565 S
H1220 N1215 0.984 . S
H1221 N1215 0.985 . S
H1222 N1219 0.984 . S
H1223 N1219 0.985 1_545 S
H1224 N1218 0.984 . S
H1225 N1218 0.984 1_554 S
H1226 N1214 0.984 . S
H1227 N1214 0.985 . S
C367 C218 1.281 . S
C365 N66 1.260 . S
C385 C231 1.612 . S
C383 N79 1.601 1_455 S
C401 N92 1.687 . S
C403 C244 1.702 . S
C421 C257 1.409 . S
C419 N54 1.429 1_655 S
C439 C265 1.493 . S
C437 N131 1.496 . S
C457 C278 1.219 . S
C455 N158 1.235 . S
C473 N145 1.554 . S
C475 C291 1.536 . S
C493 C304 1.667 . S
C491 N118 1.663 . S
C509 N148 1.784 . S
C511 C322 1.742 . S
C529 C333 1.563 . S
C527 N122 1.590 . S
C545 N132 1.292 . S
C547 C317 1.260 . S
C565 C325 1.484 . S
C563 N161 1.453 . S
C581 N96 1.777 . S
C583 C348 1.801 . S
C599 N53 1.639 . S
C601 C338 1.627 . S
C617 N67 1.221 . S
C619 C343 1.187 . S
C635 N83 1.427 . S
C637 C346 1.429 1_655 S
C653 N44 1.398 . S
C655 C255 1.386 . S
C671 N187 1.455 . S
C673 C247 1.458 . S
C691 C216 1.309 . S
C689 N197 1.336 1_565 S
C709 C221 1.373 . S
C707 N106 1.388 . S
C725 N57 1.747 1_545 S
C727 C268 1.698 . S
C745 C307 1.482 . S
C743 N144 1.482 . S
C763 C260 1.431 . S
C761 N119 1.440 1_545 S
C781 C286 1.636 . S
C779 N157 1.659 . S
C799 C296 1.281 . S
C797 N183 1.260 . S
C815 N196 1.601 . S
C817 C309 1.612 . S
C833 N105 1.687 . S
C835 C270 1.702 . S
C853 C283 1.409 . S
C851 N171 1.429 . S
C869 N40 1.496 . S
C871 C239 1.493 . S
C889 C252 1.219 . S
C887 N2 1.235 . S
C907 C213 1.536 . S
C905 N15 1.554 . S
C925 C226 1.667 . S
C923 N27 1.663 1_455 S
C941 N18 1.784 . S
C943 C335 1.742 . S
C959 N31 1.590 . S
C961 C320 1.561 1_655 S
C977 N41 1.292 . S
C979 C330 1.260 . S
C995 N5 1.453 . S
C997 C312 1.484 1_455 S
C1015 C361 1.802 . S
C1013 N109 1.777 . S
C1033 C351 1.627 . S
C1031 N170 1.639 1_554 S
C1051 C356 1.187 . S
C1049 N184 1.221 . S
C1067 N200 1.427 1_554 S
C1069 C359 1.429 . S
C1085 N135 1.398 . S
C1087 C281 1.386 . S
C1105 C273 1.458 . S
C1103 N70 1.455 . S
C1123 C294 1.309 . S
C1121 N80 1.336 . S
C1141 C299 1.373 . S
C1139 N93 1.388 . S
C1157 N174 1.747 . S
C1159 C242 1.698 . S
C1177 C229 1.482 . S
C1175 N14 1.482 . S
C1193 N28 1.440 . S
C1195 C234 1.431 . S
C1213 C208 1.636 . S
C1211 N1 1.659 1_565 S
