# Generated by pormake.
# Topology ctn, (3,4)-cn, num edge types: 1
# Building blocks:
#     Node 0, Type 0, BuildingBlock: BETDIP_clean_linker_0, # of connection points: 3
#     Node 1, Type 0, BuildingBlock: BETDIP_clean_linker_0, # of connection points: 3
#     Node 2, Type 0, BuildingBlock: BETDIP_clean_linker_0, # of connection points: 3
#     Node 3, Type 0, BuildingBlock: BETDIP_clean_linker_0, # of connection points: 3
#     Node 4, Type 0, BuildingBlock: BETDIP_clean_linker_0, # of connection points: 3
#     Node 5, Type 0, BuildingBlock: BETDIP_clean_linker_0, # of connection points: 3
#     Node 6, Type 0, BuildingBlock: BETDIP_clean_linker_0, # of connection points: 3
#     Node 7, Type 0, BuildingBlock: BETDIP_clean_linker_0, # of connection points: 3
#     Node 8, Type 0, BuildingBlock: BETDIP_clean_linker_0, # of connection points: 3
#     Node 9, Type 0, BuildingBlock: BETDIP_clean_linker_0, # of connection points: 3
#     Node 10, Type 0, BuildingBlock: BETDIP_clean_linker_0, # of connection points: 3
#     Node 11, Type 0, BuildingBlock: BETDIP_clean_linker_0, # of connection points: 3
#     Node 12, Type 0, BuildingBlock: BETDIP_clean_linker_0, # of connection points: 3
#     Node 13, Type 0, BuildingBlock: BETDIP_clean_linker_0, # of connection points: 3
#     Node 14, Type 0, BuildingBlock: BETDIP_clean_linker_0, # of connection points: 3
#     Node 15, Type 0, BuildingBlock: BETDIP_clean_linker_0, # of connection points: 3
#     Node 16, Type 1, BuildingBlock: KUFVIS_clean_sbu_0, # of connection points: 4
#     Node 17, Type 1, BuildingBlock: KUFVIS_clean_sbu_0, # of connection points: 4
#     Node 18, Type 1, BuildingBlock: KUFVIS_clean_sbu_0, # of connection points: 4
#     Node 19, Type 1, BuildingBlock: KUFVIS_clean_sbu_0, # of connection points: 4
#     Node 20, Type 1, BuildingBlock: KUFVIS_clean_sbu_0, # of connection points: 4
#     Node 21, Type 1, BuildingBlock: KUFVIS_clean_sbu_0, # of connection points: 4
#     Node 22, Type 1, BuildingBlock: KUFVIS_clean_sbu_0, # of connection points: 4
#     Node 23, Type 1, BuildingBlock: KUFVIS_clean_sbu_0, # of connection points: 4
#     Node 24, Type 1, BuildingBlock: KUFVIS_clean_sbu_0, # of connection points: 4
#     Node 25, Type 1, BuildingBlock: KUFVIS_clean_sbu_0, # of connection points: 4
#     Node 26, Type 1, BuildingBlock: KUFVIS_clean_sbu_0, # of connection points: 4
#     Node 27, Type 1, BuildingBlock: KUFVIS_clean_sbu_0, # of connection points: 4
#     Edge 28, Type (0, 1), BuildingBlock: XUDNAN_clean_linker_2, # of connection points: 2
#     Edge 29, Type (0, 1), BuildingBlock: XUDNAN_clean_linker_2, # of connection points: 2
#     Edge 30, Type (0, 1), BuildingBlock: XUDNAN_clean_linker_2, # of connection points: 2
#     Edge 31, Type (0, 1), BuildingBlock: XUDNAN_clean_linker_2, # of connection points: 2
#     Edge 32, Type (0, 1), BuildingBlock: XUDNAN_clean_linker_2, # of connection points: 2
#     Edge 33, Type (0, 1), BuildingBlock: XUDNAN_clean_linker_2, # of connection points: 2
#     Edge 34, Type (0, 1), BuildingBlock: XUDNAN_clean_linker_2, # of connection points: 2
#     Edge 35, Type (0, 1), BuildingBlock: XUDNAN_clean_linker_2, # of connection points: 2
#     Edge 36, Type (0, 1), BuildingBlock: XUDNAN_clean_linker_2, # of connection points: 2
#     Edge 37, Type (0, 1), BuildingBlock: XUDNAN_clean_linker_2, # of connection points: 2
#     Edge 38, Type (0, 1), BuildingBlock: XUDNAN_clean_linker_2, # of connection points: 2
#     Edge 39, Type (0, 1), BuildingBlock: XUDNAN_clean_linker_2, # of connection points: 2
#     Edge 40, Type (0, 1), BuildingBlock: XUDNAN_clean_linker_2, # of connection points: 2
#     Edge 41, Type (0, 1), BuildingBlock: XUDNAN_clean_linker_2, # of connection points: 2
#     Edge 42, Type (0, 1), BuildingBlock: XUDNAN_clean_linker_2, # of connection points: 2
#     Edge 43, Type (0, 1), BuildingBlock: XUDNAN_clean_linker_2, # of connection points: 2
#     Edge 44, Type (0, 1), BuildingBlock: XUDNAN_clean_linker_2, # of connection points: 2
#     Edge 45, Type (0, 1), BuildingBlock: XUDNAN_clean_linker_2, # of connection points: 2
#     Edge 46, Type (0, 1), BuildingBlock: XUDNAN_clean_linker_2, # of connection points: 2
#     Edge 47, Type (0, 1), BuildingBlock: XUDNAN_clean_linker_2, # of connection points: 2
#     Edge 48, Type (0, 1), BuildingBlock: XUDNAN_clean_linker_2, # of connection points: 2
#     Edge 49, Type (0, 1), BuildingBlock: XUDNAN_clean_linker_2, # of connection points: 2
#     Edge 50, Type (0, 1), BuildingBlock: XUDNAN_clean_linker_2, # of connection points: 2
#     Edge 51, Type (0, 1), BuildingBlock: XUDNAN_clean_linker_2, # of connection points: 2
#     Edge 52, Type (0, 1), BuildingBlock: XUDNAN_clean_linker_2, # of connection points: 2
#     Edge 53, Type (0, 1), BuildingBlock: XUDNAN_clean_linker_2, # of connection points: 2
#     Edge 54, Type (0, 1), BuildingBlock: XUDNAN_clean_linker_2, # of connection points: 2
#     Edge 55, Type (0, 1), BuildingBlock: XUDNAN_clean_linker_2, # of connection points: 2
#     Edge 56, Type (0, 1), BuildingBlock: XUDNAN_clean_linker_2, # of connection points: 2
#     Edge 57, Type (0, 1), BuildingBlock: XUDNAN_clean_linker_2, # of connection points: 2
#     Edge 58, Type (0, 1), BuildingBlock: XUDNAN_clean_linker_2, # of connection points: 2
#     Edge 59, Type (0, 1), BuildingBlock: XUDNAN_clean_linker_2, # of connection points: 2
#     Edge 60, Type (0, 1), BuildingBlock: XUDNAN_clean_linker_2, # of connection points: 2
#     Edge 61, Type (0, 1), BuildingBlock: XUDNAN_clean_linker_2, # of connection points: 2
#     Edge 62, Type (0, 1), BuildingBlock: XUDNAN_clean_linker_2, # of connection points: 2
#     Edge 63, Type (0, 1), BuildingBlock: XUDNAN_clean_linker_2, # of connection points: 2
#     Edge 64, Type (0, 1), BuildingBlock: XUDNAN_clean_linker_2, # of connection points: 2
#     Edge 65, Type (0, 1), BuildingBlock: XUDNAN_clean_linker_2, # of connection points: 2
#     Edge 66, Type (0, 1), BuildingBlock: XUDNAN_clean_linker_2, # of connection points: 2
#     Edge 67, Type (0, 1), BuildingBlock: XUDNAN_clean_linker_2, # of connection points: 2
#     Edge 68, Type (0, 1), BuildingBlock: XUDNAN_clean_linker_2, # of connection points: 2
#     Edge 69, Type (0, 1), BuildingBlock: XUDNAN_clean_linker_2, # of connection points: 2
#     Edge 70, Type (0, 1), BuildingBlock: XUDNAN_clean_linker_2, # of connection points: 2
#     Edge 71, Type (0, 1), BuildingBlock: XUDNAN_clean_linker_2, # of connection points: 2
#     Edge 72, Type (0, 1), BuildingBlock: XUDNAN_clean_linker_2, # of connection points: 2
#     Edge 73, Type (0, 1), BuildingBlock: XUDNAN_clean_linker_2, # of connection points: 2
#     Edge 74, Type (0, 1), BuildingBlock: XUDNAN_clean_linker_2, # of connection points: 2
#     Edge 75, Type (0, 1), BuildingBlock: XUDNAN_clean_linker_2, # of connection points: 2
# Relax obj value: 0.079
# Max RMSD: 0.188
# Mean RMSD: 0.122
data_MOF--net-ctn--node1-KUFVIS_clean_sbu_0--node2-BETDIP_clean_linker_0--edge1-XUDNAN_clean_linker_2
_symmetry_space_group_name_H-M    P1
_symmetry_Int_Tables_number       1
_symmetry_cell_setting            triclinic
loop_
_symmetry_equiv_pos_as_xyz
'x, y, z'
_cell_length_a     51.376715
_cell_length_b     51.579955
_cell_length_c     56.924239
_cell_angle_alpha  94.55087
_cell_angle_beta   94.097761
_cell_angle_gamma 94.446789
loop_
_atom_site_label
_atom_site_type_symbol
_atom_site_fract_x
_atom_site_fract_y
_atom_site_fract_z
_atom_type_partial_charge
H0 H 0.02525 0.05506 0.07516 0.0
H1 H 0.08202 0.04304 0.02479 0.0
H2 H 0.07767 0.9938 0.08182 0.0
H3 H 0.04346 0.0485 1.00089 0.0
C4 C 0.04079 0.06752 0.00966 0.0
C5 C 0.04149 0.04468 0.06938 0.0
C6 C 0.05041 0.02401 0.08185 0.0
C7 C 0.0523 0.05099 0.04842 0.0
C8 C 0.07292 0.03729 0.04037 0.0
C9 C 0.08159 0.01601 0.0517 0.0
C10 C 0.07072 0.00994 0.07282 0.0
N11 N 0.0417 0.07029 0.03481 0.0
H12 H 0.2889 0.67389 0.18951 0.0
H13 H 0.3603 0.72387 0.20137 0.0
H14 H 0.34184 0.66731 0.25043 0.0
H15 H 0.35273 0.72213 0.15718 0.0
C16 C 0.33287 0.72741 0.15908 0.0
C17 C 0.30748 0.67932 0.19962 0.0
C18 C 0.31361 0.66761 0.22056 0.0
C19 C 0.32446 0.69919 0.19228 0.0
C20 C 0.34776 0.70761 0.20621 0.0
C21 C 0.35409 0.69619 0.22728 0.0
C22 C 0.33726 0.67579 0.23396 0.0
N23 N 0.31598 0.71262 0.17266 0.0
H24 H 0.9782 0.49495 0.00858 0.0
H25 H 0.02689 0.46722 0.06343 0.0
H26 H 0.98623 0.53577 0.07846 0.0
H27 H 0.05061 0.45656 0.03007 0.0
C28 C 0.03394 0.44719 0.01888 0.0
C29 C 0.98672 0.49756 0.02665 0.0
C30 C 0.98051 0.5185 0.04218 0.0
C31 C 1.00399 0.47969 0.03398 0.0
C32 C 0.0141 0.48157 0.05758 0.0
C33 C 1.00729 0.50128 0.07393 0.0
C34 C 0.99097 0.52016 0.06603 0.0
N35 N 0.00998 0.45926 0.01751 0.0
H36 H 0.70048 0.78835 0.17297 0.0
H37 H 0.71996 0.85361 0.22457 0.0
H38 H 0.77206 0.83719 0.17055 0.0
H39 H 0.70627 0.81362 0.2466 0.0
C40 C 0.68706 0.81306 0.23711 0.0
C41 C 0.71334 0.80543 0.17955 0.0
C42 C 0.73688 0.81114 0.16906 0.0
C43 C 0.70754 0.82038 0.1999 0.0
C44 C 0.72466 0.84192 0.20901 0.0
C45 C 0.74788 0.84828 0.19844 0.0
C46 C 0.75373 0.83292 0.17836 0.0
N47 N 0.68533 0.81282 0.21203 0.0
H48 H 0.03875 0.97039 0.44533 0.0
H49 H 0.09538 0.99547 0.50374 0.0
H50 H 0.09688 0.03427 0.4401 0.0
H51 H 0.08958 0.95374 0.51115 0.0
C52 C 0.06868 0.94878 0.50749 0.0
C53 C 0.05537 0.98332 0.45293 0.0
C54 C 0.06643 1.00278 0.43968 0.0
C55 C 0.06612 0.97988 0.47577 0.0
C56 C 0.08749 0.9969 0.48579 0.0
C57 C 0.09886 0.0161 0.47277 0.0
C58 C 0.0884 0.01885 0.44978 0.0
N59 N 0.05498 0.95947 0.48836 0.0
H60 H 0.20593 0.72725 0.83382 0.0
H61 H 0.24792 0.67391 0.7928 0.0
H62 H 0.27028 0.6913 0.86717 0.0
H63 H 0.23319 0.70023 0.76312 0.0
C64 C 0.21326 0.70263 0.76758 0.0
C65 C 0.22136 0.71411 0.83306 0.0
C66 C 0.2375 0.71092 0.85347 0.0
C67 C 0.2252 0.70129 0.81123 0.0
C68 C 0.2455 0.68465 0.80952 0.0
C69 C 0.26186 0.68077 0.82968 0.0
C70 C 0.25778 0.69413 0.85159 0.0
N71 N 0.2075 0.70494 0.79164 0.0
H72 H 0.01008 0.58642 0.48005 0.0
H73 H 0.97297 0.50827 0.46862 0.0
H74 H 0.95737 0.55797 0.52934 0.0
H75 H 0.01503 0.50341 0.44908 0.0
C76 C 0.01248 0.52028 0.43913 0.0
C77 C 0.99776 0.57066 0.48608 0.0
C78 C 0.98452 0.57495 0.50658 0.0
C79 C 0.99423 0.5465 0.47259 0.0
C80 C 0.97695 0.52649 0.47958 0.0
C81 C 0.9637 0.53057 0.5002 0.0
C82 C 0.96802 0.5546 0.51375 0.0
N83 N 1.00599 0.54407 0.45077 0.0
H84 H 0.81953 0.85371 0.79394 0.0
H85 H 0.8677 0.80744 0.83504 0.0
H86 H 0.78927 0.81943 0.85389 0.0
H87 H 0.89902 0.84365 0.82079 0.0
C88 C 0.89212 0.83674 0.80272 0.0
C89 C 0.82176 0.84173 0.80863 0.0
C90 C 0.80179 0.83885 0.8241 0.0
C91 C 0.8454 0.83047 0.81261 0.0
C92 C 0.84913 0.81566 0.83207 0.0
C93 C 0.82893 0.81104 0.84718 0.0
C94 C 0.8053 0.82288 0.8429 0.0
N95 N 0.86478 0.83333 0.79618 0.0
H96 H 0.31414 0.36212 0.29108 0.0
H97 H 0.35792 0.30718 0.32615 0.0
H98 H 0.28646 0.33075 0.35337 0.0
H99 H 0.36455 0.29354 0.28838 0.0
C100 C 0.369 0.31202 0.28099 0.0
C101 C 0.31623 0.34931 0.30518 0.0
C102 C 0.29824 0.34892 0.32268 0.0
C103 C 0.33712 0.33343 0.30579 0.0
C104 C 0.34059 0.31772 0.3247 0.0
C105 C 0.32232 0.31597 0.34194 0.0
C106 C 0.30113 0.33184 0.34068 0.0
N107 N 0.35456 0.33364 0.28738 0.0
H108 H 0.45515 1.00039 0.52651 0.0
H109 H 0.52099 0.97998 0.57 0.0
H110 H 0.47726 0.04337 0.59382 0.0
H111 H 0.4992 0.93674 0.55133 0.0
C112 C 0.50092 0.94328 0.53377 0.0
C113 C 0.4678 1.00397 0.54268 0.0
C114 C 0.46323 0.02394 0.55985 0.0
C115 C 0.48813 0.98771 0.54657 0.0
C116 C 0.50469 0.99186 0.56755 0.0
C117 C 0.50116 0.0122 0.58465 0.0
C118 C 0.4802 0.02781 0.58064 0.0
N119 N 0.49228 0.96791 0.52871 0.0
H120 H 0.19568 0.29748 0.67176 0.0
H121 H 0.23364 0.34841 0.72937 0.0
H122 H 0.2706 0.33823 0.66408 0.0
H123 H 0.21343 0.31285 0.74967 0.0
C124 C 0.1941 0.31392 0.74087 0.0
C125 C 0.21214 0.31089 0.67892 0.0
C126 C 0.23316 0.31648 0.66511 0.0
C127 C 0.21267 0.32164 0.70232 0.0
C128 C 0.23385 0.33913 0.71165 0.0
C129 C 0.25475 0.34552 0.69791 0.0
C130 C 0.2544 0.33381 0.67471 0.0
N131 N 0.19134 0.31521 0.71596 0.0
H132 H 0.8043 0.16647 0.67003 0.0
H133 H 0.87161 0.2169 0.69599 0.0
H134 H 0.84975 0.15017 0.73319 0.0
H135 H 0.87004 0.21703 0.64843 0.0
C136 C 0.85089 0.22393 0.65088 0.0
C137 C 0.82126 0.17031 0.68259 0.0
C138 C 0.82538 0.15424 0.70121 0.0
C139 C 0.83834 0.19218 0.68018 0.0
C140 C 0.85918 0.19919 0.69727 0.0
C141 C 0.86274 0.18464 0.71696 0.0
C142 C 0.84651 0.1616 0.71828 0.0
N143 N 0.83209 0.20873 0.66221 0.0
H144 H 0.52923 0.56988 0.56365 0.0
H145 H 0.59235 0.54118 0.52674 0.0
H146 H 0.57209 0.50868 0.59077 0.0
H147 H 0.57608 0.5595 0.49699 0.0
C148 C 0.56507 0.57537 0.50332 0.0
C149 C 0.54454 0.55665 0.56236 0.0
C150 C 0.54923 0.53976 0.58021 0.0
C151 C 0.55939 0.55689 0.54268 0.0
C152 C 0.57949 0.53993 0.54084 0.0
C153 C 0.584 0.52196 0.55774 0.0
C154 C 0.56863 0.52205 0.57739 0.0
N155 N 0.55428 0.57517 0.52568 0.0
H156 H 0.52969 0.47907 0.95369 0.0
H157 H 0.60465 0.48858 0.99409 0.0
H158 H 0.58866 0.53714 0.93774 0.0
H159 H 0.58563 0.46403 0.01917 0.0
C160 C 0.568 0.45334 0.01066 0.0
C161 C 0.54901 0.48916 0.95751 0.0
C162 C 0.55722 0.50918 0.94371 0.0
C163 C 0.56548 0.48204 0.97629 0.0
C164 C 0.59106 0.4946 0.98062 0.0
C165 C 0.5997 0.51424 0.96646 0.0
C166 C 0.58229 0.52187 0.9486 0.0
N167 N 0.55584 0.46147 0.98951 0.0
H168 H 0.73233 0.24683 0.33249 0.0
H169 H 0.75736 0.18367 0.28796 0.0
H170 H 0.79444 0.20295 0.35821 0.0
H171 H 0.71226 0.18418 0.27221 0.0
C172 C 0.71119 0.2051 0.27187 0.0
C173 C 0.74471 0.23089 0.33001 0.0
C174 C 0.76323 0.2263 0.34813 0.0
C175 C 0.74236 0.21564 0.3084 0.0
C176 C 0.75891 0.19536 0.30474 0.0
C177 C 0.77775 0.19044 0.32276 0.0
C178 C 0.77975 0.20616 0.34434 0.0
N179 N 0.72417 0.22244 0.29041 0.0
H180 H 0.51762 0.07225 0.97437 0.0
H181 H 0.45715 0.00956 0.95851 0.0
H182 H 0.45468 0.06501 0.01914 0.0
H183 H 0.54037 0.04999 0.95142 0.0
C184 C 0.52767 0.0368 0.93904 0.0
C185 C 0.49991 0.06149 0.97853 0.0
C186 C 0.48737 0.07096 0.99813 0.0
C187 C 0.48934 0.03896 0.96439 0.0
C188 C 0.46553 0.02645 0.96984 0.0
C189 C 0.45253 0.03567 0.98948 0.0
C190 C 0.46378 0.05802 1.00352 0.0
N191 N 0.50177 0.0287 0.94441 0.0
Mn192 Mn 0.26093 0.87391 0.0175 0.0
Mn193 Mn 0.25982 0.89279 0.96197 0.0
C194 C 0.24363 0.84527 0.98559 0.0
C195 C 0.27956 0.85534 0.05015 0.0
C196 C 0.22288 0.91116 0.99805 0.0
O197 O 0.28802 0.90554 0.02078 0.0
O198 O 0.28778 0.91432 0.98241 0.0
C199 C 0.31144 0.87862 0.94745 0.0
N200 N 0.28484 0.87628 0.94393 0.0
C201 C 0.28641 0.8524 0.90607 0.0
C202 C 0.31384 0.85461 0.90926 0.0
C203 C 0.32639 0.86753 0.93017 0.0
C204 C 0.27256 0.86325 0.92418 0.0
H205 H 0.32114 0.88912 0.96319 0.0
C206 C 0.29662 0.91828 1.00414 0.0
O207 O 0.26195 0.87187 0.0521 0.0
O208 O 0.28754 0.85044 0.02921 0.0
N209 N 0.2339 0.87321 0.94039 0.0
C210 C 0.2073 0.87243 0.9402 0.0
C211 C 0.19178 0.85884 0.92116 0.0
C212 C 0.20374 0.84671 0.90227 0.0
C213 C 0.23113 0.84816 0.90267 0.0
C214 C 0.24558 0.86145 0.92238 0.0
H215 H 0.198 0.88193 0.95454 0.0
O216 O 0.23654 0.8423 1.00672 0.0
O217 O 0.26041 0.86498 0.98364 0.0
O218 O 0.23106 0.89773 0.0144 0.0
O219 O 0.23268 0.91105 0.97809 0.0
C220 C 0.24466 0.83737 0.88409 0.0
C221 C 0.27228 0.83993 0.8856 0.0
H222 H 0.32544 0.84637 0.89583 0.0
H223 H 0.34755 0.86932 0.93278 0.0
H224 H 0.17065 0.85789 0.92095 0.0
H225 H 0.1917 0.83649 0.88748 0.0
H226 H 0.23403 0.82721 0.8685 0.0
H227 H 0.28247 0.83161 0.87117 0.0
Mn228 Mn 0.14681 0.5047 0.26762 0.0
Mn229 Mn 0.12684 0.56551 0.2657 0.0
C230 C 0.17401 0.53819 0.25527 0.0
C231 C 0.16824 0.47305 0.28707 0.0
C232 C 0.1083 0.52145 0.22866 0.0
O233 O 0.11645 0.50368 0.28908 0.0
O234 O 0.10477 0.54461 0.28577 0.0
C235 C 0.1412 0.58394 0.31591 0.0
N236 N 0.14312 0.58692 0.29251 0.0
C237 C 0.17158 0.6263 0.30145 0.0
C238 C 0.16978 0.62373 0.32563 0.0
C239 C 0.15457 0.60243 0.33288 0.0
C240 C 0.15776 0.6073 0.28535 0.0
H241 H 0.12959 0.56757 0.32158 0.0
C242 C 0.10195 0.52217 0.29391 0.0
O243 O 0.15138 0.4666 0.26906 0.0
O244 O 0.17183 0.49762 0.29432 0.0
N245 N 0.14674 0.58801 0.24722 0.0
C246 C 0.1475 0.58691 0.22329 0.0
C247 C 0.16211 0.60666 0.21315 0.0
C248 C 0.17574 0.62732 0.2277 0.0
C249 C 0.1747 0.62801 0.25227 0.0
C250 C 0.1595 0.60799 0.26134 0.0
H251 H 0.1371 0.57106 0.21203 0.0
O252 O 0.17717 0.51406 0.24873 0.0
O253 O 0.15484 0.54199 0.26847 0.0
O254 O 0.12081 0.50401 0.23822 0.0
O255 O 0.10954 0.5452 0.2372 0.0
C256 C 0.18842 0.64759 0.26812 0.0
C257 C 0.18693 0.64669 0.2927 0.0
H258 H 0.18015 0.63789 0.33878 0.0
H259 H 0.15318 0.60025 0.35151 0.0
H260 H 0.1629 0.60595 0.19417 0.0
H261 H 0.18708 0.64248 0.21985 0.0
H262 H 0.20046 0.66323 0.26162 0.0
H263 H 0.19785 0.66165 0.30473 0.0
Mn264 Mn 0.80122 0.65309 1.00518 0.0
Mn265 Mn 0.74697 0.67759 0.98145 0.0
C266 C 0.761 0.62848 1.00136 0.0
C267 C 0.83888 0.63044 1.0042 0.0
C268 C 0.7703 0.69386 0.03106 0.0
O269 O 0.81666 0.68265 0.98688 0.0
O270 O 0.77892 0.69744 0.97258 0.0
C271 C 0.75414 0.66291 0.93108 0.0
N272 N 0.7392 0.66196 0.94988 0.0
C273 C 0.70425 0.63627 0.92625 0.0
C274 C 0.71921 0.63707 0.90663 0.0
C275 C 0.74429 0.65039 0.90907 0.0
C276 C 0.71512 0.64907 0.94774 0.0
H277 H 0.77342 0.67311 0.93284 0.0
C278 C 0.80397 0.69817 0.9748 0.0
O279 O 0.83571 0.64768 0.02132 0.0
O280 O 0.82058 0.62686 0.98697 0.0
N281 N 0.71454 0.65998 0.98817 0.0
C282 C 0.70293 0.6604 0.00896 0.0
C283 C 0.67759 0.64824 0.00946 0.0
C284 C 0.66446 0.63581 0.9886 0.0
C285 C 0.67689 0.63538 0.96749 0.0
C286 C 0.70195 0.64825 0.96797 0.0
H287 H 0.71284 0.67015 0.025 0.0
O288 O 0.7791 0.62382 0.01721 0.0
O289 O 0.7668 0.64761 0.98862 0.0
O290 O 0.78916 0.67937 0.02982 0.0
O291 O 0.75284 0.69469 0.01409 0.0
C292 C 0.66539 0.62268 0.94599 0.0
C293 C 0.67913 0.623 0.92541 0.0
H294 H 0.7117 0.62741 0.88963 0.0
H295 H 0.75599 0.65102 0.89403 0.0
H296 H 0.66815 0.64853 0.02587 0.0
H297 H 0.64484 0.62661 0.98898 0.0
H298 H 0.64611 0.61238 0.94515 0.0
H299 H 0.67022 0.6129 0.90905 0.0
Mn300 Mn 0.91698 0.02275 0.25789 0.0
Mn301 Mn 0.93611 0.96184 0.26107 0.0
C302 C 0.88858 0.98661 0.24416 0.0
C303 C 0.89676 0.05743 0.27635 0.0
C304 C 0.95381 0.99789 0.22415 0.0
O305 O 0.94904 0.02846 0.28181 0.0
O306 O 0.95798 0.9865 0.28438 0.0
C307 C 0.92131 0.95233 0.30919 0.0
N308 N 0.91948 0.94517 0.28555 0.0
C309 C 0.89118 0.90691 0.29053 0.0
C310 C 0.89287 0.91383 0.31494 0.0
C311 C 0.90796 0.93668 0.3243 0.0
C312 C 0.90501 0.92324 0.27635 0.0
H313 H 0.93286 0.96985 0.31646 0.0
C314 C 0.96196 0.01093 0.29074 0.0
O315 O 0.91169 0.06128 0.25922 0.0
O316 O 0.89428 0.034 0.28285 0.0
N317 N 0.91615 0.93589 0.23977 0.0
C318 C 0.91511 0.93289 0.21571 0.0
C319 C 0.90053 0.91115 0.20355 0.0
C320 C 0.88714 0.89275 0.21623 0.0
C321 C 0.88819 0.89642 0.24093 0.0
C322 C 0.90336 0.91824 0.25212 0.0
H323 H 0.92527 0.947 0.20587 0.0
O324 O 0.88495 0.0093 0.23681 0.0
O325 O 0.90868 0.98582 0.25914 0.0
O326 O 0.94079 0.01726 0.23019 0.0
O327 O 0.95362 0.97714 0.23506 0.0
C328 C 0.87449 0.87945 0.25487 0.0
C329 C 0.87593 0.88473 0.27965 0.0
H330 H 0.88249 0.90187 0.32664 0.0
H331 H 0.9093 0.94221 0.34312 0.0
H332 H 0.89957 0.90858 0.18445 0.0
H333 H 0.87594 0.87597 0.20682 0.0
H334 H 0.86249 0.86249 0.24668 0.0
H335 H 0.865 0.87176 0.29015 0.0
Mn336 Mn 0.29261 0.1654 0.50567 0.0
Mn337 Mn 0.24031 0.18103 0.47154 0.0
C338 C 0.25258 0.14123 0.50499 0.0
C339 C 0.32991 0.14338 0.51445 0.0
C340 C 0.25717 0.20911 0.51914 0.0
O341 O 0.31015 0.18864 0.48277 0.0
O342 O 0.27328 0.19962 0.46353 0.0
C343 C 0.25537 0.15646 0.42625 0.0
N344 N 0.23748 0.15915 0.44263 0.0
C345 C 0.20442 0.13269 0.41748 0.0
C346 C 0.22247 0.1296 0.40033 0.0
C347 C 0.24814 0.14132 0.40484 0.0
C348 C 0.21304 0.14718 0.43883 0.0
H349 H 0.27491 0.16597 0.4294 0.0
C350 C 0.29815 0.20147 0.46769 0.0
O351 O 0.32553 0.16504 0.52605 0.0
O352 O 0.31357 0.13525 0.49641 0.0
N353 N 0.20651 0.16511 0.47656 0.0
C354 C 0.19115 0.1708 0.49453 0.0
C355 C 0.16505 0.16012 0.493 0.0
C356 C 0.1546 0.14478 0.47253 0.0
C357 C 0.17039 0.14022 0.4538 0.0
C358 C 0.19656 0.15053 0.4567 0.0
H359 H 0.19881 0.1833 0.50999 0.0
O360 O 0.26983 0.14161 0.5228 0.0
O361 O 0.25914 0.15463 0.48755 0.0
O362 O 0.2778 0.19721 0.52258 0.0
O363 O 0.24122 0.20406 0.50086 0.0
C364 C 0.16099 0.12651 0.43209 0.0
C365 C 0.17807 0.12245 0.41405 0.0
H366 H 0.21679 0.1184 0.38359 0.0
H367 H 0.26217 0.13908 0.39167 0.0
H368 H 0.15287 0.1641 0.5074 0.0
H369 H 0.13431 0.13698 0.47123 0.0
H370 H 0.14075 0.1186 0.42922 0.0
H371 H 0.17072 0.11146 0.39759 0.0
Mn372 Mn 0.41277 0.52849 0.75907 0.0
Mn373 Mn 0.44178 0.47201 0.75262 0.0
C374 C 0.38945 0.49069 0.74124 0.0
C375 C 0.38866 0.55736 0.78089 0.0
C376 C 0.45256 0.51732 0.72261 0.0
O377 O 0.44457 0.53461 0.78332 0.0
O378 O 0.46001 0.49478 0.77953 0.0
C379 C 0.42969 0.4498 0.79743 0.0
N380 N 0.42843 0.44767 0.77336 0.0
C381 C 0.4061 0.40468 0.77149 0.0
C382 C 0.40742 0.40632 0.79626 0.0
C383 C 0.4192 0.42901 0.80927 0.0
C384 C 0.41705 0.42595 0.76066 0.0
H385 H 0.43847 0.46727 0.80753 0.0
C386 C 0.46003 0.51778 0.78995 0.0
O387 O 0.40311 0.56523 0.76462 0.0
O388 O 0.38876 0.53296 0.78489 0.0
N389 N 0.42512 0.44816 0.72754 0.0
C390 C 0.42355 0.45051 0.70382 0.0
C391 C 0.41167 0.42976 0.6883 0.0
C392 C 0.4015 0.40686 0.69732 0.0
C393 C 0.4029 0.40506 0.7218 0.0
C394 C 0.4153 0.42622 0.7364 0.0
H395 H 0.43132 0.46806 0.69677 0.0
O396 O 0.38199 0.51342 0.73689 0.0
O397 O 0.41049 0.49097 0.75523 0.0
O398 O 0.43623 0.53198 0.7315 0.0
O399 O 0.4567 0.49508 0.72985 0.0
C400 C 0.39218 0.38324 0.7323 0.0
C401 C 0.39374 0.38307 0.75713 0.0
H402 H 0.39916 0.39041 0.80546 0.0
H403 H 0.42011 0.43051 0.82839 0.0
H404 H 0.4104 0.43139 0.66942 0.0
H405 H 0.39252 0.39082 0.68528 0.0
H406 H 0.38236 0.36664 0.72145 0.0
H407 H 0.38504 0.36636 0.765 0.0
Mn408 Mn 0.76769 0.37633 0.52158 0.0
Mn409 Mn 0.75983 0.40443 0.47036 0.0
C410 C 0.75314 0.35123 0.48646 0.0
C411 C 0.7907 0.3561 0.55089 0.0
C412 C 0.72509 0.41285 0.5107 0.0
O413 O 0.79195 0.41016 0.52754 0.0
O414 O 0.78774 0.42502 0.49122 0.0
C415 C 0.81108 0.3971 0.45108 0.0
N416 N 0.78447 0.39286 0.449 0.0
C417 C 0.78517 0.36898 0.41101 0.0
C418 C 0.81255 0.37315 0.41273 0.0
C419 C 0.82556 0.38723 0.43288 0.0
C420 C 0.77177 0.37926 0.42972 0.0
H421 H 0.82122 0.4078 0.46655 0.0
C422 C 0.79871 0.42595 0.51229 0.0
O423 O 0.77103 0.36945 0.55511 0.0
O424 O 0.79776 0.35475 0.52933 0.0
N425 N 0.73379 0.38494 0.44883 0.0
C426 C 0.70747 0.38128 0.45056 0.0
C427 C 0.69163 0.36715 0.43201 0.0
C428 C 0.70298 0.35704 0.41188 0.0
C429 C 0.73015 0.36086 0.4106 0.0
C430 C 0.74493 0.37513 0.42961 0.0
H431 H 0.69863 0.38913 0.46593 0.0
O432 O 0.74691 0.34336 0.50663 0.0
O433 O 0.76582 0.37398 0.48783 0.0
O434 O 0.73539 0.39643 0.5231 0.0
O435 O 0.73289 0.41799 0.49066 0.0
C436 C 0.74317 0.35089 0.3913 0.0
C437 C 0.77067 0.35475 0.3916 0.0
H438 H 0.8238 0.36549 0.39876 0.0
H439 H 0.8467 0.39046 0.43439 0.0
H440 H 0.6707 0.36413 0.43318 0.0
H441 H 0.69067 0.3462 0.3976 0.0
H442 H 0.73226 0.34 0.37622 0.0
H443 H 0.78048 0.3466 0.37684 0.0
Mn444 Mn 0.65939 0.99803 0.76129 0.0
Mn445 Mn 0.65016 0.06203 0.76993 0.0
C446 C 0.6887 0.02861 0.74726 0.0
C447 C 0.67692 0.96215 0.77751 0.0
C448 C 0.61971 0.02502 0.73116 0.0
O449 O 0.63168 0.99877 0.7853 0.0
O450 O 0.63174 0.04215 0.79315 0.0
C451 C 0.67846 0.07394 0.81716 0.0
N452 N 0.67455 0.07915 0.79415 0.0
C453 C 0.70264 0.11892 0.80102 0.0
C454 C 0.70688 0.11411 0.82484 0.0
C455 C 0.69498 0.09134 0.83287 0.0
C456 C 0.68672 0.10042 0.78604 0.0
H457 H 0.66885 0.05675 0.82346 0.0
C458 C 0.6246 0.01871 0.79712 0.0
O459 O 0.65858 0.9588 0.76032 0.0
O460 O 0.68473 0.98594 0.78517 0.0
N461 N 0.66664 0.08453 0.74922 0.0
C462 C 0.66112 0.08593 0.72561 0.0
C463 C 0.67253 0.10688 0.71452 0.0
C464 C 0.6886 0.12673 0.72799 0.0
C465 C 0.69345 0.12523 0.75237 0.0
C466 C 0.6824 0.10336 0.76227 0.0
H467 H 0.64827 0.07109 0.71527 0.0
O468 O 0.68783 1.00414 0.73983 0.0
O469 O 0.67341 0.03446 0.76383 0.0
O470 O 0.63146 1.00438 0.73448 0.0
O471 O 0.62467 0.04633 0.74436 0.0
C472 C 0.70842 0.14479 0.76734 0.0
C473 C 0.71325 0.14152 0.79161 0.0
H474 H 0.7192 0.12775 0.83711 0.0
H475 H 0.69817 0.08745 0.85122 0.0
H476 H 0.66856 0.10795 0.69571 0.0
H477 H 0.69696 0.14312 0.71946 0.0
H478 H 0.71685 0.16215 0.76027 0.0
H479 H 0.72532 0.15641 0.80282 0.0
Mn480 Mn 0.03121 0.24934 0.87215 0.0
Mn481 Mn 0.97431 0.24481 0.89806 0.0
C482 C 0.99367 0.22917 0.85139 0.0
C483 C 0.06023 0.27167 0.84954 0.0
C484 C 0.01942 0.21208 0.90983 0.0
O485 O 0.03745 0.27684 0.90023 0.0
O486 O 0.99714 0.27505 0.91389 0.0
C487 C 0.95253 0.29355 0.8847 0.0
N488 N 0.95042 0.26703 0.88432 0.0
C489 C 0.9089 0.26403 0.8614 0.0
C490 C 0.91055 0.29132 0.86172 0.0
C491 C 0.93247 0.30613 0.87341 0.0
C492 C 0.92935 0.25259 0.8732 0.0
H493 H 0.96947 0.30501 0.89342 0.0
C494 C 0.02079 0.2852 0.91407 0.0
O495 O 0.06818 0.25473 0.86357 0.0
O496 O 0.03581 0.27638 0.84949 0.0
N497 N 0.95078 0.21653 0.88353 0.0
C498 C 0.95313 0.19038 0.88334 0.0
C499 C 0.93325 0.1728 0.87166 0.0
C500 C 0.9112 0.18227 0.86029 0.0
C501 C 0.9093 0.20925 0.86056 0.0
C502 C 0.92957 0.22584 0.87274 0.0
H503 H 0.97008 0.18298 0.89195 0.0
O504 O 0.01657 0.22372 0.84515 0.0
O505 O 0.99376 0.2456 0.86986 0.0
O506 O 0.03402 0.22021 0.89429 0.0
O507 O 0.99719 0.22065 0.91324 0.0
C508 C 0.88834 0.22034 0.84885 0.0
C509 C 0.88813 0.24771 0.84928 0.0
H510 H 0.89525 0.30109 0.85282 0.0
H511 H 0.93397 0.32719 0.87359 0.0
H512 H 0.93494 0.15199 0.87138 0.0
H513 H 0.89594 0.16863 0.85127 0.0
H514 H 0.87246 0.208 0.8392 0.0
H515 H 0.8721 0.256 0.83992 0.0
Mn516 Mn 0.5294 0.76278 0.37534 0.0
Mn517 Mn 0.47399 0.7531 0.40287 0.0
C518 C 0.49233 0.74075 0.35537 0.0
C519 C 0.55662 0.78576 0.35171 0.0
C520 C 0.52133 0.72281 0.41192 0.0
O521 O 0.53452 0.79082 0.40311 0.0
O522 O 0.49629 0.78312 0.4198 0.0
C523 C 0.45007 0.80195 0.3931 0.0
N524 N 0.44891 0.77539 0.39112 0.0
C525 C 0.40718 0.77244 0.36854 0.0
C526 C 0.40789 0.79976 0.37044 0.0
C527 C 0.42943 0.81457 0.38278 0.0
C528 C 0.42822 0.76095 0.37936 0.0
H529 H 0.46666 0.81344 0.4024 0.0
C530 C 0.5185 0.79605 0.41872 0.0
O531 O 0.56573 0.76981 0.36615 0.0
O532 O 0.53197 0.78958 0.35206 0.0
N533 N 0.45092 0.72495 0.38746 0.0
C534 C 0.4539 0.69887 0.38615 0.0
C535 C 0.43417 0.68133 0.3742 0.0
C536 C 0.41164 0.69079 0.36367 0.0
C537 C 0.40914 0.71773 0.36501 0.0
C538 C 0.42924 0.73424 0.3775 0.0
H539 H 0.47122 0.69148 0.39414 0.0
O540 O 0.51537 0.73643 0.34872 0.0
O541 O 0.49207 0.75677 0.37408 0.0
O542 O 0.53511 0.73397 0.39731 0.0
O543 O 0.49823 0.72868 0.41577 0.0
C544 C 0.38764 0.72885 0.3542 0.0
C545 C 0.38669 0.75619 0.35593 0.0
H546 H 0.39211 0.80958 0.36234 0.0
H547 H 0.43017 0.83566 0.38422 0.0
H548 H 0.43633 0.66058 0.37307 0.0
H549 H 0.39645 0.67718 0.35452 0.0
H550 H 0.37188 0.71657 0.3443 0.0
H551 H 0.37021 0.76453 0.34731 0.0
Mn552 Mn 0.03034 0.77562 0.63309 0.0
Mn553 Mn 1.00367 0.7226 0.6566 0.0
C554 C 0.02249 0.73614 0.61022 0.0
C555 C 0.02664 0.8134 0.61341 0.0
C556 C 0.0605 0.74383 0.66714 0.0
O557 O 0.01518 0.79119 0.66302 0.0
O558 O 0.99419 0.75471 0.6744 0.0
C559 C 0.94772 0.72912 0.64413 0.0
N560 N 0.96838 0.71413 0.64366 0.0
C561 C 0.94163 0.67815 0.62255 0.0
C562 C 0.91993 0.693 0.62331 0.0
C563 C 0.92303 0.71866 0.63401 0.0
C564 C 0.96572 0.68958 0.63305 0.0
H565 H 0.95014 0.74898 0.65192 0.0
C566 C 0.99992 0.77945 0.67633 0.0
O567 O 0.04748 0.81 0.62671 0.0
O568 O 1.0074 0.79539 0.61243 0.0
N569 N 0.01086 0.69007 0.64079 0.0
C570 C 0.03411 0.67914 0.63991 0.0
C571 C 0.03459 0.65378 0.62908 0.0
C572 C 0.01119 0.63992 0.61932 0.0
C573 C 0.98754 0.65163 0.62028 0.0
C574 C 0.9882 0.67679 0.63163 0.0
H575 H 0.05214 0.68961 0.64751 0.0
O576 O 0.03937 0.75404 0.60435 0.0
O577 O 0.01066 0.74197 0.62911 0.0
O578 O 0.05995 0.76164 0.65289 0.0
O579 O 0.04032 0.72906 0.67083 0.0
C580 C 0.9634 0.63945 0.61015 0.0
C581 C 0.94047 0.65274 0.61121 0.0
H582 H 0.90089 0.68506 0.61536 0.0
H583 H 0.90647 0.73039 0.63434 0.0
H584 H 0.05295 0.64491 0.62827 0.0
H585 H 0.0116 0.62036 0.61098 0.0
H586 H 0.96233 0.62005 0.60114 0.0
H587 H 0.92212 0.64339 0.60293 0.0
Mn588 Mn 0.53178 0.2691 0.12674 0.0
Mn589 Mn 0.50873 0.21418 0.15 0.0
C590 C 0.53261 0.22848 0.10609 0.0
C591 C 0.52779 0.30519 0.10453 0.0
C592 C 0.56192 0.24188 0.16515 0.0
O593 O 0.50956 0.28371 0.15235 0.0
O594 O 0.49621 0.24572 0.16634 0.0
C595 C 0.45235 0.21612 0.13599 0.0
N596 N 0.47444 0.20313 0.13584 0.0
C597 C 0.45011 0.16367 0.1186 0.0
C598 C 0.42709 0.17661 0.11852 0.0
C599 C 0.42826 0.20303 0.12703 0.0
C600 C 0.47366 0.17798 0.12697 0.0
H601 H 0.45305 0.23621 0.14312 0.0
C602 C 0.49675 0.2706 0.16652 0.0
O603 O 0.54645 0.30469 0.12102 0.0
O604 O 0.51071 0.28502 0.10144 0.0
N605 N 0.51874 0.18179 0.13614 0.0
C606 C 0.54259 0.17193 0.13796 0.0
C607 C 0.54495 0.14599 0.12942 0.0
C608 C 0.52261 0.13015 0.11995 0.0
C609 C 0.49812 0.14042 0.11908 0.0
C610 C 0.4971 0.16666 0.12715 0.0
H611 H 0.55974 0.18383 0.14571 0.0
O612 O 0.54844 0.24808 0.1018 0.0
O613 O 0.51645 0.23303 0.1222 0.0
O614 O 0.55967 0.26058 0.15198 0.0
O615 O 0.54416 0.22329 0.16559 0.0
C616 C 0.47457 0.12546 0.11117 0.0
C617 C 0.45056 0.13704 0.11105 0.0
H618 H 0.4084 0.16643 0.11205 0.0
H619 H 0.41058 0.21314 0.12709 0.0
H620 H 0.56388 0.13812 0.13044 0.0
H621 H 0.52443 0.11002 0.11373 0.0
H622 H 0.47471 0.10504 0.10506 0.0
H623 H 0.43261 0.12538 0.10476 0.0
H624 H 0.27448 0.73458 0.88791 0.0
H625 H 0.19052 0.72151 0.87066 0.0
H626 H 0.18312 0.75294 0.9038 0.0
H627 H 0.26652 0.74436 0.95577 0.0
H628 H 0.2952 0.76719 0.95944 0.0
H629 H 0.29317 0.7399 0.93734 0.0
H630 H 0.30432 0.77228 0.90829 0.0
H631 H 0.30159 0.80159 0.92698 0.0
H632 H 0.28123 0.79452 0.89959 0.0
H633 H 0.18461 0.78793 0.93698 0.0
H634 H 0.1953 0.82453 0.96792 0.0
H635 H 0.27804 0.81698 0.96223 0.0
C636 C 0.25449 0.73754 0.8916 0.0
C637 C 0.23314 0.72586 0.87625 0.0
C638 C 0.20731 0.73069 0.88166 0.0
C639 C 0.20283 0.74831 0.90066 0.0
C640 C 0.22431 0.76045 0.91467 0.0
C641 C 0.24961 0.75472 0.9109 0.0
C642 C 0.26923 0.77149 0.92803 0.0
C643 C 0.28176 0.75474 0.94622 0.0
C644 C 0.29034 0.78594 0.91502 0.0
C645 C 0.25121 0.78969 0.93982 0.0
C646 C 0.22528 0.78193 0.93283 0.0
C647 C 0.20483 0.79431 0.94252 0.0
C648 C 0.21102 0.8151 0.95994 0.0
C649 C 0.23737 0.82406 0.96663 0.0
C650 C 0.25772 0.81105 0.95661 0.0
H651 H 0.04896 0.49193 0.41822 0.0
H652 H 0.99255 0.54831 0.40463 0.0
H653 H 1.00565 0.54972 0.36386 0.0
H654 H 0.09873 0.52273 0.38833 0.0
H655 H 0.1114 0.49313 0.37669 0.0
H656 H 0.09513 0.49353 0.40365 0.0
H657 H 0.06279 0.45491 0.38551 0.0
H658 H 0.07893 0.45451 0.3584 0.0
H659 H 0.04421 0.4577 0.35787 0.0
H660 H 0.02662 0.54792 0.32619 0.0
H661 H 0.05683 0.5461 0.29461 0.0
H662 H 0.10165 0.49213 0.3321 0.0
C663 C 0.03908 0.50412 0.40642 0.0
C664 C 0.01962 0.51987 0.4144 0.0
C665 C 1.00749 0.53612 0.3988 0.0
C666 C 0.01468 0.5369 0.37557 0.0
C667 C 0.03418 0.52146 0.36827 0.0
C668 C 0.04642 0.50551 0.38321 0.0
C669 C 0.0687 0.49311 0.37159 0.0
C670 C 0.09504 0.50112 0.38592 0.0
C671 C 0.06333 0.46328 0.36814 0.0
C672 C 0.0674 0.50507 0.34803 0.0
C673 C 0.04697 0.52095 0.34643 0.0
C674 C 0.04252 0.53537 0.32712 0.0
C675 C 0.05984 0.53421 0.30927 0.0
C676 C 0.08154 0.51888 0.31081 0.0
C677 C 0.08494 0.50357 0.33019 0.0
H678 H 0.80579 0.8124 0.89003 0.0
H679 H 0.85913 0.76886 0.84945 0.0
H680 H 0.86424 0.74 0.8814 0.0
H681 H 0.83439 0.80462 0.94927 0.0
H682 H 0.80294 0.79947 0.96107 0.0
H683 H 0.80659 0.81957 0.93682 0.0
H684 H 0.76944 0.79076 0.91174 0.0
H685 H 0.76545 0.7709 0.93601 0.0
H686 H 0.77167 0.75602 0.90745 0.0
H687 H 0.86162 0.71365 0.91704 0.0
H688 H 0.84635 0.68896 0.94976 0.0
H689 H 0.79146 0.74668 0.96465 0.0
C690 C 0.81857 0.79687 0.8876 0.0
C691 C 0.83237 0.79359 0.86699 0.0
C692 C 0.84896 0.7728 0.86516 0.0
C693 C 0.85193 0.75602 0.88327 0.0
C694 C 0.83793 0.75982 0.90315 0.0
C695 C 0.82125 0.7795 0.90521 0.0
C696 C 0.80608 0.77761 0.92697 0.0
C697 C 0.81292 0.80175 0.94457 0.0
C698 C 0.77641 0.77357 0.92013 0.0
C699 C 0.81642 0.75347 0.93656 0.0
C700 C 0.83531 0.74387 0.92295 0.0
C701 C 0.84699 0.72114 0.92792 0.0
C702 C 0.8384 0.70734 0.94668 0.0
C703 C 0.81794 0.71604 0.95987 0.0
C704 C 0.80739 0.73977 0.95506 0.0
H705 H 0.01436 1.00117 0.42351 0.0
H706 H 0.093 0.01324 0.4009 0.0
H707 H 0.07466 0.02174 0.36129 0.0
H708 H 0.9862 0.96694 0.36942 0.0
H709 H 0.95525 0.98101 0.37072 0.0
H710 H 0.97474 0.97723 0.3976 0.0
H711 H 0.97397 0.02666 0.40981 0.0
H712 H 0.95477 0.03063 0.38278 0.0
H713 H 0.98535 0.05012 0.3902 0.0
H714 H 0.04775 0.02665 0.32331 0.0
H715 H 0.01403 0.02488 0.28961 0.0
H716 H 0.95327 0.01039 0.33697 0.0
C717 C 0.02774 1.00547 0.41021 0.0
C718 C 0.05516 0.00673 0.41547 0.0
C719 C 0.07194 0.0126 0.39751 0.0
C720 C 0.06171 0.01743 0.3749 0.0
C721 C 0.03463 0.01637 0.37043 0.0
C722 C 0.01786 0.01036 0.38753 0.0
C723 C 0.98951 0.00938 0.37787 0.0
C724 C 0.97562 0.98202 0.37896 0.0
C725 C 0.97506 0.03046 0.39095 0.0
C726 C 0.99297 0.01539 0.3526 0.0
C727 C 0.01914 0.01956 0.34867 0.0
C728 C 0.02718 0.02383 0.32627 0.0
C729 C 0.00799 0.02303 0.30729 0.0
C730 C 0.98122 0.01819 0.31096 0.0
C731 C 0.97364 0.01483 0.33393 0.0
H732 H 0.27188 0.29008 0.64589 0.0
H733 H 0.19393 0.3139 0.62982 0.0
H734 H 0.19288 0.29133 0.58971 0.0
H735 H 0.29541 0.29499 0.58706 0.0
H736 H 0.31322 0.26631 0.58841 0.0
H737 H 0.30864 0.28597 0.61517 0.0
H738 H 0.28764 0.24527 0.6328 0.0
H739 H 0.29215 0.22551 0.60613 0.0
H740 H 0.25999 0.2265 0.61675 0.0
H741 H 0.19972 0.26515 0.55207 0.0
H742 H 0.21275 0.23525 0.51998 0.0
H743 H 0.286 0.22716 0.56085 0.0
C744 C 0.25479 0.29086 0.63375 0.0
C745 C 0.23303 0.30386 0.64079 0.0
C746 C 0.21075 0.30401 0.62469 0.0
C747 C 0.21005 0.29137 0.60189 0.0
C748 C 0.23174 0.27856 0.59554 0.0
C749 C 0.25365 0.27809 0.61101 0.0
C750 C 0.27365 0.26157 0.60025 0.0
C751 C 0.29924 0.27821 0.59756 0.0
C752 C 0.27864 0.23834 0.61485 0.0
C753 C 0.25944 0.25262 0.5764 0.0
C754 C 0.23543 0.26289 0.57397 0.0
C755 C 0.21851 0.25706 0.55372 0.0
C756 C 0.22616 0.24002 0.53555 0.0
C757 C 0.25046 0.22875 0.53778 0.0
C758 C 0.26736 0.23545 0.55847 0.0
H759 H 0.53208 0.49976 0.60693 0.0
H760 H 0.53328 0.58374 0.60369 0.0
H761 H 0.50861 0.587 0.63912 0.0
H762 H 0.46804 0.4896 0.62746 0.0
H763 H 0.47699 0.46551 0.64716 0.0
H764 H 0.49423 0.46945 0.62103 0.0
H765 H 0.53827 0.47704 0.64671 0.0
H766 H 0.52118 0.47304 0.67291 0.0
H767 H 0.54217 0.50229 0.67078 0.0
H768 H 0.48282 0.58126 0.67467 0.0
H769 H 0.45966 0.56697 0.7086 0.0
H770 H 0.4778 0.48733 0.69056 0.0
C771 C 0.52742 0.51891 0.61371 0.0
C772 C 0.53448 0.54143 0.60205 0.0
C773 C 0.52761 0.56601 0.61168 0.0
C774 C 0.51375 0.56815 0.63202 0.0
C775 C 0.50704 0.54561 0.64291 0.0
C776 C 0.51381 0.52147 0.63422 0.0
C777 C 0.50459 0.50037 0.6496 0.0
C778 C 0.48479 0.48004 0.63546 0.0
C779 C 0.52795 0.48743 0.66066 0.0
C780 C 0.49154 0.51642 0.6682 0.0
C781 C 0.49301 0.54245 0.66392 0.0
C782 C 0.4817 0.56094 0.67828 0.0
C783 C 0.46853 0.55262 0.69752 0.0
C784 C 0.46695 0.52605 0.70243 0.0
C785 C 0.4788 0.50783 0.68752 0.0
H786 H 0.86097 0.23957 0.60722 0.0
H787 H 0.82296 0.26104 0.67066 0.0
H788 H 0.80849 0.3003 0.65314 0.0
H789 H 0.88059 0.30625 0.59152 0.0
H790 H 0.87264 0.29807 0.56032 0.0
H791 H 0.8833 0.27351 0.57883 0.0
H792 H 0.8412 0.24378 0.56483 0.0
H793 H 0.8305 0.26816 0.54624 0.0
H794 H 0.80968 0.25624 0.5679 0.0
H795 H 0.79647 0.33546 0.62882 0.0
H796 H 0.78265 0.36244 0.59738 0.0
H797 H 0.82527 0.31735 0.54757 0.0
C798 C 0.85001 0.2529 0.61746 0.0
C799 C 0.84324 0.24765 0.64034 0.0
C800 C 0.82831 0.26491 0.65313 0.0
C801 C 0.8202 0.2873 0.64339 0.0
C802 C 0.82687 0.29189 0.6207 0.0
C803 C 0.84111 0.27507 0.60769 0.0
C804 C 0.843 0.28318 0.58273 0.0
C805 C 0.87159 0.2907 0.57809 0.0
C806 C 0.83033 0.26156 0.56435 0.0
C807 C 0.82721 0.3069 0.58369 0.0
C808 C 0.81867 0.31177 0.60598 0.0
C809 C 0.80307 0.33193 0.61131 0.0
C810 C 0.79531 0.34714 0.59325 0.0
C811 C 0.8028 0.34198 0.56995 0.0
C812 C 0.81946 0.32192 0.56524 0.0
H813 H 0.52691 0.97775 0.61196 0.0
H814 H 0.51853 0.06035 0.60621 0.0
H815 H 0.54594 0.07099 0.64316 0.0
H816 H 0.52783 0.97836 0.675 0.0
H817 H 0.55323 0.95638 0.67814 0.0
H818 H 0.53222 0.95427 0.6512 0.0
H819 H 0.57269 0.9599 0.62693 0.0
H820 H 0.59386 0.96179 0.65377 0.0
H821 H 0.59621 0.98766 0.63432 0.0
H822 H 0.5712 0.07334 0.6811 0.0
H823 H 0.59916 0.0685 0.71649 0.0
H824 H 0.59712 0.98481 0.69778 0.0
C825 C 0.53103 0.99809 0.61833 0.0
C826 C 0.51967 0.01812 0.60631 0.0
C827 C 0.52587 0.04447 0.61536 0.0
C828 C 0.5417 0.05081 0.63632 0.0
C829 C 0.55189 0.0307 0.64795 0.0
C830 C 0.54739 1.00492 0.63919 0.0
C831 C 0.56192 0.98748 0.65515 0.0
C832 C 0.54264 0.96796 0.66548 0.0
C833 C 0.58239 0.97337 0.64174 0.0
C834 C 0.57495 0.00761 0.67429 0.0
C835 C 0.56843 0.03229 0.66967 0.0
C836 C 0.57682 0.05419 0.68478 0.0
C837 C 0.59277 0.05107 0.70502 0.0
C838 C 0.60087 0.02622 0.7101 0.0
C839 C 0.59158 1.00408 0.69445 0.0
H840 H 0.89723 0.15868 0.7445 0.0
H841 H 0.86895 0.2349 0.73624 0.0
H842 H 0.89798 0.2535 0.77064 0.0
H843 H 0.90193 0.16482 0.80818 0.0
H844 H 0.93171 0.14874 0.812 0.0
H845 H 0.90935 0.13999 0.78621 0.0
H846 H 0.94528 0.15003 0.7582 0.0
H847 H 0.96857 0.15767 0.78344 0.0
H848 H 0.96422 0.1812 0.76201 0.0
H849 H 0.93066 0.26453 0.80438 0.0
H850 H 0.96596 0.26751 0.83631 0.0
H851 H 0.97291 0.18434 0.82473 0.0
C852 C 0.89715 0.17925 0.74998 0.0
C853 C 0.88106 0.1954 0.73742 0.0
C854 C 0.88153 0.22225 0.74518 0.0
C855 C 0.89776 0.23298 0.76486 0.0
C856 C 0.91338 0.21662 0.77676 0.0
C857 C 0.91334 0.19037 0.76969 0.0
C858 C 0.93248 0.1774 0.78561 0.0
C859 C 0.91802 0.15649 0.7988 0.0
C860 C 0.95391 0.1659 0.77147 0.0
C861 C 0.94352 0.2006 0.80241 0.0
C862 C 0.932 0.22294 0.79696 0.0
C863 C 0.93953 0.24712 0.8091 0.0
C864 C 0.95943 0.24858 0.82731 0.0
C865 C 0.9713 0.22599 0.83351 0.0
C866 C 0.96351 0.20171 0.82072 0.0
H867 H 0.49385 0.89033 0.53098 0.0
H868 H 0.52442 0.95464 0.49364 0.0
H869 H 0.53709 0.92323 0.46207 0.0
H870 H 0.54088 0.84364 0.51515 0.0
H871 H 0.51648 0.81627 0.51115 0.0
H872 H 0.51242 0.84361 0.53194 0.0
H873 H 0.46707 0.84932 0.51081 0.0
H874 H 0.4709 0.82187 0.49017 0.0
H875 H 0.46452 0.85292 0.4795 0.0
H876 H 0.54593 0.88443 0.43434 0.0
H877 H 0.5441 0.84234 0.40989 0.0
H878 H 0.50433 0.80393 0.46394 0.0
C879 C 0.50348 0.89771 0.51625 0.0
C880 C 0.5084 0.92478 0.51473 0.0
C881 C 0.52051 0.9339 0.49505 0.0
C882 C 0.52794 0.91622 0.47716 0.0
C883 C 0.52276 0.88954 0.47912 0.0
C884 C 0.51039 0.88037 0.49799 0.0
C885 C 0.50469 0.85099 0.49482 0.0
C886 C 0.51951 0.83786 0.51443 0.0
C887 C 0.47504 0.84334 0.49375 0.0
C888 C 0.51555 0.84506 0.47113 0.0
C889 C 0.52646 0.86744 0.4626 0.0
C890 C 0.53746 0.86679 0.44087 0.0
C891 C 0.53652 0.84277 0.42718 0.0
C892 C 0.52416 0.8199 0.43507 0.0
C893 C 0.51401 0.82109 0.45752 0.0
H894 H 0.19151 0.29454 0.78383 0.0
H895 H 0.14446 0.32705 0.72891 0.0
H896 H 0.10592 0.32263 0.75238 0.0
H897 H 0.14195 0.24626 0.79635 0.0
H898 H 0.15109 0.24854 0.82766 0.0
H899 H 0.17533 0.25604 0.80735 0.0
H900 H 0.18653 0.30159 0.82999 0.0
H901 H 0.16218 0.29427 0.8503 0.0
H902 H 0.16086 0.32301 0.83433 0.0
H903 H 0.07259 0.3145 0.78162 0.0
H904 H 0.04549 0.29928 0.81263 0.0
H905 H 0.11349 0.26965 0.84773 0.0
C906 C 0.17309 0.30087 0.77688 0.0
C907 C 0.17089 0.31121 0.75466 0.0
C908 C 0.1465 0.31901 0.74589 0.0
C909 C 0.12457 0.31672 0.75915 0.0
C910 C 0.12735 0.30637 0.78101 0.0
C911 C 0.15091 0.29829 0.78971 0.0
C912 C 0.14821 0.28632 0.81299 0.0
C913 C 0.15451 0.25759 0.81095 0.0
C914 C 0.16547 0.30226 0.83309 0.0
C915 C 0.11939 0.28874 0.81593 0.0
C916 C 0.10786 0.30076 0.79747 0.0
C917 C 0.0814 0.30507 0.79616 0.0
C918 C 0.06618 0.29642 0.81393 0.0
C919 C 0.07736 0.28326 0.83261 0.0
C920 C 0.10441 0.27968 0.83371 0.0
H921 H 0.52957 0.61335 0.50464 0.0
H922 H 0.59473 0.58642 0.4677 0.0
H923 H 0.59162 0.62216 0.44152 0.0
H924 H 0.49254 0.62971 0.45263 0.0
H925 H 0.48002 0.65805 0.46698 0.0
H926 H 0.48816 0.63129 0.48385 0.0
H927 H 0.51928 0.66292 0.51271 0.0
H928 H 0.51123 0.68978 0.49591 0.0
H929 H 0.54493 0.68297 0.50124 0.0
H930 H 0.58185 0.6604 0.41952 0.0
H931 H 0.56415 0.69741 0.40092 0.0
H932 H 0.50351 0.69894 0.45036 0.0
C933 C 0.54329 0.61518 0.49117 0.0
C934 C 0.56261 0.59731 0.48827 0.0
C935 C 0.5799 0.6 0.4702 0.0
C936 C 0.57832 0.62025 0.45531 0.0
C937 C 0.5591 0.63752 0.45851 0.0
C938 C 0.54171 0.63513 0.47581 0.0
C939 C 0.52212 0.65568 0.47457 0.0
C940 C 0.49405 0.64292 0.46918 0.0
C941 C 0.52454 0.67392 0.49747 0.0
C942 C 0.53128 0.66991 0.4539 0.0
C943 C 0.55281 0.65922 0.44512 0.0
C944 C 0.56497 0.66895 0.4262 0.0
C945 C 0.55476 0.69008 0.41578 0.0
C946 C 0.53238 0.7012 0.4241 0.0
C947 C 0.52058 0.69091 0.44351 0.0
H948 H 0.88722 0.80372 0.76233 0.0
H949 H 0.94042 0.86267 0.80298 0.0
H950 H 0.97305 0.85738 0.77321 0.0
H951 H 0.93627 0.76169 0.74827 0.0
H952 H 0.92117 0.75051 0.71931 0.0
H953 H 0.90128 0.76118 0.74239 0.0
H954 H 0.88216 0.79464 0.71567 0.0
H955 H 0.90212 0.78411 0.69254 0.0
H956 H 0.90405 0.81805 0.70337 0.0
H957 H 0.99996 0.84509 0.73828 0.0
H958 H 0.02048 0.82312 0.70469 0.0
H959 H 0.95078 0.76968 0.69006 0.0
C960 C 0.90557 0.81582 0.76472 0.0
C961 C 0.91123 0.83398 0.78462 0.0
C962 C 0.93573 0.84885 0.78764 0.0
C963 C 0.95429 0.84604 0.7708 0.0
C964 C 0.94816 0.82788 0.7513 0.0
C965 C 0.92451 0.81276 0.74844 0.0
C966 C 0.92354 0.79296 0.72726 0.0
C967 C 0.92039 0.76493 0.73477 0.0
C968 C 0.90167 0.79774 0.70861 0.0
C969 C 0.95033 0.79919 0.71868 0.0
C970 C 0.96412 0.81973 0.73239 0.0
C971 C 0.98932 0.82893 0.72749 0.0
C972 C 1.00079 0.81645 0.70836 0.0
C973 C 0.98727 0.79468 0.69483 0.0
C974 C 0.96167 0.78624 0.70006 0.0
H975 H 0.09131 0.92705 0.54461 0.0
H976 H 0.01726 0.92737 0.50306 0.0
H977 H 0.99728 0.89466 0.52753 0.0
H978 H 0.08778 0.8593 0.55118 0.0
H979 H 0.10281 0.86287 0.58098 0.0
H980 H 0.11049 0.88712 0.56093 0.0
H981 H 0.09655 0.92308 0.59079 0.0
H982 H 0.0887 0.89888 0.6109 0.0
H983 H 0.0643 0.91989 0.60136 0.0
H984 H 0.98632 0.85994 0.55565 0.0
H985 H 0.9855 0.8262 0.58424 0.0
H986 H 0.06676 0.84976 0.60749 0.0
C987 C 0.07082 0.92036 0.54077 0.0
C988 C 0.05582 0.92969 0.522 0.0
C989 C 0.02911 0.92048 0.51741 0.0
C990 C 0.0176 0.90195 0.53124 0.0
C991 C 0.03305 0.89305 0.54964 0.0
C992 C 0.05909 0.90204 0.55441 0.0
C993 C 0.07178 0.88891 0.57461 0.0
C994 C 0.09455 0.87364 0.56642 0.0
C995 C 0.08086 0.90889 0.59566 0.0
C996 C 0.04896 0.87076 0.5803 0.0
C997 C 0.02673 0.87347 0.56582 0.0
C998 C 1.00356 0.85787 0.56721 0.0
C999 C 1.00327 0.83877 0.58352 0.0
C1000 C 0.026 0.83545 0.59823 0.0
C1001 C 0.04895 0.852 0.59674 0.0
H1002 H 0.15966 0.70034 0.76888 0.0
H1003 H 0.22253 0.71864 0.72441 0.0
H1004 H 0.19029 0.73143 0.6939 0.0
H1005 H 0.11273 0.67247 0.72087 0.0
H1006 H 0.08508 0.68506 0.73435 0.0
H1007 H 0.11311 0.67748 0.7526 0.0
H1008 H 0.11748 0.72461 0.77277 0.0
H1009 H 0.08955 0.73238 0.7545 0.0
H1010 H 0.12029 0.75182 0.75484 0.0
H1011 H 0.15158 0.74475 0.66952 0.0
H1012 H 0.10864 0.75349 0.65089 0.0
H1013 H 0.07041 0.72369 0.70999 0.0
C1014 C 0.16661 0.707 0.7527 0.0
C1015 C 0.19359 0.70878 0.749 0.0
C1016 C 0.20193 0.71722 0.72751 0.0
C1017 C 0.18378 0.72457 0.71016 0.0
C1018 C 0.15734 0.72292 0.71445 0.0
C1019 C 0.1487 0.71396 0.73502 0.0
C1020 C 0.11914 0.71347 0.73498 0.0
C1021 C 0.10679 0.68545 0.73574 0.0
C1022 C 0.11115 0.73166 0.75549 0.0
C1023 C 0.11252 0.7239 0.71131 0.0
C1024 C 0.13488 0.72945 0.69988 0.0
C1025 C 0.13391 0.74023 0.6782 0.0
C1026 C 0.10944 0.74527 0.66782 0.0
C1027 C 0.08617 0.73921 0.67895 0.0
C1028 C 0.08783 0.72831 0.70097 0.0
H1029 H 0.02831 0.60746 0.52297 0.0
H1030 H 0.94338 0.60142 0.51931 0.0
H1031 H 0.94447 0.64366 0.54298 0.0
H1032 H 0.03954 0.63103 0.57983 0.0
H1033 H 0.06613 0.65564 0.57824 0.0
H1034 H 0.0614 0.62777 0.5568 0.0
H1035 H 0.05741 0.65483 0.52152 0.0
H1036 H 0.06487 0.6838 0.54149 0.0
H1037 H 0.0358 0.68073 0.52145 0.0
H1038 H 0.95417 0.68567 0.56699 0.0
H1039 H 0.97215 0.72319 0.5945 0.0
H1040 H 0.05086 0.70139 0.5857 0.0
C1041 C 0.01001 0.61537 0.5268 0.0
C1042 C 0.98575 0.6012 0.51941 0.0
C1043 C 0.96215 0.61188 0.52501 0.0
C1044 C 0.96256 0.63594 0.53824 0.0
C1045 C 0.98672 0.64921 0.54562 0.0
C1046 C 0.01006 0.63945 0.54013 0.0
C1047 C 0.03328 0.65706 0.55171 0.0
C1048 C 0.05113 0.64203 0.56763 0.0
C1049 C 0.04875 0.66986 0.53292 0.0
C1050 C 0.01922 0.67716 0.5658 0.0
C1051 C 0.9924 0.67276 0.56114 0.0
C1052 C 0.97511 0.68914 0.57108 0.0
C1053 C 0.98543 0.71019 0.58683 0.0
C1054 C 0.01264 0.71417 0.59304 0.0
C1055 C 0.02987 0.69806 0.58177 0.0
H1056 H 0.77626 0.8859 0.17681 0.0
H1057 H 0.76351 0.85782 0.24533 0.0
H1058 H 0.79686 0.89139 0.26422 0.0
H1059 H 0.84302 0.89708 0.18466 0.0
H1060 H 0.84738 0.92756 0.17137 0.0
H1061 H 0.81978 0.90458 0.16166 0.0
H1062 H 0.78618 0.93714 0.17044 0.0
H1063 H 0.81273 0.96194 0.17831 0.0
H1064 H 0.78823 0.95575 0.19877 0.0
H1065 H 0.83111 0.92748 0.27581 0.0
H1066 H 0.86705 0.96252 0.27923 0.0
H1067 H 0.8601 0.96607 0.20326 0.0
C1068 C 0.7804 0.88696 0.1958 0.0
C1069 C 0.7671 0.86941 0.20964 0.0
C1070 C 0.77305 0.87139 0.23445 0.0
C1071 C 0.79203 0.89031 0.24533 0.0
C1072 C 0.80481 0.90722 0.2312 0.0
C1073 C 0.79924 0.90587 0.20701 0.0
C1074 C 0.81646 0.92605 0.19595 0.0
C1075 C 0.83266 0.91307 0.17734 0.0
C1076 C 0.79991 0.94643 0.18524 0.0
C1077 C 0.83341 0.93803 0.2176 0.0
C1078 C 0.82578 0.92728 0.23779 0.0
C1079 C 0.83754 0.9358 0.26013 0.0
C1080 C 0.85803 0.95549 0.26188 0.0
C1081 C 0.86701 0.96591 0.24141 0.0
C1082 C 0.85406 0.95767 0.21905 0.0
H1083 H 0.80519 0.17695 0.28393 0.0
H1084 H 0.79033 0.15537 0.35423 0.0
H1085 H 0.82116 0.12129 0.35051 0.0
H1086 H 0.80989 0.11122 0.25795 0.0
H1087 H 0.83576 0.12044 0.2397 0.0
H1088 H 0.81272 0.14352 0.24788 0.0
H1089 H 0.8511 0.1765 0.26538 0.0
H1090 H 0.87425 0.1534 0.25747 0.0
H1091 H 0.8743 0.16691 0.28767 0.0
H1092 H 0.8525 0.08925 0.33943 0.0
H1093 H 0.88164 0.05939 0.32088 0.0
H1094 H 0.87765 0.10096 0.25753 0.0
C1095 C 0.8083 0.1649 0.29845 0.0
C1096 C 0.79542 0.16901 0.31949 0.0
C1097 C 0.80021 0.15292 0.33812 0.0
C1098 C 0.81766 0.13345 0.33615 0.0
C1099 C 0.83032 0.1302 0.31543 0.0
C1100 C 0.82585 0.14532 0.29682 0.0
C1101 C 0.84193 0.13731 0.27641 0.0
C1102 C 0.824 0.12754 0.25417 0.0
C1103 C 0.86156 0.15988 0.27145 0.0
C1104 C 0.85591 0.1152 0.28644 0.0
C1105 C 0.84887 0.11161 0.30903 0.0
C1106 C 0.85828 0.09194 0.32182 0.0
C1107 C 0.87486 0.07508 0.31112 0.0
C1108 C 0.88211 0.07795 0.28786 0.0
C1109 C 0.87284 0.09861 0.2755 0.0
H1110 H 0.43762 0.98269 0.98463 0.0
H1111 H 0.41015 0.05738 0.00784 0.0
H1112 H 0.36921 0.03477 0.01851 0.0
H1113 H 0.37611 0.95556 0.95692 0.0
H1114 H 0.38052 0.92297 0.96486 0.0
H1115 H 0.4086 0.94491 0.96106 0.0
H1116 H 0.42767 0.93809 1.00331 0.0
H1117 H 0.39948 0.91632 1.00733 0.0
H1118 H 0.40838 0.94441 0.02807 0.0
H1119 H 0.33003 1.00405 0.02508 0.0
H1120 H 0.29486 0.96798 0.02369 0.0
H1121 H 0.34722 0.91403 0.99486 0.0
C1122 C 0.42303 0.99442 0.99184 0.0
C1123 C 0.42748 0.02193 0.99557 0.0
C1124 C 0.40771 0.03629 1.00528 0.0
C1125 C 0.38425 0.02362 0.01134 0.0
C1126 C 0.38063 0.99653 0.00749 0.0
C1127 C 0.39939 0.98213 0.99775 0.0
C1128 C 0.39004 0.95341 0.99401 0.0
C1129 C 0.38874 0.94365 0.96765 0.0
C1130 C 0.40743 0.9371 0.00908 0.0
C1131 C 0.36296 0.95395 1.00285 0.0
C1132 C 0.35798 0.97894 0.01088 0.0
C1133 C 0.33382 0.98437 0.01905 0.0
C1134 C 0.31404 0.96382 0.01838 0.0
C1135 C 0.31861 0.93835 0.00951 0.0
C1136 C 0.34345 0.93333 1.00202 0.0
H1137 H 0.26437 0.35862 0.28515 0.0
H1138 H 0.28415 0.38014 0.35986 0.0
H1139 H 0.2507 0.4121 0.35956 0.0
H1140 H 0.25434 0.42184 0.26849 0.0
H1141 H 0.22699 0.41159 0.24731 0.0
H1142 H 0.25139 0.38939 0.25372 0.0
H1143 H 0.21531 0.35546 0.26455 0.0
H1144 H 0.19076 0.3776 0.25819 0.0
H1145 H 0.19357 0.36468 0.28669 0.0
H1146 H 0.21845 0.44485 0.3502 0.0
H1147 H 0.1877 0.47413 0.33296 0.0
H1148 H 0.18646 0.42963 0.26496 0.0
C1149 C 0.2615 0.36994 0.30147 0.0
C1150 C 0.27687 0.36688 0.32256 0.0
C1151 C 0.27244 0.38196 0.34358 0.0
C1152 C 0.25354 0.40022 0.34356 0.0
C1153 C 0.23889 0.40293 0.32244 0.0
C1154 C 0.2424 0.38799 0.30184 0.0
C1155 C 0.22438 0.39509 0.28145 0.0
C1156 C 0.24022 0.40507 0.26158 0.0
C1157 C 0.20484 0.37182 0.27218 0.0
C1158 C 0.21065 0.41679 0.29367 0.0
C1159 C 0.21937 0.42104 0.31731 0.0
C1160 C 0.21109 0.44136 0.33184 0.0
C1161 C 0.19366 0.4579 0.32191 0.0
C1162 C 0.18435 0.45382 0.29779 0.0
C1163 C 0.1927 0.43274 0.28362 0.0
H1164 H 0.14678 0.02486 0.45558 0.0
H1165 H 0.10086 0.04786 0.51353 0.0
H1166 H 0.13654 0.08104 0.52933 0.0
H1167 H 0.21268 0.03745 0.4932 0.0
H1168 H 0.22872 0.04733 0.46782 0.0
H1169 H 0.20156 0.02266 0.46413 0.0
H1170 H 0.18173 0.04932 0.43378 0.0
H1171 H 0.20385 0.07835 0.43914 0.0
H1172 H 0.16921 0.07959 0.44263 0.0
H1173 H 0.17663 0.11225 0.53811 0.0
H1174 H 0.21706 0.14167 0.53782 0.0
H1175 H 0.23491 0.10112 0.47209 0.0
C1176 C 0.14457 0.03657 0.47187 0.0
C1177 C 0.12122 0.03398 0.48342 0.0
C1178 C 0.11877 0.04956 0.50461 0.0
C1179 C 0.13892 0.06834 0.5137 0.0
C1180 C 0.16154 0.07082 0.50163 0.0
C1181 C 0.16473 0.055 0.48145 0.0
C1182 C 0.19043 0.06253 0.47125 0.0
C1183 C 0.20947 0.04123 0.47429 0.0
C1184 C 0.18616 0.06788 0.44516 0.0
C1185 C 0.19972 0.08689 0.48728 0.0
C1186 C 0.18354 0.09035 0.50549 0.0
C1187 C 0.18928 0.10997 0.52381 0.0
C1188 C 0.21215 0.12657 0.52349 0.0
C1189 C 0.22821 0.12422 0.50442 0.0
C1190 C 0.22213 0.10395 0.48625 0.0
H1191 H 0.81122 0.1322 0.74215 0.0
H1192 H 0.79595 0.12315 0.6656 0.0
H1193 H 0.75919 0.091 0.66963 0.0
H1194 H 0.79387 0.05865 0.74712 0.0
H1195 H 0.7822 0.06595 0.77583 0.0
H1196 H 0.80915 0.08593 0.76626 0.0
H1197 H 0.78406 0.12479 0.77631 0.0
H1198 H 0.75404 0.1069 0.78203 0.0
H1199 H 0.7545 0.12943 0.75913 0.0
H1200 H 0.72234 0.06231 0.68167 0.0
H1201 H 0.68961 0.03553 0.70107 0.0
H1202 H 0.72908 0.06179 0.76962 0.0
C1203 C 0.80096 0.12296 0.72604 0.0
C1204 C 0.8063 0.13123 0.70355 0.0
C1205 C 0.79177 0.11837 0.68318 0.0
C1206 C 0.77099 0.09966 0.68521 0.0
C1207 C 0.76558 0.09302 0.70765 0.0
C1208 C 0.78081 0.10338 0.72763 0.0
C1209 C 0.77072 0.09266 0.74965 0.0
C1210 C 0.79014 0.07473 0.76034 0.0
C1211 C 0.76541 0.11472 0.7679 0.0
C1212 C 0.74583 0.0769 0.73911 0.0
C1213 C 0.74389 0.07665 0.71473 0.0
C1214 C 0.72358 0.06235 0.70073 0.0
C1215 C 0.70505 0.04736 0.71186 0.0
C1216 C 0.70643 0.04742 0.73675 0.0
C1217 C 0.72708 0.06234 0.7506 0.0
H1218 H 0.44115 0.04132 0.51812 0.0
H1219 H 0.43364 0.04465 0.59392 0.0
H1220 H 0.40055 0.07602 0.58993 0.0
H1221 H 0.43154 0.10741 0.50941 0.0
H1222 H 0.41129 0.10064 0.48209 0.0
H1223 H 0.43512 0.07849 0.49036 0.0
H1224 H 0.39889 0.04031 0.48679 0.0
H1225 H 0.37497 0.06228 0.47826 0.0
H1226 H 0.37028 0.04327 0.50309 0.0
H1227 H 0.37142 0.10968 0.57896 0.0
H1228 H 0.34165 0.13872 0.56061 0.0
H1229 H 0.36203 0.11029 0.49104 0.0
C1230 C 0.43234 0.04829 0.53388 0.0
C1231 C 0.44098 0.04092 0.55651 0.0
C1232 C 0.42856 0.05065 0.57651 0.0
C1233 C 0.40942 0.06838 0.57444 0.0
C1234 C 0.40207 0.07579 0.55213 0.0
C1235 C 0.41253 0.06561 0.53207 0.0
C1236 C 0.40007 0.07631 0.51014 0.0
C1237 C 0.42075 0.09162 0.49725 0.0
C1238 C 0.38516 0.05422 0.49359 0.0
C1239 C 0.38136 0.09436 0.52117 0.0
C1240 C 0.3833 0.09394 0.54548 0.0
C1241 C 0.36938 0.1099 0.55993 0.0
C1242 C 0.35267 0.12649 0.54932 0.0
C1243 C 0.34945 0.12671 0.52443 0.0
C1244 C 0.36396 0.11034 0.51011 0.0
H1245 H 0.60164 0.49933 0.51646 0.0
H1246 H 0.6159 0.50394 0.59299 0.0
H1247 H 0.65159 0.47526 0.58874 0.0
H1248 H 0.61727 0.43298 0.50373 0.0
H1249 H 0.63383 0.43978 0.47775 0.0
H1250 H 0.60788 0.45913 0.48656 0.0
H1251 H 0.63902 0.5012 0.48744 0.0
H1252 H 0.66506 0.48201 0.4786 0.0
H1253 H 0.66977 0.50382 0.50518 0.0
H1254 H 0.68588 0.44649 0.57659 0.0
H1255 H 0.71843 0.42139 0.55748 0.0
H1256 H 0.6854 0.43824 0.48849 0.0
C1257 C 0.61229 0.49457 0.53242 0.0
C1258 C 0.60544 0.50395 0.55515 0.0
C1259 C 0.61995 0.49666 0.57539 0.0
C1260 C 0.64054 0.4805 0.57316 0.0
C1261 C 0.64679 0.47193 0.55058 0.0
C1262 C 0.63329 0.47887 0.53054 0.0
C1263 C 0.64489 0.46794 0.50835 0.0
C1264 C 0.62476 0.44882 0.49321 0.0
C1265 C 0.6553 0.49006 0.49405 0.0
C1266 C 0.6671 0.45381 0.51909 0.0
C1267 C 0.66752 0.45618 0.54349 0.0
C1268 C 0.68577 0.44456 0.55751 0.0
C1269 C 0.70416 0.43022 0.5464 0.0
C1270 C 0.70456 0.42775 0.52141 0.0
C1271 C 0.68573 0.43984 0.50759 0.0
H1272 H 0.72548 0.24021 0.37781 0.0
H1273 H 0.8084 0.25226 0.36806 0.0
H1274 H 0.81423 0.2839 0.40326 0.0
H1275 H 0.71391 0.30285 0.39491 0.0
H1276 H 0.69341 0.29765 0.41883 0.0
H1277 H 0.69412 0.27265 0.39497 0.0
H1278 H 0.70764 0.23845 0.42226 0.0
H1279 H 0.70499 0.26166 0.4472 0.0
H1280 H 0.73488 0.24602 0.44411 0.0
H1281 H 0.8113 0.3148 0.43777 0.0
H1282 H 0.80003 0.34452 0.47062 0.0
H1283 H 0.7186 0.31397 0.45933 0.0
C1284 C 0.74487 0.24938 0.38332 0.0
C1285 C 0.76657 0.2438 0.37031 0.0
C1286 C 0.79165 0.25606 0.37795 0.0
C1287 C 0.79511 0.27408 0.39787 0.0
C1288 C 0.77337 0.2793 0.41019 0.0
C1289 C 0.74878 0.26713 0.40353 0.0
C1290 C 0.72883 0.2766 0.42007 0.0
C1291 C 0.70624 0.28817 0.40642 0.0
C1292 C 0.71848 0.25436 0.43425 0.0
C1293 C 0.74581 0.29725 0.43609 0.0
C1294 C 0.77154 0.29783 0.43026 0.0
C1295 C 0.79126 0.31459 0.44249 0.0
C1296 C 0.7846 0.3315 0.46104 0.0
C1297 C 0.75838 0.33196 0.4671 0.0
C1298 C 0.73872 0.31421 0.45481 0.0
H1299 H 0.5682 0.06092 0.91957 0.0
H1300 H 0.51074 0.99425 0.90744 0.0
H1301 H 0.53019 0.98091 0.87008 0.0
H1302 H 0.56709 0.07602 0.85916 0.0
H1303 H 0.60153 0.08646 0.86094 0.0
H1304 H 0.58362 0.08963 0.88692 0.0
H1305 H 0.61672 0.0628 0.90903 0.0
H1306 H 0.63464 0.05944 0.88305 0.0
H1307 H 0.62265 0.0308 0.89646 0.0
H1308 H 0.55781 0.97452 0.83426 0.0
H1309 H 0.5874 0.97832 0.80183 0.0
H1310 H 0.62381 0.05113 0.83708 0.0
C1311 C 0.55976 0.04346 0.90906 0.0
C1312 C 0.53814 0.02851 0.91635 0.0
C1313 C 0.52734 1.00597 0.90208 0.0
C1314 C 0.53833 0.99822 0.88093 0.0
C1315 C 0.55981 0.01345 0.87425 0.0
C1316 C 0.57011 0.03581 0.88782 0.0
C1317 C 0.59236 0.0496 0.87645 0.0
C1318 C 0.58574 0.07705 0.87051 0.0
C1319 C 0.61811 0.05071 0.89219 0.0
C1320 C 0.59313 0.03153 0.85433 0.0
C1321 C 0.57454 0.01055 0.85342 0.0
C1322 C 0.57227 0.991 0.83476 0.0
C1323 C 0.5892 0.99324 0.81648 0.0
C1324 C 0.60775 0.0151 0.81685 0.0
C1325 C 0.60968 0.03431 0.83614 0.0
H1326 H 0.30496 0.31902 0.38736 0.0
H1327 H 0.34548 0.26915 0.33937 0.0
H1328 H 0.35084 0.23875 0.36992 0.0
H1329 H 0.33886 0.3056 0.44311 0.0
H1330 H 0.30929 0.30411 0.45835 0.0
H1331 H 0.31238 0.32463 0.43433 0.0
H1332 H 0.2698 0.30133 0.41265 0.0
H1333 H 0.26638 0.28115 0.43677 0.0
H1334 H 0.26701 0.26628 0.4071 0.0
H1335 H 0.3497 0.21179 0.40494 0.0
H1336 H 0.33543 0.18765 0.4384 0.0
H1337 H 0.29147 0.25208 0.46132 0.0
C1338 C 0.31501 0.30182 0.38305 0.0
C1339 C 0.32537 0.29729 0.36079 0.0
C1340 C 0.33827 0.27414 0.3564 0.0
C1341 C 0.34133 0.25645 0.37369 0.0
C1342 C 0.33097 0.26165 0.39532 0.0
C1343 C 0.31759 0.28351 0.39986 0.0
C1344 C 0.30536 0.28287 0.42328 0.0
C1345 C 0.31719 0.30566 0.4408 0.0
C1346 C 0.27537 0.28289 0.41973 0.0
C1347 C 0.31348 0.25698 0.43092 0.0
C1348 C 0.32891 0.24537 0.41491 0.0
C1349 C 0.33786 0.22082 0.41773 0.0
C1350 C 0.32992 0.20734 0.43689 0.0
C1351 C 0.31283 0.21828 0.45258 0.0
C1352 C 0.30507 0.24363 0.44983 0.0
H1353 H 0.53709 0.47646 0.90567 0.0
H1354 H 0.54158 0.5571 0.93451 0.0
H1355 H 0.51798 0.56899 0.89788 0.0
H1356 H 0.54955 0.49031 0.84716 0.0
H1357 H 0.52772 0.46365 0.83307 0.0
H1358 H 0.54312 0.46125 0.86215 0.0
H1359 H 0.49767 0.45191 0.87825 0.0
H1360 H 0.48216 0.45393 0.84913 0.0
H1361 H 0.47288 0.47433 0.87382 0.0
H1362 H 0.4934 0.57163 0.85751 0.0
H1363 H 0.47048 0.56471 0.81741 0.0
H1364 H 0.486 0.48297 0.81461 0.0
C1365 C 0.5326 0.4965 0.90441 0.0
C1366 C 0.54069 0.51583 0.92297 0.0
C1367 C 0.53523 0.54202 0.9205 0.0
C1368 C 0.52193 0.54893 0.89977 0.0
C1369 C 0.5146 0.52946 0.88155 0.0
C1370 C 0.51979 0.50379 0.88371 0.0
C1371 C 0.51092 0.48675 0.86128 0.0
C1372 C 0.53422 0.47479 0.85027 0.0
C1373 C 0.48964 0.46548 0.8659 0.0
C1374 C 0.49983 0.50676 0.84619 0.0
C1375 C 0.50188 0.53127 0.85815 0.0
C1376 C 0.49188 0.55253 0.84793 0.0
C1377 C 0.47899 0.54846 0.82509 0.0
C1378 C 0.47652 0.52337 0.81263 0.0
C1379 C 0.48766 0.50252 0.82335 0.0
H1380 H 0.70941 0.78941 0.12761 0.0
H1381 H 0.78423 0.79133 0.16856 0.0
H1382 H 0.80023 0.76159 0.13787 0.0
H1383 H 0.70656 0.72106 0.10524 0.0
H1384 H 0.69223 0.72638 0.07637 0.0
H1385 H 0.68609 0.74756 0.10175 0.0
H1386 H 0.70332 0.78772 0.08109 0.0
H1387 H 0.70954 0.76667 0.05567 0.0
H1388 H 0.73561 0.78871 0.0705 0.0
H1389 H 0.80847 0.73215 0.10354 0.0
H1390 H 0.80911 0.70458 0.06647 0.0
H1391 H 0.72932 0.72133 0.04624 0.0
C1392 C 0.72908 0.78341 0.13008 0.0
C1393 C 0.74569 0.79285 0.15036 0.0
C1394 C 0.77135 0.78467 0.15299 0.0
C1395 C 0.78057 0.76767 0.13573 0.0
C1396 C 0.76392 0.75896 0.11586 0.0
C1397 C 0.73875 0.76649 0.11282 0.0
C1398 C 0.72527 0.75442 0.08943 0.0
C1399 C 0.7011 0.73628 0.09344 0.0
C1400 C 0.71801 0.77565 0.07321 0.0
C1401 C 0.74687 0.73906 0.07989 0.0
C1402 C 0.76888 0.74194 0.09559 0.0
C1403 C 0.79137 0.72969 0.09107 0.0
C1404 C 0.79148 0.714 0.06991 0.0
C1405 C 0.76927 0.7107 0.05332 0.0
C1406 C 0.74666 0.72351 0.05845 0.0
H1407 H 0.02816 0.05482 0.1164 0.0
H1408 H 0.04137 0.97426 0.09532 0.0
H1409 H 0.01981 0.96021 0.12971 0.0
H1410 H 0.03601 0.05119 0.17965 0.0
H1411 H 0.00972 0.07125 0.18594 0.0
H1412 H 0.02763 0.0758 0.16028 0.0
H1413 H 0.98431 0.06895 0.13355 0.0
H1414 H 0.96626 0.0644 0.15912 0.0
H1415 H 0.96302 0.03966 0.13465 0.0
H1416 H 0.99742 0.95424 0.16593 0.0
H1417 H 0.97293 0.95602 0.20118 0.0
H1418 H 0.9698 0.03977 0.19853 0.0
C1419 C 0.02648 0.03419 0.11888 0.0
C1420 C 0.03719 0.01581 0.1031 0.0
C1421 C 0.03439 0.98902 0.10732 0.0
C1422 C 0.02184 0.98071 0.12678 0.0
C1423 C 0.01167 0.99926 0.14186 0.0
C1424 C 0.01355 0.02541 0.13812 0.0
C1425 C 0.9999 0.04099 0.15678 0.0
C1426 C 0.01949 0.06099 0.17153 0.0
C1427 C 0.97701 0.05428 0.14534 0.0
C1428 C 0.99011 0.01941 0.17152 0.0
C1429 C 0.99745 0.99561 0.16255 0.0
C1430 C 0.99142 0.97273 0.17305 0.0
C1431 C 0.97742 0.97404 0.19321 0.0
C1432 C 0.96912 0.99804 0.2028 0.0
C1433 C 0.97562 0.02109 0.19166 0.0
H1434 H 0.3483 0.74476 0.11756 0.0
H1435 H 0.29509 0.7586 0.17216 0.0
H1436 H 0.27873 0.79519 0.1516 0.0
H1437 H 0.363 0.81251 0.10527 0.0
H1438 H 0.36265 0.80503 0.07377 0.0
H1439 H 0.3719 0.78117 0.09361 0.0
H1440 H 0.33602 0.74751 0.0725 0.0
H1441 H 0.3268 0.77119 0.05253 0.0
H1442 H 0.3026 0.75593 0.06958 0.0
H1443 H 0.26811 0.8299 0.12558 0.0
H1444 H 0.25956 0.85755 0.09312 0.0
H1445 H 0.31712 0.81974 0.05317 0.0
C1446 C 0.33334 0.75569 0.12518 0.0
C1447 C 0.32298 0.74903 0.14644 0.0
C1448 C 0.30317 0.76338 0.15582 0.0
C1449 C 0.2939 0.78429 0.14437 0.0
C1450 C 0.30442 0.79037 0.12339 0.0
C1451 C 0.3234 0.7763 0.11363 0.0
C1452 C 0.32981 0.78573 0.08993 0.0
C1453 C 0.35855 0.79677 0.0907 0.0
C1454 C 0.32342 0.76378 0.06996 0.0
C1455 C 0.31134 0.80717 0.08788 0.0
C1456 C 0.29729 0.80976 0.10764 0.0
C1457 C 0.27894 0.82805 0.10999 0.0
C1458 C 0.27429 0.84373 0.09143 0.0
C1459 C 0.28763 0.84082 0.07054 0.0
C1460 C 0.30669 0.8225 0.06893 0.0
H1461 H 0.0316 0.54193 0.10449 0.0
H1462 H 1.00554 0.45952 0.10021 0.0
H1463 H 0.02744 0.45611 0.13962 0.0
H1464 H 0.094 0.53723 0.13228 0.0
H1465 H 0.09493 0.56676 0.15161 0.0
H1466 H 0.07538 0.5637 0.12384 0.0
H1467 H 0.03417 0.57363 0.14551 0.0
H1468 H 0.05369 0.57709 0.17335 0.0
H1469 H 0.02494 0.55436 0.16914 0.0
H1470 H 0.05607 0.46015 0.17721 0.0
H1471 H 0.08573 0.47274 0.21305 0.0
H1472 H 0.09177 0.55297 0.19463 0.0
C1473 C 0.02997 0.52337 0.11216 0.0
C1474 C 0.01703 0.50094 0.09918 0.0
C1475 C 0.01562 0.47689 0.10969 0.0
C1476 C 0.02796 0.47474 0.1321 0.0
C1477 C 0.04141 0.4969 0.14406 0.0
C1478 C 0.04213 0.52089 0.13473 0.0
C1479 C 0.05863 0.54141 0.15118 0.0
C1480 C 0.08213 0.55294 0.13899 0.0
C1481 C 0.04185 0.56289 0.16034 0.0
C1482 C 0.06743 0.52504 0.17085 0.0
C1483 C 0.05733 0.49941 0.16631 0.0
C1484 C 0.0638 0.48027 0.18118 0.0
C1485 C 0.08081 0.48756 0.20142 0.0
C1486 C 0.09101 0.51384 0.20677 0.0
C1487 C 0.08411 0.53277 0.19121 0.0
H1488 H 0.39194 0.67103 0.25101 0.0
H1489 H 0.36452 0.74747 0.24259 0.0
H1490 H 0.39658 0.76662 0.27485 0.0
H1491 H 0.40068 0.6773 0.3122 0.0
H1492 H 0.43069 0.66148 0.31569 0.0
H1493 H 0.408 0.6525 0.29019 0.0
H1494 H 0.44253 0.66297 0.26115 0.0
H1495 H 0.46657 0.6702 0.28591 0.0
H1496 H 0.46167 0.69402 0.26484 0.0
H1497 H 0.42912 0.77704 0.30924 0.0
H1498 H 0.46401 0.77927 0.34153 0.0
H1499 H 0.47159 0.6964 0.32793 0.0
C1500 C 0.39306 0.69186 0.25573 0.0
C1501 C 0.37592 0.70785 0.24421 0.0
C1502 C 0.37778 0.73499 0.25091 0.0
C1503 C 0.39575 0.74598 0.26934 0.0
C1504 C 0.41192 0.72962 0.2807 0.0
C1505 C 0.41118 0.70325 0.27391 0.0
C1506 C 0.43072 0.6901 0.28924 0.0
C1507 C 0.41671 0.66909 0.30265 0.0
C1508 C 0.45161 0.67865 0.2744 0.0
C1509 C 0.44232 0.71317 0.30589 0.0
C1510 C 0.43099 0.7357 0.30066 0.0
C1511 C 0.43819 0.75957 0.31348 0.0
C1512 C 0.45783 0.76058 0.3319 0.0
C1513 C 0.46995 0.73789 0.33747 0.0
C1514 C 0.46227 0.7139 0.32419 0.0
H1515 H 0.99569 0.41285 0.99486 0.0
H1516 H 0.07981 0.42737 0.00923 0.0
H1517 H 0.08612 0.38726 0.98406 0.0
H1518 H 0.99373 0.34318 0.99672 0.0
H1519 H 0.96778 0.33658 0.97348 0.0
H1520 H 0.97008 0.36671 0.99209 0.0
H1521 H 0.97115 0.39286 0.95507 0.0
H1522 H 0.96881 0.36281 0.93635 0.0
H1523 H 0.9955 0.38718 0.93438 0.0
H1524 H 0.08298 0.3461 0.95612 0.0
H1525 H 0.07059 0.3061 0.92943 0.0
H1526 H 0.98848 0.31779 0.9356 0.0
C1527 C 0.01544 0.40767 0.9926 0.0
C1528 C 0.03735 0.42327 1.00373 0.0
C1529 C 0.06284 0.41565 1.00069 0.0
C1530 C 0.06659 0.39296 0.98645 0.0
C1531 C 0.04458 0.37797 0.97567 0.0
C1532 C 0.0195 0.38492 0.97875 0.0
C1533 C 0.99912 0.36517 0.96572 0.0
C1534 C 0.98165 0.35214 0.98304 0.0
C1535 C 0.98268 0.37776 0.94675 0.0
C1536 C 0.01662 0.34612 0.95469 0.0
C1537 C 0.04278 0.35388 0.96046 0.0
C1538 C 0.06254 0.33973 0.95163 0.0
C1539 C 0.05533 0.31707 0.93647 0.0
C1540 C 0.02858 0.30866 0.93054 0.0
C1541 C 0.0091 0.32343 0.93996 0.0
H1542 H 0.68521 0.80081 0.2823 0.0
H1543 H 0.63646 0.82237 0.22281 0.0
H1544 H 0.59828 0.82151 0.24711 0.0
H1545 H 0.63729 0.75535 0.30199 0.0
H1546 H 0.64728 0.76321 0.3329 0.0
H1547 H 0.67071 0.76718 0.31115 0.0
H1548 H 0.68125 0.81559 0.32722 0.0
H1549 H 0.6576 0.81183 0.34885 0.0
H1550 H 0.65513 0.83693 0.3287 0.0
H1551 H 0.5655 0.81819 0.27825 0.0
H1552 H 0.53966 0.80761 0.31173 0.0
H1553 H 0.60979 0.78624 0.35004 0.0
C1554 C 0.66648 0.80541 0.27444 0.0
C1555 C 0.66369 0.81171 0.25078 0.0
C1556 C 0.63892 0.81741 0.24093 0.0
C1557 C 0.61722 0.81715 0.25464 0.0
C1558 C 0.62067 0.81097 0.27804 0.0
C1559 C 0.64463 0.80487 0.28774 0.0
C1560 C 0.64291 0.79733 0.31278 0.0
C1561 C 0.64995 0.76909 0.31481 0.0
C1562 C 0.66025 0.81657 0.33042 0.0
C1563 C 0.61415 0.79991 0.31566 0.0
C1564 C 0.60173 0.80823 0.29559 0.0
C1565 C 0.57505 0.81169 0.29404 0.0
C1566 C 0.56056 0.80578 0.31321 0.0
C1567 C 0.57273 0.79615 0.3335 0.0
C1568 C 0.59996 0.79367 0.33482 0.0
H1569 H 0.01315 0.11144 0.01034 0.0
H1570 H 0.07428 0.07327 0.97605 0.0
H1571 H 0.07786 0.10819 0.94891 0.0
H1572 H 0.98116 0.12824 0.95736 0.0
H1573 H 0.97166 0.15919 0.96935 0.0
H1574 H 0.9762 0.13337 0.98837 0.0
H1575 H 0.00983 0.16388 0.01586 0.0
H1576 H 1.00527 0.18986 0.99697 0.0
H1577 H 0.03762 0.17982 1.00364 0.0
H1578 H 0.07349 0.14542 0.9243 0.0
H1579 H 0.05976 0.18164 0.90195 0.0
H1580 H 0.99916 0.19473 0.95001 0.0
C1581 C 0.02768 0.11094 0.99748 0.0
C1582 C 0.04385 0.09008 0.99544 0.0
C1583 C 0.062 0.08935 0.97793 0.0
C1584 C 0.0642 0.10908 0.9625 0.0
C1585 C 0.04774 0.12921 0.96457 0.0
C1586 C 0.02969 0.13027 0.98146 0.0
C1587 C 0.01272 0.15276 0.97827 0.0
C1588 C 0.98372 0.14279 0.97302 0.0
C1589 C 0.0166 0.17277 0.99998 0.0
C1590 C 0.0239 0.16386 0.95683 0.0
C1591 C 0.04434 0.15019 0.9495 0.0
C1592 C 0.05757 0.15639 0.92991 0.0
C1593 C 0.0496 0.17704 0.91732 0.0
C1594 C 0.02834 0.19111 0.92413 0.0
C1595 C 0.01546 0.1844 0.94428 0.0
H1596 H 0.39725 0.27267 0.26691 0.0
H1597 H 0.38559 0.35316 0.25547 0.0
H1598 H 0.41888 0.35264 0.22588 0.0
H1599 H 0.46703 0.27682 0.26176 0.0
H1600 H 0.46618 0.24453 0.24693 0.0
H1601 H 0.44218 0.25197 0.26747 0.0
H1602 H 0.40486 0.23667 0.23506 0.0
H1603 H 0.42874 0.22911 0.21448 0.0
H1604 H 0.4043 0.25103 0.20718 0.0
H1605 H 0.45334 0.34189 0.19616 0.0
H1606 H 0.48389 0.322 0.16947 0.0
H1607 H 0.47193 0.24908 0.20194 0.0
C1608 C 0.40178 0.29025 0.25825 0.0
C1609 C 0.38892 0.31292 0.26343 0.0
C1610 C 0.39527 0.33555 0.25174 0.0
C1611 C 0.41418 0.33542 0.23495 0.0
C1612 C 0.42651 0.31257 0.23021 0.0
C1613 C 0.42047 0.29044 0.24162 0.0
C1614 C 0.43577 0.2681 0.23324 0.0
C1615 C 0.45386 0.25988 0.25356 0.0
C1616 C 0.41732 0.24487 0.22181 0.0
C1617 C 0.45128 0.2809 0.21513 0.0
C1618 C 0.44592 0.30657 0.21355 0.0
C1619 C 0.45773 0.32184 0.1974 0.0
C1620 C 0.47512 0.31041 0.18235 0.0
C1621 C 0.48042 0.28395 0.18352 0.0
C1622 C 0.46847 0.26934 0.20044 0.0
H1623 H 0.58702 0.43342 0.05072 0.0
H1624 H 0.52284 0.42192 0.99616 0.0
H1625 H 0.50433 0.38395 0.01522 0.0
H1626 H 0.59525 0.36599 0.0558 0.0
H1627 H 0.60279 0.36982 0.08736 0.0
H1628 H 0.61028 0.39659 0.06985 0.0
H1629 H 0.58302 0.42601 0.09582 0.0
H1630 H 0.57537 0.39927 0.11337 0.0
H1631 H 0.54935 0.41556 0.09946 0.0
H1632 H 0.49351 0.34612 0.03993 0.0
H1633 H 0.49196 0.31143 0.06758 0.0
H1634 H 0.56314 0.34798 0.10593 0.0
C1635 C 0.56899 0.42297 0.04287 0.0
C1636 C 0.55637 0.43067 0.022 0.0
C1637 C 0.53288 0.41644 0.01216 0.0
C1638 C 0.52218 0.39485 0.0229 0.0
C1639 C 0.53515 0.38773 0.04348 0.0
C1640 C 0.55807 0.40139 0.05335 0.0
C1641 C 0.56858 0.38941 0.07518 0.0
C1642 C 0.59583 0.37988 0.07183 0.0
C1643 C 0.5691 0.40871 0.09726 0.0
C1644 C 0.54816 0.36673 0.07596 0.0
C1645 C 0.52895 0.36612 0.05761 0.0
C1646 C 0.50839 0.34652 0.05443 0.0
C1647 C 0.50764 0.3269 0.07025 0.0
C1648 C 0.52733 0.327 0.089 0.0
C1649 C 0.54765 0.3474 0.09191 0.0
H1650 H 0.66878 0.17817 0.24685 0.0
H1651 H 0.71058 0.25497 0.25879 0.0
H1652 H 0.67769 0.27243 0.23186 0.0
H1653 H 0.64716 0.18182 0.1848 0.0
H1654 H 0.6155 0.16507 0.18733 0.0
H1655 H 0.64331 0.15819 0.20626 0.0
H1656 H 0.6181 0.16928 0.24311 0.0
H1657 H 0.59027 0.17626 0.2243 0.0
H1658 H 0.60485 0.20057 0.2469 0.0
H1659 H 0.63995 0.28169 0.20399 0.0
H1660 H 0.59912 0.28246 0.17845 0.0
H1661 H 0.58052 0.20019 0.18639 0.0
C1662 C 0.67111 0.19858 0.24352 0.0
C1663 C 0.69222 0.21521 0.25478 0.0
C1664 C 0.6945 0.2419 0.25035 0.0
C1665 C 0.67596 0.25198 0.23504 0.0
C1666 C 0.65513 0.23517 0.22446 0.0
C1667 C 0.65251 0.20906 0.22856 0.0
C1668 C 0.62757 0.19552 0.2159 0.0
C1669 C 0.63376 0.17387 0.19748 0.0
C1670 C 0.60911 0.18478 0.23361 0.0
C1671 C 0.61656 0.21811 0.20415 0.0
C1672 C 0.63289 0.24073 0.20909 0.0
C1673 C 0.62698 0.26409 0.20001 0.0
C1674 C 0.60374 0.26433 0.1855 0.0
C1675 C 0.5865 0.24144 0.18043 0.0
C1676 C 0.59313 0.21808 0.18999 0.0
H1677 H 0.46473 0.11547 0.01245 0.0
H1678 H 0.53733 0.07803 0.01841 0.0
H1679 H 0.55738 0.11521 0.04552 0.0
H1680 H 0.49876 0.1842 0.01603 0.0
H1681 H 0.47255 0.19721 0.03145 0.0
H1682 H 0.46579 0.16939 0.01003 0.0
H1683 H 0.44327 0.14696 0.04135 0.0
H1684 H 0.45332 0.17045 0.06606 0.0
H1685 H 0.46193 0.13708 0.06626 0.0
H1686 H 0.56963 0.15668 0.0715 0.0
H1687 H 0.57191 0.19757 0.09783 0.0
H1688 H 0.49013 0.20581 0.07829 0.0
C1689 C 0.48494 0.11532 0.0193 0.0
C1690 C 0.49954 0.09394 0.01344 0.0
C1691 C 0.52593 0.09434 0.02262 0.0
C1692 C 0.53747 0.11538 0.03794 0.0
C1693 C 0.5225 0.13606 0.04358 0.0
C1694 C 0.49693 0.13641 0.03427 0.0
C1695 C 0.4849 0.16063 0.04383 0.0
C1696 C 0.48023 0.17894 0.02416 0.0
C1697 C 0.45936 0.15346 0.05514 0.0
C1698 C 0.5068 0.17245 0.06172 0.0
C1699 C 0.5288 0.15874 0.06027 0.0
C1700 C 0.55243 0.16734 0.07312 0.0
C1701 C 0.55357 0.19048 0.08799 0.0
C1702 C 0.53094 0.20396 0.09074 0.0
C1703 C 0.50735 0.19504 0.07723 0.0
H1704 H 0.27943 0.38538 0.67608 0.0
H1705 H 0.27954 0.34891 0.74228 0.0
H1706 H 0.3139 0.38217 0.75995 0.0
H1707 H 0.34806 0.40092 0.67806 0.0
H1708 H 0.34748 0.43261 0.66679 0.0
H1709 H 0.3214 0.40757 0.65788 0.0
H1710 H 0.28593 0.43568 0.67214 0.0
H1711 H 0.31061 0.46236 0.67971 0.0
H1712 H 0.28945 0.45172 0.70163 0.0
H1713 H 0.34483 0.4209 0.77151 0.0
H1714 H 0.37559 0.46032 0.7752 0.0
H1715 H 0.35895 0.4705 0.70093 0.0
C1716 C 0.28693 0.3842 0.6942 0.0
C1717 C 0.27664 0.36463 0.70787 0.0
C1718 C 0.28679 0.36395 0.7316 0.0
C1719 C 0.30636 0.38269 0.74177 0.0
C1720 C 0.31568 0.40195 0.72796 0.0
C1721 C 0.30655 0.40278 0.70466 0.0
C1722 C 0.3201 0.42568 0.69384 0.0
C1723 C 0.33519 0.41617 0.67291 0.0
C1724 C 0.30034 0.445 0.6864 0.0
C1725 C 0.33842 0.43741 0.71472 0.0
C1726 C 0.33509 0.42356 0.73428 0.0
C1727 C 0.34816 0.4315 0.75619 0.0
C1728 C 0.36568 0.45379 0.75808 0.0
C1729 C 0.37054 0.46751 0.73809 0.0
C1730 C 0.35622 0.45969 0.71625 0.0
H1731 H 0.29652 0.67477 0.79522 0.0
H1732 H 0.27314 0.64361 0.85984 0.0
H1733 H 0.30493 0.61029 0.85565 0.0
H1734 H 0.30364 0.61419 0.76359 0.0
H1735 H 0.33187 0.62566 0.74909 0.0
H1736 H 0.30852 0.64807 0.75798 0.0
H1737 H 0.34562 0.67775 0.78218 0.0
H1738 H 0.36912 0.65541 0.77334 0.0
H1739 H 0.36617 0.66418 0.80427 0.0
H1740 H 0.33651 0.578 0.84259 0.0
H1741 H 0.36709 0.5505 0.82267 0.0
H1742 H 0.37122 0.60337 0.76722 0.0
C1743 C 0.29821 0.66103 0.80857 0.0
C1744 C 0.28234 0.66187 0.82792 0.0
C1745 C 0.28529 0.64361 0.84506 0.0
C1746 C 0.30322 0.62452 0.84276 0.0
C1747 C 0.31831 0.62405 0.82334 0.0
C1748 C 0.31619 0.64198 0.80666 0.0
C1749 C 0.3343 0.63686 0.78718 0.0
C1750 C 0.31864 0.63083 0.76304 0.0
C1751 C 0.35503 0.65992 0.78673 0.0
C1752 C 0.34656 0.61292 0.79526 0.0
C1753 C 0.33705 0.60585 0.81616 0.0
C1754 C 0.34436 0.58357 0.8264 0.0
C1755 C 0.3617 0.56804 0.81493 0.0
C1756 C 0.37176 0.57493 0.79354 0.0
C1757 C 0.36424 0.59785 0.78377 0.0
H1758 H 0.92036 0.51122 0.47228 0.0
H1759 H 0.95876 0.50902 0.54226 0.0
H1760 H 0.91994 0.48303 0.55418 0.0
H1761 H 0.8578 0.52083 0.49117 0.0
H1762 H 0.84012 0.50113 0.4667 0.0
H1763 H 0.87177 0.51722 0.46305 0.0
H1764 H 0.88889 0.47296 0.4492 0.0
H1765 H 0.85711 0.45683 0.4523 0.0
H1766 H 0.88578 0.44609 0.46751 0.0
H1767 H 0.87583 0.45753 0.55822 0.0
H1768 H 0.83161 0.43395 0.55345 0.0
H1769 H 0.82193 0.4571 0.48181 0.0
C1770 C 0.92085 0.50461 0.48988 0.0
C1771 C 0.94264 0.51157 0.50624 0.0
C1772 C 0.94229 0.50345 0.52942 0.0
C1773 C 0.92032 0.48885 0.53634 0.0
C1774 C 0.89877 0.4829 0.51996 0.0
C1775 C 0.89896 0.49049 0.49718 0.0
C1776 C 0.87302 0.48278 0.48322 0.0
C1777 C 0.85991 0.50693 0.4756 0.0
C1778 C 0.87641 0.46352 0.4618 0.0
C1779 C 0.85817 0.46967 0.50164 0.0
C1780 C 0.87326 0.46969 0.52269 0.0
C1781 C 0.86379 0.45755 0.54182 0.0
C1782 C 0.83856 0.44436 0.53903 0.0
C1783 C 0.82304 0.44368 0.51733 0.0
C1784 C 0.83295 0.45726 0.49877 0.0
H1785 H 0.77351 0.84907 0.78294 0.0
H1786 H 0.77708 0.86372 0.85933 0.0
H1787 H 0.74129 0.89255 0.85545 0.0
H1788 H 0.76465 0.91294 0.77021 0.0
H1789 H 0.74238 0.90449 0.74433 0.0
H1790 H 0.7658 0.8822 0.75303 0.0
H1791 H 0.72828 0.84588 0.75423 0.0
H1792 H 0.70468 0.86812 0.74552 0.0
H1793 H 0.70143 0.85178 0.77213 0.0
H1794 H 0.71002 0.92451 0.8435 0.0
H1795 H 0.68395 0.95624 0.82414 0.0
H1796 H 0.69877 0.92063 0.7554 0.0
C1797 C 0.76653 0.85805 0.79888 0.0
C1798 C 0.77813 0.85387 0.82149 0.0
C1799 C 0.7683 0.86607 0.84184 0.0
C1800 C 0.74799 0.88263 0.83982 0.0
C1801 C 0.73742 0.88672 0.81731 0.0
C1802 C 0.74614 0.87461 0.79718 0.0
C1803 C 0.73254 0.88372 0.77507 0.0
C1804 C 0.75254 0.8966 0.75977 0.0
C1805 C 0.71573 0.86102 0.7609 0.0
C1806 C 0.71554 0.90355 0.78594 0.0
C1807 C 0.71859 0.90479 0.81036 0.0
C1808 C 0.70696 0.92327 0.82443 0.0
C1809 C 0.6922 0.9412 0.8133 0.0
C1810 C 0.68886 0.94039 0.78837 0.0
C1811 C 0.70027 0.92101 0.7745 0.0
H1812 H 0.63052 0.53379 1.00703 0.0
H1813 H 0.63108 0.52129 0.93074 0.0
H1814 H 0.67403 0.54613 0.93255 0.0
H1815 H 0.65444 0.59439 0.01507 0.0
H1816 H 0.67851 0.59538 0.03987 0.0
H1817 H 0.65111 0.57107 0.03653 0.0
H1818 H 0.67821 0.53227 0.0359 0.0
H1819 H 0.7069 0.55479 0.04269 0.0
H1820 H 0.70539 0.53087 0.01765 0.0
H1821 H 0.7142 0.57475 0.94132 0.0
H1822 H 0.7502 0.6072 0.95686 0.0
H1823 H 0.72506 0.60306 0.02768 0.0
C1824 C 0.64011 0.53567 0.99085 0.0
C1825 C 0.62727 0.5259 0.9687 0.0
C1826 C 0.64029 0.529 0.94785 0.0
C1827 C 0.66482 0.54286 0.94869 0.0
C1828 C 0.67651 0.55308 0.97059 0.0
C1829 C 0.66498 0.54931 0.9914 0.0
C1830 C 0.68156 0.56375 0.01235 0.0
C1831 C 0.66552 0.58231 0.02679 0.0
C1832 C 0.69374 0.54426 0.02807 0.0
C1833 C 0.70259 0.57823 0.99966 0.0
C1834 C 0.69975 0.57074 0.97569 0.0
C1835 C 0.7167 0.58079 0.96004 0.0
C1836 C 0.73691 0.59937 0.96898 0.0
C1837 C 0.7397 0.60824 0.99322 0.0
C1838 C 0.72286 0.59696 0.00895 0.0
H1839 H 0.2835 0.62567 0.19662 0.0
H1840 H 0.29914 0.66839 0.26568 0.0
H1841 H 0.26633 0.63882 0.28182 0.0
H1842 H 0.21632 0.61539 0.19783 0.0
H1843 H 0.21159 0.58215 0.18486 0.0
H1844 H 0.23862 0.60355 0.17743 0.0
H1845 H 0.27289 0.57336 0.19047 0.0
H1846 H 0.2468 0.5499 0.19633 0.0
H1847 H 0.27239 0.5608 0.2191 0.0
H1848 H 0.2328 0.60495 0.29088 0.0
H1849 H 0.19717 0.57021 0.29169 0.0
H1850 H 0.20065 0.55015 0.21665 0.0
C1851 C 0.28005 0.62867 0.21514 0.0
C1852 C 0.29415 0.64913 0.22997 0.0
C1853 C 0.28905 0.65251 0.25412 0.0
C1854 C 0.27037 0.63589 0.26344 0.0
C1855 C 0.25695 0.6159 0.24844 0.0
C1856 C 0.26148 0.61211 0.22483 0.0
C1857 C 0.24376 0.58935 0.21259 0.0
C1858 C 0.22651 0.59811 0.19198 0.0
C1859 C 0.25993 0.56703 0.20413 0.0
C1860 C 0.22787 0.58173 0.23284 0.0
C1861 C 0.23635 0.59698 0.25344 0.0
C1862 C 0.2257 0.59313 0.27481 0.0
C1863 C 0.20538 0.57353 0.27507 0.0
C1864 C 0.19551 0.55848 0.25405 0.0
C1865 C 0.20739 0.56205 0.23278 0.0
H1866 H 0.94341 0.54505 0.06558 0.0
H1867 H 0.97754 0.53664 0.99796 0.0
H1868 H 0.94507 0.56376 0.98095 0.0
H1869 H 0.87737 0.54437 0.04426 0.0
H1870 H 0.86907 0.5695 0.06561 0.0
H1871 H 0.89518 0.54948 0.07293 0.0
H1872 H 0.92729 0.59078 0.08286 0.0
H1873 H 0.9012 0.61096 0.07583 0.0
H1874 H 0.9311 0.61415 0.06117 0.0
H1875 H 0.90588 0.5881 0.96992 0.0
H1876 H 0.867 0.61375 0.96764 0.0
H1877 H 0.8618 0.61124 0.0431 0.0
C1878 C 0.94448 0.54926 0.04733 0.0
C1879 C 0.9628 0.53788 0.03307 0.0
C1880 C 0.96321 0.5441 0.0092 0.0
C1881 C 0.94493 0.55976 0.99932 0.0
C1882 C 0.92665 0.56985 0.01362 0.0
C1883 C 0.9267 0.56543 0.03726 0.0
C1884 C 0.90522 0.57917 0.04881 0.0
C1885 C 0.88555 0.55945 0.05847 0.0
C1886 C 0.9169 0.6 0.06832 0.0
C1887 C 0.89289 0.59153 0.02787 0.0
C1888 C 0.90533 0.58562 0.00764 0.0
C1889 C 0.8963 0.59331 0.98573 0.0
C1890 C 0.87418 0.60773 0.98455 0.0
C1891 C 0.86176 0.61475 1.00521 0.0
C1892 C 0.87131 0.60656 0.02711 0.0
H1893 H 0.12286 0.99111 0.07221 0.0
H1894 H 0.08248 1.00218 1.00445 0.0
H1895 H 0.11438 0.97758 0.98404 0.0
H1896 H 0.18813 0.99562 0.05394 0.0
H1897 H 0.19921 0.96996 0.0709 0.0
H1898 H 0.17331 0.98873 0.08078 0.0
H1899 H 0.14309 0.94627 0.08155 0.0
H1900 H 0.16897 0.92736 0.07181 0.0
H1901 H 0.13745 0.92398 0.05531 0.0
H1902 H 0.15157 0.95416 0.97039 0.0
H1903 H 0.18979 0.9291 0.96447 0.0
H1904 H 0.20499 0.92931 0.04055 0.0
C1905 C 0.12058 0.98816 0.05311 0.0
C1906 C 0.10039 0.99933 0.04002 0.0
C1907 C 0.09819 0.99477 0.01499 0.0
C1908 C 0.11613 0.98057 1.00314 0.0
C1909 C 0.13606 0.97045 0.01645 0.0
C1910 C 0.13823 0.97361 0.04087 0.0
C1911 C 0.16137 0.96005 0.05072 0.0
C1912 C 0.18171 0.97977 0.06492 0.0
C1913 C 0.15216 0.93811 0.06574 0.0
C1914 C 0.17186 0.9491 0.02799 0.0
C1915 C 0.15701 0.95559 0.00848 0.0
C1916 C 0.16321 0.94867 0.98552 0.0
C1917 C 0.18506 0.93448 0.98234 0.0
C1918 C 0.20034 0.92697 1.00199 0.0
C1919 C 0.19355 0.93446 0.02514 0.0
loop_
_geom_bond_atom_site_label_1
_geom_bond_atom_site_label_2
_geom_bond_distance
_geom_bond_site_symmetry_2
_ccdc_geom_bond_type
H0 C5 0.930 . S
H1 C8 0.930 . S
H2 C10 0.930 . S
H3 C4 1.016 . S
C4 H3 1.016 . S
C4 N11 1.286 1_556 S
C5 H0 0.930 . S
C5 C6 1.397 . S
C5 C7 1.361 . S
C6 C5 1.397 . S
C6 C10 1.390 . S
C7 C5 1.361 . S
C7 C8 1.393 . S
C7 N11 1.413 . S
C8 H1 0.930 . S
C8 C7 1.393 . S
C8 C9 1.399 . S
C9 C8 1.399 . S
C9 C10 1.381 . S
C10 H2 0.930 . S
C10 C6 1.390 . S
C10 C9 1.381 . S
N11 C4 1.286 1_554 S
N11 C7 1.413 . S
H12 C17 0.930 . S
H13 C20 0.930 . S
H14 C22 0.930 . S
H15 C16 1.016 . S
C16 H15 1.016 . S
C16 N23 1.286 . S
C17 H12 0.930 . S
C17 C18 1.397 . S
C17 C19 1.361 . S
C18 C17 1.397 . S
C18 C22 1.390 . S
C19 C17 1.361 . S
C19 C20 1.393 . S
C19 N23 1.413 . S
C20 H13 0.930 . S
C20 C19 1.393 . S
C20 C21 1.399 . S
C21 C20 1.399 . S
C21 C22 1.381 . S
C22 H14 0.930 . S
C22 C18 1.390 . S
C22 C21 1.381 . S
N23 C16 1.286 . S
N23 C19 1.413 . S
H24 C29 0.930 . S
H25 C32 0.930 1_455 S
H26 C34 0.930 . S
H27 C28 1.023 1_455 S
C28 H27 1.023 1_655 S
C28 N35 1.290 . S
C29 H24 0.930 . S
C29 C30 1.397 . S
C29 C31 1.361 . S
C30 C29 1.397 . S
C30 C34 1.390 . S
C31 C29 1.361 . S
C31 C32 1.393 . S
C31 N35 1.413 . S
C32 H25 0.930 1_655 S
C32 C31 1.393 . S
C32 C33 1.399 . S
C33 C32 1.399 . S
C33 C34 1.381 . S
C34 H26 0.930 . S
C34 C30 1.390 . S
C34 C33 1.381 . S
N35 C28 1.290 . S
N35 C31 1.413 . S
H36 C41 0.930 . S
H37 C44 0.930 . S
H38 C46 0.930 . S
H39 C40 1.016 . S
C40 H39 1.016 . S
C40 N47 1.286 . S
C41 H36 0.930 . S
C41 C42 1.397 . S
C41 C43 1.361 . S
C42 C41 1.397 . S
C42 C46 1.390 . S
C43 C41 1.361 . S
C43 C44 1.393 . S
C43 N47 1.413 . S
C44 H37 0.930 . S
C44 C43 1.393 . S
C44 C45 1.399 . S
C45 C44 1.399 . S
C45 C46 1.381 . S
C46 H38 0.930 . S
C46 C42 1.390 . S
C46 C45 1.381 . S
N47 C40 1.286 . S
N47 C43 1.413 . S
H48 C53 0.930 . S
H49 C56 0.930 . S
H50 C58 0.930 . S
H51 C52 1.016 . S
C52 H51 1.016 . S
C52 N59 1.286 . S
C53 H48 0.930 . S
C53 C54 1.397 . S
C53 C55 1.361 . S
C54 C53 1.397 . S
C54 C58 1.390 1_565 S
C55 C53 1.361 . S
C55 C56 1.393 . S
C55 N59 1.413 . S
C56 H49 0.930 . S
C56 C55 1.393 . S
C56 C57 1.399 1_565 S
C57 C56 1.399 1_545 S
C57 C58 1.381 . S
C58 H50 0.930 . S
C58 C54 1.390 1_545 S
C58 C57 1.381 . S
N59 C52 1.286 . S
N59 C55 1.413 . S
H60 C65 0.930 . S
H61 C68 0.930 . S
H62 C70 0.930 . S
H63 C64 1.016 . S
C64 H63 1.016 . S
C64 N71 1.286 . S
C65 H60 0.930 . S
C65 C66 1.397 . S
C65 C67 1.361 . S
C66 C65 1.397 . S
C66 C70 1.390 . S
C67 C65 1.361 . S
C67 C68 1.393 . S
C67 N71 1.413 . S
C68 H61 0.930 . S
C68 C67 1.393 . S
C68 C69 1.399 . S
C69 C68 1.399 . S
C69 C70 1.381 . S
C70 H62 0.930 . S
C70 C66 1.390 . S
C70 C69 1.381 . S
N71 C64 1.286 . S
N71 C67 1.413 . S
H72 C77 0.930 . S
H73 C80 0.930 . S
H74 C82 0.930 . S
H75 C76 1.016 . S
C76 H75 1.016 . S
C76 N83 1.286 . S
C77 H72 0.930 . S
C77 C78 1.397 1_455 S
C77 C79 1.363 . S
C78 C77 1.397 1_655 S
C78 C82 1.390 . S
C79 C77 1.363 . S
C79 C80 1.373 1_455 S
C79 N83 1.432 . S
C80 H73 0.930 . S
C80 C79 1.373 1_655 S
C80 C81 1.399 . S
C81 C80 1.399 . S
C81 C82 1.381 . S
C82 H74 0.930 . S
C82 C78 1.390 . S
C82 C81 1.381 . S
N83 C76 1.286 . S
N83 C79 1.432 . S
H84 C89 0.930 . S
H85 C92 0.930 . S
H86 C94 0.930 . S
H87 C88 1.016 . S
C88 H87 1.016 . S
C88 N95 1.286 . S
C89 H84 0.930 . S
C89 C90 1.397 . S
C89 C91 1.361 . S
C90 C89 1.397 . S
C90 C94 1.390 . S
C91 C89 1.361 . S
C91 C92 1.393 . S
C91 N95 1.413 . S
C92 H85 0.930 . S
C92 C91 1.393 . S
C92 C93 1.399 . S
C93 C92 1.399 . S
C93 C94 1.381 . S
C94 H86 0.930 . S
C94 C90 1.390 . S
C94 C93 1.381 . S
N95 C88 1.286 . S
N95 C91 1.413 . S
H96 C101 0.930 . S
H97 C104 0.930 . S
H98 C106 0.930 . S
H99 C100 1.016 . S
C100 H99 1.016 . S
C100 N107 1.286 . S
C101 H96 0.930 . S
C101 C102 1.397 . S
C101 C103 1.361 . S
C102 C101 1.397 . S
C102 C106 1.390 . S
C103 C101 1.361 . S
C103 C104 1.393 . S
C103 N107 1.413 . S
C104 H97 0.930 . S
C104 C103 1.393 . S
C104 C105 1.399 . S
C105 C104 1.399 . S
C105 C106 1.381 . S
C106 H98 0.930 . S
C106 C102 1.390 . S
C106 C105 1.381 . S
N107 C100 1.286 . S
N107 C103 1.413 . S
H108 C113 0.930 . S
H109 C116 0.930 . S
H110 C118 0.930 . S
H111 C112 1.016 . S
C112 H111 1.016 . S
C112 N119 1.286 . S
C113 H108 0.930 . S
C113 C114 1.397 1_565 S
C113 C115 1.361 . S
C114 C113 1.397 1_545 S
C114 C118 1.390 . S
C115 C113 1.361 . S
C115 C116 1.393 . S
C115 N119 1.413 . S
C116 H109 0.930 . S
C116 C115 1.393 . S
C116 C117 1.399 . S
C117 C116 1.399 . S
C117 C118 1.381 1_565 S
C118 H110 0.930 . S
C118 C114 1.390 . S
C118 C117 1.381 1_545 S
N119 C112 1.286 . S
N119 C115 1.413 . S
H120 C125 0.930 . S
H121 C128 0.930 . S
H122 C130 0.930 . S
H123 C124 1.016 . S
C124 H123 1.016 . S
C124 N131 1.286 . S
C125 H120 0.930 . S
C125 C126 1.397 . S
C125 C127 1.361 . S
C126 C125 1.397 . S
C126 C130 1.390 . S
C127 C125 1.361 . S
C127 C128 1.393 . S
C127 N131 1.413 . S
C128 H121 0.930 . S
C128 C127 1.393 . S
C128 C129 1.399 . S
C129 C128 1.399 . S
C129 C130 1.381 . S
C130 H122 0.930 . S
C130 C126 1.390 . S
C130 C129 1.381 . S
N131 C124 1.286 . S
N131 C127 1.413 . S
H132 C137 0.930 . S
H133 C140 0.930 . S
H134 C142 0.930 . S
H135 C136 1.016 . S
C136 H135 1.016 . S
C136 N143 1.286 . S
C137 H132 0.930 . S
C137 C138 1.397 . S
C137 C139 1.361 . S
C138 C137 1.397 . S
C138 C142 1.390 . S
C139 C137 1.361 . S
C139 C140 1.393 . S
C139 N143 1.413 . S
C140 H133 0.930 . S
C140 C139 1.393 . S
C140 C141 1.399 . S
C141 C140 1.399 . S
C141 C142 1.381 . S
C142 H134 0.930 . S
C142 C138 1.390 . S
C142 C141 1.381 . S
N143 C136 1.286 . S
N143 C139 1.413 . S
H144 C149 0.930 . S
H145 C152 0.930 . S
H146 C154 0.930 . S
H147 C148 1.016 . S
C148 H147 1.016 . S
C148 N155 1.286 . S
C149 H144 0.930 . S
C149 C150 1.397 . S
C149 C151 1.361 . S
C150 C149 1.397 . S
C150 C154 1.390 . S
C151 C149 1.361 . S
C151 C152 1.393 . S
C151 N155 1.413 . S
C152 H145 0.930 . S
C152 C151 1.393 . S
C152 C153 1.399 . S
C153 C152 1.399 . S
C153 C154 1.381 . S
C154 H146 0.930 . S
C154 C150 1.390 . S
C154 C153 1.381 . S
N155 C148 1.286 . S
N155 C151 1.413 . S
H156 C161 0.930 . S
H157 C164 0.920 1_554 S
H158 C166 0.930 . S
H159 C160 1.016 . S
C160 H159 1.016 . S
C160 N167 1.286 1_554 S
C161 H156 0.930 . S
C161 C162 1.397 . S
C161 C163 1.361 . S
C162 C161 1.397 . S
C162 C166 1.390 . S
C163 C161 1.361 . S
C163 C164 1.393 . S
C163 N167 1.413 . S
C164 H157 0.920 1_556 S
C164 C163 1.393 . S
C164 C165 1.399 . S
C165 C164 1.399 . S
C165 C166 1.381 . S
C166 H158 0.930 . S
C166 C162 1.390 . S
C166 C165 1.381 . S
N167 C160 1.286 1_556 S
N167 C163 1.413 . S
H168 C173 0.930 . S
H169 C176 0.930 . S
H170 C178 0.930 . S
H171 C172 1.016 . S
C172 H171 1.016 . S
C172 N179 1.286 . S
C173 H168 0.930 . S
C173 C174 1.397 . S
C173 C175 1.361 . S
C174 C173 1.397 . S
C174 C178 1.390 . S
C175 C173 1.361 . S
C175 C176 1.393 . S
C175 N179 1.413 . S
C176 H169 0.930 . S
C176 C175 1.393 . S
C176 C177 1.399 . S
C177 C176 1.399 . S
C177 C178 1.381 . S
C178 H170 0.930 . S
C178 C174 1.390 . S
C178 C177 1.381 . S
N179 C172 1.286 . S
N179 C175 1.413 . S
H180 C185 0.930 . S
H181 C188 0.930 . S
H182 C190 0.930 1_554 S
H183 C184 1.016 . S
C184 H183 1.016 . S
C184 N191 1.286 . S
C185 H180 0.930 . S
C185 C186 1.397 . S
C185 C187 1.361 . S
C186 C185 1.397 . S
C186 C190 1.390 . S
C187 C185 1.361 . S
C187 C188 1.393 . S
C187 N191 1.413 . S
C188 H181 0.930 . S
C188 C187 1.393 . S
C188 C189 1.399 . S
C189 C188 1.399 . S
C189 C190 1.381 . S
C190 H182 0.930 1_556 S
C190 C186 1.390 . S
C190 C189 1.381 . S
N191 C184 1.286 . S
N191 C187 1.413 . S
Mn192 O197 2.095 . S
Mn192 O207 2.162 . S
Mn192 O208 2.297 . S
Mn192 O216 2.385 . S
Mn192 O217 2.209 1_554 S
Mn192 O218 2.094 . S
Mn193 O198 2.121 . S
Mn193 N200 2.257 . S
Mn193 N209 2.282 . S
Mn193 O217 2.215 . S
Mn193 O219 2.117 . S
C194 O216 1.234 1_556 S
C194 O217 1.283 . S
C195 O207 1.281 . S
C195 O208 1.236 . S
C196 O218 1.240 . S
C196 O219 1.264 1_554 S
O197 Mn192 2.095 . S
O197 C206 1.250 . S
O198 Mn193 2.121 . S
O198 C206 1.258 1_556 S
C199 N200 1.326 . S
C199 C203 1.460 . S
C199 H205 0.929 . S
N200 Mn193 2.257 . S
N200 C199 1.326 . S
N200 C204 1.362 . S
C201 C202 1.258 . S
C201 C204 1.431 . S
C201 C221 1.449 . S
C202 C201 1.258 . S
C202 C203 1.477 . S
C202 H222 0.931 . S
C203 C199 1.460 . S
C203 C202 1.477 . S
C203 H223 0.930 . S
C204 N200 1.362 . S
C204 C201 1.431 . S
C204 C214 1.476 . S
H205 C199 0.929 . S
C206 O197 1.250 . S
C206 O198 1.258 1_554 S
O207 Mn192 2.162 . S
O207 C195 1.281 . S
O208 Mn192 2.297 . S
O208 C195 1.236 . S
N209 Mn193 2.282 . S
N209 C210 1.328 . S
N209 C214 1.318 . S
C210 N209 1.328 . S
C210 C211 1.457 . S
C210 H215 0.929 . S
C211 C210 1.457 . S
C211 C212 1.291 . S
C211 H224 0.931 . S
C212 C211 1.291 . S
C212 C213 1.373 . S
C212 H225 0.929 . S
C213 C212 1.373 . S
C213 C214 1.396 . S
C213 C220 1.403 . S
C214 C204 1.476 . S
C214 N209 1.318 . S
C214 C213 1.396 . S
H215 C210 0.929 . S
O216 Mn192 2.385 . S
O216 C194 1.234 1_554 S
O217 Mn192 2.209 1_556 S
O217 Mn193 2.215 . S
O217 C194 1.283 . S
O218 Mn192 2.094 . S
O218 C196 1.240 . S
O219 Mn193 2.117 . S
O219 C196 1.264 1_556 S
C220 C213 1.403 . S
C220 C221 1.399 . S
C220 H226 0.929 . S
C221 C201 1.449 . S
C221 C220 1.399 . S
C221 H227 0.930 . S
H222 C202 0.931 . S
H223 C203 0.930 . S
H224 C211 0.931 . S
H225 C212 0.929 . S
H226 C220 0.929 . S
H227 C221 0.930 . S
Mn228 O233 2.095 . S
Mn228 O243 2.162 . S
Mn228 O244 2.297 . S
Mn228 O252 2.385 . S
Mn228 O253 2.209 . S
Mn228 O254 2.094 . S
Mn229 O234 2.121 . S
Mn229 N236 2.257 . S
Mn229 N245 2.282 . S
Mn229 O253 2.215 . S
Mn229 O255 2.117 . S
C230 O252 1.234 . S
C230 O253 1.283 . S
C231 O243 1.281 . S
C231 O244 1.236 . S
C232 O254 1.240 . S
C232 O255 1.264 . S
O233 Mn228 2.095 . S
O233 C242 1.250 . S
O234 Mn229 2.121 . S
O234 C242 1.258 . S
C235 N236 1.326 . S
C235 C239 1.460 . S
C235 H241 0.929 . S
N236 Mn229 2.257 . S
N236 C235 1.326 . S
N236 C240 1.362 . S
C237 C238 1.258 . S
C237 C240 1.431 . S
C237 C257 1.449 . S
C238 C237 1.258 . S
C238 C239 1.477 . S
C238 H258 0.931 . S
C239 C235 1.460 . S
C239 C238 1.477 . S
C239 H259 0.930 . S
C240 N236 1.362 . S
C240 C237 1.431 . S
C240 C250 1.476 . S
H241 C235 0.929 . S
C242 O233 1.250 . S
C242 O234 1.258 . S
O243 Mn228 2.162 . S
O243 C231 1.281 . S
O244 Mn228 2.297 . S
O244 C231 1.236 . S
N245 Mn229 2.282 . S
N245 C246 1.328 . S
N245 C250 1.318 . S
C246 N245 1.328 . S
C246 C247 1.457 . S
C246 H251 0.929 . S
C247 C246 1.457 . S
C247 C248 1.291 . S
C247 H260 0.931 . S
C248 C247 1.291 . S
C248 C249 1.373 . S
C248 H261 0.929 . S
C249 C248 1.373 . S
C249 C250 1.396 . S
C249 C256 1.403 . S
C250 C240 1.476 . S
C250 N245 1.318 . S
C250 C249 1.396 . S
H251 C246 0.929 . S
O252 Mn228 2.385 . S
O252 C230 1.234 . S
O253 Mn228 2.209 . S
O253 Mn229 2.215 . S
O253 C230 1.283 . S
O254 Mn228 2.094 . S
O254 C232 1.240 . S
O255 Mn229 2.117 . S
O255 C232 1.264 . S
C256 C249 1.403 . S
C256 C257 1.399 . S
C256 H262 0.929 . S
C257 C237 1.449 . S
C257 C256 1.399 . S
C257 H263 0.930 . S
H258 C238 0.931 . S
H259 C239 0.930 . S
H260 C247 0.931 . S
H261 C248 0.929 . S
H262 C256 0.929 . S
H263 C257 0.930 . S
Mn264 O269 2.095 1_554 S
Mn264 O279 2.162 . S
Mn264 O280 2.297 1_554 S
Mn264 O288 2.385 . S
Mn264 O289 2.209 1_554 S
Mn264 O290 2.094 . S
Mn265 O270 2.121 . S
Mn265 N272 2.257 . S
Mn265 N281 2.272 1_556 S
Mn265 O289 2.215 . S
Mn265 O291 2.117 1_556 S
C266 O288 1.234 . S
C266 O289 1.283 1_554 S
C267 O279 1.281 . S
C267 O280 1.236 1_554 S
C268 O290 1.240 . S
C268 O291 1.264 . S
O269 Mn264 2.095 1_556 S
O269 C278 1.250 . S
O270 Mn265 2.121 . S
O270 C278 1.258 . S
C271 N272 1.326 . S
C271 C275 1.460 . S
C271 H277 0.929 . S
N272 Mn265 2.257 . S
N272 C271 1.326 . S
N272 C276 1.362 . S
C273 C274 1.258 . S
C273 C276 1.431 . S
C273 C293 1.449 . S
C274 C273 1.258 . S
C274 C275 1.477 . S
C274 H294 0.931 . S
C275 C271 1.460 . S
C275 C274 1.477 . S
C275 H295 0.930 . S
C276 N272 1.362 . S
C276 C273 1.431 . S
C276 C286 1.476 . S
H277 C271 0.929 . S
C278 O269 1.250 . S
C278 O270 1.258 . S
O279 Mn264 2.162 . S
O279 C267 1.281 . S
O280 Mn264 2.297 1_556 S
O280 C267 1.236 1_556 S
N281 Mn265 2.272 1_554 S
N281 C282 1.350 . S
N281 C286 1.304 1_554 S
C282 N281 1.350 . S
C282 C283 1.457 . S
C282 H287 0.929 . S
C283 C282 1.457 . S
C283 C284 1.291 . S
C283 H296 0.931 . S
C284 C283 1.291 . S
C284 C285 1.373 1_554 S
C284 H297 0.929 . S
C285 C284 1.373 1_556 S
C285 C286 1.396 . S
C285 C292 1.403 . S
C286 C276 1.476 . S
C286 N281 1.304 1_556 S
C286 C285 1.396 . S
H287 C282 0.929 . S
O288 Mn264 2.385 . S
O288 C266 1.234 . S
O289 Mn264 2.209 1_556 S
O289 Mn265 2.215 . S
O289 C266 1.283 1_556 S
O290 Mn264 2.094 . S
O290 C268 1.240 . S
O291 Mn265 2.117 1_554 S
O291 C268 1.264 . S
C292 C285 1.403 . S
C292 C293 1.399 . S
C292 H298 0.929 . S
C293 C273 1.449 . S
C293 C292 1.399 . S
C293 H299 0.930 . S
H294 C274 0.931 . S
H295 C275 0.930 . S
H296 C283 0.931 . S
H297 C284 0.929 . S
H298 C292 0.929 . S
H299 C293 0.930 . S
Mn300 O305 2.095 . S
Mn300 O315 2.162 . S
Mn300 O316 2.297 . S
Mn300 O324 2.385 . S
Mn300 O325 2.209 1_545 S
Mn300 O326 2.094 . S
Mn301 O306 2.121 . S
Mn301 N308 2.257 . S
Mn301 N317 2.282 . S
Mn301 O325 2.215 . S
Mn301 O327 2.117 1_565 S
C302 O324 1.234 1_565 S
C302 O325 1.283 . S
C303 O315 1.281 . S
C303 O316 1.236 . S
C304 O326 1.240 . S
C304 O327 1.264 . S
O305 Mn300 2.095 . S
O305 C314 1.250 . S
O306 Mn301 2.121 . S
O306 C314 1.258 1_565 S
C307 N308 1.326 . S
C307 C311 1.460 . S
C307 H313 0.929 . S
N308 Mn301 2.257 . S
N308 C307 1.326 . S
N308 C312 1.362 . S
C309 C310 1.258 . S
C309 C312 1.431 . S
C309 C329 1.449 . S
C310 C309 1.258 . S
C310 C311 1.477 . S
C310 H330 0.931 . S
C311 C307 1.460 . S
C311 C310 1.477 . S
C311 H331 0.930 . S
C312 N308 1.362 . S
C312 C309 1.431 . S
C312 C322 1.476 . S
H313 C307 0.929 . S
C314 O305 1.250 . S
C314 O306 1.258 1_545 S
O315 Mn300 2.162 . S
O315 C303 1.281 . S
O316 Mn300 2.297 . S
O316 C303 1.236 . S
N317 Mn301 2.282 . S
N317 C318 1.328 . S
N317 C322 1.318 . S
C318 N317 1.328 . S
C318 C319 1.457 . S
C318 H323 0.929 . S
C319 C318 1.457 . S
C319 C320 1.291 . S
C319 H332 0.931 . S
C320 C319 1.291 . S
C320 C321 1.373 . S
C320 H333 0.929 . S
C321 C320 1.373 . S
C321 C322 1.396 . S
C321 C328 1.403 . S
C322 C312 1.476 . S
C322 N317 1.318 . S
C322 C321 1.396 . S
H323 C318 0.929 . S
O324 Mn300 2.385 . S
O324 C302 1.234 1_545 S
O325 Mn300 2.209 1_565 S
O325 Mn301 2.215 . S
O325 C302 1.283 . S
O326 Mn300 2.094 . S
O326 C304 1.240 . S
O327 Mn301 2.117 1_545 S
O327 C304 1.264 . S
C328 C321 1.403 . S
C328 C329 1.399 . S
C328 H334 0.929 . S
C329 C309 1.449 . S
C329 C328 1.399 . S
C329 H335 0.930 . S
H330 C310 0.931 . S
H331 C311 0.930 . S
H332 C319 0.931 . S
H333 C320 0.929 . S
H334 C328 0.929 . S
H335 C329 0.930 . S
Mn336 O341 2.095 . S
Mn336 O351 2.162 . S
Mn336 O352 2.297 . S
Mn336 O360 2.385 . S
Mn336 O361 2.209 . S
Mn336 O362 2.094 . S
Mn337 O342 2.121 . S
Mn337 N344 2.257 . S
Mn337 N353 2.282 . S
Mn337 O361 2.215 . S
Mn337 O363 2.117 . S
C338 O360 1.234 . S
C338 O361 1.283 . S
C339 O351 1.281 . S
C339 O352 1.236 . S
C340 O362 1.240 . S
C340 O363 1.264 . S
O341 Mn336 2.095 . S
O341 C350 1.250 . S
O342 Mn337 2.121 . S
O342 C350 1.258 . S
C343 N344 1.326 . S
C343 C347 1.460 . S
C343 H349 0.929 . S
N344 Mn337 2.257 . S
N344 C343 1.326 . S
N344 C348 1.362 . S
C345 C346 1.258 . S
C345 C348 1.431 . S
C345 C365 1.449 . S
C346 C345 1.258 . S
C346 C347 1.477 . S
C346 H366 0.931 . S
C347 C343 1.460 . S
C347 C346 1.477 . S
C347 H367 0.930 . S
C348 N344 1.362 . S
C348 C345 1.431 . S
C348 C358 1.476 . S
H349 C343 0.929 . S
C350 O341 1.250 . S
C350 O342 1.258 . S
O351 Mn336 2.162 . S
O351 C339 1.281 . S
O352 Mn336 2.297 . S
O352 C339 1.236 . S
N353 Mn337 2.282 . S
N353 C354 1.328 . S
N353 C358 1.318 . S
C354 N353 1.328 . S
C354 C355 1.457 . S
C354 H359 0.929 . S
C355 C354 1.457 . S
C355 C356 1.291 . S
C355 H368 0.931 . S
C356 C355 1.291 . S
C356 C357 1.373 . S
C356 H369 0.929 . S
C357 C356 1.373 . S
C357 C358 1.396 . S
C357 C364 1.403 . S
C358 C348 1.476 . S
C358 N353 1.318 . S
C358 C357 1.396 . S
H359 C354 0.929 . S
O360 Mn336 2.385 . S
O360 C338 1.234 . S
O361 Mn336 2.209 . S
O361 Mn337 2.215 . S
O361 C338 1.283 . S
O362 Mn336 2.094 . S
O362 C340 1.240 . S
O363 Mn337 2.117 . S
O363 C340 1.264 . S
C364 C357 1.403 . S
C364 C365 1.399 . S
C364 H370 0.929 . S
C365 C345 1.449 . S
C365 C364 1.399 . S
C365 H371 0.930 . S
H366 C346 0.931 . S
H367 C347 0.930 . S
H368 C355 0.931 . S
H369 C356 0.929 . S
H370 C364 0.929 . S
H371 C365 0.930 . S
Mn372 O377 2.095 . S
Mn372 O387 2.162 . S
Mn372 O388 2.297 . S
Mn372 O396 2.385 . S
Mn372 O397 2.209 . S
Mn372 O398 2.094 . S
Mn373 O378 2.121 . S
Mn373 N380 2.257 . S
Mn373 N389 2.282 . S
Mn373 O397 2.215 . S
Mn373 O399 2.117 . S
C374 O396 1.234 . S
C374 O397 1.283 . S
C375 O387 1.281 . S
C375 O388 1.236 . S
C376 O398 1.240 . S
C376 O399 1.264 . S
O377 Mn372 2.095 . S
O377 C386 1.250 . S
O378 Mn373 2.121 . S
O378 C386 1.258 . S
C379 N380 1.326 . S
C379 C383 1.460 . S
C379 H385 0.929 . S
N380 Mn373 2.257 . S
N380 C379 1.326 . S
N380 C384 1.362 . S
C381 C382 1.258 . S
C381 C384 1.431 . S
C381 C401 1.449 . S
C382 C381 1.258 . S
C382 C383 1.477 . S
C382 H402 0.931 . S
C383 C379 1.460 . S
C383 C382 1.477 . S
C383 H403 0.930 . S
C384 N380 1.362 . S
C384 C381 1.431 . S
C384 C394 1.476 . S
H385 C379 0.929 . S
C386 O377 1.250 . S
C386 O378 1.258 . S
O387 Mn372 2.162 . S
O387 C375 1.281 . S
O388 Mn372 2.297 . S
O388 C375 1.236 . S
N389 Mn373 2.282 . S
N389 C390 1.328 . S
N389 C394 1.318 . S
C390 N389 1.328 . S
C390 C391 1.457 . S
C390 H395 0.929 . S
C391 C390 1.457 . S
C391 C392 1.291 . S
C391 H404 0.931 . S
C392 C391 1.291 . S
C392 C393 1.373 . S
C392 H405 0.929 . S
C393 C392 1.373 . S
C393 C394 1.396 . S
C393 C400 1.403 . S
C394 C384 1.476 . S
C394 N389 1.318 . S
C394 C393 1.396 . S
H395 C390 0.929 . S
O396 Mn372 2.385 . S
O396 C374 1.234 . S
O397 Mn372 2.209 . S
O397 Mn373 2.215 . S
O397 C374 1.283 . S
O398 Mn372 2.094 . S
O398 C376 1.240 . S
O399 Mn373 2.117 . S
O399 C376 1.264 . S
C400 C393 1.403 . S
C400 C401 1.399 . S
C400 H406 0.929 . S
C401 C381 1.449 . S
C401 C400 1.399 . S
C401 H407 0.930 . S
H402 C382 0.931 . S
H403 C383 0.930 . S
H404 C391 0.931 . S
H405 C392 0.929 . S
H406 C400 0.929 . S
H407 C401 0.930 . S
Mn408 O413 2.095 . S
Mn408 O423 2.162 . S
Mn408 O424 2.297 . S
Mn408 O432 2.385 . S
Mn408 O433 2.209 . S
Mn408 O434 2.094 . S
Mn409 O414 2.121 . S
Mn409 N416 2.257 . S
Mn409 N425 2.282 . S
Mn409 O433 2.215 . S
Mn409 O435 2.117 . S
C410 O432 1.234 . S
C410 O433 1.283 . S
C411 O423 1.281 . S
C411 O424 1.236 . S
C412 O434 1.240 . S
C412 O435 1.264 . S
O413 Mn408 2.095 . S
O413 C422 1.250 . S
O414 Mn409 2.121 . S
O414 C422 1.258 . S
C415 N416 1.326 . S
C415 C419 1.460 . S
C415 H421 0.929 . S
N416 Mn409 2.257 . S
N416 C415 1.326 . S
N416 C420 1.362 . S
C417 C418 1.258 . S
C417 C420 1.431 . S
C417 C437 1.449 . S
C418 C417 1.258 . S
C418 C419 1.477 . S
C418 H438 0.931 . S
C419 C415 1.460 . S
C419 C418 1.477 . S
C419 H439 0.930 . S
C420 N416 1.362 . S
C420 C417 1.431 . S
C420 C430 1.476 . S
H421 C415 0.929 . S
C422 O413 1.250 . S
C422 O414 1.258 . S
O423 Mn408 2.162 . S
O423 C411 1.281 . S
O424 Mn408 2.297 . S
O424 C411 1.236 . S
N425 Mn409 2.282 . S
N425 C426 1.328 . S
N425 C430 1.318 . S
C426 N425 1.328 . S
C426 C427 1.457 . S
C426 H431 0.929 . S
C427 C426 1.457 . S
C427 C428 1.291 . S
C427 H440 0.931 . S
C428 C427 1.291 . S
C428 C429 1.373 . S
C428 H441 0.929 . S
C429 C428 1.373 . S
C429 C430 1.396 . S
C429 C436 1.403 . S
C430 C420 1.476 . S
C430 N425 1.318 . S
C430 C429 1.396 . S
H431 C426 0.929 . S
O432 Mn408 2.385 . S
O432 C410 1.234 . S
O433 Mn408 2.209 . S
O433 Mn409 2.215 . S
O433 C410 1.283 . S
O434 Mn408 2.094 . S
O434 C412 1.240 . S
O435 Mn409 2.117 . S
O435 C412 1.264 . S
C436 C429 1.403 . S
C436 C437 1.399 . S
C436 H442 0.929 . S
C437 C417 1.449 . S
C437 C436 1.399 . S
C437 H443 0.930 . S
H438 C418 0.931 . S
H439 C419 0.930 . S
H440 C427 0.931 . S
H441 C428 0.929 . S
H442 C436 0.929 . S
H443 C437 0.930 . S
Mn444 O449 2.095 . S
Mn444 O459 2.162 . S
Mn444 O460 2.297 . S
Mn444 O468 2.385 1_565 S
Mn444 O469 2.209 1_565 S
Mn444 O470 2.094 . S
Mn445 O450 2.121 . S
Mn445 N452 2.257 . S
Mn445 N461 2.282 . S
Mn445 O469 2.215 . S
Mn445 O471 2.117 . S
C446 O468 1.234 . S
C446 O469 1.283 . S
C447 O459 1.281 . S
C447 O460 1.236 . S
C448 O470 1.240 . S
C448 O471 1.264 1_565 S
O449 Mn444 2.095 . S
O449 C458 1.250 1_565 S
O450 Mn445 2.121 . S
O450 C458 1.258 . S
C451 N452 1.326 . S
C451 C455 1.460 . S
C451 H457 0.929 . S
N452 Mn445 2.257 . S
N452 C451 1.326 . S
N452 C456 1.362 . S
C453 C454 1.258 . S
C453 C456 1.431 . S
C453 C473 1.449 . S
C454 C453 1.258 . S
C454 C455 1.477 . S
C454 H474 0.931 . S
C455 C451 1.460 . S
C455 C454 1.477 . S
C455 H475 0.930 . S
C456 N452 1.362 . S
C456 C453 1.431 . S
C456 C466 1.476 . S
H457 C451 0.929 . S
C458 O449 1.250 1_545 S
C458 O450 1.258 . S
O459 Mn444 2.162 . S
O459 C447 1.281 . S
O460 Mn444 2.297 . S
O460 C447 1.236 . S
N461 Mn445 2.282 . S
N461 C462 1.328 . S
N461 C466 1.318 . S
C462 N461 1.328 . S
C462 C463 1.457 . S
C462 H467 0.929 . S
C463 C462 1.457 . S
C463 C464 1.291 . S
C463 H476 0.931 . S
C464 C463 1.291 . S
C464 C465 1.373 . S
C464 H477 0.929 . S
C465 C464 1.373 . S
C465 C466 1.396 . S
C465 C472 1.403 . S
C466 C456 1.476 . S
C466 N461 1.318 . S
C466 C465 1.396 . S
H467 C462 0.929 . S
O468 Mn444 2.385 1_545 S
O468 C446 1.234 . S
O469 Mn444 2.209 1_545 S
O469 Mn445 2.215 . S
O469 C446 1.283 . S
O470 Mn444 2.094 . S
O470 C448 1.240 . S
O471 Mn445 2.117 . S
O471 C448 1.264 1_545 S
C472 C465 1.403 . S
C472 C473 1.399 . S
C472 H478 0.929 . S
C473 C453 1.449 . S
C473 C472 1.399 . S
C473 H479 0.930 . S
H474 C454 0.931 . S
H475 C455 0.930 . S
H476 C463 0.931 . S
H477 C464 0.929 . S
H478 C472 0.929 . S
H479 C473 0.930 . S
Mn480 O485 2.095 . S
Mn480 O495 2.162 . S
Mn480 O496 2.297 . S
Mn480 O504 2.385 1_455 S
Mn480 O505 2.209 1_455 S
Mn480 O506 2.094 . S
Mn481 O486 2.121 . S
Mn481 N488 2.257 . S
Mn481 N497 2.282 . S
Mn481 O505 2.215 . S
Mn481 O507 2.117 . S
C482 O504 1.234 . S
C482 O505 1.283 . S
C483 O495 1.281 . S
C483 O496 1.236 . S
C484 O506 1.240 . S
C484 O507 1.264 1_455 S
O485 Mn480 2.095 . S
O485 C494 1.279 . S
O486 Mn481 2.121 . S
O486 C494 1.225 1_655 S
C487 N488 1.326 . S
C487 C491 1.460 . S
C487 H493 0.929 . S
N488 Mn481 2.257 . S
N488 C487 1.326 . S
N488 C492 1.362 . S
C489 C490 1.258 . S
C489 C492 1.431 . S
C489 C509 1.449 . S
C490 C489 1.258 . S
C490 C491 1.477 . S
C490 H510 0.931 . S
C491 C487 1.460 . S
C491 C490 1.477 . S
C491 H511 0.930 . S
C492 N488 1.362 . S
C492 C489 1.431 . S
C492 C502 1.476 . S
H493 C487 0.929 . S
C494 O485 1.279 . S
C494 O486 1.225 1_455 S
O495 Mn480 2.162 . S
O495 C483 1.281 . S
O496 Mn480 2.297 . S
O496 C483 1.236 . S
N497 Mn481 2.282 . S
N497 C498 1.328 . S
N497 C502 1.318 . S
C498 N497 1.328 . S
C498 C499 1.457 . S
C498 H503 0.929 . S
C499 C498 1.457 . S
C499 C500 1.291 . S
C499 H512 0.931 . S
C500 C499 1.291 . S
C500 C501 1.373 . S
C500 H513 0.929 . S
C501 C500 1.373 . S
C501 C502 1.396 . S
C501 C508 1.403 . S
C502 C492 1.476 . S
C502 N497 1.318 . S
C502 C501 1.396 . S
H503 C498 0.929 . S
O504 Mn480 2.385 1_655 S
O504 C482 1.234 . S
O505 Mn480 2.209 1_655 S
O505 Mn481 2.215 . S
O505 C482 1.283 . S
O506 Mn480 2.094 . S
O506 C484 1.240 . S
O507 Mn481 2.117 . S
O507 C484 1.264 1_655 S
C508 C501 1.403 . S
C508 C509 1.399 . S
C508 H514 0.929 . S
C509 C489 1.449 . S
C509 C508 1.399 . S
C509 H515 0.930 . S
H510 C490 0.931 . S
H511 C491 0.930 . S
H512 C499 0.931 . S
H513 C500 0.929 . S
H514 C508 0.929 . S
H515 C509 0.930 . S
Mn516 O521 2.095 . S
Mn516 O531 2.162 . S
Mn516 O532 2.297 . S
Mn516 O540 2.385 . S
Mn516 O541 2.209 . S
Mn516 O542 2.094 . S
Mn517 O522 2.121 . S
Mn517 N524 2.257 . S
Mn517 N533 2.282 . S
Mn517 O541 2.215 . S
Mn517 O543 2.117 . S
C518 O540 1.234 . S
C518 O541 1.283 . S
C519 O531 1.281 . S
C519 O532 1.236 . S
C520 O542 1.240 . S
C520 O543 1.264 . S
O521 Mn516 2.095 . S
O521 C530 1.250 . S
O522 Mn517 2.121 . S
O522 C530 1.258 . S
C523 N524 1.326 . S
C523 C527 1.460 . S
C523 H529 0.929 . S
N524 Mn517 2.257 . S
N524 C523 1.326 . S
N524 C528 1.362 . S
C525 C526 1.258 . S
C525 C528 1.431 . S
C525 C545 1.449 . S
C526 C525 1.258 . S
C526 C527 1.477 . S
C526 H546 0.931 . S
C527 C523 1.460 . S
C527 C526 1.477 . S
C527 H547 0.930 . S
C528 N524 1.362 . S
C528 C525 1.431 . S
C528 C538 1.476 . S
H529 C523 0.929 . S
C530 O521 1.250 . S
C530 O522 1.258 . S
O531 Mn516 2.162 . S
O531 C519 1.281 . S
O532 Mn516 2.297 . S
O532 C519 1.236 . S
N533 Mn517 2.282 . S
N533 C534 1.328 . S
N533 C538 1.318 . S
C534 N533 1.328 . S
C534 C535 1.457 . S
C534 H539 0.929 . S
C535 C534 1.457 . S
C535 C536 1.291 . S
C535 H548 0.931 . S
C536 C535 1.291 . S
C536 C537 1.373 . S
C536 H549 0.929 . S
C537 C536 1.373 . S
C537 C538 1.396 . S
C537 C544 1.403 . S
C538 C528 1.476 . S
C538 N533 1.318 . S
C538 C537 1.396 . S
H539 C534 0.929 . S
O540 Mn516 2.385 . S
O540 C518 1.234 . S
O541 Mn516 2.209 . S
O541 Mn517 2.215 . S
O541 C518 1.283 . S
O542 Mn516 2.094 . S
O542 C520 1.240 . S
O543 Mn517 2.117 . S
O543 C520 1.264 . S
C544 C537 1.403 . S
C544 C545 1.399 . S
C544 H550 0.929 . S
C545 C525 1.449 . S
C545 C544 1.399 . S
C545 H551 0.930 . S
H546 C526 0.931 . S
H547 C527 0.930 . S
H548 C535 0.931 . S
H549 C536 0.929 . S
H550 C544 0.929 . S
H551 C545 0.930 . S
Mn552 O557 2.095 . S
Mn552 O567 2.162 . S
Mn552 O568 2.297 . S
Mn552 O576 2.385 . S
Mn552 O577 2.209 1_455 S
Mn552 O578 2.094 . S
Mn553 O558 2.121 . S
Mn553 N560 2.257 . S
Mn553 N569 2.282 1_655 S
Mn553 O577 2.215 . S
Mn553 O579 2.117 1_655 S
C554 O576 1.234 . S
C554 O577 1.284 1_455 S
C555 O567 1.281 . S
C555 O568 1.236 . S
C556 O578 1.240 . S
C556 O579 1.264 . S
O557 Mn552 2.095 . S
O557 C566 1.250 1_455 S
O558 Mn553 2.121 . S
O558 C566 1.258 . S
C559 N560 1.326 . S
C559 C563 1.460 . S
C559 H565 0.929 . S
N560 Mn553 2.257 . S
N560 C559 1.326 . S
N560 C564 1.362 . S
C561 C562 1.258 . S
C561 C564 1.431 . S
C561 C581 1.449 . S
C562 C561 1.258 . S
C562 C563 1.477 . S
C562 H582 0.931 . S
C563 C559 1.460 . S
C563 C562 1.477 . S
C563 H583 0.930 . S
C564 N560 1.362 . S
C564 C561 1.431 . S
C564 C574 1.476 . S
H565 C559 0.929 . S
C566 O557 1.250 1_655 S
C566 O558 1.258 . S
O567 Mn552 2.162 . S
O567 C555 1.281 . S
O568 Mn552 2.297 . S
O568 C555 1.236 . S
N569 Mn553 2.282 1_455 S
N569 C570 1.328 . S
N569 C574 1.318 1_455 S
C570 N569 1.328 . S
C570 C571 1.457 . S
C570 H575 0.929 . S
C571 C570 1.457 . S
C571 C572 1.291 . S
C571 H584 0.931 . S
C572 C571 1.291 . S
C572 C573 1.373 1_455 S
C572 H585 0.929 . S
C573 C572 1.373 1_655 S
C573 C574 1.396 . S
C573 C580 1.403 . S
C574 C564 1.476 . S
C574 N569 1.318 1_655 S
C574 C573 1.396 . S
H575 C570 0.929 . S
O576 Mn552 2.385 . S
O576 C554 1.234 . S
O577 Mn552 2.209 1_655 S
O577 Mn553 2.215 . S
O577 C554 1.284 1_655 S
O578 Mn552 2.094 . S
O578 C556 1.240 . S
O579 Mn553 2.117 1_455 S
O579 C556 1.264 . S
C580 C573 1.403 . S
C580 C581 1.399 . S
C580 H586 0.929 . S
C581 C561 1.449 . S
C581 C580 1.399 . S
C581 H587 0.930 . S
H582 C562 0.931 . S
H583 C563 0.930 . S
H584 C571 0.931 . S
H585 C572 0.929 . S
H586 C580 0.929 . S
H587 C581 0.930 . S
Mn588 O593 2.095 . S
Mn588 O603 2.162 . S
Mn588 O604 2.297 . S
Mn588 O612 2.385 . S
Mn588 O613 2.209 . S
Mn588 O614 2.094 . S
Mn589 O594 2.121 . S
Mn589 N596 2.257 . S
Mn589 N605 2.282 . S
Mn589 O613 2.215 . S
Mn589 O615 2.117 . S
C590 O612 1.234 . S
C590 O613 1.283 . S
C591 O603 1.281 . S
C591 O604 1.236 . S
C592 O614 1.240 . S
C592 O615 1.264 . S
O593 Mn588 2.095 . S
O593 C602 1.250 . S
O594 Mn589 2.121 . S
O594 C602 1.258 . S
C595 N596 1.326 . S
C595 C599 1.460 . S
C595 H601 0.929 . S
N596 Mn589 2.257 . S
N596 C595 1.326 . S
N596 C600 1.362 . S
C597 C598 1.258 . S
C597 C600 1.431 . S
C597 C617 1.449 . S
C598 C597 1.258 . S
C598 C599 1.477 . S
C598 H618 0.931 . S
C599 C595 1.460 . S
C599 C598 1.477 . S
C599 H619 0.930 . S
C600 N596 1.362 . S
C600 C597 1.431 . S
C600 C610 1.476 . S
H601 C595 0.929 . S
C602 O593 1.250 . S
C602 O594 1.258 . S
O603 Mn588 2.162 . S
O603 C591 1.281 . S
O604 Mn588 2.297 . S
O604 C591 1.236 . S
N605 Mn589 2.282 . S
N605 C606 1.328 . S
N605 C610 1.318 . S
C606 N605 1.328 . S
C606 C607 1.457 . S
C606 H611 0.929 . S
C607 C606 1.457 . S
C607 C608 1.291 . S
C607 H620 0.931 . S
C608 C607 1.291 . S
C608 C609 1.373 . S
C608 H621 0.929 . S
C609 C608 1.373 . S
C609 C610 1.396 . S
C609 C616 1.403 . S
C610 C600 1.476 . S
C610 N605 1.318 . S
C610 C609 1.396 . S
H611 C606 0.929 . S
O612 Mn588 2.385 . S
O612 C590 1.234 . S
O613 Mn588 2.209 . S
O613 Mn589 2.215 . S
O613 C590 1.283 . S
O614 Mn588 2.094 . S
O614 C592 1.240 . S
O615 Mn589 2.117 . S
O615 C592 1.264 . S
C616 C609 1.403 . S
C616 C617 1.399 . S
C616 H622 0.929 . S
C617 C597 1.449 . S
C617 C616 1.399 . S
C617 H623 0.930 . S
H618 C598 0.931 . S
H619 C599 0.930 . S
H620 C607 0.931 . S
H621 C608 0.929 . S
H622 C616 0.929 . S
H623 C617 0.930 . S
H624 C636 0.930 . S
H625 C638 0.930 . S
H626 C639 0.930 . S
H627 C643 0.959 . S
H628 C643 0.959 . S
H629 C643 0.961 . S
H630 C644 0.960 . S
H631 C644 0.961 . S
H632 C644 0.959 . S
H633 C647 0.929 . S
H634 C648 0.931 . S
H635 C650 0.930 . S
C636 H624 0.930 . S
C636 C637 1.399 . S
C636 C641 1.399 . S
C637 C636 1.399 . S
C637 C638 1.376 . S
C638 H625 0.930 . S
C638 C637 1.376 . S
C638 C639 1.388 . S
C639 H626 0.930 . S
C639 C638 1.388 . S
C639 C640 1.390 . S
C640 C639 1.390 . S
C640 C641 1.394 . S
C640 C646 1.465 . S
C641 C636 1.399 . S
C641 C640 1.394 . S
C641 C642 1.516 . S
C642 C641 1.516 . S
C642 C643 1.502 . S
C642 C644 1.561 . S
C642 C645 1.526 . S
C643 H627 0.959 . S
C643 H628 0.959 . S
C643 H629 0.961 . S
C643 C642 1.502 . S
C644 H630 0.960 . S
C644 H631 0.961 . S
C644 H632 0.959 . S
C644 C642 1.561 . S
C645 C642 1.526 . S
C645 C646 1.396 . S
C645 C650 1.390 . S
C646 C640 1.465 . S
C646 C645 1.396 . S
C646 C647 1.399 . S
C647 H633 0.929 . S
C647 C646 1.399 . S
C647 C648 1.385 . S
C648 H634 0.931 . S
C648 C647 1.385 . S
C648 C649 1.389 . S
C649 C648 1.389 . S
C649 C650 1.387 . S
C650 H635 0.930 . S
C650 C645 1.390 . S
C650 C649 1.387 . S
H651 C663 0.930 . S
H652 C665 0.930 . S
H653 C666 0.930 . S
H654 C670 0.959 . S
H655 C670 0.959 . S
H656 C670 0.961 . S
H657 C671 0.960 . S
H658 C671 0.961 . S
H659 C671 0.959 . S
H660 C674 0.929 . S
H661 C675 0.931 . S
H662 C677 0.930 . S
C663 H651 0.930 . S
C663 C664 1.399 . S
C663 C668 1.399 . S
C664 C663 1.399 . S
C664 C665 1.376 . S
C665 H652 0.930 . S
C665 C664 1.376 . S
C665 C666 1.388 . S
C666 H653 0.930 . S
C666 C665 1.388 . S
C666 C667 1.390 . S
C667 C666 1.390 . S
C667 C668 1.394 . S
C667 C673 1.465 . S
C668 C663 1.399 . S
C668 C667 1.394 . S
C668 C669 1.516 . S
C669 C668 1.516 . S
C669 C670 1.502 . S
C669 C671 1.561 . S
C669 C672 1.526 . S
C670 H654 0.959 . S
C670 H655 0.959 . S
C670 H656 0.961 . S
C670 C669 1.502 . S
C671 H657 0.960 . S
C671 H658 0.961 . S
C671 H659 0.959 . S
C671 C669 1.561 . S
C672 C669 1.526 . S
C672 C673 1.396 . S
C672 C677 1.390 . S
C673 C667 1.465 . S
C673 C672 1.396 . S
C673 C674 1.399 . S
C674 H660 0.929 . S
C674 C673 1.399 . S
C674 C675 1.385 . S
C675 H661 0.931 . S
C675 C674 1.385 . S
C675 C676 1.389 . S
C676 C675 1.389 . S
C676 C677 1.387 . S
C677 H662 0.930 . S
C677 C672 1.390 . S
C677 C676 1.387 . S
H678 C690 0.930 . S
H679 C692 0.930 . S
H680 C693 0.930 . S
H681 C697 0.959 . S
H682 C697 0.959 . S
H683 C697 0.961 . S
H684 C698 0.960 . S
H685 C698 0.961 . S
H686 C698 0.959 . S
H687 C701 0.929 . S
H688 C702 0.931 . S
H689 C704 0.930 . S
C690 H678 0.930 . S
C690 C691 1.399 . S
C690 C695 1.399 . S
C691 C690 1.399 . S
C691 C692 1.376 . S
C692 H679 0.930 . S
C692 C691 1.376 . S
C692 C693 1.388 . S
C693 H680 0.930 . S
C693 C692 1.388 . S
C693 C694 1.390 . S
C694 C693 1.390 . S
C694 C695 1.394 . S
C694 C700 1.465 . S
C695 C690 1.399 . S
C695 C694 1.394 . S
C695 C696 1.516 . S
C696 C695 1.516 . S
C696 C697 1.502 . S
C696 C698 1.561 . S
C696 C699 1.526 . S
C697 H681 0.959 . S
C697 H682 0.959 . S
C697 H683 0.961 . S
C697 C696 1.502 . S
C698 H684 0.960 . S
C698 H685 0.961 . S
C698 H686 0.959 . S
C698 C696 1.561 . S
C699 C696 1.526 . S
C699 C700 1.396 . S
C699 C704 1.390 . S
C700 C694 1.465 . S
C700 C699 1.396 . S
C700 C701 1.399 . S
C701 H687 0.929 . S
C701 C700 1.399 . S
C701 C702 1.385 . S
C702 H688 0.931 . S
C702 C701 1.385 . S
C702 C703 1.389 . S
C703 C702 1.389 . S
C703 C704 1.387 . S
C704 H689 0.930 . S
C704 C699 1.390 . S
C704 C703 1.387 . S
H705 C717 0.930 . S
H706 C719 0.930 . S
H707 C720 0.930 . S
H708 C724 0.959 . S
H709 C724 0.959 . S
H710 C724 0.961 . S
H711 C725 0.960 . S
H712 C725 0.961 . S
H713 C725 0.959 . S
H714 C728 0.929 1_455 S
H715 C729 0.931 . S
H716 C731 0.930 . S
C717 H705 0.930 . S
C717 C718 1.399 1_545 S
C717 C722 1.399 . S
C718 C717 1.399 1_565 S
C718 C719 1.376 . S
C719 H706 0.930 . S
C719 C718 1.376 . S
C719 C720 1.388 . S
C720 H707 0.930 . S
C720 C719 1.388 . S
C720 C721 1.390 . S
C721 C720 1.390 . S
C721 C722 1.394 1_565 S
C721 C727 1.474 . S
C722 C717 1.399 . S
C722 C721 1.394 1_545 S
C722 C723 1.516 . S
C723 C722 1.516 . S
C723 C724 1.502 1_455 S
C723 C725 1.561 . S
C723 C726 1.526 1_455 S
C724 H708 0.959 . S
C724 H709 0.959 . S
C724 H710 0.961 . S
C724 C723 1.502 1_655 S
C725 H711 0.960 . S
C725 H712 0.961 . S
C725 H713 0.959 . S
C725 C723 1.561 . S
C726 C723 1.526 1_655 S
C726 C727 1.367 1_645 S
C726 C731 1.390 . S
C727 C721 1.474 . S
C727 C726 1.367 1_465 S
C727 C728 1.414 1_455 S
C728 H714 0.929 1_655 S
C728 C727 1.414 1_655 S
C728 C729 1.385 . S
C729 H715 0.931 . S
C729 C728 1.385 . S
C729 C730 1.389 1_565 S
C730 C729 1.389 1_545 S
C730 C731 1.387 . S
C731 H716 0.930 . S
C731 C726 1.390 . S
C731 C730 1.387 . S
H732 C744 0.930 . S
H733 C746 0.930 . S
H734 C747 0.930 . S
H735 C751 0.959 . S
H736 C751 0.959 . S
H737 C751 0.961 . S
H738 C752 0.960 . S
H739 C752 0.961 . S
H740 C752 0.959 . S
H741 C755 0.929 . S
H742 C756 0.931 . S
H743 C758 0.930 . S
C744 H732 0.930 . S
C744 C745 1.399 . S
C744 C749 1.399 . S
C745 C744 1.399 . S
C745 C746 1.376 . S
C746 H733 0.930 . S
C746 C745 1.376 . S
C746 C747 1.388 . S
C747 H734 0.930 . S
C747 C746 1.388 . S
C747 C748 1.390 . S
C748 C747 1.390 . S
C748 C749 1.394 . S
C748 C754 1.465 . S
C749 C744 1.399 . S
C749 C748 1.394 . S
C749 C750 1.516 . S
C750 C749 1.516 . S
C750 C751 1.502 . S
C750 C752 1.561 . S
C750 C753 1.526 . S
C751 H735 0.959 . S
C751 H736 0.959 . S
C751 H737 0.961 . S
C751 C750 1.502 . S
C752 H738 0.960 . S
C752 H739 0.961 . S
C752 H740 0.959 . S
C752 C750 1.561 . S
C753 C750 1.526 . S
C753 C754 1.396 . S
C753 C758 1.390 . S
C754 C748 1.465 . S
C754 C753 1.396 . S
C754 C755 1.399 . S
C755 H741 0.929 . S
C755 C754 1.399 . S
C755 C756 1.385 . S
C756 H742 0.931 . S
C756 C755 1.385 . S
C756 C757 1.389 . S
C757 C756 1.389 . S
C757 C758 1.387 . S
C758 H743 0.930 . S
C758 C753 1.390 . S
C758 C757 1.387 . S
H759 C771 0.930 . S
H760 C773 0.930 . S
H761 C774 0.930 . S
H762 C778 0.959 . S
H763 C778 0.959 . S
H764 C778 0.961 . S
H765 C779 0.960 . S
H766 C779 0.961 . S
H767 C779 0.959 . S
H768 C782 0.929 . S
H769 C783 0.931 . S
H770 C785 0.930 . S
C771 H759 0.930 . S
C771 C772 1.399 . S
C771 C776 1.399 . S
C772 C771 1.399 . S
C772 C773 1.376 . S
C773 H760 0.930 . S
C773 C772 1.376 . S
C773 C774 1.388 . S
C774 H761 0.930 . S
C774 C773 1.388 . S
C774 C775 1.390 . S
C775 C774 1.390 . S
C775 C776 1.394 . S
C775 C781 1.465 . S
C776 C771 1.399 . S
C776 C775 1.394 . S
C776 C777 1.516 . S
C777 C776 1.516 . S
C777 C778 1.502 . S
C777 C779 1.561 . S
C777 C780 1.526 . S
C778 H762 0.959 . S
C778 H763 0.959 . S
C778 H764 0.961 . S
C778 C777 1.502 . S
C779 H765 0.960 . S
C779 H766 0.961 . S
C779 H767 0.959 . S
C779 C777 1.561 . S
C780 C777 1.526 . S
C780 C781 1.396 . S
C780 C785 1.390 . S
C781 C775 1.465 . S
C781 C780 1.396 . S
C781 C782 1.399 . S
C782 H768 0.929 . S
C782 C781 1.399 . S
C782 C783 1.385 . S
C783 H769 0.931 . S
C783 C782 1.385 . S
C783 C784 1.389 . S
C784 C783 1.389 . S
C784 C785 1.387 . S
C785 H770 0.930 . S
C785 C780 1.390 . S
C785 C784 1.387 . S
H786 C798 0.930 . S
H787 C800 0.930 . S
H788 C801 0.930 . S
H789 C805 0.959 . S
H790 C805 0.959 . S
H791 C805 0.961 . S
H792 C806 0.960 . S
H793 C806 0.961 . S
H794 C806 0.959 . S
H795 C809 0.929 . S
H796 C810 0.931 . S
H797 C812 0.930 . S
C798 H786 0.930 . S
C798 C799 1.399 . S
C798 C803 1.399 . S
C799 C798 1.399 . S
C799 C800 1.376 . S
C800 H787 0.930 . S
C800 C799 1.376 . S
C800 C801 1.388 . S
C801 H788 0.930 . S
C801 C800 1.388 . S
C801 C802 1.390 . S
C802 C801 1.390 . S
C802 C803 1.394 . S
C802 C808 1.465 . S
C803 C798 1.399 . S
C803 C802 1.394 . S
C803 C804 1.516 . S
C804 C803 1.516 . S
C804 C805 1.502 . S
C804 C806 1.561 . S
C804 C807 1.526 . S
C805 H789 0.959 . S
C805 H790 0.959 . S
C805 H791 0.961 . S
C805 C804 1.502 . S
C806 H792 0.960 . S
C806 H793 0.961 . S
C806 H794 0.959 . S
C806 C804 1.561 . S
C807 C804 1.526 . S
C807 C808 1.396 . S
C807 C812 1.390 . S
C808 C802 1.465 . S
C808 C807 1.396 . S
C808 C809 1.399 . S
C809 H795 0.929 . S
C809 C808 1.399 . S
C809 C810 1.385 . S
C810 H796 0.931 . S
C810 C809 1.385 . S
C810 C811 1.389 . S
C811 C810 1.389 . S
C811 C812 1.387 . S
C812 H797 0.930 . S
C812 C807 1.390 . S
C812 C811 1.387 . S
H813 C825 0.930 . S
H814 C827 0.930 . S
H815 C828 0.930 . S
H816 C832 0.959 . S
H817 C832 0.959 . S
H818 C832 0.961 . S
H819 C833 0.960 . S
H820 C833 0.961 . S
H821 C833 0.959 . S
H822 C836 0.929 . S
H823 C837 0.931 . S
H824 C839 0.930 . S
C825 H813 0.930 . S
C825 C826 1.399 . S
C825 C830 1.399 . S
C826 C825 1.399 . S
C826 C827 1.376 1_565 S
C827 H814 0.930 . S
C827 C826 1.376 1_545 S
C827 C828 1.388 . S
C828 H815 0.930 . S
C828 C827 1.388 . S
C828 C829 1.390 . S
C829 C828 1.390 . S
C829 C830 1.394 1_545 S
C829 C835 1.465 . S
C830 C825 1.399 . S
C830 C829 1.394 1_565 S
C830 C831 1.516 . S
C831 C830 1.516 . S
C831 C832 1.502 . S
C831 C833 1.561 . S
C831 C834 1.526 . S
C832 H816 0.959 . S
C832 H817 0.959 . S
C832 H818 0.961 . S
C832 C831 1.502 . S
C833 H819 0.960 . S
C833 H820 0.961 . S
C833 H821 0.959 . S
C833 C831 1.561 . S
C834 C831 1.526 . S
C834 C835 1.396 1_565 S
C834 C839 1.390 . S
C835 C829 1.465 . S
C835 C834 1.396 1_545 S
C835 C836 1.399 . S
C836 H822 0.929 . S
C836 C835 1.399 . S
C836 C837 1.385 . S
C837 H823 0.931 . S
C837 C836 1.385 . S
C837 C838 1.389 1_545 S
C838 C837 1.389 1_565 S
C838 C839 1.387 . S
C839 H824 0.930 . S
C839 C834 1.390 . S
C839 C838 1.387 . S
H840 C852 0.930 . S
H841 C854 0.930 . S
H842 C855 0.930 . S
H843 C859 0.959 . S
H844 C859 0.959 . S
H845 C859 0.961 . S
H846 C860 0.960 . S
H847 C860 0.961 . S
H848 C860 0.959 . S
H849 C863 0.929 . S
H850 C864 0.931 . S
H851 C866 0.930 . S
C852 H840 0.930 . S
C852 C853 1.399 . S
C852 C857 1.399 . S
C853 C852 1.399 . S
C853 C854 1.376 . S
C854 H841 0.930 . S
C854 C853 1.376 . S
C854 C855 1.388 . S
C855 H842 0.930 . S
C855 C854 1.388 . S
C855 C856 1.390 . S
C856 C855 1.390 . S
C856 C857 1.394 . S
C856 C862 1.465 . S
C857 C852 1.399 . S
C857 C856 1.394 . S
C857 C858 1.516 . S
C858 C857 1.516 . S
C858 C859 1.502 . S
C858 C860 1.561 . S
C858 C861 1.526 . S
C859 H843 0.959 . S
C859 H844 0.959 . S
C859 H845 0.961 . S
C859 C858 1.502 . S
C860 H846 0.960 . S
C860 H847 0.961 . S
C860 H848 0.959 . S
C860 C858 1.561 . S
C861 C858 1.526 . S
C861 C862 1.396 . S
C861 C866 1.390 . S
C862 C856 1.465 . S
C862 C861 1.396 . S
C862 C863 1.399 . S
C863 H849 0.929 . S
C863 C862 1.399 . S
C863 C864 1.385 . S
C864 H850 0.931 . S
C864 C863 1.385 . S
C864 C865 1.389 . S
C865 C864 1.389 . S
C865 C866 1.387 . S
C866 H851 0.930 . S
C866 C861 1.390 . S
C866 C865 1.387 . S
H867 C879 0.930 . S
H868 C881 0.930 . S
H869 C882 0.930 . S
H870 C886 0.959 . S
H871 C886 0.959 . S
H872 C886 0.961 . S
H873 C887 0.960 . S
H874 C887 0.961 . S
H875 C887 0.959 . S
H876 C890 0.929 . S
H877 C891 0.931 . S
H878 C893 0.930 . S
C879 H867 0.930 . S
C879 C880 1.399 . S
C879 C884 1.399 . S
C880 C879 1.399 . S
C880 C881 1.376 . S
C881 H868 0.930 . S
C881 C880 1.376 . S
C881 C882 1.388 . S
C882 H869 0.930 . S
C882 C881 1.388 . S
C882 C883 1.390 . S
C883 C882 1.390 . S
C883 C884 1.394 . S
C883 C889 1.465 . S
C884 C879 1.399 . S
C884 C883 1.394 . S
C884 C885 1.516 . S
C885 C884 1.516 . S
C885 C886 1.502 . S
C885 C887 1.561 . S
C885 C888 1.526 . S
C886 H870 0.959 . S
C886 H871 0.959 . S
C886 H872 0.961 . S
C886 C885 1.502 . S
C887 H873 0.960 . S
C887 H874 0.961 . S
C887 H875 0.959 . S
C887 C885 1.561 . S
C888 C885 1.526 . S
C888 C889 1.396 . S
C888 C893 1.390 . S
C889 C883 1.465 . S
C889 C888 1.396 . S
C889 C890 1.399 . S
C890 H876 0.929 . S
C890 C889 1.399 . S
C890 C891 1.385 . S
C891 H877 0.931 . S
C891 C890 1.385 . S
C891 C892 1.389 . S
C892 C891 1.389 . S
C892 C893 1.387 . S
C893 H878 0.930 . S
C893 C888 1.390 . S
C893 C892 1.387 . S
H894 C906 0.930 . S
H895 C908 0.930 . S
H896 C909 0.930 . S
H897 C913 0.959 . S
H898 C913 0.959 . S
H899 C913 0.961 . S
H900 C914 0.960 . S
H901 C914 0.961 . S
H902 C914 0.959 . S
H903 C917 0.929 . S
H904 C918 0.931 . S
H905 C920 0.930 . S
C906 H894 0.930 . S
C906 C907 1.399 . S
C906 C911 1.399 . S
C907 C906 1.399 . S
C907 C908 1.376 . S
C908 H895 0.930 . S
C908 C907 1.376 . S
C908 C909 1.388 . S
C909 H896 0.930 . S
C909 C908 1.388 . S
C909 C910 1.390 . S
C910 C909 1.390 . S
C910 C911 1.394 . S
C910 C916 1.465 . S
C911 C906 1.399 . S
C911 C910 1.394 . S
C911 C912 1.516 . S
C912 C911 1.516 . S
C912 C913 1.502 . S
C912 C914 1.561 . S
C912 C915 1.526 . S
C913 H897 0.959 . S
C913 H898 0.959 . S
C913 H899 0.961 . S
C913 C912 1.502 . S
C914 H900 0.960 . S
C914 H901 0.961 . S
C914 H902 0.959 . S
C914 C912 1.561 . S
C915 C912 1.526 . S
C915 C916 1.396 . S
C915 C920 1.390 . S
C916 C910 1.465 . S
C916 C915 1.396 . S
C916 C917 1.399 . S
C917 H903 0.929 . S
C917 C916 1.399 . S
C917 C918 1.385 . S
C918 H904 0.931 . S
C918 C917 1.385 . S
C918 C919 1.389 . S
C919 C918 1.389 . S
C919 C920 1.387 . S
C920 H905 0.930 . S
C920 C915 1.390 . S
C920 C919 1.387 . S
H921 C933 0.930 . S
H922 C935 0.930 . S
H923 C936 0.930 . S
H924 C940 0.959 . S
H925 C940 0.959 . S
H926 C940 0.961 . S
H927 C941 0.960 . S
H928 C941 0.961 . S
H929 C941 0.959 . S
H930 C944 0.929 . S
H931 C945 0.931 . S
H932 C947 0.930 . S
C933 H921 0.930 . S
C933 C934 1.399 . S
C933 C938 1.399 . S
C934 C933 1.399 . S
C934 C935 1.376 . S
C935 H922 0.930 . S
C935 C934 1.376 . S
C935 C936 1.388 . S
C936 H923 0.930 . S
C936 C935 1.388 . S
C936 C937 1.390 . S
C937 C936 1.390 . S
C937 C938 1.394 . S
C937 C943 1.465 . S
C938 C933 1.399 . S
C938 C937 1.394 . S
C938 C939 1.516 . S
C939 C938 1.516 . S
C939 C940 1.502 . S
C939 C941 1.561 . S
C939 C942 1.526 . S
C940 H924 0.959 . S
C940 H925 0.959 . S
C940 H926 0.961 . S
C940 C939 1.502 . S
C941 H927 0.960 . S
C941 H928 0.961 . S
C941 H929 0.959 . S
C941 C939 1.561 . S
C942 C939 1.526 . S
C942 C943 1.396 . S
C942 C947 1.390 . S
C943 C937 1.465 . S
C943 C942 1.396 . S
C943 C944 1.399 . S
C944 H930 0.929 . S
C944 C943 1.399 . S
C944 C945 1.385 . S
C945 H931 0.931 . S
C945 C944 1.385 . S
C945 C946 1.389 . S
C946 C945 1.389 . S
C946 C947 1.387 . S
C947 H932 0.930 . S
C947 C942 1.390 . S
C947 C946 1.387 . S
H948 C960 0.930 . S
H949 C962 0.930 . S
H950 C963 0.930 . S
H951 C967 0.959 . S
H952 C967 0.959 . S
H953 C967 0.961 . S
H954 C968 0.960 . S
H955 C968 0.961 . S
H956 C968 0.959 . S
H957 C971 0.929 . S
H958 C972 0.931 . S
H959 C974 0.930 . S
C960 H948 0.930 . S
C960 C961 1.399 . S
C960 C965 1.399 . S
C961 C960 1.399 . S
C961 C962 1.376 . S
C962 H949 0.930 . S
C962 C961 1.376 . S
C962 C963 1.388 . S
C963 H950 0.930 . S
C963 C962 1.388 . S
C963 C964 1.390 . S
C964 C963 1.390 . S
C964 C965 1.394 . S
C964 C970 1.465 . S
C965 C960 1.399 . S
C965 C964 1.394 . S
C965 C966 1.516 . S
C966 C965 1.516 . S
C966 C967 1.502 . S
C966 C968 1.561 . S
C966 C969 1.526 . S
C967 H951 0.959 . S
C967 H952 0.959 . S
C967 H953 0.961 . S
C967 C966 1.502 . S
C968 H954 0.960 . S
C968 H955 0.961 . S
C968 H956 0.959 . S
C968 C966 1.561 . S
C969 C966 1.526 . S
C969 C970 1.396 . S
C969 C974 1.390 . S
C970 C964 1.465 . S
C970 C969 1.396 . S
C970 C971 1.399 . S
C971 H957 0.929 . S
C971 C970 1.399 . S
C971 C972 1.385 . S
C972 H958 0.931 . S
C972 C971 1.385 . S
C972 C973 1.389 . S
C973 C972 1.389 . S
C973 C974 1.387 . S
C974 H959 0.930 . S
C974 C969 1.390 . S
C974 C973 1.387 . S
H975 C987 0.930 . S
H976 C989 0.930 . S
H977 C990 0.930 . S
H978 C994 0.959 . S
H979 C994 0.959 . S
H980 C994 0.961 . S
H981 C995 0.960 . S
H982 C995 0.961 . S
H983 C995 0.959 . S
H984 C998 0.929 1_655 S
H985 C999 0.931 1_655 S
H986 C1001 0.930 . S
C987 H975 0.930 . S
C987 C988 1.399 . S
C987 C992 1.399 . S
C988 C987 1.399 . S
C988 C989 1.376 . S
C989 H976 0.930 . S
C989 C988 1.376 . S
C989 C990 1.388 . S
C990 H977 0.930 . S
C990 C989 1.388 . S
C990 C991 1.390 . S
C991 C990 1.390 . S
C991 C992 1.394 . S
C991 C997 1.465 . S
C992 C987 1.399 . S
C992 C991 1.394 . S
C992 C993 1.516 . S
C993 C992 1.516 . S
C993 C994 1.502 . S
C993 C995 1.561 . S
C993 C996 1.526 . S
C994 H978 0.959 . S
C994 H979 0.959 . S
C994 H980 0.961 . S
C994 C993 1.502 . S
C995 H981 0.960 . S
C995 H982 0.961 . S
C995 H983 0.959 . S
C995 C993 1.561 . S
C996 C993 1.526 . S
C996 C997 1.396 . S
C996 C1001 1.390 . S
C997 C991 1.465 . S
C997 C996 1.396 . S
C997 C998 1.399 . S
C998 H984 0.929 1_455 S
C998 C997 1.399 . S
C998 C999 1.385 . S
C999 H985 0.931 1_455 S
C999 C998 1.385 . S
C999 C1000 1.389 . S
C1000 C999 1.389 . S
C1000 C1001 1.387 . S
C1001 H986 0.930 . S
C1001 C996 1.390 . S
C1001 C1000 1.387 . S
H1002 C1014 0.930 . S
H1003 C1016 0.930 . S
H1004 C1017 0.930 . S
H1005 C1021 0.959 . S
H1006 C1021 0.959 . S
H1007 C1021 0.961 . S
H1008 C1022 0.960 . S
H1009 C1022 0.961 . S
H1010 C1022 0.959 . S
H1011 C1025 0.929 . S
H1012 C1026 0.931 . S
H1013 C1028 0.930 . S
C1014 H1002 0.930 . S
C1014 C1015 1.399 . S
C1014 C1019 1.399 . S
C1015 C1014 1.399 . S
C1015 C1016 1.376 . S
C1016 H1003 0.930 . S
C1016 C1015 1.376 . S
C1016 C1017 1.388 . S
C1017 H1004 0.930 . S
C1017 C1016 1.388 . S
C1017 C1018 1.390 . S
C1018 C1017 1.390 . S
C1018 C1019 1.394 . S
C1018 C1024 1.465 . S
C1019 C1014 1.399 . S
C1019 C1018 1.394 . S
C1019 C1020 1.516 . S
C1020 C1019 1.516 . S
C1020 C1021 1.502 . S
C1020 C1022 1.561 . S
C1020 C1023 1.526 . S
C1021 H1005 0.959 . S
C1021 H1006 0.959 . S
C1021 H1007 0.961 . S
C1021 C1020 1.502 . S
C1022 H1008 0.960 . S
C1022 H1009 0.961 . S
C1022 H1010 0.959 . S
C1022 C1020 1.561 . S
C1023 C1020 1.526 . S
C1023 C1024 1.396 . S
C1023 C1028 1.390 . S
C1024 C1018 1.465 . S
C1024 C1023 1.396 . S
C1024 C1025 1.399 . S
C1025 H1011 0.929 . S
C1025 C1024 1.399 . S
C1025 C1026 1.385 . S
C1026 H1012 0.931 . S
C1026 C1025 1.385 . S
C1026 C1027 1.389 . S
C1027 C1026 1.389 . S
C1027 C1028 1.387 . S
C1028 H1013 0.930 . S
C1028 C1023 1.390 . S
C1028 C1027 1.387 . S
H1029 C1041 0.930 . S
H1030 C1043 0.930 . S
H1031 C1044 0.930 . S
H1032 C1048 0.959 . S
H1033 C1048 0.959 . S
H1034 C1048 0.961 . S
H1035 C1049 0.960 . S
H1036 C1049 0.956 1_455 S
H1037 C1049 0.959 . S
H1038 C1052 0.929 . S
H1039 C1053 0.931 . S
H1040 C1055 0.930 . S
C1041 H1029 0.930 . S
C1041 C1042 1.399 1_455 S
C1041 C1046 1.399 . S
C1042 C1041 1.399 1_655 S
C1042 C1043 1.376 . S
C1043 H1030 0.930 . S
C1043 C1042 1.376 . S
C1043 C1044 1.388 . S
C1044 H1031 0.930 . S
C1044 C1043 1.388 . S
C1044 C1045 1.390 . S
C1045 C1044 1.390 . S
C1045 C1046 1.394 1_655 S
C1045 C1051 1.465 . S
C1046 C1041 1.399 . S
C1046 C1045 1.394 1_455 S
C1046 C1047 1.516 . S
C1047 C1046 1.516 . S
C1047 C1048 1.502 . S
C1047 C1049 1.561 1_455 S
C1047 C1050 1.526 . S
C1048 H1032 0.959 . S
C1048 H1033 0.959 . S
C1048 H1034 0.961 . S
C1048 C1047 1.502 . S
C1049 H1035 0.960 . S
C1049 H1036 0.956 1_655 S
C1049 H1037 0.959 . S
C1049 C1047 1.561 1_655 S
C1050 C1047 1.526 . S
C1050 C1051 1.396 1_455 S
C1050 C1055 1.390 . S
C1051 C1045 1.465 . S
C1051 C1050 1.396 1_655 S
C1051 C1052 1.399 . S
C1052 H1038 0.929 . S
C1052 C1051 1.399 . S
C1052 C1053 1.385 . S
C1053 H1039 0.931 . S
C1053 C1052 1.385 . S
C1053 C1054 1.389 1_655 S
C1054 C1053 1.389 1_455 S
C1054 C1055 1.387 . S
C1055 H1040 0.930 . S
C1055 C1050 1.390 . S
C1055 C1054 1.387 . S
H1056 C1068 0.930 . S
H1057 C1070 0.930 . S
H1058 C1071 0.930 . S
H1059 C1075 0.959 . S
H1060 C1075 0.959 . S
H1061 C1075 0.961 . S
H1062 C1076 0.960 . S
H1063 C1076 0.961 . S
H1064 C1076 0.959 . S
H1065 C1079 0.929 . S
H1066 C1080 0.931 . S
H1067 C1082 0.930 . S
C1068 H1056 0.930 . S
C1068 C1069 1.399 . S
C1068 C1073 1.399 . S
C1069 C1068 1.399 . S
C1069 C1070 1.376 . S
C1070 H1057 0.930 . S
C1070 C1069 1.376 . S
C1070 C1071 1.388 . S
C1071 H1058 0.930 . S
C1071 C1070 1.388 . S
C1071 C1072 1.390 . S
C1072 C1071 1.390 . S
C1072 C1073 1.394 . S
C1072 C1078 1.465 . S
C1073 C1068 1.399 . S
C1073 C1072 1.394 . S
C1073 C1074 1.516 . S
C1074 C1073 1.516 . S
C1074 C1075 1.502 . S
C1074 C1076 1.561 . S
C1074 C1077 1.526 . S
C1075 H1059 0.959 . S
C1075 H1060 0.959 . S
C1075 H1061 0.961 . S
C1075 C1074 1.502 . S
C1076 H1062 0.960 . S
C1076 H1063 0.961 . S
C1076 H1064 0.959 . S
C1076 C1074 1.561 . S
C1077 C1074 1.526 . S
C1077 C1078 1.396 . S
C1077 C1082 1.390 . S
C1078 C1072 1.465 . S
C1078 C1077 1.396 . S
C1078 C1079 1.399 . S
C1079 H1065 0.929 . S
C1079 C1078 1.399 . S
C1079 C1080 1.385 . S
C1080 H1066 0.931 . S
C1080 C1079 1.385 . S
C1080 C1081 1.389 . S
C1081 C1080 1.389 . S
C1081 C1082 1.387 . S
C1082 H1067 0.930 . S
C1082 C1077 1.390 . S
C1082 C1081 1.387 . S
H1083 C1095 0.930 . S
H1084 C1097 0.930 . S
H1085 C1098 0.930 . S
H1086 C1102 0.959 . S
H1087 C1102 0.959 . S
H1088 C1102 0.961 . S
H1089 C1103 0.960 . S
H1090 C1103 0.961 . S
H1091 C1103 0.959 . S
H1092 C1106 0.929 . S
H1093 C1107 0.931 . S
H1094 C1109 0.930 . S
C1095 H1083 0.930 . S
C1095 C1096 1.399 . S
C1095 C1100 1.399 . S
C1096 C1095 1.399 . S
C1096 C1097 1.376 . S
C1097 H1084 0.930 . S
C1097 C1096 1.376 . S
C1097 C1098 1.388 . S
C1098 H1085 0.930 . S
C1098 C1097 1.388 . S
C1098 C1099 1.390 . S
C1099 C1098 1.390 . S
C1099 C1100 1.394 . S
C1099 C1105 1.465 . S
C1100 C1095 1.399 . S
C1100 C1099 1.394 . S
C1100 C1101 1.516 . S
C1101 C1100 1.516 . S
C1101 C1102 1.502 . S
C1101 C1103 1.561 . S
C1101 C1104 1.526 . S
C1102 H1086 0.959 . S
C1102 H1087 0.959 . S
C1102 H1088 0.961 . S
C1102 C1101 1.502 . S
C1103 H1089 0.960 . S
C1103 H1090 0.961 . S
C1103 H1091 0.959 . S
C1103 C1101 1.561 . S
C1104 C1101 1.526 . S
C1104 C1105 1.396 . S
C1104 C1109 1.390 . S
C1105 C1099 1.465 . S
C1105 C1104 1.396 . S
C1105 C1106 1.399 . S
C1106 H1092 0.929 . S
C1106 C1105 1.399 . S
C1106 C1107 1.385 . S
C1107 H1093 0.931 . S
C1107 C1106 1.385 . S
C1107 C1108 1.389 . S
C1108 C1107 1.389 . S
C1108 C1109 1.387 . S
C1109 H1094 0.930 . S
C1109 C1104 1.390 . S
C1109 C1108 1.387 . S
H1110 C1122 0.930 . S
H1111 C1124 0.931 1_545 S
H1112 C1125 0.930 . S
H1113 C1129 0.959 . S
H1114 C1129 0.959 . S
H1115 C1129 0.961 . S
H1116 C1130 0.960 1_545 S
H1117 C1130 0.961 . S
H1118 C1130 0.940 1_545 S
H1119 C1133 0.929 . S
H1120 C1134 0.931 . S
H1121 C1136 0.930 . S
C1122 H1110 0.930 . S
C1122 C1123 1.398 1_564 S
C1122 C1127 1.399 . S
C1123 C1122 1.398 1_546 S
C1123 C1124 1.376 1_545 S
C1124 H1111 0.931 1_565 S
C1124 C1123 1.376 1_565 S
C1124 C1125 1.388 . S
C1125 H1112 0.930 . S
C1125 C1124 1.388 . S
C1125 C1126 1.390 . S
C1126 C1125 1.390 . S
C1126 C1127 1.394 1_556 S
C1126 C1132 1.465 . S
C1127 C1122 1.399 . S
C1127 C1126 1.394 1_554 S
C1127 C1128 1.516 . S
C1128 C1127 1.516 . S
C1128 C1129 1.502 . S
C1128 C1130 1.561 . S
C1128 C1131 1.526 . S
C1129 H1113 0.959 . S
C1129 H1114 0.959 . S
C1129 H1115 0.961 . S
C1129 C1128 1.502 . S
C1130 H1116 0.960 1_565 S
C1130 H1117 0.961 . S
C1130 H1118 0.940 1_565 S
C1130 C1128 1.561 . S
C1131 C1128 1.526 . S
C1131 C1132 1.396 1_554 S
C1131 C1136 1.390 . S
C1132 C1126 1.465 . S
C1132 C1131 1.396 1_556 S
C1132 C1133 1.399 . S
C1133 H1119 0.929 . S
C1133 C1132 1.399 . S
C1133 C1134 1.385 . S
C1134 H1120 0.931 . S
C1134 C1133 1.385 . S
C1134 C1135 1.389 1_556 S
C1135 C1134 1.389 1_554 S
C1135 C1136 1.387 . S
C1136 H1121 0.930 . S
C1136 C1131 1.390 . S
C1136 C1135 1.387 . S
H1137 C1149 0.930 . S
H1138 C1151 0.930 . S
H1139 C1152 0.930 . S
H1140 C1156 0.959 . S
H1141 C1156 0.959 . S
H1142 C1156 0.961 . S
H1143 C1157 0.960 . S
H1144 C1157 0.961 . S
H1145 C1157 0.959 . S
H1146 C1160 0.929 . S
H1147 C1161 0.931 . S
H1148 C1163 0.930 . S
C1149 H1137 0.930 . S
C1149 C1150 1.399 . S
C1149 C1154 1.399 . S
C1150 C1149 1.399 . S
C1150 C1151 1.376 . S
C1151 H1138 0.930 . S
C1151 C1150 1.376 . S
C1151 C1152 1.388 . S
C1152 H1139 0.930 . S
C1152 C1151 1.388 . S
C1152 C1153 1.390 . S
C1153 C1152 1.390 . S
C1153 C1154 1.394 . S
C1153 C1159 1.465 . S
C1154 C1149 1.399 . S
C1154 C1153 1.394 . S
C1154 C1155 1.516 . S
C1155 C1154 1.516 . S
C1155 C1156 1.502 . S
C1155 C1157 1.561 . S
C1155 C1158 1.526 . S
C1156 H1140 0.959 . S
C1156 H1141 0.959 . S
C1156 H1142 0.961 . S
C1156 C1155 1.502 . S
C1157 H1143 0.960 . S
C1157 H1144 0.961 . S
C1157 H1145 0.959 . S
C1157 C1155 1.561 . S
C1158 C1155 1.526 . S
C1158 C1159 1.396 . S
C1158 C1163 1.390 . S
C1159 C1153 1.465 . S
C1159 C1158 1.396 . S
C1159 C1160 1.399 . S
C1160 H1146 0.929 . S
C1160 C1159 1.399 . S
C1160 C1161 1.385 . S
C1161 H1147 0.931 . S
C1161 C1160 1.385 . S
C1161 C1162 1.389 . S
C1162 C1161 1.389 . S
C1162 C1163 1.387 . S
C1163 H1148 0.930 . S
C1163 C1158 1.390 . S
C1163 C1162 1.387 . S
H1164 C1176 0.930 . S
H1165 C1178 0.930 . S
H1166 C1179 0.930 . S
H1167 C1183 0.959 . S
H1168 C1183 0.959 . S
H1169 C1183 0.961 . S
H1170 C1184 0.960 . S
H1171 C1184 0.961 . S
H1172 C1184 0.959 . S
H1173 C1187 0.929 . S
H1174 C1188 0.931 . S
H1175 C1190 0.930 . S
C1176 H1164 0.930 . S
C1176 C1177 1.399 . S
C1176 C1181 1.399 . S
C1177 C1176 1.399 . S
C1177 C1178 1.376 . S
C1178 H1165 0.930 . S
C1178 C1177 1.376 . S
C1178 C1179 1.388 . S
C1179 H1166 0.930 . S
C1179 C1178 1.388 . S
C1179 C1180 1.390 . S
C1180 C1179 1.390 . S
C1180 C1181 1.394 . S
C1180 C1186 1.465 . S
C1181 C1176 1.399 . S
C1181 C1180 1.394 . S
C1181 C1182 1.516 . S
C1182 C1181 1.516 . S
C1182 C1183 1.502 . S
C1182 C1184 1.561 . S
C1182 C1185 1.526 . S
C1183 H1167 0.959 . S
C1183 H1168 0.959 . S
C1183 H1169 0.961 . S
C1183 C1182 1.502 . S
C1184 H1170 0.960 . S
C1184 H1171 0.961 . S
C1184 H1172 0.959 . S
C1184 C1182 1.561 . S
C1185 C1182 1.526 . S
C1185 C1186 1.396 . S
C1185 C1190 1.390 . S
C1186 C1180 1.465 . S
C1186 C1185 1.396 . S
C1186 C1187 1.399 . S
C1187 H1173 0.929 . S
C1187 C1186 1.399 . S
C1187 C1188 1.385 . S
C1188 H1174 0.931 . S
C1188 C1187 1.385 . S
C1188 C1189 1.389 . S
C1189 C1188 1.389 . S
C1189 C1190 1.387 . S
C1190 H1175 0.930 . S
C1190 C1185 1.390 . S
C1190 C1189 1.387 . S
H1191 C1203 0.930 . S
H1192 C1205 0.930 . S
H1193 C1206 0.930 . S
H1194 C1210 0.959 . S
H1195 C1210 0.959 . S
H1196 C1210 0.961 . S
H1197 C1211 0.960 . S
H1198 C1211 0.961 . S
H1199 C1211 0.959 . S
H1200 C1214 0.929 . S
H1201 C1215 0.931 . S
H1202 C1217 0.930 . S
C1203 H1191 0.930 . S
C1203 C1204 1.399 . S
C1203 C1208 1.399 . S
C1204 C1203 1.399 . S
C1204 C1205 1.376 . S
C1205 H1192 0.930 . S
C1205 C1204 1.376 . S
C1205 C1206 1.388 . S
C1206 H1193 0.930 . S
C1206 C1205 1.388 . S
C1206 C1207 1.390 . S
C1207 C1206 1.390 . S
C1207 C1208 1.394 . S
C1207 C1213 1.465 . S
C1208 C1203 1.399 . S
C1208 C1207 1.394 . S
C1208 C1209 1.516 . S
C1209 C1208 1.516 . S
C1209 C1210 1.502 . S
C1209 C1211 1.561 . S
C1209 C1212 1.526 . S
C1210 H1194 0.959 . S
C1210 H1195 0.959 . S
C1210 H1196 0.961 . S
C1210 C1209 1.502 . S
C1211 H1197 0.960 . S
C1211 H1198 0.961 . S
C1211 H1199 0.959 . S
C1211 C1209 1.561 . S
C1212 C1209 1.526 . S
C1212 C1213 1.396 . S
C1212 C1217 1.390 . S
C1213 C1207 1.465 . S
C1213 C1212 1.396 . S
C1213 C1214 1.399 . S
C1214 H1200 0.929 . S
C1214 C1213 1.399 . S
C1214 C1215 1.385 . S
C1215 H1201 0.931 . S
C1215 C1214 1.385 . S
C1215 C1216 1.389 . S
C1216 C1215 1.389 . S
C1216 C1217 1.387 . S
C1217 H1202 0.930 . S
C1217 C1212 1.390 . S
C1217 C1216 1.387 . S
H1218 C1230 0.930 . S
H1219 C1232 0.930 . S
H1220 C1233 0.930 . S
H1221 C1237 0.959 . S
H1222 C1237 0.959 . S
H1223 C1237 0.961 . S
H1224 C1238 0.960 . S
H1225 C1238 0.961 . S
H1226 C1238 0.959 . S
H1227 C1241 0.929 . S
H1228 C1242 0.931 . S
H1229 C1244 0.930 . S
C1230 H1218 0.930 . S
C1230 C1231 1.399 . S
C1230 C1235 1.399 . S
C1231 C1230 1.399 . S
C1231 C1232 1.376 . S
C1232 H1219 0.930 . S
C1232 C1231 1.376 . S
C1232 C1233 1.388 . S
C1233 H1220 0.930 . S
C1233 C1232 1.388 . S
C1233 C1234 1.390 . S
C1234 C1233 1.390 . S
C1234 C1235 1.394 . S
C1234 C1240 1.465 . S
C1235 C1230 1.399 . S
C1235 C1234 1.394 . S
C1235 C1236 1.516 . S
C1236 C1235 1.516 . S
C1236 C1237 1.502 . S
C1236 C1238 1.561 . S
C1236 C1239 1.526 . S
C1237 H1221 0.959 . S
C1237 H1222 0.959 . S
C1237 H1223 0.961 . S
C1237 C1236 1.502 . S
C1238 H1224 0.960 . S
C1238 H1225 0.961 . S
C1238 H1226 0.959 . S
C1238 C1236 1.561 . S
C1239 C1236 1.526 . S
C1239 C1240 1.396 . S
C1239 C1244 1.390 . S
C1240 C1234 1.465 . S
C1240 C1239 1.396 . S
C1240 C1241 1.399 . S
C1241 H1227 0.929 . S
C1241 C1240 1.399 . S
C1241 C1242 1.385 . S
C1242 H1228 0.931 . S
C1242 C1241 1.385 . S
C1242 C1243 1.389 . S
C1243 C1242 1.389 . S
C1243 C1244 1.387 . S
C1244 H1229 0.930 . S
C1244 C1239 1.390 . S
C1244 C1243 1.387 . S
H1245 C1257 0.930 . S
H1246 C1259 0.930 . S
H1247 C1260 0.930 . S
H1248 C1264 0.959 . S
H1249 C1264 0.959 . S
H1250 C1264 0.961 . S
H1251 C1265 0.960 . S
H1252 C1265 0.961 . S
H1253 C1265 0.959 . S
H1254 C1268 0.929 . S
H1255 C1269 0.931 . S
H1256 C1271 0.930 . S
C1257 H1245 0.930 . S
C1257 C1258 1.399 . S
C1257 C1262 1.399 . S
C1258 C1257 1.399 . S
C1258 C1259 1.376 . S
C1259 H1246 0.930 . S
C1259 C1258 1.376 . S
C1259 C1260 1.388 . S
C1260 H1247 0.930 . S
C1260 C1259 1.388 . S
C1260 C1261 1.390 . S
C1261 C1260 1.390 . S
C1261 C1262 1.394 . S
C1261 C1267 1.465 . S
C1262 C1257 1.399 . S
C1262 C1261 1.394 . S
C1262 C1263 1.516 . S
C1263 C1262 1.516 . S
C1263 C1264 1.502 . S
C1263 C1265 1.561 . S
C1263 C1266 1.526 . S
C1264 H1248 0.959 . S
C1264 H1249 0.959 . S
C1264 H1250 0.961 . S
C1264 C1263 1.502 . S
C1265 H1251 0.960 . S
C1265 H1252 0.961 . S
C1265 H1253 0.959 . S
C1265 C1263 1.561 . S
C1266 C1263 1.526 . S
C1266 C1267 1.396 . S
C1266 C1271 1.390 . S
C1267 C1261 1.465 . S
C1267 C1266 1.396 . S
C1267 C1268 1.399 . S
C1268 H1254 0.929 . S
C1268 C1267 1.399 . S
C1268 C1269 1.385 . S
C1269 H1255 0.931 . S
C1269 C1268 1.385 . S
C1269 C1270 1.389 . S
C1270 C1269 1.389 . S
C1270 C1271 1.387 . S
C1271 H1256 0.930 . S
C1271 C1266 1.390 . S
C1271 C1270 1.387 . S
H1272 C1284 0.930 . S
H1273 C1286 0.930 . S
H1274 C1287 0.930 . S
H1275 C1291 0.959 . S
H1276 C1291 0.959 . S
H1277 C1291 0.961 . S
H1278 C1292 0.960 . S
H1279 C1292 0.961 . S
H1280 C1292 0.959 . S
H1281 C1295 0.929 . S
H1282 C1296 0.931 . S
H1283 C1298 0.930 . S
C1284 H1272 0.930 . S
C1284 C1285 1.399 . S
C1284 C1289 1.399 . S
C1285 C1284 1.399 . S
C1285 C1286 1.376 . S
C1286 H1273 0.930 . S
C1286 C1285 1.376 . S
C1286 C1287 1.388 . S
C1287 H1274 0.930 . S
C1287 C1286 1.388 . S
C1287 C1288 1.390 . S
C1288 C1287 1.390 . S
C1288 C1289 1.394 . S
C1288 C1294 1.465 . S
C1289 C1284 1.399 . S
C1289 C1288 1.394 . S
C1289 C1290 1.516 . S
C1290 C1289 1.516 . S
C1290 C1291 1.502 . S
C1290 C1292 1.561 . S
C1290 C1293 1.526 . S
C1291 H1275 0.959 . S
C1291 H1276 0.959 . S
C1291 H1277 0.961 . S
C1291 C1290 1.502 . S
C1292 H1278 0.960 . S
C1292 H1279 0.961 . S
C1292 H1280 0.959 . S
C1292 C1290 1.561 . S
C1293 C1290 1.526 . S
C1293 C1294 1.396 . S
C1293 C1298 1.390 . S
C1294 C1288 1.465 . S
C1294 C1293 1.396 . S
C1294 C1295 1.399 . S
C1295 H1281 0.929 . S
C1295 C1294 1.399 . S
C1295 C1296 1.385 . S
C1296 H1282 0.931 . S
C1296 C1295 1.385 . S
C1296 C1297 1.389 . S
C1297 C1296 1.389 . S
C1297 C1298 1.387 . S
C1298 H1283 0.930 . S
C1298 C1293 1.390 . S
C1298 C1297 1.387 . S
H1299 C1311 0.930 1_565 S
H1300 C1313 0.930 . S
H1301 C1314 0.930 . S
H1302 C1318 0.959 . S
H1303 C1318 0.959 . S
H1304 C1318 0.961 . S
H1305 C1319 0.960 . S
H1306 C1319 0.961 . S
H1307 C1319 0.959 . S
H1308 C1322 0.929 . S
H1309 C1323 0.931 . S
H1310 C1325 0.930 . S
C1311 H1299 0.930 1_545 S
C1311 C1312 1.399 . S
C1311 C1316 1.399 . S
C1312 C1311 1.399 . S
C1312 C1313 1.376 . S
C1313 H1300 0.930 . S
C1313 C1312 1.376 . S
C1313 C1314 1.388 . S
C1314 H1301 0.930 . S
C1314 C1313 1.388 . S
C1314 C1315 1.390 . S
C1315 C1314 1.390 . S
C1315 C1316 1.394 . S
C1315 C1321 1.465 . S
C1316 C1311 1.399 . S
C1316 C1315 1.394 . S
C1316 C1317 1.516 1_545 S
C1317 C1316 1.516 1_565 S
C1317 C1318 1.502 . S
C1317 C1319 1.561 . S
C1317 C1320 1.526 . S
C1318 H1302 0.959 . S
C1318 H1303 0.959 . S
C1318 H1304 0.961 . S
C1318 C1317 1.502 . S
C1319 H1305 0.960 . S
C1319 H1306 0.961 . S
C1319 H1307 0.959 . S
C1319 C1317 1.561 . S
C1320 C1317 1.526 . S
C1320 C1321 1.396 1_565 S
C1320 C1325 1.390 . S
C1321 C1315 1.465 . S
C1321 C1320 1.396 1_545 S
C1321 C1322 1.399 . S
C1322 H1308 0.929 . S
C1322 C1321 1.399 . S
C1322 C1323 1.385 . S
C1323 H1309 0.931 . S
C1323 C1322 1.385 . S
C1323 C1324 1.389 . S
C1324 C1323 1.389 . S
C1324 C1325 1.387 1_545 S
C1325 H1310 0.930 . S
C1325 C1320 1.390 . S
C1325 C1324 1.387 1_565 S
H1326 C1338 0.930 . S
H1327 C1340 0.930 . S
H1328 C1341 0.930 . S
H1329 C1345 0.959 . S
H1330 C1345 0.959 . S
H1331 C1345 0.961 . S
H1332 C1346 0.960 . S
H1333 C1346 0.961 . S
H1334 C1346 0.959 . S
H1335 C1349 0.929 . S
H1336 C1350 0.931 . S
H1337 C1352 0.930 . S
C1338 H1326 0.930 . S
C1338 C1339 1.399 . S
C1338 C1343 1.399 . S
C1339 C1338 1.399 . S
C1339 C1340 1.376 . S
C1340 H1327 0.930 . S
C1340 C1339 1.376 . S
C1340 C1341 1.388 . S
C1341 H1328 0.930 . S
C1341 C1340 1.388 . S
C1341 C1342 1.390 . S
C1342 C1341 1.390 . S
C1342 C1343 1.394 . S
C1342 C1348 1.465 . S
C1343 C1338 1.399 . S
C1343 C1342 1.394 . S
C1343 C1344 1.516 . S
C1344 C1343 1.516 . S
C1344 C1345 1.502 . S
C1344 C1346 1.561 . S
C1344 C1347 1.526 . S
C1345 H1329 0.959 . S
C1345 H1330 0.959 . S
C1345 H1331 0.961 . S
C1345 C1344 1.502 . S
C1346 H1332 0.960 . S
C1346 H1333 0.961 . S
C1346 H1334 0.959 . S
C1346 C1344 1.561 . S
C1347 C1344 1.526 . S
C1347 C1348 1.396 . S
C1347 C1352 1.390 . S
C1348 C1342 1.465 . S
C1348 C1347 1.396 . S
C1348 C1349 1.399 . S
C1349 H1335 0.929 . S
C1349 C1348 1.399 . S
C1349 C1350 1.385 . S
C1350 H1336 0.931 . S
C1350 C1349 1.385 . S
C1350 C1351 1.389 . S
C1351 C1350 1.389 . S
C1351 C1352 1.387 . S
C1352 H1337 0.930 . S
C1352 C1347 1.390 . S
C1352 C1351 1.387 . S
H1353 C1365 0.930 . S
H1354 C1367 0.930 . S
H1355 C1368 0.930 . S
H1356 C1372 0.959 . S
H1357 C1372 0.959 . S
H1358 C1372 0.961 . S
H1359 C1373 0.960 . S
H1360 C1373 0.961 . S
H1361 C1373 0.959 . S
H1362 C1376 0.929 . S
H1363 C1377 0.931 . S
H1364 C1379 0.930 . S
C1365 H1353 0.930 . S
C1365 C1366 1.399 . S
C1365 C1370 1.399 . S
C1366 C1365 1.399 . S
C1366 C1367 1.376 . S
C1367 H1354 0.930 . S
C1367 C1366 1.376 . S
C1367 C1368 1.388 . S
C1368 H1355 0.930 . S
C1368 C1367 1.388 . S
C1368 C1369 1.390 . S
C1369 C1368 1.390 . S
C1369 C1370 1.394 . S
C1369 C1375 1.465 . S
C1370 C1365 1.399 . S
C1370 C1369 1.394 . S
C1370 C1371 1.516 . S
C1371 C1370 1.516 . S
C1371 C1372 1.502 . S
C1371 C1373 1.561 . S
C1371 C1374 1.526 . S
C1372 H1356 0.959 . S
C1372 H1357 0.959 . S
C1372 H1358 0.961 . S
C1372 C1371 1.502 . S
C1373 H1359 0.960 . S
C1373 H1360 0.961 . S
C1373 H1361 0.959 . S
C1373 C1371 1.561 . S
C1374 C1371 1.526 . S
C1374 C1375 1.396 . S
C1374 C1379 1.390 . S
C1375 C1369 1.465 . S
C1375 C1374 1.396 . S
C1375 C1376 1.399 . S
C1376 H1362 0.929 . S
C1376 C1375 1.399 . S
C1376 C1377 1.385 . S
C1377 H1363 0.931 . S
C1377 C1376 1.385 . S
C1377 C1378 1.389 . S
C1378 C1377 1.389 . S
C1378 C1379 1.387 . S
C1379 H1364 0.930 . S
C1379 C1374 1.390 . S
C1379 C1378 1.387 . S
H1380 C1392 0.930 . S
H1381 C1394 0.930 . S
H1382 C1395 0.930 . S
H1383 C1399 0.959 . S
H1384 C1399 0.959 . S
H1385 C1399 0.961 . S
H1386 C1400 0.960 . S
H1387 C1400 0.961 . S
H1388 C1400 0.959 . S
H1389 C1403 0.929 . S
H1390 C1404 0.931 . S
H1391 C1406 0.930 . S
C1392 H1380 0.930 . S
C1392 C1393 1.399 . S
C1392 C1397 1.399 . S
C1393 C1392 1.399 . S
C1393 C1394 1.376 . S
C1394 H1381 0.930 . S
C1394 C1393 1.376 . S
C1394 C1395 1.388 . S
C1395 H1382 0.930 . S
C1395 C1394 1.388 . S
C1395 C1396 1.390 . S
C1396 C1395 1.390 . S
C1396 C1397 1.394 . S
C1396 C1402 1.465 . S
C1397 C1392 1.399 . S
C1397 C1396 1.394 . S
C1397 C1398 1.516 . S
C1398 C1397 1.516 . S
C1398 C1399 1.502 . S
C1398 C1400 1.561 . S
C1398 C1401 1.526 . S
C1399 H1383 0.959 . S
C1399 H1384 0.959 . S
C1399 H1385 0.961 . S
C1399 C1398 1.502 . S
C1400 H1386 0.960 . S
C1400 H1387 0.961 . S
C1400 H1388 0.959 . S
C1400 C1398 1.561 . S
C1401 C1398 1.526 . S
C1401 C1402 1.396 . S
C1401 C1406 1.390 . S
C1402 C1396 1.465 . S
C1402 C1401 1.396 . S
C1402 C1403 1.399 . S
C1403 H1389 0.929 . S
C1403 C1402 1.399 . S
C1403 C1404 1.385 . S
C1404 H1390 0.931 . S
C1404 C1403 1.385 . S
C1404 C1405 1.389 . S
C1405 C1404 1.389 . S
C1405 C1406 1.387 . S
C1406 H1391 0.930 . S
C1406 C1401 1.390 . S
C1406 C1405 1.387 . S
H1407 C1419 0.930 . S
H1408 C1421 0.930 1_565 S
H1409 C1422 0.930 . S
H1410 C1426 0.959 . S
H1411 C1426 0.959 . S
H1412 C1426 0.961 . S
H1413 C1427 0.960 1_455 S
H1414 C1427 0.961 . S
H1415 C1427 0.959 . S
H1416 C1430 0.929 . S
H1417 C1431 0.931 1_565 S
H1418 C1433 0.930 . S
C1419 H1407 0.930 . S
C1419 C1420 1.399 . S
C1419 C1424 1.399 . S
C1420 C1419 1.399 . S
C1420 C1421 1.376 . S
C1421 H1408 0.930 1_545 S
C1421 C1420 1.376 . S
C1421 C1422 1.388 1_445 S
C1422 H1409 0.930 . S
C1422 C1421 1.388 1_665 S
C1422 C1423 1.390 1_565 S
C1423 C1422 1.390 1_545 S
C1423 C1424 1.394 1_655 S
C1423 C1429 1.465 . S
C1424 C1419 1.399 . S
C1424 C1423 1.394 1_455 S
C1424 C1425 1.516 . S
C1425 C1424 1.516 . S
C1425 C1426 1.502 . S
C1425 C1427 1.561 1_455 S
C1425 C1428 1.526 1_455 S
C1426 H1410 0.959 . S
C1426 H1411 0.959 . S
C1426 H1412 0.961 . S
C1426 C1425 1.502 . S
C1427 H1413 0.960 1_655 S
C1427 H1414 0.961 . S
C1427 H1415 0.959 . S
C1427 C1425 1.561 1_655 S
C1428 C1425 1.526 1_655 S
C1428 C1429 1.396 . S
C1428 C1433 1.390 . S
C1429 C1423 1.465 . S
C1429 C1428 1.396 . S
C1429 C1430 1.399 1_545 S
C1430 H1416 0.929 . S
C1430 C1429 1.399 1_565 S
C1430 C1431 1.385 1_565 S
C1431 H1417 0.931 1_545 S
C1431 C1430 1.385 1_545 S
C1431 C1432 1.389 . S
C1432 C1431 1.389 . S
C1432 C1433 1.387 . S
C1433 H1418 0.930 . S
C1433 C1428 1.390 . S
C1433 C1432 1.387 . S
H1434 C1446 0.930 . S
H1435 C1448 0.930 . S
H1436 C1449 0.930 . S
H1437 C1453 0.959 . S
H1438 C1453 0.959 . S
H1439 C1453 0.961 . S
H1440 C1454 0.960 . S
H1441 C1454 0.961 . S
H1442 C1454 0.959 . S
H1443 C1457 0.929 . S
H1444 C1458 0.931 . S
H1445 C1460 0.930 . S
C1446 H1434 0.930 . S
C1446 C1447 1.399 . S
C1446 C1451 1.399 . S
C1447 C1446 1.399 . S
C1447 C1448 1.376 . S
C1448 H1435 0.930 . S
C1448 C1447 1.376 . S
C1448 C1449 1.388 . S
C1449 H1436 0.930 . S
C1449 C1448 1.388 . S
C1449 C1450 1.390 . S
C1450 C1449 1.390 . S
C1450 C1451 1.394 . S
C1450 C1456 1.465 . S
C1451 C1446 1.399 . S
C1451 C1450 1.394 . S
C1451 C1452 1.516 . S
C1452 C1451 1.516 . S
C1452 C1453 1.502 . S
C1452 C1454 1.561 . S
C1452 C1455 1.526 . S
C1453 H1437 0.959 . S
C1453 H1438 0.959 . S
C1453 H1439 0.961 . S
C1453 C1452 1.502 . S
C1454 H1440 0.960 . S
C1454 H1441 0.961 . S
C1454 H1442 0.959 . S
C1454 C1452 1.561 . S
C1455 C1452 1.526 . S
C1455 C1456 1.396 . S
C1455 C1460 1.390 . S
C1456 C1450 1.465 . S
C1456 C1455 1.396 . S
C1456 C1457 1.399 . S
C1457 H1443 0.929 . S
C1457 C1456 1.399 . S
C1457 C1458 1.385 . S
C1458 H1444 0.931 . S
C1458 C1457 1.385 . S
C1458 C1459 1.389 . S
C1459 C1458 1.389 . S
C1459 C1460 1.387 . S
C1460 H1445 0.930 . S
C1460 C1455 1.390 . S
C1460 C1459 1.387 . S
H1461 C1473 0.930 . S
H1462 C1475 0.930 1_655 S
H1463 C1476 0.930 . S
H1464 C1480 0.959 . S
H1465 C1480 0.959 . S
H1466 C1480 0.961 . S
H1467 C1481 0.960 . S
H1468 C1481 0.961 . S
H1469 C1481 0.959 . S
H1470 C1484 0.929 . S
H1471 C1485 0.931 . S
H1472 C1487 0.930 . S
C1473 H1461 0.930 . S
C1473 C1474 1.399 . S
C1473 C1478 1.399 . S
C1474 C1473 1.399 . S
C1474 C1475 1.376 . S
C1475 H1462 0.930 1_455 S
C1475 C1474 1.376 . S
C1475 C1476 1.388 . S
C1476 H1463 0.930 . S
C1476 C1475 1.388 . S
C1476 C1477 1.390 . S
C1477 C1476 1.390 . S
C1477 C1478 1.394 . S
C1477 C1483 1.465 . S
C1478 C1473 1.399 . S
C1478 C1477 1.394 . S
C1478 C1479 1.516 . S
C1479 C1478 1.516 . S
C1479 C1480 1.502 . S
C1479 C1481 1.561 . S
C1479 C1482 1.526 . S
C1480 H1464 0.959 . S
C1480 H1465 0.959 . S
C1480 H1466 0.961 . S
C1480 C1479 1.502 . S
C1481 H1467 0.960 . S
C1481 H1468 0.961 . S
C1481 H1469 0.959 . S
C1481 C1479 1.561 . S
C1482 C1479 1.526 . S
C1482 C1483 1.396 . S
C1482 C1487 1.390 . S
C1483 C1477 1.465 . S
C1483 C1482 1.396 . S
C1483 C1484 1.399 . S
C1484 H1470 0.929 . S
C1484 C1483 1.399 . S
C1484 C1485 1.385 . S
C1485 H1471 0.931 . S
C1485 C1484 1.385 . S
C1485 C1486 1.389 . S
C1486 C1485 1.389 . S
C1486 C1487 1.387 . S
C1487 H1472 0.930 . S
C1487 C1482 1.390 . S
C1487 C1486 1.387 . S
H1488 C1500 0.930 . S
H1489 C1502 0.930 . S
H1490 C1503 0.930 . S
H1491 C1507 0.959 . S
H1492 C1507 0.959 . S
H1493 C1507 0.961 . S
H1494 C1508 0.960 . S
H1495 C1508 0.961 . S
H1496 C1508 0.959 . S
H1497 C1511 0.929 . S
H1498 C1512 0.931 . S
H1499 C1514 0.930 . S
C1500 H1488 0.930 . S
C1500 C1501 1.399 . S
C1500 C1505 1.399 . S
C1501 C1500 1.399 . S
C1501 C1502 1.376 . S
C1502 H1489 0.930 . S
C1502 C1501 1.376 . S
C1502 C1503 1.388 . S
C1503 H1490 0.930 . S
C1503 C1502 1.388 . S
C1503 C1504 1.390 . S
C1504 C1503 1.390 . S
C1504 C1505 1.394 . S
C1504 C1510 1.465 . S
C1505 C1500 1.399 . S
C1505 C1504 1.394 . S
C1505 C1506 1.516 . S
C1506 C1505 1.516 . S
C1506 C1507 1.502 . S
C1506 C1508 1.561 . S
C1506 C1509 1.526 . S
C1507 H1491 0.959 . S
C1507 H1492 0.959 . S
C1507 H1493 0.961 . S
C1507 C1506 1.502 . S
C1508 H1494 0.960 . S
C1508 H1495 0.961 . S
C1508 H1496 0.959 . S
C1508 C1506 1.561 . S
C1509 C1506 1.526 . S
C1509 C1510 1.396 . S
C1509 C1514 1.390 . S
C1510 C1504 1.465 . S
C1510 C1509 1.396 . S
C1510 C1511 1.399 . S
C1511 H1497 0.929 . S
C1511 C1510 1.399 . S
C1511 C1512 1.385 . S
C1512 H1498 0.931 . S
C1512 C1511 1.385 . S
C1512 C1513 1.389 . S
C1513 C1512 1.389 . S
C1513 C1514 1.387 . S
C1514 H1499 0.930 . S
C1514 C1509 1.390 . S
C1514 C1513 1.387 . S
H1515 C1527 0.930 . S
H1516 C1529 0.930 1_554 S
H1517 C1530 0.930 . S
H1518 C1534 0.959 . S
H1519 C1534 0.959 . S
H1520 C1534 0.961 . S
H1521 C1535 0.955 1_655 S
H1522 C1535 0.963 . S
H1523 C1535 0.959 . S
H1524 C1538 0.929 . S
H1525 C1539 0.931 . S
H1526 C1541 0.930 . S
C1527 H1515 0.930 . S
C1527 C1528 1.399 . S
C1527 C1532 1.399 . S
C1528 C1527 1.399 . S
C1528 C1529 1.376 1_655 S
C1529 H1516 0.930 1_556 S
C1529 C1528 1.376 1_455 S
C1529 C1530 1.388 . S
C1530 H1517 0.930 . S
C1530 C1529 1.388 . S
C1530 C1531 1.390 . S
C1531 C1530 1.390 . S
C1531 C1532 1.394 1_455 S
C1531 C1537 1.465 . S
C1532 C1527 1.399 . S
C1532 C1531 1.394 1_655 S
C1532 C1533 1.516 . S
C1533 C1532 1.516 . S
C1533 C1534 1.502 . S
C1533 C1535 1.561 1_655 S
C1533 C1536 1.526 . S
C1534 H1518 0.959 . S
C1534 H1519 0.959 . S
C1534 H1520 0.961 . S
C1534 C1533 1.502 . S
C1535 H1521 0.955 1_455 S
C1535 H1522 0.963 . S
C1535 H1523 0.959 . S
C1535 C1533 1.561 1_455 S
C1536 C1533 1.526 . S
C1536 C1537 1.396 1_655 S
C1536 C1541 1.390 . S
C1537 C1531 1.465 . S
C1537 C1536 1.396 1_455 S
C1537 C1538 1.399 . S
C1538 H1524 0.929 . S
C1538 C1537 1.399 . S
C1538 C1539 1.385 . S
C1539 H1525 0.931 . S
C1539 C1538 1.385 . S
C1539 C1540 1.389 . S
C1540 C1539 1.389 . S
C1540 C1541 1.387 1_455 S
C1541 H1526 0.930 . S
C1541 C1536 1.390 . S
C1541 C1540 1.387 1_655 S
H1542 C1554 0.930 . S
H1543 C1556 0.930 . S
H1544 C1557 0.930 . S
H1545 C1561 0.959 . S
H1546 C1561 0.959 . S
H1547 C1561 0.961 . S
H1548 C1562 0.960 . S
H1549 C1562 0.961 . S
H1550 C1562 0.959 . S
H1551 C1565 0.929 . S
H1552 C1566 0.931 . S
H1553 C1568 0.930 . S
C1554 H1542 0.930 . S
C1554 C1555 1.399 . S
C1554 C1559 1.399 . S
C1555 C1554 1.399 . S
C1555 C1556 1.376 . S
C1556 H1543 0.930 . S
C1556 C1555 1.376 . S
C1556 C1557 1.388 . S
C1557 H1544 0.930 . S
C1557 C1556 1.388 . S
C1557 C1558 1.390 . S
C1558 C1557 1.390 . S
C1558 C1559 1.394 . S
C1558 C1564 1.465 . S
C1559 C1554 1.399 . S
C1559 C1558 1.394 . S
C1559 C1560 1.516 . S
C1560 C1559 1.516 . S
C1560 C1561 1.502 . S
C1560 C1562 1.561 . S
C1560 C1563 1.526 . S
C1561 H1545 0.959 . S
C1561 H1546 0.959 . S
C1561 H1547 0.961 . S
C1561 C1560 1.502 . S
C1562 H1548 0.960 . S
C1562 H1549 0.961 . S
C1562 H1550 0.959 . S
C1562 C1560 1.561 . S
C1563 C1560 1.526 . S
C1563 C1564 1.396 . S
C1563 C1568 1.390 . S
C1564 C1558 1.465 . S
C1564 C1563 1.396 . S
C1564 C1565 1.399 . S
C1565 H1551 0.929 . S
C1565 C1564 1.399 . S
C1565 C1566 1.385 . S
C1566 H1552 0.931 . S
C1566 C1565 1.385 . S
C1566 C1567 1.389 . S
C1567 C1566 1.389 . S
C1567 C1568 1.387 . S
C1568 H1553 0.930 . S
C1568 C1563 1.390 . S
C1568 C1567 1.387 . S
H1569 C1581 0.930 . S
H1570 C1583 0.930 . S
H1571 C1584 0.930 . S
H1572 C1588 0.959 . S
H1573 C1588 0.959 . S
H1574 C1588 0.961 . S
H1575 C1589 0.960 . S
H1576 C1589 0.961 . S
H1577 C1589 0.959 . S
H1578 C1592 0.929 . S
H1579 C1593 0.931 . S
H1580 C1595 0.930 . S
C1581 H1569 0.930 . S
C1581 C1582 1.399 . S
C1581 C1586 1.399 . S
C1582 C1581 1.399 . S
C1582 C1583 1.376 . S
C1583 H1570 0.930 . S
C1583 C1582 1.376 . S
C1583 C1584 1.388 . S
C1584 H1571 0.930 . S
C1584 C1583 1.388 . S
C1584 C1585 1.390 . S
C1585 C1584 1.390 . S
C1585 C1586 1.394 . S
C1585 C1591 1.465 . S
C1586 C1581 1.399 . S
C1586 C1585 1.394 . S
C1586 C1587 1.516 . S
C1587 C1586 1.516 . S
C1587 C1588 1.502 . S
C1587 C1589 1.561 . S
C1587 C1590 1.526 . S
C1588 H1572 0.959 . S
C1588 H1573 0.959 . S
C1588 H1574 0.961 . S
C1588 C1587 1.502 . S
C1589 H1575 0.960 . S
C1589 H1576 0.961 . S
C1589 H1577 0.959 . S
C1589 C1587 1.561 . S
C1590 C1587 1.526 . S
C1590 C1591 1.396 . S
C1590 C1595 1.390 . S
C1591 C1585 1.465 . S
C1591 C1590 1.396 . S
C1591 C1592 1.399 . S
C1592 H1578 0.929 . S
C1592 C1591 1.399 . S
C1592 C1593 1.385 . S
C1593 H1579 0.931 . S
C1593 C1592 1.385 . S
C1593 C1594 1.389 . S
C1594 C1593 1.389 . S
C1594 C1595 1.387 . S
C1595 H1580 0.930 . S
C1595 C1590 1.390 . S
C1595 C1594 1.387 . S
H1596 C1608 0.930 . S
H1597 C1610 0.930 . S
H1598 C1611 0.930 . S
H1599 C1615 0.959 . S
H1600 C1615 0.959 . S
H1601 C1615 0.961 . S
H1602 C1616 0.960 . S
H1603 C1616 0.961 . S
H1604 C1616 0.959 . S
H1605 C1619 0.929 . S
H1606 C1620 0.931 . S
H1607 C1622 0.930 . S
C1608 H1596 0.930 . S
C1608 C1609 1.399 . S
C1608 C1613 1.399 . S
C1609 C1608 1.399 . S
C1609 C1610 1.376 . S
C1610 H1597 0.930 . S
C1610 C1609 1.376 . S
C1610 C1611 1.388 . S
C1611 H1598 0.930 . S
C1611 C1610 1.388 . S
C1611 C1612 1.390 . S
C1612 C1611 1.390 . S
C1612 C1613 1.394 . S
C1612 C1618 1.465 . S
C1613 C1608 1.399 . S
C1613 C1612 1.394 . S
C1613 C1614 1.516 . S
C1614 C1613 1.516 . S
C1614 C1615 1.502 . S
C1614 C1616 1.561 . S
C1614 C1617 1.526 . S
C1615 H1599 0.959 . S
C1615 H1600 0.959 . S
C1615 H1601 0.961 . S
C1615 C1614 1.502 . S
C1616 H1602 0.960 . S
C1616 H1603 0.961 . S
C1616 H1604 0.959 . S
C1616 C1614 1.561 . S
C1617 C1614 1.526 . S
C1617 C1618 1.396 . S
C1617 C1622 1.390 . S
C1618 C1612 1.465 . S
C1618 C1617 1.396 . S
C1618 C1619 1.399 . S
C1619 H1605 0.929 . S
C1619 C1618 1.399 . S
C1619 C1620 1.385 . S
C1620 H1606 0.931 . S
C1620 C1619 1.385 . S
C1620 C1621 1.389 . S
C1621 C1620 1.389 . S
C1621 C1622 1.387 . S
C1622 H1607 0.930 . S
C1622 C1617 1.390 . S
C1622 C1621 1.387 . S
H1623 C1635 0.930 . S
H1624 C1637 0.930 . S
H1625 C1638 0.930 . S
H1626 C1642 0.959 . S
H1627 C1642 0.959 . S
H1628 C1642 0.961 . S
H1629 C1643 0.960 . S
H1630 C1643 0.961 . S
H1631 C1643 0.959 . S
H1632 C1646 0.929 . S
H1633 C1647 0.931 . S
H1634 C1649 0.930 . S
C1635 H1623 0.930 . S
C1635 C1636 1.399 . S
C1635 C1640 1.399 . S
C1636 C1635 1.399 . S
C1636 C1637 1.376 . S
C1637 H1624 0.930 . S
C1637 C1636 1.376 . S
C1637 C1638 1.388 . S
C1638 H1625 0.930 . S
C1638 C1637 1.388 . S
C1638 C1639 1.390 . S
C1639 C1638 1.390 . S
C1639 C1640 1.394 . S
C1639 C1645 1.465 . S
C1640 C1635 1.399 . S
C1640 C1639 1.394 . S
C1640 C1641 1.516 . S
C1641 C1640 1.516 . S
C1641 C1642 1.502 . S
C1641 C1643 1.561 . S
C1641 C1644 1.526 . S
C1642 H1626 0.959 . S
C1642 H1627 0.959 . S
C1642 H1628 0.961 . S
C1642 C1641 1.502 . S
C1643 H1629 0.960 . S
C1643 H1630 0.961 . S
C1643 H1631 0.959 . S
C1643 C1641 1.561 . S
C1644 C1641 1.526 . S
C1644 C1645 1.396 . S
C1644 C1649 1.390 . S
C1645 C1639 1.465 . S
C1645 C1644 1.396 . S
C1645 C1646 1.399 . S
C1646 H1632 0.929 . S
C1646 C1645 1.399 . S
C1646 C1647 1.385 . S
C1647 H1633 0.931 . S
C1647 C1646 1.385 . S
C1647 C1648 1.389 . S
C1648 C1647 1.389 . S
C1648 C1649 1.387 . S
C1649 H1634 0.930 . S
C1649 C1644 1.390 . S
C1649 C1648 1.387 . S
H1650 C1662 0.930 . S
H1651 C1664 0.930 . S
H1652 C1665 0.930 . S
H1653 C1669 0.959 . S
H1654 C1669 0.959 . S
H1655 C1669 0.961 . S
H1656 C1670 0.960 . S
H1657 C1670 0.961 . S
H1658 C1670 0.959 . S
H1659 C1673 0.929 . S
H1660 C1674 0.931 . S
H1661 C1676 0.930 . S
C1662 H1650 0.930 . S
C1662 C1663 1.399 . S
C1662 C1667 1.399 . S
C1663 C1662 1.399 . S
C1663 C1664 1.376 . S
C1664 H1651 0.930 . S
C1664 C1663 1.376 . S
C1664 C1665 1.388 . S
C1665 H1652 0.930 . S
C1665 C1664 1.388 . S
C1665 C1666 1.390 . S
C1666 C1665 1.390 . S
C1666 C1667 1.394 . S
C1666 C1672 1.465 . S
C1667 C1662 1.399 . S
C1667 C1666 1.394 . S
C1667 C1668 1.516 . S
C1668 C1667 1.516 . S
C1668 C1669 1.502 . S
C1668 C1670 1.561 . S
C1668 C1671 1.526 . S
C1669 H1653 0.959 . S
C1669 H1654 0.959 . S
C1669 H1655 0.961 . S
C1669 C1668 1.502 . S
C1670 H1656 0.960 . S
C1670 H1657 0.961 . S
C1670 H1658 0.959 . S
C1670 C1668 1.561 . S
C1671 C1668 1.526 . S
C1671 C1672 1.396 . S
C1671 C1676 1.390 . S
C1672 C1666 1.465 . S
C1672 C1671 1.396 . S
C1672 C1673 1.399 . S
C1673 H1659 0.929 . S
C1673 C1672 1.399 . S
C1673 C1674 1.385 . S
C1674 H1660 0.931 . S
C1674 C1673 1.385 . S
C1674 C1675 1.389 . S
C1675 C1674 1.389 . S
C1675 C1676 1.387 . S
C1676 H1661 0.930 . S
C1676 C1671 1.390 . S
C1676 C1675 1.387 . S
H1677 C1689 0.930 . S
H1678 C1691 0.930 1_556 S
H1679 C1692 0.930 . S
H1680 C1696 0.959 . S
H1681 C1696 0.959 . S
H1682 C1696 0.961 . S
H1683 C1697 0.960 . S
H1684 C1697 0.961 . S
H1685 C1697 0.959 . S
H1686 C1700 0.929 . S
H1687 C1701 0.931 . S
H1688 C1703 0.930 . S
C1689 H1677 0.930 . S
C1689 C1690 1.399 . S
C1689 C1694 1.399 . S
C1690 C1689 1.399 . S
C1690 C1691 1.376 . S
C1691 H1678 0.930 1_554 S
C1691 C1690 1.376 . S
C1691 C1692 1.388 . S
C1692 H1679 0.930 . S
C1692 C1691 1.388 . S
C1692 C1693 1.390 . S
C1693 C1692 1.390 . S
C1693 C1694 1.394 . S
C1693 C1699 1.465 . S
C1694 C1689 1.399 . S
C1694 C1693 1.394 . S
C1694 C1695 1.516 . S
C1695 C1694 1.516 . S
C1695 C1696 1.502 . S
C1695 C1697 1.561 . S
C1695 C1698 1.526 . S
C1696 H1680 0.959 . S
C1696 H1681 0.959 . S
C1696 H1682 0.961 . S
C1696 C1695 1.502 . S
C1697 H1683 0.960 . S
C1697 H1684 0.961 . S
C1697 H1685 0.959 . S
C1697 C1695 1.561 . S
C1698 C1695 1.526 . S
C1698 C1699 1.396 . S
C1698 C1703 1.390 . S
C1699 C1693 1.465 . S
C1699 C1698 1.396 . S
C1699 C1700 1.399 . S
C1700 H1686 0.929 . S
C1700 C1699 1.399 . S
C1700 C1701 1.385 . S
C1701 H1687 0.931 . S
C1701 C1700 1.385 . S
C1701 C1702 1.389 . S
C1702 C1701 1.389 . S
C1702 C1703 1.387 . S
C1703 H1688 0.930 . S
C1703 C1698 1.390 . S
C1703 C1702 1.387 . S
H1704 C1716 0.930 . S
H1705 C1718 0.930 . S
H1706 C1719 0.930 . S
H1707 C1723 0.959 . S
H1708 C1723 0.959 . S
H1709 C1723 0.961 . S
H1710 C1724 0.960 . S
H1711 C1724 0.961 . S
H1712 C1724 0.959 . S
H1713 C1727 0.929 . S
H1714 C1728 0.931 . S
H1715 C1730 0.930 . S
C1716 H1704 0.930 . S
C1716 C1717 1.399 . S
C1716 C1721 1.399 . S
C1717 C1716 1.399 . S
C1717 C1718 1.376 . S
C1718 H1705 0.930 . S
C1718 C1717 1.376 . S
C1718 C1719 1.388 . S
C1719 H1706 0.930 . S
C1719 C1718 1.388 . S
C1719 C1720 1.390 . S
C1720 C1719 1.390 . S
C1720 C1721 1.394 . S
C1720 C1726 1.465 . S
C1721 C1716 1.399 . S
C1721 C1720 1.394 . S
C1721 C1722 1.516 . S
C1722 C1721 1.516 . S
C1722 C1723 1.502 . S
C1722 C1724 1.561 . S
C1722 C1725 1.526 . S
C1723 H1707 0.959 . S
C1723 H1708 0.959 . S
C1723 H1709 0.961 . S
C1723 C1722 1.502 . S
C1724 H1710 0.960 . S
C1724 H1711 0.961 . S
C1724 H1712 0.959 . S
C1724 C1722 1.561 . S
C1725 C1722 1.526 . S
C1725 C1726 1.396 . S
C1725 C1730 1.390 . S
C1726 C1720 1.465 . S
C1726 C1725 1.396 . S
C1726 C1727 1.399 . S
C1727 H1713 0.929 . S
C1727 C1726 1.399 . S
C1727 C1728 1.385 . S
C1728 H1714 0.931 . S
C1728 C1727 1.385 . S
C1728 C1729 1.389 . S
C1729 C1728 1.389 . S
C1729 C1730 1.387 . S
C1730 H1715 0.930 . S
C1730 C1725 1.390 . S
C1730 C1729 1.387 . S
H1731 C1743 0.930 . S
H1732 C1745 0.930 . S
H1733 C1746 0.930 . S
H1734 C1750 0.959 . S
H1735 C1750 0.959 . S
H1736 C1750 0.961 . S
H1737 C1751 0.960 . S
H1738 C1751 0.961 . S
H1739 C1751 0.959 . S
H1740 C1754 0.929 . S
H1741 C1755 0.931 . S
H1742 C1757 0.930 . S
C1743 H1731 0.930 . S
C1743 C1744 1.399 . S
C1743 C1748 1.399 . S
C1744 C1743 1.399 . S
C1744 C1745 1.376 . S
C1745 H1732 0.930 . S
C1745 C1744 1.376 . S
C1745 C1746 1.388 . S
C1746 H1733 0.930 . S
C1746 C1745 1.388 . S
C1746 C1747 1.390 . S
C1747 C1746 1.390 . S
C1747 C1748 1.394 . S
C1747 C1753 1.465 . S
C1748 C1743 1.399 . S
C1748 C1747 1.394 . S
C1748 C1749 1.516 . S
C1749 C1748 1.516 . S
C1749 C1750 1.502 . S
C1749 C1751 1.561 . S
C1749 C1752 1.526 . S
C1750 H1734 0.959 . S
C1750 H1735 0.959 . S
C1750 H1736 0.961 . S
C1750 C1749 1.502 . S
C1751 H1737 0.960 . S
C1751 H1738 0.961 . S
C1751 H1739 0.959 . S
C1751 C1749 1.561 . S
C1752 C1749 1.526 . S
C1752 C1753 1.396 . S
C1752 C1757 1.390 . S
C1753 C1747 1.465 . S
C1753 C1752 1.396 . S
C1753 C1754 1.399 . S
C1754 H1740 0.929 . S
C1754 C1753 1.399 . S
C1754 C1755 1.385 . S
C1755 H1741 0.931 . S
C1755 C1754 1.385 . S
C1755 C1756 1.389 . S
C1756 C1755 1.389 . S
C1756 C1757 1.387 . S
C1757 H1742 0.930 . S
C1757 C1752 1.390 . S
C1757 C1756 1.387 . S
H1758 C1770 0.930 . S
H1759 C1772 0.930 . S
H1760 C1773 0.930 . S
H1761 C1777 0.959 . S
H1762 C1777 0.959 . S
H1763 C1777 0.961 . S
H1764 C1778 0.960 . S
H1765 C1778 0.961 . S
H1766 C1778 0.959 . S
H1767 C1781 0.929 . S
H1768 C1782 0.931 . S
H1769 C1784 0.930 . S
C1770 H1758 0.930 . S
C1770 C1771 1.399 . S
C1770 C1775 1.399 . S
C1771 C1770 1.399 . S
C1771 C1772 1.376 . S
C1772 H1759 0.930 . S
C1772 C1771 1.376 . S
C1772 C1773 1.388 . S
C1773 H1760 0.930 . S
C1773 C1772 1.388 . S
C1773 C1774 1.390 . S
C1774 C1773 1.390 . S
C1774 C1775 1.394 . S
C1774 C1780 1.465 . S
C1775 C1770 1.399 . S
C1775 C1774 1.394 . S
C1775 C1776 1.516 . S
C1776 C1775 1.516 . S
C1776 C1777 1.502 . S
C1776 C1778 1.561 . S
C1776 C1779 1.526 . S
C1777 H1761 0.959 . S
C1777 H1762 0.959 . S
C1777 H1763 0.961 . S
C1777 C1776 1.502 . S
C1778 H1764 0.960 . S
C1778 H1765 0.961 . S
C1778 H1766 0.959 . S
C1778 C1776 1.561 . S
C1779 C1776 1.526 . S
C1779 C1780 1.396 . S
C1779 C1784 1.390 . S
C1780 C1774 1.465 . S
C1780 C1779 1.396 . S
C1780 C1781 1.399 . S
C1781 H1767 0.929 . S
C1781 C1780 1.399 . S
C1781 C1782 1.385 . S
C1782 H1768 0.931 . S
C1782 C1781 1.385 . S
C1782 C1783 1.389 . S
C1783 C1782 1.389 . S
C1783 C1784 1.387 . S
C1784 H1769 0.930 . S
C1784 C1779 1.390 . S
C1784 C1783 1.387 . S
H1785 C1797 0.930 . S
H1786 C1799 0.930 . S
H1787 C1800 0.930 . S
H1788 C1804 0.959 . S
H1789 C1804 0.959 . S
H1790 C1804 0.961 . S
H1791 C1805 0.960 . S
H1792 C1805 0.961 . S
H1793 C1805 0.959 . S
H1794 C1808 0.929 . S
H1795 C1809 0.931 . S
H1796 C1811 0.930 . S
C1797 H1785 0.930 . S
C1797 C1798 1.399 . S
C1797 C1802 1.399 . S
C1798 C1797 1.399 . S
C1798 C1799 1.376 . S
C1799 H1786 0.930 . S
C1799 C1798 1.376 . S
C1799 C1800 1.388 . S
C1800 H1787 0.930 . S
C1800 C1799 1.388 . S
C1800 C1801 1.390 . S
C1801 C1800 1.390 . S
C1801 C1802 1.394 . S
C1801 C1807 1.465 . S
C1802 C1797 1.399 . S
C1802 C1801 1.394 . S
C1802 C1803 1.516 . S
C1803 C1802 1.516 . S
C1803 C1804 1.502 . S
C1803 C1805 1.561 . S
C1803 C1806 1.526 . S
C1804 H1788 0.959 . S
C1804 H1789 0.959 . S
C1804 H1790 0.961 . S
C1804 C1803 1.502 . S
C1805 H1791 0.960 . S
C1805 H1792 0.961 . S
C1805 H1793 0.959 . S
C1805 C1803 1.561 . S
C1806 C1803 1.526 . S
C1806 C1807 1.396 . S
C1806 C1811 1.390 . S
C1807 C1801 1.465 . S
C1807 C1806 1.396 . S
C1807 C1808 1.399 . S
C1808 H1794 0.929 . S
C1808 C1807 1.399 . S
C1808 C1809 1.385 . S
C1809 H1795 0.931 . S
C1809 C1808 1.385 . S
C1809 C1810 1.389 . S
C1810 C1809 1.389 . S
C1810 C1811 1.387 . S
C1811 H1796 0.930 . S
C1811 C1806 1.390 . S
C1811 C1810 1.387 . S
H1812 C1824 0.930 1_554 S
H1813 C1826 0.930 . S
H1814 C1827 0.930 . S
H1815 C1831 0.959 . S
H1816 C1831 0.959 . S
H1817 C1831 0.961 . S
H1818 C1832 0.960 . S
H1819 C1832 0.961 . S
H1820 C1832 0.959 . S
H1821 C1835 0.929 . S
H1822 C1836 0.931 . S
H1823 C1838 0.930 . S
C1824 H1812 0.930 1_556 S
C1824 C1825 1.399 . S
C1824 C1829 1.399 . S
C1825 C1824 1.399 . S
C1825 C1826 1.376 . S
C1826 H1813 0.930 . S
C1826 C1825 1.376 . S
C1826 C1827 1.388 . S
C1827 H1814 0.930 . S
C1827 C1826 1.388 . S
C1827 C1828 1.390 . S
C1828 C1827 1.390 . S
C1828 C1829 1.394 . S
C1828 C1834 1.465 . S
C1829 C1824 1.399 . S
C1829 C1828 1.394 . S
C1829 C1830 1.516 1_556 S
C1830 C1829 1.516 1_554 S
C1830 C1831 1.502 . S
C1830 C1832 1.561 . S
C1830 C1833 1.526 . S
C1831 H1815 0.959 . S
C1831 H1816 0.959 . S
C1831 H1817 0.961 . S
C1831 C1830 1.502 . S
C1832 H1818 0.960 . S
C1832 H1819 0.961 . S
C1832 H1820 0.959 . S
C1832 C1830 1.561 . S
C1833 C1830 1.526 . S
C1833 C1834 1.396 1_554 S
C1833 C1838 1.390 . S
C1834 C1828 1.465 . S
C1834 C1833 1.396 1_556 S
C1834 C1835 1.399 . S
C1835 H1821 0.929 . S
C1835 C1834 1.399 . S
C1835 C1836 1.385 . S
C1836 H1822 0.931 . S
C1836 C1835 1.385 . S
C1836 C1837 1.389 . S
C1837 C1836 1.389 . S
C1837 C1838 1.387 1_556 S
C1838 H1823 0.930 . S
C1838 C1833 1.390 . S
C1838 C1837 1.387 1_554 S
H1839 C1851 0.930 . S
H1840 C1853 0.930 . S
H1841 C1854 0.930 . S
H1842 C1858 0.959 . S
H1843 C1858 0.959 . S
H1844 C1858 0.961 . S
H1845 C1859 0.960 . S
H1846 C1859 0.961 . S
H1847 C1859 0.959 . S
H1848 C1862 0.929 . S
H1849 C1863 0.931 . S
H1850 C1865 0.930 . S
C1851 H1839 0.930 . S
C1851 C1852 1.399 . S
C1851 C1856 1.399 . S
C1852 C1851 1.399 . S
C1852 C1853 1.376 . S
C1853 H1840 0.930 . S
C1853 C1852 1.376 . S
C1853 C1854 1.388 . S
C1854 H1841 0.930 . S
C1854 C1853 1.388 . S
C1854 C1855 1.390 . S
C1855 C1854 1.390 . S
C1855 C1856 1.394 . S
C1855 C1861 1.465 . S
C1856 C1851 1.399 . S
C1856 C1855 1.394 . S
C1856 C1857 1.516 . S
C1857 C1856 1.516 . S
C1857 C1858 1.502 . S
C1857 C1859 1.561 . S
C1857 C1860 1.526 . S
C1858 H1842 0.959 . S
C1858 H1843 0.959 . S
C1858 H1844 0.961 . S
C1858 C1857 1.502 . S
C1859 H1845 0.960 . S
C1859 H1846 0.961 . S
C1859 H1847 0.959 . S
C1859 C1857 1.561 . S
C1860 C1857 1.526 . S
C1860 C1861 1.396 . S
C1860 C1865 1.390 . S
C1861 C1855 1.465 . S
C1861 C1860 1.396 . S
C1861 C1862 1.399 . S
C1862 H1848 0.929 . S
C1862 C1861 1.399 . S
C1862 C1863 1.385 . S
C1863 H1849 0.931 . S
C1863 C1862 1.385 . S
C1863 C1864 1.389 . S
C1864 C1863 1.389 . S
C1864 C1865 1.387 . S
C1865 H1850 0.930 . S
C1865 C1860 1.390 . S
C1865 C1864 1.387 . S
H1866 C1878 0.930 . S
H1867 C1880 0.958 . S
H1868 C1881 0.930 1_556 S
H1869 C1885 0.959 . S
H1870 C1885 0.959 . S
H1871 C1885 0.961 . S
H1872 C1886 0.960 . S
H1873 C1886 0.961 . S
H1874 C1886 0.959 . S
H1875 C1889 0.929 . S
H1876 C1890 0.931 . S
H1877 C1892 0.930 . S
C1878 H1866 0.930 . S
C1878 C1879 1.399 . S
C1878 C1883 1.399 . S
C1879 C1878 1.399 . S
C1879 C1880 1.376 . S
C1880 H1867 0.958 . S
C1880 C1879 1.376 . S
C1880 C1881 1.388 . S
C1881 H1868 0.930 1_554 S
C1881 C1880 1.388 . S
C1881 C1882 1.390 . S
C1882 C1881 1.390 . S
C1882 C1883 1.394 . S
C1882 C1888 1.465 . S
C1883 C1878 1.399 . S
C1883 C1882 1.394 . S
C1883 C1884 1.516 . S
C1884 C1883 1.516 . S
C1884 C1885 1.502 . S
C1884 C1886 1.561 . S
C1884 C1887 1.526 . S
C1885 H1869 0.959 . S
C1885 H1870 0.959 . S
C1885 H1871 0.961 . S
C1885 C1884 1.502 . S
C1886 H1872 0.960 . S
C1886 H1873 0.961 . S
C1886 H1874 0.959 . S
C1886 C1884 1.561 . S
C1887 C1884 1.526 . S
C1887 C1888 1.396 . S
C1887 C1892 1.390 . S
C1888 C1882 1.465 . S
C1888 C1887 1.396 . S
C1888 C1889 1.399 1_554 S
C1889 H1875 0.929 . S
C1889 C1888 1.399 1_556 S
C1889 C1890 1.385 . S
C1890 H1876 0.931 . S
C1890 C1889 1.385 . S
C1890 C1891 1.389 1_556 S
C1891 C1890 1.389 1_554 S
C1891 C1892 1.387 . S
C1892 H1877 0.930 . S
C1892 C1887 1.390 . S
C1892 C1891 1.387 . S
H1893 C1905 0.938 . S
H1894 C1907 0.930 1_556 S
H1895 C1908 0.930 1_556 S
H1896 C1912 0.964 . S
H1897 C1912 0.959 . S
H1898 C1912 0.960 . S
H1899 C1913 0.960 . S
H1900 C1913 0.961 . S
H1901 C1913 0.959 . S
H1902 C1916 0.929 . S
H1903 C1917 0.970 . S
H1904 C1919 0.930 . S
C1905 H1893 0.938 . S
C1905 C1906 1.399 . S
C1905 C1910 1.399 . S
C1906 C1905 1.399 . S
C1906 C1907 1.376 . S
C1907 H1894 0.930 1_554 S
C1907 C1906 1.376 . S
C1907 C1908 1.388 . S
C1908 H1895 0.930 1_554 S
C1908 C1907 1.388 . S
C1908 C1909 1.390 . S
C1909 C1908 1.390 . S
C1909 C1910 1.394 . S
C1909 C1915 1.465 . S
C1910 C1905 1.399 . S
C1910 C1909 1.394 . S
C1910 C1911 1.516 . S
C1911 C1910 1.516 . S
C1911 C1912 1.502 . S
C1911 C1913 1.561 . S
C1911 C1914 1.526 . S
C1912 H1896 0.964 . S
C1912 H1897 0.959 . S
C1912 H1898 0.960 . S
C1912 C1911 1.502 . S
C1913 H1899 0.960 . S
C1913 H1900 0.961 . S
C1913 H1901 0.959 . S
C1913 C1911 1.561 . S
C1914 C1911 1.526 . S
C1914 C1915 1.396 . S
C1914 C1919 1.390 . S
C1915 C1909 1.465 . S
C1915 C1914 1.396 . S
C1915 C1916 1.399 1_554 S
C1916 H1902 0.929 . S
C1916 C1915 1.399 1_556 S
C1916 C1917 1.390 . S
C1917 H1903 0.970 . S
C1917 C1916 1.390 . S
C1917 C1918 1.348 1_556 S
C1918 C1917 1.348 1_554 S
C1918 C1919 1.387 . S
C1919 H1904 0.930 . S
C1919 C1914 1.390 . S
C1919 C1918 1.387 . S
C649 C194 1.672 . S
C637 C66 1.676 . S
C676 C242 1.227 . S
C664 C76 1.286 . S
C691 C93 1.719 . S
C703 C278 1.644 . S
C730 C314 1.506 . S
C718 C54 1.591 . S
C757 C340 1.452 . S
C745 C126 1.455 . S
C784 C376 1.857 . S
C772 C150 1.867 . S
C799 C136 1.207 . S
C811 C411 1.209 . S
C838 C448 1.788 . S
C826 C117 1.826 . S
C853 C141 1.247 . S
C865 C482 1.227 . S
C892 C530 1.377 . S
C880 C112 1.400 . S
C907 C124 1.479 . S
C919 C483 1.492 . S
C946 C520 1.418 . S
C934 C148 1.400 . S
C961 C88 1.263 . S
C973 C566 1.153 . S
C988 C52 1.684 . S
C1000 C555 1.683 . S
C1015 C64 1.223 . S
C1027 C556 1.261 . S
C1042 C78 1.322 . S
C1054 C554 1.329 . S
C1069 C45 1.597 . S
C1081 C302 1.628 . S
C1096 C177 1.770 . S
C1108 C303 1.791 . S
C1135 C206 1.443 . S
C1123 C189 1.559 . S
C1162 C231 1.555 . S
C1150 C102 1.545 . S
C1177 C57 1.793 . S
C1189 C338 1.808 . S
C1216 C446 1.385 . S
C1204 C138 1.448 . S
C1243 C339 1.773 . S
C1231 C114 1.784 . S
C1270 C412 1.816 . S
C1258 C153 1.805 . S
C1297 C410 1.685 . S
C1285 C174 1.679 . S
C1312 C184 1.280 . S
C1324 C458 1.220 . S
C1339 C105 1.728 . S
C1351 C350 1.684 . S
C1378 C386 1.572 . S
C1366 C162 1.586 . S
C1393 C42 1.441 . S
C1405 C268 1.453 . S
C1432 C304 1.833 . S
C1420 C6 1.875 . S
C1459 C195 1.227 . S
C1447 C16 1.162 . S
C1486 C232 1.823 . S
C1474 C33 1.814 1_455 S
C1501 C21 1.246 . S
C1513 C518 1.229 . S
C1528 C28 1.358 1_556 S
C1540 C494 1.349 . S
C1555 C40 1.498 . S
C1567 C519 1.494 . S
C1582 C4 1.407 . S
C1594 C484 1.416 . S
C1621 C602 1.260 . S
C1609 C100 1.270 . S
C1648 C591 1.668 . S
C1636 C160 1.675 . S
C1675 C592 1.270 . S
C1663 C172 1.246 . S
C1690 C186 1.326 1_554 S
C1702 C590 1.300 . S
C1717 C129 1.626 . S
C1729 C374 1.611 . S
C1756 C375 1.790 . S
C1744 C69 1.771 . S
C1783 C422 1.526 . S
C1771 C81 1.551 . S
C1810 C447 1.555 . S
C1798 C90 1.547 . S
C1825 C165 1.801 . S
C1837 C266 1.810 1_556 S
C1864 C230 1.394 . S
C1852 C18 1.452 . S
C1879 C30 1.786 . S
C1891 C267 1.791 . S
C1918 C196 1.797 . S
C1906 C9 1.815 1_565 S
