# Generated by pormake.
# Topology zzz, (3,6)-cn, num edge types: 1
# Building blocks:
#     Node 0, Type 0, BuildingBlock: VETTIZ_charged_linker_0, # of connection points: 3
#     Node 1, Type 0, BuildingBlock: VETTIZ_charged_linker_0, # of connection points: 3
#     Node 2, Type 0, BuildingBlock: VETTIZ_charged_linker_0, # of connection points: 3
#     Node 3, Type 0, BuildingBlock: VETTIZ_charged_linker_0, # of connection points: 3
#     Node 4, Type 0, BuildingBlock: VETTIZ_charged_linker_0, # of connection points: 3
#     Node 5, Type 0, BuildingBlock: VETTIZ_charged_linker_0, # of connection points: 3
#     Node 6, Type 0, BuildingBlock: VETTIZ_charged_linker_0, # of connection points: 3
#     Node 7, Type 0, BuildingBlock: VETTIZ_charged_linker_0, # of connection points: 3
#     Node 8, Type 1, BuildingBlock: CUKXOW_clean_sbu_0, # of connection points: 6
#     Node 9, Type 1, BuildingBlock: CUKXOW_clean_sbu_0, # of connection points: 6
#     Node 10, Type 1, BuildingBlock: CUKXOW_clean_sbu_0, # of connection points: 6
#     Node 11, Type 1, BuildingBlock: CUKXOW_clean_sbu_0, # of connection points: 6
#     Edge 12, Type (0, 1), BuildingBlock: CIFDUS_clean_linker_0, # of connection points: 2
#     Edge 13, Type (0, 1), BuildingBlock: CIFDUS_clean_linker_0, # of connection points: 2
#     Edge 14, Type (0, 1), BuildingBlock: CIFDUS_clean_linker_0, # of connection points: 2
#     Edge 15, Type (0, 1), BuildingBlock: CIFDUS_clean_linker_0, # of connection points: 2
#     Edge 16, Type (0, 1), BuildingBlock: CIFDUS_clean_linker_0, # of connection points: 2
#     Edge 17, Type (0, 1), BuildingBlock: CIFDUS_clean_linker_0, # of connection points: 2
#     Edge 18, Type (0, 1), BuildingBlock: CIFDUS_clean_linker_0, # of connection points: 2
#     Edge 19, Type (0, 1), BuildingBlock: CIFDUS_clean_linker_0, # of connection points: 2
#     Edge 20, Type (0, 1), BuildingBlock: CIFDUS_clean_linker_0, # of connection points: 2
#     Edge 21, Type (0, 1), BuildingBlock: CIFDUS_clean_linker_0, # of connection points: 2
#     Edge 22, Type (0, 1), BuildingBlock: CIFDUS_clean_linker_0, # of connection points: 2
#     Edge 23, Type (0, 1), BuildingBlock: CIFDUS_clean_linker_0, # of connection points: 2
#     Edge 24, Type (0, 1), BuildingBlock: CIFDUS_clean_linker_0, # of connection points: 2
#     Edge 25, Type (0, 1), BuildingBlock: CIFDUS_clean_linker_0, # of connection points: 2
#     Edge 26, Type (0, 1), BuildingBlock: CIFDUS_clean_linker_0, # of connection points: 2
#     Edge 27, Type (0, 1), BuildingBlock: CIFDUS_clean_linker_0, # of connection points: 2
#     Edge 28, Type (0, 1), BuildingBlock: CIFDUS_clean_linker_0, # of connection points: 2
#     Edge 29, Type (0, 1), BuildingBlock: CIFDUS_clean_linker_0, # of connection points: 2
#     Edge 30, Type (0, 1), BuildingBlock: CIFDUS_clean_linker_0, # of connection points: 2
#     Edge 31, Type (0, 1), BuildingBlock: CIFDUS_clean_linker_0, # of connection points: 2
#     Edge 32, Type (0, 1), BuildingBlock: CIFDUS_clean_linker_0, # of connection points: 2
#     Edge 33, Type (0, 1), BuildingBlock: CIFDUS_clean_linker_0, # of connection points: 2
#     Edge 34, Type (0, 1), BuildingBlock: CIFDUS_clean_linker_0, # of connection points: 2
#     Edge 35, Type (0, 1), BuildingBlock: CIFDUS_clean_linker_0, # of connection points: 2
# Relax obj value: 0.219
# Max RMSD: 0.234
# Mean RMSD: 0.189
data_MOF--net-zzz--node1-CUKXOW_clean_sbu_0--node2-VETTIZ_charged_linker_0--edge1-CIFDUS_clean_linker_0
_symmetry_space_group_name_H-M    P1
_symmetry_Int_Tables_number       1
_symmetry_cell_setting            triclinic
loop_
_symmetry_equiv_pos_as_xyz
'x, y, z'
_cell_length_a     51.558655
_cell_length_b     51.294089
_cell_length_c     18.455476
_cell_angle_alpha  92.757711
_cell_angle_beta   87.902921
_cell_angle_gamma 95.42541
loop_
_atom_site_label
_atom_site_type_symbol
_atom_site_fract_x
_atom_site_fract_y
_atom_site_fract_z
_atom_type_partial_charge
C0 C 0.79199 0.47417 0.35613 0.0
C1 C 0.81352 0.46252 0.38261 0.0
C2 C 0.82114 0.43933 0.34702 0.0
C3 C 0.79252 0.44459 0.25043 0.0
C4 C 0.78106 0.46396 0.29028 0.0
C5 C 0.75674 0.47049 0.25311 0.0
H6 H 0.69369 0.46549 0.93054 0.0
C7 C 0.78184 0.44199 0.17829 0.0
C8 C 0.75966 0.45584 0.17913 0.0
H9 H 0.66215 0.48881 0.14122 0.0
H10 H 0.70287 0.48098 0.19654 0.0
H11 H 0.74823 0.49436 0.94819 0.0
H12 H 0.71929 0.4145 0.9777 0.0
H13 H 0.74927 0.41516 0.92766 0.0
H14 H 0.72253 0.43025 0.89249 0.0
H15 H 0.74957 0.47018 0.87535 0.0
H16 H 0.77604 0.47713 0.93677 0.0
C17 C 0.75737 0.50034 0.24577 0.0
C18 C 0.73268 0.45889 0.29741 0.0
C19 C 0.84808 0.42848 0.97605 0.0
C20 C 0.84821 0.43252 0.90133 0.0
C21 C 0.8242 0.43463 0.86859 0.0
C22 C 0.801 0.43504 0.91086 0.0
C23 C 0.80184 0.43357 0.98662 0.0
C24 C 0.82496 0.42934 0.01753 0.0
C25 C 0.82278 0.42902 0.09881 0.0
C26 C 0.79448 0.43494 0.11184 0.0
C27 C 0.78261 0.43821 0.0462 0.0
C28 C 0.84223 0.45121 0.13053 0.0
C29 C 0.82807 0.40141 0.12246 0.0
C30 C 0.69549 0.46898 0.98859 0.0
C31 C 0.67468 0.4777 0.03151 0.0
C32 C 0.67781 0.48181 0.1071 0.0
C33 C 0.70123 0.47701 0.1392 0.0
C34 C 0.72146 0.46741 0.09555 0.0
C35 C 0.71835 0.4637 0.02145 0.0
C36 C 0.74165 0.45323 0.98304 0.0
C37 C 0.75824 0.44902 0.04682 0.0
C38 C 0.74673 0.4579 0.1128 0.0
C39 C 0.75457 0.47462 0.93294 0.0
C40 C 0.73285 0.42693 0.94256 0.0
H41 H 0.81639 0.41236 0.25628 0.0
H42 H 0.78448 0.4909 0.38486 0.0
H43 H 0.73687 0.44083 0.32417 0.0
H44 H 0.71595 0.45261 0.26301 0.0
H45 H 0.72664 0.47313 0.34062 0.0
H46 H 0.77571 0.50792 0.21722 0.0
H47 H 0.75637 0.51062 0.30003 0.0
H48 H 0.7409 0.50559 0.21448 0.0
H49 H 0.86601 0.42679 0.00333 0.0
H50 H 0.8235 0.43706 0.81076 0.0
H51 H 0.78347 0.43752 0.88341 0.0
H52 H 0.8383 0.47049 0.11035 0.0
H53 H 0.86266 0.44773 0.11509 0.0
H54 H 0.84135 0.45284 0.19025 0.0
H55 H 0.83528 0.38882 0.07674 0.0
H56 H 0.81007 0.39059 0.14473 0.0
H57 H 0.84336 0.40264 0.16367 0.0
H58 H 0.8368 0.42924 0.36693 0.0
C59 C 0.81026 0.43004 0.28176 0.0
C60 C 0.92282 0.81779 0.84305 0.0
C61 C 0.91821 0.84423 0.85724 0.0
C62 C 0.899 0.85025 0.91043 0.0
C63 C 0.89756 0.80643 0.95156 0.0
C64 C 0.91162 0.79896 0.89047 0.0
C65 C 0.91489 0.77007 0.8885 0.0
H66 H 0.93893 0.66641 0.05731 0.0
C67 C 0.89577 0.78526 0.00235 0.0
C68 C 0.90288 0.76282 0.96309 0.0
H69 H 0.90416 0.66505 0.84678 0.0
H70 H 0.89101 0.70907 0.87461 0.0
H71 H 0.96529 0.72981 0.06601 0.0
H72 H 0.88974 0.69347 0.13377 0.0
H73 H 0.90071 0.71723 0.20051 0.0
H74 H 0.91868 0.68903 0.18131 0.0
H75 H 0.96124 0.70691 0.13715 0.0
H76 H 0.9571 0.74106 0.15489 0.0
C77 C 0.9441 0.76558 0.88234 0.0
C78 C 0.89995 0.75674 0.82363 0.0
C79 C 0.91445 0.81749 0.26052 0.0
C80 C 0.92708 0.80696 0.317 0.0
C81 C 0.93214 0.78037 0.31048 0.0
C82 C 0.92556 0.76494 0.24755 0.0
C83 C 0.91444 0.77638 0.1897 0.0
C84 C 0.90895 0.80224 0.19711 0.0
C85 C 0.89823 0.81179 0.12957 0.0
C86 C 0.8989 0.78745 0.07893 0.0
C87 C 0.90814 0.76667 0.11494 0.0
C88 C 0.91628 0.83577 0.10311 0.0
C89 C 0.86997 0.81825 0.1471 0.0
C90 C 0.9297 0.676 0.01544 0.0
C91 C 0.92372 0.66272 0.94846 0.0
C92 C 0.90993 0.67517 0.89736 0.0
C93 C 0.90355 0.70086 0.91089 0.0
C94 C 0.91216 0.7145 0.97394 0.0
C95 C 0.92301 0.70179 0.02768 0.0
C96 C 0.9244 0.71846 0.09761 0.0
C97 C 0.91235 0.74286 0.07542 0.0
C98 C 0.90723 0.74062 0.00142 0.0
C99 C 0.95348 0.72438 0.11561 0.0
C100 C 0.90769 0.70386 0.15696 0.0
H101 H 0.87472 0.83656 0.99959 0.0
H102 H 0.9365 0.81231 0.80042 0.0
H103 H 0.90147 0.76947 0.77628 0.0
H104 H 0.87892 0.75236 0.83805 0.0
H105 H 0.9084 0.73854 0.80376 0.0
H106 H 0.95489 0.77624 0.92754 0.0
H107 H 0.95298 0.77246 0.8301 0.0
H108 H 0.94682 0.74443 0.88439 0.0
H109 H 0.91043 0.83786 0.26342 0.0
H110 H 0.94158 0.77165 0.35355 0.0
H111 H 0.93004 0.74492 0.24551 0.0
H112 H 0.92777 0.84617 0.14717 0.0
H113 H 0.90502 0.85095 0.08208 0.0
H114 H 0.93072 0.82978 0.06084 0.0
H115 H 0.85904 0.80247 0.17825 0.0
H116 H 0.85895 0.81986 0.09756 0.0
H117 H 0.86976 0.83693 0.18014 0.0
H118 H 0.89379 0.87016 0.91936 0.0
C119 C 0.88847 0.83123 0.95765 0.0
C120 C 0.82211 0.00347 0.07492 0.0
C121 C 0.83133 0.99673 0.00382 0.0
C122 C 0.81341 0.98518 0.95319 0.0
C123 C 0.77838 0.98552 0.04337 0.0
C124 C 0.79542 0.99732 0.09386 0.0
C125 C 0.78136 0.00179 0.16666 0.0
H126 H 0.67052 0.96888 0.37363 0.0
C127 C 0.75285 0.9792 0.07937 0.0
C128 C 0.75446 0.98741 0.15306 0.0
H129 H 0.73103 0.02937 0.43028 0.0
H130 H 0.75585 0.01827 0.31882 0.0
H131 H 0.65977 0.988 0.25682 0.0
H132 H 0.70433 0.92497 0.28041 0.0
H133 H 0.68548 0.9172 0.20308 0.0
H134 H 0.6696 0.92599 0.28844 0.0
H135 H 0.64706 0.95656 0.22404 0.0
H136 H 0.66444 0.97984 0.16469 0.0
C137 C 0.77991 0.0316 0.17939 0.0
C138 C 0.79546 0.98955 0.22693 0.0
C139 C 0.67102 0.95643 0.94059 0.0
C140 C 0.64507 0.95104 0.9671 0.0
C141 C 0.64099 0.93936 0.0349 0.0
C142 C 0.66183 0.93729 0.07966 0.0
C143 C 0.68661 0.94826 0.05834 0.0
C144 C 0.69158 0.95515 0.98773 0.0
C145 C 0.72013 0.96354 0.9742 0.0
C146 C 0.7296 0.96595 0.05205 0.0
C147 C 0.70956 0.95738 0.10067 0.0
C148 C 0.72314 0.99025 0.9377 0.0
C149 C 0.73226 0.9413 0.92819 0.0
C150 C 0.68957 0.97919 0.36359 0.0
C151 C 0.6991 -0.00053 0.41137 0.0
C152 C 0.72337 0.01341 0.39434 0.0
C153 C 0.73747 0.00725 0.32928 0.0
C154 C 0.72641 0.98806 0.27923 0.0
C155 C 0.70251 0.9749 0.2971 0.0
C156 C 0.69023 0.9597 0.23427 0.0
C157 C 0.71102 0.96493 0.17536 0.0
C158 C 0.73275 0.9809 0.20162 0.0
C159 C 0.6641 0.97136 0.21889 0.0
C160 C 0.68701 0.93037 0.25227 0.0
H161 H 0.77472 0.97055 0.93177 0.0
H162 H 0.8354 0.01252 0.11482 0.0
H163 H 0.79776 0.96857 0.21255 0.0
H164 H 0.78455 0.99041 0.27948 0.0
H165 H 0.81515 -0.0001 0.23464 0.0
H166 H 0.77524 0.04065 0.12842 0.0
H167 H 0.79883 0.04133 0.19799 0.0
H168 H 0.76437 0.03634 0.21904 0.0
H169 H 0.67511 0.96337 0.88658 0.0
H170 H 0.62165 0.93389 0.05706 0.0
H171 H 0.65764 0.92897 0.13135 0.0
H172 H 0.7117 0.00462 0.96878 0.0
H173 H 0.71611 0.98815 0.88136 0.0
H174 H 0.74358 -0.00113 0.93481 0.0
H175 H 0.71818 0.92375 0.9188 0.0
H176 H 0.74887 0.93413 0.95562 0.0
H177 H 0.73912 0.94788 0.87369 0.0
H178 H 0.81981 0.9803 0.89802 0.0
C179 C 0.78721 0.97947 0.97264 0.0
C180 C 0.59927 0.70921 0.35472 0.0
C181 C 0.60794 0.68494 0.37225 0.0
C182 C 0.6268 0.6739 0.32574 0.0
C183 C 0.62107 0.70549 0.23722 0.0
C184 C 0.60661 0.71944 0.28675 0.0
C185 C 0.59944 0.74439 0.255 0.0
H186 H 0.57916 0.8053 0.94583 0.0
C187 C 0.61979 0.71644 0.166 0.0
C188 C 0.60831 0.74019 0.17566 0.0
H189 H 0.57243 0.83851 0.1647 0.0
H190 H 0.5871 0.79889 0.2113 0.0
H191 H 0.63466 0.78145 0.96043 0.0
H192 H 0.55417 0.75491 0.97044 0.0
H193 H 0.56825 0.72515 0.9577 0.0
H194 H 0.57306 0.74935 0.88931 0.0
H195 H 0.61291 0.7773 0.886 0.0
H196 H 0.63084 0.75088 0.91187 0.0
C197 C 0.6155 0.76784 0.29274 0.0
C198 C 0.56968 0.74574 0.26356 0.0
C199 C 0.6125 0.65077 0.95416 0.0
C200 C 0.59976 0.6522 0.88853 0.0
C201 C 0.5985 0.67704 0.85997 0.0
C202 C 0.60633 0.69988 0.90102 0.0
C203 C 0.61415 0.69788 0.97249 0.0
C204 C 0.61834 0.67369 0.99696 0.0
C205 C 0.62425 0.67486 0.07642 0.0
C206 C 0.62158 0.7038 0.0961 0.0
C207 C 0.61523 0.71687 0.03517 0.0
C208 C 0.65233 0.66717 0.0851 0.0
C209 C 0.60309 0.65651 0.11556 0.0
C210 C 0.58148 0.8046 0.00379 0.0
C211 C 0.57517 0.82539 0.05129 0.0
C212 C 0.57729 0.82282 0.12671 0.0
C213 C 0.58602 0.79998 0.1536 0.0
C214 C 0.59254 0.77956 0.10454 0.0
C215 C 0.59028 0.78232 0.03107 0.0
C216 C 0.59722 0.75883 0.98597 0.0
C217 C 0.60607 0.74206 0.0439 0.0
C218 C 0.60273 0.75387 0.11363 0.0
C219 C 0.62002 0.76743 0.93272 0.0
C220 C 0.57208 0.74638 0.9486 0.0
H221 H 0.64752 0.67512 0.22394 0.0
H222 H 0.58605 0.71909 0.39112 0.0
H223 H 0.55916 0.72724 0.24188 0.0
H224 H 0.56291 0.76187 0.234 0.0
H225 H 0.56368 0.74861 0.32159 0.0
H226 H 0.63489 0.76237 0.30802 0.0
H227 H 0.60529 0.77475 0.3431 0.0
H228 H 0.61992 0.78441 0.25682 0.0
H229 H 0.61522 0.63197 0.97547 0.0
H230 H 0.58944 0.67907 0.80884 0.0
H231 H 0.60408 0.71818 0.87756 0.0
H232 H 0.66217 0.66236 0.03213 0.0
H233 H 0.65238 0.64956 0.11787 0.0
H234 H 0.66496 0.68343 0.11125 0.0
H235 H 0.58327 0.66199 0.10471 0.0
H236 H 0.60489 0.65693 0.17471 0.0
H237 H 0.60421 0.63574 0.09682 0.0
H238 H 0.63455 0.65574 0.33759 0.0
C239 C 0.63383 0.68452 0.25887 0.0
C240 C 0.33264 0.5291 0.33925 0.0
C241 C 0.34171 0.5301 0.41083 0.0
C242 C 0.32543 0.53852 0.46846 0.0
C243 C 0.29235 0.54606 0.38454 0.0
C244 C 0.30765 0.53696 0.32743 0.0
C245 C 0.29357 0.53631 0.25644 0.0
H246 H 0.18852 0.57298 0.08175 0.0
C247 C 0.26882 0.55514 0.35519 0.0
C248 C 0.26948 0.55024 0.27953 0.0
H249 H 0.24246 0.519 0.99745 0.0
H250 H 0.26791 0.52691 0.10723 0.0
H251 H 0.18338 0.54563 0.24276 0.0
H252 H 0.22237 0.61525 0.15441 0.0
H253 H 0.22103 0.62217 0.24891 0.0
H254 H 0.19119 0.61594 0.19994 0.0
H255 H 0.16863 0.57069 0.19834 0.0
H256 H 0.17497 0.57433 0.29177 0.0
C257 C 0.28631 0.50726 0.23283 0.0
C258 C 0.3108 0.55157 0.19973 0.0
C259 C 0.19404 0.58308 0.51707 0.0
C260 C 0.17144 0.59451 0.49932 0.0
C261 C 0.17181 0.6088 0.43585 0.0
C262 C 0.19213 0.6073 0.38418 0.0
C263 C 0.21177 0.59114 0.39632 0.0
C264 C 0.2144 0.5821 0.46453 0.0
C265 C 0.23964 0.56971 0.46943 0.0
C266 C 0.24867 0.56867 0.38962 0.0
C267 C 0.23139 0.58019 0.34713 0.0
C268 C 0.23389 0.54193 0.49876 0.0
C269 C 0.25823 0.58836 0.5171 0.0
C270 C 0.20601 0.56311 0.0866 0.0
C271 C 0.21366 0.54563 0.03122 0.0
C272 C 0.23623 0.53263 0.03974 0.0
C273 C 0.2507 0.53697 0.10364 0.0
C274 C 0.24179 0.55356 0.16053 0.0
C275 C 0.21964 0.56615 0.15096 0.0
C276 C 0.21048 0.58022 0.21872 0.0
C277 C 0.23096 0.57437 0.27123 0.0
C278 C 0.2495 0.55891 0.23728 0.0
C279 C 0.18296 0.56719 0.23944 0.0
C280 C 0.21115 0.6099 0.20504 0.0
H281 H 0.28957 0.55269 0.50186 0.0
H282 H 0.34459 0.52221 0.29417 0.0
H283 H 0.31752 0.57146 0.22226 0.0
H284 H 0.3002 0.55419 0.15005 0.0
H285 H 0.32827 0.54123 0.18393 0.0
H286 H 0.28199 0.49503 0.28076 0.0
H287 H 0.30252 0.49906 0.20065 0.0
H288 H 0.26839 0.50445 0.20133 0.0
H289 H 0.19468 0.57296 0.56701 0.0
H290 H 0.15505 0.61871 0.4227 0.0
H291 H 0.19072 0.61684 0.33428 0.0
H292 H 0.21778 0.53077 0.46878 0.0
H293 H 0.22805 0.54298 0.55727 0.0
H294 H 0.25085 0.53028 0.49239 0.0
H295 H 0.25063 0.60774 0.5294 0.0
H296 H 0.2775 0.59288 0.48942 0.0
H297 H 0.26124 0.5799 0.57012 0.0
H298 H 0.33194 0.5394 0.52378 0.0
C299 C 0.30097 0.54657 0.45569 0.0
C300 C 0.08473 0.17978 0.52971 0.0
C301 C 0.09256 0.15423 0.51821 0.0
C302 C 0.11391 0.15048 0.46958 0.0
C303 C 0.11175 0.1937 0.42665 0.0
C304 C 0.09519 0.19947 0.48413 0.0
C305 C 0.08864 0.22743 0.48434 0.0
H306 H 0.05767 0.32651 0.3062 0.0
C307 C 0.11254 0.21469 0.37537 0.0
C308 C 0.10167 0.23583 0.41204 0.0
H309 H 0.08997 0.33273 0.52055 0.0
H310 H 0.10678 0.29004 0.49805 0.0
H311 H 0.11081 0.30107 0.23373 0.0
H312 H 0.03601 0.26308 0.30223 0.0
H313 H 0.04664 0.24763 0.22095 0.0
H314 H 0.03978 0.2815 0.22159 0.0
H315 H 0.08098 0.30629 0.19141 0.0
H316 H 0.09832 0.27832 0.16562 0.0
C317 C 0.10049 0.24239 0.55165 0.0
C318 C 0.05879 0.22848 0.48441 0.0
C319 C 0.10711 0.18118 0.1133 0.0
C320 C 0.09059 0.18669 0.05804 0.0
C321 C 0.07888 0.21061 0.0645 0.0
C322 C 0.08231 0.22752 0.12644 0.0
C323 C 0.09657 0.22 0.18418 0.0
C324 C 0.10827 0.19684 0.17737 0.0
C325 C 0.11845 0.18911 0.24786 0.0
C326 C 0.11156 0.21204 0.2982 0.0
C327 C 0.09949 0.23048 0.25978 0.0
C328 C 0.14823 0.18824 0.23938 0.0
C329 C 0.10397 0.16233 0.26881 0.0
C330 C 0.06719 0.31819 0.34983 0.0
C331 C 0.07149 0.33249 0.41633 0.0
C332 C 0.08553 0.32176 0.47019 0.0
C333 C 0.09405 0.29679 0.45959 0.0
C334 C 0.08736 0.28207 0.39656 0.0
C335 C 0.07611 0.29315 0.34044 0.0
C336 C 0.07684 0.27574 0.27181 0.0
C337 C 0.09126 0.2533 0.2972 0.0
C338 C 0.09514 0.25668 0.37158 0.0
C339 C 0.09245 0.29107 0.21196 0.0
C340 C 0.0484 0.26654 0.25234 0.0
H341 H 0.13941 0.16687 0.38581 0.0
H342 H 0.06937 0.1839 0.56884 0.0
H343 H 0.05026 0.21663 0.43757 0.0
H344 H 0.0538 0.24894 0.48076 0.0
H345 H 0.0494 0.22087 0.53526 0.0
H346 H 0.09859 0.23 0.5997 0.0
H347 H 0.08997 0.25974 0.56772 0.0
H348 H 0.12155 0.2485 0.54197 0.0
H349 H 0.11752 0.1638 0.1099 0.0
H350 H 0.06598 0.21581 0.02372 0.0
H351 H 0.07259 0.24514 0.12865 0.0
H352 H 0.15747 0.20632 0.21461 0.0
H353 H 0.15304 0.17109 0.204 0.0
H354 H 0.15728 0.187 0.29236 0.0
H355 H 0.09555 0.1507 0.22163 0.0
H356 H 0.08739 0.16504 0.30774 0.0
H357 H 0.11725 0.14934 0.29165 0.0
H358 H 0.12189 0.13169 0.46353 0.0
C359 C 0.12368 0.17035 0.42382 0.0
C360 C 0.31334 -0.00076 0.01982 0.0
C361 C 0.33747 0.01237 0.99596 0.0
C362 C 0.34713 0.03565 0.0337 0.0
C363 C 0.31462 0.02754 0.12781 0.0
C364 C 0.30153 0.00825 0.08566 0.0
C365 C 0.2748 0.00067 0.12084 0.0
H366 H 0.20218 0.00598 0.44238 0.0
C367 C 0.3021 0.02882 0.19917 0.0
C368 C 0.27749 0.01473 0.19618 0.0
H369 H 0.1726 0.97918 0.23324 0.0
H370 H 0.21651 0.98667 0.17867 0.0
H371 H 0.24818 0.97705 0.43491 0.0
H372 H 0.23963 0.05644 0.39443 0.0
H373 H 0.26752 0.05506 0.44707 0.0
H374 H 0.23629 0.04094 0.48005 0.0
H375 H 0.25766 0.00223 0.50117 0.0
H376 H 0.2808 0.9907 0.43419 0.0
C377 C 0.27022 0.97071 0.12558 0.0
C378 C 0.25433 0.01212 0.07571 0.0
C379 C 0.36438 0.03111 0.40262 0.0
C380 C 0.3608 0.027 0.47727 0.0
C381 C 0.33566 0.02862 0.50934 0.0
C382 C 0.31428 0.03159 0.46646 0.0
C383 C 0.31804 0.03289 0.3909 0.0
C384 C 0.34296 0.03413 0.36079 0.0
C385 C 0.34357 0.03611 0.27983 0.0
C386 C 0.31436 0.03418 0.26612 0.0
C387 C 0.2997 0.03103 0.33089 0.0
C388 C 0.35674 0.01252 0.2442 0.0
C389 C 0.35827 0.06274 0.26035 0.0
C390 C 0.20487 0.00225 0.38443 0.0
C391 C 0.1837 0.99283 0.34186 0.0
C392 C 0.18848 0.98693 0.26716 0.0
C393 C 0.21377 0.99174 0.23529 0.0
C394 C 0.23438 0.0026 0.27847 0.0
C395 C 0.22968 0.00705 0.35216 0.0
C396 C 0.25373 0.01721 0.39161 0.0
C397 C 0.27316 0.02088 0.32862 0.0
C398 C 0.26204 0.01208 0.26194 0.0
C399 C 0.26051 0.99589 0.44327 0.0
C400 C 0.24913 0.04381 0.43086 0.0
H401 H 0.3425 0.06165 0.12647 0.0
H402 H 0.30447 0.98243 0.98912 0.0
H403 H 0.26074 0.03275 0.06285 0.0
H404 H 0.23534 0.0127 0.10461 0.0
H405 H 0.25148 0.00061 0.02357 0.0
H406 H 0.28637 0.96319 0.15432 0.0
H407 H 0.26928 0.961 0.0705 0.0
H408 H 0.25182 0.96482 0.15561 0.0
H409 H 0.38322 0.03019 0.37552 0.0
H410 H 0.33229 0.02666 0.56714 0.0
H411 H 0.2955 0.03202 0.49321 0.0
H412 H 0.34616 0.99369 0.26042 0.0
H413 H 0.37731 0.01287 0.26026 0.0
H414 H 0.35735 0.01265 0.18435 0.0
H415 H 0.37184 0.0707 0.30319 0.0
H416 H 0.34451 0.07775 0.253 0.0
H417 H 0.37082 0.0608 0.21064 0.0
H418 H 0.36471 0.04691 0.01479 0.0
C419 C 0.33538 0.04355 0.09921 0.0
C420 C 0.42339 0.28637 0.02942 0.0
C421 C 0.41516 0.31094 0.01307 0.0
C422 C 0.39698 0.32236 0.06108 0.0
C423 C 0.40275 0.29036 0.14844 0.0
C424 C 0.41644 0.27615 0.09762 0.0
C425 C 0.42346 0.25097 0.12833 0.0
H426 H 0.44613 0.1892 0.43383 0.0
C427 C 0.4045 0.27923 0.21929 0.0
C428 C 0.41548 0.25525 0.20829 0.0
H429 H 0.44981 0.15609 0.21422 0.0
H430 H 0.43519 0.19609 0.16975 0.0
H431 H 0.47144 0.23951 0.4076 0.0
H432 H 0.39074 0.21391 0.42446 0.0
H433 H 0.39548 0.24436 0.47327 0.0
H434 H 0.41328 0.21757 0.49703 0.0
H435 H 0.45358 0.24468 0.4908 0.0
H436 H 0.45773 0.26933 0.42358 0.0
C437 C 0.45308 0.24906 0.11735 0.0
C438 C 0.40662 0.22784 0.09161 0.0
C439 C 0.41372 0.34432 0.43238 0.0
C440 C 0.42677 0.34268 0.49738 0.0
C441 C 0.4284 0.31774 0.52487 0.0
C442 C 0.42046 0.29501 0.48343 0.0
C443 C 0.41204 0.29725 0.41264 0.0
C444 C 0.40766 0.32154 0.38921 0.0
C445 C 0.40112 0.32064 0.31022 0.0
C446 C 0.40351 0.29173 0.28954 0.0
C447 C 0.41031 0.27843 0.34958 0.0
C448 C 0.42208 0.33903 0.27043 0.0
C449 C 0.37299 0.32849 0.30355 0.0
C450 C 0.44313 0.18999 0.37621 0.0
C451 C 0.44856 0.16912 0.32786 0.0
C452 C 0.44562 0.17183 0.25284 0.0
C453 C 0.43693 0.19489 0.22722 0.0
C454 C 0.4313 0.21539 0.27715 0.0
C455 C 0.43434 0.21248 0.35022 0.0
C456 C 0.4282 0.23603 0.39631 0.0
C457 C 0.41901 0.25308 0.33958 0.0
C458 C 0.42143 0.24132 0.26948 0.0
C459 C 0.45387 0.24805 0.43176 0.0
C460 C 0.40585 0.22766 0.45119 0.0
H461 H 0.37726 0.32152 0.16429 0.0
H462 H 0.43607 0.27625 0.99195 0.0
H463 H 0.38728 0.23376 0.07753 0.0
H464 H 0.40212 0.21136 0.12779 0.0
H465 H 0.41627 0.22066 0.04067 0.0
H466 H 0.46413 0.26737 0.13831 0.0
H467 H 0.45844 0.24611 0.05889 0.0
H468 H 0.45986 0.23276 0.14614 0.0
H469 H 0.41082 0.36321 0.41185 0.0
H470 H 0.43779 0.31558 0.57545 0.0
H471 H 0.42301 0.27663 0.50605 0.0
H472 H 0.44195 0.33342 0.28001 0.0
H473 H 0.42116 0.35975 0.28981 0.0
H474 H 0.4199 0.33879 0.21145 0.0
H475 H 0.36333 0.33248 0.3573 0.0
H476 H 0.36027 0.3126 0.27612 0.0
H477 H 0.37282 0.34659 0.27291 0.0
H478 H 0.3896 0.34079 0.0502 0.0
C479 C 0.39032 0.31175 0.12817 0.0
Tb480 Tb 0.99695 0.9747 0.63143 0.0
C481 C 0.05542 0.99626 0.60126 0.0
Tb482 Tb 0.02284 0.01722 0.73951 0.0
O483 O 0.99781 0.00179 0.54377 0.0
O484 O 0.99781 0.01581 0.65066 0.0
O485 O 0.03746 0.97617 0.58973 0.0
C486 C 0.04687 0.05855 0.81138 0.0
O487 O 0.05245 0.01508 0.65226 0.0
C488 C 0.01805 0.96903 0.78516 0.0
C489 C 0.96491 0.99545 0.77152 0.0
O490 O 0.05378 0.03486 0.80888 0.0
O491 O 0.02638 0.05914 0.77281 0.0
O492 O 0.02069 0.99007 0.8271 0.0
O493 O 0.02171 0.97595 0.72047 0.0
O494 O 0.98237 0.01607 0.7813 0.0
O495 O 0.96827 0.97636 0.72155 0.0
C496 C 0.97282 0.93174 0.56706 0.0
O497 O 0.96212 0.95301 0.58636 0.0
O498 O 0.99725 0.93476 0.5831 0.0
C499 C 1.00115 0.02273 0.58598 0.0
Tb500 Tb 0.51499 0.02815 0.66101 0.0
C501 C 0.5663 0.00036 0.63784 0.0
Tb502 Tb 0.51681 0.97382 0.72783 0.0
O503 O 0.54458 0.0473 0.73286 0.0
O504 O 0.52165 0.01387 0.7631 0.0
O505 O 0.55207 0.01794 0.61193 0.0
C506 C 0.53034 0.93288 0.79728 0.0
O507 O 0.55705 0.9837 0.68783 0.0
C508 C 0.49021 0.97385 0.60879 0.0
C509 C 0.46638 0.00263 0.75634 0.0
O510 O 0.53604 0.9377 0.72994 0.0
O511 O 0.51654 0.95091 0.82552 0.0
O512 O 0.48652 0.95578 0.65605 0.0
O513 O 0.51035 0.98825 0.62595 0.0
O514 O 0.48074 0.98502 0.78142 0.0
O515 O 0.47525 0.01887 0.70506 0.0
C516 C 0.49923 0.06633 0.58495 0.0
O517 O 0.49554 0.06389 0.65429 0.0
O518 O 0.51277 0.0478 0.55858 0.0
C519 C 0.54147 0.02901 0.77984 0.0
Tb520 Tb 0.52715 0.51868 0.64453 0.0
C521 C 0.46837 0.50023 0.61595 0.0
Tb522 Tb 0.49759 0.47718 0.74451 0.0
O523 O 0.52721 0.49126 0.54991 0.0
O524 O 0.52403 0.47758 0.65378 0.0
O525 O 0.48712 0.51978 0.60987 0.0
C526 C 0.47142 0.43458 0.79908 0.0
O527 O 0.47032 0.48018 0.65788 0.0
C528 C 0.50265 0.52538 0.8011 0.0
C529 C 0.55615 0.49588 0.77457 0.0
O530 O 0.46112 0.45509 0.77906 0.0
O531 O 0.49653 0.43819 0.78946 0.0
O532 O 0.49744 0.50474 0.83902 0.0
O533 O 0.50077 0.51819 0.73516 0.0
O534 O 0.5373 0.47648 0.78126 0.0
O535 O 0.55464 0.51559 0.73099 0.0
C536 C 0.55291 0.56139 0.58908 0.0
O537 O 0.56347 0.54125 0.61061 0.0
O538 O 0.5278 0.55738 0.59799 0.0
C539 C 0.52208 0.47058 0.58768 0.0
Tb540 Tb 0.9892 0.50069 0.6555 0.0
C541 C 0.03427 0.46546 0.60919 0.0
Tb542 Tb 0.03862 0.50283 0.75223 0.0
O543 O 0.01159 0.51807 0.56481 0.0
O544 O 0.02404 0.52531 0.6714 0.0
O545 O 0.00903 0.46845 0.60482 0.0
C546 C 0.08631 0.50598 0.80841 0.0
O547 O 0.04966 0.47924 0.6563 0.0
C548 C 0.99636 0.47506 0.79875 0.0
C549 C 0.99601 0.54099 0.79411 0.0
O550 O 0.06962 0.48538 0.80641 0.0
O551 O 0.07608 0.52493 0.77894 0.0
O552 O 0.01443 0.4851 0.84169 0.0
O553 O 1.00399 0.47857 0.73444 0.0
O554 O 0.02089 0.53669 0.79971 0.0
O555 O 0.98009 0.5275 0.74752 0.0
C556 C 0.94047 0.49029 0.60817 0.0
O557 O 0.95398 0.51302 0.60727 0.0
O558 O 0.95457 0.47358 0.63452 0.0
C559 C 0.03043 0.52824 0.60542 0.0
H560 H 0.16214 0.02768 0.43463 0.0
H561 H 0.14527 0.95167 0.32813 0.0
H562 H 0.10363 0.94589 0.39734 0.0
H563 H 0.07309 0.96177 0.4943 0.0
H564 H 0.09203 0.03798 0.59966 0.0
H565 H 0.13167 0.04402 0.52564 0.0
C566 C 0.1494 0.00978 0.42648 0.0
C567 C 0.15703 0.99 0.37687 0.0
C568 C 0.12586 0.00647 0.4671 0.0
C569 C 0.13991 0.96725 0.36582 0.0
C570 C 0.11617 0.96387 0.40588 0.0
C571 C 0.08591 0.97966 0.50108 0.0
C572 C 0.07953 -0.00087 0.55383 0.0
C573 C 0.10911 0.98319 0.45774 0.0
C574 C 0.09637 0.02234 0.56086 0.0
C575 C 0.11914 0.02596 0.51811 0.0
H576 H 0.43099 0.14544 0.45041 0.0
H577 H 0.48725 0.13939 0.27297 0.0
H578 H 0.50711 0.10538 0.33494 0.0
H579 H 0.51109 0.08066 0.44613 0.0
H580 H 0.45747 0.09166 0.62761 0.0
H581 H 0.43447 0.12106 0.55856 0.0
C582 C 0.44769 0.13681 0.42518 0.0
C583 C 0.45792 0.14536 0.35775 0.0
C584 C 0.45982 0.11852 0.46272 0.0
C585 C 0.47893 0.13319 0.32478 0.0
C586 C 0.4905 0.11398 0.36065 0.0
C587 C 0.49441 0.08961 0.47028 0.0
C588 C 0.48618 0.0844 0.5421 0.0
C589 C 0.48159 0.10708 0.43069 0.0
C590 C 0.46443 0.09581 0.57287 0.0
C591 C 0.45116 0.11245 0.53327 0.0
H592 H 0.35361 0.49415 0.50352 0.0
H593 H 0.38889 0.55187 0.35939 0.0
H594 H 0.43185 0.54741 0.40833 0.0
H595 H 0.4586 0.52986 0.50096 0.0
H596 H 0.42228 0.47146 0.64275 0.0
H597 H 0.38074 0.47346 0.58617 0.0
C598 C 0.37083 0.50534 0.48185 0.0
C599 C 0.36814 0.52331 0.42803 0.0
C600 C 0.39527 0.50287 0.51079 0.0
C601 C 0.39054 0.53771 0.4003 0.0
C602 C 0.41504 0.53537 0.42892 0.0
C603 C 0.44162 0.5175 0.5192 0.0
C604 C 0.44365 0.50081 0.57693 0.0
C605 C 0.41754 0.51851 0.48567 0.0
C606 C 0.42145 0.48462 0.5989 0.0
C607 C 0.39757 0.48572 0.56652 0.0
H608 H 0.09842 0.37679 0.46839 0.0
H609 H 0.02219 0.34602 0.39921 0.0
H610 H 1.004 0.38615 0.44658 0.0
H611 H 0.00906 0.42744 0.52129 0.0
H612 H 0.0856 0.45698 0.59297 0.0
H613 H 0.1043 0.4199 0.53111 0.0
C614 C 0.07788 0.37905 0.46291 0.0
C615 C 0.06157 0.35844 0.43135 0.0
C616 C 0.06755 0.4018 0.49159 0.0
C617 C 0.03511 0.36171 0.42326 0.0
C618 C 0.02469 0.38452 0.45092 0.0
C619 C 0.02988 0.42598 0.52251 0.0
C620 C 0.04577 0.4448 0.56293 0.0
C621 C 0.04059 0.40434 0.48732 0.0
C622 C 0.07277 0.44265 0.56335 0.0
C623 C 0.08355 0.42142 0.52787 0.0
H624 H 0.86001 0.9602 0.94107 0.0
H625 H 0.86512 0.0418 0.01059 0.0
H626 H 0.90806 0.04882 0.94812 0.0
H627 H 0.94224 0.03215 0.86272 0.0
H628 H 0.93443 0.95029 0.79198 0.0
H629 H 0.89469 0.94313 0.86518 0.0
C630 C 0.8707 0.97948 0.9434 0.0
C631 C 0.85934 0.00048 0.97995 0.0
C632 C 0.8948 0.98343 0.90584 0.0
C633 C 0.87351 0.02528 0.98316 0.0
C634 C 0.89793 0.02932 0.94671 0.0
C635 C 0.93188 0.01276 0.8637 0.0
C636 C 0.94126 0.99195 0.82041 0.0
C637 C 0.90848 0.00865 0.90602 0.0
C638 C 0.92761 0.96688 0.82313 0.0
C639 C 0.90482 0.96265 0.86547 0.0
H640 H 0.59393 0.84932 0.93004 0.0
H641 H 0.53546 0.85443 0.10214 0.0
H642 H 0.51647 0.88877 0.03931 0.0
H643 H 0.51467 0.91497 0.93015 0.0
H644 H 0.57144 0.9063 0.75513 0.0
H645 H 0.59229 0.8749 0.82311 0.0
C646 C 0.57691 0.85779 0.95383 0.0
C647 C 0.56589 0.84896 0.02018 0.0
C648 C 0.56545 0.87647 0.91597 0.0
C649 C 0.54441 0.86088 0.05129 0.0
C650 C 0.53335 0.88028 0.0149 0.0
C651 C 0.53148 0.90598 0.90695 0.0
C652 C 0.54139 0.91265 0.83754 0.0
C653 C 0.54332 0.88774 0.9463 0.0
C654 C 0.56327 0.90115 0.80804 0.0
C655 C 0.57534 0.8834 0.84711 0.0
H656 H 0.66774 0.50419 0.9105 0.0
H657 H 0.62544 0.45864 0.07416 0.0
H658 H 0.58494 0.46001 0.00949 0.0
H659 H 0.56189 0.47247 0.90271 0.0
H660 H 0.60435 0.51962 0.74226 0.0
H661 H 0.64429 0.51918 0.8089 0.0
C662 C 0.6496 0.49471 0.93221 0.0
C663 C 0.64964 0.48123 0.9969 0.0
C664 C 0.62641 0.49564 0.89483 0.0
C665 C 0.62593 0.46931 0.0248 0.0
C666 C 0.6028 0.46991 0.98749 0.0
C667 C 0.5799 0.4826 0.88233 0.0
C668 C 0.58013 0.49578 0.81698 0.0
C669 C 0.60286 0.4827 0.92181 0.0
C670 C 0.60356 0.50923 0.79216 0.0
C671 C 0.62647 0.509 0.83026 0.0
H672 H 0.97165 0.64616 0.96305 0.0
H673 H 0.8944 0.62016 0.89141 0.0
H674 H 0.90967 0.57905 0.84228 0.0
H675 H 0.94567 0.55254 0.80949 0.0
H676 H 0.02335 0.5788 0.87819 0.0
H677 H 0.00712 0.61753 0.93959 0.0
C678 C 0.95808 0.63122 0.9381 0.0
C679 C 0.93202 0.63625 0.93017 0.0
C680 C 0.96711 0.60781 0.9088 0.0
C681 C 0.91465 0.61684 0.89723 0.0
C682 C 0.92336 0.59336 0.86913 0.0
C683 C 0.95908 0.5666 0.8383 0.0
C684 C 0.98577 0.56289 0.83822 0.0
C685 C 0.9497 0.58897 0.87276 0.0
C686 C 1.00273 0.58118 0.87687 0.0
C687 C 0.99348 0.6034 0.91193 0.0
H688 H 0.08238 0.10664 0.44992 0.0
H689 H 0.06412 0.15035 0.64831 0.0
H690 H 0.03171 0.11479 0.68238 0.0
H691 H 0.00896 0.07072 0.65657 0.0
H692 H 0.0301 0.02703 0.4614 0.0
H693 H 0.06127 0.06308 0.42618 0.0
C694 C 0.07218 0.10822 0.50213 0.0
C695 C 0.07607 0.13125 0.54654 0.0
C696 C 0.05407 0.08758 0.52231 0.0
C697 C 0.0616 0.13301 0.61256 0.0
C698 C 0.04318 0.11257 0.63255 0.0
C699 C 0.02081 0.06904 0.60726 0.0
C700 C 0.01766 0.04609 0.56272 0.0
C701 C 0.03925 0.08975 0.58787 0.0
C702 C 0.03212 0.04452 0.49683 0.0
C703 C 0.05016 0.06503 0.47685 0.0
H704 H 0.41345 0.03949 0.45717 0.0
H705 H 0.35729 0.99307 0.58906 0.0
H706 H 0.39236 0.97194 0.63956 0.0
H707 H 0.43857 0.96404 0.63954 0.0
H708 H 0.49365 0.00582 0.4956 0.0
H709 H 0.45895 0.02999 0.45206 0.0
C710 C 0.40862 0.02442 0.4959 0.0
C711 C 0.38244 0.01771 0.51779 0.0
C712 C 0.42862 0.01085 0.52078 0.0
C713 C 0.37708 -0.00095 0.5712 0.0
C714 C 0.39713 0.98646 0.59921 0.0
C715 C 0.44286 0.97806 0.59758 0.0
C716 C 0.46863 0.9837 0.57159 0.0
C717 C 0.42282 0.99164 0.57274 0.0
C718 C 0.47398 0.00185 0.51749 0.0
C719 C 0.4542 0.01561 0.49282 0.0
H720 H 0.45263 0.3819 0.42222 0.0
H721 H 0.43851 0.35549 0.64041 0.0
H722 H 0.46993 0.39055 0.68529 0.0
H723 H 0.50091 0.42921 0.66227 0.0
H724 H 0.51033 0.45821 0.44736 0.0
H725 H 0.4812 0.42138 0.40091 0.0
C726 C 0.45553 0.38417 0.48013 0.0
C727 C 0.44281 0.36604 0.52777 0.0
C728 C 0.47295 0.40476 0.50598 0.0
C729 C 0.44799 0.36896 0.60218 0.0
C730 C 0.46589 0.38911 0.62808 0.0
C731 C 0.4962 0.4276 0.6059 0.0
C732 C 0.50726 0.44658 0.55897 0.0
C733 C 0.47847 0.40709 0.58043 0.0
C734 C 0.50194 0.44385 0.4848 0.0
C735 C 0.48514 0.42294 0.45833 0.0
H736 H 0.12985 0.57272 0.43054 0.0
H737 H 0.15665 0.5953 0.645 0.0
H738 H 0.11442 0.57759 0.69786 0.0
H739 H 0.06983 0.55535 0.68092 0.0
H740 H 0.04605 0.53025 0.465 0.0
H741 H 0.08697 0.55018 0.41414 0.0
C742 C 0.12631 0.57427 0.48887 0.0
C743 C 0.14596 0.58586 0.53387 0.0
C744 C 0.10257 0.5636 0.51824 0.0
C745 C 0.14156 0.58679 0.60943 0.0
C746 C 0.11751 0.57663 0.63943 0.0
C747 C 0.07393 0.55384 0.62307 0.0
C748 C 0.05522 0.54097 0.57689 0.0
C749 C 0.09791 0.56484 0.59419 0.0
C750 C 0.06021 0.53998 0.50164 0.0
C751 C 0.0836 0.55132 0.4725 0.0
H752 H 0.93917 0.88631 0.93343 0.0
H753 H 0.93982 0.84933 0.71848 0.0
H754 H 0.97324 0.88339 0.67827 0.0
H755 H 1.00235 0.92397 0.70624 0.0
H756 H 0.99865 0.96081 0.92055 0.0
H757 H 0.96697 0.92593 0.95999 0.0
C758 C 0.94608 0.88593 0.87718 0.0
C759 C 0.93657 0.86562 0.82863 0.0
C760 C 0.96514 0.90529 0.8549 0.0
C761 C 0.94666 0.8649 0.75679 0.0
C762 C 0.9658 0.8843 0.73391 0.0
C763 C 0.9942 0.92446 0.76078 0.0
C764 C 1.00223 0.94534 0.80935 0.0
C765 C 0.97522 0.90461 0.78268 0.0
C766 C 0.99267 0.9451 0.88164 0.0
C767 C 0.97437 0.92526 0.90425 0.0
H768 H 0.64651 0.99415 0.88451 0.0
H769 H 0.59283 0.93246 0.97155 0.0
H770 H 0.55642 0.95551 0.93806 0.0
H771 H 0.53935 0.9913 0.87672 0.0
H772 H 0.5926 0.04835 0.77147 0.0
H773 H 0.62962 0.02862 0.81811 0.0
C774 C 0.62699 0.98487 0.89369 0.0
C775 C 0.62286 0.96151 0.93166 0.0
C776 C 0.6059 0.99724 0.87012 0.0
C777 C 0.59703 0.95066 0.94434 0.0
C778 C 0.57601 0.9636 0.92421 0.0
C779 C 0.55908 -0.00094 0.86334 0.0
C780 C 0.56328 0.02068 0.81955 0.0
C781 C 0.5802 0.98671 0.88658 0.0
C782 C 0.58887 0.03163 0.80524 0.0
C783 C 0.61004 0.02013 0.83098 0.0
H784 H 0.57363 0.61329 0.96458 0.0
H785 H 0.58781 0.6391 0.74575 0.0
H786 H 0.55571 0.60455 0.70196 0.0
H787 H 0.52426 0.56636 0.72581 0.0
H788 H 0.51482 0.53775 0.94116 0.0
H789 H 0.5446 0.5742 0.98675 0.0
C790 C 0.57065 0.61097 0.90672 0.0
C791 C 0.58353 0.62887 0.85867 0.0
C792 C 0.55288 0.59059 0.88139 0.0
C793 C 0.5782 0.62586 0.78436 0.0
C794 C 0.55993 0.60597 0.75903 0.0
C795 C 0.52907 0.56799 0.78211 0.0
C796 C 0.51783 0.54923 0.82941 0.0
C797 C 0.54717 0.58824 0.80707 0.0
C798 C 0.52334 0.55195 0.90346 0.0
C799 C 0.54052 0.57263 0.92943 0.0
H800 H 0.89455 0.41147 0.91792 0.0
H801 H 0.8595 0.4686 0.79766 0.0
H802 H 0.90235 0.48612 0.75427 0.0
H803 H 0.94957 0.48887 0.76262 0.0
H804 H 0.98555 0.43444 0.88778 0.0
H805 H 0.94234 0.41324 0.92181 0.0
C806 C 0.89621 0.42772 0.88206 0.0
C807 C 0.87363 0.43881 0.86204 0.0
C808 C 0.92106 0.43867 0.86014 0.0
C809 C 0.87629 0.45934 0.8136 0.0
C810 C 0.90089 0.46973 0.7896 0.0
C811 C 0.94805 0.47196 0.79551 0.0
C812 C 0.97059 0.46282 0.82126 0.0
C813 C 0.92335 0.46006 0.81429 0.0
C814 C 0.9683 0.44171 0.86727 0.0
C815 C 0.94369 0.42952 0.88613 0.0
H816 H 0.08971 0.13336 0.06529 0.0
H817 H 0.07395 0.19287 0.9186 0.0
H818 H 0.05824 0.15862 0.83019 0.0
H819 H 0.04805 0.11138 0.79597 0.0
H820 H 0.07037 0.05335 0.937 0.0
H821 H 0.08562 0.08776 0.02531 0.0
C822 C 0.08392 0.13935 0.01329 0.0
C823 C 0.08331 0.16614 0.9997 0.0
C824 C 0.07606 0.11968 0.96137 0.0
C825 C 0.07434 0.17263 0.93217 0.0
C826 C 0.0655 0.153 0.88099 0.0
C827 C 0.05651 0.10641 0.84565 0.0
C828 C 0.05793 0.07994 0.86033 0.0
C829 C 0.06604 0.12642 0.89536 0.0
C830 C 0.06911 0.07362 0.92459 0.0
C831 C 0.07774 0.09327 0.97518 0.0
H832 H 0.3573 0.03576 0.87467 0.0
H833 H 0.35843 0.96562 0.99306 0.0
H834 H 0.39836 0.95512 0.92613 0.0
H835 H 0.43648 0.96963 0.84686 0.0
H836 H 0.43456 0.04033 0.72972 0.0
H837 H 0.39174 0.04675 0.7829 0.0
C838 C 0.36579 0.01767 0.88379 0.0
C839 C 0.35488 0.00145 0.93852 0.0
C840 C 0.38915 0.01225 0.84675 0.0
C841 C 0.3662 0.97821 0.95041 0.0
C842 C 0.38933 0.97247 0.91302 0.0
C843 C 0.42663 0.98635 0.83265 0.0
C844 C 0.43925 0.00479 0.78562 0.0
C845 C 0.40162 0.98997 0.86333 0.0
C846 C 0.42577 0.02599 0.76667 0.0
C847 C 0.40111 0.0297 0.7969 0.0
H848 H 0.39395 0.34478 0.92648 0.0
H849 H 0.46671 0.31421 0.97049 0.0
H850 H 0.49051 0.34879 0.90219 0.0
H851 H 0.49127 0.39148 0.84604 0.0
H852 H 0.41884 0.42403 0.81156 0.0
H853 H 0.39444 0.38549 0.86202 0.0
C854 C 0.41501 0.34551 0.92074 0.0
C855 C 0.42843 0.32707 0.955 0.0
C856 C 0.42875 0.36632 0.88481 0.0
C857 C 0.45569 0.32792 0.94464 0.0
C858 C 0.46943 0.34801 0.90651 0.0
C859 C 0.47013 0.39003 0.84935 0.0
C860 C 0.45684 0.41071 0.82648 0.0
C861 C 0.45626 0.36794 0.87916 0.0
C862 C 0.42948 0.4085 0.82995 0.0
C863 C 0.41553 0.38642 0.85844 0.0
H864 H 0.18521 0.49973 0.99725 0.0
H865 H 0.20094 0.57926 0.93186 0.0
H866 H 0.16366 0.57355 0.85226 0.0
H867 H 0.12347 0.54755 0.81269 0.0
H868 H 0.10681 0.46846 0.88189 0.0
H869 H 0.14729 0.47227 0.94822 0.0
C870 C 0.18094 0.51545 0.96358 0.0
C871 C 0.19599 0.53976 0.96951 0.0
C872 C 0.15887 0.51228 0.91989 0.0
C873 C 0.18984 0.56027 0.92724 0.0
C874 C 0.16834 0.55709 0.88242 0.0
C875 C 0.12887 0.53108 0.8417 0.0
C876 C 0.11201 0.50785 0.84302 0.0
C877 C 0.15219 0.53347 0.88017 0.0
C878 C 0.11935 0.48661 0.88041 0.0
C879 C 0.14254 0.48877 0.91837 0.0
H880 H 0.90286 0.84569 0.3905 0.0
H881 H 0.97476 0.80873 0.37829 0.0
H882 H 0.99477 0.84315 0.45993 0.0
H883 H 0.99342 0.88653 0.52317 0.0
H884 H 0.92211 0.92439 0.52985 0.0
H885 H 0.90044 0.88714 0.4612 0.0
C886 C 0.92285 0.84504 0.40615 0.0
C887 C 0.93734 0.82477 0.37758 0.0
C888 C 0.9345 0.86536 0.45113 0.0
C889 C 0.96305 0.82394 0.39977 0.0
C890 C 0.97463 0.84382 0.44581 0.0
C891 C 0.97309 0.88648 0.50997 0.0
C892 C 0.95945 0.90827 0.53052 0.0
C893 C 0.96081 0.86506 0.46992 0.0
C894 C 0.93306 0.90792 0.51391 0.0
C895 C 0.92066 0.88662 0.47477 0.0
H896 H 0.67642 0.97029 0.51897 0.0
H897 H 0.67887 0.04658 0.43011 0.0
H898 H 0.63793 0.05454 0.49559 0.0
H899 H 0.59824 0.03695 0.56405 0.0
H900 H 0.59647 0.96023 0.65177 0.0
H901 H 0.64002 0.95532 0.60089 0.0
C902 C 0.66847 0.98905 0.51626 0.0
C903 C 0.68075 0.00788 0.47014 0.0
C904 C 0.64453 0.9931 0.55217 0.0
C905 C 0.67007 0.03197 0.46623 0.0
C906 C 0.64637 0.03631 0.50264 0.0
C907 C 0.60745 0.01923 0.57236 0.0
C908 C 0.5937 -0.00122 0.61049 0.0
C909 C 0.63285 0.01654 0.54329 0.0
C910 C 0.60628 0.97621 0.62203 0.0
C911 C 0.63131 0.97336 0.59303 0.0
H912 H 0.62934 0.65194 0.46105 0.0
H913 H 0.55611 0.68057 0.41212 0.0
H914 H 0.53262 0.64587 0.48062 0.0
H915 H 0.53244 0.60361 0.53884 0.0
H916 H 0.60542 0.57294 0.57827 0.0
H917 H 0.62933 0.61163 0.52711 0.0
C918 C 0.60824 0.65075 0.46569 0.0
C919 C 0.59462 0.6687 0.43007 0.0
C920 C 0.59471 0.62986 0.50181 0.0
C921 C 0.56729 0.66726 0.43904 0.0
C922 C 0.55373 0.64709 0.47731 0.0
C923 C 0.55358 0.6055 0.53643 0.0
C924 C 0.56719 0.5853 0.56095 0.0
C925 C 0.56718 0.62766 0.5062 0.0
C926 C 0.59455 0.58808 0.5586 0.0
C927 C 0.60821 0.61025 0.52971 0.0
H928 H 0.83268 0.4395 0.49644 0.0
H929 H 0.83399 0.51362 0.3954 0.0
H930 H 0.87268 0.53021 0.46265 0.0
H931 H 0.91032 0.52088 0.53473 0.0
H932 H 0.90998 0.44515 0.62694 0.0
H933 H 0.86719 0.43187 0.57818 0.0
C934 C 0.84108 0.45951 0.49045 0.0
C935 C 0.83059 0.47518 0.44031 0.0
C936 C 0.86406 0.46838 0.52628 0.0
C937 C 0.8415 0.50118 0.43392 0.0
C938 C 0.86394 0.51051 0.47148 0.0
C939 C 0.90069 0.50161 0.54468 0.0
C940 C 0.91351 0.48385 0.58333 0.0
C941 C 0.8761 0.49386 0.5152 0.0
C942 C 0.90074 0.45902 0.59637 0.0
C943 C 0.87619 0.45143 0.56874 0.0
loop_
_geom_bond_atom_site_label_1
_geom_bond_atom_site_label_2
_geom_bond_distance
_geom_bond_site_symmetry_2
_ccdc_geom_bond_type
C0 C1 1.391 . S
C0 C4 1.391 . S
C0 H42 0.948 . S
C1 C0 1.391 . S
C1 C2 1.391 . S
C2 C1 1.391 . S
C2 H58 0.947 . S
C2 C59 1.392 . S
C3 C4 1.391 . S
C3 C7 1.397 . S
C3 C59 1.419 . S
C4 C0 1.391 . S
C4 C3 1.391 . S
C4 C5 1.399 . S
C5 C4 1.399 . S
C5 C8 1.396 . S
C5 C17 1.453 . S
C5 C18 1.684 . S
H6 C30 0.948 . S
C7 C3 1.397 . S
C7 C8 1.394 . S
C7 C26 1.723 . S
C8 C5 1.396 . S
C8 C7 1.394 . S
C8 C38 1.723 . S
H9 C32 0.947 . S
H10 C33 0.948 . S
H11 C39 0.982 . S
H12 C40 0.979 . S
H13 C40 0.980 . S
H14 C40 0.983 . S
H15 C39 0.979 . S
H16 C39 0.977 . S
C17 C5 1.453 . S
C17 H46 0.982 . S
C17 H47 0.979 . S
C17 H48 0.977 . S
C18 C5 1.684 . S
C18 H43 0.979 . S
C18 H44 0.980 . S
C18 H45 0.983 . S
C19 C20 1.391 . S
C19 C24 1.391 . S
C19 H49 0.948 . S
C20 C19 1.391 . S
C20 C21 1.391 . S
C21 C20 1.391 . S
C21 C22 1.392 . S
C21 H50 0.947 . S
C22 C21 1.392 . S
C22 C23 1.419 . S
C22 H51 0.948 . S
C23 C22 1.419 . S
C23 C24 1.391 . S
C23 C27 1.397 . S
C24 C19 1.391 . S
C24 C23 1.391 . S
C24 C25 1.399 1_556 S
C25 C24 1.399 1_554 S
C25 C26 1.396 . S
C25 C28 1.453 . S
C25 C29 1.684 . S
C26 C7 1.723 . S
C26 C25 1.396 . S
C26 C27 1.394 1_554 S
C27 C23 1.397 . S
C27 C26 1.394 1_556 S
C27 C37 1.723 . S
C28 C25 1.453 . S
C28 H52 0.982 . S
C28 H53 0.979 . S
C28 H54 0.977 . S
C29 C25 1.684 . S
C29 H55 0.979 . S
C29 H56 0.980 . S
C29 H57 0.983 . S
C30 H6 0.948 . S
C30 C31 1.391 1_556 S
C30 C35 1.391 . S
C31 C30 1.391 1_554 S
C31 C32 1.391 . S
C32 H9 0.947 . S
C32 C31 1.391 . S
C32 C33 1.392 . S
C33 H10 0.948 . S
C33 C32 1.392 . S
C33 C34 1.419 . S
C34 C33 1.419 . S
C34 C35 1.391 1_554 S
C34 C38 1.397 . S
C35 C30 1.391 . S
C35 C34 1.391 1_556 S
C35 C36 1.399 . S
C36 C35 1.399 . S
C36 C37 1.396 . S
C36 C39 1.453 . S
C36 C40 1.684 . S
C37 C27 1.723 . S
C37 C36 1.396 . S
C37 C38 1.394 1_556 S
C38 C8 1.723 . S
C38 C34 1.397 . S
C38 C37 1.394 1_554 S
C39 H11 0.982 . S
C39 H15 0.979 . S
C39 H16 0.977 . S
C39 C36 1.453 . S
C40 H12 0.979 . S
C40 H13 0.980 . S
C40 H14 0.983 . S
C40 C36 1.684 . S
H41 C59 0.948 . S
H42 C0 0.948 . S
H43 C18 0.979 . S
H44 C18 0.980 . S
H45 C18 0.983 . S
H46 C17 0.982 . S
H47 C17 0.979 . S
H48 C17 0.977 . S
H49 C19 0.948 . S
H50 C21 0.947 . S
H51 C22 0.948 . S
H52 C28 0.982 . S
H53 C28 0.979 . S
H54 C28 0.977 . S
H55 C29 0.979 . S
H56 C29 0.980 . S
H57 C29 0.983 . S
H58 C2 0.947 . S
C59 C2 1.392 . S
C59 C3 1.419 . S
C59 H41 0.948 . S
C60 C61 1.391 . S
C60 C64 1.391 . S
C60 H102 0.948 . S
C61 C60 1.391 . S
C61 C62 1.391 . S
C62 C61 1.391 . S
C62 H118 0.947 . S
C62 C119 1.392 . S
C63 C64 1.391 . S
C63 C67 1.397 . S
C63 C119 1.419 . S
C64 C60 1.391 . S
C64 C63 1.391 . S
C64 C65 1.399 . S
C65 C64 1.399 . S
C65 C68 1.396 . S
C65 C77 1.453 . S
C65 C78 1.684 . S
H66 C90 0.948 . S
C67 C63 1.397 . S
C67 C68 1.394 . S
C67 C86 1.723 1_556 S
C68 C65 1.396 . S
C68 C67 1.394 . S
C68 C98 1.723 . S
H69 C92 0.947 . S
H70 C93 0.948 . S
H71 C99 0.982 . S
H72 C100 0.979 . S
H73 C100 0.980 . S
H74 C100 0.983 . S
H75 C99 0.979 . S
H76 C99 0.977 . S
C77 C65 1.453 . S
C77 H106 0.982 . S
C77 H107 0.979 . S
C77 H108 0.977 . S
C78 C65 1.684 . S
C78 H103 0.979 . S
C78 H104 0.980 . S
C78 H105 0.983 . S
C79 C80 1.391 . S
C79 C84 1.391 . S
C79 H109 0.948 . S
C80 C79 1.391 . S
C80 C81 1.391 . S
C81 C80 1.391 . S
C81 C82 1.392 . S
C81 H110 0.947 . S
C82 C81 1.392 . S
C82 C83 1.419 . S
C82 H111 0.948 . S
C83 C82 1.419 . S
C83 C84 1.391 . S
C83 C87 1.397 . S
C84 C79 1.391 . S
C84 C83 1.391 . S
C84 C85 1.399 . S
C85 C84 1.399 . S
C85 C86 1.396 . S
C85 C88 1.453 . S
C85 C89 1.684 . S
C86 C67 1.723 1_554 S
C86 C85 1.396 . S
C86 C87 1.394 . S
C87 C83 1.397 . S
C87 C86 1.394 . S
C87 C97 1.723 . S
C88 C85 1.453 . S
C88 H112 0.982 . S
C88 H113 0.979 . S
C88 H114 0.977 . S
C89 C85 1.684 . S
C89 H115 0.979 . S
C89 H116 0.980 . S
C89 H117 0.983 . S
C90 H66 0.948 . S
C90 C91 1.391 1_554 S
C90 C95 1.391 . S
C91 C90 1.391 1_556 S
C91 C92 1.391 . S
C92 H69 0.947 . S
C92 C91 1.391 . S
C92 C93 1.392 . S
C93 H70 0.948 . S
C93 C92 1.392 . S
C93 C94 1.419 . S
C94 C93 1.419 . S
C94 C95 1.391 1_556 S
C94 C98 1.397 . S
C95 C90 1.391 . S
C95 C94 1.391 1_554 S
C95 C96 1.399 . S
C96 C95 1.399 . S
C96 C97 1.396 . S
C96 C99 1.453 . S
C96 C100 1.684 . S
C97 C87 1.723 . S
C97 C96 1.396 . S
C97 C98 1.394 1_554 S
C98 C68 1.723 . S
C98 C94 1.397 . S
C98 C97 1.394 1_556 S
C99 H71 0.982 . S
C99 H75 0.979 . S
C99 H76 0.977 . S
C99 C96 1.453 . S
C100 H72 0.979 . S
C100 H73 0.980 . S
C100 H74 0.983 . S
C100 C96 1.684 . S
H101 C119 0.948 . S
H102 C60 0.948 . S
H103 C78 0.979 . S
H104 C78 0.980 . S
H105 C78 0.983 . S
H106 C77 0.982 . S
H107 C77 0.979 . S
H108 C77 0.977 . S
H109 C79 0.948 . S
H110 C81 0.947 . S
H111 C82 0.948 . S
H112 C88 0.982 . S
H113 C88 0.979 . S
H114 C88 0.977 . S
H115 C89 0.979 . S
H116 C89 0.980 . S
H117 C89 0.983 . S
H118 C62 0.947 . S
C119 C62 1.392 . S
C119 C63 1.419 . S
C119 H101 0.948 . S
C120 C121 1.391 . S
C120 C124 1.391 . S
C120 H162 0.948 . S
C121 C120 1.391 . S
C121 C122 1.391 1_554 S
C122 C121 1.391 1_556 S
C122 H178 0.947 . S
C122 C179 1.392 . S
C123 C124 1.391 . S
C123 C127 1.397 1_565 S
C123 C179 1.419 1_554 S
C124 C120 1.391 . S
C124 C123 1.391 . S
C124 C125 1.399 . S
C125 C124 1.399 . S
C125 C128 1.396 1_565 S
C125 C137 1.453 1_565 S
C125 C138 1.684 . S
H126 C150 0.948 . S
C127 C123 1.397 1_545 S
C127 C128 1.394 . S
C127 C146 1.723 . S
C128 C125 1.396 1_545 S
C128 C127 1.394 . S
C128 C158 1.723 . S
H129 C152 0.947 . S
H130 C153 0.948 . S
H131 C159 0.982 . S
H132 C160 0.979 . S
H133 C160 0.980 . S
H134 C160 0.983 . S
H135 C159 0.979 . S
H136 C159 0.977 . S
C137 C125 1.453 1_545 S
C137 H166 0.982 . S
C137 H167 0.979 . S
C137 H168 0.977 . S
C138 C125 1.684 . S
C138 H163 0.979 . S
C138 H164 0.980 . S
C138 H165 0.983 . S
C139 C140 1.391 . S
C139 C144 1.391 . S
C139 H169 0.948 . S
C140 C139 1.391 . S
C140 C141 1.391 . S
C141 C140 1.391 . S
C141 C142 1.392 1_556 S
C141 H170 0.947 . S
C142 C141 1.392 1_554 S
C142 C143 1.419 . S
C142 H171 0.948 . S
C143 C142 1.419 . S
C143 C144 1.391 1_554 S
C143 C147 1.397 1_565 S
C144 C139 1.391 . S
C144 C143 1.391 1_556 S
C144 C145 1.399 . S
C145 C144 1.399 . S
C145 C146 1.396 1_566 S
C145 C148 1.453 1_565 S
C145 C149 1.684 . S
C146 C127 1.723 . S
C146 C145 1.396 1_544 S
C146 C147 1.394 . S
C147 C143 1.397 1_545 S
C147 C146 1.394 . S
C147 C157 1.723 . S
C148 C145 1.453 1_545 S
C148 H172 0.982 . S
C148 H173 0.979 . S
C148 H174 0.977 . S
C149 C145 1.684 . S
C149 H175 0.979 . S
C149 H176 0.980 . S
C149 H177 0.983 . S
C150 H126 0.948 . S
C150 C151 1.391 . S
C150 C155 1.391 . S
C151 C150 1.391 . S
C151 C152 1.391 . S
C152 H129 0.947 . S
C152 C151 1.391 . S
C152 C153 1.392 . S
C153 H130 0.948 . S
C153 C152 1.392 . S
C153 C154 1.419 . S
C154 C153 1.419 . S
C154 C155 1.391 . S
C154 C158 1.397 1_565 S
C155 C150 1.391 . S
C155 C154 1.391 . S
C155 C156 1.399 . S
C156 C155 1.399 . S
C156 C157 1.396 1_565 S
C156 C159 1.453 1_565 S
C156 C160 1.684 . S
C157 C147 1.723 . S
C157 C156 1.396 1_545 S
C157 C158 1.394 . S
C158 C128 1.723 . S
C158 C154 1.397 1_545 S
C158 C157 1.394 . S
C159 H131 0.982 . S
C159 H135 0.979 . S
C159 H136 0.977 . S
C159 C156 1.453 1_545 S
C160 H132 0.979 . S
C160 H133 0.980 . S
C160 H134 0.983 . S
C160 C156 1.684 . S
H161 C179 0.948 . S
H162 C120 0.948 . S
H163 C138 0.979 . S
H164 C138 0.980 . S
H165 C138 0.983 . S
H166 C137 0.982 . S
H167 C137 0.979 . S
H168 C137 0.977 . S
H169 C139 0.948 . S
H170 C141 0.947 . S
H171 C142 0.948 . S
H172 C148 0.982 . S
H173 C148 0.979 . S
H174 C148 0.977 . S
H175 C149 0.979 . S
H176 C149 0.980 . S
H177 C149 0.983 . S
H178 C122 0.947 . S
C179 C122 1.392 . S
C179 C123 1.419 1_556 S
C179 H161 0.948 . S
C180 C181 1.391 . S
C180 C184 1.391 . S
C180 H222 0.948 . S
C181 C180 1.391 . S
C181 C182 1.391 . S
C182 C181 1.391 . S
C182 H238 0.947 . S
C182 C239 1.392 . S
C183 C184 1.391 . S
C183 C187 1.397 . S
C183 C239 1.419 . S
C184 C180 1.391 . S
C184 C183 1.391 . S
C184 C185 1.399 . S
C185 C184 1.399 . S
C185 C188 1.396 . S
C185 C197 1.453 . S
C185 C198 1.684 . S
H186 C210 0.948 . S
C187 C183 1.397 . S
C187 C188 1.394 . S
C187 C206 1.723 . S
C188 C185 1.396 . S
C188 C187 1.394 . S
C188 C218 1.723 . S
H189 C212 0.947 . S
H190 C213 0.948 . S
H191 C219 0.982 . S
H192 C220 0.979 . S
H193 C220 0.980 . S
H194 C220 0.983 . S
H195 C219 0.979 . S
H196 C219 0.977 . S
C197 C185 1.453 . S
C197 H226 0.982 . S
C197 H227 0.979 . S
C197 H228 0.977 . S
C198 C185 1.684 . S
C198 H223 0.979 . S
C198 H224 0.980 . S
C198 H225 0.983 . S
C199 C200 1.391 . S
C199 C204 1.391 . S
C199 H229 0.948 . S
C200 C199 1.391 . S
C200 C201 1.391 . S
C201 C200 1.391 . S
C201 C202 1.392 . S
C201 H230 0.947 . S
C202 C201 1.392 . S
C202 C203 1.419 . S
C202 H231 0.948 . S
C203 C202 1.419 . S
C203 C204 1.391 . S
C203 C207 1.397 1_556 S
C204 C199 1.391 . S
C204 C203 1.391 . S
C204 C205 1.399 1_556 S
C205 C204 1.399 1_554 S
C205 C206 1.396 . S
C205 C208 1.453 . S
C205 C209 1.684 . S
C206 C187 1.723 . S
C206 C205 1.396 . S
C206 C207 1.394 . S
C207 C203 1.397 1_554 S
C207 C206 1.394 . S
C207 C217 1.723 . S
C208 C205 1.453 . S
C208 H232 0.982 . S
C208 H233 0.979 . S
C208 H234 0.977 . S
C209 C205 1.684 . S
C209 H235 0.979 . S
C209 H236 0.980 . S
C209 H237 0.983 . S
C210 H186 0.948 . S
C210 C211 1.391 1_556 S
C210 C215 1.391 1_556 S
C211 C210 1.391 1_554 S
C211 C212 1.391 . S
C212 H189 0.947 . S
C212 C211 1.391 . S
C212 C213 1.392 . S
C213 H190 0.948 . S
C213 C212 1.392 . S
C213 C214 1.419 . S
C214 C213 1.419 . S
C214 C215 1.391 . S
C214 C218 1.397 . S
C215 C210 1.391 1_554 S
C215 C214 1.391 . S
C215 C216 1.399 1_554 S
C216 C215 1.399 1_556 S
C216 C217 1.396 1_556 S
C216 C219 1.453 . S
C216 C220 1.684 . S
C217 C207 1.723 . S
C217 C216 1.396 1_554 S
C217 C218 1.394 . S
C218 C188 1.723 . S
C218 C214 1.397 . S
C218 C217 1.394 . S
C219 H191 0.982 . S
C219 H195 0.979 . S
C219 H196 0.977 . S
C219 C216 1.453 . S
C220 H192 0.979 . S
C220 H193 0.980 . S
C220 H194 0.983 . S
C220 C216 1.684 . S
H221 C239 0.948 . S
H222 C180 0.948 . S
H223 C198 0.979 . S
H224 C198 0.980 . S
H225 C198 0.983 . S
H226 C197 0.982 . S
H227 C197 0.979 . S
H228 C197 0.977 . S
H229 C199 0.948 . S
H230 C201 0.947 . S
H231 C202 0.948 . S
H232 C208 0.982 . S
H233 C208 0.979 . S
H234 C208 0.977 . S
H235 C209 0.979 . S
H236 C209 0.980 . S
H237 C209 0.983 . S
H238 C182 0.947 . S
C239 C182 1.392 . S
C239 C183 1.419 . S
C239 H221 0.948 . S
C240 C241 1.391 . S
C240 C244 1.391 . S
C240 H282 0.948 . S
C241 C240 1.391 . S
C241 C242 1.391 . S
C242 C241 1.391 . S
C242 H298 0.947 . S
C242 C299 1.392 . S
C243 C244 1.391 . S
C243 C247 1.397 . S
C243 C299 1.419 . S
C244 C240 1.391 . S
C244 C243 1.391 . S
C244 C245 1.399 . S
C245 C244 1.399 . S
C245 C248 1.396 . S
C245 C257 1.453 . S
C245 C258 1.684 . S
H246 C270 0.948 . S
C247 C243 1.397 . S
C247 C248 1.394 . S
C247 C266 1.723 . S
C248 C245 1.396 . S
C248 C247 1.394 . S
C248 C278 1.723 . S
H249 C272 0.947 . S
H250 C273 0.948 . S
H251 C279 0.982 . S
H252 C280 0.979 . S
H253 C280 0.980 . S
H254 C280 0.983 . S
H255 C279 0.979 . S
H256 C279 0.977 . S
C257 C245 1.453 . S
C257 H286 0.982 . S
C257 H287 0.979 . S
C257 H288 0.977 . S
C258 C245 1.684 . S
C258 H283 0.979 . S
C258 H284 0.980 . S
C258 H285 0.983 . S
C259 C260 1.391 . S
C259 C264 1.391 . S
C259 H289 0.948 . S
C260 C259 1.391 . S
C260 C261 1.391 . S
C261 C260 1.391 . S
C261 C262 1.392 . S
C261 H290 0.947 . S
C262 C261 1.392 . S
C262 C263 1.419 . S
C262 H291 0.948 . S
C263 C262 1.419 . S
C263 C264 1.391 . S
C263 C267 1.397 . S
C264 C259 1.391 . S
C264 C263 1.391 . S
C264 C265 1.399 . S
C265 C264 1.399 . S
C265 C266 1.396 . S
C265 C268 1.453 . S
C265 C269 1.684 . S
C266 C247 1.723 . S
C266 C265 1.396 . S
C266 C267 1.394 . S
C267 C263 1.397 . S
C267 C266 1.394 . S
C267 C277 1.723 . S
C268 C265 1.453 . S
C268 H292 0.982 . S
C268 H293 0.979 . S
C268 H294 0.977 . S
C269 C265 1.684 . S
C269 H295 0.979 . S
C269 H296 0.980 . S
C269 H297 0.983 . S
C270 H246 0.948 . S
C270 C271 1.391 . S
C270 C275 1.391 . S
C271 C270 1.391 . S
C271 C272 1.391 . S
C272 H249 0.947 . S
C272 C271 1.391 . S
C272 C273 1.392 . S
C273 H250 0.948 . S
C273 C272 1.392 . S
C273 C274 1.419 . S
C274 C273 1.419 . S
C274 C275 1.391 . S
C274 C278 1.397 . S
C275 C270 1.391 . S
C275 C274 1.391 . S
C275 C276 1.399 . S
C276 C275 1.399 . S
C276 C277 1.396 . S
C276 C279 1.453 . S
C276 C280 1.684 . S
C277 C267 1.723 . S
C277 C276 1.396 . S
C277 C278 1.394 . S
C278 C248 1.723 . S
C278 C274 1.397 . S
C278 C277 1.394 . S
C279 H251 0.982 . S
C279 H255 0.979 . S
C279 H256 0.977 . S
C279 C276 1.453 . S
C280 H252 0.979 . S
C280 H253 0.980 . S
C280 H254 0.983 . S
C280 C276 1.684 . S
H281 C299 0.948 . S
H282 C240 0.948 . S
H283 C258 0.979 . S
H284 C258 0.980 . S
H285 C258 0.983 . S
H286 C257 0.982 . S
H287 C257 0.979 . S
H288 C257 0.977 . S
H289 C259 0.948 . S
H290 C261 0.947 . S
H291 C262 0.948 . S
H292 C268 0.982 . S
H293 C268 0.979 . S
H294 C268 0.977 . S
H295 C269 0.979 . S
H296 C269 0.980 . S
H297 C269 0.983 . S
H298 C242 0.947 . S
C299 C242 1.392 . S
C299 C243 1.419 . S
C299 H281 0.948 . S
C300 C301 1.391 . S
C300 C304 1.391 . S
C300 H342 0.948 . S
C301 C300 1.391 . S
C301 C302 1.391 . S
C302 C301 1.391 . S
C302 H358 0.947 . S
C302 C359 1.392 . S
C303 C304 1.391 . S
C303 C307 1.397 . S
C303 C359 1.419 . S
C304 C300 1.391 . S
C304 C303 1.391 . S
C304 C305 1.399 . S
C305 C304 1.399 . S
C305 C308 1.396 . S
C305 C317 1.453 . S
C305 C318 1.684 . S
H306 C330 0.948 . S
C307 C303 1.397 . S
C307 C308 1.394 . S
C307 C326 1.723 . S
C308 C305 1.396 . S
C308 C307 1.394 . S
C308 C338 1.723 . S
H309 C332 0.947 . S
H310 C333 0.948 . S
H311 C339 0.982 . S
H312 C340 0.979 . S
H313 C340 0.980 . S
H314 C340 0.983 . S
H315 C339 0.979 . S
H316 C339 0.977 . S
C317 C305 1.453 . S
C317 H346 0.982 . S
C317 H347 0.979 . S
C317 H348 0.977 . S
C318 C305 1.684 . S
C318 H343 0.979 . S
C318 H344 0.980 . S
C318 H345 0.983 . S
C319 C320 1.391 . S
C319 C324 1.391 . S
C319 H349 0.948 . S
C320 C319 1.391 . S
C320 C321 1.391 . S
C321 C320 1.391 . S
C321 C322 1.392 . S
C321 H350 0.947 . S
C322 C321 1.392 . S
C322 C323 1.419 . S
C322 H351 0.948 . S
C323 C322 1.419 . S
C323 C324 1.391 . S
C323 C327 1.397 . S
C324 C319 1.391 . S
C324 C323 1.391 . S
C324 C325 1.399 . S
C325 C324 1.399 . S
C325 C326 1.396 . S
C325 C328 1.453 . S
C325 C329 1.684 . S
C326 C307 1.723 . S
C326 C325 1.396 . S
C326 C327 1.394 . S
C327 C323 1.397 . S
C327 C326 1.394 . S
C327 C337 1.723 . S
C328 C325 1.453 . S
C328 H352 0.982 . S
C328 H353 0.979 . S
C328 H354 0.977 . S
C329 C325 1.684 . S
C329 H355 0.979 . S
C329 H356 0.980 . S
C329 H357 0.983 . S
C330 H306 0.948 . S
C330 C331 1.391 . S
C330 C335 1.391 . S
C331 C330 1.391 . S
C331 C332 1.391 . S
C332 H309 0.947 . S
C332 C331 1.391 . S
C332 C333 1.392 . S
C333 H310 0.948 . S
C333 C332 1.392 . S
C333 C334 1.419 . S
C334 C333 1.419 . S
C334 C335 1.391 . S
C334 C338 1.397 . S
C335 C330 1.391 . S
C335 C334 1.391 . S
C335 C336 1.399 . S
C336 C335 1.399 . S
C336 C337 1.396 . S
C336 C339 1.453 . S
C336 C340 1.684 . S
C337 C327 1.723 . S
C337 C336 1.396 . S
C337 C338 1.394 . S
C338 C308 1.723 . S
C338 C334 1.397 . S
C338 C337 1.394 . S
C339 H311 0.982 . S
C339 H315 0.979 . S
C339 H316 0.977 . S
C339 C336 1.453 . S
C340 H312 0.979 . S
C340 H313 0.980 . S
C340 H314 0.983 . S
C340 C336 1.684 . S
H341 C359 0.948 . S
H342 C300 0.948 . S
H343 C318 0.979 . S
H344 C318 0.980 . S
H345 C318 0.983 . S
H346 C317 0.982 . S
H347 C317 0.979 . S
H348 C317 0.977 . S
H349 C319 0.948 . S
H350 C321 0.947 . S
H351 C322 0.948 . S
H352 C328 0.982 . S
H353 C328 0.979 . S
H354 C328 0.977 . S
H355 C329 0.979 . S
H356 C329 0.980 . S
H357 C329 0.983 . S
H358 C302 0.947 . S
C359 C302 1.392 . S
C359 C303 1.419 . S
C359 H341 0.948 . S
C360 C361 1.387 1_554 S
C360 C364 1.391 . S
C360 H402 0.948 1_554 S
C361 C360 1.387 1_556 S
C361 C362 1.381 1_556 S
C362 C361 1.381 1_554 S
C362 H418 0.947 . S
C362 C419 1.392 . S
C363 C364 1.391 . S
C363 C367 1.397 . S
C363 C419 1.419 . S
C364 C360 1.391 . S
C364 C363 1.391 . S
C364 C365 1.399 . S
C365 C364 1.399 . S
C365 C368 1.396 . S
C365 C377 1.453 1_545 S
C365 C378 1.684 . S
H366 C390 0.948 . S
C367 C363 1.397 . S
C367 C368 1.394 . S
C367 C386 1.723 . S
C368 C365 1.396 . S
C368 C367 1.394 . S
C368 C398 1.723 . S
H369 C392 0.947 . S
H370 C393 0.948 . S
H371 C399 0.982 . S
H372 C400 0.979 . S
H373 C400 0.980 . S
H374 C400 0.983 . S
H375 C399 0.979 . S
H376 C399 0.977 . S
C377 C365 1.453 1_565 S
C377 H406 0.982 . S
C377 H407 0.979 . S
C377 H408 0.977 . S
C378 C365 1.684 . S
C378 H403 0.979 . S
C378 H404 0.980 . S
C378 H405 0.983 . S
C379 C380 1.391 . S
C379 C384 1.391 . S
C379 H409 0.948 . S
C380 C379 1.391 . S
C380 C381 1.391 . S
C381 C380 1.391 . S
C381 C382 1.392 . S
C381 H410 0.947 . S
C382 C381 1.392 . S
C382 C383 1.419 . S
C382 H411 0.948 . S
C383 C382 1.419 . S
C383 C384 1.391 . S
C383 C387 1.397 . S
C384 C379 1.391 . S
C384 C383 1.391 . S
C384 C385 1.399 . S
C385 C384 1.399 . S
C385 C386 1.396 . S
C385 C388 1.453 1_545 S
C385 C389 1.684 . S
C386 C367 1.723 . S
C386 C385 1.396 . S
C386 C387 1.394 . S
C387 C383 1.397 . S
C387 C386 1.394 . S
C387 C397 1.723 . S
C388 C385 1.453 1_565 S
C388 H412 0.982 . S
C388 H413 0.979 . S
C388 H414 0.977 . S
C389 C385 1.684 . S
C389 H415 0.979 . S
C389 H416 0.980 . S
C389 H417 0.983 . S
C390 H366 0.948 . S
C390 C391 1.391 . S
C390 C395 1.391 . S
C391 C390 1.391 . S
C391 C392 1.391 . S
C392 H369 0.947 . S
C392 C391 1.391 . S
C392 C393 1.392 . S
C393 H370 0.948 . S
C393 C392 1.392 . S
C393 C394 1.419 . S
C394 C393 1.419 . S
C394 C395 1.391 . S
C394 C398 1.397 . S
C395 C390 1.391 . S
C395 C394 1.391 . S
C395 C396 1.399 . S
C396 C395 1.399 . S
C396 C397 1.396 . S
C396 C399 1.453 1_545 S
C396 C400 1.684 . S
C397 C387 1.723 . S
C397 C396 1.396 . S
C397 C398 1.394 . S
C398 C368 1.723 . S
C398 C394 1.397 . S
C398 C397 1.394 . S
C399 H371 0.982 . S
C399 H375 0.979 . S
C399 H376 0.977 . S
C399 C396 1.453 1_565 S
C400 H372 0.979 . S
C400 H373 0.980 . S
C400 H374 0.983 . S
C400 C396 1.684 . S
H401 C419 0.948 . S
H402 C360 0.948 1_556 S
H403 C378 0.979 . S
H404 C378 0.980 . S
H405 C378 0.983 . S
H406 C377 0.982 . S
H407 C377 0.979 . S
H408 C377 0.977 . S
H409 C379 0.948 . S
H410 C381 0.947 . S
H411 C382 0.948 . S
H412 C388 0.982 . S
H413 C388 0.979 . S
H414 C388 0.977 . S
H415 C389 0.979 . S
H416 C389 0.980 . S
H417 C389 0.983 . S
H418 C362 0.947 . S
C419 C362 1.392 . S
C419 C363 1.419 . S
C419 H401 0.948 . S
C420 C421 1.391 . S
C420 C424 1.391 . S
C420 H462 0.948 . S
C421 C420 1.391 . S
C421 C422 1.391 . S
C422 C421 1.391 . S
C422 H478 0.947 . S
C422 C479 1.392 . S
C423 C424 1.391 . S
C423 C427 1.397 . S
C423 C479 1.419 . S
C424 C420 1.391 . S
C424 C423 1.391 . S
C424 C425 1.399 . S
C425 C424 1.399 . S
C425 C428 1.396 . S
C425 C437 1.453 . S
C425 C438 1.684 . S
H426 C450 0.948 . S
C427 C423 1.397 . S
C427 C428 1.394 . S
C427 C446 1.723 . S
C428 C425 1.396 . S
C428 C427 1.394 . S
C428 C458 1.723 . S
H429 C452 0.947 . S
H430 C453 0.948 . S
H431 C459 0.982 . S
H432 C460 0.979 . S
H433 C460 0.980 . S
H434 C460 0.983 . S
H435 C459 0.979 . S
H436 C459 0.977 . S
C437 C425 1.453 . S
C437 H466 0.982 . S
C437 H467 0.979 . S
C437 H468 0.977 . S
C438 C425 1.684 . S
C438 H463 0.979 . S
C438 H464 0.980 . S
C438 H465 0.983 . S
C439 C440 1.391 . S
C439 C444 1.391 . S
C439 H469 0.948 . S
C440 C439 1.391 . S
C440 C441 1.391 . S
C441 C440 1.391 . S
C441 C442 1.392 . S
C441 H470 0.947 . S
C442 C441 1.392 . S
C442 C443 1.419 . S
C442 H471 0.948 . S
C443 C442 1.419 . S
C443 C444 1.391 . S
C443 C447 1.397 . S
C444 C439 1.391 . S
C444 C443 1.391 . S
C444 C445 1.399 . S
C445 C444 1.399 . S
C445 C446 1.396 . S
C445 C448 1.453 . S
C445 C449 1.684 . S
C446 C427 1.723 . S
C446 C445 1.396 . S
C446 C447 1.394 . S
C447 C443 1.397 . S
C447 C446 1.394 . S
C447 C457 1.723 . S
C448 C445 1.453 . S
C448 H472 0.982 . S
C448 H473 0.979 . S
C448 H474 0.977 . S
C449 C445 1.684 . S
C449 H475 0.979 . S
C449 H476 0.980 . S
C449 H477 0.983 . S
C450 H426 0.948 . S
C450 C451 1.391 . S
C450 C455 1.391 . S
C451 C450 1.391 . S
C451 C452 1.391 . S
C452 H429 0.947 . S
C452 C451 1.391 . S
C452 C453 1.392 . S
C453 H430 0.948 . S
C453 C452 1.392 . S
C453 C454 1.419 . S
C454 C453 1.419 . S
C454 C455 1.391 . S
C454 C458 1.397 . S
C455 C450 1.391 . S
C455 C454 1.391 . S
C455 C456 1.399 . S
C456 C455 1.399 . S
C456 C457 1.396 . S
C456 C459 1.453 . S
C456 C460 1.684 . S
C457 C447 1.723 . S
C457 C456 1.396 . S
C457 C458 1.394 . S
C458 C428 1.723 . S
C458 C454 1.397 . S
C458 C457 1.394 . S
C459 H431 0.982 . S
C459 H435 0.979 . S
C459 H436 0.977 . S
C459 C456 1.453 . S
C460 H432 0.979 . S
C460 H433 0.980 . S
C460 H434 0.983 . S
C460 C456 1.684 . S
H461 C479 0.948 . S
H462 C420 0.948 . S
H463 C438 0.979 . S
H464 C438 0.980 . S
H465 C438 0.983 . S
H466 C437 0.982 . S
H467 C437 0.979 . S
H468 C437 0.977 . S
H469 C439 0.948 . S
H470 C441 0.947 . S
H471 C442 0.948 . S
H472 C448 0.982 . S
H473 C448 0.979 . S
H474 C448 0.977 . S
H475 C449 0.979 . S
H476 C449 0.980 . S
H477 C449 0.983 . S
H478 C422 0.947 . S
C479 C422 1.392 . S
C479 C423 1.419 . S
C479 H461 0.948 . S
Tb480 O483 2.453 1_665 S
Tb480 O484 2.596 1_665 S
Tb480 O485 2.374 1_655 S
Tb480 O493 2.343 . S
Tb480 O495 2.353 1_565 S
Tb480 O497 2.427 . S
Tb480 O498 2.513 . S
C481 O485 1.251 . S
C481 O487 1.263 . S
Tb482 O484 2.343 . S
Tb482 O487 2.353 1_545 S
Tb482 O490 2.427 . S
Tb482 O491 2.513 . S
Tb482 O492 2.453 1_545 S
Tb482 O493 2.596 1_445 S
Tb482 O494 2.374 1_455 S
O483 Tb480 2.453 1_445 S
O483 C499 1.245 . S
O484 Tb480 2.596 1_445 S
O484 Tb482 2.343 . S
O484 C499 1.259 . S
O485 Tb480 2.374 1_455 S
O485 C481 1.251 . S
C486 O490 1.275 . S
C486 O491 1.246 . S
O487 C481 1.263 . S
O487 Tb482 2.353 1_565 S
C488 O492 1.245 1_655 S
C488 O493 1.259 . S
C489 O494 1.250 . S
C489 O495 1.263 . S
O490 Tb482 2.427 . S
O490 C486 1.275 . S
O491 Tb482 2.513 . S
O491 C486 1.246 . S
O492 Tb482 2.453 1_565 S
O492 C488 1.245 1_455 S
O493 Tb480 2.343 . S
O493 Tb482 2.596 1_665 S
O493 C488 1.259 . S
O494 Tb482 2.374 1_655 S
O494 C489 1.250 . S
O495 Tb480 2.353 1_545 S
O495 C489 1.263 . S
C496 O497 1.275 . S
C496 O498 1.246 . S
O497 Tb480 2.427 . S
O497 C496 1.275 . S
O498 Tb480 2.513 . S
O498 C496 1.246 . S
C499 O483 1.245 . S
C499 O484 1.259 . S
Tb500 O503 2.453 . S
Tb500 O504 2.596 1_545 S
Tb500 O505 2.374 . S
Tb500 O513 2.343 . S
Tb500 O515 2.353 . S
Tb500 O517 2.427 . S
Tb500 O518 2.513 . S
C501 O505 1.282 . S
C501 O507 1.234 1_545 S
Tb502 O504 2.343 . S
Tb502 O507 2.353 . S
Tb502 O510 2.427 . S
Tb502 O511 2.513 . S
Tb502 O512 2.453 . S
Tb502 O513 2.596 1_565 S
Tb502 O514 2.374 . S
O503 Tb500 2.453 . S
O503 C519 1.245 . S
O504 Tb500 2.596 1_565 S
O504 Tb502 2.343 . S
O504 C519 1.259 1_565 S
O505 Tb500 2.374 . S
O505 C501 1.282 . S
C506 O510 1.275 . S
C506 O511 1.246 . S
O507 C501 1.234 1_565 S
O507 Tb502 2.353 . S
C508 O512 1.245 . S
C508 O513 1.259 1_565 S
C509 O514 1.250 1_545 S
C509 O515 1.263 . S
O510 Tb502 2.427 . S
O510 C506 1.275 . S
O511 Tb502 2.513 . S
O511 C506 1.246 . S
O512 Tb502 2.453 . S
O512 C508 1.245 . S
O513 Tb500 2.343 . S
O513 Tb502 2.596 1_545 S
O513 C508 1.259 1_545 S
O514 Tb502 2.374 . S
O514 C509 1.250 1_565 S
O515 Tb500 2.353 . S
O515 C509 1.263 . S
C516 O517 1.275 . S
C516 O518 1.246 . S
O517 Tb500 2.427 . S
O517 C516 1.275 . S
O518 Tb500 2.513 . S
O518 C516 1.246 . S
C519 O503 1.245 . S
C519 O504 1.259 1_545 S
Tb520 O523 2.453 . S
Tb520 O524 2.596 . S
Tb520 O525 2.374 . S
Tb520 O533 2.343 . S
Tb520 O535 2.353 . S
Tb520 O537 2.427 . S
Tb520 O538 2.513 . S
C521 O525 1.251 . S
C521 O527 1.263 . S
Tb522 O524 2.343 . S
Tb522 O527 2.353 . S
Tb522 O530 2.427 . S
Tb522 O531 2.513 . S
Tb522 O532 2.453 . S
Tb522 O533 2.596 . S
Tb522 O534 2.374 . S
O523 Tb520 2.453 . S
O523 C539 1.245 . S
O524 Tb520 2.596 . S
O524 Tb522 2.343 . S
O524 C539 1.259 . S
O525 Tb520 2.374 . S
O525 C521 1.251 . S
C526 O530 1.275 . S
C526 O531 1.246 . S
O527 C521 1.263 . S
O527 Tb522 2.353 . S
C528 O532 1.245 . S
C528 O533 1.259 . S
C529 O534 1.250 . S
C529 O535 1.263 . S
O530 Tb522 2.427 . S
O530 C526 1.275 . S
O531 Tb522 2.513 . S
O531 C526 1.246 . S
O532 Tb522 2.453 . S
O532 C528 1.245 . S
O533 Tb520 2.343 . S
O533 Tb522 2.596 . S
O533 C528 1.259 . S
O534 Tb522 2.374 . S
O534 C529 1.250 . S
O535 Tb520 2.353 . S
O535 C529 1.263 . S
C536 O537 1.275 . S
C536 O538 1.246 . S
O537 Tb520 2.427 . S
O537 C536 1.275 . S
O538 Tb520 2.513 . S
O538 C536 1.246 . S
C539 O523 1.245 . S
C539 O524 1.259 . S
Tb540 O543 2.453 1_655 S
Tb540 O544 2.596 1_655 S
Tb540 O545 2.374 1_655 S
Tb540 O553 2.343 . S
Tb540 O555 2.353 . S
Tb540 O557 2.427 . S
Tb540 O558 2.513 . S
C541 O545 1.251 . S
C541 O547 1.263 . S
Tb542 O544 2.343 . S
Tb542 O547 2.353 . S
Tb542 O550 2.427 . S
Tb542 O551 2.513 . S
Tb542 O552 2.453 1_455 S
Tb542 O553 2.596 1_455 S
Tb542 O554 2.385 . S
O543 Tb540 2.453 1_455 S
O543 C559 1.245 . S
O544 Tb540 2.596 1_455 S
O544 Tb542 2.343 . S
O544 C559 1.259 . S
O545 Tb540 2.374 1_455 S
O545 C541 1.251 . S
C546 O550 1.275 . S
C546 O551 1.246 . S
O547 C541 1.263 . S
O547 Tb542 2.353 . S
C548 O552 1.245 . S
C548 O553 1.259 . S
C549 O554 1.236 1_655 S
C549 O555 1.263 . S
O550 Tb542 2.427 . S
O550 C546 1.275 . S
O551 Tb542 2.513 . S
O551 C546 1.246 . S
O552 Tb542 2.453 1_655 S
O552 C548 1.245 . S
O553 Tb540 2.343 . S
O553 Tb542 2.596 1_655 S
O553 C548 1.259 . S
O554 Tb542 2.385 . S
O554 C549 1.236 1_455 S
O555 Tb540 2.353 . S
O555 C549 1.263 . S
C556 O557 1.275 . S
C556 O558 1.246 . S
O557 Tb540 2.427 . S
O557 C556 1.275 . S
O558 Tb540 2.513 . S
O558 C556 1.246 . S
C559 O543 1.245 . S
C559 O544 1.259 . S
H560 C566 0.930 . S
H561 C569 0.930 . S
H562 C570 0.930 . S
H563 C571 0.930 . S
H564 C574 0.930 . S
H565 C575 0.930 . S
C566 H560 0.930 . S
C566 C567 1.363 . S
C566 C568 1.415 . S
C567 C566 1.363 . S
C567 C569 1.409 1_545 S
C568 C566 1.415 . S
C568 C573 1.425 1_545 S
C568 C575 1.409 . S
C569 H561 0.930 . S
C569 C567 1.409 1_565 S
C569 C570 1.362 . S
C570 H562 0.930 . S
C570 C569 1.362 . S
C570 C573 1.409 . S
C571 H563 0.930 . S
C571 C572 1.360 . S
C571 C573 1.415 . S
C572 C571 1.360 . S
C572 C574 1.413 1_565 S
C573 C568 1.425 1_565 S
C573 C570 1.409 . S
C573 C571 1.415 . S
C574 H564 0.930 . S
C574 C572 1.413 1_545 S
C574 C575 1.362 . S
C575 H565 0.930 . S
C575 C568 1.409 . S
C575 C574 1.362 . S
H576 C582 0.930 . S
H577 C585 0.930 . S
H578 C586 0.930 . S
H579 C587 0.930 . S
H580 C590 0.930 . S
H581 C591 0.930 . S
C582 H576 0.930 . S
C582 C583 1.355 . S
C582 C584 1.415 . S
C583 C582 1.355 . S
C583 C585 1.419 . S
C584 C582 1.415 . S
C584 C589 1.425 . S
C584 C591 1.409 . S
C585 H577 0.930 . S
C585 C583 1.419 . S
C585 C586 1.362 . S
C586 H578 0.930 . S
C586 C585 1.362 . S
C586 C589 1.409 . S
C587 H579 0.930 . S
C587 C588 1.355 . S
C587 C589 1.415 . S
C588 C587 1.355 . S
C588 C590 1.419 . S
C589 C584 1.425 . S
C589 C586 1.409 . S
C589 C587 1.415 . S
C590 H580 0.930 . S
C590 C588 1.419 . S
C590 C591 1.362 . S
C591 H581 0.930 . S
C591 C584 1.409 . S
C591 C590 1.362 . S
H592 C598 0.930 . S
H593 C601 0.930 . S
H594 C602 0.930 . S
H595 C603 0.930 . S
H596 C606 0.930 . S
H597 C607 0.930 . S
C598 H592 0.930 . S
C598 C599 1.355 . S
C598 C600 1.415 . S
C599 C598 1.355 . S
C599 C601 1.419 . S
C600 C598 1.415 . S
C600 C605 1.425 . S
C600 C607 1.409 . S
C601 H593 0.930 . S
C601 C599 1.419 . S
C601 C602 1.362 . S
C602 H594 0.930 . S
C602 C601 1.362 . S
C602 C605 1.409 . S
C603 H595 0.930 . S
C603 C604 1.355 . S
C603 C605 1.415 . S
C604 C603 1.355 . S
C604 C606 1.419 . S
C605 C600 1.425 . S
C605 C602 1.409 . S
C605 C603 1.415 . S
C606 H596 0.930 . S
C606 C604 1.419 . S
C606 C607 1.362 . S
C607 H597 0.930 . S
C607 C600 1.409 . S
C607 C606 1.362 . S
H608 C614 0.930 . S
H609 C617 0.930 . S
H610 C618 0.930 . S
H611 C619 0.930 . S
H612 C622 0.930 . S
H613 C623 0.930 . S
C614 H608 0.930 . S
C614 C615 1.355 . S
C614 C616 1.415 . S
C615 C614 1.355 . S
C615 C617 1.419 . S
C616 C614 1.415 . S
C616 C621 1.425 . S
C616 C623 1.409 . S
C617 H609 0.930 . S
C617 C615 1.419 . S
C617 C618 1.362 . S
C618 H610 0.930 . S
C618 C617 1.362 . S
C618 C621 1.409 . S
C619 H611 0.930 . S
C619 C620 1.355 . S
C619 C621 1.415 . S
C620 C619 1.355 . S
C620 C622 1.419 . S
C621 C616 1.425 . S
C621 C618 1.409 . S
C621 C619 1.415 . S
C622 H612 0.930 . S
C622 C620 1.419 . S
C622 C623 1.362 . S
C623 H613 0.930 . S
C623 C616 1.409 . S
C623 C622 1.362 . S
H624 C630 0.930 . S
H625 C633 0.930 . S
H626 C634 0.930 . S
H627 C635 0.930 . S
H628 C638 0.930 . S
H629 C639 0.930 . S
C630 H624 0.930 . S
C630 C631 1.355 1_565 S
C630 C632 1.415 . S
C631 C630 1.355 1_545 S
C631 C633 1.419 1_556 S
C632 C630 1.415 . S
C632 C637 1.425 1_565 S
C632 C639 1.409 . S
C633 H625 0.930 . S
C633 C631 1.419 1_554 S
C633 C634 1.362 1_554 S
C634 H626 0.930 . S
C634 C633 1.362 1_556 S
C634 C637 1.409 . S
C635 H627 0.930 . S
C635 C636 1.355 . S
C635 C637 1.415 . S
C636 C635 1.355 . S
C636 C638 1.419 1_545 S
C637 C632 1.425 1_545 S
C637 C634 1.409 . S
C637 C635 1.415 . S
C638 H628 0.930 . S
C638 C636 1.419 1_565 S
C638 C639 1.362 . S
C639 H629 0.930 . S
C639 C632 1.409 . S
C639 C638 1.362 . S
H640 C646 0.930 . S
H641 C649 0.930 . S
H642 C650 0.930 . S
H643 C651 0.930 . S
H644 C654 0.930 . S
H645 C655 0.930 . S
C646 H640 0.930 . S
C646 C647 1.355 . S
C646 C648 1.415 . S
C647 C646 1.355 . S
C647 C649 1.419 1_556 S
C648 C646 1.415 . S
C648 C653 1.425 . S
C648 C655 1.409 . S
C649 H641 0.930 . S
C649 C647 1.419 1_554 S
C649 C650 1.362 1_554 S
C650 H642 0.930 . S
C650 C649 1.362 1_556 S
C650 C653 1.409 . S
C651 H643 0.930 . S
C651 C652 1.355 . S
C651 C653 1.415 . S
C652 C651 1.355 . S
C652 C654 1.419 . S
C653 C648 1.425 . S
C653 C650 1.409 . S
C653 C651 1.415 . S
C654 H644 0.930 . S
C654 C652 1.419 . S
C654 C655 1.362 . S
C655 H645 0.930 . S
C655 C648 1.409 . S
C655 C654 1.362 . S
H656 C662 0.930 1_554 S
H657 C665 0.930 . S
H658 C666 0.930 . S
H659 C667 0.930 . S
H660 C670 0.930 . S
H661 C671 0.930 . S
C662 H656 0.930 1_556 S
C662 C663 1.355 . S
C662 C664 1.415 . S
C663 C662 1.355 . S
C663 C665 1.419 . S
C664 C662 1.415 . S
C664 C669 1.425 . S
C664 C671 1.409 . S
C665 H657 0.930 . S
C665 C663 1.419 . S
C665 C666 1.362 . S
C666 H658 0.930 . S
C666 C665 1.362 . S
C666 C669 1.409 . S
C667 H659 0.930 . S
C667 C668 1.355 . S
C667 C669 1.415 . S
C668 C667 1.355 . S
C668 C670 1.419 . S
C669 C664 1.425 . S
C669 C666 1.409 . S
C669 C667 1.415 . S
C670 H660 0.930 . S
C670 C668 1.419 . S
C670 C671 1.362 . S
C671 H661 0.930 . S
C671 C664 1.409 . S
C671 C670 1.362 . S
H672 C678 0.930 . S
H673 C681 0.930 . S
H674 C682 0.930 . S
H675 C683 0.930 . S
H676 C686 0.930 . S
H677 C687 0.930 . S
C678 H672 0.930 . S
C678 C679 1.355 . S
C678 C680 1.415 . S
C679 C678 1.355 . S
C679 C681 1.419 . S
C680 C678 1.415 . S
C680 C685 1.425 . S
C680 C687 1.409 . S
C681 H673 0.930 . S
C681 C679 1.419 . S
C681 C682 1.362 . S
C682 H674 0.930 . S
C682 C681 1.362 . S
C682 C685 1.409 . S
C683 H675 0.930 . S
C683 C684 1.355 . S
C683 C685 1.415 . S
C684 C683 1.355 . S
C684 C686 1.419 . S
C685 C680 1.425 . S
C685 C682 1.409 . S
C685 C683 1.415 . S
C686 H676 0.930 . S
C686 C684 1.419 . S
C686 C687 1.362 . S
C687 H677 0.930 . S
C687 C680 1.409 . S
C687 C686 1.362 . S
H688 C694 0.930 . S
H689 C697 0.930 . S
H690 C698 0.930 . S
H691 C699 0.930 . S
H692 C702 0.930 . S
H693 C703 0.930 . S
C694 H688 0.930 . S
C694 C695 1.355 . S
C694 C696 1.415 . S
C695 C694 1.355 . S
C695 C697 1.419 . S
C696 C694 1.415 . S
C696 C701 1.425 . S
C696 C703 1.409 . S
C697 H689 0.930 . S
C697 C695 1.419 . S
C697 C698 1.362 . S
C698 H690 0.930 . S
C698 C697 1.362 . S
C698 C701 1.409 . S
C699 H691 0.930 . S
C699 C700 1.355 . S
C699 C701 1.415 . S
C700 C699 1.355 . S
C700 C702 1.419 . S
C701 C696 1.425 . S
C701 C698 1.409 . S
C701 C699 1.415 . S
C702 H692 0.930 . S
C702 C700 1.419 . S
C702 C703 1.362 . S
C703 H693 0.930 . S
C703 C696 1.409 . S
C703 C702 1.362 . S
H704 C710 0.930 . S
H705 C713 0.930 . S
H706 C714 0.930 . S
H707 C715 0.930 . S
H708 C718 0.930 . S
H709 C719 0.930 . S
C710 H704 0.930 . S
C710 C711 1.355 . S
C710 C712 1.415 . S
C711 C710 1.355 . S
C711 C713 1.419 1_545 S
C712 C710 1.415 . S
C712 C717 1.420 1_545 S
C712 C719 1.409 . S
C713 H705 0.930 . S
C713 C711 1.419 1_565 S
C713 C714 1.362 . S
C714 H706 0.930 . S
C714 C713 1.362 . S
C714 C717 1.411 . S
C715 H707 0.930 . S
C715 C716 1.354 1_565 S
C715 C717 1.419 . S
C716 C715 1.354 1_545 S
C716 C718 1.421 . S
C717 C712 1.420 1_565 S
C717 C714 1.411 . S
C717 C715 1.419 . S
C718 H708 0.930 . S
C718 C716 1.421 . S
C718 C719 1.362 . S
C719 H709 0.930 . S
C719 C712 1.409 . S
C719 C718 1.362 . S
H720 C726 0.930 . S
H721 C729 0.930 . S
H722 C730 0.930 . S
H723 C731 0.930 . S
H724 C734 0.930 . S
H725 C735 0.930 . S
C726 H720 0.930 . S
C726 C727 1.355 . S
C726 C728 1.415 . S
C727 C726 1.355 . S
C727 C729 1.419 . S
C728 C726 1.415 . S
C728 C733 1.425 . S
C728 C735 1.409 . S
C729 H721 0.930 . S
C729 C727 1.419 . S
C729 C730 1.362 . S
C730 H722 0.930 . S
C730 C729 1.362 . S
C730 C733 1.409 . S
C731 H723 0.930 . S
C731 C732 1.355 . S
C731 C733 1.415 . S
C732 C731 1.355 . S
C732 C734 1.419 . S
C733 C728 1.425 . S
C733 C730 1.409 . S
C733 C731 1.415 . S
C734 H724 0.930 . S
C734 C732 1.419 . S
C734 C735 1.362 . S
C735 H725 0.930 . S
C735 C728 1.409 . S
C735 C734 1.362 . S
H736 C742 0.930 . S
H737 C745 0.930 . S
H738 C746 0.930 . S
H739 C747 0.930 . S
H740 C750 0.930 . S
H741 C751 0.930 . S
C742 H736 0.930 . S
C742 C743 1.355 . S
C742 C744 1.415 . S
C743 C742 1.355 . S
C743 C745 1.419 . S
C744 C742 1.415 . S
C744 C749 1.425 . S
C744 C751 1.409 . S
C745 H737 0.930 . S
C745 C743 1.419 . S
C745 C746 1.362 . S
C746 H738 0.930 . S
C746 C745 1.362 . S
C746 C749 1.409 . S
C747 H739 0.930 . S
C747 C748 1.355 . S
C747 C749 1.415 . S
C748 C747 1.355 . S
C748 C750 1.419 . S
C749 C744 1.425 . S
C749 C746 1.409 . S
C749 C747 1.415 . S
C750 H740 0.930 . S
C750 C748 1.419 . S
C750 C751 1.362 . S
C751 H741 0.930 . S
C751 C744 1.409 . S
C751 C750 1.362 . S
H752 C758 0.930 . S
H753 C761 0.930 . S
H754 C762 0.930 . S
H755 C763 0.930 . S
H756 C766 0.930 . S
H757 C767 0.930 . S
C758 H752 0.930 . S
C758 C759 1.355 . S
C758 C760 1.415 . S
C759 C758 1.355 . S
C759 C761 1.419 . S
C760 C758 1.415 . S
C760 C765 1.425 . S
C760 C767 1.409 . S
C761 H753 0.930 . S
C761 C759 1.419 . S
C761 C762 1.362 . S
C762 H754 0.930 . S
C762 C761 1.362 . S
C762 C765 1.409 . S
C763 H755 0.930 . S
C763 C764 1.355 . S
C763 C765 1.415 . S
C764 C763 1.355 . S
C764 C766 1.419 . S
C765 C760 1.425 . S
C765 C762 1.409 . S
C765 C763 1.415 . S
C766 H756 0.930 . S
C766 C764 1.419 . S
C766 C767 1.362 . S
C767 H757 0.930 . S
C767 C760 1.409 . S
C767 C766 1.362 . S
H768 C774 0.930 . S
H769 C777 0.930 . S
H770 C778 0.930 . S
H771 C779 0.930 . S
H772 C782 0.930 . S
H773 C783 0.930 . S
C774 H768 0.930 . S
C774 C775 1.355 1_545 S
C774 C776 1.415 . S
C775 C774 1.355 1_565 S
C775 C777 1.419 . S
C776 C774 1.415 . S
C776 C781 1.425 1_545 S
C776 C783 1.409 . S
C777 H769 0.930 . S
C777 C775 1.419 . S
C777 C778 1.362 . S
C778 H770 0.930 . S
C778 C777 1.362 . S
C778 C781 1.409 . S
C779 H771 0.930 . S
C779 C780 1.355 1_565 S
C779 C781 1.415 . S
C780 C779 1.355 1_545 S
C780 C782 1.419 . S
C781 C776 1.425 1_565 S
C781 C778 1.409 . S
C781 C779 1.415 . S
C782 H772 0.930 . S
C782 C780 1.419 . S
C782 C783 1.362 . S
C783 H773 0.930 . S
C783 C776 1.409 . S
C783 C782 1.362 . S
H784 C790 0.930 . S
H785 C793 0.930 . S
H786 C794 0.930 . S
H787 C795 0.930 . S
H788 C798 0.930 . S
H789 C799 0.930 . S
C790 H784 0.930 . S
C790 C791 1.355 . S
C790 C792 1.415 . S
C791 C790 1.355 . S
C791 C793 1.419 . S
C792 C790 1.415 . S
C792 C797 1.425 . S
C792 C799 1.409 . S
C793 H785 0.930 . S
C793 C791 1.419 . S
C793 C794 1.362 . S
C794 H786 0.930 . S
C794 C793 1.362 . S
C794 C797 1.409 . S
C795 H787 0.930 . S
C795 C796 1.355 . S
C795 C797 1.415 . S
C796 C795 1.355 . S
C796 C798 1.419 . S
C797 C792 1.425 . S
C797 C794 1.409 . S
C797 C795 1.415 . S
C798 H788 0.930 . S
C798 C796 1.419 . S
C798 C799 1.362 . S
C799 H789 0.930 . S
C799 C792 1.409 . S
C799 C798 1.362 . S
H800 C806 0.930 . S
H801 C809 0.930 . S
H802 C810 0.930 . S
H803 C811 0.930 . S
H804 C814 0.930 . S
H805 C815 0.930 . S
C806 H800 0.930 . S
C806 C807 1.355 . S
C806 C808 1.415 . S
C807 C806 1.355 . S
C807 C809 1.419 . S
C808 C806 1.415 . S
C808 C813 1.425 . S
C808 C815 1.409 . S
C809 H801 0.930 . S
C809 C807 1.419 . S
C809 C810 1.362 . S
C810 H802 0.930 . S
C810 C809 1.362 . S
C810 C813 1.409 . S
C811 H803 0.930 . S
C811 C812 1.355 . S
C811 C813 1.415 . S
C812 C811 1.355 . S
C812 C814 1.419 . S
C813 C808 1.425 . S
C813 C810 1.409 . S
C813 C811 1.415 . S
C814 H804 0.930 . S
C814 C812 1.419 . S
C814 C815 1.362 . S
C815 H805 0.930 . S
C815 C808 1.409 . S
C815 C814 1.362 . S
H816 C822 0.930 . S
H817 C825 0.930 . S
H818 C826 0.930 . S
H819 C827 0.930 . S
H820 C830 0.930 . S
H821 C831 0.930 . S
C822 H816 0.930 . S
C822 C823 1.355 1_554 S
C822 C824 1.415 1_554 S
C823 C822 1.355 1_556 S
C823 C825 1.419 . S
C824 C822 1.415 1_556 S
C824 C829 1.425 . S
C824 C831 1.409 1_556 S
C825 H817 0.930 . S
C825 C823 1.419 . S
C825 C826 1.362 . S
C826 H818 0.930 . S
C826 C825 1.362 . S
C826 C829 1.409 . S
C827 H819 0.930 . S
C827 C828 1.355 . S
C827 C829 1.415 . S
C828 C827 1.355 . S
C828 C830 1.419 . S
C829 C824 1.425 . S
C829 C826 1.409 . S
C829 C827 1.415 . S
C830 H820 0.930 . S
C830 C828 1.419 . S
C830 C831 1.362 1_556 S
C831 H821 0.930 . S
C831 C824 1.409 1_554 S
C831 C830 1.362 1_554 S
H832 C838 0.930 . S
H833 C841 0.930 1_554 S
H834 C842 0.930 1_554 S
H835 C843 0.933 . S
H836 C846 0.930 . S
H837 C847 0.930 . S
C838 H832 0.930 . S
C838 C839 1.355 . S
C838 C840 1.415 . S
C839 C838 1.355 . S
C839 C841 1.419 1_545 S
C840 C838 1.415 . S
C840 C845 1.424 . S
C840 C847 1.409 . S
C841 H833 0.930 1_556 S
C841 C839 1.419 1_565 S
C841 C842 1.362 . S
C842 H834 0.930 1_556 S
C842 C841 1.362 . S
C842 C845 1.410 1_565 S
C843 H835 0.933 . S
C843 C844 1.352 1_565 S
C843 C845 1.414 1_565 S
C844 C843 1.352 1_545 S
C844 C846 1.419 . S
C845 C840 1.424 . S
C845 C842 1.410 1_545 S
C845 C843 1.414 1_545 S
C846 H836 0.930 . S
C846 C844 1.419 . S
C846 C847 1.362 . S
C847 H837 0.930 . S
C847 C840 1.409 . S
C847 C846 1.362 . S
H848 C854 0.930 . S
H849 C857 0.930 . S
H850 C858 0.930 . S
H851 C859 0.930 . S
H852 C862 0.930 . S
H853 C863 0.930 . S
C854 H848 0.930 . S
C854 C855 1.355 . S
C854 C856 1.415 . S
C855 C854 1.355 . S
C855 C857 1.419 . S
C856 C854 1.415 . S
C856 C861 1.425 . S
C856 C863 1.409 . S
C857 H849 0.930 . S
C857 C855 1.419 . S
C857 C858 1.362 . S
C858 H850 0.930 . S
C858 C857 1.362 . S
C858 C861 1.409 . S
C859 H851 0.930 . S
C859 C860 1.355 . S
C859 C861 1.415 . S
C860 C859 1.355 . S
C860 C862 1.419 . S
C861 C856 1.425 . S
C861 C858 1.409 . S
C861 C859 1.415 . S
C862 H852 0.930 . S
C862 C860 1.419 . S
C862 C863 1.362 . S
C863 H853 0.930 . S
C863 C856 1.409 . S
C863 C862 1.362 . S
H864 C870 0.930 . S
H865 C873 0.930 . S
H866 C874 0.930 . S
H867 C875 0.930 . S
H868 C878 0.930 . S
H869 C879 0.930 1_554 S
C870 H864 0.930 . S
C870 C871 1.355 1_554 S
C870 C872 1.415 1_554 S
C871 C870 1.355 1_556 S
C871 C873 1.419 . S
C872 C870 1.415 1_556 S
C872 C877 1.425 . S
C872 C879 1.409 . S
C873 H865 0.930 . S
C873 C871 1.419 . S
C873 C874 1.362 . S
C874 H866 0.930 . S
C874 C873 1.362 . S
C874 C877 1.409 . S
C875 H867 0.930 . S
C875 C876 1.355 . S
C875 C877 1.415 . S
C876 C875 1.355 . S
C876 C878 1.419 . S
C877 C872 1.425 . S
C877 C874 1.409 . S
C877 C875 1.415 . S
C878 H868 0.930 . S
C878 C876 1.419 . S
C878 C879 1.362 . S
C879 H869 0.930 1_556 S
C879 C872 1.409 . S
C879 C878 1.362 . S
H880 C886 0.930 . S
H881 C889 0.930 . S
H882 C890 0.930 . S
H883 C891 0.930 . S
H884 C894 0.930 . S
H885 C895 0.930 . S
C886 H880 0.930 . S
C886 C887 1.355 . S
C886 C888 1.415 . S
C887 C886 1.355 . S
C887 C889 1.419 . S
C888 C886 1.415 . S
C888 C893 1.425 . S
C888 C895 1.409 . S
C889 H881 0.930 . S
C889 C887 1.419 . S
C889 C890 1.362 . S
C890 H882 0.930 . S
C890 C889 1.362 . S
C890 C893 1.409 . S
C891 H883 0.930 . S
C891 C892 1.355 . S
C891 C893 1.415 . S
C892 C891 1.355 . S
C892 C894 1.419 . S
C893 C888 1.425 . S
C893 C890 1.409 . S
C893 C891 1.415 . S
C894 H884 0.930 . S
C894 C892 1.419 . S
C894 C895 1.362 . S
C895 H885 0.930 . S
C895 C888 1.409 . S
C895 C894 1.362 . S
H896 C902 0.930 . S
H897 C905 0.930 . S
H898 C906 0.930 . S
H899 C907 0.930 . S
H900 C910 0.930 . S
H901 C911 0.930 . S
C902 H896 0.930 . S
C902 C903 1.355 1_565 S
C902 C904 1.415 . S
C903 C902 1.355 1_545 S
C903 C905 1.419 . S
C904 C902 1.415 . S
C904 C909 1.425 1_565 S
C904 C911 1.409 . S
C905 H897 0.930 . S
C905 C903 1.419 . S
C905 C906 1.362 . S
C906 H898 0.930 . S
C906 C905 1.362 . S
C906 C909 1.409 . S
C907 H899 0.930 . S
C907 C908 1.355 1_545 S
C907 C909 1.415 . S
C908 C907 1.355 1_565 S
C908 C910 1.419 . S
C909 C904 1.425 1_545 S
C909 C906 1.409 . S
C909 C907 1.415 . S
C910 H900 0.930 . S
C910 C908 1.419 . S
C910 C911 1.362 . S
C911 H901 0.930 . S
C911 C904 1.409 . S
C911 C910 1.362 . S
H912 C918 0.930 . S
H913 C921 0.930 . S
H914 C922 0.930 . S
H915 C923 0.930 . S
H916 C926 0.930 . S
H917 C927 0.930 . S
C918 H912 0.930 . S
C918 C919 1.355 . S
C918 C920 1.415 . S
C919 C918 1.355 . S
C919 C921 1.419 . S
C920 C918 1.415 . S
C920 C925 1.425 . S
C920 C927 1.409 . S
C921 H913 0.930 . S
C921 C919 1.419 . S
C921 C922 1.362 . S
C922 H914 0.930 . S
C922 C921 1.362 . S
C922 C925 1.409 . S
C923 H915 0.930 . S
C923 C924 1.355 . S
C923 C925 1.415 . S
C924 C923 1.355 . S
C924 C926 1.419 . S
C925 C920 1.425 . S
C925 C922 1.409 . S
C925 C923 1.415 . S
C926 H916 0.930 . S
C926 C924 1.419 . S
C926 C927 1.362 . S
C927 H917 0.930 . S
C927 C920 1.409 . S
C927 C926 1.362 . S
H928 C934 0.930 . S
H929 C937 0.930 . S
H930 C938 0.930 . S
H931 C939 0.930 . S
H932 C942 0.930 . S
H933 C943 0.930 . S
C934 H928 0.930 . S
C934 C935 1.355 . S
C934 C936 1.415 . S
C935 C934 1.355 . S
C935 C937 1.419 . S
C936 C934 1.415 . S
C936 C941 1.425 . S
C936 C943 1.409 . S
C937 H929 0.930 . S
C937 C935 1.419 . S
C937 C938 1.362 . S
C938 H930 0.930 . S
C938 C937 1.362 . S
C938 C941 1.409 . S
C939 H931 0.930 . S
C939 C940 1.355 . S
C939 C941 1.415 . S
C940 C939 1.355 . S
C940 C942 1.419 . S
C941 C936 1.425 . S
C941 C938 1.409 . S
C941 C939 1.415 . S
C942 H932 0.930 . S
C942 C940 1.419 . S
C942 C943 1.362 . S
C943 H933 0.930 . S
C943 C936 1.409 . S
C943 C942 1.362 . S
C567 C391 1.598 . S
C572 C481 1.576 . S
C588 C516 2.271 . S
C583 C451 2.169 . S
C604 C521 1.491 . S
C599 C241 1.393 . S
C620 C541 2.001 . S
C615 C331 1.713 . S
C636 C489 1.603 . S
C631 C121 1.517 1_546 S
C647 C211 2.037 1_556 S
C652 C506 2.273 . S
C663 C31 1.517 1_556 S
C668 C529 1.482 . S
C679 C91 1.830 . S
C684 C549 1.993 . S
C700 C499 1.690 . S
C695 C301 1.415 . S
C716 C508 0.825 1_545 S
C711 C380 0.833 . S
C732 C539 1.796 . S
C727 C440 1.721 . S
C743 C260 0.914 . S
C748 C559 1.064 . S
C759 C61 1.502 . S
C764 C488 1.704 . S
C780 C519 0.764 . S
C775 C140 0.687 . S
C796 C528 1.806 . S
C791 C200 1.608 . S
C807 C20 1.014 . S
C812 C548 0.991 . S
C823 C320 2.110 1_556 S
C828 C486 2.240 . S
C839 C361 1.609 . S
C844 C509 1.987 . S
C860 C526 2.413 . S
C855 C421 2.115 1_556 S
C876 C546 2.134 . S
C871 C271 2.101 1_556 S
C887 C80 2.170 . S
C892 C496 2.242 . S
C908 C501 1.982 1_565 S
C903 C151 1.873 1_545 S
C924 C536 2.420 . S
C919 C181 1.919 . S
C935 C1 1.890 . S
C940 C556 2.134 . S
