# Generated by pormake.
# Topology rtl, (3,6)-cn, num edge types: 1
# Building blocks:
#     Node 0, Type 0, BuildingBlock: PAMTOO_clean_linker_0, # of connection points: 3
#     Node 1, Type 0, BuildingBlock: PAMTOO_clean_linker_0, # of connection points: 3
#     Node 2, Type 0, BuildingBlock: PAMTOO_clean_linker_0, # of connection points: 3
#     Node 3, Type 0, BuildingBlock: PAMTOO_clean_linker_0, # of connection points: 3
#     Node 4, Type 1, BuildingBlock: KUMBOL_clean_sbu_1, # of connection points: 6
#     Node 5, Type 1, BuildingBlock: KUMBOL_clean_sbu_1, # of connection points: 6
#     Edge 6, Type (0, 1), BuildingBlock: MIFKUJ_clean_linker_0, # of connection points: 2
#     Edge 7, Type (0, 1), BuildingBlock: MIFKUJ_clean_linker_0, # of connection points: 2
#     Edge 8, Type (0, 1), BuildingBlock: MIFKUJ_clean_linker_0, # of connection points: 2
#     Edge 9, Type (0, 1), BuildingBlock: MIFKUJ_clean_linker_0, # of connection points: 2
#     Edge 10, Type (0, 1), BuildingBlock: MIFKUJ_clean_linker_0, # of connection points: 2
#     Edge 11, Type (0, 1), BuildingBlock: MIFKUJ_clean_linker_0, # of connection points: 2
#     Edge 12, Type (0, 1), BuildingBlock: MIFKUJ_clean_linker_0, # of connection points: 2
#     Edge 13, Type (0, 1), BuildingBlock: MIFKUJ_clean_linker_0, # of connection points: 2
#     Edge 14, Type (0, 1), BuildingBlock: MIFKUJ_clean_linker_0, # of connection points: 2
#     Edge 15, Type (0, 1), BuildingBlock: MIFKUJ_clean_linker_0, # of connection points: 2
#     Edge 16, Type (0, 1), BuildingBlock: MIFKUJ_clean_linker_0, # of connection points: 2
#     Edge 17, Type (0, 1), BuildingBlock: MIFKUJ_clean_linker_0, # of connection points: 2
# Relax obj value: 0.051
# Max RMSD: 0.206
# Mean RMSD: 0.157
data_MOF--net-rtl--node1-KUMBOL_clean_sbu_1--node2-PAMTOO_clean_linker_0--edge1-MIFKUJ_clean_linker_0
_symmetry_space_group_name_H-M    P1
_symmetry_Int_Tables_number       1
_symmetry_cell_setting            triclinic
loop_
_symmetry_equiv_pos_as_xyz
'x, y, z'
_cell_length_a     45.424696
_cell_length_b     45.465593
_cell_length_c     34.243118
_cell_angle_alpha  81.880195
_cell_angle_beta   99.243006
_cell_angle_gamma 90.946711
loop_
_atom_site_label
_atom_site_type_symbol
_atom_site_fract_x
_atom_site_fract_y
_atom_site_fract_z
_atom_type_partial_charge
H0 H 0.1584 0.86394 0.00628 0.0
H1 H 0.22249 0.80559 0.08556 0.0
H2 H 0.22245 0.81582 0.95914 0.0
H3 H 0.2247 0.75479 1.00256 0.0
C4 C 0.24143 0.7584 0.029 0.0
O5 O 0.24729 0.78833 0.0285 0.0
H6 H 0.23171 0.74985 0.05622 0.0
C7 C 0.17682 0.84832 0.01089 0.0
C8 C 0.18895 0.84166 0.97783 0.0
C9 C 0.18891 0.83572 0.04998 0.0
C10 C 0.21319 0.81594 0.05575 0.0
C11 C 0.22497 0.80859 0.02294 0.0
C12 C 0.21316 0.82174 0.98423 0.0
H13 H 0.66847 0.66001 0.62316 0.0
H14 H 0.72579 0.72172 0.56444 0.0
H15 H 0.72517 0.71835 0.69027 0.0
H16 H 0.73217 0.77962 0.64867 0.0
C17 C 0.7413 0.77386 0.62243 0.0
O18 O 0.74872 0.74403 0.62883 0.0
H19 H 0.72361 0.77874 0.59579 0.0
C20 C 0.68499 0.67748 0.62435 0.0
C21 C 0.69545 0.68749 0.66107 0.0
C22 C 0.69557 0.68965 0.58919 0.0
C23 C 0.71729 0.71201 0.59114 0.0
C24 C 0.72774 0.7225 0.62744 0.0
C25 C 0.71675 0.71033 0.6623 0.0
H26 H 0.85357 0.14026 0.05919 0.0
H27 H 0.7923 0.20369 0.98417 0.0
H28 H 0.80173 0.19786 0.1117 0.0
H29 H 0.74024 0.20159 0.06881 0.0
C30 C 0.74351 0.21819 0.04269 0.0
O31 O 0.77347 0.22426 0.04365 0.0
H32 H 0.73474 0.20843 0.01512 0.0
C33 C 0.83746 0.15811 0.05593 0.0
C34 C 0.82976 0.16763 0.09023 0.0
C35 C 0.82452 0.17109 0.01747 0.0
C36 C 0.8025 0.19319 0.0135 0.0
C37 C 0.7941 0.20247 0.04755 0.0
C38 C 0.80785 0.18987 0.08573 0.0
H39 H 0.3752 0.36666 0.44316 0.0
H40 H 0.31489 0.3037 0.49393 0.0
H41 H 0.3256 0.30624 0.37151 0.0
H42 H 0.26461 0.28584 0.38301 0.0
C43 C 0.26889 0.28361 0.41617 0.0
O44 O 0.29914 0.27944 0.4294 0.0
H45 H 0.26129 0.30446 0.42524 0.0
C46 C 0.35886 0.34917 0.44 0.0
C47 C 0.35168 0.33857 0.40295 0.0
C48 C 0.34593 0.33682 0.47328 0.0
C49 C 0.32556 0.31338 0.46906 0.0
C50 C 0.31843 0.30235 0.43257 0.0
C51 C 0.33157 0.31479 0.39968 0.0
C52 C 0.98527 0.10632 0.51202 0.0
C53 C 0.93123 0.10487 0.49564 0.0
C54 C 0.95869 0.09089 0.51262 0.0
C55 C 0.93093 0.13442 0.47712 0.0
C56 C 0.98491 0.13632 0.49441 0.0
C57 C 0.95769 0.15013 0.47669 0.0
N58 N 0.01091 0.09308 0.53248 0.0
C59 C 0.03629 0.10945 0.53883 0.0
C60 C 0.01163 0.15218 0.49749 0.0
C61 C 0.03738 0.13877 0.52025 0.0
Gd62 Gd 0.03843 0.98598 0.50067 0.0
Gd63 Gd 1.00634 0.04403 0.56405 0.0
N64 N 0.95957 0.06278 0.53242 0.0
C65 C 0.90482 0.08917 0.4995 0.0
C66 C 0.9339 0.04784 0.53799 0.0
C67 C 0.90617 0.0606 0.52105 0.0
H68 H 0.93494 0.02604 0.55547 0.0
H69 H 0.88587 0.04856 0.52501 0.0
H70 H 0.1024 0.0196 0.47871 0.0
H71 H 0.05555 0.10042 0.55936 0.0
H72 H 0.15605 0.01595 0.50518 0.0
H73 H 0.88329 0.09918 0.48686 0.0
H74 H 0.91002 0.14565 0.46447 0.0
H75 H 0.00862 0.9219 0.53469 0.0
H76 H 0.01228 0.17522 0.48419 0.0
H77 H 0.05781 0.15132 0.5247 0.0
H78 H 0.16554 0.92667 0.59955 0.0
H79 H 0.95706 0.17339 0.46423 0.0
H80 H 0.07749 0.86855 0.61142 0.0
H81 H 0.02459 0.87553 0.57997 0.0
N82 N 0.05199 0.94057 0.54083 0.0
C83 C 0.08137 0.93654 0.55603 0.0
C84 C 0.03178 0.9187 0.54796 0.0
C85 C 0.07064 0.88873 0.59133 0.0
C86 C 0.04075 0.89258 0.57364 0.0
C87 C 0.09144 0.91072 0.58233 0.0
H88 H 0.12998 0.88809 0.61914 0.0
N89 N 0.09077 0.98267 0.51892 0.0
C90 C 0.10127 0.95847 0.54525 0.0
C91 C 0.15174 0.97634 0.54641 0.0
C92 C 0.13199 0.95485 0.56013 0.0
C93 C 0.11024 1.00221 0.50284 0.0
C94 C 0.14085 0.99983 0.51709 0.0
O95 O 0.98283 0.03737 0.50205 0.0
O96 O 0.02113 0.03053 0.46853 0.0
O97 O 0.05832 0.97038 0.45351 0.0
O98 O 0.01097 0.96582 0.45377 0.0
O99 O 0.98706 0.99753 0.57075 0.0
O100 O 0.99054 0.97872 0.51159 0.0
O101 O 0.03812 0.97513 0.5671 0.0
O102 O 0.04862 0.01869 0.5921 0.0
O103 O 0.98479 0.03484 0.6172 0.0
O104 O 0.01199 0.07367 0.60897 0.0
O105 O 0.05508 0.03348 0.49381 0.0
O106 O 0.05504 0.04805 0.55565 0.0
C107 C 0.99454 0.04105 0.46908 0.0
C108 C 0.97827 0.97943 0.54405 0.0
C109 C 0.03475 0.93 0.42482 0.0
C110 C 0.05048 0.89825 0.37985 0.0
C111 C 0.02036 0.87809 0.42989 0.0
C112 C 0.01987 0.90578 0.44297 0.0
C113 C 0.03539 0.87433 0.3984 0.0
C114 C 0.05027 0.92602 0.39352 0.0
C115 C 0.03344 0.95982 0.43682 0.0
C116 C 0.14207 0.92964 0.58744 0.0
C117 C 0.12183 0.90762 0.59851 0.0
H118 H 0.17549 0.97445 0.55719 0.0
C119 C 0.05232 0.98997 0.59427 0.0
C120 C 0.06577 0.04959 0.5219 0.0
C121 C 0.96862 0.07907 0.63686 0.0
C122 C 0.93287 0.09128 0.67848 0.0
C123 C 0.93478 0.12115 0.61432 0.0
C124 C 0.95827 0.10379 0.60879 0.0
C125 C 0.92203 0.11491 0.64882 0.0
C126 C 0.95608 0.07309 0.67215 0.0
C127 C 0.9927 0.06012 0.62927 0.0
H128 H 0.00882 0.85953 0.44398 0.0
H129 H 0.00758 0.90827 0.46689 0.0
H130 H 0.03537 0.85267 0.38866 0.0
H131 H 0.06148 0.94474 0.37908 0.0
H132 H 0.92692 0.13995 0.5922 0.0
H133 H 0.96868 0.11015 0.58283 0.0
H134 H 0.90451 0.12945 0.65311 0.0
H135 H 0.9645 0.05469 0.69468 0.0
C136 C 0.6019 0.57028 0.0295 0.0
C137 C 0.58976 0.62303 0.01711 0.0
C138 C 0.58301 0.59356 0.03182 0.0
C139 C 0.61578 0.62886 1.00015 0.0
C140 C 0.62833 0.57623 0.0131 0.0
C141 C 0.63498 0.60554 0.9981 0.0
N142 N 0.59455 0.54197 0.04343 0.0
C143 C 0.61459 0.5194 0.04638 0.0
C144 C 0.64756 0.55259 0.01279 0.0
C145 C 0.64093 0.52416 0.03021 0.0
Gd146 Gd 0.49256 0.49492 0.9916 0.0
Gd147 Gd 0.54917 0.53707 0.06895 0.0
N148 N 0.55731 0.58718 0.04684 0.0
C149 C 0.56977 0.6457 0.01905 0.0
C150 C 0.53792 0.60917 0.04931 0.0
C151 C 0.54379 0.63873 0.0353 0.0
H152 H 0.51801 0.60392 0.06231 0.0
H153 H 0.52826 0.6561 0.03695 0.0
H154 H 0.52428 0.43042 0.9857 0.0
H155 H 0.61115 0.49787 0.06238 0.0
H156 H 0.51617 0.37679 1.00463 0.0
H157 H 0.57412 0.66861 0.00796 0.0
H158 H 0.62121 0.65133 0.98839 0.0
H159 H 0.43157 0.52982 0.01018 0.0
H160 H 0.66806 0.55624 1.00047 0.0
H161 H 0.65639 0.50598 0.03194 0.0
H162 H 0.42652 0.37301 0.06272 0.0
H163 H 0.65504 0.61042 0.98508 0.0
H164 H 0.37832 0.46488 0.0681 0.0
H165 H 0.38817 0.51727 0.0433 0.0
N166 N 0.44899 0.48579 0.02074 0.0
C167 C 0.44269 0.45659 0.03134 0.0
C168 C 0.42899 0.50726 0.02321 0.0
C169 C 0.39804 0.47041 0.05454 0.0
C170 C 0.40366 0.50003 0.04091 0.0
C171 C 0.4173 0.44819 0.04912 0.0
H172 H 0.39248 0.41117 0.07445 0.0
N173 N 0.48628 0.44367 0.00779 0.0
C174 C 0.46172 0.43495 0.02434 0.0
C175 C 0.47607 0.3835 0.02849 0.0
C176 C 0.45612 0.40458 0.03552 0.0
C177 C 0.50554 0.42327 1.0003 0.0
C178 C 0.5008 0.39291 0.0106 0.0
O179 O 0.53888 0.55709 1.00354 0.0
O180 O 0.53277 0.51705 0.96934 0.0
O181 O 0.48632 0.47289 0.93845 0.0
O182 O 0.45997 0.51164 0.93981 0.0
O183 O 0.50059 0.5489 0.06273 0.0
O184 O 0.48189 0.54287 0.99729 0.0
O185 O 0.50182 0.47456 0.0569 0.0
O186 O 0.50924 0.51444 0.09162 0.0
O187 O 0.55609 0.56313 0.11823 0.0
O188 O 0.58032 0.52208 0.12287 0.0
O189 O 0.54133 0.48309 0.9988 0.0
O190 O 0.55902 0.48884 0.06448 0.0
C191 C 0.54225 0.54414 0.97266 0.0
C192 C 0.48223 0.55648 0.02904 0.0
C193 C 0.4372 0.4741 0.90382 0.0
C194 C 0.41128 0.44657 0.8523 0.0
C195 C 0.3888 0.45228 0.91062 0.0
C196 C 0.41326 0.46876 0.92516 0.0
C197 C 0.38783 0.44109 0.87456 0.0
C198 C 0.43596 0.46324 0.86708 0.0
C199 C 0.46403 0.48974 0.92038 0.0
C200 C 0.4311 0.39623 0.05374 0.0
C201 C 0.41176 0.41797 0.06052 0.0
H202 H 0.47255 0.35996 0.03666 0.0
C203 C 0.4998 0.48728 0.08848 0.0
C204 C 0.55899 0.47508 0.03298 0.0
C205 C 0.56751 0.53548 0.18215 0.0
C206 C 0.57343 0.54482 0.25155 0.0
C207 C 0.54188 0.50451 0.22959 0.0
C208 C 0.5485 0.51169 0.19098 0.0
C209 C 0.5542 0.52093 0.25971 0.0
C210 C 0.57997 0.55193 0.21247 0.0
C211 C 0.57403 0.54376 0.14132 0.0
H212 H 0.37052 0.44817 0.92738 0.0
H213 H 0.41341 0.47723 0.95307 0.0
H214 H 0.36852 0.42849 0.8637 0.0
H215 H 0.45437 0.46723 0.85044 0.0
H216 H 0.52721 0.48613 0.23621 0.0
H217 H 0.53881 0.49867 0.16808 0.0
H218 H 0.54898 0.51467 0.28952 0.0
H219 H 0.59439 0.57052 0.20544 0.0
H220 H 0.21232 0.28466 0.43322 0.0
H221 H 0.1814 0.24299 0.45518 0.0
H222 H 0.25365 0.18222 0.45655 0.0
H223 H 0.28429 0.22389 0.43321 0.0
H224 H 0.20477 0.1598 0.42446 0.0
H225 H 0.23326 0.20118 0.54481 0.0
H226 H 0.24061 0.24026 0.58852 0.0
H227 H 0.14626 0.25708 0.56809 0.0
H228 H 0.13837 0.21837 0.5238 0.0
H229 H 0.11104 0.06836 0.57537 0.0
H230 H 0.14949 0.10516 0.56148 0.0
H231 H 0.11056 0.11817 0.43667 0.0
H232 H 0.07306 0.08065 0.45028 0.0
H233 H 0.1483 0.16088 0.5368 0.0
H234 H 0.16002 0.1388 0.37715 0.0
H235 H 0.15694 0.09685 0.33821 0.0
H236 H 0.17949 0.03588 0.44634 0.0
H237 H 0.18278 0.07745 0.48601 0.0
C238 C 0.22173 0.26244 0.43877 0.0
C239 C 0.25105 0.25768 0.43267 0.0
C240 C 0.20407 0.2386 0.45143 0.0
C241 C 0.21532 0.20939 0.45845 0.0
C242 C 0.24449 0.20452 0.45175 0.0
C243 C 0.2621 0.22839 0.43872 0.0
C244 C 0.19622 0.18395 0.4713 0.0
C245 C 0.19255 0.16002 0.44915 0.0
C246 C 0.18065 0.18373 0.50405 0.0
C247 C 0.18526 0.20702 0.53072 0.0
C248 C 0.2141 0.21336 0.5494 0.0
C249 C 0.21836 0.23542 0.57432 0.0
C250 C 0.19392 0.25119 0.58101 0.0
C251 C 0.16517 0.24487 0.56286 0.0
C252 C 0.16078 0.22284 0.53788 0.0
C253 C 0.11093 0.07898 0.54497 0.0
C254 C 0.08926 0.07154 0.51386 0.0
C255 C 0.13283 0.10005 0.53703 0.0
C256 C 0.13335 0.11423 0.49787 0.0
C257 C 0.11131 0.10704 0.46693 0.0
C258 C 0.08977 0.08566 0.47475 0.0
C259 C 0.15637 0.13705 0.48941 0.0
C260 C 0.16071 0.16054 0.51232 0.0
C261 C 0.17319 0.13644 0.45805 0.0
C262 C 0.17146 0.11125 0.43453 0.0
C263 C 0.16441 0.11645 0.39262 0.0
C264 C 0.16255 0.09273 0.37045 0.0
C265 C 0.16788 0.06371 0.38984 0.0
C266 C 0.17515 0.05835 0.43144 0.0
C267 C 0.17697 0.08198 0.45379 0.0
H268 H 0.16644 0.04538 0.37261 0.0
H269 H 0.19727 0.26826 0.60032 0.0
H270 H 0.26798 0.75218 0.96429 0.0
H271 H 0.31172 0.72176 0.96219 0.0
H272 H 0.32181 0.69657 0.08996 0.0
H273 H 0.27838 0.72732 0.09207 0.0
H274 H 0.37531 0.70705 0.06613 0.0
H275 H 0.28745 0.65063 0.02577 0.0
H276 H 0.23917 0.64202 0.98463 0.0
H277 H 0.28056 0.65278 0.87927 0.0
H278 H 0.32903 0.66185 0.91976 0.0
H279 H 0.46244 0.5763 0.0919 0.0
H280 H 0.42433 0.61389 0.08974 0.0
H281 H 0.41385 0.62859 0.96095 0.0
H282 H 0.45135 0.59009 0.96294 0.0
H283 H 0.36178 0.62594 0.98208 0.0
H284 H 0.45008 0.68085 0.02198 0.0
H285 H 0.49828 0.69058 0.0626 0.0
H286 H 0.45683 0.68278 0.16772 0.0
H287 H 0.40832 0.67319 0.12772 0.0
C288 C 0.27973 0.74025 0.99187 0.0
C289 C 0.26958 0.74155 0.02822 0.0
C290 C 0.3046 0.72284 0.99067 0.0
C291 C 0.31972 0.7064 0.02583 0.0
C292 C 0.31041 0.70888 0.06243 0.0
C293 C 0.28557 0.72634 0.06362 0.0
C294 C 0.34452 0.68579 0.02442 0.0
C295 C 0.3723 0.68916 0.048 0.0
C296 C 0.34086 0.66287 1.00004 0.0
C297 C 0.31178 0.65723 0.97573 0.0
C298 C 0.2862 0.65137 0.99379 0.0
C299 C 0.25881 0.64637 0.9706 0.0
C300 C 0.25678 0.64693 0.92935 0.0
C301 C 0.28216 0.6524 0.91122 0.0
C302 C 0.30959 0.65745 0.93427 0.0
C303 C 0.45223 0.58771 0.0631 0.0
C304 C 0.46 0.58029 0.02757 0.0
C305 C 0.43051 0.60937 0.06191 0.0
C306 C 0.4165 0.62459 0.0252 0.0
C307 C 0.42436 0.61728 0.98966 0.0
C308 C 0.44582 0.59529 0.99082 0.0
C309 C 0.39271 0.64707 0.02391 0.0
C310 C 0.365 0.644 0.9999 0.0
C311 C 0.3965 0.67033 0.04779 0.0
C312 C 0.42563 0.67608 0.07191 0.0
C313 C 0.45129 0.68104 0.0538 0.0
C314 C 0.47865 0.68655 0.0767 0.0
C315 C 0.48066 0.68708 0.11773 0.0
C316 C 0.45526 0.68231 0.13594 0.0
C317 C 0.4278 0.67696 0.11315 0.0
H318 H 0.50189 0.6913 0.1354 0.0
H319 H 0.23555 0.64306 0.91144 0.0
H320 H 0.76626 0.78518 0.5542 0.0
H321 H 0.80792 0.81832 0.54144 0.0
H322 H 0.8189 0.83734 0.66286 0.0
H323 H 0.77704 0.80448 0.67541 0.0
H324 H 0.81892 0.88758 0.61155 0.0
H325 H 0.86866 0.79292 0.63173 0.0
H326 H 0.87639 0.74152 0.62006 0.0
H327 H 0.88349 0.77257 0.49757 0.0
H328 H 0.8754 0.82414 0.50837 0.0
H329 H 0.95502 0.96536 0.61332 0.0
H330 H 0.91667 0.9289 0.627 0.0
H331 H 0.90894 0.90757 0.50697 0.0
H332 H 0.94803 0.94343 0.49338 0.0
H333 H 0.90728 0.85834 0.55725 0.0
H334 H 0.85704 0.95252 0.536 0.0
H335 H 0.84994 1.00421 0.54695 0.0
H336 H 0.84327 0.97438 0.6699 0.0
H337 H 0.85077 0.92252 0.65982 0.0
C338 C 0.77777 0.79632 0.57815 0.0
C339 C 0.76829 0.79258 0.61561 0.0
C340 C 0.80162 0.81515 0.57093 0.0
C341 C 0.81668 0.83034 0.60122 0.0
C342 C 0.8076 0.82601 0.63897 0.0
C343 C 0.78376 0.80719 0.64616 0.0
C344 C 0.84111 0.85157 0.5932 0.0
C345 C 0.83844 0.88104 0.60021 0.0
C346 C 0.86623 0.84337 0.57731 0.0
C347 C 0.87112 0.81237 0.57077 0.0
C348 C 0.87162 0.78877 0.60222 0.0
C349 C 0.87612 0.7596 0.59578 0.0
C350 C 0.88035 0.75377 0.55807 0.0
C351 C 0.88017 0.77711 0.52675 0.0
C352 C 0.87566 0.80632 0.53302 0.0
C353 C 0.94513 0.95303 0.58971 0.0
C354 C 0.9545 0.95758 0.5521 0.0
C355 C 0.92309 0.93218 0.59757 0.0
C356 C 0.90945 0.91575 0.56783 0.0
C357 C 0.91902 0.91998 0.53041 0.0
C358 C 0.94131 0.94063 0.52263 0.0
C359 C 0.88513 0.89432 0.57572 0.0
C360 C 0.88777 0.86486 0.5686 0.0
C361 C 0.85987 0.90255 0.5913 0.0
C362 C 0.85471 0.93366 0.59723 0.0
C363 C 0.85421 0.957 0.56543 0.0
C364 C 0.85012 0.98633 0.57147 0.0
C365 C 0.84624 0.99259 0.60912 0.0
C366 C 0.84631 0.96951 0.64076 0.0
C367 C 0.85045 0.94013 0.63489 0.0
H368 H 0.84311 0.01532 0.61376 0.0
H369 H 0.88383 0.73118 0.55314 0.0
H370 H 0.71556 0.25683 0.97938 0.0
H371 H 0.68686 0.3017 0.981 0.0
H372 H 0.7059 0.2882 0.10988 0.0
H373 H 0.73427 0.24298 0.10818 0.0
H374 H 0.64847 0.30164 0.08535 0.0
H375 H 0.74053 0.34289 0.05513 0.0
H376 H 0.78361 0.35096 0.01942 0.0
H377 H 0.72517 0.38338 0.91093 0.0
H378 H 0.68166 0.3751 0.94586 0.0
H379 H 0.58965 0.44327 0.10082 0.0
H380 H 0.6236 0.40127 0.10558 0.0
H381 H 0.609 0.40725 0.97705 0.0
H382 H 0.57595 0.44991 0.97201 0.0
H383 H 0.66646 0.39844 0.00616 0.0
H384 H 0.5738 0.35386 0.03831 0.0
H385 H 0.53208 0.34747 0.07686 0.0
H386 H 0.59373 0.32323 0.18513 0.0
H387 H 0.63586 0.32956 0.14731 0.0
C388 C 0.71358 0.26352 0.00799 0.0
C389 C 0.72667 0.2463 0.04368 0.0
C390 C 0.69735 0.28921 0.00893 0.0
C391 C 0.6943 0.29846 0.04558 0.0
C392 C 0.70781 0.28147 0.08127 0.0
C393 C 0.72403 0.25573 0.08031 0.0
C394 C 0.67646 0.32547 0.04654 0.0
C395 C 0.65269 0.32291 0.06848 0.0
C396 C 0.6817 0.3532 0.02425 0.0
C397 C 0.7078 0.3581 1.00305 0.0
C398 C 0.73683 0.35149 0.02357 0.0
C399 C 0.76133 0.35615 1.00348 0.0
C400 C 0.75712 0.3676 0.9629 0.0
C401 C 0.72839 0.37447 0.94235 0.0
C402 C 0.7038 0.36982 0.96229 0.0
C403 C 0.59376 0.43572 0.07355 0.0
C404 C 0.57983 0.44976 0.03603 0.0
C405 C 0.61304 0.41157 0.07633 0.0
C406 C 0.6185 0.40074 0.0417 0.0
C407 C 0.60505 0.41509 1.00422 0.0
C408 C 0.58598 0.43937 1.00139 0.0
C409 C 0.63816 0.37445 0.04427 0.0
C410 C 0.66231 0.37717 0.02307 0.0
C411 C 0.6334 0.34696 0.0675 0.0
C412 C 0.60799 0.34241 0.09003 0.0
C413 C 0.57846 0.34726 0.07035 0.0
C414 C 0.55475 0.34365 0.09206 0.0
C415 C 0.56027 0.33509 0.1334 0.0
C416 C 0.5895 0.3299 0.15311 0.0
C417 C 0.6133 0.33341 0.13155 0.0
H418 H 0.54189 0.33242 0.15015 0.0
H419 H 0.77613 0.37121 0.94741 0.0
H420 H 0.21822 0.85265 0.1194 0.0
H421 H 0.19651 0.86575 0.17568 0.0
H422 H 0.10857 0.84765 0.11522 0.0
H423 H 0.13018 0.8356 0.05841 0.0
H424 H 0.1057 0.89526 0.14665 0.0
H425 H 0.1485 0.7987 0.19616 0.0
H426 H 0.18828 0.76061 0.21268 0.0
H427 H 0.2395 0.81409 0.29248 0.0
H428 H 0.20017 0.85268 0.27603 0.0
H429 H 0.02817 0.87317 0.31358 0.0
H430 H 0.05358 0.86551 0.25786 0.0
H431 H 0.13289 0.90611 0.31357 0.0
H432 H 0.10738 0.91417 0.36932 0.0
H433 H 0.14217 0.84992 0.28618 0.0
H434 H 0.09572 0.94508 0.23812 0.0
H435 H 0.05393 0.98094 0.22199 0.0
H436 H 0.00704 0.92674 0.13957 0.0
H437 H 0.04838 0.8903 0.15566 0.0
C438 C 0.19428 0.85135 0.11829 0.0
C439 C 0.17589 0.84305 0.08459 0.0
C440 C 0.18186 0.85876 0.15052 0.0
C441 C 0.15086 0.85731 0.15012 0.0
C442 C 0.13251 0.84904 0.11635 0.0
C443 C 0.14487 0.84211 0.08389 0.0
C444 C 0.13738 0.86464 0.18456 0.0
C445 C 0.11352 0.88503 0.17706 0.0
C446 C 0.1479 0.8519 0.22453 0.0
C447 C 0.17154 0.82871 0.23453 0.0
C448 C 0.16835 0.80243 0.217 0.0
C449 C 0.1908 0.78073 0.22639 0.0
C450 C 0.21644 0.78496 0.25352 0.0
C451 C 0.21965 0.81086 0.27141 0.0
C452 C 0.19728 0.83265 0.26209 0.0
C453 C 0.05102 0.88046 0.31393 0.0
C454 C 0.06583 0.89423 0.34577 0.0
C455 C 0.06545 0.8762 0.28204 0.0
C456 C 0.09507 0.88532 0.28156 0.0
C457 C 0.11001 0.89894 0.31339 0.0
C458 C 0.0954 0.90366 0.34505 0.0
C459 C 0.11043 0.88011 0.24799 0.0
C460 C 0.13458 0.86018 0.25572 0.0
C461 C 0.09992 0.8929 0.2082 0.0
C462 C 0.07504 0.91481 0.1984 0.0
C463 C 0.07638 0.94066 0.21683 0.0
C464 C 0.0528 0.96113 0.20764 0.0
C465 C 0.02781 0.95609 0.17985 0.0
C466 C 0.0264 0.9306 0.16112 0.0
C467 C 0.04991 0.91004 0.17024 0.0
H468 H 0.00958 0.97197 0.17276 0.0
H469 H 0.23379 0.76814 0.26075 0.0
H470 H 0.67534 0.71542 0.71793 0.0
H471 H 0.65105 0.69257 0.7737 0.0
H472 H 0.66483 0.6058 0.74218 0.0
H473 H 0.68868 0.62852 0.68639 0.0
H474 H 0.60962 0.61094 0.75244 0.0
H475 H 0.70484 0.63142 0.82659 0.0
H476 H 0.74752 0.6622 0.84983 0.0
H477 H 0.68963 0.71615 0.89819 0.0
H478 H 0.64649 0.68595 0.87472 0.0
H479 H 0.57348 0.51983 0.9234 0.0
H480 H 0.6009 0.54584 0.87302 0.0
H481 H 0.57505 0.63009 0.90174 0.0
H482 H 0.54698 0.60413 0.95158 0.0
H483 H 0.63517 0.6281 0.89378 0.0
H484 H 0.54016 0.60662 0.82 0.0
H485 H 0.49814 0.57454 0.79833 0.0
H486 H 0.55683 0.52137 0.75008 0.0
H487 H 0.59932 0.55286 0.77203 0.0
C488 C 0.67361 0.69145 0.72338 0.0
C489 C 0.68374 0.67379 0.6976 0.0
C490 C 0.65972 0.67838 0.75526 0.0
C491 C 0.65608 0.64738 0.76229 0.0
C492 C 0.66711 0.62974 0.73729 0.0
C493 C 0.68076 0.64276 0.70538 0.0
C494 C 0.63946 0.63324 0.79417 0.0
C495 C 0.61554 0.61445 0.78341 0.0
C496 C 0.6465 0.63837 0.83449 0.0
C497 C 0.67238 0.65664 0.84845 0.0
C498 C 0.70116 0.65003 0.84183 0.0
C499 C 0.72544 0.66733 0.85512 0.0
C500 C 0.72127 0.69118 0.87535 0.0
C501 C 0.69281 0.69772 0.88243 0.0
C502 C 0.66844 0.68051 0.86916 0.0
C503 C 0.57344 0.5439 0.91875 0.0
C504 C 0.55821 0.55997 0.94157 0.0
C505 C 0.58922 0.55873 0.89009 0.0
C506 C 0.58994 0.58992 0.88349 0.0
C507 C 0.57491 0.60602 0.90643 0.0
C508 C 0.55895 0.59118 0.93495 0.0
C509 C 0.60579 0.60562 0.85194 0.0
C510 C 0.62937 0.62472 0.86274 0.0
C511 C 0.59856 0.60073 0.81163 0.0
C512 C 0.57298 0.58195 0.79799 0.0
C513 C 0.54416 0.58795 0.80503 0.0
C514 C 0.52024 0.5699 0.79266 0.0
C515 C 0.52482 0.54589 0.77293 0.0
C516 C 0.55332 0.53995 0.76541 0.0
C517 C 0.57732 0.55791 0.77778 0.0
H518 H 0.50628 0.53193 0.76339 0.0
H519 H 0.74011 0.70454 0.88564 0.0
H520 H 0.88903 0.15422 0.11233 0.0
H521 H 0.91463 0.13122 0.17723 0.0
H522 H 0.83205 0.12928 0.22448 0.0
H523 H 0.80593 0.15181 0.15904 0.0
H524 H 0.87912 0.15168 0.27264 0.0
H525 H 0.85991 0.06612 0.20567 0.0
H526 H 0.86006 0.03629 0.15092 0.0
H527 H 0.95574 0.03895 0.16761 0.0
H528 H 0.95617 0.06923 0.22204 0.0
H529 H 0.9344 0.05204 0.45195 0.0
H530 H 0.90591 0.07676 0.38963 0.0
H531 H 0.98624 0.08621 0.33707 0.0
H532 H 0.01521 0.06309 0.40017 0.0
H533 H 0.93827 0.05853 0.29219 0.0
H534 H 0.95892 0.14929 0.34621 0.0
H535 H 0.96136 0.18907 0.38863 0.0
H536 H 0.8674 0.18074 0.39159 0.0
H537 H 0.86437 0.14116 0.34863 0.0
C538 C 0.87614 0.14852 0.1363 0.0
C539 C 0.84532 0.15459 0.13035 0.0
C540 C 0.89085 0.13538 0.1734 0.0
C541 C 0.87513 0.12807 0.20543 0.0
C542 C 0.84451 0.13458 0.19998 0.0
C543 C 0.82968 0.14763 0.1627 0.0
C544 C 0.89114 0.11495 0.24505 0.0
C545 C 0.89145 0.1309 0.27722 0.0
C546 C 0.90823 0.0885 0.2504 0.0
C547 C 0.90804 0.07018 0.21775 0.0
C548 C 0.88098 0.06057 0.19746 0.0
C549 C 0.88096 0.04354 0.16651 0.0
C550 C 0.90789 0.03578 0.15574 0.0
C551 C 0.9349 0.045 0.17596 0.0
C552 C 0.93504 0.06208 0.20689 0.0
C553 C 0.94618 0.06025 0.42765 0.0
C554 C 0.97717 0.0561 0.43139 0.0
C555 C 0.92982 0.07421 0.39192 0.0
C556 C 0.94402 0.08354 0.35888 0.0
C557 C 0.97491 0.07931 0.36235 0.0
C558 C 0.99138 0.06594 0.39835 0.0
C559 C 0.92624 0.09535 0.3198 0.0
C560 C 0.92554 0.07905 0.28778 0.0
C561 C 0.90911 0.1217 0.31432 0.0
C562 C 0.91151 0.14201 0.34478 0.0
C563 C 0.9389 0.15554 0.35658 0.0
C564 C 0.9403 0.17836 0.38018 0.0
C565 C 0.91451 0.18754 0.3926 0.0
C566 C 0.88733 0.17369 0.3818 0.0
C567 C 0.88575 0.1511 0.3578 0.0
H568 H 0.91564 0.20524 0.41086 0.0
H569 H 0.90783 0.02259 0.13177 0.0
H570 H 0.35567 0.39465 0.48663 0.0
H571 H 0.36966 0.41317 0.55062 0.0
H572 H 0.36737 0.32397 0.61256 0.0
H573 H 0.35423 0.30506 0.5487 0.0
H574 H 0.33743 0.36499 0.64525 0.0
H575 H 0.43278 0.35551 0.60316 0.0
H576 H 0.46886 0.36446 0.55618 0.0
H577 H 0.46312 0.45844 0.55784 0.0
H578 H 0.42665 0.45007 0.60441 0.0
H579 H 0.40051 0.38968 0.83812 0.0
H580 H 0.39257 0.37113 0.77364 0.0
H581 H 0.40866 0.45886 0.71462 0.0
H582 H 0.4178 0.47719 0.77956 0.0
H583 H 0.43147 0.4196 0.67915 0.0
H584 H 0.33661 0.43113 0.71872 0.0
H585 H 0.29888 0.4245 0.76353 0.0
H586 H 0.30105 0.33011 0.76365 0.0
H587 H 0.33914 0.33613 0.71929 0.0
C588 C 0.35852 0.37886 0.51378 0.0
C589 C 0.3539 0.34828 0.51235 0.0
C590 C 0.36641 0.38954 0.55037 0.0
C591 C 0.36979 0.36993 0.58633 0.0
C592 C 0.36485 0.3395 0.58514 0.0
C593 C 0.35716 0.32875 0.54856 0.0
C594 C 0.37803 0.38116 0.62528 0.0
C595 C 0.35818 0.37656 0.65293 0.0
C596 C 0.40463 0.39715 0.63468 0.0
C597 C 0.42677 0.40218 0.60698 0.0
C598 C 0.43904 0.3781 0.59327 0.0
C599 C 0.45959 0.38307 0.56676 0.0
C600 C 0.46822 0.412 0.55395 0.0
C601 C 0.45639 0.43604 0.56774 0.0
C602 C 0.4358 0.43119 0.59423 0.0
C603 C 0.40262 0.4049 0.81138 0.0
C604 C 0.40948 0.43491 0.81369 0.0
C605 C 0.39793 0.39435 0.77452 0.0
C606 C 0.3992 0.41374 0.73903 0.0
C607 C 0.40736 0.44348 0.74148 0.0
C608 C 0.41258 0.45395 0.77854 0.0
C609 C 0.39096 0.40318 0.69947 0.0
C610 C 0.41072 0.40799 0.6716 0.0
C611 C 0.36401 0.38775 0.68954 0.0
C612 C 0.34093 0.38406 0.71597 0.0
C613 C 0.32918 0.40894 0.72851 0.0
C614 C 0.30772 0.40529 0.75381 0.0
C615 C 0.29762 0.3769 0.76651 0.0
C616 C 0.30891 0.35209 0.75383 0.0
C617 C 0.33043 0.3556 0.72859 0.0
H618 H 0.281 0.37412 0.7861 0.0
H619 H 0.48413 0.4158 0.53341 0.0
H620 H 0.63757 0.67858 0.55977 0.0
H621 H 0.61842 0.65622 0.50004 0.0
H622 H 0.7074 0.65347 0.47172 0.0
H623 H 0.72681 0.67588 0.53177 0.0
H624 H 0.66563 0.67001 0.40467 0.0
H625 H 0.6783 0.5919 0.51584 0.0
H626 H 0.67228 0.5675 0.58309 0.0
H627 H 0.57717 0.56787 0.54799 0.0
H628 H 0.5826 0.59271 0.48067 0.0
H629 H 0.631 0.56419 0.26799 0.0
H630 H 0.65284 0.59111 0.32261 0.0
H631 H 0.56752 0.59154 0.36262 0.0
H632 H 0.54564 0.56452 0.30828 0.0
H633 H 0.6099 0.57565 0.4238 0.0
H634 H 0.59687 0.65463 0.31314 0.0
H635 H 0.6026 0.6798 0.24614 0.0
H636 H 0.69784 0.67809 0.27998 0.0
H637 H 0.69269 0.65253 0.34704 0.0
C638 C 0.6531 0.67322 0.54086 0.0
C639 C 0.68378 0.67862 0.55082 0.0
C640 C 0.64211 0.66049 0.50668 0.0
C641 C 0.66154 0.65267 0.48179 0.0
C642 C 0.69201 0.65923 0.49059 0.0
C643 C 0.70306 0.67208 0.52485 0.0
C644 C 0.65006 0.63661 0.44758 0.0
C645 C 0.6538 0.64916 0.40884 0.0
C646 C 0.63418 0.60966 0.45298 0.0
C647 C 0.63086 0.5944 0.49331 0.0
C648 C 0.65609 0.58696 0.52254 0.0
C649 C 0.65278 0.57303 0.56066 0.0
C650 C 0.62435 0.5662 0.56983 0.0
C651 C 0.59918 0.57321 0.54085 0.0
C652 C 0.60236 0.58719 0.5027 0.0
C653 C 0.61682 0.57034 0.28815 0.0
C654 C 0.58658 0.56216 0.28381 0.0
C655 C 0.62933 0.58574 0.31938 0.0
C656 C 0.61179 0.5936 0.34662 0.0
C657 C 0.58155 0.58566 0.34211 0.0
C658 C 0.56908 0.57013 0.31107 0.0
C659 C 0.62503 0.60923 0.38063 0.0
C660 C 0.62173 0.59649 0.41948 0.0
C661 C 0.64126 0.63599 0.37525 0.0
C662 C 0.6444 0.65138 0.33497 0.0
C663 C 0.61905 0.6594 0.30619 0.0
C664 C 0.62219 0.67378 0.26822 0.0
C665 C 0.65057 0.68046 0.25877 0.0
C666 C 0.67587 0.67285 0.28732 0.0
C667 C 0.67285 0.65844 0.32532 0.0
H668 H 0.65296 0.6916 0.22936 0.0
H669 H 0.62184 0.55542 0.59937 0.0
H670 H 0.88177 0.16047 0.00844 0.0
H671 H 0.89918 0.14194 0.95282 0.0
H672 H 0.8089 0.14295 0.88981 0.0
H673 H 0.79102 0.16044 0.94654 0.0
H674 H 0.83757 0.09234 0.88472 0.0
H675 H 0.85849 0.19643 0.8634 0.0
H676 H 0.87873 0.24421 0.88151 0.0
H677 H 0.9673 0.20737 0.90633 0.0
H678 H 0.94754 0.15922 0.88889 0.0
H679 H 0.87483 0.09 0.69006 0.0
H680 H 0.85632 0.09744 0.75116 0.0
H681 H 0.94653 0.09391 0.81477 0.0
H682 H 0.96517 0.08688 0.75339 0.0
H683 H 0.91797 0.14441 0.82047 0.0
H684 H 0.89663 0.0405 0.8386 0.0
H685 H 0.87582 0.99335 0.81897 0.0
H686 H 0.78744 0.03046 0.7981 0.0
H687 H 0.80775 0.078 0.81707 0.0
C688 C 0.86551 0.15657 0.98291 0.0
C689 C 0.83494 0.16176 0.98205 0.0
C690 C 0.87557 0.14623 0.95093 0.0
C691 C 0.8554 0.14129 0.91697 0.0
C692 C 0.82486 0.14663 0.91575 0.0
C693 C 0.81471 0.1569 0.94796 0.0
C694 C 0.86642 0.13043 0.883 0.0
C695 C 0.85486 0.10392 0.87026 0.0
C696 C 0.88952 0.14515 0.86483 0.0
C697 C 0.90149 0.17413 0.87519 0.0
C698 C 0.88226 0.19845 0.87301 0.0
C699 C 0.89365 0.22561 0.8831 0.0
C700 C 0.92427 0.2288 0.89516 0.0
C701 C 0.94358 0.20486 0.89704 0.0
C702 C 0.9323 0.17763 0.88701 0.0
C703 C 0.89063 0.09002 0.71737 0.0
C704 C 0.92144 0.08803 0.71701 0.0
C705 C 0.88003 0.09417 0.75229 0.0
C706 C 0.90005 0.09632 0.78752 0.0
C707 C 0.93071 0.09235 0.78787 0.0
C708 C 0.94132 0.08806 0.75293 0.0
C709 C 0.88927 0.10621 0.82226 0.0
C710 C 0.90081 0.13268 0.83505 0.0
C711 C 0.86607 0.09153 0.84021 0.0
C712 C 0.85376 0.06292 0.82894 0.0
C713 C 0.87278 0.0387 0.82952 0.0
C714 C 0.86106 0.01188 0.81856 0.0
C715 C 0.83033 0.00893 0.8072 0.0
C716 C 0.81124 0.03278 0.80688 0.0
C717 C 0.82284 0.05966 0.81778 0.0
H718 H 0.82131 0.98815 0.79873 0.0
H719 H 0.93305 0.24985 0.90296 0.0
H720 H 0.36004 0.39776 0.37959 0.0
H721 H 0.3841 0.42089 0.32425 0.0
H722 H 0.39757 0.33467 0.291 0.0
H723 H 0.37414 0.31121 0.34722 0.0
H724 H 0.44738 0.36793 0.2899 0.0
H725 H 0.34411 0.38157 0.23608 0.0
H726 H 0.2919 0.39638 0.23435 0.0
H727 H 0.31893 0.48688 0.23947 0.0
H728 H 0.3714 0.47254 0.24182 0.0
H729 H 0.49252 0.4273 0.1055 0.0
H730 H 0.46524 0.40073 0.15542 0.0
H731 H 0.44748 0.48361 0.19526 0.0
H732 H 0.47346 0.51048 0.14387 0.0
H733 H 0.39855 0.44958 0.19013 0.0
H734 H 0.50219 0.43495 0.24842 0.0
H735 H 0.55408 0.42053 0.24707 0.0
H736 H 0.52575 0.33176 0.2315 0.0
H737 H 0.4736 0.3458 0.23233 0.0
C738 C 0.36823 0.38365 0.36065 0.0
C739 C 0.36522 0.35258 0.36797 0.0
C740 C 0.38175 0.39696 0.32874 0.0
C741 C 0.39242 0.37958 0.30314 0.0
C742 C 0.38944 0.34856 0.31026 0.0
C743 C 0.37583 0.33519 0.34222 0.0
C744 C 0.40719 0.39393 0.26954 0.0
C745 C 0.4365 0.38546 0.26774 0.0
C746 C 0.39328 0.41718 0.24092 0.0
C747 C 0.36174 0.42591 0.23949 0.0
C748 C 0.33896 0.40458 0.23717 0.0
C749 C 0.30931 0.41291 0.23602 0.0
C750 C 0.30211 0.44254 0.2369 0.0
C751 C 0.32455 0.46393 0.23884 0.0
C752 C 0.35424 0.45572 0.24004 0.0
C753 C 0.4825 0.43991 0.12457 0.0
C754 C 0.48487 0.47103 0.12042 0.0
C755 C 0.46717 0.42465 0.15342 0.0
C756 C 0.45449 0.4401 0.17943 0.0
C757 C 0.45701 0.47119 0.17551 0.0
C758 C 0.47209 0.4865 0.14636 0.0
C759 C 0.43882 0.4239 0.21093 0.0
C760 C 0.40935 0.43199 0.21227 0.0
C761 C 0.45256 0.4003 0.23908 0.0
C762 C 0.484 0.39148 0.24016 0.0
C763 C 0.50704 0.41238 0.24463 0.0
C764 C 0.53649 0.40427 0.24395 0.0
C765 C 0.5432 0.37524 0.23913 0.0
C766 C 0.5205 0.35423 0.23523 0.0
C767 C 0.49101 0.36224 0.23588 0.0
H768 H 0.56599 0.36902 0.23845 0.0
H769 H 0.27914 0.44894 0.23599 0.0
H770 H 0.13019 0.84733 0.94408 0.0
H771 H 0.10931 0.87089 0.87671 0.0
H772 H 0.19806 0.89076 0.85143 0.0
H773 H 0.21911 0.86728 0.91888 0.0
H774 H 0.15786 0.93936 0.82983 0.0
H775 H 0.16202 0.83612 0.81205 0.0
H776 H 0.15183 0.78269 0.82801 0.0
H777 H 0.05764 0.80057 0.80454 0.0
H778 H 0.06728 0.85416 0.78897 0.0
H779 H 0.11068 0.99405 0.62586 0.0
H780 H 0.13694 0.96612 0.68782 0.0
H781 H 0.05464 0.92227 0.70885 0.0
H782 H 0.02928 0.94831 0.64515 0.0
H783 H 0.09472 0.8847 0.73221 0.0
H784 H 0.08744 0.98597 0.75626 0.0
H785 H 0.09436 0.04022 0.74356 0.0
H786 H 0.18928 0.02782 0.75963 0.0
H787 H 0.18288 0.97347 0.77195 0.0
C788 C 0.14524 0.85678 0.92418 0.0
C789 C 0.17629 0.85546 0.93673 0.0
C790 C 0.1333 0.87005 0.88565 0.0
C791 C 0.15216 0.88239 0.85901 0.0
C792 C 0.18314 0.88128 0.87151 0.0
C793 C 0.19512 0.86773 0.90991 0.0
C794 C 0.13946 0.89694 0.81837 0.0
C795 C 0.14438 0.92738 0.80819 0.0
C796 C 0.12119 0.88144 0.7907 0.0
C797 C 0.11539 0.84918 0.79966 0.0
C798 C 0.13914 0.82868 0.81057 0.0
C799 C 0.13346 0.79836 0.8195 0.0
C800 C 0.10411 0.78825 0.81737 0.0
C801 C 0.08037 0.80843 0.8062 0.0
C802 C 0.08593 0.83877 0.79727 0.0
C803 C 0.0984 0.97837 0.64392 0.0
C804 C 0.06803 0.97351 0.6315 0.0
C805 C 0.11329 0.96254 0.6794 0.0
C806 C 0.09766 0.94266 0.70396 0.0
C807 C 0.06729 0.9375 0.69078 0.0
C808 C 0.05272 0.95251 0.65459 0.0
C809 C 0.11261 0.9275 0.74354 0.0
C810 C 0.1082 0.89685 0.75362 0.0
C811 C 0.13076 0.94299 0.77157 0.0
C812 C 0.13466 0.97567 0.76464 0.0
C813 C 0.10977 0.99482 0.75689 0.0
C814 C 0.1136 0.02558 0.74977 0.0
C815 C 0.14224 0.03745 0.75069 0.0
C816 C 0.16711 0.01859 0.75887 0.0
C817 C 0.1634 0.98782 0.76596 0.0
H818 H 0.14516 0.06127 0.74514 0.0
H819 H 0.09976 0.76477 0.82431 0.0
loop_
_geom_bond_atom_site_label_1
_geom_bond_atom_site_label_2
_geom_bond_distance
_geom_bond_site_symmetry_2
_ccdc_geom_bond_type
H0 C7 0.929 . S
H1 C10 0.930 . S
H2 C12 0.929 . S
H3 C4 0.969 . S
C4 H3 0.969 . S
C4 O5 1.550 . S
C4 H6 0.973 . S
O5 C4 1.550 . S
O5 C11 1.412 . S
H6 C4 0.973 . S
C7 H0 0.929 . S
C7 C8 1.400 1_554 S
C7 C9 1.364 . S
C8 C7 1.400 1_556 S
C8 C12 1.377 . S
C9 C7 1.364 . S
C9 C10 1.374 . S
C10 H1 0.930 . S
C10 C9 1.374 . S
C10 C11 1.383 . S
C11 O5 1.412 . S
C11 C10 1.383 . S
C11 C12 1.394 1_554 S
C12 H2 0.929 . S
C12 C8 1.377 . S
C12 C11 1.394 1_556 S
H13 C20 0.929 . S
H14 C23 0.930 . S
H15 C25 0.929 . S
H16 C17 0.969 . S
C17 H16 0.969 . S
C17 O18 1.550 . S
C17 H19 0.973 . S
O18 C17 1.550 . S
O18 C24 1.412 . S
H19 C17 0.973 . S
C20 H13 0.929 . S
C20 C21 1.400 . S
C20 C22 1.364 . S
C21 C20 1.400 . S
C21 C25 1.377 . S
C22 C20 1.364 . S
C22 C23 1.374 . S
C23 H14 0.930 . S
C23 C22 1.374 . S
C23 C24 1.383 . S
C24 O18 1.412 . S
C24 C23 1.383 . S
C24 C25 1.394 . S
C25 H15 0.929 . S
C25 C21 1.377 . S
C25 C24 1.394 . S
H26 C33 0.929 . S
H27 C36 0.930 1_556 S
H28 C38 0.929 . S
H29 C30 0.969 . S
C30 H29 0.969 . S
C30 O31 1.550 . S
C30 H32 0.973 1_554 S
O31 C30 1.550 . S
O31 C37 1.412 . S
H32 C30 0.973 1_556 S
C33 H26 0.929 . S
C33 C34 1.400 . S
C33 C35 1.364 . S
C34 C33 1.400 . S
C34 C38 1.377 . S
C35 C33 1.364 . S
C35 C36 1.374 . S
C36 H27 0.930 1_554 S
C36 C35 1.374 . S
C36 C37 1.383 . S
C37 O31 1.412 . S
C37 C36 1.383 . S
C37 C38 1.394 . S
C38 H28 0.929 . S
C38 C34 1.377 . S
C38 C37 1.394 . S
H39 C46 0.929 . S
H40 C49 0.930 . S
H41 C51 0.929 . S
H42 C43 0.969 . S
C43 H42 0.969 . S
C43 O44 1.550 . S
C43 H45 0.973 . S
O44 C43 1.550 . S
O44 C50 1.412 . S
H45 C43 0.973 . S
C46 H39 0.929 . S
C46 C47 1.400 . S
C46 C48 1.364 . S
C47 C46 1.400 . S
C47 C51 1.377 . S
C48 C46 1.364 . S
C48 C49 1.374 . S
C49 H40 0.930 . S
C49 C48 1.374 . S
C49 C50 1.383 . S
C50 O44 1.412 . S
C50 C49 1.383 . S
C50 C51 1.394 . S
C51 H41 0.929 . S
C51 C47 1.377 . S
C51 C50 1.394 . S
C52 C54 1.422 . S
C52 C56 1.415 . S
C52 N58 1.369 . S
C53 C54 1.421 . S
C53 C55 1.417 . S
C53 C65 1.422 . S
C54 C52 1.422 . S
C54 C53 1.421 . S
C54 N64 1.359 . S
C55 C53 1.417 . S
C55 C57 1.329 . S
C55 H74 0.930 . S
C56 C52 1.415 . S
C56 C57 1.437 . S
C56 C60 1.413 . S
C57 C55 1.329 . S
C57 C56 1.437 . S
C57 H79 0.929 . S
N58 C52 1.369 . S
N58 C59 1.338 1_655 S
N58 Gd63 2.622 . S
C59 N58 1.338 1_455 S
C59 C61 1.378 . S
C59 H71 0.929 . S
C60 C56 1.413 . S
C60 C61 1.348 1_655 S
C60 H76 0.931 . S
C61 C59 1.378 . S
C61 C60 1.348 1_455 S
C61 H77 0.930 . S
Gd62 N82 2.622 . S
Gd62 N89 2.570 . S
Gd62 O96 2.353 1_465 S
Gd62 O97 2.468 . S
Gd62 O98 2.427 . S
Gd62 O100 2.388 1_455 S
Gd62 O101 2.386 . S
Gd62 O105 2.307 1_565 S
Gd62 C115 2.805 . S
Gd63 N58 2.622 . S
Gd63 N64 2.570 . S
Gd63 O95 2.386 . S
Gd63 O99 2.307 1_545 S
Gd63 O102 2.353 1_655 S
Gd63 O103 2.468 . S
Gd63 O104 2.427 . S
Gd63 O106 2.388 1_655 S
Gd63 C127 2.805 . S
N64 C54 1.359 . S
N64 Gd63 2.570 . S
N64 C66 1.343 . S
C65 C53 1.422 . S
C65 C67 1.321 . S
C65 H73 0.931 . S
C66 N64 1.343 . S
C66 C67 1.390 . S
C66 H68 0.931 . S
C67 C65 1.321 . S
C67 C66 1.390 . S
C67 H69 0.930 . S
H68 C66 0.931 . S
H69 C67 0.930 . S
H70 C93 0.931 . S
H71 C59 0.929 . S
H72 C94 0.930 . S
H73 C65 0.931 . S
H74 C55 0.930 . S
H75 C84 0.929 1_655 S
H76 C60 0.931 . S
H77 C61 0.930 . S
H78 C116 0.930 . S
H79 C57 0.929 . S
H80 C85 0.931 . S
H81 C86 0.930 1_655 S
N82 Gd62 2.622 . S
N82 C83 1.369 . S
N82 C84 1.338 . S
C83 N82 1.369 . S
C83 C87 1.415 . S
C83 C90 1.422 . S
C84 H75 0.929 1_455 S
C84 N82 1.338 . S
C84 C86 1.378 . S
C85 H80 0.931 . S
C85 C86 1.348 . S
C85 C87 1.413 . S
C86 H81 0.930 1_455 S
C86 C84 1.378 . S
C86 C85 1.348 . S
C87 C83 1.415 . S
C87 C85 1.413 . S
C87 C117 1.437 . S
H88 C117 0.929 . S
N89 Gd62 2.570 . S
N89 C90 1.359 . S
N89 C93 1.343 . S
C90 C83 1.422 . S
C90 N89 1.359 . S
C90 C92 1.421 . S
C91 C92 1.422 . S
C91 C94 1.321 . S
C91 H118 0.931 . S
C92 C90 1.421 . S
C92 C91 1.422 . S
C92 C116 1.417 . S
C93 H70 0.931 . S
C93 N89 1.343 . S
C93 C94 1.390 . S
C94 H72 0.930 . S
C94 C91 1.321 . S
C94 C93 1.390 . S
O95 Gd63 2.386 . S
O95 C107 1.265 . S
O96 Gd62 2.353 1_645 S
O96 C107 1.242 . S
O97 Gd62 2.468 . S
O97 C115 1.263 . S
O98 Gd62 2.427 . S
O98 C115 1.252 . S
O99 Gd63 2.307 1_565 S
O99 C108 1.261 . S
O100 Gd62 2.388 1_655 S
O100 C108 1.252 . S
O101 Gd62 2.386 . S
O101 C119 1.265 . S
O102 Gd63 2.353 1_455 S
O102 C119 1.242 1_545 S
O103 Gd63 2.468 . S
O103 C127 1.263 . S
O104 Gd63 2.427 . S
O104 C127 1.252 . S
O105 Gd62 2.307 1_545 S
O105 C120 1.261 . S
O106 Gd63 2.388 1_455 S
O106 C120 1.252 . S
C107 O95 1.265 . S
C107 O96 1.242 . S
C108 O99 1.261 . S
C108 O100 1.252 . S
C109 C112 1.394 . S
C109 C114 1.370 . S
C109 C115 1.500 . S
C110 C113 1.383 . S
C110 C114 1.395 . S
C111 C112 1.396 . S
C111 C113 1.365 . S
C111 H128 0.929 . S
C112 C109 1.394 . S
C112 C111 1.396 . S
C112 H129 0.930 . S
C113 C110 1.383 . S
C113 C111 1.365 . S
C113 H130 0.931 . S
C114 C109 1.370 . S
C114 C110 1.395 . S
C114 H131 0.930 . S
C115 Gd62 2.805 . S
C115 O97 1.263 . S
C115 O98 1.252 . S
C115 C109 1.500 . S
C116 H78 0.930 . S
C116 C92 1.417 . S
C116 C117 1.329 . S
C117 C87 1.437 . S
C117 H88 0.929 . S
C117 C116 1.329 . S
H118 C91 0.931 . S
C119 O101 1.265 . S
C119 O102 1.242 1_565 S
C120 O105 1.261 . S
C120 O106 1.252 . S
C121 C124 1.394 . S
C121 C126 1.370 . S
C121 C127 1.500 . S
C122 C125 1.383 . S
C122 C126 1.395 . S
C123 C124 1.396 . S
C123 C125 1.365 . S
C123 H132 0.929 . S
C124 C121 1.394 . S
C124 C123 1.396 . S
C124 H133 0.930 . S
C125 C122 1.383 . S
C125 C123 1.365 . S
C125 H134 0.931 . S
C126 C121 1.370 . S
C126 C122 1.395 . S
C126 H135 0.930 . S
C127 Gd63 2.805 . S
C127 O103 1.263 . S
C127 O104 1.252 . S
C127 C121 1.500 . S
H128 C111 0.929 . S
H129 C112 0.930 . S
H130 C113 0.931 . S
H131 C114 0.930 . S
H132 C123 0.929 . S
H133 C124 0.930 . S
H134 C125 0.931 . S
H135 C126 0.930 . S
C136 C138 1.422 . S
C136 C140 1.415 . S
C136 N142 1.369 . S
C137 C138 1.421 . S
C137 C139 1.417 . S
C137 C149 1.422 . S
C138 C136 1.422 . S
C138 C137 1.421 . S
C138 N148 1.359 . S
C139 C137 1.417 . S
C139 C141 1.329 . S
C139 H158 0.930 . S
C140 C136 1.415 . S
C140 C141 1.437 . S
C140 C144 1.413 . S
C141 C139 1.329 . S
C141 C140 1.437 . S
C141 H163 0.929 . S
N142 C136 1.369 . S
N142 C143 1.338 . S
N142 Gd147 2.622 . S
C143 N142 1.338 . S
C143 C145 1.378 . S
C143 H155 0.929 . S
C144 C140 1.413 . S
C144 C145 1.348 . S
C144 H160 0.931 . S
C145 C143 1.378 . S
C145 C144 1.348 . S
C145 H161 0.930 . S
Gd146 N166 2.622 . S
Gd146 N173 2.570 1_556 S
Gd146 O180 2.353 . S
Gd146 O181 2.468 . S
Gd146 O182 2.427 . S
Gd146 O184 2.388 . S
Gd146 O185 2.386 1_556 S
Gd146 O189 2.307 1_556 S
Gd146 C199 2.805 . S
Gd147 N142 2.622 . S
Gd147 N148 2.570 . S
Gd147 O179 2.386 1_554 S
Gd147 O183 2.307 . S
Gd147 O186 2.353 . S
Gd147 O187 2.468 . S
Gd147 O188 2.427 . S
Gd147 O190 2.388 . S
Gd147 C211 2.805 . S
N148 C138 1.359 . S
N148 Gd147 2.570 . S
N148 C150 1.343 . S
C149 C137 1.422 . S
C149 C151 1.321 . S
C149 H157 0.931 . S
C150 N148 1.343 . S
C150 C151 1.390 . S
C150 H152 0.931 . S
C151 C149 1.321 . S
C151 C150 1.390 . S
C151 H153 0.930 . S
H152 C150 0.931 . S
H153 C151 0.930 . S
H154 C177 0.931 . S
H155 C143 0.929 . S
H156 C178 0.930 . S
H157 C149 0.931 . S
H158 C139 0.930 . S
H159 C168 0.929 . S
H160 C144 0.931 . S
H161 C145 0.930 . S
H162 C200 0.930 . S
H163 C141 0.929 . S
H164 C169 0.931 . S
H165 C170 0.930 . S
N166 Gd146 2.622 . S
N166 C167 1.369 1_556 S
N166 C168 1.338 . S
C167 N166 1.369 1_554 S
C167 C171 1.415 . S
C167 C174 1.422 . S
C168 H159 0.929 . S
C168 N166 1.338 . S
C168 C170 1.378 . S
C169 H164 0.931 . S
C169 C170 1.348 1_554 S
C169 C171 1.413 . S
C170 H165 0.930 . S
C170 C168 1.378 . S
C170 C169 1.348 1_556 S
C171 C167 1.415 . S
C171 C169 1.413 . S
C171 C201 1.437 . S
H172 C201 0.929 . S
N173 Gd146 2.570 1_554 S
N173 C174 1.359 . S
N173 C177 1.343 . S
C174 C167 1.422 . S
C174 N173 1.359 . S
C174 C176 1.421 . S
C175 C176 1.422 . S
C175 C178 1.321 . S
C175 H202 0.931 . S
C176 C174 1.421 . S
C176 C175 1.422 . S
C176 C200 1.417 . S
C177 H154 0.931 . S
C177 N173 1.343 . S
C177 C178 1.390 . S
C178 H156 0.930 . S
C178 C175 1.321 . S
C178 C177 1.390 . S
O179 Gd147 2.386 1_556 S
O179 C191 1.265 . S
O180 Gd146 2.353 . S
O180 C191 1.242 . S
O181 Gd146 2.468 . S
O181 C199 1.263 . S
O182 Gd146 2.427 . S
O182 C199 1.252 . S
O183 Gd147 2.307 . S
O183 C192 1.261 . S
O184 Gd146 2.388 . S
O184 C192 1.252 1_556 S
O185 Gd146 2.386 1_554 S
O185 C203 1.265 . S
O186 Gd147 2.353 . S
O186 C203 1.242 . S
O187 Gd147 2.468 . S
O187 C211 1.263 . S
O188 Gd147 2.427 . S
O188 C211 1.252 . S
O189 Gd146 2.307 1_554 S
O189 C204 1.261 . S
O190 Gd147 2.388 . S
O190 C204 1.252 . S
C191 O179 1.265 . S
C191 O180 1.242 . S
C192 O183 1.261 . S
C192 O184 1.252 1_554 S
C193 C196 1.394 . S
C193 C198 1.370 . S
C193 C199 1.500 . S
C194 C197 1.383 . S
C194 C198 1.395 . S
C195 C196 1.396 . S
C195 C197 1.365 . S
C195 H212 0.929 . S
C196 C193 1.394 . S
C196 C195 1.396 . S
C196 H213 0.930 . S
C197 C194 1.383 . S
C197 C195 1.365 . S
C197 H214 0.931 . S
C198 C193 1.370 . S
C198 C194 1.395 . S
C198 H215 0.930 . S
C199 Gd146 2.805 . S
C199 O181 1.263 . S
C199 O182 1.252 . S
C199 C193 1.500 . S
C200 H162 0.930 . S
C200 C176 1.417 . S
C200 C201 1.329 . S
C201 C171 1.437 . S
C201 H172 0.929 . S
C201 C200 1.329 . S
H202 C175 0.931 . S
C203 O185 1.265 . S
C203 O186 1.242 . S
C204 O189 1.261 . S
C204 O190 1.252 . S
C205 C208 1.394 . S
C205 C210 1.370 . S
C205 C211 1.500 . S
C206 C209 1.383 . S
C206 C210 1.395 . S
C207 C208 1.396 . S
C207 C209 1.365 . S
C207 H216 0.929 . S
C208 C205 1.394 . S
C208 C207 1.396 . S
C208 H217 0.930 . S
C209 C206 1.383 . S
C209 C207 1.365 . S
C209 H218 0.931 . S
C210 C205 1.370 . S
C210 C206 1.395 . S
C210 H219 0.930 . S
C211 Gd147 2.805 . S
C211 O187 1.263 . S
C211 O188 1.252 . S
C211 C205 1.500 . S
H212 C195 0.929 . S
H213 C196 0.930 . S
H214 C197 0.931 . S
H215 C198 0.930 . S
H216 C207 0.929 . S
H217 C208 0.930 . S
H218 C209 0.931 . S
H219 C210 0.930 . S
H220 C238 0.951 . S
H221 C240 0.951 . S
H222 C242 0.950 . S
H223 C243 0.950 . S
H224 C245 0.950 . S
H225 C248 0.950 . S
H226 C249 0.950 . S
H227 C251 0.950 . S
H228 C252 0.950 . S
H229 C253 0.951 . S
H230 C255 0.951 . S
H231 C257 0.950 . S
H232 C258 0.950 . S
H233 C260 0.950 . S
H234 C263 0.950 . S
H235 C264 0.950 . S
H236 C266 0.950 . S
H237 C267 0.950 . S
C238 H220 0.951 . S
C238 C239 1.366 . S
C238 C240 1.388 . S
C239 C238 1.366 . S
C239 C243 1.385 . S
C240 H221 0.951 . S
C240 C238 1.388 . S
C240 C241 1.366 . S
C241 C240 1.366 . S
C241 C242 1.414 . S
C241 C244 1.499 . S
C242 H222 0.950 . S
C242 C241 1.414 . S
C242 C243 1.374 . S
C243 H223 0.950 . S
C243 C239 1.385 . S
C243 C242 1.374 . S
C244 C241 1.499 . S
C244 C245 1.373 . S
C244 C246 1.389 . S
C245 H224 0.950 . S
C245 C244 1.373 . S
C245 C261 1.377 . S
C246 C244 1.389 . S
C246 C247 1.524 . S
C246 C260 1.377 . S
C247 C246 1.524 . S
C247 C248 1.397 . S
C247 C252 1.363 . S
C248 H225 0.950 . S
C248 C247 1.397 . S
C248 C249 1.334 . S
C249 H226 0.950 . S
C249 C248 1.334 . S
C249 C250 1.287 . S
C250 C249 1.287 . S
C250 C251 1.524 . S
C250 H269 0.913 . S
C251 H227 0.950 . S
C251 C250 1.524 . S
C251 C252 1.415 . S
C252 H228 0.950 . S
C252 C247 1.363 . S
C252 C251 1.415 . S
C253 H229 0.951 . S
C253 C254 1.366 . S
C253 C255 1.388 . S
C254 C253 1.366 . S
C254 C258 1.385 . S
C255 H230 0.951 . S
C255 C253 1.388 . S
C255 C256 1.366 . S
C256 C255 1.366 . S
C256 C257 1.414 . S
C256 C259 1.499 . S
C257 H231 0.950 . S
C257 C256 1.414 . S
C257 C258 1.374 . S
C258 H232 0.950 . S
C258 C254 1.385 . S
C258 C257 1.374 . S
C259 C256 1.499 . S
C259 C260 1.373 . S
C259 C261 1.389 . S
C260 H233 0.950 . S
C260 C246 1.377 . S
C260 C259 1.373 . S
C261 C245 1.377 . S
C261 C259 1.389 . S
C261 C262 1.524 . S
C262 C261 1.524 . S
C262 C263 1.397 . S
C262 C267 1.363 . S
C263 H234 0.950 . S
C263 C262 1.397 . S
C263 C264 1.334 . S
C264 H235 0.950 . S
C264 C263 1.334 . S
C264 C265 1.287 . S
C265 C264 1.287 . S
C265 C266 1.524 . S
C265 H268 0.999 . S
C266 H236 0.950 . S
C266 C265 1.524 . S
C266 C267 1.415 . S
C267 H237 0.950 . S
C267 C262 1.363 . S
C267 C266 1.415 . S
H268 C265 0.999 . S
H269 C250 0.913 . S
H270 C288 0.951 . S
H271 C290 0.951 . S
H272 C292 0.950 . S
H273 C293 0.950 . S
H274 C295 0.950 . S
H275 C298 0.950 . S
H276 C299 0.950 . S
H277 C301 0.950 . S
H278 C302 0.950 . S
H279 C303 0.951 . S
H280 C305 0.951 . S
H281 C307 0.950 . S
H282 C308 0.950 . S
H283 C310 0.950 1_556 S
H284 C313 0.950 . S
H285 C314 0.950 . S
H286 C316 0.950 . S
H287 C317 0.950 . S
C288 H270 0.951 . S
C288 C289 1.366 . S
C288 C290 1.388 . S
C289 C288 1.366 . S
C289 C293 1.385 . S
C290 H271 0.951 . S
C290 C288 1.388 . S
C290 C291 1.366 . S
C291 C290 1.366 . S
C291 C292 1.414 . S
C291 C294 1.499 . S
C292 H272 0.950 . S
C292 C291 1.414 . S
C292 C293 1.374 . S
C293 H273 0.950 . S
C293 C289 1.385 . S
C293 C292 1.374 . S
C294 C291 1.499 . S
C294 C295 1.373 . S
C294 C296 1.389 . S
C295 H274 0.950 . S
C295 C294 1.373 . S
C295 C311 1.377 . S
C296 C294 1.389 . S
C296 C297 1.524 1_554 S
C296 C310 1.377 . S
C297 C296 1.524 1_556 S
C297 C298 1.397 . S
C297 C302 1.363 . S
C298 H275 0.950 . S
C298 C297 1.397 . S
C298 C299 1.334 . S
C299 H276 0.950 . S
C299 C298 1.334 . S
C299 C300 1.287 . S
C300 C299 1.287 . S
C300 C301 1.524 . S
C300 H319 0.913 . S
C301 H277 0.950 . S
C301 C300 1.524 . S
C301 C302 1.415 . S
C302 H278 0.950 . S
C302 C297 1.363 . S
C302 C301 1.415 . S
C303 H279 0.951 . S
C303 C304 1.366 . S
C303 C305 1.388 . S
C304 C303 1.366 . S
C304 C308 1.385 . S
C305 H280 0.951 . S
C305 C303 1.388 . S
C305 C306 1.366 . S
C306 C305 1.366 . S
C306 C307 1.414 . S
C306 C309 1.499 . S
C307 H281 0.950 . S
C307 C306 1.414 . S
C307 C308 1.374 . S
C308 H282 0.950 . S
C308 C304 1.385 . S
C308 C307 1.374 . S
C309 C306 1.499 . S
C309 C310 1.373 . S
C309 C311 1.389 . S
C310 H283 0.950 1_554 S
C310 C296 1.377 . S
C310 C309 1.373 . S
C311 C295 1.377 . S
C311 C309 1.389 . S
C311 C312 1.524 . S
C312 C311 1.524 . S
C312 C313 1.397 . S
C312 C317 1.363 . S
C313 H284 0.950 . S
C313 C312 1.397 . S
C313 C314 1.334 . S
C314 H285 0.950 . S
C314 C313 1.334 . S
C314 C315 1.287 . S
C315 C314 1.287 . S
C315 C316 1.524 . S
C315 H318 0.999 . S
C316 H286 0.950 . S
C316 C315 1.524 . S
C316 C317 1.415 . S
C317 H287 0.950 . S
C317 C312 1.363 . S
C317 C316 1.415 . S
H318 C315 0.999 . S
H319 C300 0.913 . S
H320 C338 0.951 . S
H321 C340 0.951 . S
H322 C342 0.950 . S
H323 C343 0.950 . S
H324 C345 0.950 . S
H325 C348 0.950 . S
H326 C349 0.950 . S
H327 C351 0.950 . S
H328 C352 0.950 . S
H329 C353 0.951 . S
H330 C355 0.951 . S
H331 C357 0.950 . S
H332 C358 0.950 . S
H333 C360 0.950 . S
H334 C363 0.950 . S
H335 C364 0.950 . S
H336 C366 0.950 . S
H337 C367 0.950 . S
C338 H320 0.951 . S
C338 C339 1.366 . S
C338 C340 1.388 . S
C339 C338 1.366 . S
C339 C343 1.385 . S
C340 H321 0.951 . S
C340 C338 1.388 . S
C340 C341 1.366 . S
C341 C340 1.366 . S
C341 C342 1.414 . S
C341 C344 1.499 . S
C342 H322 0.950 . S
C342 C341 1.414 . S
C342 C343 1.374 . S
C343 H323 0.950 . S
C343 C339 1.385 . S
C343 C342 1.374 . S
C344 C341 1.499 . S
C344 C345 1.373 . S
C344 C346 1.389 . S
C345 H324 0.950 . S
C345 C344 1.373 . S
C345 C361 1.377 . S
C346 C344 1.389 . S
C346 C347 1.524 . S
C346 C360 1.377 . S
C347 C346 1.524 . S
C347 C348 1.397 . S
C347 C352 1.363 . S
C348 H325 0.950 . S
C348 C347 1.397 . S
C348 C349 1.334 . S
C349 H326 0.950 . S
C349 C348 1.334 . S
C349 C350 1.287 . S
C350 C349 1.287 . S
C350 C351 1.524 . S
C350 H369 0.913 . S
C351 H327 0.950 . S
C351 C350 1.524 . S
C351 C352 1.415 . S
C352 H328 0.950 . S
C352 C347 1.363 . S
C352 C351 1.415 . S
C353 H329 0.951 . S
C353 C354 1.366 . S
C353 C355 1.388 . S
C354 C353 1.366 . S
C354 C358 1.385 . S
C355 H330 0.951 . S
C355 C353 1.388 . S
C355 C356 1.366 . S
C356 C355 1.366 . S
C356 C357 1.414 . S
C356 C359 1.499 . S
C357 H331 0.950 . S
C357 C356 1.414 . S
C357 C358 1.374 . S
C358 H332 0.950 . S
C358 C354 1.385 . S
C358 C357 1.374 . S
C359 C356 1.499 . S
C359 C360 1.373 . S
C359 C361 1.389 . S
C360 H333 0.950 . S
C360 C346 1.377 . S
C360 C359 1.373 . S
C361 C345 1.377 . S
C361 C359 1.389 . S
C361 C362 1.524 . S
C362 C361 1.524 . S
C362 C363 1.397 . S
C362 C367 1.363 . S
C363 H334 0.950 . S
C363 C362 1.397 . S
C363 C364 1.334 . S
C364 H335 0.950 . S
C364 C363 1.334 . S
C364 C365 1.287 . S
C365 C364 1.287 . S
C365 C366 1.524 . S
C365 H368 0.999 . S
C366 H336 0.950 . S
C366 C365 1.524 . S
C366 C367 1.415 . S
C367 H337 0.950 . S
C367 C362 1.363 . S
C367 C366 1.415 . S
H368 C365 0.999 . S
H369 C350 0.913 . S
H370 C388 0.951 . S
H371 C390 0.951 . S
H372 C392 0.950 . S
H373 C393 0.950 . S
H374 C395 0.950 . S
H375 C398 0.950 . S
H376 C399 0.950 . S
H377 C401 0.950 . S
H378 C402 0.950 . S
H379 C403 0.951 . S
H380 C405 0.951 . S
H381 C407 0.950 1_556 S
H382 C408 0.950 1_556 S
H383 C410 0.950 . S
H384 C413 0.950 . S
H385 C414 0.950 . S
H386 C416 0.950 1_554 S
H387 C417 0.950 . S
C388 H370 0.951 . S
C388 C389 1.366 1_556 S
C388 C390 1.388 . S
C389 C388 1.366 1_554 S
C389 C393 1.385 . S
C390 H371 0.951 . S
C390 C388 1.388 . S
C390 C391 1.366 1_556 S
C391 C390 1.366 1_554 S
C391 C392 1.414 . S
C391 C394 1.499 . S
C392 H372 0.950 . S
C392 C391 1.414 . S
C392 C393 1.374 . S
C393 H373 0.950 . S
C393 C389 1.385 . S
C393 C392 1.374 . S
C394 C391 1.499 . S
C394 C395 1.373 . S
C394 C396 1.389 . S
C395 H374 0.950 . S
C395 C394 1.373 . S
C395 C411 1.377 . S
C396 C394 1.389 . S
C396 C397 1.524 . S
C396 C410 1.377 . S
C397 C396 1.524 . S
C397 C398 1.397 . S
C397 C402 1.363 . S
C398 H375 0.950 . S
C398 C397 1.397 . S
C398 C399 1.334 . S
C399 H376 0.950 . S
C399 C398 1.334 . S
C399 C400 1.287 . S
C400 C399 1.287 . S
C400 C401 1.524 . S
C400 H419 0.913 . S
C401 H377 0.950 . S
C401 C400 1.524 . S
C401 C402 1.415 . S
C402 H378 0.950 . S
C402 C397 1.363 . S
C402 C401 1.415 . S
C403 H379 0.951 . S
C403 C404 1.366 . S
C403 C405 1.388 . S
C404 C403 1.366 . S
C404 C408 1.385 . S
C405 H380 0.951 . S
C405 C403 1.388 . S
C405 C406 1.366 . S
C406 C405 1.366 . S
C406 C407 1.414 . S
C406 C409 1.499 . S
C407 H381 0.950 1_554 S
C407 C406 1.414 . S
C407 C408 1.374 . S
C408 H382 0.950 1_554 S
C408 C404 1.385 . S
C408 C407 1.374 . S
C409 C406 1.499 . S
C409 C410 1.373 . S
C409 C411 1.389 . S
C410 H383 0.950 . S
C410 C396 1.377 . S
C410 C409 1.373 . S
C411 C395 1.377 . S
C411 C409 1.389 . S
C411 C412 1.524 1_554 S
C412 C411 1.524 1_556 S
C412 C413 1.397 . S
C412 C417 1.363 1_556 S
C413 H384 0.950 . S
C413 C412 1.397 . S
C413 C414 1.334 . S
C414 H385 0.950 . S
C414 C413 1.334 . S
C414 C415 1.287 . S
C415 C414 1.287 . S
C415 C416 1.524 . S
C415 H418 0.999 . S
C416 H386 0.950 1_556 S
C416 C415 1.524 . S
C416 C417 1.415 1_556 S
C417 H387 0.950 . S
C417 C412 1.363 1_554 S
C417 C416 1.415 1_554 S
H418 C415 0.999 . S
H419 C400 0.913 . S
H420 C438 0.951 . S
H421 C440 0.951 . S
H422 C442 0.950 . S
H423 C443 0.950 . S
H424 C445 0.950 . S
H425 C448 0.950 . S
H426 C449 0.950 . S
H427 C451 0.950 . S
H428 C452 0.950 . S
H429 C453 0.951 . S
H430 C455 0.951 . S
H431 C457 0.950 . S
H432 C458 0.950 . S
H433 C460 0.950 . S
H434 C463 0.950 . S
H435 C464 0.950 . S
H436 C466 0.950 . S
H437 C467 0.950 . S
C438 H420 0.951 . S
C438 C439 1.366 . S
C438 C440 1.388 . S
C439 C438 1.366 . S
C439 C443 1.385 . S
C440 H421 0.951 . S
C440 C438 1.388 . S
C440 C441 1.366 . S
C441 C440 1.366 . S
C441 C442 1.414 . S
C441 C444 1.499 . S
C442 H422 0.950 . S
C442 C441 1.414 . S
C442 C443 1.374 . S
C443 H423 0.950 . S
C443 C439 1.385 . S
C443 C442 1.374 . S
C444 C441 1.499 . S
C444 C445 1.373 . S
C444 C446 1.389 . S
C445 H424 0.950 . S
C445 C444 1.373 . S
C445 C461 1.377 . S
C446 C444 1.389 . S
C446 C447 1.524 . S
C446 C460 1.377 . S
C447 C446 1.524 . S
C447 C448 1.397 . S
C447 C452 1.363 . S
C448 H425 0.950 . S
C448 C447 1.397 . S
C448 C449 1.334 . S
C449 H426 0.950 . S
C449 C448 1.334 . S
C449 C450 1.287 . S
C450 C449 1.287 . S
C450 C451 1.524 . S
C450 H469 0.913 . S
C451 H427 0.950 . S
C451 C450 1.524 . S
C451 C452 1.415 . S
C452 H428 0.950 . S
C452 C447 1.363 . S
C452 C451 1.415 . S
C453 H429 0.951 . S
C453 C454 1.366 . S
C453 C455 1.388 . S
C454 C453 1.366 . S
C454 C458 1.385 . S
C455 H430 0.951 . S
C455 C453 1.388 . S
C455 C456 1.366 . S
C456 C455 1.366 . S
C456 C457 1.414 . S
C456 C459 1.499 . S
C457 H431 0.950 . S
C457 C456 1.414 . S
C457 C458 1.374 . S
C458 H432 0.950 . S
C458 C454 1.385 . S
C458 C457 1.374 . S
C459 C456 1.499 . S
C459 C460 1.373 . S
C459 C461 1.389 . S
C460 H433 0.950 . S
C460 C446 1.377 . S
C460 C459 1.373 . S
C461 C445 1.377 . S
C461 C459 1.389 . S
C461 C462 1.524 . S
C462 C461 1.524 . S
C462 C463 1.397 . S
C462 C467 1.363 . S
C463 H434 0.950 . S
C463 C462 1.397 . S
C463 C464 1.334 1_565 S
C464 H435 0.950 . S
C464 C463 1.334 1_545 S
C464 C465 1.290 . S
C465 C464 1.290 . S
C465 C466 1.513 1_545 S
C465 H468 1.006 . S
C466 H436 0.950 . S
C466 C465 1.513 1_565 S
C466 C467 1.415 . S
C467 H437 0.950 . S
C467 C462 1.363 . S
C467 C466 1.415 . S
H468 C465 1.006 . S
H469 C450 0.913 . S
H470 C488 0.951 . S
H471 C490 0.951 . S
H472 C492 0.950 . S
H473 C493 0.950 . S
H474 C495 0.950 . S
H475 C498 0.950 . S
H476 C499 0.950 . S
H477 C501 0.950 . S
H478 C502 0.950 . S
H479 C503 0.951 . S
H480 C505 0.951 . S
H481 C507 0.950 . S
H482 C508 0.950 . S
H483 C510 0.950 . S
H484 C513 0.950 . S
H485 C514 0.950 . S
H486 C516 0.950 . S
H487 C517 0.950 . S
C488 H470 0.951 . S
C488 C489 1.366 . S
C488 C490 1.388 . S
C489 C488 1.366 . S
C489 C493 1.385 . S
C490 H471 0.951 . S
C490 C488 1.388 . S
C490 C491 1.366 . S
C491 C490 1.366 . S
C491 C492 1.414 . S
C491 C494 1.499 . S
C492 H472 0.950 . S
C492 C491 1.414 . S
C492 C493 1.374 . S
C493 H473 0.950 . S
C493 C489 1.385 . S
C493 C492 1.374 . S
C494 C491 1.499 . S
C494 C495 1.373 . S
C494 C496 1.389 . S
C495 H474 0.950 . S
C495 C494 1.373 . S
C495 C511 1.377 . S
C496 C494 1.389 . S
C496 C497 1.524 . S
C496 C510 1.377 . S
C497 C496 1.524 . S
C497 C498 1.397 . S
C497 C502 1.363 . S
C498 H475 0.950 . S
C498 C497 1.397 . S
C498 C499 1.334 . S
C499 H476 0.950 . S
C499 C498 1.334 . S
C499 C500 1.287 . S
C500 C499 1.287 . S
C500 C501 1.524 . S
C500 H519 0.913 . S
C501 H477 0.950 . S
C501 C500 1.524 . S
C501 C502 1.415 . S
C502 H478 0.950 . S
C502 C497 1.363 . S
C502 C501 1.415 . S
C503 H479 0.951 . S
C503 C504 1.366 . S
C503 C505 1.388 . S
C504 C503 1.366 . S
C504 C508 1.385 . S
C505 H480 0.951 . S
C505 C503 1.388 . S
C505 C506 1.366 . S
C506 C505 1.366 . S
C506 C507 1.414 . S
C506 C509 1.499 . S
C507 H481 0.950 . S
C507 C506 1.414 . S
C507 C508 1.374 . S
C508 H482 0.950 . S
C508 C504 1.385 . S
C508 C507 1.374 . S
C509 C506 1.499 . S
C509 C510 1.373 . S
C509 C511 1.389 . S
C510 H483 0.950 . S
C510 C496 1.377 . S
C510 C509 1.373 . S
C511 C495 1.377 . S
C511 C509 1.389 . S
C511 C512 1.524 . S
C512 C511 1.524 . S
C512 C513 1.397 . S
C512 C517 1.363 . S
C513 H484 0.950 . S
C513 C512 1.397 . S
C513 C514 1.334 . S
C514 H485 0.950 . S
C514 C513 1.334 . S
C514 C515 1.287 . S
C515 C514 1.287 . S
C515 C516 1.524 . S
C515 H518 0.999 . S
C516 H486 0.950 . S
C516 C515 1.524 . S
C516 C517 1.415 . S
C517 H487 0.950 . S
C517 C512 1.363 . S
C517 C516 1.415 . S
H518 C515 0.999 . S
H519 C500 0.913 . S
H520 C538 0.951 . S
H521 C540 0.951 . S
H522 C542 0.950 . S
H523 C543 0.950 . S
H524 C545 0.950 . S
H525 C548 0.950 . S
H526 C549 0.950 . S
H527 C551 0.950 . S
H528 C552 0.950 . S
H529 C553 0.951 . S
H530 C555 0.951 . S
H531 C557 0.950 . S
H532 C558 0.950 . S
H533 C560 0.950 . S
H534 C563 0.950 . S
H535 C564 0.950 . S
H536 C566 0.950 . S
H537 C567 0.950 . S
C538 H520 0.951 . S
C538 C539 1.366 . S
C538 C540 1.388 . S
C539 C538 1.366 . S
C539 C543 1.385 . S
C540 H521 0.951 . S
C540 C538 1.388 . S
C540 C541 1.366 . S
C541 C540 1.366 . S
C541 C542 1.414 . S
C541 C544 1.499 . S
C542 H522 0.950 . S
C542 C541 1.414 . S
C542 C543 1.374 . S
C543 H523 0.950 . S
C543 C539 1.385 . S
C543 C542 1.374 . S
C544 C541 1.499 . S
C544 C545 1.373 . S
C544 C546 1.389 . S
C545 H524 0.950 . S
C545 C544 1.373 . S
C545 C561 1.377 . S
C546 C544 1.389 . S
C546 C547 1.524 . S
C546 C560 1.377 . S
C547 C546 1.524 . S
C547 C548 1.397 . S
C547 C552 1.363 . S
C548 H525 0.950 . S
C548 C547 1.397 . S
C548 C549 1.334 . S
C549 H526 0.950 . S
C549 C548 1.334 . S
C549 C550 1.287 . S
C550 C549 1.287 . S
C550 C551 1.524 . S
C550 H569 0.913 . S
C551 H527 0.950 . S
C551 C550 1.524 . S
C551 C552 1.415 . S
C552 H528 0.950 . S
C552 C547 1.363 . S
C552 C551 1.415 . S
C553 H529 0.951 . S
C553 C554 1.366 . S
C553 C555 1.388 . S
C554 C553 1.366 . S
C554 C558 1.385 . S
C555 H530 0.951 . S
C555 C553 1.388 . S
C555 C556 1.366 . S
C556 C555 1.366 . S
C556 C557 1.414 . S
C556 C559 1.499 . S
C557 H531 0.950 . S
C557 C556 1.414 . S
C557 C558 1.374 . S
C558 H532 0.950 . S
C558 C554 1.385 . S
C558 C557 1.374 . S
C559 C556 1.499 . S
C559 C560 1.373 . S
C559 C561 1.389 . S
C560 H533 0.950 . S
C560 C546 1.377 . S
C560 C559 1.373 . S
C561 C545 1.377 . S
C561 C559 1.389 . S
C561 C562 1.524 . S
C562 C561 1.524 . S
C562 C563 1.397 . S
C562 C567 1.363 . S
C563 H534 0.950 . S
C563 C562 1.397 . S
C563 C564 1.334 . S
C564 H535 0.950 . S
C564 C563 1.334 . S
C564 C565 1.287 . S
C565 C564 1.287 . S
C565 C566 1.524 . S
C565 H568 0.999 . S
C566 H536 0.950 . S
C566 C565 1.524 . S
C566 C567 1.415 . S
C567 H537 0.950 . S
C567 C562 1.363 . S
C567 C566 1.415 . S
H568 C565 0.999 . S
H569 C550 0.913 . S
H570 C588 0.951 . S
H571 C590 0.951 . S
H572 C592 0.950 . S
H573 C593 0.950 . S
H574 C595 0.950 . S
H575 C598 0.950 . S
H576 C599 0.950 . S
H577 C601 0.950 . S
H578 C602 0.950 . S
H579 C603 0.951 . S
H580 C605 0.951 . S
H581 C607 0.950 . S
H582 C608 0.950 . S
H583 C610 0.950 . S
H584 C613 0.950 . S
H585 C614 0.950 . S
H586 C616 0.950 . S
H587 C617 0.950 . S
C588 H570 0.951 . S
C588 C589 1.366 . S
C588 C590 1.388 . S
C589 C588 1.366 . S
C589 C593 1.385 . S
C590 H571 0.951 . S
C590 C588 1.388 . S
C590 C591 1.366 . S
C591 C590 1.366 . S
C591 C592 1.414 . S
C591 C594 1.499 . S
C592 H572 0.950 . S
C592 C591 1.414 . S
C592 C593 1.374 . S
C593 H573 0.950 . S
C593 C589 1.385 . S
C593 C592 1.374 . S
C594 C591 1.499 . S
C594 C595 1.373 . S
C594 C596 1.389 . S
C595 H574 0.950 . S
C595 C594 1.373 . S
C595 C611 1.377 . S
C596 C594 1.389 . S
C596 C597 1.524 . S
C596 C610 1.377 . S
C597 C596 1.524 . S
C597 C598 1.397 . S
C597 C602 1.363 . S
C598 H575 0.950 . S
C598 C597 1.397 . S
C598 C599 1.334 . S
C599 H576 0.950 . S
C599 C598 1.334 . S
C599 C600 1.287 . S
C600 C599 1.287 . S
C600 C601 1.524 . S
C600 H619 0.913 . S
C601 H577 0.950 . S
C601 C600 1.524 . S
C601 C602 1.415 . S
C602 H578 0.950 . S
C602 C597 1.363 . S
C602 C601 1.415 . S
C603 H579 0.951 . S
C603 C604 1.366 . S
C603 C605 1.388 . S
C604 C603 1.366 . S
C604 C608 1.385 . S
C605 H580 0.951 . S
C605 C603 1.388 . S
C605 C606 1.366 . S
C606 C605 1.366 . S
C606 C607 1.414 . S
C606 C609 1.499 . S
C607 H581 0.950 . S
C607 C606 1.414 . S
C607 C608 1.374 . S
C608 H582 0.950 . S
C608 C604 1.385 . S
C608 C607 1.374 . S
C609 C606 1.499 . S
C609 C610 1.373 . S
C609 C611 1.389 . S
C610 H583 0.950 . S
C610 C596 1.377 . S
C610 C609 1.373 . S
C611 C595 1.377 . S
C611 C609 1.389 . S
C611 C612 1.524 . S
C612 C611 1.524 . S
C612 C613 1.397 . S
C612 C617 1.363 . S
C613 H584 0.950 . S
C613 C612 1.397 . S
C613 C614 1.334 . S
C614 H585 0.950 . S
C614 C613 1.334 . S
C614 C615 1.287 . S
C615 C614 1.287 . S
C615 C616 1.524 . S
C615 H618 0.999 . S
C616 H586 0.950 . S
C616 C615 1.524 . S
C616 C617 1.415 . S
C617 H587 0.950 . S
C617 C612 1.363 . S
C617 C616 1.415 . S
H618 C615 0.999 . S
H619 C600 0.913 . S
H620 C638 0.951 . S
H621 C640 0.951 . S
H622 C642 0.950 . S
H623 C643 0.950 . S
H624 C645 0.950 . S
H625 C648 0.950 . S
H626 C649 0.950 . S
H627 C651 0.950 . S
H628 C652 0.950 . S
H629 C653 0.951 . S
H630 C655 0.951 . S
H631 C657 0.950 . S
H632 C658 0.950 . S
H633 C660 0.950 . S
H634 C663 0.950 . S
H635 C664 0.950 . S
H636 C666 0.950 . S
H637 C667 0.950 . S
C638 H620 0.951 . S
C638 C639 1.366 . S
C638 C640 1.388 . S
C639 C638 1.366 . S
C639 C643 1.385 . S
C640 H621 0.951 . S
C640 C638 1.388 . S
C640 C641 1.366 . S
C641 C640 1.366 . S
C641 C642 1.414 . S
C641 C644 1.499 . S
C642 H622 0.950 . S
C642 C641 1.414 . S
C642 C643 1.374 . S
C643 H623 0.950 . S
C643 C639 1.385 . S
C643 C642 1.374 . S
C644 C641 1.499 . S
C644 C645 1.373 . S
C644 C646 1.389 . S
C645 H624 0.950 . S
C645 C644 1.373 . S
C645 C661 1.377 . S
C646 C644 1.389 . S
C646 C647 1.524 . S
C646 C660 1.377 . S
C647 C646 1.524 . S
C647 C648 1.397 . S
C647 C652 1.363 . S
C648 H625 0.950 . S
C648 C647 1.397 . S
C648 C649 1.334 . S
C649 H626 0.950 . S
C649 C648 1.334 . S
C649 C650 1.287 . S
C650 C649 1.287 . S
C650 C651 1.524 . S
C650 H669 0.913 . S
C651 H627 0.950 . S
C651 C650 1.524 . S
C651 C652 1.415 . S
C652 H628 0.950 . S
C652 C647 1.363 . S
C652 C651 1.415 . S
C653 H629 0.951 . S
C653 C654 1.366 . S
C653 C655 1.388 . S
C654 C653 1.366 . S
C654 C658 1.385 . S
C655 H630 0.951 . S
C655 C653 1.388 . S
C655 C656 1.366 . S
C656 C655 1.366 . S
C656 C657 1.414 . S
C656 C659 1.499 . S
C657 H631 0.950 . S
C657 C656 1.414 . S
C657 C658 1.374 . S
C658 H632 0.950 . S
C658 C654 1.385 . S
C658 C657 1.374 . S
C659 C656 1.499 . S
C659 C660 1.373 . S
C659 C661 1.389 . S
C660 H633 0.950 . S
C660 C646 1.377 . S
C660 C659 1.373 . S
C661 C645 1.377 . S
C661 C659 1.389 . S
C661 C662 1.524 . S
C662 C661 1.524 . S
C662 C663 1.397 . S
C662 C667 1.363 . S
C663 H634 0.950 . S
C663 C662 1.397 . S
C663 C664 1.334 . S
C664 H635 0.950 . S
C664 C663 1.334 . S
C664 C665 1.287 . S
C665 C664 1.287 . S
C665 C666 1.524 . S
C665 H668 0.999 . S
C666 H636 0.950 . S
C666 C665 1.524 . S
C666 C667 1.415 . S
C667 H637 0.950 . S
C667 C662 1.363 . S
C667 C666 1.415 . S
H668 C665 0.999 . S
H669 C650 0.913 . S
H670 C688 0.951 . S
H671 C690 0.951 . S
H672 C692 0.950 . S
H673 C693 0.950 . S
H674 C695 0.950 . S
H675 C698 0.950 . S
H676 C699 0.950 . S
H677 C701 0.950 . S
H678 C702 0.950 . S
H679 C703 0.951 . S
H680 C705 0.951 . S
H681 C707 0.950 . S
H682 C708 0.950 . S
H683 C710 0.950 . S
H684 C713 0.950 . S
H685 C714 0.950 . S
H686 C716 0.950 . S
H687 C717 0.950 . S
C688 H670 0.951 . S
C688 C689 1.366 . S
C688 C690 1.388 . S
C689 C688 1.366 . S
C689 C693 1.385 . S
C690 H671 0.951 . S
C690 C688 1.388 . S
C690 C691 1.366 . S
C691 C690 1.366 . S
C691 C692 1.414 . S
C691 C694 1.499 . S
C692 H672 0.950 . S
C692 C691 1.414 . S
C692 C693 1.374 . S
C693 H673 0.950 . S
C693 C689 1.385 . S
C693 C692 1.374 . S
C694 C691 1.499 . S
C694 C695 1.373 . S
C694 C696 1.389 . S
C695 H674 0.950 . S
C695 C694 1.373 . S
C695 C711 1.377 . S
C696 C694 1.389 . S
C696 C697 1.524 . S
C696 C710 1.377 . S
C697 C696 1.524 . S
C697 C698 1.397 . S
C697 C702 1.363 . S
C698 H675 0.950 . S
C698 C697 1.397 . S
C698 C699 1.334 . S
C699 H676 0.950 . S
C699 C698 1.334 . S
C699 C700 1.287 . S
C700 C699 1.287 . S
C700 C701 1.524 . S
C700 H719 0.913 . S
C701 H677 0.950 . S
C701 C700 1.524 . S
C701 C702 1.415 . S
C702 H678 0.950 . S
C702 C697 1.363 . S
C702 C701 1.415 . S
C703 H679 0.951 . S
C703 C704 1.366 . S
C703 C705 1.388 . S
C704 C703 1.366 . S
C704 C708 1.385 . S
C705 H680 0.951 . S
C705 C703 1.388 . S
C705 C706 1.366 . S
C706 C705 1.366 . S
C706 C707 1.414 . S
C706 C709 1.499 . S
C707 H681 0.950 . S
C707 C706 1.414 . S
C707 C708 1.374 . S
C708 H682 0.950 . S
C708 C704 1.385 . S
C708 C707 1.374 . S
C709 C706 1.499 . S
C709 C710 1.373 . S
C709 C711 1.389 . S
C710 H683 0.950 . S
C710 C696 1.377 . S
C710 C709 1.373 . S
C711 C695 1.377 . S
C711 C709 1.389 . S
C711 C712 1.524 . S
C712 C711 1.524 . S
C712 C713 1.397 . S
C712 C717 1.363 . S
C713 H684 0.950 . S
C713 C712 1.397 . S
C713 C714 1.334 1_545 S
C714 H685 0.950 . S
C714 C713 1.334 1_565 S
C714 C715 1.287 . S
C715 C714 1.287 . S
C715 C716 1.524 . S
C715 H718 0.999 . S
C716 H686 0.950 . S
C716 C715 1.524 . S
C716 C717 1.415 1_565 S
C717 H687 0.950 . S
C717 C712 1.363 . S
C717 C716 1.415 1_545 S
H718 C715 0.999 . S
H719 C700 0.913 . S
H720 C738 0.951 . S
H721 C740 0.951 . S
H722 C742 0.950 . S
H723 C743 0.950 . S
H724 C745 0.950 . S
H725 C748 0.950 . S
H726 C749 0.950 . S
H727 C751 0.950 . S
H728 C752 0.950 . S
H729 C753 0.951 . S
H730 C755 0.951 . S
H731 C757 0.950 . S
H732 C758 0.950 . S
H733 C760 0.950 . S
H734 C763 0.950 . S
H735 C764 0.950 . S
H736 C766 0.950 . S
H737 C767 0.950 . S
C738 H720 0.951 . S
C738 C739 1.366 . S
C738 C740 1.388 . S
C739 C738 1.366 . S
C739 C743 1.385 . S
C740 H721 0.951 . S
C740 C738 1.388 . S
C740 C741 1.366 . S
C741 C740 1.366 . S
C741 C742 1.414 . S
C741 C744 1.499 . S
C742 H722 0.950 . S
C742 C741 1.414 . S
C742 C743 1.374 . S
C743 H723 0.950 . S
C743 C739 1.385 . S
C743 C742 1.374 . S
C744 C741 1.499 . S
C744 C745 1.373 . S
C744 C746 1.389 . S
C745 H724 0.950 . S
C745 C744 1.373 . S
C745 C761 1.377 . S
C746 C744 1.389 . S
C746 C747 1.524 . S
C746 C760 1.377 . S
C747 C746 1.524 . S
C747 C748 1.397 . S
C747 C752 1.363 . S
C748 H725 0.950 . S
C748 C747 1.397 . S
C748 C749 1.334 . S
C749 H726 0.950 . S
C749 C748 1.334 . S
C749 C750 1.287 . S
C750 C749 1.287 . S
C750 C751 1.524 . S
C750 H769 0.913 . S
C751 H727 0.950 . S
C751 C750 1.524 . S
C751 C752 1.415 . S
C752 H728 0.950 . S
C752 C747 1.363 . S
C752 C751 1.415 . S
C753 H729 0.951 . S
C753 C754 1.366 . S
C753 C755 1.388 . S
C754 C753 1.366 . S
C754 C758 1.385 . S
C755 H730 0.951 . S
C755 C753 1.388 . S
C755 C756 1.366 . S
C756 C755 1.366 . S
C756 C757 1.414 . S
C756 C759 1.499 . S
C757 H731 0.950 . S
C757 C756 1.414 . S
C757 C758 1.374 . S
C758 H732 0.950 . S
C758 C754 1.385 . S
C758 C757 1.374 . S
C759 C756 1.499 . S
C759 C760 1.373 . S
C759 C761 1.389 . S
C760 H733 0.950 . S
C760 C746 1.377 . S
C760 C759 1.373 . S
C761 C745 1.377 . S
C761 C759 1.389 . S
C761 C762 1.524 . S
C762 C761 1.524 . S
C762 C763 1.397 . S
C762 C767 1.363 . S
C763 H734 0.950 . S
C763 C762 1.397 . S
C763 C764 1.334 . S
C764 H735 0.950 . S
C764 C763 1.334 . S
C764 C765 1.287 . S
C765 C764 1.287 . S
C765 C766 1.524 . S
C765 H768 0.999 . S
C766 H736 0.950 . S
C766 C765 1.524 . S
C766 C767 1.415 . S
C767 H737 0.950 . S
C767 C762 1.363 . S
C767 C766 1.415 . S
H768 C765 0.999 . S
H769 C750 0.913 . S
H770 C788 0.951 . S
H771 C790 0.951 . S
H772 C792 0.950 . S
H773 C793 0.950 . S
H774 C795 0.950 . S
H775 C798 0.950 . S
H776 C799 0.950 . S
H777 C801 0.950 . S
H778 C802 0.950 . S
H779 C803 0.951 . S
H780 C805 0.951 . S
H781 C807 0.950 . S
H782 C808 0.950 . S
H783 C810 0.950 . S
H784 C813 0.950 . S
H785 C814 0.950 . S
H786 C816 0.950 . S
H787 C817 0.950 . S
C788 H770 0.951 . S
C788 C789 1.366 . S
C788 C790 1.388 . S
C789 C788 1.366 . S
C789 C793 1.385 . S
C790 H771 0.951 . S
C790 C788 1.388 . S
C790 C791 1.366 . S
C791 C790 1.366 . S
C791 C792 1.414 . S
C791 C794 1.499 . S
C792 H772 0.950 . S
C792 C791 1.414 . S
C792 C793 1.374 . S
C793 H773 0.950 . S
C793 C789 1.385 . S
C793 C792 1.374 . S
C794 C791 1.499 . S
C794 C795 1.373 . S
C794 C796 1.389 . S
C795 H774 0.950 . S
C795 C794 1.373 . S
C795 C811 1.377 . S
C796 C794 1.389 . S
C796 C797 1.524 . S
C796 C810 1.377 . S
C797 C796 1.524 . S
C797 C798 1.397 . S
C797 C802 1.363 . S
C798 H775 0.950 . S
C798 C797 1.397 . S
C798 C799 1.334 . S
C799 H776 0.950 . S
C799 C798 1.334 . S
C799 C800 1.287 . S
C800 C799 1.287 . S
C800 C801 1.524 . S
C800 H819 0.913 . S
C801 H777 0.950 . S
C801 C800 1.524 . S
C801 C802 1.415 . S
C802 H778 0.950 . S
C802 C797 1.363 . S
C802 C801 1.415 . S
C803 H779 0.951 . S
C803 C804 1.366 . S
C803 C805 1.388 . S
C804 C803 1.366 . S
C804 C808 1.385 . S
C805 H780 0.951 . S
C805 C803 1.388 . S
C805 C806 1.366 . S
C806 C805 1.366 . S
C806 C807 1.414 . S
C806 C809 1.499 . S
C807 H781 0.950 . S
C807 C806 1.414 . S
C807 C808 1.374 . S
C808 H782 0.950 . S
C808 C804 1.385 . S
C808 C807 1.374 . S
C809 C806 1.499 . S
C809 C810 1.373 . S
C809 C811 1.389 . S
C810 H783 0.950 . S
C810 C796 1.377 . S
C810 C809 1.373 . S
C811 C795 1.377 . S
C811 C809 1.389 . S
C811 C812 1.524 . S
C812 C811 1.524 . S
C812 C813 1.397 1_565 S
C812 C817 1.363 . S
C813 H784 0.950 . S
C813 C812 1.397 1_545 S
C813 C814 1.334 . S
C814 H785 0.950 . S
C814 C813 1.334 . S
C814 C815 1.287 . S
C815 C814 1.287 . S
C815 C816 1.524 . S
C815 H818 0.999 . S
C816 H786 0.950 . S
C816 C815 1.524 . S
C816 C817 1.415 1_545 S
C817 H787 0.950 . S
C817 C812 1.363 . S
C817 C816 1.415 1_565 S
H818 C815 0.999 . S
H819 C800 0.913 . S
C254 C120 1.679 . S
C239 C43 1.601 . S
C289 C4 1.628 . S
C304 C192 1.662 . S
C339 C17 1.630 . S
C354 C108 1.679 . S
C389 C30 1.666 . S
C404 C204 1.662 . S
C454 C110 1.429 . S
C439 C9 1.597 . S
C504 C191 1.693 . S
C489 C21 1.691 . S
C539 C34 1.633 . S
C554 C107 1.636 . S
C589 C48 1.596 . S
C604 C194 1.423 . S
C654 C206 1.423 . S
C639 C22 1.597 . S
C704 C122 1.429 . S
C689 C35 1.598 1_556 S
C754 C203 1.693 . S
C739 C47 1.688 . S
C789 C8 1.629 . S
C804 C119 1.636 . S
